# Generated by pormake.
# Topology wll, (5)-cn, num edge types: 1
# Building blocks:
#     Node 0, Type 0, BuildingBlock: BEQFEK_clean_sbu_0, # of connection points: 5
#     Node 1, Type 0, BuildingBlock: BEQFEK_clean_sbu_0, # of connection points: 5
#     Node 2, Type 0, BuildingBlock: BEQFEK_clean_sbu_0, # of connection points: 5
#     Node 3, Type 0, BuildingBlock: BEQFEK_clean_sbu_0, # of connection points: 5
#     Node 4, Type 0, BuildingBlock: BEQFEK_clean_sbu_0, # of connection points: 5
#     Node 5, Type 0, BuildingBlock: BEQFEK_clean_sbu_0, # of connection points: 5
#     Node 6, Type 0, BuildingBlock: BEQFEK_clean_sbu_0, # of connection points: 5
#     Node 7, Type 0, BuildingBlock: BEQFEK_clean_sbu_0, # of connection points: 5
#     Node 8, Type 0, BuildingBlock: BEQFEK_clean_sbu_0, # of connection points: 5
#     Node 9, Type 0, BuildingBlock: BEQFEK_clean_sbu_0, # of connection points: 5
#     Node 10, Type 0, BuildingBlock: BEQFEK_clean_sbu_0, # of connection points: 5
#     Node 11, Type 0, BuildingBlock: BEQFEK_clean_sbu_0, # of connection points: 5
#     Node 12, Type 0, BuildingBlock: BEQFEK_clean_sbu_0, # of connection points: 5
#     Node 13, Type 0, BuildingBlock: BEQFEK_clean_sbu_0, # of connection points: 5
#     Node 14, Type 0, BuildingBlock: BEQFEK_clean_sbu_0, # of connection points: 5
#     Node 15, Type 0, BuildingBlock: BEQFEK_clean_sbu_0, # of connection points: 5
#     Node 16, Type 0, BuildingBlock: BEQFEK_clean_sbu_0, # of connection points: 5
#     Node 17, Type 0, BuildingBlock: BEQFEK_clean_sbu_0, # of connection points: 5
#     Edge 18, Type (0, 0), BuildingBlock: UVAHIK_clean_linker_0, # of connection points: 2
#     Edge 19, Type (0, 0), BuildingBlock: UVAHIK_clean_linker_0, # of connection points: 2
#     Edge 20, Type (0, 0), BuildingBlock: UVAHIK_clean_linker_0, # of connection points: 2
#     Edge 21, Type (0, 0), BuildingBlock: UVAHIK_clean_linker_0, # of connection points: 2
#     Edge 22, Type (0, 0), BuildingBlock: UVAHIK_clean_linker_0, # of connection points: 2
#     Edge 23, Type (0, 0), BuildingBlock: UVAHIK_clean_linker_0, # of connection points: 2
#     Edge 24, Type (0, 0), BuildingBlock: UVAHIK_clean_linker_0, # of connection points: 2
#     Edge 25, Type (0, 0), BuildingBlock: UVAHIK_clean_linker_0, # of connection points: 2
#     Edge 26, Type (0, 0), BuildingBlock: UVAHIK_clean_linker_0, # of connection points: 2
#     Edge 27, Type (0, 0), BuildingBlock: UVAHIK_clean_linker_0, # of connection points: 2
#     Edge 28, Type (0, 0), BuildingBlock: UVAHIK_clean_linker_0, # of connection points: 2
#     Edge 29, Type (0, 0), BuildingBlock: UVAHIK_clean_linker_0, # of connection points: 2
#     Edge 30, Type (0, 0), BuildingBlock: UVAHIK_clean_linker_0, # of connection points: 2
#     Edge 31, Type (0, 0), BuildingBlock: UVAHIK_clean_linker_0, # of connection points: 2
#     Edge 32, Type (0, 0), BuildingBlock: UVAHIK_clean_linker_0, # of connection points: 2
#     Edge 33, Type (0, 0), BuildingBlock: UVAHIK_clean_linker_0, # of connection points: 2
#     Edge 34, Type (0, 0), BuildingBlock: UVAHIK_clean_linker_0, # of connection points: 2
#     Edge 35, Type (0, 0), BuildingBlock: UVAHIK_clean_linker_0, # of connection points: 2
#     Edge 36, Type (0, 0), BuildingBlock: UVAHIK_clean_linker_0, # of connection points: 2
#     Edge 37, Type (0, 0), BuildingBlock: UVAHIK_clean_linker_0, # of connection points: 2
#     Edge 38, Type (0, 0), BuildingBlock: UVAHIK_clean_linker_0, # of connection points: 2
#     Edge 39, Type (0, 0), BuildingBlock: UVAHIK_clean_linker_0, # of connection points: 2
#     Edge 40, Type (0, 0), BuildingBlock: UVAHIK_clean_linker_0, # of connection points: 2
#     Edge 41, Type (0, 0), BuildingBlock: UVAHIK_clean_linker_0, # of connection points: 2
#     Edge 42, Type (0, 0), BuildingBlock: UVAHIK_clean_linker_0, # of connection points: 2
#     Edge 43, Type (0, 0), BuildingBlock: UVAHIK_clean_linker_0, # of connection points: 2
#     Edge 44, Type (0, 0), BuildingBlock: UVAHIK_clean_linker_0, # of connection points: 2
#     Edge 45, Type (0, 0), BuildingBlock: UVAHIK_clean_linker_0, # of connection points: 2
#     Edge 46, Type (0, 0), BuildingBlock: UVAHIK_clean_linker_0, # of connection points: 2
#     Edge 47, Type (0, 0), BuildingBlock: UVAHIK_clean_linker_0, # of connection points: 2
#     Edge 48, Type (0, 0), BuildingBlock: UVAHIK_clean_linker_0, # of connection points: 2
#     Edge 49, Type (0, 0), BuildingBlock: UVAHIK_clean_linker_0, # of connection points: 2
#     Edge 50, Type (0, 0), BuildingBlock: UVAHIK_clean_linker_0, # of connection points: 2
#     Edge 51, Type (0, 0), BuildingBlock: UVAHIK_clean_linker_0, # of connection points: 2
#     Edge 52, Type (0, 0), BuildingBlock: UVAHIK_clean_linker_0, # of connection points: 2
#     Edge 53, Type (0, 0), BuildingBlock: UVAHIK_clean_linker_0, # of connection points: 2
#     Edge 54, Type (0, 0), BuildingBlock: UVAHIK_clean_linker_0, # of connection points: 2
#     Edge 55, Type (0, 0), BuildingBlock: UVAHIK_clean_linker_0, # of connection points: 2
#     Edge 56, Type (0, 0), BuildingBlock: UVAHIK_clean_linker_0, # of connection points: 2
#     Edge 57, Type (0, 0), BuildingBlock: UVAHIK_clean_linker_0, # of connection points: 2
#     Edge 58, Type (0, 0), BuildingBlock: UVAHIK_clean_linker_0, # of connection points: 2
#     Edge 59, Type (0, 0), BuildingBlock: UVAHIK_clean_linker_0, # of connection points: 2
#     Edge 60, Type (0, 0), BuildingBlock: UVAHIK_clean_linker_0, # of connection points: 2
#     Edge 61, Type (0, 0), BuildingBlock: UVAHIK_clean_linker_0, # of connection points: 2
#     Edge 62, Type (0, 0), BuildingBlock: UVAHIK_clean_linker_0, # of connection points: 2
# Relax obj value: 0.188
# Max RMSD: 0.162
# Mean RMSD: 0.161
data_MOF--net-wll--node1-BEQFEK_clean_sbu_0--edge1-UVAHIK_clean_linker_0
_symmetry_space_group_name_H-M    P1
_symmetry_Int_Tables_number       1
_symmetry_cell_setting            triclinic
loop_
_symmetry_equiv_pos_as_xyz
'x, y, z'
_cell_length_a     49.822206
_cell_length_b     49.809493
_cell_length_c     83.889974
_cell_angle_alpha  89.973251
_cell_angle_beta   90.020078
_cell_angle_gamma 120.0194
loop_
_atom_site_label
_atom_site_type_symbol
_atom_site_fract_x
_atom_site_fract_y
_atom_site_fract_z
_atom_type_partial_charge
Co0 Co 0.31382 0.33181 0.11077 0.0
Co1 Co 0.34744 0.31513 0.08418 0.0
C2 C 0.3248 0.27821 0.11425 0.0
O3 O 0.3144 0.2953 0.11926 0.0
O4 O 0.33815 0.28314 0.10077 0.0
C5 C 0.26257 0.31611 0.13026 0.0
O6 O 0.25385 0.28894 0.12379 0.0
C7 C 0.35285 0.27628 0.05955 0.0
C8 C 0.38984 0.31096 0.04406 0.0
C9 C 0.36922 0.27946 0.0456 0.0
N10 N 0.36287 0.30465 0.06573 0.0
N11 N 0.38517 0.32525 0.05649 0.0
C12 C 0.32923 0.24691 0.06749 0.0
H13 H 0.33607 0.24684 0.08003 0.0
H14 H 0.30646 0.24588 0.06754 0.0
H15 H 0.32708 0.22596 0.06169 0.0
C16 C 0.27592 0.32976 0.08329 0.0
N17 N 0.29796 0.32522 0.08988 0.0
N18 N 0.31155 0.31777 0.07865 0.0
C19 C 0.29807 0.31685 0.06454 0.0
C20 C 0.27512 0.32442 0.06705 0.0
C21 C 0.25709 0.3405 0.0923 0.0
H22 H 0.27243 0.36009 0.10021 0.0
H23 H 0.24006 0.32123 0.09988 0.0
H24 H 0.24421 0.3477 0.08422 0.0
O25 O 0.35604 0.36755 0.11095 0.0
O26 O 0.38072 0.35583 0.09254 0.0
H27 H 0.33382 0.32918 0.04721 0.0
H28 H 0.29561 0.31411 0.03874 0.0
C29 C 0.30892 0.3119 0.04876 0.0
H30 H 0.30624 0.28844 0.04848 0.0
H31 H 0.3969 0.34911 0.05856 0.0
O32 O 0.28799 0.3394 0.12588 0.0
C33 C 0.3805 0.37405 0.10317 0.0
Co34 Co 0.66532 0.98134 0.11062 0.0
Co35 Co 0.67578 0.03055 0.08449 0.0
C36 C 0.71734 0.04644 0.11308 0.0
O37 O 0.70218 0.01885 0.11826 0.0
O38 O 0.70968 0.05421 0.10016 0.0
C39 C 0.68345 0.94706 0.12999 0.0
O40 O 0.71051 0.96605 0.12356 0.0
C41 C 0.71179 0.06949 0.05807 0.0
C42 C 0.68263 0.08768 0.04859 0.0
C43 C 0.71077 0.0888 0.04649 0.0
N44 N 0.68536 0.05719 0.0665 0.0
N45 N 0.66795 0.06807 0.06078 0.0
C46 C 0.73849 0.06478 0.06198 0.0
H47 H 0.73445 0.05198 0.07335 0.0
H48 H 0.74154 0.05121 0.05241 0.0
H49 H 0.76019 0.08756 0.06273 0.0
C50 C 0.66499 0.94576 0.08247 0.0
N51 N 0.66946 0.97212 0.08932 0.0
N52 N 0.67294 0.99223 0.07816 0.0
C53 C 0.6705 0.97902 0.06378 0.0
C54 C 0.66565 0.94932 0.06607 0.0
C55 C 0.65889 0.91738 0.09155 0.0
H56 H 0.67929 0.92294 0.09909 0.0
H57 H 0.65459 0.89792 0.08354 0.0
H58 H 0.63866 0.91019 0.09952 0.0
O59 O 0.62893 0.98673 0.11236 0.0
O60 O 0.63586 0.02232 0.09423 0.0
H61 H 0.65603 0.9743 0.03913 0.0
H62 H 0.69208 0.00858 0.04374 0.0
C63 C 0.6684 0.99262 0.04822 0.0
H64 H 0.65609 0.0058 0.04983 0.0
H65 H 0.64628 0.06252 0.06536 0.0
O66 O 0.65972 0.94829 0.12554 0.0
C67 C 0.61997 0.00358 0.10535 0.0
Co68 Co 0.00987 0.68424 0.10753 0.0
Co69 Co 0.96006 0.64387 0.08182 0.0
C70 C 0.94295 0.66598 0.11109 0.0
O71 O 0.97085 0.67926 0.11588 0.0
O72 O 0.93512 0.65145 0.0979 0.0
C73 C 0.03974 0.73502 0.12858 0.0
O74 O 0.01558 0.7378 0.12499 0.0
C75 C 0.91356 0.63233 0.05774 0.0
C76 C 0.91621 0.59862 0.04167 0.0
C77 C 0.90173 0.61597 0.04371 0.0
N78 N 0.93404 0.625 0.06377 0.0
N79 N 0.93522 0.60448 0.05425 0.0
C80 C 0.90852 0.6574 0.06433 0.0
H81 H 0.92967 0.67504 0.07058 0.0
H82 H 0.9024 0.66874 0.05473 0.0
H83 H 0.88919 0.64706 0.07304 0.0
C84 C 0.04166 0.72196 0.07938 0.0
N85 N 0.01671 0.69832 0.08636 0.0
N86 N -0.00365 0.68139 0.07538 0.0
C87 C 0.00793 0.69383 0.06096 0.0
C88 C 0.03695 0.71994 0.06304 0.0
C89 C 0.07077 0.74361 0.08814 0.0
H90 H 0.07768 0.73007 0.09592 0.0
H91 H 0.06626 0.75896 0.09589 0.0
H92 H 0.09011 0.75805 0.0799 0.0
O93 O 0.00828 0.64407 0.10877 0.0
O94 O 0.97178 0.61438 0.09127 0.0
H95 H 0.98869 0.6567 0.04409 0.0
H96 H 0.00571 0.69482 0.03515 0.0
C97 C 0.99214 0.68037 0.04542 0.0
H98 H 0.96912 0.6787 0.04534 0.0
H99 H 0.94987 0.59538 0.05601 0.0
O100 O 0.04297 0.7139 0.12191 0.0
C101 C 0.99176 0.61809 0.10186 0.0
Co102 Co 0.68217 0.66882 0.88753 0.0
Co103 Co 0.64539 0.68169 0.91389 0.0
C104 C 0.66757 0.7199 0.88411 0.0
O105 O 0.68016 0.70467 0.87926 0.0
O106 O 0.65308 0.7134 0.89732 0.0
C107 C 0.73534 0.68593 0.86888 0.0
O108 O 0.7446 0.71265 0.876 0.0
C109 C 0.63505 0.71844 0.93782 0.0
C110 C 0.60359 0.68276 0.95491 0.0
C111 C 0.6201 0.71449 0.95234 0.0
N112 N 0.62832 0.69041 0.9323 0.0
N113 N 0.60918 0.66915 0.94247 0.0
C114 C 0.6545 0.74802 0.92888 0.0
H115 H 0.64412 0.7462 0.91698 0.0
H116 H 0.6781 0.75148 0.92709 0.0
H117 H 0.65586 0.76842 0.93492 0.0
C118 C 0.71956 0.67134 0.9154 0.0
N119 N 0.69717 0.67507 0.9086 0.0
N120 N 0.68274 0.68181 0.91966 0.0
C121 C 0.69631 0.68359 0.93386 0.0
C122 C 0.71997 0.67678 0.93166 0.0
C123 C 0.73719 0.65871 0.90677 0.0
H124 H 0.72257 0.64244 0.8973 0.0
H125 H 0.75801 0.67815 0.90115 0.0
H126 H 0.74472 0.6463 0.915 0.0
O127 O 0.64096 0.63203 0.88677 0.0
O128 O 0.61404 0.63984 0.9055 0.0
H129 H 0.66437 0.6723 0.95314 0.0
H130 H 0.70448 0.69745 0.95869 0.0
C131 C 0.68696 0.69191 0.9492 0.0
H132 H 0.68432 0.71247 0.94736 0.0
H133 H 0.60057 0.64538 0.94111 0.0
O134 O 0.70917 0.66289 0.8725 0.0
C135 C 0.61594 0.62314 0.89451 0.0
Co136 Co 0.3264 0.01252 0.88824 0.0
Co137 Co 0.31549 0.96277 0.9141 0.0
C138 C 0.27496 0.94719 0.88514 0.0
O139 O 0.29018 0.97491 0.88015 0.0
O140 O 0.28216 0.93922 0.89814 0.0
C141 C 0.30798 0.04663 0.86902 0.0
O142 O 0.28083 0.02674 0.87506 0.0
C143 C 0.27901 0.92318 0.94018 0.0
C144 C 0.3083 0.90536 0.94993 0.0
C145 C 0.27997 0.90394 0.9518 0.0
N146 N 0.30567 0.93578 0.93194 0.0
N147 N 0.32315 0.92509 0.93781 0.0
C148 C 0.25221 0.92759 0.93606 0.0
H149 H 0.25686 0.94137 0.92499 0.0
H150 H 0.24795 0.93992 0.94585 0.0
H151 H 0.23092 0.90465 0.93462 0.0
C152 C 0.32509 0.04702 0.91646 0.0
N153 N 0.32125 0.02098 0.90951 0.0
N154 N 0.31755 0.00066 0.92059 0.0
C155 C 0.31917 0.01341 0.93503 0.0
C156 C 0.32369 0.043 0.93283 0.0
C157 C 0.33157 0.07568 0.90754 0.0
H158 H 0.31131 0.07047 0.89996 0.0
H159 H 0.33597 0.09501 0.91566 0.0
H160 H 0.35188 0.08288 0.89962 0.0
O161 O 0.36326 0.00789 0.88678 0.0
O162 O 0.35588 0.97171 0.90464 0.0
H163 H 0.33245 0.01768 0.95984 0.0
H164 H 0.29693 0.98322 0.95477 0.0
C165 C 0.32075 -0.00046 0.95059 0.0
H166 H 0.33346 0.98672 0.94913 0.0
H167 H 0.34501 0.93093 0.93341 0.0
O168 O 0.33191 0.04588 0.87359 0.0
C169 C 0.37213 0.99096 0.89377 0.0
Co170 Co 0.97985 0.30935 0.89039 0.0
Co171 Co 0.02965 0.34995 0.91609 0.0
C172 C 0.04659 0.3282 0.88647 0.0
O173 O 0.01867 0.31434 0.88173 0.0
O174 O 0.05418 0.3428 0.89964 0.0
C175 C 0.94976 0.25817 0.86976 0.0
O176 O 0.9735 0.25503 0.87385 0.0
C177 C 0.07435 0.35827 0.9406 0.0
C178 C 0.07757 0.39668 0.9552 0.0
C179 C 0.08793 0.37556 0.95424 0.0
N180 N 0.05625 0.36818 0.93405 0.0
N181 N 0.05852 0.39139 0.94271 0.0
C182 C 0.07903 0.33337 0.9334 0.0
H183 H 0.05637 0.31161 0.93245 0.0
H184 H 0.09563 0.32923 0.94023 0.0
H185 H 0.08835 0.34036 0.92118 0.0
C186 C 0.94836 0.27152 0.91858 0.0
N187 N 0.97325 0.29517 0.91157 0.0
N188 N 0.99345 0.31239 0.92254 0.0
C189 C 0.98175 0.30024 0.937 0.0
C190 C 0.95291 0.27389 0.93494 0.0
C191 C 0.91935 0.24954 0.90985 0.0
H192 H 0.9121 0.26284 0.90209 0.0
H193 H 0.92415 0.23442 0.90208 0.0
H194 H 0.90014 0.23486 0.9181 0.0
O195 O 0.98152 0.34967 0.88932 0.0
O196 O 0.01764 0.37943 0.907 0.0
H197 H 0.00317 0.33902 0.95288 0.0
H198 H 0.98225 0.30191 0.96286 0.0
C199 C -0.00283 0.31438 0.95252 0.0
H200 H 0.01886 0.31347 0.95353 0.0
H201 H 0.04654 0.40315 0.94029 0.0
O202 O 0.94671 0.27973 0.87602 0.0
C203 C -0.00228 0.37561 0.89634 0.0
Co204 Co 0.97654 0.65555 0.44255 0.0
Co205 Co 0.01842 0.64847 0.41695 0.0
C206 C 0.99317 0.60615 0.44538 0.0
O207 O 0.97932 0.62006 0.4503 0.0
O208 O 0.00915 0.61463 0.43263 0.0
C209 C 0.92483 0.63463 0.46292 0.0
O210 O 0.92114 0.60759 0.45872 0.0
C211 C 0.02318 0.61338 0.39078 0.0
C212 C 0.07013 0.64369 0.3811 0.0
C213 C 0.04362 0.61505 0.37913 0.0
N214 N 0.03667 0.63991 0.39913 0.0
N215 N 0.06478 0.65801 0.39332 0.0
C216 C 0.99219 0.58605 0.39475 0.0
H217 H 0.99447 0.56516 0.39637 0.0
H218 H 0.98248 0.59039 0.40569 0.0
H219 H 0.97573 0.58127 0.38482 0.0
C220 C 0.941 0.65308 0.41404 0.0
N221 N 0.96396 0.65071 0.42112 0.0
N222 N 0.98223 0.64948 0.41017 0.0
C223 C 0.97186 0.65199 0.39568 0.0
C224 C 0.9452 0.65391 0.39769 0.0
C225 C 0.9178 0.65812 0.42287 0.0
H226 H 0.93012 0.67844 0.43088 0.0
H227 H 0.90329 0.63754 0.43041 0.0
H228 H 0.90264 0.66207 0.41468 0.0
O229 O 0.01756 0.69311 0.44482 0.0
O230 O 0.04823 0.68895 0.42689 0.0
H231 H 0.01367 0.66884 0.382 0.0
H232 H 0.98095 0.66499 0.37075 0.0
C233 C 0.98825 0.65461 0.38029 0.0
H234 H 0.98259 0.63117 0.37631 0.0
H235 H 0.08041 0.67995 0.3978 0.0
O236 O 0.94685 0.65916 0.45681 0.0
C237 C 0.04393 0.70368 0.43813 0.0
Co238 Co 0.3341 0.31869 0.44278 0.0
Co239 Co 0.34525 0.36664 0.41568 0.0
C240 C 0.38418 0.38584 0.44488 0.0
O241 O 0.36896 0.35838 0.45029 0.0
O242 O 0.37783 0.39277 0.43135 0.0
C243 C 0.35553 0.28992 0.46424 0.0
O244 O 0.38244 0.31301 0.45966 0.0
C245 C 0.37918 0.41273 0.39109 0.0
C246 C 0.34243 0.40509 0.37388 0.0
C247 C 0.37409 0.42239 0.37648 0.0
N248 N 0.35178 0.39079 0.39692 0.0
N249 N 0.32982 0.38662 0.38669 0.0
C250 C 0.4098 0.42124 0.39846 0.0
H251 H 0.4083 0.40096 0.40479 0.0
H252 H 0.42839 0.42952 0.38935 0.0
H253 H 0.41592 0.44005 0.40727 0.0
C254 C 0.33716 0.28309 0.41557 0.0
N255 N 0.34037 0.30935 0.42189 0.0
N256 N 0.34619 0.32968 0.41048 0.0
C257 C 0.3478 0.31719 0.39649 0.0
C258 C 0.34185 0.28711 0.39921 0.0
C259 C 0.32576 0.25363 0.42482 0.0
H260 H 0.30857 0.25158 0.43384 0.0
H261 H 0.34559 0.25419 0.43115 0.0
H262 H 0.31478 0.23295 0.41698 0.0
O263 O 0.29601 0.321 0.44355 0.0
O264 O 0.30403 0.35599 0.42487 0.0
H265 H 0.33457 0.33532 0.37681 0.0
H266 H 0.36093 0.32168 0.37159 0.0
C267 C 0.35495 0.33375 0.38083 0.0
H268 H 0.37485 0.35753 0.38222 0.0
H269 H 0.30637 0.37035 0.38819 0.0
O270 O 0.33084 0.28696 0.45811 0.0
C271 C 0.28725 0.33725 0.4358 0.0
Co272 Co 0.67447 0.02375 0.44191 0.0
Co273 Co 0.62584 0.98159 0.41642 0.0
C274 C 0.60972 0.01027 0.44393 0.0
O275 O 0.63746 0.02446 0.44897 0.0
O276 O 0.60222 0.99294 0.43166 0.0
C277 C 0.70638 0.04724 0.47062 0.0
O278 O 0.68179 0.02239 0.4761 0.0
C279 C 0.58711 0.97639 0.3895 0.0
C280 C 0.5681 0.92799 0.38148 0.0
C281 C 0.56755 0.95505 0.37836 0.0
N282 N 0.59903 0.96282 0.39866 0.0
N283 N 0.58767 0.93388 0.39381 0.0
C284 C 0.5924 0.00837 0.39234 0.0
H285 H 0.60476 0.0179 0.40376 0.0
H286 H 0.60663 0.02399 0.38257 0.0
H287 H 0.56989 0.00791 0.39242 0.0
C288 C 0.70965 0.05629 0.4133 0.0
N289 N 0.68343 0.03472 0.42035 0.0
N290 N 0.66373 0.01665 0.40942 0.0
C291 C 0.67717 0.02602 0.39495 0.0
C292 C 0.70658 0.05156 0.39698 0.0
C293 C 0.73768 0.07979 0.42217 0.0
H294 H 0.73065 0.09117 0.43131 0.0
H295 H 0.75496 0.09769 0.41406 0.0
H296 H 0.74845 0.06789 0.42842 0.0
O297 O 0.66857 0.98203 0.44536 0.0
O298 O 0.63485 0.95122 0.4271 0.0
H299 H 0.68289 0.01325 0.3711 0.0
H300 H 0.64849 0.01555 0.37432 0.0
C301 C 0.66419 0.0084 0.37978 0.0
H302 H 0.65085 0.98315 0.38221 0.0
H303 H 0.59286 0.91802 0.39908 0.0
O304 O 0.70866 0.05269 0.45574 0.0
C305 C 0.65274 0.95547 0.43889 0.0
Co306 Co 0.34273 0.00182 0.22285 0.0
Co307 Co 0.30456 0.01197 0.24953 0.0
C308 C 0.32622 0.05189 0.2204 0.0
O309 O 0.33875 0.0369 0.21509 0.0
O310 O 0.31223 0.04505 0.23376 0.0
C311 C 0.3924 0.02086 0.20092 0.0
O312 O 0.39586 0.04833 0.20381 0.0
C313 C 0.29441 0.04684 0.27423 0.0
C314 C 0.26154 0.01029 0.29052 0.0
C315 C 0.27873 0.04215 0.2885 0.0
N316 N 0.28683 0.01908 0.26804 0.0
N317 N 0.26684 0.99727 0.27771 0.0
C318 C 0.31902 0.07706 0.26749 0.0
H319 H 0.33655 0.07374 0.261 0.0
H320 H 0.3306 0.09459 0.27702 0.0
H321 H 0.3082 0.08584 0.25894 0.0
C322 C 0.38149 0.00634 0.25033 0.0
N323 N 0.35777 0.00824 0.24386 0.0
N324 N 0.34182 0.0121 0.25523 0.0
C325 C 0.35498 0.01269 0.26939 0.0
C326 C 0.38053 0.00911 0.26673 0.0
C327 C 0.40232 -0.0015 0.24106 0.0
H328 H 0.38811 0.97807 0.23338 0.0
H329 H 0.41738 0.01828 0.23318 0.0
H330 H 0.41706 0.99337 0.24894 0.0
O331 O 0.3019 0.9639 0.22178 0.0
O332 O 0.27397 0.97119 0.24015 0.0
H333 H 0.31926 0.99561 0.28704 0.0
H334 H 0.35805 0.01679 0.29515 0.0
C335 C 0.34285 0.01569 0.28521 0.0
H336 H 0.34134 0.03712 0.28535 0.0
H337 H 0.25768 0.97355 0.27585 0.0
O338 O 0.37118 0.9973 0.2081 0.0
C339 C 0.27647 0.95485 0.22918 0.0
Co340 Co 0.98714 0.34393 0.2229 0.0
Co341 Co 0.98003 0.2948 0.24848 0.0
C342 C 0.93916 0.27722 0.21949 0.0
O343 O 0.95249 0.30516 0.21472 0.0
O344 O 0.94746 0.26982 0.23234 0.0
C345 C 0.96854 0.37556 0.20113 0.0
O346 O 0.9411 0.35085 0.20303 0.0
C347 C 0.9455 0.24737 0.27221 0.0
C348 C 0.9821 0.24924 0.28783 0.0
C349 C 0.95023 0.23463 0.28586 0.0
N350 N 0.97322 0.26842 0.26631 0.0
N351 N 0.99507 0.26921 0.27559 0.0
C352 C 0.91526 0.24232 0.26583 0.0
H353 H 0.91855 0.26365 0.25985 0.0
H354 H 0.89787 0.23571 0.2755 0.0
H355 H 0.9063 0.22332 0.25692 0.0
C356 C 0.9824 0.37572 0.25138 0.0
N357 N 0.98093 0.35082 0.24426 0.0
N358 N 0.9784 0.33067 0.25516 0.0
C359 C 0.97835 0.34234 0.26967 0.0
C360 C 0.98084 0.37122 0.26774 0.0
C361 C 0.9891 0.40466 0.24266 0.0
H362 H 0.00999 0.4124 0.23511 0.0
H363 H 0.96935 0.3995 0.23467 0.0
H364 H 0.99299 0.42367 0.2509 0.0
O365 O 0.02544 0.34196 0.22104 0.0
O366 O 0.02144 0.30747 0.23909 0.0
H367 H -0.00209 0.32388 0.28601 0.0
H368 H 0.9767 0.34022 0.2955 0.0
C369 C 0.9773 0.32678 0.28511 0.0
H370 H 0.9563 0.30349 0.2854 0.0
H371 H 0.01878 0.28403 0.27382 0.0
O372 O 0.99149 0.37785 0.2089 0.0
C373 C 0.03637 0.32678 0.228 0.0
Co374 Co 0.64976 0.64275 0.22261 0.0
Co375 Co 0.69914 0.68199 0.24861 0.0
C376 C 0.71591 0.65843 0.21973 0.0
O377 O 0.68816 0.64565 0.21478 0.0
O378 O 0.72376 0.67343 0.23278 0.0
C379 C 0.61902 0.59115 0.20232 0.0
O380 O 0.64153 0.58668 0.20721 0.0
C381 C 0.74284 0.68951 0.27331 0.0
C382 C 0.74963 0.73058 0.28676 0.0
C383 C 0.7583 0.70814 0.28624 0.0
N384 N 0.72548 0.70009 0.2666 0.0
N385 N 0.72973 0.72478 0.2746 0.0
C386 C 0.74551 0.66297 0.26675 0.0
H387 H 0.72297 0.64523 0.26165 0.0
H388 H 0.75328 0.65225 0.27586 0.0
H389 H 0.76282 0.67172 0.25696 0.0
C390 C 0.6155 0.60659 0.25068 0.0
N391 N 0.64143 0.62913 0.24385 0.0
N392 N 0.66197 0.64511 0.25494 0.0
C393 C 0.64974 0.63281 0.2693 0.0
C394 C 0.61983 0.60797 0.26707 0.0
C395 C 0.58598 0.58693 0.24173 0.0
H396 H 0.58256 0.60121 0.2327 0.0
H397 H 0.58766 0.56827 0.2354 0.0
H398 H 0.56555 0.57633 0.24974 0.0
O399 O 0.65339 0.68363 0.22093 0.0
O400 O 0.68855 0.71246 0.23916 0.0
H401 H 0.67299 0.66946 0.28627 0.0
H402 H 0.65225 0.63116 0.29515 0.0
C403 C 0.66637 0.64476 0.28483 0.0
H404 H 0.68779 0.64328 0.28474 0.0
H405 H 0.7189 0.73753 0.27183 0.0
O406 O 0.61695 0.61374 0.20795 0.0
C407 C 0.66962 0.70939 0.22808 0.0
Co408 Co 0.64827 0.99539 0.77461 0.0
Co409 Co 0.68479 0.98275 0.74802 0.0
C410 C 0.66281 0.94368 0.77722 0.0
O411 O 0.65112 0.95954 0.78242 0.0
O412 O 0.67662 0.9498 0.76383 0.0
C413 C 0.59775 0.97653 0.79576 0.0
O414 O 0.59283 0.94891 0.7918 0.0
C415 C 0.6961 0.94785 0.72363 0.0
C416 C 0.72714 0.98447 0.70683 0.0
C417 C 0.71147 0.95269 0.70923 0.0
N418 N 0.70242 0.97549 0.7295 0.0
N419 N 0.72133 0.99735 0.71952 0.0
C420 C 0.67274 0.91743 0.73075 0.0
H421 H 0.65454 0.91985 0.7371 0.0
H422 H 0.66176 0.89925 0.72146 0.0
H423 H 0.68454 0.91007 0.73948 0.0
C424 C 0.61058 0.99299 0.74703 0.0
N425 N 0.63334 0.98956 0.75358 0.0
N426 N 0.64779 0.98327 0.74235 0.0
C427 C 0.63401 0.98168 0.72824 0.0
C428 C 0.61008 0.98799 0.73071 0.0
C429 C 0.59242 0.00454 0.75605 0.0
H430 H 0.60759 0.02221 0.76488 0.0
H431 H 0.57335 0.9849 0.76259 0.0
H432 H 0.58246 0.015 0.74802 0.0
O433 O 0.68939 0.03255 0.77566 0.0
O434 O 0.71616 0.0235 0.75733 0.0
H435 H 0.66585 0.99376 0.70886 0.0
H436 H 0.62576 0.96851 0.70332 0.0
C437 C 0.64337 0.97391 0.71274 0.0
H438 H 0.64626 0.95345 0.71433 0.0
H439 H 0.72938 0.02096 0.7211 0.0
O440 O 0.62028 0.00038 0.78947 0.0
C441 C 0.71452 0.04057 0.76818 0.0
Co442 Co 0.00552 0.65078 0.77494 0.0
Co443 Co 0.01333 0.69968 0.74905 0.0
C444 C 0.05452 0.71728 0.7779 0.0
O445 O 0.04073 0.68945 0.78285 0.0
O446 O 0.04638 0.72466 0.76498 0.0
C447 C 0.02314 0.61899 0.7972 0.0
O448 O 0.0507 0.64363 0.79553 0.0
C449 C 0.04788 0.74599 0.72481 0.0
C450 C 0.01118 0.74368 0.70911 0.0
C451 C 0.04305 0.75801 0.71091 0.0
N452 N 0.02019 0.72557 0.73098 0.0
N453 N -0.00171 0.72456 0.72167 0.0
C454 C 0.07811 0.75094 0.73115 0.0
H455 H 0.07467 0.72977 0.73737 0.0
H456 H 0.0953 0.75697 0.72143 0.0
H457 H 0.08741 0.77031 0.73985 0.0
C458 C 0.00974 0.61811 0.74669 0.0
N459 N 0.01132 0.6432 0.75364 0.0
N460 N 0.01408 0.66321 0.7426 0.0
C461 C 0.01411 0.65123 0.72818 0.0
C462 C 0.01143 0.62232 0.73031 0.0
C463 C 0.00314 0.58937 0.75559 0.0
H464 H 0.98211 0.58158 0.76302 0.0
H465 H 0.02279 0.5948 0.76371 0.0
H466 H -0.00043 0.57031 0.74746 0.0
O467 O 0.96775 0.65371 0.77682 0.0
O468 O 0.97236 0.6882 0.75861 0.0
H469 H 0.99528 0.67007 0.71162 0.0
H470 H 0.01575 0.65274 0.70234 0.0
C471 C 0.01554 0.66661 0.71262 0.0
H472 H 0.03689 0.68962 0.71222 0.0
H473 H 0.97458 0.71004 0.7236 0.0
O474 O 0.00054 0.61682 0.78913 0.0
C475 C 0.95729 0.66928 0.76982 0.0
Co476 Co 0.34388 0.35708 0.77818 0.0
Co477 Co 0.29636 0.3174 0.75159 0.0
C478 C 0.27897 0.34433 0.77916 0.0
O479 O 0.30645 0.35771 0.78456 0.0
O480 O 0.27173 0.32771 0.76664 0.0
C481 C 0.36964 0.38343 0.80771 0.0
O482 O 0.34091 0.36446 0.81212 0.0
C483 C 0.25647 0.31212 0.7253 0.0
C484 C 0.24551 0.26787 0.7138 0.0
C485 C 0.24021 0.2926 0.71276 0.0
N486 N 0.27104 0.29974 0.73325 0.0
N487 N 0.26442 0.27326 0.72637 0.0
C488 C 0.25635 0.34072 0.73071 0.0
H489 H 0.24079 0.33475 0.74119 0.0
H490 H 0.27997 0.35845 0.73462 0.0
H491 H 0.24795 0.35045 0.72139 0.0
C492 C 0.38059 0.39212 0.75034 0.0
N493 N 0.35425 0.36972 0.75691 0.0
N494 N 0.33466 0.35313 0.74558 0.0
C495 C 0.34816 0.36451 0.73132 0.0
C496 C 0.37766 0.3896 0.7339 0.0
C497 C 0.4082 0.41488 0.75974 0.0
H498 H 0.40062 0.42473 0.76944 0.0
H499 H 0.42539 0.43398 0.75213 0.0
H500 H 0.41927 0.40264 0.76533 0.0
O501 O 0.33736 0.31507 0.78085 0.0
O502 O 0.30459 0.28612 0.76182 0.0
H503 H 0.35234 0.35804 0.70609 0.0
H504 H 0.31638 0.35526 0.71221 0.0
C505 C 0.33452 0.34966 0.71562 0.0
H506 H 0.32366 0.32413 0.71663 0.0
H507 H 0.27271 0.25884 0.73028 0.0
O508 O 0.37702 0.38438 0.79312 0.0
C509 C 0.32174 0.28916 0.77376 0.0
Co510 Co 0.01545 0.33325 0.5559 0.0
Co511 Co 0.97569 0.34336 0.58163 0.0
C512 C -0.00266 0.3816 0.5518 0.0
O513 O 0.01049 0.36688 0.54704 0.0
O514 O 0.98317 0.3752 0.56509 0.0
C515 C 0.06557 0.35321 0.53466 0.0
O516 O 0.06862 0.38025 0.53829 0.0
C517 C 0.97188 0.38045 0.60714 0.0
C518 C 0.92594 0.35003 0.61789 0.0
C519 C 0.95208 0.37917 0.61906 0.0
N520 N 0.95839 0.35322 0.5994 0.0
N521 N 0.93088 0.33508 0.60584 0.0
C522 C 0.00221 0.40789 0.60238 0.0
H523 H -0.00077 0.42834 0.60059 0.0
H524 H 0.01123 0.40306 0.59133 0.0
H525 H 0.01954 0.41373 0.61197 0.0
C526 C 0.05406 0.34043 0.58384 0.0
N527 N 0.03027 0.34156 0.57695 0.0
N528 N 0.01283 0.34385 0.58803 0.0
C529 C 0.0246 0.34328 0.60245 0.0
C530 C 0.05133 0.34157 0.60022 0.0
C531 C 0.07654 0.33438 0.57494 0.0
H532 H 0.0901 0.35386 0.56661 0.0
H533 H 0.09267 0.33181 0.58308 0.0
H534 H 0.0636 0.31294 0.56776 0.0
O535 O 0.97502 0.29454 0.55547 0.0
O536 O 0.94553 0.30173 0.57297 0.0
H537 H 0.98379 0.32708 0.6169 0.0
H538 H 0.01763 0.33261 0.62769 0.0
C539 C 0.00929 0.34182 0.61804 0.0
H540 H 0.01482 0.36549 0.62151 0.0
H541 H 0.91539 0.31262 0.60194 0.0
O542 O 0.0445 0.32894 0.54144 0.0
C543 C 0.94922 0.28512 0.56259 0.0
Co544 Co 0.66336 0.6805 0.55371 0.0
Co545 Co 0.64713 0.63012 0.58026 0.0
C546 C 0.60988 0.61541 0.55045 0.0
O547 O 0.62685 0.64294 0.54542 0.0
O548 O 0.61488 0.60701 0.56392 0.0
C549 C 0.646 0.71638 0.53562 0.0
O550 O 0.61977 0.69835 0.54304 0.0
C551 C 0.60986 0.58368 0.60444 0.0
C552 C 0.64525 0.58884 0.62196 0.0
C553 C 0.61357 0.57347 0.61925 0.0
N554 N 0.63796 0.60473 0.59888 0.0
N555 N 0.65905 0.60737 0.6093 0.0
C556 C 0.5804 0.57304 0.5953 0.0
H557 H 0.58276 0.56478 0.58343 0.0
H558 H 0.57642 0.59285 0.5935 0.0
H559 H 0.56011 0.55363 0.60123 0.0
C560 C 0.66163 0.71621 0.58135 0.0
N561 N 0.65717 0.6897 0.5747 0.0
N562 N 0.649 0.66833 0.58579 0.0
C563 C 0.64695 0.68037 0.59985 0.0
C564 C 0.65512 0.71121 0.59753 0.0
C565 C 0.67567 0.7466 0.57274 0.0
H566 H 0.69185 0.74755 0.5634 0.0
H567 H 0.65695 0.74903 0.56696 0.0
H568 H 0.68849 0.76635 0.58103 0.0
O569 O 0.69943 0.67472 0.55318 0.0
O570 O 0.68795 0.63824 0.57154 0.0
H571 H 0.65568 0.65898 0.61973 0.0
H572 H 0.63087 0.67481 0.62427 0.0
C573 C 0.63682 0.66254 0.61514 0.0
H574 H 0.61609 0.6396 0.61296 0.0
H575 H 0.68282 0.62253 0.608 0.0
O576 O 0.6695 0.71368 0.53872 0.0
C577 C 0.70606 0.65678 0.56089 0.0
Co578 Co 0.31485 0.9849 0.55537 0.0
Co579 Co 0.3645 0.01939 0.58204 0.0
C580 C 0.38057 -0.00191 0.55231 0.0
O581 O 0.35297 0.98693 0.54727 0.0
O582 O 0.38871 0.01147 0.56579 0.0
C583 C 0.27946 0.93181 0.53687 0.0
O584 O 0.29684 0.92301 0.54447 0.0
C585 C 0.41094 0.02912 0.60612 0.0
C586 C 0.40535 0.05898 0.6237 0.0
C587 C 0.42145 0.04349 0.62076 0.0
N588 N 0.38963 0.03583 0.60062 0.0
N589 N 0.3867 0.05406 0.61108 0.0
C590 C 0.41805 0.00631 0.59837 0.0
H591 H 0.39727 0.98826 0.59203 0.0
H592 H 0.42574 0.99508 0.60726 0.0
H593 H 0.43684 0.01865 0.58951 0.0
C594 C 0.27896 0.94676 0.58285 0.0
N595 N 0.30541 0.96912 0.57629 0.0
N596 N 0.32658 0.98252 0.58746 0.0
C597 C 0.31444 0.96828 0.60148 0.0
C598 C 0.28376 0.94527 0.59906 0.0
C599 C 0.24875 0.93006 0.5741 0.0
H600 H 0.24777 0.94516 0.56468 0.0
H601 H 0.2467 0.90902 0.5684 0.0
H602 H 0.22883 0.92293 0.58228 0.0
O603 O 0.31981 0.02645 0.55489 0.0
O604 O 0.35583 0.05176 0.57338 0.0
H605 H 0.33501 -0.0015 0.62141 0.0
H606 H 0.3199 0.95795 0.62596 0.0
C607 C 0.33202 0.97627 0.61685 0.0
H608 H 0.35521 0.97903 0.61482 0.0
H609 H 0.37114 0.06219 0.60986 0.0
O610 O 0.28231 0.95803 0.54008 0.0
C611 C 0.3373 0.05108 0.56266 0.0
C612 C 0.33584 0.23083 0.03014 0.0
C613 C 0.36545 0.25526 0.03413 0.0
C614 C 0.33244 0.20772 0.01955 0.0
C615 C 0.36903 0.19204 0.98619 0.0
H616 H 0.31839 0.10582 0.99855 0.0
C617 C 0.35872 0.09354 0.94599 0.0
C618 C 0.32976 0.06642 0.94515 0.0
C619 C 0.36421 0.11623 0.95734 0.0
C620 C 0.33225 0.12973 0.99478 0.0
H621 H 0.41459 0.27587 0.02936 0.0
H622 H 0.40858 0.23572 0.01045 0.0
H623 H 0.32543 0.14661 0.01703 0.0
H624 H 0.28395 0.04103 0.95546 0.0
H625 H 0.29288 0.08109 0.97497 0.0
H626 H 0.37503 0.17548 0.96375 0.0
C627 C 0.3881 0.23413 0.01587 0.0
C628 C 0.33639 0.15307 0.00542 0.0
C629 C 0.39152 0.25702 0.02667 0.0
C630 C 0.30646 0.06191 0.95596 0.0
C631 C 0.31174 0.08478 0.96718 0.0
C632 C 0.36452 0.16872 0.97544 0.0
C633 C 0.35854 0.20906 0.01239 0.0
C634 C 0.35477 0.18441 0.00121 0.0
C635 C 0.34066 0.11237 0.96797 0.0
C636 C 0.34601 0.13722 0.97957 0.0
H637 H 0.31521 0.22973 0.03504 0.0
H638 H 0.30935 0.18903 0.01675 0.0
H639 H 0.38306 0.21607 0.98261 0.0
H640 H 0.3771 0.09716 0.93783 0.0
H641 H 0.38697 0.13675 0.95779 0.0
C642 C 0.74968 0.0951 0.02588 0.0
C643 C 0.73497 0.10788 0.03477 0.0
C644 C 0.77332 0.11342 0.01518 0.0
C645 C 0.80768 0.18752 0.99273 0.0
H646 H 0.87835 0.175 0.98961 0.0
C647 C 0.91832 0.26997 0.95739 0.0
C648 C 0.92978 0.25564 0.94726 0.0
C649 C 0.895 0.25239 0.9684 0.0
C650 C 0.85866 0.17861 0.99028 0.0
H651 H 0.73254 0.14941 0.03918 0.0
H652 H 0.77438 0.1818 0.02074 0.0
H653 H 0.83647 0.14361 0.00811 0.0
H654 H 0.92631 0.21212 0.94052 0.0
H655 H 0.88561 0.18118 0.95993 0.0
H656 H 0.83025 0.22286 0.97501 0.0
C657 C 0.76752 0.15755 0.02187 0.0
C658 C 0.83459 0.16056 0.00083 0.0
C659 C 0.74366 0.13909 0.03247 0.0
C660 C 0.91788 0.22357 0.94835 0.0
C661 C 0.89474 0.20599 0.95945 0.0
C662 C 0.8319 0.20575 0.98227 0.0
C663 C 0.78283 0.14498 0.01318 0.0
C664 C 0.80869 0.16464 0.00212 0.0
C665 C 0.88288 0.22019 0.9695 0.0
C666 C 0.85756 0.20136 0.98088 0.0
H667 H 0.74261 0.0708 0.02698 0.0
H668 H 0.78393 0.10271 0.00837 0.0
H669 H 0.78792 0.191 0.99322 0.0
H670 H 0.92703 0.29469 0.95658 0.0
H671 H 0.88647 0.26397 0.97607 0.0
C672 C 0.85386 0.61804 0.03721 0.0
C673 C 0.88137 0.61942 0.03215 0.0
C674 C 0.8356 0.62324 0.02639 0.0
C675 C 0.84085 0.66614 0.99091 0.0
H676 H 0.7538 0.6069 0.98425 0.0
C677 C 0.77043 0.68358 0.9415 0.0
C678 C 0.73868 0.67216 0.94395 0.0
C679 C 0.78768 0.67729 0.95247 0.0
C680 C 0.77791 0.62404 0.98616 0.0
H681 H 0.91133 0.62683 0.01194 0.0
H682 H 0.87975 0.63684 0.99305 0.0
H683 H 0.78372 0.59502 0.00309 0.0
H684 H 0.70006 0.64535 0.95984 0.0
H685 H 0.73041 0.63618 0.97954 0.0
H686 H 0.83516 0.69584 0.9746 0.0
C687 C 0.87224 0.63145 0.00533 0.0
C688 C 0.79505 0.61703 0.99686 0.0
C689 C 0.89013 0.62557 0.01607 0.0
C690 C 0.72464 0.65494 0.95777 0.0
C691 C 0.74199 0.64916 0.96892 0.0
C692 C 0.82361 0.67348 0.98047 0.0
C693 C 0.84493 0.6305 0.01043 0.0
C694 C 0.82668 0.63792 0.99922 0.0
C695 C 0.77369 0.65987 0.96633 0.0
C696 C 0.79192 0.65244 0.97784 0.0
H697 H 0.84661 0.61312 0.04955 0.0
H698 H 0.81464 0.62244 0.03057 0.0
H699 H 0.86518 0.68277 0.99271 0.0
H700 H 0.78185 0.69702 0.93096 0.0
H701 H 0.81184 0.68555 0.94984 0.0
C702 C 0.68116 0.93072 0.04214 0.0
C703 C 0.659 0.92562 0.0538 0.0
C704 C 0.6753 0.90788 0.03079 0.0
C705 C 0.62438 0.82346 0.02331 0.0
H706 H 0.65755 0.8463 0.98051 0.0
C707 C 0.59704 0.73456 0.97224 0.0
C708 C 0.62302 0.73845 0.96373 0.0
C709 C 0.59987 0.75716 0.9831 0.0
C710 C 0.64823 0.83963 0.99245 0.0
H711 H 0.61294 0.89373 0.06251 0.0
H712 H 0.6021 0.85405 0.04243 0.0
H713 H 0.66481 0.88663 -0.00063 0.0
H714 H 0.67276 0.76756 0.96096 0.0
H715 H 0.67746 0.80754 0.97938 0.0
H716 H 0.6074 0.77634 0.01617 0.0
C717 C 0.62445 0.87511 0.04228 0.0
C718 C 0.65251 0.86272 0.00329 0.0
C719 C 0.63052 0.89782 0.05372 0.0
C720 C 0.65204 0.76473 0.9667 0.0
C721 C 0.65479 0.78747 0.97736 0.0
C722 C 0.61975 0.80036 0.01238 0.0
C723 C 0.6469 0.87968 0.03075 0.0
C724 C 0.64099 0.85499 0.01894 0.0
C725 C 0.62873 0.784 0.9856 0.0
C726 C 0.63198 0.80826 0.99692 0.0
H727 H 0.70326 0.95211 0.04202 0.0
H728 H 0.69333 0.91212 0.02229 0.0
H729 H 0.61559 0.81659 0.03531 0.0
H730 H 0.5745 0.71423 0.97036 0.0
H731 H 0.57944 0.75389 0.98937 0.0
C732 C 0.24156 0.89809 0.97257 0.0
C733 C 0.25568 0.88495 0.96348 0.0
C734 C 0.2178 0.8799 0.98323 0.0
C735 C 0.18183 0.80503 0.00507 0.0
H736 H 0.11278 0.81995 0.00894 0.0
C737 C 0.07043 0.7236 0.0401 0.0
C738 C 0.06002 0.7382 0.0507 0.0
C739 C 0.09379 0.7411 0.0291 0.0
C740 C 0.13201 0.81567 0.00805 0.0
H741 H 0.25696 0.84295 0.95863 0.0
H742 H 0.21483 0.81076 0.97699 0.0
H743 H 0.15487 0.85109 0.9905 0.0
H744 H 0.06525 0.7821 0.0582 0.0
H745 H 0.10601 0.81291 0.03879 0.0
H746 H 0.15854 0.76922 0.02249 0.0
C747 C 0.22227 0.83519 0.97607 0.0
C748 C 0.15621 0.83357 0.99754 0.0
C749 C 0.24628 0.85352 0.96552 0.0
C750 C 0.07291 0.77045 0.05003 0.0
C751 C 0.09607 0.78796 0.03893 0.0
C752 C 0.15746 0.78693 0.01548 0.0
C753 C 0.20755 0.84812 0.98498 0.0
C754 C 0.18154 0.82862 0.99598 0.0
C755 C 0.10696 0.77348 0.02846 0.0
C756 C 0.1324 0.79218 0.01713 0.0
H757 H 0.24919 0.92254 0.97163 0.0
H758 H 0.20768 0.89087 0.99021 0.0
H759 H 0.20115 0.80087 0.00439 0.0
H760 H 0.06092 0.69872 0.04056 0.0
H761 H 0.10157 0.72933 0.02109 0.0
C762 C 0.26321 0.36043 0.05215 0.0
C763 C 0.25717 0.33016 0.05495 0.0
C764 C 0.24549 0.36589 0.04111 0.0
C765 C 0.16917 0.32829 0.0223 0.0
H766 H 0.20748 0.39415 0.99098 0.0
C767 C 0.09885 0.34121 0.97148 0.0
C768 C 0.10708 0.37112 0.96623 0.0
C769 C 0.11725 0.33683 0.98252 0.0
C770 C 0.19636 0.37598 -0.0002 0.0
H771 H 0.2287 0.28191 0.04847 0.0
H772 H 0.19721 0.29131 0.02919 0.0
H773 H 0.23996 0.3852 0.00952 0.0
H774 H 0.13969 0.42006 0.96918 0.0
H775 H 0.17161 0.41261 0.98889 0.0
H776 H 0.1256 0.31934 0.0129 0.0
C777 C 0.21555 0.3108 0.03554 0.0
C778 C 0.215 0.37078 0.01037 0.0
C779 C 0.23354 0.30541 0.04646 0.0
C780 C 0.13322 0.39673 0.97283 0.0
C781 C 0.15158 0.3924 0.984 0.0
C782 C 0.15052 0.33368 0.01186 0.0
C783 C 0.22125 0.34109 0.03283 0.0
C784 C 0.20158 0.34674 0.02164 0.0
C785 C 0.14398 0.36234 0.98887 0.0
C786 C 0.16387 0.35744 0.00039 0.0
H787 H 0.28148 0.37979 0.05861 0.0
H788 H 0.25026 0.38942 0.03932 0.0
H789 H 0.1582 0.30994 0.03105 0.0
H790 H 0.07809 0.32112 0.96707 0.0
H791 H 0.11069 0.31335 0.9859 0.0
C792 C 0.06054 0.58166 0.36523 0.0
C793 C 0.03861 0.59119 0.36724 0.0
C794 C 0.05476 0.55764 0.35465 0.0
C795 C 0.98985 0.49151 0.33353 0.0
H796 H 0.05561 0.49303 0.30814 0.0
C797 C 0.96699 0.40722 0.28127 0.0
C798 C 0.98636 0.39441 0.28015 0.0
C799 C 0.97329 0.43054 0.29239 0.0
C800 C 0.03708 0.49215 0.31529 0.0
H801 H 0.99476 0.58511 0.35894 0.0
H802 H 0.98474 0.54356 0.34036 0.0
H803 H 0.06737 0.53594 0.3262 0.0
H804 H 0.02739 0.39558 0.28954 0.0
H805 H 0.0385 0.4364 0.30907 0.0
H806 H 0.9595 0.44797 0.32237 0.0
C807 C 0.00581 0.55358 0.34738 0.0
C808 C 0.04381 0.51671 0.32565 0.0
C809 C 0.01149 0.57735 0.35803 0.0
C810 C 0.01201 0.40502 0.29034 0.0
C811 C 0.01848 0.42851 0.30138 0.0
C812 C 0.98311 0.4671 0.32309 0.0
C813 C 0.02712 0.54305 0.34573 0.0
C814 C 0.02024 0.51676 0.33485 0.0
C815 C -0.00072 0.44163 0.30246 0.0
C816 C 0.00662 0.4672 0.31382 0.0
H817 H 0.08169 0.59214 0.3722 0.0
H818 H 0.07161 0.55003 0.35376 0.0
H819 H 0.97124 0.49042 0.34067 0.0
H820 H 0.94718 0.3994 0.27343 0.0
H821 H 0.95826 0.44042 0.29284 0.0
C822 C 0.57871 0.55708 0.27778 0.0
C823 C 0.59628 0.58942 0.27924 0.0
C824 C 0.55474 0.5396 0.28848 0.0
C825 C 0.50435 0.54775 0.31875 0.0
H826 H 0.4835 0.46374 0.32943 0.0
C827 C 0.42149 0.47257 0.36981 0.0
C828 C 0.39768 0.44326 0.36499 0.0
C829 C 0.44512 0.49139 0.35919 0.0
C830 C 0.48905 0.48714 0.32646 0.0
H831 H 0.60269 0.62897 0.29301 0.0
H832 H 0.56241 0.59845 0.3124 0.0
H833 H 0.52746 0.49476 0.312 0.0
H834 H 0.37929 0.41064 0.34542 0.0
H835 H 0.42126 0.44327 0.32692 0.0
H836 H 0.46645 0.54015 0.3339 0.0
C837 C 0.56634 0.58646 0.30272 0.0
C838 C 0.51412 0.50492 0.3164 0.0
C839 C 0.58988 0.60397 0.2918 0.0
C840 C 0.39742 0.43324 0.34934 0.0
C841 C 0.42141 0.45174 0.33884 0.0
C842 C 0.47968 0.53015 0.3291 0.0
C843 C 0.54812 0.55403 0.3011 0.0
C844 C 0.52199 0.53541 0.31228 0.0
C845 C 0.44554 0.48084 0.34373 0.0
C846 C 0.47171 0.49964 0.33291 0.0
H847 H 0.58316 0.54536 0.26814 0.0
H848 H 0.54098 0.51483 0.28658 0.0
H849 H 0.50916 0.57084 0.31565 0.0
H850 H 0.42197 0.48075 0.38183 0.0
H851 H 0.46357 0.51374 0.3632 0.0
C852 C 0.56188 0.98591 0.35652 0.0
C853 C 0.54868 0.95939 0.36619 0.0
C854 C 0.54371 0.99078 0.34552 0.0
C855 C 0.46823 0.95095 0.32417 0.0
H856 H 0.48366 0.03489 0.31892 0.0
C857 C 0.38546 0.97982 0.28959 0.0
C858 C 0.39951 0.00434 0.27866 0.0
C859 C 0.40355 0.97422 0.30033 0.0
C860 C 0.47924 0.01138 0.32018 0.0
H861 H 0.50657 0.91662 0.37169 0.0
H862 H 0.47443 0.92536 0.35275 0.0
H863 H 0.51532 0.02483 0.33741 0.0
H864 H 0.44305 0.04234 0.27026 0.0
H865 H 0.47488 0.03285 0.28921 0.0
H866 H 0.43169 0.93756 0.30711 0.0
C867 C 0.4989 0.94229 0.35346 0.0
C868 C 0.49745 0.00558 0.33073 0.0
C869 C 0.51721 0.9373 0.36436 0.0
C870 C 0.43183 0.02341 0.27869 0.0
C871 C 0.44993 0.01802 0.28953 0.0
C872 C 0.44982 0.95673 0.31374 0.0
C873 C 0.51187 0.96929 0.34402 0.0
C874 C 0.49229 0.97531 0.33281 0.0
C875 C 0.43597 0.99322 0.30038 0.0
C876 C 0.45522 0.98702 0.3116 0.0
H877 H 0.58635 0.00276 0.35732 0.0
H878 H 0.55471 0.01136 0.33813 0.0
H879 H 0.46387 0.92744 0.32528 0.0
H880 H 0.36053 0.96469 0.28964 0.0
H881 H 0.39217 0.95512 0.30865 0.0
C882 C 0.34899 0.24341 0.38977 0.0
C883 C 0.33685 0.26313 0.38728 0.0
C884 C 0.34238 0.21932 0.37912 0.0
C885 C 0.28724 0.17334 0.34655 0.0
H886 H 0.34687 0.14632 0.33903 0.0
C887 C 0.28034 0.09171 0.2953 0.0
C888 C 0.28245 0.06586 0.30017 0.0
C889 C 0.2857 0.1151 0.30619 0.0
C890 C 0.32999 0.15359 0.34112 0.0
H891 H 0.30849 0.27331 0.37163 0.0
H892 H 0.29876 0.23288 0.35245 0.0
H893 H 0.3602 0.18979 0.35692 0.0
H894 H 0.29135 0.04374 0.32007 0.0
H895 H 0.30165 0.08525 0.33909 0.0
H896 H 0.25768 0.13774 0.33011 0.0
C897 C 0.31252 0.23514 0.36289 0.0
C898 C 0.33749 0.17838 0.35143 0.0
C899 C 0.31861 0.2588 0.37372 0.0
C900 C 0.28952 0.06347 0.31611 0.0
C901 C 0.29556 0.08719 0.32691 0.0
C902 C 0.28005 0.14899 0.33598 0.0
C903 C 0.32393 0.21474 0.36554 0.0
C904 C 0.31617 0.18856 0.35436 0.0
C905 C 0.29384 0.11324 0.32201 0.0
C906 C 0.30131 0.13884 0.33325 0.0
H907 H 0.36323 0.24635 0.40011 0.0
H908 H 0.35124 0.20391 0.38176 0.0
H909 H 0.26988 0.1799 0.34872 0.0
H910 H 0.27471 0.09387 0.28307 0.0
H911 H 0.2843 0.13503 0.30216 0.0
C912 C 0.92946 0.21895 0.31341 0.0
C913 C 0.92655 0.21264 0.29702 0.0
C914 C 0.90593 0.19944 0.3239 0.0
C915 C 0.82245 0.13836 0.32429 0.0
H916 H 0.84131 0.12919 0.36807 0.0
C917 C 0.7268 0.08318 0.37223 0.0
C918 C 0.7309 0.06709 0.38481 0.0
C919 C 0.75054 0.09918 0.36115 0.0
C920 C 0.83551 0.131 0.35583 0.0
H921 H 0.89796 0.18026 0.27875 0.0
H922 H 0.85743 0.14534 0.29707 0.0
H923 H 0.88327 0.15866 0.34955 0.0
H924 H 0.76189 0.05356 0.39545 0.0
H925 H 0.80288 0.08018 0.37575 0.0
H926 H 0.77472 0.10947 0.33038 0.0
C927 C 0.87712 0.16599 0.30185 0.0
C928 C 0.8597 0.14846 0.34523 0.0
C929 C 0.9004 0.18585 0.29134 0.0
C930 C 0.75853 0.06626 0.3859 0.0
C931 C 0.78205 0.08173 0.37468 0.0
C932 C 0.79826 0.12043 0.33482 0.0
C933 C 0.87928 0.17278 0.31825 0.0
C934 C 0.85353 0.15274 0.32935 0.0
C935 C 0.77861 0.09883 0.36226 0.0
C936 C 0.80441 0.11678 0.3508 0.0
H937 H 0.94941 0.2396 0.31803 0.0
H938 H 0.90833 0.20584 0.33636 0.0
H939 H 0.81661 0.14139 0.31224 0.0
H940 H 0.70556 0.08404 0.37124 0.0
H941 H 0.74709 0.11241 0.35195 0.0
C942 C 0.8961 0.63774 0.38294 0.0
C943 C 0.92739 0.65961 0.38547 0.0
C944 C 0.87872 0.64358 0.37185 0.0
C945 C 0.87528 0.70698 0.35144 0.0
H946 H 0.82022 0.64222 0.32236 0.0
C947 C 0.80811 0.72812 0.30113 0.0
C948 C 0.77803 0.70395 0.29788 0.0
C949 C 0.82711 0.72352 0.31175 0.0
C950 C 0.83517 0.66045 0.33053 0.0
H951 H 0.96516 0.70482 0.37886 0.0
H952 H 0.93479 0.71514 0.35933 0.0
H953 H 0.85202 0.63239 0.34086 0.0
H954 H 0.74317 0.65696 0.3039 0.0
H955 H 0.77597 0.64892 0.32261 0.0
H956 H 0.85808 0.7349 0.3413 0.0
C957 C 0.92368 0.69347 0.36585 0.0
C958 C 0.85345 0.65482 0.34109 0.0
C959 C 0.9411 0.6875 0.37687 0.0
C960 C 0.76669 0.6756 0.30588 0.0
C961 C 0.78551 0.67103 0.31656 0.0
C962 C 0.85682 0.71257 0.34093 0.0
C963 C 0.89229 0.67157 0.36324 0.0
C964 C 0.87358 0.67795 0.35172 0.0
C965 C 0.81612 0.69477 0.31946 0.0
C966 C 0.83639 0.68929 0.33041 0.0
H967 H 0.8851 0.61624 0.38961 0.0
H968 H 0.85448 0.62645 0.37024 0.0
H969 H 0.89034 0.72514 0.35962 0.0
H970 H 0.81716 0.75026 0.29515 0.0
H971 H 0.8506 0.74225 0.31365 0.0
C972 C 0.64924 0.75574 0.60676 0.0
C973 C 0.65958 0.73465 0.60968 0.0
C974 C 0.65541 0.77932 0.61766 0.0
C975 C 0.67131 0.80106 0.65934 0.0
H976 H 0.71259 0.88587 0.64399 0.0
C977 C 0.71134 0.90366 0.70279 0.0
C978 C 0.70867 0.92905 0.69773 0.0
C979 C 0.70688 0.88039 0.69202 0.0
C980 C 0.70062 0.86233 0.64847 0.0
H981 H 0.68441 0.72158 0.6263 0.0
H982 H 0.69396 0.76202 0.64573 0.0
H983 H 0.69991 0.84359 0.62538 0.0
H984 H 0.6998 0.95056 0.67755 0.0
H985 H 0.69077 0.90949 0.65883 0.0
H986 H 0.67081 0.81933 0.68229 0.0
C987 C 0.68123 0.76032 0.63495 0.0
C988 C 0.69351 0.83816 0.6378 0.0
C989 C 0.67557 0.7371 0.6239 0.0
C990 C 0.70213 0.93122 0.68169 0.0
C991 C 0.69712 0.9077 0.67096 0.0
C992 C 0.67788 0.82515 0.66998 0.0
C993 C 0.67154 0.78187 0.63182 0.0
C994 C 0.67884 0.80735 0.64315 0.0
C995 C 0.6992 0.88182 0.676 0.0
C996 C 0.69268 0.85616 0.6647 0.0
H997 H 0.63662 0.75417 0.59595 0.0
H998 H 0.64747 0.79553 0.61507 0.0
H999 H 0.65976 0.77741 0.6637 0.0
H1000 H 0.71687 0.90181 0.71509 0.0
H1001 H 0.70948 0.8613 0.69629 0.0
C1002 C 0.25746 0.93912 0.62538 0.0
C1003 C 0.26025 0.92594 0.61114 0.0
C1004 C 0.23436 0.92118 0.63642 0.0
C1005 C 0.17671 0.839 0.64678 0.0
H1006 H 0.13928 0.87785 0.67123 0.0
C1007 C 0.0635 0.7707 0.68316 0.0
C1008 C 0.06661 0.77876 0.69935 0.0
C1009 C 0.08694 0.78908 0.67236 0.0
C1010 C 0.14964 0.8668 0.66449 0.0
H1011 H 0.24122 0.88369 0.59728 0.0
H1012 H 0.19981 0.85274 0.61601 0.0
H1013 H 0.18064 0.90876 0.65237 0.0
H1014 H 0.09561 0.81282 0.71693 0.0
H1015 H 0.13633 0.8456 0.69788 0.0
H1016 H 0.14459 0.79675 0.65858 0.0
C1017 C 0.21599 0.87664 0.61902 0.0
C1018 C 0.17353 0.8845 0.65376 0.0
C1019 C 0.2395 0.89447 0.60815 0.0
C1020 C 0.09291 0.80607 0.7045 0.0
C1021 C 0.11604 0.82481 0.69364 0.0
C1022 C 0.1524 0.82121 0.65726 0.0
C1023 C 0.21302 0.88975 0.63332 0.0
C1024 C 0.18753 0.87088 0.64479 0.0
C1025 C 0.11346 0.81619 0.67753 0.0
C1026 C 0.13876 0.83499 0.66624 0.0
H1027 H 0.27279 0.96348 0.62788 0.0
H1028 H 0.23329 0.93207 0.64738 0.0
H1029 H 0.18722 0.82772 0.64039 0.0
H1030 H 0.0434 0.74969 0.67896 0.0
H1031 H 0.08442 0.78212 0.65996 0.0
C1032 C 0.05706 0.30935 0.62121 0.0
C1033 C 0.06997 0.33688 0.61234 0.0
C1034 C 0.07526 0.30419 0.63208 0.0
C1035 C 0.14647 0.34457 0.65598 0.0
H1036 H 0.14229 0.2647 0.65655 0.0
C1037 C 0.233 0.32464 0.69219 0.0
C1038 C 0.2211 0.29671 0.70066 0.0
C1039 C 0.21455 0.329 0.68114 0.0
C1040 C 0.14346 0.287 0.65668 0.0
H1041 H 0.11161 0.38046 0.60754 0.0
H1042 H 0.14361 0.37169 0.62668 0.0
H1043 H 0.10958 0.27358 0.63813 0.0
H1044 H 0.18142 0.25081 0.70375 0.0
H1045 H 0.1488 0.25843 0.68457 0.0
H1046 H 0.18007 0.35798 0.67461 0.0
C1047 C 0.11941 0.35422 0.62539 0.0
C1048 C 0.12475 0.29209 0.64612 0.0
C1049 C 0.10123 0.35923 0.61444 0.0
C1050 C 0.19092 0.27267 0.69744 0.0
C1051 C 0.17237 0.27703 0.68642 0.0
C1052 C 0.16505 0.33945 0.66659 0.0
C1053 C 0.10665 0.32656 0.63426 0.0
C1054 C 0.12614 0.32096 0.64563 0.0
C1055 C 0.18386 0.30541 0.67828 0.0
C1056 C 0.16388 0.31065 0.66703 0.0
H1057 H 0.03301 0.29167 0.61956 0.0
H1058 H 0.06475 0.28277 0.63882 0.0
H1059 H 0.14771 0.36692 0.65603 0.0
H1060 H 0.25663 0.3431 0.69407 0.0
H1061 H 0.22442 0.35082 0.67478 0.0
C1062 C 0.93481 0.41222 0.63299 0.0
C1063 C 0.95734 0.4036 0.63063 0.0
C1064 C 0.94041 0.43628 0.64351 0.0
C1065 C 0.00495 0.50366 0.66426 0.0
H1066 H 0.93872 0.49973 0.69024 0.0
C1067 C 0.02605 0.58674 0.71695 0.0
C1068 C 0.00623 0.59904 0.71803 0.0
C1069 C 0.02024 0.56359 0.70581 0.0
C1070 C 0.95737 0.50125 0.68294 0.0
H1071 H 0.0023 0.41155 0.63816 0.0
H1072 H 0.012 0.45311 0.65665 0.0
H1073 H 0.92784 0.45727 0.67205 0.0
H1074 H 0.96488 0.59709 0.70857 0.0
H1075 H 0.95454 0.55643 0.68906 0.0
H1076 H 0.03456 0.54737 0.67548 0.0
C1077 C 0.99054 0.44236 0.64996 0.0
C1078 C 0.95114 0.47697 0.67248 0.0
C1079 C 0.98504 0.41857 0.63934 0.0
C1080 C 0.98057 0.58802 0.70781 0.0
C1081 C 0.97456 0.56465 0.69678 0.0
C1082 C 0.01121 0.52776 0.67483 0.0
C1083 C 0.96848 0.45182 0.65204 0.0
C1084 C 0.97488 0.47782 0.66303 0.0
C1085 C 0.99428 0.55212 0.69571 0.0
C1086 C 0.9875 0.52679 0.68429 0.0
H1087 H 0.9132 0.40087 0.62641 0.0
H1088 H 0.92299 0.44308 0.64469 0.0
H1089 H 0.02368 0.50545 0.65695 0.0
H1090 H 0.04588 0.59491 0.72481 0.0
H1091 H 0.03565 0.55415 0.70535 0.0
C1092 C 0.43031 0.40803 0.7226 0.0
C1093 C 0.4018 0.4072 0.7219 0.0
C1094 C 0.45324 0.42465 0.71125 0.0
C1095 C 0.46523 0.46143 0.67123 0.0
H1096 H 0.55143 0.50542 0.6844 0.0
C1097 C 0.56302 0.55605 0.63314 0.0
C1098 C 0.58946 0.55329 0.63082 0.0
C1099 C 0.54025 0.53702 0.64404 0.0
C1100 C 0.52747 0.493 0.68055 0.0
H1101 H 0.37452 0.42277 0.70901 0.0
H1102 H 0.41488 0.45286 0.68944 0.0
H1103 H 0.51119 0.47482 0.70386 0.0
H1104 H 0.61387 0.52998 0.63883 0.0
H1105 H 0.57415 0.49696 0.65826 0.0
H1106 H 0.48168 0.48067 0.64804 0.0
C1107 C 0.41947 0.4401 0.69845 0.0
C1108 C 0.50437 0.47535 0.69166 0.0
C1109 C 0.39641 0.42311 0.7097 0.0
C1110 C 0.59342 0.53217 0.6402 0.0
C1111 C 0.5708 0.51337 0.6513 0.0
C1112 C 0.4883 0.47943 0.6602 0.0
C1113 C 0.44822 0.44109 0.69907 0.0
C1114 C 0.47291 0.4594 0.68716 0.0
C1115 C 0.54385 0.51542 0.65318 0.0
C1116 C 0.5196 0.49546 0.66477 0.0
H1117 H 0.43472 0.39552 0.73185 0.0
H1118 H 0.47476 0.42431 0.71195 0.0
H1119 H 0.44138 0.44897 0.66722 0.0
H1120 H 0.56011 0.5733 0.62672 0.0
H1121 H 0.52006 0.5396 0.64556 0.0
C1122 C 0.55883 0.97949 0.72114 0.0
C1123 C 0.59074 0.99212 0.71863 0.0
C1124 C 0.54089 0.98509 0.71031 0.0
C1125 C 0.54826 0.0383 0.6771 0.0
H1126 H 0.46189 0.97681 0.67027 0.0
C1127 C 0.47055 0.0434 0.62681 0.0
C1128 C 0.44217 0.03986 0.632 0.0
C1129 C 0.48942 0.0385 0.63736 0.0
C1130 C 0.48596 0.99421 0.67214 0.0
H1131 H 0.62894 0.02031 0.70277 0.0
H1132 H 0.59745 0.02845 0.68331 0.0
H1133 H 0.4933 0.96509 0.6881 0.0
H1134 H 0.4113 0.02893 0.65217 0.0
H1135 H 0.444 0.01955 0.67056 0.0
H1136 H 0.54084 0.06684 0.66057 0.0
C1137 C 0.58626 0.01501 0.69388 0.0
C1138 C 0.50398 0.98762 0.68243 0.0
C1139 C 0.60428 0.00988 0.70489 0.0
C1140 C 0.43313 0.03182 0.64793 0.0
C1141 C 0.45168 0.02629 0.65839 0.0
C1142 C 0.53036 0.0446 0.66657 0.0
C1143 C 0.55435 0.00303 0.69653 0.0
C1144 C 0.53535 0.00967 0.68517 0.0
C1145 C 0.47989 0.02946 0.65316 0.0
C1146 C 0.49902 0.0227 0.66411 0.0
H1147 H 0.54781 0.9656 0.73163 0.0
H1148 H 0.51657 0.97586 0.71297 0.0
H1149 H 0.57208 0.05616 0.6791 0.0
H1150 H 0.47806 0.04987 0.61459 0.0
H1151 H 0.51108 0.04105 0.63307 0.0
C1152 C 0.43843 0.40424 0.10507 0.0
C1153 C 0.40961 0.40221 0.10766 0.0
C1154 C 0.46534 0.42844 0.11185 0.0
C1155 C 0.49827 0.50483 0.13168 0.0
H1156 H 0.54056 0.47411 0.15843 0.0
C1157 C 0.57097 0.57286 0.18596 0.0
C1158 C 0.59762 0.5713 0.18972 0.0
C1159 C 0.55117 0.55451 0.17378 0.0
C1160 C 0.52951 0.48331 0.15081 0.0
H1161 H 0.38667 0.42518 0.1182 0.0
H1162 H 0.43352 0.4674 0.12985 0.0
H1163 H 0.50164 0.43939 0.13952 0.0
H1164 H 0.62474 0.54972 0.18351 0.0
H1165 H 0.59056 0.51817 0.16209 0.0
H1166 H 0.52577 0.54865 0.14315 0.0
C1167 C 0.43539 0.45031 0.1227 0.0
C1168 C 0.50722 0.46338 0.13995 0.0
C1169 C 0.40852 0.42599 0.11612 0.0
C1170 C 0.60419 0.5512 0.181 0.0
C1171 C 0.58456 0.53307 0.16874 0.0
C1172 C 0.52077 0.52487 0.14246 0.0
C1173 C 0.46387 0.45121 0.12109 0.0
C1174 C 0.49087 0.47374 0.13056 0.0
C1175 C 0.55775 0.53441 0.16501 0.0
C1176 C 0.5361 0.51412 0.15243 0.0
H1177 H 0.43997 0.38626 0.09859 0.0
H1178 H 0.4871 0.42878 0.11033 0.0
H1179 H 0.48616 0.51345 0.12447 0.0
H1180 H 0.56526 0.58808 0.1925 0.0
H1181 H 0.53041 0.5557 0.17144 0.0
C1182 C 0.58728 0.02812 0.10988 0.0
C1183 C 0.59138 0.00228 0.11113 0.0
C1184 C 0.56249 0.02826 0.11766 0.0
C1185 C 0.5113 0.99082 0.15212 0.0
H1186 H 0.46836 0.03281 0.13702 0.0
C1187 C 0.41149 0.98873 0.1875 0.0
C1188 C 0.41287 0.01742 0.1894 0.0
C1189 C 0.43111 0.98561 0.17672 0.0
C1190 C 0.4803 0.02112 0.14139 0.0
H1191 H 0.57145 0.9554 0.12025 0.0
H1192 H 0.52783 0.95523 0.1333 0.0
H1193 H 0.5057 0.02895 0.11963 0.0
H1194 H 0.43551 0.06519 0.18129 0.0
H1195 H 0.46985 0.05971 0.16252 0.0
H1196 H 0.48613 0.9831 0.17386 0.0
C1197 C 0.54427 0.97584 0.12688 0.0
C1198 C 0.50167 0.01893 0.13145 0.0
C1199 C 0.56916 0.97586 0.11932 0.0
C1200 C 0.43396 0.0428 0.18014 0.0
C1201 C 0.45345 0.03962 0.16929 0.0
C1202 C 0.48988 0.99283 0.16197 0.0
C1203 C 0.54125 0.00241 0.12664 0.0
C1204 C 0.51749 0.00382 0.13674 0.0
C1205 C 0.45238 0.01106 0.16757 0.0
C1206 C 0.47426 0.00811 0.15676 0.0
H1207 H 0.6041 0.04881 0.10365 0.0
H1208 H 0.56093 0.04916 0.11728 0.0
H1209 H 0.5236 0.97969 0.15675 0.0
H1210 H 0.39544 0.96871 0.19442 0.0
H1211 H 0.42959 0.96324 0.17553 0.0
C1212 C 0.94852 0.39564 0.17956 0.0
C1213 C 0.97294 0.39985 0.18959 0.0
C1214 C 0.95289 0.41827 0.16838 0.0
C1215 C 0.00131 0.50131 0.16042 0.0
H1216 H 0.96836 0.47934 0.11751 0.0
C1217 C 0.02029 0.596 0.11607 0.0
C1218 C 0.99396 0.59121 0.10757 0.0
C1219 C 0.02047 0.57147 0.12397 0.0
C1220 C 0.97755 0.48581 0.12947 0.0
H1221 H 0.0211 0.43108 0.19574 0.0
H1222 H 0.02865 0.47061 0.17626 0.0
H1223 H 0.96274 0.43879 0.13594 0.0
H1224 H 0.94793 0.55661 0.09979 0.0
H1225 H 0.94792 0.5138 0.11393 0.0
H1226 H 0.01534 0.54806 0.15427 0.0
C1227 C 0.00611 0.44985 0.1771 0.0
C1228 C 0.97432 0.46261 0.14001 0.0
C1229 C 0.0018 0.42717 0.18822 0.0
C1230 C 0.96857 0.56099 0.10624 0.0
C1231 C 0.96861 0.53644 0.11432 0.0
C1232 C 0.00439 0.52442 0.14995 0.0
C1233 C 0.9817 0.44563 0.16707 0.0
C1234 C 0.98603 0.47015 0.15562 0.0
C1235 C 0.99418 0.54165 0.12373 0.0
C1236 C 0.99244 0.51698 0.13437 0.0
H1237 H 0.92601 0.37481 0.1803 0.0
H1238 H 0.93355 0.41457 0.16095 0.0
H1239 H 0.01012 0.50777 0.17245 0.0
H1240 H 0.0404 0.61898 0.1171 0.0
H1241 H 0.04088 0.5761 0.13073 0.0
C1242 C 0.3833 0.40878 0.83449 0.0
C1243 C 0.39282 0.40373 0.81956 0.0
C1244 C 0.40515 0.42863 0.84558 0.0
C1245 C 0.48643 0.46306 0.85712 0.0
H1246 H 0.47925 0.5325 0.87271 0.0
C1247 C 0.59138 0.57506 0.87804 0.0
C1248 C 0.5885 0.59328 0.88997 0.0
C1249 C 0.56553 0.5482 0.87259 0.0
C1250 C 0.48129 0.51287 0.86882 0.0
H1251 H 0.43261 0.41498 0.80462 0.0
H1252 H 0.47082 0.44927 0.82414 0.0
H1253 H 0.43724 0.492 0.85701 0.0
H1254 H 0.55623 0.59673 0.90601 0.0
H1255 H 0.51078 0.54922 0.89655 0.0
H1256 H 0.53046 0.4838 0.86874 0.0
C1257 C 0.44645 0.4379 0.82721 0.0
C1258 C 0.45729 0.48978 0.85976 0.0
C1259 C 0.4246 0.41847 0.81602 0.0
C1260 C 0.5592 0.58329 0.89675 0.0
C1261 C 0.53317 0.55618 0.89129 0.0
C1262 C 0.51021 0.48586 0.86633 0.0
C1263 C 0.4369 0.44332 0.84203 0.0
C1264 C 0.46015 0.46525 0.85342 0.0
C1265 C 0.53603 0.53858 0.87897 0.0
C1266 C 0.50843 0.51163 0.8718 0.0
H1267 H 0.35893 0.39778 0.83753 0.0
H1268 H 0.39728 0.43246 0.85694 0.0
H1269 H 0.48889 0.44404 0.85257 0.0
H1270 H 0.61356 0.58192 0.87254 0.0
H1271 H 0.56861 0.53565 0.86289 0.0
C1272 C 0.5556 0.95385 0.8162 0.0
C1273 C 0.57766 0.97979 0.80761 0.0
C1274 C 0.53662 0.95688 0.82744 0.0
C1275 C 0.50332 0.00556 0.83703 0.0
H1276 H 0.48546 0.96467 0.8782 0.0
C1277 C 0.42381 0.01976 0.88074 0.0
C1278 C 0.40097 0.99262 0.88817 0.0
C1279 C 0.44888 0.02022 0.87313 0.0
C1280 C 0.49006 0.97605 0.86671 0.0
H1281 H 0.59733 0.0293 0.80416 0.0
H1282 H 0.56398 0.03452 0.82372 0.0
H1283 H 0.52225 0.96123 0.8602 0.0
H1284 H 0.38729 0.9452 0.89427 0.0
H1285 H 0.43071 0.94562 0.88051 0.0
H1286 H 0.47062 0.01957 0.84312 0.0
C1287 C 0.56137 0.01185 0.82171 0.0
C1288 C 0.51113 0.9741 0.85643 0.0
C1289 C 0.58049 0.00886 0.81055 0.0
C1290 C 0.40462 0.96645 0.88865 0.0
C1291 C 0.42955 0.96676 0.88079 0.0
C1292 C 0.48217 0.00732 0.84721 0.0
C1293 C 0.53917 0.98587 0.83022 0.0
C1294 C 0.51785 0.98876 0.84147 0.0
C1295 C 0.45142 0.99338 0.87251 0.0
C1296 C 0.4752 0.99254 0.86217 0.0
H1297 H 0.55292 0.93114 0.81424 0.0
H1298 H 0.51946 0.93641 0.8337 0.0
H1299 H 0.50764 0.01663 0.82546 0.0
H1300 H 0.42183 0.04045 0.88041 0.0
H1301 H 0.46578 0.0414 0.86728 0.0
C1302 C 0.9893 0.56723 0.80984 0.0
C1303 C 0.0182 0.59459 0.80879 0.0
C1304 C 0.98452 0.5444 0.82097 0.0
C1305 C 0.01474 0.5311 0.85849 0.0
H1306 H 0.97485 0.44595 0.84382 0.0
C1307 C 0.02038 0.43272 0.89225 0.0
C1308 C 0.9953 0.40239 0.89066 0.0
C1309 C 0.02029 0.45727 0.8842 0.0
C1310 C 0.98546 0.4695 0.84825 0.0
H1311 H 0.06468 0.61955 0.81864 0.0
H1312 H 0.05632 0.57954 0.838 0.0
H1313 H 0.9805 0.48647 0.82568 0.0
H1314 H 0.94927 0.37439 0.88068 0.0
H1315 H 0.94869 0.41725 0.8671 0.0
H1316 H 0.01996 0.51407 0.88105 0.0
C1317 C 0.03731 0.57592 0.83032 0.0
C1318 C 0.98879 0.49274 0.83781 0.0
C1319 C 0.04216 0.5987 0.81914 0.0
C1320 C 0.96916 0.39745 0.88192 0.0
C1321 C 0.96892 0.42199 0.87405 0.0
C1322 C 0.01126 0.50777 0.869 0.0
C1323 C 0.00847 0.5485 0.83132 0.0
C1324 C 0.00371 0.52381 0.84275 0.0
C1325 C 0.99497 0.45195 0.87456 0.0
C1326 C -0.0032 0.47671 0.86395 0.0
H1327 H 0.97035 0.56339 0.80207 0.0
H1328 H 0.96197 0.52359 0.82156 0.0
H1329 H 0.02602 0.55485 0.86267 0.0
H1330 H 0.04088 0.43722 0.89888 0.0
H1331 H 0.04081 0.48002 0.8848 0.0
C1332 C 0.2499 0.88069 0.52308 0.0
C1333 C 0.25754 0.9118 0.52447 0.0
C1334 C 0.22942 0.8618 0.51126 0.0
C1335 C 0.16759 0.85578 0.48457 0.0
H1336 H 0.17662 0.78958 0.46584 0.0
C1337 C 0.06544 0.74831 0.45706 0.0
C1338 C 0.07027 0.73276 0.44438 0.0
C1339 C 0.09032 0.77391 0.46419 0.0
C1340 C 0.174 0.80827 0.4707 0.0
H1341 H 0.25025 0.94776 0.51439 0.0
H1342 H 0.2151 0.91503 0.49351 0.0
H1343 H 0.21715 0.82729 0.48314 0.0
H1344 H 0.10503 0.73295 0.42874 0.0
H1345 H 0.14865 0.77822 0.44108 0.0
H1346 H 0.12467 0.83705 0.47195 0.0
C1347 C 0.22433 0.90496 0.50177 0.0
C1348 C 0.19702 0.82963 0.48085 0.0
C1349 C 0.24454 0.92376 0.51371 0.0
C1350 C 0.10053 0.74429 0.43855 0.0
C1351 C 0.12553 0.77011 0.44567 0.0
C1352 C 0.14474 0.83464 0.4743 0.0
C1353 C 0.21639 0.87368 0.50044 0.0
C1354 C 0.19369 0.85312 0.48826 0.0
C1355 C 0.12074 0.78487 0.45877 0.0
C1356 C 0.14721 0.81007 0.46762 0.0
H1357 H 0.25944 0.87078 0.53124 0.0
H1358 H 0.22335 0.83768 0.51084 0.0
H1359 H 0.16409 0.87344 0.49009 0.0
H1360 H 0.04247 0.74017 0.46188 0.0
H1361 H 0.08573 0.7843 0.4744 0.0
C1362 C 0.10369 0.37669 0.51244 0.0
C1363 C 0.08547 0.35108 0.52228 0.0
C1364 C 0.12207 0.37472 0.50047 0.0
C1365 C 0.13424 0.31833 0.47709 0.0
H1366 H 0.21692 0.38875 0.47142 0.0
C1367 C 0.23661 0.31134 0.45015 0.0
C1368 C 0.25822 0.33607 0.44072 0.0
C1369 C 0.21164 0.31232 0.45702 0.0
C1370 C 0.19369 0.36911 0.47262 0.0
H1371 H 0.07221 0.30333 0.52733 0.0
H1372 H 0.10508 0.30016 0.50676 0.0
H1373 H 0.18157 0.39235 0.4901 0.0
H1374 H 0.26954 0.38035 0.43027 0.0
H1375 H 0.22588 0.38217 0.44246 0.0
H1376 H 0.14714 0.29472 0.46006 0.0
C1377 C 0.1046 0.32155 0.50802 0.0
C1378 C 0.17339 0.37114 0.48335 0.0
C1379 C 0.08597 0.32343 0.5199 0.0
C1380 C 0.2533 0.36097 0.43751 0.0
C1381 C 0.22845 0.36211 0.44454 0.0
C1382 C 0.15468 0.31623 0.46643 0.0
C1383 C 0.1229 0.3472 0.49816 0.0
C1384 C 0.14359 0.34562 0.48591 0.0
C1385 C 0.2079 0.33817 0.45471 0.0
C1386 C 0.18475 0.34146 0.46429 0.0
H1387 H 0.10355 0.39823 0.51385 0.0
H1388 H 0.13547 0.39476 0.49295 0.0
H1389 H 0.11124 0.29846 0.47853 0.0
H1390 H 0.23964 0.2917 0.45274 0.0
H1391 H 0.19629 0.29363 0.46488 0.0
C1392 C 0.63773 0.8991 0.43939 0.0
C1393 C 0.6546 0.92911 0.44583 0.0
C1394 C 0.63851 0.87422 0.44672 0.0
C1395 C 0.68239 0.85615 0.47672 0.0
H1396 H 0.60426 0.7798 0.48227 0.0
C1397 C 0.62339 0.74519 0.52205 0.0
C1398 C 0.64787 0.73907 0.52369 0.0
C1399 C 0.62491 0.76642 0.51071 0.0
C1400 C 0.62626 0.80102 0.48089 0.0
H1401 H 0.68595 0.95654 0.46488 0.0
H1402 H 0.68673 0.91347 0.47769 0.0
H1403 H 0.60637 0.82091 0.46566 0.0
H1404 H 0.69296 0.75 0.51458 0.0
H1405 H 0.69537 0.78662 0.49455 0.0
H1406 H 0.70193 0.83711 0.49267 0.0
C1407 C 0.67338 0.90904 0.46684 0.0
C1408 C 0.62756 0.82442 0.47116 0.0
C1409 C 0.67271 0.93379 0.45953 0.0
C1410 C 0.67382 0.75443 0.51368 0.0
C1411 C 0.67523 0.77548 0.50223 0.0
C1412 C 0.68104 0.83289 0.48655 0.0
C1413 C 0.65615 0.87891 0.46062 0.0
C1414 C 0.65551 0.85254 0.46925 0.0
C1415 C 0.65084 0.78183 0.50065 0.0
C1416 C 0.65282 0.80529 0.48902 0.0
H1417 H 0.62363 0.89473 0.42883 0.0
H1418 H 0.6252 0.85133 0.44155 0.0
H1419 H 0.70443 0.87731 0.47528 0.0
H1420 H 0.60312 0.73382 0.52963 0.0
H1421 H 0.60598 0.77118 0.51007 0.0
C1422 C 0.09009 0.75575 0.14319 0.0
C1423 C 0.06188 0.75514 0.14087 0.0
C1424 C 0.11064 0.77437 0.15507 0.0
C1425 C 0.12979 0.84277 0.18008 0.0
H1426 H 0.17966 0.81591 0.2032 0.0
C1427 C 0.21887 0.92098 0.22684 0.0
C1428 C 0.2488 0.92609 0.22378 0.0
C1429 C 0.1931 0.89648 0.21944 0.0
C1430 C 0.16577 0.82362 0.19687 0.0
H1431 H 0.03281 0.77315 0.14934 0.0
H1432 H 0.06829 0.80508 0.17024 0.0
H1433 H 0.14021 0.78048 0.18451 0.0
H1434 H 0.27497 0.90817 0.21158 0.0
H1435 H 0.23007 0.8654 0.19882 0.0
H1436 H 0.15557 0.88598 0.19232 0.0
C1437 C 0.07493 0.79174 0.16269 0.0
C1438 C 0.14335 0.80346 0.18608 0.0
C1439 C 0.05453 0.77336 0.15072 0.0
C1440 C 0.25223 0.90499 0.21408 0.0
C1441 C 0.22648 0.88035 0.20685 0.0
C1442 C 0.152 0.86279 0.19095 0.0
C1443 C 0.10329 0.79257 0.16498 0.0
C1444 C 0.1255 0.81302 0.17733 0.0
C1445 C 0.19681 0.87645 0.20905 0.0
C1446 C 0.1706 0.85363 0.19923 0.0
H1447 H 0.09643 0.74203 0.13574 0.0
H1448 H 0.13253 0.77488 0.1563 0.0
H1449 H 0.11682 0.8511 0.17339 0.0
H1450 H 0.21547 0.93681 0.23428 0.0
H1451 H 0.1704 0.89377 0.22145 0.0
C1452 C 0.08121 0.35014 0.20922 0.0
C1453 C 0.06606 0.33041 0.22218 0.0
C1454 C 0.10726 0.35132 0.20241 0.0
C1455 C 0.14338 0.30319 0.1976 0.0
H1456 H 0.20598 0.37678 0.17591 0.0
C1457 C 0.21266 0.29549 0.14505 0.0
C1458 C 0.24337 0.31924 0.14268 0.0
C1459 C 0.19452 0.29806 0.15695 0.0
C1460 C 0.18908 0.35608 0.1821 0.0
H1461 H 0.06756 0.29772 0.23875 0.0
H1462 H 0.11364 0.30025 0.22699 0.0
H1463 H 0.17011 0.38072 0.19404 0.0
H1464 H 0.27943 0.36411 0.15108 0.0
H1465 H 0.24805 0.36829 0.17216 0.0
H1466 H 0.16266 0.27863 0.18587 0.0
C1467 C 0.10484 0.31431 0.2219 0.0
C1468 C 0.16821 0.35828 0.19236 0.0
C1469 C 0.07854 0.31299 0.22869 0.0
C1470 C 0.25571 0.34555 0.15253 0.0
C1471 C 0.23768 0.34796 0.16459 0.0
C1472 C 0.1645 0.30105 0.1875 0.0
C1473 C 0.11909 0.33301 0.20845 0.0
C1474 C 0.14445 0.33168 0.19981 0.0
C1475 C 0.20681 0.32428 0.16692 0.0
C1476 C 0.18697 0.32728 0.17921 0.0
H1477 H 0.07234 0.36397 0.20389 0.0
H1478 H 0.11721 0.3656 0.19192 0.0
H1479 H 0.12533 0.28217 0.20307 0.0
H1480 H 0.20246 0.275 0.13758 0.0
H1481 H 0.17065 0.27969 0.15811 0.0
C1482 C 0.64692 0.73272 0.21011 0.0
C1483 C 0.66748 0.73647 0.22251 0.0
C1484 C 0.64681 0.75826 0.20346 0.0
C1485 C 0.69807 0.84182 0.19756 0.0
H1486 H 0.62391 0.83381 0.17799 0.0
C1487 C 0.70431 0.91782 0.14467 0.0
C1488 C 0.68094 0.92541 0.14267 0.0
C1489 C 0.70217 0.89764 0.1568 0.0
C1490 C 0.64485 0.83687 0.18358 0.0
H1491 H 0.70297 0.77002 0.23825 0.0
H1492 H 0.70238 0.81487 0.22676 0.0
H1493 H 0.61967 0.79416 0.19627 0.0
H1494 H 0.63741 0.91862 0.15202 0.0
H1495 H 0.63412 0.88424 0.17353 0.0
H1496 H 0.7232 0.88487 0.18511 0.0
C1497 C 0.68676 0.79205 0.222 0.0
C1498 C 0.64243 0.81383 0.19393 0.0
C1499 C 0.68698 0.76635 0.22864 0.0
C1500 C 0.65558 0.91282 0.15316 0.0
C1501 C 0.65369 0.89306 0.16547 0.0
C1502 C 0.70045 0.86513 0.18739 0.0
C1503 C 0.66707 0.78832 0.20911 0.0
C1504 C 0.66911 0.81545 0.20058 0.0
C1505 C 0.67685 0.88501 0.16739 0.0
C1506 C 0.67398 0.86242 0.17983 0.0
H1507 H 0.63148 0.71007 0.20509 0.0
H1508 H 0.63172 0.75442 0.19339 0.0
H1509 H 0.71915 0.84384 0.20242 0.0
H1510 H 0.72407 0.9271 0.13671 0.0
H1511 H 0.7201 0.89148 0.15763 0.0
C1512 C 0.77225 0.07255 0.77085 0.0
C1513 C 0.74276 0.069 0.77336 0.0
C1514 C 0.79832 0.09675 0.77822 0.0
C1515 C 0.82762 0.17108 0.79974 0.0
H1516 H 0.87245 0.14145 0.82524 0.0
C1517 C 0.90054 0.23841 0.8542 0.0
C1518 C 0.92804 0.23804 0.85732 0.0
C1519 C 0.88051 0.21992 0.84213 0.0
C1520 C 0.86065 0.15036 0.81799 0.0
H1521 H 0.71776 0.08934 0.78445 0.0
H1522 H 0.76317 0.13158 0.79715 0.0
H1523 H 0.83423 0.10697 0.80598 0.0
H1524 H 0.95634 0.21831 0.8501 0.0
H1525 H 0.92176 0.18655 0.82887 0.0
H1526 H 0.85375 0.21437 0.8119 0.0
C1527 C 0.7662 0.11566 0.78959 0.0
C1528 C 0.83876 0.13057 0.80693 0.0
C1529 C 0.74015 0.09132 0.7824 0.0
C1530 C 0.93516 0.2189 0.84809 0.0
C1531 C 0.91529 0.20062 0.83594 0.0
C1532 C 0.84971 0.19099 0.81073 0.0
C1533 C 0.79535 0.11802 0.78801 0.0
C1534 C 0.82158 0.14052 0.79793 0.0
C1535 C 0.88768 0.20085 0.83282 0.0
C1536 C 0.86602 0.18064 0.82022 0.0
H1537 H 0.77498 0.05571 0.76393 0.0
H1538 H 0.82062 0.09825 0.77671 0.0
H1539 H 0.81486 0.1794 0.79285 0.0
H1540 H 0.89437 0.25286 0.86115 0.0
H1541 H 0.85916 0.22023 0.84026 0.0
C1542 C 0.74173 0.65752 0.84597 0.0
C1543 C 0.75459 0.68299 0.85641 0.0
C1544 C 0.75973 0.65507 0.83393 0.0
C1545 C 0.8344 0.70074 0.81211 0.0
H1546 H 0.82433 0.61962 0.80394 0.0
C1547 C 0.91703 0.68568 0.76975 0.0
C1548 C 0.92816 0.66675 0.7758 0.0
C1549 C 0.89151 0.68555 0.77683 0.0
C1550 C 0.82748 0.64246 0.80608 0.0
H1551 H 0.79638 0.72576 0.8625 0.0
H1552 H 0.82815 0.72094 0.84194 0.0
H1553 H 0.7894 0.62456 0.8223 0.0
H1554 H 0.92019 0.6317 0.79353 0.0
H1555 H 0.87662 0.63202 0.80596 0.0
H1556 H 0.8738 0.71885 0.7967 0.0
C1557 C 0.80392 0.70329 0.84269 0.0
C1558 C 0.80717 0.64527 0.81648 0.0
C1559 C 0.7858 0.70593 0.85459 0.0
C1560 C 0.91237 0.64669 0.78856 0.0
C1561 C 0.88709 0.64666 0.79564 0.0
C1562 C 0.85495 0.69797 0.80184 0.0
C1563 C 0.79112 0.67784 0.83219 0.0
C1564 C 0.8108 0.67453 0.81991 0.0
C1565 C 0.87669 0.6665 0.79009 0.0
C1566 C 0.85219 0.66887 0.79902 0.0
H1567 H 0.71761 0.63963 0.84697 0.0
H1568 H 0.74895 0.63541 0.82593 0.0
H1569 H 0.83747 0.72356 0.81419 0.0
H1570 H 0.92854 0.70127 0.75987 0.0
H1571 H 0.88379 0.70078 0.77211 0.0
C1572 C 0.30619 0.23266 0.77302 0.0
C1573 C 0.32306 0.26211 0.78009 0.0
C1574 C 0.30647 0.20709 0.7798 0.0
C1575 C 0.34864 0.18625 0.80956 0.0
H1576 H 0.26963 0.11048 0.81405 0.0
C1577 C 0.286 0.07492 0.85439 0.0
C1578 C 0.31048 0.06907 0.85681 0.0
C1579 C 0.28826 0.09604 0.84279 0.0
C1580 C 0.29186 0.13153 0.81297 0.0
H1581 H 0.35395 0.28784 0.79963 0.0
H1582 H 0.35379 0.24361 0.8115 0.0
H1583 H 0.27316 0.15249 0.79768 0.0
H1584 H 0.35619 0.08003 0.84871 0.0
H1585 H 0.35983 0.11624 0.82815 0.0
H1586 H 0.36695 0.16633 0.82567 0.0
C1587 C 0.34086 0.24013 0.80058 0.0
C1588 C 0.29399 0.15544 0.80336 0.0
C1589 C 0.3407 0.26555 0.79381 0.0
C1590 C 0.33709 0.08437 0.84724 0.0
C1591 C 0.33918 0.10518 0.83548 0.0
C1592 C 0.34644 0.16254 0.8193 0.0
C1593 C 0.32359 0.21054 0.79375 0.0
C1594 C 0.32224 0.18341 0.8019 0.0
C1595 C 0.31489 0.11148 0.83319 0.0
C1596 C 0.31786 0.13517 0.82144 0.0
H1597 H 0.29248 0.22926 0.76241 0.0
H1598 H 0.29313 0.18462 0.77417 0.0
H1599 H 0.37091 0.20726 0.80843 0.0
H1600 H 0.26524 0.06353 0.86163 0.0
H1601 H 0.26936 0.10076 0.84162 0.0
C1602 C 0.92785 0.23275 0.55042 0.0
C1603 C 0.92263 0.25514 0.55766 0.0
C1604 C 0.90344 0.20644 0.54346 0.0
C1605 C 0.81761 0.16125 0.53863 0.0
H1606 H 0.8394 0.14318 0.49721 0.0
C1607 C 0.72911 0.06224 0.49801 0.0
C1608 C 0.73074 0.06891 0.48164 0.0
C1609 C 0.75209 0.08292 0.50842 0.0
C1610 C 0.83286 0.14802 0.50871 0.0
H1611 H 0.88755 0.26675 0.56413 0.0
H1612 H 0.84494 0.22121 0.55151 0.0
H1613 H 0.87954 0.18209 0.51405 0.0
H1614 H 0.75753 0.10261 0.46336 0.0
H1615 H 0.79722 0.13881 0.4815 0.0
H1616 H 0.77057 0.12802 0.53283 0.0
C1617 C 0.86779 0.22366 0.55145 0.0
C1618 C 0.85598 0.17001 0.51851 0.0
C1619 C 0.89221 0.24982 0.55864 0.0
C1620 C 0.75571 0.09668 0.47589 0.0
C1621 C 0.77857 0.11736 0.48629 0.0
C1622 C 0.79437 0.13928 0.52875 0.0
C1623 C 0.87334 0.20218 0.54333 0.0
C1624 C 0.84867 0.1771 0.53354 0.0
C1625 C 0.77711 0.11069 0.50266 0.0
C1626 C 0.80173 0.13272 0.51359 0.0
H1627 H 0.95101 0.236 0.54972 0.0
H1628 H 0.90839 0.18992 0.53772 0.0
H1629 H 0.81122 0.16597 0.55019 0.0
H1630 H 0.71016 0.041 0.50281 0.0
H1631 H 0.75046 0.07695 0.52094 0.0
C1632 C 0.75775 0.68077 0.54766 0.0
C1633 C 0.73425 0.65597 0.5563 0.0
C1634 C 0.7821 0.67834 0.54105 0.0
C1635 C 0.79595 0.61959 0.5243 0.0
H1636 H 0.88081 0.68702 0.52066 0.0
C1637 C 0.88479 0.6101 0.48425 0.0
C1638 C 0.90467 0.63646 0.47525 0.0
C1639 C 0.86636 0.61187 0.49627 0.0
C1640 C 0.85714 0.66805 0.52147 0.0
H1641 H 0.71882 0.60989 0.56563 0.0
H1642 H 0.76142 0.60552 0.55385 0.0
H1643 H 0.84537 0.69156 0.53911 0.0
H1644 H 0.92074 0.68532 0.47169 0.0
H1645 H 0.88789 0.68823 0.49234 0.0
H1646 H 0.80708 0.59661 0.5062 0.0
C1647 C 0.76082 0.62678 0.5522 0.0
C1648 C 0.83696 0.67059 0.53211 0.0
C1649 C 0.73658 0.62936 0.559 0.0
C1650 C 0.9057 0.66462 0.47847 0.0
C1651 C 0.88708 0.66634 0.4904 0.0
C1652 C 0.81604 0.61715 0.51358 0.0
C1653 C 0.78333 0.65095 0.54281 0.0
C1654 C 0.80602 0.64661 0.53341 0.0
C1655 C 0.86721 0.63998 0.49946 0.0
C1656 C 0.84671 0.64159 0.51181 0.0
H1657 H 0.75672 0.70168 0.54549 0.0
H1658 H 0.79898 0.69725 0.53378 0.0
H1659 H 0.77209 0.60095 0.52486 0.0
H1660 H 0.88369 0.58811 0.48217 0.0
H1661 H 0.85166 0.59123 0.50314 0.0
C1662 C 0.31273 0.07816 0.54935 0.0
C1663 C 0.33766 0.07986 0.55803 0.0
C1664 C 0.31476 0.10477 0.5427 0.0
C1665 C 0.37275 0.17788 0.52598 0.0
H1666 H 0.30448 0.19403 0.52246 0.0
C1667 C 0.38054 0.27544 0.48581 0.0
C1668 C 0.35403 0.26848 0.47683 0.0
C1669 C 0.37914 0.25552 0.49791 0.0
C1670 C 0.32369 0.1897 0.52324 0.0
H1671 H 0.38357 0.11103 0.56737 0.0
H1672 H 0.38726 0.1577 0.55553 0.0
H1673 H 0.3006 0.1542 0.54084 0.0
H1674 H 0.30528 0.23516 0.47343 0.0
H1675 H 0.30302 0.19991 0.49421 0.0
H1676 H 0.39532 0.21219 0.50791 0.0
C1677 C 0.36619 0.13566 0.55389 0.0
C1678 C 0.32152 0.16706 0.53384 0.0
C1679 C 0.364 0.10901 0.56072 0.0
C1680 C 0.32607 0.24121 0.48019 0.0
C1681 C 0.32473 0.22114 0.4922 0.0
C1682 C 0.37482 0.20033 0.5153 0.0
C1683 C 0.34189 0.13362 0.54447 0.0
C1684 C 0.3458 0.16054 0.53509 0.0
C1685 C 0.35126 0.22805 0.5012 0.0
C1686 C 0.35007 0.2061 0.51357 0.0
H1687 H 0.29203 0.05604 0.54717 0.0
H1688 H 0.29576 0.10244 0.53541 0.0
H1689 H 0.39163 0.17301 0.52651 0.0
H1690 H 0.40237 0.29645 0.48361 0.0
H1691 H 0.3999 0.26178 0.50474 0.0
C1692 C 0.34241 0.08405 0.19562 0.0
C1693 C 0.32683 0.07663 0.21034 0.0
C1694 C 0.34146 0.10576 0.1855 0.0
C1695 C 0.32628 0.17081 0.18417 0.0
H1696 H 0.31366 0.15108 0.13907 0.0
C1697 C 0.30643 0.24676 0.13927 0.0
C1698 C 0.32242 0.25314 0.12469 0.0
C1699 C 0.30568 0.2245 0.14966 0.0
C1700 C 0.3175 0.15707 0.1516 0.0
H1701 H 0.29864 0.08688 0.22614 0.0
H1702 H 0.2969 0.12487 0.20834 0.0
H1703 H 0.31527 0.11429 0.15765 0.0
H1704 H 0.34969 0.24065 0.10948 0.0
H1705 H 0.34854 0.20191 0.12769 0.0
H1706 H 0.3287 0.21369 0.1781 0.0
C1707 C 0.30997 0.11388 0.20471 0.0
C1708 C 0.31842 0.136 0.16225 0.0
C1709 C 0.3109 0.09206 0.21488 0.0
C1710 C 0.33707 0.23624 0.12058 0.0
C1711 C 0.33633 0.21396 0.131 0.0
C1712 C 0.32539 0.19191 0.17351 0.0
C1713 C 0.32491 0.12062 0.18982 0.0
C1714 C 0.32303 0.14272 0.17864 0.0
C1715 C 0.32089 0.20808 0.14573 0.0
C1716 C 0.32113 0.18534 0.15709 0.0
H1717 H 0.35511 0.07281 0.19175 0.0
H1718 H 0.35373 0.1109 0.17425 0.0
H1719 H 0.33022 0.17679 0.1967 0.0
H1720 H 0.2947 0.25918 0.14278 0.0
H1721 H 0.29314 0.22014 0.16079 0.0
C1722 C 0.75201 0.06127 0.13694 0.0
C1723 C 0.74295 0.07009 0.12292 0.0
C1724 C 0.77406 0.08359 0.14709 0.0
C1725 C 0.80692 0.16528 0.15831 0.0
H1726 H 0.86943 0.15349 0.17955 0.0
C1727 C 0.90562 0.26138 0.19519 0.0
C1728 C 0.91473 0.25299 0.20934 0.0
C1729 C 0.88419 0.23877 0.18495 0.0
C1730 C 0.85183 0.1569 0.17388 0.0
H1731 H 0.75087 0.10932 0.10827 0.0
H1732 H 0.78965 0.14834 0.126 0.0
H1733 H 0.83458 0.11507 0.16032 0.0
H1734 H 0.90779 0.21412 0.224 0.0
H1735 H 0.86998 0.1745 0.20611 0.0
H1736 H 0.82405 0.20703 0.17188 0.0
C1737 C 0.77928 0.1241 0.12922 0.0
C1738 C 0.83196 0.13497 0.16282 0.0
C1739 C 0.75724 0.10174 0.11901 0.0
C1740 C 0.90134 0.22138 0.21318 0.0
C1741 C 0.87985 0.19869 0.20288 0.0
C1742 C 0.82675 0.18718 0.16938 0.0
C1743 C 0.78758 0.11527 0.14348 0.0
C1744 C 0.80931 0.13895 0.1549 0.0
C1745 C 0.87126 0.20716 0.18859 0.0
C1746 C 0.84948 0.18329 0.17726 0.0
H1747 H 0.74154 0.0371 0.14032 0.0
H1748 H 0.77975 0.07603 0.15805 0.0
H1749 H 0.78932 0.16871 0.15265 0.0
H1750 H 0.91546 0.28549 0.19182 0.0
H1751 H 0.87837 0.24609 0.17395 0.0
C1752 C 0.92837 0.68329 0.13593 0.0
C1753 C 0.91929 0.66643 0.12158 0.0
C1754 C 0.90628 0.68228 0.14649 0.0
C1755 C 0.82497 0.66357 0.14941 0.0
H1756 H 0.83684 0.65581 0.19455 0.0
C1757 C 0.73019 0.63952 0.19538 0.0
C1758 C 0.7394 0.65701 0.20953 0.0
C1759 C 0.75216 0.63991 0.18496 0.0
C1760 C 0.83337 0.65829 0.18201 0.0
H1761 H 0.87981 0.63585 0.10692 0.0
H1762 H 0.84109 0.63393 0.12548 0.0
H1763 H 0.87485 0.65834 0.17538 0.0
H1764 H 0.779 0.68786 0.22406 0.0
H1765 H 0.81753 0.68866 0.20574 0.0
H1766 H 0.7835 0.66353 0.15603 0.0
C1767 C 0.86541 0.6481 0.12847 0.0
C1768 C 0.85512 0.65975 0.17102 0.0
C1769 C 0.88757 0.64912 0.11786 0.0
C1770 C 0.77113 0.67415 0.21326 0.0
C1771 C 0.79319 0.67453 0.20279 0.0
C1772 C 0.80321 0.66209 0.16039 0.0
C1773 C 0.87455 0.66438 0.14299 0.0
C1774 C 0.85119 0.66247 0.1546 0.0
C1775 C 0.78391 0.65779 0.18841 0.0
C1776 C 0.80716 0.65942 0.17681 0.0
H1777 H 0.9526 0.69707 0.13916 0.0
H1778 H 0.91411 0.69558 0.15742 0.0
H1779 H 0.82151 0.66612 0.13688 0.0
H1780 H 0.70593 0.62581 0.19217 0.0
H1781 H 0.74425 0.62626 0.17414 0.0
C1782 C 0.65156 0.7591 0.87749 0.0
C1783 C 0.66869 0.74451 0.87374 0.0
C1784 C 0.65122 0.78088 0.86708 0.0
C1785 C 0.66376 0.80443 0.82486 0.0
H1786 H 0.66869 0.87988 0.84066 0.0
C1787 C 0.67789 0.90359 0.78331 0.0
C1788 C 0.6615 0.91878 0.78742 0.0
C1789 C 0.67835 0.88175 0.79364 0.0
C1790 C 0.66691 0.85873 0.83607 0.0
H1791 H 0.69955 0.74203 0.85627 0.0
H1792 H 0.69909 0.78007 0.83827 0.0
H1793 H 0.67089 0.84359 0.85939 0.0
H1794 H 0.6318 0.92205 0.80534 0.0
H1795 H 0.63223 0.88375 0.82311 0.0
H1796 H 0.65966 0.8195 0.80154 0.0
C1797 C 0.68555 0.77434 0.84912 0.0
C1798 C 0.66821 0.83797 0.8468 0.0
C1799 C 0.68594 0.75265 0.85951 0.0
C1800 C 0.64489 0.91101 0.80184 0.0
C1801 C 0.64529 0.88918 0.81211 0.0
C1802 C 0.6624 0.82517 0.81412 0.0
C1803 C 0.66795 0.78846 0.8527 0.0
C1804 C 0.66665 0.8106 0.84132 0.0
C1805 C 0.66237 0.87462 0.80825 0.0
C1806 C 0.66391 0.85254 0.8196 0.0
H1807 H 0.63783 0.75323 0.88827 0.0
H1808 H 0.63721 0.79117 0.87011 0.0
H1809 H 0.66203 0.78329 0.82028 0.0
H1810 H 0.69098 0.90907 0.77231 0.0
H1811 H 0.69191 0.8711 0.79036 0.0
C1812 C 0.08817 0.73309 0.80215 0.0
C1813 C 0.07922 0.74147 0.78795 0.0
C1814 C 0.10971 0.75569 0.81235 0.0
C1815 C 0.14242 0.83765 0.82324 0.0
H1816 H 0.20418 0.82535 0.84496 0.0
C1817 C 0.24132 0.93272 0.86089 0.0
C1818 C 0.24982 0.92368 0.87503 0.0
C1819 C 0.21963 0.91057 0.85054 0.0
C1820 C 0.1868 0.82892 0.83915 0.0
H1821 H 0.08661 0.78032 0.77314 0.0
H1822 H 0.12461 0.81993 0.79096 0.0
H1823 H 0.16974 0.78718 0.82559 0.0
H1824 H 0.2413 0.88423 0.88964 0.0
H1825 H 0.20316 0.84549 0.87157 0.0
H1826 H 0.15956 0.87946 0.83681 0.0
C1827 C 0.11452 0.79576 0.79426 0.0
C1828 C 0.16714 0.80711 0.82801 0.0
C1829 C 0.09293 0.77307 0.784 0.0
C1830 C 0.23537 0.89198 0.87883 0.0
C1831 C 0.2137 0.86978 0.86842 0.0
C1832 C 0.16213 0.8595 0.83438 0.0
C1833 C 0.12291 0.78729 0.80862 0.0
C1834 C 0.14466 0.81117 0.81996 0.0
C1835 C 0.20593 0.87884 0.85406 0.0
C1836 C 0.18448 0.85533 0.84249 0.0
H1837 H 0.07809 0.709 0.80561 0.0
H1838 H 0.11536 0.74839 0.8234 0.0
H1839 H 0.12501 0.8412 0.81744 0.0
H1840 H 0.25192 0.95695 0.85759 0.0
H1841 H 0.21436 0.9183 0.83951 0.0
C1842 C 0.10229 0.34745 0.87946 0.0
C1843 C 0.07063 0.3286 0.87596 0.0
C1844 C 0.12481 0.34947 0.8688 0.0
C1845 C 0.13532 0.33721 0.82634 0.0
H1846 H 0.2103 0.34022 0.84144 0.0
C1847 C 0.22319 0.32738 0.78484 0.0
C1848 C 0.25478 0.34615 0.78856 0.0
C1849 C 0.20046 0.32645 0.795 0.0
C1850 C 0.18964 0.33978 0.83704 0.0
H1851 H 0.03782 0.29624 0.85874 0.0
H1852 H 0.077 0.29941 0.84037 0.0
H1853 H 0.1713 0.33527 0.86057 0.0
H1854 H 0.28726 0.37999 0.80538 0.0
H1855 H 0.24774 0.37858 0.82287 0.0
H1856 H 0.15366 0.34153 0.80278 0.0
C1857 C 0.08446 0.31316 0.85117 0.0
C1858 C 0.1673 0.33693 0.84801 0.0
C1859 C 0.062 0.31119 0.86178 0.0
C1860 C 0.26314 0.36501 0.80222 0.0
C1861 C 0.24049 0.36408 0.81233 0.0
C1862 C 0.15766 0.34 0.81536 0.0
C1863 C 0.11611 0.33262 0.85444 0.0
C1864 C 0.13988 0.33562 0.84279 0.0
C1865 C 0.20892 0.34428 0.80904 0.0
C1866 C 0.1851 0.3414 0.8206 0.0
H1867 H 0.10973 0.36122 0.89025 0.0
H1868 H 0.14901 0.36487 0.87162 0.0
H1869 H 0.11465 0.33675 0.82194 0.0
H1870 H 0.21597 0.31258 0.77442 0.0
H1871 H 0.17629 0.31089 0.79218 0.0
C1872 C 0.00917 0.56662 0.45134 0.0
C1873 C 0.99177 0.58085 0.45527 0.0
C1874 C 0.0094 0.54445 0.46151 0.0
C1875 C 0.99617 0.51988 0.50357 0.0
H1876 H 0.99149 0.44462 0.48766 0.0
C1877 C 0.98095 0.42052 0.54513 0.0
C1878 C -0.00216 0.40573 0.54129 0.0
C1879 C 0.98039 0.4421 0.53466 0.0
C1880 C 0.99317 0.46571 0.49228 0.0
H1881 H 0.96007 0.58203 0.47268 0.0
H1882 H 0.96035 0.54339 0.49019 0.0
H1883 H 0.98997 0.48135 0.46894 0.0
H1884 H 0.02805 0.40268 0.52359 0.0
H1885 H 0.0274 0.44048 0.50557 0.0
H1886 H -0.00049 0.50439 0.5269 0.0
C1887 C 0.97424 0.54974 0.47944 0.0
C1888 C 0.99229 0.48671 0.48155 0.0
C1889 C 0.97396 0.57177 0.46931 0.0
C1890 C 0.01461 0.41344 0.52691 0.0
C1891 C 0.01408 0.43498 0.51649 0.0
C1892 C -0.00289 0.49893 0.5143 0.0
C1893 C 0.9923 0.53617 0.47579 0.0
C1894 C 0.99368 0.51397 0.48709 0.0
C1895 C -0.00326 0.44934 0.52015 0.0
C1896 C 0.9956 0.47159 0.50878 0.0
H1897 H 0.02312 0.57308 0.44061 0.0
H1898 H 0.02365 0.53446 0.45843 0.0
H1899 H -0.0022 0.54096 0.50819 0.0
H1900 H 0.96775 0.41507 0.5561 0.0
H1901 H 0.9666 0.45259 0.53776 0.0
C1902 C 0.57796 0.60212 0.52557 0.0
C1903 C 0.58486 0.59258 0.54003 0.0
C1904 C 0.55573 0.58047 0.51522 0.0
C1905 C 0.48912 0.50077 0.51341 0.0
H1906 H 0.50826 0.50776 0.46825 0.0
C1907 C 0.41627 0.40217 0.46969 0.0
C1908 C 0.40871 0.41013 0.45494 0.0
C1909 C 0.43791 0.42502 0.47975 0.0
C1910 C 0.50242 0.5057 0.4808 0.0
H1911 H 0.57347 0.55273 0.555 0.0
H1912 H 0.53473 0.51498 0.53692 0.0
H1913 H 0.54504 0.54664 0.4867 0.0
H1914 H 0.41858 0.4484 0.43907 0.0
H1915 H 0.45639 0.48842 0.45676 0.0
H1916 H 0.44659 0.4598 0.50754 0.0
C1917 C 0.54631 0.53928 0.53368 0.0
C1918 C 0.52347 0.52797 0.49137 0.0
C1919 C 0.56858 0.56094 0.54404 0.0
C1920 C 0.4239 0.44148 0.45033 0.0
C1921 C 0.44561 0.46439 0.46044 0.0
C1922 C 0.4681 0.47853 0.50285 0.0
C1923 C 0.53986 0.54878 0.51909 0.0
C1924 C 0.51712 0.52564 0.5078 0.0
C1925 C 0.45255 0.45641 0.47535 0.0
C1926 C 0.47461 0.48062 0.48644 0.0
H1927 H 0.58995 0.62633 0.52213 0.0
H1928 H 0.55095 0.58857 0.50417 0.0
H1929 H 0.48332 0.49861 0.52597 0.0
H1930 H 0.40522 0.37825 0.47359 0.0
H1931 H 0.4432 0.41805 0.49101 0.0
C1932 C 0.55399 0.99378 0.44946 0.0
C1933 C 0.58554 0.01203 0.45339 0.0
C1934 C 0.53118 0.99301 0.45949 0.0
C1935 C 0.51905 0.03425 0.49313 0.0
H1936 H 0.44804 0.95349 0.50223 0.0
C1937 C 0.43566 0.0146 0.54524 0.0
C1938 C 0.40385 0.99716 0.54171 0.0
C1939 C 0.45762 0.01597 0.53439 0.0
C1940 C 0.46761 0.97623 0.49971 0.0
H1941 H 0.61785 0.04474 0.47065 0.0
H1942 H 0.57827 0.04313 0.48811 0.0
H1943 H 0.4862 0.95811 0.48258 0.0
H1944 H 0.37017 0.96652 0.5243 0.0
H1945 H 0.40844 0.9689 0.50548 0.0
H1946 H 0.5006 0.05228 0.51042 0.0
C1947 C 0.57105 0.02961 0.47723 0.0
C1948 C 0.4894 0.97892 0.4884 0.0
C1949 C 0.59378 0.03039 0.46723 0.0
C1950 C 0.39448 0.98027 0.52738 0.0
C1951 C 0.41641 0.9815 0.51661 0.0
C1952 C 0.49733 0.03154 0.50449 0.0
C1953 C 0.53947 0.01052 0.47364 0.0
C1954 C 0.51545 0.00794 0.48502 0.0
C1955 C 0.44822 -0.00026 0.51987 0.0
C1956 C 0.47145 0.00249 0.50795 0.0
H1957 H 0.54683 0.97945 0.43885 0.0
H1958 H 0.50705 0.97844 0.45626 0.0
H1959 H 0.53861 0.05701 0.49065 0.0
H1960 H 0.44366 0.02785 0.55618 0.0
H1961 H 0.482 0.02988 0.53733 0.0
loop_
_geom_bond_atom_site_label_1
_geom_bond_atom_site_label_2
_geom_bond_distance
_geom_bond_site_symmetry_2
_ccdc_geom_bond_type
Co0 O3 1.970 . S
Co0 N17 1.989 . S
Co0 O25 1.967 . S
Co0 O32 1.920 . S
Co1 O4 1.966 . S
Co1 N10 2.022 . S
Co1 N18 1.993 . S
Co1 O26 1.941 . S
C2 O3 1.258 . S
C2 O4 1.263 . S
O3 Co0 1.970 . S
O3 C2 1.258 . S
O4 Co1 1.966 . S
O4 C2 1.263 . S
C5 O6 1.235 . S
C5 O32 1.289 . S
O6 C5 1.235 . S
C7 C9 1.400 . S
C7 N10 1.351 . S
C7 C12 1.501 . S
C8 C9 1.387 . S
C8 N11 1.341 . S
C9 C7 1.400 . S
C9 C8 1.387 . S
N10 Co1 2.022 . S
N10 C7 1.351 . S
N10 N11 1.365 . S
N11 C8 1.341 . S
N11 N10 1.365 . S
N11 H31 0.862 . S
C12 C7 1.501 . S
C12 H13 0.961 . S
C12 H14 0.961 . S
C12 H15 0.960 . S
H13 C12 0.961 . S
H14 C12 0.961 . S
H15 C12 0.960 . S
C16 N17 1.342 . S
C16 C20 1.401 . S
C16 C21 1.499 . S
N17 Co0 1.989 . S
N17 C16 1.342 . S
N17 N18 1.388 . S
N18 Co1 1.993 . S
N18 N17 1.388 . S
N18 C19 1.346 . S
C19 N18 1.346 . S
C19 C20 1.396 . S
C19 C29 1.510 . S
C20 C16 1.401 . S
C20 C19 1.396 . S
C21 C16 1.499 . S
C21 H22 0.959 . S
C21 H23 0.960 . S
C21 H24 0.961 . S
H22 C21 0.959 . S
H23 C21 0.960 . S
H24 C21 0.961 . S
O25 Co0 1.967 . S
O25 C33 1.258 . S
O26 Co1 1.941 . S
O26 C33 1.266 . S
H27 C29 0.959 . S
H28 C29 0.961 . S
C29 C19 1.510 . S
C29 H27 0.959 . S
C29 H28 0.961 . S
C29 H30 0.960 . S
H30 C29 0.960 . S
H31 N11 0.862 . S
O32 Co0 1.920 . S
O32 C5 1.289 . S
C33 O25 1.258 . S
C33 O26 1.266 . S
Co34 O37 1.970 1_565 S
Co34 N51 1.989 . S
Co34 O59 1.967 . S
Co34 O66 1.920 . S
Co35 O38 1.966 . S
Co35 N44 2.022 . S
Co35 N52 1.993 1_545 S
Co35 O60 1.941 . S
C36 O37 1.258 . S
C36 O38 1.263 . S
O37 Co34 1.970 1_545 S
O37 C36 1.258 . S
O38 Co35 1.966 . S
O38 C36 1.263 . S
C39 O40 1.235 . S
C39 O66 1.289 . S
O40 C39 1.235 . S
C41 C43 1.400 . S
C41 N44 1.351 . S
C41 C46 1.501 . S
C42 C43 1.387 . S
C42 N45 1.341 . S
C43 C41 1.400 . S
C43 C42 1.387 . S
N44 Co35 2.022 . S
N44 C41 1.351 . S
N44 N45 1.365 . S
N45 C42 1.341 . S
N45 N44 1.365 . S
N45 H65 0.862 . S
C46 C41 1.501 . S
C46 H47 0.961 . S
C46 H48 0.961 . S
C46 H49 0.960 . S
H47 C46 0.961 . S
H48 C46 0.961 . S
H49 C46 0.960 . S
C50 N51 1.342 . S
C50 C54 1.401 . S
C50 C55 1.499 . S
N51 Co34 1.989 . S
N51 C50 1.342 . S
N51 N52 1.388 . S
N52 Co35 1.993 1_565 S
N52 N51 1.388 . S
N52 C53 1.346 . S
C53 N52 1.346 . S
C53 C54 1.396 . S
C53 C63 1.510 . S
C54 C50 1.401 . S
C54 C53 1.396 . S
C55 C50 1.499 . S
C55 H56 0.959 . S
C55 H57 0.960 . S
C55 H58 0.961 . S
H56 C55 0.959 . S
H57 C55 0.960 . S
H58 C55 0.961 . S
O59 Co34 1.967 . S
O59 C67 1.258 1_565 S
O60 Co35 1.941 . S
O60 C67 1.266 . S
H61 C63 0.959 . S
H62 C63 0.961 . S
C63 C53 1.510 . S
C63 H61 0.959 . S
C63 H62 0.961 . S
C63 H64 0.960 1_565 S
H64 C63 0.960 1_545 S
H65 N45 0.862 . S
O66 Co34 1.920 . S
O66 C39 1.289 . S
C67 O59 1.258 1_545 S
C67 O60 1.266 . S
Co68 O71 1.970 1_455 S
Co68 N85 1.989 . S
Co68 O93 1.967 . S
Co68 O100 1.920 . S
Co69 O72 1.966 . S
Co69 N78 2.022 . S
Co69 N86 1.993 1_655 S
Co69 O94 1.941 . S
C70 O71 1.258 . S
C70 O72 1.263 . S
O71 Co68 1.970 1_655 S
O71 C70 1.258 . S
O72 Co69 1.966 . S
O72 C70 1.263 . S
C73 O74 1.235 . S
C73 O100 1.289 . S
O74 C73 1.235 . S
C75 C77 1.400 . S
C75 N78 1.351 . S
C75 C80 1.501 . S
C76 C77 1.387 . S
C76 N79 1.341 . S
C77 C75 1.400 . S
C77 C76 1.387 . S
N78 Co69 2.022 . S
N78 C75 1.351 . S
N78 N79 1.365 . S
N79 C76 1.341 . S
N79 N78 1.365 . S
N79 H99 0.862 . S
C80 C75 1.501 . S
C80 H81 0.961 . S
C80 H82 0.961 . S
C80 H83 0.960 . S
H81 C80 0.961 . S
H82 C80 0.961 . S
H83 C80 0.960 . S
C84 N85 1.342 . S
C84 C88 1.401 . S
C84 C89 1.499 . S
N85 Co68 1.989 . S
N85 C84 1.342 . S
N85 N86 1.388 . S
N86 Co69 1.993 1_455 S
N86 N85 1.388 . S
N86 C87 1.346 . S
C87 N86 1.346 . S
C87 C88 1.396 . S
C87 C97 1.510 . S
C88 C84 1.401 . S
C88 C87 1.396 . S
C89 C84 1.499 . S
C89 H90 0.959 . S
C89 H91 0.960 . S
C89 H92 0.961 . S
H90 C89 0.959 . S
H91 C89 0.960 . S
H92 C89 0.961 . S
O93 Co68 1.967 . S
O93 C101 1.258 1_455 S
O94 Co69 1.941 . S
O94 C101 1.266 . S
H95 C97 0.959 . S
H96 C97 0.961 . S
C97 C87 1.510 . S
C97 H95 0.959 . S
C97 H96 0.961 . S
C97 H98 0.960 1_455 S
H98 C97 0.960 1_655 S
H99 N79 0.862 . S
O100 Co68 1.920 . S
O100 C73 1.289 . S
C101 O93 1.258 1_655 S
C101 O94 1.266 . S
Co102 O105 1.970 . S
Co102 N119 1.989 . S
Co102 O127 1.967 . S
Co102 O134 1.920 . S
Co103 O106 1.966 . S
Co103 N112 2.022 . S
Co103 N120 1.993 . S
Co103 O128 1.941 . S
C104 O105 1.258 . S
C104 O106 1.263 . S
O105 Co102 1.970 . S
O105 C104 1.258 . S
O106 Co103 1.966 . S
O106 C104 1.263 . S
C107 O108 1.235 . S
C107 O134 1.289 . S
O108 C107 1.235 . S
C109 C111 1.400 . S
C109 N112 1.351 . S
C109 C114 1.501 . S
C110 C111 1.387 . S
C110 N113 1.341 . S
C111 C109 1.400 . S
C111 C110 1.387 . S
N112 Co103 2.022 . S
N112 C109 1.351 . S
N112 N113 1.365 . S
N113 C110 1.341 . S
N113 N112 1.365 . S
N113 H133 0.862 . S
C114 C109 1.501 . S
C114 H115 0.961 . S
C114 H116 0.961 . S
C114 H117 0.960 . S
H115 C114 0.961 . S
H116 C114 0.961 . S
H117 C114 0.960 . S
C118 N119 1.342 . S
C118 C122 1.401 . S
C118 C123 1.499 . S
N119 Co102 1.989 . S
N119 C118 1.342 . S
N119 N120 1.388 . S
N120 Co103 1.993 . S
N120 N119 1.388 . S
N120 C121 1.346 . S
C121 N120 1.346 . S
C121 C122 1.396 . S
C121 C131 1.510 . S
C122 C118 1.401 . S
C122 C121 1.396 . S
C123 C118 1.499 . S
C123 H124 0.959 . S
C123 H125 0.960 . S
C123 H126 0.961 . S
H124 C123 0.959 . S
H125 C123 0.960 . S
H126 C123 0.961 . S
O127 Co102 1.967 . S
O127 C135 1.258 . S
O128 Co103 1.941 . S
O128 C135 1.266 . S
H129 C131 0.959 . S
H130 C131 0.961 . S
C131 C121 1.510 . S
C131 H129 0.959 . S
C131 H130 0.961 . S
C131 H132 0.960 . S
H132 C131 0.960 . S
H133 N113 0.862 . S
O134 Co102 1.920 . S
O134 C107 1.289 . S
C135 O127 1.258 . S
C135 O128 1.266 . S
Co136 O139 1.970 1_545 S
Co136 N153 1.989 . S
Co136 O161 1.967 . S
Co136 O168 1.920 . S
Co137 O140 1.966 . S
Co137 N146 2.022 . S
Co137 N154 1.993 1_565 S
Co137 O162 1.941 . S
C138 O139 1.258 . S
C138 O140 1.263 . S
O139 Co136 1.970 1_565 S
O139 C138 1.258 . S
O140 Co137 1.966 . S
O140 C138 1.263 . S
C141 O142 1.235 . S
C141 O168 1.289 . S
O142 C141 1.235 . S
C143 C145 1.400 . S
C143 N146 1.351 . S
C143 C148 1.501 . S
C144 C145 1.387 . S
C144 N147 1.341 . S
C145 C143 1.400 . S
C145 C144 1.387 . S
N146 Co137 2.022 . S
N146 C143 1.351 . S
N146 N147 1.365 . S
N147 C144 1.341 . S
N147 N146 1.365 . S
N147 H167 0.862 . S
C148 C143 1.501 . S
C148 H149 0.961 . S
C148 H150 0.961 . S
C148 H151 0.960 . S
H149 C148 0.961 . S
H150 C148 0.961 . S
H151 C148 0.960 . S
C152 N153 1.342 . S
C152 C156 1.401 . S
C152 C157 1.499 . S
N153 Co136 1.989 . S
N153 C152 1.342 . S
N153 N154 1.388 . S
N154 Co137 1.993 1_545 S
N154 N153 1.388 . S
N154 C155 1.346 . S
C155 N154 1.346 . S
C155 C156 1.396 . S
C155 C165 1.510 . S
C156 C152 1.401 . S
C156 C155 1.396 . S
C157 C152 1.499 . S
C157 H158 0.959 . S
C157 H159 0.960 . S
C157 H160 0.961 . S
H158 C157 0.959 . S
H159 C157 0.960 . S
H160 C157 0.961 . S
O161 Co136 1.967 . S
O161 C169 1.258 1_545 S
O162 Co137 1.941 . S
O162 C169 1.266 . S
H163 C165 0.959 . S
H164 C165 0.961 . S
C165 C155 1.510 . S
C165 H163 0.959 . S
C165 H164 0.961 . S
C165 H166 0.960 1_545 S
H166 C165 0.960 1_565 S
H167 N147 0.862 . S
O168 Co136 1.920 . S
O168 C141 1.289 . S
C169 O161 1.258 1_565 S
C169 O162 1.266 . S
Co170 O173 1.970 1_655 S
Co170 N187 1.989 . S
Co170 O195 1.967 . S
Co170 O202 1.920 . S
Co171 O174 1.966 . S
Co171 N180 2.022 . S
Co171 N188 1.993 1_455 S
Co171 O196 1.941 . S
C172 O173 1.258 . S
C172 O174 1.263 . S
O173 Co170 1.970 1_455 S
O173 C172 1.258 . S
O174 Co171 1.966 . S
O174 C172 1.263 . S
C175 O176 1.235 . S
C175 O202 1.289 . S
O176 C175 1.235 . S
C177 C179 1.400 . S
C177 N180 1.351 . S
C177 C182 1.501 . S
C178 C179 1.387 . S
C178 N181 1.341 . S
C179 C177 1.400 . S
C179 C178 1.387 . S
N180 Co171 2.022 . S
N180 C177 1.351 . S
N180 N181 1.365 . S
N181 C178 1.341 . S
N181 N180 1.365 . S
N181 H201 0.862 . S
C182 C177 1.501 . S
C182 H183 0.961 . S
C182 H184 0.961 . S
C182 H185 0.960 . S
H183 C182 0.961 . S
H184 C182 0.961 . S
H185 C182 0.960 . S
C186 N187 1.342 . S
C186 C190 1.401 . S
C186 C191 1.499 . S
N187 Co170 1.989 . S
N187 C186 1.342 . S
N187 N188 1.388 . S
N188 Co171 1.993 1_655 S
N188 N187 1.388 . S
N188 C189 1.346 . S
C189 N188 1.346 . S
C189 C190 1.396 . S
C189 C199 1.510 . S
C190 C186 1.401 . S
C190 C189 1.396 . S
C191 C186 1.499 . S
C191 H192 0.959 . S
C191 H193 0.960 . S
C191 H194 0.961 . S
H192 C191 0.959 . S
H193 C191 0.960 . S
H194 C191 0.961 . S
O195 Co170 1.967 . S
O195 C203 1.258 1_655 S
O196 Co171 1.941 . S
O196 C203 1.266 . S
H197 C199 0.959 . S
H198 C199 0.961 . S
C199 C189 1.510 . S
C199 H197 0.959 . S
C199 H198 0.961 . S
C199 H200 0.960 1_655 S
H200 C199 0.960 1_455 S
H201 N181 0.862 . S
O202 Co170 1.920 . S
O202 C175 1.289 . S
C203 O195 1.258 1_455 S
C203 O196 1.266 . S
Co204 O207 1.970 . S
Co204 N221 1.989 . S
Co204 O229 1.967 1_655 S
Co204 O236 1.920 . S
Co205 O208 1.966 . S
Co205 N214 2.022 . S
Co205 N222 1.993 1_455 S
Co205 O230 1.941 . S
C206 O207 1.258 . S
C206 O208 1.263 1_655 S
O207 Co204 1.970 . S
O207 C206 1.258 . S
O208 Co205 1.966 . S
O208 C206 1.263 1_455 S
C209 O210 1.235 . S
C209 O236 1.289 . S
O210 C209 1.235 . S
C211 C213 1.400 . S
C211 N214 1.351 . S
C211 C216 1.501 . S
C212 C213 1.387 . S
C212 N215 1.341 . S
C213 C211 1.400 . S
C213 C212 1.387 . S
N214 Co205 2.022 . S
N214 C211 1.351 . S
N214 N215 1.365 . S
N215 C212 1.341 . S
N215 N214 1.365 . S
N215 H235 0.862 . S
C216 C211 1.501 . S
C216 H217 0.961 . S
C216 H218 0.961 1_455 S
C216 H219 0.960 . S
H217 C216 0.961 . S
H218 C216 0.961 1_655 S
H219 C216 0.960 . S
C220 N221 1.342 . S
C220 C224 1.401 . S
C220 C225 1.499 . S
N221 Co204 1.989 . S
N221 C220 1.342 . S
N221 N222 1.388 . S
N222 Co205 1.993 1_655 S
N222 N221 1.388 . S
N222 C223 1.346 . S
C223 N222 1.346 . S
C223 C224 1.396 . S
C223 C233 1.510 . S
C224 C220 1.401 . S
C224 C223 1.396 . S
C225 C220 1.499 . S
C225 H226 0.959 . S
C225 H227 0.960 . S
C225 H228 0.961 . S
H226 C225 0.959 . S
H227 C225 0.960 . S
H228 C225 0.961 . S
O229 Co204 1.967 1_455 S
O229 C237 1.258 . S
O230 Co205 1.941 . S
O230 C237 1.266 . S
H231 C233 0.959 . S
H232 C233 0.961 . S
C233 C223 1.510 . S
C233 H231 0.959 . S
C233 H232 0.961 . S
C233 H234 0.960 . S
H234 C233 0.960 . S
H235 N215 0.862 . S
O236 Co204 1.920 . S
O236 C209 1.289 . S
C237 O229 1.258 . S
C237 O230 1.266 . S
Co238 O241 1.970 . S
Co238 N255 1.989 . S
Co238 O263 1.967 . S
Co238 O270 1.920 . S
Co239 O242 1.966 . S
Co239 N248 2.022 . S
Co239 N256 1.993 . S
Co239 O264 1.941 . S
C240 O241 1.258 . S
C240 O242 1.263 . S
O241 Co238 1.970 . S
O241 C240 1.258 . S
O242 Co239 1.966 . S
O242 C240 1.263 . S
C243 O244 1.235 . S
C243 O270 1.289 . S
O244 C243 1.235 . S
C245 C247 1.400 . S
C245 N248 1.351 . S
C245 C250 1.501 . S
C246 C247 1.387 . S
C246 N249 1.341 . S
C247 C245 1.400 . S
C247 C246 1.387 . S
N248 Co239 2.022 . S
N248 C245 1.351 . S
N248 N249 1.365 . S
N249 C246 1.341 . S
N249 N248 1.365 . S
N249 H269 0.862 . S
C250 C245 1.501 . S
C250 H251 0.961 . S
C250 H252 0.961 . S
C250 H253 0.960 . S
H251 C250 0.961 . S
H252 C250 0.961 . S
H253 C250 0.960 . S
C254 N255 1.342 . S
C254 C258 1.401 . S
C254 C259 1.499 . S
N255 Co238 1.989 . S
N255 C254 1.342 . S
N255 N256 1.388 . S
N256 Co239 1.993 . S
N256 N255 1.388 . S
N256 C257 1.346 . S
C257 N256 1.346 . S
C257 C258 1.396 . S
C257 C267 1.510 . S
C258 C254 1.401 . S
C258 C257 1.396 . S
C259 C254 1.499 . S
C259 H260 0.959 . S
C259 H261 0.960 . S
C259 H262 0.961 . S
H260 C259 0.959 . S
H261 C259 0.960 . S
H262 C259 0.961 . S
O263 Co238 1.967 . S
O263 C271 1.258 . S
O264 Co239 1.941 . S
O264 C271 1.266 . S
H265 C267 0.959 . S
H266 C267 0.961 . S
C267 C257 1.510 . S
C267 H265 0.959 . S
C267 H266 0.961 . S
C267 H268 0.960 . S
H268 C267 0.960 . S
H269 N249 0.862 . S
O270 Co238 1.920 . S
O270 C243 1.289 . S
C271 O263 1.258 . S
C271 O264 1.266 . S
Co272 O275 1.970 . S
Co272 N289 1.989 . S
Co272 O297 1.967 1_545 S
Co272 O304 1.920 . S
Co273 O276 1.966 . S
Co273 N282 2.022 . S
Co273 N290 1.993 1_565 S
Co273 O298 1.941 . S
C274 O275 1.258 . S
C274 O276 1.263 1_545 S
O275 Co272 1.970 . S
O275 C274 1.258 . S
O276 Co273 1.966 . S
O276 C274 1.263 1_565 S
C277 O278 1.235 . S
C277 O304 1.289 . S
O278 C277 1.235 . S
C279 C281 1.400 . S
C279 N282 1.351 . S
C279 C284 1.501 . S
C280 C281 1.387 . S
C280 N283 1.341 . S
C281 C279 1.400 . S
C281 C280 1.387 . S
N282 Co273 2.022 . S
N282 C279 1.351 . S
N282 N283 1.365 . S
N283 C280 1.341 . S
N283 N282 1.365 . S
N283 H303 0.862 . S
C284 C279 1.501 . S
C284 H285 0.961 . S
C284 H286 0.961 1_565 S
C284 H287 0.960 . S
H285 C284 0.961 . S
H286 C284 0.961 1_545 S
H287 C284 0.960 . S
C288 N289 1.342 . S
C288 C292 1.401 . S
C288 C293 1.499 . S
N289 Co272 1.989 . S
N289 C288 1.342 . S
N289 N290 1.388 . S
N290 Co273 1.993 1_545 S
N290 N289 1.388 . S
N290 C291 1.346 . S
C291 N290 1.346 . S
C291 C292 1.396 . S
C291 C301 1.510 . S
C292 C288 1.401 . S
C292 C291 1.396 . S
C293 C288 1.499 . S
C293 H294 0.959 . S
C293 H295 0.960 . S
C293 H296 0.961 . S
H294 C293 0.959 . S
H295 C293 0.960 . S
H296 C293 0.961 . S
O297 Co272 1.967 1_565 S
O297 C305 1.258 . S
O298 Co273 1.941 . S
O298 C305 1.266 . S
H299 C301 0.959 . S
H300 C301 0.961 . S
C301 C291 1.510 . S
C301 H299 0.959 . S
C301 H300 0.961 . S
C301 H302 0.960 . S
H302 C301 0.960 . S
H303 N283 0.862 . S
O304 Co272 1.920 . S
O304 C277 1.289 . S
C305 O297 1.258 . S
C305 O298 1.266 . S
Co306 O309 1.973 . S
Co306 N323 1.989 . S
Co306 O331 1.966 1_545 S
Co306 O338 1.918 1_545 S
Co307 O310 1.966 . S
Co307 N316 2.022 . S
Co307 N324 1.993 . S
Co307 O332 1.941 1_545 S
C308 O309 1.258 . S
C308 O310 1.263 . S
O309 Co306 1.973 . S
O309 C308 1.258 . S
O310 Co307 1.966 . S
O310 C308 1.263 . S
C311 O312 1.235 . S
C311 O338 1.289 1_545 S
O312 C311 1.235 . S
C313 C315 1.400 . S
C313 N316 1.351 . S
C313 C318 1.501 . S
C314 C315 1.387 . S
C314 N317 1.341 . S
C315 C313 1.400 . S
C315 C314 1.387 . S
N316 Co307 2.022 . S
N316 C313 1.351 . S
N316 N317 1.365 . S
N317 C314 1.341 . S
N317 N316 1.365 . S
N317 H337 0.862 1_545 S
C318 C313 1.501 . S
C318 H319 0.961 . S
C318 H320 0.961 . S
C318 H321 0.960 . S
H319 C318 0.961 . S
H320 C318 0.961 . S
H321 C318 0.960 . S
C322 N323 1.342 1_565 S
C322 C326 1.401 1_565 S
C322 C327 1.499 . S
N323 Co306 1.989 . S
N323 C322 1.342 1_545 S
N323 N324 1.388 . S
N324 Co307 1.993 . S
N324 N323 1.388 . S
N324 C325 1.346 . S
C325 N324 1.346 . S
C325 C326 1.396 . S
C325 C335 1.510 . S
C326 C322 1.401 1_545 S
C326 C325 1.396 . S
C327 C322 1.499 . S
C327 H328 0.959 . S
C327 H329 0.966 . S
C327 H330 0.961 . S
H328 C327 0.959 . S
H329 C327 0.966 . S
H330 C327 0.961 . S
O331 Co306 1.966 1_565 S
O331 C339 1.258 . S
O332 Co307 1.941 1_565 S
O332 C339 1.266 . S
H333 C335 0.959 . S
H334 C335 0.961 . S
C335 C325 1.510 . S
C335 H333 0.959 . S
C335 H334 0.961 . S
C335 H336 0.960 . S
H336 C335 0.960 . S
H337 N317 0.862 1_565 S
O338 Co306 1.918 1_565 S
O338 C311 1.289 1_565 S
C339 O331 1.258 . S
C339 O332 1.266 . S
Co340 O343 1.973 . S
Co340 N357 1.990 . S
Co340 O365 1.961 1_655 S
Co340 O372 1.921 1_655 S
Co341 O344 1.966 . S
Co341 N350 2.022 . S
Co341 N358 1.993 . S
Co341 O366 1.941 1_655 S
C342 O343 1.258 . S
C342 O344 1.263 . S
O343 Co340 1.973 . S
O343 C342 1.258 . S
O344 Co341 1.966 . S
O344 C342 1.263 . S
C345 O346 1.235 . S
C345 O372 1.289 1_655 S
O346 C345 1.235 . S
C347 C349 1.400 . S
C347 N350 1.351 . S
C347 C352 1.501 . S
C348 C349 1.387 . S
C348 N351 1.341 . S
C349 C347 1.400 . S
C349 C348 1.387 . S
N350 Co341 2.022 . S
N350 C347 1.351 . S
N350 N351 1.365 . S
N351 C348 1.341 . S
N351 N350 1.365 . S
N351 H371 0.862 1_655 S
C352 C347 1.501 . S
C352 H353 0.961 . S
C352 H354 0.961 . S
C352 H355 0.960 . S
H353 C352 0.961 . S
H354 C352 0.961 . S
H355 C352 0.960 . S
C356 N357 1.342 1_455 S
C356 C360 1.401 1_455 S
C356 C361 1.499 . S
N357 Co340 1.990 . S
N357 C356 1.342 1_655 S
N357 N358 1.388 . S
N358 Co341 1.993 . S
N358 N357 1.388 . S
N358 C359 1.346 . S
C359 N358 1.346 . S
C359 C360 1.396 . S
C359 C369 1.510 . S
C360 C356 1.401 1_655 S
C360 C359 1.396 . S
C361 C356 1.499 . S
C361 H362 0.959 . S
C361 H363 0.988 . S
C361 H364 0.961 . S
H362 C361 0.959 . S
H363 C361 0.988 . S
H364 C361 0.961 . S
O365 Co340 1.961 1_455 S
O365 C373 1.258 . S
O366 Co341 1.941 1_455 S
O366 C373 1.266 . S
H367 C369 0.959 . S
H368 C369 0.961 . S
C369 C359 1.510 . S
C369 H367 0.959 . S
C369 H368 0.961 . S
C369 H370 0.960 . S
H370 C369 0.960 . S
H371 N351 0.862 1_455 S
O372 Co340 1.921 1_455 S
O372 C345 1.289 1_455 S
C373 O365 1.258 . S
C373 O366 1.266 . S
Co374 O377 1.970 . S
Co374 N391 1.989 . S
Co374 O399 1.967 . S
Co374 O406 1.920 . S
Co375 O378 1.966 . S
Co375 N384 2.022 . S
Co375 N392 1.993 . S
Co375 O400 1.941 . S
C376 O377 1.258 . S
C376 O378 1.263 . S
O377 Co374 1.970 . S
O377 C376 1.258 . S
O378 Co375 1.966 . S
O378 C376 1.263 . S
C379 O380 1.235 . S
C379 O406 1.289 . S
O380 C379 1.235 . S
C381 C383 1.400 . S
C381 N384 1.351 . S
C381 C386 1.501 . S
C382 C383 1.387 . S
C382 N385 1.341 . S
C383 C381 1.400 . S
C383 C382 1.387 . S
N384 Co375 2.022 . S
N384 C381 1.351 . S
N384 N385 1.365 . S
N385 C382 1.341 . S
N385 N384 1.365 . S
N385 H405 0.862 . S
C386 C381 1.501 . S
C386 H387 0.961 . S
C386 H388 0.961 . S
C386 H389 0.960 . S
H387 C386 0.961 . S
H388 C386 0.961 . S
H389 C386 0.960 . S
C390 N391 1.342 . S
C390 C394 1.401 . S
C390 C395 1.499 . S
N391 Co374 1.989 . S
N391 C390 1.342 . S
N391 N392 1.388 . S
N392 Co375 1.993 . S
N392 N391 1.388 . S
N392 C393 1.346 . S
C393 N392 1.346 . S
C393 C394 1.396 . S
C393 C403 1.510 . S
C394 C390 1.401 . S
C394 C393 1.396 . S
C395 C390 1.499 . S
C395 H396 0.959 . S
C395 H397 0.960 . S
C395 H398 0.961 . S
H396 C395 0.959 . S
H397 C395 0.960 . S
H398 C395 0.961 . S
O399 Co374 1.967 . S
O399 C407 1.258 . S
O400 Co375 1.941 . S
O400 C407 1.266 . S
H401 C403 0.959 . S
H402 C403 0.961 . S
C403 C393 1.510 . S
C403 H401 0.959 . S
C403 H402 0.961 . S
C403 H404 0.960 . S
H404 C403 0.960 . S
H405 N385 0.862 . S
O406 Co374 1.920 . S
O406 C379 1.289 . S
C407 O399 1.258 . S
C407 O400 1.266 . S
Co408 O411 1.973 . S
Co408 N425 1.989 . S
Co408 O433 1.966 1_565 S
Co408 O440 1.918 1_565 S
Co409 O412 1.966 . S
Co409 N418 2.022 . S
Co409 N426 1.993 . S
Co409 O434 1.941 1_565 S
C410 O411 1.258 . S
C410 O412 1.263 . S
O411 Co408 1.973 . S
O411 C410 1.258 . S
O412 Co409 1.966 . S
O412 C410 1.263 . S
C413 O414 1.235 . S
C413 O440 1.289 1_565 S
O414 C413 1.235 . S
C415 C417 1.400 . S
C415 N418 1.351 . S
C415 C420 1.501 . S
C416 C417 1.387 . S
C416 N419 1.341 . S
C417 C415 1.400 . S
C417 C416 1.387 . S
N418 Co409 2.022 . S
N418 C415 1.351 . S
N418 N419 1.365 . S
N419 C416 1.341 . S
N419 N418 1.365 . S
N419 H439 0.862 1_565 S
C420 C415 1.501 . S
C420 H421 0.961 . S
C420 H422 0.961 . S
C420 H423 0.960 . S
H421 C420 0.961 . S
H422 C420 0.961 . S
H423 C420 0.960 . S
C424 N425 1.342 1_545 S
C424 C428 1.401 1_545 S
C424 C429 1.499 . S
N425 Co408 1.989 . S
N425 C424 1.342 1_565 S
N425 N426 1.388 . S
N426 Co409 1.993 . S
N426 N425 1.388 . S
N426 C427 1.346 . S
C427 N426 1.346 . S
C427 C428 1.396 . S
C427 C437 1.510 . S
C428 C424 1.401 1_565 S
C428 C427 1.396 . S
C429 C424 1.499 . S
C429 H430 0.959 . S
C429 H431 0.966 . S
C429 H432 0.961 . S
H430 C429 0.959 . S
H431 C429 0.966 . S
H432 C429 0.961 . S
O433 Co408 1.966 1_545 S
O433 C441 1.258 . S
O434 Co409 1.941 1_545 S
O434 C441 1.266 . S
H435 C437 0.959 . S
H436 C437 0.961 . S
C437 C427 1.510 . S
C437 H435 0.959 . S
C437 H436 0.961 . S
C437 H438 0.960 . S
H438 C437 0.960 . S
H439 N419 0.862 1_545 S
O440 Co408 1.918 1_545 S
O440 C413 1.289 1_545 S
C441 O433 1.258 . S
C441 O434 1.266 . S
Co442 O445 1.973 . S
Co442 N459 1.990 . S
Co442 O467 1.961 1_455 S
Co442 O474 1.921 1_455 S
Co443 O446 1.966 . S
Co443 N452 2.022 . S
Co443 N460 1.993 . S
Co443 O468 1.941 1_455 S
C444 O445 1.258 . S
C444 O446 1.263 . S
O445 Co442 1.973 . S
O445 C444 1.258 . S
O446 Co443 1.966 . S
O446 C444 1.263 . S
C447 O448 1.235 . S
C447 O474 1.289 1_455 S
O448 C447 1.235 . S
C449 C451 1.400 . S
C449 N452 1.351 . S
C449 C454 1.501 . S
C450 C451 1.387 . S
C450 N453 1.341 . S
C451 C449 1.400 . S
C451 C450 1.387 . S
N452 Co443 2.022 . S
N452 C449 1.351 . S
N452 N453 1.365 . S
N453 C450 1.341 . S
N453 N452 1.365 . S
N453 H473 0.862 1_455 S
C454 C449 1.501 . S
C454 H455 0.961 . S
C454 H456 0.961 . S
C454 H457 0.960 . S
H455 C454 0.961 . S
H456 C454 0.961 . S
H457 C454 0.960 . S
C458 N459 1.342 1_655 S
C458 C462 1.401 1_655 S
C458 C463 1.499 . S
N459 Co442 1.990 . S
N459 C458 1.342 1_455 S
N459 N460 1.388 . S
N460 Co443 1.993 . S
N460 N459 1.388 . S
N460 C461 1.346 . S
C461 N460 1.346 . S
C461 C462 1.396 . S
C461 C471 1.510 . S
C462 C458 1.401 1_455 S
C462 C461 1.396 . S
C463 C458 1.499 . S
C463 H464 0.959 . S
C463 H465 0.988 . S
C463 H466 0.961 . S
H464 C463 0.959 . S
H465 C463 0.988 . S
H466 C463 0.961 . S
O467 Co442 1.961 1_655 S
O467 C475 1.258 . S
O468 Co443 1.941 1_655 S
O468 C475 1.266 . S
H469 C471 0.959 . S
H470 C471 0.961 . S
C471 C461 1.510 . S
C471 H469 0.959 . S
C471 H470 0.961 . S
C471 H472 0.960 . S
H472 C471 0.960 . S
H473 N453 0.862 1_655 S
O474 Co442 1.921 1_655 S
O474 C447 1.289 1_655 S
C475 O467 1.258 . S
C475 O468 1.266 . S
Co476 O479 1.970 . S
Co476 N493 1.989 . S
Co476 O501 1.967 . S
Co476 O508 1.920 . S
Co477 O480 1.966 . S
Co477 N486 2.022 . S
Co477 N494 1.993 . S
Co477 O502 1.941 . S
C478 O479 1.258 . S
C478 O480 1.263 . S
O479 Co476 1.970 . S
O479 C478 1.258 . S
O480 Co477 1.966 . S
O480 C478 1.263 . S
C481 O482 1.235 . S
C481 O508 1.289 . S
O482 C481 1.235 . S
C483 C485 1.400 . S
C483 N486 1.351 . S
C483 C488 1.501 . S
C484 C485 1.387 . S
C484 N487 1.341 . S
C485 C483 1.400 . S
C485 C484 1.387 . S
N486 Co477 2.022 . S
N486 C483 1.351 . S
N486 N487 1.365 . S
N487 C484 1.341 . S
N487 N486 1.365 . S
N487 H507 0.862 . S
C488 C483 1.501 . S
C488 H489 0.961 . S
C488 H490 0.961 . S
C488 H491 0.960 . S
H489 C488 0.961 . S
H490 C488 0.961 . S
H491 C488 0.960 . S
C492 N493 1.342 . S
C492 C496 1.401 . S
C492 C497 1.499 . S
N493 Co476 1.989 . S
N493 C492 1.342 . S
N493 N494 1.388 . S
N494 Co477 1.993 . S
N494 N493 1.388 . S
N494 C495 1.346 . S
C495 N494 1.346 . S
C495 C496 1.396 . S
C495 C505 1.510 . S
C496 C492 1.401 . S
C496 C495 1.396 . S
C497 C492 1.499 . S
C497 H498 0.959 . S
C497 H499 0.960 . S
C497 H500 0.961 . S
H498 C497 0.959 . S
H499 C497 0.960 . S
H500 C497 0.961 . S
O501 Co476 1.967 . S
O501 C509 1.258 . S
O502 Co477 1.941 . S
O502 C509 1.266 . S
H503 C505 0.959 . S
H504 C505 0.961 . S
C505 C495 1.510 . S
C505 H503 0.959 . S
C505 H504 0.961 . S
C505 H506 0.960 . S
H506 C505 0.960 . S
H507 N487 0.862 . S
O508 Co476 1.920 . S
O508 C481 1.289 . S
C509 O501 1.258 . S
C509 O502 1.266 . S
Co510 O513 1.970 . S
Co510 N527 1.989 . S
Co510 O535 1.967 1_455 S
Co510 O542 1.920 . S
Co511 O514 1.966 . S
Co511 N520 2.022 . S
Co511 N528 1.993 1_655 S
Co511 O536 1.941 . S
C512 O513 1.258 . S
C512 O514 1.263 1_455 S
O513 Co510 1.970 . S
O513 C512 1.258 . S
O514 Co511 1.966 . S
O514 C512 1.263 1_655 S
C515 O516 1.235 . S
C515 O542 1.289 . S
O516 C515 1.235 . S
C517 C519 1.400 . S
C517 N520 1.351 . S
C517 C522 1.501 . S
C518 C519 1.387 . S
C518 N521 1.341 . S
C519 C517 1.400 . S
C519 C518 1.387 . S
N520 Co511 2.022 . S
N520 C517 1.351 . S
N520 N521 1.365 . S
N521 C518 1.341 . S
N521 N520 1.365 . S
N521 H541 0.862 . S
C522 C517 1.501 . S
C522 H523 0.961 . S
C522 H524 0.961 1_655 S
C522 H525 0.960 . S
H523 C522 0.961 . S
H524 C522 0.961 1_455 S
H525 C522 0.960 . S
C526 N527 1.342 . S
C526 C530 1.401 . S
C526 C531 1.499 . S
N527 Co510 1.989 . S
N527 C526 1.342 . S
N527 N528 1.388 . S
N528 Co511 1.993 1_455 S
N528 N527 1.388 . S
N528 C529 1.346 . S
C529 N528 1.346 . S
C529 C530 1.396 . S
C529 C539 1.510 . S
C530 C526 1.401 . S
C530 C529 1.396 . S
C531 C526 1.499 . S
C531 H532 0.959 . S
C531 H533 0.960 . S
C531 H534 0.961 . S
H532 C531 0.959 . S
H533 C531 0.960 . S
H534 C531 0.961 . S
O535 Co510 1.967 1_655 S
O535 C543 1.258 . S
O536 Co511 1.941 . S
O536 C543 1.266 . S
H537 C539 0.959 . S
H538 C539 0.961 . S
C539 C529 1.510 . S
C539 H537 0.959 . S
C539 H538 0.961 . S
C539 H540 0.960 . S
H540 C539 0.960 . S
H541 N521 0.862 . S
O542 Co510 1.920 . S
O542 C515 1.289 . S
C543 O535 1.258 . S
C543 O536 1.266 . S
Co544 O547 1.970 . S
Co544 N561 1.989 . S
Co544 O569 1.967 . S
Co544 O576 1.920 . S
Co545 O548 1.966 . S
Co545 N554 2.022 . S
Co545 N562 1.993 . S
Co545 O570 1.941 . S
C546 O547 1.258 . S
C546 O548 1.263 . S
O547 Co544 1.970 . S
O547 C546 1.258 . S
O548 Co545 1.966 . S
O548 C546 1.263 . S
C549 O550 1.235 . S
C549 O576 1.289 . S
O550 C549 1.235 . S
C551 C553 1.400 . S
C551 N554 1.351 . S
C551 C556 1.501 . S
C552 C553 1.387 . S
C552 N555 1.341 . S
C553 C551 1.400 . S
C553 C552 1.387 . S
N554 Co545 2.022 . S
N554 C551 1.351 . S
N554 N555 1.365 . S
N555 C552 1.341 . S
N555 N554 1.365 . S
N555 H575 0.862 . S
C556 C551 1.501 . S
C556 H557 0.961 . S
C556 H558 0.961 . S
C556 H559 0.960 . S
H557 C556 0.961 . S
H558 C556 0.961 . S
H559 C556 0.960 . S
C560 N561 1.342 . S
C560 C564 1.401 . S
C560 C565 1.499 . S
N561 Co544 1.989 . S
N561 C560 1.342 . S
N561 N562 1.388 . S
N562 Co545 1.993 . S
N562 N561 1.388 . S
N562 C563 1.346 . S
C563 N562 1.346 . S
C563 C564 1.396 . S
C563 C573 1.510 . S
C564 C560 1.401 . S
C564 C563 1.396 . S
C565 C560 1.499 . S
C565 H566 0.959 . S
C565 H567 0.960 . S
C565 H568 0.961 . S
H566 C565 0.959 . S
H567 C565 0.960 . S
H568 C565 0.961 . S
O569 Co544 1.967 . S
O569 C577 1.258 . S
O570 Co545 1.941 . S
O570 C577 1.266 . S
H571 C573 0.959 . S
H572 C573 0.961 . S
C573 C563 1.510 . S
C573 H571 0.959 . S
C573 H572 0.961 . S
C573 H574 0.960 . S
H574 C573 0.960 . S
H575 N555 0.862 . S
O576 Co544 1.920 . S
O576 C549 1.289 . S
C577 O569 1.258 . S
C577 O570 1.266 . S
Co578 O581 1.970 . S
Co578 N595 1.989 . S
Co578 O603 1.967 1_565 S
Co578 O610 1.920 . S
Co579 O582 1.966 . S
Co579 N588 2.022 . S
Co579 N596 1.993 1_545 S
Co579 O604 1.941 . S
C580 O581 1.258 . S
C580 O582 1.263 1_565 S
O581 Co578 1.970 . S
O581 C580 1.258 . S
O582 Co579 1.966 . S
O582 C580 1.263 1_545 S
C583 O584 1.235 . S
C583 O610 1.289 . S
O584 C583 1.235 . S
C585 C587 1.400 . S
C585 N588 1.351 . S
C585 C590 1.501 . S
C586 C587 1.387 . S
C586 N589 1.341 . S
C587 C585 1.400 . S
C587 C586 1.387 . S
N588 Co579 2.022 . S
N588 C585 1.351 . S
N588 N589 1.365 . S
N589 C586 1.341 . S
N589 N588 1.365 . S
N589 H609 0.862 . S
C590 C585 1.501 . S
C590 H591 0.961 . S
C590 H592 0.961 1_545 S
C590 H593 0.960 . S
H591 C590 0.961 . S
H592 C590 0.961 1_565 S
H593 C590 0.960 . S
C594 N595 1.342 . S
C594 C598 1.401 . S
C594 C599 1.499 . S
N595 Co578 1.989 . S
N595 C594 1.342 . S
N595 N596 1.388 . S
N596 Co579 1.993 1_565 S
N596 N595 1.388 . S
N596 C597 1.346 . S
C597 N596 1.346 . S
C597 C598 1.396 . S
C597 C607 1.510 . S
C598 C594 1.401 . S
C598 C597 1.396 . S
C599 C594 1.499 . S
C599 H600 0.959 . S
C599 H601 0.960 . S
C599 H602 0.961 . S
H600 C599 0.959 . S
H601 C599 0.960 . S
H602 C599 0.961 . S
O603 Co578 1.967 1_545 S
O603 C611 1.258 . S
O604 Co579 1.941 . S
O604 C611 1.266 . S
H605 C607 0.959 . S
H606 C607 0.961 . S
C607 C597 1.510 . S
C607 H605 0.959 . S
C607 H606 0.961 . S
C607 H608 0.960 . S
H608 C607 0.960 . S
H609 N589 0.862 . S
O610 Co578 1.920 . S
O610 C583 1.289 . S
C611 O603 1.258 . S
C611 O604 1.266 . S
C612 C613 1.349 . S
C612 C614 1.327 . S
C612 H637 0.950 . S
C613 C612 1.349 . S
C613 C629 1.349 . S
C614 C612 1.327 . S
C614 C633 1.429 . S
C614 H638 0.950 . S
C615 C632 1.574 . S
C615 C634 1.368 1_556 S
C615 H639 0.949 . S
H616 C620 0.949 . S
C617 C618 1.349 . S
C617 C619 1.327 . S
C617 H640 0.950 . S
C618 C617 1.349 . S
C618 C630 1.349 . S
C619 C617 1.327 . S
C619 C635 1.429 . S
C619 H641 0.950 . S
C620 H616 0.949 . S
C620 C628 1.574 1_556 S
C620 C636 1.368 . S
H621 C629 0.950 . S
H622 C627 0.966 . S
H623 C628 0.949 . S
H624 C630 0.950 . S
H625 C631 0.950 . S
H626 C632 0.949 . S
C627 H622 0.966 . S
C627 C629 1.327 . S
C627 C633 1.429 . S
C628 C620 1.574 1_554 S
C628 H623 0.949 . S
C628 C634 1.368 . S
C629 C613 1.349 . S
C629 H621 0.950 . S
C629 C627 1.327 . S
C630 C618 1.349 . S
C630 H624 0.950 . S
C630 C631 1.327 . S
C631 H625 0.950 . S
C631 C630 1.327 . S
C631 C635 1.429 . S
C632 C615 1.574 . S
C632 H626 0.949 . S
C632 C636 1.368 . S
C633 C614 1.429 . S
C633 C627 1.429 . S
C633 C634 1.523 . S
C634 C615 1.368 1_554 S
C634 C628 1.368 . S
C634 C633 1.523 . S
C635 C619 1.429 . S
C635 C631 1.429 . S
C635 C636 1.523 . S
C636 C620 1.368 . S
C636 C632 1.368 . S
C636 C635 1.523 . S
H637 C612 0.950 . S
H638 C614 0.950 . S
H639 C615 0.949 . S
H640 C617 0.950 . S
H641 C619 0.950 . S
C642 C643 1.349 . S
C642 C644 1.327 . S
C642 H667 0.950 . S
C643 C642 1.349 . S
C643 C659 1.349 . S
C644 C642 1.327 . S
C644 C663 1.429 . S
C644 H668 0.950 . S
C645 C662 1.574 1_554 S
C645 C664 1.368 . S
C645 H669 0.949 . S
H646 C650 0.949 . S
C647 C648 1.349 . S
C647 C649 1.327 . S
C647 H670 0.950 . S
C648 C647 1.349 . S
C648 C660 1.349 . S
C649 C647 1.327 . S
C649 C665 1.429 . S
C649 H671 0.950 . S
C650 H646 0.949 . S
C650 C658 1.574 . S
C650 C666 1.368 . S
H651 C659 0.950 . S
H652 C657 0.950 . S
H653 C658 0.949 . S
H654 C660 0.950 . S
H655 C661 0.950 . S
H656 C662 0.949 . S
C657 H652 0.950 . S
C657 C659 1.327 . S
C657 C663 1.429 . S
C658 C650 1.574 . S
C658 H653 0.949 . S
C658 C664 1.368 1_556 S
C659 C643 1.349 . S
C659 H651 0.950 . S
C659 C657 1.327 . S
C660 C648 1.349 . S
C660 H654 0.950 . S
C660 C661 1.327 . S
C661 H655 0.950 . S
C661 C660 1.327 . S
C661 C665 1.429 . S
C662 C645 1.574 1_556 S
C662 H656 0.949 . S
C662 C666 1.368 . S
C663 C644 1.429 . S
C663 C657 1.429 . S
C663 C664 1.523 . S
C664 C645 1.368 . S
C664 C658 1.368 1_554 S
C664 C663 1.523 . S
C665 C649 1.429 . S
C665 C661 1.429 . S
C665 C666 1.523 . S
C666 C650 1.368 . S
C666 C662 1.368 . S
C666 C665 1.523 . S
H667 C642 0.950 . S
H668 C644 0.950 . S
H669 C645 0.949 . S
H670 C647 0.950 . S
H671 C649 0.950 . S
C672 C673 1.349 . S
C672 C674 1.327 . S
C672 H697 0.950 . S
C673 C672 1.349 . S
C673 C689 1.349 . S
C674 C672 1.327 . S
C674 C693 1.429 . S
C674 H698 0.950 . S
C675 C692 1.574 . S
C675 C694 1.368 1_556 S
C675 H699 0.949 . S
H676 C680 0.949 . S
C677 C678 1.349 . S
C677 C679 1.327 . S
C677 H700 0.950 . S
C678 C677 1.349 . S
C678 C690 1.349 . S
C679 C677 1.327 . S
C679 C695 1.429 . S
C679 H701 0.950 . S
C680 H676 0.949 . S
C680 C688 1.574 1_556 S
C680 C696 1.368 . S
H681 C689 0.950 . S
H682 C687 0.950 . S
H683 C688 0.949 . S
H684 C690 0.950 . S
H685 C691 0.950 . S
H686 C692 0.949 . S
C687 H682 0.950 . S
C687 C689 1.327 . S
C687 C693 1.429 . S
C688 C680 1.574 1_554 S
C688 H683 0.949 . S
C688 C694 1.368 . S
C689 C673 1.349 . S
C689 H681 0.950 . S
C689 C687 1.327 . S
C690 C678 1.349 . S
C690 H684 0.950 . S
C690 C691 1.327 . S
C691 H685 0.950 . S
C691 C690 1.327 . S
C691 C695 1.429 . S
C692 C675 1.574 . S
C692 H686 0.949 . S
C692 C696 1.368 . S
C693 C674 1.429 . S
C693 C687 1.429 . S
C693 C694 1.523 . S
C694 C675 1.368 1_554 S
C694 C688 1.368 . S
C694 C693 1.523 . S
C695 C679 1.429 . S
C695 C691 1.429 . S
C695 C696 1.523 . S
C696 C680 1.368 . S
C696 C692 1.368 . S
C696 C695 1.523 . S
H697 C672 0.950 . S
H698 C674 0.950 . S
H699 C675 0.949 . S
H700 C677 0.950 . S
H701 C679 0.950 . S
C702 C703 1.349 . S
C702 C704 1.327 . S
C702 H727 0.950 . S
C703 C702 1.349 . S
C703 C719 1.349 . S
C704 C702 1.327 . S
C704 C723 1.429 . S
C704 H728 0.950 . S
C705 C722 1.574 . S
C705 C724 1.368 . S
C705 H729 0.949 . S
H706 C710 0.949 . S
C707 C708 1.349 . S
C707 C709 1.327 . S
C707 H730 0.950 . S
C708 C707 1.349 . S
C708 C720 1.349 . S
C709 C707 1.327 . S
C709 C725 1.429 . S
C709 H731 0.950 . S
C710 H706 0.949 . S
C710 C718 1.574 1_556 S
C710 C726 1.368 . S
H711 C719 0.950 . S
H712 C717 0.950 . S
H713 C718 0.949 . S
H714 C720 0.950 . S
H715 C721 0.950 . S
H716 C722 0.949 . S
C717 H712 0.950 . S
C717 C719 1.327 . S
C717 C723 1.429 . S
C718 C710 1.574 1_554 S
C718 H713 0.949 . S
C718 C724 1.368 . S
C719 C703 1.349 . S
C719 H711 0.950 . S
C719 C717 1.327 . S
C720 C708 1.349 . S
C720 H714 0.950 . S
C720 C721 1.327 . S
C721 H715 0.950 . S
C721 C720 1.327 . S
C721 C725 1.429 . S
C722 C705 1.574 . S
C722 H716 0.949 . S
C722 C726 1.368 1_554 S
C723 C704 1.429 . S
C723 C717 1.429 . S
C723 C724 1.523 . S
C724 C705 1.368 . S
C724 C718 1.368 . S
C724 C723 1.523 . S
C725 C709 1.429 . S
C725 C721 1.429 . S
C725 C726 1.523 . S
C726 C710 1.368 . S
C726 C722 1.368 1_556 S
C726 C725 1.523 . S
H727 C702 0.950 . S
H728 C704 0.950 . S
H729 C705 0.949 . S
H730 C707 0.950 . S
H731 C709 0.950 . S
C732 C733 1.349 . S
C732 C734 1.327 . S
C732 H757 0.950 . S
C733 C732 1.349 . S
C733 C749 1.349 . S
C734 C732 1.327 . S
C734 C753 1.429 . S
C734 H758 0.950 . S
C735 C752 1.574 1_556 S
C735 C754 1.368 . S
C735 H759 0.949 . S
H736 C740 0.949 . S
C737 C738 1.349 . S
C737 C739 1.327 . S
C737 H760 0.950 . S
C738 C737 1.349 . S
C738 C750 1.349 . S
C739 C737 1.327 . S
C739 C755 1.429 . S
C739 H761 0.950 . S
C740 H736 0.949 . S
C740 C748 1.574 . S
C740 C756 1.368 . S
H741 C749 0.950 . S
H742 C747 0.950 . S
H743 C748 0.949 . S
H744 C750 0.950 . S
H745 C751 0.950 . S
H746 C752 0.949 . S
C747 H742 0.950 . S
C747 C749 1.327 . S
C747 C753 1.429 . S
C748 C740 1.574 . S
C748 H743 0.949 . S
C748 C754 1.368 1_554 S
C749 C733 1.349 . S
C749 H741 0.950 . S
C749 C747 1.327 . S
C750 C738 1.349 . S
C750 H744 0.950 . S
C750 C751 1.327 . S
C751 H745 0.950 . S
C751 C750 1.327 . S
C751 C755 1.429 . S
C752 C735 1.574 1_554 S
C752 H746 0.949 . S
C752 C756 1.368 . S
C753 C734 1.429 . S
C753 C747 1.429 . S
C753 C754 1.523 . S
C754 C735 1.368 . S
C754 C748 1.368 1_556 S
C754 C753 1.523 . S
C755 C739 1.429 . S
C755 C751 1.429 . S
C755 C756 1.523 . S
C756 C740 1.368 . S
C756 C752 1.368 . S
C756 C755 1.523 . S
H757 C732 0.950 . S
H758 C734 0.950 . S
H759 C735 0.949 . S
H760 C737 0.950 . S
H761 C739 0.950 . S
C762 C763 1.349 . S
C762 C764 1.327 . S
C762 H787 0.950 . S
C763 C762 1.349 . S
C763 C779 1.349 . S
C764 C762 1.327 . S
C764 C783 1.429 . S
C764 H788 0.950 . S
C765 C782 1.574 . S
C765 C784 1.368 . S
C765 H789 0.949 . S
H766 C770 0.941 1_556 S
C767 C768 1.349 . S
C767 C769 1.327 . S
C767 H790 0.950 . S
C768 C767 1.349 . S
C768 C780 1.349 . S
C769 C767 1.327 . S
C769 C785 1.429 . S
C769 H791 0.950 . S
C770 H766 0.941 1_554 S
C770 C778 1.586 . S
C770 C786 1.366 1_554 S
H771 C779 0.950 . S
H772 C777 0.950 . S
H773 C778 0.949 . S
H774 C780 0.950 . S
H775 C781 0.950 . S
H776 C782 0.955 . S
C777 H772 0.950 . S
C777 C779 1.327 . S
C777 C783 1.429 . S
C778 C770 1.586 . S
C778 H773 0.949 . S
C778 C784 1.368 . S
C779 C763 1.349 . S
C779 H771 0.950 . S
C779 C777 1.327 . S
C780 C768 1.349 . S
C780 H774 0.950 . S
C780 C781 1.327 . S
C781 H775 0.950 . S
C781 C780 1.327 . S
C781 C785 1.429 . S
C782 C765 1.574 . S
C782 H776 0.955 . S
C782 C786 1.368 1_554 S
C783 C764 1.429 . S
C783 C777 1.429 . S
C783 C784 1.523 . S
C784 C765 1.368 . S
C784 C778 1.368 . S
C784 C783 1.523 . S
C785 C769 1.429 . S
C785 C781 1.429 . S
C785 C786 1.523 . S
C786 C770 1.366 1_556 S
C786 C782 1.368 1_556 S
C786 C785 1.523 . S
H787 C762 0.950 . S
H788 C764 0.950 . S
H789 C765 0.949 . S
H790 C767 0.950 . S
H791 C769 0.950 . S
C792 C793 1.349 . S
C792 C794 1.327 . S
C792 H817 0.950 . S
C793 C792 1.349 . S
C793 C809 1.349 . S
C794 C792 1.327 . S
C794 C813 1.429 . S
C794 H818 0.950 . S
C795 C812 1.574 . S
C795 C814 1.368 1_655 S
C795 H819 0.949 . S
H796 C800 0.949 . S
C797 C798 1.349 1_655 S
C797 C799 1.327 . S
C797 H820 0.950 . S
C798 C797 1.349 1_455 S
C798 C810 1.349 . S
C799 C797 1.327 . S
C799 C815 1.429 1_655 S
C799 H821 0.950 . S
C800 H796 0.949 . S
C800 C808 1.574 . S
C800 C816 1.368 . S
H801 C809 0.950 1_655 S
H802 C807 0.976 . S
H803 C808 0.949 . S
H804 C810 0.950 . S
H805 C811 0.950 . S
H806 C812 0.949 . S
C807 H802 0.976 . S
C807 C809 1.338 1_655 S
C807 C813 1.393 1_655 S
C808 C800 1.574 . S
C808 H803 0.949 . S
C808 C814 1.368 . S
C809 C793 1.349 . S
C809 H801 0.950 1_455 S
C809 C807 1.338 1_455 S
C810 C798 1.349 . S
C810 H804 0.950 . S
C810 C811 1.327 . S
C811 H805 0.950 . S
C811 C810 1.327 . S
C811 C815 1.429 . S
C812 C795 1.574 . S
C812 H806 0.949 . S
C812 C816 1.368 1_655 S
C813 C794 1.429 . S
C813 C807 1.393 1_455 S
C813 C814 1.523 . S
C814 C795 1.368 1_455 S
C814 C808 1.368 . S
C814 C813 1.523 . S
C815 C799 1.429 1_455 S
C815 C811 1.429 . S
C815 C816 1.523 . S
C816 C800 1.368 . S
C816 C812 1.368 1_455 S
C816 C815 1.523 . S
H817 C792 0.950 . S
H818 C794 0.950 . S
H819 C795 0.949 . S
H820 C797 0.950 . S
H821 C799 0.950 . S
C822 C823 1.349 . S
C822 C824 1.327 . S
C822 H847 0.950 . S
C823 C822 1.349 . S
C823 C839 1.349 . S
C824 C822 1.327 . S
C824 C843 1.429 . S
C824 H848 0.950 . S
C825 C842 1.574 . S
C825 C844 1.368 . S
C825 H849 0.949 . S
H826 C830 0.949 . S
C827 C828 1.349 . S
C827 C829 1.327 . S
C827 H850 0.950 . S
C828 C827 1.349 . S
C828 C840 1.349 . S
C829 C827 1.327 . S
C829 C845 1.429 . S
C829 H851 0.950 . S
C830 H826 0.949 . S
C830 C838 1.574 . S
C830 C846 1.368 . S
H831 C839 0.950 . S
H832 C837 0.950 . S
H833 C838 0.949 . S
H834 C840 0.950 . S
H835 C841 0.950 . S
H836 C842 0.949 . S
C837 H832 0.950 . S
C837 C839 1.327 . S
C837 C843 1.429 . S
C838 C830 1.574 . S
C838 H833 0.949 . S
C838 C844 1.368 . S
C839 C823 1.349 . S
C839 H831 0.950 . S
C839 C837 1.327 . S
C840 C828 1.349 . S
C840 H834 0.950 . S
C840 C841 1.327 . S
C841 H835 0.950 . S
C841 C840 1.327 . S
C841 C845 1.429 . S
C842 C825 1.574 . S
C842 H836 0.949 . S
C842 C846 1.368 . S
C843 C824 1.429 . S
C843 C837 1.429 . S
C843 C844 1.523 . S
C844 C825 1.368 . S
C844 C838 1.368 . S
C844 C843 1.523 . S
C845 C829 1.429 . S
C845 C841 1.429 . S
C845 C846 1.523 . S
C846 C830 1.368 . S
C846 C842 1.368 . S
C846 C845 1.523 . S
H847 C822 0.950 . S
H848 C824 0.950 . S
H849 C825 0.949 . S
H850 C827 0.950 . S
H851 C829 0.950 . S
C852 C853 1.349 . S
C852 C854 1.327 . S
C852 H877 0.950 1_565 S
C853 C852 1.349 . S
C853 C869 1.349 . S
C854 C852 1.327 . S
C854 C873 1.429 . S
C854 H878 0.950 1_565 S
C855 C872 1.574 . S
C855 C874 1.368 . S
C855 H879 0.949 . S
H856 C860 0.949 . S
C857 C858 1.349 . S
C857 C859 1.327 . S
C857 H880 0.950 . S
C858 C857 1.349 . S
C858 C870 1.349 1_565 S
C859 C857 1.327 . S
C859 C875 1.429 . S
C859 H881 0.950 . S
C860 H856 0.949 . S
C860 C868 1.574 . S
C860 C876 1.368 1_545 S
H861 C869 0.950 . S
H862 C867 0.950 . S
H863 C868 0.949 . S
H864 C870 0.950 . S
H865 C871 0.950 . S
H866 C872 0.949 . S
C867 H862 0.950 . S
C867 C869 1.327 . S
C867 C873 1.429 . S
C868 C860 1.574 . S
C868 H863 0.949 . S
C868 C874 1.368 1_545 S
C869 C853 1.349 . S
C869 H861 0.950 . S
C869 C867 1.327 . S
C870 C858 1.349 1_545 S
C870 H864 0.950 . S
C870 C871 1.327 . S
C871 H865 0.950 . S
C871 C870 1.327 . S
C871 C875 1.429 1_545 S
C872 C855 1.574 . S
C872 H866 0.949 . S
C872 C876 1.368 . S
C873 C854 1.429 . S
C873 C867 1.429 . S
C873 C874 1.523 . S
C874 C855 1.368 . S
C874 C868 1.368 1_565 S
C874 C873 1.523 . S
C875 C859 1.429 . S
C875 C871 1.429 1_565 S
C875 C876 1.523 . S
C876 C860 1.368 1_565 S
C876 C872 1.368 . S
C876 C875 1.523 . S
H877 C852 0.950 1_545 S
H878 C854 0.950 1_545 S
H879 C855 0.949 . S
H880 C857 0.950 . S
H881 C859 0.950 . S
C882 C883 1.349 . S
C882 C884 1.327 . S
C882 H907 0.950 . S
C883 C882 1.349 . S
C883 C899 1.349 . S
C884 C882 1.327 . S
C884 C903 1.429 . S
C884 H908 0.950 . S
C885 C902 1.574 . S
C885 C904 1.368 . S
C885 H909 0.949 . S
H886 C890 0.949 . S
C887 C888 1.349 . S
C887 C889 1.327 . S
C887 H910 0.950 . S
C888 C887 1.349 . S
C888 C900 1.349 . S
C889 C887 1.327 . S
C889 C905 1.429 . S
C889 H911 0.950 . S
C890 H886 0.949 . S
C890 C898 1.574 . S
C890 C906 1.368 . S
H891 C899 0.950 . S
H892 C897 0.950 . S
H893 C898 0.949 . S
H894 C900 0.950 . S
H895 C901 0.950 . S
H896 C902 0.949 . S
C897 H892 0.950 . S
C897 C899 1.327 . S
C897 C903 1.429 . S
C898 C890 1.574 . S
C898 H893 0.949 . S
C898 C904 1.368 . S
C899 C883 1.349 . S
C899 H891 0.950 . S
C899 C897 1.327 . S
C900 C888 1.349 . S
C900 H894 0.950 . S
C900 C901 1.327 . S
C901 H895 0.950 . S
C901 C900 1.327 . S
C901 C905 1.429 . S
C902 C885 1.574 . S
C902 H896 0.949 . S
C902 C906 1.368 . S
C903 C884 1.429 . S
C903 C897 1.429 . S
C903 C904 1.523 . S
C904 C885 1.368 . S
C904 C898 1.368 . S
C904 C903 1.523 . S
C905 C889 1.429 . S
C905 C901 1.429 . S
C905 C906 1.523 . S
C906 C890 1.368 . S
C906 C902 1.368 . S
C906 C905 1.523 . S
H907 C882 0.950 . S
H908 C884 0.950 . S
H909 C885 0.949 . S
H910 C887 0.950 . S
H911 C889 0.950 . S
C912 C913 1.349 . S
C912 C914 1.327 . S
C912 H937 0.950 . S
C913 C912 1.349 . S
C913 C929 1.349 . S
C914 C912 1.327 . S
C914 C933 1.429 . S
C914 H938 0.950 . S
C915 C932 1.574 . S
C915 C934 1.368 . S
C915 H939 0.949 . S
H916 C920 0.949 . S
C917 C918 1.349 . S
C917 C919 1.327 . S
C917 H940 0.950 . S
C918 C917 1.349 . S
C918 C930 1.349 . S
C919 C917 1.327 . S
C919 C935 1.429 . S
C919 H941 0.950 . S
C920 H916 0.949 . S
C920 C928 1.574 . S
C920 C936 1.368 . S
H921 C929 0.950 . S
H922 C927 0.950 . S
H923 C928 0.949 . S
H924 C930 0.950 . S
H925 C931 0.950 . S
H926 C932 0.949 . S
C927 H922 0.950 . S
C927 C929 1.327 . S
C927 C933 1.429 . S
C928 C920 1.574 . S
C928 H923 0.949 . S
C928 C934 1.368 . S
C929 C913 1.349 . S
C929 H921 0.950 . S
C929 C927 1.327 . S
C930 C918 1.349 . S
C930 H924 0.950 . S
C930 C931 1.327 . S
C931 H925 0.950 . S
C931 C930 1.327 . S
C931 C935 1.429 . S
C932 C915 1.574 . S
C932 H926 0.949 . S
C932 C936 1.368 . S
C933 C914 1.429 . S
C933 C927 1.429 . S
C933 C934 1.523 . S
C934 C915 1.368 . S
C934 C928 1.368 . S
C934 C933 1.523 . S
C935 C919 1.429 . S
C935 C931 1.429 . S
C935 C936 1.523 . S
C936 C920 1.368 . S
C936 C932 1.368 . S
C936 C935 1.523 . S
H937 C912 0.950 . S
H938 C914 0.950 . S
H939 C915 0.949 . S
H940 C917 0.950 . S
H941 C919 0.950 . S
C942 C943 1.349 . S
C942 C944 1.327 . S
C942 H967 0.950 . S
C943 C942 1.349 . S
C943 C959 1.349 . S
C944 C942 1.327 . S
C944 C963 1.429 . S
C944 H968 0.950 . S
C945 C962 1.574 . S
C945 C964 1.368 . S
C945 H969 0.949 . S
H946 C950 0.949 . S
C947 C948 1.349 . S
C947 C949 1.327 . S
C947 H970 0.950 . S
C948 C947 1.349 . S
C948 C960 1.349 . S
C949 C947 1.327 . S
C949 C965 1.429 . S
C949 H971 0.950 . S
C950 H946 0.949 . S
C950 C958 1.574 . S
C950 C966 1.368 . S
H951 C959 0.950 . S
H952 C957 0.950 . S
H953 C958 0.949 . S
H954 C960 0.950 . S
H955 C961 0.950 . S
H956 C962 0.949 . S
C957 H952 0.950 . S
C957 C959 1.327 . S
C957 C963 1.429 . S
C958 C950 1.574 . S
C958 H953 0.949 . S
C958 C964 1.368 . S
C959 C943 1.349 . S
C959 H951 0.950 . S
C959 C957 1.327 . S
C960 C948 1.349 . S
C960 H954 0.950 . S
C960 C961 1.327 . S
C961 H955 0.950 . S
C961 C960 1.327 . S
C961 C965 1.429 . S
C962 C945 1.574 . S
C962 H956 0.949 . S
C962 C966 1.368 . S
C963 C944 1.429 . S
C963 C957 1.429 . S
C963 C964 1.523 . S
C964 C945 1.368 . S
C964 C958 1.368 . S
C964 C963 1.523 . S
C965 C949 1.429 . S
C965 C961 1.429 . S
C965 C966 1.523 . S
C966 C950 1.368 . S
C966 C962 1.368 . S
C966 C965 1.523 . S
H967 C942 0.950 . S
H968 C944 0.950 . S
H969 C945 0.949 . S
H970 C947 0.950 . S
H971 C949 0.950 . S
C972 C973 1.349 . S
C972 C974 1.327 . S
C972 H997 0.950 . S
C973 C972 1.349 . S
C973 C989 1.349 . S
C974 C972 1.327 . S
C974 C993 1.429 . S
C974 H998 0.950 . S
C975 C992 1.574 . S
C975 C994 1.368 . S
C975 H999 0.949 . S
H976 C980 0.949 . S
C977 C978 1.349 . S
C977 C979 1.327 . S
C977 H1000 0.950 . S
C978 C977 1.349 . S
C978 C990 1.349 . S
C979 C977 1.327 . S
C979 C995 1.429 . S
C979 H1001 0.950 . S
C980 H976 0.949 . S
C980 C988 1.574 . S
C980 C996 1.368 . S
H981 C989 0.950 . S
H982 C987 0.950 . S
H983 C988 0.949 . S
H984 C990 0.950 . S
H985 C991 0.950 . S
H986 C992 0.949 . S
C987 H982 0.950 . S
C987 C989 1.327 . S
C987 C993 1.429 . S
C988 C980 1.574 . S
C988 H983 0.949 . S
C988 C994 1.368 . S
C989 C973 1.349 . S
C989 H981 0.950 . S
C989 C987 1.327 . S
C990 C978 1.349 . S
C990 H984 0.950 . S
C990 C991 1.327 . S
C991 H985 0.950 . S
C991 C990 1.327 . S
C991 C995 1.429 . S
C992 C975 1.574 . S
C992 H986 0.949 . S
C992 C996 1.368 . S
C993 C974 1.429 . S
C993 C987 1.429 . S
C993 C994 1.523 . S
C994 C975 1.368 . S
C994 C988 1.368 . S
C994 C993 1.523 . S
C995 C979 1.429 . S
C995 C991 1.429 . S
C995 C996 1.523 . S
C996 C980 1.368 . S
C996 C992 1.368 . S
C996 C995 1.523 . S
H997 C972 0.950 . S
H998 C974 0.950 . S
H999 C975 0.949 . S
H1000 C977 0.950 . S
H1001 C979 0.950 . S
C1002 C1003 1.349 . S
C1002 C1004 1.327 . S
C1002 H1027 0.950 . S
C1003 C1002 1.349 . S
C1003 C1019 1.349 . S
C1004 C1002 1.327 . S
C1004 C1023 1.429 . S
C1004 H1028 0.950 . S
C1005 C1022 1.574 . S
C1005 C1024 1.368 . S
C1005 H1029 0.949 . S
H1006 C1010 0.949 . S
C1007 C1008 1.349 . S
C1007 C1009 1.327 . S
C1007 H1030 0.950 . S
C1008 C1007 1.349 . S
C1008 C1020 1.349 . S
C1009 C1007 1.327 . S
C1009 C1025 1.429 . S
C1009 H1031 0.950 . S
C1010 H1006 0.949 . S
C1010 C1018 1.574 . S
C1010 C1026 1.368 . S
H1011 C1019 0.950 . S
H1012 C1017 0.950 . S
H1013 C1018 0.949 . S
H1014 C1020 0.950 . S
H1015 C1021 0.950 . S
H1016 C1022 0.949 . S
C1017 H1012 0.950 . S
C1017 C1019 1.327 . S
C1017 C1023 1.429 . S
C1018 C1010 1.574 . S
C1018 H1013 0.949 . S
C1018 C1024 1.368 . S
C1019 C1003 1.349 . S
C1019 H1011 0.950 . S
C1019 C1017 1.327 . S
C1020 C1008 1.349 . S
C1020 H1014 0.950 . S
C1020 C1021 1.327 . S
C1021 H1015 0.950 . S
C1021 C1020 1.327 . S
C1021 C1025 1.429 . S
C1022 C1005 1.574 . S
C1022 H1016 0.949 . S
C1022 C1026 1.368 . S
C1023 C1004 1.429 . S
C1023 C1017 1.429 . S
C1023 C1024 1.523 . S
C1024 C1005 1.368 . S
C1024 C1018 1.368 . S
C1024 C1023 1.523 . S
C1025 C1009 1.429 . S
C1025 C1021 1.429 . S
C1025 C1026 1.523 . S
C1026 C1010 1.368 . S
C1026 C1022 1.368 . S
C1026 C1025 1.523 . S
H1027 C1002 0.950 . S
H1028 C1004 0.950 . S
H1029 C1005 0.949 . S
H1030 C1007 0.950 . S
H1031 C1009 0.950 . S
C1032 C1033 1.349 . S
C1032 C1034 1.327 . S
C1032 H1057 0.950 . S
C1033 C1032 1.349 . S
C1033 C1049 1.349 . S
C1034 C1032 1.327 . S
C1034 C1053 1.429 . S
C1034 H1058 0.950 . S
C1035 C1052 1.574 . S
C1035 C1054 1.368 . S
C1035 H1059 0.949 . S
H1036 C1040 0.949 . S
C1037 C1038 1.349 . S
C1037 C1039 1.327 . S
C1037 H1060 0.950 . S
C1038 C1037 1.349 . S
C1038 C1050 1.349 . S
C1039 C1037 1.327 . S
C1039 C1055 1.429 . S
C1039 H1061 0.950 . S
C1040 H1036 0.949 . S
C1040 C1048 1.574 . S
C1040 C1056 1.368 . S
H1041 C1049 0.950 . S
H1042 C1047 0.950 . S
H1043 C1048 0.949 . S
H1044 C1050 0.950 . S
H1045 C1051 0.950 . S
H1046 C1052 0.949 . S
C1047 H1042 0.950 . S
C1047 C1049 1.327 . S
C1047 C1053 1.429 . S
C1048 C1040 1.574 . S
C1048 H1043 0.949 . S
C1048 C1054 1.368 . S
C1049 C1033 1.349 . S
C1049 H1041 0.950 . S
C1049 C1047 1.327 . S
C1050 C1038 1.349 . S
C1050 H1044 0.950 . S
C1050 C1051 1.327 . S
C1051 H1045 0.950 . S
C1051 C1050 1.327 . S
C1051 C1055 1.429 . S
C1052 C1035 1.574 . S
C1052 H1046 0.949 . S
C1052 C1056 1.368 . S
C1053 C1034 1.429 . S
C1053 C1047 1.429 . S
C1053 C1054 1.523 . S
C1054 C1035 1.368 . S
C1054 C1048 1.368 . S
C1054 C1053 1.523 . S
C1055 C1039 1.429 . S
C1055 C1051 1.429 . S
C1055 C1056 1.523 . S
C1056 C1040 1.368 . S
C1056 C1052 1.368 . S
C1056 C1055 1.523 . S
H1057 C1032 0.950 . S
H1058 C1034 0.950 . S
H1059 C1035 0.949 . S
H1060 C1037 0.950 . S
H1061 C1039 0.950 . S
C1062 C1063 1.349 . S
C1062 C1064 1.327 . S
C1062 H1087 0.950 . S
C1063 C1062 1.349 . S
C1063 C1079 1.349 . S
C1064 C1062 1.327 . S
C1064 C1083 1.429 . S
C1064 H1088 0.950 . S
C1065 C1082 1.574 . S
C1065 C1084 1.368 1_455 S
C1065 H1089 0.949 . S
H1066 C1070 0.949 . S
C1067 C1068 1.349 1_455 S
C1067 C1069 1.327 . S
C1067 H1090 0.950 . S
C1068 C1067 1.349 1_655 S
C1068 C1080 1.349 . S
C1069 C1067 1.327 . S
C1069 C1085 1.429 1_455 S
C1069 H1091 0.950 . S
C1070 H1066 0.949 . S
C1070 C1078 1.574 . S
C1070 C1086 1.368 . S
H1071 C1079 0.950 1_455 S
H1072 C1077 0.949 1_455 S
H1073 C1078 0.949 . S
H1074 C1080 0.950 . S
H1075 C1081 0.950 . S
H1076 C1082 0.949 . S
C1077 H1072 0.949 1_655 S
C1077 C1079 1.327 . S
C1077 C1083 1.429 . S
C1078 C1070 1.574 . S
C1078 H1073 0.949 . S
C1078 C1084 1.368 . S
C1079 C1063 1.349 . S
C1079 H1071 0.950 1_655 S
C1079 C1077 1.327 . S
C1080 C1068 1.349 . S
C1080 H1074 0.950 . S
C1080 C1081 1.327 . S
C1081 H1075 0.950 . S
C1081 C1080 1.327 . S
C1081 C1085 1.429 . S
C1082 C1065 1.574 . S
C1082 H1076 0.949 . S
C1082 C1086 1.368 1_455 S
C1083 C1064 1.429 . S
C1083 C1077 1.429 . S
C1083 C1084 1.523 . S
C1084 C1065 1.368 1_655 S
C1084 C1078 1.368 . S
C1084 C1083 1.523 . S
C1085 C1069 1.429 1_655 S
C1085 C1081 1.429 . S
C1085 C1086 1.523 . S
C1086 C1070 1.368 . S
C1086 C1082 1.368 1_655 S
C1086 C1085 1.523 . S
H1087 C1062 0.950 . S
H1088 C1064 0.950 . S
H1089 C1065 0.949 . S
H1090 C1067 0.950 . S
H1091 C1069 0.950 . S
C1092 C1093 1.349 . S
C1092 C1094 1.327 . S
C1092 H1117 0.950 . S
C1093 C1092 1.349 . S
C1093 C1109 1.349 . S
C1094 C1092 1.327 . S
C1094 C1113 1.429 . S
C1094 H1118 0.950 . S
C1095 C1112 1.574 . S
C1095 C1114 1.368 . S
C1095 H1119 0.949 . S
H1096 C1100 0.949 . S
C1097 C1098 1.349 . S
C1097 C1099 1.327 . S
C1097 H1120 0.950 . S
C1098 C1097 1.349 . S
C1098 C1110 1.349 . S
C1099 C1097 1.327 . S
C1099 C1115 1.429 . S
C1099 H1121 0.950 . S
C1100 H1096 0.949 . S
C1100 C1108 1.574 . S
C1100 C1116 1.368 . S
H1101 C1109 0.950 . S
H1102 C1107 0.950 . S
H1103 C1108 0.949 . S
H1104 C1110 0.950 . S
H1105 C1111 0.950 . S
H1106 C1112 0.949 . S
C1107 H1102 0.950 . S
C1107 C1109 1.327 . S
C1107 C1113 1.429 . S
C1108 C1100 1.574 . S
C1108 H1103 0.949 . S
C1108 C1114 1.368 . S
C1109 C1093 1.349 . S
C1109 H1101 0.950 . S
C1109 C1107 1.327 . S
C1110 C1098 1.349 . S
C1110 H1104 0.950 . S
C1110 C1111 1.327 . S
C1111 H1105 0.950 . S
C1111 C1110 1.327 . S
C1111 C1115 1.429 . S
C1112 C1095 1.574 . S
C1112 H1106 0.949 . S
C1112 C1116 1.368 . S
C1113 C1094 1.429 . S
C1113 C1107 1.429 . S
C1113 C1114 1.523 . S
C1114 C1095 1.368 . S
C1114 C1108 1.368 . S
C1114 C1113 1.523 . S
C1115 C1099 1.429 . S
C1115 C1111 1.429 . S
C1115 C1116 1.523 . S
C1116 C1100 1.368 . S
C1116 C1112 1.368 . S
C1116 C1115 1.523 . S
H1117 C1092 0.950 . S
H1118 C1094 0.950 . S
H1119 C1095 0.949 . S
H1120 C1097 0.950 . S
H1121 C1099 0.950 . S
C1122 C1123 1.349 1_565 S
C1122 C1124 1.327 . S
C1122 H1147 0.950 . S
C1123 C1122 1.349 1_545 S
C1123 C1139 1.349 . S
C1124 C1122 1.327 . S
C1124 C1143 1.429 1_565 S
C1124 H1148 0.950 . S
C1125 C1142 1.574 . S
C1125 C1144 1.368 . S
C1125 H1149 0.949 . S
H1126 C1130 0.949 . S
C1127 C1128 1.349 . S
C1127 C1129 1.327 . S
C1127 H1150 0.950 . S
C1128 C1127 1.349 . S
C1128 C1140 1.349 . S
C1129 C1127 1.327 . S
C1129 C1145 1.429 . S
C1129 H1151 0.950 . S
C1130 H1126 0.949 . S
C1130 C1138 1.574 . S
C1130 C1146 1.368 1_565 S
H1131 C1139 0.950 . S
H1132 C1137 0.950 . S
H1133 C1138 0.949 . S
H1134 C1140 0.950 1_565 S
H1135 C1141 0.950 1_565 S
H1136 C1142 0.949 . S
C1137 H1132 0.950 . S
C1137 C1139 1.327 . S
C1137 C1143 1.429 . S
C1138 C1130 1.574 . S
C1138 H1133 0.949 . S
C1138 C1144 1.368 1_565 S
C1139 C1123 1.349 . S
C1139 H1131 0.950 . S
C1139 C1137 1.327 . S
C1140 C1128 1.349 . S
C1140 H1134 0.950 1_545 S
C1140 C1141 1.327 . S
C1141 H1135 0.950 1_545 S
C1141 C1140 1.327 . S
C1141 C1145 1.429 . S
C1142 C1125 1.574 . S
C1142 H1136 0.949 . S
C1142 C1146 1.368 . S
C1143 C1124 1.429 1_545 S
C1143 C1137 1.429 . S
C1143 C1144 1.523 . S
C1144 C1125 1.368 . S
C1144 C1138 1.368 1_545 S
C1144 C1143 1.523 . S
C1145 C1129 1.429 . S
C1145 C1141 1.429 . S
C1145 C1146 1.523 . S
C1146 C1130 1.368 1_545 S
C1146 C1142 1.368 . S
C1146 C1145 1.523 . S
H1147 C1122 0.950 . S
H1148 C1124 0.950 . S
H1149 C1125 0.949 . S
H1150 C1127 0.950 . S
H1151 C1129 0.950 . S
C1152 C1153 1.349 . S
C1152 C1154 1.327 . S
C1152 H1177 0.950 . S
C1153 C1152 1.349 . S
C1153 C1169 1.349 . S
C1154 C1152 1.327 . S
C1154 C1173 1.429 . S
C1154 H1178 0.950 . S
C1155 C1172 1.574 . S
C1155 C1174 1.368 . S
C1155 H1179 0.949 . S
H1156 C1160 0.949 . S
C1157 C1158 1.349 . S
C1157 C1159 1.327 . S
C1157 H1180 0.950 . S
C1158 C1157 1.349 . S
C1158 C1170 1.349 . S
C1159 C1157 1.327 . S
C1159 C1175 1.429 . S
C1159 H1181 0.950 . S
C1160 H1156 0.949 . S
C1160 C1168 1.574 . S
C1160 C1176 1.368 . S
H1161 C1169 0.950 . S
H1162 C1167 0.950 . S
H1163 C1168 0.949 . S
H1164 C1170 0.950 . S
H1165 C1171 0.950 . S
H1166 C1172 0.949 . S
C1167 H1162 0.950 . S
C1167 C1169 1.327 . S
C1167 C1173 1.429 . S
C1168 C1160 1.574 . S
C1168 H1163 0.949 . S
C1168 C1174 1.368 . S
C1169 C1153 1.349 . S
C1169 H1161 0.950 . S
C1169 C1167 1.327 . S
C1170 C1158 1.349 . S
C1170 H1164 0.950 . S
C1170 C1171 1.327 . S
C1171 H1165 0.950 . S
C1171 C1170 1.327 . S
C1171 C1175 1.429 . S
C1172 C1155 1.574 . S
C1172 H1166 0.949 . S
C1172 C1176 1.368 . S
C1173 C1154 1.429 . S
C1173 C1167 1.429 . S
C1173 C1174 1.523 . S
C1174 C1155 1.368 . S
C1174 C1168 1.368 . S
C1174 C1173 1.523 . S
C1175 C1159 1.429 . S
C1175 C1171 1.429 . S
C1175 C1176 1.523 . S
C1176 C1160 1.368 . S
C1176 C1172 1.368 . S
C1176 C1175 1.523 . S
H1177 C1152 0.950 . S
H1178 C1154 0.950 . S
H1179 C1155 0.949 . S
H1180 C1157 0.950 . S
H1181 C1159 0.950 . S
C1182 C1183 1.349 . S
C1182 C1184 1.327 . S
C1182 H1207 0.950 . S
C1183 C1182 1.349 . S
C1183 C1199 1.349 1_545 S
C1184 C1182 1.327 . S
C1184 C1203 1.443 . S
C1184 H1208 0.950 . S
C1185 C1202 1.574 . S
C1185 C1204 1.375 . S
C1185 H1209 0.949 . S
H1186 C1190 0.949 . S
C1187 C1188 1.349 . S
C1187 C1189 1.327 . S
C1187 H1210 0.950 . S
C1188 C1187 1.349 . S
C1188 C1200 1.349 1_565 S
C1189 C1187 1.327 . S
C1189 C1205 1.429 . S
C1189 H1211 0.950 . S
C1190 H1186 0.949 . S
C1190 C1198 1.574 . S
C1190 C1206 1.368 1_545 S
H1191 C1199 0.950 . S
H1192 C1197 0.950 . S
H1193 C1198 0.949 . S
H1194 C1200 0.950 . S
H1195 C1201 0.950 . S
H1196 C1202 0.949 . S
C1197 H1192 0.950 . S
C1197 C1199 1.327 . S
C1197 C1203 1.404 1_565 S
C1198 C1190 1.574 . S
C1198 H1193 0.949 . S
C1198 C1204 1.358 1_545 S
C1199 C1183 1.349 1_565 S
C1199 H1191 0.950 . S
C1199 C1197 1.327 . S
C1200 C1188 1.349 1_545 S
C1200 H1194 0.950 . S
C1200 C1201 1.327 . S
C1201 H1195 0.950 . S
C1201 C1200 1.327 . S
C1201 C1205 1.429 1_545 S
C1202 C1185 1.574 . S
C1202 H1196 0.949 . S
C1202 C1206 1.368 . S
C1203 C1184 1.443 . S
C1203 C1197 1.404 1_545 S
C1203 C1204 1.536 1_545 S
C1204 C1185 1.375 . S
C1204 C1198 1.358 1_565 S
C1204 C1203 1.536 1_565 S
C1205 C1189 1.429 . S
C1205 C1201 1.429 1_565 S
C1205 C1206 1.523 . S
C1206 C1190 1.368 1_565 S
C1206 C1202 1.368 . S
C1206 C1205 1.523 . S
H1207 C1182 0.950 . S
H1208 C1184 0.950 . S
H1209 C1185 0.949 . S
H1210 C1187 0.950 . S
H1211 C1189 0.950 . S
C1212 C1213 1.349 1_655 S
C1212 C1214 1.327 . S
C1212 H1237 0.950 . S
C1213 C1212 1.349 1_455 S
C1213 C1229 1.349 . S
C1214 C1212 1.327 . S
C1214 C1233 1.429 1_655 S
C1214 H1238 0.950 . S
C1215 C1232 1.574 . S
C1215 C1234 1.368 . S
C1215 H1239 0.949 . S
H1216 C1220 0.949 . S
C1217 C1218 1.349 1_455 S
C1217 C1219 1.327 . S
C1217 H1240 0.950 . S
C1218 C1217 1.349 1_655 S
C1218 C1230 1.349 . S
C1219 C1217 1.327 . S
C1219 C1235 1.420 1_455 S
C1219 H1241 0.950 . S
C1220 H1216 0.949 . S
C1220 C1228 1.574 . S
C1220 C1236 1.367 1_655 S
H1221 C1229 0.950 . S
H1222 C1227 0.950 . S
H1223 C1228 0.949 . S
H1224 C1230 0.950 . S
H1225 C1231 0.950 . S
H1226 C1232 0.949 . S
C1227 H1222 0.950 . S
C1227 C1229 1.327 . S
C1227 C1233 1.429 . S
C1228 C1220 1.574 . S
C1228 H1223 0.949 . S
C1228 C1234 1.368 1_655 S
C1229 C1213 1.349 . S
C1229 H1221 0.950 . S
C1229 C1227 1.327 . S
C1230 C1218 1.349 . S
C1230 H1224 0.950 . S
C1230 C1231 1.327 . S
C1231 H1225 0.950 . S
C1231 C1230 1.327 . S
C1231 C1235 1.452 . S
C1232 C1215 1.574 . S
C1232 H1226 0.949 . S
C1232 C1236 1.371 . S
C1233 C1214 1.429 1_455 S
C1233 C1227 1.429 . S
C1233 C1234 1.523 . S
C1234 C1215 1.368 . S
C1234 C1228 1.368 1_455 S
C1234 C1233 1.523 . S
C1235 C1219 1.420 1_655 S
C1235 C1231 1.452 . S
C1235 C1236 1.509 1_655 S
C1236 C1220 1.367 1_455 S
C1236 C1232 1.371 . S
C1236 C1235 1.509 1_455 S
H1237 C1212 0.950 . S
H1238 C1214 0.950 . S
H1239 C1215 0.949 . S
H1240 C1217 0.950 . S
H1241 C1219 0.950 . S
C1242 C1243 1.349 . S
C1242 C1244 1.327 . S
C1242 H1267 0.950 . S
C1243 C1242 1.349 . S
C1243 C1259 1.349 . S
C1244 C1242 1.327 . S
C1244 C1263 1.429 . S
C1244 H1268 0.950 . S
C1245 C1262 1.574 . S
C1245 C1264 1.368 . S
C1245 H1269 0.949 . S
H1246 C1250 0.949 . S
C1247 C1248 1.349 . S
C1247 C1249 1.327 . S
C1247 H1270 0.950 . S
C1248 C1247 1.349 . S
C1248 C1260 1.349 . S
C1249 C1247 1.327 . S
C1249 C1265 1.429 . S
C1249 H1271 0.950 . S
C1250 H1246 0.949 . S
C1250 C1258 1.574 . S
C1250 C1266 1.368 . S
H1251 C1259 0.950 . S
H1252 C1257 0.950 . S
H1253 C1258 0.949 . S
H1254 C1260 0.950 . S
H1255 C1261 0.950 . S
H1256 C1262 0.949 . S
C1257 H1252 0.950 . S
C1257 C1259 1.327 . S
C1257 C1263 1.429 . S
C1258 C1250 1.574 . S
C1258 H1253 0.949 . S
C1258 C1264 1.368 . S
C1259 C1243 1.349 . S
C1259 H1251 0.950 . S
C1259 C1257 1.327 . S
C1260 C1248 1.349 . S
C1260 H1254 0.950 . S
C1260 C1261 1.327 . S
C1261 H1255 0.950 . S
C1261 C1260 1.327 . S
C1261 C1265 1.429 . S
C1262 C1245 1.574 . S
C1262 H1256 0.949 . S
C1262 C1266 1.368 . S
C1263 C1244 1.429 . S
C1263 C1257 1.429 . S
C1263 C1264 1.523 . S
C1264 C1245 1.368 . S
C1264 C1258 1.368 . S
C1264 C1263 1.523 . S
C1265 C1249 1.429 . S
C1265 C1261 1.429 . S
C1265 C1266 1.523 . S
C1266 C1250 1.368 . S
C1266 C1262 1.368 . S
C1266 C1265 1.523 . S
H1267 C1242 0.950 . S
H1268 C1244 0.950 . S
H1269 C1245 0.949 . S
H1270 C1247 0.950 . S
H1271 C1249 0.950 . S
C1272 C1273 1.349 1_565 S
C1272 C1274 1.327 . S
C1272 H1297 0.950 . S
C1273 C1272 1.349 1_545 S
C1273 C1289 1.349 . S
C1274 C1272 1.327 . S
C1274 C1293 1.429 1_565 S
C1274 H1298 0.950 . S
C1275 C1292 1.574 . S
C1275 C1294 1.368 . S
C1275 H1299 0.949 . S
H1276 C1280 0.949 . S
C1277 C1278 1.349 1_545 S
C1277 C1279 1.327 . S
C1277 H1300 0.950 . S
C1278 C1277 1.349 1_565 S
C1278 C1290 1.349 . S
C1279 C1277 1.327 . S
C1279 C1295 1.400 1_545 S
C1279 H1301 0.950 . S
C1280 H1276 0.949 . S
C1280 C1288 1.574 . S
C1280 C1296 1.363 1_565 S
H1281 C1289 0.950 . S
H1282 C1287 0.950 . S
H1283 C1288 0.949 . S
H1284 C1290 0.950 . S
H1285 C1291 0.950 . S
H1286 C1292 0.949 . S
C1287 H1282 0.950 . S
C1287 C1289 1.327 . S
C1287 C1293 1.429 . S
C1288 C1280 1.574 . S
C1288 H1283 0.949 . S
C1288 C1294 1.368 1_565 S
C1289 C1273 1.349 . S
C1289 H1281 0.950 . S
C1289 C1287 1.327 . S
C1290 C1278 1.349 . S
C1290 H1284 0.950 . S
C1290 C1291 1.327 . S
C1291 H1285 0.950 . S
C1291 C1290 1.327 . S
C1291 C1295 1.445 . S
C1292 C1275 1.574 . S
C1292 H1286 0.949 . S
C1292 C1296 1.372 . S
C1293 C1274 1.429 1_545 S
C1293 C1287 1.429 . S
C1293 C1294 1.523 . S
C1294 C1275 1.368 . S
C1294 C1288 1.368 1_545 S
C1294 C1293 1.523 . S
C1295 C1279 1.400 1_565 S
C1295 C1291 1.445 . S
C1295 C1296 1.536 1_565 S
C1296 C1280 1.363 1_545 S
C1296 C1292 1.372 . S
C1296 C1295 1.536 1_545 S
H1297 C1272 0.950 . S
H1298 C1274 0.950 . S
H1299 C1275 0.949 . S
H1300 C1277 0.950 . S
H1301 C1279 0.950 . S
C1302 C1303 1.349 . S
C1302 C1304 1.327 . S
C1302 H1327 0.950 . S
C1303 C1302 1.349 . S
C1303 C1319 1.349 1_655 S
C1304 C1302 1.327 . S
C1304 C1323 1.429 . S
C1304 H1328 0.950 . S
C1305 C1322 1.574 . S
C1305 C1324 1.368 1_455 S
C1305 H1329 0.949 . S
H1306 C1310 0.949 . S
C1307 C1308 1.349 . S
C1307 C1309 1.327 . S
C1307 H1330 0.950 . S
C1308 C1307 1.349 . S
C1308 C1320 1.349 1_455 S
C1309 C1307 1.327 . S
C1309 C1325 1.437 . S
C1309 H1331 0.950 . S
C1310 H1306 0.949 . S
C1310 C1318 1.574 . S
C1310 C1326 1.369 . S
H1311 C1319 0.950 . S
H1312 C1317 0.950 . S
H1313 C1318 0.949 . S
H1314 C1320 0.950 . S
H1315 C1321 0.950 . S
H1316 C1322 0.949 . S
C1317 H1312 0.950 . S
C1317 C1319 1.327 . S
C1317 C1323 1.429 1_455 S
C1318 C1310 1.574 . S
C1318 H1313 0.949 . S
C1318 C1324 1.368 . S
C1319 C1303 1.349 1_455 S
C1319 H1311 0.950 . S
C1319 C1317 1.327 . S
C1320 C1308 1.349 1_655 S
C1320 H1314 0.950 . S
C1320 C1321 1.327 . S
C1321 H1315 0.950 . S
C1321 C1320 1.327 . S
C1321 C1325 1.435 1_655 S
C1322 C1305 1.574 . S
C1322 H1316 0.949 . S
C1322 C1326 1.369 1_455 S
C1323 C1304 1.429 . S
C1323 C1317 1.429 1_655 S
C1323 C1324 1.523 . S
C1324 C1305 1.368 1_655 S
C1324 C1318 1.368 . S
C1324 C1323 1.523 . S
C1325 C1309 1.437 . S
C1325 C1321 1.435 1_455 S
C1325 C1326 1.509 1_455 S
C1326 C1310 1.369 . S
C1326 C1322 1.369 1_655 S
C1326 C1325 1.509 1_655 S
H1327 C1302 0.950 . S
H1328 C1304 0.950 . S
H1329 C1305 0.949 . S
H1330 C1307 0.950 . S
H1331 C1309 0.950 . S
C1332 C1333 1.349 . S
C1332 C1334 1.327 . S
C1332 H1357 0.950 . S
C1333 C1332 1.349 . S
C1333 C1349 1.349 . S
C1334 C1332 1.327 . S
C1334 C1353 1.429 . S
C1334 H1358 0.950 . S
C1335 C1352 1.574 . S
C1335 C1354 1.368 . S
C1335 H1359 0.949 . S
H1336 C1340 0.949 . S
C1337 C1338 1.349 . S
C1337 C1339 1.327 . S
C1337 H1360 0.950 . S
C1338 C1337 1.349 . S
C1338 C1350 1.349 . S
C1339 C1337 1.327 . S
C1339 C1355 1.429 . S
C1339 H1361 0.950 . S
C1340 H1336 0.949 . S
C1340 C1348 1.574 . S
C1340 C1356 1.368 . S
H1341 C1349 0.950 . S
H1342 C1347 0.950 . S
H1343 C1348 0.949 . S
H1344 C1350 0.950 . S
H1345 C1351 0.950 . S
H1346 C1352 0.949 . S
C1347 H1342 0.950 . S
C1347 C1349 1.327 . S
C1347 C1353 1.429 . S
C1348 C1340 1.574 . S
C1348 H1343 0.949 . S
C1348 C1354 1.368 . S
C1349 C1333 1.349 . S
C1349 H1341 0.950 . S
C1349 C1347 1.327 . S
C1350 C1338 1.349 . S
C1350 H1344 0.950 . S
C1350 C1351 1.327 . S
C1351 H1345 0.950 . S
C1351 C1350 1.327 . S
C1351 C1355 1.429 . S
C1352 C1335 1.574 . S
C1352 H1346 0.949 . S
C1352 C1356 1.368 . S
C1353 C1334 1.429 . S
C1353 C1347 1.429 . S
C1353 C1354 1.523 . S
C1354 C1335 1.368 . S
C1354 C1348 1.368 . S
C1354 C1353 1.523 . S
C1355 C1339 1.429 . S
C1355 C1351 1.429 . S
C1355 C1356 1.523 . S
C1356 C1340 1.368 . S
C1356 C1352 1.368 . S
C1356 C1355 1.523 . S
H1357 C1332 0.950 . S
H1358 C1334 0.950 . S
H1359 C1335 0.949 . S
H1360 C1337 0.950 . S
H1361 C1339 0.950 . S
C1362 C1363 1.349 . S
C1362 C1364 1.327 . S
C1362 H1387 0.950 . S
C1363 C1362 1.349 . S
C1363 C1379 1.349 . S
C1364 C1362 1.327 . S
C1364 C1383 1.429 . S
C1364 H1388 0.950 . S
C1365 C1382 1.574 . S
C1365 C1384 1.368 . S
C1365 H1389 0.949 . S
H1366 C1370 0.949 . S
C1367 C1368 1.349 . S
C1367 C1369 1.327 . S
C1367 H1390 0.950 . S
C1368 C1367 1.349 . S
C1368 C1380 1.349 . S
C1369 C1367 1.327 . S
C1369 C1385 1.429 . S
C1369 H1391 0.950 . S
C1370 H1366 0.949 . S
C1370 C1378 1.574 . S
C1370 C1386 1.368 . S
H1371 C1379 0.950 . S
H1372 C1377 0.950 . S
H1373 C1378 0.949 . S
H1374 C1380 0.950 . S
H1375 C1381 0.950 . S
H1376 C1382 0.949 . S
C1377 H1372 0.950 . S
C1377 C1379 1.327 . S
C1377 C1383 1.429 . S
C1378 C1370 1.574 . S
C1378 H1373 0.949 . S
C1378 C1384 1.368 . S
C1379 C1363 1.349 . S
C1379 H1371 0.950 . S
C1379 C1377 1.327 . S
C1380 C1368 1.349 . S
C1380 H1374 0.950 . S
C1380 C1381 1.327 . S
C1381 H1375 0.950 . S
C1381 C1380 1.327 . S
C1381 C1385 1.429 . S
C1382 C1365 1.574 . S
C1382 H1376 0.949 . S
C1382 C1386 1.368 . S
C1383 C1364 1.429 . S
C1383 C1377 1.429 . S
C1383 C1384 1.523 . S
C1384 C1365 1.368 . S
C1384 C1378 1.368 . S
C1384 C1383 1.523 . S
C1385 C1369 1.429 . S
C1385 C1381 1.429 . S
C1385 C1386 1.523 . S
C1386 C1370 1.368 . S
C1386 C1382 1.368 . S
C1386 C1385 1.523 . S
H1387 C1362 0.950 . S
H1388 C1364 0.950 . S
H1389 C1365 0.949 . S
H1390 C1367 0.950 . S
H1391 C1369 0.950 . S
C1392 C1393 1.349 . S
C1392 C1394 1.327 . S
C1392 H1417 0.950 . S
C1393 C1392 1.349 . S
C1393 C1409 1.349 . S
C1394 C1392 1.327 . S
C1394 C1413 1.429 . S
C1394 H1418 0.950 . S
C1395 C1412 1.574 . S
C1395 C1414 1.368 . S
C1395 H1419 0.949 . S
H1396 C1400 0.949 . S
C1397 C1398 1.349 . S
C1397 C1399 1.327 . S
C1397 H1420 0.950 . S
C1398 C1397 1.349 . S
C1398 C1410 1.349 . S
C1399 C1397 1.327 . S
C1399 C1415 1.429 . S
C1399 H1421 0.950 . S
C1400 H1396 0.949 . S
C1400 C1408 1.574 . S
C1400 C1416 1.368 . S
H1401 C1409 0.950 . S
H1402 C1407 0.950 . S
H1403 C1408 0.949 . S
H1404 C1410 0.950 . S
H1405 C1411 0.950 . S
H1406 C1412 0.949 . S
C1407 H1402 0.950 . S
C1407 C1409 1.327 . S
C1407 C1413 1.429 . S
C1408 C1400 1.574 . S
C1408 H1403 0.949 . S
C1408 C1414 1.368 . S
C1409 C1393 1.349 . S
C1409 H1401 0.950 . S
C1409 C1407 1.327 . S
C1410 C1398 1.349 . S
C1410 H1404 0.950 . S
C1410 C1411 1.327 . S
C1411 H1405 0.950 . S
C1411 C1410 1.327 . S
C1411 C1415 1.429 . S
C1412 C1395 1.574 . S
C1412 H1406 0.949 . S
C1412 C1416 1.368 . S
C1413 C1394 1.429 . S
C1413 C1407 1.429 . S
C1413 C1414 1.523 . S
C1414 C1395 1.368 . S
C1414 C1408 1.368 . S
C1414 C1413 1.523 . S
C1415 C1399 1.429 . S
C1415 C1411 1.429 . S
C1415 C1416 1.523 . S
C1416 C1400 1.368 . S
C1416 C1412 1.368 . S
C1416 C1415 1.523 . S
H1417 C1392 0.950 . S
H1418 C1394 0.950 . S
H1419 C1395 0.949 . S
H1420 C1397 0.950 . S
H1421 C1399 0.950 . S
C1422 C1423 1.349 . S
C1422 C1424 1.327 . S
C1422 H1447 0.950 . S
C1423 C1422 1.349 . S
C1423 C1439 1.349 . S
C1424 C1422 1.327 . S
C1424 C1443 1.429 . S
C1424 H1448 0.950 . S
C1425 C1442 1.574 . S
C1425 C1444 1.368 . S
C1425 H1449 0.949 . S
H1426 C1430 0.949 . S
C1427 C1428 1.349 . S
C1427 C1429 1.327 . S
C1427 H1450 0.950 . S
C1428 C1427 1.349 . S
C1428 C1440 1.349 . S
C1429 C1427 1.327 . S
C1429 C1445 1.429 . S
C1429 H1451 0.950 . S
C1430 H1426 0.949 . S
C1430 C1438 1.574 . S
C1430 C1446 1.368 . S
H1431 C1439 0.950 . S
H1432 C1437 0.950 . S
H1433 C1438 0.949 . S
H1434 C1440 0.950 . S
H1435 C1441 0.950 . S
H1436 C1442 0.949 . S
C1437 H1432 0.950 . S
C1437 C1439 1.327 . S
C1437 C1443 1.429 . S
C1438 C1430 1.574 . S
C1438 H1433 0.949 . S
C1438 C1444 1.368 . S
C1439 C1423 1.349 . S
C1439 H1431 0.950 . S
C1439 C1437 1.327 . S
C1440 C1428 1.349 . S
C1440 H1434 0.950 . S
C1440 C1441 1.327 . S
C1441 H1435 0.950 . S
C1441 C1440 1.327 . S
C1441 C1445 1.429 . S
C1442 C1425 1.574 . S
C1442 H1436 0.949 . S
C1442 C1446 1.368 . S
C1443 C1424 1.429 . S
C1443 C1437 1.429 . S
C1443 C1444 1.523 . S
C1444 C1425 1.368 . S
C1444 C1438 1.368 . S
C1444 C1443 1.523 . S
C1445 C1429 1.429 . S
C1445 C1441 1.429 . S
C1445 C1446 1.523 . S
C1446 C1430 1.368 . S
C1446 C1442 1.368 . S
C1446 C1445 1.523 . S
H1447 C1422 0.950 . S
H1448 C1424 0.950 . S
H1449 C1425 0.949 . S
H1450 C1427 0.950 . S
H1451 C1429 0.950 . S
C1452 C1453 1.349 . S
C1452 C1454 1.327 . S
C1452 H1477 0.950 . S
C1453 C1452 1.349 . S
C1453 C1469 1.349 . S
C1454 C1452 1.327 . S
C1454 C1473 1.429 . S
C1454 H1478 0.950 . S
C1455 C1472 1.574 . S
C1455 C1474 1.368 . S
C1455 H1479 0.949 . S
H1456 C1460 0.949 . S
C1457 C1458 1.349 . S
C1457 C1459 1.327 . S
C1457 H1480 0.950 . S
C1458 C1457 1.349 . S
C1458 C1470 1.349 . S
C1459 C1457 1.327 . S
C1459 C1475 1.429 . S
C1459 H1481 0.950 . S
C1460 H1456 0.949 . S
C1460 C1468 1.574 . S
C1460 C1476 1.368 . S
H1461 C1469 0.950 . S
H1462 C1467 0.950 . S
H1463 C1468 0.949 . S
H1464 C1470 0.950 . S
H1465 C1471 0.950 . S
H1466 C1472 0.949 . S
C1467 H1462 0.950 . S
C1467 C1469 1.327 . S
C1467 C1473 1.429 . S
C1468 C1460 1.574 . S
C1468 H1463 0.949 . S
C1468 C1474 1.368 . S
C1469 C1453 1.349 . S
C1469 H1461 0.950 . S
C1469 C1467 1.327 . S
C1470 C1458 1.349 . S
C1470 H1464 0.950 . S
C1470 C1471 1.327 . S
C1471 H1465 0.950 . S
C1471 C1470 1.327 . S
C1471 C1475 1.429 . S
C1472 C1455 1.574 . S
C1472 H1466 0.949 . S
C1472 C1476 1.368 . S
C1473 C1454 1.429 . S
C1473 C1467 1.429 . S
C1473 C1474 1.523 . S
C1474 C1455 1.368 . S
C1474 C1468 1.368 . S
C1474 C1473 1.523 . S
C1475 C1459 1.429 . S
C1475 C1471 1.429 . S
C1475 C1476 1.523 . S
C1476 C1460 1.368 . S
C1476 C1472 1.368 . S
C1476 C1475 1.523 . S
H1477 C1452 0.950 . S
H1478 C1454 0.950 . S
H1479 C1455 0.949 . S
H1480 C1457 0.950 . S
H1481 C1459 0.950 . S
C1482 C1483 1.349 . S
C1482 C1484 1.327 . S
C1482 H1507 0.950 . S
C1483 C1482 1.349 . S
C1483 C1499 1.349 . S
C1484 C1482 1.327 . S
C1484 C1503 1.429 . S
C1484 H1508 0.950 . S
C1485 C1502 1.574 . S
C1485 C1504 1.368 . S
C1485 H1509 0.949 . S
H1486 C1490 0.949 . S
C1487 C1488 1.349 . S
C1487 C1489 1.327 . S
C1487 H1510 0.950 . S
C1488 C1487 1.349 . S
C1488 C1500 1.349 . S
C1489 C1487 1.327 . S
C1489 C1505 1.429 . S
C1489 H1511 0.950 . S
C1490 H1486 0.949 . S
C1490 C1498 1.574 . S
C1490 C1506 1.368 . S
H1491 C1499 0.950 . S
H1492 C1497 0.950 . S
H1493 C1498 0.949 . S
H1494 C1500 0.950 . S
H1495 C1501 0.950 . S
H1496 C1502 0.949 . S
C1497 H1492 0.950 . S
C1497 C1499 1.327 . S
C1497 C1503 1.429 . S
C1498 C1490 1.574 . S
C1498 H1493 0.949 . S
C1498 C1504 1.368 . S
C1499 C1483 1.349 . S
C1499 H1491 0.950 . S
C1499 C1497 1.327 . S
C1500 C1488 1.349 . S
C1500 H1494 0.950 . S
C1500 C1501 1.327 . S
C1501 H1495 0.950 . S
C1501 C1500 1.327 . S
C1501 C1505 1.429 . S
C1502 C1485 1.574 . S
C1502 H1496 0.949 . S
C1502 C1506 1.368 . S
C1503 C1484 1.429 . S
C1503 C1497 1.429 . S
C1503 C1504 1.523 . S
C1504 C1485 1.368 . S
C1504 C1498 1.368 . S
C1504 C1503 1.523 . S
C1505 C1489 1.429 . S
C1505 C1501 1.429 . S
C1505 C1506 1.523 . S
C1506 C1490 1.368 . S
C1506 C1502 1.368 . S
C1506 C1505 1.523 . S
H1507 C1482 0.950 . S
H1508 C1484 0.950 . S
H1509 C1485 0.949 . S
H1510 C1487 0.950 . S
H1511 C1489 0.950 . S
C1512 C1513 1.349 . S
C1512 C1514 1.327 . S
C1512 H1537 0.950 . S
C1513 C1512 1.349 . S
C1513 C1529 1.349 . S
C1514 C1512 1.327 . S
C1514 C1533 1.429 . S
C1514 H1538 0.950 . S
C1515 C1532 1.574 . S
C1515 C1534 1.368 . S
C1515 H1539 0.949 . S
H1516 C1520 0.949 . S
C1517 C1518 1.349 . S
C1517 C1519 1.327 . S
C1517 H1540 0.950 . S
C1518 C1517 1.349 . S
C1518 C1530 1.349 . S
C1519 C1517 1.327 . S
C1519 C1535 1.429 . S
C1519 H1541 0.950 . S
C1520 H1516 0.949 . S
C1520 C1528 1.574 . S
C1520 C1536 1.368 . S
H1521 C1529 0.950 . S
H1522 C1527 0.950 . S
H1523 C1528 0.949 . S
H1524 C1530 0.950 . S
H1525 C1531 0.950 . S
H1526 C1532 0.949 . S
C1527 H1522 0.950 . S
C1527 C1529 1.327 . S
C1527 C1533 1.429 . S
C1528 C1520 1.574 . S
C1528 H1523 0.949 . S
C1528 C1534 1.368 . S
C1529 C1513 1.349 . S
C1529 H1521 0.950 . S
C1529 C1527 1.327 . S
C1530 C1518 1.349 . S
C1530 H1524 0.950 . S
C1530 C1531 1.327 . S
C1531 H1525 0.950 . S
C1531 C1530 1.327 . S
C1531 C1535 1.429 . S
C1532 C1515 1.574 . S
C1532 H1526 0.949 . S
C1532 C1536 1.368 . S
C1533 C1514 1.429 . S
C1533 C1527 1.429 . S
C1533 C1534 1.523 . S
C1534 C1515 1.368 . S
C1534 C1528 1.368 . S
C1534 C1533 1.523 . S
C1535 C1519 1.429 . S
C1535 C1531 1.429 . S
C1535 C1536 1.523 . S
C1536 C1520 1.368 . S
C1536 C1532 1.368 . S
C1536 C1535 1.523 . S
H1537 C1512 0.950 . S
H1538 C1514 0.950 . S
H1539 C1515 0.949 . S
H1540 C1517 0.950 . S
H1541 C1519 0.950 . S
C1542 C1543 1.349 . S
C1542 C1544 1.327 . S
C1542 H1567 0.950 . S
C1543 C1542 1.349 . S
C1543 C1559 1.349 . S
C1544 C1542 1.327 . S
C1544 C1563 1.429 . S
C1544 H1568 0.950 . S
C1545 C1562 1.574 . S
C1545 C1564 1.368 . S
C1545 H1569 0.949 . S
H1546 C1550 0.949 . S
C1547 C1548 1.349 . S
C1547 C1549 1.327 . S
C1547 H1570 0.950 . S
C1548 C1547 1.349 . S
C1548 C1560 1.349 . S
C1549 C1547 1.327 . S
C1549 C1565 1.429 . S
C1549 H1571 0.950 . S
C1550 H1546 0.949 . S
C1550 C1558 1.574 . S
C1550 C1566 1.368 . S
H1551 C1559 0.950 . S
H1552 C1557 0.950 . S
H1553 C1558 0.949 . S
H1554 C1560 0.950 . S
H1555 C1561 0.950 . S
H1556 C1562 0.949 . S
C1557 H1552 0.950 . S
C1557 C1559 1.327 . S
C1557 C1563 1.429 . S
C1558 C1550 1.574 . S
C1558 H1553 0.949 . S
C1558 C1564 1.368 . S
C1559 C1543 1.349 . S
C1559 H1551 0.950 . S
C1559 C1557 1.327 . S
C1560 C1548 1.349 . S
C1560 H1554 0.950 . S
C1560 C1561 1.327 . S
C1561 H1555 0.950 . S
C1561 C1560 1.327 . S
C1561 C1565 1.429 . S
C1562 C1545 1.574 . S
C1562 H1556 0.949 . S
C1562 C1566 1.368 . S
C1563 C1544 1.429 . S
C1563 C1557 1.429 . S
C1563 C1564 1.523 . S
C1564 C1545 1.368 . S
C1564 C1558 1.368 . S
C1564 C1563 1.523 . S
C1565 C1549 1.429 . S
C1565 C1561 1.429 . S
C1565 C1566 1.523 . S
C1566 C1550 1.368 . S
C1566 C1562 1.368 . S
C1566 C1565 1.523 . S
H1567 C1542 0.950 . S
H1568 C1544 0.950 . S
H1569 C1545 0.949 . S
H1570 C1547 0.950 . S
H1571 C1549 0.950 . S
C1572 C1573 1.349 . S
C1572 C1574 1.327 . S
C1572 H1597 0.950 . S
C1573 C1572 1.349 . S
C1573 C1589 1.349 . S
C1574 C1572 1.327 . S
C1574 C1593 1.429 . S
C1574 H1598 0.950 . S
C1575 C1592 1.574 . S
C1575 C1594 1.368 . S
C1575 H1599 0.949 . S
H1576 C1580 0.949 . S
C1577 C1578 1.349 . S
C1577 C1579 1.327 . S
C1577 H1600 0.950 . S
C1578 C1577 1.349 . S
C1578 C1590 1.349 . S
C1579 C1577 1.327 . S
C1579 C1595 1.429 . S
C1579 H1601 0.950 . S
C1580 H1576 0.949 . S
C1580 C1588 1.574 . S
C1580 C1596 1.368 . S
H1581 C1589 0.950 . S
H1582 C1587 0.950 . S
H1583 C1588 0.949 . S
H1584 C1590 0.950 . S
H1585 C1591 0.950 . S
H1586 C1592 0.949 . S
C1587 H1582 0.950 . S
C1587 C1589 1.327 . S
C1587 C1593 1.429 . S
C1588 C1580 1.574 . S
C1588 H1583 0.949 . S
C1588 C1594 1.368 . S
C1589 C1573 1.349 . S
C1589 H1581 0.950 . S
C1589 C1587 1.327 . S
C1590 C1578 1.349 . S
C1590 H1584 0.950 . S
C1590 C1591 1.327 . S
C1591 H1585 0.950 . S
C1591 C1590 1.327 . S
C1591 C1595 1.429 . S
C1592 C1575 1.574 . S
C1592 H1586 0.949 . S
C1592 C1596 1.368 . S
C1593 C1574 1.429 . S
C1593 C1587 1.429 . S
C1593 C1594 1.523 . S
C1594 C1575 1.368 . S
C1594 C1588 1.368 . S
C1594 C1593 1.523 . S
C1595 C1579 1.429 . S
C1595 C1591 1.429 . S
C1595 C1596 1.523 . S
C1596 C1580 1.368 . S
C1596 C1592 1.368 . S
C1596 C1595 1.523 . S
H1597 C1572 0.950 . S
H1598 C1574 0.950 . S
H1599 C1575 0.949 . S
H1600 C1577 0.950 . S
H1601 C1579 0.950 . S
C1602 C1603 1.349 . S
C1602 C1604 1.327 . S
C1602 H1627 0.950 . S
C1603 C1602 1.349 . S
C1603 C1619 1.349 . S
C1604 C1602 1.327 . S
C1604 C1623 1.429 . S
C1604 H1628 0.950 . S
C1605 C1622 1.574 . S
C1605 C1624 1.368 . S
C1605 H1629 0.949 . S
H1606 C1610 0.949 . S
C1607 C1608 1.349 . S
C1607 C1609 1.327 . S
C1607 H1630 0.950 . S
C1608 C1607 1.349 . S
C1608 C1620 1.349 . S
C1609 C1607 1.327 . S
C1609 C1625 1.429 . S
C1609 H1631 0.950 . S
C1610 H1606 0.949 . S
C1610 C1618 1.574 . S
C1610 C1626 1.368 . S
H1611 C1619 0.950 . S
H1612 C1617 0.950 . S
H1613 C1618 0.949 . S
H1614 C1620 0.950 . S
H1615 C1621 0.950 . S
H1616 C1622 0.949 . S
C1617 H1612 0.950 . S
C1617 C1619 1.327 . S
C1617 C1623 1.429 . S
C1618 C1610 1.574 . S
C1618 H1613 0.949 . S
C1618 C1624 1.368 . S
C1619 C1603 1.349 . S
C1619 H1611 0.950 . S
C1619 C1617 1.327 . S
C1620 C1608 1.349 . S
C1620 H1614 0.950 . S
C1620 C1621 1.327 . S
C1621 H1615 0.950 . S
C1621 C1620 1.327 . S
C1621 C1625 1.429 . S
C1622 C1605 1.574 . S
C1622 H1616 0.949 . S
C1622 C1626 1.368 . S
C1623 C1604 1.429 . S
C1623 C1617 1.429 . S
C1623 C1624 1.523 . S
C1624 C1605 1.368 . S
C1624 C1618 1.368 . S
C1624 C1623 1.523 . S
C1625 C1609 1.429 . S
C1625 C1621 1.429 . S
C1625 C1626 1.523 . S
C1626 C1610 1.368 . S
C1626 C1622 1.368 . S
C1626 C1625 1.523 . S
H1627 C1602 0.950 . S
H1628 C1604 0.950 . S
H1629 C1605 0.949 . S
H1630 C1607 0.950 . S
H1631 C1609 0.950 . S
C1632 C1633 1.349 . S
C1632 C1634 1.327 . S
C1632 H1657 0.950 . S
C1633 C1632 1.349 . S
C1633 C1649 1.349 . S
C1634 C1632 1.327 . S
C1634 C1653 1.429 . S
C1634 H1658 0.950 . S
C1635 C1652 1.574 . S
C1635 C1654 1.368 . S
C1635 H1659 0.949 . S
H1636 C1640 0.949 . S
C1637 C1638 1.349 . S
C1637 C1639 1.327 . S
C1637 H1660 0.950 . S
C1638 C1637 1.349 . S
C1638 C1650 1.349 . S
C1639 C1637 1.327 . S
C1639 C1655 1.429 . S
C1639 H1661 0.950 . S
C1640 H1636 0.949 . S
C1640 C1648 1.574 . S
C1640 C1656 1.368 . S
H1641 C1649 0.950 . S
H1642 C1647 0.950 . S
H1643 C1648 0.949 . S
H1644 C1650 0.950 . S
H1645 C1651 0.950 . S
H1646 C1652 0.949 . S
C1647 H1642 0.950 . S
C1647 C1649 1.327 . S
C1647 C1653 1.429 . S
C1648 C1640 1.574 . S
C1648 H1643 0.949 . S
C1648 C1654 1.368 . S
C1649 C1633 1.349 . S
C1649 H1641 0.950 . S
C1649 C1647 1.327 . S
C1650 C1638 1.349 . S
C1650 H1644 0.950 . S
C1650 C1651 1.327 . S
C1651 H1645 0.950 . S
C1651 C1650 1.327 . S
C1651 C1655 1.429 . S
C1652 C1635 1.574 . S
C1652 H1646 0.949 . S
C1652 C1656 1.368 . S
C1653 C1634 1.429 . S
C1653 C1647 1.429 . S
C1653 C1654 1.523 . S
C1654 C1635 1.368 . S
C1654 C1648 1.368 . S
C1654 C1653 1.523 . S
C1655 C1639 1.429 . S
C1655 C1651 1.429 . S
C1655 C1656 1.523 . S
C1656 C1640 1.368 . S
C1656 C1652 1.368 . S
C1656 C1655 1.523 . S
H1657 C1632 0.950 . S
H1658 C1634 0.950 . S
H1659 C1635 0.949 . S
H1660 C1637 0.950 . S
H1661 C1639 0.950 . S
C1662 C1663 1.349 . S
C1662 C1664 1.327 . S
C1662 H1687 0.950 . S
C1663 C1662 1.349 . S
C1663 C1679 1.349 . S
C1664 C1662 1.327 . S
C1664 C1683 1.429 . S
C1664 H1688 0.950 . S
C1665 C1682 1.574 . S
C1665 C1684 1.368 . S
C1665 H1689 0.949 . S
H1666 C1670 0.949 . S
C1667 C1668 1.349 . S
C1667 C1669 1.327 . S
C1667 H1690 0.950 . S
C1668 C1667 1.349 . S
C1668 C1680 1.349 . S
C1669 C1667 1.327 . S
C1669 C1685 1.429 . S
C1669 H1691 0.950 . S
C1670 H1666 0.949 . S
C1670 C1678 1.574 . S
C1670 C1686 1.368 . S
H1671 C1679 0.950 . S
H1672 C1677 0.950 . S
H1673 C1678 0.949 . S
H1674 C1680 0.950 . S
H1675 C1681 0.950 . S
H1676 C1682 0.949 . S
C1677 H1672 0.950 . S
C1677 C1679 1.327 . S
C1677 C1683 1.429 . S
C1678 C1670 1.574 . S
C1678 H1673 0.949 . S
C1678 C1684 1.368 . S
C1679 C1663 1.349 . S
C1679 H1671 0.950 . S
C1679 C1677 1.327 . S
C1680 C1668 1.349 . S
C1680 H1674 0.950 . S
C1680 C1681 1.327 . S
C1681 H1675 0.950 . S
C1681 C1680 1.327 . S
C1681 C1685 1.429 . S
C1682 C1665 1.574 . S
C1682 H1676 0.949 . S
C1682 C1686 1.368 . S
C1683 C1664 1.429 . S
C1683 C1677 1.429 . S
C1683 C1684 1.523 . S
C1684 C1665 1.368 . S
C1684 C1678 1.368 . S
C1684 C1683 1.523 . S
C1685 C1669 1.429 . S
C1685 C1681 1.429 . S
C1685 C1686 1.523 . S
C1686 C1670 1.368 . S
C1686 C1682 1.368 . S
C1686 C1685 1.523 . S
H1687 C1662 0.950 . S
H1688 C1664 0.950 . S
H1689 C1665 0.949 . S
H1690 C1667 0.950 . S
H1691 C1669 0.950 . S
C1692 C1693 1.349 . S
C1692 C1694 1.327 . S
C1692 H1717 0.950 . S
C1693 C1692 1.349 . S
C1693 C1709 1.349 . S
C1694 C1692 1.327 . S
C1694 C1713 1.429 . S
C1694 H1718 0.950 . S
C1695 C1712 1.574 . S
C1695 C1714 1.368 . S
C1695 H1719 0.949 . S
H1696 C1700 0.949 . S
C1697 C1698 1.349 . S
C1697 C1699 1.327 . S
C1697 H1720 0.950 . S
C1698 C1697 1.349 . S
C1698 C1710 1.349 . S
C1699 C1697 1.327 . S
C1699 C1715 1.429 . S
C1699 H1721 0.950 . S
C1700 H1696 0.949 . S
C1700 C1708 1.574 . S
C1700 C1716 1.368 . S
H1701 C1709 0.950 . S
H1702 C1707 0.950 . S
H1703 C1708 0.949 . S
H1704 C1710 0.950 . S
H1705 C1711 0.950 . S
H1706 C1712 0.949 . S
C1707 H1702 0.950 . S
C1707 C1709 1.327 . S
C1707 C1713 1.429 . S
C1708 C1700 1.574 . S
C1708 H1703 0.949 . S
C1708 C1714 1.368 . S
C1709 C1693 1.349 . S
C1709 H1701 0.950 . S
C1709 C1707 1.327 . S
C1710 C1698 1.349 . S
C1710 H1704 0.950 . S
C1710 C1711 1.327 . S
C1711 H1705 0.950 . S
C1711 C1710 1.327 . S
C1711 C1715 1.429 . S
C1712 C1695 1.574 . S
C1712 H1706 0.949 . S
C1712 C1716 1.368 . S
C1713 C1694 1.429 . S
C1713 C1707 1.429 . S
C1713 C1714 1.523 . S
C1714 C1695 1.368 . S
C1714 C1708 1.368 . S
C1714 C1713 1.523 . S
C1715 C1699 1.429 . S
C1715 C1711 1.429 . S
C1715 C1716 1.523 . S
C1716 C1700 1.368 . S
C1716 C1712 1.368 . S
C1716 C1715 1.523 . S
H1717 C1692 0.950 . S
H1718 C1694 0.950 . S
H1719 C1695 0.949 . S
H1720 C1697 0.950 . S
H1721 C1699 0.950 . S
C1722 C1723 1.349 . S
C1722 C1724 1.327 . S
C1722 H1747 0.950 . S
C1723 C1722 1.349 . S
C1723 C1739 1.349 . S
C1724 C1722 1.327 . S
C1724 C1743 1.429 . S
C1724 H1748 0.950 . S
C1725 C1742 1.574 . S
C1725 C1744 1.368 . S
C1725 H1749 0.949 . S
H1726 C1730 0.949 . S
C1727 C1728 1.349 . S
C1727 C1729 1.327 . S
C1727 H1750 0.950 . S
C1728 C1727 1.349 . S
C1728 C1740 1.349 . S
C1729 C1727 1.327 . S
C1729 C1745 1.429 . S
C1729 H1751 0.950 . S
C1730 H1726 0.949 . S
C1730 C1738 1.574 . S
C1730 C1746 1.368 . S
H1731 C1739 0.950 . S
H1732 C1737 0.950 . S
H1733 C1738 0.949 . S
H1734 C1740 0.950 . S
H1735 C1741 0.950 . S
H1736 C1742 0.949 . S
C1737 H1732 0.950 . S
C1737 C1739 1.327 . S
C1737 C1743 1.429 . S
C1738 C1730 1.574 . S
C1738 H1733 0.949 . S
C1738 C1744 1.368 . S
C1739 C1723 1.349 . S
C1739 H1731 0.950 . S
C1739 C1737 1.327 . S
C1740 C1728 1.349 . S
C1740 H1734 0.950 . S
C1740 C1741 1.327 . S
C1741 H1735 0.950 . S
C1741 C1740 1.327 . S
C1741 C1745 1.429 . S
C1742 C1725 1.574 . S
C1742 H1736 0.949 . S
C1742 C1746 1.368 . S
C1743 C1724 1.429 . S
C1743 C1737 1.429 . S
C1743 C1744 1.523 . S
C1744 C1725 1.368 . S
C1744 C1738 1.368 . S
C1744 C1743 1.523 . S
C1745 C1729 1.429 . S
C1745 C1741 1.429 . S
C1745 C1746 1.523 . S
C1746 C1730 1.368 . S
C1746 C1742 1.368 . S
C1746 C1745 1.523 . S
H1747 C1722 0.950 . S
H1748 C1724 0.950 . S
H1749 C1725 0.949 . S
H1750 C1727 0.950 . S
H1751 C1729 0.950 . S
C1752 C1753 1.349 . S
C1752 C1754 1.327 . S
C1752 H1777 0.950 . S
C1753 C1752 1.349 . S
C1753 C1769 1.349 . S
C1754 C1752 1.327 . S
C1754 C1773 1.429 . S
C1754 H1778 0.950 . S
C1755 C1772 1.574 . S
C1755 C1774 1.368 . S
C1755 H1779 0.949 . S
H1756 C1760 0.949 . S
C1757 C1758 1.349 . S
C1757 C1759 1.327 . S
C1757 H1780 0.950 . S
C1758 C1757 1.349 . S
C1758 C1770 1.349 . S
C1759 C1757 1.327 . S
C1759 C1775 1.429 . S
C1759 H1781 0.950 . S
C1760 H1756 0.949 . S
C1760 C1768 1.574 . S
C1760 C1776 1.368 . S
H1761 C1769 0.950 . S
H1762 C1767 0.950 . S
H1763 C1768 0.949 . S
H1764 C1770 0.950 . S
H1765 C1771 0.950 . S
H1766 C1772 0.949 . S
C1767 H1762 0.950 . S
C1767 C1769 1.327 . S
C1767 C1773 1.429 . S
C1768 C1760 1.574 . S
C1768 H1763 0.949 . S
C1768 C1774 1.368 . S
C1769 C1753 1.349 . S
C1769 H1761 0.950 . S
C1769 C1767 1.327 . S
C1770 C1758 1.349 . S
C1770 H1764 0.950 . S
C1770 C1771 1.327 . S
C1771 H1765 0.950 . S
C1771 C1770 1.327 . S
C1771 C1775 1.429 . S
C1772 C1755 1.574 . S
C1772 H1766 0.949 . S
C1772 C1776 1.368 . S
C1773 C1754 1.429 . S
C1773 C1767 1.429 . S
C1773 C1774 1.523 . S
C1774 C1755 1.368 . S
C1774 C1768 1.368 . S
C1774 C1773 1.523 . S
C1775 C1759 1.429 . S
C1775 C1771 1.429 . S
C1775 C1776 1.523 . S
C1776 C1760 1.368 . S
C1776 C1772 1.368 . S
C1776 C1775 1.523 . S
H1777 C1752 0.950 . S
H1778 C1754 0.950 . S
H1779 C1755 0.949 . S
H1780 C1757 0.950 . S
H1781 C1759 0.950 . S
C1782 C1783 1.349 . S
C1782 C1784 1.327 . S
C1782 H1807 0.950 . S
C1783 C1782 1.349 . S
C1783 C1799 1.349 . S
C1784 C1782 1.327 . S
C1784 C1803 1.429 . S
C1784 H1808 0.950 . S
C1785 C1802 1.574 . S
C1785 C1804 1.368 . S
C1785 H1809 0.949 . S
H1786 C1790 0.949 . S
C1787 C1788 1.349 . S
C1787 C1789 1.327 . S
C1787 H1810 0.950 . S
C1788 C1787 1.349 . S
C1788 C1800 1.349 . S
C1789 C1787 1.327 . S
C1789 C1805 1.429 . S
C1789 H1811 0.950 . S
C1790 H1786 0.949 . S
C1790 C1798 1.574 . S
C1790 C1806 1.368 . S
H1791 C1799 0.950 . S
H1792 C1797 0.950 . S
H1793 C1798 0.949 . S
H1794 C1800 0.950 . S
H1795 C1801 0.950 . S
H1796 C1802 0.949 . S
C1797 H1792 0.950 . S
C1797 C1799 1.327 . S
C1797 C1803 1.429 . S
C1798 C1790 1.574 . S
C1798 H1793 0.949 . S
C1798 C1804 1.368 . S
C1799 C1783 1.349 . S
C1799 H1791 0.950 . S
C1799 C1797 1.327 . S
C1800 C1788 1.349 . S
C1800 H1794 0.950 . S
C1800 C1801 1.327 . S
C1801 H1795 0.950 . S
C1801 C1800 1.327 . S
C1801 C1805 1.429 . S
C1802 C1785 1.574 . S
C1802 H1796 0.949 . S
C1802 C1806 1.368 . S
C1803 C1784 1.429 . S
C1803 C1797 1.429 . S
C1803 C1804 1.523 . S
C1804 C1785 1.368 . S
C1804 C1798 1.368 . S
C1804 C1803 1.523 . S
C1805 C1789 1.429 . S
C1805 C1801 1.429 . S
C1805 C1806 1.523 . S
C1806 C1790 1.368 . S
C1806 C1802 1.368 . S
C1806 C1805 1.523 . S
H1807 C1782 0.950 . S
H1808 C1784 0.950 . S
H1809 C1785 0.949 . S
H1810 C1787 0.950 . S
H1811 C1789 0.950 . S
C1812 C1813 1.349 . S
C1812 C1814 1.327 . S
C1812 H1837 0.950 . S
C1813 C1812 1.349 . S
C1813 C1829 1.349 . S
C1814 C1812 1.327 . S
C1814 C1833 1.429 . S
C1814 H1838 0.950 . S
C1815 C1832 1.574 . S
C1815 C1834 1.368 . S
C1815 H1839 0.949 . S
H1816 C1820 0.949 . S
C1817 C1818 1.349 . S
C1817 C1819 1.327 . S
C1817 H1840 0.950 . S
C1818 C1817 1.349 . S
C1818 C1830 1.349 . S
C1819 C1817 1.327 . S
C1819 C1835 1.429 . S
C1819 H1841 0.950 . S
C1820 H1816 0.949 . S
C1820 C1828 1.574 . S
C1820 C1836 1.368 . S
H1821 C1829 0.950 . S
H1822 C1827 0.950 . S
H1823 C1828 0.949 . S
H1824 C1830 0.950 . S
H1825 C1831 0.950 . S
H1826 C1832 0.949 . S
C1827 H1822 0.950 . S
C1827 C1829 1.327 . S
C1827 C1833 1.429 . S
C1828 C1820 1.574 . S
C1828 H1823 0.949 . S
C1828 C1834 1.368 . S
C1829 C1813 1.349 . S
C1829 H1821 0.950 . S
C1829 C1827 1.327 . S
C1830 C1818 1.349 . S
C1830 H1824 0.950 . S
C1830 C1831 1.327 . S
C1831 H1825 0.950 . S
C1831 C1830 1.327 . S
C1831 C1835 1.429 . S
C1832 C1815 1.574 . S
C1832 H1826 0.949 . S
C1832 C1836 1.368 . S
C1833 C1814 1.429 . S
C1833 C1827 1.429 . S
C1833 C1834 1.523 . S
C1834 C1815 1.368 . S
C1834 C1828 1.368 . S
C1834 C1833 1.523 . S
C1835 C1819 1.429 . S
C1835 C1831 1.429 . S
C1835 C1836 1.523 . S
C1836 C1820 1.368 . S
C1836 C1832 1.368 . S
C1836 C1835 1.523 . S
H1837 C1812 0.950 . S
H1838 C1814 0.950 . S
H1839 C1815 0.949 . S
H1840 C1817 0.950 . S
H1841 C1819 0.950 . S
C1842 C1843 1.349 . S
C1842 C1844 1.327 . S
C1842 H1867 0.950 . S
C1843 C1842 1.349 . S
C1843 C1859 1.349 . S
C1844 C1842 1.327 . S
C1844 C1863 1.429 . S
C1844 H1868 0.950 . S
C1845 C1862 1.574 . S
C1845 C1864 1.368 . S
C1845 H1869 0.949 . S
H1846 C1850 0.949 . S
C1847 C1848 1.349 . S
C1847 C1849 1.327 . S
C1847 H1870 0.950 . S
C1848 C1847 1.349 . S
C1848 C1860 1.349 . S
C1849 C1847 1.327 . S
C1849 C1865 1.429 . S
C1849 H1871 0.950 . S
C1850 H1846 0.949 . S
C1850 C1858 1.574 . S
C1850 C1866 1.368 . S
H1851 C1859 0.950 . S
H1852 C1857 0.950 . S
H1853 C1858 0.949 . S
H1854 C1860 0.950 . S
H1855 C1861 0.950 . S
H1856 C1862 0.949 . S
C1857 H1852 0.950 . S
C1857 C1859 1.327 . S
C1857 C1863 1.429 . S
C1858 C1850 1.574 . S
C1858 H1853 0.949 . S
C1858 C1864 1.368 . S
C1859 C1843 1.349 . S
C1859 H1851 0.950 . S
C1859 C1857 1.327 . S
C1860 C1848 1.349 . S
C1860 H1854 0.950 . S
C1860 C1861 1.327 . S
C1861 H1855 0.950 . S
C1861 C1860 1.327 . S
C1861 C1865 1.429 . S
C1862 C1845 1.574 . S
C1862 H1856 0.949 . S
C1862 C1866 1.368 . S
C1863 C1844 1.429 . S
C1863 C1857 1.429 . S
C1863 C1864 1.523 . S
C1864 C1845 1.368 . S
C1864 C1858 1.368 . S
C1864 C1863 1.523 . S
C1865 C1849 1.429 . S
C1865 C1861 1.429 . S
C1865 C1866 1.523 . S
C1866 C1850 1.368 . S
C1866 C1862 1.368 . S
C1866 C1865 1.523 . S
H1867 C1842 0.950 . S
H1868 C1844 0.950 . S
H1869 C1845 0.949 . S
H1870 C1847 0.950 . S
H1871 C1849 0.950 . S
C1872 C1873 1.349 . S
C1872 C1874 1.327 . S
C1872 H1897 0.950 . S
C1873 C1872 1.349 . S
C1873 C1889 1.349 1_655 S
C1874 C1872 1.327 . S
C1874 C1893 1.429 . S
C1874 H1898 0.950 . S
C1875 C1892 1.574 . S
C1875 C1894 1.368 1_455 S
C1875 H1899 0.949 . S
H1876 C1880 0.949 . S
C1877 C1878 1.349 . S
C1877 C1879 1.327 . S
C1877 H1900 0.950 . S
C1878 C1877 1.349 . S
C1878 C1890 1.349 1_455 S
C1879 C1877 1.327 . S
C1879 C1895 1.429 . S
C1879 H1901 0.950 . S
C1880 H1876 0.949 . S
C1880 C1888 1.574 . S
C1880 C1896 1.368 1_655 S
H1881 C1889 0.950 . S
H1882 C1887 0.950 . S
H1883 C1888 0.949 . S
H1884 C1890 0.950 . S
H1885 C1891 0.950 . S
H1886 C1892 0.949 . S
C1887 H1882 0.950 . S
C1887 C1889 1.327 . S
C1887 C1893 1.429 1_455 S
C1888 C1880 1.574 . S
C1888 H1883 0.949 . S
C1888 C1894 1.368 . S
C1889 C1873 1.349 1_455 S
C1889 H1881 0.950 . S
C1889 C1887 1.327 . S
C1890 C1878 1.349 1_655 S
C1890 H1884 0.950 . S
C1890 C1891 1.327 . S
C1891 H1885 0.950 . S
C1891 C1890 1.327 . S
C1891 C1895 1.429 1_655 S
C1892 C1875 1.574 . S
C1892 H1886 0.949 . S
C1892 C1896 1.368 . S
C1893 C1874 1.429 . S
C1893 C1887 1.429 1_655 S
C1893 C1894 1.523 . S
C1894 C1875 1.368 1_655 S
C1894 C1888 1.368 . S
C1894 C1893 1.523 . S
C1895 C1879 1.429 . S
C1895 C1891 1.429 1_455 S
C1895 C1896 1.523 . S
C1896 C1880 1.368 1_455 S
C1896 C1892 1.368 . S
C1896 C1895 1.523 . S
H1897 C1872 0.950 . S
H1898 C1874 0.950 . S
H1899 C1875 0.949 . S
H1900 C1877 0.950 . S
H1901 C1879 0.950 . S
C1902 C1903 1.349 . S
C1902 C1904 1.327 . S
C1902 H1927 0.950 . S
C1903 C1902 1.349 . S
C1903 C1919 1.349 . S
C1904 C1902 1.327 . S
C1904 C1923 1.429 . S
C1904 H1928 0.950 . S
C1905 C1922 1.574 . S
C1905 C1924 1.368 . S
C1905 H1929 0.949 . S
H1906 C1910 0.949 . S
C1907 C1908 1.349 . S
C1907 C1909 1.327 . S
C1907 H1930 0.950 . S
C1908 C1907 1.349 . S
C1908 C1920 1.349 . S
C1909 C1907 1.327 . S
C1909 C1925 1.429 . S
C1909 H1931 0.950 . S
C1910 H1906 0.949 . S
C1910 C1918 1.574 . S
C1910 C1926 1.368 . S
H1911 C1919 0.950 . S
H1912 C1917 0.950 . S
H1913 C1918 0.949 . S
H1914 C1920 0.950 . S
H1915 C1921 0.950 . S
H1916 C1922 0.949 . S
C1917 H1912 0.950 . S
C1917 C1919 1.327 . S
C1917 C1923 1.429 . S
C1918 C1910 1.574 . S
C1918 H1913 0.949 . S
C1918 C1924 1.368 . S
C1919 C1903 1.349 . S
C1919 H1911 0.950 . S
C1919 C1917 1.327 . S
C1920 C1908 1.349 . S
C1920 H1914 0.950 . S
C1920 C1921 1.327 . S
C1921 H1915 0.950 . S
C1921 C1920 1.327 . S
C1921 C1925 1.429 . S
C1922 C1905 1.574 . S
C1922 H1916 0.949 . S
C1922 C1926 1.368 . S
C1923 C1904 1.429 . S
C1923 C1917 1.429 . S
C1923 C1924 1.523 . S
C1924 C1905 1.368 . S
C1924 C1918 1.368 . S
C1924 C1923 1.523 . S
C1925 C1909 1.429 . S
C1925 C1921 1.429 . S
C1925 C1926 1.523 . S
C1926 C1910 1.368 . S
C1926 C1922 1.368 . S
C1926 C1925 1.523 . S
H1927 C1902 0.950 . S
H1928 C1904 0.950 . S
H1929 C1905 0.949 . S
H1930 C1907 0.950 . S
H1931 C1909 0.950 . S
C1932 C1933 1.349 1_565 S
C1932 C1934 1.327 . S
C1932 H1957 0.950 . S
C1933 C1932 1.349 1_545 S
C1933 C1949 1.349 . S
C1934 C1932 1.327 . S
C1934 C1953 1.429 1_565 S
C1934 H1958 0.950 . S
C1935 C1952 1.574 . S
C1935 C1954 1.368 . S
C1935 H1959 0.949 . S
H1936 C1940 0.949 . S
C1937 C1938 1.349 1_545 S
C1937 C1939 1.327 . S
C1937 H1960 0.950 . S
C1938 C1937 1.349 1_565 S
C1938 C1950 1.349 . S
C1939 C1937 1.327 . S
C1939 C1955 1.429 1_545 S
C1939 H1961 0.950 . S
C1940 H1936 0.949 . S
C1940 C1948 1.574 . S
C1940 C1956 1.368 . S
H1941 C1949 0.950 . S
H1942 C1947 0.950 . S
H1943 C1948 0.949 . S
H1944 C1950 0.950 . S
H1945 C1951 0.950 . S
H1946 C1952 0.949 . S
C1947 H1942 0.950 . S
C1947 C1949 1.327 . S
C1947 C1953 1.429 . S
C1948 C1940 1.574 . S
C1948 H1943 0.949 . S
C1948 C1954 1.368 1_565 S
C1949 C1933 1.349 . S
C1949 H1941 0.950 . S
C1949 C1947 1.327 . S
C1950 C1938 1.349 . S
C1950 H1944 0.950 . S
C1950 C1951 1.327 . S
C1951 H1945 0.950 . S
C1951 C1950 1.327 . S
C1951 C1955 1.429 . S
C1952 C1935 1.574 . S
C1952 H1946 0.949 . S
C1952 C1956 1.368 1_545 S
C1953 C1934 1.429 1_545 S
C1953 C1947 1.429 . S
C1953 C1954 1.523 . S
C1954 C1935 1.368 . S
C1954 C1948 1.368 1_545 S
C1954 C1953 1.523 . S
C1955 C1939 1.429 1_565 S
C1955 C1951 1.429 . S
C1955 C1956 1.523 . S
C1956 C1940 1.368 . S
C1956 C1952 1.368 1_565 S
C1956 C1955 1.523 . S
H1957 C1932 0.950 . S
H1958 C1934 0.950 . S
H1959 C1935 0.949 . S
H1960 C1937 0.950 . S
H1961 C1939 0.950 . S
C613 C9 1.270 . S
C618 C156 1.268 . S
C643 C43 1.277 . S
C648 C190 1.276 . S
C673 C77 1.283 . S
C678 C122 1.287 . S
C703 C54 1.271 . S
C708 C111 1.266 . S
C733 C145 1.277 . S
C738 C88 1.276 . S
C763 C20 1.284 . S
C768 C179 1.287 . S
C793 C213 1.279 . S
C798 C360 1.280 1_455 S
C823 C394 1.278 . S
C828 C247 1.278 . S
C853 C281 1.276 . S
C858 C326 1.277 1_565 S
C883 C258 1.277 . S
C888 C315 1.276 . S
C913 C349 1.276 . S
C918 C292 1.277 . S
C943 C224 1.276 . S
C948 C383 1.275 . S
C973 C564 1.277 . S
C978 C417 1.276 . S
C1003 C598 1.277 . S
C1008 C451 1.276 . S
C1033 C530 1.276 . S
C1038 C485 1.275 . S
C1063 C519 1.279 . S
C1068 C462 1.280 1_655 S
C1093 C496 1.278 . S
C1098 C553 1.278 . S
C1123 C428 1.277 1_545 S
C1128 C587 1.276 . S
C1153 C33 1.296 . S
C1158 C379 1.278 . S
C1183 C67 1.293 . S
C1188 C311 1.278 1_565 S
C1213 C345 1.280 1_455 S
C1218 C101 1.297 . S
C1243 C481 1.278 . S
C1248 C135 1.296 . S
C1273 C413 1.275 1_545 S
C1278 C169 1.295 . S
C1303 C447 1.280 1_655 S
C1308 C203 1.297 . S
C1333 C583 1.277 . S
C1338 C237 1.296 . S
C1363 C515 1.278 . S
C1368 C271 1.297 . S
C1393 C305 1.296 . S
C1398 C549 1.278 . S
C1423 C73 1.270 . S
C1428 C339 1.287 . S
C1453 C373 1.292 . S
C1458 C5 1.274 . S
C1483 C407 1.290 . S
C1488 C39 1.268 . S
C1513 C441 1.289 . S
C1518 C175 1.268 . S
C1543 C107 1.274 . S
C1548 C475 1.292 . S
C1573 C509 1.290 . S
C1578 C141 1.268 . S
C1603 C543 1.296 . S
C1608 C277 1.277 . S
C1633 C577 1.297 . S
C1638 C209 1.278 . S
C1663 C611 1.296 . S
C1668 C243 1.278 . S
C1693 C308 1.955 . S
C1698 C2 1.955 . S
C1723 C36 1.960 . S
C1728 C342 1.962 . S
C1753 C70 1.958 . S
C1758 C376 1.962 . S
C1783 C104 1.955 . S
C1788 C410 1.955 . S
C1813 C444 1.960 . S
C1818 C138 1.962 . S
C1843 C172 1.958 . S
C1848 C478 1.962 . S
C1873 C206 1.950 . S
C1878 C512 1.950 . S
C1903 C546 1.952 . S
C1908 C240 1.952 . S
C1933 C274 1.950 . S
C1938 C580 1.950 . S
