# Generated by pormake.
# Topology unc, (4)-cn, num edge types: 1
# Building blocks:
#     Node 0, Type 0, BuildingBlock: CEKHIL_clean_sbu_0, # of connection points: 4
#     Node 1, Type 0, BuildingBlock: CEKHIL_clean_sbu_0, # of connection points: 4
#     Node 2, Type 0, BuildingBlock: CEKHIL_clean_sbu_0, # of connection points: 4
#     Node 3, Type 0, BuildingBlock: CEKHIL_clean_sbu_0, # of connection points: 4
#     Edge 4, Type (0, 0), BuildingBlock: FUNLAD_clean_linker_1, # of connection points: 2
#     Edge 5, Type (0, 0), BuildingBlock: FUNLAD_clean_linker_1, # of connection points: 2
#     Edge 6, Type (0, 0), BuildingBlock: FUNLAD_clean_linker_1, # of connection points: 2
#     Edge 7, Type (0, 0), BuildingBlock: FUNLAD_clean_linker_1, # of connection points: 2
#     Edge 8, Type (0, 0), BuildingBlock: FUNLAD_clean_linker_1, # of connection points: 2
#     Edge 9, Type (0, 0), BuildingBlock: FUNLAD_clean_linker_1, # of connection points: 2
#     Edge 10, Type (0, 0), BuildingBlock: FUNLAD_clean_linker_1, # of connection points: 2
#     Edge 11, Type (0, 0), BuildingBlock: FUNLAD_clean_linker_1, # of connection points: 2
# Relax obj value: 0.004
# Max RMSD: 0.040
# Mean RMSD: 0.040
data_MOF--net-unc--node1-CEKHIL_clean_sbu_0--edge1-FUNLAD_clean_linker_1
_symmetry_space_group_name_H-M    P1
_symmetry_Int_Tables_number       1
_symmetry_cell_setting            triclinic
loop_
_symmetry_equiv_pos_as_xyz
'x, y, z'
_cell_length_a     30.558694
_cell_length_b     30.565938
_cell_length_c     22.616092
_cell_angle_alpha  90.086129
_cell_angle_beta   89.762615
_cell_angle_gamma 92.641802
loop_
_atom_site_label
_atom_site_type_symbol
_atom_site_fract_x
_atom_site_fract_y
_atom_site_fract_z
_atom_type_partial_charge
Co0 Co 0.03072 0.69377 0.98565 0.0
O1 O 0.01522 0.74327 0.93816 0.0
O2 O 0.98389 0.72428 0.02327 0.0
C3 C 0.03227 0.64551 0.90983 0.0
O4 O 0.03554 0.64408 0.0457 0.0
Co5 Co 0.11712 0.64596 0.96614 0.0
O6 O 0.08666 0.59903 0.01341 0.0
C7 C 0.1192 0.7316 0.02783 0.0
C8 C 0.98556 0.75034 0.97788 0.0
C9 C 0.05523 0.60772 0.04796 0.0
O10 O 0.07695 0.73137 0.02873 0.0
O11 O 0.14088 0.70235 1.00165 0.0
O12 O 0.99525 0.65431 0.93461 0.0
O13 O 0.06612 0.66816 0.9283 0.0
Co14 Co 0.35984 0.04498 0.29332 0.0
O15 O 0.31488 0.06638 0.34425 0.0
O16 O 0.33152 0.09313 0.25567 0.0
C17 C 0.41143 0.0428 0.36421 0.0
O18 O 0.40563 0.03272 0.2295 0.0
Co19 Co 0.39737 0.9545 0.31414 0.0
O20 O 0.44605 0.97872 0.26387 0.0
C21 C 0.311 0.95943 0.25751 0.0
C22 C 0.30791 0.09502 0.30353 0.0
C23 C 0.43966 0.00933 0.22729 0.0
O24 O 0.3161 1.00142 0.25675 0.0
O25 O 0.33854 0.93454 0.28136 0.0
O26 O 0.40427 0.07907 0.33697 0.0
O27 O 0.38501 0.00979 0.35154 0.0
Co28 Co 0.02866 0.35969 0.48544 0.0
O29 O 0.05445 0.31917 0.43182 0.0
O30 O 0.07761 0.33251 0.52294 0.0
C31 C 0.02504 0.41491 0.41984 0.0
O32 O 0.01167 0.40111 0.55217 0.0
Co33 Co 0.93594 0.39024 0.46301 0.0
O34 O 0.95129 0.43484 0.52402 0.0
C35 C 0.94566 0.30366 0.5161 0.0
C36 C 0.08222 0.31157 0.47331 0.0
C37 C 0.98314 0.43051 0.55927 0.0
O38 O 0.98734 0.31145 0.51672 0.0
O39 O 0.91896 0.32999 0.49354 0.0
O40 O 0.06088 0.40851 0.44837 0.0
O41 O 0.99353 0.3855 0.42719 0.0
Co42 Co 0.70296 1.00833 0.79768 0.0
O43 O 0.74978 0.995 0.85121 0.0
O44 O 0.74028 0.96591 0.76228 0.0
C45 C 0.64847 1.00259 0.86569 0.0
O46 O 0.65815 0.01109 0.7312 0.0
Co47 Co 0.64728 0.08956 0.81354 0.0
O48 O 0.60973 0.06238 0.75082 0.0
C49 C 0.73634 0.10047 0.7629 0.0
C50 C 0.76243 0.96776 0.8112 0.0
C51 C 0.62301 0.03095 0.71941 0.0
O52 O 0.7397 0.05857 0.7616 0.0
O53 O 0.70382 0.11909 0.78623 0.0
O54 O 0.66272 0.96794 0.84016 0.0
O55 O 0.66955 0.03906 0.85317 0.0
H56 H 0.05387 0.5417 0.08651 0.0
C57 C 0.04329 0.57478 0.0937 0.0
H58 H 0.01407 0.61757 0.15397 0.0
H59 H 0.92166 0.47306 0.31741 0.0
H60 H 0.85986 0.51213 0.2813 0.0
H61 H 0.86984 0.5686 0.20403 0.0
H62 H 0.94177 0.58686 0.1629 0.0
C63 C 0.02472 0.58466 0.14582 0.0
C64 C 0.01887 0.55108 0.19381 0.0
C65 C 0.97646 0.54017 0.21673 0.0
C66 C 0.97052 0.50683 0.26051 0.0
C67 C 0.92796 0.49754 0.28356 0.0
C68 C 0.89218 0.51976 0.26328 0.0
C69 C 0.89781 0.55159 0.2198 0.0
C70 C 0.93934 0.56179 0.19661 0.0
H71 H 0.04582 0.47971 0.38564 0.0
C72 C 0.02319 0.45178 0.37816 0.0
H73 H 0.97834 0.4212 0.31877 0.0
H74 H 0.10612 0.5707 0.17188 0.0
H75 H 0.16707 0.52804 0.20173 0.0
H76 H 0.15497 0.46184 0.263 0.0
H77 H 0.08221 0.43934 0.297 0.0
C78 C 1.0006 0.44924 0.3273 0.0
C79 C 1.00681 0.48363 0.28044 0.0
C80 C 0.04907 0.49369 0.25608 0.0
C81 C 0.05545 0.52911 0.21572 0.0
C82 C 0.09882 0.54193 0.19852 0.0
C83 C 0.13425 0.51803 0.21593 0.0
C84 C 0.12748 0.48098 0.25076 0.0
C85 C 0.0855 0.46876 0.27063 0.0
H86 H 0.46341 0.07203 0.42048 0.0
C87 C 0.44537 0.04149 0.41022 0.0
H88 H 0.4343 0.97504 0.43321 0.0
H89 H 0.62011 0.05494 0.5639 0.0
H90 H 0.65004 0.06144 0.46481 0.0
H91 H 0.60476 0.04154 0.37793 0.0
H92 H 0.52886 0.01588 0.38976 0.0
C93 C 0.45308 1.00543 0.44173 0.0
C94 C 0.48315 1.00806 0.4937 0.0
C95 C 0.52814 0.02068 0.48633 0.0
C96 C 0.55485 0.03009 0.53666 0.0
C97 C 0.59874 0.04567 0.5276 0.0
C98 C 0.61632 0.04979 0.47083 0.0
C99 C 0.59079 0.03874 0.42191 0.0
C100 C 0.5472 0.02436 0.42929 0.0
H101 H 0.60847 0.98916 0.64115 0.0
C102 C 0.59778 0.01711 0.66627 0.0
H103 H 0.55131 0.06591 0.67313 0.0
H104 H 0.39939 0.98045 0.52389 0.0
H105 H 0.37081 0.96892 0.62299 0.0
H106 H 0.41798 0.98196 0.71007 0.0
H107 H 0.49403 1.00695 0.69852 0.0
C108 C 0.56298 0.03862 0.64757 0.0
C109 C 0.53705 0.02478 0.59443 0.0
C110 C 0.49292 0.00919 0.60172 0.0
C111 C 0.46592 1.00096 0.55141 0.0
C112 C 0.4216 0.98672 0.56034 0.0
C113 C 0.40471 0.98 0.61706 0.0
C114 C 0.43124 0.98739 0.66609 0.0
C115 C 0.47481 1.00186 0.65881 0.0
H116 H 0.06892 0.60752 0.84509 0.0
C117 C 0.03655 0.61173 0.86377 0.0
H118 H 0.96991 0.59014 0.86229 0.0
H119 H 0.04357 0.53121 0.59746 0.0
H120 H 0.0519 0.6091 0.57765 0.0
H121 H 0.03839 0.66315 0.65596 0.0
H122 H 0.01739 0.63968 0.75471 0.0
C123 C 1.00228 0.58737 0.84296 0.0
C124 C 1.0079 0.55494 0.79438 0.0
C125 C 0.01851 0.56933 0.73617 0.0
C126 C 0.02413 0.5382 0.6902 0.0
C127 C 0.03703 0.55344 0.63334 0.0
C128 C 0.04225 0.59807 0.62146 0.0
C129 C 0.03482 0.62849 0.6656 0.0
C130 C 0.02304 0.61451 0.7223 0.0
H131 H 0.96133 0.48547 0.61292 0.0
C132 C 0.986 0.46098 0.61003 0.0
H133 H 0.04122 0.43554 0.6516 0.0
H134 H 0.98922 0.51627 0.90104 0.0
H135 H 0.97926 0.43831 0.92013 0.0
H136 H 0.98608 0.38451 0.83957 0.0
H137 H 1.00325 0.40826 0.73945 0.0
C138 C 0.017 0.46046 0.65196 0.0
C139 C 0.0169 0.49277 0.70163 0.0
C140 C 1.0069 0.47838 0.75992 0.0
C141 C 1.00243 0.50947 0.8063 0.0
C142 C 0.99256 0.49411 0.86409 0.0
C143 C 0.98682 0.44946 0.87568 0.0
C144 C 0.99069 0.41916 0.83032 0.0
C145 C 1.00055 0.43325 0.77304 0.0
H146 H 0.50669 0.01109 0.19179 0.0
C147 C 0.47285 0.01651 0.18033 0.0
H148 H 0.42863 0.02736 0.11117 0.0
H149 H 0.56558 0.10113 0.92213 0.0
H150 H 0.51624 0.16054 0.93175 0.0
H151 H 0.45828 0.15853 1.00801 0.0
H152 H 0.44881 0.09674 0.07453 0.0
C153 C 0.46251 0.0229 0.12331 0.0
C154 C 0.49681 0.0233 0.07559 0.0
C155 C 0.50263 0.06013 0.0378 0.0
C156 C 0.53698 0.06186 0.99484 0.0
C157 C 0.54088 0.09847 0.95649 0.0
C158 C 0.51265 0.1328 0.96136 0.0
C159 C 0.47997 0.13163 1.00423 0.0
C160 C 0.47487 0.09587 0.04212 0.0
H161 H 0.58885 0.97072 0.90451 0.0
C162 C 0.61043 0.99996 0.90621 0.0
H163 H 0.62541 0.06004 0.9488 0.0
H164 H 0.48754 0.9421 0.12721 0.0
H165 H 0.5396 0.88475 0.12299 0.0
H166 H 0.60707 0.89391 0.06314 0.0
H167 H 0.6216 0.95934 1.00501 0.0
C168 C 0.60374 0.03085 0.94737 0.0
C169 C 0.56656 0.02744 0.99086 0.0
C170 C 0.56094 0.99073 0.02917 0.0
C171 C 0.5245 0.98748 0.06867 0.0
C172 C 0.51659 0.94794 0.10041 0.0
C173 C 0.54595 0.91449 0.09783 0.0
C174 C 0.58373 0.9195 0.06381 0.0
C175 C 0.59136 0.95711 0.02993 0.0
H176 H 0.24879 0.96119 0.20796 0.0
C177 C 0.27193 0.93947 0.22749 0.0
H178 H 0.28732 0.8737 0.24185 0.0
H179 H 0.10366 0.78112 0.19925 0.0
H180 H 0.10773 0.77732 0.30621 0.0
H181 H 0.16569 0.8191 0.36058 0.0
H182 H 0.22018 0.86475 0.30829 0.0
C183 C 0.26516 0.89589 0.22129 0.0
C184 C 0.22676 0.87597 0.18865 0.0
C185 C 0.19456 0.85012 0.21981 0.0
C186 C 0.16074 0.82644 0.18848 0.0
C187 C 0.12983 0.8 0.22078 0.0
C188 C 0.13177 0.79754 0.28222 0.0
C189 C 0.16443 0.82104 0.31283 0.0
C190 C 0.19557 0.84702 0.28226 0.0
H191 H 0.18096 0.76478 0.05559 0.0
C192 C 0.14552 0.76616 0.05905 0.0
H193 H 0.09367 0.79912 0.09892 0.0
H194 H 0.28311 0.92207 0.11406 0.0
H195 H 0.27557 0.93001 1.00818 0.0
H196 H 0.21356 0.89354 0.95525 0.0
H197 H 0.15918 0.84806 1.00808 0.0
C198 C 0.12883 0.79778 0.09252 0.0
C199 C 0.15905 0.82869 0.12594 0.0
C200 C 0.18917 0.85723 0.09518 0.0
C201 C 0.22371 0.88001 0.12625 0.0
C202 C 0.25516 0.90548 0.09343 0.0
C203 C 0.25139 0.91012 0.03242 0.0
C204 C 0.21659 0.88946 1.00258 0.0
C205 C 0.18579 0.86323 0.03334 0.0
H206 H 0.27106 0.15264 0.27719 0.0
C207 C 0.2756 0.12903 0.31225 0.0
H208 H 0.25647 0.1078 0.39786 0.0
H209 H 0.19611 0.3102 0.42379 0.0
H210 H 0.27394 0.32861 0.42987 0.0
H211 H 0.32812 0.27273 0.41145 0.0
H212 H 0.30473 0.19819 0.3859 0.0
C213 C 0.25274 0.13177 0.36303 0.0
C214 C 0.22029 0.16592 0.37323 0.0
C215 C 0.23444 0.20909 0.38954 0.0
C216 C 0.20311 0.241 0.40209 0.0
C217 C 0.2183 0.28429 0.41575 0.0
C218 C 0.26295 0.29539 0.41905 0.0
C219 C 0.29346 0.26395 0.40855 0.0
C220 C 0.27958 0.22129 0.39386 0.0
H221 H 0.13807 0.27267 0.50116 0.0
C222 C 0.11743 0.28062 0.46405 0.0
H223 H 0.10296 0.26984 0.37387 0.0
H224 H 0.18234 0.08638 0.34274 0.0
H225 H 0.10446 0.06729 0.33842 0.0
H226 H 0.05008 0.12182 0.36269 0.0
H227 H 0.07317 0.19575 0.39134 0.0
C228 C 0.12422 0.26252 0.41062 0.0
C229 C 0.15763 0.22928 0.3999 0.0
C230 C 0.14359 0.18604 0.38361 0.0
C231 C 0.17492 0.1544 0.37025 0.0
C232 C 0.15992 0.11157 0.35384 0.0
C233 C 0.11532 0.10018 0.35108 0.0
C234 C 0.08471 0.1309 0.36466 0.0
C235 C 0.09846 0.17331 0.38085 0.0
H236 H 0.76625 0.16475 0.73858 0.0
C237 C 0.76964 0.12967 0.73343 0.0
H238 H 0.80333 0.08087 0.68821 0.0
H239 H 0.85069 0.20909 0.47405 0.0
H240 H 0.80433 0.15265 0.42715 0.0
H241 H 0.76789 0.09365 0.4862 0.0
H242 H 0.77782 0.09045 0.59233 0.0
C243 C 0.80073 0.11567 0.6966 0.0
C244 C 0.8275 0.1479 0.66018 0.0
C245 C 0.82161 0.14912 0.598 0.0
C246 C 0.8421 0.18357 0.56398 0.0
C247 C 0.83546 0.18402 0.50205 0.0
C248 C 0.80902 0.15177 0.47455 0.0
C249 C 0.78855 0.11852 0.50779 0.0
C250 C 0.79457 0.11708 0.56877 0.0
H251 H 0.95163 0.2408 0.56314 0.0
C252 C 0.92828 0.26337 0.54608 0.0
H253 H 0.86143 0.27736 0.53954 0.0
H254 H 0.85261 0.15047 0.77598 0.0
H255 H 0.89821 0.20733 0.82337 0.0
H256 H 0.92925 0.27003 0.76602 0.0
H257 H 0.91573 0.27586 0.66101 0.0
C258 C 0.8853 0.25553 0.55694 0.0
C259 C 0.86835 0.21691 0.59202 0.0
C260 C 0.87564 0.21475 0.65394 0.0
C261 C 0.85603 0.17967 0.68769 0.0
C262 C 0.86529 0.17732 0.74885 0.0
C263 C 0.89163 0.20957 0.7765 0.0
C264 C 0.90924 0.24478 0.74417 0.0
C265 C 0.90138 0.24757 0.68369 0.0
H266 H 0.80801 0.91677 0.78581 0.0
C267 C 0.79853 0.93808 0.82171 0.0
H268 H 0.80886 0.9562 0.91089 0.0
H269 H 0.88588 0.75588 0.90026 0.0
H270 H 0.8109 0.731 0.88092 0.0
H271 H 0.75334 0.78391 0.86662 0.0
H272 H 0.77058 0.86198 0.87042 0.0
C273 C 0.81763 0.9346 0.87496 0.0
C274 C 0.85176 0.90219 0.88671 0.0
C275 C 0.84076 0.85651 0.8867 0.0
C276 C 0.87363 0.82593 0.89764 0.0
C277 C 0.86208 0.78058 0.89432 0.0
C278 C 0.81914 0.7658 0.88298 0.0
C279 C 0.78676 0.79558 0.87473 0.0
C280 C 0.79722 0.8404 0.87662 0.0
H281 H 0.92846 0.78792 1.00437 0.0
C282 C 0.95324 0.78448 0.97027 0.0
H283 H 0.97705 0.80661 0.88717 0.0
H284 H 0.88388 0.98713 0.89163 0.0
H285 H 0.95834 0.01202 0.91503 0.0
H286 H 0.0146 0.95912 0.9371 0.0
H287 H 0.99679 0.88091 0.93578 0.0
C288 C 0.952 0.80918 0.92109 0.0
C289 C 0.9171 0.84101 0.91104 0.0
C290 C 0.92786 0.88662 0.91221 0.0
C291 C 0.89523 0.91719 0.90008 0.0
C292 C 0.90718 0.9625 0.9011 0.0
C293 C 0.94984 0.97725 0.91434 0.0
C294 C 0.98153 0.94746 0.92671 0.0
C295 C 0.97088 0.90266 0.92569 0.0
loop_
_geom_bond_atom_site_label_1
_geom_bond_atom_site_label_2
_geom_bond_distance
_geom_bond_site_symmetry_2
_ccdc_geom_bond_type
Co0 O1 2.216 1_554 S
Co0 O2 2.091 . S
Co0 O4 2.004 . S
Co0 O10 2.021 1_655 S
Co0 O12 2.137 1_554 S
Co0 O13 2.244 1_654 S
O1 Co0 2.216 1_556 S
O1 C8 1.247 . S
O2 Co0 2.091 . S
O2 C8 1.261 1_554 S
C3 O12 1.247 1_455 S
C3 O13 1.272 . S
O4 Co0 2.004 . S
O4 C9 1.259 1_655 S
Co5 O6 2.061 . S
Co5 O11 2.052 . S
Co5 O13 2.135 1_554 S
O6 Co5 2.061 . S
O6 C9 1.235 . S
C7 O10 1.238 . S
C7 O11 1.241 . S
C8 O1 1.247 . S
C8 O2 1.261 1_556 S
C9 O4 1.259 1_455 S
C9 O6 1.235 . S
O10 Co0 2.021 1_455 S
O10 C7 1.238 . S
O11 Co5 2.052 . S
O11 C7 1.241 . S
O12 Co0 2.137 1_556 S
O12 C3 1.247 1_655 S
O13 Co0 2.244 1_456 S
O13 C3 1.272 . S
O13 Co5 2.135 1_556 S
Co14 O15 2.216 . S
Co14 O16 2.091 . S
Co14 O18 2.004 . S
Co14 O24 2.021 1_545 S
Co14 O26 2.137 . S
Co14 O27 2.244 1_545 S
O15 Co14 2.216 . S
O15 C22 1.247 . S
O16 Co14 2.091 . S
O16 C22 1.261 . S
C17 O26 1.247 . S
C17 O27 1.272 1_545 S
O18 Co14 2.004 . S
O18 C23 1.259 . S
Co19 O20 2.061 . S
Co19 O25 2.052 . S
Co19 O27 2.135 . S
O20 Co19 2.061 . S
O20 C23 1.235 1_565 S
C21 O24 1.238 . S
C21 O25 1.241 . S
C22 O15 1.247 . S
C22 O16 1.261 . S
C23 O18 1.259 . S
C23 O20 1.235 1_545 S
O24 Co14 2.021 1_565 S
O24 C21 1.238 . S
O25 Co19 2.052 . S
O25 C21 1.241 . S
O26 Co14 2.137 . S
O26 C17 1.247 . S
O27 Co14 2.244 1_565 S
O27 C17 1.272 1_565 S
O27 Co19 2.135 . S
Co28 O29 2.216 . S
Co28 O30 2.091 . S
Co28 O32 2.004 . S
Co28 O38 2.021 1_455 S
Co28 O40 2.137 . S
Co28 O41 2.244 1_455 S
O29 Co28 2.216 . S
O29 C36 1.247 . S
O30 Co28 2.091 . S
O30 C36 1.261 . S
C31 O40 1.247 . S
C31 O41 1.272 1_455 S
O32 Co28 2.004 . S
O32 C37 1.259 . S
Co33 O34 2.061 . S
Co33 O39 2.052 . S
Co33 O41 2.135 . S
O34 Co33 2.061 . S
O34 C37 1.235 1_655 S
C35 O38 1.238 . S
C35 O39 1.241 . S
C36 O29 1.247 . S
C36 O30 1.261 . S
C37 O32 1.259 . S
C37 O34 1.235 1_455 S
O38 Co28 2.021 1_655 S
O38 C35 1.238 . S
O39 Co33 2.052 . S
O39 C35 1.241 . S
O40 Co28 2.137 . S
O40 C31 1.247 . S
O41 Co28 2.244 1_655 S
O41 C31 1.272 1_655 S
O41 Co33 2.135 . S
Co42 O43 2.216 . S
Co42 O44 2.091 . S
Co42 O46 2.004 . S
Co42 O52 2.021 1_565 S
Co42 O54 2.137 . S
Co42 O55 2.244 1_565 S
O43 Co42 2.216 . S
O43 C50 1.247 . S
O44 Co42 2.091 . S
O44 C50 1.261 . S
C45 O54 1.247 1_545 S
C45 O55 1.272 . S
O46 Co42 2.004 . S
O46 C51 1.259 1_565 S
Co47 O48 2.061 . S
Co47 O53 2.052 . S
Co47 O55 2.135 . S
O48 Co47 2.061 . S
O48 C51 1.235 . S
C49 O52 1.238 . S
C49 O53 1.241 . S
C50 O43 1.247 . S
C50 O44 1.261 . S
C51 O46 1.259 1_545 S
C51 O48 1.235 . S
O52 Co42 2.021 1_545 S
O52 C49 1.238 . S
O53 Co47 2.052 . S
O53 C49 1.241 . S
O54 Co42 2.137 . S
O54 C45 1.247 1_565 S
O55 Co42 2.244 1_545 S
O55 C45 1.272 . S
O55 Co47 2.135 . S
H56 C57 0.951 . S
C57 H56 0.951 . S
C57 C63 1.265 . S
H58 C63 0.950 1_655 S
H59 C67 0.949 . S
H60 C68 0.950 . S
H61 C69 0.951 . S
H62 C70 0.951 . S
C63 C57 1.265 . S
C63 H58 0.950 1_455 S
C63 C64 1.478 . S
C64 C63 1.478 . S
C64 C65 1.397 1_455 S
C64 C81 1.394 . S
C65 C64 1.397 1_655 S
C65 C66 1.438 . S
C65 C70 1.429 . S
C66 C65 1.438 . S
C66 C67 1.428 . S
C66 C79 1.394 1_655 S
C67 H59 0.949 . S
C67 C66 1.428 . S
C67 C68 1.345 . S
C68 H60 0.950 . S
C68 C67 1.345 . S
C68 C69 1.424 . S
C69 H61 0.951 . S
C69 C68 1.424 . S
C69 C70 1.347 . S
C70 H62 0.951 . S
C70 C65 1.429 . S
C70 C69 1.347 . S
H71 C72 0.951 . S
C72 H71 0.951 . S
C72 C78 1.265 . S
H73 C78 0.950 . S
H74 C82 0.949 . S
H75 C83 0.950 . S
H76 C84 0.951 . S
H77 C85 0.951 . S
C78 C72 1.265 . S
C78 H73 0.950 . S
C78 C79 1.478 . S
C79 C66 1.394 1_455 S
C79 C78 1.478 . S
C79 C80 1.397 . S
C80 C79 1.397 . S
C80 C81 1.438 . S
C80 C85 1.429 . S
C81 C64 1.394 . S
C81 C80 1.438 . S
C81 C82 1.428 . S
C82 H74 0.949 . S
C82 C81 1.428 . S
C82 C83 1.345 . S
C83 H75 0.950 . S
C83 C82 1.345 . S
C83 C84 1.424 . S
C84 H76 0.951 . S
C84 C83 1.424 . S
C84 C85 1.347 . S
C85 H77 0.951 . S
C85 C80 1.429 . S
C85 C84 1.347 . S
H86 C87 0.951 . S
C87 H86 0.951 . S
C87 C93 1.265 . S
H88 C93 0.950 1_565 S
H89 C97 0.949 . S
H90 C98 0.950 . S
H91 C99 0.951 . S
H92 C100 0.951 . S
C93 C87 1.265 . S
C93 H88 0.950 1_545 S
C93 C94 1.478 . S
C94 C93 1.478 . S
C94 C95 1.397 . S
C94 C111 1.394 1_545 S
C95 C94 1.397 . S
C95 C96 1.438 . S
C95 C100 1.429 . S
C96 C95 1.438 . S
C96 C97 1.428 . S
C96 C109 1.394 . S
C97 H89 0.949 . S
C97 C96 1.428 . S
C97 C98 1.345 . S
C98 H90 0.950 . S
C98 C97 1.345 . S
C98 C99 1.424 . S
C99 H91 0.951 . S
C99 C98 1.424 . S
C99 C100 1.347 . S
C100 H92 0.951 . S
C100 C95 1.429 . S
C100 C99 1.347 . S
H101 C102 0.951 1_565 S
C102 H101 0.951 1_545 S
C102 C108 1.265 . S
H103 C108 0.950 . S
H104 C112 0.949 . S
H105 C113 0.950 . S
H106 C114 0.951 . S
H107 C115 0.951 . S
C108 C102 1.265 . S
C108 H103 0.950 . S
C108 C109 1.478 . S
C109 C96 1.394 . S
C109 C108 1.478 . S
C109 C110 1.397 1_545 S
C110 C109 1.397 1_565 S
C110 C111 1.438 . S
C110 C115 1.429 . S
C111 C94 1.394 1_565 S
C111 C110 1.438 . S
C111 C112 1.428 . S
C112 H104 0.949 . S
C112 C111 1.428 . S
C112 C113 1.345 . S
C113 H105 0.950 . S
C113 C112 1.345 . S
C113 C114 1.424 . S
C114 H106 0.951 . S
C114 C113 1.424 . S
C114 C115 1.347 . S
C115 H107 0.951 . S
C115 C110 1.429 . S
C115 C114 1.347 . S
H116 C117 0.951 . S
C117 H116 0.951 . S
C117 C123 1.265 1_455 S
H118 C123 0.950 . S
H119 C127 0.949 . S
H120 C128 0.950 . S
H121 C129 0.951 . S
H122 C130 0.951 . S
C123 C117 1.265 1_655 S
C123 H118 0.950 . S
C123 C124 1.478 1_655 S
C124 C123 1.478 1_455 S
C124 C125 1.397 . S
C124 C141 1.394 . S
C125 C124 1.397 . S
C125 C126 1.438 . S
C125 C130 1.429 1_455 S
C126 C125 1.438 . S
C126 C127 1.428 . S
C126 C139 1.394 . S
C127 H119 0.949 . S
C127 C126 1.428 . S
C127 C128 1.345 . S
C128 H120 0.950 . S
C128 C127 1.345 . S
C128 C129 1.424 1_455 S
C129 H121 0.951 . S
C129 C128 1.424 1_655 S
C129 C130 1.347 . S
C130 H122 0.951 . S
C130 C125 1.429 1_655 S
C130 C129 1.347 . S
H131 C132 0.951 1_655 S
C132 H131 0.951 1_455 S
C132 C138 1.265 . S
H133 C138 0.950 . S
H134 C142 0.949 . S
H135 C143 0.950 . S
H136 C144 0.951 . S
H137 C145 0.951 . S
C138 C132 1.265 . S
C138 H133 0.950 . S
C138 C139 1.478 . S
C139 C126 1.394 . S
C139 C138 1.478 . S
C139 C140 1.397 . S
C140 C139 1.397 . S
C140 C141 1.438 . S
C140 C145 1.429 . S
C141 C124 1.394 . S
C141 C140 1.438 . S
C141 C142 1.428 . S
C142 H134 0.949 . S
C142 C141 1.428 . S
C142 C143 1.345 . S
C143 H135 0.950 . S
C143 C142 1.345 . S
C143 C144 1.424 . S
C144 H136 0.951 . S
C144 C143 1.424 . S
C144 C145 1.347 . S
C145 H137 0.951 . S
C145 C140 1.429 . S
C145 C144 1.347 . S
H146 C147 0.951 . S
C147 H146 0.951 . S
C147 C153 1.265 . S
H148 C153 0.950 . S
H149 C157 0.949 . S
H150 C158 0.950 . S
H151 C159 0.951 . S
H152 C160 0.951 1_554 S
C153 C147 1.265 . S
C153 H148 0.950 . S
C153 C154 1.478 . S
C154 C153 1.478 . S
C154 C155 1.397 1_554 S
C154 C171 1.394 1_545 S
C155 C154 1.397 1_556 S
C155 C156 1.438 . S
C155 C160 1.429 . S
C156 C155 1.438 . S
C156 C157 1.428 . S
C156 C169 1.394 . S
C157 H149 0.949 . S
C157 C156 1.428 . S
C157 C158 1.345 . S
C158 H150 0.950 . S
C158 C157 1.345 . S
C158 C159 1.424 . S
C159 H151 0.951 . S
C159 C158 1.424 . S
C159 C160 1.347 . S
C160 H152 0.951 1_556 S
C160 C155 1.429 . S
C160 C159 1.347 . S
H161 C162 0.951 . S
C162 H161 0.951 . S
C162 C168 1.265 . S
H163 C168 0.950 . S
H164 C172 0.949 . S
H165 C173 0.950 . S
H166 C174 0.951 . S
H167 C175 0.951 . S
C168 C162 1.265 . S
C168 H163 0.950 . S
C168 C169 1.478 . S
C169 C156 1.394 . S
C169 C168 1.478 . S
C169 C170 1.397 1_545 S
C170 C169 1.397 1_565 S
C170 C171 1.438 1_556 S
C170 C175 1.429 . S
C171 C154 1.394 1_565 S
C171 C170 1.438 1_554 S
C171 C172 1.428 . S
C172 H164 0.949 . S
C172 C171 1.428 . S
C172 C173 1.345 . S
C173 H165 0.950 . S
C173 C172 1.345 . S
C173 C174 1.424 . S
C174 H166 0.951 . S
C174 C173 1.424 . S
C174 C175 1.347 1_554 S
C175 H167 0.951 . S
C175 C170 1.429 . S
C175 C174 1.347 1_556 S
H176 C177 0.951 . S
C177 H176 0.951 . S
C177 C183 1.265 . S
H178 C183 0.950 . S
H179 C187 0.949 . S
H180 C188 0.950 . S
H181 C189 0.951 . S
H182 C190 0.951 . S
C183 C177 1.265 . S
C183 H178 0.950 . S
C183 C184 1.478 . S
C184 C183 1.478 . S
C184 C185 1.397 . S
C184 C201 1.394 . S
C185 C184 1.397 . S
C185 C186 1.438 . S
C185 C190 1.429 . S
C186 C185 1.438 . S
C186 C187 1.428 . S
C186 C199 1.394 . S
C187 H179 0.949 . S
C187 C186 1.428 . S
C187 C188 1.345 . S
C188 H180 0.950 . S
C188 C187 1.345 . S
C188 C189 1.424 . S
C189 H181 0.951 . S
C189 C188 1.424 . S
C189 C190 1.347 . S
C190 H182 0.951 . S
C190 C185 1.429 . S
C190 C189 1.347 . S
H191 C192 0.951 . S
C192 H191 0.951 . S
C192 C198 1.265 . S
H193 C198 0.950 . S
H194 C202 0.949 . S
H195 C203 0.950 1_556 S
H196 C204 0.951 . S
H197 C205 0.951 1_556 S
C198 C192 1.265 . S
C198 H193 0.950 . S
C198 C199 1.478 . S
C199 C186 1.394 . S
C199 C198 1.478 . S
C199 C200 1.397 . S
C200 C199 1.397 . S
C200 C201 1.438 . S
C200 C205 1.429 . S
C201 C184 1.394 . S
C201 C200 1.438 . S
C201 C202 1.428 . S
C202 H194 0.949 . S
C202 C201 1.428 . S
C202 C203 1.345 . S
C203 H195 0.950 1_554 S
C203 C202 1.345 . S
C203 C204 1.424 1_554 S
C204 H196 0.951 . S
C204 C203 1.424 1_556 S
C204 C205 1.347 1_556 S
C205 H197 0.951 1_554 S
C205 C200 1.429 . S
C205 C204 1.347 1_554 S
H206 C207 0.951 . S
C207 H206 0.951 . S
C207 C213 1.265 . S
H208 C213 0.950 . S
H209 C217 0.949 . S
H210 C218 0.950 . S
H211 C219 0.951 . S
H212 C220 0.951 . S
C213 C207 1.265 . S
C213 H208 0.950 . S
C213 C214 1.478 . S
C214 C213 1.478 . S
C214 C215 1.397 . S
C214 C231 1.394 . S
C215 C214 1.397 . S
C215 C216 1.438 . S
C215 C220 1.429 . S
C216 C215 1.438 . S
C216 C217 1.428 . S
C216 C229 1.394 . S
C217 H209 0.949 . S
C217 C216 1.428 . S
C217 C218 1.345 . S
C218 H210 0.950 . S
C218 C217 1.345 . S
C218 C219 1.424 . S
C219 H211 0.951 . S
C219 C218 1.424 . S
C219 C220 1.347 . S
C220 H212 0.951 . S
C220 C215 1.429 . S
C220 C219 1.347 . S
H221 C222 0.951 . S
C222 H221 0.951 . S
C222 C228 1.265 . S
H223 C228 0.950 . S
H224 C232 0.949 . S
H225 C233 0.950 . S
H226 C234 0.951 . S
H227 C235 0.951 . S
C228 C222 1.265 . S
C228 H223 0.950 . S
C228 C229 1.478 . S
C229 C216 1.394 . S
C229 C228 1.478 . S
C229 C230 1.397 . S
C230 C229 1.397 . S
C230 C231 1.438 . S
C230 C235 1.429 . S
C231 C214 1.394 . S
C231 C230 1.438 . S
C231 C232 1.428 . S
C232 H224 0.949 . S
C232 C231 1.428 . S
C232 C233 1.345 . S
C233 H225 0.950 . S
C233 C232 1.345 . S
C233 C234 1.424 . S
C234 H226 0.951 . S
C234 C233 1.424 . S
C234 C235 1.347 . S
C235 H227 0.951 . S
C235 C230 1.429 . S
C235 C234 1.347 . S
H236 C237 0.951 . S
C237 H236 0.951 . S
C237 C243 1.265 . S
H238 C243 0.950 . S
H239 C247 0.949 . S
H240 C248 0.950 . S
H241 C249 0.951 . S
H242 C250 0.951 . S
C243 C237 1.265 . S
C243 H238 0.950 . S
C243 C244 1.478 . S
C244 C243 1.478 . S
C244 C245 1.397 . S
C244 C261 1.394 . S
C245 C244 1.397 . S
C245 C246 1.438 . S
C245 C250 1.429 . S
C246 C245 1.438 . S
C246 C247 1.428 . S
C246 C259 1.394 . S
C247 H239 0.949 . S
C247 C246 1.428 . S
C247 C248 1.345 . S
C248 H240 0.950 . S
C248 C247 1.345 . S
C248 C249 1.424 . S
C249 H241 0.951 . S
C249 C248 1.424 . S
C249 C250 1.347 . S
C250 H242 0.951 . S
C250 C245 1.429 . S
C250 C249 1.347 . S
H251 C252 0.951 . S
C252 H251 0.951 . S
C252 C258 1.265 . S
H253 C258 0.950 . S
H254 C262 0.949 . S
H255 C263 0.950 . S
H256 C264 0.951 . S
H257 C265 0.951 . S
C258 C252 1.265 . S
C258 H253 0.950 . S
C258 C259 1.478 . S
C259 C246 1.394 . S
C259 C258 1.478 . S
C259 C260 1.397 . S
C260 C259 1.397 . S
C260 C261 1.438 . S
C260 C265 1.429 . S
C261 C244 1.394 . S
C261 C260 1.438 . S
C261 C262 1.428 . S
C262 H254 0.949 . S
C262 C261 1.428 . S
C262 C263 1.345 . S
C263 H255 0.950 . S
C263 C262 1.345 . S
C263 C264 1.424 . S
C264 H256 0.951 . S
C264 C263 1.424 . S
C264 C265 1.347 . S
C265 H257 0.951 . S
C265 C260 1.429 . S
C265 C264 1.347 . S
H266 C267 0.951 . S
C267 H266 0.951 . S
C267 C273 1.265 . S
H268 C273 0.950 . S
H269 C277 0.949 . S
H270 C278 0.950 . S
H271 C279 0.951 . S
H272 C280 0.951 . S
C273 C267 1.265 . S
C273 H268 0.950 . S
C273 C274 1.478 . S
C274 C273 1.478 . S
C274 C275 1.397 . S
C274 C291 1.394 . S
C275 C274 1.397 . S
C275 C276 1.438 . S
C275 C280 1.429 . S
C276 C275 1.438 . S
C276 C277 1.428 . S
C276 C289 1.394 . S
C277 H269 0.949 . S
C277 C276 1.428 . S
C277 C278 1.345 . S
C278 H270 0.950 . S
C278 C277 1.345 . S
C278 C279 1.424 . S
C279 H271 0.951 . S
C279 C278 1.424 . S
C279 C280 1.347 . S
C280 H272 0.951 . S
C280 C275 1.429 . S
C280 C279 1.347 . S
H281 C282 0.951 . S
C282 H281 0.951 . S
C282 C288 1.265 . S
H283 C288 0.950 . S
H284 C292 0.949 . S
H285 C293 0.950 . S
H286 C294 0.951 . S
H287 C295 0.951 . S
C288 C282 1.265 . S
C288 H283 0.950 . S
C288 C289 1.478 . S
C289 C276 1.394 . S
C289 C288 1.478 . S
C289 C290 1.397 . S
C290 C289 1.397 . S
C290 C291 1.438 . S
C290 C295 1.429 . S
C291 C274 1.394 . S
C291 C290 1.438 . S
C291 C292 1.428 . S
C292 H284 0.949 . S
C292 C291 1.428 . S
C292 C293 1.345 . S
C293 H285 0.950 . S
C293 C292 1.345 . S
C293 C294 1.424 . S
C294 H286 0.951 . S
C294 C293 1.424 . S
C294 C295 1.347 . S
C295 H287 0.951 . S
C295 C290 1.429 . S
C295 C294 1.347 . S
C57 C9 1.367 . S
C72 C31 1.406 . S
C87 C17 1.399 . S
C102 C51 1.418 . S
C117 C3 1.418 . S
C132 C37 1.360 . S
C147 C23 1.373 . S
C162 C45 1.403 . S
C177 C21 1.478 . S
C192 C7 1.425 . S
C207 C22 1.481 . S
C222 C36 1.483 . S
C237 C49 1.424 . S
C252 C35 1.487 . S
C267 C50 1.484 . S
C282 C8 1.476 . S
