# Generated by pormake.
# Topology snl, (6)-cn, num edge types: 1
# Building blocks:
#     Node 0, Type 0, BuildingBlock: KUMJIN_clean_sbu_1, # of connection points: 6
#     Node 1, Type 0, BuildingBlock: KUMJIN_clean_sbu_1, # of connection points: 6
#     Node 2, Type 0, BuildingBlock: KUMJIN_clean_sbu_1, # of connection points: 6
#     Node 3, Type 0, BuildingBlock: KUMJIN_clean_sbu_1, # of connection points: 6
#     Node 4, Type 0, BuildingBlock: KUMJIN_clean_sbu_1, # of connection points: 6
#     Node 5, Type 0, BuildingBlock: KUMJIN_clean_sbu_1, # of connection points: 6
#     Node 6, Type 0, BuildingBlock: KUMJIN_clean_sbu_1, # of connection points: 6
#     Node 7, Type 0, BuildingBlock: KUMJIN_clean_sbu_1, # of connection points: 6
#     Node 8, Type 0, BuildingBlock: KUMJIN_clean_sbu_1, # of connection points: 6
#     Node 9, Type 0, BuildingBlock: KUMJIN_clean_sbu_1, # of connection points: 6
#     Node 10, Type 0, BuildingBlock: KUMJIN_clean_sbu_1, # of connection points: 6
#     Node 11, Type 0, BuildingBlock: KUMJIN_clean_sbu_1, # of connection points: 6
#     Node 12, Type 0, BuildingBlock: KUMJIN_clean_sbu_1, # of connection points: 6
#     Node 13, Type 0, BuildingBlock: KUMJIN_clean_sbu_1, # of connection points: 6
#     Node 14, Type 0, BuildingBlock: KUMJIN_clean_sbu_1, # of connection points: 6
#     Node 15, Type 0, BuildingBlock: KUMJIN_clean_sbu_1, # of connection points: 6
#     Edge 16, Type (0, 0), BuildingBlock: XUDNAN_clean_linker_2, # of connection points: 2
#     Edge 17, Type (0, 0), BuildingBlock: XUDNAN_clean_linker_2, # of connection points: 2
#     Edge 18, Type (0, 0), BuildingBlock: XUDNAN_clean_linker_2, # of connection points: 2
#     Edge 19, Type (0, 0), BuildingBlock: XUDNAN_clean_linker_2, # of connection points: 2
#     Edge 20, Type (0, 0), BuildingBlock: XUDNAN_clean_linker_2, # of connection points: 2
#     Edge 21, Type (0, 0), BuildingBlock: XUDNAN_clean_linker_2, # of connection points: 2
#     Edge 22, Type (0, 0), BuildingBlock: XUDNAN_clean_linker_2, # of connection points: 2
#     Edge 23, Type (0, 0), BuildingBlock: XUDNAN_clean_linker_2, # of connection points: 2
#     Edge 24, Type (0, 0), BuildingBlock: XUDNAN_clean_linker_2, # of connection points: 2
#     Edge 25, Type (0, 0), BuildingBlock: XUDNAN_clean_linker_2, # of connection points: 2
#     Edge 26, Type (0, 0), BuildingBlock: XUDNAN_clean_linker_2, # of connection points: 2
#     Edge 27, Type (0, 0), BuildingBlock: XUDNAN_clean_linker_2, # of connection points: 2
#     Edge 28, Type (0, 0), BuildingBlock: XUDNAN_clean_linker_2, # of connection points: 2
#     Edge 29, Type (0, 0), BuildingBlock: XUDNAN_clean_linker_2, # of connection points: 2
#     Edge 30, Type (0, 0), BuildingBlock: XUDNAN_clean_linker_2, # of connection points: 2
#     Edge 31, Type (0, 0), BuildingBlock: XUDNAN_clean_linker_2, # of connection points: 2
#     Edge 32, Type (0, 0), BuildingBlock: XUDNAN_clean_linker_2, # of connection points: 2
#     Edge 33, Type (0, 0), BuildingBlock: XUDNAN_clean_linker_2, # of connection points: 2
#     Edge 34, Type (0, 0), BuildingBlock: XUDNAN_clean_linker_2, # of connection points: 2
#     Edge 35, Type (0, 0), BuildingBlock: XUDNAN_clean_linker_2, # of connection points: 2
#     Edge 36, Type (0, 0), BuildingBlock: XUDNAN_clean_linker_2, # of connection points: 2
#     Edge 37, Type (0, 0), BuildingBlock: XUDNAN_clean_linker_2, # of connection points: 2
#     Edge 38, Type (0, 0), BuildingBlock: XUDNAN_clean_linker_2, # of connection points: 2
#     Edge 39, Type (0, 0), BuildingBlock: XUDNAN_clean_linker_2, # of connection points: 2
#     Edge 40, Type (0, 0), BuildingBlock: XUDNAN_clean_linker_2, # of connection points: 2
#     Edge 41, Type (0, 0), BuildingBlock: XUDNAN_clean_linker_2, # of connection points: 2
#     Edge 42, Type (0, 0), BuildingBlock: XUDNAN_clean_linker_2, # of connection points: 2
#     Edge 43, Type (0, 0), BuildingBlock: XUDNAN_clean_linker_2, # of connection points: 2
#     Edge 44, Type (0, 0), BuildingBlock: XUDNAN_clean_linker_2, # of connection points: 2
#     Edge 45, Type (0, 0), BuildingBlock: XUDNAN_clean_linker_2, # of connection points: 2
#     Edge 46, Type (0, 0), BuildingBlock: XUDNAN_clean_linker_2, # of connection points: 2
#     Edge 47, Type (0, 0), BuildingBlock: XUDNAN_clean_linker_2, # of connection points: 2
#     Edge 48, Type (0, 0), BuildingBlock: XUDNAN_clean_linker_2, # of connection points: 2
#     Edge 49, Type (0, 0), BuildingBlock: XUDNAN_clean_linker_2, # of connection points: 2
#     Edge 50, Type (0, 0), BuildingBlock: XUDNAN_clean_linker_2, # of connection points: 2
#     Edge 51, Type (0, 0), BuildingBlock: XUDNAN_clean_linker_2, # of connection points: 2
#     Edge 52, Type (0, 0), BuildingBlock: XUDNAN_clean_linker_2, # of connection points: 2
#     Edge 53, Type (0, 0), BuildingBlock: XUDNAN_clean_linker_2, # of connection points: 2
#     Edge 54, Type (0, 0), BuildingBlock: XUDNAN_clean_linker_2, # of connection points: 2
#     Edge 55, Type (0, 0), BuildingBlock: XUDNAN_clean_linker_2, # of connection points: 2
#     Edge 56, Type (0, 0), BuildingBlock: XUDNAN_clean_linker_2, # of connection points: 2
#     Edge 57, Type (0, 0), BuildingBlock: XUDNAN_clean_linker_2, # of connection points: 2
#     Edge 58, Type (0, 0), BuildingBlock: XUDNAN_clean_linker_2, # of connection points: 2
#     Edge 59, Type (0, 0), BuildingBlock: XUDNAN_clean_linker_2, # of connection points: 2
#     Edge 60, Type (0, 0), BuildingBlock: XUDNAN_clean_linker_2, # of connection points: 2
#     Edge 61, Type (0, 0), BuildingBlock: XUDNAN_clean_linker_2, # of connection points: 2
#     Edge 62, Type (0, 0), BuildingBlock: XUDNAN_clean_linker_2, # of connection points: 2
#     Edge 63, Type (0, 0), BuildingBlock: XUDNAN_clean_linker_2, # of connection points: 2
# Relax obj value: 0.161
# Max RMSD: 0.229
# Mean RMSD: 0.227
data_MOF--net-snl--node1-KUMJIN_clean_sbu_1--edge1-XUDNAN_clean_linker_2
_symmetry_space_group_name_H-M    P1
_symmetry_Int_Tables_number       1
_symmetry_cell_setting            triclinic
loop_
_symmetry_equiv_pos_as_xyz
'x, y, z'
_cell_length_a     57.254512
_cell_length_b     57.446732
_cell_length_c     25.115263
_cell_angle_alpha  90.224649
_cell_angle_beta   90.270671
_cell_angle_gamma 89.919335
loop_
_atom_site_label
_atom_site_type_symbol
_atom_site_fract_x
_atom_site_fract_y
_atom_site_fract_z
_atom_type_partial_charge
Eu0 Eu 0.13311 0.61898 0.20758 0.0
C1 C 0.20577 0.6472 0.04702 0.0
N2 N 0.18567 0.65874 0.0581 0.0
C3 C 0.20644 0.69478 0.06375 0.0
C4 C 0.22735 0.65895 0.04671 0.0
C5 C 0.18549 0.6823 0.06363 0.0
C6 C 0.22753 0.68298 0.05628 0.0
C7 C 0.22489 0.61147 0.02025 0.0
C8 C 0.20451 0.62369 0.0348 0.0
C9 C 0.24663 0.62278 0.02233 0.0
C10 C 0.24786 0.64647 0.03563 0.0
Eu11 Eu 0.15115 0.63662 0.06025 0.0
N12 N 0.18317 0.61327 0.03312 0.0
C13 C 0.22265 0.58864 1.00142 0.0
C14 C 0.18073 0.59198 0.00963 0.0
C15 C 0.20041 0.57913 0.9945 0.0
H16 H 0.16906 0.69138 0.06638 0.0
H17 H 0.19839 0.56203 0.97687 0.0
H18 H 0.13488 0.55907 0.19991 0.0
H19 H 0.06974 0.67376 0.30577 0.0
H20 H 0.1636 0.58501 1.00145 0.0
H21 H 0.23784 0.57868 0.98946 0.0
H22 H 0.10591 0.66459 0.25654 0.0
H23 H 0.20637 0.71346 0.06897 0.0
H24 H 0.2625 0.61357 0.01197 0.0
H25 H 0.26466 0.65513 0.03574 0.0
H26 H 0.10825 0.52642 0.21108 0.0
H27 H 0.24375 0.69268 0.05624 0.0
H28 H 0.04158 0.64237 0.32559 0.0
N29 N 0.10933 0.58523 0.21762 0.0
C30 C 0.08804 0.58908 0.23998 0.0
C31 C 0.10216 0.54398 0.21846 0.0
C32 C 0.07293 0.57041 0.25189 0.0
C33 C 0.11703 0.56286 0.21022 0.0
C34 C 0.07987 0.54778 0.23874 0.0
N35 N 0.09694 0.6292 0.24383 0.0
C36 C 0.09304 0.65117 0.26252 0.0
C37 C 0.0616 0.6158 0.28471 0.0
C38 C 0.08213 0.61156 0.25538 0.0
C39 C 0.0571 0.63847 0.30271 0.0
C40 C 0.07286 0.65626 0.29132 0.0
H41 H 0.06867 0.53303 0.24675 0.0
H42 H 0.04024 0.56058 0.28868 0.0
H43 H 0.03071 0.60026 0.3187 0.0
O44 O 0.15307 0.63587 0.27188 0.0
O45 O 0.10363 0.63443 0.15749 0.0
O46 O 0.1133 0.62466 0.07131 0.0
O47 O 0.13421 0.60384 0.28692 0.0
O48 O 0.14067 0.65816 0.19505 0.0
O49 O 0.13505 0.66687 0.1054 0.0
O50 O 0.15023 0.63022 0.97453 0.0
O51 O 0.17775 0.64064 0.13118 0.0
O52 O 0.16798 0.60815 0.17526 0.0
O53 O 0.13842 0.66329 1.00537 0.0
O54 O 0.13562 0.60013 0.06853 0.0
O55 O 0.14812 0.59053 0.15218 0.0
C56 C 0.09773 0.63051 0.10752 0.0
C57 C 0.16062 0.61606 0.35411 0.0
C58 C 0.16521 0.61849 0.45069 0.0
C59 C 0.18699 0.6072 0.44584 0.0
C60 C 0.18175 0.60408 0.35037 0.0
C61 C 0.19504 0.59989 0.39603 0.0
C62 C 0.15216 0.62277 0.40411 0.0
C63 C 0.13691 0.67311 0.15577 0.0
C64 C 0.14616 0.62087 0.30732 0.0
C65 C 0.05199 0.57471 0.27916 0.0
C66 C 0.04655 0.59729 0.29632 0.0
C67 C 0.1837 0.62381 0.16425 0.0
C68 C 0.1527 0.66212 0.9165 0.0
C69 C 0.15523 0.66544 0.82012 0.0
C70 C 0.17002 0.68473 0.82637 0.0
C71 C 0.16762 0.68133 0.9221 0.0
C72 C 0.14683 0.65396 0.8653 0.0
C73 C 0.17633 0.69248 0.87714 0.0
C74 C 0.14067 0.58429 0.10433 0.0
C75 C 0.14231 0.65076 0.96296 0.0
H76 H 0.19798 0.60415 0.48029 0.0
H77 H 0.18771 0.59775 0.31248 0.0
H78 H 0.21163 0.59094 0.39284 0.0
H79 H 0.13514 0.63099 0.40644 0.0
H80 H 0.17663 0.69381 0.79186 0.0
H81 H 0.17228 0.68797 0.96098 0.0
H82 H 0.13519 0.6392 0.86062 0.0
H83 H 0.18772 0.70738 0.88164 0.0
Eu84 Eu 0.63458 0.89538 0.32014 0.0
C85 C 0.70327 0.85721 0.48113 0.0
N86 N 0.68136 0.84939 0.4697 0.0
C87 C 0.69461 0.80987 0.47153 0.0
C88 C 0.72189 0.84134 0.48725 0.0
C89 C 0.67668 0.82617 0.46568 0.0
C90 C 0.7173 0.81747 0.48236 0.0
C91 C 0.73021 0.88957 0.49284 0.0
C92 C 0.70737 0.88126 0.48371 0.0
C93 C 0.74869 0.87372 0.49932 0.0
C94 C 0.74454 0.84973 0.49665 0.0
Eu95 Eu 0.65252 0.87829 0.46702 0.0
N96 N 0.68923 0.89642 0.47651 0.0
C97 C 0.73386 0.91363 0.49552 0.0
C98 C 0.69254 0.91979 0.48228 0.0
C99 C 0.7149 0.92878 0.49071 0.0
H100 H 0.65904 0.82014 0.45947 0.0
H101 H 0.71744 0.94737 0.49467 0.0
H102 H 0.62833 0.95443 0.32833 0.0
H103 H 0.57626 0.83013 0.23476 0.0
H104 H 0.67807 0.93158 0.48272 0.0
H105 H 0.75115 0.92068 0.50246 0.0
H106 H 0.61144 0.84409 0.28048 0.0
H107 H 0.69087 0.79145 0.46823 0.0
H108 H 0.76632 0.87987 0.5064 0.0
H109 H 0.75905 0.83778 0.50138 0.0
H110 H 0.59872 0.98376 0.30742 0.0
H111 H 0.73117 0.80476 0.48673 0.0
H112 H 0.54586 0.85809 0.20649 0.0
N113 N 0.60718 0.92556 0.30547 0.0
C114 C 0.58717 0.91875 0.28021 0.0
C115 C 0.5951 0.96552 0.30029 0.0
C116 C 0.57035 0.93532 0.26409 0.0
C117 C 0.61166 0.94865 0.31377 0.0
C118 C 0.57429 0.95883 0.27562 0.0
N119 N 0.60007 0.87936 0.28465 0.0
C120 C 0.59779 0.85636 0.27178 0.0
C121 C 0.56387 0.88798 0.23966 0.0
C122 C 0.58385 0.89519 0.26831 0.0
C123 C 0.56104 0.86428 0.22817 0.0
C124 C 0.57805 0.84842 0.24444 0.0
H125 H 0.56172 0.97202 0.26415 0.0
H126 H 0.53743 0.94058 0.22289 0.0
H127 H 0.53188 0.89921 0.20133 0.0
O128 O 0.65103 0.87959 0.24931 0.0
O129 O 0.60274 0.88926 0.37256 0.0
O130 O 0.61271 0.88171 0.46087 0.0
O131 O 0.63552 0.914 0.24566 0.0
O132 O 0.64292 0.85664 0.33708 0.0
O133 O 0.63138 0.8509 0.42404 0.0
O134 O 0.65575 0.89097 0.54909 0.0
O135 O 0.67745 0.87184 0.39582 0.0
O136 O 0.67177 0.90349 0.34396 0.0
O137 O 0.64762 0.85488 0.53393 0.0
O138 O 0.63804 0.91501 0.45916 0.0
O139 O 0.64868 0.92474 0.37394 0.0
C140 C 0.59713 0.88545 0.42271 0.0
C141 C 0.66128 0.90461 0.17662 0.0
C142 C 0.66956 0.90364 0.08147 0.0
C143 C 0.68469 0.92271 0.08837 0.0
C144 C 0.6761 0.92384 0.1827 0.0
C145 C 0.68775 0.93282 0.13861 0.0
C146 C 0.65805 0.89461 0.12617 0.0
C147 C 0.63512 0.84307 0.3756 0.0
C148 C 0.6457 0.89739 0.21944 0.0
C149 C 0.55047 0.92807 0.23567 0.0
C150 C 0.54729 0.90452 0.22334 0.0
C151 C 0.68534 0.88658 0.35995 0.0
C152 C 0.63452 0.87089 0.61471 0.0
C153 C 0.62761 0.87162 0.71002 0.0
C154 C 0.6037 0.86805 0.70069 0.0
C155 C 0.61071 0.86683 0.60599 0.0
C156 C 0.64297 0.87346 0.66691 0.0
C157 C 0.59528 0.86583 0.64872 0.0
C158 C 0.64189 0.93074 0.42245 0.0
C159 C 0.65086 0.87087 0.57001 0.0
H160 H 0.69409 0.92989 0.05495 0.0
H161 H 0.6782 0.93222 0.22114 0.0
H162 H 0.69926 0.94762 0.14342 0.0
H163 H 0.64551 0.88062 0.12138 0.0
H164 H 0.59168 0.86655 0.73369 0.0
H165 H 0.60439 0.86371 0.56619 0.0
H166 H 0.66151 0.87594 0.67404 0.0
H167 H 0.57688 0.86269 0.64162 0.0
Eu168 Eu 0.38468 0.40182 0.69721 0.0
C169 C 0.31361 0.36242 0.55283 0.0
N170 N 0.33517 0.35294 0.56045 0.0
C171 C 0.31862 0.31498 0.56995 0.0
C172 C 0.29352 0.34834 0.55495 0.0
C173 C 0.33804 0.32961 0.56822 0.0
C174 C 0.29626 0.32437 0.56337 0.0
C175 C 0.28936 0.39678 0.54123 0.0
C176 C 0.31164 0.38656 0.54679 0.0
C177 C 0.26932 0.38273 0.54291 0.0
C178 C 0.27139 0.35862 0.54974 0.0
Eu179 Eu 0.36671 0.37888 0.55587 0.0
N180 N 0.33134 0.39998 0.54691 0.0
C181 C 0.28783 0.42085 0.53361 0.0
C182 C 0.32992 0.42308 0.53483 0.0
C183 C 0.30821 0.43397 0.52946 0.0
H184 H 0.35535 0.32235 0.57286 0.0
H185 H 0.30725 0.45241 0.52092 0.0
H186 H 0.39083 0.46007 0.68972 0.0
H187 H 0.44583 0.33742 0.77943 0.0
H188 H 0.34525 0.43313 0.52681 0.0
H189 H 0.27103 0.42935 0.52918 0.0
H190 H 0.40784 0.3519 0.74933 0.0
H191 H 0.32089 0.29649 0.5764 0.0
H192 H 0.25209 0.39036 0.53889 0.0
H193 H 0.25574 0.34808 0.55126 0.0
H194 H 0.422 0.48927 0.69811 0.0
H195 H 0.28122 0.31299 0.56517 0.0
H196 H 0.47987 0.36379 0.78293 0.0
N197 N 0.4131 0.43135 0.70739 0.0
C198 C 0.43468 0.42444 0.72385 0.0
C199 C 0.42587 0.47107 0.70487 0.0
C200 C 0.45298 0.44067 0.72977 0.0
C201 C 0.4083 0.45437 0.69941 0.0
C202 C 0.44838 0.46417 0.71954 0.0
N203 N 0.42026 0.38588 0.73018 0.0
C204 C 0.42254 0.36352 0.74797 0.0
C205 C 0.46042 0.39355 0.75399 0.0
C206 C 0.43836 0.40109 0.73557 0.0
C207 C 0.46321 0.37024 0.76858 0.0
C208 C 0.44407 0.35528 0.76642 0.0
H209 H 0.46195 0.47717 0.72382 0.0
H210 H 0.48946 0.44523 0.75063 0.0
H211 H 0.49597 0.40399 0.77186 0.0
O212 O 0.37523 0.38904 0.7766 0.0
O213 O 0.41409 0.40382 0.63658 0.0
O214 O 0.40623 0.37504 0.57447 0.0
O215 O 0.37335 0.4257 0.75947 0.0
O216 O 0.37891 0.36141 0.68694 0.0
O217 O 0.3884 0.35312 0.59943 0.0
O218 O 0.36867 0.3898 0.47235 0.0
O219 O 0.3437 0.372 0.6294 0.0
O220 O 0.34715 0.40634 0.67108 0.0
O221 O 0.36721 0.35332 0.49201 0.0
O222 O 0.38258 0.41481 0.55725 0.0
O223 O 0.37187 0.42998 0.63832 0.0
C224 C 0.42108 0.38831 0.6017 0.0
C225 C 0.38479 0.41522 0.84648 0.0
C226 C 0.38963 0.40999 0.94223 0.0
C227 C 0.40842 0.42573 0.94155 0.0
C228 C 0.40357 0.43097 0.84704 0.0
C229 C 0.4153 0.43611 0.89424 0.0
C230 C 0.37774 0.40482 0.89445 0.0
C231 C 0.38567 0.34661 0.64894 0.0
C232 C 0.37244 0.40987 0.79622 0.0
C233 C 0.47514 0.43304 0.74631 0.0
C234 C 0.47886 0.40954 0.75834 0.0
C235 C 0.33489 0.38777 0.66139 0.0
C236 C 0.38489 0.36299 0.41074 0.0
C237 C 0.39195 0.3617 0.31485 0.0
C238 C 0.41131 0.34704 0.32477 0.0
C239 C 0.40474 0.34922 0.41963 0.0
C240 C 0.37892 0.3697 0.35875 0.0
C241 C 0.41784 0.34129 0.37668 0.0
C242 C 0.3798 0.43267 0.58931 0.0
C243 C 0.36885 0.36856 0.45424 0.0
H244 H 0.41767 0.4302 0.97791 0.0
H245 H 0.40909 0.43962 0.81123 0.0
H246 H 0.4297 0.4483 0.8942 0.0
H247 H 0.36331 0.39262 0.89451 0.0
H248 H 0.42136 0.33956 0.29262 0.0
H249 H 0.40968 0.34402 0.45956 0.0
H250 H 0.36392 0.38092 0.35298 0.0
H251 H 0.43283 0.33017 0.38352 0.0
Eu252 Eu 0.87288 0.13662 0.94785 0.0
C253 C 0.91104 0.0665 0.78475 0.0
N254 N 0.91983 0.08734 0.80115 0.0
C255 C 0.95826 0.07105 0.8069 0.0
C256 C 0.92569 0.04686 0.78009 0.0
C257 C 0.94313 0.09006 0.8104 0.0
C258 C 0.94948 0.0493 0.79208 0.0
C259 C 0.87797 0.04344 0.75434 0.0
C260 C 0.88724 0.06477 0.77274 0.0
C261 C 0.89254 0.02386 0.75001 0.0
C262 C 0.91628 0.02554 0.76306 0.0
Eu263 Eu 0.89303 0.11832 0.80115 0.0
N264 N 0.87321 0.08382 0.77878 0.0
C265 C 0.85425 0.04237 0.74099 0.0
C266 C 0.85048 0.08319 0.76272 0.0
C267 C 0.84054 0.06239 0.74468 0.0
H268 H 0.9502 0.107 0.81843 0.0
H269 H 0.82249 0.06186 0.73226 0.0
H270 H 0.81339 0.14014 0.93907 0.0
H271 H 0.93615 0.1984 0.02634 0.0
H272 H 0.84035 0.0989 0.76092 0.0
H273 H 0.84647 0.02632 0.72674 0.0
H274 H 0.92341 0.16279 0.98002 0.0
H275 H 0.97675 0.07329 0.81461 0.0
H276 H 0.88562 1.00732 0.73641 0.0
H277 H 0.92729 0.01027 0.7593 0.0
H278 H 0.78279 0.16867 0.95882 0.0
H279 H 0.9613 0.03461 0.78895 0.0
H280 H 0.90685 0.22713 0.05665 0.0
N281 N 0.84146 0.16262 0.9614 0.0
C282 C 0.84749 0.18308 0.98539 0.0
C283 C 0.80093 0.17305 0.96592 0.0
C284 C 0.83023 0.19928 1.00074 0.0
C285 C 0.8185 0.15709 0.95334 0.0
C286 C 0.8068 0.19428 0.98951 0.0
N287 N 0.8875 0.1722 0.97942 0.0
C288 C 0.91058 0.17568 0.99048 0.0
C289 C 0.87748 0.20784 0.02448 0.0
C290 C 0.87099 0.18756 0.9964 0.0
C291 C 0.9012 0.21172 0.03521 0.0
C292 C 0.91781 0.19566 0.01777 0.0
H293 H 0.79307 0.20638 1.00031 0.0
H294 H 0.82369 0.23221 0.04038 0.0
H295 H 0.86493 0.23936 0.06222 0.0
O296 O 0.8901 0.12293 0.0199 0.0
O297 O 0.87928 0.16799 0.8943 0.0
O298 O 0.89324 0.15794 0.81023 0.0
O299 O 0.85402 0.13436 0.02254 0.0
O300 O 0.91117 0.12586 0.93377 0.0
O301 O 0.92075 0.13725 0.84868 0.0
O302 O 0.88139 0.1204 0.71797 0.0
O303 O 0.89435 0.0912 0.86995 0.0
O304 O 0.86355 0.10007 0.92418 0.0
O305 O 0.91817 0.12143 0.73671 0.0
O306 O 0.85664 0.13376 0.80886 0.0
O307 O 0.84423 0.12244 0.89198 0.0
C308 C 0.88675 0.17347 0.84628 0.0
C309 C 0.86726 0.11255 0.09628 0.0
C310 C 0.86601 0.10977 0.1934 0.0
C311 C 0.85379 0.08867 0.18824 0.0
C312 C 0.85479 0.0917 0.09189 0.0
C313 C 0.84809 0.07986 0.13785 0.0
C314 C 0.87289 0.12148 0.14689 0.0
C315 C 0.92666 0.13278 0.89821 0.0
C316 C 0.87192 0.12704 0.04965 0.0
C317 C 0.83674 0.21963 0.02811 0.0
C318 C 0.86022 0.22372 0.04058 0.0
C319 C 0.87926 0.08531 0.90736 0.0
C320 C 0.90585 0.14046 0.65799 0.0
C321 C 0.90126 0.15325 0.56562 0.0
C322 C 0.91415 0.17341 0.57843 0.0
C323 C 0.91827 0.16088 0.66969 0.0
C324 C 0.89731 0.13668 0.6059 0.0
C325 C 0.92239 0.17722 0.63005 0.0
C326 C 0.83987 0.12934 0.84282 0.0
C327 C 0.90241 0.12267 0.69927 0.0
H328 H 0.8479 0.07938 0.22311 0.0
H329 H 0.84986 0.08489 0.05315 0.0
H330 H 0.83815 0.06391 0.13447 0.0
H331 H 0.88213 0.13791 0.14994 0.0
H332 H 0.91812 0.18623 0.54833 0.0
H333 H 0.9251 0.16406 0.70934 0.0
H334 H 0.88751 0.12099 0.59701 0.0
H335 H 0.93219 0.19283 0.63924 0.0
Eu336 Eu 0.13506 0.3995 0.81692 0.0
C337 C 0.19854 0.35415 0.99172 0.0
N338 N 0.17597 0.34748 0.98556 0.0
C339 C 0.18603 0.30841 0.00932 0.0
C340 C 0.21609 0.33778 1.00399 0.0
C341 C 0.16939 0.32522 0.99578 0.0
C342 C 0.20959 0.31458 0.0121 0.0
C343 C 0.22681 0.38538 0.99798 0.0
C344 C 0.20378 0.37763 0.98889 0.0
C345 C 0.24468 0.36902 1.00666 0.0
C346 C 0.23931 0.34526 0.00987 0.0
Eu347 Eu 0.14895 0.37653 0.96143 0.0
N348 N 0.18599 0.39299 0.98125 0.0
C349 C 0.23092 0.40936 1.00096 0.0
C350 C 0.18946 0.41598 0.99146 0.0
C351 C 0.21201 0.42471 0.99941 0.0
H352 H 0.15121 0.32046 0.9933 0.0
H353 H 0.21467 0.44314 1.00604 0.0
H354 H 0.1364 0.45792 0.82483 0.0
H355 H 0.06276 0.34145 0.76246 0.0
H356 H 0.17482 0.42728 0.9967 0.0
H357 H 0.24834 0.41607 1.008 0.0
H358 H 0.10258 0.35118 0.79058 0.0
H359 H 0.18066 0.29077 0.01775 0.0
H360 H 0.26252 0.37463 0.01317 0.0
H361 H 0.2531 0.33291 0.01867 0.0
H362 H 0.1095 0.49101 0.81359 0.0
H363 H 0.22249 0.3015 0.0223 0.0
H364 H 0.03396 0.37276 0.74636 0.0
N365 N 0.11053 0.43231 0.80803 0.0
C366 C 0.0882 0.42812 0.79187 0.0
C367 C 0.10324 0.47341 0.80777 0.0
C368 C 0.07243 0.44662 0.78344 0.0
C369 C 0.11835 0.45456 0.81496 0.0
C370 C 0.08016 0.46944 0.79213 0.0
N371 N 0.0968 0.38774 0.79195 0.0
C372 C 0.09043 0.36509 0.78415 0.0
C373 C 0.05821 0.4004 0.76604 0.0
C374 C 0.08124 0.40525 0.78286 0.0
C375 C 0.05154 0.37719 0.75888 0.0
C376 C 0.06773 0.35947 0.76798 0.0
H377 H 0.06855 0.48412 0.7861 0.0
H378 H 0.03727 0.45584 0.75906 0.0
H379 H 0.02488 0.41541 0.74365 0.0
O380 O 0.14178 0.38576 0.73659 0.0
O381 O 0.10566 0.40223 0.87817 0.0
O382 O 0.11252 0.3699 0.92785 0.0
O383 O 0.14773 0.42201 0.75386 0.0
O384 O 0.14135 0.35937 0.82053 0.0
O385 O 0.13928 0.34604 0.90825 0.0
O386 O 0.14825 0.38712 0.04578 0.0
O387 O 0.17691 0.36976 0.89696 0.0
O388 O 0.17221 0.40238 0.84753 0.0
O389 O 0.12783 0.35791 0.01884 0.0
O390 O 0.13645 0.41451 0.95336 0.0
O391 O 0.15285 0.42493 0.87432 0.0
C392 C 0.09799 0.38531 0.90818 0.0
C393 C 0.1354 0.41279 0.66678 0.0
C394 C 0.13364 0.41167 0.57006 0.0
C395 C 0.11447 0.42685 0.57089 0.0
C396 C 0.11651 0.42846 0.66669 0.0
C397 C 0.10598 0.43523 0.61911 0.0
C398 C 0.14403 0.40445 0.61802 0.0
C399 C 0.14005 0.34231 0.85626 0.0
C400 C 0.14689 0.40609 0.71708 0.0
C401 C 0.04962 0.44184 0.76589 0.0
C402 C 0.04257 0.41881 0.75705 0.0
C403 C 0.1848 0.38434 0.86088 0.0
C404 C 0.14077 0.35692 0.10856 0.0
C405 C 0.14799 0.35665 0.20435 0.0
C406 C 0.14789 0.33221 0.20346 0.0
C407 C 0.1398 0.33243 0.10926 0.0
C408 C 0.14499 0.36899 0.15651 0.0
C409 C 0.1439 0.32022 0.15611 0.0
C410 C 0.14393 0.43075 0.92074 0.0
C411 C 0.13482 0.36996 0.0597 0.0
H412 H 0.10631 0.43247 0.53409 0.0
H413 H 0.11017 0.43596 0.70308 0.0
H414 H 0.09142 0.44727 0.61961 0.0
H415 H 0.15883 0.39266 0.61732 0.0
H416 H 0.15041 0.32237 0.23976 0.0
H417 H 0.13516 0.32256 0.07418 0.0
H418 H 0.14472 0.38786 0.15708 0.0
H419 H 0.14327 0.30138 0.15602 0.0
Eu420 Eu 0.88622 0.9007 0.19525 0.0
C421 C 0.81694 0.85084 0.0516 0.0
N422 N 0.83961 0.84427 0.05846 0.0
C423 C 0.82867 0.80412 0.05792 0.0
C424 C 0.79909 0.834 0.04931 0.0
C425 C 0.84575 0.82138 0.06143 0.0
C426 C 0.80523 0.81043 0.05235 0.0
C427 C 0.7879 0.88164 0.0448 0.0
C428 C 0.81144 0.87456 0.04923 0.0
C429 C 0.77016 0.86484 0.04225 0.0
C430 C 0.77573 0.84112 0.04438 0.0
Eu431 Eu 0.86702 0.87449 0.05804 0.0
N432 N 0.82892 0.89062 0.05359 0.0
C433 C 0.78281 0.90545 0.04363 0.0
C434 C 0.82395 0.91382 0.05179 0.0
C435 C 0.80092 0.92158 0.04703 0.0
H436 H 0.8639 0.81641 0.0649 0.0
H437 H 0.79716 0.94005 0.04599 0.0
H438 H 0.88266 0.95904 0.19939 0.0
H439 H 0.95903 0.84364 0.2511 0.0
H440 H 0.83743 0.92651 0.05395 0.0
H441 H 0.76495 0.91157 0.04023 0.0
H442 H 0.91907 0.85297 0.22401 0.0
H443 H 0.83357 0.78598 0.05872 0.0
H444 H 0.752 0.87003 0.03894 0.0
H445 H 0.76179 0.8284 0.04259 0.0
H446 H 0.90836 0.99263 0.21631 0.0
H447 H 0.79203 0.79696 0.05016 0.0
H448 H 0.98712 0.87529 0.26981 0.0
N449 N 0.90965 0.93393 0.2099 0.0
C450 C 0.93213 0.93002 0.22509 0.0
C451 C 0.91533 0.97514 0.21852 0.0
C452 C 0.94711 0.94874 0.23782 0.0
C453 C 0.90093 0.95605 0.20795 0.0
C454 C 0.93857 0.97149 0.23324 0.0
N455 N 0.92461 0.88955 0.22064 0.0
C456 C 0.9312 0.86699 0.22887 0.0
C457 C 0.96253 0.90265 0.25019 0.0
C458 C 0.93971 0.90723 0.23152 0.0
C459 C 0.96966 0.87951 0.25608 0.0
C460 C 0.95389 0.8616 0.24543 0.0
H461 H 0.94956 0.98631 0.24247 0.0
H462 H 0.98142 0.95837 0.26716 0.0
H463 H 0.9948 0.91804 0.27863 0.0
O464 O 0.87934 0.88509 0.27334 0.0
O465 O 0.91589 0.90041 0.13517 0.0
O466 O 0.9067 0.87172 0.07329 0.0
O467 O 0.87298 0.92163 0.26116 0.0
O468 O 0.88041 0.86027 0.18984 0.0
O469 O 0.88905 0.84939 0.10334 0.0
O470 O 0.86369 0.88677 0.97629 0.0
O471 O 0.84376 0.86928 0.13188 0.0
O472 O 0.84882 0.90463 0.16828 0.0
O473 O 0.87187 0.85067 0.99116 0.0
O474 O 0.88235 0.9108 0.05509 0.0
O475 O 0.87364 0.92841 0.13489 0.0
C476 C 0.922 0.88516 0.09862 0.0
C477 C 0.88542 0.91035 0.34697 0.0
C478 C 0.88773 0.9063 0.44324 0.0
C479 C 0.90704 0.92129 0.44439 0.0
C480 C 0.90431 0.92593 0.34932 0.0
C481 C 0.91523 0.9311 0.39755 0.0
C482 C 0.87701 0.90064 0.39445 0.0
C483 C 0.88624 0.8443 0.15363 0.0
C484 C 0.87398 0.90487 0.29568 0.0
C485 C 0.96974 0.94422 0.2568 0.0
C486 C 0.97735 0.92125 0.2634 0.0
C487 C 0.83634 0.88582 0.1637 0.0
C488 C 0.88576 0.86716 0.91176 0.0
C489 C 0.89318 0.87121 0.8168 0.0
C490 C 0.91729 0.86894 0.82721 0.0
C491 C 0.90979 0.86501 0.9215 0.0
C492 C 0.87753 0.87019 0.85964 0.0
C493 C 0.92546 0.86578 0.87919 0.0
C494 C 0.87902 0.92966 0.08374 0.0
C495 C 0.86893 0.86669 0.95534 0.0
H496 H 0.91542 0.92579 0.48181 0.0
H497 H 0.91038 0.93459 0.3143 0.0
H498 H 0.92981 0.94307 0.39871 0.0
H499 H 0.86211 0.889 0.39356 0.0
H500 H 0.92992 0.87005 0.79539 0.0
H501 H 0.91639 0.8628 0.96166 0.0
H502 H 0.85888 0.87163 0.85261 0.0
H503 H 0.94402 0.86415 0.88672 0.0
Eu504 Eu 0.37277 0.6373 0.45959 0.0
C505 C 0.40223 0.57019 0.28313 0.0
N506 N 0.41323 0.59047 0.29527 0.0
C507 C 0.45051 0.57202 0.28603 0.0
C508 C 0.41513 0.54961 0.27442 0.0
C509 C 0.43699 0.5919 0.2952 0.0
C510 C 0.43955 0.5507 0.27653 0.0
C511 C 0.36625 0.54947 0.26429 0.0
C512 C 0.37803 0.57018 0.27827 0.0
C513 C 0.37894 0.52868 0.25829 0.0
C514 C 0.40332 0.52877 0.26315 0.0
Eu515 Eu 0.38928 0.62318 0.30848 0.0
N516 N 0.36624 0.59069 0.28319 0.0
C517 C 0.34222 0.5505 0.25414 0.0
C518 C 0.34357 0.59215 0.26673 0.0
C519 C 0.33096 0.57206 0.25397 0.0
H520 H 0.44557 0.60842 0.30139 0.0
H521 H 0.31276 0.57331 0.2424 0.0
H522 H 0.31298 0.63825 0.45663 0.0
H523 H 0.42924 0.70439 0.54195 0.0
H524 H 0.33547 0.60881 0.26072 0.0
H525 H 0.33253 0.53499 0.24329 0.0
H526 H 0.41764 0.66429 0.51615 0.0
H527 H 0.46933 0.57316 0.28558 0.0
H528 H 0.37014 0.51258 0.24806 0.0
H529 H 0.41293 0.51273 0.25696 0.0
H530 H 0.28172 0.66749 0.44947 0.0
H531 H 0.45009 0.53532 0.26961 0.0
H532 H 0.4015 0.73702 0.52872 0.0
N533 N 0.34044 0.66332 0.4589 0.0
C534 C 0.34577 0.68612 0.4674 0.0
C535 C 0.29972 0.67301 0.45343 0.0
C536 C 0.3283 0.70344 0.46601 0.0
C537 C 0.3176 0.65647 0.45631 0.0
C538 C 0.30515 0.69665 0.45697 0.0
N539 N 0.38444 0.67468 0.48681 0.0
C540 C 0.40566 0.6786 0.51005 0.0
C541 C 0.37407 0.71497 0.49688 0.0
C542 C 0.36834 0.69191 0.48277 0.0
C543 C 0.39644 0.71953 0.51726 0.0
C544 C 0.41216 0.70117 0.52482 0.0
H545 H 0.29121 0.70941 0.45559 0.0
H546 H 0.32113 0.74032 0.47482 0.0
H547 H 0.36124 0.75041 0.50173 0.0
O548 O 0.38652 0.61729 0.52737 0.0
O549 O 0.39301 0.66304 0.40979 0.0
O550 O 0.37732 0.66052 0.32688 0.0
O551 O 0.35799 0.64117 0.53875 0.0
O552 O 0.412 0.62911 0.44721 0.0
O553 O 0.42111 0.63457 0.35721 0.0
O554 O 0.38326 0.6221 0.22184 0.0
O555 O 0.39546 0.5959 0.37526 0.0
O556 O 0.36447 0.60101 0.43064 0.0
O557 O 0.41344 0.64066 0.25483 0.0
O558 O 0.35293 0.63827 0.32185 0.0
O559 O 0.34381 0.62306 0.40347 0.0
C560 C 0.38567 0.67316 0.36625 0.0
C561 C 0.36137 0.6111 0.60109 0.0
C562 C 0.35812 0.59903 0.69401 0.0
C563 C 0.33917 0.58473 0.6795 0.0
C564 C 0.34236 0.59692 0.58761 0.0
C565 C 0.33128 0.58386 0.6268 0.0
C566 C 0.36913 0.61228 0.6543 0.0
C567 C 0.42721 0.63158 0.40768 0.0
C568 C 0.37198 0.62637 0.5613 0.0
C569 C 0.33426 0.72674 0.47648 0.0
C570 C 0.3571 0.73249 0.49195 0.0
C571 C 0.38096 0.58764 0.4115 0.0
C572 C 0.40903 0.64134 0.15823 0.0
C573 C 0.40558 0.63872 0.06096 0.0
C574 C 0.42274 0.65613 0.05672 0.0
C575 C 0.42606 0.65867 0.15246 0.0
C576 C 0.3988 0.63132 0.11224 0.0
C577 C 0.43281 0.66599 0.10206 0.0
C578 C 0.33733 0.63116 0.35625 0.0
C579 C 0.40171 0.63458 0.21238 0.0
H580 H 0.33013 0.57454 0.70914 0.0
H581 H 0.33592 0.59622 0.547 0.0
H582 H 0.31659 0.57291 0.61625 0.0
H583 H 0.38363 0.62356 0.66473 0.0
H584 H 0.42874 0.66191 0.01815 0.0
H585 H 0.43408 0.66677 0.187 0.0
H586 H 0.38549 0.61806 0.11632 0.0
H587 H 0.44597 0.67937 0.0981 0.0
Eu588 Eu 0.65108 0.13661 0.56293 0.0
C589 C 0.60925 0.06687 0.71981 0.0
N590 N 0.60149 0.08888 0.70985 0.0
C591 C 0.56183 0.07609 0.71456 0.0
C592 C 0.59331 0.04839 0.72547 0.0
C593 C 0.57821 0.09382 0.70794 0.0
C594 C 0.56937 0.05325 0.72256 0.0
C595 C 0.64167 0.03995 0.73262 0.0
C596 C 0.63331 0.06269 0.72359 0.0
C597 C 0.62574 0.02158 0.73826 0.0
C598 C 0.60168 0.02577 0.73458 0.0
Eu599 Eu 0.63073 0.11739 0.70791 0.0
N600 N 0.64849 0.08076 0.71761 0.0
C601 C 0.66583 0.03636 0.73597 0.0
C602 C 0.67186 0.07757 0.72383 0.0
C603 C 0.68098 0.0553 0.73198 0.0
H604 H 0.57225 0.11155 0.7034 0.0
H605 H 0.69964 0.05282 0.73626 0.0
H606 H 0.71052 0.14203 0.57421 0.0
H607 H 0.58701 0.19585 0.47741 0.0
H608 H 0.6833 0.09225 0.7244 0.0
H609 H 0.67293 0.01912 0.74266 0.0
H610 H 0.60038 0.16055 0.52324 0.0
H611 H 0.54342 0.08006 0.7147 0.0
H612 H 0.63187 1.00401 0.74542 0.0
H613 H 0.58966 0.01137 0.73902 0.0
H614 H 0.74026 0.17143 0.55651 0.0
H615 H 0.55656 0.03957 0.72744 0.0
H616 H 0.61559 0.22582 0.45098 0.0
N617 N 0.68183 0.16357 0.55065 0.0
C618 C 0.67542 0.18375 0.52617 0.0
C619 C 0.72207 0.17524 0.54842 0.0
C620 C 0.69233 0.20043 0.51187 0.0
C621 C 0.70491 0.15879 0.55993 0.0
C622 C 0.71576 0.19621 0.52456 0.0
N623 N 0.63579 0.17144 0.52854 0.0
C624 C 0.61284 0.17401 0.51494 0.0
C625 C 0.64515 0.20748 0.48502 0.0
C626 C 0.65195 0.18741 0.51333 0.0
C627 C 0.62149 0.21057 0.4725 0.0
C628 C 0.60527 0.1938 0.48772 0.0
H629 H 0.7292 0.20869 0.5146 0.0
H630 H 0.69827 0.23344 0.47272 0.0
H631 H 0.6571 0.23946 0.44874 0.0
O632 O 0.63654 0.11869 0.49197 0.0
O633 O 0.64238 0.16795 0.61462 0.0
O634 O 0.63173 0.1574 0.70079 0.0
O635 O 0.67027 0.13558 0.48896 0.0
O636 O 0.61217 0.12673 0.57553 0.0
O637 O 0.60332 0.13707 0.66239 0.0
O638 O 0.64391 0.11414 0.78933 0.0
O639 O 0.62826 0.09138 0.63652 0.0
O640 O 0.6614 0.10174 0.59555 0.0
O641 O 0.60758 0.12257 0.77568 0.0
O642 O 0.66698 0.13332 0.70418 0.0
O643 O 0.68012 0.1241 0.62 0.0
C644 C 0.63634 0.1732 0.66382 0.0
C645 C 0.66196 0.10991 0.41805 0.0
C646 C 0.65872 0.09939 0.32438 0.0
C647 C 0.67868 0.08538 0.32931 0.0
C648 C 0.68282 0.09707 0.4214 0.0
C649 C 0.6907 0.08431 0.37765 0.0
C650 C 0.65018 0.11138 0.369 0.0
C651 C 0.59714 0.13328 0.61278 0.0
C652 C 0.65416 0.12474 0.46229 0.0
C653 C 0.6855 0.22049 0.48407 0.0
C654 C 0.66205 0.2239 0.47029 0.0
C655 C 0.64518 0.08619 0.6032 0.0
C656 C 0.62448 0.13493 0.85689 0.0
C657 C 0.6261 0.1403 0.95332 0.0
C658 C 0.62358 0.16447 0.94573 0.0
C659 C 0.62234 0.15898 0.85024 0.0
C660 C 0.62674 0.12567 0.90818 0.0
C661 C 0.62193 0.1737 0.89449 0.0
C662 C 0.68393 0.13113 0.6695 0.0
C663 C 0.62391 0.11909 0.81104 0.0
H664 H 0.68545 0.07602 0.29517 0.0
H665 H 0.69326 0.0972 0.45742 0.0
H666 H 0.70655 0.07412 0.3808 0.0
H667 H 0.63489 0.12244 0.36506 0.0
H668 H 0.62247 0.1763 0.97928 0.0
H669 H 0.62077 0.16617 0.81087 0.0
H670 H 0.62903 0.10705 0.91259 0.0
H671 H 0.62002 0.1923 0.8891 0.0
Eu672 Eu 0.89073 0.40205 0.80151 0.0
C673 C 0.84808 0.3353 0.98294 0.0
N674 N 0.84161 0.35499 0.95658 0.0
C675 C 0.80166 0.34235 0.95597 0.0
C676 C 0.83132 0.31848 0.99728 0.0
C677 C 0.81865 0.359 0.94453 0.0
C678 C 0.80801 0.322 0.98243 0.0
C679 C 0.87841 0.31239 0.02615 0.0
C680 C 0.87153 0.33205 0.9965 0.0
C681 C 0.8616 0.29607 0.04177 0.0
C682 C 0.8382 0.29894 0.02686 0.0
Eu683 Eu 0.87172 0.38278 0.94772 0.0
N684 N 0.88761 0.34795 0.98044 0.0
C685 C 0.90209 0.30951 0.03873 0.0
C686 C 0.91059 0.34553 0.99383 0.0
C687 C 0.91825 0.32607 0.02214 0.0
H688 H 0.81293 0.37533 0.9283 0.0
H689 H 0.93654 0.32418 0.03243 0.0
H690 H 0.94885 0.40979 0.80766 0.0
H691 H 0.82139 0.46361 0.75221 0.0
H692 H 0.92299 0.35897 0.98507 0.0
H693 H 0.90805 0.29454 0.06114 0.0
H694 H 0.83911 0.42483 0.76521 0.0
H695 H 0.78355 0.34558 0.94587 0.0
H696 H 0.86661 0.28095 0.06474 0.0
H697 H 0.82554 0.28595 0.03853 0.0
H698 H 0.97688 0.44217 0.79904 0.0
H699 H 0.79469 0.30937 0.99232 0.0
H700 H 0.84632 0.49872 0.75697 0.0
N701 N 0.91905 0.43165 0.80043 0.0
C702 C 0.9108 0.45349 0.79077 0.0
C703 C 0.95836 0.44564 0.79872 0.0
C704 C 0.92621 0.47252 0.78751 0.0
C705 C 0.94244 0.42739 0.80362 0.0
C706 C 0.95024 0.46836 0.79182 0.0
N707 N 0.87222 0.43807 0.78695 0.0
C708 C 0.84944 0.44012 0.77223 0.0
C709 C 0.87785 0.47925 0.77425 0.0
C710 C 0.88677 0.45681 0.78444 0.0
C711 C 0.85386 0.48177 0.76488 0.0
C712 C 0.83968 0.46204 0.76268 0.0
H713 H 0.96269 0.48246 0.7885 0.0
H714 H 0.92883 0.50982 0.77676 0.0
H715 H 0.88657 0.51571 0.7651 0.0
O716 O 0.87701 0.39929 0.71988 0.0
O717 O 0.89495 0.42805 0.87263 0.0
O718 O 0.8629 0.41897 0.92003 0.0
O719 O 0.91414 0.40035 0.73369 0.0
O720 O 0.85358 0.38788 0.81007 0.0
O721 O 0.84325 0.3991 0.89478 0.0
O722 O 0.88695 0.39451 0.02426 0.0
O723 O 0.87603 0.35181 0.89183 0.0
O724 O 0.89262 0.36227 0.81072 0.0
O725 O 0.8502 0.38569 0.0184 0.0
O726 O 0.91061 0.3926 0.93358 0.0
O727 O 0.91826 0.38198 0.8463 0.0
C728 C 0.87928 0.43388 0.90854 0.0
C729 C 0.90128 0.37955 0.65838 0.0
C730 C 0.89787 0.36562 0.56657 0.0
C731 C 0.91054 0.34556 0.58116 0.0
C732 C 0.91364 0.3593 0.67183 0.0
C733 C 0.91815 0.34239 0.63341 0.0
C734 C 0.89335 0.38268 0.60575 0.0
C735 C 0.83755 0.39289 0.84567 0.0
C736 C 0.89763 0.39791 0.69847 0.0
C737 C 0.91724 0.49496 0.77901 0.0
C738 C 0.89316 0.49832 0.77243 0.0
C739 C 0.88478 0.34654 0.84477 0.0
C740 C 0.86187 0.40502 0.09776 0.0
C741 C 0.86327 0.40791 0.19477 0.0
C742 C 0.84873 0.42761 0.19222 0.0
C743 C 0.84618 0.42379 0.09633 0.0
C744 C 0.87028 0.3971 0.14705 0.0
C745 C 0.84026 0.43546 0.14323 0.0
C746 C 0.92519 0.38603 0.89536 0.0
C747 C 0.86737 0.3914 0.04973 0.0
H748 H 0.91494 0.33237 0.55197 0.0
H749 H 0.92022 0.3568 0.71188 0.0
H750 H 0.92788 0.3269 0.644 0.0
H751 H 0.88369 0.39829 0.59555 0.0
H752 H 0.84294 0.43625 0.22823 0.0
H753 H 0.83835 0.42933 0.05916 0.0
H754 H 0.88157 0.38192 0.14836 0.0
H755 H 0.82846 0.45018 0.14176 0.0
Eu756 Eu 0.37061 0.13816 0.55622 0.0
C757 C 0.44663 0.10673 0.72038 0.0
N758 N 0.42571 0.09742 0.70643 0.0
C759 C 0.44174 0.05895 0.71 0.0
C760 C 0.46618 0.09227 0.72908 0.0
C761 C 0.42278 0.07393 0.70274 0.0
C762 C 0.46359 0.06816 0.72301 0.0
C763 C 0.46991 0.14071 0.74222 0.0
C764 C 0.4483 0.1307 0.72765 0.0
C765 C 0.48951 0.12638 0.75001 0.0
C766 C 0.48748 0.10222 0.74473 0.0
Eu767 Eu 0.39412 0.12319 0.70036 0.0
N768 N 0.42868 0.14403 0.72292 0.0
C769 C 0.47103 0.16473 0.75077 0.0
C770 C 0.42943 0.16716 0.736 0.0
C771 C 0.45064 0.17796 0.74826 0.0
H772 H 0.40574 0.0667 0.69531 0.0
H773 H 0.45112 0.19638 0.75738 0.0
H774 H 0.36866 0.19741 0.55569 0.0
H775 H 0.30026 0.07644 0.52101 0.0
H776 H 0.41381 0.17747 0.73907 0.0
H777 H 0.48735 0.17308 0.76152 0.0
H778 H 0.34129 0.0893 0.53108 0.0
H779 H 0.43939 0.04031 0.70654 0.0
H780 H 0.50618 0.13377 0.76163 0.0
H781 H 0.50256 0.09134 0.75267 0.0
H782 H 0.33923 0.22825 0.56609 0.0
H783 H 0.47823 0.0565 0.72923 0.0
H784 H 0.26815 0.10504 0.5303 0.0
N785 N 0.34407 0.16972 0.56089 0.0
C786 C 0.32106 0.16385 0.55857 0.0
C787 C 0.33388 0.21019 0.56503 0.0
C788 C 0.30352 0.18104 0.56188 0.0
C789 C 0.35061 0.19257 0.56061 0.0
C790 C 0.31023 0.20438 0.56666 0.0
N791 N 0.33215 0.12436 0.5482 0.0
C792 C 0.32729 0.10172 0.53588 0.0
C793 C 0.29134 0.13414 0.54531 0.0
C794 C 0.31494 0.14065 0.5505 0.0
C795 C 0.28608 0.11071 0.53502 0.0
C796 C 0.30414 0.09448 0.52985 0.0
H797 H 0.29729 0.2181 0.56946 0.0
H798 H 0.26621 0.18746 0.56161 0.0
H799 H 0.25559 0.14645 0.54679 0.0
O800 O 0.37657 0.11996 0.48096 0.0
O801 O 0.34574 0.12524 0.62289 0.0
O802 O 0.36107 0.14404 0.69375 0.0
O803 O 0.3678 0.1564 0.48027 0.0
O804 O 0.38508 0.10201 0.56357 0.0
O805 O 0.37728 0.09301 0.65119 0.0
O806 O 0.40007 0.12458 0.78627 0.0
O807 O 0.41795 0.11526 0.63043 0.0
O808 O 0.40964 0.14508 0.57365 0.0
O809 O 0.37418 0.101 0.75409 0.0
O810 O 0.3843 0.16196 0.68626 0.0
O811 O 0.39135 0.1668 0.59661 0.0
C812 C 0.34277 0.13608 0.66864 0.0
C813 C 0.39112 0.14222 0.41034 0.0
C814 C 0.40294 0.13898 0.31755 0.0
C815 C 0.42514 0.14745 0.33156 0.0
C816 C 0.41335 0.15072 0.42371 0.0
C817 C 0.43023 0.15342 0.3843 0.0
C818 C 0.38585 0.13659 0.3571 0.0
C819 C 0.38054 0.08672 0.60061 0.0
C820 C 0.37362 0.13839 0.45178 0.0
C821 C 0.27992 0.1745 0.55873 0.0
C822 C 0.27385 0.15114 0.55017 0.0
C823 C 0.42495 0.13105 0.59673 0.0
C824 C 0.36822 0.11593 0.84177 0.0
C825 C 0.36296 0.12179 0.93771 0.0
C826 C 0.33926 0.12696 0.9281 0.0
C827 C 0.34455 0.12106 0.83339 0.0
C828 C 0.37738 0.11653 0.89383 0.0
C829 C 0.33023 0.12671 0.87633 0.0
C830 C 0.38861 0.17546 0.64476 0.0
C831 C 0.38369 0.10972 0.7971 0.0
H832 H 0.43854 0.1494 0.3016 0.0
H833 H 0.41768 0.15507 0.46459 0.0
H834 H 0.44739 0.15993 0.39474 0.0
H835 H 0.36876 0.12976 0.34675 0.0
H836 H 0.32747 0.13065 0.96064 0.0
H837 H 0.3371 0.12046 0.7938 0.0
H838 H 0.39578 0.11289 0.89993 0.0
H839 H 0.31194 0.13056 0.86956 0.0
Eu840 Eu 0.65587 0.64156 0.45502 0.0
C841 C 0.58758 0.58824 0.28622 0.0
N842 N 0.60975 0.58367 0.30269 0.0
C843 C 0.60314 0.54267 0.29226 0.0
C844 C 0.57247 0.57 0.2708 0.0
C845 C 0.61783 0.5613 0.3048 0.0
C846 C 0.58034 0.54702 0.27523 0.0
C847 C 0.55834 0.61655 0.25957 0.0
C848 C 0.58063 0.61126 0.28048 0.0
C849 C 0.54352 0.59846 0.24304 0.0
C850 C 0.55046 0.57525 0.24909 0.0
Eu851 Eu 0.63401 0.61623 0.31858 0.0
N852 N 0.59593 0.62846 0.29367 0.0
C853 C 0.55179 0.63991 0.25469 0.0
C854 C 0.58989 0.65125 0.28679 0.0
C855 C 0.56763 0.65733 0.26851 0.0
H856 H 0.63586 0.55773 0.31463 0.0
H857 H 0.56295 0.67547 0.26375 0.0
H858 H 0.65672 0.7 0.45052 0.0
H859 H 0.72798 0.57865 0.45869 0.0
H860 H 0.60219 0.66494 0.29383 0.0
H861 H 0.53472 0.64466 0.23937 0.0
H862 H 0.68705 0.59094 0.45132 0.0
H863 H 0.60962 0.52498 0.2944 0.0
H864 H 0.52649 0.60223 0.2261 0.0
H865 H 0.53875 0.56148 0.23644 0.0
H866 H 0.68589 0.7314 0.45798 0.0
H867 H 0.56919 0.53256 0.2641 0.0
H868 H 0.75911 0.60818 0.46819 0.0
N869 N 0.682 0.67293 0.45514 0.0
C870 C 0.7049 0.66713 0.46183 0.0
C871 C 0.69149 0.71345 0.45775 0.0
C872 C 0.72212 0.68458 0.46514 0.0
C873 C 0.67504 0.69562 0.45332 0.0
C874 C 0.71513 0.70794 0.46314 0.0
N875 N 0.69446 0.62697 0.45765 0.0
C876 C 0.7002 0.60395 0.45639 0.0
C877 C 0.73506 0.63732 0.46705 0.0
C878 C 0.7113 0.64361 0.46328 0.0
C879 C 0.74103 0.61368 0.46565 0.0
C880 C 0.72352 0.59696 0.4602 0.0
H881 H 0.72783 0.72185 0.46614 0.0
H882 H 0.75918 0.69145 0.47274 0.0
H883 H 0.77049 0.65018 0.47398 0.0
O884 O 0.65918 0.62782 0.53555 0.0
O885 O 0.67992 0.64467 0.38091 0.0
O886 O 0.6701 0.60992 0.34883 0.0
O887 O 0.65267 0.66451 0.52387 0.0
O888 O 0.6413 0.60497 0.45923 0.0
O889 O 0.64682 0.5878 0.3772 0.0
O890 O 0.6428 0.63244 0.24212 0.0
O891 O 0.60491 0.61677 0.37919 0.0
O892 O 0.61573 0.64418 0.44299 0.0
O893 O 0.64631 0.59538 0.25167 0.0
O894 O 0.64128 0.6565 0.32539 0.0
O895 O 0.63292 0.66642 0.41223 0.0
C896 C 0.68446 0.62737 0.34831 0.0
C897 C 0.63831 0.64755 0.60198 0.0
C898 C 0.63112 0.64426 0.69704 0.0
C899 C 0.60703 0.64696 0.68707 0.0
C900 C 0.61429 0.65011 0.59255 0.0
C901 C 0.59874 0.64989 0.63513 0.0
C902 C 0.64666 0.64462 0.65399 0.0
C903 C 0.64338 0.58632 0.42925 0.0
C904 C 0.65501 0.64781 0.55823 0.0
C905 C 0.74572 0.67826 0.47015 0.0
C906 C 0.75216 0.65473 0.471 0.0
C907 C 0.59979 0.63127 0.418 0.0
C908 C 0.63548 0.60867 0.16648 0.0
C909 C 0.63449 0.61342 0.07037 0.0
C910 C 0.61378 0.60045 0.06784 0.0
C911 C 0.6152 0.59501 0.16271 0.0
C912 C 0.64528 0.61775 0.11977 0.0
C913 C 0.60424 0.59122 0.11391 0.0
C914 C 0.63575 0.67219 0.3625 0.0
C915 C 0.6469 0.61264 0.21847 0.0
H916 H 0.59454 0.64641 0.71928 0.0
H917 H 0.60761 0.65229 0.55245 0.0
H918 H 0.58019 0.65186 0.62786 0.0
H919 H 0.66529 0.64285 0.66085 0.0
H920 H 0.60533 0.59699 0.02991 0.0
H921 H 0.60807 0.58673 0.19705 0.0
H922 H 0.66126 0.62784 0.12172 0.0
H923 H 0.58856 0.58074 0.11172 0.0
Eu924 Eu 0.13323 0.898 0.21034 0.0
C925 C 0.17014 0.83447 0.02272 0.0
N926 N 0.17724 0.85492 0.04487 0.0
C927 C 0.21731 0.84323 0.03747 0.0
C928 C 0.18662 0.81746 1.00741 0.0
C929 C 0.20044 0.85982 0.0507 0.0
C930 C 0.21038 0.8219 0.01595 0.0
C931 C 0.13873 0.80984 0.98988 0.0
C932 C 0.14637 0.8308 0.01372 0.0
C933 C 0.15513 0.79293 0.97466 0.0
C934 C 0.17899 0.79682 0.98293 0.0
Eu935 Eu 0.14764 0.88245 0.06082 0.0
N936 N 0.13086 0.84795 0.02628 0.0
C937 C 0.11484 0.80676 0.98042 0.0
C938 C 0.10772 0.8455 0.01417 0.0
C939 C 0.0993 0.82472 0.99234 0.0
H940 H 0.20622 0.8767 0.06409 0.0
H941 H 0.08088 0.82281 0.98345 0.0
H942 H 0.07417 0.90092 0.22158 0.0
H943 H 0.19747 0.96433 0.26085 0.0
H944 H 0.09565 0.85965 0.0194 0.0
H945 H 0.1083 0.79085 0.96247 0.0
H946 H 0.18312 0.9244 0.24286 0.0
H947 H 0.23567 0.84712 0.04273 0.0
H948 H 0.14955 0.77684 0.95595 0.0
H949 H 0.19143 0.78365 0.9706 0.0
H950 H 0.04405 0.93098 0.23151 0.0
H951 H 0.22353 0.80922 1.0049 0.0
H952 H 0.16978 0.99748 0.25891 0.0
N953 N 0.10226 0.92515 0.21641 0.0
C954 C 0.10887 0.94774 0.22353 0.0
C955 C 0.0621 0.93601 0.22697 0.0
C956 C 0.09204 0.96554 0.22891 0.0
C957 C 0.07931 0.91899 0.22076 0.0
C958 C 0.06839 0.95943 0.22927 0.0
N959 N 0.14839 0.93534 0.22699 0.0
C960 C 0.17121 0.93892 0.24065 0.0
C961 C 0.13977 0.97591 0.24058 0.0
C962 C 0.1325 0.95293 0.2299 0.0
C963 C 0.16352 0.98006 0.25046 0.0
C964 C 0.17924 0.96141 0.25147 0.0
H965 H 0.05495 0.97255 0.23424 0.0
H966 H 0.08661 1.00255 0.24044 0.0
H967 H 0.12837 0.01164 0.25017 0.0
O968 O 0.15106 0.88455 0.28156 0.0
O969 O 0.14727 0.92525 0.15072 0.0
O970 O 0.12746 0.91551 0.07662 0.0
O971 O 0.11765 0.90127 0.28893 0.0
O972 O 0.16888 0.88207 0.19652 0.0
O973 O 0.17744 0.89693 0.11429 0.0
O974 O 0.14265 0.88302 0.97402 0.0
O975 O 0.15166 0.85298 0.12132 0.0
O976 O 0.12371 0.86082 0.18458 0.0
O977 O 0.16911 0.90528 0.01186 0.0
O978 O 0.10859 0.8897 0.0764 0.0
O979 O 0.10217 0.8821 0.16608 0.0
C980 C 0.13726 0.93158 0.10569 0.0
C981 C 0.12705 0.87377 0.35397 0.0
C982 C 0.1251 0.86181 0.44728 0.0
C983 C 0.10976 0.84379 0.43188 0.0
C984 C 0.11218 0.85543 0.33963 0.0
C985 C 0.10354 0.84058 0.37855 0.0
C986 C 0.13355 0.87694 0.40768 0.0
C987 C 0.18416 0.88952 0.16191 0.0
C988 C 0.13443 0.89069 0.31386 0.0
C989 C 0.09931 0.98865 0.23682 0.0
C990 C 0.1231 0.99382 0.24257 0.0
C991 C 0.13618 0.84587 0.15628 0.0
C992 C 0.16544 0.90799 0.9152 0.0
C993 C 0.16388 0.90681 0.81751 0.0
C994 C 0.17836 0.92659 0.81648 0.0
C995 C 0.1797 0.92777 0.91266 0.0
C996 C 0.1574 0.89762 0.86747 0.0
C997 C 0.18605 0.93699 0.86362 0.0
C998 C 0.09458 0.88515 0.11688 0.0
C999 C 0.15889 0.89861 0.96778 0.0
H1000 H 0.1023 0.83223 0.46116 0.0
H1001 H 0.10691 0.85292 0.2985 0.0
H1002 H 0.09177 0.82664 0.36744 0.0
H1003 H 0.1452 0.89108 0.41836 0.0
H1004 H 0.18422 0.93385 0.77916 0.0
H1005 H 0.18594 0.93621 0.94865 0.0
H1006 H 0.14611 0.88253 0.86931 0.0
H1007 H 0.19716 0.9522 0.86213 0.0
Eu1008 Eu 0.86992 0.63713 0.0568 0.0
C1009 C 0.93875 0.60684 0.24788 0.0
N1010 N 0.92111 0.59766 0.21811 0.0
C1011 C 0.93927 0.56005 0.2208 0.0
C1012 C 0.95744 0.59271 0.26529 0.0
C1013 C 0.9208 0.57451 0.20573 0.0
C1014 C 0.95768 0.56917 0.25074 0.0
C1015 C 0.95622 0.64017 0.29252 0.0
C1016 C 0.93807 0.63041 0.26144 0.0
C1017 C 0.97465 0.62601 0.31039 0.0
C1018 C 0.9752 0.60238 0.29697 0.0
Eu1019 Eu 0.88881 0.62223 0.20439 0.0
N1020 N 0.91931 0.6435 0.24627 0.0
C1021 C 0.95511 0.6638 0.30579 0.0
C1022 C 0.91755 0.66623 0.2622 0.0
C1023 C 0.93567 0.67685 0.29064 0.0
H1024 H 0.90613 0.56684 0.18562 0.0
H1025 H 0.93426 0.69494 0.30246 0.0
H1026 H 0.86658 0.6963 0.05978 0.0
H1027 H 0.80148 0.57408 0.01442 0.0
H1028 H 0.90191 0.6762 0.25546 0.0
H1029 H 0.96886 0.67196 0.32901 0.0
H1030 H 0.84218 0.5878 0.02695 0.0
H1031 H 0.93899 0.54174 0.21044 0.0
H1032 H 0.98864 0.63322 0.33449 0.0
H1033 H 0.98953 0.59168 0.31098 0.0
H1034 H 0.83619 0.72626 0.06764 0.0
H1035 H 0.97184 0.55784 0.26302 0.0
H1036 H 0.76858 0.60168 0.02558 0.0
N1037 N 0.84268 0.66794 0.06317 0.0
C1038 C 0.81984 0.66147 0.05923 0.0
C1039 C 0.83137 0.70809 0.06698 0.0
C1040 C 0.80183 0.67818 0.06231 0.0
C1041 C 0.84862 0.69095 0.06364 0.0
C1042 C 0.80789 0.70167 0.06768 0.0
N1043 N 0.83199 0.62234 0.04646 0.0
C1044 C 0.8278 0.59979 0.03205 0.0
C1045 C 0.79097 0.63115 0.04296 0.0
C1046 C 0.81437 0.63819 0.04938 0.0
C1047 C 0.78635 0.60775 0.03095 0.0
C1048 C 0.80486 0.59208 0.02474 0.0
H1049 H 0.79457 0.71506 0.06989 0.0
H1050 H 0.76439 0.68367 0.06071 0.0
H1051 H 0.7549 0.64254 0.04393 0.0
O1052 O 0.87552 0.61966 0.98019 0.0
O1053 O 0.84545 0.62186 0.1211 0.0
O1054 O 0.85485 0.64189 0.19505 0.0
O1055 O 0.86674 0.65612 0.98209 0.0
O1056 O 0.88698 0.60213 0.06517 0.0
O1057 O 0.87635 0.59165 0.15012 0.0
O1058 O 0.89058 0.62211 0.29085 0.0
O1059 O 0.91856 0.61975 0.14402 0.0
O1060 O 0.90913 0.64281 0.071 0.0
O1061 O 0.86694 0.59839 0.25095 0.0
O1062 O 0.87905 0.66042 0.18712 0.0
O1063 O 0.88969 0.6659 0.09954 0.0
C1064 C 0.83874 0.63268 0.16489 0.0
C1065 C 0.88811 0.64268 0.90811 0.0
C1066 C 0.89718 0.63942 0.81368 0.0
C1067 C 0.91781 0.65203 0.82244 0.0
C1068 C 0.90883 0.65521 0.91635 0.0
C1069 C 0.92361 0.65983 0.87359 0.0
C1070 C 0.88235 0.63471 0.85669 0.0
C1071 C 0.8818 0.58617 0.10014 0.0
C1072 C 0.87199 0.63835 0.95224 0.0
C1073 C 0.77843 0.67108 0.05795 0.0
C1074 C 0.77302 0.64765 0.0482 0.0
C1075 C 0.92453 0.63186 0.10151 0.0
C1076 C 0.85933 0.60877 0.34245 0.0
C1077 C 0.85487 0.61311 0.43884 0.0
C1078 C 0.83053 0.61327 0.43208 0.0
C1079 C 0.83497 0.60872 0.33653 0.0
C1080 C 0.86918 0.61071 0.39385 0.0
C1081 C 0.82072 0.61066 0.38135 0.0
C1082 C 0.88652 0.67383 0.14817 0.0
C1083 C 0.87508 0.60591 0.29663 0.0
H1084 H 0.92946 0.65574 0.78968 0.0
H1085 H 0.91342 0.66157 0.95568 0.0
H1086 H 0.93957 0.66953 0.88007 0.0
H1087 H 0.86636 0.62499 0.8501 0.0
H1088 H 0.81912 0.61459 0.46626 0.0
H1089 H 0.82696 0.60683 0.29762 0.0
H1090 H 0.88801 0.61028 0.39887 0.0
H1091 H 0.80198 0.60957 0.37695 0.0
Eu1092 Eu 0.13188 0.11265 0.80798 0.0
C1093 C 0.17805 0.17907 1.00005 0.0
N1094 N 0.18435 0.15882 0.97591 0.0
C1095 C 0.22488 0.16827 0.98814 0.0
C1096 C 0.19509 0.19499 0.01822 0.0
C1097 C 0.20741 0.15284 0.97175 0.0
C1098 C 0.2187 0.18955 0.011 0.0
C1099 C 0.14751 0.20384 0.03597 0.0
C1100 C 0.15451 0.18351 0.00873 0.0
C1101 C 0.16443 0.21984 0.05344 0.0
C1102 C 0.18814 0.21549 0.04432 0.0
Eu1103 Eu 0.15334 0.13356 0.95222 0.0
N1104 N 0.13845 0.16789 0.99096 0.0
C1105 C 0.12366 0.20758 0.0447 0.0
C1106 C 0.11521 0.17123 1.00026 0.0
C1107 C 0.10745 0.19123 0.02662 0.0
H1108 H 0.21245 0.13589 0.9568 0.0
H1109 H 0.08899 0.19387 0.03358 0.0
H1110 H 0.07407 0.10506 0.81857 0.0
H1111 H 0.20205 0.04712 0.7959 0.0
H1112 H 0.10259 0.15838 0.9883 0.0
H1113 H 0.1176 0.22304 0.06532 0.0
H1114 H 0.18617 0.08601 0.81 0.0
H1115 H 0.24308 0.16353 0.98403 0.0
H1116 H 0.15935 0.23566 0.074 0.0
H1117 H 0.20099 0.22794 0.05832 0.0
H1118 H 0.04557 0.07301 0.81346 0.0
H1119 H 0.23228 0.20134 0.02435 0.0
H1120 H 0.17557 0.01381 0.78102 0.0
N1121 N 0.10351 0.08319 0.80791 0.0
C1122 C 0.1115 0.06135 0.7971 0.0
C1123 C 0.06405 0.06944 0.80934 0.0
C1124 C 0.09579 0.04254 0.79301 0.0
C1125 C 0.08022 0.08752 0.81335 0.0
C1126 C 0.07186 0.04684 0.79918 0.0
N1127 N 0.15057 0.07581 0.80085 0.0
C1128 C 0.17415 0.07214 0.80222 0.0
C1129 C 0.14418 0.03473 0.78621 0.0
C1130 C 0.13559 0.05755 0.79349 0.0
C1131 C 0.16834 0.0311 0.78633 0.0
C1132 C 0.18334 0.04985 0.79478 0.0
H1133 H 0.05927 0.03282 0.79623 0.0
H1134 H 0.09258 1.00537 0.78046 0.0
H1135 H 0.13484 0.99853 0.77466 0.0
O1136 O 0.14204 0.11128 0.72384 0.0
O1137 O 0.12877 0.0875 0.87961 0.0
O1138 O 0.16237 0.09907 0.91561 0.0
O1139 O 0.10594 0.11611 0.7452 0.0
O1140 O 0.16981 0.12352 0.80424 0.0
O1141 O 0.18234 0.13428 0.88945 0.0
O1142 O 0.13911 0.12375 0.03034 0.0
O1143 O 0.14331 0.16477 0.90289 0.0
O1144 O 0.13625 0.15287 0.81511 0.0
O1145 O 0.17494 0.11618 0.0111 0.0
O1146 O 0.11494 0.12256 0.93919 0.0
O1147 O 0.10595 0.1342 0.85413 0.0
C1148 C 0.14601 0.08339 0.9128 0.0
C1149 C 0.11785 0.13223 0.6642 0.0
C1150 C 0.11732 0.14104 0.56924 0.0
C1151 C 0.10744 0.16294 0.58133 0.0
C1152 C 0.1085 0.15429 0.67531 0.0
C1153 C 0.10342 0.16958 0.63397 0.0
C1154 C 0.12263 0.12583 0.61143 0.0
C1155 C 0.1859 0.13086 0.83791 0.0
C1156 C 0.1209 0.11504 0.70664 0.0
C1157 C 0.1044 0.02001 0.78388 0.0
C1158 C 0.12849 0.01613 0.78049 0.0
C1159 C 0.13951 0.16927 0.85215 0.0
C1160 C 0.16722 0.12666 0.10022 0.0
C1161 C 0.16198 0.13232 0.19571 0.0
C1162 C 0.18285 0.14517 0.19758 0.0
C1163 C 0.18831 0.13914 0.10376 0.0
C1164 C 0.15413 0.12308 0.14677 0.0
C1165 C 0.19587 0.14855 0.15183 0.0
C1166 C 0.09964 0.12986 0.90321 0.0
C1167 C 0.15935 0.11697 0.04852 0.0
H1168 H 0.10238 0.17493 0.55019 0.0
H1169 H 0.10452 0.15941 0.71579 0.0
H1170 H 0.09586 0.18644 0.64265 0.0
H1171 H 0.13028 0.10891 0.60355 0.0
H1172 H 0.18941 0.1522 0.23485 0.0
H1173 H 0.19937 0.14138 0.06975 0.0
H1174 H 0.138 0.11324 0.14495 0.0
H1175 H 0.2121 0.15817 0.15376 0.0
Eu1176 Eu 0.63127 0.39959 0.71914 0.0
C1177 C 0.66532 0.33605 0.52328 0.0
N1178 N 0.67316 0.35478 0.55136 0.0
C1179 C 0.71238 0.34012 0.5476 0.0
C1180 C 0.68094 0.31845 0.5066 0.0
C1181 C 0.69643 0.35742 0.56201 0.0
C1182 C 0.7046 0.3205 0.51996 0.0
C1183 C 0.63325 0.31529 0.48099 0.0
C1184 C 0.64159 0.33439 0.51103 0.0
C1185 C 0.64892 0.29815 0.46316 0.0
C1186 C 0.67261 0.29957 0.47649 0.0
Eu1187 Eu 0.64509 0.38386 0.5684 0.0
N1188 N 0.62677 0.35151 0.52753 0.0
C1189 C 0.60936 0.31394 0.46953 0.0
C1190 C 0.60356 0.35063 0.51474 0.0
C1191 C 0.59447 0.33167 0.48653 0.0
H1192 H 0.70311 0.37302 0.58023 0.0
H1193 H 0.57605 0.33103 0.47677 0.0
H1194 H 0.57145 0.40241 0.71571 0.0
H1195 H 0.69157 0.46622 0.78649 0.0
H1196 H 0.59197 0.36478 0.52418 0.0
H1197 H 0.60228 0.29943 0.447 0.0
H1198 H 0.67839 0.42616 0.7645 0.0
H1199 H 0.73075 0.3422 0.55677 0.0
H1200 H 0.64277 0.28343 0.43993 0.0
H1201 H 0.68438 0.28597 0.46322 0.0
H1202 H 0.54119 0.43244 0.70738 0.0
H1203 H 0.71708 0.30727 0.50816 0.0
H1204 H 0.66401 0.49925 0.77683 0.0
N1205 N 0.59977 0.42648 0.7157 0.0
C1206 C 0.60585 0.44917 0.7237 0.0
C1207 C 0.55936 0.43743 0.71048 0.0
C1208 C 0.58889 0.46699 0.72218 0.0
C1209 C 0.57673 0.42037 0.71345 0.0
C1210 C 0.56552 0.46089 0.7135 0.0
N1211 N 0.64484 0.43704 0.73906 0.0
C1212 C 0.66673 0.44072 0.75877 0.0
C1213 C 0.63534 0.47753 0.74986 0.0
C1214 C 0.62883 0.45451 0.73733 0.0
C1215 C 0.65833 0.4818 0.76673 0.0
C1216 C 0.674 0.46323 0.77199 0.0
H1217 H 0.55197 0.47406 0.71203 0.0
H1218 H 0.5828 0.50409 0.73022 0.0
H1219 H 0.62344 0.51328 0.75451 0.0
O1220 O 0.64858 0.38918 0.79357 0.0
O1221 O 0.64605 0.42669 0.66025 0.0
O1222 O 0.62567 0.41696 0.58679 0.0
O1223 O 0.61335 0.40224 0.79516 0.0
O1224 O 0.66721 0.38436 0.70476 0.0
O1225 O 0.67542 0.398 0.62084 0.0
O1226 O 0.63961 0.38638 0.48206 0.0
O1227 O 0.64848 0.35311 0.62609 0.0
O1228 O 0.62472 0.36124 0.69865 0.0
O1229 O 0.66771 0.40623 0.52065 0.0
O1230 O 0.6065 0.3918 0.58734 0.0
O1231 O 0.60217 0.38062 0.67512 0.0
C1232 C 0.63659 0.43281 0.6144 0.0
C1233 C 0.62414 0.37671 0.86363 0.0
C1234 C 0.62448 0.36406 0.95657 0.0
C1235 C 0.60961 0.34553 0.94205 0.0
C1236 C 0.60952 0.35804 0.85027 0.0
C1237 C 0.60236 0.34251 0.88935 0.0
C1238 C 0.63162 0.37973 0.91671 0.0
C1239 C 0.68223 0.39131 0.66897 0.0
C1240 C 0.63053 0.39385 0.82308 0.0
C1241 C 0.59557 0.49017 0.73177 0.0
C1242 C 0.61871 0.49541 0.7458 0.0
C1243 C 0.6361 0.3464 0.66766 0.0
C1244 C 0.6635 0.41057 0.42431 0.0
C1245 C 0.66268 0.40951 0.32661 0.0
C1246 C 0.67649 0.42977 0.32625 0.0
C1247 C 0.6772 0.43076 0.42252 0.0
C1248 C 0.65615 0.40003 0.37622 0.0
C1249 C 0.68356 0.44028 0.37379 0.0
C1250 C 0.59356 0.38422 0.62711 0.0
C1251 C 0.65683 0.40089 0.47644 0.0
H1252 H 0.60322 0.33347 0.97161 0.0
H1253 H 0.60329 0.3558 0.80981 0.0
H1254 H 0.59089 0.32823 0.87891 0.0
H1255 H 0.64299 0.39419 0.92674 0.0
H1256 H 0.68227 0.43732 0.28917 0.0
H1257 H 0.68286 0.43931 0.45886 0.0
H1258 H 0.64537 0.38455 0.37748 0.0
H1259 H 0.69417 0.45586 0.37285 0.0
Eu1260 Eu 0.36695 0.87743 0.45553 0.0
C1261 C 0.43347 0.92666 0.27551 0.0
N1262 N 0.41203 0.93141 0.29616 0.0
C1263 C 0.41881 0.97236 0.28641 0.0
C1264 C 0.44849 0.94481 0.25979 0.0
C1265 C 0.40411 0.95382 0.29905 0.0
C1266 C 0.44121 0.96785 0.26728 0.0
C1267 C 0.4603 0.89827 0.2379 0.0
C1268 C 0.43962 0.90358 0.26574 0.0
C1269 C 0.47539 0.9163 0.22296 0.0
C1270 C 0.46969 0.93947 0.23465 0.0
Eu1271 Eu 0.38859 0.89855 0.31427 0.0
N1272 N 0.42491 0.88634 0.28128 0.0
C1273 C 0.46495 0.87501 0.2248 0.0
C1274 C 0.42933 0.86365 0.26847 0.0
C1275 C 0.44953 0.85761 0.24069 0.0
H1276 H 0.38623 0.95754 0.30948 0.0
H1277 H 0.45295 0.8396 0.23062 0.0
H1278 H 0.3617 0.81908 0.4431 0.0
H1279 H 0.30037 0.94549 0.47216 0.0
H1280 H 0.41699 0.85021 0.27808 0.0
H1281 H 0.48051 0.87028 0.20286 0.0
H1282 H 0.34033 0.93022 0.46526 0.0
H1283 H 0.41259 0.99011 0.28987 0.0
H1284 H 0.49144 0.91253 0.20199 0.0
H1285 H 0.48145 0.95319 0.22241 0.0
H1286 H 0.32999 0.79019 0.44061 0.0
H1287 H 0.45232 0.98226 0.25609 0.0
H1288 H 0.26692 0.91832 0.47249 0.0
N1289 N 0.33872 0.8481 0.44891 0.0
C1290 C 0.3163 0.85559 0.45559 0.0
C1291 C 0.32591 0.80852 0.4439 0.0
C1292 C 0.2977 0.83955 0.45497 0.0
C1293 C 0.34383 0.82498 0.44448 0.0
C1294 C 0.30275 0.81583 0.44873 0.0
N1295 N 0.32989 0.89495 0.46031 0.0
C1296 C 0.32605 0.91826 0.46486 0.0
C1297 C 0.28857 0.88752 0.46566 0.0
C1298 C 0.31177 0.87951 0.46141 0.0
C1299 C 0.28452 0.91152 0.46936 0.0
C1300 C 0.30334 0.92693 0.46902 0.0
H1301 H 0.28892 0.80299 0.44818 0.0
H1302 H 0.26019 0.83549 0.46005 0.0
H1303 H 0.25221 0.87734 0.46877 0.0
O1304 O 0.36206 0.89032 0.53698 0.0
O1305 O 0.34326 0.87721 0.37934 0.0
O1306 O 0.35394 0.91119 0.34304 0.0
O1307 O 0.36911 0.85383 0.52306 0.0
O1308 O 0.38589 0.91167 0.45399 0.0
O1309 O 0.37807 0.92849 0.37323 0.0
O1310 O 0.36756 0.8821 0.25057 0.0
O1311 O 0.41921 0.8887 0.3669 0.0
O1312 O 0.40729 0.8798 0.4532 0.0
O1313 O 0.38886 0.91205 0.23363 0.0
O1314 O 0.38101 0.85897 0.32738 0.0
O1315 O 0.38871 0.85053 0.41575 0.0
C1316 C 0.3379 0.89547 0.34998 0.0
C1317 C 0.38116 0.86951 0.60596 0.0
C1318 C 0.38537 0.87173 0.70319 0.0
C1319 C 0.40881 0.86454 0.69763 0.0
C1320 C 0.40459 0.86275 0.60174 0.0
C1321 C 0.41834 0.86043 0.64736 0.0
C1322 C 0.37177 0.87445 0.65642 0.0
C1323 C 0.38235 0.93023 0.42519 0.0
C1324 C 0.36588 0.87009 0.55861 0.0
C1325 C 0.27468 0.84759 0.46042 0.0
C1326 C 0.27013 0.87146 0.46548 0.0
C1327 C 0.42373 0.8837 0.41708 0.0
C1328 C 0.35895 0.90432 0.1723 0.0
C1329 C 0.34675 0.9042 0.07889 0.0
C1330 C 0.33057 0.9219 0.09066 0.0
C1331 C 0.34348 0.92264 0.18243 0.0
C1332 C 0.36092 0.89537 0.12017 0.0
C1333 C 0.32905 0.9311 0.14204 0.0
C1334 C 0.3876 0.8444 0.36562 0.0
C1335 C 0.37509 0.8963 0.21398 0.0
H1336 H 0.41981 0.86148 0.73202 0.0
H1337 H 0.41206 0.85875 0.56328 0.0
H1338 H 0.43635 0.85489 0.64386 0.0
H1339 H 0.35379 0.88019 0.65879 0.0
H1340 H 0.31952 0.9291 0.05967 0.0
H1341 H 0.34314 0.93083 0.22114 0.0
H1342 H 0.37355 0.88178 0.11167 0.0
H1343 H 0.31699 0.94517 0.1503 0.0
H1344 H 0.16656 0.62532 0.767 0.0
H1345 H 0.12873 0.6903 0.75161 0.0
H1346 H 0.12217 0.6823 0.65599 0.0
H1347 H 0.19726 0.6299 0.65211 0.0
H1348 H 0.19661 0.59966 0.63276 0.0
H1349 H 0.19418 0.60756 0.70183 0.0
H1350 H 0.15512 0.58505 0.70852 0.0
H1351 H 0.15761 0.57678 0.63944 0.0
H1352 H 0.13173 0.59152 0.66255 0.0
H1353 H 0.1261 0.67132 0.5614 0.0
H1354 H 0.13856 0.65724 0.47374 0.0
H1355 H 0.17235 0.59788 0.54878 0.0
C1356 C 0.15616 0.63733 0.74365 0.0
C1357 C 0.14793 0.65832 0.76615 0.0
C1358 C 0.13498 0.67409 0.73465 0.0
C1359 C 0.13113 0.66965 0.68052 0.0
C1360 C 0.14027 0.64927 0.65871 0.0
C1361 C 0.15225 0.63316 0.68929 0.0
C1362 C 0.16245 0.614 0.65473 0.0
C1363 C 0.1892 0.61273 0.66073 0.0
C1364 C 0.15104 0.59044 0.66705 0.0
C1365 C 0.15539 0.62258 0.59999 0.0
C1366 C 0.14232 0.64274 0.6033 0.0
C1367 C 0.13574 0.65516 0.55819 0.0
C1368 C 0.14287 0.64689 0.50833 0.0
C1369 C 0.1564 0.62625 0.5037 0.0
C1370 C 0.16223 0.61378 0.55046 0.0
H1371 H 0.66439 0.92764 0.98774 0.0
H1372 H 0.66329 0.85778 0.05329 0.0
H1373 H 0.65396 0.84198 0.96423 0.0
H1374 H 0.61743 0.92025 0.89647 0.0
H1375 H 0.63047 0.93766 0.84502 0.0
H1376 H 0.63736 0.94336 0.91385 0.0
H1377 H 0.68145 0.93853 0.89343 0.0
H1378 H 0.67467 0.9327 0.82452 0.0
H1379 H 0.69166 0.91209 0.86238 0.0
H1380 H 0.64368 0.83387 0.86912 0.0
H1381 H 0.63232 0.8342 0.77384 0.0
H1382 H 0.64189 0.90894 0.76939 0.0
C1383 C 0.66266 0.90896 0.98331 0.0
C1384 C 0.66478 0.89395 0.02757 0.0
C1385 C 0.66163 0.86967 0.02014 0.0
C1386 C 0.65648 0.8605 0.96965 0.0
C1387 C 0.65468 0.8758 0.92696 0.0
C1388 C 0.65766 0.89951 0.93321 0.0
C1389 C 0.65428 0.91223 0.88103 0.0
C1390 C 0.63366 0.92938 0.88432 0.0
C1391 C 0.67686 0.92461 0.86435 0.0
C1392 C 0.64876 0.89196 0.84445 0.0
C1393 C 0.6491 0.87109 0.8718 0.0
C1394 C 0.64356 0.85004 0.84717 0.0
C1395 C 0.63716 0.85036 0.7933 0.0
C1396 C 0.6365 0.87154 0.76495 0.0
C1397 C 0.64265 0.89254 0.79047 0.0
H1398 H 0.42105 0.36577 0.22856 0.0
H1399 H 0.34808 0.3731 0.27313 0.0
H1400 H 0.33851 0.38426 0.18093 0.0
H1401 H 0.42539 0.4104 0.13847 0.0
H1402 H 0.44341 0.39447 0.09225 0.0
H1403 H 0.44412 0.38729 0.16181 0.0
H1404 H 0.43358 0.34442 0.13911 0.0
H1405 H 0.43281 0.35147 0.06925 0.0
H1406 H 0.40777 0.33832 0.10018 0.0
H1407 H 0.33762 0.39609 0.08174 0.0
H1408 H 0.34624 0.40822 0.98896 0.0
H1409 H 0.41862 0.38834 0.01134 0.0
C1410 C 0.40288 0.36902 0.21942 0.0
C1411 C 0.38547 0.36833 0.25906 0.0
C1412 C 0.36206 0.3738 0.24438 0.0
C1413 C 0.3563 0.37988 0.19168 0.0
C1414 C 0.37398 0.37984 0.15372 0.0
C1415 C 0.39673 0.37429 0.16715 0.0
C1416 C 0.4127 0.37527 0.11969 0.0
C1417 C 0.43256 0.39291 0.12861 0.0
C1418 C 0.42228 0.35092 0.10628 0.0
C1419 C 0.39571 0.38338 0.07768 0.0
C1420 C 0.37333 0.38569 0.09747 0.0
C1421 C 0.35504 0.39405 0.06581 0.0
C1422 C 0.36002 0.40075 0.01318 0.0
C1423 C 0.38309 0.39919 0.99337 0.0
C1424 C 0.40085 0.38974 0.02566 0.0
H1425 H 0.89937 0.11278 0.50449 0.0
H1426 H 0.88229 0.18648 0.50111 0.0
H1427 H 0.87173 0.18316 0.40645 0.0
H1428 H 0.92424 0.1085 0.37699 0.0
H1429 H 0.9117 0.08068 0.35992 0.0
H1430 H 0.91702 0.08806 0.42865 0.0
H1431 H 0.87357 0.08034 0.45073 0.0
H1432 H 0.86818 0.07269 0.3821 0.0
H1433 H 0.85107 0.09518 0.41352 0.0
H1434 H 0.86577 0.17302 0.3112 0.0
H1435 H 0.86072 0.15549 0.2222 0.0
H1436 H 0.88011 0.08798 0.28599 0.0
C1437 C 0.893 0.12812 0.48412 0.0
C1438 C 0.89216 0.15004 0.51025 0.0
C1439 C 0.88375 0.16965 0.48184 0.0
C1440 C 0.87754 0.16793 0.42803 0.0
C1441 C 0.87936 0.14638 0.40304 0.0
C1442 C 0.88643 0.12668 0.43018 0.0
C1443 C 0.88676 0.10566 0.39324 0.0
C1444 C 0.9114 0.09511 0.3895 0.0
C1445 C 0.86883 0.08739 0.41097 0.0
C1446 C 0.87943 0.11685 0.34109 0.0
C1447 C 0.87524 0.14035 0.34781 0.0
C1448 C 0.86881 0.15459 0.30544 0.0
C1449 C 0.86621 0.14449 0.25488 0.0
C1450 C 0.87003 0.12034 0.24693 0.0
C1451 C 0.87682 0.10643 0.29082 0.0
H1452 H 0.12191 0.34825 0.29182 0.0
H1453 H 0.17728 0.39251 0.23309 0.0
H1454 H 0.18159 0.41007 0.32318 0.0
H1455 H 0.09595 0.39084 0.37891 0.0
H1456 H 0.08851 0.36957 0.42858 0.0
H1457 H 0.0901 0.36115 0.35959 0.0
H1458 H 0.1199 0.32885 0.38434 0.0
H1459 H 0.11873 0.33746 0.45331 0.0
H1460 H 0.14637 0.33657 0.4193 0.0
H1461 H 0.18043 0.42148 0.42124 0.0
H1462 H 0.17041 0.42946 0.5157 0.0
H1463 H 0.11563 0.37771 0.50764 0.0
C1464 C 0.13499 0.36161 0.29799 0.0
C1465 C 0.14955 0.36884 0.25611 0.0
C1466 C 0.16606 0.38675 0.26503 0.0
C1467 C 0.16871 0.39664 0.31598 0.0
C1468 C 0.15454 0.3885 0.35696 0.0
C1469 C 0.13773 0.37167 0.34813 0.0
C1470 C 0.12417 0.36631 0.39802 0.0
C1471 C 0.09815 0.37234 0.39083 0.0
C1472 C 0.1275 0.34078 0.41471 0.0
C1473 C 0.13599 0.3827 0.43668 0.0
C1474 C 0.15362 0.39523 0.41255 0.0
C1475 C 0.16671 0.41174 0.4405 0.0
C1476 C 0.16109 0.41602 0.494 0.0
C1477 C 0.14256 0.40388 0.51835 0.0
C1478 C 0.13014 0.38682 0.48972 0.0
H1479 H 0.9099 0.85207 0.72433 0.0
H1480 H 0.85728 0.89984 0.78414 0.0
H1481 H 0.84522 0.90863 0.69199 0.0
H1482 H 0.92886 0.88784 0.6237 0.0
H1483 H 0.93465 0.86474 0.57676 0.0
H1484 H 0.93595 0.85902 0.64697 0.0
H1485 H 0.9056 0.82585 0.63509 0.0
H1486 H 0.90409 0.83165 0.56464 0.0
H1487 H 0.87784 0.83204 0.60399 0.0
H1488 H 0.84222 0.91591 0.59349 0.0
H1489 H 0.85063 0.92299 0.49819 0.0
H1490 H 0.90641 0.87217 0.50382 0.0
C1491 C 0.89568 0.86423 0.71823 0.0
C1492 C 0.88453 0.87517 0.76165 0.0
C1493 C 0.86586 0.89085 0.75168 0.0
C1494 C 0.85888 0.896 0.6994 0.0
C1495 C 0.87066 0.88526 0.65753 0.0
C1496 C 0.8887 0.86973 0.66647 0.0
C1497 C 0.90035 0.86255 0.61508 0.0
C1498 C 0.92648 0.86894 0.61568 0.0
C1499 C 0.89675 0.83647 0.60406 0.0
C1500 C 0.88674 0.87722 0.57592 0.0
C1501 C 0.86926 0.88976 0.60089 0.0
C1502 C 0.8555 0.90581 0.57334 0.0
C1503 C 0.86027 0.90964 0.51933 0.0
C1504 C 0.87875 0.89767 0.49409 0.0
C1505 C 0.89174 0.88092 0.52227 0.0
H1506 H 0.3688 0.63813 0.75341 0.0
H1507 H 0.36463 0.56286 0.76292 0.0
H1508 H 0.37443 0.56478 0.85874 0.0
H1509 H 0.41761 0.64512 0.84467 0.0
H1510 H 0.40628 0.67155 0.87364 0.0
H1511 H 0.39929 0.66416 0.80568 0.0
H1512 H 0.35519 0.66727 0.82747 0.0
H1513 H 0.36207 0.67438 0.89567 0.0
H1514 H 0.34329 0.65005 0.88069 0.0
H1515 H 0.38416 0.57496 0.95439 0.0
H1516 H 0.39603 0.59255 0.04044 0.0
H1517 H 0.39294 0.66111 0.96875 0.0
C1518 C 0.37023 0.62204 0.77552 0.0
C1519 C 0.3658 0.60032 0.75071 0.0
C1520 C 0.36763 0.5797 0.78125 0.0
C1521 C 0.37322 0.58061 0.83567 0.0
C1522 C 0.37693 0.60229 0.85921 0.0
C1523 C 0.37569 0.62264 0.83004 0.0
C1524 C 0.38042 0.64369 0.86503 0.0
C1525 C 0.40219 0.6569 0.84612 0.0
C1526 C 0.35896 0.65979 0.86733 0.0
C1527 C 0.38471 0.63198 0.91815 0.0
C1528 C 0.3825 0.60812 0.91414 0.0
C1529 C 0.38595 0.59365 0.958 0.0
C1530 C 0.39249 0.60381 1.00688 0.0
C1531 C 0.39561 0.62821 0.01144 0.0
C1532 C 0.39107 0.64238 0.96654 0.0
H1533 H 0.64678 0.1597 0.04235 0.0
H1534 H 0.60888 0.09832 0.98881 0.0
H1535 H 0.61169 0.08198 0.07902 0.0
H1536 H 0.68541 0.1319 0.13185 0.0
H1537 H 0.68429 0.15479 0.18108 0.0
H1538 H 0.67949 0.16145 0.11194 0.0
H1539 H 0.63963 0.18018 0.13537 0.0
H1540 H 0.64424 0.17348 0.20466 0.0
H1541 H 0.61824 0.16343 0.17103 0.0
H1542 H 0.61981 0.07161 0.17422 0.0
H1543 H 0.63298 0.06813 0.26806 0.0
H1544 H 0.66232 0.1375 0.26119 0.0
C1545 C 0.63868 0.143 0.04949 0.0
C1546 C 0.62765 0.13037 1.00796 0.0
C1547 C 0.61784 0.10826 0.01933 0.0
C1548 C 0.6191 0.09889 0.07071 0.0
C1549 C 0.62986 0.11197 0.11061 0.0
C1550 C 0.63937 0.13358 0.10068 0.0
C1551 C 0.65003 0.14408 0.15053 0.0
C1552 C 0.67637 0.14829 0.1434 0.0
C1553 C 0.63727 0.16663 0.16633 0.0
C1554 C 0.64538 0.12477 0.18992 0.0
C1555 C 0.6337 0.1064 0.16607 0.0
C1556 C 0.62864 0.08599 0.19358 0.0
C1557 C 0.63608 0.08416 0.24666 0.0
C1558 C 0.64817 0.10269 0.27147 0.0
C1559 C 0.65257 0.12335 0.2431 0.0
H1560 H 0.8778 0.42998 0.28675 0.0
H1561 H 0.86105 0.36195 0.22117 0.0
H1562 H 0.86686 0.3444 0.30966 0.0
H1563 H 0.92288 0.41012 0.378 0.0
H1564 H 0.91499 0.43057 0.42952 0.0
H1565 H 0.90985 0.43767 0.36066 0.0
H1566 H 0.86618 0.44501 0.38141 0.0
H1567 H 0.87112 0.43765 0.45022 0.0
H1568 H 0.84922 0.42234 0.41205 0.0
H1569 H 0.8717 0.3346 0.40509 0.0
H1570 H 0.88063 0.33179 0.50061 0.0
H1571 H 0.89646 0.40574 0.50519 0.0
C1572 C 0.87545 0.41138 0.29107 0.0
C1573 C 0.869 0.39732 0.24705 0.0
C1574 C 0.86628 0.37302 0.25412 0.0
C1575 C 0.86931 0.36292 0.30433 0.0
C1576 C 0.87518 0.37733 0.34703 0.0
C1577 C 0.87859 0.40095 0.34093 0.0
C1578 C 0.88527 0.41234 0.39345 0.0
C1579 C 0.9097 0.42331 0.39021 0.0
C1580 C 0.86685 0.4304 0.41027 0.0
C1581 C 0.88511 0.39135 0.42998 0.0
C1582 C 0.8789 0.37145 0.40229 0.0
C1583 C 0.87698 0.34996 0.42709 0.0
C1584 C 0.88224 0.34854 0.4814 0.0
C1585 C 0.88981 0.36839 0.51043 0.0
C1586 C 0.89075 0.39021 0.48436 0.0
H1587 H 0.37163 0.15778 0.24649 0.0
H1588 H 0.42448 0.10424 0.26369 0.0
H1589 H 0.41979 0.09368 0.16863 0.0
H1590 H 0.33427 0.12691 0.15082 0.0
H1591 H 0.32768 0.15274 0.11309 0.0
H1592 H 0.33393 0.15495 0.1833 0.0
H1593 H 0.36685 0.18457 0.16362 0.0
H1594 H 0.36083 0.1823 0.09334 0.0
H1595 H 0.38986 0.17665 0.11822 0.0
H1596 H 0.41025 0.08972 0.07166 0.0
H1597 H 0.39592 0.09188 0.97923 0.0
H1598 H 0.35102 0.14987 0.0231 0.0
C1599 C 0.38188 0.14361 0.23018 0.0
C1600 C 0.39834 0.13166 0.26203 0.0
C1601 C 0.41179 0.11349 0.23958 0.0
C1602 C 0.40924 0.10741 0.18579 0.0
C1603 C 0.39328 0.11983 0.15494 0.0
C1604 C 0.37977 0.13753 0.17621 0.0
C1605 C 0.36469 0.14875 0.13361 0.0
C1606 C 0.3386 0.14564 0.14596 0.0
C1607 C 0.37094 0.1746 0.12681 0.0
C1608 C 0.37181 0.13456 0.08528 0.0
C1609 C 0.38825 0.11795 0.09853 0.0
C1610 C 0.3974 0.1027 0.06074 0.0
C1611 C 0.38929 0.10425 1.00807 0.0
C1612 C 0.3723 0.12107 0.99335 0.0
C1613 C 0.36371 0.13655 0.03279 0.0
H1614 H 0.61926 0.64885 0.00927 0.0
H1615 H 0.67062 0.59369 0.01737 0.0
H1616 H 0.67978 0.59939 0.92198 0.0
H1617 H 0.59559 0.63344 0.8928 0.0
H1618 H 0.59037 0.6622 0.86685 0.0
H1619 H 0.59183 0.65778 0.93751 0.0
H1620 H 0.62476 0.68854 0.94591 0.0
H1621 H 0.62315 0.69343 0.8751 0.0
H1622 H 0.65062 0.68571 0.90569 0.0
H1623 H 0.6774 0.6059 0.82331 0.0
H1624 H 0.66541 0.61409 0.73069 0.0
H1625 H 0.61625 0.66592 0.78789 0.0
C1626 C 0.63329 0.6389 0.99137 0.0
C1627 C 0.64474 0.62131 0.02023 0.0
C1628 C 0.66227 0.60773 0.99572 0.0
C1629 C 0.66745 0.61078 0.94167 0.0
C1630 C 0.65509 0.62768 0.91337 0.0
C1631 C 0.63868 0.64184 0.9377 0.0
C1632 C 0.62589 0.65677 0.89763 0.0
C1633 C 0.59936 0.65225 0.89879 0.0
C1634 C 0.63144 0.68265 0.90662 0.0
C1635 C 0.63667 0.64791 0.84668 0.0
C1636 C 0.65372 0.63141 0.85646 0.0
C1637 C 0.66454 0.61926 0.81521 0.0
C1638 C 0.65761 0.62405 0.76272 0.0
C1639 C 0.6399 0.64069 0.75206 0.0
C1640 C 0.62974 0.65304 0.79473 0.0
H1641 H 0.13215 0.90243 0.506 0.0
H1642 H 0.13429 0.82703 0.51847 0.0
H1643 H 0.14254 0.83041 0.61429 0.0
H1644 H 0.18035 0.91236 0.59996 0.0
H1645 H 0.16758 0.93846 0.62728 0.0
H1646 H 0.16176 0.93037 0.55912 0.0
H1647 H 0.11732 0.93174 0.57778 0.0
H1648 H 0.12302 0.93963 0.64608 0.0
H1649 H 0.10546 0.91442 0.63091 0.0
H1650 H 0.14974 0.84155 0.7093 0.0
H1651 H 0.15886 0.86001 0.79573 0.0
H1652 H 0.15225 0.92815 0.7226 0.0
C1653 C 0.13462 0.88662 0.52866 0.0
C1654 C 0.13205 0.86441 0.50446 0.0
C1655 C 0.13544 0.84424 0.53601 0.0
C1656 C 0.1403 0.84595 0.59058 0.0
C1657 C 0.14209 0.86798 0.61335 0.0
C1658 C 0.1397 0.88799 0.5834 0.0
C1659 C 0.143 0.90951 0.61794 0.0
C1660 C 0.16445 0.92349 0.6 0.0
C1661 C 0.12088 0.92471 0.61818 0.0
C1662 C 0.1472 0.89837 0.67185 0.0
C1663 C 0.14662 0.87441 0.66828 0.0
C1664 C 0.15027 0.86033 0.71264 0.0
C1665 C 0.15522 0.87101 0.7618 0.0
C1666 C 0.15643 0.8956 0.76637 0.0
C1667 C 0.1519 0.90933 0.72064 0.0
H1668 H 0.87337 0.66213 0.73489 0.0
H1669 H 0.90928 0.59768 0.77122 0.0
H1670 H 0.90369 0.58442 0.67792 0.0
H1671 H 0.82996 0.63737 0.64545 0.0
H1672 H 0.83021 0.66191 0.60094 0.0
H1673 H 0.83696 0.66601 0.67045 0.0
H1674 H 0.87636 0.68497 0.64492 0.0
H1675 H 0.86989 0.68064 0.57531 0.0
H1676 H 0.89651 0.66912 0.60336 0.0
H1677 H 0.89608 0.57931 0.5795 0.0
H1678 H 0.88248 0.58036 0.48571 0.0
H1679 H 0.84983 0.64731 0.51434 0.0
C1680 C 0.87977 0.64514 0.72305 0.0
C1681 C 0.8917 0.63079 0.75968 0.0
C1682 C 0.90004 0.60875 0.74333 0.0
C1683 C 0.89704 0.60119 0.69053 0.0
C1684 C 0.8856 0.6159 0.65483 0.0
C1685 C 0.87679 0.63727 0.67054 0.0
C1686 C 0.86497 0.64962 0.62443 0.0
C1687 C 0.83898 0.65397 0.63603 0.0
C1688 C 0.87769 0.67244 0.61124 0.0
C1689 C 0.86818 0.63172 0.58056 0.0
C1690 C 0.88054 0.61261 0.59866 0.0
C1691 C 0.88622 0.59409 0.56502 0.0
C1692 C 0.87856 0.59487 0.51186 0.0
C1693 C 0.86504 0.61382 0.49319 0.0
C1694 C 0.86002 0.63256 0.52789 0.0
H1695 H 0.12999 0.16948 0.48701 0.0
H1696 H 0.11508 0.09708 0.52293 0.0
H1697 H 0.12225 0.08673 0.4289 0.0
H1698 H 0.09998 0.16923 0.3591 0.0
H1699 H 0.12062 0.18916 0.3303 0.0
H1700 H 0.11451 0.19047 0.40057 0.0
H1701 H 0.15868 0.18556 0.42174 0.0
H1702 H 0.16492 0.18434 0.3517 0.0
H1703 H 0.17425 0.16097 0.39454 0.0
H1704 H 0.13235 0.08459 0.32938 0.0
H1705 H 0.14627 0.09099 0.23707 0.0
H1706 H 0.15018 0.16513 0.26822 0.0
C1707 C 0.12766 0.15148 0.4754 0.0
C1708 C 0.12178 0.13423 0.51285 0.0
C1709 C 0.11985 0.11073 0.49548 0.0
C1710 C 0.12361 0.10466 0.4419 0.0
C1711 C 0.12883 0.12233 0.40603 0.0
C1712 C 0.13073 0.14526 0.42229 0.0
C1713 C 0.13667 0.16114 0.37671 0.0
C1714 C 0.11676 0.17852 0.36606 0.0
C1715 C 0.16002 0.17372 0.38678 0.0
C1716 C 0.13856 0.14354 0.3323 0.0
C1717 C 0.13383 0.12122 0.34948 0.0
C1718 C 0.13579 0.10204 0.31543 0.0
C1719 C 0.1435 0.10582 0.26305 0.0
C1720 C 0.1492 0.12855 0.24586 0.0
C1721 C 0.14589 0.14759 0.28048 0.0
H1722 H 0.65013 0.4306 0.23214 0.0
H1723 H 0.66024 0.36263 0.30393 0.0
H1724 H 0.65216 0.34403 0.21706 0.0
H1725 H 0.60388 0.41472 0.14158 0.0
H1726 H 0.61444 0.43296 0.08865 0.0
H1727 H 0.62017 0.44075 0.15699 0.0
H1728 H 0.6645 0.4421 0.13714 0.0
H1729 H 0.65892 0.43411 0.06882 0.0
H1730 H 0.67861 0.41691 0.10879 0.0
H1731 H 0.64536 0.33288 0.12176 0.0
H1732 H 0.63645 0.32948 0.02617 0.0
H1733 H 0.63025 0.4047 0.01561 0.0
C1734 C 0.65076 0.41179 0.22973 0.0
C1735 C 0.65597 0.39813 0.27519 0.0
C1736 C 0.65607 0.37354 0.27014 0.0
C1737 C 0.65173 0.3628 0.22076 0.0
C1738 C 0.64732 0.37685 0.17668 0.0
C1739 C 0.64659 0.40079 0.18074 0.0
C1740 C 0.64153 0.41188 0.12714 0.0
C1741 C 0.61864 0.4259 0.1287 0.0
C1742 C 0.66211 0.42715 0.10943 0.0
C1743 C 0.63925 0.39036 0.09229 0.0
C1744 C 0.64292 0.37039 0.1217 0.0
C1745 C 0.64214 0.34838 0.09848 0.0
C1746 C 0.63691 0.34664 0.04408 0.0
C1747 C 0.63215 0.36674 0.01321 0.0
C1748 C 0.63379 0.38895 0.03777 0.0
H1749 H 0.38631 0.90064 0.01697 0.0
H1750 H 0.31147 0.88916 0.01486 0.0
H1751 H 0.31326 0.87906 0.9193 0.0
H1752 H 0.38966 0.92795 0.89135 0.0
H1753 H 0.41701 0.91487 0.87215 0.0
H1754 H 0.41049 0.9192 0.94153 0.0
H1755 H 0.41726 0.8753 0.95927 0.0
H1756 H 0.42392 0.87088 0.8899 0.0
H1757 H 0.40124 0.85403 0.92086 0.0
H1758 H 0.32283 0.87119 0.82384 0.0
H1759 H 0.33944 0.86576 0.73478 0.0
H1760 H 0.40772 0.88581 0.79646 0.0
C1761 C 0.37043 0.89552 0.99652 0.0
C1762 C 0.34872 0.89555 0.02326 0.0
C1763 C 0.32822 0.88922 0.99501 0.0
C1764 C 0.32908 0.88345 0.9408 0.0
C1765 C 0.35059 0.88413 0.9152 0.0
C1766 C 0.37094 0.88992 0.94201 0.0
C1767 C 0.39156 0.89025 0.90422 0.0
C1768 C 0.40283 0.91452 0.90221 0.0
C1769 C 0.40956 0.8715 0.91949 0.0
C1770 C 0.37948 0.88423 0.85204 0.0
C1771 C 0.35594 0.88045 0.85945 0.0
C1772 C 0.34125 0.87422 0.81745 0.0
C1773 C 0.35091 0.87149 0.76655 0.0
C1774 C 0.37506 0.87543 0.75746 0.0
C1775 C 0.38933 0.88215 0.80128 0.0
H1776 H 0.16837 0.7093 0.14455 0.0
H1777 H 0.09769 0.69463 0.19442 0.0
H1778 H 0.09052 0.73694 0.20578 0.0
H1779 H 0.17986 0.76067 0.22144 0.0
H1780 H 0.19452 0.77578 0.16848 0.0
H1781 H 0.19505 0.74444 0.17061 0.0
H1782 H 0.17659 0.74165 0.07503 0.0
H1783 H 0.17878 0.77279 0.07406 0.0
H1784 H 0.15108 0.75882 0.06056 0.0
H1785 H 0.09103 0.78178 0.20881 0.0
H1786 H 0.09789 0.824 0.19807 0.0
H1787 H 0.16628 0.80937 0.13217 0.0
C1788 C 0.15123 0.71488 0.15676 0.0
C1789 C 0.13359 0.69841 0.16842 0.0
C1790 C 0.11171 0.70673 0.18652 0.0
C1791 C 0.10741 0.73082 0.19247 0.0
C1792 C 0.12496 0.74659 0.17876 0.0
C1793 C 0.14635 0.73887 0.16065 0.0
C1794 C 0.16166 0.75925 0.14452 0.0
C1795 C 0.1841 0.76008 0.17831 0.0
C1796 C 0.16732 0.75804 0.08491 0.0
C1797 C 0.14572 0.77976 0.15677 0.0
C1798 C 0.12471 0.7721 0.17722 0.0
C1799 C 0.10736 0.78786 0.19246 0.0
C1800 C 0.11146 0.8119 0.1863 0.0
C1801 C 0.13258 0.82022 0.16411 0.0
C1802 C 0.14987 0.80374 0.14905 0.0
H1803 H 0.55952 0.89362 0.35656 0.0
H1804 H 0.57553 0.87565 0.5194 0.0
H1805 H 0.5334 0.87268 0.53875 0.0
H1806 H 0.5096 0.92879 0.38346 0.0
H1807 H 0.49428 0.91912 0.32488 0.0
H1808 H 0.52571 0.91972 0.32581 0.0
H1809 H 0.52686 0.87545 0.30099 0.0
H1810 H 0.49567 0.87473 0.3 0.0
H1811 H 0.51155 0.85497 0.34176 0.0
H1812 H 0.48673 0.87167 0.53748 0.0
H1813 H 0.44434 0.8731 0.51551 0.0
H1814 H 0.46163 0.89167 0.35363 0.0
C1815 C 0.55451 0.88898 0.3963 0.0
C1816 C 0.57146 0.88445 0.43599 0.0
C1817 C 0.56334 0.8788 0.48773 0.0
C1818 C 0.53921 0.87721 0.49919 0.0
C1819 C 0.52309 0.88154 0.45853 0.0
C1820 C 0.53067 0.88744 0.40826 0.0
C1821 C 0.51042 0.89102 0.37074 0.0
C1822 C 0.50998 0.91613 0.34987 0.0
C1823 C 0.51119 0.87298 0.32566 0.0
C1824 C 0.49006 0.8865 0.40711 0.0
C1825 C 0.49739 0.88097 0.45786 0.0
C1826 C 0.48105 0.876 0.49758 0.0
C1827 C 0.45689 0.87678 0.4847 0.0
C1828 C 0.44917 0.88237 0.43245 0.0
C1829 C 0.46635 0.88724 0.39378 0.0
H1830 H 0.36188 0.31188 0.7073 0.0
H1831 H 0.42143 0.324 0.60481 0.0
H1832 H 0.43029 0.28279 0.60376 0.0
H1833 H 0.38689 0.25997 0.78085 0.0
H1834 H 0.35974 0.24412 0.77951 0.0
H1835 H 0.35952 0.27552 0.78136 0.0
H1836 H 0.33384 0.27609 0.69645 0.0
H1837 H 0.33419 0.24473 0.69359 0.0
H1838 H 0.34388 0.26143 0.63727 0.0
H1839 H 0.42968 0.24157 0.59793 0.0
H1840 H 0.42143 0.2001 0.59436 0.0
H1841 H 0.36382 0.20915 0.70379 0.0
C1842 C 0.37738 0.30583 0.68694 0.0
C1843 C 0.3919 0.32174 0.65905 0.0
C1844 C 0.411 0.3128 0.62964 0.0
C1845 C 0.41598 0.28911 0.62781 0.0
C1846 C 0.4014 0.27395 0.65456 0.0
C1847 C 0.38248 0.28162 0.68376 0.0
C1848 C 0.36871 0.26059 0.70398 0.0
C1849 C 0.36871 0.26002 0.76508 0.0
C1850 C 0.34367 0.26072 0.6815 0.0
C1851 C 0.38289 0.2403 0.68096 0.0
C1852 C 0.40152 0.24884 0.65238 0.0
C1853 C 0.41582 0.2345 0.62209 0.0
C1854 C 0.41123 0.21071 0.62099 0.0
C1855 C 0.39313 0.20089 0.65161 0.0
C1856 C 0.37861 0.21596 0.68219 0.0
H1857 H 0.96365 0.14884 0.83836 0.0
H1858 H 0.94778 0.11642 0.9897 0.0
H1859 H 0.99006 0.11365 0.00962 0.0
H1860 H 0.01304 0.11266 0.80936 0.0
H1861 H 0.02928 0.1355 0.77742 0.0
H1862 H 0.99783 0.13613 0.77668 0.0
H1863 H 0.99835 0.17733 0.81913 0.0
H1864 H 0.02982 0.17685 0.81989 0.0
H1865 H 0.014 0.18203 0.88071 0.0
H1866 H 0.03491 0.11275 0.01084 0.0
H1867 H 0.07741 0.114 0.99331 0.0
H1868 H 0.06363 0.14716 0.84141 0.0
C1869 C 0.96897 0.14134 0.876 0.0
C1870 C 0.95215 0.1328 0.91237 0.0
C1871 C 0.96013 0.12311 0.96105 0.0
C1872 C 0.98419 0.12139 0.97267 0.0
C1873 C 1.00024 0.12942 0.9353 0.0
C1874 C 0.99289 0.13921 0.88791 0.0
C1875 C 0.01358 0.14574 0.85345 0.0
C1876 C 0.01342 0.13167 0.80114 0.0
C1877 C 0.01395 0.17205 0.84268 0.0
C1878 C 0.03376 0.13847 0.88913 0.0
C1879 C 0.02577 0.12894 0.93604 0.0
C1880 C 0.04129 0.12029 0.97428 0.0
C1881 C 0.06547 0.12114 0.96404 0.0
C1882 C 0.07408 0.13061 0.91594 0.0
C1883 C 0.05781 0.13977 0.87866 0.0
H1884 H 0.15296 0.30436 0.91409 0.0
H1885 H 0.12748 0.32205 0.75746 0.0
H1886 H 0.12438 0.27976 0.73618 0.0
H1887 H 0.18727 0.25338 0.87663 0.0
H1888 H 0.18029 0.2396 0.93888 0.0
H1889 H 0.18189 0.27082 0.93476 0.0
H1890 H 0.13984 0.27223 0.97414 0.0
H1891 H 0.13733 0.24112 0.97282 0.0
H1892 H 0.11623 0.25848 0.93799 0.0
H1893 H 0.12371 0.2326 0.73602 0.0
H1894 H 0.12577 0.1903 0.75634 0.0
H1895 H 0.15121 0.20686 0.91459 0.0
C1896 C 0.14664 0.29975 0.87548 0.0
C1897 C 0.13992 0.31706 0.83864 0.0
C1898 C 0.13244 0.30946 0.78737 0.0
C1899 C 0.13068 0.28532 0.77487 0.0
C1900 C 0.13691 0.26883 0.81361 0.0
C1901 C 0.14508 0.2761 0.86264 0.0
C1902 C 0.15034 0.25581 0.89888 0.0
C1903 C 0.17648 0.25485 0.91319 0.0
C1904 C 0.13502 0.25702 0.94891 0.0
C1905 C 0.14362 0.23558 0.86339 0.0
C1906 C 0.13611 0.24309 0.81396 0.0
C1907 C 0.12956 0.22685 0.77484 0.0
C1908 C 0.13078 0.2027 0.78673 0.0
C1909 C 0.13833 0.19477 0.83752 0.0
C1910 C 0.1449 0.21181 0.87571 0.0
H1911 H 0.05902 0.91762 0.10968 0.0
H1912 H 0.07294 0.84356 0.10283 0.0
H1913 H 0.03077 0.8359 0.08906 0.0
H1914 H 1.00984 0.91392 0.18553 0.0
H1915 H 0.9916 0.9358 0.15443 0.0
H1916 H 0.02279 0.93842 0.15202 0.0
H1917 H 0.0247 0.93928 0.05165 0.0
H1918 H 0.99321 0.93946 0.05029 0.0
H1919 H 1.00911 0.91785 0.01284 0.0
H1920 H 0.98673 0.83646 0.07402 0.0
H1921 H 0.94428 0.8444 0.0734 0.0
H1922 H 0.9579 0.91733 0.1051 0.0
C1923 C 0.05314 0.89985 0.10447 0.0
C1924 C 0.0693 0.88114 0.10608 0.0
C1925 C 0.06092 0.85811 0.10057 0.0
C1926 C 0.03699 0.85362 0.09274 0.0
C1927 C 0.02142 0.87236 0.09151 0.0
C1928 C 0.02912 0.89503 0.0977 0.0
C1929 C 1.00849 0.91179 0.09897 0.0
C1930 C 1.00813 0.9258 0.15098 0.0
C1931 C 1.00891 0.92805 0.05054 0.0
C1932 C 0.98803 0.89495 0.09527 0.0
C1933 C 0.99593 0.8724 0.08856 0.0
C1934 C 0.9804 0.85401 0.08029 0.0
C1935 C 0.95624 0.85866 0.0801 0.0
C1936 C 0.94761 0.88132 0.09057 0.0
C1937 C 0.96388 0.89973 0.09772 0.0
H1938 H 0.35984 0.70826 0.31547 0.0
H1939 H 0.42365 0.69546 0.40426 0.0
H1940 H 0.43191 0.7373 0.40652 0.0
H1941 H 0.38373 0.7579 0.23621 0.0
H1942 H 0.35672 0.77404 0.23802 0.0
H1943 H 0.35629 0.74265 0.23953 0.0
H1944 H 0.33229 0.74408 0.32602 0.0
H1945 H 0.33292 0.77544 0.32655 0.0
H1946 H 0.34368 0.75937 0.38316 0.0
H1947 H 0.43284 0.77997 0.40433 0.0
H1948 H 0.42571 0.82216 0.40041 0.0
H1949 H 0.36145 0.81009 0.31254 0.0
C1950 C 0.37582 0.71431 0.33406 0.0
C1951 C 0.39119 0.69839 0.35958 0.0
C1952 C 0.41161 0.70713 0.38458 0.0
C1953 C 0.41653 0.73097 0.3859 0.0
C1954 C 0.40102 0.74621 0.36134 0.0
C1955 C 0.38112 0.73839 0.3356 0.0
C1956 C 0.36707 0.75905 0.31454 0.0
C1957 C 0.36587 0.75837 0.25343 0.0
C1958 C 0.34252 0.75953 0.33902 0.0
C1959 C 0.38189 0.77955 0.33386 0.0
C1960 C 0.40155 0.77146 0.36009 0.0
C1961 C 0.41771 0.78654 0.3832 0.0
C1962 C 0.41358 0.81053 0.38046 0.0
C1963 C 0.39341 0.81953 0.35499 0.0
C1964 C 0.37746 0.80379 0.33056 0.0
H1965 H 0.56292 0.10114 0.58534 0.0
H1966 H 0.57471 0.17447 0.61571 0.0
H1967 H 0.53229 0.1819 0.60881 0.0
H1968 H 0.51117 0.10895 0.49226 0.0
H1969 H 0.49642 0.08382 0.51861 0.0
H1970 H 0.5279 0.08474 0.51748 0.0
H1971 H 0.52793 0.07586 0.61647 0.0
H1972 H 0.49659 0.07725 0.62256 0.0
H1973 H 0.51492 0.0962 0.66194 0.0
H1974 H 0.48878 0.18144 0.60324 0.0
H1975 H 0.44672 0.17276 0.60395 0.0
H1976 H 0.46129 0.09945 0.5838 0.0
C1977 C 0.55653 0.11884 0.5885 0.0
C1978 C 0.57215 0.13743 0.59943 0.0
C1979 C 0.5631 0.16016 0.60611 0.0
C1980 C 0.53902 0.16451 0.60236 0.0
C1981 C 0.524 0.14589 0.59244 0.0
C1982 C 0.53231 0.12348 0.58533 0.0
C1983 C 0.512 0.10646 0.57928 0.0
C1984 C 0.51187 0.09534 0.52357 0.0
C1985 C 0.51286 0.08776 0.62262 0.0
C1986 C 0.49113 0.12269 0.5863 0.0
C1987 C 0.49858 0.14542 0.59223 0.0
C1988 C 0.48279 0.16371 0.5981 0.0
C1989 C 0.4588 0.15871 0.59778 0.0
C1990 C 0.45054 0.13567 0.59252 0.0
C1991 C 0.46704 0.11734 0.58725 0.0
H1992 H 0.87282 0.21111 0.90673 0.0
H1993 H 0.90377 0.1944 0.75443 0.0
H1994 H 0.90643 0.23654 0.73421 0.0
H1995 H 0.83867 0.2592 0.871 0.0
H1996 H 0.8452 0.27551 0.93047 0.0
H1997 H 0.84584 0.24421 0.93173 0.0
H1998 H 0.88818 0.24564 0.9671 0.0
H1999 H 0.8892 0.27663 0.96411 0.0
H2000 H 0.91059 0.25974 0.92946 0.0
H2001 H 0.90606 0.28303 0.73378 0.0
H2002 H 0.90239 0.32527 0.75309 0.0
H2003 H 0.87145 0.30902 0.9052 0.0
C2004 C 0.88031 0.21599 0.86923 0.0
C2005 C 0.88826 0.19898 0.8327 0.0
C2006 C 0.89761 0.20682 0.78358 0.0
C2007 C 0.89916 0.23086 0.77167 0.0
C2008 C 0.89129 0.24709 0.80921 0.0
C2009 C 0.88209 0.23972 0.85697 0.0
C2010 C 0.87584 0.26012 0.89217 0.0
C2011 C 0.84985 0.25973 0.90729 0.0
C2012 C 0.8919 0.26053 0.94115 0.0
C2013 C 0.88146 0.28029 0.8562 0.0
C2014 C 0.89093 0.27274 0.80878 0.0
C2015 C 0.89853 0.28886 0.77096 0.0
C2016 C 0.89642 0.31297 0.78233 0.0
C2017 C 0.88673 0.321 0.83108 0.0
C2018 C 0.87907 0.30406 0.86781 0.0
H2019 H 0.66312 0.80908 0.32801 0.0
H2020 H 0.59612 0.82014 0.40369 0.0
H2021 H 0.5878 0.77812 0.39737 0.0
H2022 H 0.64469 0.75952 0.23857 0.0
H2023 H 0.67178 0.74403 0.24808 0.0
H2024 H 0.6713 0.7754 0.25101 0.0
H2025 H 0.69083 0.77349 0.34222 0.0
H2026 H 0.69011 0.74215 0.34466 0.0
H2027 H 0.67638 0.75925 0.39633 0.0
H2028 H 0.587 0.73536 0.38772 0.0
H2029 H 0.59521 0.69336 0.38372 0.0
H2030 H 0.66385 0.70735 0.31935 0.0
C2031 C 0.64643 0.80264 0.34162 0.0
C2032 C 0.62997 0.818 0.36533 0.0
C2033 C 0.60879 0.80879 0.38484 0.0
C2034 C 0.60389 0.78492 0.38124 0.0
C2035 C 0.62043 0.77017 0.35836 0.0
C2036 C 0.64135 0.77853 0.33903 0.0
C2037 C 0.6569 0.75829 0.32133 0.0
C2038 C 0.66144 0.75938 0.26116 0.0
C2039 C 0.67993 0.75823 0.35299 0.0
C2040 C 0.64161 0.73734 0.33492 0.0
C2041 C 0.62045 0.74487 0.35503 0.0
C2042 C 0.60339 0.72926 0.37149 0.0
C2043 C 0.60815 0.70536 0.36868 0.0
C2044 C 0.62985 0.6969 0.34986 0.0
C2045 C 0.64676 0.71319 0.33198 0.0
H2046 H 0.8577 0.70816 0.19086 0.0
H2047 H 0.92634 0.69621 0.12402 0.0
H2048 H 0.93483 0.73824 0.13023 0.0
H2049 H 0.84663 0.75906 0.11923 0.0
H2050 H 0.83115 0.77482 0.17029 0.0
H2051 H 0.831 0.74345 0.16982 0.0
H2052 H 0.84765 0.74232 0.26518 0.0
H2053 H 0.84748 0.77371 0.26733 0.0
H2054 H 0.8741 0.75796 0.28077 0.0
H2055 H 0.93568 0.78105 0.13891 0.0
H2056 H 0.92746 0.82308 0.1402 0.0
H2057 H 0.85712 0.80973 0.19461 0.0
C2058 C 0.87473 0.71444 0.17913 0.0
C2059 C 0.89166 0.69887 0.15808 0.0
C2060 C 0.91334 0.70777 0.14093 0.0
C2061 C 0.91832 0.73162 0.14446 0.0
C2062 C 0.90133 0.7466 0.16474 0.0
C2063 C 0.87987 0.73851 0.18147 0.0
C2064 C 0.86403 0.75891 0.19654 0.0
C2065 C 0.84184 0.75908 0.16195 0.0
C2066 C 0.85795 0.75817 0.256 0.0
C2067 C 0.87976 0.77964 0.18427 0.0
C2068 C 0.90137 0.77189 0.1673 0.0
C2069 C 0.91888 0.78731 0.15244 0.0
C2070 C 0.91407 0.81121 0.15336 0.0
C2071 C 0.89188 0.81981 0.16825 0.0
C2072 C 0.87453 0.80377 0.18481 0.0
H2073 H 0.64997 0.21079 0.60347 0.0
H2074 H 0.61736 0.19458 0.75369 0.0
H2075 H 0.61488 0.23665 0.77451 0.0
H2076 H 0.68315 0.26024 0.63763 0.0
H2077 H 0.67598 0.27532 0.57697 0.0
H2078 H 0.67607 0.24401 0.57842 0.0
H2079 H 0.63344 0.24551 0.54214 0.0
H2080 H 0.63166 0.27658 0.54639 0.0
H2081 H 0.61097 0.259 0.58101 0.0
H2082 H 0.61522 0.28265 0.77575 0.0
H2083 H 0.61837 0.32486 0.7574 0.0
H2084 H 0.64976 0.30928 0.60494 0.0
C2085 C 0.64221 0.21577 0.64071 0.0
C2086 C 0.63429 0.19879 0.67721 0.0
C2087 C 0.62427 0.20681 0.72554 0.0
C2088 C 0.62257 0.23086 0.73746 0.0
C2089 C 0.63062 0.24699 0.70025 0.0
C2090 C 0.64003 0.23957 0.65264 0.0
C2091 C 0.6459 0.26 0.61736 0.0
C2092 C 0.6718 0.2599 0.6016 0.0
C2093 C 0.62957 0.26025 0.56877 0.0
C2094 C 0.64018 0.28022 0.65355 0.0
C2095 C 0.63069 0.27259 0.7008 0.0
C2096 C 0.62278 0.28856 0.73879 0.0
C2097 C 0.62461 0.31264 0.72793 0.0
C2098 C 0.63447 0.32079 0.67961 0.0
C2099 C 0.64236 0.30406 0.64238 0.0
H2100 H 0.96051 0.4179 0.91781 0.0
H2101 H 0.94698 0.34439 0.89421 0.0
H2102 H 0.98933 0.33621 0.89974 0.0
H2103 H 1.00889 0.42073 0.83737 0.0
H2104 H 0.02745 0.4398 0.87602 0.0
H2105 H 0.99625 0.44194 0.88202 0.0
H2106 H 0.99613 0.43478 0.98143 0.0
H2107 H 0.02762 0.43494 0.97998 0.0
H2108 H 0.01234 0.41065 0.00869 0.0
H2109 H 0.0332 0.33579 0.90603 0.0
H2110 H 0.07566 0.34346 0.90624 0.0
H2111 H 0.06209 0.41761 0.91623 0.0
C2112 C 0.96651 0.40004 0.91546 0.0
C2113 C 0.95037 0.38161 0.90719 0.0
C2114 C 0.95896 0.35862 0.90185 0.0
C2115 C 0.98301 0.35384 0.90475 0.0
C2116 C 0.99853 0.37229 0.91211 0.0
C2117 C 0.9907 0.39498 0.91733 0.0
C2118 C 0.0114 0.41163 0.92146 0.0
C2119 C 1.01098 0.42959 0.87644 0.0
C2120 C 0.0119 0.42371 0.97616 0.0
C2121 C 0.03189 0.39487 0.91569 0.0
C2122 C 0.02401 0.3722 0.91199 0.0
C2123 C 0.03953 0.3535 0.90873 0.0
C2124 C 0.06367 0.35801 0.90912 0.0
C2125 C 0.07227 0.3811 0.91119 0.0
C2126 C 0.05606 0.39977 0.91433 0.0
H2127 H 0.46322 0.60011 0.3956 0.0
H2128 H 0.44827 0.67018 0.44933 0.0
H2129 H 0.49044 0.6772 0.46377 0.0
H2130 H 0.51296 0.59078 0.49103 0.0
H2131 H 0.52893 0.57345 0.44352 0.0
H2132 H 0.49744 0.57352 0.44234 0.0
H2133 H 0.49816 0.5854 0.34431 0.0
H2134 H 0.52944 0.58594 0.34523 0.0
H2135 H 0.51316 0.61152 0.32463 0.0
H2136 H 0.53532 0.67695 0.46844 0.0
H2137 H 0.57786 0.6699 0.46003 0.0
H2138 H 0.56367 0.60034 0.40054 0.0
C2139 C 0.46885 0.61682 0.41103 0.0
C2140 C 0.45239 0.63463 0.42144 0.0
C2141 C 0.46047 0.65625 0.44147 0.0
C2142 C 0.48447 0.66038 0.44979 0.0
C2143 C 0.50035 0.64258 0.43857 0.0
C2144 C 0.49279 0.62111 0.42028 0.0
C2145 C 0.51342 0.60509 0.41022 0.0
C2146 C 0.51317 0.58449 0.44911 0.0
C2147 C 0.51356 0.59653 0.35246 0.0
C2148 C 0.53381 0.62128 0.42207 0.0
C2149 C 0.52594 0.64262 0.44004 0.0
C2150 C 0.5416 0.66025 0.45444 0.0
C2151 C 0.56581 0.65607 0.44969 0.0
C2152 C 0.57431 0.63461 0.42952 0.0
C2153 C 0.55789 0.61699 0.41601 0.0
H2154 H 0.45822 0.41468 0.56406 0.0
H2155 H 0.4416 0.35098 0.64648 0.0
H2156 H 0.4834 0.34202 0.65634 0.0
H2157 H 0.51015 0.3922 0.49326 0.0
H2158 H 0.52637 0.41888 0.50093 0.0
H2159 H 0.49492 0.41963 0.49724 0.0
H2160 H 0.49372 0.44191 0.58663 0.0
H2161 H 0.5251 0.44092 0.59198 0.0
H2162 H 0.50729 0.42941 0.64469 0.0
H2163 H 0.52675 0.34113 0.6634 0.0
H2164 H 0.56933 0.3476 0.66477 0.0
H2165 H 0.55999 0.41151 0.5759 0.0
C2166 C 0.4635 0.39856 0.58281 0.0
C2167 C 0.4465 0.3827 0.60179 0.0
C2168 C 0.45411 0.36238 0.62824 0.0
C2169 C 0.47794 0.35744 0.63501 0.0
C2170 C 0.49426 0.37311 0.61528 0.0
C2171 C 0.48747 0.39324 0.58946 0.0
C2172 C 0.50887 0.40732 0.57344 0.0
C2173 C 0.51015 0.40965 0.51259 0.0
C2174 C 0.50875 0.43132 0.60081 0.0
C2175 C 0.52863 0.39203 0.59461 0.0
C2176 C 0.51962 0.37246 0.61889 0.0
C2177 C 0.53402 0.3562 0.6438 0.0
C2178 C 0.55822 0.35998 0.64428 0.0
C2179 C 0.56808 0.37974 0.61951 0.0
C2180 C 0.55303 0.39589 0.5938 0.0
H2181 H 0.05972 0.6264 0.17253 0.0
H2182 H 0.07759 0.63733 1.00756 0.0
H2183 H 0.03526 0.64038 0.9852 0.0
H2184 H 1.01085 0.58866 0.14078 0.0
H2185 H 0.99561 0.59784 0.19942 0.0
H2186 H 0.02701 0.59795 0.19829 0.0
H2187 H 0.025 0.64146 0.2272 0.0
H2188 H 0.99383 0.64334 0.22154 0.0
H2189 H 0.01186 0.66241 0.18331 0.0
H2190 H 0.98822 0.64394 0.98498 0.0
H2191 H 0.94567 0.6424 1.00467 0.0
H2192 H 0.96179 0.62479 0.16785 0.0
C2193 C 0.05504 0.62942 0.13173 0.0
C2194 C 0.07231 0.63185 0.09232 0.0
C2195 C 0.06483 0.63554 0.03895 0.0
C2196 C 0.04074 0.63735 0.02588 0.0
C2197 C 0.02419 0.63485 0.06637 0.0
C2198 C 0.03133 0.63044 0.11793 0.0
C2199 C 1.01081 0.62642 0.15402 0.0
C2200 C 1.01107 0.60126 0.17451 0.0
C2201 C 1.01038 0.64445 0.19927 0.0
C2202 C 0.99073 0.63012 0.11609 0.0
C2203 C 0.99843 0.63513 0.06544 0.0
C2204 C 0.98232 0.63974 0.02465 0.0
C2205 C 0.95808 0.63892 0.03625 0.0
C2206 C 0.95005 0.63325 0.08807 0.0
C2207 C 0.96691 0.62885 0.12789 0.0
H2208 H 0.10819 0.55207 0.06648 0.0
H2209 H 0.18195 0.56088 0.09952 0.0
H2210 H 0.19058 0.5249 0.04859 0.0
H2211 H 0.11254 0.48788 0.09176 0.0
H2212 H 0.08953 0.48094 0.04511 0.0
H2213 H 0.08929 0.50843 0.08 0.0
H2214 H 0.08705 0.5299 0.98966 0.0
H2215 H 0.08779 0.5025 0.95448 0.0
H2216 H 0.1092 0.52456 0.94027 0.0
H2217 H 0.19093 0.4929 0.97571 0.0
H2218 H 0.18372 0.45687 0.92388 0.0
H2219 H 0.11027 0.46044 0.96383 0.0
C2220 C 0.12611 0.54622 0.06343 0.0
C2221 C 0.14459 0.55992 0.08479 0.0
C2222 C 0.16764 0.55108 0.08219 0.0
C2223 C 0.17271 0.53074 0.05292 0.0
C2224 C 0.15433 0.51833 0.02966 0.0
C2225 C 0.13138 0.52484 0.03785 0.0
C2226 C 0.11489 0.50626 0.01566 0.0
C2227 C 0.10072 0.49522 0.06081 0.0
C2228 C 0.09878 0.51643 0.97247 0.0
C2229 C 0.13216 0.48889 0.99176 0.0
C2230 C 0.15475 0.49688 0.99815 0.0
C2231 C 0.17344 0.48585 0.97289 0.0
C2232 C 0.16915 0.46546 0.94311 0.0
C2233 C 0.14672 0.45509 0.94205 0.0
C2234 C 0.12783 0.46738 0.96574 0.0
H2235 H 0.70714 0.91146 0.2783 0.0
H2236 H 0.71667 0.85137 0.37979 0.0
H2237 H 0.75607 0.84552 0.3438 0.0
H2238 H 0.7398 0.88148 0.16302 0.0
H2239 H 0.74848 0.9098 0.13963 0.0
H2240 H 0.72145 0.90612 0.17506 0.0
H2241 H 0.73703 0.9396 0.23856 0.0
H2242 H 0.76481 0.9399 0.2053 0.0
H2243 H 0.76353 0.93438 0.27585 0.0
H2244 H 0.79488 0.84538 0.29423 0.0
H2245 H 0.82942 0.8517 0.23679 0.0
H2246 H 0.79534 0.91134 0.16556 0.0
C2247 C 0.7175 0.89709 0.29308 0.0
C2248 C 0.70886 0.88257 0.33435 0.0
C2249 C 0.72301 0.86359 0.35082 0.0
C2250 C 0.74544 0.85984 0.32971 0.0
C2251 C 0.75355 0.87466 0.29007 0.0
C2252 C 0.73982 0.89262 0.27101 0.0
C2253 C 0.75234 0.9051 0.22587 0.0
C2254 C 0.73981 0.9004 0.17267 0.0
C2255 C 0.75456 0.93131 0.23711 0.0
C2256 C 0.77594 0.89291 0.22614 0.0
C2257 C 0.77592 0.87472 0.26198 0.0
C2258 C 0.79506 0.8597 0.26639 0.0
C2259 C 0.81461 0.86338 0.23355 0.0
C2260 C 0.81526 0.88222 0.19744 0.0
C2261 C 0.79558 0.89713 0.19373 0.0
H2262 H 0.35744 0.47617 0.60333 0.0
H2263 H 0.41363 0.44184 0.51821 0.0
H2264 H 0.42024 0.47726 0.46586 0.0
H2265 H 0.3338 0.5081 0.49423 0.0
H2266 H 0.32809 0.53441 0.53141 0.0
H2267 H 0.32842 0.50672 0.56481 0.0
H2268 H 0.35889 0.52292 0.63037 0.0
H2269 H 0.36086 0.5503 0.5959 0.0
H2270 H 0.38663 0.53313 0.60606 0.0
H2271 H 0.42067 0.51608 0.42031 0.0
H2272 H 0.41469 0.55558 0.38528 0.0
H2273 H 0.35693 0.56565 0.49408 0.0
C2274 C 0.37142 0.47632 0.57447 0.0
C2275 C 0.38507 0.45602 0.56532 0.0
C2276 C 0.40291 0.457 0.52629 0.0
C2277 C 0.40682 0.47711 0.49608 0.0
C2278 C 0.39281 0.49655 0.50486 0.0
C2279 C 0.37554 0.49646 0.54321 0.0
C2280 C 0.36306 0.51994 0.54389 0.0
C2281 C 0.33678 0.51711 0.53293 0.0
C2282 C 0.36759 0.53227 0.59729 0.0
C2283 C 0.3752 0.53267 0.49838 0.0
C2284 C 0.39265 0.51891 0.47731 0.0
C2285 C 0.40683 0.52689 0.43618 0.0
C2286 C 0.40309 0.54939 0.41586 0.0
C2287 C 0.38484 0.56379 0.43511 0.0
C2288 C 0.37084 0.55516 0.47752 0.0
H2289 H 0.80578 0.09732 0.81221 0.0
H2290 H 0.81919 0.17122 0.82814 0.0
H2291 H 0.78112 0.17979 0.78521 0.0
H2292 H 0.782 0.10124 0.68079 0.0
H2293 H 0.75984 0.07924 0.68848 0.0
H2294 H 0.78629 0.07762 0.7269 0.0
H2295 H 0.76393 0.07677 0.81487 0.0
H2296 H 0.73689 0.07719 0.77787 0.0
H2297 H 0.74236 0.09886 0.8285 0.0
H2298 H 0.74114 0.18031 0.74011 0.0
H2299 H 0.70345 0.17269 0.69438 0.0
H2300 H 0.71898 0.09884 0.69309 0.0
C2301 C 0.80057 0.11529 0.80714 0.0
C2302 C 0.81539 0.13367 0.82431 0.0
C2303 C 0.80799 0.15691 0.8162 0.0
C2304 C 0.78643 0.16192 0.79152 0.0
C2305 C 0.77255 0.1435 0.77357 0.0
C2306 C 0.7794 0.12061 0.78059 0.0
C2307 C 0.76183 0.10414 0.75453 0.0
C2308 C 0.77319 0.08974 0.70997 0.0
C2309 C 0.75058 0.0883 0.79644 0.0
C2310 C 0.74416 0.12129 0.73175 0.0
C2311 C 0.75046 0.14389 0.74406 0.0
C2312 C 0.73625 0.16267 0.7298 0.0
C2313 C 0.71493 0.15822 0.70344 0.0
C2314 C 0.70818 0.13526 0.68979 0.0
C2315 C 0.7234 0.11662 0.70307 0.0
H2316 H 0.89159 0.5692 0.9989 0.0
H2317 H 0.87024 0.5466 0.15619 0.0
H2318 H 0.86964 0.50591 0.12408 0.0
H2319 H 0.85518 0.5288 0.92554 0.0
H2320 H 0.8761 0.52377 0.87336 0.0
H2321 H 0.87583 0.5512 0.90842 0.0
H2322 H 0.91943 0.54581 0.93289 0.0
H2323 H 0.91983 0.51833 0.89797 0.0
H2324 H 0.92866 0.51977 0.96689 0.0
H2325 H 0.87152 0.46785 0.07596 0.0
H2326 H 0.87269 0.43492 0.01329 0.0
H2327 H 0.89177 0.48063 0.88529 0.0
C2328 C 0.88689 0.55572 0.02689 0.0
C2329 C 0.8813 0.56134 0.0808 0.0
C2330 C 0.87494 0.54299 0.11527 0.0
C2331 C 0.87452 0.51975 0.09725 0.0
C2332 C 0.8803 0.51492 0.0443 0.0
C2333 C 0.88619 0.53236 0.00935 0.0
C2334 C 0.89087 0.5223 0.95388 0.0
C2335 C 0.87346 0.53211 0.91288 0.0
C2336 C 0.91621 0.52683 0.93691 0.0
C2337 C 0.88672 0.49643 0.96316 0.0
C2338 C 0.88077 0.49277 0.01581 0.0
C2339 C 0.87594 0.47063 0.03464 0.0
C2340 C 0.87658 0.45191 0.99878 0.0
C2341 C 0.88193 0.45478 0.94441 0.0
C2342 C 0.8876 0.47753 0.9265 0.0
H2343 H 0.20889 0.10895 0.75343 0.0
H2344 H 0.21708 0.16395 0.87076 0.0
H2345 H 0.25708 0.17098 0.83913 0.0
H2346 H 0.26818 0.08669 0.76247 0.0
H2347 H 0.27057 0.08063 0.69223 0.0
H2348 H 0.24243 0.07975 0.72398 0.0
H2349 H 0.22634 0.10993 0.65645 0.0
H2350 H 0.25441 0.1103 0.62456 0.0
H2351 H 0.24156 0.13711 0.6479 0.0
H2352 H 0.29577 0.17278 0.79464 0.0
H2353 H 0.33184 0.16827 0.74337 0.0
H2354 H 0.30066 0.1113 0.65394 0.0
C2355 C 0.21912 0.12237 0.77282 0.0
C2356 C 0.2099 0.13535 0.81638 0.0
C2357 C 0.22391 0.15304 0.83937 0.0
C2358 C 0.24662 0.15741 0.82097 0.0
C2359 C 0.25528 0.14407 0.77891 0.0
C2360 C 0.24207 0.12684 0.75509 0.0
C2361 C 0.25594 0.11492 0.71087 0.0
C2362 C 0.25949 0.08896 0.72314 0.0
C2363 C 0.24383 0.11829 0.65672 0.0
C2364 C 0.27901 0.12819 0.71358 0.0
C2365 C 0.27797 0.14503 0.75303 0.0
C2366 C 0.29677 0.15965 0.76373 0.0
C2367 C 0.31729 0.15689 0.73416 0.0
C2368 C 0.31937 0.13939 0.69436 0.0
C2369 C 0.29971 0.12499 0.68357 0.0
H2370 H 0.6279 0.5404 0.40385 0.0
H2371 H 0.6633 0.58093 0.52618 0.0
H2372 H 0.6668 0.54635 0.58168 0.0
H2373 H 0.59405 0.50662 0.49588 0.0
H2374 H 0.59555 0.4797 0.45893 0.0
H2375 H 0.59743 0.50711 0.42454 0.0
H2376 H 0.63673 0.49443 0.38319 0.0
H2377 H 0.63499 0.46696 0.41745 0.0
H2378 H 0.66029 0.48525 0.42612 0.0
H2379 H 0.66786 0.50791 0.62489 0.0
H2380 H 0.66247 0.46807 0.65739 0.0
H2381 H 0.62215 0.4511 0.5159 0.0
C2382 C 0.63683 0.54188 0.44168 0.0
C2383 C 0.64589 0.56371 0.45935 0.0
C2384 C 0.65653 0.5647 0.51056 0.0
C2385 C 0.65866 0.545 0.54281 0.0
C2386 C 0.64963 0.52399 0.5246 0.0
C2387 C 0.63865 0.52216 0.47562 0.0
C2388 C 0.62914 0.49743 0.46836 0.0
C2389 C 0.60245 0.49774 0.46153 0.0
C2390 C 0.64099 0.4853 0.42095 0.0
C2391 C 0.63632 0.48606 0.52107 0.0
C2392 C 0.64853 0.50177 0.55211 0.0
C2393 C 0.65789 0.49557 0.6014 0.0
C2394 C 0.65444 0.47285 0.62007 0.0
C2395 C 0.64097 0.4565 0.59099 0.0
C2396 C 0.63209 0.46323 0.54008 0.0
H2397 H 0.30044 0.86369 0.33841 0.0
H2398 H 0.32209 0.93373 0.29802 0.0
H2399 H 0.28756 0.93816 0.24058 0.0
H2400 H 0.27303 0.84765 0.2134 0.0
H2401 H 0.24825 0.83346 0.24304 0.0
H2402 H 0.27572 0.83459 0.27831 0.0
H2403 H 0.25503 0.85325 0.35794 0.0
H2404 H 0.22741 0.85327 0.32358 0.0
H2405 H 0.23909 0.88011 0.3499 0.0
H2406 H 0.25191 0.93444 0.18171 0.0
H2407 H 0.21342 0.92592 0.14075 0.0
H2408 H 0.21028 0.86122 0.22866 0.0
C2409 C 0.2979 0.87995 0.3175 0.0
C2410 C 0.31495 0.89794 0.32076 0.0
C2411 C 0.31023 0.91917 0.29412 0.0
C2412 C 0.29043 0.92198 0.26156 0.0
C2413 C 0.27451 0.90378 0.25743 0.0
C2414 C 0.2775 0.88344 0.28603 0.0
C2415 C 0.25643 0.86755 0.27757 0.0
C2416 C 0.26381 0.84444 0.25153 0.0
C2417 C 0.24372 0.86333 0.33041 0.0
C2418 C 0.24148 0.88204 0.23951 0.0
C2419 C 0.25258 0.90265 0.22753 0.0
C2420 C 0.24291 0.91846 0.19136 0.0
C2421 C 0.22111 0.91338 0.16777 0.0
C2422 C 0.20874 0.89295 0.18127 0.0
C2423 C 0.21924 0.87705 0.21757 0.0
H2424 H 0.62263 0.95147 0.51292 0.0
H2425 H 0.6646 0.96702 0.37406 0.0
H2426 H 0.66878 1.00757 0.40513 0.0
H2427 H 0.592 1.00726 0.52003 0.0
H2428 H 0.59262 1.00881 0.59175 0.0
H2429 H 0.59236 0.98089 0.55874 0.0
H2430 H 0.63017 0.96909 0.60898 0.0
H2431 H 0.63019 0.99691 0.64216 0.0
H2432 H 0.65548 0.98766 0.60532 0.0
H2433 H 0.67125 0.04547 0.45387 0.0
H2434 H 0.66912 0.07948 0.51337 0.0
H2435 H 0.62282 0.04245 0.61843 0.0
C2436 C 0.6325 0.96347 0.48871 0.0
C2437 C 0.64301 0.95586 0.44023 0.0
C2438 C 0.65599 0.97224 0.41051 0.0
C2439 C 0.65861 0.99538 0.42814 0.0
C2440 C 0.64814 1.00222 0.47584 0.0
C2441 C 0.63516 0.98687 0.50565 0.0
C2442 C 0.62596 0.99898 0.55578 0.0
C2443 C 0.59913 0.99898 0.5566 0.0
C2444 C 0.63606 0.98746 0.60603 0.0
C2445 C 0.63555 0.0236 0.54908 0.0
C2446 C 0.64863 0.02474 0.50298 0.0
C2447 C 0.66063 0.04485 0.48936 0.0
C2448 C 0.65922 0.06426 0.52323 0.0
C2449 C 0.6454 0.06429 0.56974 0.0
C2450 C 0.63327 0.04345 0.58279 0.0
H2451 H 0.21196 0.416 0.80523 0.0
H2452 H 0.21089 0.34416 0.85759 0.0
H2453 H 0.24825 0.33708 0.81097 0.0
H2454 H 0.23758 0.40609 0.67551 0.0
H2455 H 0.25553 0.43181 0.67757 0.0
H2456 H 0.22833 0.43116 0.71337 0.0
H2457 H 0.25016 0.44179 0.80076 0.0
H2458 H 0.27738 0.44255 0.76511 0.0
H2459 H 0.27436 0.42404 0.82245 0.0
H2460 H 0.28485 0.33717 0.75231 0.0
H2461 H 0.32004 0.34577 0.69894 0.0
H2462 H 0.29994 0.41844 0.69218 0.0
C2463 C 0.21957 0.39876 0.80699 0.0
C2464 C 0.20818 0.38056 0.83502 0.0
C2465 C 0.21906 0.35839 0.83655 0.0
C2466 C 0.24031 0.35418 0.80987 0.0
C2467 C 0.25091 0.37238 0.78222 0.0
C2468 C 0.24109 0.39437 0.78141 0.0
C2469 C 0.25659 0.41116 0.75069 0.0
C2470 C 0.24373 0.42062 0.70138 0.0
C2471 C 0.26513 0.43106 0.78692 0.0
C2472 C 0.27668 0.39527 0.73452 0.0
C2473 C 0.27278 0.37283 0.75207 0.0
C2474 C 0.28819 0.35478 0.7393 0.0
C2475 C 0.30815 0.35982 0.70876 0.0
C2476 C 0.31308 0.38284 0.69216 0.0
C2477 C 0.29697 0.40076 0.70524 0.0
H2478 H 0.88954 0.97653 0.11326 0.0
H2479 H 0.86599 0.93383 0.98045 0.0
H2480 H 0.86367 0.96828 0.92417 0.0
H2481 H 0.85547 0.02908 0.08334 0.0
H2482 H 0.87951 0.04788 0.10184 0.0
H2483 H 0.87688 0.01963 0.13162 0.0
H2484 H 0.91952 0.01213 0.10028 0.0
H2485 H 0.92042 0.04002 0.06767 0.0
H2486 H 0.92619 0.0138 0.03029 0.0
H2487 H 0.86142 1.0069 0.88195 0.0
H2488 H 0.86243 0.04793 0.85458 0.0
H2489 H 0.89159 0.06747 1.00733 0.0
C2490 C 0.88364 0.97441 0.07273 0.0
C2491 C 0.87754 0.95204 0.05236 0.0
C2492 C 0.87063 0.95043 0.99799 0.0
C2493 C 0.86919 0.97004 0.96526 0.0
C2494 C 0.87525 0.9916 0.98632 0.0
C2495 C 0.88267 0.99403 0.03845 0.0
C2496 C 0.88927 0.0194 0.04926 0.0
C2497 C 0.87432 0.02958 0.09419 0.0
C2498 C 0.91541 0.02145 0.06266 0.0
C2499 C 0.88359 0.03079 0.99561 0.0
C2500 C 0.87556 0.01416 0.96017 0.0
C2501 C 0.86832 0.01998 0.90884 0.0
C2502 C 0.86945 0.04331 0.89291 0.0
C2503 C 0.87843 0.06074 0.92694 0.0
C2504 C 0.88525 0.05442 0.97964 0.0
H2505 H 0.22249 0.65525 0.16978 0.0
H2506 H 0.19882 0.5875 0.22324 0.0
H2507 H 0.233 0.58414 0.28126 0.0
H2508 H 0.2844 0.63579 0.16489 0.0
H2509 H 0.29614 0.66364 0.18458 0.0
H2510 H 0.26883 0.66214 0.14868 0.0
H2511 H 0.2486 0.68553 0.22345 0.0
H2512 H 0.27577 0.68706 0.25987 0.0
H2513 H 0.25016 0.67518 0.29108 0.0
H2514 H 0.26766 0.58895 0.34122 0.0
H2515 H 0.30595 0.59735 0.38272 0.0
H2516 H 0.31259 0.6586 0.28348 0.0
C2517 C 0.22455 0.6397 0.19354 0.0
C2518 C 0.20695 0.62212 0.19319 0.0
C2519 C 0.21116 0.60176 0.22374 0.0
C2520 C 0.23074 0.59955 0.25713 0.0
C2521 C 0.24706 0.6174 0.25861 0.0
C2522 C 0.24482 0.6367 0.2262 0.0
C2523 C 0.26651 0.65206 0.23251 0.0
C2524 C 0.27976 0.65349 0.17952 0.0
C2525 C 0.25985 0.67641 0.25293 0.0
C2526 C 0.28064 0.63865 0.27449 0.0
C2527 C 0.26871 0.61893 0.28953 0.0
C2528 C 0.27736 0.60419 0.32922 0.0
C2529 C 0.29908 0.60925 0.35316 0.0
C2530 C 0.31246 0.62861 0.33683 0.0
C2531 C 0.30286 0.64362 0.29707 0.0
H2532 H 0.38618 0.97799 0.39297 0.0
H2533 H 0.37591 0.93409 0.53163 0.0
H2534 H 0.37338 0.96828 0.58831 0.0
H2535 H 0.42336 0.01965 0.46377 0.0
H2536 H 0.4122 0.04483 0.42941 0.0
H2537 H 0.41216 0.01682 0.39685 0.0
H2538 H 0.36771 0.02056 0.37996 0.0
H2539 H 0.36766 0.04856 0.41261 0.0
H2540 H 0.34845 0.02587 0.43531 0.0
H2541 H 0.37085 1.00674 0.63271 0.0
H2542 H 0.37151 0.04787 0.66157 0.0
H2543 H 0.38646 0.06852 0.49901 0.0
C2544 C 0.38328 0.97553 0.43503 0.0
C2545 C 0.38105 0.95277 0.45672 0.0
C2546 C 0.3777 0.95088 0.51278 0.0
C2547 C 0.37612 0.97038 0.54599 0.0
C2548 C 0.37839 0.99227 0.52376 0.0
C2549 C 0.3822 0.99515 0.46978 0.0
C2550 C 0.38517 0.02102 0.45773 0.0
C2551 C 0.40968 0.02586 0.43563 0.0
C2552 C 0.36611 0.0295 0.4191 0.0
C2553 C 0.38214 0.03182 0.5131 0.0
C2554 C 0.37807 0.01482 0.55038 0.0
C2555 C 0.37426 0.02028 0.60396 0.0
C2556 C 0.37476 0.04376 0.62017 0.0
C2557 C 0.37942 0.06167 0.58326 0.0
C2558 C 0.38304 0.0554 0.52879 0.0
H2559 H 0.81399 0.65997 0.23783 0.0
H2560 H 0.80883 0.59701 0.14265 0.0
H2561 H 0.76935 0.59009 0.17757 0.0
H2562 H 0.7802 0.64066 0.35733 0.0
H2563 H 0.76805 0.66926 0.363 0.0
H2564 H 0.79629 0.66538 0.33286 0.0
H2565 H 0.77723 0.68893 0.25293 0.0
H2566 H 0.7489 0.68843 0.28398 0.0
H2567 H 0.75263 0.67637 0.21821 0.0
H2568 H 0.73124 0.58868 0.22432 0.0
H2569 H 0.69579 0.59335 0.2777 0.0
H2570 H 0.72312 0.65782 0.34395 0.0
C2571 C 0.80455 0.64467 0.22463 0.0
C2572 C 0.81467 0.62905 0.18697 0.0
C2573 C 0.80154 0.60941 0.17055 0.0
C2574 C 0.77908 0.60523 0.19059 0.0
C2575 C 0.76962 0.62085 0.22736 0.0
C2576 C 0.78179 0.64028 0.24425 0.0
C2577 C 0.76676 0.65471 0.28247 0.0
C2578 C 0.77861 0.65766 0.33707 0.0
C2579 C 0.76104 0.67852 0.25792 0.0
C2580 C 0.74484 0.63964 0.28642 0.0
C2581 C 0.74697 0.62036 0.25365 0.0
C2582 C 0.7294 0.60371 0.25007 0.0
C2583 C 0.70921 0.60655 0.28088 0.0
C2584 C 0.70636 0.62592 0.31552 0.0
C2585 C 0.72455 0.64281 0.31798 0.0
H2586 H 0.119 0.04234 0.90825 0.0
H2587 H 0.17745 0.07394 0.99184 0.0
H2588 H 0.18019 0.04005 0.05033 0.0
H2589 H 0.09273 0.01246 0.01903 0.0
H2590 H 0.08628 0.98609 0.98276 0.0
H2591 H 0.08772 0.01346 0.94813 0.0
H2592 H 0.11838 0.99618 0.88459 0.0
H2593 H 0.1176 0.96877 0.91905 0.0
H2594 H 0.14494 0.98385 0.91111 0.0
H2595 H 0.17692 1.00295 0.10162 0.0
H2596 H 0.16948 0.96392 0.1378 0.0
H2597 H 0.11505 0.95321 0.01958 0.0
C2598 C 0.13231 0.04217 0.93897 0.0
C2599 C 0.14749 0.06161 0.94618 0.0
C2600 C 0.16498 0.06008 0.98624 0.0
C2601 C 0.16687 0.04062 0.01964 0.0
C2602 C 0.15166 0.02201 0.01198 0.0
C2603 C 0.13496 0.02231 0.97205 0.0
C2604 C 0.12176 0.99918 0.97114 0.0
C2605 C 0.09556 1.00304 0.98085 0.0
C2606 C 0.12594 0.98623 0.91833 0.0
C2607 C 0.13322 0.9863 0.01764 0.0
C2608 C 0.15043 0.99993 0.04046 0.0
C2609 C 0.16347 0.99214 0.08401 0.0
C2610 C 0.15895 0.9699 0.10476 0.0
C2611 C 0.14144 0.95537 0.08256 0.0
C2612 C 0.12851 0.9638 0.03792 0.0
H2613 H 0.7158 0.35924 0.69952 0.0
H2614 H 0.70367 0.43326 0.68254 0.0
H2615 H 0.74011 0.44138 0.73295 0.0
H2616 H 0.74335 0.35862 0.82694 0.0
H2617 H 0.76556 0.33764 0.81006 0.0
H2618 H 0.73789 0.3373 0.77552 0.0
H2619 H 0.75897 0.341 0.68494 0.0
H2620 H 0.78671 0.34086 0.71914 0.0
H2621 H 0.77935 0.36445 0.67497 0.0
H2622 H 0.77462 0.44073 0.79929 0.0
H2623 H 0.81165 0.43281 0.84734 0.0
H2624 H 0.80753 0.36025 0.80083 0.0
C2625 C 0.72109 0.37714 0.70564 0.0
C2626 C 0.7066 0.39569 0.68809 0.0
C2627 C 0.71431 0.41883 0.69614 0.0
C2628 C 0.73491 0.42359 0.72513 0.0
C2629 C 0.7484 0.40497 0.74361 0.0
C2630 C 0.74241 0.38221 0.73186 0.0
C2631 C 0.76127 0.36555 0.75168 0.0
C2632 C 0.75142 0.34878 0.79351 0.0
C2633 C 0.77223 0.35218 0.7049 0.0
C2634 C 0.77863 0.38244 0.77695 0.0
C2635 C 0.77029 0.40499 0.77393 0.0
C2636 C 0.78172 0.42326 0.80002 0.0
C2637 C 0.80268 0.41858 0.82761 0.0
C2638 C 0.81299 0.39616 0.82608 0.0
C2639 C 0.80047 0.37775 0.80124 0.0
loop_
_geom_bond_atom_site_label_1
_geom_bond_atom_site_label_2
_geom_bond_distance
_geom_bond_site_symmetry_2
_ccdc_geom_bond_type
Eu0 N29 2.600 . S
Eu0 N35 2.562 . S
Eu0 O44 2.462 . S
Eu0 O45 2.373 . S
Eu0 O47 2.432 . S
Eu0 O48 2.291 . S
Eu0 O52 2.335 . S
Eu0 O55 2.372 . S
Eu0 C64 2.787 . S
C1 N2 1.365 . S
C1 C4 1.405 . S
C1 C8 1.448 . S
N2 C1 1.365 . S
N2 C5 1.319 . S
N2 Eu11 2.600 . S
C3 C5 1.397 . S
C3 C6 1.367 . S
C3 H23 0.931 . S
C4 C1 1.405 . S
C4 C6 1.403 . S
C4 C10 1.439 1_554 S
C5 N2 1.319 . S
C5 C3 1.397 . S
C5 H16 0.930 . S
C6 C3 1.367 . S
C6 C4 1.403 . S
C6 H27 0.929 . S
C7 C8 1.430 1_556 S
C7 C9 1.387 . S
C7 C13 1.404 . S
C8 C1 1.448 . S
C8 C7 1.430 1_554 S
C8 N12 1.351 . S
C9 C7 1.387 . S
C9 C10 1.374 . S
C9 H24 0.931 . S
C10 C4 1.439 1_556 S
C10 C9 1.374 . S
C10 H25 0.931 . S
Eu11 N2 2.600 . S
Eu11 N12 2.562 . S
Eu11 O46 2.335 . S
Eu11 O49 2.372 . S
Eu11 O50 2.462 1_554 S
Eu11 O51 2.373 . S
Eu11 O53 2.432 1_554 S
Eu11 O54 2.291 . S
Eu11 C75 2.787 1_554 S
N12 C8 1.351 . S
N12 Eu11 2.562 . S
N12 C14 1.325 . S
C13 C7 1.404 . S
C13 C15 1.366 . S
C13 H21 0.930 . S
C14 N12 1.325 . S
C14 C15 1.416 1_554 S
C14 H20 0.929 . S
C15 C13 1.366 . S
C15 C14 1.416 1_556 S
C15 H17 0.930 . S
H16 C5 0.930 . S
H17 C15 0.930 . S
H18 C33 0.930 . S
H19 C40 0.930 . S
H20 C14 0.929 . S
H21 C13 0.930 . S
H22 C36 0.929 . S
H23 C3 0.931 . S
H24 C9 0.931 . S
H25 C10 0.931 . S
H26 C31 0.931 . S
H27 C6 0.929 . S
H28 C39 0.930 . S
N29 Eu0 2.600 . S
N29 C30 1.365 . S
N29 C33 1.319 . S
C30 N29 1.365 . S
C30 C32 1.405 . S
C30 C38 1.448 . S
C31 H26 0.931 . S
C31 C33 1.397 . S
C31 C34 1.367 . S
C32 C30 1.405 . S
C32 C34 1.403 . S
C32 C65 1.439 . S
C33 H18 0.930 . S
C33 N29 1.319 . S
C33 C31 1.397 . S
C34 C31 1.367 . S
C34 C32 1.403 . S
C34 H41 0.929 . S
N35 Eu0 2.562 . S
N35 C36 1.325 . S
N35 C38 1.351 . S
C36 H22 0.929 . S
C36 N35 1.325 . S
C36 C40 1.416 . S
C37 C38 1.430 . S
C37 C39 1.404 . S
C37 C66 1.387 . S
C38 C30 1.448 . S
C38 N35 1.351 . S
C38 C37 1.430 . S
C39 H28 0.930 . S
C39 C37 1.404 . S
C39 C40 1.366 . S
C40 H19 0.930 . S
C40 C36 1.416 . S
C40 C39 1.366 . S
H41 C34 0.929 . S
H42 C65 0.931 . S
H43 C66 0.931 . S
O44 Eu0 2.462 . S
O44 C64 1.252 . S
O45 Eu0 2.373 . S
O45 C56 1.249 . S
O46 Eu11 2.335 . S
O46 C56 1.264 . S
O47 Eu0 2.432 . S
O47 C64 1.268 . S
O48 Eu0 2.291 . S
O48 C63 1.255 . S
O49 Eu11 2.372 . S
O49 C63 1.257 . S
O50 Eu11 2.462 1_556 S
O50 C75 1.252 . S
O51 Eu11 2.373 . S
O51 C67 1.249 . S
O52 Eu0 2.335 . S
O52 C67 1.264 . S
O53 Eu11 2.432 1_556 S
O53 C75 1.268 . S
O54 Eu11 2.291 . S
O54 C74 1.255 . S
O55 Eu0 2.372 . S
O55 C74 1.257 . S
C56 O45 1.249 . S
C56 O46 1.264 . S
C57 C60 1.382 . S
C57 C62 1.390 . S
C57 C64 1.506 . S
C58 C59 1.398 . S
C58 C62 1.392 . S
C59 C58 1.398 . S
C59 C61 1.372 . S
C59 H76 0.931 . S
C60 C57 1.382 . S
C60 C61 1.390 . S
C60 H77 0.931 . S
C61 C59 1.372 . S
C61 C60 1.390 . S
C61 H78 0.929 . S
C62 C57 1.390 . S
C62 C58 1.392 . S
C62 H79 0.930 . S
C63 O48 1.255 . S
C63 O49 1.257 . S
C64 Eu0 2.787 . S
C64 O44 1.252 . S
C64 O47 1.268 . S
C64 C57 1.506 . S
C65 C32 1.439 . S
C65 H42 0.931 . S
C65 C66 1.374 . S
C66 C37 1.387 . S
C66 H43 0.931 . S
C66 C65 1.374 . S
C67 O51 1.249 . S
C67 O52 1.264 . S
C68 C71 1.382 . S
C68 C72 1.390 . S
C68 C75 1.506 . S
C69 C70 1.398 . S
C69 C72 1.392 . S
C70 C69 1.398 . S
C70 C73 1.372 . S
C70 H80 0.931 . S
C71 C68 1.382 . S
C71 C73 1.390 . S
C71 H81 0.931 . S
C72 C68 1.390 . S
C72 C69 1.392 . S
C72 H82 0.930 . S
C73 C70 1.372 . S
C73 C71 1.390 . S
C73 H83 0.929 . S
C74 O54 1.255 . S
C74 O55 1.257 . S
C75 Eu11 2.787 1_556 S
C75 O50 1.252 . S
C75 O53 1.268 . S
C75 C68 1.506 . S
H76 C59 0.931 . S
H77 C60 0.931 . S
H78 C61 0.929 . S
H79 C62 0.930 . S
H80 C70 0.931 . S
H81 C71 0.931 . S
H82 C72 0.930 . S
H83 C73 0.929 . S
Eu84 N113 2.600 . S
Eu84 N119 2.562 . S
Eu84 O128 2.462 . S
Eu84 O129 2.373 . S
Eu84 O131 2.432 . S
Eu84 O132 2.291 . S
Eu84 O136 2.335 . S
Eu84 O139 2.372 . S
Eu84 C148 2.787 . S
C85 N86 1.365 . S
C85 C88 1.405 . S
C85 C92 1.448 . S
N86 C85 1.365 . S
N86 C89 1.319 . S
N86 Eu95 2.600 . S
C87 C89 1.397 . S
C87 C90 1.367 . S
C87 H107 0.931 . S
C88 C85 1.405 . S
C88 C90 1.403 . S
C88 C94 1.439 . S
C89 N86 1.319 . S
C89 C87 1.397 . S
C89 H100 0.930 . S
C90 C87 1.367 . S
C90 C88 1.403 . S
C90 H111 0.929 . S
C91 C92 1.430 . S
C91 C93 1.387 . S
C91 C97 1.404 . S
C92 C85 1.448 . S
C92 C91 1.430 . S
C92 N96 1.351 . S
C93 C91 1.387 . S
C93 C94 1.374 . S
C93 H108 0.931 . S
C94 C88 1.439 . S
C94 C93 1.374 . S
C94 H109 0.931 . S
Eu95 N86 2.600 . S
Eu95 N96 2.562 . S
Eu95 O130 2.335 . S
Eu95 O133 2.372 . S
Eu95 O134 2.462 . S
Eu95 O135 2.373 . S
Eu95 O137 2.432 . S
Eu95 O138 2.291 . S
Eu95 C159 2.787 . S
N96 C92 1.351 . S
N96 Eu95 2.562 . S
N96 C98 1.325 . S
C97 C91 1.404 . S
C97 C99 1.366 . S
C97 H105 0.930 . S
C98 N96 1.325 . S
C98 C99 1.416 . S
C98 H104 0.929 . S
C99 C97 1.366 . S
C99 C98 1.416 . S
C99 H101 0.930 . S
H100 C89 0.930 . S
H101 C99 0.930 . S
H102 C117 0.930 . S
H103 C124 0.930 . S
H104 C98 0.929 . S
H105 C97 0.930 . S
H106 C120 0.929 . S
H107 C87 0.931 . S
H108 C93 0.931 . S
H109 C94 0.931 . S
H110 C115 0.931 . S
H111 C90 0.929 . S
H112 C123 0.930 . S
N113 Eu84 2.600 . S
N113 C114 1.365 . S
N113 C117 1.319 . S
C114 N113 1.365 . S
C114 C116 1.405 . S
C114 C122 1.448 . S
C115 H110 0.931 . S
C115 C117 1.397 . S
C115 C118 1.367 . S
C116 C114 1.405 . S
C116 C118 1.403 . S
C116 C149 1.439 . S
C117 H102 0.930 . S
C117 N113 1.319 . S
C117 C115 1.397 . S
C118 C115 1.367 . S
C118 C116 1.403 . S
C118 H125 0.929 . S
N119 Eu84 2.562 . S
N119 C120 1.325 . S
N119 C122 1.351 . S
C120 H106 0.929 . S
C120 N119 1.325 . S
C120 C124 1.416 . S
C121 C122 1.430 . S
C121 C123 1.404 . S
C121 C150 1.387 . S
C122 C114 1.448 . S
C122 N119 1.351 . S
C122 C121 1.430 . S
C123 H112 0.930 . S
C123 C121 1.404 . S
C123 C124 1.366 . S
C124 H103 0.930 . S
C124 C120 1.416 . S
C124 C123 1.366 . S
H125 C118 0.929 . S
H126 C149 0.931 . S
H127 C150 0.931 . S
O128 Eu84 2.462 . S
O128 C148 1.252 . S
O129 Eu84 2.373 . S
O129 C140 1.249 . S
O130 Eu95 2.335 . S
O130 C140 1.264 . S
O131 Eu84 2.432 . S
O131 C148 1.268 . S
O132 Eu84 2.291 . S
O132 C147 1.255 . S
O133 Eu95 2.372 . S
O133 C147 1.257 . S
O134 Eu95 2.462 . S
O134 C159 1.252 . S
O135 Eu95 2.373 . S
O135 C151 1.249 . S
O136 Eu84 2.335 . S
O136 C151 1.264 . S
O137 Eu95 2.432 . S
O137 C159 1.268 . S
O138 Eu95 2.291 . S
O138 C158 1.255 . S
O139 Eu84 2.372 . S
O139 C158 1.257 . S
C140 O129 1.249 . S
C140 O130 1.264 . S
C141 C144 1.382 . S
C141 C146 1.390 . S
C141 C148 1.506 . S
C142 C143 1.398 . S
C142 C146 1.392 . S
C143 C142 1.398 . S
C143 C145 1.372 . S
C143 H160 0.931 . S
C144 C141 1.382 . S
C144 C145 1.390 . S
C144 H161 0.931 . S
C145 C143 1.372 . S
C145 C144 1.390 . S
C145 H162 0.929 . S
C146 C141 1.390 . S
C146 C142 1.392 . S
C146 H163 0.930 . S
C147 O132 1.255 . S
C147 O133 1.257 . S
C148 Eu84 2.787 . S
C148 O128 1.252 . S
C148 O131 1.268 . S
C148 C141 1.506 . S
C149 C116 1.439 . S
C149 H126 0.931 . S
C149 C150 1.374 . S
C150 C121 1.387 . S
C150 H127 0.931 . S
C150 C149 1.374 . S
C151 O135 1.249 . S
C151 O136 1.264 . S
C152 C155 1.382 . S
C152 C156 1.390 . S
C152 C159 1.506 . S
C153 C154 1.398 . S
C153 C156 1.392 . S
C154 C153 1.398 . S
C154 C157 1.372 . S
C154 H164 0.931 . S
C155 C152 1.382 . S
C155 C157 1.390 . S
C155 H165 0.931 . S
C156 C152 1.390 . S
C156 C153 1.392 . S
C156 H166 0.930 . S
C157 C154 1.372 . S
C157 C155 1.390 . S
C157 H167 0.929 . S
C158 O138 1.255 . S
C158 O139 1.257 . S
C159 Eu95 2.787 . S
C159 O134 1.252 . S
C159 O137 1.268 . S
C159 C152 1.506 . S
H160 C143 0.931 . S
H161 C144 0.931 . S
H162 C145 0.929 . S
H163 C146 0.930 . S
H164 C154 0.931 . S
H165 C155 0.931 . S
H166 C156 0.930 . S
H167 C157 0.929 . S
Eu168 N197 2.600 . S
Eu168 N203 2.562 . S
Eu168 O212 2.462 . S
Eu168 O213 2.373 . S
Eu168 O215 2.432 . S
Eu168 O216 2.291 . S
Eu168 O220 2.335 . S
Eu168 O223 2.372 . S
Eu168 C232 2.787 . S
C169 N170 1.365 . S
C169 C172 1.405 . S
C169 C176 1.448 . S
N170 C169 1.365 . S
N170 C173 1.319 . S
N170 Eu179 2.600 . S
C171 C173 1.397 . S
C171 C174 1.367 . S
C171 H191 0.931 . S
C172 C169 1.405 . S
C172 C174 1.403 . S
C172 C178 1.439 . S
C173 N170 1.319 . S
C173 C171 1.397 . S
C173 H184 0.930 . S
C174 C171 1.367 . S
C174 C172 1.403 . S
C174 H195 0.929 . S
C175 C176 1.430 . S
C175 C177 1.387 . S
C175 C181 1.404 . S
C176 C169 1.448 . S
C176 C175 1.430 . S
C176 N180 1.351 . S
C177 C175 1.387 . S
C177 C178 1.374 . S
C177 H192 0.931 . S
C178 C172 1.439 . S
C178 C177 1.374 . S
C178 H193 0.931 . S
Eu179 N170 2.600 . S
Eu179 N180 2.562 . S
Eu179 O214 2.335 . S
Eu179 O217 2.372 . S
Eu179 O218 2.462 . S
Eu179 O219 2.373 . S
Eu179 O221 2.432 . S
Eu179 O222 2.291 . S
Eu179 C243 2.787 . S
N180 C176 1.351 . S
N180 Eu179 2.562 . S
N180 C182 1.325 . S
C181 C175 1.404 . S
C181 C183 1.366 . S
C181 H189 0.930 . S
C182 N180 1.325 . S
C182 C183 1.416 . S
C182 H188 0.929 . S
C183 C181 1.366 . S
C183 C182 1.416 . S
C183 H185 0.930 . S
H184 C173 0.930 . S
H185 C183 0.930 . S
H186 C201 0.930 . S
H187 C208 0.930 . S
H188 C182 0.929 . S
H189 C181 0.930 . S
H190 C204 0.929 . S
H191 C171 0.931 . S
H192 C177 0.931 . S
H193 C178 0.931 . S
H194 C199 0.931 . S
H195 C174 0.929 . S
H196 C207 0.930 . S
N197 Eu168 2.600 . S
N197 C198 1.365 . S
N197 C201 1.319 . S
C198 N197 1.365 . S
C198 C200 1.405 . S
C198 C206 1.448 . S
C199 H194 0.931 . S
C199 C201 1.397 . S
C199 C202 1.367 . S
C200 C198 1.405 . S
C200 C202 1.403 . S
C200 C233 1.439 . S
C201 H186 0.930 . S
C201 N197 1.319 . S
C201 C199 1.397 . S
C202 C199 1.367 . S
C202 C200 1.403 . S
C202 H209 0.929 . S
N203 Eu168 2.562 . S
N203 C204 1.325 . S
N203 C206 1.351 . S
C204 H190 0.929 . S
C204 N203 1.325 . S
C204 C208 1.416 . S
C205 C206 1.430 . S
C205 C207 1.404 . S
C205 C234 1.387 . S
C206 C198 1.448 . S
C206 N203 1.351 . S
C206 C205 1.430 . S
C207 H196 0.930 . S
C207 C205 1.404 . S
C207 C208 1.366 . S
C208 H187 0.930 . S
C208 C204 1.416 . S
C208 C207 1.366 . S
H209 C202 0.929 . S
H210 C233 0.931 . S
H211 C234 0.931 . S
O212 Eu168 2.462 . S
O212 C232 1.252 . S
O213 Eu168 2.373 . S
O213 C224 1.249 . S
O214 Eu179 2.335 . S
O214 C224 1.264 . S
O215 Eu168 2.432 . S
O215 C232 1.268 . S
O216 Eu168 2.291 . S
O216 C231 1.255 . S
O217 Eu179 2.372 . S
O217 C231 1.257 . S
O218 Eu179 2.462 . S
O218 C243 1.252 . S
O219 Eu179 2.373 . S
O219 C235 1.249 . S
O220 Eu168 2.335 . S
O220 C235 1.264 . S
O221 Eu179 2.432 . S
O221 C243 1.268 . S
O222 Eu179 2.291 . S
O222 C242 1.255 . S
O223 Eu168 2.372 . S
O223 C242 1.257 . S
C224 O213 1.249 . S
C224 O214 1.264 . S
C225 C228 1.382 . S
C225 C230 1.390 . S
C225 C232 1.506 . S
C226 C227 1.398 . S
C226 C230 1.392 . S
C227 C226 1.398 . S
C227 C229 1.372 . S
C227 H244 0.931 1_556 S
C228 C225 1.382 . S
C228 C229 1.390 . S
C228 H245 0.931 . S
C229 C227 1.372 . S
C229 C228 1.390 . S
C229 H246 0.929 . S
C230 C225 1.390 . S
C230 C226 1.392 . S
C230 H247 0.930 . S
C231 O216 1.255 . S
C231 O217 1.257 . S
C232 Eu168 2.787 . S
C232 O212 1.252 . S
C232 O215 1.268 . S
C232 C225 1.506 . S
C233 C200 1.439 . S
C233 H210 0.931 . S
C233 C234 1.374 . S
C234 C205 1.387 . S
C234 H211 0.931 . S
C234 C233 1.374 . S
C235 O219 1.249 . S
C235 O220 1.264 . S
C236 C239 1.382 . S
C236 C240 1.390 . S
C236 C243 1.506 . S
C237 C238 1.398 . S
C237 C240 1.392 . S
C238 C237 1.398 . S
C238 C241 1.372 . S
C238 H248 0.931 . S
C239 C236 1.382 . S
C239 C241 1.390 . S
C239 H249 0.931 . S
C240 C236 1.390 . S
C240 C237 1.392 . S
C240 H250 0.930 . S
C241 C238 1.372 . S
C241 C239 1.390 . S
C241 H251 0.929 . S
C242 O222 1.255 . S
C242 O223 1.257 . S
C243 Eu179 2.787 . S
C243 O218 1.252 . S
C243 O221 1.268 . S
C243 C236 1.506 . S
H244 C227 0.931 1_554 S
H245 C228 0.931 . S
H246 C229 0.929 . S
H247 C230 0.930 . S
H248 C238 0.931 . S
H249 C239 0.931 . S
H250 C240 0.930 . S
H251 C241 0.929 . S
Eu252 N281 2.600 . S
Eu252 N287 2.562 . S
Eu252 O296 2.462 1_556 S
Eu252 O297 2.373 . S
Eu252 O299 2.432 1_556 S
Eu252 O300 2.291 . S
Eu252 O304 2.335 . S
Eu252 O307 2.372 . S
Eu252 C316 2.787 1_556 S
C253 N254 1.365 . S
C253 C256 1.405 . S
C253 C260 1.448 . S
N254 C253 1.365 . S
N254 C257 1.319 . S
N254 Eu263 2.600 . S
C255 C257 1.397 . S
C255 C258 1.367 . S
C255 H275 0.931 . S
C256 C253 1.405 . S
C256 C258 1.403 . S
C256 C262 1.439 . S
C257 N254 1.319 . S
C257 C255 1.397 . S
C257 H268 0.930 . S
C258 C255 1.367 . S
C258 C256 1.403 . S
C258 H279 0.929 . S
C259 C260 1.430 . S
C259 C261 1.387 . S
C259 C265 1.404 . S
C260 C253 1.448 . S
C260 C259 1.430 . S
C260 N264 1.351 . S
C261 C259 1.387 . S
C261 C262 1.374 . S
C261 H276 0.931 1_545 S
C262 C256 1.439 . S
C262 C261 1.374 . S
C262 H277 0.931 . S
Eu263 N254 2.600 . S
Eu263 N264 2.562 . S
Eu263 O298 2.335 . S
Eu263 O301 2.372 . S
Eu263 O302 2.462 . S
Eu263 O303 2.373 . S
Eu263 O305 2.432 . S
Eu263 O306 2.291 . S
Eu263 C327 2.787 . S
N264 C260 1.351 . S
N264 Eu263 2.562 . S
N264 C266 1.325 . S
C265 C259 1.404 . S
C265 C267 1.366 . S
C265 H273 0.930 . S
C266 N264 1.325 . S
C266 C267 1.416 . S
C266 H272 0.929 . S
C267 C265 1.366 . S
C267 C266 1.416 . S
C267 H269 0.930 . S
H268 C257 0.930 . S
H269 C267 0.930 . S
H270 C285 0.930 . S
H271 C292 0.930 . S
H272 C266 0.929 . S
H273 C265 0.930 . S
H274 C288 0.929 . S
H275 C255 0.931 . S
H276 C261 0.931 1_565 S
H277 C262 0.931 . S
H278 C283 0.931 . S
H279 C258 0.929 . S
H280 C291 0.930 . S
N281 Eu252 2.600 . S
N281 C282 1.365 . S
N281 C285 1.319 . S
C282 N281 1.365 . S
C282 C284 1.405 . S
C282 C290 1.448 . S
C283 H278 0.931 . S
C283 C285 1.397 . S
C283 C286 1.367 . S
C284 C282 1.405 . S
C284 C286 1.403 . S
C284 C317 1.439 1_556 S
C285 H270 0.930 . S
C285 N281 1.319 . S
C285 C283 1.397 . S
C286 C283 1.367 . S
C286 C284 1.403 . S
C286 H293 0.929 . S
N287 Eu252 2.562 . S
N287 C288 1.325 . S
N287 C290 1.351 . S
C288 H274 0.929 . S
C288 N287 1.325 . S
C288 C292 1.416 1_556 S
C289 C290 1.430 1_554 S
C289 C291 1.404 . S
C289 C318 1.387 . S
C290 C282 1.448 . S
C290 N287 1.351 . S
C290 C289 1.430 1_556 S
C291 H280 0.930 . S
C291 C289 1.404 . S
C291 C292 1.366 . S
C292 H271 0.930 . S
C292 C288 1.416 1_554 S
C292 C291 1.366 . S
H293 C286 0.929 . S
H294 C317 0.931 . S
H295 C318 0.931 . S
O296 Eu252 2.462 1_554 S
O296 C316 1.252 . S
O297 Eu252 2.373 . S
O297 C308 1.249 . S
O298 Eu263 2.335 . S
O298 C308 1.264 . S
O299 Eu252 2.432 1_554 S
O299 C316 1.268 . S
O300 Eu252 2.291 . S
O300 C315 1.255 . S
O301 Eu263 2.372 . S
O301 C315 1.257 . S
O302 Eu263 2.462 . S
O302 C327 1.252 . S
O303 Eu263 2.373 . S
O303 C319 1.249 . S
O304 Eu252 2.335 . S
O304 C319 1.264 . S
O305 Eu263 2.432 . S
O305 C327 1.268 . S
O306 Eu263 2.291 . S
O306 C326 1.255 . S
O307 Eu252 2.372 . S
O307 C326 1.257 . S
C308 O297 1.249 . S
C308 O298 1.264 . S
C309 C312 1.382 . S
C309 C314 1.390 . S
C309 C316 1.506 . S
C310 C311 1.398 . S
C310 C314 1.392 . S
C311 C310 1.398 . S
C311 C313 1.372 . S
C311 H328 0.931 . S
C312 C309 1.382 . S
C312 C313 1.390 . S
C312 H329 0.931 . S
C313 C311 1.372 . S
C313 C312 1.390 . S
C313 H330 0.929 . S
C314 C309 1.390 . S
C314 C310 1.392 . S
C314 H331 0.930 . S
C315 O300 1.255 . S
C315 O301 1.257 . S
C316 Eu252 2.787 1_554 S
C316 O296 1.252 . S
C316 O299 1.268 . S
C316 C309 1.506 . S
C317 C284 1.439 1_554 S
C317 H294 0.931 . S
C317 C318 1.374 . S
C318 C289 1.387 . S
C318 H295 0.931 . S
C318 C317 1.374 . S
C319 O303 1.249 . S
C319 O304 1.264 . S
C320 C323 1.382 . S
C320 C324 1.390 . S
C320 C327 1.506 . S
C321 C322 1.398 . S
C321 C324 1.392 . S
C322 C321 1.398 . S
C322 C325 1.372 . S
C322 H332 0.931 . S
C323 C320 1.382 . S
C323 C325 1.390 . S
C323 H333 0.931 . S
C324 C320 1.390 . S
C324 C321 1.392 . S
C324 H334 0.930 . S
C325 C322 1.372 . S
C325 C323 1.390 . S
C325 H335 0.929 . S
C326 O306 1.255 . S
C326 O307 1.257 . S
C327 Eu263 2.787 . S
C327 O302 1.252 . S
C327 O305 1.268 . S
C327 C320 1.506 . S
H328 C311 0.931 . S
H329 C312 0.931 . S
H330 C313 0.929 . S
H331 C314 0.930 . S
H332 C322 0.931 . S
H333 C323 0.931 . S
H334 C324 0.930 . S
H335 C325 0.929 . S
Eu336 N365 2.600 . S
Eu336 N371 2.562 . S
Eu336 O380 2.462 . S
Eu336 O381 2.373 . S
Eu336 O383 2.432 . S
Eu336 O384 2.291 . S
Eu336 O388 2.335 . S
Eu336 O391 2.372 . S
Eu336 C400 2.787 . S
C337 N338 1.365 . S
C337 C340 1.405 . S
C337 C344 1.448 . S
N338 C337 1.365 . S
N338 C341 1.319 . S
N338 Eu347 2.600 . S
C339 C341 1.397 . S
C339 C342 1.367 . S
C339 H359 0.931 . S
C340 C337 1.405 . S
C340 C342 1.403 . S
C340 C346 1.439 1_556 S
C341 N338 1.319 . S
C341 C339 1.397 . S
C341 H352 0.930 . S
C342 C339 1.367 . S
C342 C340 1.403 . S
C342 H363 0.929 . S
C343 C344 1.430 1_554 S
C343 C345 1.387 . S
C343 C349 1.404 . S
C344 C337 1.448 . S
C344 C343 1.430 1_556 S
C344 N348 1.351 . S
C345 C343 1.387 . S
C345 C346 1.374 . S
C345 H360 0.931 . S
C346 C340 1.439 1_554 S
C346 C345 1.374 . S
C346 H361 0.931 . S
Eu347 N338 2.600 . S
Eu347 N348 2.562 . S
Eu347 O382 2.335 . S
Eu347 O385 2.372 . S
Eu347 O386 2.462 1_556 S
Eu347 O387 2.373 . S
Eu347 O389 2.432 1_556 S
Eu347 O390 2.291 . S
Eu347 C411 2.787 1_556 S
N348 C344 1.351 . S
N348 Eu347 2.562 . S
N348 C350 1.325 . S
C349 C343 1.404 . S
C349 C351 1.366 . S
C349 H357 0.930 . S
C350 N348 1.325 . S
C350 C351 1.416 1_556 S
C350 H356 0.929 . S
C351 C349 1.366 . S
C351 C350 1.416 1_554 S
C351 H353 0.930 . S
H352 C341 0.930 . S
H353 C351 0.930 . S
H354 C369 0.930 . S
H355 C376 0.930 . S
H356 C350 0.929 . S
H357 C349 0.930 . S
H358 C372 0.929 . S
H359 C339 0.931 . S
H360 C345 0.931 . S
H361 C346 0.931 . S
H362 C367 0.931 . S
H363 C342 0.929 . S
H364 C375 0.930 . S
N365 Eu336 2.600 . S
N365 C366 1.365 . S
N365 C369 1.319 . S
C366 N365 1.365 . S
C366 C368 1.405 . S
C366 C374 1.448 . S
C367 H362 0.931 . S
C367 C369 1.397 . S
C367 C370 1.367 . S
C368 C366 1.405 . S
C368 C370 1.403 . S
C368 C401 1.439 . S
C369 H354 0.930 . S
C369 N365 1.319 . S
C369 C367 1.397 . S
C370 C367 1.367 . S
C370 C368 1.403 . S
C370 H377 0.929 . S
N371 Eu336 2.562 . S
N371 C372 1.325 . S
N371 C374 1.351 . S
C372 H358 0.929 . S
C372 N371 1.325 . S
C372 C376 1.416 . S
C373 C374 1.430 . S
C373 C375 1.404 . S
C373 C402 1.387 . S
C374 C366 1.448 . S
C374 N371 1.351 . S
C374 C373 1.430 . S
C375 H364 0.930 . S
C375 C373 1.404 . S
C375 C376 1.366 . S
C376 H355 0.930 . S
C376 C372 1.416 . S
C376 C375 1.366 . S
H377 C370 0.929 . S
H378 C401 0.931 . S
H379 C402 0.931 . S
O380 Eu336 2.462 . S
O380 C400 1.252 . S
O381 Eu336 2.373 . S
O381 C392 1.249 . S
O382 Eu347 2.335 . S
O382 C392 1.264 . S
O383 Eu336 2.432 . S
O383 C400 1.268 . S
O384 Eu336 2.291 . S
O384 C399 1.255 . S
O385 Eu347 2.372 . S
O385 C399 1.257 . S
O386 Eu347 2.462 1_554 S
O386 C411 1.252 . S
O387 Eu347 2.373 . S
O387 C403 1.249 . S
O388 Eu336 2.335 . S
O388 C403 1.264 . S
O389 Eu347 2.432 1_554 S
O389 C411 1.268 . S
O390 Eu347 2.291 . S
O390 C410 1.255 . S
O391 Eu336 2.372 . S
O391 C410 1.257 . S
C392 O381 1.249 . S
C392 O382 1.264 . S
C393 C396 1.382 . S
C393 C398 1.390 . S
C393 C400 1.506 . S
C394 C395 1.398 . S
C394 C398 1.392 . S
C395 C394 1.398 . S
C395 C397 1.372 . S
C395 H412 0.931 . S
C396 C393 1.382 . S
C396 C397 1.390 . S
C396 H413 0.931 . S
C397 C395 1.372 . S
C397 C396 1.390 . S
C397 H414 0.929 . S
C398 C393 1.390 . S
C398 C394 1.392 . S
C398 H415 0.930 . S
C399 O384 1.255 . S
C399 O385 1.257 . S
C400 Eu336 2.787 . S
C400 O380 1.252 . S
C400 O383 1.268 . S
C400 C393 1.506 . S
C401 C368 1.439 . S
C401 H378 0.931 . S
C401 C402 1.374 . S
C402 C373 1.387 . S
C402 H379 0.931 . S
C402 C401 1.374 . S
C403 O387 1.249 . S
C403 O388 1.264 . S
C404 C407 1.382 . S
C404 C408 1.390 . S
C404 C411 1.506 . S
C405 C406 1.398 . S
C405 C408 1.392 . S
C406 C405 1.398 . S
C406 C409 1.372 . S
C406 H416 0.931 . S
C407 C404 1.382 . S
C407 C409 1.390 . S
C407 H417 0.931 . S
C408 C404 1.390 . S
C408 C405 1.392 . S
C408 H418 0.930 . S
C409 C406 1.372 . S
C409 C407 1.390 . S
C409 H419 0.929 . S
C410 O390 1.255 . S
C410 O391 1.257 . S
C411 Eu347 2.787 1_554 S
C411 O386 1.252 . S
C411 O389 1.268 . S
C411 C404 1.506 . S
H412 C395 0.931 . S
H413 C396 0.931 . S
H414 C397 0.929 . S
H415 C398 0.930 . S
H416 C406 0.931 . S
H417 C407 0.931 . S
H418 C408 0.930 . S
H419 C409 0.929 . S
Eu420 N449 2.600 . S
Eu420 N455 2.562 . S
Eu420 O464 2.462 . S
Eu420 O465 2.373 . S
Eu420 O467 2.432 . S
Eu420 O468 2.291 . S
Eu420 O472 2.335 . S
Eu420 O475 2.372 . S
Eu420 C484 2.787 . S
C421 N422 1.365 . S
C421 C424 1.405 . S
C421 C428 1.448 . S
N422 C421 1.365 . S
N422 C425 1.319 . S
N422 Eu431 2.600 . S
C423 C425 1.397 . S
C423 C426 1.367 . S
C423 H443 0.931 . S
C424 C421 1.405 . S
C424 C426 1.403 . S
C424 C430 1.439 1_554 S
C425 N422 1.319 . S
C425 C423 1.397 . S
C425 H436 0.930 . S
C426 C423 1.367 . S
C426 C424 1.403 . S
C426 H447 0.929 . S
C427 C428 1.430 1_556 S
C427 C429 1.387 . S
C427 C433 1.404 . S
C428 C421 1.448 . S
C428 C427 1.430 1_554 S
C428 N432 1.351 . S
C429 C427 1.387 . S
C429 C430 1.374 . S
C429 H444 0.931 . S
C430 C424 1.439 1_556 S
C430 C429 1.374 . S
C430 H445 0.931 . S
Eu431 N422 2.600 . S
Eu431 N432 2.562 . S
Eu431 O466 2.335 . S
Eu431 O469 2.372 . S
Eu431 O470 2.462 1_554 S
Eu431 O471 2.373 . S
Eu431 O473 2.432 1_554 S
Eu431 O474 2.291 . S
Eu431 C495 2.787 1_554 S
N432 C428 1.351 . S
N432 Eu431 2.562 . S
N432 C434 1.325 . S
C433 C427 1.404 . S
C433 C435 1.366 . S
C433 H441 0.930 . S
C434 N432 1.325 . S
C434 C435 1.416 1_554 S
C434 H440 0.929 . S
C435 C433 1.366 . S
C435 C434 1.416 1_556 S
C435 H437 0.930 . S
H436 C425 0.930 . S
H437 C435 0.930 . S
H438 C453 0.930 . S
H439 C460 0.930 . S
H440 C434 0.929 . S
H441 C433 0.930 . S
H442 C456 0.929 . S
H443 C423 0.931 . S
H444 C429 0.931 . S
H445 C430 0.931 . S
H446 C451 0.931 . S
H447 C426 0.929 . S
H448 C459 0.930 . S
N449 Eu420 2.600 . S
N449 C450 1.365 . S
N449 C453 1.319 . S
C450 N449 1.365 . S
C450 C452 1.405 . S
C450 C458 1.448 . S
C451 H446 0.931 . S
C451 C453 1.397 . S
C451 C454 1.367 . S
C452 C450 1.405 . S
C452 C454 1.403 . S
C452 C485 1.439 . S
C453 H438 0.930 . S
C453 N449 1.319 . S
C453 C451 1.397 . S
C454 C451 1.367 . S
C454 C452 1.403 . S
C454 H461 0.929 . S
N455 Eu420 2.562 . S
N455 C456 1.325 . S
N455 C458 1.351 . S
C456 H442 0.929 . S
C456 N455 1.325 . S
C456 C460 1.416 . S
C457 C458 1.430 . S
C457 C459 1.404 . S
C457 C486 1.387 . S
C458 C450 1.448 . S
C458 N455 1.351 . S
C458 C457 1.430 . S
C459 H448 0.930 . S
C459 C457 1.404 . S
C459 C460 1.366 . S
C460 H439 0.930 . S
C460 C456 1.416 . S
C460 C459 1.366 . S
H461 C454 0.929 . S
H462 C485 0.931 . S
H463 C486 0.931 . S
O464 Eu420 2.462 . S
O464 C484 1.252 . S
O465 Eu420 2.373 . S
O465 C476 1.249 . S
O466 Eu431 2.335 . S
O466 C476 1.264 . S
O467 Eu420 2.432 . S
O467 C484 1.268 . S
O468 Eu420 2.291 . S
O468 C483 1.255 . S
O469 Eu431 2.372 . S
O469 C483 1.257 . S
O470 Eu431 2.462 1_556 S
O470 C495 1.252 . S
O471 Eu431 2.373 . S
O471 C487 1.249 . S
O472 Eu420 2.335 . S
O472 C487 1.264 . S
O473 Eu431 2.432 1_556 S
O473 C495 1.268 . S
O474 Eu431 2.291 . S
O474 C494 1.255 . S
O475 Eu420 2.372 . S
O475 C494 1.257 . S
C476 O465 1.249 . S
C476 O466 1.264 . S
C477 C480 1.382 . S
C477 C482 1.390 . S
C477 C484 1.506 . S
C478 C479 1.398 . S
C478 C482 1.392 . S
C479 C478 1.398 . S
C479 C481 1.372 . S
C479 H496 0.931 . S
C480 C477 1.382 . S
C480 C481 1.390 . S
C480 H497 0.931 . S
C481 C479 1.372 . S
C481 C480 1.390 . S
C481 H498 0.929 . S
C482 C477 1.390 . S
C482 C478 1.392 . S
C482 H499 0.930 . S
C483 O468 1.255 . S
C483 O469 1.257 . S
C484 Eu420 2.787 . S
C484 O464 1.252 . S
C484 O467 1.268 . S
C484 C477 1.506 . S
C485 C452 1.439 . S
C485 H462 0.931 . S
C485 C486 1.374 . S
C486 C457 1.387 . S
C486 H463 0.931 . S
C486 C485 1.374 . S
C487 O471 1.249 . S
C487 O472 1.264 . S
C488 C491 1.382 . S
C488 C492 1.390 . S
C488 C495 1.506 . S
C489 C490 1.398 . S
C489 C492 1.392 . S
C490 C489 1.398 . S
C490 C493 1.372 . S
C490 H500 0.931 . S
C491 C488 1.382 . S
C491 C493 1.390 . S
C491 H501 0.931 . S
C492 C488 1.390 . S
C492 C489 1.392 . S
C492 H502 0.930 . S
C493 C490 1.372 . S
C493 C491 1.390 . S
C493 H503 0.929 . S
C494 O474 1.255 . S
C494 O475 1.257 . S
C495 Eu431 2.787 1_556 S
C495 O470 1.252 . S
C495 O473 1.268 . S
C495 C488 1.506 . S
H496 C479 0.931 . S
H497 C480 0.931 . S
H498 C481 0.929 . S
H499 C482 0.930 . S
H500 C490 0.931 . S
H501 C491 0.931 . S
H502 C492 0.930 . S
H503 C493 0.929 . S
Eu504 N533 2.600 . S
Eu504 N539 2.562 . S
Eu504 O548 2.462 . S
Eu504 O549 2.373 . S
Eu504 O551 2.432 . S
Eu504 O552 2.291 . S
Eu504 O556 2.335 . S
Eu504 O559 2.372 . S
Eu504 C568 2.787 . S
C505 N506 1.365 . S
C505 C508 1.405 . S
C505 C512 1.448 . S
N506 C505 1.365 . S
N506 C509 1.319 . S
N506 Eu515 2.600 . S
C507 C509 1.397 . S
C507 C510 1.367 . S
C507 H527 0.931 . S
C508 C505 1.405 . S
C508 C510 1.403 . S
C508 C514 1.439 . S
C509 N506 1.319 . S
C509 C507 1.397 . S
C509 H520 0.930 . S
C510 C507 1.367 . S
C510 C508 1.403 . S
C510 H531 0.929 . S
C511 C512 1.430 . S
C511 C513 1.387 . S
C511 C517 1.404 . S
C512 C505 1.448 . S
C512 C511 1.430 . S
C512 N516 1.351 . S
C513 C511 1.387 . S
C513 C514 1.374 . S
C513 H528 0.931 . S
C514 C508 1.439 . S
C514 C513 1.374 . S
C514 H529 0.931 . S
Eu515 N506 2.600 . S
Eu515 N516 2.562 . S
Eu515 O550 2.335 . S
Eu515 O553 2.372 . S
Eu515 O554 2.462 . S
Eu515 O555 2.373 . S
Eu515 O557 2.432 . S
Eu515 O558 2.291 . S
Eu515 C579 2.787 . S
N516 C512 1.351 . S
N516 Eu515 2.562 . S
N516 C518 1.325 . S
C517 C511 1.404 . S
C517 C519 1.366 . S
C517 H525 0.930 . S
C518 N516 1.325 . S
C518 C519 1.416 . S
C518 H524 0.929 . S
C519 C517 1.366 . S
C519 C518 1.416 . S
C519 H521 0.930 . S
H520 C509 0.930 . S
H521 C519 0.930 . S
H522 C537 0.930 . S
H523 C544 0.930 . S
H524 C518 0.929 . S
H525 C517 0.930 . S
H526 C540 0.929 . S
H527 C507 0.931 . S
H528 C513 0.931 . S
H529 C514 0.931 . S
H530 C535 0.931 . S
H531 C510 0.929 . S
H532 C543 0.930 . S
N533 Eu504 2.600 . S
N533 C534 1.365 . S
N533 C537 1.319 . S
C534 N533 1.365 . S
C534 C536 1.405 . S
C534 C542 1.448 . S
C535 H530 0.931 . S
C535 C537 1.397 . S
C535 C538 1.367 . S
C536 C534 1.405 . S
C536 C538 1.403 . S
C536 C569 1.439 . S
C537 H522 0.930 . S
C537 N533 1.319 . S
C537 C535 1.397 . S
C538 C535 1.367 . S
C538 C536 1.403 . S
C538 H545 0.929 . S
N539 Eu504 2.562 . S
N539 C540 1.325 . S
N539 C542 1.351 . S
C540 H526 0.929 . S
C540 N539 1.325 . S
C540 C544 1.416 . S
C541 C542 1.430 . S
C541 C543 1.404 . S
C541 C570 1.387 . S
C542 C534 1.448 . S
C542 N539 1.351 . S
C542 C541 1.430 . S
C543 H532 0.930 . S
C543 C541 1.404 . S
C543 C544 1.366 . S
C544 H523 0.930 . S
C544 C540 1.416 . S
C544 C543 1.366 . S
H545 C538 0.929 . S
H546 C569 0.931 . S
H547 C570 0.931 . S
O548 Eu504 2.462 . S
O548 C568 1.252 . S
O549 Eu504 2.373 . S
O549 C560 1.249 . S
O550 Eu515 2.335 . S
O550 C560 1.264 . S
O551 Eu504 2.432 . S
O551 C568 1.268 . S
O552 Eu504 2.291 . S
O552 C567 1.255 . S
O553 Eu515 2.372 . S
O553 C567 1.257 . S
O554 Eu515 2.462 . S
O554 C579 1.252 . S
O555 Eu515 2.373 . S
O555 C571 1.249 . S
O556 Eu504 2.335 . S
O556 C571 1.264 . S
O557 Eu515 2.432 . S
O557 C579 1.268 . S
O558 Eu515 2.291 . S
O558 C578 1.255 . S
O559 Eu504 2.372 . S
O559 C578 1.257 . S
C560 O549 1.249 . S
C560 O550 1.264 . S
C561 C564 1.382 . S
C561 C566 1.390 . S
C561 C568 1.506 . S
C562 C563 1.398 . S
C562 C566 1.392 . S
C563 C562 1.398 . S
C563 C565 1.372 . S
C563 H580 0.931 . S
C564 C561 1.382 . S
C564 C565 1.390 . S
C564 H581 0.931 . S
C565 C563 1.372 . S
C565 C564 1.390 . S
C565 H582 0.929 . S
C566 C561 1.390 . S
C566 C562 1.392 . S
C566 H583 0.930 . S
C567 O552 1.255 . S
C567 O553 1.257 . S
C568 Eu504 2.787 . S
C568 O548 1.252 . S
C568 O551 1.268 . S
C568 C561 1.506 . S
C569 C536 1.439 . S
C569 H546 0.931 . S
C569 C570 1.374 . S
C570 C541 1.387 . S
C570 H547 0.931 . S
C570 C569 1.374 . S
C571 O555 1.249 . S
C571 O556 1.264 . S
C572 C575 1.382 . S
C572 C576 1.390 . S
C572 C579 1.506 . S
C573 C574 1.398 . S
C573 C576 1.392 . S
C574 C573 1.398 . S
C574 C577 1.372 . S
C574 H584 0.931 . S
C575 C572 1.382 . S
C575 C577 1.390 . S
C575 H585 0.931 . S
C576 C572 1.390 . S
C576 C573 1.392 . S
C576 H586 0.930 . S
C577 C574 1.372 . S
C577 C575 1.390 . S
C577 H587 0.929 . S
C578 O558 1.255 . S
C578 O559 1.257 . S
C579 Eu515 2.787 . S
C579 O554 1.252 . S
C579 O557 1.268 . S
C579 C572 1.506 . S
H580 C563 0.931 . S
H581 C564 0.931 . S
H582 C565 0.929 . S
H583 C566 0.930 . S
H584 C574 0.931 . S
H585 C575 0.931 . S
H586 C576 0.930 . S
H587 C577 0.929 . S
Eu588 N617 2.600 . S
Eu588 N623 2.562 . S
Eu588 O632 2.462 . S
Eu588 O633 2.373 . S
Eu588 O635 2.432 . S
Eu588 O636 2.291 . S
Eu588 O640 2.335 . S
Eu588 O643 2.372 . S
Eu588 C652 2.787 . S
C589 N590 1.365 . S
C589 C592 1.405 . S
C589 C596 1.448 . S
N590 C589 1.365 . S
N590 C593 1.319 . S
N590 Eu599 2.600 . S
C591 C593 1.397 . S
C591 C594 1.367 . S
C591 H611 0.931 . S
C592 C589 1.405 . S
C592 C594 1.403 . S
C592 C598 1.439 . S
C593 N590 1.319 . S
C593 C591 1.397 . S
C593 H604 0.930 . S
C594 C591 1.367 . S
C594 C592 1.403 . S
C594 H615 0.929 . S
C595 C596 1.430 . S
C595 C597 1.387 . S
C595 C601 1.404 . S
C596 C589 1.448 . S
C596 C595 1.430 . S
C596 N600 1.351 . S
C597 C595 1.387 . S
C597 C598 1.374 . S
C597 H612 0.931 1_545 S
C598 C592 1.439 . S
C598 C597 1.374 . S
C598 H613 0.931 . S
Eu599 N590 2.600 . S
Eu599 N600 2.562 . S
Eu599 O634 2.335 . S
Eu599 O637 2.372 . S
Eu599 O638 2.462 . S
Eu599 O639 2.373 . S
Eu599 O641 2.432 . S
Eu599 O642 2.291 . S
Eu599 C663 2.787 . S
N600 C596 1.351 . S
N600 Eu599 2.562 . S
N600 C602 1.325 . S
C601 C595 1.404 . S
C601 C603 1.366 . S
C601 H609 0.930 . S
C602 N600 1.325 . S
C602 C603 1.416 . S
C602 H608 0.929 . S
C603 C601 1.366 . S
C603 C602 1.416 . S
C603 H605 0.930 . S
H604 C593 0.930 . S
H605 C603 0.930 . S
H606 C621 0.930 . S
H607 C628 0.930 . S
H608 C602 0.929 . S
H609 C601 0.930 . S
H610 C624 0.929 . S
H611 C591 0.931 . S
H612 C597 0.931 1_565 S
H613 C598 0.931 . S
H614 C619 0.931 . S
H615 C594 0.929 . S
H616 C627 0.930 . S
N617 Eu588 2.600 . S
N617 C618 1.365 . S
N617 C621 1.319 . S
C618 N617 1.365 . S
C618 C620 1.405 . S
C618 C626 1.448 . S
C619 H614 0.931 . S
C619 C621 1.397 . S
C619 C622 1.367 . S
C620 C618 1.405 . S
C620 C622 1.403 . S
C620 C653 1.439 . S
C621 H606 0.930 . S
C621 N617 1.319 . S
C621 C619 1.397 . S
C622 C619 1.367 . S
C622 C620 1.403 . S
C622 H629 0.929 . S
N623 Eu588 2.562 . S
N623 C624 1.325 . S
N623 C626 1.351 . S
C624 H610 0.929 . S
C624 N623 1.325 . S
C624 C628 1.416 . S
C625 C626 1.430 . S
C625 C627 1.404 . S
C625 C654 1.387 . S
C626 C618 1.448 . S
C626 N623 1.351 . S
C626 C625 1.430 . S
C627 H616 0.930 . S
C627 C625 1.404 . S
C627 C628 1.366 . S
C628 H607 0.930 . S
C628 C624 1.416 . S
C628 C627 1.366 . S
H629 C622 0.929 . S
H630 C653 0.931 . S
H631 C654 0.931 . S
O632 Eu588 2.462 . S
O632 C652 1.252 . S
O633 Eu588 2.373 . S
O633 C644 1.249 . S
O634 Eu599 2.335 . S
O634 C644 1.264 . S
O635 Eu588 2.432 . S
O635 C652 1.268 . S
O636 Eu588 2.291 . S
O636 C651 1.255 . S
O637 Eu599 2.372 . S
O637 C651 1.257 . S
O638 Eu599 2.462 . S
O638 C663 1.252 . S
O639 Eu599 2.373 . S
O639 C655 1.249 . S
O640 Eu588 2.335 . S
O640 C655 1.264 . S
O641 Eu599 2.432 . S
O641 C663 1.268 . S
O642 Eu599 2.291 . S
O642 C662 1.255 . S
O643 Eu588 2.372 . S
O643 C662 1.257 . S
C644 O633 1.249 . S
C644 O634 1.264 . S
C645 C648 1.382 . S
C645 C650 1.390 . S
C645 C652 1.506 . S
C646 C647 1.398 . S
C646 C650 1.392 . S
C647 C646 1.398 . S
C647 C649 1.372 . S
C647 H664 0.931 . S
C648 C645 1.382 . S
C648 C649 1.390 . S
C648 H665 0.931 . S
C649 C647 1.372 . S
C649 C648 1.390 . S
C649 H666 0.929 . S
C650 C645 1.390 . S
C650 C646 1.392 . S
C650 H667 0.930 . S
C651 O636 1.255 . S
C651 O637 1.257 . S
C652 Eu588 2.787 . S
C652 O632 1.252 . S
C652 O635 1.268 . S
C652 C645 1.506 . S
C653 C620 1.439 . S
C653 H630 0.931 . S
C653 C654 1.374 . S
C654 C625 1.387 . S
C654 H631 0.931 . S
C654 C653 1.374 . S
C655 O639 1.249 . S
C655 O640 1.264 . S
C656 C659 1.382 . S
C656 C660 1.390 . S
C656 C663 1.506 . S
C657 C658 1.398 . S
C657 C660 1.392 . S
C658 C657 1.398 . S
C658 C661 1.372 . S
C658 H668 0.931 1_556 S
C659 C656 1.382 . S
C659 C661 1.390 . S
C659 H669 0.931 . S
C660 C656 1.390 . S
C660 C657 1.392 . S
C660 H670 0.930 . S
C661 C658 1.372 . S
C661 C659 1.390 . S
C661 H671 0.929 . S
C662 O642 1.255 . S
C662 O643 1.257 . S
C663 Eu599 2.787 . S
C663 O638 1.252 . S
C663 O641 1.268 . S
C663 C656 1.506 . S
H664 C647 0.931 . S
H665 C648 0.931 . S
H666 C649 0.929 . S
H667 C650 0.930 . S
H668 C658 0.931 1_554 S
H669 C659 0.931 . S
H670 C660 0.930 . S
H671 C661 0.929 . S
Eu672 N701 2.600 . S
Eu672 N707 2.562 . S
Eu672 O716 2.462 . S
Eu672 O717 2.373 . S
Eu672 O719 2.432 . S
Eu672 O720 2.291 . S
Eu672 O724 2.335 . S
Eu672 O727 2.372 . S
Eu672 C736 2.787 . S
C673 N674 1.365 . S
C673 C676 1.405 . S
C673 C680 1.448 . S
N674 C673 1.365 . S
N674 C677 1.319 . S
N674 Eu683 2.600 . S
C675 C677 1.397 . S
C675 C678 1.367 . S
C675 H695 0.931 . S
C676 C673 1.405 . S
C676 C678 1.403 . S
C676 C682 1.439 1_556 S
C677 N674 1.319 . S
C677 C675 1.397 . S
C677 H688 0.930 . S
C678 C675 1.367 . S
C678 C676 1.403 . S
C678 H699 0.929 . S
C679 C680 1.430 1_554 S
C679 C681 1.387 . S
C679 C685 1.404 . S
C680 C673 1.448 . S
C680 C679 1.430 1_556 S
C680 N684 1.351 . S
C681 C679 1.387 . S
C681 C682 1.374 . S
C681 H696 0.931 . S
C682 C676 1.439 1_554 S
C682 C681 1.374 . S
C682 H697 0.931 . S
Eu683 N674 2.600 . S
Eu683 N684 2.562 . S
Eu683 O718 2.335 . S
Eu683 O721 2.372 . S
Eu683 O722 2.462 1_556 S
Eu683 O723 2.373 . S
Eu683 O725 2.432 1_556 S
Eu683 O726 2.291 . S
Eu683 C747 2.787 1_556 S
N684 C680 1.351 . S
N684 Eu683 2.562 . S
N684 C686 1.325 . S
C685 C679 1.404 . S
C685 C687 1.366 . S
C685 H693 0.930 . S
C686 N684 1.325 . S
C686 C687 1.416 1_556 S
C686 H692 0.929 . S
C687 C685 1.366 . S
C687 C686 1.416 1_554 S
C687 H689 0.930 . S
H688 C677 0.930 . S
H689 C687 0.930 . S
H690 C705 0.930 . S
H691 C712 0.930 . S
H692 C686 0.929 . S
H693 C685 0.930 . S
H694 C708 0.929 . S
H695 C675 0.931 . S
H696 C681 0.931 . S
H697 C682 0.931 . S
H698 C703 0.931 . S
H699 C678 0.929 . S
H700 C711 0.930 . S
N701 Eu672 2.600 . S
N701 C702 1.365 . S
N701 C705 1.319 . S
C702 N701 1.365 . S
C702 C704 1.405 . S
C702 C710 1.448 . S
C703 H698 0.931 . S
C703 C705 1.397 . S
C703 C706 1.367 . S
C704 C702 1.405 . S
C704 C706 1.403 . S
C704 C737 1.439 . S
C705 H690 0.930 . S
C705 N701 1.319 . S
C705 C703 1.397 . S
C706 C703 1.367 . S
C706 C704 1.403 . S
C706 H713 0.929 . S
N707 Eu672 2.562 . S
N707 C708 1.325 . S
N707 C710 1.351 . S
C708 H694 0.929 . S
C708 N707 1.325 . S
C708 C712 1.416 . S
C709 C710 1.430 . S
C709 C711 1.404 . S
C709 C738 1.387 . S
C710 C702 1.448 . S
C710 N707 1.351 . S
C710 C709 1.430 . S
C711 H700 0.930 . S
C711 C709 1.404 . S
C711 C712 1.366 . S
C712 H691 0.930 . S
C712 C708 1.416 . S
C712 C711 1.366 . S
H713 C706 0.929 . S
H714 C737 0.931 . S
H715 C738 0.931 . S
O716 Eu672 2.462 . S
O716 C736 1.252 . S
O717 Eu672 2.373 . S
O717 C728 1.249 . S
O718 Eu683 2.335 . S
O718 C728 1.264 . S
O719 Eu672 2.432 . S
O719 C736 1.268 . S
O720 Eu672 2.291 . S
O720 C735 1.255 . S
O721 Eu683 2.372 . S
O721 C735 1.257 . S
O722 Eu683 2.462 1_554 S
O722 C747 1.252 . S
O723 Eu683 2.373 . S
O723 C739 1.249 . S
O724 Eu672 2.335 . S
O724 C739 1.264 . S
O725 Eu683 2.432 1_554 S
O725 C747 1.268 . S
O726 Eu683 2.291 . S
O726 C746 1.255 . S
O727 Eu672 2.372 . S
O727 C746 1.257 . S
C728 O717 1.249 . S
C728 O718 1.264 . S
C729 C732 1.382 . S
C729 C734 1.390 . S
C729 C736 1.506 . S
C730 C731 1.398 . S
C730 C734 1.392 . S
C731 C730 1.398 . S
C731 C733 1.372 . S
C731 H748 0.931 . S
C732 C729 1.382 . S
C732 C733 1.390 . S
C732 H749 0.931 . S
C733 C731 1.372 . S
C733 C732 1.390 . S
C733 H750 0.929 . S
C734 C729 1.390 . S
C734 C730 1.392 . S
C734 H751 0.930 . S
C735 O720 1.255 . S
C735 O721 1.257 . S
C736 Eu672 2.787 . S
C736 O716 1.252 . S
C736 O719 1.268 . S
C736 C729 1.506 . S
C737 C704 1.439 . S
C737 H714 0.931 . S
C737 C738 1.374 . S
C738 C709 1.387 . S
C738 H715 0.931 . S
C738 C737 1.374 . S
C739 O723 1.249 . S
C739 O724 1.264 . S
C740 C743 1.382 . S
C740 C744 1.390 . S
C740 C747 1.506 . S
C741 C742 1.398 . S
C741 C744 1.392 . S
C742 C741 1.398 . S
C742 C745 1.372 . S
C742 H752 0.931 . S
C743 C740 1.382 . S
C743 C745 1.390 . S
C743 H753 0.931 . S
C744 C740 1.390 . S
C744 C741 1.392 . S
C744 H754 0.930 . S
C745 C742 1.372 . S
C745 C743 1.390 . S
C745 H755 0.929 . S
C746 O726 1.255 . S
C746 O727 1.257 . S
C747 Eu683 2.787 1_554 S
C747 O722 1.252 . S
C747 O725 1.268 . S
C747 C740 1.506 . S
H748 C731 0.931 . S
H749 C732 0.931 . S
H750 C733 0.929 . S
H751 C734 0.930 . S
H752 C742 0.931 . S
H753 C743 0.931 . S
H754 C744 0.930 . S
H755 C745 0.929 . S
Eu756 N785 2.600 . S
Eu756 N791 2.562 . S
Eu756 O800 2.462 . S
Eu756 O801 2.373 . S
Eu756 O803 2.432 . S
Eu756 O804 2.291 . S
Eu756 O808 2.335 . S
Eu756 O811 2.372 . S
Eu756 C820 2.787 . S
C757 N758 1.365 . S
C757 C760 1.405 . S
C757 C764 1.448 . S
N758 C757 1.365 . S
N758 C761 1.319 . S
N758 Eu767 2.600 . S
C759 C761 1.397 . S
C759 C762 1.367 . S
C759 H779 0.931 . S
C760 C757 1.405 . S
C760 C762 1.403 . S
C760 C766 1.439 . S
C761 N758 1.319 . S
C761 C759 1.397 . S
C761 H772 0.930 . S
C762 C759 1.367 . S
C762 C760 1.403 . S
C762 H783 0.929 . S
C763 C764 1.430 . S
C763 C765 1.387 . S
C763 C769 1.404 . S
C764 C757 1.448 . S
C764 C763 1.430 . S
C764 N768 1.351 . S
C765 C763 1.387 . S
C765 C766 1.374 . S
C765 H780 0.931 . S
C766 C760 1.439 . S
C766 C765 1.374 . S
C766 H781 0.931 . S
Eu767 N758 2.600 . S
Eu767 N768 2.562 . S
Eu767 O802 2.335 . S
Eu767 O805 2.372 . S
Eu767 O806 2.462 . S
Eu767 O807 2.373 . S
Eu767 O809 2.432 . S
Eu767 O810 2.291 . S
Eu767 C831 2.787 . S
N768 C764 1.351 . S
N768 Eu767 2.562 . S
N768 C770 1.325 . S
C769 C763 1.404 . S
C769 C771 1.366 . S
C769 H777 0.930 . S
C770 N768 1.325 . S
C770 C771 1.416 . S
C770 H776 0.929 . S
C771 C769 1.366 . S
C771 C770 1.416 . S
C771 H773 0.930 . S
H772 C761 0.930 . S
H773 C771 0.930 . S
H774 C789 0.930 . S
H775 C796 0.930 . S
H776 C770 0.929 . S
H777 C769 0.930 . S
H778 C792 0.929 . S
H779 C759 0.931 . S
H780 C765 0.931 . S
H781 C766 0.931 . S
H782 C787 0.931 . S
H783 C762 0.929 . S
H784 C795 0.930 . S
N785 Eu756 2.600 . S
N785 C786 1.365 . S
N785 C789 1.319 . S
C786 N785 1.365 . S
C786 C788 1.405 . S
C786 C794 1.448 . S
C787 H782 0.931 . S
C787 C789 1.397 . S
C787 C790 1.367 . S
C788 C786 1.405 . S
C788 C790 1.403 . S
C788 C821 1.439 . S
C789 H774 0.930 . S
C789 N785 1.319 . S
C789 C787 1.397 . S
C790 C787 1.367 . S
C790 C788 1.403 . S
C790 H797 0.929 . S
N791 Eu756 2.562 . S
N791 C792 1.325 . S
N791 C794 1.351 . S
C792 H778 0.929 . S
C792 N791 1.325 . S
C792 C796 1.416 . S
C793 C794 1.430 . S
C793 C795 1.404 . S
C793 C822 1.387 . S
C794 C786 1.448 . S
C794 N791 1.351 . S
C794 C793 1.430 . S
C795 H784 0.930 . S
C795 C793 1.404 . S
C795 C796 1.366 . S
C796 H775 0.930 . S
C796 C792 1.416 . S
C796 C795 1.366 . S
H797 C790 0.929 . S
H798 C821 0.931 . S
H799 C822 0.931 . S
O800 Eu756 2.462 . S
O800 C820 1.252 . S
O801 Eu756 2.373 . S
O801 C812 1.249 . S
O802 Eu767 2.335 . S
O802 C812 1.264 . S
O803 Eu756 2.432 . S
O803 C820 1.268 . S
O804 Eu756 2.291 . S
O804 C819 1.255 . S
O805 Eu767 2.372 . S
O805 C819 1.257 . S
O806 Eu767 2.462 . S
O806 C831 1.252 . S
O807 Eu767 2.373 . S
O807 C823 1.249 . S
O808 Eu756 2.335 . S
O808 C823 1.264 . S
O809 Eu767 2.432 . S
O809 C831 1.268 . S
O810 Eu767 2.291 . S
O810 C830 1.255 . S
O811 Eu756 2.372 . S
O811 C830 1.257 . S
C812 O801 1.249 . S
C812 O802 1.264 . S
C813 C816 1.382 . S
C813 C818 1.390 . S
C813 C820 1.506 . S
C814 C815 1.398 . S
C814 C818 1.392 . S
C815 C814 1.398 . S
C815 C817 1.372 . S
C815 H832 0.931 . S
C816 C813 1.382 . S
C816 C817 1.390 . S
C816 H833 0.931 . S
C817 C815 1.372 . S
C817 C816 1.390 . S
C817 H834 0.929 . S
C818 C813 1.390 . S
C818 C814 1.392 . S
C818 H835 0.930 . S
C819 O804 1.255 . S
C819 O805 1.257 . S
C820 Eu756 2.787 . S
C820 O800 1.252 . S
C820 O803 1.268 . S
C820 C813 1.506 . S
C821 C788 1.439 . S
C821 H798 0.931 . S
C821 C822 1.374 . S
C822 C793 1.387 . S
C822 H799 0.931 . S
C822 C821 1.374 . S
C823 O807 1.249 . S
C823 O808 1.264 . S
C824 C827 1.382 . S
C824 C828 1.390 . S
C824 C831 1.506 . S
C825 C826 1.398 . S
C825 C828 1.392 . S
C826 C825 1.398 . S
C826 C829 1.372 . S
C826 H836 0.927 1_556 S
C827 C824 1.382 . S
C827 C829 1.390 . S
C827 H837 0.931 . S
C828 C824 1.390 . S
C828 C825 1.392 . S
C828 H838 0.930 . S
C829 C826 1.372 . S
C829 C827 1.390 . S
C829 H839 0.929 . S
C830 O810 1.255 . S
C830 O811 1.257 . S
C831 Eu767 2.787 . S
C831 O806 1.252 . S
C831 O809 1.268 . S
C831 C824 1.506 . S
H832 C815 0.931 . S
H833 C816 0.931 . S
H834 C817 0.929 . S
H835 C818 0.930 . S
H836 C826 0.927 1_554 S
H837 C827 0.931 . S
H838 C828 0.930 . S
H839 C829 0.929 . S
Eu840 N869 2.600 . S
Eu840 N875 2.562 . S
Eu840 O884 2.462 . S
Eu840 O885 2.373 . S
Eu840 O887 2.432 . S
Eu840 O888 2.291 . S
Eu840 O892 2.335 . S
Eu840 O895 2.372 . S
Eu840 C904 2.787 . S
C841 N842 1.365 . S
C841 C844 1.405 . S
C841 C848 1.448 . S
N842 C841 1.365 . S
N842 C845 1.319 . S
N842 Eu851 2.600 . S
C843 C845 1.397 . S
C843 C846 1.367 . S
C843 H863 0.931 . S
C844 C841 1.405 . S
C844 C846 1.403 . S
C844 C850 1.439 . S
C845 N842 1.319 . S
C845 C843 1.397 . S
C845 H856 0.930 . S
C846 C843 1.367 . S
C846 C844 1.403 . S
C846 H867 0.929 . S
C847 C848 1.430 . S
C847 C849 1.387 . S
C847 C853 1.404 . S
C848 C841 1.448 . S
C848 C847 1.430 . S
C848 N852 1.351 . S
C849 C847 1.387 . S
C849 C850 1.374 . S
C849 H864 0.931 . S
C850 C844 1.439 . S
C850 C849 1.374 . S
C850 H865 0.931 . S
Eu851 N842 2.600 . S
Eu851 N852 2.562 . S
Eu851 O886 2.335 . S
Eu851 O889 2.372 . S
Eu851 O890 2.462 . S
Eu851 O891 2.373 . S
Eu851 O893 2.432 . S
Eu851 O894 2.291 . S
Eu851 C915 2.787 . S
N852 C848 1.351 . S
N852 Eu851 2.562 . S
N852 C854 1.325 . S
C853 C847 1.404 . S
C853 C855 1.366 . S
C853 H861 0.930 . S
C854 N852 1.325 . S
C854 C855 1.416 . S
C854 H860 0.929 . S
C855 C853 1.366 . S
C855 C854 1.416 . S
C855 H857 0.930 . S
H856 C845 0.930 . S
H857 C855 0.930 . S
H858 C873 0.930 . S
H859 C880 0.930 . S
H860 C854 0.929 . S
H861 C853 0.930 . S
H862 C876 0.929 . S
H863 C843 0.931 . S
H864 C849 0.931 . S
H865 C850 0.931 . S
H866 C871 0.931 . S
H867 C846 0.929 . S
H868 C879 0.930 . S
N869 Eu840 2.600 . S
N869 C870 1.365 . S
N869 C873 1.319 . S
C870 N869 1.365 . S
C870 C872 1.405 . S
C870 C878 1.448 . S
C871 H866 0.931 . S
C871 C873 1.397 . S
C871 C874 1.367 . S
C872 C870 1.405 . S
C872 C874 1.403 . S
C872 C905 1.439 . S
C873 H858 0.930 . S
C873 N869 1.319 . S
C873 C871 1.397 . S
C874 C871 1.367 . S
C874 C872 1.403 . S
C874 H881 0.929 . S
N875 Eu840 2.562 . S
N875 C876 1.325 . S
N875 C878 1.351 . S
C876 H862 0.929 . S
C876 N875 1.325 . S
C876 C880 1.416 . S
C877 C878 1.430 . S
C877 C879 1.404 . S
C877 C906 1.387 . S
C878 C870 1.448 . S
C878 N875 1.351 . S
C878 C877 1.430 . S
C879 H868 0.930 . S
C879 C877 1.404 . S
C879 C880 1.366 . S
C880 H859 0.930 . S
C880 C876 1.416 . S
C880 C879 1.366 . S
H881 C874 0.929 . S
H882 C905 0.931 . S
H883 C906 0.931 . S
O884 Eu840 2.462 . S
O884 C904 1.252 . S
O885 Eu840 2.373 . S
O885 C896 1.249 . S
O886 Eu851 2.335 . S
O886 C896 1.264 . S
O887 Eu840 2.432 . S
O887 C904 1.268 . S
O888 Eu840 2.291 . S
O888 C903 1.255 . S
O889 Eu851 2.372 . S
O889 C903 1.257 . S
O890 Eu851 2.462 . S
O890 C915 1.252 . S
O891 Eu851 2.373 . S
O891 C907 1.249 . S
O892 Eu840 2.335 . S
O892 C907 1.264 . S
O893 Eu851 2.432 . S
O893 C915 1.268 . S
O894 Eu851 2.291 . S
O894 C914 1.255 . S
O895 Eu840 2.372 . S
O895 C914 1.257 . S
C896 O885 1.249 . S
C896 O886 1.264 . S
C897 C900 1.382 . S
C897 C902 1.390 . S
C897 C904 1.506 . S
C898 C899 1.398 . S
C898 C902 1.392 . S
C899 C898 1.398 . S
C899 C901 1.372 . S
C899 H916 0.931 . S
C900 C897 1.382 . S
C900 C901 1.390 . S
C900 H917 0.931 . S
C901 C899 1.372 . S
C901 C900 1.390 . S
C901 H918 0.929 . S
C902 C897 1.390 . S
C902 C898 1.392 . S
C902 H919 0.930 . S
C903 O888 1.255 . S
C903 O889 1.257 . S
C904 Eu840 2.787 . S
C904 O884 1.252 . S
C904 O887 1.268 . S
C904 C897 1.506 . S
C905 C872 1.439 . S
C905 H882 0.931 . S
C905 C906 1.374 . S
C906 C877 1.387 . S
C906 H883 0.931 . S
C906 C905 1.374 . S
C907 O891 1.249 . S
C907 O892 1.264 . S
C908 C911 1.382 . S
C908 C912 1.390 . S
C908 C915 1.506 . S
C909 C910 1.398 . S
C909 C912 1.392 . S
C910 C909 1.398 . S
C910 C913 1.372 . S
C910 H920 0.952 . S
C911 C908 1.382 . S
C911 C913 1.390 . S
C911 H921 0.931 . S
C912 C908 1.390 . S
C912 C909 1.392 . S
C912 H922 0.930 . S
C913 C910 1.372 . S
C913 C911 1.390 . S
C913 H923 0.929 . S
C914 O894 1.255 . S
C914 O895 1.257 . S
C915 Eu851 2.787 . S
C915 O890 1.252 . S
C915 O893 1.268 . S
C915 C908 1.506 . S
H916 C899 0.931 . S
H917 C900 0.931 . S
H918 C901 0.929 . S
H919 C902 0.930 . S
H920 C910 0.952 . S
H921 C911 0.931 . S
H922 C912 0.930 . S
H923 C913 0.929 . S
Eu924 N953 2.600 . S
Eu924 N959 2.562 . S
Eu924 O968 2.462 . S
Eu924 O969 2.373 . S
Eu924 O971 2.432 . S
Eu924 O972 2.291 . S
Eu924 O976 2.335 . S
Eu924 O979 2.372 . S
Eu924 C988 2.787 . S
C925 N926 1.365 . S
C925 C928 1.405 . S
C925 C932 1.448 . S
N926 C925 1.365 . S
N926 C929 1.319 . S
N926 Eu935 2.600 . S
C927 C929 1.397 . S
C927 C930 1.367 . S
C927 H947 0.931 . S
C928 C925 1.405 . S
C928 C930 1.403 . S
C928 C934 1.439 1_554 S
C929 N926 1.319 . S
C929 C927 1.397 . S
C929 H940 0.930 . S
C930 C927 1.367 . S
C930 C928 1.403 . S
C930 H951 0.929 . S
C931 C932 1.430 1_556 S
C931 C933 1.387 . S
C931 C937 1.404 . S
C932 C925 1.448 . S
C932 C931 1.430 1_554 S
C932 N936 1.351 . S
C933 C931 1.387 . S
C933 C934 1.374 . S
C933 H948 0.931 . S
C934 C928 1.439 1_556 S
C934 C933 1.374 . S
C934 H949 0.931 . S
Eu935 N926 2.600 . S
Eu935 N936 2.562 . S
Eu935 O970 2.335 . S
Eu935 O973 2.372 . S
Eu935 O974 2.462 1_554 S
Eu935 O975 2.373 . S
Eu935 O977 2.432 1_554 S
Eu935 O978 2.291 . S
Eu935 C999 2.787 1_554 S
N936 C932 1.351 . S
N936 Eu935 2.562 . S
N936 C938 1.325 . S
C937 C931 1.404 . S
C937 C939 1.366 . S
C937 H945 0.930 . S
C938 N936 1.325 . S
C938 C939 1.416 1_554 S
C938 H944 0.929 . S
C939 C937 1.366 . S
C939 C938 1.416 1_556 S
C939 H941 0.930 . S
H940 C929 0.930 . S
H941 C939 0.930 . S
H942 C957 0.930 . S
H943 C964 0.930 . S
H944 C938 0.929 . S
H945 C937 0.930 . S
H946 C960 0.929 . S
H947 C927 0.931 . S
H948 C933 0.931 . S
H949 C934 0.931 . S
H950 C955 0.931 . S
H951 C930 0.929 . S
H952 C963 0.930 . S
N953 Eu924 2.600 . S
N953 C954 1.365 . S
N953 C957 1.319 . S
C954 N953 1.365 . S
C954 C956 1.405 . S
C954 C962 1.448 . S
C955 H950 0.931 . S
C955 C957 1.397 . S
C955 C958 1.367 . S
C956 C954 1.405 . S
C956 C958 1.403 . S
C956 C989 1.439 . S
C957 H942 0.930 . S
C957 N953 1.319 . S
C957 C955 1.397 . S
C958 C955 1.367 . S
C958 C956 1.403 . S
C958 H965 0.929 . S
N959 Eu924 2.562 . S
N959 C960 1.325 . S
N959 C962 1.351 . S
C960 H946 0.929 . S
C960 N959 1.325 . S
C960 C964 1.416 . S
C961 C962 1.430 . S
C961 C963 1.404 . S
C961 C990 1.387 . S
C962 C954 1.448 . S
C962 N959 1.351 . S
C962 C961 1.430 . S
C963 H952 0.930 . S
C963 C961 1.404 . S
C963 C964 1.366 . S
C964 H943 0.930 . S
C964 C960 1.416 . S
C964 C963 1.366 . S
H965 C958 0.929 . S
H966 C989 0.931 . S
H967 C990 0.931 1_545 S
O968 Eu924 2.462 . S
O968 C988 1.252 . S
O969 Eu924 2.373 . S
O969 C980 1.249 . S
O970 Eu935 2.335 . S
O970 C980 1.264 . S
O971 Eu924 2.432 . S
O971 C988 1.268 . S
O972 Eu924 2.291 . S
O972 C987 1.255 . S
O973 Eu935 2.372 . S
O973 C987 1.257 . S
O974 Eu935 2.462 1_556 S
O974 C999 1.252 . S
O975 Eu935 2.373 . S
O975 C991 1.249 . S
O976 Eu924 2.335 . S
O976 C991 1.264 . S
O977 Eu935 2.432 1_556 S
O977 C999 1.268 . S
O978 Eu935 2.291 . S
O978 C998 1.255 . S
O979 Eu924 2.372 . S
O979 C998 1.257 . S
C980 O969 1.249 . S
C980 O970 1.264 . S
C981 C984 1.382 . S
C981 C986 1.390 . S
C981 C988 1.506 . S
C982 C983 1.398 . S
C982 C986 1.392 . S
C983 C982 1.398 . S
C983 C985 1.372 . S
C983 H1000 0.931 . S
C984 C981 1.382 . S
C984 C985 1.390 . S
C984 H1001 0.931 . S
C985 C983 1.372 . S
C985 C984 1.390 . S
C985 H1002 0.929 . S
C986 C981 1.390 . S
C986 C982 1.392 . S
C986 H1003 0.930 . S
C987 O972 1.255 . S
C987 O973 1.257 . S
C988 Eu924 2.787 . S
C988 O968 1.252 . S
C988 O971 1.268 . S
C988 C981 1.506 . S
C989 C956 1.439 . S
C989 H966 0.931 . S
C989 C990 1.374 . S
C990 C961 1.387 . S
C990 H967 0.931 1_565 S
C990 C989 1.374 . S
C991 O975 1.249 . S
C991 O976 1.264 . S
C992 C995 1.382 . S
C992 C996 1.390 . S
C992 C999 1.506 . S
C993 C994 1.398 . S
C993 C996 1.392 . S
C994 C993 1.398 . S
C994 C997 1.372 . S
C994 H1004 0.931 . S
C995 C992 1.382 . S
C995 C997 1.390 . S
C995 H1005 0.931 . S
C996 C992 1.390 . S
C996 C993 1.392 . S
C996 H1006 0.930 . S
C997 C994 1.372 . S
C997 C995 1.390 . S
C997 H1007 0.929 . S
C998 O978 1.255 . S
C998 O979 1.257 . S
C999 Eu935 2.787 1_556 S
C999 O974 1.252 . S
C999 O977 1.268 . S
C999 C992 1.506 . S
H1000 C983 0.931 . S
H1001 C984 0.931 . S
H1002 C985 0.929 . S
H1003 C986 0.930 . S
H1004 C994 0.931 . S
H1005 C995 0.931 . S
H1006 C996 0.930 . S
H1007 C997 0.929 . S
Eu1008 N1037 2.600 . S
Eu1008 N1043 2.562 . S
Eu1008 O1052 2.462 1_554 S
Eu1008 O1053 2.373 . S
Eu1008 O1055 2.432 1_554 S
Eu1008 O1056 2.291 . S
Eu1008 O1060 2.335 . S
Eu1008 O1063 2.372 . S
Eu1008 C1072 2.787 1_554 S
C1009 N1010 1.365 . S
C1009 C1012 1.405 . S
C1009 C1016 1.448 . S
N1010 C1009 1.365 . S
N1010 C1013 1.319 . S
N1010 Eu1019 2.600 . S
C1011 C1013 1.397 . S
C1011 C1014 1.367 . S
C1011 H1031 0.931 . S
C1012 C1009 1.405 . S
C1012 C1014 1.403 . S
C1012 C1018 1.439 . S
C1013 N1010 1.319 . S
C1013 C1011 1.397 . S
C1013 H1024 0.930 . S
C1014 C1011 1.367 . S
C1014 C1012 1.403 . S
C1014 H1035 0.929 . S
C1015 C1016 1.430 . S
C1015 C1017 1.387 . S
C1015 C1021 1.404 . S
C1016 C1009 1.448 . S
C1016 C1015 1.430 . S
C1016 N1020 1.351 . S
C1017 C1015 1.387 . S
C1017 C1018 1.374 . S
C1017 H1032 0.931 . S
C1018 C1012 1.439 . S
C1018 C1017 1.374 . S
C1018 H1033 0.931 . S
Eu1019 N1010 2.600 . S
Eu1019 N1020 2.562 . S
Eu1019 O1054 2.335 . S
Eu1019 O1057 2.372 . S
Eu1019 O1058 2.462 . S
Eu1019 O1059 2.373 . S
Eu1019 O1061 2.432 . S
Eu1019 O1062 2.291 . S
Eu1019 C1083 2.787 . S
N1020 C1016 1.351 . S
N1020 Eu1019 2.562 . S
N1020 C1022 1.325 . S
C1021 C1015 1.404 . S
C1021 C1023 1.366 . S
C1021 H1029 0.930 . S
C1022 N1020 1.325 . S
C1022 C1023 1.416 . S
C1022 H1028 0.929 . S
C1023 C1021 1.366 . S
C1023 C1022 1.416 . S
C1023 H1025 0.930 . S
H1024 C1013 0.930 . S
H1025 C1023 0.930 . S
H1026 C1041 0.930 . S
H1027 C1048 0.930 . S
H1028 C1022 0.929 . S
H1029 C1021 0.930 . S
H1030 C1044 0.929 1_554 S
H1031 C1011 0.931 . S
H1032 C1017 0.931 . S
H1033 C1018 0.931 . S
H1034 C1039 0.931 . S
H1035 C1014 0.929 . S
H1036 C1047 0.930 . S
N1037 Eu1008 2.600 . S
N1037 C1038 1.365 . S
N1037 C1041 1.319 . S
C1038 N1037 1.365 . S
C1038 C1040 1.405 . S
C1038 C1046 1.448 . S
C1039 H1034 0.931 . S
C1039 C1041 1.397 . S
C1039 C1042 1.367 . S
C1040 C1038 1.405 . S
C1040 C1042 1.403 . S
C1040 C1073 1.439 1_554 S
C1041 H1026 0.930 . S
C1041 N1037 1.319 . S
C1041 C1039 1.397 . S
C1042 C1039 1.367 . S
C1042 C1040 1.403 . S
C1042 H1049 0.929 . S
N1043 Eu1008 2.562 . S
N1043 C1044 1.325 1_554 S
N1043 C1046 1.351 . S
C1044 H1030 0.929 1_556 S
C1044 N1043 1.325 1_556 S
C1044 C1048 1.415 . S
C1045 C1046 1.430 1_556 S
C1045 C1047 1.404 . S
C1045 C1074 1.387 . S
C1046 C1038 1.448 . S
C1046 N1043 1.351 . S
C1046 C1045 1.430 1_554 S
C1047 H1036 0.930 . S
C1047 C1045 1.404 . S
C1047 C1048 1.366 . S
C1048 H1027 0.930 . S
C1048 C1044 1.415 . S
C1048 C1047 1.366 . S
H1049 C1042 0.929 . S
H1050 C1073 0.931 . S
H1051 C1074 0.931 . S
O1052 Eu1008 2.462 1_556 S
O1052 C1072 1.252 . S
O1053 Eu1008 2.373 . S
O1053 C1064 1.249 . S
O1054 Eu1019 2.335 . S
O1054 C1064 1.264 . S
O1055 Eu1008 2.432 1_556 S
O1055 C1072 1.268 . S
O1056 Eu1008 2.291 . S
O1056 C1071 1.255 . S
O1057 Eu1019 2.372 . S
O1057 C1071 1.257 . S
O1058 Eu1019 2.462 . S
O1058 C1083 1.252 . S
O1059 Eu1019 2.373 . S
O1059 C1075 1.249 . S
O1060 Eu1008 2.335 . S
O1060 C1075 1.264 . S
O1061 Eu1019 2.432 . S
O1061 C1083 1.268 . S
O1062 Eu1019 2.291 . S
O1062 C1082 1.255 . S
O1063 Eu1008 2.372 . S
O1063 C1082 1.257 . S
C1064 O1053 1.249 . S
C1064 O1054 1.264 . S
C1065 C1068 1.382 . S
C1065 C1070 1.390 . S
C1065 C1072 1.506 . S
C1066 C1067 1.398 . S
C1066 C1070 1.392 . S
C1067 C1066 1.398 . S
C1067 C1069 1.372 . S
C1067 H1084 0.931 . S
C1068 C1065 1.382 . S
C1068 C1069 1.390 . S
C1068 H1085 0.931 . S
C1069 C1067 1.372 . S
C1069 C1068 1.390 . S
C1069 H1086 0.929 . S
C1070 C1065 1.390 . S
C1070 C1066 1.392 . S
C1070 H1087 0.930 . S
C1071 O1056 1.255 . S
C1071 O1057 1.257 . S
C1072 Eu1008 2.787 1_556 S
C1072 O1052 1.252 . S
C1072 O1055 1.268 . S
C1072 C1065 1.506 . S
C1073 C1040 1.439 1_556 S
C1073 H1050 0.931 . S
C1073 C1074 1.374 . S
C1074 C1045 1.387 . S
C1074 H1051 0.931 . S
C1074 C1073 1.374 . S
C1075 O1059 1.249 . S
C1075 O1060 1.264 . S
C1076 C1079 1.382 . S
C1076 C1080 1.390 . S
C1076 C1083 1.506 . S
C1077 C1078 1.398 . S
C1077 C1080 1.392 . S
C1078 C1077 1.398 . S
C1078 C1081 1.372 . S
C1078 H1088 0.931 . S
C1079 C1076 1.382 . S
C1079 C1081 1.390 . S
C1079 H1089 0.931 . S
C1080 C1076 1.390 . S
C1080 C1077 1.392 . S
C1080 H1090 0.930 . S
C1081 C1078 1.372 . S
C1081 C1079 1.390 . S
C1081 H1091 0.929 . S
C1082 O1062 1.255 . S
C1082 O1063 1.257 . S
C1083 Eu1019 2.787 . S
C1083 O1058 1.252 . S
C1083 O1061 1.268 . S
C1083 C1076 1.506 . S
H1084 C1067 0.931 . S
H1085 C1068 0.931 . S
H1086 C1069 0.929 . S
H1087 C1070 0.930 . S
H1088 C1078 0.931 . S
H1089 C1079 0.931 . S
H1090 C1080 0.930 . S
H1091 C1081 0.929 . S
Eu1092 N1121 2.600 . S
Eu1092 N1127 2.562 . S
Eu1092 O1136 2.462 . S
Eu1092 O1137 2.373 . S
Eu1092 O1139 2.432 . S
Eu1092 O1140 2.291 . S
Eu1092 O1144 2.335 . S
Eu1092 O1147 2.372 . S
Eu1092 C1156 2.787 . S
C1093 N1094 1.365 . S
C1093 C1096 1.405 . S
C1093 C1100 1.448 . S
N1094 C1093 1.365 . S
N1094 C1097 1.319 . S
N1094 Eu1103 2.600 . S
C1095 C1097 1.397 . S
C1095 C1098 1.367 . S
C1095 H1115 0.931 . S
C1096 C1093 1.405 . S
C1096 C1098 1.403 . S
C1096 C1102 1.439 1_556 S
C1097 N1094 1.319 . S
C1097 C1095 1.397 . S
C1097 H1108 0.930 . S
C1098 C1095 1.367 . S
C1098 C1096 1.403 . S
C1098 H1119 0.929 . S
C1099 C1100 1.430 1_554 S
C1099 C1101 1.387 . S
C1099 C1105 1.404 . S
C1100 C1093 1.448 . S
C1100 C1099 1.430 1_556 S
C1100 N1104 1.351 . S
C1101 C1099 1.387 . S
C1101 C1102 1.374 . S
C1101 H1116 0.931 . S
C1102 C1096 1.439 1_554 S
C1102 C1101 1.374 . S
C1102 H1117 0.931 . S
Eu1103 N1094 2.600 . S
Eu1103 N1104 2.562 . S
Eu1103 O1138 2.335 . S
Eu1103 O1141 2.372 . S
Eu1103 O1142 2.462 1_556 S
Eu1103 O1143 2.373 . S
Eu1103 O1145 2.432 1_556 S
Eu1103 O1146 2.291 . S
Eu1103 C1167 2.787 1_556 S
N1104 C1100 1.351 . S
N1104 Eu1103 2.562 . S
N1104 C1106 1.325 . S
C1105 C1099 1.404 . S
C1105 C1107 1.366 . S
C1105 H1113 0.930 . S
C1106 N1104 1.325 . S
C1106 C1107 1.416 1_556 S
C1106 H1112 0.929 . S
C1107 C1105 1.366 . S
C1107 C1106 1.416 1_554 S
C1107 H1109 0.930 . S
H1108 C1097 0.930 . S
H1109 C1107 0.930 . S
H1110 C1125 0.930 . S
H1111 C1132 0.930 . S
H1112 C1106 0.929 . S
H1113 C1105 0.930 . S
H1114 C1128 0.929 . S
H1115 C1095 0.931 . S
H1116 C1101 0.931 . S
H1117 C1102 0.931 . S
H1118 C1123 0.931 . S
H1119 C1098 0.929 . S
H1120 C1131 0.930 . S
N1121 Eu1092 2.600 . S
N1121 C1122 1.365 . S
N1121 C1125 1.319 . S
C1122 N1121 1.365 . S
C1122 C1124 1.405 . S
C1122 C1130 1.448 . S
C1123 H1118 0.931 . S
C1123 C1125 1.397 . S
C1123 C1126 1.367 . S
C1124 C1122 1.405 . S
C1124 C1126 1.403 . S
C1124 C1157 1.439 . S
C1125 H1110 0.930 . S
C1125 N1121 1.319 . S
C1125 C1123 1.397 . S
C1126 C1123 1.367 . S
C1126 C1124 1.403 . S
C1126 H1133 0.929 . S
N1127 Eu1092 2.562 . S
N1127 C1128 1.325 . S
N1127 C1130 1.351 . S
C1128 H1114 0.929 . S
C1128 N1127 1.325 . S
C1128 C1132 1.416 . S
C1129 C1130 1.430 . S
C1129 C1131 1.404 . S
C1129 C1158 1.387 . S
C1130 C1122 1.448 . S
C1130 N1127 1.351 . S
C1130 C1129 1.430 . S
C1131 H1120 0.930 . S
C1131 C1129 1.404 . S
C1131 C1132 1.366 . S
C1132 H1111 0.930 . S
C1132 C1128 1.416 . S
C1132 C1131 1.366 . S
H1133 C1126 0.929 . S
H1134 C1157 0.931 . S
H1135 C1158 0.931 1_565 S
O1136 Eu1092 2.462 . S
O1136 C1156 1.252 . S
O1137 Eu1092 2.373 . S
O1137 C1148 1.249 . S
O1138 Eu1103 2.335 . S
O1138 C1148 1.264 . S
O1139 Eu1092 2.432 . S
O1139 C1156 1.268 . S
O1140 Eu1092 2.291 . S
O1140 C1155 1.255 . S
O1141 Eu1103 2.372 . S
O1141 C1155 1.257 . S
O1142 Eu1103 2.462 1_554 S
O1142 C1167 1.252 . S
O1143 Eu1103 2.373 . S
O1143 C1159 1.249 . S
O1144 Eu1092 2.335 . S
O1144 C1159 1.264 . S
O1145 Eu1103 2.432 1_554 S
O1145 C1167 1.268 . S
O1146 Eu1103 2.291 . S
O1146 C1166 1.255 . S
O1147 Eu1092 2.372 . S
O1147 C1166 1.257 . S
C1148 O1137 1.249 . S
C1148 O1138 1.264 . S
C1149 C1152 1.382 . S
C1149 C1154 1.390 . S
C1149 C1156 1.506 . S
C1150 C1151 1.398 . S
C1150 C1154 1.392 . S
C1151 C1150 1.398 . S
C1151 C1153 1.372 . S
C1151 H1168 0.931 . S
C1152 C1149 1.382 . S
C1152 C1153 1.390 . S
C1152 H1169 0.931 . S
C1153 C1151 1.372 . S
C1153 C1152 1.390 . S
C1153 H1170 0.929 . S
C1154 C1149 1.390 . S
C1154 C1150 1.392 . S
C1154 H1171 0.930 . S
C1155 O1140 1.255 . S
C1155 O1141 1.257 . S
C1156 Eu1092 2.787 . S
C1156 O1136 1.252 . S
C1156 O1139 1.268 . S
C1156 C1149 1.506 . S
C1157 C1124 1.439 . S
C1157 H1134 0.931 . S
C1157 C1158 1.374 . S
C1158 C1129 1.387 . S
C1158 H1135 0.931 1_545 S
C1158 C1157 1.374 . S
C1159 O1143 1.249 . S
C1159 O1144 1.264 . S
C1160 C1163 1.382 . S
C1160 C1164 1.390 . S
C1160 C1167 1.506 . S
C1161 C1162 1.398 . S
C1161 C1164 1.392 . S
C1162 C1161 1.398 . S
C1162 C1165 1.372 . S
C1162 H1172 0.931 . S
C1163 C1160 1.382 . S
C1163 C1165 1.390 . S
C1163 H1173 0.931 . S
C1164 C1160 1.390 . S
C1164 C1161 1.392 . S
C1164 H1174 0.930 . S
C1165 C1162 1.372 . S
C1165 C1163 1.390 . S
C1165 H1175 0.929 . S
C1166 O1146 1.255 . S
C1166 O1147 1.257 . S
C1167 Eu1103 2.787 1_554 S
C1167 O1142 1.252 . S
C1167 O1145 1.268 . S
C1167 C1160 1.506 . S
H1168 C1151 0.931 . S
H1169 C1152 0.931 . S
H1170 C1153 0.929 . S
H1171 C1154 0.930 . S
H1172 C1162 0.931 . S
H1173 C1163 0.931 . S
H1174 C1164 0.930 . S
H1175 C1165 0.929 . S
Eu1176 N1205 2.600 . S
Eu1176 N1211 2.562 . S
Eu1176 O1220 2.462 . S
Eu1176 O1221 2.373 . S
Eu1176 O1223 2.432 . S
Eu1176 O1224 2.291 . S
Eu1176 O1228 2.335 . S
Eu1176 O1231 2.372 . S
Eu1176 C1240 2.787 . S
C1177 N1178 1.365 . S
C1177 C1180 1.405 . S
C1177 C1184 1.448 . S
N1178 C1177 1.365 . S
N1178 C1181 1.319 . S
N1178 Eu1187 2.600 . S
C1179 C1181 1.397 . S
C1179 C1182 1.367 . S
C1179 H1199 0.931 . S
C1180 C1177 1.405 . S
C1180 C1182 1.403 . S
C1180 C1186 1.439 . S
C1181 N1178 1.319 . S
C1181 C1179 1.397 . S
C1181 H1192 0.930 . S
C1182 C1179 1.367 . S
C1182 C1180 1.403 . S
C1182 H1203 0.929 . S
C1183 C1184 1.430 . S
C1183 C1185 1.387 . S
C1183 C1189 1.404 . S
C1184 C1177 1.448 . S
C1184 C1183 1.430 . S
C1184 N1188 1.351 . S
C1185 C1183 1.387 . S
C1185 C1186 1.374 . S
C1185 H1200 0.931 . S
C1186 C1180 1.439 . S
C1186 C1185 1.374 . S
C1186 H1201 0.931 . S
Eu1187 N1178 2.600 . S
Eu1187 N1188 2.562 . S
Eu1187 O1222 2.335 . S
Eu1187 O1225 2.372 . S
Eu1187 O1226 2.462 . S
Eu1187 O1227 2.373 . S
Eu1187 O1229 2.432 . S
Eu1187 O1230 2.291 . S
Eu1187 C1251 2.787 . S
N1188 C1184 1.351 . S
N1188 Eu1187 2.562 . S
N1188 C1190 1.325 . S
C1189 C1183 1.404 . S
C1189 C1191 1.366 . S
C1189 H1197 0.930 . S
C1190 N1188 1.325 . S
C1190 C1191 1.416 . S
C1190 H1196 0.929 . S
C1191 C1189 1.366 . S
C1191 C1190 1.416 . S
C1191 H1193 0.930 . S
H1192 C1181 0.930 . S
H1193 C1191 0.930 . S
H1194 C1209 0.930 . S
H1195 C1216 0.930 . S
H1196 C1190 0.929 . S
H1197 C1189 0.930 . S
H1198 C1212 0.929 . S
H1199 C1179 0.931 . S
H1200 C1185 0.931 . S
H1201 C1186 0.931 . S
H1202 C1207 0.931 . S
H1203 C1182 0.929 . S
H1204 C1215 0.930 . S
N1205 Eu1176 2.600 . S
N1205 C1206 1.365 . S
N1205 C1209 1.319 . S
C1206 N1205 1.365 . S
C1206 C1208 1.405 . S
C1206 C1214 1.448 . S
C1207 H1202 0.931 . S
C1207 C1209 1.397 . S
C1207 C1210 1.367 . S
C1208 C1206 1.405 . S
C1208 C1210 1.403 . S
C1208 C1241 1.439 . S
C1209 H1194 0.930 . S
C1209 N1205 1.319 . S
C1209 C1207 1.397 . S
C1210 C1207 1.367 . S
C1210 C1208 1.403 . S
C1210 H1217 0.929 . S
N1211 Eu1176 2.562 . S
N1211 C1212 1.325 . S
N1211 C1214 1.351 . S
C1212 H1198 0.929 . S
C1212 N1211 1.325 . S
C1212 C1216 1.416 . S
C1213 C1214 1.430 . S
C1213 C1215 1.404 . S
C1213 C1242 1.387 . S
C1214 C1206 1.448 . S
C1214 N1211 1.351 . S
C1214 C1213 1.430 . S
C1215 H1204 0.930 . S
C1215 C1213 1.404 . S
C1215 C1216 1.366 . S
C1216 H1195 0.930 . S
C1216 C1212 1.416 . S
C1216 C1215 1.366 . S
H1217 C1210 0.929 . S
H1218 C1241 0.931 . S
H1219 C1242 0.931 . S
O1220 Eu1176 2.462 . S
O1220 C1240 1.252 . S
O1221 Eu1176 2.373 . S
O1221 C1232 1.249 . S
O1222 Eu1187 2.335 . S
O1222 C1232 1.264 . S
O1223 Eu1176 2.432 . S
O1223 C1240 1.268 . S
O1224 Eu1176 2.291 . S
O1224 C1239 1.255 . S
O1225 Eu1187 2.372 . S
O1225 C1239 1.257 . S
O1226 Eu1187 2.462 . S
O1226 C1251 1.252 . S
O1227 Eu1187 2.373 . S
O1227 C1243 1.249 . S
O1228 Eu1176 2.335 . S
O1228 C1243 1.264 . S
O1229 Eu1187 2.432 . S
O1229 C1251 1.268 . S
O1230 Eu1187 2.291 . S
O1230 C1250 1.255 . S
O1231 Eu1176 2.372 . S
O1231 C1250 1.257 . S
C1232 O1221 1.249 . S
C1232 O1222 1.264 . S
C1233 C1236 1.382 . S
C1233 C1238 1.390 . S
C1233 C1240 1.506 . S
C1234 C1235 1.398 . S
C1234 C1238 1.392 . S
C1235 C1234 1.398 . S
C1235 C1237 1.372 . S
C1235 H1252 0.931 1_556 S
C1236 C1233 1.382 . S
C1236 C1237 1.390 . S
C1236 H1253 0.931 . S
C1237 C1235 1.372 . S
C1237 C1236 1.390 . S
C1237 H1254 0.929 . S
C1238 C1233 1.390 . S
C1238 C1234 1.392 . S
C1238 H1255 0.930 . S
C1239 O1224 1.255 . S
C1239 O1225 1.257 . S
C1240 Eu1176 2.787 . S
C1240 O1220 1.252 . S
C1240 O1223 1.268 . S
C1240 C1233 1.506 . S
C1241 C1208 1.439 . S
C1241 H1218 0.931 . S
C1241 C1242 1.374 . S
C1242 C1213 1.387 . S
C1242 H1219 0.931 . S
C1242 C1241 1.374 . S
C1243 O1227 1.249 . S
C1243 O1228 1.264 . S
C1244 C1247 1.382 . S
C1244 C1248 1.390 . S
C1244 C1251 1.506 . S
C1245 C1246 1.398 . S
C1245 C1248 1.392 . S
C1246 C1245 1.398 . S
C1246 C1249 1.372 . S
C1246 H1256 0.931 . S
C1247 C1244 1.382 . S
C1247 C1249 1.390 . S
C1247 H1257 0.931 . S
C1248 C1244 1.390 . S
C1248 C1245 1.392 . S
C1248 H1258 0.930 . S
C1249 C1246 1.372 . S
C1249 C1247 1.390 . S
C1249 H1259 0.929 . S
C1250 O1230 1.255 . S
C1250 O1231 1.257 . S
C1251 Eu1187 2.787 . S
C1251 O1226 1.252 . S
C1251 O1229 1.268 . S
C1251 C1244 1.506 . S
H1252 C1235 0.931 1_554 S
H1253 C1236 0.931 . S
H1254 C1237 0.929 . S
H1255 C1238 0.930 . S
H1256 C1246 0.931 . S
H1257 C1247 0.931 . S
H1258 C1248 0.930 . S
H1259 C1249 0.929 . S
Eu1260 N1289 2.600 . S
Eu1260 N1295 2.562 . S
Eu1260 O1304 2.462 . S
Eu1260 O1305 2.373 . S
Eu1260 O1307 2.432 . S
Eu1260 O1308 2.291 . S
Eu1260 O1312 2.335 . S
Eu1260 O1315 2.372 . S
Eu1260 C1324 2.787 . S
C1261 N1262 1.365 . S
C1261 C1264 1.405 . S
C1261 C1268 1.448 . S
N1262 C1261 1.365 . S
N1262 C1265 1.319 . S
N1262 Eu1271 2.600 . S
C1263 C1265 1.397 . S
C1263 C1266 1.367 . S
C1263 H1283 0.931 . S
C1264 C1261 1.405 . S
C1264 C1266 1.403 . S
C1264 C1270 1.439 . S
C1265 N1262 1.319 . S
C1265 C1263 1.397 . S
C1265 H1276 0.930 . S
C1266 C1263 1.367 . S
C1266 C1264 1.403 . S
C1266 H1287 0.929 . S
C1267 C1268 1.430 . S
C1267 C1269 1.387 . S
C1267 C1273 1.404 . S
C1268 C1261 1.448 . S
C1268 C1267 1.430 . S
C1268 N1272 1.351 . S
C1269 C1267 1.387 . S
C1269 C1270 1.374 . S
C1269 H1284 0.931 . S
C1270 C1264 1.439 . S
C1270 C1269 1.374 . S
C1270 H1285 0.931 . S
Eu1271 N1262 2.600 . S
Eu1271 N1272 2.562 . S
Eu1271 O1306 2.335 . S
Eu1271 O1309 2.372 . S
Eu1271 O1310 2.462 . S
Eu1271 O1311 2.373 . S
Eu1271 O1313 2.432 . S
Eu1271 O1314 2.291 . S
Eu1271 C1335 2.787 . S
N1272 C1268 1.351 . S
N1272 Eu1271 2.562 . S
N1272 C1274 1.325 . S
C1273 C1267 1.404 . S
C1273 C1275 1.366 . S
C1273 H1281 0.930 . S
C1274 N1272 1.325 . S
C1274 C1275 1.416 . S
C1274 H1280 0.929 . S
C1275 C1273 1.366 . S
C1275 C1274 1.416 . S
C1275 H1277 0.930 . S
H1276 C1265 0.930 . S
H1277 C1275 0.930 . S
H1278 C1293 0.930 . S
H1279 C1300 0.930 . S
H1280 C1274 0.929 . S
H1281 C1273 0.930 . S
H1282 C1296 0.929 . S
H1283 C1263 0.931 . S
H1284 C1269 0.931 . S
H1285 C1270 0.931 . S
H1286 C1291 0.931 . S
H1287 C1266 0.929 . S
H1288 C1299 0.930 . S
N1289 Eu1260 2.600 . S
N1289 C1290 1.365 . S
N1289 C1293 1.319 . S
C1290 N1289 1.365 . S
C1290 C1292 1.405 . S
C1290 C1298 1.448 . S
C1291 H1286 0.931 . S
C1291 C1293 1.397 . S
C1291 C1294 1.367 . S
C1292 C1290 1.405 . S
C1292 C1294 1.403 . S
C1292 C1325 1.439 . S
C1293 H1278 0.930 . S
C1293 N1289 1.319 . S
C1293 C1291 1.397 . S
C1294 C1291 1.367 . S
C1294 C1292 1.403 . S
C1294 H1301 0.929 . S
N1295 Eu1260 2.562 . S
N1295 C1296 1.325 . S
N1295 C1298 1.351 . S
C1296 H1282 0.929 . S
C1296 N1295 1.325 . S
C1296 C1300 1.416 . S
C1297 C1298 1.430 . S
C1297 C1299 1.404 . S
C1297 C1326 1.387 . S
C1298 C1290 1.448 . S
C1298 N1295 1.351 . S
C1298 C1297 1.430 . S
C1299 H1288 0.930 . S
C1299 C1297 1.404 . S
C1299 C1300 1.366 . S
C1300 H1279 0.930 . S
C1300 C1296 1.416 . S
C1300 C1299 1.366 . S
H1301 C1294 0.929 . S
H1302 C1325 0.931 . S
H1303 C1326 0.931 . S
O1304 Eu1260 2.462 . S
O1304 C1324 1.252 . S
O1305 Eu1260 2.373 . S
O1305 C1316 1.249 . S
O1306 Eu1271 2.335 . S
O1306 C1316 1.264 . S
O1307 Eu1260 2.432 . S
O1307 C1324 1.268 . S
O1308 Eu1260 2.291 . S
O1308 C1323 1.255 . S
O1309 Eu1271 2.372 . S
O1309 C1323 1.257 . S
O1310 Eu1271 2.462 . S
O1310 C1335 1.252 . S
O1311 Eu1271 2.373 . S
O1311 C1327 1.249 . S
O1312 Eu1260 2.335 . S
O1312 C1327 1.264 . S
O1313 Eu1271 2.432 . S
O1313 C1335 1.268 . S
O1314 Eu1271 2.291 . S
O1314 C1334 1.255 . S
O1315 Eu1260 2.372 . S
O1315 C1334 1.257 . S
C1316 O1305 1.249 . S
C1316 O1306 1.264 . S
C1317 C1320 1.382 . S
C1317 C1322 1.390 . S
C1317 C1324 1.506 . S
C1318 C1319 1.398 . S
C1318 C1322 1.392 . S
C1319 C1318 1.398 . S
C1319 C1321 1.372 . S
C1319 H1336 0.931 . S
C1320 C1317 1.382 . S
C1320 C1321 1.390 . S
C1320 H1337 0.931 . S
C1321 C1319 1.372 . S
C1321 C1320 1.390 . S
C1321 H1338 0.929 . S
C1322 C1317 1.390 . S
C1322 C1318 1.392 . S
C1322 H1339 0.930 . S
C1323 O1308 1.255 . S
C1323 O1309 1.257 . S
C1324 Eu1260 2.787 . S
C1324 O1304 1.252 . S
C1324 O1307 1.268 . S
C1324 C1317 1.506 . S
C1325 C1292 1.439 . S
C1325 H1302 0.931 . S
C1325 C1326 1.374 . S
C1326 C1297 1.387 . S
C1326 H1303 0.931 . S
C1326 C1325 1.374 . S
C1327 O1311 1.249 . S
C1327 O1312 1.264 . S
C1328 C1331 1.382 . S
C1328 C1332 1.390 . S
C1328 C1335 1.506 . S
C1329 C1330 1.398 . S
C1329 C1332 1.392 . S
C1330 C1329 1.398 . S
C1330 C1333 1.372 . S
C1330 H1340 0.947 . S
C1331 C1328 1.382 . S
C1331 C1333 1.390 . S
C1331 H1341 0.931 . S
C1332 C1328 1.390 . S
C1332 C1329 1.392 . S
C1332 H1342 0.930 . S
C1333 C1330 1.372 . S
C1333 C1331 1.390 . S
C1333 H1343 0.929 . S
C1334 O1314 1.255 . S
C1334 O1315 1.257 . S
C1335 Eu1271 2.787 . S
C1335 O1310 1.252 . S
C1335 O1313 1.268 . S
C1335 C1328 1.506 . S
H1336 C1319 0.931 . S
H1337 C1320 0.931 . S
H1338 C1321 0.929 . S
H1339 C1322 0.930 . S
H1340 C1330 0.947 . S
H1341 C1331 0.931 . S
H1342 C1332 0.930 . S
H1343 C1333 0.929 . S
H1344 C1356 0.930 . S
H1345 C1358 0.930 . S
H1346 C1359 0.930 . S
H1347 C1363 0.959 . S
H1348 C1363 0.959 . S
H1349 C1363 0.961 . S
H1350 C1364 0.960 . S
H1351 C1364 0.961 . S
H1352 C1364 0.959 . S
H1353 C1367 0.929 . S
H1354 C1368 0.931 . S
H1355 C1370 0.930 . S
C1356 H1344 0.930 . S
C1356 C1357 1.399 . S
C1356 C1361 1.399 . S
C1357 C1356 1.399 . S
C1357 C1358 1.376 . S
C1358 H1345 0.930 . S
C1358 C1357 1.376 . S
C1358 C1359 1.388 . S
C1359 H1346 0.930 . S
C1359 C1358 1.388 . S
C1359 C1360 1.390 . S
C1360 C1359 1.390 . S
C1360 C1361 1.394 . S
C1360 C1366 1.465 . S
C1361 C1356 1.399 . S
C1361 C1360 1.394 . S
C1361 C1362 1.516 . S
C1362 C1361 1.516 . S
C1362 C1363 1.502 . S
C1362 C1364 1.561 . S
C1362 C1365 1.526 . S
C1363 H1347 0.959 . S
C1363 H1348 0.959 . S
C1363 H1349 0.961 . S
C1363 C1362 1.502 . S
C1364 H1350 0.960 . S
C1364 H1351 0.961 . S
C1364 H1352 0.959 . S
C1364 C1362 1.561 . S
C1365 C1362 1.526 . S
C1365 C1366 1.396 . S
C1365 C1370 1.390 . S
C1366 C1360 1.465 . S
C1366 C1365 1.396 . S
C1366 C1367 1.399 . S
C1367 H1353 0.929 . S
C1367 C1366 1.399 . S
C1367 C1368 1.385 . S
C1368 H1354 0.931 . S
C1368 C1367 1.385 . S
C1368 C1369 1.389 . S
C1369 C1368 1.389 . S
C1369 C1370 1.387 . S
C1370 H1355 0.930 . S
C1370 C1365 1.390 . S
C1370 C1369 1.387 . S
H1371 C1383 0.930 . S
H1372 C1385 0.930 . S
H1373 C1386 0.930 . S
H1374 C1390 0.959 . S
H1375 C1390 0.959 . S
H1376 C1390 0.961 . S
H1377 C1391 0.960 . S
H1378 C1391 0.961 . S
H1379 C1391 0.959 . S
H1380 C1394 0.929 . S
H1381 C1395 0.931 . S
H1382 C1397 0.930 . S
C1383 H1371 0.930 . S
C1383 C1384 1.399 1_556 S
C1383 C1388 1.399 . S
C1384 C1383 1.399 1_554 S
C1384 C1385 1.376 1_554 S
C1385 H1372 0.930 . S
C1385 C1384 1.376 1_556 S
C1385 C1386 1.388 . S
C1386 H1373 0.930 . S
C1386 C1385 1.388 . S
C1386 C1387 1.390 . S
C1387 C1386 1.390 . S
C1387 C1388 1.394 . S
C1387 C1393 1.465 . S
C1388 C1383 1.399 . S
C1388 C1387 1.394 . S
C1388 C1389 1.516 . S
C1389 C1388 1.516 . S
C1389 C1390 1.502 . S
C1389 C1391 1.561 . S
C1389 C1392 1.526 . S
C1390 H1374 0.959 . S
C1390 H1375 0.959 . S
C1390 H1376 0.961 . S
C1390 C1389 1.502 . S
C1391 H1377 0.960 . S
C1391 H1378 0.961 . S
C1391 H1379 0.959 . S
C1391 C1389 1.561 . S
C1392 C1389 1.526 . S
C1392 C1393 1.396 . S
C1392 C1397 1.390 . S
C1393 C1387 1.465 . S
C1393 C1392 1.396 . S
C1393 C1394 1.399 . S
C1394 H1380 0.929 . S
C1394 C1393 1.399 . S
C1394 C1395 1.385 . S
C1395 H1381 0.931 . S
C1395 C1394 1.385 . S
C1395 C1396 1.389 . S
C1396 C1395 1.389 . S
C1396 C1397 1.387 . S
C1397 H1382 0.930 . S
C1397 C1392 1.390 . S
C1397 C1396 1.387 . S
H1398 C1410 0.930 . S
H1399 C1412 0.930 . S
H1400 C1413 0.930 . S
H1401 C1417 0.959 . S
H1402 C1417 0.959 . S
H1403 C1417 0.961 . S
H1404 C1418 0.960 . S
H1405 C1418 0.961 . S
H1406 C1418 0.959 . S
H1407 C1421 0.929 . S
H1408 C1422 0.931 1_556 S
H1409 C1424 0.930 . S
C1410 H1398 0.930 . S
C1410 C1411 1.399 . S
C1410 C1415 1.399 . S
C1411 C1410 1.399 . S
C1411 C1412 1.376 . S
C1412 H1399 0.930 . S
C1412 C1411 1.376 . S
C1412 C1413 1.388 . S
C1413 H1400 0.930 . S
C1413 C1412 1.388 . S
C1413 C1414 1.390 . S
C1414 C1413 1.390 . S
C1414 C1415 1.394 . S
C1414 C1420 1.465 . S
C1415 C1410 1.399 . S
C1415 C1414 1.394 . S
C1415 C1416 1.516 . S
C1416 C1415 1.516 . S
C1416 C1417 1.502 . S
C1416 C1418 1.561 . S
C1416 C1419 1.526 . S
C1417 H1401 0.959 . S
C1417 H1402 0.959 . S
C1417 H1403 0.961 . S
C1417 C1416 1.502 . S
C1418 H1404 0.960 . S
C1418 H1405 0.961 . S
C1418 H1406 0.959 . S
C1418 C1416 1.561 . S
C1419 C1416 1.526 . S
C1419 C1420 1.396 . S
C1419 C1424 1.390 . S
C1420 C1414 1.465 . S
C1420 C1419 1.396 . S
C1420 C1421 1.399 . S
C1421 H1407 0.929 . S
C1421 C1420 1.399 . S
C1421 C1422 1.385 . S
C1422 H1408 0.931 1_554 S
C1422 C1421 1.385 . S
C1422 C1423 1.389 1_554 S
C1423 C1422 1.389 1_556 S
C1423 C1424 1.387 1_556 S
C1424 H1409 0.930 . S
C1424 C1419 1.390 . S
C1424 C1423 1.387 1_554 S
H1425 C1437 0.930 . S
H1426 C1439 0.930 . S
H1427 C1440 0.930 . S
H1428 C1444 0.959 . S
H1429 C1444 0.959 . S
H1430 C1444 0.961 . S
H1431 C1445 0.960 . S
H1432 C1445 0.961 . S
H1433 C1445 0.959 . S
H1434 C1448 0.929 . S
H1435 C1449 0.931 . S
H1436 C1451 0.930 . S
C1437 H1425 0.930 . S
C1437 C1438 1.399 . S
C1437 C1442 1.399 . S
C1438 C1437 1.399 . S
C1438 C1439 1.376 . S
C1439 H1426 0.930 . S
C1439 C1438 1.376 . S
C1439 C1440 1.388 . S
C1440 H1427 0.930 . S
C1440 C1439 1.388 . S
C1440 C1441 1.390 . S
C1441 C1440 1.390 . S
C1441 C1442 1.394 . S
C1441 C1447 1.465 . S
C1442 C1437 1.399 . S
C1442 C1441 1.394 . S
C1442 C1443 1.516 . S
C1443 C1442 1.516 . S
C1443 C1444 1.502 . S
C1443 C1445 1.561 . S
C1443 C1446 1.526 . S
C1444 H1428 0.959 . S
C1444 H1429 0.959 . S
C1444 H1430 0.961 . S
C1444 C1443 1.502 . S
C1445 H1431 0.960 . S
C1445 H1432 0.961 . S
C1445 H1433 0.959 . S
C1445 C1443 1.561 . S
C1446 C1443 1.526 . S
C1446 C1447 1.396 . S
C1446 C1451 1.390 . S
C1447 C1441 1.465 . S
C1447 C1446 1.396 . S
C1447 C1448 1.399 . S
C1448 H1434 0.929 . S
C1448 C1447 1.399 . S
C1448 C1449 1.385 . S
C1449 H1435 0.931 . S
C1449 C1448 1.385 . S
C1449 C1450 1.389 . S
C1450 C1449 1.389 . S
C1450 C1451 1.387 . S
C1451 H1436 0.930 . S
C1451 C1446 1.390 . S
C1451 C1450 1.387 . S
H1452 C1464 0.930 . S
H1453 C1466 0.930 . S
H1454 C1467 0.930 . S
H1455 C1471 0.959 . S
H1456 C1471 0.959 . S
H1457 C1471 0.961 . S
H1458 C1472 0.960 . S
H1459 C1472 0.961 . S
H1460 C1472 0.959 . S
H1461 C1475 0.929 . S
H1462 C1476 0.931 . S
H1463 C1478 0.930 . S
C1464 H1452 0.930 . S
C1464 C1465 1.399 . S
C1464 C1469 1.399 . S
C1465 C1464 1.399 . S
C1465 C1466 1.376 . S
C1466 H1453 0.930 . S
C1466 C1465 1.376 . S
C1466 C1467 1.388 . S
C1467 H1454 0.930 . S
C1467 C1466 1.388 . S
C1467 C1468 1.390 . S
C1468 C1467 1.390 . S
C1468 C1469 1.394 . S
C1468 C1474 1.465 . S
C1469 C1464 1.399 . S
C1469 C1468 1.394 . S
C1469 C1470 1.516 . S
C1470 C1469 1.516 . S
C1470 C1471 1.502 . S
C1470 C1472 1.561 . S
C1470 C1473 1.526 . S
C1471 H1455 0.959 . S
C1471 H1456 0.959 . S
C1471 H1457 0.961 . S
C1471 C1470 1.502 . S
C1472 H1458 0.960 . S
C1472 H1459 0.961 . S
C1472 H1460 0.959 . S
C1472 C1470 1.561 . S
C1473 C1470 1.526 . S
C1473 C1474 1.396 . S
C1473 C1478 1.390 . S
C1474 C1468 1.465 . S
C1474 C1473 1.396 . S
C1474 C1475 1.399 . S
C1475 H1461 0.929 . S
C1475 C1474 1.399 . S
C1475 C1476 1.385 . S
C1476 H1462 0.931 . S
C1476 C1475 1.385 . S
C1476 C1477 1.389 . S
C1477 C1476 1.389 . S
C1477 C1478 1.387 . S
C1478 H1463 0.930 . S
C1478 C1473 1.390 . S
C1478 C1477 1.387 . S
H1479 C1491 0.930 . S
H1480 C1493 0.930 . S
H1481 C1494 0.930 . S
H1482 C1498 0.959 . S
H1483 C1498 0.959 . S
H1484 C1498 0.961 . S
H1485 C1499 0.960 . S
H1486 C1499 0.961 . S
H1487 C1499 0.959 . S
H1488 C1502 0.929 . S
H1489 C1503 0.931 . S
H1490 C1505 0.930 . S
C1491 H1479 0.930 . S
C1491 C1492 1.399 . S
C1491 C1496 1.399 . S
C1492 C1491 1.399 . S
C1492 C1493 1.376 . S
C1493 H1480 0.930 . S
C1493 C1492 1.376 . S
C1493 C1494 1.388 . S
C1494 H1481 0.930 . S
C1494 C1493 1.388 . S
C1494 C1495 1.390 . S
C1495 C1494 1.390 . S
C1495 C1496 1.394 . S
C1495 C1501 1.465 . S
C1496 C1491 1.399 . S
C1496 C1495 1.394 . S
C1496 C1497 1.516 . S
C1497 C1496 1.516 . S
C1497 C1498 1.502 . S
C1497 C1499 1.561 . S
C1497 C1500 1.526 . S
C1498 H1482 0.959 . S
C1498 H1483 0.959 . S
C1498 H1484 0.961 . S
C1498 C1497 1.502 . S
C1499 H1485 0.960 . S
C1499 H1486 0.961 . S
C1499 H1487 0.959 . S
C1499 C1497 1.561 . S
C1500 C1497 1.526 . S
C1500 C1501 1.396 . S
C1500 C1505 1.390 . S
C1501 C1495 1.465 . S
C1501 C1500 1.396 . S
C1501 C1502 1.399 . S
C1502 H1488 0.929 . S
C1502 C1501 1.399 . S
C1502 C1503 1.385 . S
C1503 H1489 0.931 . S
C1503 C1502 1.385 . S
C1503 C1504 1.389 . S
C1504 C1503 1.389 . S
C1504 C1505 1.387 . S
C1505 H1490 0.930 . S
C1505 C1500 1.390 . S
C1505 C1504 1.387 . S
H1506 C1518 0.930 . S
H1507 C1520 0.930 . S
H1508 C1521 0.930 . S
H1509 C1525 0.959 . S
H1510 C1525 0.959 . S
H1511 C1525 0.961 . S
H1512 C1526 0.960 . S
H1513 C1526 0.961 . S
H1514 C1526 0.959 . S
H1515 C1529 0.929 . S
H1516 C1530 0.931 . S
H1517 C1532 0.930 . S
C1518 H1506 0.930 . S
C1518 C1519 1.399 . S
C1518 C1523 1.399 . S
C1519 C1518 1.399 . S
C1519 C1520 1.376 . S
C1520 H1507 0.930 . S
C1520 C1519 1.376 . S
C1520 C1521 1.388 . S
C1521 H1508 0.930 . S
C1521 C1520 1.388 . S
C1521 C1522 1.390 . S
C1522 C1521 1.390 . S
C1522 C1523 1.394 . S
C1522 C1528 1.465 . S
C1523 C1518 1.399 . S
C1523 C1522 1.394 . S
C1523 C1524 1.516 . S
C1524 C1523 1.516 . S
C1524 C1525 1.502 . S
C1524 C1526 1.561 . S
C1524 C1527 1.526 . S
C1525 H1509 0.959 . S
C1525 H1510 0.959 . S
C1525 H1511 0.961 . S
C1525 C1524 1.502 . S
C1526 H1512 0.960 . S
C1526 H1513 0.961 . S
C1526 H1514 0.959 . S
C1526 C1524 1.561 . S
C1527 C1524 1.526 . S
C1527 C1528 1.396 . S
C1527 C1532 1.390 . S
C1528 C1522 1.465 . S
C1528 C1527 1.396 . S
C1528 C1529 1.399 . S
C1529 H1515 0.929 . S
C1529 C1528 1.399 . S
C1529 C1530 1.385 1_556 S
C1530 H1516 0.931 . S
C1530 C1529 1.385 1_554 S
C1530 C1531 1.389 . S
C1531 C1530 1.389 . S
C1531 C1532 1.387 1_554 S
C1532 H1517 0.930 . S
C1532 C1527 1.390 . S
C1532 C1531 1.387 1_556 S
H1533 C1545 0.930 . S
H1534 C1547 0.930 . S
H1535 C1548 0.930 . S
H1536 C1552 0.959 . S
H1537 C1552 0.959 . S
H1538 C1552 0.961 . S
H1539 C1553 0.960 . S
H1540 C1553 0.961 . S
H1541 C1553 0.959 . S
H1542 C1556 0.929 . S
H1543 C1557 0.931 . S
H1544 C1559 0.930 . S
C1545 H1533 0.930 . S
C1545 C1546 1.399 1_554 S
C1545 C1550 1.399 . S
C1546 C1545 1.399 1_556 S
C1546 C1547 1.376 . S
C1547 H1534 0.930 . S
C1547 C1546 1.376 . S
C1547 C1548 1.388 1_556 S
C1548 H1535 0.930 . S
C1548 C1547 1.388 1_554 S
C1548 C1549 1.390 . S
C1549 C1548 1.390 . S
C1549 C1550 1.394 . S
C1549 C1555 1.465 . S
C1550 C1545 1.399 . S
C1550 C1549 1.394 . S
C1550 C1551 1.516 . S
C1551 C1550 1.516 . S
C1551 C1552 1.502 . S
C1551 C1553 1.561 . S
C1551 C1554 1.526 . S
C1552 H1536 0.959 . S
C1552 H1537 0.959 . S
C1552 H1538 0.961 . S
C1552 C1551 1.502 . S
C1553 H1539 0.960 . S
C1553 H1540 0.961 . S
C1553 H1541 0.959 . S
C1553 C1551 1.561 . S
C1554 C1551 1.526 . S
C1554 C1555 1.396 . S
C1554 C1559 1.390 . S
C1555 C1549 1.465 . S
C1555 C1554 1.396 . S
C1555 C1556 1.399 . S
C1556 H1542 0.929 . S
C1556 C1555 1.399 . S
C1556 C1557 1.385 . S
C1557 H1543 0.931 . S
C1557 C1556 1.385 . S
C1557 C1558 1.389 . S
C1558 C1557 1.389 . S
C1558 C1559 1.387 . S
C1559 H1544 0.930 . S
C1559 C1554 1.390 . S
C1559 C1558 1.387 . S
H1560 C1572 0.930 . S
H1561 C1574 0.930 . S
H1562 C1575 0.930 . S
H1563 C1579 0.959 . S
H1564 C1579 0.959 . S
H1565 C1579 0.961 . S
H1566 C1580 0.960 . S
H1567 C1580 0.961 . S
H1568 C1580 0.959 . S
H1569 C1583 0.929 . S
H1570 C1584 0.931 . S
H1571 C1586 0.930 . S
C1572 H1560 0.930 . S
C1572 C1573 1.399 . S
C1572 C1577 1.399 . S
C1573 C1572 1.399 . S
C1573 C1574 1.376 . S
C1574 H1561 0.930 . S
C1574 C1573 1.376 . S
C1574 C1575 1.388 . S
C1575 H1562 0.930 . S
C1575 C1574 1.388 . S
C1575 C1576 1.390 . S
C1576 C1575 1.390 . S
C1576 C1577 1.394 . S
C1576 C1582 1.465 . S
C1577 C1572 1.399 . S
C1577 C1576 1.394 . S
C1577 C1578 1.516 . S
C1578 C1577 1.516 . S
C1578 C1579 1.502 . S
C1578 C1580 1.561 . S
C1578 C1581 1.526 . S
C1579 H1563 0.959 . S
C1579 H1564 0.959 . S
C1579 H1565 0.961 . S
C1579 C1578 1.502 . S
C1580 H1566 0.960 . S
C1580 H1567 0.961 . S
C1580 H1568 0.959 . S
C1580 C1578 1.561 . S
C1581 C1578 1.526 . S
C1581 C1582 1.396 . S
C1581 C1586 1.390 . S
C1582 C1576 1.465 . S
C1582 C1581 1.396 . S
C1582 C1583 1.399 . S
C1583 H1569 0.929 . S
C1583 C1582 1.399 . S
C1583 C1584 1.385 . S
C1584 H1570 0.931 . S
C1584 C1583 1.385 . S
C1584 C1585 1.389 . S
C1585 C1584 1.389 . S
C1585 C1586 1.387 . S
C1586 H1571 0.930 . S
C1586 C1581 1.390 . S
C1586 C1585 1.387 . S
H1587 C1599 0.930 . S
H1588 C1601 0.930 . S
H1589 C1602 0.930 . S
H1590 C1606 0.959 . S
H1591 C1606 0.959 . S
H1592 C1606 0.961 . S
H1593 C1607 0.960 . S
H1594 C1607 0.961 . S
H1595 C1607 0.959 . S
H1596 C1610 0.929 . S
H1597 C1611 0.931 . S
H1598 C1613 0.930 . S
C1599 H1587 0.930 . S
C1599 C1600 1.399 . S
C1599 C1604 1.399 . S
C1600 C1599 1.399 . S
C1600 C1601 1.376 . S
C1601 H1588 0.930 . S
C1601 C1600 1.376 . S
C1601 C1602 1.388 . S
C1602 H1589 0.930 . S
C1602 C1601 1.388 . S
C1602 C1603 1.390 . S
C1603 C1602 1.390 . S
C1603 C1604 1.394 . S
C1603 C1609 1.465 . S
C1604 C1599 1.399 . S
C1604 C1603 1.394 . S
C1604 C1605 1.516 . S
C1605 C1604 1.516 . S
C1605 C1606 1.502 . S
C1605 C1607 1.561 . S
C1605 C1608 1.526 . S
C1606 H1590 0.959 . S
C1606 H1591 0.959 . S
C1606 H1592 0.961 . S
C1606 C1605 1.502 . S
C1607 H1593 0.960 . S
C1607 H1594 0.961 . S
C1607 H1595 0.959 . S
C1607 C1605 1.561 . S
C1608 C1605 1.526 . S
C1608 C1609 1.396 . S
C1608 C1613 1.390 . S
C1609 C1603 1.465 . S
C1609 C1608 1.396 . S
C1609 C1610 1.399 . S
C1610 H1596 0.929 . S
C1610 C1609 1.399 . S
C1610 C1611 1.385 1_554 S
C1611 H1597 0.931 . S
C1611 C1610 1.385 1_556 S
C1611 C1612 1.389 . S
C1612 C1611 1.389 . S
C1612 C1613 1.387 1_556 S
C1613 H1598 0.930 . S
C1613 C1608 1.390 . S
C1613 C1612 1.387 1_554 S
H1614 C1626 0.930 . S
H1615 C1628 0.930 1_554 S
H1616 C1629 0.930 . S
H1617 C1633 0.959 . S
H1618 C1633 0.959 . S
H1619 C1633 0.961 . S
H1620 C1634 0.960 . S
H1621 C1634 0.961 . S
H1622 C1634 0.959 . S
H1623 C1637 0.929 . S
H1624 C1638 0.931 . S
H1625 C1640 0.930 . S
C1626 H1614 0.930 . S
C1626 C1627 1.399 1_556 S
C1626 C1631 1.399 . S
C1627 C1626 1.399 1_554 S
C1627 C1628 1.376 1_554 S
C1628 H1615 0.930 1_556 S
C1628 C1627 1.376 1_556 S
C1628 C1629 1.388 . S
C1629 H1616 0.930 . S
C1629 C1628 1.388 . S
C1629 C1630 1.390 . S
C1630 C1629 1.390 . S
C1630 C1631 1.394 . S
C1630 C1636 1.465 . S
C1631 C1626 1.399 . S
C1631 C1630 1.394 . S
C1631 C1632 1.516 . S
C1632 C1631 1.516 . S
C1632 C1633 1.502 . S
C1632 C1634 1.561 . S
C1632 C1635 1.526 . S
C1633 H1617 0.959 . S
C1633 H1618 0.959 . S
C1633 H1619 0.961 . S
C1633 C1632 1.502 . S
C1634 H1620 0.960 . S
C1634 H1621 0.961 . S
C1634 H1622 0.959 . S
C1634 C1632 1.561 . S
C1635 C1632 1.526 . S
C1635 C1636 1.396 . S
C1635 C1640 1.390 . S
C1636 C1630 1.465 . S
C1636 C1635 1.396 . S
C1636 C1637 1.399 . S
C1637 H1623 0.929 . S
C1637 C1636 1.399 . S
C1637 C1638 1.385 . S
C1638 H1624 0.931 . S
C1638 C1637 1.385 . S
C1638 C1639 1.389 . S
C1639 C1638 1.389 . S
C1639 C1640 1.387 . S
C1640 H1625 0.930 . S
C1640 C1635 1.390 . S
C1640 C1639 1.387 . S
H1641 C1653 0.930 . S
H1642 C1655 0.930 . S
H1643 C1656 0.930 . S
H1644 C1660 0.959 . S
H1645 C1660 0.959 . S
H1646 C1660 0.961 . S
H1647 C1661 0.960 . S
H1648 C1661 0.961 . S
H1649 C1661 0.959 . S
H1650 C1664 0.929 . S
H1651 C1665 0.931 . S
H1652 C1667 0.930 . S
C1653 H1641 0.930 . S
C1653 C1654 1.399 . S
C1653 C1658 1.399 . S
C1654 C1653 1.399 . S
C1654 C1655 1.376 . S
C1655 H1642 0.930 . S
C1655 C1654 1.376 . S
C1655 C1656 1.388 . S
C1656 H1643 0.930 . S
C1656 C1655 1.388 . S
C1656 C1657 1.390 . S
C1657 C1656 1.390 . S
C1657 C1658 1.394 . S
C1657 C1663 1.465 . S
C1658 C1653 1.399 . S
C1658 C1657 1.394 . S
C1658 C1659 1.516 . S
C1659 C1658 1.516 . S
C1659 C1660 1.502 . S
C1659 C1661 1.561 . S
C1659 C1662 1.526 . S
C1660 H1644 0.959 . S
C1660 H1645 0.959 . S
C1660 H1646 0.961 . S
C1660 C1659 1.502 . S
C1661 H1647 0.960 . S
C1661 H1648 0.961 . S
C1661 H1649 0.959 . S
C1661 C1659 1.561 . S
C1662 C1659 1.526 . S
C1662 C1663 1.396 . S
C1662 C1667 1.390 . S
C1663 C1657 1.465 . S
C1663 C1662 1.396 . S
C1663 C1664 1.399 . S
C1664 H1650 0.929 . S
C1664 C1663 1.399 . S
C1664 C1665 1.385 . S
C1665 H1651 0.931 . S
C1665 C1664 1.385 . S
C1665 C1666 1.389 . S
C1666 C1665 1.389 . S
C1666 C1667 1.387 . S
C1667 H1652 0.930 . S
C1667 C1662 1.390 . S
C1667 C1666 1.387 . S
H1668 C1680 0.930 . S
H1669 C1682 0.930 . S
H1670 C1683 0.930 . S
H1671 C1687 0.959 . S
H1672 C1687 0.959 . S
H1673 C1687 0.961 . S
H1674 C1688 0.960 . S
H1675 C1688 0.961 . S
H1676 C1688 0.959 . S
H1677 C1691 0.929 . S
H1678 C1692 0.931 . S
H1679 C1694 0.930 . S
C1680 H1668 0.930 . S
C1680 C1681 1.399 . S
C1680 C1685 1.399 . S
C1681 C1680 1.399 . S
C1681 C1682 1.376 . S
C1682 H1669 0.930 . S
C1682 C1681 1.376 . S
C1682 C1683 1.388 . S
C1683 H1670 0.930 . S
C1683 C1682 1.388 . S
C1683 C1684 1.390 . S
C1684 C1683 1.390 . S
C1684 C1685 1.394 . S
C1684 C1690 1.465 . S
C1685 C1680 1.399 . S
C1685 C1684 1.394 . S
C1685 C1686 1.516 . S
C1686 C1685 1.516 . S
C1686 C1687 1.502 . S
C1686 C1688 1.561 . S
C1686 C1689 1.526 . S
C1687 H1671 0.959 . S
C1687 H1672 0.959 . S
C1687 H1673 0.961 . S
C1687 C1686 1.502 . S
C1688 H1674 0.960 . S
C1688 H1675 0.961 . S
C1688 H1676 0.959 . S
C1688 C1686 1.561 . S
C1689 C1686 1.526 . S
C1689 C1690 1.396 . S
C1689 C1694 1.390 . S
C1690 C1684 1.465 . S
C1690 C1689 1.396 . S
C1690 C1691 1.399 . S
C1691 H1677 0.929 . S
C1691 C1690 1.399 . S
C1691 C1692 1.385 . S
C1692 H1678 0.931 . S
C1692 C1691 1.385 . S
C1692 C1693 1.389 . S
C1693 C1692 1.389 . S
C1693 C1694 1.387 . S
C1694 H1679 0.930 . S
C1694 C1689 1.390 . S
C1694 C1693 1.387 . S
H1695 C1707 0.930 . S
H1696 C1709 0.930 . S
H1697 C1710 0.930 . S
H1698 C1714 0.959 . S
H1699 C1714 0.959 . S
H1700 C1714 0.961 . S
H1701 C1715 0.960 . S
H1702 C1715 0.961 . S
H1703 C1715 0.959 . S
H1704 C1718 0.929 . S
H1705 C1719 0.931 . S
H1706 C1721 0.930 . S
C1707 H1695 0.930 . S
C1707 C1708 1.399 . S
C1707 C1712 1.399 . S
C1708 C1707 1.399 . S
C1708 C1709 1.376 . S
C1709 H1696 0.930 . S
C1709 C1708 1.376 . S
C1709 C1710 1.388 . S
C1710 H1697 0.930 . S
C1710 C1709 1.388 . S
C1710 C1711 1.390 . S
C1711 C1710 1.390 . S
C1711 C1712 1.394 . S
C1711 C1717 1.465 . S
C1712 C1707 1.399 . S
C1712 C1711 1.394 . S
C1712 C1713 1.516 . S
C1713 C1712 1.516 . S
C1713 C1714 1.502 . S
C1713 C1715 1.561 . S
C1713 C1716 1.526 . S
C1714 H1698 0.959 . S
C1714 H1699 0.959 . S
C1714 H1700 0.961 . S
C1714 C1713 1.502 . S
C1715 H1701 0.960 . S
C1715 H1702 0.961 . S
C1715 H1703 0.959 . S
C1715 C1713 1.561 . S
C1716 C1713 1.526 . S
C1716 C1717 1.396 . S
C1716 C1721 1.390 . S
C1717 C1711 1.465 . S
C1717 C1716 1.396 . S
C1717 C1718 1.399 . S
C1718 H1704 0.929 . S
C1718 C1717 1.399 . S
C1718 C1719 1.385 . S
C1719 H1705 0.931 . S
C1719 C1718 1.385 . S
C1719 C1720 1.389 . S
C1720 C1719 1.389 . S
C1720 C1721 1.387 . S
C1721 H1706 0.930 . S
C1721 C1716 1.390 . S
C1721 C1720 1.387 . S
H1722 C1734 0.930 . S
H1723 C1736 0.930 . S
H1724 C1737 0.930 . S
H1725 C1741 0.959 . S
H1726 C1741 0.959 . S
H1727 C1741 0.961 . S
H1728 C1742 0.960 . S
H1729 C1742 0.961 . S
H1730 C1742 0.959 . S
H1731 C1745 0.929 . S
H1732 C1746 0.931 . S
H1733 C1748 0.930 . S
C1734 H1722 0.930 . S
C1734 C1735 1.399 . S
C1734 C1739 1.399 . S
C1735 C1734 1.399 . S
C1735 C1736 1.376 . S
C1736 H1723 0.930 . S
C1736 C1735 1.376 . S
C1736 C1737 1.388 . S
C1737 H1724 0.930 . S
C1737 C1736 1.388 . S
C1737 C1738 1.390 . S
C1738 C1737 1.390 . S
C1738 C1739 1.394 . S
C1738 C1744 1.465 . S
C1739 C1734 1.399 . S
C1739 C1738 1.394 . S
C1739 C1740 1.516 . S
C1740 C1739 1.516 . S
C1740 C1741 1.502 . S
C1740 C1742 1.561 . S
C1740 C1743 1.526 . S
C1741 H1725 0.959 . S
C1741 H1726 0.959 . S
C1741 H1727 0.961 . S
C1741 C1740 1.502 . S
C1742 H1728 0.960 . S
C1742 H1729 0.961 . S
C1742 H1730 0.959 . S
C1742 C1740 1.561 . S
C1743 C1740 1.526 . S
C1743 C1744 1.396 . S
C1743 C1748 1.390 . S
C1744 C1738 1.465 . S
C1744 C1743 1.396 . S
C1744 C1745 1.399 . S
C1745 H1731 0.929 . S
C1745 C1744 1.399 . S
C1745 C1746 1.385 . S
C1746 H1732 0.931 . S
C1746 C1745 1.385 . S
C1746 C1747 1.389 . S
C1747 C1746 1.389 . S
C1747 C1748 1.386 . S
C1748 H1733 0.930 . S
C1748 C1743 1.390 . S
C1748 C1747 1.386 . S
H1749 C1761 0.930 . S
H1750 C1763 0.930 . S
H1751 C1764 0.930 . S
H1752 C1768 0.959 . S
H1753 C1768 0.959 . S
H1754 C1768 0.961 . S
H1755 C1769 0.960 . S
H1756 C1769 0.961 . S
H1757 C1769 0.959 . S
H1758 C1772 0.929 . S
H1759 C1773 0.931 . S
H1760 C1775 0.930 . S
C1761 H1749 0.930 . S
C1761 C1762 1.399 1_556 S
C1761 C1766 1.399 . S
C1762 C1761 1.399 1_554 S
C1762 C1763 1.376 1_554 S
C1763 H1750 0.930 . S
C1763 C1762 1.376 1_556 S
C1763 C1764 1.388 . S
C1764 H1751 0.930 . S
C1764 C1763 1.388 . S
C1764 C1765 1.390 . S
C1765 C1764 1.390 . S
C1765 C1766 1.394 . S
C1765 C1771 1.465 . S
C1766 C1761 1.399 . S
C1766 C1765 1.394 . S
C1766 C1767 1.516 . S
C1767 C1766 1.516 . S
C1767 C1768 1.502 . S
C1767 C1769 1.561 . S
C1767 C1770 1.526 . S
C1768 H1752 0.959 . S
C1768 H1753 0.959 . S
C1768 H1754 0.961 . S
C1768 C1767 1.502 . S
C1769 H1755 0.960 . S
C1769 H1756 0.961 . S
C1769 H1757 0.959 . S
C1769 C1767 1.561 . S
C1770 C1767 1.526 . S
C1770 C1771 1.396 . S
C1770 C1775 1.390 . S
C1771 C1765 1.465 . S
C1771 C1770 1.396 . S
C1771 C1772 1.399 . S
C1772 H1758 0.929 . S
C1772 C1771 1.399 . S
C1772 C1773 1.385 . S
C1773 H1759 0.931 . S
C1773 C1772 1.385 . S
C1773 C1774 1.389 . S
C1774 C1773 1.389 . S
C1774 C1775 1.387 . S
C1775 H1760 0.930 . S
C1775 C1770 1.390 . S
C1775 C1774 1.387 . S
H1776 C1788 0.930 . S
H1777 C1790 0.930 . S
H1778 C1791 0.930 . S
H1779 C1795 0.959 . S
H1780 C1795 0.959 . S
H1781 C1795 0.961 . S
H1782 C1796 0.960 . S
H1783 C1796 0.961 . S
H1784 C1796 0.959 . S
H1785 C1799 0.929 . S
H1786 C1800 0.931 . S
H1787 C1802 0.930 . S
C1788 H1776 0.930 . S
C1788 C1789 1.399 . S
C1788 C1793 1.399 . S
C1789 C1788 1.399 . S
C1789 C1790 1.376 . S
C1790 H1777 0.930 . S
C1790 C1789 1.376 . S
C1790 C1791 1.388 . S
C1791 H1778 0.930 . S
C1791 C1790 1.388 . S
C1791 C1792 1.390 . S
C1792 C1791 1.390 . S
C1792 C1793 1.394 . S
C1792 C1798 1.465 . S
C1793 C1788 1.399 . S
C1793 C1792 1.394 . S
C1793 C1794 1.516 . S
C1794 C1793 1.516 . S
C1794 C1795 1.502 . S
C1794 C1796 1.561 . S
C1794 C1797 1.526 . S
C1795 H1779 0.959 . S
C1795 H1780 0.959 . S
C1795 H1781 0.961 . S
C1795 C1794 1.502 . S
C1796 H1782 0.960 . S
C1796 H1783 0.961 . S
C1796 H1784 0.959 . S
C1796 C1794 1.561 . S
C1797 C1794 1.526 . S
C1797 C1798 1.396 . S
C1797 C1802 1.390 . S
C1798 C1792 1.465 . S
C1798 C1797 1.396 . S
C1798 C1799 1.399 . S
C1799 H1785 0.929 . S
C1799 C1798 1.399 . S
C1799 C1800 1.385 . S
C1800 H1786 0.931 . S
C1800 C1799 1.385 . S
C1800 C1801 1.389 . S
C1801 C1800 1.389 . S
C1801 C1802 1.387 . S
C1802 H1787 0.930 . S
C1802 C1797 1.390 . S
C1802 C1801 1.387 . S
H1803 C1815 0.930 . S
H1804 C1817 0.930 . S
H1805 C1818 0.930 . S
H1806 C1822 0.959 . S
H1807 C1822 0.959 . S
H1808 C1822 0.961 . S
H1809 C1823 0.960 . S
H1810 C1823 0.961 . S
H1811 C1823 0.959 . S
H1812 C1826 0.929 . S
H1813 C1827 0.931 . S
H1814 C1829 0.930 . S
C1815 H1803 0.930 . S
C1815 C1816 1.399 . S
C1815 C1820 1.399 . S
C1816 C1815 1.399 . S
C1816 C1817 1.376 . S
C1817 H1804 0.930 . S
C1817 C1816 1.376 . S
C1817 C1818 1.388 . S
C1818 H1805 0.930 . S
C1818 C1817 1.388 . S
C1818 C1819 1.390 . S
C1819 C1818 1.390 . S
C1819 C1820 1.394 . S
C1819 C1825 1.465 . S
C1820 C1815 1.399 . S
C1820 C1819 1.394 . S
C1820 C1821 1.516 . S
C1821 C1820 1.516 . S
C1821 C1822 1.502 . S
C1821 C1823 1.561 . S
C1821 C1824 1.526 . S
C1822 H1806 0.959 . S
C1822 H1807 0.959 . S
C1822 H1808 0.961 . S
C1822 C1821 1.502 . S
C1823 H1809 0.960 . S
C1823 H1810 0.961 . S
C1823 H1811 0.959 . S
C1823 C1821 1.561 . S
C1824 C1821 1.526 . S
C1824 C1825 1.396 . S
C1824 C1829 1.390 . S
C1825 C1819 1.465 . S
C1825 C1824 1.396 . S
C1825 C1826 1.399 . S
C1826 H1812 0.929 . S
C1826 C1825 1.399 . S
C1826 C1827 1.385 . S
C1827 H1813 0.931 . S
C1827 C1826 1.385 . S
C1827 C1828 1.389 . S
C1828 C1827 1.389 . S
C1828 C1829 1.387 . S
C1829 H1814 0.930 . S
C1829 C1824 1.390 . S
C1829 C1828 1.387 . S
H1830 C1842 0.930 . S
H1831 C1844 0.930 . S
H1832 C1845 0.930 . S
H1833 C1849 0.959 . S
H1834 C1849 0.959 . S
H1835 C1849 0.961 . S
H1836 C1850 0.960 . S
H1837 C1850 0.961 . S
H1838 C1850 0.959 . S
H1839 C1853 0.929 . S
H1840 C1854 0.931 . S
H1841 C1856 0.930 . S
C1842 H1830 0.930 . S
C1842 C1843 1.399 . S
C1842 C1847 1.399 . S
C1843 C1842 1.399 . S
C1843 C1844 1.376 . S
C1844 H1831 0.930 . S
C1844 C1843 1.376 . S
C1844 C1845 1.388 . S
C1845 H1832 0.930 . S
C1845 C1844 1.388 . S
C1845 C1846 1.390 . S
C1846 C1845 1.390 . S
C1846 C1847 1.394 . S
C1846 C1852 1.465 . S
C1847 C1842 1.399 . S
C1847 C1846 1.394 . S
C1847 C1848 1.516 . S
C1848 C1847 1.516 . S
C1848 C1849 1.502 . S
C1848 C1850 1.561 . S
C1848 C1851 1.526 . S
C1849 H1833 0.959 . S
C1849 H1834 0.959 . S
C1849 H1835 0.961 . S
C1849 C1848 1.502 . S
C1850 H1836 0.960 . S
C1850 H1837 0.961 . S
C1850 H1838 0.959 . S
C1850 C1848 1.561 . S
C1851 C1848 1.526 . S
C1851 C1852 1.396 . S
C1851 C1856 1.390 . S
C1852 C1846 1.465 . S
C1852 C1851 1.396 . S
C1852 C1853 1.399 . S
C1853 H1839 0.929 . S
C1853 C1852 1.399 . S
C1853 C1854 1.385 . S
C1854 H1840 0.931 . S
C1854 C1853 1.385 . S
C1854 C1855 1.389 . S
C1855 C1854 1.389 . S
C1855 C1856 1.387 . S
C1856 H1841 0.930 . S
C1856 C1851 1.390 . S
C1856 C1855 1.387 . S
H1857 C1869 0.930 . S
H1858 C1871 0.930 . S
H1859 C1872 0.930 1_554 S
H1860 C1876 0.961 . S
H1861 C1876 0.969 . S
H1862 C1876 0.950 1_655 S
H1863 C1877 0.975 . S
H1864 C1877 0.948 1_455 S
H1865 C1877 0.956 1_455 S
H1866 C1880 0.929 1_554 S
H1867 C1881 0.931 . S
H1868 C1883 0.930 . S
C1869 H1857 0.930 . S
C1869 C1870 1.399 . S
C1869 C1874 1.399 . S
C1870 C1869 1.399 . S
C1870 C1871 1.376 . S
C1871 H1858 0.930 . S
C1871 C1870 1.376 . S
C1871 C1872 1.388 . S
C1872 H1859 0.930 1_556 S
C1872 C1871 1.388 . S
C1872 C1873 1.390 . S
C1873 C1872 1.390 . S
C1873 C1874 1.394 . S
C1873 C1879 1.465 1_655 S
C1874 C1869 1.399 . S
C1874 C1873 1.394 . S
C1874 C1875 1.521 . S
C1875 C1874 1.521 . S
C1875 C1876 1.501 1_655 S
C1875 C1877 1.561 . S
C1875 C1878 1.521 1_655 S
C1876 H1860 0.961 . S
C1876 H1861 0.969 . S
C1876 H1862 0.950 1_455 S
C1876 C1875 1.501 1_455 S
C1877 H1863 0.975 . S
C1877 H1864 0.948 1_655 S
C1877 H1865 0.956 1_655 S
C1877 C1875 1.561 . S
C1878 C1875 1.521 1_455 S
C1878 C1879 1.396 . S
C1878 C1883 1.390 . S
C1879 C1873 1.465 1_455 S
C1879 C1878 1.396 . S
C1879 C1880 1.399 . S
C1880 H1866 0.929 1_556 S
C1880 C1879 1.399 . S
C1880 C1881 1.385 . S
C1881 H1867 0.931 . S
C1881 C1880 1.385 . S
C1881 C1882 1.389 . S
C1882 C1881 1.389 . S
C1882 C1883 1.387 . S
C1883 H1868 0.930 . S
C1883 C1878 1.390 . S
C1883 C1882 1.387 . S
H1884 C1896 0.930 . S
H1885 C1898 0.930 . S
H1886 C1899 0.930 . S
H1887 C1903 0.959 . S
H1888 C1903 0.959 . S
H1889 C1903 0.961 . S
H1890 C1904 0.960 . S
H1891 C1904 0.961 . S
H1892 C1904 0.959 . S
H1893 C1907 0.929 . S
H1894 C1908 0.931 . S
H1895 C1910 0.930 . S
C1896 H1884 0.930 . S
C1896 C1897 1.399 . S
C1896 C1901 1.399 . S
C1897 C1896 1.399 . S
C1897 C1898 1.376 . S
C1898 H1885 0.930 . S
C1898 C1897 1.376 . S
C1898 C1899 1.388 . S
C1899 H1886 0.930 . S
C1899 C1898 1.388 . S
C1899 C1900 1.390 . S
C1900 C1899 1.390 . S
C1900 C1901 1.394 . S
C1900 C1906 1.465 . S
C1901 C1896 1.399 . S
C1901 C1900 1.394 . S
C1901 C1902 1.516 . S
C1902 C1901 1.516 . S
C1902 C1903 1.502 . S
C1902 C1904 1.561 . S
C1902 C1905 1.526 . S
C1903 H1887 0.959 . S
C1903 H1888 0.959 . S
C1903 H1889 0.961 . S
C1903 C1902 1.502 . S
C1904 H1890 0.960 . S
C1904 H1891 0.961 . S
C1904 H1892 0.959 . S
C1904 C1902 1.561 . S
C1905 C1902 1.526 . S
C1905 C1906 1.396 . S
C1905 C1910 1.390 . S
C1906 C1900 1.465 . S
C1906 C1905 1.396 . S
C1906 C1907 1.399 . S
C1907 H1893 0.929 . S
C1907 C1906 1.399 . S
C1907 C1908 1.385 . S
C1908 H1894 0.931 . S
C1908 C1907 1.385 . S
C1908 C1909 1.389 . S
C1909 C1908 1.389 . S
C1909 C1910 1.387 . S
C1910 H1895 0.930 . S
C1910 C1905 1.390 . S
C1910 C1909 1.387 . S
H1911 C1923 0.930 . S
H1912 C1925 0.930 . S
H1913 C1926 0.930 . S
H1914 C1930 0.956 1_655 S
H1915 C1930 0.943 1_655 S
H1916 C1930 0.978 . S
H1917 C1931 0.993 . S
H1918 C1931 0.932 1_655 S
H1919 C1931 0.956 1_655 S
H1920 C1934 0.929 . S
H1921 C1935 0.931 . S
H1922 C1937 0.930 . S
C1923 H1911 0.930 . S
C1923 C1924 1.399 . S
C1923 C1928 1.399 . S
C1924 C1923 1.399 . S
C1924 C1925 1.376 . S
C1925 H1912 0.930 . S
C1925 C1924 1.376 . S
C1925 C1926 1.388 . S
C1926 H1913 0.930 . S
C1926 C1925 1.388 . S
C1926 C1927 1.390 . S
C1927 C1926 1.390 . S
C1927 C1928 1.394 . S
C1927 C1933 1.465 1_455 S
C1928 C1923 1.399 . S
C1928 C1927 1.394 . S
C1928 C1929 1.551 . S
C1929 C1928 1.551 . S
C1929 C1930 1.501 . S
C1929 C1931 1.561 . S
C1929 C1932 1.492 1_455 S
C1930 H1914 0.956 1_455 S
C1930 H1915 0.943 1_455 S
C1930 H1916 0.978 . S
C1930 C1929 1.501 . S
C1931 H1917 0.993 . S
C1931 H1918 0.932 1_455 S
C1931 H1919 0.956 1_455 S
C1931 C1929 1.561 . S
C1932 C1929 1.492 1_655 S
C1932 C1933 1.396 . S
C1932 C1937 1.390 . S
C1933 C1927 1.465 1_655 S
C1933 C1932 1.396 . S
C1933 C1934 1.399 . S
C1934 H1920 0.929 . S
C1934 C1933 1.399 . S
C1934 C1935 1.385 . S
C1935 H1921 0.931 . S
C1935 C1934 1.385 . S
C1935 C1936 1.389 . S
C1936 C1935 1.389 . S
C1936 C1937 1.387 . S
C1937 H1922 0.930 . S
C1937 C1932 1.390 . S
C1937 C1936 1.387 . S
H1938 C1950 0.930 . S
H1939 C1952 0.930 . S
H1940 C1953 0.930 . S
H1941 C1957 0.959 . S
H1942 C1957 0.959 . S
H1943 C1957 0.961 . S
H1944 C1958 0.960 . S
H1945 C1958 0.961 . S
H1946 C1958 0.959 . S
H1947 C1961 0.929 . S
H1948 C1962 0.931 . S
H1949 C1964 0.930 . S
C1950 H1938 0.930 . S
C1950 C1951 1.399 . S
C1950 C1955 1.399 . S
C1951 C1950 1.399 . S
C1951 C1952 1.376 . S
C1952 H1939 0.930 . S
C1952 C1951 1.376 . S
C1952 C1953 1.388 . S
C1953 H1940 0.930 . S
C1953 C1952 1.388 . S
C1953 C1954 1.390 . S
C1954 C1953 1.390 . S
C1954 C1955 1.394 . S
C1954 C1960 1.465 . S
C1955 C1950 1.399 . S
C1955 C1954 1.394 . S
C1955 C1956 1.516 . S
C1956 C1955 1.516 . S
C1956 C1957 1.502 . S
C1956 C1958 1.561 . S
C1956 C1959 1.526 . S
C1957 H1941 0.959 . S
C1957 H1942 0.959 . S
C1957 H1943 0.961 . S
C1957 C1956 1.502 . S
C1958 H1944 0.960 . S
C1958 H1945 0.961 . S
C1958 H1946 0.959 . S
C1958 C1956 1.561 . S
C1959 C1956 1.526 . S
C1959 C1960 1.396 . S
C1959 C1964 1.390 . S
C1960 C1954 1.465 . S
C1960 C1959 1.396 . S
C1960 C1961 1.399 . S
C1961 H1947 0.929 . S
C1961 C1960 1.399 . S
C1961 C1962 1.385 . S
C1962 H1948 0.931 . S
C1962 C1961 1.385 . S
C1962 C1963 1.389 . S
C1963 C1962 1.389 . S
C1963 C1964 1.387 . S
C1964 H1949 0.930 . S
C1964 C1959 1.390 . S
C1964 C1963 1.387 . S
H1965 C1977 0.930 . S
H1966 C1979 0.930 . S
H1967 C1980 0.930 . S
H1968 C1984 0.959 . S
H1969 C1984 0.959 . S
H1970 C1984 0.961 . S
H1971 C1985 0.960 . S
H1972 C1985 0.961 . S
H1973 C1985 0.959 . S
H1974 C1988 0.929 . S
H1975 C1989 0.931 . S
H1976 C1991 0.930 . S
C1977 H1965 0.930 . S
C1977 C1978 1.399 . S
C1977 C1982 1.399 . S
C1978 C1977 1.399 . S
C1978 C1979 1.376 . S
C1979 H1966 0.930 . S
C1979 C1978 1.376 . S
C1979 C1980 1.388 . S
C1980 H1967 0.930 . S
C1980 C1979 1.388 . S
C1980 C1981 1.390 . S
C1981 C1980 1.390 . S
C1981 C1982 1.394 . S
C1981 C1987 1.465 . S
C1982 C1977 1.399 . S
C1982 C1981 1.394 . S
C1982 C1983 1.516 . S
C1983 C1982 1.516 . S
C1983 C1984 1.502 . S
C1983 C1985 1.561 . S
C1983 C1986 1.526 . S
C1984 H1968 0.959 . S
C1984 H1969 0.959 . S
C1984 H1970 0.961 . S
C1984 C1983 1.502 . S
C1985 H1971 0.960 . S
C1985 H1972 0.961 . S
C1985 H1973 0.959 . S
C1985 C1983 1.561 . S
C1986 C1983 1.526 . S
C1986 C1987 1.396 . S
C1986 C1991 1.390 . S
C1987 C1981 1.465 . S
C1987 C1986 1.396 . S
C1987 C1988 1.399 . S
C1988 H1974 0.929 . S
C1988 C1987 1.399 . S
C1988 C1989 1.385 . S
C1989 H1975 0.931 . S
C1989 C1988 1.385 . S
C1989 C1990 1.389 . S
C1990 C1989 1.389 . S
C1990 C1991 1.387 . S
C1991 H1976 0.930 . S
C1991 C1986 1.390 . S
C1991 C1990 1.387 . S
H1992 C2004 0.930 . S
H1993 C2006 0.930 . S
H1994 C2007 0.930 . S
H1995 C2011 0.959 . S
H1996 C2011 0.959 . S
H1997 C2011 0.961 . S
H1998 C2012 0.960 . S
H1999 C2012 0.961 . S
H2000 C2012 0.959 . S
H2001 C2015 0.929 . S
H2002 C2016 0.931 . S
H2003 C2018 0.930 . S
C2004 H1992 0.930 . S
C2004 C2005 1.399 . S
C2004 C2009 1.399 . S
C2005 C2004 1.399 . S
C2005 C2006 1.376 . S
C2006 H1993 0.930 . S
C2006 C2005 1.376 . S
C2006 C2007 1.388 . S
C2007 H1994 0.930 . S
C2007 C2006 1.388 . S
C2007 C2008 1.390 . S
C2008 C2007 1.390 . S
C2008 C2009 1.394 . S
C2008 C2014 1.465 . S
C2009 C2004 1.399 . S
C2009 C2008 1.394 . S
C2009 C2010 1.516 . S
C2010 C2009 1.516 . S
C2010 C2011 1.502 . S
C2010 C2012 1.561 . S
C2010 C2013 1.526 . S
C2011 H1995 0.959 . S
C2011 H1996 0.959 . S
C2011 H1997 0.961 . S
C2011 C2010 1.502 . S
C2012 H1998 0.960 . S
C2012 H1999 0.961 . S
C2012 H2000 0.959 . S
C2012 C2010 1.561 . S
C2013 C2010 1.526 . S
C2013 C2014 1.396 . S
C2013 C2018 1.390 . S
C2014 C2008 1.465 . S
C2014 C2013 1.396 . S
C2014 C2015 1.399 . S
C2015 H2001 0.929 . S
C2015 C2014 1.399 . S
C2015 C2016 1.385 . S
C2016 H2002 0.931 . S
C2016 C2015 1.385 . S
C2016 C2017 1.389 . S
C2017 C2016 1.389 . S
C2017 C2018 1.387 . S
C2018 H2003 0.930 . S
C2018 C2013 1.390 . S
C2018 C2017 1.387 . S
H2019 C2031 0.930 . S
H2020 C2033 0.930 . S
H2021 C2034 0.930 . S
H2022 C2038 0.959 . S
H2023 C2038 0.959 . S
H2024 C2038 0.961 . S
H2025 C2039 0.960 . S
H2026 C2039 0.961 . S
H2027 C2039 0.959 . S
H2028 C2042 0.929 . S
H2029 C2043 0.931 . S
H2030 C2045 0.930 . S
C2031 H2019 0.930 . S
C2031 C2032 1.399 . S
C2031 C2036 1.399 . S
C2032 C2031 1.399 . S
C2032 C2033 1.376 . S
C2033 H2020 0.930 . S
C2033 C2032 1.376 . S
C2033 C2034 1.388 . S
C2034 H2021 0.930 . S
C2034 C2033 1.388 . S
C2034 C2035 1.390 . S
C2035 C2034 1.390 . S
C2035 C2036 1.394 . S
C2035 C2041 1.465 . S
C2036 C2031 1.399 . S
C2036 C2035 1.394 . S
C2036 C2037 1.516 . S
C2037 C2036 1.516 . S
C2037 C2038 1.502 . S
C2037 C2039 1.561 . S
C2037 C2040 1.526 . S
C2038 H2022 0.959 . S
C2038 H2023 0.959 . S
C2038 H2024 0.961 . S
C2038 C2037 1.502 . S
C2039 H2025 0.960 . S
C2039 H2026 0.961 . S
C2039 H2027 0.959 . S
C2039 C2037 1.561 . S
C2040 C2037 1.526 . S
C2040 C2041 1.396 . S
C2040 C2045 1.390 . S
C2041 C2035 1.465 . S
C2041 C2040 1.396 . S
C2041 C2042 1.399 . S
C2042 H2028 0.929 . S
C2042 C2041 1.399 . S
C2042 C2043 1.385 . S
C2043 H2029 0.931 . S
C2043 C2042 1.385 . S
C2043 C2044 1.389 . S
C2044 C2043 1.389 . S
C2044 C2045 1.387 . S
C2045 H2030 0.930 . S
C2045 C2040 1.390 . S
C2045 C2044 1.387 . S
H2046 C2058 0.930 . S
H2047 C2060 0.930 . S
H2048 C2061 0.930 . S
H2049 C2065 0.959 . S
H2050 C2065 0.959 . S
H2051 C2065 0.961 . S
H2052 C2066 0.960 . S
H2053 C2066 0.961 . S
H2054 C2066 0.959 . S
H2055 C2069 0.929 . S
H2056 C2070 0.931 . S
H2057 C2072 0.930 . S
C2058 H2046 0.930 . S
C2058 C2059 1.399 . S
C2058 C2063 1.399 . S
C2059 C2058 1.399 . S
C2059 C2060 1.376 . S
C2060 H2047 0.930 . S
C2060 C2059 1.376 . S
C2060 C2061 1.388 . S
C2061 H2048 0.930 . S
C2061 C2060 1.388 . S
C2061 C2062 1.390 . S
C2062 C2061 1.390 . S
C2062 C2063 1.394 . S
C2062 C2068 1.465 . S
C2063 C2058 1.399 . S
C2063 C2062 1.394 . S
C2063 C2064 1.516 . S
C2064 C2063 1.516 . S
C2064 C2065 1.502 . S
C2064 C2066 1.561 . S
C2064 C2067 1.526 . S
C2065 H2049 0.959 . S
C2065 H2050 0.959 . S
C2065 H2051 0.961 . S
C2065 C2064 1.502 . S
C2066 H2052 0.960 . S
C2066 H2053 0.961 . S
C2066 H2054 0.959 . S
C2066 C2064 1.561 . S
C2067 C2064 1.526 . S
C2067 C2068 1.396 . S
C2067 C2072 1.390 . S
C2068 C2062 1.465 . S
C2068 C2067 1.396 . S
C2068 C2069 1.399 . S
C2069 H2055 0.929 . S
C2069 C2068 1.399 . S
C2069 C2070 1.385 . S
C2070 H2056 0.931 . S
C2070 C2069 1.385 . S
C2070 C2071 1.389 . S
C2071 C2070 1.389 . S
C2071 C2072 1.387 . S
C2072 H2057 0.930 . S
C2072 C2067 1.390 . S
C2072 C2071 1.387 . S
H2073 C2085 0.930 . S
H2074 C2087 0.930 . S
H2075 C2088 0.930 . S
H2076 C2092 0.959 . S
H2077 C2092 0.959 . S
H2078 C2092 0.961 . S
H2079 C2093 0.960 . S
H2080 C2093 0.961 . S
H2081 C2093 0.959 . S
H2082 C2096 0.929 . S
H2083 C2097 0.931 . S
H2084 C2099 0.930 . S
C2085 H2073 0.930 . S
C2085 C2086 1.399 . S
C2085 C2090 1.399 . S
C2086 C2085 1.399 . S
C2086 C2087 1.376 . S
C2087 H2074 0.930 . S
C2087 C2086 1.376 . S
C2087 C2088 1.388 . S
C2088 H2075 0.930 . S
C2088 C2087 1.388 . S
C2088 C2089 1.390 . S
C2089 C2088 1.390 . S
C2089 C2090 1.394 . S
C2089 C2095 1.465 . S
C2090 C2085 1.399 . S
C2090 C2089 1.394 . S
C2090 C2091 1.516 . S
C2091 C2090 1.516 . S
C2091 C2092 1.502 . S
C2091 C2093 1.561 . S
C2091 C2094 1.526 . S
C2092 H2076 0.959 . S
C2092 H2077 0.959 . S
C2092 H2078 0.961 . S
C2092 C2091 1.502 . S
C2093 H2079 0.960 . S
C2093 H2080 0.961 . S
C2093 H2081 0.959 . S
C2093 C2091 1.561 . S
C2094 C2091 1.526 . S
C2094 C2095 1.396 . S
C2094 C2099 1.390 . S
C2095 C2089 1.465 . S
C2095 C2094 1.396 . S
C2095 C2096 1.399 . S
C2096 H2082 0.929 . S
C2096 C2095 1.399 . S
C2096 C2097 1.385 . S
C2097 H2083 0.931 . S
C2097 C2096 1.385 . S
C2097 C2098 1.389 . S
C2098 C2097 1.389 . S
C2098 C2099 1.387 . S
C2099 H2084 0.930 . S
C2099 C2094 1.390 . S
C2099 C2098 1.387 . S
H2100 C2112 0.930 . S
H2101 C2114 0.930 . S
H2102 C2115 0.930 . S
H2103 C2119 0.956 1_455 S
H2104 C2119 0.937 1_455 S
H2105 C2119 0.985 . S
H2106 C2120 0.960 . S
H2107 C2120 0.961 1_455 S
H2108 C2120 0.958 1_454 S
H2109 C2123 0.929 . S
H2110 C2124 0.931 . S
H2111 C2126 0.930 . S
C2112 H2100 0.930 . S
C2112 C2113 1.399 . S
C2112 C2117 1.399 . S
C2113 C2112 1.399 . S
C2113 C2114 1.376 . S
C2114 H2101 0.930 . S
C2114 C2113 1.376 . S
C2114 C2115 1.388 . S
C2115 H2102 0.930 . S
C2115 C2114 1.388 . S
C2115 C2116 1.390 . S
C2116 C2115 1.390 . S
C2116 C2117 1.394 . S
C2116 C2122 1.465 1_655 S
C2117 C2112 1.399 . S
C2117 C2116 1.394 . S
C2117 C2118 1.516 . S
C2118 C2117 1.516 . S
C2118 C2119 1.503 . S
C2118 C2120 1.561 . S
C2118 C2121 1.526 1_655 S
C2119 H2103 0.956 1_655 S
C2119 H2104 0.937 1_655 S
C2119 H2105 0.985 . S
C2119 C2118 1.503 . S
C2120 H2106 0.960 . S
C2120 H2107 0.961 1_655 S
C2120 H2108 0.958 1_656 S
C2120 C2118 1.561 . S
C2121 C2118 1.526 1_455 S
C2121 C2122 1.396 . S
C2121 C2126 1.390 . S
C2122 C2116 1.465 1_455 S
C2122 C2121 1.396 . S
C2122 C2123 1.399 . S
C2123 H2109 0.929 . S
C2123 C2122 1.399 . S
C2123 C2124 1.385 . S
C2124 H2110 0.931 . S
C2124 C2123 1.385 . S
C2124 C2125 1.389 . S
C2125 C2124 1.389 . S
C2125 C2126 1.387 . S
C2126 H2111 0.930 . S
C2126 C2121 1.390 . S
C2126 C2125 1.387 . S
H2127 C2139 0.930 . S
H2128 C2141 0.930 . S
H2129 C2142 0.930 . S
H2130 C2146 0.959 . S
H2131 C2146 0.959 . S
H2132 C2146 0.961 . S
H2133 C2147 0.960 . S
H2134 C2147 0.961 . S
H2135 C2147 0.959 . S
H2136 C2150 0.929 . S
H2137 C2151 0.931 . S
H2138 C2153 0.930 . S
C2139 H2127 0.930 . S
C2139 C2140 1.399 . S
C2139 C2144 1.399 . S
C2140 C2139 1.399 . S
C2140 C2141 1.376 . S
C2141 H2128 0.930 . S
C2141 C2140 1.376 . S
C2141 C2142 1.388 . S
C2142 H2129 0.930 . S
C2142 C2141 1.388 . S
C2142 C2143 1.390 . S
C2143 C2142 1.390 . S
C2143 C2144 1.394 . S
C2143 C2149 1.465 . S
C2144 C2139 1.399 . S
C2144 C2143 1.394 . S
C2144 C2145 1.516 . S
C2145 C2144 1.516 . S
C2145 C2146 1.502 . S
C2145 C2147 1.561 . S
C2145 C2148 1.526 . S
C2146 H2130 0.959 . S
C2146 H2131 0.959 . S
C2146 H2132 0.961 . S
C2146 C2145 1.502 . S
C2147 H2133 0.960 . S
C2147 H2134 0.961 . S
C2147 H2135 0.959 . S
C2147 C2145 1.561 . S
C2148 C2145 1.526 . S
C2148 C2149 1.396 . S
C2148 C2153 1.390 . S
C2149 C2143 1.465 . S
C2149 C2148 1.396 . S
C2149 C2150 1.399 . S
C2150 H2136 0.929 . S
C2150 C2149 1.399 . S
C2150 C2151 1.385 . S
C2151 H2137 0.931 . S
C2151 C2150 1.385 . S
C2151 C2152 1.389 . S
C2152 C2151 1.389 . S
C2152 C2153 1.387 . S
C2153 H2138 0.930 . S
C2153 C2148 1.390 . S
C2153 C2152 1.387 . S
H2154 C2166 0.930 . S
H2155 C2168 0.930 . S
H2156 C2169 0.930 . S
H2157 C2173 0.959 . S
H2158 C2173 0.959 . S
H2159 C2173 0.961 . S
H2160 C2174 0.960 . S
H2161 C2174 0.961 . S
H2162 C2174 0.959 . S
H2163 C2177 0.929 . S
H2164 C2178 0.931 . S
H2165 C2180 0.930 . S
C2166 H2154 0.930 . S
C2166 C2167 1.399 . S
C2166 C2171 1.399 . S
C2167 C2166 1.399 . S
C2167 C2168 1.376 . S
C2168 H2155 0.930 . S
C2168 C2167 1.376 . S
C2168 C2169 1.388 . S
C2169 H2156 0.930 . S
C2169 C2168 1.388 . S
C2169 C2170 1.390 . S
C2170 C2169 1.390 . S
C2170 C2171 1.394 . S
C2170 C2176 1.465 . S
C2171 C2166 1.399 . S
C2171 C2170 1.394 . S
C2171 C2172 1.516 . S
C2172 C2171 1.516 . S
C2172 C2173 1.502 . S
C2172 C2174 1.561 . S
C2172 C2175 1.526 . S
C2173 H2157 0.959 . S
C2173 H2158 0.959 . S
C2173 H2159 0.961 . S
C2173 C2172 1.502 . S
C2174 H2160 0.960 . S
C2174 H2161 0.961 . S
C2174 H2162 0.959 . S
C2174 C2172 1.561 . S
C2175 C2172 1.526 . S
C2175 C2176 1.396 . S
C2175 C2180 1.390 . S
C2176 C2170 1.465 . S
C2176 C2175 1.396 . S
C2176 C2177 1.399 . S
C2177 H2163 0.929 . S
C2177 C2176 1.399 . S
C2177 C2178 1.385 . S
C2178 H2164 0.931 . S
C2178 C2177 1.385 . S
C2178 C2179 1.389 . S
C2179 C2178 1.389 . S
C2179 C2180 1.387 . S
C2180 H2165 0.930 . S
C2180 C2175 1.390 . S
C2180 C2179 1.387 . S
H2181 C2193 0.930 . S
H2182 C2195 0.930 1_556 S
H2183 C2196 0.930 1_556 S
H2184 C2200 0.962 . S
H2185 C2200 0.976 . S
H2186 C2200 0.943 1_455 S
H2187 C2201 0.968 . S
H2188 C2201 0.954 1_655 S
H2189 C2201 0.958 1_655 S
H2190 C2204 0.929 1_556 S
H2191 C2205 0.931 1_556 S
H2192 C2207 0.930 . S
C2193 H2181 0.930 . S
C2193 C2194 1.399 . S
C2193 C2198 1.399 . S
C2194 C2193 1.399 . S
C2194 C2195 1.376 . S
C2195 H2182 0.930 1_554 S
C2195 C2194 1.376 . S
C2195 C2196 1.388 . S
C2196 H2183 0.930 1_554 S
C2196 C2195 1.388 . S
C2196 C2197 1.390 . S
C2197 C2196 1.390 . S
C2197 C2198 1.394 . S
C2197 C2203 1.465 1_455 S
C2198 C2193 1.399 . S
C2198 C2197 1.394 . S
C2198 C2199 1.515 . S
C2199 C2198 1.515 . S
C2199 C2200 1.501 1_455 S
C2199 C2201 1.561 . S
C2199 C2202 1.527 1_455 S
C2200 H2184 0.962 . S
C2200 H2185 0.976 . S
C2200 H2186 0.943 1_655 S
C2200 C2199 1.501 1_655 S
C2201 H2187 0.968 . S
C2201 H2188 0.954 1_455 S
C2201 H2189 0.958 1_455 S
C2201 C2199 1.561 . S
C2202 C2199 1.527 1_655 S
C2202 C2203 1.396 . S
C2202 C2207 1.390 . S
C2203 C2197 1.465 1_655 S
C2203 C2202 1.396 . S
C2203 C2204 1.399 . S
C2204 H2190 0.929 1_554 S
C2204 C2203 1.399 . S
C2204 C2205 1.385 . S
C2205 H2191 0.931 1_554 S
C2205 C2204 1.385 . S
C2205 C2206 1.389 . S
C2206 C2205 1.389 . S
C2206 C2207 1.387 . S
C2207 H2192 0.930 . S
C2207 C2202 1.390 . S
C2207 C2206 1.387 . S
H2208 C2220 0.930 . S
H2209 C2222 0.930 . S
H2210 C2223 0.930 . S
H2211 C2227 0.959 . S
H2212 C2227 0.959 . S
H2213 C2227 0.961 . S
H2214 C2228 0.960 1_554 S
H2215 C2228 0.961 . S
H2216 C2228 0.959 . S
H2217 C2231 0.929 . S
H2218 C2232 0.931 . S
H2219 C2234 0.930 . S
C2220 H2208 0.930 . S
C2220 C2221 1.399 . S
C2220 C2225 1.399 . S
C2221 C2220 1.399 . S
C2221 C2222 1.376 . S
C2222 H2209 0.930 . S
C2222 C2221 1.376 . S
C2222 C2223 1.388 1_554 S
C2223 H2210 0.930 . S
C2223 C2222 1.388 1_556 S
C2223 C2224 1.390 . S
C2224 C2223 1.390 . S
C2224 C2225 1.394 1_556 S
C2224 C2230 1.465 . S
C2225 C2220 1.399 . S
C2225 C2224 1.394 1_554 S
C2225 C2226 1.516 . S
C2226 C2225 1.516 . S
C2226 C2227 1.502 . S
C2226 C2228 1.561 1_554 S
C2226 C2229 1.526 1_554 S
C2227 H2211 0.959 . S
C2227 H2212 0.959 . S
C2227 H2213 0.961 . S
C2227 C2226 1.502 . S
C2228 H2214 0.960 1_556 S
C2228 H2215 0.961 . S
C2228 H2216 0.959 . S
C2228 C2226 1.561 1_556 S
C2229 C2226 1.526 1_556 S
C2229 C2230 1.396 . S
C2229 C2234 1.390 . S
C2230 C2224 1.465 . S
C2230 C2229 1.396 . S
C2230 C2231 1.399 . S
C2231 H2217 0.929 . S
C2231 C2230 1.399 . S
C2231 C2232 1.385 . S
C2232 H2218 0.931 . S
C2232 C2231 1.385 . S
C2232 C2233 1.389 . S
C2233 C2232 1.389 . S
C2233 C2234 1.387 . S
C2234 H2219 0.930 . S
C2234 C2229 1.390 . S
C2234 C2233 1.387 . S
H2235 C2247 0.930 . S
H2236 C2249 0.930 . S
H2237 C2250 0.930 . S
H2238 C2254 0.959 . S
H2239 C2254 0.959 . S
H2240 C2254 0.961 . S
H2241 C2255 0.960 . S
H2242 C2255 0.961 . S
H2243 C2255 0.959 . S
H2244 C2258 0.929 . S
H2245 C2259 0.931 . S
H2246 C2261 0.930 . S
C2247 H2235 0.930 . S
C2247 C2248 1.399 . S
C2247 C2252 1.399 . S
C2248 C2247 1.399 . S
C2248 C2249 1.376 . S
C2249 H2236 0.930 . S
C2249 C2248 1.376 . S
C2249 C2250 1.388 . S
C2250 H2237 0.930 . S
C2250 C2249 1.388 . S
C2250 C2251 1.390 . S
C2251 C2250 1.390 . S
C2251 C2252 1.394 . S
C2251 C2257 1.465 . S
C2252 C2247 1.399 . S
C2252 C2251 1.394 . S
C2252 C2253 1.516 . S
C2253 C2252 1.516 . S
C2253 C2254 1.502 . S
C2253 C2255 1.561 . S
C2253 C2256 1.526 . S
C2254 H2238 0.959 . S
C2254 H2239 0.959 . S
C2254 H2240 0.961 . S
C2254 C2253 1.502 . S
C2255 H2241 0.960 . S
C2255 H2242 0.961 . S
C2255 H2243 0.959 . S
C2255 C2253 1.561 . S
C2256 C2253 1.526 . S
C2256 C2257 1.396 . S
C2256 C2261 1.390 . S
C2257 C2251 1.465 . S
C2257 C2256 1.396 . S
C2257 C2258 1.399 . S
C2258 H2244 0.929 . S
C2258 C2257 1.399 . S
C2258 C2259 1.385 . S
C2259 H2245 0.931 . S
C2259 C2258 1.385 . S
C2259 C2260 1.389 . S
C2260 C2259 1.389 . S
C2260 C2261 1.387 . S
C2261 H2246 0.930 . S
C2261 C2256 1.390 . S
C2261 C2260 1.387 . S
H2262 C2274 0.930 . S
H2263 C2276 0.930 . S
H2264 C2277 0.930 . S
H2265 C2281 0.959 . S
H2266 C2281 0.959 . S
H2267 C2281 0.961 . S
H2268 C2282 0.960 . S
H2269 C2282 0.961 . S
H2270 C2282 0.959 . S
H2271 C2285 0.929 . S
H2272 C2286 0.931 . S
H2273 C2288 0.930 . S
C2274 H2262 0.930 . S
C2274 C2275 1.399 . S
C2274 C2279 1.399 . S
C2275 C2274 1.399 . S
C2275 C2276 1.376 . S
C2276 H2263 0.930 . S
C2276 C2275 1.376 . S
C2276 C2277 1.388 . S
C2277 H2264 0.930 . S
C2277 C2276 1.388 . S
C2277 C2278 1.390 . S
C2278 C2277 1.390 . S
C2278 C2279 1.394 . S
C2278 C2284 1.465 . S
C2279 C2274 1.399 . S
C2279 C2278 1.394 . S
C2279 C2280 1.516 . S
C2280 C2279 1.516 . S
C2280 C2281 1.502 . S
C2280 C2282 1.561 . S
C2280 C2283 1.526 . S
C2281 H2265 0.959 . S
C2281 H2266 0.959 . S
C2281 H2267 0.961 . S
C2281 C2280 1.502 . S
C2282 H2268 0.960 . S
C2282 H2269 0.961 . S
C2282 H2270 0.959 . S
C2282 C2280 1.561 . S
C2283 C2280 1.526 . S
C2283 C2284 1.396 . S
C2283 C2288 1.390 . S
C2284 C2278 1.465 . S
C2284 C2283 1.396 . S
C2284 C2285 1.399 . S
C2285 H2271 0.929 . S
C2285 C2284 1.399 . S
C2285 C2286 1.385 . S
C2286 H2272 0.931 . S
C2286 C2285 1.385 . S
C2286 C2287 1.389 . S
C2287 C2286 1.389 . S
C2287 C2288 1.387 . S
C2288 H2273 0.930 . S
C2288 C2283 1.390 . S
C2288 C2287 1.387 . S
H2289 C2301 0.930 . S
H2290 C2303 0.930 . S
H2291 C2304 0.930 . S
H2292 C2308 0.959 . S
H2293 C2308 0.959 . S
H2294 C2308 0.961 . S
H2295 C2309 0.960 . S
H2296 C2309 0.961 . S
H2297 C2309 0.959 . S
H2298 C2312 0.929 . S
H2299 C2313 0.931 . S
H2300 C2315 0.930 . S
C2301 H2289 0.930 . S
C2301 C2302 1.399 . S
C2301 C2306 1.399 . S
C2302 C2301 1.399 . S
C2302 C2303 1.376 . S
C2303 H2290 0.930 . S
C2303 C2302 1.376 . S
C2303 C2304 1.388 . S
C2304 H2291 0.930 . S
C2304 C2303 1.388 . S
C2304 C2305 1.390 . S
C2305 C2304 1.390 . S
C2305 C2306 1.394 . S
C2305 C2311 1.465 . S
C2306 C2301 1.399 . S
C2306 C2305 1.394 . S
C2306 C2307 1.516 . S
C2307 C2306 1.516 . S
C2307 C2308 1.502 . S
C2307 C2309 1.561 . S
C2307 C2310 1.526 . S
C2308 H2292 0.959 . S
C2308 H2293 0.959 . S
C2308 H2294 0.961 . S
C2308 C2307 1.502 . S
C2309 H2295 0.960 . S
C2309 H2296 0.961 . S
C2309 H2297 0.959 . S
C2309 C2307 1.561 . S
C2310 C2307 1.526 . S
C2310 C2311 1.396 . S
C2310 C2315 1.390 . S
C2311 C2305 1.465 . S
C2311 C2310 1.396 . S
C2311 C2312 1.399 . S
C2312 H2298 0.929 . S
C2312 C2311 1.399 . S
C2312 C2313 1.385 . S
C2313 H2299 0.931 . S
C2313 C2312 1.385 . S
C2313 C2314 1.389 . S
C2314 C2313 1.389 . S
C2314 C2315 1.387 . S
C2315 H2300 0.930 . S
C2315 C2310 1.390 . S
C2315 C2314 1.387 . S
H2316 C2328 0.930 1_556 S
H2317 C2330 0.930 . S
H2318 C2331 0.930 . S
H2319 C2335 0.959 . S
H2320 C2335 0.959 . S
H2321 C2335 0.961 . S
H2322 C2336 0.960 . S
H2323 C2336 0.961 . S
H2324 C2336 0.959 . S
H2325 C2339 0.929 . S
H2326 C2340 0.931 1_554 S
H2327 C2342 0.930 . S
C2328 H2316 0.930 1_554 S
C2328 C2329 1.399 . S
C2328 C2333 1.397 1_554 S
C2329 C2328 1.399 . S
C2329 C2330 1.376 . S
C2330 H2317 0.930 . S
C2330 C2329 1.376 . S
C2330 C2331 1.388 . S
C2331 H2318 0.930 . S
C2331 C2330 1.388 . S
C2331 C2332 1.390 . S
C2332 C2331 1.390 . S
C2332 C2333 1.389 1_554 S
C2332 C2338 1.465 . S
C2333 C2328 1.397 1_556 S
C2333 C2332 1.389 1_556 S
C2333 C2334 1.522 . S
C2334 C2333 1.522 . S
C2334 C2335 1.502 . S
C2334 C2336 1.561 . S
C2334 C2337 1.526 . S
C2335 H2319 0.959 . S
C2335 H2320 0.959 . S
C2335 H2321 0.961 . S
C2335 C2334 1.502 . S
C2336 H2322 0.960 . S
C2336 H2323 0.961 . S
C2336 H2324 0.959 . S
C2336 C2334 1.561 . S
C2337 C2334 1.526 . S
C2337 C2338 1.396 1_556 S
C2337 C2342 1.390 . S
C2338 C2332 1.465 . S
C2338 C2337 1.396 1_554 S
C2338 C2339 1.399 . S
C2339 H2325 0.929 . S
C2339 C2338 1.399 . S
C2339 C2340 1.385 1_554 S
C2340 H2326 0.931 1_556 S
C2340 C2339 1.385 1_556 S
C2340 C2341 1.389 . S
C2341 C2340 1.389 . S
C2341 C2342 1.387 . S
C2342 H2327 0.930 . S
C2342 C2337 1.390 . S
C2342 C2341 1.387 . S
H2343 C2355 0.930 . S
H2344 C2357 0.930 . S
H2345 C2358 0.930 . S
H2346 C2362 0.959 . S
H2347 C2362 0.959 . S
H2348 C2362 0.961 . S
H2349 C2363 0.960 . S
H2350 C2363 0.961 . S
H2351 C2363 0.959 . S
H2352 C2366 0.929 . S
H2353 C2367 0.931 . S
H2354 C2369 0.930 . S
C2355 H2343 0.930 . S
C2355 C2356 1.399 . S
C2355 C2360 1.399 . S
C2356 C2355 1.399 . S
C2356 C2357 1.376 . S
C2357 H2344 0.930 . S
C2357 C2356 1.376 . S
C2357 C2358 1.388 . S
C2358 H2345 0.930 . S
C2358 C2357 1.388 . S
C2358 C2359 1.390 . S
C2359 C2358 1.390 . S
C2359 C2360 1.394 . S
C2359 C2365 1.465 . S
C2360 C2355 1.399 . S
C2360 C2359 1.394 . S
C2360 C2361 1.516 . S
C2361 C2360 1.516 . S
C2361 C2362 1.502 . S
C2361 C2363 1.561 . S
C2361 C2364 1.526 . S
C2362 H2346 0.959 . S
C2362 H2347 0.959 . S
C2362 H2348 0.961 . S
C2362 C2361 1.502 . S
C2363 H2349 0.960 . S
C2363 H2350 0.961 . S
C2363 H2351 0.959 . S
C2363 C2361 1.561 . S
C2364 C2361 1.526 . S
C2364 C2365 1.396 . S
C2364 C2369 1.390 . S
C2365 C2359 1.465 . S
C2365 C2364 1.396 . S
C2365 C2366 1.399 . S
C2366 H2352 0.929 . S
C2366 C2365 1.399 . S
C2366 C2367 1.385 . S
C2367 H2353 0.931 . S
C2367 C2366 1.385 . S
C2367 C2368 1.389 . S
C2368 C2367 1.389 . S
C2368 C2369 1.387 . S
C2369 H2354 0.930 . S
C2369 C2364 1.390 . S
C2369 C2368 1.387 . S
H2370 C2382 0.930 . S
H2371 C2384 0.930 . S
H2372 C2385 0.930 . S
H2373 C2389 0.959 . S
H2374 C2389 0.959 . S
H2375 C2389 0.961 . S
H2376 C2390 0.960 . S
H2377 C2390 0.961 . S
H2378 C2390 0.959 . S
H2379 C2393 0.929 . S
H2380 C2394 0.931 . S
H2381 C2396 0.930 . S
C2382 H2370 0.930 . S
C2382 C2383 1.399 . S
C2382 C2387 1.399 . S
C2383 C2382 1.399 . S
C2383 C2384 1.376 . S
C2384 H2371 0.930 . S
C2384 C2383 1.376 . S
C2384 C2385 1.388 . S
C2385 H2372 0.930 . S
C2385 C2384 1.388 . S
C2385 C2386 1.390 . S
C2386 C2385 1.390 . S
C2386 C2387 1.394 . S
C2386 C2392 1.465 . S
C2387 C2382 1.399 . S
C2387 C2386 1.394 . S
C2387 C2388 1.516 . S
C2388 C2387 1.516 . S
C2388 C2389 1.502 . S
C2388 C2390 1.561 . S
C2388 C2391 1.526 . S
C2389 H2373 0.959 . S
C2389 H2374 0.959 . S
C2389 H2375 0.961 . S
C2389 C2388 1.502 . S
C2390 H2376 0.960 . S
C2390 H2377 0.961 . S
C2390 H2378 0.959 . S
C2390 C2388 1.561 . S
C2391 C2388 1.526 . S
C2391 C2392 1.396 . S
C2391 C2396 1.390 . S
C2392 C2386 1.465 . S
C2392 C2391 1.396 . S
C2392 C2393 1.399 . S
C2393 H2379 0.929 . S
C2393 C2392 1.399 . S
C2393 C2394 1.385 . S
C2394 H2380 0.931 . S
C2394 C2393 1.385 . S
C2394 C2395 1.389 . S
C2395 C2394 1.389 . S
C2395 C2396 1.387 . S
C2396 H2381 0.930 . S
C2396 C2391 1.390 . S
C2396 C2395 1.387 . S
H2397 C2409 0.930 . S
H2398 C2411 0.930 . S
H2399 C2412 0.930 . S
H2400 C2416 0.959 . S
H2401 C2416 0.959 . S
H2402 C2416 0.961 . S
H2403 C2417 0.960 . S
H2404 C2417 0.961 . S
H2405 C2417 0.959 . S
H2406 C2420 0.929 . S
H2407 C2421 0.931 . S
H2408 C2423 0.930 . S
C2409 H2397 0.930 . S
C2409 C2410 1.399 . S
C2409 C2414 1.399 . S
C2410 C2409 1.399 . S
C2410 C2411 1.376 . S
C2411 H2398 0.930 . S
C2411 C2410 1.376 . S
C2411 C2412 1.388 . S
C2412 H2399 0.930 . S
C2412 C2411 1.388 . S
C2412 C2413 1.390 . S
C2413 C2412 1.390 . S
C2413 C2414 1.394 . S
C2413 C2419 1.465 . S
C2414 C2409 1.399 . S
C2414 C2413 1.394 . S
C2414 C2415 1.516 . S
C2415 C2414 1.516 . S
C2415 C2416 1.502 . S
C2415 C2417 1.561 . S
C2415 C2418 1.526 . S
C2416 H2400 0.959 . S
C2416 H2401 0.959 . S
C2416 H2402 0.961 . S
C2416 C2415 1.502 . S
C2417 H2403 0.960 . S
C2417 H2404 0.961 . S
C2417 H2405 0.959 . S
C2417 C2415 1.561 . S
C2418 C2415 1.526 . S
C2418 C2419 1.396 . S
C2418 C2423 1.390 . S
C2419 C2413 1.465 . S
C2419 C2418 1.396 . S
C2419 C2420 1.399 . S
C2420 H2406 0.929 . S
C2420 C2419 1.399 . S
C2420 C2421 1.385 . S
C2421 H2407 0.931 . S
C2421 C2420 1.385 . S
C2421 C2422 1.389 . S
C2422 C2421 1.389 . S
C2422 C2423 1.387 . S
C2423 H2408 0.930 . S
C2423 C2418 1.390 . S
C2423 C2422 1.387 . S
H2424 C2436 0.930 . S
H2425 C2438 0.930 . S
H2426 C2439 0.930 . S
H2427 C2443 0.959 . S
H2428 C2443 0.959 . S
H2429 C2443 0.961 . S
H2430 C2444 0.960 . S
H2431 C2444 0.961 . S
H2432 C2444 0.959 . S
H2433 C2447 0.929 . S
H2434 C2448 0.931 . S
H2435 C2450 0.930 . S
C2436 H2424 0.930 . S
C2436 C2437 1.399 . S
C2436 C2441 1.399 . S
C2437 C2436 1.399 . S
C2437 C2438 1.376 . S
C2438 H2425 0.930 . S
C2438 C2437 1.376 . S
C2438 C2439 1.388 . S
C2439 H2426 0.930 . S
C2439 C2438 1.388 . S
C2439 C2440 1.390 . S
C2440 C2439 1.390 . S
C2440 C2441 1.394 . S
C2440 C2446 1.465 1_565 S
C2441 C2436 1.399 . S
C2441 C2440 1.394 . S
C2441 C2442 1.516 . S
C2442 C2441 1.516 . S
C2442 C2443 1.502 . S
C2442 C2444 1.561 . S
C2442 C2445 1.526 1_565 S
C2443 H2427 0.959 . S
C2443 H2428 0.959 . S
C2443 H2429 0.961 . S
C2443 C2442 1.502 . S
C2444 H2430 0.960 . S
C2444 H2431 0.961 . S
C2444 H2432 0.959 . S
C2444 C2442 1.561 . S
C2445 C2442 1.526 1_545 S
C2445 C2446 1.396 . S
C2445 C2450 1.390 . S
C2446 C2440 1.465 1_545 S
C2446 C2445 1.396 . S
C2446 C2447 1.399 . S
C2447 H2433 0.929 . S
C2447 C2446 1.399 . S
C2447 C2448 1.385 . S
C2448 H2434 0.931 . S
C2448 C2447 1.385 . S
C2448 C2449 1.389 . S
C2449 C2448 1.389 . S
C2449 C2450 1.387 . S
C2450 H2435 0.930 . S
C2450 C2445 1.390 . S
C2450 C2449 1.387 . S
H2451 C2463 0.930 . S
H2452 C2465 0.930 . S
H2453 C2466 0.930 . S
H2454 C2470 0.959 . S
H2455 C2470 0.959 . S
H2456 C2470 0.961 . S
H2457 C2471 0.960 . S
H2458 C2471 0.961 . S
H2459 C2471 0.959 . S
H2460 C2474 0.929 . S
H2461 C2475 0.931 . S
H2462 C2477 0.930 . S
C2463 H2451 0.930 . S
C2463 C2464 1.399 . S
C2463 C2468 1.399 . S
C2464 C2463 1.399 . S
C2464 C2465 1.376 . S
C2465 H2452 0.930 . S
C2465 C2464 1.376 . S
C2465 C2466 1.388 . S
C2466 H2453 0.930 . S
C2466 C2465 1.388 . S
C2466 C2467 1.390 . S
C2467 C2466 1.390 . S
C2467 C2468 1.394 . S
C2467 C2473 1.465 . S
C2468 C2463 1.399 . S
C2468 C2467 1.394 . S
C2468 C2469 1.516 . S
C2469 C2468 1.516 . S
C2469 C2470 1.502 . S
C2469 C2471 1.561 . S
C2469 C2472 1.526 . S
C2470 H2454 0.959 . S
C2470 H2455 0.959 . S
C2470 H2456 0.961 . S
C2470 C2469 1.502 . S
C2471 H2457 0.960 . S
C2471 H2458 0.961 . S
C2471 H2459 0.959 . S
C2471 C2469 1.561 . S
C2472 C2469 1.526 . S
C2472 C2473 1.396 . S
C2472 C2477 1.390 . S
C2473 C2467 1.465 . S
C2473 C2472 1.396 . S
C2473 C2474 1.399 . S
C2474 H2460 0.929 . S
C2474 C2473 1.399 . S
C2474 C2475 1.385 . S
C2475 H2461 0.931 . S
C2475 C2474 1.385 . S
C2475 C2476 1.389 . S
C2476 C2475 1.389 . S
C2476 C2477 1.387 . S
C2477 H2462 0.930 . S
C2477 C2472 1.390 . S
C2477 C2476 1.387 . S
H2478 C2490 0.930 . S
H2479 C2492 0.930 1_556 S
H2480 C2493 0.930 . S
H2481 C2497 0.959 . S
H2482 C2497 0.959 . S
H2483 C2497 0.961 . S
H2484 C2498 0.960 . S
H2485 C2498 0.961 . S
H2486 C2498 0.959 . S
H2487 C2501 0.929 1_565 S
H2488 C2502 0.931 . S
H2489 C2504 0.930 1_554 S
C2490 H2478 0.930 . S
C2490 C2491 1.399 . S
C2490 C2495 1.399 . S
C2491 C2490 1.399 . S
C2491 C2492 1.376 . S
C2492 H2479 0.930 1_554 S
C2492 C2491 1.376 . S
C2492 C2493 1.388 1_554 S
C2493 H2480 0.930 . S
C2493 C2492 1.388 1_556 S
C2493 C2494 1.390 . S
C2494 C2493 1.390 . S
C2494 C2495 1.394 1_556 S
C2494 C2500 1.465 1_565 S
C2495 C2490 1.399 . S
C2495 C2494 1.394 1_554 S
C2495 C2496 1.516 1_565 S
C2496 C2495 1.516 1_545 S
C2496 C2497 1.502 . S
C2496 C2498 1.561 . S
C2496 C2499 1.526 1_554 S
C2497 H2481 0.959 . S
C2497 H2482 0.959 . S
C2497 H2483 0.961 . S
C2497 C2496 1.502 . S
C2498 H2484 0.960 . S
C2498 H2485 0.961 . S
C2498 H2486 0.959 . S
C2498 C2496 1.561 . S
C2499 C2496 1.526 1_556 S
C2499 C2500 1.396 . S
C2499 C2504 1.390 . S
C2500 C2494 1.465 1_545 S
C2500 C2499 1.396 . S
C2500 C2501 1.399 . S
C2501 H2487 0.929 1_545 S
C2501 C2500 1.399 . S
C2501 C2502 1.385 . S
C2502 H2488 0.931 . S
C2502 C2501 1.385 . S
C2502 C2503 1.389 . S
C2503 C2502 1.389 . S
C2503 C2504 1.387 . S
C2504 H2489 0.930 1_556 S
C2504 C2499 1.390 . S
C2504 C2503 1.387 . S
H2505 C2517 0.930 . S
H2506 C2519 0.930 . S
H2507 C2520 0.930 . S
H2508 C2524 0.959 . S
H2509 C2524 0.959 . S
H2510 C2524 0.961 . S
H2511 C2525 0.960 . S
H2512 C2525 0.961 . S
H2513 C2525 0.959 . S
H2514 C2528 0.929 . S
H2515 C2529 0.931 . S
H2516 C2531 0.930 . S
C2517 H2505 0.930 . S
C2517 C2518 1.399 . S
C2517 C2522 1.399 . S
C2518 C2517 1.399 . S
C2518 C2519 1.376 . S
C2519 H2506 0.930 . S
C2519 C2518 1.376 . S
C2519 C2520 1.388 . S
C2520 H2507 0.930 . S
C2520 C2519 1.388 . S
C2520 C2521 1.390 . S
C2521 C2520 1.390 . S
C2521 C2522 1.394 . S
C2521 C2527 1.465 . S
C2522 C2517 1.399 . S
C2522 C2521 1.394 . S
C2522 C2523 1.516 . S
C2523 C2522 1.516 . S
C2523 C2524 1.502 . S
C2523 C2525 1.561 . S
C2523 C2526 1.526 . S
C2524 H2508 0.959 . S
C2524 H2509 0.959 . S
C2524 H2510 0.961 . S
C2524 C2523 1.502 . S
C2525 H2511 0.960 . S
C2525 H2512 0.961 . S
C2525 H2513 0.959 . S
C2525 C2523 1.561 . S
C2526 C2523 1.526 . S
C2526 C2527 1.396 . S
C2526 C2531 1.390 . S
C2527 C2521 1.465 . S
C2527 C2526 1.396 . S
C2527 C2528 1.399 . S
C2528 H2514 0.929 . S
C2528 C2527 1.399 . S
C2528 C2529 1.385 . S
C2529 H2515 0.931 . S
C2529 C2528 1.385 . S
C2529 C2530 1.389 . S
C2530 C2529 1.389 . S
C2530 C2531 1.387 . S
C2531 H2516 0.930 . S
C2531 C2526 1.390 . S
C2531 C2530 1.387 . S
H2532 C2544 0.930 . S
H2533 C2546 0.930 . S
H2534 C2547 0.930 . S
H2535 C2551 0.959 . S
H2536 C2551 0.959 . S
H2537 C2551 0.961 . S
H2538 C2552 0.960 . S
H2539 C2552 0.961 . S
H2540 C2552 0.959 . S
H2541 C2555 0.943 . S
H2542 C2556 0.931 . S
H2543 C2558 0.930 . S
C2544 H2532 0.930 . S
C2544 C2545 1.399 . S
C2544 C2549 1.399 . S
C2545 C2544 1.399 . S
C2545 C2546 1.376 . S
C2546 H2533 0.930 . S
C2546 C2545 1.376 . S
C2546 C2547 1.388 . S
C2547 H2534 0.930 . S
C2547 C2546 1.388 . S
C2547 C2548 1.390 . S
C2548 C2547 1.390 . S
C2548 C2549 1.394 . S
C2548 C2554 1.465 1_565 S
C2549 C2544 1.399 . S
C2549 C2548 1.394 . S
C2549 C2550 1.516 1_565 S
C2550 C2549 1.516 1_545 S
C2550 C2551 1.502 . S
C2550 C2552 1.561 . S
C2550 C2553 1.526 . S
C2551 H2535 0.959 . S
C2551 H2536 0.959 . S
C2551 H2537 0.961 . S
C2551 C2550 1.502 . S
C2552 H2538 0.960 . S
C2552 H2539 0.961 . S
C2552 H2540 0.959 . S
C2552 C2550 1.561 . S
C2553 C2550 1.526 . S
C2553 C2554 1.396 . S
C2553 C2558 1.390 . S
C2554 C2548 1.465 1_545 S
C2554 C2553 1.396 . S
C2554 C2555 1.399 . S
C2555 H2541 0.943 . S
C2555 C2554 1.399 . S
C2555 C2556 1.385 . S
C2556 H2542 0.931 . S
C2556 C2555 1.385 . S
C2556 C2557 1.389 . S
C2557 C2556 1.389 . S
C2557 C2558 1.387 . S
C2558 H2543 0.930 . S
C2558 C2553 1.390 . S
C2558 C2557 1.387 . S
H2559 C2571 0.930 . S
H2560 C2573 0.930 . S
H2561 C2574 0.930 . S
H2562 C2578 0.959 . S
H2563 C2578 0.959 . S
H2564 C2578 0.961 . S
H2565 C2579 0.960 . S
H2566 C2579 0.961 . S
H2567 C2579 0.959 . S
H2568 C2582 0.929 . S
H2569 C2583 0.931 . S
H2570 C2585 0.930 . S
C2571 H2559 0.930 . S
C2571 C2572 1.399 . S
C2571 C2576 1.399 . S
C2572 C2571 1.399 . S
C2572 C2573 1.376 . S
C2573 H2560 0.930 . S
C2573 C2572 1.376 . S
C2573 C2574 1.388 . S
C2574 H2561 0.930 . S
C2574 C2573 1.388 . S
C2574 C2575 1.390 . S
C2575 C2574 1.390 . S
C2575 C2576 1.394 . S
C2575 C2581 1.465 . S
C2576 C2571 1.399 . S
C2576 C2575 1.394 . S
C2576 C2577 1.516 . S
C2577 C2576 1.516 . S
C2577 C2578 1.502 . S
C2577 C2579 1.561 . S
C2577 C2580 1.526 . S
C2578 H2562 0.959 . S
C2578 H2563 0.959 . S
C2578 H2564 0.961 . S
C2578 C2577 1.502 . S
C2579 H2565 0.960 . S
C2579 H2566 0.961 . S
C2579 H2567 0.959 . S
C2579 C2577 1.561 . S
C2580 C2577 1.526 . S
C2580 C2581 1.396 . S
C2580 C2585 1.390 . S
C2581 C2575 1.465 . S
C2581 C2580 1.396 . S
C2581 C2582 1.399 . S
C2582 H2568 0.929 . S
C2582 C2581 1.399 . S
C2582 C2583 1.385 . S
C2583 H2569 0.931 . S
C2583 C2582 1.385 . S
C2583 C2584 1.389 . S
C2584 C2583 1.389 . S
C2584 C2585 1.387 . S
C2585 H2570 0.930 . S
C2585 C2580 1.390 . S
C2585 C2584 1.387 . S
H2586 C2598 0.930 . S
H2587 C2600 0.930 . S
H2588 C2601 0.930 . S
H2589 C2605 0.959 . S
H2590 C2605 0.959 . S
H2591 C2605 0.961 . S
H2592 C2606 0.960 . S
H2593 C2606 0.961 . S
H2594 C2606 0.959 . S
H2595 C2609 0.929 . S
H2596 C2610 0.931 . S
H2597 C2612 0.930 1_556 S
C2598 H2586 0.930 . S
C2598 C2599 1.399 . S
C2598 C2603 1.399 . S
C2599 C2598 1.399 . S
C2599 C2600 1.376 . S
C2600 H2587 0.930 . S
C2600 C2599 1.376 . S
C2600 C2601 1.388 1_556 S
C2601 H2588 0.930 . S
C2601 C2600 1.388 1_554 S
C2601 C2602 1.390 . S
C2602 C2601 1.390 . S
C2602 C2603 1.394 1_554 S
C2602 C2608 1.465 1_545 S
C2603 C2598 1.399 . S
C2603 C2602 1.394 1_556 S
C2603 C2604 1.516 1_545 S
C2604 C2603 1.516 1_565 S
C2604 C2605 1.502 . S
C2604 C2606 1.561 . S
C2604 C2607 1.535 . S
C2605 H2589 0.959 . S
C2605 H2590 0.959 . S
C2605 H2591 0.961 . S
C2605 C2604 1.502 . S
C2606 H2592 0.960 . S
C2606 H2593 0.961 . S
C2606 H2594 0.959 . S
C2606 C2604 1.561 . S
C2607 C2604 1.535 . S
C2607 C2608 1.390 1_556 S
C2607 C2612 1.386 1_556 S
C2608 C2602 1.465 1_565 S
C2608 C2607 1.390 1_554 S
C2608 C2609 1.399 . S
C2609 H2595 0.929 . S
C2609 C2608 1.399 . S
C2609 C2610 1.385 . S
C2610 H2596 0.931 . S
C2610 C2609 1.385 . S
C2610 C2611 1.389 . S
C2611 C2610 1.389 . S
C2611 C2612 1.387 . S
C2612 H2597 0.930 1_554 S
C2612 C2607 1.386 1_554 S
C2612 C2611 1.387 . S
H2613 C2625 0.930 . S
H2614 C2627 0.930 . S
H2615 C2628 0.930 . S
H2616 C2632 0.959 . S
H2617 C2632 0.959 . S
H2618 C2632 0.961 . S
H2619 C2633 0.960 . S
H2620 C2633 0.961 . S
H2621 C2633 0.959 . S
H2622 C2636 0.929 . S
H2623 C2637 0.931 . S
H2624 C2639 0.930 . S
C2625 H2613 0.930 . S
C2625 C2626 1.399 . S
C2625 C2630 1.399 . S
C2626 C2625 1.399 . S
C2626 C2627 1.376 . S
C2627 H2614 0.930 . S
C2627 C2626 1.376 . S
C2627 C2628 1.388 . S
C2628 H2615 0.930 . S
C2628 C2627 1.388 . S
C2628 C2629 1.390 . S
C2629 C2628 1.390 . S
C2629 C2630 1.394 . S
C2629 C2635 1.465 . S
C2630 C2625 1.399 . S
C2630 C2629 1.394 . S
C2630 C2631 1.516 . S
C2631 C2630 1.516 . S
C2631 C2632 1.502 . S
C2631 C2633 1.561 . S
C2631 C2634 1.526 . S
C2632 H2616 0.959 . S
C2632 H2617 0.959 . S
C2632 H2618 0.961 . S
C2632 C2631 1.502 . S
C2633 H2619 0.960 . S
C2633 H2620 0.961 . S
C2633 H2621 0.959 . S
C2633 C2631 1.561 . S
C2634 C2631 1.526 . S
C2634 C2635 1.396 . S
C2634 C2639 1.390 . S
C2635 C2629 1.465 . S
C2635 C2634 1.396 . S
C2635 C2636 1.399 . S
C2636 H2622 0.929 . S
C2636 C2635 1.399 . S
C2636 C2637 1.385 . S
C2637 H2623 0.931 . S
C2637 C2636 1.385 . S
C2637 C2638 1.389 . S
C2638 C2637 1.389 . S
C2638 C2639 1.387 . S
C2639 H2624 0.930 . S
C2639 C2634 1.390 . S
C2639 C2638 1.387 . S
C1357 C69 1.512 . S
C1369 C58 1.590 . S
C1384 C142 1.598 . S
C1396 C153 1.465 . S
C1411 C237 1.555 . S
C1423 C226 1.489 . S
C1438 C321 1.584 . S
C1450 C310 1.510 . S
C1465 C405 1.561 . S
C1477 C394 1.491 . S
C1492 C489 1.556 . S
C1504 C478 1.477 . S
C1519 C562 1.520 . S
C1531 C573 1.535 . S
C1546 C657 1.484 . S
C1558 C646 1.603 . S
C1573 C741 1.489 . S
C1585 C730 1.586 . S
C1600 C814 1.591 . S
C1612 C825 1.470 . S
C1627 C909 1.485 . S
C1639 C898 1.575 . S
C1654 C982 1.499 . S
C1666 C993 1.551 . S
C1681 C1066 1.595 . S
C1693 C1077 1.462 . S
C1708 C1150 1.582 . S
C1720 C1161 1.503 . S
C1735 C1245 1.507 . S
C1747 C1234 1.551 1_554 S
C1762 C1329 1.566 . S
C1774 C1318 1.549 . S
C1789 C63 1.696 . S
C1801 C991 1.766 . S
C1816 C140 1.768 . S
C1828 C1327 1.767 . S
C1843 C231 1.696 . S
C1855 C830 1.689 . S
C1870 C315 1.745 . S
C1882 C1166 1.754 . S
C1897 C399 1.716 . S
C1909 C1159 1.777 . S
C1924 C998 1.721 . S
C1936 C476 1.772 . S
C1951 C560 1.736 . S
C1963 C1334 1.673 . S
C1978 C651 1.707 . S
C1990 C823 1.791 . S
C2005 C308 1.774 . S
C2017 C739 1.776 . S
C2032 C147 1.671 . S
C2044 C914 1.666 . S
C2059 C1082 1.669 . S
C2071 C483 1.665 . S
C2086 C644 1.768 . S
C2098 C1243 1.768 . S
C2113 C746 1.716 . S
C2125 C392 1.774 . S
C2140 C567 1.692 . S
C2152 C907 1.774 . S
C2167 C224 1.741 . S
C2179 C1250 1.671 . S
C2194 C56 1.767 . S
C2206 C1075 1.765 . S
C2221 C74 1.654 . S
C2233 C410 1.642 . S
C2248 C151 1.652 . S
C2260 C487 1.619 . S
C2275 C242 1.662 . S
C2287 C571 1.638 . S
C2302 C326 1.655 . S
C2314 C662 1.661 . S
C2329 C1071 1.620 . S
C2341 C728 1.598 . S
C2356 C1155 1.687 . S
C2368 C812 1.650 . S
C2383 C903 1.652 . S
C2395 C1232 1.657 . S
C2410 C1316 1.636 . S
C2422 C987 1.626 . S
C2437 C158 1.611 . S
C2449 C655 1.603 . S
C2464 C403 1.634 . S
C2476 C235 1.616 . S
C2491 C494 1.672 . S
C2503 C319 1.665 . S
C2518 C67 1.619 . S
C2530 C578 1.628 . S
C2545 C1323 1.667 . S
C2557 C819 1.658 . S
C2572 C1064 1.652 . S
C2584 C896 1.632 . S
C2599 C1148 1.623 . S
C2611 C980 1.640 . S
C2626 C1239 1.630 . S
C2638 C735 1.638 . S
