# Generated by pormake.
# Topology una, (4)-cn, num edge types: 1
# Building blocks:
#     Node 0, Type 0, BuildingBlock: AZAVOO_clean_sbu_0, # of connection points: 4
#     Node 1, Type 0, BuildingBlock: AZAVOO_clean_sbu_0, # of connection points: 4
#     Node 2, Type 0, BuildingBlock: AZAVOO_clean_sbu_0, # of connection points: 4
#     Node 3, Type 0, BuildingBlock: AZAVOO_clean_sbu_0, # of connection points: 4
#     Node 4, Type 0, BuildingBlock: AZAVOO_clean_sbu_0, # of connection points: 4
#     Node 5, Type 0, BuildingBlock: AZAVOO_clean_sbu_0, # of connection points: 4
#     Node 6, Type 0, BuildingBlock: AZAVOO_clean_sbu_0, # of connection points: 4
#     Node 7, Type 0, BuildingBlock: AZAVOO_clean_sbu_0, # of connection points: 4
#     Node 8, Type 0, BuildingBlock: AZAVOO_clean_sbu_0, # of connection points: 4
#     Node 9, Type 0, BuildingBlock: AZAVOO_clean_sbu_0, # of connection points: 4
#     Node 10, Type 0, BuildingBlock: AZAVOO_clean_sbu_0, # of connection points: 4
#     Node 11, Type 0, BuildingBlock: AZAVOO_clean_sbu_0, # of connection points: 4
#     Edge 12, Type (0, 0), BuildingBlock: ZUJKAS_clean_linker_0, # of connection points: 2
#     Edge 13, Type (0, 0), BuildingBlock: ZUJKAS_clean_linker_0, # of connection points: 2
#     Edge 14, Type (0, 0), BuildingBlock: ZUJKAS_clean_linker_0, # of connection points: 2
#     Edge 15, Type (0, 0), BuildingBlock: ZUJKAS_clean_linker_0, # of connection points: 2
#     Edge 16, Type (0, 0), BuildingBlock: ZUJKAS_clean_linker_0, # of connection points: 2
#     Edge 17, Type (0, 0), BuildingBlock: ZUJKAS_clean_linker_0, # of connection points: 2
#     Edge 18, Type (0, 0), BuildingBlock: ZUJKAS_clean_linker_0, # of connection points: 2
#     Edge 19, Type (0, 0), BuildingBlock: ZUJKAS_clean_linker_0, # of connection points: 2
#     Edge 20, Type (0, 0), BuildingBlock: ZUJKAS_clean_linker_0, # of connection points: 2
#     Edge 21, Type (0, 0), BuildingBlock: ZUJKAS_clean_linker_0, # of connection points: 2
#     Edge 22, Type (0, 0), BuildingBlock: ZUJKAS_clean_linker_0, # of connection points: 2
#     Edge 23, Type (0, 0), BuildingBlock: ZUJKAS_clean_linker_0, # of connection points: 2
#     Edge 24, Type (0, 0), BuildingBlock: ZUJKAS_clean_linker_0, # of connection points: 2
#     Edge 25, Type (0, 0), BuildingBlock: ZUJKAS_clean_linker_0, # of connection points: 2
#     Edge 26, Type (0, 0), BuildingBlock: ZUJKAS_clean_linker_0, # of connection points: 2
#     Edge 27, Type (0, 0), BuildingBlock: ZUJKAS_clean_linker_0, # of connection points: 2
#     Edge 28, Type (0, 0), BuildingBlock: ZUJKAS_clean_linker_0, # of connection points: 2
#     Edge 29, Type (0, 0), BuildingBlock: ZUJKAS_clean_linker_0, # of connection points: 2
#     Edge 30, Type (0, 0), BuildingBlock: ZUJKAS_clean_linker_0, # of connection points: 2
#     Edge 31, Type (0, 0), BuildingBlock: ZUJKAS_clean_linker_0, # of connection points: 2
#     Edge 32, Type (0, 0), BuildingBlock: ZUJKAS_clean_linker_0, # of connection points: 2
#     Edge 33, Type (0, 0), BuildingBlock: ZUJKAS_clean_linker_0, # of connection points: 2
#     Edge 34, Type (0, 0), BuildingBlock: ZUJKAS_clean_linker_0, # of connection points: 2
#     Edge 35, Type (0, 0), BuildingBlock: ZUJKAS_clean_linker_0, # of connection points: 2
# Relax obj value: 0.177
# Max RMSD: 0.208
# Mean RMSD: 0.204
data_MOF--net-una--node1-AZAVOO_clean_sbu_0--edge1-ZUJKAS_clean_linker_0
_symmetry_space_group_name_H-M    P1
_symmetry_Int_Tables_number       1
_symmetry_cell_setting            triclinic
loop_
_symmetry_equiv_pos_as_xyz
'x, y, z'
_cell_length_a     74.91265
_cell_length_b     72.09618
_cell_length_c     28.149376
_cell_angle_alpha  90.089138
_cell_angle_beta   89.921696
_cell_angle_gamma 121.31515
loop_
_atom_site_label
_atom_site_type_symbol
_atom_site_fract_x
_atom_site_fract_y
_atom_site_fract_z
_atom_type_partial_charge
Mg0 Mg 0.1551 0.45308 0.0152 0.0
O1 O 0.15421 0.47922 0.06016 0.0
O2 O 0.18346 0.49619 0.1034 0.0
Mg3 Mg 0.20277 0.48074 0.08756 0.0
C4 C 0.16601 0.49367 0.09038 0.0
C5 C 0.11117 0.4445 0.99042 0.0
O6 O 0.10994 0.44267 0.03692 0.0
O7 O 0.17945 0.47937 0.96662 0.0
O8 O 0.20819 0.49441 0.01194 0.0
O9 O 0.14006 0.42822 0.07325 0.0
O10 O 0.17407 0.45102 0.06523 0.0
C11 C 0.19893 0.49299 0.97282 0.0
C12 C 0.15881 0.43602 0.08933 0.0
O13 O 0.12815 0.44915 0.97002 0.0
Mg14 Mg 0.68535 0.10873 0.25165 0.0
O15 O 0.7036 0.13254 0.19236 0.0
O16 O 0.68677 0.12078 0.12341 0.0
Mg17 Mg 0.65618 0.08923 0.14023 0.0
C18 C 0.70236 0.13474 0.14784 0.0
C19 C 0.72237 0.13398 0.32254 0.0
O20 O 0.72315 0.11628 0.3179 0.0
O21 O 0.66266 0.12093 0.2546 0.0
O22 O 0.64555 0.10819 0.18588 0.0
O23 O 0.70046 0.08984 0.23264 0.0
O24 O 0.67056 0.08353 0.20268 0.0
C25 C 0.64875 0.11858 0.22485 0.0
C26 C 0.68523 0.07924 0.20301 0.0
O27 O 0.70787 0.13513 0.30215 0.0
Mg28 Mg 0.58239 0.70443 0.33229 0.0
O29 O 0.54852 0.67846 0.35126 0.0
O30 O 0.53225 0.69554 0.375 0.0
Mg31 Mg 0.55467 0.73197 0.36655 0.0
C32 C 0.53239 0.67818 0.36706 0.0
C33 C 0.58557 0.66282 0.32461 0.0
O34 O 0.57965 0.66088 0.3692 0.0
O35 O 0.57142 0.71035 0.26119 0.0
O36 O 0.55524 0.72735 0.28629 0.0
O37 O 0.59185 0.70752 0.40962 0.0
O38 O 0.58096 0.72711 0.37418 0.0
C39 C 0.56119 0.71971 0.253 0.0
C40 C 0.58699 0.7223 0.41232 0.0
O41 O 0.58752 0.67859 0.30023 0.0
Mg42 Mg 0.84148 0.5458 0.50167 0.0
O43 O 0.84186 0.52161 0.55357 0.0
O44 O 0.81306 0.50671 0.59837 0.0
Mg45 Mg 0.79308 0.51997 0.57138 0.0
C46 C 0.83051 0.50886 0.58671 0.0
C47 C 0.88616 0.55436 0.48809 0.0
O48 O 0.88555 0.55632 0.53439 0.0
O49 O 0.81849 0.51741 0.45526 0.0
O50 O 0.78953 0.50286 0.50005 0.0
O51 O 0.85447 0.57198 0.55748 0.0
O52 O 0.82084 0.54921 0.54383 0.0
C53 C 0.79925 0.50311 0.46244 0.0
C54 C 0.83517 0.56501 0.56811 0.0
O55 O 0.86994 0.54927 0.46382 0.0
Mg56 Mg 0.31434 0.89677 0.7647 0.0
O57 O 0.29754 0.87598 0.70035 0.0
O58 O 0.31511 0.89142 0.63376 0.0
Mg59 Mg 0.34498 0.92244 0.65748 0.0
C60 C 0.2994 0.87604 0.6554 0.0
C61 C 0.27641 0.86808 0.82974 0.0
O62 O 0.27581 0.88596 0.82907 0.0
O63 O 0.33765 0.88534 0.7624 0.0
O64 O 0.35549 0.90165 0.69617 0.0
O65 O 0.29854 0.91545 0.75155 0.0
O66 O 0.32942 0.92438 0.72237 0.0
C67 C 0.35199 0.88941 0.73216 0.0
C68 C 0.31423 0.92784 0.72434 0.0
O69 O 0.2913 0.86777 0.8089 0.0
Mg70 Mg 0.42558 0.29516 0.8235 0.0
O71 O 0.45945 0.32226 0.83881 0.0
O72 O 0.47753 0.3064 0.85614 0.0
Mg73 Mg 0.45594 0.26972 0.85053 0.0
C74 C 0.47645 0.32335 0.85055 0.0
C75 C 0.40287 0.32003 0.81328 0.0
O76 O 0.39262 0.30637 0.84794 0.0
O77 O 0.43487 0.28917 0.75015 0.0
O78 O 0.45231 0.27294 0.7709 0.0
O79 O 0.41794 0.29222 0.90171 0.0
O80 O 0.42916 0.2734 0.86387 0.0
C81 C 0.44501 0.27994 0.73937 0.0
C82 C 0.42359 0.27804 0.90305 0.0
O83 O 0.41826 0.31993 0.79456 0.0
Mg84 Mg 0.57826 0.89159 0.82016 0.0
O85 O 0.5718 0.86731 0.87907 0.0
O86 O 0.56519 0.87859 0.947 0.0
Mg87 Mg 0.56697 0.91057 0.93036 0.0
C88 C 0.56738 0.86481 0.9232 0.0
C89 C 0.59088 0.86747 0.74854 0.0
O90 O 0.60904 0.88554 0.75362 0.0
O91 O 0.54345 0.87961 0.81493 0.0
O92 O 0.53816 0.89249 0.88229 0.0
O93 O 0.61207 0.90995 0.83969 0.0
O94 O 0.58864 0.91632 0.87087 0.0
C95 C 0.53153 0.8822 0.84308 0.0
C96 C 0.60751 0.9202 0.87048 0.0
O97 O 0.57489 0.86565 0.76883 0.0
Mg98 Mg 0.70321 0.54176 0.04941 0.0
O99 O 0.67701 0.51832 -0.00069 0.0
O100 O 0.68811 0.49986 0.95769 0.0
Mg101 Mg 0.72153 0.51156 0.98088 0.0
C102 C 0.674 0.50405 0.96828 0.0
C103 C 0.68338 0.55407 0.13137 0.0
O104 O 0.69967 0.5559 0.15343 0.0
O105 O 0.69644 0.51344 0.09745 0.0
O106 O 0.70902 0.49657 0.05436 0.0
O107 O 0.71723 0.56724 0.99267 0.0
O108 O 0.72565 0.54249 0.00546 0.0
C109 C 0.70039 0.49831 0.09193 0.0
C110 C 0.728 0.55857 0.98068 0.0
O111 O 0.68017 0.54793 0.08828 0.0
Mg112 Mg 0.12896 0.70455 0.2424 0.0
O113 O 0.13732 0.67884 0.22514 0.0
O114 O 0.17072 0.696 0.20233 0.0
Mg115 Mg 0.18398 0.73248 0.2061 0.0
C116 C 0.15334 0.67857 0.21063 0.0
C117 C 0.08359 0.66408 0.25382 0.0
O118 O 0.08522 0.66367 0.2074 0.0
O119 O 0.14675 0.7127 0.31286 0.0
O120 O 0.17976 0.73025 0.28666 0.0
O121 O 0.12153 0.70563 0.16498 0.0
O122 O 0.15236 0.72662 0.19813 0.0
C123 C 0.16644 0.72306 0.32046 0.0
C124 C 0.14105 0.7206 0.16055 0.0
O125 O 0.09889 0.67865 0.27762 0.0
Mg126 Mg 0.41501 0.09942 0.3139 0.0
O127 O 0.42003 0.12215 0.37498 0.0
O128 O 0.42418 0.10923 0.44322 0.0
Mg129 Mg 0.42274 0.07754 0.42369 0.0
C130 C 0.423 0.12367 0.41967 0.0
C131 C 0.40559 0.12515 0.23924 0.0
O132 O 0.38773 0.10656 0.23703 0.0
O133 O 0.44975 0.11127 0.31342 0.0
O134 O 0.45317 0.09685 0.38053 0.0
O135 O 0.38084 0.08096 0.33042 0.0
O136 O 0.40361 0.07334 0.36023 0.0
C137 C 0.46089 0.10806 0.34272 0.0
C138 C 0.38484 0.06959 0.35922 0.0
O139 O 0.42008 0.12679 0.26556 0.0
Mg140 Mg 0.29919 0.45531 0.53672 0.0
O141 O 0.32679 0.48024 0.49151 0.0
O142 O 0.31661 0.49986 0.45125 0.0
Mg143 Mg 0.28278 0.48787 0.47138 0.0
C144 C 0.33044 0.49534 0.46228 0.0
C145 C 0.3146 0.43774 0.6162 0.0
O146 O 0.29667 0.43383 0.63352 0.0
O147 O 0.30486 0.48203 0.58866 0.0
O148 O 0.29316 0.50022 0.54774 0.0
O149 O 0.2858 0.43116 0.47698 0.0
O150 O 0.27792 0.45615 0.49165 0.0
C151 C 0.30083 0.49716 0.58538 0.0
C152 C 0.27531 0.44023 0.46581 0.0
O153 O 0.32074 0.44735 0.57645 0.0
Mg154 Mg 0.87162 0.30181 0.74111 0.0
O155 O 0.86261 0.32702 0.72368 0.0
O156 O 0.82898 0.30918 0.70222 0.0
Mg157 Mg 0.81597 0.27289 0.70999 0.0
C158 C 0.84633 0.32681 0.70937 0.0
C159 C 0.91713 0.34251 0.74679 0.0
O160 O 0.91438 0.34224 0.70065 0.0
O161 O 0.85524 0.29528 0.813 0.0
O162 O 0.82174 0.27735 0.79018 0.0
O163 O 0.87758 0.299 0.66336 0.0
O164 O 0.84744 0.27871 0.69988 0.0
C165 C 0.83572 0.28533 0.82255 0.0
C166 C 0.85805 0.28382 0.66126 0.0
O167 O 0.90239 0.32835 0.77253 0.0
H168 H 0.18574 0.46055 0.15868 0.0
H169 H 0.19838 0.44803 0.22358 0.0
H170 H 0.15426 0.38152 0.1854 0.0
H171 H 0.14155 0.39412 0.11941 0.0
H172 H 0.16465 0.40104 0.29777 0.0
H173 H 0.22841 0.41012 0.18044 0.0
H174 H 0.22152 0.43048 0.17387 0.0
H175 H 0.2029 0.40281 0.15829 0.0
C176 C 0.17862 0.44328 0.16425 0.0
C177 C 0.16301 0.42828 0.13369 0.0
C178 C 0.18575 0.43615 0.20144 0.0
C179 C 0.17742 0.41392 0.20856 0.0
C180 C 0.16086 0.39876 0.18009 0.0
H181 H 0.26528 0.40663 0.40374 0.0
H182 H 0.23802 0.39244 0.34212 0.0
C183 C 0.15358 0.40594 0.14278 0.0
C184 C 0.18749 0.40726 0.24385 0.0
H185 H 0.23517 0.41359 0.26413 0.0
C186 C 0.17975 0.403 0.29035 0.0
C187 C 0.20699 0.4095 0.23376 0.0
C188 C 0.21546 0.41331 0.1838 0.0
C189 C 0.19206 0.4031 0.32795 0.0
C190 C 0.2127 0.40814 0.31854 0.0
C191 C 0.21945 0.40999 0.27138 0.0
C192 C 0.22852 0.41556 0.35668 0.0
C193 C 0.18333 0.3991 0.37768 0.0
C194 C 0.2326 0.43362 0.38399 0.0
C195 C 0.24807 0.44176 0.41861 0.0
C196 C 0.26007 0.43222 0.42642 0.0
C197 C 0.25632 0.41435 0.39842 0.0
C198 C 0.24069 0.40615 0.36353 0.0
H199 H 0.16615 0.38758 0.37744 0.0
H200 H 0.1907 0.39252 0.40093 0.0
H201 H 0.18626 0.41463 0.39306 0.0
H202 H 0.2239 0.44161 0.37821 0.0
H203 H 0.25039 0.45542 0.43959 0.0
H204 H 0.87235 0.295 0.56903 0.0
H205 H 0.85337 0.27615 0.49597 0.0
H206 H 0.80158 0.22896 0.58073 0.0
H207 H 0.82007 0.24735 0.65265 0.0
H208 H 0.83682 0.23203 0.46798 0.0
H209 H 0.77402 0.25002 0.48725 0.0
H210 H 0.79857 0.2651 0.51856 0.0
H211 H 0.77784 0.23958 0.54157 0.0
C212 C 0.85689 0.28065 0.57182 0.0
C213 C 0.84754 0.2729 0.61652 0.0
C214 C 0.8461 0.26995 0.53022 0.0
C215 C 0.82587 0.25151 0.53307 0.0
C216 C 0.8169 0.24353 0.5777 0.0
H217 H 0.74991 0.13484 0.3872 0.0
H218 H 0.77741 0.16638 0.42957 0.0
C219 C 0.82755 0.2541 0.61886 0.0
C220 C 0.8139 0.23973 0.49028 0.0
H221 H 0.7648 0.21691 0.44465 0.0
C222 C 0.82126 0.2291 0.46191 0.0
C223 C 0.79381 0.23632 0.48172 0.0
C224 C 0.7857 0.24857 0.5086 0.0
C225 C 0.80831 0.2137 0.42783 0.0
C226 C 0.78736 0.20847 0.42317 0.0
C227 C 0.7807 0.22052 0.44875 0.0
C228 C 0.77159 0.18959 0.39503 0.0
C229 C 0.81713 0.20294 0.39794 0.0
C230 C 0.75861 0.19194 0.36282 0.0
C231 C 0.74247 0.17382 0.33967 0.0
C232 C 0.73911 0.15302 0.34801 0.0
C233 C 0.75221 0.15069 0.37989 0.0
C234 C 0.76813 0.16877 0.40363 0.0
H235 H 0.83418 0.21403 0.39223 0.0
H236 H 0.81492 0.18839 0.41681 0.0
H237 H 0.80931 0.19786 0.36281 0.0
H238 H 0.76085 0.20779 0.35588 0.0
H239 H 0.73273 0.17615 0.31493 0.0
H240 H 0.58879 0.71015 0.50452 0.0
H241 H 0.58705 0.72797 0.57789 0.0
H242 H 0.58429 0.77633 0.49363 0.0
H243 H 0.58598 0.75896 0.42144 0.0
H244 H 0.61378 0.77274 0.60933 0.0
H245 H 0.53248 0.75181 0.58067 0.0
H246 H 0.5434 0.73758 0.5514 0.0
H247 H 0.54793 0.76291 0.52795 0.0
C248 C 0.58783 0.72459 0.50192 0.0
C249 C 0.58712 0.73292 0.45729 0.0
C250 C 0.58681 0.73469 0.54368 0.0
C251 C 0.58499 0.75311 0.54094 0.0
C252 C 0.58508 0.76178 0.49645 0.0
H253 H 0.61892 0.86776 0.68617 0.0
H254 H 0.61664 0.83676 0.64504 0.0
C255 C 0.58606 0.7518 0.45517 0.0
C256 C 0.58331 0.764 0.58372 0.0
H257 H 0.55457 0.78475 0.62556 0.0
C258 C 0.60063 0.77496 0.61389 0.0
C259 C 0.56595 0.76648 0.59026 0.0
C260 C 0.5463 0.75386 0.56113 0.0
C261 C 0.60178 0.78988 0.64776 0.0
C262 C 0.58543 0.79427 0.65034 0.0
C263 C 0.56733 0.78178 0.62306 0.0
C264 C 0.58736 0.81284 0.6777 0.0
C265 C 0.62071 0.80111 0.67953 0.0
C266 C 0.57127 0.80989 0.7083 0.0
C267 C 0.57226 0.82769 0.73077 0.0
C268 C 0.58943 0.84877 0.72329 0.0
C269 C 0.60555 0.8517 0.69282 0.0
C270 C 0.6044 0.83393 0.66982 0.0
H271 H 0.6271 0.79048 0.68647 0.0
H272 H 0.63312 0.81594 0.66153 0.0
H273 H 0.61702 0.80583 0.71404 0.0
H274 H 0.55787 0.79381 0.71459 0.0
H275 H 0.55966 0.8249 0.75438 0.0
H276 H 0.80272 0.57103 0.56995 0.0
H277 H 0.78835 0.5795 0.63861 0.0
H278 H 0.83853 0.58551 0.72557 0.0
H279 H 0.85353 0.57795 0.65581 0.0
H280 H 0.77398 0.55232 0.71063 0.0
H281 H 0.83234 0.63415 0.77831 0.0
H282 H 0.8339 0.62504 0.71947 0.0
H283 H 0.84282 0.61692 0.77018 0.0
C284 C 0.81099 0.57477 0.60347 0.0
C285 C 0.82911 0.57374 0.60795 0.0
C286 C 0.80281 0.57964 0.6426 0.0
C287 C 0.81237 0.58319 0.6872 0.0
C288 C 0.83114 0.58329 0.69129 0.0
H289 H 0.75716 0.54841 0.95895 0.0
H290 H 0.77862 0.55802 0.88759 0.0
C291 C 0.83963 0.57884 0.65162 0.0
C292 C 0.80084 0.58327 0.72988 0.0
H293 H 0.80452 0.61078 0.83191 0.0
C294 C 0.78057 0.56533 0.73663 0.0
C295 C 0.80945 0.6002 0.7639 0.0
C296 C 0.83075 0.62027 0.75745 0.0
C297 C 0.7689 0.56356 0.77697 0.0
C298 C 0.77779 0.58003 0.81173 0.0
C299 C 0.79783 0.59825 0.80485 0.0
C300 C 0.76696 0.57719 0.85718 0.0
C301 C 0.74735 0.54376 0.78311 0.0
C302 C 0.75352 0.5851 0.86362 0.0
C303 C 0.74107 0.57955 0.90445 0.0
C304 C 0.74187 0.56588 0.93885 0.0
C305 C 0.75594 0.55869 0.93276 0.0
C306 C 0.76838 0.56432 0.8923 0.0
H307 H 0.74178 0.53363 0.75046 0.0
H308 H 0.74758 0.53367 0.8126 0.0
H309 H 0.73601 0.54868 0.79273 0.0
H310 H 0.75217 0.59491 0.83642 0.0
H311 H 0.73042 0.58537 0.90838 0.0
H312 H 0.26644 0.82625 0.81535 0.0
H313 H 0.23748 0.79326 0.85061 0.0
H314 H 0.21906 0.83203 0.92945 0.0
H315 H 0.24738 0.86488 0.89295 0.0
H316 H 0.23171 0.78137 0.93781 0.0
H317 H 0.16317 0.78534 0.88504 0.0
H318 H 0.18843 0.80228 0.85771 0.0
H319 H 0.18181 0.81059 0.91217 0.0
C320 C 0.2561 0.8277 0.83996 0.0
C321 C 0.25918 0.84815 0.85153 0.0
C322 C 0.23948 0.80882 0.85981 0.0
C323 C 0.22572 0.81006 0.89178 0.0
C324 C 0.22892 0.83052 0.90351 0.0
H325 H 0.17907 0.75636 0.14662 0.0
H326 H 0.19657 0.77228 0.07224 0.0
C327 C 0.24532 0.84935 0.88316 0.0
C328 C 0.20953 0.79042 0.91713 0.0
H329 H 0.1601 0.76736 0.96184 0.0
C330 C 0.21586 0.77791 0.94184 0.0
C331 C 0.18861 0.78534 0.92156 0.0
C332 C 0.18009 0.79648 0.89215 0.0
C333 C 0.20259 0.76213 0.97462 0.0
C334 C 0.18273 0.75921 0.98375 0.0
C335 C 0.17552 0.76996 0.95544 0.0
C336 C 0.17134 0.74865 0.02796 0.0
C337 C 0.21044 0.74967 0.00142 0.0
C338 C 0.15094 0.73044 0.02775 0.0
C339 C 0.14073 0.72113 0.07084 0.0
C340 C 0.15084 0.7301 0.1143 0.0
C341 C 0.171 0.74867 0.1139 0.0
C342 C 0.18109 0.75783 0.07132 0.0
H343 H 0.22171 0.74767 0.97962 0.0
H344 H 0.21872 0.75883 0.03392 0.0
H345 H 0.19738 0.73338 0.01216 0.0
H346 H 0.14307 0.72336 0.99447 0.0
H347 H 0.12512 0.70691 0.07015 0.0
H348 H 0.38293 0.126 0.1644 0.0
H349 H 0.38823 0.1579 0.12121 0.0
H350 H 0.43913 0.19954 0.21496 0.0
H351 H 0.43445 0.16768 0.25709 0.0
H352 H 0.38674 0.19321 0.148 0.0
H353 H 0.46698 0.21842 0.08749 0.0
H354 H 0.45002 0.19259 0.1155 0.0
H355 H 0.46343 0.21693 0.15071 0.0
C356 C 0.39529 0.14195 0.17567 0.0
C357 C 0.40849 0.14434 0.21356 0.0
C358 C 0.39824 0.16017 0.15116 0.0
C359 C 0.41429 0.18108 0.16443 0.0
C360 C 0.427 0.18355 0.20337 0.0
H361 H 0.41866 0.28762 -0.0047 0.0
H362 H 0.41815 0.26811 0.06753 0.0
C363 C 0.42429 0.16532 0.2274 0.0
C364 C 0.418 0.20006 0.13612 0.0
H365 H 0.45319 0.23921 0.06117 0.0
C366 C 0.40134 0.20347 0.1294 0.0
C367 C 0.43713 0.21345 0.11212 0.0
C368 C 0.45537 0.21013 0.11639 0.0
C369 C 0.40287 0.21907 0.09715 0.0
C370 C 0.42172 0.23185 0.07184 0.0
C371 C 0.4388 0.22941 0.08092 0.0
C372 C 0.42291 0.24479 0.02993 0.0
C373 C 0.3839 0.22073 0.08805 0.0
C374 C 0.42616 0.23841 0.98534 0.0
C375 C 0.42664 0.2495 0.94462 0.0
C376 C 0.42387 0.2673 0.94741 0.0
C377 C 0.42081 0.27393 0.99215 0.0
C378 C 0.42043 0.26278 0.03329 0.0
H379 H 0.36973 0.20767 0.10619 0.0
H380 H 0.38689 0.23661 0.10124 0.0
H381 H 0.38068 0.21986 0.04936 0.0
H382 H 0.42796 0.22448 0.9819 0.0
H383 H 0.42874 0.24373 0.91077 0.0
H384 H 0.13194 0.49634 0.06584 0.0
H385 H 0.1244 0.52419 0.09022 0.0
H386 H 0.17897 0.55357 0.17994 0.0
H387 H 0.18655 0.5258 0.15641 0.0
H388 H 0.14318 0.55154 0.22132 0.0
H389 H 0.16087 0.5869 0.03933 0.0
H390 H 0.1411 0.55859 0.04363 0.0
H391 H 0.16767 0.56748 0.05844 0.0
C392 C 0.14221 0.50857 0.09119 0.0
C393 C 0.16001 0.50898 0.10869 0.0
C394 C 0.1379 0.5245 0.10493 0.0
C395 C 0.15131 0.54109 0.13628 0.0
C396 C 0.16847 0.54093 0.15557 0.0
H397 H 0.18376 0.67162 0.17805 0.0
H398 H 0.18091 0.63698 0.16164 0.0
C399 C 0.17281 0.52506 0.1419 0.0
C400 C 0.14842 0.55946 0.14694 0.0
H401 H 0.15236 0.60458 0.09715 0.0
C402 C 0.14493 0.56304 0.19418 0.0
C403 C 0.15097 0.57451 0.1114 0.0
C404 C 0.15552 0.57188 0.06037 0.0
C405 C 0.14432 0.58153 0.20699 0.0
C406 C 0.1471 0.59667 0.1715 0.0
C407 C 0.15013 0.59284 0.12415 0.0
C408 C 0.14854 0.61742 0.18308 0.0
C409 C 0.14156 0.58523 0.25855 0.0
C410 C 0.13123 0.61787 0.20058 0.0
C411 C 0.13278 0.63772 0.21007 0.0
C412 C 0.15167 0.65744 0.20206 0.0
C413 C 0.16898 0.65681 0.18471 0.0
C414 C 0.16739 0.63701 0.17521 0.0
H415 H 0.14318 0.57393 0.28243 0.0
H416 H 0.15319 0.60217 0.26914 0.0
H417 H 0.12575 0.58269 0.2638 0.0
H418 H 0.11646 0.6029 0.20626 0.0
H419 H 0.11912 0.63759 0.22324 0.0
H420 H 0.62705 0.12874 0.16362 0.0
H421 H 0.5991 0.13542 0.18295 0.0
H422 H 0.6093 0.13126 0.33237 0.0
H423 H 0.63781 0.12529 0.31323 0.0
H424 H 0.56444 0.10582 0.22529 0.0
H425 H 0.59947 0.181 0.33299 0.0
H426 H 0.6151 0.17355 0.29829 0.0
H427 H 0.60546 0.16165 0.35588 0.0
C428 C 0.62369 0.12979 0.20064 0.0
C429 C 0.63453 0.12636 0.23693 0.0
C430 C 0.60772 0.13363 0.21163 0.0
C431 C 0.60213 0.13396 0.2591 0.0
C432 C 0.61361 0.13159 0.29551 0.0
H433 H 0.49028 0.10788 0.39993 0.0
H434 H 0.52559 0.11731 0.37816 0.0
C435 C 0.62984 0.12805 0.28453 0.0
C436 C 0.58266 0.1338 0.26992 0.0
H437 H 0.56206 0.15769 0.33723 0.0
C438 C 0.56401 0.11741 0.24916 0.0
C439 C 0.58206 0.14881 0.30136 0.0
C440 C 0.60164 0.16737 0.32304 0.0
C441 C 0.54475 0.11522 0.25992 0.0
C442 C 0.54409 0.12993 0.29204 0.0
C443 C 0.56269 0.14651 0.31246 0.0
C444 C 0.52395 0.1273 0.30674 0.0
C445 C 0.52511 0.0967 0.23814 0.0
C446 C 0.5116 0.1304 0.27411 0.0
C447 C 0.49136 0.12501 0.28635 0.0
C448 C 0.48313 0.11634 0.33143 0.0
C449 C 0.49601 0.11431 0.36476 0.0
C450 C 0.51625 0.1198 0.35252 0.0
H451 H 0.52796 0.08472 0.2203 0.0
H452 H 0.51288 0.08816 0.26569 0.0
H453 H 0.51896 0.10323 0.21131 0.0
H454 H 0.51739 0.13633 0.23866 0.0
H455 H 0.48192 0.12688 0.2599 0.0
H456 H 0.34221 0.51675 0.37759 0.0
H457 H 0.37764 0.54375 0.35199 0.0
H458 H 0.40217 0.53428 0.48237 0.0
H459 H 0.36696 0.50637 0.50655 0.0
H460 H 0.40115 0.58032 0.38938 0.0
H461 H 0.4452 0.53846 0.39512 0.0
H462 H 0.41707 0.52385 0.39878 0.0
H463 H 0.4328 0.53579 0.45123 0.0
C464 C 0.35526 0.52006 0.40013 0.0
C465 C 0.35187 0.50945 0.44395 0.0
C466 C 0.3755 0.53551 0.38556 0.0
C467 C 0.39273 0.54097 0.41493 0.0
C468 C 0.38934 0.52995 0.45825 0.0
H469 H 0.5011 0.66955 0.42903 0.0
H470 H 0.46785 0.6355 0.43901 0.0
C471 C 0.36914 0.51408 0.47226 0.0
C472 C 0.41372 0.55986 0.40294 0.0
H473 H 0.46582 0.57769 0.40152 0.0
C474 C 0.41522 0.57957 0.3913 0.0
C475 C 0.43217 0.55899 0.40464 0.0
C476 C 0.43168 0.53804 0.41259 0.0
C477 C 0.43457 0.59849 0.38296 0.0
C478 C 0.45312 0.59803 0.38856 0.0
C479 C 0.45165 0.57818 0.39828 0.0
C480 C 0.47409 0.61808 0.3852 0.0
C481 C 0.43482 0.61871 0.36777 0.0
C482 C 0.48924 0.61925 0.35381 0.0
C483 C 0.50856 0.6386 0.34899 0.0
C484 C 0.51291 0.65712 0.37513 0.0
C485 C 0.49803 0.65565 0.40777 0.0
C486 C 0.47895 0.63623 0.41325 0.0
H487 H 0.42008 0.6146 0.34943 0.0
H488 H 0.43626 0.62846 0.39966 0.0
H489 H 0.44811 0.62885 0.34356 0.0
H490 H 0.48593 0.60538 0.33215 0.0
H491 H 0.51977 0.63926 0.32364 0.0
H492 H 0.81987 0.49026 0.67481 0.0
H493 H 0.8272 0.46353 0.70791 0.0
H494 H 0.86099 0.46722 0.5804 0.0
H495 H 0.85481 0.49478 0.54865 0.0
H496 H 0.81363 0.42548 0.67874 0.0
H497 H 0.89932 0.4657 0.67322 0.0
H498 H 0.88626 0.48055 0.66437 0.0
H499 H 0.88998 0.46671 0.61537 0.0
C500 C 0.82929 0.48571 0.65443 0.0
C501 C 0.83681 0.49463 0.60923 0.0
C502 C 0.83347 0.47043 0.67331 0.0
C503 C 0.84493 0.46349 0.64704 0.0
C504 C 0.85276 0.47275 0.60223 0.0
H505 H 0.82235 0.33446 0.64967 0.0
H506 H 0.82305 0.36837 0.6384 0.0
C507 C 0.84904 0.48841 0.58386 0.0
C508 C 0.84665 0.44493 0.66384 0.0
H509 H 0.88011 0.4262 0.67079 0.0
C510 C 0.82828 0.42584 0.67782 0.0
C511 C 0.86576 0.44534 0.66371 0.0
C512 C 0.88644 0.46579 0.65388 0.0
C513 C 0.8283 0.40696 0.68939 0.0
C514 C 0.84704 0.40678 0.68475 0.0
C515 C 0.86563 0.42614 0.67324 0.0
C516 C 0.84745 0.38652 0.69017 0.0
C517 C 0.8082 0.38746 0.70663 0.0
C518 C 0.86178 0.38571 0.72096 0.0
C519 C 0.86182 0.36644 0.72642 0.0
C520 C 0.84737 0.3476 0.70157 0.0
C521 C 0.83342 0.34861 0.66993 0.0
C522 C 0.83369 0.36795 0.66376 0.0
H523 H 0.79811 0.39245 0.72451 0.0
H524 H 0.79936 0.37718 0.67577 0.0
H525 H 0.81117 0.37754 0.73186 0.0
H526 H 0.87271 0.39989 0.74135 0.0
H527 H 0.87278 0.36613 0.75101 0.0
H528 H 0.36175 0.87775 0.81635 0.0
H529 H 0.38933 0.86965 0.8298 0.0
H530 H 0.40113 0.87349 0.67905 0.0
H531 H 0.37418 0.88233 0.66554 0.0
H532 H 0.39809 0.83884 0.79967 0.0
H533 H 0.45712 0.92015 0.72984 0.0
H534 H 0.43053 0.91255 0.74197 0.0
H535 H 0.43687 0.90372 0.68811 0.0
C536 C 0.37003 0.87657 0.78605 0.0
C537 C 0.36608 0.88105 0.73999 0.0
C538 C 0.38578 0.87194 0.79377 0.0
C539 C 0.39765 0.87154 0.75553 0.0
C540 C 0.39259 0.87436 0.7092 0.0
H541 H 0.51446 0.87171 0.75376 0.0
H542 H 0.48013 0.86493 0.72954 0.0
C543 C 0.37713 0.87932 0.70154 0.0
C544 C 0.41618 0.86968 0.76434 0.0
H545 H 0.46918 0.89691 0.75062 0.0
C546 C 0.41362 0.85148 0.78879 0.0
C547 C 0.43648 0.88627 0.75031 0.0
C548 C 0.44051 0.90687 0.72652 0.0
C549 C 0.43085 0.84947 0.79966 0.0
C550 C 0.45108 0.86611 0.78584 0.0
C551 C 0.45359 0.88406 0.76061 0.0
C552 C 0.47017 0.86644 0.80086 0.0
C553 C 0.42736 0.82966 0.82601 0.0
C554 C 0.47575 0.86922 0.84898 0.0
C555 C 0.49535 0.87329 0.86286 0.0
C556 C 0.50976 0.87463 0.82884 0.0
C557 C 0.5037 0.8707 0.78084 0.0
C558 C 0.48412 0.86684 0.76693 0.0
H559 H 0.41089 0.81601 0.82317 0.0
H560 H 0.43781 0.82422 0.8123 0.0
H561 H 0.43097 0.83375 0.86419 0.0
H562 H 0.46536 0.86934 0.87562 0.0
H563 H 0.49948 0.87615 0.90014 0.0
H564 H 0.51374 0.33173 0.88656 0.0
H565 H 0.54501 0.36697 0.90174 0.0
H566 H 0.51409 0.39913 0.84865 0.0
H567 H 0.48244 0.36375 0.83324 0.0
H568 H 0.55744 0.41485 0.8131 0.0
H569 H 0.54962 0.40997 0.00946 0.0
H570 H 0.54655 0.38601 0.98167 0.0
H571 H 0.52786 0.39394 0.97004 0.0
C572 C 0.51349 0.34623 0.87799 0.0
C573 C 0.4955 0.34487 0.85883 0.0
C574 C 0.53138 0.36636 0.88688 0.0
C575 C 0.53171 0.38556 0.87678 0.0
C576 C 0.51402 0.38442 0.85688 0.0
H577 H 0.63866 0.50509 0.98796 0.0
H578 H 0.60311 0.47963 0.96055 0.0
C579 C 0.49598 0.36421 0.84822 0.0
C580 C 0.55075 0.40671 0.88715 0.0
H581 H 0.58312 0.43606 0.97835 0.0
C582 C 0.56295 0.41974 0.84921 0.0
C583 C 0.55769 0.41313 0.93428 0.0
C584 C 0.54468 0.40016 0.97631 0.0
C585 C 0.58259 0.43848 0.8572 0.0
C586 C 0.59017 0.44407 0.90426 0.0
C587 C 0.57736 0.43169 0.94225 0.0
C588 C 0.61191 0.46147 0.91503 0.0
C589 C 0.59518 0.45189 0.81522 0.0
C590 C 0.62867 0.45988 0.898 0.0
C591 C 0.649 0.47436 0.9136 0.0
C592 C 0.65296 0.49065 0.94689 0.0
C593 C 0.63621 0.49275 0.96237 0.0
C594 C 0.61587 0.47822 0.94675 0.0
H595 H 0.58493 0.44985 0.78467 0.0
H596 H 0.6047 0.46939 0.8245 0.0
H597 H 0.60591 0.44645 0.8037 0.0
H598 H 0.62593 0.44679 0.87432 0.0
H599 H 0.66148 0.47223 0.90091 0.0
H600 H 0.30446 0.53686 0.59062 0.0
H601 H 0.29733 0.55238 0.66015 0.0
H602 H 0.29013 0.49921 0.74558 0.0
H603 H 0.29836 0.48445 0.67726 0.0
H604 H 0.26213 0.53488 0.69882 0.0
H605 H 0.31543 0.54464 0.84254 0.0
H606 H 0.32086 0.54122 0.78171 0.0
H607 H 0.30522 0.5179 0.81925 0.0
C608 C 0.30215 0.52898 0.62474 0.0
C609 C 0.30182 0.50936 0.62848 0.0
C610 C 0.29804 0.53785 0.66444 0.0
C611 C 0.29326 0.52709 0.70839 0.0
C612 C 0.29436 0.50828 0.71268 0.0
H613 H 0.19119 0.48283 0.879 0.0
H614 H 0.21609 0.49883 0.81414 0.0
C615 C 0.29892 0.49969 0.6733 0.0
C616 C 0.28352 0.53292 0.74703 0.0
H617 H 0.27869 0.53088 0.86744 0.0
C618 C 0.2662 0.53471 0.73571 0.0
C619 C 0.28903 0.5335 0.79528 0.0
C620 C 0.30884 0.53448 0.81016 0.0
C621 C 0.25301 0.5346 0.77121 0.0
C622 C 0.25674 0.53172 0.81907 0.0
C623 C 0.27534 0.53244 0.83068 0.0
C624 C 0.24046 0.52488 0.85637 0.0
C625 C 0.23483 0.53683 0.75669 0.0
C626 C 0.24569 0.5341 0.90197 0.0
C627 C 0.23159 0.52452 0.93955 0.0
C628 C 0.21192 0.5057 0.93204 0.0
C629 C 0.20612 0.49746 0.88578 0.0
C630 C 0.22037 0.50675 0.84847 0.0
H631 H 0.23924 0.54821 0.72628 0.0
H632 H 0.22174 0.52082 0.74468 0.0
H633 H 0.22934 0.54279 0.78634 0.0
H634 H 0.26107 0.54805 0.90904 0.0
H635 H 0.23643 0.53128 0.97487 0.0
H636 H 0.70842 0.14297 0.05244 0.0
H637 H 0.73745 0.17458 0.01354 0.0
H638 H 0.76455 0.20179 0.15001 0.0
H639 H 0.73559 0.17024 0.18949 0.0
H640 H 0.76215 0.23134 0.08316 0.0
H641 H 0.79893 0.18821 0.00696 0.0
H642 H 0.77131 0.17478 -0.00384 0.0
H643 H 0.78072 0.17754 0.05602 0.0
C644 C 0.72052 0.15564 0.07427 0.0
C645 C 0.71971 0.15401 0.12406 0.0
C646 C 0.73714 0.17363 0.05197 0.0
C647 C 0.75321 0.1903 0.079 0.0
C648 C 0.75233 0.18898 0.12865 0.0
H649 H 0.8565 0.28182 0.89874 0.0
H650 H 0.84073 0.26399 0.97443 0.0
C651 C 0.73578 0.17092 0.15104 0.0
C652 C 0.7707 0.20922 0.0549 0.0
H653 H 0.80827 0.22225 0.97123 0.0
C654 C 0.77255 0.22953 0.05935 0.0
C655 C 0.78452 0.2069 0.02485 0.0
C656 C 0.78397 0.18573 0.02097 0.0
C657 C 0.78684 0.24721 0.03144 0.0
C658 C 0.79934 0.24432 -0.00186 0.0
C659 C 0.79862 0.22447 -0.00338 0.0
C660 C 0.81062 0.26004 0.95946 0.0
C661 C 0.78791 0.26858 0.03669 0.0
C662 C 0.79914 0.26442 0.92685 0.0
C663 C 0.80804 0.27447 0.88374 0.0
C664 C 0.82856 0.28025 0.87231 0.0
C665 C 0.84067 0.2776 0.90666 0.0
C666 C 0.83167 0.26737 0.94984 0.0
H667 H 0.78394 0.27076 0.07352 0.0
H668 H 0.80366 0.28248 0.0276 0.0
H669 H 0.77633 0.2688 0.0125 0.0
H670 H 0.78277 0.25855 0.93299 0.0
H671 H 0.79837 0.27641 0.85807 0.0
H672 H 0.5843 0.7235 0.17384 0.0
H673 H 0.58459 0.74101 0.09887 0.0
H674 H 0.532 0.74496 0.14711 0.0
H675 H 0.5314 0.72732 0.22125 0.0
H676 H 0.53214 0.73839 0.04749 0.0
H677 H 0.60786 0.80664 0.11632 0.0
H678 H 0.60599 0.78103 0.10677 0.0
H679 H 0.59066 0.78352 0.15258 0.0
C680 C 0.57236 0.72742 0.1677 0.0
C681 C 0.55811 0.72449 0.20374 0.0
C682 C 0.57262 0.73752 0.12502 0.0
C683 C 0.55861 0.7447 0.11806 0.0
C684 C 0.54302 0.73967 0.15193 0.0
H685 H 0.56153 0.85534 0.01809 0.0
H686 H 0.55975 0.82446 0.05849 0.0
C687 C 0.54278 0.72968 0.19441 0.0
C688 C 0.56186 0.76027 0.08001 0.0
H689 H 0.59281 0.81396 0.05212 0.0
C690 C 0.54561 0.7548 0.04761 0.0
C691 C 0.57934 0.78174 0.08097 0.0
C692 C 0.59694 0.78876 0.11611 0.0
C693 C 0.54599 0.77051 0.01748 0.0
C694 C 0.56308 0.7921 0.01992 0.0
C695 C 0.57976 0.79733 0.05059 0.0
C696 C 0.56315 0.81 0.99436 0.0
C697 C 0.52764 0.7643 0.98528 0.0
C698 C 0.5656 0.81196 0.94496 0.0
C699 C 0.56667 0.82963 0.92169 0.0
C700 C 0.56532 0.84561 0.94756 0.0
C701 C 0.56259 0.84335 -0.00293 0.0
C702 C 0.5616 0.82574 0.02023 0.0
H703 H 0.51461 0.74736 0.99131 0.0
H704 H 0.52176 0.77546 0.99082 0.0
H705 H 0.53271 0.76586 0.94769 0.0
H706 H 0.56704 0.80006 0.92455 0.0
H707 H 0.56878 0.83085 0.88351 0.0
H708 H 0.76384 0.46312 0.47029 0.0
H709 H 0.73883 0.44283 0.40697 0.0
H710 H 0.78071 0.4904 0.30508 0.0
H711 H 0.80603 0.50983 0.36748 0.0
H712 H 0.71886 0.4567 0.36543 0.0
H713 H 0.75728 0.43974 0.22174 0.0
H714 H 0.76855 0.44664 0.2805 0.0
H715 H 0.77473 0.46759 0.23696 0.0
C716 C 0.76799 0.46871 0.43398 0.0
C717 C 0.78679 0.48813 0.42375 0.0
C718 C 0.75368 0.45711 0.39783 0.0
C719 C 0.7578 0.46493 0.35098 0.0
C720 C 0.77728 0.48352 0.34043 0.0
H721 H 0.70127 0.50761 0.18579 0.0
H722 H 0.70758 0.48978 0.25087 0.0
C723 C 0.79177 0.49481 0.37635 0.0
C724 C 0.74073 0.45662 0.31532 0.0
H725 H 0.73446 0.45392 0.19543 0.0
C726 C 0.72198 0.45531 0.32837 0.0
C727 C 0.74402 0.45375 0.26709 0.0
C728 C 0.76217 0.45174 0.2511 0.0
C729 C 0.70799 0.4543 0.29395 0.0
C730 C 0.71337 0.45559 0.2454 0.0
C731 C 0.73055 0.45374 0.23259 0.0
C732 C 0.70418 0.46291 0.2086 0.0
C733 C 0.68815 0.45293 0.3102 0.0
C734 C 0.69982 0.45375 0.16289 0.0
C735 C 0.69686 0.46443 0.1251 0.0
C736 C 0.69792 0.48427 0.13256 0.0
C737 C 0.7002 0.49227 0.179 0.0
C738 C 0.70363 0.48189 0.21651 0.0
H739 H 0.68144 0.44184 0.34116 0.0
H740 H 0.69175 0.4692 0.32213 0.0
H741 H 0.67624 0.44704 0.28158 0.0
H742 H 0.7001 0.43913 0.1558 0.0
H743 H 0.69496 0.45781 0.08962 0.0
H744 H 0.14686 0.72812 0.3975 0.0
H745 H 0.16405 0.74852 0.47007 0.0
H746 H 0.22177 0.75437 0.42474 0.0
H747 H 0.20478 0.73389 0.35293 0.0
H748 H 0.21531 0.74981 0.52453 0.0
H749 H 0.20436 0.81427 0.44659 0.0
H750 H 0.18116 0.78834 0.45749 0.0
H751 H 0.19947 0.79074 0.41307 0.0
C752 C 0.16301 0.73311 0.40384 0.0
C753 C 0.1746 0.72977 0.36917 0.0
C754 C 0.17284 0.7449 0.4451 0.0
C755 C 0.19427 0.75335 0.45207 0.0
C756 C 0.20525 0.74811 0.41982 0.0
H757 H 0.29686 0.86994 0.5589 0.0
H758 H 0.2695 0.83905 0.51443 0.0
C759 C 0.19552 0.73645 0.37871 0.0
C760 C 0.20617 0.76996 0.48881 0.0
H761 H 0.22584 0.82355 0.51351 0.0
C762 C 0.21735 0.76583 0.52284 0.0
C763 C 0.20903 0.79093 0.48574 0.0
C764 C 0.19803 0.79652 0.44864 0.0
C765 C 0.23183 0.78235 0.55299 0.0
C766 C 0.23499 0.80341 0.54912 0.0
C767 C 0.2233 0.80734 0.51625 0.0
C768 C 0.25135 0.82198 0.57656 0.0
C769 C 0.24438 0.77745 0.58706 0.0
C770 C 0.25003 0.82264 0.6261 0.0
C771 C 0.26562 0.84024 0.65163 0.0
C772 C 0.2828 0.85755 0.62801 0.0
C773 C 0.28392 0.85689 0.57823 0.0
C774 C 0.26829 0.83928 0.55276 0.0
H775 H 0.24277 0.76152 0.57956 0.0
H776 H 0.26118 0.7903 0.58536 0.0
H777 H 0.23886 0.77708 0.62384 0.0
H778 H 0.2369 0.8096 0.64499 0.0
H779 H 0.26418 0.84023 0.68993 0.0
H780 H 0.47416 0.27314 0.69978 0.0
H781 H 0.47023 0.25301 0.62725 0.0
H782 H 0.41365 0.25226 0.59414 0.0
H783 H 0.41739 0.27233 0.66752 0.0
H784 H 0.40737 0.21187 0.60285 0.0
H785 H 0.47495 0.25975 0.48471 0.0
H786 H 0.48337 0.26046 0.54461 0.0
H787 H 0.46779 0.27215 0.53084 0.0
C788 C 0.46128 0.26939 0.67622 0.0
C789 C 0.44595 0.27407 0.68956 0.0
C790 C 0.45913 0.25801 0.63448 0.0
C791 C 0.44168 0.25118 0.60515 0.0
C792 C 0.42729 0.25749 0.61622 0.0
H793 H 0.42383 0.1587 0.3799 0.0
H794 H 0.42663 0.19006 0.42049 0.0
C795 C 0.4295 0.26904 0.65803 0.0
C796 C 0.43669 0.23423 0.56897 0.0
H797 H 0.45879 0.2204 0.48043 0.0
C798 C 0.41838 0.21389 0.5753 0.0
C799 C 0.45097 0.23685 0.5329 0.0
C800 C 0.47026 0.25858 0.52256 0.0
C801 C 0.41466 0.19579 0.54866 0.0
C802 C 0.4298 0.19804 0.5154 0.0
C803 C 0.4474 0.21865 0.50668 0.0
C804 C 0.42807 0.17901 0.49093 0.0
C805 C 0.3948 0.17429 0.55719 0.0
C806 C 0.42825 0.16257 0.51718 0.0
C807 C 0.42668 0.14459 0.49418 0.0
C808 C 0.42496 0.14279 0.44445 0.0
C809 C 0.42503 0.15948 0.41828 0.0
C810 C 0.42666 0.17745 0.44133 0.0
H811 H 0.38244 0.1765 0.57306 0.0
H812 H 0.38879 0.16494 0.52363 0.0
H813 H 0.39804 0.16455 0.58233 0.0
H814 H 0.42972 0.16371 0.5555 0.0
H815 H 0.42676 0.13211 0.51538 0.0
H816 H 0.10851 0.44774 0.89406 0.0
H817 H 0.07704 0.43674 0.84718 0.0
H818 H 0.04028 0.41835 0.97562 0.0
H819 H 0.07163 0.42973 0.02271 0.0
H820 H 0.04359 0.39623 0.84192 0.0
H821 H 0.01802 0.45118 0.90702 0.0
H822 H 0.04385 0.4561 0.91833 0.0
H823 H 0.02211 0.43738 0.9548 0.0
C824 C 0.09378 0.44168 0.91238 0.0
C825 C 0.09257 0.43958 0.96213 0.0
C826 C 0.07582 0.43542 0.88553 0.0
C827 C 0.05635 0.42702 0.90791 0.0
C828 C 0.05519 0.42531 0.95762 0.0
H829 H 0.92729 0.34833 0.84104 0.0
H830 H 0.96186 0.3714 0.87612 0.0
C831 C 0.07313 0.43166 0.9845 0.0
C832 C 0.03698 0.41809 0.87931 0.0
H833 H 0.99183 0.41854 0.86759 0.0
C834 C 0.03244 0.40138 0.84687 0.0
C835 C 0.02245 0.42482 0.88586 0.0
C836 C 0.02695 0.44351 0.91805 0.0
C837 C 0.01335 0.39053 0.82251 0.0
C838 C 0.99851 0.3967 0.83047 0.0
C839 C 0.00326 0.41384 0.86174 0.0
C840 C 0.97745 0.38451 0.80903 0.0
C841 C 0.00878 0.37189 0.79002 0.0
C842 C 0.97475 0.38468 0.75977 0.0
C843 C 0.95499 0.37151 0.73953 0.0
C844 C 0.93765 0.35794 0.76829 0.0
C845 C 0.94033 0.35848 0.81783 0.0
C846 C 0.96005 0.37169 0.83799 0.0
H847 H 0.02049 0.36692 0.79372 0.0
H848 H 0.99302 0.35762 0.79747 0.0
H849 H 0.00897 0.3768 0.7526 0.0
H850 H 0.98799 0.39468 0.73694 0.0
H851 H 0.95344 0.37157 0.70129 0.0
H852 H 0.64988 0.94478 0.85932 0.0
H853 H 0.67544 0.97202 0.91482 0.0
H854 H 0.62589 0.95628 0.01487 0.0
H855 H 0.60065 0.92936 0.96034 0.0
H856 H 0.67299 0.00792 0.94675 0.0
H857 H 0.67212 0.95945 0.0992 0.0
H858 H 0.66395 0.94813 0.04027 0.0
H859 H 0.64611 0.95042 0.07929 0.0
C860 C 0.64456 0.94694 0.89353 0.0
C861 C 0.62318 0.93517 0.90519 0.0
C862 C 0.65916 0.96244 0.92513 0.0
C863 C 0.65259 0.9659 0.96922 0.0
C864 C 0.63137 0.95357 0.98143 0.0
H865 H 0.65445 0.05404 0.14031 0.0
H866 H 0.65407 0.02926 0.08127 0.0
C867 C 0.61684 0.93839 0.94977 0.0
C868 C 0.66696 0.9841 0.0005 0.0
H869 H 0.67788 0.99542 0.11829 0.0
C870 C 0.67481 0.0053 0.98392 0.0
C871 C 0.66956 0.9807 0.04884 0.0
C872 C 0.66267 0.95842 0.06781 0.0
C873 C 0.68292 0.02287 0.01558 0.0
C874 C 0.68308 0.01901 0.06471 0.0
C875 C 0.67753 0.99826 0.08056 0.0
C876 C 0.68448 0.03487 0.09997 0.0
C877 C 0.68964 0.04515 -0.00314 0.0
C878 C 0.70164 0.04597 0.13058 0.0
C879 C 0.70205 0.06054 0.16432 0.0
C880 C 0.68518 0.06387 0.16807 0.0
C881 C 0.66791 0.05229 0.13781 0.0
C882 C 0.66763 0.03805 0.10404 0.0
H883 H 0.69411 0.04676 0.95877 0.0
H884 H 0.67644 0.04793 0.00023 0.0
H885 H 0.70302 0.05792 0.0176 0.0
H886 H 0.71467 0.04346 0.12818 0.0
H887 H 0.71552 0.06913 0.18735 0.0
H888 H 0.64892 0.55292 0.09522 0.0
H889 H 0.6295 0.56821 0.13063 0.0
H890 H 0.66839 0.58647 0.2554 0.0
H891 H 0.68802 0.57135 0.22029 0.0
H892 H 0.60765 0.56025 0.22129 0.0
H893 H 0.67609 0.64415 0.20187 0.0
H894 H 0.67419 0.62122 0.17102 0.0
H895 H 0.68101 0.62547 0.23288 0.0
C896 C 0.65323 0.55999 0.1304 0.0
C897 C 0.67019 0.56115 0.15472 0.0
C898 C 0.64207 0.56866 0.15059 0.0
C899 C 0.64773 0.5787 0.19527 0.0
C900 C 0.664 0.57902 0.22057 0.0
H901 H 0.58609 0.6292 0.36841 0.0
H902 H 0.5995 0.60719 0.33632 0.0
C903 C 0.67515 0.57033 0.20047 0.0
C904 C 0.63741 0.58995 0.21414 0.0
H905 H 0.6465 0.64029 0.24119 0.0
C906 C 0.61609 0.57774 0.22576 0.0
C907 C 0.64846 0.61279 0.21918 0.0
C908 C 0.67116 0.62677 0.20526 0.0
C909 C 0.60557 0.58781 0.24296 0.0
C910 C 0.61676 0.61061 0.24888 0.0
C911 C 0.63801 0.62279 0.2368 0.0
C912 C 0.6068 0.62236 0.26703 0.0
C913 C 0.58254 0.57407 0.25382 0.0
C914 C 0.60649 0.63818 0.23871 0.0
C915 C 0.59895 0.65084 0.25696 0.0
C916 C 0.59171 0.64802 0.30406 0.0
C917 C 0.59152 0.63175 0.33198 0.0
C918 C 0.59907 0.61907 0.31363 0.0
H919 H 0.5753 0.55776 0.23713 0.0
H920 H 0.58034 0.57185 0.29283 0.0
H921 H 0.57419 0.58214 0.24132 0.0
H922 H 0.61245 0.641 0.20268 0.0
H923 H 0.59928 0.66319 0.23444 0.0
H924 H 0.07624 0.65848 0.34929 0.0
H925 H 0.04287 0.63529 0.38925 0.0
H926 H 0.01253 0.61236 0.25347 0.0
H927 H 0.04596 0.63518 0.21315 0.0
H928 H 0.00893 0.63912 0.37995 0.0
H929 H 0.98834 0.55609 0.32761 0.0
H930 H 0.01434 0.57946 0.32051 0.0
H931 H 0.99424 0.57409 0.2782 0.0
C932 C 0.06253 0.64828 0.32789 0.0
C933 C 0.06374 0.64873 0.27801 0.0
C934 C 0.04348 0.63501 0.35081 0.0
C935 C 0.02526 0.62191 0.32439 0.0
C936 C 0.02647 0.62196 0.27462 0.0
H937 H 0.89358 0.55478 0.39262 0.0
H938 H 0.92752 0.56948 0.35344 0.0
C939 C 0.04557 0.63514 0.25161 0.0
C940 C 0.00478 0.60981 0.34885 0.0
H941 H 0.96131 0.55944 0.36395 0.0
C942 C 0.99862 0.62167 0.37679 0.0
C943 C 0.99129 0.58706 0.34441 0.0
C944 C 0.99743 0.57338 0.31642 0.0
C945 C 0.97922 0.61148 0.39985 0.0
C946 C 0.96571 0.58879 0.39528 0.0
C947 C 0.97178 0.57685 0.36736 0.0
C948 C 0.94508 0.5774 0.41891 0.0
C949 C 0.97311 0.62515 0.42813 0.0
C950 C 0.94375 0.5764 0.46861 0.0
C951 C 0.92444 0.56805 0.49112 0.0
C952 C 0.90612 0.56056 0.46424 0.0
C953 C 0.90741 0.56054 0.41436 0.0
C954 C 0.92676 0.56888 0.39189 0.0
H955 H 0.98336 0.64274 0.42025 0.0
H956 H 0.95666 0.62022 0.42068 0.0
H957 H 0.9744 0.62272 0.4666 0.0
H958 H 0.95774 0.58269 0.48999 0.0
H959 H 0.92399 0.56814 0.52957 0.0
H960 H 0.34817 0.06639 0.3876 0.0
H961 H 0.32403 0.04231 0.44966 0.0
H962 H 0.36224 0.01429 0.4691 0.0
H963 H 0.38625 0.03808 0.40799 0.0
H964 H 0.31396 0.98406 0.46203 0.0
H965 H 0.34532 0.05061 0.59645 0.0
H966 H 0.33829 0.05445 0.53754 0.0
H967 H 0.36108 0.05268 0.54584 0.0
C968 C 0.35123 0.05489 0.40482 0.0
C969 C 0.36917 0.05421 0.39332 0.0
C970 C 0.33748 0.04122 0.44016 0.0
C971 C 0.34146 0.02663 0.46378 0.0
C972 C 0.35893 0.02545 0.4511 0.0
H973 H 0.34753 0.96149 0.68094 0.0
H974 H 0.34747 0.98587 0.62126 0.0
C975 C 0.37268 0.03914 0.41636 0.0
C976 C 0.32855 0.01326 0.50397 0.0
H977 H 0.329 0.01471 0.62502 0.0
C978 C 0.31644 0.9907 0.49767 0.0
C979 C 0.33198 0.02211 0.5502 0.0
C980 C 0.34484 0.04629 0.55837 0.0
C981 C 0.30934 0.97663 0.53684 0.0
C982 C 0.3146 0.98548 0.58312 0.0
C983 C 0.32496 0.00805 0.58938 0.0
C984 C 0.31403 0.97211 0.62343 0.0
C985 C 0.29816 0.95245 0.52855 0.0
C986 C 0.29522 0.95657 0.64504 0.0
C987 C 0.29522 0.94256 0.67953 0.0
C988 C 0.314 0.94385 0.6922 0.0
C989 C 0.3328 0.95997 0.67158 0.0
C990 C 0.33281 0.974 0.63769 0.0
H991 H 0.29512 0.94819 0.49027 0.0
H992 H 0.30766 0.94597 0.54282 0.0
H993 H 0.28301 0.9443 0.54776 0.0
H994 H 0.28058 0.95494 0.63437 0.0
H995 H 0.2805 0.93025 0.69489 0.0
H996 H 0.3043 0.41424 0.69831 0.0
H997 H 0.32196 0.39716 0.73394 0.0
H998 H 0.36883 0.42422 0.62392 0.0
H999 H 0.35138 0.44153 0.58813 0.0
H1000 H 0.32833 0.36668 0.68559 0.0
H1001 H 0.40334 0.43776 0.74716 0.0
H1002 H 0.38069 0.4395 0.73353 0.0
H1003 H 0.39654 0.43883 0.68642 0.0
C1004 C 0.31853 0.41684 0.68202 0.0
C1005 C 0.3264 0.4292 0.64029 0.0
C1006 C 0.32859 0.40706 0.70244 0.0
C1007 C 0.34677 0.40959 0.68178 0.0
C1008 C 0.355 0.42237 0.64086 0.0
H1009 H 0.41923 0.34891 0.73933 0.0
H1010 H 0.40611 0.37116 0.70706 0.0
C1011 C 0.34494 0.43215 0.62033 0.0
C1012 C 0.3561 0.39743 0.70097 0.0
H1013 H 0.40012 0.40329 0.75181 0.0
C1014 C 0.34399 0.37467 0.70026 0.0
C1015 C 0.37661 0.40794 0.71958 0.0
C1016 C 0.39005 0.43236 0.72218 0.0
C1017 C 0.35186 0.36209 0.71753 0.0
C1018 C 0.37224 0.37258 0.73685 0.0
C1019 C 0.38448 0.39534 0.73706 0.0
C1020 C 0.38087 0.36006 0.75779 0.0
C1021 C 0.33839 0.33768 0.71427 0.0
C1022 C 0.37127 0.34688 0.79757 0.0
C1023 C 0.37866 0.33415 0.81599 0.0
C1024 C 0.39588 0.33447 0.7951 0.0
C1025 C 0.40588 0.34823 0.75609 0.0
C1026 C 0.39844 0.36097 0.73766 0.0
H1027 H 0.32569 0.33246 0.68772 0.0
H1028 H 0.34788 0.33046 0.70457 0.0
H1029 H 0.33106 0.33107 0.74934 0.0
H1030 H 0.35792 0.34628 0.81413 0.0
H1031 H 0.3707 0.32388 0.84629 0.0
loop_
_geom_bond_atom_site_label_1
_geom_bond_atom_site_label_2
_geom_bond_distance
_geom_bond_site_symmetry_2
_ccdc_geom_bond_type
Mg0 O1 2.028 . S
Mg0 O7 1.986 1_554 S
Mg0 O9 2.114 . S
Mg0 O10 2.251 . S
Mg0 O13 2.010 . S
O1 Mg0 2.028 . S
O1 C4 1.250 . S
O2 Mg3 2.028 . S
O2 C4 1.248 . S
Mg3 O2 2.028 . S
Mg3 O8 2.032 1_554 S
Mg3 O10 2.079 . S
C4 O1 1.250 . S
C4 O2 1.248 . S
C5 O6 1.264 . S
C5 O13 1.249 . S
O6 C5 1.264 . S
O7 Mg0 1.986 1_556 S
O7 C11 1.246 . S
O8 Mg3 2.032 1_556 S
O8 C11 1.259 . S
O9 Mg0 2.114 . S
O9 C12 1.252 . S
O10 Mg0 2.251 . S
O10 Mg3 2.079 . S
O10 C12 1.273 . S
C11 O7 1.246 . S
C11 O8 1.259 . S
C12 O9 1.252 . S
C12 O10 1.273 . S
O13 Mg0 2.010 . S
O13 C5 1.249 . S
Mg14 O15 2.028 . S
Mg14 O21 1.986 . S
Mg14 O23 2.114 . S
Mg14 O24 2.251 . S
Mg14 O27 2.010 . S
O15 Mg14 2.028 . S
O15 C18 1.250 . S
O16 Mg17 2.028 . S
O16 C18 1.248 . S
Mg17 O16 2.028 . S
Mg17 O22 2.032 . S
Mg17 O24 2.079 . S
C18 O15 1.250 . S
C18 O16 1.248 . S
C19 O20 1.264 . S
C19 O27 1.249 . S
O20 C19 1.264 . S
O21 Mg14 1.986 . S
O21 C25 1.246 . S
O22 Mg17 2.032 . S
O22 C25 1.259 . S
O23 Mg14 2.114 . S
O23 C26 1.252 . S
O24 Mg14 2.251 . S
O24 Mg17 2.079 . S
O24 C26 1.273 . S
C25 O21 1.246 . S
C25 O22 1.259 . S
C26 O23 1.252 . S
C26 O24 1.273 . S
O27 Mg14 2.010 . S
O27 C19 1.249 . S
Mg28 O29 2.028 . S
Mg28 O35 1.986 . S
Mg28 O37 2.114 . S
Mg28 O38 2.251 . S
Mg28 O41 2.010 . S
O29 Mg28 2.028 . S
O29 C32 1.250 . S
O30 Mg31 2.028 . S
O30 C32 1.248 . S
Mg31 O30 2.028 . S
Mg31 O36 2.032 . S
Mg31 O38 2.079 . S
C32 O29 1.250 . S
C32 O30 1.248 . S
C33 O34 1.264 . S
C33 O41 1.249 . S
O34 C33 1.264 . S
O35 Mg28 1.986 . S
O35 C39 1.246 . S
O36 Mg31 2.032 . S
O36 C39 1.259 . S
O37 Mg28 2.114 . S
O37 C40 1.252 . S
O38 Mg28 2.251 . S
O38 Mg31 2.079 . S
O38 C40 1.273 . S
C39 O35 1.246 . S
C39 O36 1.259 . S
C40 O37 1.252 . S
C40 O38 1.273 . S
O41 Mg28 2.010 . S
O41 C33 1.249 . S
Mg42 O43 2.028 . S
Mg42 O49 1.986 . S
Mg42 O51 2.114 . S
Mg42 O52 2.251 . S
Mg42 O55 2.010 . S
O43 Mg42 2.028 . S
O43 C46 1.250 . S
O44 Mg45 2.028 . S
O44 C46 1.248 . S
Mg45 O44 2.028 . S
Mg45 O50 2.032 . S
Mg45 O52 2.079 . S
C46 O43 1.250 . S
C46 O44 1.248 . S
C47 O48 1.264 . S
C47 O55 1.249 . S
O48 C47 1.264 . S
O49 Mg42 1.986 . S
O49 C53 1.246 . S
O50 Mg45 2.032 . S
O50 C53 1.259 . S
O51 Mg42 2.114 . S
O51 C54 1.252 . S
O52 Mg42 2.251 . S
O52 Mg45 2.079 . S
O52 C54 1.273 . S
C53 O49 1.246 . S
C53 O50 1.259 . S
C54 O51 1.252 . S
C54 O52 1.273 . S
O55 Mg42 2.010 . S
O55 C47 1.249 . S
Mg56 O57 2.028 . S
Mg56 O63 1.986 . S
Mg56 O65 2.114 . S
Mg56 O66 2.251 . S
Mg56 O69 2.010 . S
O57 Mg56 2.028 . S
O57 C60 1.250 . S
O58 Mg59 2.028 . S
O58 C60 1.248 . S
Mg59 O58 2.028 . S
Mg59 O64 2.032 . S
Mg59 O66 2.079 . S
C60 O57 1.250 . S
C60 O58 1.248 . S
C61 O62 1.264 . S
C61 O69 1.249 . S
O62 C61 1.264 . S
O63 Mg56 1.986 . S
O63 C67 1.246 . S
O64 Mg59 2.032 . S
O64 C67 1.259 . S
O65 Mg56 2.114 . S
O65 C68 1.252 . S
O66 Mg56 2.251 . S
O66 Mg59 2.079 . S
O66 C68 1.273 . S
C67 O63 1.246 . S
C67 O64 1.259 . S
C68 O65 1.252 . S
C68 O66 1.273 . S
O69 Mg56 2.010 . S
O69 C61 1.249 . S
Mg70 O71 2.028 . S
Mg70 O77 1.986 . S
Mg70 O79 2.114 . S
Mg70 O80 2.251 . S
Mg70 O83 2.010 . S
O71 Mg70 2.028 . S
O71 C74 1.250 . S
O72 Mg73 2.028 . S
O72 C74 1.248 . S
Mg73 O72 2.028 . S
Mg73 O78 2.032 . S
Mg73 O80 2.079 . S
C74 O71 1.250 . S
C74 O72 1.248 . S
C75 O76 1.264 . S
C75 O83 1.249 . S
O76 C75 1.264 . S
O77 Mg70 1.986 . S
O77 C81 1.246 . S
O78 Mg73 2.032 . S
O78 C81 1.259 . S
O79 Mg70 2.114 . S
O79 C82 1.252 . S
O80 Mg70 2.251 . S
O80 Mg73 2.079 . S
O80 C82 1.273 . S
C81 O77 1.246 . S
C81 O78 1.259 . S
C82 O79 1.252 . S
C82 O80 1.273 . S
O83 Mg70 2.010 . S
O83 C75 1.249 . S
Mg84 O85 2.028 . S
Mg84 O91 1.986 . S
Mg84 O93 2.114 . S
Mg84 O94 2.251 . S
Mg84 O97 2.010 . S
O85 Mg84 2.028 . S
O85 C88 1.250 . S
O86 Mg87 2.028 . S
O86 C88 1.248 . S
Mg87 O86 2.028 . S
Mg87 O92 2.032 . S
Mg87 O94 2.079 . S
C88 O85 1.250 . S
C88 O86 1.248 . S
C89 O90 1.264 . S
C89 O97 1.249 . S
O90 C89 1.264 . S
O91 Mg84 1.986 . S
O91 C95 1.246 . S
O92 Mg87 2.032 . S
O92 C95 1.259 . S
O93 Mg84 2.114 . S
O93 C96 1.252 . S
O94 Mg84 2.251 . S
O94 Mg87 2.079 . S
O94 C96 1.273 . S
C95 O91 1.246 . S
C95 O92 1.259 . S
C96 O93 1.252 . S
C96 O94 1.273 . S
O97 Mg84 2.010 . S
O97 C89 1.249 . S
Mg98 O99 2.028 . S
Mg98 O105 1.986 . S
Mg98 O107 2.114 1_554 S
Mg98 O108 2.251 1_554 S
Mg98 O111 2.010 . S
O99 Mg98 2.028 . S
O99 C102 1.250 . S
O100 Mg101 2.028 . S
O100 C102 1.248 . S
Mg101 O100 2.028 . S
Mg101 O106 2.032 . S
Mg101 O108 2.079 1_554 S
C102 O99 1.250 . S
C102 O100 1.248 . S
C103 O104 1.264 . S
C103 O111 1.249 . S
O104 C103 1.264 . S
O105 Mg98 1.986 . S
O105 C109 1.246 . S
O106 Mg101 2.032 . S
O106 C109 1.259 . S
O107 Mg98 2.114 1_556 S
O107 C110 1.252 . S
O108 Mg98 2.251 1_556 S
O108 Mg101 2.079 1_556 S
O108 C110 1.273 . S
C109 O105 1.246 . S
C109 O106 1.259 . S
C110 O107 1.252 . S
C110 O108 1.273 . S
O111 Mg98 2.010 . S
O111 C103 1.249 . S
Mg112 O113 2.028 . S
Mg112 O119 1.986 . S
Mg112 O121 2.114 . S
Mg112 O122 2.251 . S
Mg112 O125 2.010 . S
O113 Mg112 2.028 . S
O113 C116 1.250 . S
O114 Mg115 2.028 . S
O114 C116 1.248 . S
Mg115 O114 2.028 . S
Mg115 O120 2.032 . S
Mg115 O122 2.079 . S
C116 O113 1.250 . S
C116 O114 1.248 . S
C117 O118 1.264 . S
C117 O125 1.249 . S
O118 C117 1.264 . S
O119 Mg112 1.986 . S
O119 C123 1.246 . S
O120 Mg115 2.032 . S
O120 C123 1.259 . S
O121 Mg112 2.114 . S
O121 C124 1.252 . S
O122 Mg112 2.251 . S
O122 Mg115 2.079 . S
O122 C124 1.273 . S
C123 O119 1.246 . S
C123 O120 1.259 . S
C124 O121 1.252 . S
C124 O122 1.273 . S
O125 Mg112 2.010 . S
O125 C117 1.249 . S
Mg126 O127 2.028 . S
Mg126 O133 1.986 . S
Mg126 O135 2.114 . S
Mg126 O136 2.251 . S
Mg126 O139 2.010 . S
O127 Mg126 2.028 . S
O127 C130 1.250 . S
O128 Mg129 2.028 . S
O128 C130 1.248 . S
Mg129 O128 2.028 . S
Mg129 O134 2.032 . S
Mg129 O136 2.079 . S
C130 O127 1.250 . S
C130 O128 1.248 . S
C131 O132 1.264 . S
C131 O139 1.249 . S
O132 C131 1.264 . S
O133 Mg126 1.986 . S
O133 C137 1.246 . S
O134 Mg129 2.032 . S
O134 C137 1.259 . S
O135 Mg126 2.114 . S
O135 C138 1.252 . S
O136 Mg126 2.251 . S
O136 Mg129 2.079 . S
O136 C138 1.273 . S
C137 O133 1.246 . S
C137 O134 1.259 . S
C138 O135 1.252 . S
C138 O136 1.273 . S
O139 Mg126 2.010 . S
O139 C131 1.249 . S
Mg140 O141 2.028 . S
Mg140 O147 1.986 . S
Mg140 O149 2.114 . S
Mg140 O150 2.251 . S
Mg140 O153 2.010 . S
O141 Mg140 2.028 . S
O141 C144 1.250 . S
O142 Mg143 2.028 . S
O142 C144 1.248 . S
Mg143 O142 2.028 . S
Mg143 O148 2.032 . S
Mg143 O150 2.079 . S
C144 O141 1.250 . S
C144 O142 1.248 . S
C145 O146 1.264 . S
C145 O153 1.249 . S
O146 C145 1.264 . S
O147 Mg140 1.986 . S
O147 C151 1.246 . S
O148 Mg143 2.032 . S
O148 C151 1.259 . S
O149 Mg140 2.114 . S
O149 C152 1.252 . S
O150 Mg140 2.251 . S
O150 Mg143 2.079 . S
O150 C152 1.273 . S
C151 O147 1.246 . S
C151 O148 1.259 . S
C152 O149 1.252 . S
C152 O150 1.273 . S
O153 Mg140 2.010 . S
O153 C145 1.249 . S
Mg154 O155 2.028 . S
Mg154 O161 1.986 . S
Mg154 O163 2.114 . S
Mg154 O164 2.251 . S
Mg154 O167 2.010 . S
O155 Mg154 2.028 . S
O155 C158 1.250 . S
O156 Mg157 2.028 . S
O156 C158 1.248 . S
Mg157 O156 2.028 . S
Mg157 O162 2.032 . S
Mg157 O164 2.079 . S
C158 O155 1.250 . S
C158 O156 1.248 . S
C159 O160 1.264 . S
C159 O167 1.249 . S
O160 C159 1.264 . S
O161 Mg154 1.986 . S
O161 C165 1.246 . S
O162 Mg157 2.032 . S
O162 C165 1.259 . S
O163 Mg154 2.114 . S
O163 C166 1.252 . S
O164 Mg154 2.251 . S
O164 Mg157 2.079 . S
O164 C166 1.273 . S
C165 O161 1.246 . S
C165 O162 1.259 . S
C166 O163 1.252 . S
C166 O164 1.273 . S
O167 Mg154 2.010 . S
O167 C159 1.249 . S
H168 C176 0.929 . S
H169 C178 0.930 . S
H170 C180 0.930 . S
H171 C183 0.929 . S
H172 C186 0.930 . S
H173 C188 0.960 . S
H174 C188 0.960 . S
H175 C188 0.960 . S
C176 H168 0.929 . S
C176 C177 1.377 . S
C176 C178 1.384 . S
C177 C176 1.377 . S
C177 C183 1.390 . S
C178 H169 0.930 . S
C178 C176 1.384 . S
C178 C179 1.372 . S
C179 C178 1.372 . S
C179 C180 1.400 . S
C179 C184 1.490 . S
C180 H170 0.930 . S
C180 C179 1.400 . S
C180 C183 1.386 . S
H181 C197 0.930 . S
H182 C198 0.931 . S
C183 H171 0.929 . S
C183 C177 1.390 . S
C183 C180 1.386 . S
C184 C179 1.490 . S
C184 C186 1.395 . S
C184 C187 1.403 . S
H185 C191 0.930 . S
C186 H172 0.930 . S
C186 C184 1.395 . S
C186 C189 1.403 . S
C187 C184 1.403 . S
C187 C188 1.524 . S
C187 C191 1.400 . S
C188 H173 0.960 . S
C188 H174 0.960 . S
C188 H175 0.960 . S
C188 C187 1.524 . S
C189 C186 1.403 . S
C189 C190 1.392 . S
C189 C193 1.495 . S
C190 C189 1.392 . S
C190 C191 1.385 . S
C190 C192 1.478 . S
C191 H185 0.930 . S
C191 C187 1.400 . S
C191 C190 1.385 . S
C192 C190 1.478 . S
C192 C194 1.381 . S
C192 C198 1.383 . S
C193 C189 1.495 . S
C193 H199 0.959 . S
C193 H200 0.961 . S
C193 H201 0.960 . S
C194 C192 1.381 . S
C194 C195 1.394 . S
C194 H202 0.930 . S
C195 C194 1.394 . S
C195 C196 1.383 . S
C195 H203 0.929 . S
C196 C195 1.383 . S
C196 C197 1.377 . S
C197 H181 0.930 . S
C197 C196 1.377 . S
C197 C198 1.379 . S
C198 H182 0.931 . S
C198 C192 1.383 . S
C198 C197 1.379 . S
H199 C193 0.959 . S
H200 C193 0.961 . S
H201 C193 0.960 . S
H202 C194 0.930 . S
H203 C195 0.929 . S
H204 C212 0.929 . S
H205 C214 0.930 . S
H206 C216 0.930 . S
H207 C219 0.929 . S
H208 C222 0.930 . S
H209 C224 0.960 . S
H210 C224 0.960 . S
H211 C224 0.960 . S
C212 H204 0.929 . S
C212 C213 1.377 . S
C212 C214 1.384 . S
C213 C212 1.377 . S
C213 C219 1.390 . S
C214 H205 0.930 . S
C214 C212 1.384 . S
C214 C215 1.372 . S
C215 C214 1.372 . S
C215 C216 1.400 . S
C215 C220 1.490 . S
C216 H206 0.930 . S
C216 C215 1.400 . S
C216 C219 1.386 . S
H217 C233 0.930 . S
H218 C234 0.931 . S
C219 H207 0.929 . S
C219 C213 1.390 . S
C219 C216 1.386 . S
C220 C215 1.490 . S
C220 C222 1.395 . S
C220 C223 1.403 . S
H221 C227 0.930 . S
C222 H208 0.930 . S
C222 C220 1.395 . S
C222 C225 1.403 . S
C223 C220 1.403 . S
C223 C224 1.524 . S
C223 C227 1.400 . S
C224 H209 0.960 . S
C224 H210 0.960 . S
C224 H211 0.960 . S
C224 C223 1.524 . S
C225 C222 1.403 . S
C225 C226 1.392 . S
C225 C229 1.495 . S
C226 C225 1.392 . S
C226 C227 1.385 . S
C226 C228 1.478 . S
C227 H221 0.930 . S
C227 C223 1.400 . S
C227 C226 1.385 . S
C228 C226 1.478 . S
C228 C230 1.381 . S
C228 C234 1.383 . S
C229 C225 1.495 . S
C229 H235 0.959 . S
C229 H236 0.961 . S
C229 H237 0.960 . S
C230 C228 1.381 . S
C230 C231 1.394 . S
C230 H238 0.930 . S
C231 C230 1.394 . S
C231 C232 1.383 . S
C231 H239 0.929 . S
C232 C231 1.383 . S
C232 C233 1.377 . S
C233 H217 0.930 . S
C233 C232 1.377 . S
C233 C234 1.379 . S
C234 H218 0.931 . S
C234 C228 1.383 . S
C234 C233 1.379 . S
H235 C229 0.959 . S
H236 C229 0.961 . S
H237 C229 0.960 . S
H238 C230 0.930 . S
H239 C231 0.929 . S
H240 C248 0.929 . S
H241 C250 0.930 . S
H242 C252 0.930 . S
H243 C255 0.929 . S
H244 C258 0.930 . S
H245 C260 0.960 . S
H246 C260 0.960 . S
H247 C260 0.960 . S
C248 H240 0.929 . S
C248 C249 1.377 . S
C248 C250 1.384 . S
C249 C248 1.377 . S
C249 C255 1.390 . S
C250 H241 0.930 . S
C250 C248 1.384 . S
C250 C251 1.372 . S
C251 C250 1.372 . S
C251 C252 1.400 . S
C251 C256 1.490 . S
C252 H242 0.930 . S
C252 C251 1.400 . S
C252 C255 1.386 . S
H253 C269 0.930 . S
H254 C270 0.931 . S
C255 H243 0.929 . S
C255 C249 1.390 . S
C255 C252 1.386 . S
C256 C251 1.490 . S
C256 C258 1.395 . S
C256 C259 1.403 . S
H257 C263 0.930 . S
C258 H244 0.930 . S
C258 C256 1.395 . S
C258 C261 1.403 . S
C259 C256 1.403 . S
C259 C260 1.524 . S
C259 C263 1.400 . S
C260 H245 0.960 . S
C260 H246 0.960 . S
C260 H247 0.960 . S
C260 C259 1.524 . S
C261 C258 1.403 . S
C261 C262 1.392 . S
C261 C265 1.495 . S
C262 C261 1.392 . S
C262 C263 1.385 . S
C262 C264 1.478 . S
C263 H257 0.930 . S
C263 C259 1.400 . S
C263 C262 1.385 . S
C264 C262 1.478 . S
C264 C266 1.381 . S
C264 C270 1.383 . S
C265 C261 1.495 . S
C265 H271 0.959 . S
C265 H272 0.961 . S
C265 H273 0.960 . S
C266 C264 1.381 . S
C266 C267 1.394 . S
C266 H274 0.930 . S
C267 C266 1.394 . S
C267 C268 1.383 . S
C267 H275 0.929 . S
C268 C267 1.383 . S
C268 C269 1.377 . S
C269 H253 0.930 . S
C269 C268 1.377 . S
C269 C270 1.379 . S
C270 H254 0.931 . S
C270 C264 1.383 . S
C270 C269 1.379 . S
H271 C265 0.959 . S
H272 C265 0.961 . S
H273 C265 0.960 . S
H274 C266 0.930 . S
H275 C267 0.929 . S
H276 C284 0.929 . S
H277 C286 0.930 . S
H278 C288 0.930 . S
H279 C291 0.929 . S
H280 C294 0.930 . S
H281 C296 0.960 . S
H282 C296 0.960 . S
H283 C296 0.960 . S
C284 H276 0.929 . S
C284 C285 1.377 . S
C284 C286 1.384 . S
C285 C284 1.377 . S
C285 C291 1.390 . S
C286 H277 0.930 . S
C286 C284 1.384 . S
C286 C287 1.372 . S
C287 C286 1.372 . S
C287 C288 1.400 . S
C287 C292 1.490 . S
C288 H278 0.930 . S
C288 C287 1.400 . S
C288 C291 1.386 . S
H289 C305 0.930 . S
H290 C306 0.931 . S
C291 H279 0.929 . S
C291 C285 1.390 . S
C291 C288 1.386 . S
C292 C287 1.490 . S
C292 C294 1.395 . S
C292 C295 1.403 . S
H293 C299 0.930 . S
C294 H280 0.930 . S
C294 C292 1.395 . S
C294 C297 1.403 . S
C295 C292 1.403 . S
C295 C296 1.524 . S
C295 C299 1.400 . S
C296 H281 0.960 . S
C296 H282 0.960 . S
C296 H283 0.960 . S
C296 C295 1.524 . S
C297 C294 1.403 . S
C297 C298 1.392 . S
C297 C301 1.495 . S
C298 C297 1.392 . S
C298 C299 1.385 . S
C298 C300 1.478 . S
C299 H293 0.930 . S
C299 C295 1.400 . S
C299 C298 1.385 . S
C300 C298 1.478 . S
C300 C302 1.381 . S
C300 C306 1.383 . S
C301 C297 1.495 . S
C301 H307 0.959 . S
C301 H308 0.961 . S
C301 H309 0.960 . S
C302 C300 1.381 . S
C302 C303 1.394 . S
C302 H310 0.930 . S
C303 C302 1.394 . S
C303 C304 1.383 . S
C303 H311 0.929 . S
C304 C303 1.383 . S
C304 C305 1.377 . S
C305 H289 0.930 . S
C305 C304 1.377 . S
C305 C306 1.379 . S
C306 H290 0.931 . S
C306 C300 1.383 . S
C306 C305 1.379 . S
H307 C301 0.959 . S
H308 C301 0.961 . S
H309 C301 0.960 . S
H310 C302 0.930 . S
H311 C303 0.929 . S
H312 C320 0.929 . S
H313 C322 0.930 . S
H314 C324 0.930 . S
H315 C327 0.929 . S
H316 C330 0.930 . S
H317 C332 0.960 . S
H318 C332 0.960 . S
H319 C332 0.960 . S
C320 H312 0.929 . S
C320 C321 1.377 . S
C320 C322 1.384 . S
C321 C320 1.377 . S
C321 C327 1.390 . S
C322 H313 0.930 . S
C322 C320 1.384 . S
C322 C323 1.372 . S
C323 C322 1.372 . S
C323 C324 1.400 . S
C323 C328 1.490 . S
C324 H314 0.930 . S
C324 C323 1.400 . S
C324 C327 1.386 . S
H325 C341 0.930 . S
H326 C342 0.931 . S
C327 H315 0.929 . S
C327 C321 1.390 . S
C327 C324 1.386 . S
C328 C323 1.490 . S
C328 C330 1.395 . S
C328 C331 1.403 . S
H329 C335 0.930 . S
C330 H316 0.930 . S
C330 C328 1.395 . S
C330 C333 1.403 1_556 S
C331 C328 1.403 . S
C331 C332 1.524 . S
C331 C335 1.400 1_556 S
C332 H317 0.960 . S
C332 H318 0.960 . S
C332 H319 0.960 . S
C332 C331 1.524 . S
C333 C330 1.403 1_554 S
C333 C334 1.392 . S
C333 C337 1.495 . S
C334 C333 1.392 . S
C334 C335 1.385 . S
C334 C336 1.478 . S
C335 H329 0.930 . S
C335 C331 1.400 1_554 S
C335 C334 1.385 . S
C336 C334 1.478 . S
C336 C338 1.381 . S
C336 C342 1.383 . S
C337 C333 1.495 . S
C337 H343 0.959 . S
C337 H344 0.961 . S
C337 H345 0.960 . S
C338 C336 1.381 . S
C338 C339 1.394 . S
C338 H346 0.930 . S
C339 C338 1.394 . S
C339 C340 1.383 . S
C339 H347 0.929 . S
C340 C339 1.383 . S
C340 C341 1.377 . S
C341 H325 0.930 . S
C341 C340 1.377 . S
C341 C342 1.379 . S
C342 H326 0.931 . S
C342 C336 1.383 . S
C342 C341 1.379 . S
H343 C337 0.959 . S
H344 C337 0.961 . S
H345 C337 0.960 . S
H346 C338 0.930 . S
H347 C339 0.929 . S
H348 C356 0.929 . S
H349 C358 0.930 . S
H350 C360 0.930 . S
H351 C363 0.929 . S
H352 C366 0.930 . S
H353 C368 0.960 . S
H354 C368 0.960 . S
H355 C368 0.960 . S
C356 H348 0.929 . S
C356 C357 1.377 . S
C356 C358 1.384 . S
C357 C356 1.377 . S
C357 C363 1.390 . S
C358 H349 0.930 . S
C358 C356 1.384 . S
C358 C359 1.372 . S
C359 C358 1.372 . S
C359 C360 1.400 . S
C359 C364 1.490 . S
C360 H350 0.930 . S
C360 C359 1.400 . S
C360 C363 1.386 . S
H361 C377 0.930 . S
H362 C378 0.931 . S
C363 H351 0.929 . S
C363 C357 1.390 . S
C363 C360 1.386 . S
C364 C359 1.490 . S
C364 C366 1.395 . S
C364 C367 1.403 . S
H365 C371 0.930 . S
C366 H352 0.930 . S
C366 C364 1.395 . S
C366 C369 1.403 . S
C367 C364 1.403 . S
C367 C368 1.524 . S
C367 C371 1.400 . S
C368 H353 0.960 . S
C368 H354 0.960 . S
C368 H355 0.960 . S
C368 C367 1.524 . S
C369 C366 1.403 . S
C369 C370 1.392 . S
C369 C373 1.495 . S
C370 C369 1.392 . S
C370 C371 1.385 . S
C370 C372 1.478 . S
C371 H365 0.930 . S
C371 C367 1.400 . S
C371 C370 1.385 . S
C372 C370 1.478 . S
C372 C374 1.381 1_554 S
C372 C378 1.383 . S
C373 C369 1.495 . S
C373 H379 0.959 . S
C373 H380 0.961 . S
C373 H381 0.960 . S
C374 C372 1.381 1_556 S
C374 C375 1.394 . S
C374 H382 0.930 . S
C375 C374 1.394 . S
C375 C376 1.383 . S
C375 H383 0.929 . S
C376 C375 1.383 . S
C376 C377 1.377 . S
C377 H361 0.930 . S
C377 C376 1.377 . S
C377 C378 1.379 1_556 S
C378 H362 0.931 . S
C378 C372 1.383 . S
C378 C377 1.379 1_554 S
H379 C373 0.959 . S
H380 C373 0.961 . S
H381 C373 0.960 . S
H382 C374 0.930 . S
H383 C375 0.929 . S
H384 C392 0.929 . S
H385 C394 0.930 . S
H386 C396 0.930 . S
H387 C399 0.929 . S
H388 C402 0.930 . S
H389 C404 0.960 . S
H390 C404 0.960 . S
H391 C404 0.960 . S
C392 H384 0.929 . S
C392 C393 1.377 . S
C392 C394 1.384 . S
C393 C392 1.377 . S
C393 C399 1.390 . S
C394 H385 0.930 . S
C394 C392 1.384 . S
C394 C395 1.372 . S
C395 C394 1.372 . S
C395 C396 1.400 . S
C395 C400 1.490 . S
C396 H386 0.930 . S
C396 C395 1.400 . S
C396 C399 1.386 . S
H397 C413 0.930 . S
H398 C414 0.931 . S
C399 H387 0.929 . S
C399 C393 1.390 . S
C399 C396 1.386 . S
C400 C395 1.490 . S
C400 C402 1.395 . S
C400 C403 1.403 . S
H401 C407 0.930 . S
C402 H388 0.930 . S
C402 C400 1.395 . S
C402 C405 1.403 . S
C403 C400 1.403 . S
C403 C404 1.524 . S
C403 C407 1.400 . S
C404 H389 0.960 . S
C404 H390 0.960 . S
C404 H391 0.960 . S
C404 C403 1.524 . S
C405 C402 1.403 . S
C405 C406 1.392 . S
C405 C409 1.495 . S
C406 C405 1.392 . S
C406 C407 1.385 . S
C406 C408 1.478 . S
C407 H401 0.930 . S
C407 C403 1.400 . S
C407 C406 1.385 . S
C408 C406 1.478 . S
C408 C410 1.381 . S
C408 C414 1.383 . S
C409 C405 1.495 . S
C409 H415 0.959 . S
C409 H416 0.961 . S
C409 H417 0.960 . S
C410 C408 1.381 . S
C410 C411 1.394 . S
C410 H418 0.930 . S
C411 C410 1.394 . S
C411 C412 1.383 . S
C411 H419 0.929 . S
C412 C411 1.383 . S
C412 C413 1.377 . S
C413 H397 0.930 . S
C413 C412 1.377 . S
C413 C414 1.379 . S
C414 H398 0.931 . S
C414 C408 1.383 . S
C414 C413 1.379 . S
H415 C409 0.959 . S
H416 C409 0.961 . S
H417 C409 0.960 . S
H418 C410 0.930 . S
H419 C411 0.929 . S
H420 C428 0.929 . S
H421 C430 0.930 . S
H422 C432 0.930 . S
H423 C435 0.929 . S
H424 C438 0.930 . S
H425 C440 0.960 . S
H426 C440 0.960 . S
H427 C440 0.960 . S
C428 H420 0.929 . S
C428 C429 1.377 . S
C428 C430 1.384 . S
C429 C428 1.377 . S
C429 C435 1.390 . S
C430 H421 0.930 . S
C430 C428 1.384 . S
C430 C431 1.372 . S
C431 C430 1.372 . S
C431 C432 1.400 . S
C431 C436 1.490 . S
C432 H422 0.930 . S
C432 C431 1.400 . S
C432 C435 1.386 . S
H433 C449 0.930 . S
H434 C450 0.931 . S
C435 H423 0.929 . S
C435 C429 1.390 . S
C435 C432 1.386 . S
C436 C431 1.490 . S
C436 C438 1.395 . S
C436 C439 1.403 . S
H437 C443 0.930 . S
C438 H424 0.930 . S
C438 C436 1.395 . S
C438 C441 1.403 . S
C439 C436 1.403 . S
C439 C440 1.524 . S
C439 C443 1.400 . S
C440 H425 0.960 . S
C440 H426 0.960 . S
C440 H427 0.960 . S
C440 C439 1.524 . S
C441 C438 1.403 . S
C441 C442 1.392 . S
C441 C445 1.495 . S
C442 C441 1.392 . S
C442 C443 1.385 . S
C442 C444 1.478 . S
C443 H437 0.930 . S
C443 C439 1.400 . S
C443 C442 1.385 . S
C444 C442 1.478 . S
C444 C446 1.381 . S
C444 C450 1.383 . S
C445 C441 1.495 . S
C445 H451 0.959 . S
C445 H452 0.961 . S
C445 H453 0.960 . S
C446 C444 1.381 . S
C446 C447 1.394 . S
C446 H454 0.930 . S
C447 C446 1.394 . S
C447 C448 1.383 . S
C447 H455 0.929 . S
C448 C447 1.383 . S
C448 C449 1.377 . S
C449 H433 0.930 . S
C449 C448 1.377 . S
C449 C450 1.379 . S
C450 H434 0.931 . S
C450 C444 1.383 . S
C450 C449 1.379 . S
H451 C445 0.959 . S
H452 C445 0.961 . S
H453 C445 0.960 . S
H454 C446 0.930 . S
H455 C447 0.929 . S
H456 C464 0.929 . S
H457 C466 0.930 . S
H458 C468 0.930 . S
H459 C471 0.929 . S
H460 C474 0.930 . S
H461 C476 0.960 . S
H462 C476 0.960 . S
H463 C476 0.960 . S
C464 H456 0.929 . S
C464 C465 1.377 . S
C464 C466 1.384 . S
C465 C464 1.377 . S
C465 C471 1.390 . S
C466 H457 0.930 . S
C466 C464 1.384 . S
C466 C467 1.372 . S
C467 C466 1.372 . S
C467 C468 1.400 . S
C467 C472 1.490 . S
C468 H458 0.930 . S
C468 C467 1.400 . S
C468 C471 1.386 . S
H469 C485 0.930 . S
H470 C486 0.931 . S
C471 H459 0.929 . S
C471 C465 1.390 . S
C471 C468 1.386 . S
C472 C467 1.490 . S
C472 C474 1.395 . S
C472 C475 1.403 . S
H473 C479 0.930 . S
C474 H460 0.930 . S
C474 C472 1.395 . S
C474 C477 1.403 . S
C475 C472 1.403 . S
C475 C476 1.524 . S
C475 C479 1.400 . S
C476 H461 0.960 . S
C476 H462 0.960 . S
C476 H463 0.960 . S
C476 C475 1.524 . S
C477 C474 1.403 . S
C477 C478 1.392 . S
C477 C481 1.495 . S
C478 C477 1.392 . S
C478 C479 1.385 . S
C478 C480 1.478 . S
C479 H473 0.930 . S
C479 C475 1.400 . S
C479 C478 1.385 . S
C480 C478 1.478 . S
C480 C482 1.381 . S
C480 C486 1.383 . S
C481 C477 1.495 . S
C481 H487 0.959 . S
C481 H488 0.961 . S
C481 H489 0.960 . S
C482 C480 1.381 . S
C482 C483 1.394 . S
C482 H490 0.930 . S
C483 C482 1.394 . S
C483 C484 1.383 . S
C483 H491 0.929 . S
C484 C483 1.383 . S
C484 C485 1.377 . S
C485 H469 0.930 . S
C485 C484 1.377 . S
C485 C486 1.379 . S
C486 H470 0.931 . S
C486 C480 1.383 . S
C486 C485 1.379 . S
H487 C481 0.959 . S
H488 C481 0.961 . S
H489 C481 0.960 . S
H490 C482 0.930 . S
H491 C483 0.929 . S
H492 C500 0.929 . S
H493 C502 0.930 . S
H494 C504 0.930 . S
H495 C507 0.929 . S
H496 C510 0.930 . S
H497 C512 0.960 . S
H498 C512 0.960 . S
H499 C512 0.960 . S
C500 H492 0.929 . S
C500 C501 1.377 . S
C500 C502 1.384 . S
C501 C500 1.377 . S
C501 C507 1.390 . S
C502 H493 0.930 . S
C502 C500 1.384 . S
C502 C503 1.372 . S
C503 C502 1.372 . S
C503 C504 1.400 . S
C503 C508 1.490 . S
C504 H494 0.930 . S
C504 C503 1.400 . S
C504 C507 1.386 . S
H505 C521 0.930 . S
H506 C522 0.931 . S
C507 H495 0.929 . S
C507 C501 1.390 . S
C507 C504 1.386 . S
C508 C503 1.490 . S
C508 C510 1.395 . S
C508 C511 1.403 . S
H509 C515 0.930 . S
C510 H496 0.930 . S
C510 C508 1.395 . S
C510 C513 1.403 . S
C511 C508 1.403 . S
C511 C512 1.524 . S
C511 C515 1.400 . S
C512 H497 0.960 . S
C512 H498 0.960 . S
C512 H499 0.960 . S
C512 C511 1.524 . S
C513 C510 1.403 . S
C513 C514 1.392 . S
C513 C517 1.495 . S
C514 C513 1.392 . S
C514 C515 1.385 . S
C514 C516 1.478 . S
C515 H509 0.930 . S
C515 C511 1.400 . S
C515 C514 1.385 . S
C516 C514 1.478 . S
C516 C518 1.381 . S
C516 C522 1.383 . S
C517 C513 1.495 . S
C517 H523 0.959 . S
C517 H524 0.961 . S
C517 H525 0.960 . S
C518 C516 1.381 . S
C518 C519 1.394 . S
C518 H526 0.930 . S
C519 C518 1.394 . S
C519 C520 1.383 . S
C519 H527 0.929 . S
C520 C519 1.383 . S
C520 C521 1.377 . S
C521 H505 0.930 . S
C521 C520 1.377 . S
C521 C522 1.379 . S
C522 H506 0.931 . S
C522 C516 1.383 . S
C522 C521 1.379 . S
H523 C517 0.959 . S
H524 C517 0.961 . S
H525 C517 0.960 . S
H526 C518 0.930 . S
H527 C519 0.929 . S
H528 C536 0.929 . S
H529 C538 0.930 . S
H530 C540 0.930 . S
H531 C543 0.929 . S
H532 C546 0.930 . S
H533 C548 0.960 . S
H534 C548 0.960 . S
H535 C548 0.960 . S
C536 H528 0.929 . S
C536 C537 1.377 . S
C536 C538 1.384 . S
C537 C536 1.377 . S
C537 C543 1.390 . S
C538 H529 0.930 . S
C538 C536 1.384 . S
C538 C539 1.372 . S
C539 C538 1.372 . S
C539 C540 1.400 . S
C539 C544 1.490 . S
C540 H530 0.930 . S
C540 C539 1.400 . S
C540 C543 1.386 . S
H541 C557 0.930 . S
H542 C558 0.931 . S
C543 H531 0.929 . S
C543 C537 1.390 . S
C543 C540 1.386 . S
C544 C539 1.490 . S
C544 C546 1.395 . S
C544 C547 1.403 . S
H545 C551 0.930 . S
C546 H532 0.930 . S
C546 C544 1.395 . S
C546 C549 1.403 . S
C547 C544 1.403 . S
C547 C548 1.524 . S
C547 C551 1.400 . S
C548 H533 0.960 . S
C548 H534 0.960 . S
C548 H535 0.960 . S
C548 C547 1.524 . S
C549 C546 1.403 . S
C549 C550 1.392 . S
C549 C553 1.495 . S
C550 C549 1.392 . S
C550 C551 1.385 . S
C550 C552 1.478 . S
C551 H545 0.930 . S
C551 C547 1.400 . S
C551 C550 1.385 . S
C552 C550 1.478 . S
C552 C554 1.381 . S
C552 C558 1.383 . S
C553 C549 1.495 . S
C553 H559 0.959 . S
C553 H560 0.961 . S
C553 H561 0.960 . S
C554 C552 1.381 . S
C554 C555 1.394 . S
C554 H562 0.930 . S
C555 C554 1.394 . S
C555 C556 1.383 . S
C555 H563 0.929 . S
C556 C555 1.383 . S
C556 C557 1.377 . S
C557 H541 0.930 . S
C557 C556 1.377 . S
C557 C558 1.379 . S
C558 H542 0.931 . S
C558 C552 1.383 . S
C558 C557 1.379 . S
H559 C553 0.959 . S
H560 C553 0.961 . S
H561 C553 0.960 . S
H562 C554 0.930 . S
H563 C555 0.929 . S
H564 C572 0.929 . S
H565 C574 0.930 . S
H566 C576 0.930 . S
H567 C579 0.929 . S
H568 C582 0.930 . S
H569 C584 0.960 1_554 S
H570 C584 0.960 1_554 S
H571 C584 0.960 . S
C572 H564 0.929 . S
C572 C573 1.377 . S
C572 C574 1.384 . S
C573 C572 1.377 . S
C573 C579 1.390 . S
C574 H565 0.930 . S
C574 C572 1.384 . S
C574 C575 1.372 . S
C575 C574 1.372 . S
C575 C576 1.400 . S
C575 C580 1.490 . S
C576 H566 0.930 . S
C576 C575 1.400 . S
C576 C579 1.386 . S
H577 C593 0.930 . S
H578 C594 0.931 . S
C579 H567 0.929 . S
C579 C573 1.390 . S
C579 C576 1.386 . S
C580 C575 1.490 . S
C580 C582 1.395 . S
C580 C583 1.403 . S
H581 C587 0.930 1_554 S
C582 H568 0.930 . S
C582 C580 1.395 . S
C582 C585 1.403 . S
C583 C580 1.403 . S
C583 C584 1.524 . S
C583 C587 1.400 . S
C584 H569 0.960 1_556 S
C584 H570 0.960 1_556 S
C584 H571 0.960 . S
C584 C583 1.524 . S
C585 C582 1.403 . S
C585 C586 1.392 . S
C585 C589 1.495 . S
C586 C585 1.392 . S
C586 C587 1.385 . S
C586 C588 1.478 . S
C587 H581 0.930 1_556 S
C587 C583 1.400 . S
C587 C586 1.385 . S
C588 C586 1.478 . S
C588 C590 1.381 . S
C588 C594 1.383 . S
C589 C585 1.495 . S
C589 H595 0.959 . S
C589 H596 0.961 . S
C589 H597 0.960 . S
C590 C588 1.381 . S
C590 C591 1.394 1_556 S
C590 H598 0.930 . S
C591 C590 1.394 1_554 S
C591 C592 1.383 . S
C591 H599 0.929 . S
C592 C591 1.383 . S
C592 C593 1.377 1_554 S
C593 H577 0.930 . S
C593 C592 1.377 1_556 S
C593 C594 1.379 . S
C594 H578 0.931 . S
C594 C588 1.383 . S
C594 C593 1.379 . S
H595 C589 0.959 . S
H596 C589 0.961 . S
H597 C589 0.960 . S
H598 C590 0.930 . S
H599 C591 0.929 . S
H600 C608 0.929 . S
H601 C610 0.930 . S
H602 C612 0.930 . S
H603 C615 0.929 . S
H604 C618 0.930 . S
H605 C620 0.960 . S
H606 C620 0.960 . S
H607 C620 0.960 . S
C608 H600 0.929 . S
C608 C609 1.377 . S
C608 C610 1.384 . S
C609 C608 1.377 . S
C609 C615 1.390 . S
C610 H601 0.930 . S
C610 C608 1.384 . S
C610 C611 1.372 . S
C611 C610 1.372 . S
C611 C612 1.400 . S
C611 C616 1.490 . S
C612 H602 0.930 . S
C612 C611 1.400 . S
C612 C615 1.386 . S
H613 C629 0.930 . S
H614 C630 0.931 . S
C615 H603 0.929 . S
C615 C609 1.390 . S
C615 C612 1.386 . S
C616 C611 1.490 . S
C616 C618 1.395 . S
C616 C619 1.403 . S
H617 C623 0.930 . S
C618 H604 0.930 . S
C618 C616 1.395 . S
C618 C621 1.403 . S
C619 C616 1.403 . S
C619 C620 1.524 . S
C619 C623 1.400 . S
C620 H605 0.960 . S
C620 H606 0.960 . S
C620 H607 0.960 . S
C620 C619 1.524 . S
C621 C618 1.403 . S
C621 C622 1.392 . S
C621 C625 1.495 . S
C622 C621 1.392 . S
C622 C623 1.385 . S
C622 C624 1.478 . S
C623 H617 0.930 . S
C623 C619 1.400 . S
C623 C622 1.385 . S
C624 C622 1.478 . S
C624 C626 1.381 . S
C624 C630 1.383 . S
C625 C621 1.495 . S
C625 H631 0.959 . S
C625 H632 0.961 . S
C625 H633 0.960 . S
C626 C624 1.381 . S
C626 C627 1.394 . S
C626 H634 0.930 . S
C627 C626 1.394 . S
C627 C628 1.383 . S
C627 H635 0.929 . S
C628 C627 1.383 . S
C628 C629 1.377 . S
C629 H613 0.930 . S
C629 C628 1.377 . S
C629 C630 1.379 . S
C630 H614 0.931 . S
C630 C624 1.383 . S
C630 C629 1.379 . S
H631 C625 0.959 . S
H632 C625 0.961 . S
H633 C625 0.960 . S
H634 C626 0.930 . S
H635 C627 0.929 . S
H636 C644 0.929 . S
H637 C646 0.930 . S
H638 C648 0.930 . S
H639 C651 0.929 . S
H640 C654 0.930 . S
H641 C656 0.960 1_556 S
H642 C656 0.960 . S
H643 C656 0.960 . S
C644 H636 0.929 . S
C644 C645 1.377 . S
C644 C646 1.384 . S
C645 C644 1.377 . S
C645 C651 1.390 . S
C646 H637 0.930 . S
C646 C644 1.384 . S
C646 C647 1.372 . S
C647 C646 1.372 . S
C647 C648 1.400 . S
C647 C652 1.490 . S
C648 H638 0.930 . S
C648 C647 1.400 . S
C648 C651 1.386 . S
H649 C665 0.930 . S
H650 C666 0.931 . S
C651 H639 0.929 . S
C651 C645 1.390 . S
C651 C648 1.386 . S
C652 C647 1.490 . S
C652 C654 1.395 . S
C652 C655 1.403 . S
H653 C659 0.930 . S
C654 H640 0.930 . S
C654 C652 1.395 . S
C654 C657 1.403 1_554 S
C655 C652 1.403 . S
C655 C656 1.524 . S
C655 C659 1.400 1_554 S
C656 H641 0.960 1_554 S
C656 H642 0.960 . S
C656 H643 0.960 . S
C656 C655 1.524 . S
C657 C654 1.403 1_556 S
C657 C658 1.392 . S
C657 C661 1.495 . S
C658 C657 1.392 . S
C658 C659 1.385 . S
C658 C660 1.478 . S
C659 H653 0.930 . S
C659 C655 1.400 1_556 S
C659 C658 1.385 . S
C660 C658 1.478 . S
C660 C662 1.381 . S
C660 C666 1.383 . S
C661 C657 1.495 . S
C661 H667 0.959 . S
C661 H668 0.961 . S
C661 H669 0.960 . S
C662 C660 1.381 . S
C662 C663 1.394 . S
C662 H670 0.930 . S
C663 C662 1.394 . S
C663 C664 1.383 . S
C663 H671 0.929 . S
C664 C663 1.383 . S
C664 C665 1.377 . S
C665 H649 0.930 . S
C665 C664 1.377 . S
C665 C666 1.379 . S
C666 H650 0.931 . S
C666 C660 1.383 . S
C666 C665 1.379 . S
H667 C661 0.959 . S
H668 C661 0.961 . S
H669 C661 0.960 . S
H670 C662 0.930 . S
H671 C663 0.929 . S
H672 C680 0.929 . S
H673 C682 0.930 . S
H674 C684 0.930 . S
H675 C687 0.929 . S
H676 C690 0.930 . S
H677 C692 0.960 . S
H678 C692 0.960 . S
H679 C692 0.960 . S
C680 H672 0.929 . S
C680 C681 1.377 . S
C680 C682 1.384 . S
C681 C680 1.377 . S
C681 C687 1.390 . S
C682 H673 0.930 . S
C682 C680 1.384 . S
C682 C683 1.372 . S
C683 C682 1.372 . S
C683 C684 1.400 . S
C683 C688 1.490 . S
C684 H674 0.930 . S
C684 C683 1.400 . S
C684 C687 1.386 . S
H685 C701 0.930 . S
H686 C702 0.931 . S
C687 H675 0.929 . S
C687 C681 1.390 . S
C687 C684 1.386 . S
C688 C683 1.490 . S
C688 C690 1.395 . S
C688 C691 1.403 . S
H689 C695 0.930 . S
C690 H676 0.930 . S
C690 C688 1.395 . S
C690 C693 1.403 . S
C691 C688 1.403 . S
C691 C692 1.524 . S
C691 C695 1.400 . S
C692 H677 0.960 . S
C692 H678 0.960 . S
C692 H679 0.960 . S
C692 C691 1.524 . S
C693 C690 1.403 . S
C693 C694 1.392 . S
C693 C697 1.495 1_554 S
C694 C693 1.392 . S
C694 C695 1.385 . S
C694 C696 1.478 . S
C695 H689 0.930 . S
C695 C691 1.400 . S
C695 C694 1.385 . S
C696 C694 1.478 . S
C696 C698 1.381 1_554 S
C696 C702 1.383 . S
C697 C693 1.495 1_556 S
C697 H703 0.959 . S
C697 H704 0.961 . S
C697 H705 0.960 . S
C698 C696 1.381 1_556 S
C698 C699 1.394 . S
C698 H706 0.930 . S
C699 C698 1.394 . S
C699 C700 1.383 . S
C699 H707 0.929 . S
C700 C699 1.383 . S
C700 C701 1.377 . S
C701 H685 0.930 . S
C701 C700 1.377 . S
C701 C702 1.379 1_556 S
C702 H686 0.931 . S
C702 C696 1.383 . S
C702 C701 1.379 1_554 S
H703 C697 0.959 . S
H704 C697 0.961 . S
H705 C697 0.960 . S
H706 C698 0.930 . S
H707 C699 0.929 . S
H708 C716 0.929 . S
H709 C718 0.930 . S
H710 C720 0.930 . S
H711 C723 0.929 . S
H712 C726 0.930 . S
H713 C728 0.960 . S
H714 C728 0.960 . S
H715 C728 0.960 . S
C716 H708 0.929 . S
C716 C717 1.377 . S
C716 C718 1.384 . S
C717 C716 1.377 . S
C717 C723 1.390 . S
C718 H709 0.930 . S
C718 C716 1.384 . S
C718 C719 1.372 . S
C719 C718 1.372 . S
C719 C720 1.400 . S
C719 C724 1.490 . S
C720 H710 0.930 . S
C720 C719 1.400 . S
C720 C723 1.386 . S
H721 C737 0.930 . S
H722 C738 0.931 . S
C723 H711 0.929 . S
C723 C717 1.390 . S
C723 C720 1.386 . S
C724 C719 1.490 . S
C724 C726 1.395 . S
C724 C727 1.403 . S
H725 C731 0.930 . S
C726 H712 0.930 . S
C726 C724 1.395 . S
C726 C729 1.403 . S
C727 C724 1.403 . S
C727 C728 1.524 . S
C727 C731 1.400 . S
C728 H713 0.960 . S
C728 H714 0.960 . S
C728 H715 0.960 . S
C728 C727 1.524 . S
C729 C726 1.403 . S
C729 C730 1.392 . S
C729 C733 1.495 . S
C730 C729 1.392 . S
C730 C731 1.385 . S
C730 C732 1.478 . S
C731 H725 0.930 . S
C731 C727 1.400 . S
C731 C730 1.385 . S
C732 C730 1.478 . S
C732 C734 1.381 . S
C732 C738 1.383 . S
C733 C729 1.495 . S
C733 H739 0.959 . S
C733 H740 0.961 . S
C733 H741 0.960 . S
C734 C732 1.381 . S
C734 C735 1.394 . S
C734 H742 0.930 . S
C735 C734 1.394 . S
C735 C736 1.383 . S
C735 H743 0.929 . S
C736 C735 1.383 . S
C736 C737 1.377 . S
C737 H721 0.930 . S
C737 C736 1.377 . S
C737 C738 1.379 . S
C738 H722 0.931 . S
C738 C732 1.383 . S
C738 C737 1.379 . S
H739 C733 0.959 . S
H740 C733 0.961 . S
H741 C733 0.960 . S
H742 C734 0.930 . S
H743 C735 0.929 . S
H744 C752 0.929 . S
H745 C754 0.930 . S
H746 C756 0.930 . S
H747 C759 0.929 . S
H748 C762 0.930 . S
H749 C764 0.960 . S
H750 C764 0.960 . S
H751 C764 0.960 . S
C752 H744 0.929 . S
C752 C753 1.377 . S
C752 C754 1.384 . S
C753 C752 1.377 . S
C753 C759 1.390 . S
C754 H745 0.930 . S
C754 C752 1.384 . S
C754 C755 1.372 . S
C755 C754 1.372 . S
C755 C756 1.400 . S
C755 C760 1.490 . S
C756 H746 0.930 . S
C756 C755 1.400 . S
C756 C759 1.386 . S
H757 C773 0.930 . S
H758 C774 0.931 . S
C759 H747 0.929 . S
C759 C753 1.390 . S
C759 C756 1.386 . S
C760 C755 1.490 . S
C760 C762 1.395 . S
C760 C763 1.403 . S
H761 C767 0.930 . S
C762 H748 0.930 . S
C762 C760 1.395 . S
C762 C765 1.403 . S
C763 C760 1.403 . S
C763 C764 1.524 . S
C763 C767 1.400 . S
C764 H749 0.960 . S
C764 H750 0.960 . S
C764 H751 0.960 . S
C764 C763 1.524 . S
C765 C762 1.403 . S
C765 C766 1.392 . S
C765 C769 1.495 . S
C766 C765 1.392 . S
C766 C767 1.385 . S
C766 C768 1.478 . S
C767 H761 0.930 . S
C767 C763 1.400 . S
C767 C766 1.385 . S
C768 C766 1.478 . S
C768 C770 1.381 . S
C768 C774 1.383 . S
C769 C765 1.495 . S
C769 H775 0.959 . S
C769 H776 0.961 . S
C769 H777 0.960 . S
C770 C768 1.381 . S
C770 C771 1.394 . S
C770 H778 0.930 . S
C771 C770 1.394 . S
C771 C772 1.383 . S
C771 H779 0.929 . S
C772 C771 1.383 . S
C772 C773 1.377 . S
C773 H757 0.930 . S
C773 C772 1.377 . S
C773 C774 1.379 . S
C774 H758 0.931 . S
C774 C768 1.383 . S
C774 C773 1.379 . S
H775 C769 0.959 . S
H776 C769 0.961 . S
H777 C769 0.960 . S
H778 C770 0.930 . S
H779 C771 0.929 . S
H780 C788 0.929 . S
H781 C790 0.930 . S
H782 C792 0.930 . S
H783 C795 0.929 . S
H784 C798 0.930 . S
H785 C800 0.960 . S
H786 C800 0.960 . S
H787 C800 0.960 . S
C788 H780 0.929 . S
C788 C789 1.377 . S
C788 C790 1.384 . S
C789 C788 1.377 . S
C789 C795 1.390 . S
C790 H781 0.930 . S
C790 C788 1.384 . S
C790 C791 1.372 . S
C791 C790 1.372 . S
C791 C792 1.400 . S
C791 C796 1.490 . S
C792 H782 0.930 . S
C792 C791 1.400 . S
C792 C795 1.386 . S
H793 C809 0.930 . S
H794 C810 0.931 . S
C795 H783 0.929 . S
C795 C789 1.390 . S
C795 C792 1.386 . S
C796 C791 1.490 . S
C796 C798 1.395 . S
C796 C799 1.403 . S
H797 C803 0.930 . S
C798 H784 0.930 . S
C798 C796 1.395 . S
C798 C801 1.403 . S
C799 C796 1.403 . S
C799 C800 1.524 . S
C799 C803 1.400 . S
C800 H785 0.960 . S
C800 H786 0.960 . S
C800 H787 0.960 . S
C800 C799 1.524 . S
C801 C798 1.403 . S
C801 C802 1.392 . S
C801 C805 1.495 . S
C802 C801 1.392 . S
C802 C803 1.385 . S
C802 C804 1.478 . S
C803 H797 0.930 . S
C803 C799 1.400 . S
C803 C802 1.385 . S
C804 C802 1.478 . S
C804 C806 1.381 . S
C804 C810 1.383 . S
C805 C801 1.495 . S
C805 H811 0.959 . S
C805 H812 0.961 . S
C805 H813 0.960 . S
C806 C804 1.381 . S
C806 C807 1.394 . S
C806 H814 0.930 . S
C807 C806 1.394 . S
C807 C808 1.383 . S
C807 H815 0.929 . S
C808 C807 1.383 . S
C808 C809 1.377 . S
C809 H793 0.930 . S
C809 C808 1.377 . S
C809 C810 1.379 . S
C810 H794 0.931 . S
C810 C804 1.383 . S
C810 C809 1.379 . S
H811 C805 0.959 . S
H812 C805 0.961 . S
H813 C805 0.960 . S
H814 C806 0.930 . S
H815 C807 0.929 . S
H816 C824 0.929 . S
H817 C826 0.930 . S
H818 C828 0.930 1_554 S
H819 C831 0.929 . S
H820 C834 0.930 . S
H821 C836 0.960 . S
H822 C836 0.960 . S
H823 C836 0.960 . S
C824 H816 0.929 . S
C824 C825 1.377 . S
C824 C826 1.384 . S
C825 C824 1.377 . S
C825 C831 1.390 1_556 S
C826 H817 0.930 . S
C826 C824 1.384 . S
C826 C827 1.372 . S
C827 C826 1.372 . S
C827 C828 1.400 . S
C827 C832 1.490 . S
C828 H818 0.930 1_556 S
C828 C827 1.400 . S
C828 C831 1.386 1_556 S
H829 C845 0.930 . S
H830 C846 0.931 . S
C831 H819 0.929 . S
C831 C825 1.390 1_554 S
C831 C828 1.386 1_554 S
C832 C827 1.490 . S
C832 C834 1.395 . S
C832 C835 1.403 . S
H833 C839 0.930 . S
C834 H820 0.930 . S
C834 C832 1.395 . S
C834 C837 1.403 . S
C835 C832 1.403 . S
C835 C836 1.524 . S
C835 C839 1.400 1_455 S
C836 H821 0.960 . S
C836 H822 0.960 . S
C836 H823 0.960 . S
C836 C835 1.524 . S
C837 C834 1.403 . S
C837 C838 1.392 1_455 S
C837 C841 1.495 1_455 S
C838 C837 1.392 1_655 S
C838 C839 1.385 . S
C838 C840 1.478 . S
C839 H833 0.930 . S
C839 C835 1.400 1_655 S
C839 C838 1.385 . S
C840 C838 1.478 . S
C840 C842 1.381 . S
C840 C846 1.383 . S
C841 C837 1.495 1_655 S
C841 H847 0.959 1_655 S
C841 H848 0.961 . S
C841 H849 0.960 . S
C842 C840 1.381 . S
C842 C843 1.394 . S
C842 H850 0.930 . S
C843 C842 1.394 . S
C843 C844 1.383 . S
C843 H851 0.929 . S
C844 C843 1.383 . S
C844 C845 1.377 . S
C845 H829 0.930 . S
C845 C844 1.377 . S
C845 C846 1.379 . S
C846 H830 0.931 . S
C846 C840 1.383 . S
C846 C845 1.379 . S
H847 C841 0.959 1_455 S
H848 C841 0.961 . S
H849 C841 0.960 . S
H850 C842 0.930 . S
H851 C843 0.929 . S
H852 C860 0.929 . S
H853 C862 0.930 . S
H854 C864 0.930 1_554 S
H855 C867 0.929 . S
H856 C870 0.930 . S
H857 C872 0.960 . S
H858 C872 0.960 . S
H859 C872 0.960 . S
C860 H852 0.929 . S
C860 C861 1.377 . S
C860 C862 1.384 . S
C861 C860 1.377 . S
C861 C867 1.390 . S
C862 H853 0.930 . S
C862 C860 1.384 . S
C862 C863 1.372 . S
C863 C862 1.372 . S
C863 C864 1.400 . S
C863 C868 1.490 1_556 S
C864 H854 0.930 1_556 S
C864 C863 1.400 . S
C864 C867 1.386 . S
H865 C881 0.930 . S
H866 C882 0.931 . S
C867 H855 0.929 . S
C867 C861 1.390 . S
C867 C864 1.386 . S
C868 C863 1.490 1_554 S
C868 C870 1.395 1_564 S
C868 C871 1.403 . S
H869 C875 0.929 1_565 S
C870 H856 0.930 . S
C870 C868 1.395 1_546 S
C870 C873 1.403 1_556 S
C871 C868 1.403 . S
C871 C872 1.524 . S
C871 C875 1.396 1_565 S
C872 H857 0.960 . S
C872 H858 0.960 . S
C872 H859 0.960 . S
C872 C871 1.524 . S
C873 C870 1.403 1_554 S
C873 C874 1.392 . S
C873 C877 1.495 1_554 S
C874 C873 1.392 . S
C874 C875 1.390 . S
C874 C876 1.478 . S
C875 H869 0.929 1_545 S
C875 C871 1.396 1_545 S
C875 C874 1.390 . S
C876 C874 1.478 . S
C876 C878 1.381 . S
C876 C882 1.383 . S
C877 C873 1.495 1_556 S
C877 H883 0.959 . S
C877 H884 0.961 1_556 S
C877 H885 0.960 . S
C878 C876 1.381 . S
C878 C879 1.394 . S
C878 H886 0.930 . S
C879 C878 1.394 . S
C879 C880 1.383 . S
C879 H887 0.929 . S
C880 C879 1.383 . S
C880 C881 1.377 . S
C881 H865 0.930 . S
C881 C880 1.377 . S
C881 C882 1.379 . S
C882 H866 0.931 . S
C882 C876 1.383 . S
C882 C881 1.379 . S
H883 C877 0.959 . S
H884 C877 0.961 1_554 S
H885 C877 0.960 . S
H886 C878 0.930 . S
H887 C879 0.929 . S
H888 C896 0.929 . S
H889 C898 0.930 . S
H890 C900 0.930 . S
H891 C903 0.929 . S
H892 C906 0.930 . S
H893 C908 0.960 . S
H894 C908 0.960 . S
H895 C908 0.960 . S
C896 H888 0.929 . S
C896 C897 1.377 . S
C896 C898 1.384 . S
C897 C896 1.377 . S
C897 C903 1.390 . S
C898 H889 0.930 . S
C898 C896 1.384 . S
C898 C899 1.372 . S
C899 C898 1.372 . S
C899 C900 1.400 . S
C899 C904 1.490 . S
C900 H890 0.930 . S
C900 C899 1.400 . S
C900 C903 1.386 . S
H901 C917 0.930 . S
H902 C918 0.931 . S
C903 H891 0.929 . S
C903 C897 1.390 . S
C903 C900 1.386 . S
C904 C899 1.490 . S
C904 C906 1.395 . S
C904 C907 1.403 . S
H905 C911 0.930 . S
C906 H892 0.930 . S
C906 C904 1.395 . S
C906 C909 1.403 . S
C907 C904 1.403 . S
C907 C908 1.524 . S
C907 C911 1.400 . S
C908 H893 0.960 . S
C908 H894 0.960 . S
C908 H895 0.960 . S
C908 C907 1.524 . S
C909 C906 1.403 . S
C909 C910 1.392 . S
C909 C913 1.495 . S
C910 C909 1.392 . S
C910 C911 1.385 . S
C910 C912 1.478 . S
C911 H905 0.930 . S
C911 C907 1.400 . S
C911 C910 1.385 . S
C912 C910 1.478 . S
C912 C914 1.381 . S
C912 C918 1.383 . S
C913 C909 1.495 . S
C913 H919 0.959 . S
C913 H920 0.961 . S
C913 H921 0.960 . S
C914 C912 1.381 . S
C914 C915 1.394 . S
C914 H922 0.930 . S
C915 C914 1.394 . S
C915 C916 1.383 . S
C915 H923 0.929 . S
C916 C915 1.383 . S
C916 C917 1.377 . S
C917 H901 0.930 . S
C917 C916 1.377 . S
C917 C918 1.379 . S
C918 H902 0.931 . S
C918 C912 1.383 . S
C918 C917 1.379 . S
H919 C913 0.959 . S
H920 C913 0.961 . S
H921 C913 0.960 . S
H922 C914 0.930 . S
H923 C915 0.929 . S
H924 C932 0.929 . S
H925 C934 0.930 . S
H926 C936 0.930 . S
H927 C939 0.929 . S
H928 C942 0.930 . S
H929 C944 0.960 1_655 S
H930 C944 0.960 . S
H931 C944 0.960 . S
C932 H924 0.929 . S
C932 C933 1.377 . S
C932 C934 1.384 . S
C933 C932 1.377 . S
C933 C939 1.390 . S
C934 H925 0.930 . S
C934 C932 1.384 . S
C934 C935 1.372 . S
C935 C934 1.372 . S
C935 C936 1.400 . S
C935 C940 1.490 . S
C936 H926 0.930 . S
C936 C935 1.400 . S
C936 C939 1.386 . S
H937 C953 0.930 . S
H938 C954 0.931 . S
C939 H927 0.929 . S
C939 C933 1.390 . S
C939 C936 1.386 . S
C940 C935 1.490 . S
C940 C942 1.395 . S
C940 C943 1.410 . S
H941 C947 0.930 . S
C942 H928 0.930 . S
C942 C940 1.395 . S
C942 C945 1.403 1_455 S
C943 C940 1.410 . S
C943 C944 1.559 . S
C943 C947 1.357 1_455 S
C944 H929 0.960 1_455 S
C944 H930 0.960 . S
C944 H931 0.960 . S
C944 C943 1.559 . S
C945 C942 1.403 1_655 S
C945 C946 1.392 . S
C945 C949 1.495 . S
C946 C945 1.392 . S
C946 C947 1.385 . S
C946 C948 1.478 . S
C947 H941 0.930 . S
C947 C943 1.357 1_655 S
C947 C946 1.385 . S
C948 C946 1.478 . S
C948 C950 1.381 . S
C948 C954 1.383 . S
C949 C945 1.495 . S
C949 H955 0.959 . S
C949 H956 0.961 . S
C949 H957 0.960 . S
C950 C948 1.381 . S
C950 C951 1.394 . S
C950 H958 0.930 . S
C951 C950 1.394 . S
C951 C952 1.383 . S
C951 H959 0.929 . S
C952 C951 1.383 . S
C952 C953 1.377 . S
C953 H937 0.930 . S
C953 C952 1.377 . S
C953 C954 1.379 . S
C954 H938 0.931 . S
C954 C948 1.383 . S
C954 C953 1.379 . S
H955 C949 0.959 . S
H956 C949 0.961 . S
H957 C949 0.960 . S
H958 C950 0.930 . S
H959 C951 0.929 . S
H960 C968 0.929 . S
H961 C970 0.930 . S
H962 C972 0.930 . S
H963 C975 0.929 . S
H964 C978 0.930 . S
H965 C980 0.960 . S
H966 C980 0.960 . S
H967 C980 0.960 . S
C968 H960 0.929 . S
C968 C969 1.377 . S
C968 C970 1.384 . S
C969 C968 1.377 . S
C969 C975 1.390 . S
C970 H961 0.930 . S
C970 C968 1.384 . S
C970 C971 1.372 . S
C971 C970 1.372 . S
C971 C972 1.400 . S
C971 C976 1.490 . S
C972 H962 0.930 . S
C972 C971 1.400 . S
C972 C975 1.386 . S
H973 C989 0.930 . S
H974 C990 0.931 . S
C975 H963 0.929 . S
C975 C969 1.390 . S
C975 C972 1.386 . S
C976 C971 1.490 . S
C976 C978 1.395 1_545 S
C976 C979 1.403 . S
H977 C983 0.931 . S
C978 H964 0.930 . S
C978 C976 1.395 1_565 S
C978 C981 1.403 . S
C979 C976 1.403 . S
C979 C980 1.524 . S
C979 C983 1.396 . S
C980 H965 0.960 . S
C980 H966 0.960 . S
C980 H967 0.960 . S
C980 C979 1.524 . S
C981 C978 1.403 . S
C981 C982 1.392 . S
C981 C985 1.495 . S
C982 C981 1.392 . S
C982 C983 1.389 1_565 S
C982 C984 1.478 . S
C983 H977 0.931 . S
C983 C979 1.396 . S
C983 C982 1.389 1_545 S
C984 C982 1.478 . S
C984 C986 1.381 . S
C984 C990 1.383 . S
C985 C981 1.495 . S
C985 H991 0.959 . S
C985 H992 0.961 . S
C985 H993 0.960 . S
C986 C984 1.381 . S
C986 C987 1.394 . S
C986 H994 0.930 . S
C987 C986 1.394 . S
C987 C988 1.383 . S
C987 H995 0.929 . S
C988 C987 1.383 . S
C988 C989 1.377 . S
C989 H973 0.930 . S
C989 C988 1.377 . S
C989 C990 1.379 . S
C990 H974 0.931 . S
C990 C984 1.383 . S
C990 C989 1.379 . S
H991 C985 0.959 . S
H992 C985 0.961 . S
H993 C985 0.960 . S
H994 C986 0.930 . S
H995 C987 0.929 . S
H996 C1004 0.929 . S
H997 C1006 0.930 . S
H998 C1008 0.930 . S
H999 C1011 0.929 . S
H1000 C1014 0.930 . S
H1001 C1016 0.960 . S
H1002 C1016 0.960 . S
H1003 C1016 0.960 . S
C1004 H996 0.929 . S
C1004 C1005 1.377 . S
C1004 C1006 1.384 . S
C1005 C1004 1.377 . S
C1005 C1011 1.390 . S
C1006 H997 0.930 . S
C1006 C1004 1.384 . S
C1006 C1007 1.372 . S
C1007 C1006 1.372 . S
C1007 C1008 1.400 . S
C1007 C1012 1.490 . S
C1008 H998 0.930 . S
C1008 C1007 1.400 . S
C1008 C1011 1.386 . S
H1009 C1025 0.930 . S
H1010 C1026 0.931 . S
C1011 H999 0.929 . S
C1011 C1005 1.390 . S
C1011 C1008 1.386 . S
C1012 C1007 1.490 . S
C1012 C1014 1.395 . S
C1012 C1015 1.403 . S
H1013 C1019 0.930 . S
C1014 H1000 0.930 . S
C1014 C1012 1.395 . S
C1014 C1017 1.403 . S
C1015 C1012 1.403 . S
C1015 C1016 1.524 . S
C1015 C1019 1.400 . S
C1016 H1001 0.960 . S
C1016 H1002 0.960 . S
C1016 H1003 0.960 . S
C1016 C1015 1.524 . S
C1017 C1014 1.403 . S
C1017 C1018 1.392 . S
C1017 C1021 1.495 . S
C1018 C1017 1.392 . S
C1018 C1019 1.385 . S
C1018 C1020 1.478 . S
C1019 H1013 0.930 . S
C1019 C1015 1.400 . S
C1019 C1018 1.385 . S
C1020 C1018 1.478 . S
C1020 C1022 1.381 . S
C1020 C1026 1.383 . S
C1021 C1017 1.495 . S
C1021 H1027 0.959 . S
C1021 H1028 0.961 . S
C1021 H1029 0.960 . S
C1022 C1020 1.381 . S
C1022 C1023 1.394 . S
C1022 H1030 0.930 . S
C1023 C1022 1.394 . S
C1023 C1024 1.383 . S
C1023 H1031 0.929 . S
C1024 C1023 1.383 . S
C1024 C1025 1.377 . S
C1025 H1009 0.930 . S
C1025 C1024 1.377 . S
C1025 C1026 1.379 . S
C1026 H1010 0.931 . S
C1026 C1020 1.383 . S
C1026 C1025 1.379 . S
H1027 C1021 0.959 . S
H1028 C1021 0.961 . S
H1029 C1021 0.960 . S
H1030 C1022 0.930 . S
H1031 C1023 0.929 . S
C177 C12 1.137 . S
C196 C152 1.122 . S
C213 C166 1.054 . S
C232 C19 0.973 . S
C249 C40 1.052 . S
C268 C89 0.995 . S
C285 C54 1.139 . S
C304 C110 1.127 . S
C321 C61 0.977 . S
C340 C124 1.032 . S
C357 C131 0.950 . S
C376 C82 1.068 . S
C393 C4 1.565 . S
C412 C116 1.569 . S
C429 C25 1.497 . S
C448 C137 1.501 . S
C465 C144 1.561 . S
C484 C32 1.532 . S
C501 C46 1.561 . S
C520 C158 1.533 . S
C537 C67 1.492 . S
C556 C95 1.484 . S
C573 C74 1.548 . S
C592 C102 1.540 . S
C609 C151 0.684 . S
C628 C11 0.689 . S
C645 C18 0.774 . S
C664 C165 0.779 . S
C681 C39 0.785 . S
C700 C88 0.816 . S
C717 C53 0.677 . S
C736 C109 0.713 . S
C753 C123 0.789 . S
C772 C60 0.790 . S
C789 C81 0.778 . S
C808 C130 0.773 . S
C825 C5 1.275 1_556 S
C844 C159 1.242 . S
C861 C96 1.357 . S
C880 C26 1.332 . S
C897 C103 1.268 . S
C916 C33 1.330 . S
C933 C117 1.290 . S
C952 C47 1.226 . S
C969 C138 1.355 . S
C988 C68 1.337 . S
C1005 C145 1.266 . S
C1024 C75 1.232 . S
