# Generated by pormake.
# Topology zfa, (5)-cn, num edge types: 1
# Building blocks:
#     Node 0, Type 0, BuildingBlock: XOMCOT_clean_sbu_0, # of connection points: 5
#     Node 1, Type 0, BuildingBlock: XOMCOT_clean_sbu_0, # of connection points: 5
#     Node 2, Type 0, BuildingBlock: XOMCOT_clean_sbu_0, # of connection points: 5
#     Node 3, Type 0, BuildingBlock: XOMCOT_clean_sbu_0, # of connection points: 5
#     Node 4, Type 0, BuildingBlock: XOMCOT_clean_sbu_0, # of connection points: 5
#     Node 5, Type 0, BuildingBlock: XOMCOT_clean_sbu_0, # of connection points: 5
#     Node 6, Type 0, BuildingBlock: XOMCOT_clean_sbu_0, # of connection points: 5
#     Node 7, Type 0, BuildingBlock: XOMCOT_clean_sbu_0, # of connection points: 5
#     Edge 8, Type (0, 0), BuildingBlock: ZUJKAS_clean_linker_0, # of connection points: 2
#     Edge 9, Type (0, 0), BuildingBlock: ZUJKAS_clean_linker_0, # of connection points: 2
#     Edge 10, Type (0, 0), BuildingBlock: ZUJKAS_clean_linker_0, # of connection points: 2
#     Edge 11, Type (0, 0), BuildingBlock: ZUJKAS_clean_linker_0, # of connection points: 2
#     Edge 12, Type (0, 0), BuildingBlock: ZUJKAS_clean_linker_0, # of connection points: 2
#     Edge 13, Type (0, 0), BuildingBlock: ZUJKAS_clean_linker_0, # of connection points: 2
#     Edge 14, Type (0, 0), BuildingBlock: ZUJKAS_clean_linker_0, # of connection points: 2
#     Edge 15, Type (0, 0), BuildingBlock: ZUJKAS_clean_linker_0, # of connection points: 2
#     Edge 16, Type (0, 0), BuildingBlock: ZUJKAS_clean_linker_0, # of connection points: 2
#     Edge 17, Type (0, 0), BuildingBlock: ZUJKAS_clean_linker_0, # of connection points: 2
#     Edge 18, Type (0, 0), BuildingBlock: ZUJKAS_clean_linker_0, # of connection points: 2
#     Edge 19, Type (0, 0), BuildingBlock: ZUJKAS_clean_linker_0, # of connection points: 2
#     Edge 20, Type (0, 0), BuildingBlock: ZUJKAS_clean_linker_0, # of connection points: 2
#     Edge 21, Type (0, 0), BuildingBlock: ZUJKAS_clean_linker_0, # of connection points: 2
#     Edge 22, Type (0, 0), BuildingBlock: ZUJKAS_clean_linker_0, # of connection points: 2
#     Edge 23, Type (0, 0), BuildingBlock: ZUJKAS_clean_linker_0, # of connection points: 2
#     Edge 24, Type (0, 0), BuildingBlock: ZUJKAS_clean_linker_0, # of connection points: 2
#     Edge 25, Type (0, 0), BuildingBlock: ZUJKAS_clean_linker_0, # of connection points: 2
#     Edge 26, Type (0, 0), BuildingBlock: ZUJKAS_clean_linker_0, # of connection points: 2
#     Edge 27, Type (0, 0), BuildingBlock: ZUJKAS_clean_linker_0, # of connection points: 2
# Relax obj value: 0.192
# Max RMSD: 0.186
# Mean RMSD: 0.186
data_MOF--net-zfa--node1-XOMCOT_clean_sbu_0--edge1-ZUJKAS_clean_linker_0
_symmetry_space_group_name_H-M    P1
_symmetry_Int_Tables_number       1
_symmetry_cell_setting            triclinic
loop_
_symmetry_equiv_pos_as_xyz
'x, y, z'
_cell_length_a     39.354951
_cell_length_b     39.330408
_cell_length_c     53.880184
_cell_angle_alpha  90.121189
_cell_angle_beta   89.881814
_cell_angle_gamma 89.988253
loop_
_atom_site_label
_atom_site_type_symbol
_atom_site_fract_x
_atom_site_fract_y
_atom_site_fract_z
_atom_type_partial_charge
Co0 Co 0.1231 0.25639 0.35058 0.0
C1 C 0.11189 0.33127 0.34773 0.0
C2 C 0.10769 0.31225 0.38479 0.0
C3 C 0.09872 0.3459 0.38498 0.0
N4 N 0.11725 0.30314 0.36163 0.0
N5 N 0.10115 0.35782 0.36166 0.0
H6 H 0.11301 0.33176 0.32772 0.0
H7 H 0.10463 0.29503 0.40023 0.0
C8 C 0.1622 0.259 0.39787 0.0
O9 O 0.17622 0.28718 0.3897 0.0
N10 N 0.12719 0.20988 0.33996 0.0
C11 C 0.13981 0.19824 0.31831 0.0
C12 C 0.13367 0.16384 0.31689 0.0
C13 C 0.11337 0.1828 0.3513 0.0
N14 N 0.11678 0.15422 0.33759 0.0
C15 C 0.17536 0.28685 0.31966 0.0
C16 C 0.22741 0.24552 0.33625 0.0
C17 C 0.2342 0.26833 0.31694 0.0
C18 C 0.2077 0.28948 0.30882 0.0
C19 C 0.1949 0.24361 0.34641 0.0
N20 N 0.16932 0.2645 0.33851 0.0
H21 H 0.1549 0.30153 0.31193 0.0
H22 H 0.19002 0.22402 0.35995 0.0
H23 H 0.15146 0.21385 0.30415 0.0
H24 H 0.09912 0.18461 0.36845 0.0
O25 O 0.09728 0.26611 0.32074 0.0
O26 O 0.07524 0.24933 0.35655 0.0
O27 O 0.14061 0.243 0.38452 0.0
C28 C 0.07034 0.25797 0.33354 0.0
H29 H 0.0882 0.35969 0.40062 0.0
H30 H 0.14014 0.14753 0.3014 0.0
H31 H 0.2469 0.22862 0.3432 0.0
H32 H 0.21147 0.30683 0.29348 0.0
Co33 Co 0.26161 0.62162 0.84982 0.0
C34 C 0.18711 0.60845 0.84672 0.0
C35 C 0.20617 0.60383 0.88372 0.0
C36 C 0.17282 0.59377 0.88368 0.0
N37 N 0.21503 0.6143 0.86075 0.0
N38 N 0.16088 0.59647 0.86039 0.0
H39 H 0.1866 0.61024 0.82674 0.0
H40 H 0.22343 0.60097 0.89915 0.0
C41 C 0.25771 0.65995 0.89754 0.0
O42 O 0.22904 0.67306 0.88954 0.0
N43 N 0.30798 0.62706 0.83915 0.0
C44 C 0.31888 0.64013 0.81747 0.0
C45 C 0.35317 0.63403 0.8153 0.0
C46 C 0.33549 0.61302 0.84979 0.0
N47 N 0.36352 0.6167 0.83555 0.0
C48 C 0.22992 0.67372 0.8193 0.0
C49 C 0.27006 0.72638 0.83659 0.0
C50 C 0.24734 0.73301 0.81723 0.0
C51 C 0.22674 0.70622 0.80878 0.0
C52 C 0.27252 0.69376 0.84643 0.0
N53 N 0.25227 0.66783 0.83817 0.0
H54 H 0.21573 0.65307 0.8113 0.0
H55 H 0.29213 0.68911 0.85998 0.0
H56 H 0.30274 0.6518 0.80367 0.0
H57 H 0.33437 0.59824 0.86669 0.0
O58 O 0.25264 0.59564 0.8198 0.0
O59 O 0.2701 0.57401 0.85551 0.0
O60 O 0.27449 0.63916 0.88393 0.0
C61 C 0.26168 0.56892 0.83247 0.0
H62 H 0.15932 0.5825 0.89914 0.0
H63 H 0.36891 0.64069 0.79956 0.0
H64 H 0.28655 0.74609 0.84379 0.0
H65 H 0.20944 0.7099 0.79341 0.0
Co66 Co 0.89197 0.76129 0.34845 0.0
C67 C 0.91253 0.68864 0.34575 0.0
C68 C 0.87935 0.69817 0.37657 0.0
C69 C 0.88896 0.66457 0.37709 0.0
N70 N 0.89418 0.71338 0.35693 0.0
N71 N 0.91004 0.65863 0.35778 0.0
H72 H 0.92851 0.69266 0.32971 0.0
H73 H 0.86324 0.71055 0.39009 0.0
C74 C 0.85506 0.79563 0.39027 0.0
O75 O 0.83938 0.81455 0.37382 0.0
N76 N 0.89048 0.8094 0.34031 0.0
C77 C 0.87194 0.82638 0.32329 0.0
C78 C 0.88159 0.85999 0.32341 0.0
C79 C 0.91093 0.8331 0.35053 0.0
N80 N 0.90627 0.86412 0.34046 0.0
C81 C 0.84151 0.75262 0.31046 0.0
C82 C 0.78609 0.74455 0.34138 0.0
C83 C 0.78057 0.74685 0.31574 0.0
C84 C 0.80902 0.74991 0.30017 0.0
C85 C 0.81897 0.74754 0.35087 0.0
N86 N 0.84603 0.75381 0.33558 0.0
H87 H 0.86288 0.7558 0.2981 0.0
H88 H 0.82221 0.74481 0.37057 0.0
H89 H 0.85284 0.81581 0.31131 0.0
H90 H 0.92972 0.82739 0.36452 0.0
O91 O 0.91822 0.75353 0.31835 0.0
O92 O 0.9401 0.76561 0.35509 0.0
O93 O 0.87552 0.77225 0.38318 0.0
C94 C 0.94516 0.75962 0.33164 0.0
H95 H 0.88131 0.64615 0.39089 0.0
H96 H 0.87137 0.8797 0.31161 0.0
H97 H 0.76516 0.74047 0.35411 0.0
H98 H 0.80626 0.75145 0.28022 0.0
Co99 Co 0.75743 0.39413 0.85101 0.0
C100 C 0.83207 0.40452 0.84721 0.0
C101 C 0.81486 0.40516 0.88489 0.0
C102 C 0.84847 0.4144 0.88451 0.0
N103 N 0.80459 0.39783 0.86158 0.0
N104 N 0.85922 0.41428 0.86078 0.0
H105 H 0.83157 0.40509 0.82718 0.0
H106 H 0.79846 0.407 0.90092 0.0
C107 C 0.75747 0.35366 0.89787 0.0
O108 O 0.78396 0.33723 0.88902 0.0
N109 N 0.71068 0.39224 0.84063 0.0
C110 C 0.69891 0.38052 0.81878 0.0
C111 C 0.66543 0.39 0.81646 0.0
C112 C 0.68448 0.40882 0.85124 0.0
N113 N 0.65651 0.40809 0.83679 0.0
C114 C 0.78673 0.34046 0.82062 0.0
C115 C 0.74227 0.29038 0.83623 0.0
C116 C 0.76601 0.28234 0.81771 0.0
C117 C 0.78864 0.3079 0.81003 0.0
C118 C 0.74106 0.32312 0.84611 0.0
N119 N 0.76352 0.34766 0.83876 0.0
H120 H 0.80294 0.36014 0.81341 0.0
H121 H 0.72114 0.32899 0.85926 0.0
H122 H 0.71412 0.36772 0.80487 0.0
H123 H 0.68679 0.42351 0.86817 0.0
O124 O 0.76784 0.41962 0.82114 0.0
O125 O 0.75246 0.44217 0.85719 0.0
O126 O 0.74357 0.37719 0.88503 0.0
C127 C 0.76083 0.44679 0.83408 0.0
H128 H 0.8629 0.42369 0.90021 0.0
H129 H 0.64945 0.38532 0.8005 0.0
H130 H 0.7243 0.27166 0.84291 0.0
H131 H 0.80681 0.30322 0.7953 0.0
Co132 Co 0.62349 0.2633 0.19349 0.0
C133 C 0.60924 0.18903 0.19411 0.0
C134 C 0.61354 0.20844 0.1572 0.0
C135 C 0.60135 0.17588 0.15588 0.0
N136 N 0.61937 0.2168 0.18115 0.0
N137 N 0.59809 0.1638 0.17911 0.0
H138 H 0.60629 0.18859 0.21407 0.0
H139 H 0.61422 0.22578 0.14171 0.0
C140 C 0.66646 0.26583 0.14779 0.0
O141 O 0.68265 0.23911 0.1564 0.0
N142 N 0.62553 0.30947 0.20545 0.0
C143 C 0.63574 0.31988 0.22807 0.0
C144 C 0.62616 0.35327 0.23122 0.0
C145 C 0.60975 0.33637 0.19524 0.0
N146 N 0.6095 0.36348 0.21065 0.0
C147 C 0.6763 0.2295 0.22202 0.0
C148 C 0.72688 0.27576 0.21047 0.0
C149 C 0.73481 0.24862 0.22623 0.0
C150 C 0.7089 0.22538 0.23212 0.0
C151 C 0.69417 0.27898 0.20091 0.0
N152 N 0.66941 0.25567 0.2062 0.0
H153 H 0.65653 0.21205 0.22737 0.0
H154 H 0.68858 0.30075 0.18942 0.0
H155 H 0.64746 0.30376 0.24185 0.0
H156 H 0.59615 0.33508 0.17782 0.0
O157 O 0.59686 0.25164 0.22261 0.0
O158 O 0.57576 0.2694 0.18679 0.0
O159 O 0.64202 0.27888 0.1603 0.0
C160 C 0.57025 0.25987 0.20955 0.0
H161 H 0.59292 0.16315 0.13917 0.0
H162 H 0.62974 0.36826 0.24788 0.0
H163 H 0.74559 0.295 0.206 0.0
H164 H 0.71373 0.2042 0.24442 0.0
Co165 Co 0.2563 0.12152 0.69217 0.0
C166 C 0.33019 0.10505 0.69361 0.0
C167 C 0.30972 0.10325 0.65688 0.0
C168 C 0.34194 0.09022 0.65617 0.0
N169 N 0.30235 0.11358 0.6802 0.0
N170 N 0.35469 0.09079 0.67933 0.0
H171 H 0.33113 0.10549 0.71365 0.0
H172 H 0.29185 0.10194 0.64172 0.0
C173 C 0.25864 0.16024 0.6448 0.0
O174 O 0.28752 0.17326 0.65249 0.0
N175 N 0.21042 0.12742 0.70379 0.0
C176 C 0.20044 0.13986 0.72594 0.0
C177 C 0.16635 0.13317 0.72894 0.0
C178 C 0.18258 0.11329 0.69366 0.0
N179 N 0.15527 0.11618 0.70871 0.0
C180 C 0.29054 0.17347 0.72146 0.0
C181 C 0.24857 0.22599 0.70647 0.0
C182 C 0.2726 0.23252 0.72499 0.0
C183 C 0.29421 0.20586 0.7322 0.0
C184 C 0.24562 0.1935 0.69641 0.0
N185 N 0.26657 0.16761 0.70367 0.0
H186 H 0.30583 0.15286 0.72836 0.0
H187 H 0.22515 0.18887 0.68353 0.0
H188 H 0.21716 0.15116 0.73956 0.0
H189 H 0.18312 0.09858 0.67666 0.0
O190 O 0.26614 0.09563 0.72199 0.0
O191 O 0.24716 0.0739 0.68667 0.0
O192 O 0.2423 0.1392 0.65841 0.0
C193 C 0.25645 0.06889 0.70952 0.0
H194 H 0.35402 0.07886 0.64011 0.0
H195 H 0.15138 0.1388 0.74531 0.0
H196 H 0.23142 0.24565 0.70011 0.0
H197 H 0.31273 0.20952 0.74681 0.0
Co198 Co 0.39233 0.7582 0.19231 0.0
C199 C 0.40611 0.83272 0.19455 0.0
C200 C 0.40973 0.81292 0.15764 0.0
C201 C 0.42026 0.84614 0.15732 0.0
N202 N 0.39956 0.80459 0.1808 0.0
N203 N 0.41822 0.85853 0.18057 0.0
H204 H 0.4048 0.83362 0.21456 0.0
H205 H 0.41225 0.79534 0.14231 0.0
C206 C 0.35437 0.76022 0.14458 0.0
O207 O 0.34074 0.78886 0.15232 0.0
N208 N 0.38715 0.71203 0.20357 0.0
C209 C 0.37375 0.70166 0.22529 0.0
C210 C 0.38073 0.66763 0.22821 0.0
C211 C 0.40228 0.68445 0.19368 0.0
N212 N 0.39899 0.65691 0.20842 0.0
C213 C 0.33985 0.79138 0.22163 0.0
C214 C 0.2873 0.75045 0.20525 0.0
C215 C 0.28032 0.77501 0.22342 0.0
C216 C 0.30718 0.79568 0.23162 0.0
C217 C 0.32016 0.74696 0.19587 0.0
N218 N 0.34597 0.76772 0.20359 0.0
H219 H 0.36037 0.80615 0.22922 0.0
H220 H 0.32509 0.72638 0.18305 0.0
H221 H 0.36133 0.71805 0.23866 0.0
H222 H 0.41762 0.68531 0.177 0.0
O223 O 0.41743 0.76839 0.22236 0.0
O224 O 0.44011 0.74999 0.1871 0.0
O225 O 0.37538 0.74413 0.15832 0.0
C226 C 0.44452 0.75935 0.21004 0.0
H227 H 0.43146 0.8592 0.14164 0.0
H228 H 0.37407 0.65239 0.24419 0.0
H229 H 0.26784 0.73297 0.19899 0.0
H230 H 0.30315 0.81472 0.24587 0.0
Co231 Co 0.76152 0.89348 0.69258 0.0
C232 C 0.68708 0.90477 0.6962 0.0
C233 C 0.70433 0.90522 0.65852 0.0
C234 C 0.67073 0.91459 0.65889 0.0
N235 N 0.71451 0.89785 0.68183 0.0
N236 N 0.66002 0.91458 0.68261 0.0
H237 H 0.68748 0.9054 0.71624 0.0
H238 H 0.72076 0.90687 0.64249 0.0
C239 C 0.76144 0.85339 0.64535 0.0
O240 O 0.73446 0.83739 0.65376 0.0
N241 N 0.80809 0.89086 0.70327 0.0
C242 C 0.81941 0.87846 0.72502 0.0
C243 C 0.85303 0.88717 0.72763 0.0
C244 C 0.8347 0.90718 0.69305 0.0
N245 N 0.86252 0.90555 0.70764 0.0
C246 C 0.73145 0.84012 0.72268 0.0
C247 C 0.77533 0.78954 0.70688 0.0
C248 C 0.75168 0.78184 0.72551 0.0
C249 C 0.72929 0.80762 0.73325 0.0
C250 C 0.77679 0.82221 0.69703 0.0
N251 N 0.75468 0.84704 0.70453 0.0
H252 H 0.71549 0.86 0.72997 0.0
H253 H 0.79678 0.82783 0.6839 0.0
H254 H 0.80385 0.86558 0.73863 0.0
H255 H 0.83286 0.92218 0.67629 0.0
O256 O 0.75112 0.91902 0.72253 0.0
O257 O 0.76717 0.94147 0.68668 0.0
O258 O 0.77557 0.87647 0.65855 0.0
C259 C 0.75855 0.94615 0.70975 0.0
H260 H 0.65624 0.92381 0.64323 0.0
H261 H 0.86877 0.88165 0.74357 0.0
H262 H 0.79312 0.77062 0.70016 0.0
H263 H 0.71118 0.80318 0.74805 0.0
H264 H 0.92517 0.60796 0.39011 0.0
H265 H 0.95887 0.55728 0.38188 0.0
H266 H 0.97236 0.58833 0.30584 0.0
H267 H 0.93786 0.63904 0.31367 0.0
H268 H 0.94773 0.50496 0.34413 0.0
H269 H 0.07079 0.57384 0.33446 0.0
H270 H 0.03424 0.59283 0.34935 0.0
H271 H 0.03535 0.58836 0.31624 0.0
C272 C 0.93473 0.60396 0.3715 0.0
C273 C 0.92875 0.62783 0.35259 0.0
C274 C 0.95421 0.57499 0.36689 0.0
C275 C 0.96832 0.56931 0.34335 0.0
C276 C 0.96203 0.59258 0.32424 0.0
H277 H 0.06705 0.37076 0.31893 0.0
H278 H 0.03677 0.42346 0.30874 0.0
C279 C 0.94237 0.62159 0.3288 0.0
C280 C 0.98991 0.53905 0.33923 0.0
H281 H 0.07266 0.51412 0.33346 0.0
C282 C 0.97497 0.50683 0.34136 0.0
C283 C 0.02542 0.54183 0.33579 0.0
C284 C 0.04265 0.576 0.33394 0.0
C285 C 0.9948 0.4772 0.34106 0.0
C286 C 0.03046 0.47998 0.33831 0.0
C287 C 0.04528 0.51216 0.33531 0.0
C288 C 0.05288 0.4502 0.34182 0.0
C289 C 0.97769 0.4433 0.34511 0.0
C290 C 0.07312 0.44846 0.36316 0.0
C291 C 0.09047 0.4186 0.36891 0.0
C292 C 0.08804 0.38999 0.35339 0.0
C293 C 0.06955 0.39248 0.33115 0.0
C294 C 0.05203 0.42243 0.32543 0.0
H295 H 0.95059 0.44612 0.35056 0.0
H296 H 0.97879 0.42824 0.32769 0.0
H297 H 0.99105 0.42867 0.35975 0.0
H298 H 0.07418 0.46968 0.376 0.0
H299 H 0.10486 0.41741 0.386 0.0
H300 H 0.86987 0.45042 0.81851 0.0
H301 H 0.92205 0.48049 0.80687 0.0
H302 H 0.9715 0.442 0.87243 0.0
H303 H 0.91984 0.41133 0.88376 0.0
H304 H 0.95125 0.53082 0.8346 0.0
H305 H 0.04424 0.42749 0.82007 0.0
H306 H 0.99893 0.42006 0.82036 0.0
H307 H 0.02227 0.42267 0.84903 0.0
C308 C 0.89218 0.44754 0.83002 0.0
C309 C 0.89081 0.42844 0.85206 0.0
C310 C 0.9219 0.46492 0.82344 0.0
C311 C 0.95082 0.46314 0.8386 0.0
C312 C 0.94979 0.44317 0.86014 0.0
H313 H 0.1015 0.59749 0.88516 0.0
H314 H 0.04927 0.56782 0.8739 0.0
C315 C 0.92015 0.42593 0.86675 0.0
C316 C 0.98093 0.48477 0.83361 0.0
H317 H 0.06756 0.48234 0.83175 0.0
C318 C 0.97665 0.52021 0.83341 0.0
C319 C 0.01403 0.47099 0.83162 0.0
C320 C 0.02013 0.43319 0.83001 0.0
C321 C 1.00473 0.5422 0.83317 0.0
C322 C 0.03789 0.52835 0.83352 0.0
C323 C 0.04213 0.49297 0.83179 0.0
C324 C 0.06823 0.54962 0.83854 0.0
C325 C 0.99861 0.58006 0.83326 0.0
C326 C 0.09635 0.54921 0.82245 0.0
C327 C 0.1264 0.56608 0.82896 0.0
C328 C 0.12887 0.58319 0.85184 0.0
C329 C 0.1003 0.5844 0.86748 0.0
C330 C 0.07035 0.56774 0.86094 0.0
H331 H 0.97398 0.58642 0.82436 0.0
H332 H 0.99754 0.58924 0.85274 0.0
H333 H 0.01927 0.59386 0.82348 0.0
H334 H 0.09535 0.53507 0.80519 0.0
H335 H 0.14814 0.56431 0.8167 0.0
H336 H 0.41704 0.91759 0.15554 0.0
H337 H 0.44665 0.97017 0.1664 0.0
H338 H 0.48062 0.92486 0.23481 0.0
H339 H 0.45131 0.87179 0.22379 0.0
H340 H 0.44192 0.01355 0.20989 0.0
H341 H 0.56933 0.95356 0.19776 0.0
H342 H 0.53114 0.934 0.18594 0.0
H343 H 0.53964 0.93368 0.21863 0.0
C344 C 0.4306 0.91894 0.17298 0.0
C345 C 0.43203 0.89056 0.18872 0.0
C346 C 0.44737 0.94899 0.17922 0.0
C347 C 0.46614 0.95124 0.20125 0.0
C348 C 0.46653 0.92348 0.21759 0.0
H349 H 0.60779 0.12466 0.21997 0.0
H350 H 0.57544 0.07342 0.2316 0.0
C351 C 0.44952 0.89333 0.21139 0.0
C352 C 0.4865 0.98224 0.20604 0.0
H353 H 0.5676 0.01279 0.20237 0.0
C354 C 0.46945 0.01335 0.20876 0.0
C355 C 0.52242 0.98186 0.20471 0.0
C356 C 0.54192 0.9491 0.20149 0.0
C357 C 0.48725 0.04425 0.20887 0.0
C358 C 0.52294 0.04402 0.20573 0.0
C359 C 0.54023 0.01284 0.20473 0.0
C360 C 0.54194 0.07553 0.19985 0.0
C361 C 0.46757 0.07698 0.21148 0.0
C362 C 0.5341 0.09326 0.17807 0.0
C363 C 0.55247 0.12209 0.1714 0.0
C364 C 0.57934 0.13388 0.18629 0.0
C365 C 0.58716 0.1162 0.20822 0.0
C366 C 0.56878 0.087 0.21484 0.0
H367 H 0.44339 0.07296 0.22175 0.0
H368 H 0.48271 0.0967 0.22125 0.0
H369 H 0.46111 0.08667 0.19274 0.0
H370 H 0.5139 0.08451 0.166 0.0
H371 H 0.5453 0.13535 0.15464 0.0
H372 H 0.6504 0.95466 0.72306 0.0
H373 H 0.5977 0.98434 0.73459 0.0
H374 H 0.54631 0.93721 0.67285 0.0
H375 H 0.59873 0.90759 0.66136 0.0
H376 H 0.56311 0.03002 0.70135 0.0
H377 H 0.47956 0.92485 0.73181 0.0
H378 H 0.52537 0.92141 0.73131 0.0
H379 H 0.50136 0.9159 0.70322 0.0
C380 C 0.62759 0.95 0.71239 0.0
C381 C 0.62848 0.92873 0.69137 0.0
C382 C 0.59763 0.96709 0.7189 0.0
C383 C 0.56805 0.96261 0.70476 0.0
C384 C 0.56869 0.94054 0.68427 0.0
H385 H 0.3826 0.03452 0.65884 0.0
H386 H 0.43465 1.00607 0.67115 0.0
C387 C 0.59863 0.92383 0.67761 0.0
C388 C 0.53723 0.98319 0.70961 0.0
H389 H 0.45152 0.97547 0.71705 0.0
C390 C 0.53876 0.01837 0.70546 0.0
C391 C 0.50565 0.96784 0.71506 0.0
C392 C 0.50284 0.93045 0.72085 0.0
C393 C 0.50905 0.03815 0.70449 0.0
C394 C 0.47719 0.02228 0.70819 0.0
C395 C 0.47598 0.98756 0.71416 0.0
C396 C 0.44492 0.0397 0.70204 0.0
C397 C 0.51173 0.07525 0.69768 0.0
C398 C 0.43315 0.06799 0.71552 0.0
C399 C 0.40325 0.0847 0.7083 0.0
C400 C 0.3849 0.07338 0.68748 0.0
C401 C 0.3965 0.04453 0.67453 0.0
C402 C 0.42611 0.02794 0.68173 0.0
H403 H 0.53807 0.08265 0.69258 0.0
H404 H 0.49469 0.0811 0.68185 0.0
H405 H 0.50356 0.09108 0.71368 0.0
H406 H 0.44712 0.07721 0.73146 0.0
H407 H 0.39482 0.10676 0.71866 0.0
H408 H 0.51179 0.28098 0.1873 0.0
H409 H 0.4548 0.28372 0.20524 0.0
H410 H 0.49269 0.24127 0.27353 0.0
H411 H 0.55009 0.23906 0.25583 0.0
H412 H 0.41367 0.23378 0.22278 0.0
H413 H 0.44307 0.32563 0.29797 0.0
H414 H 0.47194 0.31733 0.27261 0.0
H415 H 0.46941 0.28837 0.29833 0.0
C416 C 0.50805 0.2722 0.20615 0.0
C417 C 0.53551 0.25995 0.22019 0.0
C418 C 0.47542 0.2738 0.21638 0.0
C419 C 0.46952 0.26327 0.24088 0.0
C420 C 0.49676 0.25031 0.25479 0.0
H421 H 0.27431 0.21359 0.30552 0.0
H422 H 0.33077 0.21348 0.28688 0.0
C423 C 0.5295 0.24882 0.24459 0.0
C424 C 0.43471 0.26538 0.25159 0.0
H425 H 0.38855 0.29956 0.29931 0.0
C426 C 0.40817 0.24826 0.23947 0.0
C427 C 0.42739 0.28476 0.27312 0.0
C428 C 0.45436 0.30536 0.28616 0.0
C429 C 0.3747 0.24941 0.24855 0.0
C430 C 0.36763 0.26764 0.27065 0.0
C431 C 0.39402 0.28536 0.28249 0.0
C432 C 0.33319 0.26802 0.28206 0.0
C433 C 0.34715 0.23145 0.23415 0.0
C434 C 0.31598 0.29884 0.28618 0.0
C435 C 0.28372 0.29907 0.29726 0.0
C436 C 0.26819 0.26847 0.30464 0.0
C437 C 0.28561 0.2377 0.30044 0.0
C438 C 0.31778 0.23752 0.28944 0.0
H439 H 0.35449 0.2277 0.21441 0.0
H440 H 0.34272 0.206 0.24239 0.0
H441 H 0.32291 0.24589 0.23483 0.0
H442 H 0.3275 0.32272 0.28077 0.0
H443 H 0.27121 0.32322 0.30043 0.0
H444 H 0.27713 0.04939 0.75598 0.0
H445 H 0.27501 0.99214 0.77397 0.0
H446 H 0.23028 0.95375 0.70651 0.0
H447 H 0.23281 0.01052 0.68834 0.0
H448 H 0.21997 0.94954 0.78265 0.0
H449 H 0.31016 0.88955 0.71658 0.0
H450 H 0.30547 0.93505 0.71928 0.0
H451 H 0.27524 0.9106 0.70172 0.0
C452 C 0.26699 0.0287 0.74496 0.0
C453 C 0.2554 0.03446 0.72066 0.0
C454 C 0.26572 0.99602 0.75527 0.0
C455 C 0.25297 0.96851 0.74145 0.0
C456 C 0.24093 0.97437 0.71734 0.0
H457 H 0.19219 0.76988 0.80093 0.0
H458 H 0.19232 0.82674 0.78223 0.0
C459 C 0.24227 1.00693 0.70701 0.0
C460 C 0.2519 0.93374 0.75226 0.0
H461 H 0.27966 0.85231 0.74318 0.0
C462 C 0.23307 0.92827 0.77407 0.0
C463 C 0.26931 0.90606 0.7412 0.0
C464 C 0.29146 0.91056 0.71854 0.0
C465 C 0.23086 0.89585 0.78494 0.0
C466 C 0.24746 0.86798 0.77346 0.0
C467 C 0.26657 0.87356 0.7518 0.0
C468 C 0.24688 0.83317 0.78426 0.0
C469 C 0.21146 0.89189 0.80894 0.0
C470 C 0.27751 0.81738 0.79086 0.0
C471 C 0.27753 0.78485 0.80121 0.0
C472 C 0.24689 0.7672 0.80526 0.0
C473 C 0.21622 0.78272 0.79809 0.0
C474 C 0.21623 0.81539 0.78767 0.0
H475 H 0.20748 0.91671 0.81839 0.0
H476 H 0.18614 0.88077 0.80496 0.0
H477 H 0.22501 0.87458 0.82183 0.0
H478 H 0.3015 0.8304 0.78819 0.0
H479 H 0.30172 0.77345 0.80593 0.0
H480 H 0.50329 0.73494 0.18997 0.0
H481 H 0.55952 0.73289 0.20903 0.0
H482 H 0.51966 0.78153 0.27474 0.0
H483 H 0.46301 0.78301 0.25595 0.0
H484 H 0.60038 0.78422 0.22516 0.0
H485 H 0.56733 0.69932 0.30375 0.0
H486 H 0.53939 0.70567 0.27766 0.0
H487 H 0.54165 0.73695 0.30199 0.0
C488 C 0.50643 0.74515 0.20851 0.0
C489 C 0.47865 0.75896 0.22152 0.0
C490 C 0.53862 0.74396 0.21938 0.0
C491 C 0.54374 0.75652 0.24348 0.0
C492 C 0.51617 0.77092 0.25636 0.0
H493 H 0.72384 0.77716 0.33541 0.0
H494 H 0.66661 0.77918 0.31797 0.0
C495 C 0.48385 0.77195 0.24554 0.0
C496 C 0.57812 0.755 0.25479 0.0
H497 H 0.6226 0.72341 0.30406 0.0
C498 C 0.60525 0.77083 0.24237 0.0
C499 C 0.58447 0.73749 0.27725 0.0
C500 C 0.55677 0.71861 0.29086 0.0
C501 C 0.63842 0.76993 0.25191 0.0
C502 C 0.64473 0.75243 0.27433 0.0
C503 C 0.61764 0.7368 0.28686 0.0
C504 C 0.67931 0.75018 0.28511 0.0
C505 C 0.66641 0.78817 0.23815 0.0
C506 C 0.70529 0.73264 0.27262 0.0
C507 C 0.73803 0.73109 0.28265 0.0
C508 C 0.74542 0.74704 0.30543 0.0
C509 C 0.71906 0.76414 0.31804 0.0
C510 C 0.68634 0.76555 0.30803 0.0
H511 H 0.65619 0.80654 0.22441 0.0
H512 H 0.68318 0.80203 0.25127 0.0
H513 H 0.68215 0.76927 0.22802 0.0
H514 H 0.70022 0.72007 0.2551 0.0
H515 H 0.75747 0.71721 0.27263 0.0
H516 H 0.71098 0.24288 0.8059 0.0
H517 H 0.7105 0.18568 0.78849 0.0
H518 H 0.81988 0.18706 0.7837 0.0
H519 H 0.82073 0.24388 0.80238 0.0
H520 H 0.73163 0.16248 0.7445 0.0
H521 H 0.80381 0.09803 0.81915 0.0
H522 H 0.78754 0.14069 0.82247 0.0
H523 H 0.82617 0.13306 0.80544 0.0
C524 C 0.73506 0.23089 0.80159 0.0
C525 C 0.76596 0.24792 0.80597 0.0
C526 C 0.73469 0.19822 0.7914 0.0
C527 C 0.76516 0.18172 0.7852 0.0
C528 C 0.79606 0.1989 0.78889 0.0
H529 H 0.77924 1.00531 0.68828 0.0
H530 H 0.78047 0.06207 0.70667 0.0
C531 C 0.79648 0.23161 0.79927 0.0
C532 C 0.76422 0.14684 0.77445 0.0
H533 H 0.79219 0.06541 0.78298 0.0
C534 C 0.74484 0.14126 0.75295 0.0
C535 C 0.78097 0.11899 0.78569 0.0
C536 C 0.80052 0.12281 0.80959 0.0
C537 C 0.74207 0.10878 0.74225 0.0
C538 C 0.75981 0.08118 0.75297 0.0
C539 C 0.77883 0.08663 0.77464 0.0
C540 C 0.75908 0.04652 0.7419 0.0
C541 C 0.71955 0.10425 0.71984 0.0
C542 C 0.74747 0.01861 0.75578 0.0
C543 C 0.74702 0.98595 0.74535 0.0
C544 C 0.75826 0.98062 0.72087 0.0
C545 C 0.77007 1.00858 0.7071 0.0
C546 C 0.77065 0.04113 0.71755 0.0
H547 H 0.70041 0.12493 0.71844 0.0
H548 H 0.73542 0.10492 0.7028 0.0
H549 H 0.70604 0.07949 0.72041 0.0
H550 H 0.73858 0.02215 0.77465 0.0
H551 H 0.73789 0.96491 0.75646 0.0
H552 H 0.05196 0.27359 0.28582 0.0
H553 H 0.99485 0.27142 0.26768 0.0
H554 H 0.95395 0.2386 0.33796 0.0
H555 H 0.01067 0.24103 0.35623 0.0
H556 H 0.9509 0.21511 0.26403 0.0
H557 H 0.89214 0.31841 0.31977 0.0
H558 H 0.93756 0.3125 0.31777 0.0
H559 H 0.9125 0.28609 0.33794 0.0
C560 C 0.03075 0.26615 0.29744 0.0
C561 C 0.03585 0.25764 0.3225 0.0
C562 C 0.99815 0.26486 0.28704 0.0
C563 C 0.97003 0.2553 0.30154 0.0
C564 C 0.97511 0.24672 0.32653 0.0
H565 H 0.753 0.23129 0.2738 0.0
H566 H 0.8102 0.23051 0.29173 0.0
C567 C 1.00763 0.24797 0.33692 0.0
C568 C 0.93551 0.2533 0.29042 0.0
H569 H 0.85483 0.2848 0.29537 0.0
C570 C 0.92992 0.23046 0.27078 0.0
C571 C 0.90811 0.27322 0.29934 0.0
C572 C 0.91282 0.29917 0.31971 0.0
C573 C 0.89757 0.22659 0.2601 0.0
C574 C 0.87016 0.24655 0.26899 0.0
C575 C 0.87577 0.26937 0.28864 0.0
C576 C 0.83569 0.24493 0.25772 0.0
C577 C 0.89291 0.20063 0.23973 0.0
C578 C 0.83095 0.25319 0.23264 0.0
C579 C 0.79838 0.2534 0.22232 0.0
C580 C 0.76966 0.24566 0.23689 0.0
C581 C 0.77452 0.23694 0.26195 0.0
C582 C 0.80719 0.23674 0.27228 0.0
H583 H 0.91319 0.18098 0.24009 0.0
H584 H 0.86786 0.18781 0.24128 0.0
H585 H 0.89413 0.21358 0.22148 0.0
H586 H 0.85241 0.26019 0.22112 0.0
H587 H 0.79567 0.25993 0.20291 0.0
H588 H 0.28618 0.5112 0.8538 0.0
H589 H 0.29046 0.45448 0.83561 0.0
H590 H 0.24488 0.4913 0.76808 0.0
H591 H 0.24119 0.54856 0.78605 0.0
H592 H 0.24155 0.41228 0.81963 0.0
H593 H 0.32821 0.44273 0.74153 0.0
H594 H 0.32043 0.47195 0.76678 0.0
H595 H 0.29026 0.46804 0.7419 0.0
C596 C 0.27712 0.50733 0.83503 0.0
C597 C 0.26344 0.53446 0.82133 0.0
C598 C 0.27962 0.47483 0.82465 0.0
C599 C 0.26853 0.46863 0.80032 0.0
C600 C 0.2544 0.49558 0.78667 0.0
H601 H 0.21846 0.27202 0.73862 0.0
H602 H 0.219 0.3286 0.75701 0.0
C603 C 0.25205 0.52825 0.79702 0.0
C604 C 0.27088 0.4337 0.78972 0.0
H605 H 0.30324 0.38756 0.74127 0.0
C606 C 0.25517 0.40689 0.80254 0.0
C607 C 0.28914 0.42648 0.76764 0.0
C608 C 0.30827 0.45374 0.75377 0.0
C609 C 0.2566 0.3733 0.79369 0.0
C610 C 0.27362 0.3663 0.77107 0.0
C611 C 0.28998 0.39295 0.7585 0.0
C612 C 0.27374 0.33172 0.75979 0.0
C613 C 0.24021 0.34555 0.80887 0.0
C614 C 0.30442 0.31477 0.75462 0.0
C615 C 0.30424 0.28236 0.74367 0.0
C616 C 0.27337 0.26646 0.73744 0.0
C617 C 0.24276 0.28359 0.74277 0.0
C618 C 0.24297 0.31586 0.75362 0.0
H619 H 0.23776 0.35303 0.8287 0.0
H620 H 0.21428 0.34063 0.80166 0.0
H621 H 0.25498 0.32154 0.80775 0.0
H622 H 0.32849 0.3266 0.7591 0.0
H623 H 0.32826 0.27005 0.73965 0.0
H624 H 0.96339 0.7497 0.28307 0.0
H625 H 0.02056 0.75294 0.26502 0.0
H626 H 0.06201 0.77531 0.33724 0.0
H627 H 1.00513 0.77187 0.35542 0.0
H628 H 0.06568 0.8091 0.26586 0.0
H629 H 0.1219 0.69662 0.31243 0.0
H630 H 0.07662 0.7037 0.31091 0.0
H631 H 0.10199 0.72657 0.33305 0.0
C632 C 0.98472 0.75504 0.29513 0.0
C633 C 0.97974 0.76035 0.3207 0.0
C634 C 0.01735 0.75696 0.28479 0.0
C635 C 0.04562 0.76394 0.29983 0.0
C636 C 0.04068 0.76925 0.32535 0.0
H637 H 0.26296 0.78493 0.27235 0.0
H638 H 0.206 0.78477 0.29071 0.0
C639 C 1.0081 0.76741 0.33569 0.0
C640 C 0.08012 0.76672 0.28874 0.0
H641 H 0.15978 0.73221 0.29019 0.0
C642 C 0.08624 0.79221 0.27108 0.0
C643 C 0.10696 0.74478 0.29569 0.0
C644 C 0.1016 0.71617 0.31389 0.0
C645 C 0.11859 0.79669 0.26045 0.0
C646 C 0.14541 0.77464 0.26729 0.0
C647 C 0.13928 0.74919 0.28501 0.0
C648 C 0.17981 0.77692 0.2559 0.0
C649 C 0.12388 0.82547 0.24238 0.0
C650 C 0.18409 0.77269 0.23021 0.0
C651 C 0.21658 0.7731 0.21963 0.0
C652 C 0.24562 0.77743 0.23453 0.0
C653 C 0.24121 0.78207 0.26025 0.0
C654 C 0.20866 0.78169 0.27081 0.0
H655 H 0.10431 0.8456 0.24469 0.0
H656 H 0.14939 0.83711 0.24468 0.0
H657 H 0.12193 0.81549 0.22316 0.0
H658 H 0.16234 0.76832 0.21835 0.0
H659 H 0.21894 0.76971 0.19975 0.0
H660 H 0.80674 0.74261 0.73745 0.0
H661 H 0.80731 0.68567 0.7551 0.0
H662 H 0.69793 0.68699 0.75994 0.0
H663 H 0.69699 0.7436 0.74104 0.0
H664 H 0.78612 0.66314 0.79926 0.0
H665 H 0.71434 0.59749 0.72474 0.0
H666 H 0.73057 0.64012 0.72127 0.0
H667 H 0.69194 0.63269 0.73831 0.0
C668 C 0.78268 0.73066 0.74182 0.0
C669 C 0.75175 0.7476 0.73739 0.0
C670 C 0.7831 0.69814 0.75215 0.0
C671 C 0.75266 0.6817 0.75843 0.0
C672 C 0.72173 0.6988 0.75469 0.0
H673 H 0.74001 0.50596 0.85567 0.0
H674 H 0.73828 0.5626 0.83728 0.0
C675 C 0.72126 0.73138 0.74418 0.0
C676 C 0.7537 0.64698 0.76932 0.0
H677 H 0.72634 0.56529 0.76093 0.0
C678 C 0.77306 0.64175 0.79085 0.0
C679 C 0.73714 0.61892 0.75813 0.0
C680 C 0.7176 0.6224 0.73421 0.0
C681 C 0.77608 0.60939 0.80161 0.0
C682 C 0.75858 0.58157 0.79091 0.0
C683 C 0.73952 0.58668 0.76923 0.0
C684 C 0.75964 0.547 0.80201 0.0
C685 C 0.79862 0.60524 0.82404 0.0
C686 C 0.7714 0.51909 0.7881 0.0
C687 C 0.77212 0.48649 0.79852 0.0
C688 C 0.76102 0.48123 0.82302 0.0
C689 C 0.7491 0.50919 0.83683 0.0
C690 C 0.74823 0.54167 0.82638 0.0
H691 H 0.8176 0.62607 0.8254 0.0
H692 H 0.78274 0.60596 0.84107 0.0
H693 H 0.81233 0.58057 0.82352 0.0
H694 H 0.78018 0.52257 0.7692 0.0
H695 H 0.78132 0.46544 0.78738 0.0
H696 H 0.17536 0.29758 0.43844 0.0
H697 H 0.18916 0.27825 0.48025 0.0
H698 H 0.18266 0.1739 0.45567 0.0
H699 H 0.16641 0.19337 0.41409 0.0
H700 H 0.15715 0.17776 0.49926 0.0
H701 H 0.27879 0.2473 0.50272 0.0
H702 H 0.24443 0.2764 0.49812 0.0
H703 H 0.25387 0.24476 0.47479 0.0
C704 C 0.17694 0.27052 0.44199 0.0
C705 C 0.1703 0.24692 0.42305 0.0
C706 C 0.18509 0.25946 0.46585 0.0
C707 C 0.18817 0.22459 0.47102 0.0
C708 C 0.18079 0.20095 0.45216 0.0
H709 H 0.29744 0.16278 0.60341 0.0
H710 H 0.27924 0.17453 0.56099 0.0
C711 C 0.1716 0.21203 0.42841 0.0
C712 C 0.19889 0.21296 0.49611 0.0
H713 H 0.25749 0.22706 0.54153 0.0
C714 C 0.17934 0.18825 0.5084 0.0
C715 C 0.22826 0.22599 0.50794 0.0
C716 C 0.25271 0.24976 0.49506 0.0
C717 C 0.18796 0.17671 0.53227 0.0
C718 C 0.21601 0.19151 0.54475 0.0
C719 C 0.23574 0.21589 0.53226 0.0
C720 C 0.22614 0.18182 0.57044 0.0
C721 C 0.16741 0.14813 0.54338 0.0
C722 C 0.20247 0.1816 0.59008 0.0
C723 C 0.21277 0.17366 0.61426 0.0
C724 C 0.24712 0.16727 0.61936 0.0
C725 C 0.27083 0.16792 0.59991 0.0
C726 C 0.2604 0.17465 0.57567 0.0
H727 H 0.15556 0.13218 0.52871 0.0
H728 H 0.18328 0.13151 0.55528 0.0
H729 H 0.14656 0.15899 0.55481 0.0
H730 H 0.17615 0.18819 0.58686 0.0
H731 H 0.19413 0.17359 0.62909 0.0
H732 H 0.34504 0.69498 0.12852 0.0
H733 H 0.3307 0.6763 0.08636 0.0
H734 H 0.33651 0.78029 0.06108 0.0
H735 H 0.3481 0.79901 0.10345 0.0
H736 H 0.2851 0.75494 0.04212 0.0
H737 H 0.38672 0.6601 0.02737 0.0
H738 H 0.36124 0.6491 0.05372 0.0
H739 H 0.38604 0.68767 0.05411 0.0
C740 C 0.34332 0.71368 0.11384 0.0
C741 C 0.34749 0.74838 0.11912 0.0
C742 C 0.33552 0.703 0.08968 0.0
C743 C 0.33317 0.72673 0.07023 0.0
C744 C 0.33807 0.76138 0.07562 0.0
H745 H 0.32309 0.66811 0.91343 0.0
H746 H 0.34196 0.68496 0.95509 0.0
C747 C 0.34471 0.77211 0.09984 0.0
C748 C 0.32361 0.71609 0.04457 0.0
H749 H 0.34065 0.65881 0.99839 0.0
C750 C 0.29761 0.73412 0.03253 0.0
C751 C 0.34012 0.68928 0.03167 0.0
C752 C 0.37032 0.67072 0.0423 0.0
C753 C 0.28758 0.72617 1.00824 0.0
C754 C 0.30248 0.69794 0.99598 0.0
C755 C 0.32876 0.68009 1.00785 0.0
C756 C 0.29125 0.68675 0.97085 0.0
C757 C 0.26185 0.74899 0.99585 0.0
C758 C 0.25663 0.68136 0.96586 0.0
C759 C 0.24585 0.6729 0.94196 0.0
C760 C 0.26956 0.66821 0.92278 0.0
C761 C 0.30433 0.67175 0.92794 0.0
C762 C 0.31508 0.68129 0.95173 0.0
H763 H 0.26251 0.7751 1.00377 0.0
H764 H 0.26636 0.7508 0.97555 0.0
H765 H 0.23596 0.73873 0.99906 0.0
H766 H 0.23781 0.68389 0.98042 0.0
H767 H 0.21893 0.66958 0.93854 0.0
H768 H 0.8213 0.87412 0.62408 0.0
H769 H 0.8412 0.86292 0.58176 0.0
H770 H 0.75006 0.80553 0.56692 0.0
H771 H 0.73053 0.81569 0.60931 0.0
H772 H 0.80479 0.77389 0.54847 0.0
H773 H 0.80714 0.90944 0.52017 0.0
H774 H 0.83346 0.90032 0.54648 0.0
H775 H 0.7881 0.89554 0.54887 0.0
C776 C 0.80552 0.85908 0.6118 0.0
C777 C 0.77421 0.84598 0.62002 0.0
C778 C 0.81684 0.85288 0.58755 0.0
C779 C 0.79682 0.83395 0.57096 0.0
C780 C 0.7659 0.82031 0.57933 0.0
H781 H 0.80421 0.83342 0.4111 0.0
H782 H 0.79168 0.8413 0.45512 0.0
C783 C 0.75475 0.82618 0.6036 0.0
C784 C 0.80776 0.82832 0.54484 0.0
H785 H 0.8284 0.86953 0.49115 0.0
C786 C 0.80999 0.7948 0.53593 0.0
C787 C 0.81415 0.85562 0.5284 0.0
C788 C 0.8103 0.89226 0.53634 0.0
C789 C 0.81816 0.78781 0.51103 0.0
C790 C 0.82521 0.8151 0.49472 0.0
C791 C 0.82325 0.84861 0.50369 0.0
C792 C 0.83306 0.80967 0.46798 0.0
C793 C 0.81796 0.75132 0.50231 0.0
C794 C 0.86065 0.78942 0.46047 0.0
C795 C 0.86763 0.78449 0.43523 0.0
C796 C 0.84751 0.80025 0.41702 0.0
C797 C 0.82023 0.82091 0.42461 0.0
C798 C 0.81305 0.82549 0.44981 0.0
H799 H 0.80314 0.73474 0.51502 0.0
H800 H 0.80707 0.7491 0.48338 0.0
H801 H 0.84443 0.74162 0.50178 0.0
H802 H 0.87699 0.77764 0.47412 0.0
H803 H 0.88904 0.76871 0.42999 0.0
H804 H 0.71656 0.24374 0.1166 0.0
H805 H 0.72797 0.26215 0.07418 0.0
H806 H 0.64582 0.33443 0.07902 0.0
H807 H 0.63437 0.31642 0.12174 0.0
H808 H 0.68227 0.25894 0.0343 0.0
H809 H 0.725 0.39165 0.05181 0.0
H810 H 0.72281 0.36016 0.0761 0.0
H811 H 0.68469 0.38011 0.06508 0.0
C812 C 0.70105 0.26378 0.10879 0.0
C813 C 0.67453 0.2786 0.1226 0.0
C814 C 0.70761 0.27424 0.0845 0.0
C815 C 0.68794 0.29983 0.07351 0.0
C816 C 0.66167 0.31502 0.08728 0.0
H817 H 0.70459 0.38367 0.92301 0.0
H818 H 0.68464 0.37088 0.96511 0.0
C819 C 0.65508 0.30459 0.11166 0.0
C820 C 0.69426 0.30934 0.04727 0.0
H821 H 0.72141 0.37406 1.00998 0.0
C822 C 0.69074 0.28414 0.02897 0.0
C823 C 0.70498 0.34232 0.04035 0.0
C824 C 0.70989 0.37014 0.05933 0.0
C825 C 0.69809 0.29086 1.00397 0.0
C826 C 0.70989 0.3235 0.99714 0.0
C827 C 0.71244 0.34903 1.0153 0.0
C828 C 0.72145 0.33101 0.97151 0.0
C829 C 0.69309 0.26295 0.98507 0.0
C830 C 0.74895 0.31308 0.96128 0.0
C831 C 0.76038 0.32027 0.93731 0.0
C832 C 0.74467 0.34573 0.92309 0.0
C833 C 0.71719 0.36382 0.93342 0.0
C834 C 0.70578 0.3566 0.95748 0.0
H835 H 0.67485 0.24344 0.99177 0.0
H836 H 0.6837 0.27332 0.96719 0.0
H837 H 0.71778 0.25014 0.98157 0.0
H838 H 0.76187 0.29371 0.97198 0.0
H839 H 0.78172 0.30597 0.93002 0.0
H840 H 0.91585 0.91749 0.30935 0.0
H841 H 0.95327 0.96604 0.31583 0.0
H842 H 0.9807 0.92759 0.3879 0.0
H843 H 0.94246 0.87923 0.382 0.0
H844 H 0.95459 0.01506 0.36003 0.0
H845 H 0.07163 0.93798 0.34398 0.0
H846 H 0.03058 0.92456 0.33267 0.0
H847 H 0.03986 0.9222 0.36517 0.0
C848 C 0.92921 0.91953 0.32681 0.0
C849 C 0.92625 0.89418 0.34507 0.0
C850 C 0.95075 0.94724 0.3304 0.0
C851 C 0.96985 0.95003 0.3522 0.0
C852 C 0.96633 0.92552 0.37083 0.0
H853 H 0.09698 0.12886 0.38221 0.0
H854 H 0.06299 0.07768 0.38928 0.0
C855 C 0.9446 0.89785 0.36734 0.0
C856 C 0.99431 0.97814 0.35482 0.0
H857 H 0.07854 0.99705 0.34881 0.0
C858 C 0.98174 0.0112 0.358 0.0
C859 C 0.02959 0.97271 0.35197 0.0
C860 C 0.04397 0.93752 0.34815 0.0
C861 C 1.00365 0.03929 0.35775 0.0
C862 C 0.03884 0.03394 0.35422 0.0
C863 C 0.05151 1.00082 0.35168 0.0
C864 C 0.06221 0.06277 0.35066 0.0
C865 C 0.989 0.07461 0.36013 0.0
C866 C 0.07359 0.0706 0.32671 0.0
C867 C 0.09261 0.09994 0.32252 0.0
C868 C 0.1007 0.12193 0.34228 0.0
C869 C 0.09061 0.11294 0.3665 0.0
C870 C 0.07139 0.08364 0.37063 0.0
H871 H 0.96078 0.07448 0.36057 0.0
H872 H 0.99835 0.08656 0.3775 0.0
H873 H 0.99759 0.09065 0.34438 0.0
H874 H 0.06661 0.05467 0.3111 0.0
H875 H 0.09959 0.10603 0.30363 0.0
H876 H 0.39192 0.59837 0.87938 0.0
H877 H 0.44452 0.56601 0.88515 0.0
H878 H 0.46077 0.5654 0.80598 0.0
H879 H 0.40843 0.59721 0.80003 0.0
H880 H 0.45798 0.50155 0.86551 0.0
H881 H 0.55315 0.59498 0.83279 0.0
H882 H 0.51037 0.60695 0.84132 0.0
H883 H 0.51904 0.5892 0.81114 0.0
C884 C 0.40682 0.59151 0.86322 0.0
C885 C 0.39594 0.60048 0.83924 0.0
C886 C 0.43689 0.57318 0.86657 0.0
C887 C 0.45672 0.56378 0.84602 0.0
C888 C 0.44626 0.57315 0.82214 0.0
H889 H 0.61644 0.43442 0.80079 0.0
H890 H 0.56759 0.47173 0.80642 0.0
C891 C 0.41627 0.59141 0.81877 0.0
C892 C 0.48709 0.5421 0.8491 0.0
H893 H 0.57085 0.53646 0.83327 0.0
C894 C 0.48285 0.50933 0.85891 0.0
C895 C 0.51944 0.55244 0.84053 0.0
C896 C 0.5259 0.58795 0.83109 0.0
C897 C 0.50976 0.4859 0.85905 0.0
C898 C 0.54161 0.49577 0.84933 0.0
C899 C 0.54623 0.52898 0.84053 0.0
C900 C 0.56989 0.47141 0.84651 0.0
C901 C 0.5036 0.45031 0.86842 0.0
C902 C 0.58708 0.45866 0.86727 0.0
C903 C 0.615 0.43707 0.86412 0.0
C904 C 0.62612 0.42797 0.84017 0.0
C905 C 0.6083 0.44038 0.81949 0.0
C906 C 0.58054 0.46198 0.82265 0.0
H907 H 0.47626 0.44538 0.87214 0.0
H908 H 0.51297 0.43134 0.85473 0.0
H909 H 0.51789 0.44648 0.88593 0.0
H910 H 0.57933 0.46594 0.88583 0.0
H911 H 0.6281 0.42776 0.88039 0.0
H912 H 0.42001 0.62733 0.16547 0.0
H913 H 0.45362 0.57519 0.16123 0.0
H914 H 0.45121 0.56184 0.24061 0.0
H915 H 0.41817 0.61378 0.24507 0.0
H916 H 0.51753 0.56305 0.18239 0.0
H917 H 0.42343 0.46815 0.21463 0.0
H918 H 0.41154 0.51054 0.20518 0.0
H919 H 0.4282 0.50313 0.23577 0.0
C920 C 0.42651 0.61321 0.18201 0.0
C921 C 0.41626 0.62478 0.20561 0.0
C922 C 0.44558 0.58338 0.17953 0.0
C923 C 0.45446 0.56445 0.20057 0.0
C924 C 0.44392 0.57564 0.22408 0.0
H925 H 0.5813 0.40205 0.24705 0.0
H926 H 0.54453 0.45137 0.24182 0.0
C927 C 0.42493 0.6054 0.22658 0.0
C928 C 0.47653 0.53413 0.19836 0.0
H929 H 0.48177 0.45052 0.21463 0.0
C930 C 0.50961 0.53828 0.18905 0.0
C931 C 0.46602 0.50189 0.20702 0.0
C932 C 0.43024 0.4955 0.21599 0.0
C933 C 0.53307 0.51137 0.18937 0.0
C934 C 0.52293 0.47955 0.199 0.0
C935 C 0.48949 0.47509 0.20744 0.0
C936 C 0.54702 0.45097 0.20172 0.0
C937 C 0.56891 0.51753 0.18045 0.0
C938 C 0.56084 0.43462 0.18086 0.0
C939 C 0.58216 0.40646 0.18379 0.0
C940 C 0.58991 0.39416 0.20763 0.0
C941 C 0.57641 0.41109 0.22845 0.0
C942 C 0.5551 0.43912 0.2255 0.0
H943 H 0.57424 0.545 0.17767 0.0
H944 H 0.58755 0.50714 0.19389 0.0
H945 H 0.5728 0.50425 0.16247 0.0
H946 H 0.55458 0.4432 0.16233 0.0
H947 H 0.5923 0.3941 0.16741 0.0
H948 H 0.11511 0.09169 0.74547 0.0
H949 H 0.065 0.05584 0.74063 0.0
H950 H 0.07372 0.06301 0.66105 0.0
H951 H 0.12377 0.09964 0.6657 0.0
H952 H 1.00444 0.06995 0.68264 0.0
H953 H 0.07503 0.95571 0.71424 0.0
H954 H 0.07869 0.99215 0.73424 0.0
H955 H 0.09607 0.99372 0.7034 0.0
C956 C 0.10605 0.08633 0.72693 0.0
C957 C 0.12356 0.09838 0.70594 0.0
C958 C 0.07761 0.06554 0.72421 0.0
C959 C 0.06618 0.05641 0.70051 0.0
C960 C 0.08248 0.06961 0.67949 0.0
H961 H 0.89105 0.92647 0.66441 0.0
H962 H 0.94157 0.96236 0.65969 0.0
C963 C 0.11106 0.09037 0.68218 0.0
C964 C 0.03786 0.03212 0.69789 0.0
H965 H 0.01488 0.95073 0.71171 0.0
C966 C 1.00669 0.04375 0.68866 0.0
C967 C 0.04119 0.99799 0.70567 0.0
C968 C 0.07462 0.98395 0.71475 0.0
C969 C 0.97809 0.02243 0.68817 0.0
C970 C 0.98116 0.98861 0.69678 0.0
C971 C 0.01269 0.97671 0.70517 0.0
C972 C 0.95142 0.96594 0.6991 0.0
C973 C 0.94451 0.03664 0.67957 0.0
C974 C 0.94094 0.95539 0.72272 0.0
C975 C 0.91227 0.93495 0.72547 0.0
C976 C 0.89353 0.92454 0.7046 0.0
C977 C 0.90465 0.93447 0.68085 0.0
C978 C 0.93343 0.95497 0.67812 0.0
H979 H 0.94516 0.06477 0.67778 0.0
H980 H 0.93818 0.0257 0.66116 0.0
H981 H 0.92388 0.02962 0.69268 0.0
H982 H 0.95457 0.96362 0.73913 0.0
H983 H 0.90427 0.92828 0.74404 0.0
loop_
_geom_bond_atom_site_label_1
_geom_bond_atom_site_label_2
_geom_bond_distance
_geom_bond_site_symmetry_2
_ccdc_geom_bond_type
Co0 N4 2.148 . S
Co0 N10 2.128 . S
Co0 N20 2.194 . S
Co0 O25 2.351 . S
Co0 O26 2.155 1_455 S
Co0 O27 2.096 . S
C1 N4 1.301 . S
C1 N5 1.328 . S
C1 H6 0.930 . S
C2 C3 1.333 . S
C2 N4 1.317 . S
C2 H7 0.930 . S
C3 C2 1.333 . S
C3 N5 1.350 . S
C3 H29 0.931 . S
N4 Co0 2.148 . S
N4 C1 1.301 . S
N4 C2 1.317 . S
N5 C1 1.328 . S
N5 C3 1.350 . S
H6 C1 0.930 . S
H7 C2 0.930 . S
C8 O9 1.224 . S
C8 O27 1.247 . S
O9 C8 1.224 . S
N10 Co0 2.128 . S
N10 C11 1.355 . S
N10 C13 1.311 . S
C11 N10 1.355 . S
C11 C12 1.363 . S
C11 H23 0.929 . S
C12 C11 1.363 . S
C12 N14 1.375 . S
C12 H30 0.931 . S
C13 N10 1.311 . S
C13 N14 1.347 . S
C13 H24 0.929 . S
N14 C12 1.375 . S
N14 C13 1.347 . S
C15 C18 1.365 . S
C15 N20 1.328 . S
C15 H21 0.929 . S
C16 C17 1.362 . S
C16 C19 1.378 . S
C16 H31 0.929 . S
C17 C16 1.362 . S
C17 C18 1.366 . S
C18 C15 1.365 . S
C18 C17 1.366 . S
C18 H32 0.930 . S
C19 C16 1.378 . S
C19 N20 1.315 . S
C19 H22 0.930 . S
N20 Co0 2.194 . S
N20 C15 1.328 . S
N20 C19 1.315 . S
H21 C15 0.929 . S
H22 C19 0.930 . S
H23 C11 0.929 . S
H24 C13 0.929 . S
O25 Co0 2.351 . S
O25 C28 1.244 1_455 S
O26 Co0 2.155 1_655 S
O26 C28 1.240 . S
O27 Co0 2.096 . S
O27 C8 1.247 . S
C28 O25 1.244 1_655 S
C28 O26 1.240 . S
H29 C3 0.931 . S
H30 C12 0.931 . S
H31 C16 0.929 . S
H32 C18 0.930 . S
Co33 N37 2.148 . S
Co33 N43 2.128 . S
Co33 N53 2.194 . S
Co33 O58 2.351 . S
Co33 O59 2.155 . S
Co33 O60 2.096 . S
C34 N37 1.301 . S
C34 N38 1.328 . S
C34 H39 0.930 . S
C35 C36 1.333 . S
C35 N37 1.317 . S
C35 H40 0.930 . S
C36 C35 1.333 . S
C36 N38 1.350 . S
C36 H62 0.931 . S
N37 Co33 2.148 . S
N37 C34 1.301 . S
N37 C35 1.317 . S
N38 C34 1.328 . S
N38 C36 1.350 . S
H39 C34 0.930 . S
H40 C35 0.930 . S
C41 O42 1.224 . S
C41 O60 1.247 . S
O42 C41 1.224 . S
N43 Co33 2.128 . S
N43 C44 1.355 . S
N43 C46 1.311 . S
C44 N43 1.355 . S
C44 C45 1.363 . S
C44 H56 0.929 . S
C45 C44 1.363 . S
C45 N47 1.375 . S
C45 H63 0.931 . S
C46 N43 1.311 . S
C46 N47 1.347 . S
C46 H57 0.929 . S
N47 C45 1.375 . S
N47 C46 1.347 . S
C48 C51 1.365 . S
C48 N53 1.328 . S
C48 H54 0.929 . S
C49 C50 1.362 . S
C49 C52 1.378 . S
C49 H64 0.929 . S
C50 C49 1.362 . S
C50 C51 1.366 . S
C51 C48 1.365 . S
C51 C50 1.366 . S
C51 H65 0.930 . S
C52 C49 1.378 . S
C52 N53 1.315 . S
C52 H55 0.930 . S
N53 Co33 2.194 . S
N53 C48 1.328 . S
N53 C52 1.315 . S
H54 C48 0.929 . S
H55 C52 0.930 . S
H56 C44 0.929 . S
H57 C46 0.929 . S
O58 Co33 2.351 . S
O58 C61 1.244 . S
O59 Co33 2.155 . S
O59 C61 1.240 . S
O60 Co33 2.096 . S
O60 C41 1.247 . S
C61 O58 1.244 . S
C61 O59 1.240 . S
H62 C36 0.931 . S
H63 C45 0.931 . S
H64 C49 0.929 . S
H65 C51 0.930 . S
Co66 N70 2.148 . S
Co66 N76 2.128 . S
Co66 N86 2.194 . S
Co66 O91 2.351 . S
Co66 O92 2.155 1_655 S
Co66 O93 2.096 . S
C67 N70 1.301 . S
C67 N71 1.328 . S
C67 H72 0.930 . S
C68 C69 1.333 . S
C68 N70 1.317 . S
C68 H73 0.930 . S
C69 C68 1.333 . S
C69 N71 1.350 . S
C69 H95 0.931 . S
N70 Co66 2.148 . S
N70 C67 1.301 . S
N70 C68 1.317 . S
N71 C67 1.328 . S
N71 C69 1.350 . S
H72 C67 0.930 . S
H73 C68 0.930 . S
C74 O75 1.224 . S
C74 O93 1.247 . S
O75 C74 1.224 . S
N76 Co66 2.128 . S
N76 C77 1.355 . S
N76 C79 1.311 . S
C77 N76 1.355 . S
C77 C78 1.363 . S
C77 H89 0.929 . S
C78 C77 1.363 . S
C78 N80 1.375 . S
C78 H96 0.931 . S
C79 N76 1.311 . S
C79 N80 1.347 . S
C79 H90 0.929 . S
N80 C78 1.375 . S
N80 C79 1.347 . S
C81 C84 1.365 . S
C81 N86 1.328 . S
C81 H87 0.929 . S
C82 C83 1.362 . S
C82 C85 1.378 . S
C82 H97 0.929 . S
C83 C82 1.362 . S
C83 C84 1.366 . S
C84 C81 1.365 . S
C84 C83 1.366 . S
C84 H98 0.930 . S
C85 C82 1.378 . S
C85 N86 1.315 . S
C85 H88 0.930 . S
N86 Co66 2.194 . S
N86 C81 1.328 . S
N86 C85 1.315 . S
H87 C81 0.929 . S
H88 C85 0.930 . S
H89 C77 0.929 . S
H90 C79 0.929 . S
O91 Co66 2.351 . S
O91 C94 1.244 1_655 S
O92 Co66 2.155 1_455 S
O92 C94 1.240 . S
O93 Co66 2.096 . S
O93 C74 1.247 . S
C94 O91 1.244 1_455 S
C94 O92 1.240 . S
H95 C69 0.931 . S
H96 C78 0.931 . S
H97 C82 0.929 . S
H98 C84 0.930 . S
Co99 N103 2.148 . S
Co99 N109 2.128 . S
Co99 N119 2.194 . S
Co99 O124 2.351 . S
Co99 O125 2.155 . S
Co99 O126 2.096 . S
C100 N103 1.301 . S
C100 N104 1.328 . S
C100 H105 0.930 . S
C101 C102 1.333 . S
C101 N103 1.317 . S
C101 H106 0.930 . S
C102 C101 1.333 . S
C102 N104 1.350 . S
C102 H128 0.931 . S
N103 Co99 2.148 . S
N103 C100 1.301 . S
N103 C101 1.317 . S
N104 C100 1.328 . S
N104 C102 1.350 . S
H105 C100 0.930 . S
H106 C101 0.930 . S
C107 O108 1.224 . S
C107 O126 1.247 . S
O108 C107 1.224 . S
N109 Co99 2.128 . S
N109 C110 1.355 . S
N109 C112 1.311 . S
C110 N109 1.355 . S
C110 C111 1.363 . S
C110 H122 0.929 . S
C111 C110 1.363 . S
C111 N113 1.375 . S
C111 H129 0.931 . S
C112 N109 1.311 . S
C112 N113 1.347 . S
C112 H123 0.929 . S
N113 C111 1.375 . S
N113 C112 1.347 . S
C114 C117 1.365 . S
C114 N119 1.328 . S
C114 H120 0.929 . S
C115 C116 1.362 . S
C115 C118 1.378 . S
C115 H130 0.929 . S
C116 C115 1.362 . S
C116 C117 1.366 . S
C117 C114 1.365 . S
C117 C116 1.366 . S
C117 H131 0.930 . S
C118 C115 1.378 . S
C118 N119 1.315 . S
C118 H121 0.930 . S
N119 Co99 2.194 . S
N119 C114 1.328 . S
N119 C118 1.315 . S
H120 C114 0.929 . S
H121 C118 0.930 . S
H122 C110 0.929 . S
H123 C112 0.929 . S
O124 Co99 2.351 . S
O124 C127 1.244 . S
O125 Co99 2.155 . S
O125 C127 1.240 . S
O126 Co99 2.096 . S
O126 C107 1.247 . S
C127 O124 1.244 . S
C127 O125 1.240 . S
H128 C102 0.931 . S
H129 C111 0.931 . S
H130 C115 0.929 . S
H131 C117 0.930 . S
Co132 N136 2.148 . S
Co132 N142 2.128 . S
Co132 N152 2.194 . S
Co132 O157 2.351 . S
Co132 O158 2.155 . S
Co132 O159 2.096 . S
C133 N136 1.301 . S
C133 N137 1.328 . S
C133 H138 0.930 . S
C134 C135 1.333 . S
C134 N136 1.317 . S
C134 H139 0.930 . S
C135 C134 1.333 . S
C135 N137 1.350 . S
C135 H161 0.931 . S
N136 Co132 2.148 . S
N136 C133 1.301 . S
N136 C134 1.317 . S
N137 C133 1.328 . S
N137 C135 1.350 . S
H138 C133 0.930 . S
H139 C134 0.930 . S
C140 O141 1.224 . S
C140 O159 1.247 . S
O141 C140 1.224 . S
N142 Co132 2.128 . S
N142 C143 1.355 . S
N142 C145 1.311 . S
C143 N142 1.355 . S
C143 C144 1.363 . S
C143 H155 0.929 . S
C144 C143 1.363 . S
C144 N146 1.375 . S
C144 H162 0.931 . S
C145 N142 1.311 . S
C145 N146 1.347 . S
C145 H156 0.929 . S
N146 C144 1.375 . S
N146 C145 1.347 . S
C147 C150 1.365 . S
C147 N152 1.328 . S
C147 H153 0.929 . S
C148 C149 1.362 . S
C148 C151 1.378 . S
C148 H163 0.929 . S
C149 C148 1.362 . S
C149 C150 1.366 . S
C150 C147 1.365 . S
C150 C149 1.366 . S
C150 H164 0.930 . S
C151 C148 1.378 . S
C151 N152 1.315 . S
C151 H154 0.930 . S
N152 Co132 2.194 . S
N152 C147 1.328 . S
N152 C151 1.315 . S
H153 C147 0.929 . S
H154 C151 0.930 . S
H155 C143 0.929 . S
H156 C145 0.929 . S
O157 Co132 2.351 . S
O157 C160 1.244 . S
O158 Co132 2.155 . S
O158 C160 1.240 . S
O159 Co132 2.096 . S
O159 C140 1.247 . S
C160 O157 1.244 . S
C160 O158 1.240 . S
H161 C135 0.931 . S
H162 C144 0.931 . S
H163 C148 0.929 . S
H164 C150 0.930 . S
Co165 N169 2.148 . S
Co165 N175 2.128 . S
Co165 N185 2.194 . S
Co165 O190 2.351 . S
Co165 O191 2.155 1_545 S
Co165 O192 2.096 . S
C166 N169 1.301 . S
C166 N170 1.328 . S
C166 H171 0.930 . S
C167 C168 1.333 . S
C167 N169 1.317 . S
C167 H172 0.930 . S
C168 C167 1.333 . S
C168 N170 1.350 . S
C168 H194 0.931 . S
N169 Co165 2.148 . S
N169 C166 1.301 . S
N169 C167 1.317 . S
N170 C166 1.328 . S
N170 C168 1.350 . S
H171 C166 0.930 . S
H172 C167 0.930 . S
C173 O174 1.224 . S
C173 O192 1.247 . S
O174 C173 1.224 . S
N175 Co165 2.128 . S
N175 C176 1.355 . S
N175 C178 1.311 . S
C176 N175 1.355 . S
C176 C177 1.363 . S
C176 H188 0.929 . S
C177 C176 1.363 . S
C177 N179 1.375 . S
C177 H195 0.931 . S
C178 N175 1.311 . S
C178 N179 1.347 . S
C178 H189 0.929 . S
N179 C177 1.375 . S
N179 C178 1.347 . S
C180 C183 1.365 . S
C180 N185 1.328 . S
C180 H186 0.929 . S
C181 C182 1.362 . S
C181 C184 1.378 . S
C181 H196 0.929 . S
C182 C181 1.362 . S
C182 C183 1.366 . S
C183 C180 1.365 . S
C183 C182 1.366 . S
C183 H197 0.930 . S
C184 C181 1.378 . S
C184 N185 1.315 . S
C184 H187 0.930 . S
N185 Co165 2.194 . S
N185 C180 1.328 . S
N185 C184 1.315 . S
H186 C180 0.929 . S
H187 C184 0.930 . S
H188 C176 0.929 . S
H189 C178 0.929 . S
O190 Co165 2.351 . S
O190 C193 1.244 1_545 S
O191 Co165 2.155 1_565 S
O191 C193 1.240 . S
O192 Co165 2.096 . S
O192 C173 1.247 . S
C193 O190 1.244 1_565 S
C193 O191 1.240 . S
H194 C168 0.931 . S
H195 C177 0.931 . S
H196 C181 0.929 . S
H197 C183 0.930 . S
Co198 N202 2.148 . S
Co198 N208 2.128 . S
Co198 N218 2.194 . S
Co198 O223 2.351 . S
Co198 O224 2.155 . S
Co198 O225 2.096 . S
C199 N202 1.301 . S
C199 N203 1.328 . S
C199 H204 0.930 . S
C200 C201 1.333 . S
C200 N202 1.317 . S
C200 H205 0.930 . S
C201 C200 1.333 . S
C201 N203 1.350 . S
C201 H227 0.931 . S
N202 Co198 2.148 . S
N202 C199 1.301 . S
N202 C200 1.317 . S
N203 C199 1.328 . S
N203 C201 1.350 . S
H204 C199 0.930 . S
H205 C200 0.930 . S
C206 O207 1.224 . S
C206 O225 1.247 . S
O207 C206 1.224 . S
N208 Co198 2.128 . S
N208 C209 1.355 . S
N208 C211 1.311 . S
C209 N208 1.355 . S
C209 C210 1.363 . S
C209 H221 0.929 . S
C210 C209 1.363 . S
C210 N212 1.375 . S
C210 H228 0.931 . S
C211 N208 1.311 . S
C211 N212 1.347 . S
C211 H222 0.929 . S
N212 C210 1.375 . S
N212 C211 1.347 . S
C213 C216 1.365 . S
C213 N218 1.328 . S
C213 H219 0.929 . S
C214 C215 1.362 . S
C214 C217 1.378 . S
C214 H229 0.929 . S
C215 C214 1.362 . S
C215 C216 1.366 . S
C216 C213 1.365 . S
C216 C215 1.366 . S
C216 H230 0.930 . S
C217 C214 1.378 . S
C217 N218 1.315 . S
C217 H220 0.930 . S
N218 Co198 2.194 . S
N218 C213 1.328 . S
N218 C217 1.315 . S
H219 C213 0.929 . S
H220 C217 0.930 . S
H221 C209 0.929 . S
H222 C211 0.929 . S
O223 Co198 2.351 . S
O223 C226 1.244 . S
O224 Co198 2.155 . S
O224 C226 1.240 . S
O225 Co198 2.096 . S
O225 C206 1.247 . S
C226 O223 1.244 . S
C226 O224 1.240 . S
H227 C201 0.931 . S
H228 C210 0.931 . S
H229 C214 0.929 . S
H230 C216 0.930 . S
Co231 N235 2.148 . S
Co231 N241 2.128 . S
Co231 N251 2.194 . S
Co231 O256 2.351 . S
Co231 O257 2.155 1_565 S
Co231 O258 2.096 . S
C232 N235 1.301 . S
C232 N236 1.328 . S
C232 H237 0.930 . S
C233 C234 1.333 . S
C233 N235 1.317 . S
C233 H238 0.930 . S
C234 C233 1.333 . S
C234 N236 1.350 . S
C234 H260 0.931 . S
N235 Co231 2.148 . S
N235 C232 1.301 . S
N235 C233 1.317 . S
N236 C232 1.328 . S
N236 C234 1.350 . S
H237 C232 0.930 . S
H238 C233 0.930 . S
C239 O240 1.224 . S
C239 O258 1.247 . S
O240 C239 1.224 . S
N241 Co231 2.128 . S
N241 C242 1.355 . S
N241 C244 1.311 . S
C242 N241 1.355 . S
C242 C243 1.363 . S
C242 H254 0.929 . S
C243 C242 1.363 . S
C243 N245 1.375 . S
C243 H261 0.931 . S
C244 N241 1.311 . S
C244 N245 1.347 . S
C244 H255 0.929 . S
N245 C243 1.375 . S
N245 C244 1.347 . S
C246 C249 1.365 . S
C246 N251 1.328 . S
C246 H252 0.929 . S
C247 C248 1.362 . S
C247 C250 1.378 . S
C247 H262 0.929 . S
C248 C247 1.362 . S
C248 C249 1.366 . S
C249 C246 1.365 . S
C249 C248 1.366 . S
C249 H263 0.930 . S
C250 C247 1.378 . S
C250 N251 1.315 . S
C250 H253 0.930 . S
N251 Co231 2.194 . S
N251 C246 1.328 . S
N251 C250 1.315 . S
H252 C246 0.929 . S
H253 C250 0.930 . S
H254 C242 0.929 . S
H255 C244 0.929 . S
O256 Co231 2.351 . S
O256 C259 1.244 1_565 S
O257 Co231 2.155 1_545 S
O257 C259 1.240 . S
O258 Co231 2.096 . S
O258 C239 1.247 . S
C259 O256 1.244 1_545 S
C259 O257 1.240 . S
H260 C234 0.931 . S
H261 C243 0.931 . S
H262 C247 0.929 . S
H263 C249 0.930 . S
H264 C272 0.929 . S
H265 C274 0.930 . S
H266 C276 0.930 . S
H267 C279 0.929 . S
H268 C282 0.930 . S
H269 C284 0.960 . S
H270 C284 0.960 . S
H271 C284 0.960 . S
C272 H264 0.929 . S
C272 C273 1.377 . S
C272 C274 1.384 . S
C273 C272 1.377 . S
C273 C279 1.390 . S
C274 H265 0.930 . S
C274 C272 1.384 . S
C274 C275 1.372 . S
C275 C274 1.372 . S
C275 C276 1.400 . S
C275 C280 1.490 . S
C276 H266 0.930 . S
C276 C275 1.400 . S
C276 C279 1.386 . S
H277 C293 0.930 . S
H278 C294 0.931 . S
C279 H267 0.929 . S
C279 C273 1.390 . S
C279 C276 1.386 . S
C280 C275 1.490 . S
C280 C282 1.395 . S
C280 C283 1.403 1_655 S
H281 C287 0.930 . S
C282 H268 0.930 . S
C282 C280 1.395 . S
C282 C285 1.403 . S
C283 C280 1.403 1_455 S
C283 C284 1.524 . S
C283 C287 1.400 . S
C284 H269 0.960 . S
C284 H270 0.960 . S
C284 H271 0.960 . S
C284 C283 1.524 . S
C285 C282 1.403 . S
C285 C286 1.392 1_655 S
C285 C289 1.495 . S
C286 C285 1.392 1_455 S
C286 C287 1.385 . S
C286 C288 1.478 . S
C287 H281 0.930 . S
C287 C283 1.400 . S
C287 C286 1.385 . S
C288 C286 1.478 . S
C288 C290 1.381 . S
C288 C294 1.383 . S
C289 C285 1.495 . S
C289 H295 0.959 . S
C289 H296 0.961 . S
C289 H297 0.960 . S
C290 C288 1.381 . S
C290 C291 1.394 . S
C290 H298 0.930 . S
C291 C290 1.394 . S
C291 C292 1.383 . S
C291 H299 0.929 . S
C292 C291 1.383 . S
C292 C293 1.377 . S
C293 H277 0.930 . S
C293 C292 1.377 . S
C293 C294 1.379 . S
C294 H278 0.931 . S
C294 C288 1.383 . S
C294 C293 1.379 . S
H295 C289 0.959 . S
H296 C289 0.961 . S
H297 C289 0.960 . S
H298 C290 0.930 . S
H299 C291 0.929 . S
H300 C308 0.929 . S
H301 C310 0.930 . S
H302 C312 0.930 . S
H303 C315 0.929 . S
H304 C318 0.930 . S
H305 C320 0.960 1_455 S
H306 C320 0.960 . S
H307 C320 0.960 . S
C308 H300 0.929 . S
C308 C309 1.377 . S
C308 C310 1.384 . S
C309 C308 1.377 . S
C309 C315 1.390 . S
C310 H301 0.930 . S
C310 C308 1.384 . S
C310 C311 1.372 . S
C311 C310 1.372 . S
C311 C312 1.400 . S
C311 C316 1.490 . S
C312 H302 0.930 . S
C312 C311 1.400 . S
C312 C315 1.386 . S
H313 C329 0.930 . S
H314 C330 0.931 . S
C315 H303 0.929 . S
C315 C309 1.390 . S
C315 C312 1.386 . S
C316 C311 1.490 . S
C316 C318 1.395 . S
C316 C319 1.403 . S
H317 C323 0.930 . S
C318 H304 0.930 . S
C318 C316 1.395 . S
C318 C321 1.403 1_655 S
C319 C316 1.403 . S
C319 C320 1.524 . S
C319 C323 1.400 1_655 S
C320 H305 0.960 1_655 S
C320 H306 0.960 . S
C320 H307 0.960 . S
C320 C319 1.524 . S
C321 C318 1.403 1_455 S
C321 C322 1.392 . S
C321 C325 1.495 . S
C322 C321 1.392 . S
C322 C323 1.385 . S
C322 C324 1.478 . S
C323 H317 0.930 . S
C323 C319 1.400 1_455 S
C323 C322 1.385 . S
C324 C322 1.478 . S
C324 C326 1.381 . S
C324 C330 1.383 . S
C325 C321 1.495 . S
C325 H331 0.959 1_455 S
C325 H332 0.961 . S
C325 H333 0.960 . S
C326 C324 1.381 . S
C326 C327 1.394 . S
C326 H334 0.930 . S
C327 C326 1.394 . S
C327 C328 1.383 . S
C327 H335 0.929 . S
C328 C327 1.383 . S
C328 C329 1.377 . S
C329 H313 0.930 . S
C329 C328 1.377 . S
C329 C330 1.379 . S
C330 H314 0.931 . S
C330 C324 1.383 . S
C330 C329 1.379 . S
H331 C325 0.959 1_655 S
H332 C325 0.961 . S
H333 C325 0.960 . S
H334 C326 0.930 . S
H335 C327 0.929 . S
H336 C344 0.929 . S
H337 C346 0.930 . S
H338 C348 0.930 . S
H339 C351 0.929 . S
H340 C354 0.930 . S
H341 C356 0.960 . S
H342 C356 0.960 . S
H343 C356 0.960 . S
C344 H336 0.929 . S
C344 C345 1.377 . S
C344 C346 1.384 . S
C345 C344 1.377 . S
C345 C351 1.390 . S
C346 H337 0.930 . S
C346 C344 1.384 . S
C346 C347 1.372 . S
C347 C346 1.372 . S
C347 C348 1.400 . S
C347 C352 1.490 . S
C348 H338 0.930 . S
C348 C347 1.400 . S
C348 C351 1.386 . S
H349 C365 0.930 . S
H350 C366 0.931 . S
C351 H339 0.929 . S
C351 C345 1.390 . S
C351 C348 1.386 . S
C352 C347 1.490 . S
C352 C354 1.395 . S
C352 C355 1.403 . S
H353 C359 0.930 . S
C354 H340 0.930 . S
C354 C352 1.395 . S
C354 C357 1.403 1_565 S
C355 C352 1.403 . S
C355 C356 1.524 . S
C355 C359 1.400 1_565 S
C356 H341 0.960 . S
C356 H342 0.960 . S
C356 H343 0.960 . S
C356 C355 1.524 . S
C357 C354 1.403 1_545 S
C357 C358 1.392 . S
C357 C361 1.495 . S
C358 C357 1.392 . S
C358 C359 1.385 . S
C358 C360 1.478 . S
C359 H353 0.930 . S
C359 C355 1.400 1_545 S
C359 C358 1.385 . S
C360 C358 1.478 . S
C360 C362 1.381 . S
C360 C366 1.383 . S
C361 C357 1.495 . S
C361 H367 0.959 . S
C361 H368 0.961 . S
C361 H369 0.960 . S
C362 C360 1.381 . S
C362 C363 1.394 . S
C362 H370 0.930 . S
C363 C362 1.394 . S
C363 C364 1.383 . S
C363 H371 0.929 . S
C364 C363 1.383 . S
C364 C365 1.377 . S
C365 H349 0.930 . S
C365 C364 1.377 . S
C365 C366 1.379 . S
C366 H350 0.931 . S
C366 C360 1.383 . S
C366 C365 1.379 . S
H367 C361 0.959 . S
H368 C361 0.961 . S
H369 C361 0.960 . S
H370 C362 0.930 . S
H371 C363 0.929 . S
H372 C380 0.929 1_545 S
H373 C382 0.943 . S
H374 C384 0.930 . S
H375 C387 0.929 . S
H376 C390 0.930 . S
H377 C392 0.960 . S
H378 C392 0.960 . S
H379 C392 0.960 . S
C380 H372 0.929 1_565 S
C380 C381 1.377 . S
C380 C382 1.380 1_565 S
C381 C380 1.377 . S
C381 C387 1.390 . S
C382 H373 0.943 . S
C382 C380 1.380 1_545 S
C382 C383 1.364 1_545 S
C383 C382 1.364 1_565 S
C383 C384 1.400 . S
C383 C388 1.490 . S
C384 H374 0.930 . S
C384 C383 1.400 . S
C384 C387 1.386 . S
H385 C401 0.930 . S
H386 C402 0.931 1_565 S
C387 H375 0.929 . S
C387 C381 1.390 . S
C387 C384 1.386 . S
C388 C383 1.490 . S
C388 C390 1.395 1_565 S
C388 C391 1.403 . S
H389 C395 0.930 . S
C390 H376 0.930 . S
C390 C388 1.395 1_545 S
C390 C393 1.403 . S
C391 C388 1.403 . S
C391 C392 1.524 . S
C391 C395 1.400 . S
C392 H377 0.960 . S
C392 H378 0.960 . S
C392 H379 0.960 . S
C392 C391 1.524 . S
C393 C390 1.403 . S
C393 C394 1.392 . S
C393 C397 1.495 . S
C394 C393 1.392 . S
C394 C395 1.385 1_545 S
C394 C396 1.478 . S
C395 H389 0.930 . S
C395 C391 1.400 . S
C395 C394 1.385 1_565 S
C396 C394 1.478 . S
C396 C398 1.381 . S
C396 C402 1.383 . S
C397 C393 1.495 . S
C397 H403 0.959 . S
C397 H404 0.961 . S
C397 H405 0.960 . S
C398 C396 1.381 . S
C398 C399 1.394 . S
C398 H406 0.930 . S
C399 C398 1.394 . S
C399 C400 1.383 . S
C399 H407 0.929 . S
C400 C399 1.383 . S
C400 C401 1.377 . S
C401 H385 0.930 . S
C401 C400 1.377 . S
C401 C402 1.379 . S
C402 H386 0.931 1_545 S
C402 C396 1.383 . S
C402 C401 1.379 . S
H403 C397 0.959 . S
H404 C397 0.961 . S
H405 C397 0.960 . S
H406 C398 0.930 . S
H407 C399 0.929 . S
H408 C416 0.929 . S
H409 C418 0.930 . S
H410 C420 0.930 . S
H411 C423 0.929 . S
H412 C426 0.930 . S
H413 C428 0.960 . S
H414 C428 0.960 . S
H415 C428 0.960 . S
C416 H408 0.929 . S
C416 C417 1.377 . S
C416 C418 1.384 . S
C417 C416 1.377 . S
C417 C423 1.390 . S
C418 H409 0.930 . S
C418 C416 1.384 . S
C418 C419 1.372 . S
C419 C418 1.372 . S
C419 C420 1.400 . S
C419 C424 1.490 . S
C420 H410 0.930 . S
C420 C419 1.400 . S
C420 C423 1.386 . S
H421 C437 0.930 . S
H422 C438 0.931 . S
C423 H411 0.929 . S
C423 C417 1.390 . S
C423 C420 1.386 . S
C424 C419 1.490 . S
C424 C426 1.395 . S
C424 C427 1.403 . S
H425 C431 0.930 . S
C426 H412 0.930 . S
C426 C424 1.395 . S
C426 C429 1.403 . S
C427 C424 1.403 . S
C427 C428 1.524 . S
C427 C431 1.400 . S
C428 H413 0.960 . S
C428 H414 0.960 . S
C428 H415 0.960 . S
C428 C427 1.524 . S
C429 C426 1.403 . S
C429 C430 1.392 . S
C429 C433 1.495 . S
C430 C429 1.392 . S
C430 C431 1.385 . S
C430 C432 1.478 . S
C431 H425 0.930 . S
C431 C427 1.400 . S
C431 C430 1.385 . S
C432 C430 1.478 . S
C432 C434 1.381 . S
C432 C438 1.383 . S
C433 C429 1.495 . S
C433 H439 0.959 . S
C433 H440 0.961 . S
C433 H441 0.960 . S
C434 C432 1.381 . S
C434 C435 1.394 . S
C434 H442 0.930 . S
C435 C434 1.394 . S
C435 C436 1.383 . S
C435 H443 0.929 . S
C436 C435 1.383 . S
C436 C437 1.377 . S
C437 H421 0.930 . S
C437 C436 1.377 . S
C437 C438 1.379 . S
C438 H422 0.931 . S
C438 C432 1.383 . S
C438 C437 1.379 . S
H439 C433 0.959 . S
H440 C433 0.961 . S
H441 C433 0.960 . S
H442 C434 0.930 . S
H443 C435 0.929 . S
H444 C452 0.929 . S
H445 C454 0.930 . S
H446 C456 0.930 . S
H447 C459 0.929 . S
H448 C462 0.930 . S
H449 C464 0.960 . S
H450 C464 0.960 . S
H451 C464 0.960 . S
C452 H444 0.929 . S
C452 C453 1.377 . S
C452 C454 1.384 . S
C453 C452 1.377 . S
C453 C459 1.390 . S
C454 H445 0.930 . S
C454 C452 1.384 . S
C454 C455 1.372 . S
C455 C454 1.372 . S
C455 C456 1.400 . S
C455 C460 1.490 . S
C456 H446 0.930 . S
C456 C455 1.400 . S
C456 C459 1.386 . S
H457 C473 0.930 . S
H458 C474 0.931 . S
C459 H447 0.929 . S
C459 C453 1.390 . S
C459 C456 1.386 . S
C460 C455 1.490 . S
C460 C462 1.395 . S
C460 C463 1.403 . S
H461 C467 0.930 . S
C462 H448 0.930 . S
C462 C460 1.395 . S
C462 C465 1.403 . S
C463 C460 1.403 . S
C463 C464 1.524 . S
C463 C467 1.400 . S
C464 H449 0.960 . S
C464 H450 0.960 . S
C464 H451 0.960 . S
C464 C463 1.524 . S
C465 C462 1.403 . S
C465 C466 1.392 . S
C465 C469 1.495 . S
C466 C465 1.392 . S
C466 C467 1.385 . S
C466 C468 1.478 . S
C467 H461 0.930 . S
C467 C463 1.400 . S
C467 C466 1.385 . S
C468 C466 1.478 . S
C468 C470 1.381 . S
C468 C474 1.383 . S
C469 C465 1.495 . S
C469 H475 0.959 . S
C469 H476 0.961 . S
C469 H477 0.960 . S
C470 C468 1.381 . S
C470 C471 1.394 . S
C470 H478 0.930 . S
C471 C470 1.394 . S
C471 C472 1.383 . S
C471 H479 0.929 . S
C472 C471 1.383 . S
C472 C473 1.377 . S
C473 H457 0.930 . S
C473 C472 1.377 . S
C473 C474 1.379 . S
C474 H458 0.931 . S
C474 C468 1.383 . S
C474 C473 1.379 . S
H475 C469 0.959 . S
H476 C469 0.961 . S
H477 C469 0.960 . S
H478 C470 0.930 . S
H479 C471 0.929 . S
H480 C488 0.929 . S
H481 C490 0.930 . S
H482 C492 0.930 . S
H483 C495 0.929 . S
H484 C498 0.930 . S
H485 C500 0.960 . S
H486 C500 0.960 . S
H487 C500 0.960 . S
C488 H480 0.929 . S
C488 C489 1.377 . S
C488 C490 1.384 . S
C489 C488 1.377 . S
C489 C495 1.390 . S
C490 H481 0.930 . S
C490 C488 1.384 . S
C490 C491 1.372 . S
C491 C490 1.372 . S
C491 C492 1.400 . S
C491 C496 1.490 . S
C492 H482 0.930 . S
C492 C491 1.400 . S
C492 C495 1.386 . S
H493 C509 0.930 . S
H494 C510 0.931 . S
C495 H483 0.929 . S
C495 C489 1.390 . S
C495 C492 1.386 . S
C496 C491 1.490 . S
C496 C498 1.395 . S
C496 C499 1.403 . S
H497 C503 0.930 . S
C498 H484 0.930 . S
C498 C496 1.395 . S
C498 C501 1.403 . S
C499 C496 1.403 . S
C499 C500 1.524 . S
C499 C503 1.400 . S
C500 H485 0.960 . S
C500 H486 0.960 . S
C500 H487 0.960 . S
C500 C499 1.524 . S
C501 C498 1.403 . S
C501 C502 1.392 . S
C501 C505 1.495 . S
C502 C501 1.392 . S
C502 C503 1.385 . S
C502 C504 1.478 . S
C503 H497 0.930 . S
C503 C499 1.400 . S
C503 C502 1.385 . S
C504 C502 1.478 . S
C504 C506 1.381 . S
C504 C510 1.383 . S
C505 C501 1.495 . S
C505 H511 0.959 . S
C505 H512 0.961 . S
C505 H513 0.960 . S
C506 C504 1.381 . S
C506 C507 1.394 . S
C506 H514 0.930 . S
C507 C506 1.394 . S
C507 C508 1.383 . S
C507 H515 0.929 . S
C508 C507 1.383 . S
C508 C509 1.377 . S
C509 H493 0.930 . S
C509 C508 1.377 . S
C509 C510 1.379 . S
C510 H494 0.931 . S
C510 C504 1.383 . S
C510 C509 1.379 . S
H511 C505 0.959 . S
H512 C505 0.961 . S
H513 C505 0.960 . S
H514 C506 0.930 . S
H515 C507 0.929 . S
H516 C524 0.929 . S
H517 C526 0.930 . S
H518 C528 0.930 . S
H519 C531 0.929 . S
H520 C534 0.930 . S
H521 C536 0.960 . S
H522 C536 0.960 . S
H523 C536 0.960 . S
C524 H516 0.929 . S
C524 C525 1.377 . S
C524 C526 1.384 . S
C525 C524 1.377 . S
C525 C531 1.390 . S
C526 H517 0.930 . S
C526 C524 1.384 . S
C526 C527 1.372 . S
C527 C526 1.372 . S
C527 C528 1.400 . S
C527 C532 1.490 . S
C528 H518 0.930 . S
C528 C527 1.400 . S
C528 C531 1.386 . S
H529 C545 0.930 . S
H530 C546 0.931 . S
C531 H519 0.929 . S
C531 C525 1.390 . S
C531 C528 1.386 . S
C532 C527 1.490 . S
C532 C534 1.395 . S
C532 C535 1.403 . S
H533 C539 0.930 . S
C534 H520 0.930 . S
C534 C532 1.395 . S
C534 C537 1.403 . S
C535 C532 1.403 . S
C535 C536 1.524 . S
C535 C539 1.400 . S
C536 H521 0.960 . S
C536 H522 0.960 . S
C536 H523 0.960 . S
C536 C535 1.524 . S
C537 C534 1.403 . S
C537 C538 1.392 . S
C537 C541 1.495 . S
C538 C537 1.392 . S
C538 C539 1.385 . S
C538 C540 1.478 . S
C539 H533 0.930 . S
C539 C535 1.400 . S
C539 C538 1.385 . S
C540 C538 1.478 . S
C540 C542 1.381 . S
C540 C546 1.383 . S
C541 C537 1.495 . S
C541 H547 0.959 . S
C541 H548 0.961 . S
C541 H549 0.960 . S
C542 C540 1.381 . S
C542 C543 1.394 . S
C542 H550 0.930 . S
C543 C542 1.394 . S
C543 C544 1.383 . S
C543 H551 0.929 . S
C544 C543 1.383 . S
C544 C545 1.377 . S
C545 H529 0.930 . S
C545 C544 1.377 . S
C545 C546 1.379 . S
C546 H530 0.931 . S
C546 C540 1.383 . S
C546 C545 1.379 . S
H547 C541 0.959 . S
H548 C541 0.961 . S
H549 C541 0.960 . S
H550 C542 0.930 . S
H551 C543 0.929 . S
H552 C560 0.929 . S
H553 C562 0.930 . S
H554 C564 0.930 . S
H555 C567 0.929 . S
H556 C570 0.930 . S
H557 C572 0.960 . S
H558 C572 0.960 . S
H559 C572 0.960 . S
C560 H552 0.929 . S
C560 C561 1.377 . S
C560 C562 1.384 . S
C561 C560 1.377 . S
C561 C567 1.390 . S
C562 H553 0.930 . S
C562 C560 1.384 . S
C562 C563 1.372 . S
C563 C562 1.372 . S
C563 C564 1.400 . S
C563 C568 1.490 . S
C564 H554 0.930 . S
C564 C563 1.400 . S
C564 C567 1.386 . S
H565 C581 0.930 . S
H566 C582 0.931 . S
C567 H555 0.929 . S
C567 C561 1.390 . S
C567 C564 1.386 . S
C568 C563 1.490 . S
C568 C570 1.395 . S
C568 C571 1.403 . S
H569 C575 0.930 . S
C570 H556 0.930 . S
C570 C568 1.395 . S
C570 C573 1.403 . S
C571 C568 1.403 . S
C571 C572 1.524 . S
C571 C575 1.400 . S
C572 H557 0.960 . S
C572 H558 0.960 . S
C572 H559 0.960 . S
C572 C571 1.524 . S
C573 C570 1.403 . S
C573 C574 1.392 . S
C573 C577 1.495 . S
C574 C573 1.392 . S
C574 C575 1.385 . S
C574 C576 1.478 . S
C575 H569 0.930 . S
C575 C571 1.400 . S
C575 C574 1.385 . S
C576 C574 1.478 . S
C576 C578 1.381 . S
C576 C582 1.383 . S
C577 C573 1.495 . S
C577 H583 0.959 . S
C577 H584 0.961 . S
C577 H585 0.960 . S
C578 C576 1.381 . S
C578 C579 1.394 . S
C578 H586 0.930 . S
C579 C578 1.394 . S
C579 C580 1.383 . S
C579 H587 0.929 . S
C580 C579 1.383 . S
C580 C581 1.377 . S
C581 H565 0.930 . S
C581 C580 1.377 . S
C581 C582 1.379 . S
C582 H566 0.931 . S
C582 C576 1.383 . S
C582 C581 1.379 . S
H583 C577 0.959 . S
H584 C577 0.961 . S
H585 C577 0.960 . S
H586 C578 0.930 . S
H587 C579 0.929 . S
H588 C596 0.929 . S
H589 C598 0.930 . S
H590 C600 0.930 . S
H591 C603 0.929 . S
H592 C606 0.930 . S
H593 C608 0.960 . S
H594 C608 0.960 . S
H595 C608 0.960 . S
C596 H588 0.929 . S
C596 C597 1.377 . S
C596 C598 1.384 . S
C597 C596 1.377 . S
C597 C603 1.390 . S
C598 H589 0.930 . S
C598 C596 1.384 . S
C598 C599 1.372 . S
C599 C598 1.372 . S
C599 C600 1.400 . S
C599 C604 1.490 . S
C600 H590 0.930 . S
C600 C599 1.400 . S
C600 C603 1.386 . S
H601 C617 0.930 . S
H602 C618 0.931 . S
C603 H591 0.929 . S
C603 C597 1.390 . S
C603 C600 1.386 . S
C604 C599 1.490 . S
C604 C606 1.395 . S
C604 C607 1.403 . S
H605 C611 0.930 . S
C606 H592 0.930 . S
C606 C604 1.395 . S
C606 C609 1.403 . S
C607 C604 1.403 . S
C607 C608 1.524 . S
C607 C611 1.400 . S
C608 H593 0.960 . S
C608 H594 0.960 . S
C608 H595 0.960 . S
C608 C607 1.524 . S
C609 C606 1.403 . S
C609 C610 1.392 . S
C609 C613 1.495 . S
C610 C609 1.392 . S
C610 C611 1.385 . S
C610 C612 1.478 . S
C611 H605 0.930 . S
C611 C607 1.400 . S
C611 C610 1.385 . S
C612 C610 1.478 . S
C612 C614 1.381 . S
C612 C618 1.383 . S
C613 C609 1.495 . S
C613 H619 0.959 . S
C613 H620 0.961 . S
C613 H621 0.960 . S
C614 C612 1.381 . S
C614 C615 1.394 . S
C614 H622 0.930 . S
C615 C614 1.394 . S
C615 C616 1.383 . S
C615 H623 0.929 . S
C616 C615 1.383 . S
C616 C617 1.377 . S
C617 H601 0.930 . S
C617 C616 1.377 . S
C617 C618 1.379 . S
C618 H602 0.931 . S
C618 C612 1.383 . S
C618 C617 1.379 . S
H619 C613 0.959 . S
H620 C613 0.961 . S
H621 C613 0.960 . S
H622 C614 0.930 . S
H623 C615 0.929 . S
H624 C632 0.929 . S
H625 C634 0.930 . S
H626 C636 0.930 . S
H627 C639 0.929 . S
H628 C642 0.930 . S
H629 C644 0.960 . S
H630 C644 0.960 . S
H631 C644 0.960 . S
C632 H624 0.929 . S
C632 C633 1.377 . S
C632 C634 1.384 . S
C633 C632 1.377 . S
C633 C639 1.390 . S
C634 H625 0.930 . S
C634 C632 1.384 . S
C634 C635 1.372 . S
C635 C634 1.372 . S
C635 C636 1.400 . S
C635 C640 1.490 . S
C636 H626 0.930 . S
C636 C635 1.400 . S
C636 C639 1.386 . S
H637 C653 0.930 . S
H638 C654 0.931 . S
C639 H627 0.929 . S
C639 C633 1.390 . S
C639 C636 1.386 . S
C640 C635 1.490 . S
C640 C642 1.395 . S
C640 C643 1.403 . S
H641 C647 0.930 . S
C642 H628 0.930 . S
C642 C640 1.395 . S
C642 C645 1.403 . S
C643 C640 1.403 . S
C643 C644 1.524 . S
C643 C647 1.400 . S
C644 H629 0.960 . S
C644 H630 0.960 . S
C644 H631 0.960 . S
C644 C643 1.524 . S
C645 C642 1.403 . S
C645 C646 1.392 . S
C645 C649 1.495 . S
C646 C645 1.392 . S
C646 C647 1.385 . S
C646 C648 1.478 . S
C647 H641 0.930 . S
C647 C643 1.400 . S
C647 C646 1.385 . S
C648 C646 1.478 . S
C648 C650 1.381 . S
C648 C654 1.383 . S
C649 C645 1.495 . S
C649 H655 0.959 . S
C649 H656 0.961 . S
C649 H657 0.960 . S
C650 C648 1.381 . S
C650 C651 1.394 . S
C650 H658 0.930 . S
C651 C650 1.394 . S
C651 C652 1.383 . S
C651 H659 0.929 . S
C652 C651 1.383 . S
C652 C653 1.377 . S
C653 H637 0.930 . S
C653 C652 1.377 . S
C653 C654 1.379 . S
C654 H638 0.931 . S
C654 C648 1.383 . S
C654 C653 1.379 . S
H655 C649 0.959 . S
H656 C649 0.961 . S
H657 C649 0.960 . S
H658 C650 0.930 . S
H659 C651 0.929 . S
H660 C668 0.929 . S
H661 C670 0.930 . S
H662 C672 0.930 . S
H663 C675 0.929 . S
H664 C678 0.930 . S
H665 C680 0.960 . S
H666 C680 0.960 . S
H667 C680 0.960 . S
C668 H660 0.929 . S
C668 C669 1.377 . S
C668 C670 1.384 . S
C669 C668 1.377 . S
C669 C675 1.390 . S
C670 H661 0.930 . S
C670 C668 1.384 . S
C670 C671 1.372 . S
C671 C670 1.372 . S
C671 C672 1.400 . S
C671 C676 1.490 . S
C672 H662 0.930 . S
C672 C671 1.400 . S
C672 C675 1.386 . S
H673 C689 0.930 . S
H674 C690 0.931 . S
C675 H663 0.929 . S
C675 C669 1.390 . S
C675 C672 1.386 . S
C676 C671 1.490 . S
C676 C678 1.395 . S
C676 C679 1.403 . S
H677 C683 0.930 . S
C678 H664 0.930 . S
C678 C676 1.395 . S
C678 C681 1.403 . S
C679 C676 1.403 . S
C679 C680 1.524 . S
C679 C683 1.400 . S
C680 H665 0.960 . S
C680 H666 0.960 . S
C680 H667 0.960 . S
C680 C679 1.524 . S
C681 C678 1.403 . S
C681 C682 1.392 . S
C681 C685 1.495 . S
C682 C681 1.392 . S
C682 C683 1.385 . S
C682 C684 1.478 . S
C683 H677 0.930 . S
C683 C679 1.400 . S
C683 C682 1.385 . S
C684 C682 1.478 . S
C684 C686 1.381 . S
C684 C690 1.383 . S
C685 C681 1.495 . S
C685 H691 0.959 . S
C685 H692 0.961 . S
C685 H693 0.960 . S
C686 C684 1.381 . S
C686 C687 1.394 . S
C686 H694 0.930 . S
C687 C686 1.394 . S
C687 C688 1.383 . S
C687 H695 0.929 . S
C688 C687 1.383 . S
C688 C689 1.377 . S
C689 H673 0.930 . S
C689 C688 1.377 . S
C689 C690 1.379 . S
C690 H674 0.931 . S
C690 C684 1.383 . S
C690 C689 1.379 . S
H691 C685 0.959 . S
H692 C685 0.961 . S
H693 C685 0.960 . S
H694 C686 0.930 . S
H695 C687 0.929 . S
H696 C704 0.929 . S
H697 C706 0.930 . S
H698 C708 0.930 . S
H699 C711 0.929 . S
H700 C714 0.930 . S
H701 C716 0.960 . S
H702 C716 0.960 . S
H703 C716 0.960 . S
C704 H696 0.929 . S
C704 C705 1.377 . S
C704 C706 1.384 . S
C705 C704 1.377 . S
C705 C711 1.390 . S
C706 H697 0.930 . S
C706 C704 1.384 . S
C706 C707 1.372 . S
C707 C706 1.372 . S
C707 C708 1.400 . S
C707 C712 1.490 . S
C708 H698 0.930 . S
C708 C707 1.400 . S
C708 C711 1.386 . S
H709 C725 0.930 . S
H710 C726 0.931 . S
C711 H699 0.929 . S
C711 C705 1.390 . S
C711 C708 1.386 . S
C712 C707 1.490 . S
C712 C714 1.395 . S
C712 C715 1.403 . S
H713 C719 0.930 . S
C714 H700 0.930 . S
C714 C712 1.395 . S
C714 C717 1.403 . S
C715 C712 1.403 . S
C715 C716 1.524 . S
C715 C719 1.400 . S
C716 H701 0.960 . S
C716 H702 0.960 . S
C716 H703 0.960 . S
C716 C715 1.524 . S
C717 C714 1.403 . S
C717 C718 1.392 . S
C717 C721 1.495 . S
C718 C717 1.392 . S
C718 C719 1.385 . S
C718 C720 1.478 . S
C719 H713 0.930 . S
C719 C715 1.400 . S
C719 C718 1.385 . S
C720 C718 1.478 . S
C720 C722 1.381 . S
C720 C726 1.383 . S
C721 C717 1.495 . S
C721 H727 0.959 . S
C721 H728 0.961 . S
C721 H729 0.960 . S
C722 C720 1.381 . S
C722 C723 1.394 . S
C722 H730 0.930 . S
C723 C722 1.394 . S
C723 C724 1.383 . S
C723 H731 0.929 . S
C724 C723 1.383 . S
C724 C725 1.377 . S
C725 H709 0.930 . S
C725 C724 1.377 . S
C725 C726 1.379 . S
C726 H710 0.931 . S
C726 C720 1.383 . S
C726 C725 1.379 . S
H727 C721 0.959 . S
H728 C721 0.961 . S
H729 C721 0.960 . S
H730 C722 0.930 . S
H731 C723 0.929 . S
H732 C740 0.929 . S
H733 C742 0.930 . S
H734 C744 0.930 . S
H735 C747 0.929 . S
H736 C750 0.930 . S
H737 C752 0.960 1_556 S
H738 C752 0.960 . S
H739 C752 0.960 . S
C740 H732 0.929 . S
C740 C741 1.377 . S
C740 C742 1.384 . S
C741 C740 1.377 . S
C741 C747 1.390 . S
C742 H733 0.930 . S
C742 C740 1.384 . S
C742 C743 1.372 . S
C743 C742 1.372 . S
C743 C744 1.400 . S
C743 C748 1.490 . S
C744 H734 0.930 . S
C744 C743 1.400 . S
C744 C747 1.386 . S
H745 C761 0.930 . S
H746 C762 0.931 . S
C747 H735 0.929 . S
C747 C741 1.390 . S
C747 C744 1.386 . S
C748 C743 1.490 . S
C748 C750 1.395 . S
C748 C751 1.403 . S
H749 C755 0.930 . S
C750 H736 0.930 . S
C750 C748 1.395 . S
C750 C753 1.403 1_554 S
C751 C748 1.403 . S
C751 C752 1.524 . S
C751 C755 1.400 1_554 S
C752 H737 0.960 1_554 S
C752 H738 0.960 . S
C752 H739 0.960 . S
C752 C751 1.524 . S
C753 C750 1.403 1_556 S
C753 C754 1.392 . S
C753 C757 1.495 . S
C754 C753 1.392 . S
C754 C755 1.385 . S
C754 C756 1.478 . S
C755 H749 0.930 . S
C755 C751 1.400 1_556 S
C755 C754 1.385 . S
C756 C754 1.478 . S
C756 C758 1.381 . S
C756 C762 1.383 . S
C757 C753 1.495 . S
C757 H763 0.959 1_556 S
C757 H764 0.961 . S
C757 H765 0.960 . S
C758 C756 1.381 . S
C758 C759 1.394 . S
C758 H766 0.930 . S
C759 C758 1.394 . S
C759 C760 1.383 . S
C759 H767 0.929 . S
C760 C759 1.383 . S
C760 C761 1.377 . S
C761 H745 0.930 . S
C761 C760 1.377 . S
C761 C762 1.379 . S
C762 H746 0.931 . S
C762 C756 1.383 . S
C762 C761 1.379 . S
H763 C757 0.959 1_554 S
H764 C757 0.961 . S
H765 C757 0.960 . S
H766 C758 0.930 . S
H767 C759 0.929 . S
H768 C776 0.929 . S
H769 C778 0.930 . S
H770 C780 0.930 . S
H771 C783 0.929 . S
H772 C786 0.930 . S
H773 C788 0.960 . S
H774 C788 0.960 . S
H775 C788 0.960 . S
C776 H768 0.929 . S
C776 C777 1.377 . S
C776 C778 1.384 . S
C777 C776 1.377 . S
C777 C783 1.390 . S
C778 H769 0.930 . S
C778 C776 1.384 . S
C778 C779 1.372 . S
C779 C778 1.372 . S
C779 C780 1.400 . S
C779 C784 1.490 . S
C780 H770 0.930 . S
C780 C779 1.400 . S
C780 C783 1.386 . S
H781 C797 0.930 . S
H782 C798 0.931 . S
C783 H771 0.929 . S
C783 C777 1.390 . S
C783 C780 1.386 . S
C784 C779 1.490 . S
C784 C786 1.395 . S
C784 C787 1.403 . S
H785 C791 0.930 . S
C786 H772 0.930 . S
C786 C784 1.395 . S
C786 C789 1.403 . S
C787 C784 1.403 . S
C787 C788 1.524 . S
C787 C791 1.400 . S
C788 H773 0.960 . S
C788 H774 0.960 . S
C788 H775 0.960 . S
C788 C787 1.524 . S
C789 C786 1.403 . S
C789 C790 1.392 . S
C789 C793 1.495 . S
C790 C789 1.392 . S
C790 C791 1.385 . S
C790 C792 1.478 . S
C791 H785 0.930 . S
C791 C787 1.400 . S
C791 C790 1.385 . S
C792 C790 1.478 . S
C792 C794 1.381 . S
C792 C798 1.383 . S
C793 C789 1.495 . S
C793 H799 0.959 . S
C793 H800 0.961 . S
C793 H801 0.960 . S
C794 C792 1.381 . S
C794 C795 1.394 . S
C794 H802 0.930 . S
C795 C794 1.394 . S
C795 C796 1.383 . S
C795 H803 0.929 . S
C796 C795 1.383 . S
C796 C797 1.377 . S
C797 H781 0.930 . S
C797 C796 1.377 . S
C797 C798 1.379 . S
C798 H782 0.931 . S
C798 C792 1.383 . S
C798 C797 1.379 . S
H799 C793 0.959 . S
H800 C793 0.961 . S
H801 C793 0.960 . S
H802 C794 0.930 . S
H803 C795 0.929 . S
H804 C812 0.929 . S
H805 C814 0.930 . S
H806 C816 0.930 . S
H807 C819 0.929 . S
H808 C822 0.930 . S
H809 C824 0.960 . S
H810 C824 0.960 . S
H811 C824 0.960 . S
C812 H804 0.929 . S
C812 C813 1.377 . S
C812 C814 1.384 . S
C813 C812 1.377 . S
C813 C819 1.390 . S
C814 H805 0.930 . S
C814 C812 1.384 . S
C814 C815 1.372 . S
C815 C814 1.372 . S
C815 C816 1.400 . S
C815 C820 1.490 . S
C816 H806 0.930 . S
C816 C815 1.400 . S
C816 C819 1.386 . S
H817 C833 0.930 . S
H818 C834 0.931 . S
C819 H807 0.929 . S
C819 C813 1.390 . S
C819 C816 1.386 . S
C820 C815 1.490 . S
C820 C822 1.395 . S
C820 C823 1.403 . S
H821 C827 0.930 . S
C822 H808 0.930 . S
C822 C820 1.395 . S
C822 C825 1.403 1_554 S
C823 C820 1.403 . S
C823 C824 1.524 . S
C823 C827 1.400 1_554 S
C824 H809 0.960 . S
C824 H810 0.960 . S
C824 H811 0.960 . S
C824 C823 1.524 . S
C825 C822 1.403 1_556 S
C825 C826 1.392 . S
C825 C829 1.495 . S
C826 C825 1.392 . S
C826 C827 1.385 . S
C826 C828 1.478 . S
C827 H821 0.930 . S
C827 C823 1.400 1_556 S
C827 C826 1.385 . S
C828 C826 1.478 . S
C828 C830 1.381 . S
C828 C834 1.383 . S
C829 C825 1.495 . S
C829 H835 0.959 . S
C829 H836 0.961 . S
C829 H837 0.960 . S
C830 C828 1.381 . S
C830 C831 1.394 . S
C830 H838 0.930 . S
C831 C830 1.394 . S
C831 C832 1.383 . S
C831 H839 0.929 . S
C832 C831 1.383 . S
C832 C833 1.377 . S
C833 H817 0.930 . S
C833 C832 1.377 . S
C833 C834 1.379 . S
C834 H818 0.931 . S
C834 C828 1.383 . S
C834 C833 1.379 . S
H835 C829 0.959 . S
H836 C829 0.961 . S
H837 C829 0.960 . S
H838 C830 0.930 . S
H839 C831 0.929 . S
H840 C848 0.929 . S
H841 C850 0.930 . S
H842 C852 0.930 . S
H843 C855 0.929 . S
H844 C858 0.930 . S
H845 C860 0.960 . S
H846 C860 0.960 . S
H847 C860 0.960 . S
C848 H840 0.929 . S
C848 C849 1.377 . S
C848 C850 1.384 . S
C849 C848 1.377 . S
C849 C855 1.390 . S
C850 H841 0.930 . S
C850 C848 1.384 . S
C850 C851 1.372 . S
C851 C850 1.372 . S
C851 C852 1.400 . S
C851 C856 1.490 . S
C852 H842 0.930 . S
C852 C851 1.400 . S
C852 C855 1.386 . S
H853 C869 0.930 . S
H854 C870 0.931 . S
C855 H843 0.929 . S
C855 C849 1.390 . S
C855 C852 1.386 . S
C856 C851 1.490 . S
C856 C858 1.395 . S
C856 C859 1.403 1_655 S
H857 C863 0.930 . S
C858 H844 0.930 . S
C858 C856 1.395 . S
C858 C861 1.403 1_565 S
C859 C856 1.403 1_455 S
C859 C860 1.524 . S
C859 C863 1.400 1_565 S
C860 H845 0.960 . S
C860 H846 0.960 . S
C860 H847 0.960 . S
C860 C859 1.524 . S
C861 C858 1.403 1_545 S
C861 C862 1.392 1_655 S
C861 C865 1.495 . S
C862 C861 1.392 1_455 S
C862 C863 1.385 . S
C862 C864 1.478 . S
C863 H857 0.930 . S
C863 C859 1.400 1_545 S
C863 C862 1.385 . S
C864 C862 1.478 . S
C864 C866 1.381 . S
C864 C870 1.383 . S
C865 C861 1.495 . S
C865 H871 0.959 . S
C865 H872 0.961 . S
C865 H873 0.960 . S
C866 C864 1.381 . S
C866 C867 1.394 . S
C866 H874 0.930 . S
C867 C866 1.394 . S
C867 C868 1.383 . S
C867 H875 0.929 . S
C868 C867 1.383 . S
C868 C869 1.377 . S
C869 H853 0.930 . S
C869 C868 1.377 . S
C869 C870 1.379 . S
C870 H854 0.931 . S
C870 C864 1.383 . S
C870 C869 1.379 . S
H871 C865 0.959 . S
H872 C865 0.961 . S
H873 C865 0.960 . S
H874 C866 0.930 . S
H875 C867 0.929 . S
H876 C884 0.929 . S
H877 C886 0.930 . S
H878 C888 0.930 . S
H879 C891 0.929 . S
H880 C894 0.930 . S
H881 C896 0.960 . S
H882 C896 0.960 . S
H883 C896 0.960 . S
C884 H876 0.929 . S
C884 C885 1.377 . S
C884 C886 1.384 . S
C885 C884 1.377 . S
C885 C891 1.390 . S
C886 H877 0.930 . S
C886 C884 1.384 . S
C886 C887 1.372 . S
C887 C886 1.372 . S
C887 C888 1.400 . S
C887 C892 1.490 . S
C888 H878 0.930 . S
C888 C887 1.400 . S
C888 C891 1.386 . S
H889 C905 0.930 . S
H890 C906 0.931 . S
C891 H879 0.929 . S
C891 C885 1.390 . S
C891 C888 1.386 . S
C892 C887 1.490 . S
C892 C894 1.395 . S
C892 C895 1.403 . S
H893 C899 0.930 . S
C894 H880 0.930 . S
C894 C892 1.395 . S
C894 C897 1.403 . S
C895 C892 1.403 . S
C895 C896 1.524 . S
C895 C899 1.400 . S
C896 H881 0.960 . S
C896 H882 0.960 . S
C896 H883 0.960 . S
C896 C895 1.524 . S
C897 C894 1.403 . S
C897 C898 1.392 . S
C897 C901 1.495 . S
C898 C897 1.392 . S
C898 C899 1.385 . S
C898 C900 1.478 . S
C899 H893 0.930 . S
C899 C895 1.400 . S
C899 C898 1.385 . S
C900 C898 1.478 . S
C900 C902 1.381 . S
C900 C906 1.383 . S
C901 C897 1.495 . S
C901 H907 0.959 . S
C901 H908 0.961 . S
C901 H909 0.960 . S
C902 C900 1.381 . S
C902 C903 1.394 . S
C902 H910 0.930 . S
C903 C902 1.394 . S
C903 C904 1.383 . S
C903 H911 0.929 . S
C904 C903 1.383 . S
C904 C905 1.377 . S
C905 H889 0.930 . S
C905 C904 1.377 . S
C905 C906 1.379 . S
C906 H890 0.931 . S
C906 C900 1.383 . S
C906 C905 1.379 . S
H907 C901 0.959 . S
H908 C901 0.961 . S
H909 C901 0.960 . S
H910 C902 0.930 . S
H911 C903 0.929 . S
H912 C920 0.929 . S
H913 C922 0.930 . S
H914 C924 0.930 . S
H915 C927 0.929 . S
H916 C930 0.930 . S
H917 C932 0.960 . S
H918 C932 0.960 . S
H919 C932 0.960 . S
C920 H912 0.929 . S
C920 C921 1.377 . S
C920 C922 1.384 . S
C921 C920 1.377 . S
C921 C927 1.390 . S
C922 H913 0.930 . S
C922 C920 1.384 . S
C922 C923 1.372 . S
C923 C922 1.372 . S
C923 C924 1.400 . S
C923 C928 1.490 . S
C924 H914 0.930 . S
C924 C923 1.400 . S
C924 C927 1.386 . S
H925 C941 0.930 . S
H926 C942 0.931 . S
C927 H915 0.929 . S
C927 C921 1.390 . S
C927 C924 1.386 . S
C928 C923 1.490 . S
C928 C930 1.395 . S
C928 C931 1.403 . S
H929 C935 0.930 . S
C930 H916 0.930 . S
C930 C928 1.395 . S
C930 C933 1.403 . S
C931 C928 1.403 . S
C931 C932 1.524 . S
C931 C935 1.400 . S
C932 H917 0.960 . S
C932 H918 0.960 . S
C932 H919 0.960 . S
C932 C931 1.524 . S
C933 C930 1.403 . S
C933 C934 1.392 . S
C933 C937 1.495 . S
C934 C933 1.392 . S
C934 C935 1.385 . S
C934 C936 1.478 . S
C935 H929 0.930 . S
C935 C931 1.400 . S
C935 C934 1.385 . S
C936 C934 1.478 . S
C936 C938 1.381 . S
C936 C942 1.383 . S
C937 C933 1.495 . S
C937 H943 0.959 . S
C937 H944 0.961 . S
C937 H945 0.960 . S
C938 C936 1.381 . S
C938 C939 1.394 . S
C938 H946 0.930 . S
C939 C938 1.394 . S
C939 C940 1.383 . S
C939 H947 0.929 . S
C940 C939 1.383 . S
C940 C941 1.377 . S
C941 H925 0.930 . S
C941 C940 1.377 . S
C941 C942 1.379 . S
C942 H926 0.931 . S
C942 C936 1.383 . S
C942 C941 1.379 . S
H943 C937 0.959 . S
H944 C937 0.961 . S
H945 C937 0.960 . S
H946 C938 0.930 . S
H947 C939 0.929 . S
H948 C956 0.929 . S
H949 C958 0.930 . S
H950 C960 0.930 1_565 S
H951 C963 0.929 . S
H952 C966 0.930 . S
H953 C968 0.960 . S
H954 C968 0.960 . S
H955 C968 0.960 . S
C956 H948 0.929 . S
C956 C957 1.377 . S
C956 C958 1.384 . S
C957 C956 1.377 . S
C957 C963 1.390 . S
C958 H949 0.930 . S
C958 C956 1.384 . S
C958 C959 1.372 . S
C959 C958 1.372 . S
C959 C960 1.400 . S
C959 C964 1.490 . S
C960 H950 0.930 1_545 S
C960 C959 1.400 . S
C960 C963 1.386 . S
H961 C977 0.930 . S
H962 C978 0.931 . S
C963 H951 0.929 . S
C963 C957 1.390 . S
C963 C960 1.386 . S
C964 C959 1.490 . S
C964 C966 1.395 . S
C964 C967 1.403 1_545 S
H965 C971 0.930 . S
C966 H952 0.930 . S
C966 C964 1.395 . S
C966 C969 1.403 1_455 S
C967 C964 1.403 1_565 S
C967 C968 1.524 . S
C967 C971 1.400 1_455 S
C968 H953 0.960 . S
C968 H954 0.960 . S
C968 H955 0.960 . S
C968 C967 1.524 . S
C969 C966 1.403 1_655 S
C969 C970 1.392 1_545 S
C969 C973 1.495 . S
C970 C969 1.392 1_565 S
C970 C971 1.385 . S
C970 C972 1.478 . S
C971 H965 0.930 . S
C971 C967 1.400 1_655 S
C971 C970 1.385 . S
C972 C970 1.478 . S
C972 C974 1.381 . S
C972 C978 1.383 . S
C973 C969 1.495 . S
C973 H979 0.959 . S
C973 H980 0.961 . S
C973 H981 0.960 . S
C974 C972 1.381 . S
C974 C975 1.394 . S
C974 H982 0.930 1_565 S
C975 C974 1.394 . S
C975 C976 1.383 . S
C975 H983 0.929 . S
C976 C975 1.383 . S
C976 C977 1.377 . S
C977 H961 0.930 . S
C977 C976 1.377 . S
C977 C978 1.379 . S
C978 H962 0.931 . S
C978 C972 1.383 . S
C978 C977 1.379 . S
H979 C973 0.959 . S
H980 C973 0.961 . S
H981 C973 0.960 . S
H982 C974 0.930 1_545 S
H983 C975 0.929 . S
C273 N71 1.132 . S
C292 N5 1.114 . S
C309 N104 1.141 . S
C328 N38 1.154 . S
C345 N203 1.132 . S
C364 N137 1.125 . S
C381 N236 1.141 . S
C400 N170 1.131 . S
C417 C160 1.956 . S
C436 C17 1.958 . S
C453 C193 1.957 . S
C472 C50 1.949 . S
C489 C226 1.956 . S
C508 C83 1.958 . S
C525 C116 1.954 . S
C544 C259 1.958 . S
C561 C28 1.958 . S
C580 C149 1.947 . S
C597 C61 1.956 . S
C616 C182 1.957 . S
C633 C94 1.958 . S
C652 C215 1.947 . S
C669 C248 1.955 . S
C688 C127 1.957 . S
C705 C8 1.807 . S
C724 C173 1.800 . S
C741 C206 1.803 . S
C760 C41 1.802 . S
C777 C239 1.808 . S
C796 C74 1.820 . S
C813 C140 1.803 . S
C832 C107 1.797 . S
C849 N80 0.541 . S
C868 N14 0.513 . S
C885 N47 0.572 . S
C904 N113 0.633 . S
C921 N212 0.569 . S
C940 N146 0.638 . S
C957 N179 0.552 . S
C976 N245 0.574 . S
