# Generated by pormake.
# Topology smt, (6)-cn, num edge types: 1
# Building blocks:
#     Node 0, Type 0, BuildingBlock: CIFDUS_clean_sbu_1, # of connection points: 6
#     Node 1, Type 0, BuildingBlock: CIFDUS_clean_sbu_1, # of connection points: 6
#     Node 2, Type 0, BuildingBlock: CIFDUS_clean_sbu_1, # of connection points: 6
#     Node 3, Type 0, BuildingBlock: CIFDUS_clean_sbu_1, # of connection points: 6
#     Node 4, Type 0, BuildingBlock: CIFDUS_clean_sbu_1, # of connection points: 6
#     Node 5, Type 0, BuildingBlock: CIFDUS_clean_sbu_1, # of connection points: 6
#     Edge 6, Type (0, 0), BuildingBlock: UVAHIK_clean_linker_0, # of connection points: 2
#     Edge 7, Type (0, 0), BuildingBlock: UVAHIK_clean_linker_0, # of connection points: 2
#     Edge 8, Type (0, 0), BuildingBlock: UVAHIK_clean_linker_0, # of connection points: 2
#     Edge 9, Type (0, 0), BuildingBlock: UVAHIK_clean_linker_0, # of connection points: 2
#     Edge 10, Type (0, 0), BuildingBlock: UVAHIK_clean_linker_0, # of connection points: 2
#     Edge 11, Type (0, 0), BuildingBlock: UVAHIK_clean_linker_0, # of connection points: 2
#     Edge 12, Type (0, 0), BuildingBlock: UVAHIK_clean_linker_0, # of connection points: 2
#     Edge 13, Type (0, 0), BuildingBlock: UVAHIK_clean_linker_0, # of connection points: 2
#     Edge 14, Type (0, 0), BuildingBlock: UVAHIK_clean_linker_0, # of connection points: 2
#     Edge 15, Type (0, 0), BuildingBlock: UVAHIK_clean_linker_0, # of connection points: 2
#     Edge 16, Type (0, 0), BuildingBlock: UVAHIK_clean_linker_0, # of connection points: 2
#     Edge 17, Type (0, 0), BuildingBlock: UVAHIK_clean_linker_0, # of connection points: 2
#     Edge 18, Type (0, 0), BuildingBlock: UVAHIK_clean_linker_0, # of connection points: 2
#     Edge 19, Type (0, 0), BuildingBlock: UVAHIK_clean_linker_0, # of connection points: 2
#     Edge 20, Type (0, 0), BuildingBlock: UVAHIK_clean_linker_0, # of connection points: 2
#     Edge 21, Type (0, 0), BuildingBlock: UVAHIK_clean_linker_0, # of connection points: 2
#     Edge 22, Type (0, 0), BuildingBlock: UVAHIK_clean_linker_0, # of connection points: 2
#     Edge 23, Type (0, 0), BuildingBlock: UVAHIK_clean_linker_0, # of connection points: 2
# Relax obj value: 0.308
# Max RMSD: 0.271
# Mean RMSD: 0.271
data_MOF--net-smt--node1-CIFDUS_clean_sbu_1--edge1-UVAHIK_clean_linker_0
_symmetry_space_group_name_H-M    P1
_symmetry_Int_Tables_number       1
_symmetry_cell_setting            triclinic
loop_
_symmetry_equiv_pos_as_xyz
'x, y, z'
_cell_length_a     45.394981
_cell_length_b     45.315891
_cell_length_c     29.171601
_cell_angle_alpha  90.03887
_cell_angle_beta   90.18612
_cell_angle_gamma 120.13866
loop_
_atom_site_label
_atom_site_type_symbol
_atom_site_fract_x
_atom_site_fract_y
_atom_site_fract_z
_atom_type_partial_charge
O0 O 0.46094 0.15281 0.98518 0.0
Mn1 Mn 0.46094 0.11358 0.02274 0.0
O2 O 0.51309 0.1815 0.95264 0.0
Mn3 Mn 0.53063 0.15456 0.97264 0.0
O4 O 0.46337 0.07643 0.06257 0.0
O5 O 0.4262 0.11433 0.06337 0.0
Mn6 Mn 0.39701 0.07397 0.08493 0.0
O7 O 0.42178 0.07536 0.98294 0.0
O8 O 0.42526 0.06375 0.11896 0.0
O9 O 0.49983 0.14885 0.06622 0.0
O10 O 0.54962 0.16501 0.03051 0.0
O11 O 0.38396 0.10475 0.10599 0.0
O12 O 0.37778 0.0476 0.03224 0.0
C13 C 0.50654 0.1027 0.94795 0.0
C14 C 0.48373 0.17749 0.9612 0.0
C15 C 0.45175 0.06462 0.10268 0.0
C16 C 0.40962 0.12698 0.08255 0.0
C17 C 0.39142 0.05117 0.99271 0.0
C18 C 0.53254 0.16285 0.06619 0.0
O19 O 0.49494 0.11367 0.97964 0.0
O20 O 0.53573 0.12574 0.93228 0.0
O21 O 0.34443 0.41471 0.14238 0.0
Mn22 Mn 0.34989 0.45674 0.17971 0.0
O23 O 0.32042 0.37089 0.19272 0.0
Mn24 Mn 0.31217 0.39277 0.24113 0.0
O25 O 0.35721 0.49806 0.22148 0.0
O26 O 0.39076 0.48652 0.14171 0.0
Mn27 Mn 0.3968 0.52753 0.13569 0.0
O28 O 0.31983 0.4662 0.13447 0.0
O29 O 0.40528 0.54298 0.19506 0.0
O30 O 0.38174 0.45134 0.22661 0.0
O31 O 0.34777 0.41686 0.28171 0.0
O32 O 0.42944 0.52597 0.09959 0.0
O33 O 0.35605 0.51999 0.1099 0.0
C34 C 0.27686 0.41074 0.22954 0.0
C35 C 0.33397 0.38346 0.15387 0.0
C36 C 0.38375 0.52783 0.22679 0.0
C37 C 0.41496 0.49458 0.11288 0.0
C38 C 0.32646 0.49327 0.11178 0.0
C39 C 0.37673 0.44048 0.26809 0.0
O40 O 0.30774 0.42533 0.21491 0.0
O41 O 0.2684 0.38382 0.25382 0.0
O42 O 0.85318 0.3104 0.30632 0.0
Mn43 Mn 0.89408 0.35343 0.33651 0.0
O44 O 0.82782 0.32998 0.2582 0.0
Mn45 Mn 0.85659 0.37629 0.26791 0.0
O46 O 0.93285 0.39697 0.36972 0.0
O47 O 0.8915 0.32355 0.38829 0.0
Mn48 Mn 0.93157 0.33435 0.41093 0.0
O49 O 0.93036 0.34486 0.30464 0.0
O50 O 0.94737 0.37813 0.43274 0.0
O51 O 0.86038 0.36526 0.37026 0.0
O52 O 0.84824 0.39489 0.31889 0.0
O53 O 0.89908 0.2947 0.44049 0.0
O54 O 0.95601 0.33182 0.36124 0.0
C55 C 0.90867 0.39992 0.24613 0.0
C56 C 0.82961 0.30573 0.27766 0.0
C57 C 0.94783 0.40203 0.409 0.0
C58 C 0.87764 0.29653 0.4131 0.0
C59 C 0.95306 0.33793 0.31917 0.0
C60 C 0.84984 0.38607 0.35988 0.0
O61 O 0.89647 0.38126 0.282 0.0
O62 O 0.88649 0.40378 0.22302 0.0
O63 O 0.59332 0.939 0.47835 0.0
Mn64 Mn 0.55288 0.89955 0.51438 0.0
O65 O 0.63917 0.95739 0.52509 0.0
Mn66 Mn 0.61882 0.92611 0.57269 0.0
O67 O 0.51311 0.86228 0.55437 0.0
O68 O 0.52116 0.90966 0.47922 0.0
Mn69 Mn 0.48111 0.87338 0.47134 0.0
O70 O 0.54503 0.86244 0.46612 0.0
O71 O 0.46574 0.86195 0.53051 0.0
O72 O 0.55702 0.93411 0.56523 0.0
O73 O 0.59544 0.93631 0.6158 0.0
O74 O 0.48069 0.90839 0.43897 0.0
O75 O 0.49081 0.84282 0.44161 0.0
C76 C 0.60018 0.87265 0.56008 0.0
C77 C 0.62488 0.95969 0.48843 0.0
C78 C 0.4822 0.85536 0.5602 0.0
C79 C 0.51216 0.92593 0.45181 0.0
C80 C 0.5184 0.84164 0.44285 0.0
C81 C 0.57025 0.94016 0.60561 0.0
O82 O 0.58581 0.88937 0.5464 0.0
O83 O 0.62787 0.89096 0.58316 0.0
O84 O 0.69227 0.54578 0.63676 0.0
Mn85 Mn 0.65536 0.54557 0.6795 0.0
O86 O 0.66628 0.49501 0.5995 0.0
Mn87 Mn 0.62407 0.47587 0.62744 0.0
O88 O 0.61809 0.54297 0.72379 0.0
O89 O 0.69287 0.581 0.71808 0.0
Mn90 Mn 0.68294 0.61109 0.73996 0.0
O91 O 0.65373 0.58405 0.64156 0.0
O92 O 0.6449 0.58493 0.77578 0.0
O93 O 0.65465 0.50712 0.72069 0.0
O94 O 0.62144 0.4571 0.68427 0.0
O95 O 0.72687 0.62393 0.75991 0.0
O96 O 0.67538 0.63037 0.68804 0.0
C97 C 0.59363 0.49865 0.61098 0.0
C98 C 0.69223 0.52416 0.6081 0.0
C99 C 0.61882 0.55742 0.76204 0.0
C100 C 0.7225 0.59773 0.73671 0.0
C101 C 0.66198 0.61521 0.65017 0.0
C102 C 0.63779 0.47425 0.71945 0.0
O103 O 0.61881 0.51091 0.63916 0.0
O104 O 0.58616 0.46923 0.59441 0.0
O105 O 0.07345 0.65748 0.79796 0.0
Mn106 Mn 0.10984 0.65366 0.83761 0.0
O107 O 0.05632 0.6865 0.84329 0.0
Mn108 Mn 0.08799 0.69805 0.89079 0.0
O109 O 0.14407 0.64859 0.88161 0.0
O110 O 0.09543 0.60909 0.80635 0.0
Mn111 Mn 0.12824 0.59964 0.80586 0.0
O112 O 0.14827 0.67755 0.78938 0.0
O113 O 0.13504 0.59602 0.86724 0.0
O114 O 0.07333 0.62719 0.88797 0.0
O115 O 0.07697 0.66654 0.93729 0.0
O116 O 0.09274 0.56582 0.7718 0.0
O117 O 0.16329 0.63748 0.77615 0.0
C118 C 0.14116 0.73155 0.87779 0.0
C119 C 0.05369 0.66953 0.80689 0.0
C120 C 0.14515 0.62176 0.89343 0.0
C121 C 0.07844 0.58391 0.77873 0.0
C122 C 0.16774 0.66761 0.77133 0.0
C123 C 0.07001 0.63623 0.92841 0.0
O124 O 0.1242 0.69982 0.86556 0.0
O125 O 0.12327 0.74218 0.89905 0.0
C126 C 0.38755 0.00937 0.93294 0.0
C127 C 0.37172 0.02363 0.95892 0.0
C128 C 0.36794 0.97839 0.90943 0.0
C129 C 0.27976 0.91693 0.86942 0.0
H130 H 0.30308 0.84742 0.897 0.0
C131 C 0.20168 0.76531 0.901 0.0
C132 C 0.1769 0.75592 0.86657 0.0
C133 C 0.23174 0.79708 0.89962 0.0
C134 C 0.2963 0.86655 0.88866 0.0
H135 H 0.32305 0.01763 0.97854 0.0
H136 H 0.28897 0.96433 0.93708 0.0
H137 H 0.34276 0.90694 0.91724 0.0
H138 H 0.16476 0.77124 0.8024 0.0
H139 H 0.21771 0.82622 0.79889 0.0
H140 H 0.23262 0.87662 0.84322 0.0
C141 C 0.31646 0.97683 0.93467 0.0
C142 C 0.31922 0.90076 0.89988 0.0
C143 C 0.33599 0.00742 0.95856 0.0
C144 C 0.18386 0.77759 0.82884 0.0
C145 C 0.21395 0.80933 0.82731 0.0
C146 C 0.25698 0.88285 0.85804 0.0
C147 C 0.33209 0.96133 0.91094 0.0
C148 C 0.31074 0.92622 0.89171 0.0
C149 C 0.23741 0.82028 0.86395 0.0
C150 C 0.26445 0.85699 0.86871 0.0
H151 H 0.41496 0.02087 0.93337 0.0
H152 H 0.3808 0.96726 0.89127 0.0
H153 H 0.27256 0.93591 0.86219 0.0
H154 H 0.19641 0.74948 0.93113 0.0
H155 H 0.24896 0.80459 0.92866 0.0
C156 C 0.32047 0.32594 0.12486 0.0
C157 C 0.34169 0.36161 0.12415 0.0
C158 C 0.33147 0.30463 0.10629 0.0
C159 C 0.41021 0.30327 0.0927 0.0
H160 H 0.35304 0.21743 0.02999 0.0
C161 C 0.40905 0.17149 0.03282 0.0
C162 C 0.41565 0.16178 0.0756 0.0
C163 C 0.40601 0.2007 0.02894 0.0
C164 C 0.36958 0.24156 0.04684 0.0
H165 H 0.39049 0.40256 0.10214 0.0
H166 H 0.4099 0.36564 0.06952 0.0
H167 H 0.33351 0.2586 0.03835 0.0
H168 H 0.42529 0.17518 0.14738 0.0
H169 H 0.42105 0.22669 0.14058 0.0
H170 H 0.44546 0.28543 0.10331 0.0
C171 C 0.38462 0.35416 0.08414 0.0
C172 C 0.35826 0.265 0.05193 0.0
C173 C 0.37334 0.37542 0.10215 0.0
C174 C 0.42091 0.1826 0.11388 0.0
C175 C 0.41843 0.21204 0.10993 0.0
C176 C 0.42129 0.2796 0.08822 0.0
C177 C 0.3642 0.31849 0.08727 0.0
C178 C 0.37813 0.29582 0.07576 0.0
C179 C 0.40975 0.22076 0.06777 0.0
C180 C 0.40078 0.24817 0.0661 0.0
H181 H 0.29602 0.31447 0.14191 0.0
H182 H 0.3152 0.27727 0.10957 0.0
H183 H 0.426 0.32663 0.1116 0.0
H184 H 0.40386 0.15524 0.00309 0.0
H185 H 0.39936 0.20682 0.99602 0.0
C186 C 0.99341 0.36808 0.25466 0.0
C187 C 0.98055 0.34211 0.28781 0.0
C188 C 0.02458 0.37807 0.23312 0.0
C189 C 0.08957 0.3531 0.21147 0.0
H190 H 0.15526 0.44945 0.22619 0.0
C191 C 0.23948 0.43439 0.24699 0.0
C192 C 0.2508 0.41902 0.21533 0.0
C193 C 0.20715 0.43087 0.24227 0.0
C194 C 0.13715 0.42257 0.22134 0.0
H195 H 0.98913 0.30465 0.32202 0.0
H196 H 0.04288 0.32129 0.28362 0.0
H197 H 0.09502 0.42825 0.24227 0.0
H198 H 0.23838 0.38948 0.15276 0.0
H199 H 0.18198 0.38356 0.14404 0.0
H200 H 0.13171 0.34704 0.19255 0.0
C201 C 0.02908 0.33419 0.27441 0.0
C202 C 0.10261 0.41044 0.23024 0.0
C203 C 0.99826 0.32464 0.29646 0.0
C204 C 0.23043 0.4022 0.17705 0.0
C205 C 0.198 0.39844 0.17244 0.0
C206 C 0.12397 0.36525 0.20208 0.0
C207 C 0.04321 0.36182 0.24373 0.0
C208 C 0.0786 0.3754 0.22674 0.0
C209 C 0.18535 0.4113 0.20623 0.0
C210 C 0.14835 0.39998 0.20817 0.0
H211 H 0.9807 0.38236 0.24782 0.0
H212 H 0.0347 0.3993 0.20942 0.0
H213 H 0.07166 0.32602 0.20821 0.0
H214 H 0.25441 0.44665 0.27744 0.0
H215 H 0.19815 0.44086 0.26913 0.0
C216 C 0.83648 0.2473 0.36543 0.0
C217 C 0.84349 0.26673 0.40566 0.0
C218 C 0.80769 0.21462 0.36254 0.0
C219 C 0.72694 0.15336 0.42258 0.0
H220 H 0.74615 0.08533 0.37331 0.0
C221 C 0.63094 0.00987 0.44452 0.0
C222 C 0.64519 0.99038 0.45989 0.0
C223 C 0.65161 0.04257 0.4264 0.0
C224 C 0.74028 0.10395 0.38716 0.0
H225 H 0.82629 0.26749 0.47438 0.0
H226 H 0.77596 0.21067 0.46962 0.0
H227 H 0.78772 0.14563 0.36439 0.0
H228 H 0.69222 0.98957 0.46742 0.0
H229 H 0.72839 0.04654 0.43644 0.0
H230 H 0.6804 0.11166 0.44773 0.0
C231 C 0.79197 0.22077 0.43965 0.0
C232 C 0.76399 0.13866 0.38153 0.0
C233 C 0.8208 0.25337 0.4425 0.0
C234 C 0.68043 1.00377 0.45517 0.0
C235 C 0.70114 0.03646 0.43721 0.0
C236 C 0.70326 0.11864 0.42832 0.0
C237 C 0.78553 0.20052 0.40011 0.0
C238 C 0.75806 0.16386 0.40021 0.0
C239 C 0.68716 0.05674 0.4238 0.0
C240 C 0.71 0.09344 0.41174 0.0
H241 H 0.85434 0.25647 0.33724 0.0
H242 H 0.80344 0.19996 0.33141 0.0
H243 H 0.72126 0.172 0.43685 0.0
H244 H 0.60423 1.001 0.44971 0.0
H245 H 0.63986 0.05726 0.41615 0.0
C246 C 0.59686 0.8274 0.50844 0.0
C247 C 0.58838 0.8366 0.55016 0.0
C248 C 0.5964 0.79632 0.50435 0.0
C249 C 0.57339 0.71487 0.56597 0.0
H250 H 0.65947 0.73025 0.51783 0.0
C251 C 0.61856 0.61882 0.60141 0.0
C252 C 0.6522 0.63388 0.6177 0.0
C253 C 0.60693 0.63855 0.57938 0.0
C254 C 0.63523 0.7254 0.53125 0.0
H255 H 0.57142 0.82045 0.61948 0.0
H256 H 0.57019 0.76631 0.6126 0.0
H257 H 0.64237 0.77263 0.50514 0.0
H258 H 0.70024 0.68118 0.62303 0.0
H259 H 0.68017 0.71574 0.58506 0.0
H260 H 0.56734 0.66876 0.59476 0.0
C261 C 0.57664 0.78241 0.58259 0.0
C262 C 0.62515 0.74955 0.52343 0.0
C263 C 0.57725 0.81345 0.58664 0.0
C264 C 0.67436 0.6688 0.61001 0.0
C265 C 0.6628 0.68856 0.58807 0.0
C266 C 0.58349 0.69074 0.57385 0.0
C267 C 0.58769 0.7741 0.54209 0.0
C268 C 0.59466 0.7452 0.54209 0.0
C269 C 0.62863 0.67393 0.57369 0.0
C270 C 0.61512 0.69628 0.55798 0.0
H271 H 0.60618 0.84524 0.48014 0.0
H272 H 0.60463 0.79054 0.47247 0.0
H273 H 0.54953 0.71043 0.58031 0.0
H274 H 0.60052 0.59238 0.60883 0.0
H275 H 0.58052 0.62635 0.56862 0.0
C276 C 0.01105 0.6826 0.77238 0.0
C277 C 0.02353 0.66 0.77747 0.0
C278 C 0.97854 0.67129 0.75416 0.0
C279 C 0.89553 0.59296 0.74928 0.0
H280 H 0.8694 0.64948 0.68058 0.0
C281 C 0.76736 0.59819 0.68729 0.0
C282 C 0.75071 0.59106 0.7297 0.0
C283 C 0.7993 0.6006 0.68361 0.0
C284 C 0.87619 0.63303 0.69911 0.0
H285 H 0.01171 0.60795 0.76694 0.0
H286 H 0.95546 0.58833 0.73375 0.0
H287 H 0.92955 0.66682 0.68803 0.0
H288 H 0.75363 0.58025 0.80117 0.0
H289 H 0.80877 0.58344 0.79478 0.0
H290 H 0.84225 0.55972 0.76154 0.0
C291 C 0.97083 0.61487 0.74373 0.0
C292 C 0.91072 0.64317 0.70377 0.0
C293 C 1.00344 0.62627 0.76182 0.0
C294 C 0.76566 0.5849 0.76787 0.0
C295 C 0.79726 0.58681 0.76413 0.0
C296 C 0.86103 0.58293 0.74483 0.0
C297 C 0.95754 0.63697 0.74108 0.0
C298 C 0.92089 0.62372 0.72991 0.0
C299 C 0.81499 0.59572 0.72229 0.0
C300 C 0.85097 0.6033 0.72073 0.0
H301 H 0.02577 0.70864 0.7847 0.0
H302 H 0.96907 0.68896 0.75314 0.0
H303 H 0.90236 0.57745 0.76997 0.0
H304 H 0.75667 0.60392 0.65766 0.0
H305 H 0.81217 0.6073 0.65084 0.0
C306 C 0.49818 0.05046 0.1172 0.0
C307 C 0.47175 0.05529 0.13361 0.0
C308 C 0.51901 0.04526 0.14796 0.0
C309 C 0.54932 0.06115 0.26696 0.0
H310 H 0.5414 0.972 0.26631 0.0
C311 C 0.52951 0.98407 0.42628 0.0
C312 C 0.53549 0.95665 0.42627 0.0
C313 C 0.53997 0.00663 0.38938 0.0
C314 C 0.54511 0.99753 0.2666 0.0
H315 H 0.44685 0.05875 0.19523 0.0
H316 H 0.48311 0.05013 0.24809 0.0
H317 H 0.52349 0.99101 0.19931 0.0
H318 H 0.55929 0.9325 0.38996 0.0
H319 H 0.57839 0.97243 0.32563 0.0
H320 H 0.56923 0.06709 0.33508 0.0
C321 C 0.48775 0.05033 0.21164 0.0
C322 C 0.53466 0.00832 0.22808 0.0
C323 C 0.46663 0.05473 0.18119 0.0
C324 C 0.55502 0.95396 0.39106 0.0
C325 C 0.5655 0.97655 0.35396 0.0
C326 C 0.56014 0.05058 0.30527 0.0
C327 C 0.51423 0.04575 0.19547 0.0
C328 C 0.53483 0.03932 0.22908 0.0
C329 C 0.55613 1.00178 0.35134 0.0
C330 C 0.55612 0.01772 0.30667 0.0
H331 H 0.50296 0.05103 0.08077 0.0
H332 H 0.5391 0.0414 0.13477 0.0
H333 H 0.55008 0.08543 0.26819 0.0
H334 H 0.51377 0.98605 0.45258 0.0
H335 H 0.53196 0.02546 0.38864 0.0
C336 C 0.39789 0.44913 0.34889 0.0
C337 C 0.40452 0.45762 0.30227 0.0
C338 C 0.42252 0.46749 0.38213 0.0
C339 C 0.472 0.52177 0.44737 0.0
H340 H 0.55963 0.52762 0.43392 0.0
C341 C 0.59774 0.54127 0.55527 0.0
C342 C 0.57929 0.51797 0.59006 0.0
C343 C 0.58078 0.5495 0.52205 0.0
C344 C 0.53578 0.52732 0.43799 0.0
H345 H 0.44266 0.49206 0.25409 0.0
H346 H 0.48622 0.52367 0.31252 0.0
H347 H 0.52092 0.51044 0.36881 0.0
H348 H 0.52951 0.48664 0.61968 0.0
H349 H 0.49976 0.50089 0.56227 0.0
H350 H 0.48616 0.53705 0.5172 0.0
C351 C 0.46165 0.50286 0.32305 0.0
C352 C 0.5135 0.51726 0.40058 0.0
C353 C 0.43679 0.48462 0.28962 0.0
C354 C 0.54425 0.50537 0.59373 0.0
C355 C 0.52728 0.51358 0.56066 0.0
C356 C 0.49435 0.53203 0.48473 0.0
C357 C 0.45456 0.49469 0.36967 0.0
C358 C 0.48077 0.51277 0.40559 0.0
C359 C 0.54507 0.53408 0.52288 0.0
C360 C 0.5258 0.53324 0.48111 0.0
H361 H 0.37333 0.42861 0.36004 0.0
H362 H 0.41659 0.46008 0.4177 0.0
H363 H 0.44714 0.51921 0.45182 0.0
H364 H 0.62476 0.5507 0.55138 0.0
H365 H 0.59528 0.56579 0.49381 0.0
C366 C 0.06268 0.60646 0.71176 0.0
C367 C 0.05279 0.58134 0.74573 0.0
C368 C 0.04577 0.59848 0.66939 0.0
C369 C 0.97422 0.52955 0.60149 0.0
H370 H 0.04561 0.54642 0.51481 0.0
C371 C 0.94657 0.45478 0.43061 0.0
C372 C 0.96358 0.43608 0.43072 0.0
C373 C 0.95639 0.48216 0.46106 0.0
C374 C 0.02533 0.54202 0.53822 0.0
H375 H 0.01602 0.52944 0.764 0.0
H376 H 0.98595 0.51565 0.69084 0.0
H377 H 0.0602 0.57773 0.58705 0.0
H378 H 0.00586 0.43293 0.45976 0.0
H379 H 0.02406 0.48154 0.51119 0.0
H380 H 0.93967 0.49218 0.55349 0.0
C381 C 0.00647 0.54154 0.69657 0.0
C382 C 0.0336 0.56014 0.57952 0.0
C383 C 0.0236 0.54941 0.73865 0.0
C384 C 0.99237 0.447 0.45885 0.0
C385 C 1.00278 0.47484 0.48827 0.0
C386 C 0.96588 0.5117 0.55981 0.0
C387 C 0.01876 0.56526 0.66047 0.0
C388 C 0.00836 0.55302 0.61255 0.0
C389 C 0.98414 0.49189 0.49097 0.0
C390 C 0.9916 0.51669 0.52874 0.0
H391 H 0.08563 0.63102 0.71604 0.0
H392 H 0.05564 0.61737 0.64237 0.0
H393 H 0.95421 0.52361 0.62615 0.0
H394 H 0.92422 0.44662 0.40946 0.0
H395 H 0.9416 0.49488 0.46243 0.0
C396 C 0.53347 0.96336 0.63436 0.0
C397 C 0.55423 0.94916 0.64306 0.0
C398 C 0.51816 0.97092 0.67072 0.0
C399 C 0.52873 0.98681 0.7961 0.0
H400 H 0.44275 0.98519 0.78615 0.0
C401 C 0.49115 0.04228 0.94115 0.0
C402 C 0.48763 0.06949 0.92525 0.0
C403 C 0.48667 0.01635 0.91092 0.0
C404 C 0.46662 0.98539 0.78954 0.0
H405 H 0.57323 0.92955 0.69635 0.0
H406 H 0.54591 0.94151 0.75886 0.0
H407 H 0.46175 0.96316 0.72298 0.0
H408 H 0.47343 0.08965 0.86752 0.0
H409 H 0.46541 0.04449 0.81477 0.0
H410 H 0.53423 0.00967 0.86174 0.0
C411 C 0.54251 0.94834 0.72448 0.0
C412 C 0.47768 0.97311 0.75322 0.0
C413 C 0.55826 0.94147 0.68849 0.0
C414 C 0.47579 0.06852 0.88051 0.0
C415 C 0.47124 0.04263 0.85032 0.0
C416 C 0.51757 0.99866 0.83233 0.0
C417 C 0.52285 0.96383 0.71635 0.0
C418 C 0.50924 0.97427 0.75575 0.0
C419 C 0.47903 0.01766 0.86437 0.0
C420 C 0.48674 0.99876 0.82925 0.0
H421 H 0.52955 0.96915 0.59962 0.0
H422 H 0.50341 0.98309 0.66311 0.0
H423 H 0.55351 0.98895 0.79913 0.0
H424 H 0.50074 0.04289 0.97542 0.0
H425 H 0.4923 0.99708 0.92288 0.0
C426 C 0.40658 0.46097 0.04357 0.0
C427 C 0.42097 0.4704 0.08743 0.0
C428 C 0.42272 0.45256 0.00965 0.0
C429 C 0.51254 0.48144 0.98682 0.0
H430 H 0.4764 0.4511 0.8644 0.0
C431 C 0.58856 0.55686 0.83353 0.0
C432 C 0.58982 0.53983 0.79402 0.0
C433 C 0.56544 0.53906 0.86828 0.0
C434 C 0.48701 0.45931 0.89843 0.0
H435 H 0.46047 0.47408 0.13263 0.0
H436 H 0.48726 0.45654 0.07457 0.0
H437 H 0.43879 0.42761 0.93039 0.0
H438 H 0.56584 0.49108 0.75852 0.0
H439 H 0.52575 0.4597 0.82005 0.0
H440 H 0.56067 0.51276 0.95513 0.0
C441 C 0.46453 0.45727 0.0653 0.0
C442 C 0.46538 0.44607 0.93637 0.0
C443 C 0.44889 0.4667 0.09893 0.0
C444 C 0.56569 0.50494 0.7887 0.0
C445 C 0.54274 0.48692 0.82397 0.0
C446 C 0.5341 0.49414 0.94918 0.0
C447 C 0.45353 0.45331 0.01923 0.0
C448 C 0.47745 0.45845 0.98093 0.0
C449 C 0.54318 0.50364 0.86481 0.0
C450 C 0.52125 0.48478 0.90442 0.0
H451 H 0.38523 0.46414 0.03398 0.0
H452 H 0.41306 0.4496 0.975 0.0
H453 H 0.52327 0.49196 0.0201 0.0
H454 H 0.60628 0.58384 0.83843 0.0
H455 H 0.56554 0.55305 0.89846 0.0
C456 C 0.06863 0.62382 0.01197 0.0
C457 C 0.06077 0.61171 0.96664 0.0
C458 C 0.06345 0.60157 0.04807 0.0
C459 C 0.04681 0.51405 0.07455 0.0
H460 H 0.00601 0.52613 0.1842 0.0
C461 C 0.94882 0.40806 0.18493 0.0
C462 C 0.94375 0.41532 0.22994 0.0
C463 C 0.97696 0.43181 0.16009 0.0
C464 C 0.01837 0.5228 0.15456 0.0
H465 H 0.04115 0.5666 0.92372 0.0
H466 H 0.03053 0.52736 0.98713 0.0
H467 H 0.02521 0.56864 0.12441 0.0
H468 H 0.96564 0.4507 0.28654 0.0
H469 H 0.01519 0.4926 0.24309 0.0
H470 H 0.03772 0.46684 0.104 0.0
C471 C 0.04163 0.5543 0.9946 0.0
C472 C 0.02924 0.54721 0.11995 0.0
C473 C 0.04722 0.57669 0.9583 0.0
C474 C 0.96934 0.44452 0.25192 0.0
C475 C 0.99744 0.46859 0.22687 0.0
C476 C 0.0357 0.48943 0.1092 0.0
C477 C 0.04984 0.56651 0.03993 0.0
C478 C 0.04255 0.54262 0.07886 0.0
C479 C 1.00005 0.46353 0.17972 0.0
C480 C 0.02028 0.49299 0.14894 0.0
H481 H 0.07974 0.65075 0.01957 0.0
H482 H 0.07052 0.61199 0.08238 0.0
H483 H 0.05776 0.51017 0.04381 0.0
H484 H 0.92913 0.38571 0.16734 0.0
H485 H 0.97809 0.42698 0.12395 0.0
C486 C 0.49517 0.23554 0.97543 0.0
C487 C 0.47917 0.20611 0.94806 0.0
C488 C 0.50626 0.26761 0.9562 0.0
C489 C 0.53452 0.30477 0.84122 0.0
H490 H 0.56573 0.38986 0.90679 0.0
C491 C 0.63704 0.42617 0.7602 0.0
C492 C 0.63234 0.45442 0.76152 0.0
C493 C 0.61939 0.39906 0.79042 0.0
C494 C 0.55707 0.36638 0.88779 0.0
H495 H 0.45801 0.18617 0.88116 0.0
H496 H 0.47458 0.24187 0.8482 0.0
H497 H 0.52388 0.33628 0.94202 0.0
H498 H 0.6087 0.47844 0.79817 0.0
H499 H 0.57618 0.43039 0.84949 0.0
H500 H 0.56617 0.33448 0.7863 0.0
C501 C 0.4804 0.24065 0.88392 0.0
C502 C 0.53315 0.33551 0.90816 0.0
C503 C 0.47013 0.20859 0.90294 0.0
C504 C 0.61259 0.4568 0.79662 0.0
C505 C 0.59393 0.42914 0.82598 0.0
C506 C 0.55781 0.33545 0.8207 0.0
C507 C 0.5011 0.27073 0.90925 0.0
C508 C 0.52204 0.30414 0.88549 0.0
C509 C 0.59558 0.39906 0.8213 0.0
C510 C 0.57018 0.36667 0.84403 0.0
H511 H 0.50272 0.2341 0.01028 0.0
H512 H 0.52189 0.28984 0.97716 0.0
H513 H 0.52741 0.28145 0.82262 0.0
H514 H 0.65218 0.42382 0.73334 0.0
H515 H 0.62264 0.37706 0.78722 0.0
C516 C 0.1974 0.63466 0.93574 0.0
C517 C 0.16206 0.62087 0.9358 0.0
C518 C 0.21256 0.62259 0.96653 0.0
C519 C 0.18823 0.54201 0.02642 0.0
H520 H 0.28364 0.59073 0.06081 0.0
C521 C 0.26827 0.48665 0.1136 0.0
C522 C 0.2988 0.49645 0.09009 0.0
C523 C 0.24707 0.49936 0.09999 0.0
C524 C 0.25687 0.57686 0.05159 0.0
H525 H 0.11505 0.58597 0.96984 0.0
H526 H 0.14152 0.56616 0.02544 0.0
H527 H 0.25658 0.62265 0.03507 0.0
H528 H 0.32959 0.52454 0.0318 0.0
H529 H 0.29276 0.54655 0.0082 0.0
H530 H 0.18899 0.49617 0.04291 0.0
C531 C 0.15761 0.58557 0.00103 0.0
C532 C 0.24139 0.5951 0.03673 0.0
C533 C 0.14247 0.59737 0.96983 0.0
C534 C 0.30625 0.51666 0.0506 0.0
C535 C 0.28538 0.52949 0.03733 0.0
C536 C 0.20368 0.52378 0.04198 0.0
C537 C 0.19255 0.59656 0.998 0.0
C538 C 0.20718 0.57788 0.02234 0.0
C539 C 0.25648 0.52221 0.06305 0.0
C540 C 0.23842 0.54104 0.0531 0.0
H541 H 0.21281 0.65214 0.90897 0.0
H542 H 0.23947 0.63153 0.96273 0.0
H543 H 0.16195 0.52774 0.01514 0.0
H544 H 0.26233 0.47174 0.14467 0.0
H545 H 0.22476 0.49332 0.12018 0.0
C546 C 0.5452 0.14863 0.1432 0.0
C547 C 0.55162 0.17333 0.10964 0.0
C548 C 0.56969 0.15468 0.17686 0.0
C549 C 0.6449 0.21821 0.23762 0.0
H550 H 0.68938 0.16669 0.20688 0.0
C551 C 0.77631 0.25896 0.30944 0.0
C552 C 0.79925 0.2718 0.27268 0.0
C553 C 0.74183 0.23565 0.30145 0.0
C554 C 0.67679 0.18066 0.21668 0.0
H555 H 0.58712 0.22449 0.08667 0.0
H556 H 0.62897 0.23603 0.14731 0.0
H557 H 0.63331 0.15007 0.17393 0.0
H558 H 0.8051 0.26843 0.19969 0.0
H559 H 0.74514 0.22662 0.18584 0.0
H560 H 0.6889 0.24975 0.27866 0.0
C561 C 0.60533 0.21179 0.14715 0.0
C562 C 0.64478 0.17115 0.198 0.0
C563 C 0.5814 0.2053 0.11268 0.0
C564 C 0.78801 0.25827 0.22865 0.0
C565 C 0.75367 0.23448 0.22078 0.0
C566 C 0.67648 0.22721 0.25716 0.0
C567 C 0.60036 0.18602 0.1782 0.0
C568 C 0.62927 0.19071 0.20692 0.0
C569 C 0.72998 0.22461 0.25664 0.0
C570 C 0.69333 0.20936 0.24541 0.0
H571 H 0.5227 0.12366 0.14095 0.0
H572 H 0.56545 0.13441 0.20033 0.0
H573 H 0.63352 0.23379 0.24459 0.0
H574 H 0.78425 0.2697 0.34349 0.0
H575 H 0.72405 0.22843 0.32962 0.0
C576 C 0.50448 0.80156 0.37778 0.0
C577 C 0.51628 0.81092 0.42283 0.0
C578 C 0.49137 0.76789 0.36313 0.0
C579 C 0.47827 0.68237 0.39641 0.0
H580 H 0.39989 0.65205 0.3164 0.0
C581 C 0.42405 0.56137 0.28799 0.0
C582 C 0.39087 0.54664 0.27022 0.0
C583 C 0.43623 0.58864 0.31854 0.0
C584 C 0.42116 0.65968 0.33964 0.0
H585 H 0.52464 0.79308 0.48764 0.0
H586 H 0.50151 0.73423 0.46256 0.0
H587 H 0.43061 0.71073 0.34196 0.0
H588 H 0.34304 0.54606 0.27386 0.0
H589 H 0.36388 0.59336 0.32891 0.0
H590 H 0.46798 0.63083 0.39519 0.0
C591 C 0.50311 0.7528 0.43787 0.0
C592 C 0.43945 0.69377 0.3534 0.0
C593 C 0.51679 0.78667 0.4522 0.0
C594 C 0.36869 0.557 0.28735 0.0
C595 C 0.38089 0.58443 0.31825 0.0
C596 C 0.45962 0.64805 0.38315 0.0
C597 C 0.48881 0.74267 0.39376 0.0
C598 C 0.46883 0.70586 0.38088 0.0
C599 C 0.41544 0.60188 0.33201 0.0
C600 C 0.43134 0.63642 0.35353 0.0
H601 H 0.50346 0.8198 0.35479 0.0
H602 H 0.48169 0.76133 0.32842 0.0
H603 H 0.50061 0.6906 0.41779 0.0
H604 H 0.44162 0.55379 0.27501 0.0
H605 H 0.46291 0.6012 0.32795 0.0
C606 C 0.82175 0.3901 0.4321 0.0
C607 C 0.84482 0.40563 0.39612 0.0
C608 C 0.8147 0.41011 0.4619 0.0
C609 C 0.81951 0.49431 0.46097 0.0
H610 H 0.78558 0.46944 0.58481 0.0
C611 C 0.72519 0.52723 0.53955 0.0
C612 C 0.72413 0.53051 0.58714 0.0
C613 C 0.74956 0.52107 0.51998 0.0
C614 C 0.79576 0.47729 0.55062 0.0
H615 H 0.88069 0.45385 0.36499 0.0
H616 H 0.87058 0.48864 0.41844 0.0
H617 H 0.81009 0.43895 0.54646 0.0
H618 H 0.74806 0.53126 0.65168 0.0
H619 H 0.79177 0.52181 0.61739 0.0
H620 H 0.80532 0.5326 0.46502 0.0
C621 C 0.85633 0.46121 0.42264 0.0
C622 C 0.80926 0.45937 0.52835 0.0
C623 C 0.86237 0.44128 0.3922 0.0
C624 C 0.74927 0.53006 0.6147 0.0
C625 C 0.77375 0.52388 0.59514 0.0
C626 C 0.80644 0.5124 0.48335 0.0
C627 C 0.8313 0.44591 0.45658 0.0
C628 C 0.82048 0.46708 0.48277 0.0
C629 C 0.77314 0.51775 0.54777 0.0
C630 C 0.79336 0.5034 0.52785 0.0
H631 H 0.80793 0.36259 0.43559 0.0
H632 H 0.79511 0.39738 0.48751 0.0
H633 H 0.82737 0.50083 0.42568 0.0
H634 H 0.70548 0.52668 0.51789 0.0
H635 H 0.74798 0.51607 0.48348 0.0
C636 C 0.45779 0.8565 0.63497 0.0
C637 C 0.46334 0.83772 0.60135 0.0
C638 C 0.43003 0.8402 0.66457 0.0
C639 C 0.35811 0.75508 0.69904 0.0
H640 H 0.30583 0.80149 0.6958 0.0
C641 C 0.21829 0.72641 0.76381 0.0
C642 C 0.19942 0.69253 0.74814 0.0
C643 C 0.2522 0.74726 0.75015 0.0
C644 C 0.32029 0.78843 0.69753 0.0
H645 H 0.44618 0.78741 0.57367 0.0
H646 H 0.39783 0.75868 0.62529 0.0
H647 H 0.36513 0.83142 0.67093 0.0
H648 H 0.20008 0.65488 0.70292 0.0
H649 H 0.25874 0.69125 0.67862 0.0
H650 H 0.3128 0.71167 0.72384 0.0
C651 C 0.41494 0.78583 0.62967 0.0
C652 C 0.35434 0.80559 0.68361 0.0
C653 C 0.44274 0.80217 0.60019 0.0
C654 C 0.21411 0.68079 0.7159 0.0
C655 C 0.2478 0.70148 0.70235 0.0
C656 C 0.32409 0.73792 0.71265 0.0
C657 C 0.40726 0.80491 0.66055 0.0
C658 C 0.37338 0.78879 0.68305 0.0
C659 C 0.26761 0.73439 0.72075 0.0
C660 C 0.30457 0.75409 0.71077 0.0
H661 H 0.47317 0.8841 0.63576 0.0
H662 H 0.42515 0.85552 0.6885 0.0
H663 H 0.37219 0.74161 0.69979 0.0
H664 H 0.20775 0.73593 0.78912 0.0
H665 H 0.26688 0.77263 0.76466 0.0
loop_
_geom_bond_atom_site_label_1
_geom_bond_atom_site_label_2
_geom_bond_distance
_geom_bond_site_symmetry_2
_ccdc_geom_bond_type
O0 Mn1 2.163 1_556 S
O0 C14 1.244 . S
Mn1 O0 2.163 1_554 S
Mn1 O4 2.160 . S
Mn1 O5 2.221 . S
Mn1 O7 2.163 1_554 S
Mn1 O9 2.160 . S
Mn1 O19 2.221 1_554 S
O2 Mn3 2.087 . S
O2 C14 1.256 . S
Mn3 O2 2.087 . S
Mn3 O10 2.080 1_556 S
Mn3 O19 2.290 . S
Mn3 O20 2.251 . S
O4 Mn1 2.160 . S
O4 C15 1.239 . S
O5 Mn1 2.221 . S
O5 Mn6 2.290 . S
O5 C16 1.278 . S
Mn6 O5 2.290 . S
Mn6 O8 2.089 . S
Mn6 O11 2.251 . S
Mn6 O12 2.087 . S
O7 Mn1 2.163 1_556 S
O7 C17 1.244 . S
O8 Mn6 2.089 . S
O8 C15 1.256 . S
O9 Mn1 2.160 . S
O9 C18 1.239 . S
O10 Mn3 2.080 1_554 S
O10 C18 1.266 . S
O11 Mn6 2.251 . S
O11 C16 1.241 . S
O12 Mn6 2.087 . S
O12 C17 1.256 1_554 S
C13 O19 1.278 . S
C13 O20 1.241 . S
C14 O0 1.244 . S
C14 O2 1.256 . S
C15 O4 1.239 . S
C15 O8 1.256 . S
C16 O5 1.278 . S
C16 O11 1.241 . S
C17 O7 1.244 . S
C17 O12 1.256 1_556 S
C18 O9 1.239 . S
C18 O10 1.266 . S
O19 Mn1 2.221 1_556 S
O19 Mn3 2.290 . S
O19 C13 1.278 . S
O20 Mn3 2.251 . S
O20 C13 1.241 . S
O21 Mn22 2.163 . S
O21 C35 1.244 . S
Mn22 O21 2.163 . S
Mn22 O25 2.160 . S
Mn22 O26 2.221 . S
Mn22 O28 2.163 . S
Mn22 O30 2.160 . S
Mn22 O40 2.221 . S
O23 Mn24 2.087 . S
O23 C35 1.256 . S
Mn24 O23 2.087 . S
Mn24 O31 2.089 . S
Mn24 O40 2.290 . S
Mn24 O41 2.251 . S
O25 Mn22 2.160 . S
O25 C36 1.239 . S
O26 Mn22 2.221 . S
O26 Mn27 2.290 . S
O26 C37 1.278 . S
Mn27 O26 2.290 . S
Mn27 O29 2.089 . S
Mn27 O32 2.251 . S
Mn27 O33 2.087 . S
O28 Mn22 2.163 . S
O28 C38 1.244 . S
O29 Mn27 2.089 . S
O29 C36 1.256 . S
O30 Mn22 2.160 . S
O30 C39 1.239 . S
O31 Mn24 2.089 . S
O31 C39 1.256 . S
O32 Mn27 2.251 . S
O32 C37 1.241 . S
O33 Mn27 2.087 . S
O33 C38 1.256 . S
C34 O40 1.278 . S
C34 O41 1.241 . S
C35 O21 1.244 . S
C35 O23 1.256 . S
C36 O25 1.239 . S
C36 O29 1.256 . S
C37 O26 1.278 . S
C37 O32 1.241 . S
C38 O28 1.244 . S
C38 O33 1.256 . S
C39 O30 1.239 . S
C39 O31 1.256 . S
O40 Mn22 2.221 . S
O40 Mn24 2.290 . S
O40 C34 1.278 . S
O41 Mn24 2.251 . S
O41 C34 1.241 . S
O42 Mn43 2.163 . S
O42 C56 1.244 . S
Mn43 O42 2.163 . S
Mn43 O46 2.160 . S
Mn43 O47 2.221 . S
Mn43 O49 2.163 . S
Mn43 O51 2.160 . S
Mn43 O61 2.221 . S
O44 Mn45 2.087 . S
O44 C56 1.256 . S
Mn45 O44 2.087 . S
Mn45 O52 2.089 . S
Mn45 O61 2.290 . S
Mn45 O62 2.251 . S
O46 Mn43 2.160 . S
O46 C57 1.239 . S
O47 Mn43 2.221 . S
O47 Mn48 2.290 . S
O47 C58 1.278 . S
Mn48 O47 2.290 . S
Mn48 O50 2.089 . S
Mn48 O53 2.251 . S
Mn48 O54 2.087 . S
O49 Mn43 2.163 . S
O49 C59 1.244 . S
O50 Mn48 2.089 . S
O50 C57 1.256 . S
O51 Mn43 2.160 . S
O51 C60 1.239 . S
O52 Mn45 2.089 . S
O52 C60 1.256 . S
O53 Mn48 2.251 . S
O53 C58 1.241 . S
O54 Mn48 2.087 . S
O54 C59 1.256 . S
C55 O61 1.278 . S
C55 O62 1.241 . S
C56 O42 1.244 . S
C56 O44 1.256 . S
C57 O46 1.239 . S
C57 O50 1.256 . S
C58 O47 1.278 . S
C58 O53 1.241 . S
C59 O49 1.244 . S
C59 O54 1.256 . S
C60 O51 1.239 . S
C60 O52 1.256 . S
O61 Mn43 2.221 . S
O61 Mn45 2.290 . S
O61 C55 1.278 . S
O62 Mn45 2.251 . S
O62 C55 1.241 . S
O63 Mn64 2.163 . S
O63 C77 1.244 . S
Mn64 O63 2.163 . S
Mn64 O67 2.160 . S
Mn64 O68 2.221 . S
Mn64 O70 2.163 . S
Mn64 O72 2.160 . S
Mn64 O82 2.221 . S
O65 Mn66 2.087 . S
O65 C77 1.256 . S
Mn66 O65 2.087 . S
Mn66 O73 2.089 . S
Mn66 O82 2.290 . S
Mn66 O83 2.251 . S
O67 Mn64 2.160 . S
O67 C78 1.239 . S
O68 Mn64 2.221 . S
O68 Mn69 2.290 . S
O68 C79 1.278 . S
Mn69 O68 2.290 . S
Mn69 O71 2.089 . S
Mn69 O74 2.251 . S
Mn69 O75 2.087 . S
O70 Mn64 2.163 . S
O70 C80 1.244 . S
O71 Mn69 2.089 . S
O71 C78 1.256 . S
O72 Mn64 2.160 . S
O72 C81 1.239 . S
O73 Mn66 2.089 . S
O73 C81 1.256 . S
O74 Mn69 2.251 . S
O74 C79 1.241 . S
O75 Mn69 2.087 . S
O75 C80 1.256 . S
C76 O82 1.278 . S
C76 O83 1.241 . S
C77 O63 1.244 . S
C77 O65 1.256 . S
C78 O67 1.239 . S
C78 O71 1.256 . S
C79 O68 1.278 . S
C79 O74 1.241 . S
C80 O70 1.244 . S
C80 O75 1.256 . S
C81 O72 1.239 . S
C81 O73 1.256 . S
O82 Mn64 2.221 . S
O82 Mn66 2.290 . S
O82 C76 1.278 . S
O83 Mn66 2.251 . S
O83 C76 1.241 . S
O84 Mn85 2.163 . S
O84 C98 1.244 . S
Mn85 O84 2.163 . S
Mn85 O88 2.160 . S
Mn85 O89 2.221 . S
Mn85 O91 2.163 . S
Mn85 O93 2.160 . S
Mn85 O103 2.221 . S
O86 Mn87 2.087 . S
O86 C98 1.256 . S
Mn87 O86 2.087 . S
Mn87 O94 2.089 . S
Mn87 O103 2.290 . S
Mn87 O104 2.251 . S
O88 Mn85 2.160 . S
O88 C99 1.239 . S
O89 Mn85 2.221 . S
O89 Mn90 2.290 . S
O89 C100 1.278 . S
Mn90 O89 2.290 . S
Mn90 O92 2.089 . S
Mn90 O95 2.251 . S
Mn90 O96 2.087 . S
O91 Mn85 2.163 . S
O91 C101 1.244 . S
O92 Mn90 2.089 . S
O92 C99 1.256 . S
O93 Mn85 2.160 . S
O93 C102 1.239 . S
O94 Mn87 2.089 . S
O94 C102 1.256 . S
O95 Mn90 2.251 . S
O95 C100 1.241 . S
O96 Mn90 2.087 . S
O96 C101 1.256 . S
C97 O103 1.278 . S
C97 O104 1.241 . S
C98 O84 1.244 . S
C98 O86 1.256 . S
C99 O88 1.239 . S
C99 O92 1.256 . S
C100 O89 1.278 . S
C100 O95 1.241 . S
C101 O91 1.244 . S
C101 O96 1.256 . S
C102 O93 1.239 . S
C102 O94 1.256 . S
O103 Mn85 2.221 . S
O103 Mn87 2.290 . S
O103 C97 1.278 . S
O104 Mn87 2.251 . S
O104 C97 1.241 . S
O105 Mn106 2.163 . S
O105 C119 1.244 . S
Mn106 O105 2.163 . S
Mn106 O109 2.160 . S
Mn106 O110 2.221 . S
Mn106 O112 2.163 . S
Mn106 O114 2.160 . S
Mn106 O124 2.221 . S
O107 Mn108 2.087 . S
O107 C119 1.256 . S
Mn108 O107 2.087 . S
Mn108 O115 2.089 . S
Mn108 O124 2.290 . S
Mn108 O125 2.251 . S
O109 Mn106 2.160 . S
O109 C120 1.239 . S
O110 Mn106 2.221 . S
O110 Mn111 2.290 . S
O110 C121 1.278 . S
Mn111 O110 2.290 . S
Mn111 O113 2.089 . S
Mn111 O116 2.251 . S
Mn111 O117 2.087 . S
O112 Mn106 2.163 . S
O112 C122 1.244 . S
O113 Mn111 2.089 . S
O113 C120 1.256 . S
O114 Mn106 2.160 . S
O114 C123 1.239 . S
O115 Mn108 2.089 . S
O115 C123 1.256 . S
O116 Mn111 2.251 . S
O116 C121 1.241 . S
O117 Mn111 2.087 . S
O117 C122 1.256 . S
C118 O124 1.278 . S
C118 O125 1.241 . S
C119 O105 1.244 . S
C119 O107 1.256 . S
C120 O109 1.239 . S
C120 O113 1.256 . S
C121 O110 1.278 . S
C121 O116 1.241 . S
C122 O112 1.244 . S
C122 O117 1.256 . S
C123 O114 1.239 . S
C123 O115 1.256 . S
O124 Mn106 2.221 . S
O124 Mn108 2.290 . S
O124 C118 1.278 . S
O125 Mn108 2.251 . S
O125 C118 1.241 . S
C126 C127 1.349 . S
C126 C128 1.327 1_545 S
C126 H151 0.950 . S
C127 C126 1.349 . S
C127 C143 1.349 1_556 S
C128 C126 1.327 1_565 S
C128 C147 1.429 . S
C128 H152 0.950 . S
C129 C146 1.574 . S
C129 C148 1.368 . S
C129 H153 0.949 1_556 S
H130 C134 0.949 . S
C131 C132 1.349 . S
C131 C133 1.327 . S
C131 H154 0.950 . S
C132 C131 1.349 . S
C132 C144 1.349 . S
C133 C131 1.327 . S
C133 C149 1.429 . S
C133 H155 0.950 . S
C134 H130 0.949 . S
C134 C142 1.574 . S
C134 C150 1.368 . S
H135 C143 0.950 . S
H136 C141 0.950 1_554 S
H137 C142 0.949 . S
H138 C144 0.950 . S
H139 C145 0.950 . S
H140 C146 0.949 . S
C141 H136 0.950 1_556 S
C141 C143 1.327 1_566 S
C141 C147 1.429 . S
C142 C134 1.574 . S
C142 H137 0.949 . S
C142 C148 1.368 . S
C143 C127 1.349 1_554 S
C143 H135 0.950 . S
C143 C141 1.327 1_544 S
C144 C132 1.349 . S
C144 H138 0.950 . S
C144 C145 1.327 . S
C145 H139 0.950 . S
C145 C144 1.327 . S
C145 C149 1.429 . S
C146 C129 1.574 . S
C146 H140 0.949 . S
C146 C150 1.368 . S
C147 C128 1.429 . S
C147 C141 1.429 . S
C147 C148 1.523 . S
C148 C129 1.368 . S
C148 C142 1.368 . S
C148 C147 1.523 . S
C149 C133 1.429 . S
C149 C145 1.429 . S
C149 C150 1.523 . S
C150 C134 1.368 . S
C150 C146 1.368 . S
C150 C149 1.523 . S
H151 C126 0.950 . S
H152 C128 0.950 . S
H153 C129 0.949 1_554 S
H154 C131 0.950 . S
H155 C133 0.950 . S
C156 C157 1.349 . S
C156 C158 1.327 . S
C156 H181 0.950 . S
C157 C156 1.349 . S
C157 C173 1.349 . S
C158 C156 1.327 . S
C158 C177 1.429 . S
C158 H182 0.950 . S
C159 C176 1.574 . S
C159 C178 1.368 . S
C159 H183 0.949 . S
H160 C164 0.949 . S
C161 C162 1.349 . S
C161 C163 1.327 . S
C161 H184 0.950 . S
C162 C161 1.349 . S
C162 C174 1.349 . S
C163 C161 1.327 . S
C163 C179 1.429 . S
C163 H185 0.950 . S
C164 H160 0.949 . S
C164 C172 1.574 . S
C164 C180 1.368 . S
H165 C173 0.950 . S
H166 C171 0.950 . S
H167 C172 0.949 . S
H168 C174 0.950 . S
H169 C175 0.950 . S
H170 C176 0.949 . S
C171 H166 0.950 . S
C171 C173 1.327 . S
C171 C177 1.429 . S
C172 C164 1.574 . S
C172 H167 0.949 . S
C172 C178 1.368 . S
C173 C157 1.349 . S
C173 H165 0.950 . S
C173 C171 1.327 . S
C174 C162 1.349 . S
C174 H168 0.950 . S
C174 C175 1.327 . S
C175 H169 0.950 . S
C175 C174 1.327 . S
C175 C179 1.429 . S
C176 C159 1.574 . S
C176 H170 0.949 . S
C176 C180 1.368 . S
C177 C158 1.429 . S
C177 C171 1.429 . S
C177 C178 1.523 . S
C178 C159 1.368 . S
C178 C172 1.368 . S
C178 C177 1.523 . S
C179 C163 1.429 . S
C179 C175 1.429 . S
C179 C180 1.523 . S
C180 C164 1.368 . S
C180 C176 1.368 . S
C180 C179 1.523 . S
H181 C156 0.950 . S
H182 C158 0.950 . S
H183 C159 0.949 . S
H184 C161 0.950 . S
H185 C163 0.950 . S
C186 C187 1.349 . S
C186 C188 1.327 1_655 S
C186 H211 0.950 . S
C187 C186 1.349 . S
C187 C203 1.349 . S
C188 C186 1.327 1_455 S
C188 C207 1.429 . S
C188 H212 0.950 . S
C189 C206 1.574 . S
C189 C208 1.368 . S
C189 H213 0.949 . S
H190 C194 0.949 . S
C191 C192 1.349 . S
C191 C193 1.327 . S
C191 H214 0.950 . S
C192 C191 1.349 . S
C192 C204 1.349 . S
C193 C191 1.327 . S
C193 C209 1.429 . S
C193 H215 0.950 . S
C194 H190 0.949 . S
C194 C202 1.574 . S
C194 C210 1.368 . S
H195 C203 0.950 . S
H196 C201 0.950 . S
H197 C202 0.949 . S
H198 C204 0.950 . S
H199 C205 0.950 . S
H200 C206 0.949 . S
C201 H196 0.950 . S
C201 C203 1.327 1_455 S
C201 C207 1.429 . S
C202 C194 1.574 . S
C202 H197 0.949 . S
C202 C208 1.368 . S
C203 C187 1.349 . S
C203 H195 0.950 . S
C203 C201 1.327 1_655 S
C204 C192 1.349 . S
C204 H198 0.950 . S
C204 C205 1.327 . S
C205 H199 0.950 . S
C205 C204 1.327 . S
C205 C209 1.429 . S
C206 C189 1.574 . S
C206 H200 0.949 . S
C206 C210 1.368 . S
C207 C188 1.429 . S
C207 C201 1.429 . S
C207 C208 1.523 . S
C208 C189 1.368 . S
C208 C202 1.368 . S
C208 C207 1.523 . S
C209 C193 1.429 . S
C209 C205 1.429 . S
C209 C210 1.523 . S
C210 C194 1.368 . S
C210 C206 1.368 . S
C210 C209 1.523 . S
H211 C186 0.950 . S
H212 C188 0.950 . S
H213 C189 0.949 . S
H214 C191 0.950 . S
H215 C193 0.950 . S
C216 C217 1.349 . S
C216 C218 1.327 . S
C216 H241 0.950 . S
C217 C216 1.349 . S
C217 C233 1.349 . S
C218 C216 1.327 . S
C218 C237 1.429 . S
C218 H242 0.950 . S
C219 C236 1.574 . S
C219 C238 1.368 . S
C219 H243 0.949 . S
H220 C224 0.949 . S
C221 C222 1.349 . S
C221 C223 1.327 1_565 S
C221 H244 0.950 . S
C222 C221 1.349 . S
C222 C234 1.349 . S
C223 C221 1.327 1_545 S
C223 C239 1.429 . S
C223 H245 0.950 . S
C224 H220 0.949 . S
C224 C232 1.574 . S
C224 C240 1.368 . S
H225 C233 0.950 . S
H226 C231 0.950 . S
H227 C232 0.949 . S
H228 C234 0.950 . S
H229 C235 0.950 . S
H230 C236 0.949 . S
C231 H226 0.950 . S
C231 C233 1.327 . S
C231 C237 1.429 . S
C232 C224 1.574 . S
C232 H227 0.949 . S
C232 C238 1.368 . S
C233 C217 1.349 . S
C233 H225 0.950 . S
C233 C231 1.327 . S
C234 C222 1.349 . S
C234 H228 0.950 . S
C234 C235 1.327 1_565 S
C235 H229 0.950 . S
C235 C234 1.327 1_545 S
C235 C239 1.429 . S
C236 C219 1.574 . S
C236 H230 0.949 . S
C236 C240 1.368 . S
C237 C218 1.429 . S
C237 C231 1.429 . S
C237 C238 1.523 . S
C238 C219 1.368 . S
C238 C232 1.368 . S
C238 C237 1.523 . S
C239 C223 1.429 . S
C239 C235 1.429 . S
C239 C240 1.523 . S
C240 C224 1.368 . S
C240 C236 1.368 . S
C240 C239 1.523 . S
H241 C216 0.950 . S
H242 C218 0.950 . S
H243 C219 0.949 . S
H244 C221 0.950 . S
H245 C223 0.950 . S
C246 C247 1.349 . S
C246 C248 1.327 . S
C246 H271 0.950 . S
C247 C246 1.349 . S
C247 C263 1.349 . S
C248 C246 1.327 . S
C248 C267 1.429 . S
C248 H272 0.950 . S
C249 C266 1.574 . S
C249 C268 1.368 . S
C249 H273 0.949 . S
H250 C254 0.949 . S
C251 C252 1.349 . S
C251 C253 1.327 . S
C251 H274 0.950 . S
C252 C251 1.349 . S
C252 C264 1.349 . S
C253 C251 1.327 . S
C253 C269 1.429 . S
C253 H275 0.950 . S
C254 H250 0.949 . S
C254 C262 1.574 . S
C254 C270 1.368 . S
H255 C263 0.950 . S
H256 C261 0.950 . S
H257 C262 0.949 . S
H258 C264 0.950 . S
H259 C265 0.950 . S
H260 C266 0.949 . S
C261 H256 0.950 . S
C261 C263 1.327 . S
C261 C267 1.429 . S
C262 C254 1.574 . S
C262 H257 0.949 . S
C262 C268 1.368 . S
C263 C247 1.349 . S
C263 H255 0.950 . S
C263 C261 1.327 . S
C264 C252 1.349 . S
C264 H258 0.950 . S
C264 C265 1.327 . S
C265 H259 0.950 . S
C265 C264 1.327 . S
C265 C269 1.429 . S
C266 C249 1.574 . S
C266 H260 0.949 . S
C266 C270 1.368 . S
C267 C248 1.429 . S
C267 C261 1.429 . S
C267 C268 1.523 . S
C268 C249 1.368 . S
C268 C262 1.368 . S
C268 C267 1.523 . S
C269 C253 1.429 . S
C269 C265 1.429 . S
C269 C270 1.523 . S
C270 C254 1.368 . S
C270 C266 1.368 . S
C270 C269 1.523 . S
H271 C246 0.950 . S
H272 C248 0.950 . S
H273 C249 0.949 . S
H274 C251 0.950 . S
H275 C253 0.950 . S
C276 C277 1.349 . S
C276 C278 1.327 1_455 S
C276 H301 0.950 . S
C277 C276 1.349 . S
C277 C293 1.349 . S
C278 C276 1.327 1_655 S
C278 C297 1.429 . S
C278 H302 0.950 . S
C279 C296 1.574 . S
C279 C298 1.368 . S
C279 H303 0.949 . S
H280 C284 0.949 . S
C281 C282 1.349 . S
C281 C283 1.327 . S
C281 H304 0.950 . S
C282 C281 1.349 . S
C282 C294 1.349 . S
C283 C281 1.327 . S
C283 C299 1.429 . S
C283 H305 0.950 . S
C284 H280 0.949 . S
C284 C292 1.574 . S
C284 C300 1.368 . S
H285 C293 0.950 . S
H286 C291 0.950 . S
H287 C292 0.949 . S
H288 C294 0.950 . S
H289 C295 0.950 . S
H290 C296 0.949 . S
C291 H286 0.950 . S
C291 C293 1.327 1_655 S
C291 C297 1.429 . S
C292 C284 1.574 . S
C292 H287 0.949 . S
C292 C298 1.368 . S
C293 C277 1.349 . S
C293 H285 0.950 . S
C293 C291 1.327 1_455 S
C294 C282 1.349 . S
C294 H288 0.950 . S
C294 C295 1.327 . S
C295 H289 0.950 . S
C295 C294 1.327 . S
C295 C299 1.429 . S
C296 C279 1.574 . S
C296 H290 0.949 . S
C296 C300 1.368 . S
C297 C278 1.429 . S
C297 C291 1.429 . S
C297 C298 1.523 . S
C298 C279 1.368 . S
C298 C292 1.368 . S
C298 C297 1.523 . S
C299 C283 1.429 . S
C299 C295 1.429 . S
C299 C300 1.523 . S
C300 C284 1.368 . S
C300 C296 1.368 . S
C300 C299 1.523 . S
H301 C276 0.950 . S
H302 C278 0.950 . S
H303 C279 0.949 . S
H304 C281 0.950 . S
H305 C283 0.950 . S
C306 C307 1.349 . S
C306 C308 1.327 . S
C306 H331 0.950 . S
C307 C306 1.349 . S
C307 C323 1.349 . S
C308 C306 1.327 . S
C308 C327 1.429 . S
C308 H332 0.950 1_545 S
C309 C326 1.574 . S
C309 C328 1.368 . S
C309 H333 0.949 . S
H310 C314 0.949 . S
C311 C312 1.349 . S
C311 C313 1.327 . S
C311 H334 0.950 . S
C312 C311 1.349 . S
C312 C324 1.349 . S
C313 C311 1.327 . S
C313 C329 1.429 . S
C313 H335 0.950 . S
C314 H310 0.949 . S
C314 C322 1.574 . S
C314 C330 1.368 . S
H315 C323 0.950 . S
H316 C321 0.950 . S
H317 C322 0.949 . S
H318 C324 0.950 . S
H319 C325 0.950 . S
H320 C326 0.949 . S
C321 H316 0.950 . S
C321 C323 1.327 . S
C321 C327 1.429 . S
C322 C314 1.574 . S
C322 H317 0.949 . S
C322 C328 1.368 1_565 S
C323 C307 1.349 . S
C323 H315 0.950 . S
C323 C321 1.327 . S
C324 C312 1.349 . S
C324 H318 0.950 . S
C324 C325 1.327 . S
C325 H319 0.950 . S
C325 C324 1.327 . S
C325 C329 1.429 . S
C326 C309 1.574 . S
C326 H320 0.949 . S
C326 C330 1.368 1_545 S
C327 C308 1.429 . S
C327 C321 1.429 . S
C327 C328 1.523 . S
C328 C309 1.368 . S
C328 C322 1.368 1_545 S
C328 C327 1.523 . S
C329 C313 1.429 . S
C329 C325 1.429 . S
C329 C330 1.523 . S
C330 C314 1.368 . S
C330 C326 1.368 1_565 S
C330 C329 1.523 . S
H331 C306 0.950 . S
H332 C308 0.950 1_565 S
H333 C309 0.949 . S
H334 C311 0.950 . S
H335 C313 0.950 . S
C336 C337 1.349 . S
C336 C338 1.327 . S
C336 H361 0.950 . S
C337 C336 1.349 . S
C337 C353 1.349 . S
C338 C336 1.327 . S
C338 C357 1.429 . S
C338 H362 0.950 . S
C339 C356 1.574 . S
C339 C358 1.368 . S
C339 H363 0.949 . S
H340 C344 0.949 . S
C341 C342 1.349 . S
C341 C343 1.327 . S
C341 H364 0.950 . S
C342 C341 1.349 . S
C342 C354 1.349 . S
C343 C341 1.327 . S
C343 C359 1.429 . S
C343 H365 0.950 . S
C344 H340 0.949 . S
C344 C352 1.574 . S
C344 C360 1.368 . S
H345 C353 0.950 . S
H346 C351 0.950 . S
H347 C352 0.949 . S
H348 C354 0.950 . S
H349 C355 0.950 . S
H350 C356 0.949 . S
C351 H346 0.950 . S
C351 C353 1.327 . S
C351 C357 1.429 . S
C352 C344 1.574 . S
C352 H347 0.949 . S
C352 C358 1.368 . S
C353 C337 1.349 . S
C353 H345 0.950 . S
C353 C351 1.327 . S
C354 C342 1.349 . S
C354 H348 0.950 . S
C354 C355 1.327 . S
C355 H349 0.950 . S
C355 C354 1.327 . S
C355 C359 1.429 . S
C356 C339 1.574 . S
C356 H350 0.949 . S
C356 C360 1.368 . S
C357 C338 1.429 . S
C357 C351 1.429 . S
C357 C358 1.523 . S
C358 C339 1.368 . S
C358 C352 1.368 . S
C358 C357 1.523 . S
C359 C343 1.429 . S
C359 C355 1.429 . S
C359 C360 1.523 . S
C360 C344 1.368 . S
C360 C356 1.368 . S
C360 C359 1.523 . S
H361 C336 0.950 . S
H362 C338 0.950 . S
H363 C339 0.949 . S
H364 C341 0.950 . S
H365 C343 0.950 . S
C366 C367 1.349 . S
C366 C368 1.327 . S
C366 H391 0.950 . S
C367 C366 1.349 . S
C367 C383 1.349 . S
C368 C366 1.327 . S
C368 C387 1.429 . S
C368 H392 0.950 . S
C369 C386 1.574 . S
C369 C388 1.368 1_655 S
C369 H393 0.949 . S
H370 C374 0.949 . S
C371 C372 1.349 . S
C371 C373 1.327 . S
C371 H394 0.950 . S
C372 C371 1.349 . S
C372 C384 1.349 . S
C373 C371 1.327 . S
C373 C389 1.429 . S
C373 H395 0.950 . S
C374 H370 0.949 . S
C374 C382 1.574 . S
C374 C390 1.368 1_455 S
H375 C383 0.950 . S
H376 C381 0.950 1_655 S
H377 C382 0.949 . S
H378 C384 0.950 1_455 S
H379 C385 0.950 . S
H380 C386 0.949 . S
C381 H376 0.950 1_455 S
C381 C383 1.327 . S
C381 C387 1.429 . S
C382 C374 1.574 . S
C382 H377 0.949 . S
C382 C388 1.368 . S
C383 C367 1.349 . S
C383 H375 0.950 . S
C383 C381 1.327 . S
C384 C372 1.349 . S
C384 H378 0.950 1_655 S
C384 C385 1.327 1_655 S
C385 H379 0.950 . S
C385 C384 1.327 1_455 S
C385 C389 1.429 1_455 S
C386 C369 1.574 . S
C386 H380 0.949 . S
C386 C390 1.368 . S
C387 C368 1.429 . S
C387 C381 1.429 . S
C387 C388 1.523 . S
C388 C369 1.368 1_455 S
C388 C382 1.368 . S
C388 C387 1.523 . S
C389 C373 1.429 . S
C389 C385 1.429 1_655 S
C389 C390 1.523 . S
C390 C374 1.368 1_655 S
C390 C386 1.368 . S
C390 C389 1.523 . S
H391 C366 0.950 . S
H392 C368 0.950 . S
H393 C369 0.949 . S
H394 C371 0.950 . S
H395 C373 0.950 . S
C396 C397 1.349 . S
C396 C398 1.327 . S
C396 H421 0.950 . S
C397 C396 1.349 . S
C397 C413 1.349 . S
C398 C396 1.327 . S
C398 C417 1.429 . S
C398 H422 0.979 . S
C399 C416 1.574 1_565 S
C399 C418 1.368 . S
C399 H423 0.949 . S
H400 C404 0.949 . S
C401 C402 1.349 . S
C401 C403 1.327 . S
C401 H424 0.950 . S
C402 C401 1.349 . S
C402 C414 1.349 . S
C403 C401 1.327 . S
C403 C419 1.429 . S
C403 H425 0.950 . S
C404 H400 0.949 . S
C404 C412 1.574 . S
C404 C420 1.368 . S
H405 C413 0.950 . S
H406 C411 0.950 . S
H407 C412 0.949 . S
H408 C414 0.950 . S
H409 C415 0.950 . S
H410 C416 0.949 . S
C411 H406 0.950 . S
C411 C413 1.327 . S
C411 C417 1.429 . S
C412 C404 1.574 . S
C412 H407 0.949 . S
C412 C418 1.368 1_545 S
C413 C397 1.349 . S
C413 H405 0.950 . S
C413 C411 1.327 . S
C414 C402 1.349 . S
C414 H408 0.950 . S
C414 C415 1.327 . S
C415 H409 0.950 . S
C415 C414 1.327 . S
C415 C419 1.429 . S
C416 C399 1.574 1_545 S
C416 H410 0.949 . S
C416 C420 1.368 . S
C417 C398 1.429 . S
C417 C411 1.429 . S
C417 C418 1.523 . S
C418 C399 1.368 . S
C418 C412 1.368 1_565 S
C418 C417 1.523 . S
C419 C403 1.429 . S
C419 C415 1.429 . S
C419 C420 1.523 . S
C420 C404 1.368 . S
C420 C416 1.368 . S
C420 C419 1.523 . S
H421 C396 0.950 . S
H422 C398 0.979 . S
H423 C399 0.949 . S
H424 C401 0.950 . S
H425 C403 0.950 . S
C426 C427 1.349 . S
C426 C428 1.327 . S
C426 H451 0.950 . S
C427 C426 1.349 . S
C427 C443 1.349 . S
C428 C426 1.327 . S
C428 C447 1.429 . S
C428 H452 0.950 . S
C429 C446 1.574 . S
C429 C448 1.368 . S
C429 H453 0.949 . S
H430 C434 0.949 . S
C431 C432 1.349 . S
C431 C433 1.327 . S
C431 H454 0.950 . S
C432 C431 1.349 . S
C432 C444 1.349 . S
C433 C431 1.327 . S
C433 C449 1.429 . S
C433 H455 0.950 . S
C434 H430 0.949 . S
C434 C442 1.574 . S
C434 C450 1.368 . S
H435 C443 0.950 . S
H436 C441 0.950 . S
H437 C442 0.949 . S
H438 C444 0.950 . S
H439 C445 0.950 . S
H440 C446 0.949 . S
C441 H436 0.950 . S
C441 C443 1.327 . S
C441 C447 1.429 . S
C442 C434 1.574 . S
C442 H437 0.949 . S
C442 C448 1.368 . S
C443 C427 1.349 . S
C443 H435 0.950 . S
C443 C441 1.327 . S
C444 C432 1.349 . S
C444 H438 0.950 . S
C444 C445 1.327 . S
C445 H439 0.950 . S
C445 C444 1.327 . S
C445 C449 1.429 . S
C446 C429 1.574 . S
C446 H440 0.949 . S
C446 C450 1.368 . S
C447 C428 1.429 . S
C447 C441 1.429 . S
C447 C448 1.523 1_554 S
C448 C429 1.368 . S
C448 C442 1.368 . S
C448 C447 1.523 1_556 S
C449 C433 1.429 . S
C449 C445 1.429 . S
C449 C450 1.523 . S
C450 C434 1.368 . S
C450 C446 1.368 . S
C450 C449 1.523 . S
H451 C426 0.950 . S
H452 C428 0.950 . S
H453 C429 0.949 . S
H454 C431 0.950 . S
H455 C433 0.950 . S
C456 C457 1.349 . S
C456 C458 1.327 1_556 S
C456 H481 0.950 . S
C457 C456 1.349 . S
C457 C473 1.349 . S
C458 C456 1.327 1_554 S
C458 C477 1.429 . S
C458 H482 0.950 . S
C459 C476 1.574 . S
C459 C478 1.368 1_655 S
C459 H483 0.949 . S
H460 C464 0.949 . S
C461 C462 1.349 . S
C461 C463 1.327 . S
C461 H484 0.950 . S
C462 C461 1.349 . S
C462 C474 1.349 . S
C463 C461 1.327 . S
C463 C479 1.429 . S
C463 H485 0.950 . S
C464 H460 0.949 . S
C464 C472 1.574 1_655 S
C464 C480 1.368 . S
H465 C473 0.950 . S
H466 C471 0.950 . S
H467 C472 0.949 . S
H468 C474 0.950 . S
H469 C475 0.950 . S
H470 C476 0.949 . S
C471 H466 0.950 . S
C471 C473 1.327 . S
C471 C477 1.429 1_556 S
C472 C464 1.574 1_455 S
C472 H467 0.949 . S
C472 C478 1.368 . S
C473 C457 1.349 . S
C473 H465 0.950 . S
C473 C471 1.327 . S
C474 C462 1.349 . S
C474 H468 0.950 . S
C474 C475 1.327 . S
C475 H469 0.950 . S
C475 C474 1.327 . S
C475 C479 1.429 . S
C476 C459 1.574 . S
C476 H470 0.949 . S
C476 C480 1.368 . S
C477 C458 1.429 . S
C477 C471 1.429 1_554 S
C477 C478 1.523 . S
C478 C459 1.368 1_455 S
C478 C472 1.368 . S
C478 C477 1.523 . S
C479 C463 1.429 . S
C479 C475 1.429 . S
C479 C480 1.523 . S
C480 C464 1.368 . S
C480 C476 1.368 . S
C480 C479 1.523 . S
H481 C456 0.950 . S
H482 C458 0.950 . S
H483 C459 0.949 . S
H484 C461 0.950 . S
H485 C463 0.950 . S
C486 C487 1.349 . S
C486 C488 1.327 . S
C486 H511 0.950 . S
C487 C486 1.349 . S
C487 C503 1.349 . S
C488 C486 1.327 . S
C488 C507 1.429 . S
C488 H512 0.950 . S
C489 C506 1.574 . S
C489 C508 1.368 . S
C489 H513 0.949 . S
H490 C494 0.949 . S
C491 C492 1.349 . S
C491 C493 1.327 . S
C491 H514 0.950 . S
C492 C491 1.349 . S
C492 C504 1.349 . S
C493 C491 1.327 . S
C493 C509 1.429 . S
C493 H515 0.950 . S
C494 H490 0.949 . S
C494 C502 1.574 . S
C494 C510 1.368 . S
H495 C503 0.950 . S
H496 C501 0.950 . S
H497 C502 0.949 . S
H498 C504 0.950 . S
H499 C505 0.950 . S
H500 C506 0.949 . S
C501 H496 0.950 . S
C501 C503 1.327 . S
C501 C507 1.429 . S
C502 C494 1.574 . S
C502 H497 0.949 . S
C502 C508 1.368 . S
C503 C487 1.349 . S
C503 H495 0.950 . S
C503 C501 1.327 . S
C504 C492 1.349 . S
C504 H498 0.950 . S
C504 C505 1.327 . S
C505 H499 0.950 . S
C505 C504 1.327 . S
C505 C509 1.429 . S
C506 C489 1.574 . S
C506 H500 0.949 . S
C506 C510 1.368 . S
C507 C488 1.429 . S
C507 C501 1.429 . S
C507 C508 1.523 . S
C508 C489 1.368 . S
C508 C502 1.368 . S
C508 C507 1.523 . S
C509 C493 1.429 . S
C509 C505 1.429 . S
C509 C510 1.523 . S
C510 C494 1.368 . S
C510 C506 1.368 . S
C510 C509 1.523 . S
H511 C486 0.950 . S
H512 C488 0.950 . S
H513 C489 0.949 . S
H514 C491 0.950 . S
H515 C493 0.950 . S
C516 C517 1.349 . S
C516 C518 1.327 . S
C516 H541 0.950 . S
C517 C516 1.349 . S
C517 C533 1.349 . S
C518 C516 1.327 . S
C518 C537 1.429 . S
C518 H542 0.950 . S
C519 C536 1.574 . S
C519 C538 1.368 1_554 S
C519 H543 0.949 . S
H520 C524 0.949 . S
C521 C522 1.349 . S
C521 C523 1.327 . S
C521 H544 0.950 . S
C522 C521 1.349 . S
C522 C534 1.349 . S
C523 C521 1.327 . S
C523 C539 1.429 . S
C523 H545 0.950 . S
C524 H520 0.949 . S
C524 C532 1.574 . S
C524 C540 1.368 1_556 S
H525 C533 0.950 . S
H526 C531 0.950 . S
H527 C532 0.949 . S
H528 C534 0.950 . S
H529 C535 0.950 1_556 S
H530 C536 0.949 . S
C531 H526 0.950 . S
C531 C533 1.327 . S
C531 C537 1.429 . S
C532 C524 1.574 . S
C532 H527 0.949 . S
C532 C538 1.368 . S
C533 C517 1.349 . S
C533 H525 0.950 . S
C533 C531 1.327 . S
C534 C522 1.349 . S
C534 H528 0.950 . S
C534 C535 1.327 . S
C535 H529 0.950 1_554 S
C535 C534 1.327 . S
C535 C539 1.429 . S
C536 C519 1.574 . S
C536 H530 0.949 . S
C536 C540 1.368 . S
C537 C518 1.429 . S
C537 C531 1.429 . S
C537 C538 1.523 . S
C538 C519 1.368 1_556 S
C538 C532 1.368 . S
C538 C537 1.523 . S
C539 C523 1.429 . S
C539 C535 1.429 . S
C539 C540 1.523 . S
C540 C524 1.368 1_554 S
C540 C536 1.368 . S
C540 C539 1.523 . S
H541 C516 0.950 . S
H542 C518 0.950 . S
H543 C519 0.949 . S
H544 C521 0.950 . S
H545 C523 0.950 . S
C546 C547 1.349 . S
C546 C548 1.327 . S
C546 H571 0.950 . S
C547 C546 1.349 . S
C547 C563 1.349 . S
C548 C546 1.327 . S
C548 C567 1.429 . S
C548 H572 0.950 . S
C549 C566 1.574 . S
C549 C568 1.368 . S
C549 H573 0.949 . S
H550 C554 0.949 . S
C551 C552 1.349 . S
C551 C553 1.327 . S
C551 H574 0.950 . S
C552 C551 1.349 . S
C552 C564 1.349 . S
C553 C551 1.327 . S
C553 C569 1.429 . S
C553 H575 0.950 . S
C554 H550 0.949 . S
C554 C562 1.574 . S
C554 C570 1.368 . S
H555 C563 0.950 . S
H556 C561 0.950 . S
H557 C562 0.949 . S
H558 C564 0.950 . S
H559 C565 0.950 . S
H560 C566 0.949 . S
C561 H556 0.950 . S
C561 C563 1.327 . S
C561 C567 1.429 . S
C562 C554 1.574 . S
C562 H557 0.949 . S
C562 C568 1.368 . S
C563 C547 1.349 . S
C563 H555 0.950 . S
C563 C561 1.327 . S
C564 C552 1.349 . S
C564 H558 0.950 . S
C564 C565 1.327 . S
C565 H559 0.950 . S
C565 C564 1.327 . S
C565 C569 1.429 . S
C566 C549 1.574 . S
C566 H560 0.949 . S
C566 C570 1.368 . S
C567 C548 1.429 . S
C567 C561 1.429 . S
C567 C568 1.523 . S
C568 C549 1.368 . S
C568 C562 1.368 . S
C568 C567 1.523 . S
C569 C553 1.429 . S
C569 C565 1.429 . S
C569 C570 1.523 . S
C570 C554 1.368 . S
C570 C566 1.368 . S
C570 C569 1.523 . S
H571 C546 0.950 . S
H572 C548 0.950 . S
H573 C549 0.949 . S
H574 C551 0.950 . S
H575 C553 0.950 . S
C576 C577 1.349 . S
C576 C578 1.327 . S
C576 H601 0.950 . S
C577 C576 1.349 . S
C577 C593 1.349 . S
C578 C576 1.327 . S
C578 C597 1.429 . S
C578 H602 0.950 . S
C579 C596 1.574 . S
C579 C598 1.368 . S
C579 H603 0.949 . S
H580 C584 0.949 . S
C581 C582 1.349 . S
C581 C583 1.327 . S
C581 H604 0.950 . S
C582 C581 1.349 . S
C582 C594 1.349 . S
C583 C581 1.327 . S
C583 C599 1.429 . S
C583 H605 0.950 . S
C584 H580 0.949 . S
C584 C592 1.574 . S
C584 C600 1.368 . S
H585 C593 0.950 . S
H586 C591 0.950 . S
H587 C592 0.949 . S
H588 C594 0.950 . S
H589 C595 0.950 . S
H590 C596 0.949 . S
C591 H586 0.950 . S
C591 C593 1.327 . S
C591 C597 1.429 . S
C592 C584 1.574 . S
C592 H587 0.949 . S
C592 C598 1.368 . S
C593 C577 1.349 . S
C593 H585 0.950 . S
C593 C591 1.327 . S
C594 C582 1.349 . S
C594 H588 0.950 . S
C594 C595 1.327 . S
C595 H589 0.950 . S
C595 C594 1.327 . S
C595 C599 1.429 . S
C596 C579 1.574 . S
C596 H590 0.949 . S
C596 C600 1.368 . S
C597 C578 1.429 . S
C597 C591 1.429 . S
C597 C598 1.523 . S
C598 C579 1.368 . S
C598 C592 1.368 . S
C598 C597 1.523 . S
C599 C583 1.429 . S
C599 C595 1.429 . S
C599 C600 1.523 . S
C600 C584 1.368 . S
C600 C596 1.368 . S
C600 C599 1.523 . S
H601 C576 0.950 . S
H602 C578 0.950 . S
H603 C579 0.949 . S
H604 C581 0.950 . S
H605 C583 0.950 . S
C606 C607 1.349 . S
C606 C608 1.327 . S
C606 H631 0.950 . S
C607 C606 1.349 . S
C607 C623 1.349 . S
C608 C606 1.327 . S
C608 C627 1.429 . S
C608 H632 0.950 . S
C609 C626 1.574 . S
C609 C628 1.368 . S
C609 H633 0.949 . S
H610 C614 0.949 . S
C611 C612 1.349 . S
C611 C613 1.327 . S
C611 H634 0.950 . S
C612 C611 1.349 . S
C612 C624 1.349 . S
C613 C611 1.327 . S
C613 C629 1.429 . S
C613 H635 0.950 . S
C614 H610 0.949 . S
C614 C622 1.574 . S
C614 C630 1.368 . S
H615 C623 0.950 . S
H616 C621 0.950 . S
H617 C622 0.949 . S
H618 C624 0.950 . S
H619 C625 0.950 . S
H620 C626 0.949 . S
C621 H616 0.950 . S
C621 C623 1.327 . S
C621 C627 1.429 . S
C622 C614 1.574 . S
C622 H617 0.949 . S
C622 C628 1.368 . S
C623 C607 1.349 . S
C623 H615 0.950 . S
C623 C621 1.327 . S
C624 C612 1.349 . S
C624 H618 0.950 . S
C624 C625 1.327 . S
C625 H619 0.950 . S
C625 C624 1.327 . S
C625 C629 1.429 . S
C626 C609 1.574 . S
C626 H620 0.949 . S
C626 C630 1.368 . S
C627 C608 1.429 . S
C627 C621 1.429 . S
C627 C628 1.523 . S
C628 C609 1.368 . S
C628 C622 1.368 . S
C628 C627 1.523 . S
C629 C613 1.429 . S
C629 C625 1.429 . S
C629 C630 1.523 . S
C630 C614 1.368 . S
C630 C626 1.368 . S
C630 C629 1.523 . S
H631 C606 0.950 . S
H632 C608 0.950 . S
H633 C609 0.949 . S
H634 C611 0.950 . S
H635 C613 0.950 . S
C636 C637 1.349 . S
C636 C638 1.327 . S
C636 H661 0.950 . S
C637 C636 1.349 . S
C637 C653 1.349 . S
C638 C636 1.327 . S
C638 C657 1.429 . S
C638 H662 0.950 . S
C639 C656 1.574 . S
C639 C658 1.368 . S
C639 H663 0.949 . S
H640 C644 0.949 . S
C641 C642 1.349 . S
C641 C643 1.327 . S
C641 H664 0.950 . S
C642 C641 1.349 . S
C642 C654 1.349 . S
C643 C641 1.327 . S
C643 C659 1.429 . S
C643 H665 0.950 . S
C644 H640 0.949 . S
C644 C652 1.574 . S
C644 C660 1.368 . S
H645 C653 0.950 . S
H646 C651 0.950 . S
H647 C652 0.949 . S
H648 C654 0.950 . S
H649 C655 0.950 . S
H650 C656 0.949 . S
C651 H646 0.950 . S
C651 C653 1.327 . S
C651 C657 1.429 . S
C652 C644 1.574 . S
C652 H647 0.949 . S
C652 C658 1.368 . S
C653 C637 1.349 . S
C653 H645 0.950 . S
C653 C651 1.327 . S
C654 C642 1.349 . S
C654 H648 0.950 . S
C654 C655 1.327 . S
C655 H649 0.950 . S
C655 C654 1.327 . S
C655 C659 1.429 . S
C656 C639 1.574 . S
C656 H650 0.949 . S
C656 C660 1.368 . S
C657 C638 1.429 . S
C657 C651 1.429 . S
C657 C658 1.523 . S
C658 C639 1.368 . S
C658 C652 1.368 . S
C658 C657 1.523 . S
C659 C643 1.429 . S
C659 C655 1.429 . S
C659 C660 1.523 . S
C660 C644 1.368 . S
C660 C656 1.368 . S
C660 C659 1.523 . S
H661 C636 0.950 . S
H662 C638 0.950 . S
H663 C639 0.949 . S
H664 C641 0.950 . S
H665 C643 0.950 . S
C127 C17 1.615 . S
C132 C118 1.528 . S
C157 C35 1.615 . S
C162 C16 1.527 . S
C187 C59 1.615 . S
C192 C34 1.527 . S
C217 C58 1.528 . S
C222 C77 1.615 . S
C247 C76 1.527 . S
C252 C101 1.615 . S
C277 C119 1.615 . S
C282 C100 1.527 . S
C307 C15 1.087 . S
C312 C79 0.950 . S
C337 C39 1.087 . S
C342 C97 0.950 . S
C367 C121 0.950 . S
C372 C57 1.087 . S
C397 C81 1.087 . S
C402 C13 0.950 . S
C427 C37 0.950 . S
C432 C99 1.087 . S
C457 C123 1.087 . S
C462 C55 0.950 . S
C487 C14 0.973 . S
C492 C102 0.989 . S
C517 C120 0.989 . S
C522 C38 0.973 . S
C547 C18 0.989 . S
C552 C56 0.973 . S
C577 C80 0.973 . S
C582 C36 0.989 . S
C607 C60 0.989 . S
C612 C98 0.973 . S
C637 C78 0.989 . S
C642 C122 0.973 . S
