# Generated by pormake.
# Topology umb, (4)-cn, num edge types: 1
# Building blocks:
#     Node 0, Type 0, BuildingBlock: ICAMEG_clean_sbu_1, # of connection points: 4
#     Node 1, Type 0, BuildingBlock: ICAMEG_clean_sbu_1, # of connection points: 4
#     Node 2, Type 0, BuildingBlock: ICAMEG_clean_sbu_1, # of connection points: 4
#     Node 3, Type 0, BuildingBlock: ICAMEG_clean_sbu_1, # of connection points: 4
#     Node 4, Type 0, BuildingBlock: ICAMEG_clean_sbu_1, # of connection points: 4
#     Node 5, Type 0, BuildingBlock: ICAMEG_clean_sbu_1, # of connection points: 4
#     Node 6, Type 0, BuildingBlock: ICAMEG_clean_sbu_1, # of connection points: 4
#     Node 7, Type 0, BuildingBlock: ICAMEG_clean_sbu_1, # of connection points: 4
#     Node 8, Type 0, BuildingBlock: ICAMEG_clean_sbu_1, # of connection points: 4
#     Node 9, Type 0, BuildingBlock: ICAMEG_clean_sbu_1, # of connection points: 4
#     Node 10, Type 0, BuildingBlock: ICAMEG_clean_sbu_1, # of connection points: 4
#     Node 11, Type 0, BuildingBlock: ICAMEG_clean_sbu_1, # of connection points: 4
#     Edge 12, Type (0, 0), BuildingBlock: AJUNOK_clean_linker_0, # of connection points: 2
#     Edge 13, Type (0, 0), BuildingBlock: AJUNOK_clean_linker_0, # of connection points: 2
#     Edge 14, Type (0, 0), BuildingBlock: AJUNOK_clean_linker_0, # of connection points: 2
#     Edge 15, Type (0, 0), BuildingBlock: AJUNOK_clean_linker_0, # of connection points: 2
#     Edge 16, Type (0, 0), BuildingBlock: AJUNOK_clean_linker_0, # of connection points: 2
#     Edge 17, Type (0, 0), BuildingBlock: AJUNOK_clean_linker_0, # of connection points: 2
#     Edge 18, Type (0, 0), BuildingBlock: AJUNOK_clean_linker_0, # of connection points: 2
#     Edge 19, Type (0, 0), BuildingBlock: AJUNOK_clean_linker_0, # of connection points: 2
#     Edge 20, Type (0, 0), BuildingBlock: AJUNOK_clean_linker_0, # of connection points: 2
#     Edge 21, Type (0, 0), BuildingBlock: AJUNOK_clean_linker_0, # of connection points: 2
#     Edge 22, Type (0, 0), BuildingBlock: AJUNOK_clean_linker_0, # of connection points: 2
#     Edge 23, Type (0, 0), BuildingBlock: AJUNOK_clean_linker_0, # of connection points: 2
#     Edge 24, Type (0, 0), BuildingBlock: AJUNOK_clean_linker_0, # of connection points: 2
#     Edge 25, Type (0, 0), BuildingBlock: AJUNOK_clean_linker_0, # of connection points: 2
#     Edge 26, Type (0, 0), BuildingBlock: AJUNOK_clean_linker_0, # of connection points: 2
#     Edge 27, Type (0, 0), BuildingBlock: AJUNOK_clean_linker_0, # of connection points: 2
#     Edge 28, Type (0, 0), BuildingBlock: AJUNOK_clean_linker_0, # of connection points: 2
#     Edge 29, Type (0, 0), BuildingBlock: AJUNOK_clean_linker_0, # of connection points: 2
#     Edge 30, Type (0, 0), BuildingBlock: AJUNOK_clean_linker_0, # of connection points: 2
#     Edge 31, Type (0, 0), BuildingBlock: AJUNOK_clean_linker_0, # of connection points: 2
#     Edge 32, Type (0, 0), BuildingBlock: AJUNOK_clean_linker_0, # of connection points: 2
#     Edge 33, Type (0, 0), BuildingBlock: AJUNOK_clean_linker_0, # of connection points: 2
#     Edge 34, Type (0, 0), BuildingBlock: AJUNOK_clean_linker_0, # of connection points: 2
#     Edge 35, Type (0, 0), BuildingBlock: AJUNOK_clean_linker_0, # of connection points: 2
# Relax obj value: 0.157
# Max RMSD: 0.178
# Mean RMSD: 0.178
data_MOF--net-umb--node1-ICAMEG_clean_sbu_1--edge1-AJUNOK_clean_linker_0
_symmetry_space_group_name_H-M    P1
_symmetry_Int_Tables_number       1
_symmetry_cell_setting            triclinic
loop_
_symmetry_equiv_pos_as_xyz
'x, y, z'
_cell_length_a     38.478772
_cell_length_b     38.445573
_cell_length_c     30.120198
_cell_angle_alpha  90.071648
_cell_angle_beta   89.967325
_cell_angle_gamma 119.85109
loop_
_atom_site_label
_atom_site_type_symbol
_atom_site_fract_x
_atom_site_fract_y
_atom_site_fract_z
_atom_type_partial_charge
Co0 Co 0.50394 0.18286 0.37523 0.0
Co1 Co 0.5805 0.16414 0.3488 0.0
O2 O 0.52602 0.15441 0.34238 0.0
C3 C 0.50474 0.20362 0.27985 0.0
O4 O 0.53779 0.20189 0.2772 0.0
C5 C 0.53061 0.08119 0.3777 0.0
O6 O 0.51041 0.09333 0.40201 0.0
O7 O 0.5782 0.1676 0.41472 0.0
O8 O 0.52369 0.17173 0.43317 0.0
H9 H 0.71752 0.2278 0.41687 0.0
H10 H 0.45305 0.11908 0.31118 0.0
O11 O 0.48596 0.19639 0.31696 0.0
H12 H 0.38643 0.07266 0.45632 0.0
H13 H 0.39934 0.22133 0.40863 0.0
H14 H 0.5306 0.23867 0.45207 0.0
H15 H 0.44842 0.13809 0.44936 0.0
H16 H 0.42864 0.1864 0.36771 0.0
O17 O 0.55941 0.10552 0.35329 0.0
H18 H 0.65187 0.2215 0.40037 0.0
H19 H 0.62436 0.1249 0.31213 0.0
H20 H 0.50221 0.27371 0.49425 0.0
H21 H 0.39087 0.0536 0.31641 0.0
H22 H 0.43616 0.26522 0.47252 0.0
H23 H 0.35723 0.02995 0.38945 0.0
O24 O 0.55426 0.23474 0.37096 0.0
H25 H 0.52974 0.10385 0.19808 0.0
H26 H 0.6397 0.21529 0.28021 0.0
H27 H 0.64219 0.21405 0.19848 0.0
H28 H 0.58715 0.15785 0.15684 0.0
H29 H 0.52771 0.10702 0.2798 0.0
H30 H 0.69019 0.13087 0.32675 0.0
H31 H 0.73672 0.18175 0.38045 0.0
O32 O 0.60192 0.22252 0.34459 0.0
C33 C 0.55492 0.16947 0.44362 0.0
C34 C 0.69743 0.2054 0.39349 0.0
C35 C 0.68207 0.15096 0.34294 0.0
N36 N 0.63434 0.17286 0.35536 0.0
C37 C 0.66031 0.20181 0.38387 0.0
C38 C 0.64493 0.14785 0.33464 0.0
C39 C 0.70822 0.17962 0.37299 0.0
C40 C 0.43836 0.10911 0.34297 0.0
N41 N 0.45424 0.13234 0.37993 0.0
C42 C 0.40325 0.07196 0.34577 0.0
C43 C 0.38443 0.05869 0.38677 0.0
C44 C 0.4008 0.08262 0.42431 0.0
C45 C 0.43596 0.11957 0.42023 0.0
C46 C 0.42813 0.22525 0.41844 0.0
C47 C 0.5017 0.23457 0.44262 0.0
C48 C 0.4449 0.20564 0.39533 0.0
N49 N 0.48113 0.21029 0.4077 0.0
C50 C 0.48585 0.25462 0.46653 0.0
C51 C 0.4488 0.24986 0.4543 0.0
C52 C 0.58923 0.24599 0.35641 0.0
C53 C 0.55405 0.12836 0.21585 0.0
C54 C 0.61549 0.19087 0.26233 0.0
C55 C 0.61719 0.19021 0.21605 0.0
C56 C 0.58625 0.15869 0.19273 0.0
N57 N 0.58362 0.16122 0.28474 0.0
C58 C 0.55317 0.13019 0.26213 0.0
Co59 Co 0.30996 0.50809 0.69713 0.0
Co60 Co 0.40703 0.57571 0.66754 0.0
O61 O 0.35929 0.52278 0.66461 0.0
C62 C 0.29078 0.50673 0.60098 0.0
O63 O 0.32824 0.53465 0.59607 0.0
C64 C 0.43104 0.52003 0.70436 0.0
O65 O 0.39497 0.49935 0.72124 0.0
O66 O 0.40029 0.58005 0.7328 0.0
O67 O 0.34194 0.5268 0.75407 0.0
H68 H 0.48502 0.72118 0.71019 0.0
H69 H 0.3126 0.4488 0.63625 0.0
O70 O 0.27768 0.49144 0.63943 0.0
H71 H 0.28738 0.38744 0.78499 0.0
H72 H 0.16378 0.4198 0.73315 0.0
H73 H 0.28824 0.54389 0.77201 0.0
H74 H 0.29388 0.45409 0.77443 0.0
H75 H 0.22646 0.43945 0.69218 0.0
O76 O 0.44081 0.55109 0.68095 0.0
H77 H 0.42488 0.65442 0.70447 0.0
H78 H 0.49133 0.61012 0.63579 0.0
H79 H 0.22643 0.52521 0.81411 0.0
H80 H 0.30603 0.38198 0.64517 0.0
H81 H 0.16357 0.4628 0.79468 0.0
H82 H 0.29344 0.35094 0.72002 0.0
O83 O 0.31596 0.56192 0.69017 0.0
H84 H 0.41314 0.50648 0.5286 0.0
H85 H 0.42223 0.62969 0.59005 0.0
H86 H 0.42769 0.62355 0.50916 0.0
H87 H 0.42333 0.56172 0.47795 0.0
H88 H 0.40688 0.51344 0.6092 0.0
H89 H 0.55225 0.67669 0.6403 0.0
H90 H 0.54929 0.73285 0.67762 0.0
O91 O 0.37408 0.60087 0.65499 0.0
C92 C 0.37555 0.55834 0.76285 0.0
C93 C 0.48667 0.6971 0.69351 0.0
C94 C 0.52441 0.67205 0.65448 0.0
N95 N 0.45459 0.62836 0.66991 0.0
C96 C 0.45269 0.65916 0.69022 0.0
C97 C 0.48985 0.6344 0.65212 0.0
C98 C 0.52273 0.70355 0.67539 0.0
C99 C 0.30669 0.43526 0.6688 0.0
N100 N 0.30328 0.45509 0.70471 0.0
C101 C 0.30318 0.39752 0.6737 0.0
C102 C 0.29617 0.38015 0.71572 0.0
C103 C 0.29278 0.40062 0.75219 0.0
C104 C 0.29652 0.43833 0.74604 0.0
C105 C 0.19098 0.44706 0.74193 0.0
C106 C 0.26109 0.51655 0.76353 0.0
C107 C 0.22651 0.45838 0.71878 0.0
N108 N 0.26098 0.49267 0.72983 0.0
C109 C 0.22614 0.5062 0.78741 0.0
C110 C 0.19088 0.47119 0.77647 0.0
C111 C 0.34047 0.59403 0.67036 0.0
C112 C 0.41529 0.53367 0.54181 0.0
C113 C 0.42018 0.60263 0.57671 0.0
C114 C 0.42346 0.5994 0.5309 0.0
C115 C 0.42097 0.56466 0.51341 0.0
N116 N 0.41433 0.57198 0.60432 0.0
C117 C 0.41199 0.53787 0.58745 0.0
Co118 Co 0.79765 0.31676 0.04126 0.0
Co119 Co 0.82327 0.41352 1.0122 0.0
O120 O 0.82851 0.36584 1.00707 0.0
C121 C 0.77578 0.29585 0.94629 0.0
O122 O 0.77942 0.33146 0.94284 0.0
C123 C 0.90495 0.43809 0.03986 0.0
O124 O 0.8897 0.40372 0.0608 0.0
O125 O 0.81931 0.40899 0.07791 0.0
O126 O 0.81094 0.34912 0.09851 0.0
H127 H 0.76467 0.49552 0.07108 0.0
H128 H 0.85868 0.3219 0.97732 0.0
O129 O 0.78191 0.28401 0.98379 0.0
H130 H 0.90307 0.30188 0.12386 0.0
H131 H 0.7499 0.17238 0.07852 0.0
H132 H 0.7425 0.29295 0.11854 0.0
H133 H 0.8407 0.30484 0.11646 0.0
H134 H 0.78779 0.23505 0.03583 0.0
O135 O 0.88258 0.44736 1.01769 0.0
H136 H 0.7692 0.43432 0.06129 0.0
H137 H 0.86817 0.49588 0.97415 0.0
H138 H 0.705 0.2313 0.16272 0.0
H139 H 0.92103 0.31874 0.98309 0.0
H140 H 0.70828 0.17033 0.14265 0.0
H141 H 0.9436 0.30873 0.0568 0.0
O142 O 0.74823 0.32 0.03698 0.0
H143 H 0.88313 0.41629 0.86301 0.0
H144 H 0.77495 0.42426 0.94189 0.0
H145 H 0.77753 0.42734 0.86007 0.0
H146 H 0.83204 0.42362 0.82011 0.0
H147 H 0.87885 0.41228 0.94473 0.0
H148 H 0.8641 0.55766 0.98209 0.0
H149 H 0.81202 0.55772 0.03088 0.0
O150 O 0.76414 0.38032 1.00848 0.0
C151 C 0.81559 0.38388 0.10773 0.0
C152 C 0.78717 0.49578 0.04928 0.0
C153 C 0.8431 0.53069 0.99954 0.0
N154 N 0.81872 0.46142 1.01694 0.0
C155 C 0.78985 0.46116 0.04358 0.0
C156 C 0.84523 0.49562 0.99512 0.0
C157 C 0.81387 0.5307 1.0269 0.0
C158 C 0.86811 0.31709 1.00941 0.0
N159 N 0.84595 0.31317 0.04645 0.0
C160 C 0.9035 0.31548 1.01251 0.0
C161 C 0.91617 0.30992 0.0539 0.0
C162 C 0.89347 0.30612 0.09154 0.0
C163 C 0.85824 0.30788 0.08717 0.0
C164 C 0.74818 0.19873 0.08759 0.0
C165 C 0.74446 0.26669 0.10984 0.0
C166 C 0.76946 0.23424 0.06346 0.0
N167 N 0.76759 0.26768 0.0749 0.0
C168 C 0.72294 0.23178 0.13484 0.0
C169 C 0.72484 0.1976 0.12357 0.0
C170 C 0.73913 0.34543 1.02255 0.0
C171 C 0.85938 0.41822 0.88006 0.0
C172 C 0.7987 0.42249 0.92472 0.0
C173 C 0.80009 0.42441 0.87841 0.0
C174 C 0.83067 0.42228 0.856 0.0
N175 N 0.82687 0.41833 0.94805 0.0
C176 C 0.85693 0.41618 0.92634 0.0
Co177 Co 0.46684 0.79236 0.36736 0.0
Co178 Co 0.41163 0.83626 0.33446 0.0
O179 O 0.45939 0.83088 0.33266 0.0
C180 C 0.46717 0.7707 0.27262 0.0
O181 O 0.44069 0.78214 0.26636 0.0
C182 C 0.47578 0.91318 0.36644 0.0
O183 O 0.48715 0.8933 0.3923 0.0
O184 O 0.40833 0.83144 0.4006 0.0
O185 O 0.44965 0.80928 0.42302 0.0
H186 H 0.27275 0.80136 0.38217 0.0
H187 H 0.53238 0.84912 0.3086 0.0
O188 O 0.48204 0.77318 0.31135 0.0
H189 H 0.58881 0.87857 0.45992 0.0
H190 H 0.53791 0.71737 0.41027 0.0
H191 H 0.42262 0.73647 0.44107 0.0
H192 H 0.51916 0.82482 0.44692 0.0
H193 H 0.52778 0.76614 0.3671 0.0
O194 O 0.44632 0.89519 0.34008 0.0
H195 H 0.33261 0.79366 0.37957 0.0
H196 H 0.39057 0.89382 0.29331 0.0
H197 H 0.43193 0.68797 0.48548 0.0
H198 H 0.60228 0.90295 0.31998 0.0
H199 H 0.48995 0.67808 0.47012 0.0
H200 H 0.63087 0.91799 0.39612 0.0
O201 O 0.41091 0.7499 0.35831 0.0
H202 H 0.4801 0.88964 0.18785 0.0
H203 H 0.35236 0.79719 0.26143 0.0
H204 H 0.35522 0.80137 0.17967 0.0
H205 H 0.41944 0.84785 0.14237 0.0
H206 H 0.47597 0.88433 0.26952 0.0
H207 H 0.33153 0.90299 0.2954 0.0
H208 H 0.27198 0.85642 0.3399 0.0
O209 O 0.3764 0.77748 0.3298 0.0
C210 C 0.42453 0.82128 0.43114 0.0
C211 C 0.29839 0.82168 0.3624 0.0
C212 C 0.33142 0.87878 0.3138 0.0
N213 N 0.36479 0.84283 0.33577 0.0
C214 C 0.33227 0.81729 0.36057 0.0
C215 C 0.36478 0.87346 0.31279 0.0
C216 C 0.29802 0.85263 0.33876 0.0
C217 C 0.54478 0.8553 0.34174 0.0
N218 N 0.52191 0.83373 0.37701 0.0
C219 C 0.5843 0.88589 0.34802 0.0
C220 C 0.6003 0.89435 0.39077 0.0
C221 C 0.57671 0.87226 0.42658 0.0
C222 C 0.5373 0.84192 0.41904 0.0
C223 C 0.51259 0.72146 0.41733 0.0
C224 C 0.44814 0.73265 0.43446 0.0
C225 C 0.50666 0.74895 0.39293 0.0
N226 N 0.47486 0.75438 0.40182 0.0
C227 C 0.45315 0.70496 0.45959 0.0
C228 C 0.48564 0.69941 0.45091 0.0
C229 C 0.37902 0.74743 0.34305 0.0
C230 C 0.45192 0.86935 0.20373 0.0
C231 C 0.38043 0.81744 0.24543 0.0
C232 C 0.38185 0.81973 0.19913 0.0
C233 C 0.41789 0.84585 0.17823 0.0
N234 N 0.41394 0.84062 0.27022 0.0
C235 C 0.44937 0.86635 0.24996 0.0
Co236 Co 0.66469 0.47583 0.70872 0.0
Co237 Co 0.56727 0.40463 0.68311 0.0
O238 O 0.61443 0.45768 0.67658 0.0
C239 C 0.68374 0.4758 0.61226 0.0
O240 O 0.64665 0.44693 0.6072 0.0
C241 C 0.54267 0.46153 0.71354 0.0
O242 O 0.57783 0.48148 0.73269 0.0
O243 O 0.57462 0.40491 0.74872 0.0
O244 O 0.63411 0.45799 0.76679 0.0
H245 H 0.49123 0.26325 0.73982 0.0
H246 H 0.65725 0.53087 0.64562 0.0
O247 O 0.69617 0.49196 0.65052 0.0
H248 H 0.68363 0.59788 0.79138 0.0
H249 H 0.81034 0.57101 0.741 0.0
H250 H 0.69017 0.44504 0.78507 0.0
H251 H 0.68033 0.5324 0.78359 0.0
H252 H 0.74657 0.54677 0.70067 0.0
O253 O 0.53295 0.42941 0.69212 0.0
H254 H 0.55059 0.33011 0.72978 0.0
H255 H 0.48295 0.36627 0.65041 0.0
H256 H 0.75294 0.4687 0.82698 0.0
H257 H 0.66074 0.59656 0.65171 0.0
H258 H 0.81373 0.53193 0.80483 0.0
H259 H 0.6739 0.63043 0.72505 0.0
O260 O 0.66123 0.42293 0.70365 0.0
H261 H 0.55711 0.46176 0.53683 0.0
H262 H 0.5523 0.34531 0.61137 0.0
H263 H 0.54424 0.34435 0.53007 0.0
H264 H 0.54651 0.40283 0.49229 0.0
H265 H 0.56563 0.4617 0.61801 0.0
H266 H 0.42288 0.2995 0.65908 0.0
H267 H 0.42688 0.24739 0.70393 0.0
O268 O 0.60097 0.37962 0.67472 0.0
C269 C 0.60039 0.42742 0.77748 0.0
C270 C 0.48918 0.28554 0.71986 0.0
C271 C 0.45081 0.30596 0.67468 0.0
N272 N 0.5203 0.35194 0.68926 0.0
C273 C 0.52271 0.32347 0.71403 0.0
C274 C 0.48489 0.3437 0.6699 0.0
C275 C 0.45306 0.27673 0.69984 0.0
C276 C 0.66339 0.54564 0.67753 0.0
N277 N 0.66879 0.52797 0.71417 0.0
C278 C 0.6652 0.58276 0.68081 0.0
C279 C 0.67254 0.60172 0.72199 0.0
C280 C 0.67795 0.58345 0.75923 0.0
C281 C 0.67593 0.54633 0.75467 0.0
C282 C 0.78408 0.54337 0.75095 0.0
C283 C 0.71634 0.47281 0.77548 0.0
C284 C 0.74794 0.52943 0.72814 0.0
N285 N 0.71463 0.49465 0.74066 0.0
C286 C 0.75189 0.48593 0.7992 0.0
C287 C 0.78597 0.52144 0.78677 0.0
C288 C 0.63613 0.38907 0.68741 0.0
C289 C 0.55595 0.43605 0.55292 0.0
C290 C 0.55352 0.37095 0.59514 0.0
C291 C 0.5488 0.37017 0.54911 0.0
C292 C 0.55006 0.403 0.52794 0.0
N293 N 0.55935 0.4035 0.6194 0.0
C294 C 0.56056 0.43577 0.5989 0.0
Co295 Co 0.18221 0.67164 0.03233 0.0
Co296 Co 0.15397 0.57541 1.00129 0.0
O297 O 0.14791 0.6227 0.99899 0.0
C298 C 0.19405 0.69319 0.93431 0.0
O299 O 0.16805 0.65594 0.92439 0.0
C300 C 0.07429 0.55065 0.03859 0.0
O301 O 0.08861 0.58709 0.05425 0.0
O302 O 0.16633 0.58275 0.06643 0.0
O303 O 0.16681 0.63885 0.08885 0.0
H304 H 0.22551 0.50027 0.04012 0.0
H305 H 0.12035 0.66973 0.9705 0.0
O306 O 0.20079 0.70468 0.97504 0.0
H307 H 0.08598 0.69813 0.11862 0.0
H308 H 0.24249 0.81823 0.06889 0.0
H309 H 0.2374 0.69148 0.10908 0.0
H310 H 0.14478 0.6894 0.10848 0.0
H311 H 0.19922 0.75601 1.02726 0.0
O312 O 0.09624 0.54094 1.01626 0.0
H313 H 0.21666 0.55935 0.03605 0.0
H314 H 0.1049 0.49051 0.97073 0.0
H315 H 0.28071 0.7528 0.15185 0.0
H316 H 0.06164 0.67857 0.979 0.0
H317 H 0.28355 0.81681 0.13176 0.0
H318 H 0.04399 0.69283 0.05354 0.0
O319 O 0.2295 0.66445 1.02716 0.0
H320 H 0.07271 0.56204 0.86507 0.0
H321 H 0.19214 0.561 0.92258 0.0
H322 H 0.17714 0.55127 0.84247 0.0
H323 H 0.11698 0.55163 0.81325 0.0
H324 H 0.08921 0.57231 0.94485 0.0
H325 H 0.11256 0.43055 0.974 0.0
H326 H 0.17335 0.43526 1.00871 0.0
O327 O 0.21123 0.6092 0.98669 0.0
C328 C 0.16686 0.60608 0.09704 0.0
C329 C 0.19901 0.49784 1.02467 0.0
C330 C 0.13556 0.45871 0.9877 0.0
N331 N 0.16032 0.52843 1.00318 0.0
C332 C 0.19383 0.53124 1.02227 0.0
C333 C 0.13133 0.49274 0.98606 0.0
C334 C 0.16967 0.46137 1.00716 0.0
C335 C 0.11338 0.67648 1.00288 0.0
N336 N 0.13648 0.67968 0.03877 0.0
C337 C 0.07985 0.68121 1.00757 0.0
C338 C 0.06992 0.68914 0.04941 0.0
C339 C 0.09345 0.69211 0.08593 0.0
C340 C 0.12672 0.68714 0.07997 0.0
C341 C 0.24149 0.79052 0.07799 0.0
C342 C 0.2382 0.71912 0.10035 0.0
C343 C 0.21713 0.75525 0.05448 0.0
N344 N 0.21561 0.72014 0.06591 0.0
C345 C 0.26291 0.7538 0.12459 0.0
C346 C 0.2645 0.7897 0.11328 0.0
C347 C 0.23763 0.64138 1.00487 0.0
C348 C 0.09898 0.56175 0.87742 0.0
C349 C 0.16611 0.56156 0.91008 0.0
C350 C 0.15766 0.55584 0.86471 0.0
C351 C 0.12387 0.55598 0.84835 0.0
N352 N 0.14158 0.56725 0.93839 0.0
C353 C 0.10834 0.56733 0.92261 0.0
Co354 Co 0.79449 0.47715 0.36272 0.0
Co355 Co 0.81191 0.39963 0.38863 0.0
O356 O 0.82181 0.45417 0.39603 0.0
C357 C 0.77087 0.47432 0.45735 0.0
O358 O 0.7723 0.44106 0.45961 0.0
C359 C 0.89522 0.44946 0.36115 0.0
O360 O 0.88353 0.47066 0.33806 0.0
O361 O 0.80966 0.40301 0.32277 0.0
O362 O 0.80712 0.4585 0.3049 0.0
H363 H 0.74916 0.26371 0.3174 0.0
H364 H 0.85618 0.52667 0.42935 0.0
O365 O 0.77932 0.49394 0.42076 0.0
H366 H 0.90731 0.59618 0.28646 0.0
H367 H 0.7577 0.583 0.3294 0.0
H368 H 0.74086 0.45218 0.28408 0.0
H369 H 0.84172 0.53404 0.29062 0.0
H370 H 0.79116 0.55259 0.37096 0.0
O371 O 0.8706 0.42031 0.38499 0.0
H372 H 0.75533 0.32916 0.33511 0.0
H373 H 0.84997 0.35472 0.42527 0.0
H374 H 0.7072 0.48162 0.24135 0.0
H375 H 0.92176 0.58895 0.4269 0.0
H376 H 0.71551 0.5475 0.26397 0.0
H377 H 0.94777 0.62404 0.35501 0.0
O378 O 0.74259 0.42678 0.36449 0.0
H379 H 0.86986 0.44748 0.54077 0.0
H380 H 0.75887 0.33982 0.45572 0.0
H381 H 0.75869 0.336 0.53744 0.0
H382 H 0.81469 0.38984 0.58052 0.0
H383 H 0.86807 0.45088 0.45906 0.0
H384 H 0.84431 0.28917 0.40917 0.0
H385 H 0.7946 0.24381 0.35381 0.0
O386 O 0.75349 0.37838 0.39131 0.0
C387 C 0.80883 0.42699 0.29412 0.0
C388 C 0.77114 0.28335 0.34141 0.0
C389 C 0.82455 0.29764 0.39291 0.0
N390 N 0.80298 0.34572 0.38118 0.0
C391 C 0.7746 0.32034 0.35178 0.0
C392 C 0.82748 0.33462 0.40205 0.0
C393 C 0.79654 0.27214 0.36193 0.0
C394 C 0.86717 0.54201 0.39805 0.0
N395 N 0.84516 0.52689 0.36019 0.0
C396 C 0.90437 0.57716 0.39682 0.0
C397 C 0.91897 0.59681 0.35647 0.0
C398 C 0.8963 0.58118 0.31799 0.0
C399 C 0.85925 0.54595 0.32049 0.0
C400 C 0.7539 0.55431 0.31918 0.0
C401 C 0.74485 0.48098 0.29396 0.0
C402 C 0.77269 0.53692 0.34264 0.0
N403 N 0.7682 0.50082 0.32976 0.0
C404 C 0.7256 0.49744 0.26972 0.0
C405 C 0.73025 0.53438 0.28246 0.0
C406 C 0.73071 0.39144 0.37814 0.0
C407 C 0.84545 0.42366 0.52236 0.0
C408 C 0.78324 0.36349 0.47425 0.0
C409 C 0.78308 0.36105 0.5205 0.0
C410 C 0.81447 0.39133 0.54465 0.0
N411 N 0.81358 0.39544 0.45266 0.0
C412 C 0.84442 0.4253 0.47608 0.0
Co413 Co 0.31395 0.80008 0.68743 0.0
Co414 Co 0.41173 0.82474 0.71113 0.0
O415 O 0.36376 0.82879 0.72114 0.0
C416 C 0.2936 0.77367 0.78119 0.0
O417 O 0.32763 0.77361 0.78183 0.0
C418 C 0.43565 0.90851 0.696 0.0
O419 O 0.40196 0.89492 0.67398 0.0
O420 O 0.4074 0.82771 0.64583 0.0
O421 O 0.345 0.8148 0.62926 0.0
H422 H 0.49385 0.77123 0.63975 0.0
H423 H 0.32208 0.85971 0.7552 0.0
O424 O 0.2824 0.78337 0.74546 0.0
H425 H 0.29847 0.90893 0.61366 0.0
H426 H 0.1694 0.75567 0.65539 0.0
H427 H 0.28764 0.74707 0.60817 0.0
H428 H 0.30084 0.846 0.61632 0.0
H429 H 0.23314 0.79191 0.69657 0.0
O430 O 0.44511 0.88433 0.71371 0.0
H431 H 0.43298 0.77562 0.65295 0.0
H432 H 0.49409 0.86674 0.74938 0.0
H433 H 0.22467 0.71069 0.5658 0.0
H434 H 0.31922 0.92243 0.75429 0.0
H435 H 0.16496 0.71483 0.58938 0.0
H436 H 0.30743 0.94745 0.68311 0.0
O437 O 0.31588 0.74974 0.68826 0.0
H438 H 0.41738 0.8682 0.86988 0.0
H439 H 0.42119 0.7683 0.77025 0.0
H440 H 0.42504 0.76147 0.85084 0.0
H441 H 0.42409 0.81216 0.90153 0.0
H442 H 0.4115 0.8727 0.78873 0.0
H443 H 0.55569 0.86316 0.73751 0.0
H444 H 0.55577 0.81504 0.68242 0.0
O445 O 0.37894 0.7657 0.70671 0.0
C446 C 0.38045 0.82278 0.61789 0.0
C447 C 0.49418 0.79224 0.66394 0.0
C448 C 0.52888 0.84386 0.71875 0.0
N449 N 0.45989 0.82135 0.7019 0.0
C450 C 0.45974 0.79481 0.67159 0.0
C451 C 0.49393 0.8458 0.72528 0.0
C452 C 0.52892 0.81687 0.68784 0.0
C453 C 0.31656 0.87024 0.7242 0.0
N454 N 0.31146 0.84919 0.68587 0.0
C455 C 0.31508 0.90581 0.72386 0.0
C456 C 0.30852 0.91986 0.68389 0.0
C457 C 0.30356 0.89831 0.6449 0.0
C458 C 0.30513 0.86282 0.64654 0.0
C459 C 0.19524 0.7537 0.64474 0.0
C460 C 0.26189 0.74929 0.61844 0.0
C461 C 0.23136 0.77408 0.66797 0.0
N462 N 0.26414 0.77188 0.65455 0.0
C463 C 0.22627 0.7285 0.5944 0.0
C464 C 0.19277 0.7308 0.60769 0.0
C465 C 0.34293 0.74083 0.69601 0.0
C466 C 0.41829 0.84619 0.84821 0.0
C467 C 0.42005 0.79013 0.79194 0.0
C468 C 0.42264 0.78633 0.83768 0.0
C469 C 0.422 0.8147 0.86597 0.0
N470 N 0.41631 0.82099 0.77478 0.0
C471 C 0.41517 0.8487 0.80225 0.0
Co472 Co 0.50575 0.31188 0.0291 0.0
Co473 Co 0.57338 0.40879 0.06076 0.0
O474 O 0.52107 0.36048 0.06352 0.0
C475 C 0.5042 0.29007 0.1245 0.0
O476 O 0.53376 0.32674 0.13008 0.0
C477 C 0.51781 0.43369 1.02786 0.0
O478 O 0.50151 0.40103 1.00364 0.0
O479 O 0.5755 0.40482 0.99477 0.0
O480 O 0.52532 0.34488 0.97256 0.0
H481 H 0.7158 0.49206 1.00959 0.0
H482 H 0.44683 0.31432 0.09067 0.0
O483 O 0.48824 0.27844 0.08601 0.0
H484 H 0.38649 0.29368 0.94171 0.0
H485 H 0.41457 0.16686 0.98997 0.0
H486 H 0.53976 0.29049 0.95201 0.0
H487 H 0.45253 0.2988 0.95179 0.0
H488 H 0.43641 0.22886 0.03325 0.0
O489 O 0.54684 0.44164 0.05387 0.0
H490 H 0.65033 0.43044 1.01654 0.0
H491 H 0.60773 0.49129 0.09843 0.0
H492 H 0.5182 0.22966 0.90689 0.0
H493 H 0.38059 0.30905 0.08222 0.0
H494 H 0.45553 0.16709 0.92605 0.0
H495 H 0.35005 0.29875 1.00727 0.0
O496 O 0.55912 0.31676 0.03557 0.0
H497 H 0.50995 0.40817 0.20694 0.0
H498 H 0.63111 0.42266 0.13375 0.0
H499 H 0.62927 0.42636 0.21541 0.0
H500 H 0.56834 0.41912 0.25252 0.0
H501 H 0.51294 0.40421 0.12536 0.0
H502 H 0.67324 0.55347 0.09324 0.0
H503 H 0.72786 0.55407 0.04858 0.0
O504 O 0.60008 0.37652 0.06717 0.0
C505 C 0.55524 0.37984 0.96421 0.0
C506 C 0.69247 0.49208 0.02963 0.0
C507 C 0.66846 0.52658 0.07633 0.0
N508 N 0.6253 0.45722 0.05803 0.0
C509 C 0.65529 0.45725 0.03369 0.0
C510 C 0.63144 0.49131 0.07914 0.0
C511 C 0.69911 0.5269 0.0513 0.0
C512 C 0.43353 0.30945 0.05805 0.0
N513 N 0.45331 0.30655 1.02182 0.0
C514 C 0.39611 0.30666 0.05342 0.0
C515 C 0.37902 0.30093 1.01135 0.0
C516 C 0.39945 0.2981 0.97455 0.0
C517 C 0.43684 0.30107 0.98044 0.0
C518 C 0.44206 0.19388 0.98138 0.0
C519 C 0.51219 0.26355 0.96031 0.0
C520 C 0.45469 0.22902 1.0059 0.0
N521 N 0.48927 0.26329 0.99509 0.0
C522 C 0.5003 0.22908 0.93481 0.0
C523 C 0.46504 0.19403 0.94552 0.0
C524 C 0.59235 0.34232 0.05266 0.0
C525 C 0.53668 0.41144 0.19115 0.0
C526 C 0.60445 0.41932 0.14968 0.0
C527 C 0.60362 0.42156 0.19592 0.0
C528 C 0.56944 0.41753 0.21671 0.0
N529 N 0.57217 0.41325 0.12484 0.0
C530 C 0.53861 0.4094 0.14497 0.0
Co531 Co 0.18725 0.51227 0.35112 0.0
Co532 Co 0.1404 0.56672 0.37522 0.0
O533 O 0.14697 0.51989 0.38167 0.0
C534 C 0.20332 0.50967 0.44686 0.0
O535 O 0.19548 0.53899 0.45123 0.0
C536 C 0.06196 0.49984 0.35085 0.0
O537 O 0.07988 0.48916 0.32122 0.0
O538 O 0.1418 0.5639 0.30921 0.0
O539 O 0.17655 0.53259 0.29341 0.0
H540 H 0.16708 0.69833 0.31066 0.0
H541 H 0.12417 0.44538 0.40326 0.0
O542 O 0.20036 0.49375 0.40868 0.0
H543 H 0.1074 0.39498 0.24961 0.0
H544 H 0.26286 0.43967 0.31838 0.0
H545 H 0.25306 0.56055 0.28828 0.0
H546 H 0.1612 0.4633 0.26843 0.0
H547 H 0.20881 0.44782 0.35198 0.0
O548 O 0.08159 0.53054 0.37517 0.0
H549 H 0.17704 0.64013 0.31941 0.0
H550 H 0.08483 0.59044 0.4164 0.0
H551 H 0.30855 0.55464 0.25594 0.0
H552 H 0.0701 0.37671 0.38606 0.0
H553 H 0.31327 0.49331 0.27 0.0
H554 H 0.06145 0.35117 0.30872 0.0
O555 O 0.22954 0.56725 0.36507 0.0
H556 H 0.09736 0.51238 0.52957 0.0
H557 H 0.18269 0.63299 0.44064 0.0
H558 H 0.18351 0.63804 0.52233 0.0
H559 H 0.14056 0.57745 0.56735 0.0
H560 H 0.09794 0.50858 0.44785 0.0
H561 H 0.07352 0.64789 0.40836 0.0
H562 H 0.11499 0.70248 0.35537 0.0
O563 O 0.19905 0.60353 0.37447 0.0
C564 C 0.1591 0.55221 0.28162 0.0
C565 C 0.14903 0.6749 0.33412 0.0
C566 C 0.09649 0.64656 0.38891 0.0
N567 N 0.13217 0.61235 0.36907 0.0
C568 C 0.15472 0.64199 0.33943 0.0
C569 C 0.10303 0.61411 0.39332 0.0
C570 C 0.11976 0.67718 0.35916 0.0
C571 C 0.12072 0.43429 0.36962 0.0
N572 N 0.14585 0.45814 0.33692 0.0
C573 C 0.09 0.39547 0.36004 0.0
C574 C 0.08513 0.38118 0.31663 0.0
C575 C 0.11088 0.40575 0.28344 0.0
C576 C 0.14122 0.44442 0.29424 0.0
C577 C 0.26083 0.46622 0.31145 0.0
C578 C 0.25488 0.53383 0.29464 0.0
C579 C 0.23019 0.47089 0.3302 0.0
N580 N 0.22747 0.50433 0.32153 0.0
C581 C 0.28633 0.53055 0.27605 0.0
C582 C 0.28912 0.49636 0.2843 0.0
C583 C 0.23027 0.60032 0.37063 0.0
C584 C 0.11607 0.53903 0.51031 0.0
C585 C 0.164 0.60646 0.46001 0.0
C586 C 0.16452 0.60953 0.50625 0.0
C587 C 0.14038 0.57553 0.53149 0.0
N588 N 0.14001 0.57057 0.43947 0.0
C589 C 0.11629 0.53711 0.46401 0.0
Co590 Co 0.66886 0.18671 0.69533 0.0
Co591 Co 0.57255 0.16172 0.72571 0.0
O592 O 0.62035 0.15683 0.73074 0.0
C593 C 0.69129 0.21127 0.78934 0.0
O594 O 0.65605 0.20841 0.79278 0.0
C595 C 0.54713 0.07847 0.70347 0.0
O596 O 0.58137 0.09213 0.68258 0.0
O597 O 0.57531 0.16236 0.65985 0.0
O598 O 0.63559 0.1721 0.63871 0.0
H599 H 0.48934 0.21815 0.66496 0.0
H600 H 0.66422 0.12692 0.76074 0.0
O601 O 0.70238 0.20359 0.75217 0.0
H602 H 0.68118 0.07859 0.61504 0.0
H603 H 0.81254 0.23309 0.65645 0.0
H604 H 0.6918 0.23986 0.61632 0.0
H605 H 0.67939 0.14172 0.6211 0.0
H606 H 0.75038 0.19634 0.70021 0.0
O607 O 0.53855 0.10223 0.72386 0.0
H608 H 0.55047 0.21337 0.67376 0.0
H609 H 0.4914 0.11895 0.76698 0.0
H610 H 0.75295 0.27616 0.57099 0.0
H611 H 0.6661 0.06378 0.75629 0.0
H612 H 0.81398 0.27321 0.59115 0.0
H613 H 0.6745 0.03918 0.68299 0.0
O614 O 0.66618 0.2366 0.69843 0.0
H615 H 0.5752 0.10998 0.87804 0.0
H616 H 0.56467 0.21406 0.79334 0.0
H617 H 0.56642 0.21692 0.87511 0.0
H618 H 0.57108 0.16434 0.91807 0.0
H619 H 0.57521 0.10923 0.79615 0.0
H620 H 0.4296 0.12291 0.75949 0.0
H621 H 0.42834 0.17284 0.70818 0.0
O622 O 0.60563 0.2209 0.72592 0.0
C623 C 0.60023 0.16593 0.62982 0.0
C624 C 0.48957 0.19647 0.68766 0.0
C625 C 0.45603 0.14295 0.74063 0.0
N626 N 0.52461 0.16611 0.72108 0.0
C627 C 0.52417 0.19371 0.69289 0.0
C628 C 0.49111 0.14086 0.74475 0.0
C629 C 0.45534 0.17095 0.71183 0.0
C630 C 0.66834 0.11661 0.72882 0.0
N631 N 0.672 0.13806 0.69127 0.0
C632 C 0.66919 0.08076 0.72646 0.0
C633 C 0.67384 0.06695 0.68532 0.0
C634 C 0.67757 0.08903 0.64717 0.0
C635 C 0.67651 0.12471 0.65079 0.0
C636 C 0.78614 0.23466 0.64734 0.0
C637 C 0.71809 0.23803 0.62502 0.0
C638 C 0.75093 0.21402 0.67208 0.0
N639 N 0.71744 0.21572 0.66062 0.0
C640 C 0.75271 0.25887 0.59939 0.0
C641 C 0.78693 0.25715 0.61071 0.0
C642 C 0.64052 0.24577 0.7119 0.0
C643 C 0.57273 0.13285 0.85971 0.0
C644 C 0.56694 0.19116 0.81176 0.0
C645 C 0.56763 0.1928 0.85809 0.0
C646 C 0.57045 0.16338 0.88215 0.0
N647 N 0.56962 0.16137 0.79 0.0
C648 C 0.5724 0.1324 0.81334 0.0
Co649 Co 0.46641 0.66422 1.02192 0.0
Co650 Co 0.39674 0.56478 0.04206 0.0
O651 O 0.44795 0.61321 0.05216 0.0
C652 C 0.46295 0.68044 0.1176 0.0
O653 O 0.4299 0.64559 0.11815 0.0
C654 C 0.45608 0.54199 1.01869 0.0
O655 O 0.47272 0.57399 0.99344 0.0
O656 O 0.40272 0.57134 0.97678 0.0
O657 O 0.44808 0.63574 0.96234 0.0
H658 H 0.26154 0.48082 0.9714 0.0
H659 H 0.52157 0.65475 0.08288 0.0
O660 O 0.48284 0.69335 0.0814 0.0
H661 H 0.58683 0.68342 0.93605 0.0
H662 H 0.56318 0.81053 0.99562 0.0
H663 H 0.43457 0.69393 0.95069 0.0
H664 H 0.52185 0.68072 0.94588 0.0
H665 H 0.53894 0.74467 0.03132 0.0
O666 O 0.42502 0.53334 0.04153 0.0
H667 H 0.32577 0.54259 0.98489 0.0
H668 H 0.35947 0.48148 0.07745 0.0
H669 H 0.45761 0.75921 0.9144 0.0
H670 H 0.58672 0.65748 0.07469 0.0
H671 H 0.52235 0.81805 0.93655 0.0
H672 H 0.61971 0.67181 1.0008 0.0
O673 O 0.41387 0.66082 0.02821 0.0
H674 H 0.43985 0.55869 0.19807 0.0
H675 H 0.3303 0.54849 0.10398 0.0
H676 H 0.3205 0.53972 0.18459 0.0
H677 H 0.37581 0.5454 0.23263 0.0
H678 H 0.44826 0.56704 0.11683 0.0
H679 H 0.2955 0.41894 0.06501 0.0
H680 H 0.24591 0.41842 1.01182 0.0
O681 O 0.36843 0.59595 0.0412 0.0
C682 C 0.42223 0.60007 0.94971 0.0
C683 C 0.28279 0.48071 0.99485 0.0
C684 C 0.30188 0.44597 0.04733 0.0
N685 N 0.34619 0.5158 0.03228 0.0
C686 C 0.31918 0.51567 1.00274 0.0
C687 C 0.33807 0.48146 0.0542 0.0
C688 C 0.27407 0.4457 1.01748 0.0
C689 C 0.53597 0.66137 0.05075 0.0
N690 N 0.51815 0.66783 1.01497 0.0
C691 C 0.57275 0.66271 0.04626 0.0
C692 C 0.59122 0.6707 1.00477 0.0
C693 C 0.57278 0.6772 0.96842 0.0
C694 C 0.53597 0.67556 0.97416 0.0
C695 C 0.535 0.78507 0.98544 0.0
C696 C 0.46295 0.71932 0.96036 0.0
C697 C 0.52114 0.74772 1.0055 0.0
N698 N 0.48565 0.71541 0.99266 0.0
C699 C 0.47579 0.75623 0.93972 0.0
C700 C 0.51209 0.78927 0.9523 0.0
C701 C 0.37839 0.63245 0.03462 0.0
C702 C 0.41561 0.55626 0.17764 0.0
C703 C 0.35444 0.55087 0.1245 0.0
C704 C 0.34875 0.5459 0.17027 0.0
C705 C 0.37965 0.54882 0.19702 0.0
N706 N 0.38974 0.5581 0.10575 0.0
C707 C 0.42016 0.56085 0.13164 0.0
C708 C 0.60373 0.17496 0.50299 0.0
C709 C 0.56504 0.16771 0.49141 0.0
C710 C 0.61462 0.17354 0.5473 0.0
C711 C 0.58729 0.16449 0.5824 0.0
H712 H 0.62628 0.18236 0.47762 0.0
H713 H 0.64496 0.18015 0.554 0.0
S714 S 0.48127 0.14089 0.57015 0.0
N715 N 0.49904 0.15007 0.51906 0.0
N716 N 0.51868 0.14641 0.60176 0.0
C717 C 0.54814 0.15638 0.57118 0.0
C718 C 0.53728 0.1583 0.52603 0.0
C719 C 0.37149 0.54117 0.84406 0.0
C720 C 0.38771 0.57 0.81017 0.0
C721 C 0.38362 0.55116 0.88847 0.0
C722 C 0.41239 0.59062 0.90142 0.0
H723 H 0.34953 0.5104 0.83624 0.0
H724 H 0.36988 0.52745 0.91288 0.0
S725 S 0.46255 0.67808 0.82571 0.0
N726 N 0.43321 0.64031 0.79293 0.0
N727 N 0.45584 0.65892 0.87606 0.0
C728 C 0.42861 0.61987 0.86786 0.0
C729 C 0.41633 0.60963 0.8225 0.0
C730 C 0.80516 0.37912 0.2344 0.0
C731 C 0.81115 0.41736 0.24629 0.0
C732 C 0.80727 0.36874 0.19004 0.0
C733 C 0.81571 0.39614 0.1552 0.0
H734 H 0.79834 0.35654 0.25957 0.0
H735 H 0.80179 0.33878 0.1831 0.0
S736 S 0.83493 0.50081 0.16814 0.0
N737 N 0.82623 0.48279 0.2191 0.0
N738 N 0.83114 0.46414 0.13631 0.0
C739 C 0.82221 0.43475 0.16668 0.0
C740 C 0.81964 0.44508 0.21188 0.0
C741 C 0.43337 0.81657 0.51339 0.0
C742 C 0.41347 0.82366 0.47843 0.0
C743 C 0.42278 0.81715 0.55788 0.0
C744 C 0.39131 0.8242 0.56992 0.0
H745 H 0.45734 0.8103 0.50651 0.0
H746 H 0.43918 0.81119 0.58302 0.0
S747 S 0.33009 0.8458 0.49173 0.0
N748 N 0.36126 0.83955 0.4595 0.0
N749 N 0.34092 0.83933 0.54298 0.0
C750 C 0.37121 0.83156 0.53551 0.0
C751 C 0.38242 0.83168 0.48999 0.0
C752 C 0.54517 0.36774 0.88134 0.0
C753 C 0.56698 0.39305 0.91686 0.0
C754 C 0.55611 0.37929 0.83686 0.0
C755 C 0.58965 0.41667 0.82545 0.0
H756 H 0.51936 0.33857 0.88779 0.0
H757 H 0.53808 0.3583 0.81118 0.0
S758 S 0.65702 0.4947 0.9055 0.0
N759 N 0.62385 0.45811 0.93697 0.0
N760 N 0.64441 0.47906 0.85391 0.0
C761 C 0.61177 0.44233 0.86055 0.0
C762 C 0.60045 0.43077 0.90591 0.0
C763 C 0.14476 0.5893 0.22148 0.0
C764 C 0.16062 0.56446 0.23391 0.0
C765 C 0.14767 0.60342 0.17771 0.0
C766 C 0.16619 0.59306 0.14403 0.0
H767 H 0.13006 0.59832 0.24584 0.0
H768 H 0.13466 0.62205 0.17009 0.0
S769 S 0.21455 0.5307 0.15847 0.0
N770 N 0.19689 0.53142 0.20819 0.0
N771 N 0.2022 0.55769 0.12652 0.0
C772 C 0.18249 0.56858 0.15589 0.0
C773 C 0.17974 0.55437 0.20049 0.0
C774 C 0.66281 0.34434 0.40512 0.0
C775 C 0.68954 0.36158 0.36968 0.0
C776 C 0.62714 0.30819 0.39913 0.0
C777 C 0.6185 0.28836 0.35799 0.0
H778 H 0.67079 0.35737 0.43805 0.0
H779 H 0.60822 0.2939 0.42772 0.0
S780 S 0.67771 0.32375 0.25452 0.0
N781 N 0.70383 0.35891 0.29158 0.0
N782 N 0.63716 0.28992 0.28069 0.0
C783 C 0.64369 0.30687 0.32169 0.0
C784 C 0.67938 0.34395 0.32752 0.0
C785 C 0.31687 0.67018 0.71715 0.0
C786 C 0.33424 0.70061 0.68541 0.0
C787 C 0.31577 0.63374 0.71011 0.0
C788 C 0.33263 0.62747 0.67152 0.0
H789 H 0.30623 0.6754 0.7484 0.0
H790 H 0.30442 0.61168 0.73648 0.0
S791 S 0.37597 0.69662 0.57601 0.0
N792 N 0.36386 0.72118 0.61216 0.0
N793 N 0.36272 0.65282 0.59917 0.0
C794 C 0.34738 0.65683 0.63826 0.0
C795 C 0.348 0.69356 0.64523 0.0
C796 C 0.63244 0.32056 1.00893 0.0
C797 C 0.62585 0.33486 0.04933 0.0
C798 C 0.66907 0.32249 1.00047 0.0
C799 C 0.69927 0.33798 0.03263 0.0
H800 H 0.61035 0.31053 0.9826 0.0
H801 H 0.67438 0.31342 0.96827 0.0
S802 S 0.69506 0.37444 0.14519 0.0
N803 N 0.65115 0.36177 0.1228 0.0
N804 N 0.7197 0.3642 0.10728 0.0
C805 C 0.69207 0.34962 0.07413 0.0
C806 C 0.65524 0.34831 0.08246 0.0
C807 C 0.30496 0.70755 0.3442 0.0
C808 C 0.34189 0.70857 0.34661 0.0
C809 C 0.26939 0.6729 0.35437 0.0
C810 C 0.26902 0.63736 0.36603 0.0
H811 H 0.30327 0.73392 0.33529 0.0
H812 H 0.24194 0.67406 0.35217 0.0
S813 S 0.35746 0.62316 0.37458 0.0
N814 N 0.37607 0.67051 0.36003 0.0
N815 N 0.30861 0.60472 0.3785 0.0
C816 C 0.30562 0.63747 0.36766 0.0
C817 C 0.34213 0.67312 0.35782 0.0
C818 C 0.66132 0.35075 0.72872 0.0
C819 C 0.64592 0.35707 0.68908 0.0
C820 C 0.66188 0.31509 0.73549 0.0
C821 C 0.648 0.28575 0.70228 0.0
H822 H 0.67009 0.37203 0.75584 0.0
H823 H 0.67123 0.30957 0.76739 0.0
S824 S 0.61008 0.29035 0.59081 0.0
N825 N 0.62002 0.33292 0.61501 0.0
N826 N 0.62232 0.26623 0.62731 0.0
C827 C 0.63556 0.29303 0.66138 0.0
C828 C 0.63424 0.32881 0.6548 0.0
C829 C 0.29926 0.66123 0.04828 0.0
C830 C 0.27809 0.64736 1.00799 0.0
C831 C 0.33309 0.65774 0.05663 0.0
C832 C 0.34641 0.64062 1.02474 0.0
H833 H 0.28813 0.67226 0.07464 0.0
H834 H 0.34775 0.66674 0.08867 0.0
S835 S 0.306 0.60627 0.91173 0.0
N836 N 0.27586 0.62045 0.93422 0.0
N837 N 0.34003 0.61449 0.94993 0.0
C838 C 0.32759 0.6296 0.98326 0.0
C839 C 0.29317 0.63289 0.9748 0.0
C840 C 0.5201 0.02139 0.33591 0.0
C841 C 0.51876 0.03877 0.37647 0.0
C842 C 0.50708 0.9805 0.33315 0.0
C843 C 0.49376 0.95634 0.37114 0.0
H844 H 0.52998 0.03922 0.30587 0.0
H845 H 0.50694 0.96758 0.3011 0.0
S846 S 0.48636 0.98778 0.48533 0.0
N847 N 0.50391 0.02918 0.45548 0.0
N848 N 0.48069 0.95212 0.45043 0.0
C849 C 0.49356 0.97349 0.41213 0.0
C850 C 0.50576 0.01491 0.41476 0.0
C851 C 0.4462 0.46459 0.71085 0.0
C852 C 0.45983 0.50592 0.71004 0.0
C853 C 0.47334 0.45045 0.71253 0.0
C854 C 0.51484 0.47721 0.71458 0.0
H855 H 0.41446 0.44305 0.70866 0.0
H856 H 0.46176 0.41834 0.71197 0.0
S857 S 0.56536 0.5883 0.71616 0.0
N858 N 0.51712 0.57348 0.71306 0.0
N859 N 0.56821 0.54685 0.71733 0.0
C860 C 0.52874 0.5186 0.71541 0.0
C861 C 0.50116 0.533 0.71279 0.0
C862 C 0.96246 0.50764 0.03962 0.0
C863 C 0.94815 0.46618 0.04191 0.0
C864 C 0.00355 0.53505 0.04046 0.0
C865 C 0.03147 0.5217 0.04258 0.0
H866 H 0.94178 0.51899 0.03714 0.0
H867 H 0.0135 0.56677 0.03792 0.0
S868 S 0.00927 0.41635 0.0502 0.0
N869 N 0.96488 0.41311 0.04777 0.0
N870 N 0.04234 0.46473 0.04829 0.0
C871 C 0.01758 0.4804 0.04547 0.0
C872 C 0.97577 0.45255 0.04546 0.0
C873 C -0.00223 0.48196 0.31466 0.0
C874 C 0.01848 0.48043 0.3522 0.0
C875 C 0.9575 0.47156 0.3178 0.0
C876 C 0.93685 0.45857 0.35831 0.0
H877 H 0.01332 0.49329 0.28341 0.0
H878 H 0.94257 0.47411 0.28852 0.0
S879 S 0.97769 0.44714 0.46525 0.0
N880 N 0.01579 0.46399 0.43036 0.0
N881 N 0.93941 0.44281 0.43602 0.0
C882 C 0.95685 0.45512 0.39551 0.0
C883 C -0.002 0.46656 0.39251 0.0
C884 C 0.53185 0.00772 0.70274 0.0
C885 C 0.51817 0.03543 0.70266 0.0
C886 C 0.50478 0.9665 0.70153 0.0
C887 C 0.4633 0.95186 0.69904 0.0
H888 H 0.56365 0.01794 0.70412 0.0
H889 H 0.51647 0.94603 0.70162 0.0
S890 S 0.41253 0.01238 0.69753 0.0
N891 N 0.46076 0.04574 0.70027 0.0
N892 N 0.4098 0.96814 0.69684 0.0
C893 C 0.44929 0.97932 0.69878 0.0
C894 C 0.47679 0.02122 0.70095 0.0
C895 C 0.47804 0.50147 0.06141 0.0
C896 C 0.47291 0.51541 1.02025 0.0
C897 C 0.49342 0.47539 0.06368 0.0
C898 C 0.50265 0.46157 1.02477 0.0
H899 H 0.47048 0.5111 0.09196 0.0
H900 H 0.49735 0.46533 0.09592 0.0
S901 S 0.49419 0.48904 0.90911 0.0
N902 N 0.47867 0.51423 0.93995 0.0
N903 N 0.50603 0.46357 0.94419 0.0
C904 C 0.49739 0.47504 0.98346 0.0
C905 C 0.4829 0.50251 0.9812 0.0
C906 C 0.49013 0.25369 0.24381 0.0
C907 C 0.49333 0.21892 0.24042 0.0
C908 C 0.49081 0.27517 0.20561 0.0
C909 C 0.49351 0.26204 0.16263 0.0
H910 H 0.49037 0.26615 0.27617 0.0
H911 H 0.49125 0.30338 0.20984 0.0
S912 S 0.4991 0.17089 0.13587 0.0
N913 N 0.49713 0.17117 0.19066 0.0
N914 N 0.49676 0.21059 0.11913 0.0
C915 C 0.49377 0.22578 0.15878 0.0
C916 C 0.49414 0.20451 0.19763 0.0
C917 C 0.20695 0.49984 0.52867 0.0
C918 C 0.22092 0.49977 0.48538 0.0
C919 C 0.22767 0.49818 0.56642 0.0
C920 C 0.26377 0.49759 0.56219 0.0
H921 H 0.18063 0.50283 0.53341 0.0
H922 H 0.21694 0.50034 0.59901 0.0
S923 S 0.31223 0.49523 0.4565 0.0
N924 N 0.27181 0.49657 0.44073 0.0
N925 N 0.31147 0.49496 0.51134 0.0
C926 C 0.27709 0.49578 0.51912 0.0
C927 C 0.25549 0.49646 0.48079 0.0
C928 C 0.72412 0.23251 0.9097 0.0
C929 C 0.76038 0.26904 0.90699 0.0
C930 C 0.70323 0.21226 0.87102 0.0
C931 C 0.7184 0.22715 0.82832 0.0
H932 H 0.71023 0.22121 0.94172 0.0
H933 H 0.67394 0.18582 0.87454 0.0
S934 S 0.81386 0.31977 0.80351 0.0
N935 N 0.81164 0.31808 0.85831 0.0
N936 N 0.77319 0.27921 0.78593 0.0
C937 C 0.756 0.26203 0.8253 0.0
C938 C 0.77674 0.28319 0.86458 0.0
C939 C 0.48174 0.74605 0.15442 0.0
C940 C 0.47318 0.70608 0.15788 0.0
C941 C 0.48216 0.76778 0.19231 0.0
C942 C 0.47541 0.75081 0.23511 0.0
H943 H 0.48525 0.75965 0.12203 0.0
H944 H 0.48614 0.79752 0.18791 0.0
S945 S 0.45497 0.64841 0.26237 0.0
N946 N 0.45983 0.65118 0.20778 0.0
N947 N 0.46224 0.69255 0.27883 0.0
C948 C 0.4695 0.71188 0.23925 0.0
C949 C 0.46796 0.68939 0.20066 0.0
C950 C 0.69859 0.48793 0.53088 0.0
C951 C 0.71149 0.4854 0.57399 0.0
C952 C 0.72029 0.48851 0.49289 0.0
C953 C 0.75503 0.48535 0.49663 0.0
H954 H 0.67052 0.48767 0.52641 0.0
H955 H 0.70811 0.48831 0.46041 0.0
S956 S 0.80228 0.47958 0.60163 0.0
N957 N 0.76258 0.48208 0.61798 0.0
N958 N 0.80231 0.48142 0.54683 0.0
C959 C 0.76909 0.48448 0.53954 0.0
C960 C 0.74763 0.48499 0.57817 0.0
C961 C 0.2019 0.71465 0.85446 0.0
C962 C 0.2185 0.72008 0.89743 0.0
C963 C 0.22585 0.7343 0.81722 0.0
C964 C 0.26753 0.75929 0.82134 0.0
H965 H 0.17028 0.69394 0.84932 0.0
H966 H 0.21196 0.72797 0.78472 0.0
S967 S 0.32549 0.78564 0.92658 0.0
N968 N 0.27889 0.75454 0.94202 0.0
N969 N 0.32394 0.79048 0.87225 0.0
C970 C 0.2842 0.76628 0.86433 0.0
C971 C 0.2597 0.74699 0.90231 0.0
loop_
_geom_bond_atom_site_label_1
_geom_bond_atom_site_label_2
_geom_bond_distance
_geom_bond_site_symmetry_2
_ccdc_geom_bond_type
Co0 O2 2.143 . S
Co0 O8 2.074 . S
Co0 O11 2.093 . S
Co0 O24 2.097 . S
Co0 N41 2.151 . S
Co0 N49 2.214 . S
Co1 O2 2.160 . S
Co1 O7 2.058 . S
Co1 O17 2.057 . S
Co1 O32 2.037 . S
Co1 N36 2.145 . S
Co1 N57 2.257 . S
O2 Co0 2.143 . S
O2 Co1 2.160 . S
C3 O4 1.278 . S
C3 O11 1.224 . S
O4 C3 1.278 . S
C5 O6 1.245 . S
C5 O17 1.232 . S
O6 C5 1.245 . S
O7 Co1 2.058 . S
O7 C33 1.269 . S
O8 Co0 2.074 . S
O8 C33 1.257 . S
H9 C34 0.930 . S
H10 C40 0.930 . S
O11 Co0 2.093 . S
O11 C3 1.224 . S
H12 C44 0.929 . S
H13 C46 0.930 . S
H14 C47 0.930 . S
H15 C45 0.929 . S
H16 C48 0.928 . S
O17 Co1 2.057 . S
O17 C5 1.232 . S
H18 C37 0.929 . S
H19 C38 0.929 . S
H20 C50 0.931 . S
H21 C42 0.929 . S
H22 C51 0.930 . S
H23 C43 0.931 . S
O24 Co0 2.097 . S
O24 C52 1.214 . S
H25 C53 0.929 . S
H26 C54 0.929 . S
H27 C55 0.930 . S
H28 C56 0.929 . S
H29 C58 0.930 . S
H30 C35 0.930 . S
H31 C39 0.930 . S
O32 Co1 2.037 . S
O32 C52 1.234 . S
C33 O7 1.269 . S
C33 O8 1.257 . S
C34 H9 0.930 . S
C34 C37 1.388 . S
C34 C39 1.418 . S
C35 H30 0.930 . S
C35 C38 1.404 . S
C35 C39 1.353 . S
N36 Co1 2.145 . S
N36 C37 1.397 . S
N36 C38 1.334 . S
C37 H18 0.929 . S
C37 C34 1.388 . S
C37 N36 1.397 . S
C38 H19 0.929 . S
C38 C35 1.404 . S
C38 N36 1.334 . S
C39 H31 0.930 . S
C39 C34 1.418 . S
C39 C35 1.353 . S
C40 H10 0.930 . S
C40 N41 1.330 . S
C40 C42 1.446 . S
N41 Co0 2.151 . S
N41 C40 1.330 . S
N41 C45 1.418 . S
C42 H21 0.929 . S
C42 C40 1.446 . S
C42 C43 1.332 . S
C43 H23 0.931 . S
C43 C42 1.332 . S
C43 C44 1.267 . S
C44 H12 0.929 . S
C44 C43 1.267 . S
C44 C45 1.251 . S
C45 H15 0.929 . S
C45 N41 1.418 . S
C45 C44 1.251 . S
C46 H13 0.930 . S
C46 C48 1.406 . S
C46 C51 1.261 . S
C47 H14 0.930 . S
C47 N49 1.325 . S
C47 C50 1.357 . S
C48 H16 0.928 . S
C48 C46 1.406 . S
C48 N49 1.261 . S
N49 Co0 2.214 . S
N49 C47 1.325 . S
N49 C48 1.261 . S
C50 H20 0.931 . S
C50 C47 1.357 . S
C50 C51 1.312 . S
C51 H22 0.930 . S
C51 C46 1.261 . S
C51 C50 1.312 . S
C52 O24 1.214 . S
C52 O32 1.234 . S
C53 H25 0.929 . S
C53 C56 1.391 . S
C53 C58 1.391 . S
C54 H26 0.929 . S
C54 C55 1.390 . S
C54 N57 1.391 . S
C55 H27 0.930 . S
C55 C54 1.390 . S
C55 C56 1.392 . S
C56 H28 0.929 . S
C56 C53 1.391 . S
C56 C55 1.392 . S
N57 Co1 2.257 . S
N57 C54 1.391 . S
N57 C58 1.388 . S
C58 H29 0.930 . S
C58 C53 1.391 . S
C58 N57 1.388 . S
Co59 O61 2.143 . S
Co59 O67 2.074 . S
Co59 O70 2.093 . S
Co59 O83 2.097 . S
Co59 N100 2.151 . S
Co59 N108 2.214 . S
Co60 O61 2.160 . S
Co60 O66 2.058 . S
Co60 O76 2.057 . S
Co60 O91 2.037 . S
Co60 N95 2.145 . S
Co60 N116 2.257 . S
O61 Co59 2.143 . S
O61 Co60 2.160 . S
C62 O63 1.278 . S
C62 O70 1.224 . S
O63 C62 1.278 . S
C64 O65 1.245 . S
C64 O76 1.232 . S
O65 C64 1.245 . S
O66 Co60 2.058 . S
O66 C92 1.269 . S
O67 Co59 2.074 . S
O67 C92 1.257 . S
H68 C93 0.930 . S
H69 C99 0.930 . S
O70 Co59 2.093 . S
O70 C62 1.224 . S
H71 C103 0.929 . S
H72 C105 0.930 . S
H73 C106 0.930 . S
H74 C104 0.929 . S
H75 C107 0.928 . S
O76 Co60 2.057 . S
O76 C64 1.232 . S
H77 C96 0.929 . S
H78 C97 0.929 . S
H79 C109 0.931 . S
H80 C101 0.929 . S
H81 C110 0.930 . S
H82 C102 0.931 . S
O83 Co59 2.097 . S
O83 C111 1.214 . S
H84 C112 0.929 . S
H85 C113 0.929 . S
H86 C114 0.930 . S
H87 C115 0.929 . S
H88 C117 0.930 . S
H89 C94 0.930 . S
H90 C98 0.930 . S
O91 Co60 2.037 . S
O91 C111 1.234 . S
C92 O66 1.269 . S
C92 O67 1.257 . S
C93 H68 0.930 . S
C93 C96 1.388 . S
C93 C98 1.418 . S
C94 H89 0.930 . S
C94 C97 1.404 . S
C94 C98 1.353 . S
N95 Co60 2.145 . S
N95 C96 1.397 . S
N95 C97 1.334 . S
C96 H77 0.929 . S
C96 C93 1.388 . S
C96 N95 1.397 . S
C97 H78 0.929 . S
C97 C94 1.404 . S
C97 N95 1.334 . S
C98 H90 0.930 . S
C98 C93 1.418 . S
C98 C94 1.353 . S
C99 H69 0.930 . S
C99 N100 1.330 . S
C99 C101 1.446 . S
N100 Co59 2.151 . S
N100 C99 1.330 . S
N100 C104 1.418 . S
C101 H80 0.929 . S
C101 C99 1.446 . S
C101 C102 1.332 . S
C102 H82 0.931 . S
C102 C101 1.332 . S
C102 C103 1.267 . S
C103 H71 0.929 . S
C103 C102 1.267 . S
C103 C104 1.251 . S
C104 H74 0.929 . S
C104 N100 1.418 . S
C104 C103 1.251 . S
C105 H72 0.930 . S
C105 C107 1.406 . S
C105 C110 1.261 . S
C106 H73 0.930 . S
C106 N108 1.325 . S
C106 C109 1.357 . S
C107 H75 0.928 . S
C107 C105 1.406 . S
C107 N108 1.261 . S
N108 Co59 2.214 . S
N108 C106 1.325 . S
N108 C107 1.261 . S
C109 H79 0.931 . S
C109 C106 1.357 . S
C109 C110 1.312 . S
C110 H81 0.930 . S
C110 C105 1.261 . S
C110 C109 1.312 . S
C111 O83 1.214 . S
C111 O91 1.234 . S
C112 H84 0.929 . S
C112 C115 1.391 . S
C112 C117 1.391 . S
C113 H85 0.929 . S
C113 C114 1.390 . S
C113 N116 1.391 . S
C114 H86 0.930 . S
C114 C113 1.390 . S
C114 C115 1.392 . S
C115 H87 0.929 . S
C115 C112 1.391 . S
C115 C114 1.392 . S
N116 Co60 2.257 . S
N116 C113 1.391 . S
N116 C117 1.388 . S
C117 H88 0.930 . S
C117 C112 1.391 . S
C117 N116 1.388 . S
Co118 O120 2.143 1_554 S
Co118 O126 2.074 . S
Co118 O129 2.093 1_554 S
Co118 O142 2.097 1_554 S
Co118 N159 2.151 . S
Co118 N167 2.214 . S
Co119 O120 2.160 1_554 S
Co119 O125 2.058 . S
Co119 O135 2.057 1_554 S
Co119 O150 2.037 . S
Co119 N154 2.145 . S
Co119 N175 2.257 1_554 S
O120 Co118 2.143 1_556 S
O120 Co119 2.160 1_556 S
C121 O122 1.278 . S
C121 O129 1.224 . S
O122 C121 1.278 . S
C123 O124 1.245 . S
C123 O135 1.232 . S
O124 C123 1.245 . S
O125 Co119 2.058 . S
O125 C151 1.269 . S
O126 Co118 2.074 . S
O126 C151 1.257 . S
H127 C152 0.930 . S
H128 C158 0.930 . S
O129 Co118 2.093 1_556 S
O129 C121 1.224 . S
H130 C162 0.929 . S
H131 C164 0.930 . S
H132 C165 0.930 . S
H133 C163 0.929 . S
H134 C166 0.928 . S
O135 Co119 2.057 1_556 S
O135 C123 1.232 . S
H136 C155 0.929 . S
H137 C156 0.929 . S
H138 C168 0.931 . S
H139 C160 0.929 . S
H140 C169 0.930 . S
H141 C161 0.931 . S
O142 Co118 2.097 1_556 S
O142 C170 1.214 1_556 S
H143 C171 0.929 . S
H144 C172 0.929 . S
H145 C173 0.930 . S
H146 C174 0.929 . S
H147 C176 0.930 . S
H148 C153 0.930 . S
H149 C157 0.930 . S
O150 Co119 2.037 . S
O150 C170 1.234 . S
C151 O125 1.269 . S
C151 O126 1.257 . S
C152 H127 0.930 . S
C152 C155 1.388 . S
C152 C157 1.418 . S
C153 H148 0.930 . S
C153 C156 1.404 . S
C153 C157 1.353 . S
N154 Co119 2.145 . S
N154 C155 1.397 . S
N154 C156 1.334 . S
C155 H136 0.929 . S
C155 C152 1.388 . S
C155 N154 1.397 . S
C156 H137 0.929 . S
C156 C153 1.404 . S
C156 N154 1.334 . S
C157 H149 0.930 . S
C157 C152 1.418 . S
C157 C153 1.353 . S
C158 H128 0.930 . S
C158 N159 1.330 1_556 S
C158 C160 1.446 . S
N159 Co118 2.151 . S
N159 C158 1.330 1_554 S
N159 C163 1.418 . S
C160 H139 0.929 . S
C160 C158 1.446 . S
C160 C161 1.332 1_556 S
C161 H141 0.931 . S
C161 C160 1.332 1_554 S
C161 C162 1.267 . S
C162 H130 0.929 . S
C162 C161 1.267 . S
C162 C163 1.251 . S
C163 H133 0.929 . S
C163 N159 1.418 . S
C163 C162 1.251 . S
C164 H131 0.930 . S
C164 C166 1.406 . S
C164 C169 1.261 . S
C165 H132 0.930 . S
C165 N167 1.325 . S
C165 C168 1.357 . S
C166 H134 0.928 . S
C166 C164 1.406 . S
C166 N167 1.261 . S
N167 Co118 2.214 . S
N167 C165 1.325 . S
N167 C166 1.261 . S
C168 H138 0.931 . S
C168 C165 1.357 . S
C168 C169 1.312 . S
C169 H140 0.930 . S
C169 C164 1.261 . S
C169 C168 1.312 . S
C170 O142 1.214 1_554 S
C170 O150 1.234 . S
C171 H143 0.929 . S
C171 C174 1.391 . S
C171 C176 1.391 . S
C172 H144 0.929 . S
C172 C173 1.390 . S
C172 N175 1.391 . S
C173 H145 0.930 . S
C173 C172 1.390 . S
C173 C174 1.392 . S
C174 H146 0.929 . S
C174 C171 1.391 . S
C174 C173 1.392 . S
N175 Co119 2.257 1_556 S
N175 C172 1.391 . S
N175 C176 1.388 . S
C176 H147 0.930 . S
C176 C171 1.391 . S
C176 N175 1.388 . S
Co177 O179 2.143 . S
Co177 O185 2.074 . S
Co177 O188 2.093 . S
Co177 O201 2.097 . S
Co177 N218 2.151 . S
Co177 N226 2.214 . S
Co178 O179 2.160 . S
Co178 O184 2.058 . S
Co178 O194 2.057 . S
Co178 O209 2.037 . S
Co178 N213 2.145 . S
Co178 N234 2.257 . S
O179 Co177 2.143 . S
O179 Co178 2.160 . S
C180 O181 1.278 . S
C180 O188 1.224 . S
O181 C180 1.278 . S
C182 O183 1.245 . S
C182 O194 1.232 . S
O183 C182 1.245 . S
O184 Co178 2.058 . S
O184 C210 1.269 . S
O185 Co177 2.074 . S
O185 C210 1.257 . S
H186 C211 0.930 . S
H187 C217 0.930 . S
O188 Co177 2.093 . S
O188 C180 1.224 . S
H189 C221 0.929 . S
H190 C223 0.930 . S
H191 C224 0.930 . S
H192 C222 0.929 . S
H193 C225 0.928 . S
O194 Co178 2.057 . S
O194 C182 1.232 . S
H195 C214 0.929 . S
H196 C215 0.929 . S
H197 C227 0.931 . S
H198 C219 0.929 . S
H199 C228 0.930 . S
H200 C220 0.931 . S
O201 Co177 2.097 . S
O201 C229 1.214 . S
H202 C230 0.929 . S
H203 C231 0.929 . S
H204 C232 0.930 . S
H205 C233 0.929 . S
H206 C235 0.930 . S
H207 C212 0.930 . S
H208 C216 0.930 . S
O209 Co178 2.037 . S
O209 C229 1.234 . S
C210 O184 1.269 . S
C210 O185 1.257 . S
C211 H186 0.930 . S
C211 C214 1.388 . S
C211 C216 1.418 . S
C212 H207 0.930 . S
C212 C215 1.404 . S
C212 C216 1.353 . S
N213 Co178 2.145 . S
N213 C214 1.397 . S
N213 C215 1.334 . S
C214 H195 0.929 . S
C214 C211 1.388 . S
C214 N213 1.397 . S
C215 H196 0.929 . S
C215 C212 1.404 . S
C215 N213 1.334 . S
C216 H208 0.930 . S
C216 C211 1.418 . S
C216 C212 1.353 . S
C217 H187 0.930 . S
C217 N218 1.330 . S
C217 C219 1.446 . S
N218 Co177 2.151 . S
N218 C217 1.330 . S
N218 C222 1.418 . S
C219 H198 0.929 . S
C219 C217 1.446 . S
C219 C220 1.332 . S
C220 H200 0.931 . S
C220 C219 1.332 . S
C220 C221 1.267 . S
C221 H189 0.929 . S
C221 C220 1.267 . S
C221 C222 1.251 . S
C222 H192 0.929 . S
C222 N218 1.418 . S
C222 C221 1.251 . S
C223 H190 0.930 . S
C223 C225 1.406 . S
C223 C228 1.261 . S
C224 H191 0.930 . S
C224 N226 1.325 . S
C224 C227 1.357 . S
C225 H193 0.928 . S
C225 C223 1.406 . S
C225 N226 1.261 . S
N226 Co177 2.214 . S
N226 C224 1.325 . S
N226 C225 1.261 . S
C227 H197 0.931 . S
C227 C224 1.357 . S
C227 C228 1.312 . S
C228 H199 0.930 . S
C228 C223 1.261 . S
C228 C227 1.312 . S
C229 O201 1.214 . S
C229 O209 1.234 . S
C230 H202 0.929 . S
C230 C233 1.391 . S
C230 C235 1.391 . S
C231 H203 0.929 . S
C231 C232 1.390 . S
C231 N234 1.391 . S
C232 H204 0.930 . S
C232 C231 1.390 . S
C232 C233 1.392 . S
C233 H205 0.929 . S
C233 C230 1.391 . S
C233 C232 1.392 . S
N234 Co178 2.257 . S
N234 C231 1.391 . S
N234 C235 1.388 . S
C235 H206 0.930 . S
C235 C230 1.391 . S
C235 N234 1.388 . S
Co236 O238 2.143 . S
Co236 O244 2.074 . S
Co236 O247 2.093 . S
Co236 O260 2.097 . S
Co236 N277 2.151 . S
Co236 N285 2.214 . S
Co237 O238 2.160 . S
Co237 O243 2.058 . S
Co237 O253 2.057 . S
Co237 O268 2.037 . S
Co237 N272 2.145 . S
Co237 N293 2.257 . S
O238 Co236 2.143 . S
O238 Co237 2.160 . S
C239 O240 1.278 . S
C239 O247 1.224 . S
O240 C239 1.278 . S
C241 O242 1.245 . S
C241 O253 1.232 . S
O242 C241 1.245 . S
O243 Co237 2.058 . S
O243 C269 1.269 . S
O244 Co236 2.074 . S
O244 C269 1.257 . S
H245 C270 0.930 . S
H246 C276 0.930 . S
O247 Co236 2.093 . S
O247 C239 1.224 . S
H248 C280 0.929 . S
H249 C282 0.930 . S
H250 C283 0.930 . S
H251 C281 0.929 . S
H252 C284 0.928 . S
O253 Co237 2.057 . S
O253 C241 1.232 . S
H254 C273 0.929 . S
H255 C274 0.929 . S
H256 C286 0.931 . S
H257 C278 0.929 . S
H258 C287 0.930 . S
H259 C279 0.931 . S
O260 Co236 2.097 . S
O260 C288 1.214 . S
H261 C289 0.929 . S
H262 C290 0.929 . S
H263 C291 0.930 . S
H264 C292 0.929 . S
H265 C294 0.930 . S
H266 C271 0.930 . S
H267 C275 0.930 . S
O268 Co237 2.037 . S
O268 C288 1.234 . S
C269 O243 1.269 . S
C269 O244 1.257 . S
C270 H245 0.930 . S
C270 C273 1.388 . S
C270 C275 1.418 . S
C271 H266 0.930 . S
C271 C274 1.404 . S
C271 C275 1.353 . S
N272 Co237 2.145 . S
N272 C273 1.397 . S
N272 C274 1.334 . S
C273 H254 0.929 . S
C273 C270 1.388 . S
C273 N272 1.397 . S
C274 H255 0.929 . S
C274 C271 1.404 . S
C274 N272 1.334 . S
C275 H267 0.930 . S
C275 C270 1.418 . S
C275 C271 1.353 . S
C276 H246 0.930 . S
C276 N277 1.330 . S
C276 C278 1.446 . S
N277 Co236 2.151 . S
N277 C276 1.330 . S
N277 C281 1.418 . S
C278 H257 0.929 . S
C278 C276 1.446 . S
C278 C279 1.332 . S
C279 H259 0.931 . S
C279 C278 1.332 . S
C279 C280 1.267 . S
C280 H248 0.929 . S
C280 C279 1.267 . S
C280 C281 1.251 . S
C281 H251 0.929 . S
C281 N277 1.418 . S
C281 C280 1.251 . S
C282 H249 0.930 . S
C282 C284 1.406 . S
C282 C287 1.261 . S
C283 H250 0.930 . S
C283 N285 1.325 . S
C283 C286 1.357 . S
C284 H252 0.928 . S
C284 C282 1.406 . S
C284 N285 1.261 . S
N285 Co236 2.214 . S
N285 C283 1.325 . S
N285 C284 1.261 . S
C286 H256 0.931 . S
C286 C283 1.357 . S
C286 C287 1.312 . S
C287 H258 0.930 . S
C287 C282 1.261 . S
C287 C286 1.312 . S
C288 O260 1.214 . S
C288 O268 1.234 . S
C289 H261 0.929 . S
C289 C292 1.391 . S
C289 C294 1.391 . S
C290 H262 0.929 . S
C290 C291 1.390 . S
C290 N293 1.391 . S
C291 H263 0.930 . S
C291 C290 1.390 . S
C291 C292 1.392 . S
C292 H264 0.929 . S
C292 C289 1.391 . S
C292 C291 1.392 . S
N293 Co237 2.257 . S
N293 C290 1.391 . S
N293 C294 1.388 . S
C294 H265 0.930 . S
C294 C289 1.391 . S
C294 N293 1.388 . S
Co295 O297 2.143 1_554 S
Co295 O303 2.074 . S
Co295 O306 2.093 1_554 S
Co295 O319 2.097 1_554 S
Co295 N336 2.151 . S
Co295 N344 2.214 . S
Co296 O297 2.160 1_554 S
Co296 O302 2.058 . S
Co296 O312 2.057 1_554 S
Co296 O327 2.037 . S
Co296 N331 2.145 . S
Co296 N352 2.257 1_554 S
O297 Co295 2.143 1_556 S
O297 Co296 2.160 1_556 S
C298 O299 1.278 . S
C298 O306 1.224 . S
O299 C298 1.278 . S
C300 O301 1.245 . S
C300 O312 1.232 . S
O301 C300 1.245 . S
O302 Co296 2.058 . S
O302 C328 1.269 . S
O303 Co295 2.074 . S
O303 C328 1.257 . S
H304 C329 0.930 . S
H305 C335 0.930 . S
O306 Co295 2.093 1_556 S
O306 C298 1.224 . S
H307 C339 0.929 . S
H308 C341 0.930 . S
H309 C342 0.930 . S
H310 C340 0.929 . S
H311 C343 0.928 . S
O312 Co296 2.057 1_556 S
O312 C300 1.232 . S
H313 C332 0.929 . S
H314 C333 0.929 . S
H315 C345 0.931 . S
H316 C337 0.929 . S
H317 C346 0.930 . S
H318 C338 0.931 . S
O319 Co295 2.097 1_556 S
O319 C347 1.214 1_556 S
H320 C348 0.929 . S
H321 C349 0.929 . S
H322 C350 0.930 . S
H323 C351 0.929 . S
H324 C353 0.930 . S
H325 C330 0.930 . S
H326 C334 0.930 . S
O327 Co296 2.037 . S
O327 C347 1.234 . S
C328 O302 1.269 . S
C328 O303 1.257 . S
C329 H304 0.930 . S
C329 C332 1.388 . S
C329 C334 1.418 . S
C330 H325 0.930 . S
C330 C333 1.404 . S
C330 C334 1.353 . S
N331 Co296 2.145 . S
N331 C332 1.397 . S
N331 C333 1.334 . S
C332 H313 0.929 . S
C332 C329 1.388 . S
C332 N331 1.397 . S
C333 H314 0.929 . S
C333 C330 1.404 . S
C333 N331 1.334 . S
C334 H326 0.930 . S
C334 C329 1.418 . S
C334 C330 1.353 . S
C335 H305 0.930 . S
C335 N336 1.330 1_556 S
C335 C337 1.446 . S
N336 Co295 2.151 . S
N336 C335 1.330 1_554 S
N336 C340 1.418 . S
C337 H316 0.929 . S
C337 C335 1.446 . S
C337 C338 1.332 1_556 S
C338 H318 0.931 . S
C338 C337 1.332 1_554 S
C338 C339 1.267 . S
C339 H307 0.929 . S
C339 C338 1.267 . S
C339 C340 1.251 . S
C340 H310 0.929 . S
C340 N336 1.418 . S
C340 C339 1.251 . S
C341 H308 0.930 . S
C341 C343 1.406 . S
C341 C346 1.261 . S
C342 H309 0.930 . S
C342 N344 1.325 . S
C342 C345 1.357 . S
C343 H311 0.928 . S
C343 C341 1.406 . S
C343 N344 1.261 . S
N344 Co295 2.214 . S
N344 C342 1.325 . S
N344 C343 1.261 . S
C345 H315 0.931 . S
C345 C342 1.357 . S
C345 C346 1.312 . S
C346 H317 0.930 . S
C346 C341 1.261 . S
C346 C345 1.312 . S
C347 O319 1.214 1_554 S
C347 O327 1.234 . S
C348 H320 0.929 . S
C348 C351 1.391 . S
C348 C353 1.391 . S
C349 H321 0.929 . S
C349 C350 1.390 . S
C349 N352 1.391 . S
C350 H322 0.930 . S
C350 C349 1.390 . S
C350 C351 1.392 . S
C351 H323 0.929 . S
C351 C348 1.391 . S
C351 C350 1.392 . S
N352 Co296 2.257 1_556 S
N352 C349 1.391 . S
N352 C353 1.388 . S
C353 H324 0.930 . S
C353 C348 1.391 . S
C353 N352 1.388 . S
Co354 O356 2.143 . S
Co354 O362 2.074 . S
Co354 O365 2.093 . S
Co354 O378 2.097 . S
Co354 N395 2.151 . S
Co354 N403 2.214 . S
Co355 O356 2.160 . S
Co355 O361 2.058 . S
Co355 O371 2.057 . S
Co355 O386 2.037 . S
Co355 N390 2.145 . S
Co355 N411 2.257 . S
O356 Co354 2.143 . S
O356 Co355 2.160 . S
C357 O358 1.278 . S
C357 O365 1.224 . S
O358 C357 1.278 . S
C359 O360 1.245 . S
C359 O371 1.232 . S
O360 C359 1.245 . S
O361 Co355 2.058 . S
O361 C387 1.269 . S
O362 Co354 2.074 . S
O362 C387 1.257 . S
H363 C388 0.930 . S
H364 C394 0.930 . S
O365 Co354 2.093 . S
O365 C357 1.224 . S
H366 C398 0.929 . S
H367 C400 0.930 . S
H368 C401 0.930 . S
H369 C399 0.929 . S
H370 C402 0.928 . S
O371 Co355 2.057 . S
O371 C359 1.232 . S
H372 C391 0.929 . S
H373 C392 0.929 . S
H374 C404 0.931 . S
H375 C396 0.929 . S
H376 C405 0.930 . S
H377 C397 0.931 . S
O378 Co354 2.097 . S
O378 C406 1.214 . S
H379 C407 0.929 . S
H380 C408 0.929 . S
H381 C409 0.930 . S
H382 C410 0.929 . S
H383 C412 0.930 . S
H384 C389 0.930 . S
H385 C393 0.930 . S
O386 Co355 2.037 . S
O386 C406 1.234 . S
C387 O361 1.269 . S
C387 O362 1.257 . S
C388 H363 0.930 . S
C388 C391 1.388 . S
C388 C393 1.418 . S
C389 H384 0.930 . S
C389 C392 1.404 . S
C389 C393 1.353 . S
N390 Co355 2.145 . S
N390 C391 1.397 . S
N390 C392 1.334 . S
C391 H372 0.929 . S
C391 C388 1.388 . S
C391 N390 1.397 . S
C392 H373 0.929 . S
C392 C389 1.404 . S
C392 N390 1.334 . S
C393 H385 0.930 . S
C393 C388 1.418 . S
C393 C389 1.353 . S
C394 H364 0.930 . S
C394 N395 1.330 . S
C394 C396 1.446 . S
N395 Co354 2.151 . S
N395 C394 1.330 . S
N395 C399 1.418 . S
C396 H375 0.929 . S
C396 C394 1.446 . S
C396 C397 1.332 . S
C397 H377 0.931 . S
C397 C396 1.332 . S
C397 C398 1.267 . S
C398 H366 0.929 . S
C398 C397 1.267 . S
C398 C399 1.251 . S
C399 H369 0.929 . S
C399 N395 1.418 . S
C399 C398 1.251 . S
C400 H367 0.930 . S
C400 C402 1.406 . S
C400 C405 1.261 . S
C401 H368 0.930 . S
C401 N403 1.325 . S
C401 C404 1.357 . S
C402 H370 0.928 . S
C402 C400 1.406 . S
C402 N403 1.261 . S
N403 Co354 2.214 . S
N403 C401 1.325 . S
N403 C402 1.261 . S
C404 H374 0.931 . S
C404 C401 1.357 . S
C404 C405 1.312 . S
C405 H376 0.930 . S
C405 C400 1.261 . S
C405 C404 1.312 . S
C406 O378 1.214 . S
C406 O386 1.234 . S
C407 H379 0.929 . S
C407 C410 1.391 . S
C407 C412 1.391 . S
C408 H380 0.929 . S
C408 C409 1.390 . S
C408 N411 1.391 . S
C409 H381 0.930 . S
C409 C408 1.390 . S
C409 C410 1.392 . S
C410 H382 0.929 . S
C410 C407 1.391 . S
C410 C409 1.392 . S
N411 Co355 2.257 . S
N411 C408 1.391 . S
N411 C412 1.388 . S
C412 H383 0.930 . S
C412 C407 1.391 . S
C412 N411 1.388 . S
Co413 O415 2.143 . S
Co413 O421 2.074 . S
Co413 O424 2.093 . S
Co413 O437 2.097 . S
Co413 N454 2.151 . S
Co413 N462 2.214 . S
Co414 O415 2.160 . S
Co414 O420 2.058 . S
Co414 O430 2.057 . S
Co414 O445 2.037 . S
Co414 N449 2.145 . S
Co414 N470 2.257 . S
O415 Co413 2.143 . S
O415 Co414 2.160 . S
C416 O417 1.278 . S
C416 O424 1.224 . S
O417 C416 1.278 . S
C418 O419 1.245 . S
C418 O430 1.232 . S
O419 C418 1.245 . S
O420 Co414 2.058 . S
O420 C446 1.269 . S
O421 Co413 2.074 . S
O421 C446 1.257 . S
H422 C447 0.930 . S
H423 C453 0.930 . S
O424 Co413 2.093 . S
O424 C416 1.224 . S
H425 C457 0.929 . S
H426 C459 0.930 . S
H427 C460 0.930 . S
H428 C458 0.929 . S
H429 C461 0.928 . S
O430 Co414 2.057 . S
O430 C418 1.232 . S
H431 C450 0.929 . S
H432 C451 0.929 . S
H433 C463 0.931 . S
H434 C455 0.929 . S
H435 C464 0.930 . S
H436 C456 0.931 . S
O437 Co413 2.097 . S
O437 C465 1.214 . S
H438 C466 0.929 . S
H439 C467 0.929 . S
H440 C468 0.930 . S
H441 C469 0.929 . S
H442 C471 0.930 . S
H443 C448 0.930 . S
H444 C452 0.930 . S
O445 Co414 2.037 . S
O445 C465 1.234 . S
C446 O420 1.269 . S
C446 O421 1.257 . S
C447 H422 0.930 . S
C447 C450 1.388 . S
C447 C452 1.418 . S
C448 H443 0.930 . S
C448 C451 1.404 . S
C448 C452 1.353 . S
N449 Co414 2.145 . S
N449 C450 1.397 . S
N449 C451 1.334 . S
C450 H431 0.929 . S
C450 C447 1.388 . S
C450 N449 1.397 . S
C451 H432 0.929 . S
C451 C448 1.404 . S
C451 N449 1.334 . S
C452 H444 0.930 . S
C452 C447 1.418 . S
C452 C448 1.353 . S
C453 H423 0.930 . S
C453 N454 1.330 . S
C453 C455 1.446 . S
N454 Co413 2.151 . S
N454 C453 1.330 . S
N454 C458 1.418 . S
C455 H434 0.929 . S
C455 C453 1.446 . S
C455 C456 1.332 . S
C456 H436 0.931 . S
C456 C455 1.332 . S
C456 C457 1.267 . S
C457 H425 0.929 . S
C457 C456 1.267 . S
C457 C458 1.251 . S
C458 H428 0.929 . S
C458 N454 1.418 . S
C458 C457 1.251 . S
C459 H426 0.930 . S
C459 C461 1.406 . S
C459 C464 1.261 . S
C460 H427 0.930 . S
C460 N462 1.325 . S
C460 C463 1.357 . S
C461 H429 0.928 . S
C461 C459 1.406 . S
C461 N462 1.261 . S
N462 Co413 2.214 . S
N462 C460 1.325 . S
N462 C461 1.261 . S
C463 H433 0.931 . S
C463 C460 1.357 . S
C463 C464 1.312 . S
C464 H435 0.930 . S
C464 C459 1.261 . S
C464 C463 1.312 . S
C465 O437 1.214 . S
C465 O445 1.234 . S
C466 H438 0.929 . S
C466 C469 1.391 . S
C466 C471 1.391 . S
C467 H439 0.929 . S
C467 C468 1.390 . S
C467 N470 1.391 . S
C468 H440 0.930 . S
C468 C467 1.390 . S
C468 C469 1.392 . S
C469 H441 0.929 . S
C469 C466 1.391 . S
C469 C468 1.392 . S
N470 Co414 2.257 . S
N470 C467 1.391 . S
N470 C471 1.388 . S
C471 H442 0.930 . S
C471 C466 1.391 . S
C471 N470 1.388 . S
Co472 O474 2.152 . S
Co472 O480 2.051 1_554 S
Co472 O483 2.115 . S
Co472 O496 2.102 . S
Co472 N513 2.146 1_554 S
Co472 N521 2.205 1_554 S
Co473 O474 2.160 1_556 S
Co473 O479 2.058 . S
Co473 O489 2.057 1_556 S
Co473 O504 2.037 . S
Co473 N508 2.145 . S
Co473 N529 2.257 1_556 S
O474 Co472 2.152 . S
O474 Co473 2.160 1_554 S
C475 O476 1.278 . S
C475 O483 1.224 . S
O476 C475 1.278 . S
C477 O478 1.245 . S
C477 O489 1.232 . S
O478 C477 1.245 . S
O479 Co473 2.058 . S
O479 C505 1.269 . S
O480 Co472 2.051 1_556 S
O480 C505 1.257 . S
H481 C506 0.930 . S
H482 C512 0.930 . S
O483 Co472 2.115 . S
O483 C475 1.224 . S
H484 C516 0.929 . S
H485 C518 0.930 . S
H486 C519 0.930 . S
H487 C517 0.929 . S
H488 C520 0.928 1_554 S
O489 Co473 2.057 1_554 S
O489 C477 1.232 . S
H490 C509 0.929 . S
H491 C510 0.929 1_554 S
H492 C522 0.931 . S
H493 C514 0.929 . S
H494 C523 0.930 . S
H495 C515 0.931 . S
O496 Co472 2.102 . S
O496 C524 1.214 . S
H497 C525 0.929 . S
H498 C526 0.929 . S
H499 C527 0.930 . S
H500 C528 0.929 . S
H501 C530 0.930 . S
H502 C507 0.930 . S
H503 C511 0.930 . S
O504 Co473 2.037 . S
O504 C524 1.234 1_556 S
C505 O479 1.269 . S
C505 O480 1.257 . S
C506 H481 0.930 . S
C506 C509 1.388 . S
C506 C511 1.418 . S
C507 H502 0.930 . S
C507 C510 1.404 . S
C507 C511 1.353 . S
N508 Co473 2.145 . S
N508 C509 1.397 . S
N508 C510 1.334 . S
C509 H490 0.929 . S
C509 C506 1.388 . S
C509 N508 1.397 . S
C510 H491 0.929 1_556 S
C510 C507 1.404 . S
C510 N508 1.334 . S
C511 H503 0.930 . S
C511 C506 1.418 . S
C511 C507 1.353 . S
C512 H482 0.930 . S
C512 N513 1.330 1_554 S
C512 C514 1.446 . S
N513 Co472 2.146 1_556 S
N513 C512 1.330 1_556 S
N513 C517 1.418 . S
C514 H493 0.929 . S
C514 C512 1.446 . S
C514 C515 1.332 1_554 S
C515 H495 0.931 . S
C515 C514 1.332 1_556 S
C515 C516 1.267 . S
C516 H484 0.929 . S
C516 C515 1.267 . S
C516 C517 1.251 . S
C517 H487 0.929 . S
C517 N513 1.418 . S
C517 C516 1.251 . S
C518 H485 0.930 . S
C518 C520 1.406 . S
C518 C523 1.261 . S
C519 H486 0.930 . S
C519 N521 1.325 . S
C519 C522 1.357 . S
C520 H488 0.928 1_556 S
C520 C518 1.406 . S
C520 N521 1.261 . S
N521 Co472 2.205 1_556 S
N521 C519 1.325 . S
N521 C520 1.261 . S
C522 H492 0.931 . S
C522 C519 1.357 . S
C522 C523 1.312 . S
C523 H494 0.930 . S
C523 C518 1.261 . S
C523 C522 1.312 . S
C524 O496 1.214 . S
C524 O504 1.234 1_554 S
C525 H497 0.929 . S
C525 C528 1.391 . S
C525 C530 1.391 . S
C526 H498 0.929 . S
C526 C527 1.390 . S
C526 N529 1.391 . S
C527 H499 0.930 . S
C527 C526 1.390 . S
C527 C528 1.392 . S
C528 H500 0.929 . S
C528 C525 1.391 . S
C528 C527 1.392 . S
N529 Co473 2.257 1_554 S
N529 C526 1.391 . S
N529 C530 1.388 . S
C530 H501 0.930 . S
C530 C525 1.391 . S
C530 N529 1.388 . S
Co531 O533 2.143 . S
Co531 O539 2.074 . S
Co531 O542 2.093 . S
Co531 O555 2.097 . S
Co531 N572 2.151 . S
Co531 N580 2.214 . S
Co532 O533 2.160 . S
Co532 O538 2.058 . S
Co532 O548 2.057 . S
Co532 O563 2.037 . S
Co532 N567 2.145 . S
Co532 N588 2.257 . S
O533 Co531 2.143 . S
O533 Co532 2.160 . S
C534 O535 1.278 . S
C534 O542 1.224 . S
O535 C534 1.278 . S
C536 O537 1.245 . S
C536 O548 1.232 . S
O537 C536 1.245 . S
O538 Co532 2.058 . S
O538 C564 1.269 . S
O539 Co531 2.074 . S
O539 C564 1.257 . S
H540 C565 0.930 . S
H541 C571 0.930 . S
O542 Co531 2.093 . S
O542 C534 1.224 . S
H543 C575 0.929 . S
H544 C577 0.930 . S
H545 C578 0.930 . S
H546 C576 0.929 . S
H547 C579 0.928 . S
O548 Co532 2.057 . S
O548 C536 1.232 . S
H549 C568 0.929 . S
H550 C569 0.929 . S
H551 C581 0.931 . S
H552 C573 0.929 . S
H553 C582 0.930 . S
H554 C574 0.931 . S
O555 Co531 2.097 . S
O555 C583 1.214 . S
H556 C584 0.929 . S
H557 C585 0.929 . S
H558 C586 0.930 . S
H559 C587 0.929 . S
H560 C589 0.930 . S
H561 C566 0.930 . S
H562 C570 0.930 . S
O563 Co532 2.037 . S
O563 C583 1.234 . S
C564 O538 1.269 . S
C564 O539 1.257 . S
C565 H540 0.930 . S
C565 C568 1.388 . S
C565 C570 1.418 . S
C566 H561 0.930 . S
C566 C569 1.404 . S
C566 C570 1.353 . S
N567 Co532 2.145 . S
N567 C568 1.397 . S
N567 C569 1.334 . S
C568 H549 0.929 . S
C568 C565 1.388 . S
C568 N567 1.397 . S
C569 H550 0.929 . S
C569 C566 1.404 . S
C569 N567 1.334 . S
C570 H562 0.930 . S
C570 C565 1.418 . S
C570 C566 1.353 . S
C571 H541 0.930 . S
C571 N572 1.330 . S
C571 C573 1.446 . S
N572 Co531 2.151 . S
N572 C571 1.330 . S
N572 C576 1.418 . S
C573 H552 0.929 . S
C573 C571 1.446 . S
C573 C574 1.332 . S
C574 H554 0.931 . S
C574 C573 1.332 . S
C574 C575 1.267 . S
C575 H543 0.929 . S
C575 C574 1.267 . S
C575 C576 1.251 . S
C576 H546 0.929 . S
C576 N572 1.418 . S
C576 C575 1.251 . S
C577 H544 0.930 . S
C577 C579 1.406 . S
C577 C582 1.261 . S
C578 H545 0.930 . S
C578 N580 1.325 . S
C578 C581 1.357 . S
C579 H547 0.928 . S
C579 C577 1.406 . S
C579 N580 1.261 . S
N580 Co531 2.214 . S
N580 C578 1.325 . S
N580 C579 1.261 . S
C581 H551 0.931 . S
C581 C578 1.357 . S
C581 C582 1.312 . S
C582 H553 0.930 . S
C582 C577 1.261 . S
C582 C581 1.312 . S
C583 O555 1.214 . S
C583 O563 1.234 . S
C584 H556 0.929 . S
C584 C587 1.391 . S
C584 C589 1.391 . S
C585 H557 0.929 . S
C585 C586 1.390 . S
C585 N588 1.391 . S
C586 H558 0.930 . S
C586 C585 1.390 . S
C586 C587 1.392 . S
C587 H559 0.929 . S
C587 C584 1.391 . S
C587 C586 1.392 . S
N588 Co532 2.257 . S
N588 C585 1.391 . S
N588 C589 1.388 . S
C589 H560 0.930 . S
C589 C584 1.391 . S
C589 N588 1.388 . S
Co590 O592 2.143 . S
Co590 O598 2.074 . S
Co590 O601 2.093 . S
Co590 O614 2.097 . S
Co590 N631 2.151 . S
Co590 N639 2.214 . S
Co591 O592 2.160 . S
Co591 O597 2.058 . S
Co591 O607 2.057 . S
Co591 O622 2.037 . S
Co591 N626 2.145 . S
Co591 N647 2.257 . S
O592 Co590 2.143 . S
O592 Co591 2.160 . S
C593 O594 1.278 . S
C593 O601 1.224 . S
O594 C593 1.278 . S
C595 O596 1.245 . S
C595 O607 1.232 . S
O596 C595 1.245 . S
O597 Co591 2.058 . S
O597 C623 1.269 . S
O598 Co590 2.074 . S
O598 C623 1.257 . S
H599 C624 0.930 . S
H600 C630 0.930 . S
O601 Co590 2.093 . S
O601 C593 1.224 . S
H602 C634 0.929 . S
H603 C636 0.930 . S
H604 C637 0.930 . S
H605 C635 0.929 . S
H606 C638 0.928 . S
O607 Co591 2.057 . S
O607 C595 1.232 . S
H608 C627 0.929 . S
H609 C628 0.929 . S
H610 C640 0.931 . S
H611 C632 0.929 . S
H612 C641 0.930 . S
H613 C633 0.931 . S
O614 Co590 2.097 . S
O614 C642 1.214 . S
H615 C643 0.929 . S
H616 C644 0.929 . S
H617 C645 0.930 . S
H618 C646 0.929 . S
H619 C648 0.930 . S
H620 C625 0.930 . S
H621 C629 0.930 . S
O622 Co591 2.037 . S
O622 C642 1.234 . S
C623 O597 1.269 . S
C623 O598 1.257 . S
C624 H599 0.930 . S
C624 C627 1.388 . S
C624 C629 1.418 . S
C625 H620 0.930 . S
C625 C628 1.404 . S
C625 C629 1.353 . S
N626 Co591 2.145 . S
N626 C627 1.397 . S
N626 C628 1.334 . S
C627 H608 0.929 . S
C627 C624 1.388 . S
C627 N626 1.397 . S
C628 H609 0.929 . S
C628 C625 1.404 . S
C628 N626 1.334 . S
C629 H621 0.930 . S
C629 C624 1.418 . S
C629 C625 1.353 . S
C630 H600 0.930 . S
C630 N631 1.330 . S
C630 C632 1.446 . S
N631 Co590 2.151 . S
N631 C630 1.330 . S
N631 C635 1.418 . S
C632 H611 0.929 . S
C632 C630 1.446 . S
C632 C633 1.332 . S
C633 H613 0.931 . S
C633 C632 1.332 . S
C633 C634 1.267 . S
C634 H602 0.929 . S
C634 C633 1.267 . S
C634 C635 1.251 . S
C635 H605 0.929 . S
C635 N631 1.418 . S
C635 C634 1.251 . S
C636 H603 0.930 . S
C636 C638 1.406 . S
C636 C641 1.261 . S
C637 H604 0.930 . S
C637 N639 1.325 . S
C637 C640 1.357 . S
C638 H606 0.928 . S
C638 C636 1.406 . S
C638 N639 1.261 . S
N639 Co590 2.214 . S
N639 C637 1.325 . S
N639 C638 1.261 . S
C640 H610 0.931 . S
C640 C637 1.357 . S
C640 C641 1.312 . S
C641 H612 0.930 . S
C641 C636 1.261 . S
C641 C640 1.312 . S
C642 O614 1.214 . S
C642 O622 1.234 . S
C643 H615 0.929 . S
C643 C646 1.391 . S
C643 C648 1.391 . S
C644 H616 0.929 . S
C644 C645 1.390 . S
C644 N647 1.391 . S
C645 H617 0.930 . S
C645 C644 1.390 . S
C645 C646 1.392 . S
C646 H618 0.929 . S
C646 C643 1.391 . S
C646 C645 1.392 . S
N647 Co591 2.257 . S
N647 C644 1.391 . S
N647 C648 1.388 . S
C648 H619 0.930 . S
C648 C643 1.391 . S
C648 N647 1.388 . S
Co649 O651 2.152 . S
Co649 O657 2.051 1_554 S
Co649 O660 2.115 . S
Co649 O673 2.102 . S
Co649 N690 2.146 1_554 S
Co649 N698 2.205 1_554 S
Co650 O651 2.160 1_556 S
Co650 O656 2.058 . S
Co650 O666 2.057 1_556 S
Co650 O681 2.037 . S
Co650 N685 2.145 . S
Co650 N706 2.257 1_556 S
O651 Co649 2.152 . S
O651 Co650 2.160 1_554 S
C652 O653 1.278 . S
C652 O660 1.224 . S
O653 C652 1.278 . S
C654 O655 1.245 . S
C654 O666 1.232 . S
O655 C654 1.245 . S
O656 Co650 2.058 . S
O656 C682 1.269 . S
O657 Co649 2.051 1_556 S
O657 C682 1.257 . S
H658 C683 0.930 . S
H659 C689 0.930 . S
O660 Co649 2.115 . S
O660 C652 1.224 . S
H661 C693 0.929 . S
H662 C695 0.930 . S
H663 C696 0.930 . S
H664 C694 0.929 . S
H665 C697 0.928 1_554 S
O666 Co650 2.057 1_554 S
O666 C654 1.232 . S
H667 C686 0.929 . S
H668 C687 0.929 1_554 S
H669 C699 0.931 . S
H670 C691 0.929 . S
H671 C700 0.930 . S
H672 C692 0.931 . S
O673 Co649 2.102 . S
O673 C701 1.214 . S
H674 C702 0.929 . S
H675 C703 0.929 . S
H676 C704 0.930 . S
H677 C705 0.929 . S
H678 C707 0.930 . S
H679 C684 0.930 . S
H680 C688 0.930 . S
O681 Co650 2.037 . S
O681 C701 1.234 1_556 S
C682 O656 1.269 . S
C682 O657 1.257 . S
C683 H658 0.930 . S
C683 C686 1.388 . S
C683 C688 1.418 . S
C684 H679 0.930 . S
C684 C687 1.404 . S
C684 C688 1.353 . S
N685 Co650 2.145 . S
N685 C686 1.397 . S
N685 C687 1.334 . S
C686 H667 0.929 . S
C686 C683 1.388 . S
C686 N685 1.397 . S
C687 H668 0.929 1_556 S
C687 C684 1.404 . S
C687 N685 1.334 . S
C688 H680 0.930 . S
C688 C683 1.418 . S
C688 C684 1.353 . S
C689 H659 0.930 . S
C689 N690 1.330 1_554 S
C689 C691 1.446 . S
N690 Co649 2.146 1_556 S
N690 C689 1.330 1_556 S
N690 C694 1.418 . S
C691 H670 0.929 . S
C691 C689 1.446 . S
C691 C692 1.332 1_554 S
C692 H672 0.931 . S
C692 C691 1.332 1_556 S
C692 C693 1.267 . S
C693 H661 0.929 . S
C693 C692 1.267 . S
C693 C694 1.251 . S
C694 H664 0.929 . S
C694 N690 1.418 . S
C694 C693 1.251 . S
C695 H662 0.930 . S
C695 C697 1.406 . S
C695 C700 1.261 . S
C696 H663 0.930 . S
C696 N698 1.325 . S
C696 C699 1.357 . S
C697 H665 0.928 1_556 S
C697 C695 1.406 . S
C697 N698 1.261 . S
N698 Co649 2.205 1_556 S
N698 C696 1.325 . S
N698 C697 1.261 . S
C699 H669 0.931 . S
C699 C696 1.357 . S
C699 C700 1.312 . S
C700 H671 0.930 . S
C700 C695 1.261 . S
C700 C699 1.312 . S
C701 O673 1.214 . S
C701 O681 1.234 1_554 S
C702 H674 0.929 . S
C702 C705 1.391 . S
C702 C707 1.391 . S
C703 H675 0.929 . S
C703 C704 1.390 . S
C703 N706 1.391 . S
C704 H676 0.930 . S
C704 C703 1.390 . S
C704 C705 1.392 . S
C705 H677 0.929 . S
C705 C702 1.391 . S
C705 C704 1.392 . S
N706 Co650 2.257 1_554 S
N706 C703 1.391 . S
N706 C707 1.388 . S
C707 H678 0.930 . S
C707 C702 1.391 . S
C707 N706 1.388 . S
C708 C709 1.369 . S
C708 C710 1.419 . S
C708 H712 0.930 . S
C709 C708 1.369 . S
C709 C718 1.429 . S
C710 C708 1.419 . S
C710 C711 1.363 . S
C710 H713 0.929 . S
C711 C710 1.363 . S
C711 C717 1.428 . S
H712 C708 0.930 . S
H713 C710 0.929 . S
S714 N715 1.613 . S
S714 N716 1.610 . S
N715 S714 1.613 . S
N715 C718 1.350 . S
N716 S714 1.610 . S
N716 C717 1.351 . S
C717 C711 1.428 . S
C717 N716 1.351 . S
C717 C718 1.434 . S
C718 C709 1.429 . S
C718 N715 1.350 . S
C718 C717 1.434 . S
C719 C720 1.369 . S
C719 C721 1.419 . S
C719 H723 0.930 . S
C720 C719 1.369 . S
C720 C729 1.429 . S
C721 C719 1.419 . S
C721 C722 1.363 . S
C721 H724 0.929 . S
C722 C721 1.363 . S
C722 C728 1.428 . S
H723 C719 0.930 . S
H724 C721 0.929 . S
S725 N726 1.613 . S
S725 N727 1.610 . S
N726 S725 1.613 . S
N726 C729 1.350 . S
N727 S725 1.610 . S
N727 C728 1.351 . S
C728 C722 1.428 . S
C728 N727 1.351 . S
C728 C729 1.434 . S
C729 C720 1.429 . S
C729 N726 1.350 . S
C729 C728 1.434 . S
C730 C731 1.369 . S
C730 C732 1.419 . S
C730 H734 0.930 . S
C731 C730 1.369 . S
C731 C740 1.429 . S
C732 C730 1.419 . S
C732 C733 1.363 . S
C732 H735 0.929 . S
C733 C732 1.363 . S
C733 C739 1.428 . S
H734 C730 0.930 . S
H735 C732 0.929 . S
S736 N737 1.613 . S
S736 N738 1.610 . S
N737 S736 1.613 . S
N737 C740 1.350 . S
N738 S736 1.610 . S
N738 C739 1.351 . S
C739 C733 1.428 . S
C739 N738 1.351 . S
C739 C740 1.434 . S
C740 C731 1.429 . S
C740 N737 1.350 . S
C740 C739 1.434 . S
C741 C742 1.369 . S
C741 C743 1.419 . S
C741 H745 0.930 . S
C742 C741 1.369 . S
C742 C751 1.429 . S
C743 C741 1.419 . S
C743 C744 1.363 . S
C743 H746 0.929 . S
C744 C743 1.363 . S
C744 C750 1.428 . S
H745 C741 0.930 . S
H746 C743 0.929 . S
S747 N748 1.613 . S
S747 N749 1.610 . S
N748 S747 1.613 . S
N748 C751 1.350 . S
N749 S747 1.610 . S
N749 C750 1.351 . S
C750 C744 1.428 . S
C750 N749 1.351 . S
C750 C751 1.434 . S
C751 C742 1.429 . S
C751 N748 1.350 . S
C751 C750 1.434 . S
C752 C753 1.369 . S
C752 C754 1.419 . S
C752 H756 0.930 . S
C753 C752 1.369 . S
C753 C762 1.429 . S
C754 C752 1.419 . S
C754 C755 1.363 . S
C754 H757 0.929 . S
C755 C754 1.363 . S
C755 C761 1.428 . S
H756 C752 0.930 . S
H757 C754 0.929 . S
S758 N759 1.613 . S
S758 N760 1.610 . S
N759 S758 1.613 . S
N759 C762 1.350 . S
N760 S758 1.610 . S
N760 C761 1.351 . S
C761 C755 1.428 . S
C761 N760 1.351 . S
C761 C762 1.434 . S
C762 C753 1.429 . S
C762 N759 1.350 . S
C762 C761 1.434 . S
C763 C764 1.369 . S
C763 C765 1.419 . S
C763 H767 0.930 . S
C764 C763 1.369 . S
C764 C773 1.429 . S
C765 C763 1.419 . S
C765 C766 1.363 . S
C765 H768 0.929 . S
C766 C765 1.363 . S
C766 C772 1.428 . S
H767 C763 0.930 . S
H768 C765 0.929 . S
S769 N770 1.613 . S
S769 N771 1.610 . S
N770 S769 1.613 . S
N770 C773 1.350 . S
N771 S769 1.610 . S
N771 C772 1.351 . S
C772 C766 1.428 . S
C772 N771 1.351 . S
C772 C773 1.434 . S
C773 C764 1.429 . S
C773 N770 1.350 . S
C773 C772 1.434 . S
C774 C775 1.369 . S
C774 C776 1.419 . S
C774 H778 0.930 . S
C775 C774 1.369 . S
C775 C784 1.429 . S
C776 C774 1.419 . S
C776 C777 1.363 . S
C776 H779 0.929 . S
C777 C776 1.363 . S
C777 C783 1.428 . S
H778 C774 0.930 . S
H779 C776 0.929 . S
S780 N781 1.613 . S
S780 N782 1.610 . S
N781 S780 1.613 . S
N781 C784 1.350 . S
N782 S780 1.610 . S
N782 C783 1.351 . S
C783 C777 1.428 . S
C783 N782 1.351 . S
C783 C784 1.434 . S
C784 C775 1.429 . S
C784 N781 1.350 . S
C784 C783 1.434 . S
C785 C786 1.369 . S
C785 C787 1.419 . S
C785 H789 0.930 . S
C786 C785 1.369 . S
C786 C795 1.429 . S
C787 C785 1.419 . S
C787 C788 1.363 . S
C787 H790 0.929 . S
C788 C787 1.363 . S
C788 C794 1.428 . S
H789 C785 0.930 . S
H790 C787 0.929 . S
S791 N792 1.613 . S
S791 N793 1.610 . S
N792 S791 1.613 . S
N792 C795 1.350 . S
N793 S791 1.610 . S
N793 C794 1.351 . S
C794 C788 1.428 . S
C794 N793 1.351 . S
C794 C795 1.434 . S
C795 C786 1.429 . S
C795 N792 1.350 . S
C795 C794 1.434 . S
C796 C797 1.348 1_556 S
C796 C798 1.419 . S
C796 H800 0.930 . S
C797 C796 1.348 1_554 S
C797 C806 1.452 . S
C798 C796 1.419 . S
C798 C799 1.363 1_556 S
C798 H801 0.929 . S
C799 C798 1.363 1_554 S
C799 C805 1.428 . S
H800 C796 0.930 . S
H801 C798 0.929 . S
S802 N803 1.613 . S
S802 N804 1.610 . S
N803 S802 1.613 . S
N803 C806 1.350 . S
N804 S802 1.610 . S
N804 C805 1.351 . S
C805 C799 1.428 . S
C805 N804 1.351 . S
C805 C806 1.434 . S
C806 C797 1.452 . S
C806 N803 1.350 . S
C806 C805 1.434 . S
C807 C808 1.369 . S
C807 C809 1.419 . S
C807 H811 0.930 . S
C808 C807 1.369 . S
C808 C817 1.429 . S
C809 C807 1.419 . S
C809 C810 1.363 . S
C809 H812 0.929 . S
C810 C809 1.363 . S
C810 C816 1.428 . S
H811 C807 0.930 . S
H812 C809 0.929 . S
S813 N814 1.613 . S
S813 N815 1.610 . S
N814 S813 1.613 . S
N814 C817 1.350 . S
N815 S813 1.610 . S
N815 C816 1.351 . S
C816 C810 1.428 . S
C816 N815 1.351 . S
C816 C817 1.434 . S
C817 C808 1.429 . S
C817 N814 1.350 . S
C817 C816 1.434 . S
C818 C819 1.369 . S
C818 C820 1.419 . S
C818 H822 0.930 . S
C819 C818 1.369 . S
C819 C828 1.429 . S
C820 C818 1.419 . S
C820 C821 1.363 . S
C820 H823 0.929 . S
C821 C820 1.363 . S
C821 C827 1.428 . S
H822 C818 0.930 . S
H823 C820 0.929 . S
S824 N825 1.613 . S
S824 N826 1.610 . S
N825 S824 1.613 . S
N825 C828 1.350 . S
N826 S824 1.610 . S
N826 C827 1.351 . S
C827 C821 1.428 . S
C827 N826 1.351 . S
C827 C828 1.434 . S
C828 C819 1.429 . S
C828 N825 1.350 . S
C828 C827 1.434 . S
C829 C830 1.369 . S
C829 C831 1.419 . S
C829 H833 0.930 . S
C830 C829 1.369 . S
C830 C839 1.429 1_554 S
C831 C829 1.419 . S
C831 C832 1.365 . S
C831 H834 0.929 . S
C832 C831 1.365 . S
C832 C838 1.427 1_554 S
H833 C829 0.930 . S
H834 C831 0.929 . S
S835 N836 1.613 . S
S835 N837 1.610 . S
N836 S835 1.613 . S
N836 C839 1.350 . S
N837 S835 1.610 . S
N837 C838 1.351 . S
C838 C832 1.427 1_556 S
C838 N837 1.351 . S
C838 C839 1.434 . S
C839 C830 1.429 1_556 S
C839 N836 1.350 . S
C839 C838 1.434 . S
C840 C841 1.369 . S
C840 C842 1.419 1_545 S
C840 H844 0.930 . S
C841 C840 1.369 . S
C841 C850 1.429 . S
C842 C840 1.419 1_565 S
C842 C843 1.363 . S
C842 H845 0.929 . S
C843 C842 1.363 . S
C843 C849 1.428 . S
H844 C840 0.930 . S
H845 C842 0.929 . S
S846 N847 1.613 . S
S846 N848 1.626 . S
N847 S846 1.613 . S
N847 C850 1.350 . S
N848 S846 1.626 . S
N848 C849 1.360 1_545 S
C849 C843 1.428 . S
C849 N848 1.360 1_565 S
C849 C850 1.434 1_565 S
C850 C841 1.429 . S
C850 N847 1.350 . S
C850 C849 1.434 1_545 S
C851 C852 1.369 . S
C851 C853 1.419 . S
C851 H855 0.930 . S
C852 C851 1.369 . S
C852 C861 1.429 . S
C853 C851 1.419 . S
C853 C854 1.363 . S
C853 H856 0.929 . S
C854 C853 1.363 . S
C854 C860 1.428 . S
H855 C851 0.930 . S
H856 C853 0.929 . S
S857 N858 1.613 . S
S857 N859 1.610 . S
N858 S857 1.613 . S
N858 C861 1.350 . S
N859 S857 1.610 . S
N859 C860 1.351 . S
C860 C854 1.428 . S
C860 N859 1.351 . S
C860 C861 1.434 . S
C861 C852 1.429 . S
C861 N858 1.350 . S
C861 C860 1.434 . S
C862 C863 1.369 . S
C862 C864 1.419 1_655 S
C862 H866 0.930 . S
C863 C862 1.369 . S
C863 C872 1.429 1_556 S
C864 C862 1.419 1_455 S
C864 C865 1.363 . S
C864 H867 0.929 . S
C865 C864 1.363 . S
C865 C871 1.428 1_556 S
H866 C862 0.930 . S
H867 C864 0.929 . S
S868 N869 1.613 1_455 S
S868 N870 1.610 . S
N869 S868 1.613 1_655 S
N869 C872 1.350 . S
N870 S868 1.610 . S
N870 C871 1.351 . S
C871 C865 1.428 1_554 S
C871 N870 1.351 . S
C871 C872 1.434 1_455 S
C872 C863 1.429 1_554 S
C872 N869 1.350 . S
C872 C871 1.434 1_655 S
C873 C874 1.369 . S
C873 C875 1.419 1_455 S
C873 H877 0.930 . S
C874 C873 1.369 . S
C874 C883 1.429 . S
C875 C873 1.419 1_655 S
C875 C876 1.363 . S
C875 H878 0.929 . S
C876 C875 1.363 . S
C876 C882 1.428 . S
H877 C873 0.930 . S
H878 C875 0.929 . S
S879 N880 1.613 . S
S879 N881 1.616 . S
N880 S879 1.613 . S
N880 C883 1.350 . S
N881 S879 1.616 . S
N881 C882 1.355 1_455 S
C882 C876 1.428 . S
C882 N881 1.355 1_655 S
C882 C883 1.434 1_655 S
C883 C874 1.429 . S
C883 N880 1.350 . S
C883 C882 1.434 1_455 S
C884 C885 1.369 . S
C884 C886 1.419 1_545 S
C884 H888 0.930 . S
C885 C884 1.369 . S
C885 C894 1.429 . S
C886 C884 1.419 1_565 S
C886 C887 1.363 . S
C886 H889 0.929 . S
C887 C886 1.363 . S
C887 C893 1.428 . S
H888 C884 0.930 . S
H889 C886 0.929 . S
S890 N891 1.613 . S
S890 N892 1.610 . S
N891 S890 1.613 . S
N891 C894 1.350 . S
N892 S890 1.610 . S
N892 C893 1.351 1_545 S
C893 C887 1.428 . S
C893 N892 1.351 1_565 S
C893 C894 1.434 1_565 S
C894 C885 1.429 . S
C894 N891 1.350 . S
C894 C893 1.434 1_545 S
C895 C896 1.369 . S
C895 C897 1.419 . S
C895 H899 0.930 . S
C896 C895 1.369 . S
C896 C905 1.429 1_554 S
C897 C895 1.419 . S
C897 C898 1.363 . S
C897 H900 0.929 . S
C898 C897 1.363 . S
C898 C904 1.428 1_554 S
H899 C895 0.930 . S
H900 C897 0.929 . S
S901 N902 1.613 . S
S901 N903 1.610 . S
N902 S901 1.613 . S
N902 C905 1.350 . S
N903 S901 1.610 . S
N903 C904 1.351 . S
C904 C898 1.428 1_556 S
C904 N903 1.351 . S
C904 C905 1.434 . S
C905 C896 1.429 1_556 S
C905 N902 1.350 . S
C905 C904 1.434 . S
C906 C907 1.369 . S
C906 C908 1.419 . S
C906 H910 0.930 . S
C907 C906 1.369 . S
C907 C916 1.429 . S
C908 C906 1.419 . S
C908 C909 1.363 . S
C908 H911 0.929 . S
C909 C908 1.363 . S
C909 C915 1.428 . S
H910 C906 0.930 . S
H911 C908 0.929 . S
S912 N913 1.613 . S
S912 N914 1.610 . S
N913 S912 1.613 . S
N913 C916 1.350 . S
N914 S912 1.610 . S
N914 C915 1.351 . S
C915 C909 1.428 . S
C915 N914 1.351 . S
C915 C916 1.434 . S
C916 C907 1.429 . S
C916 N913 1.350 . S
C916 C915 1.434 . S
C917 C918 1.369 . S
C917 C919 1.419 . S
C917 H921 0.930 . S
C918 C917 1.369 . S
C918 C927 1.429 . S
C919 C917 1.419 . S
C919 C920 1.363 . S
C919 H922 0.929 . S
C920 C919 1.363 . S
C920 C926 1.428 . S
H921 C917 0.930 . S
H922 C919 0.929 . S
S923 N924 1.613 . S
S923 N925 1.610 . S
N924 S923 1.613 . S
N924 C927 1.350 . S
N925 S923 1.610 . S
N925 C926 1.351 . S
C926 C920 1.428 . S
C926 N925 1.351 . S
C926 C927 1.434 . S
C927 C918 1.429 . S
C927 N924 1.350 . S
C927 C926 1.434 . S
C928 C929 1.369 . S
C928 C930 1.419 . S
C928 H932 0.930 . S
C929 C928 1.369 . S
C929 C938 1.429 . S
C930 C928 1.419 . S
C930 C931 1.363 . S
C930 H933 0.929 . S
C931 C930 1.363 . S
C931 C937 1.428 . S
H932 C928 0.930 . S
H933 C930 0.929 . S
S934 N935 1.613 . S
S934 N936 1.610 . S
N935 S934 1.613 . S
N935 C938 1.350 . S
N936 S934 1.610 . S
N936 C937 1.351 . S
C937 C931 1.428 . S
C937 N936 1.351 . S
C937 C938 1.434 . S
C938 C929 1.429 . S
C938 N935 1.350 . S
C938 C937 1.434 . S
C939 C940 1.369 . S
C939 C941 1.419 . S
C939 H943 0.930 . S
C940 C939 1.369 . S
C940 C949 1.429 . S
C941 C939 1.419 . S
C941 C942 1.363 . S
C941 H944 0.929 . S
C942 C941 1.363 . S
C942 C948 1.428 . S
H943 C939 0.930 . S
H944 C941 0.929 . S
S945 N946 1.613 . S
S945 N947 1.610 . S
N946 S945 1.613 . S
N946 C949 1.350 . S
N947 S945 1.610 . S
N947 C948 1.351 . S
C948 C942 1.428 . S
C948 N947 1.351 . S
C948 C949 1.434 . S
C949 C940 1.429 . S
C949 N946 1.350 . S
C949 C948 1.434 . S
C950 C951 1.369 . S
C950 C952 1.419 . S
C950 H954 0.930 . S
C951 C950 1.369 . S
C951 C960 1.429 . S
C952 C950 1.419 . S
C952 C953 1.363 . S
C952 H955 0.929 . S
C953 C952 1.363 . S
C953 C959 1.428 . S
H954 C950 0.930 . S
H955 C952 0.929 . S
S956 N957 1.613 . S
S956 N958 1.610 . S
N957 S956 1.613 . S
N957 C960 1.350 . S
N958 S956 1.610 . S
N958 C959 1.351 . S
C959 C953 1.428 . S
C959 N958 1.351 . S
C959 C960 1.434 . S
C960 C951 1.429 . S
C960 N957 1.350 . S
C960 C959 1.434 . S
C961 C962 1.369 . S
C961 C963 1.419 . S
C961 H965 0.930 . S
C962 C961 1.369 . S
C962 C971 1.429 . S
C963 C961 1.419 . S
C963 C964 1.363 . S
C963 H966 0.929 . S
C964 C963 1.363 . S
C964 C970 1.428 . S
H965 C961 0.930 . S
H966 C963 0.929 . S
S967 N968 1.613 . S
S967 N969 1.610 . S
N968 S967 1.613 . S
N968 C971 1.350 . S
N969 S967 1.610 . S
N969 C970 1.351 . S
C970 C964 1.428 . S
C970 N969 1.351 . S
C970 C971 1.434 . S
C971 C962 1.429 . S
C971 N968 1.350 . S
C971 C970 1.434 . S
C709 C33 1.830 . S
C711 C623 1.835 . S
C720 C92 1.829 . S
C722 C682 1.834 . S
C731 C387 1.837 . S
C733 C151 1.829 . S
C742 C210 1.831 . S
C744 C446 1.832 . S
C753 C505 1.827 . S
C755 C269 1.836 . S
C764 C564 1.835 . S
C766 C328 1.830 . S
C775 C406 0.848 . S
C777 C52 0.843 . S
C786 C465 0.847 . S
C788 C111 0.843 . S
C797 C524 0.845 . S
C799 C170 0.847 . S
C808 C229 0.845 . S
C810 C583 0.844 . S
C819 C288 0.844 . S
C821 C642 0.846 . S
C830 C347 0.844 . S
C832 C701 0.847 . S
C841 C5 1.545 . S
C843 C182 1.550 . S
C852 C64 1.551 . S
C854 C241 1.549 . S
C863 C123 1.547 . S
C865 C300 1.546 . S
C874 C536 1.547 . S
C876 C359 1.550 . S
C885 C595 1.546 . S
C887 C418 1.550 . S
C896 C654 1.544 . S
C898 C477 1.546 . S
C907 C3 1.432 . S
C909 C475 1.431 . S
C918 C534 1.431 . S
C920 C62 1.433 . S
C929 C121 1.433 . S
C931 C593 1.431 . S
C940 C652 1.427 . S
C942 C180 1.428 . S
C951 C239 1.437 . S
C953 C357 1.436 . S
C962 C298 1.429 . S
C964 C416 1.431 . S
