# Generated by pormake.
# Topology sxb, (6)-cn, num edge types: 1
# Building blocks:
#     Node 0, Type 0, BuildingBlock: JUFBIX_clean_sbu_0, # of connection points: 6
#     Node 1, Type 0, BuildingBlock: JUFBIX_clean_sbu_0, # of connection points: 6
#     Node 2, Type 0, BuildingBlock: JUFBIX_clean_sbu_0, # of connection points: 6
#     Node 3, Type 0, BuildingBlock: JUFBIX_clean_sbu_0, # of connection points: 6
#     Edge 4, Type (0, 0), BuildingBlock: TEMPAE_clean_linker_10, # of connection points: 2
#     Edge 5, Type (0, 0), BuildingBlock: TEMPAE_clean_linker_10, # of connection points: 2
#     Edge 6, Type (0, 0), BuildingBlock: TEMPAE_clean_linker_10, # of connection points: 2
#     Edge 7, Type (0, 0), BuildingBlock: TEMPAE_clean_linker_10, # of connection points: 2
#     Edge 8, Type (0, 0), BuildingBlock: TEMPAE_clean_linker_10, # of connection points: 2
#     Edge 9, Type (0, 0), BuildingBlock: TEMPAE_clean_linker_10, # of connection points: 2
#     Edge 10, Type (0, 0), BuildingBlock: TEMPAE_clean_linker_10, # of connection points: 2
#     Edge 11, Type (0, 0), BuildingBlock: TEMPAE_clean_linker_10, # of connection points: 2
#     Edge 12, Type (0, 0), BuildingBlock: TEMPAE_clean_linker_10, # of connection points: 2
#     Edge 13, Type (0, 0), BuildingBlock: TEMPAE_clean_linker_10, # of connection points: 2
#     Edge 14, Type (0, 0), BuildingBlock: TEMPAE_clean_linker_10, # of connection points: 2
#     Edge 15, Type (0, 0), BuildingBlock: TEMPAE_clean_linker_10, # of connection points: 2
# Relax obj value: 0.055
# Max RMSD: 0.078
# Mean RMSD: 0.078
data_MOF--net-sxb--node1-JUFBIX_clean_sbu_0--edge1-TEMPAE_clean_linker_10
_symmetry_space_group_name_H-M    P1
_symmetry_Int_Tables_number       1
_symmetry_cell_setting            triclinic
loop_
_symmetry_equiv_pos_as_xyz
'x, y, z'
_cell_length_a     15.047377
_cell_length_b     36.513965
_cell_length_c     30.157993
_cell_angle_alpha  89.878054
_cell_angle_beta   94.774039
_cell_angle_gamma 89.968874
loop_
_atom_site_label
_atom_site_type_symbol
_atom_site_fract_x
_atom_site_fract_y
_atom_site_fract_z
_atom_type_partial_charge
Co0 Co 0.95661 1.01241 0.00484 0.0
C1 C 0.9573 0.04932 0.08548 0.0
Co2 Co 0.95286 0.07329 0.99859 0.0
C3 C 0.02715 0.93831 1.00074 0.0
C4 C 0.90263 0.93987 0.03013 0.0
N5 N 0.96202 0.96149 0.01145 0.0
N6 N 0.01063 0.90325 0.01197 0.0
C7 C 0.93201 0.90414 0.03025 0.0
H8 H 0.08583 0.94695 0.98507 0.0
H9 H 0.84258 0.94951 0.0437 0.0
C10 C 0.95234 1.03636 0.91796 0.0
N11 N 0.9474 0.12421 0.99209 0.0
C12 C 0.88244 0.14733 1.00313 0.0
C13 C 0.00691 0.14595 0.97369 0.0
N14 N 0.89924 0.18248 0.99245 0.0
C15 C -0.02219 0.18171 0.97411 0.0
C16 C 0.12283 0.04482 0.00638 0.0
O17 O 0.95545 1.00775 0.9422 0.0
O18 O 0.94996 0.06783 0.93587 0.0
O19 O 0.07933 0.07462 1.00263 0.0
O20 O 0.08192 1.01461 0.00843 0.0
O21 O 0.95589 0.07797 0.06136 0.0
H22 H 0.06703 0.13641 0.9601 0.0
H23 H 0.82385 0.13861 0.01882 0.0
O24 O 0.95785 1.01785 0.06745 0.0
O25 O 0.83046 1.01111 1.00097 0.0
O26 O 0.82721 0.07104 0.99464 0.0
C27 C 0.78645 1.04077 0.99673 0.0
H28 H 0.89945 0.8808 0.04404 0.0
H29 H 0.01065 0.20518 0.9608 0.0
Co30 Co -0.0214 1.01291 0.49977 0.0
C31 C -0.02363 0.05081 0.41916 0.0
Co32 Co -0.01793 0.07374 0.506 0.0
C33 C 0.91426 0.93806 0.50692 0.0
C34 C 0.02204 0.94254 0.46515 0.0
N35 N -0.02693 0.96228 0.492 0.0
N36 N 0.92385 0.90421 0.48984 0.0
C37 C -0.00817 0.90696 0.46365 0.0
H38 H 0.86248 0.94553 0.52809 0.0
H39 H 0.07422 0.95364 0.44648 0.0
C40 C -0.01573 1.03588 0.5866 0.0
N41 N -0.01243 0.1246 0.51335 0.0
C42 C 0.0535 0.1478 0.50369 0.0
C43 C 0.92708 0.14617 0.53123 0.0
N44 N 0.03634 0.18281 0.51474 0.0
C45 C 0.95655 0.18188 0.53187 0.0
C46 C 0.81232 0.04519 0.49888 0.0
O47 O -0.0187 1.00736 0.56236 0.0
O48 O -0.01433 0.06744 0.56868 0.0
O49 O 0.85567 0.07501 0.50228 0.0
O50 O 0.85333 1.01496 0.49695 0.0
O51 O -0.02163 0.07936 0.44328 0.0
H52 H 0.86602 0.13653 0.5438 0.0
H53 H 0.11308 0.13926 0.48876 0.0
O54 O -0.0242 1.01932 0.43718 0.0
O55 O 0.1046 1.01145 0.50281 0.0
O56 O 0.10766 0.07135 0.50959 0.0
C57 C 0.14849 1.04111 0.50711 0.0
H58 H 0.01684 0.88496 0.44413 0.0
H59 H 0.92309 0.20519 0.54511 0.0
Co60 Co 0.45971 0.5129 0.01097 0.0
C61 C 0.46267 0.5527 0.09035 0.0
Co62 Co 0.45581 0.57318 1.00265 0.0
C63 C 0.52469 0.43813 0.0065 0.0
C64 C 0.41705 0.4432 0.04825 0.0
N65 N 0.46583 0.46255 0.02088 0.0
N66 N 0.51528 0.4045 0.02436 0.0
C67 C 0.44744 0.40762 0.05058 0.0
H68 H 0.57612 0.4453 0.98497 0.0
H69 H 0.36459 0.45454 0.0665 0.0
C70 C 0.45223 0.53339 0.92325 0.0
N71 N 0.44932 0.62357 0.99252 0.0
C72 C 0.39088 0.64826 0.00675 0.0
C73 C 0.49687 0.64244 0.96413 0.0
N74 N 0.39935 0.68155 0.98778 0.0
C75 C 0.46627 0.67794 0.96109 0.0
C76 C 0.62566 0.54519 0.01029 0.0
O77 O 0.46272 0.50566 0.94873 0.0
O78 O 0.44433 0.56502 0.94005 0.0
O79 O 0.58129 0.57433 1.00186 0.0
O80 O 0.58529 0.51547 0.01717 0.0
O81 O 0.46721 0.58065 0.06536 0.0
H82 H 0.54823 0.63075 0.94545 0.0
H83 H 0.34006 0.64148 0.02879 0.0
O84 O 0.4567 0.52094 0.07314 0.0
O85 O 0.33334 0.51099 0.00474 0.0
O86 O 0.33113 0.5712 1.00368 0.0
C87 C 0.28997 0.54089 1.00376 0.0
H88 H 0.42236 0.38584 0.07051 0.0
H89 H 0.49023 0.69928 0.94015 0.0
Co90 Co 0.48078 0.5129 0.50419 0.0
C91 C 0.47998 0.55193 0.42427 0.0
Co92 Co 0.48461 0.57359 0.51177 0.0
C93 C 0.41549 0.43798 0.50916 0.0
C94 C 0.52507 0.44299 0.46861 0.0
N95 N 0.47509 0.46238 0.49534 0.0
N96 N 0.42559 0.40436 0.49151 0.0
C97 C 0.49474 0.40746 0.4661 0.0
H98 H 0.36285 0.44517 0.52995 0.0
H99 H 0.57809 0.45433 0.45071 0.0
C100 C 0.48544 0.5346 0.59166 0.0
N101 N 0.49039 0.6243 0.52003 0.0
C102 C 0.55542 0.64763 0.5096 0.0
C103 C 0.43096 0.64565 0.53901 0.0
N104 N 0.53873 0.68254 0.5212 0.0
C105 C 0.46017 0.68141 0.53952 0.0
C106 C 0.31464 0.54527 0.5036 0.0
O107 O 0.48258 0.50646 0.56676 0.0
O108 O 0.48741 0.56642 0.57442 0.0
O109 O 0.35817 0.57502 0.50775 0.0
O110 O 0.35551 0.51507 0.50104 0.0
O111 O 0.48176 0.58008 0.44908 0.0
H112 H 0.37072 0.63584 0.55226 0.0
H113 H 0.61388 0.63925 0.49359 0.0
O114 O 0.47887 0.52019 0.44164 0.0
O115 O 0.60685 0.51134 0.50762 0.0
O116 O 0.61022 0.57113 0.51568 0.0
C117 C 0.65091 0.54091 0.51267 0.0
H118 H 0.5205 0.38573 0.44643 0.0
H119 H 0.42734 0.70463 0.55335 0.0
C120 C 0.31018 0.72224 0.03234 0.0
C121 C 0.3435 0.71336 0.99167 0.0
C122 C 0.25682 0.75354 0.03648 0.0
C123 C 0.23473 0.77607 0.9988 0.0
C124 C 0.26731 0.76689 0.95753 0.0
C125 C 0.32181 0.73588 0.95458 0.0
C126 C 0.22466 0.76267 0.08124 0.0
C127 C 0.2439 0.78962 0.91631 0.0
C128 C 0.02914 0.83703 0.99891 0.0
C129 C 0.06695 0.87163 0.00775 0.0
C130 C 0.08285 0.80579 0.9957 0.0
C131 C 0.17685 0.80905 1.00229 0.0
C132 C 0.21543 0.84392 0.01144 0.0
C133 C 0.16006 0.87481 0.01364 0.0
C134 C 0.03899 0.76934 0.98491 0.0
C135 C 0.31518 0.84853 0.01934 0.0
H136 H 0.32735 0.70504 0.0611 0.0
H137 H 0.3462 0.7288 0.92291 0.0
H138 H 0.24724 0.79055 0.09149 0.0
H139 H 0.15071 0.76279 0.07901 0.0
H140 H 0.24933 0.74288 0.10748 0.0
H141 H 0.27361 0.7785 0.88662 0.0
H142 H 0.1704 0.79079 0.9092 0.0
H143 H 0.26759 0.81814 0.92178 0.0
H144 H 0.95727 0.83453 0.9939 0.0
H145 H 0.18953 0.9014 0.02106 0.0
H146 H 0.05685 0.74946 0.01206 0.0
H147 H 0.06368 0.75801 0.9541 0.0
H148 H 0.96517 0.77151 0.98018 0.0
H149 H 0.34128 0.83088 0.04746 0.0
H150 H 0.33459 0.87734 0.02694 0.0
H151 H 0.34791 0.83965 0.98954 0.0
C152 C 0.59125 0.34913 0.05566 0.0
C153 C 0.57032 0.37261 0.0194 0.0
C154 C 0.64509 0.31806 0.05162 0.0
C155 C 0.67762 0.30978 0.01006 0.0
C156 C 0.65615 0.33326 0.9732 0.0
C157 C 0.60356 0.36461 0.97845 0.0
C158 C 0.66793 0.29429 0.09201 0.0
C159 C 0.68819 0.32512 0.92813 0.0
C160 C 0.88204 0.24841 0.00766 0.0
C161 C 0.84355 0.21413 0.9976 0.0
C162 C 0.82892 0.27967 0.01205 0.0
C163 C 0.73486 0.27677 0.00539 0.0
C164 C 0.69562 0.24224 0.99494 0.0
C165 C 0.75039 0.21129 0.9916 0.0
C166 C 0.87348 0.31574 0.02418 0.0
C167 C 0.59579 0.23803 0.98686 0.0
H168 H 0.56681 0.35551 0.08753 0.0
H169 H 0.5869 0.38254 0.95031 0.0
H170 H 0.64364 0.26598 0.08551 0.0
H171 H 0.7414 0.29276 0.0991 0.0
H172 H 0.6384 0.30477 0.12207 0.0
H173 H 0.66392 0.34557 0.9026 0.0
H174 H 0.76213 0.32479 0.93037 0.0
H175 H 0.66508 0.29755 0.9169 0.0
H176 H 0.95396 0.25062 0.01274 0.0
H177 H 0.72046 0.18495 0.98325 0.0
H178 H 0.84898 0.32636 0.05539 0.0
H179 H 0.85604 0.33631 0.99777 0.0
H180 H 0.94726 0.31329 0.02883 0.0
H181 H 0.56323 0.24614 0.01702 0.0
H182 H 0.57586 0.20949 0.97806 0.0
H183 H 0.57 0.25651 0.95948 0.0
C184 C 0.18566 0.2114 0.51855 0.0
C185 C 0.09273 0.21445 0.51103 0.0
C186 C 0.241 0.24231 0.51662 0.0
C187 C 0.20263 0.27704 0.50603 0.0
C188 C 0.10882 0.28015 0.49787 0.0
C189 C 0.05507 0.24892 0.5009 0.0
C190 C 0.34048 0.23786 0.52626 0.0
C191 C 0.06525 0.31643 0.48549 0.0
C192 C 0.33356 0.36438 0.53563 0.0
C193 C 0.36955 0.37262 0.49539 0.0
C194 C 0.28011 0.33312 0.53981 0.0
C195 C 0.26059 0.30999 0.50255 0.0
C196 C 0.29583 0.31854 0.46168 0.0
C197 C 0.35041 0.34951 0.45873 0.0
C198 C 0.24511 0.32467 0.58417 0.0
C199 C 0.27516 0.29517 0.42086 0.0
H200 H 0.21491 0.18491 0.52697 0.0
H201 H -0.01665 0.2513 0.49466 0.0
H202 H 0.37515 0.24618 0.4968 0.0
H203 H 0.36471 0.25604 0.55413 0.0
H204 H 0.35963 0.2092 0.5351 0.0
H205 H -0.00843 0.31417 0.47973 0.0
H206 H 0.08136 0.33671 0.51229 0.0
H207 H 0.09176 0.32732 0.45484 0.0
H208 H 0.34875 0.38204 0.56407 0.0
H209 H 0.37689 0.35609 0.42737 0.0
H210 H 0.26735 0.29697 0.59553 0.0
H211 H 0.17114 0.32447 0.58079 0.0
H212 H 0.26798 0.34488 0.61014 0.0
H213 H 0.2989 0.26676 0.42747 0.0
H214 H 0.30664 0.30587 0.39142 0.0
H215 H 0.20196 0.29383 0.41268 0.0
C216 C 0.84703 0.84911 0.45879 0.0
C217 C 0.86823 0.87253 0.49494 0.0
C218 C 0.79283 0.81819 0.46294 0.0
C219 C 0.76022 0.80997 0.50454 0.0
C220 C 0.78184 0.83342 0.54129 0.0
C221 C 0.83476 0.86465 0.5359 0.0
C222 C 0.76979 0.79448 0.42264 0.0
C223 C 0.74974 0.82532 0.58638 0.0
C224 C 0.55579 0.74864 0.50677 0.0
C225 C 0.59433 0.71429 0.5166 0.0
C226 C 0.60888 0.77994 0.5026 0.0
C227 C 0.70294 0.777 0.50934 0.0
C228 C 0.7422 0.74239 0.5197 0.0
C229 C 0.68747 0.71142 0.52275 0.0
C230 C 0.56432 0.81607 0.49048 0.0
C231 C 0.84202 0.73813 0.52789 0.0
H232 H 0.87161 0.85543 0.4269 0.0
H233 H 0.85157 0.88257 0.56394 0.0
H234 H 0.79419 0.76616 0.42919 0.0
H235 H 0.6963 0.79298 0.41566 0.0
H236 H 0.79911 0.80501 0.3925 0.0
H237 H 0.77397 0.84577 0.6118 0.0
H238 H 0.6758 0.82501 0.58414 0.0
H239 H 0.77287 0.79774 0.59778 0.0
H240 H 0.48388 0.75087 0.50158 0.0
H241 H 0.7174 0.685 0.53092 0.0
H242 H 0.58858 0.82672 0.45919 0.0
H243 H 0.582 0.83659 0.51681 0.0
H244 H 0.49052 0.81369 0.48597 0.0
H245 H 0.87465 0.74615 0.49768 0.0
H246 H 0.86191 0.70959 0.53692 0.0
H247 H 0.86778 0.75665 0.55512 0.0
C248 C 0.27335 0.06803 0.03219 0.0
C249 C 0.2196 0.04473 0.00484 0.0
C250 C 0.36637 0.06712 0.03141 0.0
C251 C 0.40513 1.0435 1.00115 0.0
C252 C 0.35034 1.02065 0.97262 0.0
C253 C 0.25805 1.021 0.97551 0.0
C254 C 0.42314 0.0909 0.06338 0.0
C255 C 0.38902 0.99614 0.93879 0.0
C256 C 0.63825 0.06695 0.97199 0.0
C257 C 0.68895 1.04047 0.99634 0.0
C258 C 0.54533 0.06784 0.97258 0.0
C259 C 0.50309 1.04246 0.99946 0.0
C260 C 0.5543 1.01588 0.02447 0.0
C261 C 0.6468 1.0148 0.02199 0.0
C262 C 0.49243 0.09575 0.94432 0.0
C263 C 0.51166 0.9891 0.05451 0.0
H264 H 0.24275 0.08616 0.05496 0.0
H265 H 0.21553 1.00331 0.95409 0.0
H266 H 0.47149 0.07364 0.0839 0.0
H267 H 0.4623 0.11048 0.04471 0.0
H268 H 0.38261 0.10664 0.08591 0.0
H269 H 0.33654 0.98167 0.91744 0.0
H270 H 0.43004 1.01256 0.91716 0.0
H271 H 0.43355 0.9754 0.95591 0.0
H272 H 0.67128 0.0867 0.95207 0.0
H273 H 0.68654 0.99466 0.04126 0.0
H274 H 0.45709 0.11449 0.96579 0.0
H275 H 0.44097 0.08176 0.92192 0.0
H276 H 0.53528 0.1124 0.92376 0.0
H277 H 0.47416 1.0042 0.07885 0.0
H278 H 0.56153 0.97111 0.07303 0.0
H279 H 0.46313 0.97159 0.03466 0.0
C280 C 0.29646 0.0672 0.53198 0.0
C281 C 0.24595 1.04088 0.50745 0.0
C282 C 0.38938 0.06812 0.53152 0.0
C283 C 0.43184 1.04291 0.50462 0.0
C284 C 0.38082 1.01652 0.47936 0.0
C285 C 0.28829 1.01543 0.48169 0.0
C286 C 0.44205 0.09585 0.55998 0.0
C287 C 0.42372 0.98995 0.44928 0.0
C288 C 0.66207 0.06858 0.47274 0.0
C289 C 0.71551 0.04513 0.50022 0.0
C290 C 0.56901 0.06769 0.47319 0.0
C291 C 0.52985 1.04389 0.50321 0.0
C292 C 0.58429 1.02088 0.53186 0.0
C293 C 0.67667 1.02124 0.52932 0.0
C294 C 0.51263 0.09166 0.44112 0.0
C295 C 0.54512 0.99618 0.56544 0.0
H296 H 0.26328 0.0868 0.55198 0.0
H297 H 0.24867 0.99541 0.46228 0.0
H298 H 0.49311 0.08169 0.58256 0.0
H299 H 0.47788 0.11462 0.53868 0.0
H300 H 0.39898 0.11248 0.58038 0.0
H301 H 0.37399 0.97213 0.43054 0.0
H302 H 0.46153 1.00521 0.42514 0.0
H303 H 0.47204 0.97227 0.46915 0.0
H304 H 0.69298 0.08682 0.45013 0.0
H305 H 0.71895 1.00343 0.55082 0.0
H306 H 0.47315 0.11113 0.45972 0.0
H307 H 0.46457 0.07454 0.42038 0.0
H308 H 0.55348 0.10754 0.41882 0.0
H309 H 0.50405 1.01251 0.58708 0.0
H310 H 0.59731 0.98145 0.58679 0.0
H311 H 0.50051 0.97565 0.5481 0.0
C312 C 0.76484 0.56806 0.98121 0.0
C313 C 0.72307 0.5453 0.01053 0.0
C314 C 0.85741 0.56677 0.97917 0.0
C315 C 0.909 0.54304 0.00822 0.0
C316 C 0.8671 0.52061 0.03862 0.0
C317 C 0.77414 0.52156 0.03885 0.0
C318 C 0.89982 0.59031 0.9455 0.0
C319 C 0.92042 0.49589 0.07108 0.0
C320 C 0.1405 0.51498 0.98077 0.0
C321 C 0.19295 0.54085 0.00494 0.0
C322 C 0.04739 0.51572 0.98092 0.0
C323 C 0.00705 0.54206 0.00724 0.0
C324 C 0.06031 0.56764 0.03258 0.0
C325 C 0.15278 0.56713 0.03045 0.0
C326 C -0.00782 0.48878 0.95244 0.0
C327 C 0.01979 0.59529 0.06219 0.0
H328 H 0.72479 0.58607 0.95896 0.0
H329 H 0.74138 0.50409 0.06163 0.0
H330 H 0.94736 0.60982 0.96274 0.0
H331 H 0.93841 0.57288 0.92387 0.0
H332 H 0.84971 0.60614 0.92415 0.0
H333 H 0.87766 0.48122 0.09362 0.0
H334 H 0.95733 0.47533 0.05278 0.0
H335 H -0.02939 0.51221 0.09159 0.0
H336 H 0.17218 0.49486 0.96088 0.0
H337 H 0.19403 0.58686 0.04949 0.0
H338 H 0.94399 0.50376 0.92914 0.0
H339 H 0.95288 0.47125 0.97363 0.0
H340 H 0.03387 0.47087 0.93283 0.0
H341 H -0.02553 0.61389 0.04187 0.0
H342 H 0.07117 0.61211 0.08129 0.0
H343 H -0.02079 0.58106 0.08602 0.0
C344 C 0.1642 0.56886 0.47806 0.0
C345 C 0.21787 0.54519 0.50512 0.0
C346 C 0.07116 0.56794 0.47873 0.0
C347 C 0.03229 0.54388 0.50856 0.0
C348 C 0.08698 0.52066 0.53682 0.0
C349 C 0.1793 0.52107 0.53405 0.0
C350 C 0.0145 0.59216 0.44709 0.0
C351 C 0.04815 0.49567 0.57021 0.0
C352 C 0.799 0.56676 0.53793 0.0
C353 C 0.74842 0.54064 0.51308 0.0
C354 C 0.89192 0.56773 0.5374 0.0
C355 C 0.9343 0.54279 0.51012 0.0
C356 C 0.88322 0.51658 0.4846 0.0
C357 C 0.79071 0.51542 0.48699 0.0
C358 C 0.94465 0.59525 0.56616 0.0
C359 C 0.92604 0.49028 0.45415 0.0
H360 H 0.19489 0.5873 0.4556 0.0
H361 H 0.22176 0.50309 0.55524 0.0
H362 H 0.96633 0.57519 0.42621 0.0
H363 H -0.02486 0.61143 0.46602 0.0
H364 H 0.05514 0.60827 0.4249 0.0
H365 H 0.10054 0.48083 0.59131 0.0
H366 H 0.00721 0.5118 0.59211 0.0
H367 H 0.0035 0.47524 0.55273 0.0
H368 H 0.76588 0.58617 0.55819 0.0
H369 H 0.75106 0.49556 0.46734 0.0
H370 H -0.01986 0.61428 0.54502 0.0
H371 H -0.00401 0.58095 0.58841 0.0
H372 H 0.90168 0.61161 0.58689 0.0
H373 H 0.96357 0.50577 0.4301 0.0
H374 H 0.87628 0.47255 0.43529 0.0
H375 H -0.02542 0.47251 0.47375 0.0
C376 C 0.03069 1.03079 0.34767 0.0
C377 C -0.02408 0.0538 0.37055 0.0
C378 C 0.02975 1.03237 0.30119 0.0
C379 C -0.03019 0.05649 0.27704 0.0
C380 C 0.91415 0.07977 0.30013 0.0
C381 C 0.91919 0.07866 0.34684 0.0
C382 C 0.09236 1.00803 0.27794 0.0
C383 C 0.8472 0.10488 0.27549 0.0
C384 C 0.0095 0.07914 0.1572 0.0
C385 C 0.95784 0.05234 0.13413 0.0
C386 C 0.01415 0.08089 0.20385 0.0
C387 C 0.96317 0.05613 0.22758 0.0
C388 C 0.90834 1.02989 0.2041 0.0
C389 C 0.90775 1.02784 0.15765 0.0
C390 C 0.07575 0.10837 0.22778 0.0
C391 C 0.85076 1.0038 0.22804 0.0
H392 H 0.07503 1.01179 0.36628 0.0
H393 H 0.87639 0.09619 0.36477 0.0
H394 H 0.05358 0.9875 0.25736 0.0
H395 H 0.13074 1.02454 0.25521 0.0
H396 H 0.14006 0.99327 0.30179 0.0
H397 H 0.80943 0.12146 0.29841 0.0
H398 H 0.88126 0.1237 0.25351 0.0
H399 H 0.79915 0.08843 0.25387 0.0
H400 H 0.04869 0.09788 0.13883 0.0
H401 H 0.86714 1.00736 0.13959 0.0
H402 H 0.12677 0.09379 0.24994 0.0
H403 H 0.03788 0.12627 0.24914 0.0
H404 H 0.11027 0.12586 0.2044 0.0
H405 H 0.89347 0.98487 0.24926 0.0
H406 H 0.80634 0.98725 0.20463 0.0
H407 H 0.80903 1.01924 0.25025 0.0
C408 C 0.00976 1.0075 0.85129 0.0
C409 C 0.95418 1.03326 0.86942 0.0
C410 C 0.01682 1.00601 0.8052 0.0
C411 C 0.96451 1.02996 0.77669 0.0
C412 C 0.90586 0.05512 0.79492 0.0
C413 C 0.90275 0.05696 0.84121 0.0
C414 C 0.08233 0.97971 0.78717 0.0
C415 C 0.84692 0.08031 0.76556 0.0
C416 C 0.03478 0.05649 0.66306 0.0
C417 C -0.01669 1.03268 0.63518 0.0
C418 C 0.03188 0.05486 0.70938 0.0
C419 C -0.02661 1.0298 0.72796 0.0
C420 C 0.92123 1.00566 0.6998 0.0
C421 C 0.92808 1.00695 0.65367 0.0
C422 C 0.09073 0.08022 0.73837 0.0
C423 C 0.85595 0.97944 0.7182 0.0
H424 H 0.05021 0.98946 0.87332 0.0
H425 H 0.85937 0.07671 0.8554 0.0
H426 H 0.0475 0.96122 0.76232 0.0
H427 H 0.13264 0.99523 0.76986 0.0
H428 H 0.11757 0.96278 0.81379 0.0
H429 H 0.79993 0.09608 0.7847 0.0
H430 H 0.88858 0.09995 0.74834 0.0
H431 H 0.80786 0.06425 0.73951 0.0
H432 H 0.07787 0.07622 0.64859 0.0
H433 H 0.8876 0.98883 0.63188 0.0
H434 H 0.12974 0.06434 0.76471 0.0
H435 H 0.04899 0.10002 0.75523 0.0
H436 H 0.13776 0.09581 0.719 0.0
H437 H 0.89086 0.96121 0.74346 0.0
H438 H 0.82111 0.96222 0.69186 0.0
H439 H 0.80531 0.99505 0.73513 0.0
C440 C 0.4296 0.58292 0.35264 0.0
C441 C 0.48043 0.55571 0.37564 0.0
C442 C 0.42538 0.58505 0.30596 0.0
C443 C 0.47592 0.56024 0.28211 0.0
C444 C 0.53025 0.53371 0.30556 0.0
C445 C 0.53043 0.53131 0.35199 0.0
C446 C 0.36434 0.61286 0.2821 0.0
C447 C 0.58736 0.50753 0.28158 0.0
C448 C 0.40714 0.53432 0.1624 0.0
C449 C 0.46268 0.55665 0.13896 0.0
C450 C 0.40805 0.53646 0.20885 0.0
C451 C 0.46854 0.56051 0.23255 0.0
C452 C 0.52461 0.58329 0.20892 0.0
C453 C 0.51978 0.58157 0.1622 0.0
C454 C 0.34509 0.51257 0.23259 0.0
C455 C 0.59202 0.60838 0.23305 0.0
H456 H 0.3905 0.60161 0.37106 0.0
H457 H 0.57046 0.51051 0.36995 0.0
H458 H 0.40218 0.63033 0.26018 0.0
H459 H 0.31211 0.59853 0.26052 0.0
H460 H 0.3313 0.63076 0.30555 0.0
H461 H 0.63204 0.49096 0.30496 0.0
H462 H 0.54425 0.48861 0.26067 0.0
H463 H 0.62878 0.52286 0.25907 0.0
H464 H 0.36237 0.51529 0.14426 0.0
H465 H 0.56316 0.59863 0.14395 0.0
H466 H 0.30758 0.52938 0.25534 0.0
H467 H 0.38358 0.49189 0.25321 0.0
H468 H 0.29663 0.49801 0.20906 0.0
H469 H 0.55861 0.62712 0.25531 0.0
H470 H 0.62894 0.62503 0.20978 0.0
H471 H 0.64076 0.59188 0.25432 0.0
C472 C 0.42837 0.50457 0.65799 0.0
C473 C 0.48372 0.53067 0.64022 0.0
C474 C 0.42083 0.50258 0.70407 0.0
C475 C 0.47239 0.52639 0.73297 0.0
C476 C 0.53102 0.55181 0.71511 0.0
C477 C 0.53462 0.55413 0.66884 0.0
C478 C 0.35537 0.476 0.72165 0.0
C479 C 0.58918 0.57688 0.74483 0.0
C480 C 0.4003 0.55287 0.84624 0.0
C481 C 0.45237 0.52944 0.87459 0.0
C482 C 0.40335 0.551 0.79993 0.0
C483 C 0.46239 0.52602 0.78169 0.0
C484 C 0.51466 0.50207 0.81024 0.0
C485 C 0.50788 0.50366 0.8564 0.0
C486 C 0.34443 0.57621 0.77059 0.0
C487 C 0.58035 0.47585 0.79223 0.0
H488 H 0.38829 0.48672 0.63569 0.0
H489 H 0.57782 0.57415 0.65499 0.0
H490 H 0.38979 0.4577 0.74696 0.0
H491 H 0.30385 0.49133 0.7383 0.0
H492 H 0.32162 0.4589 0.69487 0.0
H493 H 0.6366 0.59276 0.726 0.0
H494 H 0.54695 0.59643 0.76177 0.0
H495 H 0.62775 0.56073 0.77107 0.0
H496 H 0.35692 0.57265 0.86035 0.0
H497 H 0.54881 0.48578 0.87842 0.0
H498 H 0.30645 0.56028 0.74405 0.0
H499 H 0.38609 0.59626 0.75403 0.0
H500 H 0.29646 0.59153 0.78965 0.0
H501 H 0.54621 0.45798 0.76647 0.0
H502 H 0.61399 0.45829 0.81869 0.0
H503 H 0.63194 0.49153 0.77601 0.0
loop_
_geom_bond_atom_site_label_1
_geom_bond_atom_site_label_2
_geom_bond_distance
_geom_bond_site_symmetry_2
_ccdc_geom_bond_type
Co0 N5 2.057 1_556 S
Co0 O17 2.021 . S
Co0 O20 2.062 . S
Co0 O24 2.117 1_556 S
Co0 O25 2.020 1_455 S
C1 O21 1.259 1_455 S
C1 O24 1.258 1_545 S
Co2 N11 2.057 1_554 S
Co2 O18 2.117 1_554 S
Co2 O19 2.020 1_655 S
Co2 O21 2.021 . S
Co2 O26 2.062 . S
C3 N5 1.316 1_556 S
C3 N6 1.347 1_556 S
C3 H8 0.931 . S
C4 N5 1.375 . S
C4 C7 1.350 . S
C4 H9 0.930 . S
N5 Co0 2.057 1_554 S
N5 C3 1.316 1_554 S
N5 C4 1.375 . S
N6 C3 1.347 1_554 S
N6 C7 1.373 . S
C7 C4 1.350 . S
C7 N6 1.373 . S
C7 H28 0.931 . S
H8 C3 0.931 . S
H9 C4 0.930 . S
C10 O17 1.259 1_655 S
C10 O18 1.258 1_565 S
N11 Co2 2.057 1_556 S
N11 C12 1.316 1_556 S
N11 C13 1.375 . S
C12 N11 1.316 1_554 S
C12 N14 1.347 1_554 S
C12 H23 0.931 . S
C13 N11 1.375 . S
C13 C15 1.350 . S
C13 H22 0.930 . S
N14 C12 1.347 1_556 S
N14 C15 1.373 . S
C15 C13 1.350 . S
C15 N14 1.373 . S
C15 H29 0.931 . S
C16 O19 1.257 . S
C16 O20 1.254 1_544 S
O17 Co0 2.021 . S
O17 C10 1.259 1_455 S
O18 Co2 2.117 1_556 S
O18 C10 1.258 1_545 S
O19 Co2 2.020 1_455 S
O19 C16 1.257 . S
O20 Co0 2.062 . S
O20 C16 1.254 1_566 S
O21 C1 1.259 1_655 S
O21 Co2 2.021 . S
H22 C13 0.930 . S
H23 C12 0.931 . S
O24 Co0 2.117 1_554 S
O24 C1 1.258 1_565 S
O25 Co0 2.020 1_655 S
O25 C27 1.257 . S
O26 Co2 2.062 . S
O26 C27 1.254 1_544 S
C27 O25 1.257 . S
C27 O26 1.254 1_566 S
H28 C7 0.931 . S
H29 C15 0.931 . S
Co30 N35 2.057 . S
Co30 O47 2.021 . S
Co30 O50 2.062 . S
Co30 O54 2.117 . S
Co30 O55 2.020 1_655 S
C31 O51 1.259 1_655 S
C31 O54 1.258 1_545 S
Co32 N41 2.057 . S
Co32 O48 2.117 . S
Co32 O49 2.020 1_455 S
Co32 O51 2.021 . S
Co32 O56 2.062 . S
C33 N35 1.316 . S
C33 N36 1.347 . S
C33 H38 0.931 . S
C34 N35 1.375 . S
C34 C37 1.350 . S
C34 H39 0.930 . S
N35 Co30 2.057 . S
N35 C33 1.316 . S
N35 C34 1.375 . S
N36 C33 1.347 . S
N36 C37 1.373 . S
C37 C34 1.350 . S
C37 N36 1.373 . S
C37 H58 0.931 . S
H38 C33 0.931 . S
H39 C34 0.930 . S
C40 O47 1.259 1_455 S
C40 O48 1.258 1_565 S
N41 Co32 2.057 . S
N41 C42 1.316 . S
N41 C43 1.375 . S
C42 N41 1.316 . S
C42 N44 1.347 . S
C42 H53 0.931 . S
C43 N41 1.375 . S
C43 C45 1.350 . S
C43 H52 0.930 . S
N44 C42 1.347 . S
N44 C45 1.373 . S
C45 C43 1.350 . S
C45 N44 1.373 . S
C45 H59 0.931 . S
C46 O49 1.256 . S
C46 O50 1.255 1_545 S
O47 Co30 2.021 . S
O47 C40 1.259 1_655 S
O48 Co32 2.117 . S
O48 C40 1.258 1_545 S
O49 Co32 2.020 1_655 S
O49 C46 1.256 . S
O50 Co30 2.062 . S
O50 C46 1.255 1_565 S
O51 C31 1.259 1_455 S
O51 Co32 2.021 . S
H52 C43 0.930 . S
H53 C42 0.931 . S
O54 Co30 2.117 . S
O54 C31 1.258 1_565 S
O55 Co30 2.020 1_455 S
O55 C57 1.256 . S
O56 Co32 2.062 . S
O56 C57 1.255 1_545 S
C57 O55 1.256 . S
C57 O56 1.255 1_565 S
H58 C37 0.931 . S
H59 C45 0.931 . S
Co60 N65 2.057 1_556 S
Co60 O77 2.021 . S
Co60 O80 2.062 . S
Co60 O84 2.117 1_556 S
Co60 O85 2.020 . S
C61 O81 1.259 . S
C61 O84 1.258 . S
Co62 N71 2.057 1_554 S
Co62 O78 2.117 1_554 S
Co62 O79 2.020 . S
Co62 O81 2.021 . S
Co62 O86 2.062 . S
C63 N65 1.316 1_556 S
C63 N66 1.347 1_556 S
C63 H68 0.931 . S
C64 N65 1.375 . S
C64 C67 1.350 . S
C64 H69 0.930 . S
N65 Co60 2.057 1_554 S
N65 C63 1.316 1_554 S
N65 C64 1.375 . S
N66 C63 1.347 1_554 S
N66 C67 1.373 . S
C67 C64 1.350 . S
C67 N66 1.373 . S
C67 H88 0.931 . S
H68 C63 0.931 . S
H69 C64 0.930 . S
C70 O77 1.259 . S
C70 O78 1.258 . S
N71 Co62 2.057 1_556 S
N71 C72 1.316 1_556 S
N71 C73 1.375 . S
C72 N71 1.316 1_554 S
C72 N74 1.347 1_554 S
C72 H83 0.931 . S
C73 N71 1.375 . S
C73 C75 1.350 . S
C73 H82 0.930 . S
N74 C72 1.347 1_556 S
N74 C75 1.373 . S
C75 C73 1.350 . S
C75 N74 1.373 . S
C75 H89 0.931 . S
C76 O79 1.257 . S
C76 O80 1.254 1_554 S
O77 Co60 2.021 . S
O77 C70 1.259 . S
O78 Co62 2.117 1_556 S
O78 C70 1.258 . S
O79 Co62 2.020 . S
O79 C76 1.257 . S
O80 Co60 2.062 . S
O80 C76 1.254 1_556 S
O81 C61 1.259 . S
O81 Co62 2.021 . S
H82 C73 0.930 . S
H83 C72 0.931 . S
O84 Co60 2.117 1_554 S
O84 C61 1.258 . S
O85 Co60 2.020 . S
O85 C87 1.257 . S
O86 Co62 2.062 . S
O86 C87 1.254 1_554 S
C87 O85 1.257 . S
C87 O86 1.254 1_556 S
H88 C67 0.931 . S
H89 C75 0.931 . S
Co90 N95 2.057 . S
Co90 O107 2.021 . S
Co90 O110 2.062 . S
Co90 O114 2.117 . S
Co90 O115 2.020 . S
C91 O111 1.259 . S
C91 O114 1.258 . S
Co92 N101 2.057 . S
Co92 O108 2.117 . S
Co92 O109 2.020 . S
Co92 O111 2.021 . S
Co92 O116 2.062 . S
C93 N95 1.316 . S
C93 N96 1.347 . S
C93 H98 0.931 . S
C94 N95 1.375 . S
C94 C97 1.350 . S
C94 H99 0.930 . S
N95 Co90 2.057 . S
N95 C93 1.316 . S
N95 C94 1.375 . S
N96 C93 1.347 . S
N96 C97 1.373 . S
C97 C94 1.350 . S
C97 N96 1.373 . S
C97 H118 0.931 . S
H98 C93 0.931 . S
H99 C94 0.930 . S
C100 O107 1.259 . S
C100 O108 1.258 . S
N101 Co92 2.057 . S
N101 C102 1.316 . S
N101 C103 1.375 . S
C102 N101 1.316 . S
C102 N104 1.347 . S
C102 H113 0.931 . S
C103 N101 1.375 . S
C103 C105 1.350 . S
C103 H112 0.930 . S
N104 C102 1.347 . S
N104 C105 1.373 . S
C105 C103 1.350 . S
C105 N104 1.373 . S
C105 H119 0.931 . S
C106 O109 1.256 . S
C106 O110 1.255 . S
O107 Co90 2.021 . S
O107 C100 1.259 . S
O108 Co92 2.117 . S
O108 C100 1.258 . S
O109 Co92 2.020 . S
O109 C106 1.256 . S
O110 Co90 2.062 . S
O110 C106 1.255 . S
O111 C91 1.259 . S
O111 Co92 2.021 . S
H112 C103 0.930 . S
H113 C102 0.931 . S
O114 Co90 2.117 . S
O114 C91 1.258 . S
O115 Co90 2.020 . S
O115 C117 1.256 . S
O116 Co92 2.062 . S
O116 C117 1.255 . S
C117 O115 1.256 . S
C117 O116 1.255 . S
H118 C97 0.931 . S
H119 C105 0.931 . S
C120 C121 1.391 . S
C120 C122 1.394 . S
C120 H136 0.931 . S
C121 C120 1.391 . S
C121 C125 1.376 1_554 S
C122 C120 1.394 . S
C122 C123 1.381 . S
C122 C126 1.531 . S
C123 C122 1.381 . S
C123 C124 1.397 1_554 S
C123 C131 1.504 1_554 S
C124 C123 1.397 1_556 S
C124 C125 1.392 . S
C124 C127 1.511 . S
C125 C121 1.376 1_556 S
C125 C124 1.392 . S
C125 H137 0.929 . S
C126 C122 1.531 . S
C126 H138 0.960 . S
C126 H139 0.962 . S
C126 H140 0.960 . S
C127 C124 1.511 . S
C127 H141 0.961 . S
C127 H142 0.961 . S
C127 H143 0.961 . S
C128 C129 1.370 1_554 S
C128 C130 1.363 . S
C128 H144 0.931 . S
C129 C128 1.370 1_556 S
C129 C133 1.408 . S
C130 C128 1.363 . S
C130 C131 1.368 1_554 S
C130 C134 1.524 . S
C131 C123 1.504 1_556 S
C131 C130 1.368 1_556 S
C131 C132 1.405 . S
C132 C131 1.405 . S
C132 C133 1.404 . S
C132 C135 1.539 . S
C133 C129 1.408 . S
C133 C132 1.404 . S
C133 H145 0.930 . S
C134 C130 1.524 . S
C134 H146 0.956 . S
C134 H147 0.961 1_554 S
C134 H148 0.961 . S
C135 C132 1.539 . S
C135 H149 0.958 1_556 S
C135 H150 0.961 . S
C135 H151 0.960 . S
H136 C120 0.931 . S
H137 C125 0.929 . S
H138 C126 0.960 . S
H139 C126 0.962 . S
H140 C126 0.960 . S
H141 C127 0.961 . S
H142 C127 0.961 . S
H143 C127 0.961 . S
H144 C128 0.931 . S
H145 C133 0.930 . S
H146 C134 0.956 . S
H147 C134 0.961 1_556 S
H148 C134 0.961 . S
H149 C135 0.958 1_554 S
H150 C135 0.961 . S
H151 C135 0.960 . S
C152 C153 1.391 1_554 S
C152 C154 1.394 . S
C152 H168 0.931 . S
C153 C152 1.391 1_556 S
C153 C157 1.376 . S
C154 C152 1.394 . S
C154 C155 1.369 . S
C154 C158 1.531 . S
C155 C154 1.369 . S
C155 C156 1.410 1_554 S
C155 C163 1.503 . S
C156 C155 1.410 1_556 S
C156 C157 1.392 . S
C156 C159 1.511 . S
C157 C153 1.376 . S
C157 C156 1.392 . S
C157 H169 0.929 . S
C158 C154 1.531 . S
C158 H170 0.960 . S
C158 H171 0.962 . S
C158 H172 0.960 . S
C159 C156 1.511 . S
C159 H173 0.961 . S
C159 H174 0.961 . S
C159 H175 0.961 . S
C160 C161 1.370 1_556 S
C160 C162 1.363 . S
C160 H176 0.931 . S
C161 C160 1.370 1_554 S
C161 C165 1.408 . S
C162 C160 1.363 . S
C162 C163 1.370 1_556 S
C162 C166 1.524 . S
C163 C155 1.503 . S
C163 C162 1.370 1_554 S
C163 C164 1.403 . S
C164 C163 1.403 . S
C164 C165 1.404 . S
C164 C167 1.539 . S
C165 C161 1.408 . S
C165 C164 1.404 . S
C165 H177 0.930 . S
C166 C162 1.524 . S
C166 H178 0.956 . S
C166 H179 0.961 . S
C166 H180 0.961 . S
C167 C164 1.539 . S
C167 H181 0.958 . S
C167 H182 0.961 . S
C167 H183 0.960 . S
H168 C152 0.931 . S
H169 C157 0.929 . S
H170 C158 0.960 . S
H171 C158 0.962 . S
H172 C158 0.960 . S
H173 C159 0.961 . S
H174 C159 0.961 . S
H175 C159 0.961 . S
H176 C160 0.931 . S
H177 C165 0.930 . S
H178 C166 0.956 . S
H179 C166 0.961 . S
H180 C166 0.961 . S
H181 C167 0.958 . S
H182 C167 0.961 . S
H183 C167 0.960 . S
C184 C185 1.391 . S
C184 C186 1.394 . S
C184 H200 0.931 . S
C185 C184 1.391 . S
C185 C189 1.376 . S
C186 C184 1.394 . S
C186 C187 1.369 . S
C186 C190 1.531 . S
C187 C186 1.369 . S
C187 C188 1.410 . S
C187 C195 1.503 . S
C188 C187 1.410 . S
C188 C189 1.392 . S
C188 C191 1.511 . S
C189 C185 1.376 . S
C189 C188 1.392 . S
C189 H201 0.929 . S
C190 C186 1.531 . S
C190 H202 0.960 . S
C190 H203 0.962 . S
C190 H204 0.960 . S
C191 C188 1.511 . S
C191 H205 0.961 . S
C191 H206 0.961 . S
C191 H207 0.961 . S
C192 C193 1.370 . S
C192 C194 1.363 . S
C192 H208 0.931 . S
C193 C192 1.370 . S
C193 C197 1.408 . S
C194 C192 1.363 . S
C194 C195 1.370 . S
C194 C198 1.524 . S
C195 C187 1.503 . S
C195 C194 1.370 . S
C195 C196 1.403 . S
C196 C195 1.403 . S
C196 C197 1.404 . S
C196 C199 1.539 . S
C197 C193 1.408 . S
C197 C196 1.404 . S
C197 H209 0.930 . S
C198 C194 1.524 . S
C198 H210 0.956 . S
C198 H211 0.961 . S
C198 H212 0.961 . S
C199 C196 1.539 . S
C199 H213 0.958 . S
C199 H214 0.961 . S
C199 H215 0.960 . S
H200 C184 0.931 . S
H201 C189 0.929 . S
H202 C190 0.960 . S
H203 C190 0.962 . S
H204 C190 0.960 . S
H205 C191 0.961 . S
H206 C191 0.961 . S
H207 C191 0.961 . S
H208 C192 0.931 . S
H209 C197 0.930 . S
H210 C198 0.956 . S
H211 C198 0.961 . S
H212 C198 0.961 . S
H213 C199 0.958 . S
H214 C199 0.961 . S
H215 C199 0.960 . S
C216 C217 1.391 . S
C216 C218 1.394 . S
C216 H232 0.931 . S
C217 C216 1.391 . S
C217 C221 1.376 . S
C218 C216 1.394 . S
C218 C219 1.369 . S
C218 C222 1.531 . S
C219 C218 1.369 . S
C219 C220 1.410 . S
C219 C227 1.503 . S
C220 C219 1.410 . S
C220 C221 1.392 . S
C220 C223 1.511 . S
C221 C217 1.376 . S
C221 C220 1.392 . S
C221 H233 0.929 . S
C222 C218 1.531 . S
C222 H234 0.960 . S
C222 H235 0.962 . S
C222 H236 0.960 . S
C223 C220 1.511 . S
C223 H237 0.961 . S
C223 H238 0.961 . S
C223 H239 0.961 . S
C224 C225 1.370 . S
C224 C226 1.363 . S
C224 H240 0.931 . S
C225 C224 1.370 . S
C225 C229 1.408 . S
C226 C224 1.363 . S
C226 C227 1.370 . S
C226 C230 1.524 . S
C227 C219 1.503 . S
C227 C226 1.370 . S
C227 C228 1.403 . S
C228 C227 1.403 . S
C228 C229 1.404 . S
C228 C231 1.539 . S
C229 C225 1.408 . S
C229 C228 1.404 . S
C229 H241 0.930 . S
C230 C226 1.524 . S
C230 H242 0.956 . S
C230 H243 0.961 . S
C230 H244 0.961 . S
C231 C228 1.539 . S
C231 H245 0.958 . S
C231 H246 0.961 . S
C231 H247 0.960 . S
H232 C216 0.931 . S
H233 C221 0.929 . S
H234 C222 0.960 . S
H235 C222 0.962 . S
H236 C222 0.960 . S
H237 C223 0.961 . S
H238 C223 0.961 . S
H239 C223 0.961 . S
H240 C224 0.931 . S
H241 C229 0.930 . S
H242 C230 0.956 . S
H243 C230 0.961 . S
H244 C230 0.961 . S
H245 C231 0.958 . S
H246 C231 0.961 . S
H247 C231 0.960 . S
C248 C249 1.391 . S
C248 C250 1.394 . S
C248 H264 0.931 . S
C249 C248 1.391 . S
C249 C253 1.376 1_544 S
C250 C248 1.394 . S
C250 C251 1.369 1_545 S
C250 C254 1.531 . S
C251 C250 1.369 1_565 S
C251 C252 1.410 1_554 S
C251 C259 1.503 . S
C252 C251 1.410 1_556 S
C252 C253 1.392 . S
C252 C255 1.511 . S
C253 C249 1.376 1_566 S
C253 C252 1.392 . S
C253 H265 0.929 . S
C254 C250 1.531 . S
C254 H266 0.960 . S
C254 H267 0.962 . S
C254 H268 0.960 . S
C255 C252 1.511 . S
C255 H269 0.961 . S
C255 H270 0.961 . S
C255 H271 0.961 . S
C256 C257 1.375 1_545 S
C256 C258 1.363 . S
C256 H272 0.931 . S
C257 C256 1.375 1_565 S
C257 C261 1.402 1_556 S
C258 C256 1.363 . S
C258 C259 1.370 1_546 S
C258 C262 1.524 . S
C259 C251 1.503 . S
C259 C258 1.370 1_564 S
C259 C260 1.403 . S
C260 C259 1.403 . S
C260 C261 1.404 . S
C260 C263 1.539 . S
C261 C257 1.402 1_554 S
C261 C260 1.404 . S
C261 H273 0.930 . S
C262 C258 1.524 . S
C262 H274 0.956 . S
C262 H275 0.961 . S
C262 H276 0.961 . S
C263 C260 1.539 . S
C263 H277 0.958 . S
C263 H278 0.961 . S
C263 H279 0.960 . S
H264 C248 0.931 . S
H265 C253 0.929 . S
H266 C254 0.960 . S
H267 C254 0.962 . S
H268 C254 0.960 . S
H269 C255 0.961 . S
H270 C255 0.961 . S
H271 C255 0.961 . S
H272 C256 0.931 . S
H273 C261 0.930 . S
H274 C262 0.956 . S
H275 C262 0.961 . S
H276 C262 0.961 . S
H277 C263 0.958 . S
H278 C263 0.961 . S
H279 C263 0.960 . S
C280 C281 1.391 1_545 S
C280 C282 1.394 . S
C280 H296 0.931 . S
C281 C280 1.391 1_565 S
C281 C285 1.376 . S
C282 C280 1.394 . S
C282 C283 1.369 1_545 S
C282 C286 1.531 . S
C283 C282 1.369 1_565 S
C283 C284 1.410 . S
C283 C291 1.502 1_565 S
C284 C283 1.410 . S
C284 C285 1.392 . S
C284 C287 1.511 . S
C285 C281 1.376 . S
C285 C284 1.392 . S
C285 H297 0.929 . S
C286 C282 1.531 . S
C286 H298 0.960 . S
C286 H299 0.962 . S
C286 H300 0.960 . S
C287 C284 1.511 . S
C287 H301 0.961 . S
C287 H302 0.961 . S
C287 H303 0.961 . S
C288 C289 1.370 . S
C288 C290 1.363 . S
C288 H304 0.931 . S
C289 C288 1.370 . S
C289 C293 1.408 1_545 S
C290 C288 1.363 . S
C290 C291 1.374 . S
C290 C294 1.524 . S
C291 C283 1.502 1_545 S
C291 C290 1.374 . S
C291 C292 1.400 1_545 S
C292 C291 1.400 1_565 S
C292 C293 1.404 . S
C292 C295 1.539 . S
C293 C289 1.408 1_565 S
C293 C292 1.404 . S
C293 H305 0.930 . S
C294 C290 1.524 . S
C294 H306 0.956 . S
C294 H307 0.961 1_545 S
C294 H308 0.961 . S
C295 C292 1.539 . S
C295 H309 0.958 1_565 S
C295 H310 0.961 . S
C295 H311 0.960 . S
H296 C280 0.931 . S
H297 C285 0.929 . S
H298 C286 0.960 . S
H299 C286 0.962 . S
H300 C286 0.960 . S
H301 C287 0.961 . S
H302 C287 0.961 . S
H303 C287 0.961 . S
H304 C288 0.931 . S
H305 C293 0.930 . S
H306 C294 0.956 . S
H307 C294 0.961 1_565 S
H308 C294 0.961 . S
H309 C295 0.958 1_545 S
H310 C295 0.961 . S
H311 C295 0.960 . S
C312 C313 1.391 1_556 S
C312 C314 1.394 . S
C312 H328 0.931 . S
C313 C312 1.391 1_554 S
C313 C317 1.376 . S
C314 C312 1.394 . S
C314 C315 1.369 1_556 S
C314 C318 1.531 . S
C315 C314 1.369 1_554 S
C315 C316 1.410 . S
C315 C323 1.503 1_655 S
C316 C315 1.410 . S
C316 C317 1.392 . S
C316 C319 1.511 . S
C317 C313 1.376 . S
C317 C316 1.392 . S
C317 H329 0.929 . S
C318 C314 1.531 . S
C318 H330 0.960 1_655 S
C318 H331 0.962 . S
C318 H332 0.960 . S
C319 C316 1.511 . S
C319 H333 0.961 . S
C319 H334 0.961 1_655 S
C319 H335 0.961 . S
C320 C321 1.369 . S
C320 C322 1.363 . S
C320 H336 0.931 . S
C321 C320 1.369 . S
C321 C325 1.410 1_556 S
C322 C320 1.363 . S
C322 C323 1.370 1_556 S
C322 C326 1.524 . S
C323 C315 1.503 1_455 S
C323 C322 1.370 1_554 S
C323 C324 1.403 . S
C324 C323 1.403 . S
C324 C325 1.404 . S
C324 C327 1.539 . S
C325 C321 1.410 1_554 S
C325 C324 1.404 . S
C325 H337 0.930 . S
C326 C322 1.524 . S
C326 H338 0.956 1_455 S
C326 H339 0.961 1_455 S
C326 H340 0.961 . S
C327 C324 1.539 . S
C327 H341 0.958 . S
C327 H342 0.961 . S
C327 H343 0.960 . S
H328 C312 0.931 . S
H329 C317 0.929 . S
H330 C318 0.960 1_455 S
H331 C318 0.962 . S
H332 C318 0.960 . S
H333 C319 0.961 . S
H334 C319 0.961 1_455 S
H335 C319 0.961 . S
H336 C320 0.931 . S
H337 C325 0.930 . S
H338 C326 0.956 1_655 S
H339 C326 0.961 1_655 S
H340 C326 0.961 . S
H341 C327 0.958 . S
H342 C327 0.961 . S
H343 C327 0.960 . S
C344 C345 1.391 . S
C344 C346 1.394 . S
C344 H360 0.931 . S
C345 C344 1.391 . S
C345 C349 1.376 . S
C346 C344 1.394 . S
C346 C347 1.369 . S
C346 C350 1.531 . S
C347 C346 1.369 . S
C347 C348 1.410 . S
C347 C355 1.503 1_455 S
C348 C347 1.410 . S
C348 C349 1.392 . S
C348 C351 1.511 . S
C349 C345 1.376 . S
C349 C348 1.392 . S
C349 H361 0.929 . S
C350 C346 1.531 . S
C350 H362 0.960 1_455 S
C350 H363 0.962 . S
C350 H364 0.960 . S
C351 C348 1.511 . S
C351 H365 0.961 . S
C351 H366 0.961 . S
C351 H367 0.961 . S
C352 C353 1.370 . S
C352 C354 1.363 . S
C352 H368 0.931 . S
C353 C352 1.370 . S
C353 C357 1.408 . S
C354 C352 1.363 . S
C354 C355 1.370 . S
C354 C358 1.524 . S
C355 C347 1.503 1_655 S
C355 C354 1.370 . S
C355 C356 1.403 . S
C356 C355 1.403 . S
C356 C357 1.404 . S
C356 C359 1.539 . S
C357 C353 1.408 . S
C357 C356 1.404 . S
C357 H369 0.930 . S
C358 C354 1.524 . S
C358 H370 0.956 . S
C358 H371 0.961 1_655 S
C358 H372 0.961 . S
C359 C356 1.539 . S
C359 H373 0.958 . S
C359 H374 0.961 . S
C359 H375 0.960 1_655 S
H360 C344 0.931 . S
H361 C349 0.929 . S
H362 C350 0.960 1_655 S
H363 C350 0.962 . S
H364 C350 0.960 . S
H365 C351 0.961 . S
H366 C351 0.961 . S
H367 C351 0.961 . S
H368 C352 0.931 . S
H369 C357 0.930 . S
H370 C358 0.956 . S
H371 C358 0.961 1_455 S
H372 C358 0.961 . S
H373 C359 0.958 . S
H374 C359 0.961 . S
H375 C359 0.960 1_455 S
C376 C377 1.391 1_455 S
C376 C378 1.394 . S
C376 H392 0.931 . S
C377 C376 1.391 1_655 S
C377 C381 1.376 1_565 S
C378 C376 1.394 . S
C378 C379 1.369 1_455 S
C378 C382 1.531 . S
C379 C378 1.369 1_655 S
C379 C380 1.410 1_565 S
C379 C387 1.503 . S
C380 C379 1.410 1_545 S
C380 C381 1.392 . S
C380 C383 1.511 . S
C381 C377 1.376 1_545 S
C381 C380 1.392 . S
C381 H393 0.929 . S
C382 C378 1.531 . S
C382 H394 0.960 . S
C382 H395 0.962 . S
C382 H396 0.960 . S
C383 C380 1.511 . S
C383 H397 0.961 . S
C383 H398 0.961 . S
C383 H399 0.961 . S
C384 C385 1.378 1_455 S
C384 C386 1.363 . S
C384 H400 0.931 . S
C385 C384 1.378 1_655 S
C385 C389 1.399 1_545 S
C386 C384 1.363 . S
C386 C387 1.370 1_445 S
C386 C390 1.524 . S
C387 C379 1.503 . S
C387 C386 1.370 1_665 S
C387 C388 1.403 . S
C388 C387 1.403 . S
C388 C389 1.404 . S
C388 C391 1.539 . S
C389 C385 1.399 1_565 S
C389 C388 1.404 . S
C389 H401 0.930 . S
C390 C386 1.524 . S
C390 H402 0.956 . S
C390 H403 0.961 . S
C390 H404 0.961 . S
C391 C388 1.539 . S
C391 H405 0.958 . S
C391 H406 0.961 . S
C391 H407 0.960 . S
H392 C376 0.931 . S
H393 C381 0.929 . S
H394 C382 0.960 . S
H395 C382 0.962 . S
H396 C382 0.960 . S
H397 C383 0.961 . S
H398 C383 0.961 . S
H399 C383 0.961 . S
H400 C384 0.931 . S
H401 C389 0.930 . S
H402 C390 0.956 . S
H403 C390 0.961 . S
H404 C390 0.961 . S
H405 C391 0.958 . S
H406 C391 0.961 . S
H407 C391 0.960 . S
C408 C409 1.391 1_455 S
C408 C410 1.394 . S
C408 H424 0.931 . S
C409 C408 1.391 1_655 S
C409 C413 1.376 1_565 S
C410 C408 1.394 . S
C410 C411 1.369 1_455 S
C410 C414 1.531 . S
C411 C410 1.369 1_655 S
C411 C412 1.410 1_565 S
C411 C419 1.503 . S
C412 C411 1.410 1_545 S
C412 C413 1.392 . S
C412 C415 1.511 . S
C413 C409 1.376 1_545 S
C413 C412 1.392 . S
C413 H425 0.929 . S
C414 C410 1.531 . S
C414 H426 0.960 . S
C414 H427 0.962 . S
C414 H428 0.960 . S
C415 C412 1.511 . S
C415 H429 0.961 . S
C415 H430 0.961 . S
C415 H431 0.961 . S
C416 C417 1.370 1_445 S
C416 C418 1.363 . S
C416 H432 0.931 . S
C417 C416 1.370 1_665 S
C417 C421 1.408 . S
C418 C416 1.363 . S
C418 C419 1.370 1_445 S
C418 C422 1.524 . S
C419 C411 1.503 . S
C419 C418 1.370 1_665 S
C419 C420 1.403 . S
C420 C419 1.403 . S
C420 C421 1.404 . S
C420 C423 1.539 . S
C421 C417 1.408 . S
C421 C420 1.404 . S
C421 H433 0.930 . S
C422 C418 1.524 . S
C422 H434 0.956 . S
C422 H435 0.961 . S
C422 H436 0.961 . S
C423 C420 1.539 . S
C423 H437 0.958 . S
C423 H438 0.961 . S
C423 H439 0.960 . S
H424 C408 0.931 . S
H425 C413 0.929 . S
H426 C414 0.960 . S
H427 C414 0.962 . S
H428 C414 0.960 . S
H429 C415 0.961 . S
H430 C415 0.961 . S
H431 C415 0.961 . S
H432 C416 0.931 . S
H433 C421 0.930 . S
H434 C422 0.956 . S
H435 C422 0.961 . S
H436 C422 0.961 . S
H437 C423 0.958 . S
H438 C423 0.961 . S
H439 C423 0.960 . S
C440 C441 1.391 . S
C440 C442 1.394 . S
C440 H456 0.931 . S
C441 C440 1.391 . S
C441 C445 1.376 . S
C442 C440 1.394 . S
C442 C443 1.369 . S
C442 C446 1.531 . S
C443 C442 1.369 . S
C443 C444 1.410 . S
C443 C451 1.503 . S
C444 C443 1.410 . S
C444 C445 1.392 . S
C444 C447 1.511 . S
C445 C441 1.376 . S
C445 C444 1.392 . S
C445 H457 0.929 . S
C446 C442 1.531 . S
C446 H458 0.960 . S
C446 H459 0.962 . S
C446 H460 0.960 . S
C447 C444 1.511 . S
C447 H461 0.961 . S
C447 H462 0.961 . S
C447 H463 0.961 . S
C448 C449 1.370 . S
C448 C450 1.363 . S
C448 H464 0.931 . S
C449 C448 1.370 . S
C449 C453 1.408 . S
C450 C448 1.363 . S
C450 C451 1.370 . S
C450 C454 1.524 . S
C451 C443 1.503 . S
C451 C450 1.370 . S
C451 C452 1.403 . S
C452 C451 1.403 . S
C452 C453 1.404 . S
C452 C455 1.539 . S
C453 C449 1.408 . S
C453 C452 1.404 . S
C453 H465 0.930 . S
C454 C450 1.524 . S
C454 H466 0.956 . S
C454 H467 0.961 . S
C454 H468 0.961 . S
C455 C452 1.539 . S
C455 H469 0.958 . S
C455 H470 0.961 . S
C455 H471 0.960 . S
H456 C440 0.931 . S
H457 C445 0.929 . S
H458 C446 0.960 . S
H459 C446 0.962 . S
H460 C446 0.960 . S
H461 C447 0.961 . S
H462 C447 0.961 . S
H463 C447 0.961 . S
H464 C448 0.931 . S
H465 C453 0.930 . S
H466 C454 0.956 . S
H467 C454 0.961 . S
H468 C454 0.961 . S
H469 C455 0.958 . S
H470 C455 0.961 . S
H471 C455 0.960 . S
C472 C473 1.391 . S
C472 C474 1.394 . S
C472 H488 0.931 . S
C473 C472 1.391 . S
C473 C477 1.376 . S
C474 C472 1.394 . S
C474 C475 1.369 . S
C474 C478 1.531 . S
C475 C474 1.369 . S
C475 C476 1.410 . S
C475 C483 1.503 . S
C476 C475 1.410 . S
C476 C477 1.392 . S
C476 C479 1.511 . S
C477 C473 1.376 . S
C477 C476 1.392 . S
C477 H489 0.929 . S
C478 C474 1.531 . S
C478 H490 0.960 . S
C478 H491 0.962 . S
C478 H492 0.960 . S
C479 C476 1.511 . S
C479 H493 0.961 . S
C479 H494 0.961 . S
C479 H495 0.961 . S
C480 C481 1.370 . S
C480 C482 1.363 . S
C480 H496 0.931 . S
C481 C480 1.370 . S
C481 C485 1.408 . S
C482 C480 1.363 . S
C482 C483 1.370 . S
C482 C486 1.524 . S
C483 C475 1.503 . S
C483 C482 1.370 . S
C483 C484 1.403 . S
C484 C483 1.403 . S
C484 C485 1.404 . S
C484 C487 1.539 . S
C485 C481 1.408 . S
C485 C484 1.404 . S
C485 H497 0.930 . S
C486 C482 1.524 . S
C486 H498 0.956 . S
C486 H499 0.961 . S
C486 H500 0.961 . S
C487 C484 1.539 . S
C487 H501 0.958 . S
C487 H502 0.961 . S
C487 H503 0.960 . S
H488 C472 0.931 . S
H489 C477 0.929 . S
H490 C478 0.960 . S
H491 C478 0.962 . S
H492 C478 0.960 . S
H493 C479 0.961 . S
H494 C479 0.961 . S
H495 C479 0.961 . S
H496 C480 0.931 . S
H497 C485 0.930 . S
H498 C486 0.956 . S
H499 C486 0.961 . S
H500 C486 0.961 . S
H501 C487 0.958 . S
H502 C487 0.961 . S
H503 C487 0.960 . S
C121 N74 1.530 1_554 S
C129 N6 1.542 1_556 S
C153 N66 1.523 1_556 S
C161 N14 1.537 1_554 S
C185 N44 1.555 . S
C193 N96 1.523 . S
C217 N36 1.524 . S
C225 N104 1.543 . S
C249 C16 0.945 . S
C257 C27 0.960 . S
C281 C57 0.962 . S
C289 C46 0.950 . S
C313 C76 0.969 . S
C321 C87 0.948 . S
C345 C106 0.942 . S
C353 C117 0.960 . S
C377 C31 1.499 1_565 S
C385 C1 1.497 1_655 S
C409 C10 1.486 . S
C417 C40 1.498 1_655 S
C441 C91 1.487 . S
C449 C61 1.491 . S
C473 C100 1.486 . S
C481 C70 1.498 . S
