# Generated by pormake.
# Topology ure, (4)-cn, num edge types: 1
# Building blocks:
#     Node 0, Type 0, BuildingBlock: KUFVIS_clean_sbu_0, # of connection points: 4
#     Node 1, Type 0, BuildingBlock: KUFVIS_clean_sbu_0, # of connection points: 4
#     Node 2, Type 0, BuildingBlock: KUFVIS_clean_sbu_0, # of connection points: 4
#     Node 3, Type 0, BuildingBlock: KUFVIS_clean_sbu_0, # of connection points: 4
#     Node 4, Type 0, BuildingBlock: KUFVIS_clean_sbu_0, # of connection points: 4
#     Node 5, Type 0, BuildingBlock: KUFVIS_clean_sbu_0, # of connection points: 4
#     Node 6, Type 0, BuildingBlock: KUFVIS_clean_sbu_0, # of connection points: 4
#     Node 7, Type 0, BuildingBlock: KUFVIS_clean_sbu_0, # of connection points: 4
#     Node 8, Type 0, BuildingBlock: KUFVIS_clean_sbu_0, # of connection points: 4
#     Node 9, Type 0, BuildingBlock: KUFVIS_clean_sbu_0, # of connection points: 4
#     Node 10, Type 0, BuildingBlock: KUFVIS_clean_sbu_0, # of connection points: 4
#     Node 11, Type 0, BuildingBlock: KUFVIS_clean_sbu_0, # of connection points: 4
#     Node 12, Type 0, BuildingBlock: KUFVIS_clean_sbu_0, # of connection points: 4
#     Node 13, Type 0, BuildingBlock: KUFVIS_clean_sbu_0, # of connection points: 4
#     Node 14, Type 0, BuildingBlock: KUFVIS_clean_sbu_0, # of connection points: 4
#     Node 15, Type 0, BuildingBlock: KUFVIS_clean_sbu_0, # of connection points: 4
#     Edge 16, Type (0, 0), BuildingBlock: EZIPEK_clean_linker_0, # of connection points: 2
#     Edge 17, Type (0, 0), BuildingBlock: EZIPEK_clean_linker_0, # of connection points: 2
#     Edge 18, Type (0, 0), BuildingBlock: EZIPEK_clean_linker_0, # of connection points: 2
#     Edge 19, Type (0, 0), BuildingBlock: EZIPEK_clean_linker_0, # of connection points: 2
#     Edge 20, Type (0, 0), BuildingBlock: EZIPEK_clean_linker_0, # of connection points: 2
#     Edge 21, Type (0, 0), BuildingBlock: EZIPEK_clean_linker_0, # of connection points: 2
#     Edge 22, Type (0, 0), BuildingBlock: EZIPEK_clean_linker_0, # of connection points: 2
#     Edge 23, Type (0, 0), BuildingBlock: EZIPEK_clean_linker_0, # of connection points: 2
#     Edge 24, Type (0, 0), BuildingBlock: EZIPEK_clean_linker_0, # of connection points: 2
#     Edge 25, Type (0, 0), BuildingBlock: EZIPEK_clean_linker_0, # of connection points: 2
#     Edge 26, Type (0, 0), BuildingBlock: EZIPEK_clean_linker_0, # of connection points: 2
#     Edge 27, Type (0, 0), BuildingBlock: EZIPEK_clean_linker_0, # of connection points: 2
#     Edge 28, Type (0, 0), BuildingBlock: EZIPEK_clean_linker_0, # of connection points: 2
#     Edge 29, Type (0, 0), BuildingBlock: EZIPEK_clean_linker_0, # of connection points: 2
#     Edge 30, Type (0, 0), BuildingBlock: EZIPEK_clean_linker_0, # of connection points: 2
#     Edge 31, Type (0, 0), BuildingBlock: EZIPEK_clean_linker_0, # of connection points: 2
#     Edge 32, Type (0, 0), BuildingBlock: EZIPEK_clean_linker_0, # of connection points: 2
#     Edge 33, Type (0, 0), BuildingBlock: EZIPEK_clean_linker_0, # of connection points: 2
#     Edge 34, Type (0, 0), BuildingBlock: EZIPEK_clean_linker_0, # of connection points: 2
#     Edge 35, Type (0, 0), BuildingBlock: EZIPEK_clean_linker_0, # of connection points: 2
#     Edge 36, Type (0, 0), BuildingBlock: EZIPEK_clean_linker_0, # of connection points: 2
#     Edge 37, Type (0, 0), BuildingBlock: EZIPEK_clean_linker_0, # of connection points: 2
#     Edge 38, Type (0, 0), BuildingBlock: EZIPEK_clean_linker_0, # of connection points: 2
#     Edge 39, Type (0, 0), BuildingBlock: EZIPEK_clean_linker_0, # of connection points: 2
#     Edge 40, Type (0, 0), BuildingBlock: EZIPEK_clean_linker_0, # of connection points: 2
#     Edge 41, Type (0, 0), BuildingBlock: EZIPEK_clean_linker_0, # of connection points: 2
#     Edge 42, Type (0, 0), BuildingBlock: EZIPEK_clean_linker_0, # of connection points: 2
#     Edge 43, Type (0, 0), BuildingBlock: EZIPEK_clean_linker_0, # of connection points: 2
#     Edge 44, Type (0, 0), BuildingBlock: EZIPEK_clean_linker_0, # of connection points: 2
#     Edge 45, Type (0, 0), BuildingBlock: EZIPEK_clean_linker_0, # of connection points: 2
#     Edge 46, Type (0, 0), BuildingBlock: EZIPEK_clean_linker_0, # of connection points: 2
#     Edge 47, Type (0, 0), BuildingBlock: EZIPEK_clean_linker_0, # of connection points: 2
# Relax obj value: 0.163
# Max RMSD: 0.109
# Mean RMSD: 0.107
data_MOF--net-ure--node1-KUFVIS_clean_sbu_0--edge1-EZIPEK_clean_linker_0
_symmetry_space_group_name_H-M    P1
_symmetry_Int_Tables_number       1
_symmetry_cell_setting            triclinic
loop_
_symmetry_equiv_pos_as_xyz
'x, y, z'
_cell_length_a     19.40565
_cell_length_b     25.9481
_cell_length_c     25.204706
_cell_angle_alpha  90.233499
_cell_angle_beta   90.630142
_cell_angle_gamma 89.88756
loop_
_atom_site_label
_atom_site_type_symbol
_atom_site_fract_x
_atom_site_fract_y
_atom_site_fract_z
_atom_type_partial_charge
Mn0 Mn 0.27899 0.2694 0.2593 0.0
Mn1 Mn 0.35944 0.30726 0.14076 0.0
C2 C 0.40045 0.22987 0.23741 0.0
C3 C 0.27582 0.26115 0.35674 0.0
C4 C 0.25791 0.19791 0.15571 0.0
O5 O 0.21356 0.35518 0.25055 0.0
O6 O 0.24233 0.38753 0.16765 0.0
C7 C 0.47747 0.35496 0.21878 0.0
N8 N 0.45687 0.3381 0.16886 0.0
C9 C 0.59943 0.37051 0.14985 0.0
C10 C 0.60171 0.3792 0.20341 0.0
C11 C 0.54254 0.37494 0.23422 0.0
C12 C 0.50358 0.3407 0.13203 0.0
H13 H 0.44126 0.35672 0.25012 0.0
C14 C 0.20939 0.394 0.21289 0.0
O15 O 0.22771 0.24382 0.32627 0.0
O16 O 0.31681 0.29087 0.33142 0.0
N17 N 0.42208 0.26412 0.09354 0.0
C18 C 0.40293 0.22454 0.0591 0.0
C19 C 0.44533 0.19806 0.02214 0.0
C20 C 0.51522 0.2056 0.01251 0.0
C21 C 0.55027 0.24539 0.04109 0.0
C22 C 0.48283 0.28571 0.08427 0.0
H23 H 0.35003 0.21294 0.05482 0.0
O24 O 0.35735 0.21211 0.27051 0.0
O25 O 0.37214 0.26669 0.2138 0.0
O26 O 0.23601 0.21064 0.20295 0.0
O27 O 0.30402 0.22819 0.13263 0.0
C28 C 0.69587 0.28383 0.06438 0.0
C29 C 0.68923 0.34542 0.1173 0.0
H30 H 0.6514 0.38306 0.22274 0.0
H31 H 0.5479 0.3852 0.27557 0.0
H32 H 0.42087 0.16845 -0.00143 0.0
H33 H 0.54339 0.23278 0.03169 0.0
H34 H 0.71096 0.31432 0.0888 0.0
H35 H 0.73426 0.3665 0.13675 0.0
Mn36 Mn 0.05053 0.03435 0.51518 0.0
Mn37 Mn 0.96842 0.93703 0.55562 0.0
C38 C 0.92862 0.02742 0.49354 0.0
C39 C 0.07347 0.11967 0.51597 0.0
C40 C 0.08057 0.92603 0.46788 0.0
O41 O 0.11174 0.01315 0.58655 0.0
O42 O 0.03537 0.95717 0.61586 0.0
C43 C 0.87603 0.96969 0.65376 0.0
N44 N 0.88975 0.94845 0.60575 0.0
C45 C 0.77585 0.88095 0.62917 0.0
C46 C 0.7682 0.91481 0.67395 0.0
C47 C 0.81427 0.95739 0.68255 0.0
C48 C 0.83907 0.92271 0.58535 0.0
H49 H 0.91086 -0.00196 0.66978 0.0
C50 C 0.09058 -0.01683 0.62474 0.0
O51 O 0.11236 0.0885 0.48948 0.0
O52 O 0.02903 0.10023 0.54788 0.0
N53 N 0.9053 0.9226 0.49633 0.0
C54 C 0.88548 0.91188 0.44525 0.0
C55 C 0.80086 0.89199 0.43632 0.0
C56 C 0.73169 0.83507 0.45936 0.0
C57 C 0.77765 0.87582 0.45697 0.0
C58 C 0.84496 0.92361 0.5134 0.0
H59 H 0.9223 0.91894 0.41355 0.0
O60 O 0.97014 0.05117 0.46234 0.0
O61 O 0.96182 0.00664 0.5332 0.0
O62 O 0.08592 -0.02517 0.46404 0.0
O63 O 0.04439 0.90929 0.50639 0.0
C64 C 0.70414 0.8133 0.50879 0.0
C65 C 0.70965 0.823 0.59344 0.0
H66 H 0.76808 0.8872 0.64427 0.0
H67 H 0.80272 -0.01924 0.71613 0.0
H68 H 0.82063 0.91732 0.39638 0.0
H69 H 0.69726 0.80694 0.42787 0.0
H70 H 0.66771 0.77928 0.50118 0.0
H71 H 0.66979 0.80524 0.61641 0.0
Mn72 Mn 0.28076 0.71406 0.79249 0.0
Mn73 Mn 0.17928 0.67398 0.69519 0.0
C74 C 0.15701 0.73006 0.79116 0.0
C75 C 0.29529 0.71717 0.88506 0.0
C76 C 0.30025 0.75556 0.67247 0.0
O77 O 0.33292 0.63939 0.77514 0.0
O78 O 0.24589 0.61376 0.72325 0.0
C79 C 0.09393 0.60955 0.61989 0.0
N80 N 0.14008 0.64899 0.62372 0.0
C81 C 0.07522 0.6849 0.53999 0.0
C82 C 0.05873 0.6334 0.52793 0.0
C83 C 0.0585 0.59812 0.57117 0.0
C84 C 0.11022 0.68824 0.59685 0.0
H85 H 0.08038 0.5901 0.65546 0.0
C86 C 0.30277 0.60097 0.74987 0.0
O87 O 0.33808 0.74174 0.85516 0.0
O88 O 0.25644 0.68433 0.86102 0.0
N89 N 0.12051 0.72894 0.6805 0.0
C90 C 0.09601 0.7745 0.69733 0.0
C91 C 0.02484 0.79015 0.66491 0.0
C92 C 0.98275 0.79591 0.5893 0.0
C93 C 0.0177 0.77852 0.6282 0.0
C94 C 0.08603 0.72236 0.63777 0.0
H95 H 0.11837 0.79722 0.729 0.0
O96 O 0.19767 0.76395 0.81168 0.0
O97 O 0.19276 0.698 0.76435 0.0
O98 O 0.31351 0.7585 0.72327 0.0
O99 O 0.25612 0.71966 0.6579 0.0
C100 C 0.98576 0.77311 0.54554 0.0
C101 C 0.02332 0.72564 0.51299 0.0
H102 H 0.02857 0.62412 0.49273 0.0
H103 H 0.02212 0.56735 0.57031 0.0
H104 H 1.01266 0.80876 0.70728 0.0
H105 H 0.93831 0.83437 0.57607 0.0
H106 H 0.95123 0.78784 0.50928 0.0
H107 H 1.00117 0.71555 0.47476 0.0
Mn108 Mn 0.52113 0.92568 0.02223 0.0
Mn109 Mn 0.59312 0.02776 0.0594 0.0
C110 C 0.64866 0.92445 0.0125 0.0
C111 C 0.49241 0.83592 0.02309 0.0
C112 C 0.4797 0.0333 0.965 0.0
O113 O 0.46172 0.95025 0.09143 0.0
O114 O 0.52634 0.01722 0.11951 0.0
C115 C 0.66677 0.0609 0.16865 0.0
N116 N 0.66947 0.05038 0.11435 0.0
C117 C 0.80628 0.10981 0.1149 0.0
C118 C 0.79303 0.11662 0.17405 0.0
C119 C 0.7235 0.08683 0.19995 0.0
C120 C 0.72595 0.06466 0.08706 0.0
H121 H 0.62322 0.04602 0.18996 0.0
C122 C 0.47723 -0.01526 0.12804 0.0
O123 O 0.45806 0.86849 -0.00518 0.0
O124 O 0.53692 0.85589 0.05525 0.0
N125 N 0.65736 0.02939 0.00243 0.0
C126 C 0.68 0.01412 0.95443 0.0
C127 C 0.76436 0.02556 0.93927 0.0
C128 C 0.85255 0.07198 0.94468 0.0
C129 C 0.79245 0.04541 0.95469 0.0
C130 C 0.71555 0.03819 0.02013 0.0
H131 H 0.64647 -0.01299 0.93494 0.0
O132 O 0.60535 0.90664 0.97768 0.0
O133 O 0.61385 0.95144 0.04904 0.0
O134 O 0.48173 -0.01651 0.96289 0.0
O135 O 0.51384 0.05133 0.00482 0.0
C136 C 0.88839 0.10505 0.98089 0.0
C137 C 0.88817 0.13273 0.06257 0.0
H138 H 0.80831 0.11506 0.13389 0.0
H139 H 0.72054 0.08297 0.24244 0.0
H140 H 0.74548 -0.01038 0.9084 0.0
H141 H 0.89667 0.07301 0.90877 0.0
H142 H 0.90415 0.12582 0.01599 0.0
H143 H 0.92709 0.1584 0.08212 0.0
Mn144 Mn 0.23032 0.73077 0.19098 0.0
Mn145 Mn 0.32293 0.68773 0.2928 0.0
C146 C 0.35301 0.73676 0.19228 0.0
C147 C 0.20501 0.73037 0.09952 0.0
C148 C 0.21608 0.77631 0.3077 0.0
O149 O 0.1731 0.6639 0.21528 0.0
O150 O 0.24469 0.63568 0.28099 0.0
C151 C 0.39017 0.61928 0.36728 0.0
N152 N 0.35468 0.66368 0.36364 0.0
C153 C 0.42932 0.69473 0.44348 0.0
C154 C 0.43658 0.64254 0.45613 0.0
C155 C 0.42717 0.60609 0.41447 0.0
C156 C 0.39502 0.69921 0.38684 0.0
H157 H 0.38446 0.59191 0.33652 0.0
C158 C 0.19265 0.6278 0.2485 0.0
O159 O 0.16979 0.75893 0.13173 0.0
O160 O 0.24543 0.69709 0.12136 0.0
N161 N 0.39262 0.73562 0.30102 0.0
C162 C 0.42407 0.77775 0.28246 0.0
C163 C 0.49642 0.78875 0.315 0.0
C164 C 0.53789 0.79449 0.39086 0.0
C165 C 0.50111 0.77853 0.35246 0.0
C166 C 0.42523 0.7281 0.34423 0.0
H167 H 0.40517 0.80148 0.25043 0.0
O168 O 0.31738 0.77307 0.17011 0.0
O169 O 0.31355 0.70813 0.22067 0.0
O170 O 0.20244 0.77796 0.2574 0.0
O171 O 0.25759 0.7413 0.32605 0.0
C172 C 0.53122 0.77411 0.43569 0.0
C173 C 0.48692 0.73155 0.46956 0.0
H174 H 0.46881 0.63184 0.48895 0.0
H175 H 0.45052 0.56921 0.41605 0.0
H176 H 0.51225 0.80432 0.27218 0.0
H177 H 0.58784 0.82893 0.40274 0.0
H178 H 0.5654 0.7901 0.47197 0.0
H179 H 0.50428 0.7233 0.50956 0.0
Mn180 Mn 0.48674 0.02793 0.47169 0.0
Mn181 Mn 0.55905 0.92787 0.42589 0.0
C182 C 0.61325 0.01693 0.48597 0.0
C183 C 0.48285 0.12002 0.46943 0.0
C184 C 0.44255 0.91997 0.51606 0.0
O185 O 0.42577 0.01317 0.40064 0.0
O186 O 0.5008 0.95709 0.36594 0.0
C187 C 0.67231 0.93985 0.32937 0.0
N188 N 0.64369 0.92336 0.37545 0.0
C189 C 0.75389 0.84274 0.36932 0.0
C190 C 0.77266 0.8729 0.32529 0.0
C191 C 0.73744 0.92012 0.31082 0.0
C192 C 0.68221 0.89 0.39971 0.0
H193 H 0.64888 0.97189 0.30845 0.0
C194 C 0.44876 -0.01279 0.35986 0.0
O195 O 0.44212 0.09505 0.50016 0.0
O196 O 0.51448 0.09133 0.43631 0.0
N197 N 0.6148 0.91148 0.48625 0.0
C198 C 0.6353 0.9184 0.53763 0.0
C199 C 0.72101 0.90494 0.55208 0.0
C200 C 0.79933 0.84944 0.54446 0.0
C201 C 0.7465 0.88571 0.53577 0.0
C202 C 0.6739 0.90981 0.46923 0.0
H203 H 0.60179 0.94253 0.56135 0.0
O204 O 0.57287 0.03688 0.5209 0.0
O205 O 0.5758 -0.00214 0.44777 0.0
O206 O 0.44371 0.9691 0.52334 0.0
O207 O 0.47675 0.90424 0.47517 0.0
C208 C 0.83025 0.819 0.50465 0.0
C209 C 0.82585 0.80274 0.41949 0.0
H210 H 0.82539 0.86955 0.31319 0.0
H211 H 0.76581 0.94698 0.28811 0.0
H212 H 0.69917 0.9351 0.58827 0.0
H213 H 0.83174 0.83053 0.58366 0.0
H214 H 0.84285 0.80159 0.46715 0.0
H215 H 0.86372 0.77868 0.397 0.0
Mn216 Mn 0.29687 0.24459 0.68323 0.0
Mn217 Mn 0.20271 0.2801 0.78436 0.0
C218 C 0.17489 0.21913 0.69001 0.0
C219 C 0.31345 0.24216 0.58719 0.0
C220 C 0.32552 0.19556 0.80175 0.0
O221 O 0.34367 0.32203 0.7017 0.0
O222 O 0.27769 0.33716 0.771 0.0
C223 C 0.13732 0.38205 0.74506 0.0
N224 N 0.13101 0.33278 0.76183 0.0
C225 C 0.01631 0.37339 0.8178 0.0
C226 C 0.03068 0.41816 0.7901 0.0
C227 C 0.08611 0.42058 0.75404 0.0
C228 C 0.0681 0.31995 0.77592 0.0
H229 H 0.1851 0.3943 0.7288 0.0
C230 C 0.32395 0.35483 0.7387 0.0
O231 O 0.35755 0.22171 0.61989 0.0
O232 O 0.26675 0.26869 0.61 0.0
N233 N 0.12881 0.22826 0.79362 0.0
C234 C 0.11543 0.18964 0.82901 0.0
C235 C 0.0297 0.19008 0.84828 0.0
C236 C 0.96855 0.22677 0.90304 0.0
C237 C 1.00608 0.21128 0.85707 0.0
C238 C 0.0675 0.24845 0.78875 0.0
H239 H 0.1589 0.1822 0.85699 0.0
O240 O 0.22039 0.18938 0.66877 0.0
O241 O 0.2055 0.25781 0.71241 0.0
O242 O 0.34177 0.20065 0.75174 0.0
O243 O 0.27387 0.22478 0.81623 0.0
C244 C 0.94776 0.27861 0.91307 0.0
C245 C 0.9582 0.35426 0.88581 0.0
H246 H 1.01041 0.45452 0.7996 0.0
H247 H 0.10083 0.45887 0.7443 0.0
H248 H 0.07057 0.15212 0.83765 0.0
H249 H 0.9409 0.20583 0.94333 0.0
H250 H 0.91214 0.28276 0.94942 0.0
H251 H 0.92167 0.37941 0.90387 0.0
Mn252 Mn 0.10611 0.9008 0.97517 0.0
Mn253 Mn 1.00404 -0.00466 0.94118 0.0
C254 C 0.97103 0.89952 -0.00845 0.0
C255 C 0.0755 0.81031 -0.00637 0.0
C256 C 0.12198 0.01578 0.02331 0.0
O257 O 0.14725 0.9291 0.89892 0.0
O258 O 0.07078 -0.00971 0.87989 0.0
C259 C 0.93865 -0.02731 0.83732 0.0
N260 N 0.93133 -0.02295 0.89032 0.0
C261 C 0.82053 0.04209 0.86115 0.0
C262 C 0.83505 0.02571 0.80973 0.0
C263 C 0.89015 -0.0085 0.79984 0.0
C264 C 0.87189 -0.00788 0.90843 0.0
H265 H 0.9868 0.95862 0.82226 0.0
C266 C 0.12112 0.96187 0.8648 0.0
O267 O 0.07536 0.84648 0.02954 0.0
O268 O 0.09584 0.82698 0.94834 0.0
N269 N 0.94048 -0.00148 0.0016 0.0
C270 C 0.93167 0.02362 0.04875 0.0
C271 C 0.84862 0.04796 0.05623 0.0
C272 C 0.78843 0.10679 0.0242 0.0
C273 C 0.8247 0.05949 0.0335 0.0
C274 C 0.87827 -0.00327 0.98488 0.0
H275 H 0.97665 0.03142 0.07417 0.0
O276 O 0.01645 0.8878 0.02653 0.0
O277 O 1.00623 0.92118 0.95488 0.0
O278 O 0.13639 0.96713 0.02529 0.0
O279 O 0.07579 0.02823 -0.01032 0.0
C280 C 0.76557 0.12307 0.97548 0.0
C281 C 0.76943 0.10758 0.89188 0.0
H282 H 0.81645 0.04365 0.77488 0.0
H283 H 0.90543 -0.01218 0.75925 0.0
H284 H 0.88076 0.03967 0.10003 0.0
H285 H 0.77755 0.15003 0.04907 0.0
H286 H 0.75803 0.12741 0.93396 0.0
H287 H 0.74501 0.13276 0.86095 0.0
Mn288 Mn 0.73938 0.18798 0.68083 0.0
Mn289 Mn 0.79808 0.16981 0.7935 0.0
C290 C 0.86113 0.20796 0.6947 0.0
C291 C 0.74159 0.17983 0.58348 0.0
C292 C 0.67835 0.24806 0.78997 0.0
O293 O 0.68505 0.11559 0.69928 0.0
O294 O 0.7386 0.10286 0.77715 0.0
C295 C 0.93265 0.10106 0.80796 0.0
N296 N 0.88242 0.13221 0.82744 0.0
C297 C 0.98847 0.13974 0.91537 0.0
C298 C 1.01115 0.09345 0.89329 0.0
C299 C 0.98765 0.07929 0.84048 0.0
C300 C 0.90706 0.16036 0.86745 0.0
H301 H 0.92683 0.08805 0.76745 0.0
C302 C 0.69884 0.08445 0.73899 0.0
O303 O 0.69503 0.20638 0.60777 0.0
O304 O 0.77887 0.15274 0.6149 0.0
N305 N 0.84953 0.2326 0.80187 0.0
C306 C 0.87811 0.2764 0.78193 0.0
C307 C 0.95584 0.29686 0.8073 0.0
C308 C 0.04011 0.29691 0.86058 0.0
C309 C 0.97952 0.28572 0.83199 0.0
C310 C 0.89672 0.22443 0.83306 0.0
H311 H 0.85054 0.29392 0.74889 0.0
O312 O 0.81917 0.23778 0.66918 0.0
O313 O 0.82804 0.17181 0.71975 0.0
O314 O 0.68361 0.24373 0.7379 0.0
O315 O 0.71448 0.21489 0.81579 0.0
C316 C 0.06981 0.26735 0.89998 0.0
C317 C 0.06547 0.1932 0.93806 0.0
H318 H 0.0596 0.07851 0.90758 0.0
H319 H 0.01648 0.05017 0.82115 0.0
H320 H 0.93993 0.32573 0.7681 0.0
H321 H 0.08902 0.33106 0.85904 0.0
H322 H 0.08273 0.23619 0.92622 0.0
H323 H 0.10606 0.17616 0.96504 0.0
Mn324 Mn 0.95224 0.5258 0.98478 0.0
Mn325 Mn 0.02962 0.42643 0.94417 0.0
C326 C 0.07383 0.515 0.00387 0.0
C327 C 0.94163 0.61312 0.98423 0.0
C328 C 0.92409 0.41842 0.03235 0.0
O329 O 0.89103 0.50624 0.91288 0.0
O330 O 0.97022 0.45236 0.88323 0.0
C331 C 0.12882 0.46339 0.85671 0.0
N332 N 0.107 0.43222 0.89569 0.0
C333 C 0.21602 0.36303 0.86313 0.0
C334 C 0.22908 0.40619 0.83164 0.0
C335 C 0.1899 0.45246 0.82846 0.0
C336 C 0.14446 0.3928 0.90871 0.0
H337 H 0.09912 0.49735 0.8466 0.0
C338 C 0.91528 0.47802 0.87397 0.0
O339 O 0.89809 0.58618 0.01122 0.0
O340 O 0.97901 0.58942 0.94997 0.0
N341 N 0.08784 0.406 0.005 0.0
C342 C 0.11784 0.39649 0.05378 0.0
C343 C 0.19386 0.36182 0.05798 0.0
C344 C 0.27562 0.31736 0.02864 0.0
C345 C 0.21788 0.34921 0.03502 0.0
C346 C 0.13755 0.38739 0.98213 0.0
H347 H 0.08897 0.41309 0.08722 0.0
O348 O 0.03447 0.54006 0.03574 0.0
O349 O 0.03903 0.49511 0.96546 0.0
O350 O 0.91659 0.46713 0.03818 0.0
O351 O 0.95225 0.40297 -0.00988 0.0
C352 C 0.30456 0.30187 0.97998 0.0
C353 C 0.29564 0.31329 0.89449 0.0
H354 H 0.28004 0.4096 0.82135 0.0
H355 H 0.20782 0.48169 0.80145 0.0
H356 H 0.16813 0.37078 0.10313 0.0
H357 H 0.32095 0.29603 0.05826 0.0
H358 H 0.31579 0.29802 0.93847 0.0
H359 H 0.33466 0.30131 0.86443 0.0
Mn360 Mn 0.77523 0.69267 0.19164 0.0
Mn361 Mn 0.7283 0.75247 0.29851 0.0
C362 C 0.65688 0.69564 0.21259 0.0
C363 C 0.78125 0.68672 0.10076 0.0
C364 C 0.82 0.65446 0.30519 0.0
O365 O 0.84974 0.75373 0.19825 0.0
O366 O 0.79924 0.79543 0.2649 0.0
C367 C 0.65076 0.84395 0.24737 0.0
N368 N 0.66091 0.80924 0.28669 0.0
C369 C 0.54695 0.86548 0.33556 0.0
C370 C 0.55101 0.89428 0.28864 0.0
C371 C 0.59656 0.88158 0.24687 0.0
C372 C 0.61518 0.8075 0.32399 0.0
H373 H 0.68342 0.84148 0.214 0.0
C374 C 0.84263 0.79488 0.22742 0.0
O375 O 0.81918 0.65661 0.12998 0.0
O376 O 0.74683 0.72236 0.12394 0.0
N377 N 0.65864 0.70907 0.33014 0.0
C378 C 0.65719 0.65704 0.3376 0.0
C379 C 0.60644 0.63073 0.36703 0.0
C380 C 0.54677 0.65182 0.38973 0.0
C381 C 0.52949 0.70543 0.38306 0.0
C382 C 0.60713 0.73775 0.3453 0.0
H383 H 0.69671 0.63331 0.32083 0.0
O384 O 0.68233 0.65602 0.18799 0.0
O385 O 0.70362 0.72717 0.22941 0.0
O386 O 0.81132 0.64464 0.25553 0.0
O387 O 0.79988 0.69873 0.32153 0.0
C388 C 0.42333 0.78772 0.41066 0.0
C389 C 0.45671 0.85759 0.37837 0.0
H390 H 0.51615 0.92429 0.28018 0.0
H391 H 0.58896 0.90364 0.21107 0.0
H392 H 0.61388 0.58973 0.37237 0.0
H393 H 0.53073 0.68893 0.38679 0.0
H394 H 0.42325 0.82609 0.40113 0.0
H395 H 0.42549 0.89386 0.38047 0.0
Mn396 Mn 0.97391 0.39192 0.52468 0.0
Mn397 Mn 0.04001 0.49331 0.54975 0.0
C398 C 0.09841 0.39478 0.50284 0.0
C399 C 0.9557 0.30656 0.52924 0.0
C400 C 0.93066 0.49316 0.46567 0.0
O401 O 0.91624 0.41818 0.59706 0.0
O402 O 0.98404 0.48394 0.61666 0.0
C403 C 0.12686 0.50299 0.6505 0.0
N404 N 0.11943 0.49697 0.59748 0.0
C405 C 0.22473 0.57374 0.59618 0.0
C406 C 0.23301 0.56061 0.64532 0.0
C407 C 0.18539 0.52862 0.67396 0.0
C408 C 0.16302 0.51953 0.56826 0.0
H409 H 0.08409 0.49278 0.67429 0.0
C410 C 0.93561 0.45374 0.63171 0.0
O411 O 0.91388 0.33499 0.50208 0.0
O412 O 0.99647 0.32907 0.5629 0.0
N413 N 0.09198 0.4975 0.48283 0.0
C414 C 0.10814 0.49603 0.42998 0.0
C415 C 0.19118 0.51043 0.412 0.0
C416 C 0.27711 0.55669 0.42646 0.0
C417 C 0.22041 0.5268 0.43128 0.0
C418 C 0.15328 0.49788 0.49749 0.0
H419 H 0.0703 0.4804 0.40246 0.0
O420 O 0.05405 0.37066 0.47366 0.0
O421 O 0.06529 0.42016 0.5408 0.0
O422 O 0.93452 0.44408 0.46428 0.0
O423 O 0.95804 0.51398 0.50577 0.0
C424 C 0.30036 0.59828 0.4654 0.0
C425 C 0.29157 0.61604 0.54718 0.0
H426 H 0.28169 0.57597 0.65513 0.0
H427 H 0.19161 0.52536 0.71644 0.0
H428 H 0.17184 0.48423 0.37211 0.0
H429 H 0.32867 0.55611 0.40117 0.0
H430 H 0.31076 0.63638 0.44667 0.0
H431 H 0.32274 0.64647 0.56425 0.0
Mn432 Mn 0.5027 0.51853 0.0123 0.0
Mn433 Mn 0.43432 0.41345 0.05804 0.0
C434 C 0.38035 0.50796 0.00119 0.0
C435 C 0.51543 0.61066 0.01847 0.0
C436 C 0.53231 0.41007 0.95344 0.0
O437 O 0.56907 0.50193 0.0789 0.0
O438 O 0.50406 0.43895 0.11323 0.0
C439 C 0.3608 0.39371 0.17417 0.0
N440 N 0.36148 0.39825 0.1186 0.0
C441 C 0.25443 0.31183 0.11876 0.0
C442 C 0.27022 0.307 0.17707 0.0
C443 C 0.32807 0.3475 0.20452 0.0
C444 C 0.31042 0.37447 0.09261 0.0
H445 H 0.39181 0.42088 0.19604 0.0
C446 C 0.55283 0.47269 0.11864 0.0
O447 O 0.55406 0.58313 -0.01216 0.0
O448 O 0.47814 0.58342 0.04893 0.0
N449 N 0.36674 0.40458 0.00539 0.0
C450 C 0.35213 0.40406 0.95292 0.0
C451 C 0.2666 0.38806 0.94153 0.0
C452 C 0.20178 0.32408 0.94522 0.0
C453 C 0.24349 0.36855 0.95687 0.0
C454 C 0.3079 0.40134 0.02514 0.0
H455 H 0.39443 0.41233 0.92546 0.0
O456 O 0.41773 0.53178 0.96695 0.0
O457 O 0.41647 0.48643 0.03968 0.0
O458 O 0.53954 0.45979 0.95444 0.0
O459 O 0.49992 0.39239 -0.00553 0.0
C460 C 0.18032 0.28964 0.98288 0.0
C461 C 0.1923 0.26813 0.06545 0.0
H462 H 0.22748 0.29108 0.19676 0.0
H463 H 0.33295 0.34873 0.24737 0.0
H464 H 0.2982 0.41566 0.90807 0.0
H465 H 0.1808 0.29989 0.90356 0.0
H466 H 0.17401 0.26833 0.01875 0.0
H467 H 0.16363 0.23686 0.08548 0.0
Mn468 Mn 0.72591 0.73219 0.78616 0.0
Mn469 Mn 0.78253 0.77641 0.67507 0.0
C470 C 0.84689 0.71759 0.76166 0.0
C471 C 0.73116 0.72513 0.87944 0.0
C472 C 0.67323 0.68675 0.6754 0.0
O473 O 0.66822 0.80642 0.77983 0.0
O474 O 0.71655 0.8295 0.70496 0.0
C475 C 0.87207 0.86119 0.72745 0.0
N476 N 0.85912 0.82581 0.68915 0.0
C477 C 0.98281 0.86933 0.64238 0.0
C478 C 0.98335 0.89799 0.68973 0.0
C479 C 0.9341 0.89013 0.7301 0.0
C480 C 0.90857 0.81717 0.6562 0.0
H481 H 0.83497 0.86655 0.75834 0.0
C482 C 0.67914 0.84219 0.7441 0.0
O483 O 0.68286 0.70244 0.85249 0.0
O484 O 0.76416 0.75861 0.85283 0.0
N485 N 0.84579 0.72627 0.64446 0.0
C486 C 0.83165 0.67892 0.62327 0.0
C487 C 0.88017 0.64615 0.59913 0.0
C488 C 0.94826 0.65792 0.58684 0.0
C489 C 0.9783 0.70705 0.60045 0.0
C490 C 0.90661 0.74695 0.63761 0.0
H491 H 0.78118 0.66355 0.62468 0.0
O492 O 0.81293 0.68366 0.78803 0.0
O493 O 0.80537 0.75312 0.74515 0.0
O494 O 0.67539 0.68436 0.72645 0.0
O495 O 0.70461 0.7249 0.65372 0.0
C496 C 0.09536 0.77884 0.56932 0.0
C497 C 0.07181 0.85283 0.59973 0.0
H498 H 0.0287 0.91788 0.70186 0.0
H499 H 0.94633 0.90526 0.76782 0.0
H500 H 0.8631 0.60784 0.58878 0.0
H501 H 0.97275 0.69156 0.5946 0.0
H502 H 0.10189 0.81766 0.57813 0.0
H503 H 0.10805 0.88642 0.5988 0.0
Mn504 Mn 0.80928 0.14829 0.25832 0.0
Mn505 Mn 0.70499 0.13666 0.14104 0.0
C506 C 0.69393 0.19332 0.26165 0.0
C507 C 0.80777 0.14288 0.35691 0.0
C508 C 0.82739 0.22435 0.15245 0.0
O509 O 0.84722 0.06031 0.23631 0.0
O510 O 0.78864 0.03308 0.15775 0.0
C511 C 0.61933 0.12199 0.03096 0.0
N512 N 0.66819 0.14475 0.06142 0.0
C513 C 0.65789 0.21858 -0.00626 0.0
C514 C 0.64209 0.1804 0.95608 0.0
C515 C 0.61459 0.13336 0.97513 0.0
C516 C 0.66314 0.19404 0.05008 0.0
H517 H 0.5809 0.10192 0.05193 0.0
C518 C 0.83044 0.02264 0.19996 0.0
O519 O 0.85825 0.16262 0.3312 0.0
O520 O 0.76987 0.11536 0.32587 0.0
N521 N 0.6461 0.19438 0.14206 0.0
C522 C 0.6406 0.23811 0.17087 0.0
C523 C 0.59584 0.28293 0.14097 0.0
C524 C 0.58952 0.32415 0.07153 0.0
C525 C 0.59935 0.28755 0.10293 0.0
C526 C 0.63549 0.21527 0.09685 0.0
H527 H 0.6854 0.25365 0.1913 0.0
O528 O 0.74466 0.20889 0.28902 0.0
O529 O 0.71702 0.16907 0.22285 0.0
O530 O 0.85307 0.2042 0.19737 0.0
O531 O 0.77478 0.20181 0.12879 0.0
C532 C 0.60628 0.31821 0.02363 0.0
C533 C 0.63752 0.27671 0.9801 0.0
H534 H 0.63641 0.18992 0.91476 0.0
H535 H 0.58372 0.11015 0.94845 0.0
H536 H 0.57643 0.28745 0.18571 0.0
H537 H 0.56364 0.37185 0.07022 0.0
H538 H 0.61749 0.35651 -0.00118 0.0
H539 H 0.64942 0.28979 0.94095 0.0
Mn540 Mn 0.5465 0.40756 0.46342 0.0
Mn541 Mn 0.43631 0.49087 0.42812 0.0
C542 C 0.42015 0.39298 0.48178 0.0
C543 C 0.58788 0.32212 0.46652 0.0
C544 C 0.54839 0.51808 0.51885 0.0
O545 O 0.59307 0.43674 0.38868 0.0
O546 O 0.50887 0.49307 0.37419 0.0
C547 C 0.38283 0.46418 0.31866 0.0
N548 N 0.37011 0.4688 0.37087 0.0
C549 C 0.25909 0.53523 0.3397 0.0
C550 C 0.29866 0.5315 0.29247 0.0
C551 C 0.3413 0.48925 0.28056 0.0
C552 C 0.3056 0.48015 0.38414 0.0
H553 H 0.42793 0.44326 0.30594 0.0
C554 C 0.56353 0.47126 0.35764 0.0
O555 O 0.61948 0.35811 0.49239 0.0
O556 O 0.54245 0.33749 0.43251 0.0
N557 N 0.36895 0.48435 0.47861 0.0
C558 C 0.36167 0.50537 0.5257 0.0
C559 C 0.28058 0.52683 0.53305 0.0
C560 C 0.20223 0.57671 0.50603 0.0
C561 C 0.25227 0.53735 0.51091 0.0
C562 C 0.30844 0.47933 0.45947 0.0
H563 H 0.40316 0.49748 0.55416 0.0
O564 O 0.46862 0.38218 0.51555 0.0
O565 O 0.4486 0.41932 0.44383 0.0
O566 O 0.57327 0.47238 0.51444 0.0
O567 O 0.49754 0.52776 0.48712 0.0
C568 C 0.18215 0.60083 0.4565 0.0
C569 C 0.19755 0.59573 0.37372 0.0
H570 H 0.30669 0.56399 0.26802 0.0
H571 H 0.35522 0.48469 0.2401 0.0
H572 H 0.31073 0.51685 0.57646 0.0
H573 H 0.16932 0.60511 0.5355 0.0
H574 H 0.17874 0.60995 0.41349 0.0
H575 H 0.22517 0.57218 0.34717 0.0
C576 C 0.26213 0.10777 0.10026 0.0
C577 C 0.22349 0.14905 0.1244 0.0
C578 C 0.12107 0.10656 0.07807 0.0
C579 C 0.15749 0.06069 0.06018 0.0
N580 N 0.26826 0.01836 0.06917 0.0
N581 N 0.10625 0.17249 0.14593 0.0
C582 C 0.22933 0.06154 0.07635 0.0
C583 C 0.15035 0.14277 0.11705 0.0
N584 N 0.33165 0.11239 0.09895 0.0
N585 N 0.05898 0.11948 0.0562 0.0
H586 H 0.12239 0.20132 0.17196 0.0
H587 H 0.05318 0.16596 0.14588 0.0
H588 H 0.03193 0.0978 0.0286 0.0
H589 H 0.03869 0.15643 0.06089 0.0
H590 H 0.36278 0.0883 0.07636 0.0
H591 H 0.35732 0.14244 0.11793 0.0
H592 H 0.31745 0.01426 0.08574 0.0
H593 H 0.25026 -0.01449 0.04986 0.0
C594 C 0.09228 0.83533 0.41716 0.0
C595 C 0.11582 0.88748 0.42612 0.0
C596 C 0.19092 0.86976 0.34654 0.0
C597 C 0.17987 0.81521 0.34718 0.0
N598 N 0.11825 0.74706 0.38956 0.0
N599 N 0.2043 0.94776 0.39931 0.0
C600 C 0.13113 0.79847 0.3853 0.0
C601 C 0.16989 0.9027 0.39066 0.0
N602 N 0.02803 0.8219 0.43276 0.0
N603 N 0.21841 0.8915 0.30261 0.0
H604 H 0.19769 0.97029 0.4331 0.0
H605 H 0.24601 0.95894 0.37634 0.0
H606 H 0.2327 0.86984 0.26959 0.0
H607 H 0.22032 0.93135 0.29743 0.0
H608 H 1.00441 0.78804 0.41967 0.0
H609 H 0.99468 0.84753 0.45096 0.0
H610 H 0.08782 0.73207 0.41933 0.0
H611 H 0.14117 0.71929 0.36544 0.0
C612 C 0.41222 0.87696 0.61249 0.0
C613 C 0.40161 0.87944 0.55573 0.0
C614 C 0.3163 0.80434 0.57407 0.0
C615 C 0.33662 0.79658 0.62982 0.0
N616 N 0.4269 0.82358 0.69109 0.0
N617 N 0.3317 0.84451 0.48583 0.0
C618 C 0.3907 0.83265 0.6454 0.0
C619 C 0.35075 0.84215 0.53799 0.0
N620 N 0.44052 0.91866 0.63716 0.0
N621 N 0.26157 0.77699 0.55462 0.0
H622 H 0.34748 0.87444 0.46131 0.0
H623 H 0.30268 0.81654 0.46617 0.0
H624 H 0.23751 0.74775 0.57503 0.0
H625 H 0.23633 0.78508 0.51902 0.0
H626 H 0.44249 0.92243 0.67838 0.0
H627 H 0.45521 0.9515 0.61664 0.0
H628 H 0.46889 0.84598 0.70297 0.0
H629 H 0.42285 0.78955 0.71241 0.0
C630 C 0.46384 0.08629 0.86914 0.0
C631 C 0.43864 0.07252 0.92129 0.0
C632 C 0.3418 0.13909 0.89708 0.0
C633 C 0.36601 0.1534 0.84395 0.0
N634 N 0.46687 0.14128 0.78951 0.0
N635 N 0.33528 0.07732 0.97097 0.0
C636 C 0.43116 0.12619 0.83311 0.0
C637 C 0.37274 0.097 0.93059 0.0
N638 N 0.51902 0.0586 0.85199 0.0
N639 N 0.29073 0.16793 0.9193 0.0
H640 H 0.35394 0.04701 -0.00592 0.0
H641 H 0.28348 0.08617 0.97652 0.0
H642 H 0.26774 0.19936 0.9012 0.0
H643 H 0.27709 0.16488 0.95905 0.0
H644 H 0.53584 0.05807 0.81295 0.0
H645 H 0.54341 0.03157 0.87626 0.0
H646 H 0.51637 0.12877 0.78063 0.0
H647 H 0.45147 0.17143 0.76524 0.0
C648 C 0.57274 0.28027 0.85688 0.0
C649 C 0.63193 0.29206 0.82418 0.0
C650 C 0.62319 0.3816 0.87175 0.0
C651 C 0.56447 0.37027 0.9057 0.0
N652 N 0.47592 0.30539 0.91447 0.0
N653 N 0.68611 0.36647 0.78862 0.0
C654 C 0.53734 0.3187 0.89276 0.0
C655 C 0.6487 0.34637 0.82871 0.0
N656 N 0.54934 0.23086 0.85414 0.0
N657 N 0.65859 0.42603 0.88129 0.0
H658 H 0.70125 0.34362 0.75669 0.0
H659 H 0.69391 0.40592 0.78395 0.0
H660 H 0.64599 0.45158 0.91154 0.0
H661 H 0.70462 0.43483 0.86252 0.0
H662 H 0.51408 0.21521 0.88033 0.0
H663 H 0.57037 0.20405 0.82793 0.0
H664 H 0.44825 0.27256 0.90397 0.0
H665 H 0.44908 0.32942 0.93989 0.0
C666 C 0.91323 0.36551 0.12308 0.0
C667 C 0.89226 0.37597 0.06919 0.0
C668 C 0.84463 0.28734 0.06827 0.0
C669 C 0.85659 0.27655 0.12432 0.0
N670 N 0.89342 0.31856 0.20579 0.0
N671 N 0.81607 0.34966 -0.00069 0.0
C672 C 0.88868 0.31958 0.15182 0.0
C673 C 0.85051 0.33792 0.04535 0.0
N674 N 0.95792 0.39891 0.14708 0.0
N675 N 0.83003 0.24843 0.03453 0.0
H676 H 0.81798 0.38617 0.98214 0.0
H677 H 0.77971 0.32537 0.98164 0.0
H678 H 0.83665 0.21222 0.04737 0.0
H679 H 0.82173 0.25177 -0.00619 0.0
H680 H 0.98198 0.39136 0.1834 0.0
H681 H 0.97396 0.43268 0.12861 0.0
H682 H 0.9096 0.35012 0.22833 0.0
H683 H 0.87481 0.28827 0.22834 0.0
C684 C 0.85088 0.57093 0.43856 0.0
C685 C 0.89406 0.52899 0.42249 0.0
C686 C 0.8912 0.56946 0.33085 0.0
C687 C 0.84755 0.61192 0.34663 0.0
N688 N 0.77763 0.64446 0.4195 0.0
N689 N 0.93691 0.48262 0.34701 0.0
C690 C 0.82568 0.61015 0.40158 0.0
C691 C 0.90804 0.52656 0.3667 0.0
N692 N 0.83241 0.57341 0.4906 0.0
N693 N 0.92107 0.57125 0.28208 0.0
H694 H 0.95147 0.45179 0.37092 0.0
H695 H 0.94002 0.47453 0.30662 0.0
H696 H 0.91846 0.60347 0.2577 0.0
H697 H 0.95509 0.54356 0.2679 0.0
H698 H 0.80975 0.60554 0.508 0.0
H699 H 0.84046 0.54313 0.51698 0.0
H700 H 0.74635 0.63744 0.45197 0.0
H701 H 0.76524 0.6792 0.40195 0.0
C702 C 0.6489 0.55907 0.58347 0.0
C703 C 0.57949 0.56104 0.56136 0.0
C704 C 0.57216 0.64653 0.61409 0.0
C705 C 0.63868 0.6419 0.63879 0.0
N706 N 0.72791 0.57985 0.65732 0.0
N707 N 0.47061 0.60319 0.57942 0.0
C708 C 0.67273 0.59383 0.62659 0.0
C709 C 0.54038 0.60412 0.58325 0.0
N710 N 0.69502 0.52543 0.56206 0.0
N711 N 0.53704 0.69164 0.62081 0.0
H712 H 0.44464 0.57482 0.5587 0.0
H713 H 0.43883 0.62851 0.60007 0.0
H714 H 0.5564 0.72195 0.64384 0.0
H715 H 0.49111 0.69999 0.60078 0.0
H716 H 0.74663 0.52419 0.57374 0.0
H717 H 0.68441 0.50338 0.52843 0.0
H718 H 0.75111 0.54365 0.65499 0.0
H719 H 0.74574 0.60268 0.68875 0.0
C720 C 0.35394 0.25817 0.43876 0.0
C721 C 0.29055 0.24408 0.41474 0.0
C722 C 0.26705 0.20094 0.50055 0.0
C723 C 0.31295 0.2352 0.52709 0.0
N724 N 0.41704 0.28142 0.51882 0.0
N725 N 0.20526 0.17702 0.41919 0.0
C726 C 0.3614 0.2597 0.49529 0.0
C727 C 0.25184 0.20776 0.44447 0.0
N728 N 0.40971 0.26095 0.40726 0.0
N729 N 0.24417 0.15921 0.52778 0.0
H730 H 0.19789 0.17618 0.37836 0.0
H731 H 0.17659 0.1497 0.43865 0.0
H732 H 0.25498 0.15422 0.5681 0.0
H733 H 0.22333 0.12695 0.50933 0.0
H734 H 0.45789 0.27262 0.41979 0.0
H735 H 0.40897 0.24165 0.37096 0.0
H736 H 0.45597 0.29684 0.49673 0.0
H737 H 0.42457 0.28314 0.5598 0.0
C738 C 0.12779 0.01567 0.77768 0.0
C739 C 0.14201 0.9683 0.80335 0.0
C740 C 0.16172 0.93867 0.70732 0.0
C741 C 0.12244 -0.01893 0.6846 0.0
N742 N 0.04485 0.04549 0.71522 0.0
N743 N 0.19111 0.88488 0.78542 0.0
C744 C 0.10086 0.01646 0.72438 0.0
C745 C 0.16443 0.92944 0.76585 0.0
N746 N 0.13935 0.06072 0.80376 0.0
N747 N 0.19862 0.90859 0.6736 0.0
H748 H 0.19928 0.87963 0.82598 0.0
H749 H 0.20486 0.85376 0.76164 0.0
H750 H 0.20288 0.91825 0.63361 0.0
H751 H 0.231 0.87885 0.68595 0.0
H752 H 0.13396 0.09576 0.784 0.0
H753 H 0.15981 0.06172 0.84227 0.0
H754 H 0.0326 0.07671 0.73914 0.0
H755 H 1.01048 0.03486 0.68548 0.0
C756 C 0.26774 0.77794 0.96459 0.0
C757 C 0.28 0.72795 0.94247 0.0
C758 C 0.20738 0.69187 0.01137 0.0
C759 C 0.20891 0.73738 0.04074 0.0
N760 N 0.23912 0.82742 0.04419 0.0
N761 N 0.27504 0.63747 0.95566 0.0
C762 C 0.23801 0.782 0.01681 0.0
C763 C 0.25409 0.68529 0.96957 0.0
N764 N 0.28194 0.821 0.93596 0.0
N765 N 0.16105 0.6547 0.02354 0.0
H766 H 0.31527 0.63 0.92948 0.0
H767 H 0.25504 0.60655 0.97472 0.0
H768 H 0.12802 0.65842 0.05571 0.0
H769 H 0.15 0.62473 -0.00272 0.0
H770 H 0.26731 0.85788 0.94787 0.0
H771 H 0.30459 0.81951 0.89875 0.0
H772 H 0.26553 0.8599 0.03136 0.0
H773 H 0.21562 0.83164 0.08094 0.0
C774 C 0.43542 0.0377 0.2715 0.0
C775 C 0.42188 -0.00709 0.30092 0.0
C776 C 0.40774 0.94737 0.21222 0.0
C777 C 0.44277 -0.01205 0.18524 0.0
N778 N 0.43186 0.07894 0.18601 0.0
N779 N 0.36367 0.91226 0.29554 0.0
C780 C 0.44122 0.03549 0.21421 0.0
C781 C 0.39726 0.95016 0.26973 0.0
N782 N 0.44071 0.0832 0.29817 0.0
N783 N 0.3771 0.90965 0.18276 0.0
H784 H 0.34338 0.91928 0.33302 0.0
H785 H 0.35399 0.87596 0.27976 0.0
H786 H 0.37708 0.90991 0.14149 0.0
H787 H 0.34524 0.88151 0.19844 0.0
H788 H 0.45119 0.11801 0.27997 0.0
H789 H 0.43147 0.08591 0.33869 0.0
H790 H 0.40659 0.11055 0.20254 0.0
H791 H 0.43824 0.07955 0.14513 0.0
C792 C 0.51658 0.25768 0.28166 0.0
C793 C 0.47733 0.22578 0.24569 0.0
C794 C 0.57289 0.16779 0.24521 0.0
C795 C 0.61845 0.20354 0.26903 0.0
N796 N 0.63189 0.29104 0.30086 0.0
N797 N 0.49542 0.16958 0.17146 0.0
C798 C 0.59013 0.25173 0.28452 0.0
C799 C 0.5131 0.1861 0.22068 0.0
N800 N 0.48509 0.29305 0.31264 0.0
N801 N 0.58113 0.11641 0.25047 0.0
H802 H 0.45271 0.18452 0.15155 0.0
H803 H 0.5261 0.14314 0.15102 0.0
H804 H 0.61745 0.10062 0.27655 0.0
H805 H 0.61745 0.10062 0.27655 0.0
H806 H 0.51117 0.31503 0.34088 0.0
H807 H 0.43253 0.29944 0.30998 0.0
H808 H 0.61361 0.32628 0.31446 0.0
H809 H 0.68541 0.2885 0.30046 0.0
C810 C 1.00118 0.2415 0.4614 0.0
C811 C 0.97352 0.25438 0.51248 0.0
C812 C 0.06084 0.2049 0.55023 0.0
C813 C 0.07015 0.17467 0.50543 0.0
N814 N 0.04127 0.16736 0.41118 0.0
N815 N 0.94574 0.19106 0.57463 0.0
C816 C 0.03935 0.19424 0.45758 0.0
C817 C 0.99341 0.22255 0.55382 0.0
N818 N 0.99581 0.2736 0.41903 0.0
N819 N 0.11227 0.23841 0.56162 0.0
H820 H 0.89304 0.19804 0.57082 0.0
H821 H 0.89304 0.19804 0.57082 0.0
H822 H 0.16304 0.23001 0.55317 0.0
H823 H 0.10251 0.2761 0.57319 0.0
H824 H 0.02024 0.26543 0.38327 0.0
H825 H 0.97065 0.30903 0.42081 0.0
H826 H 1.0144 0.17968 0.37743 0.0
H827 H 0.06643 0.13199 0.40787 0.0
C828 C 0.95829 0.76765 0.7961 0.0
C829 C 0.92678 0.72463 0.76949 0.0
C830 C 0.04321 0.68381 0.77297 0.0
C831 C 0.07634 0.72801 0.79391 0.0
N832 N 0.05946 0.81629 0.82254 0.0
N833 N 0.95433 0.65469 0.71316 0.0
C834 C 0.03215 0.77105 0.80465 0.0
C835 C 0.97366 0.68643 0.7528 0.0
N836 N 0.91925 0.80564 0.81688 0.0
N837 N 0.0779 0.63811 0.77327 0.0
H838 H 0.90284 0.64756 0.7041 0.0
H839 H 0.99176 0.63952 0.68851 0.0
H840 H 0.12228 0.63221 0.79622 0.0
H841 H 0.05878 0.60462 0.75669 0.0
H842 H 0.86571 0.80512 0.8167 0.0
H843 H 0.86571 0.80512 0.8167 0.0
H844 H 0.03021 0.84997 0.82576 0.0
H845 H 0.1099 0.81948 0.83609 0.0
C846 C 0.45603 0.69462 0.04801 0.0
C847 C 0.50593 0.6691 0.01526 0.0
C848 C 0.53458 0.75418 0.97793 0.0
C849 C 0.48928 0.77876 0.01366 0.0
N850 N 0.38577 0.77123 0.06215 0.0
N851 N 0.55709 0.67677 0.92808 0.0
C852 C 0.4425 0.74835 0.04144 0.0
C853 C 0.536 0.69921 0.9742 0.0
N854 N 0.42227 0.66826 0.08638 0.0
N855 N 0.57369 0.78331 0.94514 0.0
H856 H 0.55088 0.63801 0.91897 0.0
H857 H 0.56868 0.69838 0.89469 0.0
H858 H 0.56547 0.8227 0.94078 0.0
H859 H 0.6137 0.76805 0.9228 0.0
H860 H 0.37529 0.67919 0.10202 0.0
H861 H 0.44631 0.63983 0.10884 0.0
H862 H 0.3456 0.75074 0.07829 0.0
H863 H 0.37601 0.81058 0.05817 0.0
C864 C 0.53115 0.6727 0.21816 0.0
C865 C 0.58052 0.70987 0.20649 0.0
C866 C 0.48361 0.76506 0.17242 0.0
C867 C 0.43302 0.72735 0.18714 0.0
N868 N 0.41576 0.64252 0.21879 0.0
N869 N 0.6035 0.78441 0.15344 0.0
C870 C 0.45982 0.6806 0.20721 0.0
C871 C 0.55668 0.75427 0.17835 0.0
N872 N 0.55254 0.62541 0.23309 0.0
N873 N 0.46296 0.8127 0.1566 0.0
H874 H 0.65596 0.77695 0.1546 0.0
H875 H 0.59063 0.81545 0.1296 0.0
H876 H 0.41196 0.82146 0.14851 0.0
H877 H 0.49595 0.84425 0.15514 0.0
H878 H 0.60126 0.61603 0.24785 0.0
H879 H 0.52327 0.59526 0.21985 0.0
H880 H 0.41711 0.62777 0.25672 0.0
H881 H 0.37377 0.63455 0.19455 0.0
C882 C 0.54196 0.19481 0.43109 0.0
C883 C 0.50845 0.17495 0.47623 0.0
C884 C 0.56153 0.24685 0.52773 0.0
C885 C 0.59053 0.26606 0.48024 0.0
N886 N 0.64154 0.2423 0.39992 0.0
N887 N 0.50376 0.17623 0.57256 0.0
C888 C 0.59246 0.23375 0.43661 0.0
C889 C 0.52356 0.19893 0.52649 0.0
N890 N 0.52321 0.17729 0.3823 0.0
N891 N 0.56634 0.27598 0.57274 0.0
H892 H 0.47371 0.1432 0.57383 0.0
H893 H 0.52014 0.18891 0.60985 0.0
H894 H 0.59624 0.30931 0.57442 0.0
H895 H 0.53978 0.2679 0.60739 0.0
H896 H 0.55263 0.183 0.3495 0.0
H897 H 0.47664 0.15837 0.37537 0.0
H898 H 0.65133 0.21654 0.36961 0.0
H899 H 0.67797 0.27164 0.40479 0.0
C900 C 0.05138 0.25977 0.6755 0.0
C901 C 0.09408 0.21495 0.68149 0.0
C902 C 0.98255 0.16536 0.67851 0.0
C903 C 0.94184 0.21071 0.68817 0.0
N904 N 0.94215 0.30292 0.67044 0.0
N905 N 0.09449 0.1261 0.65673 0.0
C906 C 0.97756 0.25816 0.67902 0.0
C907 C 0.05788 0.16773 0.67375 0.0
N908 N 0.07948 0.30572 0.66305 0.0
N909 N 0.94807 0.12147 0.66513 0.0
H910 H 0.07286 0.09445 0.6382 0.0
H911 H 0.1477 0.12378 0.656 0.0
H912 H 0.89552 0.11631 0.66995 0.0
H913 H 0.96844 0.09375 0.6403 0.0
H914 H 0.1318 0.31083 0.65712 0.0
H915 H 0.1318 0.31083 0.65712 0.0
H916 H 0.96617 0.33872 0.66734 0.0
H917 H 0.88954 0.30521 0.66448 0.0
C918 C 0.99271 0.74657 0.95179 0.0
C919 C 0.03019 0.76278 -0.0024 0.0
C920 C 0.9864 0.68534 0.04299 0.0
C921 C 0.95695 0.66781 -0.00575 0.0
N922 N 0.92302 0.68453 0.90473 0.0
N923 N 0.03339 0.75677 0.09366 0.0
C924 C 0.95836 0.69911 0.94957 0.0
C925 C 0.01853 0.73506 0.04554 0.0
N926 N 0.98036 0.77867 0.91113 0.0
N927 N 0.9876 0.65355 0.08603 0.0
H928 H 0.05486 0.79307 0.09847 0.0
H929 H 0.01794 0.74081 0.12946 0.0
H930 H 0.96235 0.6182 0.08666 0.0
H931 H 0.01704 0.66088 0.12003 0.0
H932 H 0.98852 0.81812 0.91235 0.0
H933 H 0.98852 0.81812 0.91235 0.0
H934 H 0.9216 0.70672 0.8708 0.0
H935 H 0.89156 0.65199 0.90252 0.0
C936 C 0.14202 0.47653 0.25824 0.0
C937 C 0.1882 0.45388 0.22036 0.0
C938 C 0.22169 0.54538 0.19763 0.0
C939 C 0.17711 0.56907 0.23432 0.0
N940 N 0.08903 0.55476 0.29821 0.0
N941 N 0.24868 0.47639 0.14012 0.0
C942 C 0.13463 0.53362 0.26372 0.0
C943 C 0.22072 0.49136 0.18664 0.0
N944 N 0.10336 0.44361 0.28739 0.0
N945 N 0.27206 0.57449 0.17594 0.0
H946 H 0.21935 0.45473 0.11332 0.0
H947 H 0.29573 0.48964 0.12654 0.0
H948 H 0.27002 0.61444 0.17446 0.0
H949 H 0.31826 0.55866 0.16346 0.0
H950 H 0.06692 0.45514 0.31474 0.0
H951 H 0.10698 0.40375 0.28264 0.0
H952 H 0.05821 0.53373 0.32354 0.0
H953 H 0.08238 0.59465 0.30089 0.0
C954 C 0.68984 -0.00751 0.78635 0.0
C955 C 0.67624 0.02275 0.74073 0.0
C956 C 0.62798 0.93445 0.70804 0.0
C957 C 0.66235 0.904 0.7489 0.0
N958 N 0.74095 0.91463 0.82156 0.0
N959 N 0.59153 0.01916 0.67091 0.0
C960 C 0.69723 0.9364 0.78602 0.0
C961 C 0.6336 -0.00755 0.70446 0.0
N962 N 0.67228 0.01424 0.83249 0.0
N963 N 0.5922 0.90735 0.67079 0.0
H964 H 0.59146 0.05932 0.66991 0.0
H965 H 0.55374 0.00231 0.64708 0.0
H966 H 0.58693 0.86737 0.67265 0.0
H967 H 0.5691 0.92407 0.63815 0.0
H968 H 0.64658 -0.01056 0.85716 0.0
H969 H 0.66222 0.05351 0.83722 0.0
H970 H 0.77119 0.93684 0.8469 0.0
H971 H 0.75209 0.87546 0.8208 0.0
C972 C 0.26084 0.5127 0.95289 0.0
C973 C 0.30091 0.51387 0.00069 0.0
C974 C 0.19269 0.53648 0.04725 0.0
C975 C 0.15282 0.51898 0.00342 0.0
N976 N 0.15743 0.55133 0.91528 0.0
N977 N 0.30254 0.57642 0.06937 0.0
C978 C 0.18802 0.52321 0.95465 0.0
C979 C 0.26681 0.53954 0.04272 0.0
N980 N 0.29332 0.5099 0.90569 0.0
N981 N 0.16008 0.55632 0.09017 0.0
H982 H 0.35585 0.57906 0.06808 0.0
H983 H 0.27822 0.60893 0.0844 0.0
H984 H 0.11262 0.54317 0.10317 0.0
H985 H 0.17933 0.58744 0.11146 0.0
H986 H 0.2699 0.51832 0.86966 0.0
H987 H 0.34349 0.49669 0.90301 0.0
H988 H 0.18381 0.56526 0.88255 0.0
H989 H 0.10719 0.56535 0.91829 0.0
C990 C 0.90646 0.93962 0.22927 0.0
C991 C 0.84439 0.9635 0.20966 0.0
C992 C 0.80722 0.8756 0.1815 0.0
C993 C 0.86094 0.85011 0.2087 0.0
N994 N 0.9609 0.86096 0.26478 0.0
N995 N 0.72512 0.94404 0.1938 0.0
C996 C 0.91084 0.8832 0.23429 0.0
C997 C 0.79185 0.92821 0.19366 0.0
N998 N 0.96106 0.96999 0.24266 0.0
N999 N 0.76815 0.84857 0.14588 0.0
H1000 H 0.68565 0.92206 0.17764 0.0
H1001 H 0.70998 -0.02213 0.21262 0.0
H1002 H 0.7822 0.81167 0.13398 0.0
H1003 H 0.72545 0.86375 0.12599 0.0
H1004 H 1.00919 0.95513 0.25319 0.0
H1005 H 0.95882 0.01002 0.23955 0.0
H1006 H 0.99465 0.88204 0.28885 0.0
H1007 H 0.96558 0.82094 0.26751 0.0
C1008 C 0.85549 0.90848 0.04622 0.0
C1009 C 0.88804 0.89452 -0.00227 0.0
C1010 C 0.76371 0.88773 0.96301 0.0
C1011 C 0.73187 0.91237 0.00812 0.0
N1012 N 0.76458 0.95126 0.09062 0.0
N1013 N 0.8597 0.88018 0.9046 0.0
C1014 C 0.78292 0.92399 0.04824 0.0
C1015 C 0.83847 0.88724 0.95509 0.0
N1016 N 0.89624 0.91569 0.08973 0.0
N1017 N 0.72431 0.86254 0.92641 0.0
H1018 H 0.91106 0.88009 0.8935 0.0
H1019 H 0.91106 0.88009 0.8935 0.0
H1020 H 0.67178 0.85748 0.92816 0.0
H1021 H 0.74651 0.84036 0.89693 0.0
H1022 H 0.8838 0.94226 0.11864 0.0
H1023 H 0.94293 0.8969 0.09587 0.0
H1024 H 0.7142 0.96179 0.09795 0.0
H1025 H 0.7142 0.96179 0.09795 0.0
C1026 C 0.36803 0.50779 0.7886 0.0
C1027 C 0.33131 0.53886 0.74896 0.0
C1028 C 0.32143 0.45399 0.70036 0.0
C1029 C 0.34335 0.41858 0.74041 0.0
N1030 N 0.41458 0.42214 0.81938 0.0
N1031 N 0.38303 0.52577 0.66514 0.0
C1032 C 0.37647 0.44911 0.78339 0.0
C1033 C 0.33838 0.50842 0.7019 0.0
N1034 N 0.40187 0.53455 0.82737 0.0
N1035 N 0.28087 0.43723 0.66077 0.0
H1036 H 0.40346 0.56296 0.66732 0.0
H1037 H 0.40453 0.50027 0.63801 0.0
H1038 H 0.25519 0.40328 0.66642 0.0
H1039 H 0.26728 0.45939 0.62811 0.0
H1040 H 0.43669 0.51819 0.85405 0.0
H1041 H 0.39703 0.57446 0.83083 0.0
H1042 H 0.4432 0.43904 0.84979 0.0
H1043 H 0.41922 0.3821 0.81652 0.0
C1044 C 0.22643 0.37913 0.54082 0.0
C1045 C 0.18148 0.3873 0.49627 0.0
C1046 C 0.29176 0.37532 0.44214 0.0
C1047 C 0.33774 0.38005 0.48744 0.0
N1048 N 0.34189 0.3706 0.58154 0.0
N1049 N 0.17589 0.37792 0.40114 0.0
C1050 C 0.30254 0.37669 0.53704 0.0
C1051 C 0.21578 0.38027 0.44603 0.0
N1052 N 0.19533 0.36979 0.58754 0.0
N1053 N 0.32182 0.3711 0.39392 0.0
H1054 H 0.1236 0.38661 0.40061 0.0
H1055 H 0.19347 0.36624 0.36421 0.0
H1056 H 0.37419 0.36314 0.38977 0.0
H1057 H 0.29647 0.37843 0.35819 0.0
H1058 H 0.21883 0.34877 0.61701 0.0
H1059 H 0.14337 0.37591 0.59446 0.0
H1060 H 0.32296 0.35831 0.61715 0.0
H1061 H 0.39502 0.37364 0.58309 0.0
C1062 C 0.7995 0.74088 0.96632 0.0
C1063 C 0.75433 0.7092 0.93481 0.0
C1064 C 0.74438 0.65149 0.01214 0.0
C1065 C 0.78263 0.68725 0.04298 0.0
N1066 N 0.85353 0.76271 0.04947 0.0
N1067 N 0.71411 0.6213 0.9239 0.0
C1068 C 0.81138 0.73092 0.02005 0.0
C1069 C 0.73482 0.66057 0.95661 0.0
N1070 N 0.83976 0.77792 0.94621 0.0
N1071 N 0.71612 0.60961 0.03623 0.0
H1072 H 0.71756 0.62307 0.88278 0.0
H1073 H 0.70349 0.58423 0.93707 0.0
H1074 H 0.72457 0.6014 0.07629 0.0
H1075 H 0.68222 0.58431 0.01742 0.0
H1076 H 0.84985 0.78301 0.90649 0.0
H1077 H 0.84985 0.78301 0.90649 0.0
H1078 H 0.87552 0.79614 0.03449 0.0
H1079 H 0.86904 0.75474 0.08835 0.0
C1080 C 0.52343 0.50781 0.26656 0.0
C1081 C 0.5781 0.48398 0.29606 0.0
C1082 C 0.6359 0.48233 0.20588 0.0
C1083 C 0.57051 0.48712 0.17807 0.0
N1084 N 0.45696 0.52055 0.18408 0.0
N1085 N 0.69735 0.46065 0.28994 0.0
C1086 C 0.51471 0.50229 0.20971 0.0
C1087 C 0.63851 0.47581 0.26461 0.0
N1088 N 0.48491 0.54311 0.29212 0.0
N1089 N 0.69399 0.4794 0.17627 0.0
H1090 H 0.69974 0.45747 0.33119 0.0
H1091 H 0.74214 0.45006 0.27032 0.0
H1092 H 0.69161 0.48169 0.13492 0.0
H1093 H 0.74346 0.4778 0.19253 0.0
H1094 H 0.43814 0.55457 0.27782 0.0
H1095 H 0.50478 0.56489 0.32354 0.0
H1096 H 0.41664 0.53938 0.20201 0.0
H1097 H 0.45105 0.52233 0.143 0.0
C1098 C 0.72134 0.14188 0.43535 0.0
C1099 C 0.78309 0.16131 0.4129 0.0
C1100 C 0.79038 0.21508 0.49535 0.0
C1101 C 0.75131 0.17819 0.52327 0.0
N1102 N 0.65133 0.12852 0.51433 0.0
N1103 N 0.84468 0.24198 0.41323 0.0
C1104 C 0.70886 0.1472 0.49158 0.0
C1105 C 0.80921 0.20569 0.44047 0.0
N1106 N 0.67038 0.12531 0.40213 0.0
N1107 N 0.7996 0.26203 0.51854 0.0
H1108 H 0.8503 0.24133 0.37229 0.0
H1109 H 0.86321 0.27542 0.43075 0.0
H1110 H 0.78901 0.26884 0.55848 0.0
H1111 H 0.80442 0.29531 0.49617 0.0
H1112 H 0.62585 0.10805 0.41421 0.0
H1113 H 0.66861 0.13257 0.36173 0.0
H1114 H 0.61138 0.11475 0.49225 0.0
H1115 H 0.64085 0.13002 0.5548 0.0
C1116 C 0.86933 0.42747 0.72536 0.0
C1117 C 0.90746 0.46276 0.69272 0.0
C1118 C 0.91541 0.51713 0.77864 0.0
C1119 C 0.89068 0.47834 0.81254 0.0
N1120 N 0.83392 0.39732 0.81446 0.0
N1121 N 0.95228 0.54758 0.69355 0.0
C1122 C 0.86451 0.43379 0.7843 0.0
C1123 C 0.92438 0.50923 0.72133 0.0
N1124 N 0.83336 0.38981 0.69984 0.0
N1125 N 0.93239 0.5627 0.8019 0.0
H1126 H 0.93669 0.55651 0.65492 0.0
H1127 H 0.99995 0.55998 0.7065 0.0
H1128 H 0.92437 0.57079 0.84192 0.0
H1129 H 0.95139 0.59307 0.781 0.0
H1130 H 0.7992 0.36544 0.71845 0.0
H1131 H 0.83226 0.38675 0.65863 0.0
H1132 H 0.8165 0.36236 0.79997 0.0
H1133 H 0.82527 0.40312 0.85486 0.0
C1134 C 0.8082 0.03959 0.53547 0.0
C1135 C 0.84824 0.03119 0.48926 0.0
C1136 C 0.73656 0.02229 0.43964 0.0
C1137 C 0.69545 0.02216 0.48712 0.0
N1138 N 0.70099 0.03047 0.5829 0.0
N1139 N 0.84597 0.01907 0.39436 0.0
C1140 C 0.73428 0.03077 0.53568 0.0
C1141 C 0.81094 0.02402 0.44084 0.0
N1142 N 0.84131 0.05838 0.57938 0.0
N1143 N 0.70691 0.0246 0.39091 0.0
H1144 H 0.89947 0.01899 0.39222 0.0
H1145 H 0.82132 0.01322 0.35782 0.0
H1146 H 0.65421 0.02793 0.38369 0.0
H1147 H 0.65421 0.02793 0.38369 0.0
H1148 H 0.81903 0.06431 0.6161 0.0
H1149 H 0.89158 0.07198 0.57775 0.0
H1150 H 0.72514 0.03147 0.61984 0.0
H1151 H 0.6493 0.02244 0.58597 0.0
loop_
_geom_bond_atom_site_label_1
_geom_bond_atom_site_label_2
_geom_bond_distance
_geom_bond_site_symmetry_2
_ccdc_geom_bond_type
Mn0 O5 2.095 . S
Mn0 O15 2.162 . S
Mn0 O16 2.297 . S
Mn0 O24 2.385 . S
Mn0 O25 2.209 . S
Mn0 O26 2.094 . S
Mn1 O6 2.121 . S
Mn1 N8 2.257 . S
Mn1 N17 2.282 . S
Mn1 O25 2.215 . S
Mn1 O27 2.117 . S
C2 O24 1.234 . S
C2 O25 1.283 . S
C3 O15 1.281 . S
C3 O16 1.236 . S
C4 O26 1.240 . S
C4 O27 1.264 . S
O5 Mn0 2.095 . S
O5 C14 1.250 . S
O6 Mn1 2.121 . S
O6 C14 1.258 . S
C7 N8 1.326 . S
C7 C11 1.460 . S
C7 H13 0.929 . S
N8 Mn1 2.257 . S
N8 C7 1.326 . S
N8 C12 1.362 . S
C9 C10 1.258 . S
C9 C12 1.431 . S
C9 C29 1.449 . S
C10 C9 1.258 . S
C10 C11 1.477 . S
C10 H30 0.931 . S
C11 C7 1.460 . S
C11 C10 1.477 . S
C11 H31 0.930 . S
C12 N8 1.362 . S
C12 C9 1.431 . S
C12 C22 1.476 . S
H13 C7 0.929 . S
C14 O5 1.250 . S
C14 O6 1.258 . S
O15 Mn0 2.162 . S
O15 C3 1.281 . S
O16 Mn0 2.297 . S
O16 C3 1.236 . S
N17 Mn1 2.282 . S
N17 C18 1.328 . S
N17 C22 1.318 . S
C18 N17 1.328 . S
C18 C19 1.457 . S
C18 H23 0.929 . S
C19 C18 1.457 . S
C19 C20 1.291 . S
C19 H32 0.931 . S
C20 C19 1.291 . S
C20 C21 1.373 . S
C20 H33 0.929 . S
C21 C20 1.373 . S
C21 C22 1.396 . S
C21 C28 1.403 . S
C22 C12 1.476 . S
C22 N17 1.318 . S
C22 C21 1.396 . S
H23 C18 0.929 . S
O24 Mn0 2.385 . S
O24 C2 1.234 . S
O25 Mn0 2.209 . S
O25 Mn1 2.215 . S
O25 C2 1.283 . S
O26 Mn0 2.094 . S
O26 C4 1.240 . S
O27 Mn1 2.117 . S
O27 C4 1.264 . S
C28 C21 1.403 . S
C28 C29 1.399 . S
C28 H34 0.929 . S
C29 C9 1.449 . S
C29 C28 1.399 . S
C29 H35 0.930 . S
H30 C10 0.931 . S
H31 C11 0.930 . S
H32 C19 0.931 . S
H33 C20 0.929 . S
H34 C28 0.929 . S
H35 C29 0.930 . S
Mn36 O41 2.095 . S
Mn36 O51 2.162 . S
Mn36 O52 2.297 1_455 S
Mn36 O60 2.385 1_455 S
Mn36 O61 2.209 1_445 S
Mn36 O62 2.094 1_545 S
Mn37 O42 2.121 . S
Mn37 N44 2.257 . S
Mn37 N53 2.282 . S
Mn37 O61 2.215 . S
Mn37 O63 2.117 1_655 S
C38 O60 1.234 . S
C38 O61 1.283 1_545 S
C39 O51 1.281 . S
C39 O52 1.236 1_455 S
C40 O62 1.240 . S
C40 O63 1.264 . S
O41 Mn36 2.095 . S
O41 C50 1.250 1_545 S
O42 Mn37 2.121 . S
O42 C50 1.258 1_655 S
C43 N44 1.326 . S
C43 C47 1.460 . S
C43 H49 0.929 . S
N44 Mn37 2.257 . S
N44 C43 1.326 . S
N44 C48 1.362 . S
C45 C46 1.258 . S
C45 C48 1.431 . S
C45 C65 1.449 . S
C46 C45 1.258 . S
C46 C47 1.477 . S
C46 H66 0.931 . S
C47 C43 1.460 . S
C47 C46 1.477 . S
C47 H67 0.930 . S
C48 N44 1.362 . S
C48 C45 1.431 . S
C48 C58 1.476 . S
H49 C43 0.929 . S
C50 O41 1.250 1_565 S
C50 O42 1.258 1_455 S
O51 Mn36 2.162 . S
O51 C39 1.281 . S
O52 Mn36 2.297 1_655 S
O52 C39 1.236 1_655 S
N53 Mn37 2.282 . S
N53 C54 1.328 . S
N53 C58 1.318 . S
C54 N53 1.328 . S
C54 C55 1.457 . S
C54 H59 0.929 . S
C55 C54 1.457 . S
C55 C56 1.291 . S
C55 H68 0.931 . S
C56 C55 1.291 . S
C56 C57 1.373 . S
C56 H69 0.929 . S
C57 C56 1.373 . S
C57 C58 1.396 . S
C57 C64 1.403 . S
C58 C48 1.476 . S
C58 N53 1.318 . S
C58 C57 1.396 . S
H59 C54 0.929 . S
O60 Mn36 2.385 1_655 S
O60 C38 1.234 . S
O61 Mn36 2.209 1_665 S
O61 Mn37 2.215 . S
O61 C38 1.283 1_565 S
O62 Mn36 2.094 1_565 S
O62 C40 1.240 . S
O63 Mn37 2.117 1_455 S
O63 C40 1.264 . S
C64 C57 1.403 . S
C64 C65 1.399 . S
C64 H70 0.929 . S
C65 C45 1.449 . S
C65 C64 1.399 . S
C65 H71 0.930 . S
H66 C46 0.931 . S
H67 C47 0.930 . S
H68 C55 0.931 . S
H69 C56 0.929 . S
H70 C64 0.929 . S
H71 C65 0.930 . S
Mn72 O77 2.095 . S
Mn72 O87 2.162 . S
Mn72 O88 2.297 . S
Mn72 O96 2.385 . S
Mn72 O97 2.209 . S
Mn72 O98 2.094 . S
Mn73 O78 2.121 . S
Mn73 N80 2.257 . S
Mn73 N89 2.282 . S
Mn73 O97 2.215 . S
Mn73 O99 2.117 . S
C74 O96 1.234 . S
C74 O97 1.283 . S
C75 O87 1.281 . S
C75 O88 1.236 . S
C76 O98 1.240 . S
C76 O99 1.264 . S
O77 Mn72 2.095 . S
O77 C86 1.250 . S
O78 Mn73 2.121 . S
O78 C86 1.258 . S
C79 N80 1.326 . S
C79 C83 1.460 . S
C79 H85 0.929 . S
N80 Mn73 2.257 . S
N80 C79 1.326 . S
N80 C84 1.362 . S
C81 C82 1.258 . S
C81 C84 1.431 1_655 S
C81 C101 1.449 . S
C82 C81 1.258 . S
C82 C83 1.477 1_655 S
C82 H102 0.931 . S
C83 C79 1.460 . S
C83 C82 1.477 1_455 S
C83 H103 0.930 . S
C84 N80 1.362 . S
C84 C81 1.431 1_455 S
C84 C94 1.476 . S
H85 C79 0.929 . S
C86 O77 1.250 . S
C86 O78 1.258 . S
O87 Mn72 2.162 . S
O87 C75 1.281 . S
O88 Mn72 2.297 . S
O88 C75 1.236 . S
N89 Mn73 2.282 . S
N89 C90 1.328 . S
N89 C94 1.318 . S
C90 N89 1.328 . S
C90 C91 1.457 . S
C90 H95 0.929 . S
C91 C90 1.457 . S
C91 C92 1.291 . S
C91 H104 0.931 . S
C92 C91 1.291 . S
C92 C93 1.373 . S
C92 H105 0.929 1_455 S
C93 C92 1.373 . S
C93 C94 1.396 . S
C93 C100 1.403 1_455 S
C94 C84 1.476 . S
C94 N89 1.318 . S
C94 C93 1.396 . S
H95 C90 0.929 . S
O96 Mn72 2.385 . S
O96 C74 1.234 . S
O97 Mn72 2.209 . S
O97 Mn73 2.215 . S
O97 C74 1.283 . S
O98 Mn72 2.094 . S
O98 C76 1.240 . S
O99 Mn73 2.117 . S
O99 C76 1.264 . S
C100 C93 1.403 1_655 S
C100 C101 1.399 . S
C100 H106 0.929 . S
C101 C81 1.449 . S
C101 C100 1.399 . S
C101 H107 0.930 . S
H102 C82 0.931 . S
H103 C83 0.930 . S
H104 C91 0.931 . S
H105 C92 0.929 1_655 S
H106 C100 0.929 . S
H107 C101 0.930 . S
Mn108 O113 2.095 . S
Mn108 O123 2.162 . S
Mn108 O124 2.297 . S
Mn108 O132 2.385 1_554 S
Mn108 O133 2.209 1_565 S
Mn108 O134 2.094 1_564 S
Mn109 O114 2.121 . S
Mn109 N116 2.257 . S
Mn109 N125 2.282 . S
Mn109 O133 2.215 . S
Mn109 O135 2.117 . S
C110 O132 1.234 1_554 S
C110 O133 1.283 1_565 S
C111 O123 1.281 . S
C111 O124 1.236 . S
C112 O134 1.240 . S
C112 O135 1.264 1_556 S
O113 Mn108 2.095 . S
O113 C122 1.250 1_565 S
O114 Mn109 2.121 . S
O114 C122 1.258 . S
C115 N116 1.326 . S
C115 C119 1.460 . S
C115 H121 0.929 . S
N116 Mn109 2.257 . S
N116 C115 1.326 . S
N116 C120 1.362 . S
C117 C118 1.258 . S
C117 C120 1.431 . S
C117 C137 1.449 . S
C118 C117 1.258 . S
C118 C119 1.477 . S
C118 H138 0.931 . S
C119 C115 1.460 . S
C119 C118 1.477 . S
C119 H139 0.930 . S
C120 N116 1.362 . S
C120 C117 1.431 . S
C120 C130 1.476 . S
H121 C115 0.929 . S
C122 O113 1.250 1_545 S
C122 O114 1.258 . S
O123 Mn108 2.162 . S
O123 C111 1.281 . S
O124 Mn108 2.297 . S
O124 C111 1.236 . S
N125 Mn109 2.282 . S
N125 C126 1.328 1_554 S
N125 C130 1.318 . S
C126 N125 1.328 1_556 S
C126 C127 1.457 . S
C126 H131 0.929 . S
C127 C126 1.457 . S
C127 C128 1.291 . S
C127 H140 0.931 . S
C128 C127 1.291 . S
C128 C129 1.373 . S
C128 H141 0.929 . S
C129 C128 1.373 . S
C129 C130 1.396 1_556 S
C129 C136 1.403 1_556 S
C130 C120 1.476 . S
C130 N125 1.318 . S
C130 C129 1.396 1_554 S
H131 C126 0.929 . S
O132 Mn108 2.385 1_556 S
O132 C110 1.234 1_556 S
O133 Mn108 2.209 1_545 S
O133 Mn109 2.215 . S
O133 C110 1.283 1_545 S
O134 Mn108 2.094 1_546 S
O134 C112 1.240 . S
O135 Mn109 2.117 . S
O135 C112 1.264 1_554 S
C136 C129 1.403 1_554 S
C136 C137 1.399 . S
C136 H142 0.929 1_554 S
C137 C117 1.449 . S
C137 C136 1.399 . S
C137 H143 0.930 . S
H138 C118 0.931 . S
H139 C119 0.930 . S
H140 C127 0.931 . S
H141 C128 0.929 . S
H142 C136 0.929 1_556 S
H143 C137 0.930 . S
Mn144 O149 2.095 . S
Mn144 O159 2.162 . S
Mn144 O160 2.297 . S
Mn144 O168 2.385 . S
Mn144 O169 2.209 . S
Mn144 O170 2.094 . S
Mn145 O150 2.121 . S
Mn145 N152 2.257 . S
Mn145 N161 2.282 . S
Mn145 O169 2.215 . S
Mn145 O171 2.117 . S
C146 O168 1.234 . S
C146 O169 1.283 . S
C147 O159 1.281 . S
C147 O160 1.236 . S
C148 O170 1.240 . S
C148 O171 1.264 . S
O149 Mn144 2.095 . S
O149 C158 1.250 . S
O150 Mn145 2.121 . S
O150 C158 1.258 . S
C151 N152 1.326 . S
C151 C155 1.460 . S
C151 H157 0.929 . S
N152 Mn145 2.257 . S
N152 C151 1.326 . S
N152 C156 1.362 . S
C153 C154 1.258 . S
C153 C156 1.431 . S
C153 C173 1.449 . S
C154 C153 1.258 . S
C154 C155 1.477 . S
C154 H174 0.931 . S
C155 C151 1.460 . S
C155 C154 1.477 . S
C155 H175 0.930 . S
C156 N152 1.362 . S
C156 C153 1.431 . S
C156 C166 1.476 . S
H157 C151 0.929 . S
C158 O149 1.250 . S
C158 O150 1.258 . S
O159 Mn144 2.162 . S
O159 C147 1.281 . S
O160 Mn144 2.297 . S
O160 C147 1.236 . S
N161 Mn145 2.282 . S
N161 C162 1.328 . S
N161 C166 1.318 . S
C162 N161 1.328 . S
C162 C163 1.457 . S
C162 H167 0.929 . S
C163 C162 1.457 . S
C163 C164 1.291 . S
C163 H176 0.931 . S
C164 C163 1.291 . S
C164 C165 1.373 . S
C164 H177 0.929 . S
C165 C164 1.373 . S
C165 C166 1.396 . S
C165 C172 1.403 . S
C166 C156 1.476 . S
C166 N161 1.318 . S
C166 C165 1.396 . S
H167 C162 0.929 . S
O168 Mn144 2.385 . S
O168 C146 1.234 . S
O169 Mn144 2.209 . S
O169 Mn145 2.215 . S
O169 C146 1.283 . S
O170 Mn144 2.094 . S
O170 C148 1.240 . S
O171 Mn145 2.117 . S
O171 C148 1.264 . S
C172 C165 1.403 . S
C172 C173 1.399 . S
C172 H178 0.929 . S
C173 C153 1.449 . S
C173 C172 1.399 . S
C173 H179 0.930 . S
H174 C154 0.931 . S
H175 C155 0.930 . S
H176 C163 0.931 . S
H177 C164 0.929 . S
H178 C172 0.929 . S
H179 C173 0.930 . S
Mn180 O185 2.095 . S
Mn180 O195 2.162 . S
Mn180 O196 2.297 . S
Mn180 O204 2.385 . S
Mn180 O205 2.209 1_545 S
Mn180 O206 2.094 1_545 S
Mn181 O186 2.121 . S
Mn181 N188 2.257 . S
Mn181 N197 2.282 . S
Mn181 O205 2.215 . S
Mn181 O207 2.117 . S
C182 O204 1.234 . S
C182 O205 1.283 1_545 S
C183 O195 1.281 . S
C183 O196 1.236 . S
C184 O206 1.240 . S
C184 O207 1.264 . S
O185 Mn180 2.095 . S
O185 C194 1.250 1_545 S
O186 Mn181 2.121 . S
O186 C194 1.258 . S
C187 N188 1.326 . S
C187 C191 1.460 . S
C187 H193 0.929 . S
N188 Mn181 2.257 . S
N188 C187 1.326 . S
N188 C192 1.362 . S
C189 C190 1.258 . S
C189 C192 1.431 . S
C189 C209 1.449 . S
C190 C189 1.258 . S
C190 C191 1.477 . S
C190 H210 0.931 . S
C191 C187 1.460 . S
C191 C190 1.477 . S
C191 H211 0.930 . S
C192 N188 1.362 . S
C192 C189 1.431 . S
C192 C202 1.476 . S
H193 C187 0.929 . S
C194 O185 1.250 1_565 S
C194 O186 1.258 . S
O195 Mn180 2.162 . S
O195 C183 1.281 . S
O196 Mn180 2.297 . S
O196 C183 1.236 . S
N197 Mn181 2.282 . S
N197 C198 1.328 . S
N197 C202 1.318 . S
C198 N197 1.328 . S
C198 C199 1.457 . S
C198 H203 0.929 . S
C199 C198 1.457 . S
C199 C200 1.291 . S
C199 H212 0.931 . S
C200 C199 1.291 . S
C200 C201 1.373 . S
C200 H213 0.929 . S
C201 C200 1.373 . S
C201 C202 1.396 . S
C201 C208 1.403 . S
C202 C192 1.476 . S
C202 N197 1.318 . S
C202 C201 1.396 . S
H203 C198 0.929 . S
O204 Mn180 2.385 . S
O204 C182 1.234 . S
O205 Mn180 2.209 1_565 S
O205 Mn181 2.215 . S
O205 C182 1.283 1_565 S
O206 Mn180 2.094 1_565 S
O206 C184 1.240 . S
O207 Mn181 2.117 . S
O207 C184 1.264 . S
C208 C201 1.403 . S
C208 C209 1.399 . S
C208 H214 0.929 . S
C209 C189 1.449 . S
C209 C208 1.399 . S
C209 H215 0.930 . S
H210 C190 0.931 . S
H211 C191 0.930 . S
H212 C199 0.931 . S
H213 C200 0.929 . S
H214 C208 0.929 . S
H215 C209 0.930 . S
Mn216 O221 2.095 . S
Mn216 O231 2.162 . S
Mn216 O232 2.297 . S
Mn216 O240 2.385 . S
Mn216 O241 2.209 . S
Mn216 O242 2.094 . S
Mn217 O222 2.121 . S
Mn217 N224 2.257 . S
Mn217 N233 2.282 . S
Mn217 O241 2.215 . S
Mn217 O243 2.117 . S
C218 O240 1.234 . S
C218 O241 1.283 . S
C219 O231 1.281 . S
C219 O232 1.236 . S
C220 O242 1.240 . S
C220 O243 1.264 . S
O221 Mn216 2.095 . S
O221 C230 1.250 . S
O222 Mn217 2.121 . S
O222 C230 1.258 . S
C223 N224 1.326 . S
C223 C227 1.460 . S
C223 H229 0.929 . S
N224 Mn217 2.257 . S
N224 C223 1.326 . S
N224 C228 1.362 . S
C225 C226 1.258 . S
C225 C228 1.431 1_655 S
C225 C245 1.449 . S
C226 C225 1.258 . S
C226 C227 1.477 1_655 S
C226 H246 0.931 . S
C227 C223 1.460 . S
C227 C226 1.477 1_455 S
C227 H247 0.930 . S
C228 N224 1.362 . S
C228 C225 1.431 1_455 S
C228 C238 1.476 . S
H229 C223 0.929 . S
C230 O221 1.250 . S
C230 O222 1.258 . S
O231 Mn216 2.162 . S
O231 C219 1.281 . S
O232 Mn216 2.297 . S
O232 C219 1.236 . S
N233 Mn217 2.282 . S
N233 C234 1.328 . S
N233 C238 1.318 . S
C234 N233 1.328 . S
C234 C235 1.457 . S
C234 H239 0.929 . S
C235 C234 1.457 . S
C235 C236 1.291 . S
C235 H248 0.931 . S
C236 C235 1.291 . S
C236 C237 1.373 . S
C236 H249 0.929 1_455 S
C237 C236 1.373 . S
C237 C238 1.396 . S
C237 C244 1.403 1_455 S
C238 C228 1.476 . S
C238 N233 1.318 . S
C238 C237 1.396 . S
H239 C234 0.929 . S
O240 Mn216 2.385 . S
O240 C218 1.234 . S
O241 Mn216 2.209 . S
O241 Mn217 2.215 . S
O241 C218 1.283 . S
O242 Mn216 2.094 . S
O242 C220 1.240 . S
O243 Mn217 2.117 . S
O243 C220 1.264 . S
C244 C237 1.403 1_655 S
C244 C245 1.399 . S
C244 H250 0.929 . S
C245 C225 1.449 . S
C245 C244 1.399 . S
C245 H251 0.930 . S
H246 C226 0.931 . S
H247 C227 0.930 . S
H248 C235 0.931 . S
H249 C236 0.929 1_655 S
H250 C244 0.929 . S
H251 C245 0.930 . S
Mn252 O257 2.095 . S
Mn252 O267 2.162 . S
Mn252 O268 2.297 1_455 S
Mn252 O276 2.385 1_456 S
Mn252 O277 2.209 1_465 S
Mn252 O278 2.094 1_566 S
Mn253 O258 2.121 . S
Mn253 N260 2.257 . S
Mn253 N269 2.282 . S
Mn253 O277 2.215 . S
Mn253 O279 2.117 1_655 S
C254 O276 1.234 1_556 S
C254 O277 1.283 1_565 S
C255 O267 1.281 . S
C255 O268 1.236 1_455 S
C256 O278 1.240 . S
C256 O279 1.264 1_554 S
O257 Mn252 2.095 . S
O257 C266 1.250 1_565 S
O258 Mn253 2.121 . S
O258 C266 1.258 1_655 S
C259 N260 1.326 . S
C259 C263 1.460 . S
C259 H265 0.929 . S
N260 Mn253 2.257 . S
N260 C259 1.326 . S
N260 C264 1.362 . S
C261 C262 1.258 . S
C261 C264 1.431 . S
C261 C281 1.449 . S
C262 C261 1.258 . S
C262 C263 1.477 . S
C262 H282 0.931 . S
C263 C259 1.460 . S
C263 C262 1.477 . S
C263 H283 0.930 . S
C264 N260 1.362 . S
C264 C261 1.431 . S
C264 C274 1.476 . S
H265 C259 0.929 . S
C266 O257 1.250 1_545 S
C266 O258 1.258 1_455 S
O267 Mn252 2.162 . S
O267 C255 1.281 . S
O268 Mn252 2.297 1_655 S
O268 C255 1.236 1_655 S
N269 Mn253 2.282 . S
N269 C270 1.328 1_556 S
N269 C274 1.318 . S
C270 N269 1.328 1_554 S
C270 C271 1.457 . S
C270 H275 0.929 . S
C271 C270 1.457 . S
C271 C272 1.291 . S
C271 H284 0.931 . S
C272 C271 1.291 . S
C272 C273 1.373 . S
C272 H285 0.929 . S
C273 C272 1.373 . S
C273 C274 1.396 1_554 S
C273 C280 1.403 1_554 S
C274 C264 1.476 . S
C274 N269 1.318 . S
C274 C273 1.396 1_556 S
H275 C270 0.929 . S
O276 Mn252 2.385 1_654 S
O276 C254 1.234 1_554 S
O277 Mn252 2.209 1_645 S
O277 Mn253 2.215 . S
O277 C254 1.283 1_545 S
O278 Mn252 2.094 1_544 S
O278 C256 1.240 . S
O279 Mn253 2.117 1_455 S
O279 C256 1.264 1_556 S
C280 C273 1.403 1_556 S
C280 C281 1.399 . S
C280 H286 0.929 1_556 S
C281 C261 1.449 . S
C281 C280 1.399 . S
C281 H287 0.930 . S
H282 C262 0.931 . S
H283 C263 0.930 . S
H284 C271 0.931 . S
H285 C272 0.929 . S
H286 C280 0.929 1_554 S
H287 C281 0.930 . S
Mn288 O293 2.095 . S
Mn288 O303 2.162 . S
Mn288 O304 2.297 . S
Mn288 O312 2.385 . S
Mn288 O313 2.209 . S
Mn288 O314 2.094 . S
Mn289 O294 2.121 . S
Mn289 N296 2.257 . S
Mn289 N305 2.282 . S
Mn289 O313 2.215 . S
Mn289 O315 2.117 . S
C290 O312 1.234 . S
C290 O313 1.283 . S
C291 O303 1.281 . S
C291 O304 1.236 . S
C292 O314 1.240 . S
C292 O315 1.264 . S
O293 Mn288 2.095 . S
O293 C302 1.250 . S
O294 Mn289 2.121 . S
O294 C302 1.258 . S
C295 N296 1.326 . S
C295 C299 1.460 . S
C295 H301 0.929 . S
N296 Mn289 2.257 . S
N296 C295 1.326 . S
N296 C300 1.362 . S
C297 C298 1.258 . S
C297 C300 1.431 1_455 S
C297 C317 1.449 . S
C298 C297 1.258 . S
C298 C299 1.477 1_455 S
C298 H318 0.931 . S
C299 C295 1.460 . S
C299 C298 1.477 1_655 S
C299 H319 0.930 . S
C300 N296 1.362 . S
C300 C297 1.431 1_655 S
C300 C310 1.476 . S
H301 C295 0.929 . S
C302 O293 1.250 . S
C302 O294 1.258 . S
O303 Mn288 2.162 . S
O303 C291 1.281 . S
O304 Mn288 2.297 . S
O304 C291 1.236 . S
N305 Mn289 2.282 . S
N305 C306 1.328 . S
N305 C310 1.318 . S
C306 N305 1.328 . S
C306 C307 1.457 . S
C306 H311 0.929 . S
C307 C306 1.457 . S
C307 C308 1.291 . S
C307 H320 0.931 . S
C308 C307 1.291 . S
C308 C309 1.373 . S
C308 H321 0.929 1_655 S
C309 C308 1.373 . S
C309 C310 1.396 . S
C309 C316 1.403 1_655 S
C310 C300 1.476 . S
C310 N305 1.318 . S
C310 C309 1.396 . S
H311 C306 0.929 . S
O312 Mn288 2.385 . S
O312 C290 1.234 . S
O313 Mn288 2.209 . S
O313 Mn289 2.215 . S
O313 C290 1.283 . S
O314 Mn288 2.094 . S
O314 C292 1.240 . S
O315 Mn289 2.117 . S
O315 C292 1.264 . S
C316 C309 1.403 1_455 S
C316 C317 1.399 . S
C316 H322 0.929 . S
C317 C297 1.449 . S
C317 C316 1.399 . S
C317 H323 0.930 . S
H318 C298 0.931 . S
H319 C299 0.930 . S
H320 C307 0.931 . S
H321 C308 0.929 1_455 S
H322 C316 0.929 . S
H323 C317 0.930 . S
Mn324 O329 2.095 . S
Mn324 O339 2.162 . S
Mn324 O340 2.297 1_655 S
Mn324 O348 2.385 1_656 S
Mn324 O349 2.209 1_655 S
Mn324 O350 2.094 1_556 S
Mn325 O330 2.121 . S
Mn325 N332 2.257 . S
Mn325 N341 2.282 . S
Mn325 O349 2.215 . S
Mn325 O351 2.117 1_455 S
C326 O348 1.234 1_556 S
C326 O349 1.283 . S
C327 O339 1.281 . S
C327 O340 1.236 1_655 S
C328 O350 1.240 . S
C328 O351 1.264 1_554 S
O329 Mn324 2.095 . S
O329 C338 1.250 . S
O330 Mn325 2.121 . S
O330 C338 1.258 1_455 S
C331 N332 1.326 . S
C331 C335 1.460 . S
C331 H337 0.929 . S
N332 Mn325 2.257 . S
N332 C331 1.326 . S
N332 C336 1.362 . S
C333 C334 1.258 . S
C333 C336 1.431 . S
C333 C353 1.449 . S
C334 C333 1.258 . S
C334 C335 1.477 . S
C334 H354 0.931 . S
C335 C331 1.460 . S
C335 C334 1.477 . S
C335 H355 0.930 . S
C336 N332 1.362 . S
C336 C333 1.431 . S
C336 C346 1.476 . S
H337 C331 0.929 . S
C338 O329 1.250 . S
C338 O330 1.258 1_655 S
O339 Mn324 2.162 . S
O339 C327 1.281 . S
O340 Mn324 2.297 1_455 S
O340 C327 1.236 1_455 S
N341 Mn325 2.282 . S
N341 C342 1.328 1_556 S
N341 C346 1.318 . S
C342 N341 1.328 1_554 S
C342 C343 1.457 . S
C342 H347 0.929 . S
C343 C342 1.457 . S
C343 C344 1.291 . S
C343 H356 0.931 . S
C344 C343 1.291 . S
C344 C345 1.373 . S
C344 H357 0.929 . S
C345 C344 1.373 . S
C345 C346 1.396 1_554 S
C345 C352 1.403 1_554 S
C346 C336 1.476 . S
C346 N341 1.318 . S
C346 C345 1.396 1_556 S
H347 C342 0.929 . S
O348 Mn324 2.385 1_454 S
O348 C326 1.234 1_554 S
O349 Mn324 2.209 1_455 S
O349 Mn325 2.215 . S
O349 C326 1.283 . S
O350 Mn324 2.094 1_554 S
O350 C328 1.240 . S
O351 Mn325 2.117 1_655 S
O351 C328 1.264 1_556 S
C352 C345 1.403 1_556 S
C352 C353 1.399 . S
C352 H358 0.929 1_556 S
C353 C333 1.449 . S
C353 C352 1.399 . S
C353 H359 0.930 . S
H354 C334 0.931 . S
H355 C335 0.930 . S
H356 C343 0.931 . S
H357 C344 0.929 . S
H358 C352 0.929 1_554 S
H359 C353 0.930 . S
Mn360 O365 2.095 . S
Mn360 O375 2.162 . S
Mn360 O376 2.297 . S
Mn360 O384 2.385 . S
Mn360 O385 2.209 . S
Mn360 O386 2.094 . S
Mn361 O366 2.121 . S
Mn361 N368 2.257 . S
Mn361 N377 2.282 . S
Mn361 O385 2.215 . S
Mn361 O387 2.117 . S
C362 O384 1.234 . S
C362 O385 1.283 . S
C363 O375 1.281 . S
C363 O376 1.236 . S
C364 O386 1.240 . S
C364 O387 1.264 . S
O365 Mn360 2.095 . S
O365 C374 1.250 . S
O366 Mn361 2.121 . S
O366 C374 1.258 . S
C367 N368 1.326 . S
C367 C371 1.460 . S
C367 H373 0.929 . S
N368 Mn361 2.257 . S
N368 C367 1.326 . S
N368 C372 1.362 . S
C369 C370 1.258 . S
C369 C372 1.431 . S
C369 C389 1.449 . S
C370 C369 1.258 . S
C370 C371 1.477 . S
C370 H390 0.931 . S
C371 C367 1.460 . S
C371 C370 1.477 . S
C371 H391 0.930 . S
C372 N368 1.362 . S
C372 C369 1.431 . S
C372 C382 1.476 . S
H373 C367 0.929 . S
C374 O365 1.250 . S
C374 O366 1.258 . S
O375 Mn360 2.162 . S
O375 C363 1.281 . S
O376 Mn360 2.297 . S
O376 C363 1.236 . S
N377 Mn361 2.282 . S
N377 C378 1.328 . S
N377 C382 1.318 . S
C378 N377 1.328 . S
C378 C379 1.457 . S
C378 H383 0.929 . S
C379 C378 1.457 . S
C379 C380 1.291 . S
C379 H392 0.931 . S
C380 C379 1.291 . S
C380 C381 1.373 . S
C380 H393 0.929 . S
C381 C380 1.373 . S
C381 C382 1.396 . S
C381 C388 1.403 . S
C382 C372 1.476 . S
C382 N377 1.318 . S
C382 C381 1.396 . S
H383 C378 0.929 . S
O384 Mn360 2.385 . S
O384 C362 1.234 . S
O385 Mn360 2.209 . S
O385 Mn361 2.215 . S
O385 C362 1.283 . S
O386 Mn360 2.094 . S
O386 C364 1.240 . S
O387 Mn361 2.117 . S
O387 C364 1.264 . S
C388 C381 1.403 . S
C388 C389 1.399 . S
C388 H394 0.929 . S
C389 C369 1.449 . S
C389 C388 1.399 . S
C389 H395 0.930 . S
H390 C370 0.931 . S
H391 C371 0.930 . S
H392 C379 0.931 . S
H393 C380 0.929 . S
H394 C388 0.929 . S
H395 C389 0.930 . S
Mn396 O401 2.095 . S
Mn396 O411 2.162 . S
Mn396 O412 2.297 1_655 S
Mn396 O420 2.385 1_655 S
Mn396 O421 2.209 1_655 S
Mn396 O422 2.094 . S
Mn397 O402 2.121 . S
Mn397 N404 2.257 . S
Mn397 N413 2.282 . S
Mn397 O421 2.215 . S
Mn397 O423 2.117 1_455 S
C398 O420 1.234 . S
C398 O421 1.283 . S
C399 O411 1.281 . S
C399 O412 1.236 1_655 S
C400 O422 1.240 . S
C400 O423 1.264 . S
O401 Mn396 2.095 . S
O401 C410 1.250 . S
O402 Mn397 2.121 . S
O402 C410 1.258 1_455 S
C403 N404 1.326 . S
C403 C407 1.460 . S
C403 H409 0.929 . S
N404 Mn397 2.257 . S
N404 C403 1.326 . S
N404 C408 1.362 . S
C405 C406 1.258 . S
C405 C408 1.431 . S
C405 C425 1.449 . S
C406 C405 1.258 . S
C406 C407 1.477 . S
C406 H426 0.931 . S
C407 C403 1.460 . S
C407 C406 1.477 . S
C407 H427 0.930 . S
C408 N404 1.362 . S
C408 C405 1.431 . S
C408 C418 1.476 . S
H409 C403 0.929 . S
C410 O401 1.250 . S
C410 O402 1.258 1_655 S
O411 Mn396 2.162 . S
O411 C399 1.281 . S
O412 Mn396 2.297 1_455 S
O412 C399 1.236 1_455 S
N413 Mn397 2.282 . S
N413 C414 1.328 . S
N413 C418 1.318 . S
C414 N413 1.328 . S
C414 C415 1.457 . S
C414 H419 0.929 . S
C415 C414 1.457 . S
C415 C416 1.291 . S
C415 H428 0.931 . S
C416 C415 1.291 . S
C416 C417 1.373 . S
C416 H429 0.929 . S
C417 C416 1.373 . S
C417 C418 1.396 . S
C417 C424 1.403 . S
C418 C408 1.476 . S
C418 N413 1.318 . S
C418 C417 1.396 . S
H419 C414 0.929 . S
O420 Mn396 2.385 1_455 S
O420 C398 1.234 . S
O421 Mn396 2.209 1_455 S
O421 Mn397 2.215 . S
O421 C398 1.283 . S
O422 Mn396 2.094 . S
O422 C400 1.240 . S
O423 Mn397 2.117 1_655 S
O423 C400 1.264 . S
C424 C417 1.403 . S
C424 C425 1.399 . S
C424 H430 0.929 . S
C425 C405 1.449 . S
C425 C424 1.399 . S
C425 H431 0.930 . S
H426 C406 0.931 . S
H427 C407 0.930 . S
H428 C415 0.931 . S
H429 C416 0.929 . S
H430 C424 0.929 . S
H431 C425 0.930 . S
Mn432 O437 2.095 . S
Mn432 O447 2.162 . S
Mn432 O448 2.297 . S
Mn432 O456 2.385 1_554 S
Mn432 O457 2.209 . S
Mn432 O458 2.094 1_554 S
Mn433 O438 2.121 . S
Mn433 N440 2.257 . S
Mn433 N449 2.282 . S
Mn433 O457 2.215 . S
Mn433 O459 2.117 . S
C434 O456 1.234 1_554 S
C434 O457 1.283 . S
C435 O447 1.281 . S
C435 O448 1.236 . S
C436 O458 1.240 . S
C436 O459 1.264 1_556 S
O437 Mn432 2.095 . S
O437 C446 1.250 . S
O438 Mn433 2.121 . S
O438 C446 1.258 . S
C439 N440 1.326 . S
C439 C443 1.460 . S
C439 H445 0.929 . S
N440 Mn433 2.257 . S
N440 C439 1.326 . S
N440 C444 1.362 . S
C441 C442 1.258 . S
C441 C444 1.431 . S
C441 C461 1.449 . S
C442 C441 1.258 . S
C442 C443 1.477 . S
C442 H462 0.931 . S
C443 C439 1.460 . S
C443 C442 1.477 . S
C443 H463 0.930 . S
C444 N440 1.362 . S
C444 C441 1.431 . S
C444 C454 1.476 . S
H445 C439 0.929 . S
C446 O437 1.250 . S
C446 O438 1.258 . S
O447 Mn432 2.162 . S
O447 C435 1.281 . S
O448 Mn432 2.297 . S
O448 C435 1.236 . S
N449 Mn433 2.282 . S
N449 C450 1.328 1_554 S
N449 C454 1.318 . S
C450 N449 1.328 1_556 S
C450 C451 1.457 . S
C450 H455 0.929 . S
C451 C450 1.457 . S
C451 C452 1.291 . S
C451 H464 0.931 . S
C452 C451 1.291 . S
C452 C453 1.373 . S
C452 H465 0.929 . S
C453 C452 1.373 . S
C453 C454 1.396 1_556 S
C453 C460 1.403 1_556 S
C454 C444 1.476 . S
C454 N449 1.318 . S
C454 C453 1.396 1_554 S
H455 C450 0.929 . S
O456 Mn432 2.385 1_556 S
O456 C434 1.234 1_556 S
O457 Mn432 2.209 . S
O457 Mn433 2.215 . S
O457 C434 1.283 . S
O458 Mn432 2.094 1_556 S
O458 C436 1.240 . S
O459 Mn433 2.117 . S
O459 C436 1.264 1_554 S
C460 C453 1.403 1_554 S
C460 C461 1.399 . S
C460 H466 0.929 1_554 S
C461 C441 1.449 . S
C461 C460 1.399 . S
C461 H467 0.930 . S
H462 C442 0.931 . S
H463 C443 0.930 . S
H464 C451 0.931 . S
H465 C452 0.929 . S
H466 C460 0.929 1_556 S
H467 C461 0.930 . S
Mn468 O473 2.095 . S
Mn468 O483 2.162 . S
Mn468 O484 2.297 . S
Mn468 O492 2.385 . S
Mn468 O493 2.209 . S
Mn468 O494 2.094 . S
Mn469 O474 2.121 . S
Mn469 N476 2.257 . S
Mn469 N485 2.282 . S
Mn469 O493 2.215 . S
Mn469 O495 2.117 . S
C470 O492 1.234 . S
C470 O493 1.283 . S
C471 O483 1.281 . S
C471 O484 1.236 . S
C472 O494 1.240 . S
C472 O495 1.264 . S
O473 Mn468 2.095 . S
O473 C482 1.250 . S
O474 Mn469 2.121 . S
O474 C482 1.258 . S
C475 N476 1.326 . S
C475 C479 1.460 . S
C475 H481 0.929 . S
N476 Mn469 2.257 . S
N476 C475 1.326 . S
N476 C480 1.362 . S
C477 C478 1.258 . S
C477 C480 1.431 1_455 S
C477 C497 1.449 . S
C478 C477 1.258 . S
C478 C479 1.477 1_455 S
C478 H498 0.931 . S
C479 C475 1.460 . S
C479 C478 1.477 1_655 S
C479 H499 0.930 . S
C480 N476 1.362 . S
C480 C477 1.431 1_655 S
C480 C490 1.476 . S
H481 C475 0.929 . S
C482 O473 1.250 . S
C482 O474 1.258 . S
O483 Mn468 2.162 . S
O483 C471 1.281 . S
O484 Mn468 2.297 . S
O484 C471 1.236 . S
N485 Mn469 2.282 . S
N485 C486 1.328 . S
N485 C490 1.318 . S
C486 N485 1.328 . S
C486 C487 1.457 . S
C486 H491 0.929 . S
C487 C486 1.457 . S
C487 C488 1.291 . S
C487 H500 0.931 . S
C488 C487 1.291 . S
C488 C489 1.373 . S
C488 H501 0.929 1_655 S
C489 C488 1.373 . S
C489 C490 1.396 . S
C489 C496 1.403 1_655 S
C490 C480 1.476 . S
C490 N485 1.318 . S
C490 C489 1.396 . S
H491 C486 0.929 . S
O492 Mn468 2.385 . S
O492 C470 1.234 . S
O493 Mn468 2.209 . S
O493 Mn469 2.215 . S
O493 C470 1.283 . S
O494 Mn468 2.094 . S
O494 C472 1.240 . S
O495 Mn469 2.117 . S
O495 C472 1.264 . S
C496 C489 1.403 1_455 S
C496 C497 1.399 . S
C496 H502 0.929 . S
C497 C477 1.449 . S
C497 C496 1.399 . S
C497 H503 0.930 . S
H498 C478 0.931 . S
H499 C479 0.930 . S
H500 C487 0.931 . S
H501 C488 0.929 1_455 S
H502 C496 0.929 . S
H503 C497 0.930 . S
Mn504 O509 2.095 . S
Mn504 O519 2.162 . S
Mn504 O520 2.297 . S
Mn504 O528 2.385 . S
Mn504 O529 2.209 . S
Mn504 O530 2.094 . S
Mn505 O510 2.121 . S
Mn505 N512 2.257 . S
Mn505 N521 2.282 . S
Mn505 O529 2.215 . S
Mn505 O531 2.117 . S
C506 O528 1.234 . S
C506 O529 1.283 . S
C507 O519 1.281 . S
C507 O520 1.236 . S
C508 O530 1.240 . S
C508 O531 1.264 . S
O509 Mn504 2.095 . S
O509 C518 1.250 . S
O510 Mn505 2.121 . S
O510 C518 1.258 . S
C511 N512 1.326 . S
C511 C515 1.460 . S
C511 H517 0.929 . S
N512 Mn505 2.257 . S
N512 C511 1.326 . S
N512 C516 1.362 . S
C513 C514 1.258 . S
C513 C516 1.431 . S
C513 C533 1.449 . S
C514 C513 1.258 . S
C514 C515 1.477 . S
C514 H534 0.931 . S
C515 C511 1.460 . S
C515 C514 1.477 . S
C515 H535 0.930 . S
C516 N512 1.362 . S
C516 C513 1.431 . S
C516 C526 1.476 . S
H517 C511 0.929 . S
C518 O509 1.250 . S
C518 O510 1.258 . S
O519 Mn504 2.162 . S
O519 C507 1.281 . S
O520 Mn504 2.297 . S
O520 C507 1.236 . S
N521 Mn505 2.282 . S
N521 C522 1.328 . S
N521 C526 1.318 . S
C522 N521 1.328 . S
C522 C523 1.457 . S
C522 H527 0.929 . S
C523 C522 1.457 . S
C523 C524 1.291 . S
C523 H536 0.931 . S
C524 C523 1.291 . S
C524 C525 1.373 . S
C524 H537 0.929 . S
C525 C524 1.373 . S
C525 C526 1.396 . S
C525 C532 1.403 . S
C526 C516 1.476 . S
C526 N521 1.318 . S
C526 C525 1.396 . S
H527 C522 0.929 . S
O528 Mn504 2.385 . S
O528 C506 1.234 . S
O529 Mn504 2.209 . S
O529 Mn505 2.215 . S
O529 C506 1.283 . S
O530 Mn504 2.094 . S
O530 C508 1.240 . S
O531 Mn505 2.117 . S
O531 C508 1.264 . S
C532 C525 1.403 . S
C532 C533 1.399 . S
C532 H538 0.929 . S
C533 C513 1.449 . S
C533 C532 1.399 . S
C533 H539 0.930 . S
H534 C514 0.931 . S
H535 C515 0.930 . S
H536 C523 0.931 . S
H537 C524 0.929 . S
H538 C532 0.929 . S
H539 C533 0.930 . S
Mn540 O545 2.095 . S
Mn540 O555 2.162 . S
Mn540 O556 2.297 . S
Mn540 O564 2.385 . S
Mn540 O565 2.209 . S
Mn540 O566 2.094 . S
Mn541 O546 2.121 . S
Mn541 N548 2.257 . S
Mn541 N557 2.282 . S
Mn541 O565 2.215 . S
Mn541 O567 2.117 . S
C542 O564 1.234 . S
C542 O565 1.283 . S
C543 O555 1.281 . S
C543 O556 1.236 . S
C544 O566 1.240 . S
C544 O567 1.264 . S
O545 Mn540 2.095 . S
O545 C554 1.250 . S
O546 Mn541 2.121 . S
O546 C554 1.258 . S
C547 N548 1.326 . S
C547 C551 1.460 . S
C547 H553 0.929 . S
N548 Mn541 2.257 . S
N548 C547 1.326 . S
N548 C552 1.362 . S
C549 C550 1.258 . S
C549 C552 1.431 . S
C549 C569 1.449 . S
C550 C549 1.258 . S
C550 C551 1.477 . S
C550 H570 0.931 . S
C551 C547 1.460 . S
C551 C550 1.477 . S
C551 H571 0.930 . S
C552 N548 1.362 . S
C552 C549 1.431 . S
C552 C562 1.476 . S
H553 C547 0.929 . S
C554 O545 1.250 . S
C554 O546 1.258 . S
O555 Mn540 2.162 . S
O555 C543 1.281 . S
O556 Mn540 2.297 . S
O556 C543 1.236 . S
N557 Mn541 2.282 . S
N557 C558 1.328 . S
N557 C562 1.318 . S
C558 N557 1.328 . S
C558 C559 1.457 . S
C558 H563 0.929 . S
C559 C558 1.457 . S
C559 C560 1.291 . S
C559 H572 0.931 . S
C560 C559 1.291 . S
C560 C561 1.373 . S
C560 H573 0.929 . S
C561 C560 1.373 . S
C561 C562 1.396 . S
C561 C568 1.403 . S
C562 C552 1.476 . S
C562 N557 1.318 . S
C562 C561 1.396 . S
H563 C558 0.929 . S
O564 Mn540 2.385 . S
O564 C542 1.234 . S
O565 Mn540 2.209 . S
O565 Mn541 2.215 . S
O565 C542 1.283 . S
O566 Mn540 2.094 . S
O566 C544 1.240 . S
O567 Mn541 2.117 . S
O567 C544 1.264 . S
C568 C561 1.403 . S
C568 C569 1.399 . S
C568 H574 0.929 . S
C569 C549 1.449 . S
C569 C568 1.399 . S
C569 H575 0.930 . S
H570 C550 0.931 . S
H571 C551 0.930 . S
H572 C559 0.931 . S
H573 C560 0.929 . S
H574 C568 0.929 . S
H575 C569 0.930 . S
C576 C577 1.363 . S
C576 C582 1.379 . S
C576 N584 1.356 . S
C577 C576 1.363 . S
C577 C583 1.363 . S
C578 C579 1.363 . S
C578 C583 1.379 . S
C578 N585 1.365 . S
C579 C578 1.363 . S
C579 C582 1.363 . S
N580 C582 1.356 . S
N580 H592 0.984 . S
N580 H593 0.985 . S
N581 C583 1.356 . S
N581 H586 0.984 . S
N581 H587 0.985 . S
C582 C576 1.379 . S
C582 C579 1.363 . S
C582 N580 1.356 . S
C583 C577 1.363 . S
C583 C578 1.379 . S
C583 N581 1.356 . S
N584 C576 1.356 . S
N584 H590 0.984 . S
N584 H591 0.984 . S
N585 C578 1.365 . S
N585 H588 0.980 1_554 S
N585 H589 0.980 1_554 S
H586 N581 0.984 . S
H587 N581 0.985 . S
H588 N585 0.980 1_556 S
H589 N585 0.980 1_556 S
H590 N584 0.984 . S
H591 N584 0.984 . S
H592 N580 0.984 . S
H593 N580 0.985 . S
C594 C595 1.363 . S
C594 C600 1.379 . S
C594 N602 1.356 . S
C595 C594 1.363 . S
C595 C601 1.363 . S
C596 C597 1.363 . S
C596 C601 1.379 . S
C596 N603 1.356 . S
C597 C596 1.363 . S
C597 C600 1.363 . S
N598 C600 1.356 . S
N598 H610 0.984 . S
N598 H611 0.985 . S
N599 C601 1.356 . S
N599 H604 0.984 . S
N599 H605 0.985 . S
C600 C594 1.379 . S
C600 C597 1.363 . S
C600 N598 1.356 . S
C601 C595 1.363 . S
C601 C596 1.379 . S
C601 N599 1.356 . S
N602 C594 1.356 . S
N602 H608 0.984 . S
N602 H609 0.984 . S
N603 C596 1.356 . S
N603 H606 0.984 . S
N603 H607 0.985 . S
H604 N599 0.984 . S
H605 N599 0.985 . S
H606 N603 0.984 . S
H607 N603 0.985 . S
H608 N602 0.984 . S
H609 N602 0.984 . S
H610 N598 0.984 . S
H611 N598 0.985 . S
C612 C613 1.363 . S
C612 C618 1.379 . S
C612 N620 1.356 . S
C613 C612 1.363 . S
C613 C619 1.363 . S
C614 C615 1.363 . S
C614 C619 1.379 . S
C614 N621 1.356 . S
C615 C614 1.363 . S
C615 C618 1.363 . S
N616 C618 1.356 . S
N616 H628 0.984 . S
N616 H629 0.985 . S
N617 C619 1.356 . S
N617 H622 0.984 . S
N617 H623 0.985 . S
C618 C612 1.379 . S
C618 C615 1.363 . S
C618 N616 1.356 . S
C619 C613 1.363 . S
C619 C614 1.379 . S
C619 N617 1.356 . S
N620 C612 1.356 . S
N620 H626 0.984 . S
N620 H627 0.984 . S
N621 C614 1.356 . S
N621 H624 0.984 . S
N621 H625 0.985 . S
H622 N617 0.984 . S
H623 N617 0.985 . S
H624 N621 0.984 . S
H625 N621 0.985 . S
H626 N620 0.984 . S
H627 N620 0.984 . S
H628 N616 0.984 . S
H629 N616 0.985 . S
C630 C631 1.363 . S
C630 C636 1.379 . S
C630 N638 1.356 . S
C631 C630 1.363 . S
C631 C637 1.363 . S
C632 C633 1.363 . S
C632 C637 1.379 . S
C632 N639 1.356 . S
C633 C632 1.363 . S
C633 C636 1.363 . S
N634 C636 1.356 . S
N634 H646 0.984 . S
N634 H647 0.985 . S
N635 C637 1.356 1_554 S
N635 H640 0.984 . S
N635 H641 0.985 . S
C636 C630 1.379 . S
C636 C633 1.363 . S
C636 N634 1.356 . S
C637 C631 1.363 . S
C637 C632 1.379 . S
C637 N635 1.356 1_556 S
N638 C630 1.356 . S
N638 H644 0.984 . S
N638 H645 0.984 . S
N639 C632 1.356 . S
N639 H642 0.984 . S
N639 H643 0.985 . S
H640 N635 0.984 . S
H641 N635 0.985 . S
H642 N639 0.984 . S
H643 N639 0.985 . S
H644 N638 0.984 . S
H645 N638 0.984 . S
H646 N634 0.984 . S
H647 N634 0.985 . S
C648 C649 1.363 . S
C648 C654 1.379 . S
C648 N656 1.356 . S
C649 C648 1.363 . S
C649 C655 1.363 . S
C650 C651 1.363 . S
C650 C655 1.379 . S
C650 N657 1.356 . S
C651 C650 1.363 . S
C651 C654 1.363 . S
N652 C654 1.339 1_554 S
N652 H664 0.993 . S
N652 H665 0.993 . S
N653 C655 1.356 . S
N653 H658 0.984 . S
N653 H659 0.985 . S
C654 C648 1.379 . S
C654 C651 1.363 . S
C654 N652 1.339 1_556 S
C655 C649 1.363 . S
C655 C650 1.379 . S
C655 N653 1.356 . S
N656 C648 1.356 . S
N656 H662 0.984 . S
N656 H663 0.984 . S
N657 C650 1.356 . S
N657 H660 0.984 . S
N657 H661 0.985 . S
H658 N653 0.984 . S
H659 N653 0.985 . S
H660 N657 0.984 . S
H661 N657 0.985 . S
H662 N656 0.984 . S
H663 N656 0.984 . S
H664 N652 0.993 . S
H665 N652 0.993 . S
C666 C667 1.363 . S
C666 C672 1.379 . S
C666 N674 1.356 . S
C667 C666 1.363 . S
C667 C673 1.363 . S
C668 C669 1.363 . S
C668 C673 1.379 . S
C668 N675 1.356 . S
C669 C668 1.363 . S
C669 C672 1.363 . S
N670 C672 1.356 . S
N670 H682 0.984 . S
N670 H683 0.985 . S
N671 C673 1.356 1_556 S
N671 H676 0.984 . S
N671 H677 0.985 . S
C672 C666 1.379 . S
C672 C669 1.363 . S
C672 N670 1.356 . S
C673 C667 1.363 . S
C673 C668 1.379 . S
C673 N671 1.356 1_554 S
N674 C666 1.356 . S
N674 H680 0.984 . S
N674 H681 0.984 . S
N675 C668 1.356 . S
N675 H678 0.984 . S
N675 H679 0.985 . S
H676 N671 0.984 . S
H677 N671 0.985 . S
H678 N675 0.984 . S
H679 N675 0.985 . S
H680 N674 0.984 . S
H681 N674 0.984 . S
H682 N670 0.984 . S
H683 N670 0.985 . S
C684 C685 1.363 . S
C684 C690 1.379 . S
C684 N692 1.356 . S
C685 C684 1.363 . S
C685 C691 1.363 . S
C686 C687 1.363 . S
C686 C691 1.379 . S
C686 N693 1.356 . S
C687 C686 1.363 . S
C687 C690 1.363 . S
N688 C690 1.356 . S
N688 H700 0.984 . S
N688 H701 0.985 . S
N689 C691 1.356 . S
N689 H694 0.984 . S
N689 H695 0.985 . S
C690 C684 1.379 . S
C690 C687 1.363 . S
C690 N688 1.356 . S
C691 C685 1.363 . S
C691 C686 1.379 . S
C691 N689 1.356 . S
N692 C684 1.356 . S
N692 H698 0.984 . S
N692 H699 0.984 . S
N693 C686 1.356 . S
N693 H696 0.984 . S
N693 H697 0.985 . S
H694 N689 0.984 . S
H695 N689 0.985 . S
H696 N693 0.984 . S
H697 N693 0.985 . S
H698 N692 0.984 . S
H699 N692 0.984 . S
H700 N688 0.984 . S
H701 N688 0.985 . S
C702 C703 1.363 . S
C702 C708 1.379 . S
C702 N710 1.356 . S
C703 C702 1.363 . S
C703 C709 1.363 . S
C704 C705 1.363 . S
C704 C709 1.379 . S
C704 N711 1.356 . S
C705 C704 1.363 . S
C705 C708 1.363 . S
N706 C708 1.356 . S
N706 H718 0.984 . S
N706 H719 0.985 . S
N707 C709 1.356 . S
N707 H712 0.984 . S
N707 H713 0.985 . S
C708 C702 1.379 . S
C708 C705 1.363 . S
C708 N706 1.356 . S
C709 C703 1.363 . S
C709 C704 1.379 . S
C709 N707 1.356 . S
N710 C702 1.356 . S
N710 H716 0.984 . S
N710 H717 0.984 . S
N711 C704 1.356 . S
N711 H714 0.984 . S
N711 H715 0.985 . S
H712 N707 0.984 . S
H713 N707 0.985 . S
H714 N711 0.984 . S
H715 N711 0.985 . S
H716 N710 0.984 . S
H717 N710 0.984 . S
H718 N706 0.984 . S
H719 N706 0.985 . S
C720 C721 1.363 . S
C720 C726 1.379 . S
C720 N728 1.356 . S
C721 C720 1.363 . S
C721 C727 1.363 . S
C722 C723 1.363 . S
C722 C727 1.379 . S
C722 N729 1.356 . S
C723 C722 1.363 . S
C723 C726 1.363 . S
N724 C726 1.356 . S
N724 H736 0.984 . S
N724 H737 0.985 . S
N725 C727 1.356 . S
N725 H730 0.984 . S
N725 H731 0.985 . S
C726 C720 1.379 . S
C726 C723 1.363 . S
C726 N724 1.356 . S
C727 C721 1.363 . S
C727 C722 1.379 . S
C727 N725 1.356 . S
N728 C720 1.356 . S
N728 H734 0.984 . S
N728 H735 0.984 . S
N729 C722 1.356 . S
N729 H732 0.984 . S
N729 H733 0.985 . S
H730 N725 0.984 . S
H731 N725 0.985 . S
H732 N729 0.984 . S
H733 N729 0.985 . S
H734 N728 0.984 . S
H735 N728 0.984 . S
H736 N724 0.984 . S
H737 N724 0.985 . S
C738 C739 1.363 . S
C738 C744 1.379 . S
C738 N746 1.356 1_455 S
C739 C738 1.363 . S
C739 C745 1.363 1_545 S
C740 C741 1.363 . S
C740 C745 1.379 . S
C740 N747 1.356 . S
C741 C740 1.363 . S
C741 C744 1.363 1_565 S
N742 C744 1.356 1_655 S
N742 H754 0.984 . S
N742 H755 0.985 . S
N743 C745 1.356 . S
N743 H748 0.984 . S
N743 H749 0.985 . S
C744 C738 1.379 . S
C744 C741 1.363 1_545 S
C744 N742 1.356 1_455 S
C745 C739 1.363 1_565 S
C745 C740 1.379 . S
C745 N743 1.356 . S
N746 C738 1.356 1_655 S
N746 H752 0.984 . S
N746 H753 0.984 . S
N747 C740 1.356 . S
N747 H750 0.984 . S
N747 H751 0.985 . S
H748 N743 0.984 . S
H749 N743 0.985 . S
H750 N747 0.984 . S
H751 N747 0.985 . S
H752 N746 0.984 . S
H753 N746 0.984 . S
H754 N742 0.984 . S
H755 N742 0.985 . S
C756 C757 1.363 . S
C756 C762 1.379 1_556 S
C756 N764 1.356 . S
C757 C756 1.363 . S
C757 C763 1.363 . S
C758 C759 1.363 . S
C758 C763 1.379 1_554 S
C758 N765 1.356 . S
C759 C758 1.363 . S
C759 C762 1.363 . S
N760 C762 1.356 . S
N760 H772 0.984 . S
N760 H773 0.985 . S
N761 C763 1.356 . S
N761 H766 0.984 . S
N761 H767 0.985 . S
C762 C756 1.379 1_554 S
C762 C759 1.363 . S
C762 N760 1.356 . S
C763 C757 1.363 . S
C763 C758 1.379 1_556 S
C763 N761 1.356 . S
N764 C756 1.356 . S
N764 H770 0.984 . S
N764 H771 0.984 . S
N765 C758 1.356 . S
N765 H768 0.984 . S
N765 H769 0.985 . S
H766 N761 0.984 . S
H767 N761 0.985 . S
H768 N765 0.984 . S
H769 N765 0.985 . S
H770 N764 0.984 . S
H771 N764 0.984 . S
H772 N760 0.984 . S
H773 N760 0.985 . S
C774 C775 1.363 1_545 S
C774 C780 1.379 . S
C774 N782 1.356 . S
C775 C774 1.363 1_565 S
C775 C781 1.363 . S
C776 C777 1.363 1_565 S
C776 C781 1.379 . S
C776 N783 1.356 . S
C777 C776 1.363 1_545 S
C777 C780 1.363 . S
N778 C780 1.356 . S
N778 H790 0.984 . S
N778 H791 0.985 . S
N779 C781 1.356 . S
N779 H784 0.984 . S
N779 H785 0.985 . S
C780 C774 1.379 . S
C780 C777 1.363 . S
C780 N778 1.356 . S
C781 C775 1.363 . S
C781 C776 1.379 . S
C781 N779 1.356 . S
N782 C774 1.356 . S
N782 H788 0.984 . S
N782 H789 0.984 . S
N783 C776 1.356 . S
N783 H786 0.984 . S
N783 H787 0.985 . S
H784 N779 0.984 . S
H785 N779 0.985 . S
H786 N783 0.984 . S
H787 N783 0.985 . S
H788 N782 0.984 . S
H789 N782 0.984 . S
H790 N778 0.984 . S
H791 N778 0.985 . S
C792 C793 1.363 . S
C792 C798 1.379 . S
C792 N800 1.356 . S
C793 C792 1.363 . S
C793 C799 1.363 . S
C794 C795 1.363 . S
C794 C799 1.379 . S
C794 N801 1.356 . S
C795 C794 1.363 . S
C795 C798 1.363 . S
N796 C798 1.356 . S
N796 H808 0.984 . S
N796 H809 0.985 . S
N797 C799 1.356 . S
N797 H802 0.984 . S
N797 H803 0.985 . S
C798 C792 1.379 . S
C798 C795 1.363 . S
C798 N796 1.356 . S
C799 C793 1.363 . S
C799 C794 1.379 . S
C799 N797 1.356 . S
N800 C792 1.356 . S
N800 H806 0.984 . S
N800 H807 0.984 . S
N801 C794 1.356 . S
N801 H804 0.984 . S
N801 H805 0.985 . S
H802 N797 0.984 . S
H803 N797 0.985 . S
H804 N801 0.984 . S
H805 N801 0.985 . S
H806 N800 0.984 . S
H807 N800 0.984 . S
H808 N796 0.984 . S
H809 N796 0.985 . S
C810 C811 1.363 . S
C810 C816 1.379 . S
C810 N818 1.356 . S
C811 C810 1.363 . S
C811 C817 1.363 1_655 S
C812 C813 1.363 . S
C812 C817 1.379 . S
C812 N819 1.356 . S
C813 C812 1.363 . S
C813 C816 1.363 1_455 S
N814 C816 1.356 . S
N814 H826 0.984 . S
N814 H827 0.985 . S
N815 C817 1.356 . S
N815 H820 0.984 . S
N815 H821 0.985 . S
C816 C810 1.379 . S
C816 C813 1.363 1_655 S
C816 N814 1.356 . S
C817 C811 1.363 1_455 S
C817 C812 1.379 . S
C817 N815 1.356 . S
N818 C810 1.356 . S
N818 H824 0.984 . S
N818 H825 0.984 . S
N819 C812 1.356 . S
N819 H822 0.984 . S
N819 H823 0.985 . S
H820 N815 0.984 . S
H821 N815 0.985 . S
H822 N819 0.984 . S
H823 N819 0.985 . S
H824 N818 0.984 . S
H825 N818 0.984 . S
H826 N814 0.984 . S
H827 N814 0.985 . S
C828 C829 1.363 . S
C828 C834 1.379 1_655 S
C828 N836 1.356 . S
C829 C828 1.363 . S
C829 C835 1.363 . S
C830 C831 1.363 . S
C830 C835 1.379 1_455 S
C830 N837 1.356 . S
C831 C830 1.363 . S
C831 C834 1.363 . S
N832 C834 1.356 . S
N832 H844 0.984 . S
N832 H845 0.985 . S
N833 C835 1.356 . S
N833 H838 0.984 . S
N833 H839 0.985 . S
C834 C828 1.379 1_455 S
C834 C831 1.363 . S
C834 N832 1.356 . S
C835 C829 1.363 . S
C835 C830 1.379 1_655 S
C835 N833 1.356 . S
N836 C828 1.356 . S
N836 H842 0.984 . S
N836 H843 0.984 . S
N837 C830 1.356 . S
N837 H840 0.984 . S
N837 H841 0.985 . S
H838 N833 0.984 . S
H839 N833 0.985 . S
H840 N837 0.984 . S
H841 N837 0.985 . S
H842 N836 0.984 . S
H843 N836 0.984 . S
H844 N832 0.984 . S
H845 N832 0.985 . S
C846 C847 1.363 . S
C846 C852 1.379 . S
C846 N854 1.356 . S
C847 C846 1.363 . S
C847 C853 1.363 . S
C848 C849 1.363 . S
C848 C853 1.379 . S
C848 N855 1.356 1_554 S
C849 C848 1.363 . S
C849 C852 1.363 . S
N850 C852 1.356 . S
N850 H862 0.984 . S
N850 H863 0.985 . S
N851 C853 1.356 1_556 S
N851 H856 0.984 . S
N851 H857 0.985 . S
C852 C846 1.379 . S
C852 C849 1.363 . S
C852 N850 1.356 . S
C853 C847 1.363 . S
C853 C848 1.379 . S
C853 N851 1.356 1_554 S
N854 C846 1.356 . S
N854 H860 0.984 . S
N854 H861 0.984 . S
N855 C848 1.356 1_556 S
N855 H858 0.984 . S
N855 H859 0.985 . S
H856 N851 0.984 . S
H857 N851 0.985 . S
H858 N855 0.984 . S
H859 N855 0.985 . S
H860 N854 0.984 . S
H861 N854 0.984 . S
H862 N850 0.984 . S
H863 N850 0.985 . S
C864 C865 1.363 . S
C864 C870 1.379 . S
C864 N872 1.356 . S
C865 C864 1.363 . S
C865 C871 1.363 . S
C866 C867 1.363 . S
C866 C871 1.379 . S
C866 N873 1.356 . S
C867 C866 1.363 . S
C867 C870 1.363 . S
N868 C870 1.356 . S
N868 H880 0.984 . S
N868 H881 0.985 . S
N869 C871 1.356 . S
N869 H874 0.984 . S
N869 H875 0.985 . S
C870 C864 1.379 . S
C870 C867 1.363 . S
C870 N868 1.356 . S
C871 C865 1.363 . S
C871 C866 1.379 . S
C871 N869 1.356 . S
N872 C864 1.356 . S
N872 H878 0.984 . S
N872 H879 0.984 . S
N873 C866 1.356 . S
N873 H876 0.984 . S
N873 H877 0.985 . S
H874 N869 0.984 . S
H875 N869 0.985 . S
H876 N873 0.984 . S
H877 N873 0.985 . S
H878 N872 0.984 . S
H879 N872 0.984 . S
H880 N868 0.984 . S
H881 N868 0.985 . S
C882 C883 1.363 . S
C882 C888 1.379 . S
C882 N890 1.356 . S
C883 C882 1.363 . S
C883 C889 1.363 . S
C884 C885 1.363 . S
C884 C889 1.379 . S
C884 N891 1.356 . S
C885 C884 1.363 . S
C885 C888 1.363 . S
N886 C888 1.356 . S
N886 H898 0.984 . S
N886 H899 0.985 . S
N887 C889 1.356 . S
N887 H892 0.984 . S
N887 H893 0.985 . S
C888 C882 1.379 . S
C888 C885 1.363 . S
C888 N886 1.356 . S
C889 C883 1.363 . S
C889 C884 1.379 . S
C889 N887 1.356 . S
N890 C882 1.356 . S
N890 H896 0.984 . S
N890 H897 0.984 . S
N891 C884 1.356 . S
N891 H894 0.984 . S
N891 H895 0.985 . S
H892 N887 0.984 . S
H893 N887 0.985 . S
H894 N891 0.984 . S
H895 N891 0.985 . S
H896 N890 0.984 . S
H897 N890 0.984 . S
H898 N886 0.984 . S
H899 N886 0.985 . S
C900 C901 1.363 . S
C900 C906 1.379 1_455 S
C900 N908 1.356 . S
C901 C900 1.363 . S
C901 C907 1.363 . S
C902 C903 1.363 . S
C902 C907 1.379 1_655 S
C902 N909 1.356 . S
C903 C902 1.363 . S
C903 C906 1.363 . S
N904 C906 1.356 . S
N904 H916 0.984 . S
N904 H917 0.985 . S
N905 C907 1.356 . S
N905 H910 0.984 . S
N905 H911 0.985 . S
C906 C900 1.379 1_655 S
C906 C903 1.363 . S
C906 N904 1.356 . S
C907 C901 1.363 . S
C907 C902 1.379 1_455 S
C907 N905 1.356 . S
N908 C900 1.356 . S
N908 H914 0.984 . S
N908 H915 0.984 . S
N909 C902 1.356 . S
N909 H912 0.984 . S
N909 H913 0.985 . S
H910 N905 0.984 . S
H911 N905 0.985 . S
H912 N909 0.984 . S
H913 N909 0.985 . S
H914 N908 0.984 . S
H915 N908 0.984 . S
H916 N904 0.984 . S
H917 N904 0.985 . S
C918 C919 1.363 1_655 S
C918 C924 1.379 . S
C918 N926 1.356 . S
C919 C918 1.363 1_455 S
C919 C925 1.363 . S
C920 C921 1.363 1_455 S
C920 C925 1.379 . S
C920 N927 1.356 1_556 S
C921 C920 1.363 1_655 S
C921 C924 1.363 . S
N922 C924 1.356 . S
N922 H934 0.984 . S
N922 H935 0.985 . S
N923 C925 1.356 1_554 S
N923 H928 0.984 . S
N923 H929 0.985 . S
C924 C918 1.379 . S
C924 C921 1.363 . S
C924 N922 1.356 . S
C925 C919 1.363 . S
C925 C920 1.379 . S
C925 N923 1.356 1_556 S
N926 C918 1.356 . S
N926 H932 0.984 . S
N926 H933 0.984 . S
N927 C920 1.356 1_554 S
N927 H930 0.984 . S
N927 H931 0.985 . S
H928 N923 0.984 . S
H929 N923 0.985 . S
H930 N927 0.984 . S
H931 N927 0.985 . S
H932 N926 0.984 . S
H933 N926 0.984 . S
H934 N922 0.984 . S
H935 N922 0.985 . S
C936 C937 1.363 . S
C936 C942 1.379 . S
C936 N944 1.356 . S
C937 C936 1.363 . S
C937 C943 1.363 . S
C938 C939 1.363 . S
C938 C943 1.379 . S
C938 N945 1.356 . S
C939 C938 1.363 . S
C939 C942 1.363 . S
N940 C942 1.356 . S
N940 H952 0.984 . S
N940 H953 0.985 . S
N941 C943 1.356 . S
N941 H946 0.984 . S
N941 H947 0.985 . S
C942 C936 1.379 . S
C942 C939 1.363 . S
C942 N940 1.356 . S
C943 C937 1.363 . S
C943 C938 1.379 . S
C943 N941 1.356 . S
N944 C936 1.356 . S
N944 H950 0.984 . S
N944 H951 0.984 . S
N945 C938 1.356 . S
N945 H948 0.984 . S
N945 H949 0.985 . S
H946 N941 0.984 . S
H947 N941 0.985 . S
H948 N945 0.984 . S
H949 N945 0.985 . S
H950 N944 0.984 . S
H951 N944 0.984 . S
H952 N940 0.984 . S
H953 N940 0.985 . S
C954 C955 1.363 . S
C954 C960 1.379 1_545 S
C954 N962 1.356 . S
C955 C954 1.363 . S
C955 C961 1.363 . S
C956 C957 1.363 . S
C956 C961 1.379 1_565 S
C956 N963 1.356 . S
C957 C956 1.363 . S
C957 C960 1.363 . S
N958 C960 1.356 . S
N958 H970 0.984 . S
N958 H971 0.985 . S
N959 C961 1.356 . S
N959 H964 0.984 . S
N959 H965 0.985 . S
C960 C954 1.379 1_565 S
C960 C957 1.363 . S
C960 N958 1.356 . S
C961 C955 1.363 . S
C961 C956 1.379 1_545 S
C961 N959 1.356 . S
N962 C954 1.356 . S
N962 H968 0.984 . S
N962 H969 0.984 . S
N963 C956 1.356 . S
N963 H966 0.984 . S
N963 H967 0.985 . S
H964 N959 0.984 . S
H965 N959 0.985 . S
H966 N963 0.984 . S
H967 N963 0.985 . S
H968 N962 0.984 . S
H969 N962 0.984 . S
H970 N958 0.984 . S
H971 N958 0.985 . S
C972 C973 1.363 1_556 S
C972 C978 1.379 . S
C972 N980 1.356 . S
C973 C972 1.363 1_554 S
C973 C979 1.363 . S
C974 C975 1.360 1_554 S
C974 C979 1.379 . S
C974 N981 1.356 . S
C975 C974 1.360 1_556 S
C975 C978 1.366 . S
N976 C978 1.356 . S
N976 H988 0.984 . S
N976 H989 0.985 . S
N977 C979 1.356 . S
N977 H982 0.984 . S
N977 H983 0.985 . S
C978 C972 1.379 . S
C978 C975 1.366 . S
C978 N976 1.356 . S
C979 C973 1.363 . S
C979 C974 1.379 . S
C979 N977 1.356 . S
N980 C972 1.356 . S
N980 H986 0.984 . S
N980 H987 0.984 . S
N981 C974 1.356 . S
N981 H984 0.984 . S
N981 H985 0.985 . S
H982 N977 0.984 . S
H983 N977 0.985 . S
H984 N981 0.984 . S
H985 N981 0.985 . S
H986 N980 0.984 . S
H987 N980 0.984 . S
H988 N976 0.984 . S
H989 N976 0.985 . S
C990 C991 1.363 . S
C990 C996 1.379 1_545 S
C990 N998 1.356 . S
C991 C990 1.363 . S
C991 C997 1.363 . S
C992 C993 1.363 . S
C992 C997 1.379 1_565 S
C992 N999 1.356 . S
C993 C992 1.363 . S
C993 C996 1.363 . S
N994 C996 1.356 . S
N994 H1006 0.984 . S
N994 H1007 0.985 . S
N995 C997 1.356 . S
N995 H1000 0.984 . S
N995 H1001 0.985 . S
C996 C990 1.379 1_565 S
C996 C993 1.363 . S
C996 N994 1.356 . S
C997 C991 1.363 . S
C997 C992 1.379 1_545 S
C997 N995 1.356 . S
N998 C990 1.356 . S
N998 H1004 0.984 . S
N998 H1005 0.984 . S
N999 C992 1.356 . S
N999 H1002 0.984 . S
N999 H1003 0.985 . S
H1000 N995 0.984 . S
H1001 N995 0.985 . S
H1002 N999 0.984 . S
H1003 N999 0.985 . S
H1004 N998 0.984 . S
H1005 N998 0.984 . S
H1006 N994 0.984 . S
H1007 N994 0.985 . S
C1008 C1009 1.361 1_544 S
C1008 C1014 1.379 . S
C1008 N1016 1.356 . S
C1009 C1008 1.361 1_566 S
C1009 C1015 1.365 . S
C1010 C1011 1.363 1_556 S
C1010 C1015 1.379 . S
C1010 N1017 1.356 . S
C1011 C1010 1.363 1_554 S
C1011 C1014 1.363 1_565 S
N1012 C1014 1.356 . S
N1012 H1024 0.984 . S
N1012 H1025 0.985 . S
N1013 C1015 1.356 . S
N1013 H1018 0.984 . S
N1013 H1019 0.985 . S
C1014 C1008 1.379 . S
C1014 C1011 1.363 1_545 S
C1014 N1012 1.356 . S
C1015 C1009 1.365 . S
C1015 C1010 1.379 . S
C1015 N1013 1.356 . S
N1016 C1008 1.356 . S
N1016 H1022 0.984 . S
N1016 H1023 0.984 . S
N1017 C1010 1.356 . S
N1017 H1020 0.984 . S
N1017 H1021 0.985 . S
H1018 N1013 0.984 . S
H1019 N1013 0.985 . S
H1020 N1017 0.984 . S
H1021 N1017 0.985 . S
H1022 N1016 0.984 . S
H1023 N1016 0.984 . S
H1024 N1012 0.984 . S
H1025 N1012 0.985 . S
C1026 C1027 1.363 . S
C1026 C1032 1.379 . S
C1026 N1034 1.356 . S
C1027 C1026 1.363 . S
C1027 C1033 1.363 . S
C1028 C1029 1.363 . S
C1028 C1033 1.379 . S
C1028 N1035 1.356 . S
C1029 C1028 1.363 . S
C1029 C1032 1.363 . S
N1030 C1032 1.356 . S
N1030 H1042 0.984 . S
N1030 H1043 0.985 . S
N1031 C1033 1.356 . S
N1031 H1036 0.984 . S
N1031 H1037 0.985 . S
C1032 C1026 1.379 . S
C1032 C1029 1.363 . S
C1032 N1030 1.356 . S
C1033 C1027 1.363 . S
C1033 C1028 1.379 . S
C1033 N1031 1.356 . S
N1034 C1026 1.356 . S
N1034 H1040 0.984 . S
N1034 H1041 0.984 . S
N1035 C1028 1.356 . S
N1035 H1038 0.984 . S
N1035 H1039 0.985 . S
H1036 N1031 0.984 . S
H1037 N1031 0.985 . S
H1038 N1035 0.984 . S
H1039 N1035 0.985 . S
H1040 N1034 0.984 . S
H1041 N1034 0.984 . S
H1042 N1030 0.984 . S
H1043 N1030 0.985 . S
C1044 C1045 1.363 . S
C1044 C1050 1.379 . S
C1044 N1052 1.356 . S
C1045 C1044 1.363 . S
C1045 C1051 1.363 . S
C1046 C1047 1.363 . S
C1046 C1051 1.379 . S
C1046 N1053 1.356 . S
C1047 C1046 1.363 . S
C1047 C1050 1.363 . S
N1048 C1050 1.356 . S
N1048 H1060 0.984 . S
N1048 H1061 0.985 . S
N1049 C1051 1.356 . S
N1049 H1054 0.984 . S
N1049 H1055 0.985 . S
C1050 C1044 1.379 . S
C1050 C1047 1.363 . S
C1050 N1048 1.356 . S
C1051 C1045 1.363 . S
C1051 C1046 1.379 . S
C1051 N1049 1.356 . S
N1052 C1044 1.356 . S
N1052 H1058 0.984 . S
N1052 H1059 0.984 . S
N1053 C1046 1.356 . S
N1053 H1056 0.984 . S
N1053 H1057 0.985 . S
H1054 N1049 0.984 . S
H1055 N1049 0.985 . S
H1056 N1053 0.984 . S
H1057 N1053 0.985 . S
H1058 N1052 0.984 . S
H1059 N1052 0.984 . S
H1060 N1048 0.984 . S
H1061 N1048 0.985 . S
C1062 C1063 1.363 . S
C1062 C1068 1.379 1_556 S
C1062 N1070 1.356 . S
C1063 C1062 1.363 . S
C1063 C1069 1.363 . S
C1064 C1065 1.363 . S
C1064 C1069 1.379 1_554 S
C1064 N1071 1.356 . S
C1065 C1064 1.363 . S
C1065 C1068 1.363 . S
N1066 C1068 1.356 . S
N1066 H1078 0.984 . S
N1066 H1079 0.985 . S
N1067 C1069 1.356 . S
N1067 H1072 0.984 . S
N1067 H1073 0.985 . S
C1068 C1062 1.379 1_554 S
C1068 C1065 1.363 . S
C1068 N1066 1.356 . S
C1069 C1063 1.363 . S
C1069 C1064 1.379 1_556 S
C1069 N1067 1.356 . S
N1070 C1062 1.356 . S
N1070 H1076 0.984 . S
N1070 H1077 0.984 . S
N1071 C1064 1.356 . S
N1071 H1074 0.984 . S
N1071 H1075 0.985 . S
H1072 N1067 0.984 . S
H1073 N1067 0.985 . S
H1074 N1071 0.984 . S
H1075 N1071 0.985 . S
H1076 N1070 0.984 . S
H1077 N1070 0.984 . S
H1078 N1066 0.984 . S
H1079 N1066 0.985 . S
C1080 C1081 1.363 . S
C1080 C1086 1.379 . S
C1080 N1088 1.356 . S
C1081 C1080 1.363 . S
C1081 C1087 1.363 . S
C1082 C1083 1.363 . S
C1082 C1087 1.379 . S
C1082 N1089 1.356 . S
C1083 C1082 1.363 . S
C1083 C1086 1.363 . S
N1084 C1086 1.356 . S
N1084 H1096 0.984 . S
N1084 H1097 0.985 . S
N1085 C1087 1.356 . S
N1085 H1090 0.984 . S
N1085 H1091 0.985 . S
C1086 C1080 1.379 . S
C1086 C1083 1.363 . S
C1086 N1084 1.356 . S
C1087 C1081 1.363 . S
C1087 C1082 1.379 . S
C1087 N1085 1.356 . S
N1088 C1080 1.356 . S
N1088 H1094 0.984 . S
N1088 H1095 0.984 . S
N1089 C1082 1.356 . S
N1089 H1092 0.984 . S
N1089 H1093 0.985 . S
H1090 N1085 0.984 . S
H1091 N1085 0.985 . S
H1092 N1089 0.984 . S
H1093 N1089 0.985 . S
H1094 N1088 0.984 . S
H1095 N1088 0.984 . S
H1096 N1084 0.984 . S
H1097 N1084 0.985 . S
C1098 C1099 1.363 . S
C1098 C1104 1.379 . S
C1098 N1106 1.356 . S
C1099 C1098 1.363 . S
C1099 C1105 1.363 . S
C1100 C1101 1.363 . S
C1100 C1105 1.379 . S
C1100 N1107 1.356 . S
C1101 C1100 1.363 . S
C1101 C1104 1.363 . S
N1102 C1104 1.356 . S
N1102 H1114 0.984 . S
N1102 H1115 0.985 . S
N1103 C1105 1.356 . S
N1103 H1108 0.984 . S
N1103 H1109 0.985 . S
C1104 C1098 1.379 . S
C1104 C1101 1.363 . S
C1104 N1102 1.356 . S
C1105 C1099 1.363 . S
C1105 C1100 1.379 . S
C1105 N1103 1.356 . S
N1106 C1098 1.356 . S
N1106 H1112 0.984 . S
N1106 H1113 0.984 . S
N1107 C1100 1.356 . S
N1107 H1110 0.984 . S
N1107 H1111 0.985 . S
H1108 N1103 0.984 . S
H1109 N1103 0.985 . S
H1110 N1107 0.984 . S
H1111 N1107 0.985 . S
H1112 N1106 0.984 . S
H1113 N1106 0.984 . S
H1114 N1102 0.984 . S
H1115 N1102 0.985 . S
C1116 C1117 1.363 . S
C1116 C1122 1.379 . S
C1116 N1124 1.356 . S
C1117 C1116 1.363 . S
C1117 C1123 1.363 1_655 S
C1118 C1119 1.363 1_455 S
C1118 C1123 1.379 . S
C1118 N1125 1.356 . S
C1119 C1118 1.363 1_655 S
C1119 C1122 1.363 . S
N1120 C1122 1.356 . S
N1120 H1132 0.984 . S
N1120 H1133 0.985 . S
N1121 C1123 1.356 . S
N1121 H1126 0.984 . S
N1121 H1127 0.985 . S
C1122 C1116 1.379 . S
C1122 C1119 1.363 . S
C1122 N1120 1.356 . S
C1123 C1117 1.363 1_455 S
C1123 C1118 1.379 . S
C1123 N1121 1.356 . S
N1124 C1116 1.356 . S
N1124 H1130 0.984 . S
N1124 H1131 0.984 . S
N1125 C1118 1.356 . S
N1125 H1128 0.984 . S
N1125 H1129 0.985 . S
H1126 N1121 0.984 . S
H1127 N1121 0.985 . S
H1128 N1125 0.984 . S
H1129 N1125 0.985 . S
H1130 N1124 0.984 . S
H1131 N1124 0.984 . S
H1132 N1120 0.984 . S
H1133 N1120 0.985 . S
C1134 C1135 1.363 . S
C1134 C1140 1.379 . S
C1134 N1142 1.356 . S
C1135 C1134 1.363 . S
C1135 C1141 1.363 1_545 S
C1136 C1137 1.363 1_565 S
C1136 C1141 1.379 . S
C1136 N1143 1.356 . S
C1137 C1136 1.363 1_545 S
C1137 C1140 1.363 . S
N1138 C1140 1.356 . S
N1138 H1150 0.984 . S
N1138 H1151 0.985 . S
N1139 C1141 1.356 . S
N1139 H1144 0.984 . S
N1139 H1145 0.985 . S
C1140 C1134 1.379 . S
C1140 C1137 1.363 . S
C1140 N1138 1.356 . S
C1141 C1135 1.363 1_565 S
C1141 C1136 1.379 . S
C1141 N1139 1.356 . S
N1142 C1134 1.356 . S
N1142 H1148 0.984 . S
N1142 H1149 0.984 . S
N1143 C1136 1.356 . S
N1143 H1146 0.984 . S
N1143 H1147 0.985 . S
H1144 N1139 0.984 . S
H1145 N1139 0.985 . S
H1146 N1143 0.984 . S
H1147 N1143 0.985 . S
H1148 N1142 0.984 . S
H1149 N1142 0.984 . S
H1150 N1138 0.984 . S
H1151 N1138 0.985 . S
C577 C4 1.748 . S
C579 C256 1.750 . S
C595 C40 1.749 . S
C597 C148 1.749 . S
C613 C184 1.741 . S
C615 C76 1.741 . S
C631 C112 1.741 . S
C633 C220 1.741 . S
C649 C292 1.741 . S
C651 C436 1.741 . S
C667 C328 1.749 . S
C669 C508 1.749 . S
C685 C400 1.749 . S
C687 C364 1.749 . S
C703 C544 1.741 . S
C705 C472 1.741 . S
C721 C3 1.340 . S
C723 C219 1.339 . S
C739 C266 1.248 . S
C741 C50 1.248 . S
C757 C75 1.339 . S
C759 C147 1.340 . S
C775 C194 1.241 . S
C777 C122 1.241 . S
C793 C2 1.465 . S
C795 C506 1.465 . S
C811 C399 1.339 . S
C813 C39 1.338 . S
C829 C470 1.446 . S
C831 C74 1.446 . S
C847 C435 1.338 . S
C849 C111 1.338 . S
C865 C362 1.465 . S
C867 C146 1.465 . S
C883 C183 1.338 . S
C885 C543 1.338 . S
C901 C218 1.446 . S
C903 C290 1.446 . S
C919 C255 1.339 . S
C921 C327 1.338 . S
C937 C14 1.243 . S
C939 C158 1.243 . S
C955 C302 1.249 . S
C957 C482 1.249 . S
C973 C434 1.436 . S
C975 C326 1.435 . S
C991 C518 1.243 . S
C993 C374 1.243 . S
C1009 C254 1.437 . S
C1011 C110 1.434 . S
C1027 C86 1.248 . S
C1029 C230 1.248 . S
C1045 C398 1.436 . S
C1047 C542 1.434 . S
C1063 C471 1.339 . S
C1065 C363 1.340 . S
C1081 C554 1.241 . S
C1083 C446 1.241 . S
C1099 C507 1.340 . S
C1101 C291 1.339 . S
C1117 C410 1.248 . S
C1119 C338 1.248 . S
C1135 C38 1.436 . S
C1137 C182 1.434 . S
