# Generated by pormake.
# Topology wiu, (6)-cn, num edge types: 1
# Building blocks:
#     Node 0, Type 0, BuildingBlock: IZENUY_clean_sbu_0, # of connection points: 6
#     Node 1, Type 0, BuildingBlock: IZENUY_clean_sbu_0, # of connection points: 6
#     Node 2, Type 0, BuildingBlock: IZENUY_clean_sbu_0, # of connection points: 6
#     Node 3, Type 0, BuildingBlock: IZENUY_clean_sbu_0, # of connection points: 6
#     Node 4, Type 0, BuildingBlock: IZENUY_clean_sbu_0, # of connection points: 6
#     Node 5, Type 0, BuildingBlock: IZENUY_clean_sbu_0, # of connection points: 6
#     Node 6, Type 0, BuildingBlock: IZENUY_clean_sbu_0, # of connection points: 6
#     Node 7, Type 0, BuildingBlock: IZENUY_clean_sbu_0, # of connection points: 6
#     Node 8, Type 0, BuildingBlock: IZENUY_clean_sbu_0, # of connection points: 6
#     Node 9, Type 0, BuildingBlock: IZENUY_clean_sbu_0, # of connection points: 6
#     Node 10, Type 0, BuildingBlock: IZENUY_clean_sbu_0, # of connection points: 6
#     Node 11, Type 0, BuildingBlock: IZENUY_clean_sbu_0, # of connection points: 6
#     Node 12, Type 0, BuildingBlock: IZENUY_clean_sbu_0, # of connection points: 6
#     Node 13, Type 0, BuildingBlock: IZENUY_clean_sbu_0, # of connection points: 6
#     Node 14, Type 0, BuildingBlock: IZENUY_clean_sbu_0, # of connection points: 6
#     Node 15, Type 0, BuildingBlock: IZENUY_clean_sbu_0, # of connection points: 6
#     Edge 16, Type (0, 0), BuildingBlock: KIFKEQ_clean_linker_1, # of connection points: 2
#     Edge 17, Type (0, 0), BuildingBlock: KIFKEQ_clean_linker_1, # of connection points: 2
#     Edge 18, Type (0, 0), BuildingBlock: KIFKEQ_clean_linker_1, # of connection points: 2
#     Edge 19, Type (0, 0), BuildingBlock: KIFKEQ_clean_linker_1, # of connection points: 2
#     Edge 20, Type (0, 0), BuildingBlock: KIFKEQ_clean_linker_1, # of connection points: 2
#     Edge 21, Type (0, 0), BuildingBlock: KIFKEQ_clean_linker_1, # of connection points: 2
#     Edge 22, Type (0, 0), BuildingBlock: KIFKEQ_clean_linker_1, # of connection points: 2
#     Edge 23, Type (0, 0), BuildingBlock: KIFKEQ_clean_linker_1, # of connection points: 2
#     Edge 24, Type (0, 0), BuildingBlock: KIFKEQ_clean_linker_1, # of connection points: 2
#     Edge 25, Type (0, 0), BuildingBlock: KIFKEQ_clean_linker_1, # of connection points: 2
#     Edge 26, Type (0, 0), BuildingBlock: KIFKEQ_clean_linker_1, # of connection points: 2
#     Edge 27, Type (0, 0), BuildingBlock: KIFKEQ_clean_linker_1, # of connection points: 2
#     Edge 28, Type (0, 0), BuildingBlock: KIFKEQ_clean_linker_1, # of connection points: 2
#     Edge 29, Type (0, 0), BuildingBlock: KIFKEQ_clean_linker_1, # of connection points: 2
#     Edge 30, Type (0, 0), BuildingBlock: KIFKEQ_clean_linker_1, # of connection points: 2
#     Edge 31, Type (0, 0), BuildingBlock: KIFKEQ_clean_linker_1, # of connection points: 2
#     Edge 32, Type (0, 0), BuildingBlock: KIFKEQ_clean_linker_1, # of connection points: 2
#     Edge 33, Type (0, 0), BuildingBlock: KIFKEQ_clean_linker_1, # of connection points: 2
#     Edge 34, Type (0, 0), BuildingBlock: KIFKEQ_clean_linker_1, # of connection points: 2
#     Edge 35, Type (0, 0), BuildingBlock: KIFKEQ_clean_linker_1, # of connection points: 2
#     Edge 36, Type (0, 0), BuildingBlock: KIFKEQ_clean_linker_1, # of connection points: 2
#     Edge 37, Type (0, 0), BuildingBlock: KIFKEQ_clean_linker_1, # of connection points: 2
#     Edge 38, Type (0, 0), BuildingBlock: KIFKEQ_clean_linker_1, # of connection points: 2
#     Edge 39, Type (0, 0), BuildingBlock: KIFKEQ_clean_linker_1, # of connection points: 2
#     Edge 40, Type (0, 0), BuildingBlock: KIFKEQ_clean_linker_1, # of connection points: 2
#     Edge 41, Type (0, 0), BuildingBlock: KIFKEQ_clean_linker_1, # of connection points: 2
#     Edge 42, Type (0, 0), BuildingBlock: KIFKEQ_clean_linker_1, # of connection points: 2
#     Edge 43, Type (0, 0), BuildingBlock: KIFKEQ_clean_linker_1, # of connection points: 2
#     Edge 44, Type (0, 0), BuildingBlock: KIFKEQ_clean_linker_1, # of connection points: 2
#     Edge 45, Type (0, 0), BuildingBlock: KIFKEQ_clean_linker_1, # of connection points: 2
#     Edge 46, Type (0, 0), BuildingBlock: KIFKEQ_clean_linker_1, # of connection points: 2
#     Edge 47, Type (0, 0), BuildingBlock: KIFKEQ_clean_linker_1, # of connection points: 2
#     Edge 48, Type (0, 0), BuildingBlock: KIFKEQ_clean_linker_1, # of connection points: 2
#     Edge 49, Type (0, 0), BuildingBlock: KIFKEQ_clean_linker_1, # of connection points: 2
#     Edge 50, Type (0, 0), BuildingBlock: KIFKEQ_clean_linker_1, # of connection points: 2
#     Edge 51, Type (0, 0), BuildingBlock: KIFKEQ_clean_linker_1, # of connection points: 2
#     Edge 52, Type (0, 0), BuildingBlock: KIFKEQ_clean_linker_1, # of connection points: 2
#     Edge 53, Type (0, 0), BuildingBlock: KIFKEQ_clean_linker_1, # of connection points: 2
#     Edge 54, Type (0, 0), BuildingBlock: KIFKEQ_clean_linker_1, # of connection points: 2
#     Edge 55, Type (0, 0), BuildingBlock: KIFKEQ_clean_linker_1, # of connection points: 2
#     Edge 56, Type (0, 0), BuildingBlock: KIFKEQ_clean_linker_1, # of connection points: 2
#     Edge 57, Type (0, 0), BuildingBlock: KIFKEQ_clean_linker_1, # of connection points: 2
#     Edge 58, Type (0, 0), BuildingBlock: KIFKEQ_clean_linker_1, # of connection points: 2
#     Edge 59, Type (0, 0), BuildingBlock: KIFKEQ_clean_linker_1, # of connection points: 2
#     Edge 60, Type (0, 0), BuildingBlock: KIFKEQ_clean_linker_1, # of connection points: 2
#     Edge 61, Type (0, 0), BuildingBlock: KIFKEQ_clean_linker_1, # of connection points: 2
#     Edge 62, Type (0, 0), BuildingBlock: KIFKEQ_clean_linker_1, # of connection points: 2
#     Edge 63, Type (0, 0), BuildingBlock: KIFKEQ_clean_linker_1, # of connection points: 2
# Relax obj value: 0.193
# Max RMSD: 0.208
# Mean RMSD: 0.207
data_MOF--net-wiu--node1-IZENUY_clean_sbu_0--edge1-KIFKEQ_clean_linker_1
_symmetry_space_group_name_H-M    P1
_symmetry_Int_Tables_number       1
_symmetry_cell_setting            triclinic
loop_
_symmetry_equiv_pos_as_xyz
'x, y, z'
_cell_length_a     31.52034
_cell_length_b     31.641868
_cell_length_c     55.012505
_cell_angle_alpha  90.009747
_cell_angle_beta   89.90843
_cell_angle_gamma 89.940761
loop_
_atom_site_label
_atom_site_type_symbol
_atom_site_fract_x
_atom_site_fract_y
_atom_site_fract_z
_atom_type_partial_charge
Fe0 Fe 0.33913 0.09198 0.05618 0.0
Fe1 Fe 0.37582 0.18143 0.04972 0.0
O2 O 0.35054 0.14298 0.06795 0.0
Fe3 Fe 0.33812 0.15537 0.0985 0.0
O4 O 0.37336 0.11451 0.10875 0.0
O5 O 0.34931 0.06432 0.08487 0.0
O6 O 0.39466 0.08201 0.04839 0.0
C7 C 0.41715 0.10494 0.03469 0.0
C8 C 0.26791 0.10519 0.08401 0.0
O9 O 0.4072 0.14339 0.03128 0.0
C10 C 0.31604 0.22983 0.07799 0.0
O11 O 0.32815 0.11153 0.0255 0.0
O12 O 0.3329 0.18081 0.02822 0.0
O13 O 0.29151 0.12084 0.10026 0.0
O14 O 0.28255 0.09721 0.06307 0.0
C15 C 0.41754 0.19376 0.09224 0.0
O16 O 0.34904 0.22704 0.06465 0.0
O17 O 0.30296 0.19794 0.08959 0.0
C18 C 0.32235 0.14811 0.01666 0.0
O19 O 0.42068 0.18376 0.07017 0.0
O20 O 0.38218 0.19213 0.10294 0.0
C21 C 0.37272 0.07643 0.10217 0.0
Fe22 Fe 0.72829 0.58986 0.30733 0.0
Fe23 Fe 0.66595 0.58849 0.35025 0.0
O24 O 0.67744 0.60112 0.31961 0.0
Fe25 Fe 0.63835 0.62652 0.30187 0.0
O26 O 0.6385 0.58418 0.28003 0.0
O27 O 0.70797 0.57932 0.27678 0.0
O28 O 0.72306 0.53346 0.31403 0.0
C29 C 0.71688 0.51893 0.33517 0.0
C30 C 0.71482 0.66797 0.28641 0.0
O31 O 0.70128 0.54233 0.35157 0.0
C32 C 0.6273 0.66753 0.34478 0.0
O33 O 0.75682 0.59966 0.33584 0.0
O34 O 0.70703 0.62375 0.36017 0.0
O35 O 0.67607 0.65824 0.28329 0.0
O36 O 0.73813 0.64521 0.29974 0.0
C37 C 0.59072 0.56632 0.33038 0.0
O38 O 0.62882 0.63212 0.35523 0.0
O39 O 0.6365 0.67085 0.32261 0.0
C40 C 0.74514 0.62285 0.35334 0.0
O41 O 0.62315 0.55333 0.34164 0.0
O42 O 0.59301 0.59934 0.3171 0.0
C43 C 0.67108 0.57373 0.26819 0.0
Fe44 Fe 0.23532 0.91727 0.59868 0.0
Fe45 Fe 0.23547 0.98047 0.55627 0.0
O46 O 0.2224 0.93003 0.56828 0.0
Fe47 Fe 0.1951 0.89235 0.55051 0.0
O48 O 0.15084 0.89213 0.5715 0.0
O49 O 0.19025 0.88179 0.60362 0.0
O50 O 0.20161 0.95915 0.60927 0.0
C51 C 0.20287 0.99713 0.6025 0.0
C52 C 0.25429 0.84217 0.57805 0.0
O53 O 0.22621 1.00866 0.58497 0.0
C54 C 0.24961 0.92315 0.51692 0.0
O55 O 0.28289 0.95048 0.60012 0.0
O56 O 0.29182 0.97353 0.56287 0.0
O57 O 0.22052 0.84584 0.56546 0.0
O58 O 0.26906 0.87378 0.5892 0.0
C59 C 0.15699 0.97041 0.53503 0.0
O60 O 0.24564 0.96005 0.5257 0.0
O61 O 0.23733 0.89099 0.52847 0.0
C62 C 0.30655 0.96558 0.58372 0.0
O63 O 0.18051 0.99252 0.54854 0.0
O64 O 0.16473 0.9313 0.53218 0.0
C65 C 0.15441 0.88156 0.59346 0.0
Fe66 Fe 0.84155 0.48034 0.80875 0.0
Fe67 Fe 0.93157 0.44443 0.8021 0.0
O68 O 0.89243 0.46823 0.82055 0.0
Fe69 Fe 0.90395 0.4787 0.8514 0.0
O70 O 0.86327 0.44231 0.86055 0.0
O71 O 0.81327 0.46847 0.83719 0.0
O72 O 0.83175 0.42551 0.79988 0.0
C73 C 0.85523 0.40373 0.78605 0.0
C74 C 0.85341 0.54923 0.83816 0.0
O75 O 0.89391 0.41382 0.78304 0.0
C76 C 0.97864 0.50315 0.83162 0.0
O77 O 0.86151 0.49297 0.77836 0.0
O78 O 0.93097 0.48828 0.7813 0.0
O79 O 0.86818 0.5243 0.85401 0.0
O80 O 0.84712 0.53632 0.81669 0.0
C81 C 0.94371 0.40066 0.84393 0.0
O82 O 0.97665 0.47094 0.81771 0.0
O83 O 0.94631 0.51491 0.84347 0.0
C84 C 0.89832 0.49937 0.76979 0.0
O85 O 0.93407 0.39866 0.82178 0.0
O86 O 0.9416 0.43527 0.85519 0.0
C87 C 0.82503 0.4439 0.85406 0.0
Fe88 Fe 0.73483 0.9796 0.91408 0.0
Fe89 Fe 0.69702 0.89043 0.9207 0.0
O90 O 0.7233 0.92841 0.90255 0.0
Fe91 Fe 0.73677 0.91527 0.87222 0.0
O92 O 0.70214 0.95602 0.86124 0.0
O93 O 0.72551 1.00673 0.88503 0.0
O94 O 0.67937 0.99029 0.9215 0.0
C95 C 0.65597 0.96771 0.9349 0.0
C96 C 0.80674 0.96551 0.88699 0.0
O97 O 0.66491 0.92899 0.93831 0.0
C98 C 0.75766 0.84113 0.89337 0.0
O99 O 0.74494 0.96063 0.94494 0.0
O100 O 0.73882 0.89131 0.94298 0.0
O101 O 0.78357 0.94957 0.87064 0.0
O102 O 0.79152 0.97385 0.90772 0.0
C103 C 0.657 0.87725 0.87771 0.0
O104 O 0.72432 0.84434 0.90644 0.0
O105 O 0.7714 0.87287 0.8819 0.0
C106 C 0.74979 0.92424 0.95421 0.0
O107 O 0.65305 0.88783 0.89963 0.0
O108 O 0.69277 0.87853 0.86747 0.0
C109 C 0.70302 0.9943 0.86738 0.0
Fe110 Fe 0.43154 0.44401 0.66716 0.0
Fe111 Fe 0.40625 0.48423 0.61909 0.0
O112 O 0.3932 0.47038 0.64933 0.0
Fe113 Fe 0.34198 0.48152 0.66123 0.0
O114 O 0.33176 0.42595 0.66848 0.0
O115 O 0.39327 0.41286 0.68544 0.0
O116 O 0.43298 0.40012 0.64611 0.0
C117 C 0.44336 0.40409 0.62412 0.0
C118 C 0.39871 0.49673 0.70081 0.0
O119 O 0.44275 0.43994 0.61407 0.0
C120 C 0.35553 0.55366 0.63437 0.0
O121 O 0.47773 0.47016 0.65241 0.0
O122 O 0.44906 0.51849 0.62896 0.0
O123 O 0.36185 0.49155 0.692 0.0
O124 O 0.43146 0.48611 0.68912 0.0
C125 C 0.32682 0.45052 0.61441 0.0
O126 O 0.37198 0.53102 0.61791 0.0
O127 O 0.34711 0.53812 0.655 0.0
C128 C 0.48092 0.50409 0.6401 0.0
O129 O 0.36513 0.45021 0.60795 0.0
O130 O 0.31432 0.47231 0.63235 0.0
C131 C 0.35463 0.40328 0.68212 0.0
Fe132 Fe 0.84354 0.14644 0.36675 0.0
Fe133 Fe 0.84235 0.09531 0.41412 0.0
O134 O 0.85738 0.14155 0.39788 0.0
Fe135 Fe 0.88611 0.18211 0.41275 0.0
O136 O 0.91719 0.19639 0.38612 0.0
O137 O 0.89847 0.15177 0.3573 0.0
O138 O 0.84867 0.08993 0.36067 0.0
C139 C 0.87053 0.06235 0.3716 0.0
C140 C 0.832 0.23021 0.38437 0.0
O141 O 0.87438 0.06243 0.39433 0.0
C142 C 0.82574 0.15555 0.44789 0.0
O143 O 0.78728 0.1417 0.37354 0.0
O144 O 0.79365 0.08523 0.39624 0.0
O145 O 0.84583 0.22212 0.40549 0.0
O146 O 0.83645 0.20377 0.36733 0.0
C147 C 0.92419 0.11202 0.43349 0.0
O148 O 0.81053 0.12609 0.43505 0.0
O149 O 0.85953 0.17438 0.4418 0.0
C150 C 0.77105 0.10934 0.38313 0.0
O151 O 0.8877 0.09562 0.43509 0.0
O152 O 0.92928 0.14569 0.42134 0.0
C153 C 0.92419 0.17799 0.36614 0.0
Fe154 Fe 0.23191 0.5916 0.15975 0.0
Fe155 Fe 0.14247 0.62899 0.16593 0.0
O156 O 0.1814 0.60443 0.14769 0.0
Fe157 Fe 0.17008 0.5939 0.11683 0.0
O158 O 0.21146 0.62956 0.10776 0.0
O159 O 0.26072 0.60274 0.13139 0.0
O160 O 0.24253 0.64627 0.16845 0.0
C161 C 0.2193 0.66848 0.18219 0.0
C162 C 0.21917 0.52264 0.13056 0.0
O163 O 0.18043 0.65904 0.1851 0.0
C164 C 0.09483 0.57076 0.13645 0.0
O165 O 0.21135 0.57954 0.1901 0.0
O166 O 0.14202 0.58526 0.18677 0.0
O167 O 0.20514 0.54765 0.11452 0.0
O168 O 0.22544 0.53571 0.15199 0.0
C169 C 0.13133 0.67264 0.12401 0.0
O170 O 0.09715 0.60314 0.15021 0.0
O171 O 0.12706 0.55845 0.1247 0.0
C172 C 0.17429 0.5736 0.19842 0.0
O173 O 0.14103 0.67464 0.14615 0.0
O174 O 0.13314 0.63795 0.1128 0.0
C175 C 0.24955 0.62752 0.11449 0.0
Fe176 Fe 0.84103 0.65483 0.59967 0.0
Fe177 Fe 0.84168 0.59178 0.55722 0.0
O178 O 0.85341 0.64258 0.56912 0.0
Fe179 Fe 0.87882 0.68102 0.55097 0.0
O180 O 0.92378 0.6828 0.57133 0.0
O181 O 0.88548 0.6912 0.60419 0.0
O182 O 0.87586 0.61363 0.60987 0.0
C183 C 0.87449 0.57551 0.60345 0.0
C184 C 0.8195 0.72964 0.57949 0.0
O185 O 0.8514 0.56375 0.58592 0.0
C186 C 0.82495 0.64839 0.51795 0.0
O187 O 0.79405 0.62066 0.60128 0.0
O188 O 0.78522 0.59748 0.56399 0.0
O189 O 0.85248 0.72682 0.56611 0.0
O190 O 0.80619 0.69762 0.59085 0.0
C191 C 0.91943 0.6042 0.53557 0.0
O192 O 0.83092 0.61167 0.52658 0.0
O193 O 0.83571 0.6809 0.5296 0.0
C194 C 0.77046 0.6054 0.58489 0.0
O195 O 0.89713 0.58148 0.54949 0.0
O196 O 0.90975 0.6428 0.53231 0.0
C197 C 0.92081 0.69273 0.59342 0.0
Fe198 Fe 0.17029 0.08871 0.84856 0.0
Fe199 Fe 0.14245 0.12814 0.8007 0.0
O200 O 0.18137 0.10132 0.81789 0.0
Fe201 Fe 0.23144 0.08827 0.80516 0.0
O202 O 0.22469 1.032 0.81214 0.0
O203 O 0.2049 0.04221 0.84982 0.0
O204 O 0.12682 0.05423 0.83994 0.0
C205 C 0.09445 0.06831 0.82904 0.0
C206 C 0.25016 0.12141 0.85102 0.0
O207 O 0.097 0.1019 0.81629 0.0
C208 C 0.21966 0.16691 0.7842 0.0
O209 O 0.13388 0.13275 0.85394 0.0
O210 O 0.14246 0.17213 0.82174 0.0
O211 O 0.26096 0.09791 0.83342 0.0
O212 O 0.21221 0.1232 0.85817 0.0
C213 C 0.1726 0.07417 0.76658 0.0
O214 O 0.18032 0.15911 0.78201 0.0
O215 O 0.24292 0.14305 0.79693 0.0
C216 C 0.13282 0.16843 0.84382 0.0
O217 O 0.14065 0.08638 0.77847 0.0
O218 O 0.20983 0.07791 0.77499 0.0
C219 C 0.21903 1.01802 0.83343 0.0
Fe220 Fe 0.73015 0.42108 0.10142 0.0
Fe221 Fe 0.73188 0.48096 0.05768 0.0
O222 O 0.71926 0.4311 0.07045 0.0
Fe223 Fe 0.69449 0.39164 0.05283 0.0
O224 O 0.6489 0.39092 0.07284 0.0
O225 O 0.68594 0.38455 0.1062 0.0
O226 O 0.69448 0.46275 0.11007 0.0
C227 C 0.69667 0.50045 0.1029 0.0
C228 C 0.7531 0.3452 0.08296 0.0
O229 O 0.7213 0.5108 0.08572 0.0
C230 C 0.74933 0.42225 0.01955 0.0
O231 O 0.77669 0.45594 0.10294 0.0
O232 O 0.78809 0.47469 0.06513 0.0
O233 O 0.72073 0.34702 0.06908 0.0
O234 O 0.76562 0.37786 0.09405 0.0
C235 C 0.65433 0.46763 0.03594 0.0
O236 O 0.7434 0.45938 0.02753 0.0
O237 O 0.73811 0.39045 0.03169 0.0
C238 C 0.80156 0.46921 0.08655 0.0
O239 O 0.67681 0.49123 0.04925 0.0
O240 O 0.66392 0.42882 0.03337 0.0
C241 C 0.65107 0.38223 0.0951 0.0
Fe242 Fe 0.40936 0.98292 0.34737 0.0
Fe243 Fe 0.34598 0.98005 0.30502 0.0
O244 O 0.39685 0.96844 0.31716 0.0
Fe245 Fe 0.43526 0.94108 0.29978 0.0
O246 O 0.43639 0.89812 0.32147 0.0
O247 O 0.44599 0.9391 0.35294 0.0
O248 O 0.36803 0.94904 0.35847 0.0
C249 C 0.32983 0.94961 0.35182 0.0
C250 C 0.48411 1.00267 0.32615 0.0
O251 O 0.31786 0.97166 0.33389 0.0
C252 C 0.40319 0.99313 0.2654 0.0
O253 O 0.37502 1.02956 0.3482 0.0
O254 O 0.35185 0.03662 0.31086 0.0
O255 O 0.48128 0.96826 0.31416 0.0
O256 O 0.45217 1.01696 0.33736 0.0
C257 C 0.35779 0.90091 0.28503 0.0
O258 O 0.36626 0.98912 0.27431 0.0
O259 O 0.43572 0.98189 0.27702 0.0
C260 C 0.35961 0.05224 0.33151 0.0
O261 O 0.33499 0.92478 0.29803 0.0
O262 O 0.39691 0.90905 0.28208 0.0
C263 C 0.44637 0.90288 0.34343 0.0
Fe264 Fe 0.22859 0.41005 0.36757 0.0
Fe265 Fe 0.22743 0.47328 0.4097 0.0
O266 O 0.2152 0.42252 0.39797 0.0
Fe267 Fe 0.1888 0.38424 0.41584 0.0
O268 O 0.14501 0.38135 0.39452 0.0
O269 O 0.18552 0.37218 0.36273 0.0
O270 O 0.19298 0.45034 0.35703 0.0
C271 C 0.1941 0.48858 0.3634 0.0
C272 C 0.25082 0.33643 0.38879 0.0
O273 O 0.21743 0.50068 0.3808 0.0
C274 C 0.24203 0.4175 0.44957 0.0
O275 O 0.27451 0.44561 0.36564 0.0
O276 O 0.28411 0.46693 0.40301 0.0
O277 O 0.21685 0.33876 0.40141 0.0
O278 O 0.26418 0.36833 0.37726 0.0
C279 C 0.14858 0.4618 0.43078 0.0
O280 O 0.23793 0.45395 0.44034 0.0
O281 O 0.23018 0.3848 0.43841 0.0
C282 C 0.2985 0.46067 0.38185 0.0
O283 O 0.17232 0.48441 0.41759 0.0
O284 O 0.15643 0.42264 0.43348 0.0
C285 C 0.14969 0.36962 0.37282 0.0
Fe286 Fe 0.84305 0.9862 0.16702 0.0
Fe287 Fe 0.93147 0.94503 0.17179 0.0
O288 O 0.89307 0.97239 0.15448 0.0
Fe289 Fe 0.90466 0.98481 0.12385 0.0
O290 O 0.86251 0.9508 0.11407 0.0
O291 O 0.8137 0.97675 0.13859 0.0
O292 O 0.83071 0.93163 0.17525 0.0
C293 C 0.85348 0.90725 0.18794 0.0
C294 C 0.85651 0.05611 0.13863 0.0
O295 O 0.89292 0.91447 0.19031 0.0
C296 C 0.98047 1.00438 0.14362 0.0
O297 O 0.86456 0.99649 0.19734 0.0
O298 O 0.93363 0.98676 0.19403 0.0
O299 O 0.87059 1.03162 0.12238 0.0
O300 O 0.85055 0.04239 0.15995 0.0
C301 C 0.94127 0.90468 0.1287 0.0
O302 O 0.97745 0.97078 0.15636 0.0
O303 O 0.94834 1.01882 0.13266 0.0
C304 C 0.90186 0.99975 0.2058 0.0
O305 O 0.93123 0.90103 0.15073 0.0
O306 O 0.94064 0.9404 0.11862 0.0
C307 C 0.82444 0.95328 0.12092 0.0
Fe308 Fe 0.34082 0.59161 0.91148 0.0
Fe309 Fe 0.38114 0.67993 0.91594 0.0
O310 O 0.35491 0.64103 0.89857 0.0
Fe311 Fe 0.34391 0.6512 0.8676 0.0
O312 O 0.37858 0.6087 0.85896 0.0
O313 O 0.35071 0.56141 0.88348 0.0
O314 O 0.3954 0.57967 0.92012 0.0
C315 C 0.4192 0.60282 0.93293 0.0
C316 C 0.27148 0.60472 0.88254 0.0
O317 O 0.41144 0.64211 0.93505 0.0
C318 C 0.32269 0.72748 0.88624 0.0
O319 O 0.32995 0.61364 0.94154 0.0
O320 O 0.33828 0.68233 0.93757 0.0
O321 O 0.29669 0.6173 0.86615 0.0
O322 O 0.28477 0.59934 0.90399 0.0
C323 C 0.42384 0.68853 0.87338 0.0
O324 O 0.35533 0.72505 0.89991 0.0
O325 O 0.30946 0.69514 0.87509 0.0
C326 C 0.32585 0.6509 0.94965 0.0
O327 O 0.42624 0.67955 0.89558 0.0
O328 O 0.38872 0.6869 0.86253 0.0
C329 C 0.37546 0.57108 0.8662 0.0
Fe330 Fe 0.73164 0.09047 0.66178 0.0
Fe331 Fe 0.64261 0.12946 0.66813 0.0
O332 O 0.68082 0.10327 0.65008 0.0
Fe333 Fe 0.66818 0.0909 0.61961 0.0
O334 O 0.70925 0.12575 0.60926 0.0
O335 O 0.75951 0.10044 0.63291 0.0
O336 O 0.74312 0.14528 0.66994 0.0
C337 C 0.72033 0.16869 0.68327 0.0
C338 C 0.71818 1.02039 0.63354 0.0
O339 O 0.68123 0.16038 0.68624 0.0
C340 C 0.59369 0.06961 0.64052 0.0
O341 O 0.71178 0.07966 0.69238 0.0
O342 O 0.64235 0.08727 0.69009 0.0
O343 O 0.70303 0.04463 0.61749 0.0
O344 O 0.72485 1.03423 0.65476 0.0
C345 C 0.63054 0.17039 0.62543 0.0
O346 O 0.59654 0.10315 0.65328 0.0
O347 O 0.62558 0.05597 0.62897 0.0
C348 C 0.67497 0.07519 0.70136 0.0
O349 O 0.64112 0.1738 0.64737 0.0
O350 O 0.63121 0.13483 0.61512 0.0
C351 C 0.74764 0.12369 0.61543 0.0
H352 H 0.41193 0.25816 0.12472 0.0
H353 H 0.50172 0.18115 0.08505 0.0
H354 H 0.46919 0.3061 0.13646 0.0
H355 H 0.559 0.22839 0.09743 0.0
H356 H 0.56725 0.39634 0.08814 0.0
H357 H 0.5095 0.34845 0.09893 0.0
H358 H 0.59806 0.26752 0.13654 0.0
H359 H 0.65578 0.31617 0.12643 0.0
C360 C 0.44413 0.25064 0.11932 0.0
C361 C 0.45263 0.21652 0.10368 0.0
C362 C 0.47671 0.27792 0.1261 0.0
C363 C 0.51814 0.27061 0.11786 0.0
C364 C 0.52723 0.23421 0.10421 0.0
C365 C 0.49455 0.20753 0.09694 0.0
C366 C 0.57398 0.36915 0.09948 0.0
C367 C 0.61569 0.35948 0.10625 0.0
C368 C 0.54105 0.34205 0.10583 0.0
C369 C 0.54971 0.30455 0.11851 0.0
C370 C 0.59088 0.29652 0.12691 0.0
C371 C 0.62371 0.32424 0.12109 0.0
H372 H 0.5626 0.66342 0.37737 0.0
H373 H 0.64343 0.75082 0.3387 0.0
H374 H 0.51623 0.72194 0.38935 0.0
H375 H 0.59785 0.80924 0.35123 0.0
H376 H 0.42965 0.8193 0.33924 0.0
H377 H 0.4754 0.76149 0.35242 0.0
H378 H 0.55829 0.85071 0.38794 0.0
H379 H 0.51183 0.90864 0.37531 0.0
C380 C 0.57133 0.69534 0.3723 0.0
C381 C 0.60591 0.70289 0.35676 0.0
C382 C 0.54497 0.72864 0.37923 0.0
C383 C 0.55368 0.76976 0.37118 0.0
C384 C 0.59086 0.77776 0.35788 0.0
C385 C 0.6166 0.74442 0.35047 0.0
C386 C 0.45681 0.8263 0.3506 0.0
C387 C 0.46782 0.86814 0.35594 0.0
C388 C 0.48264 0.79331 0.35838 0.0
C389 C 0.52021 0.80198 0.37111 0.0
C390 C 0.52925 0.84351 0.37828 0.0
C391 C 0.50283 0.87648 0.37097 0.0
H392 H 0.07024 0.89592 0.58756 0.0
H393 H 0.15996 0.81513 0.62452 0.0
H394 H 1.01276 0.84818 0.59902 0.0
H395 H 0.10249 0.7668 0.63539 0.0
H396 H 1.00485 0.67943 0.58632 0.0
H397 H 0.06234 0.727 0.59785 0.0
H398 H 0.9731 0.80642 0.63619 0.0
H399 H 0.9156 0.75815 0.62526 0.0
C400 C 0.07734 0.86863 0.59874 0.0
C401 C 0.1193 0.85876 0.60493 0.0
C402 C 0.04455 0.8416 0.60548 0.0
C403 C 0.05355 0.80401 0.61802 0.0
C404 C 0.09503 0.79583 0.62586 0.0
C405 C 0.12773 0.82339 0.6196 0.0
C406 C 0.99786 0.70625 0.59791 0.0
C407 C 0.95603 0.71559 0.60467 0.0
C408 C 1.03067 0.73317 0.60469 0.0
C409 C 1.0218 0.77016 0.61786 0.0
C410 C 0.98046 0.77785 0.62617 0.0
C411 C 0.94775 0.75034 0.61987 0.0
H412 H 0.14736 0.2523 0.8387 0.0
H413 H 0.06606 0.16196 0.87475 0.0
H414 H 0.09916 0.30925 0.85048 0.0
H415 H 1.01721 0.2189 0.88587 0.0
H416 H 1.00744 0.40483 0.87698 0.0
H417 H 0.05544 0.34731 0.88827 0.0
H418 H 0.97897 0.25967 0.84718 0.0
H419 H 0.93171 0.31722 0.83526 0.0
C420 C 0.11987 0.24496 0.84978 0.0
C421 C 0.10993 0.20304 0.8556 0.0
C422 C 0.09261 0.27742 0.8567 0.0
C423 C 0.05473 0.26807 0.86901 0.0
C424 C 0.04651 0.22659 0.87655 0.0
C425 C 0.07434 0.19421 0.87013 0.0
C426 C 1.0002 0.37301 0.87101 0.0
C427 C 0.96648 0.36523 0.85495 0.0
C428 C 1.0275 0.34029 0.87756 0.0
C429 C 1.02055 0.29944 0.86862 0.0
C430 C 0.98448 0.29098 0.85451 0.0
C431 C 0.9578 0.32382 0.84749 0.0
H432 H 0.66351 0.81263 0.84538 0.0
H433 H 0.5726 0.88972 0.88415 0.0
H434 H 0.6066 0.76461 0.83319 0.0
H435 H 0.51571 0.84238 0.87135 0.0
H436 H 0.50764 0.67381 0.88011 0.0
H437 H 0.56553 0.72175 0.86969 0.0
H438 H 0.4773 0.80358 0.83247 0.0
H439 H 0.41942 0.75492 0.84224 0.0
C440 C 0.63116 0.82014 0.8505 0.0
C441 C 0.62223 0.85434 0.866 0.0
C442 C 0.59878 0.7928 0.84346 0.0
C443 C 0.55711 0.80009 0.85132 0.0
C444 C 0.54766 0.83654 0.86485 0.0
C445 C 0.58012 0.86329 0.87237 0.0
C446 C 0.501 0.7012 0.86891 0.0
C447 C 0.45932 0.71112 0.86218 0.0
C448 C 0.53403 0.72836 0.86278 0.0
C449 C 0.52551 0.76616 0.85035 0.0
C450 C 0.48438 0.77438 0.84192 0.0
C451 C 0.45146 0.74664 0.84754 0.0
H452 H 0.56551 0.1655 0.59319 0.0
H453 H 0.64448 0.25407 0.63215 0.0
H454 H 0.51811 0.2232 0.58141 0.0
H455 H 0.59772 0.31172 0.61985 0.0
H456 H 0.42771 0.3204 0.62897 0.0
H457 H 0.47535 0.26291 0.61747 0.0
H458 H 0.55914 0.35229 0.58264 0.0
H459 H 0.51087 0.40985 0.59359 0.0
C460 C 0.57358 0.19751 0.59843 0.0
C461 C 0.60809 0.20556 0.61388 0.0
C462 C 0.54658 0.23034 0.59163 0.0
C463 C 0.5545 0.27157 0.59974 0.0
C464 C 0.59135 0.28014 0.61316 0.0
C465 C 0.61778 0.24724 0.6204 0.0
C466 C 0.45552 0.32745 0.61809 0.0
C467 C 0.46611 0.36928 0.61241 0.0
C468 C 0.48249 0.29465 0.61131 0.0
C469 C 0.52075 0.30351 0.59925 0.0
C470 C 0.52961 0.34494 0.59181 0.0
C471 C 0.50209 0.37769 0.59812 0.0
H472 H 0.06442 0.37504 0.37985 0.0
H473 H 0.16041 0.30557 0.34035 0.0
H474 H 1.01068 0.32531 0.36567 0.0
H475 H 0.10664 0.25524 0.32665 0.0
H476 H 0.91732 0.24263 0.33495 0.0
H477 H 0.97489 0.29213 0.32626 0.0
H478 H 0.06466 0.20454 0.35747 0.0
H479 H 1.00685 0.15557 0.36655 0.0
C480 C 0.07378 0.34968 0.36773 0.0
C481 C 0.11643 0.34395 0.36132 0.0
C482 C 0.04308 0.32149 0.35942 0.0
C483 C 0.05469 0.28669 0.34496 0.0
C484 C 0.09701 0.28206 0.3376 0.0
C485 C 0.12762 0.31082 0.34547 0.0
C486 C 0.94973 0.233 0.33854 0.0
C487 C 0.9581 0.19546 0.3512 0.0
C488 C 0.9825 0.2614 0.33378 0.0
C489 C 1.02391 0.2522 0.34147 0.0
C490 C 1.03299 0.21213 0.3512 0.0
C491 C 1.00006 0.18401 0.35629 0.0
H492 H 0.06481 0.66809 0.09289 0.0
H493 H 0.14478 0.75612 0.13157 0.0
H494 H 1.01558 0.72548 0.08316 0.0
H495 H 0.09628 0.81356 0.12117 0.0
H496 H 1.00567 0.91076 0.09608 0.0
H497 H 0.05378 0.85392 0.08389 0.0
H498 H 0.97592 0.76381 0.12237 0.0
H499 H 0.92841 0.82068 0.13519 0.0
C500 C 0.07269 0.7 0.09843 0.0
C501 C 0.10805 0.70795 0.11326 0.0
C502 C 0.04465 0.73263 0.09281 0.0
C503 C 0.05245 0.77355 0.10142 0.0
C504 C 0.09004 0.78218 0.11412 0.0
C505 C 0.11749 0.74943 0.12025 0.0
C506 C 0.99808 0.87859 0.10124 0.0
C507 C 0.96386 0.86987 0.11686 0.0
C508 C 1.0255 0.84626 0.0942 0.0
C509 C 1.01823 0.80487 0.10219 0.0
C510 C 0.98169 0.79557 0.11578 0.0
C511 C 0.95484 0.828 0.1233 0.0
H512 H 0.45749 1.02883 0.04242 0.0
H513 H 0.45786 0.13637 -0.00573 0.0
H514 H 0.51441 0.99653 0.0188 0.0
H515 H 0.51327 0.10343 0.9699 0.0
H516 H 0.63907 0.05236 0.94137 0.0
H517 H 0.58351 0.08516 0.96564 0.0
H518 H 0.53444 0.9616 0.98378 0.0
H519 H 0.59145 0.92896 0.96039 0.0
C520 C 0.46955 0.04557 0.02669 0.0
C521 C 0.45292 0.08544 0.02044 0.0
C522 C 0.50217 1.02678 0.01288 0.0
C523 C 0.51904 0.0469 -0.00792 0.0
C524 C 0.50222 0.08687 -0.0141 0.0
C525 C 0.47001 0.10588 -0.0001 0.0
C526 C 0.61637 1.0321 0.95046 0.0
C527 C 0.62008 0.98782 0.94878 0.0
C528 C 0.58405 0.05104 0.96441 0.0
C529 C 0.55377 1.02644 0.97698 0.0
C530 C 0.55725 0.98205 0.97496 0.0
C531 C 0.58993 0.96312 0.96126 0.0
H532 H 0.792 0.70668 0.29366 0.0
H533 H 0.68229 0.71099 0.247 0.0
H534 H 0.8245 0.76369 0.27047 0.0
H535 H 0.71539 0.76672 0.22303 0.0
H536 H 0.76837 0.89215 0.19548 0.0
H537 H 0.73514 0.83653 0.21937 0.0
H538 H 0.85875 0.7844 0.23536 0.0
H539 H 0.89187 0.84133 0.21234 0.0
C540 C 0.77479 0.71963 0.27835 0.0
C541 C 0.73427 0.70399 0.2724 0.0
C542 C 0.79371 0.75234 0.26477 0.0
C543 C 0.7731 0.77041 0.24449 0.0
C544 C 0.73242 0.75467 0.23862 0.0
C545 C 0.7133 0.72229 0.25239 0.0
C546 C 0.78856 0.86881 0.20405 0.0
C547 C 0.83303 0.87163 0.20185 0.0
C548 C 0.76935 0.83644 0.21776 0.0
C549 C 0.79382 0.80523 0.22962 0.0
C550 C 0.83838 0.80789 0.22712 0.0
C551 C 0.85759 0.84057 0.21363 0.0
H552 H 0.09915 0.93383 0.50398 0.0
H553 H 0.13719 0.05527 0.53221 0.0
H554 H 0.0454 0.96826 0.47899 0.0
H555 H 0.08306 0.08971 0.50735 0.0
H556 H 1.0062 0.1415 0.44154 0.0
H557 H 0.06248 0.108 0.46567 0.0
H558 H 0.97856 1.00414 0.48209 0.0
H559 H 0.92313 0.03696 0.45806 0.0
C560 C 0.09597 0.96786 0.50503 0.0
C561 C 0.1227 0.9915 0.52036 0.0
C562 C 0.0649 0.98774 0.49066 0.0
C563 C 0.0595 1.03203 0.491 0.0
C564 C 0.08635 0.0557 0.50627 0.0
C565 C 0.11729 0.03578 0.52076 0.0
C566 C 0.99984 0.11146 0.45024 0.0
C567 C 0.95981 0.09218 0.4477 0.0
C568 C 1.0321 0.09228 0.46424 0.0
C569 C 1.02544 0.05305 0.47593 0.0
C570 C 0.98546 1.03388 0.4732 0.0
C571 C 0.95334 0.05305 0.45943 0.0
H572 H 0.77856 0.36355 0.79261 0.0
H573 H 0.8883 0.364 0.74569 0.0
H574 H 0.74702 0.30751 0.76825 0.0
H575 H 0.85613 0.30938 0.72059 0.0
H576 H 0.80528 0.1847 0.6907 0.0
H577 H 0.83766 0.23943 0.71562 0.0
H578 H 0.71325 0.2889 0.73265 0.0
H579 H 0.68104 0.23285 0.70861 0.0
C580 C 0.79595 0.35187 0.77699 0.0
C581 C 0.8362 0.3685 0.7713 0.0
C582 C 0.7776 0.31975 0.76276 0.0
C583 C 0.79855 0.30337 0.74207 0.0
C584 C 0.83892 0.32013 0.73646 0.0
C585 C 0.85748 0.35188 0.75088 0.0
C586 C 0.78477 0.20732 0.69969 0.0
C587 C 0.74036 0.20401 0.69752 0.0
C588 C 0.80345 0.23914 0.71401 0.0
C589 C 0.77846 0.26924 0.7265 0.0
C590 C 0.73398 0.26618 0.72395 0.0
C591 C 0.71531 0.23405 0.70986 0.0
H592 H 0.38759 0.36175 0.7217 0.0
H593 H 0.27692 0.36459 0.67573 0.0
H594 H 0.3552 0.30691 0.74645 0.0
H595 H 0.245 0.30814 0.6998 0.0
H596 H 0.17995 0.23182 0.75966 0.0
H597 H 0.21187 0.28813 0.73557 0.0
H598 H 0.33633 0.23715 0.75063 0.0
H599 H 0.30436 0.18224 0.77557 0.0
C600 C 0.35649 0.35028 0.71662 0.0
C601 C 0.33509 0.36787 0.69655 0.0
C602 C 0.33779 0.31836 0.73085 0.0
C603 C 0.2971 0.30231 0.72541 0.0
C604 C 0.27591 0.31973 0.70512 0.0
C605 C 0.29445 0.35208 0.69105 0.0
C606 C 0.21418 0.23275 0.75796 0.0
C607 C 0.23939 0.20227 0.76979 0.0
C608 C 0.23266 0.26505 0.74385 0.0
C609 C 0.27709 0.26782 0.74079 0.0
C610 C 0.30219 0.23716 0.75269 0.0
C611 C 0.28372 0.20521 0.76701 0.0
H612 H 0.3964 0.8361 0.2598 0.0
H613 H 0.27279 0.88578 0.27779 0.0
H614 H 0.36336 0.78044 0.23576 0.0
H615 H 0.23967 0.83158 0.2529 0.0
H616 H 0.18704 0.70821 0.22273 0.0
H617 H 0.22027 0.76195 0.24799 0.0
H618 H 0.3291 0.7627 0.20009 0.0
H619 H 0.29648 0.7075 0.17557 0.0
C620 C 0.36212 0.83529 0.25859 0.0
C621 C 0.33746 0.86562 0.27094 0.0
C622 C 0.34298 0.80341 0.24451 0.0
C623 C 0.29844 0.80099 0.24199 0.0
C624 C 0.27388 0.83137 0.2545 0.0
C625 C 0.29301 0.86289 0.2688 0.0
C626 C 0.21802 0.71992 0.21752 0.0
C627 C 0.2389 0.70325 0.19699 0.0
C628 C 0.2372 0.75114 0.23203 0.0
C629 C 0.2778 0.76731 0.22639 0.0
C630 C 0.29835 0.75088 0.2056 0.0
C631 C 0.27938 0.71927 0.19128 0.0
H632 H 0.08428 0.4243 0.45725 0.0
H633 H 0.13406 0.54666 0.43779 0.0
H634 H 1.02957 0.45823 0.48188 0.0
H635 H 0.08092 0.5806 0.46321 0.0
H636 H 0.95872 0.63508 0.49453 0.0
H637 H 1.01156 0.60081 0.46892 0.0
H638 H 1.01277 0.49343 0.51746 0.0
H639 H 0.95839 0.52712 0.54237 0.0
C640 C 0.0837 0.45848 0.45824 0.0
C641 C 0.11377 0.48251 0.44529 0.0
C642 C 0.05237 0.47814 0.47267 0.0
C643 C 0.05025 0.5226 0.47492 0.0
C644 C 0.08042 0.5465 0.46184 0.0
C645 C 0.11136 0.52687 0.44722 0.0
C646 C 0.97038 0.60422 0.49984 0.0
C647 C 0.95405 0.58409 0.52068 0.0
C648 C 1.00109 0.58442 0.48511 0.0
C649 C 1.01711 0.54389 0.4908 0.0
C650 C 1.00106 0.52409 0.51191 0.0
C651 C 0.96994 0.54369 0.52646 0.0
H652 H 0.61342 0.43427 -0.00389 0.0
H653 H 0.61517 0.54471 0.04206 0.0
H654 H 0.55875 0.46667 0.97101 0.0
H655 H 0.5591 0.57652 0.01772 0.0
H656 H 0.48423 0.64191 0.95773 0.0
H657 H 0.54036 0.60962 0.98188 0.0
H658 H 0.48871 0.48603 0.96645 0.0
H659 H 0.434 0.51837 0.94146 0.0
C660 C 0.60174 0.4653 0.0011 0.0
C661 C 0.61899 0.4867 0.02123 0.0
C662 C 0.56998 0.484 -0.01332 0.0
C663 C 0.55384 0.52464 -0.00798 0.0
C664 C 0.57085 0.54571 0.01243 0.0
C665 C 0.60298 0.52721 0.02666 0.0
C666 C 0.48496 0.60781 0.95938 0.0
C667 C 0.45436 0.58295 0.94746 0.0
C668 C 0.51715 0.58911 0.97351 0.0
C669 C 0.51964 0.54481 0.97649 0.0
C670 C 0.48889 0.52005 0.96448 0.0
C671 C 0.45706 0.53874 0.95013 0.0
H672 H 0.33479 0.30652 0.05715 0.0
H673 H 0.25794 0.24985 0.11346 0.0
H674 H 0.31114 0.37656 0.07009 0.0
H675 H 0.23443 0.31987 0.12633 0.0
H676 H 0.24291 0.4552 0.15942 0.0
H677 H 0.26458 0.38436 0.1462 0.0
H678 H 0.24664 0.42106 0.07136 0.0
H679 H 0.22516 0.49134 0.08439 0.0
C680 C 0.31252 0.30888 0.0721 0.0
C681 C 0.29831 0.27231 0.08417 0.0
C682 C 0.29893 0.34911 0.07954 0.0
C683 C 0.27106 0.35396 0.09939 0.0
C684 C 0.25634 0.3174 0.11121 0.0
C685 C 0.26956 0.27715 0.10363 0.0
C686 C 0.24359 0.44813 0.14016 0.0
C687 C 0.23227 0.47918 0.12304 0.0
C688 C 0.25579 0.40745 0.13257 0.0
C689 C 0.25746 0.39696 0.10767 0.0
C690 C 0.24621 0.42806 0.09063 0.0
C691 C 0.23362 0.46842 0.09818 0.0
H692 H 0.57159 0.50891 0.36626 0.0
H693 H 0.51318 0.58302 0.30949 0.0
H694 H 0.50187 0.4837 0.37901 0.0
H695 H 0.44339 0.5576 0.32227 0.0
H696 H 0.33098 0.46784 0.33594 0.0
H697 H 0.40089 0.49196 0.32339 0.0
H698 H 0.43534 0.51101 0.39848 0.0
H699 H 0.36477 0.48676 0.41121 0.0
C700 C 0.54398 0.51961 0.35631 0.0
C701 C 0.54831 0.54803 0.33672 0.0
C702 C 0.50386 0.5054 0.36383 0.0
C703 C 0.46682 0.51871 0.35181 0.0
C704 C 0.47117 0.54641 0.33189 0.0
C705 C 0.51128 0.56104 0.32455 0.0
C706 C 0.35332 0.47708 0.34991 0.0
C707 C 0.34194 0.47525 0.37469 0.0
C708 C 0.39348 0.49123 0.34262 0.0
C709 C 0.42391 0.50361 0.35985 0.0
C710 C 0.41284 0.50144 0.38468 0.0
C711 C 0.37228 0.48772 0.392 0.0
H712 H 0.33471 0.82046 0.59212 0.0
H713 H 0.21043 0.76747 0.5799 0.0
H714 H 0.35987 0.75165 0.60667 0.0
H715 H 0.2354 0.69896 0.595 0.0
H716 H 0.28752 0.59985 0.65146 0.0
H717 H 0.26325 0.66943 0.63717 0.0
H718 H 0.3702 0.67605 0.58832 0.0
H719 H 0.39382 0.60644 0.60208 0.0
C720 C 0.31287 0.79405 0.59234 0.0
C721 C 0.27069 0.79943 0.58457 0.0
C722 C 0.32725 0.75467 0.60073 0.0
C723 C 0.29955 0.71991 0.60217 0.0
C724 C 0.25742 0.7252 0.59432 0.0
C725 C 0.24328 0.76434 0.58539 0.0
C726 C 0.30604 0.61639 0.63786 0.0
C727 C 0.34262 0.59758 0.62793 0.0
C728 C 0.29196 0.65604 0.62953 0.0
C729 C 0.31473 0.67819 0.61153 0.0
C730 C 0.35202 0.65993 0.60223 0.0
C731 C 0.36549 0.62 0.61011 0.0
H732 H 0.99769 0.56006 0.86776 0.0
H733 H 0.05576 0.48747 0.81008 0.0
H734 H 0.0675 0.58524 0.88028 0.0
H735 H 0.12552 0.51265 0.82269 0.0
H736 H 0.2387 0.59983 0.83667 0.0
H737 H 0.16827 0.57753 0.82417 0.0
H738 H 0.13371 0.55745 0.89923 0.0
H739 H 0.20469 0.58005 0.91191 0.0
C740 C 1.02524 0.54971 0.85757 0.0
C741 C 1.02086 0.52168 0.83781 0.0
C742 C 0.06538 0.56389 0.86494 0.0
C743 C 0.10227 0.55086 0.85262 0.0
C744 C 0.09783 0.52364 0.83252 0.0
C745 C 0.05774 0.50912 0.82528 0.0
C746 C 0.21622 0.59078 0.85063 0.0
C747 C 0.22767 0.59174 0.87538 0.0
C748 C 0.17576 0.57771 0.84338 0.0
C749 C 0.14522 0.56548 0.86063 0.0
C750 C 0.15632 0.56695 0.88544 0.0
C751 C 0.1971 0.57971 0.89272 0.0
H752 H 0.83041 0.61775 0.80988 0.0
H753 H 0.8451 0.57855 0.88461 0.0
H754 H 0.80852 0.68818 0.82379 0.0
H755 H 0.82336 0.64836 0.89832 0.0
H756 H 0.73656 0.76395 0.91304 0.0
H757 H 0.7593 0.69393 0.89942 0.0
H758 H 0.83931 0.75131 0.84496 0.0
H759 H 0.81685 0.82121 0.85853 0.0
C760 C 0.82894 0.62404 0.82921 0.0
C761 C 0.83961 0.59231 0.84604 0.0
C762 C 0.81662 0.66448 0.8372 0.0
C763 C 0.81411 0.67399 0.86222 0.0
C764 C 0.82447 0.64213 0.87897 0.0
C765 C 0.83723 0.60205 0.87102 0.0
C766 C 0.75938 0.76173 0.89836 0.0
C767 C 0.77484 0.79848 0.887 0.0
C768 C 0.77242 0.72151 0.89052 0.0
C769 C 0.80091 0.71689 0.87093 0.0
C770 C 0.81687 0.75361 0.85984 0.0
C771 C 0.80425 0.79379 0.86784 0.0
H772 H 0.55606 0.46093 0.63828 0.0
H773 H 0.50217 0.58473 0.62654 0.0
H774 H 0.62485 0.48638 0.62367 0.0
H775 H 0.57148 0.61042 0.61254 0.0
H776 H 0.71887 0.64205 0.61861 0.0
H777 H 0.6486 0.61892 0.63213 0.0
H778 H 0.65289 0.51595 0.58081 0.0
H779 H 0.7229 0.53977 0.56674 0.0
C780 C 0.55905 0.49377 0.63301 0.0
C781 C 0.52364 0.52091 0.63378 0.0
C782 C 0.59836 0.50819 0.62438 0.0
C783 C 0.6035 0.55032 0.61683 0.0
C784 C 0.56847 0.5778 0.61825 0.0
C785 C 0.52885 0.56312 0.62631 0.0
C786 C 0.70465 0.61471 0.61003 0.0
C787 C 0.72647 0.59278 0.59157 0.0
C788 C 0.66439 0.60156 0.61775 0.0
C789 C 0.64534 0.56551 0.60764 0.0
C790 C 0.66693 0.5437 0.58904 0.0
C791 C 0.70684 0.5575 0.58087 0.0
H792 H 0.79506 0.2539 0.34166 0.0
H793 H 0.82647 0.30236 0.41279 0.0
H794 H 0.76714 0.32237 0.33005 0.0
H795 H 0.79899 0.37178 0.40088 0.0
H796 H 0.70826 0.47902 0.37905 0.0
H797 H 0.73517 0.41022 0.39134 0.0
H798 H 0.78888 0.39241 0.3198 0.0
H799 H 0.76112 0.46116 0.30729 0.0
C800 C 0.79615 0.2792 0.3549 0.0
C801 C 0.81327 0.27233 0.37823 0.0
C802 C 0.78032 0.31879 0.34809 0.0
C803 C 0.78103 0.35304 0.36435 0.0
C804 C 0.79754 0.34615 0.38787 0.0
C805 C 0.81344 0.30631 0.39473 0.0
C806 C 0.7257 0.46047 0.36583 0.0
C807 C 0.73237 0.47589 0.34208 0.0
C808 C 0.74148 0.42098 0.37301 0.0
C809 C 0.76445 0.3955 0.35669 0.0
C810 C 0.77092 0.41078 0.33286 0.0
C811 C 0.75509 0.45037 0.32565 0.0
H812 H 0.83448 0.47488 0.13236 0.0
H813 H 0.86798 0.49393 0.05698 0.0
H814 H 0.905 0.49739 0.14463 0.0
H815 H 0.93902 0.51671 0.06942 0.0
H816 H 0.07523 0.51358 0.10058 0.0
H817 H 1.00521 0.4886 0.08833 0.0
H818 H 0.94795 0.56235 0.14568 0.0
H819 H 1.01794 0.58735 0.15802 0.0
C820 C 0.85687 0.48383 0.11833 0.0
C821 C 0.84528 0.48259 0.09361 0.0
C822 C 0.89737 0.49702 0.12544 0.0
C823 C 0.92777 0.50904 0.10807 0.0
C824 C 0.9165 0.50736 0.0833 0.0
C825 C 0.87568 0.49451 0.07615 0.0
C826 C 0.0478 0.52424 0.11076 0.0
C827 C 0.05245 0.55253 0.13038 0.0
C828 C 1.00755 0.51018 0.10355 0.0
C829 C 0.97082 0.52359 0.1159 0.0
C830 C 0.97553 0.55109 0.13584 0.0
C831 C 1.01574 0.5655 0.14292 0.0
H832 H 0.83879 0.80711 0.55959 0.0
H833 H 0.7611 0.74868 0.61492 0.0
H834 H 0.81464 0.87675 0.57307 0.0
H835 H 0.73723 0.81821 0.62835 0.0
H836 H 0.74308 0.95311 0.66235 0.0
H837 H 0.76653 0.88285 0.64891 0.0
H838 H 0.7491 0.92022 0.57415 0.0
H839 H 0.72581 0.98976 0.58737 0.0
C840 C 0.8163 0.80899 0.57445 0.0
C841 C 0.80192 0.77204 0.58605 0.0
C842 C 0.80244 0.84899 0.58221 0.0
C843 C 0.77418 0.85318 0.60194 0.0
C844 C 0.75943 0.81625 0.61334 0.0
C845 C 0.77288 0.77628 0.60543 0.0
C846 C 0.74426 0.94629 0.64307 0.0
C847 C 0.73244 0.97727 0.62602 0.0
C848 C 0.7575 0.90596 0.63535 0.0
C849 C 0.75983 0.89586 0.6104 0.0
C850 C 0.74819 0.92694 0.59345 0.0
C851 C 0.73452 0.96686 0.60112 0.0
H852 H 0.85339 1.03266 0.90423 0.0
H853 H 0.85912 0.92794 0.85405 0.0
H854 H 0.92297 0.057 0.88968 0.0
H855 H 0.92886 0.95161 0.84005 0.0
H856 H 0.07418 0.98791 0.84354 0.0
H857 H 1.00558 0.96203 0.85848 0.0
H858 H 0.95084 0.08536 0.84691 0.0
H859 H 1.01899 0.111 0.8314 0.0
C860 C 0.86976 1.01449 0.8904 0.0
C861 C 0.8507 0.97836 0.88031 0.0
C862 C 0.90941 1.0286 0.88194 0.0
C863 C 0.93133 1.00629 0.86365 0.0
C864 C 0.91288 0.9694 0.85419 0.0
C865 C 0.87289 0.95591 0.8622 0.0
C866 C 0.04736 1.00933 0.84389 0.0
C867 C 0.05202 0.05139 0.83602 0.0
C868 C 1.00813 0.99455 0.8525 0.0
C869 C 0.97288 1.02175 0.85406 0.0
C870 C 0.97749 0.06375 0.84613 0.0
C871 C 1.01642 0.07827 0.83698 0.0
H872 H 0.85069 0.08726 0.09254 0.0
H873 H 0.83017 0.12317 0.16742 0.0
H874 H 0.82703 0.15646 0.07924 0.0
H875 H 0.80625 0.19322 0.15386 0.0
H876 H 0.80968 0.32775 0.11957 0.0
H877 H 0.83427 0.25881 0.13363 0.0
H878 H 0.76093 0.19818 0.0774 0.0
H879 H 0.7362 0.26712 0.06329 0.0
C880 C 0.84119 0.10992 0.10627 0.0
C881 C 0.84241 0.09934 0.13116 0.0
C882 C 0.82729 0.14969 0.09854 0.0
C883 C 0.81449 0.18049 0.11541 0.0
C884 C 0.81613 0.17032 0.14036 0.0
C885 C 0.82967 0.13011 0.14815 0.0
C886 C 0.79898 0.2998 0.11002 0.0
C887 C 0.77097 0.30324 0.09015 0.0
C888 C 0.81281 0.26017 0.11829 0.0
C889 C 0.79948 0.22283 0.10677 0.0
C890 C 0.77211 0.22626 0.08664 0.0
C891 C 0.7579 0.26587 0.07852 0.0
H892 H 0.7102 0.15562 0.35921 0.0
H893 H 0.7339 1.03168 0.38919 0.0
H894 H 0.64153 0.13137 0.344 0.0
H895 H 0.66539 1.00756 0.37393 0.0
H896 H 0.56249 0.96613 0.32014 0.0
H897 H 0.63108 0.99296 0.33384 0.0
H898 H 0.57067 0.10727 0.35916 0.0
H899 H 0.50202 0.08049 0.34551 0.0
C900 C 0.70071 0.12329 0.36272 0.0
C901 C 0.72774 0.09568 0.37549 0.0
C902 C 0.66126 0.10941 0.35401 0.0
C903 C 0.64801 0.06739 0.35755 0.0
C904 C 0.67481 0.03995 0.37056 0.0
C905 C 0.71398 0.05394 0.37953 0.0
C906 C 0.56384 0.99725 0.3283 0.0
C907 C 0.52658 1.0211 0.33168 0.0
C908 C 0.60317 1.01245 0.3364 0.0
C909 C 0.60642 0.05215 0.34782 0.0
C910 C 0.56942 0.07667 0.35037 0.0
C911 C 0.53001 0.06125 0.34256 0.0
H912 H 0.20966 0.26041 0.38704 0.0
H913 H 0.33207 0.31778 0.37485 0.0
H914 H 0.23692 0.19306 0.37156 0.0
H915 H 0.35952 0.25008 0.35988 0.0
H916 H 0.39714 0.10538 0.36372 0.0
H917 H 0.37198 0.17428 0.37784 0.0
H918 H 0.26553 0.16618 0.32886 0.0
H919 H 0.29133 0.09735 0.31425 0.0
C920 C 0.24261 0.25846 0.38151 0.0
C921 C 0.26883 0.2944 0.3824 0.0
C922 C 0.25803 0.22002 0.37235 0.0
C923 C 0.30026 0.21637 0.36433 0.0
C924 C 0.32685 0.25193 0.36593 0.0
C925 C 0.31118 0.29062 0.37457 0.0
C926 C 0.36865 0.11855 0.35571 0.0
C927 C 0.34628 0.09597 0.33781 0.0
C928 C 0.3543 0.15801 0.3638 0.0
C929 C 0.31664 0.1755 0.35459 0.0
C930 C 0.2945 0.15329 0.33642 0.0
C931 C 0.30945 0.11413 0.32789 0.0
H932 H 1.00152 0.08462 0.12934 0.0
H933 H 0.05548 0.96083 0.14094 0.0
H934 H 0.0701 0.10979 0.11405 0.0
H935 H 0.12367 0.9858 0.12508 0.0
H936 H 0.22065 0.03809 0.06716 0.0
H937 H 0.15129 1.01402 0.08226 0.0
H938 H 0.14698 0.11954 0.13186 0.0
H939 H 0.21645 0.14291 0.1173 0.0
C940 C 1.02809 0.06289 0.12882 0.0
C941 C 1.02307 1.02084 0.13663 0.0
C942 C 0.06732 0.07728 0.12001 0.0
C943 C 0.10222 0.0497 0.11817 0.0
C944 C 0.09729 1.00771 0.12607 0.0
C945 C 0.05835 0.99357 0.13543 0.0
C946 C 0.20467 0.05633 0.0811 0.0
C947 C 0.22408 0.09242 0.09101 0.0
C948 C 0.16515 0.04238 0.08989 0.0
C949 C 0.14373 0.06481 0.10833 0.0
C950 C 0.16256 0.10164 0.11762 0.0
C951 C 0.2024 0.11497 0.10928 0.0
H952 H 0.24465 0.95155 0.80408 0.0
H953 H 0.2261 0.98616 0.87932 0.0
H954 H 0.26878 0.88125 0.81699 0.0
H955 H 0.24999 0.91662 0.89201 0.0
H956 H 0.34072 0.80499 0.90634 0.0
H957 H 0.31597 0.87442 0.893 0.0
H958 H 0.2408 0.81553 0.83695 0.0
H959 H 0.26538 0.74614 0.85023 0.0
C960 C 0.24565 0.94427 0.8233 0.0
C961 C 0.23337 0.97474 0.84058 0.0
C962 C 0.2593 0.90391 0.83072 0.0
C963 C 0.26152 0.89327 0.85559 0.0
C964 C 0.24924 0.92378 0.87276 0.0
C965 C 0.23522 0.96372 0.86539 0.0
C966 C 0.31863 0.80674 0.89131 0.0
C967 C 0.30503 0.76973 0.87949 0.0
C968 C 0.30441 0.84662 0.88364 0.0
C969 C 0.27651 0.85067 0.86378 0.0
C970 C 0.26267 0.81368 0.85208 0.0
C971 C 0.27651 0.7738 0.85991 0.0
H972 H 0.57368 0.98894 0.62663 0.0
H973 H 0.51792 0.11177 0.63896 0.0
H974 H 0.50503 0.96256 0.61219 0.0
H975 H 0.44971 0.08563 0.62392 0.0
H976 H 0.35354 1.03211 0.56615 0.0
H977 H 0.42289 0.05667 0.58076 0.0
H978 H 0.42788 0.95235 0.63114 0.0
H979 H 0.35827 0.92846 0.61707 0.0
C980 C 0.5467 1.01018 0.62646 0.0
C981 C 0.55121 0.05233 0.63418 0.0
C982 C 0.50746 0.99511 0.61814 0.0
C983 C 0.4721 1.02214 0.61673 0.0
C984 C 0.47649 0.06418 0.6246 0.0
C985 C 0.51544 0.07898 0.63348 0.0
C986 C 0.36966 1.01421 0.58015 0.0
C987 C 0.35041 0.97833 0.59044 0.0
C988 C 0.40916 1.02845 0.58865 0.0
C989 C 0.43071 1.00652 0.60718 0.0
C990 C 0.41211 0.96984 0.61683 0.0
C991 C 0.37224 0.95623 0.60878 0.0
H992 H 0.3299 0.21891 -0.01164 0.0
H993 H 0.30215 0.08506 -0.01475 0.0
H994 H 0.33193 0.22147 0.94405 0.0
H995 H 0.30378 0.08793 0.94127 0.0
H996 H 0.32288 0.08441 0.86688 0.0
H997 H 0.35409 0.0995 0.90656 0.0
H998 H 0.27718 0.21226 0.91218 0.0
H999 H 0.24687 0.19753 0.87256 0.0
C1000 C 0.32371 0.19019 0.97827 0.0
C1001 C 0.3158 0.15172 -0.0097 0.0
C1002 C 0.32555 0.19161 0.95296 0.0
C1003 C 0.31951 0.15466 0.93934 0.0
C1004 C 0.31029 0.11659 0.95136 0.0
C1005 C 0.30838 0.11514 0.97656 0.0
C1006 C 0.31469 0.11366 0.876 0.0
C1007 C 0.28178 0.13925 0.86734 0.0
C1008 C 0.33219 0.12212 0.89874 0.0
C1009 C 0.31664 0.15606 0.91268 0.0
C1010 C 0.28937 0.18564 0.90193 0.0
C1011 C 0.27191 0.17717 0.87929 0.0
H1012 H 0.73303 0.57363 0.11823 0.0
H1013 H 0.62019 0.49722 0.12454 0.0
H1014 H 0.71777 0.60531 0.15777 0.0
H1015 H 0.60532 0.52803 0.16405 0.0
H1016 H 0.59947 0.58125 0.24033 0.0
H1017 H 0.59614 0.583 0.196 0.0
H1018 H 0.73023 0.55508 0.1924 0.0
H1019 H 0.73384 0.55361 0.23635 0.0
C1020 C 0.70378 0.56542 0.12745 0.0
C1021 C 0.67843 0.53221 0.11903 0.0
C1022 C 0.6952 0.58322 0.15011 0.0
C1023 C 0.6614 0.56769 0.16423 0.0
C1024 C 0.63188 0.54017 0.15367 0.0
C1025 C 0.64045 0.52243 0.1311 0.0
C1026 C 0.62815 0.57506 0.23005 0.0
C1027 C 0.66698 0.56723 0.24184 0.0
C1028 C 0.62628 0.57675 0.20474 0.0
C1029 C 0.66317 0.5707 0.19089 0.0
C1030 C 0.7016 0.56161 0.20267 0.0
C1031 C 0.70348 0.5598 0.22785 0.0
H1032 H 0.24533 0.85147 0.48903 0.0
H1033 H 0.26933 0.98603 0.4853 0.0
H1034 H 0.24648 0.84783 0.44465 0.0
H1035 H 0.27047 0.98211 0.44139 0.0
H1036 H 0.25457 0.98312 0.36662 0.0
H1037 H 0.22162 0.96712 0.4058 0.0
H1038 H 0.30503 0.85964 0.41416 0.0
H1039 H 0.33732 0.87533 0.37508 0.0
C1040 C 0.25122 0.88013 0.47881 0.0
C1041 C 0.25729 0.91908 0.49067 0.0
C1042 C 0.25119 0.87807 0.45349 0.0
C1043 C 0.25701 0.9149 0.43972 0.0
C1044 C 0.26419 0.9535 0.45159 0.0
C1045 C 0.26448 0.95555 0.47678 0.0
C1046 C 0.26409 0.95481 0.37626 0.0
C1047 C 0.29913 0.93113 0.36854 0.0
C1048 C 0.24547 0.94576 0.39866 0.0
C1049 C 0.26198 0.9131 0.41319 0.0
C1050 C 0.29202 0.88521 0.40339 0.0
C1051 C 0.31066 0.89432 0.38112 0.0
H1052 H 0.94944 0.58143 0.6264 0.0
H1053 H 0.83858 0.50242 0.61932 0.0
H1054 H 0.96351 0.55161 0.66623 0.0
H1055 H 0.85303 0.47176 0.65923 0.0
H1056 H 0.83522 0.51986 0.73833 0.0
H1057 H 0.83913 0.52068 0.69435 0.0
H1058 H 0.97385 0.49595 0.69756 0.0
H1059 H 0.97025 0.49546 0.74188 0.0
C1060 C 0.92944 0.55598 0.63292 0.0
C1061 C 0.89228 0.54496 0.62044 0.0
C1062 C 0.93755 0.5388 0.65567 0.0
C1063 C 0.90839 0.51063 0.66602 0.0
C1064 C 0.8753 0.49432 0.6517 0.0
C1065 C 0.86722 0.51151 0.62885 0.0
C1066 C 0.86579 0.51492 0.72974 0.0
C1067 C 0.90238 0.50761 0.7436 0.0
C1068 C 0.86785 0.51444 0.70454 0.0
C1069 C 0.90656 0.50683 0.69264 0.0
C1070 C 0.94353 0.50109 0.70639 0.0
C1071 C 0.94148 0.50146 0.7317 0.0
H1072 H 0.75392 0.99278 0.10383 0.0
H1073 H 0.8262 0.87711 0.09938 0.0
H1074 H 0.72353 0.97828 0.06385 0.0
H1075 H 0.79669 0.86292 0.05946 0.0
H1076 H 0.77274 0.98793 -0.01542 0.0
H1077 H 0.77298 0.98683 0.0286 0.0
H1078 H 0.74122 0.85403 0.02798 0.0
H1079 H 0.74128 0.85482 0.9836 0.0
C1080 C 0.76144 0.96319 0.09488 0.0
C1081 C 0.79297 0.93648 0.10411 0.0
C1082 C 0.74449 0.95509 0.07195 0.0
C1083 C 0.75909 0.92033 0.05833 0.0
C1084 C 0.78518 0.89012 0.06946 0.0
C1085 C 0.80211 0.89825 0.09229 0.0
C1086 C 0.76608 0.95837 -0.00625 0.0
C1087 C 0.75706 0.92149 0.98058 0.0
C1088 C 0.76532 0.95795 0.01899 0.0
C1089 C 0.75567 0.92064 0.03164 0.0
C1090 C 0.74804 0.88334 0.01859 0.0
C1091 C 0.7487 0.88374 -0.00677 0.0
H1092 H 0.45171 0.57217 0.84427 0.0
H1093 H 0.33687 0.4989 0.85109 0.0
H1094 H 0.46525 0.5409 0.80476 0.0
H1095 H 0.35081 0.46665 0.81154 0.0
H1096 H 0.46995 0.48832 0.72881 0.0
H1097 H 0.47309 0.48639 0.77308 0.0
H1098 H 0.33923 0.51549 0.77656 0.0
H1099 H 0.33576 0.51688 0.73258 0.0
C1100 C 0.43068 0.54751 0.83782 0.0
C1101 C 0.3926 0.53879 0.85004 0.0
C1102 C 0.43847 0.52949 0.81523 0.0
C1103 C 0.4081 0.50274 0.80481 0.0
C1104 C 0.37402 0.4882 0.81907 0.0
C1105 C 0.36622 0.50629 0.84174 0.0
C1106 C 0.44127 0.49469 0.73904 0.0
C1107 C 0.40256 0.50289 0.7272 0.0
C1108 C 0.44303 0.49292 0.76433 0.0
C1109 C 0.40618 0.49939 0.77816 0.0
C1110 C 0.36783 0.5087 0.76632 0.0
C1111 C 0.36604 0.51047 0.74113 0.0
H1112 H 0.81222 0.08056 0.59456 0.0
H1113 H 0.74813 0.20116 0.59545 0.0
H1114 H 0.83776 0.09506 0.55343 0.0
H1115 H 0.77367 0.21577 0.55445 0.0
H1116 H 0.84004 0.22186 0.47821 0.0
H1117 H 0.83514 0.22076 0.52259 0.0
H1118 H 0.77935 0.09631 0.51941 0.0
H1119 H 0.78409 0.09717 0.47526 0.0
C1120 C 0.80579 0.11115 0.5865 0.0
C1121 C 0.77795 0.13961 0.59772 0.0
C1122 C 0.81984 0.1192 0.56294 0.0
C1123 C 0.80644 0.15591 0.55078 0.0
C1124 C 0.78409 0.18717 0.56349 0.0
C1125 C 0.7697 0.17893 0.58691 0.0
C1126 C 0.82597 0.19464 0.48703 0.0
C1127 C 0.81265 0.15948 0.47337 0.0
C1128 C 0.82368 0.1939 0.51231 0.0
C1129 C 0.80845 0.15784 0.52418 0.0
C1130 C 0.79263 0.12387 0.51052 0.0
C1131 C 0.79446 0.12475 0.48528 0.0
H1132 H 0.12112 0.48015 0.33856 0.0
H1133 H 0.22695 0.56449 0.34972 0.0
H1134 H 0.10721 0.5127 0.29942 0.0
H1135 H 0.21259 0.59779 0.31053 0.0
H1136 H 0.23687 0.55528 0.23066 0.0
H1137 H 0.2309 0.55201 0.2745 0.0
H1138 H 0.09538 0.57074 0.26949 0.0
H1139 H 0.10106 0.57371 0.22527 0.0
C1140 C 0.14005 0.50712 0.33307 0.0
C1141 C 0.17595 0.51903 0.34645 0.0
C1142 C 0.13194 0.52592 0.31076 0.0
C1143 C 0.15985 0.5566 0.30174 0.0
C1144 C 0.19133 0.57338 0.31703 0.0
C1145 C 0.1994 0.55457 0.33945 0.0
C1146 C 0.20571 0.55845 0.23881 0.0
C1147 C 0.16947 0.56467 0.22448 0.0
C1148 C 0.20242 0.55754 0.26395 0.0
C1149 C 0.16283 0.56262 0.27532 0.0
C1150 C 0.12632 0.56755 0.26108 0.0
C1151 C 0.1296 0.56861 0.23582 0.0
H1152 H 0.82106 0.59005 0.36742 0.0
H1153 H 0.73771 0.69726 0.37658 0.0
H1154 H 0.85431 0.60597 0.40644 0.0
H1155 H 0.77018 0.71277 0.41554 0.0
H1156 H 0.8076 0.58529 0.48602 0.0
H1157 H 0.80686 0.58976 0.4421 0.0
H1158 H 0.8273 0.72461 0.44606 0.0
H1159 H 0.82776 0.72041 0.49037 0.0
C1160 C 0.81145 0.61823 0.37717 0.0
C1161 C 0.7761 0.64168 0.36973 0.0
C1162 C 0.83023 0.62722 0.39949 0.0
C1163 C 0.81353 0.65954 0.41424 0.0
C1164 C 0.78331 0.68739 0.40464 0.0
C1165 C 0.76455 0.67838 0.38242 0.0
C1166 C 0.81172 0.61598 0.47762 0.0
C1167 C 0.81761 0.65247 0.49169 0.0
C1168 C 0.81228 0.6184 0.45244 0.0
C1169 C 0.81853 0.65736 0.44076 0.0
C1170 C 0.82324 0.69412 0.45472 0.0
C1171 C 0.82283 0.69172 0.48002 0.0
H1172 H 0.23538 0.07245 0.6174 0.0
H1173 H 0.12682 0.99022 0.6243 0.0
H1174 H 0.21725 0.10542 0.65623 0.0
H1175 H 0.10901 1.02261 0.66305 0.0
H1176 H 0.23476 0.05224 0.73487 0.0
H1177 H 0.2311 0.05288 0.691 0.0
H1178 H 0.09722 0.0816 0.69434 0.0
H1179 H 0.10066 0.08138 0.7388 0.0
C1180 C 0.20643 0.0631 0.62658 0.0
C1181 C 0.18324 1.02805 0.61863 0.0
C1182 C 0.1961 0.0818 0.64875 0.0
C1183 C 0.16271 0.0653 0.66283 0.0
C1184 C 0.13514 0.03554 0.65262 0.0
C1185 C 0.14552 1.01681 0.63057 0.0
C1186 C 0.2044 0.05856 0.72639 0.0
C1187 C 0.16804 0.06684 0.74034 0.0
C1188 C 0.20254 0.05985 0.70124 0.0
C1189 C 0.16421 0.06903 0.68942 0.0
C1190 C 0.12731 0.07555 0.70318 0.0
C1191 C 0.12922 0.07466 0.72853 0.0
H1192 H 0.83235 0.36906 0.87697 0.0
H1193 H 0.7497 0.47708 0.86903 0.0
H1194 H 0.80165 0.35425 0.91657 0.0
H1195 H 0.71826 0.46182 0.90866 0.0
H1196 H 0.76921 0.4836 -0.013 0.0
H1197 H 0.76913 0.47789 0.94313 0.0
H1198 H 0.74499 0.34383 0.94842 0.0
H1199 H 0.74506 0.34929 -0.00726 0.0
C1200 C 0.80595 0.38823 0.88321 0.0
C1201 C 0.79426 0.42502 0.87065 0.0
C1202 C 0.78824 0.37963 0.90582 0.0
C1203 C 0.75887 0.40793 0.91589 0.0
C1204 C 0.74173 0.44023 0.90133 0.0
C1205 C 0.75946 0.44882 0.87865 0.0
C1206 C 0.76412 0.45279 0.97892 0.0
C1207 C 0.75709 0.41695 -0.00663 0.0
C1208 C 0.76314 0.44969 0.95377 0.0
C1209 C 0.75539 0.41067 0.94249 0.0
C1210 C 0.75007 0.37439 0.95679 0.0
C1211 C 0.75081 0.3775 0.98209 0.0
H1212 H 0.47557 0.99171 0.23769 0.0
H1213 H 0.3394 1.00836 0.2335 0.0
H1214 H 0.47974 0.9932 0.19331 0.0
H1215 H 0.34383 1.00982 0.18965 0.0
H1216 H 0.34367 0.9986 0.11525 0.0
H1217 H 0.36219 0.96369 0.1534 0.0
H1218 H 0.46495 0.05217 0.16371 0.0
H1219 H 0.44688 0.08641 0.12562 0.0
C1220 C 0.44664 0.99594 0.22737 0.0
C1221 C 0.40714 1.0001 0.2391 0.0
C1222 C 0.44905 0.99609 0.20205 0.0
C1223 C 0.41199 1.00013 0.18817 0.0
C1224 C 0.37273 1.00497 0.19992 0.0
C1225 C 0.37033 1.00512 0.22508 0.0
C1226 C 0.37154 1.00902 0.12507 0.0
C1227 C 0.39295 0.04594 0.1183 0.0
C1228 C 0.38209 0.98918 0.14685 0.0
C1229 C 0.41391 1.0064 0.16174 0.0
C1230 C 0.43999 0.03859 0.15267 0.0
C1231 C 0.42941 0.05842 0.13101 0.0
H1232 H 0.33572 0.37637 0.59112 0.0
H1233 H 0.25122 0.48289 0.5994 0.0
H1234 H 0.30316 0.3593 0.55234 0.0
H1235 H 0.21807 0.46553 0.5605 0.0
H1236 H 0.23955 0.34692 0.47852 0.0
H1237 H 0.24308 0.34513 0.52293 0.0
H1238 H 0.26545 0.47978 0.52396 0.0
H1239 H 0.26212 0.48185 0.48006 0.0
C1240 C 0.30872 0.39484 0.5851 0.0
C1241 C 0.2966 0.43159 0.59759 0.0
C1242 C 0.28993 0.38492 0.563 0.0
C1243 C 0.25914 0.41195 0.55324 0.0
C1244 C 0.24243 0.44478 0.56762 0.0
C1245 C 0.26116 0.4546 0.58985 0.0
C1246 C 0.24559 0.37605 0.48826 0.0
C1247 C 0.25061 0.41455 0.47578 0.0
C1248 C 0.24695 0.37503 0.51361 0.0
C1249 C 0.25302 0.41251 0.52677 0.0
C1250 C 0.25905 0.45067 0.51426 0.0
C1251 C 0.25803 0.45168 0.48906 0.0
H1252 H 0.9496 0.06726 0.35405 0.0
H1253 H 0.83652 0.99081 0.35373 0.0
H1254 H 0.96664 0.04339 0.31305 0.0
H1255 H 0.85403 0.96576 0.313 0.0
H1256 H 0.84087 1.02571 0.23739 0.0
H1257 H 0.84421 1.0242 0.28137 0.0
H1258 H 0.97657 0.98926 0.27813 0.0
H1259 H 0.97351 0.99064 0.23368 0.0
C1260 C 0.93019 0.04285 0.34586 0.0
C1261 C 0.89167 1.03095 0.35664 0.0
C1262 C 0.93975 1.02945 0.32234 0.0
C1263 C 0.91076 1.00401 0.30974 0.0
C1264 C 0.8763 0.98618 0.32231 0.0
C1265 C 0.86656 0.99993 0.34569 0.0
C1266 C 0.87087 1.0181 0.24593 0.0
C1267 C 0.90675 1.00787 0.23201 0.0
C1268 C 0.87258 1.01648 0.27112 0.0
C1269 C 0.91023 1.00484 0.28299 0.0
C1270 C 0.94698 0.99732 0.26928 0.0
C1271 C 0.94524 0.99867 0.24391 0.0
H1272 H 0.32456 0.59365 0.09955 0.0
H1273 H 0.2437 0.70313 0.09231 0.0
H1274 H 0.35669 0.60953 0.06019 0.0
H1275 H 0.27517 0.71863 0.05297 0.0
H1276 H 0.30364 0.59004 0.98197 0.0
H1277 H 0.30412 0.59519 0.02583 0.0
H1278 H 0.33297 0.72837 0.02108 0.0
H1279 H 0.33268 0.72344 0.9767 0.0
C1280 C 0.31539 0.62235 0.09018 0.0
C1281 C 0.28084 0.64642 0.09824 0.0
C1282 C 0.33355 0.63133 0.06766 0.0
C1283 C 0.31705 0.66427 0.05333 0.0
C1284 C 0.28804 0.69277 0.06356 0.0
C1285 C 0.26989 0.68377 0.086 0.0
C1286 C 0.30988 0.62055 -0.00985 0.0
C1287 C 0.31823 0.65627 0.97583 0.0
C1288 C 0.31108 0.62329 0.0153 0.0
C1289 C 0.3203 0.66185 0.02673 0.0
C1290 C 0.32682 0.69812 0.01257 0.0
C1291 C 0.32594 0.69534 -0.01274 0.0
H1292 H 0.73739 0.06824 0.85161 0.0
H1293 H 0.62865 0.98648 0.84396 0.0
H1294 H 0.72169 0.09983 0.81208 0.0
H1295 H 0.61327 1.01744 0.80452 0.0
H1296 H 0.6036 0.07855 0.72987 0.0
H1297 H 0.60091 0.0759 0.77426 0.0
H1298 H 0.73575 0.05156 0.77618 0.0
H1299 H 0.73873 0.05418 0.73224 0.0
C1300 C 0.70897 0.05864 0.84204 0.0
C1301 C 0.68484 1.02432 0.85019 0.0
C1302 C 0.70014 0.07642 0.81943 0.0
C1303 C 0.66717 0.05992 0.80508 0.0
C1304 C 0.63904 1.03046 0.81515 0.0
C1305 C 0.64796 1.01262 0.83764 0.0
C1306 C 0.63258 0.07222 0.73979 0.0
C1307 C 0.67143 0.06658 0.72755 0.0
C1308 C 0.63106 0.07134 0.76513 0.0
C1309 C 0.66834 0.06504 0.77853 0.0
C1310 C 0.7068 0.05816 0.76627 0.0
C1311 C 0.70832 0.05877 0.74107 0.0
loop_
_geom_bond_atom_site_label_1
_geom_bond_atom_site_label_2
_geom_bond_distance
_geom_bond_site_symmetry_2
_ccdc_geom_bond_type
Fe0 O2 1.918 . S
Fe0 O5 1.997 . S
Fe0 O6 2.002 . S
Fe0 O11 1.976 . S
Fe0 O14 1.996 . S
Fe1 O2 1.918 . S
Fe1 O9 1.997 . S
Fe1 O12 1.996 . S
Fe1 O16 1.976 . S
Fe1 O19 2.002 . S
O2 Fe0 1.918 . S
O2 Fe1 1.918 . S
O2 Fe3 1.918 . S
Fe3 O2 1.918 . S
Fe3 O4 2.002 . S
Fe3 O13 1.976 . S
Fe3 O17 1.996 . S
Fe3 O20 1.997 . S
O4 Fe3 2.002 . S
O4 C21 1.295 . S
O5 Fe0 1.997 . S
O5 C21 1.235 . S
O6 Fe0 2.002 . S
O6 C7 1.295 . S
C7 O6 1.295 . S
C7 O9 1.235 . S
C8 O13 1.287 . S
C8 O14 1.255 . S
O9 Fe1 1.997 . S
O9 C7 1.235 . S
C10 O16 1.287 . S
C10 O17 1.255 . S
O11 Fe0 1.976 . S
O11 C18 1.287 . S
O12 Fe1 1.996 . S
O12 C18 1.255 . S
O13 Fe3 1.976 . S
O13 C8 1.287 . S
O14 Fe0 1.996 . S
O14 C8 1.255 . S
C15 O19 1.295 . S
C15 O20 1.235 . S
O16 Fe1 1.976 . S
O16 C10 1.287 . S
O17 Fe3 1.996 . S
O17 C10 1.255 . S
C18 O11 1.287 . S
C18 O12 1.255 . S
O19 Fe1 2.002 . S
O19 C15 1.295 . S
O20 Fe3 1.997 . S
O20 C15 1.235 . S
C21 O4 1.295 . S
C21 O5 1.235 . S
Fe22 O24 1.918 . S
Fe22 O27 1.997 . S
Fe22 O28 2.002 . S
Fe22 O33 1.976 . S
Fe22 O36 1.996 . S
Fe23 O24 1.918 . S
Fe23 O31 1.997 . S
Fe23 O34 1.996 . S
Fe23 O38 1.976 . S
Fe23 O41 2.002 . S
O24 Fe22 1.918 . S
O24 Fe23 1.918 . S
O24 Fe25 1.918 . S
Fe25 O24 1.918 . S
Fe25 O26 2.002 . S
Fe25 O35 1.976 . S
Fe25 O39 1.996 . S
Fe25 O42 1.997 . S
O26 Fe25 2.002 . S
O26 C43 1.295 . S
O27 Fe22 1.997 . S
O27 C43 1.235 . S
O28 Fe22 2.002 . S
O28 C29 1.295 . S
C29 O28 1.295 . S
C29 O31 1.235 . S
C30 O35 1.287 . S
C30 O36 1.255 . S
O31 Fe23 1.997 . S
O31 C29 1.235 . S
C32 O38 1.287 . S
C32 O39 1.255 . S
O33 Fe22 1.976 . S
O33 C40 1.287 . S
O34 Fe23 1.996 . S
O34 C40 1.255 . S
O35 Fe25 1.976 . S
O35 C30 1.287 . S
O36 Fe22 1.996 . S
O36 C30 1.255 . S
C37 O41 1.295 . S
C37 O42 1.235 . S
O38 Fe23 1.976 . S
O38 C32 1.287 . S
O39 Fe25 1.996 . S
O39 C32 1.255 . S
C40 O33 1.287 . S
C40 O34 1.255 . S
O41 Fe23 2.002 . S
O41 C37 1.295 . S
O42 Fe25 1.997 . S
O42 C37 1.235 . S
C43 O26 1.295 . S
C43 O27 1.235 . S
Fe44 O46 1.918 . S
Fe44 O49 1.997 . S
Fe44 O50 2.002 . S
Fe44 O55 1.976 . S
Fe44 O58 1.996 . S
Fe45 O46 1.918 . S
Fe45 O53 1.997 . S
Fe45 O56 1.996 . S
Fe45 O60 1.976 . S
Fe45 O63 2.002 . S
O46 Fe44 1.918 . S
O46 Fe45 1.918 . S
O46 Fe47 1.918 . S
Fe47 O46 1.918 . S
Fe47 O48 2.002 . S
Fe47 O57 1.976 . S
Fe47 O61 1.996 . S
Fe47 O64 1.997 . S
O48 Fe47 2.002 . S
O48 C65 1.295 . S
O49 Fe44 1.997 . S
O49 C65 1.235 . S
O50 Fe44 2.002 . S
O50 C51 1.295 . S
C51 O50 1.295 . S
C51 O53 1.235 . S
C52 O57 1.287 . S
C52 O58 1.255 . S
O53 Fe45 1.997 . S
O53 C51 1.235 . S
C54 O60 1.287 . S
C54 O61 1.255 . S
O55 Fe44 1.976 . S
O55 C62 1.287 . S
O56 Fe45 1.996 . S
O56 C62 1.255 . S
O57 Fe47 1.976 . S
O57 C52 1.287 . S
O58 Fe44 1.996 . S
O58 C52 1.255 . S
C59 O63 1.295 . S
C59 O64 1.235 . S
O60 Fe45 1.976 . S
O60 C54 1.287 . S
O61 Fe47 1.996 . S
O61 C54 1.255 . S
C62 O55 1.287 . S
C62 O56 1.255 . S
O63 Fe45 2.002 . S
O63 C59 1.295 . S
O64 Fe47 1.997 . S
O64 C59 1.235 . S
C65 O48 1.295 . S
C65 O49 1.235 . S
Fe66 O68 1.918 . S
Fe66 O71 1.997 . S
Fe66 O72 2.002 . S
Fe66 O77 1.976 . S
Fe66 O80 1.996 . S
Fe67 O68 1.918 . S
Fe67 O75 1.997 . S
Fe67 O78 1.996 . S
Fe67 O82 1.976 . S
Fe67 O85 2.002 . S
O68 Fe66 1.918 . S
O68 Fe67 1.918 . S
O68 Fe69 1.918 . S
Fe69 O68 1.918 . S
Fe69 O70 2.002 . S
Fe69 O79 1.976 . S
Fe69 O83 1.996 . S
Fe69 O86 1.997 . S
O70 Fe69 2.002 . S
O70 C87 1.295 . S
O71 Fe66 1.997 . S
O71 C87 1.235 . S
O72 Fe66 2.002 . S
O72 C73 1.295 . S
C73 O72 1.295 . S
C73 O75 1.235 . S
C74 O79 1.287 . S
C74 O80 1.255 . S
O75 Fe67 1.997 . S
O75 C73 1.235 . S
C76 O82 1.287 . S
C76 O83 1.255 . S
O77 Fe66 1.976 . S
O77 C84 1.287 . S
O78 Fe67 1.996 . S
O78 C84 1.255 . S
O79 Fe69 1.976 . S
O79 C74 1.287 . S
O80 Fe66 1.996 . S
O80 C74 1.255 . S
C81 O85 1.295 . S
C81 O86 1.235 . S
O82 Fe67 1.976 . S
O82 C76 1.287 . S
O83 Fe69 1.996 . S
O83 C76 1.255 . S
C84 O77 1.287 . S
C84 O78 1.255 . S
O85 Fe67 2.002 . S
O85 C81 1.295 . S
O86 Fe69 1.997 . S
O86 C81 1.235 . S
C87 O70 1.295 . S
C87 O71 1.235 . S
Fe88 O90 1.918 . S
Fe88 O93 1.997 . S
Fe88 O94 2.002 . S
Fe88 O99 1.976 . S
Fe88 O102 1.996 . S
Fe89 O90 1.918 . S
Fe89 O97 1.997 . S
Fe89 O100 1.996 . S
Fe89 O104 1.976 . S
Fe89 O107 2.002 . S
O90 Fe88 1.918 . S
O90 Fe89 1.918 . S
O90 Fe91 1.918 . S
Fe91 O90 1.918 . S
Fe91 O92 2.002 . S
Fe91 O101 1.976 . S
Fe91 O105 1.996 . S
Fe91 O108 1.997 . S
O92 Fe91 2.002 . S
O92 C109 1.295 . S
O93 Fe88 1.997 . S
O93 C109 1.235 . S
O94 Fe88 2.002 . S
O94 C95 1.295 . S
C95 O94 1.295 . S
C95 O97 1.235 . S
C96 O101 1.287 . S
C96 O102 1.255 . S
O97 Fe89 1.997 . S
O97 C95 1.235 . S
C98 O104 1.287 . S
C98 O105 1.255 . S
O99 Fe88 1.976 . S
O99 C106 1.287 . S
O100 Fe89 1.996 . S
O100 C106 1.255 . S
O101 Fe91 1.976 . S
O101 C96 1.287 . S
O102 Fe88 1.996 . S
O102 C96 1.255 . S
C103 O107 1.295 . S
C103 O108 1.235 . S
O104 Fe89 1.976 . S
O104 C98 1.287 . S
O105 Fe91 1.996 . S
O105 C98 1.255 . S
C106 O99 1.287 . S
C106 O100 1.255 . S
O107 Fe89 2.002 . S
O107 C103 1.295 . S
O108 Fe91 1.997 . S
O108 C103 1.235 . S
C109 O92 1.295 . S
C109 O93 1.235 . S
Fe110 O112 1.918 . S
Fe110 O115 1.997 . S
Fe110 O116 2.002 . S
Fe110 O121 1.976 . S
Fe110 O124 1.996 . S
Fe111 O112 1.918 . S
Fe111 O119 1.997 . S
Fe111 O122 1.996 . S
Fe111 O126 1.976 . S
Fe111 O129 2.002 . S
O112 Fe110 1.918 . S
O112 Fe111 1.918 . S
O112 Fe113 1.918 . S
Fe113 O112 1.918 . S
Fe113 O114 2.002 . S
Fe113 O123 1.976 . S
Fe113 O127 1.996 . S
Fe113 O130 1.997 . S
O114 Fe113 2.002 . S
O114 C131 1.295 . S
O115 Fe110 1.997 . S
O115 C131 1.235 . S
O116 Fe110 2.002 . S
O116 C117 1.295 . S
C117 O116 1.295 . S
C117 O119 1.235 . S
C118 O123 1.287 . S
C118 O124 1.255 . S
O119 Fe111 1.997 . S
O119 C117 1.235 . S
C120 O126 1.287 . S
C120 O127 1.255 . S
O121 Fe110 1.976 . S
O121 C128 1.287 . S
O122 Fe111 1.996 . S
O122 C128 1.255 . S
O123 Fe113 1.976 . S
O123 C118 1.287 . S
O124 Fe110 1.996 . S
O124 C118 1.255 . S
C125 O129 1.295 . S
C125 O130 1.235 . S
O126 Fe111 1.976 . S
O126 C120 1.287 . S
O127 Fe113 1.996 . S
O127 C120 1.255 . S
C128 O121 1.287 . S
C128 O122 1.255 . S
O129 Fe111 2.002 . S
O129 C125 1.295 . S
O130 Fe113 1.997 . S
O130 C125 1.235 . S
C131 O114 1.295 . S
C131 O115 1.235 . S
Fe132 O134 1.918 . S
Fe132 O137 1.997 . S
Fe132 O138 2.002 . S
Fe132 O143 1.976 . S
Fe132 O146 1.996 . S
Fe133 O134 1.918 . S
Fe133 O141 1.997 . S
Fe133 O144 1.996 . S
Fe133 O148 1.976 . S
Fe133 O151 2.002 . S
O134 Fe132 1.918 . S
O134 Fe133 1.918 . S
O134 Fe135 1.918 . S
Fe135 O134 1.918 . S
Fe135 O136 2.002 . S
Fe135 O145 1.976 . S
Fe135 O149 1.996 . S
Fe135 O152 1.997 . S
O136 Fe135 2.002 . S
O136 C153 1.295 . S
O137 Fe132 1.997 . S
O137 C153 1.235 . S
O138 Fe132 2.002 . S
O138 C139 1.295 . S
C139 O138 1.295 . S
C139 O141 1.235 . S
C140 O145 1.287 . S
C140 O146 1.255 . S
O141 Fe133 1.997 . S
O141 C139 1.235 . S
C142 O148 1.287 . S
C142 O149 1.255 . S
O143 Fe132 1.976 . S
O143 C150 1.287 . S
O144 Fe133 1.996 . S
O144 C150 1.255 . S
O145 Fe135 1.976 . S
O145 C140 1.287 . S
O146 Fe132 1.996 . S
O146 C140 1.255 . S
C147 O151 1.295 . S
C147 O152 1.235 . S
O148 Fe133 1.976 . S
O148 C142 1.287 . S
O149 Fe135 1.996 . S
O149 C142 1.255 . S
C150 O143 1.287 . S
C150 O144 1.255 . S
O151 Fe133 2.002 . S
O151 C147 1.295 . S
O152 Fe135 1.997 . S
O152 C147 1.235 . S
C153 O136 1.295 . S
C153 O137 1.235 . S
Fe154 O156 1.918 . S
Fe154 O159 1.997 . S
Fe154 O160 2.002 . S
Fe154 O165 1.976 . S
Fe154 O168 1.996 . S
Fe155 O156 1.918 . S
Fe155 O163 1.997 . S
Fe155 O166 1.996 . S
Fe155 O170 1.976 . S
Fe155 O173 2.002 . S
O156 Fe154 1.918 . S
O156 Fe155 1.918 . S
O156 Fe157 1.918 . S
Fe157 O156 1.918 . S
Fe157 O158 2.002 . S
Fe157 O167 1.976 . S
Fe157 O171 1.996 . S
Fe157 O174 1.997 . S
O158 Fe157 2.002 . S
O158 C175 1.295 . S
O159 Fe154 1.997 . S
O159 C175 1.235 . S
O160 Fe154 2.002 . S
O160 C161 1.295 . S
C161 O160 1.295 . S
C161 O163 1.235 . S
C162 O167 1.287 . S
C162 O168 1.255 . S
O163 Fe155 1.997 . S
O163 C161 1.235 . S
C164 O170 1.287 . S
C164 O171 1.255 . S
O165 Fe154 1.976 . S
O165 C172 1.287 . S
O166 Fe155 1.996 . S
O166 C172 1.255 . S
O167 Fe157 1.976 . S
O167 C162 1.287 . S
O168 Fe154 1.996 . S
O168 C162 1.255 . S
C169 O173 1.295 . S
C169 O174 1.235 . S
O170 Fe155 1.976 . S
O170 C164 1.287 . S
O171 Fe157 1.996 . S
O171 C164 1.255 . S
C172 O165 1.287 . S
C172 O166 1.255 . S
O173 Fe155 2.002 . S
O173 C169 1.295 . S
O174 Fe157 1.997 . S
O174 C169 1.235 . S
C175 O158 1.295 . S
C175 O159 1.235 . S
Fe176 O178 1.918 . S
Fe176 O181 1.997 . S
Fe176 O182 2.002 . S
Fe176 O187 1.976 . S
Fe176 O190 1.996 . S
Fe177 O178 1.918 . S
Fe177 O185 1.997 . S
Fe177 O188 1.996 . S
Fe177 O192 1.976 . S
Fe177 O195 2.002 . S
O178 Fe176 1.918 . S
O178 Fe177 1.918 . S
O178 Fe179 1.918 . S
Fe179 O178 1.918 . S
Fe179 O180 2.002 . S
Fe179 O189 1.976 . S
Fe179 O193 1.996 . S
Fe179 O196 1.997 . S
O180 Fe179 2.002 . S
O180 C197 1.295 . S
O181 Fe176 1.997 . S
O181 C197 1.235 . S
O182 Fe176 2.002 . S
O182 C183 1.295 . S
C183 O182 1.295 . S
C183 O185 1.235 . S
C184 O189 1.287 . S
C184 O190 1.255 . S
O185 Fe177 1.997 . S
O185 C183 1.235 . S
C186 O192 1.287 . S
C186 O193 1.255 . S
O187 Fe176 1.976 . S
O187 C194 1.287 . S
O188 Fe177 1.996 . S
O188 C194 1.255 . S
O189 Fe179 1.976 . S
O189 C184 1.287 . S
O190 Fe176 1.996 . S
O190 C184 1.255 . S
C191 O195 1.295 . S
C191 O196 1.235 . S
O192 Fe177 1.976 . S
O192 C186 1.287 . S
O193 Fe179 1.996 . S
O193 C186 1.255 . S
C194 O187 1.287 . S
C194 O188 1.255 . S
O195 Fe177 2.002 . S
O195 C191 1.295 . S
O196 Fe179 1.997 . S
O196 C191 1.235 . S
C197 O180 1.295 . S
C197 O181 1.235 . S
Fe198 O200 1.918 . S
Fe198 O203 1.997 . S
Fe198 O204 2.002 . S
Fe198 O209 1.976 . S
Fe198 O212 1.996 . S
Fe199 O200 1.918 . S
Fe199 O207 1.997 . S
Fe199 O210 1.996 . S
Fe199 O214 1.976 . S
Fe199 O217 2.002 . S
O200 Fe198 1.918 . S
O200 Fe199 1.918 . S
O200 Fe201 1.918 . S
Fe201 O200 1.918 . S
Fe201 O202 2.002 . S
Fe201 O211 1.976 . S
Fe201 O215 1.996 . S
Fe201 O218 1.997 . S
O202 Fe201 2.002 . S
O202 C219 1.295 1_545 S
O203 Fe198 1.997 . S
O203 C219 1.235 1_545 S
O204 Fe198 2.002 . S
O204 C205 1.295 . S
C205 O204 1.295 . S
C205 O207 1.235 . S
C206 O211 1.287 . S
C206 O212 1.255 . S
O207 Fe199 1.997 . S
O207 C205 1.235 . S
C208 O214 1.287 . S
C208 O215 1.255 . S
O209 Fe198 1.976 . S
O209 C216 1.287 . S
O210 Fe199 1.996 . S
O210 C216 1.255 . S
O211 Fe201 1.976 . S
O211 C206 1.287 . S
O212 Fe198 1.996 . S
O212 C206 1.255 . S
C213 O217 1.295 . S
C213 O218 1.235 . S
O214 Fe199 1.976 . S
O214 C208 1.287 . S
O215 Fe201 1.996 . S
O215 C208 1.255 . S
C216 O209 1.287 . S
C216 O210 1.255 . S
O217 Fe199 2.002 . S
O217 C213 1.295 . S
O218 Fe201 1.997 . S
O218 C213 1.235 . S
C219 O202 1.295 1_565 S
C219 O203 1.235 1_565 S
Fe220 O222 1.918 . S
Fe220 O225 1.997 . S
Fe220 O226 2.002 . S
Fe220 O231 1.976 . S
Fe220 O234 1.996 . S
Fe221 O222 1.918 . S
Fe221 O229 1.997 . S
Fe221 O232 1.996 . S
Fe221 O236 1.976 . S
Fe221 O239 2.002 . S
O222 Fe220 1.918 . S
O222 Fe221 1.918 . S
O222 Fe223 1.918 . S
Fe223 O222 1.918 . S
Fe223 O224 2.002 . S
Fe223 O233 1.976 . S
Fe223 O237 1.996 . S
Fe223 O240 1.997 . S
O224 Fe223 2.002 . S
O224 C241 1.295 . S
O225 Fe220 1.997 . S
O225 C241 1.235 . S
O226 Fe220 2.002 . S
O226 C227 1.295 . S
C227 O226 1.295 . S
C227 O229 1.235 . S
C228 O233 1.287 . S
C228 O234 1.255 . S
O229 Fe221 1.997 . S
O229 C227 1.235 . S
C230 O236 1.287 . S
C230 O237 1.255 . S
O231 Fe220 1.976 . S
O231 C238 1.287 . S
O232 Fe221 1.996 . S
O232 C238 1.255 . S
O233 Fe223 1.976 . S
O233 C228 1.287 . S
O234 Fe220 1.996 . S
O234 C228 1.255 . S
C235 O239 1.295 . S
C235 O240 1.235 . S
O236 Fe221 1.976 . S
O236 C230 1.287 . S
O237 Fe223 1.996 . S
O237 C230 1.255 . S
C238 O231 1.287 . S
C238 O232 1.255 . S
O239 Fe221 2.002 . S
O239 C235 1.295 . S
O240 Fe223 1.997 . S
O240 C235 1.235 . S
C241 O224 1.295 . S
C241 O225 1.235 . S
Fe242 O244 1.918 . S
Fe242 O247 1.997 . S
Fe242 O248 2.002 . S
Fe242 O253 1.976 . S
Fe242 O256 1.996 . S
Fe243 O244 1.918 . S
Fe243 O251 1.997 . S
Fe243 O254 1.996 . S
Fe243 O258 1.976 . S
Fe243 O261 2.002 . S
O244 Fe242 1.918 . S
O244 Fe243 1.918 . S
O244 Fe245 1.918 . S
Fe245 O244 1.918 . S
Fe245 O246 2.002 . S
Fe245 O255 1.976 . S
Fe245 O259 1.996 . S
Fe245 O262 1.997 . S
O246 Fe245 2.002 . S
O246 C263 1.295 . S
O247 Fe242 1.997 . S
O247 C263 1.235 . S
O248 Fe242 2.002 . S
O248 C249 1.295 . S
C249 O248 1.295 . S
C249 O251 1.235 . S
C250 O255 1.287 . S
C250 O256 1.255 . S
O251 Fe243 1.997 . S
O251 C249 1.235 . S
C252 O258 1.287 . S
C252 O259 1.255 . S
O253 Fe242 1.976 . S
O253 C260 1.287 1_565 S
O254 Fe243 1.996 . S
O254 C260 1.255 1_565 S
O255 Fe245 1.976 . S
O255 C250 1.287 . S
O256 Fe242 1.996 . S
O256 C250 1.255 . S
C257 O261 1.295 . S
C257 O262 1.235 . S
O258 Fe243 1.976 . S
O258 C252 1.287 . S
O259 Fe245 1.996 . S
O259 C252 1.255 . S
C260 O253 1.287 1_545 S
C260 O254 1.255 1_545 S
O261 Fe243 2.002 . S
O261 C257 1.295 . S
O262 Fe245 1.997 . S
O262 C257 1.235 . S
C263 O246 1.295 . S
C263 O247 1.235 . S
Fe264 O266 1.918 . S
Fe264 O269 1.997 . S
Fe264 O270 2.002 . S
Fe264 O275 1.976 . S
Fe264 O278 1.996 . S
Fe265 O266 1.918 . S
Fe265 O273 1.997 . S
Fe265 O276 1.996 . S
Fe265 O280 1.976 . S
Fe265 O283 2.002 . S
O266 Fe264 1.918 . S
O266 Fe265 1.918 . S
O266 Fe267 1.918 . S
Fe267 O266 1.918 . S
Fe267 O268 2.002 . S
Fe267 O277 1.976 . S
Fe267 O281 1.996 . S
Fe267 O284 1.997 . S
O268 Fe267 2.002 . S
O268 C285 1.295 . S
O269 Fe264 1.997 . S
O269 C285 1.235 . S
O270 Fe264 2.002 . S
O270 C271 1.295 . S
C271 O270 1.295 . S
C271 O273 1.235 . S
C272 O277 1.287 . S
C272 O278 1.255 . S
O273 Fe265 1.997 . S
O273 C271 1.235 . S
C274 O280 1.287 . S
C274 O281 1.255 . S
O275 Fe264 1.976 . S
O275 C282 1.287 . S
O276 Fe265 1.996 . S
O276 C282 1.255 . S
O277 Fe267 1.976 . S
O277 C272 1.287 . S
O278 Fe264 1.996 . S
O278 C272 1.255 . S
C279 O283 1.295 . S
C279 O284 1.235 . S
O280 Fe265 1.976 . S
O280 C274 1.287 . S
O281 Fe267 1.996 . S
O281 C274 1.255 . S
C282 O275 1.287 . S
C282 O276 1.255 . S
O283 Fe265 2.002 . S
O283 C279 1.295 . S
O284 Fe267 1.997 . S
O284 C279 1.235 . S
C285 O268 1.295 . S
C285 O269 1.235 . S
Fe286 O288 1.918 . S
Fe286 O291 1.997 . S
Fe286 O292 2.002 . S
Fe286 O297 1.976 . S
Fe286 O300 1.996 . S
Fe287 O288 1.918 . S
Fe287 O295 1.997 . S
Fe287 O298 1.996 . S
Fe287 O302 1.976 . S
Fe287 O305 2.002 . S
O288 Fe286 1.918 . S
O288 Fe287 1.918 . S
O288 Fe289 1.918 . S
Fe289 O288 1.918 . S
Fe289 O290 2.002 . S
Fe289 O299 1.976 . S
Fe289 O303 1.996 . S
Fe289 O306 1.997 . S
O290 Fe289 2.002 . S
O290 C307 1.295 . S
O291 Fe286 1.997 . S
O291 C307 1.235 . S
O292 Fe286 2.002 . S
O292 C293 1.295 . S
C293 O292 1.295 . S
C293 O295 1.235 . S
C294 O299 1.287 1_545 S
C294 O300 1.255 1_545 S
O295 Fe287 1.997 . S
O295 C293 1.235 . S
C296 O302 1.287 . S
C296 O303 1.255 . S
O297 Fe286 1.976 . S
O297 C304 1.287 . S
O298 Fe287 1.996 . S
O298 C304 1.255 . S
O299 Fe289 1.976 . S
O299 C294 1.287 1_565 S
O300 Fe286 1.996 . S
O300 C294 1.255 1_565 S
C301 O305 1.295 . S
C301 O306 1.235 . S
O302 Fe287 1.976 . S
O302 C296 1.287 . S
O303 Fe289 1.996 . S
O303 C296 1.255 . S
C304 O297 1.287 . S
C304 O298 1.255 . S
O305 Fe287 2.002 . S
O305 C301 1.295 . S
O306 Fe289 1.997 . S
O306 C301 1.235 . S
C307 O290 1.295 . S
C307 O291 1.235 . S
Fe308 O310 1.918 . S
Fe308 O313 1.997 . S
Fe308 O314 2.002 . S
Fe308 O319 1.976 . S
Fe308 O322 1.996 . S
Fe309 O310 1.918 . S
Fe309 O317 1.997 . S
Fe309 O320 1.996 . S
Fe309 O324 1.976 . S
Fe309 O327 2.002 . S
O310 Fe308 1.918 . S
O310 Fe309 1.918 . S
O310 Fe311 1.918 . S
Fe311 O310 1.918 . S
Fe311 O312 2.002 . S
Fe311 O321 1.976 . S
Fe311 O325 1.996 . S
Fe311 O328 1.997 . S
O312 Fe311 2.002 . S
O312 C329 1.295 . S
O313 Fe308 1.997 . S
O313 C329 1.235 . S
O314 Fe308 2.002 . S
O314 C315 1.295 . S
C315 O314 1.295 . S
C315 O317 1.235 . S
C316 O321 1.287 . S
C316 O322 1.255 . S
O317 Fe309 1.997 . S
O317 C315 1.235 . S
C318 O324 1.287 . S
C318 O325 1.255 . S
O319 Fe308 1.976 . S
O319 C326 1.287 . S
O320 Fe309 1.996 . S
O320 C326 1.255 . S
O321 Fe311 1.976 . S
O321 C316 1.287 . S
O322 Fe308 1.996 . S
O322 C316 1.255 . S
C323 O327 1.295 . S
C323 O328 1.235 . S
O324 Fe309 1.976 . S
O324 C318 1.287 . S
O325 Fe311 1.996 . S
O325 C318 1.255 . S
C326 O319 1.287 . S
C326 O320 1.255 . S
O327 Fe309 2.002 . S
O327 C323 1.295 . S
O328 Fe311 1.997 . S
O328 C323 1.235 . S
C329 O312 1.295 . S
C329 O313 1.235 . S
Fe330 O332 1.918 . S
Fe330 O335 1.997 . S
Fe330 O336 2.002 . S
Fe330 O341 1.976 . S
Fe330 O344 1.996 . S
Fe331 O332 1.918 . S
Fe331 O339 1.997 . S
Fe331 O342 1.996 . S
Fe331 O346 1.976 . S
Fe331 O349 2.002 . S
O332 Fe330 1.918 . S
O332 Fe331 1.918 . S
O332 Fe333 1.918 . S
Fe333 O332 1.918 . S
Fe333 O334 2.002 . S
Fe333 O343 1.976 . S
Fe333 O347 1.996 . S
Fe333 O350 1.997 . S
O334 Fe333 2.002 . S
O334 C351 1.295 . S
O335 Fe330 1.997 . S
O335 C351 1.235 . S
O336 Fe330 2.002 . S
O336 C337 1.295 . S
C337 O336 1.295 . S
C337 O339 1.235 . S
C338 O343 1.287 1_565 S
C338 O344 1.255 1_565 S
O339 Fe331 1.997 . S
O339 C337 1.235 . S
C340 O346 1.287 . S
C340 O347 1.255 . S
O341 Fe330 1.976 . S
O341 C348 1.287 . S
O342 Fe331 1.996 . S
O342 C348 1.255 . S
O343 Fe333 1.976 . S
O343 C338 1.287 1_545 S
O344 Fe330 1.996 . S
O344 C338 1.255 1_545 S
C345 O349 1.295 . S
C345 O350 1.235 . S
O346 Fe331 1.976 . S
O346 C340 1.287 . S
O347 Fe333 1.996 . S
O347 C340 1.255 . S
C348 O341 1.287 . S
C348 O342 1.255 . S
O349 Fe331 2.002 . S
O349 C345 1.295 . S
O350 Fe333 1.997 . S
O350 C345 1.235 . S
C351 O334 1.295 . S
C351 O335 1.235 . S
H352 C360 0.950 . S
H353 C365 0.950 . S
H354 C362 0.950 . S
H355 C364 0.950 . S
H356 C366 0.950 . S
H357 C368 0.950 . S
H358 C370 0.950 . S
H359 C371 0.950 . S
C360 H352 0.950 . S
C360 C361 1.386 . S
C360 C362 1.391 . S
C361 C360 1.386 . S
C361 C365 1.393 . S
C362 H354 0.950 . S
C362 C360 1.391 . S
C362 C363 1.400 . S
C363 C362 1.400 . S
C363 C364 1.398 . S
C363 C369 1.491 . S
C364 H355 0.950 . S
C364 C363 1.398 . S
C364 C365 1.391 . S
C365 H353 0.950 . S
C365 C361 1.393 . S
C365 C364 1.391 . S
C366 H356 0.950 . S
C366 C367 1.386 . S
C366 C368 1.391 . S
C367 C366 1.386 . S
C367 C371 1.393 . S
C368 H357 0.950 . S
C368 C366 1.391 . S
C368 C369 1.400 . S
C369 C363 1.491 . S
C369 C368 1.400 . S
C369 C370 1.398 . S
C370 H358 0.950 . S
C370 C369 1.398 . S
C370 C371 1.391 . S
C371 H359 0.950 . S
C371 C367 1.393 . S
C371 C370 1.391 . S
H372 C380 0.950 . S
H373 C385 0.950 . S
H374 C382 0.950 . S
H375 C384 0.950 . S
H376 C386 0.950 . S
H377 C388 0.950 . S
H378 C390 0.950 . S
H379 C391 0.950 . S
C380 H372 0.950 . S
C380 C381 1.386 . S
C380 C382 1.391 . S
C381 C380 1.386 . S
C381 C385 1.393 . S
C382 H374 0.950 . S
C382 C380 1.391 . S
C382 C383 1.400 . S
C383 C382 1.400 . S
C383 C384 1.398 . S
C383 C389 1.491 . S
C384 H375 0.950 . S
C384 C383 1.398 . S
C384 C385 1.391 . S
C385 H373 0.950 . S
C385 C381 1.393 . S
C385 C384 1.391 . S
C386 H376 0.950 . S
C386 C387 1.386 . S
C386 C388 1.391 . S
C387 C386 1.386 . S
C387 C391 1.393 . S
C388 H377 0.950 . S
C388 C386 1.391 . S
C388 C389 1.400 . S
C389 C383 1.491 . S
C389 C388 1.400 . S
C389 C390 1.398 . S
C390 H378 0.950 . S
C390 C389 1.398 . S
C390 C391 1.391 . S
C391 H379 0.950 . S
C391 C387 1.393 . S
C391 C390 1.391 . S
H392 C400 0.950 . S
H393 C405 0.950 . S
H394 C402 0.950 . S
H395 C404 0.950 . S
H396 C406 0.950 . S
H397 C408 0.950 . S
H398 C410 0.950 . S
H399 C411 0.950 . S
C400 H392 0.950 . S
C400 C401 1.386 . S
C400 C402 1.391 . S
C401 C400 1.386 . S
C401 C405 1.393 . S
C402 H394 0.950 . S
C402 C400 1.391 . S
C402 C403 1.400 . S
C403 C402 1.400 . S
C403 C404 1.398 . S
C403 C409 1.491 1_455 S
C404 H395 0.950 . S
C404 C403 1.398 . S
C404 C405 1.391 . S
C405 H393 0.950 . S
C405 C401 1.393 . S
C405 C404 1.391 . S
C406 H396 0.950 . S
C406 C407 1.386 . S
C406 C408 1.391 . S
C407 C406 1.386 . S
C407 C411 1.393 . S
C408 H397 0.950 . S
C408 C406 1.391 . S
C408 C409 1.400 . S
C409 C403 1.491 1_655 S
C409 C408 1.400 . S
C409 C410 1.398 . S
C410 H398 0.950 . S
C410 C409 1.398 . S
C410 C411 1.391 . S
C411 H399 0.950 . S
C411 C407 1.393 . S
C411 C410 1.391 . S
H412 C420 0.950 . S
H413 C425 0.950 . S
H414 C422 0.950 . S
H415 C424 0.950 . S
H416 C426 0.950 . S
H417 C428 0.950 . S
H418 C430 0.939 1_455 S
H419 C431 0.950 . S
C420 H412 0.950 . S
C420 C421 1.386 . S
C420 C422 1.391 . S
C421 C420 1.386 . S
C421 C425 1.393 . S
C422 H414 0.950 . S
C422 C420 1.391 . S
C422 C423 1.400 . S
C423 C422 1.400 . S
C423 C424 1.398 1_455 S
C423 C429 1.491 1_455 S
C424 H415 0.950 . S
C424 C423 1.398 1_655 S
C424 C425 1.391 1_655 S
C425 H413 0.950 . S
C425 C421 1.393 . S
C425 C424 1.391 1_455 S
C426 H416 0.950 . S
C426 C427 1.386 . S
C426 C428 1.391 . S
C427 C426 1.386 . S
C427 C431 1.393 . S
C428 H417 0.950 . S
C428 C426 1.391 . S
C428 C429 1.400 . S
C429 C423 1.491 1_655 S
C429 C428 1.400 . S
C429 C430 1.402 . S
C430 H418 0.939 1_655 S
C430 C429 1.402 . S
C430 C431 1.397 . S
C431 H419 0.950 . S
C431 C427 1.393 . S
C431 C430 1.397 . S
H432 C440 0.950 . S
H433 C445 0.950 . S
H434 C442 0.950 . S
H435 C444 0.950 . S
H436 C446 0.950 . S
H437 C448 0.950 . S
H438 C450 0.950 . S
H439 C451 0.950 . S
C440 H432 0.950 . S
C440 C441 1.386 . S
C440 C442 1.391 . S
C441 C440 1.386 . S
C441 C445 1.393 . S
C442 H434 0.950 . S
C442 C440 1.391 . S
C442 C443 1.400 . S
C443 C442 1.400 . S
C443 C444 1.398 . S
C443 C449 1.491 . S
C444 H435 0.950 . S
C444 C443 1.398 . S
C444 C445 1.391 . S
C445 H433 0.950 . S
C445 C441 1.393 . S
C445 C444 1.391 . S
C446 H436 0.950 . S
C446 C447 1.386 . S
C446 C448 1.391 . S
C447 C446 1.386 . S
C447 C451 1.393 . S
C448 H437 0.950 . S
C448 C446 1.391 . S
C448 C449 1.400 . S
C449 C443 1.491 . S
C449 C448 1.400 . S
C449 C450 1.398 . S
C450 H438 0.950 . S
C450 C449 1.398 . S
C450 C451 1.391 . S
C451 H439 0.950 . S
C451 C447 1.393 . S
C451 C450 1.391 . S
H452 C460 0.950 . S
H453 C465 0.950 . S
H454 C462 0.950 . S
H455 C464 0.950 . S
H456 C466 0.950 . S
H457 C468 0.950 . S
H458 C470 0.950 . S
H459 C471 0.950 . S
C460 H452 0.950 . S
C460 C461 1.386 . S
C460 C462 1.391 . S
C461 C460 1.386 . S
C461 C465 1.393 . S
C462 H454 0.950 . S
C462 C460 1.391 . S
C462 C463 1.400 . S
C463 C462 1.400 . S
C463 C464 1.398 . S
C463 C469 1.491 . S
C464 H455 0.950 . S
C464 C463 1.398 . S
C464 C465 1.391 . S
C465 H453 0.950 . S
C465 C461 1.393 . S
C465 C464 1.391 . S
C466 H456 0.950 . S
C466 C467 1.386 . S
C466 C468 1.391 . S
C467 C466 1.386 . S
C467 C471 1.393 . S
C468 H457 0.950 . S
C468 C466 1.391 . S
C468 C469 1.400 . S
C469 C463 1.491 . S
C469 C468 1.400 . S
C469 C470 1.398 . S
C470 H458 0.950 . S
C470 C469 1.398 . S
C470 C471 1.391 . S
C471 H459 0.950 . S
C471 C467 1.393 . S
C471 C470 1.391 . S
H472 C480 0.950 . S
H473 C485 0.950 . S
H474 C482 0.950 . S
H475 C484 0.950 . S
H476 C486 0.950 . S
H477 C488 0.950 . S
H478 C490 0.950 . S
H479 C491 0.950 . S
C480 H472 0.950 . S
C480 C481 1.386 . S
C480 C482 1.391 . S
C481 C480 1.386 . S
C481 C485 1.393 . S
C482 H474 0.950 . S
C482 C480 1.391 . S
C482 C483 1.400 . S
C483 C482 1.400 . S
C483 C484 1.398 . S
C483 C489 1.491 1_455 S
C484 H475 0.950 . S
C484 C483 1.398 . S
C484 C485 1.391 . S
C485 H473 0.950 . S
C485 C481 1.393 . S
C485 C484 1.391 . S
C486 H476 0.950 . S
C486 C487 1.386 . S
C486 C488 1.391 . S
C487 C486 1.386 . S
C487 C491 1.393 . S
C488 H477 0.950 . S
C488 C486 1.391 . S
C488 C489 1.400 . S
C489 C483 1.491 1_655 S
C489 C488 1.400 . S
C489 C490 1.398 . S
C490 H478 0.950 . S
C490 C489 1.398 . S
C490 C491 1.391 . S
C491 H479 0.950 . S
C491 C487 1.393 . S
C491 C490 1.391 . S
H492 C500 0.950 . S
H493 C505 0.950 . S
H494 C502 0.950 . S
H495 C504 0.950 . S
H496 C506 0.950 . S
H497 C508 0.950 . S
H498 C510 0.950 . S
H499 C511 0.950 . S
C500 H492 0.950 . S
C500 C501 1.386 . S
C500 C502 1.391 . S
C501 C500 1.386 . S
C501 C505 1.393 . S
C502 H494 0.950 . S
C502 C500 1.391 . S
C502 C503 1.400 . S
C503 C502 1.400 . S
C503 C504 1.398 . S
C503 C509 1.491 1_455 S
C504 H495 0.950 . S
C504 C503 1.398 . S
C504 C505 1.391 . S
C505 H493 0.950 . S
C505 C501 1.393 . S
C505 C504 1.391 . S
C506 H496 0.950 . S
C506 C507 1.386 . S
C506 C508 1.391 . S
C507 C506 1.386 . S
C507 C511 1.393 . S
C508 H497 0.950 . S
C508 C506 1.391 . S
C508 C509 1.400 . S
C509 C503 1.491 1_655 S
C509 C508 1.400 . S
C509 C510 1.398 . S
C510 H498 0.950 . S
C510 C509 1.398 . S
C510 C511 1.391 . S
C511 H499 0.950 . S
C511 C507 1.393 . S
C511 C510 1.391 . S
H512 C520 0.947 1_565 S
H513 C525 0.950 . S
H514 C522 0.950 . S
H515 C524 0.950 1_556 S
H516 C526 0.952 . S
H517 C528 0.950 . S
H518 C530 0.950 1_554 S
H519 C531 0.950 . S
C520 H512 0.947 1_545 S
C520 C521 1.386 . S
C520 C522 1.391 1_545 S
C521 C520 1.386 . S
C521 C525 1.393 . S
C522 H514 0.950 . S
C522 C520 1.391 1_565 S
C522 C523 1.400 1_565 S
C523 C522 1.400 1_545 S
C523 C524 1.398 . S
C523 C529 1.491 1_544 S
C524 H515 0.950 1_554 S
C524 C523 1.398 . S
C524 C525 1.391 . S
C525 H513 0.950 . S
C525 C521 1.393 . S
C525 C524 1.391 . S
C526 H516 0.952 . S
C526 C527 1.386 . S
C526 C528 1.391 1_565 S
C527 C526 1.386 . S
C527 C531 1.393 . S
C528 H517 0.950 . S
C528 C526 1.391 1_545 S
C528 C529 1.400 1_545 S
C529 C523 1.491 1_566 S
C529 C528 1.400 1_565 S
C529 C530 1.398 . S
C530 H518 0.950 1_556 S
C530 C529 1.398 . S
C530 C531 1.391 . S
C531 H519 0.950 . S
C531 C527 1.393 . S
C531 C530 1.391 . S
H532 C540 0.950 . S
H533 C545 0.950 . S
H534 C542 0.950 . S
H535 C544 0.950 . S
H536 C546 0.950 . S
H537 C548 0.950 . S
H538 C550 0.950 . S
H539 C551 0.950 . S
C540 H532 0.950 . S
C540 C541 1.386 . S
C540 C542 1.391 . S
C541 C540 1.386 . S
C541 C545 1.393 . S
C542 H534 0.950 . S
C542 C540 1.391 . S
C542 C543 1.400 . S
C543 C542 1.400 . S
C543 C544 1.398 . S
C543 C549 1.491 . S
C544 H535 0.950 . S
C544 C543 1.398 . S
C544 C545 1.391 . S
C545 H533 0.950 . S
C545 C541 1.393 . S
C545 C544 1.391 . S
C546 H536 0.950 . S
C546 C547 1.386 . S
C546 C548 1.391 . S
C547 C546 1.386 . S
C547 C551 1.393 . S
C548 H537 0.950 . S
C548 C546 1.391 . S
C548 C549 1.400 . S
C549 C543 1.491 . S
C549 C548 1.400 . S
C549 C550 1.398 . S
C550 H538 0.950 . S
C550 C549 1.398 . S
C550 C551 1.391 . S
C551 H539 0.950 . S
C551 C547 1.393 . S
C551 C550 1.391 . S
H552 C560 0.950 . S
H553 C565 0.950 . S
H554 C562 0.950 1_655 S
H555 C564 0.950 . S
H556 C566 0.950 . S
H557 C568 0.950 1_455 S
H558 C570 0.950 . S
H559 C571 0.950 . S
C560 H552 0.950 . S
C560 C561 1.386 . S
C560 C562 1.391 . S
C561 C560 1.386 . S
C561 C565 1.393 . S
C562 H554 0.950 1_455 S
C562 C560 1.391 . S
C562 C563 1.400 . S
C563 C562 1.400 . S
C563 C564 1.398 . S
C563 C569 1.491 1_465 S
C564 H555 0.950 . S
C564 C563 1.398 . S
C564 C565 1.391 . S
C565 H553 0.950 . S
C565 C561 1.393 . S
C565 C564 1.391 . S
C566 H556 0.950 . S
C566 C567 1.386 . S
C566 C568 1.391 . S
C567 C566 1.386 . S
C567 C571 1.393 . S
C568 H557 0.950 1_655 S
C568 C566 1.391 . S
C568 C569 1.400 . S
C569 C563 1.491 1_645 S
C569 C568 1.400 . S
C569 C570 1.398 . S
C570 H558 0.950 . S
C570 C569 1.398 . S
C570 C571 1.391 . S
C571 H559 0.950 . S
C571 C567 1.393 . S
C571 C570 1.391 . S
H572 C580 0.950 . S
H573 C585 0.950 . S
H574 C582 0.950 . S
H575 C584 0.950 . S
H576 C586 0.950 . S
H577 C588 0.950 . S
H578 C590 0.950 . S
H579 C591 0.950 . S
C580 H572 0.950 . S
C580 C581 1.386 . S
C580 C582 1.391 . S
C581 C580 1.386 . S
C581 C585 1.393 . S
C582 H574 0.950 . S
C582 C580 1.391 . S
C582 C583 1.400 . S
C583 C582 1.400 . S
C583 C584 1.398 . S
C583 C589 1.491 . S
C584 H575 0.950 . S
C584 C583 1.398 . S
C584 C585 1.391 . S
C585 H573 0.950 . S
C585 C581 1.393 . S
C585 C584 1.391 . S
C586 H576 0.950 . S
C586 C587 1.386 . S
C586 C588 1.391 . S
C587 C586 1.386 . S
C587 C591 1.393 . S
C588 H577 0.950 . S
C588 C586 1.391 . S
C588 C589 1.400 . S
C589 C583 1.491 . S
C589 C588 1.400 . S
C589 C590 1.398 . S
C590 H578 0.950 . S
C590 C589 1.398 . S
C590 C591 1.391 . S
C591 H579 0.950 . S
C591 C587 1.393 . S
C591 C590 1.391 . S
H592 C600 0.950 . S
H593 C605 0.950 . S
H594 C602 0.950 . S
H595 C604 0.950 . S
H596 C606 0.950 . S
H597 C608 0.950 . S
H598 C610 0.950 . S
H599 C611 0.950 . S
C600 H592 0.950 . S
C600 C601 1.386 . S
C600 C602 1.391 . S
C601 C600 1.386 . S
C601 C605 1.393 . S
C602 H594 0.950 . S
C602 C600 1.391 . S
C602 C603 1.400 . S
C603 C602 1.400 . S
C603 C604 1.398 . S
C603 C609 1.491 . S
C604 H595 0.950 . S
C604 C603 1.398 . S
C604 C605 1.391 . S
C605 H593 0.950 . S
C605 C601 1.393 . S
C605 C604 1.391 . S
C606 H596 0.950 . S
C606 C607 1.386 . S
C606 C608 1.391 . S
C607 C606 1.386 . S
C607 C611 1.393 . S
C608 H597 0.950 . S
C608 C606 1.391 . S
C608 C609 1.400 . S
C609 C603 1.491 . S
C609 C608 1.400 . S
C609 C610 1.398 . S
C610 H598 0.950 . S
C610 C609 1.398 . S
C610 C611 1.391 . S
C611 H599 0.950 . S
C611 C607 1.393 . S
C611 C610 1.391 . S
H612 C620 0.950 . S
H613 C625 0.950 . S
H614 C622 0.950 . S
H615 C624 0.950 . S
H616 C626 0.950 . S
H617 C628 0.950 . S
H618 C630 0.950 . S
H619 C631 0.950 . S
C620 H612 0.950 . S
C620 C621 1.386 . S
C620 C622 1.391 . S
C621 C620 1.386 . S
C621 C625 1.393 . S
C622 H614 0.950 . S
C622 C620 1.391 . S
C622 C623 1.400 . S
C623 C622 1.400 . S
C623 C624 1.398 . S
C623 C629 1.491 . S
C624 H615 0.950 . S
C624 C623 1.398 . S
C624 C625 1.391 . S
C625 H613 0.950 . S
C625 C621 1.393 . S
C625 C624 1.391 . S
C626 H616 0.950 . S
C626 C627 1.386 . S
C626 C628 1.391 . S
C627 C626 1.386 . S
C627 C631 1.393 . S
C628 H617 0.950 . S
C628 C626 1.391 . S
C628 C629 1.400 . S
C629 C623 1.491 . S
C629 C628 1.400 . S
C629 C630 1.398 . S
C630 H618 0.950 . S
C630 C629 1.398 . S
C630 C631 1.391 . S
C631 H619 0.950 . S
C631 C627 1.393 . S
C631 C630 1.391 . S
H632 C640 0.950 . S
H633 C645 0.950 . S
H634 C642 0.950 . S
H635 C644 0.950 1_655 S
H636 C646 0.950 . S
H637 C648 0.950 . S
H638 C650 0.950 1_455 S
H639 C651 0.950 . S
C640 H632 0.950 . S
C640 C641 1.386 . S
C640 C642 1.391 . S
C641 C640 1.386 . S
C641 C645 1.393 . S
C642 H634 0.950 . S
C642 C640 1.391 . S
C642 C643 1.400 . S
C643 C642 1.400 . S
C643 C644 1.398 . S
C643 C649 1.491 1_455 S
C644 H635 0.950 1_455 S
C644 C643 1.398 . S
C644 C645 1.391 . S
C645 H633 0.950 . S
C645 C641 1.393 . S
C645 C644 1.391 . S
C646 H636 0.950 . S
C646 C647 1.386 . S
C646 C648 1.391 . S
C647 C646 1.386 . S
C647 C651 1.393 . S
C648 H637 0.950 . S
C648 C646 1.391 . S
C648 C649 1.400 . S
C649 C643 1.491 1_655 S
C649 C648 1.400 . S
C649 C650 1.398 . S
C650 H638 0.950 1_655 S
C650 C649 1.398 . S
C650 C651 1.391 . S
C651 H639 0.950 . S
C651 C647 1.393 . S
C651 C650 1.391 . S
H652 C660 0.950 . S
H653 C665 0.950 . S
H654 C662 0.978 . S
H655 C664 0.950 . S
H656 C666 0.950 . S
H657 C668 0.993 . S
H658 C670 0.950 . S
H659 C671 0.950 . S
C660 H652 0.950 . S
C660 C661 1.386 . S
C660 C662 1.374 1_554 S
C661 C660 1.386 . S
C661 C665 1.393 . S
C662 H654 0.978 . S
C662 C660 1.374 1_556 S
C662 C663 1.390 1_556 S
C663 C662 1.390 1_554 S
C663 C664 1.398 . S
C663 C669 1.491 1_554 S
C664 H655 0.950 . S
C664 C663 1.398 . S
C664 C665 1.391 . S
C665 H653 0.950 . S
C665 C661 1.393 . S
C665 C664 1.391 . S
C666 H656 0.950 . S
C666 C667 1.386 . S
C666 C668 1.365 1_556 S
C667 C666 1.386 . S
C667 C671 1.393 . S
C668 H657 0.993 . S
C668 C666 1.365 1_554 S
C668 C669 1.385 1_554 S
C669 C663 1.491 1_556 S
C669 C668 1.385 1_556 S
C669 C670 1.398 . S
C670 H658 0.950 . S
C670 C669 1.398 . S
C670 C671 1.391 . S
C671 H659 0.950 . S
C671 C667 1.393 . S
C671 C670 1.391 . S
H672 C680 0.950 . S
H673 C685 0.950 . S
H674 C682 0.950 . S
H675 C684 0.950 . S
H676 C686 0.950 . S
H677 C688 0.950 . S
H678 C690 0.950 . S
H679 C691 0.950 . S
C680 H672 0.950 . S
C680 C681 1.386 . S
C680 C682 1.391 . S
C681 C680 1.386 . S
C681 C685 1.393 . S
C682 H674 0.950 . S
C682 C680 1.391 . S
C682 C683 1.400 . S
C683 C682 1.400 . S
C683 C684 1.398 . S
C683 C689 1.491 . S
C684 H675 0.950 . S
C684 C683 1.398 . S
C684 C685 1.391 . S
C685 H673 0.950 . S
C685 C681 1.393 . S
C685 C684 1.391 . S
C686 H676 0.950 . S
C686 C687 1.386 . S
C686 C688 1.391 . S
C687 C686 1.386 . S
C687 C691 1.393 . S
C688 H677 0.950 . S
C688 C686 1.391 . S
C688 C689 1.400 . S
C689 C683 1.491 . S
C689 C688 1.400 . S
C689 C690 1.398 . S
C690 H678 0.950 . S
C690 C689 1.398 . S
C690 C691 1.391 . S
C691 H679 0.950 . S
C691 C687 1.393 . S
C691 C690 1.391 . S
H692 C700 0.950 . S
H693 C705 0.950 . S
H694 C702 0.950 . S
H695 C704 0.950 . S
H696 C706 0.950 . S
H697 C708 0.950 . S
H698 C710 0.950 . S
H699 C711 0.950 . S
C700 H692 0.950 . S
C700 C701 1.386 . S
C700 C702 1.391 . S
C701 C700 1.386 . S
C701 C705 1.393 . S
C702 H694 0.950 . S
C702 C700 1.391 . S
C702 C703 1.400 . S
C703 C702 1.400 . S
C703 C704 1.398 . S
C703 C709 1.491 . S
C704 H695 0.950 . S
C704 C703 1.398 . S
C704 C705 1.391 . S
C705 H693 0.950 . S
C705 C701 1.393 . S
C705 C704 1.391 . S
C706 H696 0.950 . S
C706 C707 1.386 . S
C706 C708 1.391 . S
C707 C706 1.386 . S
C707 C711 1.393 . S
C708 H697 0.950 . S
C708 C706 1.391 . S
C708 C709 1.400 . S
C709 C703 1.491 . S
C709 C708 1.400 . S
C709 C710 1.398 . S
C710 H698 0.950 . S
C710 C709 1.398 . S
C710 C711 1.391 . S
C711 H699 0.950 . S
C711 C707 1.393 . S
C711 C710 1.391 . S
H712 C720 0.950 . S
H713 C725 0.950 . S
H714 C722 0.950 . S
H715 C724 0.950 . S
H716 C726 0.950 . S
H717 C728 0.950 . S
H718 C730 0.950 . S
H719 C731 0.950 . S
C720 H712 0.950 . S
C720 C721 1.386 . S
C720 C722 1.391 . S
C721 C720 1.386 . S
C721 C725 1.393 . S
C722 H714 0.950 . S
C722 C720 1.391 . S
C722 C723 1.400 . S
C723 C722 1.400 . S
C723 C724 1.398 . S
C723 C729 1.491 . S
C724 H715 0.950 . S
C724 C723 1.398 . S
C724 C725 1.391 . S
C725 H713 0.950 . S
C725 C721 1.393 . S
C725 C724 1.391 . S
C726 H716 0.950 . S
C726 C727 1.386 . S
C726 C728 1.391 . S
C727 C726 1.386 . S
C727 C731 1.393 . S
C728 H717 0.950 . S
C728 C726 1.391 . S
C728 C729 1.400 . S
C729 C723 1.491 . S
C729 C728 1.400 . S
C729 C730 1.398 . S
C730 H718 0.950 . S
C730 C729 1.398 . S
C730 C731 1.391 . S
C731 H719 0.950 . S
C731 C727 1.393 . S
C731 C730 1.391 . S
H732 C740 0.950 . S
H733 C745 0.950 . S
H734 C742 0.950 . S
H735 C744 0.950 . S
H736 C746 0.950 . S
H737 C748 0.950 . S
H738 C750 0.950 . S
H739 C751 0.950 . S
C740 H732 0.950 . S
C740 C741 1.386 . S
C740 C742 1.391 . S
C741 C740 1.386 . S
C741 C745 1.393 . S
C742 H734 0.950 . S
C742 C740 1.391 . S
C742 C743 1.400 . S
C743 C742 1.400 . S
C743 C744 1.398 . S
C743 C749 1.491 . S
C744 H735 0.950 . S
C744 C743 1.398 . S
C744 C745 1.391 . S
C745 H733 0.950 . S
C745 C741 1.393 . S
C745 C744 1.391 . S
C746 H736 0.950 . S
C746 C747 1.386 . S
C746 C748 1.391 . S
C747 C746 1.386 . S
C747 C751 1.393 . S
C748 H737 0.950 . S
C748 C746 1.391 . S
C748 C749 1.400 . S
C749 C743 1.491 . S
C749 C748 1.400 . S
C749 C750 1.398 . S
C750 H738 0.950 . S
C750 C749 1.398 . S
C750 C751 1.391 . S
C751 H739 0.950 . S
C751 C747 1.393 . S
C751 C750 1.391 . S
H752 C760 0.950 . S
H753 C765 0.950 . S
H754 C762 0.950 . S
H755 C764 0.950 . S
H756 C766 0.950 . S
H757 C768 0.950 . S
H758 C770 0.950 . S
H759 C771 0.950 . S
C760 H752 0.950 . S
C760 C761 1.386 . S
C760 C762 1.391 . S
C761 C760 1.386 . S
C761 C765 1.393 . S
C762 H754 0.950 . S
C762 C760 1.391 . S
C762 C763 1.400 . S
C763 C762 1.400 . S
C763 C764 1.398 . S
C763 C769 1.491 . S
C764 H755 0.950 . S
C764 C763 1.398 . S
C764 C765 1.391 . S
C765 H753 0.950 . S
C765 C761 1.393 . S
C765 C764 1.391 . S
C766 H756 0.950 . S
C766 C767 1.386 . S
C766 C768 1.391 . S
C767 C766 1.386 . S
C767 C771 1.393 . S
C768 H757 0.950 . S
C768 C766 1.391 . S
C768 C769 1.400 . S
C769 C763 1.491 . S
C769 C768 1.400 . S
C769 C770 1.398 . S
C770 H758 0.950 . S
C770 C769 1.398 . S
C770 C771 1.391 . S
C771 H759 0.950 . S
C771 C767 1.393 . S
C771 C770 1.391 . S
H772 C780 0.950 . S
H773 C785 0.950 . S
H774 C782 0.950 . S
H775 C784 0.950 . S
H776 C786 0.950 . S
H777 C788 0.950 . S
H778 C790 0.950 . S
H779 C791 0.950 . S
C780 H772 0.950 . S
C780 C781 1.386 . S
C780 C782 1.391 . S
C781 C780 1.386 . S
C781 C785 1.393 . S
C782 H774 0.950 . S
C782 C780 1.391 . S
C782 C783 1.400 . S
C783 C782 1.400 . S
C783 C784 1.398 . S
C783 C789 1.491 . S
C784 H775 0.950 . S
C784 C783 1.398 . S
C784 C785 1.391 . S
C785 H773 0.950 . S
C785 C781 1.393 . S
C785 C784 1.391 . S
C786 H776 0.950 . S
C786 C787 1.386 . S
C786 C788 1.391 . S
C787 C786 1.386 . S
C787 C791 1.393 . S
C788 H777 0.950 . S
C788 C786 1.391 . S
C788 C789 1.400 . S
C789 C783 1.491 . S
C789 C788 1.400 . S
C789 C790 1.398 . S
C790 H778 0.950 . S
C790 C789 1.398 . S
C790 C791 1.391 . S
C791 H779 0.950 . S
C791 C787 1.393 . S
C791 C790 1.391 . S
H792 C800 0.950 . S
H793 C805 0.950 . S
H794 C802 0.950 . S
H795 C804 0.950 . S
H796 C806 0.950 . S
H797 C808 0.950 . S
H798 C810 0.950 . S
H799 C811 0.950 . S
C800 H792 0.950 . S
C800 C801 1.386 . S
C800 C802 1.391 . S
C801 C800 1.386 . S
C801 C805 1.393 . S
C802 H794 0.950 . S
C802 C800 1.391 . S
C802 C803 1.400 . S
C803 C802 1.400 . S
C803 C804 1.398 . S
C803 C809 1.491 . S
C804 H795 0.950 . S
C804 C803 1.398 . S
C804 C805 1.391 . S
C805 H793 0.950 . S
C805 C801 1.393 . S
C805 C804 1.391 . S
C806 H796 0.950 . S
C806 C807 1.386 . S
C806 C808 1.391 . S
C807 C806 1.386 . S
C807 C811 1.393 . S
C808 H797 0.950 . S
C808 C806 1.391 . S
C808 C809 1.400 . S
C809 C803 1.491 . S
C809 C808 1.400 . S
C809 C810 1.398 . S
C810 H798 0.950 . S
C810 C809 1.398 . S
C810 C811 1.391 . S
C811 H799 0.950 . S
C811 C807 1.393 . S
C811 C810 1.391 . S
H812 C820 0.950 . S
H813 C825 0.950 . S
H814 C822 0.950 . S
H815 C824 0.950 . S
H816 C826 0.950 . S
H817 C828 0.950 . S
H818 C830 0.950 . S
H819 C831 0.950 . S
C820 H812 0.950 . S
C820 C821 1.386 . S
C820 C822 1.391 . S
C821 C820 1.386 . S
C821 C825 1.393 . S
C822 H814 0.950 . S
C822 C820 1.391 . S
C822 C823 1.400 . S
C823 C822 1.400 . S
C823 C824 1.398 . S
C823 C829 1.491 . S
C824 H815 0.950 . S
C824 C823 1.398 . S
C824 C825 1.391 . S
C825 H813 0.950 . S
C825 C821 1.393 . S
C825 C824 1.391 . S
C826 H816 0.950 . S
C826 C827 1.386 . S
C826 C828 1.391 . S
C827 C826 1.386 . S
C827 C831 1.393 . S
C828 H817 0.950 . S
C828 C826 1.391 . S
C828 C829 1.400 . S
C829 C823 1.491 . S
C829 C828 1.400 . S
C829 C830 1.398 . S
C830 H818 0.950 . S
C830 C829 1.398 . S
C830 C831 1.391 . S
C831 H819 0.950 . S
C831 C827 1.393 . S
C831 C830 1.391 . S
H832 C840 0.950 . S
H833 C845 0.950 . S
H834 C842 0.950 . S
H835 C844 0.950 . S
H836 C846 0.950 . S
H837 C848 0.950 . S
H838 C850 0.950 . S
H839 C851 0.950 . S
C840 H832 0.950 . S
C840 C841 1.386 . S
C840 C842 1.391 . S
C841 C840 1.386 . S
C841 C845 1.393 . S
C842 H834 0.950 . S
C842 C840 1.391 . S
C842 C843 1.400 . S
C843 C842 1.400 . S
C843 C844 1.398 . S
C843 C849 1.491 . S
C844 H835 0.950 . S
C844 C843 1.398 . S
C844 C845 1.391 . S
C845 H833 0.950 . S
C845 C841 1.393 . S
C845 C844 1.391 . S
C846 H836 0.950 . S
C846 C847 1.386 . S
C846 C848 1.391 . S
C847 C846 1.386 . S
C847 C851 1.393 . S
C848 H837 0.950 . S
C848 C846 1.391 . S
C848 C849 1.400 . S
C849 C843 1.491 . S
C849 C848 1.400 . S
C849 C850 1.398 . S
C850 H838 0.950 . S
C850 C849 1.398 . S
C850 C851 1.391 . S
C851 H839 0.950 . S
C851 C847 1.393 . S
C851 C850 1.391 . S
H852 C860 0.950 . S
H853 C865 0.950 . S
H854 C862 0.950 . S
H855 C864 0.950 . S
H856 C866 0.950 1_455 S
H857 C868 0.950 . S
H858 C870 0.950 . S
H859 C871 0.950 . S
C860 H852 0.950 . S
C860 C861 1.386 . S
C860 C862 1.391 . S
C861 C860 1.386 . S
C861 C865 1.393 . S
C862 H854 0.950 . S
C862 C860 1.391 . S
C862 C863 1.400 . S
C863 C862 1.400 . S
C863 C864 1.398 . S
C863 C869 1.491 . S
C864 H855 0.950 . S
C864 C863 1.398 . S
C864 C865 1.391 . S
C865 H853 0.950 . S
C865 C861 1.393 . S
C865 C864 1.391 . S
C866 H856 0.950 1_655 S
C866 C867 1.386 1_565 S
C866 C868 1.391 . S
C867 C866 1.386 1_545 S
C867 C871 1.393 . S
C868 H857 0.950 . S
C868 C866 1.391 . S
C868 C869 1.400 . S
C869 C863 1.491 . S
C869 C868 1.400 . S
C869 C870 1.398 1_565 S
C870 H858 0.950 . S
C870 C869 1.398 1_545 S
C870 C871 1.391 . S
C871 H859 0.950 . S
C871 C867 1.393 . S
C871 C870 1.391 . S
H872 C880 0.950 . S
H873 C885 0.950 . S
H874 C882 0.950 . S
H875 C884 0.950 . S
H876 C886 0.950 . S
H877 C888 0.950 . S
H878 C890 0.950 . S
H879 C891 0.950 . S
C880 H872 0.950 . S
C880 C881 1.386 . S
C880 C882 1.391 . S
C881 C880 1.386 . S
C881 C885 1.393 . S
C882 H874 0.950 . S
C882 C880 1.391 . S
C882 C883 1.400 . S
C883 C882 1.400 . S
C883 C884 1.398 . S
C883 C889 1.491 . S
C884 H875 0.950 . S
C884 C883 1.398 . S
C884 C885 1.391 . S
C885 H873 0.950 . S
C885 C881 1.393 . S
C885 C884 1.391 . S
C886 H876 0.950 . S
C886 C887 1.386 . S
C886 C888 1.391 . S
C887 C886 1.386 . S
C887 C891 1.393 . S
C888 H877 0.950 . S
C888 C886 1.391 . S
C888 C889 1.400 . S
C889 C883 1.491 . S
C889 C888 1.400 . S
C889 C890 1.398 . S
C890 H878 0.950 . S
C890 C889 1.398 . S
C890 C891 1.391 . S
C891 H879 0.950 . S
C891 C887 1.393 . S
C891 C890 1.391 . S
H892 C900 0.950 . S
H893 C905 0.950 . S
H894 C902 0.950 . S
H895 C904 0.953 . S
H896 C906 0.950 . S
H897 C908 0.950 . S
H898 C910 0.950 . S
H899 C911 0.950 . S
C900 H892 0.950 . S
C900 C901 1.386 . S
C900 C902 1.391 . S
C901 C900 1.386 . S
C901 C905 1.393 . S
C902 H894 0.950 . S
C902 C900 1.391 . S
C902 C903 1.400 . S
C903 C902 1.400 . S
C903 C904 1.398 . S
C903 C909 1.491 . S
C904 H895 0.953 . S
C904 C903 1.398 . S
C904 C905 1.391 . S
C905 H893 0.950 . S
C905 C901 1.393 . S
C905 C904 1.391 . S
C906 H896 0.950 . S
C906 C907 1.386 . S
C906 C908 1.391 . S
C907 C906 1.386 . S
C907 C911 1.393 1_565 S
C908 H897 0.950 . S
C908 C906 1.391 . S
C908 C909 1.400 1_565 S
C909 C903 1.491 . S
C909 C908 1.400 1_545 S
C909 C910 1.398 . S
C910 H898 0.950 . S
C910 C909 1.398 . S
C910 C911 1.391 . S
C911 H899 0.950 . S
C911 C907 1.393 1_545 S
C911 C910 1.391 . S
H912 C920 0.950 . S
H913 C925 0.950 . S
H914 C922 0.950 . S
H915 C924 0.950 . S
H916 C926 0.950 . S
H917 C928 0.950 . S
H918 C930 0.950 . S
H919 C931 0.950 . S
C920 H912 0.950 . S
C920 C921 1.386 . S
C920 C922 1.391 . S
C921 C920 1.386 . S
C921 C925 1.393 . S
C922 H914 0.950 . S
C922 C920 1.391 . S
C922 C923 1.400 . S
C923 C922 1.400 . S
C923 C924 1.398 . S
C923 C929 1.491 . S
C924 H915 0.950 . S
C924 C923 1.398 . S
C924 C925 1.391 . S
C925 H913 0.950 . S
C925 C921 1.393 . S
C925 C924 1.391 . S
C926 H916 0.950 . S
C926 C927 1.386 . S
C926 C928 1.391 . S
C927 C926 1.386 . S
C927 C931 1.393 . S
C928 H917 0.950 . S
C928 C926 1.391 . S
C928 C929 1.400 . S
C929 C923 1.491 . S
C929 C928 1.400 . S
C929 C930 1.398 . S
C930 H918 0.950 . S
C930 C929 1.398 . S
C930 C931 1.391 . S
C931 H919 0.950 . S
C931 C927 1.393 . S
C931 C930 1.391 . S
H932 C940 0.950 . S
H933 C945 0.950 . S
H934 C942 0.950 . S
H935 C944 0.950 . S
H936 C946 0.950 . S
H937 C948 0.950 . S
H938 C950 0.950 . S
H939 C951 0.950 . S
C940 H932 0.950 . S
C940 C941 1.386 1_545 S
C940 C942 1.391 . S
C941 C940 1.386 1_565 S
C941 C945 1.393 . S
C942 H934 0.950 . S
C942 C940 1.391 . S
C942 C943 1.400 . S
C943 C942 1.400 . S
C943 C944 1.398 1_545 S
C943 C949 1.491 . S
C944 H935 0.950 . S
C944 C943 1.398 1_565 S
C944 C945 1.391 . S
C945 H933 0.950 . S
C945 C941 1.393 . S
C945 C944 1.391 . S
C946 H936 0.950 . S
C946 C947 1.386 . S
C946 C948 1.391 . S
C947 C946 1.386 . S
C947 C951 1.393 . S
C948 H937 0.950 . S
C948 C946 1.391 . S
C948 C949 1.400 . S
C949 C943 1.491 . S
C949 C948 1.400 . S
C949 C950 1.398 . S
C950 H938 0.950 . S
C950 C949 1.398 . S
C950 C951 1.391 . S
C951 H939 0.950 . S
C951 C947 1.393 . S
C951 C950 1.391 . S
H952 C960 0.950 . S
H953 C965 0.950 . S
H954 C962 0.950 . S
H955 C964 0.950 . S
H956 C966 0.950 . S
H957 C968 0.950 . S
H958 C970 0.950 . S
H959 C971 0.950 . S
C960 H952 0.950 . S
C960 C961 1.386 . S
C960 C962 1.391 . S
C961 C960 1.386 . S
C961 C965 1.393 . S
C962 H954 0.950 . S
C962 C960 1.391 . S
C962 C963 1.400 . S
C963 C962 1.400 . S
C963 C964 1.398 . S
C963 C969 1.491 . S
C964 H955 0.950 . S
C964 C963 1.398 . S
C964 C965 1.391 . S
C965 H953 0.950 . S
C965 C961 1.393 . S
C965 C964 1.391 . S
C966 H956 0.950 . S
C966 C967 1.386 . S
C966 C968 1.391 . S
C967 C966 1.386 . S
C967 C971 1.393 . S
C968 H957 0.950 . S
C968 C966 1.391 . S
C968 C969 1.400 . S
C969 C963 1.491 . S
C969 C968 1.400 . S
C969 C970 1.398 . S
C970 H958 0.950 . S
C970 C969 1.398 . S
C970 C971 1.391 . S
C971 H959 0.950 . S
C971 C967 1.393 . S
C971 C970 1.391 . S
H972 C980 0.950 . S
H973 C985 0.950 . S
H974 C982 0.950 . S
H975 C984 0.950 . S
H976 C986 0.950 . S
H977 C988 0.950 1_545 S
H978 C990 0.950 . S
H979 C991 0.950 . S
C980 H972 0.950 . S
C980 C981 1.386 1_565 S
C980 C982 1.391 . S
C981 C980 1.386 1_545 S
C981 C985 1.393 . S
C982 H974 0.950 . S
C982 C980 1.391 . S
C982 C983 1.400 . S
C983 C982 1.400 . S
C983 C984 1.398 1_565 S
C983 C989 1.491 . S
C984 H975 0.950 . S
C984 C983 1.398 1_545 S
C984 C985 1.391 . S
C985 H973 0.950 . S
C985 C981 1.393 . S
C985 C984 1.391 . S
C986 H976 0.950 . S
C986 C987 1.386 . S
C986 C988 1.391 . S
C987 C986 1.386 . S
C987 C991 1.393 . S
C988 H977 0.950 1_565 S
C988 C986 1.391 . S
C988 C989 1.400 . S
C989 C983 1.491 . S
C989 C988 1.400 . S
C989 C990 1.398 . S
C990 H978 0.950 . S
C990 C989 1.398 . S
C990 C991 1.391 . S
C991 H979 0.950 . S
C991 C987 1.393 . S
C991 C990 1.391 . S
H992 C1000 0.950 . S
H993 C1005 0.950 . S
H994 C1002 0.950 . S
H995 C1004 0.950 . S
H996 C1006 0.950 . S
H997 C1008 0.950 . S
H998 C1010 0.950 . S
H999 C1011 0.950 . S
C1000 H992 0.950 . S
C1000 C1001 1.386 . S
C1000 C1002 1.391 1_554 S
C1001 C1000 1.386 . S
C1001 C1005 1.393 . S
C1002 H994 0.950 . S
C1002 C1000 1.391 1_556 S
C1002 C1003 1.400 . S
C1003 C1002 1.400 . S
C1003 C1004 1.398 . S
C1003 C1009 1.491 . S
C1004 H995 0.950 . S
C1004 C1003 1.398 . S
C1004 C1005 1.391 1_556 S
C1005 H993 0.950 . S
C1005 C1001 1.393 . S
C1005 C1004 1.391 1_554 S
C1006 H996 0.950 . S
C1006 C1007 1.386 . S
C1006 C1008 1.391 . S
C1007 C1006 1.386 . S
C1007 C1011 1.393 . S
C1008 H997 0.950 . S
C1008 C1006 1.391 . S
C1008 C1009 1.400 . S
C1009 C1003 1.491 . S
C1009 C1008 1.400 . S
C1009 C1010 1.398 . S
C1010 H998 0.950 . S
C1010 C1009 1.398 . S
C1010 C1011 1.391 . S
C1011 H999 0.950 . S
C1011 C1007 1.393 . S
C1011 C1010 1.391 . S
H1012 C1020 0.950 . S
H1013 C1025 0.950 . S
H1014 C1022 0.950 . S
H1015 C1024 0.950 . S
H1016 C1026 0.950 . S
H1017 C1028 0.950 . S
H1018 C1030 0.950 . S
H1019 C1031 0.950 . S
C1020 H1012 0.950 . S
C1020 C1021 1.386 . S
C1020 C1022 1.391 . S
C1021 C1020 1.386 . S
C1021 C1025 1.393 . S
C1022 H1014 0.950 . S
C1022 C1020 1.391 . S
C1022 C1023 1.400 . S
C1023 C1022 1.400 . S
C1023 C1024 1.398 . S
C1023 C1029 1.491 . S
C1024 H1015 0.950 . S
C1024 C1023 1.398 . S
C1024 C1025 1.391 . S
C1025 H1013 0.950 . S
C1025 C1021 1.393 . S
C1025 C1024 1.391 . S
C1026 H1016 0.950 . S
C1026 C1027 1.386 . S
C1026 C1028 1.391 . S
C1027 C1026 1.386 . S
C1027 C1031 1.393 . S
C1028 H1017 0.950 . S
C1028 C1026 1.391 . S
C1028 C1029 1.400 . S
C1029 C1023 1.491 . S
C1029 C1028 1.400 . S
C1029 C1030 1.398 . S
C1030 H1018 0.950 . S
C1030 C1029 1.398 . S
C1030 C1031 1.391 . S
C1031 H1019 0.950 . S
C1031 C1027 1.393 . S
C1031 C1030 1.391 . S
H1032 C1040 0.950 . S
H1033 C1045 0.950 . S
H1034 C1042 0.950 . S
H1035 C1044 0.950 . S
H1036 C1046 0.950 . S
H1037 C1048 0.950 . S
H1038 C1050 0.950 . S
H1039 C1051 0.950 . S
C1040 H1032 0.950 . S
C1040 C1041 1.386 . S
C1040 C1042 1.391 . S
C1041 C1040 1.386 . S
C1041 C1045 1.393 . S
C1042 H1034 0.950 . S
C1042 C1040 1.391 . S
C1042 C1043 1.400 . S
C1043 C1042 1.400 . S
C1043 C1044 1.398 . S
C1043 C1049 1.491 . S
C1044 H1035 0.950 . S
C1044 C1043 1.398 . S
C1044 C1045 1.391 . S
C1045 H1033 0.950 . S
C1045 C1041 1.393 . S
C1045 C1044 1.391 . S
C1046 H1036 0.950 . S
C1046 C1047 1.386 . S
C1046 C1048 1.391 . S
C1047 C1046 1.386 . S
C1047 C1051 1.393 . S
C1048 H1037 0.950 . S
C1048 C1046 1.391 . S
C1048 C1049 1.400 . S
C1049 C1043 1.491 . S
C1049 C1048 1.400 . S
C1049 C1050 1.398 . S
C1050 H1038 0.950 . S
C1050 C1049 1.398 . S
C1050 C1051 1.391 . S
C1051 H1039 0.950 . S
C1051 C1047 1.393 . S
C1051 C1050 1.391 . S
H1052 C1060 0.950 . S
H1053 C1065 0.950 . S
H1054 C1062 0.950 . S
H1055 C1064 0.950 . S
H1056 C1066 0.950 . S
H1057 C1068 0.950 . S
H1058 C1070 0.950 . S
H1059 C1071 0.950 . S
C1060 H1052 0.950 . S
C1060 C1061 1.386 . S
C1060 C1062 1.391 . S
C1061 C1060 1.386 . S
C1061 C1065 1.393 . S
C1062 H1054 0.950 . S
C1062 C1060 1.391 . S
C1062 C1063 1.400 . S
C1063 C1062 1.400 . S
C1063 C1064 1.398 . S
C1063 C1069 1.491 . S
C1064 H1055 0.950 . S
C1064 C1063 1.398 . S
C1064 C1065 1.391 . S
C1065 H1053 0.950 . S
C1065 C1061 1.393 . S
C1065 C1064 1.391 . S
C1066 H1056 0.950 . S
C1066 C1067 1.386 . S
C1066 C1068 1.391 . S
C1067 C1066 1.386 . S
C1067 C1071 1.393 . S
C1068 H1057 0.950 . S
C1068 C1066 1.391 . S
C1068 C1069 1.400 . S
C1069 C1063 1.491 . S
C1069 C1068 1.400 . S
C1069 C1070 1.398 . S
C1070 H1058 0.950 . S
C1070 C1069 1.398 . S
C1070 C1071 1.391 . S
C1071 H1059 0.950 . S
C1071 C1067 1.393 . S
C1071 C1070 1.391 . S
H1072 C1080 0.950 . S
H1073 C1085 0.950 . S
H1074 C1082 0.950 . S
H1075 C1084 0.950 . S
H1076 C1086 0.950 . S
H1077 C1088 0.950 . S
H1078 C1090 0.950 . S
H1079 C1091 0.950 . S
C1080 H1072 0.950 . S
C1080 C1081 1.386 . S
C1080 C1082 1.391 . S
C1081 C1080 1.386 . S
C1081 C1085 1.393 . S
C1082 H1074 0.950 . S
C1082 C1080 1.391 . S
C1082 C1083 1.400 . S
C1083 C1082 1.400 . S
C1083 C1084 1.398 . S
C1083 C1089 1.491 . S
C1084 H1075 0.950 . S
C1084 C1083 1.398 . S
C1084 C1085 1.391 . S
C1085 H1073 0.950 . S
C1085 C1081 1.393 . S
C1085 C1084 1.391 . S
C1086 H1076 0.950 . S
C1086 C1087 1.386 . S
C1086 C1088 1.391 1_556 S
C1087 C1086 1.386 . S
C1087 C1091 1.393 . S
C1088 H1077 0.950 . S
C1088 C1086 1.391 1_554 S
C1088 C1089 1.400 . S
C1089 C1083 1.491 . S
C1089 C1088 1.400 . S
C1089 C1090 1.398 . S
C1090 H1078 0.950 . S
C1090 C1089 1.398 . S
C1090 C1091 1.391 1_554 S
C1091 H1079 0.950 . S
C1091 C1087 1.393 . S
C1091 C1090 1.391 1_556 S
H1092 C1100 0.950 . S
H1093 C1105 0.950 . S
H1094 C1102 0.950 . S
H1095 C1104 0.950 . S
H1096 C1106 0.950 . S
H1097 C1108 0.950 . S
H1098 C1110 0.950 . S
H1099 C1111 0.950 . S
C1100 H1092 0.950 . S
C1100 C1101 1.386 . S
C1100 C1102 1.391 . S
C1101 C1100 1.386 . S
C1101 C1105 1.393 . S
C1102 H1094 0.950 . S
C1102 C1100 1.391 . S
C1102 C1103 1.400 . S
C1103 C1102 1.400 . S
C1103 C1104 1.398 . S
C1103 C1109 1.491 . S
C1104 H1095 0.950 . S
C1104 C1103 1.398 . S
C1104 C1105 1.391 . S
C1105 H1093 0.950 . S
C1105 C1101 1.393 . S
C1105 C1104 1.391 . S
C1106 H1096 0.950 . S
C1106 C1107 1.386 . S
C1106 C1108 1.391 . S
C1107 C1106 1.386 . S
C1107 C1111 1.393 . S
C1108 H1097 0.950 . S
C1108 C1106 1.391 . S
C1108 C1109 1.400 . S
C1109 C1103 1.491 . S
C1109 C1108 1.400 . S
C1109 C1110 1.398 . S
C1110 H1098 0.950 . S
C1110 C1109 1.398 . S
C1110 C1111 1.391 . S
C1111 H1099 0.950 . S
C1111 C1107 1.393 . S
C1111 C1110 1.391 . S
H1112 C1120 0.950 . S
H1113 C1125 0.950 . S
H1114 C1122 0.950 . S
H1115 C1124 0.950 . S
H1116 C1126 0.950 . S
H1117 C1128 0.950 . S
H1118 C1130 0.950 . S
H1119 C1131 0.950 . S
C1120 H1112 0.950 . S
C1120 C1121 1.386 . S
C1120 C1122 1.391 . S
C1121 C1120 1.386 . S
C1121 C1125 1.393 . S
C1122 H1114 0.950 . S
C1122 C1120 1.391 . S
C1122 C1123 1.400 . S
C1123 C1122 1.400 . S
C1123 C1124 1.398 . S
C1123 C1129 1.491 . S
C1124 H1115 0.950 . S
C1124 C1123 1.398 . S
C1124 C1125 1.391 . S
C1125 H1113 0.950 . S
C1125 C1121 1.393 . S
C1125 C1124 1.391 . S
C1126 H1116 0.950 . S
C1126 C1127 1.386 . S
C1126 C1128 1.391 . S
C1127 C1126 1.386 . S
C1127 C1131 1.393 . S
C1128 H1117 0.950 . S
C1128 C1126 1.391 . S
C1128 C1129 1.400 . S
C1129 C1123 1.491 . S
C1129 C1128 1.400 . S
C1129 C1130 1.398 . S
C1130 H1118 0.950 . S
C1130 C1129 1.398 . S
C1130 C1131 1.391 . S
C1131 H1119 0.950 . S
C1131 C1127 1.393 . S
C1131 C1130 1.391 . S
H1132 C1140 0.950 . S
H1133 C1145 0.950 . S
H1134 C1142 0.950 . S
H1135 C1144 0.950 . S
H1136 C1146 0.950 . S
H1137 C1148 0.950 . S
H1138 C1150 0.950 . S
H1139 C1151 0.950 . S
C1140 H1132 0.950 . S
C1140 C1141 1.386 . S
C1140 C1142 1.391 . S
C1141 C1140 1.386 . S
C1141 C1145 1.393 . S
C1142 H1134 0.950 . S
C1142 C1140 1.391 . S
C1142 C1143 1.400 . S
C1143 C1142 1.400 . S
C1143 C1144 1.398 . S
C1143 C1149 1.491 . S
C1144 H1135 0.950 . S
C1144 C1143 1.398 . S
C1144 C1145 1.391 . S
C1145 H1133 0.950 . S
C1145 C1141 1.393 . S
C1145 C1144 1.391 . S
C1146 H1136 0.950 . S
C1146 C1147 1.386 . S
C1146 C1148 1.391 . S
C1147 C1146 1.386 . S
C1147 C1151 1.393 . S
C1148 H1137 0.950 . S
C1148 C1146 1.391 . S
C1148 C1149 1.400 . S
C1149 C1143 1.491 . S
C1149 C1148 1.400 . S
C1149 C1150 1.398 . S
C1150 H1138 0.950 . S
C1150 C1149 1.398 . S
C1150 C1151 1.391 . S
C1151 H1139 0.950 . S
C1151 C1147 1.393 . S
C1151 C1150 1.391 . S
H1152 C1160 0.950 . S
H1153 C1165 0.950 . S
H1154 C1162 0.950 . S
H1155 C1164 0.950 . S
H1156 C1166 0.950 . S
H1157 C1168 0.950 . S
H1158 C1170 0.950 . S
H1159 C1171 0.950 . S
C1160 H1152 0.950 . S
C1160 C1161 1.386 . S
C1160 C1162 1.391 . S
C1161 C1160 1.386 . S
C1161 C1165 1.393 . S
C1162 H1154 0.950 . S
C1162 C1160 1.391 . S
C1162 C1163 1.400 . S
C1163 C1162 1.400 . S
C1163 C1164 1.398 . S
C1163 C1169 1.491 . S
C1164 H1155 0.950 . S
C1164 C1163 1.398 . S
C1164 C1165 1.391 . S
C1165 H1153 0.950 . S
C1165 C1161 1.393 . S
C1165 C1164 1.391 . S
C1166 H1156 0.950 . S
C1166 C1167 1.386 . S
C1166 C1168 1.391 . S
C1167 C1166 1.386 . S
C1167 C1171 1.393 . S
C1168 H1157 0.950 . S
C1168 C1166 1.391 . S
C1168 C1169 1.400 . S
C1169 C1163 1.491 . S
C1169 C1168 1.400 . S
C1169 C1170 1.398 . S
C1170 H1158 0.950 . S
C1170 C1169 1.398 . S
C1170 C1171 1.391 . S
C1171 H1159 0.950 . S
C1171 C1167 1.393 . S
C1171 C1170 1.391 . S
H1172 C1180 0.950 . S
H1173 C1185 0.950 . S
H1174 C1182 0.950 1_545 S
H1175 C1184 0.950 . S
H1176 C1186 0.950 . S
H1177 C1188 0.950 . S
H1178 C1190 0.950 . S
H1179 C1191 0.950 . S
C1180 H1172 0.950 . S
C1180 C1181 1.386 . S
C1180 C1182 1.391 . S
C1181 C1180 1.386 . S
C1181 C1185 1.393 . S
C1182 H1174 0.950 1_565 S
C1182 C1180 1.391 . S
C1182 C1183 1.400 . S
C1183 C1182 1.400 . S
C1183 C1184 1.398 . S
C1183 C1189 1.491 . S
C1184 H1175 0.950 . S
C1184 C1183 1.398 . S
C1184 C1185 1.391 . S
C1185 H1173 0.950 . S
C1185 C1181 1.393 . S
C1185 C1184 1.391 . S
C1186 H1176 0.950 . S
C1186 C1187 1.386 1_565 S
C1186 C1188 1.391 . S
C1187 C1186 1.386 1_545 S
C1187 C1191 1.393 . S
C1188 H1177 0.950 . S
C1188 C1186 1.391 . S
C1188 C1189 1.400 . S
C1189 C1183 1.491 . S
C1189 C1188 1.400 . S
C1189 C1190 1.398 1_565 S
C1190 H1178 0.950 . S
C1190 C1189 1.398 1_545 S
C1190 C1191 1.391 . S
C1191 H1179 0.950 . S
C1191 C1187 1.393 . S
C1191 C1190 1.391 . S
H1192 C1200 0.950 . S
H1193 C1205 0.950 . S
H1194 C1202 0.950 . S
H1195 C1204 0.950 . S
H1196 C1206 0.950 . S
H1197 C1208 0.950 . S
H1198 C1210 0.950 . S
H1199 C1211 0.950 . S
C1200 H1192 0.950 . S
C1200 C1201 1.386 . S
C1200 C1202 1.391 . S
C1201 C1200 1.386 . S
C1201 C1205 1.393 . S
C1202 H1194 0.950 . S
C1202 C1200 1.391 . S
C1202 C1203 1.400 . S
C1203 C1202 1.400 . S
C1203 C1204 1.398 . S
C1203 C1209 1.491 . S
C1204 H1195 0.950 . S
C1204 C1203 1.398 . S
C1204 C1205 1.391 . S
C1205 H1193 0.950 . S
C1205 C1201 1.393 . S
C1205 C1204 1.391 . S
C1206 H1196 0.950 . S
C1206 C1207 1.386 . S
C1206 C1208 1.391 1_554 S
C1207 C1206 1.386 . S
C1207 C1211 1.393 . S
C1208 H1197 0.950 . S
C1208 C1206 1.391 1_556 S
C1208 C1209 1.400 . S
C1209 C1203 1.491 . S
C1209 C1208 1.400 . S
C1209 C1210 1.398 . S
C1210 H1198 0.950 . S
C1210 C1209 1.398 . S
C1210 C1211 1.391 1_556 S
C1211 H1199 0.950 . S
C1211 C1207 1.393 . S
C1211 C1210 1.391 1_554 S
H1212 C1220 0.950 . S
H1213 C1225 0.950 . S
H1214 C1222 0.950 . S
H1215 C1224 0.950 . S
H1216 C1226 0.950 . S
H1217 C1228 0.950 1_565 S
H1218 C1230 0.950 . S
H1219 C1231 0.950 . S
C1220 H1212 0.950 . S
C1220 C1221 1.386 1_545 S
C1220 C1222 1.391 . S
C1221 C1220 1.386 1_565 S
C1221 C1225 1.393 . S
C1222 H1214 0.950 . S
C1222 C1220 1.391 . S
C1222 C1223 1.400 . S
C1223 C1222 1.400 . S
C1223 C1224 1.398 1_545 S
C1223 C1229 1.491 . S
C1224 H1215 0.950 . S
C1224 C1223 1.398 1_565 S
C1224 C1225 1.391 . S
C1225 H1213 0.950 . S
C1225 C1221 1.393 . S
C1225 C1224 1.391 . S
C1226 H1216 0.950 . S
C1226 C1227 1.386 . S
C1226 C1228 1.391 . S
C1227 C1226 1.386 . S
C1227 C1231 1.393 . S
C1228 H1217 0.950 1_545 S
C1228 C1226 1.391 . S
C1228 C1229 1.400 . S
C1229 C1223 1.491 . S
C1229 C1228 1.400 . S
C1229 C1230 1.398 . S
C1230 H1218 0.950 . S
C1230 C1229 1.398 . S
C1230 C1231 1.391 . S
C1231 H1219 0.950 . S
C1231 C1227 1.393 . S
C1231 C1230 1.391 . S
H1232 C1240 0.950 . S
H1233 C1245 0.950 . S
H1234 C1242 0.950 . S
H1235 C1244 0.950 . S
H1236 C1246 0.950 . S
H1237 C1248 0.950 . S
H1238 C1250 0.950 . S
H1239 C1251 0.950 . S
C1240 H1232 0.950 . S
C1240 C1241 1.386 . S
C1240 C1242 1.391 . S
C1241 C1240 1.386 . S
C1241 C1245 1.393 . S
C1242 H1234 0.950 . S
C1242 C1240 1.391 . S
C1242 C1243 1.400 . S
C1243 C1242 1.400 . S
C1243 C1244 1.398 . S
C1243 C1249 1.491 . S
C1244 H1235 0.950 . S
C1244 C1243 1.398 . S
C1244 C1245 1.391 . S
C1245 H1233 0.950 . S
C1245 C1241 1.393 . S
C1245 C1244 1.391 . S
C1246 H1236 0.950 . S
C1246 C1247 1.386 . S
C1246 C1248 1.391 . S
C1247 C1246 1.386 . S
C1247 C1251 1.393 . S
C1248 H1237 0.950 . S
C1248 C1246 1.391 . S
C1248 C1249 1.400 . S
C1249 C1243 1.491 . S
C1249 C1248 1.400 . S
C1249 C1250 1.398 . S
C1250 H1238 0.950 . S
C1250 C1249 1.398 . S
C1250 C1251 1.391 . S
C1251 H1239 0.950 . S
C1251 C1247 1.393 . S
C1251 C1250 1.391 . S
H1252 C1260 0.950 . S
H1253 C1265 0.950 . S
H1254 C1262 0.950 . S
H1255 C1264 0.950 1_565 S
H1256 C1266 0.950 . S
H1257 C1268 0.950 . S
H1258 C1270 0.950 . S
H1259 C1271 0.950 . S
C1260 H1252 0.950 . S
C1260 C1261 1.386 . S
C1260 C1262 1.391 . S
C1261 C1260 1.386 . S
C1261 C1265 1.393 . S
C1262 H1254 0.950 . S
C1262 C1260 1.391 . S
C1262 C1263 1.400 . S
C1263 C1262 1.400 . S
C1263 C1264 1.398 . S
C1263 C1269 1.491 . S
C1264 H1255 0.950 1_545 S
C1264 C1263 1.398 . S
C1264 C1265 1.391 . S
C1265 H1253 0.950 . S
C1265 C1261 1.393 . S
C1265 C1264 1.391 . S
C1266 H1256 0.950 . S
C1266 C1267 1.386 . S
C1266 C1268 1.391 . S
C1267 C1266 1.386 . S
C1267 C1271 1.393 1_565 S
C1268 H1257 0.950 . S
C1268 C1266 1.391 . S
C1268 C1269 1.400 1_565 S
C1269 C1263 1.491 . S
C1269 C1268 1.400 1_545 S
C1269 C1270 1.398 . S
C1270 H1258 0.950 . S
C1270 C1269 1.398 . S
C1270 C1271 1.391 . S
C1271 H1259 0.950 . S
C1271 C1267 1.393 1_545 S
C1271 C1270 1.391 . S
H1272 C1280 0.950 . S
H1273 C1285 0.950 . S
H1274 C1282 0.950 . S
H1275 C1284 0.950 . S
H1276 C1286 0.950 . S
H1277 C1288 0.950 . S
H1278 C1290 0.950 . S
H1279 C1291 0.950 . S
C1280 H1272 0.950 . S
C1280 C1281 1.386 . S
C1280 C1282 1.391 . S
C1281 C1280 1.386 . S
C1281 C1285 1.393 . S
C1282 H1274 0.950 . S
C1282 C1280 1.391 . S
C1282 C1283 1.400 . S
C1283 C1282 1.400 . S
C1283 C1284 1.398 . S
C1283 C1289 1.491 . S
C1284 H1275 0.950 . S
C1284 C1283 1.398 . S
C1284 C1285 1.391 . S
C1285 H1273 0.950 . S
C1285 C1281 1.393 . S
C1285 C1284 1.391 . S
C1286 H1276 0.950 . S
C1286 C1287 1.386 . S
C1286 C1288 1.391 1_556 S
C1287 C1286 1.386 . S
C1287 C1291 1.393 . S
C1288 H1277 0.950 . S
C1288 C1286 1.391 1_554 S
C1288 C1289 1.400 . S
C1289 C1283 1.491 . S
C1289 C1288 1.400 . S
C1289 C1290 1.398 . S
C1290 H1278 0.950 . S
C1290 C1289 1.398 . S
C1290 C1291 1.391 1_554 S
C1291 H1279 0.950 . S
C1291 C1287 1.393 . S
C1291 C1290 1.391 1_556 S
H1292 C1300 0.950 . S
H1293 C1305 0.950 . S
H1294 C1302 0.950 . S
H1295 C1304 0.950 1_545 S
H1296 C1306 0.950 . S
H1297 C1308 0.950 . S
H1298 C1310 0.950 . S
H1299 C1311 0.950 . S
C1300 H1292 0.950 . S
C1300 C1301 1.386 . S
C1300 C1302 1.391 . S
C1301 C1300 1.386 . S
C1301 C1305 1.393 . S
C1302 H1294 0.950 . S
C1302 C1300 1.391 . S
C1302 C1303 1.400 . S
C1303 C1302 1.400 . S
C1303 C1304 1.398 . S
C1303 C1309 1.491 . S
C1304 H1295 0.950 1_565 S
C1304 C1303 1.398 . S
C1304 C1305 1.391 . S
C1305 H1293 0.950 . S
C1305 C1301 1.393 . S
C1305 C1304 1.391 . S
C1306 H1296 0.950 . S
C1306 C1307 1.386 . S
C1306 C1308 1.391 . S
C1307 C1306 1.386 . S
C1307 C1311 1.393 1_545 S
C1308 H1297 0.950 . S
C1308 C1306 1.391 . S
C1308 C1309 1.400 1_545 S
C1309 C1303 1.491 . S
C1309 C1308 1.400 1_565 S
C1309 C1310 1.398 . S
C1310 H1298 0.950 . S
C1310 C1309 1.398 . S
C1310 C1311 1.391 . S
C1311 H1299 0.950 . S
C1311 C1307 1.393 1_565 S
C1311 C1310 1.391 . S
C361 C15 0.641 . S
C367 C241 0.650 . S
C381 C32 0.604 . S
C387 C263 0.616 . S
C401 C65 0.630 . S
C407 C197 0.633 . S
C421 C216 0.596 . S
C427 C81 0.616 . S
C441 C103 0.674 . S
C447 C323 0.646 . S
C461 C345 0.656 . S
C467 C117 0.626 . S
C481 C285 0.666 . S
C487 C153 0.675 . S
C501 C169 0.633 . S
C507 C301 0.646 . S
C521 C7 2.111 . S
C527 C95 2.111 . S
C541 C30 2.077 . S
C547 C293 2.060 . S
C561 C59 2.127 . S
C567 C147 2.128 . S
C581 C73 2.102 . S
C587 C337 2.102 . S
C601 C131 2.061 . S
C607 C208 2.076 . S
C621 C257 2.111 . S
C627 C161 2.111 . S
C641 C279 2.115 . S
C647 C191 2.115 . S
C661 C235 2.133 . S
C667 C315 2.133 . S
C681 C10 1.779 . S
C687 C162 1.770 . S
C701 C37 1.804 . S
C707 C282 1.824 . S
C721 C52 1.771 . S
C727 C120 1.780 . S
C741 C76 1.780 1_455 S
C747 C316 1.779 . S
C761 C74 1.744 . S
C767 C98 1.752 . S
C781 C128 1.756 . S
C787 C194 1.765 . S
C801 C140 1.816 . S
C807 C29 1.804 . S
C821 C238 1.772 . S
C827 C164 1.781 1_655 S
C841 C184 1.779 . S
C847 C338 1.769 . S
C861 C96 1.813 . S
C867 C205 1.816 1_655 S
C881 C294 1.767 . S
C887 C228 1.777 . S
C901 C150 1.774 . S
C907 C250 1.772 . S
C921 C272 1.745 . S
C927 C260 1.751 . S
C941 C296 1.765 1_455 S
C947 C8 1.762 . S
C961 C219 1.803 . S
C967 C318 1.822 . S
C981 C340 1.780 . S
C987 C62 1.773 . S
C1001 C18 0.841 . S
C1007 C206 0.826 . S
C1021 C227 0.915 . S
C1027 C43 0.946 . S
C1041 C54 0.897 . S
C1047 C249 0.870 . S
C1061 C183 0.849 . S
C1067 C84 0.875 . S
C1081 C307 0.857 . S
C1087 C106 0.890 . S
C1101 C329 0.902 . S
C1107 C118 0.906 . S
C1121 C351 0.884 . S
C1127 C142 0.896 . S
C1141 C271 0.886 . S
C1147 C172 0.901 . S
C1161 C40 0.843 . S
C1167 C186 0.847 . S
C1181 C51 0.930 . S
C1187 C213 0.933 . S
C1201 C87 0.865 . S
C1207 C230 0.897 . S
C1221 C252 0.875 . S
C1227 C21 0.842 . S
C1241 C125 0.898 . S
C1247 C274 0.900 . S
C1261 C139 0.904 . S
C1267 C304 0.911 . S
C1281 C175 0.858 . S
C1287 C326 0.893 . S
C1301 C109 0.886 . S
C1307 C348 0.894 . S
