# Generated by pormake.
# Topology wjh, (4)-cn, num edge types: 1
# Building blocks:
#     Node 0, Type 0, BuildingBlock: KUFVIS_clean_sbu_0, # of connection points: 4
#     Node 1, Type 0, BuildingBlock: KUFVIS_clean_sbu_0, # of connection points: 4
#     Node 2, Type 0, BuildingBlock: KUFVIS_clean_sbu_0, # of connection points: 4
#     Node 3, Type 0, BuildingBlock: KUFVIS_clean_sbu_0, # of connection points: 4
#     Node 4, Type 0, BuildingBlock: KUFVIS_clean_sbu_0, # of connection points: 4
#     Node 5, Type 0, BuildingBlock: KUFVIS_clean_sbu_0, # of connection points: 4
#     Node 6, Type 0, BuildingBlock: KUFVIS_clean_sbu_0, # of connection points: 4
#     Node 7, Type 0, BuildingBlock: KUFVIS_clean_sbu_0, # of connection points: 4
#     Node 8, Type 0, BuildingBlock: KUFVIS_clean_sbu_0, # of connection points: 4
#     Node 9, Type 0, BuildingBlock: KUFVIS_clean_sbu_0, # of connection points: 4
#     Node 10, Type 0, BuildingBlock: KUFVIS_clean_sbu_0, # of connection points: 4
#     Node 11, Type 0, BuildingBlock: KUFVIS_clean_sbu_0, # of connection points: 4
#     Edge 12, Type (0, 0), BuildingBlock: MIFKUJ_clean_linker_0, # of connection points: 2
#     Edge 13, Type (0, 0), BuildingBlock: MIFKUJ_clean_linker_0, # of connection points: 2
#     Edge 14, Type (0, 0), BuildingBlock: MIFKUJ_clean_linker_0, # of connection points: 2
#     Edge 15, Type (0, 0), BuildingBlock: MIFKUJ_clean_linker_0, # of connection points: 2
#     Edge 16, Type (0, 0), BuildingBlock: MIFKUJ_clean_linker_0, # of connection points: 2
#     Edge 17, Type (0, 0), BuildingBlock: MIFKUJ_clean_linker_0, # of connection points: 2
#     Edge 18, Type (0, 0), BuildingBlock: MIFKUJ_clean_linker_0, # of connection points: 2
#     Edge 19, Type (0, 0), BuildingBlock: MIFKUJ_clean_linker_0, # of connection points: 2
#     Edge 20, Type (0, 0), BuildingBlock: MIFKUJ_clean_linker_0, # of connection points: 2
#     Edge 21, Type (0, 0), BuildingBlock: MIFKUJ_clean_linker_0, # of connection points: 2
#     Edge 22, Type (0, 0), BuildingBlock: MIFKUJ_clean_linker_0, # of connection points: 2
#     Edge 23, Type (0, 0), BuildingBlock: MIFKUJ_clean_linker_0, # of connection points: 2
#     Edge 24, Type (0, 0), BuildingBlock: MIFKUJ_clean_linker_0, # of connection points: 2
#     Edge 25, Type (0, 0), BuildingBlock: MIFKUJ_clean_linker_0, # of connection points: 2
#     Edge 26, Type (0, 0), BuildingBlock: MIFKUJ_clean_linker_0, # of connection points: 2
#     Edge 27, Type (0, 0), BuildingBlock: MIFKUJ_clean_linker_0, # of connection points: 2
#     Edge 28, Type (0, 0), BuildingBlock: MIFKUJ_clean_linker_0, # of connection points: 2
#     Edge 29, Type (0, 0), BuildingBlock: MIFKUJ_clean_linker_0, # of connection points: 2
#     Edge 30, Type (0, 0), BuildingBlock: MIFKUJ_clean_linker_0, # of connection points: 2
#     Edge 31, Type (0, 0), BuildingBlock: MIFKUJ_clean_linker_0, # of connection points: 2
#     Edge 32, Type (0, 0), BuildingBlock: MIFKUJ_clean_linker_0, # of connection points: 2
#     Edge 33, Type (0, 0), BuildingBlock: MIFKUJ_clean_linker_0, # of connection points: 2
#     Edge 34, Type (0, 0), BuildingBlock: MIFKUJ_clean_linker_0, # of connection points: 2
#     Edge 35, Type (0, 0), BuildingBlock: MIFKUJ_clean_linker_0, # of connection points: 2
# Relax obj value: 0.091
# Max RMSD: 0.110
# Mean RMSD: 0.110
data_MOF--net-wjh--node1-KUFVIS_clean_sbu_0--edge1-MIFKUJ_clean_linker_0
_symmetry_space_group_name_H-M    P1
_symmetry_Int_Tables_number       1
_symmetry_cell_setting            triclinic
loop_
_symmetry_equiv_pos_as_xyz
'x, y, z'
_cell_length_a     80.26159
_cell_length_b     80.298137
_cell_length_c     33.376992
_cell_angle_alpha  90.021141
_cell_angle_beta   90.012931
_cell_angle_gamma 119.96691
loop_
_atom_site_label
_atom_site_type_symbol
_atom_site_fract_x
_atom_site_fract_y
_atom_site_fract_z
_atom_type_partial_charge
Mn0 Mn 0.51114 0.14167 0.05642 0.0
Mn1 Mn 0.53705 0.11892 0.05603 0.0
C2 C 0.5202 0.13385 0.11593 0.0
C3 C 0.50989 0.17016 0.05768 0.0
C4 C 0.49414 0.09857 0.04025 0.0
O5 O 0.52133 0.14587 -0.00106 0.0
O6 O 0.53885 0.131 0.00342 0.0
C7 C 0.57585 0.15317 0.04899 0.0
N8 N 0.56321 0.1369 0.0689 0.0
C9 C 0.58716 0.14154 0.1179 0.0
C10 C 0.60046 0.15832 0.09784 0.0
C11 C 0.59477 0.16418 0.06328 0.0
C12 C 0.56852 0.13117 0.10224 0.0
H13 H 0.57152 0.15771 0.02242 0.0
C14 C 0.53249 0.14041 0.98402 0.0
O15 O 0.49528 0.1541 0.0456 0.0
O16 O 0.52539 0.1698 0.06682 0.0
N17 N 0.53667 0.10645 0.10516 0.0
C18 C 0.52194 0.09021 0.12157 0.0
C19 C 0.52525 0.08245 0.15635 0.0
C20 C 0.54366 0.09134 0.17366 0.0
C21 C 0.55861 0.10796 0.15609 0.0
C22 C 0.55452 0.11491 0.12118 0.0
H23 H 0.50779 0.08323 0.10821 0.0
O24 O 0.50586 0.13698 0.115 0.0
O25 O 0.52895 0.13554 0.08218 0.0
O26 O 0.49183 0.11312 0.04458 0.0
O27 O 0.51039 0.0994 0.04348 0.0
C28 C 0.57735 0.11801 0.17208 0.0
C29 C 0.5916 0.13483 0.15309 0.0
H30 H 0.61506 0.16687 0.10881 0.0
H31 H 0.60493 0.17714 0.0477 0.0
H32 H 0.51366 0.06961 0.16973 0.0
H33 H 0.54616 0.08528 0.20042 0.0
H34 H 0.58089 0.11305 0.19923 0.0
H35 H 0.60589 0.14257 0.16592 0.0
Mn36 Mn 0.37334 0.51243 0.22388 0.0
Mn37 Mn 0.42072 0.53638 0.20025 0.0
C38 C 0.39634 0.5248 0.27417 0.0
C39 C 0.34439 0.51196 0.23669 0.0
C40 C 0.39654 0.49295 0.19976 0.0
O41 O 0.37301 0.51888 0.16468 0.0
O42 O 0.40497 0.53462 0.15338 0.0
C43 C 0.42472 0.57461 0.186 0.0
N44 N 0.43059 0.56341 0.20496 0.0
C45 C 0.45669 0.59093 0.23695 0.0
C46 C 0.45103 0.6028 0.21753 0.0
C47 C 0.43492 0.59458 0.19209 0.0
C48 C 0.44592 0.57113 0.2298 0.0
H49 H 0.41243 0.56836 0.1662 0.0
C50 C 0.38762 0.52807 0.14202 0.0
O51 O 0.34459 0.4966 0.2253 0.0
O52 O 0.36089 0.52764 0.23931 0.0
N53 N 0.43817 0.53955 0.24238 0.0
C54 C 0.44121 0.526 0.26004 0.0
C55 C 0.4569 0.53182 0.28605 0.0
C56 C 0.46933 0.55148 0.29339 0.0
C57 C 0.46572 0.56513 0.27547 0.0
C58 C 0.45008 0.5585 0.24926 0.0
H59 H 0.43193 0.5109 0.25379 0.0
O60 O 0.37906 0.51088 0.28144 0.0
O61 O 0.39974 0.53129 0.2376 0.0
O62 O 0.38063 0.49179 0.20995 0.0
O63 O 0.41214 0.50888 0.19511 0.0
C64 C 0.47705 0.58504 0.28245 0.0
C65 C 0.47244 0.59793 0.26344 0.0
H66 H 0.45887 0.61821 0.22212 0.0
H67 H 0.43043 0.60364 0.17707 0.0
H68 H 0.45959 0.52119 0.29986 0.0
H69 H 0.48173 0.55598 0.31256 0.0
H70 H 0.48921 0.59058 0.30271 0.0
H71 H 0.48109 0.61318 0.26947 0.0
Mn72 Mn 0.85649 0.36917 0.38093 0.0
Mn73 Mn 0.8786 0.41759 0.37217 0.0
C74 C 0.86432 0.38818 0.43748 0.0
C75 C 0.82828 0.33928 0.38483 0.0
C76 C 0.89915 0.39478 0.36135 0.0
O77 O 0.85202 0.37308 0.32212 0.0
O78 O 0.8648 0.40537 0.32192 0.0
C79 C 0.84454 0.42256 0.36582 0.0
N80 N 0.86117 0.42654 0.3847 0.0
C81 C 0.8582 0.44794 0.43085 0.0
C82 C 0.84106 0.44411 0.41183 0.0
C83 C 0.83419 0.43133 0.37923 0.0
C84 C 0.86792 0.43882 0.41608 0.0
H85 H 0.83924 0.41281 0.34067 0.0
C86 C 0.85575 0.38885 0.3052 0.0
O87 O 0.84453 0.34071 0.37425 0.0
O88 O 0.8283 0.35521 0.39126 0.0
N89 N 0.89234 0.43123 0.41913 0.0
C90 C 0.90856 0.43262 0.43543 0.0
C91 C 0.91707 0.44454 0.46884 0.0
C92 C 0.90899 0.4551 0.48478 0.0
C93 C 0.89231 0.45345 0.46751 0.0
C94 C 0.88451 0.44141 0.43414 0.0
H95 H 0.91494 0.42467 0.42312 0.0
O96 O 0.86129 0.37076 0.43988 0.0
O97 O 0.86247 0.3939 0.40223 0.0
O98 O 0.88503 0.37827 0.37026 0.0
O99 O 0.89793 0.41002 0.3595 0.0
C100 C 0.88294 0.46302 0.4825 0.0
C101 C 0.86587 0.46024 0.46424 0.0
H102 H 0.833 0.4508 0.42215 0.0
H103 H 0.82096 0.42829 0.36441 0.0
H104 H 0.92987 0.44565 0.48218 0.0
H105 H 0.91567 0.46435 0.51041 0.0
H106 H 0.88858 0.47234 0.50842 0.0
H107 H 0.85865 0.46748 0.47636 0.0
Mn108 Mn 0.49204 0.8584 0.55432 0.0
Mn109 Mn 0.46457 0.87785 0.52893 0.0
C110 C 0.47878 0.86841 0.60395 0.0
C111 C 0.49451 0.83116 0.56877 0.0
C112 C 0.50826 0.89977 0.52533 0.0
O113 O 0.4859 0.85096 0.49526 0.0
O114 O 0.4654 0.86205 0.48453 0.0
C115 C 0.42672 0.84218 0.52344 0.0
N116 N 0.43797 0.86017 0.53854 0.0
C117 C 0.41107 0.85907 0.57278 0.0
C118 C 0.39914 0.84056 0.55738 0.0
C119 C 0.40702 0.83205 0.53277 0.0
C120 C 0.43059 0.86842 0.56256 0.0
H121 H 0.43273 0.83563 0.50446 0.0
C122 C 0.47392 0.85297 0.47359 0.0
O123 O 0.50937 0.84714 0.55725 0.0
O124 O 0.47824 0.83088 0.57042 0.0
N125 N 0.46213 0.89351 0.56901 0.0
C126 C 0.47579 0.91101 0.58309 0.0
C127 C 0.47027 0.92158 0.60774 0.0
C128 C 0.45079 0.91406 0.61758 0.0
C129 C 0.43707 0.89585 0.60353 0.0
C130 C 0.44336 0.88618 0.57833 0.0
H131 H 0.49072 0.91704 0.57497 0.0
O132 O 0.49333 0.86608 0.61157 0.0
O133 O 0.47201 0.86434 0.56765 0.0
O134 O 0.51105 0.88655 0.53934 0.0
O135 O 0.49155 0.89743 0.51867 0.0
C136 C 0.4174 0.88695 0.6134 0.0
C137 C 0.40443 0.8685 0.59831 0.0
H138 H 0.38394 0.83271 0.56451 0.0
H139 H 0.39793 0.81774 0.52092 0.0
H140 H 0.48094 0.93562 0.61855 0.0
H141 H 0.44648 0.92243 0.63571 0.0
H142 H 0.41214 0.89408 0.63297 0.0
H143 H 0.38939 0.86167 0.60663 0.0
Mn144 Mn 0.63533 0.49087 0.72222 0.0
Mn145 Mn 0.58704 0.46214 0.71591 0.0
C146 C 0.6172 0.47915 0.78005 0.0
C147 C 0.66611 0.49433 0.72523 0.0
C148 C 0.60675 0.50549 0.70951 0.0
O149 O 0.63175 0.48279 0.66327 0.0
O150 O 0.59948 0.46477 0.66355 0.0
C151 C 0.58728 0.42608 0.6986 0.0
N152 N 0.5809 0.43598 0.7209 0.0
C153 C 0.55997 0.40775 0.7591 0.0
C154 C 0.56622 0.3972 0.73641 0.0
C155 C 0.58 0.40643 0.70615 0.0
C156 C 0.56781 0.4273 0.75033 0.0
H157 H 0.5978 0.4331 0.67521 0.0
C158 C 0.61571 0.47227 0.64579 0.0
O159 O 0.66374 0.50864 0.71502 0.0
O160 O 0.65067 0.47804 0.73177 0.0
N161 N 0.5723 0.45774 0.76363 0.0
C162 C 0.5682 0.4701 0.78341 0.0
C163 C 0.55443 0.46309 0.81412 0.0
C164 C 0.54499 0.44347 0.82411 0.0
C165 C 0.54948 0.43105 0.80344 0.0
C166 C 0.56301 0.43876 0.77251 0.0
H167 H 0.57514 0.48511 0.77531 0.0
O168 O 0.63418 0.49424 0.78092 0.0
O169 O 0.61125 0.47087 0.74525 0.0
O170 O 0.62413 0.5089 0.71208 0.0
O171 O 0.5921 0.48861 0.71117 0.0
C172 C 0.54106 0.41131 0.81228 0.0
C173 C 0.54642 0.3997 0.79032 0.0
H174 H 0.56063 0.38204 0.74211 0.0
H175 H 0.58495 0.39841 0.6886 0.0
H176 H 0.55087 0.47274 0.82955 0.0
H177 H 0.53418 0.43803 0.84742 0.0
H178 H 0.53061 0.40496 0.83617 0.0
H179 H 0.54005 0.3846 0.79773 0.0
Mn180 Mn 0.14928 0.63326 0.88455 0.0
Mn181 Mn 0.12761 0.58491 0.87577 0.0
C182 C 0.13985 0.61409 0.94097 0.0
C183 C 0.17748 0.66296 0.89162 0.0
C184 C 0.10722 0.60761 0.86011 0.0
O185 O 0.15538 0.62952 0.82686 0.0
O186 O 0.14266 0.59723 0.82674 0.0
C187 C 0.16214 0.58058 0.87565 0.0
N188 N 0.14484 0.57622 0.89179 0.0
C189 C 0.147 0.55531 0.94057 0.0
C190 C 0.16478 0.55948 0.9243 0.0
C191 C 0.1724 0.57221 0.89177 0.0
C192 C 0.13741 0.56405 0.9232 0.0
H193 H 0.16806 0.5904 0.85072 0.0
C194 C 0.15213 0.6138 0.81037 0.0
O195 O 0.16171 0.66184 0.87841 0.0
O196 O 0.17703 0.64688 0.89862 0.0
N197 N 0.11264 0.57117 0.9215 0.0
C198 C 0.09575 0.56933 0.93485 0.0
C199 C 0.08637 0.55729 0.96764 0.0
C200 C 0.09437 0.54722 0.98622 0.0
C201 C 0.1117 0.54924 0.97183 0.0
C202 C 0.12028 0.56125 0.93873 0.0
H203 H 0.08946 0.57696 0.92063 0.0
O204 O 0.14275 0.63147 0.94279 0.0
O205 O 0.14271 0.60854 0.90643 0.0
O206 O 0.12112 0.62419 0.86963 0.0
O207 O 0.1086 0.59242 0.85983 0.0
C208 C 0.12091 0.54001 0.98933 0.0
C209 C 0.13858 0.54309 0.9738 0.0
H210 H 0.17278 0.55312 0.93675 0.0
H211 H 0.18616 0.57558 0.87918 0.0
H212 H 0.07298 0.55576 0.97854 0.0
H213 H 0.08711 0.53799 0.01156 0.0
H214 H 0.11467 0.53073 0.0151 0.0
H215 H 0.14567 0.53615 0.98789 0.0
Mn216 Mn 0.86537 0.49416 0.86423 0.0
Mn217 Mn 0.88773 0.468 0.87149 0.0
C218 C 0.874 0.48407 0.80669 0.0
C219 C 0.83705 0.49578 0.8596 0.0
C220 C 0.90831 0.51121 0.88285 0.0
O221 O 0.86025 0.48504 0.92269 0.0
O222 O 0.87491 0.46734 0.9223 0.0
C223 C 0.85275 0.42971 0.87885 0.0
N224 N 0.86984 0.44159 0.86066 0.0
C225 C 0.86681 0.41607 0.81798 0.0
C226 C 0.84922 0.40351 0.83639 0.0
C227 C 0.84208 0.41041 0.86666 0.0
C228 C 0.87665 0.43521 0.83094 0.0
H229 H 0.84729 0.43495 0.90233 0.0
C230 C 0.86536 0.47406 0.93979 0.0
O231 O 0.85311 0.51044 0.8715 0.0
O232 O 0.83731 0.48006 0.8523 0.0
N233 N 0.90104 0.46707 0.82486 0.0
C234 C 0.9178 0.48126 0.80905 0.0
C235 C 0.92713 0.4767 0.77911 0.0
C236 C 0.91911 0.45765 0.76563 0.0
C237 C 0.90167 0.44337 0.78178 0.0
C238 C 0.89334 0.44865 0.81242 0.0
H239 H 0.92427 0.49586 0.81992 0.0
O240 O 0.87091 0.49844 0.80573 0.0
O241 O 0.87169 0.47573 0.84129 0.0
O242 O 0.89388 0.51355 0.87665 0.0
O243 O 0.9073 0.49484 0.88227 0.0
C244 C 0.89234 0.42406 0.76901 0.0
C245 C 0.8748 0.41046 0.7868 0.0
H246 H 0.84098 0.3886 0.82722 0.0
H247 H 0.8284 0.40084 0.88059 0.0
H248 H 0.94068 0.48774 0.76703 0.0
H249 H 0.92657 0.4541 0.74318 0.0
H250 H 0.89841 0.41957 0.74521 0.0
H251 H 0.86757 0.39574 0.77623 0.0
Mn252 Mn 0.37479 0.85878 0.03504 0.0
Mn253 Mn 0.42301 0.88255 0.02212 0.0
C254 C 0.3879 0.86666 0.97145 0.0
C255 C 0.34557 0.82989 0.03896 0.0
C256 C 0.40081 0.90201 0.04915 0.0
O257 O 0.38452 0.85512 0.08936 0.0
O258 O 0.4162 0.87011 0.07519 0.0
C259 C 0.42881 0.84893 0.02051 0.0
N260 N 0.43096 0.86519 0.00293 0.0
C261 C 0.44793 0.86165 0.94715 0.0
C262 C 0.44598 0.84491 0.96473 0.0
C263 C 0.43633 0.83849 0.00151 0.0
C264 C 0.44009 0.87141 0.96742 0.0
H265 H 0.42141 0.84397 0.04878 0.0
C266 C 0.40197 0.86057 0.09876 0.0
O267 O 0.34734 0.84577 0.05313 0.0
O268 O 0.36098 0.83064 0.02497 0.0
N269 N 0.43179 0.89529 0.97167 0.0
C270 C 0.43177 0.91127 0.95799 0.0
C271 C 0.44085 0.91954 0.92152 0.0
C272 C 0.45002 0.91144 0.89973 0.0
C273 C 0.44982 0.89497 0.91435 0.0
C274 C 0.44074 0.8875 0.9511 0.0
H275 H 0.42495 0.91772 0.97483 0.0
O276 O 0.3705 0.8631 0.97777 0.0
O277 O 0.39705 0.8654 0.00227 0.0
O278 O 0.38399 0.88717 0.04809 0.0
O279 O 0.41611 0.90156 0.04086 0.0
C280 C 0.45814 0.8856 0.89378 0.0
C281 C 0.45709 0.86889 0.91005 0.0
H282 H 0.45174 0.83681 0.95016 0.0
H283 H 0.4347 0.82555 0.01519 0.0
H284 H 0.44089 0.93219 0.91031 0.0
H285 H 0.45717 0.91799 0.87183 0.0
H286 H 0.46515 0.89096 0.86519 0.0
H287 H 0.46329 0.86165 0.89366 0.0
Mn288 Mn 0.51281 0.36898 0.20501 0.0
Mn289 Mn 0.53928 0.4175 0.20903 0.0
C290 C 0.52358 0.38683 0.14692 0.0
C291 C 0.51102 0.33901 0.20231 0.0
C292 C 0.49602 0.39531 0.2212 0.0
O293 O 0.52194 0.37395 0.26332 0.0
O294 O 0.54031 0.40636 0.26119 0.0
C295 C 0.57781 0.42145 0.21748 0.0
N296 N 0.56555 0.42559 0.19741 0.0
C297 C 0.59015 0.44527 0.14992 0.0
C298 C 0.60308 0.44131 0.17023 0.0
C299 C 0.59686 0.42931 0.20408 0.0
C300 C 0.57135 0.43703 0.16467 0.0
H301 H 0.57307 0.41221 0.24347 0.0
C302 C 0.53335 0.39021 0.27936 0.0
O303 O 0.49635 0.34058 0.21343 0.0
O304 O 0.52687 0.35486 0.19513 0.0
N305 N 0.53963 0.43024 0.16031 0.0
C306 C 0.52517 0.43202 0.14326 0.0
C307 C 0.52896 0.44349 0.10898 0.0
C308 C 0.54759 0.45311 0.09277 0.0
C309 C 0.56225 0.45108 0.11085 0.0
C310 C 0.55767 0.43965 0.14526 0.0
H311 H 0.51085 0.42478 0.15577 0.0
O312 O 0.50894 0.36954 0.14595 0.0
O313 O 0.53142 0.39316 0.18169 0.0
O314 O 0.49358 0.37846 0.2157 0.0
O315 O 0.51249 0.41057 0.22023 0.0
C316 C 0.58118 0.45981 0.09588 0.0
C317 C 0.59509 0.45682 0.11529 0.0
H318 H 0.61777 0.44729 0.15993 0.0
H319 H 0.60674 0.42612 0.2198 0.0
H320 H 0.51757 0.44496 0.09515 0.0
H321 H 0.55047 0.46202 0.06644 0.0
H322 H 0.58512 0.46863 0.06918 0.0
H323 H 0.60952 0.46338 0.10318 0.0
Mn324 Mn 0.14179 0.5105 0.36707 0.0
Mn325 Mn 0.11629 0.53355 0.37481 0.0
C326 C 0.13099 0.5186 0.30981 0.0
C327 C 0.17125 0.51133 0.36037 0.0
C328 C 0.099 0.49084 0.38915 0.0
O329 O 0.14754 0.52081 0.42472 0.0
O330 O 0.13046 0.53612 0.42476 0.0
C331 C 0.14891 0.57345 0.38009 0.0
N332 N 0.13224 0.56016 0.36232 0.0
C333 C 0.13219 0.58405 0.31894 0.0
C334 C 0.14933 0.59803 0.33684 0.0
C335 C 0.15777 0.59268 0.36744 0.0
C336 C 0.12408 0.56511 0.33267 0.0
H337 H 0.15536 0.56939 0.40376 0.0
C338 C 0.14147 0.53103 0.44179 0.0
O339 O 0.15622 0.49627 0.37463 0.0
O340 O 0.1694 0.52608 0.35205 0.0
N341 N 0.1017 0.53245 0.32866 0.0
C342 C 0.08563 0.51706 0.31342 0.0
C343 C 0.07523 0.51995 0.28309 0.0
C344 C 0.08144 0.53862 0.2689 0.0
C345 C 0.09825 0.55416 0.28438 0.0
C346 C 0.10778 0.55045 0.31516 0.0
H347 H 0.08058 0.50275 0.32487 0.0
O348 O 0.1352 0.50497 0.30906 0.0
O349 O 0.13323 0.52717 0.3441 0.0
O350 O 0.11408 0.48971 0.38224 0.0
O351 O 0.09856 0.50647 0.38763 0.0
C352 C 0.10588 0.57319 0.27066 0.0
C353 C 0.12293 0.5881 0.2877 0.0
H354 H 0.1562 0.61288 0.32719 0.0
H355 H 0.17103 0.60338 0.38132 0.0
H356 H 0.0623 0.50787 0.27116 0.0
H357 H 0.07312 0.54088 0.24627 0.0
H358 H 0.09885 0.57648 0.24675 0.0
H359 H 0.12881 0.60263 0.27651 0.0
Mn360 Mn 0.63074 0.14173 0.53937 0.0
Mn361 Mn 0.583 0.12065 0.55764 0.0
C362 C 0.60921 0.13134 0.48638 0.0
C363 C 0.6603 0.16968 0.52815 0.0
C364 C 0.60571 0.09988 0.56604 0.0
O365 O 0.62986 0.14886 0.59785 0.0
O366 O 0.59777 0.13594 0.60444 0.0
C367 C 0.57984 0.1558 0.56168 0.0
N368 N 0.57389 0.13801 0.5462 0.0
C369 C 0.54913 0.13905 0.50755 0.0
C370 C 0.55482 0.15729 0.52345 0.0
C371 C 0.57032 0.16575 0.55045 0.0
C372 C 0.55919 0.12986 0.51979 0.0
H373 H 0.59167 0.16227 0.58261 0.0
C374 C 0.61495 0.14564 0.61768 0.0
O375 O 0.65947 0.15395 0.54064 0.0
O376 O 0.64407 0.16928 0.52371 0.0
N377 N 0.56652 0.1053 0.51514 0.0
C378 C 0.56355 0.08811 0.501 0.0
C379 C 0.54851 0.07768 0.47387 0.0
C380 C 0.53671 0.08503 0.46156 0.0
C381 C 0.54025 0.1029 0.47595 0.0
C382 C 0.55515 0.11242 0.50366 0.0
H383 H 0.57235 0.08222 0.5109 0.0
O384 O 0.6265 0.13424 0.48178 0.0
O385 O 0.60505 0.13501 0.52181 0.0
O386 O 0.62204 0.11367 0.55476 0.0
O387 O 0.59072 0.10147 0.56945 0.0
C388 C 0.52956 0.11162 0.46397 0.0
C389 C 0.5341 0.12975 0.47953 0.0
H390 H 0.54752 0.16501 0.51485 0.0
H391 H 0.57486 0.17986 0.5627 0.0
H392 H 0.54583 0.06386 0.463 0.0
H393 H 0.52488 0.07678 0.44123 0.0
H394 H 0.51799 0.10461 0.44245 0.0
H395 H 0.526 0.13647 0.46958 0.0
Mn396 Mn 0.48989 0.63123 0.70553 0.0
Mn397 Mn 0.46258 0.58312 0.69421 0.0
C398 C 0.48364 0.6177 0.64217 0.0
C399 C 0.49179 0.66124 0.70949 0.0
C400 C 0.50446 0.60314 0.72087 0.0
O401 O 0.4767 0.62241 0.76027 0.0
O402 O 0.45696 0.59105 0.74621 0.0
C403 C 0.42433 0.5801 0.68922 0.0
N404 N 0.43788 0.57657 0.6733 0.0
C405 C 0.41751 0.5599 0.61713 0.0
C406 C 0.40326 0.56321 0.6331 0.0
C407 C 0.40672 0.57342 0.66922 0.0
C408 C 0.43478 0.56694 0.63836 0.0
H409 H 0.42696 0.588 0.7169 0.0
C410 C 0.46298 0.60563 0.76943 0.0
O411 O 0.50558 0.65874 0.72304 0.0
O412 O 0.4767 0.64618 0.69576 0.0
N413 N 0.46631 0.57333 0.64479 0.0
C414 C 0.48187 0.57212 0.63249 0.0
C415 C 0.48083 0.56243 0.59673 0.0
C416 C 0.46377 0.55394 0.57418 0.0
C417 C 0.44797 0.55541 0.58735 0.0
C418 C 0.44977 0.56504 0.62349 0.0
H419 H 0.49495 0.5784 0.6499 0.0
O420 O 0.4981 0.6348 0.64801 0.0
O421 O 0.47316 0.60916 0.6733 0.0
O422 O 0.50789 0.62047 0.71807 0.0
O423 O 0.48787 0.58851 0.71458 0.0
C424 C 0.43056 0.54784 0.5659 0.0
C425 C 0.41538 0.55018 0.58065 0.0
H426 H 0.38968 0.55811 0.61772 0.0
H427 H 0.39584 0.57614 0.6816 0.0
H428 H 0.4931 0.56139 0.58671 0.0
H429 H 0.46298 0.54632 0.54683 0.0
H430 H 0.42878 0.54043 0.53775 0.0
H431 H 0.40219 0.54457 0.56356 0.0
H432 H 0.50158 0.10995 0.17819 0.0
H433 H 0.51551 0.10872 0.24294 0.0
H434 H 0.57086 0.15482 0.20454 0.0
H435 H 0.55675 0.15645 0.14074 0.0
H436 H 0.54249 0.10043 0.26045 0.0
H437 H 0.59642 0.18138 0.28228 0.0
H438 H 0.59949 0.21271 0.26538 0.0
H439 H 0.538 0.1867 0.26169 0.0
H440 H 0.53456 0.15528 0.27907 0.0
H441 H 0.60566 0.10992 0.42055 0.0
H442 H 0.59045 0.10959 0.35712 0.0
H443 H 0.57023 0.14559 0.40933 0.0
H444 H 0.58877 0.14889 0.46936 0.0
H445 H 0.58024 0.15815 0.34477 0.0
H446 H 0.53779 0.08867 0.37658 0.0
H447 H 0.53209 0.05618 0.39377 0.0
H448 H 0.56624 0.05806 0.2931 0.0
H449 H 0.57181 0.09031 0.27524 0.0
C450 C 0.51669 0.1198 0.18392 0.0
C451 C 0.52834 0.13286 0.15446 0.0
C452 C 0.52463 0.11908 0.22066 0.0
C453 C 0.54422 0.13169 0.22857 0.0
C454 C 0.55569 0.1451 0.19933 0.0
C455 C 0.54772 0.14586 0.16277 0.0
C456 C 0.55273 0.13067 0.26717 0.0
C457 C 0.55067 0.11301 0.27907 0.0
C458 C 0.56334 0.14706 0.2915 0.0
C459 C 0.56525 0.16595 0.28162 0.0
C460 C 0.58356 0.18237 0.27803 0.0
C461 C 0.58536 0.20014 0.26833 0.0
C462 C 0.56895 0.20168 0.26235 0.0
C463 C 0.5507 0.18547 0.26619 0.0
C464 C 0.54881 0.16768 0.27593 0.0
C465 C 0.59773 0.11754 0.41837 0.0
C466 C 0.5973 0.12848 0.45072 0.0
C467 C 0.5887 0.11709 0.38222 0.0
C468 C 0.57838 0.12693 0.37828 0.0
C469 C 0.57787 0.13768 0.41112 0.0
C470 C 0.58791 0.13907 0.44619 0.0
C471 C 0.56951 0.1276 0.3394 0.0
C472 C 0.57184 0.14538 0.32676 0.0
C473 C 0.55885 0.11122 0.31473 0.0
C474 C 0.55549 0.09192 0.3253 0.0
C475 C 0.5442 0.08213 0.35861 0.0
C476 C 0.54095 0.0638 0.3683 0.0
C477 C 0.54903 0.0552 0.3449 0.0
C478 C 0.5601 0.06478 0.31137 0.0
C479 C 0.56321 0.08302 0.30134 0.0
H480 H 0.54658 0.04106 0.3526 0.0
H481 H 0.57038 0.21544 0.2548 0.0
H482 H 0.41799 0.5633 0.28406 0.0
H483 H 0.43822 0.58073 0.34087 0.0
H484 H 0.41879 0.52679 0.40257 0.0
H485 H 0.40134 0.50947 0.34263 0.0
H486 H 0.42965 0.58588 0.40544 0.0
H487 H 0.43877 0.52772 0.47957 0.0
H488 H 0.44604 0.50185 0.46529 0.0
H489 H 0.48067 0.5337 0.36485 0.0
H490 H 0.47333 0.55974 0.37856 0.0
H491 H 0.44881 0.60652 0.61021 0.0
H492 H 0.4373 0.59313 0.54357 0.0
H493 H 0.49349 0.60167 0.5145 0.0
H494 H 0.50472 0.61434 0.58225 0.0
H495 H 0.46797 0.56778 0.4927 0.0
H496 H 0.47531 0.62959 0.47235 0.0
H497 H 0.47178 0.65774 0.48734 0.0
H498 H 0.41039 0.62272 0.4783 0.0
H499 H 0.41353 0.59428 0.46385 0.0
C500 C 0.41921 0.55522 0.30868 0.0
C501 C 0.40925 0.5351 0.30789 0.0
C502 C 0.43032 0.56516 0.34181 0.0
C503 C 0.43058 0.55521 0.37629 0.0
C504 C 0.41989 0.53498 0.37603 0.0
C505 C 0.40959 0.52503 0.34192 0.0
C506 C 0.44035 0.56614 0.41339 0.0
C507 C 0.43814 0.58189 0.42419 0.0
C508 C 0.4514 0.56116 0.43861 0.0
C509 C 0.45518 0.54536 0.42934 0.0
C510 C 0.44779 0.52909 0.45423 0.0
C511 C 0.45188 0.51442 0.44624 0.0
C512 C 0.46362 0.51604 0.41384 0.0
C513 C 0.47131 0.53236 0.38946 0.0
C514 C 0.46708 0.54698 0.3971 0.0
C515 C 0.45862 0.60541 0.58952 0.0
C516 C 0.47735 0.61068 0.60139 0.0
C517 C 0.45216 0.59808 0.55127 0.0
C518 C 0.46455 0.59648 0.52387 0.0
C519 C 0.48364 0.60266 0.53523 0.0
C520 C 0.49006 0.6099 0.57372 0.0
C521 C 0.45718 0.58725 0.4844 0.0
C522 C 0.45964 0.57177 0.47355 0.0
C523 C 0.44663 0.59267 0.45891 0.0
C524 C 0.44466 0.60977 0.46725 0.0
C525 C 0.46105 0.62786 0.47379 0.0
C526 C 0.45912 0.64388 0.48217 0.0
C527 C 0.44087 0.64201 0.48382 0.0
C528 C 0.42451 0.62414 0.47702 0.0
C529 C 0.42636 0.60807 0.46867 0.0
H530 H 0.43941 0.65443 0.49033 0.0
H531 H 0.46688 0.50473 0.40781 0.0
H532 H 0.85583 0.44635 0.78736 0.0
H533 H 0.85701 0.43183 0.72434 0.0
H534 H 0.8908 0.48857 0.67308 0.0
H535 H 0.89263 0.50275 0.73872 0.0
H536 H 0.84256 0.4296 0.66164 0.0
H537 H 0.9069 0.49054 0.59065 0.0
H538 H 0.93943 0.5176 0.60537 0.0
H539 H 0.94688 0.48385 0.69575 0.0
H540 H 0.91414 0.45669 0.68162 0.0
H541 H 0.84182 0.40293 0.45842 0.0
H542 H 0.84396 0.42088 0.51943 0.0
H543 H 0.89081 0.41355 0.56127 0.0
H544 H 0.88895 0.39603 0.49956 0.0
H545 H 0.8987 0.44973 0.57228 0.0
H546 H 0.84512 0.38649 0.59862 0.0
H547 H 0.81372 0.35783 0.58422 0.0
H548 H 0.78678 0.3925 0.58497 0.0
H549 H 0.81809 0.42142 0.59887 0.0
C550 C 0.8647 0.45559 0.76341 0.0
C551 C 0.87539 0.47551 0.76875 0.0
C552 C 0.86486 0.44735 0.72676 0.0
C553 C 0.87444 0.45896 0.69343 0.0
C554 C 0.88424 0.47907 0.6983 0.0
C555 C 0.88502 0.48724 0.73578 0.0
C556 C 0.87288 0.44977 0.65362 0.0
C557 C 0.85497 0.43406 0.64242 0.0
C558 C 0.88871 0.45567 0.62725 0.0
C559 C 0.90808 0.47191 0.63608 0.0
C560 C 0.91546 0.48901 0.6139 0.0
C561 C 0.93386 0.50434 0.62215 0.0
C562 C 0.9451 0.50254 0.65195 0.0
C563 C 0.938 0.48535 0.67332 0.0
C564 C 0.91951 0.47007 0.66545 0.0
C565 C 0.85269 0.4054 0.48057 0.0
C566 C 0.86569 0.39882 0.47409 0.0
C567 C 0.85377 0.41543 0.51549 0.0
C568 C 0.86756 0.41856 0.54484 0.0
C569 C 0.8802 0.41144 0.53879 0.0
C570 C 0.87911 0.40142 0.50379 0.0
C571 C 0.86882 0.42918 0.58198 0.0
C572 C 0.88645 0.44533 0.59192 0.0
C573 C 0.85283 0.42351 0.60745 0.0
C574 C 0.83397 0.40613 0.59939 0.0
C575 C 0.83252 0.38801 0.59544 0.0
C576 C 0.81474 0.37173 0.58741 0.0
C577 C 0.79827 0.37335 0.58358 0.0
C578 C 0.79955 0.39127 0.58789 0.0
C579 C 0.81731 0.40761 0.59587 0.0
H580 H 0.78452 0.36073 0.57736 0.0
H581 H 0.95936 0.51439 0.65824 0.0
H582 H 0.44042 0.84991 0.6163 0.0
H583 H 0.42311 0.85361 0.67212 0.0
H584 H 0.47744 0.89189 0.72936 0.0
H585 H 0.49436 0.89109 0.66943 0.0
H586 H 0.41921 0.84207 0.73753 0.0
H587 H 0.47612 0.91159 0.80595 0.0
H588 H 0.50194 0.94418 0.78794 0.0
H589 H 0.46968 0.94387 0.68517 0.0
H590 H 0.44368 0.91097 0.70255 0.0
H591 H 0.40055 0.84399 0.94111 0.0
H592 H 0.41362 0.84547 0.87443 0.0
H593 H 0.40163 0.89051 0.84186 0.0
H594 H 0.38925 0.88952 0.90978 0.0
H595 H 0.43597 0.9 0.81867 0.0
H596 H 0.37501 0.84361 0.80339 0.0
H597 H 0.34782 0.81178 0.82129 0.0
H598 H 0.38481 0.78749 0.81554 0.0
H599 H 0.41229 0.81923 0.79815 0.0
C600 C 0.4485 0.86026 0.63946 0.0
C601 C 0.46854 0.87132 0.63724 0.0
C602 C 0.43867 0.86193 0.67217 0.0
C603 C 0.44878 0.87346 0.70523 0.0
C604 C 0.46903 0.88381 0.70378 0.0
C605 C 0.47878 0.88305 0.66975 0.0
C606 C 0.43808 0.87282 0.7423 0.0
C607 C 0.42287 0.85488 0.75483 0.0
C608 C 0.44271 0.88931 0.76578 0.0
C609 C 0.45821 0.90882 0.75495 0.0
C610 C 0.47459 0.91845 0.77941 0.0
C611 C 0.48926 0.9369 0.76927 0.0
C612 C 0.48753 0.94597 0.73509 0.0
C613 C 0.47109 0.93663 0.71116 0.0
C614 C 0.45647 0.91807 0.72096 0.0
C615 C 0.4008 0.85424 0.91964 0.0
C616 C 0.39462 0.86711 0.93053 0.0
C617 C 0.40798 0.85488 0.8814 0.0
C618 C 0.40848 0.868 0.85297 0.0
C619 C 0.40145 0.88033 0.86339 0.0
C620 C 0.39436 0.87975 0.90194 0.0
C621 C 0.41732 0.86943 0.81327 0.0
C622 C 0.43225 0.88737 0.80074 0.0
C623 C 0.41226 0.85302 0.78949 0.0
C624 C 0.39573 0.83384 0.79966 0.0
C625 C 0.37737 0.83151 0.80616 0.0
C626 C 0.3619 0.81348 0.8162 0.0
C627 C 0.36459 0.79763 0.8196 0.0
C628 C 0.38274 0.79978 0.81289 0.0
C629 C 0.39827 0.81778 0.80288 0.0
H630 H 0.3526 0.78369 0.82739 0.0
H631 H 0.49887 0.96028 0.72731 0.0
H632 H 0.50821 0.3943 0.08155 0.0
H633 H 0.5251 0.41025 0.01944 0.0
H634 H 0.57757 0.41547 0.06684 0.0
H635 H 0.56058 0.39918 0.12822 0.0
H636 H 0.55485 0.44592 0.01001 0.0
H637 H 0.60487 0.41438 0.99065 0.0
H638 H 0.60549 0.38463 0.006 0.0
H639 H 0.5438 0.35221 0.00148 0.0
H640 H 0.54283 0.38171 0.98559 0.0
H641 H 0.6172 0.49792 0.84763 0.0
H642 H 0.6044 0.48403 0.91296 0.0
H643 H 0.58175 0.42709 0.86265 0.0
H644 H 0.59828 0.44143 0.80023 0.0
H645 H 0.59116 0.42397 0.92647 0.0
H646 H 0.54888 0.45582 0.90466 0.0
H647 H 0.54611 0.48483 0.89358 0.0
H648 H 0.58905 0.51495 0.98365 0.0
H649 H 0.5919 0.48607 0.995 0.0
C650 C 0.52332 0.39884 0.07837 0.0
C651 C 0.53337 0.3962 0.1097 0.0
C652 C 0.53294 0.40793 0.04314 0.0
C653 C 0.55257 0.41402 0.0386 0.0
C654 C 0.5624 0.41073 0.06955 0.0
C655 C 0.55278 0.40167 0.10468 0.0
C656 C 0.56289 0.42433 0.00197 0.0
C657 C 0.56267 0.44107 0.99145 0.0
C658 C 0.57338 0.41817 0.9783 0.0
C659 C 0.57379 0.40029 0.98733 0.0
C660 C 0.59145 0.40089 0.99279 0.0
C661 C 0.59186 0.38408 0.00161 0.0
C662 C 0.57469 0.36656 0.00485 0.0
C663 C 0.55708 0.3658 -0.00088 0.0
C664 C 0.55659 0.38257 0.99025 0.0
C665 C 0.60933 0.48242 0.85075 0.0
C666 C 0.60746 0.47058 0.81812 0.0
C667 C 0.60158 0.47439 0.88807 0.0
C668 C 0.591 0.45431 0.89307 0.0
C669 C 0.58956 0.44261 0.86025 0.0
C670 C 0.59842 0.45072 0.82386 0.0
C671 C 0.58221 0.4452 0.93236 0.0
C672 C 0.58311 0.42882 0.94429 0.0
C673 C 0.57223 0.45165 0.95736 0.0
C674 C 0.57107 0.46912 0.94937 0.0
C675 C 0.558 0.46881 0.92118 0.0
C676 C 0.55631 0.48514 0.91517 0.0
C677 C 0.56762 0.50182 0.93743 0.0
C678 C 0.58044 0.5021 0.96613 0.0
C679 C 0.58204 0.48575 0.97242 0.0
H680 H 0.56631 0.51445 0.93273 0.0
H681 H 0.57504 0.35356 0.01171 0.0
H682 H 0.14733 0.55621 0.29138 0.0
H683 H 0.14546 0.57056 0.22888 0.0
H684 H 0.11457 0.51394 0.1756 0.0
H685 H 0.11336 0.49965 0.24095 0.0
H686 H 0.16089 0.57403 0.16723 0.0
H687 H 0.09865 0.5127 0.08914 0.0
H688 H 0.06641 0.48456 0.10053 0.0
H689 H 0.05687 0.5142 0.19692 0.0
H690 H 0.08928 0.54253 0.18595 0.0
H691 H 0.16323 0.60092 0.96456 0.0
H692 H 0.16095 0.58319 0.02584 0.0
H693 H 0.11181 0.58767 0.06313 0.0
H694 H 0.11383 0.60499 0.00095 0.0
H695 H 0.1056 0.55202 0.07455 0.0
H696 H 0.15659 0.61625 0.1041 0.0
H697 H 0.18741 0.64596 0.09181 0.0
H698 H 0.21709 0.6139 0.09478 0.0
H699 H 0.18639 0.58395 0.10658 0.0
C700 C 0.13891 0.54685 0.26712 0.0
C701 C 0.1292 0.52688 0.27183 0.0
C702 C 0.13838 0.55504 0.23075 0.0
C703 C 0.12951 0.54346 0.19697 0.0
C704 C 0.12064 0.52335 0.20117 0.0
C705 C 0.1202 0.51514 0.23846 0.0
C706 C 0.131 0.55281 0.15742 0.0
C707 C 0.14864 0.56918 0.14736 0.0
C708 C 0.11542 0.54641 0.13016 0.0
C709 C 0.09637 0.52941 0.13758 0.0
C710 C 0.0897 0.5131 0.11299 0.0
C711 C 0.07146 0.49716 0.11933 0.0
C712 C 0.05971 0.49753 0.14979 0.0
C713 C 0.06615 0.51386 0.17384 0.0
C714 C 0.08445 0.52978 0.16776 0.0
C715 C 0.15185 0.5979 0.98578 0.0
C716 C 0.1383 0.60364 0.97789 0.0
C717 C 0.15068 0.588 0.02087 0.0
C718 C 0.13623 0.58415 0.04903 0.0
C719 C 0.12297 0.59038 0.04158 0.0
C720 C 0.12415 0.60028 0.00634 0.0
C721 C 0.13494 0.57363 0.08628 0.0
C722 C 0.11763 0.55687 0.09505 0.0
C723 C 0.15069 0.57985 0.1127 0.0
C724 C 0.16918 0.59785 0.10585 0.0
C725 C 0.16968 0.61553 0.10186 0.0
C726 C 0.18712 0.63241 0.09503 0.0
C727 C 0.20419 0.63181 0.09242 0.0
C728 C 0.20386 0.61434 0.09676 0.0
C729 C 0.18644 0.59741 0.10355 0.0
H730 H 0.21768 0.6449 0.08712 0.0
H731 H 0.04555 0.48522 0.15457 0.0
H732 H 0.47826 0.30392 0.19388 0.0
H733 H 0.47591 0.27427 0.16792 0.0
H734 H 0.53783 0.30205 0.16356 0.0
H735 H 0.54022 0.33174 0.18843 0.0
H736 H 0.52351 0.28494 0.09538 0.0
H737 H 0.50974 0.26638 0.23397 0.0
H738 H 0.49242 0.2607 0.29804 0.0
H739 H 0.43973 0.21974 0.24087 0.0
H740 H 0.4567 0.22537 0.17631 0.0
H741 H 0.53925 0.20626 0.07363 0.0
H742 H 0.53698 0.23407 0.09542 0.0
H743 H 0.4753 0.20151 0.08242 0.0
H744 H 0.47747 0.17345 0.06053 0.0
H745 H 0.48642 0.21996 0.15539 0.0
H746 H 0.50125 0.23696 0.01771 0.0
H747 H 0.5191 0.24248 0.95443 0.0
H748 H 0.57043 0.28644 0.0108 0.0
H749 H 0.55296 0.28099 0.07463 0.0
C750 C 0.49136 0.30357 0.18813 0.0
C751 C 0.50942 0.32019 0.1932 0.0
C752 C 0.49001 0.2866 0.17325 0.0
C753 C 0.5067 0.28586 0.16372 0.0
C754 C 0.52473 0.30225 0.17037 0.0
C755 C 0.52608 0.31921 0.18485 0.0
C756 C 0.50556 0.26849 0.14482 0.0
C757 C 0.51557 0.27078 0.10883 0.0
C758 C 0.49466 0.24984 0.16146 0.0
C759 C 0.48444 0.24646 0.20023 0.0
C760 C 0.49443 0.25629 0.23499 0.0
C761 C 0.48468 0.25305 0.27141 0.0
C762 C 0.46497 0.23991 0.2735 0.0
C763 C 0.45498 0.22994 0.23919 0.0
C764 C 0.46466 0.23314 0.20269 0.0
C765 C 0.5252 0.20507 0.07474 0.0
C766 C 0.50854 0.18765 0.06525 0.0
C767 C 0.52393 0.22101 0.08719 0.0
C768 C 0.50597 0.21992 0.09046 0.0
C769 C 0.48931 0.20268 0.08011 0.0
C770 C 0.49058 0.18671 0.06732 0.0
C771 C 0.50472 0.23655 0.10655 0.0
C772 C 0.49423 0.23411 0.14188 0.0
C773 C 0.51526 0.25509 0.08945 0.0
C774 C 0.52582 0.25845 0.05106 0.0
C775 C 0.51638 0.2477 0.01672 0.0
C776 C 0.52643 0.25083 0.98072 0.0
C777 C 0.5459 0.26477 0.97862 0.0
C778 C 0.55535 0.27563 0.01249 0.0
C779 C 0.54538 0.27254 0.04857 0.0
H780 H 0.55365 0.26718 0.95072 0.0
H781 H 0.45746 0.23743 0.30172 0.0
H782 H 0.30731 0.4852 0.21674 0.0
H783 H 0.2777 0.48475 0.23681 0.0
H784 H 0.31122 0.53647 0.30596 0.0
H785 H 0.34072 0.53753 0.28409 0.0
H786 H 0.25962 0.48066 0.30094 0.0
H787 H 0.29096 0.56347 0.31354 0.0
H788 H 0.31556 0.59317 0.28067 0.0
H789 H 0.31147 0.56124 0.1743 0.0
H790 H 0.28667 0.53141 0.20632 0.0
H791 H 0.1888 0.49425 0.40016 0.0
H792 H 0.21829 0.49428 0.38053 0.0
H793 H 0.22185 0.52646 0.27397 0.0
H794 H 0.19361 0.52787 0.29555 0.0
H795 H 0.2546 0.53969 0.29536 0.0
H796 H 0.20535 0.47398 0.27946 0.0
H797 H 0.17818 0.44253 0.29966 0.0
H798 H 0.21336 0.4372 0.38994 0.0
H799 H 0.24067 0.46873 0.37057 0.0
C800 C 0.30832 0.49656 0.2359 0.0
C801 C 0.32635 0.51154 0.24837 0.0
C802 C 0.29137 0.49625 0.24758 0.0
C803 C 0.2921 0.51076 0.27246 0.0
C804 C 0.31015 0.52541 0.28579 0.0
C805 C 0.32707 0.52597 0.27338 0.0
C806 C 0.27407 0.51061 0.2846 0.0
C807 C 0.2585 0.49356 0.29955 0.0
C808 C 0.27227 0.52726 0.28208 0.0
C809 C 0.2871 0.54518 0.26252 0.0
C810 C 0.29527 0.5628 0.2831 0.0
C811 C 0.30925 0.57966 0.26462 0.0
C812 C 0.31512 0.57908 0.22548 0.0
C813 C 0.30697 0.56166 0.20467 0.0
C814 C 0.29296 0.54477 0.22299 0.0
C815 C 0.19605 0.50142 0.37275 0.0
C816 C 0.18903 0.51115 0.34949 0.0
C817 C 0.2128 0.50127 0.36121 0.0
C818 C 0.22232 0.51007 0.32518 0.0
C819 C 0.21507 0.51967 0.30201 0.0
C820 C 0.19884 0.52044 0.3143 0.0
C821 C 0.23993 0.50967 0.31155 0.0
C822 C 0.25556 0.5267 0.29658 0.0
C823 C 0.24136 0.49274 0.31213 0.0
C824 C 0.22498 0.47379 0.32383 0.0
C825 C 0.20724 0.46615 0.30379 0.0
C826 C 0.19183 0.44831 0.31506 0.0
C827 C 0.19403 0.4379 0.34614 0.0
C828 C 0.21167 0.44529 0.36592 0.0
C829 C 0.22712 0.46313 0.35479 0.0
H830 H 0.18208 0.42409 0.35483 0.0
H831 H 0.32596 0.59214 0.21124 0.0
H832 H 0.66585 0.20488 0.50718 0.0
H833 H 0.69506 0.23234 0.48128 0.0
H834 H 0.72543 0.201 0.495 0.0
H835 H 0.69616 0.17344 0.5218 0.0
H836 H 0.74788 0.238 0.51663 0.0
H837 H 0.70906 0.20516 0.4032 0.0
H838 H 0.67957 0.18971 0.36218 0.0
H839 H 0.67954 0.24309 0.35556 0.0
H840 H 0.70889 0.25881 0.39706 0.0
H841 H 0.82584 0.30419 0.39339 0.0
H842 H 0.79788 0.27407 0.41562 0.0
H843 H 0.76371 0.30181 0.41808 0.0
H844 H 0.79157 0.33194 0.39621 0.0
H845 H 0.74412 0.26489 0.38525 0.0
H846 H 0.78179 0.29685 0.50254 0.0
H847 H 0.81134 0.31217 0.54342 0.0
H848 H 0.81368 0.2599 0.54151 0.0
H849 H 0.78427 0.24435 0.5001 0.0
C850 C 0.67877 0.20384 0.50506 0.0
C851 C 0.67863 0.1869 0.51633 0.0
C852 C 0.69546 0.21954 0.48999 0.0
C853 C 0.71236 0.21862 0.48532 0.0
C854 C 0.71252 0.20202 0.49806 0.0
C855 C 0.69579 0.18628 0.5134 0.0
C856 C 0.72966 0.2349 0.46645 0.0
C857 C 0.74712 0.24365 0.48759 0.0
C858 C 0.72868 0.24249 0.42874 0.0
C859 C 0.71109 0.23313 0.40353 0.0
C860 C 0.70269 0.21358 0.39324 0.0
C861 C 0.68601 0.20477 0.36987 0.0
C862 C 0.67766 0.2154 0.35635 0.0
C863 C 0.68601 0.23487 0.36609 0.0
C864 C 0.70268 0.24374 0.3895 0.0
C865 C 0.8123 0.30379 0.39809 0.0
C866 C 0.81093 0.32046 0.39315 0.0
C867 C 0.79637 0.2866 0.41101 0.0
C868 C 0.77876 0.28575 0.41891 0.0
C869 C 0.77715 0.30215 0.41224 0.0
C870 C 0.7931 0.31936 0.39977 0.0
C871 C 0.7622 0.26808 0.43566 0.0
C872 C 0.74488 0.25908 0.4141 0.0
C873 C 0.76334 0.26022 0.47285 0.0
C874 C 0.78097 0.26952 0.49784 0.0
C875 C 0.78871 0.28868 0.51054 0.0
C876 C 0.80541 0.2974 0.53386 0.0
C877 C 0.81441 0.28704 0.54495 0.0
C878 C 0.8067 0.26792 0.53283 0.0
C879 C 0.79002 0.25915 0.50945 0.0
H880 H 0.82734 0.29381 0.56301 0.0
H881 H 0.66475 0.20856 0.33826 0.0
H882 H 0.46524 0.79555 0.58868 0.0
H883 H 0.46752 0.76872 0.61668 0.0
H884 H 0.52939 0.80185 0.60901 0.0
H885 H 0.52718 0.82879 0.58009 0.0
H886 H 0.51665 0.76522 0.58754 0.0
H887 H 0.50651 0.79641 0.69869 0.0
H888 H 0.49073 0.81086 0.73729 0.0
H889 H 0.43815 0.75658 0.7391 0.0
H890 H 0.45353 0.74185 0.69998 0.0
H891 H 0.52487 0.69639 0.70945 0.0
H892 H 0.52805 0.7274 0.69046 0.0
H893 H 0.46641 0.70043 0.6794 0.0
H894 H 0.46316 0.66952 0.69798 0.0
H895 H 0.48273 0.73651 0.71525 0.0
H896 H 0.49229 0.70664 0.59821 0.0
H897 H 0.50808 0.69224 0.55941 0.0
H898 H 0.56227 0.74458 0.56994 0.0
H899 H 0.54683 0.75921 0.6093 0.0
C900 C 0.47936 0.79713 0.59263 0.0
C901 C 0.49605 0.81438 0.58235 0.0
C902 C 0.48064 0.78178 0.60893 0.0
C903 C 0.49864 0.78338 0.61584 0.0
C904 C 0.51534 0.80032 0.60424 0.0
C905 C 0.51406 0.8157 0.58768 0.0
C906 C 0.49987 0.76736 0.63554 0.0
C907 C 0.50955 0.75921 0.61586 0.0
C908 C 0.49043 0.7593 0.67232 0.0
C909 C 0.48115 0.76806 0.69613 0.0
C910 C 0.49154 0.78758 0.70708 0.0
C911 C 0.48267 0.79582 0.72908 0.0
C912 C 0.46344 0.78465 0.74057 0.0
C913 C 0.45305 0.76521 0.73016 0.0
C914 C 0.46184 0.7569 0.70811 0.0
C915 C 0.51199 0.69718 0.70381 0.0
C916 C 0.49377 0.68051 0.70509 0.0
C917 C 0.51384 0.71487 0.69269 0.0
C918 C 0.49747 0.71618 0.68306 0.0
C919 C 0.47923 0.69976 0.68662 0.0
C920 C 0.4774 0.68209 0.69722 0.0
C921 C 0.49921 0.73425 0.66691 0.0
C922 C 0.49007 0.74276 0.68725 0.0
C923 C 0.50919 0.74267 0.63087 0.0
C924 C 0.51846 0.73393 0.6071 0.0
C925 C 0.50761 0.71502 0.59254 0.0
C926 C 0.51648 0.70683 0.5704 0.0
C927 C 0.53618 0.71747 0.56233 0.0
C928 C 0.54703 0.73634 0.57629 0.0
C929 C 0.53822 0.74459 0.5985 0.0
H930 H 0.54303 0.71111 0.54517 0.0
H931 H 0.45659 0.79106 0.75759 0.0
H932 H 0.67491 0.4659 0.73314 0.0
H933 H 0.70505 0.46877 0.75626 0.0
H934 H 0.73079 0.53046 0.76087 0.0
H935 H 0.70058 0.52767 0.73664 0.0
H936 H 0.75657 0.52054 0.73525 0.0
H937 H 0.71353 0.50362 0.84592 0.0
H938 H 0.68289 0.48496 0.88218 0.0
H939 H 0.68755 0.43413 0.87213 0.0
H940 H 0.71809 0.45242 0.83526 0.0
H941 H 0.83363 0.52815 0.85769 0.0
H942 H 0.80559 0.53045 0.83626 0.0
H943 H 0.77333 0.46899 0.81965 0.0
H944 H 0.80114 0.46659 0.84109 0.0
H945 H 0.75174 0.48208 0.85559 0.0
H946 H 0.79388 0.49915 0.74058 0.0
H947 H 0.8245 0.51818 0.70442 0.0
H948 H 0.82171 0.56956 0.72443 0.0
H949 H 0.79118 0.55085 0.76121 0.0
C950 C 0.68705 0.48012 0.73849 0.0
C951 C 0.6853 0.49656 0.73335 0.0
C952 C 0.70427 0.48174 0.75198 0.0
C953 C 0.72008 0.4998 0.76138 0.0
C954 C 0.71875 0.51635 0.75416 0.0
C955 C 0.7015 0.51475 0.74023 0.0
C956 C 0.73756 0.50113 0.78023 0.0
C957 C 0.75556 0.51238 0.76196 0.0
C958 C 0.7363 0.49039 0.81496 0.0
C959 C 0.71804 0.47937 0.83756 0.0
C960 C 0.70797 0.48844 0.85123 0.0
C961 C 0.69062 0.47793 0.87191 0.0
C962 C 0.68326 0.45837 0.87939 0.0
C963 C 0.69327 0.44929 0.86629 0.0
C964 C 0.71061 0.45972 0.84554 0.0
C965 C 0.82048 0.51511 0.84997 0.0
C966 C 0.81964 0.49719 0.85103 0.0
C967 C 0.8045 0.51646 0.83745 0.0
C968 C 0.7874 0.49991 0.82583 0.0
C969 C 0.78635 0.48196 0.82835 0.0
C970 C 0.8023 0.48062 0.84061 0.0
C971 C 0.77066 0.50114 0.81013 0.0
C972 C 0.75278 0.49038 0.82911 0.0
C973 C 0.77208 0.51242 0.77626 0.0
C974 C 0.79037 0.52364 0.75403 0.0
C975 C 0.79988 0.51453 0.73755 0.0
C976 C 0.8172 0.52525 0.71689 0.0
C977 C 0.82507 0.54507 0.71223 0.0
C978 C 0.81561 0.55421 0.72813 0.0
C979 C 0.79829 0.54356 0.74886 0.0
H980 H 0.83848 0.55335 0.69622 0.0
H981 H 0.66982 0.45026 0.89539 0.0
H982 H 0.18016 0.69816 0.90127 0.0
H983 H 0.20731 0.72731 0.92931 0.0
H984 H 0.2406 0.69864 0.93521 0.0
H985 H 0.21342 0.66943 0.90837 0.0
H986 H 0.24324 0.71551 0.00323 0.0
H987 H 0.24936 0.73492 0.86507 0.0
H988 H 0.23847 0.74119 0.80063 0.0
H989 H 0.2269 0.78229 0.85767 0.0
H990 H 0.23749 0.77608 0.92259 0.0
H991 H 0.33849 0.79364 0.02336 0.0
H992 H 0.30803 0.76588 0.00292 0.0
H993 H 0.27937 0.79869 0.01951 0.0
H994 H 0.30991 0.82662 0.04036 0.0
H995 H 0.27231 0.78087 0.94463 0.0
H996 H 0.26936 0.76309 0.08202 0.0
H997 H 0.28127 0.75697 0.14524 0.0
H998 H 0.28792 0.71273 0.08804 0.0
H999 H 0.27631 0.71878 0.02428 0.0
C1000 C 0.19339 0.69821 0.9079 0.0
C1001 C 0.19464 0.68149 0.9026 0.0
C1002 C 0.20892 0.71489 0.92396 0.0
C1003 C 0.22609 0.71525 0.93441 0.0
C1004 C 0.22751 0.69874 0.92771 0.0
C1005 C 0.21198 0.68205 0.9121 0.0
C1006 C 0.24229 0.73239 0.954 0.0
C1007 C 0.24971 0.72976 0.99011 0.0
C1008 C 0.2504 0.75114 0.93774 0.0
C1009 C 0.244 0.75487 0.89876 0.0
C1010 C 0.24434 0.74518 0.86393 0.0
C1011 C 0.23825 0.74875 0.82731 0.0
C1012 C 0.23194 0.76209 0.82508 0.0
C1013 C 0.23175 0.77193 0.85946 0.0
C1014 C 0.23781 0.76841 0.89616 0.0
C1015 C 0.32563 0.79485 0.0235 0.0
C1016 C 0.3266 0.81231 0.03357 0.0
C1017 C 0.30822 0.77896 0.01179 0.0
C1018 C 0.29141 0.7802 0.00967 0.0
C1019 C 0.29217 0.79743 0.02094 0.0
C1020 C 0.30959 0.81331 0.03316 0.0
C1021 C 0.27344 0.76385 0.99325 0.0
C1022 C 0.2657 0.76664 0.95784 0.0
C1023 C 0.26512 0.7452 0.00994 0.0
C1024 C 0.2721 0.74151 0.04826 0.0
C1025 C 0.27351 0.75217 0.08282 0.0
C1026 C 0.28018 0.74869 0.11878 0.0
C1027 C 0.28538 0.7345 0.12064 0.0
C1028 C 0.28389 0.72373 0.08655 0.0
C1029 C 0.27725 0.72716 0.0505 0.0
H1030 H 0.29054 0.73182 0.14851 0.0
H1031 H 0.22724 0.76483 0.7967 0.0
H1032 H 0.6113 0.12675 0.68655 0.0
H1033 H 0.6009 0.13361 0.75031 0.0
H1034 H 0.60956 0.18728 0.70284 0.0
H1035 H 0.62 0.18039 0.63882 0.0
H1036 H 0.61659 0.18135 0.79974 0.0
H1037 H 0.56939 0.16303 0.68875 0.0
H1038 H 0.55377 0.14376 0.62833 0.0
H1039 H 0.53812 0.09189 0.69342 0.0
H1040 H 0.55342 0.11088 0.75443 0.0
H1041 H 0.54711 0.17487 0.94444 0.0
H1042 H 0.56358 0.18267 0.87902 0.0
H1043 H 0.54889 0.12342 0.86523 0.0
H1044 H 0.53273 0.11575 0.92999 0.0
H1045 H 0.54568 0.13861 0.79469 0.0
H1046 H 0.591 0.15504 0.90441 0.0
H1047 H 0.60703 0.17237 0.96641 0.0
H1048 H 0.6278 0.22636 0.90588 0.0
H1049 H 0.6116 0.20931 0.84364 0.0
C1050 C 0.61208 0.14051 0.69059 0.0
C1051 C 0.61677 0.15324 0.65831 0.0
C1052 C 0.60603 0.14438 0.72687 0.0
C1053 C 0.60448 0.16094 0.73113 0.0
C1054 C 0.61093 0.17457 0.70021 0.0
C1055 C 0.61698 0.17068 0.66381 0.0
C1056 C 0.59245 0.16167 0.76381 0.0
C1057 C 0.60106 0.17244 0.79843 0.0
C1058 C 0.57225 0.1498 0.76212 0.0
C1059 C 0.56258 0.13834 0.72596 0.0
C1060 C 0.56263 0.14751 0.69009 0.0
C1061 C 0.55386 0.13666 0.65576 0.0
C1062 C 0.54511 0.11663 0.6569 0.0
C1063 C 0.54493 0.1074 0.69254 0.0
C1064 C 0.55355 0.11819 0.72706 0.0
C1065 C 0.54698 0.1635 0.92674 0.0
C1066 C 0.53872 0.14474 0.94201 0.0
C1067 C 0.55649 0.16796 0.88966 0.0
C1068 C 0.5576 0.15364 0.8675 0.0
C1069 C 0.5482 0.13469 0.88175 0.0
C1070 C 0.539 0.13032 0.91874 0.0
C1071 C 0.56973 0.15822 0.83117 0.0
C1072 C 0.56114 0.14817 0.79575 0.0
C1073 C 0.58993 0.17069 0.83241 0.0
C1074 C 0.5999 0.18092 0.86956 0.0
C1075 C 0.59887 0.17061 0.90442 0.0
C1076 C 0.60799 0.18037 0.93959 0.0
C1077 C 0.61837 0.20045 0.94012 0.0
C1078 C 0.61971 0.21081 0.90544 0.0
C1079 C 0.61056 0.2011 0.87021 0.0
H1080 H 0.62543 0.20799 0.96738 0.0
H1081 H 0.53842 0.10827 0.63021 0.0
H1082 H 0.42788 0.57575 0.78896 0.0
H1083 H 0.41221 0.5678 0.85369 0.0
H1084 H 0.45914 0.61946 0.90411 0.0
H1085 H 0.4753 0.62757 0.8385 0.0
H1086 H 0.45109 0.58903 0.94918 0.0
H1087 H 0.41451 0.61483 0.89622 0.0
H1088 H 0.39549 0.62096 0.84652 0.0
H1089 H 0.35183 0.56137 0.84912 0.0
H1090 H 0.37071 0.5548 0.89838 0.0
H1091 H 0.3772 0.55389 0.11831 0.0
H1092 H 0.38675 0.57143 0.05442 0.0
H1093 H 0.40461 0.53222 0.01067 0.0
H1094 H 0.39546 0.51503 0.07451 0.0
H1095 H 0.38147 0.56491 0.97041 0.0
H1096 H 0.44995 0.5582 0.98018 0.0
H1097 H 0.46925 0.55372 0.03211 0.0
H1098 H 0.45052 0.58006 0.11953 0.0
H1099 H 0.43118 0.5848 0.06814 0.0
C1100 C 0.43491 0.58562 0.81355 0.0
C1101 C 0.45299 0.60226 0.80852 0.0
C1102 C 0.42575 0.58111 0.85061 0.0
C1103 C 0.43433 0.59313 0.88373 0.0
C1104 C 0.45219 0.61004 0.87883 0.0
C1105 C 0.46139 0.61467 0.84137 0.0
C1106 C 0.42532 0.58669 0.92382 0.0
C1107 C 0.43595 0.58404 0.95396 0.0
C1108 C 0.40562 0.58048 0.9305 0.0
C1109 C 0.39409 0.58431 0.90096 0.0
C1110 C 0.40091 0.603 0.88603 0.0
C1111 C 0.39014 0.60656 0.85794 0.0
C1112 C 0.37247 0.59156 0.84465 0.0
C1113 C 0.36551 0.57298 0.85947 0.0
C1114 C 0.37623 0.56933 0.88755 0.0
C1115 C 0.38221 0.54847 0.09418 0.0
C1116 C 0.38539 0.53301 0.10087 0.0
C1117 C 0.38784 0.55859 0.05792 0.0
C1118 C 0.39675 0.55334 0.02825 0.0
C1119 C 0.39798 0.53664 0.03344 0.0
C1120 C 0.39253 0.52667 0.06964 0.0
C1121 C 0.40706 0.56642 0.99439 0.0
C1122 C 0.39669 0.57029 0.96572 0.0
C1123 C 0.42712 0.57416 0.98934 0.0
C1124 C 0.43904 0.57176 0.0203 0.0
C1125 C 0.45003 0.56313 0.01044 0.0
C1126 C 0.46092 0.56049 0.03982 0.0
C1127 C 0.46102 0.56652 0.07914 0.0
C1128 C 0.4503 0.57527 0.08914 0.0
C1129 C 0.43936 0.57792 0.0599 0.0
H1130 H 0.46945 0.56445 0.10185 0.0
H1131 H 0.36416 0.59435 0.8229 0.0
H1132 H 0.88815 0.4715 0.99543 0.0
H1133 H 0.87829 0.454 0.05852 0.0
H1134 H 0.82089 0.44449 0.04229 0.0
H1135 H 0.83078 0.46215 0.97813 0.0
H1136 H 0.84197 0.4541 0.13038 0.0
H1137 H 0.81843 0.40905 0.01976 0.0
H1138 H 0.82116 0.39755 0.95301 0.0
H1139 H 0.87126 0.3956 0.99122 0.0
H1140 H 0.86887 0.40723 0.05825 0.0
H1141 H 0.82199 0.386 0.28373 0.0
H1142 H 0.81543 0.39662 0.21967 0.0
H1143 H 0.86886 0.40427 0.17246 0.0
H1144 H 0.8753 0.39357 0.23639 0.0
H1145 H 0.84104 0.39213 0.11444 0.0
H1146 H 0.86751 0.44026 0.21959 0.0
H1147 H 0.86715 0.45285 0.28682 0.0
H1148 H 0.81379 0.4506 0.25937 0.0
H1149 H 0.81365 0.43761 0.19222 0.0
C1150 C 0.87355 0.46617 0.00576 0.0
C1151 C 0.86018 0.46806 0.98185 0.0
C1152 C 0.86795 0.45617 0.0418 0.0
C1153 C 0.84885 0.44781 0.05472 0.0
C1154 C 0.83572 0.45091 0.03268 0.0
C1155 C 0.84138 0.46104 0.99626 0.0
C1156 C 0.8427 0.43409 0.08855 0.0
C1157 C 0.84109 0.44025 0.12689 0.0
C1158 C 0.84211 0.41629 0.08396 0.0
C1159 C 0.84352 0.4091 0.0439 0.0
C1160 C 0.8301 0.40629 0.01383 0.0
C1161 C 0.83158 0.39972 0.97595 0.0
C1162 C 0.84642 0.39589 0.96779 0.0
C1163 C 0.85977 0.39857 0.99757 0.0
C1164 C 0.85833 0.4051 0.03555 0.0
C1165 C 0.83184 0.38912 0.25895 0.0
C1166 C 0.84897 0.3887 0.26441 0.0
C1167 C 0.8282 0.39537 0.2226 0.0
C1168 C 0.84179 0.4015 0.19153 0.0
C1169 C 0.85816 0.39956 0.19599 0.0
C1170 C 0.86179 0.39334 0.23234 0.0
C1171 C 0.8404 0.41213 0.15652 0.0
C1172 C 0.841 0.40555 0.11796 0.0
C1173 C 0.84016 0.42958 0.16106 0.0
C1174 C 0.84045 0.43775 0.20108 0.0
C1175 C 0.85564 0.44233 0.22799 0.0
C1176 C 0.85553 0.44953 0.26607 0.0
C1177 C 0.84044 0.45249 0.27737 0.0
C1178 C 0.82545 0.44827 0.25059 0.0
C1179 C 0.82545 0.44097 0.21253 0.0
H1180 H 0.84039 0.4581 0.30683 0.0
H1181 H 0.84754 0.39079 0.93846 0.0
H1182 H 0.44188 0.8208 0.44969 0.0
H1183 H 0.42793 0.81602 0.38255 0.0
H1184 H 0.48081 0.86398 0.33931 0.0
H1185 H 0.49466 0.86884 0.40662 0.0
H1186 H 0.44976 0.8695 0.33446 0.0
H1187 H 0.46431 0.81988 0.30016 0.0
H1188 H 0.46398 0.78927 0.3095 0.0
H1189 H 0.40224 0.75847 0.30604 0.0
H1190 H 0.40219 0.78895 0.29723 0.0
H1191 H 0.43724 0.8771 0.13317 0.0
H1192 H 0.44641 0.8698 0.1969 0.0
H1193 H 0.38751 0.82666 0.21996 0.0
H1194 H 0.37793 0.83385 0.15481 0.0
H1195 H 0.41681 0.81555 0.23824 0.0
H1196 H 0.40198 0.86451 0.26971 0.0
H1197 H 0.40193 0.89494 0.26036 0.0
H1198 H 0.46345 0.9266 0.27116 0.0
H1199 H 0.46392 0.89633 0.27993 0.0
C1200 C 0.45083 0.82962 0.42529 0.0
C1201 C 0.46936 0.84506 0.43296 0.0
C1202 C 0.44283 0.82694 0.387 0.0
C1203 C 0.45328 0.83975 0.35606 0.0
C1204 C 0.47252 0.85394 0.36284 0.0
C1205 C 0.48052 0.85658 0.40111 0.0
C1206 C 0.44324 0.84074 0.31965 0.0
C1207 C 0.44278 0.85777 0.31318 0.0
C1208 C 0.43323 0.82506 0.29314 0.0
C1209 C 0.43324 0.80673 0.29849 0.0
C1210 C 0.45065 0.80661 0.3018 0.0
C1211 C 0.45054 0.78927 0.3069 0.0
C1212 C 0.4331 0.77194 0.30849 0.0
C1213 C 0.41574 0.77191 0.30486 0.0
C1214 C 0.41578 0.78921 0.29978 0.0
C1215 C 0.42608 0.86599 0.15146 0.0
C1216 C 0.40677 0.85607 0.13874 0.0
C1217 C 0.43142 0.86186 0.18804 0.0
C1218 C 0.41765 0.84777 0.21316 0.0
C1219 C 0.39833 0.83759 0.20081 0.0
C1220 C 0.39288 0.84181 0.16386 0.0
C1221 C 0.42397 0.84453 0.25261 0.0
C1222 C 0.42365 0.82715 0.25984 0.0
C1223 C 0.43316 0.85982 0.28026 0.0
C1224 C 0.43298 0.87812 0.27524 0.0
C1225 C 0.41552 0.87795 0.26979 0.0
C1226 C 0.41541 0.89517 0.26464 0.0
C1227 C 0.43268 0.91269 0.2651 0.0
C1228 C 0.45009 0.91301 0.2708 0.0
C1229 C 0.45028 0.89583 0.27592 0.0
H1230 H 0.43257 0.92601 0.26111 0.0
H1231 H 0.43304 0.75853 0.31243 0.0
H1232 H 0.63254 0.4542 0.60789 0.0
H1233 H 0.62148 0.43662 0.54395 0.0
H1234 H 0.58442 0.46054 0.52591 0.0
H1235 H 0.59534 0.4779 0.58921 0.0
H1236 H 0.56528 0.41984 0.53004 0.0
H1237 H 0.62045 0.47333 0.46563 0.0
H1238 H 0.65514 0.49531 0.45513 0.0
H1239 H 0.66298 0.44727 0.42936 0.0
H1240 H 0.62835 0.42497 0.44026 0.0
H1241 H 0.52627 0.408 0.33943 0.0
H1242 H 0.54256 0.41726 0.40415 0.0
H1243 H 0.57188 0.38588 0.37708 0.0
H1244 H 0.55529 0.37645 0.31181 0.0
H1245 H 0.59684 0.42342 0.4001 0.0
H1246 H 0.54077 0.37042 0.4529 0.0
H1247 H 0.50608 0.34831 0.46273 0.0
H1248 H 0.49985 0.39441 0.51132 0.0
H1249 H 0.53445 0.41689 0.50125 0.0
C1250 C 0.62274 0.45635 0.5892 0.0
C1251 C 0.61486 0.46746 0.60308 0.0
C1252 C 0.61628 0.44618 0.553 0.0
C1253 C 0.60194 0.44711 0.53058 0.0
C1254 C 0.59538 0.45952 0.54293 0.0
C1255 C 0.60176 0.46958 0.57884 0.0
C1256 C 0.59189 0.43366 0.49709 0.0
C1257 C 0.57215 0.42062 0.50157 0.0
C1258 C 0.60108 0.43407 0.46072 0.0
C1259 C 0.62188 0.44747 0.45434 0.0
C1260 C 0.62961 0.46744 0.45818 0.0
C1261 C 0.64925 0.47996 0.45204 0.0
C1262 C 0.66127 0.47269 0.44174 0.0
C1263 C 0.65366 0.45288 0.43744 0.0
C1264 C 0.63403 0.4403 0.44358 0.0
C1265 C 0.53565 0.4025 0.34799 0.0
C1266 C 0.53929 0.39123 0.32127 0.0
C1267 C 0.54501 0.40784 0.38485 0.0
C1268 C 0.55837 0.40217 0.39558 0.0
C1269 C 0.56154 0.3903 0.36946 0.0
C1270 C 0.55193 0.38473 0.33254 0.0
C1271 C 0.57 0.41026 0.43247 0.0
C1272 C 0.59002 0.42224 0.42883 0.0
C1273 C 0.5611 0.40884 0.46984 0.0
C1274 C 0.54024 0.39537 0.47617 0.0
C1275 C 0.53199 0.37588 0.46545 0.0
C1276 C 0.51234 0.36327 0.4711 0.0
C1277 C 0.50076 0.36995 0.48761 0.0
C1278 C 0.50883 0.38926 0.49856 0.0
C1279 C 0.52848 0.40193 0.49296 0.0
H1280 H 0.48555 0.36017 0.49195 0.0
H1281 H 0.67647 0.48241 0.43697 0.0
H1282 H 0.17646 0.54322 0.47909 0.0
H1283 H 0.18721 0.56174 0.54222 0.0
H1284 H 0.13054 0.55412 0.55886 0.0
H1285 H 0.11979 0.5357 0.4971 0.0
H1286 H 0.16243 0.59383 0.55675 0.0
H1287 H 0.14238 0.53046 0.61593 0.0
H1288 H 0.14517 0.50145 0.62467 0.0
H1289 H 0.20425 0.53649 0.6598 0.0
H1290 H 0.20186 0.56574 0.65074 0.0
H1291 H 0.13285 0.6092 0.74154 0.0
H1292 H 0.14016 0.60032 0.67664 0.0
H1293 H 0.19377 0.60825 0.7237 0.0
H1294 H 0.18606 0.61669 0.78922 0.0
H1295 H 0.17507 0.57476 0.68956 0.0
H1296 H 0.19298 0.63741 0.6463 0.0
H1297 H 0.19095 0.66685 0.63784 0.0
H1298 H 0.13846 0.63513 0.57136 0.0
H1299 H 0.13999 0.60543 0.57989 0.0
C1300 C 0.16623 0.54506 0.49697 0.0
C1301 C 0.14736 0.53821 0.48308 0.0
C1302 C 0.17241 0.55574 0.53272 0.0
C1303 C 0.15972 0.55954 0.55465 0.0
C1304 C 0.14061 0.55157 0.54204 0.0
C1305 C 0.13448 0.54098 0.5068 0.0
C1306 C 0.16608 0.57276 0.5894 0.0
C1307 C 0.16533 0.58979 0.58584 0.0
C1308 C 0.17065 0.56785 0.62676 0.0
C1309 C 0.17203 0.55027 0.63208 0.0
C1310 C 0.15602 0.53198 0.62508 0.0
C1311 C 0.15752 0.51549 0.6302 0.0
C1312 C 0.1749 0.51712 0.64262 0.0
C1313 C 0.19081 0.53525 0.65007 0.0
C1314 C 0.18939 0.55178 0.64496 0.0
C1315 C 0.14653 0.6098 0.73742 0.0
C1316 C 0.15914 0.61404 0.76975 0.0
C1317 C 0.15073 0.6047 0.70037 0.0
C1318 C 0.16767 0.60383 0.69498 0.0
C1319 C 0.1807 0.60894 0.727 0.0
C1320 C 0.17642 0.61396 0.7642 0.0
C1321 C 0.17037 0.59542 0.65751 0.0
C1322 C 0.17286 0.57931 0.6604 0.0
C1323 C 0.16758 0.6013 0.61933 0.0
C1324 C 0.1666 0.61915 0.61383 0.0
C1325 C 0.18094 0.63668 0.63005 0.0
C1326 C 0.17989 0.65342 0.62523 0.0
C1327 C 0.16459 0.65286 0.60409 0.0
C1328 C 0.15032 0.63555 0.58768 0.0
C1329 C 0.1513 0.61876 0.59243 0.0
H1330 H 0.16379 0.66583 0.60041 0.0
H1331 H 0.17603 0.50435 0.64658 0.0
H1332 H 0.45673 0.0847 0.06467 0.0
H1333 H 0.43099 0.05084 0.06507 0.0
H1334 H 0.46826 0.0351 0.00297 0.0
H1335 H 0.49366 0.06857 0.00207 0.0
H1336 H 0.43238 0.01313 0.97796 0.0
H1337 H 0.46621 0.03523 0.10487 0.0
H1338 H 0.47698 0.056 0.16479 0.0
H1339 H 0.41823 0.03584 0.19771 0.0
H1340 H 0.40712 0.01518 0.13752 0.0
H1341 H 0.43344 0.9345 0.07158 0.0
H1342 H 0.4391 0.96723 0.07238 0.0
H1343 H 0.37937 0.9463 0.04536 0.0
H1344 H 0.3735 0.91318 0.04385 0.0
H1345 H 0.41645 0.98557 0.11498 0.0
H1346 H 0.38464 0.96238 0.97759 0.0
H1347 H 0.3794 0.94094 0.92003 0.0
H1348 H 0.4403 0.96323 0.91075 0.0
H1349 H 0.44579 0.98449 0.96871 0.0
C1350 C 0.45917 0.07405 0.0501 0.0
C1351 C 0.47727 0.07924 0.03374 0.0
C1352 C 0.44451 0.05472 0.05054 0.0
C1353 C 0.44778 0.04039 0.03451 0.0
C1354 C 0.46536 0.04585 0.01552 0.0
C1355 C 0.47994 0.06501 0.01525 0.0
C1356 C 0.43416 0.01959 0.04107 0.0
C1357 C 0.42841 0.00717 0.0079 0.0
C1358 C 0.42918 0.01167 0.08013 0.0
C1359 C 0.43584 0.02388 0.11649 0.0
C1360 C 0.4556 0.03533 0.12476 0.0
C1361 C 0.46176 0.04707 0.15876 0.0
C1362 C 0.4483 0.04728 0.18498 0.0
C1363 C 0.42864 0.0357 0.17731 0.0
C1364 C 0.4224 0.02399 0.14325 0.0
C1365 C 0.42136 0.93672 0.06646 0.0
C1366 C 0.40305 0.9212 0.05712 0.0
C1367 C 0.42463 0.95546 0.06717 0.0
C1368 C 0.4097 0.95915 0.05861 0.0
C1369 C 0.39108 0.94369 0.05187 0.0
C1370 C 0.38775 0.92479 0.05117 0.0
C1371 C 0.41461 0.97931 0.05192 0.0
C1372 C 0.41923 0.99161 0.08502 0.0
C1373 C 0.41886 0.98717 0.01293 0.0
C1374 C 0.41559 0.97488 0.97743 0.0
C1375 C 0.39687 0.96261 0.96329 0.0
C1376 C 0.39386 0.95048 0.93068 0.0
C1377 C 0.4095 0.95065 0.91185 0.0
C1378 C 0.42818 0.96303 0.92546 0.0
C1379 C 0.43125 0.97512 0.95815 0.0
H1380 H 0.40715 0.94122 0.88666 0.0
H1381 H 0.4531 0.05638 0.21129 0.0
H1382 H 0.4955 0.4261 0.25372 0.0
H1383 H 0.46935 0.43311 0.25302 0.0
H1384 H 0.43196 0.37796 0.19884 0.0
H1385 H 0.4584 0.37084 0.19904 0.0
H1386 H 0.43079 0.40613 0.15843 0.0
H1387 H 0.42276 0.38698 0.29382 0.0
H1388 H 0.43233 0.38484 0.36295 0.0
H1389 H 0.45487 0.44544 0.37884 0.0
H1390 H 0.44571 0.44803 0.30961 0.0
H1391 H 0.37488 0.45835 0.23815 0.0
H1392 H 0.38193 0.43193 0.24227 0.0
H1393 H 0.429 0.46184 0.15955 0.0
H1394 H 0.42201 0.48796 0.15515 0.0
H1395 H 0.4143 0.43518 0.27188 0.0
H1396 H 0.43796 0.43219 0.1075 0.0
H1397 H 0.4271 0.43307 0.03885 0.0
H1398 H 0.36984 0.41328 0.08203 0.0
H1399 H 0.38026 0.412 0.15087 0.0
C1400 C 0.48164 0.41526 0.24223 0.0
C1401 C 0.47909 0.39791 0.22631 0.0
C1402 C 0.46662 0.41926 0.24211 0.0
C1403 C 0.44859 0.40601 0.22621 0.0
C1404 C 0.44572 0.38836 0.21145 0.0
C1405 C 0.46081 0.38427 0.21179 0.0
C1406 C 0.43361 0.41167 0.2219 0.0
C1407 C 0.42694 0.41223 0.18331 0.0
C1408 C 0.42811 0.41914 0.25454 0.0
C1409 C 0.43357 0.41769 0.29639 0.0
C1410 C 0.42985 0.39988 0.31196 0.0
C1411 C 0.4352 0.39858 0.35119 0.0
C1412 C 0.44421 0.41499 0.37527 0.0
C1413 C 0.44787 0.43273 0.36017 0.0
C1414 C 0.44257 0.43411 0.32094 0.0
C1415 C 0.38634 0.45897 0.21993 0.0
C1416 C 0.39792 0.47527 0.1964 0.0
C1417 C 0.39044 0.44393 0.22251 0.0
C1418 C 0.40594 0.44481 0.20107 0.0
C1419 C 0.41678 0.46061 0.1759 0.0
C1420 C 0.41282 0.47563 0.17358 0.0
C1421 C 0.41246 0.43065 0.20806 0.0
C1422 C 0.41763 0.42857 0.24715 0.0
C1423 C 0.41637 0.42157 0.17596 0.0
C1424 C 0.40994 0.42206 0.13445 0.0
C1425 C 0.42302 0.42788 0.10235 0.0
C1426 C 0.41694 0.42849 0.06339 0.0
C1427 C 0.3978 0.42326 0.05609 0.0
C1428 C 0.38467 0.41737 0.08774 0.0
C1429 C 0.39067 0.41673 0.12675 0.0
H1430 H 0.39313 0.42375 0.02591 0.0
H1431 H 0.44835 0.41396 0.40563 0.0
H1432 H 0.0731 0.48475 0.44702 0.0
H1433 H 0.03872 0.46151 0.44457 0.0
H1434 H 0.04754 0.43537 0.33982 0.0
H1435 H 0.08221 0.45845 0.34295 0.0
H1436 H 0.01908 0.46319 0.38313 0.0
H1437 H 0.00635 0.38943 0.32833 0.0
H1438 H 0.02042 0.36847 0.33672 0.0
H1439 H 0.04257 0.39355 0.452 0.0
H1440 H 0.02842 0.41446 0.44456 0.0
H1441 H 0.9265 0.41672 0.30675 0.0
H1442 H 0.96068 0.42669 0.3092 0.0
H1443 H 0.95032 0.39011 0.41184 0.0
H1444 H 0.91587 0.37928 0.40791 0.0
H1445 H 0.97949 0.39233 0.3701 0.0
H1446 H 0.96314 0.43924 0.42136 0.0
H1447 H 0.94978 0.461 0.41725 0.0
H1448 H 0.98641 0.49011 0.31723 0.0
H1449 H 1.00006 0.46859 0.3207 0.0
C1450 C 0.0678 0.47349 0.42457 0.0
C1451 C 0.08026 0.4733 0.39531 0.0
C1452 C 0.04814 0.46031 0.42298 0.0
C1453 C 0.04047 0.44681 0.39175 0.0
C1454 C 0.05311 0.44552 0.3644 0.0
C1455 C 0.07293 0.45864 0.36632 0.0
C1456 C 0.01934 0.43649 0.38454 0.0
C1457 C 0.01047 0.44767 0.3804 0.0
C1458 C 0.00805 0.41628 0.38068 0.0
C1459 C 0.01649 0.40366 0.38566 0.0
C1460 C 0.01417 0.39043 0.35552 0.0
C1461 C 0.02217 0.37856 0.36011 0.0
C1462 C 0.03244 0.37973 0.39481 0.0
C1463 C 0.03469 0.39272 0.42506 0.0
C1464 C 0.02671 0.40461 0.42063 0.0
C1465 C 0.93146 0.41037 0.32902 0.0
C1466 C 0.9186 0.3973 0.35723 0.0
C1467 C 0.95101 0.41617 0.33063 0.0
C1468 C 0.95822 0.40964 0.36152 0.0
C1469 C 0.94516 0.39546 0.38788 0.0
C1470 C 0.92547 0.38924 0.38558 0.0
C1471 C 0.97933 0.41909 0.36896 0.0
C1472 C 0.98818 0.40783 0.37286 0.0
C1473 C 0.99073 0.43931 0.37312 0.0
C1474 C 0.98248 0.4522 0.37107 0.0
C1475 C 0.96826 0.45022 0.39837 0.0
C1476 C 0.96065 0.4625 0.39617 0.0
C1477 C 0.96714 0.47682 0.36689 0.0
C1478 C 0.98136 0.47898 0.33984 0.0
C1479 C 0.98908 0.46678 0.34196 0.0
H1480 H 0.96119 0.48629 0.36526 0.0
H1481 H 0.03862 0.37053 0.39829 0.0
H1482 H 0.54413 0.91558 0.55988 0.0
H1483 H 0.56776 0.94991 0.56556 0.0
H1484 H 0.53258 0.96333 0.48954 0.0
H1485 H 0.5093 0.92928 0.48296 0.0
H1486 H 0.56842 0.98834 0.47612 0.0
H1487 H 0.528 0.96237 0.59087 0.0
H1488 H 0.51292 0.94043 0.64808 0.0
H1489 H 0.56849 0.96021 0.70082 0.0
H1490 H 0.58394 0.98209 0.6436 0.0
H1491 H 0.577 0.06994 0.6067 0.0
H1492 H 0.5672 0.03612 0.60049 0.0
H1493 H 0.61758 0.05093 0.52929 0.0
H1494 H 0.62729 0.08507 0.53454 0.0
H1495 H 0.57844 0.01183 0.61646 0.0
H1496 H 0.60396 0.01846 0.45163 0.0
H1497 H 0.61127 0.04019 0.39378 0.0
H1498 H 0.57367 0.05914 0.44043 0.0
H1499 H 0.56592 0.03733 0.49822 0.0
C1500 C 0.54174 0.9258 0.54333 0.0
C1501 C 0.52469 0.91967 0.52137 0.0
C1502 C 0.55519 0.94545 0.54688 0.0
C1503 C 0.55177 0.95926 0.52864 0.0
C1504 C 0.53556 0.95302 0.50402 0.0
C1505 C 0.52218 0.93348 0.50042 0.0
C1506 C 0.56371 0.98008 0.53831 0.0
C1507 C 0.57091 0.99347 0.50683 0.0
C1508 C 0.56636 0.98685 0.57832 0.0
C1509 C 0.55715 0.97367 0.6127 0.0
C1510 C 0.53702 0.96192 0.61449 0.0
C1511 C 0.5284 0.94952 0.64693 0.0
C1512 C 0.53974 0.94889 0.67798 0.0
C1513 C 0.55973 0.96068 0.67669 0.0
C1514 C 0.56843 0.97308 0.64426 0.0
C1515 C 0.58627 0.0661 0.5904 0.0
C1516 C 0.60281 0.08023 0.57065 0.0
C1517 C 0.58066 0.04668 0.58701 0.0
C1518 C 0.59143 0.04089 0.5638 0.0
C1519 C 0.60886 0.05504 0.54685 0.0
C1520 C 0.6145 0.07457 0.55018 0.0
C1521 C 0.58323 0.02012 0.55428 0.0
C1522 C 0.57658 0.00673 0.58579 0.0
C1523 C 0.58009 0.01334 0.51422 0.0
C1524 C 0.58461 0.02647 0.47952 0.0
C1525 C 0.59725 0.02725 0.4495 0.0
C1526 C 0.60145 0.03957 0.41672 0.0
C1527 C 0.59299 0.05109 0.41353 0.0
C1528 C 0.58026 0.05026 0.44304 0.0
C1529 C 0.57598 0.03794 0.47582 0.0
H1530 H 0.59625 0.06061 0.38814 0.0
H1531 H 0.53304 0.9393 0.7031 0.0
H1532 H 0.57315 0.50294 0.68629 0.0
H1533 H 0.56433 0.52764 0.68701 0.0
H1534 H 0.62162 0.56951 0.72499 0.0
H1535 H 0.63064 0.54431 0.72531 0.0
H1536 H 0.59467 0.57238 0.76897 0.0
H1537 H 0.60665 0.5725 0.6307 0.0
H1538 H 0.60622 0.55912 0.56397 0.0
H1539 H 0.54462 0.53181 0.5609 0.0
H1540 H 0.54463 0.54476 0.62786 0.0
H1541 H 0.54364 0.6286 0.71767 0.0
H1542 H 0.56935 0.62035 0.71665 0.0
H1543 H 0.52735 0.56078 0.73589 0.0
H1544 H 0.50183 0.56871 0.73773 0.0
H1545 H 0.55672 0.57771 0.6574 0.0
H1546 H 0.54748 0.57103 0.80606 0.0
H1547 H 0.54892 0.58545 0.87217 0.0
H1548 H 0.60791 0.62817 0.8514 0.0
H1549 H 0.6067 0.61411 0.78489 0.0
C1550 C 0.58407 0.5174 0.69449 0.0
C1551 C 0.60266 0.52157 0.7058 0.0
C1552 C 0.57899 0.53161 0.69458 0.0
C1553 C 0.59236 0.55056 0.70543 0.0
C1554 C 0.61109 0.55501 0.71622 0.0
C1555 C 0.61626 0.54063 0.71614 0.0
C1556 C 0.58591 0.56502 0.70735 0.0
C1557 C 0.58684 0.57397 0.74416 0.0
C1558 C 0.5758 0.56733 0.675 0.0
C1559 C 0.57566 0.55962 0.63442 0.0
C1560 C 0.593 0.56357 0.6159 0.0
C1561 C 0.59283 0.55606 0.57801 0.0
C1562 C 0.57541 0.54463 0.55821 0.0
C1563 C 0.55811 0.5407 0.57624 0.0
C1564 C 0.5582 0.54816 0.61414 0.0
C1565 C 0.53995 0.61383 0.72278 0.0
C1566 C 0.52059 0.59932 0.7275 0.0
C1567 C 0.55466 0.60916 0.72206 0.0
C1568 C 0.55018 0.58997 0.72617 0.0
C1569 C 0.53108 0.57569 0.73279 0.0
C1570 C 0.51649 0.58029 0.73378 0.0
C1571 C 0.5647 0.58402 0.71936 0.0
C1572 C 0.56519 0.57667 0.68159 0.0
C1573 C 0.57625 0.58338 0.75053 0.0
C1574 C 0.57691 0.59172 0.79038 0.0
C1575 C 0.56068 0.58363 0.81542 0.0
C1576 C 0.56147 0.5917 0.853 0.0
C1577 C 0.57847 0.60777 0.86592 0.0
C1578 C 0.59474 0.61576 0.84132 0.0
C1579 C 0.594 0.60775 0.80371 0.0
H1580 H 0.57907 0.61399 0.89502 0.0
H1581 H 0.57531 0.53882 0.52889 0.0
H1582 H 0.09321 0.63125 0.88287 0.0
H1583 H 0.05941 0.62316 0.88306 0.0
H1584 H 0.04352 0.56969 0.823 0.0
H1585 H 0.07703 0.57772 0.82217 0.0
H1586 H 0.02104 0.58364 0.7981 0.0
H1587 H 0.04416 0.57256 0.92433 0.0
H1588 H 0.06558 0.58291 0.98328 0.0
H1589 H 0.0462 0.6221 0.01637 0.0
H1590 H 0.02494 0.61226 0.95712 0.0
H1591 H 0.93821 0.51295 0.92419 0.0
H1592 H 0.97196 0.53752 0.91933 0.0
H1593 H 0.95683 0.57219 0.84587 0.0
H1594 H 0.92272 0.5473 0.85036 0.0
H1595 H 0.99494 0.57463 0.93611 0.0
H1596 H 0.99232 0.59161 0.77021 0.0
H1597 H 0.97142 0.57798 0.71087 0.0
H1598 H 0.9494 0.52107 0.75796 0.0
H1599 H 0.97042 0.5343 0.81721 0.0
C1600 C 0.08258 0.61804 0.86866 0.0
C1601 C 0.08781 0.60501 0.85298 0.0
C1602 C 0.06326 0.6134 0.86896 0.0
C1603 C 0.04888 0.59567 0.85359 0.0
C1604 C 0.05431 0.58343 0.83508 0.0
C1605 C 0.07352 0.58801 0.83486 0.0
C1606 C 0.02811 0.58858 0.86085 0.0
C1607 C 0.01534 0.58202 0.82822 0.0
C1608 C 0.02061 0.58618 0.90017 0.0
C1609 C 0.03316 0.59186 0.93607 0.0
C1610 C 0.04457 0.58348 0.94404 0.0
C1611 C 0.05667 0.58924 0.97749 0.0
C1612 C 0.05728 0.60317 0.0035 0.0
C1613 C 0.04575 0.61134 0.99615 0.0
C1614 C 0.03368 0.6057 0.96262 0.0
C1615 C 0.94198 0.526 0.90775 0.0
C1616 C 0.92782 0.52812 0.88738 0.0
C1617 C 0.96131 0.5401 0.90511 0.0
C1618 C 0.967 0.5566 0.88178 0.0
C1619 C 0.95278 0.55947 0.86374 0.0
C1620 C 0.93329 0.54532 0.86658 0.0
C1621 C 0.98782 0.56942 0.8734 0.0
C1622 C 1.00062 0.57694 0.90586 0.0
C1623 C 0.99532 0.57223 0.83398 0.0
C1624 C 0.98274 0.564 0.79839 0.0
C1625 C 0.98304 0.57618 0.76784 0.0
C1626 C 0.9712 0.56852 0.73422 0.0
C1627 C 0.95905 0.54866 0.73074 0.0
C1628 C 0.95879 0.53643 0.76079 0.0
C1629 C 0.97066 0.54401 0.79439 0.0
H1630 H 0.94988 0.54274 0.70472 0.0
H1631 H 0.06665 0.60761 0.02939 0.0
loop_
_geom_bond_atom_site_label_1
_geom_bond_atom_site_label_2
_geom_bond_distance
_geom_bond_site_symmetry_2
_ccdc_geom_bond_type
Mn0 O5 2.095 1_554 S
Mn0 O15 2.162 . S
Mn0 O16 2.297 . S
Mn0 O24 2.385 . S
Mn0 O25 2.209 . S
Mn0 O26 2.094 . S
Mn1 O6 2.106 1_554 S
Mn1 N8 2.257 . S
Mn1 N17 2.282 . S
Mn1 O25 2.215 . S
Mn1 O27 2.117 . S
C2 O24 1.234 . S
C2 O25 1.283 . S
C3 O15 1.281 . S
C3 O16 1.236 . S
C4 O26 1.240 . S
C4 O27 1.264 . S
O5 Mn0 2.095 1_556 S
O5 C14 1.250 . S
O6 Mn1 2.106 1_556 S
O6 C14 1.266 . S
C7 N8 1.326 . S
C7 C11 1.460 . S
C7 H13 0.929 . S
N8 Mn1 2.257 . S
N8 C7 1.326 . S
N8 C12 1.362 . S
C9 C10 1.258 . S
C9 C12 1.431 . S
C9 C29 1.449 . S
C10 C9 1.258 . S
C10 C11 1.477 . S
C10 H30 0.931 . S
C11 C7 1.460 . S
C11 C10 1.477 . S
C11 H31 0.930 . S
C12 N8 1.362 . S
C12 C9 1.431 . S
C12 C22 1.476 . S
H13 C7 0.929 . S
C14 O5 1.250 . S
C14 O6 1.266 . S
O15 Mn0 2.162 . S
O15 C3 1.281 . S
O16 Mn0 2.297 . S
O16 C3 1.236 . S
N17 Mn1 2.282 . S
N17 C18 1.328 . S
N17 C22 1.318 . S
C18 N17 1.328 . S
C18 C19 1.457 . S
C18 H23 0.929 . S
C19 C18 1.457 . S
C19 C20 1.291 . S
C19 H32 0.931 . S
C20 C19 1.291 . S
C20 C21 1.373 . S
C20 H33 0.929 . S
C21 C20 1.373 . S
C21 C22 1.396 . S
C21 C28 1.403 . S
C22 C12 1.476 . S
C22 N17 1.318 . S
C22 C21 1.396 . S
H23 C18 0.929 . S
O24 Mn0 2.385 . S
O24 C2 1.234 . S
O25 Mn0 2.209 . S
O25 Mn1 2.215 . S
O25 C2 1.283 . S
O26 Mn0 2.094 . S
O26 C4 1.240 . S
O27 Mn1 2.117 . S
O27 C4 1.264 . S
C28 C21 1.403 . S
C28 C29 1.399 . S
C28 H34 0.929 . S
C29 C9 1.449 . S
C29 C28 1.399 . S
C29 H35 0.930 . S
H30 C10 0.931 . S
H31 C11 0.930 . S
H32 C19 0.931 . S
H33 C20 0.929 . S
H34 C28 0.929 . S
H35 C29 0.930 . S
Mn36 O41 2.095 . S
Mn36 O51 2.162 . S
Mn36 O52 2.297 . S
Mn36 O60 2.385 . S
Mn36 O61 2.209 . S
Mn36 O62 2.094 . S
Mn37 O42 2.121 . S
Mn37 N44 2.257 . S
Mn37 N53 2.282 . S
Mn37 O61 2.215 . S
Mn37 O63 2.117 . S
C38 O60 1.234 . S
C38 O61 1.283 . S
C39 O51 1.281 . S
C39 O52 1.236 . S
C40 O62 1.240 . S
C40 O63 1.264 . S
O41 Mn36 2.095 . S
O41 C50 1.250 . S
O42 Mn37 2.121 . S
O42 C50 1.258 . S
C43 N44 1.326 . S
C43 C47 1.460 . S
C43 H49 0.929 . S
N44 Mn37 2.257 . S
N44 C43 1.326 . S
N44 C48 1.362 . S
C45 C46 1.258 . S
C45 C48 1.431 . S
C45 C65 1.449 . S
C46 C45 1.258 . S
C46 C47 1.477 . S
C46 H66 0.931 . S
C47 C43 1.460 . S
C47 C46 1.477 . S
C47 H67 0.930 . S
C48 N44 1.362 . S
C48 C45 1.431 . S
C48 C58 1.476 . S
H49 C43 0.929 . S
C50 O41 1.250 . S
C50 O42 1.258 . S
O51 Mn36 2.162 . S
O51 C39 1.281 . S
O52 Mn36 2.297 . S
O52 C39 1.236 . S
N53 Mn37 2.282 . S
N53 C54 1.328 . S
N53 C58 1.318 . S
C54 N53 1.328 . S
C54 C55 1.457 . S
C54 H59 0.929 . S
C55 C54 1.457 . S
C55 C56 1.291 . S
C55 H68 0.931 . S
C56 C55 1.291 . S
C56 C57 1.373 . S
C56 H69 0.929 . S
C57 C56 1.373 . S
C57 C58 1.396 . S
C57 C64 1.403 . S
C58 C48 1.476 . S
C58 N53 1.318 . S
C58 C57 1.396 . S
H59 C54 0.929 . S
O60 Mn36 2.385 . S
O60 C38 1.234 . S
O61 Mn36 2.209 . S
O61 Mn37 2.215 . S
O61 C38 1.283 . S
O62 Mn36 2.094 . S
O62 C40 1.240 . S
O63 Mn37 2.117 . S
O63 C40 1.264 . S
C64 C57 1.403 . S
C64 C65 1.399 . S
C64 H70 0.929 . S
C65 C45 1.449 . S
C65 C64 1.399 . S
C65 H71 0.930 . S
H66 C46 0.931 . S
H67 C47 0.930 . S
H68 C55 0.931 . S
H69 C56 0.929 . S
H70 C64 0.929 . S
H71 C65 0.930 . S
Mn72 O77 2.095 . S
Mn72 O87 2.162 . S
Mn72 O88 2.297 . S
Mn72 O96 2.385 . S
Mn72 O97 2.209 . S
Mn72 O98 2.094 . S
Mn73 O78 2.121 . S
Mn73 N80 2.257 . S
Mn73 N89 2.282 . S
Mn73 O97 2.215 . S
Mn73 O99 2.117 . S
C74 O96 1.234 . S
C74 O97 1.283 . S
C75 O87 1.281 . S
C75 O88 1.236 . S
C76 O98 1.240 . S
C76 O99 1.264 . S
O77 Mn72 2.095 . S
O77 C86 1.250 . S
O78 Mn73 2.121 . S
O78 C86 1.258 . S
C79 N80 1.326 . S
C79 C83 1.460 . S
C79 H85 0.929 . S
N80 Mn73 2.257 . S
N80 C79 1.326 . S
N80 C84 1.362 . S
C81 C82 1.258 . S
C81 C84 1.431 . S
C81 C101 1.449 . S
C82 C81 1.258 . S
C82 C83 1.477 . S
C82 H102 0.931 . S
C83 C79 1.460 . S
C83 C82 1.477 . S
C83 H103 0.930 . S
C84 N80 1.362 . S
C84 C81 1.431 . S
C84 C94 1.476 . S
H85 C79 0.929 . S
C86 O77 1.250 . S
C86 O78 1.258 . S
O87 Mn72 2.162 . S
O87 C75 1.281 . S
O88 Mn72 2.297 . S
O88 C75 1.236 . S
N89 Mn73 2.282 . S
N89 C90 1.328 . S
N89 C94 1.318 . S
C90 N89 1.328 . S
C90 C91 1.457 . S
C90 H95 0.929 . S
C91 C90 1.457 . S
C91 C92 1.291 . S
C91 H104 0.931 . S
C92 C91 1.291 . S
C92 C93 1.373 . S
C92 H105 0.929 . S
C93 C92 1.373 . S
C93 C94 1.396 . S
C93 C100 1.403 . S
C94 C84 1.476 . S
C94 N89 1.318 . S
C94 C93 1.396 . S
H95 C90 0.929 . S
O96 Mn72 2.385 . S
O96 C74 1.234 . S
O97 Mn72 2.209 . S
O97 Mn73 2.215 . S
O97 C74 1.283 . S
O98 Mn72 2.094 . S
O98 C76 1.240 . S
O99 Mn73 2.117 . S
O99 C76 1.264 . S
C100 C93 1.403 . S
C100 C101 1.399 . S
C100 H106 0.929 . S
C101 C81 1.449 . S
C101 C100 1.399 . S
C101 H107 0.930 . S
H102 C82 0.931 . S
H103 C83 0.930 . S
H104 C91 0.931 . S
H105 C92 0.929 . S
H106 C100 0.929 . S
H107 C101 0.930 . S
Mn108 O113 2.095 . S
Mn108 O123 2.162 . S
Mn108 O124 2.297 . S
Mn108 O132 2.385 . S
Mn108 O133 2.209 . S
Mn108 O134 2.094 . S
Mn109 O114 2.121 . S
Mn109 N116 2.257 . S
Mn109 N125 2.282 . S
Mn109 O133 2.215 . S
Mn109 O135 2.117 . S
C110 O132 1.234 . S
C110 O133 1.283 . S
C111 O123 1.281 . S
C111 O124 1.236 . S
C112 O134 1.240 . S
C112 O135 1.264 . S
O113 Mn108 2.095 . S
O113 C122 1.250 . S
O114 Mn109 2.121 . S
O114 C122 1.258 . S
C115 N116 1.326 . S
C115 C119 1.460 . S
C115 H121 0.929 . S
N116 Mn109 2.257 . S
N116 C115 1.326 . S
N116 C120 1.362 . S
C117 C118 1.258 . S
C117 C120 1.431 . S
C117 C137 1.449 . S
C118 C117 1.258 . S
C118 C119 1.477 . S
C118 H138 0.931 . S
C119 C115 1.460 . S
C119 C118 1.477 . S
C119 H139 0.930 . S
C120 N116 1.362 . S
C120 C117 1.431 . S
C120 C130 1.476 . S
H121 C115 0.929 . S
C122 O113 1.250 . S
C122 O114 1.258 . S
O123 Mn108 2.162 . S
O123 C111 1.281 . S
O124 Mn108 2.297 . S
O124 C111 1.236 . S
N125 Mn109 2.282 . S
N125 C126 1.328 . S
N125 C130 1.318 . S
C126 N125 1.328 . S
C126 C127 1.457 . S
C126 H131 0.929 . S
C127 C126 1.457 . S
C127 C128 1.291 . S
C127 H140 0.931 . S
C128 C127 1.291 . S
C128 C129 1.373 . S
C128 H141 0.929 . S
C129 C128 1.373 . S
C129 C130 1.396 . S
C129 C136 1.403 . S
C130 C120 1.476 . S
C130 N125 1.318 . S
C130 C129 1.396 . S
H131 C126 0.929 . S
O132 Mn108 2.385 . S
O132 C110 1.234 . S
O133 Mn108 2.209 . S
O133 Mn109 2.215 . S
O133 C110 1.283 . S
O134 Mn108 2.094 . S
O134 C112 1.240 . S
O135 Mn109 2.117 . S
O135 C112 1.264 . S
C136 C129 1.403 . S
C136 C137 1.399 . S
C136 H142 0.929 . S
C137 C117 1.449 . S
C137 C136 1.399 . S
C137 H143 0.930 . S
H138 C118 0.931 . S
H139 C119 0.930 . S
H140 C127 0.931 . S
H141 C128 0.929 . S
H142 C136 0.929 . S
H143 C137 0.930 . S
Mn144 O149 2.095 . S
Mn144 O159 2.162 . S
Mn144 O160 2.297 . S
Mn144 O168 2.385 . S
Mn144 O169 2.209 . S
Mn144 O170 2.094 . S
Mn145 O150 2.121 . S
Mn145 N152 2.257 . S
Mn145 N161 2.282 . S
Mn145 O169 2.215 . S
Mn145 O171 2.117 . S
C146 O168 1.234 . S
C146 O169 1.283 . S
C147 O159 1.281 . S
C147 O160 1.236 . S
C148 O170 1.240 . S
C148 O171 1.264 . S
O149 Mn144 2.095 . S
O149 C158 1.250 . S
O150 Mn145 2.121 . S
O150 C158 1.258 . S
C151 N152 1.326 . S
C151 C155 1.460 . S
C151 H157 0.929 . S
N152 Mn145 2.257 . S
N152 C151 1.326 . S
N152 C156 1.362 . S
C153 C154 1.258 . S
C153 C156 1.431 . S
C153 C173 1.449 . S
C154 C153 1.258 . S
C154 C155 1.477 . S
C154 H174 0.931 . S
C155 C151 1.460 . S
C155 C154 1.477 . S
C155 H175 0.930 . S
C156 N152 1.362 . S
C156 C153 1.431 . S
C156 C166 1.476 . S
H157 C151 0.929 . S
C158 O149 1.250 . S
C158 O150 1.258 . S
O159 Mn144 2.162 . S
O159 C147 1.281 . S
O160 Mn144 2.297 . S
O160 C147 1.236 . S
N161 Mn145 2.282 . S
N161 C162 1.328 . S
N161 C166 1.318 . S
C162 N161 1.328 . S
C162 C163 1.457 . S
C162 H167 0.929 . S
C163 C162 1.457 . S
C163 C164 1.291 . S
C163 H176 0.931 . S
C164 C163 1.291 . S
C164 C165 1.373 . S
C164 H177 0.929 . S
C165 C164 1.373 . S
C165 C166 1.396 . S
C165 C172 1.403 . S
C166 C156 1.476 . S
C166 N161 1.318 . S
C166 C165 1.396 . S
H167 C162 0.929 . S
O168 Mn144 2.385 . S
O168 C146 1.234 . S
O169 Mn144 2.209 . S
O169 Mn145 2.215 . S
O169 C146 1.283 . S
O170 Mn144 2.094 . S
O170 C148 1.240 . S
O171 Mn145 2.117 . S
O171 C148 1.264 . S
C172 C165 1.403 . S
C172 C173 1.399 . S
C172 H178 0.929 . S
C173 C153 1.449 . S
C173 C172 1.399 . S
C173 H179 0.930 . S
H174 C154 0.931 . S
H175 C155 0.930 . S
H176 C163 0.931 . S
H177 C164 0.929 . S
H178 C172 0.929 . S
H179 C173 0.930 . S
Mn180 O185 2.095 . S
Mn180 O195 2.162 . S
Mn180 O196 2.297 . S
Mn180 O204 2.385 . S
Mn180 O205 2.209 . S
Mn180 O206 2.094 . S
Mn181 O186 2.121 . S
Mn181 N188 2.257 . S
Mn181 N197 2.282 . S
Mn181 O205 2.215 . S
Mn181 O207 2.117 . S
C182 O204 1.234 . S
C182 O205 1.283 . S
C183 O195 1.281 . S
C183 O196 1.236 . S
C184 O206 1.240 . S
C184 O207 1.264 . S
O185 Mn180 2.095 . S
O185 C194 1.250 . S
O186 Mn181 2.121 . S
O186 C194 1.258 . S
C187 N188 1.326 . S
C187 C191 1.460 . S
C187 H193 0.929 . S
N188 Mn181 2.257 . S
N188 C187 1.326 . S
N188 C192 1.362 . S
C189 C190 1.258 . S
C189 C192 1.431 . S
C189 C209 1.449 . S
C190 C189 1.258 . S
C190 C191 1.477 . S
C190 H210 0.931 . S
C191 C187 1.460 . S
C191 C190 1.477 . S
C191 H211 0.930 . S
C192 N188 1.362 . S
C192 C189 1.431 . S
C192 C202 1.476 . S
H193 C187 0.929 . S
C194 O185 1.250 . S
C194 O186 1.258 . S
O195 Mn180 2.162 . S
O195 C183 1.281 . S
O196 Mn180 2.297 . S
O196 C183 1.236 . S
N197 Mn181 2.282 . S
N197 C198 1.328 . S
N197 C202 1.318 . S
C198 N197 1.328 . S
C198 C199 1.457 1_556 S
C198 H203 0.929 . S
C199 C198 1.457 1_554 S
C199 C200 1.291 . S
C199 H212 0.931 . S
C200 C199 1.291 . S
C200 C201 1.373 1_554 S
C200 H213 0.929 . S
C201 C200 1.373 1_556 S
C201 C202 1.396 . S
C201 C208 1.403 1_556 S
C202 C192 1.476 . S
C202 N197 1.318 . S
C202 C201 1.396 . S
H203 C198 0.929 . S
O204 Mn180 2.385 . S
O204 C182 1.234 . S
O205 Mn180 2.209 . S
O205 Mn181 2.215 . S
O205 C182 1.283 . S
O206 Mn180 2.094 . S
O206 C184 1.240 . S
O207 Mn181 2.117 . S
O207 C184 1.264 . S
C208 C201 1.403 1_554 S
C208 C209 1.399 1_554 S
C208 H214 0.929 . S
C209 C189 1.449 . S
C209 C208 1.399 1_556 S
C209 H215 0.930 . S
H210 C190 0.931 . S
H211 C191 0.930 . S
H212 C199 0.931 . S
H213 C200 0.929 . S
H214 C208 0.929 . S
H215 C209 0.930 . S
Mn216 O221 2.095 . S
Mn216 O231 2.162 . S
Mn216 O232 2.297 . S
Mn216 O240 2.385 . S
Mn216 O241 2.209 . S
Mn216 O242 2.094 . S
Mn217 O222 2.121 . S
Mn217 N224 2.257 . S
Mn217 N233 2.282 . S
Mn217 O241 2.215 . S
Mn217 O243 2.117 . S
C218 O240 1.234 . S
C218 O241 1.283 . S
C219 O231 1.281 . S
C219 O232 1.236 . S
C220 O242 1.240 . S
C220 O243 1.264 . S
O221 Mn216 2.095 . S
O221 C230 1.250 . S
O222 Mn217 2.121 . S
O222 C230 1.258 . S
C223 N224 1.326 . S
C223 C227 1.460 . S
C223 H229 0.929 . S
N224 Mn217 2.257 . S
N224 C223 1.326 . S
N224 C228 1.362 . S
C225 C226 1.258 . S
C225 C228 1.431 . S
C225 C245 1.449 . S
C226 C225 1.258 . S
C226 C227 1.477 . S
C226 H246 0.931 . S
C227 C223 1.460 . S
C227 C226 1.477 . S
C227 H247 0.930 . S
C228 N224 1.362 . S
C228 C225 1.431 . S
C228 C238 1.476 . S
H229 C223 0.929 . S
C230 O221 1.250 . S
C230 O222 1.258 . S
O231 Mn216 2.162 . S
O231 C219 1.281 . S
O232 Mn216 2.297 . S
O232 C219 1.236 . S
N233 Mn217 2.282 . S
N233 C234 1.328 . S
N233 C238 1.318 . S
C234 N233 1.328 . S
C234 C235 1.457 . S
C234 H239 0.929 . S
C235 C234 1.457 . S
C235 C236 1.291 . S
C235 H248 0.931 . S
C236 C235 1.291 . S
C236 C237 1.373 . S
C236 H249 0.929 . S
C237 C236 1.373 . S
C237 C238 1.396 . S
C237 C244 1.403 . S
C238 C228 1.476 . S
C238 N233 1.318 . S
C238 C237 1.396 . S
H239 C234 0.929 . S
O240 Mn216 2.385 . S
O240 C218 1.234 . S
O241 Mn216 2.209 . S
O241 Mn217 2.215 . S
O241 C218 1.283 . S
O242 Mn216 2.094 . S
O242 C220 1.240 . S
O243 Mn217 2.117 . S
O243 C220 1.264 . S
C244 C237 1.403 . S
C244 C245 1.399 . S
C244 H250 0.929 . S
C245 C225 1.449 . S
C245 C244 1.399 . S
C245 H251 0.930 . S
H246 C226 0.931 . S
H247 C227 0.930 . S
H248 C235 0.931 . S
H249 C236 0.929 . S
H250 C244 0.929 . S
H251 C245 0.930 . S
Mn252 O257 2.095 . S
Mn252 O267 2.162 . S
Mn252 O268 2.297 . S
Mn252 O276 2.385 1_554 S
Mn252 O277 2.209 . S
Mn252 O278 2.094 . S
Mn253 O258 2.121 . S
Mn253 N260 2.257 . S
Mn253 N269 2.282 1_554 S
Mn253 O277 2.215 . S
Mn253 O279 2.117 . S
C254 O276 1.234 . S
C254 O277 1.283 1_556 S
C255 O267 1.281 . S
C255 O268 1.236 . S
C256 O278 1.240 . S
C256 O279 1.264 . S
O257 Mn252 2.095 . S
O257 C266 1.250 . S
O258 Mn253 2.121 . S
O258 C266 1.258 . S
C259 N260 1.326 . S
C259 C263 1.460 . S
C259 H265 0.929 . S
N260 Mn253 2.257 . S
N260 C259 1.326 . S
N260 C264 1.362 1_554 S
C261 C262 1.246 1_556 S
C261 C264 1.431 . S
C261 C281 1.449 . S
C262 C261 1.246 1_554 S
C262 C263 1.495 . S
C262 H282 0.925 1_554 S
C263 C259 1.460 . S
C263 C262 1.495 . S
C263 H283 0.930 . S
C264 N260 1.362 1_556 S
C264 C261 1.431 . S
C264 C274 1.476 . S
H265 C259 0.929 . S
C266 O257 1.250 . S
C266 O258 1.258 . S
O267 Mn252 2.162 . S
O267 C255 1.281 . S
O268 Mn252 2.297 . S
O268 C255 1.236 . S
N269 Mn253 2.282 1_556 S
N269 C270 1.328 . S
N269 C274 1.318 . S
C270 N269 1.328 . S
C270 C271 1.457 . S
C270 H275 0.929 . S
C271 C270 1.457 . S
C271 C272 1.291 . S
C271 H284 0.931 . S
C272 C271 1.291 . S
C272 C273 1.373 . S
C272 H285 0.929 . S
C273 C272 1.373 . S
C273 C274 1.396 . S
C273 C280 1.403 . S
C274 C264 1.476 . S
C274 N269 1.318 . S
C274 C273 1.396 . S
H275 C270 0.929 . S
O276 Mn252 2.385 1_556 S
O276 C254 1.234 . S
O277 Mn252 2.209 . S
O277 Mn253 2.215 . S
O277 C254 1.283 1_554 S
O278 Mn252 2.094 . S
O278 C256 1.240 . S
O279 Mn253 2.117 . S
O279 C256 1.264 . S
C280 C273 1.403 . S
C280 C281 1.399 . S
C280 H286 0.929 . S
C281 C261 1.449 . S
C281 C280 1.399 . S
C281 H287 0.930 . S
H282 C262 0.925 1_556 S
H283 C263 0.930 . S
H284 C271 0.931 . S
H285 C272 0.929 . S
H286 C280 0.929 . S
H287 C281 0.930 . S
Mn288 O293 2.095 . S
Mn288 O303 2.162 . S
Mn288 O304 2.297 . S
Mn288 O312 2.385 . S
Mn288 O313 2.209 . S
Mn288 O314 2.094 . S
Mn289 O294 2.121 . S
Mn289 N296 2.257 . S
Mn289 N305 2.282 . S
Mn289 O313 2.215 . S
Mn289 O315 2.117 . S
C290 O312 1.234 . S
C290 O313 1.283 . S
C291 O303 1.281 . S
C291 O304 1.236 . S
C292 O314 1.240 . S
C292 O315 1.264 . S
O293 Mn288 2.095 . S
O293 C302 1.250 . S
O294 Mn289 2.121 . S
O294 C302 1.258 . S
C295 N296 1.326 . S
C295 C299 1.460 . S
C295 H301 0.929 . S
N296 Mn289 2.257 . S
N296 C295 1.326 . S
N296 C300 1.362 . S
C297 C298 1.258 . S
C297 C300 1.431 . S
C297 C317 1.449 . S
C298 C297 1.258 . S
C298 C299 1.477 . S
C298 H318 0.931 . S
C299 C295 1.460 . S
C299 C298 1.477 . S
C299 H319 0.930 . S
C300 N296 1.362 . S
C300 C297 1.431 . S
C300 C310 1.476 . S
H301 C295 0.929 . S
C302 O293 1.250 . S
C302 O294 1.258 . S
O303 Mn288 2.162 . S
O303 C291 1.281 . S
O304 Mn288 2.297 . S
O304 C291 1.236 . S
N305 Mn289 2.282 . S
N305 C306 1.328 . S
N305 C310 1.318 . S
C306 N305 1.328 . S
C306 C307 1.457 . S
C306 H311 0.929 . S
C307 C306 1.457 . S
C307 C308 1.291 . S
C307 H320 0.931 . S
C308 C307 1.291 . S
C308 C309 1.373 . S
C308 H321 0.929 . S
C309 C308 1.373 . S
C309 C310 1.396 . S
C309 C316 1.403 . S
C310 C300 1.476 . S
C310 N305 1.318 . S
C310 C309 1.396 . S
H311 C306 0.929 . S
O312 Mn288 2.385 . S
O312 C290 1.234 . S
O313 Mn288 2.209 . S
O313 Mn289 2.215 . S
O313 C290 1.283 . S
O314 Mn288 2.094 . S
O314 C292 1.240 . S
O315 Mn289 2.117 . S
O315 C292 1.264 . S
C316 C309 1.403 . S
C316 C317 1.399 . S
C316 H322 0.929 . S
C317 C297 1.449 . S
C317 C316 1.399 . S
C317 H323 0.930 . S
H318 C298 0.931 . S
H319 C299 0.930 . S
H320 C307 0.931 . S
H321 C308 0.929 . S
H322 C316 0.929 . S
H323 C317 0.930 . S
Mn324 O329 2.095 . S
Mn324 O339 2.162 . S
Mn324 O340 2.297 . S
Mn324 O348 2.385 . S
Mn324 O349 2.209 . S
Mn324 O350 2.094 . S
Mn325 O330 2.121 . S
Mn325 N332 2.257 . S
Mn325 N341 2.282 . S
Mn325 O349 2.215 . S
Mn325 O351 2.117 . S
C326 O348 1.234 . S
C326 O349 1.283 . S
C327 O339 1.281 . S
C327 O340 1.236 . S
C328 O350 1.240 . S
C328 O351 1.264 . S
O329 Mn324 2.095 . S
O329 C338 1.250 . S
O330 Mn325 2.121 . S
O330 C338 1.258 . S
C331 N332 1.326 . S
C331 C335 1.460 . S
C331 H337 0.929 . S
N332 Mn325 2.257 . S
N332 C331 1.326 . S
N332 C336 1.362 . S
C333 C334 1.258 . S
C333 C336 1.431 . S
C333 C353 1.449 . S
C334 C333 1.258 . S
C334 C335 1.477 . S
C334 H354 0.931 . S
C335 C331 1.460 . S
C335 C334 1.477 . S
C335 H355 0.930 . S
C336 N332 1.362 . S
C336 C333 1.431 . S
C336 C346 1.476 . S
H337 C331 0.929 . S
C338 O329 1.250 . S
C338 O330 1.258 . S
O339 Mn324 2.162 . S
O339 C327 1.281 . S
O340 Mn324 2.297 . S
O340 C327 1.236 . S
N341 Mn325 2.282 . S
N341 C342 1.328 . S
N341 C346 1.318 . S
C342 N341 1.328 . S
C342 C343 1.457 . S
C342 H347 0.929 . S
C343 C342 1.457 . S
C343 C344 1.291 . S
C343 H356 0.931 . S
C344 C343 1.291 . S
C344 C345 1.373 . S
C344 H357 0.929 . S
C345 C344 1.373 . S
C345 C346 1.396 . S
C345 C352 1.403 . S
C346 C336 1.476 . S
C346 N341 1.318 . S
C346 C345 1.396 . S
H347 C342 0.929 . S
O348 Mn324 2.385 . S
O348 C326 1.234 . S
O349 Mn324 2.209 . S
O349 Mn325 2.215 . S
O349 C326 1.283 . S
O350 Mn324 2.094 . S
O350 C328 1.240 . S
O351 Mn325 2.117 . S
O351 C328 1.264 . S
C352 C345 1.403 . S
C352 C353 1.399 . S
C352 H358 0.929 . S
C353 C333 1.449 . S
C353 C352 1.399 . S
C353 H359 0.930 . S
H354 C334 0.931 . S
H355 C335 0.930 . S
H356 C343 0.931 . S
H357 C344 0.929 . S
H358 C352 0.929 . S
H359 C353 0.930 . S
Mn360 O365 2.095 . S
Mn360 O375 2.162 . S
Mn360 O376 2.297 . S
Mn360 O384 2.385 . S
Mn360 O385 2.209 . S
Mn360 O386 2.094 . S
Mn361 O366 2.121 . S
Mn361 N368 2.257 . S
Mn361 N377 2.282 . S
Mn361 O385 2.215 . S
Mn361 O387 2.117 . S
C362 O384 1.234 . S
C362 O385 1.283 . S
C363 O375 1.281 . S
C363 O376 1.236 . S
C364 O386 1.240 . S
C364 O387 1.264 . S
O365 Mn360 2.095 . S
O365 C374 1.250 . S
O366 Mn361 2.121 . S
O366 C374 1.258 . S
C367 N368 1.326 . S
C367 C371 1.460 . S
C367 H373 0.929 . S
N368 Mn361 2.257 . S
N368 C367 1.326 . S
N368 C372 1.362 . S
C369 C370 1.258 . S
C369 C372 1.431 . S
C369 C389 1.449 . S
C370 C369 1.258 . S
C370 C371 1.477 . S
C370 H390 0.931 . S
C371 C367 1.460 . S
C371 C370 1.477 . S
C371 H391 0.930 . S
C372 N368 1.362 . S
C372 C369 1.431 . S
C372 C382 1.476 . S
H373 C367 0.929 . S
C374 O365 1.250 . S
C374 O366 1.258 . S
O375 Mn360 2.162 . S
O375 C363 1.281 . S
O376 Mn360 2.297 . S
O376 C363 1.236 . S
N377 Mn361 2.282 . S
N377 C378 1.328 . S
N377 C382 1.318 . S
C378 N377 1.328 . S
C378 C379 1.457 . S
C378 H383 0.929 . S
C379 C378 1.457 . S
C379 C380 1.291 . S
C379 H392 0.931 . S
C380 C379 1.291 . S
C380 C381 1.373 . S
C380 H393 0.929 . S
C381 C380 1.373 . S
C381 C382 1.396 . S
C381 C388 1.403 . S
C382 C372 1.476 . S
C382 N377 1.318 . S
C382 C381 1.396 . S
H383 C378 0.929 . S
O384 Mn360 2.385 . S
O384 C362 1.234 . S
O385 Mn360 2.209 . S
O385 Mn361 2.215 . S
O385 C362 1.283 . S
O386 Mn360 2.094 . S
O386 C364 1.240 . S
O387 Mn361 2.117 . S
O387 C364 1.264 . S
C388 C381 1.403 . S
C388 C389 1.399 . S
C388 H394 0.929 . S
C389 C369 1.449 . S
C389 C388 1.399 . S
C389 H395 0.930 . S
H390 C370 0.931 . S
H391 C371 0.930 . S
H392 C379 0.931 . S
H393 C380 0.929 . S
H394 C388 0.929 . S
H395 C389 0.930 . S
Mn396 O401 2.095 . S
Mn396 O411 2.162 . S
Mn396 O412 2.297 . S
Mn396 O420 2.385 . S
Mn396 O421 2.209 . S
Mn396 O422 2.094 . S
Mn397 O402 2.121 . S
Mn397 N404 2.257 . S
Mn397 N413 2.282 . S
Mn397 O421 2.215 . S
Mn397 O423 2.117 . S
C398 O420 1.234 . S
C398 O421 1.283 . S
C399 O411 1.281 . S
C399 O412 1.236 . S
C400 O422 1.240 . S
C400 O423 1.264 . S
O401 Mn396 2.095 . S
O401 C410 1.250 . S
O402 Mn397 2.121 . S
O402 C410 1.258 . S
C403 N404 1.326 . S
C403 C407 1.460 . S
C403 H409 0.929 . S
N404 Mn397 2.257 . S
N404 C403 1.326 . S
N404 C408 1.362 . S
C405 C406 1.258 . S
C405 C408 1.431 . S
C405 C425 1.449 . S
C406 C405 1.258 . S
C406 C407 1.477 . S
C406 H426 0.931 . S
C407 C403 1.460 . S
C407 C406 1.477 . S
C407 H427 0.930 . S
C408 N404 1.362 . S
C408 C405 1.431 . S
C408 C418 1.476 . S
H409 C403 0.929 . S
C410 O401 1.250 . S
C410 O402 1.258 . S
O411 Mn396 2.162 . S
O411 C399 1.281 . S
O412 Mn396 2.297 . S
O412 C399 1.236 . S
N413 Mn397 2.282 . S
N413 C414 1.328 . S
N413 C418 1.318 . S
C414 N413 1.328 . S
C414 C415 1.457 . S
C414 H419 0.929 . S
C415 C414 1.457 . S
C415 C416 1.291 . S
C415 H428 0.931 . S
C416 C415 1.291 . S
C416 C417 1.373 . S
C416 H429 0.929 . S
C417 C416 1.373 . S
C417 C418 1.396 . S
C417 C424 1.403 . S
C418 C408 1.476 . S
C418 N413 1.318 . S
C418 C417 1.396 . S
H419 C414 0.929 . S
O420 Mn396 2.385 . S
O420 C398 1.234 . S
O421 Mn396 2.209 . S
O421 Mn397 2.215 . S
O421 C398 1.283 . S
O422 Mn396 2.094 . S
O422 C400 1.240 . S
O423 Mn397 2.117 . S
O423 C400 1.264 . S
C424 C417 1.403 . S
C424 C425 1.399 . S
C424 H430 0.929 . S
C425 C405 1.449 . S
C425 C424 1.399 . S
C425 H431 0.930 . S
H426 C406 0.931 . S
H427 C407 0.930 . S
H428 C415 0.931 . S
H429 C416 0.929 . S
H430 C424 0.929 . S
H431 C425 0.930 . S
H432 C450 0.951 . S
H433 C452 0.951 . S
H434 C454 0.950 . S
H435 C455 0.950 . S
H436 C457 0.950 . S
H437 C460 0.950 . S
H438 C461 0.950 . S
H439 C463 0.950 . S
H440 C464 0.950 . S
H441 C465 0.951 . S
H442 C467 0.951 . S
H443 C469 0.950 . S
H444 C470 0.950 . S
H445 C472 0.950 . S
H446 C475 0.950 . S
H447 C476 0.950 . S
H448 C478 0.950 . S
H449 C479 0.950 . S
C450 H432 0.951 . S
C450 C451 1.366 . S
C450 C452 1.388 . S
C451 C450 1.366 . S
C451 C455 1.385 . S
C452 H433 0.951 . S
C452 C450 1.388 . S
C452 C453 1.366 . S
C453 C452 1.366 . S
C453 C454 1.414 . S
C453 C456 1.499 . S
C454 H434 0.950 . S
C454 C453 1.414 . S
C454 C455 1.374 . S
C455 H435 0.950 . S
C455 C451 1.385 . S
C455 C454 1.374 . S
C456 C453 1.499 . S
C456 C457 1.373 . S
C456 C458 1.389 . S
C457 H436 0.950 . S
C457 C456 1.373 . S
C457 C473 1.377 . S
C458 C456 1.389 . S
C458 C459 1.524 . S
C458 C472 1.377 . S
C459 C458 1.524 . S
C459 C460 1.397 . S
C459 C464 1.363 . S
C460 H437 0.950 . S
C460 C459 1.397 . S
C460 C461 1.334 . S
C461 H438 0.950 . S
C461 C460 1.334 . S
C461 C462 1.287 . S
C462 C461 1.287 . S
C462 C463 1.524 . S
C462 H481 0.913 . S
C463 H439 0.950 . S
C463 C462 1.524 . S
C463 C464 1.415 . S
C464 H440 0.950 . S
C464 C459 1.363 . S
C464 C463 1.415 . S
C465 H441 0.951 . S
C465 C466 1.366 . S
C465 C467 1.388 . S
C466 C465 1.366 . S
C466 C470 1.385 . S
C467 H442 0.951 . S
C467 C465 1.388 . S
C467 C468 1.366 . S
C468 C467 1.366 . S
C468 C469 1.414 . S
C468 C471 1.499 . S
C469 H443 0.950 . S
C469 C468 1.414 . S
C469 C470 1.374 . S
C470 H444 0.950 . S
C470 C466 1.385 . S
C470 C469 1.374 . S
C471 C468 1.499 . S
C471 C472 1.373 . S
C471 C473 1.389 . S
C472 H445 0.950 . S
C472 C458 1.377 . S
C472 C471 1.373 . S
C473 C457 1.377 . S
C473 C471 1.389 . S
C473 C474 1.524 . S
C474 C473 1.524 . S
C474 C475 1.397 . S
C474 C479 1.363 . S
C475 H446 0.950 . S
C475 C474 1.397 . S
C475 C476 1.334 . S
C476 H447 0.950 . S
C476 C475 1.334 . S
C476 C477 1.287 . S
C477 C476 1.287 . S
C477 C478 1.524 . S
C477 H480 0.999 . S
C478 H448 0.950 . S
C478 C477 1.524 . S
C478 C479 1.415 . S
C479 H449 0.950 . S
C479 C474 1.363 . S
C479 C478 1.415 . S
H480 C477 0.999 . S
H481 C462 0.913 . S
H482 C500 0.951 . S
H483 C502 0.951 . S
H484 C504 0.950 . S
H485 C505 0.950 . S
H486 C507 0.950 . S
H487 C510 0.950 . S
H488 C511 0.950 . S
H489 C513 0.950 . S
H490 C514 0.950 . S
H491 C515 0.951 . S
H492 C517 0.951 . S
H493 C519 0.950 . S
H494 C520 0.950 . S
H495 C522 0.950 . S
H496 C525 0.950 . S
H497 C526 0.950 . S
H498 C528 0.950 . S
H499 C529 0.950 . S
C500 H482 0.951 . S
C500 C501 1.366 . S
C500 C502 1.388 . S
C501 C500 1.366 . S
C501 C505 1.385 . S
C502 H483 0.951 . S
C502 C500 1.388 . S
C502 C503 1.366 . S
C503 C502 1.366 . S
C503 C504 1.414 . S
C503 C506 1.499 . S
C504 H484 0.950 . S
C504 C503 1.414 . S
C504 C505 1.374 . S
C505 H485 0.950 . S
C505 C501 1.385 . S
C505 C504 1.374 . S
C506 C503 1.499 . S
C506 C507 1.373 . S
C506 C508 1.389 . S
C507 H486 0.950 . S
C507 C506 1.373 . S
C507 C523 1.377 . S
C508 C506 1.389 . S
C508 C509 1.524 . S
C508 C522 1.377 . S
C509 C508 1.524 . S
C509 C510 1.397 . S
C509 C514 1.363 . S
C510 H487 0.950 . S
C510 C509 1.397 . S
C510 C511 1.334 . S
C511 H488 0.950 . S
C511 C510 1.334 . S
C511 C512 1.287 . S
C512 C511 1.287 . S
C512 C513 1.524 . S
C512 H531 0.913 . S
C513 H489 0.950 . S
C513 C512 1.524 . S
C513 C514 1.415 . S
C514 H490 0.950 . S
C514 C509 1.363 . S
C514 C513 1.415 . S
C515 H491 0.951 . S
C515 C516 1.366 . S
C515 C517 1.388 . S
C516 C515 1.366 . S
C516 C520 1.385 . S
C517 H492 0.951 . S
C517 C515 1.388 . S
C517 C518 1.366 . S
C518 C517 1.366 . S
C518 C519 1.414 . S
C518 C521 1.499 . S
C519 H493 0.950 . S
C519 C518 1.414 . S
C519 C520 1.374 . S
C520 H494 0.950 . S
C520 C516 1.385 . S
C520 C519 1.374 . S
C521 C518 1.499 . S
C521 C522 1.373 . S
C521 C523 1.389 . S
C522 H495 0.950 . S
C522 C508 1.377 . S
C522 C521 1.373 . S
C523 C507 1.377 . S
C523 C521 1.389 . S
C523 C524 1.524 . S
C524 C523 1.524 . S
C524 C525 1.397 . S
C524 C529 1.363 . S
C525 H496 0.950 . S
C525 C524 1.397 . S
C525 C526 1.334 . S
C526 H497 0.950 . S
C526 C525 1.334 . S
C526 C527 1.287 . S
C527 C526 1.287 . S
C527 C528 1.524 . S
C527 H530 0.999 . S
C528 H498 0.950 . S
C528 C527 1.524 . S
C528 C529 1.415 . S
C529 H499 0.950 . S
C529 C524 1.363 . S
C529 C528 1.415 . S
H530 C527 0.999 . S
H531 C512 0.913 . S
H532 C550 0.951 . S
H533 C552 0.951 . S
H534 C554 0.950 . S
H535 C555 0.950 . S
H536 C557 0.950 . S
H537 C560 0.950 . S
H538 C561 0.950 . S
H539 C563 0.950 . S
H540 C564 0.950 . S
H541 C565 0.951 . S
H542 C567 0.951 . S
H543 C569 0.950 . S
H544 C570 0.950 . S
H545 C572 0.950 . S
H546 C575 0.950 . S
H547 C576 0.950 . S
H548 C578 0.950 . S
H549 C579 0.950 . S
C550 H532 0.951 . S
C550 C551 1.366 . S
C550 C552 1.388 . S
C551 C550 1.366 . S
C551 C555 1.385 . S
C552 H533 0.951 . S
C552 C550 1.388 . S
C552 C553 1.366 . S
C553 C552 1.366 . S
C553 C554 1.414 . S
C553 C556 1.499 . S
C554 H534 0.950 . S
C554 C553 1.414 . S
C554 C555 1.374 . S
C555 H535 0.950 . S
C555 C551 1.385 . S
C555 C554 1.374 . S
C556 C553 1.499 . S
C556 C557 1.373 . S
C556 C558 1.389 . S
C557 H536 0.950 . S
C557 C556 1.373 . S
C557 C573 1.377 . S
C558 C556 1.389 . S
C558 C559 1.524 . S
C558 C572 1.377 . S
C559 C558 1.524 . S
C559 C560 1.397 . S
C559 C564 1.363 . S
C560 H537 0.950 . S
C560 C559 1.397 . S
C560 C561 1.334 . S
C561 H538 0.950 . S
C561 C560 1.334 . S
C561 C562 1.287 . S
C562 C561 1.287 . S
C562 C563 1.524 . S
C562 H581 0.913 . S
C563 H539 0.950 . S
C563 C562 1.524 . S
C563 C564 1.415 . S
C564 H540 0.950 . S
C564 C559 1.363 . S
C564 C563 1.415 . S
C565 H541 0.951 . S
C565 C566 1.366 . S
C565 C567 1.388 . S
C566 C565 1.366 . S
C566 C570 1.385 . S
C567 H542 0.951 . S
C567 C565 1.388 . S
C567 C568 1.366 . S
C568 C567 1.366 . S
C568 C569 1.414 . S
C568 C571 1.499 . S
C569 H543 0.950 . S
C569 C568 1.414 . S
C569 C570 1.374 . S
C570 H544 0.950 . S
C570 C566 1.385 . S
C570 C569 1.374 . S
C571 C568 1.499 . S
C571 C572 1.373 . S
C571 C573 1.389 . S
C572 H545 0.950 . S
C572 C558 1.377 . S
C572 C571 1.373 . S
C573 C557 1.377 . S
C573 C571 1.389 . S
C573 C574 1.524 . S
C574 C573 1.524 . S
C574 C575 1.397 . S
C574 C579 1.363 . S
C575 H546 0.950 . S
C575 C574 1.397 . S
C575 C576 1.334 . S
C576 H547 0.950 . S
C576 C575 1.334 . S
C576 C577 1.287 . S
C577 C576 1.287 . S
C577 C578 1.524 . S
C577 H580 0.999 . S
C578 H548 0.950 . S
C578 C577 1.524 . S
C578 C579 1.415 . S
C579 H549 0.950 . S
C579 C574 1.363 . S
C579 C578 1.415 . S
H580 C577 0.999 . S
H581 C562 0.913 . S
H582 C600 0.951 . S
H583 C602 0.951 . S
H584 C604 0.950 . S
H585 C605 0.950 . S
H586 C607 0.950 . S
H587 C610 0.950 . S
H588 C611 0.950 . S
H589 C613 0.950 . S
H590 C614 0.950 . S
H591 C615 0.951 . S
H592 C617 0.951 . S
H593 C619 0.950 . S
H594 C620 0.950 . S
H595 C622 0.950 . S
H596 C625 0.950 . S
H597 C626 0.950 . S
H598 C628 0.950 . S
H599 C629 0.950 . S
C600 H582 0.951 . S
C600 C601 1.366 . S
C600 C602 1.388 . S
C601 C600 1.366 . S
C601 C605 1.385 . S
C602 H583 0.951 . S
C602 C600 1.388 . S
C602 C603 1.366 . S
C603 C602 1.366 . S
C603 C604 1.414 . S
C603 C606 1.499 . S
C604 H584 0.950 . S
C604 C603 1.414 . S
C604 C605 1.374 . S
C605 H585 0.950 . S
C605 C601 1.385 . S
C605 C604 1.374 . S
C606 C603 1.499 . S
C606 C607 1.373 . S
C606 C608 1.389 . S
C607 H586 0.950 . S
C607 C606 1.373 . S
C607 C623 1.377 . S
C608 C606 1.389 . S
C608 C609 1.524 . S
C608 C622 1.377 . S
C609 C608 1.524 . S
C609 C610 1.397 . S
C609 C614 1.363 . S
C610 H587 0.950 . S
C610 C609 1.397 . S
C610 C611 1.334 . S
C611 H588 0.950 . S
C611 C610 1.334 . S
C611 C612 1.287 . S
C612 C611 1.287 . S
C612 C613 1.524 . S
C612 H631 0.913 . S
C613 H589 0.950 . S
C613 C612 1.524 . S
C613 C614 1.415 . S
C614 H590 0.950 . S
C614 C609 1.363 . S
C614 C613 1.415 . S
C615 H591 0.951 . S
C615 C616 1.366 . S
C615 C617 1.388 . S
C616 C615 1.366 . S
C616 C620 1.385 . S
C617 H592 0.951 . S
C617 C615 1.388 . S
C617 C618 1.366 . S
C618 C617 1.366 . S
C618 C619 1.414 . S
C618 C621 1.499 . S
C619 H593 0.950 . S
C619 C618 1.414 . S
C619 C620 1.374 . S
C620 H594 0.950 . S
C620 C616 1.385 . S
C620 C619 1.374 . S
C621 C618 1.499 . S
C621 C622 1.373 . S
C621 C623 1.389 . S
C622 H595 0.950 . S
C622 C608 1.377 . S
C622 C621 1.373 . S
C623 C607 1.377 . S
C623 C621 1.389 . S
C623 C624 1.524 . S
C624 C623 1.524 . S
C624 C625 1.397 . S
C624 C629 1.363 . S
C625 H596 0.950 . S
C625 C624 1.397 . S
C625 C626 1.334 . S
C626 H597 0.950 . S
C626 C625 1.334 . S
C626 C627 1.287 . S
C627 C626 1.287 . S
C627 C628 1.524 . S
C627 H630 0.999 . S
C628 H598 0.950 . S
C628 C627 1.524 . S
C628 C629 1.415 . S
C629 H599 0.950 . S
C629 C624 1.363 . S
C629 C628 1.415 . S
H630 C627 0.999 . S
H631 C612 0.913 . S
H632 C650 0.951 . S
H633 C652 0.951 . S
H634 C654 0.950 . S
H635 C655 0.950 . S
H636 C657 0.950 1_554 S
H637 C660 0.950 . S
H638 C661 0.950 . S
H639 C663 0.950 . S
H640 C664 0.950 . S
H641 C665 0.951 . S
H642 C667 0.951 . S
H643 C669 0.950 . S
H644 C670 0.950 . S
H645 C672 0.950 . S
H646 C675 0.950 . S
H647 C676 0.950 . S
H648 C678 0.950 . S
H649 C679 0.950 . S
C650 H632 0.951 . S
C650 C651 1.366 . S
C650 C652 1.388 . S
C651 C650 1.366 . S
C651 C655 1.385 . S
C652 H633 0.951 . S
C652 C650 1.388 . S
C652 C653 1.366 . S
C653 C652 1.366 . S
C653 C654 1.414 . S
C653 C656 1.499 1_554 S
C654 H634 0.950 . S
C654 C653 1.414 . S
C654 C655 1.374 . S
C655 H635 0.950 . S
C655 C651 1.385 . S
C655 C654 1.374 . S
C656 C653 1.499 1_556 S
C656 C657 1.373 . S
C656 C658 1.389 . S
C657 H636 0.950 1_556 S
C657 C656 1.373 . S
C657 C673 1.377 . S
C658 C656 1.389 . S
C658 C659 1.524 . S
C658 C672 1.377 . S
C659 C658 1.524 . S
C659 C660 1.397 1_556 S
C659 C664 1.363 . S
C660 H637 0.950 . S
C660 C659 1.397 1_554 S
C660 C661 1.334 . S
C661 H638 0.950 . S
C661 C660 1.334 . S
C661 C662 1.287 . S
C662 C661 1.287 . S
C662 C663 1.524 1_554 S
C662 H681 0.913 . S
C663 H639 0.950 . S
C663 C662 1.524 1_556 S
C663 C664 1.415 . S
C664 H640 0.950 . S
C664 C659 1.363 . S
C664 C663 1.415 . S
C665 H641 0.951 . S
C665 C666 1.366 . S
C665 C667 1.388 . S
C666 C665 1.366 . S
C666 C670 1.385 . S
C667 H642 0.951 . S
C667 C665 1.388 . S
C667 C668 1.366 . S
C668 C667 1.366 . S
C668 C669 1.414 . S
C668 C671 1.499 . S
C669 H643 0.950 . S
C669 C668 1.414 . S
C669 C670 1.374 . S
C670 H644 0.950 . S
C670 C666 1.385 . S
C670 C669 1.374 . S
C671 C668 1.499 . S
C671 C672 1.373 . S
C671 C673 1.389 . S
C672 H645 0.950 . S
C672 C658 1.377 . S
C672 C671 1.373 . S
C673 C657 1.377 . S
C673 C671 1.389 . S
C673 C674 1.524 . S
C674 C673 1.524 . S
C674 C675 1.397 . S
C674 C679 1.363 . S
C675 H646 0.950 . S
C675 C674 1.397 . S
C675 C676 1.334 . S
C676 H647 0.950 . S
C676 C675 1.334 . S
C676 C677 1.287 . S
C677 C676 1.287 . S
C677 C678 1.524 . S
C677 H680 0.999 . S
C678 H648 0.950 . S
C678 C677 1.524 . S
C678 C679 1.415 . S
C679 H649 0.950 . S
C679 C674 1.363 . S
C679 C678 1.415 . S
H680 C677 0.999 . S
H681 C662 0.913 . S
H682 C700 0.951 . S
H683 C702 0.951 . S
H684 C704 0.950 . S
H685 C705 0.950 . S
H686 C707 0.950 . S
H687 C710 0.950 . S
H688 C711 0.950 . S
H689 C713 0.950 . S
H690 C714 0.950 . S
H691 C715 0.951 . S
H692 C717 0.951 . S
H693 C719 0.950 . S
H694 C720 0.950 . S
H695 C722 0.950 . S
H696 C725 0.950 . S
H697 C726 0.950 . S
H698 C728 0.950 . S
H699 C729 0.950 . S
C700 H682 0.951 . S
C700 C701 1.366 . S
C700 C702 1.388 . S
C701 C700 1.366 . S
C701 C705 1.385 . S
C702 H683 0.951 . S
C702 C700 1.388 . S
C702 C703 1.366 . S
C703 C702 1.366 . S
C703 C704 1.414 . S
C703 C706 1.499 . S
C704 H684 0.950 . S
C704 C703 1.414 . S
C704 C705 1.374 . S
C705 H685 0.950 . S
C705 C701 1.385 . S
C705 C704 1.374 . S
C706 C703 1.499 . S
C706 C707 1.373 . S
C706 C708 1.389 . S
C707 H686 0.950 . S
C707 C706 1.373 . S
C707 C723 1.377 . S
C708 C706 1.389 . S
C708 C709 1.524 . S
C708 C722 1.377 . S
C709 C708 1.524 . S
C709 C710 1.397 . S
C709 C714 1.363 . S
C710 H687 0.950 . S
C710 C709 1.397 . S
C710 C711 1.334 . S
C711 H688 0.950 . S
C711 C710 1.334 . S
C711 C712 1.287 . S
C712 C711 1.287 . S
C712 C713 1.524 . S
C712 H731 0.913 . S
C713 H689 0.950 . S
C713 C712 1.524 . S
C713 C714 1.415 . S
C714 H690 0.950 . S
C714 C709 1.363 . S
C714 C713 1.415 . S
C715 H691 0.951 . S
C715 C716 1.366 . S
C715 C717 1.388 1_556 S
C716 C715 1.366 . S
C716 C720 1.385 1_556 S
C717 H692 0.951 . S
C717 C715 1.388 1_554 S
C717 C718 1.366 . S
C718 C717 1.366 . S
C718 C719 1.414 . S
C718 C721 1.499 . S
C719 H693 0.950 . S
C719 C718 1.414 . S
C719 C720 1.374 . S
C720 H694 0.950 . S
C720 C716 1.385 1_554 S
C720 C719 1.374 . S
C721 C718 1.499 . S
C721 C722 1.373 . S
C721 C723 1.389 . S
C722 H695 0.950 . S
C722 C708 1.377 . S
C722 C721 1.373 . S
C723 C707 1.377 . S
C723 C721 1.389 . S
C723 C724 1.524 . S
C724 C723 1.524 . S
C724 C725 1.397 . S
C724 C729 1.363 . S
C725 H696 0.950 . S
C725 C724 1.397 . S
C725 C726 1.334 . S
C726 H697 0.950 . S
C726 C725 1.334 . S
C726 C727 1.287 . S
C727 C726 1.287 . S
C727 C728 1.524 . S
C727 H730 0.999 . S
C728 H698 0.950 . S
C728 C727 1.524 . S
C728 C729 1.415 . S
C729 H699 0.950 . S
C729 C724 1.363 . S
C729 C728 1.415 . S
H730 C727 0.999 . S
H731 C712 0.913 . S
H732 C750 0.951 . S
H733 C752 0.951 . S
H734 C754 0.950 . S
H735 C755 0.950 . S
H736 C757 0.950 . S
H737 C760 0.950 . S
H738 C761 0.950 . S
H739 C763 0.950 . S
H740 C764 0.950 . S
H741 C765 0.951 . S
H742 C767 0.951 . S
H743 C769 0.950 . S
H744 C770 0.950 . S
H745 C772 0.950 . S
H746 C775 0.950 . S
H747 C776 0.950 . S
H748 C778 0.950 . S
H749 C779 0.950 . S
C750 H732 0.951 . S
C750 C751 1.366 . S
C750 C752 1.388 . S
C751 C750 1.366 . S
C751 C755 1.385 . S
C752 H733 0.951 . S
C752 C750 1.388 . S
C752 C753 1.366 . S
C753 C752 1.366 . S
C753 C754 1.414 . S
C753 C756 1.499 . S
C754 H734 0.950 . S
C754 C753 1.414 . S
C754 C755 1.374 . S
C755 H735 0.950 . S
C755 C751 1.385 . S
C755 C754 1.374 . S
C756 C753 1.499 . S
C756 C757 1.373 . S
C756 C758 1.389 . S
C757 H736 0.950 . S
C757 C756 1.373 . S
C757 C773 1.377 . S
C758 C756 1.389 . S
C758 C759 1.524 . S
C758 C772 1.377 . S
C759 C758 1.524 . S
C759 C760 1.397 . S
C759 C764 1.363 . S
C760 H737 0.950 . S
C760 C759 1.397 . S
C760 C761 1.334 . S
C761 H738 0.950 . S
C761 C760 1.334 . S
C761 C762 1.287 . S
C762 C761 1.287 . S
C762 C763 1.524 . S
C762 H781 0.913 . S
C763 H739 0.950 . S
C763 C762 1.524 . S
C763 C764 1.415 . S
C764 H740 0.950 . S
C764 C759 1.363 . S
C764 C763 1.415 . S
C765 H741 0.951 . S
C765 C766 1.366 . S
C765 C767 1.388 . S
C766 C765 1.366 . S
C766 C770 1.385 . S
C767 H742 0.951 . S
C767 C765 1.388 . S
C767 C768 1.366 . S
C768 C767 1.366 . S
C768 C769 1.414 . S
C768 C771 1.499 . S
C769 H743 0.950 . S
C769 C768 1.414 . S
C769 C770 1.374 . S
C770 H744 0.950 . S
C770 C766 1.385 . S
C770 C769 1.374 . S
C771 C768 1.499 . S
C771 C772 1.373 . S
C771 C773 1.389 . S
C772 H745 0.950 . S
C772 C758 1.377 . S
C772 C771 1.373 . S
C773 C757 1.377 . S
C773 C771 1.389 . S
C773 C774 1.524 . S
C774 C773 1.524 . S
C774 C775 1.397 . S
C774 C779 1.363 . S
C775 H746 0.950 . S
C775 C774 1.397 . S
C775 C776 1.334 . S
C776 H747 0.950 . S
C776 C775 1.334 . S
C776 C777 1.287 . S
C777 C776 1.287 . S
C777 C778 1.524 . S
C777 H780 0.999 . S
C778 H748 0.950 . S
C778 C777 1.524 . S
C778 C779 1.415 . S
C779 H749 0.950 . S
C779 C774 1.363 . S
C779 C778 1.415 . S
H780 C777 0.999 . S
H781 C762 0.913 . S
H782 C800 0.951 . S
H783 C802 0.951 . S
H784 C804 0.950 . S
H785 C805 0.950 . S
H786 C807 0.950 . S
H787 C810 0.950 . S
H788 C811 0.950 . S
H789 C813 0.950 . S
H790 C814 0.950 . S
H791 C815 0.951 . S
H792 C817 0.951 . S
H793 C819 0.950 . S
H794 C820 0.950 . S
H795 C822 0.950 . S
H796 C825 0.950 . S
H797 C826 0.950 . S
H798 C828 0.950 . S
H799 C829 0.950 . S
C800 H782 0.951 . S
C800 C801 1.366 . S
C800 C802 1.388 . S
C801 C800 1.366 . S
C801 C805 1.385 . S
C802 H783 0.951 . S
C802 C800 1.388 . S
C802 C803 1.366 . S
C803 C802 1.366 . S
C803 C804 1.414 . S
C803 C806 1.499 . S
C804 H784 0.950 . S
C804 C803 1.414 . S
C804 C805 1.374 . S
C805 H785 0.950 . S
C805 C801 1.385 . S
C805 C804 1.374 . S
C806 C803 1.499 . S
C806 C807 1.373 . S
C806 C808 1.389 . S
C807 H786 0.950 . S
C807 C806 1.373 . S
C807 C823 1.377 . S
C808 C806 1.389 . S
C808 C809 1.524 . S
C808 C822 1.377 . S
C809 C808 1.524 . S
C809 C810 1.397 . S
C809 C814 1.363 . S
C810 H787 0.950 . S
C810 C809 1.397 . S
C810 C811 1.334 . S
C811 H788 0.950 . S
C811 C810 1.334 . S
C811 C812 1.287 . S
C812 C811 1.287 . S
C812 C813 1.524 . S
C812 H831 0.913 . S
C813 H789 0.950 . S
C813 C812 1.524 . S
C813 C814 1.415 . S
C814 H790 0.950 . S
C814 C809 1.363 . S
C814 C813 1.415 . S
C815 H791 0.951 . S
C815 C816 1.366 . S
C815 C817 1.388 . S
C816 C815 1.366 . S
C816 C820 1.385 . S
C817 H792 0.951 . S
C817 C815 1.388 . S
C817 C818 1.366 . S
C818 C817 1.366 . S
C818 C819 1.414 . S
C818 C821 1.499 . S
C819 H793 0.950 . S
C819 C818 1.414 . S
C819 C820 1.374 . S
C820 H794 0.950 . S
C820 C816 1.385 . S
C820 C819 1.374 . S
C821 C818 1.499 . S
C821 C822 1.373 . S
C821 C823 1.389 . S
C822 H795 0.950 . S
C822 C808 1.377 . S
C822 C821 1.373 . S
C823 C807 1.377 . S
C823 C821 1.389 . S
C823 C824 1.524 . S
C824 C823 1.524 . S
C824 C825 1.397 . S
C824 C829 1.363 . S
C825 H796 0.950 . S
C825 C824 1.397 . S
C825 C826 1.334 . S
C826 H797 0.950 . S
C826 C825 1.334 . S
C826 C827 1.287 . S
C827 C826 1.287 . S
C827 C828 1.524 . S
C827 H830 0.999 . S
C828 H798 0.950 . S
C828 C827 1.524 . S
C828 C829 1.415 . S
C829 H799 0.950 . S
C829 C824 1.363 . S
C829 C828 1.415 . S
H830 C827 0.999 . S
H831 C812 0.913 . S
H832 C850 0.951 . S
H833 C852 0.951 . S
H834 C854 0.950 . S
H835 C855 0.950 . S
H836 C857 0.950 . S
H837 C860 0.950 . S
H838 C861 0.950 . S
H839 C863 0.950 . S
H840 C864 0.950 . S
H841 C865 0.951 . S
H842 C867 0.951 . S
H843 C869 0.950 . S
H844 C870 0.950 . S
H845 C872 0.950 . S
H846 C875 0.950 . S
H847 C876 0.950 . S
H848 C878 0.950 . S
H849 C879 0.950 . S
C850 H832 0.951 . S
C850 C851 1.366 . S
C850 C852 1.388 . S
C851 C850 1.366 . S
C851 C855 1.385 . S
C852 H833 0.951 . S
C852 C850 1.388 . S
C852 C853 1.366 . S
C853 C852 1.366 . S
C853 C854 1.414 . S
C853 C856 1.499 . S
C854 H834 0.950 . S
C854 C853 1.414 . S
C854 C855 1.374 . S
C855 H835 0.950 . S
C855 C851 1.385 . S
C855 C854 1.374 . S
C856 C853 1.499 . S
C856 C857 1.373 . S
C856 C858 1.389 . S
C857 H836 0.950 . S
C857 C856 1.373 . S
C857 C873 1.377 . S
C858 C856 1.389 . S
C858 C859 1.524 . S
C858 C872 1.377 . S
C859 C858 1.524 . S
C859 C860 1.397 . S
C859 C864 1.363 . S
C860 H837 0.950 . S
C860 C859 1.397 . S
C860 C861 1.334 . S
C861 H838 0.950 . S
C861 C860 1.334 . S
C861 C862 1.287 . S
C862 C861 1.287 . S
C862 C863 1.524 . S
C862 H881 0.913 . S
C863 H839 0.950 . S
C863 C862 1.524 . S
C863 C864 1.415 . S
C864 H840 0.950 . S
C864 C859 1.363 . S
C864 C863 1.415 . S
C865 H841 0.951 . S
C865 C866 1.366 . S
C865 C867 1.388 . S
C866 C865 1.366 . S
C866 C870 1.385 . S
C867 H842 0.951 . S
C867 C865 1.388 . S
C867 C868 1.366 . S
C868 C867 1.366 . S
C868 C869 1.414 . S
C868 C871 1.499 . S
C869 H843 0.950 . S
C869 C868 1.414 . S
C869 C870 1.374 . S
C870 H844 0.950 . S
C870 C866 1.385 . S
C870 C869 1.374 . S
C871 C868 1.499 . S
C871 C872 1.373 . S
C871 C873 1.389 . S
C872 H845 0.950 . S
C872 C858 1.377 . S
C872 C871 1.373 . S
C873 C857 1.377 . S
C873 C871 1.389 . S
C873 C874 1.524 . S
C874 C873 1.524 . S
C874 C875 1.397 . S
C874 C879 1.363 . S
C875 H846 0.950 . S
C875 C874 1.397 . S
C875 C876 1.334 . S
C876 H847 0.950 . S
C876 C875 1.334 . S
C876 C877 1.287 . S
C877 C876 1.287 . S
C877 C878 1.524 . S
C877 H880 0.999 . S
C878 H848 0.950 . S
C878 C877 1.524 . S
C878 C879 1.415 . S
C879 H849 0.950 . S
C879 C874 1.363 . S
C879 C878 1.415 . S
H880 C877 0.999 . S
H881 C862 0.913 . S
H882 C900 0.951 . S
H883 C902 0.951 . S
H884 C904 0.950 . S
H885 C905 0.950 . S
H886 C907 0.950 . S
H887 C910 0.950 . S
H888 C911 0.950 . S
H889 C913 0.950 . S
H890 C914 0.950 . S
H891 C915 0.951 . S
H892 C917 0.951 . S
H893 C919 0.950 . S
H894 C920 0.950 . S
H895 C922 0.950 . S
H896 C925 0.950 . S
H897 C926 0.950 . S
H898 C928 0.950 . S
H899 C929 0.950 . S
C900 H882 0.951 . S
C900 C901 1.366 . S
C900 C902 1.388 . S
C901 C900 1.366 . S
C901 C905 1.385 . S
C902 H883 0.951 . S
C902 C900 1.388 . S
C902 C903 1.366 . S
C903 C902 1.366 . S
C903 C904 1.414 . S
C903 C906 1.499 . S
C904 H884 0.950 . S
C904 C903 1.414 . S
C904 C905 1.374 . S
C905 H885 0.950 . S
C905 C901 1.385 . S
C905 C904 1.374 . S
C906 C903 1.499 . S
C906 C907 1.373 . S
C906 C908 1.389 . S
C907 H886 0.950 . S
C907 C906 1.373 . S
C907 C923 1.377 . S
C908 C906 1.389 . S
C908 C909 1.524 . S
C908 C922 1.377 . S
C909 C908 1.524 . S
C909 C910 1.397 . S
C909 C914 1.363 . S
C910 H887 0.950 . S
C910 C909 1.397 . S
C910 C911 1.334 . S
C911 H888 0.950 . S
C911 C910 1.334 . S
C911 C912 1.287 . S
C912 C911 1.287 . S
C912 C913 1.524 . S
C912 H931 0.913 . S
C913 H889 0.950 . S
C913 C912 1.524 . S
C913 C914 1.415 . S
C914 H890 0.950 . S
C914 C909 1.363 . S
C914 C913 1.415 . S
C915 H891 0.951 . S
C915 C916 1.366 . S
C915 C917 1.388 . S
C916 C915 1.366 . S
C916 C920 1.385 . S
C917 H892 0.951 . S
C917 C915 1.388 . S
C917 C918 1.366 . S
C918 C917 1.366 . S
C918 C919 1.414 . S
C918 C921 1.499 . S
C919 H893 0.950 . S
C919 C918 1.414 . S
C919 C920 1.374 . S
C920 H894 0.950 . S
C920 C916 1.385 . S
C920 C919 1.374 . S
C921 C918 1.499 . S
C921 C922 1.373 . S
C921 C923 1.389 . S
C922 H895 0.950 . S
C922 C908 1.377 . S
C922 C921 1.373 . S
C923 C907 1.377 . S
C923 C921 1.389 . S
C923 C924 1.524 . S
C924 C923 1.524 . S
C924 C925 1.397 . S
C924 C929 1.363 . S
C925 H896 0.950 . S
C925 C924 1.397 . S
C925 C926 1.334 . S
C926 H897 0.950 . S
C926 C925 1.334 . S
C926 C927 1.287 . S
C927 C926 1.287 . S
C927 C928 1.524 . S
C927 H930 0.999 . S
C928 H898 0.950 . S
C928 C927 1.524 . S
C928 C929 1.415 . S
C929 H899 0.950 . S
C929 C924 1.363 . S
C929 C928 1.415 . S
H930 C927 0.999 . S
H931 C912 0.913 . S
H932 C950 0.951 . S
H933 C952 0.951 . S
H934 C954 0.950 . S
H935 C955 0.950 . S
H936 C957 0.950 . S
H937 C960 0.950 . S
H938 C961 0.950 . S
H939 C963 0.950 . S
H940 C964 0.950 . S
H941 C965 0.951 . S
H942 C967 0.951 . S
H943 C969 0.950 . S
H944 C970 0.950 . S
H945 C972 0.950 . S
H946 C975 0.950 . S
H947 C976 0.950 . S
H948 C978 0.950 . S
H949 C979 0.950 . S
C950 H932 0.951 . S
C950 C951 1.366 . S
C950 C952 1.388 . S
C951 C950 1.366 . S
C951 C955 1.385 . S
C952 H933 0.951 . S
C952 C950 1.388 . S
C952 C953 1.366 . S
C953 C952 1.366 . S
C953 C954 1.414 . S
C953 C956 1.499 . S
C954 H934 0.950 . S
C954 C953 1.414 . S
C954 C955 1.374 . S
C955 H935 0.950 . S
C955 C951 1.385 . S
C955 C954 1.374 . S
C956 C953 1.499 . S
C956 C957 1.373 . S
C956 C958 1.389 . S
C957 H936 0.950 . S
C957 C956 1.373 . S
C957 C973 1.377 . S
C958 C956 1.389 . S
C958 C959 1.524 . S
C958 C972 1.377 . S
C959 C958 1.524 . S
C959 C960 1.397 . S
C959 C964 1.363 . S
C960 H937 0.950 . S
C960 C959 1.397 . S
C960 C961 1.334 . S
C961 H938 0.950 . S
C961 C960 1.334 . S
C961 C962 1.287 . S
C962 C961 1.287 . S
C962 C963 1.524 . S
C962 H981 0.913 . S
C963 H939 0.950 . S
C963 C962 1.524 . S
C963 C964 1.415 . S
C964 H940 0.950 . S
C964 C959 1.363 . S
C964 C963 1.415 . S
C965 H941 0.951 . S
C965 C966 1.366 . S
C965 C967 1.388 . S
C966 C965 1.366 . S
C966 C970 1.385 . S
C967 H942 0.951 . S
C967 C965 1.388 . S
C967 C968 1.366 . S
C968 C967 1.366 . S
C968 C969 1.414 . S
C968 C971 1.499 . S
C969 H943 0.950 . S
C969 C968 1.414 . S
C969 C970 1.374 . S
C970 H944 0.950 . S
C970 C966 1.385 . S
C970 C969 1.374 . S
C971 C968 1.499 . S
C971 C972 1.373 . S
C971 C973 1.389 . S
C972 H945 0.950 . S
C972 C958 1.377 . S
C972 C971 1.373 . S
C973 C957 1.377 . S
C973 C971 1.389 . S
C973 C974 1.524 . S
C974 C973 1.524 . S
C974 C975 1.397 . S
C974 C979 1.363 . S
C975 H946 0.950 . S
C975 C974 1.397 . S
C975 C976 1.334 . S
C976 H947 0.950 . S
C976 C975 1.334 . S
C976 C977 1.287 . S
C977 C976 1.287 . S
C977 C978 1.524 . S
C977 H980 0.999 . S
C978 H948 0.950 . S
C978 C977 1.524 . S
C978 C979 1.415 . S
C979 H949 0.950 . S
C979 C974 1.363 . S
C979 C978 1.415 . S
H980 C977 0.999 . S
H981 C962 0.913 . S
H982 C1000 0.951 . S
H983 C1002 0.951 . S
H984 C1004 0.950 . S
H985 C1005 0.950 . S
H986 C1007 0.950 . S
H987 C1010 0.950 . S
H988 C1011 0.950 . S
H989 C1013 0.950 . S
H990 C1014 0.950 . S
H991 C1015 0.951 . S
H992 C1017 0.951 . S
H993 C1019 0.950 1_556 S
H994 C1020 0.950 . S
H995 C1022 0.950 . S
H996 C1025 0.950 . S
H997 C1026 0.950 . S
H998 C1028 0.950 . S
H999 C1029 0.950 . S
C1000 H982 0.951 . S
C1000 C1001 1.366 . S
C1000 C1002 1.388 . S
C1001 C1000 1.366 . S
C1001 C1005 1.385 . S
C1002 H983 0.951 . S
C1002 C1000 1.388 . S
C1002 C1003 1.366 . S
C1003 C1002 1.366 . S
C1003 C1004 1.414 . S
C1003 C1006 1.499 . S
C1004 H984 0.950 . S
C1004 C1003 1.414 . S
C1004 C1005 1.374 . S
C1005 H985 0.950 . S
C1005 C1001 1.385 . S
C1005 C1004 1.374 . S
C1006 C1003 1.499 . S
C1006 C1007 1.373 . S
C1006 C1008 1.389 . S
C1007 H986 0.950 . S
C1007 C1006 1.373 . S
C1007 C1023 1.377 . S
C1008 C1006 1.389 . S
C1008 C1009 1.524 . S
C1008 C1022 1.377 . S
C1009 C1008 1.524 . S
C1009 C1010 1.397 . S
C1009 C1014 1.363 . S
C1010 H987 0.950 . S
C1010 C1009 1.397 . S
C1010 C1011 1.334 . S
C1011 H988 0.950 . S
C1011 C1010 1.334 . S
C1011 C1012 1.287 . S
C1012 C1011 1.287 . S
C1012 C1013 1.524 . S
C1012 H1031 0.913 . S
C1013 H989 0.950 . S
C1013 C1012 1.524 . S
C1013 C1014 1.415 . S
C1014 H990 0.950 . S
C1014 C1009 1.363 . S
C1014 C1013 1.415 . S
C1015 H991 0.951 . S
C1015 C1016 1.366 . S
C1015 C1017 1.388 1_554 S
C1016 C1015 1.366 . S
C1016 C1020 1.385 . S
C1017 H992 0.951 . S
C1017 C1015 1.388 1_556 S
C1017 C1018 1.366 . S
C1018 C1017 1.366 . S
C1018 C1019 1.414 1_556 S
C1018 C1021 1.499 . S
C1019 H993 0.950 1_554 S
C1019 C1018 1.414 1_554 S
C1019 C1020 1.374 . S
C1020 H994 0.950 . S
C1020 C1016 1.385 . S
C1020 C1019 1.374 . S
C1021 C1018 1.499 . S
C1021 C1022 1.373 . S
C1021 C1023 1.389 . S
C1022 H995 0.950 . S
C1022 C1008 1.377 . S
C1022 C1021 1.373 . S
C1023 C1007 1.377 . S
C1023 C1021 1.389 . S
C1023 C1024 1.524 1_556 S
C1024 C1023 1.524 1_554 S
C1024 C1025 1.397 . S
C1024 C1029 1.363 . S
C1025 H996 0.950 . S
C1025 C1024 1.397 . S
C1025 C1026 1.334 . S
C1026 H997 0.950 . S
C1026 C1025 1.334 . S
C1026 C1027 1.287 . S
C1027 C1026 1.287 . S
C1027 C1028 1.524 . S
C1027 H1030 0.999 . S
C1028 H998 0.950 . S
C1028 C1027 1.524 . S
C1028 C1029 1.415 . S
C1029 H999 0.950 . S
C1029 C1024 1.363 . S
C1029 C1028 1.415 . S
H1030 C1027 0.999 . S
H1031 C1012 0.913 . S
H1032 C1050 0.951 . S
H1033 C1052 0.951 . S
H1034 C1054 0.950 . S
H1035 C1055 0.950 . S
H1036 C1057 0.950 . S
H1037 C1060 0.950 . S
H1038 C1061 0.950 . S
H1039 C1063 0.950 . S
H1040 C1064 0.950 . S
H1041 C1065 0.951 . S
H1042 C1067 0.951 . S
H1043 C1069 0.950 . S
H1044 C1070 0.950 . S
H1045 C1072 0.950 . S
H1046 C1075 0.950 . S
H1047 C1076 0.950 . S
H1048 C1078 0.950 . S
H1049 C1079 0.950 . S
C1050 H1032 0.951 . S
C1050 C1051 1.366 . S
C1050 C1052 1.388 . S
C1051 C1050 1.366 . S
C1051 C1055 1.385 . S
C1052 H1033 0.951 . S
C1052 C1050 1.388 . S
C1052 C1053 1.366 . S
C1053 C1052 1.366 . S
C1053 C1054 1.414 . S
C1053 C1056 1.499 . S
C1054 H1034 0.950 . S
C1054 C1053 1.414 . S
C1054 C1055 1.374 . S
C1055 H1035 0.950 . S
C1055 C1051 1.385 . S
C1055 C1054 1.374 . S
C1056 C1053 1.499 . S
C1056 C1057 1.373 . S
C1056 C1058 1.389 . S
C1057 H1036 0.950 . S
C1057 C1056 1.373 . S
C1057 C1073 1.377 . S
C1058 C1056 1.389 . S
C1058 C1059 1.524 . S
C1058 C1072 1.377 . S
C1059 C1058 1.524 . S
C1059 C1060 1.397 . S
C1059 C1064 1.363 . S
C1060 H1037 0.950 . S
C1060 C1059 1.397 . S
C1060 C1061 1.334 . S
C1061 H1038 0.950 . S
C1061 C1060 1.334 . S
C1061 C1062 1.287 . S
C1062 C1061 1.287 . S
C1062 C1063 1.524 . S
C1062 H1081 0.913 . S
C1063 H1039 0.950 . S
C1063 C1062 1.524 . S
C1063 C1064 1.415 . S
C1064 H1040 0.950 . S
C1064 C1059 1.363 . S
C1064 C1063 1.415 . S
C1065 H1041 0.951 . S
C1065 C1066 1.366 . S
C1065 C1067 1.388 . S
C1066 C1065 1.366 . S
C1066 C1070 1.385 . S
C1067 H1042 0.951 . S
C1067 C1065 1.388 . S
C1067 C1068 1.366 . S
C1068 C1067 1.366 . S
C1068 C1069 1.414 . S
C1068 C1071 1.499 . S
C1069 H1043 0.950 . S
C1069 C1068 1.414 . S
C1069 C1070 1.374 . S
C1070 H1044 0.950 . S
C1070 C1066 1.385 . S
C1070 C1069 1.374 . S
C1071 C1068 1.499 . S
C1071 C1072 1.373 . S
C1071 C1073 1.389 . S
C1072 H1045 0.950 . S
C1072 C1058 1.377 . S
C1072 C1071 1.373 . S
C1073 C1057 1.377 . S
C1073 C1071 1.389 . S
C1073 C1074 1.524 . S
C1074 C1073 1.524 . S
C1074 C1075 1.397 . S
C1074 C1079 1.363 . S
C1075 H1046 0.950 . S
C1075 C1074 1.397 . S
C1075 C1076 1.334 . S
C1076 H1047 0.950 . S
C1076 C1075 1.334 . S
C1076 C1077 1.287 . S
C1077 C1076 1.287 . S
C1077 C1078 1.524 . S
C1077 H1080 0.999 . S
C1078 H1048 0.950 . S
C1078 C1077 1.524 . S
C1078 C1079 1.415 . S
C1079 H1049 0.950 . S
C1079 C1074 1.363 . S
C1079 C1078 1.415 . S
H1080 C1077 0.999 . S
H1081 C1062 0.913 . S
H1082 C1100 0.951 . S
H1083 C1102 0.951 . S
H1084 C1104 0.950 . S
H1085 C1105 0.950 . S
H1086 C1107 0.950 . S
H1087 C1110 0.950 . S
H1088 C1111 0.950 . S
H1089 C1113 0.950 . S
H1090 C1114 0.950 . S
H1091 C1115 0.951 . S
H1092 C1117 0.951 . S
H1093 C1119 0.950 . S
H1094 C1120 0.950 . S
H1095 C1122 0.950 . S
H1096 C1125 0.950 1_556 S
H1097 C1126 0.950 . S
H1098 C1128 0.950 . S
H1099 C1129 0.950 1_556 S
C1100 H1082 0.951 . S
C1100 C1101 1.366 . S
C1100 C1102 1.388 . S
C1101 C1100 1.366 . S
C1101 C1105 1.385 . S
C1102 H1083 0.951 . S
C1102 C1100 1.388 . S
C1102 C1103 1.366 . S
C1103 C1102 1.366 . S
C1103 C1104 1.414 . S
C1103 C1106 1.499 . S
C1104 H1084 0.950 . S
C1104 C1103 1.414 . S
C1104 C1105 1.374 . S
C1105 H1085 0.950 . S
C1105 C1101 1.385 . S
C1105 C1104 1.374 . S
C1106 C1103 1.499 . S
C1106 C1107 1.373 . S
C1106 C1108 1.389 . S
C1107 H1086 0.950 . S
C1107 C1106 1.373 . S
C1107 C1123 1.377 . S
C1108 C1106 1.389 . S
C1108 C1109 1.524 . S
C1108 C1122 1.377 . S
C1109 C1108 1.524 . S
C1109 C1110 1.397 . S
C1109 C1114 1.363 . S
C1110 H1087 0.950 . S
C1110 C1109 1.397 . S
C1110 C1111 1.334 . S
C1111 H1088 0.950 . S
C1111 C1110 1.334 . S
C1111 C1112 1.287 . S
C1112 C1111 1.287 . S
C1112 C1113 1.524 . S
C1112 H1131 0.913 . S
C1113 H1089 0.950 . S
C1113 C1112 1.524 . S
C1113 C1114 1.415 . S
C1114 H1090 0.950 . S
C1114 C1109 1.363 . S
C1114 C1113 1.415 . S
C1115 H1091 0.951 . S
C1115 C1116 1.366 . S
C1115 C1117 1.388 . S
C1116 C1115 1.366 . S
C1116 C1120 1.385 . S
C1117 H1092 0.951 . S
C1117 C1115 1.388 . S
C1117 C1118 1.366 . S
C1118 C1117 1.366 . S
C1118 C1119 1.414 . S
C1118 C1121 1.499 1_554 S
C1119 H1093 0.950 . S
C1119 C1118 1.414 . S
C1119 C1120 1.374 . S
C1120 H1094 0.950 . S
C1120 C1116 1.385 . S
C1120 C1119 1.374 . S
C1121 C1118 1.499 1_556 S
C1121 C1122 1.373 . S
C1121 C1123 1.389 . S
C1122 H1095 0.950 . S
C1122 C1108 1.377 . S
C1122 C1121 1.373 . S
C1123 C1107 1.377 . S
C1123 C1121 1.389 . S
C1123 C1124 1.524 . S
C1124 C1123 1.524 . S
C1124 C1125 1.397 1_556 S
C1124 C1129 1.363 1_556 S
C1125 H1096 0.950 1_554 S
C1125 C1124 1.397 1_554 S
C1125 C1126 1.334 . S
C1126 H1097 0.950 . S
C1126 C1125 1.334 . S
C1126 C1127 1.287 . S
C1127 C1126 1.287 . S
C1127 C1128 1.524 . S
C1127 H1130 0.999 . S
C1128 H1098 0.950 . S
C1128 C1127 1.524 . S
C1128 C1129 1.415 . S
C1129 H1099 0.950 1_554 S
C1129 C1124 1.363 1_554 S
C1129 C1128 1.415 . S
H1130 C1127 0.999 . S
H1131 C1112 0.913 . S
H1132 C1150 0.951 . S
H1133 C1152 0.951 . S
H1134 C1154 0.950 . S
H1135 C1155 0.950 . S
H1136 C1157 0.950 . S
H1137 C1160 0.950 . S
H1138 C1161 0.950 . S
H1139 C1163 0.950 . S
H1140 C1164 0.950 . S
H1141 C1165 0.951 . S
H1142 C1167 0.951 . S
H1143 C1169 0.950 . S
H1144 C1170 0.950 . S
H1145 C1172 0.950 . S
H1146 C1175 0.950 . S
H1147 C1176 0.950 . S
H1148 C1178 0.950 . S
H1149 C1179 0.950 . S
C1150 H1132 0.951 . S
C1150 C1151 1.366 . S
C1150 C1152 1.388 1_556 S
C1151 C1150 1.366 . S
C1151 C1155 1.385 1_556 S
C1152 H1133 0.951 . S
C1152 C1150 1.388 1_554 S
C1152 C1153 1.366 . S
C1153 C1152 1.366 . S
C1153 C1154 1.414 . S
C1153 C1156 1.499 . S
C1154 H1134 0.950 . S
C1154 C1153 1.414 . S
C1154 C1155 1.374 . S
C1155 H1135 0.950 . S
C1155 C1151 1.385 1_554 S
C1155 C1154 1.374 . S
C1156 C1153 1.499 . S
C1156 C1157 1.373 . S
C1156 C1158 1.389 . S
C1157 H1136 0.950 . S
C1157 C1156 1.373 . S
C1157 C1173 1.377 . S
C1158 C1156 1.389 . S
C1158 C1159 1.524 . S
C1158 C1172 1.377 . S
C1159 C1158 1.524 . S
C1159 C1160 1.397 . S
C1159 C1164 1.363 . S
C1160 H1137 0.950 . S
C1160 C1159 1.397 . S
C1160 C1161 1.334 . S
C1161 H1138 0.950 . S
C1161 C1160 1.334 . S
C1161 C1162 1.287 . S
C1162 C1161 1.287 . S
C1162 C1163 1.524 . S
C1162 H1181 0.913 1_554 S
C1163 H1139 0.950 . S
C1163 C1162 1.524 . S
C1163 C1164 1.415 . S
C1164 H1140 0.950 . S
C1164 C1159 1.363 . S
C1164 C1163 1.415 . S
C1165 H1141 0.951 . S
C1165 C1166 1.366 . S
C1165 C1167 1.388 . S
C1166 C1165 1.366 . S
C1166 C1170 1.385 . S
C1167 H1142 0.951 . S
C1167 C1165 1.388 . S
C1167 C1168 1.366 . S
C1168 C1167 1.366 . S
C1168 C1169 1.414 . S
C1168 C1171 1.499 . S
C1169 H1143 0.950 . S
C1169 C1168 1.414 . S
C1169 C1170 1.374 . S
C1170 H1144 0.950 . S
C1170 C1166 1.385 . S
C1170 C1169 1.374 . S
C1171 C1168 1.499 . S
C1171 C1172 1.373 . S
C1171 C1173 1.389 . S
C1172 H1145 0.950 . S
C1172 C1158 1.377 . S
C1172 C1171 1.373 . S
C1173 C1157 1.377 . S
C1173 C1171 1.389 . S
C1173 C1174 1.524 . S
C1174 C1173 1.524 . S
C1174 C1175 1.397 . S
C1174 C1179 1.363 . S
C1175 H1146 0.950 . S
C1175 C1174 1.397 . S
C1175 C1176 1.334 . S
C1176 H1147 0.950 . S
C1176 C1175 1.334 . S
C1176 C1177 1.287 . S
C1177 C1176 1.287 . S
C1177 C1178 1.524 . S
C1177 H1180 0.999 . S
C1178 H1148 0.950 . S
C1178 C1177 1.524 . S
C1178 C1179 1.415 . S
C1179 H1149 0.950 . S
C1179 C1174 1.363 . S
C1179 C1178 1.415 . S
H1180 C1177 0.999 . S
H1181 C1162 0.913 1_556 S
H1182 C1200 0.951 . S
H1183 C1202 0.951 . S
H1184 C1204 0.950 . S
H1185 C1205 0.950 . S
H1186 C1207 0.950 . S
H1187 C1210 0.950 . S
H1188 C1211 0.950 . S
H1189 C1213 0.950 . S
H1190 C1214 0.950 . S
H1191 C1215 0.951 . S
H1192 C1217 0.951 . S
H1193 C1219 0.950 . S
H1194 C1220 0.950 . S
H1195 C1222 0.950 . S
H1196 C1225 0.950 . S
H1197 C1226 0.950 . S
H1198 C1228 0.950 . S
H1199 C1229 0.950 . S
C1200 H1182 0.951 . S
C1200 C1201 1.366 . S
C1200 C1202 1.388 . S
C1201 C1200 1.366 . S
C1201 C1205 1.385 . S
C1202 H1183 0.951 . S
C1202 C1200 1.388 . S
C1202 C1203 1.366 . S
C1203 C1202 1.366 . S
C1203 C1204 1.414 . S
C1203 C1206 1.499 . S
C1204 H1184 0.950 . S
C1204 C1203 1.414 . S
C1204 C1205 1.374 . S
C1205 H1185 0.950 . S
C1205 C1201 1.385 . S
C1205 C1204 1.374 . S
C1206 C1203 1.499 . S
C1206 C1207 1.373 . S
C1206 C1208 1.389 . S
C1207 H1186 0.950 . S
C1207 C1206 1.373 . S
C1207 C1223 1.377 . S
C1208 C1206 1.389 . S
C1208 C1209 1.524 . S
C1208 C1222 1.377 . S
C1209 C1208 1.524 . S
C1209 C1210 1.397 . S
C1209 C1214 1.363 . S
C1210 H1187 0.950 . S
C1210 C1209 1.397 . S
C1210 C1211 1.334 . S
C1211 H1188 0.950 . S
C1211 C1210 1.334 . S
C1211 C1212 1.287 . S
C1212 C1211 1.287 . S
C1212 C1213 1.524 . S
C1212 H1231 0.913 . S
C1213 H1189 0.950 . S
C1213 C1212 1.524 . S
C1213 C1214 1.415 . S
C1214 H1190 0.950 . S
C1214 C1209 1.363 . S
C1214 C1213 1.415 . S
C1215 H1191 0.951 . S
C1215 C1216 1.366 . S
C1215 C1217 1.388 . S
C1216 C1215 1.366 . S
C1216 C1220 1.385 . S
C1217 H1192 0.951 . S
C1217 C1215 1.388 . S
C1217 C1218 1.366 . S
C1218 C1217 1.366 . S
C1218 C1219 1.414 . S
C1218 C1221 1.499 . S
C1219 H1193 0.950 . S
C1219 C1218 1.414 . S
C1219 C1220 1.374 . S
C1220 H1194 0.950 . S
C1220 C1216 1.385 . S
C1220 C1219 1.374 . S
C1221 C1218 1.499 . S
C1221 C1222 1.373 . S
C1221 C1223 1.389 . S
C1222 H1195 0.950 . S
C1222 C1208 1.377 . S
C1222 C1221 1.373 . S
C1223 C1207 1.377 . S
C1223 C1221 1.389 . S
C1223 C1224 1.524 . S
C1224 C1223 1.524 . S
C1224 C1225 1.397 . S
C1224 C1229 1.363 . S
C1225 H1196 0.950 . S
C1225 C1224 1.397 . S
C1225 C1226 1.334 . S
C1226 H1197 0.950 . S
C1226 C1225 1.334 . S
C1226 C1227 1.287 . S
C1227 C1226 1.287 . S
C1227 C1228 1.524 . S
C1227 H1230 0.999 . S
C1228 H1198 0.950 . S
C1228 C1227 1.524 . S
C1228 C1229 1.415 . S
C1229 H1199 0.950 . S
C1229 C1224 1.363 . S
C1229 C1228 1.415 . S
H1230 C1227 0.999 . S
H1231 C1212 0.913 . S
H1232 C1250 0.951 . S
H1233 C1252 0.951 . S
H1234 C1254 0.950 . S
H1235 C1255 0.950 . S
H1236 C1257 0.950 . S
H1237 C1260 0.950 . S
H1238 C1261 0.950 . S
H1239 C1263 0.950 . S
H1240 C1264 0.950 . S
H1241 C1265 0.951 . S
H1242 C1267 0.951 . S
H1243 C1269 0.950 . S
H1244 C1270 0.950 . S
H1245 C1272 0.950 . S
H1246 C1275 0.950 . S
H1247 C1276 0.950 . S
H1248 C1278 0.950 . S
H1249 C1279 0.950 . S
C1250 H1232 0.951 . S
C1250 C1251 1.366 . S
C1250 C1252 1.388 . S
C1251 C1250 1.366 . S
C1251 C1255 1.385 . S
C1252 H1233 0.951 . S
C1252 C1250 1.388 . S
C1252 C1253 1.366 . S
C1253 C1252 1.366 . S
C1253 C1254 1.414 . S
C1253 C1256 1.499 . S
C1254 H1234 0.950 . S
C1254 C1253 1.414 . S
C1254 C1255 1.374 . S
C1255 H1235 0.950 . S
C1255 C1251 1.385 . S
C1255 C1254 1.374 . S
C1256 C1253 1.499 . S
C1256 C1257 1.373 . S
C1256 C1258 1.389 . S
C1257 H1236 0.950 . S
C1257 C1256 1.373 . S
C1257 C1273 1.377 . S
C1258 C1256 1.389 . S
C1258 C1259 1.524 . S
C1258 C1272 1.377 . S
C1259 C1258 1.524 . S
C1259 C1260 1.397 . S
C1259 C1264 1.363 . S
C1260 H1237 0.950 . S
C1260 C1259 1.397 . S
C1260 C1261 1.334 . S
C1261 H1238 0.950 . S
C1261 C1260 1.334 . S
C1261 C1262 1.287 . S
C1262 C1261 1.287 . S
C1262 C1263 1.524 . S
C1262 H1281 0.913 . S
C1263 H1239 0.950 . S
C1263 C1262 1.524 . S
C1263 C1264 1.415 . S
C1264 H1240 0.950 . S
C1264 C1259 1.363 . S
C1264 C1263 1.415 . S
C1265 H1241 0.951 . S
C1265 C1266 1.366 . S
C1265 C1267 1.388 . S
C1266 C1265 1.366 . S
C1266 C1270 1.385 . S
C1267 H1242 0.951 . S
C1267 C1265 1.388 . S
C1267 C1268 1.366 . S
C1268 C1267 1.366 . S
C1268 C1269 1.414 . S
C1268 C1271 1.499 . S
C1269 H1243 0.950 . S
C1269 C1268 1.414 . S
C1269 C1270 1.374 . S
C1270 H1244 0.950 . S
C1270 C1266 1.385 . S
C1270 C1269 1.374 . S
C1271 C1268 1.499 . S
C1271 C1272 1.373 . S
C1271 C1273 1.389 . S
C1272 H1245 0.950 . S
C1272 C1258 1.377 . S
C1272 C1271 1.373 . S
C1273 C1257 1.377 . S
C1273 C1271 1.389 . S
C1273 C1274 1.524 . S
C1274 C1273 1.524 . S
C1274 C1275 1.397 . S
C1274 C1279 1.363 . S
C1275 H1246 0.950 . S
C1275 C1274 1.397 . S
C1275 C1276 1.334 . S
C1276 H1247 0.950 . S
C1276 C1275 1.334 . S
C1276 C1277 1.287 . S
C1277 C1276 1.287 . S
C1277 C1278 1.524 . S
C1277 H1280 0.999 . S
C1278 H1248 0.950 . S
C1278 C1277 1.524 . S
C1278 C1279 1.415 . S
C1279 H1249 0.950 . S
C1279 C1274 1.363 . S
C1279 C1278 1.415 . S
H1280 C1277 0.999 . S
H1281 C1262 0.913 . S
H1282 C1300 0.951 . S
H1283 C1302 0.951 . S
H1284 C1304 0.950 . S
H1285 C1305 0.950 . S
H1286 C1307 0.950 . S
H1287 C1310 0.950 . S
H1288 C1311 0.950 . S
H1289 C1313 0.950 . S
H1290 C1314 0.950 . S
H1291 C1315 0.951 . S
H1292 C1317 0.951 . S
H1293 C1319 0.950 . S
H1294 C1320 0.950 . S
H1295 C1322 0.950 . S
H1296 C1325 0.950 . S
H1297 C1326 0.950 . S
H1298 C1328 0.950 . S
H1299 C1329 0.950 . S
C1300 H1282 0.951 . S
C1300 C1301 1.366 . S
C1300 C1302 1.388 . S
C1301 C1300 1.366 . S
C1301 C1305 1.385 . S
C1302 H1283 0.951 . S
C1302 C1300 1.388 . S
C1302 C1303 1.366 . S
C1303 C1302 1.366 . S
C1303 C1304 1.414 . S
C1303 C1306 1.499 . S
C1304 H1284 0.950 . S
C1304 C1303 1.414 . S
C1304 C1305 1.374 . S
C1305 H1285 0.950 . S
C1305 C1301 1.385 . S
C1305 C1304 1.374 . S
C1306 C1303 1.499 . S
C1306 C1307 1.373 . S
C1306 C1308 1.389 . S
C1307 H1286 0.950 . S
C1307 C1306 1.373 . S
C1307 C1323 1.377 . S
C1308 C1306 1.389 . S
C1308 C1309 1.524 . S
C1308 C1322 1.377 . S
C1309 C1308 1.524 . S
C1309 C1310 1.397 . S
C1309 C1314 1.363 . S
C1310 H1287 0.950 . S
C1310 C1309 1.397 . S
C1310 C1311 1.334 . S
C1311 H1288 0.950 . S
C1311 C1310 1.334 . S
C1311 C1312 1.287 . S
C1312 C1311 1.287 . S
C1312 C1313 1.524 . S
C1312 H1331 0.913 . S
C1313 H1289 0.950 . S
C1313 C1312 1.524 . S
C1313 C1314 1.415 . S
C1314 H1290 0.950 . S
C1314 C1309 1.363 . S
C1314 C1313 1.415 . S
C1315 H1291 0.951 . S
C1315 C1316 1.366 . S
C1315 C1317 1.388 . S
C1316 C1315 1.366 . S
C1316 C1320 1.385 . S
C1317 H1292 0.951 . S
C1317 C1315 1.388 . S
C1317 C1318 1.366 . S
C1318 C1317 1.366 . S
C1318 C1319 1.414 . S
C1318 C1321 1.499 . S
C1319 H1293 0.950 . S
C1319 C1318 1.414 . S
C1319 C1320 1.374 . S
C1320 H1294 0.950 . S
C1320 C1316 1.385 . S
C1320 C1319 1.374 . S
C1321 C1318 1.499 . S
C1321 C1322 1.373 . S
C1321 C1323 1.389 . S
C1322 H1295 0.950 . S
C1322 C1308 1.377 . S
C1322 C1321 1.373 . S
C1323 C1307 1.377 . S
C1323 C1321 1.389 . S
C1323 C1324 1.524 . S
C1324 C1323 1.524 . S
C1324 C1325 1.397 . S
C1324 C1329 1.363 . S
C1325 H1296 0.950 . S
C1325 C1324 1.397 . S
C1325 C1326 1.334 . S
C1326 H1297 0.950 . S
C1326 C1325 1.334 . S
C1326 C1327 1.287 . S
C1327 C1326 1.287 . S
C1327 C1328 1.524 . S
C1327 H1330 0.999 . S
C1328 H1298 0.950 . S
C1328 C1327 1.524 . S
C1328 C1329 1.415 . S
C1329 H1299 0.950 . S
C1329 C1324 1.363 . S
C1329 C1328 1.415 . S
H1330 C1327 0.999 . S
H1331 C1312 0.913 . S
H1332 C1350 0.951 . S
H1333 C1352 0.951 . S
H1334 C1354 0.950 . S
H1335 C1355 0.950 . S
H1336 C1357 0.950 1_556 S
H1337 C1360 0.950 . S
H1338 C1361 0.950 . S
H1339 C1363 0.950 . S
H1340 C1364 0.950 . S
H1341 C1365 0.951 . S
H1342 C1367 0.951 . S
H1343 C1369 0.950 . S
H1344 C1370 0.950 . S
H1345 C1372 0.950 . S
H1346 C1375 0.950 . S
H1347 C1376 0.950 . S
H1348 C1378 0.950 . S
H1349 C1379 0.950 . S
C1350 H1332 0.951 . S
C1350 C1351 1.366 . S
C1350 C1352 1.388 . S
C1351 C1350 1.366 . S
C1351 C1355 1.385 . S
C1352 H1333 0.951 . S
C1352 C1350 1.388 . S
C1352 C1353 1.366 . S
C1353 C1352 1.366 . S
C1353 C1354 1.414 . S
C1353 C1356 1.499 . S
C1354 H1334 0.950 . S
C1354 C1353 1.414 . S
C1354 C1355 1.374 . S
C1355 H1335 0.950 . S
C1355 C1351 1.385 . S
C1355 C1354 1.374 . S
C1356 C1353 1.499 . S
C1356 C1357 1.373 . S
C1356 C1358 1.389 . S
C1357 H1336 0.950 1_554 S
C1357 C1356 1.373 . S
C1357 C1373 1.377 1_545 S
C1358 C1356 1.389 . S
C1358 C1359 1.524 . S
C1358 C1372 1.377 1_545 S
C1359 C1358 1.524 . S
C1359 C1360 1.397 . S
C1359 C1364 1.363 . S
C1360 H1337 0.950 . S
C1360 C1359 1.397 . S
C1360 C1361 1.334 . S
C1361 H1338 0.950 . S
C1361 C1360 1.334 . S
C1361 C1362 1.287 . S
C1362 C1361 1.287 . S
C1362 C1363 1.524 . S
C1362 H1381 0.913 . S
C1363 H1339 0.950 . S
C1363 C1362 1.524 . S
C1363 C1364 1.415 . S
C1364 H1340 0.950 . S
C1364 C1359 1.363 . S
C1364 C1363 1.415 . S
C1365 H1341 0.951 . S
C1365 C1366 1.366 . S
C1365 C1367 1.388 . S
C1366 C1365 1.366 . S
C1366 C1370 1.385 . S
C1367 H1342 0.951 . S
C1367 C1365 1.388 . S
C1367 C1368 1.366 . S
C1368 C1367 1.366 . S
C1368 C1369 1.414 . S
C1368 C1371 1.499 . S
C1369 H1343 0.950 . S
C1369 C1368 1.414 . S
C1369 C1370 1.374 . S
C1370 H1344 0.950 . S
C1370 C1366 1.385 . S
C1370 C1369 1.374 . S
C1371 C1368 1.499 . S
C1371 C1372 1.373 . S
C1371 C1373 1.389 . S
C1372 H1345 0.950 . S
C1372 C1358 1.377 1_565 S
C1372 C1371 1.373 . S
C1373 C1357 1.377 1_565 S
C1373 C1371 1.389 . S
C1373 C1374 1.524 1_554 S
C1374 C1373 1.524 1_556 S
C1374 C1375 1.397 . S
C1374 C1379 1.363 . S
C1375 H1346 0.950 . S
C1375 C1374 1.397 . S
C1375 C1376 1.334 . S
C1376 H1347 0.950 . S
C1376 C1375 1.334 . S
C1376 C1377 1.287 . S
C1377 C1376 1.287 . S
C1377 C1378 1.524 . S
C1377 H1380 0.999 . S
C1378 H1348 0.950 . S
C1378 C1377 1.524 . S
C1378 C1379 1.415 . S
C1379 H1349 0.950 . S
C1379 C1374 1.363 . S
C1379 C1378 1.415 . S
H1380 C1377 0.999 . S
H1381 C1362 0.913 . S
H1382 C1400 0.951 . S
H1383 C1402 0.951 . S
H1384 C1404 0.950 . S
H1385 C1405 0.950 . S
H1386 C1407 0.950 . S
H1387 C1410 0.950 . S
H1388 C1411 0.950 . S
H1389 C1413 0.950 . S
H1390 C1414 0.950 . S
H1391 C1415 0.951 . S
H1392 C1417 0.951 . S
H1393 C1419 0.950 . S
H1394 C1420 0.950 . S
H1395 C1422 0.950 . S
H1396 C1425 0.950 . S
H1397 C1426 0.950 . S
H1398 C1428 0.950 . S
H1399 C1429 0.950 . S
C1400 H1382 0.951 . S
C1400 C1401 1.366 . S
C1400 C1402 1.388 . S
C1401 C1400 1.366 . S
C1401 C1405 1.385 . S
C1402 H1383 0.951 . S
C1402 C1400 1.388 . S
C1402 C1403 1.366 . S
C1403 C1402 1.366 . S
C1403 C1404 1.414 . S
C1403 C1406 1.499 . S
C1404 H1384 0.950 . S
C1404 C1403 1.414 . S
C1404 C1405 1.374 . S
C1405 H1385 0.950 . S
C1405 C1401 1.385 . S
C1405 C1404 1.374 . S
C1406 C1403 1.499 . S
C1406 C1407 1.373 . S
C1406 C1408 1.389 . S
C1407 H1386 0.950 . S
C1407 C1406 1.373 . S
C1407 C1423 1.377 . S
C1408 C1406 1.389 . S
C1408 C1409 1.524 . S
C1408 C1422 1.377 . S
C1409 C1408 1.524 . S
C1409 C1410 1.397 . S
C1409 C1414 1.363 . S
C1410 H1387 0.950 . S
C1410 C1409 1.397 . S
C1410 C1411 1.334 . S
C1411 H1388 0.950 . S
C1411 C1410 1.334 . S
C1411 C1412 1.287 . S
C1412 C1411 1.287 . S
C1412 C1413 1.524 . S
C1412 H1431 0.913 . S
C1413 H1389 0.950 . S
C1413 C1412 1.524 . S
C1413 C1414 1.415 . S
C1414 H1390 0.950 . S
C1414 C1409 1.363 . S
C1414 C1413 1.415 . S
C1415 H1391 0.951 . S
C1415 C1416 1.366 . S
C1415 C1417 1.388 . S
C1416 C1415 1.366 . S
C1416 C1420 1.385 . S
C1417 H1392 0.951 . S
C1417 C1415 1.388 . S
C1417 C1418 1.366 . S
C1418 C1417 1.366 . S
C1418 C1419 1.414 . S
C1418 C1421 1.499 . S
C1419 H1393 0.950 . S
C1419 C1418 1.414 . S
C1419 C1420 1.374 . S
C1420 H1394 0.950 . S
C1420 C1416 1.385 . S
C1420 C1419 1.374 . S
C1421 C1418 1.499 . S
C1421 C1422 1.373 . S
C1421 C1423 1.389 . S
C1422 H1395 0.950 . S
C1422 C1408 1.377 . S
C1422 C1421 1.373 . S
C1423 C1407 1.377 . S
C1423 C1421 1.389 . S
C1423 C1424 1.524 . S
C1424 C1423 1.524 . S
C1424 C1425 1.397 . S
C1424 C1429 1.363 . S
C1425 H1396 0.950 . S
C1425 C1424 1.397 . S
C1425 C1426 1.334 . S
C1426 H1397 0.950 . S
C1426 C1425 1.334 . S
C1426 C1427 1.287 . S
C1427 C1426 1.287 . S
C1427 C1428 1.524 . S
C1427 H1430 0.999 . S
C1428 H1398 0.950 . S
C1428 C1427 1.524 . S
C1428 C1429 1.415 . S
C1429 H1399 0.950 . S
C1429 C1424 1.363 . S
C1429 C1428 1.415 . S
H1430 C1427 0.999 . S
H1431 C1412 0.913 . S
H1432 C1450 0.951 . S
H1433 C1452 0.951 . S
H1434 C1454 0.950 . S
H1435 C1455 0.950 . S
H1436 C1457 0.950 . S
H1437 C1460 0.950 . S
H1438 C1461 0.950 . S
H1439 C1463 0.950 . S
H1440 C1464 0.950 . S
H1441 C1465 0.951 . S
H1442 C1467 0.951 . S
H1443 C1469 0.950 . S
H1444 C1470 0.950 . S
H1445 C1472 0.950 . S
H1446 C1475 0.950 . S
H1447 C1476 0.950 . S
H1448 C1478 0.950 . S
H1449 C1479 0.950 . S
C1450 H1432 0.951 . S
C1450 C1451 1.366 . S
C1450 C1452 1.388 . S
C1451 C1450 1.366 . S
C1451 C1455 1.385 . S
C1452 H1433 0.951 . S
C1452 C1450 1.388 . S
C1452 C1453 1.366 . S
C1453 C1452 1.366 . S
C1453 C1454 1.414 . S
C1453 C1456 1.499 . S
C1454 H1434 0.950 . S
C1454 C1453 1.414 . S
C1454 C1455 1.374 . S
C1455 H1435 0.950 . S
C1455 C1451 1.385 . S
C1455 C1454 1.374 . S
C1456 C1453 1.499 . S
C1456 C1457 1.373 . S
C1456 C1458 1.389 . S
C1457 H1436 0.950 . S
C1457 C1456 1.373 . S
C1457 C1473 1.377 1_455 S
C1458 C1456 1.389 . S
C1458 C1459 1.524 . S
C1458 C1472 1.377 1_455 S
C1459 C1458 1.524 . S
C1459 C1460 1.397 . S
C1459 C1464 1.363 . S
C1460 H1437 0.950 . S
C1460 C1459 1.397 . S
C1460 C1461 1.334 . S
C1461 H1438 0.950 . S
C1461 C1460 1.334 . S
C1461 C1462 1.287 . S
C1462 C1461 1.287 . S
C1462 C1463 1.524 . S
C1462 H1481 0.913 . S
C1463 H1439 0.950 . S
C1463 C1462 1.524 . S
C1463 C1464 1.415 . S
C1464 H1440 0.950 . S
C1464 C1459 1.363 . S
C1464 C1463 1.415 . S
C1465 H1441 0.951 . S
C1465 C1466 1.366 . S
C1465 C1467 1.388 . S
C1466 C1465 1.366 . S
C1466 C1470 1.385 . S
C1467 H1442 0.951 . S
C1467 C1465 1.388 . S
C1467 C1468 1.366 . S
C1468 C1467 1.366 . S
C1468 C1469 1.414 . S
C1468 C1471 1.499 . S
C1469 H1443 0.950 . S
C1469 C1468 1.414 . S
C1469 C1470 1.374 . S
C1470 H1444 0.950 . S
C1470 C1466 1.385 . S
C1470 C1469 1.374 . S
C1471 C1468 1.499 . S
C1471 C1472 1.373 . S
C1471 C1473 1.389 . S
C1472 H1445 0.950 . S
C1472 C1458 1.377 1_655 S
C1472 C1471 1.373 . S
C1473 C1457 1.377 1_655 S
C1473 C1471 1.389 . S
C1473 C1474 1.524 . S
C1474 C1473 1.524 . S
C1474 C1475 1.397 . S
C1474 C1479 1.363 . S
C1475 H1446 0.950 . S
C1475 C1474 1.397 . S
C1475 C1476 1.334 . S
C1476 H1447 0.950 . S
C1476 C1475 1.334 . S
C1476 C1477 1.287 . S
C1477 C1476 1.287 . S
C1477 C1478 1.524 . S
C1477 H1480 0.999 . S
C1478 H1448 0.950 . S
C1478 C1477 1.524 . S
C1478 C1479 1.415 . S
C1479 H1449 0.950 . S
C1479 C1474 1.363 . S
C1479 C1478 1.415 . S
H1480 C1477 0.999 . S
H1481 C1462 0.913 . S
H1482 C1500 0.951 . S
H1483 C1502 0.951 . S
H1484 C1504 0.950 . S
H1485 C1505 0.950 . S
H1486 C1507 0.950 . S
H1487 C1510 0.950 . S
H1488 C1511 0.950 . S
H1489 C1513 0.950 . S
H1490 C1514 0.950 . S
H1491 C1515 0.951 . S
H1492 C1517 0.951 . S
H1493 C1519 0.950 . S
H1494 C1520 0.950 . S
H1495 C1522 0.950 . S
H1496 C1525 0.950 . S
H1497 C1526 0.950 . S
H1498 C1528 0.950 . S
H1499 C1529 0.950 . S
C1500 H1482 0.951 . S
C1500 C1501 1.366 . S
C1500 C1502 1.388 . S
C1501 C1500 1.366 . S
C1501 C1505 1.385 . S
C1502 H1483 0.951 . S
C1502 C1500 1.388 . S
C1502 C1503 1.366 . S
C1503 C1502 1.366 . S
C1503 C1504 1.414 . S
C1503 C1506 1.499 . S
C1504 H1484 0.950 . S
C1504 C1503 1.414 . S
C1504 C1505 1.374 . S
C1505 H1485 0.950 . S
C1505 C1501 1.385 . S
C1505 C1504 1.374 . S
C1506 C1503 1.499 . S
C1506 C1507 1.373 . S
C1506 C1508 1.389 . S
C1507 H1486 0.950 . S
C1507 C1506 1.373 . S
C1507 C1523 1.377 1_565 S
C1508 C1506 1.389 . S
C1508 C1509 1.524 . S
C1508 C1522 1.377 1_565 S
C1509 C1508 1.524 . S
C1509 C1510 1.397 . S
C1509 C1514 1.363 . S
C1510 H1487 0.950 . S
C1510 C1509 1.397 . S
C1510 C1511 1.334 . S
C1511 H1488 0.950 . S
C1511 C1510 1.334 . S
C1511 C1512 1.287 . S
C1512 C1511 1.287 . S
C1512 C1513 1.524 . S
C1512 H1531 0.913 . S
C1513 H1489 0.950 . S
C1513 C1512 1.524 . S
C1513 C1514 1.415 . S
C1514 H1490 0.950 . S
C1514 C1509 1.363 . S
C1514 C1513 1.415 . S
C1515 H1491 0.951 . S
C1515 C1516 1.366 . S
C1515 C1517 1.388 . S
C1516 C1515 1.366 . S
C1516 C1520 1.385 . S
C1517 H1492 0.951 . S
C1517 C1515 1.388 . S
C1517 C1518 1.366 . S
C1518 C1517 1.366 . S
C1518 C1519 1.414 . S
C1518 C1521 1.499 . S
C1519 H1493 0.950 . S
C1519 C1518 1.414 . S
C1519 C1520 1.374 . S
C1520 H1494 0.950 . S
C1520 C1516 1.385 . S
C1520 C1519 1.374 . S
C1521 C1518 1.499 . S
C1521 C1522 1.373 . S
C1521 C1523 1.389 . S
C1522 H1495 0.950 . S
C1522 C1508 1.377 1_545 S
C1522 C1521 1.373 . S
C1523 C1507 1.377 1_545 S
C1523 C1521 1.389 . S
C1523 C1524 1.524 . S
C1524 C1523 1.524 . S
C1524 C1525 1.397 . S
C1524 C1529 1.363 . S
C1525 H1496 0.950 . S
C1525 C1524 1.397 . S
C1525 C1526 1.334 . S
C1526 H1497 0.950 . S
C1526 C1525 1.334 . S
C1526 C1527 1.287 . S
C1527 C1526 1.287 . S
C1527 C1528 1.524 . S
C1527 H1530 0.999 . S
C1528 H1498 0.950 . S
C1528 C1527 1.524 . S
C1528 C1529 1.415 . S
C1529 H1499 0.950 . S
C1529 C1524 1.363 . S
C1529 C1528 1.415 . S
H1530 C1527 0.999 . S
H1531 C1512 0.913 . S
H1532 C1550 0.951 . S
H1533 C1552 0.951 . S
H1534 C1554 0.950 . S
H1535 C1555 0.950 . S
H1536 C1557 0.950 . S
H1537 C1560 0.950 . S
H1538 C1561 0.950 . S
H1539 C1563 0.950 . S
H1540 C1564 0.950 . S
H1541 C1565 0.951 . S
H1542 C1567 0.951 . S
H1543 C1569 0.950 . S
H1544 C1570 0.950 . S
H1545 C1572 0.950 . S
H1546 C1575 0.950 . S
H1547 C1576 0.950 . S
H1548 C1578 0.950 . S
H1549 C1579 0.950 . S
C1550 H1532 0.951 . S
C1550 C1551 1.366 . S
C1550 C1552 1.388 . S
C1551 C1550 1.366 . S
C1551 C1555 1.385 . S
C1552 H1533 0.951 . S
C1552 C1550 1.388 . S
C1552 C1553 1.366 . S
C1553 C1552 1.366 . S
C1553 C1554 1.414 . S
C1553 C1556 1.499 . S
C1554 H1534 0.950 . S
C1554 C1553 1.414 . S
C1554 C1555 1.374 . S
C1555 H1535 0.950 . S
C1555 C1551 1.385 . S
C1555 C1554 1.374 . S
C1556 C1553 1.499 . S
C1556 C1557 1.373 . S
C1556 C1558 1.389 . S
C1557 H1536 0.950 . S
C1557 C1556 1.373 . S
C1557 C1573 1.377 . S
C1558 C1556 1.389 . S
C1558 C1559 1.524 . S
C1558 C1572 1.377 . S
C1559 C1558 1.524 . S
C1559 C1560 1.397 . S
C1559 C1564 1.363 . S
C1560 H1537 0.950 . S
C1560 C1559 1.397 . S
C1560 C1561 1.334 . S
C1561 H1538 0.950 . S
C1561 C1560 1.334 . S
C1561 C1562 1.287 . S
C1562 C1561 1.287 . S
C1562 C1563 1.524 . S
C1562 H1581 0.913 . S
C1563 H1539 0.950 . S
C1563 C1562 1.524 . S
C1563 C1564 1.415 . S
C1564 H1540 0.950 . S
C1564 C1559 1.363 . S
C1564 C1563 1.415 . S
C1565 H1541 0.951 . S
C1565 C1566 1.366 . S
C1565 C1567 1.388 . S
C1566 C1565 1.366 . S
C1566 C1570 1.385 . S
C1567 H1542 0.951 . S
C1567 C1565 1.388 . S
C1567 C1568 1.366 . S
C1568 C1567 1.366 . S
C1568 C1569 1.414 . S
C1568 C1571 1.499 . S
C1569 H1543 0.950 . S
C1569 C1568 1.414 . S
C1569 C1570 1.374 . S
C1570 H1544 0.950 . S
C1570 C1566 1.385 . S
C1570 C1569 1.374 . S
C1571 C1568 1.499 . S
C1571 C1572 1.373 . S
C1571 C1573 1.389 . S
C1572 H1545 0.950 . S
C1572 C1558 1.377 . S
C1572 C1571 1.373 . S
C1573 C1557 1.377 . S
C1573 C1571 1.389 . S
C1573 C1574 1.524 . S
C1574 C1573 1.524 . S
C1574 C1575 1.397 . S
C1574 C1579 1.363 . S
C1575 H1546 0.950 . S
C1575 C1574 1.397 . S
C1575 C1576 1.334 . S
C1576 H1547 0.950 . S
C1576 C1575 1.334 . S
C1576 C1577 1.287 . S
C1577 C1576 1.287 . S
C1577 C1578 1.524 . S
C1577 H1580 0.999 . S
C1578 H1548 0.950 . S
C1578 C1577 1.524 . S
C1578 C1579 1.415 . S
C1579 H1549 0.950 . S
C1579 C1574 1.363 . S
C1579 C1578 1.415 . S
H1580 C1577 0.999 . S
H1581 C1562 0.913 . S
H1582 C1600 0.951 . S
H1583 C1602 0.951 . S
H1584 C1604 0.950 . S
H1585 C1605 0.950 . S
H1586 C1607 0.950 . S
H1587 C1610 0.950 . S
H1588 C1611 0.959 . S
H1589 C1613 0.950 . S
H1590 C1614 0.950 . S
H1591 C1615 0.951 . S
H1592 C1617 0.951 . S
H1593 C1619 0.950 . S
H1594 C1620 0.950 . S
H1595 C1622 0.950 . S
H1596 C1625 0.950 . S
H1597 C1626 0.950 . S
H1598 C1628 0.950 . S
H1599 C1629 0.950 . S
C1600 H1582 0.951 . S
C1600 C1601 1.366 . S
C1600 C1602 1.388 . S
C1601 C1600 1.366 . S
C1601 C1605 1.385 . S
C1602 H1583 0.951 . S
C1602 C1600 1.388 . S
C1602 C1603 1.366 . S
C1603 C1602 1.366 . S
C1603 C1604 1.414 . S
C1603 C1606 1.499 . S
C1604 H1584 0.950 . S
C1604 C1603 1.414 . S
C1604 C1605 1.374 . S
C1605 H1585 0.950 . S
C1605 C1601 1.385 . S
C1605 C1604 1.374 . S
C1606 C1603 1.499 . S
C1606 C1607 1.373 . S
C1606 C1608 1.389 . S
C1607 H1586 0.950 . S
C1607 C1606 1.373 . S
C1607 C1623 1.377 1_455 S
C1608 C1606 1.389 . S
C1608 C1609 1.524 . S
C1608 C1622 1.377 1_455 S
C1609 C1608 1.524 . S
C1609 C1610 1.397 . S
C1609 C1614 1.363 . S
C1610 H1587 0.950 . S
C1610 C1609 1.397 . S
C1610 C1611 1.334 . S
C1611 H1588 0.959 . S
C1611 C1610 1.334 . S
C1611 C1612 1.287 . S
C1612 C1611 1.287 . S
C1612 C1613 1.524 . S
C1612 H1631 0.913 . S
C1613 H1589 0.950 . S
C1613 C1612 1.524 . S
C1613 C1614 1.415 . S
C1614 H1590 0.950 . S
C1614 C1609 1.363 . S
C1614 C1613 1.415 . S
C1615 H1591 0.951 . S
C1615 C1616 1.366 . S
C1615 C1617 1.388 . S
C1616 C1615 1.366 . S
C1616 C1620 1.385 . S
C1617 H1592 0.951 . S
C1617 C1615 1.388 . S
C1617 C1618 1.366 . S
C1618 C1617 1.366 . S
C1618 C1619 1.414 . S
C1618 C1621 1.499 . S
C1619 H1593 0.950 . S
C1619 C1618 1.414 . S
C1619 C1620 1.374 . S
C1620 H1594 0.950 . S
C1620 C1616 1.385 . S
C1620 C1619 1.374 . S
C1621 C1618 1.499 . S
C1621 C1622 1.373 . S
C1621 C1623 1.389 . S
C1622 H1595 0.950 . S
C1622 C1608 1.377 1_655 S
C1622 C1621 1.373 . S
C1623 C1607 1.377 1_655 S
C1623 C1621 1.389 . S
C1623 C1624 1.524 . S
C1624 C1623 1.524 . S
C1624 C1625 1.397 . S
C1624 C1629 1.363 . S
C1625 H1596 0.950 . S
C1625 C1624 1.397 . S
C1625 C1626 1.334 . S
C1626 H1597 0.950 . S
C1626 C1625 1.334 . S
C1626 C1627 1.287 . S
C1627 C1626 1.287 . S
C1627 C1628 1.524 . S
C1627 H1630 0.999 . S
C1628 H1598 0.950 . S
C1628 C1627 1.524 . S
C1628 C1629 1.415 . S
C1629 H1599 0.950 . S
C1629 C1624 1.363 . S
C1629 C1628 1.415 . S
H1630 C1627 0.999 . S
H1631 C1612 0.913 . S
C451 C2 1.110 . S
C466 C362 1.110 . S
C501 C38 1.109 . S
C516 C398 1.109 . S
C551 C218 1.110 . S
C566 C74 1.109 . S
C601 C110 1.109 . S
C616 C254 1.109 . S
C651 C290 1.110 . S
C666 C146 1.110 . S
C701 C326 1.110 . S
C716 C182 1.110 . S
C751 C291 1.202 . S
C766 C3 1.203 . S
C801 C39 1.204 . S
C816 C327 1.203 . S
C851 C363 1.203 . S
C866 C75 1.203 . S
C901 C111 1.203 . S
C916 C399 1.203 . S
C951 C147 1.204 . S
C966 C219 1.204 . S
C1001 C183 1.203 . S
C1016 C255 1.203 . S
C1051 C374 1.496 . S
C1066 C14 1.495 . S
C1101 C410 1.495 . S
C1116 C50 1.496 . S
C1151 C230 1.496 . S
C1166 C86 1.497 . S
C1201 C122 1.495 . S
C1216 C266 1.496 . S
C1251 C158 1.495 . S
C1266 C302 1.495 . S
C1301 C338 1.495 . S
C1316 C194 1.495 . S
C1351 C4 1.243 . S
C1366 C256 1.242 . S
C1401 C292 1.243 . S
C1416 C40 1.242 . S
C1451 C328 1.242 . S
C1466 C76 1.243 . S
C1501 C112 1.242 . S
C1516 C364 1.243 . S
C1551 C148 1.243 . S
C1566 C400 1.242 . S
C1601 C184 1.242 . S
C1616 C220 1.243 . S
