# Generated by pormake.
# Topology wmi, (6)-cn, num edge types: 1
# Building blocks:
#     Node 0, Type 0, BuildingBlock: KUMBOL_clean_sbu_0, # of connection points: 6
#     Node 1, Type 0, BuildingBlock: KUMBOL_clean_sbu_0, # of connection points: 6
#     Node 2, Type 0, BuildingBlock: KUMBOL_clean_sbu_0, # of connection points: 6
#     Node 3, Type 0, BuildingBlock: KUMBOL_clean_sbu_0, # of connection points: 6
#     Node 4, Type 0, BuildingBlock: KUMBOL_clean_sbu_0, # of connection points: 6
#     Node 5, Type 0, BuildingBlock: KUMBOL_clean_sbu_0, # of connection points: 6
#     Node 6, Type 0, BuildingBlock: KUMBOL_clean_sbu_0, # of connection points: 6
#     Node 7, Type 0, BuildingBlock: KUMBOL_clean_sbu_0, # of connection points: 6
#     Node 8, Type 0, BuildingBlock: KUMBOL_clean_sbu_0, # of connection points: 6
#     Node 9, Type 0, BuildingBlock: KUMBOL_clean_sbu_0, # of connection points: 6
#     Node 10, Type 0, BuildingBlock: KUMBOL_clean_sbu_0, # of connection points: 6
#     Node 11, Type 0, BuildingBlock: KUMBOL_clean_sbu_0, # of connection points: 6
#     Node 12, Type 0, BuildingBlock: KUMBOL_clean_sbu_0, # of connection points: 6
#     Node 13, Type 0, BuildingBlock: KUMBOL_clean_sbu_0, # of connection points: 6
#     Node 14, Type 0, BuildingBlock: KUMBOL_clean_sbu_0, # of connection points: 6
#     Node 15, Type 0, BuildingBlock: KUMBOL_clean_sbu_0, # of connection points: 6
#     Node 16, Type 0, BuildingBlock: KUMBOL_clean_sbu_0, # of connection points: 6
#     Node 17, Type 0, BuildingBlock: KUMBOL_clean_sbu_0, # of connection points: 6
#     Edge 18, Type (0, 0), BuildingBlock: ZUJKAS_clean_linker_0, # of connection points: 2
#     Edge 19, Type (0, 0), BuildingBlock: ZUJKAS_clean_linker_0, # of connection points: 2
#     Edge 20, Type (0, 0), BuildingBlock: ZUJKAS_clean_linker_0, # of connection points: 2
#     Edge 21, Type (0, 0), BuildingBlock: ZUJKAS_clean_linker_0, # of connection points: 2
#     Edge 22, Type (0, 0), BuildingBlock: ZUJKAS_clean_linker_0, # of connection points: 2
#     Edge 23, Type (0, 0), BuildingBlock: ZUJKAS_clean_linker_0, # of connection points: 2
#     Edge 24, Type (0, 0), BuildingBlock: ZUJKAS_clean_linker_0, # of connection points: 2
#     Edge 25, Type (0, 0), BuildingBlock: ZUJKAS_clean_linker_0, # of connection points: 2
#     Edge 26, Type (0, 0), BuildingBlock: ZUJKAS_clean_linker_0, # of connection points: 2
#     Edge 27, Type (0, 0), BuildingBlock: ZUJKAS_clean_linker_0, # of connection points: 2
#     Edge 28, Type (0, 0), BuildingBlock: ZUJKAS_clean_linker_0, # of connection points: 2
#     Edge 29, Type (0, 0), BuildingBlock: ZUJKAS_clean_linker_0, # of connection points: 2
#     Edge 30, Type (0, 0), BuildingBlock: ZUJKAS_clean_linker_0, # of connection points: 2
#     Edge 31, Type (0, 0), BuildingBlock: ZUJKAS_clean_linker_0, # of connection points: 2
#     Edge 32, Type (0, 0), BuildingBlock: ZUJKAS_clean_linker_0, # of connection points: 2
#     Edge 33, Type (0, 0), BuildingBlock: ZUJKAS_clean_linker_0, # of connection points: 2
#     Edge 34, Type (0, 0), BuildingBlock: ZUJKAS_clean_linker_0, # of connection points: 2
#     Edge 35, Type (0, 0), BuildingBlock: ZUJKAS_clean_linker_0, # of connection points: 2
#     Edge 36, Type (0, 0), BuildingBlock: ZUJKAS_clean_linker_0, # of connection points: 2
#     Edge 37, Type (0, 0), BuildingBlock: ZUJKAS_clean_linker_0, # of connection points: 2
#     Edge 38, Type (0, 0), BuildingBlock: ZUJKAS_clean_linker_0, # of connection points: 2
#     Edge 39, Type (0, 0), BuildingBlock: ZUJKAS_clean_linker_0, # of connection points: 2
#     Edge 40, Type (0, 0), BuildingBlock: ZUJKAS_clean_linker_0, # of connection points: 2
#     Edge 41, Type (0, 0), BuildingBlock: ZUJKAS_clean_linker_0, # of connection points: 2
#     Edge 42, Type (0, 0), BuildingBlock: ZUJKAS_clean_linker_0, # of connection points: 2
#     Edge 43, Type (0, 0), BuildingBlock: ZUJKAS_clean_linker_0, # of connection points: 2
#     Edge 44, Type (0, 0), BuildingBlock: ZUJKAS_clean_linker_0, # of connection points: 2
#     Edge 45, Type (0, 0), BuildingBlock: ZUJKAS_clean_linker_0, # of connection points: 2
#     Edge 46, Type (0, 0), BuildingBlock: ZUJKAS_clean_linker_0, # of connection points: 2
#     Edge 47, Type (0, 0), BuildingBlock: ZUJKAS_clean_linker_0, # of connection points: 2
#     Edge 48, Type (0, 0), BuildingBlock: ZUJKAS_clean_linker_0, # of connection points: 2
#     Edge 49, Type (0, 0), BuildingBlock: ZUJKAS_clean_linker_0, # of connection points: 2
#     Edge 50, Type (0, 0), BuildingBlock: ZUJKAS_clean_linker_0, # of connection points: 2
#     Edge 51, Type (0, 0), BuildingBlock: ZUJKAS_clean_linker_0, # of connection points: 2
#     Edge 52, Type (0, 0), BuildingBlock: ZUJKAS_clean_linker_0, # of connection points: 2
#     Edge 53, Type (0, 0), BuildingBlock: ZUJKAS_clean_linker_0, # of connection points: 2
#     Edge 54, Type (0, 0), BuildingBlock: ZUJKAS_clean_linker_0, # of connection points: 2
#     Edge 55, Type (0, 0), BuildingBlock: ZUJKAS_clean_linker_0, # of connection points: 2
#     Edge 56, Type (0, 0), BuildingBlock: ZUJKAS_clean_linker_0, # of connection points: 2
#     Edge 57, Type (0, 0), BuildingBlock: ZUJKAS_clean_linker_0, # of connection points: 2
#     Edge 58, Type (0, 0), BuildingBlock: ZUJKAS_clean_linker_0, # of connection points: 2
#     Edge 59, Type (0, 0), BuildingBlock: ZUJKAS_clean_linker_0, # of connection points: 2
#     Edge 60, Type (0, 0), BuildingBlock: ZUJKAS_clean_linker_0, # of connection points: 2
#     Edge 61, Type (0, 0), BuildingBlock: ZUJKAS_clean_linker_0, # of connection points: 2
#     Edge 62, Type (0, 0), BuildingBlock: ZUJKAS_clean_linker_0, # of connection points: 2
#     Edge 63, Type (0, 0), BuildingBlock: ZUJKAS_clean_linker_0, # of connection points: 2
#     Edge 64, Type (0, 0), BuildingBlock: ZUJKAS_clean_linker_0, # of connection points: 2
#     Edge 65, Type (0, 0), BuildingBlock: ZUJKAS_clean_linker_0, # of connection points: 2
#     Edge 66, Type (0, 0), BuildingBlock: ZUJKAS_clean_linker_0, # of connection points: 2
#     Edge 67, Type (0, 0), BuildingBlock: ZUJKAS_clean_linker_0, # of connection points: 2
#     Edge 68, Type (0, 0), BuildingBlock: ZUJKAS_clean_linker_0, # of connection points: 2
#     Edge 69, Type (0, 0), BuildingBlock: ZUJKAS_clean_linker_0, # of connection points: 2
#     Edge 70, Type (0, 0), BuildingBlock: ZUJKAS_clean_linker_0, # of connection points: 2
#     Edge 71, Type (0, 0), BuildingBlock: ZUJKAS_clean_linker_0, # of connection points: 2
# Relax obj value: 0.085
# Max RMSD: 0.191
# Mean RMSD: 0.191
data_MOF--net-wmi--node1-KUMBOL_clean_sbu_0--edge1-ZUJKAS_clean_linker_0
_symmetry_space_group_name_H-M    P1
_symmetry_Int_Tables_number       1
_symmetry_cell_setting            triclinic
loop_
_symmetry_equiv_pos_as_xyz
'x, y, z'
_cell_length_a     47.646372
_cell_length_b     47.587058
_cell_length_c     106.59721
_cell_angle_alpha  90.102111
_cell_angle_beta   89.992734
_cell_angle_gamma 119.97105
loop_
_atom_site_label
_atom_site_type_symbol
_atom_site_fract_x
_atom_site_fract_y
_atom_site_fract_z
_atom_type_partial_charge
Gd0 Gd 0.47841 0.01216 0.09569 0.0
Gd1 Gd 0.56119 0.05258 0.10833 0.0
C2 C 0.62131 1.0019 0.1121 0.0
C3 C 0.63372 1.0078 0.13435 0.0
C4 C 0.59999 0.02794 0.12552 0.0
C5 C 0.60321 0.0178 0.11374 0.0
C6 C 0.61574 0.02362 0.13593 0.0
C7 C 0.63641 0.99687 0.12246 0.0
C8 C 0.62376 0.99152 0.10009 0.0
C9 C 0.60847 0.99712 0.09008 0.0
N10 N 0.58834 0.02312 0.10393 0.0
C11 C 0.59105 0.01315 0.09215 0.0
H12 H 0.57899 0.01618 0.08425 0.0
C13 C 0.58217 0.05723 0.13791 0.0
N14 N 0.58275 0.04345 0.12672 0.0
C15 C 0.59709 0.05329 0.14852 0.0
C16 C 0.61372 0.03617 0.14756 0.0
H17 H 0.56997 0.07118 0.13861 0.0
H18 H 0.65043 0.98479 0.12136 0.0
H19 H 0.45755 0.0453 0.12 0.0
H20 H 0.63731 0.97914 0.09845 0.0
H21 H 0.60996 0.98899 0.08074 0.0
H22 H 0.64593 1.00423 0.14224 0.0
H23 H 0.46794 0.99038 0.06574 0.0
H24 H 0.40328 0.08619 0.10503 0.0
H25 H 0.42762 0.07375 0.12311 0.0
H26 H 0.39534 0.06064 0.06129 0.0
H27 H 0.59607 0.06379 0.15741 0.0
H28 H 0.62556 0.03343 0.15577 0.0
H29 H 0.39153 0.08133 0.08201 0.0
H30 H 0.44186 0.99729 0.04683 0.0
N31 N 0.45126 0.0412 0.10004 0.0
C32 C 0.41663 0.07356 0.10352 0.0
C33 C 0.43019 0.06647 0.11374 0.0
C34 C 0.41986 0.06368 0.09151 0.0
C35 C 0.43759 0.04738 0.09003 0.0
C36 C 0.44715 0.04992 0.11187 0.0
N37 N 0.45617 0.01948 0.07729 0.0
C38 C 0.44004 0.0361 0.07833 0.0
C39 C 0.44132 1.00848 0.0556 0.0
C40 C 0.42565 0.02661 0.05636 0.0
C41 C 0.45608 1.00467 0.06628 0.0
C42 C 0.42446 0.0403 0.06785 0.0
H43 H 0.41394 0.02927 0.0481 0.0
O44 O 0.452 0.96235 0.08934 0.0
O45 O 0.51823 1.00589 0.10339 0.0
O46 O 0.55969 0.05147 0.08641 0.0
O47 O 0.5095 0.04394 0.08014 0.0
O48 O 0.49838 0.98339 0.08651 0.0
O49 O 0.43271 0.97804 0.10453 0.0
O50 O 0.59178 0.10241 0.11465 0.0
O51 O 0.52131 0.05896 0.10097 0.0
O52 O 0.47607 1.00971 0.11667 0.0
O53 O 0.52675 0.0225 0.12474 0.0
O54 O 0.54267 0.08297 0.11744 0.0
O55 O 0.60575 0.0857 0.09833 0.0
C56 C 0.51762 0.98585 0.09551 0.0
C57 C 0.40742 0.05712 0.06924 0.0
C58 C 0.40521 0.06886 0.08103 0.0
C59 C 0.42866 0.95399 0.09738 0.0
C60 C 0.39619 0.9321 0.09257 0.0
C61 C 0.38268 0.9419 0.08305 0.0
C62 C 0.37976 0.89994 0.09683 0.0
C63 C 0.35006 0.87734 0.09143 0.0
C64 C 0.3531 0.91955 0.07769 0.0
C65 C 0.33691 0.88741 0.0818 0.0
C66 C 0.53939 0.05085 0.07759 0.0
C67 C 0.52182 0.07895 0.10889 0.0
C68 C 0.61383 0.10978 0.10608 0.0
C69 C 0.64802 0.12777 0.11045 0.0
C70 C 0.65827 0.1145 0.11991 0.0
C71 C 0.67022 0.159 0.10573 0.0
C72 C 0.70194 0.17667 0.11075 0.0
C73 C 0.68954 0.13174 0.12477 0.0
C74 C 0.71115 0.16261 0.1203 0.0
C75 C 0.49471 1.01052 0.12596 0.0
H76 H 0.3951 0.96658 0.07967 0.0
H77 H 0.39048 0.89231 0.10408 0.0
H78 H 0.34277 0.9271 0.0703 0.0
H79 H 0.31386 0.8705 0.07756 0.0
H80 H 0.64205 0.09097 0.12371 0.0
H81 H 0.66267 0.16974 0.09847 0.0
H82 H 0.69698 0.1212 0.13213 0.0
H83 H 0.73531 0.1756 0.12428 0.0
Gd84 Gd 0.06664 0.49712 0.09661 0.0
Gd85 Gd 0.02526 0.5402 0.10766 0.0
C86 C 0.0831 0.65083 0.11151 0.0
C87 C 0.0812 0.65831 0.13396 0.0
C88 C 0.05585 0.60394 0.12505 0.0
C89 C 0.06555 0.61688 0.11322 0.0
C90 C 0.06298 0.62454 0.13555 0.0
C91 C 0.09106 0.67143 0.12195 0.0
C92 C 0.0915 0.66308 0.09933 0.0
C93 C 0.08225 0.64164 0.08923 0.0
N94 N 0.05695 0.59627 0.10333 0.0
C95 C 0.06491 0.60823 0.09141 0.0
H96 H 0.05892 0.59236 0.08349 0.0
C97 C 0.02303 0.55779 0.1374 0.0
N98 N 0.0375 0.57126 0.1262 0.0
C99 C 0.02991 0.57711 0.14812 0.0
C100 C 0.05035 0.61062 0.14723 0.0
H101 H 1.00665 0.53191 0.13804 0.0
H102 H 0.10429 0.69754 0.12082 0.0
H103 H 0.02846 0.44073 0.12108 0.0
H104 H 0.10489 0.68897 0.09761 0.0
H105 H 0.08868 0.65079 0.07975 0.0
H106 H 0.08699 0.67452 0.14191 0.0
H107 H 0.09049 0.50667 0.06633 0.0
H108 H 0.98491 0.34701 0.10519 0.0
H109 H 0.99755 0.38312 0.12344 0.0
H110 H 1.01334 0.36445 0.062 0.0
H111 H 0.01914 0.5662 0.15704 0.0
H112 H 0.05529 0.62561 0.15551 0.0
H113 H 0.99088 0.34038 0.08247 0.0
H114 H 0.0822 0.47279 0.04776 0.0
N115 N 0.03499 0.44045 0.101 0.0
C116 C 0.99893 0.37305 0.1039 0.0
C117 C 1.00616 0.3933 0.11422 0.0
C118 C 1.01025 0.38651 0.09208 0.0
C119 C 0.02827 0.4207 0.09082 0.0
C120 C 0.02448 0.42681 0.11267 0.0
N121 N 0.05826 0.46708 0.078 0.0
C122 C 0.04032 0.43431 0.0791 0.0
C123 C 0.06998 0.46166 0.05645 0.0
C124 C 0.05014 0.42817 0.05721 0.0
C125 C 0.07439 0.48075 0.06702 0.0
C126 C 0.03551 0.41404 0.06864 0.0
H127 H 0.04705 0.41335 0.04903 0.0
O128 O 0.11428 0.52143 0.08814 0.0
O129 O 0.06938 0.54545 0.09887 0.0
O130 O 0.02189 0.53716 0.08595 0.0
O131 O 0.049 0.51026 0.07928 0.0
O132 O 0.1074 0.54084 0.10592 0.0
O133 O 0.10149 0.48259 0.10185 0.0
O134 O 0.97506 0.52151 0.11339 0.0
O135 O 0.01886 0.49336 0.1004 0.0
O136 O 0.0621 0.49265 0.11734 0.0
O137 O 0.05476 0.53492 0.12439 0.0
O138 O 0.99484 0.49189 0.11683 0.0
O139 O 0.99462 0.55619 0.09848 0.0
C140 C 0.09661 0.5603 0.10425 0.0
C141 C 0.01726 0.38026 0.06993 0.0
C142 C 1.00455 0.36656 0.0816 0.0
C143 C 0.12411 0.50498 0.09482 0.0
C144 C 0.14836 0.49859 0.08928 0.0
C145 C 0.14131 0.47782 0.07899 0.0
C146 C 0.17977 0.51484 0.0943 0.0
C147 C 0.20438 0.511 0.08884 0.0
C148 C 0.16584 0.47424 0.07343 0.0
C149 C 0.19726 0.49084 0.07826 0.0
C150 C 0.03245 0.52512 0.07698 0.0
C151 C 0.99834 0.47454 0.10833 0.0
C152 C 0.96952 0.53904 0.10554 0.0
C153 C 0.95251 0.55549 0.11062 0.0
C154 C 0.96702 0.57863 0.12018 0.0
C155 C 0.92123 0.54746 0.1063 0.0
C156 C 0.90454 0.56201 0.11182 0.0
C157 C 0.95078 0.59316 0.12556 0.0
C158 C 0.91982 0.58488 0.12147 0.0
C159 C 0.06406 0.5128 0.1262 0.0
H160 H 0.11704 0.46434 0.07528 0.0
H161 H 0.18512 0.53071 0.10235 0.0
H162 H 0.16045 0.45836 0.06541 0.0
H163 H 0.21583 0.48725 0.07395 0.0
H164 H 0.99087 0.5854 0.12357 0.0
H165 H 0.90971 0.52953 0.09894 0.0
H166 H 0.96222 0.61087 0.13298 0.0
H167 H 0.90782 0.59665 0.12582 0.0
Gd168 Gd 0.57888 0.6021 0.0962 0.0
Gd169 Gd 0.54162 0.51912 0.10766 0.0
C170 C 0.43126 0.47012 0.111 0.0
C171 C 0.42305 0.46277 0.13348 0.0
C172 C 0.47756 0.48784 0.1248 0.0
C173 C 0.46505 0.48459 0.11285 0.0
C174 C 0.45656 0.47607 0.13523 0.0
C175 C 0.41044 0.45991 0.12139 0.0
C176 C 0.41933 0.46574 0.09874 0.0
C177 C 0.44081 0.47476 0.08869 0.0
N178 N 0.48581 0.49475 0.10299 0.0
C179 C 0.47404 0.48897 0.09099 0.0
H180 H 0.48992 0.49499 0.0831 0.0
C181 C 0.52269 0.49993 0.13761 0.0
N182 N 0.51006 0.50085 0.12617 0.0
C183 C 0.50287 0.48858 0.14822 0.0
C184 C 0.46972 0.47706 0.14706 0.0
H185 H 0.5483 0.50829 0.13851 0.0
H186 H 0.3845 0.44908 0.12015 0.0
H187 H 0.62931 0.62379 0.12268 0.0
H188 H 0.39358 0.45482 0.09693 0.0
H189 H 0.43182 0.4708 0.07915 0.0
H190 H 0.40662 0.45394 0.1414 0.0
H191 H 0.57679 0.60485 0.06433 0.0
H192 H 0.72637 0.67099 0.11022 0.0
H193 H 0.68616 0.65092 0.12727 0.0
H194 H 0.7189 0.67083 0.0657 0.0
H195 H 0.51316 0.4885 0.15726 0.0
H196 H 0.45437 0.4681 0.15528 0.0
H197 H 0.73823 0.67846 0.08743 0.0
H198 H 0.61429 0.62401 0.04683 0.0
N199 N 0.63443 0.62717 0.10256 0.0
C200 C 0.70078 0.6588 0.10797 0.0
C201 C 0.67821 0.64767 0.1176 0.0
C202 C 0.69015 0.65414 0.09555 0.0
C203 C 0.65645 0.63774 0.09305 0.0
C204 C 0.64523 0.63223 0.11477 0.0
N205 N 0.61316 0.61652 0.07846 0.0
C206 C 0.64555 0.63243 0.08073 0.0
C207 C 0.62346 0.62602 0.05628 0.0
C208 C 0.6566 0.64103 0.05844 0.0
C209 C 0.6021 0.6144 0.0664 0.0
C210 C 0.66808 0.64474 0.07073 0.0
H211 H 0.67316 0.65044 0.05057 0.0
O212 O 0.55997 0.62393 0.08337 0.0
O213 O 0.53211 0.5564 0.09972 0.0
O214 O 0.54862 0.52038 0.08612 0.0
O215 O 0.55074 0.56832 0.08046 0.0
O216 O 0.53699 0.59948 0.10676 0.0
O217 O 0.59246 0.65269 0.09885 0.0
O218 O 0.56399 0.49 0.11206 0.0
O219 O 0.58688 0.56012 0.09956 0.0
O220 O 0.57795 0.60683 0.11705 0.0
O221 O 0.5507 0.55363 0.1249 0.0
O222 O 0.59009 0.5404 0.11669 0.0
O223 O 0.52221 0.46968 0.10027 0.0
C224 C 0.51784 0.56875 0.10563 0.0
C225 C 0.70139 0.6612 0.07326 0.0
C226 C 0.71239 0.66567 0.08563 0.0
C227 C 0.57468 0.65149 0.08933 0.0
C228 C 0.57233 0.67949 0.08527 0.0
C229 C 0.57381 0.68658 0.07244 0.0
C230 C 0.56572 0.69746 0.09404 0.0
C231 C 0.55995 0.72201 0.08988 0.0
C232 C 0.56881 0.71155 0.06836 0.0
C233 C 0.56172 0.72911 0.07703 0.0
C234 C 0.54792 0.54022 0.07751 0.0
C235 C 0.60635 0.56008 0.1077 0.0
C236 C 0.54341 0.46449 0.10584 0.0
C237 C 0.53161 0.43271 0.1122 0.0
C238 C 0.52114 0.42918 0.12467 0.0
C239 C 0.53228 0.40631 0.10622 0.0
C240 C 0.5223 0.37685 0.1128 0.0
C241 C 0.51206 0.40071 0.13123 0.0
C242 C 0.51279 0.37491 0.12542 0.0
C243 C 0.56586 0.58599 0.12641 0.0
H244 H 0.5786 0.67263 0.0656 0.0
H245 H 0.5639 0.69163 0.10395 0.0
H246 H 0.57003 0.71704 0.05846 0.0
H247 H 0.5575 0.74821 0.07372 0.0
H248 H 0.52052 0.44867 0.12946 0.0
H249 H 0.54024 0.40862 0.09656 0.0
H250 H 0.50459 0.39869 0.14094 0.0
H251 H 0.50604 0.35333 0.13091 0.0
Gd252 Gd 0.01626 0.47423 0.92412 0.0
Gd253 Gd 0.05892 0.5574 0.91163 0.0
C254 C 1.00226 0.61161 0.9072 0.0
C255 C 1.00105 0.61668 0.88459 0.0
C256 C 0.0279 0.58967 0.89392 0.0
C257 C 0.01949 0.59477 0.90572 0.0
C258 C 0.01953 0.60135 0.88322 0.0
C259 C 0.99277 0.62213 0.89657 0.0
C260 C 0.99645 0.6188 0.9193 0.0
C261 C 1.00935 0.61094 0.92952 0.0
N262 N 0.03056 0.58577 0.91578 0.0
C263 C 0.027 0.59512 0.92756 0.0
H264 H 0.038 0.59115 0.93558 0.0
C265 C 0.06133 0.57669 0.88178 0.0
N266 N 0.04709 0.57624 0.89299 0.0
C267 C 0.05313 0.58721 0.87086 0.0
C268 C 0.03164 0.59905 0.87155 0.0
H269 H 0.07817 0.56774 0.88124 0.0
H270 H 0.97992 0.63545 0.89752 0.0
H271 H 0.04825 0.45364 0.89926 0.0
H272 H 0.98322 0.63155 0.92083 0.0
H273 H 1.00622 0.61757 0.93892 0.0
H274 H 0.99427 0.62569 0.87649 0.0
H275 H 0.99587 0.46298 0.95428 0.0
H276 H 0.09233 0.40165 0.9135 0.0
H277 H 0.0779 0.42511 0.8957 0.0
H278 H 0.06906 0.39304 0.95743 0.0
H279 H 0.06358 0.58643 0.86195 0.0
H280 H 0.02569 0.60767 0.86312 0.0
H281 H 0.08901 0.38994 0.93649 0.0
H282 H 1.00461 0.43728 0.97292 0.0
N283 N 0.04503 0.44708 0.9192 0.0
C284 C 0.07897 0.4142 0.91521 0.0
C285 C 0.07075 0.42725 0.90514 0.0
C286 C 0.06938 0.41697 0.92732 0.0
C287 C 0.05224 0.4338 0.92907 0.0
C288 C 0.05344 0.44333 0.90727 0.0
N289 N 0.02455 0.45174 0.94227 0.0
C290 C 0.04153 0.43603 0.94092 0.0
C291 C 1.01531 0.43694 0.96401 0.0
C292 C 0.03389 0.42183 0.96292 0.0
C293 C 1.01045 0.45147 0.95348 0.0
C294 C 0.04696 0.4209 0.95126 0.0
H295 H 0.03746 0.41039 0.97107 0.0
O296 O 0.96703 0.44898 0.93087 0.0
O297 O 1.01223 0.51528 0.91647 0.0
O298 O 0.05569 0.55493 0.9336 0.0
O299 O 0.04776 0.50463 0.93983 0.0
O300 O 0.98726 0.49516 0.93284 0.0
O301 O 0.98126 0.42803 0.91572 0.0
O302 O 0.10806 0.5883 0.90481 0.0
O303 O 0.06402 0.51677 0.91915 0.0
O304 O 1.01195 0.47097 0.90311 0.0
O305 O 0.03044 0.52302 0.89503 0.0
O306 O 0.08916 0.53844 0.90291 0.0
O307 O 0.09301 0.60114 0.92185 0.0
C308 C 0.99251 0.51597 0.92411 0.0
C309 C 0.06452 0.40469 0.94959 0.0
C310 C 0.07583 0.40287 0.93766 0.0
C311 C 0.95789 0.42499 0.92302 0.0
C312 C 0.93543 0.39297 0.92804 0.0
C313 C 0.94309 0.38093 0.93871 0.0
C314 C 0.90436 0.37579 0.92281 0.0
C315 C 0.8807 0.34719 0.92845 0.0
C316 C 0.91947 0.35239 0.94435 0.0
C317 C 0.88827 0.33568 0.93931 0.0
C318 C 0.05424 0.53433 0.94246 0.0
C319 C 0.0843 0.51721 0.91139 0.0
C320 C 0.11606 0.60997 0.91361 0.0
C321 C 0.13219 0.64414 0.90939 0.0
C322 C 0.1161 0.65402 0.90102 0.0
C323 C 0.16417 0.66673 0.91319 0.0
C324 C 0.17997 0.69862 0.90831 0.0
C325 C 0.13155 0.68547 0.89627 0.0
C326 C 0.16325 0.70754 0.89981 0.0
C327 C 0.01634 0.4908 0.89375 0.0
H328 H 0.96699 0.39374 0.94279 0.0
H329 H 0.89832 0.38508 0.91457 0.0
H330 H 0.9253 0.34331 0.95267 0.0
H331 H 0.87017 0.31351 0.94376 0.0
H332 H 0.09167 0.63735 0.89805 0.0
H333 H 0.1769 0.65936 0.91962 0.0
H334 H 0.11894 0.69272 0.88974 0.0
H335 H 0.17473 0.73184 0.89596 0.0
Gd336 Gd 0.60351 0.57253 0.92551 0.0
Gd337 Gd 0.5218 0.53448 0.91154 0.0
C338 C 0.46674 0.42327 0.90839 0.0
C339 C 0.46554 0.41521 0.88589 0.0
C340 C 0.49081 0.46987 0.89458 0.0
C341 C 0.48408 0.45726 0.90658 0.0
C342 C 0.48049 0.44887 0.8841 0.0
C343 C 0.45869 0.40242 0.89803 0.0
C344 C 0.45631 0.41112 0.92046 0.0
C345 C 0.4619 0.4326 0.93027 0.0
N346 N 0.4916 0.47807 0.91638 0.0
C347 C 0.47938 0.46599 0.92807 0.0
H348 H 0.48214 0.48143 0.93588 0.0
C349 C 0.50546 0.51519 0.88153 0.0
N350 N 0.50452 0.50244 0.89313 0.0
C351 C 0.49585 0.49543 0.87087 0.0
C352 C 0.48391 0.46218 0.87213 0.0
H353 H 0.51452 0.54094 0.88053 0.0
H354 H 0.44583 0.37634 0.89928 0.0
H355 H 0.62171 0.62459 0.90031 0.0
H356 H 0.44275 0.38524 0.9222 0.0
H357 H 0.45281 0.42349 0.93957 0.0
H358 H 0.45786 0.39877 0.87795 0.0
H359 H 0.61695 0.56575 0.95564 0.0
H360 H 0.67652 0.72108 0.91374 0.0
H361 H 0.65105 0.68228 0.89631 0.0
H362 H 0.68772 0.70884 0.95761 0.0
H363 H 0.4975 0.50583 0.86169 0.0
H364 H 0.47614 0.44685 0.86386 0.0
H365 H 0.68975 0.73069 0.93654 0.0
H366 H 0.64386 0.60116 0.97391 0.0
N367 N 0.63081 0.62853 0.92012 0.0
C368 C 0.66392 0.69527 0.91563 0.0
C369 C 0.64983 0.67349 0.90577 0.0
C370 C 0.66185 0.6835 0.92779 0.0
C371 C 0.64487 0.64961 0.9298 0.0
C372 C 0.63358 0.64023 0.90815 0.0
N373 N 0.62709 0.60475 0.94336 0.0
C374 C 0.64311 0.63736 0.94173 0.0
C375 C 0.64347 0.61169 0.96497 0.0
C376 C 0.65878 0.64529 0.9636 0.0
C377 C 0.62801 0.59171 0.95466 0.0
C378 C 0.65905 0.65856 0.95186 0.0
H379 H 0.67096 0.66078 0.97158 0.0
O380 O 0.6253 0.54489 0.93185 0.0
O381 O 0.56285 0.5286 0.91686 0.0
O382 O 0.52195 0.53349 0.93355 0.0
O383 O 0.57296 0.57032 0.94161 0.0
O384 O 0.58043 0.52178 0.93349 0.0
O385 O 0.65139 0.58372 0.91855 0.0
O386 O 0.49593 0.559 0.90558 0.0
O387 O 0.56154 0.57925 0.92032 0.0
O388 O 0.60826 0.5721 0.9048 0.0
O389 O 0.55802 0.54198 0.89509 0.0
O390 O 0.54302 0.58379 0.90319 0.0
O391 O 0.47323 0.52028 0.91882 0.0
C392 C 0.5606 0.5072 0.92435 0.0
C393 C 0.67548 0.69222 0.94992 0.0
C394 C 0.67671 0.70465 0.93793 0.0
C395 C 0.65116 0.56037 0.92504 0.0
C396 C 0.68124 0.5651 0.93077 0.0
C397 C 0.6863 0.57003 0.94376 0.0
C398 C 0.70291 0.55994 0.92351 0.0
C399 C 0.7296 0.56019 0.92923 0.0
C400 C 0.71258 0.57003 0.94944 0.0
C401 C 0.73412 0.56513 0.94225 0.0
C402 C 0.54204 0.5491 0.94312 0.0
C403 C 0.5622 0.59948 0.91239 0.0
C404 C 0.46986 0.54104 0.91203 0.0
C405 C 0.4386 0.52979 0.90531 0.0
C406 C 0.43721 0.52344 0.89241 0.0
C407 C 0.41105 0.52806 0.91128 0.0
C408 C 0.38272 0.52049 0.90422 0.0
C409 C 0.41001 0.51678 0.88542 0.0
C410 C 0.38341 0.51589 0.89116 0.0
C411 C 0.59055 0.55939 0.89469 0.0
H412 H 0.66944 0.57276 0.94961 0.0
H413 H 0.69882 0.55538 0.91352 0.0
H414 H 0.71599 0.57335 0.95949 0.0
H415 H 0.75417 0.56477 0.94689 0.0
H416 H 0.45768 0.52483 0.88757 0.0
H417 H 0.41179 0.53266 0.92126 0.0
H418 H 0.40978 0.51286 0.8754 0.0
H419 H 0.3634 0.51191 0.88518 0.0
Gd420 Gd 0.5013 0.06251 0.92469 0.0
Gd421 Gd 0.54393 0.02161 0.91272 0.0
C422 C 0.65447 0.08178 0.90878 0.0
C423 C 0.66185 0.07915 0.88637 0.0
C424 C 0.60762 0.05271 0.89533 0.0
C425 C 0.62057 0.06317 0.9071 0.0
C426 C 0.62814 0.05989 0.88484 0.0
C427 C 0.67499 0.09012 0.89833 0.0
C428 C 0.66677 0.09105 0.92093 0.0
C429 C 0.64543 0.08164 0.93102 0.0
N430 N 0.6 0.05462 0.91697 0.0
C431 C 0.61206 0.06344 0.92887 0.0
H432 H 0.59629 0.05774 0.93677 0.0
C433 C 0.56158 0.01902 0.88307 0.0
N434 N 0.57502 0.03388 0.89423 0.0
C435 C 0.58082 0.02568 0.87235 0.0
C436 C 0.61424 0.04657 0.87321 0.0
H437 H 0.5358 1.00224 0.88245 0.0
H438 H 0.70104 0.10454 0.89942 0.0
H439 H 0.44876 0.02333 0.89919 0.0
H440 H 0.69261 0.10533 0.92261 0.0
H441 H 0.6546 0.08878 0.94048 0.0
H442 H 0.67798 0.0851 0.87841 0.0
H443 H 0.50597 0.07995 0.9556 0.0
H444 H 0.35272 0.98148 0.91246 0.0
H445 H 0.39161 0.99438 0.8952 0.0
H446 H 0.36351 1.00454 0.9562 0.0
H447 H 0.56993 0.01443 0.86348 0.0
H448 H 0.62916 0.05144 0.86493 0.0
H449 H 0.34261 0.98493 0.93506 0.0
H450 H 0.46952 0.06975 0.9733 0.0
N451 N 0.44528 0.03105 0.91893 0.0
C452 C 0.37848 0.99533 0.91438 0.0
C453 C 0.4003 1.0028 0.90462 0.0
C454 C 0.39007 1.00555 0.92652 0.0
C455 C 0.42395 0.02339 0.92861 0.0
C456 C 0.43347 0.02054 0.90702 0.0
N457 N 0.46819 0.05075 0.9426 0.0
C458 C 0.43571 0.03359 0.94068 0.0
C459 C 0.45964 0.05912 0.96423 0.0
C460 C 0.42634 0.04004 0.96259 0.0
C461 C 0.48022 0.06472 0.95408 0.0
C462 C 0.41394 0.02737 0.95072 0.0
H463 H 0.41037 0.0359 0.97046 0.0
O464 O 0.52722 0.10668 0.93558 0.0
O465 O 0.54939 0.06595 0.92149 0.0
O466 O 0.54221 0.01783 0.9344 0.0
O467 O 0.5144 0.04353 0.94153 0.0
O468 O 0.54276 0.10276 0.91424 0.0
O469 O 0.48806 0.10002 0.92258 0.0
O470 O 0.52507 0.97118 0.90702 0.0
O471 O 0.49754 0.01466 0.92071 0.0
O472 O 0.4987 0.06369 0.90405 0.0
O473 O 0.53411 0.04779 0.89566 0.0
O474 O 0.49554 0.9917 0.9038 0.0
O475 O 0.5604 0.99096 0.92165 0.0
C476 C 0.56291 0.09262 0.91569 0.0
C477 C 0.38046 1.00957 0.9486 0.0
C478 C 0.36857 0.99853 0.93655 0.0
C479 C 0.51062 0.11885 0.93055 0.0
C480 C 0.51594 0.15075 0.93431 0.0
C481 C 0.51896 0.15876 0.94709 0.0
C482 C 0.5202 0.17405 0.92525 0.0
C483 C 0.52789 0.20535 0.92909 0.0
C484 C 0.52595 0.18964 0.95087 0.0
C485 C 0.53052 0.21288 0.94193 0.0
C486 C 0.53004 0.0277 0.94355 0.0
C487 C 0.47862 0.99446 0.91265 0.0
C488 C 0.54271 0.96558 0.91477 0.0
C489 C 0.55838 0.94772 0.90968 0.0
C490 C 0.581 0.96146 0.89995 0.0
C491 C 0.55006 0.91638 0.91414 0.0
C492 C 0.56376 0.89888 0.90857 0.0
C493 C 0.59461 0.94439 0.8945 0.0
C494 C 0.58597 0.91337 0.8987 0.0
C495 C 0.51383 0.05979 0.89444 0.0
H496 H 0.51598 0.14112 0.95415 0.0
H497 H 0.51847 0.16822 0.91534 0.0
H498 H 0.52813 0.19567 0.96075 0.0
H499 H 0.53624 0.23688 0.94502 0.0
H500 H 0.58805 0.98535 0.89647 0.0
H501 H 0.53263 0.90545 0.92167 0.0
H502 H 0.6119 0.95522 0.88694 0.0
H503 H 0.59696 0.9007 0.89428 0.0
Gd504 Gd 0.14305 0.34151 0.42883 0.0
Gd505 Gd 0.22491 0.38668 0.44128 0.0
C506 C 0.27845 0.32922 0.44409 0.0
C507 C 0.28317 0.32536 0.4666 0.0
C508 C 0.2566 0.3536 0.45812 0.0
C509 C 0.26177 0.34642 0.4461 0.0
C510 C 0.26812 0.34396 0.46851 0.0
C511 C 0.28845 0.31813 0.4544 0.0
C512 C 0.28559 0.32463 0.4318 0.0
C513 C 0.27717 0.33805 0.42191 0.0
N514 N 0.25217 0.35789 0.43635 0.0
C515 C 0.26082 0.35502 0.42437 0.0
H516 H 0.25578 0.366 0.41659 0.0
C517 C 0.24299 0.38517 0.47114 0.0
N518 N 0.24273 0.37228 0.45961 0.0
C519 C 0.2536 0.3759 0.48175 0.0
C520 C 0.26564 0.35467 0.48047 0.0
H521 H 0.23431 0.40216 0.47213 0.0
H522 H 0.30102 0.30465 0.45303 0.0
H523 H 0.1259 0.37685 0.45462 0.0
H524 H 0.29833 0.31156 0.42988 0.0
H525 H 0.28342 0.33553 0.41237 0.0
H526 H 0.29182 0.31742 0.47448 0.0
H527 H 0.14283 0.3374 0.39702 0.0
H528 H 0.06947 0.41653 0.44164 0.0
H529 H 0.09385 0.40174 0.45893 0.0
H530 H 0.07091 0.40784 0.39719 0.0
H531 H 0.25278 0.3854 0.49089 0.0
H532 H 0.27422 0.34782 0.48868 0.0
H533 H 0.06151 0.41907 0.41876 0.0
H534 H 0.12259 0.35376 0.37924 0.0
N535 N 0.11806 0.37268 0.43467 0.0
C536 C 0.0831 0.40445 0.43958 0.0
C537 C 0.09651 0.39587 0.44934 0.0
C538 C 0.08814 0.39813 0.42725 0.0
C539 C 0.10619 0.38232 0.42502 0.0
C540 C 0.1141 0.38034 0.44674 0.0
N541 N 0.12926 0.36122 0.41084 0.0
C542 C 0.1121 0.37661 0.41282 0.0
C543 C 0.12032 0.3612 0.38859 0.0
C544 C 0.10396 0.37816 0.39045 0.0
C545 C 0.13246 0.35255 0.39887 0.0
C546 C 0.09923 0.38569 0.40264 0.0
H547 H 0.09415 0.38439 0.38245 0.0
O548 O 0.12055 0.30076 0.41589 0.0
O549 O 0.18824 0.33998 0.4332 0.0
O550 O 0.22457 0.39231 0.41958 0.0
O551 O 0.17756 0.34585 0.41377 0.0
O552 O 0.14472 0.30181 0.43967 0.0
O553 O 0.09292 0.30411 0.43185 0.0
O554 O 0.25446 0.43626 0.44813 0.0
O555 O 0.18501 0.39148 0.4324 0.0
O556 O 0.13706 0.33734 0.4494 0.0
O557 O 0.18879 0.36043 0.45827 0.0
O558 O 0.20296 0.41396 0.44975 0.0
O559 O 0.272 0.42011 0.43287 0.0
C560 C 0.17547 0.31329 0.43901 0.0
C561 C 0.08109 0.40099 0.40489 0.0
C562 C 0.0756 0.40724 0.41717 0.0
C563 C 0.09356 0.28751 0.42221 0.0
C564 C 0.0654 0.25678 0.41843 0.0
C565 C 0.05825 0.25014 0.40564 0.0
C566 C 0.04735 0.23283 0.42741 0.0
C567 C 0.02285 0.2021 0.42349 0.0
C568 C 0.03335 0.21986 0.40179 0.0
C569 C 1.01587 0.19586 0.41065 0.0
C570 C 0.20566 0.37106 0.41089 0.0
C571 C 0.18464 0.41118 0.44036 0.0
C572 C 0.27827 0.44403 0.44039 0.0
C573 C 0.3115 0.46243 0.4457 0.0
C574 C 0.31895 0.45149 0.45672 0.0
C575 C 0.33573 0.49155 0.44005 0.0
C576 C 0.3671 0.50906 0.44543 0.0
C577 C 0.3495 0.46905 0.46218 0.0
C578 C 0.37334 0.4975 0.45661 0.0
C579 C 0.15621 0.34456 0.45922 0.0
H580 H 0.07211 0.26832 0.39863 0.0
H581 H 0.05309 0.23763 0.43731 0.0
H582 H 0.02783 0.21486 0.39191 0.0
H583 H 0.99674 0.17236 0.4075 0.0
H584 H 0.30107 0.42943 0.46119 0.0
H585 H 0.33034 0.50025 0.43151 0.0
H586 H 0.35477 0.46055 0.47079 0.0
H587 H 0.39684 0.51065 0.46111 0.0
Gd588 Gd 0.73565 0.83286 0.42767 0.0
Gd589 Gd 0.69298 0.87153 0.44171 0.0
C590 C 0.74472 0.98271 0.44539 0.0
C591 C 0.74162 0.98969 0.46778 0.0
C592 C 0.71957 0.9355 0.45888 0.0
C593 C 0.7287 0.94866 0.44702 0.0
C594 C 0.72527 0.95589 0.46936 0.0
C595 C 0.75145 1.00307 0.45583 0.0
C596 C 0.75315 0.99541 0.4333 0.0
C597 C 0.74531 0.97442 0.42316 0.0
N598 N 0.72147 0.92828 0.43708 0.0
C599 C 0.72908 0.94097 0.42517 0.0
H600 H 0.724 0.92613 0.41697 0.0
C601 C 0.6905 0.8888 0.47144 0.0
N602 N 0.70364 0.90275 0.46012 0.0
C603 C 0.69572 0.90798 0.48209 0.0
C604 C 0.71349 0.94169 0.48107 0.0
H605 H 0.67598 0.86269 0.47219 0.0
H606 H 0.76376 0.02919 0.45472 0.0
H607 H 0.71297 0.78252 0.45351 0.0
H608 H 0.76544 0.02134 0.43168 0.0
H609 H 0.75172 0.98398 0.41373 0.0
H610 H 0.74632 1.00568 0.47573 0.0
H611 H 0.75116 0.83929 0.39712 0.0
H612 H 0.67906 0.68655 0.44071 0.0
H613 H 0.69394 0.72611 0.45796 0.0
H614 H 0.68808 0.69654 0.39616 0.0
H615 H 0.6857 0.89675 0.49104 0.0
H616 H 0.71724 0.95652 0.48931 0.0
H617 H 0.67584 0.67565 0.41771 0.0
H618 H 0.74139 0.80365 0.37881 0.0
N619 N 0.71154 0.77746 0.43345 0.0
C620 C 0.68813 0.7119 0.43856 0.0
C621 C 0.69672 0.73414 0.44831 0.0
C622 C 0.6921 0.72272 0.42617 0.0
C623 C 0.70439 0.7561 0.42386 0.0
C624 C 0.70812 0.76678 0.44561 0.0
N625 N 0.72567 0.80027 0.40985 0.0
C626 C 0.71141 0.76784 0.41171 0.0
C627 C 0.73244 0.79321 0.38796 0.0
C628 C 0.71625 0.75964 0.38958 0.0
C629 C 0.73763 0.81328 0.3983 0.0
C630 C 0.70617 0.74659 0.40159 0.0
H631 H 0.71271 0.7441 0.38159 0.0
O632 O 0.78334 0.85614 0.41929 0.0
O633 O 0.74029 0.87753 0.43623 0.0
O634 O 0.69276 0.87242 0.41985 0.0
O635 O 0.70432 0.83342 0.4122 0.0
O636 O 0.7633 0.88254 0.41924 0.0
O637 O 0.77351 0.82614 0.43588 0.0
O638 O 0.64362 0.85104 0.44864 0.0
O639 O 0.68774 0.82637 0.43324 0.0
O640 O 0.7419 0.83562 0.44845 0.0
O641 O 0.72177 0.86549 0.45829 0.0
O642 O 0.66443 0.82137 0.44995 0.0
O643 O 0.65836 0.88247 0.4326 0.0
C644 C 0.75975 0.89799 0.42849 0.0
C645 C 0.69242 0.71322 0.40382 0.0
C646 C 0.68546 0.70133 0.41609 0.0
C647 C 0.7949 0.84454 0.42759 0.0
C648 C 0.81704 0.83423 0.42294 0.0
C649 C 0.80901 0.81304 0.4127 0.0
C650 C 0.84778 0.84778 0.42841 0.0
C651 C 0.87085 0.84098 0.42343 0.0
C652 C 0.83201 0.80612 0.40775 0.0
C653 C 0.86295 0.82024 0.41302 0.0
C654 C 0.69572 0.85546 0.41046 0.0
C655 C 0.66823 0.80548 0.44092 0.0
C656 C 0.63511 0.86579 0.44052 0.0
C657 C 0.61693 0.88119 0.44553 0.0
C658 C 0.6284 0.90105 0.4562 0.0
C659 C 0.58744 0.87537 0.43999 0.0
C660 C 0.5701 0.8897 0.44512 0.0
C661 C 0.61103 0.91451 0.46144 0.0
C662 C 0.58217 0.90892 0.45598 0.0
C663 C 0.73745 0.84868 0.4586 0.0
H664 H 0.78527 0.80222 0.40846 0.0
H665 H 0.85401 0.86418 0.43635 0.0
H666 H 0.82591 0.78995 0.39979 0.0
H667 H 0.8806 0.81468 0.4091 0.0
H668 H 0.65068 0.90602 0.46062 0.0
H669 H 0.5783 0.86019 0.43171 0.0
H670 H 0.62 0.92939 0.46979 0.0
H671 H 0.56909 0.9196 0.4603 0.0
Gd672 Gd 0.2473 0.93566 0.43007 0.0
Gd673 Gd 0.209 0.85282 0.44193 0.0
C674 C 0.09854 0.80197 0.44677 0.0
C675 C 0.09239 0.79385 0.46927 0.0
C676 C 0.14618 0.82084 0.45988 0.0
C677 C 0.13257 0.81736 0.44816 0.0
C678 C 0.12616 0.80839 0.47055 0.0
C679 C 0.07861 0.7907 0.4574 0.0
C680 C 0.08549 0.79806 0.43472 0.0
C681 C 0.1062 0.80932 0.42444 0.0
N682 N 0.15254 0.8287 0.43809 0.0
C683 C 0.13968 0.82472 0.4263 0.0
H684 H 0.15484 0.83449 0.41825 0.0
C685 C 0.19279 0.83437 0.47196 0.0
N686 N 0.17889 0.83495 0.46079 0.0
C687 C 0.17402 0.82261 0.48282 0.0
C688 C 0.14059 0.80998 0.48215 0.0
H689 H 0.21859 0.84342 0.47247 0.0
H690 H 0.0525 0.77907 0.45651 0.0
H691 H 0.30033 0.94782 0.45471 0.0
H692 H 0.05955 0.78643 0.43327 0.0
H693 H 0.09645 0.80673 0.41506 0.0
H694 H 0.07668 0.7844 0.47738 0.0
H695 H 0.24282 0.94337 0.39853 0.0
H696 H 0.39351 0.0226 0.44397 0.0
H697 H 0.35583 0.98685 0.46024 0.0
H698 H 0.38383 0.0312 0.39981 0.0
H699 H 0.1853 0.82297 0.49168 0.0
H700 H 0.12605 0.80061 0.49056 0.0
H701 H 0.40391 0.03784 0.42143 0.0
H702 H 0.27914 0.97123 0.38103 0.0
N703 N 0.3029 0.96489 0.43603 0.0
C704 C 0.36825 1.00659 0.44164 0.0
C705 C 0.34705 0.98671 0.45086 0.0
C706 C 0.35708 1.00415 0.42935 0.0
C707 C 0.32386 0.98289 0.42676 0.0
C708 C 0.31469 0.96542 0.44781 0.0
N709 N 0.28069 0.95854 0.41222 0.0
C710 C 0.31263 0.97894 0.41452 0.0
C711 C 0.28901 0.97334 0.39035 0.0
C712 C 0.32207 0.9929 0.39247 0.0
C713 C 0.26854 0.95706 0.40039 0.0
C714 C 0.33418 0.99649 0.40466 0.0
H715 H 0.33789 1.00585 0.38468 0.0
O716 O 0.21929 0.95002 0.41835 0.0
O717 O 0.20038 0.89027 0.43367 0.0
O718 O 0.20872 0.84897 0.42035 0.0
O719 O 0.23446 0.90246 0.41336 0.0
O720 O 0.20624 0.93321 0.44121 0.0
O721 O 0.25744 0.98553 0.43098 0.0
O722 O 0.22792 0.82221 0.44839 0.0
O723 O 0.25387 0.89257 0.43279 0.0
O724 O 0.2504 0.94099 0.45111 0.0
O725 O 0.21853 0.88811 0.45891 0.0
O726 O 0.25988 0.87376 0.44916 0.0
O727 O 0.19266 0.80479 0.43365 0.0
C728 C 0.1866 0.90273 0.43981 0.0
C729 C 0.36703 0.01762 0.40726 0.0
C730 C 0.37842 0.02155 0.41957 0.0
C731 C 0.23497 0.97967 0.42267 0.0
C732 C 0.22792 1.0047 0.41839 0.0
C733 C 0.2208 1.00588 0.4057 0.0
C734 C 0.2284 0.0276 0.42687 0.0
C735 C 0.22178 0.05152 0.42259 0.0
C736 C 0.21458 0.02993 0.40145 0.0
C737 C 0.21507 0.05268 0.40984 0.0
C738 C 0.21946 0.87096 0.41123 0.0
C739 C 0.27523 0.89218 0.43977 0.0
C740 C 0.21062 0.7982 0.44085 0.0
C741 C 0.19605 0.76517 0.44633 0.0
C742 C 0.17952 0.75865 0.45778 0.0
C743 C 0.20019 0.74051 0.4406 0.0
C744 C 0.18763 0.70971 0.44638 0.0
C745 C 0.16806 0.72881 0.46367 0.0
C746 C 0.17213 0.70464 0.45808 0.0
C747 C 0.23673 0.92035 0.46049 0.0
H748 H 0.22046 0.98844 0.39906 0.0
H749 H 0.23361 0.02668 0.43672 0.0
H750 H 0.20936 0.03094 0.39164 0.0
H751 H 0.21004 0.07115 0.40642 0.0
H752 H 0.1758 0.77674 0.46231 0.0
H753 H 0.21276 0.74516 0.43171 0.0
H754 H 0.15593 0.72439 0.47264 0.0
H755 H 0.16307 0.68177 0.46295 0.0
Gd756 Gd 0.68579 0.80716 0.25765 0.0
Gd757 Gd 0.72532 0.89005 0.24488 0.0
C758 C 0.66505 0.94055 0.24166 0.0
C759 C 0.66024 0.94342 0.21911 0.0
C760 C 0.69119 0.92004 0.22787 0.0
C761 C 0.68381 0.9254 0.23986 0.0
C762 C 0.68042 0.93007 0.21737 0.0
C763 C 0.65246 0.94853 0.23124 0.0
C764 C 0.66051 0.94841 0.25385 0.0
C765 C 0.67565 0.94245 0.26382 0.0
N766 N 0.69666 0.91772 0.24974 0.0
C767 C 0.69394 0.92738 0.2616 0.0
H768 H 0.70561 0.92385 0.26957 0.0
C769 C 0.72317 0.90668 0.21495 0.0
N770 N 0.71085 0.90723 0.22649 0.0
C771 C 0.71322 0.91635 0.20426 0.0
C772 C 0.69128 0.92755 0.20545 0.0
H773 H 0.74021 0.89804 0.21404 0.0
H774 H 0.63765 0.95973 0.23246 0.0
H775 H 0.72748 0.79172 0.23512 0.0
H776 H 0.6463 0.96004 0.25561 0.0
H777 H 0.67319 0.94937 0.27326 0.0
H778 H 0.65137 0.95083 0.21115 0.0
H779 H 0.65854 0.79412 0.28692 0.0
H780 H 0.76529 0.73622 0.25133 0.0
H781 H 0.75711 0.7628 0.23294 0.0
H782 H 0.7297 0.72308 0.29397 0.0
H783 H 0.72251 0.91522 0.19513 0.0
H784 H 0.68372 0.93518 0.19717 0.0
H785 H 0.75509 0.72172 0.27406 0.0
H786 H 0.66231 0.76695 0.30612 0.0
N787 N 0.71721 0.78172 0.25459 0.0
C788 C 0.75174 0.7488 0.25235 0.0
C789 C 0.747 0.76354 0.24195 0.0
C790 C 0.7387 0.75026 0.26392 0.0
C791 C 0.72143 0.76719 0.26478 0.0
C792 C 0.72937 0.77957 0.24322 0.0
N793 N 0.69041 0.78406 0.2764 0.0
C794 C 0.70761 0.76839 0.27601 0.0
C795 C 0.67536 0.76738 0.29774 0.0
C796 C 0.69394 0.75215 0.29764 0.0
C797 C 0.67339 0.78283 0.28691 0.0
C798 C 0.71001 0.75214 0.28665 0.0
H799 H 0.69516 0.73988 0.306 0.0
O800 O 0.63457 0.78072 0.26187 0.0
O801 O 0.67981 0.84719 0.2501 0.0
O802 O 0.72365 0.88819 0.26679 0.0
O803 O 0.7135 0.83759 0.27405 0.0
O804 O 0.65475 0.82586 0.26634 0.0
O805 O 0.65419 0.7608 0.24853 0.0
O806 O 0.77552 0.91827 0.23897 0.0
O807 O 0.73295 0.85111 0.25274 0.0
O808 O 0.68733 0.80508 0.23658 0.0
O809 O 0.69463 0.85404 0.22879 0.0
O810 O 0.7556 0.87187 0.23586 0.0
O811 O 0.75794 0.93828 0.25288 0.0
C812 C 0.65985 0.84713 0.25783 0.0
C813 C 0.72754 0.73567 0.28589 0.0
C814 C 0.74194 0.73483 0.27456 0.0
C815 C 0.62843 0.75676 0.25441 0.0
C816 C 0.60616 0.72471 0.25951 0.0
C817 C 0.61603 0.71112 0.26897 0.0
C818 C 0.57361 0.70909 0.25572 0.0
C819 C 0.55079 0.68013 0.26151 0.0
C820 C 0.59343 0.68235 0.27475 0.0
C821 C 0.56098 0.66696 0.2711 0.0
C822 C 0.72121 0.86798 0.27599 0.0
C823 C 0.7532 0.8523 0.24473 0.0
C824 C 0.78256 0.94329 0.24599 0.0
C825 C 0.80187 0.97541 0.23984 0.0
C826 C 0.79512 0.97896 0.22733 0.0
C827 C 0.82879 1.00171 0.24588 0.0
C828 C 0.84858 0.03109 0.23931 0.0
C829 C 0.81489 1.00727 0.22076 0.0
C830 C 0.84146 0.03288 0.2266 0.0
C831 C 0.68605 0.82274 0.22732 0.0
H832 H 0.64098 0.72287 0.27199 0.0
H833 H 0.56593 0.71989 0.24852 0.0
H834 H 0.60106 0.67199 0.28211 0.0
H835 H 0.54393 0.64443 0.27562 0.0
H836 H 0.77505 0.95943 0.22246 0.0
H837 H 0.83419 0.9993 0.25556 0.0
H838 H 0.80978 1.00926 0.21101 0.0
H839 H 0.85666 0.0542 0.22104 0.0
Gd840 Gd 0.27517 0.91025 0.2577 0.0
Gd841 Gd 0.192 0.86833 0.24609 0.0
C842 C 0.13732 0.7576 0.24252 0.0
C843 C 0.12745 0.74987 0.2201 0.0
C844 C 0.15811 0.80432 0.22884 0.0
C845 C 0.15487 0.79152 0.2407 0.0
C846 C 0.14396 0.78364 0.21842 0.0
C847 C 0.12384 0.7369 0.23215 0.0
C848 C 0.13299 0.74552 0.25474 0.0
C849 C 0.14618 0.76703 0.26476 0.0
N850 N 0.16759 0.81225 0.25052 0.0
C851 C 0.16336 0.80039 0.26249 0.0
H852 H 0.17364 0.81621 0.27042 0.0
C853 C 0.17207 0.85047 0.21641 0.0
N854 N 0.17299 0.83701 0.22763 0.0
C855 C 0.15914 0.83108 0.20574 0.0
C856 C 0.14539 0.79751 0.20671 0.0
H857 H 0.18179 0.87638 0.21572 0.0
H858 H 0.1101 0.71082 0.23337 0.0
H859 H 0.28546 0.96176 0.23198 0.0
H860 H 0.11925 0.7197 0.25654 0.0
H861 H 0.14314 0.75797 0.27426 0.0
H862 H 0.11645 0.73361 0.21221 0.0
H863 H 0.28959 0.9072 0.28841 0.0
H864 H 0.34763 0.05822 0.24379 0.0
H865 H 0.31554 0.0186 0.22739 0.0
H866 H 0.3672 0.04965 0.28699 0.0
H867 H 0.1593 0.84198 0.19682 0.0
H868 H 0.13485 0.78245 0.19847 0.0
H869 H 0.36648 0.06945 0.26585 0.0
H870 H 0.32059 0.94441 0.30539 0.0
N871 N 0.30062 0.96606 0.25134 0.0
C872 C 0.33455 0.03259 0.24601 0.0
C873 C 0.31667 1.01033 0.23673 0.0
C874 C 0.33503 0.02165 0.25809 0.0
C875 C 0.31737 0.98793 0.2606 0.0
C876 C 0.29991 0.97731 0.2395 0.0
N877 N 0.29965 0.94462 0.27506 0.0
C878 C 0.31698 0.97691 0.2727 0.0
C879 C 0.31957 0.95397 0.2963 0.0
C880 C 0.33617 0.98723 0.29421 0.0
C881 C 0.30187 0.93295 0.28656 0.0
C882 C 0.33533 0.9991 0.28231 0.0
H883 H 0.3501 1.00352 0.30176 0.0
O884 O 0.29173 0.88315 0.26867 0.0
O885 O 0.23027 0.86205 0.25479 0.0
O886 O 0.19039 0.8707 0.26782 0.0
O887 O 0.24401 0.89923 0.27468 0.0
O888 O 0.27326 0.86838 0.24717 0.0
O889 O 0.32552 0.92182 0.25582 0.0
O890 O 0.16081 0.88731 0.24011 0.0
O891 O 0.23131 0.91493 0.25419 0.0
O892 O 0.27877 0.91313 0.23716 0.0
O893 O 0.22772 0.87684 0.22898 0.0
O894 O 0.21128 0.91643 0.23703 0.0
O895 O 0.14513 0.85285 0.25503 0.0
C896 C 0.2431 0.84823 0.24892 0.0
C897 C 0.35301 0.03238 0.27973 0.0
C898 C 0.35272 0.04362 0.26768 0.0
C899 C 0.32079 0.89908 0.26385 0.0
C900 C 0.3464 0.89249 0.26786 0.0
C901 C 0.34739 0.88422 0.28042 0.0
C902 C 0.36883 0.89271 0.2592 0.0
C903 C 0.3918 0.88431 0.26318 0.0
C904 C 0.37053 0.87642 0.28437 0.0
C905 C 0.39258 0.87637 0.2758 0.0
C906 C 0.21263 0.88339 0.27688 0.0
C907 C 0.22984 0.93371 0.2461 0.0
C908 C 0.13763 0.8703 0.24796 0.0
C909 C 0.10406 0.85462 0.24294 0.0
C910 C 0.09496 0.83195 0.23317 0.0
C911 C 0.08121 0.86302 0.24752 0.0
C912 C 0.04997 0.84931 0.24205 0.0
C913 C 0.0642 0.81836 0.22782 0.0
C914 C 0.04199 0.82709 0.23214 0.0
C915 C 0.25994 0.89709 0.22765 0.0
H916 H 0.33021 0.88378 0.2872 0.0
H917 H 0.36791 0.89851 0.24943 0.0
H918 H 0.37122 0.87015 0.29407 0.0
H919 H 0.41023 0.86993 0.27899 0.0
H920 H 0.1117 0.8249 0.22957 0.0
H921 H 0.08789 0.88053 0.25506 0.0
H922 H 0.0576 0.80108 0.22021 0.0
H923 H 0.01829 0.81624 0.22778 0.0
Gd924 Gd 0.17089 0.39939 0.25708 0.0
Gd925 Gd 0.20816 0.35333 0.24564 0.0
C926 C 0.31879 0.4139 0.24249 0.0
C927 C 0.32708 0.41498 0.22 0.0
C928 C 0.27256 0.38573 0.22866 0.0
C929 C 0.28499 0.39484 0.2406 0.0
C930 C 0.29356 0.39481 0.21824 0.0
C931 C 0.33966 0.42458 0.23211 0.0
C932 C 0.33067 0.42098 0.25477 0.0
C933 C 0.30911 0.40832 0.26478 0.0
N934 N 0.26413 0.38406 0.25042 0.0
C935 C 0.27586 0.38961 0.26243 0.0
H936 H 0.25999 0.37972 0.27033 0.0
C937 C 0.22751 0.35188 0.21595 0.0
N938 N 0.24011 0.36616 0.2273 0.0
C939 C 0.24727 0.36031 0.20532 0.0
C940 C 0.28038 0.38234 0.20643 0.0
H941 H 0.20192 0.3345 0.21511 0.0
H942 H 0.36562 0.43954 0.23337 0.0
H943 H 0.11515 0.36846 0.23219 0.0
H944 H 0.35642 0.43553 0.25661 0.0
H945 H 0.31804 0.41295 0.27433 0.0
H946 H 0.34354 0.42253 0.21209 0.0
H947 H 0.17869 0.41573 0.28827 0.0
H948 H 0.02114 0.31689 0.2476 0.0
H949 H 0.0577 0.33648 0.22938 0.0
H950 H 0.03728 0.3325 0.29168 0.0
H951 H 0.23699 0.34966 0.19631 0.0
H952 H 0.2957 0.38866 0.1982 0.0
H953 H 1.01384 0.31554 0.27066 0.0
H954 H 0.14475 0.40033 0.30698 0.0
N955 N 0.11423 0.36806 0.25246 0.0
C956 C 0.04707 0.33118 0.24907 0.0
C957 C 0.06758 0.34231 0.23879 0.0
C958 C 0.06014 0.33913 0.26113 0.0
C959 C 0.09421 0.35767 0.2626 0.0
C960 C 0.10097 0.36101 0.2406 0.0
N961 N 0.14013 0.38508 0.27578 0.0
C962 C 0.10748 0.3665 0.27453 0.0
C963 C 0.13397 0.39013 0.29796 0.0
C964 C 0.10069 0.36958 0.29694 0.0
C965 C 0.15326 0.39822 0.28725 0.0
C966 C 0.08695 0.35798 0.28513 0.0
H967 H 0.08569 0.36375 0.30524 0.0
O968 O 0.19346 0.44487 0.26716 0.0
O969 O 0.21747 0.39993 0.25354 0.0
O970 O 0.20223 0.34869 0.26732 0.0
O971 O 0.19758 0.39323 0.27309 0.0
O972 O 0.21278 0.43764 0.24614 0.0
O973 O 0.15715 0.43544 0.2527 0.0
O974 O 0.18829 0.30311 0.23962 0.0
O975 O 0.1631 0.34952 0.25369 0.0
O976 O 0.16756 0.39911 0.23634 0.0
O977 O 0.20047 0.37984 0.22836 0.0
O978 O 0.15926 0.32551 0.23684 0.0
O979 O 0.22322 0.32148 0.25448 0.0
C980 C 0.23186 0.42615 0.24748 0.0
C981 C 0.05328 0.33922 0.28364 0.0
C982 C 0.03994 0.32966 0.27168 0.0
C983 C 0.17846 0.45632 0.26053 0.0
C984 C 0.17291 0.48092 0.26616 0.0
C985 C 0.15568 0.47558 0.27737 0.0
C986 C 0.1873 0.51135 0.26039 0.0
C987 C 0.18515 0.53686 0.26591 0.0
C988 C 0.15328 0.50095 0.28288 0.0
C989 C 0.16812 0.53155 0.27724 0.0
C990 C 0.2024 0.36913 0.27595 0.0
C991 C 0.14328 0.32961 0.24575 0.0
C992 C 0.20536 0.29667 0.24736 0.0
C993 C 0.22046 0.27838 0.24221 0.0
C994 C 0.24019 0.28985 0.23153 0.0
C995 C 0.21463 0.24887 0.24773 0.0
C996 C 0.22856 0.23131 0.2425 0.0
C997 C 0.25347 0.27226 0.22626 0.0
C998 C 0.24776 0.24325 0.2317 0.0
C999 C 0.18227 0.39396 0.22693 0.0
H1000 H 0.14442 0.45208 0.28187 0.0
H1001 H 0.20077 0.51539 0.25173 0.0
H1002 H 0.13999 0.49695 0.29154 0.0
H1003 H 0.16584 0.55091 0.28159 0.0
H1004 H 0.24531 0.31237 0.22721 0.0
H1005 H 0.19962 0.23979 0.25603 0.0
H1006 H 0.26839 0.28123 0.21794 0.0
H1007 H 0.25849 0.23008 0.22749 0.0
Gd1008 Gd 0.80947 0.67674 0.76319 0.0
Gd1009 Gd 0.89334 0.71871 0.77475 0.0
C1010 C 0.94395 0.65872 0.77886 0.0
C1011 C 0.94934 0.65728 0.80146 0.0
C1012 C 0.92439 0.68632 0.7923 0.0
C1013 C 0.92866 0.67739 0.78047 0.0
C1014 C 0.93563 0.67725 0.80293 0.0
C1015 C 0.95348 0.64801 0.78943 0.0
C1016 C 0.95006 0.65217 0.76669 0.0
C1017 C 0.94183 0.66495 0.75652 0.0
N1018 N 0.91924 0.68827 0.77049 0.0
C1019 C 0.92665 0.68321 0.7586 0.0
H1020 H 0.92113 0.6931 0.7506 0.0
C1021 C 0.91209 0.72003 0.80463 0.0
N1022 N 0.91134 0.70584 0.79336 0.0
C1023 C 0.92271 0.71159 0.81546 0.0
C1024 C 0.93399 0.68963 0.81464 0.0
H1025 H 0.90362 0.73726 0.80525 0.0
H1026 H 0.96496 0.6334 0.7884 0.0
H1027 H 0.79618 0.71544 0.78873 0.0
H1028 H 0.96172 0.63793 0.76506 0.0
H1029 H 0.94707 0.66069 0.74705 0.0
H1030 H 0.95775 0.64972 0.80952 0.0
H1031 H 0.79758 0.66053 0.73197 0.0
H1032 H 0.74088 0.75657 0.77574 0.0
H1033 H 0.768 0.74454 0.79282 0.0
H1034 H 0.72851 0.73403 0.73195 0.0
H1035 H 0.92236 0.72217 0.82441 0.0
H1036 H 0.94244 0.6833 0.82303 0.0
H1037 H 0.72633 0.75247 0.75322 0.0
H1038 H 0.77304 0.67271 0.71423 0.0
N1039 N 0.78536 0.70856 0.76892 0.0
C1040 C 0.75323 0.74316 0.77372 0.0
C1041 C 0.76834 0.73629 0.78338 0.0
C1042 C 0.7544 0.73293 0.76156 0.0
C1043 C 0.77103 0.71568 0.75934 0.0
C1044 C 0.7841 0.71887 0.78088 0.0
N1045 N 0.7887 0.68919 0.7452 0.0
C1046 C 0.77282 0.70584 0.74722 0.0
C1047 C 0.77319 0.6826 0.7234 0.0
C1048 C 0.75806 0.70081 0.72522 0.0
C1049 C 0.78771 0.67634 0.73354 0.0
C1050 C 0.75725 0.71222 0.73723 0.0
H1051 H 0.74633 0.7052 0.71737 0.0
O1052 O 0.78683 0.63127 0.75305 0.0
O1053 O 0.85494 0.67437 0.76594 0.0
O1054 O 0.89405 0.72181 0.75311 0.0
O1055 O 0.84078 0.69037 0.74609 0.0
O1056 O 0.81208 0.63579 0.77256 0.0
O1057 O 0.75977 0.64053 0.76757 0.0
O1058 O 0.92311 0.76913 0.78063 0.0
O1059 O 0.85335 0.72533 0.76694 0.0
O1060 O 0.80652 0.67569 0.78401 0.0
O1061 O 0.85822 0.68984 0.79143 0.0
O1062 O 0.8736 0.74699 0.78406 0.0
O1063 O 0.94043 0.75063 0.7661 0.0
C1064 C 0.84248 0.64695 0.77115 0.0
C1065 C 0.74065 0.7291 0.7395 0.0
C1066 C 0.73931 0.73949 0.75161 0.0
C1067 C 0.76036 0.61967 0.75972 0.0
C1068 C 0.73017 0.59463 0.75418 0.0
C1069 C 0.7185 0.59943 0.74281 0.0
C1070 C 0.71386 0.56439 0.76016 0.0
C1071 C 0.68635 0.53865 0.75463 0.0
C1072 C 0.69097 0.5739 0.7373 0.0
C1073 C 0.67505 0.54361 0.74312 0.0
C1074 C 0.87203 0.70842 0.74404 0.0
C1075 C 0.85476 0.74553 0.77507 0.0
C1076 C 0.94684 0.77559 0.77303 0.0
C1077 C 0.97996 0.79438 0.7783 0.0
C1078 C 0.98809 0.78355 0.7892 0.0
C1079 C 1.00346 0.82378 0.77268 0.0
C1080 C 0.03471 0.84188 0.77801 0.0
C1081 C 0.01876 0.80167 0.79455 0.0
C1082 C 0.04192 0.83056 0.789 0.0
C1083 C 0.82626 0.67792 0.79308 0.0
H1084 H 0.73062 0.62263 0.73816 0.0
H1085 H 0.72303 0.56067 0.76895 0.0
H1086 H 0.68199 0.57755 0.72849 0.0
H1087 H 0.65361 0.52415 0.73873 0.0
H1088 H 0.97071 0.76116 0.79362 0.0
H1089 H 0.99756 0.83238 0.76423 0.0
H1090 H 0.02466 0.79321 0.80303 0.0
H1091 H 0.06566 0.84414 0.79329 0.0
Gd1092 Gd 0.40133 0.16266 0.76416 0.0
Gd1093 Gd 0.35893 0.20545 0.77418 0.0
C1094 C 0.42055 0.31594 0.77729 0.0
C1095 C 0.41945 0.32473 0.79967 0.0
C1096 C 0.39086 0.26992 0.79112 0.0
C1097 C 0.40105 0.28215 0.77918 0.0
C1098 C 0.39934 0.29121 0.80146 0.0
C1099 C 0.43012 0.33705 0.78762 0.0
C1100 C 0.42952 0.3276 0.76507 0.0
C1101 C 0.41859 0.30584 0.75506 0.0
N1102 N 0.39151 0.26113 0.76938 0.0
C1103 C 0.39943 0.27261 0.75737 0.0
H1104 H 0.39164 0.25657 0.74944 0.0
C1105 C 0.35756 0.22492 0.80396 0.0
N1106 N 0.37154 0.2374 0.79257 0.0
C1107 C 0.36532 0.24504 0.81448 0.0
C1108 C 0.38664 0.27828 0.81326 0.0
H1109 H 0.34054 0.19924 0.80488 0.0
H1110 H 0.44528 0.363 0.78635 0.0
H1111 H 0.36165 0.11255 0.79005 0.0
H1112 H 0.44453 0.35333 0.76325 0.0
H1113 H 0.4251 0.31459 0.74554 0.0
H1114 H 0.42641 0.34139 0.80753 0.0
H1115 H 0.42021 0.16418 0.73366 0.0
H1116 H 0.32047 0.01513 0.77812 0.0
H1117 H 0.33223 0.05564 0.7947 0.0
H1118 H 0.34481 0.02196 0.73455 0.0
H1119 H 0.35465 0.23492 0.8235 0.0
H1120 H 0.39248 0.29386 0.82142 0.0
H1121 H 0.32528 1.00293 0.75586 0.0
H1122 H 0.40858 0.12659 0.71621 0.0
N1123 N 0.36911 0.10711 0.77042 0.0
C1124 C 0.33403 0.04073 0.77586 0.0
C1125 C 0.34078 0.06347 0.78524 0.0
C1126 C 0.34465 0.05118 0.76366 0.0
C1127 C 0.36208 0.08488 0.76112 0.0
C1128 C 0.35843 0.09646 0.78242 0.0
N1129 N 0.38935 0.1279 0.74669 0.0
C1130 C 0.37238 0.09555 0.74898 0.0
C1131 C 0.39758 0.11747 0.72528 0.0
C1132 C 0.37884 0.08427 0.72731 0.0
C1133 C 0.40326 0.13888 0.73517 0.0
C1134 C 0.36649 0.07289 0.73929 0.0
H1135 H 0.37498 0.06762 0.71969 0.0
O1136 O 0.4473 0.18593 0.75443 0.0
O1137 O 0.40388 0.21082 0.76616 0.0
O1138 O 0.35596 0.20104 0.75258 0.0
O1139 O 0.3899 0.1811 0.74668 0.0
O1140 O 0.44109 0.20585 0.774 0.0
O1141 O 0.43753 0.14921 0.76875 0.0
O1142 O 0.30708 0.18325 0.77781 0.0
O1143 O 0.35267 0.15839 0.76701 0.0
O1144 O 0.40165 0.16211 0.785 0.0
O1145 O 0.38616 0.19947 0.7915 0.0
O1146 O 0.3299 0.1581 0.78378 0.0
O1147 O 0.33015 0.22586 0.76652 0.0
C1148 C 0.43062 0.22547 0.77192 0.0
C1149 C 0.34938 0.03958 0.74186 0.0
C1150 C 0.33839 0.02876 0.754 0.0
C1151 C 0.45873 0.17099 0.76114 0.0
C1152 C 0.48397 0.166 0.75567 0.0
C1153 C 0.47851 0.14727 0.74485 0.0
C1154 C 0.51488 0.18215 0.76114 0.0
C1155 C 0.54056 0.18022 0.75562 0.0
C1156 C 0.50403 0.14541 0.73929 0.0
C1157 C 0.53493 0.16189 0.74459 0.0
C1158 C 0.37135 0.19353 0.74394 0.0
C1159 C 0.33216 0.14021 0.77515 0.0
C1160 C 0.3031 0.20447 0.77164 0.0
C1161 C 0.28301 0.21628 0.77789 0.0
C1162 C 0.2907 0.2284 0.79015 0.0
C1163 C 0.25525 0.21418 0.77202 0.0
C1164 C 0.23587 0.22445 0.7785 0.0
C1165 C 0.27131 0.23761 0.79665 0.0
C1166 C 0.24412 0.23555 0.79094 0.0
C1167 C 0.39814 0.17968 0.79374 0.0
H1168 H 0.45477 0.13418 0.74068 0.0
H1169 H 0.51908 0.19663 0.76954 0.0
H1170 H 0.49984 0.13107 0.73089 0.0
H1171 H 0.55429 0.15972 0.74023 0.0
H1172 H 0.31153 0.23039 0.7948 0.0
H1173 H 0.24903 0.20502 0.76252 0.0
H1174 H 0.27737 0.24637 0.8062 0.0
H1175 H 0.22939 0.24266 0.79633 0.0
Gd1176 Gd 0.91442 0.26984 0.76324 0.0
Gd1177 Gd 0.87436 0.18605 0.77469 0.0
C1178 C 0.76391 0.13559 0.77898 0.0
C1179 C 0.75694 0.12502 0.80135 0.0
C1180 C 0.81099 0.15262 0.79223 0.0
C1181 C 0.79783 0.15051 0.78052 0.0
C1182 C 0.79066 0.13925 0.80276 0.0
C1183 C 0.7436 0.12326 0.78948 0.0
C1184 C 0.75139 0.13329 0.76692 0.0
C1185 C 0.77252 0.14557 0.75677 0.0
N1186 N 0.81819 0.16283 0.77061 0.0
C1187 C 0.80591 0.16035 0.7588 0.0
H1188 H 0.82151 0.17084 0.75087 0.0
C1189 C 0.85727 0.16507 0.80435 0.0
N1190 N 0.84362 0.16645 0.79324 0.0
C1191 C 0.83818 0.15236 0.81509 0.0
C1192 C 0.80475 0.13976 0.81433 0.0
H1193 H 0.88307 0.1742 0.8049 0.0
H1194 H 0.71754 0.11192 0.78848 0.0
H1195 H 0.96739 0.28856 0.78886 0.0
H1196 H 0.72553 0.12209 0.76535 0.0
H1197 H 0.76317 0.14417 0.7474 0.0
H1198 H 0.74095 0.11483 0.80935 0.0
H1199 H 0.90942 0.28156 0.73223 0.0
H1200 H 0.06326 0.34102 0.77531 0.0
H1201 H 0.02458 0.31709 0.79276 0.0
H1202 H 0.05184 0.34846 0.73129 0.0
H1203 H 0.84923 0.15201 0.82392 0.0
H1204 H 0.78997 0.12969 0.82264 0.0
H1205 H 0.07307 0.352 0.75253 0.0
H1206 H 0.94552 0.30618 0.71432 0.0
N1207 N 0.97059 0.29675 0.76895 0.0
C1208 C 0.03747 0.32873 0.77342 0.0
C1209 C 1.01576 0.31551 0.78328 0.0
C1210 C 0.02573 0.32591 0.76123 0.0
C1211 C 0.99181 0.30948 0.7592 0.0
C1212 C 0.98254 0.29961 0.78091 0.0
N1213 N 0.94742 0.2913 0.74527 0.0
C1214 C 0.97992 0.30678 0.7471 0.0
C1215 C 0.95558 0.30634 0.72344 0.0
C1216 C 0.9889 0.32056 0.72501 0.0
C1217 C 0.9352 0.29236 0.73372 0.0
C1218 C 1.00151 0.3214 0.73694 0.0
H1219 H 1.00472 0.33157 0.71703 0.0
O1220 O 0.88502 0.28278 0.75202 0.0
O1221 O 0.86714 0.22439 0.76642 0.0
O1222 O 0.87522 0.18359 0.75314 0.0
O1223 O 0.90331 0.23731 0.74643 0.0
O1224 O 0.87329 0.26723 0.77433 0.0
O1225 O 0.92473 0.32019 0.76356 0.0
O1226 O 0.89505 0.15596 0.78001 0.0
O1227 O 0.91987 0.22671 0.76668 0.0
O1228 O 0.91627 0.27404 0.7843 0.0
O1229 O 0.88351 0.22074 0.79183 0.0
O1230 O 0.92351 0.20617 0.78333 0.0
O1231 O 0.85816 0.13877 0.76592 0.0
C1232 C 0.85341 0.23687 0.77261 0.0
C1233 C 0.03502 0.33728 0.73899 0.0
C1234 C 0.04709 0.3394 0.75108 0.0
C1235 C 0.90061 0.31287 0.75584 0.0
C1236 C 0.89204 0.33652 0.75102 0.0
C1237 C 0.87674 0.33103 0.73928 0.0
C1238 C 0.89752 0.36365 0.75819 0.0
C1239 C 0.8881 0.38529 0.75349 0.0
C1240 C 0.86734 0.35245 0.73466 0.0
C1241 C 0.87304 0.37948 0.7417 0.0
C1242 C 0.88763 0.20587 0.74417 0.0
C1243 C 0.93964 0.22642 0.77453 0.0
C1244 C 0.87711 0.1322 0.77249 0.0
C1245 C 0.86303 0.09899 0.77769 0.0
C1246 C 0.84311 0.09022 0.78832 0.0
C1247 C 0.87003 0.076 0.77223 0.0
C1248 C 0.85705 0.04467 0.77747 0.0
C1249 C 0.83073 0.05949 0.7936 0.0
C1250 C 0.83759 0.03687 0.78823 0.0
C1251 C 0.90198 0.25299 0.79354 0.0
H1252 H 0.87203 0.31015 0.73365 0.0
H1253 H 0.90891 0.3679 0.76734 0.0
H1254 H 0.85555 0.34806 0.72562 0.0
H1255 H 0.86546 0.39583 0.73798 0.0
H1256 H 0.83711 0.10709 0.79259 0.0
H1257 H 0.88521 0.08234 0.76396 0.0
H1258 H 0.8156 0.05312 0.80187 0.0
H1259 H 0.82751 0.01305 0.79243 0.0
Gd1260 Gd 0.35017 0.13819 0.58971 0.0
Gd1261 Gd 0.39015 0.22327 0.57919 0.0
C1262 C 0.32925 0.27214 0.57361 0.0
C1263 C 0.33459 0.28298 0.55126 0.0
C1264 C 0.36066 0.25543 0.56087 0.0
C1265 C 0.34851 0.25732 0.57247 0.0
C1266 C 0.35424 0.26882 0.55018 0.0
C1267 C 0.32205 0.28453 0.56293 0.0
C1268 C 0.31822 0.27464 0.58548 0.0
C1269 C 0.32696 0.26319 0.5959 0.0
N1270 N 0.35609 0.24542 0.58268 0.0
C1271 C 0.34617 0.2489 0.59433 0.0
H1272 H 0.3521 0.24012 0.60251 0.0
C1273 C 0.39473 0.24255 0.54902 0.0
N1274 N 0.37977 0.24175 0.5601 0.0
C1275 C 0.38893 0.25539 0.5382 0.0
C1276 C 0.3684 0.26836 0.53876 0.0
H1277 H 0.41078 0.23265 0.54852 0.0
H1278 H 0.30726 0.29589 0.56365 0.0
H1279 H 0.38671 0.12245 0.56422 0.0
H1280 H 0.30331 0.28573 0.58672 0.0
H1281 H 0.31878 0.26516 0.60516 0.0
H1282 H 0.32936 0.29326 0.54314 0.0
H1283 H 0.33124 0.12412 0.62063 0.0
H1284 H 0.43464 0.07434 0.57804 0.0
H1285 H 0.41876 0.09716 0.56053 0.0
H1286 H 0.41307 0.06383 0.62189 0.0
H1287 H 0.40045 0.25544 0.52944 0.0
H1288 H 0.36413 0.27851 0.53037 0.0
H1289 H 0.4326 0.06234 0.60076 0.0
H1290 H 0.34433 0.10087 0.63865 0.0
N1291 N 0.38247 0.11466 0.58422 0.0
C1292 C 0.42003 0.08549 0.57988 0.0
C1293 C 0.41098 0.09817 0.56998 0.0
C1294 C 0.40999 0.08713 0.59202 0.0
C1295 C 0.39108 0.1021 0.594 0.0
C1296 C 0.39201 0.11239 0.57226 0.0
N1297 N 0.36221 0.11761 0.60784 0.0
C1298 C 0.3807 0.10361 0.60606 0.0
C1299 C 0.35509 0.10185 0.6296 0.0
C1300 C 0.37551 0.08906 0.62807 0.0
C1301 C 0.34806 0.11535 0.61932 0.0
C1302 C 0.38813 0.0893 0.61621 0.0
H1303 H 0.38063 0.07822 0.63604 0.0
O1304 O 0.30403 0.1154 0.59937 0.0
O1305 O 0.34626 0.18318 0.58771 0.0
O1306 O 0.38883 0.22282 0.60076 0.0
O1307 O 0.36664 0.16898 0.6071 0.0
O1308 O 0.3094 0.14011 0.58015 0.0
O1309 O 0.31484 0.08797 0.58552 0.0
O1310 O 0.44293 0.25119 0.5813 0.0
O1311 O 0.39754 0.18287 0.58574 0.0
O1312 O 0.34996 0.13695 0.56874 0.0
O1313 O 0.3634 0.18922 0.56206 0.0
O1314 O 0.42064 0.2066 0.56923 0.0
O1315 O 0.41605 0.27567 0.58284 0.0
C1316 C 0.31931 0.17014 0.58209 0.0
C1317 C 0.40713 0.07482 0.6142 0.0
C1318 C 0.41814 0.07386 0.60216 0.0
C1319 C 0.29323 0.08855 0.59293 0.0
C1320 C 0.26837 0.05839 0.5986 0.0
C1321 C 0.27435 0.04595 0.60953 0.0
C1322 C 0.23738 0.04266 0.59317 0.0
C1323 C 0.21213 0.01491 0.5988 0.0
C1324 C 0.2493 0.01842 0.61519 0.0
C1325 C 0.21834 1.00304 0.60991 0.0
C1326 C 0.37976 0.20014 0.60954 0.0
C1327 C 0.41783 0.1853 0.57746 0.0
C1328 C 0.4448 0.27909 0.58267 0.0
C1329 C 0.46977 0.30619 0.57503 0.0
C1330 C 0.46957 0.30248 0.562 0.0
C1331 C 0.4942 0.33545 0.58056 0.0
C1332 C 0.51762 0.36081 0.57293 0.0
C1333 C 0.49225 0.32723 0.55447 0.0
C1334 C 0.51605 0.356 0.55984 0.0
C1335 C 0.35245 0.15756 0.55996 0.0
H1336 H 0.29816 0.05738 0.61368 0.0
H1337 H 0.23278 0.05234 0.5847 0.0
H1338 H 0.2539 1.00891 0.62367 0.0
H1339 H 0.19939 0.98143 0.61438 0.0
H1340 H 0.45222 0.2801 0.55765 0.0
H1341 H 0.49479 0.33851 0.59065 0.0
H1342 H 0.49165 0.32392 0.54441 0.0
H1343 H 0.53377 0.37434 0.55367 0.0
Gd1344 Gd 0.94228 0.24305 0.59029 0.0
Gd1345 Gd 0.85757 0.20245 0.57948 0.0
C1346 C 0.80664 0.09178 0.57589 0.0
C1347 C 0.79544 0.08373 0.55356 0.0
C1348 C 0.8234 0.13828 0.56233 0.0
C1349 C 0.82156 0.12566 0.57414 0.0
C1350 C 0.80957 0.11741 0.55194 0.0
C1351 C 0.79407 0.07094 0.56551 0.0
C1352 C 0.80443 0.07982 0.58804 0.0
C1353 C 0.81661 0.10144 0.59808 0.0
N1354 N 0.83397 0.14649 0.58395 0.0
C1355 C 0.83133 0.13478 0.59586 0.0
H1356 H 0.84147 0.15083 0.60372 0.0
C1357 C 0.83496 0.18398 0.54999 0.0
N1358 N 0.83711 0.17089 0.56112 0.0
C1359 C 0.82176 0.16435 0.53938 0.0
C1360 C 0.80942 0.13094 0.54032 0.0
H1361 H 0.84403 0.20979 0.5493 0.0
H1362 H 0.78273 0.0449 0.56667 0.0
H1363 H 0.96558 0.29488 0.56404 0.0
H1364 H 0.79327 0.054 0.58977 0.0
H1365 H 0.81513 0.09251 0.60753 0.0
H1366 H 0.78494 0.06733 0.54567 0.0
H1367 H 0.95724 0.23952 0.62097 0.0
H1368 H 1.01361 0.39135 0.57737 0.0
H1369 H 0.99353 0.35198 0.55999 0.0
H1370 H 0.01904 0.38185 0.62158 0.0
H1371 H 0.82087 0.17495 0.53053 0.0
H1372 H 0.79896 0.11573 0.53212 0.0
H1373 H 0.02225 0.40214 0.60021 0.0
H1374 H 0.98217 0.27653 0.63874 0.0
N1375 N 0.96871 0.29889 0.58425 0.0
C1376 C 1.00116 0.36562 0.57941 0.0
C1377 C 0.99006 0.3435 0.56959 0.0
C1378 C 0.99692 0.35438 0.59173 0.0
C1379 C 0.98051 0.32051 0.59394 0.0
C1380 C 0.974 0.31032 0.57213 0.0
N1381 N 0.96391 0.27669 0.60806 0.0
C1382 C 0.97818 0.30911 0.60611 0.0
C1383 C 0.9809 0.28606 0.62967 0.0
C1384 C 0.99352 0.31921 0.62805 0.0
C1385 C 0.96668 0.26517 0.61951 0.0
C1386 C 0.99289 0.33121 0.61616 0.0
H1387 H 1.00476 0.33544 0.63594 0.0
O1388 O 0.9618 0.21735 0.6004 0.0
O1389 O 0.89616 0.19562 0.58783 0.0
O1390 O 0.85721 0.20578 0.60106 0.0
O1391 O 0.91113 0.22934 0.60756 0.0
O1392 O 0.93854 0.19986 0.58041 0.0
O1393 O 0.99236 0.25566 0.58698 0.0
O1394 O 0.82693 0.22264 0.57423 0.0
O1395 O 0.8992 0.24852 0.58671 0.0
O1396 O 0.94345 0.2432 0.56938 0.0
O1397 O 0.8906 0.20798 0.56225 0.0
O1398 O 0.87736 0.25118 0.57033 0.0
O1399 O 0.81081 0.18647 0.58856 0.0
C1400 C 0.90819 0.18078 0.58211 0.0
C1401 C 1.00789 0.36465 0.61397 0.0
C1402 C 1.00978 0.37619 0.6018 0.0
C1403 C 0.98945 0.23262 0.59448 0.0
C1404 C 0.01794 0.23377 0.60007 0.0
C1405 C 0.02627 0.24218 0.61268 0.0
C1406 C 0.03544 0.22328 0.59278 0.0
C1407 C 0.0606 0.22033 0.59816 0.0
C1408 C 0.05176 0.23984 0.618 0.0
C1409 C 0.06873 0.22873 0.61082 0.0
C1410 C 0.87988 0.21616 0.60994 0.0
C1411 C 0.89865 0.26795 0.57877 0.0
C1412 C 0.80354 0.20477 0.58188 0.0
C1413 C 0.77009 0.18966 0.57676 0.0
C1414 C 0.76098 0.16751 0.5668 0.0
C1415 C 0.74729 0.19792 0.58149 0.0
C1416 C 0.71613 0.18459 0.57599 0.0
C1417 C 0.73039 0.1545 0.56135 0.0
C1418 C 0.70822 0.16308 0.56584 0.0
C1419 C 0.92262 0.22673 0.56038 0.0
H1420 H 1.01301 0.2501 0.61848 0.0
H1421 H 0.02881 0.2164 0.58305 0.0
H1422 H 0.05817 0.24632 0.62774 0.0
H1423 H 0.08843 0.22699 0.6151 0.0
H1424 H 0.77752 0.1603 0.56316 0.0
H1425 H 0.75388 0.2149 0.58922 0.0
H1426 H 0.72384 0.13769 0.55358 0.0
H1427 H 0.68459 0.15267 0.56144 0.0
Gd1428 Gd 0.83479 0.7296 0.59044 0.0
Gd1429 Gd 0.87756 0.68799 0.57915 0.0
C1430 C 0.98798 0.74802 0.5756 0.0
C1431 C 0.99587 0.74641 0.55318 0.0
C1432 C 0.94141 0.7191 0.56195 0.0
C1433 C 0.95412 0.72915 0.57382 0.0
C1434 C 0.96223 0.72706 0.55151 0.0
C1435 C 1.00872 0.75694 0.5652 0.0
C1436 C 1.00004 0.75718 0.58779 0.0
C1437 C 0.97854 0.7474 0.59784 0.0
N1438 N 0.93342 0.72033 0.58366 0.0
C1439 C 0.94523 0.729 0.5956 0.0
H1440 H 0.92929 0.72302 0.60346 0.0
C1441 C 0.89563 0.68681 0.54928 0.0
N1442 N 0.90879 0.70053 0.56064 0.0
C1443 C 0.91525 0.69413 0.53865 0.0
C1444 C 0.94867 0.71466 0.53974 0.0
H1445 H 0.86982 0.67037 0.54847 0.0
H1446 H 0.03473 0.7716 0.56638 0.0
H1447 H 0.78195 0.69448 0.56465 0.0
H1448 H 0.02584 0.77171 0.58954 0.0
H1449 H 0.98753 0.75447 0.60732 0.0
H1450 H 1.01221 0.75296 0.54526 0.0
H1451 H 0.83972 0.74883 0.62114 0.0
H1452 H 0.68628 0.64702 0.57857 0.0
H1453 H 0.7248 0.66311 0.56102 0.0
H1454 H 0.69754 0.66847 0.62242 0.0
H1455 H 0.90462 0.6837 0.52965 0.0
H1456 H 0.96385 0.72014 0.53151 0.0
H1457 H 0.67647 0.64878 0.60131 0.0
H1458 H 0.80339 0.73735 0.63907 0.0
N1459 N 0.77882 0.6983 0.58476 0.0
C1460 C 0.71204 0.66134 0.58041 0.0
C1461 C 0.73366 0.67056 0.57049 0.0
C1462 C 0.72379 0.67099 0.59257 0.0
C1463 C 0.75768 0.68956 0.59455 0.0
C1464 C 0.76685 0.68921 0.57276 0.0
N1465 N 0.80205 0.71813 0.60841 0.0
C1466 C 0.76958 0.69989 0.60661 0.0
C1467 C 0.79353 0.72631 0.63006 0.0
C1468 C 0.76033 0.70605 0.62856 0.0
C1469 C 0.81404 0.73256 0.61982 0.0
C1470 C 0.74789 0.69295 0.61674 0.0
H1471 H 0.7444 0.70142 0.6365 0.0
O1472 O 0.8594 0.77544 0.60026 0.0
O1473 O 0.88292 0.7322 0.58808 0.0
O1474 O 0.8747 0.68434 0.6008 0.0
O1475 O 0.84796 0.71148 0.60761 0.0
O1476 O 0.87811 0.77026 0.58106 0.0
O1477 O 0.82113 0.76607 0.58656 0.0
O1478 O 0.85566 0.63654 0.57469 0.0
O1479 O 0.83102 0.68186 0.58649 0.0
O1480 O 0.83295 0.72939 0.56962 0.0
O1481 O 0.87179 0.71682 0.56237 0.0
O1482 O 0.82928 0.65827 0.56983 0.0
O1483 O 0.89672 0.65829 0.58692 0.0
C1484 C 0.8976 0.75946 0.58269 0.0
C1485 C 0.71443 0.67411 0.61475 0.0
C1486 C 0.70243 0.663 0.60272 0.0
C1487 C 0.84389 0.78704 0.59399 0.0
C1488 C 0.84133 0.81382 0.59941 0.0
C1489 C 0.82876 0.81191 0.61146 0.0
C1490 C 0.85439 0.84295 0.59267 0.0
C1491 C 0.8557 0.87039 0.59811 0.0
C1492 C 0.82974 0.83911 0.61684 0.0
C1493 C 0.84332 0.86829 0.61025 0.0
C1494 C 0.86275 0.69482 0.60981 0.0
C1495 C 0.81212 0.66166 0.57845 0.0
C1496 C 0.87593 0.63183 0.58121 0.0
C1497 C 0.88834 0.61212 0.57513 0.0
C1498 C 0.90236 0.62075 0.56319 0.0
C1499 C 0.88508 0.58381 0.58091 0.0
C1500 C 0.89623 0.56486 0.57472 0.0
C1501 C 0.91256 0.60171 0.55695 0.0
C1502 C 0.90956 0.57405 0.56264 0.0
C1503 C 0.8513 0.72818 0.56063 0.0
H1504 H 0.81851 0.7897 0.61675 0.0
H1505 H 0.86431 0.84454 0.58337 0.0
H1506 H 0.8201 0.83764 0.62616 0.0
H1507 H 0.84374 0.88913 0.61456 0.0
H1508 H 0.90523 0.64208 0.55859 0.0
H1509 H 0.87433 0.57683 0.59015 0.0
H1510 H 0.92288 0.60846 0.54765 0.0
H1511 H 0.91762 0.55964 0.55754 0.0
H1512 H 0.49577 0.9306 0.0821 0.0
H1513 H 0.49693 0.88202 0.08755 0.0
H1514 H 0.55018 0.92851 0.1214 0.0
H1515 H 0.54102 0.97383 0.11739 0.0
H1516 H 0.54135 0.87381 0.08697 0.0
H1517 H 0.50338 0.84583 0.13675 0.0
H1518 H 0.49893 0.87602 0.12824 0.0
H1519 H 0.5376 0.88558 0.13489 0.0
C1520 C 0.50727 0.93035 0.09084 0.0
C1521 C 0.52035 0.95716 0.09895 0.0
C1522 C 0.50814 0.90245 0.09394 0.0
C1523 C 0.52425 0.90124 0.10482 0.0
C1524 C 0.537 0.92795 0.11307 0.0
H1525 H 0.60125 0.77289 0.10429 0.0
H1526 H 0.59044 0.8148 0.11241 0.0
C1527 C 0.53328 0.95478 0.11048 0.0
C1528 C 0.52941 0.87299 0.10659 0.0
H1529 H 0.52666 0.81672 0.12738 0.0
C1530 C 0.53737 0.86124 0.09583 0.0
C1531 C 0.52526 0.85656 0.11819 0.0
C1532 C 0.51554 0.8665 0.13013 0.0
C1533 C 0.53968 0.83318 0.09612 0.0
C1534 C 0.53596 0.81722 0.10765 0.0
C1535 C 0.52938 0.82923 0.11858 0.0
C1536 C 0.53928 0.7881 0.10805 0.0
C1537 C 0.54533 0.82025 0.08398 0.0
C1538 C 0.51362 0.75858 0.10368 0.0
C1539 C 0.51985 0.7349 0.09893 0.0
C1540 C 0.55167 0.7405 0.09868 0.0
C1541 C 0.57654 0.76818 0.10451 0.0
C1542 C 0.57035 0.79197 0.1092 0.0
H1543 H 0.54998 0.83689 0.07596 0.0
H1544 H 0.56618 0.81611 0.08493 0.0
H1545 H 0.52361 0.79657 0.08173 0.0
H1546 H 0.4896 0.75543 0.10261 0.0
H1547 H 0.50044 0.71366 0.0944 0.0
H1548 H 0.33572 0.85567 0.11561 0.0
H1549 H 0.29814 0.79996 0.12244 0.0
H1550 H 0.28634 0.76746 0.08398 0.0
H1551 H 0.32414 0.82263 0.07721 0.0
H1552 H 0.23571 0.76938 0.11524 0.0
H1553 H 0.28828 0.69387 0.10145 0.0
H1554 H 0.31247 0.73752 0.1026 0.0
H1555 H 0.28993 0.71856 0.0885 0.0
C1556 C 0.3258 0.83638 0.10869 0.0
C1557 C 0.3323 0.84338 0.09586 0.0
C1558 C 0.30435 0.80465 0.1126 0.0
C1559 C 0.28957 0.77952 0.10373 0.0
C1560 C 0.29786 0.78627 0.09102 0.0
H1561 H 0.12429 0.6041 0.08572 0.0
H1562 H 0.17042 0.6593 0.08783 0.0
C1563 C 0.31911 0.81788 0.08713 0.0
C1564 C 0.26189 0.74757 0.10726 0.0
H1565 H 0.22903 0.66672 0.10135 0.0
C1566 C 0.23451 0.74681 0.11256 0.0
C1567 C 0.26036 0.71817 0.10376 0.0
C1568 C 0.28953 0.71709 0.09889 0.0
C1569 C 0.20492 0.71766 0.11351 0.0
C1570 C 0.20279 0.68875 0.10904 0.0
C1571 C 0.23067 0.68915 0.10455 0.0
C1572 C 0.1716 0.65809 0.1081 0.0
C1573 C 0.17556 0.71828 0.11837 0.0
C1574 C 0.1566 0.63963 0.11883 0.0
C1575 C 0.13009 0.60826 0.11762 0.0
C1576 C 0.118 0.59532 0.10569 0.0
C1577 C 0.13244 0.61418 0.09501 0.0
C1578 C 0.15889 0.64548 0.09621 0.0
H1579 H 0.18131 0.74285 0.12154 0.0
H1580 H 0.15711 0.71018 0.11082 0.0
H1581 H 0.16484 0.70122 0.12635 0.0
H1582 H 0.16646 0.64877 0.12807 0.0
H1583 H 0.11995 0.59357 0.12594 0.0
H1584 H 0.26165 0.54733 0.07685 0.0
H1585 H 0.31528 0.56145 0.08465 0.0
H1586 H 0.27489 0.52473 0.12124 0.0
H1587 H 0.22079 0.50969 0.11331 0.0
H1588 H 0.35748 0.59591 0.10313 0.0
H1589 H 0.30611 0.46321 0.11057 0.0
H1590 H 0.28334 0.47947 0.10313 0.0
H1591 H 0.28864 0.48206 0.11987 0.0
C1592 C 0.26435 0.54275 0.0866 0.0
C1593 C 0.23715 0.52655 0.09438 0.0
C1594 C 0.29497 0.55099 0.09108 0.0
C1595 C 0.29881 0.54308 0.1034 0.0
C1596 C 0.27221 0.53017 0.1116 0.0
H1597 H 0.48307 0.55904 0.12678 0.0
H1598 H 0.42773 0.55042 0.12803 0.0
C1599 C 0.24144 0.52184 0.1071 0.0
C1600 C 0.32961 0.54464 0.10686 0.0
H1601 H 0.36241 0.49622 0.11237 0.0
C1602 C 0.35854 0.57424 0.10538 0.0
C1603 C 0.33089 0.51615 0.10963 0.0
C1604 C 0.30066 0.48335 0.11081 0.0
C1605 C 0.38867 0.57587 0.10613 0.0
C1606 C 0.38977 0.54726 0.10848 0.0
C1607 C 0.36113 0.51799 0.11057 0.0
C1608 C 0.42055 0.54718 0.10794 0.0
C1609 C 0.41917 0.60784 0.10386 0.0
C1610 C 0.43394 0.54699 0.09625 0.0
C1611 C 0.46511 0.55141 0.09554 0.0
C1612 C 0.48296 0.55568 0.10653 0.0
C1613 C 0.46915 0.55483 0.11824 0.0
C1614 C 0.43782 0.55011 0.11896 0.0
H1615 H 0.41457 0.62854 0.10388 0.0
H1616 H 0.43762 0.61215 0.11112 0.0
H1617 H 0.42948 0.60708 0.0946 0.0
H1618 H 0.42085 0.54493 0.08767 0.0
H1619 H 0.47593 0.55322 0.08642 0.0
H1620 H 0.97064 0.51712 0.90053 0.0
H1621 H 0.92266 0.52078 0.89501 0.0
H1622 H 0.90849 0.53417 0.93406 0.0
H1623 H 0.95607 0.52977 0.93963 0.0
H1624 H 0.8529 0.48341 0.92134 0.0
H1625 H 0.90829 0.59953 0.89464 0.0
H1626 H 0.92307 0.57171 0.89224 0.0
H1627 H 0.92984 0.59246 0.907 0.0
C1628 C 0.95768 0.52155 0.90789 0.0
C1629 C 0.96714 0.52351 0.92051 0.0
C1630 C 0.93027 0.52359 0.90472 0.0
C1631 C 0.91212 0.52784 0.91412 0.0
C1632 C 0.92216 0.53078 0.92667 0.0
H1633 H 0.79433 0.59907 0.92912 0.0
H1634 H 0.83454 0.58638 0.92123 0.0
C1635 C 0.94934 0.52843 0.92985 0.0
C1636 C 0.88168 0.52768 0.91113 0.0
H1637 H 0.85328 0.57519 0.89927 0.0
C1638 C 0.85271 0.50314 0.91633 0.0
C1639 C 0.88158 0.55318 0.90443 0.0
C1640 C 0.91228 0.58086 0.89922 0.0
C1641 C 0.8242 0.50495 0.91597 0.0
C1642 C 0.82471 0.53177 0.90999 0.0
C1643 C 0.85294 0.5546 0.90377 0.0
C1644 C 0.79968 0.5408 0.91263 0.0
C1645 C 0.79471 0.4796 0.92287 0.0
C1646 C 0.76666 0.52011 0.90994 0.0
C1647 C 0.74344 0.5273 0.91462 0.0
C1648 C 0.75318 0.55531 0.92195 0.0
C1649 C 0.78628 0.57713 0.92366 0.0
C1650 C 0.80925 0.56992 0.91909 0.0
H1651 H 0.79986 0.46279 0.92831 0.0
H1652 H 0.78545 0.49124 0.92942 0.0
H1653 H 0.77528 0.46499 0.916 0.0
H1654 H 0.7588 0.49788 0.90471 0.0
H1655 H 0.71796 0.51017 0.91315 0.0
H1656 H 0.58581 0.25296 0.92059 0.0
H1657 H 0.59625 0.30576 0.91276 0.0
H1658 H 0.49344 0.26943 0.91055 0.0
H1659 H 0.48299 0.21664 0.91836 0.0
H1660 H 0.54829 0.32854 0.89157 0.0
H1661 H 0.55617 0.33873 0.94376 0.0
H1662 H 0.57421 0.31841 0.93565 0.0
H1663 H 0.531 0.30027 0.93616 0.0
C1664 C 0.56553 0.25581 0.91776 0.0
C1665 C 0.53364 0.23102 0.92005 0.0
C1666 C 0.5715 0.28589 0.91327 0.0
C1667 C 0.54559 0.29141 0.91114 0.0
C1668 C 0.51369 0.26545 0.91202 0.0
H1669 H 0.52541 0.44945 0.9359 0.0
H1670 H 0.52019 0.39763 0.93004 0.0
C1671 C 0.50773 0.23536 0.91649 0.0
C1672 C 0.55126 0.32487 0.91154 0.0
H1673 H 0.56044 0.38251 0.93264 0.0
C1674 C 0.55085 0.34056 0.90049 0.0
C1675 C 0.55472 0.34023 0.92323 0.0
C1676 C 0.55404 0.32373 0.93543 0.0
C1677 C 0.5524 0.37095 0.90088 0.0
C1678 C 0.55512 0.38613 0.91269 0.0
C1679 C 0.55742 0.37083 0.92361 0.0
C1680 C 0.55377 0.41667 0.91438 0.0
C1681 C 0.5499 0.38552 0.88867 0.0
C1682 C 0.57289 0.44472 0.90723 0.0
C1683 C 0.57297 0.47364 0.90985 0.0
C1684 C 0.55552 0.47554 0.92013 0.0
C1685 C 0.53748 0.44807 0.92752 0.0
C1686 C 0.5353 0.41864 0.92432 0.0
H1687 H 0.53863 0.36686 0.88118 0.0
H1688 H 0.5355 0.39786 0.88975 0.0
H1689 H 0.57463 0.4035 0.88544 0.0
H1690 H 0.58879 0.44486 0.89997 0.0
H1691 H 0.58838 0.49508 0.90437 0.0
H1692 H 0.60486 0.1222 0.93461 0.0
H1693 H 0.66093 0.16678 0.93291 0.0
H1694 H 0.65404 0.15997 0.89254 0.0
H1695 H 0.59762 0.11542 0.89427 0.0
H1696 H 0.71646 0.17112 0.92032 0.0
H1697 H 0.67663 0.25452 0.90124 0.0
H1698 H 0.64899 0.21654 0.90869 0.0
H1699 H 0.66291 0.2168 0.89303 0.0
C1700 C 0.61571 0.12979 0.92541 0.0
C1701 C 0.59767 0.11504 0.91457 0.0
C1702 C 0.64752 0.15522 0.92444 0.0
C1703 C 0.66138 0.16668 0.9126 0.0
C1704 C 0.64355 0.15153 0.90174 0.0
H1705 H 0.86493 0.31515 0.90627 0.0
H1706 H 0.81036 0.27367 0.89955 0.0
C1707 C 0.61161 0.1261 0.90272 0.0
C1708 C 0.69379 0.19573 0.9118 0.0
H1709 H 0.73259 0.2766 0.90486 0.0
C1710 C 0.72014 0.19407 0.91677 0.0
C1711 C 0.69818 0.22565 0.90732 0.0
C1712 C 0.67022 0.22878 0.90234 0.0
C1713 C 0.75083 0.2218 0.91758 0.0
C1714 C 0.75516 0.25173 0.91319 0.0
C1715 C 0.72903 0.25339 0.90802 0.0
C1716 C 0.78619 0.28177 0.91514 0.0
C1717 C 0.77824 0.21935 0.92358 0.0
C1718 C 0.7901 0.30073 0.92578 0.0
C1719 C 0.8211 0.3239 0.92972 0.0
C1720 C 0.84826 0.32853 0.92292 0.0
C1721 C 0.84412 0.31177 0.91161 0.0
C1722 C 0.81312 0.28827 0.90776 0.0
H1723 H 0.7701 0.19487 0.92752 0.0
H1724 H 0.79731 0.22474 0.91648 0.0
H1725 H 0.78938 0.23755 0.93122 0.0
H1726 H 0.76945 0.29588 0.93155 0.0
H1727 H 0.82399 0.33689 0.93842 0.0
H1728 H 0.17138 0.0447 0.43664 0.0
H1729 H 0.16558 0.08927 0.44546 0.0
H1730 H 0.26487 0.15698 0.43581 0.0
H1731 H 0.27063 0.11248 0.42701 0.0
H1732 H 0.23749 0.17135 0.45936 0.0
H1733 H 0.16665 0.14768 0.41514 0.0
H1734 H 0.15457 0.11409 0.42569 0.0
H1735 H 0.193 0.13126 0.41788 0.0
C1736 C 0.19226 0.06893 0.43692 0.0
C1737 C 0.22139 0.0755 0.43117 0.0
C1738 C 0.18896 0.09428 0.44193 0.0
C1739 C 0.21472 0.12634 0.44114 0.0
C1740 C 0.2448 0.13236 0.43653 0.0
H1741 H 0.20448 0.29449 0.42182 0.0
H1742 H 0.21785 0.25142 0.42408 0.0
C1743 C 0.24808 0.10704 0.43151 0.0
C1744 C 0.20879 0.15378 0.44259 0.0
H1745 H 0.17491 0.19218 0.42719 0.0
C1746 C 0.22368 0.17598 0.45241 0.0
C1747 C 0.19103 0.1597 0.43339 0.0
C1748 C 0.1755 0.13713 0.42236 0.0
C1749 C 0.22174 0.20449 0.45317 0.0
C1750 C 0.20431 0.21068 0.44383 0.0
C1751 C 0.18869 0.18779 0.43424 0.0
C1752 C 0.20217 0.24079 0.44345 0.0
C1753 C 0.23916 0.22791 0.46374 0.0
C1754 C 0.18992 0.25001 0.45367 0.0
C1755 C 0.18368 0.27566 0.4525 0.0
C1756 C 0.18933 0.29226 0.44108 0.0
C1757 C 0.20171 0.28325 0.43091 0.0
C1758 C 0.20872 0.25821 0.43216 0.0
H1759 H 0.25938 0.22507 0.46747 0.0
H1760 H 0.24896 0.25333 0.46069 0.0
H1761 H 0.22186 0.22301 0.47152 0.0
H1762 H 0.18354 0.23635 0.46233 0.0
H1763 H 0.17293 0.2815 0.46031 0.0
H1764 H 0.97567 0.19742 0.43901 0.0
H1765 H 0.93202 0.14676 0.44778 0.0
H1766 H 0.98234 0.09685 0.43612 0.0
H1767 H 0.02589 0.14747 0.4274 0.0
H1768 H 0.90228 0.10199 0.42872 0.0
H1769 H 0.93345 0.04558 0.46775 0.0
H1770 H 0.95473 0.08886 0.46497 0.0
H1771 H 0.96371 0.06283 0.45567 0.0
C1772 C 0.97811 0.17597 0.43894 0.0
C1773 C 1.00376 0.176 0.4325 0.0
C1774 C 0.95324 0.14707 0.44394 0.0
C1775 C 0.9539 0.11802 0.44259 0.0
C1776 C 0.9815 0.11899 0.43745 0.0
H1777 H 0.80641 0.94046 0.41306 0.0
H1778 H 0.85325 0.99267 0.41824 0.0
C1779 C 1.00627 0.14784 0.4324 0.0
C1780 C 0.92321 0.08661 0.44318 0.0
H1781 H 0.88796 1.00955 0.45482 0.0
C1782 C 0.89885 0.08202 0.43467 0.0
C1783 C 0.9189 0.06053 0.45083 0.0
C1784 C 0.94395 0.06465 0.46041 0.0
C1785 C 0.87085 0.05184 0.43321 0.0
C1786 C 0.86721 0.02512 0.44031 0.0
C1787 C 0.89085 0.02996 0.4493 0.0
C1788 C 0.84017 0.99184 0.43774 0.0
C1789 C 0.84583 0.0489 0.4238 0.0
C1790 C 0.8182 0.97301 0.44717 0.0
C1791 C 0.79185 0.94232 0.44429 0.0
C1792 C 0.7866 0.93062 0.43188 0.0
C1793 C 0.80921 0.94921 0.42262 0.0
C1794 C 0.83596 0.97915 0.42556 0.0
H1795 H 0.84642 0.07237 0.42257 0.0
H1796 H 0.8512 0.04193 0.41455 0.0
H1797 H 0.82105 0.03025 0.42666 0.0
H1798 H 0.82123 0.98214 0.45668 0.0
H1799 H 0.77558 0.9279 0.45173 0.0
H1800 H 0.1456 0.88967 0.42043 0.0
H1801 H 0.08955 0.87863 0.42156 0.0
H1802 H 0.09468 0.88064 0.46197 0.0
H1803 H 0.15071 0.89124 0.46083 0.0
H1804 H 0.03219 0.82641 0.43648 0.0
H1805 H 0.07547 0.95537 0.4493 0.0
H1806 H 0.10136 0.9429 0.44168 0.0
H1807 H 0.0912 0.93368 0.45792 0.0
C1808 C 0.13431 0.88676 0.42952 0.0
C1809 C 0.15177 0.8903 0.44056 0.0
C1810 C 0.10255 0.88069 0.43016 0.0
C1811 C 0.0883 0.879 0.44185 0.0
C1812 C 0.10549 0.88195 0.4529 0.0
H1813 H 0.88557 0.82878 0.44661 0.0
H1814 H 0.93969 0.84224 0.45411 0.0
C1815 C 0.13726 0.88789 0.45224 0.0
C1816 C 0.05624 0.87635 0.44233 0.0
H1817 H 0.0194 0.92163 0.446 0.0
C1818 C 0.02918 0.84697 0.43878 0.0
C1819 C 0.05284 0.90353 0.44517 0.0
C1820 C 0.08168 0.93581 0.44868 0.0
C1821 C 0.99863 0.84421 0.43772 0.0
C1822 C 0.99527 0.8715 0.44039 0.0
C1823 C 0.0222 0.90074 0.44418 0.0
C1824 C 0.96459 0.87064 0.43776 0.0
C1825 C 0.97035 0.81262 0.4332 0.0
C1826 C 0.96128 0.88354 0.42641 0.0
C1827 C 0.93059 0.8755 0.42206 0.0
C1828 C 0.9031 0.8549 0.42912 0.0
C1829 C 0.90665 0.84462 0.44104 0.0
C1830 C 0.93737 0.85233 0.44533 0.0
H1831 H 0.97783 0.79491 0.43027 0.0
H1832 H 0.95226 0.80164 0.44085 0.0
H1833 H 0.95826 0.81702 0.42515 0.0
H1834 H 0.98216 0.89775 0.42049 0.0
H1835 H 0.92814 0.88389 0.4129 0.0
H1836 H 0.45129 0.93331 0.2568 0.0
H1837 H 0.49603 0.92658 0.2491 0.0
H1838 H 0.42982 0.82451 0.24333 0.0
H1839 H 0.38514 0.83129 0.25111 0.0
H1840 H 0.4764 0.839 0.26175 0.0
H1841 H 0.53466 0.90512 0.21793 0.0
H1842 H 0.52168 0.92612 0.22841 0.0
H1843 H 0.49209 0.88872 0.22128 0.0
C1844 C 0.44612 0.90986 0.25324 0.0
C1845 C 0.41499 0.88282 0.25446 0.0
C1846 C 0.47164 0.906 0.24882 0.0
C1847 C 0.46625 0.87505 0.24561 0.0
C1848 C 0.43444 0.84863 0.24566 0.0
H1849 H 0.63159 0.84335 0.2351 0.0
H1850 H 0.58416 0.8494 0.23108 0.0
C1851 C 0.40896 0.8525 0.25007 0.0
C1852 C 0.49397 0.86914 0.24532 0.0
H1853 H 0.56723 0.89319 0.23158 0.0
C1854 C 0.49602 0.85039 0.25501 0.0
C1855 C 0.51929 0.88366 0.23647 0.0
C1856 C 0.51687 0.90181 0.22534 0.0
C1857 C 0.52323 0.84675 0.25643 0.0
C1858 C 0.54996 0.86352 0.24821 0.0
C1859 C 0.54722 0.881 0.23809 0.0
C1860 C 0.58079 0.86327 0.25015 0.0
C1861 C 0.52263 0.82469 0.26673 0.0
C1862 C 0.59557 0.8703 0.26204 0.0
C1863 C 0.62164 0.86548 0.26445 0.0
C1864 C 0.63499 0.85585 0.25481 0.0
C1865 C 0.6219 0.85117 0.24266 0.0
C1866 C 0.59484 0.85465 0.24037 0.0
H1867 H 0.49744 0.80549 0.26891 0.0
H1868 H 0.53678 0.81277 0.26415 0.0
H1869 H 0.53297 0.83908 0.27542 0.0
H1870 H 0.58627 0.87852 0.2696 0.0
H1871 H 0.63146 0.86936 0.27387 0.0
H1872 H 0.23686 0.81614 0.2272 0.0
H1873 H 0.2275 0.76058 0.22507 0.0
H1874 H 0.21448 0.74776 0.2651 0.0
H1875 H 0.22472 0.80343 0.26726 0.0
H1876 H 0.27042 0.74095 0.24158 0.0
H1877 H 0.13653 0.66369 0.24585 0.0
H1878 H 0.15594 0.70441 0.23964 0.0
H1879 H 0.15659 0.69809 0.25623 0.0
C1880 C 0.23103 0.80098 0.23546 0.0
C1881 C 0.23022 0.81333 0.24734 0.0
C1882 C 0.22589 0.76949 0.23425 0.0
C1883 C 0.22012 0.7502 0.24492 0.0
C1884 C 0.21848 0.76224 0.25675 0.0
H1885 H 0.22736 0.59567 0.27592 0.0
H1886 H 0.24305 0.64885 0.26696 0.0
C1887 C 0.22395 0.79379 0.25797 0.0
C1888 C 0.21875 0.71863 0.24401 0.0
H1889 H 0.16748 0.63774 0.24807 0.0
C1890 C 0.24789 0.71824 0.24274 0.0
C1891 C 0.18937 0.68925 0.24552 0.0
C1892 C 0.15763 0.68858 0.24683 0.0
C1893 C 0.24845 0.68909 0.24365 0.0
C1894 C 0.21915 0.65994 0.24579 0.0
C1895 C 0.18989 0.6602 0.24633 0.0
C1896 C 0.21819 0.62959 0.24933 0.0
C1897 C 0.28029 0.68967 0.24273 0.0
C1898 C 0.19996 0.60139 0.24219 0.0
C1899 C 0.19104 0.57106 0.24729 0.0
C1900 C 0.1997 0.5687 0.25968 0.0
C1901 C 0.22002 0.59704 0.26643 0.0
C1902 C 0.22933 0.62735 0.26126 0.0
H1903 H 0.29911 0.71208 0.23806 0.0
H1904 H 0.28894 0.68883 0.25231 0.0
H1905 H 0.27738 0.6682 0.23747 0.0
H1906 H 0.1909 0.60274 0.23302 0.0
H1907 H 0.17548 0.54944 0.2419 0.0
H1908 H 0.49713 0.65516 0.27627 0.0
H1909 H 0.44172 0.6163 0.27003 0.0
H1910 H 0.47122 0.62821 0.23122 0.0
H1911 H 0.5272 0.66635 0.23751 0.0
H1912 H 0.39465 0.61203 0.25478 0.0
H1913 H 0.44236 0.53373 0.23705 0.0
H1914 H 0.46748 0.57095 0.24544 0.0
H1915 H 0.4573 0.57202 0.22927 0.0
C1916 C 0.49172 0.6497 0.2664 0.0
C1917 C 0.51654 0.66281 0.25742 0.0
C1918 C 0.46004 0.62772 0.26283 0.0
C1919 C 0.45265 0.61852 0.25021 0.0
C1920 C 0.47669 0.63426 0.24105 0.0
H1921 H 0.26736 0.45269 0.22662 0.0
H1922 H 0.32274 0.49941 0.22587 0.0
C1923 C 0.50854 0.65623 0.24464 0.0
C1924 C 0.42089 0.58998 0.24712 0.0
H1925 H 0.38592 0.51069 0.23784 0.0
C1926 C 0.39272 0.59003 0.25091 0.0
C1927 C 0.41848 0.56118 0.24214 0.0
C1928 C 0.44796 0.5592 0.23832 0.0
C1929 C 0.36234 0.56179 0.25028 0.0
C1930 C 0.3602 0.53286 0.24575 0.0
C1931 C 0.38797 0.53304 0.24137 0.0
C1932 C 0.32932 0.50195 0.246 0.0
C1933 C 0.33281 0.5628 0.25477 0.0
C1934 C 0.31561 0.48736 0.25752 0.0
C1935 C 0.28437 0.46063 0.25793 0.0
C1936 C 0.26679 0.448 0.24681 0.0
C1937 C 0.28102 0.46175 0.23525 0.0
C1938 C 0.31239 0.48836 0.23483 0.0
H1939 H 0.33735 0.58804 0.25542 0.0
H1940 H 0.31193 0.54867 0.2484 0.0
H1941 H 0.326 0.55171 0.26423 0.0
H1942 H 0.32853 0.49757 0.26622 0.0
H1943 H 0.27331 0.45092 0.26695 0.0
H1944 H 0.86395 0.62322 0.75283 0.0
H1945 H 0.87817 0.58042 0.75493 0.0
H1946 H 0.86294 0.578 0.79488 0.0
H1947 H 0.84869 0.62089 0.79277 0.0
H1948 H 0.92859 0.57842 0.77765 0.0
H1949 H 0.79824 0.4833 0.77401 0.0
H1950 H 0.81312 0.52139 0.76588 0.0
H1951 H 0.81074 0.52037 0.78265 0.0
C1952 C 0.86472 0.61423 0.76208 0.0
C1953 C 0.85663 0.62605 0.77271 0.0
C1954 C 0.87254 0.58972 0.76326 0.0
C1955 C 0.87183 0.57642 0.77507 0.0
C1956 C 0.86396 0.58835 0.78573 0.0
H1957 H 0.86193 0.38768 0.77601 0.0
H1958 H 0.86184 0.43531 0.78501 0.0
C1959 C 0.85601 0.6128 0.78453 0.0
C1960 C 0.87689 0.54837 0.77599 0.0
H1961 H 0.83661 0.46609 0.77294 0.0
C1962 C 0.90854 0.55378 0.77685 0.0
C1963 C 0.85056 0.51637 0.77512 0.0
C1964 C 0.81613 0.50967 0.77437 0.0
C1965 C 0.91468 0.52786 0.77632 0.0
C1966 C 0.88852 0.49594 0.77449 0.0
C1967 C 0.85669 0.4905 0.77435 0.0
C1968 C 0.89364 0.46871 0.77087 0.0
C1969 C 0.94919 0.53507 0.77749 0.0
C1970 C 0.9121 0.47181 0.76016 0.0
C1971 C 0.91222 0.44487 0.7551 0.0
C1972 C 0.89371 0.41425 0.76059 0.0
C1973 C 0.8767 0.41125 0.77173 0.0
C1974 C 0.87653 0.43834 0.77681 0.0
H1975 H 0.96342 0.55635 0.7837 0.0
H1976 H 0.95045 0.51401 0.78128 0.0
H1977 H 0.9608 0.54117 0.76811 0.0
H1978 H 0.92476 0.49464 0.75518 0.0
H1979 H 0.92529 0.44757 0.74645 0.0
H1980 H 0.66908 0.48004 0.74439 0.0
H1981 H 0.6293 0.42708 0.75263 0.0
H1982 H 0.62501 0.47197 0.78725 0.0
H1983 H 0.66435 0.5254 0.77882 0.0
H1984 H 0.61856 0.38762 0.7723 0.0
H1985 H 0.53446 0.43716 0.77349 0.0
H1986 H 0.57471 0.45973 0.76707 0.0
H1987 H 0.56883 0.4565 0.78378 0.0
C1988 C 0.65995 0.4785 0.75382 0.0
C1989 C 0.66876 0.5067 0.76081 0.0
C1990 C 0.63744 0.44826 0.75857 0.0
C1991 C 0.62334 0.44578 0.77037 0.0
C1992 C 0.63491 0.47354 0.77797 0.0
H1993 H 0.4539 0.26132 0.793 0.0
H1994 H 0.50028 0.31688 0.79438 0.0
C1995 C 0.65749 0.50395 0.77319 0.0
C1996 C 0.59386 0.41502 0.77371 0.0
H1997 H 0.51174 0.38124 0.77656 0.0
C1998 C 0.59531 0.38628 0.77349 0.0
C1999 C 0.56341 0.41333 0.77504 0.0
C2000 C 0.56003 0.44323 0.77477 0.0
C2001 C 0.56704 0.35589 0.77407 0.0
C2002 C 0.53675 0.35433 0.77503 0.0
C2003 C 0.53523 0.38286 0.77585 0.0
C2004 C 0.50635 0.3231 0.77429 0.0
C2005 C 0.56942 0.32551 0.77308 0.0
C2006 C 0.49418 0.309 0.76253 0.0
C2007 C 0.46759 0.27768 0.76175 0.0
C2008 C 0.45271 0.26041 0.7727 0.0
C2009 C 0.46451 0.27481 0.78446 0.0
C2010 C 0.49094 0.30627 0.78525 0.0
H2011 H 0.59484 0.33072 0.77376 0.0
H2012 H 0.55487 0.30815 0.78058 0.0
H2013 H 0.55929 0.31354 0.76393 0.0
H2014 H 0.50608 0.32171 0.754 0.0
H2015 H 0.45956 0.26639 0.75262 0.0
H2016 H 0.59828 0.21913 0.74434 0.0
H2017 H 0.65164 0.23298 0.7523 0.0
H2018 H 0.60973 0.19194 0.78827 0.0
H2019 H 0.55583 0.17688 0.78012 0.0
H2020 H 0.69303 0.2652 0.77076 0.0
H2021 H 0.64197 0.13218 0.77705 0.0
H2022 H 0.61908 0.14873 0.76994 0.0
H2023 H 0.62436 0.1503 0.78668 0.0
C2024 C 0.60056 0.2135 0.75399 0.0
C2025 C 0.57299 0.19596 0.76148 0.0
C2026 C 0.63104 0.2216 0.75857 0.0
C2027 C 0.63441 0.21232 0.77072 0.0
C2028 C 0.60742 0.19831 0.77873 0.0
H2029 H 0.81661 0.22244 0.79354 0.0
H2030 H 0.76138 0.21413 0.79479 0.0
C2031 C 0.57675 0.19002 0.77411 0.0
C2032 C 0.66521 0.21375 0.77412 0.0
H2033 H 0.69818 0.16523 0.77903 0.0
C2034 C 0.69412 0.24344 0.7728 0.0
C2035 C 0.66656 0.18516 0.77662 0.0
C2036 C 0.63641 0.15222 0.77756 0.0
C2037 C 0.72427 0.24511 0.77338 0.0
C2038 C 0.72546 0.21643 0.77546 0.0
C2039 C 0.69685 0.18705 0.77745 0.0
C2040 C 0.75628 0.21645 0.77472 0.0
C2041 C 0.75469 0.27725 0.77124 0.0
C2042 C 0.77083 0.21934 0.763 0.0
C2043 C 0.80199 0.22378 0.76229 0.0
C2044 C 0.81864 0.22481 0.77327 0.0
C2045 C 0.8037 0.22093 0.78497 0.0
C2046 C 0.77239 0.21628 0.78569 0.0
H2047 H 0.75018 0.29795 0.77199 0.0
H2048 H 0.77374 0.28079 0.7781 0.0
H2049 H 0.76413 0.27746 0.7617 0.0
H2050 H 0.7586 0.21955 0.75446 0.0
H2051 H 0.81363 0.22776 0.75321 0.0
H2052 H 0.06837 0.16883 0.603 0.0
H2053 H 0.1103 0.15927 0.59424 0.0
H2054 H 0.13627 0.23698 0.56779 0.0
H2055 H 0.09434 0.24679 0.57666 0.0
H2056 H 0.1336 0.1498 0.57114 0.0
H2057 H 0.21315 0.27109 0.59267 0.0
H2058 H 0.1699 0.24902 0.59495 0.0
H2059 H 0.18662 0.26981 0.58042 0.0
C2060 C 0.0825 0.18323 0.59509 0.0
C2061 C 0.07905 0.20909 0.5907 0.0
C2062 C 0.10622 0.17765 0.59005 0.0
C2063 C 0.12685 0.19805 0.58064 0.0
C2064 C 0.12084 0.22139 0.57521 0.0
H2065 H 0.29801 0.1837 0.56073 0.0
H2066 H 0.25223 0.1936 0.55878 0.0
C2067 C 0.09695 0.22692 0.58024 0.0
C2068 C 0.15761 0.1986 0.57835 0.0
H2069 H 0.23835 0.24296 0.58513 0.0
C2070 C 0.15664 0.17038 0.57391 0.0
C2071 C 0.1874 0.22524 0.58239 0.0
C2072 C 0.18951 0.25544 0.58798 0.0
C2073 C 0.18474 0.16788 0.57362 0.0
C2074 C 0.21437 0.19448 0.5777 0.0
C2075 C 0.21551 0.22291 0.58186 0.0
C2076 C 0.24383 0.19207 0.57878 0.0
C2077 C 0.18237 0.13631 0.56965 0.0
C2078 C 0.25455 0.18901 0.59068 0.0
C2079 C 0.28077 0.18386 0.59179 0.0
C2080 C 0.29686 0.18239 0.58103 0.0
C2081 C 0.2864 0.18583 0.56913 0.0
C2082 C 0.26026 0.19117 0.56802 0.0
H2083 H 0.15696 0.11703 0.56784 0.0
H2084 H 0.19667 0.14013 0.56097 0.0
H2085 H 0.19276 0.12775 0.57704 0.0
H2086 H 0.24186 0.1894 0.59905 0.0
H2087 H 0.28783 0.17994 0.601 0.0
H2088 H 0.90352 0.92951 0.60563 0.0
H2089 H 0.91455 0.98177 0.59722 0.0
H2090 H 0.84908 0.93292 0.56645 0.0
H2091 H 0.83753 0.88034 0.57503 0.0
H2092 H 0.93286 0.01832 0.57554 0.0
H2093 H 0.80266 0.97023 0.58702 0.0
H2094 H 0.82377 0.94897 0.59113 0.0
H2095 H 0.81072 0.94815 0.57525 0.0
C2096 C 0.89212 0.93006 0.59691 0.0
C2097 C 0.86896 0.90115 0.59116 0.0
C2098 C 0.89856 0.95985 0.59207 0.0
C2099 C 0.88177 0.96102 0.58146 0.0
C2100 C 0.86165 0.93234 0.57482 0.0
H2101 H 0.89409 0.14541 0.56084 0.0
H2102 H 0.88457 0.08976 0.55903 0.0
C2103 C 0.8552 0.90243 0.57968 0.0
C2104 C 0.88142 0.9913 0.57883 0.0
H2105 H 0.83301 0.02508 0.58147 0.0
C2106 C 0.91095 0.01973 0.57655 0.0
C2107 C 0.85282 0.99307 0.58052 0.0
C2108 C 0.82071 0.9636 0.58372 0.0
C2109 C 0.91274 0.05003 0.57621 0.0
C2110 C 0.88425 0.05169 0.57803 0.0
C2111 C 0.85461 0.02334 0.57994 0.0
C2112 C 0.88547 0.08307 0.57905 0.0
C2113 C 0.94522 0.08034 0.57456 0.0
C2114 C 0.88814 0.09692 0.59091 0.0
C2115 C 0.89319 0.12833 0.59195 0.0
C2116 C 0.89492 0.14583 0.58114 0.0
C2117 C 0.8916 0.1317 0.56928 0.0
C2118 C 0.88643 0.10021 0.56824 0.0
H2119 H 0.96512 0.07488 0.57316 0.0
H2120 H 0.94443 0.09429 0.56637 0.0
H2121 H 0.95079 0.09607 0.58297 0.0
H2122 H 0.88777 0.08399 0.59933 0.0
H2123 H 0.89713 0.13947 0.60113 0.0
H2124 H 0.15433 0.99435 0.61036 0.0
H2125 H 0.10097 0.95482 0.6024 0.0
H2126 H 0.14237 0.95746 0.56611 0.0
H2127 H 0.19634 0.99631 0.57425 0.0
H2128 H 0.05949 0.9471 0.58425 0.0
H2129 H 0.10911 0.86456 0.57589 0.0
H2130 H 0.13257 0.90345 0.58341 0.0
H2131 H 0.12661 0.90097 0.56669 0.0
C2132 C 0.15199 0.98673 0.60065 0.0
C2133 C 0.1795 0.99741 0.59305 0.0
C2134 C 0.12147 0.96433 0.59607 0.0
C2135 C 0.11788 0.95225 0.5838 0.0
C2136 C 0.1448 0.96565 0.57574 0.0
H2137 H 0.93277 0.78192 0.56139 0.0
H2138 H 0.98817 0.82838 0.55973 0.0
C2139 C 0.17552 0.98805 0.58036 0.0
C2140 C 0.0868 0.92323 0.58025 0.0
H2141 H 0.05284 0.84183 0.5746 0.0
C2142 C 0.05808 0.92424 0.58191 0.0
C2143 C 0.08497 0.89326 0.57728 0.0
C2144 C 0.11488 0.89025 0.5758 0.0
C2145 C 0.02773 0.89592 0.58131 0.0
C2146 C 0.0261 0.86596 0.57889 0.0
C2147 C 0.05448 0.86503 0.57649 0.0
C2148 C 0.99512 0.83521 0.57978 0.0
C2149 C 0.99759 0.89791 0.58381 0.0
C2150 C 0.98146 0.82331 0.5916 0.0
C2151 C 0.95022 0.79672 0.59255 0.0
C2152 C 0.93254 0.78141 0.5817 0.0
C2153 C 0.94654 0.79281 0.56987 0.0
C2154 C 0.97795 0.8193 0.56891 0.0
H2155 H 1.00235 0.92324 0.58332 0.0
H2156 H 0.97826 0.88279 0.57698 0.0
H2157 H 0.98841 0.88836 0.59334 0.0
H2158 H 0.99445 0.83549 0.60007 0.0
H2159 H 0.93929 0.78901 0.60174 0.0
H2160 H 0.51351 0.06875 0.05849 0.0
H2161 H 0.51901 0.06385 0.03595 0.0
H2162 H 0.58963 0.03431 0.04277 0.0
H2163 H 0.58446 0.03944 0.06543 0.0
H2164 H 0.57414 0.09317 0.01948 0.0
H2165 H 0.51775 0.95882 0.02134 0.0
H2166 H 0.51408 0.98197 0.03403 0.0
H2167 H 0.55139 0.98199 0.03172 0.0
C2168 C 0.53055 0.06154 0.05526 0.0
C2169 C 0.5481 0.05396 0.06394 0.0
C2170 C 0.53364 0.05874 0.0423 0.0
C2171 C 0.55423 0.04806 0.03758 0.0
C2172 C 0.57309 0.04201 0.04614 0.0
H2173 H 0.58393 0.03241 0.95583 0.0
H2174 H 0.59339 0.03693 0.97864 0.0
C2175 C 0.57024 0.04517 0.05917 0.0
C2176 C 0.55507 0.04268 0.02374 0.0
H2177 H 0.53194 0.98313 1.00141 0.0
C2178 C 0.56537 0.06916 0.01555 0.0
C2179 C 0.54327 0.01129 0.01854 0.0
C2180 C 0.53074 0.98174 0.0268 0.0
C2181 C 0.56381 0.06507 1.00241 0.0
C2182 C 0.55151 0.03367 0.99723 0.0
C2183 C 0.54174 1.00724 1.00537 0.0
C2184 C 0.54542 0.02768 0.98345 0.0
C2185 C 0.57427 0.09416 0.99405 0.0
C2186 C 0.51504 0.01985 0.97857 0.0
C2187 C 0.5096 0.0172 0.96561 0.0
C2188 C 0.5344 0.02253 0.95709 0.0
C2189 C 0.56428 0.02833 0.96201 0.0
C2190 C 0.56979 0.0311 0.97508 0.0
H2191 H 0.5845 0.11717 0.99947 0.0
H2192 H 0.59276 0.09588 0.98728 0.0
H2193 H 0.55318 0.09123 0.98855 0.0
H2194 H 0.49576 0.01685 0.9848 0.0
H2195 H 0.48608 0.012 0.9622 0.0
H2196 H 0.03136 0.5702 0.95486 0.0
H2197 H 0.02695 0.57534 0.97757 0.0
H2198 H 0.07225 0.51771 0.98395 0.0
H2199 H 0.07765 0.51345 0.96135 0.0
H2200 H 0.99361 0.52705 0.99516 0.0
H2201 H 0.12374 0.59287 1.00759 0.0
H2202 H 0.10973 0.59005 0.99166 0.0
H2203 H 0.11269 0.55707 0.9985 0.0
C2204 C 0.04167 0.55982 0.96105 0.0
C2205 C 0.05592 0.54235 0.95615 0.0
C2206 C 0.03857 0.56225 0.97411 0.0
C2207 C 0.04979 0.54744 0.98262 0.0
C2208 C 0.06416 0.53018 0.97772 0.0
H2209 H 0.01949 0.48127 0.05838 0.0
H2210 H 0.02268 0.48999 0.03573 0.0
C2211 C 0.06722 0.52773 0.96472 0.0
C2212 C 0.04545 0.54866 0.99657 0.0
H2213 H 0.08655 0.56604 0.02451 0.0
C2214 C 1.01403 0.53607 1.00154 0.0
C2215 C 0.07195 0.56059 1.00504 0.0
C2216 C 0.10645 0.57621 1.00044 0.0
C2217 C 1.00845 0.53368 0.01464 0.0
C2218 C 0.03481 0.54419 0.02304 0.0
C2219 C 0.06626 0.5579 0.0181 0.0
C2220 C 0.03 0.53852 0.03689 0.0
C2221 C 0.97432 0.51914 0.01951 0.0
C2222 C 0.03219 0.56258 0.0452 0.0
C2223 C 0.03049 0.55766 0.05831 0.0
C2224 C 0.02712 0.52875 0.06335 0.0
C2225 C 0.02311 0.50419 0.0549 0.0
C2226 C 0.02472 0.50905 0.0419 0.0
H2227 H 0.95653 0.51413 0.01188 0.0
H2228 H 0.96754 0.49609 0.02445 0.0
H2229 H 0.97287 0.53584 0.02644 0.0
H2230 H 0.03604 0.58548 0.04157 0.0
H2231 H 0.03334 0.57705 0.06443 0.0
H2232 H 0.49788 0.55484 0.95838 0.0
H2233 H 0.49277 0.5472 0.98141 0.0
H2234 H 0.56162 0.51365 0.98068 0.0
H2235 H 0.56572 0.51994 0.95791 0.0
H2236 H 0.48462 0.48332 0.99828 0.0
H2237 H 0.59602 0.60389 1.00373 0.0
H2238 H 0.56928 0.59422 0.9904 0.0
H2239 H 0.59538 0.57729 0.99153 0.0
C2240 C 0.51111 0.54494 0.96312 0.0
C2241 C 0.53244 0.5383 0.95633 0.0
C2242 C 0.5084 0.5408 0.97628 0.0
C2243 C 0.52715 0.53021 0.98283 0.0
C2244 C 0.54705 0.52199 0.97592 0.0
H2245 H 0.58474 0.52848 0.06085 0.0
H2246 H 0.57853 0.52399 0.03784 0.0
C2247 C 0.54945 0.52576 0.96287 0.0
C2248 C 0.52808 0.52975 0.99688 0.0
H2249 H 0.57519 0.57219 0.02201 0.0
C2250 C 0.50421 0.50288 1.00348 0.0
C2251 C 0.55394 0.55499 1.00369 0.0
C2252 C 0.58016 0.58441 0.99706 0.0
C2253 C 0.50569 0.50056 0.01667 0.0
C2254 C 0.53155 0.52586 0.02349 0.0
C2255 C 0.5554 0.5527 0.01685 0.0
C2256 C 0.53386 0.52547 0.03753 0.0
C2257 C 0.47998 0.47066 0.02321 0.0
C2258 C 0.51083 0.5276 0.04509 0.0
C2259 C 0.51453 0.5304 0.05818 0.0
C2260 C 0.54098 0.53046 0.06409 0.0
C2261 C 0.56357 0.52739 0.0566 0.0
C2262 C 0.56019 0.5252 0.04344 0.0
H2263 H 0.466 0.45045 0.01652 0.0
H2264 H 0.49098 0.46237 0.03045 0.0
H2265 H 0.46284 0.47651 0.028 0.0
H2266 H 0.49063 0.52845 0.04083 0.0
H2267 H 0.4972 0.53358 0.06369 0.0
H2268 H 0.2407 0.42561 0.39594 0.0
H2269 H 0.24608 0.42629 0.37285 0.0
H2270 H 0.19714 0.32184 0.37246 0.0
H2271 H 0.19184 0.32103 0.3952 0.0
H2272 H 0.27252 0.39807 0.35507 0.0
H2273 H 0.13942 0.34266 0.34996 0.0
H2274 H 0.16099 0.36264 0.36412 0.0
H2275 H 0.15176 0.32185 0.36074 0.0
C2276 C 0.23181 0.40291 0.39093 0.0
C2277 C 0.21557 0.37329 0.39744 0.0
C2278 C 0.23466 0.40326 0.37771 0.0
C2279 C 0.22126 0.37403 0.37081 0.0
C2280 C 0.20701 0.3447 0.37745 0.0
H2281 H 0.18376 0.31557 0.29128 0.0
H2282 H 0.19074 0.31604 0.31425 0.0
C2283 C 0.2042 0.34433 0.39052 0.0
C2284 C 0.22063 0.37349 0.35671 0.0
H2285 H 0.16854 0.3451 0.33165 0.0
C2286 C 0.2498 0.38665 0.34995 0.0
C2287 C 0.19102 0.35853 0.34993 0.0
C2288 C 0.15894 0.3458 0.35651 0.0
C2289 C 0.25008 0.38461 0.33672 0.0
C2290 C 0.22041 0.36929 0.32996 0.0
C2291 C 0.1913 0.35633 0.33674 0.0
C2292 C 0.21891 0.36837 0.31588 0.0
C2293 C 0.28223 0.39838 0.33009 0.0
C2294 C 0.23254 0.39742 0.30906 0.0
C2295 C 0.22856 0.39712 0.29604 0.0
C2296 C 0.21074 0.36777 0.28937 0.0
C2297 C 0.19799 0.33852 0.29607 0.0
C2298 C 0.20178 0.33884 0.30923 0.0
H2299 H 0.30155 0.40036 0.33648 0.0
H2300 H 0.28061 0.38319 0.32189 0.0
H2301 H 0.28951 0.42309 0.32665 0.0
H2302 H 0.24524 0.42055 0.31387 0.0
H2303 H 0.23866 0.42015 0.29119 0.0
H2304 H 0.74928 0.89012 0.39641 0.0
H2305 H 0.75307 0.89768 0.37371 0.0
H2306 H 0.64903 0.85116 0.37134 0.0
H2307 H 0.64518 0.84277 0.39428 0.0
H2308 H 0.72514 0.84571 0.35629 0.0
H2309 H 0.68107 0.93248 0.34838 0.0
H2310 H 0.69535 0.92763 0.36348 0.0
H2311 H 0.65582 0.89792 0.35803 0.0
C2312 C 0.72716 0.88198 0.39112 0.0
C2313 C 0.69691 0.86589 0.39719 0.0
C2314 C 0.72939 0.88629 0.37808 0.0
C2315 C 0.70142 0.87511 0.37069 0.0
C2316 C 0.67108 0.86037 0.37679 0.0
H2317 H 0.66913 0.85903 0.28942 0.0
H2318 H 0.66491 0.86246 0.31225 0.0
C2319 C 0.66883 0.85567 0.38992 0.0
C2320 C 0.7043 0.87671 0.35662 0.0
H2321 H 0.69128 0.90996 0.3303 0.0
C2322 C 0.71781 0.85987 0.35063 0.0
C2323 C 0.69473 0.89506 0.34914 0.0
C2324 C 0.68114 0.91456 0.35503 0.0
C2325 C 0.7215 0.86039 0.33747 0.0
C2326 C 0.7123 0.87906 0.32996 0.0
C2327 C 0.69862 0.89582 0.33595 0.0
C2328 C 0.71578 0.88049 0.31588 0.0
C2329 C 0.73432 0.84001 0.33173 0.0
C2330 C 0.74595 0.89053 0.31009 0.0
C2331 C 0.74834 0.88843 0.29698 0.0
C2332 C 0.72077 0.87702 0.28933 0.0
C2333 C 0.69093 0.86853 0.29505 0.0
C2334 C 0.68848 0.87034 0.30813 0.0
H2335 H 0.73204 0.82079 0.33825 0.0
H2336 H 0.72128 0.82831 0.3229 0.0
H2337 H 0.76039 0.85572 0.32951 0.0
H2338 H 0.76761 0.89918 0.31574 0.0
H2339 H 0.77152 0.89466 0.29287 0.0
H2340 H 0.15823 0.8344 0.28933 0.0
H2341 H 0.15086 0.82684 0.31225 0.0
H2342 H 0.24234 0.91465 0.31787 0.0
H2343 H 0.24681 0.92459 0.29565 0.0
H2344 H 0.1795 0.81524 0.3299 0.0
H2345 H 0.19696 0.93477 0.34261 0.0
H2346 H 0.19239 0.92197 0.32648 0.0
H2347 H 0.23177 0.94128 0.33396 0.0
C2348 C 0.17608 0.85263 0.29551 0.0
C2349 C 0.2036 0.87985 0.29051 0.0
C2350 C 0.17211 0.84809 0.30866 0.0
C2351 C 0.1957 0.87051 0.31706 0.0
C2352 C 0.2229 0.8975 0.31192 0.0
H2353 H 0.26384 0.8976 0.39269 0.0
H2354 H 0.25438 0.89343 0.3701 0.0
C2355 C 0.22603 0.90269 0.299 0.0
C2356 C 0.19327 0.86575 0.33111 0.0
H2357 H 0.21082 0.90801 0.3588 0.0
C2358 C 0.18577 0.83544 0.3362 0.0
C2359 C 0.20087 0.89173 0.33959 0.0
C2360 C 0.20554 0.92406 0.33534 0.0
C2361 C 0.18769 0.83111 0.34925 0.0
C2362 C 0.1978 0.85784 0.35751 0.0
C2363 C 0.2038 0.88761 0.3525 0.0
C2364 C 0.20385 0.85642 0.37127 0.0
C2365 C 0.17994 0.79823 0.35406 0.0
C2366 C 0.17895 0.83627 0.37962 0.0
C2367 C 0.18447 0.83852 0.39269 0.0
C2368 C 0.21486 0.86139 0.39768 0.0
C2369 C 0.24005 0.88006 0.38922 0.0
C2370 C 0.23463 0.87771 0.37625 0.0
H2371 H 0.1791 0.78202 0.34638 0.0
H2372 H 0.19805 0.8005 0.36114 0.0
H2373 H 0.15583 0.78657 0.35866 0.0
H2374 H 0.15483 0.81991 0.37611 0.0
H2375 H 0.16439 0.82369 0.39881 0.0
H2376 H 0.89832 0.6773 0.73113 0.0
H2377 H 0.90379 0.67518 0.70835 0.0
H2378 H 0.86736 0.74117 0.70358 0.0
H2379 H 0.86278 0.74395 0.72641 0.0
H2380 H 0.85577 0.65271 0.69114 0.0
H2381 H 0.94354 0.78073 0.6798 0.0
H2382 H 0.93743 0.76518 0.69561 0.0
H2383 H 0.90982 0.77638 0.68882 0.0
C2384 C 0.89312 0.6927 0.72528 0.0
C2385 C 0.88181 0.71223 0.73063 0.0
C2386 C 0.89565 0.69098 0.7122 0.0
C2387 C 0.88672 0.70857 0.70412 0.0
C2388 C 0.87549 0.72818 0.70951 0.0
H2389 H 0.81859 0.68021 0.62832 0.0
H2390 H 0.8272 0.68277 0.65097 0.0
C2391 C 0.87296 0.72988 0.72258 0.0
C2392 C 0.88676 0.70457 0.69014 0.0
H2393 H 0.91277 0.74678 0.66255 0.0
C2394 C 0.86859 0.6733 0.68493 0.0
C2395 C 0.90365 0.73126 0.68191 0.0
C2396 C 0.92497 0.76523 0.68681 0.0
C2397 C 0.86582 0.66826 0.67184 0.0
C2398 C 0.88152 0.69507 0.66364 0.0
C2399 C 0.90065 0.72618 0.66881 0.0
C2400 C 0.87618 0.69147 0.64977 0.0
C2401 C 0.84577 0.63428 0.66676 0.0
C2402 C 0.90061 0.69483 0.64144 0.0
C2403 C 0.89569 0.69339 0.62835 0.0
C2404 C 0.86649 0.68929 0.62336 0.0
C2405 C 0.84169 0.68436 0.6318 0.0
C2406 C 0.84649 0.68559 0.64479 0.0
H2407 H 0.83936 0.61566 0.67417 0.0
H2408 H 0.82302 0.63134 0.66268 0.0
H2409 H 0.85907 0.6299 0.65916 0.0
H2410 H 0.92366 0.69911 0.64506 0.0
H2411 H 0.91525 0.69691 0.62223 0.0
H2412 H 0.34797 0.22637 0.62228 0.0
H2413 H 0.34529 0.23208 0.64496 0.0
H2414 H 0.4104 0.19494 0.6504 0.0
H2415 H 0.41333 0.1894 0.62759 0.0
H2416 H 0.32462 0.17869 0.66319 0.0
H2417 H 0.44923 0.28021 0.67199 0.0
H2418 H 0.43036 0.2722 0.6567 0.0
H2419 H 0.44641 0.24766 0.66248 0.0
C2420 C 0.36287 0.22075 0.62819 0.0
C2421 C 0.38211 0.20884 0.62304 0.0
C2422 C 0.36079 0.22344 0.64124 0.0
C2423 C 0.37798 0.21438 0.64942 0.0
C2424 C 0.39737 0.20267 0.64429 0.0
H2425 H 0.41703 0.20569 0.72633 0.0
H2426 H 0.41421 0.21018 0.70395 0.0
C2427 C 0.3992 0.19969 0.63126 0.0
C2428 C 0.37477 0.21591 0.6633 0.0
H2429 H 0.41842 0.25199 0.68975 0.0
C2430 C 0.34501 0.19479 0.66906 0.0
C2431 C 0.40127 0.23709 0.6709 0.0
C2432 C 0.4336 0.26081 0.66525 0.0
C2433 C 0.34162 0.19279 0.68225 0.0
C2434 C 0.36853 0.2134 0.68995 0.0
C2435 C 0.39774 0.23581 0.68403 0.0
C2436 C 0.36864 0.21 0.704 0.0
C2437 C 0.30969 0.16739 0.68768 0.0
C2438 C 0.34413 0.20852 0.71193 0.0
C2439 C 0.34475 0.20369 0.72499 0.0
C2440 C 0.37029 0.20106 0.73038 0.0
C2441 C 0.39576 0.2051 0.72252 0.0
C2442 C 0.39459 0.20866 0.7096 0.0
H2443 H 0.29468 0.14852 0.68066 0.0
H2444 H 0.31341 0.15526 0.69588 0.0
H2445 H 0.29577 0.17913 0.69078 0.0
H2446 H 0.32448 0.21099 0.70808 0.0
H2447 H 0.32513 0.2016 0.73078 0.0
H2448 H 0.82707 0.16602 0.62248 0.0
H2449 H 0.82025 0.15844 0.64536 0.0
H2450 H 0.90846 0.24967 0.65086 0.0
H2451 H 0.91251 0.25896 0.62846 0.0
H2452 H 0.85223 0.14974 0.66285 0.0
H2453 H 0.85812 0.26454 0.67548 0.0
H2454 H 0.85459 0.25173 0.65937 0.0
H2455 H 0.89385 0.27389 0.66684 0.0
C2456 C 0.84443 0.18483 0.6286 0.0
C2457 C 0.87109 0.21276 0.62355 0.0
C2458 C 0.84073 0.18033 0.64174 0.0
C2459 C 0.86358 0.20364 0.65008 0.0
C2460 C 0.88974 0.23159 0.6449 0.0
H2461 H 0.9316 0.23448 0.72556 0.0
H2462 H 0.92189 0.22979 0.70299 0.0
C2463 C 0.89271 0.2365 0.63195 0.0
C2464 C 0.86131 0.19882 0.6641 0.0
H2465 H 0.87429 0.24013 0.69181 0.0
C2466 C 0.85648 0.16936 0.66916 0.0
C2467 C 0.86627 0.22402 0.67256 0.0
C2468 C 0.8681 0.25509 0.66824 0.0
C2469 C 0.85852 0.1653 0.68222 0.0
C2470 C 0.86595 0.19145 0.69049 0.0
C2471 C 0.86926 0.22024 0.6855 0.0
C2472 C 0.87229 0.19062 0.70424 0.0
C2473 C 0.85384 0.13348 0.68704 0.0
C2474 C 0.84801 0.16949 0.71261 0.0
C2475 C 0.85358 0.17226 0.72568 0.0
C2476 C 0.88338 0.19653 0.73061 0.0
C2477 C 0.90812 0.21609 0.72213 0.0
C2478 C 0.90261 0.21335 0.70918 0.0
H2479 H 0.85429 0.11791 0.67936 0.0
H2480 H 0.87284 0.13759 0.69402 0.0
H2481 H 0.82999 0.12014 0.69181 0.0
H2482 H 0.82428 0.15189 0.70911 0.0
H2483 H 0.83396 0.15665 0.73187 0.0
H2484 H 0.24174 0.87956 0.20187 0.0
H2485 H 0.2793 0.89227 0.18379 0.0
H2486 H 0.36086 0.9403 0.20878 0.0
H2487 H 0.32566 0.92698 0.22619 0.0
H2488 H 0.3274 0.94903 0.17329 0.0
H2489 H 0.38893 0.88583 0.19142 0.0
H2490 H 0.35177 0.87994 0.19826 0.0
H2491 H 0.39036 0.91345 0.20313 0.0
C2492 C 0.26763 0.89236 0.20349 0.0
C2493 C 0.2798 0.90198 0.21579 0.0
C2494 C 0.28927 0.8998 0.19312 0.0
C2495 C 0.32344 0.91669 0.19482 0.0
C2496 C 0.33505 0.92634 0.207 0.0
H2497 H 0.50291 0.03208 0.15091 0.0
H2498 H 0.46161 1.00842 0.16773 0.0
C2499 C 0.31408 0.91882 0.21714 0.0
C2500 C 0.34801 0.92594 0.18428 0.0
H2501 H 0.42059 0.93026 0.17712 0.0
C2502 C 0.34742 0.9444 0.17408 0.0
C2503 C 0.37463 0.92019 0.18506 0.0
C2504 C 0.37624 0.89847 0.195 0.0
C2505 C 0.37286 0.95806 0.16512 0.0
C2506 C 0.40014 0.95374 0.16635 0.0
C2507 C 0.40034 0.93454 0.17629 0.0
C2508 C 0.42729 0.96692 0.15683 0.0
C2509 C 0.3707 0.97746 0.15439 0.0
C2510 C 0.42274 0.95097 0.1453 0.0
C2511 C 0.44647 0.964 0.13589 0.0
C2512 C 0.47571 0.99365 0.13755 0.0
C2513 C 0.48117 1.00896 0.14934 0.0
C2514 C 0.45725 0.99561 0.1589 0.0
H2515 H 0.35014 0.98204 0.15548 0.0
H2516 H 0.39358 1.00106 0.1536 0.0
H2517 H 0.36742 0.96402 0.14548 0.0
H2518 H 0.40023 0.92879 0.14341 0.0
H2519 H 0.44115 0.95151 0.12695 0.0
H2520 H 0.05167 0.5132 0.1522 0.0
H2521 H 0.07697 0.49848 0.16937 0.0
H2522 H 0.13937 0.4891 0.14246 0.0
H2523 H 0.11688 0.5063 0.12598 0.0
H2524 H 0.07779 0.44739 0.17527 0.0
H2525 H 0.2068 0.5327 0.16679 0.0
H2526 H 0.1758 0.53699 0.15886 0.0
H2527 H 0.18966 0.51065 0.15262 0.0
C2528 C 0.07177 0.5094 0.15009 0.0
C2529 C 0.08222 0.51136 0.13759 0.0
C2530 C 0.08603 0.50041 0.15991 0.0
C2531 C 0.111 0.49305 0.1575 0.0
C2532 C 0.12147 0.49573 0.14501 0.0
H2533 H 0.17269 0.37288 0.20166 0.0
H2534 H 0.15672 0.39652 0.1842 0.0
C2535 C 0.10799 0.5053 0.13542 0.0
C2536 C 0.12474 0.48038 0.16754 0.0
H2537 H 0.19501 0.48382 0.17785 0.0
C2538 C 0.10347 0.45567 0.17578 0.0
C2539 C 0.15848 0.49099 0.16864 0.0
C2540 C 0.18392 0.51953 0.16134 0.0
C2541 C 0.11461 0.44101 0.18456 0.0
C2542 C 0.14789 0.45038 0.1851 0.0
C2543 C 0.16932 0.47553 0.17716 0.0
C2544 C 0.16109 0.43719 0.19496 0.0
C2545 C 0.09079 0.4159 0.19349 0.0
C2546 C 0.17034 0.45268 0.20663 0.0
C2547 C 0.17992 0.43965 0.21641 0.0
C2548 C 0.18039 0.41026 0.21505 0.0
C2549 C 0.17293 0.39552 0.20311 0.0
C2550 C 0.1634 0.4089 0.19316 0.0
H2551 H 0.06536 0.40906 0.19131 0.0
H2552 H 0.09308 0.39381 0.19323 0.0
H2553 H 0.09645 0.42566 0.20321 0.0
H2554 H 0.16906 0.47446 0.20835 0.0
H2555 H 0.18554 0.45207 0.22537 0.0
H2556 H 0.7011 0.77914 0.21756 0.0
H2557 H 0.67465 0.73958 0.20117 0.0
H2558 H 0.61551 0.7819 0.19239 0.0
H2559 H 0.64232 0.82225 0.20939 0.0
H2560 H 0.61186 0.6927 0.19982 0.0
H2561 H 0.64241 0.76998 0.15734 0.0
H2562 H 0.66253 0.78575 0.17217 0.0
H2563 H 0.6222 0.77861 0.16972 0.0
C2564 C 0.68287 0.78074 0.21216 0.0
C2565 C 0.67425 0.80444 0.21503 0.0
C2566 C 0.66746 0.75763 0.20266 0.0
C2567 C 0.64273 0.75708 0.19536 0.0
C2568 C 0.63471 0.7816 0.1977 0.0
H2569 H 0.54013 0.62386 0.13204 0.0
H2570 H 0.55543 0.66332 0.14908 0.0
C2571 C 0.65028 0.80499 0.20741 0.0
C2572 C 0.62537 0.72988 0.18584 0.0
H2573 H 0.61165 0.71348 0.15432 0.0
C2574 C 0.61177 0.69741 0.18987 0.0
C2575 C 0.62463 0.73535 0.17279 0.0
C2576 C 0.63888 0.76926 0.16766 0.0
C2577 C 0.59815 0.67083 0.1814 0.0
C2578 C 0.59871 0.67634 0.16829 0.0
C2579 C 0.61134 0.70875 0.16428 0.0
C2580 C 0.58648 0.64915 0.15862 0.0
C2581 C 0.5827 0.63697 0.18669 0.0
C2582 C 0.59779 0.62671 0.15819 0.0
C2583 C 0.58845 0.60343 0.14844 0.0
C2584 C 0.5676 0.60194 0.13878 0.0
C2585 C 0.55551 0.62359 0.13947 0.0
C2586 C 0.5647 0.64666 0.14918 0.0
H2587 H 0.57456 0.63623 0.19652 0.0
H2588 H 0.56154 0.61966 0.18099 0.0
H2589 H 0.60075 0.62873 0.18674 0.0
H2590 H 0.61522 0.62821 0.16505 0.0
H2591 H 0.59932 0.58818 0.14798 0.0
H2592 H 0.95417 0.46196 0.88489 0.0
H2593 H 0.93026 0.42067 0.86823 0.0
H2594 H 0.02504 0.43614 0.85916 0.0
H2595 H 0.04884 0.47745 0.87576 0.0
H2596 H 0.94159 0.41873 0.84118 0.0
H2597 H 0.97204 0.33834 0.86829 0.0
H2598 H 0.97232 0.37316 0.87518 0.0
H2599 H 1.00563 0.37838 0.86561 0.0
C2600 C 0.97008 0.45756 0.87898 0.0
C2601 C 1.00368 0.47404 0.8814 0.0
C2602 C 0.95629 0.43354 0.86952 0.0
C2603 C 0.9756 0.42466 0.8624 0.0
C2604 C 1.00934 0.44207 0.8645 0.0
H2605 H 0.95315 0.2746 0.8097 0.0
H2606 H 0.96812 0.31554 0.8261 0.0
C2607 C 0.02312 0.46623 0.87388 0.0
C2608 C 0.96058 0.39626 0.85333 0.0
H2609 H 0.95252 0.32154 0.84771 0.0
C2610 C 0.94391 0.39743 0.84262 0.0
C2611 C 0.96303 0.36803 0.85515 0.0
C2612 C 0.97893 0.36407 0.86672 0.0
C2613 C 0.93128 0.37227 0.83347 0.0
C2614 C 0.93437 0.34417 0.83515 0.0
C2615 C 0.95016 0.34276 0.84613 0.0
C2616 C 0.92336 0.31692 0.82549 0.0
C2617 C 0.91605 0.37705 0.82186 0.0
C2618 C 0.8925 0.30221 0.81972 0.0
C2619 C 0.88414 0.27893 0.81005 0.0
C2620 C 0.9058 0.26859 0.80615 0.0
C2621 C 0.93562 0.28156 0.81249 0.0
C2622 C 0.94428 0.30529 0.82192 0.0
H2623 H 0.92412 0.40308 0.82028 0.0
H2624 H 0.92201 0.3675 0.81338 0.0
H2625 H 0.88934 0.3641 0.82302 0.0
H2626 H 0.87498 0.30922 0.82243 0.0
H2627 H 0.86129 0.27019 0.80519 0.0
H2628 H 0.57542 0.53258 0.86989 0.0
H2629 H 0.61399 0.54624 0.85215 0.0
H2630 H 0.6905 0.6186 0.87504 0.0
H2631 H 0.65435 0.60475 0.89231 0.0
H2632 H 0.65331 0.60047 0.83819 0.0
H2633 H 0.73552 0.57221 0.86432 0.0
H2634 H 0.6957 0.56085 0.87011 0.0
H2635 H 0.7296 0.60084 0.87314 0.0
C2636 C 0.60045 0.55133 0.87112 0.0
C2637 C 0.61103 0.56715 0.88283 0.0
C2638 C 0.62268 0.55916 0.86094 0.0
C2639 C 0.65596 0.58292 0.86225 0.0
C2640 C 0.66571 0.59935 0.87371 0.0
H2641 H 0.83273 0.70127 0.81768 0.0
H2642 H 0.79154 0.67662 0.83447 0.0
C2643 C 0.64418 0.59142 0.88371 0.0
C2644 C 0.68117 0.59192 0.85196 0.0
H2645 H 0.76002 0.61014 0.84717 0.0
C2646 C 0.67638 0.60203 0.84013 0.0
C2647 C 0.71171 0.5941 0.85423 0.0
C2648 C 0.71826 0.58106 0.86609 0.0
C2649 C 0.7013 0.61538 0.83095 0.0
C2650 C 0.73229 0.61916 0.83354 0.0
C2651 C 0.73679 0.6082 0.84518 0.0
C2652 C 0.75963 0.63301 0.82404 0.0
C2653 C 0.69449 0.62613 0.81858 0.0
C2654 C 0.75671 0.61628 0.81283 0.0
C2655 C 0.7805 0.62993 0.80344 0.0
C2656 C 0.80826 0.66095 0.80483 0.0
C2657 C 0.81225 0.67711 0.81634 0.0
C2658 C 0.78834 0.66315 0.82588 0.0
H2659 H 0.67232 0.62825 0.81897 0.0
H2660 H 0.71527 0.64984 0.81569 0.0
H2661 H 0.69087 0.60801 0.81126 0.0
H2662 H 0.73537 0.5929 0.81113 0.0
H2663 H 0.77618 0.6168 0.79468 0.0
H2664 H 0.37139 0.15553 0.81714 0.0
H2665 H 0.39651 0.13957 0.8338 0.0
H2666 H 0.48553 0.18166 0.81269 0.0
H2667 H 0.46136 0.19932 0.79677 0.0
H2668 H 0.41449 0.09789 0.83309 0.0
H2669 H 0.52761 0.2104 0.84498 0.0
H2670 H 0.49642 0.21095 0.83561 0.0
H2671 H 0.52566 0.20225 0.82852 0.0
C2672 C 0.39686 0.16304 0.81646 0.0
C2673 C 0.41453 0.17979 0.80576 0.0
C2674 C 0.41121 0.1533 0.82589 0.0
C2675 C 0.4435 0.15959 0.82482 0.0
C2676 C 0.46125 0.17729 0.81427 0.0
H2677 H 0.54527 0.07524 0.87047 0.0
H2678 H 0.53196 0.09922 0.85224 0.0
C2679 C 0.4472 0.1875 0.80506 0.0
C2680 C 0.45742 0.14502 0.83391 0.0
H2681 H 0.52443 0.16091 0.85156 0.0
C2682 C 0.43855 0.11197 0.83708 0.0
C2683 C 0.48913 0.16269 0.83921 0.0
C2684 C 0.5107 0.19858 0.837 0.0
C2685 C 0.44997 0.09647 0.84525 0.0
C2686 C 0.48142 0.11407 0.85059 0.0
C2687 C 0.50069 0.14695 0.8473 0.0
C2688 C 0.49159 0.10011 0.86125 0.0
C2689 C 0.42776 0.06114 0.8483 0.0
C2690 C 0.47399 0.09289 0.87239 0.0
C2691 C 0.48124 0.07928 0.88254 0.0
C2692 C 0.5068 0.07206 0.8823 0.0
C2693 C 0.52507 0.07958 0.87111 0.0
C2694 C 0.51759 0.09362 0.8607 0.0
H2695 H 0.40937 0.04864 0.84083 0.0
H2696 H 0.44161 0.04829 0.84963 0.0
H2697 H 0.41467 0.0593 0.85715 0.0
H2698 H 0.45434 0.09803 0.87331 0.0
H2699 H 0.46646 0.07505 0.89078 0.0
H2700 H 0.96679 0.20767 0.5571 0.0
H2701 H 1.00786 0.22491 0.54074 0.0
H2702 H 0.9594 0.2661 0.52004 0.0
H2703 H 0.91883 0.25005 0.5369 0.0
H2704 H 1.01563 0.21769 0.517 0.0
H2705 H 0.04551 0.34518 0.52311 0.0
H2706 H 0.01731 0.31329 0.53326 0.0
H2707 H 1.0045 0.31947 0.5181 0.0
C2708 C 0.96423 0.21958 0.54889 0.0
C2709 C 0.9391 0.22712 0.54834 0.0
C2710 C 0.98809 0.22973 0.53951 0.0
C2711 C 0.98788 0.24798 0.52919 0.0
C2712 C 0.96117 0.25315 0.52806 0.0
H2713 H 0.0926 0.3256 0.4626 0.0
H2714 H 0.05808 0.30291 0.48032 0.0
C2715 C 0.93732 0.24323 0.53758 0.0
C2716 C 0.01642 0.26284 0.52018 0.0
H2717 H 0.07146 0.33455 0.50625 0.0
C2718 C 0.02797 0.24335 0.5148 0.0
C2719 C 0.03347 0.29652 0.51732 0.0
C2720 C 0.02483 0.3199 0.52334 0.0
C2721 C 0.0546 0.25619 0.50636 0.0
C2722 C 0.07065 0.28954 0.50318 0.0
C2723 C 0.05967 0.30909 0.50877 0.0
C2724 C 0.09444 0.30345 0.49246 0.0
C2725 C 0.06469 0.23382 0.50045 0.0
C2726 C 0.12753 0.31209 0.49314 0.0
C2727 C 0.14873 0.32643 0.48269 0.0
C2728 C 0.13707 0.33213 0.47135 0.0
C2729 C 0.10375 0.32287 0.47099 0.0
C2730 C 0.08323 0.30925 0.48123 0.0
H2731 H 0.05031 0.20858 0.50399 0.0
H2732 H 0.06171 0.23361 0.49011 0.0
H2733 H 0.09073 0.24291 0.50238 0.0
H2734 H 0.13698 0.30787 0.50173 0.0
H2735 H 0.17376 0.33235 0.48342 0.0
H2736 H 0.7752 0.82065 0.45963 0.0
H2737 H 0.79585 0.80536 0.47699 0.0
H2738 H 0.75782 0.84864 0.50242 0.0
H2739 H 0.73427 0.86272 0.48445 0.0
H2740 H 0.83862 0.83283 0.4927 0.0
H2741 H 0.72605 0.76698 0.52084 0.0
H2742 H 0.72583 0.78165 0.50529 0.0
H2743 H 0.73934 0.8091 0.51846 0.0
C2744 C 0.77049 0.82707 0.4688 0.0
C2745 C 0.75208 0.84279 0.47032 0.0
C2746 C 0.78293 0.81824 0.47893 0.0
C2747 C 0.77841 0.82502 0.49131 0.0
C2748 C 0.76111 0.84192 0.49307 0.0
H2749 H 0.85406 0.786 0.55988 0.0
H2750 H 0.83801 0.80941 0.54303 0.0
C2751 C 0.74788 0.85047 0.48272 0.0
C2752 C 0.79222 0.81388 0.50184 0.0
H2753 H 0.77309 0.76916 0.52902 0.0
C2754 C 0.82395 0.81876 0.50057 0.0
C2755 C 0.77375 0.79545 0.51232 0.0
C2756 C 0.73928 0.78768 0.5143 0.0
C2757 C 0.83709 0.80555 0.50909 0.0
C2758 C 0.8185 0.787 0.51942 0.0
C2759 C 0.7873 0.78289 0.521 0.0
C2760 C 0.83175 0.77363 0.52917 0.0
C2761 C 0.87103 0.81174 0.50709 0.0
C2762 C 0.83489 0.74594 0.52705 0.0
C2763 C 0.84408 0.73202 0.53689 0.0
C2764 C 0.85057 0.74574 0.549 0.0
C2765 C 0.84935 0.77459 0.55072 0.0
C2766 C 0.83989 0.78806 0.54107 0.0
H2767 H 0.88347 0.82873 0.49921 0.0
H2768 H 0.88556 0.82191 0.51578 0.0
H2769 H 0.87019 0.78844 0.50505 0.0
H2770 H 0.82886 0.73426 0.51795 0.0
H2771 H 0.84422 0.70964 0.5352 0.0
H2772 H 0.1924 0.92756 0.47501 0.0
H2773 H 0.205 0.96748 0.49202 0.0
H2774 H 0.30523 0.99295 0.49052 0.0
H2775 H 0.29253 0.9521 0.47441 0.0
H2776 H 0.24695 0.98009 0.51763 0.0
H2777 H 0.29629 0.0789 0.48241 0.0
H2778 H 0.26648 0.03753 0.47856 0.0
H2779 H 0.30818 0.04866 0.48053 0.0
C2780 C 0.21686 0.94073 0.47864 0.0
C2781 C 0.24137 0.93633 0.47314 0.0
C2782 C 0.22419 0.964 0.48828 0.0
C2783 C 0.25634 0.98396 0.49247 0.0
C2784 C 0.28033 0.97837 0.48743 0.0
H2785 H 0.38173 0.15142 0.53868 0.0
H2786 H 0.35558 0.1099 0.52221 0.0
C2787 C 0.27294 0.95484 0.47806 0.0
C2788 C 0.26581 0.01154 0.50166 0.0
H2789 H 0.30956 0.09468 0.5037 0.0
C2790 C 0.26022 1.00514 0.51457 0.0
C2791 C 0.28321 0.04443 0.49779 0.0
C2792 C 0.28879 0.05304 0.48407 0.0
C2793 C 0.27264 0.03043 0.52364 0.0
C2794 C 0.29111 0.06343 0.51979 0.0
C2795 C 0.29581 0.06971 0.50682 0.0
C2796 C 0.30667 0.09152 0.52902 0.0
C2797 C 0.26696 0.02132 0.53733 0.0
C2798 C 0.28819 0.09669 0.53809 0.0
C2799 C 0.30319 0.12093 0.54735 0.0
C2800 C 0.33714 0.14123 0.5478 0.0
C2801 C 0.35553 0.1372 0.53838 0.0
C2802 C 0.3405 0.11298 0.52905 0.0
H2803 H 0.25994 0.99553 0.53885 0.0
H2804 H 0.28893 0.03686 0.543 0.0
H2805 H 0.24693 0.02472 0.54085 0.0
H2806 H 0.26211 0.08127 0.53827 0.0
H2807 H 0.28826 0.12253 0.55467 0.0
H2808 H 0.47443 0.3139 0.11496 0.0
H2809 H 0.47665 0.2653 0.10997 0.0
H2810 H 0.5691 0.32349 0.09189 0.0
H2811 H 0.56796 0.37298 0.09776 0.0
H2812 H 0.47785 0.23439 0.09062 0.0
H2813 H 0.59509 0.27636 0.11534 0.0
H2814 H 0.57422 0.29914 0.11586 0.0
H2815 H 0.59699 0.30059 0.10216 0.0
C2816 C 0.49536 0.31653 0.10993 0.0
C2817 C 0.52142 0.34757 0.10708 0.0
C2818 C 0.4965 0.28851 0.10698 0.0
C2819 C 0.52348 0.29038 0.10086 0.0
C2820 C 0.54848 0.3212 0.09703 0.0
H2821 H 0.52276 0.10543 0.08578 0.0
H2822 H 0.52401 0.157 0.08183 0.0
C2823 C 0.54757 0.34956 0.10019 0.0
C2824 C 0.52517 0.25988 0.09917 0.0
H2825 H 0.56847 0.22309 0.10768 0.0
C2826 C 0.49795 0.23217 0.0942 0.0
C2827 C 0.55126 0.25654 0.10388 0.0
C2828 C 0.58094 0.28461 0.1097 0.0
C2829 C 0.4955 0.2014 0.09431 0.0
C2830 C 0.52108 0.19809 0.09935 0.0
C2831 C 0.5489 0.22579 0.10379 0.0
C2832 C 0.51802 0.16567 0.10132 0.0
C2833 C 0.46482 0.17216 0.08975 0.0
C2834 C 0.5137 0.15317 0.11352 0.0
C2835 C 0.51301 0.1239 0.11578 0.0
C2836 C 0.51628 0.10624 0.10588 0.0
C2837 C 0.51941 0.11809 0.09357 0.0
C2838 C 0.5204 0.14768 0.09131 0.0
H2839 H 0.44665 0.17856 0.08639 0.0
H2840 H 0.47053 0.16031 0.08196 0.0
H2841 H 0.45393 0.15416 0.09744 0.0
H2842 H 0.51158 0.16649 0.12137 0.0
H2843 H 0.51077 0.11542 0.12535 0.0
H2844 H 0.73264 0.19545 0.08799 0.0
H2845 H 0.78265 0.24692 0.08345 0.0
H2846 H 0.77742 0.28332 0.11989 0.0
H2847 H 0.72784 0.23211 0.12446 0.0
H2848 H 0.80072 0.32638 0.0904 0.0
H2849 H 0.86428 0.26883 0.11352 0.0
H2850 H 0.82739 0.24524 0.10467 0.0
H2851 H 0.82592 0.26127 0.11972 0.0
C2852 C 0.74153 0.21494 0.09481 0.0
C2853 C 0.72624 0.20992 0.10654 0.0
C2854 C 0.77017 0.24424 0.09224 0.0
C2855 C 0.78377 0.26894 0.10134 0.0
C2856 C 0.76728 0.2647 0.11271 0.0
H2857 H 0.9581 0.43145 0.12524 0.0
H2858 H 0.90722 0.38131 0.12149 0.0
C2859 C 0.73891 0.23548 0.1153 0.0
C2860 C 0.81705 0.29723 0.09983 0.0
H2861 H 0.89528 0.32441 0.10892 0.0
C2862 C 0.82155 0.32589 0.09423 0.0
C2863 C 0.84412 0.29656 0.10492 0.0
C2864 C 0.84051 0.26638 0.11103 0.0
C2865 C 0.85234 0.35426 0.09401 0.0
C2866 C 0.87927 0.35377 0.09944 0.0
C2867 C 0.87477 0.32475 0.10467 0.0
C2868 C 0.91129 0.3838 0.10127 0.0
C2869 C 0.85557 0.38496 0.08856 0.0
C2870 C 0.93122 0.40162 0.09114 0.0
C2871 C 0.96077 0.43041 0.0933 0.0
C2872 C 0.97069 0.44172 0.10562 0.0
C2873 C 0.95115 0.42325 0.11566 0.0
C2874 C 0.92197 0.39463 0.11353 0.0
H2875 H 0.83167 0.38245 0.08628 0.0
H2876 H 0.86846 0.40546 0.09524 0.0
H2877 H 0.87012 0.39119 0.07983 0.0
H2878 H 0.92376 0.3935 0.08159 0.0
H2879 H 0.97519 0.44436 0.08536 0.0
H2880 H 0.63521 0.56416 0.08469 0.0
H2881 H 0.68495 0.56144 0.08106 0.0
H2882 H 0.69944 0.56221 0.121 0.0
H2883 H 0.65057 0.56544 0.12464 0.0
H2884 H 0.75321 0.60262 0.09075 0.0
H2885 H 0.69279 0.47584 0.10779 0.0
H2886 H 0.67052 0.49533 0.10269 0.0
H2887 H 0.68823 0.5032 0.1181 0.0
C2888 C 0.64957 0.56467 0.09266 0.0
C2889 C 0.63912 0.56517 0.10497 0.0
C2890 C 0.67778 0.56281 0.09058 0.0
C2891 C 0.69552 0.56091 0.10078 0.0
C2892 C 0.68588 0.56309 0.113 0.0
H2893 H 0.85237 0.54386 0.12692 0.0
H2894 H 0.80107 0.54078 0.12174 0.0
C2895 C 0.65806 0.56516 0.11506 0.0
C2896 C 0.72358 0.55566 0.09898 0.0
H2897 H 0.75073 0.50404 0.10731 0.0
C2898 C 0.75266 0.58086 0.09413 0.0
C2899 C 0.7227 0.52715 0.10333 0.0
C2900 C 0.69181 0.49868 0.10817 0.0
C2901 C 0.78148 0.57933 0.09438 0.0
C2902 C 0.78104 0.55147 0.0994 0.0
C2903 C 0.75135 0.52548 0.10353 0.0
C2904 C 0.81137 0.55027 0.10192 0.0
C2905 C 0.81245 0.60844 0.08999 0.0
C2906 C 0.83404 0.55524 0.09246 0.0
C2907 C 0.86373 0.55709 0.09545 0.0
C2908 C 0.87117 0.55388 0.10796 0.0
C2909 C 0.84754 0.54682 0.11722 0.0
C2910 C 0.81812 0.54502 0.11425 0.0
H2911 H 0.80984 0.63026 0.08896 0.0
H2912 H 0.83257 0.61425 0.09664 0.0
H2913 H 0.81917 0.60303 0.0807 0.0
H2914 H 0.82916 0.55844 0.08281 0.0
H2915 H 0.88142 0.56256 0.08811 0.0
H2916 H 0.32004 0.4795 0.89692 0.0
H2917 H 0.2718 0.48048 0.90265 0.0
H2918 H 0.32454 0.55054 0.93173 0.0
H2919 H 0.37487 0.55319 0.92465 0.0
H2920 H 0.23495 0.46367 0.92002 0.0
H2921 H 0.2836 0.59713 0.91903 0.0
H2922 H 0.30774 0.57975 0.91404 0.0
H2923 H 0.3018 0.5838 0.93051 0.0
C2924 C 0.32203 0.49606 0.90429 0.0
C2925 C 0.3522 0.51743 0.90984 0.0
C2926 C 0.29384 0.49609 0.90779 0.0
C2927 C 0.29398 0.51627 0.91745 0.0
C2928 C 0.32353 0.53575 0.92384 0.0
H2929 H 0.10839 0.51383 0.93465 0.0
H2930 H 0.15915 0.51341 0.93872 0.0
C2931 C 0.35239 0.53671 0.91996 0.0
C2932 C 0.26283 0.51602 0.92042 0.0
H2933 H 0.22788 0.56394 0.9223 0.0
C2934 C 0.23378 0.4858 0.92059 0.0
C2935 C 0.26054 0.54467 0.92142 0.0
C2936 C 0.29 0.57817 0.92115 0.0
C2937 C 0.20315 0.48347 0.92073 0.0
C2938 C 0.20104 0.51195 0.9212 0.0
C2939 C 0.22968 0.5421 0.92197 0.0
C2940 C 0.16955 0.51082 0.91913 0.0
C2941 C 0.17303 0.45059 0.91969 0.0
C2942 C 0.15823 0.50875 0.90684 0.0
C2943 C 0.12946 0.50893 0.90451 0.0
C2944 C 0.11103 0.5108 0.91443 0.0
C2945 C 0.12172 0.51175 0.92682 0.0
C2946 C 0.15089 0.5119 0.92915 0.0
H2947 H 0.17821 0.43051 0.92113 0.0
H2948 H 0.15463 0.44833 0.92663 0.0
H2949 H 0.16233 0.44794 0.9102 0.0
H2950 H 0.17211 0.5077 0.89898 0.0
H2951 H 0.12197 0.50844 0.89488 0.0
H2952 H 0.53851 0.84428 0.89425 0.0
H2953 H 0.53716 0.79325 0.89899 0.0
H2954 H 0.5715 0.82736 0.93641 0.0
H2955 H 0.57282 0.87876 0.93169 0.0
H2956 H 0.60495 0.8014 0.91055 0.0
H2957 H 0.48899 0.72238 0.93554 0.0
H2958 H 0.4911 0.75033 0.92362 0.0
H2959 H 0.51143 0.76565 0.93829 0.0
C2960 C 0.5449 0.84057 0.90361 0.0
C2961 C 0.55568 0.86556 0.9126 0.0
C2962 C 0.54419 0.8114 0.9063 0.0
C2963 C 0.55426 0.80641 0.91804 0.0
C2964 C 0.56338 0.83054 0.92731 0.0
H2965 H 0.56713 0.62954 0.93543 0.0
H2966 H 0.56757 0.68123 0.93875 0.0
C2967 C 0.56395 0.85983 0.92463 0.0
C2968 C 0.55882 0.77782 0.91991 0.0
H2969 H 0.52079 0.6989 0.92989 0.0
C2970 C 0.58676 0.77916 0.91495 0.0
C2971 C 0.53521 0.74884 0.9257 0.0
C2972 C 0.50488 0.74635 0.93114 0.0
C2973 C 0.59132 0.75213 0.9153 0.0
C2974 C 0.56698 0.72252 0.92051 0.0
C2975 C 0.53955 0.72152 0.92594 0.0
C2976 C 0.56809 0.69181 0.91897 0.0
C2977 C 0.62206 0.7554 0.90987 0.0
C2978 C 0.5685 0.68062 0.90683 0.0
C2979 C 0.56862 0.65167 0.90496 0.0
C2980 C 0.56806 0.63269 0.91515 0.0
C2981 C 0.56816 0.64391 0.92739 0.0
C2982 C 0.56804 0.67323 0.92928 0.0
H2983 H 0.64211 0.781 0.9101 0.0
H2984 H 0.6298 0.74017 0.91504 0.0
H2985 H 0.61781 0.74742 0.89992 0.0
H2986 H 0.56793 0.69398 0.89871 0.0
H2987 H 0.56818 0.64357 0.89541 0.0
H2988 H 0.4363 0.95467 0.89544 0.0
H2989 H 0.38716 0.90279 0.89876 0.0
H2990 H 0.39833 0.91754 0.9388 0.0
H2991 H 0.44803 0.97024 0.93545 0.0
H2992 H 0.38614 0.85081 0.91209 0.0
H2993 H 0.30126 0.88707 0.9325 0.0
H2994 H 0.33751 0.9155 0.92421 0.0
H2995 H 0.34042 0.90281 0.93974 0.0
C2996 C 0.42799 0.9472 0.90497 0.0
C2997 C 0.44594 0.96652 0.91518 0.0
C2998 C 0.39996 0.91744 0.90685 0.0
C2999 C 0.38904 0.90611 0.91901 0.0
C3000 C 0.40613 0.9259 0.92931 0.0
H3001 H 0.20534 0.72253 0.93165 0.0
H3002 H 0.25842 0.77039 0.93633 0.0
C3003 C 0.43442 0.95601 0.92741 0.0
C3004 C 0.36077 0.87282 0.92057 0.0
H3005 H 0.28035 0.8316 0.92816 0.0
C3006 C 0.3631 0.84654 0.91577 0.0
C3007 C 0.33083 0.86715 0.92549 0.0
C3008 C 0.32703 0.89453 0.93074 0.0
C3009 C 0.3361 0.81506 0.91529 0.0
C3010 C 0.30555 0.80967 0.91945 0.0
C3011 C 0.30363 0.83563 0.9249 0.0
C3012 C 0.27496 0.77837 0.91706 0.0
C3013 C 0.34063 0.78801 0.91016 0.0
C3014 C 0.26664 0.76652 0.90473 0.0
C3015 C 0.23658 0.73928 0.90209 0.0
C3016 C 0.21389 0.72321 0.91168 0.0
C3017 C 0.22254 0.73416 0.9241 0.0
C3018 C 0.25274 0.76166 0.92675 0.0
H3019 H 0.36562 0.79278 0.91194 0.0
H3020 H 0.32317 0.76425 0.91435 0.0
H3021 H 0.33696 0.78647 0.89985 0.0
H3022 H 0.28284 0.77921 0.89702 0.0
H3023 H 0.23049 0.73151 0.89243 0.0
H3024 H 0.24087 0.70874 0.43635 0.0
H3025 H 0.24428 0.66038 0.43046 0.0
H3026 H 0.14256 0.59978 0.43859 0.0
H3027 H 0.13886 0.64749 0.44387 0.0
H3028 H 0.23528 0.61136 0.44492 0.0
H3029 H 0.14561 0.55843 0.40684 0.0
H3030 H 0.16047 0.59939 0.41231 0.0
H3031 H 0.1273 0.56558 0.42021 0.0
C3032 C 0.21909 0.68516 0.43647 0.0
C3033 C 0.18959 0.68202 0.44061 0.0
C3034 C 0.22108 0.65746 0.43321 0.0
C3035 C 0.19355 0.62618 0.43388 0.0
C3036 C 0.164 0.62341 0.4376 0.0
H3037 H 0.17099 0.44599 0.45658 0.0
H3038 H 0.17581 0.49896 0.45325 0.0
C3039 C 0.16199 0.65084 0.44077 0.0
C3040 C 0.19567 0.59608 0.43189 0.0
H3041 H 0.15477 0.52014 0.41881 0.0
C3042 C 0.21807 0.59173 0.439 0.0
C3043 C 0.17369 0.57031 0.42402 0.0
C3044 C 0.1507 0.57385 0.41532 0.0
C3045 C 0.21755 0.56185 0.43911 0.0
C3046 C 0.19362 0.53531 0.43211 0.0
C3047 C 0.17274 0.54025 0.42434 0.0
C3048 C 0.18828 0.5018 0.4336 0.0
C3049 C 0.24233 0.55873 0.44688 0.0
C3050 C 0.1917 0.48469 0.42347 0.0
C3051 C 0.18809 0.45376 0.42531 0.0
C3052 C 0.18099 0.43959 0.43731 0.0
C3053 C 0.17623 0.45622 0.44723 0.0
C3054 C 0.17946 0.48673 0.44537 0.0
H3055 H 0.26371 0.5828 0.44901 0.0
H3056 H 0.23125 0.5468 0.45591 0.0
H3057 H 0.25065 0.54361 0.44195 0.0
H3058 H 0.19828 0.49574 0.41428 0.0
H3059 H 0.19258 0.44179 0.41755 0.0
H3060 H 0.64664 0.74409 0.44935 0.0
H3061 H 0.59582 0.69551 0.44498 0.0
H3062 H 0.5656 0.75251 0.42338 0.0
H3063 H 0.61996 0.79967 0.42555 0.0
H3064 H 0.54466 0.6818 0.45327 0.0
H3065 H 0.51985 0.6781 0.40224 0.0
H3066 H 0.55932 0.70535 0.40864 0.0
H3067 H 0.52731 0.71512 0.40951 0.0
C3068 C 0.63066 0.7456 0.44262 0.0
C3069 C 0.63883 0.77513 0.43687 0.0
C3070 C 0.60056 0.7179 0.44053 0.0
C3071 C 0.57612 0.71943 0.43363 0.0
C3072 C 0.58389 0.74947 0.42818 0.0
H3073 H 0.36864 0.56621 0.43915 0.0
H3074 H 0.41743 0.61893 0.43471 0.0
C3075 C 0.61511 0.77672 0.42951 0.0
C3076 C 0.54224 0.69041 0.43351 0.0
H3077 H 0.47649 0.64097 0.4151 0.0
C3078 C 0.53024 0.67299 0.44479 0.0
C3079 C 0.52218 0.67875 0.42265 0.0
C3080 C 0.53293 0.69515 0.41007 0.0
C3081 C 0.50029 0.64408 0.44541 0.0
C3082 C 0.48075 0.63216 0.43457 0.0
C3083 C 0.49156 0.6501 0.42341 0.0
C3084 C 0.45028 0.59994 0.43472 0.0
C3085 C 0.49003 0.62594 0.45769 0.0
C3086 C 0.45229 0.5716 0.43568 0.0
C3087 C 0.42466 0.54171 0.4382 0.0
C3088 C 0.39418 0.53927 0.43979 0.0
C3089 C 0.39169 0.56723 0.4379 0.0
C3090 C 0.41957 0.59737 0.4354 0.0
H3091 H 0.50441 0.64127 0.46573 0.0
H3092 H 0.46395 0.61686 0.45952 0.0
H3093 H 0.49365 0.60465 0.45718 0.0
H3094 H 0.47561 0.57288 0.43515 0.0
H3095 H 0.4274 0.52065 0.43955 0.0
H3096 H 0.51414 0.83303 0.43901 0.0
H3097 H 0.46118 0.82727 0.43368 0.0
H3098 H 0.50403 0.93135 0.43432 0.0
H3099 H 0.55656 0.9371 0.43924 0.0
H3100 H 0.42699 0.84639 0.44834 0.0
H3101 H 0.45091 0.9108 0.40311 0.0
H3102 H 0.47816 0.89854 0.40957 0.0
H3103 H 0.47986 0.9354 0.4148 0.0
C3104 C 0.51236 0.85462 0.43759 0.0
C3105 C 0.53954 0.88553 0.43953 0.0
C3106 C 0.48205 0.85133 0.43465 0.0
C3107 C 0.47853 0.87889 0.43343 0.0
C3108 C 0.50603 0.9097 0.43488 0.0
H3109 H 0.33855 0.93934 0.43365 0.0
H3110 H 0.38467 0.93222 0.43122 0.0
C3111 C 0.53611 0.91297 0.4378 0.0
C3112 C 0.44596 0.87586 0.43181 0.0
H3113 H 0.40532 0.90528 0.41486 0.0
C3114 C 0.42198 0.85872 0.44088 0.0
C3115 C 0.43941 0.89218 0.42214 0.0
C3116 C 0.46338 0.90999 0.41179 0.0
C3117 C 0.39249 0.85889 0.44093 0.0
C3118 C 0.38635 0.876 0.43144 0.0
C3119 C 0.40988 0.89215 0.42213 0.0
C3120 C 0.35705 0.87979 0.43158 0.0
C3121 C 0.36907 0.84223 0.45158 0.0
C3122 C 0.32556 0.85292 0.4319 0.0
C3123 C 0.29874 0.85728 0.43348 0.0
C3124 C 0.30261 0.88855 0.43472 0.0
C3125 C 0.33392 0.91513 0.43319 0.0
C3126 C 0.36075 0.91093 0.43171 0.0
H3127 H 0.38084 0.83739 0.45963 0.0
H3128 H 0.35855 0.85707 0.45496 0.0
H3129 H 0.34899 0.81859 0.44824 0.0
H3130 H 0.32171 0.82853 0.43128 0.0
H3131 H 0.27508 0.83598 0.43416 0.0
H3132 H 0.79774 0.85697 0.22808 0.0
H3133 H 0.84899 0.85881 0.232 0.0
H3134 H 0.82584 0.84147 0.27132 0.0
H3135 H 0.77418 0.84038 0.26747 0.0
H3136 H 0.89885 0.90485 0.25028 0.0
H3137 H 0.85516 0.77403 0.2591 0.0
H3138 H 0.83106 0.78704 0.25044 0.0
H3139 H 0.83588 0.79339 0.26705 0.0
C3140 C 0.80329 0.85321 0.23757 0.0
C3141 C 0.78178 0.84844 0.24745 0.0
C3142 C 0.83271 0.85436 0.23979 0.0
C3143 C 0.84141 0.85038 0.25193 0.0
C3144 C 0.8196 0.84452 0.26185 0.0
H3145 H 0.01761 0.83605 0.26455 0.0
H3146 H 0.96879 0.83955 0.26923 0.0
C3147 C 0.79004 0.84374 0.25964 0.0
C3148 C 0.87388 0.85354 0.25394 0.0
H3149 H 0.91149 0.80879 0.2573 0.0
C3150 C 0.90166 0.88393 0.25202 0.0
C3151 C 0.87761 0.82637 0.25627 0.0
C3152 C 0.84848 0.79323 0.25831 0.0
C3153 C 0.93293 0.88769 0.25198 0.0
C3154 C 0.93666 0.86013 0.25353 0.0
C3155 C 0.90889 0.82998 0.25606 0.0
C3156 C 0.96852 0.8615 0.25149 0.0
C3157 C 0.9616 0.92127 0.25018 0.0
C3158 C 0.98513 0.87308 0.24007 0.0
C3159 C 1.01299 0.87123 0.23745 0.0
C3160 C 0.02508 0.85772 0.24615 0.0
C3161 C 1.00927 0.84719 0.25777 0.0
C3162 C 0.98117 0.8489 0.26039 0.0
H3163 H 0.95641 0.94008 0.25384 0.0
H3164 H 0.98357 0.92405 0.25495 0.0
H3165 H 0.96678 0.92585 0.24001 0.0
H3166 H 0.97571 0.88218 0.23288 0.0
H3167 H 0.02433 0.87904 0.22833 0.0
H3168 H 0.25182 0.9726 0.26757 0.0
H3169 H 0.25139 0.02375 0.27127 0.0
H3170 H 0.20818 0.01481 0.23492 0.0
H3171 H 0.21013 0.96571 0.23089 0.0
H3172 H 0.27106 0.07871 0.24275 0.0
H3173 H 0.16274 0.03396 0.2736 0.0
H3174 H 0.19049 0.01866 0.27518 0.0
H3175 H 0.16463 1.00787 0.26171 0.0
C3176 C 0.24281 0.98194 0.26032 0.0
C3177 C 0.23174 0.96535 0.24883 0.0
C3178 C 0.2421 1.01084 0.26251 0.0
C3179 C 0.22949 0.02291 0.25338 0.0
C3180 C 0.21802 1.00602 0.24208 0.0
H3181 H 0.17673 0.16975 0.24039 0.0
H3182 H 0.17653 0.1189 0.2449 0.0
C3183 C 0.21936 0.9779 0.23979 0.0
C3184 C 0.22982 0.05416 0.25488 0.0
H3185 H 0.18503 0.08729 0.26569 0.0
C3186 C 0.2527 0.08088 0.24799 0.0
C3187 C 0.20515 0.05647 0.26137 0.0
C3188 C 0.17921 0.02782 0.26842 0.0
C3189 C 0.2514 0.10969 0.24722 0.0
C3190 C 0.22696 0.11234 0.25382 0.0
C3191 C 0.20406 0.08556 0.26079 0.0
C3192 C 0.22451 0.14244 0.25312 0.0
C3193 C 0.27537 0.13644 0.23881 0.0
C3194 C 0.25078 0.17252 0.25678 0.0
C3195 C 0.2509 0.20143 0.25418 0.0
C3196 C 0.22449 0.20091 0.24811 0.0
C3197 C 0.19718 0.17077 0.24526 0.0
C3198 C 0.19715 0.14175 0.24778 0.0
H3199 H 0.28647 0.12735 0.23191 0.0
H3200 H 0.26363 0.148 0.2336 0.0
H3201 H 0.29516 0.15527 0.24463 0.0
H3202 H 0.27193 0.17375 0.26111 0.0
H3203 H 0.27238 0.22435 0.25634 0.0
H3204 H 0.8659 0.09443 0.2359 0.0
H3205 H 0.91621 0.14246 0.24142 0.0
H3206 H 0.94512 0.08403 0.26269 0.0
H3207 H 0.89536 0.03479 0.25605 0.0
H3208 H 0.94347 0.17411 0.26056 0.0
H3209 H 0.02444 0.12991 0.24277 0.0
H3210 H 0.9812 0.10689 0.24061 0.0
H3211 H 0.99885 0.10704 0.25557 0.0
C3212 C 0.88302 0.0915 0.24163 0.0
C3213 C 0.87681 0.06038 0.24513 0.0
C3214 C 0.91188 0.11929 0.24494 0.0
C3215 C 0.9354 0.11729 0.2522 0.0
C3216 C 0.92822 0.08645 0.25665 0.0
H3217 H 0.11777 0.30329 0.26892 0.0
H3218 H 0.0679 0.25109 0.27281 0.0
C3219 C 0.89935 0.05824 0.25305 0.0
C3220 C 0.96717 0.14777 0.25461 0.0
H3221 H 0.04906 0.18391 0.24956 0.0
C3222 C 0.96652 0.17594 0.2583 0.0
C3223 C 0.99765 0.15069 0.2517 0.0
C3224 C 1.00072 0.12214 0.24735 0.0
C3225 C 0.99471 0.2067 0.25846 0.0
C3226 C 0.02468 0.20957 0.25518 0.0
C3227 C 0.02593 0.18149 0.25215 0.0
C3228 C 0.05403 0.24188 0.25325 0.0
C3229 C 0.99216 0.2364 0.26133 0.0
C3230 C 0.06223 0.25428 0.24106 0.0
C3231 C 0.09029 0.28393 0.23886 0.0
C3232 C 0.11076 0.30203 0.2488 0.0
C3233 C 0.10208 0.29019 0.26111 0.0
C3234 C 0.07385 0.26026 0.26332 0.0
H3235 H 0.96724 0.23019 0.26408 0.0
H3236 H 1.00913 0.25053 0.26902 0.0
H3237 H 0.99939 0.25229 0.25293 0.0
H3238 H 0.04716 0.24066 0.23318 0.0
H3239 H 0.09656 0.29235 0.22927 0.0
H3240 H 0.87223 0.79638 0.79063 0.0
H3241 H 0.87571 0.84813 0.78644 0.0
H3242 H 0.83833 0.81607 0.74916 0.0
H3243 H 0.83677 0.76408 0.75303 0.0
H3244 H 0.90244 0.89009 0.75577 0.0
H3245 H 0.78566 0.85025 0.7806 0.0
H3246 H 0.81268 0.83723 0.78656 0.0
H3247 H 0.79315 0.82223 0.77173 0.0
C3248 C 0.86461 0.80002 0.7815 0.0
C3249 C 0.85341 0.77554 0.77226 0.0
C3250 C 0.86686 0.82986 0.77911 0.0
C3251 C 0.85729 0.83601 0.76752 0.0
C3252 C 0.84604 0.81185 0.75817 0.0
H3253 H 0.81502 0.99392 0.76315 0.0
H3254 H 0.81705 0.94461 0.75834 0.0
C3255 C 0.84456 0.78195 0.76046 0.0
C3256 C 0.85728 0.86707 0.76585 0.0
H3257 H 0.81751 0.90585 0.77598 0.0
C3258 C 0.88361 0.89351 0.75996 0.0
C3259 C 0.83299 0.87158 0.77147 0.0
C3260 C 0.80435 0.84391 0.77793 0.0
C3261 C 0.88641 0.9245 0.75974 0.0
C3262 C 0.86247 0.92924 0.76572 0.0
C3263 C 0.83586 0.90244 0.77134 0.0
C3264 C 0.86436 0.96159 0.76658 0.0
C3265 C 0.91494 0.95182 0.75312 0.0
C3266 C 0.89069 0.98822 0.77249 0.0
C3267 C 0.88967 0.01668 0.7751 0.0
C3268 C 0.86227 0.01898 0.77189 0.0
C3269 C 0.83668 0.993 0.7655 0.0
C3270 C 0.83775 0.96471 0.76284 0.0
H3271 H 0.9252 0.94251 0.74595 0.0
H3272 H 0.90806 0.9684 0.7485 0.0
H3273 H 0.93426 0.96602 0.76008 0.0
H3274 H 0.9112 0.98634 0.77577 0.0
H3275 H 0.90936 0.03606 0.78031 0.0
H3276 H 0.314 0.10321 0.7532 0.0
H3277 H 0.26265 0.0521 0.74947 0.0
H3278 H 0.23178 0.05645 0.78708 0.0
H3279 H 0.28288 0.10562 0.79106 0.0
H3280 H 0.22734 0.99555 0.77958 0.0
H3281 H 0.16699 0.0388 0.74626 0.0
H3282 H 0.20945 0.05198 0.74443 0.0
H3283 H 0.19631 0.06591 0.75758 0.0
C3284 C 0.29647 0.09282 0.76072 0.0
C3285 C 0.30292 0.10817 0.77252 0.0
C3286 C 0.26693 0.06398 0.75851 0.0
C3287 C 0.24318 0.05064 0.76797 0.0
C3288 C 0.24965 0.0662 0.77964 0.0
H3289 H 0.04309 0.90313 0.7793 0.0
H3290 H 0.09341 0.95422 0.7748 0.0
C3291 C 0.27908 0.09433 0.78191 0.0
C3292 C 0.21223 0.01943 0.76637 0.0
H3293 H 0.13592 0.98528 0.75383 0.0
C3294 C 0.20752 0.99311 0.77378 0.0
C3295 C 0.18615 0.0166 0.75905 0.0
C3296 C 0.18964 0.04473 0.75136 0.0
C3297 C 0.17747 0.96429 0.77427 0.0
C3298 C 0.15131 0.96114 0.76687 0.0
C3299 C 0.15601 0.98744 0.75936 0.0
C3300 C 0.11889 0.93093 0.76728 0.0
C3301 C 0.17368 0.93795 0.78316 0.0
C3302 C 0.11583 0.90091 0.76399 0.0
C3303 C 0.08725 0.87188 0.76659 0.0
C3304 C 0.06085 0.8722 0.7723 0.0
C3305 C 0.06293 0.90224 0.77472 0.0
C3306 C 0.09172 0.9314 0.7722 0.0
H3307 H 0.19309 0.94733 0.79039 0.0
H3308 H 0.14987 0.92679 0.78799 0.0
H3309 H 0.17512 0.91873 0.77778 0.0
H3310 H 0.13622 0.89986 0.76003 0.0
H3311 H 0.08638 0.84905 0.76476 0.0
H3312 H 0.22171 0.27306 0.77921 0.0
H3313 H 0.17059 0.27032 0.77436 0.0
H3314 H 0.13337 0.1737 0.75952 0.0
H3315 H 0.18452 0.17573 0.76513 0.0
H3316 H 0.13621 0.26435 0.75482 0.0
H3317 H 0.06424 0.15526 0.78446 0.0
H3318 H 0.10786 0.17599 0.78408 0.0
H3319 H 0.08461 0.14929 0.77146 0.0
C3320 C 0.20273 0.25118 0.77487 0.0
C3321 C 0.20707 0.22436 0.77282 0.0
C3322 C 0.17341 0.2497 0.77202 0.0
C3323 C 0.14747 0.22149 0.76688 0.0
C3324 C 0.15249 0.19542 0.76388 0.0
H3325 H 0.96545 0.22587 0.7514 0.0
H3326 H 1.01499 0.22297 0.74761 0.0
C3327 C 0.18198 0.19677 0.76688 0.0
C3328 C 0.11532 0.21974 0.76531 0.0
H3329 H 0.03675 0.1798 0.77565 0.0
C3330 C 0.11438 0.24554 0.75923 0.0
C3331 C 0.08664 0.1954 0.77115 0.0
C3332 C 0.08577 0.16755 0.77824 0.0
C3333 C 0.08633 0.2484 0.75927 0.0
C3334 C 0.05809 0.22454 0.76534 0.0
C3335 C 0.05844 0.19802 0.77096 0.0
C3336 C 0.02915 0.2284 0.76716 0.0
C3337 C 0.08757 0.27794 0.75351 0.0
C3338 C 0.02089 0.23289 0.77933 0.0
C3339 C 0.99281 0.23448 0.78148 0.0
C3340 C 0.97237 0.23191 0.77151 0.0
C3341 C 0.98116 0.22869 0.75922 0.0
C3342 C 1.00932 0.2268 0.75707 0.0
H3343 H 0.1123 0.29594 0.75027 0.0
H3344 H 0.07089 0.2705 0.74535 0.0
H3345 H 0.07934 0.28982 0.76041 0.0
H3346 H 0.03585 0.23441 0.78725 0.0
H3347 H 0.98644 0.23668 0.79105 0.0
H3348 H 0.46367 0.193 0.56073 0.0
H3349 H 0.51514 0.195 0.56461 0.0
H3350 H 0.48954 0.17162 0.60349 0.0
H3351 H 0.4381 0.17095 0.59976 0.0
H3352 H 0.5638 0.23823 0.58596 0.0
H3353 H 0.51914 0.10543 0.58711 0.0
H3354 H 0.49754 0.12156 0.5786 0.0
H3355 H 0.4974 0.12177 0.59539 0.0
C3356 C 0.46873 0.1879 0.5701 0.0
C3357 C 0.44648 0.18131 0.57989 0.0
C3358 C 0.49828 0.1892 0.57231 0.0
C3359 C 0.50628 0.1835 0.58432 0.0
C3360 C 0.48385 0.17605 0.59412 0.0
H3361 H 0.67814 0.16256 0.59698 0.0
H3362 H 0.62865 0.16503 0.60129 0.0
C3363 C 0.45432 0.17531 0.59196 0.0
C3364 C 0.53847 0.18607 0.58638 0.0
H3365 H 0.57563 0.1405 0.5872 0.0
C3366 C 0.56642 0.21689 0.58641 0.0
C3367 C 0.5419 0.1583 0.58706 0.0
C3368 C 0.51254 0.12475 0.58703 0.0
C3369 C 0.5977 0.22063 0.58679 0.0
C3370 C 0.6013 0.19278 0.58672 0.0
C3371 C 0.57318 0.16195 0.58721 0.0
C3372 C 0.63365 0.19488 0.58519 0.0
C3373 C 0.62654 0.25451 0.58726 0.0
C3374 C 0.65351 0.21127 0.57487 0.0
C3375 C 0.68184 0.21006 0.57249 0.0
C3376 C 0.69112 0.19245 0.58036 0.0
C3377 C 0.67202 0.17701 0.59095 0.0
C3378 C 0.64354 0.17813 0.59332 0.0
H3379 H 0.62024 0.27156 0.5919 0.0
H3380 H 0.64719 0.25521 0.59236 0.0
H3381 H 0.63437 0.26331 0.57755 0.0
H3382 H 0.64627 0.22366 0.56823 0.0
H3383 H 0.69568 0.22153 0.5641 0.0
H3384 H 0.92317 0.321 0.564 0.0
H3385 H 0.92236 0.3711 0.56756 0.0
H3386 H 0.87247 0.33276 0.60266 0.0
H3387 H 0.87845 0.28497 0.59994 0.0
H3388 H 0.87755 0.38063 0.56716 0.0
H3389 H 0.92429 0.41878 0.61558 0.0
H3390 H 0.92732 0.38698 0.60765 0.0
H3391 H 0.88977 0.37886 0.61492 0.0
C3392 C 0.91405 0.32432 0.57286 0.0
C3393 C 0.90279 0.30003 0.58202 0.0
C3394 C 0.91273 0.35268 0.57478 0.0
C3395 C 0.89777 0.35659 0.58553 0.0
C3396 C 0.88566 0.33171 0.59459 0.0
H3397 H 0.84308 0.51011 0.5841 0.0
H3398 H 0.83963 0.45766 0.58872 0.0
C3399 C 0.88892 0.30414 0.59301 0.0
C3400 C 0.89302 0.38553 0.58648 0.0
H3401 H 0.90239 0.44785 0.60556 0.0
C3402 C 0.88318 0.39517 0.57562 0.0
C3403 C 0.89961 0.4047 0.59752 0.0
C3404 C 0.91109 0.39697 0.60953 0.0
C3405 C 0.88137 0.42374 0.57527 0.0
C3406 C 0.88835 0.44291 0.58619 0.0
C3407 C 0.89678 0.43287 0.59723 0.0
C3408 C 0.89065 0.47526 0.58571 0.0
C3409 C 0.87356 0.43425 0.56304 0.0
C3410 C 0.92055 0.50264 0.58291 0.0
C3411 C 0.92252 0.53234 0.58027 0.0
C3412 C 0.89465 0.53544 0.58039 0.0
C3413 C 0.86499 0.50854 0.58403 0.0
C3414 C 0.86298 0.47857 0.58661 0.0
H3415 H 0.8675 0.41606 0.55545 0.0
H3416 H 0.85286 0.43851 0.56433 0.0
H3417 H 0.89473 0.45753 0.56 0.0
H3418 H 0.94214 0.50062 0.58211 0.0
H3419 H 0.9457 0.55262 0.57751 0.0
H3420 H 0.53929 0.42152 0.56354 0.0
H3421 H 0.58832 0.47136 0.56886 0.0
H3422 H 0.60473 0.42351 0.6 0.0
H3423 H 0.55651 0.37218 0.59393 0.0
H3424 H 0.60832 0.51089 0.58652 0.0
H3425 H 0.69145 0.46046 0.58528 0.0
H3426 H 0.64957 0.43666 0.5807 0.0
H3427 H 0.66056 0.44309 0.59705 0.0
C3428 C 0.55339 0.42132 0.57147 0.0
C3429 C 0.5442 0.39238 0.57807 0.0
C3430 C 0.5815 0.45015 0.5746 0.0
C3431 C 0.60122 0.45147 0.58465 0.0
C3432 C 0.5909 0.42318 0.5919 0.0
H3433 H 0.78284 0.63828 0.60145 0.0
H3434 H 0.73164 0.58728 0.6053 0.0
C3435 C 0.56285 0.39387 0.58858 0.0
C3436 C 0.63232 0.48263 0.58712 0.0
H3437 H 0.71497 0.51656 0.58855 0.0
C3438 C 0.63151 0.51185 0.58711 0.0
C3439 C 0.66299 0.48445 0.58794 0.0
C3440 C 0.66637 0.45457 0.58764 0.0
C3441 C 0.66003 0.54232 0.58721 0.0
C3442 C 0.69039 0.54399 0.58762 0.0
C3443 C 0.69152 0.51511 0.58832 0.0
C3444 C 0.72094 0.57528 0.58564 0.0
C3445 C 0.65778 0.57272 0.58619 0.0
C3446 C 0.73147 0.58566 0.57336 0.0
C3447 C 0.76037 0.61456 0.57116 0.0
C3448 C 0.77934 0.63399 0.58119 0.0
C3449 C 0.76845 0.62406 0.59353 0.0
C3450 C 0.73943 0.59483 0.59574 0.0
H3451 H 0.63253 0.5678 0.58727 0.0
H3452 H 0.67329 0.59058 0.59342 0.0
H3453 H 0.66693 0.58395 0.57686 0.0
H3454 H 0.71748 0.57109 0.56544 0.0
H3455 H 0.76825 0.6215 0.56156 0.0
loop_
_geom_bond_atom_site_label_1
_geom_bond_atom_site_label_2
_geom_bond_distance
_geom_bond_site_symmetry_2
_ccdc_geom_bond_type
Gd0 N31 2.661 1_565 S
Gd0 N37 2.601 . S
Gd0 O44 2.545 . S
Gd0 O45 2.606 . S
Gd0 O47 2.428 . S
Gd0 O48 2.545 . S
Gd0 O49 2.412 . S
Gd0 O51 2.362 1_565 S
Gd0 O52 2.324 . S
Gd0 C59 2.828 . S
Gd1 N10 2.661 . S
Gd1 N14 2.601 . S
Gd1 O45 2.362 1_545 S
Gd1 O46 2.324 . S
Gd1 O50 2.545 . S
Gd1 O51 2.606 . S
Gd1 O53 2.429 . S
Gd1 O54 2.545 . S
Gd1 O55 2.412 . S
Gd1 C68 2.828 . S
C2 C5 1.417 . S
C2 C7 1.431 . S
C2 C8 1.412 . S
C3 C6 1.437 . S
C3 C7 1.317 . S
C3 H22 0.929 . S
C4 C5 1.423 1_545 S
C4 C6 1.407 1_545 S
C4 N14 1.370 . S
C5 C2 1.417 . S
C5 C4 1.423 1_565 S
C5 N10 1.350 1_565 S
C6 C3 1.437 . S
C6 C4 1.407 1_565 S
C6 C16 1.391 1_565 S
C7 C2 1.431 . S
C7 C3 1.317 . S
C7 H18 0.930 . S
C8 C2 1.412 . S
C8 C9 1.355 . S
C8 H20 0.930 . S
C9 C8 1.355 . S
C9 C11 1.402 . S
C9 H21 0.930 . S
N10 Gd1 2.661 . S
N10 C5 1.350 1_545 S
N10 C11 1.307 1_545 S
C11 C9 1.402 . S
C11 N10 1.307 1_565 S
C11 H12 0.930 . S
H12 C11 0.930 . S
C13 N14 1.334 . S
C13 C15 1.394 . S
C13 H17 0.930 . S
N14 Gd1 2.601 . S
N14 C4 1.370 . S
N14 C13 1.334 . S
C15 C13 1.394 . S
C15 C16 1.359 . S
C15 H27 0.930 . S
C16 C6 1.391 1_545 S
C16 C15 1.359 . S
C16 H28 0.929 1_545 S
H17 C13 0.930 . S
H18 C7 0.930 . S
H19 C36 0.930 . S
H20 C8 0.930 . S
H21 C9 0.930 . S
H22 C3 0.929 . S
H23 C41 0.930 . S
H24 C32 0.930 . S
H25 C33 0.930 . S
H26 C57 0.929 . S
H27 C15 0.930 . S
H28 C16 0.929 1_565 S
H29 C58 0.930 . S
H30 C39 0.930 . S
N31 Gd0 2.661 1_545 S
N31 C35 1.350 . S
N31 C36 1.307 . S
C32 H24 0.930 . S
C32 C33 1.355 . S
C32 C34 1.412 . S
C33 H25 0.930 . S
C33 C32 1.355 . S
C33 C36 1.402 . S
C34 C32 1.412 . S
C34 C35 1.417 . S
C34 C58 1.431 . S
C35 N31 1.350 . S
C35 C34 1.417 . S
C35 C38 1.426 . S
C36 H19 0.930 . S
C36 N31 1.307 . S
C36 C33 1.402 . S
N37 Gd0 2.601 . S
N37 C38 1.359 1_565 S
N37 C41 1.334 . S
C38 C35 1.426 . S
C38 N37 1.359 1_545 S
C38 C42 1.413 . S
C39 H30 0.930 . S
C39 C40 1.359 1_565 S
C39 C41 1.394 . S
C40 C39 1.359 1_545 S
C40 C42 1.391 . S
C40 H43 0.929 . S
C41 H23 0.930 . S
C41 N37 1.334 . S
C41 C39 1.394 . S
C42 C38 1.413 . S
C42 C40 1.391 . S
C42 C57 1.437 . S
H43 C40 0.929 . S
O44 Gd0 2.545 . S
O44 C59 1.258 . S
O45 Gd0 2.606 . S
O45 Gd1 2.362 1_565 S
O45 C56 1.284 . S
O46 Gd1 2.324 . S
O46 C66 1.254 . S
O47 Gd0 2.428 . S
O47 C66 1.258 1_565 S
O48 Gd0 2.545 . S
O48 C56 1.250 . S
O49 Gd0 2.412 . S
O49 C59 1.252 . S
O50 Gd1 2.545 . S
O50 C68 1.258 . S
O51 Gd0 2.362 1_545 S
O51 Gd1 2.606 . S
O51 C67 1.284 . S
O52 Gd0 2.324 . S
O52 C75 1.254 . S
O53 Gd1 2.429 . S
O53 C75 1.268 1_545 S
O54 Gd1 2.545 . S
O54 C67 1.250 . S
O55 Gd1 2.412 . S
O55 C68 1.252 . S
C56 O45 1.284 . S
C56 O48 1.250 . S
C57 H26 0.929 . S
C57 C42 1.437 . S
C57 C58 1.317 . S
C58 H29 0.930 . S
C58 C34 1.431 . S
C58 C57 1.317 . S
C59 Gd0 2.828 . S
C59 O44 1.258 . S
C59 O49 1.252 . S
C59 C60 1.497 . S
C60 C59 1.497 . S
C60 C61 1.395 . S
C60 C62 1.380 . S
C61 C60 1.395 . S
C61 C64 1.398 . S
C61 H76 0.930 . S
C62 C60 1.380 . S
C62 C63 1.391 . S
C62 H77 0.930 . S
C63 C62 1.391 . S
C63 C65 1.387 . S
C64 C61 1.398 . S
C64 C65 1.380 . S
C64 H78 0.930 . S
C65 C63 1.387 . S
C65 C64 1.380 . S
C65 H79 0.930 . S
C66 O46 1.254 . S
C66 O47 1.258 1_545 S
C67 O51 1.284 . S
C67 O54 1.250 . S
C68 Gd1 2.828 . S
C68 O50 1.258 . S
C68 O55 1.252 . S
C68 C69 1.497 . S
C69 C68 1.497 . S
C69 C70 1.395 . S
C69 C71 1.380 . S
C70 C69 1.395 . S
C70 C73 1.398 . S
C70 H80 0.930 . S
C71 C69 1.380 . S
C71 C72 1.391 . S
C71 H81 0.930 . S
C72 C71 1.391 . S
C72 C74 1.387 . S
C73 C70 1.398 . S
C73 C74 1.380 . S
C73 H82 0.930 . S
C74 C72 1.387 . S
C74 C73 1.380 . S
C74 H83 0.930 . S
C75 O52 1.254 . S
C75 O53 1.268 1_565 S
H76 C61 0.930 . S
H77 C62 0.930 . S
H78 C64 0.930 . S
H79 C65 0.930 . S
H80 C70 0.930 . S
H81 C71 0.930 . S
H82 C73 0.930 . S
H83 C74 0.930 . S
Gd84 N115 2.661 . S
Gd84 N121 2.601 . S
Gd84 O128 2.545 . S
Gd84 O129 2.606 . S
Gd84 O131 2.429 . S
Gd84 O132 2.545 . S
Gd84 O133 2.412 . S
Gd84 O135 2.362 . S
Gd84 O136 2.324 . S
Gd84 C143 2.828 . S
Gd85 N94 2.661 . S
Gd85 N98 2.601 . S
Gd85 O129 2.362 . S
Gd85 O130 2.324 . S
Gd85 O134 2.545 1_455 S
Gd85 O135 2.606 . S
Gd85 O137 2.429 . S
Gd85 O138 2.545 1_455 S
Gd85 O139 2.412 1_455 S
Gd85 C152 2.828 1_455 S
C86 C89 1.417 . S
C86 C91 1.431 . S
C86 C92 1.412 . S
C87 C90 1.437 . S
C87 C91 1.317 . S
C87 H106 0.929 . S
C88 C89 1.426 . S
C88 C90 1.413 . S
C88 N98 1.359 . S
C89 C86 1.417 . S
C89 C88 1.426 . S
C89 N94 1.350 . S
C90 C87 1.437 . S
C90 C88 1.413 . S
C90 C100 1.391 . S
C91 C86 1.431 . S
C91 C87 1.317 . S
C91 H102 0.930 . S
C92 C86 1.412 . S
C92 C93 1.355 . S
C92 H104 0.930 . S
C93 C92 1.355 . S
C93 C95 1.402 . S
C93 H105 0.930 . S
N94 Gd85 2.661 . S
N94 C89 1.350 . S
N94 C95 1.307 . S
C95 C93 1.402 . S
C95 N94 1.307 . S
C95 H96 0.930 . S
H96 C95 0.930 . S
C97 N98 1.334 . S
C97 C99 1.394 . S
C97 H101 0.930 . S
N98 Gd85 2.601 . S
N98 C88 1.359 . S
N98 C97 1.334 . S
C99 C97 1.394 . S
C99 C100 1.359 . S
C99 H111 0.930 . S
C100 C90 1.391 . S
C100 C99 1.359 . S
C100 H112 0.929 . S
H101 C97 0.930 . S
H102 C91 0.930 . S
H103 C120 0.930 . S
H104 C92 0.930 . S
H105 C93 0.930 . S
H106 C87 0.929 . S
H107 C125 0.930 . S
H108 C116 0.930 1_655 S
H109 C117 0.930 . S
H110 C141 0.929 . S
H111 C99 0.930 . S
H112 C100 0.929 . S
H113 C142 0.930 1_655 S
H114 C123 0.930 . S
N115 Gd84 2.661 . S
N115 C119 1.350 . S
N115 C120 1.307 . S
C116 H108 0.930 1_455 S
C116 C117 1.355 . S
C116 C118 1.412 . S
C117 H109 0.930 . S
C117 C116 1.355 . S
C117 C120 1.402 . S
C118 C116 1.412 . S
C118 C119 1.417 . S
C118 C142 1.431 . S
C119 N115 1.350 . S
C119 C118 1.417 . S
C119 C122 1.426 . S
C120 H103 0.930 . S
C120 N115 1.307 . S
C120 C117 1.402 . S
N121 Gd84 2.601 . S
N121 C122 1.359 . S
N121 C125 1.334 . S
C122 C119 1.426 . S
C122 N121 1.359 . S
C122 C126 1.413 . S
C123 H114 0.930 . S
C123 C124 1.359 . S
C123 C125 1.394 . S
C124 C123 1.359 . S
C124 C126 1.391 . S
C124 H127 0.929 . S
C125 H107 0.930 . S
C125 N121 1.334 . S
C125 C123 1.394 . S
C126 C122 1.413 . S
C126 C124 1.391 . S
C126 C141 1.437 . S
H127 C124 0.929 . S
O128 Gd84 2.545 . S
O128 C143 1.258 . S
O129 Gd84 2.606 . S
O129 Gd85 2.362 . S
O129 C140 1.284 . S
O130 Gd85 2.324 . S
O130 C150 1.254 . S
O131 Gd84 2.429 . S
O131 C150 1.268 . S
O132 Gd84 2.545 . S
O132 C140 1.250 . S
O133 Gd84 2.412 . S
O133 C143 1.252 . S
O134 Gd85 2.545 1_655 S
O134 C152 1.258 . S
O135 Gd84 2.362 . S
O135 Gd85 2.606 . S
O135 C151 1.284 1_455 S
O136 Gd84 2.324 . S
O136 C159 1.254 . S
O137 Gd85 2.429 . S
O137 C159 1.268 . S
O138 Gd85 2.545 1_655 S
O138 C151 1.250 . S
O139 Gd85 2.412 1_655 S
O139 C152 1.252 . S
C140 O129 1.284 . S
C140 O132 1.250 . S
C141 H110 0.929 . S
C141 C126 1.437 . S
C141 C142 1.317 . S
C142 H113 0.930 1_455 S
C142 C118 1.431 . S
C142 C141 1.317 . S
C143 Gd84 2.828 . S
C143 O128 1.258 . S
C143 O133 1.252 . S
C143 C144 1.497 . S
C144 C143 1.497 . S
C144 C145 1.395 . S
C144 C146 1.380 . S
C145 C144 1.395 . S
C145 C148 1.398 . S
C145 H160 0.930 . S
C146 C144 1.380 . S
C146 C147 1.391 . S
C146 H161 0.930 . S
C147 C146 1.391 . S
C147 C149 1.387 . S
C148 C145 1.398 . S
C148 C149 1.380 . S
C148 H162 0.930 . S
C149 C147 1.387 . S
C149 C148 1.380 . S
C149 H163 0.930 . S
C150 O130 1.254 . S
C150 O131 1.268 . S
C151 O135 1.284 1_655 S
C151 O138 1.250 . S
C152 Gd85 2.828 1_655 S
C152 O134 1.258 . S
C152 O139 1.252 . S
C152 C153 1.497 . S
C153 C152 1.497 . S
C153 C154 1.395 . S
C153 C155 1.380 . S
C154 C153 1.395 . S
C154 C157 1.398 . S
C154 H164 0.930 . S
C155 C153 1.380 . S
C155 C156 1.391 . S
C155 H165 0.930 . S
C156 C155 1.391 . S
C156 C158 1.387 . S
C157 C154 1.398 . S
C157 C158 1.380 . S
C157 H166 0.930 . S
C158 C156 1.387 . S
C158 C157 1.380 . S
C158 H167 0.930 . S
C159 O136 1.254 . S
C159 O137 1.268 . S
H160 C145 0.930 . S
H161 C146 0.930 . S
H162 C148 0.930 . S
H163 C149 0.930 . S
H164 C154 0.930 . S
H165 C155 0.930 . S
H166 C157 0.930 . S
H167 C158 0.930 . S
Gd168 N199 2.661 . S
Gd168 N205 2.601 . S
Gd168 O212 2.545 . S
Gd168 O213 2.606 . S
Gd168 O215 2.429 . S
Gd168 O216 2.545 . S
Gd168 O217 2.412 . S
Gd168 O219 2.362 . S
Gd168 O220 2.324 . S
Gd168 C227 2.828 . S
Gd169 N178 2.661 . S
Gd169 N182 2.601 . S
Gd169 O213 2.362 . S
Gd169 O214 2.324 . S
Gd169 O218 2.545 . S
Gd169 O219 2.606 . S
Gd169 O221 2.429 . S
Gd169 O222 2.545 . S
Gd169 O223 2.412 . S
Gd169 C236 2.828 . S
C170 C173 1.417 . S
C170 C175 1.431 . S
C170 C176 1.412 . S
C171 C174 1.437 . S
C171 C175 1.317 . S
C171 H190 0.929 . S
C172 C173 1.426 . S
C172 C174 1.413 . S
C172 N182 1.359 . S
C173 C170 1.417 . S
C173 C172 1.426 . S
C173 N178 1.350 . S
C174 C171 1.437 . S
C174 C172 1.413 . S
C174 C184 1.391 . S
C175 C170 1.431 . S
C175 C171 1.317 . S
C175 H186 0.930 . S
C176 C170 1.412 . S
C176 C177 1.355 . S
C176 H188 0.930 . S
C177 C176 1.355 . S
C177 C179 1.402 . S
C177 H189 0.930 . S
N178 Gd169 2.661 . S
N178 C173 1.350 . S
N178 C179 1.307 . S
C179 C177 1.402 . S
C179 N178 1.307 . S
C179 H180 0.930 . S
H180 C179 0.930 . S
C181 N182 1.334 . S
C181 C183 1.394 . S
C181 H185 0.930 . S
N182 Gd169 2.601 . S
N182 C172 1.359 . S
N182 C181 1.334 . S
C183 C181 1.394 . S
C183 C184 1.359 . S
C183 H195 0.930 . S
C184 C174 1.391 . S
C184 C183 1.359 . S
C184 H196 0.929 . S
H185 C181 0.930 . S
H186 C175 0.930 . S
H187 C204 0.930 . S
H188 C176 0.930 . S
H189 C177 0.930 . S
H190 C171 0.929 . S
H191 C209 0.930 . S
H192 C200 0.930 . S
H193 C201 0.930 . S
H194 C225 0.929 . S
H195 C183 0.930 . S
H196 C184 0.929 . S
H197 C226 0.930 . S
H198 C207 0.930 . S
N199 Gd168 2.661 . S
N199 C203 1.350 . S
N199 C204 1.307 . S
C200 H192 0.930 . S
C200 C201 1.355 . S
C200 C202 1.412 . S
C201 H193 0.930 . S
C201 C200 1.355 . S
C201 C204 1.402 . S
C202 C200 1.412 . S
C202 C203 1.417 . S
C202 C226 1.431 . S
C203 N199 1.350 . S
C203 C202 1.417 . S
C203 C206 1.426 . S
C204 H187 0.930 . S
C204 N199 1.307 . S
C204 C201 1.402 . S
N205 Gd168 2.601 . S
N205 C206 1.359 . S
N205 C209 1.334 . S
C206 C203 1.426 . S
C206 N205 1.359 . S
C206 C210 1.413 . S
C207 H198 0.930 . S
C207 C208 1.359 . S
C207 C209 1.394 . S
C208 C207 1.359 . S
C208 C210 1.391 . S
C208 H211 0.929 . S
C209 H191 0.930 . S
C209 N205 1.334 . S
C209 C207 1.394 . S
C210 C206 1.413 . S
C210 C208 1.391 . S
C210 C225 1.437 . S
H211 C208 0.929 . S
O212 Gd168 2.545 . S
O212 C227 1.258 . S
O213 Gd168 2.606 . S
O213 Gd169 2.362 . S
O213 C224 1.284 . S
O214 Gd169 2.324 . S
O214 C234 1.254 . S
O215 Gd168 2.429 . S
O215 C234 1.268 . S
O216 Gd168 2.545 . S
O216 C224 1.250 . S
O217 Gd168 2.412 . S
O217 C227 1.252 . S
O218 Gd169 2.545 . S
O218 C236 1.258 . S
O219 Gd168 2.362 . S
O219 Gd169 2.606 . S
O219 C235 1.284 . S
O220 Gd168 2.324 . S
O220 C243 1.254 . S
O221 Gd169 2.429 . S
O221 C243 1.268 . S
O222 Gd169 2.545 . S
O222 C235 1.250 . S
O223 Gd169 2.412 . S
O223 C236 1.252 . S
C224 O213 1.284 . S
C224 O216 1.250 . S
C225 H194 0.929 . S
C225 C210 1.437 . S
C225 C226 1.317 . S
C226 H197 0.930 . S
C226 C202 1.431 . S
C226 C225 1.317 . S
C227 Gd168 2.828 . S
C227 O212 1.258 . S
C227 O217 1.252 . S
C227 C228 1.497 . S
C228 C227 1.497 . S
C228 C229 1.395 . S
C228 C230 1.380 . S
C229 C228 1.395 . S
C229 C232 1.398 . S
C229 H244 0.930 . S
C230 C228 1.380 . S
C230 C231 1.391 . S
C230 H245 0.930 . S
C231 C230 1.391 . S
C231 C233 1.387 . S
C232 C229 1.398 . S
C232 C233 1.380 . S
C232 H246 0.930 . S
C233 C231 1.387 . S
C233 C232 1.380 . S
C233 H247 0.930 . S
C234 O214 1.254 . S
C234 O215 1.268 . S
C235 O219 1.284 . S
C235 O222 1.250 . S
C236 Gd169 2.828 . S
C236 O218 1.258 . S
C236 O223 1.252 . S
C236 C237 1.497 . S
C237 C236 1.497 . S
C237 C238 1.395 . S
C237 C239 1.380 . S
C238 C237 1.395 . S
C238 C241 1.398 . S
C238 H248 0.930 . S
C239 C237 1.380 . S
C239 C240 1.391 . S
C239 H249 0.930 . S
C240 C239 1.391 . S
C240 C242 1.387 . S
C241 C238 1.398 . S
C241 C242 1.380 . S
C241 H250 0.930 . S
C242 C240 1.387 . S
C242 C241 1.380 . S
C242 H251 0.930 . S
C243 O220 1.254 . S
C243 O221 1.268 . S
H244 C229 0.930 . S
H245 C230 0.930 . S
H246 C232 0.930 . S
H247 C233 0.930 . S
H248 C238 0.930 . S
H249 C239 0.930 . S
H250 C241 0.930 . S
H251 C242 0.930 . S
Gd252 N283 2.661 1_655 S
Gd252 N289 2.601 . S
Gd252 O296 2.545 . S
Gd252 O297 2.606 . S
Gd252 O299 2.428 . S
Gd252 O300 2.545 . S
Gd252 O301 2.412 . S
Gd252 O303 2.362 1_655 S
Gd252 O304 2.324 . S
Gd252 C311 2.828 . S
Gd253 N262 2.661 . S
Gd253 N266 2.601 . S
Gd253 O297 2.362 1_455 S
Gd253 O298 2.324 . S
Gd253 O302 2.545 . S
Gd253 O303 2.606 . S
Gd253 O305 2.429 . S
Gd253 O306 2.545 . S
Gd253 O307 2.412 . S
Gd253 C320 2.828 . S
C254 C257 1.417 . S
C254 C259 1.431 . S
C254 C260 1.412 . S
C255 C258 1.437 . S
C255 C259 1.317 . S
C255 H274 0.929 . S
C256 C257 1.423 1_455 S
C256 C258 1.407 1_455 S
C256 N266 1.370 . S
C257 C254 1.417 . S
C257 C256 1.423 1_655 S
C257 N262 1.350 1_655 S
C258 C255 1.437 . S
C258 C256 1.407 1_655 S
C258 C268 1.391 1_655 S
C259 C254 1.431 . S
C259 C255 1.317 . S
C259 H270 0.930 . S
C260 C254 1.412 . S
C260 C261 1.355 . S
C260 H272 0.930 . S
C261 C260 1.355 . S
C261 C263 1.402 . S
C261 H273 0.930 . S
N262 Gd253 2.661 . S
N262 C257 1.350 1_455 S
N262 C263 1.307 1_455 S
C263 C261 1.402 . S
C263 N262 1.307 1_655 S
C263 H264 0.930 . S
H264 C263 0.930 . S
C265 N266 1.334 . S
C265 C267 1.394 . S
C265 H269 0.930 . S
N266 Gd253 2.601 . S
N266 C256 1.370 . S
N266 C265 1.334 . S
C267 C265 1.394 . S
C267 C268 1.359 . S
C267 H279 0.930 . S
C268 C258 1.391 1_455 S
C268 C267 1.359 . S
C268 H280 0.929 1_455 S
H269 C265 0.930 . S
H270 C259 0.930 . S
H271 C288 0.930 . S
H272 C260 0.930 . S
H273 C261 0.930 . S
H274 C255 0.929 . S
H275 C293 0.930 . S
H276 C284 0.930 . S
H277 C285 0.930 . S
H278 C309 0.929 . S
H279 C267 0.930 . S
H280 C268 0.929 1_655 S
H281 C310 0.930 . S
H282 C291 0.930 . S
N283 Gd252 2.661 1_455 S
N283 C287 1.350 . S
N283 C288 1.307 . S
C284 H276 0.930 . S
C284 C285 1.355 . S
C284 C286 1.412 . S
C285 H277 0.930 . S
C285 C284 1.355 . S
C285 C288 1.402 . S
C286 C284 1.412 . S
C286 C287 1.417 . S
C286 C310 1.431 . S
C287 N283 1.350 . S
C287 C286 1.417 . S
C287 C290 1.426 . S
C288 H271 0.930 . S
C288 N283 1.307 . S
C288 C285 1.402 . S
N289 Gd252 2.601 . S
N289 C290 1.359 1_655 S
N289 C293 1.334 . S
C290 C287 1.426 . S
C290 N289 1.359 1_455 S
C290 C294 1.413 . S
C291 H282 0.930 . S
C291 C292 1.359 1_655 S
C291 C293 1.394 . S
C292 C291 1.359 1_455 S
C292 C294 1.391 . S
C292 H295 0.929 . S
C293 H275 0.930 . S
C293 N289 1.334 . S
C293 C291 1.394 . S
C294 C290 1.413 . S
C294 C292 1.391 . S
C294 C309 1.437 . S
H295 C292 0.929 . S
O296 Gd252 2.545 . S
O296 C311 1.258 . S
O297 Gd252 2.606 . S
O297 Gd253 2.362 1_655 S
O297 C308 1.284 . S
O298 Gd253 2.324 . S
O298 C318 1.254 . S
O299 Gd252 2.428 . S
O299 C318 1.258 1_655 S
O300 Gd252 2.545 . S
O300 C308 1.250 . S
O301 Gd252 2.412 . S
O301 C311 1.252 . S
O302 Gd253 2.545 . S
O302 C320 1.258 . S
O303 Gd252 2.362 1_455 S
O303 Gd253 2.606 . S
O303 C319 1.284 . S
O304 Gd252 2.324 . S
O304 C327 1.254 . S
O305 Gd253 2.429 . S
O305 C327 1.268 1_455 S
O306 Gd253 2.545 . S
O306 C319 1.250 . S
O307 Gd253 2.412 . S
O307 C320 1.252 . S
C308 O297 1.284 . S
C308 O300 1.250 . S
C309 H278 0.929 . S
C309 C294 1.437 . S
C309 C310 1.317 . S
C310 H281 0.930 . S
C310 C286 1.431 . S
C310 C309 1.317 . S
C311 Gd252 2.828 . S
C311 O296 1.258 . S
C311 O301 1.252 . S
C311 C312 1.497 . S
C312 C311 1.497 . S
C312 C313 1.395 . S
C312 C314 1.380 . S
C313 C312 1.395 . S
C313 C316 1.398 . S
C313 H328 0.930 . S
C314 C312 1.380 . S
C314 C315 1.391 . S
C314 H329 0.930 . S
C315 C314 1.391 . S
C315 C317 1.387 . S
C316 C313 1.398 . S
C316 C317 1.380 . S
C316 H330 0.930 . S
C317 C315 1.387 . S
C317 C316 1.380 . S
C317 H331 0.930 . S
C318 O298 1.254 . S
C318 O299 1.258 1_455 S
C319 O303 1.284 . S
C319 O306 1.250 . S
C320 Gd253 2.828 . S
C320 O302 1.258 . S
C320 O307 1.252 . S
C320 C321 1.497 . S
C321 C320 1.497 . S
C321 C322 1.395 . S
C321 C323 1.380 . S
C322 C321 1.395 . S
C322 C325 1.398 . S
C322 H332 0.930 . S
C323 C321 1.380 . S
C323 C324 1.391 . S
C323 H333 0.930 . S
C324 C323 1.391 . S
C324 C326 1.387 . S
C325 C322 1.398 . S
C325 C326 1.380 . S
C325 H334 0.930 . S
C326 C324 1.387 . S
C326 C325 1.380 . S
C326 H335 0.930 . S
C327 O304 1.254 . S
C327 O305 1.268 1_655 S
H328 C313 0.930 . S
H329 C314 0.930 . S
H330 C316 0.930 . S
H331 C317 0.930 . S
H332 C322 0.930 . S
H333 C323 0.930 . S
H334 C325 0.930 . S
H335 C326 0.930 . S
Gd336 N367 2.661 . S
Gd336 N373 2.601 . S
Gd336 O380 2.545 . S
Gd336 O381 2.606 . S
Gd336 O383 2.429 . S
Gd336 O384 2.545 . S
Gd336 O385 2.412 . S
Gd336 O387 2.362 . S
Gd336 O388 2.324 . S
Gd336 C395 2.828 . S
Gd337 N346 2.661 . S
Gd337 N350 2.601 . S
Gd337 O381 2.362 . S
Gd337 O382 2.324 . S
Gd337 O386 2.545 . S
Gd337 O387 2.606 . S
Gd337 O389 2.429 . S
Gd337 O390 2.545 . S
Gd337 O391 2.412 . S
Gd337 C404 2.828 . S
C338 C341 1.417 . S
C338 C343 1.431 . S
C338 C344 1.412 . S
C339 C342 1.437 . S
C339 C343 1.317 . S
C339 H358 0.929 . S
C340 C341 1.426 . S
C340 C342 1.413 . S
C340 N350 1.359 . S
C341 C338 1.417 . S
C341 C340 1.426 . S
C341 N346 1.350 . S
C342 C339 1.437 . S
C342 C340 1.413 . S
C342 C352 1.391 . S
C343 C338 1.431 . S
C343 C339 1.317 . S
C343 H354 0.930 . S
C344 C338 1.412 . S
C344 C345 1.355 . S
C344 H356 0.930 . S
C345 C344 1.355 . S
C345 C347 1.402 . S
C345 H357 0.930 . S
N346 Gd337 2.661 . S
N346 C341 1.350 . S
N346 C347 1.307 . S
C347 C345 1.402 . S
C347 N346 1.307 . S
C347 H348 0.930 . S
H348 C347 0.930 . S
C349 N350 1.334 . S
C349 C351 1.394 . S
C349 H353 0.930 . S
N350 Gd337 2.601 . S
N350 C340 1.359 . S
N350 C349 1.334 . S
C351 C349 1.394 . S
C351 C352 1.359 . S
C351 H363 0.930 . S
C352 C342 1.391 . S
C352 C351 1.359 . S
C352 H364 0.929 . S
H353 C349 0.930 . S
H354 C343 0.930 . S
H355 C372 0.930 . S
H356 C344 0.930 . S
H357 C345 0.930 . S
H358 C339 0.929 . S
H359 C377 0.930 . S
H360 C368 0.930 . S
H361 C369 0.930 . S
H362 C393 0.929 . S
H363 C351 0.930 . S
H364 C352 0.929 . S
H365 C394 0.930 . S
H366 C375 0.930 . S
N367 Gd336 2.661 . S
N367 C371 1.350 . S
N367 C372 1.307 . S
C368 H360 0.930 . S
C368 C369 1.355 . S
C368 C370 1.412 . S
C369 H361 0.930 . S
C369 C368 1.355 . S
C369 C372 1.402 . S
C370 C368 1.412 . S
C370 C371 1.417 . S
C370 C394 1.431 . S
C371 N367 1.350 . S
C371 C370 1.417 . S
C371 C374 1.426 . S
C372 H355 0.930 . S
C372 N367 1.307 . S
C372 C369 1.402 . S
N373 Gd336 2.601 . S
N373 C374 1.359 . S
N373 C377 1.334 . S
C374 C371 1.426 . S
C374 N373 1.359 . S
C374 C378 1.413 . S
C375 H366 0.930 . S
C375 C376 1.359 . S
C375 C377 1.394 . S
C376 C375 1.359 . S
C376 C378 1.391 . S
C376 H379 0.929 . S
C377 H359 0.930 . S
C377 N373 1.334 . S
C377 C375 1.394 . S
C378 C374 1.413 . S
C378 C376 1.391 . S
C378 C393 1.437 . S
H379 C376 0.929 . S
O380 Gd336 2.545 . S
O380 C395 1.258 . S
O381 Gd336 2.606 . S
O381 Gd337 2.362 . S
O381 C392 1.284 . S
O382 Gd337 2.324 . S
O382 C402 1.254 . S
O383 Gd336 2.429 . S
O383 C402 1.268 . S
O384 Gd336 2.545 . S
O384 C392 1.250 . S
O385 Gd336 2.412 . S
O385 C395 1.252 . S
O386 Gd337 2.545 . S
O386 C404 1.258 . S
O387 Gd336 2.362 . S
O387 Gd337 2.606 . S
O387 C403 1.284 . S
O388 Gd336 2.324 . S
O388 C411 1.254 . S
O389 Gd337 2.429 . S
O389 C411 1.268 . S
O390 Gd337 2.545 . S
O390 C403 1.250 . S
O391 Gd337 2.412 . S
O391 C404 1.252 . S
C392 O381 1.284 . S
C392 O384 1.250 . S
C393 H362 0.929 . S
C393 C378 1.437 . S
C393 C394 1.317 . S
C394 H365 0.930 . S
C394 C370 1.431 . S
C394 C393 1.317 . S
C395 Gd336 2.828 . S
C395 O380 1.258 . S
C395 O385 1.252 . S
C395 C396 1.497 . S
C396 C395 1.497 . S
C396 C397 1.395 . S
C396 C398 1.380 . S
C397 C396 1.395 . S
C397 C400 1.398 . S
C397 H412 0.930 . S
C398 C396 1.380 . S
C398 C399 1.391 . S
C398 H413 0.930 . S
C399 C398 1.391 . S
C399 C401 1.387 . S
C400 C397 1.398 . S
C400 C401 1.380 . S
C400 H414 0.930 . S
C401 C399 1.387 . S
C401 C400 1.380 . S
C401 H415 0.930 . S
C402 O382 1.254 . S
C402 O383 1.268 . S
C403 O387 1.284 . S
C403 O390 1.250 . S
C404 Gd337 2.828 . S
C404 O386 1.258 . S
C404 O391 1.252 . S
C404 C405 1.497 . S
C405 C404 1.497 . S
C405 C406 1.395 . S
C405 C407 1.380 . S
C406 C405 1.395 . S
C406 C409 1.398 . S
C406 H416 0.930 . S
C407 C405 1.380 . S
C407 C408 1.391 . S
C407 H417 0.930 . S
C408 C407 1.391 . S
C408 C410 1.387 . S
C409 C406 1.398 . S
C409 C410 1.380 . S
C409 H418 0.930 . S
C410 C408 1.387 . S
C410 C409 1.380 . S
C410 H419 0.930 . S
C411 O388 1.254 . S
C411 O389 1.268 . S
H412 C397 0.930 . S
H413 C398 0.930 . S
H414 C400 0.930 . S
H415 C401 0.930 . S
H416 C406 0.930 . S
H417 C407 0.930 . S
H418 C409 0.930 . S
H419 C410 0.930 . S
Gd420 N451 2.661 . S
Gd420 N457 2.601 . S
Gd420 O464 2.545 . S
Gd420 O465 2.606 . S
Gd420 O467 2.429 . S
Gd420 O468 2.545 . S
Gd420 O469 2.412 . S
Gd420 O471 2.362 . S
Gd420 O472 2.324 . S
Gd420 C479 2.828 . S
Gd421 N430 2.661 . S
Gd421 N434 2.601 . S
Gd421 O465 2.362 . S
Gd421 O466 2.324 . S
Gd421 O470 2.545 1_545 S
Gd421 O471 2.606 . S
Gd421 O473 2.429 . S
Gd421 O474 2.545 1_545 S
Gd421 O475 2.412 1_545 S
Gd421 C488 2.828 1_545 S
C422 C425 1.417 . S
C422 C427 1.431 . S
C422 C428 1.412 . S
C423 C426 1.437 . S
C423 C427 1.317 . S
C423 H442 0.929 . S
C424 C425 1.426 . S
C424 C426 1.413 . S
C424 N434 1.359 . S
C425 C422 1.417 . S
C425 C424 1.426 . S
C425 N430 1.350 . S
C426 C423 1.437 . S
C426 C424 1.413 . S
C426 C436 1.391 . S
C427 C422 1.431 . S
C427 C423 1.317 . S
C427 H438 0.930 . S
C428 C422 1.412 . S
C428 C429 1.355 . S
C428 H440 0.930 . S
C429 C428 1.355 . S
C429 C431 1.402 . S
C429 H441 0.930 . S
N430 Gd421 2.661 . S
N430 C425 1.350 . S
N430 C431 1.307 . S
C431 C429 1.402 . S
C431 N430 1.307 . S
C431 H432 0.930 . S
H432 C431 0.930 . S
C433 N434 1.334 . S
C433 C435 1.394 . S
C433 H437 0.930 . S
N434 Gd421 2.601 . S
N434 C424 1.359 . S
N434 C433 1.334 . S
C435 C433 1.394 . S
C435 C436 1.359 . S
C435 H447 0.930 . S
C436 C426 1.391 . S
C436 C435 1.359 . S
C436 H448 0.929 . S
H437 C433 0.930 . S
H438 C427 0.930 . S
H439 C456 0.930 . S
H440 C428 0.930 . S
H441 C429 0.930 . S
H442 C423 0.929 . S
H443 C461 0.930 . S
H444 C452 0.930 1_565 S
H445 C453 0.930 . S
H446 C477 0.929 . S
H447 C435 0.930 . S
H448 C436 0.929 . S
H449 C478 0.930 1_565 S
H450 C459 0.930 . S
N451 Gd420 2.661 . S
N451 C455 1.350 . S
N451 C456 1.307 . S
C452 H444 0.930 1_545 S
C452 C453 1.355 . S
C452 C454 1.412 . S
C453 H445 0.930 . S
C453 C452 1.355 . S
C453 C456 1.402 . S
C454 C452 1.412 . S
C454 C455 1.417 . S
C454 C478 1.431 . S
C455 N451 1.350 . S
C455 C454 1.417 . S
C455 C458 1.426 . S
C456 H439 0.930 . S
C456 N451 1.307 . S
C456 C453 1.402 . S
N457 Gd420 2.601 . S
N457 C458 1.359 . S
N457 C461 1.334 . S
C458 C455 1.426 . S
C458 N457 1.359 . S
C458 C462 1.413 . S
C459 H450 0.930 . S
C459 C460 1.359 . S
C459 C461 1.394 . S
C460 C459 1.359 . S
C460 C462 1.391 . S
C460 H463 0.929 . S
C461 H443 0.930 . S
C461 N457 1.334 . S
C461 C459 1.394 . S
C462 C458 1.413 . S
C462 C460 1.391 . S
C462 C477 1.437 . S
H463 C460 0.929 . S
O464 Gd420 2.545 . S
O464 C479 1.258 . S
O465 Gd420 2.606 . S
O465 Gd421 2.362 . S
O465 C476 1.284 . S
O466 Gd421 2.324 . S
O466 C486 1.254 . S
O467 Gd420 2.429 . S
O467 C486 1.268 . S
O468 Gd420 2.545 . S
O468 C476 1.250 . S
O469 Gd420 2.412 . S
O469 C479 1.252 . S
O470 Gd421 2.545 1_565 S
O470 C488 1.258 . S
O471 Gd420 2.362 . S
O471 Gd421 2.606 . S
O471 C487 1.284 1_545 S
O472 Gd420 2.324 . S
O472 C495 1.254 . S
O473 Gd421 2.429 . S
O473 C495 1.268 . S
O474 Gd421 2.545 1_565 S
O474 C487 1.250 . S
O475 Gd421 2.412 1_565 S
O475 C488 1.252 . S
C476 O465 1.284 . S
C476 O468 1.250 . S
C477 H446 0.929 . S
C477 C462 1.437 . S
C477 C478 1.317 . S
C478 H449 0.930 1_545 S
C478 C454 1.431 . S
C478 C477 1.317 . S
C479 Gd420 2.828 . S
C479 O464 1.258 . S
C479 O469 1.252 . S
C479 C480 1.497 . S
C480 C479 1.497 . S
C480 C481 1.395 . S
C480 C482 1.380 . S
C481 C480 1.395 . S
C481 C484 1.398 . S
C481 H496 0.930 . S
C482 C480 1.380 . S
C482 C483 1.391 . S
C482 H497 0.930 . S
C483 C482 1.391 . S
C483 C485 1.387 . S
C484 C481 1.398 . S
C484 C485 1.380 . S
C484 H498 0.930 . S
C485 C483 1.387 . S
C485 C484 1.380 . S
C485 H499 0.930 . S
C486 O466 1.254 . S
C486 O467 1.268 . S
C487 O471 1.284 1_565 S
C487 O474 1.250 . S
C488 Gd421 2.828 1_565 S
C488 O470 1.258 . S
C488 O475 1.252 . S
C488 C489 1.497 . S
C489 C488 1.497 . S
C489 C490 1.395 . S
C489 C491 1.380 . S
C490 C489 1.395 . S
C490 C493 1.398 . S
C490 H500 0.930 . S
C491 C489 1.380 . S
C491 C492 1.391 . S
C491 H501 0.930 . S
C492 C491 1.391 . S
C492 C494 1.387 . S
C493 C490 1.398 . S
C493 C494 1.380 . S
C493 H502 0.930 . S
C494 C492 1.387 . S
C494 C493 1.380 . S
C494 H503 0.930 . S
C495 O472 1.254 . S
C495 O473 1.268 . S
H496 C481 0.930 . S
H497 C482 0.930 . S
H498 C484 0.930 . S
H499 C485 0.930 . S
H500 C490 0.930 . S
H501 C491 0.930 . S
H502 C493 0.930 . S
H503 C494 0.930 . S
Gd504 N535 2.661 . S
Gd504 N541 2.601 . S
Gd504 O548 2.545 . S
Gd504 O549 2.606 . S
Gd504 O551 2.429 . S
Gd504 O552 2.545 . S
Gd504 O553 2.412 . S
Gd504 O555 2.362 . S
Gd504 O556 2.324 . S
Gd504 C563 2.828 . S
Gd505 N514 2.661 . S
Gd505 N518 2.601 . S
Gd505 O549 2.362 . S
Gd505 O550 2.324 . S
Gd505 O554 2.545 . S
Gd505 O555 2.606 . S
Gd505 O557 2.429 . S
Gd505 O558 2.545 . S
Gd505 O559 2.412 . S
Gd505 C572 2.828 . S
C506 C509 1.417 . S
C506 C511 1.431 . S
C506 C512 1.412 . S
C507 C510 1.437 . S
C507 C511 1.317 . S
C507 H526 0.929 . S
C508 C509 1.426 . S
C508 C510 1.413 . S
C508 N518 1.359 . S
C509 C506 1.417 . S
C509 C508 1.426 . S
C509 N514 1.350 . S
C510 C507 1.437 . S
C510 C508 1.413 . S
C510 C520 1.391 . S
C511 C506 1.431 . S
C511 C507 1.317 . S
C511 H522 0.930 . S
C512 C506 1.412 . S
C512 C513 1.355 . S
C512 H524 0.930 . S
C513 C512 1.355 . S
C513 C515 1.402 . S
C513 H525 0.930 . S
N514 Gd505 2.661 . S
N514 C509 1.350 . S
N514 C515 1.307 . S
C515 C513 1.402 . S
C515 N514 1.307 . S
C515 H516 0.930 . S
H516 C515 0.930 . S
C517 N518 1.334 . S
C517 C519 1.394 . S
C517 H521 0.930 . S
N518 Gd505 2.601 . S
N518 C508 1.359 . S
N518 C517 1.334 . S
C519 C517 1.394 . S
C519 C520 1.359 . S
C519 H531 0.930 . S
C520 C510 1.391 . S
C520 C519 1.359 . S
C520 H532 0.929 . S
H521 C517 0.930 . S
H522 C511 0.930 . S
H523 C540 0.930 . S
H524 C512 0.930 . S
H525 C513 0.930 . S
H526 C507 0.929 . S
H527 C545 0.930 . S
H528 C536 0.930 . S
H529 C537 0.930 . S
H530 C561 0.929 . S
H531 C519 0.930 . S
H532 C520 0.929 . S
H533 C562 0.930 . S
H534 C543 0.930 . S
N535 Gd504 2.661 . S
N535 C539 1.350 . S
N535 C540 1.307 . S
C536 H528 0.930 . S
C536 C537 1.355 . S
C536 C538 1.412 . S
C537 H529 0.930 . S
C537 C536 1.355 . S
C537 C540 1.402 . S
C538 C536 1.412 . S
C538 C539 1.417 . S
C538 C562 1.431 . S
C539 N535 1.350 . S
C539 C538 1.417 . S
C539 C542 1.426 . S
C540 H523 0.930 . S
C540 N535 1.307 . S
C540 C537 1.402 . S
N541 Gd504 2.601 . S
N541 C542 1.359 . S
N541 C545 1.334 . S
C542 C539 1.426 . S
C542 N541 1.359 . S
C542 C546 1.413 . S
C543 H534 0.930 . S
C543 C544 1.359 . S
C543 C545 1.394 . S
C544 C543 1.359 . S
C544 C546 1.391 . S
C544 H547 0.929 . S
C545 H527 0.930 . S
C545 N541 1.334 . S
C545 C543 1.394 . S
C546 C542 1.413 . S
C546 C544 1.391 . S
C546 C561 1.437 . S
H547 C544 0.929 . S
O548 Gd504 2.545 . S
O548 C563 1.258 . S
O549 Gd504 2.606 . S
O549 Gd505 2.362 . S
O549 C560 1.284 . S
O550 Gd505 2.324 . S
O550 C570 1.254 . S
O551 Gd504 2.429 . S
O551 C570 1.268 . S
O552 Gd504 2.545 . S
O552 C560 1.250 . S
O553 Gd504 2.412 . S
O553 C563 1.252 . S
O554 Gd505 2.545 . S
O554 C572 1.258 . S
O555 Gd504 2.362 . S
O555 Gd505 2.606 . S
O555 C571 1.284 . S
O556 Gd504 2.324 . S
O556 C579 1.254 . S
O557 Gd505 2.429 . S
O557 C579 1.268 . S
O558 Gd505 2.545 . S
O558 C571 1.250 . S
O559 Gd505 2.412 . S
O559 C572 1.252 . S
C560 O549 1.284 . S
C560 O552 1.250 . S
C561 H530 0.929 . S
C561 C546 1.437 . S
C561 C562 1.317 . S
C562 H533 0.930 . S
C562 C538 1.431 . S
C562 C561 1.317 . S
C563 Gd504 2.828 . S
C563 O548 1.258 . S
C563 O553 1.252 . S
C563 C564 1.497 . S
C564 C563 1.497 . S
C564 C565 1.395 . S
C564 C566 1.380 . S
C565 C564 1.395 . S
C565 C568 1.398 1_455 S
C565 H580 0.930 . S
C566 C564 1.380 . S
C566 C567 1.391 . S
C566 H581 0.930 . S
C567 C566 1.391 . S
C567 C569 1.387 1_455 S
C568 C565 1.398 1_655 S
C568 C569 1.380 . S
C568 H582 0.930 . S
C569 C567 1.387 1_655 S
C569 C568 1.380 . S
C569 H583 0.930 . S
C570 O550 1.254 . S
C570 O551 1.268 . S
C571 O555 1.284 . S
C571 O558 1.250 . S
C572 Gd505 2.828 . S
C572 O554 1.258 . S
C572 O559 1.252 . S
C572 C573 1.497 . S
C573 C572 1.497 . S
C573 C574 1.395 . S
C573 C575 1.380 . S
C574 C573 1.395 . S
C574 C577 1.398 . S
C574 H584 0.930 . S
C575 C573 1.380 . S
C575 C576 1.391 . S
C575 H585 0.930 . S
C576 C575 1.391 . S
C576 C578 1.387 . S
C577 C574 1.398 . S
C577 C578 1.380 . S
C577 H586 0.930 . S
C578 C576 1.387 . S
C578 C577 1.380 . S
C578 H587 0.930 . S
C579 O556 1.254 . S
C579 O557 1.268 . S
H580 C565 0.930 . S
H581 C566 0.930 . S
H582 C568 0.930 . S
H583 C569 0.930 . S
H584 C574 0.930 . S
H585 C575 0.930 . S
H586 C577 0.930 . S
H587 C578 0.930 . S
Gd588 N619 2.661 . S
Gd588 N625 2.601 . S
Gd588 O632 2.545 . S
Gd588 O633 2.606 . S
Gd588 O635 2.429 . S
Gd588 O636 2.545 . S
Gd588 O637 2.412 . S
Gd588 O639 2.362 . S
Gd588 O640 2.324 . S
Gd588 C647 2.828 . S
Gd589 N598 2.661 . S
Gd589 N602 2.601 . S
Gd589 O633 2.362 . S
Gd589 O634 2.324 . S
Gd589 O638 2.545 . S
Gd589 O639 2.606 . S
Gd589 O641 2.429 . S
Gd589 O642 2.545 . S
Gd589 O643 2.412 . S
Gd589 C656 2.828 . S
C590 C593 1.417 . S
C590 C595 1.431 1_565 S
C590 C596 1.412 1_565 S
C591 C594 1.437 1_545 S
C591 C595 1.317 . S
C591 H610 0.929 . S
C592 C593 1.426 . S
C592 C594 1.413 . S
C592 N602 1.359 . S
C593 C590 1.417 . S
C593 C592 1.426 . S
C593 N598 1.350 . S
C594 C591 1.437 1_565 S
C594 C592 1.413 . S
C594 C604 1.391 . S
C595 C590 1.431 1_545 S
C595 C591 1.317 . S
C595 H606 0.930 . S
C596 C590 1.412 1_545 S
C596 C597 1.355 1_545 S
C596 H608 0.930 . S
C597 C596 1.355 1_565 S
C597 C599 1.402 . S
C597 H609 0.930 . S
N598 Gd589 2.661 . S
N598 C593 1.350 . S
N598 C599 1.307 . S
C599 C597 1.402 . S
C599 N598 1.307 . S
C599 H600 0.930 . S
H600 C599 0.930 . S
C601 N602 1.334 . S
C601 C603 1.394 . S
C601 H605 0.930 . S
N602 Gd589 2.601 . S
N602 C592 1.359 . S
N602 C601 1.334 . S
C603 C601 1.394 . S
C603 C604 1.359 . S
C603 H615 0.930 . S
C604 C594 1.391 . S
C604 C603 1.359 . S
C604 H616 0.929 . S
H605 C601 0.930 . S
H606 C595 0.930 . S
H607 C624 0.930 . S
H608 C596 0.930 . S
H609 C597 0.930 . S
H610 C591 0.929 . S
H611 C629 0.930 . S
H612 C620 0.930 . S
H613 C621 0.930 . S
H614 C645 0.929 . S
H615 C603 0.930 . S
H616 C604 0.929 . S
H617 C646 0.930 . S
H618 C627 0.930 . S
N619 Gd588 2.661 . S
N619 C623 1.350 . S
N619 C624 1.307 . S
C620 H612 0.930 . S
C620 C621 1.355 . S
C620 C622 1.412 . S
C621 H613 0.930 . S
C621 C620 1.355 . S
C621 C624 1.402 . S
C622 C620 1.412 . S
C622 C623 1.417 . S
C622 C646 1.431 . S
C623 N619 1.350 . S
C623 C622 1.417 . S
C623 C626 1.426 . S
C624 H607 0.930 . S
C624 N619 1.307 . S
C624 C621 1.402 . S
N625 Gd588 2.601 . S
N625 C626 1.359 . S
N625 C629 1.334 . S
C626 C623 1.426 . S
C626 N625 1.359 . S
C626 C630 1.413 . S
C627 H618 0.930 . S
C627 C628 1.359 . S
C627 C629 1.394 . S
C628 C627 1.359 . S
C628 C630 1.391 . S
C628 H631 0.929 . S
C629 H611 0.930 . S
C629 N625 1.334 . S
C629 C627 1.394 . S
C630 C626 1.413 . S
C630 C628 1.391 . S
C630 C645 1.437 . S
H631 C628 0.929 . S
O632 Gd588 2.545 . S
O632 C647 1.258 . S
O633 Gd588 2.606 . S
O633 Gd589 2.362 . S
O633 C644 1.284 . S
O634 Gd589 2.324 . S
O634 C654 1.254 . S
O635 Gd588 2.429 . S
O635 C654 1.268 . S
O636 Gd588 2.545 . S
O636 C644 1.250 . S
O637 Gd588 2.412 . S
O637 C647 1.252 . S
O638 Gd589 2.545 . S
O638 C656 1.258 . S
O639 Gd588 2.362 . S
O639 Gd589 2.606 . S
O639 C655 1.284 . S
O640 Gd588 2.324 . S
O640 C663 1.254 . S
O641 Gd589 2.429 . S
O641 C663 1.268 . S
O642 Gd589 2.545 . S
O642 C655 1.250 . S
O643 Gd589 2.412 . S
O643 C656 1.252 . S
C644 O633 1.284 . S
C644 O636 1.250 . S
C645 H614 0.929 . S
C645 C630 1.437 . S
C645 C646 1.317 . S
C646 H617 0.930 . S
C646 C622 1.431 . S
C646 C645 1.317 . S
C647 Gd588 2.828 . S
C647 O632 1.258 . S
C647 O637 1.252 . S
C647 C648 1.497 . S
C648 C647 1.497 . S
C648 C649 1.395 . S
C648 C650 1.380 . S
C649 C648 1.395 . S
C649 C652 1.398 . S
C649 H664 0.930 . S
C650 C648 1.380 . S
C650 C651 1.391 . S
C650 H665 0.930 . S
C651 C650 1.391 . S
C651 C653 1.387 . S
C652 C649 1.398 . S
C652 C653 1.380 . S
C652 H666 0.930 . S
C653 C651 1.387 . S
C653 C652 1.380 . S
C653 H667 0.930 . S
C654 O634 1.254 . S
C654 O635 1.268 . S
C655 O639 1.284 . S
C655 O642 1.250 . S
C656 Gd589 2.828 . S
C656 O638 1.258 . S
C656 O643 1.252 . S
C656 C657 1.497 . S
C657 C656 1.497 . S
C657 C658 1.395 . S
C657 C659 1.380 . S
C658 C657 1.395 . S
C658 C661 1.398 . S
C658 H668 0.930 . S
C659 C657 1.380 . S
C659 C660 1.391 . S
C659 H669 0.930 . S
C660 C659 1.391 . S
C660 C662 1.387 . S
C661 C658 1.398 . S
C661 C662 1.380 . S
C661 H670 0.930 . S
C662 C660 1.387 . S
C662 C661 1.380 . S
C662 H671 0.930 . S
C663 O640 1.254 . S
C663 O641 1.268 . S
H664 C649 0.930 . S
H665 C650 0.930 . S
H666 C652 0.930 . S
H667 C653 0.930 . S
H668 C658 0.930 . S
H669 C659 0.930 . S
H670 C661 0.930 . S
H671 C662 0.930 . S
Gd672 N703 2.661 . S
Gd672 N709 2.601 . S
Gd672 O716 2.545 . S
Gd672 O717 2.606 . S
Gd672 O719 2.429 . S
Gd672 O720 2.545 . S
Gd672 O721 2.412 . S
Gd672 O723 2.362 . S
Gd672 O724 2.324 . S
Gd672 C731 2.828 . S
Gd673 N682 2.661 . S
Gd673 N686 2.601 . S
Gd673 O717 2.362 . S
Gd673 O718 2.324 . S
Gd673 O722 2.545 . S
Gd673 O723 2.606 . S
Gd673 O725 2.429 . S
Gd673 O726 2.545 . S
Gd673 O727 2.412 . S
Gd673 C740 2.828 . S
C674 C677 1.417 . S
C674 C679 1.431 . S
C674 C680 1.412 . S
C675 C678 1.437 . S
C675 C679 1.317 . S
C675 H694 0.929 . S
C676 C677 1.426 . S
C676 C678 1.413 . S
C676 N686 1.359 . S
C677 C674 1.417 . S
C677 C676 1.426 . S
C677 N682 1.350 . S
C678 C675 1.437 . S
C678 C676 1.413 . S
C678 C688 1.391 . S
C679 C674 1.431 . S
C679 C675 1.317 . S
C679 H690 0.930 . S
C680 C674 1.412 . S
C680 C681 1.355 . S
C680 H692 0.930 . S
C681 C680 1.355 . S
C681 C683 1.402 . S
C681 H693 0.930 . S
N682 Gd673 2.661 . S
N682 C677 1.350 . S
N682 C683 1.307 . S
C683 C681 1.402 . S
C683 N682 1.307 . S
C683 H684 0.930 . S
H684 C683 0.930 . S
C685 N686 1.334 . S
C685 C687 1.394 . S
C685 H689 0.930 . S
N686 Gd673 2.601 . S
N686 C676 1.359 . S
N686 C685 1.334 . S
C687 C685 1.394 . S
C687 C688 1.359 . S
C687 H699 0.930 . S
C688 C678 1.391 . S
C688 C687 1.359 . S
C688 H700 0.929 . S
H689 C685 0.930 . S
H690 C679 0.930 . S
H691 C708 0.930 . S
H692 C680 0.930 . S
H693 C681 0.930 . S
H694 C675 0.929 . S
H695 C713 0.930 . S
H696 C704 0.930 . S
H697 C705 0.930 . S
H698 C729 0.929 1_545 S
H699 C687 0.930 . S
H700 C688 0.929 . S
H701 C730 0.930 1_545 S
H702 C711 0.930 . S
N703 Gd672 2.661 . S
N703 C707 1.350 . S
N703 C708 1.307 . S
C704 H696 0.930 . S
C704 C705 1.355 . S
C704 C706 1.412 . S
C705 H697 0.930 . S
C705 C704 1.355 . S
C705 C708 1.402 . S
C706 C704 1.412 . S
C706 C707 1.417 . S
C706 C730 1.431 . S
C707 N703 1.350 . S
C707 C706 1.417 . S
C707 C710 1.426 . S
C708 H691 0.930 . S
C708 N703 1.307 . S
C708 C705 1.402 . S
N709 Gd672 2.601 . S
N709 C710 1.359 . S
N709 C713 1.334 . S
C710 C707 1.426 . S
C710 N709 1.359 . S
C710 C714 1.413 . S
C711 H702 0.930 . S
C711 C712 1.359 . S
C711 C713 1.394 . S
C712 C711 1.359 . S
C712 C714 1.391 . S
C712 H715 0.929 . S
C713 H695 0.930 . S
C713 N709 1.334 . S
C713 C711 1.394 . S
C714 C710 1.413 . S
C714 C712 1.391 . S
C714 C729 1.437 . S
H715 C712 0.929 . S
O716 Gd672 2.545 . S
O716 C731 1.258 . S
O717 Gd672 2.606 . S
O717 Gd673 2.362 . S
O717 C728 1.284 . S
O718 Gd673 2.324 . S
O718 C738 1.254 . S
O719 Gd672 2.429 . S
O719 C738 1.268 . S
O720 Gd672 2.545 . S
O720 C728 1.250 . S
O721 Gd672 2.412 . S
O721 C731 1.252 . S
O722 Gd673 2.545 . S
O722 C740 1.258 . S
O723 Gd672 2.362 . S
O723 Gd673 2.606 . S
O723 C739 1.284 . S
O724 Gd672 2.324 . S
O724 C747 1.254 . S
O725 Gd673 2.429 . S
O725 C747 1.268 . S
O726 Gd673 2.545 . S
O726 C739 1.250 . S
O727 Gd673 2.412 . S
O727 C740 1.252 . S
C728 O717 1.284 . S
C728 O720 1.250 . S
C729 H698 0.929 1_565 S
C729 C714 1.437 . S
C729 C730 1.317 . S
C730 H701 0.930 1_565 S
C730 C706 1.431 . S
C730 C729 1.317 . S
C731 Gd672 2.828 . S
C731 O716 1.258 . S
C731 O721 1.252 . S
C731 C732 1.497 1_565 S
C732 C731 1.497 1_545 S
C732 C733 1.395 . S
C732 C734 1.380 . S
C733 C732 1.395 . S
C733 C736 1.398 . S
C733 H748 0.930 . S
C734 C732 1.380 . S
C734 C735 1.391 . S
C734 H749 0.930 . S
C735 C734 1.391 . S
C735 C737 1.387 . S
C736 C733 1.398 . S
C736 C737 1.380 . S
C736 H750 0.930 . S
C737 C735 1.387 . S
C737 C736 1.380 . S
C737 H751 0.930 . S
C738 O718 1.254 . S
C738 O719 1.268 . S
C739 O723 1.284 . S
C739 O726 1.250 . S
C740 Gd673 2.828 . S
C740 O722 1.258 . S
C740 O727 1.252 . S
C740 C741 1.497 . S
C741 C740 1.497 . S
C741 C742 1.395 . S
C741 C743 1.380 . S
C742 C741 1.395 . S
C742 C745 1.398 . S
C742 H752 0.930 . S
C743 C741 1.380 . S
C743 C744 1.391 . S
C743 H753 0.930 . S
C744 C743 1.391 . S
C744 C746 1.387 . S
C745 C742 1.398 . S
C745 C746 1.380 . S
C745 H754 0.930 . S
C746 C744 1.387 . S
C746 C745 1.380 . S
C746 H755 0.930 . S
C747 O724 1.254 . S
C747 O725 1.268 . S
H748 C733 0.930 . S
H749 C734 0.930 . S
H750 C736 0.930 . S
H751 C737 0.930 . S
H752 C742 0.930 . S
H753 C743 0.930 . S
H754 C745 0.930 . S
H755 C746 0.930 . S
Gd756 N787 2.661 . S
Gd756 N793 2.601 . S
Gd756 O800 2.545 . S
Gd756 O801 2.606 . S
Gd756 O803 2.429 . S
Gd756 O804 2.545 . S
Gd756 O805 2.412 . S
Gd756 O807 2.362 . S
Gd756 O808 2.324 . S
Gd756 C815 2.828 . S
Gd757 N766 2.661 . S
Gd757 N770 2.601 . S
Gd757 O801 2.362 . S
Gd757 O802 2.324 . S
Gd757 O806 2.545 . S
Gd757 O807 2.606 . S
Gd757 O809 2.429 . S
Gd757 O810 2.545 . S
Gd757 O811 2.412 . S
Gd757 C824 2.828 . S
C758 C761 1.417 . S
C758 C763 1.431 . S
C758 C764 1.412 . S
C759 C762 1.437 . S
C759 C763 1.317 . S
C759 H778 0.929 . S
C760 C761 1.426 . S
C760 C762 1.413 . S
C760 N770 1.359 . S
C761 C758 1.417 . S
C761 C760 1.426 . S
C761 N766 1.350 . S
C762 C759 1.437 . S
C762 C760 1.413 . S
C762 C772 1.391 . S
C763 C758 1.431 . S
C763 C759 1.317 . S
C763 H774 0.930 . S
C764 C758 1.412 . S
C764 C765 1.355 . S
C764 H776 0.930 . S
C765 C764 1.355 . S
C765 C767 1.402 . S
C765 H777 0.930 . S
N766 Gd757 2.661 . S
N766 C761 1.350 . S
N766 C767 1.307 . S
C767 C765 1.402 . S
C767 N766 1.307 . S
C767 H768 0.930 . S
H768 C767 0.930 . S
C769 N770 1.334 . S
C769 C771 1.394 . S
C769 H773 0.930 . S
N770 Gd757 2.601 . S
N770 C760 1.359 . S
N770 C769 1.334 . S
C771 C769 1.394 . S
C771 C772 1.359 . S
C771 H783 0.930 . S
C772 C762 1.391 . S
C772 C771 1.359 . S
C772 H784 0.929 . S
H773 C769 0.930 . S
H774 C763 0.930 . S
H775 C792 0.930 . S
H776 C764 0.930 . S
H777 C765 0.930 . S
H778 C759 0.929 . S
H779 C797 0.930 . S
H780 C788 0.930 . S
H781 C789 0.930 . S
H782 C813 0.929 . S
H783 C771 0.930 . S
H784 C772 0.929 . S
H785 C814 0.930 . S
H786 C795 0.930 . S
N787 Gd756 2.661 . S
N787 C791 1.350 . S
N787 C792 1.307 . S
C788 H780 0.930 . S
C788 C789 1.355 . S
C788 C790 1.412 . S
C789 H781 0.930 . S
C789 C788 1.355 . S
C789 C792 1.402 . S
C790 C788 1.412 . S
C790 C791 1.417 . S
C790 C814 1.431 . S
C791 N787 1.350 . S
C791 C790 1.417 . S
C791 C794 1.426 . S
C792 H775 0.930 . S
C792 N787 1.307 . S
C792 C789 1.402 . S
N793 Gd756 2.601 . S
N793 C794 1.359 . S
N793 C797 1.334 . S
C794 C791 1.426 . S
C794 N793 1.359 . S
C794 C798 1.413 . S
C795 H786 0.930 . S
C795 C796 1.359 . S
C795 C797 1.394 . S
C796 C795 1.359 . S
C796 C798 1.391 . S
C796 H799 0.929 . S
C797 H779 0.930 . S
C797 N793 1.334 . S
C797 C795 1.394 . S
C798 C794 1.413 . S
C798 C796 1.391 . S
C798 C813 1.437 . S
H799 C796 0.929 . S
O800 Gd756 2.545 . S
O800 C815 1.258 . S
O801 Gd756 2.606 . S
O801 Gd757 2.362 . S
O801 C812 1.284 . S
O802 Gd757 2.324 . S
O802 C822 1.254 . S
O803 Gd756 2.429 . S
O803 C822 1.268 . S
O804 Gd756 2.545 . S
O804 C812 1.250 . S
O805 Gd756 2.412 . S
O805 C815 1.252 . S
O806 Gd757 2.545 . S
O806 C824 1.258 . S
O807 Gd756 2.362 . S
O807 Gd757 2.606 . S
O807 C823 1.284 . S
O808 Gd756 2.324 . S
O808 C831 1.254 . S
O809 Gd757 2.429 . S
O809 C831 1.268 . S
O810 Gd757 2.545 . S
O810 C823 1.250 . S
O811 Gd757 2.412 . S
O811 C824 1.252 . S
C812 O801 1.284 . S
C812 O804 1.250 . S
C813 H782 0.929 . S
C813 C798 1.437 . S
C813 C814 1.317 . S
C814 H785 0.930 . S
C814 C790 1.431 . S
C814 C813 1.317 . S
C815 Gd756 2.828 . S
C815 O800 1.258 . S
C815 O805 1.252 . S
C815 C816 1.497 . S
C816 C815 1.497 . S
C816 C817 1.395 . S
C816 C818 1.380 . S
C817 C816 1.395 . S
C817 C820 1.398 . S
C817 H832 0.930 . S
C818 C816 1.380 . S
C818 C819 1.391 . S
C818 H833 0.930 . S
C819 C818 1.391 . S
C819 C821 1.387 . S
C820 C817 1.398 . S
C820 C821 1.380 . S
C820 H834 0.930 . S
C821 C819 1.387 . S
C821 C820 1.380 . S
C821 H835 0.930 . S
C822 O802 1.254 . S
C822 O803 1.268 . S
C823 O807 1.284 . S
C823 O810 1.250 . S
C824 Gd757 2.828 . S
C824 O806 1.258 . S
C824 O811 1.252 . S
C824 C825 1.497 . S
C825 C824 1.497 . S
C825 C826 1.395 . S
C825 C827 1.380 . S
C826 C825 1.395 . S
C826 C829 1.398 1_565 S
C826 H836 0.930 . S
C827 C825 1.380 . S
C827 C828 1.391 1_565 S
C827 H837 0.930 . S
C828 C827 1.391 1_545 S
C828 C830 1.387 . S
C829 C826 1.398 1_545 S
C829 C830 1.380 . S
C829 H838 0.930 . S
C830 C828 1.387 . S
C830 C829 1.380 . S
C830 H839 0.930 . S
C831 O808 1.254 . S
C831 O809 1.268 . S
H832 C817 0.930 . S
H833 C818 0.930 . S
H834 C820 0.930 . S
H835 C821 0.930 . S
H836 C826 0.930 . S
H837 C827 0.930 . S
H838 C829 0.930 . S
H839 C830 0.930 . S
Gd840 N871 2.661 . S
Gd840 N877 2.601 . S
Gd840 O884 2.545 . S
Gd840 O885 2.606 . S
Gd840 O887 2.429 . S
Gd840 O888 2.545 . S
Gd840 O889 2.412 . S
Gd840 O891 2.362 . S
Gd840 O892 2.324 . S
Gd840 C899 2.828 . S
Gd841 N850 2.661 . S
Gd841 N854 2.601 . S
Gd841 O885 2.362 . S
Gd841 O886 2.324 . S
Gd841 O890 2.545 . S
Gd841 O891 2.606 . S
Gd841 O893 2.429 . S
Gd841 O894 2.545 . S
Gd841 O895 2.412 . S
Gd841 C908 2.828 . S
C842 C845 1.417 . S
C842 C847 1.431 . S
C842 C848 1.412 . S
C843 C846 1.437 . S
C843 C847 1.317 . S
C843 H862 0.929 . S
C844 C845 1.426 . S
C844 C846 1.413 . S
C844 N854 1.359 . S
C845 C842 1.417 . S
C845 C844 1.426 . S
C845 N850 1.350 . S
C846 C843 1.437 . S
C846 C844 1.413 . S
C846 C856 1.391 . S
C847 C842 1.431 . S
C847 C843 1.317 . S
C847 H858 0.930 . S
C848 C842 1.412 . S
C848 C849 1.355 . S
C848 H860 0.930 . S
C849 C848 1.355 . S
C849 C851 1.402 . S
C849 H861 0.930 . S
N850 Gd841 2.661 . S
N850 C845 1.350 . S
N850 C851 1.307 . S
C851 C849 1.402 . S
C851 N850 1.307 . S
C851 H852 0.930 . S
H852 C851 0.930 . S
C853 N854 1.334 . S
C853 C855 1.394 . S
C853 H857 0.930 . S
N854 Gd841 2.601 . S
N854 C844 1.359 . S
N854 C853 1.334 . S
C855 C853 1.394 . S
C855 C856 1.359 . S
C855 H867 0.930 . S
C856 C846 1.391 . S
C856 C855 1.359 . S
C856 H868 0.929 . S
H857 C853 0.930 . S
H858 C847 0.930 . S
H859 C876 0.930 . S
H860 C848 0.930 . S
H861 C849 0.930 . S
H862 C843 0.929 . S
H863 C881 0.930 . S
H864 C872 0.930 . S
H865 C873 0.930 . S
H866 C897 0.929 . S
H867 C855 0.930 . S
H868 C856 0.929 . S
H869 C898 0.930 . S
H870 C879 0.930 . S
N871 Gd840 2.661 . S
N871 C875 1.350 . S
N871 C876 1.307 . S
C872 H864 0.930 . S
C872 C873 1.355 1_545 S
C872 C874 1.412 1_545 S
C873 H865 0.930 . S
C873 C872 1.355 1_565 S
C873 C876 1.402 . S
C874 C872 1.412 1_565 S
C874 C875 1.417 . S
C874 C898 1.431 1_565 S
C875 N871 1.350 . S
C875 C874 1.417 . S
C875 C878 1.426 . S
C876 H859 0.930 . S
C876 N871 1.307 . S
C876 C873 1.402 . S
N877 Gd840 2.601 . S
N877 C878 1.359 . S
N877 C881 1.334 . S
C878 C875 1.426 . S
C878 N877 1.359 . S
C878 C882 1.413 . S
C879 H870 0.930 . S
C879 C880 1.359 . S
C879 C881 1.394 . S
C880 C879 1.359 . S
C880 C882 1.391 . S
C880 H883 0.929 . S
C881 H863 0.930 . S
C881 N877 1.334 . S
C881 C879 1.394 . S
C882 C878 1.413 . S
C882 C880 1.391 . S
C882 C897 1.437 1_565 S
H883 C880 0.929 . S
O884 Gd840 2.545 . S
O884 C899 1.258 . S
O885 Gd840 2.606 . S
O885 Gd841 2.362 . S
O885 C896 1.284 . S
O886 Gd841 2.324 . S
O886 C906 1.254 . S
O887 Gd840 2.429 . S
O887 C906 1.268 . S
O888 Gd840 2.545 . S
O888 C896 1.250 . S
O889 Gd840 2.412 . S
O889 C899 1.252 . S
O890 Gd841 2.545 . S
O890 C908 1.258 . S
O891 Gd840 2.362 . S
O891 Gd841 2.606 . S
O891 C907 1.284 . S
O892 Gd840 2.324 . S
O892 C915 1.254 . S
O893 Gd841 2.429 . S
O893 C915 1.268 . S
O894 Gd841 2.545 . S
O894 C907 1.250 . S
O895 Gd841 2.412 . S
O895 C908 1.252 . S
C896 O885 1.284 . S
C896 O888 1.250 . S
C897 H866 0.929 . S
C897 C882 1.437 1_545 S
C897 C898 1.317 . S
C898 H869 0.930 . S
C898 C874 1.431 1_545 S
C898 C897 1.317 . S
C899 Gd840 2.828 . S
C899 O884 1.258 . S
C899 O889 1.252 . S
C899 C900 1.497 . S
C900 C899 1.497 . S
C900 C901 1.395 . S
C900 C902 1.380 . S
C901 C900 1.395 . S
C901 C904 1.398 . S
C901 H916 0.930 . S
C902 C900 1.380 . S
C902 C903 1.391 . S
C902 H917 0.930 . S
C903 C902 1.391 . S
C903 C905 1.387 . S
C904 C901 1.398 . S
C904 C905 1.380 . S
C904 H918 0.930 . S
C905 C903 1.387 . S
C905 C904 1.380 . S
C905 H919 0.930 . S
C906 O886 1.254 . S
C906 O887 1.268 . S
C907 O891 1.284 . S
C907 O894 1.250 . S
C908 Gd841 2.828 . S
C908 O890 1.258 . S
C908 O895 1.252 . S
C908 C909 1.497 . S
C909 C908 1.497 . S
C909 C910 1.395 . S
C909 C911 1.380 . S
C910 C909 1.395 . S
C910 C913 1.398 . S
C910 H920 0.930 . S
C911 C909 1.380 . S
C911 C912 1.391 . S
C911 H921 0.930 . S
C912 C911 1.391 . S
C912 C914 1.387 . S
C913 C910 1.398 . S
C913 C914 1.380 . S
C913 H922 0.930 . S
C914 C912 1.387 . S
C914 C913 1.380 . S
C914 H923 0.930 . S
C915 O892 1.254 . S
C915 O893 1.268 . S
H916 C901 0.930 . S
H917 C902 0.930 . S
H918 C904 0.930 . S
H919 C905 0.930 . S
H920 C910 0.930 . S
H921 C911 0.930 . S
H922 C913 0.930 . S
H923 C914 0.930 . S
Gd924 N955 2.661 . S
Gd924 N961 2.601 . S
Gd924 O968 2.545 . S
Gd924 O969 2.606 . S
Gd924 O971 2.429 . S
Gd924 O972 2.545 . S
Gd924 O973 2.412 . S
Gd924 O975 2.362 . S
Gd924 O976 2.324 . S
Gd924 C983 2.828 . S
Gd925 N934 2.661 . S
Gd925 N938 2.601 . S
Gd925 O969 2.362 . S
Gd925 O970 2.324 . S
Gd925 O974 2.545 . S
Gd925 O975 2.606 . S
Gd925 O977 2.429 . S
Gd925 O978 2.545 . S
Gd925 O979 2.412 . S
Gd925 C992 2.828 . S
C926 C929 1.417 . S
C926 C931 1.431 . S
C926 C932 1.412 . S
C927 C930 1.437 . S
C927 C931 1.317 . S
C927 H946 0.929 . S
C928 C929 1.426 . S
C928 C930 1.413 . S
C928 N938 1.359 . S
C929 C926 1.417 . S
C929 C928 1.426 . S
C929 N934 1.350 . S
C930 C927 1.437 . S
C930 C928 1.413 . S
C930 C940 1.391 . S
C931 C926 1.431 . S
C931 C927 1.317 . S
C931 H942 0.930 . S
C932 C926 1.412 . S
C932 C933 1.355 . S
C932 H944 0.930 . S
C933 C932 1.355 . S
C933 C935 1.402 . S
C933 H945 0.930 . S
N934 Gd925 2.661 . S
N934 C929 1.350 . S
N934 C935 1.307 . S
C935 C933 1.402 . S
C935 N934 1.307 . S
C935 H936 0.930 . S
H936 C935 0.930 . S
C937 N938 1.334 . S
C937 C939 1.394 . S
C937 H941 0.930 . S
N938 Gd925 2.601 . S
N938 C928 1.359 . S
N938 C937 1.334 . S
C939 C937 1.394 . S
C939 C940 1.359 . S
C939 H951 0.930 . S
C940 C930 1.391 . S
C940 C939 1.359 . S
C940 H952 0.929 . S
H941 C937 0.930 . S
H942 C931 0.930 . S
H943 C960 0.930 . S
H944 C932 0.930 . S
H945 C933 0.930 . S
H946 C927 0.929 . S
H947 C965 0.930 . S
H948 C956 0.930 . S
H949 C957 0.930 . S
H950 C981 0.929 . S
H951 C939 0.930 . S
H952 C940 0.929 . S
H953 C982 0.930 . S
H954 C963 0.930 . S
N955 Gd924 2.661 . S
N955 C959 1.350 . S
N955 C960 1.307 . S
C956 H948 0.930 . S
C956 C957 1.355 . S
C956 C958 1.412 . S
C957 H949 0.930 . S
C957 C956 1.355 . S
C957 C960 1.402 . S
C958 C956 1.412 . S
C958 C959 1.417 . S
C958 C982 1.431 . S
C959 N955 1.350 . S
C959 C958 1.417 . S
C959 C962 1.426 . S
C960 H943 0.930 . S
C960 N955 1.307 . S
C960 C957 1.402 . S
N961 Gd924 2.601 . S
N961 C962 1.359 . S
N961 C965 1.334 . S
C962 C959 1.426 . S
C962 N961 1.359 . S
C962 C966 1.413 . S
C963 H954 0.930 . S
C963 C964 1.359 . S
C963 C965 1.394 . S
C964 C963 1.359 . S
C964 C966 1.391 . S
C964 H967 0.929 . S
C965 H947 0.930 . S
C965 N961 1.334 . S
C965 C963 1.394 . S
C966 C962 1.413 . S
C966 C964 1.391 . S
C966 C981 1.437 . S
H967 C964 0.929 . S
O968 Gd924 2.545 . S
O968 C983 1.258 . S
O969 Gd924 2.606 . S
O969 Gd925 2.362 . S
O969 C980 1.284 . S
O970 Gd925 2.324 . S
O970 C990 1.254 . S
O971 Gd924 2.429 . S
O971 C990 1.268 . S
O972 Gd924 2.545 . S
O972 C980 1.250 . S
O973 Gd924 2.412 . S
O973 C983 1.252 . S
O974 Gd925 2.545 . S
O974 C992 1.258 . S
O975 Gd924 2.362 . S
O975 Gd925 2.606 . S
O975 C991 1.284 . S
O976 Gd924 2.324 . S
O976 C999 1.254 . S
O977 Gd925 2.429 . S
O977 C999 1.268 . S
O978 Gd925 2.545 . S
O978 C991 1.250 . S
O979 Gd925 2.412 . S
O979 C992 1.252 . S
C980 O969 1.284 . S
C980 O972 1.250 . S
C981 H950 0.929 . S
C981 C966 1.437 . S
C981 C982 1.317 . S
C982 H953 0.930 . S
C982 C958 1.431 . S
C982 C981 1.317 . S
C983 Gd924 2.828 . S
C983 O968 1.258 . S
C983 O973 1.252 . S
C983 C984 1.497 . S
C984 C983 1.497 . S
C984 C985 1.395 . S
C984 C986 1.380 . S
C985 C984 1.395 . S
C985 C988 1.398 . S
C985 H1000 0.930 . S
C986 C984 1.380 . S
C986 C987 1.391 . S
C986 H1001 0.930 . S
C987 C986 1.391 . S
C987 C989 1.387 . S
C988 C985 1.398 . S
C988 C989 1.380 . S
C988 H1002 0.930 . S
C989 C987 1.387 . S
C989 C988 1.380 . S
C989 H1003 0.930 . S
C990 O970 1.254 . S
C990 O971 1.268 . S
C991 O975 1.284 . S
C991 O978 1.250 . S
C992 Gd925 2.828 . S
C992 O974 1.258 . S
C992 O979 1.252 . S
C992 C993 1.497 . S
C993 C992 1.497 . S
C993 C994 1.395 . S
C993 C995 1.380 . S
C994 C993 1.395 . S
C994 C997 1.398 . S
C994 H1004 0.930 . S
C995 C993 1.380 . S
C995 C996 1.391 . S
C995 H1005 0.930 . S
C996 C995 1.391 . S
C996 C998 1.387 . S
C997 C994 1.398 . S
C997 C998 1.380 . S
C997 H1006 0.930 . S
C998 C996 1.387 . S
C998 C997 1.380 . S
C998 H1007 0.930 . S
C999 O976 1.254 . S
C999 O977 1.268 . S
H1000 C985 0.930 . S
H1001 C986 0.930 . S
H1002 C988 0.930 . S
H1003 C989 0.930 . S
H1004 C994 0.930 . S
H1005 C995 0.930 . S
H1006 C997 0.930 . S
H1007 C998 0.930 . S
Gd1008 N1039 2.661 . S
Gd1008 N1045 2.601 . S
Gd1008 O1052 2.545 . S
Gd1008 O1053 2.606 . S
Gd1008 O1055 2.429 . S
Gd1008 O1056 2.545 . S
Gd1008 O1057 2.412 . S
Gd1008 O1059 2.362 . S
Gd1008 O1060 2.324 . S
Gd1008 C1067 2.828 . S
Gd1009 N1018 2.661 . S
Gd1009 N1022 2.601 . S
Gd1009 O1053 2.362 . S
Gd1009 O1054 2.324 . S
Gd1009 O1058 2.545 . S
Gd1009 O1059 2.606 . S
Gd1009 O1061 2.429 . S
Gd1009 O1062 2.545 . S
Gd1009 O1063 2.412 . S
Gd1009 C1076 2.828 . S
C1010 C1013 1.417 . S
C1010 C1015 1.431 . S
C1010 C1016 1.412 . S
C1011 C1014 1.437 . S
C1011 C1015 1.317 . S
C1011 H1030 0.929 . S
C1012 C1013 1.426 . S
C1012 C1014 1.413 . S
C1012 N1022 1.359 . S
C1013 C1010 1.417 . S
C1013 C1012 1.426 . S
C1013 N1018 1.350 . S
C1014 C1011 1.437 . S
C1014 C1012 1.413 . S
C1014 C1024 1.391 . S
C1015 C1010 1.431 . S
C1015 C1011 1.317 . S
C1015 H1026 0.930 . S
C1016 C1010 1.412 . S
C1016 C1017 1.355 . S
C1016 H1028 0.930 . S
C1017 C1016 1.355 . S
C1017 C1019 1.402 . S
C1017 H1029 0.930 . S
N1018 Gd1009 2.661 . S
N1018 C1013 1.350 . S
N1018 C1019 1.307 . S
C1019 C1017 1.402 . S
C1019 N1018 1.307 . S
C1019 H1020 0.930 . S
H1020 C1019 0.930 . S
C1021 N1022 1.334 . S
C1021 C1023 1.394 . S
C1021 H1025 0.930 . S
N1022 Gd1009 2.601 . S
N1022 C1012 1.359 . S
N1022 C1021 1.334 . S
C1023 C1021 1.394 . S
C1023 C1024 1.359 . S
C1023 H1035 0.930 . S
C1024 C1014 1.391 . S
C1024 C1023 1.359 . S
C1024 H1036 0.929 . S
H1025 C1021 0.930 . S
H1026 C1015 0.930 . S
H1027 C1044 0.930 . S
H1028 C1016 0.930 . S
H1029 C1017 0.930 . S
H1030 C1011 0.929 . S
H1031 C1049 0.930 . S
H1032 C1040 0.930 . S
H1033 C1041 0.930 . S
H1034 C1065 0.929 . S
H1035 C1023 0.930 . S
H1036 C1024 0.929 . S
H1037 C1066 0.930 . S
H1038 C1047 0.930 . S
N1039 Gd1008 2.661 . S
N1039 C1043 1.350 . S
N1039 C1044 1.307 . S
C1040 H1032 0.930 . S
C1040 C1041 1.355 . S
C1040 C1042 1.412 . S
C1041 H1033 0.930 . S
C1041 C1040 1.355 . S
C1041 C1044 1.402 . S
C1042 C1040 1.412 . S
C1042 C1043 1.417 . S
C1042 C1066 1.431 . S
C1043 N1039 1.350 . S
C1043 C1042 1.417 . S
C1043 C1046 1.426 . S
C1044 H1027 0.930 . S
C1044 N1039 1.307 . S
C1044 C1041 1.402 . S
N1045 Gd1008 2.601 . S
N1045 C1046 1.359 . S
N1045 C1049 1.334 . S
C1046 C1043 1.426 . S
C1046 N1045 1.359 . S
C1046 C1050 1.413 . S
C1047 H1038 0.930 . S
C1047 C1048 1.359 . S
C1047 C1049 1.394 . S
C1048 C1047 1.359 . S
C1048 C1050 1.391 . S
C1048 H1051 0.929 . S
C1049 H1031 0.930 . S
C1049 N1045 1.334 . S
C1049 C1047 1.394 . S
C1050 C1046 1.413 . S
C1050 C1048 1.391 . S
C1050 C1065 1.437 . S
H1051 C1048 0.929 . S
O1052 Gd1008 2.545 . S
O1052 C1067 1.258 . S
O1053 Gd1008 2.606 . S
O1053 Gd1009 2.362 . S
O1053 C1064 1.284 . S
O1054 Gd1009 2.324 . S
O1054 C1074 1.254 . S
O1055 Gd1008 2.429 . S
O1055 C1074 1.268 . S
O1056 Gd1008 2.545 . S
O1056 C1064 1.250 . S
O1057 Gd1008 2.412 . S
O1057 C1067 1.252 . S
O1058 Gd1009 2.545 . S
O1058 C1076 1.258 . S
O1059 Gd1008 2.362 . S
O1059 Gd1009 2.606 . S
O1059 C1075 1.284 . S
O1060 Gd1008 2.324 . S
O1060 C1083 1.254 . S
O1061 Gd1009 2.429 . S
O1061 C1083 1.268 . S
O1062 Gd1009 2.545 . S
O1062 C1075 1.250 . S
O1063 Gd1009 2.412 . S
O1063 C1076 1.252 . S
C1064 O1053 1.284 . S
C1064 O1056 1.250 . S
C1065 H1034 0.929 . S
C1065 C1050 1.437 . S
C1065 C1066 1.317 . S
C1066 H1037 0.930 . S
C1066 C1042 1.431 . S
C1066 C1065 1.317 . S
C1067 Gd1008 2.828 . S
C1067 O1052 1.258 . S
C1067 O1057 1.252 . S
C1067 C1068 1.497 . S
C1068 C1067 1.497 . S
C1068 C1069 1.395 . S
C1068 C1070 1.380 . S
C1069 C1068 1.395 . S
C1069 C1072 1.398 . S
C1069 H1084 0.930 . S
C1070 C1068 1.380 . S
C1070 C1071 1.391 . S
C1070 H1085 0.930 . S
C1071 C1070 1.391 . S
C1071 C1073 1.387 . S
C1072 C1069 1.398 . S
C1072 C1073 1.380 . S
C1072 H1086 0.930 . S
C1073 C1071 1.387 . S
C1073 C1072 1.380 . S
C1073 H1087 0.930 . S
C1074 O1054 1.254 . S
C1074 O1055 1.268 . S
C1075 O1059 1.284 . S
C1075 O1062 1.250 . S
C1076 Gd1009 2.828 . S
C1076 O1058 1.258 . S
C1076 O1063 1.252 . S
C1076 C1077 1.497 . S
C1077 C1076 1.497 . S
C1077 C1078 1.395 . S
C1077 C1079 1.380 . S
C1078 C1077 1.395 . S
C1078 C1081 1.398 1_655 S
C1078 H1088 0.930 . S
C1079 C1077 1.380 . S
C1079 C1080 1.391 1_655 S
C1079 H1089 0.930 . S
C1080 C1079 1.391 1_455 S
C1080 C1082 1.387 . S
C1081 C1078 1.398 1_455 S
C1081 C1082 1.380 . S
C1081 H1090 0.930 . S
C1082 C1080 1.387 . S
C1082 C1081 1.380 . S
C1082 H1091 0.930 . S
C1083 O1060 1.254 . S
C1083 O1061 1.268 . S
H1084 C1069 0.930 . S
H1085 C1070 0.930 . S
H1086 C1072 0.930 . S
H1087 C1073 0.930 . S
H1088 C1078 0.930 . S
H1089 C1079 0.930 . S
H1090 C1081 0.930 . S
H1091 C1082 0.930 . S
Gd1092 N1123 2.661 . S
Gd1092 N1129 2.601 . S
Gd1092 O1136 2.545 . S
Gd1092 O1137 2.606 . S
Gd1092 O1139 2.429 . S
Gd1092 O1140 2.545 . S
Gd1092 O1141 2.412 . S
Gd1092 O1143 2.362 . S
Gd1092 O1144 2.324 . S
Gd1092 C1151 2.828 . S
Gd1093 N1102 2.661 . S
Gd1093 N1106 2.601 . S
Gd1093 O1137 2.362 . S
Gd1093 O1138 2.324 . S
Gd1093 O1142 2.545 . S
Gd1093 O1143 2.606 . S
Gd1093 O1145 2.429 . S
Gd1093 O1146 2.545 . S
Gd1093 O1147 2.412 . S
Gd1093 C1160 2.828 . S
C1094 C1097 1.417 . S
C1094 C1099 1.431 . S
C1094 C1100 1.412 . S
C1095 C1098 1.437 . S
C1095 C1099 1.317 . S
C1095 H1114 0.929 . S
C1096 C1097 1.426 . S
C1096 C1098 1.413 . S
C1096 N1106 1.359 . S
C1097 C1094 1.417 . S
C1097 C1096 1.426 . S
C1097 N1102 1.350 . S
C1098 C1095 1.437 . S
C1098 C1096 1.413 . S
C1098 C1108 1.391 . S
C1099 C1094 1.431 . S
C1099 C1095 1.317 . S
C1099 H1110 0.930 . S
C1100 C1094 1.412 . S
C1100 C1101 1.355 . S
C1100 H1112 0.930 . S
C1101 C1100 1.355 . S
C1101 C1103 1.402 . S
C1101 H1113 0.930 . S
N1102 Gd1093 2.661 . S
N1102 C1097 1.350 . S
N1102 C1103 1.307 . S
C1103 C1101 1.402 . S
C1103 N1102 1.307 . S
C1103 H1104 0.930 . S
H1104 C1103 0.930 . S
C1105 N1106 1.334 . S
C1105 C1107 1.394 . S
C1105 H1109 0.930 . S
N1106 Gd1093 2.601 . S
N1106 C1096 1.359 . S
N1106 C1105 1.334 . S
C1107 C1105 1.394 . S
C1107 C1108 1.359 . S
C1107 H1119 0.930 . S
C1108 C1098 1.391 . S
C1108 C1107 1.359 . S
C1108 H1120 0.929 . S
H1109 C1105 0.930 . S
H1110 C1099 0.930 . S
H1111 C1128 0.930 . S
H1112 C1100 0.930 . S
H1113 C1101 0.930 . S
H1114 C1095 0.929 . S
H1115 C1133 0.930 . S
H1116 C1124 0.930 . S
H1117 C1125 0.930 . S
H1118 C1149 0.929 . S
H1119 C1107 0.930 . S
H1120 C1108 0.929 . S
H1121 C1150 0.930 . S
H1122 C1131 0.930 . S
N1123 Gd1092 2.661 . S
N1123 C1127 1.350 . S
N1123 C1128 1.307 . S
C1124 H1116 0.930 . S
C1124 C1125 1.355 . S
C1124 C1126 1.412 . S
C1125 H1117 0.930 . S
C1125 C1124 1.355 . S
C1125 C1128 1.402 . S
C1126 C1124 1.412 . S
C1126 C1127 1.417 . S
C1126 C1150 1.431 . S
C1127 N1123 1.350 . S
C1127 C1126 1.417 . S
C1127 C1130 1.426 . S
C1128 H1111 0.930 . S
C1128 N1123 1.307 . S
C1128 C1125 1.402 . S
N1129 Gd1092 2.601 . S
N1129 C1130 1.359 . S
N1129 C1133 1.334 . S
C1130 C1127 1.426 . S
C1130 N1129 1.359 . S
C1130 C1134 1.413 . S
C1131 H1122 0.930 . S
C1131 C1132 1.359 . S
C1131 C1133 1.394 . S
C1132 C1131 1.359 . S
C1132 C1134 1.391 . S
C1132 H1135 0.929 . S
C1133 H1115 0.930 . S
C1133 N1129 1.334 . S
C1133 C1131 1.394 . S
C1134 C1130 1.413 . S
C1134 C1132 1.391 . S
C1134 C1149 1.437 . S
H1135 C1132 0.929 . S
O1136 Gd1092 2.545 . S
O1136 C1151 1.258 . S
O1137 Gd1092 2.606 . S
O1137 Gd1093 2.362 . S
O1137 C1148 1.284 . S
O1138 Gd1093 2.324 . S
O1138 C1158 1.254 . S
O1139 Gd1092 2.429 . S
O1139 C1158 1.268 . S
O1140 Gd1092 2.545 . S
O1140 C1148 1.250 . S
O1141 Gd1092 2.412 . S
O1141 C1151 1.252 . S
O1142 Gd1093 2.545 . S
O1142 C1160 1.258 . S
O1143 Gd1092 2.362 . S
O1143 Gd1093 2.606 . S
O1143 C1159 1.284 . S
O1144 Gd1092 2.324 . S
O1144 C1167 1.254 . S
O1145 Gd1093 2.429 . S
O1145 C1167 1.268 . S
O1146 Gd1093 2.545 . S
O1146 C1159 1.250 . S
O1147 Gd1093 2.412 . S
O1147 C1160 1.252 . S
C1148 O1137 1.284 . S
C1148 O1140 1.250 . S
C1149 H1118 0.929 . S
C1149 C1134 1.437 . S
C1149 C1150 1.317 . S
C1150 H1121 0.930 . S
C1150 C1126 1.431 . S
C1150 C1149 1.317 . S
C1151 Gd1092 2.828 . S
C1151 O1136 1.258 . S
C1151 O1141 1.252 . S
C1151 C1152 1.497 . S
C1152 C1151 1.497 . S
C1152 C1153 1.395 . S
C1152 C1154 1.380 . S
C1153 C1152 1.395 . S
C1153 C1156 1.398 . S
C1153 H1168 0.930 . S
C1154 C1152 1.380 . S
C1154 C1155 1.391 . S
C1154 H1169 0.930 . S
C1155 C1154 1.391 . S
C1155 C1157 1.387 . S
C1156 C1153 1.398 . S
C1156 C1157 1.380 . S
C1156 H1170 0.930 . S
C1157 C1155 1.387 . S
C1157 C1156 1.380 . S
C1157 H1171 0.930 . S
C1158 O1138 1.254 . S
C1158 O1139 1.268 . S
C1159 O1143 1.284 . S
C1159 O1146 1.250 . S
C1160 Gd1093 2.828 . S
C1160 O1142 1.258 . S
C1160 O1147 1.252 . S
C1160 C1161 1.497 . S
C1161 C1160 1.497 . S
C1161 C1162 1.395 . S
C1161 C1163 1.380 . S
C1162 C1161 1.395 . S
C1162 C1165 1.398 . S
C1162 H1172 0.930 . S
C1163 C1161 1.380 . S
C1163 C1164 1.391 . S
C1163 H1173 0.930 . S
C1164 C1163 1.391 . S
C1164 C1166 1.387 . S
C1165 C1162 1.398 . S
C1165 C1166 1.380 . S
C1165 H1174 0.930 . S
C1166 C1164 1.387 . S
C1166 C1165 1.380 . S
C1166 H1175 0.930 . S
C1167 O1144 1.254 . S
C1167 O1145 1.268 . S
H1168 C1153 0.930 . S
H1169 C1154 0.930 . S
H1170 C1156 0.930 . S
H1171 C1157 0.930 . S
H1172 C1162 0.930 . S
H1173 C1163 0.930 . S
H1174 C1165 0.930 . S
H1175 C1166 0.930 . S
Gd1176 N1207 2.661 . S
Gd1176 N1213 2.601 . S
Gd1176 O1220 2.545 . S
Gd1176 O1221 2.606 . S
Gd1176 O1223 2.429 . S
Gd1176 O1224 2.545 . S
Gd1176 O1225 2.412 . S
Gd1176 O1227 2.362 . S
Gd1176 O1228 2.324 . S
Gd1176 C1235 2.828 . S
Gd1177 N1186 2.661 . S
Gd1177 N1190 2.601 . S
Gd1177 O1221 2.362 . S
Gd1177 O1222 2.324 . S
Gd1177 O1226 2.545 . S
Gd1177 O1227 2.606 . S
Gd1177 O1229 2.429 . S
Gd1177 O1230 2.545 . S
Gd1177 O1231 2.412 . S
Gd1177 C1244 2.828 . S
C1178 C1181 1.417 . S
C1178 C1183 1.431 . S
C1178 C1184 1.412 . S
C1179 C1182 1.437 . S
C1179 C1183 1.317 . S
C1179 H1198 0.929 . S
C1180 C1181 1.426 . S
C1180 C1182 1.413 . S
C1180 N1190 1.359 . S
C1181 C1178 1.417 . S
C1181 C1180 1.426 . S
C1181 N1186 1.350 . S
C1182 C1179 1.437 . S
C1182 C1180 1.413 . S
C1182 C1192 1.391 . S
C1183 C1178 1.431 . S
C1183 C1179 1.317 . S
C1183 H1194 0.930 . S
C1184 C1178 1.412 . S
C1184 C1185 1.355 . S
C1184 H1196 0.930 . S
C1185 C1184 1.355 . S
C1185 C1187 1.402 . S
C1185 H1197 0.930 . S
N1186 Gd1177 2.661 . S
N1186 C1181 1.350 . S
N1186 C1187 1.307 . S
C1187 C1185 1.402 . S
C1187 N1186 1.307 . S
C1187 H1188 0.930 . S
H1188 C1187 0.930 . S
C1189 N1190 1.334 . S
C1189 C1191 1.394 . S
C1189 H1193 0.930 . S
N1190 Gd1177 2.601 . S
N1190 C1180 1.359 . S
N1190 C1189 1.334 . S
C1191 C1189 1.394 . S
C1191 C1192 1.359 . S
C1191 H1203 0.930 . S
C1192 C1182 1.391 . S
C1192 C1191 1.359 . S
C1192 H1204 0.929 . S
H1193 C1189 0.930 . S
H1194 C1183 0.930 . S
H1195 C1212 0.930 . S
H1196 C1184 0.930 . S
H1197 C1185 0.930 . S
H1198 C1179 0.929 . S
H1199 C1217 0.930 . S
H1200 C1208 0.930 . S
H1201 C1209 0.930 . S
H1202 C1233 0.929 . S
H1203 C1191 0.930 . S
H1204 C1192 0.929 . S
H1205 C1234 0.930 . S
H1206 C1215 0.930 . S
N1207 Gd1176 2.661 . S
N1207 C1211 1.350 . S
N1207 C1212 1.307 . S
C1208 H1200 0.930 . S
C1208 C1209 1.355 1_455 S
C1208 C1210 1.412 1_455 S
C1209 H1201 0.930 . S
C1209 C1208 1.355 1_655 S
C1209 C1212 1.402 . S
C1210 C1208 1.412 1_655 S
C1210 C1211 1.417 . S
C1210 C1234 1.431 1_655 S
C1211 N1207 1.350 . S
C1211 C1210 1.417 . S
C1211 C1214 1.426 . S
C1212 H1195 0.930 . S
C1212 N1207 1.307 . S
C1212 C1209 1.402 . S
N1213 Gd1176 2.601 . S
N1213 C1214 1.359 . S
N1213 C1217 1.334 . S
C1214 C1211 1.426 . S
C1214 N1213 1.359 . S
C1214 C1218 1.413 . S
C1215 H1206 0.930 . S
C1215 C1216 1.359 . S
C1215 C1217 1.394 . S
C1216 C1215 1.359 . S
C1216 C1218 1.391 . S
C1216 H1219 0.929 . S
C1217 H1199 0.930 . S
C1217 N1213 1.334 . S
C1217 C1215 1.394 . S
C1218 C1214 1.413 . S
C1218 C1216 1.391 . S
C1218 C1233 1.437 1_655 S
H1219 C1216 0.929 . S
O1220 Gd1176 2.545 . S
O1220 C1235 1.258 . S
O1221 Gd1176 2.606 . S
O1221 Gd1177 2.362 . S
O1221 C1232 1.284 . S
O1222 Gd1177 2.324 . S
O1222 C1242 1.254 . S
O1223 Gd1176 2.429 . S
O1223 C1242 1.268 . S
O1224 Gd1176 2.545 . S
O1224 C1232 1.250 . S
O1225 Gd1176 2.412 . S
O1225 C1235 1.252 . S
O1226 Gd1177 2.545 . S
O1226 C1244 1.258 . S
O1227 Gd1176 2.362 . S
O1227 Gd1177 2.606 . S
O1227 C1243 1.284 . S
O1228 Gd1176 2.324 . S
O1228 C1251 1.254 . S
O1229 Gd1177 2.429 . S
O1229 C1251 1.268 . S
O1230 Gd1177 2.545 . S
O1230 C1243 1.250 . S
O1231 Gd1177 2.412 . S
O1231 C1244 1.252 . S
C1232 O1221 1.284 . S
C1232 O1224 1.250 . S
C1233 H1202 0.929 . S
C1233 C1218 1.437 1_455 S
C1233 C1234 1.317 . S
C1234 H1205 0.930 . S
C1234 C1210 1.431 1_455 S
C1234 C1233 1.317 . S
C1235 Gd1176 2.828 . S
C1235 O1220 1.258 . S
C1235 O1225 1.252 . S
C1235 C1236 1.497 . S
C1236 C1235 1.497 . S
C1236 C1237 1.395 . S
C1236 C1238 1.380 . S
C1237 C1236 1.395 . S
C1237 C1240 1.398 . S
C1237 H1252 0.930 . S
C1238 C1236 1.380 . S
C1238 C1239 1.391 . S
C1238 H1253 0.930 . S
C1239 C1238 1.391 . S
C1239 C1241 1.387 . S
C1240 C1237 1.398 . S
C1240 C1241 1.380 . S
C1240 H1254 0.930 . S
C1241 C1239 1.387 . S
C1241 C1240 1.380 . S
C1241 H1255 0.930 . S
C1242 O1222 1.254 . S
C1242 O1223 1.268 . S
C1243 O1227 1.284 . S
C1243 O1230 1.250 . S
C1244 Gd1177 2.828 . S
C1244 O1226 1.258 . S
C1244 O1231 1.252 . S
C1244 C1245 1.497 . S
C1245 C1244 1.497 . S
C1245 C1246 1.395 . S
C1245 C1247 1.380 . S
C1246 C1245 1.395 . S
C1246 C1249 1.398 . S
C1246 H1256 0.930 . S
C1247 C1245 1.380 . S
C1247 C1248 1.391 . S
C1247 H1257 0.930 . S
C1248 C1247 1.391 . S
C1248 C1250 1.387 . S
C1249 C1246 1.398 . S
C1249 C1250 1.380 . S
C1249 H1258 0.930 . S
C1250 C1248 1.387 . S
C1250 C1249 1.380 . S
C1250 H1259 0.930 . S
C1251 O1228 1.254 . S
C1251 O1229 1.268 . S
H1252 C1237 0.930 . S
H1253 C1238 0.930 . S
H1254 C1240 0.930 . S
H1255 C1241 0.930 . S
H1256 C1246 0.930 . S
H1257 C1247 0.930 . S
H1258 C1249 0.930 . S
H1259 C1250 0.930 . S
Gd1260 N1291 2.661 . S
Gd1260 N1297 2.601 . S
Gd1260 O1304 2.545 . S
Gd1260 O1305 2.606 . S
Gd1260 O1307 2.429 . S
Gd1260 O1308 2.545 . S
Gd1260 O1309 2.412 . S
Gd1260 O1311 2.362 . S
Gd1260 O1312 2.324 . S
Gd1260 C1319 2.828 . S
Gd1261 N1270 2.661 . S
Gd1261 N1274 2.601 . S
Gd1261 O1305 2.362 . S
Gd1261 O1306 2.324 . S
Gd1261 O1310 2.545 . S
Gd1261 O1311 2.606 . S
Gd1261 O1313 2.429 . S
Gd1261 O1314 2.545 . S
Gd1261 O1315 2.412 . S
Gd1261 C1328 2.828 . S
C1262 C1265 1.417 . S
C1262 C1267 1.431 . S
C1262 C1268 1.412 . S
C1263 C1266 1.437 . S
C1263 C1267 1.317 . S
C1263 H1282 0.929 . S
C1264 C1265 1.426 . S
C1264 C1266 1.413 . S
C1264 N1274 1.359 . S
C1265 C1262 1.417 . S
C1265 C1264 1.426 . S
C1265 N1270 1.350 . S
C1266 C1263 1.437 . S
C1266 C1264 1.413 . S
C1266 C1276 1.391 . S
C1267 C1262 1.431 . S
C1267 C1263 1.317 . S
C1267 H1278 0.930 . S
C1268 C1262 1.412 . S
C1268 C1269 1.355 . S
C1268 H1280 0.930 . S
C1269 C1268 1.355 . S
C1269 C1271 1.402 . S
C1269 H1281 0.930 . S
N1270 Gd1261 2.661 . S
N1270 C1265 1.350 . S
N1270 C1271 1.307 . S
C1271 C1269 1.402 . S
C1271 N1270 1.307 . S
C1271 H1272 0.930 . S
H1272 C1271 0.930 . S
C1273 N1274 1.334 . S
C1273 C1275 1.394 . S
C1273 H1277 0.930 . S
N1274 Gd1261 2.601 . S
N1274 C1264 1.359 . S
N1274 C1273 1.334 . S
C1275 C1273 1.394 . S
C1275 C1276 1.359 . S
C1275 H1287 0.930 . S
C1276 C1266 1.391 . S
C1276 C1275 1.359 . S
C1276 H1288 0.929 . S
H1277 C1273 0.930 . S
H1278 C1267 0.930 . S
H1279 C1296 0.930 . S
H1280 C1268 0.930 . S
H1281 C1269 0.930 . S
H1282 C1263 0.929 . S
H1283 C1301 0.930 . S
H1284 C1292 0.930 . S
H1285 C1293 0.930 . S
H1286 C1317 0.929 . S
H1287 C1275 0.930 . S
H1288 C1276 0.929 . S
H1289 C1318 0.930 . S
H1290 C1299 0.930 . S
N1291 Gd1260 2.661 . S
N1291 C1295 1.350 . S
N1291 C1296 1.307 . S
C1292 H1284 0.930 . S
C1292 C1293 1.355 . S
C1292 C1294 1.412 . S
C1293 H1285 0.930 . S
C1293 C1292 1.355 . S
C1293 C1296 1.402 . S
C1294 C1292 1.412 . S
C1294 C1295 1.417 . S
C1294 C1318 1.431 . S
C1295 N1291 1.350 . S
C1295 C1294 1.417 . S
C1295 C1298 1.426 . S
C1296 H1279 0.930 . S
C1296 N1291 1.307 . S
C1296 C1293 1.402 . S
N1297 Gd1260 2.601 . S
N1297 C1298 1.359 . S
N1297 C1301 1.334 . S
C1298 C1295 1.426 . S
C1298 N1297 1.359 . S
C1298 C1302 1.413 . S
C1299 H1290 0.930 . S
C1299 C1300 1.359 . S
C1299 C1301 1.394 . S
C1300 C1299 1.359 . S
C1300 C1302 1.391 . S
C1300 H1303 0.929 . S
C1301 H1283 0.930 . S
C1301 N1297 1.334 . S
C1301 C1299 1.394 . S
C1302 C1298 1.413 . S
C1302 C1300 1.391 . S
C1302 C1317 1.437 . S
H1303 C1300 0.929 . S
O1304 Gd1260 2.545 . S
O1304 C1319 1.258 . S
O1305 Gd1260 2.606 . S
O1305 Gd1261 2.362 . S
O1305 C1316 1.284 . S
O1306 Gd1261 2.324 . S
O1306 C1326 1.254 . S
O1307 Gd1260 2.429 . S
O1307 C1326 1.268 . S
O1308 Gd1260 2.545 . S
O1308 C1316 1.250 . S
O1309 Gd1260 2.412 . S
O1309 C1319 1.252 . S
O1310 Gd1261 2.545 . S
O1310 C1328 1.258 . S
O1311 Gd1260 2.362 . S
O1311 Gd1261 2.606 . S
O1311 C1327 1.284 . S
O1312 Gd1260 2.324 . S
O1312 C1335 1.254 . S
O1313 Gd1261 2.429 . S
O1313 C1335 1.268 . S
O1314 Gd1261 2.545 . S
O1314 C1327 1.250 . S
O1315 Gd1261 2.412 . S
O1315 C1328 1.252 . S
C1316 O1305 1.284 . S
C1316 O1308 1.250 . S
C1317 H1286 0.929 . S
C1317 C1302 1.437 . S
C1317 C1318 1.317 . S
C1318 H1289 0.930 . S
C1318 C1294 1.431 . S
C1318 C1317 1.317 . S
C1319 Gd1260 2.828 . S
C1319 O1304 1.258 . S
C1319 O1309 1.252 . S
C1319 C1320 1.497 . S
C1320 C1319 1.497 . S
C1320 C1321 1.395 . S
C1320 C1322 1.380 . S
C1321 C1320 1.395 . S
C1321 C1324 1.398 1_545 S
C1321 H1336 0.930 . S
C1322 C1320 1.380 . S
C1322 C1323 1.391 . S
C1322 H1337 0.930 . S
C1323 C1322 1.391 . S
C1323 C1325 1.387 1_545 S
C1324 C1321 1.398 1_565 S
C1324 C1325 1.380 . S
C1324 H1338 0.930 . S
C1325 C1323 1.387 1_565 S
C1325 C1324 1.380 . S
C1325 H1339 0.930 . S
C1326 O1306 1.254 . S
C1326 O1307 1.268 . S
C1327 O1311 1.284 . S
C1327 O1314 1.250 . S
C1328 Gd1261 2.828 . S
C1328 O1310 1.258 . S
C1328 O1315 1.252 . S
C1328 C1329 1.497 . S
C1329 C1328 1.497 . S
C1329 C1330 1.395 . S
C1329 C1331 1.380 . S
C1330 C1329 1.395 . S
C1330 C1333 1.398 . S
C1330 H1340 0.930 . S
C1331 C1329 1.380 . S
C1331 C1332 1.391 . S
C1331 H1341 0.930 . S
C1332 C1331 1.391 . S
C1332 C1334 1.387 . S
C1333 C1330 1.398 . S
C1333 C1334 1.380 . S
C1333 H1342 0.930 . S
C1334 C1332 1.387 . S
C1334 C1333 1.380 . S
C1334 H1343 0.930 . S
C1335 O1312 1.254 . S
C1335 O1313 1.268 . S
H1336 C1321 0.930 . S
H1337 C1322 0.930 . S
H1338 C1324 0.930 . S
H1339 C1325 0.930 . S
H1340 C1330 0.930 . S
H1341 C1331 0.930 . S
H1342 C1333 0.930 . S
H1343 C1334 0.930 . S
Gd1344 N1375 2.661 . S
Gd1344 N1381 2.601 . S
Gd1344 O1388 2.545 . S
Gd1344 O1389 2.606 . S
Gd1344 O1391 2.429 . S
Gd1344 O1392 2.545 . S
Gd1344 O1393 2.412 . S
Gd1344 O1395 2.362 . S
Gd1344 O1396 2.324 . S
Gd1344 C1403 2.828 . S
Gd1345 N1354 2.661 . S
Gd1345 N1358 2.601 . S
Gd1345 O1389 2.362 . S
Gd1345 O1390 2.324 . S
Gd1345 O1394 2.545 . S
Gd1345 O1395 2.606 . S
Gd1345 O1397 2.429 . S
Gd1345 O1398 2.545 . S
Gd1345 O1399 2.412 . S
Gd1345 C1412 2.828 . S
C1346 C1349 1.417 . S
C1346 C1351 1.431 . S
C1346 C1352 1.412 . S
C1347 C1350 1.437 . S
C1347 C1351 1.317 . S
C1347 H1366 0.929 . S
C1348 C1349 1.426 . S
C1348 C1350 1.413 . S
C1348 N1358 1.359 . S
C1349 C1346 1.417 . S
C1349 C1348 1.426 . S
C1349 N1354 1.350 . S
C1350 C1347 1.437 . S
C1350 C1348 1.413 . S
C1350 C1360 1.391 . S
C1351 C1346 1.431 . S
C1351 C1347 1.317 . S
C1351 H1362 0.930 . S
C1352 C1346 1.412 . S
C1352 C1353 1.355 . S
C1352 H1364 0.930 . S
C1353 C1352 1.355 . S
C1353 C1355 1.402 . S
C1353 H1365 0.930 . S
N1354 Gd1345 2.661 . S
N1354 C1349 1.350 . S
N1354 C1355 1.307 . S
C1355 C1353 1.402 . S
C1355 N1354 1.307 . S
C1355 H1356 0.930 . S
H1356 C1355 0.930 . S
C1357 N1358 1.334 . S
C1357 C1359 1.394 . S
C1357 H1361 0.930 . S
N1358 Gd1345 2.601 . S
N1358 C1348 1.359 . S
N1358 C1357 1.334 . S
C1359 C1357 1.394 . S
C1359 C1360 1.359 . S
C1359 H1371 0.930 . S
C1360 C1350 1.391 . S
C1360 C1359 1.359 . S
C1360 H1372 0.929 . S
H1361 C1357 0.930 . S
H1362 C1351 0.930 . S
H1363 C1380 0.930 . S
H1364 C1352 0.930 . S
H1365 C1353 0.930 . S
H1366 C1347 0.929 . S
H1367 C1385 0.930 . S
H1368 C1376 0.930 . S
H1369 C1377 0.930 . S
H1370 C1401 0.929 1_455 S
H1371 C1359 0.930 . S
H1372 C1360 0.929 . S
H1373 C1402 0.930 1_455 S
H1374 C1383 0.930 . S
N1375 Gd1344 2.661 . S
N1375 C1379 1.350 . S
N1375 C1380 1.307 . S
C1376 H1368 0.930 . S
C1376 C1377 1.355 . S
C1376 C1378 1.412 . S
C1377 H1369 0.930 . S
C1377 C1376 1.355 . S
C1377 C1380 1.402 . S
C1378 C1376 1.412 . S
C1378 C1379 1.417 . S
C1378 C1402 1.431 . S
C1379 N1375 1.350 . S
C1379 C1378 1.417 . S
C1379 C1382 1.426 . S
C1380 H1363 0.930 . S
C1380 N1375 1.307 . S
C1380 C1377 1.402 . S
N1381 Gd1344 2.601 . S
N1381 C1382 1.359 . S
N1381 C1385 1.334 . S
C1382 C1379 1.426 . S
C1382 N1381 1.359 . S
C1382 C1386 1.413 . S
C1383 H1374 0.930 . S
C1383 C1384 1.359 . S
C1383 C1385 1.394 . S
C1384 C1383 1.359 . S
C1384 C1386 1.391 . S
C1384 H1387 0.929 . S
C1385 H1367 0.930 . S
C1385 N1381 1.334 . S
C1385 C1383 1.394 . S
C1386 C1382 1.413 . S
C1386 C1384 1.391 . S
C1386 C1401 1.437 . S
H1387 C1384 0.929 . S
O1388 Gd1344 2.545 . S
O1388 C1403 1.258 . S
O1389 Gd1344 2.606 . S
O1389 Gd1345 2.362 . S
O1389 C1400 1.284 . S
O1390 Gd1345 2.324 . S
O1390 C1410 1.254 . S
O1391 Gd1344 2.429 . S
O1391 C1410 1.268 . S
O1392 Gd1344 2.545 . S
O1392 C1400 1.250 . S
O1393 Gd1344 2.412 . S
O1393 C1403 1.252 . S
O1394 Gd1345 2.545 . S
O1394 C1412 1.258 . S
O1395 Gd1344 2.362 . S
O1395 Gd1345 2.606 . S
O1395 C1411 1.284 . S
O1396 Gd1344 2.324 . S
O1396 C1419 1.254 . S
O1397 Gd1345 2.429 . S
O1397 C1419 1.268 . S
O1398 Gd1345 2.545 . S
O1398 C1411 1.250 . S
O1399 Gd1345 2.412 . S
O1399 C1412 1.252 . S
C1400 O1389 1.284 . S
C1400 O1392 1.250 . S
C1401 H1370 0.929 1_655 S
C1401 C1386 1.437 . S
C1401 C1402 1.317 . S
C1402 H1373 0.930 1_655 S
C1402 C1378 1.431 . S
C1402 C1401 1.317 . S
C1403 Gd1344 2.828 . S
C1403 O1388 1.258 . S
C1403 O1393 1.252 . S
C1403 C1404 1.497 1_655 S
C1404 C1403 1.497 1_455 S
C1404 C1405 1.395 . S
C1404 C1406 1.380 . S
C1405 C1404 1.395 . S
C1405 C1408 1.398 . S
C1405 H1420 0.930 . S
C1406 C1404 1.380 . S
C1406 C1407 1.391 . S
C1406 H1421 0.930 . S
C1407 C1406 1.391 . S
C1407 C1409 1.387 . S
C1408 C1405 1.398 . S
C1408 C1409 1.380 . S
C1408 H1422 0.930 . S
C1409 C1407 1.387 . S
C1409 C1408 1.380 . S
C1409 H1423 0.930 . S
C1410 O1390 1.254 . S
C1410 O1391 1.268 . S
C1411 O1395 1.284 . S
C1411 O1398 1.250 . S
C1412 Gd1345 2.828 . S
C1412 O1394 1.258 . S
C1412 O1399 1.252 . S
C1412 C1413 1.497 . S
C1413 C1412 1.497 . S
C1413 C1414 1.395 . S
C1413 C1415 1.380 . S
C1414 C1413 1.395 . S
C1414 C1417 1.398 . S
C1414 H1424 0.930 . S
C1415 C1413 1.380 . S
C1415 C1416 1.391 . S
C1415 H1425 0.930 . S
C1416 C1415 1.391 . S
C1416 C1418 1.387 . S
C1417 C1414 1.398 . S
C1417 C1418 1.380 . S
C1417 H1426 0.930 . S
C1418 C1416 1.387 . S
C1418 C1417 1.380 . S
C1418 H1427 0.930 . S
C1419 O1396 1.254 . S
C1419 O1397 1.268 . S
H1420 C1405 0.930 . S
H1421 C1406 0.930 . S
H1422 C1408 0.930 . S
H1423 C1409 0.930 . S
H1424 C1414 0.930 . S
H1425 C1415 0.930 . S
H1426 C1417 0.930 . S
H1427 C1418 0.930 . S
Gd1428 N1459 2.661 . S
Gd1428 N1465 2.601 . S
Gd1428 O1472 2.545 . S
Gd1428 O1473 2.606 . S
Gd1428 O1475 2.429 . S
Gd1428 O1476 2.545 . S
Gd1428 O1477 2.412 . S
Gd1428 O1479 2.362 . S
Gd1428 O1480 2.324 . S
Gd1428 C1487 2.828 . S
Gd1429 N1438 2.661 . S
Gd1429 N1442 2.601 . S
Gd1429 O1473 2.362 . S
Gd1429 O1474 2.324 . S
Gd1429 O1478 2.545 . S
Gd1429 O1479 2.606 . S
Gd1429 O1481 2.429 . S
Gd1429 O1482 2.545 . S
Gd1429 O1483 2.412 . S
Gd1429 C1496 2.828 . S
C1430 C1433 1.417 . S
C1430 C1435 1.431 1_655 S
C1430 C1436 1.412 1_655 S
C1431 C1434 1.437 1_455 S
C1431 C1435 1.317 . S
C1431 H1450 0.929 . S
C1432 C1433 1.426 . S
C1432 C1434 1.413 . S
C1432 N1442 1.359 . S
C1433 C1430 1.417 . S
C1433 C1432 1.426 . S
C1433 N1438 1.350 . S
C1434 C1431 1.437 1_655 S
C1434 C1432 1.413 . S
C1434 C1444 1.391 . S
C1435 C1430 1.431 1_455 S
C1435 C1431 1.317 . S
C1435 H1446 0.930 . S
C1436 C1430 1.412 1_455 S
C1436 C1437 1.355 1_455 S
C1436 H1448 0.930 . S
C1437 C1436 1.355 1_655 S
C1437 C1439 1.402 . S
C1437 H1449 0.930 . S
N1438 Gd1429 2.661 . S
N1438 C1433 1.350 . S
N1438 C1439 1.307 . S
C1439 C1437 1.402 . S
C1439 N1438 1.307 . S
C1439 H1440 0.930 . S
H1440 C1439 0.930 . S
C1441 N1442 1.334 . S
C1441 C1443 1.394 . S
C1441 H1445 0.930 . S
N1442 Gd1429 2.601 . S
N1442 C1432 1.359 . S
N1442 C1441 1.334 . S
C1443 C1441 1.394 . S
C1443 C1444 1.359 . S
C1443 H1455 0.930 . S
C1444 C1434 1.391 . S
C1444 C1443 1.359 . S
C1444 H1456 0.929 . S
H1445 C1441 0.930 . S
H1446 C1435 0.930 . S
H1447 C1464 0.930 . S
H1448 C1436 0.930 . S
H1449 C1437 0.930 . S
H1450 C1431 0.929 . S
H1451 C1469 0.930 . S
H1452 C1460 0.930 . S
H1453 C1461 0.930 . S
H1454 C1485 0.929 . S
H1455 C1443 0.930 . S
H1456 C1444 0.929 . S
H1457 C1486 0.930 . S
H1458 C1467 0.930 . S
N1459 Gd1428 2.661 . S
N1459 C1463 1.350 . S
N1459 C1464 1.307 . S
C1460 H1452 0.930 . S
C1460 C1461 1.355 . S
C1460 C1462 1.412 . S
C1461 H1453 0.930 . S
C1461 C1460 1.355 . S
C1461 C1464 1.402 . S
C1462 C1460 1.412 . S
C1462 C1463 1.417 . S
C1462 C1486 1.431 . S
C1463 N1459 1.350 . S
C1463 C1462 1.417 . S
C1463 C1466 1.426 . S
C1464 H1447 0.930 . S
C1464 N1459 1.307 . S
C1464 C1461 1.402 . S
N1465 Gd1428 2.601 . S
N1465 C1466 1.359 . S
N1465 C1469 1.334 . S
C1466 C1463 1.426 . S
C1466 N1465 1.359 . S
C1466 C1470 1.413 . S
C1467 H1458 0.930 . S
C1467 C1468 1.359 . S
C1467 C1469 1.394 . S
C1468 C1467 1.359 . S
C1468 C1470 1.391 . S
C1468 H1471 0.929 . S
C1469 H1451 0.930 . S
C1469 N1465 1.334 . S
C1469 C1467 1.394 . S
C1470 C1466 1.413 . S
C1470 C1468 1.391 . S
C1470 C1485 1.437 . S
H1471 C1468 0.929 . S
O1472 Gd1428 2.545 . S
O1472 C1487 1.258 . S
O1473 Gd1428 2.606 . S
O1473 Gd1429 2.362 . S
O1473 C1484 1.284 . S
O1474 Gd1429 2.324 . S
O1474 C1494 1.254 . S
O1475 Gd1428 2.429 . S
O1475 C1494 1.268 . S
O1476 Gd1428 2.545 . S
O1476 C1484 1.250 . S
O1477 Gd1428 2.412 . S
O1477 C1487 1.252 . S
O1478 Gd1429 2.545 . S
O1478 C1496 1.258 . S
O1479 Gd1428 2.362 . S
O1479 Gd1429 2.606 . S
O1479 C1495 1.284 . S
O1480 Gd1428 2.324 . S
O1480 C1503 1.254 . S
O1481 Gd1429 2.429 . S
O1481 C1503 1.268 . S
O1482 Gd1429 2.545 . S
O1482 C1495 1.250 . S
O1483 Gd1429 2.412 . S
O1483 C1496 1.252 . S
C1484 O1473 1.284 . S
C1484 O1476 1.250 . S
C1485 H1454 0.929 . S
C1485 C1470 1.437 . S
C1485 C1486 1.317 . S
C1486 H1457 0.930 . S
C1486 C1462 1.431 . S
C1486 C1485 1.317 . S
C1487 Gd1428 2.828 . S
C1487 O1472 1.258 . S
C1487 O1477 1.252 . S
C1487 C1488 1.497 . S
C1488 C1487 1.497 . S
C1488 C1489 1.395 . S
C1488 C1490 1.380 . S
C1489 C1488 1.395 . S
C1489 C1492 1.398 . S
C1489 H1504 0.930 . S
C1490 C1488 1.380 . S
C1490 C1491 1.391 . S
C1490 H1505 0.930 . S
C1491 C1490 1.391 . S
C1491 C1493 1.387 . S
C1492 C1489 1.398 . S
C1492 C1493 1.380 . S
C1492 H1506 0.930 . S
C1493 C1491 1.387 . S
C1493 C1492 1.380 . S
C1493 H1507 0.930 . S
C1494 O1474 1.254 . S
C1494 O1475 1.268 . S
C1495 O1479 1.284 . S
C1495 O1482 1.250 . S
C1496 Gd1429 2.828 . S
C1496 O1478 1.258 . S
C1496 O1483 1.252 . S
C1496 C1497 1.497 . S
C1497 C1496 1.497 . S
C1497 C1498 1.395 . S
C1497 C1499 1.380 . S
C1498 C1497 1.395 . S
C1498 C1501 1.398 . S
C1498 H1508 0.930 . S
C1499 C1497 1.380 . S
C1499 C1500 1.391 . S
C1499 H1509 0.930 . S
C1500 C1499 1.391 . S
C1500 C1502 1.387 . S
C1501 C1498 1.398 . S
C1501 C1502 1.380 . S
C1501 H1510 0.930 . S
C1502 C1500 1.387 . S
C1502 C1501 1.380 . S
C1502 H1511 0.930 . S
C1503 O1480 1.254 . S
C1503 O1481 1.268 . S
H1504 C1489 0.930 . S
H1505 C1490 0.930 . S
H1506 C1492 0.930 . S
H1507 C1493 0.930 . S
H1508 C1498 0.930 . S
H1509 C1499 0.930 . S
H1510 C1501 0.930 . S
H1511 C1502 0.930 . S
H1512 C1520 0.929 . S
H1513 C1522 0.930 . S
H1514 C1524 0.930 . S
H1515 C1527 0.929 . S
H1516 C1530 0.930 . S
H1517 C1532 0.960 . S
H1518 C1532 0.960 . S
H1519 C1532 0.960 . S
C1520 H1512 0.929 . S
C1520 C1521 1.377 . S
C1520 C1522 1.384 . S
C1521 C1520 1.377 . S
C1521 C1527 1.390 . S
C1522 H1513 0.930 . S
C1522 C1520 1.384 . S
C1522 C1523 1.372 . S
C1523 C1522 1.372 . S
C1523 C1524 1.400 . S
C1523 C1528 1.490 . S
C1524 H1514 0.930 . S
C1524 C1523 1.400 . S
C1524 C1527 1.386 . S
H1525 C1541 0.930 . S
H1526 C1542 0.931 . S
C1527 H1515 0.929 . S
C1527 C1521 1.390 . S
C1527 C1524 1.386 . S
C1528 C1523 1.490 . S
C1528 C1530 1.395 . S
C1528 C1531 1.403 . S
H1529 C1535 0.930 . S
C1530 H1516 0.930 . S
C1530 C1528 1.395 . S
C1530 C1533 1.403 . S
C1531 C1528 1.403 . S
C1531 C1532 1.524 . S
C1531 C1535 1.400 . S
C1532 H1517 0.960 . S
C1532 H1518 0.960 . S
C1532 H1519 0.960 . S
C1532 C1531 1.524 . S
C1533 C1530 1.403 . S
C1533 C1534 1.392 . S
C1533 C1537 1.495 . S
C1534 C1533 1.392 . S
C1534 C1535 1.385 . S
C1534 C1536 1.478 . S
C1535 H1529 0.930 . S
C1535 C1531 1.400 . S
C1535 C1534 1.385 . S
C1536 C1534 1.478 . S
C1536 C1538 1.381 . S
C1536 C1542 1.383 . S
C1537 C1533 1.495 . S
C1537 H1543 0.959 . S
C1537 H1544 0.961 . S
C1537 H1545 0.960 . S
C1538 C1536 1.381 . S
C1538 C1539 1.394 . S
C1538 H1546 0.930 . S
C1539 C1538 1.394 . S
C1539 C1540 1.383 . S
C1539 H1547 0.929 . S
C1540 C1539 1.383 . S
C1540 C1541 1.377 . S
C1541 H1525 0.930 . S
C1541 C1540 1.377 . S
C1541 C1542 1.379 . S
C1542 H1526 0.931 . S
C1542 C1536 1.383 . S
C1542 C1541 1.379 . S
H1543 C1537 0.959 . S
H1544 C1537 0.961 . S
H1545 C1537 0.960 . S
H1546 C1538 0.930 . S
H1547 C1539 0.929 . S
H1548 C1556 0.929 . S
H1549 C1558 0.930 . S
H1550 C1560 0.930 . S
H1551 C1563 0.929 . S
H1552 C1566 0.930 . S
H1553 C1568 0.960 . S
H1554 C1568 0.960 . S
H1555 C1568 0.960 . S
C1556 H1548 0.929 . S
C1556 C1557 1.377 . S
C1556 C1558 1.384 . S
C1557 C1556 1.377 . S
C1557 C1563 1.390 . S
C1558 H1549 0.930 . S
C1558 C1556 1.384 . S
C1558 C1559 1.372 . S
C1559 C1558 1.372 . S
C1559 C1560 1.400 . S
C1559 C1564 1.490 . S
C1560 H1550 0.930 . S
C1560 C1559 1.400 . S
C1560 C1563 1.386 . S
H1561 C1577 0.930 . S
H1562 C1578 0.931 . S
C1563 H1551 0.929 . S
C1563 C1557 1.390 . S
C1563 C1560 1.386 . S
C1564 C1559 1.490 . S
C1564 C1566 1.395 . S
C1564 C1567 1.403 . S
H1565 C1571 0.930 . S
C1566 H1552 0.930 . S
C1566 C1564 1.395 . S
C1566 C1569 1.403 . S
C1567 C1564 1.403 . S
C1567 C1568 1.524 . S
C1567 C1571 1.400 . S
C1568 H1553 0.960 . S
C1568 H1554 0.960 . S
C1568 H1555 0.960 . S
C1568 C1567 1.524 . S
C1569 C1566 1.403 . S
C1569 C1570 1.392 . S
C1569 C1573 1.495 . S
C1570 C1569 1.392 . S
C1570 C1571 1.385 . S
C1570 C1572 1.478 . S
C1571 H1565 0.930 . S
C1571 C1567 1.400 . S
C1571 C1570 1.385 . S
C1572 C1570 1.478 . S
C1572 C1574 1.381 . S
C1572 C1578 1.383 . S
C1573 C1569 1.495 . S
C1573 H1579 0.959 . S
C1573 H1580 0.961 . S
C1573 H1581 0.960 . S
C1574 C1572 1.381 . S
C1574 C1575 1.394 . S
C1574 H1582 0.930 . S
C1575 C1574 1.394 . S
C1575 C1576 1.383 . S
C1575 H1583 0.929 . S
C1576 C1575 1.383 . S
C1576 C1577 1.377 . S
C1577 H1561 0.930 . S
C1577 C1576 1.377 . S
C1577 C1578 1.379 . S
C1578 H1562 0.931 . S
C1578 C1572 1.383 . S
C1578 C1577 1.379 . S
H1579 C1573 0.959 . S
H1580 C1573 0.961 . S
H1581 C1573 0.960 . S
H1582 C1574 0.930 . S
H1583 C1575 0.929 . S
H1584 C1592 0.929 . S
H1585 C1594 0.930 . S
H1586 C1596 0.930 . S
H1587 C1599 0.929 . S
H1588 C1602 0.930 . S
H1589 C1604 0.960 . S
H1590 C1604 0.960 . S
H1591 C1604 0.960 . S
C1592 H1584 0.929 . S
C1592 C1593 1.377 . S
C1592 C1594 1.384 . S
C1593 C1592 1.377 . S
C1593 C1599 1.390 . S
C1594 H1585 0.930 . S
C1594 C1592 1.384 . S
C1594 C1595 1.372 . S
C1595 C1594 1.372 . S
C1595 C1596 1.400 . S
C1595 C1600 1.490 . S
C1596 H1586 0.930 . S
C1596 C1595 1.400 . S
C1596 C1599 1.386 . S
H1597 C1613 0.930 . S
H1598 C1614 0.931 . S
C1599 H1587 0.929 . S
C1599 C1593 1.390 . S
C1599 C1596 1.386 . S
C1600 C1595 1.490 . S
C1600 C1602 1.395 . S
C1600 C1603 1.403 . S
H1601 C1607 0.930 . S
C1602 H1588 0.930 . S
C1602 C1600 1.395 . S
C1602 C1605 1.403 . S
C1603 C1600 1.403 . S
C1603 C1604 1.524 . S
C1603 C1607 1.400 . S
C1604 H1589 0.960 . S
C1604 H1590 0.960 . S
C1604 H1591 0.960 . S
C1604 C1603 1.524 . S
C1605 C1602 1.403 . S
C1605 C1606 1.392 . S
C1605 C1609 1.495 . S
C1606 C1605 1.392 . S
C1606 C1607 1.385 . S
C1606 C1608 1.478 . S
C1607 H1601 0.930 . S
C1607 C1603 1.400 . S
C1607 C1606 1.385 . S
C1608 C1606 1.478 . S
C1608 C1610 1.381 . S
C1608 C1614 1.383 . S
C1609 C1605 1.495 . S
C1609 H1615 0.959 . S
C1609 H1616 0.961 . S
C1609 H1617 0.960 . S
C1610 C1608 1.381 . S
C1610 C1611 1.394 . S
C1610 H1618 0.930 . S
C1611 C1610 1.394 . S
C1611 C1612 1.383 . S
C1611 H1619 0.929 . S
C1612 C1611 1.383 . S
C1612 C1613 1.377 . S
C1613 H1597 0.930 . S
C1613 C1612 1.377 . S
C1613 C1614 1.379 . S
C1614 H1598 0.931 . S
C1614 C1608 1.383 . S
C1614 C1613 1.379 . S
H1615 C1609 0.959 . S
H1616 C1609 0.961 . S
H1617 C1609 0.960 . S
H1618 C1610 0.930 . S
H1619 C1611 0.929 . S
H1620 C1628 0.929 . S
H1621 C1630 0.930 . S
H1622 C1632 0.930 . S
H1623 C1635 0.929 . S
H1624 C1638 0.930 . S
H1625 C1640 0.960 . S
H1626 C1640 0.960 . S
H1627 C1640 0.960 . S
C1628 H1620 0.929 . S
C1628 C1629 1.377 . S
C1628 C1630 1.384 . S
C1629 C1628 1.377 . S
C1629 C1635 1.390 . S
C1630 H1621 0.930 . S
C1630 C1628 1.384 . S
C1630 C1631 1.372 . S
C1631 C1630 1.372 . S
C1631 C1632 1.400 . S
C1631 C1636 1.490 . S
C1632 H1622 0.930 . S
C1632 C1631 1.400 . S
C1632 C1635 1.386 . S
H1633 C1649 0.930 . S
H1634 C1650 0.931 . S
C1635 H1623 0.929 . S
C1635 C1629 1.390 . S
C1635 C1632 1.386 . S
C1636 C1631 1.490 . S
C1636 C1638 1.395 . S
C1636 C1639 1.403 . S
H1637 C1643 0.930 . S
C1638 H1624 0.930 . S
C1638 C1636 1.395 . S
C1638 C1641 1.403 . S
C1639 C1636 1.403 . S
C1639 C1640 1.524 . S
C1639 C1643 1.400 . S
C1640 H1625 0.960 . S
C1640 H1626 0.960 . S
C1640 H1627 0.960 . S
C1640 C1639 1.524 . S
C1641 C1638 1.403 . S
C1641 C1642 1.392 . S
C1641 C1645 1.495 . S
C1642 C1641 1.392 . S
C1642 C1643 1.385 . S
C1642 C1644 1.478 . S
C1643 H1637 0.930 . S
C1643 C1639 1.400 . S
C1643 C1642 1.385 . S
C1644 C1642 1.478 . S
C1644 C1646 1.381 . S
C1644 C1650 1.383 . S
C1645 C1641 1.495 . S
C1645 H1651 0.959 . S
C1645 H1652 0.961 . S
C1645 H1653 0.960 . S
C1646 C1644 1.381 . S
C1646 C1647 1.394 . S
C1646 H1654 0.930 . S
C1647 C1646 1.394 . S
C1647 C1648 1.383 . S
C1647 H1655 0.929 . S
C1648 C1647 1.383 . S
C1648 C1649 1.377 . S
C1649 H1633 0.930 . S
C1649 C1648 1.377 . S
C1649 C1650 1.379 . S
C1650 H1634 0.931 . S
C1650 C1644 1.383 . S
C1650 C1649 1.379 . S
H1651 C1645 0.959 . S
H1652 C1645 0.961 . S
H1653 C1645 0.960 . S
H1654 C1646 0.930 . S
H1655 C1647 0.929 . S
H1656 C1664 0.929 . S
H1657 C1666 0.930 . S
H1658 C1668 0.930 . S
H1659 C1671 0.929 . S
H1660 C1674 0.930 . S
H1661 C1676 0.960 . S
H1662 C1676 0.960 . S
H1663 C1676 0.960 . S
C1664 H1656 0.929 . S
C1664 C1665 1.377 . S
C1664 C1666 1.384 . S
C1665 C1664 1.377 . S
C1665 C1671 1.390 . S
C1666 H1657 0.930 . S
C1666 C1664 1.384 . S
C1666 C1667 1.372 . S
C1667 C1666 1.372 . S
C1667 C1668 1.400 . S
C1667 C1672 1.490 . S
C1668 H1658 0.930 . S
C1668 C1667 1.400 . S
C1668 C1671 1.386 . S
H1669 C1685 0.930 . S
H1670 C1686 0.931 . S
C1671 H1659 0.929 . S
C1671 C1665 1.390 . S
C1671 C1668 1.386 . S
C1672 C1667 1.490 . S
C1672 C1674 1.395 . S
C1672 C1675 1.403 . S
H1673 C1679 0.930 . S
C1674 H1660 0.930 . S
C1674 C1672 1.395 . S
C1674 C1677 1.403 . S
C1675 C1672 1.403 . S
C1675 C1676 1.524 . S
C1675 C1679 1.400 . S
C1676 H1661 0.960 . S
C1676 H1662 0.960 . S
C1676 H1663 0.960 . S
C1676 C1675 1.524 . S
C1677 C1674 1.403 . S
C1677 C1678 1.392 . S
C1677 C1681 1.495 . S
C1678 C1677 1.392 . S
C1678 C1679 1.385 . S
C1678 C1680 1.478 . S
C1679 H1673 0.930 . S
C1679 C1675 1.400 . S
C1679 C1678 1.385 . S
C1680 C1678 1.478 . S
C1680 C1682 1.381 . S
C1680 C1686 1.383 . S
C1681 C1677 1.495 . S
C1681 H1687 0.959 . S
C1681 H1688 0.961 . S
C1681 H1689 0.960 . S
C1682 C1680 1.381 . S
C1682 C1683 1.394 . S
C1682 H1690 0.930 . S
C1683 C1682 1.394 . S
C1683 C1684 1.383 . S
C1683 H1691 0.929 . S
C1684 C1683 1.383 . S
C1684 C1685 1.377 . S
C1685 H1669 0.930 . S
C1685 C1684 1.377 . S
C1685 C1686 1.379 . S
C1686 H1670 0.931 . S
C1686 C1680 1.383 . S
C1686 C1685 1.379 . S
H1687 C1681 0.959 . S
H1688 C1681 0.961 . S
H1689 C1681 0.960 . S
H1690 C1682 0.930 . S
H1691 C1683 0.929 . S
H1692 C1700 0.929 . S
H1693 C1702 0.930 . S
H1694 C1704 0.930 . S
H1695 C1707 0.929 . S
H1696 C1710 0.930 . S
H1697 C1712 0.960 . S
H1698 C1712 0.960 . S
H1699 C1712 0.960 . S
C1700 H1692 0.929 . S
C1700 C1701 1.377 . S
C1700 C1702 1.384 . S
C1701 C1700 1.377 . S
C1701 C1707 1.390 . S
C1702 H1693 0.930 . S
C1702 C1700 1.384 . S
C1702 C1703 1.372 . S
C1703 C1702 1.372 . S
C1703 C1704 1.400 . S
C1703 C1708 1.490 . S
C1704 H1694 0.930 . S
C1704 C1703 1.400 . S
C1704 C1707 1.386 . S
H1705 C1721 0.930 . S
H1706 C1722 0.931 . S
C1707 H1695 0.929 . S
C1707 C1701 1.390 . S
C1707 C1704 1.386 . S
C1708 C1703 1.490 . S
C1708 C1710 1.395 . S
C1708 C1711 1.403 . S
H1709 C1715 0.930 . S
C1710 H1696 0.930 . S
C1710 C1708 1.395 . S
C1710 C1713 1.403 . S
C1711 C1708 1.403 . S
C1711 C1712 1.524 . S
C1711 C1715 1.400 . S
C1712 H1697 0.960 . S
C1712 H1698 0.960 . S
C1712 H1699 0.960 . S
C1712 C1711 1.524 . S
C1713 C1710 1.403 . S
C1713 C1714 1.392 . S
C1713 C1717 1.495 . S
C1714 C1713 1.392 . S
C1714 C1715 1.385 . S
C1714 C1716 1.478 . S
C1715 H1709 0.930 . S
C1715 C1711 1.400 . S
C1715 C1714 1.385 . S
C1716 C1714 1.478 . S
C1716 C1718 1.381 . S
C1716 C1722 1.383 . S
C1717 C1713 1.495 . S
C1717 H1723 0.959 . S
C1717 H1724 0.961 . S
C1717 H1725 0.960 . S
C1718 C1716 1.381 . S
C1718 C1719 1.394 . S
C1718 H1726 0.930 . S
C1719 C1718 1.394 . S
C1719 C1720 1.383 . S
C1719 H1727 0.929 . S
C1720 C1719 1.383 . S
C1720 C1721 1.377 . S
C1721 H1705 0.930 . S
C1721 C1720 1.377 . S
C1721 C1722 1.379 . S
C1722 H1706 0.931 . S
C1722 C1716 1.383 . S
C1722 C1721 1.379 . S
H1723 C1717 0.959 . S
H1724 C1717 0.961 . S
H1725 C1717 0.960 . S
H1726 C1718 0.930 . S
H1727 C1719 0.929 . S
H1728 C1736 0.929 . S
H1729 C1738 0.930 . S
H1730 C1740 0.930 . S
H1731 C1743 0.929 . S
H1732 C1746 0.930 . S
H1733 C1748 0.960 . S
H1734 C1748 0.960 . S
H1735 C1748 0.960 . S
C1736 H1728 0.929 . S
C1736 C1737 1.377 . S
C1736 C1738 1.384 . S
C1737 C1736 1.377 . S
C1737 C1743 1.390 . S
C1738 H1729 0.930 . S
C1738 C1736 1.384 . S
C1738 C1739 1.372 . S
C1739 C1738 1.372 . S
C1739 C1740 1.400 . S
C1739 C1744 1.490 . S
C1740 H1730 0.930 . S
C1740 C1739 1.400 . S
C1740 C1743 1.386 . S
H1741 C1757 0.930 . S
H1742 C1758 0.931 . S
C1743 H1731 0.929 . S
C1743 C1737 1.390 . S
C1743 C1740 1.386 . S
C1744 C1739 1.490 . S
C1744 C1746 1.395 . S
C1744 C1747 1.403 . S
H1745 C1751 0.930 . S
C1746 H1732 0.930 . S
C1746 C1744 1.395 . S
C1746 C1749 1.403 . S
C1747 C1744 1.403 . S
C1747 C1748 1.524 . S
C1747 C1751 1.400 . S
C1748 H1733 0.960 . S
C1748 H1734 0.960 . S
C1748 H1735 0.960 . S
C1748 C1747 1.524 . S
C1749 C1746 1.403 . S
C1749 C1750 1.392 . S
C1749 C1753 1.495 . S
C1750 C1749 1.392 . S
C1750 C1751 1.385 . S
C1750 C1752 1.478 . S
C1751 H1745 0.930 . S
C1751 C1747 1.400 . S
C1751 C1750 1.385 . S
C1752 C1750 1.478 . S
C1752 C1754 1.381 . S
C1752 C1758 1.383 . S
C1753 C1749 1.495 . S
C1753 H1759 0.959 . S
C1753 H1760 0.961 . S
C1753 H1761 0.960 . S
C1754 C1752 1.381 . S
C1754 C1755 1.394 . S
C1754 H1762 0.930 . S
C1755 C1754 1.394 . S
C1755 C1756 1.383 . S
C1755 H1763 0.929 . S
C1756 C1755 1.383 . S
C1756 C1757 1.377 . S
C1757 H1741 0.930 . S
C1757 C1756 1.377 . S
C1757 C1758 1.379 . S
C1758 H1742 0.931 . S
C1758 C1752 1.383 . S
C1758 C1757 1.379 . S
H1759 C1753 0.959 . S
H1760 C1753 0.961 . S
H1761 C1753 0.960 . S
H1762 C1754 0.930 . S
H1763 C1755 0.929 . S
H1764 C1772 0.929 . S
H1765 C1774 0.930 . S
H1766 C1776 0.930 . S
H1767 C1779 0.912 1_455 S
H1768 C1782 0.930 . S
H1769 C1784 0.960 . S
H1770 C1784 0.960 . S
H1771 C1784 0.960 . S
C1772 H1764 0.929 . S
C1772 C1773 1.377 . S
C1772 C1774 1.384 . S
C1773 C1772 1.377 . S
C1773 C1779 1.399 . S
C1774 H1765 0.930 . S
C1774 C1772 1.384 . S
C1774 C1775 1.372 . S
C1775 C1774 1.372 . S
C1775 C1776 1.400 . S
C1775 C1780 1.490 . S
C1776 H1766 0.930 . S
C1776 C1775 1.400 . S
C1776 C1779 1.394 . S
H1777 C1793 0.930 . S
H1778 C1794 0.931 . S
C1779 H1767 0.912 1_655 S
C1779 C1773 1.399 . S
C1779 C1776 1.394 . S
C1780 C1775 1.490 . S
C1780 C1782 1.395 . S
C1780 C1783 1.403 . S
H1781 C1787 0.930 . S
C1782 H1768 0.930 . S
C1782 C1780 1.395 . S
C1782 C1785 1.403 . S
C1783 C1780 1.403 . S
C1783 C1784 1.524 . S
C1783 C1787 1.400 . S
C1784 H1769 0.960 . S
C1784 H1770 0.960 . S
C1784 H1771 0.960 . S
C1784 C1783 1.524 . S
C1785 C1782 1.403 . S
C1785 C1786 1.392 . S
C1785 C1789 1.495 . S
C1786 C1785 1.392 . S
C1786 C1787 1.385 . S
C1786 C1788 1.478 1_545 S
C1787 H1781 0.930 . S
C1787 C1783 1.400 . S
C1787 C1786 1.385 . S
C1788 C1786 1.478 1_565 S
C1788 C1790 1.381 . S
C1788 C1794 1.383 . S
C1789 C1785 1.495 . S
C1789 H1795 0.959 . S
C1789 H1796 0.961 . S
C1789 H1797 0.960 . S
C1790 C1788 1.381 . S
C1790 C1791 1.394 . S
C1790 H1798 0.930 . S
C1791 C1790 1.394 . S
C1791 C1792 1.383 . S
C1791 H1799 0.929 . S
C1792 C1791 1.383 . S
C1792 C1793 1.377 . S
C1793 H1777 0.930 . S
C1793 C1792 1.377 . S
C1793 C1794 1.379 . S
C1794 H1778 0.931 . S
C1794 C1788 1.383 . S
C1794 C1793 1.379 . S
H1795 C1789 0.959 . S
H1796 C1789 0.961 . S
H1797 C1789 0.960 . S
H1798 C1790 0.930 . S
H1799 C1791 0.929 . S
H1800 C1808 0.929 . S
H1801 C1810 0.930 . S
H1802 C1812 0.930 . S
H1803 C1815 0.929 . S
H1804 C1818 0.930 . S
H1805 C1820 0.960 . S
H1806 C1820 0.960 . S
H1807 C1820 0.960 . S
C1808 H1800 0.929 . S
C1808 C1809 1.377 . S
C1808 C1810 1.384 . S
C1809 C1808 1.377 . S
C1809 C1815 1.390 . S
C1810 H1801 0.930 . S
C1810 C1808 1.384 . S
C1810 C1811 1.372 . S
C1811 C1810 1.372 . S
C1811 C1812 1.400 . S
C1811 C1816 1.490 . S
C1812 H1802 0.930 . S
C1812 C1811 1.400 . S
C1812 C1815 1.386 . S
H1813 C1829 0.930 . S
H1814 C1830 0.931 . S
C1815 H1803 0.929 . S
C1815 C1809 1.390 . S
C1815 C1812 1.386 . S
C1816 C1811 1.490 . S
C1816 C1818 1.395 . S
C1816 C1819 1.403 . S
H1817 C1823 0.930 . S
C1818 H1804 0.930 . S
C1818 C1816 1.395 . S
C1818 C1821 1.403 1_455 S
C1819 C1816 1.403 . S
C1819 C1820 1.524 . S
C1819 C1823 1.400 1_455 S
C1820 H1805 0.960 . S
C1820 H1806 0.960 . S
C1820 H1807 0.960 . S
C1820 C1819 1.524 . S
C1821 C1818 1.403 1_655 S
C1821 C1822 1.392 . S
C1821 C1825 1.495 . S
C1822 C1821 1.392 . S
C1822 C1823 1.385 . S
C1822 C1824 1.478 . S
C1823 H1817 0.930 . S
C1823 C1819 1.400 1_655 S
C1823 C1822 1.385 . S
C1824 C1822 1.478 . S
C1824 C1826 1.381 . S
C1824 C1830 1.383 . S
C1825 C1821 1.495 . S
C1825 H1831 0.959 . S
C1825 H1832 0.961 . S
C1825 H1833 0.960 . S
C1826 C1824 1.381 . S
C1826 C1827 1.394 . S
C1826 H1834 0.930 . S
C1827 C1826 1.394 . S
C1827 C1828 1.383 . S
C1827 H1835 0.929 . S
C1828 C1827 1.383 . S
C1828 C1829 1.377 . S
C1829 H1813 0.930 . S
C1829 C1828 1.377 . S
C1829 C1830 1.379 . S
C1830 H1814 0.931 . S
C1830 C1824 1.383 . S
C1830 C1829 1.379 . S
H1831 C1825 0.959 . S
H1832 C1825 0.961 . S
H1833 C1825 0.960 . S
H1834 C1826 0.930 . S
H1835 C1827 0.929 . S
H1836 C1844 0.929 . S
H1837 C1846 0.930 . S
H1838 C1848 0.930 . S
H1839 C1851 0.929 . S
H1840 C1854 0.930 . S
H1841 C1856 0.960 . S
H1842 C1856 0.960 . S
H1843 C1856 0.960 . S
C1844 H1836 0.929 . S
C1844 C1845 1.377 . S
C1844 C1846 1.384 . S
C1845 C1844 1.377 . S
C1845 C1851 1.390 . S
C1846 H1837 0.930 . S
C1846 C1844 1.384 . S
C1846 C1847 1.372 . S
C1847 C1846 1.372 . S
C1847 C1848 1.400 . S
C1847 C1852 1.490 . S
C1848 H1838 0.930 . S
C1848 C1847 1.400 . S
C1848 C1851 1.386 . S
H1849 C1865 0.930 . S
H1850 C1866 0.931 . S
C1851 H1839 0.929 . S
C1851 C1845 1.390 . S
C1851 C1848 1.386 . S
C1852 C1847 1.490 . S
C1852 C1854 1.395 . S
C1852 C1855 1.403 . S
H1853 C1859 0.930 . S
C1854 H1840 0.930 . S
C1854 C1852 1.395 . S
C1854 C1857 1.403 . S
C1855 C1852 1.403 . S
C1855 C1856 1.524 . S
C1855 C1859 1.400 . S
C1856 H1841 0.960 . S
C1856 H1842 0.960 . S
C1856 H1843 0.960 . S
C1856 C1855 1.524 . S
C1857 C1854 1.403 . S
C1857 C1858 1.392 . S
C1857 C1861 1.495 . S
C1858 C1857 1.392 . S
C1858 C1859 1.385 . S
C1858 C1860 1.478 . S
C1859 H1853 0.930 . S
C1859 C1855 1.400 . S
C1859 C1858 1.385 . S
C1860 C1858 1.478 . S
C1860 C1862 1.381 . S
C1860 C1866 1.383 . S
C1861 C1857 1.495 . S
C1861 H1867 0.959 . S
C1861 H1868 0.961 . S
C1861 H1869 0.960 . S
C1862 C1860 1.381 . S
C1862 C1863 1.394 . S
C1862 H1870 0.930 . S
C1863 C1862 1.394 . S
C1863 C1864 1.383 . S
C1863 H1871 0.929 . S
C1864 C1863 1.383 . S
C1864 C1865 1.377 . S
C1865 H1849 0.930 . S
C1865 C1864 1.377 . S
C1865 C1866 1.379 . S
C1866 H1850 0.931 . S
C1866 C1860 1.383 . S
C1866 C1865 1.379 . S
H1867 C1861 0.959 . S
H1868 C1861 0.961 . S
H1869 C1861 0.960 . S
H1870 C1862 0.930 . S
H1871 C1863 0.929 . S
H1872 C1880 0.929 . S
H1873 C1882 0.930 . S
H1874 C1884 0.930 . S
H1875 C1887 0.929 . S
H1876 C1890 0.930 . S
H1877 C1892 0.960 . S
H1878 C1892 0.960 . S
H1879 C1892 0.960 . S
C1880 H1872 0.929 . S
C1880 C1881 1.377 . S
C1880 C1882 1.384 . S
C1881 C1880 1.377 . S
C1881 C1887 1.390 . S
C1882 H1873 0.930 . S
C1882 C1880 1.384 . S
C1882 C1883 1.372 . S
C1883 C1882 1.372 . S
C1883 C1884 1.400 . S
C1883 C1888 1.490 . S
C1884 H1874 0.930 . S
C1884 C1883 1.400 . S
C1884 C1887 1.386 . S
H1885 C1901 0.930 . S
H1886 C1902 0.931 . S
C1887 H1875 0.929 . S
C1887 C1881 1.390 . S
C1887 C1884 1.386 . S
C1888 C1883 1.490 . S
C1888 C1890 1.395 . S
C1888 C1891 1.403 . S
H1889 C1895 0.930 . S
C1890 H1876 0.930 . S
C1890 C1888 1.395 . S
C1890 C1893 1.403 . S
C1891 C1888 1.403 . S
C1891 C1892 1.524 . S
C1891 C1895 1.400 . S
C1892 H1877 0.960 . S
C1892 H1878 0.960 . S
C1892 H1879 0.960 . S
C1892 C1891 1.524 . S
C1893 C1890 1.403 . S
C1893 C1894 1.392 . S
C1893 C1897 1.495 . S
C1894 C1893 1.392 . S
C1894 C1895 1.385 . S
C1894 C1896 1.478 . S
C1895 H1889 0.930 . S
C1895 C1891 1.400 . S
C1895 C1894 1.385 . S
C1896 C1894 1.478 . S
C1896 C1898 1.381 . S
C1896 C1902 1.383 . S
C1897 C1893 1.495 . S
C1897 H1903 0.959 . S
C1897 H1904 0.961 . S
C1897 H1905 0.960 . S
C1898 C1896 1.381 . S
C1898 C1899 1.394 . S
C1898 H1906 0.930 . S
C1899 C1898 1.394 . S
C1899 C1900 1.383 . S
C1899 H1907 0.929 . S
C1900 C1899 1.383 . S
C1900 C1901 1.377 . S
C1901 H1885 0.930 . S
C1901 C1900 1.377 . S
C1901 C1902 1.379 . S
C1902 H1886 0.931 . S
C1902 C1896 1.383 . S
C1902 C1901 1.379 . S
H1903 C1897 0.959 . S
H1904 C1897 0.961 . S
H1905 C1897 0.960 . S
H1906 C1898 0.930 . S
H1907 C1899 0.929 . S
H1908 C1916 0.929 . S
H1909 C1918 0.930 . S
H1910 C1920 0.930 . S
H1911 C1923 0.929 . S
H1912 C1926 0.930 . S
H1913 C1928 0.960 . S
H1914 C1928 0.960 . S
H1915 C1928 0.960 . S
C1916 H1908 0.929 . S
C1916 C1917 1.377 . S
C1916 C1918 1.384 . S
C1917 C1916 1.377 . S
C1917 C1923 1.390 . S
C1918 H1909 0.930 . S
C1918 C1916 1.384 . S
C1918 C1919 1.372 . S
C1919 C1918 1.372 . S
C1919 C1920 1.400 . S
C1919 C1924 1.490 . S
C1920 H1910 0.930 . S
C1920 C1919 1.400 . S
C1920 C1923 1.386 . S
H1921 C1937 0.930 . S
H1922 C1938 0.931 . S
C1923 H1911 0.929 . S
C1923 C1917 1.390 . S
C1923 C1920 1.386 . S
C1924 C1919 1.490 . S
C1924 C1926 1.395 . S
C1924 C1927 1.403 . S
H1925 C1931 0.930 . S
C1926 H1912 0.930 . S
C1926 C1924 1.395 . S
C1926 C1929 1.403 . S
C1927 C1924 1.403 . S
C1927 C1928 1.524 . S
C1927 C1931 1.400 . S
C1928 H1913 0.960 . S
C1928 H1914 0.960 . S
C1928 H1915 0.960 . S
C1928 C1927 1.524 . S
C1929 C1926 1.403 . S
C1929 C1930 1.392 . S
C1929 C1933 1.495 . S
C1930 C1929 1.392 . S
C1930 C1931 1.385 . S
C1930 C1932 1.478 . S
C1931 H1925 0.930 . S
C1931 C1927 1.400 . S
C1931 C1930 1.385 . S
C1932 C1930 1.478 . S
C1932 C1934 1.381 . S
C1932 C1938 1.383 . S
C1933 C1929 1.495 . S
C1933 H1939 0.959 . S
C1933 H1940 0.961 . S
C1933 H1941 0.960 . S
C1934 C1932 1.381 . S
C1934 C1935 1.394 . S
C1934 H1942 0.930 . S
C1935 C1934 1.394 . S
C1935 C1936 1.383 . S
C1935 H1943 0.929 . S
C1936 C1935 1.383 . S
C1936 C1937 1.377 . S
C1937 H1921 0.930 . S
C1937 C1936 1.377 . S
C1937 C1938 1.379 . S
C1938 H1922 0.931 . S
C1938 C1932 1.383 . S
C1938 C1937 1.379 . S
H1939 C1933 0.959 . S
H1940 C1933 0.961 . S
H1941 C1933 0.960 . S
H1942 C1934 0.930 . S
H1943 C1935 0.929 . S
H1944 C1952 0.929 . S
H1945 C1954 0.930 . S
H1946 C1956 0.930 . S
H1947 C1959 0.929 . S
H1948 C1962 0.930 . S
H1949 C1964 0.960 . S
H1950 C1964 0.960 . S
H1951 C1964 0.960 . S
C1952 H1944 0.929 . S
C1952 C1953 1.377 . S
C1952 C1954 1.384 . S
C1953 C1952 1.377 . S
C1953 C1959 1.390 . S
C1954 H1945 0.930 . S
C1954 C1952 1.384 . S
C1954 C1955 1.372 . S
C1955 C1954 1.372 . S
C1955 C1956 1.400 . S
C1955 C1960 1.490 . S
C1956 H1946 0.930 . S
C1956 C1955 1.400 . S
C1956 C1959 1.386 . S
H1957 C1973 0.930 . S
H1958 C1974 0.931 . S
C1959 H1947 0.929 . S
C1959 C1953 1.390 . S
C1959 C1956 1.386 . S
C1960 C1955 1.490 . S
C1960 C1962 1.395 . S
C1960 C1963 1.403 . S
H1961 C1967 0.930 . S
C1962 H1948 0.930 . S
C1962 C1960 1.395 . S
C1962 C1965 1.403 . S
C1963 C1960 1.403 . S
C1963 C1964 1.524 . S
C1963 C1967 1.400 . S
C1964 H1949 0.960 . S
C1964 H1950 0.960 . S
C1964 H1951 0.960 . S
C1964 C1963 1.524 . S
C1965 C1962 1.403 . S
C1965 C1966 1.392 . S
C1965 C1969 1.495 . S
C1966 C1965 1.392 . S
C1966 C1967 1.385 . S
C1966 C1968 1.478 . S
C1967 H1961 0.930 . S
C1967 C1963 1.400 . S
C1967 C1966 1.385 . S
C1968 C1966 1.478 . S
C1968 C1970 1.381 . S
C1968 C1974 1.383 . S
C1969 C1965 1.495 . S
C1969 H1975 0.959 . S
C1969 H1976 0.961 . S
C1969 H1977 0.960 . S
C1970 C1968 1.381 . S
C1970 C1971 1.394 . S
C1970 H1978 0.930 . S
C1971 C1970 1.394 . S
C1971 C1972 1.383 . S
C1971 H1979 0.929 . S
C1972 C1971 1.383 . S
C1972 C1973 1.377 . S
C1973 H1957 0.930 . S
C1973 C1972 1.377 . S
C1973 C1974 1.379 . S
C1974 H1958 0.931 . S
C1974 C1968 1.383 . S
C1974 C1973 1.379 . S
H1975 C1969 0.959 . S
H1976 C1969 0.961 . S
H1977 C1969 0.960 . S
H1978 C1970 0.930 . S
H1979 C1971 0.929 . S
H1980 C1988 0.929 . S
H1981 C1990 0.930 . S
H1982 C1992 0.930 . S
H1983 C1995 0.929 . S
H1984 C1998 0.930 . S
H1985 C2000 0.960 . S
H1986 C2000 0.960 . S
H1987 C2000 0.960 . S
C1988 H1980 0.929 . S
C1988 C1989 1.377 . S
C1988 C1990 1.384 . S
C1989 C1988 1.377 . S
C1989 C1995 1.390 . S
C1990 H1981 0.930 . S
C1990 C1988 1.384 . S
C1990 C1991 1.372 . S
C1991 C1990 1.372 . S
C1991 C1992 1.400 . S
C1991 C1996 1.490 . S
C1992 H1982 0.930 . S
C1992 C1991 1.400 . S
C1992 C1995 1.386 . S
H1993 C2009 0.930 . S
H1994 C2010 0.931 . S
C1995 H1983 0.929 . S
C1995 C1989 1.390 . S
C1995 C1992 1.386 . S
C1996 C1991 1.490 . S
C1996 C1998 1.395 . S
C1996 C1999 1.403 . S
H1997 C2003 0.930 . S
C1998 H1984 0.930 . S
C1998 C1996 1.395 . S
C1998 C2001 1.403 . S
C1999 C1996 1.403 . S
C1999 C2000 1.524 . S
C1999 C2003 1.400 . S
C2000 H1985 0.960 . S
C2000 H1986 0.960 . S
C2000 H1987 0.960 . S
C2000 C1999 1.524 . S
C2001 C1998 1.403 . S
C2001 C2002 1.392 . S
C2001 C2005 1.495 . S
C2002 C2001 1.392 . S
C2002 C2003 1.385 . S
C2002 C2004 1.478 . S
C2003 H1997 0.930 . S
C2003 C1999 1.400 . S
C2003 C2002 1.385 . S
C2004 C2002 1.478 . S
C2004 C2006 1.381 . S
C2004 C2010 1.383 . S
C2005 C2001 1.495 . S
C2005 H2011 0.959 . S
C2005 H2012 0.961 . S
C2005 H2013 0.960 . S
C2006 C2004 1.381 . S
C2006 C2007 1.394 . S
C2006 H2014 0.930 . S
C2007 C2006 1.394 . S
C2007 C2008 1.383 . S
C2007 H2015 0.929 . S
C2008 C2007 1.383 . S
C2008 C2009 1.377 . S
C2009 H1993 0.930 . S
C2009 C2008 1.377 . S
C2009 C2010 1.379 . S
C2010 H1994 0.931 . S
C2010 C2004 1.383 . S
C2010 C2009 1.379 . S
H2011 C2005 0.959 . S
H2012 C2005 0.961 . S
H2013 C2005 0.960 . S
H2014 C2006 0.930 . S
H2015 C2007 0.929 . S
H2016 C2024 0.929 . S
H2017 C2026 0.930 . S
H2018 C2028 0.930 . S
H2019 C2031 0.929 . S
H2020 C2034 0.930 . S
H2021 C2036 0.960 . S
H2022 C2036 0.960 . S
H2023 C2036 0.960 . S
C2024 H2016 0.929 . S
C2024 C2025 1.377 . S
C2024 C2026 1.384 . S
C2025 C2024 1.377 . S
C2025 C2031 1.390 . S
C2026 H2017 0.930 . S
C2026 C2024 1.384 . S
C2026 C2027 1.372 . S
C2027 C2026 1.372 . S
C2027 C2028 1.400 . S
C2027 C2032 1.490 . S
C2028 H2018 0.930 . S
C2028 C2027 1.400 . S
C2028 C2031 1.386 . S
H2029 C2045 0.930 . S
H2030 C2046 0.931 . S
C2031 H2019 0.929 . S
C2031 C2025 1.390 . S
C2031 C2028 1.386 . S
C2032 C2027 1.490 . S
C2032 C2034 1.395 . S
C2032 C2035 1.403 . S
H2033 C2039 0.930 . S
C2034 H2020 0.930 . S
C2034 C2032 1.395 . S
C2034 C2037 1.403 . S
C2035 C2032 1.403 . S
C2035 C2036 1.524 . S
C2035 C2039 1.400 . S
C2036 H2021 0.960 . S
C2036 H2022 0.960 . S
C2036 H2023 0.960 . S
C2036 C2035 1.524 . S
C2037 C2034 1.403 . S
C2037 C2038 1.392 . S
C2037 C2041 1.495 . S
C2038 C2037 1.392 . S
C2038 C2039 1.385 . S
C2038 C2040 1.478 . S
C2039 H2033 0.930 . S
C2039 C2035 1.400 . S
C2039 C2038 1.385 . S
C2040 C2038 1.478 . S
C2040 C2042 1.381 . S
C2040 C2046 1.383 . S
C2041 C2037 1.495 . S
C2041 H2047 0.959 . S
C2041 H2048 0.961 . S
C2041 H2049 0.960 . S
C2042 C2040 1.381 . S
C2042 C2043 1.394 . S
C2042 H2050 0.930 . S
C2043 C2042 1.394 . S
C2043 C2044 1.383 . S
C2043 H2051 0.929 . S
C2044 C2043 1.383 . S
C2044 C2045 1.377 . S
C2045 H2029 0.930 . S
C2045 C2044 1.377 . S
C2045 C2046 1.379 . S
C2046 H2030 0.931 . S
C2046 C2040 1.383 . S
C2046 C2045 1.379 . S
H2047 C2041 0.959 . S
H2048 C2041 0.961 . S
H2049 C2041 0.960 . S
H2050 C2042 0.930 . S
H2051 C2043 0.929 . S
H2052 C2060 0.929 . S
H2053 C2062 0.930 . S
H2054 C2064 0.930 . S
H2055 C2067 0.929 . S
H2056 C2070 0.930 . S
H2057 C2072 0.960 . S
H2058 C2072 0.960 . S
H2059 C2072 0.960 . S
C2060 H2052 0.929 . S
C2060 C2061 1.377 . S
C2060 C2062 1.384 . S
C2061 C2060 1.377 . S
C2061 C2067 1.390 . S
C2062 H2053 0.930 . S
C2062 C2060 1.384 . S
C2062 C2063 1.372 . S
C2063 C2062 1.372 . S
C2063 C2064 1.400 . S
C2063 C2068 1.490 . S
C2064 H2054 0.930 . S
C2064 C2063 1.400 . S
C2064 C2067 1.386 . S
H2065 C2081 0.930 . S
H2066 C2082 0.931 . S
C2067 H2055 0.929 . S
C2067 C2061 1.390 . S
C2067 C2064 1.386 . S
C2068 C2063 1.490 . S
C2068 C2070 1.395 . S
C2068 C2071 1.403 . S
H2069 C2075 0.930 . S
C2070 H2056 0.930 . S
C2070 C2068 1.395 . S
C2070 C2073 1.403 . S
C2071 C2068 1.403 . S
C2071 C2072 1.524 . S
C2071 C2075 1.400 . S
C2072 H2057 0.960 . S
C2072 H2058 0.960 . S
C2072 H2059 0.960 . S
C2072 C2071 1.524 . S
C2073 C2070 1.403 . S
C2073 C2074 1.392 . S
C2073 C2077 1.495 . S
C2074 C2073 1.392 . S
C2074 C2075 1.385 . S
C2074 C2076 1.478 . S
C2075 H2069 0.930 . S
C2075 C2071 1.400 . S
C2075 C2074 1.385 . S
C2076 C2074 1.478 . S
C2076 C2078 1.381 . S
C2076 C2082 1.383 . S
C2077 C2073 1.495 . S
C2077 H2083 0.959 . S
C2077 H2084 0.961 . S
C2077 H2085 0.960 . S
C2078 C2076 1.381 . S
C2078 C2079 1.394 . S
C2078 H2086 0.930 . S
C2079 C2078 1.394 . S
C2079 C2080 1.383 . S
C2079 H2087 0.929 . S
C2080 C2079 1.383 . S
C2080 C2081 1.377 . S
C2081 H2065 0.930 . S
C2081 C2080 1.377 . S
C2081 C2082 1.379 . S
C2082 H2066 0.931 . S
C2082 C2076 1.383 . S
C2082 C2081 1.379 . S
H2083 C2077 0.959 . S
H2084 C2077 0.961 . S
H2085 C2077 0.960 . S
H2086 C2078 0.930 . S
H2087 C2079 0.929 . S
H2088 C2096 0.929 . S
H2089 C2098 0.930 . S
H2090 C2100 0.930 . S
H2091 C2103 0.929 . S
H2092 C2106 0.919 1_565 S
H2093 C2108 0.960 . S
H2094 C2108 0.960 . S
H2095 C2108 0.960 . S
C2096 H2088 0.929 . S
C2096 C2097 1.377 . S
C2096 C2098 1.384 . S
C2097 C2096 1.377 . S
C2097 C2103 1.390 . S
C2098 H2089 0.930 . S
C2098 C2096 1.384 . S
C2098 C2099 1.372 . S
C2099 C2098 1.372 . S
C2099 C2100 1.400 . S
C2099 C2104 1.490 . S
C2100 H2090 0.930 . S
C2100 C2099 1.400 . S
C2100 C2103 1.386 . S
H2101 C2117 0.930 . S
H2102 C2118 0.931 . S
C2103 H2091 0.929 . S
C2103 C2097 1.390 . S
C2103 C2100 1.386 . S
C2104 C2099 1.490 . S
C2104 C2106 1.395 1_565 S
C2104 C2107 1.403 . S
H2105 C2111 0.930 . S
C2106 H2092 0.919 1_545 S
C2106 C2104 1.395 1_545 S
C2106 C2109 1.403 . S
C2107 C2104 1.403 . S
C2107 C2108 1.524 . S
C2107 C2111 1.400 1_565 S
C2108 H2093 0.960 . S
C2108 H2094 0.960 . S
C2108 H2095 0.960 . S
C2108 C2107 1.524 . S
C2109 C2106 1.403 . S
C2109 C2110 1.392 . S
C2109 C2113 1.495 . S
C2110 C2109 1.392 . S
C2110 C2111 1.385 . S
C2110 C2112 1.478 . S
C2111 H2105 0.930 . S
C2111 C2107 1.400 1_545 S
C2111 C2110 1.385 . S
C2112 C2110 1.478 . S
C2112 C2114 1.381 . S
C2112 C2118 1.383 . S
C2113 C2109 1.495 . S
C2113 H2119 0.959 . S
C2113 H2120 0.961 . S
C2113 H2121 0.960 . S
C2114 C2112 1.381 . S
C2114 C2115 1.394 . S
C2114 H2122 0.930 . S
C2115 C2114 1.394 . S
C2115 C2116 1.383 . S
C2115 H2123 0.929 . S
C2116 C2115 1.383 . S
C2116 C2117 1.377 . S
C2117 H2101 0.930 . S
C2117 C2116 1.377 . S
C2117 C2118 1.379 . S
C2118 H2102 0.931 . S
C2118 C2112 1.383 . S
C2118 C2117 1.379 . S
H2119 C2113 0.959 . S
H2120 C2113 0.961 . S
H2121 C2113 0.960 . S
H2122 C2114 0.930 . S
H2123 C2115 0.929 . S
H2124 C2132 0.929 . S
H2125 C2134 0.930 . S
H2126 C2136 0.930 . S
H2127 C2139 0.929 . S
H2128 C2142 0.930 . S
H2129 C2144 0.960 . S
H2130 C2144 0.960 . S
H2131 C2144 0.960 . S
C2132 H2124 0.929 . S
C2132 C2133 1.377 . S
C2132 C2134 1.384 . S
C2133 C2132 1.377 . S
C2133 C2139 1.390 . S
C2134 H2125 0.930 . S
C2134 C2132 1.384 . S
C2134 C2135 1.372 . S
C2135 C2134 1.372 . S
C2135 C2136 1.400 . S
C2135 C2140 1.490 . S
C2136 H2126 0.930 . S
C2136 C2135 1.400 . S
C2136 C2139 1.386 . S
H2137 C2153 0.930 . S
H2138 C2154 0.931 . S
C2139 H2127 0.929 . S
C2139 C2133 1.390 . S
C2139 C2136 1.386 . S
C2140 C2135 1.490 . S
C2140 C2142 1.395 . S
C2140 C2143 1.403 . S
H2141 C2147 0.930 . S
C2142 H2128 0.930 . S
C2142 C2140 1.395 . S
C2142 C2145 1.403 . S
C2143 C2140 1.403 . S
C2143 C2144 1.524 . S
C2143 C2147 1.400 . S
C2144 H2129 0.960 . S
C2144 H2130 0.960 . S
C2144 H2131 0.960 . S
C2144 C2143 1.524 . S
C2145 C2142 1.403 . S
C2145 C2146 1.392 . S
C2145 C2149 1.495 1_455 S
C2146 C2145 1.392 . S
C2146 C2147 1.385 . S
C2146 C2148 1.478 1_455 S
C2147 H2141 0.930 . S
C2147 C2143 1.400 . S
C2147 C2146 1.385 . S
C2148 C2146 1.478 1_655 S
C2148 C2150 1.381 . S
C2148 C2154 1.383 . S
C2149 C2145 1.495 1_655 S
C2149 H2155 0.959 1_655 S
C2149 H2156 0.961 . S
C2149 H2157 0.960 . S
C2150 C2148 1.381 . S
C2150 C2151 1.394 . S
C2150 H2158 0.930 . S
C2151 C2150 1.394 . S
C2151 C2152 1.383 . S
C2151 H2159 0.929 . S
C2152 C2151 1.383 . S
C2152 C2153 1.377 . S
C2153 H2137 0.930 . S
C2153 C2152 1.377 . S
C2153 C2154 1.379 . S
C2154 H2138 0.931 . S
C2154 C2148 1.383 . S
C2154 C2153 1.379 . S
H2155 C2149 0.959 1_455 S
H2156 C2149 0.961 . S
H2157 C2149 0.960 . S
H2158 C2150 0.930 . S
H2159 C2151 0.929 . S
H2160 C2168 0.929 . S
H2161 C2170 0.930 . S
H2162 C2172 0.930 . S
H2163 C2175 0.929 . S
H2164 C2178 0.930 . S
H2165 C2180 0.960 . S
H2166 C2180 0.960 . S
H2167 C2180 0.960 . S
C2168 H2160 0.929 . S
C2168 C2169 1.377 . S
C2168 C2170 1.384 . S
C2169 C2168 1.377 . S
C2169 C2175 1.390 . S
C2170 H2161 0.930 . S
C2170 C2168 1.384 . S
C2170 C2171 1.372 . S
C2171 C2170 1.372 . S
C2171 C2172 1.400 . S
C2171 C2176 1.490 . S
C2172 H2162 0.930 . S
C2172 C2171 1.400 . S
C2172 C2175 1.386 . S
H2173 C2189 0.930 . S
H2174 C2190 0.931 . S
C2175 H2163 0.929 . S
C2175 C2169 1.390 . S
C2175 C2172 1.386 . S
C2176 C2171 1.490 . S
C2176 C2178 1.395 . S
C2176 C2179 1.412 . S
H2177 C2183 0.930 1_565 S
C2178 H2164 0.930 . S
C2178 C2176 1.395 . S
C2178 C2181 1.403 1_554 S
C2179 C2176 1.412 . S
C2179 C2180 1.514 1_545 S
C2179 C2183 1.400 1_554 S
C2180 H2165 0.960 . S
C2180 H2166 0.960 . S
C2180 H2167 0.960 . S
C2180 C2179 1.514 1_565 S
C2181 C2178 1.403 1_556 S
C2181 C2182 1.392 . S
C2181 C2185 1.495 . S
C2182 C2181 1.392 . S
C2182 C2183 1.385 . S
C2182 C2184 1.478 . S
C2183 H2177 0.930 1_545 S
C2183 C2179 1.400 1_556 S
C2183 C2182 1.385 . S
C2184 C2182 1.478 . S
C2184 C2186 1.381 . S
C2184 C2190 1.383 . S
C2185 C2181 1.495 . S
C2185 H2191 0.959 . S
C2185 H2192 0.961 . S
C2185 H2193 0.960 . S
C2186 C2184 1.381 . S
C2186 C2187 1.394 . S
C2186 H2194 0.930 . S
C2187 C2186 1.394 . S
C2187 C2188 1.383 . S
C2187 H2195 0.929 . S
C2188 C2187 1.383 . S
C2188 C2189 1.377 . S
C2189 H2173 0.930 . S
C2189 C2188 1.377 . S
C2189 C2190 1.379 . S
C2190 H2174 0.931 . S
C2190 C2184 1.383 . S
C2190 C2189 1.379 . S
H2191 C2185 0.959 . S
H2192 C2185 0.961 . S
H2193 C2185 0.960 . S
H2194 C2186 0.930 . S
H2195 C2187 0.929 . S
H2196 C2204 0.929 . S
H2197 C2206 0.930 . S
H2198 C2208 0.930 . S
H2199 C2211 0.929 . S
H2200 C2214 0.930 . S
H2201 C2216 0.960 . S
H2202 C2216 0.960 . S
H2203 C2216 0.960 . S
C2204 H2196 0.929 . S
C2204 C2205 1.377 . S
C2204 C2206 1.384 . S
C2205 C2204 1.377 . S
C2205 C2211 1.390 . S
C2206 H2197 0.930 . S
C2206 C2204 1.384 . S
C2206 C2207 1.372 . S
C2207 C2206 1.372 . S
C2207 C2208 1.400 . S
C2207 C2212 1.490 . S
C2208 H2198 0.930 . S
C2208 C2207 1.400 . S
C2208 C2211 1.386 . S
H2209 C2225 0.930 . S
H2210 C2226 0.931 . S
C2211 H2199 0.929 . S
C2211 C2205 1.390 . S
C2211 C2208 1.386 . S
C2212 C2207 1.490 . S
C2212 C2214 1.395 1_455 S
C2212 C2215 1.403 . S
H2213 C2219 0.930 . S
C2214 H2200 0.930 . S
C2214 C2212 1.395 1_655 S
C2214 C2217 1.403 1_556 S
C2215 C2212 1.403 . S
C2215 C2216 1.524 . S
C2215 C2219 1.400 1_556 S
C2216 H2201 0.960 . S
C2216 H2202 0.960 . S
C2216 H2203 0.960 . S
C2216 C2215 1.524 . S
C2217 C2214 1.403 1_554 S
C2217 C2218 1.392 1_655 S
C2217 C2221 1.495 . S
C2218 C2217 1.392 1_455 S
C2218 C2219 1.385 . S
C2218 C2220 1.478 . S
C2219 H2213 0.930 . S
C2219 C2215 1.400 1_554 S
C2219 C2218 1.385 . S
C2220 C2218 1.478 . S
C2220 C2222 1.381 . S
C2220 C2226 1.383 . S
C2221 C2217 1.495 . S
C2221 H2227 0.959 . S
C2221 H2228 0.961 . S
C2221 H2229 0.960 . S
C2222 C2220 1.381 . S
C2222 C2223 1.394 . S
C2222 H2230 0.930 . S
C2223 C2222 1.394 . S
C2223 C2224 1.383 . S
C2223 H2231 0.929 . S
C2224 C2223 1.383 . S
C2224 C2225 1.377 . S
C2225 H2209 0.930 . S
C2225 C2224 1.377 . S
C2225 C2226 1.379 . S
C2226 H2210 0.931 . S
C2226 C2220 1.383 . S
C2226 C2225 1.379 . S
H2227 C2221 0.959 . S
H2228 C2221 0.961 . S
H2229 C2221 0.960 . S
H2230 C2222 0.930 . S
H2231 C2223 0.929 . S
H2232 C2240 0.929 . S
H2233 C2242 0.930 . S
H2234 C2244 0.930 . S
H2235 C2247 0.929 . S
H2236 C2250 0.930 . S
H2237 C2252 0.960 . S
H2238 C2252 0.960 . S
H2239 C2252 0.960 . S
C2240 H2232 0.929 . S
C2240 C2241 1.377 . S
C2240 C2242 1.384 . S
C2241 C2240 1.377 . S
C2241 C2247 1.390 . S
C2242 H2233 0.930 . S
C2242 C2240 1.384 . S
C2242 C2243 1.372 . S
C2243 C2242 1.372 . S
C2243 C2244 1.400 . S
C2243 C2248 1.490 . S
C2244 H2234 0.930 . S
C2244 C2243 1.400 . S
C2244 C2247 1.386 . S
H2245 C2261 0.930 . S
H2246 C2262 0.931 . S
C2247 H2235 0.929 . S
C2247 C2241 1.390 . S
C2247 C2244 1.386 . S
C2248 C2243 1.490 . S
C2248 C2250 1.395 . S
C2248 C2251 1.403 . S
H2249 C2255 0.930 . S
C2250 H2236 0.930 . S
C2250 C2248 1.395 . S
C2250 C2253 1.403 1_556 S
C2251 C2248 1.403 . S
C2251 C2252 1.524 . S
C2251 C2255 1.400 1_556 S
C2252 H2237 0.960 . S
C2252 H2238 0.960 . S
C2252 H2239 0.960 . S
C2252 C2251 1.524 . S
C2253 C2250 1.403 1_554 S
C2253 C2254 1.392 . S
C2253 C2257 1.495 . S
C2254 C2253 1.392 . S
C2254 C2255 1.385 . S
C2254 C2256 1.478 . S
C2255 H2249 0.930 . S
C2255 C2251 1.400 1_554 S
C2255 C2254 1.385 . S
C2256 C2254 1.478 . S
C2256 C2258 1.381 . S
C2256 C2262 1.383 . S
C2257 C2253 1.495 . S
C2257 H2263 0.959 . S
C2257 H2264 0.961 . S
C2257 H2265 0.960 . S
C2258 C2256 1.381 . S
C2258 C2259 1.394 . S
C2258 H2266 0.930 . S
C2259 C2258 1.394 . S
C2259 C2260 1.383 . S
C2259 H2267 0.929 . S
C2260 C2259 1.383 . S
C2260 C2261 1.377 . S
C2261 H2245 0.930 . S
C2261 C2260 1.377 . S
C2261 C2262 1.379 . S
C2262 H2246 0.931 . S
C2262 C2256 1.383 . S
C2262 C2261 1.379 . S
H2263 C2257 0.959 . S
H2264 C2257 0.961 . S
H2265 C2257 0.960 . S
H2266 C2258 0.930 . S
H2267 C2259 0.929 . S
H2268 C2276 0.929 . S
H2269 C2278 0.930 . S
H2270 C2280 0.930 . S
H2271 C2283 0.929 . S
H2272 C2286 0.930 . S
H2273 C2288 0.960 . S
H2274 C2288 0.960 . S
H2275 C2288 0.960 . S
C2276 H2268 0.929 . S
C2276 C2277 1.377 . S
C2276 C2278 1.384 . S
C2277 C2276 1.377 . S
C2277 C2283 1.390 . S
C2278 H2269 0.930 . S
C2278 C2276 1.384 . S
C2278 C2279 1.372 . S
C2279 C2278 1.372 . S
C2279 C2280 1.400 . S
C2279 C2284 1.490 . S
C2280 H2270 0.930 . S
C2280 C2279 1.400 . S
C2280 C2283 1.386 . S
H2281 C2297 0.930 . S
H2282 C2298 0.931 . S
C2283 H2271 0.929 . S
C2283 C2277 1.390 . S
C2283 C2280 1.386 . S
C2284 C2279 1.490 . S
C2284 C2286 1.395 . S
C2284 C2287 1.403 . S
H2285 C2291 0.930 . S
C2286 H2272 0.930 . S
C2286 C2284 1.395 . S
C2286 C2289 1.403 . S
C2287 C2284 1.403 . S
C2287 C2288 1.524 . S
C2287 C2291 1.400 . S
C2288 H2273 0.960 . S
C2288 H2274 0.960 . S
C2288 H2275 0.960 . S
C2288 C2287 1.524 . S
C2289 C2286 1.403 . S
C2289 C2290 1.392 . S
C2289 C2293 1.495 . S
C2290 C2289 1.392 . S
C2290 C2291 1.385 . S
C2290 C2292 1.478 . S
C2291 H2285 0.930 . S
C2291 C2287 1.400 . S
C2291 C2290 1.385 . S
C2292 C2290 1.478 . S
C2292 C2294 1.381 . S
C2292 C2298 1.383 . S
C2293 C2289 1.495 . S
C2293 H2299 0.959 . S
C2293 H2300 0.961 . S
C2293 H2301 0.960 . S
C2294 C2292 1.381 . S
C2294 C2295 1.394 . S
C2294 H2302 0.930 . S
C2295 C2294 1.394 . S
C2295 C2296 1.383 . S
C2295 H2303 0.929 . S
C2296 C2295 1.383 . S
C2296 C2297 1.377 . S
C2297 H2281 0.930 . S
C2297 C2296 1.377 . S
C2297 C2298 1.379 . S
C2298 H2282 0.931 . S
C2298 C2292 1.383 . S
C2298 C2297 1.379 . S
H2299 C2293 0.959 . S
H2300 C2293 0.961 . S
H2301 C2293 0.960 . S
H2302 C2294 0.930 . S
H2303 C2295 0.929 . S
H2304 C2312 0.929 . S
H2305 C2314 0.930 . S
H2306 C2316 0.930 . S
H2307 C2319 0.929 . S
H2308 C2322 0.930 . S
H2309 C2324 0.960 . S
H2310 C2324 0.960 . S
H2311 C2324 0.960 . S
C2312 H2304 0.929 . S
C2312 C2313 1.377 . S
C2312 C2314 1.384 . S
C2313 C2312 1.377 . S
C2313 C2319 1.390 . S
C2314 H2305 0.930 . S
C2314 C2312 1.384 . S
C2314 C2315 1.372 . S
C2315 C2314 1.372 . S
C2315 C2316 1.400 . S
C2315 C2320 1.490 . S
C2316 H2306 0.930 . S
C2316 C2315 1.400 . S
C2316 C2319 1.386 . S
H2317 C2333 0.930 . S
H2318 C2334 0.931 . S
C2319 H2307 0.929 . S
C2319 C2313 1.390 . S
C2319 C2316 1.386 . S
C2320 C2315 1.490 . S
C2320 C2322 1.395 . S
C2320 C2323 1.403 . S
H2321 C2327 0.930 . S
C2322 H2308 0.930 . S
C2322 C2320 1.395 . S
C2322 C2325 1.403 . S
C2323 C2320 1.403 . S
C2323 C2324 1.524 . S
C2323 C2327 1.400 . S
C2324 H2309 0.960 . S
C2324 H2310 0.960 . S
C2324 H2311 0.960 . S
C2324 C2323 1.524 . S
C2325 C2322 1.403 . S
C2325 C2326 1.392 . S
C2325 C2329 1.495 . S
C2326 C2325 1.392 . S
C2326 C2327 1.385 . S
C2326 C2328 1.478 . S
C2327 H2321 0.930 . S
C2327 C2323 1.400 . S
C2327 C2326 1.385 . S
C2328 C2326 1.478 . S
C2328 C2330 1.381 . S
C2328 C2334 1.383 . S
C2329 C2325 1.495 . S
C2329 H2335 0.959 . S
C2329 H2336 0.961 . S
C2329 H2337 0.960 . S
C2330 C2328 1.381 . S
C2330 C2331 1.394 . S
C2330 H2338 0.930 . S
C2331 C2330 1.394 . S
C2331 C2332 1.383 . S
C2331 H2339 0.929 . S
C2332 C2331 1.383 . S
C2332 C2333 1.377 . S
C2333 H2317 0.930 . S
C2333 C2332 1.377 . S
C2333 C2334 1.379 . S
C2334 H2318 0.931 . S
C2334 C2328 1.383 . S
C2334 C2333 1.379 . S
H2335 C2329 0.959 . S
H2336 C2329 0.961 . S
H2337 C2329 0.960 . S
H2338 C2330 0.930 . S
H2339 C2331 0.929 . S
H2340 C2348 0.929 . S
H2341 C2350 0.930 . S
H2342 C2352 0.930 . S
H2343 C2355 0.929 . S
H2344 C2358 0.930 . S
H2345 C2360 0.960 . S
H2346 C2360 0.960 . S
H2347 C2360 0.960 . S
C2348 H2340 0.929 . S
C2348 C2349 1.377 . S
C2348 C2350 1.384 . S
C2349 C2348 1.377 . S
C2349 C2355 1.390 . S
C2350 H2341 0.930 . S
C2350 C2348 1.384 . S
C2350 C2351 1.372 . S
C2351 C2350 1.372 . S
C2351 C2352 1.400 . S
C2351 C2356 1.490 . S
C2352 H2342 0.930 . S
C2352 C2351 1.400 . S
C2352 C2355 1.386 . S
H2353 C2369 0.930 . S
H2354 C2370 0.931 . S
C2355 H2343 0.929 . S
C2355 C2349 1.390 . S
C2355 C2352 1.386 . S
C2356 C2351 1.490 . S
C2356 C2358 1.395 . S
C2356 C2359 1.403 . S
H2357 C2363 0.930 . S
C2358 H2344 0.930 . S
C2358 C2356 1.395 . S
C2358 C2361 1.403 . S
C2359 C2356 1.403 . S
C2359 C2360 1.524 . S
C2359 C2363 1.400 . S
C2360 H2345 0.960 . S
C2360 H2346 0.960 . S
C2360 H2347 0.960 . S
C2360 C2359 1.524 . S
C2361 C2358 1.403 . S
C2361 C2362 1.392 . S
C2361 C2365 1.495 . S
C2362 C2361 1.392 . S
C2362 C2363 1.385 . S
C2362 C2364 1.478 . S
C2363 H2357 0.930 . S
C2363 C2359 1.400 . S
C2363 C2362 1.385 . S
C2364 C2362 1.478 . S
C2364 C2366 1.381 . S
C2364 C2370 1.383 . S
C2365 C2361 1.495 . S
C2365 H2371 0.959 . S
C2365 H2372 0.961 . S
C2365 H2373 0.960 . S
C2366 C2364 1.381 . S
C2366 C2367 1.394 . S
C2366 H2374 0.930 . S
C2367 C2366 1.394 . S
C2367 C2368 1.383 . S
C2367 H2375 0.929 . S
C2368 C2367 1.383 . S
C2368 C2369 1.377 . S
C2369 H2353 0.930 . S
C2369 C2368 1.377 . S
C2369 C2370 1.379 . S
C2370 H2354 0.931 . S
C2370 C2364 1.383 . S
C2370 C2369 1.379 . S
H2371 C2365 0.959 . S
H2372 C2365 0.961 . S
H2373 C2365 0.960 . S
H2374 C2366 0.930 . S
H2375 C2367 0.929 . S
H2376 C2384 0.929 . S
H2377 C2386 0.930 . S
H2378 C2388 0.930 . S
H2379 C2391 0.929 . S
H2380 C2394 0.930 . S
H2381 C2396 0.960 . S
H2382 C2396 0.960 . S
H2383 C2396 0.960 . S
C2384 H2376 0.929 . S
C2384 C2385 1.377 . S
C2384 C2386 1.384 . S
C2385 C2384 1.377 . S
C2385 C2391 1.390 . S
C2386 H2377 0.930 . S
C2386 C2384 1.384 . S
C2386 C2387 1.372 . S
C2387 C2386 1.372 . S
C2387 C2388 1.400 . S
C2387 C2392 1.490 . S
C2388 H2378 0.930 . S
C2388 C2387 1.400 . S
C2388 C2391 1.386 . S
H2389 C2405 0.930 . S
H2390 C2406 0.931 . S
C2391 H2379 0.929 . S
C2391 C2385 1.390 . S
C2391 C2388 1.386 . S
C2392 C2387 1.490 . S
C2392 C2394 1.395 . S
C2392 C2395 1.403 . S
H2393 C2399 0.930 . S
C2394 H2380 0.930 . S
C2394 C2392 1.395 . S
C2394 C2397 1.403 . S
C2395 C2392 1.403 . S
C2395 C2396 1.524 . S
C2395 C2399 1.400 . S
C2396 H2381 0.960 . S
C2396 H2382 0.960 . S
C2396 H2383 0.960 . S
C2396 C2395 1.524 . S
C2397 C2394 1.403 . S
C2397 C2398 1.392 . S
C2397 C2401 1.495 . S
C2398 C2397 1.392 . S
C2398 C2399 1.385 . S
C2398 C2400 1.478 . S
C2399 H2393 0.930 . S
C2399 C2395 1.400 . S
C2399 C2398 1.385 . S
C2400 C2398 1.478 . S
C2400 C2402 1.381 . S
C2400 C2406 1.383 . S
C2401 C2397 1.495 . S
C2401 H2407 0.959 . S
C2401 H2408 0.961 . S
C2401 H2409 0.960 . S
C2402 C2400 1.381 . S
C2402 C2403 1.394 . S
C2402 H2410 0.930 . S
C2403 C2402 1.394 . S
C2403 C2404 1.383 . S
C2403 H2411 0.929 . S
C2404 C2403 1.383 . S
C2404 C2405 1.377 . S
C2405 H2389 0.930 . S
C2405 C2404 1.377 . S
C2405 C2406 1.379 . S
C2406 H2390 0.931 . S
C2406 C2400 1.383 . S
C2406 C2405 1.379 . S
H2407 C2401 0.959 . S
H2408 C2401 0.961 . S
H2409 C2401 0.960 . S
H2410 C2402 0.930 . S
H2411 C2403 0.929 . S
H2412 C2420 0.929 . S
H2413 C2422 0.930 . S
H2414 C2424 0.930 . S
H2415 C2427 0.929 . S
H2416 C2430 0.930 . S
H2417 C2432 0.960 . S
H2418 C2432 0.960 . S
H2419 C2432 0.960 . S
C2420 H2412 0.929 . S
C2420 C2421 1.377 . S
C2420 C2422 1.384 . S
C2421 C2420 1.377 . S
C2421 C2427 1.390 . S
C2422 H2413 0.930 . S
C2422 C2420 1.384 . S
C2422 C2423 1.372 . S
C2423 C2422 1.372 . S
C2423 C2424 1.400 . S
C2423 C2428 1.490 . S
C2424 H2414 0.930 . S
C2424 C2423 1.400 . S
C2424 C2427 1.386 . S
H2425 C2441 0.930 . S
H2426 C2442 0.931 . S
C2427 H2415 0.929 . S
C2427 C2421 1.390 . S
C2427 C2424 1.386 . S
C2428 C2423 1.490 . S
C2428 C2430 1.395 . S
C2428 C2431 1.403 . S
H2429 C2435 0.930 . S
C2430 H2416 0.930 . S
C2430 C2428 1.395 . S
C2430 C2433 1.403 . S
C2431 C2428 1.403 . S
C2431 C2432 1.524 . S
C2431 C2435 1.400 . S
C2432 H2417 0.960 . S
C2432 H2418 0.960 . S
C2432 H2419 0.960 . S
C2432 C2431 1.524 . S
C2433 C2430 1.403 . S
C2433 C2434 1.392 . S
C2433 C2437 1.495 . S
C2434 C2433 1.392 . S
C2434 C2435 1.385 . S
C2434 C2436 1.478 . S
C2435 H2429 0.930 . S
C2435 C2431 1.400 . S
C2435 C2434 1.385 . S
C2436 C2434 1.478 . S
C2436 C2438 1.381 . S
C2436 C2442 1.383 . S
C2437 C2433 1.495 . S
C2437 H2443 0.959 . S
C2437 H2444 0.961 . S
C2437 H2445 0.960 . S
C2438 C2436 1.381 . S
C2438 C2439 1.394 . S
C2438 H2446 0.930 . S
C2439 C2438 1.394 . S
C2439 C2440 1.383 . S
C2439 H2447 0.929 . S
C2440 C2439 1.383 . S
C2440 C2441 1.377 . S
C2441 H2425 0.930 . S
C2441 C2440 1.377 . S
C2441 C2442 1.379 . S
C2442 H2426 0.931 . S
C2442 C2436 1.383 . S
C2442 C2441 1.379 . S
H2443 C2437 0.959 . S
H2444 C2437 0.961 . S
H2445 C2437 0.960 . S
H2446 C2438 0.930 . S
H2447 C2439 0.929 . S
H2448 C2456 0.929 . S
H2449 C2458 0.930 . S
H2450 C2460 0.930 . S
H2451 C2463 0.929 . S
H2452 C2466 0.930 . S
H2453 C2468 0.960 . S
H2454 C2468 0.960 . S
H2455 C2468 0.960 . S
C2456 H2448 0.929 . S
C2456 C2457 1.377 . S
C2456 C2458 1.384 . S
C2457 C2456 1.377 . S
C2457 C2463 1.390 . S
C2458 H2449 0.930 . S
C2458 C2456 1.384 . S
C2458 C2459 1.372 . S
C2459 C2458 1.372 . S
C2459 C2460 1.400 . S
C2459 C2464 1.490 . S
C2460 H2450 0.930 . S
C2460 C2459 1.400 . S
C2460 C2463 1.386 . S
H2461 C2477 0.930 . S
H2462 C2478 0.931 . S
C2463 H2451 0.929 . S
C2463 C2457 1.390 . S
C2463 C2460 1.386 . S
C2464 C2459 1.490 . S
C2464 C2466 1.395 . S
C2464 C2467 1.403 . S
H2465 C2471 0.930 . S
C2466 H2452 0.930 . S
C2466 C2464 1.395 . S
C2466 C2469 1.403 . S
C2467 C2464 1.403 . S
C2467 C2468 1.524 . S
C2467 C2471 1.400 . S
C2468 H2453 0.960 . S
C2468 H2454 0.960 . S
C2468 H2455 0.960 . S
C2468 C2467 1.524 . S
C2469 C2466 1.403 . S
C2469 C2470 1.392 . S
C2469 C2473 1.495 . S
C2470 C2469 1.392 . S
C2470 C2471 1.385 . S
C2470 C2472 1.478 . S
C2471 H2465 0.930 . S
C2471 C2467 1.400 . S
C2471 C2470 1.385 . S
C2472 C2470 1.478 . S
C2472 C2474 1.381 . S
C2472 C2478 1.383 . S
C2473 C2469 1.495 . S
C2473 H2479 0.959 . S
C2473 H2480 0.961 . S
C2473 H2481 0.960 . S
C2474 C2472 1.381 . S
C2474 C2475 1.394 . S
C2474 H2482 0.930 . S
C2475 C2474 1.394 . S
C2475 C2476 1.383 . S
C2475 H2483 0.929 . S
C2476 C2475 1.383 . S
C2476 C2477 1.377 . S
C2477 H2461 0.930 . S
C2477 C2476 1.377 . S
C2477 C2478 1.379 . S
C2478 H2462 0.931 . S
C2478 C2472 1.383 . S
C2478 C2477 1.379 . S
H2479 C2473 0.959 . S
H2480 C2473 0.961 . S
H2481 C2473 0.960 . S
H2482 C2474 0.930 . S
H2483 C2475 0.929 . S
H2484 C2492 0.929 . S
H2485 C2494 0.930 . S
H2486 C2496 0.930 . S
H2487 C2499 0.929 . S
H2488 C2502 0.930 . S
H2489 C2504 0.960 . S
H2490 C2504 0.960 . S
H2491 C2504 0.960 . S
C2492 H2484 0.929 . S
C2492 C2493 1.377 . S
C2492 C2494 1.384 . S
C2493 C2492 1.377 . S
C2493 C2499 1.390 . S
C2494 H2485 0.930 . S
C2494 C2492 1.384 . S
C2494 C2495 1.372 . S
C2495 C2494 1.372 . S
C2495 C2496 1.400 . S
C2495 C2500 1.490 . S
C2496 H2486 0.930 . S
C2496 C2495 1.400 . S
C2496 C2499 1.386 . S
H2497 C2513 0.930 . S
H2498 C2514 0.931 . S
C2499 H2487 0.929 . S
C2499 C2493 1.390 . S
C2499 C2496 1.386 . S
C2500 C2495 1.490 . S
C2500 C2502 1.395 . S
C2500 C2503 1.403 . S
H2501 C2507 0.930 . S
C2502 H2488 0.930 . S
C2502 C2500 1.395 . S
C2502 C2505 1.403 . S
C2503 C2500 1.403 . S
C2503 C2504 1.524 . S
C2503 C2507 1.400 . S
C2504 H2489 0.960 . S
C2504 H2490 0.960 . S
C2504 H2491 0.960 . S
C2504 C2503 1.524 . S
C2505 C2502 1.403 . S
C2505 C2506 1.392 . S
C2505 C2509 1.495 . S
C2506 C2505 1.392 . S
C2506 C2507 1.385 . S
C2506 C2508 1.478 . S
C2507 H2501 0.930 . S
C2507 C2503 1.400 . S
C2507 C2506 1.385 . S
C2508 C2506 1.478 . S
C2508 C2510 1.381 . S
C2508 C2514 1.383 . S
C2509 C2505 1.495 . S
C2509 H2515 0.959 . S
C2509 H2516 0.961 . S
C2509 H2517 0.960 . S
C2510 C2508 1.381 . S
C2510 C2511 1.394 . S
C2510 H2518 0.930 . S
C2511 C2510 1.394 . S
C2511 C2512 1.383 . S
C2511 H2519 0.929 . S
C2512 C2511 1.383 . S
C2512 C2513 1.377 . S
C2513 H2497 0.930 . S
C2513 C2512 1.377 . S
C2513 C2514 1.379 . S
C2514 H2498 0.931 . S
C2514 C2508 1.383 . S
C2514 C2513 1.379 . S
H2515 C2509 0.959 . S
H2516 C2509 0.961 . S
H2517 C2509 0.960 . S
H2518 C2510 0.930 . S
H2519 C2511 0.929 . S
H2520 C2528 0.929 . S
H2521 C2530 0.930 . S
H2522 C2532 0.930 . S
H2523 C2535 0.929 . S
H2524 C2538 0.930 . S
H2525 C2540 0.960 . S
H2526 C2540 0.960 . S
H2527 C2540 0.960 . S
C2528 H2520 0.929 . S
C2528 C2529 1.377 . S
C2528 C2530 1.384 . S
C2529 C2528 1.377 . S
C2529 C2535 1.390 . S
C2530 H2521 0.930 . S
C2530 C2528 1.384 . S
C2530 C2531 1.372 . S
C2531 C2530 1.372 . S
C2531 C2532 1.400 . S
C2531 C2536 1.490 . S
C2532 H2522 0.930 . S
C2532 C2531 1.400 . S
C2532 C2535 1.386 . S
H2533 C2549 0.930 . S
H2534 C2550 0.931 . S
C2535 H2523 0.929 . S
C2535 C2529 1.390 . S
C2535 C2532 1.386 . S
C2536 C2531 1.490 . S
C2536 C2538 1.395 . S
C2536 C2539 1.403 . S
H2537 C2543 0.930 . S
C2538 H2524 0.930 . S
C2538 C2536 1.395 . S
C2538 C2541 1.403 . S
C2539 C2536 1.403 . S
C2539 C2540 1.524 . S
C2539 C2543 1.400 . S
C2540 H2525 0.960 . S
C2540 H2526 0.960 . S
C2540 H2527 0.960 . S
C2540 C2539 1.524 . S
C2541 C2538 1.403 . S
C2541 C2542 1.392 . S
C2541 C2545 1.495 . S
C2542 C2541 1.392 . S
C2542 C2543 1.385 . S
C2542 C2544 1.478 . S
C2543 H2537 0.930 . S
C2543 C2539 1.400 . S
C2543 C2542 1.385 . S
C2544 C2542 1.478 . S
C2544 C2546 1.381 . S
C2544 C2550 1.383 . S
C2545 C2541 1.495 . S
C2545 H2551 0.959 . S
C2545 H2552 0.961 . S
C2545 H2553 0.960 . S
C2546 C2544 1.381 . S
C2546 C2547 1.394 . S
C2546 H2554 0.930 . S
C2547 C2546 1.394 . S
C2547 C2548 1.383 . S
C2547 H2555 0.929 . S
C2548 C2547 1.383 . S
C2548 C2549 1.377 . S
C2549 H2533 0.930 . S
C2549 C2548 1.377 . S
C2549 C2550 1.379 . S
C2550 H2534 0.931 . S
C2550 C2544 1.383 . S
C2550 C2549 1.379 . S
H2551 C2545 0.959 . S
H2552 C2545 0.961 . S
H2553 C2545 0.960 . S
H2554 C2546 0.930 . S
H2555 C2547 0.929 . S
H2556 C2564 0.929 . S
H2557 C2566 0.930 . S
H2558 C2568 0.930 . S
H2559 C2571 0.929 . S
H2560 C2574 0.930 . S
H2561 C2576 0.960 . S
H2562 C2576 0.960 . S
H2563 C2576 0.960 . S
C2564 H2556 0.929 . S
C2564 C2565 1.377 . S
C2564 C2566 1.384 . S
C2565 C2564 1.377 . S
C2565 C2571 1.390 . S
C2566 H2557 0.930 . S
C2566 C2564 1.384 . S
C2566 C2567 1.372 . S
C2567 C2566 1.372 . S
C2567 C2568 1.400 . S
C2567 C2572 1.490 . S
C2568 H2558 0.930 . S
C2568 C2567 1.400 . S
C2568 C2571 1.386 . S
H2569 C2585 0.930 . S
H2570 C2586 0.931 . S
C2571 H2559 0.929 . S
C2571 C2565 1.390 . S
C2571 C2568 1.386 . S
C2572 C2567 1.490 . S
C2572 C2574 1.395 . S
C2572 C2575 1.403 . S
H2573 C2579 0.930 . S
C2574 H2560 0.930 . S
C2574 C2572 1.395 . S
C2574 C2577 1.403 . S
C2575 C2572 1.403 . S
C2575 C2576 1.524 . S
C2575 C2579 1.400 . S
C2576 H2561 0.960 . S
C2576 H2562 0.960 . S
C2576 H2563 0.960 . S
C2576 C2575 1.524 . S
C2577 C2574 1.403 . S
C2577 C2578 1.392 . S
C2577 C2581 1.495 . S
C2578 C2577 1.392 . S
C2578 C2579 1.385 . S
C2578 C2580 1.478 . S
C2579 H2573 0.930 . S
C2579 C2575 1.400 . S
C2579 C2578 1.385 . S
C2580 C2578 1.478 . S
C2580 C2582 1.381 . S
C2580 C2586 1.383 . S
C2581 C2577 1.495 . S
C2581 H2587 0.959 . S
C2581 H2588 0.961 . S
C2581 H2589 0.960 . S
C2582 C2580 1.381 . S
C2582 C2583 1.394 . S
C2582 H2590 0.930 . S
C2583 C2582 1.394 . S
C2583 C2584 1.383 . S
C2583 H2591 0.929 . S
C2584 C2583 1.383 . S
C2584 C2585 1.377 . S
C2585 H2569 0.930 . S
C2585 C2584 1.377 . S
C2585 C2586 1.379 . S
C2586 H2570 0.931 . S
C2586 C2580 1.383 . S
C2586 C2585 1.379 . S
H2587 C2581 0.959 . S
H2588 C2581 0.961 . S
H2589 C2581 0.960 . S
H2590 C2582 0.930 . S
H2591 C2583 0.929 . S
H2592 C2600 0.929 . S
H2593 C2602 0.930 . S
H2594 C2604 0.930 . S
H2595 C2607 0.929 1_455 S
H2596 C2610 0.930 . S
H2597 C2612 0.960 . S
H2598 C2612 0.960 . S
H2599 C2612 0.960 . S
C2600 H2592 0.929 . S
C2600 C2601 1.377 . S
C2600 C2602 1.384 . S
C2601 C2600 1.377 . S
C2601 C2607 1.390 . S
C2602 H2593 0.930 . S
C2602 C2600 1.384 . S
C2602 C2603 1.372 . S
C2603 C2602 1.372 . S
C2603 C2604 1.400 . S
C2603 C2608 1.490 . S
C2604 H2594 0.930 . S
C2604 C2603 1.400 . S
C2604 C2607 1.386 . S
H2605 C2621 0.930 . S
H2606 C2622 0.931 . S
C2607 H2595 0.929 1_655 S
C2607 C2601 1.390 . S
C2607 C2604 1.386 . S
C2608 C2603 1.490 . S
C2608 C2610 1.395 . S
C2608 C2611 1.403 . S
H2609 C2615 0.930 . S
C2610 H2596 0.930 . S
C2610 C2608 1.395 . S
C2610 C2613 1.403 . S
C2611 C2608 1.403 . S
C2611 C2612 1.524 . S
C2611 C2615 1.400 . S
C2612 H2597 0.960 . S
C2612 H2598 0.960 . S
C2612 H2599 0.960 . S
C2612 C2611 1.524 . S
C2613 C2610 1.403 . S
C2613 C2614 1.392 . S
C2613 C2617 1.495 . S
C2614 C2613 1.392 . S
C2614 C2615 1.385 . S
C2614 C2616 1.478 . S
C2615 H2609 0.930 . S
C2615 C2611 1.400 . S
C2615 C2614 1.385 . S
C2616 C2614 1.478 . S
C2616 C2618 1.381 . S
C2616 C2622 1.383 . S
C2617 C2613 1.495 . S
C2617 H2623 0.959 . S
C2617 H2624 0.961 . S
C2617 H2625 0.960 . S
C2618 C2616 1.381 . S
C2618 C2619 1.394 . S
C2618 H2626 0.930 . S
C2619 C2618 1.394 . S
C2619 C2620 1.383 . S
C2619 H2627 0.929 . S
C2620 C2619 1.383 . S
C2620 C2621 1.377 . S
C2621 H2605 0.930 . S
C2621 C2620 1.377 . S
C2621 C2622 1.379 . S
C2622 H2606 0.931 . S
C2622 C2616 1.383 . S
C2622 C2621 1.379 . S
H2623 C2617 0.959 . S
H2624 C2617 0.961 . S
H2625 C2617 0.960 . S
H2626 C2618 0.930 . S
H2627 C2619 0.929 . S
H2628 C2636 0.929 . S
H2629 C2638 0.930 . S
H2630 C2640 0.930 . S
H2631 C2643 0.929 . S
H2632 C2646 0.930 . S
H2633 C2648 0.960 . S
H2634 C2648 0.960 . S
H2635 C2648 0.960 . S
C2636 H2628 0.929 . S
C2636 C2637 1.377 . S
C2636 C2638 1.384 . S
C2637 C2636 1.377 . S
C2637 C2643 1.390 . S
C2638 H2629 0.930 . S
C2638 C2636 1.384 . S
C2638 C2639 1.372 . S
C2639 C2638 1.372 . S
C2639 C2640 1.400 . S
C2639 C2644 1.490 . S
C2640 H2630 0.930 . S
C2640 C2639 1.400 . S
C2640 C2643 1.386 . S
H2641 C2657 0.930 . S
H2642 C2658 0.931 . S
C2643 H2631 0.929 . S
C2643 C2637 1.390 . S
C2643 C2640 1.386 . S
C2644 C2639 1.490 . S
C2644 C2646 1.395 . S
C2644 C2647 1.403 . S
H2645 C2651 0.930 . S
C2646 H2632 0.930 . S
C2646 C2644 1.395 . S
C2646 C2649 1.403 . S
C2647 C2644 1.403 . S
C2647 C2648 1.524 . S
C2647 C2651 1.400 . S
C2648 H2633 0.960 . S
C2648 H2634 0.960 . S
C2648 H2635 0.960 . S
C2648 C2647 1.524 . S
C2649 C2646 1.403 . S
C2649 C2650 1.392 . S
C2649 C2653 1.495 . S
C2650 C2649 1.392 . S
C2650 C2651 1.385 . S
C2650 C2652 1.478 . S
C2651 H2645 0.930 . S
C2651 C2647 1.400 . S
C2651 C2650 1.385 . S
C2652 C2650 1.478 . S
C2652 C2654 1.381 . S
C2652 C2658 1.383 . S
C2653 C2649 1.495 . S
C2653 H2659 0.959 . S
C2653 H2660 0.961 . S
C2653 H2661 0.960 . S
C2654 C2652 1.381 . S
C2654 C2655 1.394 . S
C2654 H2662 0.930 . S
C2655 C2654 1.394 . S
C2655 C2656 1.383 . S
C2655 H2663 0.929 . S
C2656 C2655 1.383 . S
C2656 C2657 1.377 . S
C2657 H2641 0.930 . S
C2657 C2656 1.377 . S
C2657 C2658 1.379 . S
C2658 H2642 0.931 . S
C2658 C2652 1.383 . S
C2658 C2657 1.379 . S
H2659 C2653 0.959 . S
H2660 C2653 0.961 . S
H2661 C2653 0.960 . S
H2662 C2654 0.930 . S
H2663 C2655 0.929 . S
H2664 C2672 0.929 . S
H2665 C2674 0.930 . S
H2666 C2676 0.930 . S
H2667 C2679 0.929 . S
H2668 C2682 0.930 . S
H2669 C2684 0.960 . S
H2670 C2684 0.960 . S
H2671 C2684 0.960 . S
C2672 H2664 0.929 . S
C2672 C2673 1.377 . S
C2672 C2674 1.384 . S
C2673 C2672 1.377 . S
C2673 C2679 1.390 . S
C2674 H2665 0.930 . S
C2674 C2672 1.384 . S
C2674 C2675 1.372 . S
C2675 C2674 1.372 . S
C2675 C2676 1.400 . S
C2675 C2680 1.490 . S
C2676 H2666 0.930 . S
C2676 C2675 1.400 . S
C2676 C2679 1.386 . S
H2677 C2693 0.930 . S
H2678 C2694 0.931 . S
C2679 H2667 0.929 . S
C2679 C2673 1.390 . S
C2679 C2676 1.386 . S
C2680 C2675 1.490 . S
C2680 C2682 1.395 . S
C2680 C2683 1.403 . S
H2681 C2687 0.930 . S
C2682 H2668 0.930 . S
C2682 C2680 1.395 . S
C2682 C2685 1.403 . S
C2683 C2680 1.403 . S
C2683 C2684 1.524 . S
C2683 C2687 1.400 . S
C2684 H2669 0.960 . S
C2684 H2670 0.960 . S
C2684 H2671 0.960 . S
C2684 C2683 1.524 . S
C2685 C2682 1.403 . S
C2685 C2686 1.392 . S
C2685 C2689 1.495 . S
C2686 C2685 1.392 . S
C2686 C2687 1.385 . S
C2686 C2688 1.478 . S
C2687 H2681 0.930 . S
C2687 C2683 1.400 . S
C2687 C2686 1.385 . S
C2688 C2686 1.478 . S
C2688 C2690 1.381 . S
C2688 C2694 1.383 . S
C2689 C2685 1.495 . S
C2689 H2695 0.959 . S
C2689 H2696 0.961 . S
C2689 H2697 0.960 . S
C2690 C2688 1.381 . S
C2690 C2691 1.394 . S
C2690 H2698 0.930 . S
C2691 C2690 1.394 . S
C2691 C2692 1.383 . S
C2691 H2699 0.929 . S
C2692 C2691 1.383 . S
C2692 C2693 1.377 . S
C2693 H2677 0.930 . S
C2693 C2692 1.377 . S
C2693 C2694 1.379 . S
C2694 H2678 0.931 . S
C2694 C2688 1.383 . S
C2694 C2693 1.379 . S
H2695 C2689 0.959 . S
H2696 C2689 0.961 . S
H2697 C2689 0.960 . S
H2698 C2690 0.930 . S
H2699 C2691 0.929 . S
H2700 C2708 0.929 . S
H2701 C2710 0.938 . S
H2702 C2712 0.930 . S
H2703 C2715 0.929 . S
H2704 C2718 0.931 . S
H2705 C2720 0.960 . S
H2706 C2720 0.960 . S
H2707 C2720 0.960 1_655 S
C2708 H2700 0.929 . S
C2708 C2709 1.377 . S
C2708 C2710 1.384 . S
C2709 C2708 1.377 . S
C2709 C2715 1.390 . S
C2710 H2701 0.938 . S
C2710 C2708 1.384 . S
C2710 C2711 1.372 . S
C2711 C2710 1.372 . S
C2711 C2712 1.400 . S
C2711 C2716 1.490 1_655 S
C2712 H2702 0.930 . S
C2712 C2711 1.400 . S
C2712 C2715 1.386 . S
H2713 C2729 0.930 . S
H2714 C2730 0.931 . S
C2715 H2703 0.929 . S
C2715 C2709 1.390 . S
C2715 C2712 1.386 . S
C2716 C2711 1.490 1_455 S
C2716 C2718 1.395 . S
C2716 C2719 1.403 . S
H2717 C2723 0.930 . S
C2718 H2704 0.931 . S
C2718 C2716 1.395 . S
C2718 C2721 1.403 . S
C2719 C2716 1.403 . S
C2719 C2720 1.524 . S
C2719 C2723 1.400 . S
C2720 H2705 0.960 . S
C2720 H2706 0.960 . S
C2720 H2707 0.960 1_455 S
C2720 C2719 1.524 . S
C2721 C2718 1.403 . S
C2721 C2722 1.392 . S
C2721 C2725 1.495 . S
C2722 C2721 1.392 . S
C2722 C2723 1.385 . S
C2722 C2724 1.478 . S
C2723 H2717 0.930 . S
C2723 C2719 1.400 . S
C2723 C2722 1.385 . S
C2724 C2722 1.478 . S
C2724 C2726 1.381 . S
C2724 C2730 1.383 . S
C2725 C2721 1.495 . S
C2725 H2731 0.959 . S
C2725 H2732 0.961 . S
C2725 H2733 0.960 . S
C2726 C2724 1.381 . S
C2726 C2727 1.394 . S
C2726 H2734 0.930 . S
C2727 C2726 1.394 . S
C2727 C2728 1.383 . S
C2727 H2735 0.929 . S
C2728 C2727 1.383 . S
C2728 C2729 1.377 . S
C2729 H2713 0.930 . S
C2729 C2728 1.377 . S
C2729 C2730 1.379 . S
C2730 H2714 0.931 . S
C2730 C2724 1.383 . S
C2730 C2729 1.379 . S
H2731 C2725 0.959 . S
H2732 C2725 0.961 . S
H2733 C2725 0.960 . S
H2734 C2726 0.930 . S
H2735 C2727 0.929 . S
H2736 C2744 0.929 . S
H2737 C2746 0.930 . S
H2738 C2748 0.930 . S
H2739 C2751 0.929 . S
H2740 C2754 0.930 . S
H2741 C2756 0.960 . S
H2742 C2756 0.960 . S
H2743 C2756 0.960 . S
C2744 H2736 0.929 . S
C2744 C2745 1.377 . S
C2744 C2746 1.384 . S
C2745 C2744 1.377 . S
C2745 C2751 1.390 . S
C2746 H2737 0.930 . S
C2746 C2744 1.384 . S
C2746 C2747 1.372 . S
C2747 C2746 1.372 . S
C2747 C2748 1.400 . S
C2747 C2752 1.490 . S
C2748 H2738 0.930 . S
C2748 C2747 1.400 . S
C2748 C2751 1.386 . S
H2749 C2765 0.930 . S
H2750 C2766 0.931 . S
C2751 H2739 0.929 . S
C2751 C2745 1.390 . S
C2751 C2748 1.386 . S
C2752 C2747 1.490 . S
C2752 C2754 1.395 . S
C2752 C2755 1.403 . S
H2753 C2759 0.930 . S
C2754 H2740 0.930 . S
C2754 C2752 1.395 . S
C2754 C2757 1.403 . S
C2755 C2752 1.403 . S
C2755 C2756 1.524 . S
C2755 C2759 1.400 . S
C2756 H2741 0.960 . S
C2756 H2742 0.960 . S
C2756 H2743 0.960 . S
C2756 C2755 1.524 . S
C2757 C2754 1.403 . S
C2757 C2758 1.392 . S
C2757 C2761 1.495 . S
C2758 C2757 1.392 . S
C2758 C2759 1.385 . S
C2758 C2760 1.478 . S
C2759 H2753 0.930 . S
C2759 C2755 1.400 . S
C2759 C2758 1.385 . S
C2760 C2758 1.478 . S
C2760 C2762 1.381 . S
C2760 C2766 1.383 . S
C2761 C2757 1.495 . S
C2761 H2767 0.959 . S
C2761 H2768 0.961 . S
C2761 H2769 0.960 . S
C2762 C2760 1.381 . S
C2762 C2763 1.394 . S
C2762 H2770 0.930 . S
C2763 C2762 1.394 . S
C2763 C2764 1.383 . S
C2763 H2771 0.929 . S
C2764 C2763 1.383 . S
C2764 C2765 1.377 . S
C2765 H2749 0.930 . S
C2765 C2764 1.377 . S
C2765 C2766 1.379 . S
C2766 H2750 0.931 . S
C2766 C2760 1.383 . S
C2766 C2765 1.379 . S
H2767 C2761 0.959 . S
H2768 C2761 0.961 . S
H2769 C2761 0.960 . S
H2770 C2762 0.930 . S
H2771 C2763 0.929 . S
H2772 C2780 0.929 . S
H2773 C2782 0.930 . S
H2774 C2784 0.930 . S
H2775 C2787 0.929 . S
H2776 C2790 0.930 . S
H2777 C2792 0.960 . S
H2778 C2792 0.960 . S
H2779 C2792 0.960 . S
C2780 H2772 0.929 . S
C2780 C2781 1.377 . S
C2780 C2782 1.384 . S
C2781 C2780 1.377 . S
C2781 C2787 1.390 . S
C2782 H2773 0.930 . S
C2782 C2780 1.384 . S
C2782 C2783 1.372 . S
C2783 C2782 1.372 . S
C2783 C2784 1.400 . S
C2783 C2788 1.490 1_565 S
C2784 H2774 0.930 . S
C2784 C2783 1.400 . S
C2784 C2787 1.386 . S
H2785 C2801 0.930 . S
H2786 C2802 0.931 . S
C2787 H2775 0.929 . S
C2787 C2781 1.390 . S
C2787 C2784 1.386 . S
C2788 C2783 1.490 1_545 S
C2788 C2790 1.395 1_545 S
C2788 C2791 1.403 . S
H2789 C2795 0.930 . S
C2790 H2776 0.930 . S
C2790 C2788 1.395 1_565 S
C2790 C2793 1.403 1_565 S
C2791 C2788 1.403 . S
C2791 C2792 1.524 . S
C2791 C2795 1.400 . S
C2792 H2777 0.960 . S
C2792 H2778 0.960 . S
C2792 H2779 0.960 . S
C2792 C2791 1.524 . S
C2793 C2790 1.403 1_545 S
C2793 C2794 1.392 . S
C2793 C2797 1.503 . S
C2794 C2793 1.392 . S
C2794 C2795 1.385 . S
C2794 C2796 1.478 . S
C2795 H2789 0.930 . S
C2795 C2791 1.400 . S
C2795 C2794 1.385 . S
C2796 C2794 1.478 . S
C2796 C2798 1.381 . S
C2796 C2802 1.383 . S
C2797 C2793 1.503 . S
C2797 H2803 0.938 1_545 S
C2797 H2804 0.958 . S
C2797 H2805 0.977 . S
C2798 C2796 1.381 . S
C2798 C2799 1.394 . S
C2798 H2806 0.930 . S
C2799 C2798 1.394 . S
C2799 C2800 1.383 . S
C2799 H2807 0.929 . S
C2800 C2799 1.383 . S
C2800 C2801 1.377 . S
C2801 H2785 0.930 . S
C2801 C2800 1.377 . S
C2801 C2802 1.379 . S
C2802 H2786 0.931 . S
C2802 C2796 1.383 . S
C2802 C2801 1.379 . S
H2803 C2797 0.938 1_565 S
H2804 C2797 0.958 . S
H2805 C2797 0.977 . S
H2806 C2798 0.930 . S
H2807 C2799 0.929 . S
H2808 C2816 0.929 . S
H2809 C2818 0.930 . S
H2810 C2820 0.930 . S
H2811 C2823 0.929 . S
H2812 C2826 0.930 . S
H2813 C2828 0.960 . S
H2814 C2828 0.960 . S
H2815 C2828 0.960 . S
C2816 H2808 0.929 . S
C2816 C2817 1.377 . S
C2816 C2818 1.384 . S
C2817 C2816 1.377 . S
C2817 C2823 1.390 . S
C2818 H2809 0.930 . S
C2818 C2816 1.384 . S
C2818 C2819 1.372 . S
C2819 C2818 1.372 . S
C2819 C2820 1.400 . S
C2819 C2824 1.490 . S
C2820 H2810 0.930 . S
C2820 C2819 1.400 . S
C2820 C2823 1.386 . S
H2821 C2837 0.930 . S
H2822 C2838 0.931 . S
C2823 H2811 0.929 . S
C2823 C2817 1.390 . S
C2823 C2820 1.386 . S
C2824 C2819 1.490 . S
C2824 C2826 1.395 . S
C2824 C2827 1.403 . S
H2825 C2831 0.930 . S
C2826 H2812 0.930 . S
C2826 C2824 1.395 . S
C2826 C2829 1.403 . S
C2827 C2824 1.403 . S
C2827 C2828 1.524 . S
C2827 C2831 1.400 . S
C2828 H2813 0.960 . S
C2828 H2814 0.960 . S
C2828 H2815 0.960 . S
C2828 C2827 1.524 . S
C2829 C2826 1.403 . S
C2829 C2830 1.392 . S
C2829 C2833 1.495 . S
C2830 C2829 1.392 . S
C2830 C2831 1.385 . S
C2830 C2832 1.478 . S
C2831 H2825 0.930 . S
C2831 C2827 1.400 . S
C2831 C2830 1.385 . S
C2832 C2830 1.478 . S
C2832 C2834 1.381 . S
C2832 C2838 1.383 . S
C2833 C2829 1.495 . S
C2833 H2839 0.959 . S
C2833 H2840 0.961 . S
C2833 H2841 0.960 . S
C2834 C2832 1.381 . S
C2834 C2835 1.394 . S
C2834 H2842 0.930 . S
C2835 C2834 1.394 . S
C2835 C2836 1.383 . S
C2835 H2843 0.929 . S
C2836 C2835 1.383 . S
C2836 C2837 1.377 . S
C2837 H2821 0.930 . S
C2837 C2836 1.377 . S
C2837 C2838 1.379 . S
C2838 H2822 0.931 . S
C2838 C2832 1.383 . S
C2838 C2837 1.379 . S
H2839 C2833 0.959 . S
H2840 C2833 0.961 . S
H2841 C2833 0.960 . S
H2842 C2834 0.930 . S
H2843 C2835 0.929 . S
H2844 C2852 0.929 . S
H2845 C2854 0.930 . S
H2846 C2856 0.930 . S
H2847 C2859 0.929 . S
H2848 C2862 0.930 . S
H2849 C2864 0.960 . S
H2850 C2864 0.960 . S
H2851 C2864 0.960 . S
C2852 H2844 0.929 . S
C2852 C2853 1.377 . S
C2852 C2854 1.384 . S
C2853 C2852 1.377 . S
C2853 C2859 1.390 . S
C2854 H2845 0.930 . S
C2854 C2852 1.384 . S
C2854 C2855 1.372 . S
C2855 C2854 1.372 . S
C2855 C2856 1.400 . S
C2855 C2860 1.490 . S
C2856 H2846 0.930 . S
C2856 C2855 1.400 . S
C2856 C2859 1.386 . S
H2857 C2873 0.930 . S
H2858 C2874 0.931 . S
C2859 H2847 0.929 . S
C2859 C2853 1.390 . S
C2859 C2856 1.386 . S
C2860 C2855 1.490 . S
C2860 C2862 1.395 . S
C2860 C2863 1.403 . S
H2861 C2867 0.930 . S
C2862 H2848 0.930 . S
C2862 C2860 1.395 . S
C2862 C2865 1.403 . S
C2863 C2860 1.403 . S
C2863 C2864 1.524 . S
C2863 C2867 1.400 . S
C2864 H2849 0.960 . S
C2864 H2850 0.960 . S
C2864 H2851 0.960 . S
C2864 C2863 1.524 . S
C2865 C2862 1.403 . S
C2865 C2866 1.392 . S
C2865 C2869 1.495 . S
C2866 C2865 1.392 . S
C2866 C2867 1.385 . S
C2866 C2868 1.478 . S
C2867 H2861 0.930 . S
C2867 C2863 1.400 . S
C2867 C2866 1.385 . S
C2868 C2866 1.478 . S
C2868 C2870 1.381 . S
C2868 C2874 1.383 . S
C2869 C2865 1.495 . S
C2869 H2875 0.959 . S
C2869 H2876 0.961 . S
C2869 H2877 0.960 . S
C2870 C2868 1.381 . S
C2870 C2871 1.394 . S
C2870 H2878 0.930 . S
C2871 C2870 1.394 . S
C2871 C2872 1.383 . S
C2871 H2879 0.929 . S
C2872 C2871 1.383 . S
C2872 C2873 1.377 . S
C2873 H2857 0.930 . S
C2873 C2872 1.377 . S
C2873 C2874 1.379 . S
C2874 H2858 0.931 . S
C2874 C2868 1.383 . S
C2874 C2873 1.379 . S
H2875 C2869 0.959 . S
H2876 C2869 0.961 . S
H2877 C2869 0.960 . S
H2878 C2870 0.930 . S
H2879 C2871 0.929 . S
H2880 C2888 0.929 . S
H2881 C2890 0.930 . S
H2882 C2892 0.930 . S
H2883 C2895 0.929 . S
H2884 C2898 0.930 . S
H2885 C2900 0.960 . S
H2886 C2900 0.960 . S
H2887 C2900 0.960 . S
C2888 H2880 0.929 . S
C2888 C2889 1.377 . S
C2888 C2890 1.384 . S
C2889 C2888 1.377 . S
C2889 C2895 1.390 . S
C2890 H2881 0.930 . S
C2890 C2888 1.384 . S
C2890 C2891 1.372 . S
C2891 C2890 1.372 . S
C2891 C2892 1.400 . S
C2891 C2896 1.490 . S
C2892 H2882 0.930 . S
C2892 C2891 1.400 . S
C2892 C2895 1.386 . S
H2893 C2909 0.930 . S
H2894 C2910 0.931 . S
C2895 H2883 0.929 . S
C2895 C2889 1.390 . S
C2895 C2892 1.386 . S
C2896 C2891 1.490 . S
C2896 C2898 1.395 . S
C2896 C2899 1.403 . S
H2897 C2903 0.930 . S
C2898 H2884 0.930 . S
C2898 C2896 1.395 . S
C2898 C2901 1.403 . S
C2899 C2896 1.403 . S
C2899 C2900 1.524 . S
C2899 C2903 1.400 . S
C2900 H2885 0.960 . S
C2900 H2886 0.960 . S
C2900 H2887 0.960 . S
C2900 C2899 1.524 . S
C2901 C2898 1.403 . S
C2901 C2902 1.392 . S
C2901 C2905 1.495 . S
C2902 C2901 1.392 . S
C2902 C2903 1.385 . S
C2902 C2904 1.478 . S
C2903 H2897 0.930 . S
C2903 C2899 1.400 . S
C2903 C2902 1.385 . S
C2904 C2902 1.478 . S
C2904 C2906 1.381 . S
C2904 C2910 1.383 . S
C2905 C2901 1.495 . S
C2905 H2911 0.959 . S
C2905 H2912 0.961 . S
C2905 H2913 0.960 . S
C2906 C2904 1.381 . S
C2906 C2907 1.394 . S
C2906 H2914 0.930 . S
C2907 C2906 1.394 . S
C2907 C2908 1.383 . S
C2907 H2915 0.929 . S
C2908 C2907 1.383 . S
C2908 C2909 1.377 . S
C2909 H2893 0.930 . S
C2909 C2908 1.377 . S
C2909 C2910 1.379 . S
C2910 H2894 0.931 . S
C2910 C2904 1.383 . S
C2910 C2909 1.379 . S
H2911 C2905 0.959 . S
H2912 C2905 0.961 . S
H2913 C2905 0.960 . S
H2914 C2906 0.930 . S
H2915 C2907 0.929 . S
H2916 C2924 0.929 . S
H2917 C2926 0.930 . S
H2918 C2928 0.930 . S
H2919 C2931 0.929 . S
H2920 C2934 0.930 . S
H2921 C2936 0.960 . S
H2922 C2936 0.960 . S
H2923 C2936 0.960 . S
C2924 H2916 0.929 . S
C2924 C2925 1.377 . S
C2924 C2926 1.384 . S
C2925 C2924 1.377 . S
C2925 C2931 1.390 . S
C2926 H2917 0.930 . S
C2926 C2924 1.384 . S
C2926 C2927 1.372 . S
C2927 C2926 1.372 . S
C2927 C2928 1.400 . S
C2927 C2932 1.490 . S
C2928 H2918 0.930 . S
C2928 C2927 1.400 . S
C2928 C2931 1.386 . S
H2929 C2945 0.930 . S
H2930 C2946 0.931 . S
C2931 H2919 0.929 . S
C2931 C2925 1.390 . S
C2931 C2928 1.386 . S
C2932 C2927 1.490 . S
C2932 C2934 1.395 . S
C2932 C2935 1.403 . S
H2933 C2939 0.930 . S
C2934 H2920 0.930 . S
C2934 C2932 1.395 . S
C2934 C2937 1.403 . S
C2935 C2932 1.403 . S
C2935 C2936 1.524 . S
C2935 C2939 1.400 . S
C2936 H2921 0.960 . S
C2936 H2922 0.960 . S
C2936 H2923 0.960 . S
C2936 C2935 1.524 . S
C2937 C2934 1.403 . S
C2937 C2938 1.392 . S
C2937 C2941 1.495 . S
C2938 C2937 1.392 . S
C2938 C2939 1.385 . S
C2938 C2940 1.478 . S
C2939 H2933 0.930 . S
C2939 C2935 1.400 . S
C2939 C2938 1.385 . S
C2940 C2938 1.478 . S
C2940 C2942 1.381 . S
C2940 C2946 1.383 . S
C2941 C2937 1.495 . S
C2941 H2947 0.959 . S
C2941 H2948 0.961 . S
C2941 H2949 0.960 . S
C2942 C2940 1.381 . S
C2942 C2943 1.394 . S
C2942 H2950 0.930 . S
C2943 C2942 1.394 . S
C2943 C2944 1.383 . S
C2943 H2951 0.929 . S
C2944 C2943 1.383 . S
C2944 C2945 1.377 . S
C2945 H2929 0.930 . S
C2945 C2944 1.377 . S
C2945 C2946 1.379 . S
C2946 H2930 0.931 . S
C2946 C2940 1.383 . S
C2946 C2945 1.379 . S
H2947 C2941 0.959 . S
H2948 C2941 0.961 . S
H2949 C2941 0.960 . S
H2950 C2942 0.930 . S
H2951 C2943 0.929 . S
H2952 C2960 0.929 . S
H2953 C2962 0.930 . S
H2954 C2964 0.930 . S
H2955 C2967 0.929 . S
H2956 C2970 0.930 . S
H2957 C2972 0.960 . S
H2958 C2972 0.960 . S
H2959 C2972 0.960 . S
C2960 H2952 0.929 . S
C2960 C2961 1.377 . S
C2960 C2962 1.384 . S
C2961 C2960 1.377 . S
C2961 C2967 1.390 . S
C2962 H2953 0.930 . S
C2962 C2960 1.384 . S
C2962 C2963 1.372 . S
C2963 C2962 1.372 . S
C2963 C2964 1.400 . S
C2963 C2968 1.490 . S
C2964 H2954 0.930 . S
C2964 C2963 1.400 . S
C2964 C2967 1.386 . S
H2965 C2981 0.930 . S
H2966 C2982 0.931 . S
C2967 H2955 0.929 . S
C2967 C2961 1.390 . S
C2967 C2964 1.386 . S
C2968 C2963 1.490 . S
C2968 C2970 1.395 . S
C2968 C2971 1.403 . S
H2969 C2975 0.930 . S
C2970 H2956 0.930 . S
C2970 C2968 1.395 . S
C2970 C2973 1.403 . S
C2971 C2968 1.403 . S
C2971 C2972 1.524 . S
C2971 C2975 1.400 . S
C2972 H2957 0.960 . S
C2972 H2958 0.960 . S
C2972 H2959 0.960 . S
C2972 C2971 1.524 . S
C2973 C2970 1.403 . S
C2973 C2974 1.392 . S
C2973 C2977 1.495 . S
C2974 C2973 1.392 . S
C2974 C2975 1.385 . S
C2974 C2976 1.478 . S
C2975 H2969 0.930 . S
C2975 C2971 1.400 . S
C2975 C2974 1.385 . S
C2976 C2974 1.478 . S
C2976 C2978 1.381 . S
C2976 C2982 1.383 . S
C2977 C2973 1.495 . S
C2977 H2983 0.959 . S
C2977 H2984 0.961 . S
C2977 H2985 0.960 . S
C2978 C2976 1.381 . S
C2978 C2979 1.394 . S
C2978 H2986 0.930 . S
C2979 C2978 1.394 . S
C2979 C2980 1.383 . S
C2979 H2987 0.929 . S
C2980 C2979 1.383 . S
C2980 C2981 1.377 . S
C2981 H2965 0.930 . S
C2981 C2980 1.377 . S
C2981 C2982 1.379 . S
C2982 H2966 0.931 . S
C2982 C2976 1.383 . S
C2982 C2981 1.379 . S
H2983 C2977 0.959 . S
H2984 C2977 0.961 . S
H2985 C2977 0.960 . S
H2986 C2978 0.930 . S
H2987 C2979 0.929 . S
H2988 C2996 0.929 . S
H2989 C2998 0.930 . S
H2990 C3000 0.930 . S
H2991 C3003 0.929 . S
H2992 C3006 0.930 . S
H2993 C3008 0.960 . S
H2994 C3008 0.960 . S
H2995 C3008 0.960 . S
C2996 H2988 0.929 . S
C2996 C2997 1.377 . S
C2996 C2998 1.384 . S
C2997 C2996 1.377 . S
C2997 C3003 1.390 . S
C2998 H2989 0.930 . S
C2998 C2996 1.384 . S
C2998 C2999 1.372 . S
C2999 C2998 1.372 . S
C2999 C3000 1.400 . S
C2999 C3004 1.490 . S
C3000 H2990 0.930 . S
C3000 C2999 1.400 . S
C3000 C3003 1.386 . S
H3001 C3017 0.930 . S
H3002 C3018 0.931 . S
C3003 H2991 0.929 . S
C3003 C2997 1.390 . S
C3003 C3000 1.386 . S
C3004 C2999 1.490 . S
C3004 C3006 1.395 . S
C3004 C3007 1.403 . S
H3005 C3011 0.930 . S
C3006 H2992 0.930 . S
C3006 C3004 1.395 . S
C3006 C3009 1.403 . S
C3007 C3004 1.403 . S
C3007 C3008 1.524 . S
C3007 C3011 1.400 . S
C3008 H2993 0.960 . S
C3008 H2994 0.960 . S
C3008 H2995 0.960 . S
C3008 C3007 1.524 . S
C3009 C3006 1.403 . S
C3009 C3010 1.392 . S
C3009 C3013 1.495 . S
C3010 C3009 1.392 . S
C3010 C3011 1.385 . S
C3010 C3012 1.478 . S
C3011 H3005 0.930 . S
C3011 C3007 1.400 . S
C3011 C3010 1.385 . S
C3012 C3010 1.478 . S
C3012 C3014 1.381 . S
C3012 C3018 1.383 . S
C3013 C3009 1.495 . S
C3013 H3019 0.959 . S
C3013 H3020 0.961 . S
C3013 H3021 0.960 . S
C3014 C3012 1.381 . S
C3014 C3015 1.394 . S
C3014 H3022 0.930 . S
C3015 C3014 1.394 . S
C3015 C3016 1.383 . S
C3015 H3023 0.929 . S
C3016 C3015 1.383 . S
C3016 C3017 1.377 . S
C3017 H3001 0.930 . S
C3017 C3016 1.377 . S
C3017 C3018 1.379 . S
C3018 H3002 0.931 . S
C3018 C3012 1.383 . S
C3018 C3017 1.379 . S
H3019 C3013 0.959 . S
H3020 C3013 0.961 . S
H3021 C3013 0.960 . S
H3022 C3014 0.930 . S
H3023 C3015 0.929 . S
H3024 C3032 0.929 . S
H3025 C3034 0.930 . S
H3026 C3036 0.930 . S
H3027 C3039 0.929 . S
H3028 C3042 0.930 . S
H3029 C3044 0.960 . S
H3030 C3044 0.960 . S
H3031 C3044 0.960 . S
C3032 H3024 0.929 . S
C3032 C3033 1.377 . S
C3032 C3034 1.384 . S
C3033 C3032 1.377 . S
C3033 C3039 1.390 . S
C3034 H3025 0.930 . S
C3034 C3032 1.384 . S
C3034 C3035 1.372 . S
C3035 C3034 1.372 . S
C3035 C3036 1.400 . S
C3035 C3040 1.490 . S
C3036 H3026 0.930 . S
C3036 C3035 1.400 . S
C3036 C3039 1.386 . S
H3037 C3053 0.930 . S
H3038 C3054 0.931 . S
C3039 H3027 0.929 . S
C3039 C3033 1.390 . S
C3039 C3036 1.386 . S
C3040 C3035 1.490 . S
C3040 C3042 1.395 . S
C3040 C3043 1.403 . S
H3041 C3047 0.930 . S
C3042 H3028 0.930 . S
C3042 C3040 1.395 . S
C3042 C3045 1.403 . S
C3043 C3040 1.403 . S
C3043 C3044 1.524 . S
C3043 C3047 1.400 . S
C3044 H3029 0.960 . S
C3044 H3030 0.960 . S
C3044 H3031 0.960 . S
C3044 C3043 1.524 . S
C3045 C3042 1.403 . S
C3045 C3046 1.392 . S
C3045 C3049 1.495 . S
C3046 C3045 1.392 . S
C3046 C3047 1.385 . S
C3046 C3048 1.478 . S
C3047 H3041 0.930 . S
C3047 C3043 1.400 . S
C3047 C3046 1.385 . S
C3048 C3046 1.478 . S
C3048 C3050 1.381 . S
C3048 C3054 1.383 . S
C3049 C3045 1.495 . S
C3049 H3055 0.959 . S
C3049 H3056 0.961 . S
C3049 H3057 0.960 . S
C3050 C3048 1.381 . S
C3050 C3051 1.394 . S
C3050 H3058 0.930 . S
C3051 C3050 1.394 . S
C3051 C3052 1.383 . S
C3051 H3059 0.929 . S
C3052 C3051 1.383 . S
C3052 C3053 1.377 . S
C3053 H3037 0.930 . S
C3053 C3052 1.377 . S
C3053 C3054 1.379 . S
C3054 H3038 0.931 . S
C3054 C3048 1.383 . S
C3054 C3053 1.379 . S
H3055 C3049 0.959 . S
H3056 C3049 0.961 . S
H3057 C3049 0.960 . S
H3058 C3050 0.930 . S
H3059 C3051 0.929 . S
H3060 C3068 0.929 . S
H3061 C3070 0.930 . S
H3062 C3072 0.930 . S
H3063 C3075 0.929 . S
H3064 C3078 0.930 . S
H3065 C3080 0.960 . S
H3066 C3080 0.960 . S
H3067 C3080 0.960 . S
C3068 H3060 0.929 . S
C3068 C3069 1.377 . S
C3068 C3070 1.384 . S
C3069 C3068 1.377 . S
C3069 C3075 1.390 . S
C3070 H3061 0.930 . S
C3070 C3068 1.384 . S
C3070 C3071 1.372 . S
C3071 C3070 1.372 . S
C3071 C3072 1.400 . S
C3071 C3076 1.490 . S
C3072 H3062 0.930 . S
C3072 C3071 1.400 . S
C3072 C3075 1.386 . S
H3073 C3089 0.930 . S
H3074 C3090 0.931 . S
C3075 H3063 0.929 . S
C3075 C3069 1.390 . S
C3075 C3072 1.386 . S
C3076 C3071 1.490 . S
C3076 C3078 1.395 . S
C3076 C3079 1.403 . S
H3077 C3083 0.930 . S
C3078 H3064 0.930 . S
C3078 C3076 1.395 . S
C3078 C3081 1.403 . S
C3079 C3076 1.403 . S
C3079 C3080 1.524 . S
C3079 C3083 1.400 . S
C3080 H3065 0.960 . S
C3080 H3066 0.960 . S
C3080 H3067 0.960 . S
C3080 C3079 1.524 . S
C3081 C3078 1.403 . S
C3081 C3082 1.392 . S
C3081 C3085 1.495 . S
C3082 C3081 1.392 . S
C3082 C3083 1.385 . S
C3082 C3084 1.478 . S
C3083 H3077 0.930 . S
C3083 C3079 1.400 . S
C3083 C3082 1.385 . S
C3084 C3082 1.478 . S
C3084 C3086 1.381 . S
C3084 C3090 1.383 . S
C3085 C3081 1.495 . S
C3085 H3091 0.959 . S
C3085 H3092 0.961 . S
C3085 H3093 0.960 . S
C3086 C3084 1.381 . S
C3086 C3087 1.394 . S
C3086 H3094 0.930 . S
C3087 C3086 1.394 . S
C3087 C3088 1.383 . S
C3087 H3095 0.929 . S
C3088 C3087 1.383 . S
C3088 C3089 1.377 . S
C3089 H3073 0.930 . S
C3089 C3088 1.377 . S
C3089 C3090 1.379 . S
C3090 H3074 0.931 . S
C3090 C3084 1.383 . S
C3090 C3089 1.379 . S
H3091 C3085 0.959 . S
H3092 C3085 0.961 . S
H3093 C3085 0.960 . S
H3094 C3086 0.930 . S
H3095 C3087 0.929 . S
H3096 C3104 0.929 . S
H3097 C3106 0.930 . S
H3098 C3108 0.930 . S
H3099 C3111 0.929 . S
H3100 C3114 0.930 . S
H3101 C3116 0.960 . S
H3102 C3116 0.960 . S
H3103 C3116 0.960 . S
C3104 H3096 0.929 . S
C3104 C3105 1.377 . S
C3104 C3106 1.384 . S
C3105 C3104 1.377 . S
C3105 C3111 1.390 . S
C3106 H3097 0.930 . S
C3106 C3104 1.384 . S
C3106 C3107 1.372 . S
C3107 C3106 1.372 . S
C3107 C3108 1.400 . S
C3107 C3112 1.490 . S
C3108 H3098 0.930 . S
C3108 C3107 1.400 . S
C3108 C3111 1.386 . S
H3109 C3125 0.930 . S
H3110 C3126 0.931 . S
C3111 H3099 0.929 . S
C3111 C3105 1.390 . S
C3111 C3108 1.386 . S
C3112 C3107 1.490 . S
C3112 C3114 1.395 . S
C3112 C3115 1.403 . S
H3113 C3119 0.930 . S
C3114 H3100 0.930 . S
C3114 C3112 1.395 . S
C3114 C3117 1.403 . S
C3115 C3112 1.403 . S
C3115 C3116 1.524 . S
C3115 C3119 1.400 . S
C3116 H3101 0.960 . S
C3116 H3102 0.960 . S
C3116 H3103 0.960 . S
C3116 C3115 1.524 . S
C3117 C3114 1.403 . S
C3117 C3118 1.392 . S
C3117 C3121 1.495 . S
C3118 C3117 1.392 . S
C3118 C3119 1.385 . S
C3118 C3120 1.478 . S
C3119 H3113 0.930 . S
C3119 C3115 1.400 . S
C3119 C3118 1.385 . S
C3120 C3118 1.478 . S
C3120 C3122 1.381 . S
C3120 C3126 1.383 . S
C3121 C3117 1.495 . S
C3121 H3127 0.959 . S
C3121 H3128 0.961 . S
C3121 H3129 0.960 . S
C3122 C3120 1.381 . S
C3122 C3123 1.394 . S
C3122 H3130 0.930 . S
C3123 C3122 1.394 . S
C3123 C3124 1.383 . S
C3123 H3131 0.929 . S
C3124 C3123 1.383 . S
C3124 C3125 1.377 . S
C3125 H3109 0.930 . S
C3125 C3124 1.377 . S
C3125 C3126 1.379 . S
C3126 H3110 0.931 . S
C3126 C3120 1.383 . S
C3126 C3125 1.379 . S
H3127 C3121 0.959 . S
H3128 C3121 0.961 . S
H3129 C3121 0.960 . S
H3130 C3122 0.930 . S
H3131 C3123 0.929 . S
H3132 C3140 0.929 . S
H3133 C3142 0.930 . S
H3134 C3144 0.930 . S
H3135 C3147 0.929 . S
H3136 C3150 0.930 . S
H3137 C3152 0.960 . S
H3138 C3152 0.960 . S
H3139 C3152 0.960 . S
C3140 H3132 0.929 . S
C3140 C3141 1.377 . S
C3140 C3142 1.384 . S
C3141 C3140 1.377 . S
C3141 C3147 1.390 . S
C3142 H3133 0.930 . S
C3142 C3140 1.384 . S
C3142 C3143 1.372 . S
C3143 C3142 1.372 . S
C3143 C3144 1.400 . S
C3143 C3148 1.490 . S
C3144 H3134 0.930 . S
C3144 C3143 1.400 . S
C3144 C3147 1.386 . S
H3145 C3161 0.930 . S
H3146 C3162 0.931 . S
C3147 H3135 0.929 . S
C3147 C3141 1.390 . S
C3147 C3144 1.386 . S
C3148 C3143 1.490 . S
C3148 C3150 1.395 . S
C3148 C3151 1.403 . S
H3149 C3155 0.930 . S
C3150 H3136 0.930 . S
C3150 C3148 1.395 . S
C3150 C3153 1.403 . S
C3151 C3148 1.403 . S
C3151 C3152 1.524 . S
C3151 C3155 1.400 . S
C3152 H3137 0.960 . S
C3152 H3138 0.960 . S
C3152 H3139 0.960 . S
C3152 C3151 1.524 . S
C3153 C3150 1.403 . S
C3153 C3154 1.392 . S
C3153 C3157 1.495 . S
C3154 C3153 1.392 . S
C3154 C3155 1.385 . S
C3154 C3156 1.478 . S
C3155 H3149 0.930 . S
C3155 C3151 1.400 . S
C3155 C3154 1.385 . S
C3156 C3154 1.478 . S
C3156 C3158 1.381 . S
C3156 C3162 1.383 . S
C3157 C3153 1.495 . S
C3157 H3163 0.959 . S
C3157 H3164 0.961 . S
C3157 H3165 0.960 . S
C3158 C3156 1.381 . S
C3158 C3159 1.394 . S
C3158 H3166 0.930 . S
C3159 C3158 1.394 . S
C3159 C3160 1.383 1_655 S
C3159 H3167 0.929 1_655 S
C3160 C3159 1.383 1_455 S
C3160 C3161 1.377 1_455 S
C3161 H3145 0.930 . S
C3161 C3160 1.377 1_655 S
C3161 C3162 1.379 . S
C3162 H3146 0.931 . S
C3162 C3156 1.383 . S
C3162 C3161 1.379 . S
H3163 C3157 0.959 . S
H3164 C3157 0.961 . S
H3165 C3157 0.960 . S
H3166 C3158 0.930 . S
H3167 C3159 0.929 1_455 S
H3168 C3176 0.929 . S
H3169 C3178 0.930 . S
H3170 C3180 0.930 . S
H3171 C3183 0.929 . S
H3172 C3186 0.930 . S
H3173 C3188 0.960 . S
H3174 C3188 0.960 . S
H3175 C3188 0.960 1_565 S
C3176 H3168 0.929 . S
C3176 C3177 1.377 . S
C3176 C3178 1.384 1_565 S
C3177 C3176 1.377 . S
C3177 C3183 1.390 . S
C3178 H3169 0.930 . S
C3178 C3176 1.384 1_545 S
C3178 C3179 1.372 . S
C3179 C3178 1.372 . S
C3179 C3180 1.400 1_545 S
C3179 C3184 1.490 . S
C3180 H3170 0.930 . S
C3180 C3179 1.400 1_565 S
C3180 C3183 1.386 . S
H3181 C3197 0.930 . S
H3182 C3198 0.931 . S
C3183 H3171 0.929 . S
C3183 C3177 1.390 . S
C3183 C3180 1.386 . S
C3184 C3179 1.490 . S
C3184 C3186 1.395 . S
C3184 C3187 1.403 . S
H3185 C3191 0.930 . S
C3186 H3172 0.930 . S
C3186 C3184 1.395 . S
C3186 C3189 1.403 . S
C3187 C3184 1.403 . S
C3187 C3188 1.524 . S
C3187 C3191 1.400 . S
C3188 H3173 0.960 . S
C3188 H3174 0.960 . S
C3188 H3175 0.960 1_545 S
C3188 C3187 1.524 . S
C3189 C3186 1.403 . S
C3189 C3190 1.392 . S
C3189 C3193 1.495 . S
C3190 C3189 1.392 . S
C3190 C3191 1.385 . S
C3190 C3192 1.478 . S
C3191 H3185 0.930 . S
C3191 C3187 1.400 . S
C3191 C3190 1.385 . S
C3192 C3190 1.478 . S
C3192 C3194 1.381 . S
C3192 C3198 1.383 . S
C3193 C3189 1.495 . S
C3193 H3199 0.959 . S
C3193 H3200 0.961 . S
C3193 H3201 0.960 . S
C3194 C3192 1.381 . S
C3194 C3195 1.394 . S
C3194 H3202 0.930 . S
C3195 C3194 1.394 . S
C3195 C3196 1.383 . S
C3195 H3203 0.929 . S
C3196 C3195 1.383 . S
C3196 C3197 1.377 . S
C3197 H3181 0.930 . S
C3197 C3196 1.377 . S
C3197 C3198 1.379 . S
C3198 H3182 0.931 . S
C3198 C3192 1.383 . S
C3198 C3197 1.379 . S
H3199 C3193 0.959 . S
H3200 C3193 0.961 . S
H3201 C3193 0.960 . S
H3202 C3194 0.930 . S
H3203 C3195 0.929 . S
H3204 C3212 0.929 . S
H3205 C3214 0.930 . S
H3206 C3216 0.930 . S
H3207 C3219 0.929 . S
H3208 C3222 0.930 . S
H3209 C3224 0.960 1_455 S
H3210 C3224 0.960 . S
H3211 C3224 0.960 . S
C3212 H3204 0.929 . S
C3212 C3213 1.377 . S
C3212 C3214 1.384 . S
C3213 C3212 1.377 . S
C3213 C3219 1.390 . S
C3214 H3205 0.930 . S
C3214 C3212 1.384 . S
C3214 C3215 1.372 . S
C3215 C3214 1.372 . S
C3215 C3216 1.400 . S
C3215 C3220 1.490 . S
C3216 H3206 0.930 . S
C3216 C3215 1.400 . S
C3216 C3219 1.386 . S
H3217 C3233 0.930 . S
H3218 C3234 0.931 . S
C3219 H3207 0.929 . S
C3219 C3213 1.390 . S
C3219 C3216 1.386 . S
C3220 C3215 1.490 . S
C3220 C3222 1.395 . S
C3220 C3223 1.403 . S
H3221 C3227 0.930 . S
C3222 H3208 0.930 . S
C3222 C3220 1.395 . S
C3222 C3225 1.403 . S
C3223 C3220 1.403 . S
C3223 C3224 1.524 . S
C3223 C3227 1.400 1_655 S
C3224 H3209 0.960 1_655 S
C3224 H3210 0.960 . S
C3224 H3211 0.960 . S
C3224 C3223 1.524 . S
C3225 C3222 1.403 . S
C3225 C3226 1.392 1_655 S
C3225 C3229 1.495 . S
C3226 C3225 1.392 1_455 S
C3226 C3227 1.385 . S
C3226 C3228 1.478 . S
C3227 H3221 0.930 . S
C3227 C3223 1.400 1_455 S
C3227 C3226 1.385 . S
C3228 C3226 1.478 . S
C3228 C3230 1.381 . S
C3228 C3234 1.383 . S
C3229 C3225 1.495 . S
C3229 H3235 0.959 . S
C3229 H3236 0.961 . S
C3229 H3237 0.960 . S
C3230 C3228 1.381 . S
C3230 C3231 1.394 . S
C3230 H3238 0.930 . S
C3231 C3230 1.394 . S
C3231 C3232 1.383 . S
C3231 H3239 0.929 . S
C3232 C3231 1.383 . S
C3232 C3233 1.377 . S
C3233 H3217 0.930 . S
C3233 C3232 1.377 . S
C3233 C3234 1.379 . S
C3234 H3218 0.931 . S
C3234 C3228 1.383 . S
C3234 C3233 1.379 . S
H3235 C3229 0.959 . S
H3236 C3229 0.961 . S
H3237 C3229 0.960 . S
H3238 C3230 0.930 . S
H3239 C3231 0.929 . S
H3240 C3248 0.929 . S
H3241 C3250 0.930 . S
H3242 C3252 0.930 . S
H3243 C3255 0.929 . S
H3244 C3258 0.930 . S
H3245 C3260 0.960 . S
H3246 C3260 0.960 . S
H3247 C3260 0.960 . S
C3248 H3240 0.929 . S
C3248 C3249 1.377 . S
C3248 C3250 1.384 . S
C3249 C3248 1.377 . S
C3249 C3255 1.390 . S
C3250 H3241 0.930 . S
C3250 C3248 1.384 . S
C3250 C3251 1.372 . S
C3251 C3250 1.372 . S
C3251 C3252 1.400 . S
C3251 C3256 1.490 . S
C3252 H3242 0.930 . S
C3252 C3251 1.400 . S
C3252 C3255 1.386 . S
H3253 C3269 0.930 . S
H3254 C3270 0.931 . S
C3255 H3243 0.929 . S
C3255 C3249 1.390 . S
C3255 C3252 1.386 . S
C3256 C3251 1.490 . S
C3256 C3258 1.395 . S
C3256 C3259 1.403 . S
H3257 C3263 0.930 . S
C3258 H3244 0.930 . S
C3258 C3256 1.395 . S
C3258 C3261 1.403 . S
C3259 C3256 1.403 . S
C3259 C3260 1.524 . S
C3259 C3263 1.400 . S
C3260 H3245 0.960 . S
C3260 H3246 0.960 . S
C3260 H3247 0.960 . S
C3260 C3259 1.524 . S
C3261 C3258 1.403 . S
C3261 C3262 1.392 . S
C3261 C3265 1.495 . S
C3262 C3261 1.392 . S
C3262 C3263 1.385 . S
C3262 C3264 1.478 . S
C3263 H3257 0.930 . S
C3263 C3259 1.400 . S
C3263 C3262 1.385 . S
C3264 C3262 1.478 . S
C3264 C3266 1.381 . S
C3264 C3270 1.383 . S
C3265 C3261 1.495 . S
C3265 H3271 0.959 . S
C3265 H3272 0.961 . S
C3265 H3273 0.960 . S
C3266 C3264 1.381 . S
C3266 C3267 1.394 1_565 S
C3266 H3274 0.930 . S
C3267 C3266 1.394 1_545 S
C3267 C3268 1.383 . S
C3267 H3275 0.929 . S
C3268 C3267 1.383 . S
C3268 C3269 1.377 1_545 S
C3269 H3253 0.930 . S
C3269 C3268 1.377 1_565 S
C3269 C3270 1.379 . S
C3270 H3254 0.931 . S
C3270 C3264 1.383 . S
C3270 C3269 1.379 . S
H3271 C3265 0.959 . S
H3272 C3265 0.961 . S
H3273 C3265 0.960 . S
H3274 C3266 0.930 . S
H3275 C3267 0.929 . S
H3276 C3284 0.929 . S
H3277 C3286 0.930 . S
H3278 C3288 0.930 . S
H3279 C3291 0.929 . S
H3280 C3294 0.930 . S
H3281 C3296 0.960 . S
H3282 C3296 0.960 . S
H3283 C3296 0.960 . S
C3284 H3276 0.929 . S
C3284 C3285 1.377 . S
C3284 C3286 1.384 . S
C3285 C3284 1.377 . S
C3285 C3291 1.390 . S
C3286 H3277 0.930 . S
C3286 C3284 1.384 . S
C3286 C3287 1.372 . S
C3287 C3286 1.372 . S
C3287 C3288 1.400 . S
C3287 C3292 1.490 . S
C3288 H3278 0.930 . S
C3288 C3287 1.400 . S
C3288 C3291 1.386 . S
H3289 C3305 0.930 . S
H3290 C3306 0.931 . S
C3291 H3279 0.929 . S
C3291 C3285 1.390 . S
C3291 C3288 1.386 . S
C3292 C3287 1.490 . S
C3292 C3294 1.395 1_545 S
C3292 C3295 1.403 . S
H3293 C3299 0.930 . S
C3294 H3280 0.930 . S
C3294 C3292 1.395 1_565 S
C3294 C3297 1.403 . S
C3295 C3292 1.403 . S
C3295 C3296 1.524 . S
C3295 C3299 1.400 1_545 S
C3296 H3281 0.960 . S
C3296 H3282 0.960 . S
C3296 H3283 0.960 . S
C3296 C3295 1.524 . S
C3297 C3294 1.403 . S
C3297 C3298 1.392 . S
C3297 C3301 1.495 . S
C3298 C3297 1.392 . S
C3298 C3299 1.385 . S
C3298 C3300 1.478 . S
C3299 H3293 0.930 . S
C3299 C3295 1.400 1_565 S
C3299 C3298 1.385 . S
C3300 C3298 1.478 . S
C3300 C3302 1.381 . S
C3300 C3306 1.383 . S
C3301 C3297 1.495 . S
C3301 H3307 0.959 . S
C3301 H3308 0.961 . S
C3301 H3309 0.960 . S
C3302 C3300 1.381 . S
C3302 C3303 1.394 . S
C3302 H3310 0.930 . S
C3303 C3302 1.394 . S
C3303 C3304 1.383 . S
C3303 H3311 0.929 . S
C3304 C3303 1.383 . S
C3304 C3305 1.377 . S
C3305 H3289 0.930 . S
C3305 C3304 1.377 . S
C3305 C3306 1.379 . S
C3306 H3290 0.931 . S
C3306 C3300 1.383 . S
C3306 C3305 1.379 . S
H3307 C3301 0.959 . S
H3308 C3301 0.961 . S
H3309 C3301 0.960 . S
H3310 C3302 0.930 . S
H3311 C3303 0.929 . S
H3312 C3320 0.929 . S
H3313 C3322 0.930 . S
H3314 C3324 0.930 . S
H3315 C3327 0.929 . S
H3316 C3330 0.930 . S
H3317 C3332 0.960 . S
H3318 C3332 0.960 . S
H3319 C3332 0.960 . S
C3320 H3312 0.929 . S
C3320 C3321 1.377 . S
C3320 C3322 1.384 . S
C3321 C3320 1.377 . S
C3321 C3327 1.390 . S
C3322 H3313 0.930 . S
C3322 C3320 1.384 . S
C3322 C3323 1.372 . S
C3323 C3322 1.372 . S
C3323 C3324 1.400 . S
C3323 C3328 1.490 . S
C3324 H3314 0.930 . S
C3324 C3323 1.400 . S
C3324 C3327 1.386 . S
H3325 C3341 0.930 . S
H3326 C3342 0.931 . S
C3327 H3315 0.929 . S
C3327 C3321 1.390 . S
C3327 C3324 1.386 . S
C3328 C3323 1.490 . S
C3328 C3330 1.395 . S
C3328 C3331 1.403 . S
H3329 C3335 0.930 . S
C3330 H3316 0.930 . S
C3330 C3328 1.395 . S
C3330 C3333 1.403 . S
C3331 C3328 1.403 . S
C3331 C3332 1.524 . S
C3331 C3335 1.400 . S
C3332 H3317 0.960 . S
C3332 H3318 0.960 . S
C3332 H3319 0.960 . S
C3332 C3331 1.524 . S
C3333 C3330 1.403 . S
C3333 C3334 1.392 . S
C3333 C3337 1.495 . S
C3334 C3333 1.392 . S
C3334 C3335 1.385 . S
C3334 C3336 1.478 . S
C3335 H3329 0.930 . S
C3335 C3331 1.400 . S
C3335 C3334 1.385 . S
C3336 C3334 1.478 . S
C3336 C3338 1.381 . S
C3336 C3342 1.383 1_455 S
C3337 C3333 1.495 . S
C3337 H3343 0.959 . S
C3337 H3344 0.961 . S
C3337 H3345 0.960 . S
C3338 C3336 1.381 . S
C3338 C3339 1.394 1_455 S
C3338 H3346 0.930 . S
C3339 C3338 1.394 1_655 S
C3339 C3340 1.383 . S
C3339 H3347 0.929 . S
C3340 C3339 1.383 . S
C3340 C3341 1.377 . S
C3341 H3325 0.930 . S
C3341 C3340 1.377 . S
C3341 C3342 1.379 . S
C3342 H3326 0.931 . S
C3342 C3336 1.383 1_655 S
C3342 C3341 1.379 . S
H3343 C3337 0.959 . S
H3344 C3337 0.961 . S
H3345 C3337 0.960 . S
H3346 C3338 0.930 . S
H3347 C3339 0.929 . S
H3348 C3356 0.929 . S
H3349 C3358 0.930 . S
H3350 C3360 0.930 . S
H3351 C3363 0.929 . S
H3352 C3366 0.930 . S
H3353 C3368 0.960 . S
H3354 C3368 0.960 . S
H3355 C3368 0.960 . S
C3356 H3348 0.929 . S
C3356 C3357 1.377 . S
C3356 C3358 1.384 . S
C3357 C3356 1.377 . S
C3357 C3363 1.390 . S
C3358 H3349 0.930 . S
C3358 C3356 1.384 . S
C3358 C3359 1.372 . S
C3359 C3358 1.372 . S
C3359 C3360 1.400 . S
C3359 C3364 1.490 . S
C3360 H3350 0.930 . S
C3360 C3359 1.400 . S
C3360 C3363 1.386 . S
H3361 C3377 0.930 . S
H3362 C3378 0.931 . S
C3363 H3351 0.929 . S
C3363 C3357 1.390 . S
C3363 C3360 1.386 . S
C3364 C3359 1.490 . S
C3364 C3366 1.395 . S
C3364 C3367 1.403 . S
H3365 C3371 0.930 . S
C3366 H3352 0.930 . S
C3366 C3364 1.395 . S
C3366 C3369 1.403 . S
C3367 C3364 1.403 . S
C3367 C3368 1.524 . S
C3367 C3371 1.400 . S
C3368 H3353 0.960 . S
C3368 H3354 0.960 . S
C3368 H3355 0.960 . S
C3368 C3367 1.524 . S
C3369 C3366 1.403 . S
C3369 C3370 1.392 . S
C3369 C3373 1.495 . S
C3370 C3369 1.392 . S
C3370 C3371 1.385 . S
C3370 C3372 1.478 . S
C3371 H3365 0.930 . S
C3371 C3367 1.400 . S
C3371 C3370 1.385 . S
C3372 C3370 1.478 . S
C3372 C3374 1.381 . S
C3372 C3378 1.383 . S
C3373 C3369 1.495 . S
C3373 H3379 0.959 . S
C3373 H3380 0.961 . S
C3373 H3381 0.960 . S
C3374 C3372 1.381 . S
C3374 C3375 1.394 . S
C3374 H3382 0.930 . S
C3375 C3374 1.394 . S
C3375 C3376 1.383 . S
C3375 H3383 0.929 . S
C3376 C3375 1.383 . S
C3376 C3377 1.377 . S
C3377 H3361 0.930 . S
C3377 C3376 1.377 . S
C3377 C3378 1.379 . S
C3378 H3362 0.931 . S
C3378 C3372 1.383 . S
C3378 C3377 1.379 . S
H3379 C3373 0.959 . S
H3380 C3373 0.961 . S
H3381 C3373 0.960 . S
H3382 C3374 0.930 . S
H3383 C3375 0.929 . S
H3384 C3392 0.929 . S
H3385 C3394 0.930 . S
H3386 C3396 0.930 . S
H3387 C3399 0.929 . S
H3388 C3402 0.930 . S
H3389 C3404 0.960 . S
H3390 C3404 0.960 . S
H3391 C3404 0.960 . S
C3392 H3384 0.929 . S
C3392 C3393 1.377 . S
C3392 C3394 1.384 . S
C3393 C3392 1.377 . S
C3393 C3399 1.390 . S
C3394 H3385 0.930 . S
C3394 C3392 1.384 . S
C3394 C3395 1.372 . S
C3395 C3394 1.372 . S
C3395 C3396 1.400 . S
C3395 C3400 1.490 . S
C3396 H3386 0.930 . S
C3396 C3395 1.400 . S
C3396 C3399 1.386 . S
H3397 C3413 0.930 . S
H3398 C3414 0.931 . S
C3399 H3387 0.929 . S
C3399 C3393 1.390 . S
C3399 C3396 1.386 . S
C3400 C3395 1.490 . S
C3400 C3402 1.395 . S
C3400 C3403 1.403 . S
H3401 C3407 0.930 . S
C3402 H3388 0.930 . S
C3402 C3400 1.395 . S
C3402 C3405 1.403 . S
C3403 C3400 1.403 . S
C3403 C3404 1.524 . S
C3403 C3407 1.400 . S
C3404 H3389 0.960 . S
C3404 H3390 0.960 . S
C3404 H3391 0.960 . S
C3404 C3403 1.524 . S
C3405 C3402 1.403 . S
C3405 C3406 1.392 . S
C3405 C3409 1.495 . S
C3406 C3405 1.392 . S
C3406 C3407 1.385 . S
C3406 C3408 1.478 . S
C3407 H3401 0.930 . S
C3407 C3403 1.400 . S
C3407 C3406 1.385 . S
C3408 C3406 1.478 . S
C3408 C3410 1.381 . S
C3408 C3414 1.383 . S
C3409 C3405 1.495 . S
C3409 H3415 0.959 . S
C3409 H3416 0.961 . S
C3409 H3417 0.960 . S
C3410 C3408 1.381 . S
C3410 C3411 1.394 . S
C3410 H3418 0.930 . S
C3411 C3410 1.394 . S
C3411 C3412 1.383 . S
C3411 H3419 0.929 . S
C3412 C3411 1.383 . S
C3412 C3413 1.377 . S
C3413 H3397 0.930 . S
C3413 C3412 1.377 . S
C3413 C3414 1.379 . S
C3414 H3398 0.931 . S
C3414 C3408 1.383 . S
C3414 C3413 1.379 . S
H3415 C3409 0.959 . S
H3416 C3409 0.961 . S
H3417 C3409 0.960 . S
H3418 C3410 0.930 . S
H3419 C3411 0.929 . S
H3420 C3428 0.929 . S
H3421 C3430 0.930 . S
H3422 C3432 0.930 . S
H3423 C3435 0.929 . S
H3424 C3438 0.930 . S
H3425 C3440 0.960 . S
H3426 C3440 0.960 . S
H3427 C3440 0.960 . S
C3428 H3420 0.929 . S
C3428 C3429 1.377 . S
C3428 C3430 1.384 . S
C3429 C3428 1.377 . S
C3429 C3435 1.390 . S
C3430 H3421 0.930 . S
C3430 C3428 1.384 . S
C3430 C3431 1.372 . S
C3431 C3430 1.372 . S
C3431 C3432 1.400 . S
C3431 C3436 1.490 . S
C3432 H3422 0.930 . S
C3432 C3431 1.400 . S
C3432 C3435 1.386 . S
H3433 C3449 0.930 . S
H3434 C3450 0.931 . S
C3435 H3423 0.929 . S
C3435 C3429 1.390 . S
C3435 C3432 1.386 . S
C3436 C3431 1.490 . S
C3436 C3438 1.395 . S
C3436 C3439 1.403 . S
H3437 C3443 0.930 . S
C3438 H3424 0.930 . S
C3438 C3436 1.395 . S
C3438 C3441 1.403 . S
C3439 C3436 1.403 . S
C3439 C3440 1.524 . S
C3439 C3443 1.400 . S
C3440 H3425 0.960 . S
C3440 H3426 0.960 . S
C3440 H3427 0.960 . S
C3440 C3439 1.524 . S
C3441 C3438 1.403 . S
C3441 C3442 1.392 . S
C3441 C3445 1.495 . S
C3442 C3441 1.392 . S
C3442 C3443 1.385 . S
C3442 C3444 1.478 . S
C3443 H3437 0.930 . S
C3443 C3439 1.400 . S
C3443 C3442 1.385 . S
C3444 C3442 1.478 . S
C3444 C3446 1.381 . S
C3444 C3450 1.383 . S
C3445 C3441 1.495 . S
C3445 H3451 0.959 . S
C3445 H3452 0.961 . S
C3445 H3453 0.960 . S
C3446 C3444 1.381 . S
C3446 C3447 1.394 . S
C3446 H3454 0.930 . S
C3447 C3446 1.394 . S
C3447 C3448 1.383 . S
C3447 H3455 0.929 . S
C3448 C3447 1.383 . S
C3448 C3449 1.377 . S
C3449 H3433 0.930 . S
C3449 C3448 1.377 . S
C3449 C3450 1.379 . S
C3450 H3434 0.931 . S
C3450 C3444 1.383 . S
C3450 C3449 1.379 . S
H3451 C3445 0.959 . S
H3452 C3445 0.961 . S
H3453 C3445 0.960 . S
H3454 C3446 0.930 . S
H3455 C3447 0.929 . S
C1521 C56 0.716 . S
C1540 C231 0.648 . S
C1557 C63 0.743 . S
C1576 C140 0.775 . S
C1593 C147 0.713 . S
C1612 C224 0.669 . S
C1629 C308 0.729 . S
C1648 C399 0.724 . S
C1665 C483 0.725 . S
C1684 C392 0.757 . S
C1701 C476 0.707 . S
C1720 C315 0.673 . S
C1737 C735 0.735 . S
C1756 C560 0.775 . S
C1773 C567 0.742 1_655 S
C1792 C644 0.708 . S
C1809 C728 0.707 . S
C1828 C651 0.684 . S
C1845 C903 0.725 . S
C1864 C812 0.664 . S
C1881 C896 0.731 . S
C1900 C987 0.763 . S
C1917 C819 0.716 . S
C1936 C980 0.663 . S
C1953 C1064 0.707 . S
C1972 C1239 0.700 . S
C1989 C1071 0.713 . S
C2008 C1148 0.674 . S
C2025 C1155 0.713 . S
C2044 C1232 0.669 . S
C2061 C1407 0.712 . S
C2080 C1316 0.698 . S
C2097 C1491 0.712 . S
C2116 C1400 0.686 . S
C2133 C1323 0.714 1_565 S
C2152 C1484 0.668 . S
C2169 C66 1.886 . S
C2188 C486 1.858 . S
C2205 C318 1.892 . S
C2224 C150 1.913 . S
C2241 C402 1.895 . S
C2260 C234 1.894 . S
C2277 C570 1.893 . S
C2296 C990 1.878 . S
C2313 C654 1.885 . S
C2332 C822 1.890 . S
C2349 C906 1.895 . S
C2368 C738 1.904 . S
C2385 C1074 1.891 . S
C2404 C1494 1.911 . S
C2421 C1326 1.891 . S
C2440 C1158 1.911 . S
C2457 C1410 1.895 . S
C2476 C1242 1.907 . S
C2493 C915 2.044 . S
C2512 C75 2.013 . S
C2529 C159 2.044 . S
C2548 C999 2.013 . S
C2565 C831 2.037 . S
C2584 C243 2.047 . S
C2601 C327 2.039 . S
C2620 C1251 2.038 . S
C2637 C411 2.044 . S
C2656 C1083 2.015 . S
C2673 C1167 2.043 . S
C2692 C495 2.018 . S
C2709 C1419 2.036 . S
C2728 C579 2.052 . S
C2745 C663 2.035 . S
C2764 C1503 2.058 . S
C2781 C747 2.042 . S
C2800 C1335 2.023 . S
C2817 C240 1.875 . S
C2836 C67 2.032 . S
C2853 C72 1.884 . S
C2872 C151 1.998 . S
C2889 C235 2.012 . S
C2908 C156 1.879 . S
C2925 C408 1.878 . S
C2944 C319 2.025 . S
C2961 C492 1.880 . S
C2980 C403 2.020 . S
C2997 C487 2.014 . S
C3016 C324 1.877 . S
C3033 C744 1.889 . S
C3052 C571 1.985 . S
C3069 C655 2.018 . S
C3088 C576 1.844 . S
C3105 C660 1.889 . S
C3124 C739 1.987 . S
C3141 C823 2.013 . S
C3160 C912 1.888 . S
C3177 C907 2.017 . S
C3196 C996 1.847 . S
C3213 C828 1.876 . S
C3232 C991 2.030 . S
C3249 C1075 2.009 . S
C3268 C1248 1.908 . S
C3285 C1159 2.017 . S
C3304 C1080 1.846 . S
C3321 C1164 1.875 . S
C3340 C1243 2.033 . S
C3357 C1327 2.012 . S
C3376 C1416 1.894 . S
C3393 C1411 2.018 . S
C3412 C1500 1.849 . S
C3429 C1332 1.878 . S
C3448 C1495 2.026 . S
