# Generated by pormake.
# Topology wjh, (4)-cn, num edge types: 1
# Building blocks:
#     Node 0, Type 0, BuildingBlock: QUQFOY_clean_sbu_3, # of connection points: 4
#     Node 1, Type 0, BuildingBlock: QUQFOY_clean_sbu_3, # of connection points: 4
#     Node 2, Type 0, BuildingBlock: QUQFOY_clean_sbu_3, # of connection points: 4
#     Node 3, Type 0, BuildingBlock: QUQFOY_clean_sbu_3, # of connection points: 4
#     Node 4, Type 0, BuildingBlock: QUQFOY_clean_sbu_3, # of connection points: 4
#     Node 5, Type 0, BuildingBlock: QUQFOY_clean_sbu_3, # of connection points: 4
#     Node 6, Type 0, BuildingBlock: QUQFOY_clean_sbu_3, # of connection points: 4
#     Node 7, Type 0, BuildingBlock: QUQFOY_clean_sbu_3, # of connection points: 4
#     Node 8, Type 0, BuildingBlock: QUQFOY_clean_sbu_3, # of connection points: 4
#     Node 9, Type 0, BuildingBlock: QUQFOY_clean_sbu_3, # of connection points: 4
#     Node 10, Type 0, BuildingBlock: QUQFOY_clean_sbu_3, # of connection points: 4
#     Node 11, Type 0, BuildingBlock: QUQFOY_clean_sbu_3, # of connection points: 4
#     Edge 12, Type (0, 0), BuildingBlock: ZUJKAS_clean_linker_0, # of connection points: 2
#     Edge 13, Type (0, 0), BuildingBlock: ZUJKAS_clean_linker_0, # of connection points: 2
#     Edge 14, Type (0, 0), BuildingBlock: ZUJKAS_clean_linker_0, # of connection points: 2
#     Edge 15, Type (0, 0), BuildingBlock: ZUJKAS_clean_linker_0, # of connection points: 2
#     Edge 16, Type (0, 0), BuildingBlock: ZUJKAS_clean_linker_0, # of connection points: 2
#     Edge 17, Type (0, 0), BuildingBlock: ZUJKAS_clean_linker_0, # of connection points: 2
#     Edge 18, Type (0, 0), BuildingBlock: ZUJKAS_clean_linker_0, # of connection points: 2
#     Edge 19, Type (0, 0), BuildingBlock: ZUJKAS_clean_linker_0, # of connection points: 2
#     Edge 20, Type (0, 0), BuildingBlock: ZUJKAS_clean_linker_0, # of connection points: 2
#     Edge 21, Type (0, 0), BuildingBlock: ZUJKAS_clean_linker_0, # of connection points: 2
#     Edge 22, Type (0, 0), BuildingBlock: ZUJKAS_clean_linker_0, # of connection points: 2
#     Edge 23, Type (0, 0), BuildingBlock: ZUJKAS_clean_linker_0, # of connection points: 2
#     Edge 24, Type (0, 0), BuildingBlock: ZUJKAS_clean_linker_0, # of connection points: 2
#     Edge 25, Type (0, 0), BuildingBlock: ZUJKAS_clean_linker_0, # of connection points: 2
#     Edge 26, Type (0, 0), BuildingBlock: ZUJKAS_clean_linker_0, # of connection points: 2
#     Edge 27, Type (0, 0), BuildingBlock: ZUJKAS_clean_linker_0, # of connection points: 2
#     Edge 28, Type (0, 0), BuildingBlock: ZUJKAS_clean_linker_0, # of connection points: 2
#     Edge 29, Type (0, 0), BuildingBlock: ZUJKAS_clean_linker_0, # of connection points: 2
#     Edge 30, Type (0, 0), BuildingBlock: ZUJKAS_clean_linker_0, # of connection points: 2
#     Edge 31, Type (0, 0), BuildingBlock: ZUJKAS_clean_linker_0, # of connection points: 2
#     Edge 32, Type (0, 0), BuildingBlock: ZUJKAS_clean_linker_0, # of connection points: 2
#     Edge 33, Type (0, 0), BuildingBlock: ZUJKAS_clean_linker_0, # of connection points: 2
#     Edge 34, Type (0, 0), BuildingBlock: ZUJKAS_clean_linker_0, # of connection points: 2
#     Edge 35, Type (0, 0), BuildingBlock: ZUJKAS_clean_linker_0, # of connection points: 2
# Relax obj value: 0.076
# Max RMSD: 0.098
# Mean RMSD: 0.098
data_MOF--net-wjh--node1-QUQFOY_clean_sbu_3--edge1-ZUJKAS_clean_linker_0
_symmetry_space_group_name_H-M    P1
_symmetry_Int_Tables_number       1
_symmetry_cell_setting            triclinic
loop_
_symmetry_equiv_pos_as_xyz
'x, y, z'
_cell_length_a     81.590725
_cell_length_b     81.643362
_cell_length_c     35.207354
_cell_angle_alpha  90.035591
_cell_angle_beta   90.001505
_cell_angle_gamma 120.03193
loop_
_atom_site_label
_atom_site_type_symbol
_atom_site_fract_x
_atom_site_fract_y
_atom_site_fract_z
_atom_type_partial_charge
C0 C 0.53361 0.14159 0.97941 0.0
O1 O 0.54132 0.13611 0.00375 0.0
Cd2 Cd 0.53138 0.1277 0.06753 0.0
O3 O 0.51935 0.14327 -0.01164 0.0
Cd4 Cd 0.50081 0.13886 0.0481 0.0
C5 C 0.48551 0.09235 0.0516 0.0
O6 O 0.52775 0.15301 0.09058 0.0
O7 O 0.50096 0.13563 0.11789 0.0
O8 O 0.49941 0.16741 0.03506 0.0
C9 C 0.51843 0.1476 0.12112 0.0
O10 O 0.5018 0.09735 0.06531 0.0
C11 C 0.48222 0.16058 0.0447 0.0
O12 O 0.48152 0.10463 0.03949 0.0
O13 O 0.47315 0.14308 0.05284 0.0
C14 C 0.3837 0.53379 0.13317 0.0
O15 O 0.39779 0.5418 0.15545 0.0
Cd16 Cd 0.39878 0.53474 0.22023 0.0
O17 O 0.36778 0.52037 0.1449 0.0
Cd18 Cd 0.35528 0.50425 0.20773 0.0
C19 C 0.38585 0.48777 0.21222 0.0
O20 O 0.37096 0.53302 0.24484 0.0
O21 O 0.35946 0.50751 0.27758 0.0
O22 O 0.32505 0.50278 0.19649 0.0
C23 C 0.36729 0.52538 0.2772 0.0
O24 O 0.39821 0.50461 0.22136 0.0
C25 C 0.3149 0.48589 0.20813 0.0
O26 O 0.36914 0.48374 0.20307 0.0
O27 O 0.3235 0.47706 0.21677 0.0
C28 C 0.84512 0.38872 0.31063 0.0
O29 O 0.8526 0.40242 0.33389 0.0
Cd30 Cd 0.85777 0.40027 0.39956 0.0
O31 O 0.84036 0.37195 0.32114 0.0
Cd32 Cd 0.84393 0.35844 0.38254 0.0
C33 C 0.89101 0.38713 0.38962 0.0
O34 O 0.8302 0.37287 0.42228 0.0
O35 O 0.8461 0.3625 0.45218 0.0
O36 O 0.81537 0.3284 0.36775 0.0
C37 C 0.83463 0.36867 0.45367 0.0
O38 O 0.88684 0.39893 0.4038 0.0
C39 C 0.82147 0.3181 0.38157 0.0
O40 O 0.8782 0.37163 0.37533 0.0
O41 O 0.83852 0.3265 0.39288 0.0
C42 C 0.44332 0.843 0.47181 0.0
O43 O 0.43511 0.848 0.49596 0.0
Cd44 Cd 0.44342 0.85565 0.56047 0.0
O45 O 0.45748 0.84124 0.48132 0.0
Cd46 Cd 0.47467 0.84433 0.54261 0.0
C47 C 0.48985 0.89098 0.54972 0.0
O48 O 0.44667 0.82999 0.58206 0.0
O49 O 0.47278 0.84482 0.61283 0.0
O50 O 0.47641 0.81601 0.52863 0.0
C51 C 0.45499 0.83405 0.61377 0.0
O52 O 0.47305 0.88583 0.56044 0.0
C53 C 0.49351 0.82286 0.5391 0.0
O54 O 0.49429 0.87881 0.53896 0.0
O55 O 0.50237 0.84027 0.54801 0.0
C56 C 0.59135 0.45092 0.6386 0.0
O57 O 0.57747 0.44343 0.66146 0.0
Cd58 Cd 0.57761 0.45127 0.7262 0.0
O59 O 0.60755 0.46416 0.64956 0.0
Cd60 Cd 0.62106 0.48072 0.71159 0.0
C61 C 0.59153 0.49841 0.71762 0.0
O62 O 0.60535 0.45224 0.7494 0.0
O63 O 0.61781 0.47795 0.7817 0.0
O64 O 0.65076 0.48135 0.69873 0.0
C65 C 0.60967 0.46006 0.7816 0.0
O66 O 0.57898 0.48179 0.72754 0.0
C67 C 0.66136 0.49827 0.70978 0.0
O68 O 0.60794 0.50188 0.70747 0.0
O69 O 0.65322 0.5075 0.71888 0.0
C70 C 0.12825 0.59594 0.7986 0.0
O71 O 0.12024 0.58164 0.82031 0.0
Cd72 Cd 0.11496 0.58137 0.88664 0.0
O73 O 0.13388 0.6126 0.8112 0.0
Cd74 Cd 0.13163 0.62546 0.87459 0.0
C75 C 0.08395 0.59792 0.88273 0.0
O76 O 0.14293 0.6077 0.91071 0.0
O77 O 0.13139 0.62162 0.94398 0.0
O78 O 0.16164 0.65464 0.8644 0.0
C79 C 0.14018 0.6125 0.94317 0.0
O80 O 0.08718 0.58475 0.89217 0.0
C81 C 0.15575 0.66561 0.87541 0.0
O82 O 0.0974 0.61392 0.87181 0.0
O83 O 0.13825 0.65797 0.88316 0.0
C84 C 0.84243 0.45186 0.93431 0.0
O85 O 0.84983 0.44566 0.91084 0.0
Cd86 Cd 0.85517 0.45308 0.84533 0.0
O87 O 0.83746 0.46374 0.92399 0.0
Cd88 Cd 0.83997 0.48048 0.86252 0.0
C89 C 0.88735 0.50012 0.85503 0.0
O90 O 0.82746 0.45257 0.8223 0.0
O91 O 0.84205 0.47913 0.7928 0.0
O92 O 0.81033 0.48019 0.87447 0.0
C93 C 0.83147 0.46134 0.79106 0.0
O94 O 0.88374 0.48397 0.84286 0.0
C95 C 0.81656 0.4973 0.86488 0.0
O96 O 0.87411 0.50264 0.86741 0.0
O97 O 0.83406 0.50695 0.85699 0.0
C98 C 0.38475 0.84681 0.09062 0.0
O99 O 0.39756 0.85238 0.06542 0.0
Cd100 Cd 0.39441 0.8578 0.00024 0.0
O101 O 0.36817 0.84365 0.0823 0.0
Cd102 Cd 0.35217 0.84544 0.0231 0.0
C103 C 0.38216 0.89208 0.01041 0.0
O104 O 0.36537 0.83108 0.98228 0.0
O105 O 0.35235 0.84466 0.95293 0.0
O106 O 0.3231 0.81684 0.04095 0.0
C107 C 0.35981 0.83429 0.95117 0.0
O108 O 0.39349 0.88713 -0.00321 0.0
C109 C 0.31208 0.82289 0.0313 0.0
O110 O 0.36657 0.88 0.02566 0.0
O111 O 0.31982 0.84009 0.02111 0.0
C112 C 0.53279 0.3877 0.25908 0.0
O113 O 0.54001 0.40026 0.23342 0.0
Cd114 Cd 0.52926 0.39748 0.1701 0.0
O115 O 0.51852 0.37144 0.25191 0.0
Cd116 Cd 0.49934 0.35532 0.19361 0.0
C117 C 0.48299 0.3858 0.18664 0.0
O118 O 0.5258 0.36824 0.15004 0.0
O119 O 0.49855 0.35574 0.12331 0.0
O120 O 0.49903 0.32613 0.20933 0.0
C121 C 0.51629 0.36297 0.11971 0.0
O122 O 0.49934 0.39735 0.17352 0.0
C123 C 0.48167 0.31523 0.20149 0.0
O124 O 0.47922 0.36959 0.19876 0.0
O125 O 0.47209 0.32311 0.19326 0.0
C126 C 0.13457 0.53387 0.42273 0.0
O127 O 0.12746 0.53968 0.39772 0.0
Cd128 Cd 0.12283 0.53159 0.33212 0.0
O129 O 0.1395 0.5217 0.41449 0.0
Cd130 Cd 0.13737 0.50347 0.35561 0.0
C131 C 0.09021 0.48485 0.34358 0.0
O132 O 0.15018 0.53057 0.31339 0.0
O133 O 0.13726 0.50354 0.28558 0.0
O134 O 0.16648 0.50347 0.37154 0.0
C135 C 0.14689 0.52138 0.28274 0.0
O136 O 0.09437 0.50067 0.32867 0.0
C137 C 0.16012 0.48616 0.36346 0.0
O138 O 0.10286 0.48242 0.35953 0.0
O139 O 0.1427 0.47655 0.3548 0.0
C140 C 0.59243 0.14019 0.59826 0.0
O141 O 0.57939 0.13524 0.57372 0.0
Cd142 Cd 0.58067 0.12699 0.50995 0.0
O143 O 0.60825 0.14152 0.58943 0.0
Cd144 Cd 0.62254 0.13761 0.5291 0.0
C145 C 0.59088 0.09121 0.52444 0.0
O146 O 0.60985 0.15243 0.48806 0.0
O147 O 0.61944 0.1356 0.45922 0.0
O148 O 0.65272 0.16523 0.54676 0.0
C149 C 0.61377 0.14745 0.457 0.0
O150 O 0.57957 0.09652 0.51231 0.0
C151 C 0.66289 0.15892 0.53315 0.0
O152 O 0.60748 0.1033 0.53551 0.0
O153 O 0.65428 0.1421 0.52054 0.0
C154 C 0.44337 0.59587 0.75467 0.0
O155 O 0.43689 0.58327 0.72898 0.0
Cd156 Cd 0.44843 0.58651 0.66617 0.0
O157 O 0.45737 0.61236 0.74796 0.0
Cd158 Cd 0.4772 0.62875 0.69061 0.0
C159 C 0.49477 0.59923 0.68451 0.0
O160 O 0.45117 0.61545 0.64597 0.0
O161 O 0.47869 0.62867 0.62034 0.0
O162 O 0.4768 0.65766 0.70583 0.0
C163 C 0.46096 0.62112 0.61606 0.0
O164 O 0.47872 0.58744 0.67051 0.0
C165 C 0.4942 0.66877 0.69872 0.0
O166 O 0.49789 0.61519 0.69697 0.0
O167 O 0.50409 0.66116 0.69117 0.0
H168 H 0.50611 0.12733 0.18688 0.0
H169 H 0.52443 0.13225 0.24492 0.0
H170 H 0.57115 0.18253 0.19649 0.0
H171 H 0.55318 0.17717 0.13776 0.0
H172 H 0.5831 0.16083 0.22403 0.0
H173 H 0.53797 0.16759 0.33256 0.0
H174 H 0.52483 0.14609 0.30615 0.0
H175 H 0.53407 0.16855 0.28237 0.0
C176 C 0.52015 0.13961 0.18892 0.0
C177 C 0.52828 0.15184 0.15789 0.0
C178 C 0.53057 0.14249 0.22219 0.0
C179 C 0.54907 0.15792 0.22527 0.0
C180 C 0.5569 0.17055 0.19475 0.0
H181 H 0.60696 0.17619 0.44271 0.0
H182 H 0.59393 0.18161 0.38464 0.0
C183 C 0.54662 0.16749 0.16128 0.0
C184 C 0.56086 0.15987 0.2588 0.0
H185 H 0.56062 0.15917 0.35556 0.0
C186 C 0.57832 0.16077 0.25281 0.0
C187 C 0.5548 0.16013 0.2963 0.0
C188 C 0.53699 0.16075 0.3047 0.0
C189 C 0.58953 0.16116 0.28332 0.0
C190 C 0.58277 0.15995 0.32078 0.0
C191 C 0.56569 0.15984 0.3268 0.0
C192 C 0.59269 0.15798 0.35412 0.0
C193 C 0.60848 0.16291 0.27499 0.0
C194 C 0.59657 0.14307 0.35602 0.0
C195 C 0.60433 0.14016 0.38891 0.0
C196 C 0.60786 0.15183 0.42073 0.0
C197 C 0.60431 0.16696 0.41856 0.0
C198 C 0.59686 0.17005 0.38548 0.0
H199 H 0.61435 0.17033 0.24764 0.0
H200 H 0.61889 0.17069 0.29787 0.0
H201 H 0.6067 0.14855 0.27252 0.0
H202 H 0.59299 0.13326 0.3326 0.0
H203 H 0.60675 0.12828 0.38997 0.0
H204 H 0.38741 0.56379 0.28224 0.0
H205 H 0.40364 0.58285 0.33801 0.0
H206 H 0.38163 0.53222 0.40588 0.0
H207 H 0.36552 0.51294 0.35001 0.0
H208 H 0.39031 0.58606 0.40956 0.0
H209 H 0.43946 0.55773 0.41899 0.0
H210 H 0.42497 0.55435 0.37773 0.0
H211 H 0.41486 0.53986 0.41916 0.0
C212 C 0.38591 0.55669 0.30908 0.0
C213 C 0.37539 0.53685 0.31172 0.0
C214 C 0.39517 0.56762 0.34087 0.0
C215 C 0.39409 0.55888 0.37573 0.0
C216 C 0.38291 0.53915 0.37892 0.0
H217 H 0.42327 0.60276 0.60057 0.0
H218 H 0.40799 0.59031 0.53952 0.0
C219 C 0.37365 0.52818 0.34709 0.0
C220 C 0.40511 0.5704 0.40848 0.0
H221 H 0.43985 0.57671 0.47055 0.0
C222 C 0.40123 0.58413 0.42284 0.0
C223 C 0.41961 0.5681 0.42503 0.0
C224 C 0.42515 0.55435 0.40927 0.0
C225 C 0.41105 0.5952 0.45437 0.0
C226 C 0.42486 0.59219 0.47213 0.0
C227 C 0.42918 0.57891 0.45693 0.0
C228 C 0.43419 0.60171 0.50792 0.0
C229 C 0.40657 0.60999 0.46836 0.0
C230 C 0.45402 0.61218 0.51037 0.0
C231 C 0.46283 0.61918 0.54539 0.0
C232 C 0.45191 0.61565 0.57842 0.0
C233 C 0.43206 0.6057 0.57559 0.0
C234 C 0.42329 0.59871 0.54067 0.0
H235 H 0.40043 0.6146 0.44542 0.0
H236 H 0.396 0.60392 0.49159 0.0
H237 H 0.41942 0.62259 0.47959 0.0
H238 H 0.46265 0.61451 0.48536 0.0
H239 H 0.47815 0.62683 0.54674 0.0
H240 H 0.85025 0.47387 0.72385 0.0
H241 H 0.84528 0.45543 0.66605 0.0
H242 H 0.79778 0.40724 0.7184 0.0
H243 H 0.80337 0.42538 0.77703 0.0
H244 H 0.8193 0.39655 0.68736 0.0
H245 H 0.80839 0.44 0.58171 0.0
H246 H 0.83035 0.45416 0.60606 0.0
H247 H 0.80837 0.44407 0.63207 0.0
C248 C 0.83857 0.45943 0.72278 0.0
C249 C 0.8272 0.45101 0.75482 0.0
C250 C 0.83563 0.44894 0.68962 0.0
C251 C 0.82092 0.43003 0.68756 0.0
C252 C 0.80918 0.42181 0.71926 0.0
H253 H 0.80529 0.37472 0.4671 0.0
H254 H 0.79868 0.38662 0.52552 0.0
C255 C 0.81237 0.43218 0.75269 0.0
C256 C 0.81889 0.41841 0.65364 0.0
H257 H 0.8189 0.41912 0.55687 0.0
C258 C 0.81887 0.40133 0.65883 0.0
C259 C 0.8179 0.42436 0.61642 0.0
C260 C 0.81603 0.44154 0.6088 0.0
C261 C 0.81882 0.39055 0.62781 0.0
C262 C 0.81959 0.39742 0.5906 0.0
C263 C 0.81864 0.41399 0.5854 0.0
C264 C 0.82233 0.38827 0.55674 0.0
C265 C 0.81791 0.37192 0.6354 0.0
C266 C 0.8377 0.38505 0.55497 0.0
C267 C 0.84124 0.37788 0.52194 0.0
C268 C 0.8298 0.37435 0.48974 0.0
C269 C 0.81434 0.37739 0.49157 0.0
C270 C 0.81057 0.38419 0.52487 0.0
H271 H 0.81032 0.36553 0.66238 0.0
H272 H 0.81069 0.36165 0.61202 0.0
H273 H 0.83251 0.37436 0.63837 0.0
H274 H 0.84735 0.38866 0.57869 0.0
H275 H 0.85339 0.37587 0.52112 0.0
H276 H 0.41671 0.81385 0.62199 0.0
H277 H 0.39845 0.81055 0.67929 0.0
H278 H 0.4502 0.84167 0.7432 0.0
H279 H 0.46867 0.84529 0.68577 0.0
H280 H 0.3973 0.79551 0.75235 0.0
H281 H 0.42315 0.87272 0.7549 0.0
H282 H 0.42617 0.861 0.71427 0.0
H283 H 0.44151 0.86668 0.75476 0.0
C284 C 0.42423 0.81984 0.64831 0.0
C285 C 0.44412 0.83008 0.64933 0.0
C286 C 0.41376 0.8179 0.68098 0.0
C287 C 0.42302 0.82616 0.71514 0.0
C288 C 0.44286 0.83549 0.71681 0.0
H289 H 0.37923 0.81558 0.94066 0.0
H290 H 0.39228 0.81161 0.88136 0.0
C291 C 0.45336 0.83748 0.68408 0.0
C292 C 0.41191 0.8259 0.74837 0.0
H293 H 0.40459 0.85481 0.80715 0.0
C294 C 0.39882 0.80844 0.76437 0.0
C295 C 0.41368 0.8428 0.76327 0.0
C296 C 0.42675 0.86187 0.74577 0.0
C297 C 0.38776 0.80746 0.79572 0.0
C298 C 0.39011 0.82443 0.81154 0.0
C299 C 0.40288 0.84184 0.79495 0.0
C300 C 0.38018 0.82467 0.84638 0.0
C301 C 0.37359 0.78833 0.8114 0.0
C302 C 0.36907 0.83336 0.84632 0.0
C303 C 0.36173 0.83585 0.88027 0.0
C304 C 0.36554 0.82977 0.91477 0.0
C305 C 0.37606 0.82042 0.9145 0.0
C306 C 0.38341 0.81799 0.88061 0.0
H307 H 0.36949 0.777 0.78981 0.0
H308 H 0.37999 0.78497 0.83582 0.0
H309 H 0.36062 0.78818 0.82151 0.0
H310 H 0.36652 0.83869 0.82012 0.0
H311 H 0.35363 0.84305 0.87963 0.0
H312 H 0.4998 0.35819 0.04986 0.0
H313 H 0.5159 0.37131 -0.01062 0.0
H314 H 0.57002 0.39457 0.04549 0.0
H315 H 0.55414 0.3813 0.10568 0.0
H316 H 0.539 0.4094 0.97717 0.0
H317 H 0.57823 0.37142 0.95005 0.0
H318 H 0.55894 0.36305 0.98358 0.0
H319 H 0.58225 0.38153 -0.00323 0.0
C320 C 0.51513 0.36579 0.04912 0.0
C321 C 0.52572 0.36882 0.08248 0.0
C322 C 0.52429 0.37326 0.01462 0.0
C323 C 0.54413 0.38372 0.01299 0.0
C324 C 0.55471 0.3862 0.04601 0.0
H325 H 0.61264 0.47291 0.85449 0.0
H326 H 0.59728 0.45395 0.91112 0.0
C327 C 0.54559 0.37873 0.08044 0.0
C328 C 0.55377 0.39371 0.9778 0.0
H329 H 0.58818 0.39996 0.91474 0.0
C330 C 0.54962 0.40722 0.96328 0.0
C331 C 0.56754 0.39074 0.95975 0.0
C332 C 0.57189 0.37576 0.9731 0.0
C333 C 0.5592 0.41818 0.93158 0.0
C334 C 0.57355 0.41579 0.91452 0.0
C335 C 0.57738 0.40194 0.92839 0.0
C336 C 0.58426 0.42714 0.88138 0.0
C337 C 0.55377 0.43211 0.91641 0.0
C338 C 0.5826 0.41821 0.84646 0.0
C339 C 0.59142 0.42895 0.81425 0.0
C340 C 0.60206 0.4488 0.8165 0.0
C341 C 0.6044 0.45766 0.85188 0.0
C342 C 0.59558 0.44688 0.88415 0.0
H343 H 0.53962 0.42895 0.92679 0.0
H344 H 0.56431 0.44656 0.92606 0.0
H345 H 0.55362 0.43205 0.88487 0.0
H346 H 0.574 0.40298 0.84391 0.0
H347 H 0.58947 0.42171 0.78741 0.0
H348 H 0.16528 0.55933 0.26955 0.0
H349 H 0.16713 0.57528 0.20968 0.0
H350 H 0.13792 0.52135 0.15254 0.0
H351 H 0.13585 0.50519 0.21247 0.0
H352 H 0.18181 0.57428 0.13559 0.0
H353 H 0.10393 0.54556 0.13796 0.0
H354 H 0.11691 0.54502 0.179 0.0
H355 H 0.11141 0.5283 0.14116 0.0
C356 C 0.15944 0.55085 0.24417 0.0
C357 C 0.15017 0.53099 0.24576 0.0
C358 C 0.16056 0.56 0.21002 0.0
C359 C 0.1524 0.54944 0.17701 0.0
C360 C 0.14406 0.52968 0.17797 0.0
H361 H 0.15673 0.59071 0.9485 0.0
H362 H 0.16115 0.57643 0.00571 0.0
C363 C 0.14294 0.5205 0.21215 0.0
C364 C 0.15152 0.55908 0.14233 0.0
H365 H 0.12061 0.56399 0.08489 0.0
C366 C 0.16846 0.57203 0.12434 0.0
C367 C 0.13407 0.55629 0.12833 0.0
C368 C 0.11552 0.54317 0.14769 0.0
C369 C 0.16838 0.58217 0.09226 0.0
C370 C 0.15088 0.57909 0.07786 0.0
C371 C 0.13398 0.56625 0.09605 0.0
C372 C 0.14966 0.58895 0.04381 0.0
C373 C 0.18697 0.59633 0.07445 0.0
C374 C 0.14163 0.6006 0.04638 0.0
C375 C 0.13898 0.60871 0.01375 0.0
C376 C 0.1442 0.60513 0.97802 0.0
C377 C 0.15259 0.59374 0.97566 0.0
C378 C 0.15524 0.58566 0.0083 0.0
H379 H 0.19906 0.60033 0.09405 0.0
H380 H 0.18935 0.59003 0.04858 0.0
H381 H 0.18679 0.60933 0.0659 0.0
H382 H 0.13716 0.6032 0.07361 0.0
H383 H 0.1325 0.61743 0.01644 0.0
H384 H 0.49981 0.29524 0.21269 0.0
H385 H 0.49052 0.26398 0.1874 0.0
H386 H 0.43712 0.25743 0.15079 0.0
H387 H 0.44649 0.289 0.17541 0.0
H388 H 0.46059 0.22719 0.19554 0.0
H389 H 0.46207 0.25572 0.05111 0.0
H390 H 0.47085 0.27076 0.09241 0.0
H391 H 0.4458 0.25645 0.08453 0.0
C392 C 0.4859 0.287 0.2001 0.0
C393 C 0.47403 0.29473 0.19549 0.0
C394 C 0.4806 0.26911 0.18562 0.0
C395 C 0.46334 0.2586 0.16635 0.0
C396 C 0.4507 0.26552 0.16479 0.0
H397 H 0.44762 0.15091 0.07522 0.0
H398 H 0.43806 0.17267 0.10153 0.0
C399 C 0.45602 0.28349 0.17918 0.0
C400 C 0.45975 0.24148 0.14494 0.0
H401 H 0.45878 0.22561 0.05467 0.0
C402 C 0.45981 0.22661 0.16477 0.0
C403 C 0.45894 0.24093 0.10473 0.0
C404 C 0.45954 0.25683 0.08176 0.0
C405 C 0.46002 0.21166 0.14549 0.0
C406 C 0.4598 0.21142 0.10526 0.0
C407 C 0.45879 0.22579 0.08548 0.0
C408 C 0.46341 0.198 0.08345 0.0
C409 C 0.46178 0.19696 0.16832 0.0
C410 C 0.4802 0.20502 0.06239 0.0
C411 C 0.48559 0.19268 0.04698 0.0
C412 C 0.47429 0.17305 0.05241 0.0
C413 C 0.4567 0.16597 0.07076 0.0
C414 C 0.45128 0.17837 0.0861 0.0
H415 H 0.46497 0.20101 0.1987 0.0
H416 H 0.44824 0.18332 0.16687 0.0
H417 H 0.47311 0.19469 0.15654 0.0
H418 H 0.48971 0.22013 0.05976 0.0
H419 H 0.49917 0.1986 0.03284 0.0
H420 H 0.291 0.45258 0.24397 0.0
H421 H 0.25974 0.44318 0.27024 0.0
H422 H 0.26208 0.49249 0.22012 0.0
H423 H 0.29313 0.50186 0.19351 0.0
H424 H 0.25446 0.46493 0.32235 0.0
H425 H 0.20773 0.45209 0.19899 0.0
H426 H 0.22996 0.45241 0.19507 0.0
H427 H 0.22942 0.4742 0.19466 0.0
C428 C 0.2846 0.46111 0.23756 0.0
C429 C 0.29458 0.47802 0.21677 0.0
C430 C 0.26677 0.45575 0.25273 0.0
C431 C 0.25852 0.46706 0.24696 0.0
C432 C 0.26798 0.48334 0.22434 0.0
H433 H 0.19813 0.50401 0.37698 0.0
H434 H 0.22031 0.49456 0.35367 0.0
C435 C 0.2858 0.48873 0.20927 0.0
C436 C 0.24135 0.4634 0.26828 0.0
H437 H 0.19894 0.46154 0.25734 0.0
C438 C 0.24211 0.46375 0.30816 0.0
C439 C 0.22512 0.46156 0.24987 0.0
C440 C 0.22291 0.45984 0.20728 0.0
C441 C 0.2277 0.46371 0.32998 0.0
C442 C 0.2123 0.46362 0.31138 0.0
C443 C 0.21086 0.46184 0.27165 0.0
C444 C 0.19869 0.46746 0.33183 0.0
C445 C 0.22937 0.46431 0.37268 0.0
C446 C 0.17911 0.45524 0.32796 0.0
C447 C 0.16636 0.46066 0.34119 0.0
C448 C 0.173 0.4785 0.35812 0.0
C449 C 0.19255 0.49016 0.36418 0.0
C450 C 0.20527 0.48472 0.351 0.0
H451 H 0.23762 0.45764 0.38245 0.0
H452 H 0.23698 0.47928 0.38222 0.0
H453 H 0.21524 0.45702 0.38646 0.0
H454 H 0.17375 0.44189 0.31313 0.0
H455 H 0.15139 0.45136 0.33601 0.0
H456 H 0.68462 0.15504 0.47933 0.0
H457 H 0.71523 0.17974 0.45616 0.0
H458 H 0.71805 0.21637 0.54748 0.0
H459 H 0.68681 0.192 0.56941 0.0
H460 H 0.72238 0.23331 0.48458 0.0
H461 H 0.76976 0.20332 0.47945 0.0
H462 H 0.74818 0.1884 0.45448 0.0
H463 H 0.7476 0.19192 0.50492 0.0
C464 C 0.69204 0.16813 0.49522 0.0
C465 C 0.68329 0.17165 0.52605 0.0
C466 C 0.70966 0.18226 0.48202 0.0
C467 C 0.7191 0.19996 0.50011 0.0
C468 C 0.71104 0.20287 0.53291 0.0
H469 H 0.82675 0.29616 0.43281 0.0
H470 H 0.80232 0.26614 0.45935 0.0
C471 C 0.69322 0.18891 0.54556 0.0
C472 C 0.73567 0.21622 0.48171 0.0
H473 H 0.77827 0.23027 0.4388 0.0
C474 C 0.73469 0.23267 0.47507 0.0
C475 C 0.75183 0.21552 0.46931 0.0
C476 C 0.75449 0.19889 0.4778 0.0
C477 C 0.74918 0.24828 0.45613 0.0
C478 C 0.76481 0.24718 0.44173 0.0
C479 C 0.76606 0.23092 0.449 0.0
C480 C 0.78034 0.26325 0.42085 0.0
C481 C 0.74773 0.26595 0.45263 0.0
C482 C 0.77642 0.27102 0.38889 0.0
C483 C 0.79027 0.28837 0.3741 0.0
C484 C 0.80842 0.29795 0.39037 0.0
C485 C 0.81288 0.28913 0.4197 0.0
C486 C 0.79891 0.27197 0.43497 0.0
H487 H 0.73806 0.26637 0.47435 0.0
H488 H 0.7618 0.2789 0.45574 0.0
H489 H 0.74193 0.26621 0.42427 0.0
H490 H 0.76234 0.26419 0.37671 0.0
H491 H 0.7865 0.29472 0.3512 0.0
H492 H 0.47679 0.78487 0.52675 0.0
H493 H 0.48612 0.76337 0.55436 0.0
H494 H 0.53732 0.81088 0.59768 0.0
H495 H 0.52791 0.83259 0.57067 0.0
H496 H 0.51725 0.75802 0.55097 0.0
H497 H 0.50939 0.78245 0.69405 0.0
H498 H 0.50163 0.78871 0.65131 0.0
H499 H 0.52639 0.80021 0.66276 0.0
C500 C 0.49026 0.79081 0.54136 0.0
C501 C 0.50146 0.81043 0.54704 0.0
C502 C 0.49557 0.77848 0.55717 0.0
C503 C 0.51217 0.78553 0.57888 0.0
C504 C 0.52424 0.80516 0.58174 0.0
H505 H 0.52948 0.6954 0.67397 0.0
H506 H 0.53861 0.72684 0.64904 0.0
C507 C 0.51891 0.81754 0.566 0.0
C508 C 0.51562 0.77215 0.60117 0.0
H509 H 0.51411 0.75646 0.69176 0.0
C510 C 0.51694 0.75785 0.58178 0.0
C511 C 0.515 0.7719 0.64139 0.0
C512 C 0.51289 0.78652 0.66377 0.0
C513 C 0.51676 0.74279 0.60138 0.0
C514 C 0.51559 0.74225 0.64155 0.0
C515 C 0.51518 0.75703 0.66103 0.0
C516 C 0.51204 0.72521 0.66319 0.0
C517 C 0.51656 0.72696 0.57878 0.0
C518 C 0.49462 0.7145 0.68178 0.0
C519 C 0.48945 0.69668 0.69642 0.0
C520 C 0.50161 0.68923 0.69267 0.0
C521 C 0.51974 0.70069 0.67707 0.0
C522 C 0.52493 0.71859 0.66251 0.0
H523 H 0.51428 0.72802 0.54798 0.0
H524 H 0.53034 0.7275 0.58224 0.0
H525 H 0.50525 0.713 0.5892 0.0
H526 H 0.48451 0.71942 0.68288 0.0
H527 H 0.47543 0.68827 0.70845 0.0
H528 H 0.68635 0.5318 0.74368 0.0
H529 H 0.71774 0.54071 0.76858 0.0
H530 H 0.71335 0.49017 0.71992 0.0
H531 H 0.68217 0.48129 0.69465 0.0
H532 H 0.72271 0.51903 0.82111 0.0
H533 H 0.76789 0.52917 0.69639 0.0
H534 H 0.74596 0.52949 0.69293 0.0
H535 H 0.74582 0.50736 0.69334 0.0
C536 C 0.69232 0.52288 0.73727 0.0
C537 C 0.68173 0.50578 0.71733 0.0
C538 C 0.71023 0.52797 0.75165 0.0
C539 C 0.71794 0.51618 0.74594 0.0
C540 C 0.70787 0.49969 0.72407 0.0
H541 H 0.77847 0.4794 0.87733 0.0
H542 H 0.75626 0.48854 0.85266 0.0
C543 C 0.68997 0.49458 0.70977 0.0
C544 C 0.73516 0.51957 0.76676 0.0
H545 H 0.77694 0.52018 0.75497 0.0
C546 C 0.73478 0.51971 0.80665 0.0
C547 C 0.75101 0.52074 0.74796 0.0
C548 C 0.7528 0.52189 0.70528 0.0
C549 C 0.74921 0.51963 0.82818 0.0
C550 C 0.76423 0.51912 0.80929 0.0
C551 C 0.76529 0.52036 0.76948 0.0
C552 C 0.77788 0.51533 0.82973 0.0
C553 C 0.74797 0.51959 0.87092 0.0
C554 C 0.79744 0.52747 0.82552 0.0
C555 C 0.8102 0.52224 0.83955 0.0
C556 C 0.80358 0.50467 0.85764 0.0
C557 C 0.78403 0.49305 0.86368 0.0
C558 C 0.7713 0.4983 0.84972 0.0
H559 H 0.7399 0.52646 0.88063 0.0
H560 H 0.7404 0.50475 0.8812 0.0
H561 H 0.76225 0.52698 0.88411 0.0
H562 H 0.80279 0.54063 0.81003 0.0
H563 H 0.82518 0.53149 0.83434 0.0
H564 H 0.19411 0.68485 0.86649 0.0
H565 H 0.21655 0.71558 0.8936 0.0
H566 H 0.1703 0.72265 0.93216 0.0
H567 H 0.14766 0.69168 0.90563 0.0
H568 H 0.22349 0.75249 0.88558 0.0
H569 H 0.19788 0.72434 0.03082 0.0
H570 H 0.19126 0.70923 -0.01042 0.0
H571 H 0.18046 0.72339 -0.00173 0.0
C572 C 0.18868 0.69308 0.88006 0.0
C573 C 0.1691 0.68572 0.88433 0.0
C574 C 0.20154 0.71065 0.89558 0.0
C575 C 0.19508 0.72118 0.91564 0.0
C576 C 0.17556 0.71454 0.91751 0.0
H577 H 0.28564 0.8307 0.00189 0.0
H578 H 0.25432 0.80762 0.97746 0.0
C579 C 0.16266 0.69691 0.90205 0.0
C580 C 0.20886 0.73832 0.9367 0.0
H581 H 0.22419 0.75492 0.02643 0.0
C582 C 0.22351 0.75321 0.91635 0.0
C583 C 0.2089 0.73906 0.9769 0.0
C584 C 0.1939 0.72313 0.00035 0.0
C585 C 0.23861 0.76849 0.93508 0.0
C586 C 0.23886 0.76904 0.97531 0.0
C587 C 0.22383 0.75452 -0.00437 0.0
C588 C 0.25576 0.78319 -0.00348 0.0
C589 C 0.25474 0.7833 0.91168 0.0
C590 C 0.26631 0.77711 0.01766 0.0
C591 C 0.28407 0.79023 0.03203 0.0
C592 C 0.29162 0.80968 0.02542 0.0
C593 C 0.28028 0.81581 0.00722 0.0
C594 C 0.26245 0.80264 -0.00705 0.0
H595 H 0.25392 0.77894 0.88151 0.0
H596 H 0.2543 0.79666 0.91241 0.0
H597 H 0.26857 0.78622 0.92346 0.0
H598 H 0.26134 0.76215 0.02102 0.0
H599 H 0.29238 0.78503 0.0461 0.0
H600 H 0.61238 0.14326 0.66347 0.0
H601 H 0.60381 0.14672 0.7287 0.0
H602 H 0.55575 0.1496 0.68626 0.0
H603 H 0.56392 0.1459 0.62158 0.0
H604 H 0.5977 0.17504 0.76401 0.0
H605 H 0.53235 0.10458 0.76003 0.0
H606 H 0.55103 0.11181 0.7254 0.0
H607 H 0.53428 0.11995 0.72172 0.0
C608 C 0.60008 0.14477 0.66808 0.0
C609 C 0.58867 0.144 0.63743 0.0
C610 C 0.59522 0.14675 0.70528 0.0
C611 C 0.57894 0.14802 0.7122 0.0
C612 C 0.56812 0.14821 0.68153 0.0
H613 H 0.51781 0.1473 0.91549 0.0
H614 H 0.52964 0.15123 0.85013 0.0
C615 C 0.57286 0.14612 0.64456 0.0
C616 C 0.57271 0.14845 0.75143 0.0
H617 H 0.53613 0.12401 0.81307 0.0
C618 C 0.58429 0.16388 0.77487 0.0
C619 C 0.55517 0.13386 0.76534 0.0
C620 C 0.54254 0.11652 0.74199 0.0
C621 C 0.57862 0.16522 0.81185 0.0
C622 C 0.56105 0.15064 0.82566 0.0
C623 C 0.54949 0.13526 0.80216 0.0
C624 C 0.55488 0.15031 0.86525 0.0
C625 C 0.59133 0.18229 0.83571 0.0
C626 C 0.56518 0.14853 0.89518 0.0
C627 C 0.55845 0.14619 0.9323 0.0
C628 C 0.54121 0.14552 0.94026 0.0
C629 C 0.53113 0.14779 0.91031 0.0
C630 C 0.53786 0.15004 0.87302 0.0
H631 H 0.60153 0.19436 0.81795 0.0
H632 H 0.58291 0.18686 0.85288 0.0
H633 H 0.59956 0.17859 0.8555 0.0
H634 H 0.57814 0.14833 0.88968 0.0
H635 H 0.56661 0.14453 0.95468 0.0
H636 H 0.40947 0.56532 0.77326 0.0
H637 H 0.3954 0.5556 0.83607 0.0
H638 H 0.44295 0.60493 0.88517 0.0
H639 H 0.45703 0.61505 0.82194 0.0
H640 H 0.41075 0.54666 0.89445 0.0
H641 H 0.39853 0.60507 0.9368 0.0
H642 H 0.40354 0.60168 0.88839 0.0
H643 H 0.42246 0.6131 0.92233 0.0
C644 C 0.41689 0.57426 0.79732 0.0
C645 C 0.43444 0.59094 0.79264 0.0
C646 C 0.40878 0.56868 0.8332 0.0
C647 C 0.41801 0.57962 0.86522 0.0
C648 C 0.43537 0.59648 0.8607 0.0
H649 H 0.41369 0.56529 0.10359 0.0
H650 H 0.41923 0.57557 0.03769 0.0
C651 C 0.44347 0.60219 0.82461 0.0
C652 C 0.41019 0.57247 0.9035 0.0
H653 H 0.39668 0.58407 0.98628 0.0
C654 C 0.40741 0.55471 0.91436 0.0
C655 C 0.4058 0.58299 0.92931 0.0
C656 C 0.40755 0.60168 0.91854 0.0
C657 C 0.40109 0.54751 0.9509 0.0
C658 C 0.39726 0.55829 0.97706 0.0
C659 C 0.39957 0.57583 0.96597 0.0
C660 C 0.39274 0.55244 0.01715 0.0
C661 C 0.39934 0.52882 0.96181 0.0
C662 C 0.3758 0.53615 0.02746 0.0
C663 C 0.37253 0.53015 0.06537 0.0
C664 C 0.38622 0.54036 0.09332 0.0
C665 C 0.4029 0.55696 0.0828 0.0
C666 C 0.40608 0.56295 0.04515 0.0
H667 H 0.40557 0.52367 0.9401 0.0
H668 H 0.40645 0.53007 -0.01056 0.0
H669 H 0.38415 0.51805 0.96509 0.0
H670 H 0.36526 0.52797 0.00615 0.0
H671 H 0.35951 0.51736 0.07261 0.0
H672 H 0.81511 0.44751 0.98549 0.0
H673 H 0.81013 0.43386 0.04952 0.0
H674 H 0.85954 0.428 0.03617 0.0
H675 H 0.86395 0.44063 0.97207 0.0
H676 H 0.83173 0.39696 0.06487 0.0
H677 H 0.83778 0.4584 0.14516 0.0
H678 H 0.81914 0.44871 0.11054 0.0
H679 H 0.84342 0.45979 0.09536 0.0
C680 C 0.82494 0.44342 -0.0035 0.0
C681 C 0.83991 0.44511 0.9739 0.0
C682 C 0.82213 0.43569 0.03308 0.0
C683 C 0.83457 0.43006 0.04787 0.0
C684 C 0.84968 0.4321 0.02538 0.0
H685 H 0.86588 0.4214 0.27206 0.0
H686 H 0.86058 0.42916 0.20818 0.0
C687 C 0.85223 0.4394 -0.01124 0.0
C688 C 0.83209 0.42183 0.08647 0.0
H689 H 0.83219 0.43173 0.18064 0.0
C690 C 0.83174 0.40452 0.09024 0.0
C691 C 0.83208 0.4317 0.1195 0.0
C692 C 0.83329 0.45075 0.11762 0.0
C693 C 0.83244 0.3973 0.12599 0.0
C694 C 0.8327 0.40731 0.15902 0.0
C695 C 0.832 0.42409 0.15528 0.0
C696 C 0.83575 0.40187 0.19749 0.0
C697 C 0.83401 0.37966 0.12779 0.0
C698 C 0.82369 0.38382 0.21276 0.0
C699 C 0.82701 0.37917 0.24918 0.0
C700 C 0.84212 0.39269 0.27115 0.0
C701 C 0.85407 0.41072 0.25583 0.0
C702 C 0.851 0.41519 0.21935 0.0
H703 H 0.8383 0.37647 0.10005 0.0
H704 H 0.84447 0.38106 0.14959 0.0
H705 H 0.82004 0.36743 0.13545 0.0
H706 H 0.81157 0.37343 0.19683 0.0
H707 H 0.81746 0.36525 0.26057 0.0
H708 H 0.40909 0.8367 0.44731 0.0
H709 H 0.3981 0.83405 0.38215 0.0
H710 H 0.4505 0.83961 0.34131 0.0
H711 H 0.46156 0.84191 0.40699 0.0
H712 H 0.41528 0.86185 0.32921 0.0
H713 H 0.41098 0.79538 0.27845 0.0
H714 H 0.41274 0.80147 0.32819 0.0
H715 H 0.43344 0.81222 0.29855 0.0
C716 C 0.41824 0.83714 0.42455 0.0
C717 C 0.43627 0.83964 0.43228 0.0
C718 C 0.4119 0.83559 0.38731 0.0
C719 C 0.42341 0.83652 0.35693 0.0
C720 C 0.44124 0.8385 0.36442 0.0
H721 H 0.41758 0.84939 0.11567 0.0
H722 H 0.42594 0.84596 0.18045 0.0
C723 C 0.44758 0.83991 0.4019 0.0
C724 C 0.41722 0.83696 0.31763 0.0
H725 H 0.40704 0.81429 0.23203 0.0
C726 C 0.41335 0.85137 0.30802 0.0
C727 C 0.41477 0.82329 0.29011 0.0
C728 C 0.41803 0.8071 0.29932 0.0
C729 C 0.40734 0.85266 0.27145 0.0
C730 C 0.40492 0.83904 0.24393 0.0
C731 C 0.40882 0.82463 0.2534 0.0
C732 C 0.39919 0.84009 0.20463 0.0
C733 C 0.40404 0.86885 0.26226 0.0
C734 C 0.38123 0.83766 0.1968 0.0
C735 C 0.37635 0.83963 0.15968 0.0
C736 C 0.38939 0.84407 0.12989 0.0
C737 C 0.40722 0.8461 0.13792 0.0
C738 C 0.41203 0.84406 0.1749 0.0
H739 H 0.41011 0.88013 0.28423 0.0
H740 H 0.41034 0.87516 0.23431 0.0
H741 H 0.38859 0.86347 0.26061 0.0
H742 H 0.37107 0.83437 0.21945 0.0
H743 H 0.36249 0.83789 0.15442 0.0
H744 H 0.56112 0.41891 0.61112 0.0
H745 H 0.55491 0.40765 0.54584 0.0
H746 H 0.6081 0.45527 0.51081 0.0
H747 H 0.61456 0.46682 0.57665 0.0
H748 H 0.575 0.449 0.46884 0.0
H749 H 0.57956 0.38362 0.48034 0.0
H750 H 0.56521 0.38597 0.5162 0.0
H751 H 0.59019 0.40258 0.5147 0.0
C752 C 0.57164 0.42698 0.58971 0.0
C753 C 0.58833 0.44383 0.59908 0.0
C754 C 0.56811 0.42039 0.55244 0.0
C755 C 0.58117 0.43047 0.52372 0.0
C756 C 0.59795 0.44722 0.5328 0.0
H757 H 0.56722 0.41706 0.27906 0.0
H758 H 0.58009 0.42698 0.34274 0.0
C759 C 0.6016 0.45379 0.57033 0.0
C760 C 0.57636 0.42418 0.4839 0.0
H761 H 0.56439 0.38665 0.42489 0.0
C762 C 0.57295 0.43551 0.45897 0.0
C763 C 0.57347 0.40645 0.47148 0.0
C764 C 0.57745 0.39399 0.49695 0.0
C765 C 0.56609 0.42931 0.42217 0.0
C766 C 0.563 0.41148 0.40979 0.0
C767 C 0.56673 0.40027 0.43454 0.0
C768 C 0.55587 0.40431 0.3712 0.0
C769 C 0.56153 0.4416 0.39739 0.0
C770 C 0.53834 0.38772 0.36604 0.0
C771 C 0.53097 0.38183 0.32947 0.0
C772 C 0.54103 0.39253 0.29765 0.0
C773 C 0.55895 0.40867 0.303 0.0
C774 C 0.56633 0.41441 0.33938 0.0
H775 H 0.55994 0.45221 0.41433 0.0
H776 H 0.57323 0.44937 0.37687 0.0
H777 H 0.54829 0.43291 0.38107 0.0
H778 H 0.53013 0.37965 0.39035 0.0
H779 H 0.51717 0.36931 0.32623 0.0
H780 H 0.15975 0.53658 0.47759 0.0
H781 H 0.16383 0.55041 0.54124 0.0
H782 H 0.11806 0.56124 0.51938 0.0
H783 H 0.11456 0.54837 0.45563 0.0
H784 H 0.14619 0.5907 0.55258 0.0
H785 H 0.13136 0.52585 0.63183 0.0
H786 H 0.15127 0.53459 0.60034 0.0
H787 H 0.12786 0.52574 0.58129 0.0
C788 C 0.15054 0.54186 0.48655 0.0
C789 C 0.13681 0.54135 0.46174 0.0
C790 C 0.15284 0.54969 0.52293 0.0
C791 C 0.14107 0.55664 0.53533 0.0
C792 C 0.12735 0.55606 0.51047 0.0
H793 H 0.1054 0.56536 0.75599 0.0
H794 H 0.11084 0.55812 0.69172 0.0
C795 C 0.12532 0.54862 0.47405 0.0
C796 C 0.14268 0.56444 0.57412 0.0
H797 H 0.13823 0.55272 0.66801 0.0
C798 C 0.14454 0.58244 0.57789 0.0
C799 C 0.14047 0.55362 0.60708 0.0
C800 C 0.13746 0.53382 0.60508 0.0
C801 C 0.14337 0.58956 0.61348 0.0
C802 C 0.14097 0.57865 0.64637 0.0
C803 C 0.14005 0.56106 0.64274 0.0
C804 C 0.13752 0.58415 0.68443 0.0
C805 C 0.14369 0.60819 0.61516 0.0
C806 C 0.15051 0.60142 0.70157 0.0
C807 C 0.14716 0.60581 0.73822 0.0
C808 C 0.13103 0.59276 0.75849 0.0
C809 C 0.118 0.57564 0.74107 0.0
C810 C 0.12113 0.57146 0.70439 0.0
H811 H 0.1409 0.61238 0.58694 0.0
H812 H 0.133 0.60753 0.63558 0.0
H813 H 0.15787 0.61942 0.62472 0.0
H814 H 0.16345 0.61127 0.68709 0.0
H815 H 0.15752 0.619 0.75126 0.0
H816 H 0.48438 0.06354 0.0925 0.0
H817 H 0.46311 0.02965 0.08382 0.0
H818 H 0.43409 0.04098 -0.00578 0.0
H819 H 0.45498 0.07509 0.00375 0.0
H820 H 0.40948 0.01129 0.03818 0.0
H821 H 0.46964 0.00205 -0.00441 0.0
H822 H 0.47299 0.01231 0.04197 0.0
H823 H 0.47194 0.02505 0.00115 0.0
C824 C 0.47339 0.05884 0.07112 0.0
C825 C 0.47152 0.07196 0.04842 0.0
C826 C 0.46129 0.03946 0.06608 0.0
C827 C 0.44737 0.03279 0.03765 0.0
C828 C 0.44486 0.04584 0.01611 0.0
H829 H 0.40347 0.91806 0.95714 0.0
H830 H 0.41654 0.95224 0.95991 0.0
C831 C 0.4568 0.0653 0.02156 0.0
C832 C 0.43608 0.01224 0.02951 0.0
H833 H 0.44065 0.97391 0.00919 0.0
C834 C 0.41624 0.0031 0.0315 0.0
C835 C 0.44489 0.00165 0.01991 0.0
C836 C 0.46602 0.0108 0.0141 0.0
C837 C 0.40501 0.9835 0.0253 0.0
C838 C 0.41393 0.97275 0.01797 0.0
C839 C 0.43375 0.98206 0.01508 0.0
C840 C 0.40331 0.95184 0.01351 0.0
C841 C 0.38376 0.97464 0.02614 0.0
C842 C 0.39103 0.9401 0.04214 0.0
C843 C 0.38317 0.92045 0.0401 0.0
C844 C 0.38792 0.91232 0.00997 0.0
C845 C 0.39969 0.924 0.98081 0.0
C846 C 0.40716 0.94353 0.98239 0.0
H847 H 0.37936 0.98514 0.01905 0.0
H848 H 0.37683 0.96261 0.00594 0.0
H849 H 0.37857 0.96931 0.05519 0.0
H850 H 0.38822 0.94614 0.06695 0.0
H851 H 0.37428 0.91176 0.06313 0.0
H852 H 0.486 0.41849 0.15975 0.0
H853 H 0.46306 0.42915 0.165 0.0
H854 H 0.42411 0.37731 0.22204 0.0
H855 H 0.44719 0.36647 0.21729 0.0
H856 H 0.42496 0.41201 0.1385 0.0
H857 H 0.43089 0.41991 0.29598 0.0
H858 H 0.44797 0.41734 0.2679 0.0
H859 H 0.42498 0.39725 0.27636 0.0
C860 C 0.47257 0.40927 0.17336 0.0
C861 C 0.46852 0.39167 0.18839 0.0
C862 C 0.45943 0.41537 0.17618 0.0
C863 C 0.44199 0.40409 0.19417 0.0
C864 C 0.43762 0.38631 0.20845 0.0
H865 H 0.36445 0.45059 0.18991 0.0
H866 H 0.37442 0.42681 0.18699 0.0
C867 C 0.45079 0.38014 0.20559 0.0
C868 C 0.42892 0.41157 0.19883 0.0
H869 H 0.41333 0.43137 0.2646 0.0
C870 C 0.42205 0.41593 0.16608 0.0
C871 C 0.42531 0.41671 0.23489 0.0
C872 C 0.43271 0.41271 0.2709 0.0
C873 C 0.41248 0.42618 0.16827 0.0
C874 C 0.40955 0.43199 0.20424 0.0
C875 C 0.41556 0.42679 0.23712 0.0
C876 C 0.40271 0.44562 0.20797 0.0
C877 C 0.40665 0.43174 0.13203 0.0
C878 C 0.41517 0.46387 0.22151 0.0
C879 C 0.40956 0.47741 0.22327 0.0
C880 C 0.3913 0.47298 0.21163 0.0
C881 C 0.37864 0.4545 0.19891 0.0
C882 C 0.38431 0.44091 0.19711 0.0
H883 H 0.41228 0.42829 0.10639 0.0
H884 H 0.39098 0.42409 0.13006 0.0
H885 H 0.41168 0.44714 0.132 0.0
H886 H 0.42944 0.46777 0.23001 0.0
H887 H 0.41966 0.49144 0.23341 0.0
H888 H 0.07194 0.45738 0.39729 0.0
H889 H 0.03772 0.43597 0.40279 0.0
H890 H 0.02928 0.45656 0.2959 0.0
H891 H 0.06326 0.47853 0.29126 0.0
H892 H 0.00839 0.45927 0.34785 0.0
H893 H -0.00153 0.38718 0.35642 0.0
H894 H 0.01491 0.40279 0.39127 0.0
H895 H 0.02052 0.40736 0.34155 0.0
C896 C 0.06278 0.457 0.37461 0.0
C897 C 0.07018 0.4697 0.34402 0.0
C898 C 0.04323 0.44466 0.37763 0.0
C899 C 0.03089 0.44452 0.3496 0.0
C900 C 0.03849 0.45643 0.31793 0.0
H901 H 0.90769 0.37375 0.34053 0.0
H902 H 0.94174 0.38625 0.3316 0.0
C903 C 0.0579 0.46899 0.31531 0.0
C904 C 0.01006 0.43394 0.35538 0.0
H905 H 0.97213 0.39059 0.37628 0.0
C906 C 0.00049 0.44421 0.35367 0.0
C907 C -0.00034 0.41426 0.36273 0.0
C908 C 0.00889 0.40222 0.36271 0.0
C909 C 0.98094 0.43548 0.35955 0.0
C910 C 0.97069 0.41602 0.36884 0.0
C911 C 0.98009 0.40557 0.36978 0.0
C912 C 0.95019 0.4065 0.37755 0.0
C913 C 0.97145 0.4472 0.35523 0.0
C914 C 0.9437 0.41321 0.4073 0.0
C915 C 0.92437 0.40635 0.41207 0.0
C916 C 0.91114 0.39234 0.38766 0.0
C917 C 0.91757 0.3846 0.35968 0.0
C918 C 0.937 0.3917 0.35456 0.0
H919 H 0.98002 0.45996 0.33751 0.0
H920 H 0.95721 0.43884 0.34214 0.0
H921 H 0.96976 0.45205 0.38366 0.0
H922 H 0.95364 0.4243 0.42596 0.0
H923 H 0.91983 0.41237 0.43429 0.0
H924 H 0.48542 0.92023 0.57417 0.0
H925 H 0.50808 0.95398 0.57031 0.0
H926 H 0.54931 0.94213 0.52044 0.0
H927 H 0.52656 0.9081 0.52382 0.0
H928 H 0.54523 0.97542 0.60133 0.0
H929 H 0.54419 0.9777 0.4432 0.0
H930 H 0.52647 0.95786 0.46992 0.0
H931 H 0.54978 0.96108 0.46456 0.0
C932 C 0.4993 0.92471 0.56244 0.0
C933 C 0.5041 0.91143 0.549 0.0
C934 C 0.51227 0.94404 0.5604 0.0
C935 C 0.53028 0.95053 0.54478 0.0
C936 C 0.53537 0.93738 0.53216 0.0
H937 H 0.6099 0.07392 0.55236 0.0
H938 H 0.59824 0.03985 0.55676 0.0
C939 C 0.52238 0.91795 0.53424 0.0
C940 C 0.54326 0.97114 0.54082 0.0
H941 H 0.56136 0.00666 0.47521 0.0
C942 C 0.54907 0.98229 0.5738 0.0
C943 C 0.54807 0.97996 0.5048 0.0
C944 C 0.54176 0.96863 0.46849 0.0
C945 C 0.55893 0.00212 0.57175 0.0
C946 C 0.56323 0.01095 0.53572 0.0
C947 C 0.5581 -0.00021 0.50275 0.0
C948 C 0.57099 0.03157 0.53162 0.0
C949 C 0.56372 0.01347 0.60802 0.0
C950 C 0.55967 0.03812 0.51531 0.0
C951 C 0.56625 0.05747 0.51269 0.0
C952 C 0.58435 0.07071 0.52622 0.0
C953 C 0.59586 0.0641 0.54184 0.0
C954 C 0.58922 0.04466 0.5445 0.0
H955 H 0.55689 0.0044 0.63323 0.0
H956 H 0.57928 0.02101 0.61239 0.0
H957 H 0.55926 0.02425 0.60619 0.0
H958 H 0.54555 0.02822 0.50519 0.0
H959 H 0.55702 0.06201 0.50033 0.0
H960 H 0.61286 0.53482 0.69113 0.0
H961 H 0.6037 0.5592 0.68828 0.0
H962 H 0.55002 0.52061 0.73982 0.0
H963 H 0.55901 0.49637 0.74312 0.0
H964 H 0.57302 0.55658 0.64926 0.0
H965 H 0.56721 0.56868 0.80179 0.0
H966 H 0.57985 0.55721 0.78477 0.0
H967 H 0.55452 0.54394 0.79043 0.0
C968 C 0.5992 0.53162 0.70228 0.0
C969 C 0.58667 0.51363 0.71734 0.0
C970 C 0.59402 0.54556 0.70065 0.0
C971 C 0.57633 0.54181 0.71448 0.0
C972 C 0.56393 0.52397 0.72987 0.0
H973 H 0.4937 0.56787 0.65486 0.0
H974 H 0.51735 0.55819 0.66072 0.0
C975 C 0.56904 0.51005 0.73139 0.0
C976 C 0.56992 0.55576 0.71012 0.0
H977 H 0.54827 0.57579 0.75898 0.0
C978 C 0.56801 0.56116 0.67331 0.0
C979 C 0.56372 0.56205 0.74152 0.0
C980 C 0.56662 0.55783 0.78187 0.0
C981 C 0.55864 0.57137 0.66688 0.0
C982 C 0.55076 0.57599 0.69803 0.0
C983 C 0.55407 0.57198 0.73505 0.0
C984 C 0.53725 0.5829 0.69259 0.0
C985 C 0.55669 0.57654 0.62667 0.0
C986 C 0.54043 0.59987 0.70921 0.0
C987 C 0.52681 0.60545 0.70608 0.0
C988 C 0.5097 0.594 0.68669 0.0
C989 C 0.50669 0.57707 0.66995 0.0
C990 C 0.52029 0.57157 0.67296 0.0
H991 H 0.56849 0.57797 0.60855 0.0
H992 H 0.54326 0.56514 0.61439 0.0
H993 H 0.5564 0.58999 0.62567 0.0
H994 H 0.55336 0.6087 0.72484 0.0
H995 H 0.52954 0.61855 0.71939 0.0
H996 H 0.05285 0.56628 0.90893 0.0
H997 H 0.01993 0.55829 0.90491 0.0
H998 H 0.03684 0.61249 0.85402 0.0
H999 H 0.07014 0.62063 0.85739 0.0
H1000 H 0.00055 0.57598 0.93397 0.0
H1001 H 0.00022 0.57396 0.77564 0.0
H1002 H 0.01926 0.57471 0.8031 0.0
H1003 H 0.01727 0.59554 0.79856 0.0
C1004 C 0.04969 0.57662 0.89703 0.0
C1005 C 0.06416 0.59402 0.88306 0.0
C1006 C 0.03082 0.57204 0.89494 0.0
C1007 C 0.02594 0.5847 0.87881 0.0
C1008 C 0.04032 0.60242 0.8661 0.0
H1009 H 0.9014 0.53631 0.88245 0.0
H1010 H 0.93475 0.56124 0.88678 0.0
C1011 C 0.05932 0.60706 0.86819 0.0
C1012 C 0.00563 0.57849 0.87373 0.0
H1013 H 0.97095 0.56135 0.80624 0.0
C1014 C -0.00596 0.57317 0.90608 0.0
C1015 C -0.00273 0.57481 0.83725 0.0
C1016 C 0.00904 0.57992 0.80153 0.0
C1017 C 0.97423 0.56308 0.90297 0.0
C1018 C 0.96587 0.55847 0.86647 0.0
C1019 C 0.97746 0.56496 0.83414 0.0
C1020 C 0.94556 0.54442 0.86127 0.0
C1021 C 0.96246 0.55618 0.93867 0.0
C1022 C 0.94061 0.52696 0.84451 0.0
C1023 C 0.9217 0.5128 0.84184 0.0
C1024 C 0.90726 0.51577 0.85587 0.0
C1025 C 0.91219 0.53352 0.8716 0.0
C1026 C 0.93122 0.54776 0.87422 0.0
H1027 H 0.97129 0.55888 0.96448 0.0
H1028 H 0.95424 0.56356 0.94207 0.0
H1029 H 0.95225 0.54077 0.93673 0.0
H1030 H 0.95147 0.5241 0.83436 0.0
H1031 H 0.91847 0.49938 0.82936 0.0
loop_
_geom_bond_atom_site_label_1
_geom_bond_atom_site_label_2
_geom_bond_distance
_geom_bond_site_symmetry_2
_ccdc_geom_bond_type
C0 O1 1.306 1_556 S
C0 O3 1.160 . S
O1 C0 1.306 1_554 S
O1 Cd2 2.228 . S
Cd2 O1 2.228 . S
Cd2 O6 2.273 . S
Cd2 O10 2.277 . S
O3 C0 1.160 . S
O3 Cd4 2.203 1_556 S
Cd4 O3 2.203 1_554 S
Cd4 O6 2.411 . S
Cd4 O7 2.333 . S
Cd4 O8 2.352 . S
Cd4 O12 2.277 . S
Cd4 O13 2.356 . S
C5 O10 1.209 . S
C5 O12 1.226 . S
O6 Cd2 2.273 . S
O6 Cd4 2.411 . S
O6 C9 1.320 . S
O7 Cd4 2.333 . S
O7 C9 1.214 . S
O8 Cd4 2.352 . S
O8 C11 1.258 . S
C9 O6 1.320 . S
C9 O7 1.214 . S
O10 Cd2 2.277 . S
O10 C5 1.209 . S
C11 O8 1.258 . S
C11 O13 1.282 . S
O12 Cd4 2.277 . S
O12 C5 1.226 . S
O13 Cd4 2.356 . S
O13 C11 1.282 . S
C14 O15 1.306 . S
C14 O17 1.160 . S
O15 C14 1.306 . S
O15 Cd16 2.228 . S
Cd16 O15 2.228 . S
Cd16 O20 2.273 . S
Cd16 O24 2.277 . S
O17 C14 1.160 . S
O17 Cd18 2.203 . S
Cd18 O17 2.203 . S
Cd18 O20 2.411 . S
Cd18 O21 2.333 . S
Cd18 O22 2.352 . S
Cd18 O26 2.277 . S
Cd18 O27 2.356 . S
C19 O24 1.209 . S
C19 O26 1.226 . S
O20 Cd16 2.273 . S
O20 Cd18 2.411 . S
O20 C23 1.320 . S
O21 Cd18 2.333 . S
O21 C23 1.214 . S
O22 Cd18 2.352 . S
O22 C25 1.258 . S
C23 O20 1.320 . S
C23 O21 1.214 . S
O24 Cd16 2.277 . S
O24 C19 1.209 . S
C25 O22 1.258 . S
C25 O27 1.282 . S
O26 Cd18 2.277 . S
O26 C19 1.226 . S
O27 Cd18 2.356 . S
O27 C25 1.282 . S
C28 O29 1.306 . S
C28 O31 1.160 . S
O29 C28 1.306 . S
O29 Cd30 2.228 . S
Cd30 O29 2.228 . S
Cd30 O34 2.273 . S
Cd30 O38 2.277 . S
O31 C28 1.160 . S
O31 Cd32 2.203 . S
Cd32 O31 2.203 . S
Cd32 O34 2.411 . S
Cd32 O35 2.333 . S
Cd32 O36 2.352 . S
Cd32 O40 2.277 . S
Cd32 O41 2.356 . S
C33 O38 1.209 . S
C33 O40 1.226 . S
O34 Cd30 2.273 . S
O34 Cd32 2.411 . S
O34 C37 1.320 . S
O35 Cd32 2.333 . S
O35 C37 1.214 . S
O36 Cd32 2.352 . S
O36 C39 1.258 . S
C37 O34 1.320 . S
C37 O35 1.214 . S
O38 Cd30 2.277 . S
O38 C33 1.209 . S
C39 O36 1.258 . S
C39 O41 1.282 . S
O40 Cd32 2.277 . S
O40 C33 1.226 . S
O41 Cd32 2.356 . S
O41 C39 1.282 . S
C42 O43 1.306 . S
C42 O45 1.160 . S
O43 C42 1.306 . S
O43 Cd44 2.228 . S
Cd44 O43 2.228 . S
Cd44 O48 2.273 . S
Cd44 O52 2.277 . S
O45 C42 1.160 . S
O45 Cd46 2.203 . S
Cd46 O45 2.203 . S
Cd46 O48 2.411 . S
Cd46 O49 2.333 . S
Cd46 O50 2.352 . S
Cd46 O54 2.277 . S
Cd46 O55 2.356 . S
C47 O52 1.209 . S
C47 O54 1.226 . S
O48 Cd44 2.273 . S
O48 Cd46 2.411 . S
O48 C51 1.320 . S
O49 Cd46 2.333 . S
O49 C51 1.214 . S
O50 Cd46 2.352 . S
O50 C53 1.258 . S
C51 O48 1.320 . S
C51 O49 1.214 . S
O52 Cd44 2.277 . S
O52 C47 1.209 . S
C53 O50 1.258 . S
C53 O55 1.282 . S
O54 Cd46 2.277 . S
O54 C47 1.226 . S
O55 Cd46 2.356 . S
O55 C53 1.282 . S
C56 O57 1.306 . S
C56 O59 1.160 . S
O57 C56 1.306 . S
O57 Cd58 2.228 . S
Cd58 O57 2.228 . S
Cd58 O62 2.273 . S
Cd58 O66 2.277 . S
O59 C56 1.160 . S
O59 Cd60 2.203 . S
Cd60 O59 2.203 . S
Cd60 O62 2.411 . S
Cd60 O63 2.333 . S
Cd60 O64 2.352 . S
Cd60 O68 2.277 . S
Cd60 O69 2.356 . S
C61 O66 1.209 . S
C61 O68 1.226 . S
O62 Cd58 2.273 . S
O62 Cd60 2.411 . S
O62 C65 1.320 . S
O63 Cd60 2.333 . S
O63 C65 1.214 . S
O64 Cd60 2.352 . S
O64 C67 1.258 . S
C65 O62 1.320 . S
C65 O63 1.214 . S
O66 Cd58 2.277 . S
O66 C61 1.209 . S
C67 O64 1.258 . S
C67 O69 1.282 . S
O68 Cd60 2.277 . S
O68 C61 1.226 . S
O69 Cd60 2.356 . S
O69 C67 1.282 . S
C70 O71 1.306 . S
C70 O73 1.160 . S
O71 C70 1.306 . S
O71 Cd72 2.228 . S
Cd72 O71 2.228 . S
Cd72 O76 2.273 . S
Cd72 O80 2.277 . S
O73 C70 1.160 . S
O73 Cd74 2.203 . S
Cd74 O73 2.203 . S
Cd74 O76 2.411 . S
Cd74 O77 2.333 . S
Cd74 O78 2.352 . S
Cd74 O82 2.277 . S
Cd74 O83 2.356 . S
C75 O80 1.209 . S
C75 O82 1.226 . S
O76 Cd72 2.273 . S
O76 Cd74 2.411 . S
O76 C79 1.320 . S
O77 Cd74 2.333 . S
O77 C79 1.214 . S
O78 Cd74 2.352 . S
O78 C81 1.258 . S
C79 O76 1.320 . S
C79 O77 1.214 . S
O80 Cd72 2.277 . S
O80 C75 1.209 . S
C81 O78 1.258 . S
C81 O83 1.282 . S
O82 Cd74 2.277 . S
O82 C75 1.226 . S
O83 Cd74 2.356 . S
O83 C81 1.282 . S
C84 O85 1.306 . S
C84 O87 1.160 . S
O85 C84 1.306 . S
O85 Cd86 2.228 . S
Cd86 O85 2.228 . S
Cd86 O90 2.273 . S
Cd86 O94 2.277 . S
O87 C84 1.160 . S
O87 Cd88 2.203 . S
Cd88 O87 2.203 . S
Cd88 O90 2.411 . S
Cd88 O91 2.333 . S
Cd88 O92 2.352 . S
Cd88 O96 2.277 . S
Cd88 O97 2.356 . S
C89 O94 1.209 . S
C89 O96 1.226 . S
O90 Cd86 2.273 . S
O90 Cd88 2.411 . S
O90 C93 1.320 . S
O91 Cd88 2.333 . S
O91 C93 1.214 . S
O92 Cd88 2.352 . S
O92 C95 1.258 . S
C93 O90 1.320 . S
C93 O91 1.214 . S
O94 Cd86 2.277 . S
O94 C89 1.209 . S
C95 O92 1.258 . S
C95 O97 1.282 . S
O96 Cd88 2.277 . S
O96 C89 1.226 . S
O97 Cd88 2.356 . S
O97 C95 1.282 . S
C98 O99 1.306 . S
C98 O101 1.160 . S
O99 C98 1.306 . S
O99 Cd100 2.228 . S
Cd100 O99 2.228 . S
Cd100 O104 2.273 . S
Cd100 O108 2.277 . S
O101 C98 1.160 . S
O101 Cd102 2.203 . S
Cd102 O101 2.203 . S
Cd102 O104 2.411 . S
Cd102 O105 2.333 1_554 S
Cd102 O106 2.352 . S
Cd102 O110 2.277 . S
Cd102 O111 2.356 . S
C103 O108 1.209 . S
C103 O110 1.226 . S
O104 Cd100 2.273 . S
O104 Cd102 2.411 . S
O104 C107 1.320 1_554 S
O105 Cd102 2.333 1_556 S
O105 C107 1.214 . S
O106 Cd102 2.352 . S
O106 C109 1.258 . S
C107 O104 1.320 1_556 S
C107 O105 1.214 . S
O108 Cd100 2.277 . S
O108 C103 1.209 . S
C109 O106 1.258 . S
C109 O111 1.282 . S
O110 Cd102 2.277 . S
O110 C103 1.226 . S
O111 Cd102 2.356 . S
O111 C109 1.282 . S
C112 O113 1.306 . S
C112 O115 1.160 . S
O113 C112 1.306 . S
O113 Cd114 2.228 . S
Cd114 O113 2.228 . S
Cd114 O118 2.273 . S
Cd114 O122 2.277 . S
O115 C112 1.160 . S
O115 Cd116 2.203 . S
Cd116 O115 2.203 . S
Cd116 O118 2.411 . S
Cd116 O119 2.333 . S
Cd116 O120 2.352 . S
Cd116 O124 2.277 . S
Cd116 O125 2.356 . S
C117 O122 1.209 . S
C117 O124 1.226 . S
O118 Cd114 2.273 . S
O118 Cd116 2.411 . S
O118 C121 1.320 . S
O119 Cd116 2.333 . S
O119 C121 1.214 . S
O120 Cd116 2.352 . S
O120 C123 1.258 . S
C121 O118 1.320 . S
C121 O119 1.214 . S
O122 Cd114 2.277 . S
O122 C117 1.209 . S
C123 O120 1.258 . S
C123 O125 1.282 . S
O124 Cd116 2.277 . S
O124 C117 1.226 . S
O125 Cd116 2.356 . S
O125 C123 1.282 . S
C126 O127 1.306 . S
C126 O129 1.160 . S
O127 C126 1.306 . S
O127 Cd128 2.228 . S
Cd128 O127 2.228 . S
Cd128 O132 2.273 . S
Cd128 O136 2.277 . S
O129 C126 1.160 . S
O129 Cd130 2.203 . S
Cd130 O129 2.203 . S
Cd130 O132 2.411 . S
Cd130 O133 2.333 . S
Cd130 O134 2.352 . S
Cd130 O138 2.277 . S
Cd130 O139 2.356 . S
C131 O136 1.209 . S
C131 O138 1.226 . S
O132 Cd128 2.273 . S
O132 Cd130 2.411 . S
O132 C135 1.320 . S
O133 Cd130 2.333 . S
O133 C135 1.214 . S
O134 Cd130 2.352 . S
O134 C137 1.258 . S
C135 O132 1.320 . S
C135 O133 1.214 . S
O136 Cd128 2.277 . S
O136 C131 1.209 . S
C137 O134 1.258 . S
C137 O139 1.282 . S
O138 Cd130 2.277 . S
O138 C131 1.226 . S
O139 Cd130 2.356 . S
O139 C137 1.282 . S
C140 O141 1.306 . S
C140 O143 1.160 . S
O141 C140 1.306 . S
O141 Cd142 2.228 . S
Cd142 O141 2.228 . S
Cd142 O146 2.273 . S
Cd142 O150 2.277 . S
O143 C140 1.160 . S
O143 Cd144 2.203 . S
Cd144 O143 2.203 . S
Cd144 O146 2.411 . S
Cd144 O147 2.333 . S
Cd144 O148 2.352 . S
Cd144 O152 2.277 . S
Cd144 O153 2.356 . S
C145 O150 1.209 . S
C145 O152 1.226 . S
O146 Cd142 2.273 . S
O146 Cd144 2.411 . S
O146 C149 1.320 . S
O147 Cd144 2.333 . S
O147 C149 1.214 . S
O148 Cd144 2.352 . S
O148 C151 1.258 . S
C149 O146 1.320 . S
C149 O147 1.214 . S
O150 Cd142 2.277 . S
O150 C145 1.209 . S
C151 O148 1.258 . S
C151 O153 1.282 . S
O152 Cd144 2.277 . S
O152 C145 1.226 . S
O153 Cd144 2.356 . S
O153 C151 1.282 . S
C154 O155 1.306 . S
C154 O157 1.160 . S
O155 C154 1.306 . S
O155 Cd156 2.228 . S
Cd156 O155 2.228 . S
Cd156 O160 2.273 . S
Cd156 O164 2.277 . S
O157 C154 1.160 . S
O157 Cd158 2.203 . S
Cd158 O157 2.203 . S
Cd158 O160 2.411 . S
Cd158 O161 2.333 . S
Cd158 O162 2.352 . S
Cd158 O166 2.277 . S
Cd158 O167 2.356 . S
C159 O164 1.209 . S
C159 O166 1.226 . S
O160 Cd156 2.273 . S
O160 Cd158 2.411 . S
O160 C163 1.320 . S
O161 Cd158 2.333 . S
O161 C163 1.214 . S
O162 Cd158 2.352 . S
O162 C165 1.258 . S
C163 O160 1.320 . S
C163 O161 1.214 . S
O164 Cd156 2.277 . S
O164 C159 1.209 . S
C165 O162 1.258 . S
C165 O167 1.282 . S
O166 Cd158 2.277 . S
O166 C159 1.226 . S
O167 Cd158 2.356 . S
O167 C165 1.282 . S
H168 C176 0.929 . S
H169 C178 0.930 . S
H170 C180 0.930 . S
H171 C183 0.929 . S
H172 C186 0.930 . S
H173 C188 0.960 . S
H174 C188 0.960 . S
H175 C188 0.960 . S
C176 H168 0.929 . S
C176 C177 1.377 . S
C176 C178 1.384 . S
C177 C176 1.377 . S
C177 C183 1.390 . S
C178 H169 0.930 . S
C178 C176 1.384 . S
C178 C179 1.372 . S
C179 C178 1.372 . S
C179 C180 1.400 . S
C179 C184 1.490 . S
C180 H170 0.930 . S
C180 C179 1.400 . S
C180 C183 1.386 . S
H181 C197 0.930 . S
H182 C198 0.931 . S
C183 H171 0.929 . S
C183 C177 1.390 . S
C183 C180 1.386 . S
C184 C179 1.490 . S
C184 C186 1.395 . S
C184 C187 1.403 . S
H185 C191 0.930 . S
C186 H172 0.930 . S
C186 C184 1.395 . S
C186 C189 1.403 . S
C187 C184 1.403 . S
C187 C188 1.524 . S
C187 C191 1.400 . S
C188 H173 0.960 . S
C188 H174 0.960 . S
C188 H175 0.960 . S
C188 C187 1.524 . S
C189 C186 1.403 . S
C189 C190 1.392 . S
C189 C193 1.495 . S
C190 C189 1.392 . S
C190 C191 1.385 . S
C190 C192 1.478 . S
C191 H185 0.930 . S
C191 C187 1.400 . S
C191 C190 1.385 . S
C192 C190 1.478 . S
C192 C194 1.381 . S
C192 C198 1.383 . S
C193 C189 1.495 . S
C193 H199 0.959 . S
C193 H200 0.961 . S
C193 H201 0.960 . S
C194 C192 1.381 . S
C194 C195 1.394 . S
C194 H202 0.930 . S
C195 C194 1.394 . S
C195 C196 1.383 . S
C195 H203 0.929 . S
C196 C195 1.383 . S
C196 C197 1.377 . S
C197 H181 0.930 . S
C197 C196 1.377 . S
C197 C198 1.379 . S
C198 H182 0.931 . S
C198 C192 1.383 . S
C198 C197 1.379 . S
H199 C193 0.959 . S
H200 C193 0.961 . S
H201 C193 0.960 . S
H202 C194 0.930 . S
H203 C195 0.929 . S
H204 C212 0.929 . S
H205 C214 0.930 . S
H206 C216 0.930 . S
H207 C219 0.929 . S
H208 C222 0.930 . S
H209 C224 0.960 . S
H210 C224 0.960 . S
H211 C224 0.960 . S
C212 H204 0.929 . S
C212 C213 1.377 . S
C212 C214 1.384 . S
C213 C212 1.377 . S
C213 C219 1.390 . S
C214 H205 0.930 . S
C214 C212 1.384 . S
C214 C215 1.372 . S
C215 C214 1.372 . S
C215 C216 1.400 . S
C215 C220 1.490 . S
C216 H206 0.930 . S
C216 C215 1.400 . S
C216 C219 1.386 . S
H217 C233 0.930 . S
H218 C234 0.931 . S
C219 H207 0.929 . S
C219 C213 1.390 . S
C219 C216 1.386 . S
C220 C215 1.490 . S
C220 C222 1.395 . S
C220 C223 1.403 . S
H221 C227 0.930 . S
C222 H208 0.930 . S
C222 C220 1.395 . S
C222 C225 1.403 . S
C223 C220 1.403 . S
C223 C224 1.524 . S
C223 C227 1.400 . S
C224 H209 0.960 . S
C224 H210 0.960 . S
C224 H211 0.960 . S
C224 C223 1.524 . S
C225 C222 1.403 . S
C225 C226 1.392 . S
C225 C229 1.495 . S
C226 C225 1.392 . S
C226 C227 1.385 . S
C226 C228 1.478 . S
C227 H221 0.930 . S
C227 C223 1.400 . S
C227 C226 1.385 . S
C228 C226 1.478 . S
C228 C230 1.381 . S
C228 C234 1.383 . S
C229 C225 1.495 . S
C229 H235 0.959 . S
C229 H236 0.961 . S
C229 H237 0.960 . S
C230 C228 1.381 . S
C230 C231 1.394 . S
C230 H238 0.930 . S
C231 C230 1.394 . S
C231 C232 1.383 . S
C231 H239 0.929 . S
C232 C231 1.383 . S
C232 C233 1.377 . S
C233 H217 0.930 . S
C233 C232 1.377 . S
C233 C234 1.379 . S
C234 H218 0.931 . S
C234 C228 1.383 . S
C234 C233 1.379 . S
H235 C229 0.959 . S
H236 C229 0.961 . S
H237 C229 0.960 . S
H238 C230 0.930 . S
H239 C231 0.929 . S
H240 C248 0.929 . S
H241 C250 0.930 . S
H242 C252 0.930 . S
H243 C255 0.929 . S
H244 C258 0.930 . S
H245 C260 0.960 . S
H246 C260 0.960 . S
H247 C260 0.960 . S
C248 H240 0.929 . S
C248 C249 1.377 . S
C248 C250 1.384 . S
C249 C248 1.377 . S
C249 C255 1.390 . S
C250 H241 0.930 . S
C250 C248 1.384 . S
C250 C251 1.372 . S
C251 C250 1.372 . S
C251 C252 1.400 . S
C251 C256 1.490 . S
C252 H242 0.930 . S
C252 C251 1.400 . S
C252 C255 1.386 . S
H253 C269 0.930 . S
H254 C270 0.931 . S
C255 H243 0.929 . S
C255 C249 1.390 . S
C255 C252 1.386 . S
C256 C251 1.490 . S
C256 C258 1.395 . S
C256 C259 1.403 . S
H257 C263 0.930 . S
C258 H244 0.930 . S
C258 C256 1.395 . S
C258 C261 1.403 . S
C259 C256 1.403 . S
C259 C260 1.524 . S
C259 C263 1.400 . S
C260 H245 0.960 . S
C260 H246 0.960 . S
C260 H247 0.960 . S
C260 C259 1.524 . S
C261 C258 1.403 . S
C261 C262 1.392 . S
C261 C265 1.495 . S
C262 C261 1.392 . S
C262 C263 1.385 . S
C262 C264 1.478 . S
C263 H257 0.930 . S
C263 C259 1.400 . S
C263 C262 1.385 . S
C264 C262 1.478 . S
C264 C266 1.381 . S
C264 C270 1.383 . S
C265 C261 1.495 . S
C265 H271 0.959 . S
C265 H272 0.961 . S
C265 H273 0.960 . S
C266 C264 1.381 . S
C266 C267 1.394 . S
C266 H274 0.930 . S
C267 C266 1.394 . S
C267 C268 1.383 . S
C267 H275 0.929 . S
C268 C267 1.383 . S
C268 C269 1.377 . S
C269 H253 0.930 . S
C269 C268 1.377 . S
C269 C270 1.379 . S
C270 H254 0.931 . S
C270 C264 1.383 . S
C270 C269 1.379 . S
H271 C265 0.959 . S
H272 C265 0.961 . S
H273 C265 0.960 . S
H274 C266 0.930 . S
H275 C267 0.929 . S
H276 C284 0.929 . S
H277 C286 0.930 . S
H278 C288 0.930 . S
H279 C291 0.929 . S
H280 C294 0.930 . S
H281 C296 0.960 . S
H282 C296 0.960 . S
H283 C296 0.960 . S
C284 H276 0.929 . S
C284 C285 1.377 . S
C284 C286 1.384 . S
C285 C284 1.377 . S
C285 C291 1.390 . S
C286 H277 0.930 . S
C286 C284 1.384 . S
C286 C287 1.372 . S
C287 C286 1.372 . S
C287 C288 1.400 . S
C287 C292 1.490 . S
C288 H278 0.930 . S
C288 C287 1.400 . S
C288 C291 1.386 . S
H289 C305 0.930 . S
H290 C306 0.931 . S
C291 H279 0.929 . S
C291 C285 1.390 . S
C291 C288 1.386 . S
C292 C287 1.490 . S
C292 C294 1.395 . S
C292 C295 1.403 . S
H293 C299 0.930 . S
C294 H280 0.930 . S
C294 C292 1.395 . S
C294 C297 1.403 . S
C295 C292 1.403 . S
C295 C296 1.524 . S
C295 C299 1.400 . S
C296 H281 0.960 . S
C296 H282 0.960 . S
C296 H283 0.960 . S
C296 C295 1.524 . S
C297 C294 1.403 . S
C297 C298 1.392 . S
C297 C301 1.495 . S
C298 C297 1.392 . S
C298 C299 1.385 . S
C298 C300 1.478 . S
C299 H293 0.930 . S
C299 C295 1.400 . S
C299 C298 1.385 . S
C300 C298 1.478 . S
C300 C302 1.381 . S
C300 C306 1.383 . S
C301 C297 1.495 . S
C301 H307 0.959 . S
C301 H308 0.961 . S
C301 H309 0.960 . S
C302 C300 1.381 . S
C302 C303 1.394 . S
C302 H310 0.930 . S
C303 C302 1.394 . S
C303 C304 1.383 . S
C303 H311 0.929 . S
C304 C303 1.383 . S
C304 C305 1.377 . S
C305 H289 0.930 . S
C305 C304 1.377 . S
C305 C306 1.379 . S
C306 H290 0.931 . S
C306 C300 1.383 . S
C306 C305 1.379 . S
H307 C301 0.959 . S
H308 C301 0.961 . S
H309 C301 0.960 . S
H310 C302 0.930 . S
H311 C303 0.929 . S
H312 C320 0.929 . S
H313 C322 0.930 . S
H314 C324 0.930 . S
H315 C327 0.929 . S
H316 C330 0.930 1_554 S
H317 C332 0.960 . S
H318 C332 0.960 . S
H319 C332 0.960 . S
C320 H312 0.929 . S
C320 C321 1.377 . S
C320 C322 1.384 . S
C321 C320 1.377 . S
C321 C327 1.390 . S
C322 H313 0.930 . S
C322 C320 1.384 . S
C322 C323 1.372 . S
C323 C322 1.372 . S
C323 C324 1.400 . S
C323 C328 1.467 1_554 S
C324 H314 0.930 . S
C324 C323 1.400 . S
C324 C327 1.386 . S
H325 C341 0.930 . S
H326 C342 0.931 . S
C327 H315 0.929 . S
C327 C321 1.390 . S
C327 C324 1.386 . S
C328 C323 1.467 1_556 S
C328 C330 1.399 . S
C328 C331 1.422 . S
H329 C335 0.930 . S
C330 H316 0.930 1_556 S
C330 C328 1.399 . S
C330 C333 1.403 . S
C331 C328 1.422 . S
C331 C332 1.524 . S
C331 C335 1.400 . S
C332 H317 0.960 . S
C332 H318 0.960 . S
C332 H319 0.960 . S
C332 C331 1.524 . S
C333 C330 1.403 . S
C333 C334 1.392 . S
C333 C337 1.495 . S
C334 C333 1.392 . S
C334 C335 1.385 . S
C334 C336 1.478 . S
C335 H329 0.930 . S
C335 C331 1.400 . S
C335 C334 1.385 . S
C336 C334 1.478 . S
C336 C338 1.381 . S
C336 C342 1.383 . S
C337 C333 1.495 . S
C337 H343 0.959 . S
C337 H344 0.961 . S
C337 H345 0.960 . S
C338 C336 1.381 . S
C338 C339 1.394 . S
C338 H346 0.930 . S
C339 C338 1.394 . S
C339 C340 1.383 . S
C339 H347 0.929 . S
C340 C339 1.383 . S
C340 C341 1.377 . S
C341 H325 0.930 . S
C341 C340 1.377 . S
C341 C342 1.379 . S
C342 H326 0.931 . S
C342 C336 1.383 . S
C342 C341 1.379 . S
H343 C337 0.959 . S
H344 C337 0.961 . S
H345 C337 0.960 . S
H346 C338 0.930 . S
H347 C339 0.929 . S
H348 C356 0.929 . S
H349 C358 0.930 . S
H350 C360 0.930 . S
H351 C363 0.929 . S
H352 C366 0.930 . S
H353 C368 0.960 . S
H354 C368 0.960 . S
H355 C368 0.960 . S
C356 H348 0.929 . S
C356 C357 1.377 . S
C356 C358 1.384 . S
C357 C356 1.377 . S
C357 C363 1.390 . S
C358 H349 0.930 . S
C358 C356 1.384 . S
C358 C359 1.372 . S
C359 C358 1.372 . S
C359 C360 1.400 . S
C359 C364 1.490 . S
C360 H350 0.930 . S
C360 C359 1.400 . S
C360 C363 1.386 . S
H361 C377 0.930 . S
H362 C378 0.931 . S
C363 H351 0.929 . S
C363 C357 1.390 . S
C363 C360 1.386 . S
C364 C359 1.490 . S
C364 C366 1.395 . S
C364 C367 1.403 . S
H365 C371 0.930 . S
C366 H352 0.930 . S
C366 C364 1.395 . S
C366 C369 1.403 . S
C367 C364 1.403 . S
C367 C368 1.524 . S
C367 C371 1.400 . S
C368 H353 0.960 . S
C368 H354 0.960 . S
C368 H355 0.960 . S
C368 C367 1.524 . S
C369 C366 1.403 . S
C369 C370 1.392 . S
C369 C373 1.495 . S
C370 C369 1.392 . S
C370 C371 1.385 . S
C370 C372 1.478 . S
C371 H365 0.930 . S
C371 C367 1.400 . S
C371 C370 1.385 . S
C372 C370 1.478 . S
C372 C374 1.381 . S
C372 C378 1.383 . S
C373 C369 1.495 . S
C373 H379 0.959 . S
C373 H380 0.961 . S
C373 H381 0.960 . S
C374 C372 1.381 . S
C374 C375 1.394 . S
C374 H382 0.930 . S
C375 C374 1.394 . S
C375 C376 1.383 1_554 S
C375 H383 0.929 . S
C376 C375 1.383 1_556 S
C376 C377 1.377 . S
C377 H361 0.930 . S
C377 C376 1.377 . S
C377 C378 1.379 1_556 S
C378 H362 0.931 . S
C378 C372 1.383 . S
C378 C377 1.379 1_554 S
H379 C373 0.959 . S
H380 C373 0.961 . S
H381 C373 0.960 . S
H382 C374 0.930 . S
H383 C375 0.929 . S
H384 C392 0.929 . S
H385 C394 0.930 . S
H386 C396 0.930 . S
H387 C399 0.929 . S
H388 C402 0.930 . S
H389 C404 0.960 . S
H390 C404 0.960 . S
H391 C404 0.960 . S
C392 H384 0.929 . S
C392 C393 1.377 . S
C392 C394 1.384 . S
C393 C392 1.377 . S
C393 C399 1.390 . S
C394 H385 0.930 . S
C394 C392 1.384 . S
C394 C395 1.372 . S
C395 C394 1.372 . S
C395 C396 1.400 . S
C395 C400 1.490 . S
C396 H386 0.930 . S
C396 C395 1.400 . S
C396 C399 1.386 . S
H397 C413 0.930 . S
H398 C414 0.931 . S
C399 H387 0.929 . S
C399 C393 1.390 . S
C399 C396 1.386 . S
C400 C395 1.490 . S
C400 C402 1.395 . S
C400 C403 1.403 . S
H401 C407 0.930 . S
C402 H388 0.930 . S
C402 C400 1.395 . S
C402 C405 1.403 . S
C403 C400 1.403 . S
C403 C404 1.524 . S
C403 C407 1.400 . S
C404 H389 0.960 . S
C404 H390 0.960 . S
C404 H391 0.960 . S
C404 C403 1.524 . S
C405 C402 1.403 . S
C405 C406 1.392 . S
C405 C409 1.495 . S
C406 C405 1.392 . S
C406 C407 1.385 . S
C406 C408 1.478 . S
C407 H401 0.930 . S
C407 C403 1.400 . S
C407 C406 1.385 . S
C408 C406 1.478 . S
C408 C410 1.381 . S
C408 C414 1.383 . S
C409 C405 1.495 . S
C409 H415 0.959 . S
C409 H416 0.961 . S
C409 H417 0.960 . S
C410 C408 1.381 . S
C410 C411 1.394 . S
C410 H418 0.930 . S
C411 C410 1.394 . S
C411 C412 1.383 . S
C411 H419 0.929 . S
C412 C411 1.383 . S
C412 C413 1.377 . S
C413 H397 0.930 . S
C413 C412 1.377 . S
C413 C414 1.379 . S
C414 H398 0.931 . S
C414 C408 1.383 . S
C414 C413 1.379 . S
H415 C409 0.959 . S
H416 C409 0.961 . S
H417 C409 0.960 . S
H418 C410 0.930 . S
H419 C411 0.929 . S
H420 C428 0.929 . S
H421 C430 0.930 . S
H422 C432 0.930 . S
H423 C435 0.929 . S
H424 C438 0.930 . S
H425 C440 0.960 . S
H426 C440 0.960 . S
H427 C440 0.960 . S
C428 H420 0.929 . S
C428 C429 1.377 . S
C428 C430 1.384 . S
C429 C428 1.377 . S
C429 C435 1.390 . S
C430 H421 0.930 . S
C430 C428 1.384 . S
C430 C431 1.372 . S
C431 C430 1.372 . S
C431 C432 1.400 . S
C431 C436 1.490 . S
C432 H422 0.930 . S
C432 C431 1.400 . S
C432 C435 1.386 . S
H433 C449 0.930 . S
H434 C450 0.931 . S
C435 H423 0.929 . S
C435 C429 1.390 . S
C435 C432 1.386 . S
C436 C431 1.490 . S
C436 C438 1.395 . S
C436 C439 1.403 . S
H437 C443 0.930 . S
C438 H424 0.930 . S
C438 C436 1.395 . S
C438 C441 1.403 . S
C439 C436 1.403 . S
C439 C440 1.524 . S
C439 C443 1.400 . S
C440 H425 0.960 . S
C440 H426 0.960 . S
C440 H427 0.960 . S
C440 C439 1.524 . S
C441 C438 1.403 . S
C441 C442 1.392 . S
C441 C445 1.495 . S
C442 C441 1.392 . S
C442 C443 1.385 . S
C442 C444 1.478 . S
C443 H437 0.930 . S
C443 C439 1.400 . S
C443 C442 1.385 . S
C444 C442 1.478 . S
C444 C446 1.381 . S
C444 C450 1.383 . S
C445 C441 1.495 . S
C445 H451 0.959 . S
C445 H452 0.961 . S
C445 H453 0.960 . S
C446 C444 1.381 . S
C446 C447 1.394 . S
C446 H454 0.930 . S
C447 C446 1.394 . S
C447 C448 1.383 . S
C447 H455 0.929 . S
C448 C447 1.383 . S
C448 C449 1.377 . S
C449 H433 0.930 . S
C449 C448 1.377 . S
C449 C450 1.379 . S
C450 H434 0.931 . S
C450 C444 1.383 . S
C450 C449 1.379 . S
H451 C445 0.959 . S
H452 C445 0.961 . S
H453 C445 0.960 . S
H454 C446 0.930 . S
H455 C447 0.929 . S
H456 C464 0.929 . S
H457 C466 0.930 . S
H458 C468 0.930 . S
H459 C471 0.929 . S
H460 C474 0.930 . S
H461 C476 0.960 . S
H462 C476 0.960 . S
H463 C476 0.960 . S
C464 H456 0.929 . S
C464 C465 1.377 . S
C464 C466 1.384 . S
C465 C464 1.377 . S
C465 C471 1.390 . S
C466 H457 0.930 . S
C466 C464 1.384 . S
C466 C467 1.372 . S
C467 C466 1.372 . S
C467 C468 1.400 . S
C467 C472 1.490 . S
C468 H458 0.930 . S
C468 C467 1.400 . S
C468 C471 1.386 . S
H469 C485 0.930 . S
H470 C486 0.931 . S
C471 H459 0.929 . S
C471 C465 1.390 . S
C471 C468 1.386 . S
C472 C467 1.490 . S
C472 C474 1.395 . S
C472 C475 1.403 . S
H473 C479 0.930 . S
C474 H460 0.930 . S
C474 C472 1.395 . S
C474 C477 1.403 . S
C475 C472 1.403 . S
C475 C476 1.524 . S
C475 C479 1.400 . S
C476 H461 0.960 . S
C476 H462 0.960 . S
C476 H463 0.960 . S
C476 C475 1.524 . S
C477 C474 1.403 . S
C477 C478 1.392 . S
C477 C481 1.495 . S
C478 C477 1.392 . S
C478 C479 1.385 . S
C478 C480 1.478 . S
C479 H473 0.930 . S
C479 C475 1.400 . S
C479 C478 1.385 . S
C480 C478 1.478 . S
C480 C482 1.381 . S
C480 C486 1.383 . S
C481 C477 1.495 . S
C481 H487 0.959 . S
C481 H488 0.961 . S
C481 H489 0.960 . S
C482 C480 1.381 . S
C482 C483 1.394 . S
C482 H490 0.930 . S
C483 C482 1.394 . S
C483 C484 1.383 . S
C483 H491 0.929 . S
C484 C483 1.383 . S
C484 C485 1.377 . S
C485 H469 0.930 . S
C485 C484 1.377 . S
C485 C486 1.379 . S
C486 H470 0.931 . S
C486 C480 1.383 . S
C486 C485 1.379 . S
H487 C481 0.959 . S
H488 C481 0.961 . S
H489 C481 0.960 . S
H490 C482 0.930 . S
H491 C483 0.929 . S
H492 C500 0.929 . S
H493 C502 0.930 . S
H494 C504 0.930 . S
H495 C507 0.929 . S
H496 C510 0.930 . S
H497 C512 0.960 . S
H498 C512 0.960 . S
H499 C512 0.960 . S
C500 H492 0.929 . S
C500 C501 1.377 . S
C500 C502 1.384 . S
C501 C500 1.377 . S
C501 C507 1.390 . S
C502 H493 0.930 . S
C502 C500 1.384 . S
C502 C503 1.372 . S
C503 C502 1.372 . S
C503 C504 1.400 . S
C503 C508 1.490 . S
C504 H494 0.930 . S
C504 C503 1.400 . S
C504 C507 1.386 . S
H505 C521 0.930 . S
H506 C522 0.931 . S
C507 H495 0.929 . S
C507 C501 1.390 . S
C507 C504 1.386 . S
C508 C503 1.490 . S
C508 C510 1.395 . S
C508 C511 1.403 . S
H509 C515 0.930 . S
C510 H496 0.930 . S
C510 C508 1.395 . S
C510 C513 1.403 . S
C511 C508 1.403 . S
C511 C512 1.524 . S
C511 C515 1.400 . S
C512 H497 0.960 . S
C512 H498 0.960 . S
C512 H499 0.960 . S
C512 C511 1.524 . S
C513 C510 1.403 . S
C513 C514 1.392 . S
C513 C517 1.495 . S
C514 C513 1.392 . S
C514 C515 1.385 . S
C514 C516 1.478 . S
C515 H509 0.930 . S
C515 C511 1.400 . S
C515 C514 1.385 . S
C516 C514 1.478 . S
C516 C518 1.381 . S
C516 C522 1.383 . S
C517 C513 1.495 . S
C517 H523 0.959 . S
C517 H524 0.961 . S
C517 H525 0.960 . S
C518 C516 1.381 . S
C518 C519 1.394 . S
C518 H526 0.930 . S
C519 C518 1.394 . S
C519 C520 1.383 . S
C519 H527 0.929 . S
C520 C519 1.383 . S
C520 C521 1.377 . S
C521 H505 0.930 . S
C521 C520 1.377 . S
C521 C522 1.379 . S
C522 H506 0.931 . S
C522 C516 1.383 . S
C522 C521 1.379 . S
H523 C517 0.959 . S
H524 C517 0.961 . S
H525 C517 0.960 . S
H526 C518 0.930 . S
H527 C519 0.929 . S
H528 C536 0.929 . S
H529 C538 0.930 . S
H530 C540 0.930 . S
H531 C543 0.929 . S
H532 C546 0.930 . S
H533 C548 0.960 . S
H534 C548 0.960 . S
H535 C548 0.960 . S
C536 H528 0.929 . S
C536 C537 1.377 . S
C536 C538 1.384 . S
C537 C536 1.377 . S
C537 C543 1.390 . S
C538 H529 0.930 . S
C538 C536 1.384 . S
C538 C539 1.372 . S
C539 C538 1.372 . S
C539 C540 1.400 . S
C539 C544 1.490 . S
C540 H530 0.930 . S
C540 C539 1.400 . S
C540 C543 1.386 . S
H541 C557 0.930 . S
H542 C558 0.931 . S
C543 H531 0.929 . S
C543 C537 1.390 . S
C543 C540 1.386 . S
C544 C539 1.490 . S
C544 C546 1.395 . S
C544 C547 1.403 . S
H545 C551 0.930 . S
C546 H532 0.930 . S
C546 C544 1.395 . S
C546 C549 1.403 . S
C547 C544 1.403 . S
C547 C548 1.524 . S
C547 C551 1.400 . S
C548 H533 0.960 . S
C548 H534 0.960 . S
C548 H535 0.960 . S
C548 C547 1.524 . S
C549 C546 1.403 . S
C549 C550 1.392 . S
C549 C553 1.495 . S
C550 C549 1.392 . S
C550 C551 1.385 . S
C550 C552 1.478 . S
C551 H545 0.930 . S
C551 C547 1.400 . S
C551 C550 1.385 . S
C552 C550 1.478 . S
C552 C554 1.381 . S
C552 C558 1.383 . S
C553 C549 1.495 . S
C553 H559 0.959 . S
C553 H560 0.961 . S
C553 H561 0.960 . S
C554 C552 1.381 . S
C554 C555 1.394 . S
C554 H562 0.930 . S
C555 C554 1.394 . S
C555 C556 1.383 . S
C555 H563 0.929 . S
C556 C555 1.383 . S
C556 C557 1.377 . S
C557 H541 0.930 . S
C557 C556 1.377 . S
C557 C558 1.379 . S
C558 H542 0.931 . S
C558 C552 1.383 . S
C558 C557 1.379 . S
H559 C553 0.959 . S
H560 C553 0.961 . S
H561 C553 0.960 . S
H562 C554 0.930 . S
H563 C555 0.929 . S
H564 C572 0.929 . S
H565 C574 0.930 . S
H566 C576 0.930 . S
H567 C579 0.929 . S
H568 C582 0.930 . S
H569 C584 0.960 . S
H570 C584 0.960 . S
H571 C584 0.960 . S
C572 H564 0.929 . S
C572 C573 1.377 . S
C572 C574 1.384 . S
C573 C572 1.377 . S
C573 C579 1.390 . S
C574 H565 0.930 . S
C574 C572 1.384 . S
C574 C575 1.372 . S
C575 C574 1.372 . S
C575 C576 1.400 . S
C575 C580 1.490 . S
C576 H566 0.930 . S
C576 C575 1.400 . S
C576 C579 1.386 . S
H577 C593 0.930 . S
H578 C594 0.931 . S
C579 H567 0.929 . S
C579 C573 1.390 . S
C579 C576 1.386 . S
C580 C575 1.490 . S
C580 C582 1.395 . S
C580 C583 1.403 . S
H581 C587 0.930 . S
C582 H568 0.930 . S
C582 C580 1.395 . S
C582 C585 1.403 . S
C583 C580 1.403 . S
C583 C584 1.524 . S
C583 C587 1.400 . S
C584 H569 0.960 . S
C584 H570 0.960 . S
C584 H571 0.960 . S
C584 C583 1.524 . S
C585 C582 1.403 . S
C585 C586 1.392 . S
C585 C589 1.495 . S
C586 C585 1.392 . S
C586 C587 1.385 . S
C586 C588 1.478 . S
C587 H581 0.930 . S
C587 C583 1.400 . S
C587 C586 1.385 . S
C588 C586 1.478 . S
C588 C590 1.381 1_556 S
C588 C594 1.383 . S
C589 C585 1.495 . S
C589 H595 0.959 . S
C589 H596 0.961 . S
C589 H597 0.960 . S
C590 C588 1.381 1_554 S
C590 C591 1.394 . S
C590 H598 0.930 . S
C591 C590 1.394 . S
C591 C592 1.383 . S
C591 H599 0.929 . S
C592 C591 1.383 . S
C592 C593 1.377 1_554 S
C593 H577 0.930 . S
C593 C592 1.377 1_556 S
C593 C594 1.379 . S
C594 H578 0.931 . S
C594 C588 1.383 . S
C594 C593 1.379 . S
H595 C589 0.959 . S
H596 C589 0.961 . S
H597 C589 0.960 . S
H598 C590 0.930 . S
H599 C591 0.929 . S
H600 C608 0.929 . S
H601 C610 0.930 . S
H602 C612 0.930 . S
H603 C615 0.929 . S
H604 C618 0.930 . S
H605 C620 0.960 . S
H606 C620 0.960 . S
H607 C620 0.960 . S
C608 H600 0.929 . S
C608 C609 1.377 . S
C608 C610 1.384 . S
C609 C608 1.377 . S
C609 C615 1.390 . S
C610 H601 0.930 . S
C610 C608 1.384 . S
C610 C611 1.372 . S
C611 C610 1.372 . S
C611 C612 1.400 . S
C611 C616 1.490 . S
C612 H602 0.930 . S
C612 C611 1.400 . S
C612 C615 1.386 . S
H613 C629 0.930 . S
H614 C630 0.931 . S
C615 H603 0.929 . S
C615 C609 1.390 . S
C615 C612 1.386 . S
C616 C611 1.490 . S
C616 C618 1.395 . S
C616 C619 1.403 . S
H617 C623 0.930 . S
C618 H604 0.930 . S
C618 C616 1.395 . S
C618 C621 1.403 . S
C619 C616 1.403 . S
C619 C620 1.524 . S
C619 C623 1.400 . S
C620 H605 0.960 . S
C620 H606 0.960 . S
C620 H607 0.960 . S
C620 C619 1.524 . S
C621 C618 1.403 . S
C621 C622 1.392 . S
C621 C625 1.495 . S
C622 C621 1.392 . S
C622 C623 1.385 . S
C622 C624 1.478 . S
C623 H617 0.930 . S
C623 C619 1.400 . S
C623 C622 1.385 . S
C624 C622 1.478 . S
C624 C626 1.381 . S
C624 C630 1.383 . S
C625 C621 1.495 . S
C625 H631 0.959 . S
C625 H632 0.961 . S
C625 H633 0.960 . S
C626 C624 1.381 . S
C626 C627 1.394 . S
C626 H634 0.930 . S
C627 C626 1.394 . S
C627 C628 1.383 . S
C627 H635 0.929 . S
C628 C627 1.383 . S
C628 C629 1.377 . S
C629 H613 0.930 . S
C629 C628 1.377 . S
C629 C630 1.379 . S
C630 H614 0.931 . S
C630 C624 1.383 . S
C630 C629 1.379 . S
H631 C625 0.959 . S
H632 C625 0.961 . S
H633 C625 0.960 . S
H634 C626 0.930 . S
H635 C627 0.929 . S
H636 C644 0.929 . S
H637 C646 0.930 . S
H638 C648 0.930 . S
H639 C651 0.929 . S
H640 C654 0.930 . S
H641 C656 0.960 . S
H642 C656 0.960 . S
H643 C656 0.960 . S
C644 H636 0.929 . S
C644 C645 1.377 . S
C644 C646 1.384 . S
C645 C644 1.377 . S
C645 C651 1.390 . S
C646 H637 0.930 . S
C646 C644 1.384 . S
C646 C647 1.372 . S
C647 C646 1.372 . S
C647 C648 1.400 . S
C647 C652 1.490 . S
C648 H638 0.930 . S
C648 C647 1.400 . S
C648 C651 1.386 . S
H649 C665 0.930 . S
H650 C666 0.931 . S
C651 H639 0.929 . S
C651 C645 1.390 . S
C651 C648 1.386 . S
C652 C647 1.490 . S
C652 C654 1.395 . S
C652 C655 1.403 . S
H653 C659 0.930 . S
C654 H640 0.930 . S
C654 C652 1.395 . S
C654 C657 1.403 . S
C655 C652 1.403 . S
C655 C656 1.524 . S
C655 C659 1.400 . S
C656 H641 0.960 . S
C656 H642 0.960 . S
C656 H643 0.960 . S
C656 C655 1.524 . S
C657 C654 1.403 . S
C657 C658 1.399 . S
C657 C661 1.495 . S
C658 C657 1.399 . S
C658 C659 1.391 . S
C658 C660 1.465 1_556 S
C659 H653 0.930 . S
C659 C655 1.400 . S
C659 C658 1.391 . S
C660 C658 1.465 1_554 S
C660 C662 1.381 . S
C660 C666 1.383 . S
C661 C657 1.495 . S
C661 H667 0.959 . S
C661 H668 0.961 1_556 S
C661 H669 0.959 1_556 S
C662 C660 1.381 . S
C662 C663 1.394 . S
C662 H670 0.930 . S
C663 C662 1.394 . S
C663 C664 1.383 . S
C663 H671 0.929 . S
C664 C663 1.383 . S
C664 C665 1.377 . S
C665 H649 0.930 . S
C665 C664 1.377 . S
C665 C666 1.379 . S
C666 H650 0.931 . S
C666 C660 1.383 . S
C666 C665 1.379 . S
H667 C661 0.959 . S
H668 C661 0.961 1_554 S
H669 C661 0.959 1_554 S
H670 C662 0.930 . S
H671 C663 0.929 . S
H672 C680 0.919 1_556 S
H673 C682 0.930 . S
H674 C684 0.930 . S
H675 C687 0.929 1_556 S
H676 C690 0.930 . S
H677 C692 0.960 . S
H678 C692 0.960 . S
H679 C692 0.960 . S
C680 H672 0.919 1_554 S
C680 C681 1.369 1_554 S
C680 C682 1.403 . S
C681 C680 1.369 1_556 S
C681 C687 1.390 1_556 S
C682 H673 0.930 . S
C682 C680 1.403 . S
C682 C683 1.372 . S
C683 C682 1.372 . S
C683 C684 1.400 . S
C683 C688 1.490 . S
C684 H674 0.930 . S
C684 C683 1.400 . S
C684 C687 1.386 . S
H685 C701 0.930 . S
H686 C702 0.931 . S
C687 H675 0.929 1_554 S
C687 C681 1.390 1_554 S
C687 C684 1.386 . S
C688 C683 1.490 . S
C688 C690 1.395 . S
C688 C691 1.403 . S
H689 C695 0.930 . S
C690 H676 0.930 . S
C690 C688 1.395 . S
C690 C693 1.403 . S
C691 C688 1.403 . S
C691 C692 1.524 . S
C691 C695 1.400 . S
C692 H677 0.960 . S
C692 H678 0.960 . S
C692 H679 0.960 . S
C692 C691 1.524 . S
C693 C690 1.403 . S
C693 C694 1.392 . S
C693 C697 1.495 . S
C694 C693 1.392 . S
C694 C695 1.385 . S
C694 C696 1.478 . S
C695 H689 0.930 . S
C695 C691 1.400 . S
C695 C694 1.385 . S
C696 C694 1.478 . S
C696 C698 1.381 . S
C696 C702 1.383 . S
C697 C693 1.495 . S
C697 H703 0.959 . S
C697 H704 0.961 . S
C697 H705 0.960 . S
C698 C696 1.381 . S
C698 C699 1.394 . S
C698 H706 0.930 . S
C699 C698 1.394 . S
C699 C700 1.383 . S
C699 H707 0.929 . S
C700 C699 1.383 . S
C700 C701 1.377 . S
C701 H685 0.930 . S
C701 C700 1.377 . S
C701 C702 1.379 . S
C702 H686 0.931 . S
C702 C696 1.383 . S
C702 C701 1.379 . S
H703 C697 0.959 . S
H704 C697 0.961 . S
H705 C697 0.960 . S
H706 C698 0.930 . S
H707 C699 0.929 . S
H708 C716 0.929 . S
H709 C718 0.930 . S
H710 C720 0.930 . S
H711 C723 0.929 . S
H712 C726 0.930 . S
H713 C728 0.960 . S
H714 C728 0.960 . S
H715 C728 0.960 . S
C716 H708 0.929 . S
C716 C717 1.377 . S
C716 C718 1.384 . S
C717 C716 1.377 . S
C717 C723 1.390 . S
C718 H709 0.930 . S
C718 C716 1.384 . S
C718 C719 1.372 . S
C719 C718 1.372 . S
C719 C720 1.400 . S
C719 C724 1.490 . S
C720 H710 0.930 . S
C720 C719 1.400 . S
C720 C723 1.386 . S
H721 C737 0.930 . S
H722 C738 0.931 . S
C723 H711 0.929 . S
C723 C717 1.390 . S
C723 C720 1.386 . S
C724 C719 1.490 . S
C724 C726 1.395 . S
C724 C727 1.403 . S
H725 C731 0.930 . S
C726 H712 0.930 . S
C726 C724 1.395 . S
C726 C729 1.403 . S
C727 C724 1.403 . S
C727 C728 1.524 . S
C727 C731 1.400 . S
C728 H713 0.960 . S
C728 H714 0.960 . S
C728 H715 0.960 . S
C728 C727 1.524 . S
C729 C726 1.403 . S
C729 C730 1.392 . S
C729 C733 1.495 . S
C730 C729 1.392 . S
C730 C731 1.385 . S
C730 C732 1.478 . S
C731 H725 0.930 . S
C731 C727 1.400 . S
C731 C730 1.385 . S
C732 C730 1.478 . S
C732 C734 1.381 . S
C732 C738 1.383 . S
C733 C729 1.495 . S
C733 H739 0.959 . S
C733 H740 0.961 . S
C733 H741 0.960 . S
C734 C732 1.381 . S
C734 C735 1.394 . S
C734 H742 0.930 . S
C735 C734 1.394 . S
C735 C736 1.383 . S
C735 H743 0.929 . S
C736 C735 1.383 . S
C736 C737 1.377 . S
C737 H721 0.930 . S
C737 C736 1.377 . S
C737 C738 1.379 . S
C738 H722 0.931 . S
C738 C732 1.383 . S
C738 C737 1.379 . S
H739 C733 0.959 . S
H740 C733 0.961 . S
H741 C733 0.960 . S
H742 C734 0.930 . S
H743 C735 0.929 . S
H744 C752 0.929 . S
H745 C754 0.930 . S
H746 C756 0.930 . S
H747 C759 0.929 . S
H748 C762 0.930 . S
H749 C764 0.960 . S
H750 C764 0.960 . S
H751 C764 0.960 . S
C752 H744 0.929 . S
C752 C753 1.377 . S
C752 C754 1.384 . S
C753 C752 1.377 . S
C753 C759 1.390 . S
C754 H745 0.930 . S
C754 C752 1.384 . S
C754 C755 1.372 . S
C755 C754 1.372 . S
C755 C756 1.400 . S
C755 C760 1.490 . S
C756 H746 0.930 . S
C756 C755 1.400 . S
C756 C759 1.386 . S
H757 C773 0.930 . S
H758 C774 0.931 . S
C759 H747 0.929 . S
C759 C753 1.390 . S
C759 C756 1.386 . S
C760 C755 1.490 . S
C760 C762 1.395 . S
C760 C763 1.403 . S
H761 C767 0.930 . S
C762 H748 0.930 . S
C762 C760 1.395 . S
C762 C765 1.403 . S
C763 C760 1.403 . S
C763 C764 1.524 . S
C763 C767 1.400 . S
C764 H749 0.960 . S
C764 H750 0.960 . S
C764 H751 0.960 . S
C764 C763 1.524 . S
C765 C762 1.403 . S
C765 C766 1.392 . S
C765 C769 1.495 . S
C766 C765 1.392 . S
C766 C767 1.385 . S
C766 C768 1.478 . S
C767 H761 0.930 . S
C767 C763 1.400 . S
C767 C766 1.385 . S
C768 C766 1.478 . S
C768 C770 1.381 . S
C768 C774 1.383 . S
C769 C765 1.495 . S
C769 H775 0.959 . S
C769 H776 0.961 . S
C769 H777 0.960 . S
C770 C768 1.381 . S
C770 C771 1.394 . S
C770 H778 0.930 . S
C771 C770 1.394 . S
C771 C772 1.383 . S
C771 H779 0.929 . S
C772 C771 1.383 . S
C772 C773 1.377 . S
C773 H757 0.930 . S
C773 C772 1.377 . S
C773 C774 1.379 . S
C774 H758 0.931 . S
C774 C768 1.383 . S
C774 C773 1.379 . S
H775 C769 0.959 . S
H776 C769 0.961 . S
H777 C769 0.960 . S
H778 C770 0.930 . S
H779 C771 0.929 . S
H780 C788 0.929 . S
H781 C790 0.930 . S
H782 C792 0.930 . S
H783 C795 0.929 . S
H784 C798 0.930 . S
H785 C800 0.960 . S
H786 C800 0.960 . S
H787 C800 0.960 . S
C788 H780 0.929 . S
C788 C789 1.377 . S
C788 C790 1.384 . S
C789 C788 1.377 . S
C789 C795 1.390 . S
C790 H781 0.930 . S
C790 C788 1.384 . S
C790 C791 1.372 . S
C791 C790 1.372 . S
C791 C792 1.400 . S
C791 C796 1.490 . S
C792 H782 0.930 . S
C792 C791 1.400 . S
C792 C795 1.386 . S
H793 C809 0.930 . S
H794 C810 0.931 . S
C795 H783 0.929 . S
C795 C789 1.390 . S
C795 C792 1.386 . S
C796 C791 1.490 . S
C796 C798 1.395 . S
C796 C799 1.403 . S
H797 C803 0.930 . S
C798 H784 0.930 . S
C798 C796 1.395 . S
C798 C801 1.403 . S
C799 C796 1.403 . S
C799 C800 1.524 . S
C799 C803 1.400 . S
C800 H785 0.960 . S
C800 H786 0.960 . S
C800 H787 0.960 . S
C800 C799 1.524 . S
C801 C798 1.403 . S
C801 C802 1.392 . S
C801 C805 1.495 . S
C802 C801 1.392 . S
C802 C803 1.385 . S
C802 C804 1.478 . S
C803 H797 0.930 . S
C803 C799 1.400 . S
C803 C802 1.385 . S
C804 C802 1.478 . S
C804 C806 1.381 . S
C804 C810 1.383 . S
C805 C801 1.495 . S
C805 H811 0.959 . S
C805 H812 0.961 . S
C805 H813 0.960 . S
C806 C804 1.381 . S
C806 C807 1.394 . S
C806 H814 0.930 . S
C807 C806 1.394 . S
C807 C808 1.383 . S
C807 H815 0.929 . S
C808 C807 1.383 . S
C808 C809 1.377 . S
C809 H793 0.930 . S
C809 C808 1.377 . S
C809 C810 1.379 . S
C810 H794 0.931 . S
C810 C804 1.383 . S
C810 C809 1.379 . S
H811 C805 0.959 . S
H812 C805 0.961 . S
H813 C805 0.960 . S
H814 C806 0.930 . S
H815 C807 0.929 . S
H816 C824 0.929 . S
H817 C826 0.930 . S
H818 C828 0.947 . S
H819 C831 0.929 . S
H820 C834 0.930 . S
H821 C836 0.960 . S
H822 C836 0.960 . S
H823 C836 0.960 . S
C824 H816 0.929 . S
C824 C825 1.377 . S
C824 C826 1.384 . S
C825 C824 1.377 . S
C825 C831 1.390 . S
C826 H817 0.930 . S
C826 C824 1.384 . S
C826 C827 1.372 . S
C827 C826 1.372 . S
C827 C828 1.400 . S
C827 C832 1.490 . S
C828 H818 0.947 . S
C828 C827 1.400 . S
C828 C831 1.386 . S
H829 C845 0.930 1_556 S
H830 C846 0.931 1_556 S
C831 H819 0.929 . S
C831 C825 1.390 . S
C831 C828 1.386 . S
C832 C827 1.490 . S
C832 C834 1.395 . S
C832 C835 1.403 . S
H833 C839 0.930 . S
C834 H820 0.930 . S
C834 C832 1.395 . S
C834 C837 1.403 1_545 S
C835 C832 1.403 . S
C835 C836 1.524 . S
C835 C839 1.400 1_545 S
C836 H821 0.960 . S
C836 H822 0.960 . S
C836 H823 0.960 . S
C836 C835 1.524 . S
C837 C834 1.403 1_565 S
C837 C838 1.392 . S
C837 C841 1.495 . S
C838 C837 1.392 . S
C838 C839 1.385 . S
C838 C840 1.478 . S
C839 H833 0.930 . S
C839 C835 1.400 1_565 S
C839 C838 1.385 . S
C840 C838 1.478 . S
C840 C842 1.381 . S
C840 C846 1.383 . S
C841 C837 1.495 . S
C841 H847 0.959 . S
C841 H848 0.961 . S
C841 H849 0.960 . S
C842 C840 1.381 . S
C842 C843 1.394 . S
C842 H850 0.930 . S
C843 C842 1.394 . S
C843 C844 1.383 . S
C843 H851 0.929 . S
C844 C843 1.383 . S
C844 C845 1.377 . S
C845 H829 0.930 1_554 S
C845 C844 1.377 . S
C845 C846 1.379 . S
C846 H830 0.931 1_554 S
C846 C840 1.383 . S
C846 C845 1.379 . S
H847 C841 0.959 . S
H848 C841 0.961 . S
H849 C841 0.960 . S
H850 C842 0.930 . S
H851 C843 0.929 . S
H852 C860 0.929 . S
H853 C862 0.930 . S
H854 C864 0.930 . S
H855 C867 0.929 . S
H856 C870 0.930 . S
H857 C872 0.960 . S
H858 C872 0.960 . S
H859 C872 0.960 . S
C860 H852 0.929 . S
C860 C861 1.377 . S
C860 C862 1.384 . S
C861 C860 1.377 . S
C861 C867 1.390 . S
C862 H853 0.930 . S
C862 C860 1.384 . S
C862 C863 1.372 . S
C863 C862 1.372 . S
C863 C864 1.400 . S
C863 C868 1.490 . S
C864 H854 0.930 . S
C864 C863 1.400 . S
C864 C867 1.386 . S
H865 C881 0.930 . S
H866 C882 0.931 . S
C867 H855 0.929 . S
C867 C861 1.390 . S
C867 C864 1.386 . S
C868 C863 1.490 . S
C868 C870 1.395 . S
C868 C871 1.403 . S
H869 C875 0.930 . S
C870 H856 0.930 . S
C870 C868 1.395 . S
C870 C873 1.403 . S
C871 C868 1.403 . S
C871 C872 1.524 . S
C871 C875 1.400 . S
C872 H857 0.960 . S
C872 H858 0.960 . S
C872 H859 0.960 . S
C872 C871 1.524 . S
C873 C870 1.403 . S
C873 C874 1.392 . S
C873 C877 1.495 . S
C874 C873 1.392 . S
C874 C875 1.385 . S
C874 C876 1.478 . S
C875 H869 0.930 . S
C875 C871 1.400 . S
C875 C874 1.385 . S
C876 C874 1.478 . S
C876 C878 1.381 . S
C876 C882 1.383 . S
C877 C873 1.495 . S
C877 H883 0.959 . S
C877 H884 0.961 . S
C877 H885 0.960 . S
C878 C876 1.381 . S
C878 C879 1.394 . S
C878 H886 0.930 . S
C879 C878 1.394 . S
C879 C880 1.383 . S
C879 H887 0.929 . S
C880 C879 1.383 . S
C880 C881 1.377 . S
C881 H865 0.930 . S
C881 C880 1.377 . S
C881 C882 1.379 . S
C882 H866 0.931 . S
C882 C876 1.383 . S
C882 C881 1.379 . S
H883 C877 0.959 . S
H884 C877 0.961 . S
H885 C877 0.960 . S
H886 C878 0.930 . S
H887 C879 0.929 . S
H888 C896 0.929 . S
H889 C898 0.930 . S
H890 C900 0.930 . S
H891 C903 0.929 . S
H892 C906 0.930 . S
H893 C908 0.960 . S
H894 C908 0.960 . S
H895 C908 0.960 . S
C896 H888 0.929 . S
C896 C897 1.377 . S
C896 C898 1.384 . S
C897 C896 1.377 . S
C897 C903 1.390 . S
C898 H889 0.930 . S
C898 C896 1.384 . S
C898 C899 1.372 . S
C899 C898 1.372 . S
C899 C900 1.400 . S
C899 C904 1.490 . S
C900 H890 0.930 . S
C900 C899 1.400 . S
C900 C903 1.386 . S
H901 C917 0.930 . S
H902 C918 0.931 . S
C903 H891 0.929 . S
C903 C897 1.390 . S
C903 C900 1.386 . S
C904 C899 1.490 . S
C904 C906 1.395 . S
C904 C907 1.403 . S
H905 C911 0.930 . S
C906 H892 0.930 . S
C906 C904 1.395 . S
C906 C909 1.403 1_455 S
C907 C904 1.403 . S
C907 C908 1.524 . S
C907 C911 1.400 1_455 S
C908 H893 0.960 . S
C908 H894 0.960 . S
C908 H895 0.960 . S
C908 C907 1.524 . S
C909 C906 1.403 1_655 S
C909 C910 1.392 . S
C909 C913 1.495 . S
C910 C909 1.392 . S
C910 C911 1.385 . S
C910 C912 1.478 . S
C911 H905 0.930 . S
C911 C907 1.400 1_655 S
C911 C910 1.385 . S
C912 C910 1.478 . S
C912 C914 1.381 . S
C912 C918 1.383 . S
C913 C909 1.495 . S
C913 H919 0.959 . S
C913 H920 0.961 . S
C913 H921 0.960 . S
C914 C912 1.381 . S
C914 C915 1.394 . S
C914 H922 0.930 . S
C915 C914 1.394 . S
C915 C916 1.383 . S
C915 H923 0.929 . S
C916 C915 1.383 . S
C916 C917 1.377 . S
C917 H901 0.930 . S
C917 C916 1.377 . S
C917 C918 1.379 . S
C918 H902 0.931 . S
C918 C912 1.383 . S
C918 C917 1.379 . S
H919 C913 0.959 . S
H920 C913 0.961 . S
H921 C913 0.960 . S
H922 C914 0.930 . S
H923 C915 0.929 . S
H924 C932 0.929 . S
H925 C934 0.930 . S
H926 C936 0.930 . S
H927 C939 0.929 . S
H928 C942 0.930 . S
H929 C944 0.960 . S
H930 C944 0.960 . S
H931 C944 0.960 . S
C932 H924 0.929 . S
C932 C933 1.377 . S
C932 C934 1.384 . S
C933 C932 1.377 . S
C933 C939 1.390 . S
C934 H925 0.930 . S
C934 C932 1.384 . S
C934 C935 1.372 . S
C935 C934 1.372 . S
C935 C936 1.400 . S
C935 C940 1.490 . S
C936 H926 0.930 . S
C936 C935 1.400 . S
C936 C939 1.386 . S
H937 C953 0.930 . S
H938 C954 0.931 . S
C939 H927 0.929 . S
C939 C933 1.390 . S
C939 C936 1.386 . S
C940 C935 1.490 . S
C940 C942 1.395 . S
C940 C943 1.403 . S
H941 C947 0.930 . S
C942 H928 0.930 . S
C942 C940 1.395 . S
C942 C945 1.403 1_565 S
C943 C940 1.403 . S
C943 C944 1.524 . S
C943 C947 1.400 1_565 S
C944 H929 0.960 . S
C944 H930 0.960 . S
C944 H931 0.960 . S
C944 C943 1.524 . S
C945 C942 1.403 1_545 S
C945 C946 1.392 . S
C945 C949 1.495 . S
C946 C945 1.392 . S
C946 C947 1.385 . S
C946 C948 1.478 . S
C947 H941 0.930 . S
C947 C943 1.400 1_545 S
C947 C946 1.385 . S
C948 C946 1.478 . S
C948 C950 1.381 . S
C948 C954 1.383 . S
C949 C945 1.495 . S
C949 H955 0.959 . S
C949 H956 0.961 . S
C949 H957 0.960 . S
C950 C948 1.381 . S
C950 C951 1.394 . S
C950 H958 0.930 . S
C951 C950 1.394 . S
C951 C952 1.383 . S
C951 H959 0.929 . S
C952 C951 1.383 . S
C952 C953 1.377 . S
C953 H937 0.930 . S
C953 C952 1.377 . S
C953 C954 1.379 . S
C954 H938 0.931 . S
C954 C948 1.383 . S
C954 C953 1.379 . S
H955 C949 0.959 . S
H956 C949 0.961 . S
H957 C949 0.960 . S
H958 C950 0.930 . S
H959 C951 0.929 . S
H960 C968 0.929 . S
H961 C970 0.930 . S
H962 C972 0.930 . S
H963 C975 0.929 . S
H964 C978 0.930 . S
H965 C980 0.960 . S
H966 C980 0.960 . S
H967 C980 0.960 . S
C968 H960 0.929 . S
C968 C969 1.377 . S
C968 C970 1.384 . S
C969 C968 1.377 . S
C969 C975 1.390 . S
C970 H961 0.930 . S
C970 C968 1.384 . S
C970 C971 1.372 . S
C971 C970 1.372 . S
C971 C972 1.400 . S
C971 C976 1.490 . S
C972 H962 0.930 . S
C972 C971 1.400 . S
C972 C975 1.386 . S
H973 C989 0.930 . S
H974 C990 0.931 . S
C975 H963 0.929 . S
C975 C969 1.390 . S
C975 C972 1.386 . S
C976 C971 1.490 . S
C976 C978 1.395 . S
C976 C979 1.403 . S
H977 C983 0.930 . S
C978 H964 0.930 . S
C978 C976 1.395 . S
C978 C981 1.403 . S
C979 C976 1.403 . S
C979 C980 1.524 . S
C979 C983 1.400 . S
C980 H965 0.960 . S
C980 H966 0.960 . S
C980 H967 0.960 . S
C980 C979 1.524 . S
C981 C978 1.403 . S
C981 C982 1.392 . S
C981 C985 1.495 . S
C982 C981 1.392 . S
C982 C983 1.385 . S
C982 C984 1.478 . S
C983 H977 0.930 . S
C983 C979 1.400 . S
C983 C982 1.385 . S
C984 C982 1.478 . S
C984 C986 1.381 . S
C984 C990 1.383 . S
C985 C981 1.495 . S
C985 H991 0.959 . S
C985 H992 0.961 . S
C985 H993 0.960 . S
C986 C984 1.381 . S
C986 C987 1.394 . S
C986 H994 0.930 . S
C987 C986 1.394 . S
C987 C988 1.383 . S
C987 H995 0.929 . S
C988 C987 1.383 . S
C988 C989 1.377 . S
C989 H973 0.930 . S
C989 C988 1.377 . S
C989 C990 1.379 . S
C990 H974 0.931 . S
C990 C984 1.383 . S
C990 C989 1.379 . S
H991 C985 0.959 . S
H992 C985 0.961 . S
H993 C985 0.960 . S
H994 C986 0.930 . S
H995 C987 0.929 . S
H996 C1004 0.929 . S
H997 C1006 0.930 . S
H998 C1008 0.930 . S
H999 C1011 0.929 . S
H1000 C1014 0.930 . S
H1001 C1016 0.960 . S
H1002 C1016 0.960 . S
H1003 C1016 0.960 . S
C1004 H996 0.929 . S
C1004 C1005 1.377 . S
C1004 C1006 1.384 . S
C1005 C1004 1.377 . S
C1005 C1011 1.390 . S
C1006 H997 0.930 . S
C1006 C1004 1.384 . S
C1006 C1007 1.372 . S
C1007 C1006 1.372 . S
C1007 C1008 1.400 . S
C1007 C1012 1.490 . S
C1008 H998 0.930 . S
C1008 C1007 1.400 . S
C1008 C1011 1.386 . S
H1009 C1025 0.930 . S
H1010 C1026 0.931 . S
C1011 H999 0.929 . S
C1011 C1005 1.390 . S
C1011 C1008 1.386 . S
C1012 C1007 1.490 . S
C1012 C1014 1.395 . S
C1012 C1015 1.403 . S
H1013 C1019 0.930 . S
C1014 H1000 0.930 . S
C1014 C1012 1.395 . S
C1014 C1017 1.403 1_455 S
C1015 C1012 1.403 . S
C1015 C1016 1.524 . S
C1015 C1019 1.400 1_455 S
C1016 H1001 0.960 . S
C1016 H1002 0.960 . S
C1016 H1003 0.960 . S
C1016 C1015 1.524 . S
C1017 C1014 1.403 1_655 S
C1017 C1018 1.392 . S
C1017 C1021 1.495 . S
C1018 C1017 1.392 . S
C1018 C1019 1.385 . S
C1018 C1020 1.478 . S
C1019 H1013 0.930 . S
C1019 C1015 1.400 1_655 S
C1019 C1018 1.385 . S
C1020 C1018 1.478 . S
C1020 C1022 1.381 . S
C1020 C1026 1.383 . S
C1021 C1017 1.495 . S
C1021 H1027 0.959 . S
C1021 H1028 0.961 . S
C1021 H1029 0.960 . S
C1022 C1020 1.381 . S
C1022 C1023 1.394 . S
C1022 H1030 0.930 . S
C1023 C1022 1.394 . S
C1023 C1024 1.383 . S
C1023 H1031 0.929 . S
C1024 C1023 1.383 . S
C1024 C1025 1.377 . S
C1025 H1009 0.930 . S
C1025 C1024 1.377 . S
C1025 C1026 1.379 . S
C1026 H1010 0.931 . S
C1026 C1020 1.383 . S
C1026 C1025 1.379 . S
H1027 C1021 0.959 . S
H1028 C1021 0.961 . S
H1029 C1021 0.960 . S
H1030 C1022 0.930 . S
H1031 C1023 0.929 . S
C177 C9 1.023 . S
C196 C149 1.010 . S
C213 C23 1.024 . S
C232 C163 1.010 . S
C249 C93 1.022 . S
C268 C37 1.011 . S
C285 C51 1.026 . S
C304 C107 1.018 . S
C321 C121 1.021 . S
C340 C65 1.015 . S
C357 C135 1.026 . S
C376 C79 1.028 . S
C393 C123 1.280 . S
C412 C11 1.268 . S
C429 C25 1.284 . S
C448 C137 1.296 . S
C465 C151 1.281 . S
C484 C39 1.282 . S
C501 C53 1.280 . S
C520 C165 1.267 . S
C537 C67 1.286 . S
C556 C95 1.296 . S
C573 C81 1.280 . S
C592 C109 1.271 . S
C609 C140 1.639 . S
C628 C0 1.642 . S
C645 C154 1.639 . S
C664 C14 1.623 . S
C681 C84 1.643 . S
C700 C28 1.649 . S
C717 C42 1.643 . S
C736 C98 1.647 . S
C753 C56 1.637 . S
C772 C112 1.621 . S
C789 C126 1.643 . S
C808 C70 1.650 . S
C825 C5 1.263 . S
C844 C103 1.275 . S
C861 C117 1.261 . S
C880 C19 1.271 . S
C897 C131 1.266 . S
C916 C33 1.248 . S
C933 C47 1.262 . S
C952 C145 1.263 . S
C969 C61 1.265 . S
C988 C159 1.269 . S
C1005 C75 1.265 . S
C1024 C89 1.249 . S
