# Generated by pormake.
# Topology soq, (7)-cn, num edge types: 1
# Building blocks:
#     Node 0, Type 0, BuildingBlock: NUHQUE_clean_sbu_2, # of connection points: 7
#     Node 1, Type 0, BuildingBlock: NUHQUE_clean_sbu_2, # of connection points: 7
#     Node 2, Type 0, BuildingBlock: NUHQUE_clean_sbu_2, # of connection points: 7
#     Node 3, Type 0, BuildingBlock: NUHQUE_clean_sbu_2, # of connection points: 7
#     Node 4, Type 0, BuildingBlock: NUHQUE_clean_sbu_2, # of connection points: 7
#     Node 5, Type 0, BuildingBlock: NUHQUE_clean_sbu_2, # of connection points: 7
#     Node 6, Type 0, BuildingBlock: NUHQUE_clean_sbu_2, # of connection points: 7
#     Node 7, Type 0, BuildingBlock: NUHQUE_clean_sbu_2, # of connection points: 7
#     Node 8, Type 0, BuildingBlock: NUHQUE_clean_sbu_2, # of connection points: 7
#     Node 9, Type 0, BuildingBlock: NUHQUE_clean_sbu_2, # of connection points: 7
#     Node 10, Type 0, BuildingBlock: NUHQUE_clean_sbu_2, # of connection points: 7
#     Node 11, Type 0, BuildingBlock: NUHQUE_clean_sbu_2, # of connection points: 7
#     Node 12, Type 0, BuildingBlock: NUHQUE_clean_sbu_2, # of connection points: 7
#     Node 13, Type 0, BuildingBlock: NUHQUE_clean_sbu_2, # of connection points: 7
#     Node 14, Type 0, BuildingBlock: NUHQUE_clean_sbu_2, # of connection points: 7
#     Node 15, Type 0, BuildingBlock: NUHQUE_clean_sbu_2, # of connection points: 7
#     Node 16, Type 0, BuildingBlock: NUHQUE_clean_sbu_2, # of connection points: 7
#     Node 17, Type 0, BuildingBlock: NUHQUE_clean_sbu_2, # of connection points: 7
#     Node 18, Type 0, BuildingBlock: NUHQUE_clean_sbu_2, # of connection points: 7
#     Node 19, Type 0, BuildingBlock: NUHQUE_clean_sbu_2, # of connection points: 7
#     Node 20, Type 0, BuildingBlock: NUHQUE_clean_sbu_2, # of connection points: 7
#     Node 21, Type 0, BuildingBlock: NUHQUE_clean_sbu_2, # of connection points: 7
#     Node 22, Type 0, BuildingBlock: NUHQUE_clean_sbu_2, # of connection points: 7
#     Node 23, Type 0, BuildingBlock: NUHQUE_clean_sbu_2, # of connection points: 7
#     Node 24, Type 0, BuildingBlock: NUHQUE_clean_sbu_2, # of connection points: 7
#     Node 25, Type 0, BuildingBlock: NUHQUE_clean_sbu_2, # of connection points: 7
#     Node 26, Type 0, BuildingBlock: NUHQUE_clean_sbu_2, # of connection points: 7
#     Node 27, Type 0, BuildingBlock: NUHQUE_clean_sbu_2, # of connection points: 7
#     Node 28, Type 0, BuildingBlock: NUHQUE_clean_sbu_2, # of connection points: 7
#     Node 29, Type 0, BuildingBlock: NUHQUE_clean_sbu_2, # of connection points: 7
#     Node 30, Type 0, BuildingBlock: NUHQUE_clean_sbu_2, # of connection points: 7
#     Node 31, Type 0, BuildingBlock: NUHQUE_clean_sbu_2, # of connection points: 7
#     Edge 32, Type (0, 0), BuildingBlock: ZUJKAS_clean_linker_0, # of connection points: 2
#     Edge 33, Type (0, 0), BuildingBlock: ZUJKAS_clean_linker_0, # of connection points: 2
#     Edge 34, Type (0, 0), BuildingBlock: ZUJKAS_clean_linker_0, # of connection points: 2
#     Edge 35, Type (0, 0), BuildingBlock: ZUJKAS_clean_linker_0, # of connection points: 2
#     Edge 36, Type (0, 0), BuildingBlock: ZUJKAS_clean_linker_0, # of connection points: 2
#     Edge 37, Type (0, 0), BuildingBlock: ZUJKAS_clean_linker_0, # of connection points: 2
#     Edge 38, Type (0, 0), BuildingBlock: ZUJKAS_clean_linker_0, # of connection points: 2
#     Edge 39, Type (0, 0), BuildingBlock: ZUJKAS_clean_linker_0, # of connection points: 2
#     Edge 40, Type (0, 0), BuildingBlock: ZUJKAS_clean_linker_0, # of connection points: 2
#     Edge 41, Type (0, 0), BuildingBlock: ZUJKAS_clean_linker_0, # of connection points: 2
#     Edge 42, Type (0, 0), BuildingBlock: ZUJKAS_clean_linker_0, # of connection points: 2
#     Edge 43, Type (0, 0), BuildingBlock: ZUJKAS_clean_linker_0, # of connection points: 2
#     Edge 44, Type (0, 0), BuildingBlock: ZUJKAS_clean_linker_0, # of connection points: 2
#     Edge 45, Type (0, 0), BuildingBlock: ZUJKAS_clean_linker_0, # of connection points: 2
#     Edge 46, Type (0, 0), BuildingBlock: ZUJKAS_clean_linker_0, # of connection points: 2
#     Edge 47, Type (0, 0), BuildingBlock: ZUJKAS_clean_linker_0, # of connection points: 2
#     Edge 48, Type (0, 0), BuildingBlock: ZUJKAS_clean_linker_0, # of connection points: 2
#     Edge 49, Type (0, 0), BuildingBlock: ZUJKAS_clean_linker_0, # of connection points: 2
#     Edge 50, Type (0, 0), BuildingBlock: ZUJKAS_clean_linker_0, # of connection points: 2
#     Edge 51, Type (0, 0), BuildingBlock: ZUJKAS_clean_linker_0, # of connection points: 2
#     Edge 52, Type (0, 0), BuildingBlock: ZUJKAS_clean_linker_0, # of connection points: 2
#     Edge 53, Type (0, 0), BuildingBlock: ZUJKAS_clean_linker_0, # of connection points: 2
#     Edge 54, Type (0, 0), BuildingBlock: ZUJKAS_clean_linker_0, # of connection points: 2
#     Edge 55, Type (0, 0), BuildingBlock: ZUJKAS_clean_linker_0, # of connection points: 2
#     Edge 56, Type (0, 0), BuildingBlock: ZUJKAS_clean_linker_0, # of connection points: 2
#     Edge 57, Type (0, 0), BuildingBlock: ZUJKAS_clean_linker_0, # of connection points: 2
#     Edge 58, Type (0, 0), BuildingBlock: ZUJKAS_clean_linker_0, # of connection points: 2
#     Edge 59, Type (0, 0), BuildingBlock: ZUJKAS_clean_linker_0, # of connection points: 2
#     Edge 60, Type (0, 0), BuildingBlock: ZUJKAS_clean_linker_0, # of connection points: 2
#     Edge 61, Type (0, 0), BuildingBlock: ZUJKAS_clean_linker_0, # of connection points: 2
#     Edge 62, Type (0, 0), BuildingBlock: ZUJKAS_clean_linker_0, # of connection points: 2
#     Edge 63, Type (0, 0), BuildingBlock: ZUJKAS_clean_linker_0, # of connection points: 2
#     Edge 64, Type (0, 0), BuildingBlock: ZUJKAS_clean_linker_0, # of connection points: 2
#     Edge 65, Type (0, 0), BuildingBlock: ZUJKAS_clean_linker_0, # of connection points: 2
#     Edge 66, Type (0, 0), BuildingBlock: ZUJKAS_clean_linker_0, # of connection points: 2
#     Edge 67, Type (0, 0), BuildingBlock: ZUJKAS_clean_linker_0, # of connection points: 2
#     Edge 68, Type (0, 0), BuildingBlock: ZUJKAS_clean_linker_0, # of connection points: 2
#     Edge 69, Type (0, 0), BuildingBlock: ZUJKAS_clean_linker_0, # of connection points: 2
#     Edge 70, Type (0, 0), BuildingBlock: ZUJKAS_clean_linker_0, # of connection points: 2
#     Edge 71, Type (0, 0), BuildingBlock: ZUJKAS_clean_linker_0, # of connection points: 2
#     Edge 72, Type (0, 0), BuildingBlock: ZUJKAS_clean_linker_0, # of connection points: 2
#     Edge 73, Type (0, 0), BuildingBlock: ZUJKAS_clean_linker_0, # of connection points: 2
#     Edge 74, Type (0, 0), BuildingBlock: ZUJKAS_clean_linker_0, # of connection points: 2
#     Edge 75, Type (0, 0), BuildingBlock: ZUJKAS_clean_linker_0, # of connection points: 2
#     Edge 76, Type (0, 0), BuildingBlock: ZUJKAS_clean_linker_0, # of connection points: 2
#     Edge 77, Type (0, 0), BuildingBlock: ZUJKAS_clean_linker_0, # of connection points: 2
#     Edge 78, Type (0, 0), BuildingBlock: ZUJKAS_clean_linker_0, # of connection points: 2
#     Edge 79, Type (0, 0), BuildingBlock: ZUJKAS_clean_linker_0, # of connection points: 2
#     Edge 80, Type (0, 0), BuildingBlock: ZUJKAS_clean_linker_0, # of connection points: 2
#     Edge 81, Type (0, 0), BuildingBlock: ZUJKAS_clean_linker_0, # of connection points: 2
#     Edge 82, Type (0, 0), BuildingBlock: ZUJKAS_clean_linker_0, # of connection points: 2
#     Edge 83, Type (0, 0), BuildingBlock: ZUJKAS_clean_linker_0, # of connection points: 2
#     Edge 84, Type (0, 0), BuildingBlock: ZUJKAS_clean_linker_0, # of connection points: 2
#     Edge 85, Type (0, 0), BuildingBlock: ZUJKAS_clean_linker_0, # of connection points: 2
#     Edge 86, Type (0, 0), BuildingBlock: ZUJKAS_clean_linker_0, # of connection points: 2
#     Edge 87, Type (0, 0), BuildingBlock: ZUJKAS_clean_linker_0, # of connection points: 2
#     Edge 88, Type (0, 0), BuildingBlock: ZUJKAS_clean_linker_0, # of connection points: 2
#     Edge 89, Type (0, 0), BuildingBlock: ZUJKAS_clean_linker_0, # of connection points: 2
#     Edge 90, Type (0, 0), BuildingBlock: ZUJKAS_clean_linker_0, # of connection points: 2
#     Edge 91, Type (0, 0), BuildingBlock: ZUJKAS_clean_linker_0, # of connection points: 2
#     Edge 92, Type (0, 0), BuildingBlock: ZUJKAS_clean_linker_0, # of connection points: 2
#     Edge 93, Type (0, 0), BuildingBlock: ZUJKAS_clean_linker_0, # of connection points: 2
#     Edge 94, Type (0, 0), BuildingBlock: ZUJKAS_clean_linker_0, # of connection points: 2
#     Edge 95, Type (0, 0), BuildingBlock: ZUJKAS_clean_linker_0, # of connection points: 2
#     Edge 96, Type (0, 0), BuildingBlock: ZUJKAS_clean_linker_0, # of connection points: 2
#     Edge 97, Type (0, 0), BuildingBlock: ZUJKAS_clean_linker_0, # of connection points: 2
#     Edge 98, Type (0, 0), BuildingBlock: ZUJKAS_clean_linker_0, # of connection points: 2
#     Edge 99, Type (0, 0), BuildingBlock: ZUJKAS_clean_linker_0, # of connection points: 2
#     Edge 100, Type (0, 0), BuildingBlock: ZUJKAS_clean_linker_0, # of connection points: 2
#     Edge 101, Type (0, 0), BuildingBlock: ZUJKAS_clean_linker_0, # of connection points: 2
#     Edge 102, Type (0, 0), BuildingBlock: ZUJKAS_clean_linker_0, # of connection points: 2
#     Edge 103, Type (0, 0), BuildingBlock: ZUJKAS_clean_linker_0, # of connection points: 2
#     Edge 104, Type (0, 0), BuildingBlock: ZUJKAS_clean_linker_0, # of connection points: 2
#     Edge 105, Type (0, 0), BuildingBlock: ZUJKAS_clean_linker_0, # of connection points: 2
#     Edge 106, Type (0, 0), BuildingBlock: ZUJKAS_clean_linker_0, # of connection points: 2
#     Edge 107, Type (0, 0), BuildingBlock: ZUJKAS_clean_linker_0, # of connection points: 2
#     Edge 108, Type (0, 0), BuildingBlock: ZUJKAS_clean_linker_0, # of connection points: 2
#     Edge 109, Type (0, 0), BuildingBlock: ZUJKAS_clean_linker_0, # of connection points: 2
#     Edge 110, Type (0, 0), BuildingBlock: ZUJKAS_clean_linker_0, # of connection points: 2
#     Edge 111, Type (0, 0), BuildingBlock: ZUJKAS_clean_linker_0, # of connection points: 2
#     Edge 112, Type (0, 0), BuildingBlock: ZUJKAS_clean_linker_0, # of connection points: 2
#     Edge 113, Type (0, 0), BuildingBlock: ZUJKAS_clean_linker_0, # of connection points: 2
#     Edge 114, Type (0, 0), BuildingBlock: ZUJKAS_clean_linker_0, # of connection points: 2
#     Edge 115, Type (0, 0), BuildingBlock: ZUJKAS_clean_linker_0, # of connection points: 2
#     Edge 116, Type (0, 0), BuildingBlock: ZUJKAS_clean_linker_0, # of connection points: 2
#     Edge 117, Type (0, 0), BuildingBlock: ZUJKAS_clean_linker_0, # of connection points: 2
#     Edge 118, Type (0, 0), BuildingBlock: ZUJKAS_clean_linker_0, # of connection points: 2
#     Edge 119, Type (0, 0), BuildingBlock: ZUJKAS_clean_linker_0, # of connection points: 2
#     Edge 120, Type (0, 0), BuildingBlock: ZUJKAS_clean_linker_0, # of connection points: 2
#     Edge 121, Type (0, 0), BuildingBlock: ZUJKAS_clean_linker_0, # of connection points: 2
#     Edge 122, Type (0, 0), BuildingBlock: ZUJKAS_clean_linker_0, # of connection points: 2
#     Edge 123, Type (0, 0), BuildingBlock: ZUJKAS_clean_linker_0, # of connection points: 2
#     Edge 124, Type (0, 0), BuildingBlock: ZUJKAS_clean_linker_0, # of connection points: 2
#     Edge 125, Type (0, 0), BuildingBlock: ZUJKAS_clean_linker_0, # of connection points: 2
#     Edge 126, Type (0, 0), BuildingBlock: ZUJKAS_clean_linker_0, # of connection points: 2
#     Edge 127, Type (0, 0), BuildingBlock: ZUJKAS_clean_linker_0, # of connection points: 2
#     Edge 128, Type (0, 0), BuildingBlock: ZUJKAS_clean_linker_0, # of connection points: 2
#     Edge 129, Type (0, 0), BuildingBlock: ZUJKAS_clean_linker_0, # of connection points: 2
#     Edge 130, Type (0, 0), BuildingBlock: ZUJKAS_clean_linker_0, # of connection points: 2
#     Edge 131, Type (0, 0), BuildingBlock: ZUJKAS_clean_linker_0, # of connection points: 2
#     Edge 132, Type (0, 0), BuildingBlock: ZUJKAS_clean_linker_0, # of connection points: 2
#     Edge 133, Type (0, 0), BuildingBlock: ZUJKAS_clean_linker_0, # of connection points: 2
#     Edge 134, Type (0, 0), BuildingBlock: ZUJKAS_clean_linker_0, # of connection points: 2
#     Edge 135, Type (0, 0), BuildingBlock: ZUJKAS_clean_linker_0, # of connection points: 2
#     Edge 136, Type (0, 0), BuildingBlock: ZUJKAS_clean_linker_0, # of connection points: 2
#     Edge 137, Type (0, 0), BuildingBlock: ZUJKAS_clean_linker_0, # of connection points: 2
#     Edge 138, Type (0, 0), BuildingBlock: ZUJKAS_clean_linker_0, # of connection points: 2
#     Edge 139, Type (0, 0), BuildingBlock: ZUJKAS_clean_linker_0, # of connection points: 2
#     Edge 140, Type (0, 0), BuildingBlock: ZUJKAS_clean_linker_0, # of connection points: 2
#     Edge 141, Type (0, 0), BuildingBlock: ZUJKAS_clean_linker_0, # of connection points: 2
#     Edge 142, Type (0, 0), BuildingBlock: ZUJKAS_clean_linker_0, # of connection points: 2
#     Edge 143, Type (0, 0), BuildingBlock: ZUJKAS_clean_linker_0, # of connection points: 2
# Relax obj value: 0.225
# Max RMSD: 0.234
# Mean RMSD: 0.234
data_MOF--net-soq--node1-NUHQUE_clean_sbu_2--edge1-ZUJKAS_clean_linker_0
_symmetry_space_group_name_H-M    P1
_symmetry_Int_Tables_number       1
_symmetry_cell_setting            triclinic
loop_
_symmetry_equiv_pos_as_xyz
'x, y, z'
_cell_length_a     87.991523
_cell_length_b     52.379677
_cell_length_c     68.66681
_cell_angle_alpha  90.004239
_cell_angle_beta   90.055491
_cell_angle_gamma 90.053265
loop_
_atom_site_label
_atom_site_type_symbol
_atom_site_fract_x
_atom_site_fract_y
_atom_site_fract_z
_atom_type_partial_charge
O0 O 0.07621 0.29611 0.99574 0.0
Tb1 Tb 0.06834 0.27432 0.02073 0.0
Eu2 Eu 0.04077 0.26787 0.05523 0.0
C3 C 0.06795 0.3152 0.98919 0.0
O4 O 0.05582 0.32202 0.99904 0.0
C5 C 0.03713 0.24957 1.01106 0.0
O6 O 0.0332 0.23807 0.07621 0.0
C7 C 0.02506 0.30929 0.05958 0.0
C8 C 0.03766 0.21449 0.07344 0.0
O9 O 0.04625 0.20915 0.05834 0.0
C10 C 0.07334 0.29124 0.06341 0.0
C11 C 0.0262 0.33416 0.06994 0.0
C12 C 0.03077 0.35581 0.05937 0.0
C13 C 0.03122 0.37995 0.06814 0.0
C14 C 0.02746 0.38234 0.08784 0.0
C15 C 0.02254 0.36127 0.09867 0.0
C16 C 0.02176 0.33711 0.08965 0.0
O17 O 0.04649 0.26817 1.00638 0.0
O18 O 0.03493 0.24335 0.02935 0.0
O19 O 0.08694 0.24887 1.01266 0.0
O20 O 0.07071 0.23617 0.03349 0.0
C21 C 0.08297 0.23004 0.02393 0.0
O22 O 0.06382 0.27313 0.06843 0.0
O23 O 0.07429 0.29913 0.04522 0.0
O24 O 0.02287 0.28873 0.07019 0.0
O25 O 0.03447 0.30558 0.04488 0.0
H26 H 0.03357 0.35407 0.04405 0.0
H27 H 0.02725 0.40113 0.0945 0.0
H28 H 0.01759 0.32091 0.09788 0.0
O29 O 0.17336 0.92581 0.99798 0.0
Tb30 Tb 0.18085 0.94903 0.02248 0.0
Eu31 Eu 0.20749 0.96228 0.05656 0.0
C32 C 0.18231 0.90778 0.99116 0.0
O33 O 0.19494 0.90259 1.00059 0.0
C34 C 0.21082 0.97691 1.01153 0.0
O35 O 0.21494 -0.00447 0.07439 0.0
C36 C 0.2255 0.92397 0.06271 0.0
C37 C 0.20937 0.01814 0.07046 0.0
O38 O 0.1993 0.02056 0.05647 0.0
C39 C 0.17613 0.93547 0.06567 0.0
C40 C 0.22674 0.89871 0.07237 0.0
C41 C 0.22859 0.87724 0.06036 0.0
C42 C 0.23131 0.85317 0.06841 0.0
C43 C 0.23158 0.85027 0.08861 0.0
C44 C 0.22989 0.87124 0.10104 0.0
C45 C 0.22767 0.89572 0.09289 0.0
O46 O 0.2023 0.9569 1.00762 0.0
O47 O 0.21238 0.98505 0.02949 0.0
O48 O 0.16131 0.97269 1.01461 0.0
O49 O 0.17772 0.98747 0.0344 0.0
C50 C 0.16505 -0.00773 0.02528 0.0
O51 O 0.18447 0.95565 0.06946 0.0
O52 O 0.17625 0.92525 0.0481 0.0
O53 O 0.22534 0.94447 0.07375 0.0
O54 O 0.21656 0.92563 0.0473 0.0
H55 H 0.22865 0.87946 0.04465 0.0
H56 H 0.23368 0.83151 0.09475 0.0
H57 H 0.2268 0.91215 0.10241 0.0
O58 O 0.07519 0.93004 0.28866 0.0
Tb59 Tb 0.06739 0.95201 0.26371 0.0
Eu60 Eu 0.04176 0.96458 0.22868 0.0
C61 C 0.068 0.90917 0.29402 0.0
O62 O 0.05695 0.90044 0.28298 0.0
C63 C 0.03676 0.97814 0.27379 0.0
O64 O 0.03459 -0.00226 0.21052 0.0
C65 C 0.02529 0.92471 0.22101 0.0
C66 C 0.0385 0.02083 0.21597 0.0
O67 O 0.04669 0.02385 0.23181 0.0
C68 C 0.07361 0.93938 0.22097 0.0
C69 C 0.02607 0.89976 0.2107 0.0
C70 C 0.02934 0.87768 0.22154 0.0
C71 C 0.02896 0.85347 0.21286 0.0
C72 C 0.02575 0.8514 0.19296 0.0
C73 C 0.02219 0.87296 0.18183 0.0
C74 C 0.02219 0.89721 0.19075 0.0
O75 O 0.04555 0.95857 0.278 0.0
O76 O 0.03543 0.98622 0.25579 0.0
O77 O 0.08656 0.97653 0.27158 0.0
O78 O 0.06986 -0.00928 0.25199 0.0
C79 C 0.08249 -0.00399 0.26103 0.0
O80 O 0.06539 0.95967 0.21724 0.0
O81 O 0.07275 0.92842 0.23823 0.0
O82 O 0.02501 0.94556 0.21034 0.0
O83 O 0.03339 0.92718 0.2371 0.0
H84 H 0.03171 0.87917 0.237 0.0
H85 H 0.02496 0.83266 0.18629 0.0
H86 H 0.01899 0.91381 0.18227 0.0
O87 O 0.17404 0.29767 0.28775 0.0
Tb88 Tb 0.18185 0.27578 0.2628 0.0
Eu89 Eu 0.20988 0.26772 0.22885 0.0
C90 C 0.1827 0.31584 0.29498 0.0
O91 O 0.19528 0.32191 0.28578 0.0
C92 C 0.21219 0.24909 0.2729 0.0
O93 O 0.21626 0.23692 0.20812 0.0
C94 C 0.22854 0.30573 0.22535 0.0
C95 C 0.20659 0.21832 0.20525 0.0
O96 O 0.19349 0.2187 0.21439 0.0
C97 C 0.17774 0.29386 0.22 0.0
C98 C 0.23074 0.33049 0.21526 0.0
C99 C 0.23272 0.3523 0.22687 0.0
C100 C 0.23601 0.37601 0.21844 0.0
C101 C 0.23709 0.37799 0.19819 0.0
C102 C 0.2354 0.35657 0.18625 0.0
C103 C 0.23225 0.33262 0.19475 0.0
O104 O 0.20355 0.26874 0.27722 0.0
O105 O 0.21398 0.24209 0.2547 0.0
O106 O 0.16275 0.25133 0.27088 0.0
O107 O 0.1787 0.23776 0.25005 0.0
C108 C 0.16633 0.23228 0.25961 0.0
O109 O 0.18755 0.27638 0.21457 0.0
O110 O 0.17653 0.30102 0.23836 0.0
O111 O 0.22957 0.28476 0.21493 0.0
O112 O 0.21803 0.30466 0.23904 0.0
H113 H 0.23203 0.35071 0.24259 0.0
H114 H 0.2401 0.39615 0.19162 0.0
H115 H 0.23127 0.31591 0.18555 0.0
O116 O 0.92725 0.68486 0.03525 0.0
Tb117 Tb 0.93427 0.70574 1.00936 0.0
Eu118 Eu 0.96229 0.71387 0.97519 0.0
C119 C 0.93449 0.6641 0.04075 0.0
O120 O 0.94523 0.65488 0.0295 0.0
C121 C 0.96438 0.7334 0.01882 0.0
O122 O 0.96958 0.74069 0.95169 0.0
C123 C 0.97956 0.6738 0.97517 0.0
C124 C 0.96882 0.73364 0.93337 0.0
O125 O 0.96398 0.71058 0.92906 0.0
C126 C 0.93016 0.68808 0.96644 0.0
C127 C 0.98225 0.64868 0.96593 0.0
C128 C 0.98622 0.62846 0.9783 0.0
C129 C 0.98995 0.60447 0.97074 0.0
C130 C 0.98939 0.60059 0.95061 0.0
C131 C 0.98553 0.62037 0.93782 0.0
C132 C 0.9821 0.64474 0.94549 0.0
O133 O 0.95617 0.7132 0.02318 0.0
O134 O 0.96589 0.7405 1.00058 0.0
O135 O 0.91428 0.72865 1.01627 0.0
O136 O 0.93148 0.74474 0.99827 0.0
C137 C 0.91838 0.74885 1.00655 0.0
O138 O 0.93982 0.70583 0.96106 0.0
O139 O 0.92909 0.68065 0.98476 0.0
O140 O 0.98254 0.69438 0.96493 0.0
O141 O 0.96762 0.67608 0.98663 0.0
H142 H 0.98668 0.63156 0.99392 0.0
H143 H 0.99274 0.58222 0.94469 0.0
H144 H 0.97941 0.66033 0.93571 0.0
O145 O 0.82508 0.04939 0.03878 0.0
Tb146 Tb 0.81809 0.02746 1.01333 0.0
Eu147 Eu 0.79167 0.01484 0.97851 0.0
C148 C 0.81745 0.06981 0.04417 0.0
O149 O 0.80649 0.07825 0.03286 0.0
C150 C 0.78746 0.00078 0.02359 0.0
O151 O 0.78295 0.98265 0.96048 0.0
C152 C 0.77581 0.0556 0.97174 0.0
C153 C 0.78886 0.95993 0.9629 0.0
O154 O 0.79991 0.9569 0.97556 0.0
C155 C 0.82353 0.03928 0.9702 0.0
C156 C 0.77693 0.08085 0.96193 0.0
C157 C 0.78018 0.10244 0.97333 0.0
C158 C 0.77991 0.12698 0.96524 0.0
C159 C 0.77699 0.12986 0.94532 0.0
C160 C 0.77349 0.10881 0.93359 0.0
C161 C 0.77327 0.08421 0.94197 0.0
O162 O 0.79634 0.02032 0.02772 0.0
O163 O 0.78583 -0.00722 1.00559 0.0
O164 O 0.83835 0.00478 0.01962 0.0
O165 O 0.82024 0.98773 1.00371 0.0
C166 C 0.83373 0.98403 1.01101 0.0
O167 O 0.81527 0.0189 0.96682 0.0
O168 O 0.82281 0.05055 0.98737 0.0
O169 O 0.77521 0.03517 0.96064 0.0
O170 O 0.78388 0.05225 0.98776 0.0
H171 H 0.78232 0.10032 0.9888 0.0
H172 H 0.77622 0.14888 0.93913 0.0
H173 H 0.77007 0.06798 0.93308 0.0
O174 O 0.92425 0.04908 0.74698 0.0
Tb175 Tb 0.93161 0.02652 0.77185 0.0
Eu176 Eu 0.95701 0.01046 0.8071 0.0
C177 C 0.93209 0.06919 0.74141 0.0
O178 O 0.94346 0.07702 0.75231 0.0
C179 C 0.96199 -0.00041 0.76139 0.0
O180 O 0.96328 0.97448 0.82287 0.0
C181 C 0.97462 0.04868 0.81559 0.0
C182 C 0.95832 0.95274 0.81573 0.0
O183 O 0.94972 0.95303 0.80011 0.0
C184 C 0.92596 0.03871 0.81482 0.0
C185 C 0.97437 0.07443 0.82477 0.0
C186 C 0.97255 0.09605 0.81279 0.0
C187 C 0.97336 0.12076 0.82056 0.0
C188 C 0.97565 0.12388 0.84058 0.0
C189 C 0.97787 0.10284 0.85279 0.0
C190 C 0.97737 0.07801 0.84486 0.0
O191 O 0.9534 0.01955 0.75761 0.0
O192 O 0.96311 -0.00952 0.77914 0.0
O193 O 0.91206 0.00293 0.76379 0.0
O194 O 0.92865 0.98772 0.78309 0.0
C195 C 0.91592 0.98309 0.77407 0.0
O196 O 0.93339 0.01743 0.81808 0.0
O197 O 0.92687 0.04984 0.79762 0.0
O198 O 0.97314 0.02858 0.82694 0.0
O199 O 0.96757 0.0462 0.79872 0.0
H200 H 0.97094 0.09374 0.79724 0.0
H201 H 0.97682 0.14296 0.84656 0.0
H202 H 0.97953 0.06176 0.85421 0.0
O203 O 0.82406 0.68082 0.74613 0.0
Tb204 Tb 0.81668 0.70324 0.77108 0.0
Eu205 Eu 0.78991 0.71329 0.80611 0.0
C206 C 0.81516 0.66282 0.73909 0.0
O207 O 0.80258 0.65723 0.74847 0.0
C208 C 0.78634 0.73037 0.76174 0.0
O209 O 0.782 0.74467 0.8255 0.0
C210 C 0.7724 0.67387 0.81038 0.0
C211 C 0.78865 0.76698 0.82432 0.0
O212 O 0.79993 0.77011 0.81203 0.0
C213 C 0.82208 0.68764 0.81398 0.0
C214 C 0.77162 0.64798 0.8191 0.0
C215 C 0.77057 0.62715 0.80632 0.0
C216 C 0.76848 0.60237 0.81339 0.0
C217 C 0.76782 0.59825 0.83349 0.0
C218 C 0.76865 0.61859 0.8467 0.0
C219 C 0.7704 0.64367 0.83945 0.0
O220 O 0.79471 0.7104 0.7574 0.0
O221 O 0.78499 0.73789 0.77989 0.0
O222 O 0.83562 0.72776 0.76246 0.0
O223 O 0.8199 0.74136 0.78357 0.0
C224 C 0.83213 0.74684 0.77374 0.0
O225 O 0.81292 0.70626 0.81907 0.0
O226 O 0.82229 0.67891 0.79595 0.0
O227 O 0.77209 0.69365 0.82215 0.0
O228 O 0.78143 0.67699 0.79521 0.0
H229 H 0.77091 0.63032 0.79072 0.0
H230 H 0.76561 0.57915 0.83891 0.0
H231 H 0.77065 0.65958 0.84953 0.0
O232 O 0.07597 0.79452 0.49625 0.0
Tb233 Tb 0.06797 0.77336 0.5215 0.0
Eu234 Eu 0.04009 0.76515 0.55592 0.0
C235 C 0.069 0.81552 0.49072 0.0
O236 O 0.05821 0.82489 0.50183 0.0
C237 C 0.03674 0.74931 0.51107 0.0
O238 O 0.0319 0.73293 0.57435 0.0
C239 C 0.02373 0.80559 0.56164 0.0
C240 C 0.03783 0.71031 0.57146 0.0
O241 O 0.0484 0.70757 0.55814 0.0
C242 C 0.0725 0.78926 0.56448 0.0
C243 C 0.0246 0.83076 0.5716 0.0
C244 C 0.02774 0.85256 0.56036 0.0
C245 C 0.02763 0.87694 0.56874 0.0
C246 C 0.02482 0.87948 0.58869 0.0
C247 C 0.02133 0.85826 0.60021 0.0
C248 C 0.02107 0.8338 0.59162 0.0
O249 O 0.04611 0.76815 0.50701 0.0
O250 O 0.03452 0.74207 0.52914 0.0
O251 O 0.08678 0.74817 0.51373 0.0
O252 O 0.07003 0.73478 0.5336 0.0
C253 C 0.08254 0.72897 0.52447 0.0
O254 O 0.06318 0.77063 0.56908 0.0
O255 O 0.0735 0.7977 0.54642 0.0
O256 O 0.02276 0.78508 0.57261 0.0
O257 O 0.03237 0.80236 0.54611 0.0
H258 H 0.02976 0.8507 0.54485 0.0
H259 H 0.02417 0.89839 0.59509 0.0
H260 H 0.01795 0.81743 0.6004 0.0
O261 O 0.17223 0.42443 0.49837 0.0
Tb262 Tb 0.18028 0.44783 0.5224 0.0
Eu263 Eu 0.20827 0.45881 0.55501 0.0
C264 C 0.18098 0.40615 0.49158 0.0
O265 O 0.19366 0.40084 0.50087 0.0
C266 C 0.21031 0.47479 0.51017 0.0
O267 O 0.2165 0.4915 0.57287 0.0
C268 C 0.22603 0.41975 0.55915 0.0
C269 C 0.21042 0.51392 0.56965 0.0
O270 O 0.19975 0.51609 0.55637 0.0
C271 C 0.17644 0.4342 0.56569 0.0
C272 C 0.22793 0.39423 0.56812 0.0
C273 C 0.23137 0.37386 0.55561 0.0
C274 C 0.23465 0.34961 0.56302 0.0
C275 C 0.23412 0.34555 0.58314 0.0
C276 C 0.23089 0.36551 0.59606 0.0
C277 C 0.22792 0.3901 0.58853 0.0
O278 O 0.2013 0.45534 0.50644 0.0
O279 O 0.21267 0.48228 0.52814 0.0
O280 O 0.16069 0.47157 0.51495 0.0
O281 O 0.17744 0.48635 0.53427 0.0
C282 C 0.16465 0.49119 0.52544 0.0
O283 O 0.18567 0.45326 0.56941 0.0
O284 O 0.17595 0.4241 0.54809 0.0
O285 O 0.22662 0.43993 0.57053 0.0
O286 O 0.21625 0.4219 0.54465 0.0
H287 H 0.2319 0.37707 0.54002 0.0
H288 H 0.23719 0.32698 0.58891 0.0
H289 H 0.2258 0.40579 0.59844 0.0
O290 O 0.07379 0.42717 0.78687 0.0
Tb291 Tb 0.06603 0.45031 0.76253 0.0
Eu292 Eu 0.0387 0.45976 0.72883 0.0
C293 C 0.06485 0.40944 0.79417 0.0
O294 O 0.05188 0.40457 0.78541 0.0
C295 C 0.036 0.47819 0.77286 0.0
O296 O 0.03084 0.49015 0.70851 0.0
C297 C 0.02178 0.41934 0.72611 0.0
C298 C 0.03931 0.51065 0.70728 0.0
O299 O 0.05177 0.512 0.71778 0.0
C300 C 0.0709 0.43573 0.71945 0.0
C301 C 0.02066 0.39367 0.71704 0.0
C302 C 0.01912 0.37256 0.72951 0.0
C303 C 0.0169 0.34797 0.722 0.0
C304 C 0.01648 0.34444 0.70182 0.0
C305 C 0.01777 0.36509 0.68895 0.0
C306 C 0.01974 0.3899 0.69662 0.0
O307 O 0.04451 0.45836 0.77727 0.0
O308 O 0.03428 0.48516 0.75465 0.0
O309 O 0.08537 0.47416 0.7709 0.0
O310 O 0.06944 0.4886 0.75038 0.0
C311 C 0.08189 0.49358 0.75995 0.0
O312 O 0.0615 0.45427 0.71505 0.0
O313 O 0.07116 0.4262 0.73724 0.0
O314 O 0.02012 0.43944 0.71483 0.0
O315 O 0.03197 0.42251 0.74002 0.0
H316 H 0.0193 0.37537 0.74516 0.0
H317 H 0.01419 0.32555 0.69603 0.0
H318 H 0.02043 0.40603 0.68678 0.0
O319 O 0.17543 0.79452 0.78862 0.0
Tb320 Tb 0.18259 0.77267 0.76325 0.0
Eu321 Eu 0.20938 0.76449 0.72772 0.0
C322 C 0.1844 0.81222 0.79594 0.0
O323 O 0.19706 0.81782 0.78675 0.0
C324 C 0.21288 0.74486 0.77132 0.0
O325 O 0.21566 0.73385 0.70685 0.0
C326 C 0.22794 0.80256 0.72376 0.0
C327 C 0.20604 0.71514 0.70407 0.0
O328 O 0.19297 0.71541 0.71328 0.0
C329 C 0.17712 0.79081 0.72061 0.0
C330 C 0.22959 0.82772 0.71406 0.0
C331 C 0.23109 0.84932 0.72599 0.0
C332 C 0.2339 0.87342 0.71794 0.0
C333 C 0.23491 0.87602 0.69771 0.0
C334 C 0.23369 0.85482 0.68544 0.0
C335 C 0.2311 0.83048 0.6936 0.0
O336 O 0.20475 0.76485 0.77636 0.0
O337 O 0.21386 0.73816 0.75297 0.0
O338 O 0.16382 0.74799 0.77221 0.0
O339 O 0.17892 0.73493 0.75021 0.0
C340 C 0.16695 0.7292 0.76048 0.0
O341 O 0.18665 0.77321 0.71467 0.0
O342 O 0.17651 0.79794 0.73905 0.0
O343 O 0.22846 0.78202 0.71279 0.0
O344 O 0.2181 0.80088 0.73823 0.0
H345 H 0.23045 0.84728 0.74169 0.0
H346 H 0.23755 0.89451 0.69143 0.0
H347 H 0.23052 0.81395 0.68414 0.0
O348 O 0.92629 0.18343 0.53888 0.0
Tb349 Tb 0.93344 0.20344 0.51268 0.0
Eu350 Eu 0.96068 0.21293 0.47773 0.0
C351 C 0.93302 0.16218 0.5443 0.0
O352 O 0.94328 0.152 0.53278 0.0
C353 C 0.96378 0.23023 0.52199 0.0
O354 O 0.96707 0.24524 0.45828 0.0
C355 C 0.97953 0.17527 0.47381 0.0
C356 C 0.9573 0.26389 0.45616 0.0
O357 O 0.94418 0.26255 0.4652 0.0
C358 C 0.92868 0.18568 0.46991 0.0
C359 C 0.98119 0.14939 0.46531 0.0
C360 C 0.98356 0.12903 0.47824 0.0
C361 C 0.98604 0.10429 0.4713 0.0
C362 C 0.98599 0.09977 0.45124 0.0
C363 C 0.9839 0.11968 0.4379 0.0
C364 C 0.98163 0.14473 0.44495 0.0
O365 O 0.95555 0.21001 0.52624 0.0
O366 O 0.96489 0.23801 0.50387 0.0
O367 O 0.91372 0.22728 0.5191 0.0
O368 O 0.93144 0.24249 0.50152 0.0
C369 C 0.91829 0.24723 0.50944 0.0
O370 O 0.93812 0.20363 0.4643 0.0
O371 O 0.92783 0.17829 0.48826 0.0
O372 O 0.97922 0.19494 0.46192 0.0
O373 O 0.97031 0.17763 0.48886 0.0
H374 H 0.98373 0.1325 0.49381 0.0
H375 H 0.98844 0.08072 0.4459 0.0
H376 H 0.98029 0.16031 0.43472 0.0
O377 O 0.82605 0.54932 0.53656 0.0
Tb378 Tb 0.81909 0.52681 0.51143 0.0
Eu379 Eu 0.79208 0.51392 0.47654 0.0
C380 C 0.81706 0.56736 0.54327 0.0
O381 O 0.80467 0.57296 0.53346 0.0
C382 C 0.7889 0.4992 0.52179 0.0
O383 O 0.78458 0.47977 0.45958 0.0
C384 C 0.77395 0.55219 0.47076 0.0
C385 C 0.79051 0.45759 0.46411 0.0
O386 O 0.80091 0.45653 0.47779 0.0
C387 C 0.82351 0.54136 0.46824 0.0
C388 C 0.77325 0.57826 0.46227 0.0
C389 C 0.77277 0.59907 0.47516 0.0
C390 C 0.77099 0.62399 0.46823 0.0
C391 C 0.76993 0.62824 0.44818 0.0
C392 C 0.77013 0.60794 0.43489 0.0
C393 C 0.77165 0.58275 0.442 0.0
O394 O 0.79748 0.51907 0.52587 0.0
O395 O 0.7873 0.49123 0.50378 0.0
O396 O 0.83943 0.50451 0.51813 0.0
O397 O 0.82193 0.48757 0.50107 0.0
C398 C 0.83524 0.48395 0.50891 0.0
O399 O 0.81509 0.52149 0.46382 0.0
O400 O 0.82349 0.55089 0.48602 0.0
O401 O 0.77483 0.53262 0.4588 0.0
O402 O 0.78208 0.54931 0.48677 0.0
H403 H 0.7734 0.59584 0.49074 0.0
H404 H 0.76795 0.64748 0.4429 0.0
H405 H 0.77144 0.56691 0.43186 0.0
O406 O 0.92445 0.55019 0.24341 0.0
Tb407 Tb 0.93149 0.52957 0.26941 0.0
Eu408 Eu 0.95966 0.52007 0.30356 0.0
C409 C 0.9318 0.57084 0.23789 0.0
O410 O 0.94245 0.58013 0.24932 0.0
C411 C 0.96169 0.50254 0.25914 0.0
O412 O 0.96618 0.48846 0.32363 0.0
C413 C 0.9785 0.55785 0.30708 0.0
C414 C 0.95923 0.46647 0.32177 0.0
O415 O 0.94863 0.46399 0.30843 0.0
C416 C 0.9279 0.54713 0.3124 0.0
C417 C 0.98095 0.58278 0.3168 0.0
C418 C 0.98394 0.60397 0.30489 0.0
C419 C 0.98767 0.62769 0.31301 0.0
C420 C 0.98814 0.63031 0.33327 0.0
C421 C 0.98538 0.6095 0.34552 0.0
C422 C 0.98182 0.58554 0.33731 0.0
O423 O 0.95316 0.52242 0.25499 0.0
O424 O 0.9635 0.49519 0.27726 0.0
O425 O 0.91123 0.50668 0.2636 0.0
O426 O 0.92916 0.49044 0.2803 0.0
C427 C 0.91573 0.48638 0.27289 0.0
O428 O 0.93733 0.52897 0.31766 0.0
O429 O 0.9268 0.55473 0.29412 0.0
O430 O 0.97924 0.5371 0.31781 0.0
O431 O 0.9681 0.55676 0.29323 0.0
H432 H 0.98369 0.60182 0.28918 0.0
H433 H 0.99147 0.64843 0.33966 0.0
H434 H 0.98004 0.56926 0.34677 0.0
O435 O 0.82319 0.18566 0.2468 0.0
Tb436 Tb 0.81646 0.20649 0.27288 0.0
Eu437 Eu 0.78972 0.2157 0.30798 0.0
C438 C 0.81564 0.1653 0.24105 0.0
O439 O 0.80478 0.15626 0.25223 0.0
C440 C 0.78611 0.23384 0.26411 0.0
O441 O 0.78119 0.24338 0.33009 0.0
C442 C 0.77368 0.17426 0.30984 0.0
C443 C 0.78256 0.2384 0.34873 0.0
O444 O 0.78924 0.21721 0.35432 0.0
C445 C 0.8219 0.1908 0.31587 0.0
C446 C 0.77344 0.14876 0.31922 0.0
C447 C 0.77404 0.12741 0.30696 0.0
C448 C 0.77266 0.10273 0.31449 0.0
C449 C 0.77107 0.0993 0.33458 0.0
C450 C 0.77031 0.12018 0.3473 0.0
C451 C 0.77134 0.14513 0.33954 0.0
O452 O 0.79428 0.21364 0.25964 0.0
O453 O 0.78503 0.24132 0.28231 0.0
O454 O 0.83623 0.22989 0.26569 0.0
O455 O 0.81899 0.24563 0.28376 0.0
C456 C 0.83202 0.25002 0.27539 0.0
O457 O 0.81275 0.2094 0.321 0.0
O458 O 0.82209 0.18214 0.2978 0.0
O459 O 0.77105 0.19429 0.32082 0.0
O460 O 0.78407 0.17824 0.29633 0.0
H461 H 0.77513 0.13003 0.29135 0.0
H462 H 0.76938 0.08019 0.34026 0.0
H463 H 0.7704 0.16142 0.34918 0.0
O464 O 0.57411 0.2983 0.49555 0.0
Tb465 Tb 0.56652 0.27665 0.52079 0.0
Eu466 Eu 0.5382 0.26789 0.55531 0.0
C467 C 0.56557 0.31671 0.48848 0.0
O468 O 0.55314 0.3231 0.49788 0.0
C469 C 0.53571 0.25069 0.51049 0.0
O470 O 0.53191 0.23496 0.57421 0.0
C471 C 0.51928 0.30514 0.56063 0.0
C472 C 0.53847 0.21295 0.57086 0.0
O473 O 0.54845 0.21121 0.55673 0.0
C474 C 0.57053 0.29356 0.56381 0.0
C475 C 0.51673 0.33005 0.57034 0.0
C476 C 0.51278 0.35078 0.55843 0.0
C477 C 0.50884 0.37433 0.56656 0.0
C478 C 0.50936 0.37747 0.58675 0.0
C479 C 0.51324 0.35722 0.59907 0.0
C480 C 0.51675 0.3332 0.59088 0.0
O481 O 0.54489 0.26967 0.50608 0.0
O482 O 0.53351 0.24392 0.52868 0.0
O483 O 0.58656 0.25357 0.51428 0.0
O484 O 0.56904 0.23759 0.53177 0.0
C485 C 0.58226 0.23338 0.52386 0.0
O486 O 0.56086 0.27575 0.56906 0.0
O487 O 0.57136 0.30153 0.54561 0.0
O488 O 0.51939 0.28442 0.57143 0.0
O489 O 0.52898 0.30447 0.54598 0.0
H490 H 0.51219 0.34828 0.54276 0.0
H491 H 0.50641 0.39584 0.593 0.0
H492 H 0.51939 0.31727 0.60035 0.0
O493 O 0.67509 0.93192 0.49705 0.0
Tb494 Tb 0.68249 0.95454 0.52186 0.0
Eu495 Eu 0.71053 0.96316 0.55531 0.0
C496 C 0.68379 0.91336 0.4906 0.0
O497 O 0.69614 0.90755 0.50042 0.0
C498 C 0.71274 0.98152 0.51101 0.0
O499 O 0.71898 -0.00603 0.5748 0.0
C500 C 0.72737 0.92288 0.559 0.0
C501 C 0.71231 0.01626 0.5738 0.0
O502 O 0.70084 0.01936 0.56178 0.0
C503 C 0.67862 0.93864 0.56509 0.0
C504 C 0.72761 0.89782 0.56913 0.0
C505 C 0.72661 0.87564 0.55772 0.0
C506 C 0.72784 0.8514 0.5662 0.0
C507 C 0.72969 0.84933 0.58637 0.0
C508 C 0.73103 0.87105 0.59809 0.0
C509 C 0.73009 0.89544 0.58947 0.0
O510 O 0.70385 0.96214 0.50663 0.0
O511 O 0.71488 0.98817 0.52922 0.0
O512 O 0.66237 0.97737 0.51523 0.0
O513 O 0.67988 -0.00633 0.53266 0.0
C514 C 0.66664 -0.00231 0.52471 0.0
O515 O 0.68804 0.95708 0.56974 0.0
O516 O 0.67769 0.93015 0.54703 0.0
O517 O 0.72917 0.94351 0.56966 0.0
O518 O 0.71743 0.92575 0.54473 0.0
H519 H 0.72532 0.87723 0.54205 0.0
H520 H 0.73116 0.83065 0.59293 0.0
H521 H 0.7315 0.91226 0.59847 0.0
O522 O 0.57532 0.92888 0.78857 0.0
Tb523 Tb 0.56808 0.95035 0.76311 0.0
Eu524 Eu 0.54124 0.95967 0.72844 0.0
C525 C 0.56666 0.9105 0.79547 0.0
O526 O 0.55432 0.90416 0.78581 0.0
C527 C 0.5377 0.9775 0.77254 0.0
O528 O 0.53475 -0.0091 0.70812 0.0
C529 C 0.52369 0.92029 0.72422 0.0
C530 C 0.5446 0.00933 0.7055 0.0
O531 O 0.55768 0.00837 0.71471 0.0
C532 C 0.57324 0.93371 0.72039 0.0
C533 C 0.52331 0.89495 0.7145 0.0
C534 C 0.52436 0.87304 0.72622 0.0
C535 C 0.52326 0.84859 0.71807 0.0
C536 C 0.52138 0.84604 0.69794 0.0
C537 C 0.51996 0.86747 0.68593 0.0
C538 C 0.52081 0.89206 0.69422 0.0
O539 O 0.54622 0.95775 0.77712 0.0
O540 O 0.5364 0.98476 0.75433 0.0
O541 O 0.58787 0.97392 0.76999 0.0
O542 O 0.57059 -0.01079 0.75173 0.0
C543 C 0.58364 -0.00619 0.76001 0.0
O544 O 0.56403 0.95214 0.71515 0.0
O545 O 0.57358 0.92544 0.73853 0.0
O546 O 0.52271 0.94074 0.71318 0.0
O547 O 0.53317 0.92298 0.739 0.0
H548 H 0.52569 0.87498 0.74186 0.0
H549 H 0.52002 0.82717 0.69164 0.0
H550 H 0.51939 0.90865 0.68498 0.0
O551 O 0.67408 0.29723 0.78586 0.0
Tb552 Tb 0.68185 0.27476 0.76118 0.0
Eu553 Eu 0.7099 0.26541 0.72753 0.0
C554 C 0.68257 0.316 0.79253 0.0
O555 O 0.69497 0.32217 0.78298 0.0
C556 C 0.71254 0.24922 0.77243 0.0
O557 O 0.71858 0.23318 0.70964 0.0
C558 C 0.72667 0.30549 0.72216 0.0
C559 C 0.71165 0.21114 0.71103 0.0
O560 O 0.69975 0.20905 0.72245 0.0
C561 C 0.67782 0.28946 0.71787 0.0
C562 C 0.7263 0.33065 0.71217 0.0
C563 C 0.72371 0.35256 0.72347 0.0
C564 C 0.72439 0.37695 0.71518 0.0
C565 C 0.7272 0.37943 0.69522 0.0
C566 C 0.7301 0.35804 0.68361 0.0
C567 C 0.72981 0.33353 0.69213 0.0
O568 O 0.70327 0.26817 0.77651 0.0
O569 O 0.71483 0.24207 0.75435 0.0
O570 O 0.66186 0.25151 0.76767 0.0
O571 O 0.67974 0.23533 0.75087 0.0
C572 C 0.66643 0.23111 0.75856 0.0
O573 O 0.68711 0.27073 0.71356 0.0
O574 O 0.67708 0.29861 0.73575 0.0
O575 O 0.72762 0.28495 0.71123 0.0
O576 O 0.71773 0.30254 0.73745 0.0
H577 H 0.72165 0.35073 0.73898 0.0
H578 H 0.72827 0.39832 0.68887 0.0
H579 H 0.73249 0.31702 0.68328 0.0
O580 O 0.42575 0.679 0.53792 0.0
Tb581 Tb 0.43312 0.70053 0.51252 0.0
Eu582 Eu 0.46004 0.71259 0.47777 0.0
C583 C 0.43324 0.65855 0.54357 0.0
O584 O 0.44428 0.64987 0.53255 0.0
C585 C 0.46405 0.72615 0.52312 0.0
O586 O 0.46624 0.746 0.45926 0.0
C587 C 0.47708 0.67351 0.46996 0.0
C588 C 0.46091 0.76843 0.46421 0.0
O589 O 0.45252 0.77039 0.47994 0.0
C590 C 0.42806 0.6874 0.46955 0.0
C591 C 0.47724 0.64903 0.45901 0.0
C592 C 0.47648 0.62618 0.4697 0.0
C593 C 0.47794 0.6025 0.46044 0.0
C594 C 0.47952 0.60159 0.44021 0.0
C595 C 0.48073 0.62393 0.4292 0.0
C596 C 0.47972 0.64782 0.4386 0.0
O597 O 0.45486 0.707 0.52713 0.0
O598 O 0.46604 0.73401 0.50515 0.0
O599 O 0.41297 0.72345 0.51882 0.0
O600 O 0.43098 0.74015 0.50259 0.0
C601 C 0.41756 0.74406 0.51002 0.0
O602 O 0.43655 0.7074 0.46584 0.0
O603 O 0.42844 0.67679 0.48695 0.0
O604 O 0.4776 0.69492 0.45998 0.0
O605 O 0.46821 0.67477 0.48543 0.0
H606 H 0.47558 0.62685 0.48544 0.0
H607 H 0.4806 0.58323 0.433 0.0
H608 H 0.48109 0.66514 0.43017 0.0
O609 O 0.325 0.04603 0.53619 0.0
Tb610 Tb 0.31763 0.02323 0.51143 0.0
Eu611 Eu 0.28989 0.01417 0.47757 0.0
C612 C 0.31634 0.06476 0.54247 0.0
O613 O 0.3041 0.07069 0.53246 0.0
C614 C 0.28692 -0.0027 0.52228 0.0
O615 O 0.28044 0.9832 0.45894 0.0
C616 C 0.27427 0.05566 0.47292 0.0
C617 C 0.28619 0.96024 0.46055 0.0
O618 O 0.29758 0.95641 0.47258 0.0
C619 C 0.32191 0.03777 0.46823 0.0
C620 C 0.27548 0.08084 0.46301 0.0
C621 C 0.27951 0.10231 0.47414 0.0
C622 C 0.27977 0.12675 0.46585 0.0
C623 C 0.27646 0.12961 0.44602 0.0
C624 C 0.27217 0.10867 0.43459 0.0
C625 C 0.27151 0.08422 0.44316 0.0
O626 O 0.29622 0.01616 0.5266 0.0
O627 O 0.28463 -0.00951 0.50412 0.0
O628 O 0.33772 0.00039 0.51811 0.0
O629 O 0.32005 0.98386 0.50106 0.0
C630 C 0.33334 0.97992 0.50891 0.0
O631 O 0.31284 0.0187 0.46396 0.0
O632 O 0.32231 0.04719 0.48604 0.0
O633 O 0.27253 0.03537 0.46186 0.0
O634 O 0.28323 0.05167 0.48806 0.0
H635 H 0.28198 0.10017 0.48953 0.0
H636 H 0.27612 0.14857 0.43968 0.0
H637 H 0.2678 0.06812 0.43446 0.0
O638 O 0.42233 0.04762 0.24272 0.0
Tb639 Tb 0.42952 0.02815 0.26914 0.0
Eu640 Eu 0.45793 0.0206 0.30368 0.0
C641 C 0.42916 0.06875 0.23719 0.0
O642 O 0.43937 0.07903 0.24876 0.0
C643 C 0.46001 0.00222 0.25955 0.0
O644 O 0.46251 -0.01139 0.32424 0.0
C645 C 0.47811 0.05625 0.3079 0.0
C646 C 0.45146 0.9727 0.32832 0.0
O647 O 0.43805 0.97617 0.32033 0.0
C648 C 0.42574 0.04836 0.31161 0.0
C649 C 0.48146 0.0808 0.31776 0.0
C650 C 0.48573 0.10149 0.30597 0.0
C651 C 0.49023 0.12475 0.31424 0.0
C652 C 0.4903 0.12739 0.3345 0.0
C653 C 0.48627 0.10707 0.34664 0.0
C654 C 0.48184 0.08358 0.33831 0.0
O655 O 0.45151 0.0221 0.25534 0.0
O656 O 0.46175 -0.00497 0.27772 0.0
O657 O 0.40994 0.00377 0.2631 0.0
O658 O 0.42779 -0.01067 0.28087 0.0
C659 C 0.41464 0.98414 0.27304 0.0
O660 O 0.4359 0.03183 0.31769 0.0
O661 O 0.42401 0.0541 0.29302 0.0
O662 O 0.4779 0.03537 0.31851 0.0
O663 O 0.46786 0.05645 0.29384 0.0
H664 H 0.48579 0.09934 0.29026 0.0
H665 H 0.49418 0.14514 0.341 0.0
H666 H 0.479 0.06765 0.34768 0.0
O667 O 0.32343 0.68143 0.24811 0.0
Tb668 Tb 0.31626 0.70329 0.27344 0.0
Eu669 Eu 0.29008 0.71458 0.30826 0.0
C670 C 0.31599 0.66081 0.2427 0.0
O671 O 0.30495 0.65224 0.25379 0.0
C672 C 0.28596 0.73073 0.26371 0.0
O673 O 0.28071 0.74583 0.32664 0.0
C674 C 0.27408 0.67346 0.31311 0.0
C675 C 0.28641 0.76881 0.32485 0.0
O676 O 0.29779 0.77257 0.31281 0.0
C677 C 0.32207 0.69047 0.31636 0.0
C678 C 0.27478 0.64745 0.32176 0.0
C679 C 0.27929 0.6269 0.30993 0.0
C680 C 0.27815 0.6017 0.31658 0.0
C681 C 0.27281 0.59702 0.33543 0.0
C682 C 0.26798 0.61698 0.34748 0.0
C683 C 0.26911 0.64233 0.3407 0.0
O684 O 0.29448 0.71093 0.25919 0.0
O685 O 0.28473 0.73829 0.28185 0.0
O686 O 0.33647 0.72596 0.2668 0.0
O687 O 0.31885 0.74274 0.28366 0.0
C688 C 0.33217 0.74652 0.2759 0.0
O689 O 0.31353 0.71028 0.32037 0.0
O690 O 0.32124 0.67967 0.29903 0.0
O691 O 0.27355 0.69298 0.32513 0.0
O692 O 0.28228 0.67792 0.29737 0.0
H693 H 0.28304 0.63033 0.29512 0.0
H694 H 0.27138 0.5775 0.34038 0.0
H695 H 0.26491 0.65775 0.34972 0.0
O696 O 0.57561 0.79768 0.9974 0.0
Tb697 Tb 0.56811 0.77503 0.02213 0.0
Eu698 Eu 0.54071 0.76705 0.05675 0.0
C699 C 0.56692 0.81614 0.99073 0.0
O700 O 0.55444 0.82188 1.00027 0.0
C701 C 0.53755 0.7483 1.01274 0.0
O702 O 0.53267 0.7359 0.0762 0.0
C703 C 0.52394 0.80736 0.0607 0.0
C704 C 0.54003 0.71422 0.07553 0.0
O705 O 0.55179 0.7121 0.06388 0.0
C706 C 0.57291 0.79193 0.06503 0.0
C707 C 0.52462 0.83293 0.07011 0.0
C708 C 0.53062 0.85371 0.05964 0.0
C709 C 0.53027 0.87844 0.06739 0.0
C710 C 0.52398 0.88241 0.08585 0.0
C711 C 0.51764 0.86225 0.09648 0.0
C712 C 0.51812 0.83736 0.0887 0.0
O713 O 0.54624 0.76778 1.00802 0.0
O714 O 0.5359 0.74167 0.03102 0.0
O715 O 0.58706 0.75061 1.01345 0.0
O716 O 0.57141 0.7369 0.0346 0.0
C717 C 0.58362 0.73147 0.02471 0.0
O718 O 0.56354 0.77366 0.07019 0.0
O719 O 0.57378 0.79977 0.0468 0.0
O720 O 0.52287 0.7874 0.07224 0.0
O721 O 0.53281 0.80343 0.04548 0.0
H722 H 0.53517 0.85088 0.04514 0.0
H723 H 0.52321 0.90166 0.09161 0.0
H724 H 0.51292 0.82182 0.0967 0.0
O725 O 0.67455 0.42861 0.99466 0.0
Tb726 Tb 0.68235 0.45085 0.01948 0.0
Eu727 Eu 0.70987 0.45992 0.05429 0.0
C728 C 0.68322 0.41034 0.98763 0.0
O729 O 0.69582 0.40452 0.9969 0.0
C730 C 0.71281 0.47764 1.00982 0.0
O731 O 0.71616 0.49288 0.0731 0.0
C732 C 0.72885 0.42277 0.05963 0.0
C733 C 0.71 0.51509 0.06936 0.0
O734 O 0.70023 0.5171 0.05499 0.0
C735 C 0.67787 0.43307 0.0623 0.0
C736 C 0.73064 0.39744 0.06901 0.0
C737 C 0.73337 0.37648 0.05679 0.0
C738 C 0.73619 0.35227 0.06455 0.0
C739 C 0.73603 0.34885 0.08473 0.0
C740 C 0.73355 0.36939 0.09739 0.0
C741 C 0.73099 0.39393 0.0895 0.0
O742 O 0.70415 0.45806 1.00527 0.0
O743 O 0.71449 0.48456 0.02805 0.0
O744 O 0.6635 0.47567 1.011 0.0
O745 O 0.67903 0.48856 0.03261 0.0
C746 C 0.66691 0.49441 0.02267 0.0
O747 O 0.68729 0.45116 0.06776 0.0
O748 O 0.67685 0.42572 0.04396 0.0
O749 O 0.72837 0.44306 0.07089 0.0
O750 O 0.71972 0.42415 0.04439 0.0
H751 H 0.73359 0.37912 0.04113 0.0
H752 H 0.73872 0.33022 0.09072 0.0
H753 H 0.72939 0.41002 0.09919 0.0
O754 O 0.57586 0.4288 0.28622 0.0
Tb755 Tb 0.5684 0.45144 0.26143 0.0
Eu756 Eu 0.54119 0.45987 0.22652 0.0
C757 C 0.56706 0.41053 0.293 0.0
O758 O 0.55453 0.40488 0.28349 0.0
C759 C 0.5377 0.47798 0.27081 0.0
O760 O 0.5332 0.49152 0.2075 0.0
C761 C 0.52437 0.41975 0.22155 0.0
C762 C 0.54002 0.51363 0.20914 0.0
O763 O 0.55137 0.51601 0.22144 0.0
C764 C 0.57354 0.43551 0.2185 0.0
C765 C 0.52479 0.39434 0.21189 0.0
C766 C 0.52976 0.37302 0.22257 0.0
C767 C 0.52888 0.34838 0.21469 0.0
C768 C 0.52314 0.34507 0.19585 0.0
C769 C 0.5179 0.36584 0.18494 0.0
C770 C 0.51885 0.3906 0.19289 0.0
O771 O 0.54663 0.45886 0.27562 0.0
O772 O 0.53589 0.48447 0.25251 0.0
O773 O 0.58745 0.47584 0.26995 0.0
O774 O 0.57161 0.4896 0.24902 0.0
C775 C 0.58391 0.49501 0.25877 0.0
O776 O 0.56424 0.45397 0.2135 0.0
O777 O 0.57398 0.42698 0.23658 0.0
O778 O 0.52356 0.43998 0.21025 0.0
O779 O 0.53315 0.42314 0.23696 0.0
H780 H 0.53388 0.37539 0.23734 0.0
H781 H 0.52192 0.32595 0.18995 0.0
H782 H 0.51441 0.4066 0.18467 0.0
O783 O 0.67534 0.79754 0.2889 0.0
Tb784 Tb 0.68244 0.77574 0.26355 0.0
Eu785 Eu 0.7087 0.76639 0.22814 0.0
C786 C 0.68419 0.81577 0.29566 0.0
O787 O 0.69656 0.82167 0.28592 0.0
C788 C 0.71269 0.74806 0.27198 0.0
O789 O 0.71449 0.73487 0.20785 0.0
C790 C 0.72722 0.80426 0.22312 0.0
C791 C 0.70395 0.71807 0.20382 0.0
O792 O 0.69041 0.72064 0.21159 0.0
C793 C 0.6769 0.79406 0.22116 0.0
C794 C 0.72785 0.82958 0.21343 0.0
C795 C 0.72715 0.85145 0.2252 0.0
C796 C 0.7286 0.87585 0.21712 0.0
C797 C 0.73041 0.87847 0.197 0.0
C798 C 0.73146 0.85707 0.1849 0.0
C799 C 0.7303 0.83246 0.19312 0.0
O800 O 0.70457 0.76817 0.27676 0.0
O801 O 0.71349 0.74075 0.25374 0.0
O802 O 0.6636 0.75092 0.27209 0.0
O803 O 0.67902 0.73804 0.25038 0.0
C804 C 0.66693 0.7322 0.26038 0.0
O805 O 0.68595 0.7757 0.21535 0.0
O806 O 0.67649 0.80135 0.23955 0.0
O807 O 0.72723 0.78386 0.21196 0.0
O808 O 0.71824 0.80217 0.23844 0.0
H809 H 0.72588 0.8495 0.24083 0.0
H810 H 0.73204 0.89732 0.19077 0.0
H811 H 0.73147 0.81586 0.18384 0.0
O812 O 0.42477 0.18105 0.03428 0.0
Tb813 Tb 0.43247 0.20199 1.00877 0.0
Eu814 Eu 0.46145 0.20887 0.97567 0.0
C815 C 0.43175 0.16003 0.03976 0.0
O816 O 0.44254 0.1507 0.02863 0.0
C817 C 0.46279 0.2282 0.01954 0.0
O818 O 0.46957 0.2371 0.95368 0.0
C819 C 0.47877 0.16888 0.97524 0.0
C820 C 0.46863 0.23222 0.93498 0.0
O821 O 0.4631 0.2102 0.92912 0.0
C822 C 0.42904 0.18463 0.96577 0.0
C823 C 0.48161 0.14383 0.96599 0.0
C824 C 0.48617 0.12383 0.97824 0.0
C825 C 0.49023 0.10006 0.97054 0.0
C826 C 0.48938 0.09615 0.95043 0.0
C827 C 0.48495 0.11575 0.93777 0.0
C828 C 0.48119 0.1399 0.94556 0.0
O829 O 0.45402 0.20859 0.02363 0.0
O830 O 0.46503 0.235 1.00137 0.0
O831 O 0.41252 0.22538 1.01493 0.0
O832 O 0.43032 0.24115 0.99775 0.0
C833 C 0.41704 0.24553 1.00548 0.0
O834 O 0.43915 0.20184 0.9607 0.0
O835 O 0.42774 0.17699 0.98401 0.0
O836 O 0.48154 0.18948 0.96493 0.0
O837 O 0.46692 0.17099 0.98689 0.0
H838 H 0.48687 0.12697 0.99383 0.0
H839 H 0.49299 0.07799 0.9444 0.0
H840 H 0.47811 0.15538 0.93587 0.0
O841 O 0.32623 0.54621 0.04023 0.0
Tb842 Tb 0.31916 0.52633 1.0139 0.0
Eu843 Eu 0.29165 0.51696 0.97914 0.0
C844 C 0.31922 0.56718 0.04573 0.0
O845 O 0.30893 0.57715 0.03414 0.0
C846 C 0.28858 0.49988 0.02369 0.0
O847 O 0.28579 0.48425 0.95991 0.0
C848 C 0.2726 0.55384 0.97316 0.0
C849 C 0.29583 0.46616 0.95722 0.0
O850 O 0.30924 0.46808 0.96551 0.0
C851 C 0.32337 0.54447 0.97127 0.0
C852 C 0.27066 0.57843 0.96275 0.0
C853 C 0.26792 0.60026 0.97405 0.0
C854 C 0.26472 0.6237 0.96522 0.0
C855 C 0.26481 0.62559 0.94494 0.0
C856 C 0.2674 0.60421 0.93321 0.0
C857 C 0.27015 0.58036 0.94212 0.0
O858 O 0.29737 0.51936 0.02812 0.0
O859 O 0.2869 0.49265 1.00551 0.0
O860 O 0.33928 0.50298 0.01931 0.0
O861 O 0.32113 0.48732 1.00264 0.0
C862 C 0.33458 0.48291 1.00986 0.0
O863 O 0.31428 0.52589 0.96586 0.0
O864 O 0.32403 0.55206 0.98959 0.0
O865 O 0.27274 0.53278 0.96276 0.0
O866 O 0.28209 0.55345 0.98808 0.0
H867 H 0.26764 0.59879 0.98981 0.0
H868 H 0.26239 0.64387 0.93817 0.0
H869 H 0.27179 0.56361 0.93312 0.0
O870 O 0.42516 0.54441 0.74607 0.0
Tb871 Tb 0.4317 0.52437 0.77254 0.0
Eu872 Eu 0.45788 0.51293 0.80875 0.0
C873 C 0.43218 0.5655 0.7408 0.0
O874 O 0.44238 0.57544 0.75257 0.0
C875 C 0.46193 0.49668 0.76422 0.0
O876 O 0.46323 0.47848 0.82655 0.0
C877 C 0.47721 0.54952 0.81471 0.0
C878 C 0.45256 0.46122 0.82858 0.0
O879 O 0.43906 0.46562 0.82111 0.0
C880 C 0.42662 0.54251 0.81507 0.0
C881 C 0.47832 0.57566 0.82305 0.0
C882 C 0.47916 0.59639 0.81009 0.0
C883 C 0.48099 0.62133 0.81699 0.0
C884 C 0.48186 0.62566 0.83704 0.0
C885 C 0.48136 0.60546 0.85039 0.0
C886 C 0.47972 0.58026 0.84334 0.0
O887 O 0.45396 0.51707 0.75968 0.0
O888 O 0.46252 0.48865 0.78231 0.0
O889 O 0.41171 0.50112 0.76594 0.0
O890 O 0.42917 0.48537 0.78366 0.0
C891 C 0.41601 0.48101 0.77561 0.0
O892 O 0.43506 0.52329 0.82081 0.0
O893 O 0.42638 0.55004 0.79673 0.0
O894 O 0.47549 0.53022 0.82678 0.0
O895 O 0.46936 0.547 0.79842 0.0
H896 H 0.47867 0.59311 0.79451 0.0
H897 H 0.48389 0.6449 0.8423 0.0
H898 H 0.47964 0.5645 0.85355 0.0
O899 O 0.32329 0.17996 0.74462 0.0
Tb900 Tb 0.31616 0.20164 0.77004 0.0
Eu901 Eu 0.28915 0.21127 0.80534 0.0
C902 C 0.31452 0.16171 0.73774 0.0
O903 O 0.30216 0.15559 0.74741 0.0
C904 C 0.28542 0.22818 0.76072 0.0
O905 O 0.28237 0.2435 0.82458 0.0
C906 C 0.27166 0.17219 0.81129 0.0
C907 C 0.28836 0.26599 0.82132 0.0
O908 O 0.29812 0.26868 0.80701 0.0
C909 C 0.32112 0.18517 0.81281 0.0
C910 C 0.27187 0.14695 0.82119 0.0
C911 C 0.27444 0.12504 0.80987 0.0
C912 C 0.27379 0.10065 0.81815 0.0
C913 C 0.27094 0.09813 0.83809 0.0
C914 C 0.26803 0.1195 0.84971 0.0
C915 C 0.26834 0.14403 0.84122 0.0
O916 O 0.29426 0.20887 0.75606 0.0
O917 O 0.28382 0.23521 0.77895 0.0
O918 O 0.33612 0.22481 0.76321 0.0
O919 O 0.31887 0.24056 0.78126 0.0
C920 C 0.33199 0.24486 0.77307 0.0
O921 O 0.31222 0.20409 0.81796 0.0
O922 O 0.32137 0.17675 0.79472 0.0
O923 O 0.2714 0.19271 0.82231 0.0
O924 O 0.28025 0.17476 0.79564 0.0
H925 H 0.27652 0.12686 0.79437 0.0
H926 H 0.26993 0.07923 0.84444 0.0
H927 H 0.26571 0.16054 0.8501 0.0
H928 H 0.01079 0.60794 1.00019 0.0
H929 H 0.02262 0.57251 0.018 0.0
H930 H 0.99407 0.51903 0.98726 0.0
H931 H 0.98201 0.55421 0.96971 0.0
H932 H 0.00765 0.53059 0.04097 0.0
H933 H 0.03972 0.49779 0.97605 0.0
H934 H 0.03217 0.52975 0.97827 0.0
H935 H 0.01985 0.50369 0.97189 0.0
C936 C 0.00682 0.58867 0.99756 0.0
C937 C 0.99558 0.58375 0.98347 0.0
C938 C 0.01366 0.56851 1.0076 0.0
C939 C 0.0094 0.54329 1.00355 0.0
C940 C 0.99768 0.53842 0.99022 0.0
H941 H 0.01829 0.39067 0.03313 0.0
H942 H 0.01688 0.43223 0.0173 0.0
C943 C 0.99081 0.55849 0.98027 0.0
C944 C 0.0172 0.52174 1.01298 0.0
H945 H 0.03777 0.46835 1.00252 0.0
C946 C 0.01451 0.51718 0.03276 0.0
C947 C 0.02615 0.50452 1.00209 0.0
C948 C 0.02979 0.50922 0.98092 0.0
C949 C 0.01968 0.49475 0.04169 0.0
C950 C 0.02803 0.47686 0.03053 0.0
C951 C 0.03141 0.48217 1.01101 0.0
C952 C 0.03149 0.45119 0.03815 0.0
C953 C 0.01532 0.4896 0.06259 0.0
C954 C 0.04082 0.4479 0.05451 0.0
C955 C 0.04169 0.42409 0.06359 0.0
C956 C 0.0333 0.40329 0.05631 0.0
C957 C 0.025 0.40624 0.03898 0.0
C958 C 0.02411 0.43002 0.02997 0.0
H959 H 0.00677 0.50343 0.06806 0.0
H960 H 0.01064 0.47001 0.06416 0.0
H961 H 0.02557 0.49105 0.07195 0.0
H962 H 0.04684 0.46398 0.06077 0.0
H963 H 0.04833 0.4222 0.0768 0.0
H964 H 0.27928 0.64302 0.99717 0.0
H965 H 0.27289 0.68228 1.01495 0.0
H966 H 0.23448 0.69421 0.97695 0.0
H967 H 0.24058 0.65496 0.95947 0.0
H968 H 0.27104 0.73172 0.99701 0.0
H969 H 0.21675 0.70307 0.03213 0.0
H970 H 0.23025 0.68014 0.02287 0.0
H971 H 0.21779 0.69673 1.00646 0.0
C972 C 0.26934 0.65385 0.99288 0.0
C973 C 0.26046 0.64617 0.97693 0.0
C974 C 0.26576 0.67622 1.00294 0.0
C975 C 0.25316 0.69088 0.99729 0.0
C976 C 0.24411 0.68291 0.98165 0.0
H977 H 0.21587 0.83602 0.03637 0.0
H978 H 0.2215 0.79754 0.01715 0.0
C979 C 0.24769 0.66067 0.9716 0.0
C980 C 0.24995 0.71536 1.00691 0.0
H981 H 0.22317 0.74706 0.03334 0.0
C982 C 0.26062 0.73509 1.00505 0.0
C983 C 0.23626 0.71961 0.01713 0.0
C984 C 0.22464 0.69873 0.01995 0.0
C985 C 0.25791 0.7592 1.01312 0.0
C986 C 0.24429 0.76338 0.0235 0.0
C987 C 0.23355 0.74372 0.02521 0.0
C988 C 0.24145 0.78743 0.03392 0.0
C989 C 0.26956 0.78005 1.01034 0.0
C990 C 0.25084 0.79424 0.04954 0.0
C991 C 0.24768 0.81598 0.06041 0.0
C992 C 0.23499 0.83114 0.05593 0.0
C993 C 0.22574 0.82462 0.04001 0.0
C994 C 0.2289 0.80272 0.02913 0.0
H995 H 0.27712 0.77606 0.99775 0.0
H996 H 0.26399 0.79883 1.00806 0.0
H997 H 0.27675 0.78138 0.02358 0.0
H998 H 0.26044 0.78242 0.05359 0.0
H999 H 0.25508 0.8208 0.07249 0.0
H1000 H 0.00689 0.62658 0.28179 0.0
H1001 H 0.01726 0.66323 0.26402 0.0
H1002 H 0.99001 0.71415 0.29881 0.0
H1003 H 0.97943 0.67768 0.31645 0.0
H1004 H 0.00159 0.70393 0.24316 0.0
H1005 H 0.03488 0.73842 0.30665 0.0
H1006 H 0.0274 0.70634 0.30507 0.0
H1007 H 0.01516 0.73238 0.31167 0.0
C1008 C 0.00288 0.64555 0.28537 0.0
C1009 C 0.99243 0.64934 0.30058 0.0
C1010 C 0.00891 0.66641 0.27534 0.0
C1011 C 0.00462 0.69128 0.28047 0.0
C1012 C 0.99368 0.69506 0.295 0.0
H1013 H 0.01486 0.84475 0.24748 0.0
H1014 H 0.01192 0.80392 0.26409 0.0
C1015 C 0.98763 0.67426 0.30499 0.0
C1016 C 0.01162 0.71345 0.27079 0.0
H1017 H 0.0323 0.76724 0.27994 0.0
C1018 C 0.0085 0.71763 0.25105 0.0
C1019 C 0.02067 0.73107 0.28123 0.0
C1020 C 0.02487 0.72679 0.30229 0.0
C1021 C 0.01352 0.73985 0.24166 0.0
C1022 C 0.02213 0.75795 0.2523 0.0
C1023 C 0.02573 0.75325 0.27186 0.0
C1024 C 0.02609 0.78299 0.24392 0.0
C1025 C 0.0089 0.74442 0.22077 0.0
C1026 C 0.03561 0.78486 0.22761 0.0
C1027 C 0.03738 0.80825 0.21812 0.0
C1028 C 0.02971 0.83005 0.22489 0.0
C1029 C 0.02105 0.82839 0.24203 0.0
C1030 C 0.01928 0.80504 0.25147 0.0
H1031 H 1.00001 0.73078 0.21584 0.0
H1032 H 0.00454 0.76415 0.21886 0.0
H1033 H 0.01896 0.7421 0.21121 0.0
H1034 H 0.04118 0.76807 0.22182 0.0
H1035 H 0.04427 0.80909 0.20507 0.0
H1036 H 0.2547 0.37769 0.25014 0.0
H1037 H 0.26362 0.41581 0.26738 0.0
H1038 H 0.23556 0.46297 0.2305 0.0
H1039 H 0.22624 0.42497 0.21365 0.0
H1040 H 0.27929 0.45628 0.24991 0.0
H1041 H 0.22612 0.48959 0.28493 0.0
H1042 H 0.22826 0.45767 0.27541 0.0
H1043 H 0.22404 0.48381 0.25931 0.0
C1044 C 0.25011 0.39613 0.2461 0.0
C1045 C 0.23975 0.39842 0.23061 0.0
C1046 C 0.25533 0.41785 0.25581 0.0
C1047 C 0.25017 0.44209 0.25025 0.0
C1048 C 0.23949 0.44436 0.23518 0.0
H1049 H 0.26661 0.59783 0.27996 0.0
H1050 H 0.26271 0.55849 0.26163 0.0
C1051 C 0.23426 0.4227 0.2255 0.0
C1052 C 0.25655 0.46522 0.25937 0.0
H1053 H 0.24654 0.51946 0.28348 0.0
C1054 C 0.27219 0.47003 0.25742 0.0
C1055 C 0.24721 0.483 0.26913 0.0
C1056 C 0.2305 0.47818 0.27251 0.0
C1057 C 0.27866 0.49267 0.26454 0.0
C1058 C 0.26923 0.51068 0.27382 0.0
C1059 C 0.25367 0.50566 0.27606 0.0
C1060 C 0.27513 0.53476 0.28191 0.0
C1061 C 0.29541 0.49751 0.26175 0.0
C1062 C 0.28404 0.53447 0.29883 0.0
C1063 C 0.28639 0.55698 0.30929 0.0
C1064 C 0.27974 0.57995 0.303 0.0
C1065 C 0.27201 0.5805 0.28508 0.0
C1066 C 0.26967 0.55802 0.27465 0.0
H1067 H 0.30056 0.48394 0.25122 0.0
H1068 H 0.29738 0.51731 0.25655 0.0
H1069 H 0.30133 0.49535 0.27594 0.0
H1070 H 0.2882 0.5166 0.30472 0.0
H1071 H 0.29248 0.5561 0.32299 0.0
H1072 H 0.72582 0.30328 0.0659 0.0
H1073 H 0.73565 0.26658 0.04784 0.0
H1074 H 0.76629 0.31604 1.01651 0.0
H1075 H 0.75676 0.3528 0.03486 0.0
H1076 H 0.7372 0.25794 1.00683 0.0
H1077 H 0.79422 0.26156 0.04204 0.0
H1078 H 0.778 0.27845 0.05166 0.0
H1079 H 0.78776 0.29049 0.03064 0.0
C1080 C 0.73459 0.30631 0.05509 0.0
C1081 C 0.74061 0.33079 0.05184 0.0
C1082 C 0.74016 0.28541 0.04479 0.0
C1083 C 0.75186 0.28867 0.03117 0.0
C1084 C 0.75743 0.3132 0.02724 0.0
H1085 H 0.79462 0.17243 0.95903 0.0
H1086 H 0.78948 0.21292 0.97572 0.0
C1087 C 0.75185 0.33416 0.03754 0.0
C1088 C 0.75832 0.26615 0.02139 0.0
H1089 H 0.7901 0.22894 0.01888 0.0
C1090 C 0.74878 0.25166 1.00936 0.0
C1091 C 0.77344 0.25815 0.0248 0.0
C1092 C 0.78397 0.27281 0.03809 0.0
C1093 C 0.75393 0.22908 1.00075 0.0
C1094 C 0.76891 0.22072 1.00455 0.0
C1095 C 0.77861 0.23551 1.01615 0.0
C1096 C 0.77434 0.19614 0.99696 0.0
C1097 C 0.74329 0.21417 0.98775 0.0
C1098 C 0.76808 0.17342 1.0041 0.0
C1099 C 0.7709 0.15042 0.99461 0.0
C1100 C 0.78008 0.14986 0.97787 0.0
C1101 C 0.78736 0.17241 0.97177 0.0
C1102 C 0.7845 0.19546 0.98128 0.0
H1103 H 0.73339 0.2258 0.98305 0.0
H1104 H 0.74934 0.20715 0.97462 0.0
H1105 H 0.73895 0.19732 0.99582 0.0
H1106 H 0.76029 0.17373 1.01631 0.0
H1107 H 0.765 0.13348 0.99956 0.0
H1108 H 0.95885 0.16646 0.82557 0.0
H1109 H 0.964 0.20635 0.80815 0.0
H1110 H 0.99471 0.16647 0.76986 0.0
H1111 H 0.98967 0.12667 0.78717 0.0
H1112 H 0.99284 0.22745 0.80691 0.0
H1113 H 0.97095 0.2114 0.73219 0.0
H1114 H 0.96522 0.19199 0.75264 0.0
H1115 H 0.98304 0.18615 0.74065 0.0
C1116 C 0.96644 0.16614 0.81315 0.0
C1117 C 0.97388 0.14348 0.80773 0.0
C1118 C 0.96936 0.18889 0.80324 0.0
C1119 C 0.97966 0.1893 0.78767 0.0
C1120 C 0.98648 0.16646 0.78159 0.0
H1121 H 0.0285 0.29976 0.71997 0.0
H1122 H 0.01955 0.26196 0.73751 0.0
C1123 C 0.98357 0.14371 0.79147 0.0
C1124 C 0.98459 0.21388 0.77921 0.0
H1125 H 0.98851 0.24591 0.73628 0.0
C1126 C 0.99173 0.23167 0.79151 0.0
C1127 C 0.98318 0.2192 0.75912 0.0
C1128 C 0.97505 0.20128 0.7454 0.0
C1129 C 0.99794 0.25434 0.78411 0.0
C1130 C 0.99682 0.25937 0.76396 0.0
C1131 C 0.98944 0.24183 0.75173 0.0
C1132 C 0.00333 0.28263 0.75514 0.0
C1133 C 0.00609 0.27233 0.79776 0.0
C1134 C 0.99739 0.30676 0.75961 0.0
C1135 C 0.00248 0.32837 0.74962 0.0
C1136 C 0.01351 0.32608 0.73493 0.0
C1137 C 0.01991 0.30201 0.73112 0.0
C1138 C 0.01482 0.28046 0.7411 0.0
H1139 H 0.00879 0.26313 0.81193 0.0
H1140 H 0.01681 0.27935 0.79111 0.0
H1141 H 0.99874 0.2891 0.80066 0.0
H1142 H 0.98836 0.30872 0.77022 0.0
H1143 H 0.99718 0.3466 0.75265 0.0
H1144 H 0.77989 0.55397 0.81467 0.0
H1145 H 0.77057 0.51685 0.79656 0.0
H1146 H 0.73992 0.56526 0.76434 0.0
H1147 H 0.74903 0.60241 0.78251 0.0
H1148 H 0.73844 0.50352 0.79795 0.0
H1149 H 0.76003 0.51822 0.72256 0.0
H1150 H 0.76869 0.53321 0.74352 0.0
H1151 H 0.75106 0.54514 0.73407 0.0
C1152 C 0.77136 0.55673 0.80347 0.0
C1153 C 0.76513 0.581 0.80002 0.0
C1154 C 0.76607 0.53558 0.79318 0.0
C1155 C 0.7546 0.53846 0.77918 0.0
C1156 C 0.74893 0.56281 0.77494 0.0
H1157 H 0.7099 0.42238 0.70865 0.0
H1158 H 0.71455 0.46279 0.72565 0.0
C1159 C 0.75419 0.58399 0.78526 0.0
C1160 C 0.74761 0.51569 0.77039 0.0
H1161 H 0.74359 0.48329 0.7277 0.0
C1162 C 0.73952 0.49906 0.78259 0.0
C1163 C 0.74891 0.5103 0.75033 0.0
C1164 C 0.75772 0.52751 0.7368 0.0
C1165 C 0.73282 0.47679 0.77525 0.0
C1166 C 0.73452 0.47096 0.7553 0.0
C1167 C 0.74226 0.48797 0.743 0.0
C1168 C 0.72961 0.44626 0.74715 0.0
C1169 C 0.72403 0.45972 0.7889 0.0
C1170 C 0.73626 0.42366 0.75396 0.0
C1171 C 0.73366 0.40068 0.74431 0.0
C1172 C 0.72445 0.4 0.72759 0.0
C1173 C 0.71712 0.42244 0.72144 0.0
C1174 C 0.71974 0.44545 0.73111 0.0
H1175 H 0.71971 0.47051 0.80168 0.0
H1176 H 0.71427 0.45056 0.78137 0.0
H1177 H 0.73165 0.44447 0.7944 0.0
H1178 H 0.74418 0.42401 0.76605 0.0
H1179 H 0.73969 0.38382 0.74918 0.0
H1180 H 0.04315 0.92146 0.57537 0.0
H1181 H 0.03837 0.96268 0.55957 0.0
H1182 H 0.00793 0.92606 0.51901 0.0
H1183 H 0.01236 0.88503 0.53486 0.0
H1184 H 0.03842 0.97988 0.51642 0.0
H1185 H 0.98256 0.97847 0.5543 0.0
H1186 H 0.99842 0.95902 0.56197 0.0
H1187 H 0.98743 0.95003 0.54102 0.0
C1188 C 0.03572 0.92215 0.56279 0.0
C1189 C 0.028 0.90012 0.55646 0.0
C1190 C 0.03304 0.94562 0.5538 0.0
C1191 C 0.02264 0.94725 0.53841 0.0
C1192 C 0.01592 0.92502 0.531 0.0
H1193 H 0.97453 0.05605 0.47142 0.0
H1194 H 0.98396 0.01946 0.48995 0.0
C1195 C 0.01857 0.90159 0.53996 0.0
C1196 C 0.01746 0.97231 0.53143 0.0
H1197 H 0.98633 0.01101 0.53082 0.0
C1198 C 0.02712 0.98693 0.51968 0.0
C1199 C 0.00274 0.98129 0.53595 0.0
C1200 C 0.99218 0.96655 0.54913 0.0
C1201 C 0.02211 0.00997 0.5115 0.0
C1202 C 0.0072 0.01858 0.51555 0.0
C1203 C 0.99775 0.00429 0.52782 0.0
C1204 C 0.00076 0.04124 0.50592 0.0
C1205 C 0.03253 0.02437 0.49793 0.0
C1206 C 0.00676 0.06564 0.50936 0.0
C1207 C 0.0014 0.08655 0.49879 0.0
C1208 C 0.98997 0.08324 0.48469 0.0
C1209 C 0.98345 0.05901 0.48207 0.0
C1210 C 0.9888 0.03817 0.49263 0.0
H1211 H 0.04257 0.01284 0.49364 0.0
H1212 H 0.02635 0.03026 0.48456 0.0
H1213 H 0.03666 0.04191 0.50531 0.0
H1214 H 0.01584 0.06835 0.51982 0.0
H1215 H 0.00667 0.10502 0.50099 0.0
H1216 H 0.29594 0.17039 0.45827 0.0
H1217 H 0.29351 0.21138 0.47518 0.0
H1218 H 0.26413 0.17618 0.51768 0.0
H1219 H 0.26637 0.13548 0.50089 0.0
H1220 H 0.26559 0.23448 0.47816 0.0
H1221 H 0.2904 0.2219 0.55151 0.0
H1222 H 0.29483 0.20086 0.53146 0.0
H1223 H 0.27771 0.19633 0.54539 0.0
C1224 C 0.28927 0.17132 0.4715 0.0
C1225 C 0.28129 0.14977 0.47821 0.0
C1226 C 0.28794 0.19467 0.48115 0.0
C1227 C 0.27875 0.19672 0.49774 0.0
C1228 C 0.27157 0.17488 0.50516 0.0
H1229 H 0.2261 0.29958 0.56333 0.0
H1230 H 0.23808 0.2643 0.54577 0.0
C1231 C 0.27287 0.15158 0.49553 0.0
C1232 C 0.27474 0.22201 0.50569 0.0
H1233 H 0.27107 0.25454 0.5484 0.0
C1234 C 0.26709 0.2392 0.49342 0.0
C1235 C 0.27669 0.22799 0.52559 0.0
C1236 C 0.2855 0.21088 0.53919 0.0
C1237 C 0.26051 0.26153 0.50082 0.0
C1238 C 0.26175 0.26674 0.52092 0.0
C1239 C 0.27004 0.25023 0.533 0.0
C1240 C 0.25379 0.2884 0.52998 0.0
C1241 C 0.25158 0.27869 0.48738 0.0
C1242 C 0.2585 0.31355 0.5265 0.0
C1243 C 0.25168 0.33372 0.53651 0.0
C1244 C 0.24013 0.32892 0.55017 0.0
C1245 C 0.23506 0.30376 0.55299 0.0
C1246 C 0.24188 0.28365 0.54302 0.0
H1247 H 0.24998 0.2701 0.47272 0.0
H1248 H 0.24025 0.28291 0.49371 0.0
H1249 H 0.25769 0.29709 0.48564 0.0
H1250 H 0.26779 0.31746 0.5166 0.0
H1251 H 0.25597 0.35289 0.53428 0.0
H1252 H 0.25866 0.09332 0.78406 0.0
H1253 H 0.25479 0.05293 0.76705 0.0
H1254 H 0.28483 0.01525 0.80753 0.0
H1255 H 0.28885 0.05577 0.82466 0.0
H1256 H 0.27456 0.01585 0.75 0.0
H1257 H 0.24316 0.97948 0.81472 0.0
H1258 H 0.24796 0.01276 0.81175 0.0
H1259 H 0.26227 -0.00974 0.81904 0.0
C1260 C 0.26482 0.07662 0.789 0.0
C1261 C 0.27396 0.07759 0.80577 0.0
C1262 C 0.26252 0.05356 0.77934 0.0
C1263 C 0.26929 0.03116 0.78633 0.0
C1264 C 0.27929 0.03234 0.8022 0.0
H1265 H 0.25258 0.87458 0.74964 0.0
H1266 H 0.26144 0.91242 0.76724 0.0
C1267 C 0.28159 0.05543 0.81191 0.0
C1268 C 0.26486 0.00643 0.77786 0.0
H1269 H 0.2447 0.95222 0.78755 0.0
C1270 C 0.26813 0.00183 0.75821 0.0
C1271 C 0.2564 0.98836 0.78868 0.0
C1272 C 0.2521 -0.00708 0.80968 0.0
C1273 C 0.26305 0.97955 0.74899 0.0
C1274 C 0.25432 0.96178 0.7597 0.0
C1275 C 0.25137 0.96605 0.77946 0.0
C1276 C 0.24788 0.93887 0.75043 0.0
C1277 C 0.26703 0.9752 0.72787 0.0
C1278 C 0.23687 0.94135 0.73579 0.0
C1279 C 0.23169 0.91983 0.72586 0.0
C1280 C 0.23743 0.89555 0.73049 0.0
C1281 C 0.24785 0.89303 0.7459 0.0
C1282 C 0.25301 0.91459 0.75584 0.0
H1283 H 0.27669 0.98738 0.72316 0.0
H1284 H 0.27 0.95489 0.72524 0.0
H1285 H 0.25705 0.97996 0.71867 0.0
H1286 H 0.23258 0.95999 0.73174 0.0
H1287 H 0.2235 0.92223 0.71421 0.0
H1288 H 0.74512 0.84542 0.53369 0.0
H1289 H 0.75133 0.80536 0.5173 0.0
H1290 H 0.72091 0.7648 0.55561 0.0
H1291 H 0.71433 0.80494 0.5718 0.0
H1292 H 0.76463 0.76439 0.53887 0.0
H1293 H 0.71146 0.7352 0.50098 0.0
H1294 H 0.71505 0.76773 0.50846 0.0
H1295 H 0.70942 0.74427 0.5261 0.0
C1296 C 0.73934 0.82812 0.53817 0.0
C1297 C 0.72925 0.82825 0.55401 0.0
C1298 C 0.74301 0.80526 0.52892 0.0
C1299 C 0.73656 0.78225 0.53527 0.0
C1300 C 0.72587 0.78245 0.55039 0.0
H1301 H 0.75234 0.62531 0.49988 0.0
H1302 H 0.74506 0.66293 0.51882 0.0
C1303 C 0.72219 0.80532 0.55967 0.0
C1304 C 0.74216 0.75786 0.52738 0.0
H1305 H 0.73159 0.70531 0.50145 0.0
C1306 C 0.75743 0.75145 0.53065 0.0
C1307 C 0.73265 0.74102 0.51692 0.0
C1308 C 0.71625 0.74738 0.51273 0.0
C1309 C 0.76351 0.72853 0.52363 0.0
C1310 C 0.75409 0.71191 0.51282 0.0
C1311 C 0.73874 0.71812 0.50983 0.0
C1312 C 0.76008 0.68868 0.50345 0.0
C1313 C 0.7799 0.72223 0.52797 0.0
C1314 C 0.77118 0.69072 0.48889 0.0
C1315 C 0.77544 0.66929 0.47819 0.0
C1316 C 0.76857 0.64553 0.48178 0.0
C1317 C 0.75796 0.64331 0.49698 0.0
C1318 C 0.7537 0.66478 0.50768 0.0
H1319 H 0.78412 0.73279 0.54092 0.0
H1320 H 0.78141 0.70145 0.53051 0.0
H1321 H 0.78702 0.72779 0.51533 0.0
H1322 H 0.77605 0.7091 0.48521 0.0
H1323 H 0.78369 0.67146 0.4666 0.0
H1324 H 0.74603 0.88033 0.24965 0.0
H1325 H 0.75263 0.91962 0.26676 0.0
H1326 H 0.72221 0.96207 0.22963 0.0
H1327 H 0.71545 0.92268 0.21244 0.0
H1328 H 0.75237 0.97994 0.23 0.0
H1329 H 0.7302 0.96646 0.30497 0.0
H1330 H 0.74116 0.94005 0.29602 0.0
H1331 H 0.72344 0.94802 0.28448 0.0
C1332 C 0.74034 0.89787 0.24557 0.0
C1333 C 0.73024 0.89852 0.22972 0.0
C1334 C 0.74415 0.92029 0.25533 0.0
C1335 C 0.73784 0.94361 0.24948 0.0
C1336 C 0.72716 0.94416 0.23432 0.0
H1337 H 0.75485 0.09954 0.28217 0.0
H1338 H 0.74789 0.06086 0.26446 0.0
C1339 C 0.72334 0.92173 0.22454 0.0
C1340 C 0.74363 0.96763 0.25777 0.0
H1341 H 0.74798 0.0002 0.30033 0.0
C1342 C 0.75132 0.98454 0.24535 0.0
C1343 C 0.74231 0.97328 0.27779 0.0
C1344 C 0.73371 0.95612 0.29159 0.0
C1345 C 0.75799 0.00691 0.25254 0.0
C1346 C 0.75675 0.01248 0.27257 0.0
C1347 C 0.749 -0.00437 0.28498 0.0
C1348 C 0.76283 0.03621 0.28098 0.0
C1349 C 0.76655 0.02415 0.23876 0.0
C1350 C 0.77374 0.03509 0.29584 0.0
C1351 C 0.77778 0.05716 0.30594 0.0
C1352 C 0.77085 0.08057 0.3014 0.0
C1353 C 0.76055 0.08183 0.28578 0.0
C1354 C 0.75653 0.05976 0.27568 0.0
H1355 H 0.76971 0.0141 0.2251 0.0
H1356 H 0.75925 0.04064 0.23485 0.0
H1357 H 0.77704 0.03166 0.24572 0.0
H1358 H 0.77869 0.01699 0.30009 0.0
H1359 H 0.78584 0.05575 0.31784 0.0
H1360 H 0.46066 0.5861 0.49129 0.0
H1361 H 0.46423 0.54676 0.51035 0.0
H1362 H 0.50239 0.52645 0.47417 0.0
H1363 H 0.49917 0.5656 0.45551 0.0
H1364 H 0.465 0.49394 0.49556 0.0
H1365 H 0.51884 0.52433 0.53087 0.0
H1366 H 0.50579 0.54666 0.51982 0.0
H1367 H 0.51858 0.52844 0.5049 0.0
C1368 C 0.46983 0.57323 0.48753 0.0
C1369 C 0.47958 0.57877 0.47189 0.0
C1370 C 0.4718 0.55083 0.49831 0.0
C1371 C 0.48366 0.53399 0.49369 0.0
C1372 C 0.49329 0.53941 0.47803 0.0
H1373 H 0.52216 0.39263 0.53349 0.0
H1374 H 0.5147 0.43062 0.51489 0.0
C1375 C 0.49133 0.56164 0.46728 0.0
C1376 C 0.48613 0.51055 0.50506 0.0
H1377 H 0.51271 0.4801 0.53269 0.0
C1378 C 0.47532 0.49092 0.50388 0.0
C1379 C 0.49965 0.50684 0.51579 0.0
C1380 C 0.51133 0.52776 0.51811 0.0
C1381 C 0.47797 0.46718 0.51269 0.0
C1382 C 0.49167 0.46332 0.52303 0.0
C1383 C 0.50231 0.48314 0.52452 0.0
C1384 C 0.49514 0.43903 0.53285 0.0
C1385 C 0.46633 0.44621 0.51045 0.0
C1386 C 0.48649 0.43126 0.54889 0.0
C1387 C 0.4907 0.4097 0.55946 0.0
C1388 C 0.50369 0.3957 0.5542 0.0
C1389 C 0.51207 0.40305 0.53775 0.0
C1390 C 0.50786 0.4247 0.5272 0.0
H1391 H 0.45816 0.45032 0.49851 0.0
H1392 H 0.47195 0.42764 0.50748 0.0
H1393 H 0.45982 0.44431 0.5242 0.0
H1394 H 0.47676 0.44232 0.55361 0.0
H1395 H 0.48396 0.40423 0.57199 0.0
H1396 H 0.46813 0.66862 0.8183 0.0
H1397 H 0.47613 0.70649 0.8001 0.0
H1398 H 0.50799 0.66078 0.76758 0.0
H1399 H 0.50012 0.62286 0.7858 0.0
H1400 H 0.50717 0.72315 0.80146 0.0
H1401 H 0.48695 0.70586 0.72579 0.0
H1402 H 0.47895 0.6896 0.7466 0.0
H1403 H 0.49706 0.67999 0.73711 0.0
C1404 C 0.47663 0.6666 0.807 0.0
C1405 C 0.48357 0.64288 0.80349 0.0
C1406 C 0.48117 0.68817 0.79665 0.0
C1407 C 0.49262 0.68632 0.78254 0.0
C1408 C 0.49899 0.66245 0.77824 0.0
H1409 H 0.53741 0.80266 0.71291 0.0
H1410 H 0.53184 0.76268 0.72999 0.0
C1411 C 0.49445 0.64083 0.78861 0.0
C1412 C 0.49888 0.70973 0.77375 0.0
H1413 H 0.50277 0.74176 0.73087 0.0
C1414 C 0.50621 0.72728 0.78603 0.0
C1415 C 0.49772 0.71478 0.75362 0.0
C1416 C 0.48966 0.6967 0.73997 0.0
C1417 C 0.51241 0.74995 0.77867 0.0
C1418 C 0.51099 0.75527 0.7586 0.0
C1419 C 0.50388 0.7375 0.74626 0.0
C1420 C 0.51597 0.77979 0.75018 0.0
C1421 C 0.52052 0.76788 0.7924 0.0
C1422 C 0.50913 0.80263 0.75621 0.0
C1423 C 0.51229 0.82542 0.74653 0.0
C1424 C 0.52224 0.82565 0.73054 0.0
C1425 C 0.52962 0.80295 0.72512 0.0
C1426 C 0.52647 0.78016 0.73484 0.0
H1427 H 0.52453 0.75781 0.80569 0.0
H1428 H 0.53041 0.77706 0.78521 0.0
H1429 H 0.51254 0.78311 0.79704 0.0
H1430 H 0.50076 0.80262 0.76778 0.0
H1431 H 0.50623 0.84252 0.7508 0.0
H1432 H 0.48336 0.1753 0.3173 0.0
H1433 H 0.49497 0.21078 0.29956 0.0
H1434 H 0.52171 0.15762 0.26608 0.0
H1435 H 0.51025 0.12193 0.28392 0.0
H1436 H 0.52787 0.22043 0.29793 0.0
H1437 H 0.50083 0.20567 0.22531 0.0
H1438 H 0.49294 0.19232 0.24734 0.0
H1439 H 0.50966 0.17855 0.23675 0.0
C1440 C 0.49165 0.17117 0.30608 0.0
C1441 C 0.49592 0.1459 0.30198 0.0
C1442 C 0.49826 0.1914 0.296 0.0
C1443 C 0.50916 0.1867 0.28158 0.0
C1444 C 0.5132 0.16151 0.27707 0.0
H1445 H 0.54446 0.30513 0.20476 0.0
H1446 H 0.54397 0.26425 0.22208 0.0
C1447 C 0.50659 0.14121 0.28717 0.0
C1448 C 0.51648 0.2084 0.27169 0.0
H1449 H 0.51686 0.24114 0.22887 0.0
C1450 C 0.52564 0.22487 0.28276 0.0
C1451 C 0.51364 0.21383 0.2519 0.0
C1452 C 0.50367 0.19682 0.23956 0.0
C1453 C 0.53164 0.24726 0.27466 0.0
C1454 C 0.52812 0.25343 0.25515 0.0
C1455 C 0.51958 0.23628 0.24383 0.0
C1456 C 0.53145 0.2788 0.24681 0.0
C1457 C 0.54144 0.26431 0.28717 0.0
C1458 C 0.52498 0.3006 0.25528 0.0
C1459 C 0.52523 0.32387 0.24545 0.0
C1460 C 0.53183 0.32563 0.22688 0.0
C1461 C 0.5392 0.3042 0.219 0.0
C1462 C 0.53897 0.28091 0.22888 0.0
H1463 H 0.54739 0.25315 0.29863 0.0
H1464 H 0.55002 0.27466 0.27833 0.0
H1465 H 0.53413 0.27857 0.29458 0.0
H1466 H 0.51879 0.29926 0.26887 0.0
H1467 H 0.51924 0.33993 0.25174 0.0
H1468 H 0.5217 0.88771 0.03005 0.0
H1469 H 0.52215 0.92873 1.01346 0.0
H1470 H 0.54754 0.96146 0.06113 0.0
H1471 H 0.54705 0.92021 0.07794 0.0
H1472 H 0.52107 0.98555 0.05509 0.0
H1473 H 0.55041 0.97567 0.98454 0.0
H1474 H 0.53701 0.95027 0.98789 0.0
H1475 H 0.55303 0.95308 1.00414 0.0
C1476 C 0.52797 0.90331 0.03662 0.0
C1477 C 0.53425 0.90086 0.05533 0.0
C1478 C 0.52825 0.9268 0.02709 0.0
C1479 C 0.53496 0.94813 0.03601 0.0
C1480 C 0.54235 0.94519 0.05399 0.0
H1481 H 0.51175 0.10476 0.99906 0.0
H1482 H 0.5245 0.07011 0.01671 0.0
C1483 C 0.54203 0.92169 0.06357 0.0
C1484 C 0.53175 0.97389 0.02827 0.0
H1485 H 0.53027 0.00767 0.98588 0.0
C1486 C 0.52346 -0.00925 0.04011 0.0
C1487 C 0.53484 0.98057 1.00874 0.0
C1488 C 0.54446 0.96401 0.99569 0.0
C1489 C 0.51723 0.01325 0.03251 0.0
C1490 C 0.51944 0.01897 1.01265 0.0
C1491 C 0.5285 0.00297 1.0011 0.0
C1492 C 0.51131 0.04012 1.00314 0.0
C1493 C 0.5075 0.02993 0.04537 0.0
C1494 C 0.49956 0.03455 0.99003 0.0
C1495 C 0.49219 0.05418 0.98013 0.0
C1496 C 0.49655 0.0797 0.98308 0.0
C1497 C 0.50803 0.08528 0.99671 0.0
C1498 C 0.51538 0.06557 1.00667 0.0
H1499 H 0.5058 0.02155 0.06007 0.0
H1500 H 0.51299 0.04888 0.04707 0.0
H1501 H 0.49622 0.033 0.03851 0.0
H1502 H 0.49622 0.01496 0.98729 0.0
H1503 H 0.48329 0.04937 0.96985 0.0
H1504 H 0.01574 0.21195 1.01539 0.0
H1505 H 0.0051 0.1841 0.99031 0.0
H1506 H 0.03133 0.22334 0.94654 0.0
H1507 H 0.04183 0.25171 0.97153 0.0
H1508 H 0.00265 0.21449 0.9343 0.0
H1509 H 0.02656 0.12496 0.96439 0.0
H1510 H 0.01503 0.14205 0.98153 0.0
H1511 H 0.03241 0.15609 0.97281 0.0
C1512 C 0.01922 0.21481 1.00042 0.0
C1513 C 0.02971 0.23409 0.99553 0.0
C1514 C 0.01322 0.19864 0.9861 0.0
C1515 C 0.01768 0.20114 0.96656 0.0
C1516 C 0.0278 0.22085 0.96153 0.0
H1517 H 0.00554 0.09575 0.86972 0.0
H1518 H 0.01497 0.11787 0.89889 0.0
C1519 C 0.03376 0.23714 0.97585 0.0
C1520 C 0.01163 0.18349 0.95134 0.0
H1521 H 0.00859 0.12046 0.93865 0.0
C1522 C 0.00397 0.19394 0.93527 0.0
C1523 C 0.01354 0.15664 0.95238 0.0
C1524 C 0.02246 0.14425 0.9686 0.0
C1525 C 0.998 0.17838 0.92042 0.0
C1526 C 0.99939 0.15147 0.92184 0.0
C1527 C 0.00728 0.14101 0.93773 0.0
C1528 C 0.99317 0.13416 0.90653 0.0
C1529 C 0.99059 0.19102 0.90309 0.0
C1530 C 0.97764 0.13463 0.90181 0.0
C1531 C 0.97227 0.12199 0.88521 0.0
C1532 C 0.98228 0.10823 0.87323 0.0
C1533 C 0.99755 0.10581 0.87893 0.0
C1534 C 0.00295 0.11867 0.89548 0.0
H1535 H 0.994 0.21137 0.90173 0.0
H1536 H 0.99356 0.181 0.88936 0.0
H1537 H 0.97806 0.19037 0.90486 0.0
H1538 H 0.9698 0.14595 0.91035 0.0
H1539 H 0.96049 0.1244 0.88098 0.0
H1540 H 0.20754 0.97044 0.97194 0.0
H1541 H 0.21773 -0.00246 0.94595 0.0
H1542 H 0.24031 0.04446 0.98871 0.0
H1543 H 0.23002 0.01784 1.01472 0.0
H1544 H 0.22534 0.07336 0.96181 0.0
H1545 H 0.26062 0.00062 0.92453 0.0
H1546 H 0.24105 -0.00849 0.92706 0.0
H1547 H 0.25266 -0.00449 0.94842 0.0
C1548 C 0.21483 0.98633 0.97582 0.0
C1549 C 0.218 -0.0082 0.99548 0.0
C1550 C 0.22069 0.00181 0.96091 0.0
C1551 C 0.22995 0.02296 0.96531 0.0
C1552 C 0.23322 0.02829 0.9849 0.0
H1553 H 0.28541 0.10073 0.87901 0.0
H1554 H 0.27627 0.08025 0.90886 0.0
C1555 C 0.22736 0.01291 0.99979 0.0
C1556 C 0.23595 0.03994 0.94962 0.0
H1557 H 0.25751 0.04024 0.90826 0.0
C1558 C 0.23243 0.06613 0.95013 0.0
C1559 C 0.24536 0.03066 0.93449 0.0
C1560 C 0.25029 0.00309 0.93363 0.0
C1561 C 0.23787 0.08314 0.93584 0.0
C1562 C 0.2469 0.0737 0.92039 0.0
C1563 C 0.25056 0.04756 0.92003 0.0
C1564 C 0.25268 0.0903 0.90431 0.0
C1565 C 0.23411 0.11113 0.93766 0.0
C1566 C 0.24261 0.10376 0.89214 0.0
C1567 C 0.24791 0.11595 0.87524 0.0
C1568 C 0.26334 0.11469 0.87014 0.0
C1569 C 0.27352 0.10246 0.88285 0.0
C1570 C 0.26826 0.09048 0.89978 0.0
H1571 H 0.23118 0.11633 0.95289 0.0
H1572 H 0.24374 0.12325 0.93279 0.0
H1573 H 0.22411 0.1155 0.92838 0.0
H1574 H 0.23051 0.10349 0.89499 0.0
H1575 H 0.23978 0.12456 0.86538 0.0
H1576 H 0.00404 0.13934 0.41142 0.0
H1577 H 0.01134 0.11967 0.38029 0.0
H1578 H 0.97564 0.06391 0.38711 0.0
H1579 H 0.96811 0.08393 0.41766 0.0
H1580 H 0.02243 0.07288 0.37715 0.0
H1581 H 0.97152 0.07777 0.33036 0.0
H1582 H 0.9734 0.09669 0.35219 0.0
H1583 H 0.96697 0.06406 0.35353 0.0
C1584 C 0.99734 0.12364 0.40576 0.0
C1585 C 0.98542 0.11331 0.41687 0.0
C1586 C 0.00163 0.11217 0.3881 0.0
C1587 C 0.99402 0.09028 0.38119 0.0
C1588 C 0.98151 0.08103 0.39175 0.0
H1589 H 0.03569 0.9678 0.31318 0.0
H1590 H 0.02514 -0.00513 0.33898 0.0
C1591 C 0.97721 0.0925 0.40928 0.0
C1592 C 1.00011 0.07533 0.36437 0.0
H1593 H 0.98971 0.04504 0.32229 0.0
C1594 C 0.01531 0.06709 0.36503 0.0
C1595 C 0.99093 0.0678 0.34841 0.0
C1596 C 0.97486 0.07728 0.34597 0.0
C1597 C 0.02143 0.0511 0.35055 0.0
C1598 C 0.01199 0.04238 0.33518 0.0
C1599 C 0.99692 0.05122 0.33422 0.0
C1600 C 0.01767 0.02494 0.31955 0.0
C1601 C 0.03803 0.0441 0.35174 0.0
C1602 C 0.01636 0.03208 0.29992 0.0
C1603 C 0.02209 0.01642 0.28515 0.0
C1604 C 0.02935 -0.00684 0.28958 0.0
C1605 C 0.03026 0.98561 0.30922 0.0
C1606 C 0.02437 0.00124 0.32402 0.0
H1607 H 0.04453 0.05805 0.36066 0.0
H1608 H 0.03917 0.02511 0.35875 0.0
H1609 H 0.04325 0.04314 0.33705 0.0
H1610 H 0.01118 0.05013 0.29601 0.0
H1611 H 0.02116 0.02298 0.27024 0.0
H1612 H 0.24378 0.10267 0.41916 0.0
H1613 H 0.23402 0.12304 0.3895 0.0
H1614 H 0.27929 0.14864 0.37534 0.0
H1615 H 0.28892 0.12887 0.4052 0.0
H1616 H 0.25991 0.18756 0.37564 0.0
H1617 H 0.23477 0.10955 0.33167 0.0
H1618 H 0.22774 0.11036 0.35618 0.0
H1619 H 0.24749 0.10356 0.3518 0.0
C1620 C 0.25171 0.11175 0.40928 0.0
C1621 C 0.26713 0.11392 0.41433 0.0
C1622 C 0.24612 0.1235 0.39233 0.0
C1623 C 0.25591 0.13736 0.38003 0.0
C1624 C 0.27149 0.1381 0.38452 0.0
H1625 H 0.23149 0.20832 0.26923 0.0
H1626 H 0.24224 0.18176 0.29507 0.0
C1627 C 0.27703 0.12659 0.40149 0.0
C1628 C 0.24981 0.15341 0.36382 0.0
H1629 H 0.22819 0.15209 0.3224 0.0
C1630 C 0.25305 0.17971 0.36394 0.0
C1631 C 0.24093 0.1433 0.34843 0.0
C1632 C 0.23764 0.11511 0.34685 0.0
C1633 C 0.24757 0.19613 0.34933 0.0
C1634 C 0.23826 0.18619 0.33431 0.0
C1635 C 0.23518 0.15983 0.334 0.0
C1636 C 0.2318 0.20275 0.31865 0.0
C1637 C 0.25208 0.22393 0.34996 0.0
C1638 C 0.22229 0.22346 0.32321 0.0
C1639 C 0.2162 0.23887 0.30843 0.0
C1640 C 0.21936 0.23376 0.28872 0.0
C1641 C 0.22886 0.21295 0.28421 0.0
C1642 C 0.23497 0.19763 0.299 0.0
H1643 H 0.26248 0.22696 0.35885 0.0
H1644 H 0.25415 0.23151 0.3351 0.0
H1645 H 0.24276 0.23514 0.35667 0.0
H1646 H 0.21939 0.22754 0.33821 0.0
H1647 H 0.20881 0.25452 0.31247 0.0
H1648 H 0.03936 0.85724 0.15131 0.0
H1649 H 0.0301 0.83807 0.12098 0.0
H1650 H 0.98405 0.85616 0.13746 0.0
H1651 H 0.99342 0.87605 0.1675 0.0
H1652 H 0.01294 0.7967 0.12019 0.0
H1653 H 0.9824 0.87297 0.08046 0.0
H1654 H 0.99516 0.87972 0.10041 0.0
H1655 H 0.97596 0.86953 0.1051 0.0
C1656 C 0.02733 0.85813 0.14798 0.0
C1657 C 0.01712 0.86861 0.1615 0.0
C1658 C 0.02201 0.84692 0.13076 0.0
C1659 C 0.00635 0.84571 0.12676 0.0
C1660 C 0.99619 0.85733 0.13986 0.0
H1661 H 0.96253 0.72613 0.05837 0.0
H1662 H 0.97284 0.75333 0.08418 0.0
C1663 C 0.00154 0.86881 0.15703 0.0
C1664 C 0.00067 0.82979 0.11021 0.0
H1665 H 0.97746 0.83007 0.0702 0.0
C1666 C 0.00528 0.80412 0.10919 0.0
C1667 C 0.99071 0.83935 0.09572 0.0
C1668 C 0.98588 0.86697 0.09533 0.0
C1669 C 1.0001 0.78775 0.09436 0.0
C1670 C 0.98971 0.79704 0.0803 0.0
C1671 C 0.98529 0.82282 0.08108 0.0
C1672 C 0.98344 0.78037 0.06459 0.0
C1673 C 0.00601 0.76073 0.09374 0.0
C1674 C 0.9857 0.78666 0.04493 0.0
C1675 C 0.97976 0.77117 0.03011 0.0
C1676 C 0.97134 0.74906 0.0346 0.0
C1677 C 0.96907 0.74283 0.05433 0.0
C1678 C 0.97501 0.75836 0.06914 0.0
H1679 H 0.01683 0.75875 0.10195 0.0
H1680 H 0.99753 0.74779 0.10051 0.0
H1681 H 0.00791 0.75436 0.07851 0.0
H1682 H 0.99212 0.80356 0.04102 0.0
H1683 H 0.98168 0.7767 1.01511 0.0
H1684 H 0.76672 0.9621 0.02005 0.0
H1685 H 0.75605 0.93536 0.04575 0.0
H1686 H 0.78099 0.97824 0.08884 0.0
H1687 H 0.79153 0.00548 0.06318 0.0
H1688 H 0.77054 0.90394 0.071 0.0
H1689 H 0.73883 0.97762 0.1122 0.0
H1690 H 0.74638 0.98341 0.08817 0.0
H1691 H 0.75859 0.98515 0.10917 0.0
C1692 C 0.76981 0.96614 0.03501 0.0
C1693 C 0.77994 0.98614 0.03951 0.0
C1694 C 0.76373 0.9507 0.04971 0.0
C1695 C 0.76757 0.95484 0.0693 0.0
C1696 C 0.77758 0.97493 0.07389 0.0
H1697 H 0.7586 0.84981 0.16684 0.0
H1698 H 0.76707 0.87114 0.13697 0.0
C1699 C 0.78363 -0.0095 0.05918 0.0
C1700 C 0.76146 0.93759 0.08476 0.0
H1701 H 0.74139 0.93705 0.12733 0.0
C1702 C 0.76409 0.91117 0.08328 0.0
C1703 C 0.75287 0.94689 0.10066 0.0
C1704 C 0.74885 0.97478 0.1026 0.0
C1705 C 0.75862 0.89394 0.09738 0.0
C1706 C 0.75049 0.90335 0.11364 0.0
C1707 C 0.74766 0.92973 0.11494 0.0
C1708 C 0.74493 0.8865 0.12969 0.0
C1709 C 0.76141 0.86577 0.09454 0.0
C1710 C 0.72961 0.88742 0.13543 0.0
C1711 C 0.7248 0.87527 0.1525 0.0
C1712 C 0.73518 0.86178 0.16416 0.0
C1713 C 0.75028 0.8594 0.1578 0.0
C1714 C 0.75514 0.87174 0.14076 0.0
H1715 H 0.76347 0.86111 0.07898 0.0
H1716 H 0.77166 0.8601 0.10291 0.0
H1717 H 0.75165 0.85425 0.09981 0.0
H1718 H 0.72151 0.89869 0.12722 0.0
H1719 H 0.71319 0.87791 0.15735 0.0
H1720 H 0.98213 0.96007 0.76446 0.0
H1721 H 0.99281 0.93403 0.7384 0.0
H1722 H 0.9693 0.97975 0.69576 0.0
H1723 H 0.95872 0.00631 0.72181 0.0
H1724 H 0.9781 0.90435 0.71197 0.0
H1725 H 0.01192 0.97819 0.67362 0.0
H1726 H 0.00407 0.98329 0.69757 0.0
H1727 H 0.99224 0.98638 0.67633 0.0
C1728 C 0.97936 0.9649 0.74953 0.0
C1729 C 0.96961 0.98548 0.74528 0.0
C1730 C 0.98545 0.94985 0.73462 0.0
C1731 C 0.98199 0.95496 0.71505 0.0
C1732 C 0.97239 0.97567 0.7107 0.0
H1733 H 0.99308 0.85231 0.61583 0.0
H1734 H 0.98346 0.87349 0.64521 0.0
C1735 C 0.96633 -0.00915 0.72564 0.0
C1736 C 0.9881 0.93808 0.69938 0.0
H1737 H 0.00939 0.93815 0.65779 0.0
C1738 C 0.98499 0.91174 0.70015 0.0
C1739 C 0.99725 0.94758 0.68406 0.0
C1740 C 0.00171 0.97536 0.68288 0.0
C1741 C 0.99061 0.89477 0.68597 0.0
C1742 C 0.9994 0.90439 0.67035 0.0
C1743 C 0.00262 0.93069 0.6697 0.0
C1744 C 0.00543 0.88778 0.65445 0.0
C1745 C 0.98731 0.86664 0.68807 0.0
C1746 C 0.02101 0.88816 0.65 0.0
C1747 C 0.02647 0.87611 0.63322 0.0
C1748 C 0.0165 0.86328 0.62056 0.0
C1749 C 0.00107 0.86144 0.62563 0.0
C1750 C 0.99556 0.87369 0.64238 0.0
H1751 H 0.98443 0.86157 0.70334 0.0
H1752 H 0.97743 0.86159 0.67878 0.0
H1753 H 0.99716 0.85494 0.68337 0.0
H1754 H 0.02886 0.89887 0.65901 0.0
H1755 H 0.03836 0.87823 0.62944 0.0
H1756 H 0.79008 0.72538 0.72222 0.0
H1757 H 0.78004 0.75303 0.69653 0.0
H1758 H 0.75631 0.7977 0.73957 0.0
H1759 H 0.76659 0.77057 0.76537 0.0
H1760 H 0.75179 0.76356 0.6847 0.0
H1761 H 0.7786 0.85309 0.7106 0.0
H1762 H 0.78362 0.82221 0.72027 0.0
H1763 H 0.76676 0.83827 0.72861 0.0
C1764 C 0.78268 0.74103 0.72625 0.0
C1765 C 0.77922 0.74577 0.74592 0.0
C1766 C 0.77696 0.75689 0.71151 0.0
C1767 C 0.76767 0.77789 0.71607 0.0
C1768 C 0.7638 0.78214 0.73565 0.0
H1769 H 0.71268 0.85261 0.62662 0.0
H1770 H 0.72101 0.8325 0.65705 0.0
C1771 C 0.76958 0.7664 0.75041 0.0
C1772 C 0.76184 0.79496 0.7003 0.0
H1773 H 0.76057 0.85714 0.68493 0.0
C1774 C 0.75372 0.78402 0.68478 0.0
C1775 C 0.76454 0.82167 0.70017 0.0
C1776 C 0.77398 0.83451 0.71569 0.0
C1777 C 0.74813 0.79892 0.66932 0.0
C1778 C 0.75034 0.82575 0.66953 0.0
C1779 C 0.75862 0.83669 0.68491 0.0
C1780 C 0.74473 0.84239 0.65338 0.0
C1781 C 0.7403 0.78559 0.65259 0.0
C1782 C 0.75504 0.85647 0.64199 0.0
C1783 C 0.75018 0.86858 0.62484 0.0
C1784 C 0.73494 0.86687 0.61886 0.0
C1785 C 0.72444 0.85455 0.63107 0.0
C1786 C 0.72926 0.84267 0.64828 0.0
H1787 H 0.74312 0.76493 0.6521 0.0
H1788 H 0.72781 0.78733 0.65436 0.0
H1789 H 0.7435 0.7943 0.63843 0.0
H1790 H 0.76701 0.85668 0.64564 0.0
H1791 H 0.75855 0.87745 0.61546 0.0
H1792 H 0.01481 0.7123 0.51398 0.0
H1793 H 0.0043 0.68572 0.48801 0.0
H1794 H 0.03181 0.72559 0.44588 0.0
H1795 H 0.04212 0.75274 0.47174 0.0
H1796 H 0.00362 0.71772 0.4322 0.0
H1797 H 0.02565 0.62674 0.46216 0.0
H1798 H 0.01366 0.6437 0.47885 0.0
H1799 H 0.03148 0.65746 0.47143 0.0
C1800 C 0.01858 0.71557 0.49918 0.0
C1801 C 0.02938 0.73466 0.49502 0.0
C1802 C 0.01265 0.70013 0.48434 0.0
C1803 C 0.01752 0.70313 0.465 0.0
C1804 C 0.02794 0.72271 0.4607 0.0
H1805 H 0.01114 0.60127 0.36622 0.0
H1806 H 0.01799 0.62227 0.39693 0.0
C1807 C 0.03381 0.7383 0.47552 0.0
C1808 C 0.01172 0.68605 0.44922 0.0
H1809 H 0.00895 0.62351 0.43508 0.0
C1810 C 0.00477 0.69712 0.43286 0.0
C1811 C 0.0134 0.65913 0.44989 0.0
C1812 C 0.02158 0.64603 0.46642 0.0
C1813 C 0.99944 0.68217 0.41726 0.0
C1814 C 0.00069 0.6552 0.41819 0.0
C1815 C 0.00772 0.6441 0.43449 0.0
C1816 C 0.99569 0.63849 0.40176 0.0
C1817 C 0.99298 0.69554 0.39962 0.0
C1818 C 0.98065 0.63923 0.39484 0.0
C1819 C 0.97674 0.62717 0.37731 0.0
C1820 C 0.98771 0.61366 0.36664 0.0
C1821 C 0.00239 0.61102 0.37444 0.0
C1822 C 0.00634 0.62326 0.39188 0.0
H1823 H 0.99639 0.71596 0.3991 0.0
H1824 H 0.99677 0.68617 0.38596 0.0
H1825 H 0.98039 0.69475 0.40019 0.0
H1826 H 0.97213 0.65034 0.40241 0.0
H1827 H 0.96544 0.62992 0.37139 0.0
H1828 H 0.23184 0.51245 0.51261 0.0
H1829 H 0.2414 0.53984 0.48649 0.0
H1830 H 0.21381 0.49915 0.4449 0.0
H1831 H 0.20415 0.47155 0.47096 0.0
H1832 H 0.25663 0.52652 0.45059 0.0
H1833 H 0.20157 0.57554 0.438 0.0
H1834 H 0.20549 0.55744 0.45982 0.0
H1835 H 0.20078 0.54124 0.43757 0.0
C1836 C 0.22786 0.50914 0.49789 0.0
C1837 C 0.21716 0.48977 0.49394 0.0
C1838 C 0.23335 0.52488 0.48297 0.0
C1839 C 0.22815 0.52185 0.46379 0.0
C1840 C 0.2178 0.50212 0.45966 0.0
H1841 H 0.2425 0.58864 0.35157 0.0
H1842 H 0.23295 0.56842 0.38118 0.0
C1843 C 0.21237 0.48621 0.47456 0.0
C1844 C 0.23352 0.53942 0.44815 0.0
H1845 H 0.22132 0.58423 0.41549 0.0
C1846 C 0.24896 0.5393 0.44299 0.0
C1847 C 0.2235 0.55617 0.43832 0.0
C1848 C 0.20693 0.55788 0.44376 0.0
C1849 C 0.25453 0.55469 0.42776 0.0
C1850 C 0.24446 0.57123 0.41771 0.0
C1851 C 0.22907 0.57172 0.4232 0.0
C1852 C 0.24934 0.58633 0.40033 0.0
C1853 C 0.27101 0.55222 0.42201 0.0
C1854 C 0.26134 0.60415 0.40123 0.0
C1855 C 0.26683 0.61584 0.38418 0.0
C1856 C 0.26033 0.61 0.36603 0.0
C1857 C 0.2477 0.59352 0.3654 0.0
C1858 C 0.24227 0.58189 0.38232 0.0
H1859 H 0.27628 0.53467 0.42811 0.0
H1860 H 0.27225 0.55181 0.40593 0.0
H1861 H 0.27743 0.56889 0.42766 0.0
H1862 H 0.26676 0.6084 0.41501 0.0
H1863 H 0.27663 0.62832 0.38505 0.0
H1864 H 0.96939 0.5847 0.91803 0.0
H1865 H 0.97665 0.56461 0.88731 0.0
H1866 H 0.01153 0.62154 0.87925 0.0
H1867 H 0.00449 0.64129 0.91046 0.0
H1868 H 0.97961 0.57578 0.84943 0.0
H1869 H 0.0365 0.55695 0.88132 0.0
H1870 H 0.02104 0.56981 0.89543 0.0
H1871 H 0.03181 0.5902 0.8795 0.0
C1872 C 0.97826 0.59346 0.90935 0.0
C1873 C 0.98637 0.61457 0.91663 0.0
C1874 C 0.98249 0.58184 0.89184 0.0
C1875 C 0.99496 0.59102 0.88118 0.0
C1876 C 0.00214 0.61363 0.88746 0.0
H1877 H 0.02145 0.52407 0.76905 0.0
H1878 H 0.01143 0.55154 0.79465 0.0
C1879 C 0.99793 0.62524 0.90511 0.0
C1880 C 0.00103 0.5756 0.86457 0.0
H1881 H 0.03238 0.54262 0.84922 0.0
C1882 C 0.99118 0.56866 0.84933 0.0
C1883 C 0.01603 0.56567 0.86463 0.0
C1884 C 0.02694 0.57079 0.88116 0.0
C1885 C 0.99587 0.55225 0.83423 0.0
C1886 C 0.01099 0.54289 0.83401 0.0
C1887 C 0.02083 0.54983 0.84925 0.0
C1888 C 0.01684 0.52574 0.81827 0.0
C1889 C 0.98437 0.54442 0.81904 0.0
C1890 C 0.02365 0.50219 0.82288 0.0
C1891 C 0.02964 0.48647 0.8082 0.0
C1892 C 0.02893 0.49393 0.78853 0.0
C1893 C 0.02204 0.51746 0.78397 0.0
C1894 C 0.0162 0.53322 0.79864 0.0
H1895 H 0.97255 0.54656 0.82447 0.0
H1896 H 0.98562 0.55686 0.80606 0.0
H1897 H 0.98606 0.5243 0.81445 0.0
H1898 H 0.02438 0.49596 0.8379 0.0
H1899 H 0.03492 0.46859 0.81229 0.0
H1900 H 0.22627 0.69823 0.76629 0.0
H1901 H 0.23637 0.6696 0.79114 0.0
H1902 H 0.22635 0.72544 0.83544 0.0
H1903 H 0.2157 0.75395 0.81066 0.0
H1904 H 0.2592 0.67228 0.81583 0.0
H1905 H 0.20602 0.66397 0.85826 0.0
H1906 H 0.20664 0.679 0.83465 0.0
H1907 H 0.21219 0.69648 0.85611 0.0
C1908 C 0.22621 0.70453 0.78131 0.0
C1909 C 0.22006 0.72842 0.78645 0.0
C1910 C 0.23201 0.68806 0.79554 0.0
C1911 C 0.23186 0.69501 0.81529 0.0
C1912 C 0.2262 0.71923 0.82041 0.0
H1913 H 0.2841 0.63561 0.91033 0.0
H1914 H 0.27607 0.65394 0.87937 0.0
C1915 C 0.22024 0.73565 0.80618 0.0
C1916 C 0.23771 0.67695 0.8304 0.0
H1917 H 0.22852 0.64816 0.87349 0.0
C1918 C 0.25243 0.66687 0.82836 0.0
C1919 C 0.2288 0.66921 0.84655 0.0
C1920 C 0.21249 0.6775 0.84894 0.0
C1921 C 0.25865 0.65012 0.84229 0.0
C1922 C 0.2501 0.64371 0.85907 0.0
C1923 C 0.23519 0.65309 0.86075 0.0
C1924 C 0.25664 0.62899 0.87574 0.0
C1925 C 0.2743 0.63935 0.83873 0.0
C1926 C 0.24867 0.60832 0.88403 0.0
C1927 C 0.25327 0.59785 0.90192 0.0
C1928 C 0.26588 0.60792 0.91185 0.0
C1929 C 0.27451 0.62717 0.9028 0.0
C1930 C 0.26989 0.6377 0.88505 0.0
H1931 H 0.27673 0.63793 0.82289 0.0
H1932 H 0.28291 0.65233 0.8452 0.0
H1933 H 0.27562 0.62014 0.84535 0.0
H1934 H 0.23839 0.60126 0.8772 0.0
H1935 H 0.24623 0.58343 0.90874 0.0
H1936 H 0.96539 0.21941 0.56116 0.0
H1937 H 0.97573 0.24639 0.58712 0.0
H1938 H 0.98794 0.3036 0.54477 0.0
H1939 H 0.97806 0.2765 0.51873 0.0
H1940 H 0.01012 0.29829 0.57064 0.0
H1941 H 0.95578 0.30815 0.61038 0.0
H1942 H 0.9613 0.27541 0.60759 0.0
H1943 H 0.95685 0.29425 0.5864 0.0
C1944 C 0.97034 0.23768 0.55735 0.0
C1945 C 0.97082 0.24575 0.53781 0.0
C1946 C 0.97613 0.25323 0.57226 0.0
C1947 C 0.98232 0.27739 0.56803 0.0
C1948 C 0.98315 0.28517 0.54849 0.0
H1949 H 0.99708 0.3862 0.66377 0.0
H1950 H 0.98927 0.36871 0.63207 0.0
C1951 C 0.97748 0.26958 0.53358 0.0
C1952 C 0.98805 0.29447 0.58388 0.0
H1953 H 0.97808 0.32208 0.62715 0.0
C1954 C 0.00306 0.30364 0.58291 0.0
C1955 C 0.97879 0.30209 0.59973 0.0
C1956 C 0.96224 0.2947 0.60102 0.0
C1957 C 0.0092 0.31931 0.59762 0.0
C1958 C 1.00022 0.3256 0.61406 0.0
C1959 C 0.98505 0.3172 0.61468 0.0
C1960 C 0.00655 0.33929 0.63139 0.0
C1961 C 0.02522 0.32911 0.59526 0.0
C1962 C 0.01916 0.32925 0.64132 0.0
C1963 C 0.02373 0.33945 0.65921 0.0
C1964 C 0.0157 0.35975 0.6678 0.0
C1965 C 0.00364 0.37085 0.65738 0.0
C1966 C 0.99907 0.36064 0.63937 0.0
H1967 H 0.02834 0.33072 0.57964 0.0
H1968 H 0.02671 0.34806 0.60225 0.0
H1969 H 0.03322 0.31544 0.60213 0.0
H1970 H 0.02495 0.31249 0.63585 0.0
H1971 H 0.03297 0.33034 0.66699 0.0
H1972 H 0.79293 0.5045 0.56132 0.0
H1973 H 0.78286 0.4771 0.58721 0.0
H1974 H 0.75855 0.43264 0.54448 0.0
H1975 H 0.76878 0.45948 0.51855 0.0
H1976 H 0.75441 0.46679 0.59917 0.0
H1977 H 0.78095 0.37715 0.57338 0.0
H1978 H 0.78609 0.40802 0.56375 0.0
H1979 H 0.76923 0.39201 0.55524 0.0
C1980 C 0.78539 0.48896 0.55742 0.0
C1981 C 0.78176 0.48418 0.53779 0.0
C1982 C 0.77967 0.47324 0.57225 0.0
C1983 C 0.77022 0.45236 0.56781 0.0
C1984 C 0.76616 0.4481 0.54829 0.0
H1985 H 0.71303 0.37751 0.65421 0.0
H1986 H 0.72259 0.3981 0.6246 0.0
C1987 C 0.77193 0.46369 0.53346 0.0
C1988 C 0.76438 0.43535 0.5836 0.0
H1989 H 0.76249 0.37305 0.59859 0.0
C1990 C 0.75621 0.44631 0.59904 0.0
C1991 C 0.76691 0.40861 0.58367 0.0
C1992 C 0.7764 0.39575 0.56823 0.0
C1993 C 0.75032 0.43135 0.61428 0.0
C1994 C 0.7523 0.40448 0.61392 0.0
C1995 C 0.76072 0.39354 0.5987 0.0
C1996 C 0.74608 0.38775 0.62961 0.0
C1997 C 0.74231 0.44461 0.63087 0.0
C1998 C 0.75588 0.37333 0.64148 0.0
C1999 C 0.75034 0.36099 0.65818 0.0
C2000 C 0.73491 0.36284 0.66323 0.0
C2001 C 0.72494 0.37553 0.6505 0.0
C2002 C 0.73044 0.38764 0.63376 0.0
H2003 H 0.74533 0.46519 0.63163 0.0
H2004 H 0.72985 0.44321 0.62868 0.0
H2005 H 0.74516 0.43559 0.64505 0.0
H2006 H 0.76797 0.37297 0.63853 0.0
H2007 H 0.7583 0.35178 0.66796 0.0
H2008 H 0.95774 0.50774 0.2196 0.0
H2009 H 0.96766 0.48014 0.19379 0.0
H2010 H 0.99121 0.43488 0.23669 0.0
H2011 H 0.98113 0.46198 0.26256 0.0
H2012 H 0.99638 0.46955 0.18251 0.0
H2013 H 0.96861 0.38014 0.20684 0.0
H2014 H 0.96354 0.41101 0.21651 0.0
H2015 H 0.98011 0.39461 0.22541 0.0
C2016 C 0.96506 0.49196 0.22356 0.0
C2017 C 0.96856 0.48708 0.24322 0.0
C2018 C 0.9707 0.47613 0.20877 0.0
C2019 C 0.97992 0.45502 0.21327 0.0
C2020 C 0.98378 0.45056 0.23283 0.0
H2021 H 0.03861 0.37973 0.12938 0.0
H2022 H 0.02818 0.40013 0.15855 0.0
C2023 C 0.9781 0.46628 0.24762 0.0
C2024 C 0.98583 0.43811 0.1975 0.0
H2025 H 0.98749 0.37597 0.18211 0.0
C2026 C 0.99438 0.44911 0.18242 0.0
C2027 C 0.98306 0.41143 0.19716 0.0
C2028 C 0.9732 0.3986 0.21223 0.0
C2029 C 1.00046 0.43421 0.16729 0.0
C2030 C 0.99825 0.4074 0.16739 0.0
C2031 C 0.98941 0.39643 0.18221 0.0
C2032 C 0.00479 0.39075 0.1519 0.0
C2033 C 0.00899 0.44746 0.1511 0.0
C2034 C 0.99525 0.377 0.13922 0.0
C2035 C 0.00127 0.36483 0.12272 0.0
C2036 C 0.0169 0.36623 0.11869 0.0
C2037 C 0.02654 0.37821 0.13224 0.0
C2038 C 0.02056 0.39016 0.14876 0.0
H2039 H 0.00622 0.46814 0.15041 0.0
H2040 H 0.02138 0.44564 0.15373 0.0
H2041 H 0.00635 0.43871 0.13676 0.0
H2042 H 0.98306 0.37704 0.14141 0.0
H2043 H 0.99357 0.35611 0.11234 0.0
H2044 H 0.78464 0.22362 0.22485 0.0
H2045 H 0.77428 0.25086 0.1991 0.0
H2046 H 0.76155 0.30709 0.24193 0.0
H2047 H 0.77148 0.27973 0.26777 0.0
H2048 H 0.73951 0.3017 0.21551 0.0
H2049 H 0.79429 0.31356 0.17704 0.0
H2050 H 0.78897 0.28065 0.17943 0.0
H2051 H 0.79301 0.29926 0.20088 0.0
C2052 C 0.77956 0.24172 0.22883 0.0
C2053 C 0.77897 0.24946 0.24844 0.0
C2054 C 0.77376 0.25742 0.21403 0.0
C2055 C 0.76743 0.28139 0.21845 0.0
C2056 C 0.76646 0.28882 0.23807 0.0
H2057 H 0.75327 0.39126 0.12342 0.0
H2058 H 0.76058 0.37376 0.15531 0.0
C2059 C 0.77215 0.27308 0.25287 0.0
C2060 C 0.76178 0.29868 0.20271 0.0
H2061 H 0.77212 0.32731 0.15997 0.0
C2062 C 0.74669 0.30745 0.20344 0.0
C2063 C 0.77119 0.30681 0.18716 0.0
C2064 C 0.78781 0.29982 0.18615 0.0
C2065 C 0.74063 0.32321 0.18875 0.0
C2066 C 0.74977 0.33004 0.17259 0.0
C2067 C 0.76502 0.32204 0.17224 0.0
C2068 C 0.74359 0.34382 0.15524 0.0
C2069 C 0.72449 0.33251 0.19081 0.0
C2070 C 0.73127 0.33351 0.14486 0.0
C2071 C 0.72698 0.34371 0.12685 0.0
C2072 C 0.73501 0.36431 0.11864 0.0
C2073 C 0.74671 0.37571 0.12954 0.0
C2074 C 0.751 0.36549 0.14765 0.0
H2075 H 0.72111 0.33373 0.20638 0.0
H2076 H 0.72293 0.35155 0.184 0.0
H2077 H 0.71671 0.31875 0.18359 0.0
H2078 H 0.72555 0.31651 0.15003 0.0
H2079 H 0.71805 0.33433 0.11866 0.0
H2080 H 0.51141 0.09886 0.36846 0.0
H2081 H 0.51749 0.1199 0.39931 0.0
H2082 H 0.47162 0.14855 0.40267 0.0
H2083 H 0.46572 0.128 0.37144 0.0
H2084 H 0.49139 0.18634 0.4057 0.0
H2085 H 0.50965 0.11026 0.45628 0.0
H2086 H 0.51976 0.10876 0.43365 0.0
H2087 H 0.49953 0.10345 0.434 0.0
C2088 C 0.50244 0.10857 0.37631 0.0
C2089 C 0.48798 0.11123 0.36786 0.0
C2090 C 0.50593 0.12074 0.39394 0.0
C2091 C 0.495 0.13573 0.40354 0.0
C2092 C 0.48025 0.13704 0.39566 0.0
H2093 H 0.51459 0.2125 0.5142 0.0
H2094 H 0.50383 0.18554 0.48862 0.0
C2095 C 0.4768 0.12499 0.37796 0.0
C2096 C 0.49947 0.15249 0.42023 0.0
H2097 H 0.51767 0.1529 0.46426 0.0
C2098 C 0.49697 0.17893 0.41861 0.0
C2099 C 0.50667 0.143 0.4372 0.0
C2100 C 0.50892 0.11478 0.4405 0.0
C2101 C 0.5018 0.19609 0.43313 0.0
C2102 C 0.5097 0.18672 0.44962 0.0
C2103 C 0.51181 0.16022 0.45153 0.0
C2104 C 0.51585 0.20403 0.46504 0.0
C2105 C 0.49821 0.22407 0.43071 0.0
C2106 C 0.52623 0.22356 0.46042 0.0
C2107 C 0.53232 0.23924 0.47505 0.0
C2108 C 0.52834 0.23555 0.49469 0.0
C2109 C 0.51791 0.21603 0.49926 0.0
C2110 C 0.51176 0.20048 0.48462 0.0
H2111 H 0.48835 0.22703 0.42084 0.0
H2112 H 0.49567 0.23319 0.44494 0.0
H2113 H 0.50816 0.23388 0.42418 0.0
H2114 H 0.52987 0.22637 0.44552 0.0
H2115 H 0.54045 0.25384 0.47098 0.0
H2116 H 0.72632 0.02823 0.51462 0.0
H2117 H 0.73617 0.0558 0.48896 0.0
H2118 H 0.72525 -0.00159 0.44611 0.0
H2119 H 0.71476 0.97104 0.47175 0.0
H2120 H 0.75853 0.05241 0.46464 0.0
H2121 H 0.70576 0.05863 0.42115 0.0
H2122 H 0.70617 0.04441 0.44506 0.0
H2123 H 0.7119 0.02624 0.42402 0.0
C2124 C 0.726 0.02138 0.49974 0.0
C2125 C 0.71966 -0.00263 0.49529 0.0
C2126 C 0.73165 0.03726 0.48503 0.0
C2127 C 0.73121 0.02958 0.46543 0.0
C2128 C 0.72531 0.00525 0.46099 0.0
H2129 H 0.78545 0.08739 0.37104 0.0
H2130 H 0.77621 0.0686 0.40123 0.0
C2131 C 0.71945 -0.01055 0.47571 0.0
C2132 C 0.73717 0.04691 0.44984 0.0
H2133 H 0.72842 0.07372 0.40581 0.0
C2134 C 0.75186 0.0572 0.45186 0.0
C2135 C 0.72843 0.05386 0.43331 0.0
C2136 C 0.71214 0.04544 0.43084 0.0
C2137 C 0.75819 0.07341 0.43765 0.0
C2138 C 0.74983 0.07898 0.42052 0.0
C2139 C 0.73495 0.06939 0.41879 0.0
C2140 C 0.75655 0.09321 0.40368 0.0
C2141 C 0.77374 0.0846 0.44134 0.0
C2142 C 0.74874 0.11364 0.39482 0.0
C2143 C 0.75399 0.12432 0.37728 0.0
C2144 C 0.76709 0.11467 0.36821 0.0
C2145 C 0.77538 0.09538 0.37775 0.0
C2146 C 0.77011 0.08465 0.39512 0.0
H2147 H 0.77593 0.08674 0.4572 0.0
H2148 H 0.7825 0.07151 0.43543 0.0
H2149 H 0.77506 0.10355 0.4343 0.0
H2150 H 0.73823 0.12061 0.40105 0.0
H2151 H 0.74722 0.13885 0.37014 0.0
H2152 H 0.46951 0.07909 0.9181 0.0
H2153 H 0.47691 0.05989 0.8871 0.0
H2154 H 0.5102 0.11937 0.87875 0.0
H2155 H 0.50302 0.13829 0.9102 0.0
H2156 H 0.47935 0.07206 0.84896 0.0
H2157 H 0.53665 0.05615 0.88067 0.0
H2158 H 0.52091 0.06775 0.89492 0.0
H2159 H 0.53115 0.08908 0.87915 0.0
C2160 C 0.47804 0.08858 0.90931 0.0
C2161 C 0.48569 0.11018 0.91656 0.0
C2162 C 0.48235 0.07748 0.89163 0.0
C2163 C 0.49444 0.08769 0.88081 0.0
C2164 C 0.5011 0.11073 0.88708 0.0
H2165 H 0.52257 0.02285 0.76857 0.0
H2166 H 0.51192 0.04979 0.7941 0.0
C2167 C 0.49681 0.12183 0.90488 0.0
C2168 C 0.50077 0.07283 0.8641 0.0
H2169 H 0.5327 0.04159 0.84863 0.0
C2170 C 0.49105 0.06554 0.84882 0.0
C2171 C 0.51595 0.06372 0.8641 0.0
C2172 C 0.52676 0.06932 0.88065 0.0
C2173 C 0.49604 0.04952 0.83363 0.0
C2174 C 0.51131 0.0409 0.83342 0.0
C2175 C 0.52103 0.04823 0.84868 0.0
C2176 C 0.51744 0.02404 0.81771 0.0
C2177 C 0.48472 0.04129 0.81835 0.0
C2178 C 0.52448 0.0007 0.82236 0.0
C2179 C 0.53079 0.98529 0.80773 0.0
C2180 C 0.53022 -0.00713 0.78809 0.0
C2181 C 0.52308 0.01618 0.78348 0.0
C2182 C 0.51688 0.03163 0.7981 0.0
H2183 H 0.47284 0.04304 0.82366 0.0
H2184 H 0.48591 0.05374 0.80537 0.0
H2185 H 0.48669 0.02122 0.8138 0.0
H2186 H 0.52514 -0.00558 0.83737 0.0
H2187 H 0.53625 0.96757 0.81186 0.0
H2188 H 0.74543 0.10135 0.91759 0.0
H2189 H 0.73548 0.12208 0.88817 0.0
H2190 H 0.78029 0.15082 0.87515 0.0
H2191 H 0.7901 0.13063 0.90475 0.0
H2192 H 0.75988 0.18861 0.87611 0.0
H2193 H 0.73716 0.11058 0.83001 0.0
H2194 H 0.72997 0.11004 0.85446 0.0
H2195 H 0.74988 0.10476 0.85017 0.0
C2196 C 0.75324 0.11117 0.90797 0.0
C2197 C 0.76857 0.11408 0.91328 0.0
C2198 C 0.74754 0.12315 0.89118 0.0
C2199 C 0.75712 0.13802 0.87931 0.0
C2200 C 0.77264 0.13951 0.88401 0.0
H2201 H 0.73317 0.21032 0.76919 0.0
H2202 H 0.74401 0.18414 0.79513 0.0
C2203 C 0.77829 0.12774 0.90082 0.0
C2204 C 0.75081 0.15426 0.86333 0.0
H2205 H 0.72988 0.15295 0.82134 0.0
C2206 C 0.75339 0.18075 0.86408 0.0
C2207 C 0.74239 0.14411 0.84754 0.0
C2208 C 0.73979 0.11579 0.84534 0.0
C2209 C 0.74774 0.1973 0.84966 0.0
C2210 C 0.73894 0.18726 0.83418 0.0
C2211 C 0.73649 0.16074 0.83329 0.0
C2212 C 0.7325 0.20386 0.81852 0.0
C2213 C 0.75154 0.22535 0.85097 0.0
C2214 C 0.72239 0.22382 0.82293 0.0
C2215 C 0.71622 0.23905 0.80808 0.0
C2216 C 0.71992 0.2345 0.78844 0.0
C2217 C 0.73009 0.21453 0.78411 0.0
C2218 C 0.73626 0.1994 0.79895 0.0
H2219 H 0.76162 0.22882 0.86036 0.0
H2220 H 0.7538 0.23351 0.83633 0.0
H2221 H 0.74177 0.23571 0.85743 0.0
H2222 H 0.71904 0.22737 0.83786 0.0
H2223 H 0.70831 0.25403 0.81198 0.0
H2224 H 0.48512 0.76443 0.52005 0.0
H2225 H 0.49577 0.79077 0.54603 0.0
H2226 H 0.47015 0.74814 0.58854 0.0
H2227 H 0.45963 0.7213 0.56262 0.0
H2228 H 0.48124 0.82231 0.57128 0.0
H2229 H 0.51218 0.74763 0.61246 0.0
H2230 H 0.50479 0.74224 0.58828 0.0
H2231 H 0.4924 0.74047 0.60908 0.0
C2232 C 0.48188 0.76035 0.53494 0.0
C2233 C 0.47156 0.74054 0.5392 0.0
C2234 C 0.48795 0.77557 0.5498 0.0
C2235 C 0.48391 0.77138 0.56931 0.0
C2236 C 0.47371 0.75148 0.57366 0.0
H2237 H 0.49288 0.87516 0.66769 0.0
H2238 H 0.48443 0.85428 0.63759 0.0
C2239 C 0.46767 0.73614 0.55879 0.0
C2240 C 0.49002 0.78835 0.58494 0.0
H2241 H 0.50974 0.78807 0.62782 0.0
C2242 C 0.48755 0.81483 0.5836 0.0
C2243 C 0.49843 0.77873 0.60091 0.0
C2244 C 0.50225 0.75075 0.60273 0.0
C2245 C 0.493 0.83181 0.5979 0.0
C2246 C 0.50096 0.82207 0.61421 0.0
C2247 C 0.50361 0.79563 0.61538 0.0
C2248 C 0.50651 0.83864 0.63044 0.0
C2249 C 0.4904 0.86005 0.59522 0.0
C2250 C 0.5218 0.83739 0.63632 0.0
C2251 C 0.52659 0.84926 0.65353 0.0
C2252 C 0.51623 0.86279 0.66517 0.0
C2253 C 0.50118 0.8655 0.65867 0.0
C2254 C 0.49634 0.85343 0.6415 0.0
H2255 H 0.48844 0.86494 0.57967 0.0
H2256 H 0.48015 0.86581 0.60352 0.0
H2257 H 0.50021 0.87134 0.60067 0.0
H2258 H 0.52987 0.82611 0.62812 0.0
H2259 H 0.53817 0.84642 0.65845 0.0
H2260 H 0.21448 0.87581 0.65901 0.0
H2261 H 0.22177 0.89614 0.62824 0.0
H2262 H 0.26745 0.86773 0.63529 0.0
H2263 H 0.25997 0.84683 0.66573 0.0
H2264 H 0.24163 0.93401 0.6266 0.0
H2265 H 0.26201 0.85734 0.5778 0.0
H2266 H 0.25096 0.85078 0.59937 0.0
H2267 H 0.2711 0.85643 0.60118 0.0
C2268 C 0.22585 0.87285 0.65342 0.0
C2269 C 0.23656 0.85918 0.66444 0.0
C2270 C 0.23009 0.88476 0.63598 0.0
C2271 C 0.24517 0.88345 0.62927 0.0
C2272 C 0.25567 0.86859 0.63978 0.0
H2273 H 0.29138 0.00125 0.56182 0.0
H2274 H 0.28083 0.974 0.58742 0.0
C2275 C 0.25138 0.85649 0.65716 0.0
C2276 C 0.25028 0.90005 0.6128 0.0
H2277 H 0.26954 0.89999 0.56955 0.0
C2278 C 0.2476 0.92647 0.61404 0.0
C2279 C 0.25801 0.89038 0.5963 0.0
C2280 C 0.26056 0.86215 0.59345 0.0
C2281 C 0.25265 0.94344 0.59953 0.0
C2282 C 0.26094 0.93391 0.58344 0.0
C2283 C 0.26334 0.90742 0.58197 0.0
C2284 C 0.26713 0.95101 0.56793 0.0
C2285 C 0.24882 0.9714 0.60147 0.0
C2286 C 0.26318 0.94705 0.54835 0.0
C2287 C 0.26928 0.96251 0.53364 0.0
C2288 C 0.27954 0.98232 0.53814 0.0
C2289 C 0.28339 0.98641 0.5578 0.0
C2290 C 0.27732 0.97085 0.5725 0.0
H2291 H 0.23886 0.97442 0.61113 0.0
H2292 H 0.25865 0.9816 0.60799 0.0
H2293 H 0.24634 0.98008 0.58706 0.0
H2294 H 0.25538 0.93188 0.5444 0.0
H2295 H 0.26608 0.95866 0.51869 0.0
H2296 H 0.49342 0.89351 0.10034 0.0
H2297 H 0.4835 0.91231 0.1303 0.0
H2298 H 0.51386 0.8652 0.1641 0.0
H2299 H 0.52407 0.84662 0.13383 0.0
H2300 H 0.46978 0.89457 0.16327 0.0
H2301 H 0.52614 0.93679 0.18102 0.0
H2302 H 0.52216 0.92214 0.15779 0.0
H2303 H 0.52582 0.90263 0.1788 0.0
C2304 C 0.49775 0.88677 0.1142 0.0
C2305 C 0.50952 0.86866 0.1148 0.0
C2306 C 0.49211 0.89758 0.13132 0.0
C2307 C 0.49815 0.89065 0.14948 0.0
C2308 C 0.50924 0.87129 0.15024 0.0
H2309 H 0.47977 0.962 0.26284 0.0
H2310 H 0.48905 0.93394 0.23695 0.0
C2311 C 0.51492 0.8604 0.13299 0.0
C2312 C 0.49327 0.90489 0.16724 0.0
H2313 H 0.50598 0.94617 0.20234 0.0
C2314 C 0.47773 0.9057 0.17188 0.0
C2315 C 0.50361 0.91959 0.17847 0.0
C2316 C 0.52035 0.92052 0.17374 0.0
C2317 C 0.47224 0.92089 0.18724 0.0
C2318 C 0.48252 0.93598 0.19816 0.0
C2319 C 0.4981 0.93467 0.19391 0.0
C2320 C 0.47726 0.95364 0.21377 0.0
C2321 C 0.45545 0.92066 0.19169 0.0
C2322 C 0.46783 0.97448 0.20931 0.0
C2323 C 0.46258 -0.00928 0.22407 0.0
C2324 C 0.46662 0.98643 0.24364 0.0
C2325 C 0.47638 0.96588 0.24797 0.0
C2326 C 0.4817 0.94977 0.23318 0.0
H2327 H 0.44972 0.90367 0.18536 0.0
H2328 H 0.45344 0.92089 0.20766 0.0
H2329 H 0.45012 0.93797 0.18537 0.0
H2330 H 0.46447 0.97812 0.19439 0.0
H2331 H 0.45509 0.00631 0.22017 0.0
H2332 H 0.25158 0.89076 0.12553 0.0
H2333 H 0.25991 0.87138 0.15634 0.0
H2334 H 0.22206 0.81907 0.15387 0.0
H2335 H 0.21348 0.83901 0.12368 0.0
H2336 H 0.2282 0.83009 0.19051 0.0
H2337 H 0.28192 0.80438 0.15312 0.0
H2338 H 0.27885 0.83815 0.15495 0.0
H2339 H 0.26617 0.81889 0.14051 0.0
C2340 C 0.2447 0.8759 0.13206 0.0
C2341 C 0.23189 0.86638 0.12222 0.0
C2342 C 0.24963 0.86444 0.14946 0.0
C2343 C 0.24195 0.84307 0.1571 0.0
C2344 C 0.22833 0.83528 0.14823 0.0
H2345 H 0.28275 0.71958 0.22465 0.0
H2346 H 0.27145 0.74662 0.1993 0.0
C2347 C 0.22335 0.84683 0.13102 0.0
C2348 C 0.24853 0.8274 0.17324 0.0
H2349 H 0.27959 0.79178 0.18595 0.0
C2350 C 0.23946 0.82182 0.18954 0.0
C2351 C 0.26309 0.81593 0.17181 0.0
C2352 C 0.27303 0.81938 0.15409 0.0
C2353 C 0.24451 0.80528 0.20436 0.0
C2354 C 0.25927 0.79453 0.20325 0.0
C2355 C 0.26832 0.80008 0.18694 0.0
C2356 C 0.26559 0.77758 0.2188 0.0
C2357 C 0.23371 0.79886 0.22071 0.0
C2358 C 0.26617 0.78587 0.23823 0.0
C2359 C 0.27238 0.77031 0.25275 0.0
C2360 C 0.2785 0.74618 0.2482 0.0
C2361 C 0.27807 0.73794 0.22871 0.0
C2362 C 0.27165 0.75345 0.21418 0.0
H2363 H 0.22168 0.80154 0.21622 0.0
H2364 H 0.23519 0.77885 0.22569 0.0
H2365 H 0.23591 0.81179 0.23319 0.0
H2366 H 0.26206 0.80464 0.24217 0.0
H2367 H 0.27271 0.77755 0.26751 0.0
H2368 H 0.46602 0.64019 0.87219 0.0
H2369 H 0.47482 0.66038 0.90218 0.0
H2370 H 0.51148 0.60599 0.90593 0.0
H2371 H 0.50298 0.58629 0.87529 0.0
H2372 H 0.48003 0.64896 0.93904 0.0
H2373 H 0.53492 0.67181 0.90328 0.0
H2374 H 0.51913 0.65813 0.89018 0.0
H2375 H 0.53109 0.63825 0.90508 0.0
C2376 C 0.47575 0.63212 0.87967 0.0
C2377 C 0.4839 0.6118 0.87129 0.0
C2378 C 0.48081 0.64375 0.89681 0.0
C2379 C 0.49413 0.63531 0.90605 0.0
C2380 C 0.50146 0.6134 0.89875 0.0
H2381 H 0.52393 0.70173 0.01698 0.0
H2382 H 0.51349 0.67411 0.99173 0.0
C2383 C 0.49643 0.60182 0.88144 0.0
C2384 C 0.50071 0.65067 0.92237 0.0
H2385 H 0.53209 0.68504 0.93588 0.0
C2386 C 0.49145 0.65674 0.93838 0.0
C2387 C 0.51549 0.66143 0.92136 0.0
C2388 C 0.5257 0.65733 0.90398 0.0
C2389 C 0.49649 0.67317 0.95329 0.0
C2390 C 0.51142 0.68332 0.95255 0.0
C2391 C 0.52069 0.67721 0.93657 0.0
C2392 C 0.51764 0.70047 0.96806 0.0
C2393 C 0.48551 0.68017 0.9693 0.0
C2394 C 0.52395 0.72436 0.96325 0.0
C2395 C 0.53022 0.74014 0.9777 0.0
C2396 C 0.53026 0.73243 0.99733 0.0
C2397 C 0.5239 0.70854 1.00208 0.0
C2398 C 0.51782 0.69269 0.98763 0.0
H2399 H 0.47352 0.67764 0.96458 0.0
H2400 H 0.48744 0.66748 0.982 0.0
H2401 H 0.4871 0.70025 0.97406 0.0
H2402 H 0.52405 0.73081 0.94826 0.0
H2403 H 0.53509 0.75832 0.97348 0.0
H2404 H 0.72713 0.52369 1.0139 0.0
H2405 H 0.73714 0.55147 0.98846 0.0
H2406 H 0.72506 0.49554 0.94502 0.0
H2407 H 0.7145 0.46789 0.97043 0.0
H2408 H 0.75933 0.54731 0.96322 0.0
H2409 H 0.70562 0.55762 0.92204 0.0
H2410 H 0.70637 0.54288 0.94575 0.0
H2411 H 0.71127 0.52487 0.92431 0.0
C2412 C 0.7266 0.51718 0.99895 0.0
C2413 C 0.71991 0.49351 0.99426 0.0
C2414 C 0.73234 0.53318 0.98436 0.0
C2415 C 0.7316 0.52597 0.96469 0.0
C2416 C 0.72538 0.50197 0.95999 0.0
H2417 H 0.78387 0.5838 0.86861 0.0
H2418 H 0.77536 0.56452 0.89901 0.0
C2419 C 0.71947 0.48602 0.97459 0.0
C2420 C 0.73751 0.54351 0.94923 0.0
H2421 H 0.72811 0.57241 0.90622 0.0
C2422 C 0.75244 0.55292 0.95083 0.0
C2423 C 0.72848 0.55149 0.93325 0.0
C2424 C 0.712 0.54392 0.93131 0.0
C2425 C 0.75871 0.56926 0.93667 0.0
C2426 C 0.74999 0.57595 0.92007 0.0
C2427 C 0.7349 0.56723 0.9188 0.0
C2428 C 0.7565 0.59046 0.90326 0.0
C2429 C 0.77458 0.57937 0.9398 0.0
C2430 C 0.74894 0.61182 0.89542 0.0
C2431 C 0.75378 0.62284 0.87782 0.0
C2432 C 0.76623 0.61258 0.86768 0.0
C2433 C 0.77434 0.59229 0.8762 0.0
C2434 C 0.76948 0.58126 0.89366 0.0
H2435 H 0.77736 0.58058 0.95556 0.0
H2436 H 0.78286 0.56611 0.933 0.0
H2437 H 0.77606 0.59858 0.93322 0.0
H2438 H 0.73887 0.61927 0.90248 0.0
H2439 H 0.74716 0.63814 0.87147 0.0
H2440 H 0.50834 0.63073 0.41239 0.0
H2441 H 0.51706 0.60982 0.3825 0.0
H2442 H 0.47109 0.5862 0.37006 0.0
H2443 H 0.46249 0.60661 0.40019 0.0
H2444 H 0.48999 0.54619 0.37132 0.0
H2445 H 0.51561 0.62046 0.32427 0.0
H2446 H 0.52292 0.62096 0.34867 0.0
H2447 H 0.50321 0.62814 0.34437 0.0
C2448 C 0.50001 0.62224 0.40272 0.0
C2449 C 0.48469 0.62075 0.40837 0.0
C2450 C 0.50501 0.6101 0.38567 0.0
C2451 C 0.49474 0.59642 0.3739 0.0
C2452 C 0.47924 0.59663 0.37883 0.0
H2453 H 0.51797 0.51785 0.26586 0.0
H2454 H 0.50724 0.54582 0.29073 0.0
C2455 C 0.47428 0.60861 0.3959 0.0
C2456 C 0.50035 0.57921 0.35811 0.0
H2457 H 0.52185 0.57713 0.31668 0.0
C2458 C 0.49685 0.55304 0.35929 0.0
C2459 C 0.50927 0.58802 0.34234 0.0
C2460 C 0.51286 0.61597 0.33968 0.0
C2461 C 0.50217 0.53549 0.34538 0.0
C2462 C 0.51153 0.54415 0.32998 0.0
C2463 C 0.51482 0.57038 0.32858 0.0
C2464 C 0.51781 0.5264 0.315 0.0
C2465 C 0.4975 0.50786 0.34716 0.0
C2466 C 0.52735 0.50599 0.32028 0.0
C2467 C 0.53346 0.48975 0.30605 0.0
C2468 C 0.53028 0.4937 0.28618 0.0
C2469 C 0.52065 0.51408 0.28099 0.0
C2470 C 0.51453 0.53024 0.29521 0.0
H2471 H 0.48716 0.50562 0.35629 0.0
H2472 H 0.49526 0.49934 0.33263 0.0
H2473 H 0.50682 0.49695 0.35417 0.0
H2474 H 0.5303 0.50289 0.33541 0.0
H2475 H 0.54095 0.47447 0.3106 0.0
H2476 H 0.78515 0.64271 0.41267 0.0
H2477 H 0.77615 0.66226 0.38253 0.0
H2478 H 0.73964 0.60739 0.37963 0.0
H2479 H 0.74836 0.58831 0.41038 0.0
H2480 H 0.77075 0.64966 0.34567 0.0
H2481 H 0.71616 0.67333 0.38186 0.0
H2482 H 0.73208 0.66011 0.39495 0.0
H2483 H 0.72004 0.63975 0.38051 0.0
C2484 C 0.7754 0.63442 0.40536 0.0
C2485 C 0.76737 0.61413 0.414 0.0
C2486 C 0.77023 0.64567 0.38813 0.0
C2487 C 0.75692 0.63688 0.37906 0.0
C2488 C 0.74968 0.61505 0.38665 0.0
H2489 H 0.72592 0.70115 0.26785 0.0
H2490 H 0.73662 0.67384 0.29313 0.0
C2491 C 0.75482 0.60383 0.40405 0.0
C2492 C 0.75023 0.65184 0.36261 0.0
H2493 H 0.71881 0.686 0.34912 0.0
C2494 C 0.75936 0.65748 0.34638 0.0
C2495 C 0.73548 0.66263 0.36369 0.0
C2496 C 0.7254 0.65891 0.38125 0.0
C2497 C 0.75421 0.67354 0.33132 0.0
C2498 C 0.73932 0.6838 0.33216 0.0
C2499 C 0.73018 0.67808 0.34835 0.0
C2500 C 0.73303 0.70075 0.3166 0.0
C2501 C 0.76503 0.68007 0.31501 0.0
C2502 C 0.72701 0.72486 0.32129 0.0
C2503 C 0.72063 0.74046 0.30683 0.0
C2504 C 0.72016 0.73234 0.28731 0.0
C2505 C 0.72626 0.70824 0.28265 0.0
C2506 C 0.73248 0.69258 0.29713 0.0
H2507 H 0.77706 0.67738 0.31948 0.0
H2508 H 0.76282 0.66725 0.30247 0.0
H2509 H 0.76353 0.70011 0.31011 0.0
H2510 H 0.72721 0.73161 0.3362 0.0
H2511 H 0.71598 0.75881 0.31098 0.0
H2512 H 0.52732 0.37836 0.14806 0.0
H2513 H 0.51753 0.36043 0.11731 0.0
H2514 H 0.48247 0.32084 0.14919 0.0
H2515 H 0.49204 0.33896 0.17957 0.0
H2516 H 0.51675 0.30982 0.10855 0.0
H2517 H 0.45827 0.34753 0.10393 0.0
H2518 H 0.47236 0.36108 0.12004 0.0
H2519 H 0.46181 0.3331 0.12717 0.0
C2520 C 0.51719 0.36659 0.1483 0.0
C2521 C 0.51029 0.36031 0.1661 0.0
C2522 C 0.51168 0.35615 0.1308 0.0
C2523 C 0.49912 0.33947 0.13083 0.0
C2524 C 0.4919 0.33411 0.1486 0.0
H2525 H 0.4568 0.2251 0.05869 0.0
H2526 H 0.46627 0.25297 0.08466 0.0
C2527 C 0.4974 0.34445 0.166 0.0
C2528 C 0.49439 0.32553 0.11284 0.0
H2529 H 0.46327 0.30912 0.08566 0.0
C2530 C 0.50511 0.31003 0.10334 0.0
C2531 C 0.47919 0.32566 0.10601 0.0
C2532 C 0.46729 0.34295 0.11471 0.0
C2533 C 0.50091 0.29391 0.08782 0.0
C2534 C 0.48561 0.29336 0.08152 0.0
C2535 C 0.47497 0.30935 0.09063 0.0
C2536 C 0.48034 0.27599 0.06572 0.0
C2537 C 0.51275 0.27684 0.07874 0.0
C2538 C 0.48511 0.27961 0.04642 0.0
C2539 C 0.47969 0.26375 0.0315 0.0
C2540 C 0.46939 0.24385 0.03558 0.0
C2541 C 0.46479 0.24008 0.055 0.0
C2542 C 0.47014 0.25608 0.06988 0.0
H2543 H 0.52337 0.2762 0.08747 0.0
H2544 H 0.50829 0.25711 0.07709 0.0
H2545 H 0.51558 0.28411 0.064 0.0
H2546 H 0.49284 0.29501 0.04283 0.0
H2547 H 0.48343 0.26731 0.01673 0.0
H2548 H 0.26202 0.34941 0.16723 0.0
H2549 H 0.26958 0.37071 0.13693 0.0
H2550 H 0.2234 0.39585 0.12833 0.0
H2551 H 0.21598 0.37512 0.15892 0.0
H2552 H 0.26193 0.37161 0.09806 0.0
H2553 H 0.24616 0.46293 0.13362 0.0
H2554 H 0.24673 0.43306 0.14665 0.0
H2555 H 0.23069 0.44076 0.1315 0.0
C2556 C 0.25338 0.35852 0.15839 0.0
C2557 C 0.23838 0.36029 0.16521 0.0
C2558 C 0.25773 0.37096 0.14119 0.0
C2559 C 0.24715 0.3855 0.13058 0.0
C2560 C 0.23185 0.38527 0.13647 0.0
H2561 H 0.26776 0.46128 0.0198 0.0
H2562 H 0.25736 0.43377 0.04524 0.0
C2563 C 0.22754 0.37301 0.15375 0.0
C2564 C 0.25242 0.40263 0.11456 0.0
H2565 H 0.25445 0.46541 0.10097 0.0
C2566 C 0.26024 0.39211 0.09865 0.0
C2567 C 0.25056 0.4295 0.11552 0.0
C2568 C 0.24322 0.44232 0.13281 0.0
C2569 C 0.26609 0.4076 0.08364 0.0
C2570 C 0.26379 0.43439 0.0843 0.0
C2571 C 0.25609 0.44491 0.1003 0.0
C2572 C 0.2696 0.45192 0.06883 0.0
C2573 C 0.27507 0.39515 0.06753 0.0
C2574 C 0.27943 0.47217 0.07362 0.0
C2575 C 0.28525 0.48827 0.05909 0.0
C2576 C 0.28134 0.48449 0.03941 0.0
C2577 C 0.27113 0.46468 0.03476 0.0
C2578 C 0.26526 0.44872 0.0493 0.0
H2579 H 0.27945 0.37613 0.07196 0.0
H2580 H 0.26758 0.39234 0.05469 0.0
H2581 H 0.28482 0.40725 0.06306 0.0
H2582 H 0.28287 0.47521 0.08859 0.0
H2583 H 0.29309 0.50327 0.06324 0.0
H2584 H 0.47569 0.45011 0.76798 0.0
H2585 H 0.48604 0.42296 0.74241 0.0
H2586 H 0.47536 0.48042 0.69958 0.0
H2587 H 0.46451 0.50753 0.72512 0.0
H2588 H 0.46663 0.43441 0.68734 0.0
H2589 H 0.5258 0.42682 0.7142 0.0
H2590 H 0.51209 0.41685 0.73196 0.0
H2591 H 0.51247 0.44959 0.72399 0.0
C2592 C 0.47568 0.4572 0.75317 0.0
C2593 C 0.46931 0.48117 0.74868 0.0
C2594 C 0.48171 0.44162 0.73852 0.0
C2595 C 0.48178 0.44972 0.71903 0.0
C2596 C 0.47554 0.47373 0.7145 0.0
H2597 H 0.52985 0.39139 0.61972 0.0
H2598 H 0.52259 0.41083 0.65069 0.0
C2599 C 0.46937 0.48928 0.72915 0.0
C2600 C 0.48768 0.4327 0.70327 0.0
H2601 H 0.5188 0.39867 0.6885 0.0
C2602 C 0.47805 0.42663 0.68761 0.0
C2603 C 0.50263 0.42262 0.70347 0.0
C2604 C 0.5139 0.42949 0.7192 0.0
C2605 C 0.48291 0.41093 0.67219 0.0
C2606 C 0.49772 0.40028 0.67264 0.0
C2607 C 0.50736 0.40635 0.6883 0.0
C2608 C 0.50385 0.38499 0.65604 0.0
C2609 C 0.47228 0.40675 0.65521 0.0
C2610 C 0.49642 0.36285 0.64928 0.0
C2611 C 0.50063 0.35163 0.6315 0.0
C2612 C 0.51243 0.3622 0.62035 0.0
C2613 C 0.5208 0.38271 0.62812 0.0
C2614 C 0.51657 0.39396 0.64577 0.0
H2615 H 0.46294 0.42101 0.65494 0.0
H2616 H 0.4785 0.40784 0.64117 0.0
H2617 H 0.46708 0.38752 0.65639 0.0
H2618 H 0.48682 0.35512 0.65719 0.0
H2619 H 0.49387 0.33606 0.62575 0.0
H2620 H 0.28447 0.21884 0.72127 0.0
H2621 H 0.27358 0.24602 0.69581 0.0
H2622 H 0.2591 0.30004 0.73937 0.0
H2623 H 0.26953 0.27275 0.76488 0.0
H2624 H 0.23744 0.29391 0.71271 0.0
H2625 H 0.29211 0.31068 0.67503 0.0
H2626 H 0.28754 0.27739 0.67676 0.0
H2627 H 0.29104 0.29555 0.69858 0.0
C2628 C 0.27889 0.23643 0.72545 0.0
C2629 C 0.27796 0.24358 0.74517 0.0
C2630 C 0.27278 0.2521 0.71084 0.0
C2631 C 0.2658 0.27546 0.71557 0.0
C2632 C 0.26449 0.28225 0.73528 0.0
H2633 H 0.24979 0.38777 0.62284 0.0
H2634 H 0.25721 0.36957 0.65445 0.0
C2635 C 0.27048 0.26654 0.74989 0.0
C2636 C 0.25983 0.2928 0.70007 0.0
H2637 H 0.26973 0.3237 0.6581 0.0
C2638 C 0.24454 0.30056 0.70085 0.0
C2639 C 0.26913 0.30211 0.6848 0.0
C2640 C 0.2859 0.29624 0.68382 0.0
C2641 C 0.23821 0.31651 0.68647 0.0
C2642 C 0.24728 0.32453 0.67057 0.0
C2643 C 0.26269 0.31751 0.67017 0.0
C2644 C 0.24089 0.33861 0.65349 0.0
C2645 C 0.22186 0.32471 0.68858 0.0
C2646 C 0.22887 0.32796 0.64273 0.0
C2647 C 0.22451 0.33855 0.6249 0.0
C2648 C 0.23217 0.35989 0.61724 0.0
C2649 C 0.24351 0.37162 0.62854 0.0
C2650 C 0.24787 0.36101 0.64649 0.0
H2651 H 0.21838 0.32509 0.70413 0.0
H2652 H 0.21992 0.34391 0.68219 0.0
H2653 H 0.21443 0.31078 0.68096 0.0
H2654 H 0.2235 0.31042 0.64746 0.0
H2655 H 0.21587 0.32891 0.61636 0.0
H2656 H 0.08992 0.41688 0.8173 0.0
H2657 H 0.09446 0.39971 0.84998 0.0
H2658 H 0.05207 0.35851 0.84705 0.0
H2659 H 0.0476 0.37508 0.81436 0.0
H2660 H 0.07746 0.40729 0.88219 0.0
H2661 H 0.08029 0.30377 0.86699 0.0
H2662 H 0.08152 0.32748 0.84797 0.0
H2663 H 0.06329 0.3178 0.85733 0.0
C2664 C 0.08169 0.40381 0.82348 0.0
C2665 C 0.06842 0.39731 0.81317 0.0
C2666 C 0.08429 0.39407 0.84219 0.0
C2667 C 0.07372 0.37752 0.85091 0.0
C2668 C 0.06058 0.37072 0.8405 0.0
H2669 H 0.05174 0.35242 0.97064 0.0
H2670 H 0.05519 0.3683 0.93756 0.0
C2671 C 0.058 0.38037 0.8218 0.0
C2672 C 0.0758 0.36878 0.87136 0.0
H2673 H 0.07525 0.31566 0.9002 0.0
C2674 C 0.07719 0.38723 0.8861 0.0
C2675 C 0.0757 0.34261 0.8765 0.0
C2676 C 0.07528 0.32178 0.86133 0.0
C2677 C 0.07777 0.38028 0.90586 0.0
C2678 C 0.07661 0.3542 0.91106 0.0
C2679 C 0.07595 0.33569 0.89627 0.0
C2680 C 0.07527 0.34575 0.93167 0.0
C2681 C 0.07957 0.401 0.92095 0.0
C2682 C 0.08528 0.32747 0.93939 0.0
C2683 C 0.08325 0.31812 0.95833 0.0
C2684 C 0.0711 0.32678 0.96988 0.0
C2685 C 0.06128 0.34544 0.96223 0.0
C2686 C 0.06329 0.35469 0.94331 0.0
H2687 H 0.08528 0.41809 0.91476 0.0
H2688 H 0.06817 0.40697 0.92611 0.0
H2689 H 0.08623 0.39421 0.93368 0.0
H2690 H 0.09455 0.32017 0.93064 0.0
H2691 H 0.09099 0.3037 0.96373 0.0
H2692 H 0.16015 0.80305 0.82013 0.0
H2693 H 0.15606 0.81988 0.85302 0.0
H2694 H 0.19751 0.86348 0.84862 0.0
H2695 H 0.20153 0.84721 0.81574 0.0
H2696 H 0.17401 0.81367 0.88486 0.0
H2697 H 0.16839 0.91674 0.86903 0.0
H2698 H 0.16725 0.89269 0.85025 0.0
H2699 H 0.18546 0.90358 0.85891 0.0
C2700 C 0.16828 0.81653 0.82605 0.0
C2701 C 0.18114 0.82384 0.81524 0.0
C2702 C 0.16594 0.82609 0.84488 0.0
C2703 C 0.17636 0.84325 0.85323 0.0
C2704 C 0.18911 0.85077 0.84236 0.0
H2705 H 0.19943 0.87184 0.97249 0.0
H2706 H 0.19608 0.85531 0.93957 0.0
C2707 C 0.19144 0.84129 0.82356 0.0
C2708 C 0.17449 0.8521 0.8737 0.0
H2709 H 0.17409 0.9056 0.90218 0.0
C2710 C 0.17384 0.83378 0.88862 0.0
C2711 C 0.17401 0.87832 0.87867 0.0
C2712 C 0.17365 0.89896 0.86335 0.0
C2713 C 0.1734 0.84095 0.90835 0.0
C2714 C 0.17392 0.86717 0.91334 0.0
C2715 C 0.17388 0.88549 0.89841 0.0
C2716 C 0.17526 0.876 0.93389 0.0
C2717 C 0.17242 0.82033 0.92363 0.0
C2718 C 0.16479 0.89345 0.94169 0.0
C2719 C 0.16674 0.90315 0.96056 0.0
C2720 C 0.17927 0.89571 0.97196 0.0
C2721 C 0.18958 0.87788 0.96421 0.0
C2722 C 0.18764 0.86826 0.94538 0.0
H2723 H 0.16717 0.80267 0.91768 0.0
H2724 H 0.18404 0.81544 0.92866 0.0
H2725 H 0.1657 0.82673 0.93641 0.0
H2726 H 0.1552 0.89983 0.93308 0.0
H2727 H 0.15862 0.91693 0.96602 0.0
H2728 H 0.05848 0.86071 0.47602 0.0
H2729 H 0.06056 0.87632 0.44257 0.0
H2730 H 0.0872 0.81026 0.42722 0.0
H2731 H 0.08551 0.79484 0.4608 0.0
H2732 H 0.09809 0.85331 0.40986 0.0
H2733 H 0.03587 0.84638 0.39847 0.0
H2734 H 0.04088 0.86668 0.41851 0.0
H2735 H 0.04517 0.83311 0.41957 0.0
C2736 C 0.06492 0.84961 0.46559 0.0
C2737 C 0.07172 0.8264 0.47106 0.0
C2738 C 0.066 0.85848 0.44641 0.0
C2739 C 0.0737 0.84414 0.43223 0.0
C2740 C 0.08109 0.82156 0.43786 0.0
H2741 H 0.0573 0.86372 0.30807 0.0
H2742 H 0.06008 0.84661 0.34101 0.0
C2743 C 0.08013 0.81278 0.45709 0.0
C2744 C 0.07366 0.8523 0.41145 0.0
H2745 H 0.05 0.86715 0.37365 0.0
C2746 C 0.08758 0.85625 0.40191 0.0
C2747 C 0.05995 0.85564 0.40092 0.0
C2748 C 0.04463 0.84998 0.40981 0.0
C2749 C 0.08816 0.86398 0.38229 0.0
C2750 C 0.07443 0.86841 0.37203 0.0
C2751 C 0.06053 0.86399 0.3815 0.0
C2752 C 0.07408 0.8777 0.35152 0.0
C2753 C 0.10347 0.86682 0.37267 0.0
C2754 C 0.08116 0.90077 0.3463 0.0
C2755 C 0.07973 0.91046 0.32738 0.0
C2756 C 0.07097 0.8975 0.31335 0.0
C2757 C 0.06413 0.87419 0.3185 0.0
C2758 C 0.06568 0.8644 0.33736 0.0
H2759 H 0.11228 0.85527 0.3802 0.0
H2760 H 0.10304 0.86096 0.35714 0.0
H2761 H 0.10705 0.88712 0.37336 0.0
H2762 H 0.08738 0.91176 0.35703 0.0
H2763 H 0.08503 0.92858 0.32397 0.0
H2764 H 0.19843 0.37148 0.47207 0.0
H2765 H 0.19514 0.35624 0.43875 0.0
H2766 H 0.1533 0.39859 0.43398 0.0
H2767 H 0.15668 0.41448 0.46727 0.0
H2768 H 0.17304 0.32886 0.42025 0.0
H2769 H 0.17765 0.426 0.38826 0.0
H2770 H 0.1821 0.41948 0.41342 0.0
H2771 H 0.16263 0.42219 0.40572 0.0
C2772 C 0.18844 0.37743 0.46403 0.0
C2773 C 0.17789 0.39443 0.4723 0.0
C2774 C 0.18658 0.36867 0.44496 0.0
C2775 C 0.17414 0.37667 0.43371 0.0
C2776 C 0.16318 0.39264 0.44222 0.0
H2777 H 0.1582 0.30662 0.31871 0.0
H2778 H 0.15427 0.32205 0.35201 0.0
C2779 C 0.16507 0.40155 0.46131 0.0
C2780 C 0.17304 0.36881 0.41294 0.0
H2781 H 0.1735 0.39199 0.36642 0.0
C2782 C 0.17302 0.34265 0.40847 0.0
C2783 C 0.17323 0.38684 0.39758 0.0
C2784 C 0.17404 0.41519 0.40139 0.0
C2785 C 0.17342 0.33401 0.38909 0.0
C2786 C 0.17351 0.35205 0.37373 0.0
C2787 C 0.17328 0.3782 0.3782 0.0
C2788 C 0.17503 0.34422 0.353 0.0
C2789 C 0.17441 0.30567 0.38531 0.0
C2790 C 0.18764 0.35244 0.34217 0.0
C2791 C 0.18981 0.34393 0.32308 0.0
C2792 C 0.17942 0.32698 0.3144 0.0
C2793 C 0.16648 0.31953 0.325 0.0
C2794 C 0.16427 0.32818 0.3441 0.0
H2795 H 0.1778 0.29492 0.39856 0.0
H2796 H 0.16312 0.29852 0.38059 0.0
H2797 H 0.18272 0.30151 0.37357 0.0
H2798 H 0.19606 0.36492 0.34868 0.0
H2799 H 0.19989 0.35012 0.31535 0.0
H2800 H 0.91553 0.55036 0.20759 0.0
H2801 H 0.91438 0.56571 0.17394 0.0
H2802 H 0.94158 0.63105 0.18971 0.0
H2803 H 0.94312 0.61552 0.22322 0.0
H2804 H 0.90403 0.60901 0.15651 0.0
H2805 H 0.96623 0.60079 0.14582 0.0
H2806 H 0.9567 0.58767 0.1668 0.0
H2807 H 0.9613 0.62114 0.16585 0.0
C2808 C 0.92117 0.56811 0.20395 0.0
C2809 C 0.92956 0.58157 0.21808 0.0
C2810 C 0.92051 0.57685 0.18468 0.0
C2811 C 0.92819 0.59923 0.17916 0.0
C2812 C 0.93592 0.61336 0.19347 0.0
H2813 H 0.91787 0.68415 0.07081 0.0
H2814 H 0.9155 0.66755 0.10394 0.0
C2815 C 0.93669 0.60454 0.21268 0.0
C2816 C 0.92843 0.60746 0.15839 0.0
H2817 H 0.95243 0.62209 0.12092 0.0
C2818 C 0.91461 0.61178 0.14869 0.0
C2819 C 0.94223 0.6106 0.14803 0.0
C2820 C 0.95745 0.60456 0.15708 0.0
C2821 C 0.9142 0.61967 0.1291 0.0
C2822 C 0.92802 0.6239 0.11902 0.0
C2823 C 0.94183 0.6191 0.12864 0.0
C2824 C 0.92855 0.63326 0.09852 0.0
C2825 C 0.89897 0.62288 0.11932 0.0
C2826 C 0.93688 0.6198 0.08441 0.0
C2827 C 0.93845 0.62946 0.06551 0.0
C2828 C 0.9317 0.6528 0.06027 0.0
C2829 C 0.92309 0.66599 0.07428 0.0
C2830 C 0.92164 0.65643 0.09325 0.0
H2831 H 0.89001 0.61149 0.12672 0.0
H2832 H 0.89556 0.64325 0.12002 0.0
H2833 H 0.89943 0.61707 0.10378 0.0
H2834 H 0.94236 0.60193 0.0881 0.0
H2835 H 0.94516 0.6188 0.0551 0.0
H2836 H 0.80617 0.11494 0.05801 0.0
H2837 H 0.80815 0.13201 0.09105 0.0
H2838 H 0.83535 0.06723 0.10798 0.0
H2839 H 0.83382 0.05046 0.0748 0.0
H2840 H 0.79758 0.11197 0.12347 0.0
H2841 H 0.85975 0.12377 0.13183 0.0
H2842 H 0.85094 0.11781 0.10853 0.0
H2843 H 0.85457 0.09185 0.12508 0.0
C2844 C 0.8128 0.10452 0.06867 0.0
C2845 C 0.81989 0.08136 0.0637 0.0
C2846 C 0.81389 0.11429 0.08761 0.0
C2847 C 0.82205 0.10113 0.10206 0.0
C2848 C 0.82932 0.07815 0.09705 0.0
H2849 H 0.8043 0.12068 0.22617 0.0
H2850 H 0.80653 0.10463 0.19287 0.0
C2851 C 0.82836 0.06849 0.07805 0.0
C2852 C 0.82203 0.11058 0.12258 0.0
H2853 H 0.84502 0.12633 0.16098 0.0
C2854 C 0.80798 0.11523 0.1316 0.0
C2855 C 0.83557 0.11517 0.13322 0.0
C2856 C 0.85106 0.11215 0.12411 0.0
C2857 C 0.80706 0.12398 0.15092 0.0
C2858 C 0.82057 0.12752 0.16184 0.0
C2859 C 0.83465 0.12328 0.15275 0.0
C2860 C 0.82028 0.13614 0.18255 0.0
C2861 C 0.79158 0.12991 0.15924 0.0
C2862 C 0.8279 0.15853 0.18821 0.0
C2863 C 0.82686 0.16755 0.20739 0.0
C2864 C 0.81812 0.15439 0.22131 0.0
C2865 C 0.81098 0.13145 0.21579 0.0
C2866 C 0.81216 0.12233 0.19668 0.0
H2867 H 0.78308 0.13346 0.14758 0.0
H2868 H 0.78757 0.11335 0.16791 0.0
H2869 H 0.79199 0.14689 0.1689 0.0
H2870 H 0.83433 0.16945 0.17764 0.0
H2871 H 0.83251 0.18527 0.21112 0.0
H2872 H 0.94258 0.11615 0.55858 0.0
H2873 H 0.93999 0.09993 0.5918 0.0
H2874 H 0.91558 0.16803 0.60809 0.0
H2875 H 0.91772 0.18401 0.57476 0.0
H2876 H 0.95142 0.11962 0.62407 0.0
H2877 H 0.88891 0.11455 0.6322 0.0
H2878 H 0.89797 0.11903 0.60889 0.0
H2879 H 0.8953 0.1457 0.62507 0.0
C2880 C 0.93644 0.12751 0.56915 0.0
C2881 C 0.93031 0.15135 0.56397 0.0
C2882 C 0.93499 0.11822 0.58817 0.0
C2883 C 0.92742 0.13257 0.60247 0.0
C2884 C 0.92113 0.15626 0.59727 0.0
H2885 H 0.94437 0.11315 0.7267 0.0
H2886 H 0.94247 0.12935 0.69339 0.0
C2887 C 0.92244 0.16545 0.57819 0.0
C2888 C 0.92707 0.12351 0.62304 0.0
H2889 H 0.9035 0.11097 0.66145 0.0
C2890 C 0.94092 0.11761 0.63218 0.0
C2891 C 0.91337 0.12058 0.63364 0.0
C2892 C 0.89804 0.12504 0.62439 0.0
C2893 C 0.94149 0.10918 0.65159 0.0
C2894 C 0.92785 0.10729 0.66245 0.0
C2895 C 0.91397 0.1128 0.65325 0.0
C2896 C 0.9278 0.09895 0.68318 0.0
C2897 C 0.9567 0.10183 0.66009 0.0
C2898 C 0.91952 0.07726 0.68887 0.0
C2899 C 0.92039 0.06818 0.70803 0.0
C2900 C 0.92959 0.0806 0.72188 0.0
C2901 C 0.93731 0.10297 0.71636 0.0
C2902 C 0.93633 0.11216 0.69726 0.0
H2903 H 0.96511 0.09735 0.64853 0.0
H2904 H 0.96123 0.11804 0.66873 0.0
H2905 H 0.95565 0.085 0.66982 0.0
H2906 H 0.91277 0.06684 0.67832 0.0
H2907 H 0.91427 0.05091 0.71177 0.0
H2908 H 0.83947 0.67122 0.71482 0.0
H2909 H 0.8431 0.65475 0.68174 0.0
H2910 H 0.80121 0.61238 0.68633 0.0
H2911 H 0.79768 0.62822 0.71943 0.0
H2912 H 0.82351 0.58446 0.66887 0.0
H2913 H 0.8195 0.6804 0.63479 0.0
H2914 H 0.83426 0.67728 0.6527 0.0
H2915 H 0.81469 0.67477 0.65995 0.0
C2916 C 0.8311 0.65821 0.70885 0.0
C2917 C 0.81822 0.6512 0.71975 0.0
C2918 C 0.83313 0.64897 0.68987 0.0
C2919 C 0.82227 0.63273 0.68137 0.0
C2920 C 0.80971 0.62498 0.69251 0.0
H2921 H 0.79928 0.60206 0.56228 0.0
H2922 H 0.80217 0.61787 0.59551 0.0
C2923 C 0.8077 0.6341 0.71147 0.0
C2924 C 0.82366 0.62414 0.66077 0.0
H2925 H 0.82418 0.64567 0.61377 0.0
C2926 C 0.82376 0.59783 0.65682 0.0
C2927 C 0.82379 0.64162 0.64503 0.0
C2928 C 0.82292 0.67009 0.64823 0.0
C2929 C 0.82378 0.58851 0.63761 0.0
C2930 C 0.82403 0.60598 0.62187 0.0
C2931 C 0.82414 0.63229 0.62583 0.0
C2932 C 0.82305 0.5974 0.60124 0.0
C2933 C 0.82289 0.56004 0.63438 0.0
C2934 C 0.83404 0.58111 0.59314 0.0
C2935 C 0.83238 0.57189 0.57409 0.0
C2936 C 0.81976 0.57898 0.56271 0.0
C2937 C 0.80912 0.59612 0.57061 0.0
C2938 C 0.81076 0.60522 0.58964 0.0
H2939 H 0.81916 0.54975 0.6477 0.0
H2940 H 0.81489 0.55541 0.62236 0.0
H2941 H 0.8343 0.55278 0.63033 0.0
H2942 H 0.84381 0.57527 0.60163 0.0
H2943 H 0.84083 0.55884 0.56843 0.0
H2944 H 0.58949 0.30636 0.46408 0.0
H2945 H 0.59363 0.32282 0.4311 0.0
H2946 H 0.55301 0.36838 0.43588 0.0
H2947 H 0.54897 0.3525 0.46885 0.0
H2948 H 0.57545 0.31715 0.3996 0.0
H2949 H 0.58273 0.4201 0.41474 0.0
H2950 H 0.5836 0.39623 0.43367 0.0
H2951 H 0.56552 0.40784 0.42514 0.0
C2952 C 0.58157 0.3202 0.45822 0.0
C2953 C 0.56892 0.32817 0.46917 0.0
C2954 C 0.58394 0.32954 0.43934 0.0
C2955 C 0.57376 0.34714 0.43107 0.0
C2956 C 0.56124 0.35532 0.44207 0.0
H2957 H 0.54987 0.37499 0.31207 0.0
H2958 H 0.55343 0.35863 0.345 0.0
C2959 C 0.55889 0.34607 0.46093 0.0
C2960 C 0.5756 0.35571 0.41053 0.0
H2961 H 0.57638 0.4089 0.38176 0.0
C2962 C 0.57586 0.33722 0.39572 0.0
C2963 C 0.57639 0.38186 0.40541 0.0
C2964 C 0.57721 0.40263 0.4206 0.0
C2965 C 0.57619 0.34417 0.37595 0.0
C2966 C 0.57593 0.37035 0.37082 0.0
C2967 C 0.57638 0.38882 0.38564 0.0
C2968 C 0.57444 0.37903 0.35026 0.0
C2969 C 0.57678 0.32337 0.36078 0.0
C2970 C 0.58495 0.39629 0.34223 0.0
C2971 C 0.58286 0.40592 0.32337 0.0
C2972 C 0.57017 0.39858 0.31221 0.0
C2973 C 0.55983 0.38094 0.32017 0.0
C2974 C 0.5619 0.37141 0.33901 0.0
H2975 H 0.58196 0.30567 0.36672 0.0
H2976 H 0.56504 0.31865 0.35607 0.0
H2977 H 0.58337 0.32947 0.3478 0.0
H2978 H 0.59467 0.40258 0.35066 0.0
H2979 H 0.59101 0.41954 0.31773 0.0
H2980 H 0.70125 0.87806 0.47176 0.0
H2981 H 0.69802 0.86174 0.43873 0.0
H2982 H 0.65649 0.90471 0.43277 0.0
H2983 H 0.65983 0.92167 0.46576 0.0
H2984 H 0.67577 0.83399 0.42093 0.0
H2985 H 0.68098 0.92949 0.38635 0.0
H2986 H 0.68537 0.92406 0.41168 0.0
H2987 H 0.66593 0.92681 0.40388 0.0
C2988 C 0.69136 0.88396 0.46351 0.0
C2989 C 0.68087 0.90139 0.47137 0.0
C2990 C 0.68953 0.87457 0.4446 0.0
C2991 C 0.67717 0.88237 0.43311 0.0
C2992 C 0.66631 0.89889 0.44119 0.0
H2993 H 0.66002 0.80759 0.32016 0.0
H2994 H 0.65657 0.82435 0.35318 0.0
C2995 C 0.66817 0.90842 0.46011 0.0
C2996 C 0.67602 0.87358 0.41256 0.0
H2997 H 0.6764 0.8946 0.36544 0.0
C2998 C 0.6758 0.84723 0.40879 0.0
C2999 C 0.67626 0.89089 0.39672 0.0
C3000 C 0.67728 0.91938 0.39977 0.0
C3001 C 0.67604 0.8377 0.38965 0.0
C3002 C 0.67616 0.85501 0.37381 0.0
C3003 C 0.67616 0.88136 0.37758 0.0
C3004 C 0.67746 0.84621 0.35328 0.0
C3005 C 0.67681 0.80919 0.38662 0.0
C3006 C 0.68999 0.85379 0.34204 0.0
C3007 C 0.69189 0.84452 0.32311 0.0
C3008 C 0.6813 0.82744 0.31499 0.0
C3009 C 0.66846 0.82057 0.32601 0.0
C3010 C 0.66652 0.82998 0.34495 0.0
H3011 H 0.68025 0.79899 0.40011 0.0
H3012 H 0.66543 0.80204 0.38228 0.0
H3013 H 0.68497 0.80431 0.37488 0.0
H3014 H 0.69855 0.86639 0.3481 0.0
H3015 H 0.7019 0.85028 0.31504 0.0
H3016 H 0.59092 0.80723 0.96618 0.0
H3017 H 0.59471 0.82435 0.93334 0.0
H3018 H 0.55354 0.86836 0.93882 0.0
H3019 H 0.54985 0.85184 0.97168 0.0
H3020 H 0.57643 0.8181 0.90218 0.0
H3021 H 0.58228 0.92129 0.91738 0.0
H3022 H 0.58359 0.89743 0.93627 0.0
H3023 H 0.56531 0.90833 0.9279 0.0
C3024 C 0.58282 0.8209 0.96052 0.0
C3025 C 0.5701 0.8282 0.9716 0.0
C3026 C 0.58498 0.83062 0.94172 0.0
C3027 C 0.57453 0.84793 0.93367 0.0
C3028 C 0.56197 0.85554 0.94485 0.0
H3029 H 0.54969 0.87497 0.81485 0.0
H3030 H 0.55345 0.859 0.84787 0.0
C3031 C 0.55982 0.84592 0.96364 0.0
C3032 C 0.57609 0.85664 0.91315 0.0
H3033 H 0.57591 0.90989 0.88443 0.0
C3034 C 0.57652 0.83818 0.89831 0.0
C3035 C 0.57645 0.88282 0.90806 0.0
C3036 C 0.57705 0.90359 0.92326 0.0
C3037 C 0.57663 0.84518 0.87856 0.0
C3038 C 0.57597 0.87134 0.87347 0.0
C3039 C 0.57623 0.88981 0.8883 0.0
C3040 C 0.57429 0.87996 0.85293 0.0
C3041 C 0.57743 0.82443 0.86335 0.0
C3042 C 0.58463 0.89742 0.84481 0.0
C3043 C 0.58243 0.90681 0.82591 0.0
C3044 C 0.5698 0.89902 0.81481 0.0
C3045 C 0.55961 0.88125 0.8229 0.0
C3046 C 0.56179 0.87195 0.84178 0.0
H3047 H 0.58282 0.80688 0.86925 0.0
H3048 H 0.56573 0.81937 0.85866 0.0
H3049 H 0.58392 0.83079 0.85037 0.0
H3050 H 0.59431 0.90399 0.85317 0.0
H3051 H 0.59047 0.92053 0.82016 0.0
H3052 H 0.65901 0.41971 0.96341 0.0
H3053 H 0.6549 0.40295 0.9305 0.0
H3054 H 0.69604 0.35869 0.9352 0.0
H3055 H 0.70006 0.37486 0.96809 0.0
H3056 H 0.67294 0.40919 0.899 0.0
H3057 H 0.66686 0.30604 0.91412 0.0
H3058 H 0.66577 0.32987 0.93306 0.0
H3059 H 0.68396 0.31881 0.92451 0.0
C3060 C 0.66705 0.40607 0.95755 0.0
C3061 C 0.67985 0.39858 0.96844 0.0
C3062 C 0.6647 0.39656 0.93872 0.0
C3063 C 0.67504 0.37926 0.93044 0.0
C3064 C 0.68769 0.3715 0.9414 0.0
H3065 H 0.6993 0.35215 0.81162 0.0
H3066 H 0.69549 0.36845 0.84452 0.0
C3067 C 0.69003 0.38092 0.96021 0.0
C3068 C 0.67325 0.37063 0.90992 0.0
H3069 H 0.67311 0.31743 0.88115 0.0
C3070 C 0.67277 0.38912 0.89511 0.0
C3071 C 0.67277 0.34447 0.9048 0.0
C3072 C 0.6722 0.32367 0.91999 0.0
C3073 C 0.67253 0.38215 0.87535 0.0
C3074 C 0.6731 0.35599 0.87022 0.0
C3075 C 0.67286 0.3375 0.88503 0.0
C3076 C 0.67471 0.34737 0.84968 0.0
C3077 C 0.6717 0.40294 0.86017 0.0
C3078 C 0.66443 0.32976 0.84162 0.0
C3079 C 0.66666 0.32016 0.82279 0.0
C3080 C 0.67928 0.3279 0.81169 0.0
C3081 C 0.6894 0.3459 0.81968 0.0
C3082 C 0.68718 0.35539 0.83849 0.0
H3083 H 0.66629 0.42045 0.8661 0.0
H3084 H 0.68338 0.40805 0.85551 0.0
H3085 H 0.66519 0.39661 0.84717 0.0
H3086 H 0.65477 0.32316 0.85001 0.0
H3087 H 0.65868 0.30626 0.81712 0.0
H3088 H 0.44252 0.61117 0.72672 0.0
H3089 H 0.44036 0.62762 0.69351 0.0
H3090 H 0.41509 0.56051 0.67674 0.0
H3091 H 0.41681 0.54431 0.71006 0.0
H3092 H 0.45166 0.60767 0.66125 0.0
H3093 H 0.38927 0.61516 0.6526 0.0
H3094 H 0.39818 0.61024 0.67598 0.0
H3095 H 0.39519 0.58375 0.65971 0.0
C3096 C 0.43629 0.60008 0.71604 0.0
C3097 C 0.42979 0.57645 0.72109 0.0
C3098 C 0.43509 0.6095 0.69703 0.0
C3099 C 0.4274 0.5955 0.6826 0.0
C3100 C 0.42074 0.57202 0.68766 0.0
H3101 H 0.44489 0.61427 0.55852 0.0
H3102 H 0.44274 0.59837 0.59188 0.0
C3103 C 0.42182 0.5627 0.70674 0.0
C3104 C 0.42725 0.6047 0.66205 0.0
H3105 H 0.40401 0.61836 0.62349 0.0
C3106 C 0.44122 0.61013 0.65305 0.0
C3107 C 0.41364 0.60823 0.65135 0.0
C3108 C 0.39822 0.6043 0.66046 0.0
C3109 C 0.44198 0.61861 0.63367 0.0
C3110 C 0.42842 0.62109 0.6227 0.0
C3111 C 0.41442 0.61609 0.63178 0.0
C3112 C 0.42857 0.62943 0.60196 0.0
C3113 C 0.45732 0.62539 0.6253 0.0
C3114 C 0.42067 0.65146 0.59619 0.0
C3115 C 0.42168 0.6604 0.57701 0.0
C3116 C 0.43064 0.64749 0.56321 0.0
C3117 C 0.43801 0.62483 0.56882 0.0
C3118 C 0.43688 0.6158 0.58795 0.0
H3119 H 0.46576 0.6295 0.63694 0.0
H3120 H 0.46164 0.60903 0.61666 0.0
H3121 H 0.45656 0.64228 0.61558 0.0
H3122 H 0.41408 0.66221 0.60669 0.0
H3123 H 0.41584 0.6779 0.57319 0.0
H3124 H 0.33877 0.17017 0.71341 0.0
H3125 H 0.34239 0.15363 0.68036 0.0
H3126 H 0.30044 0.11145 0.68495 0.0
H3127 H 0.29692 0.12733 0.71804 0.0
H3128 H 0.3226 0.08334 0.66775 0.0
H3129 H 0.31913 0.17903 0.63318 0.0
H3130 H 0.33386 0.17592 0.65113 0.0
H3131 H 0.31427 0.1737 0.65837 0.0
C3132 C 0.33037 0.15721 0.70744 0.0
C3133 C 0.3175 0.15022 0.71835 0.0
C3134 C 0.33241 0.14793 0.68848 0.0
C3135 C 0.32153 0.13171 0.67999 0.0
C3136 C 0.30895 0.12404 0.69112 0.0
H3137 H 0.29888 0.10038 0.56096 0.0
H3138 H 0.30182 0.11666 0.59405 0.0
C3139 C 0.30695 0.13317 0.71007 0.0
C3140 C 0.32297 0.12296 0.65946 0.0
H3141 H 0.32382 0.14409 0.61237 0.0
C3142 C 0.32296 0.09662 0.65563 0.0
C3143 C 0.32325 0.1403 0.64364 0.0
C3144 C 0.32249 0.16881 0.64669 0.0
C3145 C 0.32301 0.08713 0.63648 0.0
C3146 C 0.32344 0.10447 0.62066 0.0
C3147 C 0.32366 0.13081 0.62449 0.0
C3148 C 0.32249 0.09573 0.60007 0.0
C3149 C 0.32196 0.05865 0.63339 0.0
C3150 C 0.33336 0.07906 0.59218 0.0
C3151 C 0.33167 0.06955 0.57322 0.0
C3152 C 0.31913 0.07675 0.56173 0.0
C3153 C 0.30865 0.09434 0.56939 0.0
C3154 C 0.31031 0.10371 0.58834 0.0
H3155 H 0.31807 0.04856 0.64672 0.0
H3156 H 0.31402 0.05404 0.62131 0.0
H3157 H 0.33335 0.05114 0.62952 0.0
H3158 H 0.34306 0.07311 0.60078 0.0
H3159 H 0.34001 0.05618 0.56773 0.0
H3160 H 0.44226 0.11469 0.05419 0.0
H3161 H 0.43935 0.09796 0.08721 0.0
H3162 H 0.41235 0.16357 0.10272 0.0
H3163 H 0.41486 0.18007 0.06957 0.0
H3164 H 0.44942 0.11897 0.11995 0.0
H3165 H 0.38705 0.10716 0.1257 0.0
H3166 H 0.39648 0.11251 0.10273 0.0
H3167 H 0.39245 0.13889 0.11871 0.0
C3168 C 0.43548 0.12537 0.06453 0.0
C3169 C 0.42876 0.1487 0.0592 0.0
C3170 C 0.43385 0.11579 0.08343 0.0
C3171 C 0.42548 0.12932 0.09746 0.0
C3172 C 0.41855 0.15242 0.09209 0.0
H3173 H 0.43977 0.11376 0.22225 0.0
H3174 H 0.4381 0.12878 0.18862 0.0
C3175 C 0.42007 0.16192 0.07312 0.0
C3176 C 0.425 0.12016 0.11799 0.0
H3177 H 0.40107 0.10509 0.15551 0.0
C3178 C 0.43883 0.1158 0.12767 0.0
C3179 C 0.4112 0.11573 0.12806 0.0
C3180 C 0.39595 0.11855 0.11821 0.0
C3181 C 0.43926 0.10755 0.14711 0.0
C3182 C 0.42548 0.10417 0.15744 0.0
C3183 C 0.41163 0.10804 0.14769 0.0
C3184 C 0.42529 0.0962 0.17824 0.0
C3185 C 0.45452 0.10205 0.15627 0.0
C3186 C 0.41799 0.07351 0.18387 0.0
C3187 C 0.41874 0.06503 0.2032 0.0
C3188 C 0.42683 0.07909 0.21728 0.0
C3189 C 0.43358 0.10234 0.21176 0.0
C3190 C 0.43272 0.11088 0.19248 0.0
H3191 H 0.46339 0.09852 0.14509 0.0
H3192 H 0.45814 0.11879 0.16503 0.0
H3193 H 0.45392 0.08519 0.16604 0.0
H3194 H 0.41209 0.06195 0.17317 0.0
H3195 H 0.4134 0.04706 0.20694 0.0
H3196 H 0.30473 0.61579 0.22847 0.0
H3197 H 0.30763 0.5984 0.19564 0.0
H3198 H 0.3359 0.66249 0.17996 0.0
H3199 H 0.33341 0.67958 0.21291 0.0
H3200 H 0.2983 0.61879 0.16254 0.0
H3201 H 0.36053 0.605 0.15785 0.0
H3202 H 0.35099 0.61122 0.18061 0.0
H3203 H 0.35555 0.63708 0.16435 0.0
C3204 C 0.31177 0.62598 0.21814 0.0
C3205 C 0.31887 0.64905 0.22336 0.0
C3206 C 0.3134 0.61603 0.19933 0.0
C3207 C 0.32214 0.62892 0.18531 0.0
C3208 C 0.32942 0.65179 0.19059 0.0
H3209 H 0.30859 0.61228 0.06043 0.0
H3210 H 0.31005 0.62747 0.09404 0.0
C3211 C 0.32791 0.66164 0.20945 0.0
C3212 C 0.32271 0.61938 0.16486 0.0
H3213 H 0.3468 0.60332 0.12777 0.0
C3214 C 0.30892 0.61526 0.15501 0.0
C3215 C 0.33654 0.61445 0.15502 0.0
C3216 C 0.35173 0.6169 0.16506 0.0
C3217 C 0.30857 0.6068 0.1356 0.0
C3218 C 0.3224 0.603 0.12547 0.0
C3219 C 0.3362 0.6066 0.13541 0.0
C3220 C 0.3227 0.5949 0.10468 0.0
C3221 C 0.29333 0.60155 0.12628 0.0
C3222 C 0.33001 0.57218 0.09919 0.0
C3223 C 0.3294 0.56362 0.07987 0.0
C3224 C 0.32144 0.57761 0.06565 0.0
C3225 C 0.31468 0.60089 0.07103 0.0
C3226 C 0.31541 0.60952 0.0903 0.0
H3227 H 0.28437 0.59816 0.13738 0.0
H3228 H 0.28988 0.61835 0.1175 0.0
H3229 H 0.29387 0.58468 0.11651 0.0
H3230 H 0.33581 0.56065 0.10998 0.0
H3231 H 0.33474 0.54562 0.07623 0.0
H3232 H 0.07872 0.19195 0.05063 0.0
H3233 H 0.09282 0.15169 0.0533 0.0
H3234 H 0.11922 0.17217 1.00273 0.0
H3235 H 0.10562 0.21272 1.00053 0.0
H3236 H 0.09526 0.11217 0.02996 0.0
H3237 H 0.15263 0.15337 0.03917 0.0
H3238 H 0.13566 0.17258 0.04047 0.0
H3239 H 0.14387 0.1646 0.01722 0.0
C3240 C 0.08762 0.18787 0.0402 0.0
C3241 C 0.09119 0.20552 0.02549 0.0
C3242 C 0.09566 0.16487 0.04171 0.0
C3243 C 0.10736 0.15907 0.02849 0.0
C3244 C 0.11063 0.1765 1.01351 0.0
H3245 H 0.142 0.0081 1.00175 0.0
H3246 H 0.12788 0.04825 1.00349 0.0
C3247 C 0.10275 0.1996 1.01216 0.0
C3248 C 0.11583 0.1345 0.02993 0.0
H3249 H 0.15158 0.10911 0.0304 0.0
C3250 C 0.10757 0.11153 0.03025 0.0
C3251 C 0.13191 0.13354 0.03071 0.0
C3252 C 0.14151 0.15736 0.0321 0.0
C3253 C 0.11493 0.08772 0.03071 0.0
C3254 C 0.13102 0.08675 0.03019 0.0
C3255 C 0.13926 0.10973 0.03049 0.0
C3256 C 0.13956 0.06221 0.02917 0.0
C3257 C 0.10532 0.0639 0.03209 0.0
C3258 C 0.15127 0.05696 0.04253 0.0
C3259 C 0.15959 0.03425 0.04127 0.0
C3260 C 0.15631 0.01628 0.02667 0.0
C3261 C 0.14465 0.02151 1.01328 0.0
C3262 C 0.13648 0.04437 1.01437 0.0
H3263 H 0.09415 0.06796 0.03894 0.0
H3264 H 0.10311 0.0565 0.01721 0.0
H3265 H 0.11111 0.04878 0.04066 0.0
H3266 H 0.15394 0.07043 0.05402 0.0
H3267 H 0.1685 0.03067 0.0518 0.0
H3268 H 0.07841 0.03446 0.23467 0.0
H3269 H 0.09298 0.07422 0.2319 0.0
H3270 H 0.11986 0.05237 0.28179 0.0
H3271 H 0.10574 0.01224 0.28406 0.0
H3272 H 0.09611 0.11328 0.25514 0.0
H3273 H 0.15301 0.07088 0.24506 0.0
H3274 H 0.13587 0.05202 0.24401 0.0
H3275 H 0.14441 0.05979 0.26714 0.0
C3276 C 0.08749 0.03813 0.24495 0.0
C3277 C 0.09103 0.02023 0.25949 0.0
C3278 C 0.09582 0.06084 0.24337 0.0
C3279 C 0.10779 0.06613 0.25636 0.0
C3280 C 0.11106 0.04844 0.27117 0.0
H3281 H 0.1436 0.21603 0.28335 0.0
H3282 H 0.1294 0.17598 0.28153 0.0
C3283 C 0.10289 0.02559 0.27258 0.0
C3284 C 0.11648 0.0905 0.25489 0.0
H3285 H 0.15245 0.11515 0.25396 0.0
C3286 C 0.10843 0.11364 0.25469 0.0
C3287 C 0.13257 0.09112 0.25387 0.0
C3288 C 0.14195 0.0671 0.25231 0.0
C3289 C 0.11598 0.13729 0.25415 0.0
C3290 C 0.13208 0.13792 0.25448 0.0
C3291 C 0.14013 0.11478 0.25402 0.0
C3292 C 0.1408 0.1623 0.2556 0.0
C3293 C 0.10656 0.16131 0.25291 0.0
C3294 C 0.15243 0.16762 0.24215 0.0
C3295 C 0.16081 0.19032 0.24346 0.0
C3296 C 0.15767 0.20815 0.25818 0.0
C3297 C 0.14615 0.20275 0.27171 0.0
C3298 C 0.13792 0.17994 0.27057 0.0
H3299 H 0.09532 0.1575 0.2461 0.0
H3300 H 0.10447 0.16866 0.26782 0.0
H3301 H 0.11242 0.17636 0.24435 0.0
H3302 H 0.15497 0.15427 0.23055 0.0
H3303 H 0.16966 0.19397 0.23287 0.0
H3304 H 0.89079 0.75833 0.02276 0.0
H3305 H 0.87638 0.79825 0.0222 0.0
H3306 H 0.91188 0.83377 0.98841 0.0
H3307 H 0.92625 0.79362 0.98866 0.0
H3308 H 0.88459 0.84479 0.03676 0.0
H3309 H 0.87393 0.85187 0.95729 0.0
H3310 H 0.88058 0.82291 0.9687 0.0
H3311 H 0.89362 0.8485 0.96365 0.0
C3312 C 0.89547 0.7746 1.01508 0.0
C3313 C 0.90961 0.77287 1.00568 0.0
C3314 C 0.88724 0.79741 1.01479 0.0
C3315 C 0.89294 0.81894 1.00506 0.0
C3316 C 0.90709 0.81727 0.99566 0.0
H3317 H 0.86235 0.9751 0.02452 0.0
H3318 H 0.87681 0.93524 0.02287 0.0
C3319 C 0.91533 0.79438 0.99591 0.0
C3320 C 0.88428 0.84331 1.00543 0.0
H3321 H 0.86722 0.88794 0.97642 0.0
C3322 C 0.88078 0.8542 0.02356 0.0
C3323 C 0.87913 0.85542 0.98821 0.0
C3324 C 0.88186 0.844 0.96835 0.0
C3325 C 0.87243 0.87697 0.02497 0.0
C3326 C 0.86767 0.88949 1.00775 0.0
C3327 C 0.871 0.87845 0.98961 0.0
C3328 C 0.85906 0.91389 1.0083 0.0
C3329 C 0.86851 0.88712 0.04491 0.0
C3330 C 0.84443 0.91538 1.00017 0.0
C3331 C 0.83619 0.93821 1.00098 0.0
C3332 C 0.84246 0.95998 1.00986 0.0
C3333 C 0.85719 0.95857 0.01771 0.0
C3334 C 0.86543 0.93577 0.01686 0.0
H3335 H 0.86937 0.87205 0.05625 0.0
H3336 H 0.87657 0.9026 0.0488 0.0
H3337 H 0.85682 0.8951 0.04517 0.0
H3338 H 0.83931 0.89878 0.99341 0.0
H3339 H 0.82488 0.93876 0.99479 0.0
H3340 H 0.89291 0.96747 0.75038 0.0
H3341 H 0.87868 0.92737 0.75196 0.0
H3342 H 0.90468 0.90474 0.8024 0.0
H3343 H 0.91929 0.94449 0.80041 0.0
H3344 H 0.9021 0.86614 0.77834 0.0
H3345 H 0.84499 0.90817 0.78789 0.0
H3346 H 0.85395 0.91966 0.76616 0.0
H3347 H 0.86211 0.927 0.78959 0.0
C3348 C 0.89553 0.95396 0.76184 0.0
C3349 C 0.90718 0.95906 0.77528 0.0
C3350 C 0.88731 0.93113 0.76284 0.0
C3351 C 0.89034 0.9132 0.77757 0.0
C3352 C 0.90206 0.91828 0.79096 0.0
H3353 H 0.82903 0.7849 0.80064 0.0
H3354 H 0.84361 0.82472 0.80279 0.0
C3355 C 0.91042 0.94098 0.7898 0.0
C3356 C 0.88168 0.88879 0.77859 0.0
H3357 H 0.84575 0.86396 0.77904 0.0
C3358 C 0.88978 0.86569 0.77866 0.0
C3359 C 0.86559 0.8881 0.7794 0.0
C3360 C 0.85617 0.91207 0.78098 0.0
C3361 C 0.88227 0.84201 0.77898 0.0
C3362 C 0.86618 0.84132 0.77857 0.0
C3363 C 0.85808 0.86441 0.77906 0.0
C3364 C 0.85751 0.81693 0.77747 0.0
C3365 C 0.89172 0.81801 0.78009 0.0
C3366 C 0.8603 0.79939 0.7624 0.0
C3367 C 0.85212 0.77653 0.76132 0.0
C3368 C 0.84076 0.77099 0.77503 0.0
C3369 C 0.83773 0.78871 0.78988 0.0
C3370 C 0.84605 0.81145 0.79111 0.0
H3371 H 0.903 0.82181 0.78678 0.0
H3372 H 0.88591 0.80294 0.7887 0.0
H3373 H 0.89369 0.81067 0.76515 0.0
H3374 H 0.86872 0.80347 0.75134 0.0
H3375 H 0.85457 0.76332 0.74961 0.0
H3376 H 0.07841 0.69084 0.55117 0.0
H3377 H 0.09258 0.65067 0.5538 0.0
H3378 H 0.1188 0.67125 0.50309 0.0
H3379 H 0.10513 0.71175 0.50096 0.0
H3380 H 0.09502 0.61118 0.53083 0.0
H3381 H 0.15241 0.65257 0.53905 0.0
H3382 H 0.13545 0.67179 0.5404 0.0
H3383 H 0.14354 0.66357 0.51711 0.0
C3384 C 0.08726 0.6868 0.54068 0.0
C3385 C 0.09077 0.70446 0.52596 0.0
C3386 C 0.09536 0.66385 0.54218 0.0
C3387 C 0.10705 0.6581 0.52892 0.0
C3388 C 0.11024 0.67553 0.51391 0.0
H3389 H 0.14129 0.50689 0.5024 0.0
H3390 H 0.12727 0.5471 0.50422 0.0
C3391 C 0.10232 0.6986 0.51259 0.0
C3392 C 0.11556 0.63357 0.53034 0.0
H3393 H 0.15135 0.60826 0.53037 0.0
C3394 C 0.10734 0.61058 0.53092 0.0
C3395 C 0.13165 0.63264 0.5309 0.0
C3396 C 0.14126 0.65649 0.53206 0.0
C3397 C 0.11472 0.58678 0.53142 0.0
C3398 C 0.1308 0.58584 0.53062 0.0
C3399 C 0.13903 0.60885 0.53067 0.0
C3400 C 0.13934 0.5613 0.52952 0.0
C3401 C 0.10514 0.56298 0.53313 0.0
C3402 C 0.15127 0.55618 0.5426 0.0
C3403 C 0.15955 0.53343 0.54126 0.0
C3404 C 0.156 0.51529 0.52689 0.0
C3405 C 0.14415 0.52042 0.51376 0.0
C3406 C 0.13603 0.54332 0.51491 0.0
H3407 H 0.09407 0.56709 0.54024 0.0
H3408 H 0.10269 0.55547 0.51834 0.0
H3409 H 0.11105 0.54792 0.54162 0.0
H3410 H 0.15414 0.56977 0.55392 0.0
H3411 H 0.16864 0.52995 0.55157 0.0
H3412 H 0.14486 0.71266 0.78512 0.0
H3413 H 0.13084 0.67235 0.7839 0.0
H3414 H 0.15499 0.65131 0.73165 0.0
H3415 H 0.16948 0.69124 0.73331 0.0
H3416 H 0.11176 0.65345 0.75819 0.0
H3417 H 0.16113 0.58822 0.76337 0.0
H3418 H 0.1628 0.62212 0.76738 0.0
H3419 H 0.16234 0.60951 0.74299 0.0
C3420 C 0.14723 0.69936 0.77343 0.0
C3421 C 0.15833 0.70498 0.75939 0.0
C3422 C 0.13919 0.67633 0.77272 0.0
C3423 C 0.142 0.65848 0.75788 0.0
C3424 C 0.15288 0.66436 0.74357 0.0
H3425 H 0.07855 0.53268 0.73392 0.0
H3426 H 0.09311 0.57253 0.73242 0.0
C3427 C 0.16109 0.68728 0.74443 0.0
C3428 C 0.13331 0.63403 0.75732 0.0
H3429 H 0.13728 0.56913 0.75629 0.0
C3430 C 0.11736 0.63501 0.75781 0.0
C3431 C 0.14057 0.6099 0.7571 0.0
C3432 C 0.15765 0.60729 0.75788 0.0
C3433 C 0.10848 0.61268 0.75811 0.0
C3434 C 0.11573 0.58856 0.75724 0.0
C3435 C 0.13169 0.58757 0.75675 0.0
C3436 C 0.10705 0.5641 0.75764 0.0
C3437 C 0.09146 0.61523 0.76 0.0
C3438 C 0.11037 0.54556 0.77181 0.0
C3439 C 0.10227 0.52258 0.77242 0.0
C3440 C 0.09061 0.5177 0.75894 0.0
C3441 C 0.08737 0.53606 0.74462 0.0
C3442 C 0.09562 0.55894 0.74385 0.0
H3443 H 0.08821 0.63403 0.76623 0.0
H3444 H 0.0862 0.61372 0.74536 0.0
H3445 H 0.08667 0.59996 0.76938 0.0
H3446 H 0.11915 0.54898 0.78257 0.0
H3447 H 0.10502 0.50874 0.7836 0.0
H3448 H 0.82719 0.43898 0.49158 0.0
H3449 H 0.84163 0.39901 0.49096 0.0
H3450 H 0.87789 0.43512 0.52311 0.0
H3451 H 0.86337 0.47499 0.52403 0.0
H3452 H 0.87022 0.38799 0.47599 0.0
H3453 H 0.8687 0.37197 0.55585 0.0
H3454 H 0.85675 0.39515 0.54388 0.0
H3455 H 0.87634 0.40242 0.54891 0.0
C3456 C 0.83823 0.43838 0.49851 0.0
C3457 C 0.84411 0.46003 0.50796 0.0
C3458 C 0.84648 0.41556 0.49812 0.0
C3459 C 0.86074 0.41395 0.50725 0.0
C3460 C 0.86678 0.43575 0.51633 0.0
H3461 H 0.92749 0.29175 0.49224 0.0
H3462 H 0.91367 0.33237 0.49103 0.0
C3463 C 0.85851 0.45855 0.51676 0.0
C3464 C 0.86926 0.38947 0.5073 0.0
H3465 H 0.88445 0.34431 0.53745 0.0
C3466 C 0.87332 0.3784 0.48942 0.0
C3467 C 0.87313 0.37682 0.52483 0.0
C3468 C 0.8684 0.38703 0.54446 0.0
C3469 C 0.88129 0.35516 0.48859 0.0
C3470 C 0.88552 0.34288 0.50614 0.0
C3471 C 0.88132 0.35385 0.52401 0.0
C3472 C 0.89389 0.31823 0.50638 0.0
C3473 C 0.88479 0.3437 0.46895 0.0
C3474 C 0.88753 0.29692 0.51575 0.0
C3475 C 0.89545 0.27383 0.51658 0.0
C3476 C 0.90991 0.27159 0.50811 0.0
C3477 C 0.9163 0.29289 0.49874 0.0
C3478 C 0.90838 0.31606 0.49796 0.0
H3479 H 0.87743 0.35179 0.45733 0.0
H3480 H 0.89678 0.34791 0.46511 0.0
H3481 H 0.8833 0.32265 0.46916 0.0
H3482 H 0.8764 0.29816 0.52241 0.0
H3483 H 0.89026 0.25774 0.52393 0.0
H3484 H 0.82393 0.29434 0.29366 0.0
H3485 H 0.83796 0.33489 0.29401 0.0
H3486 H 0.87357 0.30064 0.25973 0.0
H3487 H 0.85952 0.26031 0.25909 0.0
H3488 H 0.86695 0.34666 0.30764 0.0
H3489 H 0.86274 0.36403 0.22815 0.0
H3490 H 0.85139 0.3403 0.24047 0.0
H3491 H 0.87083 0.3336 0.23423 0.0
C3492 C 0.83475 0.29552 0.2862 0.0
C3493 C 0.8406 0.27427 0.27623 0.0
C3494 C 0.84276 0.31865 0.28643 0.0
C3495 C 0.8567 0.32092 0.27662 0.0
C3496 C 0.86269 0.29951 0.26703 0.0
H3497 H 0.92463 0.4413 0.28944 0.0
H3498 H 0.9102 0.4013 0.29106 0.0
C3499 C 0.85469 0.27643 0.26677 0.0
C3500 C 0.865 0.34565 0.2764 0.0
H3501 H 0.8794 0.39114 0.2459 0.0
C3502 C 0.86964 0.35646 0.29416 0.0
C3503 C 0.86832 0.35858 0.25881 0.0
C3504 C 0.86294 0.3487 0.23934 0.0
C3505 C 0.87773 0.37962 0.29478 0.0
C3506 C 0.8815 0.39208 0.27714 0.0
C3507 C 0.87664 0.38147 0.25941 0.0
C3508 C 0.89023 0.41642 0.27667 0.0
C3509 C 0.88192 0.39073 0.31434 0.0
C3510 C 0.88397 0.43808 0.26767 0.0
C3511 C 0.89225 0.46083 0.26658 0.0
C3512 C 0.90697 0.46237 0.27443 0.0
C3513 C 0.91326 0.44072 0.28343 0.0
C3514 C 0.90498 0.4179 0.28445 0.0
H3515 H 0.87474 0.38279 0.32619 0.0
H3516 H 0.89393 0.38599 0.31767 0.0
H3517 H 0.88074 0.41183 0.31431 0.0
H3518 H 0.87265 0.43737 0.26148 0.0
H3519 H 0.88713 0.47721 0.25953 0.0
H3520 H 0.67495 0.04258 0.54208 0.0
H3521 H 0.66049 0.08258 0.54309 0.0
H3522 H 0.624 0.04677 0.51116 0.0
H3523 H 0.63853 0.00698 0.50979 0.0
H3524 H 0.63119 0.09311 0.49628 0.0
H3525 H 0.62391 0.10077 0.57628 0.0
H3526 H 0.64337 0.09777 0.56879 0.0
H3527 H 0.63034 0.07186 0.5646 0.0
C3528 C 0.66381 0.04324 0.53539 0.0
C3529 C 0.65784 0.02168 0.5259 0.0
C3530 C 0.65551 0.06605 0.53609 0.0
C3531 C 0.64104 0.0676 0.52747 0.0
C3532 C 0.6351 0.04602 0.51799 0.0
H3533 H 0.57397 0.18882 0.54177 0.0
H3534 H 0.58818 0.14857 0.54269 0.0
C3535 C 0.6434 0.02328 0.51723 0.0
C3536 C 0.63229 0.09192 0.5276 0.0
H3537 H 0.61667 0.13697 0.55752 0.0
C3538 C 0.62799 0.10266 0.50968 0.0
C3539 C 0.62793 0.10422 0.54508 0.0
C3540 C 0.63148 0.09298 0.56479 0.0
C3541 C 0.61963 0.12547 0.50875 0.0
C3542 C 0.61572 0.13824 0.52621 0.0
C3543 C 0.61981 0.12732 0.54414 0.0
C3544 C 0.60729 0.16286 0.52611 0.0
C3545 C 0.61483 0.13541 0.48905 0.0
C3546 C 0.61341 0.18441 0.5168 0.0
C3547 C 0.60529 0.20735 0.5162 0.0
C3548 C 0.59095 0.20926 0.52506 0.0
C3549 C 0.58497 0.18789 0.53477 0.0
C3550 C 0.59309 0.1649 0.53533 0.0
H3551 H 0.61499 0.12014 0.47782 0.0
H3552 H 0.60324 0.14372 0.48962 0.0
H3553 H 0.62285 0.15059 0.48438 0.0
H3554 H 0.62448 0.18349 0.50996 0.0
H3555 H 0.61023 0.22357 0.50874 0.0
H3556 H 0.63826 0.22126 0.77306 0.0
H3557 H 0.62429 0.18084 0.77221 0.0
H3558 H 0.6614 0.1456 0.7413 0.0
H3559 H 0.67535 0.18618 0.74184 0.0
H3560 H 0.63319 0.13302 0.72585 0.0
H3561 H 0.63371 0.11878 0.80587 0.0
H3562 H 0.62581 0.14886 0.79851 0.0
H3563 H 0.64553 0.14218 0.79393 0.0
C3564 C 0.64344 0.20489 0.76607 0.0
C3565 C 0.65792 0.2068 0.7576 0.0
C3566 C 0.63548 0.18177 0.76569 0.0
C3567 C 0.64191 0.16006 0.757 0.0
C3568 C 0.65626 0.16207 0.74818 0.0
H3569 H 0.61148 0.00412 0.77536 0.0
H3570 H 0.62577 0.04416 0.77359 0.0
C3571 C 0.66422 0.18524 0.74851 0.0
C3572 C 0.63365 0.13528 0.75714 0.0
H3573 H 0.61801 0.09079 0.7875 0.0
C3574 C 0.6299 0.12372 0.73932 0.0
C3575 C 0.62955 0.12299 0.77473 0.0
C3576 C 0.63397 0.13368 0.79435 0.0
C3577 C 0.62195 0.10043 0.7386 0.0
C3578 C 0.6174 0.0886 0.7562 0.0
C3579 C 0.62136 0.09998 0.77401 0.0
C3580 C 0.60882 0.06412 0.75656 0.0
C3581 C 0.61876 0.08849 0.71902 0.0
C3582 C 0.59447 0.06201 0.74767 0.0
C3583 C 0.58631 0.03907 0.7486 0.0
C3584 C 0.59229 0.01793 0.75859 0.0
C3585 C 0.6066 0.0201 0.76753 0.0
C3586 C 0.61477 0.04297 0.76654 0.0
H3587 H 0.62643 0.0961 0.70757 0.0
H3588 H 0.62005 0.06742 0.71963 0.0
H3589 H 0.6069 0.09287 0.71467 0.0
H3590 H 0.58948 0.07822 0.74026 0.0
H3591 H 0.57525 0.03798 0.74171 0.0
H3592 H 0.42611 0.78902 0.49294 0.0
H3593 H 0.41192 0.82926 0.49211 0.0
H3594 H 0.37516 0.79372 0.52359 0.0
H3595 H 0.3894 0.75361 0.5247 0.0
H3596 H 0.38353 0.84075 0.47662 0.0
H3597 H 0.38418 0.85682 0.55645 0.0
H3598 H 0.39618 0.83351 0.54474 0.0
H3599 H 0.37653 0.82637 0.54948 0.0
C3600 C 0.41503 0.78981 0.4997 0.0
C3601 C 0.40891 0.76824 0.509 0.0
C3602 C 0.40691 0.8128 0.49919 0.0
C3603 C 0.39257 0.81465 0.50807 0.0
C3604 C 0.38633 0.79293 0.51701 0.0
H3605 H 0.32503 0.93499 0.49159 0.0
H3606 H 0.33944 0.89493 0.49075 0.0
C3607 C 0.39445 0.76998 0.51755 0.0
C3608 C 0.38412 0.83923 0.50794 0.0
H3609 H 0.3683 0.88411 0.53778 0.0
C3610 C 0.38023 0.85029 0.48998 0.0
C3611 C 0.37999 0.85184 0.52538 0.0
C3612 C 0.38455 0.84169 0.54511 0.0
C3613 C 0.37211 0.87338 0.489 0.0
C3614 C 0.36755 0.88555 0.50646 0.0
C3615 C 0.37165 0.87467 0.5244 0.0
C3616 C 0.35883 0.90987 0.50652 0.0
C3617 C 0.36876 0.88479 0.46929 0.0
C3618 C 0.36475 0.93145 0.51602 0.0
C3619 C 0.35649 0.95423 0.51665 0.0
C3620 C 0.3421 0.95587 0.50787 0.0
C3621 C 0.33613 0.9343 0.49838 0.0
C3622 C 0.3444 0.91146 0.49779 0.0
H3623 H 0.37638 0.87699 0.45786 0.0
H3624 H 0.35688 0.88017 0.46512 0.0
H3625 H 0.36999 0.90589 0.46958 0.0
H3626 H 0.37582 0.93067 0.52293 0.0
H3627 H 0.36135 0.97054 0.52409 0.0
H3628 H 0.42364 0.94074 0.29203 0.0
H3629 H 0.41018 0.89967 0.29345 0.0
H3630 H 0.37358 0.93142 0.25938 0.0
H3631 H 0.38705 0.97224 0.25767 0.0
H3632 H 0.38157 0.88697 0.30787 0.0
H3633 H 0.38482 0.86763 0.22862 0.0
H3634 H 0.39602 0.89213 0.2403 0.0
H3635 H 0.37643 0.89795 0.23427 0.0
C3636 C 0.41272 0.93891 0.28485 0.0
C3637 C 0.40643 0.95959 0.27461 0.0
C3638 C 0.40504 0.91547 0.28569 0.0
C3639 C 0.39099 0.91232 0.27622 0.0
C3640 C 0.38456 0.9332 0.26641 0.0
H3641 H 0.32376 0.79187 0.29239 0.0
H3642 H 0.33833 0.83179 0.29324 0.0
C3643 C 0.39223 0.95656 0.26554 0.0
C3644 C 0.38301 0.88728 0.27658 0.0
H3645 H 0.36838 0.84087 0.24704 0.0
C3646 C 0.37875 0.8768 0.29459 0.0
C3647 C 0.37952 0.87384 0.25925 0.0
C3648 C 0.38456 0.8833 0.23952 0.0
C3649 C 0.37078 0.85355 0.29571 0.0
C3650 C 0.36674 0.84064 0.27833 0.0
C3651 C 0.37131 0.85087 0.26036 0.0
C3652 C 0.35797 0.81633 0.27837 0.0
C3653 C 0.36697 0.84284 0.31551 0.0
C3654 C 0.36398 0.79449 0.26936 0.0
C3655 C 0.35561 0.77179 0.26868 0.0
C3656 C 0.34104 0.77048 0.27698 0.0
C3657 C 0.33501 0.7923 0.28601 0.0
C3658 C 0.34337 0.81506 0.28661 0.0
H3659 H 0.37442 0.85096 0.32704 0.0
H3660 H 0.35505 0.84774 0.31917 0.0
H3661 H 0.3681 0.82173 0.31569 0.0
H3662 H 0.37517 0.79501 0.26282 0.0
H3663 H 0.36053 0.75527 0.26161 0.0
H3664 H 0.60632 0.71564 1.00074 0.0
H3665 H 0.62013 0.67515 1.00171 0.0
H3666 H 0.59452 0.65249 0.05242 0.0
H3667 H 0.58027 0.69265 0.05101 0.0
H3668 H 0.63841 0.65487 0.02793 0.0
H3669 H 0.58872 0.59088 0.01879 0.0
H3670 H 0.58744 0.62496 1.01551 0.0
H3671 H 0.58712 0.61139 0.0396 0.0
C3672 C 0.60359 0.70195 1.01204 0.0
C3673 C 0.59214 0.70718 0.0257 0.0
C3674 C 0.61151 0.67882 1.01261 0.0
C3675 C 0.60822 0.66047 0.02693 0.0
C3676 C 0.597 0.66596 0.04089 0.0
H3677 H 0.66989 0.53197 0.05009 0.0
H3678 H 0.65572 0.57214 0.05216 0.0
C3679 C 0.58893 0.68899 0.04016 0.0
C3680 C 0.61671 0.63585 0.02726 0.0
H3681 H 0.61223 0.57103 0.02628 0.0
C3682 C 0.63268 0.63653 0.02754 0.0
C3683 C 0.60927 0.61187 0.0265 0.0
C3684 C 0.59221 0.60965 0.02488 0.0
C3685 C 0.64139 0.61404 0.02704 0.0
C3686 C 0.63394 0.59005 0.02685 0.0
C3687 C 0.61797 0.58937 0.02661 0.0
C3688 C 0.64243 0.56545 0.02606 0.0
C3689 C 0.65847 0.61633 0.02603 0.0
C3690 C 0.63935 0.54779 1.01115 0.0
C3691 C 0.64723 0.52465 1.01019 0.0
C3692 C 0.65843 0.51872 0.02404 0.0
C3693 C 0.66144 0.5362 0.03908 0.0
C3694 C 0.65341 0.55925 0.04019 0.0
H3695 H 0.66206 0.63538 0.0206 0.0
H3696 H 0.6633 0.61386 0.04085 0.0
H3697 H 0.66341 0.60149 1.01638 0.0
H3698 H 0.63092 0.55203 1.00011 0.0
H3699 H 0.64467 0.51151 0.99845 0.0
H3700 H 0.67045 0.69406 0.23359 0.0
H3701 H 0.65593 0.65425 0.23106 0.0
H3702 H 0.63009 0.6754 0.28193 0.0
H3703 H 0.64414 0.71561 0.28398 0.0
H3704 H 0.65356 0.61503 0.25463 0.0
H3705 H 0.59627 0.65667 0.24594 0.0
H3706 H 0.61331 0.6757 0.24436 0.0
H3707 H 0.6053 0.66782 0.26775 0.0
C3708 C 0.66157 0.69029 0.2441 0.0
C3709 C 0.65832 0.70802 0.25886 0.0
C3710 C 0.65329 0.66752 0.24268 0.0
C3711 C 0.64166 0.66198 0.25606 0.0
C3712 C 0.63864 0.67951 0.27105 0.0
H3713 H 0.60659 0.51122 0.28272 0.0
H3714 H 0.62061 0.5515 0.28121 0.0
C3715 C 0.64678 0.70242 0.27232 0.0
C3716 C 0.63307 0.63749 0.25478 0.0
H3717 H 0.59723 0.61231 0.25433 0.0
C3718 C 0.64124 0.61447 0.25439 0.0
C3719 C 0.61698 0.63664 0.25407 0.0
C3720 C 0.60747 0.66055 0.25283 0.0
C3721 C 0.63381 0.59071 0.25389 0.0
C3722 C 0.61772 0.58985 0.25442 0.0
C3723 C 0.60955 0.61287 0.25422 0.0
C3724 C 0.60914 0.56533 0.25536 0.0
C3725 C 0.64333 0.56683 0.25247 0.0
C3726 C 0.59756 0.56 0.24182 0.0
C3727 C 0.5893 0.53717 0.24293 0.0
C3728 C 0.59251 0.51921 0.25755 0.0
C3729 C 0.60399 0.52461 0.27116 0.0
C3730 C 0.61211 0.54755 0.27021 0.0
H3731 H 0.65456 0.57085 0.24571 0.0
H3732 H 0.64545 0.55929 0.26732 0.0
H3733 H 0.63752 0.55183 0.24379 0.0
H3734 H 0.59497 0.57345 0.23031 0.0
H3735 H 0.5805 0.5335 0.23226 0.0
H3736 H 0.36316 0.47305 0.02295 0.0
H3737 H 0.37741 0.43309 0.02043 0.0
H3738 H 0.33961 0.39817 0.99049 0.0
H3739 H 0.32539 0.43831 0.99272 0.0
H3740 H 0.37031 0.38664 0.03551 0.0
H3741 H 0.375 0.37974 0.95514 0.0
H3742 H 0.36922 0.40867 0.96733 0.0
H3743 H 0.35585 0.38313 0.96373 0.0
C3744 C 0.35793 0.4569 1.0157 0.0
C3745 C 0.3432 0.45881 1.00795 0.0
C3746 C 0.36608 0.43407 1.01428 0.0
C3747 C 0.35969 0.41269 1.00503 0.0
C3748 C 0.34493 0.41454 0.9973 0.0
H3749 H 0.38929 0.25586 0.02095 0.0
H3750 H 0.37546 0.29636 0.02037 0.0
C3751 C 0.33677 0.43745 0.99868 0.0
C3752 C 0.36827 0.38823 1.00429 0.0
H3753 H 0.38268 0.34324 0.97331 0.0
C3754 C 0.37305 0.37721 0.0219 0.0
C3755 C 0.37202 0.37606 0.98651 0.0
C3756 C 0.3679 0.38759 0.96708 0.0
C3757 C 0.38124 0.35421 0.02226 0.0
C3758 C 0.38455 0.34159 1.00454 0.0
C3759 C 0.38001 0.35281 0.98689 0.0
C3760 C 0.39269 0.31673 1.0041 0.0
C3761 C 0.38651 0.34386 0.04164 0.0
C3762 C 0.40676 0.31444 0.99461 0.0
C3763 C 0.41466 0.2912 0.99482 0.0
C3764 C 0.40856 0.26986 1.00445 0.0
C3765 C 0.39431 0.27204 1.01353 0.0
C3766 C 0.38643 0.29521 1.01329 0.0
H3767 H 0.3867 0.35892 0.05303 0.0
H3768 H 0.37857 0.32867 0.04648 0.0
H3769 H 0.39805 0.33543 0.04047 0.0
H3770 H 0.41176 0.33076 0.98734 0.0
H3771 H 0.4256 0.29003 0.98766 0.0
H3772 H 0.35999 0.25448 0.758 0.0
H3773 H 0.37468 0.29412 0.76 0.0
H3774 H 0.33852 0.32912 0.7929 0.0
H3775 H 0.32393 0.2893 0.79125 0.0
H3776 H 0.36762 0.34094 0.7461 0.0
H3777 H 0.37532 0.34602 0.82615 0.0
H3778 H 0.36871 0.31755 0.81398 0.0
H3779 H 0.3558 0.34339 0.81879 0.0
C3780 C 0.35523 0.27058 0.76578 0.0
C3781 C 0.34085 0.26879 0.77455 0.0
C3782 C 0.36362 0.29323 0.7669 0.0
C3783 C 0.35783 0.31452 0.77685 0.0
C3784 C 0.3434 0.3128 0.78554 0.0
H3785 H 0.38795 0.47112 0.76074 0.0
H3786 H 0.37396 0.43074 0.76144 0.0
C3787 C 0.33502 0.29008 0.78448 0.0
C3788 C 0.36665 0.33877 0.77739 0.0
H3789 H 0.38234 0.38299 0.80805 0.0
C3790 C 0.37088 0.35007 0.75965 0.0
C3791 C 0.37109 0.35054 0.79507 0.0
C3792 C 0.36764 0.33865 0.81459 0.0
C3793 C 0.3792 0.37296 0.7591 0.0
C3794 C 0.38314 0.38524 0.77677 0.0
C3795 C 0.37917 0.37372 0.79452 0.0
C3796 C 0.39141 0.41001 0.77706 0.0
C3797 C 0.3839 0.38356 0.73957 0.0
C3798 C 0.40566 0.41207 0.78618 0.0
C3799 C 0.41364 0.43524 0.78592 0.0
C3800 C 0.40744 0.45675 0.77662 0.0
C3801 C 0.39305 0.4548 0.76789 0.0
C3802 C 0.38508 0.4317 0.76819 0.0
H3803 H 0.38377 0.36861 0.72808 0.0
H3804 H 0.3758 0.39873 0.73517 0.0
H3805 H 0.39546 0.39203 0.74025 0.0
H3806 H 0.41073 0.39563 0.79321 0.0
H3807 H 0.42472 0.43619 0.79275 0.0
H3808 H 0.04443 0.07101 0.22335 0.0
H3809 H 0.04002 0.10714 0.20155 0.0
H3810 H 0.01969 0.05654 0.15931 0.0
H3811 H 0.02376 0.02045 0.18109 0.0
H3812 H 0.05336 0.10968 0.16595 0.0
H3813 H 0.99085 0.11719 0.15826 0.0
H3814 H 0.99979 0.09982 0.1779 0.0
H3815 H 0.9977 0.08536 0.15427 0.0
C3816 C 0.03877 0.06766 0.20957 0.0
C3817 C 0.03454 0.04292 0.20382 0.0
C3818 C 0.03622 0.08831 0.1972 0.0
C3819 C 0.02937 0.08448 0.17898 0.0
C3820 C 0.02466 0.05994 0.17351 0.0
H3821 H 0.04625 0.1645 0.07298 0.0
H3822 H 0.04287 0.13322 0.09903 0.0
C3823 C 0.02714 0.03931 0.1859 0.0
C3824 C 0.02901 0.10533 0.16466 0.0
H3825 H 0.00582 0.13733 0.13324 0.0
C3826 C 0.04294 0.116 0.15899 0.0
C3827 C 0.01539 0.11352 0.15572 0.0
C3828 C 1.00007 0.10356 0.16198 0.0
C3829 C 0.04369 0.13408 0.14409 0.0
C3830 C 0.03018 0.14122 0.13443 0.0
C3831 C 0.01616 0.13136 0.14055 0.0
C3832 C 0.03053 0.15898 0.1179 0.0
C3833 C 0.05894 0.14527 0.13871 0.0
C3834 C 0.02415 0.18331 0.11974 0.0
C3835 C 0.026 0.20118 0.1049 0.0
C3836 C 0.03425 0.19484 0.08806 0.0
C3837 C 0.03996 0.16998 0.08588 0.0
C3838 C 0.03807 0.15213 0.10071 0.0
H3839 H 0.06746 0.14255 0.15049 0.0
H3840 H 0.06325 0.13565 0.12542 0.0
H3841 H 0.05796 0.166 0.13556 0.0
H3842 H 0.01824 0.18876 0.13294 0.0
H3843 H 0.02138 0.22016 0.10692 0.0
H3844 H 0.19628 0.06523 0.07096 0.0
H3845 H 0.20202 0.10027 0.09317 0.0
H3846 H 0.23833 0.05616 0.11872 0.0
H3847 H 0.23243 0.02073 0.09684 0.0
H3848 H 0.21889 0.07325 0.14549 0.0
H3849 H 0.23527 0.15312 0.09735 0.0
H3850 H 0.21768 0.13908 0.08963 0.0
H3851 H 0.23485 0.12038 0.08907 0.0
C3852 C 0.20566 0.06316 0.08107 0.0
C3853 C 0.21383 0.04023 0.08232 0.0
C3854 C 0.20902 0.08328 0.09361 0.0
C3855 C 0.22075 0.08089 0.10734 0.0
C3856 C 0.22931 0.05837 0.1081 0.0
H3857 H 0.23329 0.21075 0.18601 0.0
H3858 H 0.2394 0.17615 0.16344 0.0
C3859 C 0.22588 0.03816 0.09567 0.0
C3860 C 0.22268 0.10054 0.12247 0.0
H3861 H 0.22506 0.16486 0.12897 0.0
C3862 C 0.22058 0.09323 0.14194 0.0
C3863 C 0.22511 0.12649 0.11781 0.0
C3864 C 0.22852 0.13517 0.09733 0.0
C3865 C 0.21982 0.11145 0.15677 0.0
C3866 C 0.22085 0.13756 0.15184 0.0
C3867 C 0.22402 0.14478 0.1326 0.0
C3868 C 0.21751 0.15769 0.16612 0.0
C3869 C 0.21752 0.1026 0.17748 0.0
C3870 C 0.20312 0.15873 0.17487 0.0
C3871 C 0.1996 0.17834 0.18777 0.0
C3872 C 0.21037 0.19736 0.19191 0.0
C3873 C 0.22476 0.19632 0.18307 0.0
C3874 C 0.22829 0.17661 0.17022 0.0
H3875 H 0.22194 0.08293 0.17963 0.0
H3876 H 0.22324 0.11556 0.18799 0.0
H3877 H 0.20518 0.10235 0.1808 0.0
H3878 H 0.19453 0.14459 0.17146 0.0
H3879 H 0.1884 0.17875 0.19428 0.0
H3880 H 0.96319 0.72899 0.89436 0.0
H3881 H 0.96537 0.76255 0.86967 0.0
H3882 H 0.98343 0.81406 0.91292 0.0
H3883 H 0.98141 0.78077 0.93756 0.0
H3884 H 0.94923 0.8083 0.87415 0.0
H3885 H 0.01083 0.82723 0.86557 0.0
H3886 H 0.00354 0.7978 0.87566 0.0
H3887 H 0.0048 0.82599 0.89053 0.0
C3888 C 0.96795 0.74729 0.89849 0.0
C3889 C 0.97201 0.75236 0.91791 0.0
C3890 C 0.9692 0.76638 0.88439 0.0
C3891 C 0.97472 0.79061 0.88947 0.0
C3892 C 0.97944 0.79531 0.90863 0.0
H3893 H 0.97237 0.94501 0.85077 0.0
H3894 H 0.97717 0.90401 0.86678 0.0
C3895 C 0.97813 0.77633 0.92274 0.0
C3896 C 0.97357 0.81205 0.87566 0.0
H3897 H 0.99389 0.86054 0.85516 0.0
C3898 C 0.959 0.81948 0.86965 0.0
C3899 C 0.98635 0.82662 0.87008 0.0
C3900 C 0.00228 0.81889 0.87564 0.0
C3901 C 0.95677 0.84188 0.85893 0.0
C3902 C 0.96953 0.85684 0.85374 0.0
C3903 C 0.98416 0.84899 0.85923 0.0
C3904 C 0.96776 0.88129 0.84335 0.0
C3905 C 0.94073 0.84996 0.85409 0.0
C3906 C 0.9612 0.88189 0.82476 0.0
C3907 C 0.9583 0.90519 0.81572 0.0
C3908 C 0.9621 0.92824 0.82502 0.0
C3909 C 0.96925 0.92755 0.84331 0.0
C3910 C 0.97204 0.90419 0.85243 0.0
H3911 H 0.93219 0.83962 0.86302 0.0
H3912 H 0.93921 0.87079 0.85639 0.0
H3913 H 0.93837 0.84572 0.83854 0.0
H3914 H 0.9581 0.86435 0.8174 0.0
H3915 H 0.95295 0.9051 0.8015 0.0
H3916 H 0.76328 0.76894 0.84698 0.0
H3917 H 0.75616 0.80258 0.8699 0.0
H3918 H 0.79633 0.84512 0.85409 0.0
H3919 H 0.80328 0.81202 0.83079 0.0
H3920 H 0.77172 0.81643 0.90115 0.0
H3921 H 0.76488 0.90054 0.8537 0.0
H3922 H 0.76551 0.86844 0.84414 0.0
H3923 H 0.78285 0.88561 0.84917 0.0
C3924 C 0.77047 0.78566 0.8482 0.0
C3925 C 0.78385 0.78791 0.83716 0.0
C3926 C 0.76636 0.80485 0.86124 0.0
C3927 C 0.77557 0.8265 0.86343 0.0
C3928 C 0.78882 0.82892 0.8522 0.0
H3929 H 0.80261 0.91381 0.95819 0.0
H3930 H 0.79546 0.88018 0.93541 0.0
C3931 C 0.79286 0.80988 0.83902 0.0
C3932 C 0.77232 0.84536 0.8788 0.0
H3933 H 0.7721 0.90934 0.88731 0.0
C3934 C 0.77144 0.83675 0.89812 0.0
C3935 C 0.77155 0.87178 0.8748 0.0
C3936 C 0.77107 0.88207 0.85429 0.0
C3937 C 0.77108 0.85401 0.91366 0.0
C3938 C 0.77205 0.88043 0.9097 0.0
C3939 C 0.77164 0.88903 0.89035 0.0
C3940 C 0.77514 0.8993 0.92514 0.0
C3941 C 0.77009 0.84373 0.93415 0.0
C3942 C 0.76621 0.92135 0.92671 0.0
C3943 C 0.77046 0.94085 0.93942 0.0
C3944 C 0.78369 0.93851 0.95077 0.0
C3945 C 0.79232 0.91605 0.94969 0.0
C3946 C 0.78815 0.8967 0.93682 0.0
H3947 H 0.7637 0.82543 0.9345 0.0
H3948 H 0.78173 0.83986 0.93965 0.0
H3949 H 0.76449 0.8575 0.94411 0.0
H3950 H 0.75619 0.92376 0.91772 0.0
H3951 H 0.76356 0.95793 0.94007 0.0
H3952 H 0.01337 0.70716 0.59571 0.0
H3953 H 0.00726 0.67235 0.61817 0.0
H3954 H 0.04635 0.63042 0.59783 0.0
H3955 H 0.05224 0.66464 0.57497 0.0
H3956 H 0.02155 0.5997 0.6038 0.0
H3957 H 0.03209 0.6632 0.66749 0.0
H3958 H 0.01736 0.6733 0.6511 0.0
H3959 H 0.03676 0.67253 0.64295 0.0
C3960 C 0.02057 0.69039 0.59593 0.0
C3961 C 0.0334 0.68868 0.58382 0.0
C3962 C 0.01708 0.67061 0.60877 0.0
C3963 C 0.02653 0.64913 0.60987 0.0
C3964 C 0.03894 0.64692 0.59719 0.0
H3965 H 0.05667 0.55152 0.69735 0.0
H3966 H 0.05048 0.58507 0.67408 0.0
C3967 C 0.04233 0.66651 0.58419 0.0
C3968 C 0.02428 0.62959 0.62503 0.0
H3969 H 0.02731 0.62007 0.67397 0.0
C3970 C 0.02258 0.60409 0.61919 0.0
C3971 C 0.02573 0.63558 0.64503 0.0
C3972 C 0.02821 0.66258 0.6521 0.0
C3973 C 0.02312 0.58418 0.63277 0.0
C3974 C 0.025 0.59015 0.65271 0.0
C3975 C 0.02583 0.61572 0.65864 0.0
C3976 C 0.0281 0.57025 0.66732 0.0
C3977 C 0.02266 0.55696 0.62555 0.0
C3978 C 0.01746 0.55105 0.67135 0.0
C3979 C 0.02105 0.53163 0.68449 0.0
C3980 C 0.03524 0.53145 0.69392 0.0
C3981 C 0.04566 0.55115 0.69027 0.0
C3982 C 0.04213 0.57035 0.67703 0.0
H3983 H 0.02404 0.55575 0.6095 0.0
H3984 H 0.03174 0.54543 0.63253 0.0
H3985 H 0.01155 0.5483 0.62939 0.0
H3986 H 0.00646 0.55098 0.66426 0.0
H3987 H 0.01275 0.51678 0.68721 0.0
H3988 H 0.23326 0.70637 0.68643 0.0
H3989 H 0.23949 0.67194 0.66378 0.0
H3990 H 0.1938 0.64271 0.66881 0.0
H3991 H 0.18755 0.67668 0.69179 0.0
H3992 H 0.21625 0.60539 0.67129 0.0
H3993 H 0.22462 0.66915 0.60726 0.0
H3994 H 0.23598 0.67604 0.62838 0.0
H3995 H 0.21573 0.67996 0.62944 0.0
C3996 C 0.22454 0.6926 0.68271 0.0
C3997 C 0.20988 0.69426 0.69072 0.0
C3998 C 0.22812 0.67304 0.66975 0.0
C3999 C 0.21703 0.65514 0.6645 0.0
C4000 C 0.20248 0.65649 0.67273 0.0
H4001 H 0.1963 0.56 0.57136 0.0
H4002 H 0.20152 0.59464 0.59412 0.0
C4003 C 0.19892 0.67589 0.68579 0.0
C4004 C 0.22037 0.63501 0.65023 0.0
H4005 H 0.22674 0.62501 0.60189 0.0
C4006 C 0.21875 0.60956 0.65615 0.0
C4007 C 0.22359 0.64079 0.63056 0.0
C4008 C 0.22499 0.66795 0.62341 0.0
C4009 C 0.21948 0.58961 0.64266 0.0
C4010 C 0.22231 0.59542 0.62288 0.0
C4011 C 0.22469 0.62078 0.61713 0.0
C4012 C 0.22073 0.57587 0.60766 0.0
C4013 C 0.21628 0.56273 0.6495 0.0
C4014 C 0.23013 0.5543 0.60744 0.0
C4015 C 0.22704 0.5343 0.59462 0.0
C4016 C 0.21466 0.53589 0.58174 0.0
C4017 C 0.20586 0.55821 0.58121 0.0
C4018 C 0.20886 0.57804 0.59413 0.0
H4019 H 0.21162 0.56228 0.66453 0.0
H4020 H 0.20806 0.55313 0.63962 0.0
H4021 H 0.22698 0.55157 0.64939 0.0
H4022 H 0.23952 0.5526 0.61756 0.0
H4023 H 0.23413 0.51742 0.59512 0.0
H4024 H 0.98372 0.27303 0.43658 0.0
H4025 H 0.98933 0.30893 0.41497 0.0
H4026 H 0.94461 0.33963 0.42551 0.0
H4027 H 0.93899 0.30418 0.44739 0.0
H4028 H 0.97434 0.32096 0.3815 0.0
H4029 H 0.97159 0.40174 0.4332 0.0
H4030 H 0.9732 0.36898 0.44113 0.0
H4031 H 0.95496 0.38202 0.43466 0.0
C4032 C 0.97514 0.28757 0.43444 0.0
C4033 C 0.96091 0.28584 0.44365 0.0
C4034 C 0.97838 0.30804 0.42214 0.0
C4035 C 0.96748 0.32707 0.41896 0.0
C4036 C 0.9533 0.32544 0.4282 0.0
H4037 H 0.94493 0.42045 0.32415 0.0
H4038 H 0.9501 0.38611 0.3472 0.0
C4039 C 0.95007 0.30506 0.44055 0.0
C4040 C 0.97036 0.34767 0.40484 0.0
H4041 H 0.96776 0.41209 0.39925 0.0
C4042 C 0.9732 0.34094 0.38541 0.0
C4043 C 0.96917 0.37366 0.41008 0.0
C4044 C 0.96723 0.38205 0.43096 0.0
C4045 C 0.97386 0.35954 0.37081 0.0
C4046 C 0.9713 0.38534 0.37582 0.0
C4047 C 0.9695 0.39221 0.39543 0.0
C4048 C 0.96915 0.40522 0.36091 0.0
C4049 C 0.97696 0.35133 0.35013 0.0
C4050 C 0.97798 0.4275 0.36126 0.0
C4051 C 0.97492 0.44732 0.34829 0.0
C4052 C 0.96294 0.44513 0.33483 0.0
C4053 C 0.95428 0.42262 0.3343 0.0
C4054 C 0.9573 0.40289 0.34734 0.0
H4055 H 0.98367 0.33338 0.34972 0.0
H4056 H 0.966 0.34767 0.34262 0.0
H4057 H 0.9832 0.36631 0.34195 0.0
H4058 H 0.98708 0.42967 0.37177 0.0
H4059 H 0.9818 0.46445 0.34899 0.0
H4060 H 0.80107 0.40929 0.46978 0.0
H4061 H 0.79397 0.37085 0.45178 0.0
H4062 H 0.76171 0.41432 0.41808 0.0
H4063 H 0.76882 0.45303 0.43586 0.0
H4064 H 0.76437 0.3464 0.44503 0.0
H4065 H 0.7925 0.38399 0.37822 0.0
H4066 H 0.79582 0.39754 0.40201 0.0
H4067 H 0.77844 0.4042 0.38928 0.0
C4068 C 0.7924 0.41067 0.45862 0.0
C4069 C 0.78563 0.43421 0.45402 0.0
C4070 C 0.7883 0.38868 0.44847 0.0
C4071 C 0.77743 0.38994 0.4336 0.0
C4072 C 0.77023 0.41316 0.42945 0.0
H4073 H 0.76345 0.27828 0.34262 0.0
H4074 H 0.75839 0.31375 0.36471 0.0
C4075 C 0.77433 0.4352 0.43957 0.0
C4076 C 0.7746 0.36734 0.42144 0.0
H4077 H 0.78175 0.34319 0.37637 0.0
C4078 C 0.768 0.34566 0.42995 0.0
C4079 C 0.77941 0.36664 0.40184 0.0
C4080 C 0.78704 0.38922 0.39225 0.0
C4081 C 0.76623 0.323 0.4193 0.0
C4082 C 0.77145 0.32211 0.39987 0.0
C4083 C 0.77767 0.34404 0.39126 0.0
C4084 C 0.77175 0.29832 0.38841 0.0
C4085 C 0.75888 0.30027 0.42895 0.0
C4086 C 0.7806 0.27759 0.39468 0.0
C4087 C 0.78345 0.25721 0.38212 0.0
C4088 C 0.7777 0.25758 0.36304 0.0
C4089 C 0.76817 0.27767 0.35719 0.0
C4090 C 0.7652 0.29786 0.3698 0.0
H4091 H 0.75129 0.30623 0.44104 0.0
H4092 H 0.75219 0.28887 0.41833 0.0
H4093 H 0.76786 0.28783 0.43517 0.0
H4094 H 0.78604 0.27787 0.40883 0.0
H4095 H 0.79084 0.24196 0.38696 0.0
H4096 H 0.5163 0.2085 0.59837 0.0
H4097 H 0.51259 0.1731 0.62113 0.0
H4098 H 0.55015 0.13292 0.59491 0.0
H4099 H 0.55371 0.16781 0.57183 0.0
H4100 H 0.52563 0.10157 0.60355 0.0
H4101 H 0.54206 0.1628 0.66645 0.0
H4102 H 0.52616 0.17388 0.65238 0.0
H4103 H 0.54473 0.17272 0.64154 0.0
C4104 C 0.52368 0.19201 0.59738 0.0
C4105 C 0.53542 0.19098 0.58353 0.0
C4106 C 0.52156 0.1719 0.61038 0.0
C4107 C 0.53128 0.15073 0.60985 0.0
C4108 C 0.54258 0.1492 0.59553 0.0
H4109 H 0.56375 0.04719 0.69394 0.0
H4110 H 0.55835 0.08155 0.67098 0.0
C4111 C 0.54462 0.16916 0.58241 0.0
C4112 C 0.53037 0.13072 0.62482 0.0
H4113 H 0.5367 0.11975 0.67305 0.0
C4114 C 0.52788 0.10548 0.6188 0.0
C4115 C 0.53347 0.13609 0.6446 0.0
C4116 C 0.53688 0.16278 0.65169 0.0
C4117 C 0.52891 0.08521 0.63202 0.0
C4118 C 0.53218 0.09057 0.65175 0.0
C4119 C 0.53413 0.11588 0.65788 0.0
C4120 C 0.53502 0.0701 0.66594 0.0
C4121 C 0.52727 0.05822 0.62458 0.0
C4122 C 0.5236 0.05259 0.6708 0.0
C4123 C 0.52669 0.03279 0.68378 0.0
C4124 C 0.54119 0.03049 0.69219 0.0
C4125 C 0.55248 0.04846 0.68764 0.0
C4126 C 0.54941 0.0681 0.67458 0.0
H4127 H 0.52788 0.05726 0.60843 0.0
H4128 H 0.53626 0.04575 0.63075 0.0
H4129 H 0.51608 0.05049 0.62915 0.0
H4130 H 0.51234 0.05421 0.66453 0.0
H4131 H 0.51773 0.01932 0.68719 0.0
H4132 H 0.73805 0.01853 0.59586 0.0
H4133 H 0.74508 0.05185 0.61918 0.0
H4134 H 0.7044 0.09361 0.60446 0.0
H4135 H 0.69753 0.06088 0.58077 0.0
H4136 H 0.7295 0.1245 0.60874 0.0
H4137 H 0.72321 0.0574 0.67121 0.0
H4138 H 0.73687 0.04874 0.65294 0.0
H4139 H 0.71699 0.04934 0.64694 0.0
C4140 C 0.73068 0.03494 0.59751 0.0
C4141 C 0.71714 0.03704 0.58673 0.0
C4142 C 0.7347 0.05386 0.61084 0.0
C4143 C 0.72511 0.07484 0.61372 0.0
C4144 C 0.71192 0.07746 0.60241 0.0
H4145 H 0.69605 0.16743 0.70348 0.0
H4146 H 0.70318 0.13365 0.68082 0.0
C4147 C 0.70798 0.05873 0.58895 0.0
C4148 C 0.72813 0.09353 0.62924 0.0
H4149 H 0.72717 0.1005 0.67856 0.0
C4150 C 0.72926 0.11933 0.62404 0.0
C4151 C 0.72775 0.08648 0.64911 0.0
C4152 C 0.72603 0.05903 0.65549 0.0
C4153 C 0.729 0.13853 0.63819 0.0
C4154 C 0.72805 0.13151 0.65805 0.0
C4155 C 0.72795 0.10565 0.66329 0.0
C4156 C 0.72487 0.15053 0.67327 0.0
C4157 C 0.72861 0.16607 0.63168 0.0
C4158 C 0.73492 0.17075 0.67685 0.0
C4159 C 0.73076 0.1903 0.68954 0.0
C4160 C 0.71662 0.18955 0.69903 0.0
C4161 C 0.70698 0.16852 0.69628 0.0
C4162 C 0.71106 0.1492 0.68341 0.0
H4163 H 0.72662 0.1679 0.61576 0.0
H4164 H 0.71954 0.1767 0.63945 0.0
H4165 H 0.73966 0.17525 0.63511 0.0
H4166 H 0.74577 0.17174 0.66946 0.0
H4167 H 0.73849 0.20616 0.69167 0.0
H4168 H 0.43043 0.93948 0.3427 0.0
H4169 H 0.4347 0.90502 0.36605 0.0
H4170 H 0.48253 0.92309 0.36751 0.0
H4171 H 0.47835 0.95796 0.3445 0.0
H4172 H 0.45319 0.86273 0.36282 0.0
H4173 H 0.47065 0.92415 0.42497 0.0
H4174 H 0.46172 0.9368 0.40336 0.0
H4175 H 0.48155 0.9286 0.40314 0.0
C4176 C 0.44185 0.93616 0.34803 0.0
C4177 C 0.45404 0.95151 0.34194 0.0
C4178 C 0.44426 0.91649 0.36132 0.0
C4179 C 0.45888 0.91188 0.36867 0.0
C4180 C 0.47113 0.92678 0.36229 0.0
H4181 H 0.47941 0.77197 0.43247 0.0
H4182 H 0.48088 0.80739 0.40932 0.0
C4183 C 0.46871 0.94658 0.3491 0.0
C4184 C 0.46124 0.89126 0.38291 0.0
H4185 H 0.47209 0.8795 0.42972 0.0
C4186 C 0.45737 0.86631 0.37743 0.0
C4187 C 0.46658 0.89623 0.40196 0.0
C4188 C 0.47025 0.92291 0.40883 0.0
C4189 C 0.45849 0.84609 0.39065 0.0
C4190 C 0.46399 0.85099 0.40964 0.0
C4191 C 0.46805 0.87589 0.41505 0.0
C4192 C 0.4645 0.83082 0.42454 0.0
C4193 C 0.45325 0.81988 0.3844 0.0
C4194 C 0.45534 0.83294 0.44114 0.0
C4195 C 0.4546 0.81295 0.45448 0.0
C4196 C 0.46298 0.79053 0.45132 0.0
C4197 C 0.47268 0.78893 0.43512 0.0
C4198 C 0.4735 0.80905 0.42187 0.0
H4199 H 0.4462 0.82062 0.37098 0.0
H4200 H 0.46331 0.80778 0.38134 0.0
H4201 H 0.44653 0.81055 0.39609 0.0
H4202 H 0.44836 0.84971 0.44344 0.0
H4203 H 0.44706 0.81474 0.46687 0.0
H4204 H 0.26035 0.7692 0.34623 0.0
H4205 H 0.2515 0.80291 0.36805 0.0
H4206 H 0.29047 0.8488 0.35273 0.0
H4207 H 0.2991 0.81563 0.33048 0.0
H4208 H 0.26583 0.81822 0.39936 0.0
H4209 H 0.25786 0.90184 0.35197 0.0
H4210 H 0.2594 0.86987 0.3423 0.0
H4211 H 0.27623 0.88839 0.34749 0.0
C4212 C 0.26688 0.78668 0.34728 0.0
C4213 C 0.28045 0.78981 0.33676 0.0
C4214 C 0.26177 0.80592 0.35967 0.0
C4215 C 0.27017 0.82851 0.36174 0.0
C4216 C 0.28354 0.83186 0.35089 0.0
H4217 H 0.29893 0.91356 0.45474 0.0
H4218 H 0.29039 0.88054 0.43228 0.0
C4219 C 0.28857 0.81277 0.33834 0.0
C4220 C 0.26623 0.84717 0.37699 0.0
H4221 H 0.2659 0.91113 0.38552 0.0
C4222 C 0.2654 0.83853 0.39631 0.0
C4223 C 0.26523 0.87357 0.37301 0.0
C4224 C 0.26454 0.88387 0.35252 0.0
C4225 C 0.26516 0.85577 0.41186 0.0
C4226 C 0.2662 0.88218 0.40789 0.0
C4227 C 0.26544 0.89082 0.38857 0.0
C4228 C 0.27012 0.90082 0.42318 0.0
C4229 C 0.26441 0.84547 0.43235 0.0
C4230 C 0.26172 0.92337 0.42525 0.0
C4231 C 0.26677 0.94253 0.43779 0.0
C4232 C 0.28029 0.93935 0.44843 0.0
C4233 C 0.28843 0.91645 0.4468 0.0
C4234 C 0.28346 0.89744 0.43412 0.0
H4235 H 0.2577 0.82749 0.43284 0.0
H4236 H 0.27607 0.84096 0.43745 0.0
H4237 H 0.25924 0.85946 0.44252 0.0
H4238 H 0.25147 0.9264 0.4168 0.0
H4239 H 0.26023 0.95998 0.43887 0.0
H4240 H 0.51398 0.7096 0.09675 0.0
H4241 H 0.50727 0.67497 0.11908 0.0
H4242 H 0.54934 0.63674 0.10534 0.0
H4243 H 0.55592 0.67075 0.08262 0.0
H4244 H 0.52499 0.60402 0.10727 0.0
H4245 H 0.52755 0.66793 0.17208 0.0
H4246 H 0.51427 0.67668 0.15336 0.0
H4247 H 0.53431 0.67777 0.14846 0.0
C4248 C 0.52175 0.69372 0.09844 0.0
C4249 C 0.53555 0.69293 0.08816 0.0
C4250 C 0.51791 0.67404 0.1112 0.0
C4251 C 0.52793 0.65362 0.11403 0.0
C4252 C 0.54147 0.65242 0.10332 0.0
H4253 H 0.55541 0.55795 0.20323 0.0
H4254 H 0.5488 0.59218 0.1807 0.0
C4255 C 0.54524 0.67188 0.09041 0.0
C4256 C 0.5249 0.63389 0.12878 0.0
H4257 H 0.52426 0.62424 0.17784 0.0
C4258 C 0.52457 0.60835 0.12272 0.0
C4259 C 0.52442 0.63985 0.14885 0.0
C4260 C 0.52526 0.667 0.15618 0.0
C4261 C 0.52477 0.58841 0.13626 0.0
C4262 C 0.52483 0.59436 0.15635 0.0
C4263 C 0.52417 0.6199 0.16239 0.0
C4264 C 0.52775 0.57469 0.17117 0.0
C4265 C 0.52601 0.56129 0.12894 0.0
C4266 C 0.51791 0.55387 0.17351 0.0
C4267 C 0.52179 0.53408 0.18614 0.0
C4268 C 0.53542 0.53514 0.1968 0.0
C4269 C 0.54486 0.55661 0.19513 0.0
C4270 C 0.54108 0.5762 0.18234 0.0
H4271 H 0.52867 0.56047 0.11314 0.0
H4272 H 0.53498 0.55076 0.13699 0.0
H4273 H 0.51505 0.5513 0.13131 0.0
H4274 H 0.50742 0.5527 0.16529 0.0
H4275 H 0.5142 0.51786 0.1874 0.0
H4276 H 0.73186 0.51877 0.09734 0.0
H4277 H 0.73572 0.55406 0.12014 0.0
H4278 H 0.6993 0.59583 0.09265 0.0
H4279 H 0.69556 0.56098 0.06955 0.0
H4280 H 0.7246 0.62597 0.10258 0.0
H4281 H 0.70461 0.56497 0.16391 0.0
H4282 H 0.72064 0.55315 0.15048 0.0
H4283 H 0.70244 0.55568 0.13877 0.0
C4284 C 0.72478 0.53559 0.09605 0.0
C4285 C 0.71327 0.53707 0.0819 0.0
C4286 C 0.727 0.55564 0.10906 0.0
C4287 C 0.71762 0.57719 0.10818 0.0
C4288 C 0.70661 0.57923 0.0935 0.0
H4289 H 0.68409 0.68247 0.1901 0.0
H4290 H 0.68951 0.64798 0.16721 0.0
C4291 C 0.70446 0.5593 0.08039 0.0
C4292 C 0.71841 0.59694 0.12329 0.0
H4293 H 0.7103 0.60773 0.17108 0.0
C4294 C 0.72166 0.62205 0.11763 0.0
C4295 C 0.7144 0.59151 0.14279 0.0
C4296 C 0.7102 0.56493 0.14941 0.0
C4297 C 0.72053 0.6422 0.1309 0.0
C4298 C 0.71632 0.6368 0.15032 0.0
C4299 C 0.71358 0.61159 0.15614 0.0
C4300 C 0.71339 0.65723 0.16443 0.0
C4301 C 0.7231 0.66916 0.12386 0.0
C4302 C 0.72512 0.67345 0.1705 0.0
C4303 C 0.72205 0.69325 0.18343 0.0
C4304 C 0.70723 0.69686 0.19056 0.0
C4305 C 0.69559 0.68017 0.18478 0.0
C4306 C 0.69866 0.66049 0.17177 0.0
H4307 H 0.72335 0.67035 0.1077 0.0
H4308 H 0.71406 0.68207 0.12935 0.0
H4309 H 0.73416 0.67621 0.12949 0.0
H4310 H 0.73661 0.67083 0.1652 0.0
H4311 H 0.73127 0.70572 0.1878 0.0
H4312 H 0.43304 0.42155 0.83459 0.0
H4313 H 0.43859 0.38085 0.85051 0.0
H4314 H 0.48495 0.40464 0.85986 0.0
H4315 H 0.47957 0.44545 0.84395 0.0
H4316 H 0.47965 0.35156 0.84419 0.0
H4317 H 0.44724 0.37684 0.91106 0.0
H4318 H 0.43753 0.38153 0.88827 0.0
H4319 H 0.4539 0.40058 0.89401 0.0
C4320 C 0.44442 0.41816 0.84004 0.0
C4321 C 0.45584 0.43675 0.8382 0.0
C4322 C 0.44755 0.39492 0.84906 0.0
C4323 C 0.46214 0.38998 0.85634 0.0
C4324 C 0.47364 0.40825 0.85425 0.0
H4325 H 0.48364 0.27657 0.94205 0.0
H4326 H 0.4847 0.31404 0.92104 0.0
C4327 C 0.47051 0.43154 0.84528 0.0
C4328 C 0.46519 0.36613 0.86689 0.0
H4329 H 0.45659 0.33473 0.90884 0.0
C4330 C 0.47469 0.34779 0.85835 0.0
C4331 C 0.45876 0.36164 0.88539 0.0
C4332 C 0.44887 0.38121 0.89537 0.0
C4333 C 0.47772 0.32462 0.86784 0.0
C4334 C 0.47102 0.31994 0.88616 0.0
C4335 C 0.4617 0.33849 0.89475 0.0
C4336 C 0.47324 0.29588 0.89684 0.0
C4337 C 0.48813 0.30544 0.85836 0.0
C4338 C 0.46686 0.2731 0.88985 0.0
C4339 C 0.46623 0.25158 0.90184 0.0
C4340 C 0.47181 0.25281 0.921 0.0
C4341 C 0.47909 0.27516 0.92743 0.0
C4342 C 0.47976 0.29655 0.91544 0.0
H4343 H 0.49487 0.3141 0.84639 0.0
H4344 H 0.49603 0.29708 0.86925 0.0
H4345 H 0.48121 0.28967 0.85217 0.0
H4346 H 0.46157 0.27241 0.87561 0.0
H4347 H 0.46056 0.23458 0.89652 0.0
H4348 H 0.26725 0.26746 0.85029 0.0
H4349 H 0.26306 0.30195 0.87364 0.0
H4350 H 0.29776 0.34688 0.84539 0.0
H4351 H 0.30182 0.3128 0.82178 0.0
H4352 H 0.28455 0.319 0.89877 0.0
H4353 H 0.26413 0.39876 0.85297 0.0
H4354 H 0.26417 0.36605 0.84461 0.0
H4355 H 0.28123 0.38501 0.84344 0.0
C4356 C 0.27382 0.28486 0.84887 0.0
C4357 C 0.28491 0.28747 0.83429 0.0
C4358 C 0.27138 0.30451 0.86217 0.0
C4359 C 0.27996 0.327 0.86102 0.0
C4360 C 0.29077 0.32989 0.84619 0.0
H4361 H 0.31462 0.42752 0.94595 0.0
H4362 H 0.30849 0.39226 0.92402 0.0
C4363 C 0.29316 0.31033 0.83282 0.0
C4364 C 0.27885 0.34635 0.87646 0.0
H4365 H 0.27557 0.41038 0.88375 0.0
C4366 C 0.2823 0.33893 0.89559 0.0
C4367 C 0.27569 0.3722 0.87227 0.0
C4368 C 0.27094 0.38093 0.85223 0.0
C4369 C 0.28356 0.357 0.91049 0.0
C4370 C 0.28162 0.38307 0.90594 0.0
C4371 C 0.27726 0.39033 0.88708 0.0
C4372 C 0.28496 0.4033 0.92016 0.0
C4373 C 0.28723 0.34805 0.93085 0.0
C4374 C 0.27381 0.4213 0.92488 0.0
C4375 C 0.27732 0.44161 0.93716 0.0
C4376 C 0.29206 0.44421 0.94484 0.0
C4377 C 0.30316 0.42593 0.94029 0.0
C4378 C 0.29965 0.4057 0.92791 0.0
H4379 H 0.28354 0.32799 0.93316 0.0
H4380 H 0.29971 0.34887 0.93311 0.0
H4381 H 0.28171 0.36033 0.94196 0.0
H4382 H 0.26245 0.41978 0.91889 0.0
H4383 H 0.26852 0.45539 0.94048 0.0
H4384 H 0.10368 0.30351 0.06076 0.0
H4385 H 0.12109 0.3116 0.08818 0.0
H4386 H 0.08317 0.31004 0.12792 0.0
H4387 H 0.06597 0.30098 0.10085 0.0
H4388 H 0.12437 0.34698 0.11769 0.0
H4389 H 0.10894 0.25283 0.14885 0.0
H4390 H 0.10318 0.26247 0.12476 0.0
H4391 H 0.09284 0.27339 0.14579 0.0
C4392 C 0.09908 0.30538 0.07532 0.0
C4393 C 0.08353 0.3013 0.07875 0.0
C4394 C 0.10902 0.30992 0.09098 0.0
C4395 C 0.10351 0.31066 0.11022 0.0
C4396 C 0.08779 0.30872 0.11334 0.0
H4397 H 0.14821 0.30997 0.22447 0.0
H4398 H 0.12977 0.31844 0.19829 0.0
C4399 C 0.07795 0.30373 0.09783 0.0
C4400 C 0.11413 0.31174 0.12713 0.0
H4401 H 0.12444 0.27944 0.16837 0.0
C4402 C 0.12438 0.33222 0.12877 0.0
C4403 C 0.11424 0.29238 0.14158 0.0
C4404 C 0.10433 0.2689 0.1401 0.0
C4405 C 0.1346 0.33394 0.14453 0.0
C4406 C 0.13457 0.31471 0.15899 0.0
C4407 C 0.12426 0.29439 0.15744 0.0
C4408 C 0.14601 0.31383 0.17492 0.0
C4409 C 0.14536 0.35632 0.14566 0.0
C4410 C 0.16126 0.30879 0.17047 0.0
C4411 C 0.1717 0.30369 0.1853 0.0
C4412 C 0.16716 0.30368 0.20495 0.0
C4413 C 0.15207 0.31008 0.2095 0.0
C4414 C 0.14153 0.31483 0.19456 0.0
H4415 H 0.1416 0.37236 0.13624 0.0
H4416 H 0.14641 0.36326 0.16089 0.0
H4417 H 0.15679 0.35019 0.14073 0.0
H4418 H 0.16494 0.30751 0.15545 0.0
H4419 H 0.18326 0.29885 0.18133 0.0
H4420 H 0.17483 0.95242 0.103 0.0
H4421 H 0.15758 0.93989 0.12864 0.0
H4422 H 0.13717 0.88384 0.09074 0.0
H4423 H 0.15442 0.89699 0.06432 0.0
H4424 H 0.11587 0.91043 0.10862 0.0
H4425 H 0.1564 0.88111 0.16516 0.0
H4426 H 0.16172 0.91216 0.15666 0.0
H4427 H 0.1621 0.88538 0.14011 0.0
C4428 C 0.16683 0.9372 0.09999 0.0
C4429 C 0.16605 0.92576 0.08146 0.0
C4430 C 0.15703 0.9298 0.1149 0.0
C4431 C 0.14628 0.91042 0.11194 0.0
C4432 C 0.14551 0.89863 0.09351 0.0
H4433 H 0.08984 0.894 0.21873 0.0
H4434 H 0.10651 0.88007 0.19186 0.0
C4435 C 0.15536 0.90615 0.07841 0.0
C4436 C 0.13505 0.90474 0.12765 0.0
H4437 H 0.1325 0.89985 0.17722 0.0
C4438 C 0.11951 0.90743 0.12354 0.0
C4439 C 0.1396 0.90005 0.14716 0.0
C4440 C 0.15587 0.89421 0.15244 0.0
C4441 C 0.10864 0.90808 0.13853 0.0
C4442 C 0.11346 0.90678 0.15822 0.0
C4443 C 0.12878 0.90152 0.16221 0.0
C4444 C 0.10322 0.91421 0.17458 0.0
C4445 C 0.09211 0.911 0.13308 0.0
C4446 C 0.0962 0.93821 0.17411 0.0
C4447 C 0.08676 0.94607 0.18923 0.0
C4448 C 0.08419 0.93035 0.20553 0.0
C4449 C 0.09154 0.90652 0.20637 0.0
C4450 C 0.10102 0.89853 0.19101 0.0
H4451 H 0.0897 0.90168 0.11887 0.0
H4452 H 0.08451 0.90265 0.1443 0.0
H4453 H 0.08942 0.93159 0.1315 0.0
H4454 H 0.09813 0.95112 0.16204 0.0
H4455 H 0.08153 0.96472 0.1881 0.0
H4456 H 0.81872 0.68879 0.85325 0.0
H4457 H 0.83786 0.67985 0.8781 0.0
H4458 H 0.86952 0.65715 0.8335 0.0
H4459 H 0.85026 0.66593 0.80835 0.0
H4460 H 0.85775 0.63275 0.88586 0.0
H4461 H 0.88793 0.72178 0.86387 0.0
H4462 H 0.86824 0.7162 0.85779 0.0
H4463 H 0.88291 0.69923 0.84514 0.0
C4464 C 0.82967 0.68149 0.84869 0.0
C4465 C 0.83302 0.67828 0.8288 0.0
C4466 C 0.84058 0.67629 0.86295 0.0
C4467 C 0.85513 0.66803 0.85764 0.0
C4468 C 0.85834 0.66359 0.83787 0.0
H4469 H 0.93669 0.67945 0.92849 0.0
H4470 H 0.91898 0.66987 0.90211 0.0
C4471 C 0.84732 0.66852 0.82354 0.0
C4472 C 0.86719 0.66652 0.87275 0.0
H4473 H 0.89738 0.6998 0.89092 0.0
C4474 C 0.86655 0.6472 0.8869 0.0
C4475 C 0.87857 0.68548 0.87411 0.0
C4476 C 0.87952 0.70699 0.85953 0.0
C4477 C 0.87706 0.64632 0.90239 0.0
C4478 C 0.88821 0.66575 0.90408 0.0
C4479 C 0.8889 0.68484 0.8897 0.0
C4480 C 0.89917 0.66727 0.92068 0.0
C4481 C 0.87619 0.62442 0.9166 0.0
C4482 C 0.89411 0.66824 0.94013 0.0
C4483 C 0.90435 0.67321 0.95537 0.0
C4484 C 0.91975 0.67792 0.95135 0.0
C4485 C 0.92487 0.67599 0.93202 0.0
C4486 C 0.91473 0.67056 0.91691 0.0
H4487 H 0.87079 0.60738 0.90987 0.0
H4488 H 0.88764 0.61899 0.92201 0.0
H4489 H 0.86912 0.63016 0.92923 0.0
H4490 H 0.88214 0.66643 0.94347 0.0
H4491 H 0.90007 0.67496 0.97009 0.0
H4492 H 0.84164 0.0827 0.9689 0.0
H4493 H 0.85851 0.09609 0.9421 0.0
H4494 H 0.84591 0.02877 0.90972 0.0
H4495 H 0.82908 0.01576 0.93572 0.0
H4496 H 0.88308 0.07363 0.92669 0.0
H4497 H 0.84058 0.08156 0.86832 0.0
H4498 H 0.83524 0.07967 0.89366 0.0
H4499 H 0.83866 0.05101 0.87976 0.0
C4500 C 0.8424 0.07094 0.95597 0.0
C4501 C 0.83389 0.04825 0.95448 0.0
C4502 C 0.85201 0.07862 0.94064 0.0
C4503 C 0.85317 0.06383 0.92357 0.0
C4504 C 0.84484 0.04107 0.92233 0.0
H4505 H 0.92275 0.01906 0.85115 0.0
H4506 H 0.90579 0.03238 0.87688 0.0
C4507 C 0.83528 0.0335 0.93743 0.0
C4508 C 0.8638 0.07061 0.90745 0.0
H4509 H 0.86624 0.06939 0.85777 0.0
C4510 C 0.87934 0.07336 0.91163 0.0
C4511 C 0.85902 0.07113 0.88772 0.0
C4512 C 0.84243 0.07099 0.88215 0.0
C4513 C 0.89025 0.07405 0.89668 0.0
C4514 C 0.88556 0.07115 0.87703 0.0
C4515 C 0.86995 0.071 0.87279 0.0
C4516 C 0.89652 0.06466 0.86121 0.0
C4517 C 0.90675 0.0771 0.90218 0.0
C4518 C 0.89673 0.0778 0.8433 0.0
C4519 C 0.90642 0.06988 0.82815 0.0
C4520 C 0.91594 0.04854 0.83061 0.0
C4521 C 0.91567 0.03564 0.8486 0.0
C4522 C 0.90605 0.04345 0.86356 0.0
H4523 H 0.90795 0.0892 0.91538 0.0
H4524 H 0.9116 0.05809 0.90567 0.0
H4525 H 0.91347 0.08576 0.89019 0.0
H4526 H 0.88933 0.09403 0.84101 0.0
H4527 H 0.9063 0.08021 0.81449 0.0
H4528 H 0.06513 0.7954 0.60238 0.0
H4529 H 0.08203 0.80516 0.62956 0.0
H4530 H 0.1195 0.8136 0.58957 0.0
H4531 H 0.10233 0.80481 0.56212 0.0
H4532 H 0.10446 0.77638 0.64052 0.0
H4533 H 0.1281 0.87223 0.62523 0.0
H4534 H 0.11186 0.85967 0.6123 0.0
H4535 H 0.13082 0.85052 0.60534 0.0
C4536 C 0.07691 0.79995 0.59933 0.0
C4537 C 0.08243 0.79933 0.58014 0.0
C4538 C 0.08658 0.80549 0.61491 0.0
C4539 C 0.10209 0.81026 0.61174 0.0
C4540 C 0.10754 0.8106 0.59245 0.0
H4541 H 0.18176 0.79556 0.68177 0.0
H4542 H 0.16291 0.80433 0.65654 0.0
C4543 C 0.09774 0.80548 0.57674 0.0
C4544 C 0.11263 0.81198 0.62877 0.0
H4545 H 0.14122 0.84726 0.64932 0.0
C4546 C 0.11231 0.79213 0.64256 0.0
C4547 C 0.12296 0.83245 0.6315 0.0
C4548 C 0.12338 0.85505 0.61791 0.0
C4549 C 0.12223 0.79179 0.65859 0.0
C4550 C 0.13278 0.81191 0.66107 0.0
C4551 C 0.13305 0.83194 0.64746 0.0
C4552 C 0.14448 0.81097 0.67668 0.0
C4553 C 0.12177 0.76938 0.6724 0.0
C4554 C 0.14051 0.81272 0.69649 0.0
C4555 C 0.15136 0.80787 0.71106 0.0
C4556 C 0.16626 0.80092 0.70598 0.0
C4557 C 0.17034 0.80066 0.68616 0.0
C4558 C 0.15959 0.80576 0.6717 0.0
H4559 H 0.11443 0.75367 0.66691 0.0
H4560 H 0.13339 0.76178 0.67484 0.0
H4561 H 0.11725 0.77574 0.68667 0.0
H4562 H 0.1289 0.81685 0.70064 0.0
H4563 H 0.14787 0.80812 0.72618 0.0
H4564 H 0.07535 0.45747 0.68402 0.0
H4565 H 0.09298 0.4453 0.65869 0.0
H4566 H 0.10867 0.38226 0.69372 0.0
H4567 H 0.09106 0.39497 0.71987 0.0
H4568 H 0.13206 0.40623 0.67783 0.0
H4569 H 0.09076 0.39013 0.61906 0.0
H4570 H 0.08752 0.42113 0.6292 0.0
H4571 H 0.08498 0.39312 0.64417 0.0
C4572 C 0.08239 0.4408 0.68645 0.0
C4573 C 0.08165 0.42709 0.70406 0.0
C4574 C 0.09242 0.4337 0.67172 0.0
C4575 C 0.10188 0.41236 0.6739 0.0
C4576 C 0.10133 0.3986 0.69153 0.0
H4577 H 0.15667 0.39289 0.56651 0.0
H4578 H 0.1394 0.3807 0.59316 0.0
C4579 C 0.09128 0.40588 0.70649 0.0
C4580 C 0.11296 0.40608 0.65816 0.0
H4581 H 0.11601 0.40444 0.60853 0.0
C4582 C 0.12851 0.40522 0.6627 0.0
C4583 C 0.10847 0.40389 0.63838 0.0
C4584 C 0.09199 0.4018 0.63249 0.0
C4585 C 0.13963 0.40462 0.648 0.0
C4586 C 0.13512 0.40579 0.62817 0.0
C4587 C 0.11958 0.40421 0.62367 0.0
C4588 C 0.14613 0.41167 0.61224 0.0
C4589 C 0.15612 0.40332 0.65395 0.0
C4590 C 0.15546 0.43329 0.61385 0.0
C4591 C 0.16531 0.44009 0.59884 0.0
C4592 C 0.16598 0.4258 0.58149 0.0
C4593 C 0.1565 0.40426 0.57966 0.0
C4594 C 0.14665 0.39728 0.59491 0.0
H4595 H 0.15747 0.39222 0.66763 0.0
H4596 H 0.16324 0.39442 0.64247 0.0
H4597 H 0.16038 0.42291 0.6568 0.0
H4598 H 0.15491 0.44537 0.62663 0.0
H4599 H 0.17225 0.45701 0.6008 0.0
H4600 H 0.85054 0.17072 0.31075 0.0
H4601 H 0.86922 0.16094 0.33643 0.0
H4602 H 0.83598 0.17933 0.3803 0.0
H4603 H 0.81747 0.18934 0.35494 0.0
H4604 H 0.87744 0.20026 0.36561 0.0
H4605 H 0.85597 0.11119 0.39976 0.0
H4606 H 0.85129 0.12026 0.37507 0.0
H4607 H 0.84196 0.13547 0.3952 0.0
C4608 C 0.84715 0.17208 0.32587 0.0
C4609 C 0.83257 0.1809 0.33082 0.0
C4610 C 0.85782 0.16656 0.34052 0.0
C4611 C 0.85394 0.16918 0.36029 0.0
C4612 C 0.83917 0.17681 0.36519 0.0
H4613 H 0.89806 0.17636 0.47319 0.0
H4614 H 0.88015 0.16949 0.44613 0.0
C4615 C 0.82863 0.18268 0.35064 0.0
C4616 C 0.86565 0.16692 0.37584 0.0
H4617 H 0.87483 0.13429 0.41737 0.0
C4618 C 0.87703 0.18562 0.37677 0.0
C4619 C 0.86488 0.14812 0.3906 0.0
C4620 C 0.85294 0.12746 0.39013 0.0
C4621 C 0.8874 0.18653 0.39233 0.0
C4622 C 0.88674 0.16762 0.40711 0.0
C4623 C 0.87543 0.1487 0.40605 0.0
C4624 C 0.89755 0.1677 0.42388 0.0
C4625 C 0.89851 0.20851 0.39319 0.0
C4626 C 0.9133 0.16762 0.42058 0.0
C4627 C 0.92344 0.1719 0.4359 0.0
C4628 C 0.91812 0.17558 0.45499 0.0
C4629 C 0.90246 0.1734 0.45864 0.0
C4630 C 0.89224 0.1696 0.44317 0.0
H4631 H 0.89462 0.22494 0.38424 0.0
H4632 H 0.90019 0.21521 0.40838 0.0
H4633 H 0.90964 0.2022 0.38735 0.0
H4634 H 0.91773 0.16535 0.40598 0.0
H4635 H 0.93547 0.17329 0.43271 0.0
H4636 H 0.81964 0.53839 0.42911 0.0
H4637 H 0.83795 0.54878 0.40361 0.0
H4638 H 0.86933 0.57658 0.44695 0.0
H4639 H 0.85087 0.56639 0.47276 0.0
H4640 H 0.85606 0.59862 0.39501 0.0
H4641 H 0.88938 0.51265 0.41656 0.0
H4642 H 0.86956 0.51613 0.4228 0.0
H4643 H 0.88364 0.53474 0.43527 0.0
C4644 C 0.83034 0.5471 0.43325 0.0
C4645 C 0.83386 0.55137 0.45299 0.0
C4646 C 0.84076 0.55313 0.41862 0.0
C4647 C 0.85501 0.56331 0.42339 0.0
C4648 C 0.85836 0.56872 0.44299 0.0
H4649 H 0.9352 0.55728 0.34987 0.0
H4650 H 0.91792 0.56624 0.3768 0.0
C4651 C 0.84781 0.56296 0.4577 0.0
C4652 C 0.86672 0.56577 0.40793 0.0
H4653 H 0.89742 0.53488 0.38891 0.0
C4654 C 0.86524 0.58492 0.39375 0.0
C4655 C 0.8786 0.54779 0.40628 0.0
C4656 C 0.88047 0.52653 0.42093 0.0
C4657 C 0.87539 0.58655 0.37792 0.0
C4658 C 0.88703 0.56804 0.37592 0.0
C4659 C 0.88856 0.54915 0.39036 0.0
C4660 C 0.89763 0.56723 0.35894 0.0
C4661 C 0.87361 0.60825 0.36367 0.0
C4662 C 0.89216 0.56567 0.33969 0.0
C4663 C 0.90215 0.56111 0.32412 0.0
C4664 C 0.91772 0.55742 0.32764 0.0
C4665 C 0.92324 0.56003 0.34675 0.0
C4666 C 0.91335 0.56507 0.36217 0.0
H4667 H 0.86792 0.6249 0.37054 0.0
H4668 H 0.88476 0.61451 0.35782 0.0
H4669 H 0.86639 0.60187 0.35133 0.0
H4670 H 0.88008 0.56659 0.33676 0.0
H4671 H 0.89757 0.55876 0.30958 0.0
H4672 H 0.68401 0.2917 0.6793 0.0
H4673 H 0.66657 0.30118 0.65265 0.0
H4674 H 0.63088 0.31628 0.69412 0.0
H4675 H 0.64861 0.30776 0.72098 0.0
H4676 H 0.64273 0.27437 0.64387 0.0
H4677 H 0.62343 0.37348 0.6568 0.0
H4678 H 0.63954 0.35993 0.66936 0.0
H4679 H 0.62051 0.3533 0.67756 0.0
C4680 C 0.67253 0.29758 0.68277 0.0
C4681 C 0.66766 0.29895 0.70224 0.0
C4682 C 0.66254 0.30298 0.6675 0.0
C4683 C 0.64736 0.3096 0.67125 0.0
C4684 C 0.64259 0.31183 0.69076 0.0
H4685 H 0.56638 0.29487 0.60298 0.0
H4686 H 0.58547 0.30259 0.62818 0.0
C4687 C 0.65271 0.30684 0.70613 0.0
C4688 C 0.63636 0.31146 0.65472 0.0
H4689 H 0.60873 0.34874 0.63411 0.0
C4690 C 0.63548 0.29085 0.64164 0.0
C4691 C 0.62681 0.33289 0.65171 0.0
C4692 C 0.62771 0.35626 0.66449 0.0
C4693 C 0.62518 0.2908 0.62601 0.0
C4694 C 0.61542 0.31189 0.6233 0.0
C4695 C 0.6163 0.33264 0.63619 0.0
C4696 C 0.60351 0.3115 0.60797 0.0
C4697 C 0.62444 0.26783 0.61277 0.0
C4698 C 0.60722 0.31472 0.58821 0.0
C4699 C 0.59625 0.3105 0.57367 0.0
C4700 C 0.58149 0.30266 0.57873 0.0
C4701 C 0.57768 0.30072 0.59859 0.0
C4702 C 0.58855 0.30522 0.61304 0.0
H4703 H 0.63194 0.25209 0.61777 0.0
H4704 H 0.61259 0.2606 0.6119 0.0
H4705 H 0.62794 0.27346 0.59785 0.0
H4706 H 0.61874 0.3195 0.58402 0.0
H4707 H 0.59956 0.312 0.55852 0.0
H4708 H 0.68573 0.93304 0.6032 0.0
H4709 H 0.66871 0.92287 0.63013 0.0
H4710 H 0.63166 0.91325 0.58955 0.0
H4711 H 0.64896 0.92239 0.56238 0.0
H4712 H 0.646 0.95065 0.64098 0.0
H4713 H 0.62328 0.85442 0.62484 0.0
H4714 H 0.63945 0.86751 0.61213 0.0
H4715 H 0.62043 0.87616 0.60501 0.0
C4716 C 0.67403 0.92816 0.59997 0.0
C4717 C 0.66866 0.92851 0.58068 0.0
C4718 C 0.66429 0.92238 0.6154 0.0
C4719 C 0.64885 0.91712 0.61201 0.0
C4720 C 0.64357 0.91659 0.59263 0.0
H4721 H 0.5689 0.93187 0.68134 0.0
H4722 H 0.58782 0.92376 0.65609 0.0
C4723 C 0.65344 0.92193 0.57707 0.0
C4724 C 0.63819 0.915 0.62886 0.0
H4725 H 0.60965 0.87897 0.64872 0.0
C4726 C 0.63825 0.93472 0.64278 0.0
C4727 C 0.62798 0.8943 0.63131 0.0
C4728 C 0.62787 0.87178 0.61763 0.0
C4729 C 0.6282 0.93467 0.65865 0.0
C4730 C 0.61776 0.91436 0.6608 0.0
C4731 C 0.61774 0.89446 0.6471 0.0
C4732 C 0.60594 0.91494 0.67625 0.0
C4733 C 0.62842 0.95684 0.6727 0.0
C4734 C 0.60972 0.91181 0.69602 0.0
C4735 C 0.59883 0.91623 0.71059 0.0
C4736 C 0.58408 0.92418 0.70554 0.0
C4737 C 0.58019 0.92594 0.6857 0.0
C4738 C 0.59098 0.92123 0.67123 0.0
H4739 H 0.63603 0.97249 0.66776 0.0
H4740 H 0.61678 0.96463 0.67458 0.0
H4741 H 0.63242 0.95015 0.68715 0.0
H4742 H 0.62123 0.90692 0.70018 0.0
H4743 H 0.60218 0.91485 0.72573 0.0
H4744 H 0.42315 0.70982 0.43448 0.0
H4745 H 0.40528 0.69795 0.40927 0.0
H4746 H 0.39088 0.63308 0.44329 0.0
H4747 H 0.40871 0.64547 0.46932 0.0
H4748 H 0.40254 0.65657 0.38671 0.0
H4749 H 0.35072 0.6675 0.43246 0.0
H4750 H 0.36917 0.67793 0.44069 0.0
H4751 H 0.3645 0.64453 0.44054 0.0
C4752 C 0.41624 0.69297 0.43678 0.0
C4753 C 0.41733 0.67874 0.45412 0.0
C4754 C 0.40602 0.68613 0.42219 0.0
C4755 C 0.39657 0.66476 0.42434 0.0
C4756 C 0.39783 0.64996 0.4414 0.0
H4757 H 0.33944 0.64628 0.31748 0.0
H4758 H 0.35707 0.63304 0.34348 0.0
C4759 C 0.40807 0.65698 0.45624 0.0
C4760 C 0.38522 0.6592 0.40873 0.0
H4761 H 0.34716 0.66169 0.39905 0.0
C4762 C 0.3904 0.65722 0.38941 0.0
C4763 C 0.36938 0.66002 0.41225 0.0
C4764 C 0.36303 0.66277 0.43255 0.0
C4765 C 0.38031 0.65804 0.37351 0.0
C4766 C 0.36451 0.66016 0.37702 0.0
C4767 C 0.35927 0.66011 0.39637 0.0
C4768 C 0.35351 0.66671 0.36124 0.0
C4769 C 0.38674 0.65856 0.35315 0.0
C4770 C 0.34541 0.68966 0.36268 0.0
C4771 C 0.3353 0.69702 0.3481 0.0
C4772 C 0.333 0.68172 0.33151 0.0
C4773 C 0.34104 0.65859 0.32999 0.0
C4774 C 0.35116 0.65106 0.34482 0.0
H4775 H 0.39927 0.6611 0.35311 0.0
H4776 H 0.38409 0.64026 0.34574 0.0
H4777 H 0.38156 0.67425 0.34454 0.0
H4778 H 0.34705 0.70218 0.37507 0.0
H4779 H 0.32939 0.715 0.34986 0.0
H4780 H 0.34962 0.06172 0.4721 0.0
H4781 H 0.36751 0.07256 0.4458 0.0
H4782 H 0.33502 0.04646 0.40319 0.0
H4783 H 0.31729 0.03538 0.42918 0.0
H4784 H 0.37744 0.03279 0.4175 0.0
H4785 H 0.35103 0.11683 0.38165 0.0
H4786 H 0.34728 0.10837 0.40672 0.0
H4787 H 0.33841 0.09083 0.38733 0.0
C4788 C 0.34621 0.05878 0.4571 0.0
C4789 C 0.33209 0.04757 0.45272 0.0
C4790 C 0.35643 0.06493 0.44211 0.0
C4791 C 0.35252 0.06054 0.42253 0.0
C4792 C 0.33819 0.05036 0.41815 0.0
H4793 H 0.39483 0.05393 0.30902 0.0
H4794 H 0.37723 0.0601 0.33641 0.0
C4795 C 0.32811 0.04386 0.43306 0.0
C4796 C 0.36388 0.06383 0.40673 0.0
H4797 H 0.37083 0.09591 0.36427 0.0
C4798 C 0.37615 0.04684 0.406 0.0
C4799 C 0.36197 0.08184 0.39157 0.0
C4800 C 0.34903 0.10068 0.39182 0.0
C4801 C 0.38632 0.04678 0.39025 0.0
C4802 C 0.3845 0.06488 0.37505 0.0
C4803 C 0.3723 0.08215 0.37592 0.0
C4804 C 0.39495 0.06547 0.35795 0.0
C4805 C 0.39848 0.02644 0.38965 0.0
C4806 C 0.4107 0.06784 0.36071 0.0
C4807 C 0.42069 0.06396 0.34519 0.0
C4808 C 0.41516 0.05841 0.32646 0.0
C4809 C 0.39938 0.05839 0.32328 0.0
C4810 C 0.38934 0.06178 0.33895 0.0
H4811 H 0.39561 0.00998 0.39917 0.0
H4812 H 0.40021 0.01925 0.37461 0.0
H4813 H 0.40936 0.03462 0.39494 0.0
H4814 H 0.4153 0.0715 0.37507 0.0
H4815 H 0.43281 0.06424 0.34801 0.0
H4816 H 0.60323 0.80432 0.0626 0.0
H4817 H 0.62043 0.81293 0.09014 0.0
H4818 H 0.58221 0.81209 0.12942 0.0
H4819 H 0.56522 0.80252 0.10223 0.0
H4820 H 0.62351 0.84878 0.11947 0.0
H4821 H 0.60775 0.755 0.15105 0.0
H4822 H 0.60219 0.76437 0.12682 0.0
H4823 H 0.59171 0.77561 0.14762 0.0
C4824 C 0.59852 0.80649 0.07707 0.0
C4825 C 0.58295 0.80245 0.08036 0.0
C4826 C 0.60834 0.81132 0.09281 0.0
C4827 C 0.60267 0.8124 0.11196 0.0
C4828 C 0.58693 0.81053 0.11491 0.0
H4829 H 0.64747 0.81041 0.22629 0.0
H4830 H 0.62889 0.81965 0.20039 0.0
C4831 C 0.57722 0.80525 0.09933 0.0
C4832 C 0.61318 0.81365 0.129 0.0
H4833 H 0.62329 0.78162 0.17044 0.0
C4834 C 0.62345 0.83411 0.13062 0.0
C4835 C 0.61319 0.79443 0.14355 0.0
C4836 C 0.60324 0.77099 0.14212 0.0
C4837 C 0.63361 0.83592 0.14643 0.0
C4838 C 0.63352 0.81677 0.16096 0.0
C4839 C 0.62316 0.79652 0.15946 0.0
C4840 C 0.64503 0.81576 0.17681 0.0
C4841 C 0.64438 0.85827 0.14751 0.0
C4842 C 0.66027 0.81093 0.17218 0.0
C4843 C 0.67077 0.80542 0.18684 0.0
C4844 C 0.66631 0.80476 0.20651 0.0
C4845 C 0.65125 0.81105 0.21129 0.0
C4846 C 0.64064 0.81622 0.19651 0.0
H4847 H 0.64048 0.87444 0.13831 0.0
H4848 H 0.64567 0.86501 0.16276 0.0
H4849 H 0.65573 0.85222 0.14221 0.0
H4850 H 0.66388 0.81004 0.15711 0.0
H4851 H 0.68231 0.80065 0.18271 0.0
H4852 H 0.68527 0.42214 0.09957 0.0
H4853 H 0.66808 0.41284 0.12653 0.0
H4854 H 0.63007 0.41334 0.08678 0.0
H4855 H 0.64746 0.4216 0.05954 0.0
H4856 H 0.6476 0.44427 0.139 0.0
H4857 H 0.6181 0.35429 0.12019 0.0
H4858 H 0.63492 0.36487 0.1075 0.0
H4859 H 0.61656 0.37761 0.10118 0.0
C4860 C 0.67329 0.41951 0.0965 0.0
C4861 C 0.66769 0.42251 0.07746 0.0
C4862 C 0.66345 0.41428 0.11195 0.0
C4863 C 0.64772 0.41225 0.10882 0.0
C4864 C 0.64216 0.41417 0.08962 0.0
H4865 H 0.56927 0.43605 0.17938 0.0
H4866 H 0.58774 0.42648 0.15391 0.0
C4867 C 0.6521 0.41896 0.07402 0.0
C4868 C 0.63721 0.41118 0.12589 0.0
H4869 H 0.60648 0.37999 0.14512 0.0
C4870 C 0.63879 0.4299 0.14044 0.0
C4871 C 0.62562 0.39254 0.12787 0.0
C4872 C 0.62378 0.37104 0.11344 0.0
C4873 C 0.62892 0.43098 0.15649 0.0
C4874 C 0.61712 0.4128 0.15818 0.0
C4875 C 0.6156 0.39383 0.14385 0.0
C4876 C 0.60549 0.41487 0.17379 0.0
C4877 C 0.63081 0.4522 0.17118 0.0
C4878 C 0.60917 0.41076 0.19349 0.0
C4879 C 0.59854 0.41608 0.2082 0.0
C4880 C 0.58414 0.42588 0.20339 0.0
C4881 C 0.58032 0.42876 0.1836 0.0
C4882 C 0.59083 0.42319 0.16899 0.0
H4883 H 0.63924 0.46671 0.1664 0.0
H4884 H 0.61977 0.46186 0.17379 0.0
H4885 H 0.63471 0.44405 0.18523 0.0
H4886 H 0.62042 0.40422 0.1975 0.0
H4887 H 0.60183 0.41371 0.2233 0.0
H4888 H 0.43303 0.18542 0.92648 0.0
H4889 H 0.41414 0.17691 0.90121 0.0
H4890 H 0.38151 0.1558 0.94512 0.0
H4891 H 0.40047 0.16416 0.97068 0.0
H4892 H 0.39348 0.13002 0.89353 0.0
H4893 H 0.3647 0.221 0.91364 0.0
H4894 H 0.38424 0.21468 0.92005 0.0
H4895 H 0.3692 0.19883 0.93284 0.0
C4896 C 0.42191 0.17857 0.93081 0.0
C4897 C 0.41821 0.17567 0.95063 0.0
C4898 C 0.41116 0.17361 0.9163 0.0
C4899 C 0.39642 0.16589 0.92129 0.0
C4900 C 0.39284 0.16179 0.94099 0.0
H4901 H 0.31489 0.17762 0.8509 0.0
H4902 H 0.33279 0.1683 0.87712 0.0
C4903 C 0.40369 0.1665 0.95557 0.0
C4904 C 0.38453 0.16458 0.90595 0.0
H4905 H 0.35483 0.19834 0.88713 0.0
C4906 C 0.38491 0.14478 0.89217 0.0
C4907 C 0.37346 0.18395 0.90418 0.0
C4908 C 0.37281 0.20596 0.91834 0.0
C4909 C 0.37438 0.14375 0.87671 0.0
C4910 C 0.36347 0.16348 0.87468 0.0
C4911 C 0.3631 0.18314 0.88863 0.0
C4912 C 0.35237 0.16463 0.85824 0.0
C4913 C 0.37491 0.12135 0.86294 0.0
C4914 C 0.35722 0.16485 0.83869 0.0
C4915 C 0.34685 0.16965 0.82355 0.0
C4916 C 0.33156 0.17492 0.82779 0.0
C4917 C 0.32664 0.17368 0.84722 0.0
C4918 C 0.33688 0.16841 0.86224 0.0
H4919 H 0.38024 0.10443 0.8699 0.0
H4920 H 0.36336 0.11599 0.85784 0.0
H4921 H 0.38188 0.12652 0.85006 0.0
H4922 H 0.36913 0.16263 0.83517 0.0
H4923 H 0.35098 0.17088 0.80872 0.0
H4924 H 0.35247 0.56283 0.97592 0.0
H4925 H 0.37077 0.57243 0.9498 0.0
H4926 H 0.33599 0.55862 0.9068 0.0
H4927 H 0.31784 0.5489 0.93261 0.0
H4928 H 0.3775 0.53418 0.92064 0.0
H4929 H 0.35743 0.62414 0.88667 0.0
H4930 H 0.35247 0.61502 0.91125 0.0
H4931 H 0.34286 0.60072 0.89089 0.0
C4932 C 0.34866 0.56258 0.96092 0.0
C4933 C 0.33375 0.55505 0.9563 0.0
C4934 C 0.35911 0.56797 0.94602 0.0
C4935 C 0.35471 0.56648 0.92634 0.0
C4936 C 0.3396 0.56033 0.92183 0.0
H4937 H 0.39618 0.55339 0.81235 0.0
H4938 H 0.37899 0.56243 0.83978 0.0
C4939 C 0.32926 0.55461 0.93663 0.0
C4940 C 0.36615 0.56797 0.91044 0.0
H4941 H 0.37506 0.59929 0.86824 0.0
C4942 C 0.37714 0.54866 0.90935 0.0
C4943 C 0.36545 0.58655 0.89551 0.0
C4944 C 0.354 0.60793 0.89614 0.0
C4945 C 0.38713 0.5469 0.89346 0.0
C4946 C 0.38651 0.56554 0.87849 0.0
C4947 C 0.37562 0.58509 0.8797 0.0
C4948 C 0.39691 0.56448 0.86137 0.0
C4949 C 0.39779 0.52435 0.8925 0.0
C4950 C 0.41272 0.56402 0.86416 0.0
C4951 C 0.42244 0.55853 0.84865 0.0
C4952 C 0.41662 0.55416 0.82988 0.0
C4953 C 0.40094 0.55691 0.82665 0.0
C4954 C 0.39114 0.56195 0.84234 0.0
H4955 H 0.39386 0.50836 0.90187 0.0
H4956 H 0.39893 0.51718 0.87736 0.0
H4957 H 0.4092 0.53025 0.89775 0.0
H4958 H 0.41751 0.56669 0.87856 0.0
H4959 H 0.4345 0.55665 0.85149 0.0
loop_
_geom_bond_atom_site_label_1
_geom_bond_atom_site_label_2
_geom_bond_distance
_geom_bond_site_symmetry_2
_ccdc_geom_bond_type
O0 Tb1 2.292 . S
O0 C3 1.255 . S
Tb1 O0 2.292 . S
Tb1 O17 2.326 . S
Tb1 O19 2.500 . S
Tb1 O20 2.473 . S
Tb1 O23 2.324 1_556 S
Eu2 O6 2.292 . S
Eu2 C7 2.852 . S
Eu2 O18 2.324 1_554 S
Eu2 O22 2.326 . S
Eu2 O24 2.500 . S
Eu2 O25 2.473 . S
C3 O0 1.255 . S
C3 O4 1.247 . S
O4 C3 1.247 . S
C5 O17 1.242 . S
C5 O18 1.258 . S
O6 Eu2 2.292 . S
O6 C8 1.255 . S
C7 Eu2 2.852 . S
C7 C11 1.503 . S
C7 O24 1.273 . S
C7 O25 1.257 . S
C8 O6 1.255 . S
C8 O9 1.247 . S
O9 C8 1.247 . S
C10 O22 1.242 . S
C10 O23 1.258 . S
C11 C7 1.503 . S
C11 C12 1.379 . S
C11 C16 1.392 . S
C12 C11 1.379 . S
C12 C13 1.404 . S
C12 H26 0.929 . S
C13 C12 1.404 . S
C13 C14 1.389 . S
C14 C13 1.389 . S
C14 C15 1.399 . S
C14 H27 0.931 . S
C15 C14 1.399 . S
C15 C16 1.390 . S
C16 C11 1.392 . S
C16 C15 1.390 . S
C16 H28 0.929 . S
O17 Tb1 2.326 . S
O17 C5 1.242 . S
O18 Eu2 2.324 1_556 S
O18 C5 1.258 . S
O19 Tb1 2.500 . S
O19 C21 1.273 . S
O20 Tb1 2.473 . S
O20 C21 1.257 . S
C21 O19 1.273 . S
C21 O20 1.257 . S
O22 Eu2 2.326 . S
O22 C10 1.242 . S
O23 Tb1 2.324 1_554 S
O23 C10 1.258 . S
O24 Eu2 2.500 . S
O24 C7 1.273 . S
O25 Eu2 2.473 . S
O25 C7 1.257 . S
H26 C12 0.929 . S
H27 C14 0.931 . S
H28 C16 0.929 . S
O29 Tb30 2.292 . S
O29 C32 1.255 . S
Tb30 O29 2.292 . S
Tb30 O46 2.326 . S
Tb30 O48 2.500 . S
Tb30 O49 2.473 1_565 S
Tb30 O52 2.324 1_556 S
Eu31 O35 2.292 1_565 S
Eu31 C36 2.852 . S
Eu31 O47 2.324 1_554 S
Eu31 O51 2.326 . S
Eu31 O53 2.500 . S
Eu31 O54 2.473 . S
C32 O29 1.255 . S
C32 O33 1.247 . S
O33 C32 1.247 . S
C34 O46 1.242 . S
C34 O47 1.258 . S
O35 Eu31 2.292 1_545 S
O35 C37 1.255 . S
C36 Eu31 2.852 . S
C36 C40 1.503 . S
C36 O53 1.273 . S
C36 O54 1.257 . S
C37 O35 1.255 . S
C37 O38 1.247 . S
O38 C37 1.247 . S
C39 O51 1.242 . S
C39 O52 1.258 . S
C40 C36 1.503 . S
C40 C41 1.379 . S
C40 C45 1.392 . S
C41 C40 1.379 . S
C41 C42 1.404 . S
C41 H55 0.929 . S
C42 C41 1.404 . S
C42 C43 1.389 . S
C43 C42 1.389 . S
C43 C44 1.399 . S
C43 H56 0.931 . S
C44 C43 1.399 . S
C44 C45 1.390 . S
C45 C40 1.392 . S
C45 C44 1.390 . S
C45 H57 0.929 . S
O46 Tb30 2.326 . S
O46 C34 1.242 . S
O47 Eu31 2.324 1_556 S
O47 C34 1.258 . S
O48 Tb30 2.500 . S
O48 C50 1.273 1_565 S
O49 Tb30 2.473 1_545 S
O49 C50 1.257 . S
C50 O48 1.273 1_545 S
C50 O49 1.257 . S
O51 Eu31 2.326 . S
O51 C39 1.242 . S
O52 Tb30 2.324 1_554 S
O52 C39 1.258 . S
O53 Eu31 2.500 . S
O53 C36 1.273 . S
O54 Eu31 2.473 . S
O54 C36 1.257 . S
H55 C41 0.929 . S
H56 C43 0.931 . S
H57 C45 0.929 . S
O58 Tb59 2.292 . S
O58 C61 1.255 . S
Tb59 O58 2.292 . S
Tb59 O75 2.326 . S
Tb59 O77 2.500 . S
Tb59 O78 2.473 1_565 S
Tb59 O81 2.324 . S
Eu60 O64 2.292 1_565 S
Eu60 C65 2.852 . S
Eu60 O76 2.324 . S
Eu60 O80 2.326 . S
Eu60 O82 2.500 . S
Eu60 O83 2.473 . S
C61 O58 1.255 . S
C61 O62 1.247 . S
O62 C61 1.247 . S
C63 O75 1.242 . S
C63 O76 1.258 . S
O64 Eu60 2.292 1_545 S
O64 C66 1.255 . S
C65 Eu60 2.852 . S
C65 C69 1.503 . S
C65 O82 1.273 . S
C65 O83 1.257 . S
C66 O64 1.255 . S
C66 O67 1.247 . S
O67 C66 1.247 . S
C68 O80 1.242 . S
C68 O81 1.258 . S
C69 C65 1.503 . S
C69 C70 1.379 . S
C69 C74 1.392 . S
C70 C69 1.379 . S
C70 C71 1.404 . S
C70 H84 0.929 . S
C71 C70 1.404 . S
C71 C72 1.389 . S
C72 C71 1.389 . S
C72 C73 1.399 . S
C72 H85 0.931 . S
C73 C72 1.399 . S
C73 C74 1.390 . S
C74 C69 1.392 . S
C74 C73 1.390 . S
C74 H86 0.929 . S
O75 Tb59 2.326 . S
O75 C63 1.242 . S
O76 Eu60 2.324 . S
O76 C63 1.258 . S
O77 Tb59 2.500 . S
O77 C79 1.273 1_565 S
O78 Tb59 2.473 1_545 S
O78 C79 1.257 . S
C79 O77 1.273 1_545 S
C79 O78 1.257 . S
O80 Eu60 2.326 . S
O80 C68 1.242 . S
O81 Tb59 2.324 . S
O81 C68 1.258 . S
O82 Eu60 2.500 . S
O82 C65 1.273 . S
O83 Eu60 2.473 . S
O83 C65 1.257 . S
H84 C70 0.929 . S
H85 C72 0.931 . S
H86 C74 0.929 . S
O87 Tb88 2.292 . S
O87 C90 1.255 . S
Tb88 O87 2.292 . S
Tb88 O104 2.326 . S
Tb88 O106 2.500 . S
Tb88 O107 2.473 . S
Tb88 O110 2.324 . S
Eu89 O93 2.292 . S
Eu89 C94 2.852 . S
Eu89 O105 2.324 . S
Eu89 O109 2.326 . S
Eu89 O111 2.500 . S
Eu89 O112 2.473 . S
C90 O87 1.255 . S
C90 O91 1.247 . S
O91 C90 1.247 . S
C92 O104 1.242 . S
C92 O105 1.258 . S
O93 Eu89 2.292 . S
O93 C95 1.255 . S
C94 Eu89 2.852 . S
C94 C98 1.503 . S
C94 O111 1.273 . S
C94 O112 1.257 . S
C95 O93 1.255 . S
C95 O96 1.247 . S
O96 C95 1.247 . S
C97 O109 1.242 . S
C97 O110 1.258 . S
C98 C94 1.503 . S
C98 C99 1.379 . S
C98 C103 1.392 . S
C99 C98 1.379 . S
C99 C100 1.404 . S
C99 H113 0.929 . S
C100 C99 1.404 . S
C100 C101 1.389 . S
C101 C100 1.389 . S
C101 C102 1.399 . S
C101 H114 0.931 . S
C102 C101 1.399 . S
C102 C103 1.390 . S
C103 C98 1.392 . S
C103 C102 1.390 . S
C103 H115 0.929 . S
O104 Tb88 2.326 . S
O104 C92 1.242 . S
O105 Eu89 2.324 . S
O105 C92 1.258 . S
O106 Tb88 2.500 . S
O106 C108 1.273 . S
O107 Tb88 2.473 . S
O107 C108 1.257 . S
C108 O106 1.273 . S
C108 O107 1.257 . S
O109 Eu89 2.326 . S
O109 C97 1.242 . S
O110 Tb88 2.324 . S
O110 C97 1.258 . S
O111 Eu89 2.500 . S
O111 C94 1.273 . S
O112 Eu89 2.473 . S
O112 C94 1.257 . S
H113 C99 0.929 . S
H114 C101 0.931 . S
H115 C103 0.929 . S
O116 Tb117 2.292 . S
O116 C119 1.255 . S
Tb117 O116 2.292 . S
Tb117 O133 2.326 . S
Tb117 O135 2.500 . S
Tb117 O136 2.473 . S
Tb117 O139 2.324 1_554 S
Eu118 O122 2.292 . S
Eu118 C123 2.852 . S
Eu118 O134 2.324 1_556 S
Eu118 O138 2.326 . S
Eu118 O140 2.500 . S
Eu118 O141 2.473 . S
C119 O116 1.255 . S
C119 O120 1.247 . S
O120 C119 1.247 . S
C121 O133 1.242 . S
C121 O134 1.258 . S
O122 Eu118 2.292 . S
O122 C124 1.255 . S
C123 Eu118 2.852 . S
C123 C127 1.503 . S
C123 O140 1.273 . S
C123 O141 1.257 . S
C124 O122 1.255 . S
C124 O125 1.247 . S
O125 C124 1.247 . S
C126 O138 1.242 . S
C126 O139 1.258 . S
C127 C123 1.503 . S
C127 C128 1.379 . S
C127 C132 1.392 . S
C128 C127 1.379 . S
C128 C129 1.404 . S
C128 H142 0.929 . S
C129 C128 1.404 . S
C129 C130 1.389 . S
C130 C129 1.389 . S
C130 C131 1.399 . S
C130 H143 0.931 . S
C131 C130 1.399 . S
C131 C132 1.390 . S
C132 C127 1.392 . S
C132 C131 1.390 . S
C132 H144 0.929 . S
O133 Tb117 2.326 . S
O133 C121 1.242 . S
O134 Eu118 2.324 1_554 S
O134 C121 1.258 . S
O135 Tb117 2.500 . S
O135 C137 1.273 . S
O136 Tb117 2.473 . S
O136 C137 1.257 . S
C137 O135 1.273 . S
C137 O136 1.257 . S
O138 Eu118 2.326 . S
O138 C126 1.242 . S
O139 Tb117 2.324 1_556 S
O139 C126 1.258 . S
O140 Eu118 2.500 . S
O140 C123 1.273 . S
O141 Eu118 2.473 . S
O141 C123 1.257 . S
H142 C128 0.929 . S
H143 C130 0.931 . S
H144 C132 0.929 . S
O145 Tb146 2.292 . S
O145 C148 1.255 . S
Tb146 O145 2.292 . S
Tb146 O162 2.326 . S
Tb146 O164 2.500 . S
Tb146 O165 2.473 1_545 S
Tb146 O168 2.324 1_554 S
Eu147 O151 2.292 1_545 S
Eu147 C152 2.852 . S
Eu147 O163 2.324 1_556 S
Eu147 O167 2.326 . S
Eu147 O169 2.500 . S
Eu147 O170 2.473 . S
C148 O145 1.255 . S
C148 O149 1.247 . S
O149 C148 1.247 . S
C150 O162 1.242 . S
C150 O163 1.258 . S
O151 Eu147 2.292 1_565 S
O151 C153 1.255 . S
C152 Eu147 2.852 . S
C152 C156 1.503 . S
C152 O169 1.273 . S
C152 O170 1.257 . S
C153 O151 1.255 . S
C153 O154 1.247 . S
O154 C153 1.247 . S
C155 O167 1.242 . S
C155 O168 1.258 . S
C156 C152 1.503 . S
C156 C157 1.379 . S
C156 C161 1.392 . S
C157 C156 1.379 . S
C157 C158 1.404 . S
C157 H171 0.929 . S
C158 C157 1.404 . S
C158 C159 1.389 . S
C159 C158 1.389 . S
C159 C160 1.399 . S
C159 H172 0.931 . S
C160 C159 1.399 . S
C160 C161 1.390 . S
C161 C156 1.392 . S
C161 C160 1.390 . S
C161 H173 0.929 . S
O162 Tb146 2.326 . S
O162 C150 1.242 . S
O163 Eu147 2.324 1_554 S
O163 C150 1.258 . S
O164 Tb146 2.500 . S
O164 C166 1.273 1_545 S
O165 Tb146 2.473 1_565 S
O165 C166 1.257 . S
C166 O164 1.273 1_565 S
C166 O165 1.257 . S
O167 Eu147 2.326 . S
O167 C155 1.242 . S
O168 Tb146 2.324 1_556 S
O168 C155 1.258 . S
O169 Eu147 2.500 . S
O169 C152 1.273 . S
O170 Eu147 2.473 . S
O170 C152 1.257 . S
H171 C157 0.929 . S
H172 C159 0.931 . S
H173 C161 0.929 . S
O174 Tb175 2.292 . S
O174 C177 1.255 . S
Tb175 O174 2.292 . S
Tb175 O191 2.326 . S
Tb175 O193 2.500 . S
Tb175 O194 2.473 1_545 S
Tb175 O197 2.324 . S
Eu176 O180 2.292 1_545 S
Eu176 C181 2.852 . S
Eu176 O192 2.324 . S
Eu176 O196 2.326 . S
Eu176 O198 2.500 . S
Eu176 O199 2.473 . S
C177 O174 1.255 . S
C177 O178 1.247 . S
O178 C177 1.247 . S
C179 O191 1.242 . S
C179 O192 1.258 . S
O180 Eu176 2.292 1_565 S
O180 C182 1.255 . S
C181 Eu176 2.852 . S
C181 C185 1.503 . S
C181 O198 1.273 . S
C181 O199 1.257 . S
C182 O180 1.255 . S
C182 O183 1.247 . S
O183 C182 1.247 . S
C184 O196 1.242 . S
C184 O197 1.258 . S
C185 C181 1.503 . S
C185 C186 1.379 . S
C185 C190 1.392 . S
C186 C185 1.379 . S
C186 C187 1.404 . S
C186 H200 0.929 . S
C187 C186 1.404 . S
C187 C188 1.389 . S
C188 C187 1.389 . S
C188 C189 1.399 . S
C188 H201 0.931 . S
C189 C188 1.399 . S
C189 C190 1.390 . S
C190 C185 1.392 . S
C190 C189 1.390 . S
C190 H202 0.929 . S
O191 Tb175 2.326 . S
O191 C179 1.242 . S
O192 Eu176 2.324 . S
O192 C179 1.258 . S
O193 Tb175 2.500 . S
O193 C195 1.273 1_545 S
O194 Tb175 2.473 1_565 S
O194 C195 1.257 . S
C195 O193 1.273 1_565 S
C195 O194 1.257 . S
O196 Eu176 2.326 . S
O196 C184 1.242 . S
O197 Tb175 2.324 . S
O197 C184 1.258 . S
O198 Eu176 2.500 . S
O198 C181 1.273 . S
O199 Eu176 2.473 . S
O199 C181 1.257 . S
H200 C186 0.929 . S
H201 C188 0.931 . S
H202 C190 0.929 . S
O203 Tb204 2.292 . S
O203 C206 1.255 . S
Tb204 O203 2.292 . S
Tb204 O220 2.326 . S
Tb204 O222 2.500 . S
Tb204 O223 2.473 . S
Tb204 O226 2.324 . S
Eu205 O209 2.292 . S
Eu205 C210 2.852 . S
Eu205 O221 2.324 . S
Eu205 O225 2.326 . S
Eu205 O227 2.500 . S
Eu205 O228 2.473 . S
C206 O203 1.255 . S
C206 O207 1.247 . S
O207 C206 1.247 . S
C208 O220 1.242 . S
C208 O221 1.258 . S
O209 Eu205 2.292 . S
O209 C211 1.255 . S
C210 Eu205 2.852 . S
C210 C214 1.503 . S
C210 O227 1.273 . S
C210 O228 1.257 . S
C211 O209 1.255 . S
C211 O212 1.247 . S
O212 C211 1.247 . S
C213 O225 1.242 . S
C213 O226 1.258 . S
C214 C210 1.503 . S
C214 C215 1.379 . S
C214 C219 1.392 . S
C215 C214 1.379 . S
C215 C216 1.404 . S
C215 H229 0.929 . S
C216 C215 1.404 . S
C216 C217 1.389 . S
C217 C216 1.389 . S
C217 C218 1.399 . S
C217 H230 0.931 . S
C218 C217 1.399 . S
C218 C219 1.390 . S
C219 C214 1.392 . S
C219 C218 1.390 . S
C219 H231 0.929 . S
O220 Tb204 2.326 . S
O220 C208 1.242 . S
O221 Eu205 2.324 . S
O221 C208 1.258 . S
O222 Tb204 2.500 . S
O222 C224 1.273 . S
O223 Tb204 2.473 . S
O223 C224 1.257 . S
C224 O222 1.273 . S
C224 O223 1.257 . S
O225 Eu205 2.326 . S
O225 C213 1.242 . S
O226 Tb204 2.324 . S
O226 C213 1.258 . S
O227 Eu205 2.500 . S
O227 C210 1.273 . S
O228 Eu205 2.473 . S
O228 C210 1.257 . S
H229 C215 0.929 . S
H230 C217 0.931 . S
H231 C219 0.929 . S
O232 Tb233 2.292 . S
O232 C235 1.255 . S
Tb233 O232 2.292 . S
Tb233 O249 2.326 . S
Tb233 O251 2.500 . S
Tb233 O252 2.473 . S
Tb233 O255 2.324 . S
Eu234 O238 2.292 . S
Eu234 C239 2.852 . S
Eu234 O250 2.324 . S
Eu234 O254 2.326 . S
Eu234 O256 2.500 . S
Eu234 O257 2.473 . S
C235 O232 1.255 . S
C235 O236 1.247 . S
O236 C235 1.247 . S
C237 O249 1.242 . S
C237 O250 1.258 . S
O238 Eu234 2.292 . S
O238 C240 1.255 . S
C239 Eu234 2.852 . S
C239 C243 1.503 . S
C239 O256 1.273 . S
C239 O257 1.257 . S
C240 O238 1.255 . S
C240 O241 1.247 . S
O241 C240 1.247 . S
C242 O254 1.242 . S
C242 O255 1.258 . S
C243 C239 1.503 . S
C243 C244 1.379 . S
C243 C248 1.392 . S
C244 C243 1.379 . S
C244 C245 1.404 . S
C244 H258 0.929 . S
C245 C244 1.404 . S
C245 C246 1.389 . S
C246 C245 1.389 . S
C246 C247 1.399 . S
C246 H259 0.931 . S
C247 C246 1.399 . S
C247 C248 1.390 . S
C248 C243 1.392 . S
C248 C247 1.390 . S
C248 H260 0.929 . S
O249 Tb233 2.326 . S
O249 C237 1.242 . S
O250 Eu234 2.324 . S
O250 C237 1.258 . S
O251 Tb233 2.500 . S
O251 C253 1.273 . S
O252 Tb233 2.473 . S
O252 C253 1.257 . S
C253 O251 1.273 . S
C253 O252 1.257 . S
O254 Eu234 2.326 . S
O254 C242 1.242 . S
O255 Tb233 2.324 . S
O255 C242 1.258 . S
O256 Eu234 2.500 . S
O256 C239 1.273 . S
O257 Eu234 2.473 . S
O257 C239 1.257 . S
H258 C244 0.929 . S
H259 C246 0.931 . S
H260 C248 0.929 . S
O261 Tb262 2.292 . S
O261 C264 1.255 . S
Tb262 O261 2.292 . S
Tb262 O278 2.326 . S
Tb262 O280 2.500 . S
Tb262 O281 2.473 . S
Tb262 O284 2.324 . S
Eu263 O267 2.292 . S
Eu263 C268 2.852 . S
Eu263 O279 2.324 . S
Eu263 O283 2.326 . S
Eu263 O285 2.500 . S
Eu263 O286 2.473 . S
C264 O261 1.255 . S
C264 O265 1.247 . S
O265 C264 1.247 . S
C266 O278 1.242 . S
C266 O279 1.258 . S
O267 Eu263 2.292 . S
O267 C269 1.255 . S
C268 Eu263 2.852 . S
C268 C272 1.503 . S
C268 O285 1.273 . S
C268 O286 1.257 . S
C269 O267 1.255 . S
C269 O270 1.247 . S
O270 C269 1.247 . S
C271 O283 1.242 . S
C271 O284 1.258 . S
C272 C268 1.503 . S
C272 C273 1.379 . S
C272 C277 1.392 . S
C273 C272 1.379 . S
C273 C274 1.404 . S
C273 H287 0.929 . S
C274 C273 1.404 . S
C274 C275 1.389 . S
C275 C274 1.389 . S
C275 C276 1.399 . S
C275 H288 0.931 . S
C276 C275 1.399 . S
C276 C277 1.390 . S
C277 C272 1.392 . S
C277 C276 1.390 . S
C277 H289 0.929 . S
O278 Tb262 2.326 . S
O278 C266 1.242 . S
O279 Eu263 2.324 . S
O279 C266 1.258 . S
O280 Tb262 2.500 . S
O280 C282 1.273 . S
O281 Tb262 2.473 . S
O281 C282 1.257 . S
C282 O280 1.273 . S
C282 O281 1.257 . S
O283 Eu263 2.326 . S
O283 C271 1.242 . S
O284 Tb262 2.324 . S
O284 C271 1.258 . S
O285 Eu263 2.500 . S
O285 C268 1.273 . S
O286 Eu263 2.473 . S
O286 C268 1.257 . S
H287 C273 0.929 . S
H288 C275 0.931 . S
H289 C277 0.929 . S
O290 Tb291 2.292 . S
O290 C293 1.255 . S
Tb291 O290 2.292 . S
Tb291 O307 2.326 . S
Tb291 O309 2.500 . S
Tb291 O310 2.473 . S
Tb291 O313 2.324 . S
Eu292 O296 2.292 . S
Eu292 C297 2.852 . S
Eu292 O308 2.324 . S
Eu292 O312 2.326 . S
Eu292 O314 2.500 . S
Eu292 O315 2.473 . S
C293 O290 1.255 . S
C293 O294 1.247 . S
O294 C293 1.247 . S
C295 O307 1.242 . S
C295 O308 1.258 . S
O296 Eu292 2.292 . S
O296 C298 1.255 . S
C297 Eu292 2.852 . S
C297 C301 1.503 . S
C297 O314 1.273 . S
C297 O315 1.257 . S
C298 O296 1.255 . S
C298 O299 1.247 . S
O299 C298 1.247 . S
C300 O312 1.242 . S
C300 O313 1.258 . S
C301 C297 1.503 . S
C301 C302 1.379 . S
C301 C306 1.392 . S
C302 C301 1.379 . S
C302 C303 1.404 . S
C302 H316 0.929 . S
C303 C302 1.404 . S
C303 C304 1.389 . S
C304 C303 1.389 . S
C304 C305 1.399 . S
C304 H317 0.931 . S
C305 C304 1.399 . S
C305 C306 1.390 . S
C306 C301 1.392 . S
C306 C305 1.390 . S
C306 H318 0.929 . S
O307 Tb291 2.326 . S
O307 C295 1.242 . S
O308 Eu292 2.324 . S
O308 C295 1.258 . S
O309 Tb291 2.500 . S
O309 C311 1.273 . S
O310 Tb291 2.473 . S
O310 C311 1.257 . S
C311 O309 1.273 . S
C311 O310 1.257 . S
O312 Eu292 2.326 . S
O312 C300 1.242 . S
O313 Tb291 2.324 . S
O313 C300 1.258 . S
O314 Eu292 2.500 . S
O314 C297 1.273 . S
O315 Eu292 2.473 . S
O315 C297 1.257 . S
H316 C302 0.929 . S
H317 C304 0.931 . S
H318 C306 0.929 . S
O319 Tb320 2.292 . S
O319 C322 1.255 . S
Tb320 O319 2.292 . S
Tb320 O336 2.326 . S
Tb320 O338 2.500 . S
Tb320 O339 2.473 . S
Tb320 O342 2.324 . S
Eu321 O325 2.292 . S
Eu321 C326 2.852 . S
Eu321 O337 2.324 . S
Eu321 O341 2.326 . S
Eu321 O343 2.500 . S
Eu321 O344 2.473 . S
C322 O319 1.255 . S
C322 O323 1.247 . S
O323 C322 1.247 . S
C324 O336 1.242 . S
C324 O337 1.258 . S
O325 Eu321 2.292 . S
O325 C327 1.255 . S
C326 Eu321 2.852 . S
C326 C330 1.503 . S
C326 O343 1.273 . S
C326 O344 1.257 . S
C327 O325 1.255 . S
C327 O328 1.247 . S
O328 C327 1.247 . S
C329 O341 1.242 . S
C329 O342 1.258 . S
C330 C326 1.503 . S
C330 C331 1.379 . S
C330 C335 1.392 . S
C331 C330 1.379 . S
C331 C332 1.404 . S
C331 H345 0.929 . S
C332 C331 1.404 . S
C332 C333 1.389 . S
C333 C332 1.389 . S
C333 C334 1.399 . S
C333 H346 0.931 . S
C334 C333 1.399 . S
C334 C335 1.390 . S
C335 C330 1.392 . S
C335 C334 1.390 . S
C335 H347 0.929 . S
O336 Tb320 2.326 . S
O336 C324 1.242 . S
O337 Eu321 2.324 . S
O337 C324 1.258 . S
O338 Tb320 2.500 . S
O338 C340 1.273 . S
O339 Tb320 2.473 . S
O339 C340 1.257 . S
C340 O338 1.273 . S
C340 O339 1.257 . S
O341 Eu321 2.326 . S
O341 C329 1.242 . S
O342 Tb320 2.324 . S
O342 C329 1.258 . S
O343 Eu321 2.500 . S
O343 C326 1.273 . S
O344 Eu321 2.473 . S
O344 C326 1.257 . S
H345 C331 0.929 . S
H346 C333 0.931 . S
H347 C335 0.929 . S
O348 Tb349 2.292 . S
O348 C351 1.255 . S
Tb349 O348 2.292 . S
Tb349 O365 2.326 . S
Tb349 O367 2.500 . S
Tb349 O368 2.473 . S
Tb349 O371 2.324 . S
Eu350 O354 2.292 . S
Eu350 C355 2.852 . S
Eu350 O366 2.324 . S
Eu350 O370 2.326 . S
Eu350 O372 2.500 . S
Eu350 O373 2.473 . S
C351 O348 1.255 . S
C351 O352 1.247 . S
O352 C351 1.247 . S
C353 O365 1.242 . S
C353 O366 1.258 . S
O354 Eu350 2.292 . S
O354 C356 1.255 . S
C355 Eu350 2.852 . S
C355 C359 1.503 . S
C355 O372 1.273 . S
C355 O373 1.257 . S
C356 O354 1.255 . S
C356 O357 1.247 . S
O357 C356 1.247 . S
C358 O370 1.242 . S
C358 O371 1.258 . S
C359 C355 1.503 . S
C359 C360 1.379 . S
C359 C364 1.392 . S
C360 C359 1.379 . S
C360 C361 1.404 . S
C360 H374 0.929 . S
C361 C360 1.404 . S
C361 C362 1.389 . S
C362 C361 1.389 . S
C362 C363 1.399 . S
C362 H375 0.931 . S
C363 C362 1.399 . S
C363 C364 1.390 . S
C364 C359 1.392 . S
C364 C363 1.390 . S
C364 H376 0.929 . S
O365 Tb349 2.326 . S
O365 C353 1.242 . S
O366 Eu350 2.324 . S
O366 C353 1.258 . S
O367 Tb349 2.500 . S
O367 C369 1.273 . S
O368 Tb349 2.473 . S
O368 C369 1.257 . S
C369 O367 1.273 . S
C369 O368 1.257 . S
O370 Eu350 2.326 . S
O370 C358 1.242 . S
O371 Tb349 2.324 . S
O371 C358 1.258 . S
O372 Eu350 2.500 . S
O372 C355 1.273 . S
O373 Eu350 2.473 . S
O373 C355 1.257 . S
H374 C360 0.929 . S
H375 C362 0.931 . S
H376 C364 0.929 . S
O377 Tb378 2.292 . S
O377 C380 1.255 . S
Tb378 O377 2.292 . S
Tb378 O394 2.326 . S
Tb378 O396 2.500 . S
Tb378 O397 2.473 . S
Tb378 O400 2.324 . S
Eu379 O383 2.292 . S
Eu379 C384 2.852 . S
Eu379 O395 2.324 . S
Eu379 O399 2.326 . S
Eu379 O401 2.500 . S
Eu379 O402 2.473 . S
C380 O377 1.255 . S
C380 O381 1.247 . S
O381 C380 1.247 . S
C382 O394 1.242 . S
C382 O395 1.258 . S
O383 Eu379 2.292 . S
O383 C385 1.255 . S
C384 Eu379 2.852 . S
C384 C388 1.503 . S
C384 O401 1.273 . S
C384 O402 1.257 . S
C385 O383 1.255 . S
C385 O386 1.247 . S
O386 C385 1.247 . S
C387 O399 1.242 . S
C387 O400 1.258 . S
C388 C384 1.503 . S
C388 C389 1.379 . S
C388 C393 1.392 . S
C389 C388 1.379 . S
C389 C390 1.404 . S
C389 H403 0.929 . S
C390 C389 1.404 . S
C390 C391 1.389 . S
C391 C390 1.389 . S
C391 C392 1.399 . S
C391 H404 0.931 . S
C392 C391 1.399 . S
C392 C393 1.390 . S
C393 C388 1.392 . S
C393 C392 1.390 . S
C393 H405 0.929 . S
O394 Tb378 2.326 . S
O394 C382 1.242 . S
O395 Eu379 2.324 . S
O395 C382 1.258 . S
O396 Tb378 2.500 . S
O396 C398 1.273 . S
O397 Tb378 2.473 . S
O397 C398 1.257 . S
C398 O396 1.273 . S
C398 O397 1.257 . S
O399 Eu379 2.326 . S
O399 C387 1.242 . S
O400 Tb378 2.324 . S
O400 C387 1.258 . S
O401 Eu379 2.500 . S
O401 C384 1.273 . S
O402 Eu379 2.473 . S
O402 C384 1.257 . S
H403 C389 0.929 . S
H404 C391 0.931 . S
H405 C393 0.929 . S
O406 Tb407 2.292 . S
O406 C409 1.255 . S
Tb407 O406 2.292 . S
Tb407 O423 2.326 . S
Tb407 O425 2.500 . S
Tb407 O426 2.473 . S
Tb407 O429 2.324 . S
Eu408 O412 2.292 . S
Eu408 C413 2.852 . S
Eu408 O424 2.324 . S
Eu408 O428 2.326 . S
Eu408 O430 2.500 . S
Eu408 O431 2.473 . S
C409 O406 1.255 . S
C409 O410 1.247 . S
O410 C409 1.247 . S
C411 O423 1.242 . S
C411 O424 1.258 . S
O412 Eu408 2.292 . S
O412 C414 1.255 . S
C413 Eu408 2.852 . S
C413 C417 1.503 . S
C413 O430 1.273 . S
C413 O431 1.257 . S
C414 O412 1.255 . S
C414 O415 1.247 . S
O415 C414 1.247 . S
C416 O428 1.242 . S
C416 O429 1.258 . S
C417 C413 1.503 . S
C417 C418 1.379 . S
C417 C422 1.392 . S
C418 C417 1.379 . S
C418 C419 1.404 . S
C418 H432 0.929 . S
C419 C418 1.404 . S
C419 C420 1.389 . S
C420 C419 1.389 . S
C420 C421 1.399 . S
C420 H433 0.931 . S
C421 C420 1.399 . S
C421 C422 1.390 . S
C422 C417 1.392 . S
C422 C421 1.390 . S
C422 H434 0.929 . S
O423 Tb407 2.326 . S
O423 C411 1.242 . S
O424 Eu408 2.324 . S
O424 C411 1.258 . S
O425 Tb407 2.500 . S
O425 C427 1.273 . S
O426 Tb407 2.473 . S
O426 C427 1.257 . S
C427 O425 1.273 . S
C427 O426 1.257 . S
O428 Eu408 2.326 . S
O428 C416 1.242 . S
O429 Tb407 2.324 . S
O429 C416 1.258 . S
O430 Eu408 2.500 . S
O430 C413 1.273 . S
O431 Eu408 2.473 . S
O431 C413 1.257 . S
H432 C418 0.929 . S
H433 C420 0.931 . S
H434 C422 0.929 . S
O435 Tb436 2.292 . S
O435 C438 1.255 . S
Tb436 O435 2.292 . S
Tb436 O452 2.326 . S
Tb436 O454 2.500 . S
Tb436 O455 2.473 . S
Tb436 O458 2.324 . S
Eu437 O441 2.292 . S
Eu437 C442 2.852 . S
Eu437 O453 2.324 . S
Eu437 O457 2.326 . S
Eu437 O459 2.500 . S
Eu437 O460 2.473 . S
C438 O435 1.255 . S
C438 O439 1.247 . S
O439 C438 1.247 . S
C440 O452 1.242 . S
C440 O453 1.258 . S
O441 Eu437 2.292 . S
O441 C443 1.255 . S
C442 Eu437 2.852 . S
C442 C446 1.503 . S
C442 O459 1.273 . S
C442 O460 1.257 . S
C443 O441 1.255 . S
C443 O444 1.247 . S
O444 C443 1.247 . S
C445 O457 1.242 . S
C445 O458 1.258 . S
C446 C442 1.503 . S
C446 C447 1.379 . S
C446 C451 1.392 . S
C447 C446 1.379 . S
C447 C448 1.404 . S
C447 H461 0.929 . S
C448 C447 1.404 . S
C448 C449 1.389 . S
C449 C448 1.389 . S
C449 C450 1.399 . S
C449 H462 0.931 . S
C450 C449 1.399 . S
C450 C451 1.390 . S
C451 C446 1.392 . S
C451 C450 1.390 . S
C451 H463 0.929 . S
O452 Tb436 2.326 . S
O452 C440 1.242 . S
O453 Eu437 2.324 . S
O453 C440 1.258 . S
O454 Tb436 2.500 . S
O454 C456 1.273 . S
O455 Tb436 2.473 . S
O455 C456 1.257 . S
C456 O454 1.273 . S
C456 O455 1.257 . S
O457 Eu437 2.326 . S
O457 C445 1.242 . S
O458 Tb436 2.324 . S
O458 C445 1.258 . S
O459 Eu437 2.500 . S
O459 C442 1.273 . S
O460 Eu437 2.473 . S
O460 C442 1.257 . S
H461 C447 0.929 . S
H462 C449 0.931 . S
H463 C451 0.929 . S
O464 Tb465 2.292 . S
O464 C467 1.255 . S
Tb465 O464 2.292 . S
Tb465 O481 2.326 . S
Tb465 O483 2.500 . S
Tb465 O484 2.473 . S
Tb465 O487 2.324 . S
Eu466 O470 2.292 . S
Eu466 C471 2.852 . S
Eu466 O482 2.324 . S
Eu466 O486 2.326 . S
Eu466 O488 2.500 . S
Eu466 O489 2.473 . S
C467 O464 1.255 . S
C467 O468 1.247 . S
O468 C467 1.247 . S
C469 O481 1.242 . S
C469 O482 1.258 . S
O470 Eu466 2.292 . S
O470 C472 1.255 . S
C471 Eu466 2.852 . S
C471 C475 1.503 . S
C471 O488 1.273 . S
C471 O489 1.257 . S
C472 O470 1.255 . S
C472 O473 1.247 . S
O473 C472 1.247 . S
C474 O486 1.242 . S
C474 O487 1.258 . S
C475 C471 1.503 . S
C475 C476 1.379 . S
C475 C480 1.392 . S
C476 C475 1.379 . S
C476 C477 1.404 . S
C476 H490 0.929 . S
C477 C476 1.404 . S
C477 C478 1.389 . S
C478 C477 1.389 . S
C478 C479 1.399 . S
C478 H491 0.931 . S
C479 C478 1.399 . S
C479 C480 1.390 . S
C480 C475 1.392 . S
C480 C479 1.390 . S
C480 H492 0.929 . S
O481 Tb465 2.326 . S
O481 C469 1.242 . S
O482 Eu466 2.324 . S
O482 C469 1.258 . S
O483 Tb465 2.500 . S
O483 C485 1.273 . S
O484 Tb465 2.473 . S
O484 C485 1.257 . S
C485 O483 1.273 . S
C485 O484 1.257 . S
O486 Eu466 2.326 . S
O486 C474 1.242 . S
O487 Tb465 2.324 . S
O487 C474 1.258 . S
O488 Eu466 2.500 . S
O488 C471 1.273 . S
O489 Eu466 2.473 . S
O489 C471 1.257 . S
H490 C476 0.929 . S
H491 C478 0.931 . S
H492 C480 0.929 . S
O493 Tb494 2.292 . S
O493 C496 1.255 . S
Tb494 O493 2.292 . S
Tb494 O510 2.326 . S
Tb494 O512 2.500 . S
Tb494 O513 2.473 1_565 S
Tb494 O516 2.324 . S
Eu495 O499 2.292 1_565 S
Eu495 C500 2.852 . S
Eu495 O511 2.324 . S
Eu495 O515 2.326 . S
Eu495 O517 2.500 . S
Eu495 O518 2.473 . S
C496 O493 1.255 . S
C496 O497 1.247 . S
O497 C496 1.247 . S
C498 O510 1.242 . S
C498 O511 1.258 . S
O499 Eu495 2.292 1_545 S
O499 C501 1.255 . S
C500 Eu495 2.852 . S
C500 C504 1.503 . S
C500 O517 1.273 . S
C500 O518 1.257 . S
C501 O499 1.255 . S
C501 O502 1.247 . S
O502 C501 1.247 . S
C503 O515 1.242 . S
C503 O516 1.258 . S
C504 C500 1.503 . S
C504 C505 1.379 . S
C504 C509 1.392 . S
C505 C504 1.379 . S
C505 C506 1.404 . S
C505 H519 0.929 . S
C506 C505 1.404 . S
C506 C507 1.389 . S
C507 C506 1.389 . S
C507 C508 1.399 . S
C507 H520 0.931 . S
C508 C507 1.399 . S
C508 C509 1.390 . S
C509 C504 1.392 . S
C509 C508 1.390 . S
C509 H521 0.929 . S
O510 Tb494 2.326 . S
O510 C498 1.242 . S
O511 Eu495 2.324 . S
O511 C498 1.258 . S
O512 Tb494 2.500 . S
O512 C514 1.273 1_565 S
O513 Tb494 2.473 1_545 S
O513 C514 1.257 . S
C514 O512 1.273 1_545 S
C514 O513 1.257 . S
O515 Eu495 2.326 . S
O515 C503 1.242 . S
O516 Tb494 2.324 . S
O516 C503 1.258 . S
O517 Eu495 2.500 . S
O517 C500 1.273 . S
O518 Eu495 2.473 . S
O518 C500 1.257 . S
H519 C505 0.929 . S
H520 C507 0.931 . S
H521 C509 0.929 . S
O522 Tb523 2.292 . S
O522 C525 1.255 . S
Tb523 O522 2.292 . S
Tb523 O539 2.326 . S
Tb523 O541 2.500 . S
Tb523 O542 2.473 1_565 S
Tb523 O545 2.324 . S
Eu524 O528 2.292 1_565 S
Eu524 C529 2.852 . S
Eu524 O540 2.324 . S
Eu524 O544 2.326 . S
Eu524 O546 2.500 . S
Eu524 O547 2.473 . S
C525 O522 1.255 . S
C525 O526 1.247 . S
O526 C525 1.247 . S
C527 O539 1.242 . S
C527 O540 1.258 . S
O528 Eu524 2.292 1_545 S
O528 C530 1.255 . S
C529 Eu524 2.852 . S
C529 C533 1.503 . S
C529 O546 1.273 . S
C529 O547 1.257 . S
C530 O528 1.255 . S
C530 O531 1.247 . S
O531 C530 1.247 . S
C532 O544 1.242 . S
C532 O545 1.258 . S
C533 C529 1.503 . S
C533 C534 1.379 . S
C533 C538 1.392 . S
C534 C533 1.379 . S
C534 C535 1.404 . S
C534 H548 0.929 . S
C535 C534 1.404 . S
C535 C536 1.389 . S
C536 C535 1.389 . S
C536 C537 1.399 . S
C536 H549 0.931 . S
C537 C536 1.399 . S
C537 C538 1.390 . S
C538 C533 1.392 . S
C538 C537 1.390 . S
C538 H550 0.929 . S
O539 Tb523 2.326 . S
O539 C527 1.242 . S
O540 Eu524 2.324 . S
O540 C527 1.258 . S
O541 Tb523 2.500 . S
O541 C543 1.273 1_565 S
O542 Tb523 2.473 1_545 S
O542 C543 1.257 . S
C543 O541 1.273 1_545 S
C543 O542 1.257 . S
O544 Eu524 2.326 . S
O544 C532 1.242 . S
O545 Tb523 2.324 . S
O545 C532 1.258 . S
O546 Eu524 2.500 . S
O546 C529 1.273 . S
O547 Eu524 2.473 . S
O547 C529 1.257 . S
H548 C534 0.929 . S
H549 C536 0.931 . S
H550 C538 0.929 . S
O551 Tb552 2.292 . S
O551 C554 1.255 . S
Tb552 O551 2.292 . S
Tb552 O568 2.326 . S
Tb552 O570 2.500 . S
Tb552 O571 2.473 . S
Tb552 O574 2.324 . S
Eu553 O557 2.292 . S
Eu553 C558 2.852 . S
Eu553 O569 2.324 . S
Eu553 O573 2.326 . S
Eu553 O575 2.500 . S
Eu553 O576 2.473 . S
C554 O551 1.255 . S
C554 O555 1.247 . S
O555 C554 1.247 . S
C556 O568 1.242 . S
C556 O569 1.258 . S
O557 Eu553 2.292 . S
O557 C559 1.255 . S
C558 Eu553 2.852 . S
C558 C562 1.503 . S
C558 O575 1.273 . S
C558 O576 1.257 . S
C559 O557 1.255 . S
C559 O560 1.247 . S
O560 C559 1.247 . S
C561 O573 1.242 . S
C561 O574 1.258 . S
C562 C558 1.503 . S
C562 C563 1.379 . S
C562 C567 1.392 . S
C563 C562 1.379 . S
C563 C564 1.404 . S
C563 H577 0.929 . S
C564 C563 1.404 . S
C564 C565 1.389 . S
C565 C564 1.389 . S
C565 C566 1.399 . S
C565 H578 0.931 . S
C566 C565 1.399 . S
C566 C567 1.390 . S
C567 C562 1.392 . S
C567 C566 1.390 . S
C567 H579 0.929 . S
O568 Tb552 2.326 . S
O568 C556 1.242 . S
O569 Eu553 2.324 . S
O569 C556 1.258 . S
O570 Tb552 2.500 . S
O570 C572 1.273 . S
O571 Tb552 2.473 . S
O571 C572 1.257 . S
C572 O570 1.273 . S
C572 O571 1.257 . S
O573 Eu553 2.326 . S
O573 C561 1.242 . S
O574 Tb552 2.324 . S
O574 C561 1.258 . S
O575 Eu553 2.500 . S
O575 C558 1.273 . S
O576 Eu553 2.473 . S
O576 C558 1.257 . S
H577 C563 0.929 . S
H578 C565 0.931 . S
H579 C567 0.929 . S
O580 Tb581 2.292 . S
O580 C583 1.255 . S
Tb581 O580 2.292 . S
Tb581 O597 2.326 . S
Tb581 O599 2.500 . S
Tb581 O600 2.473 . S
Tb581 O603 2.324 . S
Eu582 O586 2.292 . S
Eu582 C587 2.852 . S
Eu582 O598 2.324 . S
Eu582 O602 2.326 . S
Eu582 O604 2.500 . S
Eu582 O605 2.473 . S
C583 O580 1.255 . S
C583 O584 1.247 . S
O584 C583 1.247 . S
C585 O597 1.242 . S
C585 O598 1.258 . S
O586 Eu582 2.292 . S
O586 C588 1.255 . S
C587 Eu582 2.852 . S
C587 C591 1.503 . S
C587 O604 1.273 . S
C587 O605 1.257 . S
C588 O586 1.255 . S
C588 O589 1.247 . S
O589 C588 1.247 . S
C590 O602 1.242 . S
C590 O603 1.258 . S
C591 C587 1.503 . S
C591 C592 1.379 . S
C591 C596 1.392 . S
C592 C591 1.379 . S
C592 C593 1.404 . S
C592 H606 0.929 . S
C593 C592 1.404 . S
C593 C594 1.389 . S
C594 C593 1.389 . S
C594 C595 1.399 . S
C594 H607 0.931 . S
C595 C594 1.399 . S
C595 C596 1.390 . S
C596 C591 1.392 . S
C596 C595 1.390 . S
C596 H608 0.929 . S
O597 Tb581 2.326 . S
O597 C585 1.242 . S
O598 Eu582 2.324 . S
O598 C585 1.258 . S
O599 Tb581 2.500 . S
O599 C601 1.273 . S
O600 Tb581 2.473 . S
O600 C601 1.257 . S
C601 O599 1.273 . S
C601 O600 1.257 . S
O602 Eu582 2.326 . S
O602 C590 1.242 . S
O603 Tb581 2.324 . S
O603 C590 1.258 . S
O604 Eu582 2.500 . S
O604 C587 1.273 . S
O605 Eu582 2.473 . S
O605 C587 1.257 . S
H606 C592 0.929 . S
H607 C594 0.931 . S
H608 C596 0.929 . S
O609 Tb610 2.292 . S
O609 C612 1.255 . S
Tb610 O609 2.292 . S
Tb610 O626 2.326 . S
Tb610 O628 2.500 . S
Tb610 O629 2.473 1_545 S
Tb610 O632 2.324 . S
Eu611 O615 2.292 1_545 S
Eu611 C616 2.852 . S
Eu611 O627 2.324 . S
Eu611 O631 2.326 . S
Eu611 O633 2.500 . S
Eu611 O634 2.473 . S
C612 O609 1.255 . S
C612 O613 1.247 . S
O613 C612 1.247 . S
C614 O626 1.242 . S
C614 O627 1.258 . S
O615 Eu611 2.292 1_565 S
O615 C617 1.255 . S
C616 Eu611 2.852 . S
C616 C620 1.503 . S
C616 O633 1.273 . S
C616 O634 1.257 . S
C617 O615 1.255 . S
C617 O618 1.247 . S
O618 C617 1.247 . S
C619 O631 1.242 . S
C619 O632 1.258 . S
C620 C616 1.503 . S
C620 C621 1.379 . S
C620 C625 1.392 . S
C621 C620 1.379 . S
C621 C622 1.404 . S
C621 H635 0.929 . S
C622 C621 1.404 . S
C622 C623 1.389 . S
C623 C622 1.389 . S
C623 C624 1.399 . S
C623 H636 0.931 . S
C624 C623 1.399 . S
C624 C625 1.390 . S
C625 C620 1.392 . S
C625 C624 1.390 . S
C625 H637 0.929 . S
O626 Tb610 2.326 . S
O626 C614 1.242 . S
O627 Eu611 2.324 . S
O627 C614 1.258 . S
O628 Tb610 2.500 . S
O628 C630 1.273 1_545 S
O629 Tb610 2.473 1_565 S
O629 C630 1.257 . S
C630 O628 1.273 1_565 S
C630 O629 1.257 . S
O631 Eu611 2.326 . S
O631 C619 1.242 . S
O632 Tb610 2.324 . S
O632 C619 1.258 . S
O633 Eu611 2.500 . S
O633 C616 1.273 . S
O634 Eu611 2.473 . S
O634 C616 1.257 . S
H635 C621 0.929 . S
H636 C623 0.931 . S
H637 C625 0.929 . S
O638 Tb639 2.292 . S
O638 C641 1.255 . S
Tb639 O638 2.292 . S
Tb639 O655 2.326 . S
Tb639 O657 2.500 . S
Tb639 O658 2.473 1_545 S
Tb639 O661 2.324 . S
Eu640 O644 2.292 1_545 S
Eu640 C645 2.852 . S
Eu640 O656 2.324 . S
Eu640 O660 2.326 . S
Eu640 O662 2.500 . S
Eu640 O663 2.473 . S
C641 O638 1.255 . S
C641 O642 1.247 . S
O642 C641 1.247 . S
C643 O655 1.242 . S
C643 O656 1.258 . S
O644 Eu640 2.292 1_565 S
O644 C646 1.255 . S
C645 Eu640 2.852 . S
C645 C649 1.503 . S
C645 O662 1.273 . S
C645 O663 1.257 . S
C646 O644 1.255 . S
C646 O647 1.247 . S
O647 C646 1.247 . S
C648 O660 1.242 . S
C648 O661 1.258 . S
C649 C645 1.503 . S
C649 C650 1.379 . S
C649 C654 1.392 . S
C650 C649 1.379 . S
C650 C651 1.404 . S
C650 H664 0.929 . S
C651 C650 1.404 . S
C651 C652 1.389 . S
C652 C651 1.389 . S
C652 C653 1.399 . S
C652 H665 0.931 . S
C653 C652 1.399 . S
C653 C654 1.390 . S
C654 C649 1.392 . S
C654 C653 1.390 . S
C654 H666 0.929 . S
O655 Tb639 2.326 . S
O655 C643 1.242 . S
O656 Eu640 2.324 . S
O656 C643 1.258 . S
O657 Tb639 2.500 . S
O657 C659 1.273 1_545 S
O658 Tb639 2.473 1_565 S
O658 C659 1.257 . S
C659 O657 1.273 1_565 S
C659 O658 1.257 . S
O660 Eu640 2.326 . S
O660 C648 1.242 . S
O661 Tb639 2.324 . S
O661 C648 1.258 . S
O662 Eu640 2.500 . S
O662 C645 1.273 . S
O663 Eu640 2.473 . S
O663 C645 1.257 . S
H664 C650 0.929 . S
H665 C652 0.931 . S
H666 C654 0.929 . S
O667 Tb668 2.292 . S
O667 C670 1.255 . S
Tb668 O667 2.292 . S
Tb668 O684 2.326 . S
Tb668 O686 2.500 . S
Tb668 O687 2.473 . S
Tb668 O690 2.324 . S
Eu669 O673 2.292 . S
Eu669 C674 2.852 . S
Eu669 O685 2.324 . S
Eu669 O689 2.326 . S
Eu669 O691 2.500 . S
Eu669 O692 2.473 . S
C670 O667 1.255 . S
C670 O671 1.247 . S
O671 C670 1.247 . S
C672 O684 1.242 . S
C672 O685 1.258 . S
O673 Eu669 2.292 . S
O673 C675 1.255 . S
C674 Eu669 2.852 . S
C674 C678 1.503 . S
C674 O691 1.273 . S
C674 O692 1.257 . S
C675 O673 1.255 . S
C675 O676 1.247 . S
O676 C675 1.247 . S
C677 O689 1.242 . S
C677 O690 1.258 . S
C678 C674 1.503 . S
C678 C679 1.379 . S
C678 C683 1.392 . S
C679 C678 1.379 . S
C679 C680 1.404 . S
C679 H693 0.929 . S
C680 C679 1.404 . S
C680 C681 1.389 . S
C681 C680 1.389 . S
C681 C682 1.399 . S
C681 H694 0.931 . S
C682 C681 1.399 . S
C682 C683 1.390 . S
C683 C678 1.392 . S
C683 C682 1.390 . S
C683 H695 0.929 . S
O684 Tb668 2.326 . S
O684 C672 1.242 . S
O685 Eu669 2.324 . S
O685 C672 1.258 . S
O686 Tb668 2.500 . S
O686 C688 1.273 . S
O687 Tb668 2.473 . S
O687 C688 1.257 . S
C688 O686 1.273 . S
C688 O687 1.257 . S
O689 Eu669 2.326 . S
O689 C677 1.242 . S
O690 Tb668 2.324 . S
O690 C677 1.258 . S
O691 Eu669 2.500 . S
O691 C674 1.273 . S
O692 Eu669 2.473 . S
O692 C674 1.257 . S
H693 C679 0.929 . S
H694 C681 0.931 . S
H695 C683 0.929 . S
O696 Tb697 2.292 . S
O696 C699 1.255 . S
Tb697 O696 2.292 . S
Tb697 O713 2.326 . S
Tb697 O715 2.500 . S
Tb697 O716 2.473 . S
Tb697 O719 2.324 1_556 S
Eu698 O702 2.292 . S
Eu698 C703 2.852 . S
Eu698 O714 2.324 1_554 S
Eu698 O718 2.326 . S
Eu698 O720 2.500 . S
Eu698 O721 2.473 . S
C699 O696 1.255 . S
C699 O700 1.247 . S
O700 C699 1.247 . S
C701 O713 1.242 . S
C701 O714 1.258 . S
O702 Eu698 2.292 . S
O702 C704 1.255 . S
C703 Eu698 2.852 . S
C703 C707 1.503 . S
C703 O720 1.273 . S
C703 O721 1.257 . S
C704 O702 1.255 . S
C704 O705 1.247 . S
O705 C704 1.247 . S
C706 O718 1.242 . S
C706 O719 1.258 . S
C707 C703 1.503 . S
C707 C708 1.379 . S
C707 C712 1.392 . S
C708 C707 1.379 . S
C708 C709 1.404 . S
C708 H722 0.929 . S
C709 C708 1.404 . S
C709 C710 1.389 . S
C710 C709 1.389 . S
C710 C711 1.399 . S
C710 H723 0.931 . S
C711 C710 1.399 . S
C711 C712 1.390 . S
C712 C707 1.392 . S
C712 C711 1.390 . S
C712 H724 0.929 . S
O713 Tb697 2.326 . S
O713 C701 1.242 . S
O714 Eu698 2.324 1_556 S
O714 C701 1.258 . S
O715 Tb697 2.500 . S
O715 C717 1.273 . S
O716 Tb697 2.473 . S
O716 C717 1.257 . S
C717 O715 1.273 . S
C717 O716 1.257 . S
O718 Eu698 2.326 . S
O718 C706 1.242 . S
O719 Tb697 2.324 1_554 S
O719 C706 1.258 . S
O720 Eu698 2.500 . S
O720 C703 1.273 . S
O721 Eu698 2.473 . S
O721 C703 1.257 . S
H722 C708 0.929 . S
H723 C710 0.931 . S
H724 C712 0.929 . S
O725 Tb726 2.292 . S
O725 C728 1.255 . S
Tb726 O725 2.292 . S
Tb726 O742 2.326 . S
Tb726 O744 2.500 . S
Tb726 O745 2.473 . S
Tb726 O748 2.324 1_556 S
Eu727 O731 2.292 . S
Eu727 C732 2.852 . S
Eu727 O743 2.324 1_554 S
Eu727 O747 2.326 . S
Eu727 O749 2.500 . S
Eu727 O750 2.473 . S
C728 O725 1.255 . S
C728 O729 1.247 . S
O729 C728 1.247 . S
C730 O742 1.242 . S
C730 O743 1.258 . S
O731 Eu727 2.292 . S
O731 C733 1.255 . S
C732 Eu727 2.852 . S
C732 C736 1.503 . S
C732 O749 1.273 . S
C732 O750 1.257 . S
C733 O731 1.255 . S
C733 O734 1.247 . S
O734 C733 1.247 . S
C735 O747 1.242 . S
C735 O748 1.258 . S
C736 C732 1.503 . S
C736 C737 1.379 . S
C736 C741 1.392 . S
C737 C736 1.379 . S
C737 C738 1.404 . S
C737 H751 0.929 . S
C738 C737 1.404 . S
C738 C739 1.389 . S
C739 C738 1.389 . S
C739 C740 1.399 . S
C739 H752 0.931 . S
C740 C739 1.399 . S
C740 C741 1.390 . S
C741 C736 1.392 . S
C741 C740 1.390 . S
C741 H753 0.929 . S
O742 Tb726 2.326 . S
O742 C730 1.242 . S
O743 Eu727 2.324 1_556 S
O743 C730 1.258 . S
O744 Tb726 2.500 . S
O744 C746 1.273 . S
O745 Tb726 2.473 . S
O745 C746 1.257 . S
C746 O744 1.273 . S
C746 O745 1.257 . S
O747 Eu727 2.326 . S
O747 C735 1.242 . S
O748 Tb726 2.324 1_554 S
O748 C735 1.258 . S
O749 Eu727 2.500 . S
O749 C732 1.273 . S
O750 Eu727 2.473 . S
O750 C732 1.257 . S
H751 C737 0.929 . S
H752 C739 0.931 . S
H753 C741 0.929 . S
O754 Tb755 2.292 . S
O754 C757 1.255 . S
Tb755 O754 2.292 . S
Tb755 O771 2.326 . S
Tb755 O773 2.500 . S
Tb755 O774 2.473 . S
Tb755 O777 2.324 . S
Eu756 O760 2.292 . S
Eu756 C761 2.852 . S
Eu756 O772 2.324 . S
Eu756 O776 2.326 . S
Eu756 O778 2.500 . S
Eu756 O779 2.473 . S
C757 O754 1.255 . S
C757 O758 1.247 . S
O758 C757 1.247 . S
C759 O771 1.242 . S
C759 O772 1.258 . S
O760 Eu756 2.292 . S
O760 C762 1.255 . S
C761 Eu756 2.852 . S
C761 C765 1.503 . S
C761 O778 1.273 . S
C761 O779 1.257 . S
C762 O760 1.255 . S
C762 O763 1.247 . S
O763 C762 1.247 . S
C764 O776 1.242 . S
C764 O777 1.258 . S
C765 C761 1.503 . S
C765 C766 1.379 . S
C765 C770 1.392 . S
C766 C765 1.379 . S
C766 C767 1.404 . S
C766 H780 0.929 . S
C767 C766 1.404 . S
C767 C768 1.389 . S
C768 C767 1.389 . S
C768 C769 1.399 . S
C768 H781 0.931 . S
C769 C768 1.399 . S
C769 C770 1.390 . S
C770 C765 1.392 . S
C770 C769 1.390 . S
C770 H782 0.929 . S
O771 Tb755 2.326 . S
O771 C759 1.242 . S
O772 Eu756 2.324 . S
O772 C759 1.258 . S
O773 Tb755 2.500 . S
O773 C775 1.273 . S
O774 Tb755 2.473 . S
O774 C775 1.257 . S
C775 O773 1.273 . S
C775 O774 1.257 . S
O776 Eu756 2.326 . S
O776 C764 1.242 . S
O777 Tb755 2.324 . S
O777 C764 1.258 . S
O778 Eu756 2.500 . S
O778 C761 1.273 . S
O779 Eu756 2.473 . S
O779 C761 1.257 . S
H780 C766 0.929 . S
H781 C768 0.931 . S
H782 C770 0.929 . S
O783 Tb784 2.292 . S
O783 C786 1.255 . S
Tb784 O783 2.292 . S
Tb784 O800 2.326 . S
Tb784 O802 2.500 . S
Tb784 O803 2.473 . S
Tb784 O806 2.324 . S
Eu785 O789 2.292 . S
Eu785 C790 2.852 . S
Eu785 O801 2.324 . S
Eu785 O805 2.326 . S
Eu785 O807 2.500 . S
Eu785 O808 2.473 . S
C786 O783 1.255 . S
C786 O787 1.247 . S
O787 C786 1.247 . S
C788 O800 1.242 . S
C788 O801 1.258 . S
O789 Eu785 2.292 . S
O789 C791 1.255 . S
C790 Eu785 2.852 . S
C790 C794 1.503 . S
C790 O807 1.273 . S
C790 O808 1.257 . S
C791 O789 1.255 . S
C791 O792 1.247 . S
O792 C791 1.247 . S
C793 O805 1.242 . S
C793 O806 1.258 . S
C794 C790 1.503 . S
C794 C795 1.379 . S
C794 C799 1.392 . S
C795 C794 1.379 . S
C795 C796 1.404 . S
C795 H809 0.929 . S
C796 C795 1.404 . S
C796 C797 1.389 . S
C797 C796 1.389 . S
C797 C798 1.399 . S
C797 H810 0.931 . S
C798 C797 1.399 . S
C798 C799 1.390 . S
C799 C794 1.392 . S
C799 C798 1.390 . S
C799 H811 0.929 . S
O800 Tb784 2.326 . S
O800 C788 1.242 . S
O801 Eu785 2.324 . S
O801 C788 1.258 . S
O802 Tb784 2.500 . S
O802 C804 1.273 . S
O803 Tb784 2.473 . S
O803 C804 1.257 . S
C804 O802 1.273 . S
C804 O803 1.257 . S
O805 Eu785 2.326 . S
O805 C793 1.242 . S
O806 Tb784 2.324 . S
O806 C793 1.258 . S
O807 Eu785 2.500 . S
O807 C790 1.273 . S
O808 Eu785 2.473 . S
O808 C790 1.257 . S
H809 C795 0.929 . S
H810 C797 0.931 . S
H811 C799 0.929 . S
O812 Tb813 2.292 . S
O812 C815 1.255 . S
Tb813 O812 2.292 . S
Tb813 O829 2.326 . S
Tb813 O831 2.500 . S
Tb813 O832 2.473 . S
Tb813 O835 2.324 1_554 S
Eu814 O818 2.292 . S
Eu814 C819 2.852 . S
Eu814 O830 2.324 1_556 S
Eu814 O834 2.326 . S
Eu814 O836 2.500 . S
Eu814 O837 2.473 . S
C815 O812 1.255 . S
C815 O816 1.247 . S
O816 C815 1.247 . S
C817 O829 1.242 . S
C817 O830 1.258 . S
O818 Eu814 2.292 . S
O818 C820 1.255 . S
C819 Eu814 2.852 . S
C819 C823 1.503 . S
C819 O836 1.273 . S
C819 O837 1.257 . S
C820 O818 1.255 . S
C820 O821 1.247 . S
O821 C820 1.247 . S
C822 O834 1.242 . S
C822 O835 1.258 . S
C823 C819 1.503 . S
C823 C824 1.379 . S
C823 C828 1.392 . S
C824 C823 1.379 . S
C824 C825 1.404 . S
C824 H838 0.929 . S
C825 C824 1.404 . S
C825 C826 1.389 . S
C826 C825 1.389 . S
C826 C827 1.399 . S
C826 H839 0.931 . S
C827 C826 1.399 . S
C827 C828 1.390 . S
C828 C823 1.392 . S
C828 C827 1.390 . S
C828 H840 0.929 . S
O829 Tb813 2.326 . S
O829 C817 1.242 . S
O830 Eu814 2.324 1_554 S
O830 C817 1.258 . S
O831 Tb813 2.500 . S
O831 C833 1.273 . S
O832 Tb813 2.473 . S
O832 C833 1.257 . S
C833 O831 1.273 . S
C833 O832 1.257 . S
O834 Eu814 2.326 . S
O834 C822 1.242 . S
O835 Tb813 2.324 1_556 S
O835 C822 1.258 . S
O836 Eu814 2.500 . S
O836 C819 1.273 . S
O837 Eu814 2.473 . S
O837 C819 1.257 . S
H838 C824 0.929 . S
H839 C826 0.931 . S
H840 C828 0.929 . S
O841 Tb842 2.292 . S
O841 C844 1.255 . S
Tb842 O841 2.292 . S
Tb842 O858 2.326 . S
Tb842 O860 2.500 . S
Tb842 O861 2.473 . S
Tb842 O864 2.324 1_554 S
Eu843 O847 2.292 . S
Eu843 C848 2.852 . S
Eu843 O859 2.324 1_556 S
Eu843 O863 2.326 . S
Eu843 O865 2.500 . S
Eu843 O866 2.473 . S
C844 O841 1.255 . S
C844 O845 1.247 . S
O845 C844 1.247 . S
C846 O858 1.242 . S
C846 O859 1.258 . S
O847 Eu843 2.292 . S
O847 C849 1.255 . S
C848 Eu843 2.852 . S
C848 C852 1.503 . S
C848 O865 1.273 . S
C848 O866 1.257 . S
C849 O847 1.255 . S
C849 O850 1.247 . S
O850 C849 1.247 . S
C851 O863 1.242 . S
C851 O864 1.258 . S
C852 C848 1.503 . S
C852 C853 1.379 . S
C852 C857 1.392 . S
C853 C852 1.379 . S
C853 C854 1.404 . S
C853 H867 0.929 . S
C854 C853 1.404 . S
C854 C855 1.389 . S
C855 C854 1.389 . S
C855 C856 1.399 . S
C855 H868 0.931 . S
C856 C855 1.399 . S
C856 C857 1.390 . S
C857 C852 1.392 . S
C857 C856 1.390 . S
C857 H869 0.929 . S
O858 Tb842 2.326 . S
O858 C846 1.242 . S
O859 Eu843 2.324 1_554 S
O859 C846 1.258 . S
O860 Tb842 2.500 . S
O860 C862 1.273 . S
O861 Tb842 2.473 . S
O861 C862 1.257 . S
C862 O860 1.273 . S
C862 O861 1.257 . S
O863 Eu843 2.326 . S
O863 C851 1.242 . S
O864 Tb842 2.324 1_556 S
O864 C851 1.258 . S
O865 Eu843 2.500 . S
O865 C848 1.273 . S
O866 Eu843 2.473 . S
O866 C848 1.257 . S
H867 C853 0.929 . S
H868 C855 0.931 . S
H869 C857 0.929 . S
O870 Tb871 2.292 . S
O870 C873 1.255 . S
Tb871 O870 2.292 . S
Tb871 O887 2.326 . S
Tb871 O889 2.500 . S
Tb871 O890 2.473 . S
Tb871 O893 2.324 . S
Eu872 O876 2.292 . S
Eu872 C877 2.852 . S
Eu872 O888 2.324 . S
Eu872 O892 2.326 . S
Eu872 O894 2.500 . S
Eu872 O895 2.473 . S
C873 O870 1.255 . S
C873 O874 1.247 . S
O874 C873 1.247 . S
C875 O887 1.242 . S
C875 O888 1.258 . S
O876 Eu872 2.292 . S
O876 C878 1.255 . S
C877 Eu872 2.852 . S
C877 C881 1.503 . S
C877 O894 1.273 . S
C877 O895 1.257 . S
C878 O876 1.255 . S
C878 O879 1.247 . S
O879 C878 1.247 . S
C880 O892 1.242 . S
C880 O893 1.258 . S
C881 C877 1.503 . S
C881 C882 1.379 . S
C881 C886 1.392 . S
C882 C881 1.379 . S
C882 C883 1.404 . S
C882 H896 0.929 . S
C883 C882 1.404 . S
C883 C884 1.389 . S
C884 C883 1.389 . S
C884 C885 1.399 . S
C884 H897 0.931 . S
C885 C884 1.399 . S
C885 C886 1.390 . S
C886 C881 1.392 . S
C886 C885 1.390 . S
C886 H898 0.929 . S
O887 Tb871 2.326 . S
O887 C875 1.242 . S
O888 Eu872 2.324 . S
O888 C875 1.258 . S
O889 Tb871 2.500 . S
O889 C891 1.273 . S
O890 Tb871 2.473 . S
O890 C891 1.257 . S
C891 O889 1.273 . S
C891 O890 1.257 . S
O892 Eu872 2.326 . S
O892 C880 1.242 . S
O893 Tb871 2.324 . S
O893 C880 1.258 . S
O894 Eu872 2.500 . S
O894 C877 1.273 . S
O895 Eu872 2.473 . S
O895 C877 1.257 . S
H896 C882 0.929 . S
H897 C884 0.931 . S
H898 C886 0.929 . S
O899 Tb900 2.292 . S
O899 C902 1.255 . S
Tb900 O899 2.292 . S
Tb900 O916 2.326 . S
Tb900 O918 2.500 . S
Tb900 O919 2.473 . S
Tb900 O922 2.324 . S
Eu901 O905 2.292 . S
Eu901 C906 2.852 . S
Eu901 O917 2.324 . S
Eu901 O921 2.326 . S
Eu901 O923 2.500 . S
Eu901 O924 2.473 . S
C902 O899 1.255 . S
C902 O903 1.247 . S
O903 C902 1.247 . S
C904 O916 1.242 . S
C904 O917 1.258 . S
O905 Eu901 2.292 . S
O905 C907 1.255 . S
C906 Eu901 2.852 . S
C906 C910 1.503 . S
C906 O923 1.273 . S
C906 O924 1.257 . S
C907 O905 1.255 . S
C907 O908 1.247 . S
O908 C907 1.247 . S
C909 O921 1.242 . S
C909 O922 1.258 . S
C910 C906 1.503 . S
C910 C911 1.379 . S
C910 C915 1.392 . S
C911 C910 1.379 . S
C911 C912 1.404 . S
C911 H925 0.929 . S
C912 C911 1.404 . S
C912 C913 1.389 . S
C913 C912 1.389 . S
C913 C914 1.399 . S
C913 H926 0.931 . S
C914 C913 1.399 . S
C914 C915 1.390 . S
C915 C910 1.392 . S
C915 C914 1.390 . S
C915 H927 0.929 . S
O916 Tb900 2.326 . S
O916 C904 1.242 . S
O917 Eu901 2.324 . S
O917 C904 1.258 . S
O918 Tb900 2.500 . S
O918 C920 1.273 . S
O919 Tb900 2.473 . S
O919 C920 1.257 . S
C920 O918 1.273 . S
C920 O919 1.257 . S
O921 Eu901 2.326 . S
O921 C909 1.242 . S
O922 Tb900 2.324 . S
O922 C909 1.258 . S
O923 Eu901 2.500 . S
O923 C906 1.273 . S
O924 Eu901 2.473 . S
O924 C906 1.257 . S
H925 C911 0.929 . S
H926 C913 0.931 . S
H927 C915 0.929 . S
H928 C936 0.929 . S
H929 C938 0.904 1_454 S
H930 C940 0.930 . S
H931 C943 0.929 . S
H932 C946 0.930 . S
H933 C948 0.960 . S
H934 C948 0.960 1_455 S
H935 C948 0.960 . S
C936 H928 0.929 . S
C936 C937 1.377 . S
C936 C938 1.384 . S
C937 C936 1.377 . S
C937 C943 1.390 . S
C938 H929 0.904 1_656 S
C938 C936 1.384 . S
C938 C939 1.372 . S
C939 C938 1.372 . S
C939 C940 1.400 . S
C939 C944 1.490 . S
C940 H930 0.930 . S
C940 C939 1.400 . S
C940 C943 1.386 . S
H941 C957 0.930 . S
H942 C958 0.931 1_655 S
C943 H931 0.929 . S
C943 C937 1.390 . S
C943 C940 1.386 . S
C944 C939 1.490 . S
C944 C946 1.395 1_556 S
C944 C947 1.403 . S
H945 C951 0.930 . S
C946 H932 0.930 . S
C946 C944 1.395 1_554 S
C946 C949 1.403 1_655 S
C947 C944 1.403 . S
C947 C948 1.524 . S
C947 C951 1.400 1_655 S
C948 H933 0.960 . S
C948 H934 0.960 1_655 S
C948 H935 0.960 . S
C948 C947 1.524 . S
C949 C946 1.403 1_455 S
C949 C950 1.392 . S
C949 C953 1.495 . S
C950 C949 1.392 . S
C950 C951 1.385 1_554 S
C950 C952 1.478 . S
C951 H945 0.930 . S
C951 C947 1.400 1_455 S
C951 C950 1.385 1_556 S
C952 C950 1.478 . S
C952 C954 1.381 . S
C952 C958 1.383 . S
C953 C949 1.495 . S
C953 H959 0.959 . S
C953 H960 0.963 1_455 S
C953 H961 0.960 . S
C954 C952 1.381 . S
C954 C955 1.394 . S
C954 H962 0.930 . S
C955 C954 1.394 . S
C955 C956 1.383 . S
C955 H963 0.929 . S
C956 C955 1.383 . S
C956 C957 1.377 . S
C957 H941 0.930 . S
C957 C956 1.377 . S
C957 C958 1.379 . S
C958 H942 0.931 1_455 S
C958 C952 1.383 . S
C958 C957 1.379 . S
H959 C953 0.959 . S
H960 C953 0.963 1_655 S
H961 C953 0.960 . S
H962 C954 0.930 . S
H963 C955 0.929 . S
H964 C972 0.929 1_554 S
H965 C974 0.969 . S
H966 C976 0.930 . S
H967 C979 0.929 . S
H968 C982 0.930 . S
H969 C984 0.960 . S
H970 C984 0.960 . S
H971 C984 0.960 1_556 S
C972 H964 0.929 1_556 S
C972 C973 1.377 . S
C972 C974 1.372 1_556 S
C973 C972 1.377 . S
C973 C979 1.390 . S
C974 H965 0.969 . S
C974 C972 1.372 1_554 S
C974 C975 1.347 1_554 S
C975 C974 1.347 1_556 S
C975 C976 1.400 . S
C975 C980 1.490 . S
C976 H966 0.930 . S
C976 C975 1.400 . S
C976 C979 1.386 . S
H977 C993 0.930 1_556 S
H978 C994 0.931 . S
C979 H967 0.929 . S
C979 C973 1.390 . S
C979 C976 1.386 . S
C980 C975 1.490 . S
C980 C982 1.395 . S
C980 C983 1.403 1_556 S
H981 C987 0.930 . S
C982 H968 0.930 . S
C982 C980 1.395 . S
C982 C985 1.413 . S
C983 C980 1.403 1_554 S
C983 C984 1.524 . S
C983 C987 1.400 . S
C984 H969 0.960 . S
C984 H970 0.960 . S
C984 H971 0.960 1_554 S
C984 C983 1.524 . S
C985 C982 1.413 . S
C985 C986 1.381 1_556 S
C985 C989 1.499 . S
C986 C985 1.381 1_554 S
C986 C987 1.385 . S
C986 C988 1.478 . S
C987 H981 0.930 . S
C987 C983 1.400 . S
C987 C986 1.385 . S
C988 C986 1.478 . S
C988 C990 1.381 . S
C988 C994 1.383 1_554 S
C989 C985 1.499 . S
C989 H995 0.959 . S
C989 H996 0.961 . S
C989 H997 0.960 1_556 S
C990 C988 1.381 . S
C990 C991 1.394 . S
C990 H998 0.930 . S
C991 C990 1.394 . S
C991 C992 1.383 . S
C991 H999 0.929 . S
C992 C991 1.383 . S
C992 C993 1.377 . S
C993 H977 0.930 1_554 S
C993 C992 1.377 . S
C993 C994 1.379 1_554 S
C994 H978 0.931 . S
C994 C988 1.383 1_556 S
C994 C993 1.379 1_556 S
H995 C989 0.959 . S
H996 C989 0.961 . S
H997 C989 0.960 1_554 S
H998 C990 0.930 . S
H999 C991 0.929 . S
H1000 C1008 0.929 . S
H1001 C1010 0.930 1_455 S
H1002 C1012 0.930 . S
H1003 C1015 0.929 . S
H1004 C1018 0.930 . S
H1005 C1020 0.960 . S
H1006 C1020 0.960 . S
H1007 C1020 0.960 . S
C1008 H1000 0.929 . S
C1008 C1009 1.377 . S
C1008 C1010 1.384 . S
C1009 C1008 1.377 . S
C1009 C1015 1.390 . S
C1010 H1001 0.930 1_655 S
C1010 C1008 1.384 . S
C1010 C1011 1.372 . S
C1011 C1010 1.372 . S
C1011 C1012 1.400 . S
C1011 C1016 1.490 . S
C1012 H1002 0.930 . S
C1012 C1011 1.400 . S
C1012 C1015 1.386 . S
H1013 C1029 0.930 . S
H1014 C1030 0.931 . S
C1015 H1003 0.929 . S
C1015 C1009 1.390 . S
C1015 C1012 1.386 . S
C1016 C1011 1.490 . S
C1016 C1018 1.395 1_655 S
C1016 C1019 1.403 . S
H1017 C1023 0.930 . S
C1018 H1004 0.930 . S
C1018 C1016 1.395 1_455 S
C1018 C1021 1.403 . S
C1019 C1016 1.403 . S
C1019 C1020 1.524 . S
C1019 C1023 1.400 . S
C1020 H1005 0.960 . S
C1020 H1006 0.960 . S
C1020 H1007 0.960 . S
C1020 C1019 1.524 . S
C1021 C1018 1.403 . S
C1021 C1022 1.392 . S
C1021 C1025 1.495 . S
C1022 C1021 1.392 . S
C1022 C1023 1.385 1_455 S
C1022 C1024 1.478 . S
C1023 H1017 0.930 . S
C1023 C1019 1.400 . S
C1023 C1022 1.385 1_655 S
C1024 C1022 1.478 . S
C1024 C1026 1.381 . S
C1024 C1030 1.383 . S
C1025 C1021 1.495 . S
C1025 H1031 0.959 . S
C1025 H1032 0.961 . S
C1025 H1033 0.960 . S
C1026 C1024 1.381 . S
C1026 C1027 1.394 . S
C1026 H1034 0.930 . S
C1027 C1026 1.394 . S
C1027 C1028 1.383 . S
C1027 H1035 0.929 . S
C1028 C1027 1.383 . S
C1028 C1029 1.377 . S
C1029 H1013 0.930 . S
C1029 C1028 1.377 . S
C1029 C1030 1.379 . S
C1030 H1014 0.931 . S
C1030 C1024 1.383 . S
C1030 C1029 1.379 . S
H1031 C1025 0.959 . S
H1032 C1025 0.961 . S
H1033 C1025 0.960 . S
H1034 C1026 0.930 . S
H1035 C1027 0.929 . S
H1036 C1044 0.929 . S
H1037 C1046 0.930 . S
H1038 C1048 0.930 . S
H1039 C1051 0.929 . S
H1040 C1054 0.930 . S
H1041 C1056 0.960 . S
H1042 C1056 0.960 . S
H1043 C1056 0.960 . S
C1044 H1036 0.929 . S
C1044 C1045 1.377 . S
C1044 C1046 1.384 . S
C1045 C1044 1.377 . S
C1045 C1051 1.390 . S
C1046 H1037 0.930 . S
C1046 C1044 1.384 . S
C1046 C1047 1.372 . S
C1047 C1046 1.372 . S
C1047 C1048 1.400 . S
C1047 C1052 1.490 . S
C1048 H1038 0.930 . S
C1048 C1047 1.400 . S
C1048 C1051 1.386 . S
H1049 C1065 0.930 . S
H1050 C1066 0.931 . S
C1051 H1039 0.929 . S
C1051 C1045 1.390 . S
C1051 C1048 1.386 . S
C1052 C1047 1.490 . S
C1052 C1054 1.395 . S
C1052 C1055 1.403 . S
H1053 C1059 0.930 . S
C1054 H1040 0.930 . S
C1054 C1052 1.395 . S
C1054 C1057 1.403 . S
C1055 C1052 1.403 . S
C1055 C1056 1.524 . S
C1055 C1059 1.400 . S
C1056 H1041 0.960 . S
C1056 H1042 0.960 . S
C1056 H1043 0.960 . S
C1056 C1055 1.524 . S
C1057 C1054 1.403 . S
C1057 C1058 1.392 . S
C1057 C1061 1.495 . S
C1058 C1057 1.392 . S
C1058 C1059 1.385 . S
C1058 C1060 1.478 . S
C1059 H1053 0.930 . S
C1059 C1055 1.400 . S
C1059 C1058 1.385 . S
C1060 C1058 1.478 . S
C1060 C1062 1.381 . S
C1060 C1066 1.383 . S
C1061 C1057 1.495 . S
C1061 H1067 0.959 . S
C1061 H1068 0.961 . S
C1061 H1069 0.960 . S
C1062 C1060 1.381 . S
C1062 C1063 1.394 . S
C1062 H1070 0.930 . S
C1063 C1062 1.394 . S
C1063 C1064 1.383 . S
C1063 H1071 0.929 . S
C1064 C1063 1.383 . S
C1064 C1065 1.377 . S
C1065 H1049 0.930 . S
C1065 C1064 1.377 . S
C1065 C1066 1.379 . S
C1066 H1050 0.931 . S
C1066 C1060 1.383 . S
C1066 C1065 1.379 . S
H1067 C1061 0.959 . S
H1068 C1061 0.961 . S
H1069 C1061 0.960 . S
H1070 C1062 0.930 . S
H1071 C1063 0.929 . S
H1072 C1080 0.929 . S
H1073 C1082 0.930 . S
H1074 C1084 0.925 1_556 S
H1075 C1087 0.929 . S
H1076 C1090 0.930 . S
H1077 C1092 0.960 . S
H1078 C1092 0.960 . S
H1079 C1092 0.960 . S
C1080 H1072 0.929 . S
C1080 C1081 1.377 . S
C1080 C1082 1.384 . S
C1081 C1080 1.377 . S
C1081 C1087 1.390 . S
C1082 H1073 0.930 . S
C1082 C1080 1.384 . S
C1082 C1083 1.372 . S
C1083 C1082 1.372 . S
C1083 C1084 1.400 . S
C1083 C1088 1.490 . S
C1084 H1074 0.925 1_554 S
C1084 C1083 1.400 . S
C1084 C1087 1.386 . S
H1085 C1101 0.930 . S
H1086 C1102 0.931 . S
C1087 H1075 0.929 . S
C1087 C1081 1.390 . S
C1087 C1084 1.386 . S
C1088 C1083 1.490 . S
C1088 C1090 1.395 1_554 S
C1088 C1091 1.403 . S
H1089 C1095 0.930 . S
C1090 H1076 0.930 . S
C1090 C1088 1.395 1_556 S
C1090 C1093 1.403 . S
C1091 C1088 1.403 . S
C1091 C1092 1.524 . S
C1091 C1095 1.400 . S
C1092 H1077 0.960 . S
C1092 H1078 0.960 . S
C1092 H1079 0.960 . S
C1092 C1091 1.524 . S
C1093 C1090 1.403 . S
C1093 C1094 1.392 . S
C1093 C1097 1.495 . S
C1094 C1093 1.392 . S
C1094 C1095 1.385 1_556 S
C1094 C1096 1.478 . S
C1095 H1089 0.930 . S
C1095 C1091 1.400 . S
C1095 C1094 1.385 1_554 S
C1096 C1094 1.478 . S
C1096 C1098 1.381 . S
C1096 C1102 1.383 . S
C1097 C1093 1.495 . S
C1097 H1103 0.959 . S
C1097 H1104 0.961 . S
C1097 H1105 0.960 . S
C1098 C1096 1.381 . S
C1098 C1099 1.394 . S
C1098 H1106 0.930 1_556 S
C1099 C1098 1.394 . S
C1099 C1100 1.383 . S
C1099 H1107 0.929 . S
C1100 C1099 1.383 . S
C1100 C1101 1.377 . S
C1101 H1085 0.930 . S
C1101 C1100 1.377 . S
C1101 C1102 1.379 . S
C1102 H1086 0.931 . S
C1102 C1096 1.383 . S
C1102 C1101 1.379 . S
H1103 C1097 0.959 . S
H1104 C1097 0.961 . S
H1105 C1097 0.960 . S
H1106 C1098 0.930 1_554 S
H1107 C1099 0.929 . S
H1108 C1116 0.929 . S
H1109 C1118 0.930 . S
H1110 C1120 0.930 1_455 S
H1111 C1123 0.929 . S
H1112 C1126 0.930 . S
H1113 C1128 0.962 1_455 S
H1114 C1128 0.956 . S
H1115 C1128 0.962 1_455 S
C1116 H1108 0.929 . S
C1116 C1117 1.377 . S
C1116 C1118 1.384 . S
C1117 C1116 1.377 . S
C1117 C1123 1.390 . S
C1118 H1109 0.930 . S
C1118 C1116 1.384 . S
C1118 C1119 1.372 . S
C1119 C1118 1.372 . S
C1119 C1120 1.400 . S
C1119 C1124 1.490 . S
C1120 H1110 0.930 1_655 S
C1120 C1119 1.400 . S
C1120 C1123 1.386 . S
H1121 C1137 0.930 . S
H1122 C1138 0.931 . S
C1123 H1111 0.929 . S
C1123 C1117 1.390 . S
C1123 C1120 1.386 . S
C1124 C1119 1.490 . S
C1124 C1126 1.395 . S
C1124 C1127 1.419 . S
H1125 C1131 0.930 . S
C1126 H1112 0.930 . S
C1126 C1124 1.395 . S
C1126 C1129 1.403 . S
C1127 C1124 1.419 . S
C1127 C1128 1.523 . S
C1127 C1131 1.385 1_655 S
C1128 H1113 0.962 1_655 S
C1128 H1114 0.956 . S
C1128 H1115 0.962 1_655 S
C1128 C1127 1.523 . S
C1129 C1126 1.403 . S
C1129 C1130 1.392 1_655 S
C1129 C1133 1.495 . S
C1130 C1129 1.392 1_455 S
C1130 C1131 1.385 . S
C1130 C1132 1.478 . S
C1131 H1125 0.930 . S
C1131 C1127 1.385 1_455 S
C1131 C1130 1.385 . S
C1132 C1130 1.478 . S
C1132 C1134 1.381 . S
C1132 C1138 1.383 . S
C1133 C1129 1.495 . S
C1133 H1139 0.959 . S
C1133 H1140 0.961 1_655 S
C1133 H1141 0.960 . S
C1134 C1132 1.381 . S
C1134 C1135 1.394 . S
C1134 H1142 0.930 1_455 S
C1135 C1134 1.394 . S
C1135 C1136 1.383 . S
C1135 H1143 0.929 . S
C1136 C1135 1.383 . S
C1136 C1137 1.377 . S
C1137 H1121 0.930 . S
C1137 C1136 1.377 . S
C1137 C1138 1.379 . S
C1138 H1122 0.931 . S
C1138 C1132 1.383 . S
C1138 C1137 1.379 . S
H1139 C1133 0.959 . S
H1140 C1133 0.961 1_455 S
H1141 C1133 0.960 . S
H1142 C1134 0.930 1_655 S
H1143 C1135 0.929 . S
H1144 C1152 0.929 . S
H1145 C1154 0.930 . S
H1146 C1156 0.930 . S
H1147 C1159 0.929 . S
H1148 C1162 0.930 . S
H1149 C1164 0.960 . S
H1150 C1164 0.960 . S
H1151 C1164 0.960 . S
C1152 H1144 0.929 . S
C1152 C1153 1.377 . S
C1152 C1154 1.384 . S
C1153 C1152 1.377 . S
C1153 C1159 1.390 . S
C1154 H1145 0.930 . S
C1154 C1152 1.384 . S
C1154 C1155 1.372 . S
C1155 C1154 1.372 . S
C1155 C1156 1.400 . S
C1155 C1160 1.490 . S
C1156 H1146 0.930 . S
C1156 C1155 1.400 . S
C1156 C1159 1.386 . S
H1157 C1173 0.930 . S
H1158 C1174 0.931 . S
C1159 H1147 0.929 . S
C1159 C1153 1.390 . S
C1159 C1156 1.386 . S
C1160 C1155 1.490 . S
C1160 C1162 1.395 . S
C1160 C1163 1.403 . S
H1161 C1167 0.930 . S
C1162 H1148 0.930 . S
C1162 C1160 1.395 . S
C1162 C1165 1.403 . S
C1163 C1160 1.403 . S
C1163 C1164 1.524 . S
C1163 C1167 1.400 . S
C1164 H1149 0.960 . S
C1164 H1150 0.960 . S
C1164 H1151 0.960 . S
C1164 C1163 1.524 . S
C1165 C1162 1.403 . S
C1165 C1166 1.392 . S
C1165 C1169 1.495 . S
C1166 C1165 1.392 . S
C1166 C1167 1.385 . S
C1166 C1168 1.478 . S
C1167 H1161 0.930 . S
C1167 C1163 1.400 . S
C1167 C1166 1.385 . S
C1168 C1166 1.478 . S
C1168 C1170 1.381 . S
C1168 C1174 1.383 . S
C1169 C1165 1.495 . S
C1169 H1175 0.959 . S
C1169 H1176 0.961 . S
C1169 H1177 0.960 . S
C1170 C1168 1.381 . S
C1170 C1171 1.394 . S
C1170 H1178 0.930 . S
C1171 C1170 1.394 . S
C1171 C1172 1.383 . S
C1171 H1179 0.929 . S
C1172 C1171 1.383 . S
C1172 C1173 1.377 . S
C1173 H1157 0.930 . S
C1173 C1172 1.377 . S
C1173 C1174 1.379 . S
C1174 H1158 0.931 . S
C1174 C1168 1.383 . S
C1174 C1173 1.379 . S
H1175 C1169 0.959 . S
H1176 C1169 0.961 . S
H1177 C1169 0.960 . S
H1178 C1170 0.930 . S
H1179 C1171 0.929 . S
H1180 C1188 0.929 . S
H1181 C1190 0.930 . S
H1182 C1192 0.930 . S
H1183 C1195 0.929 . S
H1184 C1198 0.930 . S
H1185 C1200 0.960 . S
H1186 C1200 0.960 . S
H1187 C1200 0.960 . S
C1188 H1180 0.929 . S
C1188 C1189 1.377 . S
C1188 C1190 1.384 . S
C1189 C1188 1.377 . S
C1189 C1195 1.390 . S
C1190 H1181 0.930 . S
C1190 C1188 1.384 . S
C1190 C1191 1.372 . S
C1191 C1190 1.372 . S
C1191 C1192 1.400 . S
C1191 C1196 1.490 . S
C1192 H1182 0.930 . S
C1192 C1191 1.400 . S
C1192 C1195 1.386 . S
H1193 C1209 0.930 . S
H1194 C1210 0.931 . S
C1195 H1183 0.929 . S
C1195 C1189 1.390 . S
C1195 C1192 1.386 . S
C1196 C1191 1.490 . S
C1196 C1198 1.395 . S
C1196 C1199 1.403 1_455 S
H1197 C1203 0.930 . S
C1198 H1184 0.930 . S
C1198 C1196 1.395 . S
C1198 C1201 1.403 1_565 S
C1199 C1196 1.403 1_655 S
C1199 C1200 1.524 . S
C1199 C1203 1.400 1_565 S
C1200 H1185 0.960 . S
C1200 H1186 0.960 . S
C1200 H1187 0.960 . S
C1200 C1199 1.524 . S
C1201 C1198 1.403 1_545 S
C1201 C1202 1.392 1_455 S
C1201 C1205 1.495 . S
C1202 C1201 1.392 1_655 S
C1202 C1203 1.385 . S
C1202 C1204 1.478 . S
C1203 H1197 0.930 . S
C1203 C1199 1.400 1_545 S
C1203 C1202 1.385 . S
C1204 C1202 1.478 . S
C1204 C1206 1.381 . S
C1204 C1210 1.383 . S
C1205 C1201 1.495 . S
C1205 H1211 0.959 . S
C1205 H1212 0.961 . S
C1205 H1213 0.960 . S
C1206 C1204 1.381 . S
C1206 C1207 1.394 . S
C1206 H1214 0.930 . S
C1207 C1206 1.394 . S
C1207 C1208 1.383 . S
C1207 H1215 0.929 . S
C1208 C1207 1.383 . S
C1208 C1209 1.377 . S
C1209 H1193 0.930 . S
C1209 C1208 1.377 . S
C1209 C1210 1.379 . S
C1210 H1194 0.931 . S
C1210 C1204 1.383 . S
C1210 C1209 1.379 . S
H1211 C1205 0.959 . S
H1212 C1205 0.961 . S
H1213 C1205 0.960 . S
H1214 C1206 0.930 . S
H1215 C1207 0.929 . S
H1216 C1224 0.929 . S
H1217 C1226 0.930 . S
H1218 C1228 0.930 . S
H1219 C1231 0.929 . S
H1220 C1234 0.930 . S
H1221 C1236 0.960 . S
H1222 C1236 0.960 . S
H1223 C1236 0.960 . S
C1224 H1216 0.929 . S
C1224 C1225 1.377 . S
C1224 C1226 1.384 . S
C1225 C1224 1.377 . S
C1225 C1231 1.390 . S
C1226 H1217 0.930 . S
C1226 C1224 1.384 . S
C1226 C1227 1.372 . S
C1227 C1226 1.372 . S
C1227 C1228 1.400 . S
C1227 C1232 1.490 . S
C1228 H1218 0.930 . S
C1228 C1227 1.400 . S
C1228 C1231 1.386 . S
H1229 C1245 0.930 . S
H1230 C1246 0.931 . S
C1231 H1219 0.929 . S
C1231 C1225 1.390 . S
C1231 C1228 1.386 . S
C1232 C1227 1.490 . S
C1232 C1234 1.395 . S
C1232 C1235 1.403 . S
H1233 C1239 0.930 . S
C1234 H1220 0.930 . S
C1234 C1232 1.395 . S
C1234 C1237 1.403 . S
C1235 C1232 1.403 . S
C1235 C1236 1.524 . S
C1235 C1239 1.400 . S
C1236 H1221 0.960 . S
C1236 H1222 0.960 . S
C1236 H1223 0.960 . S
C1236 C1235 1.524 . S
C1237 C1234 1.403 . S
C1237 C1238 1.392 . S
C1237 C1241 1.495 . S
C1238 C1237 1.392 . S
C1238 C1239 1.385 . S
C1238 C1240 1.478 . S
C1239 H1233 0.930 . S
C1239 C1235 1.400 . S
C1239 C1238 1.385 . S
C1240 C1238 1.478 . S
C1240 C1242 1.381 . S
C1240 C1246 1.383 . S
C1241 C1237 1.495 . S
C1241 H1247 0.959 . S
C1241 H1248 0.961 . S
C1241 H1249 0.960 . S
C1242 C1240 1.381 . S
C1242 C1243 1.394 . S
C1242 H1250 0.930 . S
C1243 C1242 1.394 . S
C1243 C1244 1.383 . S
C1243 H1251 0.929 . S
C1244 C1243 1.383 . S
C1244 C1245 1.377 . S
C1245 H1229 0.930 . S
C1245 C1244 1.377 . S
C1245 C1246 1.379 . S
C1246 H1230 0.931 . S
C1246 C1240 1.383 . S
C1246 C1245 1.379 . S
H1247 C1241 0.959 . S
H1248 C1241 0.961 . S
H1249 C1241 0.960 . S
H1250 C1242 0.930 . S
H1251 C1243 0.929 . S
H1252 C1260 0.929 . S
H1253 C1262 0.930 . S
H1254 C1264 0.930 . S
H1255 C1267 0.929 . S
H1256 C1270 0.930 . S
H1257 C1272 0.977 . S
H1258 C1272 0.956 1_545 S
H1259 C1272 0.948 1_545 S
C1260 H1252 0.929 . S
C1260 C1261 1.377 . S
C1260 C1262 1.384 . S
C1261 C1260 1.377 . S
C1261 C1267 1.390 . S
C1262 H1253 0.930 . S
C1262 C1260 1.384 . S
C1262 C1263 1.372 . S
C1263 C1262 1.372 . S
C1263 C1264 1.400 . S
C1263 C1268 1.490 . S
C1264 H1254 0.930 . S
C1264 C1263 1.400 . S
C1264 C1267 1.386 . S
H1265 C1281 0.930 . S
H1266 C1282 0.931 . S
C1267 H1255 0.929 . S
C1267 C1261 1.390 . S
C1267 C1264 1.386 . S
C1268 C1263 1.490 . S
C1268 C1270 1.395 . S
C1268 C1271 1.403 . S
H1269 C1275 0.930 . S
C1270 H1256 0.930 . S
C1270 C1268 1.395 . S
C1270 C1273 1.417 . S
C1271 C1268 1.403 . S
C1271 C1272 1.523 1_545 S
C1271 C1275 1.400 1_545 S
C1272 H1257 0.977 . S
C1272 H1258 0.956 1_565 S
C1272 H1259 0.948 1_565 S
C1272 C1271 1.523 1_565 S
C1273 C1270 1.417 . S
C1273 C1274 1.378 1_545 S
C1273 C1277 1.496 . S
C1274 C1273 1.378 1_565 S
C1274 C1275 1.385 . S
C1274 C1276 1.478 . S
C1275 H1269 0.930 . S
C1275 C1271 1.400 1_565 S
C1275 C1274 1.385 . S
C1276 C1274 1.478 . S
C1276 C1278 1.381 . S
C1276 C1282 1.383 . S
C1277 C1273 1.496 . S
C1277 H1283 0.959 . S
C1277 H1284 0.961 1_545 S
C1277 H1285 0.960 1_545 S
C1278 C1276 1.381 . S
C1278 C1279 1.394 . S
C1278 H1286 0.930 . S
C1279 C1278 1.394 . S
C1279 C1280 1.383 . S
C1279 H1287 0.929 . S
C1280 C1279 1.383 . S
C1280 C1281 1.377 . S
C1281 H1265 0.930 . S
C1281 C1280 1.377 . S
C1281 C1282 1.379 . S
C1282 H1266 0.931 . S
C1282 C1276 1.383 . S
C1282 C1281 1.379 . S
H1283 C1277 0.959 . S
H1284 C1277 0.961 1_565 S
H1285 C1277 0.960 1_565 S
H1286 C1278 0.930 . S
H1287 C1279 0.929 . S
H1288 C1296 0.929 . S
H1289 C1298 0.930 . S
H1290 C1300 0.930 . S
H1291 C1303 0.929 . S
H1292 C1306 0.930 . S
H1293 C1308 0.960 . S
H1294 C1308 0.960 . S
H1295 C1308 0.960 . S
C1296 H1288 0.929 . S
C1296 C1297 1.377 . S
C1296 C1298 1.384 . S
C1297 C1296 1.377 . S
C1297 C1303 1.390 . S
C1298 H1289 0.930 . S
C1298 C1296 1.384 . S
C1298 C1299 1.372 . S
C1299 C1298 1.372 . S
C1299 C1300 1.400 . S
C1299 C1304 1.490 . S
C1300 H1290 0.930 . S
C1300 C1299 1.400 . S
C1300 C1303 1.386 . S
H1301 C1317 0.930 . S
H1302 C1318 0.931 . S
C1303 H1291 0.929 . S
C1303 C1297 1.390 . S
C1303 C1300 1.386 . S
C1304 C1299 1.490 . S
C1304 C1306 1.395 . S
C1304 C1307 1.403 . S
H1305 C1311 0.930 . S
C1306 H1292 0.930 . S
C1306 C1304 1.395 . S
C1306 C1309 1.403 . S
C1307 C1304 1.403 . S
C1307 C1308 1.524 . S
C1307 C1311 1.400 . S
C1308 H1293 0.960 . S
C1308 H1294 0.960 . S
C1308 H1295 0.960 . S
C1308 C1307 1.524 . S
C1309 C1306 1.403 . S
C1309 C1310 1.392 . S
C1309 C1313 1.495 . S
C1310 C1309 1.392 . S
C1310 C1311 1.385 . S
C1310 C1312 1.478 . S
C1311 H1305 0.930 . S
C1311 C1307 1.400 . S
C1311 C1310 1.385 . S
C1312 C1310 1.478 . S
C1312 C1314 1.381 . S
C1312 C1318 1.383 . S
C1313 C1309 1.495 . S
C1313 H1319 0.959 . S
C1313 H1320 0.961 . S
C1313 H1321 0.960 . S
C1314 C1312 1.381 . S
C1314 C1315 1.394 . S
C1314 H1322 0.930 . S
C1315 C1314 1.394 . S
C1315 C1316 1.383 . S
C1315 H1323 0.929 . S
C1316 C1315 1.383 . S
C1316 C1317 1.377 . S
C1317 H1301 0.930 . S
C1317 C1316 1.377 . S
C1317 C1318 1.379 . S
C1318 H1302 0.931 . S
C1318 C1312 1.383 . S
C1318 C1317 1.379 . S
H1319 C1313 0.959 . S
H1320 C1313 0.961 . S
H1321 C1313 0.960 . S
H1322 C1314 0.930 . S
H1323 C1315 0.929 . S
H1324 C1332 0.929 . S
H1325 C1334 0.930 . S
H1326 C1336 0.930 . S
H1327 C1339 0.929 . S
H1328 C1342 0.930 . S
H1329 C1344 0.960 . S
H1330 C1344 0.960 . S
H1331 C1344 0.960 . S
C1332 H1324 0.929 . S
C1332 C1333 1.377 . S
C1332 C1334 1.384 . S
C1333 C1332 1.377 . S
C1333 C1339 1.390 . S
C1334 H1325 0.930 . S
C1334 C1332 1.384 . S
C1334 C1335 1.372 . S
C1335 C1334 1.372 . S
C1335 C1336 1.400 . S
C1335 C1340 1.490 . S
C1336 H1326 0.930 . S
C1336 C1335 1.400 . S
C1336 C1339 1.386 . S
H1337 C1353 0.930 . S
H1338 C1354 0.931 . S
C1339 H1327 0.929 . S
C1339 C1333 1.390 . S
C1339 C1336 1.386 . S
C1340 C1335 1.490 . S
C1340 C1342 1.395 . S
C1340 C1343 1.403 . S
H1341 C1347 0.930 . S
C1342 H1328 0.930 . S
C1342 C1340 1.395 . S
C1342 C1345 1.403 1_565 S
C1343 C1340 1.403 . S
C1343 C1344 1.524 . S
C1343 C1347 1.400 1_565 S
C1344 H1329 0.960 . S
C1344 H1330 0.960 . S
C1344 H1331 0.960 . S
C1344 C1343 1.524 . S
C1345 C1342 1.403 1_545 S
C1345 C1346 1.392 . S
C1345 C1349 1.495 . S
C1346 C1345 1.392 . S
C1346 C1347 1.385 . S
C1346 C1348 1.478 . S
C1347 H1341 0.930 . S
C1347 C1343 1.400 1_545 S
C1347 C1346 1.385 . S
C1348 C1346 1.478 . S
C1348 C1350 1.381 . S
C1348 C1354 1.383 . S
C1349 C1345 1.495 . S
C1349 H1355 0.959 . S
C1349 H1356 0.961 . S
C1349 H1357 0.960 . S
C1350 C1348 1.381 . S
C1350 C1351 1.394 . S
C1350 H1358 0.930 . S
C1351 C1350 1.394 . S
C1351 C1352 1.383 . S
C1351 H1359 0.929 . S
C1352 C1351 1.383 . S
C1352 C1353 1.377 . S
C1353 H1337 0.930 . S
C1353 C1352 1.377 . S
C1353 C1354 1.379 . S
C1354 H1338 0.931 . S
C1354 C1348 1.383 . S
C1354 C1353 1.379 . S
H1355 C1349 0.959 . S
H1356 C1349 0.961 . S
H1357 C1349 0.960 . S
H1358 C1350 0.930 . S
H1359 C1351 0.929 . S
H1360 C1368 0.929 . S
H1361 C1370 0.930 . S
H1362 C1372 0.930 . S
H1363 C1375 0.929 . S
H1364 C1378 0.930 . S
H1365 C1380 0.960 . S
H1366 C1380 0.960 . S
H1367 C1380 0.960 . S
C1368 H1360 0.929 . S
C1368 C1369 1.377 . S
C1368 C1370 1.384 . S
C1369 C1368 1.377 . S
C1369 C1375 1.390 . S
C1370 H1361 0.930 . S
C1370 C1368 1.384 . S
C1370 C1371 1.372 . S
C1371 C1370 1.372 . S
C1371 C1372 1.400 . S
C1371 C1376 1.490 . S
C1372 H1362 0.930 . S
C1372 C1371 1.400 . S
C1372 C1375 1.386 . S
H1373 C1389 0.930 . S
H1374 C1390 0.931 . S
C1375 H1363 0.929 . S
C1375 C1369 1.390 . S
C1375 C1372 1.386 . S
C1376 C1371 1.490 . S
C1376 C1378 1.395 . S
C1376 C1379 1.403 . S
H1377 C1383 0.930 . S
C1378 H1364 0.930 . S
C1378 C1376 1.395 . S
C1378 C1381 1.403 . S
C1379 C1376 1.403 . S
C1379 C1380 1.524 . S
C1379 C1383 1.400 . S
C1380 H1365 0.960 . S
C1380 H1366 0.960 . S
C1380 H1367 0.960 . S
C1380 C1379 1.524 . S
C1381 C1378 1.403 . S
C1381 C1382 1.392 . S
C1381 C1385 1.495 . S
C1382 C1381 1.392 . S
C1382 C1383 1.385 . S
C1382 C1384 1.478 . S
C1383 H1377 0.930 . S
C1383 C1379 1.400 . S
C1383 C1382 1.385 . S
C1384 C1382 1.478 . S
C1384 C1386 1.381 . S
C1384 C1390 1.383 . S
C1385 C1381 1.495 . S
C1385 H1391 0.959 . S
C1385 H1392 0.961 . S
C1385 H1393 0.960 . S
C1386 C1384 1.381 . S
C1386 C1387 1.394 . S
C1386 H1394 0.930 . S
C1387 C1386 1.394 . S
C1387 C1388 1.383 . S
C1387 H1395 0.929 . S
C1388 C1387 1.383 . S
C1388 C1389 1.377 . S
C1389 H1373 0.930 . S
C1389 C1388 1.377 . S
C1389 C1390 1.379 . S
C1390 H1374 0.931 . S
C1390 C1384 1.383 . S
C1390 C1389 1.379 . S
H1391 C1385 0.959 . S
H1392 C1385 0.961 . S
H1393 C1385 0.960 . S
H1394 C1386 0.930 . S
H1395 C1387 0.929 . S
H1396 C1404 0.929 . S
H1397 C1406 0.930 . S
H1398 C1408 0.930 . S
H1399 C1411 0.929 . S
H1400 C1414 0.930 . S
H1401 C1416 0.960 . S
H1402 C1416 0.960 . S
H1403 C1416 0.960 . S
C1404 H1396 0.929 . S
C1404 C1405 1.377 . S
C1404 C1406 1.384 . S
C1405 C1404 1.377 . S
C1405 C1411 1.390 . S
C1406 H1397 0.930 . S
C1406 C1404 1.384 . S
C1406 C1407 1.372 . S
C1407 C1406 1.372 . S
C1407 C1408 1.400 . S
C1407 C1412 1.490 . S
C1408 H1398 0.930 . S
C1408 C1407 1.400 . S
C1408 C1411 1.386 . S
H1409 C1425 0.930 . S
H1410 C1426 0.931 . S
C1411 H1399 0.929 . S
C1411 C1405 1.390 . S
C1411 C1408 1.386 . S
C1412 C1407 1.490 . S
C1412 C1414 1.395 . S
C1412 C1415 1.403 . S
H1413 C1419 0.930 . S
C1414 H1400 0.930 . S
C1414 C1412 1.395 . S
C1414 C1417 1.403 . S
C1415 C1412 1.403 . S
C1415 C1416 1.524 . S
C1415 C1419 1.400 . S
C1416 H1401 0.960 . S
C1416 H1402 0.960 . S
C1416 H1403 0.960 . S
C1416 C1415 1.524 . S
C1417 C1414 1.403 . S
C1417 C1418 1.392 . S
C1417 C1421 1.495 . S
C1418 C1417 1.392 . S
C1418 C1419 1.385 . S
C1418 C1420 1.478 . S
C1419 H1413 0.930 . S
C1419 C1415 1.400 . S
C1419 C1418 1.385 . S
C1420 C1418 1.478 . S
C1420 C1422 1.381 . S
C1420 C1426 1.383 . S
C1421 C1417 1.495 . S
C1421 H1427 0.959 . S
C1421 H1428 0.961 . S
C1421 H1429 0.960 . S
C1422 C1420 1.381 . S
C1422 C1423 1.394 . S
C1422 H1430 0.930 . S
C1423 C1422 1.394 . S
C1423 C1424 1.383 . S
C1423 H1431 0.929 . S
C1424 C1423 1.383 . S
C1424 C1425 1.377 . S
C1425 H1409 0.930 . S
C1425 C1424 1.377 . S
C1425 C1426 1.379 . S
C1426 H1410 0.931 . S
C1426 C1420 1.383 . S
C1426 C1425 1.379 . S
H1427 C1421 0.959 . S
H1428 C1421 0.961 . S
H1429 C1421 0.960 . S
H1430 C1422 0.930 . S
H1431 C1423 0.929 . S
H1432 C1440 0.929 . S
H1433 C1442 0.930 . S
H1434 C1444 0.930 . S
H1435 C1447 0.929 . S
H1436 C1450 0.930 . S
H1437 C1452 0.960 . S
H1438 C1452 0.960 . S
H1439 C1452 0.960 . S
C1440 H1432 0.929 . S
C1440 C1441 1.377 . S
C1440 C1442 1.384 . S
C1441 C1440 1.377 . S
C1441 C1447 1.390 . S
C1442 H1433 0.930 . S
C1442 C1440 1.384 . S
C1442 C1443 1.372 . S
C1443 C1442 1.372 . S
C1443 C1444 1.400 . S
C1443 C1448 1.490 . S
C1444 H1434 0.930 . S
C1444 C1443 1.400 . S
C1444 C1447 1.386 . S
H1445 C1461 0.930 . S
H1446 C1462 0.931 . S
C1447 H1435 0.929 . S
C1447 C1441 1.390 . S
C1447 C1444 1.386 . S
C1448 C1443 1.490 . S
C1448 C1450 1.395 . S
C1448 C1451 1.403 . S
H1449 C1455 0.930 . S
C1450 H1436 0.930 . S
C1450 C1448 1.395 . S
C1450 C1453 1.403 . S
C1451 C1448 1.403 . S
C1451 C1452 1.524 . S
C1451 C1455 1.400 . S
C1452 H1437 0.960 . S
C1452 H1438 0.960 . S
C1452 H1439 0.960 . S
C1452 C1451 1.524 . S
C1453 C1450 1.403 . S
C1453 C1454 1.392 . S
C1453 C1457 1.495 . S
C1454 C1453 1.392 . S
C1454 C1455 1.385 . S
C1454 C1456 1.478 . S
C1455 H1449 0.930 . S
C1455 C1451 1.400 . S
C1455 C1454 1.385 . S
C1456 C1454 1.478 . S
C1456 C1458 1.381 . S
C1456 C1462 1.383 . S
C1457 C1453 1.495 . S
C1457 H1463 0.959 . S
C1457 H1464 0.961 . S
C1457 H1465 0.960 . S
C1458 C1456 1.381 . S
C1458 C1459 1.394 . S
C1458 H1466 0.930 . S
C1459 C1458 1.394 . S
C1459 C1460 1.383 . S
C1459 H1467 0.929 . S
C1460 C1459 1.383 . S
C1460 C1461 1.377 . S
C1461 H1445 0.930 . S
C1461 C1460 1.377 . S
C1461 C1462 1.379 . S
C1462 H1446 0.931 . S
C1462 C1456 1.383 . S
C1462 C1461 1.379 . S
H1463 C1457 0.959 . S
H1464 C1457 0.961 . S
H1465 C1457 0.960 . S
H1466 C1458 0.930 . S
H1467 C1459 0.929 . S
H1468 C1476 0.929 . S
H1469 C1478 0.930 . S
H1470 C1480 0.930 1_556 S
H1471 C1483 0.929 . S
H1472 C1486 0.930 . S
H1473 C1488 0.960 . S
H1474 C1488 0.960 . S
H1475 C1488 0.960 . S
C1476 H1468 0.929 . S
C1476 C1477 1.377 . S
C1476 C1478 1.384 . S
C1477 C1476 1.377 . S
C1477 C1483 1.390 . S
C1478 H1469 0.930 . S
C1478 C1476 1.384 . S
C1478 C1479 1.372 . S
C1479 C1478 1.372 . S
C1479 C1480 1.400 . S
C1479 C1484 1.490 . S
C1480 H1470 0.930 1_554 S
C1480 C1479 1.400 . S
C1480 C1483 1.386 . S
H1481 C1497 0.930 . S
H1482 C1498 0.931 . S
C1483 H1471 0.929 . S
C1483 C1477 1.390 . S
C1483 C1480 1.386 . S
C1484 C1479 1.490 . S
C1484 C1486 1.395 . S
C1484 C1487 1.403 1_554 S
H1485 C1491 0.930 . S
C1486 H1472 0.930 . S
C1486 C1484 1.395 . S
C1486 C1489 1.403 1_565 S
C1487 C1484 1.403 1_556 S
C1487 C1488 1.524 . S
C1487 C1491 1.400 1_565 S
C1488 H1473 0.960 . S
C1488 H1474 0.960 . S
C1488 H1475 0.960 . S
C1488 C1487 1.524 . S
C1489 C1486 1.403 1_545 S
C1489 C1490 1.392 1_554 S
C1489 C1493 1.495 . S
C1490 C1489 1.392 1_556 S
C1490 C1491 1.385 . S
C1490 C1492 1.478 . S
C1491 H1485 0.930 . S
C1491 C1487 1.400 1_545 S
C1491 C1490 1.385 . S
C1492 C1490 1.478 . S
C1492 C1494 1.381 . S
C1492 C1498 1.383 . S
C1493 C1489 1.495 . S
C1493 H1499 0.959 . S
C1493 H1500 0.961 . S
C1493 H1501 0.960 . S
C1494 C1492 1.381 . S
C1494 C1495 1.394 . S
C1494 H1502 0.930 1_556 S
C1495 C1494 1.394 . S
C1495 C1496 1.383 . S
C1495 H1503 0.929 . S
C1496 C1495 1.383 . S
C1496 C1497 1.377 . S
C1497 H1481 0.930 . S
C1497 C1496 1.377 . S
C1497 C1498 1.379 . S
C1498 H1482 0.931 . S
C1498 C1492 1.383 . S
C1498 C1497 1.379 . S
H1499 C1493 0.959 . S
H1500 C1493 0.961 . S
H1501 C1493 0.960 . S
H1502 C1494 0.930 1_554 S
H1503 C1495 0.929 . S
H1504 C1512 0.929 . S
H1505 C1514 0.930 . S
H1506 C1516 0.930 . S
H1507 C1519 0.929 . S
H1508 C1522 0.930 . S
H1509 C1524 0.960 . S
H1510 C1524 0.960 . S
H1511 C1524 0.960 . S
C1512 H1504 0.929 . S
C1512 C1513 1.377 . S
C1512 C1514 1.384 . S
C1513 C1512 1.377 . S
C1513 C1519 1.390 . S
C1514 H1505 0.930 . S
C1514 C1512 1.384 . S
C1514 C1515 1.372 . S
C1515 C1514 1.372 . S
C1515 C1516 1.400 . S
C1515 C1520 1.490 . S
C1516 H1506 0.930 . S
C1516 C1515 1.400 . S
C1516 C1519 1.386 . S
H1517 C1533 0.917 1_455 S
H1518 C1534 0.931 . S
C1519 H1507 0.929 . S
C1519 C1513 1.390 . S
C1519 C1516 1.386 . S
C1520 C1515 1.490 . S
C1520 C1522 1.395 . S
C1520 C1523 1.403 . S
H1521 C1527 0.930 . S
C1522 H1508 0.930 . S
C1522 C1520 1.395 . S
C1522 C1525 1.403 . S
C1523 C1520 1.403 . S
C1523 C1524 1.524 . S
C1523 C1527 1.400 . S
C1524 H1509 0.960 . S
C1524 H1510 0.960 . S
C1524 H1511 0.960 . S
C1524 C1523 1.524 . S
C1525 C1522 1.403 . S
C1525 C1526 1.392 . S
C1525 C1529 1.495 1_455 S
C1526 C1525 1.392 . S
C1526 C1527 1.385 . S
C1526 C1528 1.478 1_455 S
C1527 H1521 0.930 . S
C1527 C1523 1.400 . S
C1527 C1526 1.385 . S
C1528 C1526 1.478 1_655 S
C1528 C1530 1.381 . S
C1528 C1534 1.383 1_655 S
C1529 C1525 1.495 1_655 S
C1529 H1535 0.959 . S
C1529 H1536 0.961 1_655 S
C1529 H1537 0.960 . S
C1530 C1528 1.381 . S
C1530 C1531 1.394 . S
C1530 H1538 0.930 . S
C1531 C1530 1.394 . S
C1531 C1532 1.383 . S
C1531 H1539 0.929 . S
C1532 C1531 1.383 . S
C1532 C1533 1.398 . S
C1533 H1517 0.917 1_655 S
C1533 C1532 1.398 . S
C1533 C1534 1.371 1_655 S
C1534 H1518 0.931 . S
C1534 C1528 1.383 1_455 S
C1534 C1533 1.371 1_455 S
H1535 C1529 0.959 . S
H1536 C1529 0.961 1_455 S
H1537 C1529 0.960 . S
H1538 C1530 0.930 . S
H1539 C1531 0.929 . S
H1540 C1548 0.929 . S
H1541 C1550 0.933 . S
H1542 C1552 0.930 . S
H1543 C1555 0.929 . S
H1544 C1558 0.930 . S
H1545 C1560 0.960 . S
H1546 C1560 0.960 . S
H1547 C1560 0.960 . S
C1548 H1540 0.929 . S
C1548 C1549 1.377 1_565 S
C1548 C1550 1.386 . S
C1549 C1548 1.377 1_545 S
C1549 C1555 1.390 . S
C1550 H1541 0.933 . S
C1550 C1548 1.386 . S
C1550 C1551 1.367 1_565 S
C1551 C1550 1.367 1_545 S
C1551 C1552 1.400 . S
C1551 C1556 1.490 . S
C1552 H1542 0.930 . S
C1552 C1551 1.400 . S
C1552 C1555 1.386 . S
H1553 C1569 0.930 . S
H1554 C1570 0.931 . S
C1555 H1543 0.929 . S
C1555 C1549 1.390 . S
C1555 C1552 1.386 . S
C1556 C1551 1.490 . S
C1556 C1558 1.395 . S
C1556 C1559 1.403 . S
H1557 C1563 0.930 . S
C1558 H1544 0.930 . S
C1558 C1556 1.395 . S
C1558 C1561 1.403 . S
C1559 C1556 1.403 . S
C1559 C1560 1.524 . S
C1559 C1563 1.400 . S
C1560 H1545 0.960 . S
C1560 H1546 0.960 . S
C1560 H1547 0.960 . S
C1560 C1559 1.524 . S
C1561 C1558 1.403 . S
C1561 C1562 1.392 . S
C1561 C1565 1.495 . S
C1562 C1561 1.392 . S
C1562 C1563 1.385 . S
C1562 C1564 1.478 . S
C1563 H1557 0.930 . S
C1563 C1559 1.400 . S
C1563 C1562 1.385 . S
C1564 C1562 1.478 . S
C1564 C1566 1.381 . S
C1564 C1570 1.383 . S
C1565 C1561 1.495 . S
C1565 H1571 0.959 . S
C1565 H1572 0.961 . S
C1565 H1573 0.960 . S
C1566 C1564 1.381 . S
C1566 C1567 1.394 . S
C1566 H1574 0.930 . S
C1567 C1566 1.394 . S
C1567 C1568 1.383 . S
C1567 H1575 0.929 . S
C1568 C1567 1.383 . S
C1568 C1569 1.377 . S
C1569 H1553 0.930 . S
C1569 C1568 1.377 . S
C1569 C1570 1.379 . S
C1570 H1554 0.931 . S
C1570 C1564 1.383 . S
C1570 C1569 1.379 . S
H1571 C1565 0.959 . S
H1572 C1565 0.961 . S
H1573 C1565 0.960 . S
H1574 C1566 0.930 . S
H1575 C1567 0.929 . S
H1576 C1584 0.929 . S
H1577 C1586 0.908 1_455 S
H1578 C1588 0.930 . S
H1579 C1591 0.929 . S
H1580 C1594 0.930 . S
H1581 C1596 0.960 . S
H1582 C1596 0.960 . S
H1583 C1596 0.960 . S
C1584 H1576 0.929 . S
C1584 C1585 1.377 . S
C1584 C1586 1.402 . S
C1585 C1584 1.377 . S
C1585 C1591 1.390 . S
C1586 H1577 0.908 1_655 S
C1586 C1584 1.402 . S
C1586 C1587 1.377 . S
C1587 C1586 1.377 . S
C1587 C1588 1.400 . S
C1587 C1592 1.490 1_655 S
C1588 H1578 0.930 . S
C1588 C1587 1.400 . S
C1588 C1591 1.386 . S
H1589 C1605 0.930 . S
H1590 C1606 0.931 1_565 S
C1591 H1579 0.929 . S
C1591 C1585 1.390 . S
C1591 C1588 1.386 . S
C1592 C1587 1.490 1_455 S
C1592 C1594 1.395 . S
C1592 C1595 1.403 1_455 S
H1593 C1599 0.923 1_655 S
C1594 H1580 0.930 . S
C1594 C1592 1.395 . S
C1594 C1597 1.403 . S
C1595 C1592 1.403 1_655 S
C1595 C1596 1.524 . S
C1595 C1599 1.400 1_655 S
C1596 H1581 0.960 . S
C1596 H1582 0.960 . S
C1596 H1583 0.960 . S
C1596 C1595 1.524 . S
C1597 C1594 1.403 . S
C1597 C1598 1.392 . S
C1597 C1601 1.495 . S
C1598 C1597 1.392 . S
C1598 C1599 1.385 . S
C1598 C1600 1.478 . S
C1599 H1593 0.923 1_455 S
C1599 C1595 1.400 1_455 S
C1599 C1598 1.385 . S
C1600 C1598 1.478 . S
C1600 C1602 1.381 . S
C1600 C1606 1.383 . S
C1601 C1597 1.495 . S
C1601 H1607 0.959 . S
C1601 H1608 0.961 . S
C1601 H1609 0.960 . S
C1602 C1600 1.381 . S
C1602 C1603 1.394 . S
C1602 H1610 0.930 . S
C1603 C1602 1.394 . S
C1603 C1604 1.383 . S
C1603 H1611 0.929 . S
C1604 C1603 1.383 . S
C1604 C1605 1.377 1_545 S
C1605 H1589 0.930 . S
C1605 C1604 1.377 1_565 S
C1605 C1606 1.379 1_565 S
C1606 H1590 0.931 1_545 S
C1606 C1600 1.383 . S
C1606 C1605 1.379 1_545 S
H1607 C1601 0.959 . S
H1608 C1601 0.961 . S
H1609 C1601 0.960 . S
H1610 C1602 0.930 . S
H1611 C1603 0.929 . S
H1612 C1620 0.929 . S
H1613 C1622 0.930 . S
H1614 C1624 0.930 . S
H1615 C1627 0.929 . S
H1616 C1630 0.930 . S
H1617 C1632 0.960 . S
H1618 C1632 0.960 . S
H1619 C1632 0.960 . S
C1620 H1612 0.929 . S
C1620 C1621 1.377 . S
C1620 C1622 1.384 . S
C1621 C1620 1.377 . S
C1621 C1627 1.390 . S
C1622 H1613 0.930 . S
C1622 C1620 1.384 . S
C1622 C1623 1.372 . S
C1623 C1622 1.372 . S
C1623 C1624 1.400 . S
C1623 C1628 1.490 . S
C1624 H1614 0.930 . S
C1624 C1623 1.400 . S
C1624 C1627 1.386 . S
H1625 C1641 0.930 . S
H1626 C1642 0.931 . S
C1627 H1615 0.929 . S
C1627 C1621 1.390 . S
C1627 C1624 1.386 . S
C1628 C1623 1.490 . S
C1628 C1630 1.395 . S
C1628 C1631 1.403 . S
H1629 C1635 0.930 . S
C1630 H1616 0.930 . S
C1630 C1628 1.395 . S
C1630 C1633 1.403 . S
C1631 C1628 1.403 . S
C1631 C1632 1.524 . S
C1631 C1635 1.400 . S
C1632 H1617 0.960 . S
C1632 H1618 0.960 . S
C1632 H1619 0.960 . S
C1632 C1631 1.524 . S
C1633 C1630 1.403 . S
C1633 C1634 1.392 . S
C1633 C1637 1.495 . S
C1634 C1633 1.392 . S
C1634 C1635 1.385 . S
C1634 C1636 1.478 . S
C1635 H1629 0.930 . S
C1635 C1631 1.400 . S
C1635 C1634 1.385 . S
C1636 C1634 1.478 . S
C1636 C1638 1.381 . S
C1636 C1642 1.383 . S
C1637 C1633 1.495 . S
C1637 H1643 0.959 . S
C1637 H1644 0.961 . S
C1637 H1645 0.960 . S
C1638 C1636 1.381 . S
C1638 C1639 1.394 . S
C1638 H1646 0.930 . S
C1639 C1638 1.394 . S
C1639 C1640 1.383 . S
C1639 H1647 0.929 . S
C1640 C1639 1.383 . S
C1640 C1641 1.377 . S
C1641 H1625 0.930 . S
C1641 C1640 1.377 . S
C1641 C1642 1.379 . S
C1642 H1626 0.931 . S
C1642 C1636 1.383 . S
C1642 C1641 1.379 . S
H1643 C1637 0.959 . S
H1644 C1637 0.961 . S
H1645 C1637 0.960 . S
H1646 C1638 0.930 . S
H1647 C1639 0.929 . S
H1648 C1656 0.929 . S
H1649 C1658 0.930 . S
H1650 C1660 0.930 . S
H1651 C1663 0.929 . S
H1652 C1666 0.930 . S
H1653 C1668 0.960 . S
H1654 C1668 0.960 . S
H1655 C1668 0.960 . S
C1656 H1648 0.929 . S
C1656 C1657 1.377 . S
C1656 C1658 1.384 . S
C1657 C1656 1.377 . S
C1657 C1663 1.390 . S
C1658 H1649 0.930 . S
C1658 C1656 1.384 . S
C1658 C1659 1.372 . S
C1659 C1658 1.372 . S
C1659 C1660 1.400 1_455 S
C1659 C1664 1.490 1_455 S
C1660 H1650 0.930 . S
C1660 C1659 1.400 1_655 S
C1660 C1663 1.386 1_655 S
H1661 C1677 0.930 . S
H1662 C1678 0.931 . S
C1663 H1651 0.929 . S
C1663 C1657 1.390 . S
C1663 C1660 1.386 1_455 S
C1664 C1659 1.490 1_655 S
C1664 C1666 1.395 1_655 S
C1664 C1667 1.403 . S
H1665 C1671 0.930 . S
C1666 H1652 0.930 . S
C1666 C1664 1.395 1_455 S
C1666 C1669 1.410 . S
C1667 C1664 1.403 . S
C1667 C1668 1.524 . S
C1667 C1671 1.400 . S
C1668 H1653 0.960 . S
C1668 H1654 0.960 . S
C1668 H1655 0.960 . S
C1668 C1667 1.524 . S
C1669 C1666 1.410 . S
C1669 C1670 1.372 1_455 S
C1669 C1673 1.508 . S
C1670 C1669 1.372 1_655 S
C1670 C1671 1.385 . S
C1670 C1672 1.478 . S
C1671 H1665 0.930 . S
C1671 C1667 1.400 . S
C1671 C1670 1.385 . S
C1672 C1670 1.478 . S
C1672 C1674 1.381 . S
C1672 C1678 1.383 . S
C1673 C1669 1.508 . S
C1673 H1679 0.959 . S
C1673 H1680 0.961 . S
C1673 H1681 0.960 . S
C1674 C1672 1.381 . S
C1674 C1675 1.394 . S
C1674 H1682 0.930 . S
C1675 C1674 1.394 . S
C1675 C1676 1.383 . S
C1675 H1683 0.929 . S
C1676 C1675 1.383 . S
C1676 C1677 1.377 . S
C1677 H1661 0.930 . S
C1677 C1676 1.377 . S
C1677 C1678 1.379 . S
C1678 H1662 0.931 . S
C1678 C1672 1.383 . S
C1678 C1677 1.379 . S
H1679 C1673 0.959 . S
H1680 C1673 0.961 . S
H1681 C1673 0.960 . S
H1682 C1674 0.930 . S
H1683 C1675 0.929 . S
H1684 C1692 0.929 1_545 S
H1685 C1694 0.930 . S
H1686 C1696 0.930 . S
H1687 C1699 0.929 . S
H1688 C1702 0.930 . S
H1689 C1704 0.960 . S
H1690 C1704 0.960 1_545 S
H1691 C1704 0.960 . S
C1692 H1684 0.929 1_565 S
C1692 C1693 1.377 . S
C1692 C1694 1.384 . S
C1693 C1692 1.377 . S
C1693 C1699 1.390 . S
C1694 H1685 0.930 . S
C1694 C1692 1.384 . S
C1694 C1695 1.372 . S
C1695 C1694 1.372 . S
C1695 C1696 1.400 . S
C1695 C1700 1.490 . S
C1696 H1686 0.930 . S
C1696 C1695 1.400 . S
C1696 C1699 1.386 . S
H1697 C1713 0.930 . S
H1698 C1714 0.931 . S
C1699 H1687 0.929 . S
C1699 C1693 1.390 . S
C1699 C1696 1.386 . S
C1700 C1695 1.490 . S
C1700 C1702 1.395 . S
C1700 C1703 1.403 . S
H1701 C1707 0.930 . S
C1702 H1688 0.930 . S
C1702 C1700 1.395 . S
C1702 C1705 1.403 . S
C1703 C1700 1.403 . S
C1703 C1704 1.524 . S
C1703 C1707 1.400 . S
C1704 H1689 0.960 . S
C1704 H1690 0.960 1_565 S
C1704 H1691 0.960 . S
C1704 C1703 1.524 . S
C1705 C1702 1.403 . S
C1705 C1706 1.392 . S
C1705 C1709 1.495 . S
C1706 C1705 1.392 . S
C1706 C1707 1.385 . S
C1706 C1708 1.478 . S
C1707 H1701 0.930 . S
C1707 C1703 1.400 . S
C1707 C1706 1.385 . S
C1708 C1706 1.478 . S
C1708 C1710 1.381 . S
C1708 C1714 1.383 . S
C1709 C1705 1.495 . S
C1709 H1715 0.959 . S
C1709 H1716 0.961 . S
C1709 H1717 0.960 . S
C1710 C1708 1.381 . S
C1710 C1711 1.394 . S
C1710 H1718 0.930 . S
C1711 C1710 1.394 . S
C1711 C1712 1.383 . S
C1711 H1719 0.929 . S
C1712 C1711 1.383 . S
C1712 C1713 1.377 . S
C1713 H1697 0.930 . S
C1713 C1712 1.377 . S
C1713 C1714 1.379 . S
C1714 H1698 0.931 . S
C1714 C1708 1.383 . S
C1714 C1713 1.379 . S
H1715 C1709 0.959 . S
H1716 C1709 0.961 . S
H1717 C1709 0.960 . S
H1718 C1710 0.930 . S
H1719 C1711 0.929 . S
H1720 C1728 0.929 . S
H1721 C1730 0.930 . S
H1722 C1732 0.930 1_545 S
H1723 C1735 0.929 . S
H1724 C1738 0.930 . S
H1725 C1740 0.960 . S
H1726 C1740 0.960 . S
H1727 C1740 0.955 1_645 S
C1728 H1720 0.929 . S
C1728 C1729 1.377 . S
C1728 C1730 1.384 . S
C1729 C1728 1.377 . S
C1729 C1735 1.390 1_565 S
C1730 H1721 0.930 . S
C1730 C1728 1.384 . S
C1730 C1731 1.372 . S
C1731 C1730 1.372 . S
C1731 C1732 1.400 . S
C1731 C1736 1.490 . S
C1732 H1722 0.930 1_565 S
C1732 C1731 1.400 . S
C1732 C1735 1.386 1_565 S
H1733 C1749 0.930 . S
H1734 C1750 0.931 1_655 S
C1735 H1723 0.929 . S
C1735 C1729 1.390 1_545 S
C1735 C1732 1.386 1_545 S
C1736 C1731 1.490 . S
C1736 C1738 1.395 . S
C1736 C1739 1.403 . S
H1737 C1743 0.930 . S
C1738 H1724 0.930 . S
C1738 C1736 1.395 . S
C1738 C1741 1.403 . S
C1739 C1736 1.403 . S
C1739 C1740 1.524 1_655 S
C1739 C1743 1.400 1_655 S
C1740 H1725 0.960 . S
C1740 H1726 0.960 . S
C1740 H1727 0.955 1_465 S
C1740 C1739 1.524 1_455 S
C1741 C1738 1.403 . S
C1741 C1742 1.392 . S
C1741 C1745 1.495 . S
C1742 C1741 1.392 . S
C1742 C1743 1.385 1_655 S
C1742 C1744 1.475 . S
C1743 H1737 0.930 . S
C1743 C1739 1.400 1_455 S
C1743 C1742 1.385 1_455 S
C1744 C1742 1.475 . S
C1744 C1746 1.384 1_655 S
C1744 C1750 1.383 1_655 S
C1745 C1741 1.495 . S
C1745 H1751 0.959 . S
C1745 H1752 0.961 . S
C1745 H1753 0.960 . S
C1746 C1744 1.384 1_455 S
C1746 C1747 1.394 . S
C1746 H1754 0.930 . S
C1747 C1746 1.394 . S
C1747 C1748 1.383 . S
C1747 H1755 0.929 . S
C1748 C1747 1.383 . S
C1748 C1749 1.377 . S
C1749 H1733 0.930 . S
C1749 C1748 1.377 . S
C1749 C1750 1.379 . S
C1750 H1734 0.931 1_455 S
C1750 C1744 1.383 1_455 S
C1750 C1749 1.379 . S
H1751 C1745 0.959 . S
H1752 C1745 0.961 . S
H1753 C1745 0.960 . S
H1754 C1746 0.930 . S
H1755 C1747 0.929 . S
H1756 C1764 0.929 . S
H1757 C1766 0.930 . S
H1758 C1768 0.930 . S
H1759 C1771 0.929 . S
H1760 C1774 0.930 . S
H1761 C1776 0.960 . S
H1762 C1776 0.960 . S
H1763 C1776 0.960 . S
C1764 H1756 0.929 . S
C1764 C1765 1.377 . S
C1764 C1766 1.384 . S
C1765 C1764 1.377 . S
C1765 C1771 1.390 . S
C1766 H1757 0.930 . S
C1766 C1764 1.384 . S
C1766 C1767 1.372 . S
C1767 C1766 1.372 . S
C1767 C1768 1.400 . S
C1767 C1772 1.490 . S
C1768 H1758 0.930 . S
C1768 C1767 1.400 . S
C1768 C1771 1.386 . S
H1769 C1785 0.930 . S
H1770 C1786 0.931 . S
C1771 H1759 0.929 . S
C1771 C1765 1.390 . S
C1771 C1768 1.386 . S
C1772 C1767 1.490 . S
C1772 C1774 1.395 . S
C1772 C1775 1.403 . S
H1773 C1779 0.930 . S
C1774 H1760 0.930 . S
C1774 C1772 1.395 . S
C1774 C1777 1.403 . S
C1775 C1772 1.403 . S
C1775 C1776 1.524 . S
C1775 C1779 1.400 . S
C1776 H1761 0.960 . S
C1776 H1762 0.960 . S
C1776 H1763 0.960 . S
C1776 C1775 1.524 . S
C1777 C1774 1.403 . S
C1777 C1778 1.392 . S
C1777 C1781 1.495 . S
C1778 C1777 1.392 . S
C1778 C1779 1.385 . S
C1778 C1780 1.478 . S
C1779 H1773 0.930 . S
C1779 C1775 1.400 . S
C1779 C1778 1.385 . S
C1780 C1778 1.478 . S
C1780 C1782 1.381 . S
C1780 C1786 1.383 . S
C1781 C1777 1.495 . S
C1781 H1787 0.959 . S
C1781 H1788 0.961 . S
C1781 H1789 0.960 . S
C1782 C1780 1.381 . S
C1782 C1783 1.394 . S
C1782 H1790 0.930 . S
C1783 C1782 1.394 . S
C1783 C1784 1.383 . S
C1783 H1791 0.929 . S
C1784 C1783 1.383 . S
C1784 C1785 1.377 . S
C1785 H1769 0.930 . S
C1785 C1784 1.377 . S
C1785 C1786 1.379 . S
C1786 H1770 0.931 . S
C1786 C1780 1.383 . S
C1786 C1785 1.379 . S
H1787 C1781 0.959 . S
H1788 C1781 0.961 . S
H1789 C1781 0.960 . S
H1790 C1782 0.930 . S
H1791 C1783 0.929 . S
H1792 C1800 0.929 . S
H1793 C1802 0.930 . S
H1794 C1804 0.930 . S
H1795 C1807 0.929 . S
H1796 C1810 0.930 . S
H1797 C1812 0.960 . S
H1798 C1812 0.960 . S
H1799 C1812 0.960 . S
C1800 H1792 0.929 . S
C1800 C1801 1.377 . S
C1800 C1802 1.384 . S
C1801 C1800 1.377 . S
C1801 C1807 1.390 . S
C1802 H1793 0.930 . S
C1802 C1800 1.384 . S
C1802 C1803 1.372 . S
C1803 C1802 1.372 . S
C1803 C1804 1.400 . S
C1803 C1808 1.490 . S
C1804 H1794 0.930 . S
C1804 C1803 1.400 . S
C1804 C1807 1.386 . S
H1805 C1821 0.899 1_455 S
H1806 C1822 0.931 . S
C1807 H1795 0.929 . S
C1807 C1801 1.390 . S
C1807 C1804 1.386 . S
C1808 C1803 1.490 . S
C1808 C1810 1.395 . S
C1808 C1811 1.403 . S
H1809 C1815 0.930 . S
C1810 H1796 0.930 . S
C1810 C1808 1.395 . S
C1810 C1813 1.412 . S
C1811 C1808 1.403 . S
C1811 C1812 1.524 . S
C1811 C1815 1.400 . S
C1812 H1797 0.960 . S
C1812 H1798 0.960 . S
C1812 H1799 0.960 . S
C1812 C1811 1.524 . S
C1813 C1810 1.412 . S
C1813 C1814 1.396 . S
C1813 C1817 1.484 1_455 S
C1814 C1813 1.396 . S
C1814 C1815 1.385 . S
C1814 C1816 1.478 1_455 S
C1815 H1809 0.930 . S
C1815 C1811 1.400 . S
C1815 C1814 1.385 . S
C1816 C1814 1.478 1_655 S
C1816 C1818 1.381 . S
C1816 C1822 1.383 1_655 S
C1817 C1813 1.484 1_655 S
C1817 H1823 0.959 . S
C1817 H1824 0.961 . S
C1817 H1825 0.960 . S
C1818 C1816 1.381 . S
C1818 C1819 1.394 . S
C1818 H1826 0.930 . S
C1819 C1818 1.394 . S
C1819 C1820 1.383 . S
C1819 H1827 0.929 . S
C1820 C1819 1.383 . S
C1820 C1821 1.428 . S
C1821 H1805 0.899 1_655 S
C1821 C1820 1.428 . S
C1821 C1822 1.360 1_655 S
C1822 H1806 0.931 . S
C1822 C1816 1.383 1_455 S
C1822 C1821 1.360 1_455 S
H1823 C1817 0.959 . S
H1824 C1817 0.961 . S
H1825 C1817 0.960 . S
H1826 C1818 0.930 . S
H1827 C1819 0.929 . S
H1828 C1836 0.929 . S
H1829 C1838 0.930 . S
H1830 C1840 0.930 . S
H1831 C1843 0.929 . S
H1832 C1846 0.930 . S
H1833 C1848 0.960 . S
H1834 C1848 0.960 . S
H1835 C1848 0.960 . S
C1836 H1828 0.929 . S
C1836 C1837 1.377 . S
C1836 C1838 1.384 . S
C1837 C1836 1.377 . S
C1837 C1843 1.390 . S
C1838 H1829 0.930 . S
C1838 C1836 1.384 . S
C1838 C1839 1.372 . S
C1839 C1838 1.372 . S
C1839 C1840 1.400 . S
C1839 C1844 1.490 . S
C1840 H1830 0.930 . S
C1840 C1839 1.400 . S
C1840 C1843 1.386 . S
H1841 C1857 0.930 . S
H1842 C1858 0.931 . S
C1843 H1831 0.929 . S
C1843 C1837 1.390 . S
C1843 C1840 1.386 . S
C1844 C1839 1.490 . S
C1844 C1846 1.395 . S
C1844 C1847 1.403 . S
H1845 C1851 0.930 . S
C1846 H1832 0.930 . S
C1846 C1844 1.395 . S
C1846 C1849 1.403 . S
C1847 C1844 1.403 . S
C1847 C1848 1.524 . S
C1847 C1851 1.400 . S
C1848 H1833 0.960 . S
C1848 H1834 0.960 . S
C1848 H1835 0.960 . S
C1848 C1847 1.524 . S
C1849 C1846 1.403 . S
C1849 C1850 1.392 . S
C1849 C1853 1.495 . S
C1850 C1849 1.392 . S
C1850 C1851 1.385 . S
C1850 C1852 1.478 . S
C1851 H1845 0.930 . S
C1851 C1847 1.400 . S
C1851 C1850 1.385 . S
C1852 C1850 1.478 . S
C1852 C1854 1.381 . S
C1852 C1858 1.383 . S
C1853 C1849 1.495 . S
C1853 H1859 0.959 . S
C1853 H1860 0.961 . S
C1853 H1861 0.960 . S
C1854 C1852 1.381 . S
C1854 C1855 1.394 . S
C1854 H1862 0.930 . S
C1855 C1854 1.394 . S
C1855 C1856 1.383 . S
C1855 H1863 0.929 . S
C1856 C1855 1.383 . S
C1856 C1857 1.377 . S
C1857 H1841 0.930 . S
C1857 C1856 1.377 . S
C1857 C1858 1.379 . S
C1858 H1842 0.931 . S
C1858 C1852 1.383 . S
C1858 C1857 1.379 . S
H1859 C1853 0.959 . S
H1860 C1853 0.961 . S
H1861 C1853 0.960 . S
H1862 C1854 0.930 . S
H1863 C1855 0.929 . S
H1864 C1872 0.929 . S
H1865 C1874 0.930 . S
H1866 C1876 0.930 . S
H1867 C1879 0.915 1_455 S
H1868 C1882 0.930 . S
H1869 C1884 0.960 . S
H1870 C1884 0.960 . S
H1871 C1884 0.960 . S
C1872 H1864 0.929 . S
C1872 C1873 1.377 . S
C1872 C1874 1.384 . S
C1873 C1872 1.377 . S
C1873 C1879 1.390 . S
C1874 H1865 0.930 . S
C1874 C1872 1.384 . S
C1874 C1875 1.372 . S
C1875 C1874 1.372 . S
C1875 C1876 1.400 1_655 S
C1875 C1880 1.490 1_655 S
C1876 H1866 0.930 . S
C1876 C1875 1.400 1_455 S
C1876 C1879 1.386 1_455 S
H1877 C1893 0.930 . S
H1878 C1894 0.931 . S
C1879 H1867 0.915 1_655 S
C1879 C1873 1.390 . S
C1879 C1876 1.386 1_655 S
C1880 C1875 1.490 1_455 S
C1880 C1882 1.395 1_455 S
C1880 C1883 1.403 . S
H1881 C1887 0.930 . S
C1882 H1868 0.930 . S
C1882 C1880 1.395 1_655 S
C1882 C1885 1.404 1_655 S
C1883 C1880 1.403 . S
C1883 C1884 1.524 . S
C1883 C1887 1.400 . S
C1884 H1869 0.960 . S
C1884 H1870 0.960 . S
C1884 H1871 0.960 . S
C1884 C1883 1.524 . S
C1885 C1882 1.404 1_455 S
C1885 C1886 1.391 . S
C1885 C1889 1.496 1_455 S
C1886 C1885 1.391 . S
C1886 C1887 1.385 . S
C1886 C1888 1.478 . S
C1887 H1881 0.930 . S
C1887 C1883 1.400 . S
C1887 C1886 1.385 . S
C1888 C1886 1.478 . S
C1888 C1890 1.381 . S
C1888 C1894 1.383 . S
C1889 C1885 1.496 1_655 S
C1889 H1895 0.959 . S
C1889 H1896 0.961 . S
C1889 H1897 0.960 . S
C1890 C1888 1.381 . S
C1890 C1891 1.394 . S
C1890 H1898 0.930 . S
C1891 C1890 1.394 . S
C1891 C1892 1.383 . S
C1891 H1899 0.929 . S
C1892 C1891 1.383 . S
C1892 C1893 1.377 . S
C1893 H1877 0.930 . S
C1893 C1892 1.377 . S
C1893 C1894 1.379 . S
C1894 H1878 0.931 . S
C1894 C1888 1.383 . S
C1894 C1893 1.379 . S
H1895 C1889 0.959 . S
H1896 C1889 0.961 . S
H1897 C1889 0.960 . S
H1898 C1890 0.930 . S
H1899 C1891 0.929 . S
H1900 C1908 0.929 . S
H1901 C1910 0.930 . S
H1902 C1912 0.930 . S
H1903 C1915 0.929 . S
H1904 C1918 0.930 . S
H1905 C1920 0.960 . S
H1906 C1920 0.960 . S
H1907 C1920 0.960 . S
C1908 H1900 0.929 . S
C1908 C1909 1.377 . S
C1908 C1910 1.384 . S
C1909 C1908 1.377 . S
C1909 C1915 1.390 . S
C1910 H1901 0.930 . S
C1910 C1908 1.384 . S
C1910 C1911 1.372 . S
C1911 C1910 1.372 . S
C1911 C1912 1.400 . S
C1911 C1916 1.490 . S
C1912 H1902 0.930 . S
C1912 C1911 1.400 . S
C1912 C1915 1.386 . S
H1913 C1929 0.930 . S
H1914 C1930 0.931 . S
C1915 H1903 0.929 . S
C1915 C1909 1.390 . S
C1915 C1912 1.386 . S
C1916 C1911 1.490 . S
C1916 C1918 1.395 . S
C1916 C1919 1.403 . S
H1917 C1923 0.930 . S
C1918 H1904 0.930 . S
C1918 C1916 1.395 . S
C1918 C1921 1.403 . S
C1919 C1916 1.403 . S
C1919 C1920 1.524 . S
C1919 C1923 1.400 . S
C1920 H1905 0.960 . S
C1920 H1906 0.960 . S
C1920 H1907 0.960 . S
C1920 C1919 1.524 . S
C1921 C1918 1.403 . S
C1921 C1922 1.392 . S
C1921 C1925 1.495 . S
C1922 C1921 1.392 . S
C1922 C1923 1.385 . S
C1922 C1924 1.478 . S
C1923 H1917 0.930 . S
C1923 C1919 1.400 . S
C1923 C1922 1.385 . S
C1924 C1922 1.478 . S
C1924 C1926 1.381 . S
C1924 C1930 1.383 . S
C1925 C1921 1.495 . S
C1925 H1931 0.959 . S
C1925 H1932 0.961 . S
C1925 H1933 0.960 . S
C1926 C1924 1.381 . S
C1926 C1927 1.394 . S
C1926 H1934 0.930 . S
C1927 C1926 1.394 . S
C1927 C1928 1.383 . S
C1927 H1935 0.929 . S
C1928 C1927 1.383 . S
C1928 C1929 1.377 . S
C1929 H1913 0.930 . S
C1929 C1928 1.377 . S
C1929 C1930 1.379 . S
C1930 H1914 0.931 . S
C1930 C1924 1.383 . S
C1930 C1929 1.379 . S
H1931 C1925 0.959 . S
H1932 C1925 0.961 . S
H1933 C1925 0.960 . S
H1934 C1926 0.930 . S
H1935 C1927 0.929 . S
H1936 C1944 0.929 . S
H1937 C1946 0.930 . S
H1938 C1948 0.930 . S
H1939 C1951 0.929 . S
H1940 C1954 0.930 1_455 S
H1941 C1956 0.960 . S
H1942 C1956 0.960 . S
H1943 C1956 0.960 . S
C1944 H1936 0.929 . S
C1944 C1945 1.377 . S
C1944 C1946 1.384 . S
C1945 C1944 1.377 . S
C1945 C1951 1.390 . S
C1946 H1937 0.930 . S
C1946 C1944 1.384 . S
C1946 C1947 1.372 . S
C1947 C1946 1.372 . S
C1947 C1948 1.400 . S
C1947 C1952 1.490 . S
C1948 H1938 0.930 . S
C1948 C1947 1.400 . S
C1948 C1951 1.386 . S
H1949 C1965 0.930 . S
H1950 C1966 0.929 1_655 S
C1951 H1939 0.929 . S
C1951 C1945 1.390 . S
C1951 C1948 1.386 . S
C1952 C1947 1.490 . S
C1952 C1954 1.395 . S
C1952 C1955 1.403 . S
H1953 C1959 0.930 . S
C1954 H1940 0.930 1_655 S
C1954 C1952 1.395 . S
C1954 C1957 1.403 1_655 S
C1955 C1952 1.403 . S
C1955 C1956 1.524 . S
C1955 C1959 1.400 . S
C1956 H1941 0.960 . S
C1956 H1942 0.960 . S
C1956 H1943 0.960 . S
C1956 C1955 1.524 . S
C1957 C1954 1.403 1_455 S
C1957 C1958 1.392 1_455 S
C1957 C1961 1.495 . S
C1958 C1957 1.392 1_655 S
C1958 C1959 1.385 . S
C1958 C1960 1.478 1_655 S
C1959 H1953 0.930 . S
C1959 C1955 1.400 . S
C1959 C1958 1.385 . S
C1960 C1958 1.478 1_455 S
C1960 C1962 1.381 . S
C1960 C1966 1.384 . S
C1961 C1957 1.495 . S
C1961 H1967 0.959 . S
C1961 H1968 0.961 . S
C1961 H1969 0.960 . S
C1962 C1960 1.381 . S
C1962 C1963 1.394 . S
C1962 H1970 0.930 . S
C1963 C1962 1.394 . S
C1963 C1964 1.383 . S
C1963 H1971 0.929 . S
C1964 C1963 1.383 . S
C1964 C1965 1.377 . S
C1965 H1949 0.930 . S
C1965 C1964 1.377 . S
C1965 C1966 1.381 . S
C1966 H1950 0.929 1_455 S
C1966 C1960 1.384 . S
C1966 C1965 1.381 . S
H1967 C1961 0.959 . S
H1968 C1961 0.961 . S
H1969 C1961 0.960 . S
H1970 C1962 0.930 . S
H1971 C1963 0.929 . S
H1972 C1980 0.929 . S
H1973 C1982 0.930 . S
H1974 C1984 0.930 . S
H1975 C1987 0.929 . S
H1976 C1990 0.930 . S
H1977 C1992 0.960 . S
H1978 C1992 0.960 . S
H1979 C1992 0.960 . S
C1980 H1972 0.929 . S
C1980 C1981 1.377 . S
C1980 C1982 1.384 . S
C1981 C1980 1.377 . S
C1981 C1987 1.390 . S
C1982 H1973 0.930 . S
C1982 C1980 1.384 . S
C1982 C1983 1.372 . S
C1983 C1982 1.372 . S
C1983 C1984 1.400 . S
C1983 C1988 1.490 . S
C1984 H1974 0.930 . S
C1984 C1983 1.400 . S
C1984 C1987 1.386 . S
H1985 C2001 0.930 . S
H1986 C2002 0.931 . S
C1987 H1975 0.929 . S
C1987 C1981 1.390 . S
C1987 C1984 1.386 . S
C1988 C1983 1.490 . S
C1988 C1990 1.395 . S
C1988 C1991 1.403 . S
H1989 C1995 0.930 . S
C1990 H1976 0.930 . S
C1990 C1988 1.395 . S
C1990 C1993 1.403 . S
C1991 C1988 1.403 . S
C1991 C1992 1.524 . S
C1991 C1995 1.400 . S
C1992 H1977 0.960 . S
C1992 H1978 0.960 . S
C1992 H1979 0.960 . S
C1992 C1991 1.524 . S
C1993 C1990 1.403 . S
C1993 C1994 1.392 . S
C1993 C1997 1.495 . S
C1994 C1993 1.392 . S
C1994 C1995 1.385 . S
C1994 C1996 1.478 . S
C1995 H1989 0.930 . S
C1995 C1991 1.400 . S
C1995 C1994 1.385 . S
C1996 C1994 1.478 . S
C1996 C1998 1.381 . S
C1996 C2002 1.383 . S
C1997 C1993 1.495 . S
C1997 H2003 0.959 . S
C1997 H2004 0.961 . S
C1997 H2005 0.960 . S
C1998 C1996 1.381 . S
C1998 C1999 1.394 . S
C1998 H2006 0.930 . S
C1999 C1998 1.394 . S
C1999 C2000 1.383 . S
C1999 H2007 0.929 . S
C2000 C1999 1.383 . S
C2000 C2001 1.377 . S
C2001 H1985 0.930 . S
C2001 C2000 1.377 . S
C2001 C2002 1.379 . S
C2002 H1986 0.931 . S
C2002 C1996 1.383 . S
C2002 C2001 1.379 . S
H2003 C1997 0.959 . S
H2004 C1997 0.961 . S
H2005 C1997 0.960 . S
H2006 C1998 0.930 . S
H2007 C1999 0.929 . S
H2008 C2016 0.929 . S
H2009 C2018 0.930 . S
H2010 C2020 0.930 . S
H2011 C2023 0.929 . S
H2012 C2026 0.930 . S
H2013 C2028 0.960 . S
H2014 C2028 0.960 . S
H2015 C2028 0.960 . S
C2016 H2008 0.929 . S
C2016 C2017 1.377 . S
C2016 C2018 1.384 . S
C2017 C2016 1.377 . S
C2017 C2023 1.390 . S
C2018 H2009 0.930 . S
C2018 C2016 1.384 . S
C2018 C2019 1.372 . S
C2019 C2018 1.372 . S
C2019 C2020 1.400 . S
C2019 C2024 1.490 . S
C2020 H2010 0.930 . S
C2020 C2019 1.400 . S
C2020 C2023 1.386 . S
H2021 C2037 0.930 . S
H2022 C2038 0.931 . S
C2023 H2011 0.929 . S
C2023 C2017 1.390 . S
C2023 C2020 1.386 . S
C2024 C2019 1.490 . S
C2024 C2026 1.395 . S
C2024 C2027 1.403 . S
H2025 C2031 0.930 . S
C2026 H2012 0.930 . S
C2026 C2024 1.395 . S
C2026 C2029 1.368 1_655 S
C2027 C2024 1.403 . S
C2027 C2028 1.524 . S
C2027 C2031 1.400 . S
C2028 H2013 0.960 . S
C2028 H2014 0.960 . S
C2028 H2015 0.960 . S
C2028 C2027 1.524 . S
C2029 C2026 1.368 1_455 S
C2029 C2030 1.374 1_455 S
C2029 C2033 1.553 . S
C2030 C2029 1.374 1_655 S
C2030 C2031 1.385 . S
C2030 C2032 1.478 1_655 S
C2031 H2025 0.930 . S
C2031 C2027 1.400 . S
C2031 C2030 1.385 . S
C2032 C2030 1.478 1_455 S
C2032 C2034 1.381 . S
C2032 C2038 1.383 . S
C2033 C2029 1.553 . S
C2033 H2039 0.959 . S
C2033 H2040 0.961 . S
C2033 H2041 0.960 . S
C2034 C2032 1.381 . S
C2034 C2035 1.394 . S
C2034 H2042 0.930 1_455 S
C2035 C2034 1.394 . S
C2035 C2036 1.383 . S
C2035 H2043 0.929 . S
C2036 C2035 1.383 . S
C2036 C2037 1.377 . S
C2037 H2021 0.930 . S
C2037 C2036 1.377 . S
C2037 C2038 1.379 . S
C2038 H2022 0.931 . S
C2038 C2032 1.383 . S
C2038 C2037 1.379 . S
H2039 C2033 0.959 . S
H2040 C2033 0.961 . S
H2041 C2033 0.960 . S
H2042 C2034 0.930 1_655 S
H2043 C2035 0.929 . S
H2044 C2052 0.929 . S
H2045 C2054 0.930 . S
H2046 C2056 0.930 . S
H2047 C2059 0.929 . S
H2048 C2062 0.930 . S
H2049 C2064 0.960 . S
H2050 C2064 0.960 . S
H2051 C2064 0.960 . S
C2052 H2044 0.929 . S
C2052 C2053 1.377 . S
C2052 C2054 1.384 . S
C2053 C2052 1.377 . S
C2053 C2059 1.390 . S
C2054 H2045 0.930 . S
C2054 C2052 1.384 . S
C2054 C2055 1.372 . S
C2055 C2054 1.372 . S
C2055 C2056 1.400 . S
C2055 C2060 1.490 . S
C2056 H2046 0.930 . S
C2056 C2055 1.400 . S
C2056 C2059 1.386 . S
H2057 C2073 0.930 . S
H2058 C2074 0.931 . S
C2059 H2047 0.929 . S
C2059 C2053 1.390 . S
C2059 C2056 1.386 . S
C2060 C2055 1.490 . S
C2060 C2062 1.395 . S
C2060 C2063 1.403 . S
H2061 C2067 0.930 . S
C2062 H2048 0.930 . S
C2062 C2060 1.395 . S
C2062 C2065 1.403 . S
C2063 C2060 1.403 . S
C2063 C2064 1.524 . S
C2063 C2067 1.400 . S
C2064 H2049 0.960 . S
C2064 H2050 0.960 . S
C2064 H2051 0.960 . S
C2064 C2063 1.524 . S
C2065 C2062 1.403 . S
C2065 C2066 1.392 . S
C2065 C2069 1.495 . S
C2066 C2065 1.392 . S
C2066 C2067 1.385 . S
C2066 C2068 1.478 . S
C2067 H2061 0.930 . S
C2067 C2063 1.400 . S
C2067 C2066 1.385 . S
C2068 C2066 1.478 . S
C2068 C2070 1.381 . S
C2068 C2074 1.383 . S
C2069 C2065 1.495 . S
C2069 H2075 0.959 . S
C2069 H2076 0.961 . S
C2069 H2077 0.960 . S
C2070 C2068 1.381 . S
C2070 C2071 1.394 . S
C2070 H2078 0.930 . S
C2071 C2070 1.394 . S
C2071 C2072 1.383 . S
C2071 H2079 0.929 . S
C2072 C2071 1.383 . S
C2072 C2073 1.377 . S
C2073 H2057 0.930 . S
C2073 C2072 1.377 . S
C2073 C2074 1.379 . S
C2074 H2058 0.931 . S
C2074 C2068 1.383 . S
C2074 C2073 1.379 . S
H2075 C2069 0.959 . S
H2076 C2069 0.961 . S
H2077 C2069 0.960 . S
H2078 C2070 0.930 . S
H2079 C2071 0.929 . S
H2080 C2088 0.929 . S
H2081 C2090 0.930 . S
H2082 C2092 0.930 . S
H2083 C2095 0.929 . S
H2084 C2098 0.930 . S
H2085 C2100 0.960 . S
H2086 C2100 0.960 . S
H2087 C2100 0.960 . S
C2088 H2080 0.929 . S
C2088 C2089 1.377 . S
C2088 C2090 1.384 . S
C2089 C2088 1.377 . S
C2089 C2095 1.390 . S
C2090 H2081 0.930 . S
C2090 C2088 1.384 . S
C2090 C2091 1.372 . S
C2091 C2090 1.372 . S
C2091 C2092 1.400 . S
C2091 C2096 1.490 . S
C2092 H2082 0.930 . S
C2092 C2091 1.400 . S
C2092 C2095 1.386 . S
H2093 C2109 0.930 . S
H2094 C2110 0.931 . S
C2095 H2083 0.929 . S
C2095 C2089 1.390 . S
C2095 C2092 1.386 . S
C2096 C2091 1.490 . S
C2096 C2098 1.395 . S
C2096 C2099 1.403 . S
H2097 C2103 0.930 . S
C2098 H2084 0.930 . S
C2098 C2096 1.395 . S
C2098 C2101 1.403 . S
C2099 C2096 1.403 . S
C2099 C2100 1.524 . S
C2099 C2103 1.400 . S
C2100 H2085 0.960 . S
C2100 H2086 0.960 . S
C2100 H2087 0.960 . S
C2100 C2099 1.524 . S
C2101 C2098 1.403 . S
C2101 C2102 1.392 . S
C2101 C2105 1.495 . S
C2102 C2101 1.392 . S
C2102 C2103 1.385 . S
C2102 C2104 1.478 . S
C2103 H2097 0.930 . S
C2103 C2099 1.400 . S
C2103 C2102 1.385 . S
C2104 C2102 1.478 . S
C2104 C2106 1.381 . S
C2104 C2110 1.383 . S
C2105 C2101 1.495 . S
C2105 H2111 0.959 . S
C2105 H2112 0.961 . S
C2105 H2113 0.960 . S
C2106 C2104 1.381 . S
C2106 C2107 1.394 . S
C2106 H2114 0.930 . S
C2107 C2106 1.394 . S
C2107 C2108 1.383 . S
C2107 H2115 0.929 . S
C2108 C2107 1.383 . S
C2108 C2109 1.377 . S
C2109 H2093 0.930 . S
C2109 C2108 1.377 . S
C2109 C2110 1.379 . S
C2110 H2094 0.931 . S
C2110 C2104 1.383 . S
C2110 C2109 1.379 . S
H2111 C2105 0.959 . S
H2112 C2105 0.961 . S
H2113 C2105 0.960 . S
H2114 C2106 0.930 . S
H2115 C2107 0.929 . S
H2116 C2124 0.929 . S
H2117 C2126 0.930 . S
H2118 C2128 0.930 1_565 S
H2119 C2131 0.929 . S
H2120 C2134 0.930 . S
H2121 C2136 0.960 . S
H2122 C2136 0.960 . S
H2123 C2136 0.960 1_565 S
C2124 H2116 0.929 . S
C2124 C2125 1.377 . S
C2124 C2126 1.384 . S
C2125 C2124 1.377 . S
C2125 C2131 1.390 1_545 S
C2126 H2117 0.930 . S
C2126 C2124 1.384 . S
C2126 C2127 1.372 . S
C2127 C2126 1.372 . S
C2127 C2128 1.400 . S
C2127 C2132 1.490 . S
C2128 H2118 0.930 1_545 S
C2128 C2127 1.400 . S
C2128 C2131 1.386 1_545 S
H2129 C2145 0.930 . S
H2130 C2146 0.931 . S
C2131 H2119 0.929 . S
C2131 C2125 1.390 1_565 S
C2131 C2128 1.386 1_565 S
C2132 C2127 1.490 . S
C2132 C2134 1.395 . S
C2132 C2135 1.403 . S
H2133 C2139 0.930 . S
C2134 H2120 0.930 . S
C2134 C2132 1.395 . S
C2134 C2137 1.403 . S
C2135 C2132 1.403 . S
C2135 C2136 1.524 . S
C2135 C2139 1.400 . S
C2136 H2121 0.960 . S
C2136 H2122 0.960 . S
C2136 H2123 0.960 1_545 S
C2136 C2135 1.524 . S
C2137 C2134 1.403 . S
C2137 C2138 1.392 . S
C2137 C2141 1.495 . S
C2138 C2137 1.392 . S
C2138 C2139 1.385 . S
C2138 C2140 1.478 . S
C2139 H2133 0.930 . S
C2139 C2135 1.400 . S
C2139 C2138 1.385 . S
C2140 C2138 1.478 . S
C2140 C2142 1.381 . S
C2140 C2146 1.383 . S
C2141 C2137 1.495 . S
C2141 H2147 0.959 . S
C2141 H2148 0.961 . S
C2141 H2149 0.960 . S
C2142 C2140 1.381 . S
C2142 C2143 1.394 . S
C2142 H2150 0.930 . S
C2143 C2142 1.394 . S
C2143 C2144 1.383 . S
C2143 H2151 0.929 . S
C2144 C2143 1.383 . S
C2144 C2145 1.377 . S
C2145 H2129 0.930 . S
C2145 C2144 1.377 . S
C2145 C2146 1.379 . S
C2146 H2130 0.931 . S
C2146 C2140 1.383 . S
C2146 C2145 1.379 . S
H2147 C2141 0.959 . S
H2148 C2141 0.961 . S
H2149 C2141 0.960 . S
H2150 C2142 0.930 . S
H2151 C2143 0.929 . S
H2152 C2160 0.929 . S
H2153 C2162 0.930 . S
H2154 C2164 0.930 . S
H2155 C2167 0.929 . S
H2156 C2170 0.930 . S
H2157 C2172 0.960 . S
H2158 C2172 0.960 . S
H2159 C2172 0.960 . S
C2160 H2152 0.929 . S
C2160 C2161 1.377 . S
C2160 C2162 1.384 . S
C2161 C2160 1.377 . S
C2161 C2167 1.390 . S
C2162 H2153 0.930 . S
C2162 C2160 1.384 . S
C2162 C2163 1.372 . S
C2163 C2162 1.372 . S
C2163 C2164 1.400 . S
C2163 C2168 1.490 . S
C2164 H2154 0.930 . S
C2164 C2163 1.400 . S
C2164 C2167 1.386 . S
H2165 C2181 0.930 . S
H2166 C2182 0.931 . S
C2167 H2155 0.929 . S
C2167 C2161 1.390 . S
C2167 C2164 1.386 . S
C2168 C2163 1.490 . S
C2168 C2170 1.395 . S
C2168 C2171 1.403 . S
H2169 C2175 0.930 . S
C2170 H2156 0.930 . S
C2170 C2168 1.395 . S
C2170 C2173 1.403 . S
C2171 C2168 1.403 . S
C2171 C2172 1.524 . S
C2171 C2175 1.400 . S
C2172 H2157 0.960 . S
C2172 H2158 0.960 . S
C2172 H2159 0.960 . S
C2172 C2171 1.524 . S
C2173 C2170 1.403 . S
C2173 C2174 1.392 . S
C2173 C2177 1.495 . S
C2174 C2173 1.392 . S
C2174 C2175 1.385 . S
C2174 C2176 1.478 . S
C2175 H2169 0.930 . S
C2175 C2171 1.400 . S
C2175 C2174 1.385 . S
C2176 C2174 1.478 . S
C2176 C2178 1.381 . S
C2176 C2182 1.383 . S
C2177 C2173 1.495 . S
C2177 H2183 0.959 . S
C2177 H2184 0.961 . S
C2177 H2185 0.960 . S
C2178 C2176 1.381 . S
C2178 C2179 1.394 1_545 S
C2178 H2186 0.930 1_545 S
C2179 C2178 1.394 1_565 S
C2179 C2180 1.383 1_565 S
C2179 H2187 0.929 . S
C2180 C2179 1.383 1_545 S
C2180 C2181 1.377 . S
C2181 H2165 0.930 . S
C2181 C2180 1.377 . S
C2181 C2182 1.379 . S
C2182 H2166 0.931 . S
C2182 C2176 1.383 . S
C2182 C2181 1.379 . S
H2183 C2177 0.959 . S
H2184 C2177 0.961 . S
H2185 C2177 0.960 . S
H2186 C2178 0.930 1_565 S
H2187 C2179 0.929 . S
H2188 C2196 0.929 . S
H2189 C2198 0.930 . S
H2190 C2200 0.930 . S
H2191 C2203 0.929 . S
H2192 C2206 0.930 . S
H2193 C2208 0.960 . S
H2194 C2208 0.960 . S
H2195 C2208 0.960 . S
C2196 H2188 0.929 . S
C2196 C2197 1.377 . S
C2196 C2198 1.384 . S
C2197 C2196 1.377 . S
C2197 C2203 1.390 . S
C2198 H2189 0.930 . S
C2198 C2196 1.384 . S
C2198 C2199 1.372 . S
C2199 C2198 1.372 . S
C2199 C2200 1.400 . S
C2199 C2204 1.490 . S
C2200 H2190 0.930 . S
C2200 C2199 1.400 . S
C2200 C2203 1.386 . S
H2201 C2217 0.930 . S
H2202 C2218 0.931 . S
C2203 H2191 0.929 . S
C2203 C2197 1.390 . S
C2203 C2200 1.386 . S
C2204 C2199 1.490 . S
C2204 C2206 1.395 . S
C2204 C2207 1.403 . S
H2205 C2211 0.930 . S
C2206 H2192 0.930 . S
C2206 C2204 1.395 . S
C2206 C2209 1.403 . S
C2207 C2204 1.403 . S
C2207 C2208 1.524 . S
C2207 C2211 1.400 . S
C2208 H2193 0.960 . S
C2208 H2194 0.960 . S
C2208 H2195 0.960 . S
C2208 C2207 1.524 . S
C2209 C2206 1.403 . S
C2209 C2210 1.392 . S
C2209 C2213 1.495 . S
C2210 C2209 1.392 . S
C2210 C2211 1.385 . S
C2210 C2212 1.478 . S
C2211 H2205 0.930 . S
C2211 C2207 1.400 . S
C2211 C2210 1.385 . S
C2212 C2210 1.478 . S
C2212 C2214 1.381 . S
C2212 C2218 1.383 . S
C2213 C2209 1.495 . S
C2213 H2219 0.959 . S
C2213 H2220 0.961 . S
C2213 H2221 0.960 . S
C2214 C2212 1.381 . S
C2214 C2215 1.394 . S
C2214 H2222 0.930 . S
C2215 C2214 1.394 . S
C2215 C2216 1.383 . S
C2215 H2223 0.929 . S
C2216 C2215 1.383 . S
C2216 C2217 1.377 . S
C2217 H2201 0.930 . S
C2217 C2216 1.377 . S
C2217 C2218 1.379 . S
C2218 H2202 0.931 . S
C2218 C2212 1.383 . S
C2218 C2217 1.379 . S
H2219 C2213 0.959 . S
H2220 C2213 0.961 . S
H2221 C2213 0.960 . S
H2222 C2214 0.930 . S
H2223 C2215 0.929 . S
H2224 C2232 0.929 . S
H2225 C2234 0.930 . S
H2226 C2236 0.930 . S
H2227 C2239 0.929 . S
H2228 C2242 0.930 . S
H2229 C2244 0.960 . S
H2230 C2244 0.960 . S
H2231 C2244 0.960 . S
C2232 H2224 0.929 . S
C2232 C2233 1.377 . S
C2232 C2234 1.384 . S
C2233 C2232 1.377 . S
C2233 C2239 1.390 . S
C2234 H2225 0.930 . S
C2234 C2232 1.384 . S
C2234 C2235 1.372 . S
C2235 C2234 1.372 . S
C2235 C2236 1.400 . S
C2235 C2240 1.490 . S
C2236 H2226 0.930 . S
C2236 C2235 1.400 . S
C2236 C2239 1.386 . S
H2237 C2253 0.930 . S
H2238 C2254 0.931 . S
C2239 H2227 0.929 . S
C2239 C2233 1.390 . S
C2239 C2236 1.386 . S
C2240 C2235 1.490 . S
C2240 C2242 1.395 . S
C2240 C2243 1.403 . S
H2241 C2247 0.930 . S
C2242 H2228 0.930 . S
C2242 C2240 1.395 . S
C2242 C2245 1.403 . S
C2243 C2240 1.403 . S
C2243 C2244 1.524 . S
C2243 C2247 1.400 . S
C2244 H2229 0.960 . S
C2244 H2230 0.960 . S
C2244 H2231 0.960 . S
C2244 C2243 1.524 . S
C2245 C2242 1.403 . S
C2245 C2246 1.392 . S
C2245 C2249 1.495 . S
C2246 C2245 1.392 . S
C2246 C2247 1.385 . S
C2246 C2248 1.478 . S
C2247 H2241 0.930 . S
C2247 C2243 1.400 . S
C2247 C2246 1.385 . S
C2248 C2246 1.478 . S
C2248 C2250 1.381 . S
C2248 C2254 1.383 . S
C2249 C2245 1.495 . S
C2249 H2255 0.959 . S
C2249 H2256 0.961 . S
C2249 H2257 0.960 . S
C2250 C2248 1.381 . S
C2250 C2251 1.394 . S
C2250 H2258 0.930 . S
C2251 C2250 1.394 . S
C2251 C2252 1.383 . S
C2251 H2259 0.929 . S
C2252 C2251 1.383 . S
C2252 C2253 1.377 . S
C2253 H2237 0.930 . S
C2253 C2252 1.377 . S
C2253 C2254 1.379 . S
C2254 H2238 0.931 . S
C2254 C2248 1.383 . S
C2254 C2253 1.379 . S
H2255 C2249 0.959 . S
H2256 C2249 0.961 . S
H2257 C2249 0.960 . S
H2258 C2250 0.930 . S
H2259 C2251 0.929 . S
H2260 C2268 0.929 . S
H2261 C2270 0.930 . S
H2262 C2272 0.930 . S
H2263 C2275 0.929 . S
H2264 C2278 0.930 . S
H2265 C2280 0.960 . S
H2266 C2280 0.960 . S
H2267 C2280 0.960 . S
C2268 H2260 0.929 . S
C2268 C2269 1.377 . S
C2268 C2270 1.384 . S
C2269 C2268 1.377 . S
C2269 C2275 1.390 . S
C2270 H2261 0.930 . S
C2270 C2268 1.384 . S
C2270 C2271 1.372 . S
C2271 C2270 1.372 . S
C2271 C2272 1.400 . S
C2271 C2276 1.490 . S
C2272 H2262 0.930 . S
C2272 C2271 1.400 . S
C2272 C2275 1.386 . S
H2273 C2289 0.930 . S
H2274 C2290 0.931 1_545 S
C2275 H2263 0.929 . S
C2275 C2269 1.390 . S
C2275 C2272 1.386 . S
C2276 C2271 1.490 . S
C2276 C2278 1.395 . S
C2276 C2279 1.403 . S
H2277 C2283 0.930 . S
C2278 H2264 0.930 . S
C2278 C2276 1.395 . S
C2278 C2281 1.403 . S
C2279 C2276 1.403 . S
C2279 C2280 1.524 . S
C2279 C2283 1.400 . S
C2280 H2265 0.960 . S
C2280 H2266 0.960 . S
C2280 H2267 0.960 . S
C2280 C2279 1.524 . S
C2281 C2278 1.403 . S
C2281 C2282 1.392 . S
C2281 C2285 1.495 . S
C2282 C2281 1.392 . S
C2282 C2283 1.385 . S
C2282 C2284 1.478 . S
C2283 H2277 0.930 . S
C2283 C2279 1.400 . S
C2283 C2282 1.385 . S
C2284 C2282 1.478 . S
C2284 C2286 1.381 . S
C2284 C2290 1.383 . S
C2285 C2281 1.495 . S
C2285 H2291 0.959 . S
C2285 H2292 0.961 . S
C2285 H2293 0.960 . S
C2286 C2284 1.381 . S
C2286 C2287 1.394 . S
C2286 H2294 0.930 . S
C2287 C2286 1.394 . S
C2287 C2288 1.383 . S
C2287 H2295 0.929 . S
C2288 C2287 1.383 . S
C2288 C2289 1.377 1_565 S
C2289 H2273 0.930 . S
C2289 C2288 1.377 1_545 S
C2289 C2290 1.379 1_545 S
C2290 H2274 0.931 1_565 S
C2290 C2284 1.383 . S
C2290 C2289 1.379 1_565 S
H2291 C2285 0.959 . S
H2292 C2285 0.961 . S
H2293 C2285 0.960 . S
H2294 C2286 0.930 . S
H2295 C2287 0.929 . S
H2296 C2304 0.929 . S
H2297 C2306 0.930 . S
H2298 C2308 0.930 . S
H2299 C2311 0.929 . S
H2300 C2314 0.930 . S
H2301 C2316 0.960 . S
H2302 C2316 0.960 . S
H2303 C2316 0.960 . S
C2304 H2296 0.929 . S
C2304 C2305 1.377 . S
C2304 C2306 1.384 . S
C2305 C2304 1.377 . S
C2305 C2311 1.390 . S
C2306 H2297 0.930 . S
C2306 C2304 1.384 . S
C2306 C2307 1.372 . S
C2307 C2306 1.372 . S
C2307 C2308 1.400 . S
C2307 C2312 1.490 . S
C2308 H2298 0.930 . S
C2308 C2307 1.400 . S
C2308 C2311 1.386 . S
H2309 C2325 0.930 . S
H2310 C2326 0.931 . S
C2311 H2299 0.929 . S
C2311 C2305 1.390 . S
C2311 C2308 1.386 . S
C2312 C2307 1.490 . S
C2312 C2314 1.395 . S
C2312 C2315 1.403 . S
H2313 C2319 0.930 . S
C2314 H2300 0.930 . S
C2314 C2312 1.395 . S
C2314 C2317 1.403 . S
C2315 C2312 1.403 . S
C2315 C2316 1.524 . S
C2315 C2319 1.400 . S
C2316 H2301 0.960 . S
C2316 H2302 0.960 . S
C2316 H2303 0.960 . S
C2316 C2315 1.524 . S
C2317 C2314 1.403 . S
C2317 C2318 1.392 . S
C2317 C2321 1.495 . S
C2318 C2317 1.392 . S
C2318 C2319 1.385 . S
C2318 C2320 1.478 . S
C2319 H2313 0.930 . S
C2319 C2315 1.400 . S
C2319 C2318 1.385 . S
C2320 C2318 1.478 . S
C2320 C2322 1.381 1_565 S
C2320 C2326 1.383 . S
C2321 C2317 1.495 . S
C2321 H2327 0.959 . S
C2321 H2328 0.961 . S
C2321 H2329 0.960 . S
C2322 C2320 1.381 1_545 S
C2322 C2323 1.394 . S
C2322 H2330 0.930 . S
C2323 C2322 1.394 . S
C2323 C2324 1.383 1_545 S
C2323 H2331 0.929 . S
C2324 C2323 1.383 1_565 S
C2324 C2325 1.377 . S
C2325 H2309 0.930 . S
C2325 C2324 1.377 . S
C2325 C2326 1.379 . S
C2326 H2310 0.931 . S
C2326 C2320 1.383 . S
C2326 C2325 1.379 . S
H2327 C2321 0.959 . S
H2328 C2321 0.961 . S
H2329 C2321 0.960 . S
H2330 C2322 0.930 . S
H2331 C2323 0.929 . S
H2332 C2340 0.929 . S
H2333 C2342 0.930 . S
H2334 C2344 0.930 . S
H2335 C2347 0.929 . S
H2336 C2350 0.930 . S
H2337 C2352 0.960 . S
H2338 C2352 0.960 . S
H2339 C2352 0.960 . S
C2340 H2332 0.929 . S
C2340 C2341 1.377 . S
C2340 C2342 1.384 . S
C2341 C2340 1.377 . S
C2341 C2347 1.390 . S
C2342 H2333 0.930 . S
C2342 C2340 1.384 . S
C2342 C2343 1.372 . S
C2343 C2342 1.372 . S
C2343 C2344 1.400 . S
C2343 C2348 1.490 . S
C2344 H2334 0.930 . S
C2344 C2343 1.400 . S
C2344 C2347 1.386 . S
H2345 C2361 0.930 . S
H2346 C2362 0.931 . S
C2347 H2335 0.929 . S
C2347 C2341 1.390 . S
C2347 C2344 1.386 . S
C2348 C2343 1.490 . S
C2348 C2350 1.395 . S
C2348 C2351 1.403 . S
H2349 C2355 0.930 . S
C2350 H2336 0.930 . S
C2350 C2348 1.395 . S
C2350 C2353 1.403 . S
C2351 C2348 1.403 . S
C2351 C2352 1.524 . S
C2351 C2355 1.400 . S
C2352 H2337 0.960 . S
C2352 H2338 0.960 . S
C2352 H2339 0.960 . S
C2352 C2351 1.524 . S
C2353 C2350 1.403 . S
C2353 C2354 1.392 . S
C2353 C2357 1.495 . S
C2354 C2353 1.392 . S
C2354 C2355 1.385 . S
C2354 C2356 1.478 . S
C2355 H2349 0.930 . S
C2355 C2351 1.400 . S
C2355 C2354 1.385 . S
C2356 C2354 1.478 . S
C2356 C2358 1.381 . S
C2356 C2362 1.383 . S
C2357 C2353 1.495 . S
C2357 H2363 0.959 . S
C2357 H2364 0.961 . S
C2357 H2365 0.960 . S
C2358 C2356 1.381 . S
C2358 C2359 1.394 . S
C2358 H2366 0.930 . S
C2359 C2358 1.394 . S
C2359 C2360 1.383 . S
C2359 H2367 0.929 . S
C2360 C2359 1.383 . S
C2360 C2361 1.377 . S
C2361 H2345 0.930 . S
C2361 C2360 1.377 . S
C2361 C2362 1.379 . S
C2362 H2346 0.931 . S
C2362 C2356 1.383 . S
C2362 C2361 1.379 . S
H2363 C2357 0.959 . S
H2364 C2357 0.961 . S
H2365 C2357 0.960 . S
H2366 C2358 0.930 . S
H2367 C2359 0.929 . S
H2368 C2376 0.929 . S
H2369 C2378 0.930 . S
H2370 C2380 0.930 . S
H2371 C2383 0.929 . S
H2372 C2386 0.930 . S
H2373 C2388 0.960 . S
H2374 C2388 0.960 . S
H2375 C2388 0.960 . S
C2376 H2368 0.929 . S
C2376 C2377 1.377 . S
C2376 C2378 1.384 . S
C2377 C2376 1.377 . S
C2377 C2383 1.390 . S
C2378 H2369 0.930 . S
C2378 C2376 1.384 . S
C2378 C2379 1.372 . S
C2379 C2378 1.372 . S
C2379 C2380 1.400 . S
C2379 C2384 1.490 . S
C2380 H2370 0.930 . S
C2380 C2379 1.400 . S
C2380 C2383 1.386 . S
H2381 C2397 0.930 . S
H2382 C2398 0.931 . S
C2383 H2371 0.929 . S
C2383 C2377 1.390 . S
C2383 C2380 1.386 . S
C2384 C2379 1.490 . S
C2384 C2386 1.395 . S
C2384 C2387 1.403 . S
H2385 C2391 0.930 . S
C2386 H2372 0.930 . S
C2386 C2384 1.395 . S
C2386 C2389 1.403 . S
C2387 C2384 1.403 . S
C2387 C2388 1.524 . S
C2387 C2391 1.400 . S
C2388 H2373 0.960 . S
C2388 H2374 0.960 . S
C2388 H2375 0.960 . S
C2388 C2387 1.524 . S
C2389 C2386 1.403 . S
C2389 C2390 1.392 . S
C2389 C2393 1.495 . S
C2390 C2389 1.392 . S
C2390 C2391 1.385 . S
C2390 C2392 1.478 . S
C2391 H2385 0.930 . S
C2391 C2387 1.400 . S
C2391 C2390 1.385 . S
C2392 C2390 1.478 . S
C2392 C2394 1.381 . S
C2392 C2398 1.383 . S
C2393 C2389 1.495 . S
C2393 H2399 0.959 . S
C2393 H2400 0.961 . S
C2393 H2401 0.960 . S
C2394 C2392 1.381 . S
C2394 C2395 1.394 . S
C2394 H2402 0.930 . S
C2395 C2394 1.394 . S
C2395 C2396 1.383 . S
C2395 H2403 0.929 . S
C2396 C2395 1.383 . S
C2396 C2397 1.377 . S
C2397 H2381 0.930 . S
C2397 C2396 1.377 . S
C2397 C2398 1.379 . S
C2398 H2382 0.931 . S
C2398 C2392 1.383 . S
C2398 C2397 1.379 . S
H2399 C2393 0.959 . S
H2400 C2393 0.961 . S
H2401 C2393 0.960 . S
H2402 C2394 0.930 . S
H2403 C2395 0.929 . S
H2404 C2412 0.929 . S
H2405 C2414 0.930 . S
H2406 C2416 0.930 . S
H2407 C2419 0.929 . S
H2408 C2422 0.930 . S
H2409 C2424 0.960 . S
H2410 C2424 0.960 . S
H2411 C2424 0.960 . S
C2412 H2404 0.929 . S
C2412 C2413 1.377 . S
C2412 C2414 1.384 . S
C2413 C2412 1.377 . S
C2413 C2419 1.390 . S
C2414 H2405 0.930 . S
C2414 C2412 1.384 . S
C2414 C2415 1.372 . S
C2415 C2414 1.372 . S
C2415 C2416 1.400 . S
C2415 C2420 1.490 . S
C2416 H2406 0.930 . S
C2416 C2415 1.400 . S
C2416 C2419 1.386 . S
H2417 C2433 0.930 . S
H2418 C2434 0.931 . S
C2419 H2407 0.929 . S
C2419 C2413 1.390 . S
C2419 C2416 1.386 . S
C2420 C2415 1.490 . S
C2420 C2422 1.395 . S
C2420 C2423 1.403 . S
H2421 C2427 0.930 . S
C2422 H2408 0.930 . S
C2422 C2420 1.395 . S
C2422 C2425 1.403 . S
C2423 C2420 1.403 . S
C2423 C2424 1.524 . S
C2423 C2427 1.400 . S
C2424 H2409 0.960 . S
C2424 H2410 0.960 . S
C2424 H2411 0.960 . S
C2424 C2423 1.524 . S
C2425 C2422 1.403 . S
C2425 C2426 1.392 . S
C2425 C2429 1.495 . S
C2426 C2425 1.392 . S
C2426 C2427 1.385 . S
C2426 C2428 1.478 . S
C2427 H2421 0.930 . S
C2427 C2423 1.400 . S
C2427 C2426 1.385 . S
C2428 C2426 1.478 . S
C2428 C2430 1.381 . S
C2428 C2434 1.383 . S
C2429 C2425 1.495 . S
C2429 H2435 0.959 . S
C2429 H2436 0.961 . S
C2429 H2437 0.960 . S
C2430 C2428 1.381 . S
C2430 C2431 1.394 . S
C2430 H2438 0.930 . S
C2431 C2430 1.394 . S
C2431 C2432 1.383 . S
C2431 H2439 0.929 . S
C2432 C2431 1.383 . S
C2432 C2433 1.377 . S
C2433 H2417 0.930 . S
C2433 C2432 1.377 . S
C2433 C2434 1.379 . S
C2434 H2418 0.931 . S
C2434 C2428 1.383 . S
C2434 C2433 1.379 . S
H2435 C2429 0.959 . S
H2436 C2429 0.961 . S
H2437 C2429 0.960 . S
H2438 C2430 0.930 . S
H2439 C2431 0.929 . S
H2440 C2448 0.929 . S
H2441 C2450 0.930 . S
H2442 C2452 0.930 . S
H2443 C2455 0.929 . S
H2444 C2458 0.930 . S
H2445 C2460 0.960 . S
H2446 C2460 0.960 . S
H2447 C2460 0.960 . S
C2448 H2440 0.929 . S
C2448 C2449 1.377 . S
C2448 C2450 1.384 . S
C2449 C2448 1.377 . S
C2449 C2455 1.390 . S
C2450 H2441 0.930 . S
C2450 C2448 1.384 . S
C2450 C2451 1.372 . S
C2451 C2450 1.372 . S
C2451 C2452 1.400 . S
C2451 C2456 1.490 . S
C2452 H2442 0.930 . S
C2452 C2451 1.400 . S
C2452 C2455 1.386 . S
H2453 C2469 0.930 . S
H2454 C2470 0.931 . S
C2455 H2443 0.929 . S
C2455 C2449 1.390 . S
C2455 C2452 1.386 . S
C2456 C2451 1.490 . S
C2456 C2458 1.395 . S
C2456 C2459 1.403 . S
H2457 C2463 0.930 . S
C2458 H2444 0.930 . S
C2458 C2456 1.395 . S
C2458 C2461 1.403 . S
C2459 C2456 1.403 . S
C2459 C2460 1.524 . S
C2459 C2463 1.400 . S
C2460 H2445 0.960 . S
C2460 H2446 0.960 . S
C2460 H2447 0.960 . S
C2460 C2459 1.524 . S
C2461 C2458 1.403 . S
C2461 C2462 1.392 . S
C2461 C2465 1.495 . S
C2462 C2461 1.392 . S
C2462 C2463 1.385 . S
C2462 C2464 1.478 . S
C2463 H2457 0.930 . S
C2463 C2459 1.400 . S
C2463 C2462 1.385 . S
C2464 C2462 1.478 . S
C2464 C2466 1.381 . S
C2464 C2470 1.383 . S
C2465 C2461 1.495 . S
C2465 H2471 0.959 . S
C2465 H2472 0.961 . S
C2465 H2473 0.960 . S
C2466 C2464 1.381 . S
C2466 C2467 1.394 . S
C2466 H2474 0.930 . S
C2467 C2466 1.394 . S
C2467 C2468 1.383 . S
C2467 H2475 0.929 . S
C2468 C2467 1.383 . S
C2468 C2469 1.377 . S
C2469 H2453 0.930 . S
C2469 C2468 1.377 . S
C2469 C2470 1.379 . S
C2470 H2454 0.931 . S
C2470 C2464 1.383 . S
C2470 C2469 1.379 . S
H2471 C2465 0.959 . S
H2472 C2465 0.961 . S
H2473 C2465 0.960 . S
H2474 C2466 0.930 . S
H2475 C2467 0.929 . S
H2476 C2484 0.929 . S
H2477 C2486 0.930 . S
H2478 C2488 0.930 . S
H2479 C2491 0.929 . S
H2480 C2494 0.930 . S
H2481 C2496 0.960 . S
H2482 C2496 0.960 . S
H2483 C2496 0.960 . S
C2484 H2476 0.929 . S
C2484 C2485 1.377 . S
C2484 C2486 1.384 . S
C2485 C2484 1.377 . S
C2485 C2491 1.390 . S
C2486 H2477 0.930 . S
C2486 C2484 1.384 . S
C2486 C2487 1.372 . S
C2487 C2486 1.372 . S
C2487 C2488 1.400 . S
C2487 C2492 1.490 . S
C2488 H2478 0.930 . S
C2488 C2487 1.400 . S
C2488 C2491 1.386 . S
H2489 C2505 0.930 . S
H2490 C2506 0.931 . S
C2491 H2479 0.929 . S
C2491 C2485 1.390 . S
C2491 C2488 1.386 . S
C2492 C2487 1.490 . S
C2492 C2494 1.395 . S
C2492 C2495 1.403 . S
H2493 C2499 0.930 . S
C2494 H2480 0.930 . S
C2494 C2492 1.395 . S
C2494 C2497 1.403 . S
C2495 C2492 1.403 . S
C2495 C2496 1.524 . S
C2495 C2499 1.400 . S
C2496 H2481 0.960 . S
C2496 H2482 0.960 . S
C2496 H2483 0.960 . S
C2496 C2495 1.524 . S
C2497 C2494 1.403 . S
C2497 C2498 1.392 . S
C2497 C2501 1.495 . S
C2498 C2497 1.392 . S
C2498 C2499 1.385 . S
C2498 C2500 1.478 . S
C2499 H2493 0.930 . S
C2499 C2495 1.400 . S
C2499 C2498 1.385 . S
C2500 C2498 1.478 . S
C2500 C2502 1.381 . S
C2500 C2506 1.383 . S
C2501 C2497 1.495 . S
C2501 H2507 0.959 . S
C2501 H2508 0.961 . S
C2501 H2509 0.960 . S
C2502 C2500 1.381 . S
C2502 C2503 1.394 . S
C2502 H2510 0.930 . S
C2503 C2502 1.394 . S
C2503 C2504 1.383 . S
C2503 H2511 0.929 . S
C2504 C2503 1.383 . S
C2504 C2505 1.377 . S
C2505 H2489 0.930 . S
C2505 C2504 1.377 . S
C2505 C2506 1.379 . S
C2506 H2490 0.931 . S
C2506 C2500 1.383 . S
C2506 C2505 1.379 . S
H2507 C2501 0.959 . S
H2508 C2501 0.961 . S
H2509 C2501 0.960 . S
H2510 C2502 0.930 . S
H2511 C2503 0.929 . S
H2512 C2520 0.929 . S
H2513 C2522 0.930 . S
H2514 C2524 0.930 . S
H2515 C2527 0.929 . S
H2516 C2530 0.930 . S
H2517 C2532 0.960 . S
H2518 C2532 0.960 . S
H2519 C2532 0.960 . S
C2520 H2512 0.929 . S
C2520 C2521 1.377 . S
C2520 C2522 1.384 . S
C2521 C2520 1.377 . S
C2521 C2527 1.390 . S
C2522 H2513 0.930 . S
C2522 C2520 1.384 . S
C2522 C2523 1.372 . S
C2523 C2522 1.372 . S
C2523 C2524 1.400 . S
C2523 C2528 1.490 . S
C2524 H2514 0.930 . S
C2524 C2523 1.400 . S
C2524 C2527 1.386 . S
H2525 C2541 0.930 . S
H2526 C2542 0.931 . S
C2527 H2515 0.929 . S
C2527 C2521 1.390 . S
C2527 C2524 1.386 . S
C2528 C2523 1.490 . S
C2528 C2530 1.395 . S
C2528 C2531 1.403 . S
H2529 C2535 0.930 . S
C2530 H2516 0.930 . S
C2530 C2528 1.395 . S
C2530 C2533 1.403 . S
C2531 C2528 1.403 . S
C2531 C2532 1.524 . S
C2531 C2535 1.400 . S
C2532 H2517 0.960 . S
C2532 H2518 0.960 . S
C2532 H2519 0.960 . S
C2532 C2531 1.524 . S
C2533 C2530 1.403 . S
C2533 C2534 1.392 . S
C2533 C2537 1.495 . S
C2534 C2533 1.392 . S
C2534 C2535 1.385 . S
C2534 C2536 1.478 . S
C2535 H2529 0.930 . S
C2535 C2531 1.400 . S
C2535 C2534 1.385 . S
C2536 C2534 1.478 . S
C2536 C2538 1.381 . S
C2536 C2542 1.383 . S
C2537 C2533 1.495 . S
C2537 H2543 0.959 . S
C2537 H2544 0.961 . S
C2537 H2545 0.960 . S
C2538 C2536 1.381 . S
C2538 C2539 1.394 . S
C2538 H2546 0.930 . S
C2539 C2538 1.394 . S
C2539 C2540 1.383 . S
C2539 H2547 0.929 . S
C2540 C2539 1.383 . S
C2540 C2541 1.377 . S
C2541 H2525 0.930 . S
C2541 C2540 1.377 . S
C2541 C2542 1.379 . S
C2542 H2526 0.931 . S
C2542 C2536 1.383 . S
C2542 C2541 1.379 . S
H2543 C2537 0.959 . S
H2544 C2537 0.961 . S
H2545 C2537 0.960 . S
H2546 C2538 0.930 . S
H2547 C2539 0.929 . S
H2548 C2556 0.929 . S
H2549 C2558 0.930 . S
H2550 C2560 0.930 . S
H2551 C2563 0.929 . S
H2552 C2566 0.930 . S
H2553 C2568 0.960 . S
H2554 C2568 0.960 . S
H2555 C2568 0.960 . S
C2556 H2548 0.929 . S
C2556 C2557 1.377 . S
C2556 C2558 1.384 . S
C2557 C2556 1.377 . S
C2557 C2563 1.390 . S
C2558 H2549 0.930 . S
C2558 C2556 1.384 . S
C2558 C2559 1.372 . S
C2559 C2558 1.372 . S
C2559 C2560 1.400 . S
C2559 C2564 1.490 . S
C2560 H2550 0.930 . S
C2560 C2559 1.400 . S
C2560 C2563 1.386 . S
H2561 C2577 0.930 . S
H2562 C2578 0.931 . S
C2563 H2551 0.929 . S
C2563 C2557 1.390 . S
C2563 C2560 1.386 . S
C2564 C2559 1.490 . S
C2564 C2566 1.395 . S
C2564 C2567 1.403 . S
H2565 C2571 0.930 . S
C2566 H2552 0.930 . S
C2566 C2564 1.395 . S
C2566 C2569 1.403 . S
C2567 C2564 1.403 . S
C2567 C2568 1.524 . S
C2567 C2571 1.400 . S
C2568 H2553 0.960 . S
C2568 H2554 0.960 . S
C2568 H2555 0.960 . S
C2568 C2567 1.524 . S
C2569 C2566 1.403 . S
C2569 C2570 1.392 . S
C2569 C2573 1.495 . S
C2570 C2569 1.392 . S
C2570 C2571 1.385 . S
C2570 C2572 1.478 . S
C2571 H2565 0.930 . S
C2571 C2567 1.400 . S
C2571 C2570 1.385 . S
C2572 C2570 1.478 . S
C2572 C2574 1.381 . S
C2572 C2578 1.383 . S
C2573 C2569 1.495 . S
C2573 H2579 0.959 . S
C2573 H2580 0.961 . S
C2573 H2581 0.960 . S
C2574 C2572 1.381 . S
C2574 C2575 1.394 . S
C2574 H2582 0.930 . S
C2575 C2574 1.394 . S
C2575 C2576 1.383 . S
C2575 H2583 0.929 . S
C2576 C2575 1.383 . S
C2576 C2577 1.377 . S
C2577 H2561 0.930 . S
C2577 C2576 1.377 . S
C2577 C2578 1.379 . S
C2578 H2562 0.931 . S
C2578 C2572 1.383 . S
C2578 C2577 1.379 . S
H2579 C2573 0.959 . S
H2580 C2573 0.961 . S
H2581 C2573 0.960 . S
H2582 C2574 0.930 . S
H2583 C2575 0.929 . S
H2584 C2592 0.929 . S
H2585 C2594 0.930 . S
H2586 C2596 0.930 . S
H2587 C2599 0.929 . S
H2588 C2602 0.930 . S
H2589 C2604 0.960 . S
H2590 C2604 0.960 . S
H2591 C2604 0.960 . S
C2592 H2584 0.929 . S
C2592 C2593 1.377 . S
C2592 C2594 1.384 . S
C2593 C2592 1.377 . S
C2593 C2599 1.390 . S
C2594 H2585 0.930 . S
C2594 C2592 1.384 . S
C2594 C2595 1.372 . S
C2595 C2594 1.372 . S
C2595 C2596 1.400 . S
C2595 C2600 1.490 . S
C2596 H2586 0.930 . S
C2596 C2595 1.400 . S
C2596 C2599 1.386 . S
H2597 C2613 0.930 . S
H2598 C2614 0.931 . S
C2599 H2587 0.929 . S
C2599 C2593 1.390 . S
C2599 C2596 1.386 . S
C2600 C2595 1.490 . S
C2600 C2602 1.395 . S
C2600 C2603 1.403 . S
H2601 C2607 0.930 . S
C2602 H2588 0.930 . S
C2602 C2600 1.395 . S
C2602 C2605 1.403 . S
C2603 C2600 1.403 . S
C2603 C2604 1.524 . S
C2603 C2607 1.400 . S
C2604 H2589 0.960 . S
C2604 H2590 0.960 . S
C2604 H2591 0.960 . S
C2604 C2603 1.524 . S
C2605 C2602 1.403 . S
C2605 C2606 1.392 . S
C2605 C2609 1.495 . S
C2606 C2605 1.392 . S
C2606 C2607 1.385 . S
C2606 C2608 1.478 . S
C2607 H2601 0.930 . S
C2607 C2603 1.400 . S
C2607 C2606 1.385 . S
C2608 C2606 1.478 . S
C2608 C2610 1.381 . S
C2608 C2614 1.383 . S
C2609 C2605 1.495 . S
C2609 H2615 0.959 . S
C2609 H2616 0.961 . S
C2609 H2617 0.960 . S
C2610 C2608 1.381 . S
C2610 C2611 1.394 . S
C2610 H2618 0.930 . S
C2611 C2610 1.394 . S
C2611 C2612 1.383 . S
C2611 H2619 0.929 . S
C2612 C2611 1.383 . S
C2612 C2613 1.377 . S
C2613 H2597 0.930 . S
C2613 C2612 1.377 . S
C2613 C2614 1.379 . S
C2614 H2598 0.931 . S
C2614 C2608 1.383 . S
C2614 C2613 1.379 . S
H2615 C2609 0.959 . S
H2616 C2609 0.961 . S
H2617 C2609 0.960 . S
H2618 C2610 0.930 . S
H2619 C2611 0.929 . S
H2620 C2628 0.929 . S
H2621 C2630 0.930 . S
H2622 C2632 0.930 . S
H2623 C2635 0.929 . S
H2624 C2638 0.930 . S
H2625 C2640 0.960 . S
H2626 C2640 0.960 . S
H2627 C2640 0.960 . S
C2628 H2620 0.929 . S
C2628 C2629 1.377 . S
C2628 C2630 1.384 . S
C2629 C2628 1.377 . S
C2629 C2635 1.390 . S
C2630 H2621 0.930 . S
C2630 C2628 1.384 . S
C2630 C2631 1.372 . S
C2631 C2630 1.372 . S
C2631 C2632 1.400 . S
C2631 C2636 1.490 . S
C2632 H2622 0.930 . S
C2632 C2631 1.400 . S
C2632 C2635 1.386 . S
H2633 C2649 0.930 . S
H2634 C2650 0.931 . S
C2635 H2623 0.929 . S
C2635 C2629 1.390 . S
C2635 C2632 1.386 . S
C2636 C2631 1.490 . S
C2636 C2638 1.395 . S
C2636 C2639 1.403 . S
H2637 C2643 0.930 . S
C2638 H2624 0.930 . S
C2638 C2636 1.395 . S
C2638 C2641 1.403 . S
C2639 C2636 1.403 . S
C2639 C2640 1.524 . S
C2639 C2643 1.400 . S
C2640 H2625 0.960 . S
C2640 H2626 0.960 . S
C2640 H2627 0.960 . S
C2640 C2639 1.524 . S
C2641 C2638 1.403 . S
C2641 C2642 1.392 . S
C2641 C2645 1.495 . S
C2642 C2641 1.392 . S
C2642 C2643 1.385 . S
C2642 C2644 1.478 . S
C2643 H2637 0.930 . S
C2643 C2639 1.400 . S
C2643 C2642 1.385 . S
C2644 C2642 1.478 . S
C2644 C2646 1.381 . S
C2644 C2650 1.383 . S
C2645 C2641 1.495 . S
C2645 H2651 0.959 . S
C2645 H2652 0.961 . S
C2645 H2653 0.960 . S
C2646 C2644 1.381 . S
C2646 C2647 1.394 . S
C2646 H2654 0.930 . S
C2647 C2646 1.394 . S
C2647 C2648 1.383 . S
C2647 H2655 0.929 . S
C2648 C2647 1.383 . S
C2648 C2649 1.377 . S
C2649 H2633 0.930 . S
C2649 C2648 1.377 . S
C2649 C2650 1.379 . S
C2650 H2634 0.931 . S
C2650 C2644 1.383 . S
C2650 C2649 1.379 . S
H2651 C2645 0.959 . S
H2652 C2645 0.961 . S
H2653 C2645 0.960 . S
H2654 C2646 0.930 . S
H2655 C2647 0.929 . S
H2656 C2664 0.929 . S
H2657 C2666 0.930 . S
H2658 C2668 0.930 . S
H2659 C2671 0.929 . S
H2660 C2674 0.930 . S
H2661 C2676 0.960 . S
H2662 C2676 0.960 . S
H2663 C2676 0.960 . S
C2664 H2656 0.929 . S
C2664 C2665 1.377 . S
C2664 C2666 1.384 . S
C2665 C2664 1.377 . S
C2665 C2671 1.390 . S
C2666 H2657 0.930 . S
C2666 C2664 1.384 . S
C2666 C2667 1.372 . S
C2667 C2666 1.372 . S
C2667 C2668 1.400 . S
C2667 C2672 1.490 . S
C2668 H2658 0.930 . S
C2668 C2667 1.400 . S
C2668 C2671 1.386 . S
H2669 C2685 0.930 . S
H2670 C2686 0.931 . S
C2671 H2659 0.929 . S
C2671 C2665 1.390 . S
C2671 C2668 1.386 . S
C2672 C2667 1.490 . S
C2672 C2674 1.395 . S
C2672 C2675 1.403 . S
H2673 C2679 0.930 . S
C2674 H2660 0.930 . S
C2674 C2672 1.395 . S
C2674 C2677 1.403 . S
C2675 C2672 1.403 . S
C2675 C2676 1.524 . S
C2675 C2679 1.400 . S
C2676 H2661 0.960 . S
C2676 H2662 0.960 . S
C2676 H2663 0.960 . S
C2676 C2675 1.524 . S
C2677 C2674 1.403 . S
C2677 C2678 1.392 . S
C2677 C2681 1.495 . S
C2678 C2677 1.392 . S
C2678 C2679 1.385 . S
C2678 C2680 1.478 . S
C2679 H2673 0.930 . S
C2679 C2675 1.400 . S
C2679 C2678 1.385 . S
C2680 C2678 1.478 . S
C2680 C2682 1.381 . S
C2680 C2686 1.383 . S
C2681 C2677 1.495 . S
C2681 H2687 0.959 . S
C2681 H2688 0.961 . S
C2681 H2689 0.960 . S
C2682 C2680 1.381 . S
C2682 C2683 1.394 . S
C2682 H2690 0.930 . S
C2683 C2682 1.394 . S
C2683 C2684 1.383 . S
C2683 H2691 0.929 . S
C2684 C2683 1.383 . S
C2684 C2685 1.377 . S
C2685 H2669 0.930 . S
C2685 C2684 1.377 . S
C2685 C2686 1.379 . S
C2686 H2670 0.931 . S
C2686 C2680 1.383 . S
C2686 C2685 1.379 . S
H2687 C2681 0.959 . S
H2688 C2681 0.961 . S
H2689 C2681 0.960 . S
H2690 C2682 0.930 . S
H2691 C2683 0.929 . S
H2692 C2700 0.929 . S
H2693 C2702 0.930 . S
H2694 C2704 0.930 . S
H2695 C2707 0.929 . S
H2696 C2710 0.930 . S
H2697 C2712 0.960 . S
H2698 C2712 0.960 . S
H2699 C2712 0.960 . S
C2700 H2692 0.929 . S
C2700 C2701 1.377 . S
C2700 C2702 1.384 . S
C2701 C2700 1.377 . S
C2701 C2707 1.390 . S
C2702 H2693 0.930 . S
C2702 C2700 1.384 . S
C2702 C2703 1.372 . S
C2703 C2702 1.372 . S
C2703 C2704 1.400 . S
C2703 C2708 1.490 . S
C2704 H2694 0.930 . S
C2704 C2703 1.400 . S
C2704 C2707 1.386 . S
H2705 C2721 0.930 . S
H2706 C2722 0.931 . S
C2707 H2695 0.929 . S
C2707 C2701 1.390 . S
C2707 C2704 1.386 . S
C2708 C2703 1.490 . S
C2708 C2710 1.395 . S
C2708 C2711 1.403 . S
H2709 C2715 0.930 . S
C2710 H2696 0.930 . S
C2710 C2708 1.395 . S
C2710 C2713 1.403 . S
C2711 C2708 1.403 . S
C2711 C2712 1.524 . S
C2711 C2715 1.400 . S
C2712 H2697 0.960 . S
C2712 H2698 0.960 . S
C2712 H2699 0.960 . S
C2712 C2711 1.524 . S
C2713 C2710 1.403 . S
C2713 C2714 1.392 . S
C2713 C2717 1.495 . S
C2714 C2713 1.392 . S
C2714 C2715 1.385 . S
C2714 C2716 1.478 . S
C2715 H2709 0.930 . S
C2715 C2711 1.400 . S
C2715 C2714 1.385 . S
C2716 C2714 1.478 . S
C2716 C2718 1.381 . S
C2716 C2722 1.383 . S
C2717 C2713 1.495 . S
C2717 H2723 0.959 . S
C2717 H2724 0.961 . S
C2717 H2725 0.960 . S
C2718 C2716 1.381 . S
C2718 C2719 1.394 . S
C2718 H2726 0.930 . S
C2719 C2718 1.394 . S
C2719 C2720 1.383 . S
C2719 H2727 0.929 . S
C2720 C2719 1.383 . S
C2720 C2721 1.377 . S
C2721 H2705 0.930 . S
C2721 C2720 1.377 . S
C2721 C2722 1.379 . S
C2722 H2706 0.931 . S
C2722 C2716 1.383 . S
C2722 C2721 1.379 . S
H2723 C2717 0.959 . S
H2724 C2717 0.961 . S
H2725 C2717 0.960 . S
H2726 C2718 0.930 . S
H2727 C2719 0.929 . S
H2728 C2736 0.929 . S
H2729 C2738 0.930 . S
H2730 C2740 0.930 . S
H2731 C2743 0.929 . S
H2732 C2746 0.930 . S
H2733 C2748 0.960 . S
H2734 C2748 0.960 . S
H2735 C2748 0.960 . S
C2736 H2728 0.929 . S
C2736 C2737 1.377 . S
C2736 C2738 1.384 . S
C2737 C2736 1.377 . S
C2737 C2743 1.390 . S
C2738 H2729 0.930 . S
C2738 C2736 1.384 . S
C2738 C2739 1.372 . S
C2739 C2738 1.372 . S
C2739 C2740 1.400 . S
C2739 C2744 1.490 . S
C2740 H2730 0.930 . S
C2740 C2739 1.400 . S
C2740 C2743 1.386 . S
H2741 C2757 0.930 . S
H2742 C2758 0.931 . S
C2743 H2731 0.929 . S
C2743 C2737 1.390 . S
C2743 C2740 1.386 . S
C2744 C2739 1.490 . S
C2744 C2746 1.395 . S
C2744 C2747 1.403 . S
H2745 C2751 0.930 . S
C2746 H2732 0.930 . S
C2746 C2744 1.395 . S
C2746 C2749 1.403 . S
C2747 C2744 1.403 . S
C2747 C2748 1.524 . S
C2747 C2751 1.400 . S
C2748 H2733 0.960 . S
C2748 H2734 0.960 . S
C2748 H2735 0.960 . S
C2748 C2747 1.524 . S
C2749 C2746 1.403 . S
C2749 C2750 1.392 . S
C2749 C2753 1.495 . S
C2750 C2749 1.392 . S
C2750 C2751 1.385 . S
C2750 C2752 1.478 . S
C2751 H2745 0.930 . S
C2751 C2747 1.400 . S
C2751 C2750 1.385 . S
C2752 C2750 1.478 . S
C2752 C2754 1.381 . S
C2752 C2758 1.383 . S
C2753 C2749 1.495 . S
C2753 H2759 0.959 . S
C2753 H2760 0.961 . S
C2753 H2761 0.960 . S
C2754 C2752 1.381 . S
C2754 C2755 1.394 . S
C2754 H2762 0.930 . S
C2755 C2754 1.394 . S
C2755 C2756 1.383 . S
C2755 H2763 0.929 . S
C2756 C2755 1.383 . S
C2756 C2757 1.377 . S
C2757 H2741 0.930 . S
C2757 C2756 1.377 . S
C2757 C2758 1.379 . S
C2758 H2742 0.931 . S
C2758 C2752 1.383 . S
C2758 C2757 1.379 . S
H2759 C2753 0.959 . S
H2760 C2753 0.961 . S
H2761 C2753 0.960 . S
H2762 C2754 0.930 . S
H2763 C2755 0.929 . S
H2764 C2772 0.929 . S
H2765 C2774 0.930 . S
H2766 C2776 0.930 . S
H2767 C2779 0.929 . S
H2768 C2782 0.930 . S
H2769 C2784 0.960 . S
H2770 C2784 0.960 . S
H2771 C2784 0.960 . S
C2772 H2764 0.929 . S
C2772 C2773 1.377 . S
C2772 C2774 1.384 . S
C2773 C2772 1.377 . S
C2773 C2779 1.390 . S
C2774 H2765 0.930 . S
C2774 C2772 1.384 . S
C2774 C2775 1.372 . S
C2775 C2774 1.372 . S
C2775 C2776 1.400 . S
C2775 C2780 1.490 . S
C2776 H2766 0.930 . S
C2776 C2775 1.400 . S
C2776 C2779 1.386 . S
H2777 C2793 0.930 . S
H2778 C2794 0.931 . S
C2779 H2767 0.929 . S
C2779 C2773 1.390 . S
C2779 C2776 1.386 . S
C2780 C2775 1.490 . S
C2780 C2782 1.395 . S
C2780 C2783 1.403 . S
H2781 C2787 0.930 . S
C2782 H2768 0.930 . S
C2782 C2780 1.395 . S
C2782 C2785 1.403 . S
C2783 C2780 1.403 . S
C2783 C2784 1.524 . S
C2783 C2787 1.400 . S
C2784 H2769 0.960 . S
C2784 H2770 0.960 . S
C2784 H2771 0.960 . S
C2784 C2783 1.524 . S
C2785 C2782 1.403 . S
C2785 C2786 1.392 . S
C2785 C2789 1.495 . S
C2786 C2785 1.392 . S
C2786 C2787 1.385 . S
C2786 C2788 1.478 . S
C2787 H2781 0.930 . S
C2787 C2783 1.400 . S
C2787 C2786 1.385 . S
C2788 C2786 1.478 . S
C2788 C2790 1.381 . S
C2788 C2794 1.383 . S
C2789 C2785 1.495 . S
C2789 H2795 0.959 . S
C2789 H2796 0.961 . S
C2789 H2797 0.960 . S
C2790 C2788 1.381 . S
C2790 C2791 1.394 . S
C2790 H2798 0.930 . S
C2791 C2790 1.394 . S
C2791 C2792 1.383 . S
C2791 H2799 0.929 . S
C2792 C2791 1.383 . S
C2792 C2793 1.377 . S
C2793 H2777 0.930 . S
C2793 C2792 1.377 . S
C2793 C2794 1.379 . S
C2794 H2778 0.931 . S
C2794 C2788 1.383 . S
C2794 C2793 1.379 . S
H2795 C2789 0.959 . S
H2796 C2789 0.961 . S
H2797 C2789 0.960 . S
H2798 C2790 0.930 . S
H2799 C2791 0.929 . S
H2800 C2808 0.929 . S
H2801 C2810 0.930 . S
H2802 C2812 0.930 . S
H2803 C2815 0.929 . S
H2804 C2818 0.930 . S
H2805 C2820 0.960 . S
H2806 C2820 0.960 . S
H2807 C2820 0.960 . S
C2808 H2800 0.929 . S
C2808 C2809 1.377 . S
C2808 C2810 1.384 . S
C2809 C2808 1.377 . S
C2809 C2815 1.390 . S
C2810 H2801 0.930 . S
C2810 C2808 1.384 . S
C2810 C2811 1.372 . S
C2811 C2810 1.372 . S
C2811 C2812 1.400 . S
C2811 C2816 1.490 . S
C2812 H2802 0.930 . S
C2812 C2811 1.400 . S
C2812 C2815 1.386 . S
H2813 C2829 0.930 . S
H2814 C2830 0.931 . S
C2815 H2803 0.929 . S
C2815 C2809 1.390 . S
C2815 C2812 1.386 . S
C2816 C2811 1.490 . S
C2816 C2818 1.395 . S
C2816 C2819 1.403 . S
H2817 C2823 0.930 . S
C2818 H2804 0.930 . S
C2818 C2816 1.395 . S
C2818 C2821 1.403 . S
C2819 C2816 1.403 . S
C2819 C2820 1.524 . S
C2819 C2823 1.400 . S
C2820 H2805 0.960 . S
C2820 H2806 0.960 . S
C2820 H2807 0.960 . S
C2820 C2819 1.524 . S
C2821 C2818 1.403 . S
C2821 C2822 1.392 . S
C2821 C2825 1.495 . S
C2822 C2821 1.392 . S
C2822 C2823 1.385 . S
C2822 C2824 1.478 . S
C2823 H2817 0.930 . S
C2823 C2819 1.400 . S
C2823 C2822 1.385 . S
C2824 C2822 1.478 . S
C2824 C2826 1.381 . S
C2824 C2830 1.383 . S
C2825 C2821 1.495 . S
C2825 H2831 0.959 . S
C2825 H2832 0.961 . S
C2825 H2833 0.960 . S
C2826 C2824 1.381 . S
C2826 C2827 1.394 . S
C2826 H2834 0.930 . S
C2827 C2826 1.394 . S
C2827 C2828 1.383 . S
C2827 H2835 0.929 . S
C2828 C2827 1.383 . S
C2828 C2829 1.377 . S
C2829 H2813 0.930 . S
C2829 C2828 1.377 . S
C2829 C2830 1.379 . S
C2830 H2814 0.931 . S
C2830 C2824 1.383 . S
C2830 C2829 1.379 . S
H2831 C2825 0.959 . S
H2832 C2825 0.961 . S
H2833 C2825 0.960 . S
H2834 C2826 0.930 . S
H2835 C2827 0.929 . S
H2836 C2844 0.929 . S
H2837 C2846 0.930 . S
H2838 C2848 0.930 . S
H2839 C2851 0.929 . S
H2840 C2854 0.930 . S
H2841 C2856 0.960 . S
H2842 C2856 0.960 . S
H2843 C2856 0.960 . S
C2844 H2836 0.929 . S
C2844 C2845 1.377 . S
C2844 C2846 1.384 . S
C2845 C2844 1.377 . S
C2845 C2851 1.390 . S
C2846 H2837 0.930 . S
C2846 C2844 1.384 . S
C2846 C2847 1.372 . S
C2847 C2846 1.372 . S
C2847 C2848 1.400 . S
C2847 C2852 1.490 . S
C2848 H2838 0.930 . S
C2848 C2847 1.400 . S
C2848 C2851 1.386 . S
H2849 C2865 0.930 . S
H2850 C2866 0.931 . S
C2851 H2839 0.929 . S
C2851 C2845 1.390 . S
C2851 C2848 1.386 . S
C2852 C2847 1.490 . S
C2852 C2854 1.395 . S
C2852 C2855 1.403 . S
H2853 C2859 0.930 . S
C2854 H2840 0.930 . S
C2854 C2852 1.395 . S
C2854 C2857 1.403 . S
C2855 C2852 1.403 . S
C2855 C2856 1.524 . S
C2855 C2859 1.400 . S
C2856 H2841 0.960 . S
C2856 H2842 0.960 . S
C2856 H2843 0.960 . S
C2856 C2855 1.524 . S
C2857 C2854 1.403 . S
C2857 C2858 1.392 . S
C2857 C2861 1.495 . S
C2858 C2857 1.392 . S
C2858 C2859 1.385 . S
C2858 C2860 1.478 . S
C2859 H2853 0.930 . S
C2859 C2855 1.400 . S
C2859 C2858 1.385 . S
C2860 C2858 1.478 . S
C2860 C2862 1.381 . S
C2860 C2866 1.383 . S
C2861 C2857 1.495 . S
C2861 H2867 0.959 . S
C2861 H2868 0.961 . S
C2861 H2869 0.960 . S
C2862 C2860 1.381 . S
C2862 C2863 1.394 . S
C2862 H2870 0.930 . S
C2863 C2862 1.394 . S
C2863 C2864 1.383 . S
C2863 H2871 0.929 . S
C2864 C2863 1.383 . S
C2864 C2865 1.377 . S
C2865 H2849 0.930 . S
C2865 C2864 1.377 . S
C2865 C2866 1.379 . S
C2866 H2850 0.931 . S
C2866 C2860 1.383 . S
C2866 C2865 1.379 . S
H2867 C2861 0.959 . S
H2868 C2861 0.961 . S
H2869 C2861 0.960 . S
H2870 C2862 0.930 . S
H2871 C2863 0.929 . S
H2872 C2880 0.929 . S
H2873 C2882 0.930 . S
H2874 C2884 0.930 . S
H2875 C2887 0.929 . S
H2876 C2890 0.930 . S
H2877 C2892 0.960 . S
H2878 C2892 0.960 . S
H2879 C2892 0.960 . S
C2880 H2872 0.929 . S
C2880 C2881 1.377 . S
C2880 C2882 1.384 . S
C2881 C2880 1.377 . S
C2881 C2887 1.390 . S
C2882 H2873 0.930 . S
C2882 C2880 1.384 . S
C2882 C2883 1.372 . S
C2883 C2882 1.372 . S
C2883 C2884 1.400 . S
C2883 C2888 1.490 . S
C2884 H2874 0.930 . S
C2884 C2883 1.400 . S
C2884 C2887 1.386 . S
H2885 C2901 0.930 . S
H2886 C2902 0.931 . S
C2887 H2875 0.929 . S
C2887 C2881 1.390 . S
C2887 C2884 1.386 . S
C2888 C2883 1.490 . S
C2888 C2890 1.395 . S
C2888 C2891 1.403 . S
H2889 C2895 0.930 . S
C2890 H2876 0.930 . S
C2890 C2888 1.395 . S
C2890 C2893 1.403 . S
C2891 C2888 1.403 . S
C2891 C2892 1.524 . S
C2891 C2895 1.400 . S
C2892 H2877 0.960 . S
C2892 H2878 0.960 . S
C2892 H2879 0.960 . S
C2892 C2891 1.524 . S
C2893 C2890 1.403 . S
C2893 C2894 1.392 . S
C2893 C2897 1.495 . S
C2894 C2893 1.392 . S
C2894 C2895 1.385 . S
C2894 C2896 1.478 . S
C2895 H2889 0.930 . S
C2895 C2891 1.400 . S
C2895 C2894 1.385 . S
C2896 C2894 1.478 . S
C2896 C2898 1.381 . S
C2896 C2902 1.383 . S
C2897 C2893 1.495 . S
C2897 H2903 0.959 . S
C2897 H2904 0.961 . S
C2897 H2905 0.960 . S
C2898 C2896 1.381 . S
C2898 C2899 1.394 . S
C2898 H2906 0.930 . S
C2899 C2898 1.394 . S
C2899 C2900 1.383 . S
C2899 H2907 0.929 . S
C2900 C2899 1.383 . S
C2900 C2901 1.377 . S
C2901 H2885 0.930 . S
C2901 C2900 1.377 . S
C2901 C2902 1.379 . S
C2902 H2886 0.931 . S
C2902 C2896 1.383 . S
C2902 C2901 1.379 . S
H2903 C2897 0.959 . S
H2904 C2897 0.961 . S
H2905 C2897 0.960 . S
H2906 C2898 0.930 . S
H2907 C2899 0.929 . S
H2908 C2916 0.929 . S
H2909 C2918 0.930 . S
H2910 C2920 0.930 . S
H2911 C2923 0.929 . S
H2912 C2926 0.930 . S
H2913 C2928 0.960 . S
H2914 C2928 0.960 . S
H2915 C2928 0.960 . S
C2916 H2908 0.929 . S
C2916 C2917 1.377 . S
C2916 C2918 1.384 . S
C2917 C2916 1.377 . S
C2917 C2923 1.390 . S
C2918 H2909 0.930 . S
C2918 C2916 1.384 . S
C2918 C2919 1.372 . S
C2919 C2918 1.372 . S
C2919 C2920 1.400 . S
C2919 C2924 1.490 . S
C2920 H2910 0.930 . S
C2920 C2919 1.400 . S
C2920 C2923 1.386 . S
H2921 C2937 0.930 . S
H2922 C2938 0.931 . S
C2923 H2911 0.929 . S
C2923 C2917 1.390 . S
C2923 C2920 1.386 . S
C2924 C2919 1.490 . S
C2924 C2926 1.395 . S
C2924 C2927 1.403 . S
H2925 C2931 0.930 . S
C2926 H2912 0.930 . S
C2926 C2924 1.395 . S
C2926 C2929 1.403 . S
C2927 C2924 1.403 . S
C2927 C2928 1.524 . S
C2927 C2931 1.400 . S
C2928 H2913 0.960 . S
C2928 H2914 0.960 . S
C2928 H2915 0.960 . S
C2928 C2927 1.524 . S
C2929 C2926 1.403 . S
C2929 C2930 1.392 . S
C2929 C2933 1.495 . S
C2930 C2929 1.392 . S
C2930 C2931 1.385 . S
C2930 C2932 1.478 . S
C2931 H2925 0.930 . S
C2931 C2927 1.400 . S
C2931 C2930 1.385 . S
C2932 C2930 1.478 . S
C2932 C2934 1.381 . S
C2932 C2938 1.383 . S
C2933 C2929 1.495 . S
C2933 H2939 0.959 . S
C2933 H2940 0.961 . S
C2933 H2941 0.960 . S
C2934 C2932 1.381 . S
C2934 C2935 1.394 . S
C2934 H2942 0.930 . S
C2935 C2934 1.394 . S
C2935 C2936 1.383 . S
C2935 H2943 0.929 . S
C2936 C2935 1.383 . S
C2936 C2937 1.377 . S
C2937 H2921 0.930 . S
C2937 C2936 1.377 . S
C2937 C2938 1.379 . S
C2938 H2922 0.931 . S
C2938 C2932 1.383 . S
C2938 C2937 1.379 . S
H2939 C2933 0.959 . S
H2940 C2933 0.961 . S
H2941 C2933 0.960 . S
H2942 C2934 0.930 . S
H2943 C2935 0.929 . S
H2944 C2952 0.929 . S
H2945 C2954 0.930 . S
H2946 C2956 0.930 . S
H2947 C2959 0.929 . S
H2948 C2962 0.930 . S
H2949 C2964 0.960 . S
H2950 C2964 0.960 . S
H2951 C2964 0.960 . S
C2952 H2944 0.929 . S
C2952 C2953 1.377 . S
C2952 C2954 1.384 . S
C2953 C2952 1.377 . S
C2953 C2959 1.390 . S
C2954 H2945 0.930 . S
C2954 C2952 1.384 . S
C2954 C2955 1.372 . S
C2955 C2954 1.372 . S
C2955 C2956 1.400 . S
C2955 C2960 1.490 . S
C2956 H2946 0.930 . S
C2956 C2955 1.400 . S
C2956 C2959 1.386 . S
H2957 C2973 0.930 . S
H2958 C2974 0.931 . S
C2959 H2947 0.929 . S
C2959 C2953 1.390 . S
C2959 C2956 1.386 . S
C2960 C2955 1.490 . S
C2960 C2962 1.395 . S
C2960 C2963 1.403 . S
H2961 C2967 0.930 . S
C2962 H2948 0.930 . S
C2962 C2960 1.395 . S
C2962 C2965 1.403 . S
C2963 C2960 1.403 . S
C2963 C2964 1.524 . S
C2963 C2967 1.400 . S
C2964 H2949 0.960 . S
C2964 H2950 0.960 . S
C2964 H2951 0.960 . S
C2964 C2963 1.524 . S
C2965 C2962 1.403 . S
C2965 C2966 1.392 . S
C2965 C2969 1.495 . S
C2966 C2965 1.392 . S
C2966 C2967 1.385 . S
C2966 C2968 1.478 . S
C2967 H2961 0.930 . S
C2967 C2963 1.400 . S
C2967 C2966 1.385 . S
C2968 C2966 1.478 . S
C2968 C2970 1.381 . S
C2968 C2974 1.383 . S
C2969 C2965 1.495 . S
C2969 H2975 0.959 . S
C2969 H2976 0.961 . S
C2969 H2977 0.960 . S
C2970 C2968 1.381 . S
C2970 C2971 1.394 . S
C2970 H2978 0.930 . S
C2971 C2970 1.394 . S
C2971 C2972 1.383 . S
C2971 H2979 0.929 . S
C2972 C2971 1.383 . S
C2972 C2973 1.377 . S
C2973 H2957 0.930 . S
C2973 C2972 1.377 . S
C2973 C2974 1.379 . S
C2974 H2958 0.931 . S
C2974 C2968 1.383 . S
C2974 C2973 1.379 . S
H2975 C2969 0.959 . S
H2976 C2969 0.961 . S
H2977 C2969 0.960 . S
H2978 C2970 0.930 . S
H2979 C2971 0.929 . S
H2980 C2988 0.929 . S
H2981 C2990 0.930 . S
H2982 C2992 0.930 . S
H2983 C2995 0.929 . S
H2984 C2998 0.930 . S
H2985 C3000 0.960 . S
H2986 C3000 0.960 . S
H2987 C3000 0.960 . S
C2988 H2980 0.929 . S
C2988 C2989 1.377 . S
C2988 C2990 1.384 . S
C2989 C2988 1.377 . S
C2989 C2995 1.390 . S
C2990 H2981 0.930 . S
C2990 C2988 1.384 . S
C2990 C2991 1.372 . S
C2991 C2990 1.372 . S
C2991 C2992 1.400 . S
C2991 C2996 1.490 . S
C2992 H2982 0.930 . S
C2992 C2991 1.400 . S
C2992 C2995 1.386 . S
H2993 C3009 0.930 . S
H2994 C3010 0.931 . S
C2995 H2983 0.929 . S
C2995 C2989 1.390 . S
C2995 C2992 1.386 . S
C2996 C2991 1.490 . S
C2996 C2998 1.395 . S
C2996 C2999 1.403 . S
H2997 C3003 0.930 . S
C2998 H2984 0.930 . S
C2998 C2996 1.395 . S
C2998 C3001 1.403 . S
C2999 C2996 1.403 . S
C2999 C3000 1.524 . S
C2999 C3003 1.400 . S
C3000 H2985 0.960 . S
C3000 H2986 0.960 . S
C3000 H2987 0.960 . S
C3000 C2999 1.524 . S
C3001 C2998 1.403 . S
C3001 C3002 1.392 . S
C3001 C3005 1.495 . S
C3002 C3001 1.392 . S
C3002 C3003 1.385 . S
C3002 C3004 1.478 . S
C3003 H2997 0.930 . S
C3003 C2999 1.400 . S
C3003 C3002 1.385 . S
C3004 C3002 1.478 . S
C3004 C3006 1.381 . S
C3004 C3010 1.383 . S
C3005 C3001 1.495 . S
C3005 H3011 0.959 . S
C3005 H3012 0.961 . S
C3005 H3013 0.960 . S
C3006 C3004 1.381 . S
C3006 C3007 1.394 . S
C3006 H3014 0.930 . S
C3007 C3006 1.394 . S
C3007 C3008 1.383 . S
C3007 H3015 0.929 . S
C3008 C3007 1.383 . S
C3008 C3009 1.377 . S
C3009 H2993 0.930 . S
C3009 C3008 1.377 . S
C3009 C3010 1.379 . S
C3010 H2994 0.931 . S
C3010 C3004 1.383 . S
C3010 C3009 1.379 . S
H3011 C3005 0.959 . S
H3012 C3005 0.961 . S
H3013 C3005 0.960 . S
H3014 C3006 0.930 . S
H3015 C3007 0.929 . S
H3016 C3024 0.929 . S
H3017 C3026 0.930 . S
H3018 C3028 0.930 . S
H3019 C3031 0.929 . S
H3020 C3034 0.930 . S
H3021 C3036 0.960 . S
H3022 C3036 0.960 . S
H3023 C3036 0.960 . S
C3024 H3016 0.929 . S
C3024 C3025 1.377 . S
C3024 C3026 1.384 . S
C3025 C3024 1.377 . S
C3025 C3031 1.390 . S
C3026 H3017 0.930 . S
C3026 C3024 1.384 . S
C3026 C3027 1.372 . S
C3027 C3026 1.372 . S
C3027 C3028 1.400 . S
C3027 C3032 1.490 . S
C3028 H3018 0.930 . S
C3028 C3027 1.400 . S
C3028 C3031 1.386 . S
H3029 C3045 0.930 . S
H3030 C3046 0.931 . S
C3031 H3019 0.929 . S
C3031 C3025 1.390 . S
C3031 C3028 1.386 . S
C3032 C3027 1.490 . S
C3032 C3034 1.395 . S
C3032 C3035 1.403 . S
H3033 C3039 0.930 . S
C3034 H3020 0.930 . S
C3034 C3032 1.395 . S
C3034 C3037 1.403 . S
C3035 C3032 1.403 . S
C3035 C3036 1.524 . S
C3035 C3039 1.400 . S
C3036 H3021 0.960 . S
C3036 H3022 0.960 . S
C3036 H3023 0.960 . S
C3036 C3035 1.524 . S
C3037 C3034 1.403 . S
C3037 C3038 1.392 . S
C3037 C3041 1.495 . S
C3038 C3037 1.392 . S
C3038 C3039 1.385 . S
C3038 C3040 1.478 . S
C3039 H3033 0.930 . S
C3039 C3035 1.400 . S
C3039 C3038 1.385 . S
C3040 C3038 1.478 . S
C3040 C3042 1.381 . S
C3040 C3046 1.383 . S
C3041 C3037 1.495 . S
C3041 H3047 0.959 . S
C3041 H3048 0.961 . S
C3041 H3049 0.960 . S
C3042 C3040 1.381 . S
C3042 C3043 1.394 . S
C3042 H3050 0.930 . S
C3043 C3042 1.394 . S
C3043 C3044 1.383 . S
C3043 H3051 0.929 . S
C3044 C3043 1.383 . S
C3044 C3045 1.377 . S
C3045 H3029 0.930 . S
C3045 C3044 1.377 . S
C3045 C3046 1.379 . S
C3046 H3030 0.931 . S
C3046 C3040 1.383 . S
C3046 C3045 1.379 . S
H3047 C3041 0.959 . S
H3048 C3041 0.961 . S
H3049 C3041 0.960 . S
H3050 C3042 0.930 . S
H3051 C3043 0.929 . S
H3052 C3060 0.929 . S
H3053 C3062 0.930 . S
H3054 C3064 0.930 . S
H3055 C3067 0.929 . S
H3056 C3070 0.930 . S
H3057 C3072 0.960 . S
H3058 C3072 0.960 . S
H3059 C3072 0.960 . S
C3060 H3052 0.929 . S
C3060 C3061 1.377 . S
C3060 C3062 1.384 . S
C3061 C3060 1.377 . S
C3061 C3067 1.390 . S
C3062 H3053 0.930 . S
C3062 C3060 1.384 . S
C3062 C3063 1.372 . S
C3063 C3062 1.372 . S
C3063 C3064 1.400 . S
C3063 C3068 1.490 . S
C3064 H3054 0.930 . S
C3064 C3063 1.400 . S
C3064 C3067 1.386 . S
H3065 C3081 0.930 . S
H3066 C3082 0.931 . S
C3067 H3055 0.929 . S
C3067 C3061 1.390 . S
C3067 C3064 1.386 . S
C3068 C3063 1.490 . S
C3068 C3070 1.395 . S
C3068 C3071 1.403 . S
H3069 C3075 0.930 . S
C3070 H3056 0.930 . S
C3070 C3068 1.395 . S
C3070 C3073 1.403 . S
C3071 C3068 1.403 . S
C3071 C3072 1.524 . S
C3071 C3075 1.400 . S
C3072 H3057 0.960 . S
C3072 H3058 0.960 . S
C3072 H3059 0.960 . S
C3072 C3071 1.524 . S
C3073 C3070 1.403 . S
C3073 C3074 1.392 . S
C3073 C3077 1.495 . S
C3074 C3073 1.392 . S
C3074 C3075 1.385 . S
C3074 C3076 1.478 . S
C3075 H3069 0.930 . S
C3075 C3071 1.400 . S
C3075 C3074 1.385 . S
C3076 C3074 1.478 . S
C3076 C3078 1.381 . S
C3076 C3082 1.383 . S
C3077 C3073 1.495 . S
C3077 H3083 0.959 . S
C3077 H3084 0.961 . S
C3077 H3085 0.960 . S
C3078 C3076 1.381 . S
C3078 C3079 1.394 . S
C3078 H3086 0.930 . S
C3079 C3078 1.394 . S
C3079 C3080 1.383 . S
C3079 H3087 0.929 . S
C3080 C3079 1.383 . S
C3080 C3081 1.377 . S
C3081 H3065 0.930 . S
C3081 C3080 1.377 . S
C3081 C3082 1.379 . S
C3082 H3066 0.931 . S
C3082 C3076 1.383 . S
C3082 C3081 1.379 . S
H3083 C3077 0.959 . S
H3084 C3077 0.961 . S
H3085 C3077 0.960 . S
H3086 C3078 0.930 . S
H3087 C3079 0.929 . S
H3088 C3096 0.929 . S
H3089 C3098 0.930 . S
H3090 C3100 0.930 . S
H3091 C3103 0.929 . S
H3092 C3106 0.930 . S
H3093 C3108 0.960 . S
H3094 C3108 0.960 . S
H3095 C3108 0.960 . S
C3096 H3088 0.929 . S
C3096 C3097 1.377 . S
C3096 C3098 1.384 . S
C3097 C3096 1.377 . S
C3097 C3103 1.390 . S
C3098 H3089 0.930 . S
C3098 C3096 1.384 . S
C3098 C3099 1.372 . S
C3099 C3098 1.372 . S
C3099 C3100 1.400 . S
C3099 C3104 1.490 . S
C3100 H3090 0.930 . S
C3100 C3099 1.400 . S
C3100 C3103 1.386 . S
H3101 C3117 0.930 . S
H3102 C3118 0.931 . S
C3103 H3091 0.929 . S
C3103 C3097 1.390 . S
C3103 C3100 1.386 . S
C3104 C3099 1.490 . S
C3104 C3106 1.395 . S
C3104 C3107 1.403 . S
H3105 C3111 0.930 . S
C3106 H3092 0.930 . S
C3106 C3104 1.395 . S
C3106 C3109 1.403 . S
C3107 C3104 1.403 . S
C3107 C3108 1.524 . S
C3107 C3111 1.400 . S
C3108 H3093 0.960 . S
C3108 H3094 0.960 . S
C3108 H3095 0.960 . S
C3108 C3107 1.524 . S
C3109 C3106 1.403 . S
C3109 C3110 1.392 . S
C3109 C3113 1.495 . S
C3110 C3109 1.392 . S
C3110 C3111 1.385 . S
C3110 C3112 1.478 . S
C3111 H3105 0.930 . S
C3111 C3107 1.400 . S
C3111 C3110 1.385 . S
C3112 C3110 1.478 . S
C3112 C3114 1.381 . S
C3112 C3118 1.383 . S
C3113 C3109 1.495 . S
C3113 H3119 0.959 . S
C3113 H3120 0.961 . S
C3113 H3121 0.960 . S
C3114 C3112 1.381 . S
C3114 C3115 1.394 . S
C3114 H3122 0.930 . S
C3115 C3114 1.394 . S
C3115 C3116 1.383 . S
C3115 H3123 0.929 . S
C3116 C3115 1.383 . S
C3116 C3117 1.377 . S
C3117 H3101 0.930 . S
C3117 C3116 1.377 . S
C3117 C3118 1.379 . S
C3118 H3102 0.931 . S
C3118 C3112 1.383 . S
C3118 C3117 1.379 . S
H3119 C3113 0.959 . S
H3120 C3113 0.961 . S
H3121 C3113 0.960 . S
H3122 C3114 0.930 . S
H3123 C3115 0.929 . S
H3124 C3132 0.929 . S
H3125 C3134 0.930 . S
H3126 C3136 0.930 . S
H3127 C3139 0.929 . S
H3128 C3142 0.930 . S
H3129 C3144 0.960 . S
H3130 C3144 0.960 . S
H3131 C3144 0.960 . S
C3132 H3124 0.929 . S
C3132 C3133 1.377 . S
C3132 C3134 1.384 . S
C3133 C3132 1.377 . S
C3133 C3139 1.390 . S
C3134 H3125 0.930 . S
C3134 C3132 1.384 . S
C3134 C3135 1.372 . S
C3135 C3134 1.372 . S
C3135 C3136 1.400 . S
C3135 C3140 1.490 . S
C3136 H3126 0.930 . S
C3136 C3135 1.400 . S
C3136 C3139 1.386 . S
H3137 C3153 0.930 . S
H3138 C3154 0.931 . S
C3139 H3127 0.929 . S
C3139 C3133 1.390 . S
C3139 C3136 1.386 . S
C3140 C3135 1.490 . S
C3140 C3142 1.395 . S
C3140 C3143 1.403 . S
H3141 C3147 0.930 . S
C3142 H3128 0.930 . S
C3142 C3140 1.395 . S
C3142 C3145 1.403 . S
C3143 C3140 1.403 . S
C3143 C3144 1.524 . S
C3143 C3147 1.400 . S
C3144 H3129 0.960 . S
C3144 H3130 0.960 . S
C3144 H3131 0.960 . S
C3144 C3143 1.524 . S
C3145 C3142 1.403 . S
C3145 C3146 1.392 . S
C3145 C3149 1.495 . S
C3146 C3145 1.392 . S
C3146 C3147 1.385 . S
C3146 C3148 1.478 . S
C3147 H3141 0.930 . S
C3147 C3143 1.400 . S
C3147 C3146 1.385 . S
C3148 C3146 1.478 . S
C3148 C3150 1.381 . S
C3148 C3154 1.383 . S
C3149 C3145 1.495 . S
C3149 H3155 0.959 . S
C3149 H3156 0.961 . S
C3149 H3157 0.960 . S
C3150 C3148 1.381 . S
C3150 C3151 1.394 . S
C3150 H3158 0.930 . S
C3151 C3150 1.394 . S
C3151 C3152 1.383 . S
C3151 H3159 0.929 . S
C3152 C3151 1.383 . S
C3152 C3153 1.377 . S
C3153 H3137 0.930 . S
C3153 C3152 1.377 . S
C3153 C3154 1.379 . S
C3154 H3138 0.931 . S
C3154 C3148 1.383 . S
C3154 C3153 1.379 . S
H3155 C3149 0.959 . S
H3156 C3149 0.961 . S
H3157 C3149 0.960 . S
H3158 C3150 0.930 . S
H3159 C3151 0.929 . S
H3160 C3168 0.929 . S
H3161 C3170 0.930 . S
H3162 C3172 0.930 . S
H3163 C3175 0.929 . S
H3164 C3178 0.930 . S
H3165 C3180 0.960 . S
H3166 C3180 0.960 . S
H3167 C3180 0.960 . S
C3168 H3160 0.929 . S
C3168 C3169 1.377 . S
C3168 C3170 1.384 . S
C3169 C3168 1.377 . S
C3169 C3175 1.390 . S
C3170 H3161 0.930 . S
C3170 C3168 1.384 . S
C3170 C3171 1.372 . S
C3171 C3170 1.372 . S
C3171 C3172 1.400 . S
C3171 C3176 1.490 . S
C3172 H3162 0.930 . S
C3172 C3171 1.400 . S
C3172 C3175 1.386 . S
H3173 C3189 0.930 . S
H3174 C3190 0.931 . S
C3175 H3163 0.929 . S
C3175 C3169 1.390 . S
C3175 C3172 1.386 . S
C3176 C3171 1.490 . S
C3176 C3178 1.395 . S
C3176 C3179 1.403 . S
H3177 C3183 0.930 . S
C3178 H3164 0.930 . S
C3178 C3176 1.395 . S
C3178 C3181 1.403 . S
C3179 C3176 1.403 . S
C3179 C3180 1.524 . S
C3179 C3183 1.400 . S
C3180 H3165 0.960 . S
C3180 H3166 0.960 . S
C3180 H3167 0.960 . S
C3180 C3179 1.524 . S
C3181 C3178 1.403 . S
C3181 C3182 1.392 . S
C3181 C3185 1.495 . S
C3182 C3181 1.392 . S
C3182 C3183 1.385 . S
C3182 C3184 1.478 . S
C3183 H3177 0.930 . S
C3183 C3179 1.400 . S
C3183 C3182 1.385 . S
C3184 C3182 1.478 . S
C3184 C3186 1.381 . S
C3184 C3190 1.383 . S
C3185 C3181 1.495 . S
C3185 H3191 0.959 . S
C3185 H3192 0.961 . S
C3185 H3193 0.960 . S
C3186 C3184 1.381 . S
C3186 C3187 1.394 . S
C3186 H3194 0.930 . S
C3187 C3186 1.394 . S
C3187 C3188 1.383 . S
C3187 H3195 0.929 . S
C3188 C3187 1.383 . S
C3188 C3189 1.377 . S
C3189 H3173 0.930 . S
C3189 C3188 1.377 . S
C3189 C3190 1.379 . S
C3190 H3174 0.931 . S
C3190 C3184 1.383 . S
C3190 C3189 1.379 . S
H3191 C3185 0.959 . S
H3192 C3185 0.961 . S
H3193 C3185 0.960 . S
H3194 C3186 0.930 . S
H3195 C3187 0.929 . S
H3196 C3204 0.929 . S
H3197 C3206 0.930 . S
H3198 C3208 0.930 . S
H3199 C3211 0.929 . S
H3200 C3214 0.930 . S
H3201 C3216 0.960 . S
H3202 C3216 0.960 . S
H3203 C3216 0.960 . S
C3204 H3196 0.929 . S
C3204 C3205 1.377 . S
C3204 C3206 1.384 . S
C3205 C3204 1.377 . S
C3205 C3211 1.390 . S
C3206 H3197 0.930 . S
C3206 C3204 1.384 . S
C3206 C3207 1.372 . S
C3207 C3206 1.372 . S
C3207 C3208 1.400 . S
C3207 C3212 1.490 . S
C3208 H3198 0.930 . S
C3208 C3207 1.400 . S
C3208 C3211 1.386 . S
H3209 C3225 0.930 . S
H3210 C3226 0.931 . S
C3211 H3199 0.929 . S
C3211 C3205 1.390 . S
C3211 C3208 1.386 . S
C3212 C3207 1.490 . S
C3212 C3214 1.395 . S
C3212 C3215 1.403 . S
H3213 C3219 0.930 . S
C3214 H3200 0.930 . S
C3214 C3212 1.395 . S
C3214 C3217 1.403 . S
C3215 C3212 1.403 . S
C3215 C3216 1.524 . S
C3215 C3219 1.400 . S
C3216 H3201 0.960 . S
C3216 H3202 0.960 . S
C3216 H3203 0.960 . S
C3216 C3215 1.524 . S
C3217 C3214 1.403 . S
C3217 C3218 1.392 . S
C3217 C3221 1.495 . S
C3218 C3217 1.392 . S
C3218 C3219 1.385 . S
C3218 C3220 1.478 . S
C3219 H3213 0.930 . S
C3219 C3215 1.400 . S
C3219 C3218 1.385 . S
C3220 C3218 1.478 . S
C3220 C3222 1.381 . S
C3220 C3226 1.383 . S
C3221 C3217 1.495 . S
C3221 H3227 0.959 . S
C3221 H3228 0.961 . S
C3221 H3229 0.960 . S
C3222 C3220 1.381 . S
C3222 C3223 1.394 . S
C3222 H3230 0.930 . S
C3223 C3222 1.394 . S
C3223 C3224 1.383 . S
C3223 H3231 0.929 . S
C3224 C3223 1.383 . S
C3224 C3225 1.377 . S
C3225 H3209 0.930 . S
C3225 C3224 1.377 . S
C3225 C3226 1.379 . S
C3226 H3210 0.931 . S
C3226 C3220 1.383 . S
C3226 C3225 1.379 . S
H3227 C3221 0.959 . S
H3228 C3221 0.961 . S
H3229 C3221 0.960 . S
H3230 C3222 0.930 . S
H3231 C3223 0.929 . S
H3232 C3240 0.929 1_554 S
H3233 C3242 0.930 1_554 S
H3234 C3244 0.930 . S
H3235 C3247 0.929 . S
H3236 C3250 0.930 . S
H3237 C3252 0.960 . S
H3238 C3252 0.960 . S
H3239 C3252 0.960 . S
C3240 H3232 0.929 1_556 S
C3240 C3241 1.377 . S
C3240 C3242 1.384 . S
C3241 C3240 1.377 . S
C3241 C3247 1.390 . S
C3242 H3233 0.930 1_556 S
C3242 C3240 1.384 . S
C3242 C3243 1.372 . S
C3243 C3242 1.372 . S
C3243 C3244 1.400 . S
C3243 C3248 1.490 . S
C3244 H3234 0.930 . S
C3244 C3243 1.400 . S
C3244 C3247 1.386 . S
H3245 C3261 0.930 . S
H3246 C3262 0.931 . S
C3247 H3235 0.929 . S
C3247 C3241 1.390 . S
C3247 C3244 1.386 . S
C3248 C3243 1.490 . S
C3248 C3250 1.395 . S
C3248 C3251 1.403 . S
H3249 C3255 0.930 . S
C3250 H3236 0.930 . S
C3250 C3248 1.395 . S
C3250 C3253 1.403 . S
C3251 C3248 1.403 . S
C3251 C3252 1.524 . S
C3251 C3255 1.400 . S
C3252 H3237 0.960 . S
C3252 H3238 0.960 . S
C3252 H3239 0.960 . S
C3252 C3251 1.524 . S
C3253 C3250 1.403 . S
C3253 C3254 1.392 . S
C3253 C3257 1.495 1_556 S
C3254 C3253 1.392 . S
C3254 C3255 1.385 . S
C3254 C3256 1.478 . S
C3255 H3249 0.930 . S
C3255 C3251 1.400 . S
C3255 C3254 1.385 . S
C3256 C3254 1.478 . S
C3256 C3258 1.381 . S
C3256 C3262 1.383 . S
C3257 C3253 1.495 1_554 S
C3257 H3263 0.959 . S
C3257 H3264 0.961 1_554 S
C3257 H3265 0.960 . S
C3258 C3256 1.381 . S
C3258 C3259 1.394 . S
C3258 H3266 0.930 1_556 S
C3259 C3258 1.394 . S
C3259 C3260 1.383 . S
C3259 H3267 0.929 1_556 S
C3260 C3259 1.383 . S
C3260 C3261 1.377 . S
C3261 H3245 0.930 . S
C3261 C3260 1.377 . S
C3261 C3262 1.379 . S
C3262 H3246 0.931 . S
C3262 C3256 1.383 . S
C3262 C3261 1.379 . S
H3263 C3257 0.959 . S
H3264 C3257 0.961 1_556 S
H3265 C3257 0.960 . S
H3266 C3258 0.930 1_554 S
H3267 C3259 0.929 1_554 S
H3268 C3276 0.929 . S
H3269 C3278 0.930 . S
H3270 C3280 0.930 . S
H3271 C3283 0.929 . S
H3272 C3286 0.930 . S
H3273 C3288 0.960 . S
H3274 C3288 0.960 . S
H3275 C3288 0.960 . S
C3276 H3268 0.929 . S
C3276 C3277 1.377 . S
C3276 C3278 1.384 . S
C3277 C3276 1.377 . S
C3277 C3283 1.390 . S
C3278 H3269 0.930 . S
C3278 C3276 1.384 . S
C3278 C3279 1.372 . S
C3279 C3278 1.372 . S
C3279 C3280 1.400 . S
C3279 C3284 1.490 . S
C3280 H3270 0.930 . S
C3280 C3279 1.400 . S
C3280 C3283 1.386 . S
H3281 C3297 0.930 . S
H3282 C3298 0.931 . S
C3283 H3271 0.929 . S
C3283 C3277 1.390 . S
C3283 C3280 1.386 . S
C3284 C3279 1.490 . S
C3284 C3286 1.395 . S
C3284 C3287 1.403 . S
H3285 C3291 0.930 . S
C3286 H3272 0.930 . S
C3286 C3284 1.395 . S
C3286 C3289 1.403 . S
C3287 C3284 1.403 . S
C3287 C3288 1.524 . S
C3287 C3291 1.400 . S
C3288 H3273 0.960 . S
C3288 H3274 0.960 . S
C3288 H3275 0.960 . S
C3288 C3287 1.524 . S
C3289 C3286 1.403 . S
C3289 C3290 1.392 . S
C3289 C3293 1.495 . S
C3290 C3289 1.392 . S
C3290 C3291 1.385 . S
C3290 C3292 1.478 . S
C3291 H3285 0.930 . S
C3291 C3287 1.400 . S
C3291 C3290 1.385 . S
C3292 C3290 1.478 . S
C3292 C3294 1.381 . S
C3292 C3298 1.383 . S
C3293 C3289 1.495 . S
C3293 H3299 0.959 . S
C3293 H3300 0.961 . S
C3293 H3301 0.960 . S
C3294 C3292 1.381 . S
C3294 C3295 1.394 . S
C3294 H3302 0.930 . S
C3295 C3294 1.394 . S
C3295 C3296 1.383 . S
C3295 H3303 0.929 . S
C3296 C3295 1.383 . S
C3296 C3297 1.377 . S
C3297 H3281 0.930 . S
C3297 C3296 1.377 . S
C3297 C3298 1.379 . S
C3298 H3282 0.931 . S
C3298 C3292 1.383 . S
C3298 C3297 1.379 . S
H3299 C3293 0.959 . S
H3300 C3293 0.961 . S
H3301 C3293 0.960 . S
H3302 C3294 0.930 . S
H3303 C3295 0.929 . S
H3304 C3312 0.929 . S
H3305 C3314 0.930 . S
H3306 C3316 0.930 . S
H3307 C3319 0.929 . S
H3308 C3322 0.930 . S
H3309 C3324 0.960 . S
H3310 C3324 0.960 . S
H3311 C3324 0.960 . S
C3312 H3304 0.929 . S
C3312 C3313 1.377 . S
C3312 C3314 1.384 . S
C3313 C3312 1.377 . S
C3313 C3319 1.390 . S
C3314 H3305 0.930 . S
C3314 C3312 1.384 . S
C3314 C3315 1.372 . S
C3315 C3314 1.372 . S
C3315 C3316 1.400 . S
C3315 C3320 1.490 . S
C3316 H3306 0.930 . S
C3316 C3315 1.400 . S
C3316 C3319 1.386 . S
H3317 C3333 0.930 . S
H3318 C3334 0.931 . S
C3319 H3307 0.929 . S
C3319 C3313 1.390 . S
C3319 C3316 1.386 . S
C3320 C3315 1.490 . S
C3320 C3322 1.395 . S
C3320 C3323 1.403 . S
H3321 C3327 0.930 1_556 S
C3322 H3308 0.930 . S
C3322 C3320 1.395 . S
C3322 C3325 1.403 . S
C3323 C3320 1.403 . S
C3323 C3324 1.524 1_554 S
C3323 C3327 1.400 . S
C3324 H3309 0.960 . S
C3324 H3310 0.960 . S
C3324 H3311 0.960 . S
C3324 C3323 1.524 1_556 S
C3325 C3322 1.403 . S
C3325 C3326 1.392 . S
C3325 C3329 1.495 . S
C3326 C3325 1.392 . S
C3326 C3327 1.385 . S
C3326 C3328 1.478 . S
C3327 H3321 0.930 1_554 S
C3327 C3323 1.400 . S
C3327 C3326 1.385 . S
C3328 C3326 1.478 . S
C3328 C3330 1.381 . S
C3328 C3334 1.383 . S
C3329 C3325 1.495 . S
C3329 H3335 0.959 . S
C3329 H3336 0.961 . S
C3329 H3337 0.960 . S
C3330 C3328 1.381 . S
C3330 C3331 1.394 . S
C3330 H3338 0.930 . S
C3331 C3330 1.394 . S
C3331 C3332 1.383 . S
C3331 H3339 0.929 . S
C3332 C3331 1.383 . S
C3332 C3333 1.377 . S
C3333 H3317 0.930 . S
C3333 C3332 1.377 . S
C3333 C3334 1.379 . S
C3334 H3318 0.931 . S
C3334 C3328 1.383 . S
C3334 C3333 1.379 . S
H3335 C3329 0.959 . S
H3336 C3329 0.961 . S
H3337 C3329 0.960 . S
H3338 C3330 0.930 . S
H3339 C3331 0.929 . S
H3340 C3348 0.929 . S
H3341 C3350 0.930 . S
H3342 C3352 0.930 . S
H3343 C3355 0.929 . S
H3344 C3358 0.930 . S
H3345 C3360 0.960 . S
H3346 C3360 0.960 . S
H3347 C3360 0.960 . S
C3348 H3340 0.929 . S
C3348 C3349 1.377 . S
C3348 C3350 1.384 . S
C3349 C3348 1.377 . S
C3349 C3355 1.390 . S
C3350 H3341 0.930 . S
C3350 C3348 1.384 . S
C3350 C3351 1.372 . S
C3351 C3350 1.372 . S
C3351 C3352 1.400 . S
C3351 C3356 1.490 . S
C3352 H3342 0.930 . S
C3352 C3351 1.400 . S
C3352 C3355 1.386 . S
H3353 C3369 0.930 . S
H3354 C3370 0.931 . S
C3355 H3343 0.929 . S
C3355 C3349 1.390 . S
C3355 C3352 1.386 . S
C3356 C3351 1.490 . S
C3356 C3358 1.395 . S
C3356 C3359 1.403 . S
H3357 C3363 0.930 . S
C3358 H3344 0.930 . S
C3358 C3356 1.395 . S
C3358 C3361 1.403 . S
C3359 C3356 1.403 . S
C3359 C3360 1.524 . S
C3359 C3363 1.400 . S
C3360 H3345 0.960 . S
C3360 H3346 0.960 . S
C3360 H3347 0.960 . S
C3360 C3359 1.524 . S
C3361 C3358 1.403 . S
C3361 C3362 1.392 . S
C3361 C3365 1.495 . S
C3362 C3361 1.392 . S
C3362 C3363 1.385 . S
C3362 C3364 1.478 . S
C3363 H3357 0.930 . S
C3363 C3359 1.400 . S
C3363 C3362 1.385 . S
C3364 C3362 1.478 . S
C3364 C3366 1.381 . S
C3364 C3370 1.383 . S
C3365 C3361 1.495 . S
C3365 H3371 0.959 . S
C3365 H3372 0.961 . S
C3365 H3373 0.960 . S
C3366 C3364 1.381 . S
C3366 C3367 1.394 . S
C3366 H3374 0.930 . S
C3367 C3366 1.394 . S
C3367 C3368 1.383 . S
C3367 H3375 0.929 . S
C3368 C3367 1.383 . S
C3368 C3369 1.377 . S
C3369 H3353 0.930 . S
C3369 C3368 1.377 . S
C3369 C3370 1.379 . S
C3370 H3354 0.931 . S
C3370 C3364 1.383 . S
C3370 C3369 1.379 . S
H3371 C3365 0.959 . S
H3372 C3365 0.961 . S
H3373 C3365 0.960 . S
H3374 C3366 0.930 . S
H3375 C3367 0.929 . S
H3376 C3384 0.929 . S
H3377 C3386 0.930 . S
H3378 C3388 0.930 . S
H3379 C3391 0.929 . S
H3380 C3394 0.930 . S
H3381 C3396 0.960 . S
H3382 C3396 0.960 . S
H3383 C3396 0.960 . S
C3384 H3376 0.929 . S
C3384 C3385 1.377 . S
C3384 C3386 1.384 . S
C3385 C3384 1.377 . S
C3385 C3391 1.390 . S
C3386 H3377 0.930 . S
C3386 C3384 1.384 . S
C3386 C3387 1.372 . S
C3387 C3386 1.372 . S
C3387 C3388 1.400 . S
C3387 C3392 1.490 . S
C3388 H3378 0.930 . S
C3388 C3387 1.400 . S
C3388 C3391 1.386 . S
H3389 C3405 0.930 . S
H3390 C3406 0.931 . S
C3391 H3379 0.929 . S
C3391 C3385 1.390 . S
C3391 C3388 1.386 . S
C3392 C3387 1.490 . S
C3392 C3394 1.395 . S
C3392 C3395 1.403 . S
H3393 C3399 0.930 . S
C3394 H3380 0.930 . S
C3394 C3392 1.395 . S
C3394 C3397 1.403 . S
C3395 C3392 1.403 . S
C3395 C3396 1.524 . S
C3395 C3399 1.400 . S
C3396 H3381 0.960 . S
C3396 H3382 0.960 . S
C3396 H3383 0.960 . S
C3396 C3395 1.524 . S
C3397 C3394 1.403 . S
C3397 C3398 1.392 . S
C3397 C3401 1.495 . S
C3398 C3397 1.392 . S
C3398 C3399 1.385 . S
C3398 C3400 1.478 . S
C3399 H3393 0.930 . S
C3399 C3395 1.400 . S
C3399 C3398 1.385 . S
C3400 C3398 1.478 . S
C3400 C3402 1.381 . S
C3400 C3406 1.383 . S
C3401 C3397 1.495 . S
C3401 H3407 0.959 . S
C3401 H3408 0.961 . S
C3401 H3409 0.960 . S
C3402 C3400 1.381 . S
C3402 C3403 1.394 . S
C3402 H3410 0.930 . S
C3403 C3402 1.394 . S
C3403 C3404 1.383 . S
C3403 H3411 0.929 . S
C3404 C3403 1.383 . S
C3404 C3405 1.377 . S
C3405 H3389 0.930 . S
C3405 C3404 1.377 . S
C3405 C3406 1.379 . S
C3406 H3390 0.931 . S
C3406 C3400 1.383 . S
C3406 C3405 1.379 . S
H3407 C3401 0.959 . S
H3408 C3401 0.961 . S
H3409 C3401 0.960 . S
H3410 C3402 0.930 . S
H3411 C3403 0.929 . S
H3412 C3420 0.929 . S
H3413 C3422 0.930 . S
H3414 C3424 0.930 . S
H3415 C3427 0.929 . S
H3416 C3430 0.930 . S
H3417 C3432 0.960 . S
H3418 C3432 0.960 . S
H3419 C3432 0.960 . S
C3420 H3412 0.929 . S
C3420 C3421 1.377 . S
C3420 C3422 1.384 . S
C3421 C3420 1.377 . S
C3421 C3427 1.390 . S
C3422 H3413 0.930 . S
C3422 C3420 1.384 . S
C3422 C3423 1.372 . S
C3423 C3422 1.372 . S
C3423 C3424 1.400 . S
C3423 C3428 1.490 . S
C3424 H3414 0.930 . S
C3424 C3423 1.400 . S
C3424 C3427 1.386 . S
H3425 C3441 0.930 . S
H3426 C3442 0.931 . S
C3427 H3415 0.929 . S
C3427 C3421 1.390 . S
C3427 C3424 1.386 . S
C3428 C3423 1.490 . S
C3428 C3430 1.395 . S
C3428 C3431 1.403 . S
H3429 C3435 0.930 . S
C3430 H3416 0.930 . S
C3430 C3428 1.395 . S
C3430 C3433 1.403 . S
C3431 C3428 1.403 . S
C3431 C3432 1.524 . S
C3431 C3435 1.400 . S
C3432 H3417 0.960 . S
C3432 H3418 0.960 . S
C3432 H3419 0.960 . S
C3432 C3431 1.524 . S
C3433 C3430 1.403 . S
C3433 C3434 1.392 . S
C3433 C3437 1.495 . S
C3434 C3433 1.392 . S
C3434 C3435 1.385 . S
C3434 C3436 1.478 . S
C3435 H3429 0.930 . S
C3435 C3431 1.400 . S
C3435 C3434 1.385 . S
C3436 C3434 1.478 . S
C3436 C3438 1.381 . S
C3436 C3442 1.383 . S
C3437 C3433 1.495 . S
C3437 H3443 0.959 . S
C3437 H3444 0.961 . S
C3437 H3445 0.960 . S
C3438 C3436 1.381 . S
C3438 C3439 1.394 . S
C3438 H3446 0.930 . S
C3439 C3438 1.394 . S
C3439 C3440 1.383 . S
C3439 H3447 0.929 . S
C3440 C3439 1.383 . S
C3440 C3441 1.377 . S
C3441 H3425 0.930 . S
C3441 C3440 1.377 . S
C3441 C3442 1.379 . S
C3442 H3426 0.931 . S
C3442 C3436 1.383 . S
C3442 C3441 1.379 . S
H3443 C3437 0.959 . S
H3444 C3437 0.961 . S
H3445 C3437 0.960 . S
H3446 C3438 0.930 . S
H3447 C3439 0.929 . S
H3448 C3456 0.929 . S
H3449 C3458 0.930 . S
H3450 C3460 0.930 . S
H3451 C3463 0.929 . S
H3452 C3466 0.930 . S
H3453 C3468 0.960 . S
H3454 C3468 0.960 . S
H3455 C3468 0.960 . S
C3456 H3448 0.929 . S
C3456 C3457 1.377 . S
C3456 C3458 1.384 . S
C3457 C3456 1.377 . S
C3457 C3463 1.390 . S
C3458 H3449 0.930 . S
C3458 C3456 1.384 . S
C3458 C3459 1.372 . S
C3459 C3458 1.372 . S
C3459 C3460 1.400 . S
C3459 C3464 1.490 . S
C3460 H3450 0.930 . S
C3460 C3459 1.400 . S
C3460 C3463 1.386 . S
H3461 C3477 0.930 . S
H3462 C3478 0.931 . S
C3463 H3451 0.929 . S
C3463 C3457 1.390 . S
C3463 C3460 1.386 . S
C3464 C3459 1.490 . S
C3464 C3466 1.395 . S
C3464 C3467 1.403 . S
H3465 C3471 0.930 . S
C3466 H3452 0.930 . S
C3466 C3464 1.395 . S
C3466 C3469 1.403 . S
C3467 C3464 1.403 . S
C3467 C3468 1.524 . S
C3467 C3471 1.400 . S
C3468 H3453 0.960 . S
C3468 H3454 0.960 . S
C3468 H3455 0.960 . S
C3468 C3467 1.524 . S
C3469 C3466 1.403 . S
C3469 C3470 1.392 . S
C3469 C3473 1.495 . S
C3470 C3469 1.392 . S
C3470 C3471 1.385 . S
C3470 C3472 1.478 . S
C3471 H3465 0.930 . S
C3471 C3467 1.400 . S
C3471 C3470 1.385 . S
C3472 C3470 1.478 . S
C3472 C3474 1.381 . S
C3472 C3478 1.383 . S
C3473 C3469 1.495 . S
C3473 H3479 0.959 . S
C3473 H3480 0.961 . S
C3473 H3481 0.960 . S
C3474 C3472 1.381 . S
C3474 C3475 1.394 . S
C3474 H3482 0.930 . S
C3475 C3474 1.394 . S
C3475 C3476 1.383 . S
C3475 H3483 0.929 . S
C3476 C3475 1.383 . S
C3476 C3477 1.377 . S
C3477 H3461 0.930 . S
C3477 C3476 1.377 . S
C3477 C3478 1.379 . S
C3478 H3462 0.931 . S
C3478 C3472 1.383 . S
C3478 C3477 1.379 . S
H3479 C3473 0.959 . S
H3480 C3473 0.961 . S
H3481 C3473 0.960 . S
H3482 C3474 0.930 . S
H3483 C3475 0.929 . S
H3484 C3492 0.929 . S
H3485 C3494 0.930 . S
H3486 C3496 0.930 . S
H3487 C3499 0.929 . S
H3488 C3502 0.930 . S
H3489 C3504 0.960 . S
H3490 C3504 0.960 . S
H3491 C3504 0.960 . S
C3492 H3484 0.929 . S
C3492 C3493 1.377 . S
C3492 C3494 1.384 . S
C3493 C3492 1.377 . S
C3493 C3499 1.390 . S
C3494 H3485 0.930 . S
C3494 C3492 1.384 . S
C3494 C3495 1.372 . S
C3495 C3494 1.372 . S
C3495 C3496 1.400 . S
C3495 C3500 1.490 . S
C3496 H3486 0.930 . S
C3496 C3495 1.400 . S
C3496 C3499 1.386 . S
H3497 C3513 0.930 . S
H3498 C3514 0.931 . S
C3499 H3487 0.929 . S
C3499 C3493 1.390 . S
C3499 C3496 1.386 . S
C3500 C3495 1.490 . S
C3500 C3502 1.395 . S
C3500 C3503 1.403 . S
H3501 C3507 0.930 . S
C3502 H3488 0.930 . S
C3502 C3500 1.395 . S
C3502 C3505 1.403 . S
C3503 C3500 1.403 . S
C3503 C3504 1.524 . S
C3503 C3507 1.400 . S
C3504 H3489 0.960 . S
C3504 H3490 0.960 . S
C3504 H3491 0.960 . S
C3504 C3503 1.524 . S
C3505 C3502 1.403 . S
C3505 C3506 1.392 . S
C3505 C3509 1.495 . S
C3506 C3505 1.392 . S
C3506 C3507 1.385 . S
C3506 C3508 1.478 . S
C3507 H3501 0.930 . S
C3507 C3503 1.400 . S
C3507 C3506 1.385 . S
C3508 C3506 1.478 . S
C3508 C3510 1.381 . S
C3508 C3514 1.383 . S
C3509 C3505 1.495 . S
C3509 H3515 0.959 . S
C3509 H3516 0.961 . S
C3509 H3517 0.960 . S
C3510 C3508 1.381 . S
C3510 C3511 1.394 . S
C3510 H3518 0.930 . S
C3511 C3510 1.394 . S
C3511 C3512 1.383 . S
C3511 H3519 0.929 . S
C3512 C3511 1.383 . S
C3512 C3513 1.377 . S
C3513 H3497 0.930 . S
C3513 C3512 1.377 . S
C3513 C3514 1.379 . S
C3514 H3498 0.931 . S
C3514 C3508 1.383 . S
C3514 C3513 1.379 . S
H3515 C3509 0.959 . S
H3516 C3509 0.961 . S
H3517 C3509 0.960 . S
H3518 C3510 0.930 . S
H3519 C3511 0.929 . S
H3520 C3528 0.929 . S
H3521 C3530 0.930 . S
H3522 C3532 0.930 . S
H3523 C3535 0.929 . S
H3524 C3538 0.930 . S
H3525 C3540 0.960 . S
H3526 C3540 0.960 . S
H3527 C3540 0.960 . S
C3528 H3520 0.929 . S
C3528 C3529 1.377 . S
C3528 C3530 1.384 . S
C3529 C3528 1.377 . S
C3529 C3535 1.390 . S
C3530 H3521 0.930 . S
C3530 C3528 1.384 . S
C3530 C3531 1.372 . S
C3531 C3530 1.372 . S
C3531 C3532 1.400 . S
C3531 C3536 1.490 . S
C3532 H3522 0.930 . S
C3532 C3531 1.400 . S
C3532 C3535 1.386 . S
H3533 C3549 0.930 . S
H3534 C3550 0.931 . S
C3535 H3523 0.929 . S
C3535 C3529 1.390 . S
C3535 C3532 1.386 . S
C3536 C3531 1.490 . S
C3536 C3538 1.395 . S
C3536 C3539 1.403 . S
H3537 C3543 0.930 . S
C3538 H3524 0.930 . S
C3538 C3536 1.395 . S
C3538 C3541 1.403 . S
C3539 C3536 1.403 . S
C3539 C3540 1.524 . S
C3539 C3543 1.400 . S
C3540 H3525 0.960 . S
C3540 H3526 0.960 . S
C3540 H3527 0.960 . S
C3540 C3539 1.524 . S
C3541 C3538 1.403 . S
C3541 C3542 1.392 . S
C3541 C3545 1.495 . S
C3542 C3541 1.392 . S
C3542 C3543 1.385 . S
C3542 C3544 1.478 . S
C3543 H3537 0.930 . S
C3543 C3539 1.400 . S
C3543 C3542 1.385 . S
C3544 C3542 1.478 . S
C3544 C3546 1.381 . S
C3544 C3550 1.383 . S
C3545 C3541 1.495 . S
C3545 H3551 0.959 . S
C3545 H3552 0.961 . S
C3545 H3553 0.960 . S
C3546 C3544 1.381 . S
C3546 C3547 1.394 . S
C3546 H3554 0.930 . S
C3547 C3546 1.394 . S
C3547 C3548 1.383 . S
C3547 H3555 0.929 . S
C3548 C3547 1.383 . S
C3548 C3549 1.377 . S
C3549 H3533 0.930 . S
C3549 C3548 1.377 . S
C3549 C3550 1.379 . S
C3550 H3534 0.931 . S
C3550 C3544 1.383 . S
C3550 C3549 1.379 . S
H3551 C3545 0.959 . S
H3552 C3545 0.961 . S
H3553 C3545 0.960 . S
H3554 C3546 0.930 . S
H3555 C3547 0.929 . S
H3556 C3564 0.929 . S
H3557 C3566 0.930 . S
H3558 C3568 0.930 . S
H3559 C3571 0.929 . S
H3560 C3574 0.930 . S
H3561 C3576 0.960 . S
H3562 C3576 0.960 . S
H3563 C3576 0.960 . S
C3564 H3556 0.929 . S
C3564 C3565 1.377 . S
C3564 C3566 1.384 . S
C3565 C3564 1.377 . S
C3565 C3571 1.390 . S
C3566 H3557 0.930 . S
C3566 C3564 1.384 . S
C3566 C3567 1.372 . S
C3567 C3566 1.372 . S
C3567 C3568 1.400 . S
C3567 C3572 1.490 . S
C3568 H3558 0.930 . S
C3568 C3567 1.400 . S
C3568 C3571 1.386 . S
H3569 C3585 0.930 . S
H3570 C3586 0.931 . S
C3571 H3559 0.929 . S
C3571 C3565 1.390 . S
C3571 C3568 1.386 . S
C3572 C3567 1.490 . S
C3572 C3574 1.395 . S
C3572 C3575 1.403 . S
H3573 C3579 0.930 . S
C3574 H3560 0.930 . S
C3574 C3572 1.395 . S
C3574 C3577 1.403 . S
C3575 C3572 1.403 . S
C3575 C3576 1.524 . S
C3575 C3579 1.400 . S
C3576 H3561 0.960 . S
C3576 H3562 0.960 . S
C3576 H3563 0.960 . S
C3576 C3575 1.524 . S
C3577 C3574 1.403 . S
C3577 C3578 1.392 . S
C3577 C3581 1.495 . S
C3578 C3577 1.392 . S
C3578 C3579 1.385 . S
C3578 C3580 1.478 . S
C3579 H3573 0.930 . S
C3579 C3575 1.400 . S
C3579 C3578 1.385 . S
C3580 C3578 1.478 . S
C3580 C3582 1.381 . S
C3580 C3586 1.383 . S
C3581 C3577 1.495 . S
C3581 H3587 0.959 . S
C3581 H3588 0.961 . S
C3581 H3589 0.960 . S
C3582 C3580 1.381 . S
C3582 C3583 1.394 . S
C3582 H3590 0.930 . S
C3583 C3582 1.394 . S
C3583 C3584 1.383 . S
C3583 H3591 0.929 . S
C3584 C3583 1.383 . S
C3584 C3585 1.377 . S
C3585 H3569 0.930 . S
C3585 C3584 1.377 . S
C3585 C3586 1.379 . S
C3586 H3570 0.931 . S
C3586 C3580 1.383 . S
C3586 C3585 1.379 . S
H3587 C3581 0.959 . S
H3588 C3581 0.961 . S
H3589 C3581 0.960 . S
H3590 C3582 0.930 . S
H3591 C3583 0.929 . S
H3592 C3600 0.929 . S
H3593 C3602 0.930 . S
H3594 C3604 0.930 . S
H3595 C3607 0.929 . S
H3596 C3610 0.930 . S
H3597 C3612 0.960 . S
H3598 C3612 0.960 . S
H3599 C3612 0.960 . S
C3600 H3592 0.929 . S
C3600 C3601 1.377 . S
C3600 C3602 1.384 . S
C3601 C3600 1.377 . S
C3601 C3607 1.390 . S
C3602 H3593 0.930 . S
C3602 C3600 1.384 . S
C3602 C3603 1.372 . S
C3603 C3602 1.372 . S
C3603 C3604 1.400 . S
C3603 C3608 1.490 . S
C3604 H3594 0.930 . S
C3604 C3603 1.400 . S
C3604 C3607 1.386 . S
H3605 C3621 0.930 . S
H3606 C3622 0.931 . S
C3607 H3595 0.929 . S
C3607 C3601 1.390 . S
C3607 C3604 1.386 . S
C3608 C3603 1.490 . S
C3608 C3610 1.395 . S
C3608 C3611 1.403 . S
H3609 C3615 0.930 . S
C3610 H3596 0.930 . S
C3610 C3608 1.395 . S
C3610 C3613 1.403 . S
C3611 C3608 1.403 . S
C3611 C3612 1.524 . S
C3611 C3615 1.400 . S
C3612 H3597 0.960 . S
C3612 H3598 0.960 . S
C3612 H3599 0.960 . S
C3612 C3611 1.524 . S
C3613 C3610 1.403 . S
C3613 C3614 1.392 . S
C3613 C3617 1.495 . S
C3614 C3613 1.392 . S
C3614 C3615 1.385 . S
C3614 C3616 1.478 . S
C3615 H3609 0.930 . S
C3615 C3611 1.400 . S
C3615 C3614 1.385 . S
C3616 C3614 1.478 . S
C3616 C3618 1.381 . S
C3616 C3622 1.383 . S
C3617 C3613 1.495 . S
C3617 H3623 0.959 . S
C3617 H3624 0.961 . S
C3617 H3625 0.960 . S
C3618 C3616 1.381 . S
C3618 C3619 1.394 . S
C3618 H3626 0.930 . S
C3619 C3618 1.394 . S
C3619 C3620 1.383 . S
C3619 H3627 0.929 . S
C3620 C3619 1.383 . S
C3620 C3621 1.377 . S
C3621 H3605 0.930 . S
C3621 C3620 1.377 . S
C3621 C3622 1.379 . S
C3622 H3606 0.931 . S
C3622 C3616 1.383 . S
C3622 C3621 1.379 . S
H3623 C3617 0.959 . S
H3624 C3617 0.961 . S
H3625 C3617 0.960 . S
H3626 C3618 0.930 . S
H3627 C3619 0.929 . S
H3628 C3636 0.929 . S
H3629 C3638 0.930 . S
H3630 C3640 0.930 . S
H3631 C3643 0.929 . S
H3632 C3646 0.930 . S
H3633 C3648 0.960 . S
H3634 C3648 0.960 . S
H3635 C3648 0.960 . S
C3636 H3628 0.929 . S
C3636 C3637 1.377 . S
C3636 C3638 1.384 . S
C3637 C3636 1.377 . S
C3637 C3643 1.390 . S
C3638 H3629 0.930 . S
C3638 C3636 1.384 . S
C3638 C3639 1.372 . S
C3639 C3638 1.372 . S
C3639 C3640 1.400 . S
C3639 C3644 1.490 . S
C3640 H3630 0.930 . S
C3640 C3639 1.400 . S
C3640 C3643 1.386 . S
H3641 C3657 0.930 . S
H3642 C3658 0.931 . S
C3643 H3631 0.929 . S
C3643 C3637 1.390 . S
C3643 C3640 1.386 . S
C3644 C3639 1.490 . S
C3644 C3646 1.395 . S
C3644 C3647 1.403 . S
H3645 C3651 0.930 . S
C3646 H3632 0.930 . S
C3646 C3644 1.395 . S
C3646 C3649 1.403 . S
C3647 C3644 1.403 . S
C3647 C3648 1.524 . S
C3647 C3651 1.400 . S
C3648 H3633 0.960 . S
C3648 H3634 0.960 . S
C3648 H3635 0.960 . S
C3648 C3647 1.524 . S
C3649 C3646 1.403 . S
C3649 C3650 1.392 . S
C3649 C3653 1.495 . S
C3650 C3649 1.392 . S
C3650 C3651 1.385 . S
C3650 C3652 1.478 . S
C3651 H3645 0.930 . S
C3651 C3647 1.400 . S
C3651 C3650 1.385 . S
C3652 C3650 1.478 . S
C3652 C3654 1.381 . S
C3652 C3658 1.383 . S
C3653 C3649 1.495 . S
C3653 H3659 0.959 . S
C3653 H3660 0.961 . S
C3653 H3661 0.960 . S
C3654 C3652 1.381 . S
C3654 C3655 1.394 . S
C3654 H3662 0.930 . S
C3655 C3654 1.394 . S
C3655 C3656 1.383 . S
C3655 H3663 0.929 . S
C3656 C3655 1.383 . S
C3656 C3657 1.377 . S
C3657 H3641 0.930 . S
C3657 C3656 1.377 . S
C3657 C3658 1.379 . S
C3658 H3642 0.931 . S
C3658 C3652 1.383 . S
C3658 C3657 1.379 . S
H3659 C3653 0.959 . S
H3660 C3653 0.961 . S
H3661 C3653 0.960 . S
H3662 C3654 0.930 . S
H3663 C3655 0.929 . S
H3664 C3672 0.929 . S
H3665 C3674 0.930 . S
H3666 C3676 0.930 1_554 S
H3667 C3679 0.929 1_554 S
H3668 C3682 0.930 . S
H3669 C3684 0.960 . S
H3670 C3684 0.960 . S
H3671 C3684 0.960 . S
C3672 H3664 0.929 . S
C3672 C3673 1.377 . S
C3672 C3674 1.384 . S
C3673 C3672 1.377 . S
C3673 C3679 1.390 . S
C3674 H3665 0.930 . S
C3674 C3672 1.384 . S
C3674 C3675 1.372 . S
C3675 C3674 1.372 . S
C3675 C3676 1.400 . S
C3675 C3680 1.490 . S
C3676 H3666 0.930 1_556 S
C3676 C3675 1.400 . S
C3676 C3679 1.386 . S
H3677 C3693 0.930 1_554 S
H3678 C3694 0.931 1_554 S
C3679 H3667 0.929 1_556 S
C3679 C3673 1.390 . S
C3679 C3676 1.386 . S
C3680 C3675 1.490 . S
C3680 C3682 1.395 . S
C3680 C3683 1.403 . S
H3681 C3687 0.930 . S
C3682 H3668 0.930 . S
C3682 C3680 1.395 . S
C3682 C3685 1.403 . S
C3683 C3680 1.403 . S
C3683 C3684 1.524 . S
C3683 C3687 1.400 . S
C3684 H3669 0.960 . S
C3684 H3670 0.960 . S
C3684 H3671 0.960 . S
C3684 C3683 1.524 . S
C3685 C3682 1.403 . S
C3685 C3686 1.392 . S
C3685 C3689 1.495 . S
C3686 C3685 1.392 . S
C3686 C3687 1.385 . S
C3686 C3688 1.478 . S
C3687 H3681 0.930 . S
C3687 C3683 1.400 . S
C3687 C3686 1.385 . S
C3688 C3686 1.478 . S
C3688 C3690 1.381 . S
C3688 C3694 1.383 . S
C3689 C3685 1.495 . S
C3689 H3695 0.959 . S
C3689 H3696 0.961 . S
C3689 H3697 0.960 . S
C3690 C3688 1.381 . S
C3690 C3691 1.394 . S
C3690 H3698 0.930 . S
C3691 C3690 1.394 . S
C3691 C3692 1.383 . S
C3691 H3699 0.929 . S
C3692 C3691 1.383 . S
C3692 C3693 1.377 . S
C3693 H3677 0.930 1_556 S
C3693 C3692 1.377 . S
C3693 C3694 1.379 . S
C3694 H3678 0.931 1_556 S
C3694 C3688 1.383 . S
C3694 C3693 1.379 . S
H3695 C3689 0.959 . S
H3696 C3689 0.961 . S
H3697 C3689 0.960 . S
H3698 C3690 0.930 . S
H3699 C3691 0.929 . S
H3700 C3708 0.929 . S
H3701 C3710 0.930 . S
H3702 C3712 0.930 . S
H3703 C3715 0.929 . S
H3704 C3718 0.930 . S
H3705 C3720 0.960 . S
H3706 C3720 0.960 . S
H3707 C3720 0.960 . S
C3708 H3700 0.929 . S
C3708 C3709 1.377 . S
C3708 C3710 1.384 . S
C3709 C3708 1.377 . S
C3709 C3715 1.390 . S
C3710 H3701 0.930 . S
C3710 C3708 1.384 . S
C3710 C3711 1.372 . S
C3711 C3710 1.372 . S
C3711 C3712 1.400 . S
C3711 C3716 1.490 . S
C3712 H3702 0.930 . S
C3712 C3711 1.400 . S
C3712 C3715 1.386 . S
H3713 C3729 0.930 . S
H3714 C3730 0.931 . S
C3715 H3703 0.929 . S
C3715 C3709 1.390 . S
C3715 C3712 1.386 . S
C3716 C3711 1.490 . S
C3716 C3718 1.395 . S
C3716 C3719 1.403 . S
H3717 C3723 0.930 . S
C3718 H3704 0.930 . S
C3718 C3716 1.395 . S
C3718 C3721 1.403 . S
C3719 C3716 1.403 . S
C3719 C3720 1.524 . S
C3719 C3723 1.400 . S
C3720 H3705 0.960 . S
C3720 H3706 0.960 . S
C3720 H3707 0.960 . S
C3720 C3719 1.524 . S
C3721 C3718 1.403 . S
C3721 C3722 1.392 . S
C3721 C3725 1.495 . S
C3722 C3721 1.392 . S
C3722 C3723 1.385 . S
C3722 C3724 1.478 . S
C3723 H3717 0.930 . S
C3723 C3719 1.400 . S
C3723 C3722 1.385 . S
C3724 C3722 1.478 . S
C3724 C3726 1.381 . S
C3724 C3730 1.383 . S
C3725 C3721 1.495 . S
C3725 H3731 0.959 . S
C3725 H3732 0.961 . S
C3725 H3733 0.960 . S
C3726 C3724 1.381 . S
C3726 C3727 1.394 . S
C3726 H3734 0.930 . S
C3727 C3726 1.394 . S
C3727 C3728 1.383 . S
C3727 H3735 0.929 . S
C3728 C3727 1.383 . S
C3728 C3729 1.377 . S
C3729 H3713 0.930 . S
C3729 C3728 1.377 . S
C3729 C3730 1.379 . S
C3730 H3714 0.931 . S
C3730 C3724 1.383 . S
C3730 C3729 1.379 . S
H3731 C3725 0.959 . S
H3732 C3725 0.961 . S
H3733 C3725 0.960 . S
H3734 C3726 0.930 . S
H3735 C3727 0.929 . S
H3736 C3744 0.929 . S
H3737 C3746 0.930 . S
H3738 C3748 0.930 . S
H3739 C3751 0.929 . S
H3740 C3754 0.930 . S
H3741 C3756 0.960 . S
H3742 C3756 0.960 . S
H3743 C3756 0.960 . S
C3744 H3736 0.929 . S
C3744 C3745 1.377 . S
C3744 C3746 1.384 . S
C3745 C3744 1.377 . S
C3745 C3751 1.390 . S
C3746 H3737 0.930 . S
C3746 C3744 1.384 . S
C3746 C3747 1.372 . S
C3747 C3746 1.372 . S
C3747 C3748 1.400 . S
C3747 C3752 1.490 . S
C3748 H3738 0.930 . S
C3748 C3747 1.400 . S
C3748 C3751 1.386 . S
H3749 C3765 0.930 . S
H3750 C3766 0.931 . S
C3751 H3739 0.929 . S
C3751 C3745 1.390 . S
C3751 C3748 1.386 . S
C3752 C3747 1.490 . S
C3752 C3754 1.395 . S
C3752 C3755 1.403 . S
H3753 C3759 0.930 1_556 S
C3754 H3740 0.930 . S
C3754 C3752 1.395 . S
C3754 C3757 1.403 . S
C3755 C3752 1.403 . S
C3755 C3756 1.524 1_554 S
C3755 C3759 1.400 . S
C3756 H3741 0.960 . S
C3756 H3742 0.960 . S
C3756 H3743 0.960 . S
C3756 C3755 1.524 1_556 S
C3757 C3754 1.403 . S
C3757 C3758 1.392 . S
C3757 C3761 1.495 . S
C3758 C3757 1.392 . S
C3758 C3759 1.385 . S
C3758 C3760 1.478 . S
C3759 H3753 0.930 1_554 S
C3759 C3755 1.400 . S
C3759 C3758 1.385 . S
C3760 C3758 1.478 . S
C3760 C3762 1.381 . S
C3760 C3766 1.383 . S
C3761 C3757 1.495 . S
C3761 H3767 0.959 . S
C3761 H3768 0.961 . S
C3761 H3769 0.960 . S
C3762 C3760 1.381 . S
C3762 C3763 1.394 . S
C3762 H3770 0.930 . S
C3763 C3762 1.394 . S
C3763 C3764 1.383 . S
C3763 H3771 0.929 . S
C3764 C3763 1.383 . S
C3764 C3765 1.377 . S
C3765 H3749 0.930 . S
C3765 C3764 1.377 . S
C3765 C3766 1.379 . S
C3766 H3750 0.931 . S
C3766 C3760 1.383 . S
C3766 C3765 1.379 . S
H3767 C3761 0.959 . S
H3768 C3761 0.961 . S
H3769 C3761 0.960 . S
H3770 C3762 0.930 . S
H3771 C3763 0.929 . S
H3772 C3780 0.929 . S
H3773 C3782 0.930 . S
H3774 C3784 0.930 . S
H3775 C3787 0.929 . S
H3776 C3790 0.930 . S
H3777 C3792 0.960 . S
H3778 C3792 0.960 . S
H3779 C3792 0.960 . S
C3780 H3772 0.929 . S
C3780 C3781 1.377 . S
C3780 C3782 1.384 . S
C3781 C3780 1.377 . S
C3781 C3787 1.390 . S
C3782 H3773 0.930 . S
C3782 C3780 1.384 . S
C3782 C3783 1.372 . S
C3783 C3782 1.372 . S
C3783 C3784 1.400 . S
C3783 C3788 1.490 . S
C3784 H3774 0.930 . S
C3784 C3783 1.400 . S
C3784 C3787 1.386 . S
H3785 C3801 0.930 . S
H3786 C3802 0.931 . S
C3787 H3775 0.929 . S
C3787 C3781 1.390 . S
C3787 C3784 1.386 . S
C3788 C3783 1.490 . S
C3788 C3790 1.395 . S
C3788 C3791 1.403 . S
H3789 C3795 0.930 . S
C3790 H3776 0.930 . S
C3790 C3788 1.395 . S
C3790 C3793 1.403 . S
C3791 C3788 1.403 . S
C3791 C3792 1.524 . S
C3791 C3795 1.400 . S
C3792 H3777 0.960 . S
C3792 H3778 0.960 . S
C3792 H3779 0.960 . S
C3792 C3791 1.524 . S
C3793 C3790 1.403 . S
C3793 C3794 1.392 . S
C3793 C3797 1.495 . S
C3794 C3793 1.392 . S
C3794 C3795 1.385 . S
C3794 C3796 1.478 . S
C3795 H3789 0.930 . S
C3795 C3791 1.400 . S
C3795 C3794 1.385 . S
C3796 C3794 1.478 . S
C3796 C3798 1.381 . S
C3796 C3802 1.383 . S
C3797 C3793 1.495 . S
C3797 H3803 0.959 . S
C3797 H3804 0.961 . S
C3797 H3805 0.960 . S
C3798 C3796 1.381 . S
C3798 C3799 1.394 . S
C3798 H3806 0.930 . S
C3799 C3798 1.394 . S
C3799 C3800 1.383 . S
C3799 H3807 0.929 . S
C3800 C3799 1.383 . S
C3800 C3801 1.377 . S
C3801 H3785 0.930 . S
C3801 C3800 1.377 . S
C3801 C3802 1.379 . S
C3802 H3786 0.931 . S
C3802 C3796 1.383 . S
C3802 C3801 1.379 . S
H3803 C3797 0.959 . S
H3804 C3797 0.961 . S
H3805 C3797 0.960 . S
H3806 C3798 0.930 . S
H3807 C3799 0.929 . S
H3808 C3816 0.929 . S
H3809 C3818 0.930 . S
H3810 C3820 0.930 . S
H3811 C3823 0.929 . S
H3812 C3826 0.930 . S
H3813 C3828 0.960 . S
H3814 C3828 0.960 . S
H3815 C3828 0.960 . S
C3816 H3808 0.929 . S
C3816 C3817 1.377 . S
C3816 C3818 1.384 . S
C3817 C3816 1.377 . S
C3817 C3823 1.390 . S
C3818 H3809 0.930 . S
C3818 C3816 1.384 . S
C3818 C3819 1.372 . S
C3819 C3818 1.372 . S
C3819 C3820 1.400 . S
C3819 C3824 1.490 . S
C3820 H3810 0.930 . S
C3820 C3819 1.400 . S
C3820 C3823 1.386 . S
H3821 C3837 0.930 . S
H3822 C3838 0.931 . S
C3823 H3811 0.929 . S
C3823 C3817 1.390 . S
C3823 C3820 1.386 . S
C3824 C3819 1.490 . S
C3824 C3826 1.395 . S
C3824 C3827 1.403 . S
H3825 C3831 0.930 . S
C3826 H3812 0.930 . S
C3826 C3824 1.395 . S
C3826 C3829 1.403 . S
C3827 C3824 1.403 . S
C3827 C3828 1.524 . S
C3827 C3831 1.400 . S
C3828 H3813 0.960 . S
C3828 H3814 0.960 . S
C3828 H3815 0.960 . S
C3828 C3827 1.524 . S
C3829 C3826 1.403 . S
C3829 C3830 1.392 . S
C3829 C3833 1.495 . S
C3830 C3829 1.392 . S
C3830 C3831 1.385 . S
C3830 C3832 1.478 . S
C3831 H3825 0.930 . S
C3831 C3827 1.400 . S
C3831 C3830 1.385 . S
C3832 C3830 1.478 . S
C3832 C3834 1.381 . S
C3832 C3838 1.383 . S
C3833 C3829 1.495 . S
C3833 H3839 0.959 . S
C3833 H3840 0.961 . S
C3833 H3841 0.960 . S
C3834 C3832 1.381 . S
C3834 C3835 1.394 . S
C3834 H3842 0.930 . S
C3835 C3834 1.394 . S
C3835 C3836 1.383 . S
C3835 H3843 0.929 . S
C3836 C3835 1.383 . S
C3836 C3837 1.377 . S
C3837 H3821 0.930 . S
C3837 C3836 1.377 . S
C3837 C3838 1.379 . S
C3838 H3822 0.931 . S
C3838 C3832 1.383 . S
C3838 C3837 1.379 . S
H3839 C3833 0.959 . S
H3840 C3833 0.961 . S
H3841 C3833 0.960 . S
H3842 C3834 0.930 . S
H3843 C3835 0.929 . S
H3844 C3852 0.929 . S
H3845 C3854 0.930 . S
H3846 C3856 0.930 . S
H3847 C3859 0.929 . S
H3848 C3862 0.930 . S
H3849 C3864 0.960 . S
H3850 C3864 0.960 . S
H3851 C3864 0.960 . S
C3852 H3844 0.929 . S
C3852 C3853 1.377 . S
C3852 C3854 1.384 . S
C3853 C3852 1.377 . S
C3853 C3859 1.390 . S
C3854 H3845 0.930 . S
C3854 C3852 1.384 . S
C3854 C3855 1.372 . S
C3855 C3854 1.372 . S
C3855 C3856 1.400 . S
C3855 C3860 1.490 . S
C3856 H3846 0.930 . S
C3856 C3855 1.400 . S
C3856 C3859 1.386 . S
H3857 C3873 0.930 . S
H3858 C3874 0.931 . S
C3859 H3847 0.929 . S
C3859 C3853 1.390 . S
C3859 C3856 1.386 . S
C3860 C3855 1.490 . S
C3860 C3862 1.395 . S
C3860 C3863 1.403 . S
H3861 C3867 0.930 . S
C3862 H3848 0.930 . S
C3862 C3860 1.395 . S
C3862 C3865 1.403 . S
C3863 C3860 1.403 . S
C3863 C3864 1.524 . S
C3863 C3867 1.400 . S
C3864 H3849 0.960 . S
C3864 H3850 0.960 . S
C3864 H3851 0.960 . S
C3864 C3863 1.524 . S
C3865 C3862 1.403 . S
C3865 C3866 1.392 . S
C3865 C3869 1.495 . S
C3866 C3865 1.392 . S
C3866 C3867 1.385 . S
C3866 C3868 1.478 . S
C3867 H3861 0.930 . S
C3867 C3863 1.400 . S
C3867 C3866 1.385 . S
C3868 C3866 1.478 . S
C3868 C3870 1.381 . S
C3868 C3874 1.383 . S
C3869 C3865 1.495 . S
C3869 H3875 0.959 . S
C3869 H3876 0.961 . S
C3869 H3877 0.960 . S
C3870 C3868 1.381 . S
C3870 C3871 1.394 . S
C3870 H3878 0.930 . S
C3871 C3870 1.394 . S
C3871 C3872 1.383 . S
C3871 H3879 0.929 . S
C3872 C3871 1.383 . S
C3872 C3873 1.377 . S
C3873 H3857 0.930 . S
C3873 C3872 1.377 . S
C3873 C3874 1.379 . S
C3874 H3858 0.931 . S
C3874 C3868 1.383 . S
C3874 C3873 1.379 . S
H3875 C3869 0.959 . S
H3876 C3869 0.961 . S
H3877 C3869 0.960 . S
H3878 C3870 0.930 . S
H3879 C3871 0.929 . S
H3880 C3888 0.929 . S
H3881 C3890 0.930 . S
H3882 C3892 0.930 . S
H3883 C3895 0.929 . S
H3884 C3898 0.930 . S
H3885 C3900 0.960 . S
H3886 C3900 0.960 . S
H3887 C3900 0.960 . S
C3888 H3880 0.929 . S
C3888 C3889 1.377 . S
C3888 C3890 1.384 . S
C3889 C3888 1.377 . S
C3889 C3895 1.390 . S
C3890 H3881 0.930 . S
C3890 C3888 1.384 . S
C3890 C3891 1.372 . S
C3891 C3890 1.372 . S
C3891 C3892 1.400 . S
C3891 C3896 1.490 . S
C3892 H3882 0.930 . S
C3892 C3891 1.400 . S
C3892 C3895 1.386 . S
H3893 C3909 0.930 . S
H3894 C3910 0.931 . S
C3895 H3883 0.929 . S
C3895 C3889 1.390 . S
C3895 C3892 1.386 . S
C3896 C3891 1.490 . S
C3896 C3898 1.395 . S
C3896 C3899 1.403 . S
H3897 C3903 0.930 . S
C3898 H3884 0.930 . S
C3898 C3896 1.395 . S
C3898 C3901 1.403 . S
C3899 C3896 1.403 . S
C3899 C3900 1.524 . S
C3899 C3903 1.400 . S
C3900 H3885 0.960 . S
C3900 H3886 0.960 . S
C3900 H3887 0.960 . S
C3900 C3899 1.524 . S
C3901 C3898 1.403 . S
C3901 C3902 1.392 . S
C3901 C3905 1.495 . S
C3902 C3901 1.392 . S
C3902 C3903 1.385 . S
C3902 C3904 1.478 . S
C3903 H3897 0.930 . S
C3903 C3899 1.400 . S
C3903 C3902 1.385 . S
C3904 C3902 1.478 . S
C3904 C3906 1.381 . S
C3904 C3910 1.383 . S
C3905 C3901 1.495 . S
C3905 H3911 0.959 . S
C3905 H3912 0.961 . S
C3905 H3913 0.960 . S
C3906 C3904 1.381 . S
C3906 C3907 1.394 . S
C3906 H3914 0.930 . S
C3907 C3906 1.394 . S
C3907 C3908 1.383 . S
C3907 H3915 0.929 . S
C3908 C3907 1.383 . S
C3908 C3909 1.377 . S
C3909 H3893 0.930 . S
C3909 C3908 1.377 . S
C3909 C3910 1.379 . S
C3910 H3894 0.931 . S
C3910 C3904 1.383 . S
C3910 C3909 1.379 . S
H3911 C3905 0.959 . S
H3912 C3905 0.961 . S
H3913 C3905 0.960 . S
H3914 C3906 0.930 . S
H3915 C3907 0.929 . S
H3916 C3924 0.929 . S
H3917 C3926 0.930 . S
H3918 C3928 0.930 . S
H3919 C3931 0.929 . S
H3920 C3934 0.930 . S
H3921 C3936 0.960 . S
H3922 C3936 0.960 . S
H3923 C3936 0.960 . S
C3924 H3916 0.929 . S
C3924 C3925 1.377 . S
C3924 C3926 1.384 . S
C3925 C3924 1.377 . S
C3925 C3931 1.390 . S
C3926 H3917 0.930 . S
C3926 C3924 1.384 . S
C3926 C3927 1.372 . S
C3927 C3926 1.372 . S
C3927 C3928 1.400 . S
C3927 C3932 1.490 . S
C3928 H3918 0.930 . S
C3928 C3927 1.400 . S
C3928 C3931 1.386 . S
H3929 C3945 0.930 . S
H3930 C3946 0.931 . S
C3931 H3919 0.929 . S
C3931 C3925 1.390 . S
C3931 C3928 1.386 . S
C3932 C3927 1.490 . S
C3932 C3934 1.395 . S
C3932 C3935 1.403 . S
H3933 C3939 0.930 . S
C3934 H3920 0.930 . S
C3934 C3932 1.395 . S
C3934 C3937 1.403 . S
C3935 C3932 1.403 . S
C3935 C3936 1.524 . S
C3935 C3939 1.400 . S
C3936 H3921 0.960 . S
C3936 H3922 0.960 . S
C3936 H3923 0.960 . S
C3936 C3935 1.524 . S
C3937 C3934 1.403 . S
C3937 C3938 1.392 . S
C3937 C3941 1.495 . S
C3938 C3937 1.392 . S
C3938 C3939 1.385 . S
C3938 C3940 1.478 . S
C3939 H3933 0.930 . S
C3939 C3935 1.400 . S
C3939 C3938 1.385 . S
C3940 C3938 1.478 . S
C3940 C3942 1.381 . S
C3940 C3946 1.383 . S
C3941 C3937 1.495 . S
C3941 H3947 0.959 . S
C3941 H3948 0.961 . S
C3941 H3949 0.960 . S
C3942 C3940 1.381 . S
C3942 C3943 1.394 . S
C3942 H3950 0.930 . S
C3943 C3942 1.394 . S
C3943 C3944 1.383 . S
C3943 H3951 0.929 . S
C3944 C3943 1.383 . S
C3944 C3945 1.377 . S
C3945 H3929 0.930 . S
C3945 C3944 1.377 . S
C3945 C3946 1.379 . S
C3946 H3930 0.931 . S
C3946 C3940 1.383 . S
C3946 C3945 1.379 . S
H3947 C3941 0.959 . S
H3948 C3941 0.961 . S
H3949 C3941 0.960 . S
H3950 C3942 0.930 . S
H3951 C3943 0.929 . S
H3952 C3960 0.929 . S
H3953 C3962 0.930 . S
H3954 C3964 0.930 . S
H3955 C3967 0.929 . S
H3956 C3970 0.930 . S
H3957 C3972 0.960 . S
H3958 C3972 0.960 . S
H3959 C3972 0.960 . S
C3960 H3952 0.929 . S
C3960 C3961 1.377 . S
C3960 C3962 1.384 . S
C3961 C3960 1.377 . S
C3961 C3967 1.390 . S
C3962 H3953 0.930 . S
C3962 C3960 1.384 . S
C3962 C3963 1.372 . S
C3963 C3962 1.372 . S
C3963 C3964 1.400 . S
C3963 C3968 1.490 . S
C3964 H3954 0.930 . S
C3964 C3963 1.400 . S
C3964 C3967 1.386 . S
H3965 C3981 0.930 . S
H3966 C3982 0.931 . S
C3967 H3955 0.929 . S
C3967 C3961 1.390 . S
C3967 C3964 1.386 . S
C3968 C3963 1.490 . S
C3968 C3970 1.395 . S
C3968 C3971 1.403 . S
H3969 C3975 0.930 . S
C3970 H3956 0.930 . S
C3970 C3968 1.395 . S
C3970 C3973 1.403 . S
C3971 C3968 1.403 . S
C3971 C3972 1.524 . S
C3971 C3975 1.400 . S
C3972 H3957 0.960 . S
C3972 H3958 0.960 . S
C3972 H3959 0.960 . S
C3972 C3971 1.524 . S
C3973 C3970 1.403 . S
C3973 C3974 1.392 . S
C3973 C3977 1.495 . S
C3974 C3973 1.392 . S
C3974 C3975 1.385 . S
C3974 C3976 1.478 . S
C3975 H3969 0.930 . S
C3975 C3971 1.400 . S
C3975 C3974 1.385 . S
C3976 C3974 1.478 . S
C3976 C3978 1.381 . S
C3976 C3982 1.383 . S
C3977 C3973 1.495 . S
C3977 H3983 0.959 . S
C3977 H3984 0.961 . S
C3977 H3985 0.960 . S
C3978 C3976 1.381 . S
C3978 C3979 1.394 . S
C3978 H3986 0.930 . S
C3979 C3978 1.394 . S
C3979 C3980 1.383 . S
C3979 H3987 0.929 . S
C3980 C3979 1.383 . S
C3980 C3981 1.377 . S
C3981 H3965 0.930 . S
C3981 C3980 1.377 . S
C3981 C3982 1.379 . S
C3982 H3966 0.931 . S
C3982 C3976 1.383 . S
C3982 C3981 1.379 . S
H3983 C3977 0.959 . S
H3984 C3977 0.961 . S
H3985 C3977 0.960 . S
H3986 C3978 0.930 . S
H3987 C3979 0.929 . S
H3988 C3996 0.929 . S
H3989 C3998 0.930 . S
H3990 C4000 0.930 . S
H3991 C4003 0.929 . S
H3992 C4006 0.930 . S
H3993 C4008 0.960 . S
H3994 C4008 0.960 . S
H3995 C4008 0.960 . S
C3996 H3988 0.929 . S
C3996 C3997 1.377 . S
C3996 C3998 1.384 . S
C3997 C3996 1.377 . S
C3997 C4003 1.390 . S
C3998 H3989 0.930 . S
C3998 C3996 1.384 . S
C3998 C3999 1.372 . S
C3999 C3998 1.372 . S
C3999 C4000 1.400 . S
C3999 C4004 1.490 . S
C4000 H3990 0.930 . S
C4000 C3999 1.400 . S
C4000 C4003 1.386 . S
H4001 C4017 0.930 . S
H4002 C4018 0.931 . S
C4003 H3991 0.929 . S
C4003 C3997 1.390 . S
C4003 C4000 1.386 . S
C4004 C3999 1.490 . S
C4004 C4006 1.395 . S
C4004 C4007 1.403 . S
H4005 C4011 0.930 . S
C4006 H3992 0.930 . S
C4006 C4004 1.395 . S
C4006 C4009 1.403 . S
C4007 C4004 1.403 . S
C4007 C4008 1.524 . S
C4007 C4011 1.400 . S
C4008 H3993 0.960 . S
C4008 H3994 0.960 . S
C4008 H3995 0.960 . S
C4008 C4007 1.524 . S
C4009 C4006 1.403 . S
C4009 C4010 1.392 . S
C4009 C4013 1.495 . S
C4010 C4009 1.392 . S
C4010 C4011 1.385 . S
C4010 C4012 1.478 . S
C4011 H4005 0.930 . S
C4011 C4007 1.400 . S
C4011 C4010 1.385 . S
C4012 C4010 1.478 . S
C4012 C4014 1.381 . S
C4012 C4018 1.383 . S
C4013 C4009 1.495 . S
C4013 H4019 0.959 . S
C4013 H4020 0.961 . S
C4013 H4021 0.960 . S
C4014 C4012 1.381 . S
C4014 C4015 1.394 . S
C4014 H4022 0.930 . S
C4015 C4014 1.394 . S
C4015 C4016 1.383 . S
C4015 H4023 0.929 . S
C4016 C4015 1.383 . S
C4016 C4017 1.377 . S
C4017 H4001 0.930 . S
C4017 C4016 1.377 . S
C4017 C4018 1.379 . S
C4018 H4002 0.931 . S
C4018 C4012 1.383 . S
C4018 C4017 1.379 . S
H4019 C4013 0.959 . S
H4020 C4013 0.961 . S
H4021 C4013 0.960 . S
H4022 C4014 0.930 . S
H4023 C4015 0.929 . S
H4024 C4032 0.929 . S
H4025 C4034 0.930 . S
H4026 C4036 0.930 . S
H4027 C4039 0.929 . S
H4028 C4042 0.930 . S
H4029 C4044 0.960 . S
H4030 C4044 0.960 . S
H4031 C4044 0.960 . S
C4032 H4024 0.929 . S
C4032 C4033 1.377 . S
C4032 C4034 1.384 . S
C4033 C4032 1.377 . S
C4033 C4039 1.390 . S
C4034 H4025 0.930 . S
C4034 C4032 1.384 . S
C4034 C4035 1.372 . S
C4035 C4034 1.372 . S
C4035 C4036 1.400 . S
C4035 C4040 1.490 . S
C4036 H4026 0.930 . S
C4036 C4035 1.400 . S
C4036 C4039 1.386 . S
H4037 C4053 0.930 . S
H4038 C4054 0.931 . S
C4039 H4027 0.929 . S
C4039 C4033 1.390 . S
C4039 C4036 1.386 . S
C4040 C4035 1.490 . S
C4040 C4042 1.395 . S
C4040 C4043 1.403 . S
H4041 C4047 0.930 . S
C4042 H4028 0.930 . S
C4042 C4040 1.395 . S
C4042 C4045 1.403 . S
C4043 C4040 1.403 . S
C4043 C4044 1.524 . S
C4043 C4047 1.400 . S
C4044 H4029 0.960 . S
C4044 H4030 0.960 . S
C4044 H4031 0.960 . S
C4044 C4043 1.524 . S
C4045 C4042 1.403 . S
C4045 C4046 1.392 . S
C4045 C4049 1.495 . S
C4046 C4045 1.392 . S
C4046 C4047 1.385 . S
C4046 C4048 1.478 . S
C4047 H4041 0.930 . S
C4047 C4043 1.400 . S
C4047 C4046 1.385 . S
C4048 C4046 1.478 . S
C4048 C4050 1.381 . S
C4048 C4054 1.383 . S
C4049 C4045 1.495 . S
C4049 H4055 0.959 . S
C4049 H4056 0.961 . S
C4049 H4057 0.960 . S
C4050 C4048 1.381 . S
C4050 C4051 1.394 . S
C4050 H4058 0.930 . S
C4051 C4050 1.394 . S
C4051 C4052 1.383 . S
C4051 H4059 0.929 . S
C4052 C4051 1.383 . S
C4052 C4053 1.377 . S
C4053 H4037 0.930 . S
C4053 C4052 1.377 . S
C4053 C4054 1.379 . S
C4054 H4038 0.931 . S
C4054 C4048 1.383 . S
C4054 C4053 1.379 . S
H4055 C4049 0.959 . S
H4056 C4049 0.961 . S
H4057 C4049 0.960 . S
H4058 C4050 0.930 . S
H4059 C4051 0.929 . S
H4060 C4068 0.929 . S
H4061 C4070 0.930 . S
H4062 C4072 0.930 . S
H4063 C4075 0.929 . S
H4064 C4078 0.930 . S
H4065 C4080 0.960 . S
H4066 C4080 0.960 . S
H4067 C4080 0.960 . S
C4068 H4060 0.929 . S
C4068 C4069 1.377 . S
C4068 C4070 1.384 . S
C4069 C4068 1.377 . S
C4069 C4075 1.390 . S
C4070 H4061 0.930 . S
C4070 C4068 1.384 . S
C4070 C4071 1.372 . S
C4071 C4070 1.372 . S
C4071 C4072 1.400 . S
C4071 C4076 1.490 . S
C4072 H4062 0.930 . S
C4072 C4071 1.400 . S
C4072 C4075 1.386 . S
H4073 C4089 0.930 . S
H4074 C4090 0.931 . S
C4075 H4063 0.929 . S
C4075 C4069 1.390 . S
C4075 C4072 1.386 . S
C4076 C4071 1.490 . S
C4076 C4078 1.395 . S
C4076 C4079 1.403 . S
H4077 C4083 0.930 . S
C4078 H4064 0.930 . S
C4078 C4076 1.395 . S
C4078 C4081 1.403 . S
C4079 C4076 1.403 . S
C4079 C4080 1.524 . S
C4079 C4083 1.400 . S
C4080 H4065 0.960 . S
C4080 H4066 0.960 . S
C4080 H4067 0.960 . S
C4080 C4079 1.524 . S
C4081 C4078 1.403 . S
C4081 C4082 1.392 . S
C4081 C4085 1.495 . S
C4082 C4081 1.392 . S
C4082 C4083 1.385 . S
C4082 C4084 1.478 . S
C4083 H4077 0.930 . S
C4083 C4079 1.400 . S
C4083 C4082 1.385 . S
C4084 C4082 1.478 . S
C4084 C4086 1.381 . S
C4084 C4090 1.383 . S
C4085 C4081 1.495 . S
C4085 H4091 0.959 . S
C4085 H4092 0.961 . S
C4085 H4093 0.960 . S
C4086 C4084 1.381 . S
C4086 C4087 1.394 . S
C4086 H4094 0.930 . S
C4087 C4086 1.394 . S
C4087 C4088 1.383 . S
C4087 H4095 0.929 . S
C4088 C4087 1.383 . S
C4088 C4089 1.377 . S
C4089 H4073 0.930 . S
C4089 C4088 1.377 . S
C4089 C4090 1.379 . S
C4090 H4074 0.931 . S
C4090 C4084 1.383 . S
C4090 C4089 1.379 . S
H4091 C4085 0.959 . S
H4092 C4085 0.961 . S
H4093 C4085 0.960 . S
H4094 C4086 0.930 . S
H4095 C4087 0.929 . S
H4096 C4104 0.929 . S
H4097 C4106 0.930 . S
H4098 C4108 0.930 . S
H4099 C4111 0.929 . S
H4100 C4114 0.930 . S
H4101 C4116 0.960 . S
H4102 C4116 0.960 . S
H4103 C4116 0.960 . S
C4104 H4096 0.929 . S
C4104 C4105 1.377 . S
C4104 C4106 1.384 . S
C4105 C4104 1.377 . S
C4105 C4111 1.390 . S
C4106 H4097 0.930 . S
C4106 C4104 1.384 . S
C4106 C4107 1.372 . S
C4107 C4106 1.372 . S
C4107 C4108 1.400 . S
C4107 C4112 1.490 . S
C4108 H4098 0.930 . S
C4108 C4107 1.400 . S
C4108 C4111 1.386 . S
H4109 C4125 0.930 . S
H4110 C4126 0.931 . S
C4111 H4099 0.929 . S
C4111 C4105 1.390 . S
C4111 C4108 1.386 . S
C4112 C4107 1.490 . S
C4112 C4114 1.395 . S
C4112 C4115 1.403 . S
H4113 C4119 0.930 . S
C4114 H4100 0.930 . S
C4114 C4112 1.395 . S
C4114 C4117 1.403 . S
C4115 C4112 1.403 . S
C4115 C4116 1.524 . S
C4115 C4119 1.400 . S
C4116 H4101 0.960 . S
C4116 H4102 0.960 . S
C4116 H4103 0.960 . S
C4116 C4115 1.524 . S
C4117 C4114 1.403 . S
C4117 C4118 1.392 . S
C4117 C4121 1.495 . S
C4118 C4117 1.392 . S
C4118 C4119 1.385 . S
C4118 C4120 1.478 . S
C4119 H4113 0.930 . S
C4119 C4115 1.400 . S
C4119 C4118 1.385 . S
C4120 C4118 1.478 . S
C4120 C4122 1.381 . S
C4120 C4126 1.383 . S
C4121 C4117 1.495 . S
C4121 H4127 0.959 . S
C4121 H4128 0.961 . S
C4121 H4129 0.960 . S
C4122 C4120 1.381 . S
C4122 C4123 1.394 . S
C4122 H4130 0.930 . S
C4123 C4122 1.394 . S
C4123 C4124 1.383 . S
C4123 H4131 0.929 . S
C4124 C4123 1.383 . S
C4124 C4125 1.377 . S
C4125 H4109 0.930 . S
C4125 C4124 1.377 . S
C4125 C4126 1.379 . S
C4126 H4110 0.931 . S
C4126 C4120 1.383 . S
C4126 C4125 1.379 . S
H4127 C4121 0.959 . S
H4128 C4121 0.961 . S
H4129 C4121 0.960 . S
H4130 C4122 0.930 . S
H4131 C4123 0.929 . S
H4132 C4140 0.929 . S
H4133 C4142 0.930 . S
H4134 C4144 0.930 . S
H4135 C4147 0.929 . S
H4136 C4150 0.930 . S
H4137 C4152 0.960 . S
H4138 C4152 0.960 . S
H4139 C4152 0.960 . S
C4140 H4132 0.929 . S
C4140 C4141 1.377 . S
C4140 C4142 1.384 . S
C4141 C4140 1.377 . S
C4141 C4147 1.390 . S
C4142 H4133 0.930 . S
C4142 C4140 1.384 . S
C4142 C4143 1.372 . S
C4143 C4142 1.372 . S
C4143 C4144 1.400 . S
C4143 C4148 1.490 . S
C4144 H4134 0.930 . S
C4144 C4143 1.400 . S
C4144 C4147 1.386 . S
H4145 C4161 0.930 . S
H4146 C4162 0.931 . S
C4147 H4135 0.929 . S
C4147 C4141 1.390 . S
C4147 C4144 1.386 . S
C4148 C4143 1.490 . S
C4148 C4150 1.395 . S
C4148 C4151 1.403 . S
H4149 C4155 0.930 . S
C4150 H4136 0.930 . S
C4150 C4148 1.395 . S
C4150 C4153 1.403 . S
C4151 C4148 1.403 . S
C4151 C4152 1.524 . S
C4151 C4155 1.400 . S
C4152 H4137 0.960 . S
C4152 H4138 0.960 . S
C4152 H4139 0.960 . S
C4152 C4151 1.524 . S
C4153 C4150 1.403 . S
C4153 C4154 1.392 . S
C4153 C4157 1.495 . S
C4154 C4153 1.392 . S
C4154 C4155 1.385 . S
C4154 C4156 1.478 . S
C4155 H4149 0.930 . S
C4155 C4151 1.400 . S
C4155 C4154 1.385 . S
C4156 C4154 1.478 . S
C4156 C4158 1.381 . S
C4156 C4162 1.383 . S
C4157 C4153 1.495 . S
C4157 H4163 0.959 . S
C4157 H4164 0.961 . S
C4157 H4165 0.960 . S
C4158 C4156 1.381 . S
C4158 C4159 1.394 . S
C4158 H4166 0.930 . S
C4159 C4158 1.394 . S
C4159 C4160 1.383 . S
C4159 H4167 0.929 . S
C4160 C4159 1.383 . S
C4160 C4161 1.377 . S
C4161 H4145 0.930 . S
C4161 C4160 1.377 . S
C4161 C4162 1.379 . S
C4162 H4146 0.931 . S
C4162 C4156 1.383 . S
C4162 C4161 1.379 . S
H4163 C4157 0.959 . S
H4164 C4157 0.961 . S
H4165 C4157 0.960 . S
H4166 C4158 0.930 . S
H4167 C4159 0.929 . S
H4168 C4176 0.929 . S
H4169 C4178 0.930 . S
H4170 C4180 0.930 . S
H4171 C4183 0.929 . S
H4172 C4186 0.930 . S
H4173 C4188 0.960 . S
H4174 C4188 0.960 . S
H4175 C4188 0.960 . S
C4176 H4168 0.929 . S
C4176 C4177 1.377 . S
C4176 C4178 1.384 . S
C4177 C4176 1.377 . S
C4177 C4183 1.390 . S
C4178 H4169 0.930 . S
C4178 C4176 1.384 . S
C4178 C4179 1.372 . S
C4179 C4178 1.372 . S
C4179 C4180 1.400 . S
C4179 C4184 1.490 . S
C4180 H4170 0.930 . S
C4180 C4179 1.400 . S
C4180 C4183 1.386 . S
H4181 C4197 0.930 . S
H4182 C4198 0.931 . S
C4183 H4171 0.929 . S
C4183 C4177 1.390 . S
C4183 C4180 1.386 . S
C4184 C4179 1.490 . S
C4184 C4186 1.395 . S
C4184 C4187 1.403 . S
H4185 C4191 0.930 . S
C4186 H4172 0.930 . S
C4186 C4184 1.395 . S
C4186 C4189 1.403 . S
C4187 C4184 1.403 . S
C4187 C4188 1.524 . S
C4187 C4191 1.400 . S
C4188 H4173 0.960 . S
C4188 H4174 0.960 . S
C4188 H4175 0.960 . S
C4188 C4187 1.524 . S
C4189 C4186 1.403 . S
C4189 C4190 1.392 . S
C4189 C4193 1.495 . S
C4190 C4189 1.392 . S
C4190 C4191 1.385 . S
C4190 C4192 1.478 . S
C4191 H4185 0.930 . S
C4191 C4187 1.400 . S
C4191 C4190 1.385 . S
C4192 C4190 1.478 . S
C4192 C4194 1.381 . S
C4192 C4198 1.383 . S
C4193 C4189 1.495 . S
C4193 H4199 0.959 . S
C4193 H4200 0.961 . S
C4193 H4201 0.960 . S
C4194 C4192 1.381 . S
C4194 C4195 1.394 . S
C4194 H4202 0.930 . S
C4195 C4194 1.394 . S
C4195 C4196 1.383 . S
C4195 H4203 0.929 . S
C4196 C4195 1.383 . S
C4196 C4197 1.377 . S
C4197 H4181 0.930 . S
C4197 C4196 1.377 . S
C4197 C4198 1.379 . S
C4198 H4182 0.931 . S
C4198 C4192 1.383 . S
C4198 C4197 1.379 . S
H4199 C4193 0.959 . S
H4200 C4193 0.961 . S
H4201 C4193 0.960 . S
H4202 C4194 0.930 . S
H4203 C4195 0.929 . S
H4204 C4212 0.929 . S
H4205 C4214 0.930 . S
H4206 C4216 0.930 . S
H4207 C4219 0.929 . S
H4208 C4222 0.930 . S
H4209 C4224 0.960 . S
H4210 C4224 0.960 . S
H4211 C4224 0.960 . S
C4212 H4204 0.929 . S
C4212 C4213 1.377 . S
C4212 C4214 1.384 . S
C4213 C4212 1.377 . S
C4213 C4219 1.390 . S
C4214 H4205 0.930 . S
C4214 C4212 1.384 . S
C4214 C4215 1.372 . S
C4215 C4214 1.372 . S
C4215 C4216 1.400 . S
C4215 C4220 1.490 . S
C4216 H4206 0.930 . S
C4216 C4215 1.400 . S
C4216 C4219 1.386 . S
H4217 C4233 0.930 . S
H4218 C4234 0.931 . S
C4219 H4207 0.929 . S
C4219 C4213 1.390 . S
C4219 C4216 1.386 . S
C4220 C4215 1.490 . S
C4220 C4222 1.395 . S
C4220 C4223 1.403 . S
H4221 C4227 0.930 . S
C4222 H4208 0.930 . S
C4222 C4220 1.395 . S
C4222 C4225 1.403 . S
C4223 C4220 1.403 . S
C4223 C4224 1.524 . S
C4223 C4227 1.400 . S
C4224 H4209 0.960 . S
C4224 H4210 0.960 . S
C4224 H4211 0.960 . S
C4224 C4223 1.524 . S
C4225 C4222 1.403 . S
C4225 C4226 1.392 . S
C4225 C4229 1.495 . S
C4226 C4225 1.392 . S
C4226 C4227 1.385 . S
C4226 C4228 1.478 . S
C4227 H4221 0.930 . S
C4227 C4223 1.400 . S
C4227 C4226 1.385 . S
C4228 C4226 1.478 . S
C4228 C4230 1.381 . S
C4228 C4234 1.383 . S
C4229 C4225 1.495 . S
C4229 H4235 0.959 . S
C4229 H4236 0.961 . S
C4229 H4237 0.960 . S
C4230 C4228 1.381 . S
C4230 C4231 1.394 . S
C4230 H4238 0.930 . S
C4231 C4230 1.394 . S
C4231 C4232 1.383 . S
C4231 H4239 0.929 . S
C4232 C4231 1.383 . S
C4232 C4233 1.377 . S
C4233 H4217 0.930 . S
C4233 C4232 1.377 . S
C4233 C4234 1.379 . S
C4234 H4218 0.931 . S
C4234 C4228 1.383 . S
C4234 C4233 1.379 . S
H4235 C4229 0.959 . S
H4236 C4229 0.961 . S
H4237 C4229 0.960 . S
H4238 C4230 0.930 . S
H4239 C4231 0.929 . S
H4240 C4248 0.929 . S
H4241 C4250 0.930 . S
H4242 C4252 0.930 . S
H4243 C4255 0.929 . S
H4244 C4258 0.930 . S
H4245 C4260 0.960 . S
H4246 C4260 0.960 . S
H4247 C4260 0.960 . S
C4248 H4240 0.929 . S
C4248 C4249 1.377 . S
C4248 C4250 1.384 . S
C4249 C4248 1.377 . S
C4249 C4255 1.390 . S
C4250 H4241 0.930 . S
C4250 C4248 1.384 . S
C4250 C4251 1.372 . S
C4251 C4250 1.372 . S
C4251 C4252 1.400 . S
C4251 C4256 1.490 . S
C4252 H4242 0.930 . S
C4252 C4251 1.400 . S
C4252 C4255 1.386 . S
H4253 C4269 0.930 . S
H4254 C4270 0.931 . S
C4255 H4243 0.929 . S
C4255 C4249 1.390 . S
C4255 C4252 1.386 . S
C4256 C4251 1.490 . S
C4256 C4258 1.395 . S
C4256 C4259 1.403 . S
H4257 C4263 0.930 . S
C4258 H4244 0.930 . S
C4258 C4256 1.395 . S
C4258 C4261 1.403 . S
C4259 C4256 1.403 . S
C4259 C4260 1.524 . S
C4259 C4263 1.400 . S
C4260 H4245 0.960 . S
C4260 H4246 0.960 . S
C4260 H4247 0.960 . S
C4260 C4259 1.524 . S
C4261 C4258 1.403 . S
C4261 C4262 1.392 . S
C4261 C4265 1.495 . S
C4262 C4261 1.392 . S
C4262 C4263 1.385 . S
C4262 C4264 1.478 . S
C4263 H4257 0.930 . S
C4263 C4259 1.400 . S
C4263 C4262 1.385 . S
C4264 C4262 1.478 . S
C4264 C4266 1.381 . S
C4264 C4270 1.383 . S
C4265 C4261 1.495 . S
C4265 H4271 0.959 . S
C4265 H4272 0.961 . S
C4265 H4273 0.960 . S
C4266 C4264 1.381 . S
C4266 C4267 1.394 . S
C4266 H4274 0.930 . S
C4267 C4266 1.394 . S
C4267 C4268 1.383 . S
C4267 H4275 0.929 . S
C4268 C4267 1.383 . S
C4268 C4269 1.377 . S
C4269 H4253 0.930 . S
C4269 C4268 1.377 . S
C4269 C4270 1.379 . S
C4270 H4254 0.931 . S
C4270 C4264 1.383 . S
C4270 C4269 1.379 . S
H4271 C4265 0.959 . S
H4272 C4265 0.961 . S
H4273 C4265 0.960 . S
H4274 C4266 0.930 . S
H4275 C4267 0.929 . S
H4276 C4284 0.929 . S
H4277 C4286 0.930 . S
H4278 C4288 0.930 . S
H4279 C4291 0.929 . S
H4280 C4294 0.930 . S
H4281 C4296 0.960 . S
H4282 C4296 0.960 . S
H4283 C4296 0.960 . S
C4284 H4276 0.929 . S
C4284 C4285 1.377 . S
C4284 C4286 1.384 . S
C4285 C4284 1.377 . S
C4285 C4291 1.390 . S
C4286 H4277 0.930 . S
C4286 C4284 1.384 . S
C4286 C4287 1.372 . S
C4287 C4286 1.372 . S
C4287 C4288 1.400 . S
C4287 C4292 1.490 . S
C4288 H4278 0.930 . S
C4288 C4287 1.400 . S
C4288 C4291 1.386 . S
H4289 C4305 0.930 . S
H4290 C4306 0.931 . S
C4291 H4279 0.929 . S
C4291 C4285 1.390 . S
C4291 C4288 1.386 . S
C4292 C4287 1.490 . S
C4292 C4294 1.395 . S
C4292 C4295 1.403 . S
H4293 C4299 0.930 . S
C4294 H4280 0.930 . S
C4294 C4292 1.395 . S
C4294 C4297 1.403 . S
C4295 C4292 1.403 . S
C4295 C4296 1.524 . S
C4295 C4299 1.400 . S
C4296 H4281 0.960 . S
C4296 H4282 0.960 . S
C4296 H4283 0.960 . S
C4296 C4295 1.524 . S
C4297 C4294 1.403 . S
C4297 C4298 1.392 . S
C4297 C4301 1.495 . S
C4298 C4297 1.392 . S
C4298 C4299 1.385 . S
C4298 C4300 1.478 . S
C4299 H4293 0.930 . S
C4299 C4295 1.400 . S
C4299 C4298 1.385 . S
C4300 C4298 1.478 . S
C4300 C4302 1.381 . S
C4300 C4306 1.383 . S
C4301 C4297 1.495 . S
C4301 H4307 0.959 . S
C4301 H4308 0.961 . S
C4301 H4309 0.960 . S
C4302 C4300 1.381 . S
C4302 C4303 1.394 . S
C4302 H4310 0.930 . S
C4303 C4302 1.394 . S
C4303 C4304 1.383 . S
C4303 H4311 0.929 . S
C4304 C4303 1.383 . S
C4304 C4305 1.377 . S
C4305 H4289 0.930 . S
C4305 C4304 1.377 . S
C4305 C4306 1.379 . S
C4306 H4290 0.931 . S
C4306 C4300 1.383 . S
C4306 C4305 1.379 . S
H4307 C4301 0.959 . S
H4308 C4301 0.961 . S
H4309 C4301 0.960 . S
H4310 C4302 0.930 . S
H4311 C4303 0.929 . S
H4312 C4320 0.929 . S
H4313 C4322 0.930 . S
H4314 C4324 0.930 . S
H4315 C4327 0.929 . S
H4316 C4330 0.930 . S
H4317 C4332 0.960 . S
H4318 C4332 0.960 . S
H4319 C4332 0.960 . S
C4320 H4312 0.929 . S
C4320 C4321 1.377 . S
C4320 C4322 1.384 . S
C4321 C4320 1.377 . S
C4321 C4327 1.390 . S
C4322 H4313 0.930 . S
C4322 C4320 1.384 . S
C4322 C4323 1.372 . S
C4323 C4322 1.372 . S
C4323 C4324 1.400 . S
C4323 C4328 1.490 . S
C4324 H4314 0.930 . S
C4324 C4323 1.400 . S
C4324 C4327 1.386 . S
H4325 C4341 0.930 . S
H4326 C4342 0.931 . S
C4327 H4315 0.929 . S
C4327 C4321 1.390 . S
C4327 C4324 1.386 . S
C4328 C4323 1.490 . S
C4328 C4330 1.395 . S
C4328 C4331 1.403 . S
H4329 C4335 0.930 . S
C4330 H4316 0.930 . S
C4330 C4328 1.395 . S
C4330 C4333 1.403 . S
C4331 C4328 1.403 . S
C4331 C4332 1.524 . S
C4331 C4335 1.400 . S
C4332 H4317 0.960 . S
C4332 H4318 0.960 . S
C4332 H4319 0.960 . S
C4332 C4331 1.524 . S
C4333 C4330 1.403 . S
C4333 C4334 1.392 . S
C4333 C4337 1.495 . S
C4334 C4333 1.392 . S
C4334 C4335 1.385 . S
C4334 C4336 1.478 . S
C4335 H4329 0.930 . S
C4335 C4331 1.400 . S
C4335 C4334 1.385 . S
C4336 C4334 1.478 . S
C4336 C4338 1.381 . S
C4336 C4342 1.383 . S
C4337 C4333 1.495 . S
C4337 H4343 0.959 . S
C4337 H4344 0.961 . S
C4337 H4345 0.960 . S
C4338 C4336 1.381 . S
C4338 C4339 1.394 . S
C4338 H4346 0.930 . S
C4339 C4338 1.394 . S
C4339 C4340 1.383 . S
C4339 H4347 0.929 . S
C4340 C4339 1.383 . S
C4340 C4341 1.377 . S
C4341 H4325 0.930 . S
C4341 C4340 1.377 . S
C4341 C4342 1.379 . S
C4342 H4326 0.931 . S
C4342 C4336 1.383 . S
C4342 C4341 1.379 . S
H4343 C4337 0.959 . S
H4344 C4337 0.961 . S
H4345 C4337 0.960 . S
H4346 C4338 0.930 . S
H4347 C4339 0.929 . S
H4348 C4356 0.929 . S
H4349 C4358 0.930 . S
H4350 C4360 0.930 . S
H4351 C4363 0.929 . S
H4352 C4366 0.930 . S
H4353 C4368 0.960 . S
H4354 C4368 0.960 . S
H4355 C4368 0.960 . S
C4356 H4348 0.929 . S
C4356 C4357 1.377 . S
C4356 C4358 1.384 . S
C4357 C4356 1.377 . S
C4357 C4363 1.390 . S
C4358 H4349 0.930 . S
C4358 C4356 1.384 . S
C4358 C4359 1.372 . S
C4359 C4358 1.372 . S
C4359 C4360 1.400 . S
C4359 C4364 1.490 . S
C4360 H4350 0.930 . S
C4360 C4359 1.400 . S
C4360 C4363 1.386 . S
H4361 C4377 0.930 . S
H4362 C4378 0.931 . S
C4363 H4351 0.929 . S
C4363 C4357 1.390 . S
C4363 C4360 1.386 . S
C4364 C4359 1.490 . S
C4364 C4366 1.395 . S
C4364 C4367 1.403 . S
H4365 C4371 0.930 . S
C4366 H4352 0.930 . S
C4366 C4364 1.395 . S
C4366 C4369 1.403 . S
C4367 C4364 1.403 . S
C4367 C4368 1.524 . S
C4367 C4371 1.400 . S
C4368 H4353 0.960 . S
C4368 H4354 0.960 . S
C4368 H4355 0.960 . S
C4368 C4367 1.524 . S
C4369 C4366 1.403 . S
C4369 C4370 1.392 . S
C4369 C4373 1.495 . S
C4370 C4369 1.392 . S
C4370 C4371 1.385 . S
C4370 C4372 1.478 . S
C4371 H4365 0.930 . S
C4371 C4367 1.400 . S
C4371 C4370 1.385 . S
C4372 C4370 1.478 . S
C4372 C4374 1.381 . S
C4372 C4378 1.383 . S
C4373 C4369 1.495 . S
C4373 H4379 0.959 . S
C4373 H4380 0.961 . S
C4373 H4381 0.960 . S
C4374 C4372 1.381 . S
C4374 C4375 1.394 . S
C4374 H4382 0.930 . S
C4375 C4374 1.394 . S
C4375 C4376 1.383 . S
C4375 H4383 0.929 . S
C4376 C4375 1.383 . S
C4376 C4377 1.377 . S
C4377 H4361 0.930 . S
C4377 C4376 1.377 . S
C4377 C4378 1.379 . S
C4378 H4362 0.931 . S
C4378 C4372 1.383 . S
C4378 C4377 1.379 . S
H4379 C4373 0.959 . S
H4380 C4373 0.961 . S
H4381 C4373 0.960 . S
H4382 C4374 0.930 . S
H4383 C4375 0.929 . S
H4384 C4392 0.929 . S
H4385 C4394 0.930 . S
H4386 C4396 0.930 . S
H4387 C4399 0.929 . S
H4388 C4402 0.930 . S
H4389 C4404 0.960 . S
H4390 C4404 0.960 . S
H4391 C4404 0.960 . S
C4392 H4384 0.929 . S
C4392 C4393 1.377 . S
C4392 C4394 1.384 . S
C4393 C4392 1.377 . S
C4393 C4399 1.390 . S
C4394 H4385 0.930 . S
C4394 C4392 1.384 . S
C4394 C4395 1.372 . S
C4395 C4394 1.372 . S
C4395 C4396 1.400 . S
C4395 C4400 1.490 . S
C4396 H4386 0.930 . S
C4396 C4395 1.400 . S
C4396 C4399 1.386 . S
H4397 C4413 0.930 . S
H4398 C4414 0.931 . S
C4399 H4387 0.929 . S
C4399 C4393 1.390 . S
C4399 C4396 1.386 . S
C4400 C4395 1.490 . S
C4400 C4402 1.395 . S
C4400 C4403 1.403 . S
H4401 C4407 0.930 . S
C4402 H4388 0.930 . S
C4402 C4400 1.395 . S
C4402 C4405 1.403 . S
C4403 C4400 1.403 . S
C4403 C4404 1.524 . S
C4403 C4407 1.400 . S
C4404 H4389 0.960 . S
C4404 H4390 0.960 . S
C4404 H4391 0.960 . S
C4404 C4403 1.524 . S
C4405 C4402 1.403 . S
C4405 C4406 1.392 . S
C4405 C4409 1.495 . S
C4406 C4405 1.392 . S
C4406 C4407 1.385 . S
C4406 C4408 1.478 . S
C4407 H4401 0.930 . S
C4407 C4403 1.400 . S
C4407 C4406 1.385 . S
C4408 C4406 1.478 . S
C4408 C4410 1.381 . S
C4408 C4414 1.383 . S
C4409 C4405 1.495 . S
C4409 H4415 0.959 . S
C4409 H4416 0.961 . S
C4409 H4417 0.960 . S
C4410 C4408 1.381 . S
C4410 C4411 1.394 . S
C4410 H4418 0.930 . S
C4411 C4410 1.394 . S
C4411 C4412 1.383 . S
C4411 H4419 0.929 . S
C4412 C4411 1.383 . S
C4412 C4413 1.377 . S
C4413 H4397 0.930 . S
C4413 C4412 1.377 . S
C4413 C4414 1.379 . S
C4414 H4398 0.931 . S
C4414 C4408 1.383 . S
C4414 C4413 1.379 . S
H4415 C4409 0.959 . S
H4416 C4409 0.961 . S
H4417 C4409 0.960 . S
H4418 C4410 0.930 . S
H4419 C4411 0.929 . S
H4420 C4428 0.929 . S
H4421 C4430 0.930 . S
H4422 C4432 0.930 . S
H4423 C4435 0.929 . S
H4424 C4438 0.930 . S
H4425 C4440 0.960 . S
H4426 C4440 0.960 . S
H4427 C4440 0.960 . S
C4428 H4420 0.929 . S
C4428 C4429 1.377 . S
C4428 C4430 1.384 . S
C4429 C4428 1.377 . S
C4429 C4435 1.390 . S
C4430 H4421 0.930 . S
C4430 C4428 1.384 . S
C4430 C4431 1.372 . S
C4431 C4430 1.372 . S
C4431 C4432 1.400 . S
C4431 C4436 1.490 . S
C4432 H4422 0.930 . S
C4432 C4431 1.400 . S
C4432 C4435 1.386 . S
H4433 C4449 0.930 . S
H4434 C4450 0.931 . S
C4435 H4423 0.929 . S
C4435 C4429 1.390 . S
C4435 C4432 1.386 . S
C4436 C4431 1.490 . S
C4436 C4438 1.395 . S
C4436 C4439 1.403 . S
H4437 C4443 0.930 . S
C4438 H4424 0.930 . S
C4438 C4436 1.395 . S
C4438 C4441 1.403 . S
C4439 C4436 1.403 . S
C4439 C4440 1.524 . S
C4439 C4443 1.400 . S
C4440 H4425 0.960 . S
C4440 H4426 0.960 . S
C4440 H4427 0.960 . S
C4440 C4439 1.524 . S
C4441 C4438 1.403 . S
C4441 C4442 1.392 . S
C4441 C4445 1.495 . S
C4442 C4441 1.392 . S
C4442 C4443 1.385 . S
C4442 C4444 1.478 . S
C4443 H4437 0.930 . S
C4443 C4439 1.400 . S
C4443 C4442 1.385 . S
C4444 C4442 1.478 . S
C4444 C4446 1.381 . S
C4444 C4450 1.383 . S
C4445 C4441 1.495 . S
C4445 H4451 0.959 . S
C4445 H4452 0.961 . S
C4445 H4453 0.960 . S
C4446 C4444 1.381 . S
C4446 C4447 1.394 . S
C4446 H4454 0.930 . S
C4447 C4446 1.394 . S
C4447 C4448 1.383 . S
C4447 H4455 0.929 . S
C4448 C4447 1.383 . S
C4448 C4449 1.377 . S
C4449 H4433 0.930 . S
C4449 C4448 1.377 . S
C4449 C4450 1.379 . S
C4450 H4434 0.931 . S
C4450 C4444 1.383 . S
C4450 C4449 1.379 . S
H4451 C4445 0.959 . S
H4452 C4445 0.961 . S
H4453 C4445 0.960 . S
H4454 C4446 0.930 . S
H4455 C4447 0.929 . S
H4456 C4464 0.929 . S
H4457 C4466 0.930 . S
H4458 C4468 0.930 . S
H4459 C4471 0.929 . S
H4460 C4474 0.930 . S
H4461 C4476 0.960 . S
H4462 C4476 0.960 . S
H4463 C4476 0.960 . S
C4464 H4456 0.929 . S
C4464 C4465 1.377 . S
C4464 C4466 1.384 . S
C4465 C4464 1.377 . S
C4465 C4471 1.390 . S
C4466 H4457 0.930 . S
C4466 C4464 1.384 . S
C4466 C4467 1.372 . S
C4467 C4466 1.372 . S
C4467 C4468 1.400 . S
C4467 C4472 1.490 . S
C4468 H4458 0.930 . S
C4468 C4467 1.400 . S
C4468 C4471 1.386 . S
H4469 C4485 0.930 . S
H4470 C4486 0.931 . S
C4471 H4459 0.929 . S
C4471 C4465 1.390 . S
C4471 C4468 1.386 . S
C4472 C4467 1.490 . S
C4472 C4474 1.395 . S
C4472 C4475 1.403 . S
H4473 C4479 0.930 . S
C4474 H4460 0.930 . S
C4474 C4472 1.395 . S
C4474 C4477 1.403 . S
C4475 C4472 1.403 . S
C4475 C4476 1.524 . S
C4475 C4479 1.400 . S
C4476 H4461 0.960 . S
C4476 H4462 0.960 . S
C4476 H4463 0.960 . S
C4476 C4475 1.524 . S
C4477 C4474 1.403 . S
C4477 C4478 1.392 . S
C4477 C4481 1.495 . S
C4478 C4477 1.392 . S
C4478 C4479 1.385 . S
C4478 C4480 1.478 . S
C4479 H4473 0.930 . S
C4479 C4475 1.400 . S
C4479 C4478 1.385 . S
C4480 C4478 1.478 . S
C4480 C4482 1.381 . S
C4480 C4486 1.383 . S
C4481 C4477 1.495 . S
C4481 H4487 0.959 . S
C4481 H4488 0.961 . S
C4481 H4489 0.960 . S
C4482 C4480 1.381 . S
C4482 C4483 1.394 . S
C4482 H4490 0.930 . S
C4483 C4482 1.394 . S
C4483 C4484 1.383 . S
C4483 H4491 0.929 . S
C4484 C4483 1.383 . S
C4484 C4485 1.377 . S
C4485 H4469 0.930 . S
C4485 C4484 1.377 . S
C4485 C4486 1.379 . S
C4486 H4470 0.931 . S
C4486 C4480 1.383 . S
C4486 C4485 1.379 . S
H4487 C4481 0.959 . S
H4488 C4481 0.961 . S
H4489 C4481 0.960 . S
H4490 C4482 0.930 . S
H4491 C4483 0.929 . S
H4492 C4500 0.929 . S
H4493 C4502 0.930 . S
H4494 C4504 0.930 . S
H4495 C4507 0.929 . S
H4496 C4510 0.930 . S
H4497 C4512 0.960 . S
H4498 C4512 0.960 . S
H4499 C4512 0.960 . S
C4500 H4492 0.929 . S
C4500 C4501 1.377 . S
C4500 C4502 1.384 . S
C4501 C4500 1.377 . S
C4501 C4507 1.390 . S
C4502 H4493 0.930 . S
C4502 C4500 1.384 . S
C4502 C4503 1.372 . S
C4503 C4502 1.372 . S
C4503 C4504 1.400 . S
C4503 C4508 1.490 . S
C4504 H4494 0.930 . S
C4504 C4503 1.400 . S
C4504 C4507 1.386 . S
H4505 C4521 0.930 . S
H4506 C4522 0.931 . S
C4507 H4495 0.929 . S
C4507 C4501 1.390 . S
C4507 C4504 1.386 . S
C4508 C4503 1.490 . S
C4508 C4510 1.395 . S
C4508 C4511 1.403 . S
H4509 C4515 0.930 . S
C4510 H4496 0.930 . S
C4510 C4508 1.395 . S
C4510 C4513 1.403 . S
C4511 C4508 1.403 . S
C4511 C4512 1.524 . S
C4511 C4515 1.400 . S
C4512 H4497 0.960 . S
C4512 H4498 0.960 . S
C4512 H4499 0.960 . S
C4512 C4511 1.524 . S
C4513 C4510 1.403 . S
C4513 C4514 1.392 . S
C4513 C4517 1.495 . S
C4514 C4513 1.392 . S
C4514 C4515 1.385 . S
C4514 C4516 1.478 . S
C4515 H4509 0.930 . S
C4515 C4511 1.400 . S
C4515 C4514 1.385 . S
C4516 C4514 1.478 . S
C4516 C4518 1.381 . S
C4516 C4522 1.383 . S
C4517 C4513 1.495 . S
C4517 H4523 0.959 . S
C4517 H4524 0.961 . S
C4517 H4525 0.960 . S
C4518 C4516 1.381 . S
C4518 C4519 1.394 . S
C4518 H4526 0.930 . S
C4519 C4518 1.394 . S
C4519 C4520 1.383 . S
C4519 H4527 0.929 . S
C4520 C4519 1.383 . S
C4520 C4521 1.377 . S
C4521 H4505 0.930 . S
C4521 C4520 1.377 . S
C4521 C4522 1.379 . S
C4522 H4506 0.931 . S
C4522 C4516 1.383 . S
C4522 C4521 1.379 . S
H4523 C4517 0.959 . S
H4524 C4517 0.961 . S
H4525 C4517 0.960 . S
H4526 C4518 0.930 . S
H4527 C4519 0.929 . S
H4528 C4536 0.929 . S
H4529 C4538 0.930 . S
H4530 C4540 0.930 . S
H4531 C4543 0.929 . S
H4532 C4546 0.930 . S
H4533 C4548 0.960 . S
H4534 C4548 0.960 . S
H4535 C4548 0.960 . S
C4536 H4528 0.929 . S
C4536 C4537 1.377 . S
C4536 C4538 1.384 . S
C4537 C4536 1.377 . S
C4537 C4543 1.390 . S
C4538 H4529 0.930 . S
C4538 C4536 1.384 . S
C4538 C4539 1.372 . S
C4539 C4538 1.372 . S
C4539 C4540 1.400 . S
C4539 C4544 1.490 . S
C4540 H4530 0.930 . S
C4540 C4539 1.400 . S
C4540 C4543 1.386 . S
H4541 C4557 0.930 . S
H4542 C4558 0.931 . S
C4543 H4531 0.929 . S
C4543 C4537 1.390 . S
C4543 C4540 1.386 . S
C4544 C4539 1.490 . S
C4544 C4546 1.395 . S
C4544 C4547 1.403 . S
H4545 C4551 0.930 . S
C4546 H4532 0.930 . S
C4546 C4544 1.395 . S
C4546 C4549 1.403 . S
C4547 C4544 1.403 . S
C4547 C4548 1.524 . S
C4547 C4551 1.400 . S
C4548 H4533 0.960 . S
C4548 H4534 0.960 . S
C4548 H4535 0.960 . S
C4548 C4547 1.524 . S
C4549 C4546 1.403 . S
C4549 C4550 1.392 . S
C4549 C4553 1.495 . S
C4550 C4549 1.392 . S
C4550 C4551 1.385 . S
C4550 C4552 1.478 . S
C4551 H4545 0.930 . S
C4551 C4547 1.400 . S
C4551 C4550 1.385 . S
C4552 C4550 1.478 . S
C4552 C4554 1.381 . S
C4552 C4558 1.383 . S
C4553 C4549 1.495 . S
C4553 H4559 0.959 . S
C4553 H4560 0.961 . S
C4553 H4561 0.960 . S
C4554 C4552 1.381 . S
C4554 C4555 1.394 . S
C4554 H4562 0.930 . S
C4555 C4554 1.394 . S
C4555 C4556 1.383 . S
C4555 H4563 0.929 . S
C4556 C4555 1.383 . S
C4556 C4557 1.377 . S
C4557 H4541 0.930 . S
C4557 C4556 1.377 . S
C4557 C4558 1.379 . S
C4558 H4542 0.931 . S
C4558 C4552 1.383 . S
C4558 C4557 1.379 . S
H4559 C4553 0.959 . S
H4560 C4553 0.961 . S
H4561 C4553 0.960 . S
H4562 C4554 0.930 . S
H4563 C4555 0.929 . S
H4564 C4572 0.929 . S
H4565 C4574 0.930 . S
H4566 C4576 0.930 . S
H4567 C4579 0.929 . S
H4568 C4582 0.930 . S
H4569 C4584 0.960 . S
H4570 C4584 0.960 . S
H4571 C4584 0.960 . S
C4572 H4564 0.929 . S
C4572 C4573 1.377 . S
C4572 C4574 1.384 . S
C4573 C4572 1.377 . S
C4573 C4579 1.390 . S
C4574 H4565 0.930 . S
C4574 C4572 1.384 . S
C4574 C4575 1.372 . S
C4575 C4574 1.372 . S
C4575 C4576 1.400 . S
C4575 C4580 1.490 . S
C4576 H4566 0.930 . S
C4576 C4575 1.400 . S
C4576 C4579 1.386 . S
H4577 C4593 0.930 . S
H4578 C4594 0.931 . S
C4579 H4567 0.929 . S
C4579 C4573 1.390 . S
C4579 C4576 1.386 . S
C4580 C4575 1.490 . S
C4580 C4582 1.395 . S
C4580 C4583 1.403 . S
H4581 C4587 0.930 . S
C4582 H4568 0.930 . S
C4582 C4580 1.395 . S
C4582 C4585 1.403 . S
C4583 C4580 1.403 . S
C4583 C4584 1.524 . S
C4583 C4587 1.400 . S
C4584 H4569 0.960 . S
C4584 H4570 0.960 . S
C4584 H4571 0.960 . S
C4584 C4583 1.524 . S
C4585 C4582 1.403 . S
C4585 C4586 1.392 . S
C4585 C4589 1.495 . S
C4586 C4585 1.392 . S
C4586 C4587 1.385 . S
C4586 C4588 1.478 . S
C4587 H4581 0.930 . S
C4587 C4583 1.400 . S
C4587 C4586 1.385 . S
C4588 C4586 1.478 . S
C4588 C4590 1.381 . S
C4588 C4594 1.383 . S
C4589 C4585 1.495 . S
C4589 H4595 0.959 . S
C4589 H4596 0.961 . S
C4589 H4597 0.960 . S
C4590 C4588 1.381 . S
C4590 C4591 1.394 . S
C4590 H4598 0.930 . S
C4591 C4590 1.394 . S
C4591 C4592 1.383 . S
C4591 H4599 0.929 . S
C4592 C4591 1.383 . S
C4592 C4593 1.377 . S
C4593 H4577 0.930 . S
C4593 C4592 1.377 . S
C4593 C4594 1.379 . S
C4594 H4578 0.931 . S
C4594 C4588 1.383 . S
C4594 C4593 1.379 . S
H4595 C4589 0.959 . S
H4596 C4589 0.961 . S
H4597 C4589 0.960 . S
H4598 C4590 0.930 . S
H4599 C4591 0.929 . S
H4600 C4608 0.929 . S
H4601 C4610 0.930 . S
H4602 C4612 0.930 . S
H4603 C4615 0.929 . S
H4604 C4618 0.930 . S
H4605 C4620 0.960 . S
H4606 C4620 0.960 . S
H4607 C4620 0.960 . S
C4608 H4600 0.929 . S
C4608 C4609 1.377 . S
C4608 C4610 1.384 . S
C4609 C4608 1.377 . S
C4609 C4615 1.390 . S
C4610 H4601 0.930 . S
C4610 C4608 1.384 . S
C4610 C4611 1.372 . S
C4611 C4610 1.372 . S
C4611 C4612 1.400 . S
C4611 C4616 1.490 . S
C4612 H4602 0.930 . S
C4612 C4611 1.400 . S
C4612 C4615 1.386 . S
H4613 C4629 0.930 . S
H4614 C4630 0.931 . S
C4615 H4603 0.929 . S
C4615 C4609 1.390 . S
C4615 C4612 1.386 . S
C4616 C4611 1.490 . S
C4616 C4618 1.395 . S
C4616 C4619 1.403 . S
H4617 C4623 0.930 . S
C4618 H4604 0.930 . S
C4618 C4616 1.395 . S
C4618 C4621 1.403 . S
C4619 C4616 1.403 . S
C4619 C4620 1.524 . S
C4619 C4623 1.400 . S
C4620 H4605 0.960 . S
C4620 H4606 0.960 . S
C4620 H4607 0.960 . S
C4620 C4619 1.524 . S
C4621 C4618 1.403 . S
C4621 C4622 1.392 . S
C4621 C4625 1.495 . S
C4622 C4621 1.392 . S
C4622 C4623 1.385 . S
C4622 C4624 1.478 . S
C4623 H4617 0.930 . S
C4623 C4619 1.400 . S
C4623 C4622 1.385 . S
C4624 C4622 1.478 . S
C4624 C4626 1.381 . S
C4624 C4630 1.383 . S
C4625 C4621 1.495 . S
C4625 H4631 0.959 . S
C4625 H4632 0.961 . S
C4625 H4633 0.960 . S
C4626 C4624 1.381 . S
C4626 C4627 1.394 . S
C4626 H4634 0.930 . S
C4627 C4626 1.394 . S
C4627 C4628 1.383 . S
C4627 H4635 0.929 . S
C4628 C4627 1.383 . S
C4628 C4629 1.377 . S
C4629 H4613 0.930 . S
C4629 C4628 1.377 . S
C4629 C4630 1.379 . S
C4630 H4614 0.931 . S
C4630 C4624 1.383 . S
C4630 C4629 1.379 . S
H4631 C4625 0.959 . S
H4632 C4625 0.961 . S
H4633 C4625 0.960 . S
H4634 C4626 0.930 . S
H4635 C4627 0.929 . S
H4636 C4644 0.929 . S
H4637 C4646 0.930 . S
H4638 C4648 0.930 . S
H4639 C4651 0.929 . S
H4640 C4654 0.930 . S
H4641 C4656 0.960 . S
H4642 C4656 0.960 . S
H4643 C4656 0.960 . S
C4644 H4636 0.929 . S
C4644 C4645 1.377 . S
C4644 C4646 1.384 . S
C4645 C4644 1.377 . S
C4645 C4651 1.390 . S
C4646 H4637 0.930 . S
C4646 C4644 1.384 . S
C4646 C4647 1.372 . S
C4647 C4646 1.372 . S
C4647 C4648 1.400 . S
C4647 C4652 1.490 . S
C4648 H4638 0.930 . S
C4648 C4647 1.400 . S
C4648 C4651 1.386 . S
H4649 C4665 0.930 . S
H4650 C4666 0.931 . S
C4651 H4639 0.929 . S
C4651 C4645 1.390 . S
C4651 C4648 1.386 . S
C4652 C4647 1.490 . S
C4652 C4654 1.395 . S
C4652 C4655 1.403 . S
H4653 C4659 0.930 . S
C4654 H4640 0.930 . S
C4654 C4652 1.395 . S
C4654 C4657 1.403 . S
C4655 C4652 1.403 . S
C4655 C4656 1.524 . S
C4655 C4659 1.400 . S
C4656 H4641 0.960 . S
C4656 H4642 0.960 . S
C4656 H4643 0.960 . S
C4656 C4655 1.524 . S
C4657 C4654 1.403 . S
C4657 C4658 1.392 . S
C4657 C4661 1.495 . S
C4658 C4657 1.392 . S
C4658 C4659 1.385 . S
C4658 C4660 1.478 . S
C4659 H4653 0.930 . S
C4659 C4655 1.400 . S
C4659 C4658 1.385 . S
C4660 C4658 1.478 . S
C4660 C4662 1.381 . S
C4660 C4666 1.383 . S
C4661 C4657 1.495 . S
C4661 H4667 0.959 . S
C4661 H4668 0.961 . S
C4661 H4669 0.960 . S
C4662 C4660 1.381 . S
C4662 C4663 1.394 . S
C4662 H4670 0.930 . S
C4663 C4662 1.394 . S
C4663 C4664 1.383 . S
C4663 H4671 0.929 . S
C4664 C4663 1.383 . S
C4664 C4665 1.377 . S
C4665 H4649 0.930 . S
C4665 C4664 1.377 . S
C4665 C4666 1.379 . S
C4666 H4650 0.931 . S
C4666 C4660 1.383 . S
C4666 C4665 1.379 . S
H4667 C4661 0.959 . S
H4668 C4661 0.961 . S
H4669 C4661 0.960 . S
H4670 C4662 0.930 . S
H4671 C4663 0.929 . S
H4672 C4680 0.929 . S
H4673 C4682 0.930 . S
H4674 C4684 0.930 . S
H4675 C4687 0.929 . S
H4676 C4690 0.930 . S
H4677 C4692 0.960 . S
H4678 C4692 0.960 . S
H4679 C4692 0.960 . S
C4680 H4672 0.929 . S
C4680 C4681 1.377 . S
C4680 C4682 1.384 . S
C4681 C4680 1.377 . S
C4681 C4687 1.390 . S
C4682 H4673 0.930 . S
C4682 C4680 1.384 . S
C4682 C4683 1.372 . S
C4683 C4682 1.372 . S
C4683 C4684 1.400 . S
C4683 C4688 1.490 . S
C4684 H4674 0.930 . S
C4684 C4683 1.400 . S
C4684 C4687 1.386 . S
H4685 C4701 0.930 . S
H4686 C4702 0.931 . S
C4687 H4675 0.929 . S
C4687 C4681 1.390 . S
C4687 C4684 1.386 . S
C4688 C4683 1.490 . S
C4688 C4690 1.395 . S
C4688 C4691 1.403 . S
H4689 C4695 0.930 . S
C4690 H4676 0.930 . S
C4690 C4688 1.395 . S
C4690 C4693 1.403 . S
C4691 C4688 1.403 . S
C4691 C4692 1.524 . S
C4691 C4695 1.400 . S
C4692 H4677 0.960 . S
C4692 H4678 0.960 . S
C4692 H4679 0.960 . S
C4692 C4691 1.524 . S
C4693 C4690 1.403 . S
C4693 C4694 1.392 . S
C4693 C4697 1.495 . S
C4694 C4693 1.392 . S
C4694 C4695 1.385 . S
C4694 C4696 1.478 . S
C4695 H4689 0.930 . S
C4695 C4691 1.400 . S
C4695 C4694 1.385 . S
C4696 C4694 1.478 . S
C4696 C4698 1.381 . S
C4696 C4702 1.383 . S
C4697 C4693 1.495 . S
C4697 H4703 0.959 . S
C4697 H4704 0.961 . S
C4697 H4705 0.960 . S
C4698 C4696 1.381 . S
C4698 C4699 1.394 . S
C4698 H4706 0.930 . S
C4699 C4698 1.394 . S
C4699 C4700 1.383 . S
C4699 H4707 0.929 . S
C4700 C4699 1.383 . S
C4700 C4701 1.377 . S
C4701 H4685 0.930 . S
C4701 C4700 1.377 . S
C4701 C4702 1.379 . S
C4702 H4686 0.931 . S
C4702 C4696 1.383 . S
C4702 C4701 1.379 . S
H4703 C4697 0.959 . S
H4704 C4697 0.961 . S
H4705 C4697 0.960 . S
H4706 C4698 0.930 . S
H4707 C4699 0.929 . S
H4708 C4716 0.929 . S
H4709 C4718 0.930 . S
H4710 C4720 0.930 . S
H4711 C4723 0.929 . S
H4712 C4726 0.930 . S
H4713 C4728 0.960 . S
H4714 C4728 0.960 . S
H4715 C4728 0.960 . S
C4716 H4708 0.929 . S
C4716 C4717 1.377 . S
C4716 C4718 1.384 . S
C4717 C4716 1.377 . S
C4717 C4723 1.390 . S
C4718 H4709 0.930 . S
C4718 C4716 1.384 . S
C4718 C4719 1.372 . S
C4719 C4718 1.372 . S
C4719 C4720 1.400 . S
C4719 C4724 1.490 . S
C4720 H4710 0.930 . S
C4720 C4719 1.400 . S
C4720 C4723 1.386 . S
H4721 C4737 0.930 . S
H4722 C4738 0.931 . S
C4723 H4711 0.929 . S
C4723 C4717 1.390 . S
C4723 C4720 1.386 . S
C4724 C4719 1.490 . S
C4724 C4726 1.395 . S
C4724 C4727 1.403 . S
H4725 C4731 0.930 . S
C4726 H4712 0.930 . S
C4726 C4724 1.395 . S
C4726 C4729 1.403 . S
C4727 C4724 1.403 . S
C4727 C4728 1.524 . S
C4727 C4731 1.400 . S
C4728 H4713 0.960 . S
C4728 H4714 0.960 . S
C4728 H4715 0.960 . S
C4728 C4727 1.524 . S
C4729 C4726 1.403 . S
C4729 C4730 1.392 . S
C4729 C4733 1.495 1_565 S
C4730 C4729 1.392 . S
C4730 C4731 1.385 . S
C4730 C4732 1.478 . S
C4731 H4725 0.930 . S
C4731 C4727 1.400 . S
C4731 C4730 1.385 . S
C4732 C4730 1.478 . S
C4732 C4734 1.381 . S
C4732 C4738 1.383 . S
C4733 C4729 1.495 1_545 S
C4733 H4739 0.959 . S
C4733 H4740 0.961 . S
C4733 H4741 0.960 . S
C4734 C4732 1.381 . S
C4734 C4735 1.394 . S
C4734 H4742 0.930 . S
C4735 C4734 1.394 . S
C4735 C4736 1.383 . S
C4735 H4743 0.929 . S
C4736 C4735 1.383 . S
C4736 C4737 1.377 . S
C4737 H4721 0.930 . S
C4737 C4736 1.377 . S
C4737 C4738 1.379 . S
C4738 H4722 0.931 . S
C4738 C4732 1.383 . S
C4738 C4737 1.379 . S
H4739 C4733 0.959 . S
H4740 C4733 0.961 . S
H4741 C4733 0.960 . S
H4742 C4734 0.930 . S
H4743 C4735 0.929 . S
H4744 C4752 0.929 . S
H4745 C4754 0.930 . S
H4746 C4756 0.930 . S
H4747 C4759 0.929 . S
H4748 C4762 0.930 . S
H4749 C4764 0.960 . S
H4750 C4764 0.960 . S
H4751 C4764 0.960 . S
C4752 H4744 0.929 . S
C4752 C4753 1.377 . S
C4752 C4754 1.384 . S
C4753 C4752 1.377 . S
C4753 C4759 1.390 . S
C4754 H4745 0.930 . S
C4754 C4752 1.384 . S
C4754 C4755 1.372 . S
C4755 C4754 1.372 . S
C4755 C4756 1.400 . S
C4755 C4760 1.490 . S
C4756 H4746 0.930 . S
C4756 C4755 1.400 . S
C4756 C4759 1.386 . S
H4757 C4773 0.930 . S
H4758 C4774 0.931 . S
C4759 H4747 0.929 . S
C4759 C4753 1.390 . S
C4759 C4756 1.386 . S
C4760 C4755 1.490 . S
C4760 C4762 1.395 . S
C4760 C4763 1.403 . S
H4761 C4767 0.930 . S
C4762 H4748 0.930 . S
C4762 C4760 1.395 . S
C4762 C4765 1.403 . S
C4763 C4760 1.403 . S
C4763 C4764 1.524 . S
C4763 C4767 1.400 . S
C4764 H4749 0.960 . S
C4764 H4750 0.960 . S
C4764 H4751 0.960 . S
C4764 C4763 1.524 . S
C4765 C4762 1.403 . S
C4765 C4766 1.392 . S
C4765 C4769 1.495 . S
C4766 C4765 1.392 . S
C4766 C4767 1.385 . S
C4766 C4768 1.478 . S
C4767 H4761 0.930 . S
C4767 C4763 1.400 . S
C4767 C4766 1.385 . S
C4768 C4766 1.478 . S
C4768 C4770 1.381 . S
C4768 C4774 1.383 . S
C4769 C4765 1.495 . S
C4769 H4775 0.959 . S
C4769 H4776 0.961 . S
C4769 H4777 0.960 . S
C4770 C4768 1.381 . S
C4770 C4771 1.394 . S
C4770 H4778 0.930 . S
C4771 C4770 1.394 . S
C4771 C4772 1.383 . S
C4771 H4779 0.929 . S
C4772 C4771 1.383 . S
C4772 C4773 1.377 . S
C4773 H4757 0.930 . S
C4773 C4772 1.377 . S
C4773 C4774 1.379 . S
C4774 H4758 0.931 . S
C4774 C4768 1.383 . S
C4774 C4773 1.379 . S
H4775 C4769 0.959 . S
H4776 C4769 0.961 . S
H4777 C4769 0.960 . S
H4778 C4770 0.930 . S
H4779 C4771 0.929 . S
H4780 C4788 0.929 . S
H4781 C4790 0.930 . S
H4782 C4792 0.930 . S
H4783 C4795 0.929 . S
H4784 C4798 0.930 . S
H4785 C4800 0.960 . S
H4786 C4800 0.960 . S
H4787 C4800 0.960 . S
C4788 H4780 0.929 . S
C4788 C4789 1.377 . S
C4788 C4790 1.384 . S
C4789 C4788 1.377 . S
C4789 C4795 1.390 . S
C4790 H4781 0.930 . S
C4790 C4788 1.384 . S
C4790 C4791 1.372 . S
C4791 C4790 1.372 . S
C4791 C4792 1.400 . S
C4791 C4796 1.490 . S
C4792 H4782 0.930 . S
C4792 C4791 1.400 . S
C4792 C4795 1.386 . S
H4793 C4809 0.930 . S
H4794 C4810 0.931 . S
C4795 H4783 0.929 . S
C4795 C4789 1.390 . S
C4795 C4792 1.386 . S
C4796 C4791 1.490 . S
C4796 C4798 1.395 . S
C4796 C4799 1.403 . S
H4797 C4803 0.930 . S
C4798 H4784 0.930 . S
C4798 C4796 1.395 . S
C4798 C4801 1.403 . S
C4799 C4796 1.403 . S
C4799 C4800 1.524 . S
C4799 C4803 1.400 . S
C4800 H4785 0.960 . S
C4800 H4786 0.960 . S
C4800 H4787 0.960 . S
C4800 C4799 1.524 . S
C4801 C4798 1.403 . S
C4801 C4802 1.392 . S
C4801 C4805 1.495 . S
C4802 C4801 1.392 . S
C4802 C4803 1.385 . S
C4802 C4804 1.478 . S
C4803 H4797 0.930 . S
C4803 C4799 1.400 . S
C4803 C4802 1.385 . S
C4804 C4802 1.478 . S
C4804 C4806 1.381 . S
C4804 C4810 1.383 . S
C4805 C4801 1.495 . S
C4805 H4811 0.959 . S
C4805 H4812 0.961 . S
C4805 H4813 0.960 . S
C4806 C4804 1.381 . S
C4806 C4807 1.394 . S
C4806 H4814 0.930 . S
C4807 C4806 1.394 . S
C4807 C4808 1.383 . S
C4807 H4815 0.929 . S
C4808 C4807 1.383 . S
C4808 C4809 1.377 . S
C4809 H4793 0.930 . S
C4809 C4808 1.377 . S
C4809 C4810 1.379 . S
C4810 H4794 0.931 . S
C4810 C4804 1.383 . S
C4810 C4809 1.379 . S
H4811 C4805 0.959 . S
H4812 C4805 0.961 . S
H4813 C4805 0.960 . S
H4814 C4806 0.930 . S
H4815 C4807 0.929 . S
H4816 C4824 0.929 . S
H4817 C4826 0.930 . S
H4818 C4828 0.930 . S
H4819 C4831 0.929 . S
H4820 C4834 0.930 . S
H4821 C4836 0.960 . S
H4822 C4836 0.960 . S
H4823 C4836 0.960 . S
C4824 H4816 0.929 . S
C4824 C4825 1.377 . S
C4824 C4826 1.384 . S
C4825 C4824 1.377 . S
C4825 C4831 1.390 . S
C4826 H4817 0.930 . S
C4826 C4824 1.384 . S
C4826 C4827 1.372 . S
C4827 C4826 1.372 . S
C4827 C4828 1.400 . S
C4827 C4832 1.490 . S
C4828 H4818 0.930 . S
C4828 C4827 1.400 . S
C4828 C4831 1.386 . S
H4829 C4845 0.930 . S
H4830 C4846 0.931 . S
C4831 H4819 0.929 . S
C4831 C4825 1.390 . S
C4831 C4828 1.386 . S
C4832 C4827 1.490 . S
C4832 C4834 1.395 . S
C4832 C4835 1.403 . S
H4833 C4839 0.930 . S
C4834 H4820 0.930 . S
C4834 C4832 1.395 . S
C4834 C4837 1.403 . S
C4835 C4832 1.403 . S
C4835 C4836 1.524 . S
C4835 C4839 1.400 . S
C4836 H4821 0.960 . S
C4836 H4822 0.960 . S
C4836 H4823 0.960 . S
C4836 C4835 1.524 . S
C4837 C4834 1.403 . S
C4837 C4838 1.392 . S
C4837 C4841 1.495 . S
C4838 C4837 1.392 . S
C4838 C4839 1.385 . S
C4838 C4840 1.478 . S
C4839 H4833 0.930 . S
C4839 C4835 1.400 . S
C4839 C4838 1.385 . S
C4840 C4838 1.478 . S
C4840 C4842 1.381 . S
C4840 C4846 1.383 . S
C4841 C4837 1.495 . S
C4841 H4847 0.959 . S
C4841 H4848 0.961 . S
C4841 H4849 0.960 . S
C4842 C4840 1.381 . S
C4842 C4843 1.394 . S
C4842 H4850 0.930 . S
C4843 C4842 1.394 . S
C4843 C4844 1.383 . S
C4843 H4851 0.929 . S
C4844 C4843 1.383 . S
C4844 C4845 1.377 . S
C4845 H4829 0.930 . S
C4845 C4844 1.377 . S
C4845 C4846 1.379 . S
C4846 H4830 0.931 . S
C4846 C4840 1.383 . S
C4846 C4845 1.379 . S
H4847 C4841 0.959 . S
H4848 C4841 0.961 . S
H4849 C4841 0.960 . S
H4850 C4842 0.930 . S
H4851 C4843 0.929 . S
H4852 C4860 0.929 . S
H4853 C4862 0.930 . S
H4854 C4864 0.930 . S
H4855 C4867 0.929 . S
H4856 C4870 0.930 . S
H4857 C4872 0.960 . S
H4858 C4872 0.960 . S
H4859 C4872 0.960 . S
C4860 H4852 0.929 . S
C4860 C4861 1.377 . S
C4860 C4862 1.384 . S
C4861 C4860 1.377 . S
C4861 C4867 1.390 . S
C4862 H4853 0.930 . S
C4862 C4860 1.384 . S
C4862 C4863 1.372 . S
C4863 C4862 1.372 . S
C4863 C4864 1.400 . S
C4863 C4868 1.490 . S
C4864 H4854 0.930 . S
C4864 C4863 1.400 . S
C4864 C4867 1.386 . S
H4865 C4881 0.930 . S
H4866 C4882 0.931 . S
C4867 H4855 0.929 . S
C4867 C4861 1.390 . S
C4867 C4864 1.386 . S
C4868 C4863 1.490 . S
C4868 C4870 1.395 . S
C4868 C4871 1.403 . S
H4869 C4875 0.930 . S
C4870 H4856 0.930 . S
C4870 C4868 1.395 . S
C4870 C4873 1.403 . S
C4871 C4868 1.403 . S
C4871 C4872 1.524 . S
C4871 C4875 1.400 . S
C4872 H4857 0.960 . S
C4872 H4858 0.960 . S
C4872 H4859 0.960 . S
C4872 C4871 1.524 . S
C4873 C4870 1.403 . S
C4873 C4874 1.392 . S
C4873 C4877 1.495 . S
C4874 C4873 1.392 . S
C4874 C4875 1.385 . S
C4874 C4876 1.478 . S
C4875 H4869 0.930 . S
C4875 C4871 1.400 . S
C4875 C4874 1.385 . S
C4876 C4874 1.478 . S
C4876 C4878 1.381 . S
C4876 C4882 1.383 . S
C4877 C4873 1.495 . S
C4877 H4883 0.959 . S
C4877 H4884 0.961 . S
C4877 H4885 0.960 . S
C4878 C4876 1.381 . S
C4878 C4879 1.394 . S
C4878 H4886 0.930 . S
C4879 C4878 1.394 . S
C4879 C4880 1.383 . S
C4879 H4887 0.929 . S
C4880 C4879 1.383 . S
C4880 C4881 1.377 . S
C4881 H4865 0.930 . S
C4881 C4880 1.377 . S
C4881 C4882 1.379 . S
C4882 H4866 0.931 . S
C4882 C4876 1.383 . S
C4882 C4881 1.379 . S
H4883 C4877 0.959 . S
H4884 C4877 0.961 . S
H4885 C4877 0.960 . S
H4886 C4878 0.930 . S
H4887 C4879 0.929 . S
H4888 C4896 0.929 . S
H4889 C4898 0.930 . S
H4890 C4900 0.930 . S
H4891 C4903 0.929 . S
H4892 C4906 0.930 . S
H4893 C4908 0.960 . S
H4894 C4908 0.960 . S
H4895 C4908 0.960 . S
C4896 H4888 0.929 . S
C4896 C4897 1.377 . S
C4896 C4898 1.384 . S
C4897 C4896 1.377 . S
C4897 C4903 1.390 . S
C4898 H4889 0.930 . S
C4898 C4896 1.384 . S
C4898 C4899 1.372 . S
C4899 C4898 1.372 . S
C4899 C4900 1.400 . S
C4899 C4904 1.490 . S
C4900 H4890 0.930 . S
C4900 C4899 1.400 . S
C4900 C4903 1.386 . S
H4901 C4917 0.930 . S
H4902 C4918 0.931 . S
C4903 H4891 0.929 . S
C4903 C4897 1.390 . S
C4903 C4900 1.386 . S
C4904 C4899 1.490 . S
C4904 C4906 1.395 . S
C4904 C4907 1.403 . S
H4905 C4911 0.930 . S
C4906 H4892 0.930 . S
C4906 C4904 1.395 . S
C4906 C4909 1.403 . S
C4907 C4904 1.403 . S
C4907 C4908 1.524 . S
C4907 C4911 1.400 . S
C4908 H4893 0.960 . S
C4908 H4894 0.960 . S
C4908 H4895 0.960 . S
C4908 C4907 1.524 . S
C4909 C4906 1.403 . S
C4909 C4910 1.392 . S
C4909 C4913 1.495 . S
C4910 C4909 1.392 . S
C4910 C4911 1.385 . S
C4910 C4912 1.478 . S
C4911 H4905 0.930 . S
C4911 C4907 1.400 . S
C4911 C4910 1.385 . S
C4912 C4910 1.478 . S
C4912 C4914 1.381 . S
C4912 C4918 1.383 . S
C4913 C4909 1.495 . S
C4913 H4919 0.959 . S
C4913 H4920 0.961 . S
C4913 H4921 0.960 . S
C4914 C4912 1.381 . S
C4914 C4915 1.394 . S
C4914 H4922 0.930 . S
C4915 C4914 1.394 . S
C4915 C4916 1.383 . S
C4915 H4923 0.929 . S
C4916 C4915 1.383 . S
C4916 C4917 1.377 . S
C4917 H4901 0.930 . S
C4917 C4916 1.377 . S
C4917 C4918 1.379 . S
C4918 H4902 0.931 . S
C4918 C4912 1.383 . S
C4918 C4917 1.379 . S
H4919 C4913 0.959 . S
H4920 C4913 0.961 . S
H4921 C4913 0.960 . S
H4922 C4914 0.930 . S
H4923 C4915 0.929 . S
H4924 C4932 0.929 . S
H4925 C4934 0.930 . S
H4926 C4936 0.930 . S
H4927 C4939 0.929 . S
H4928 C4942 0.930 . S
H4929 C4944 0.960 . S
H4930 C4944 0.960 . S
H4931 C4944 0.960 . S
C4932 H4924 0.929 . S
C4932 C4933 1.377 . S
C4932 C4934 1.384 . S
C4933 C4932 1.377 . S
C4933 C4939 1.390 . S
C4934 H4925 0.930 . S
C4934 C4932 1.384 . S
C4934 C4935 1.372 . S
C4935 C4934 1.372 . S
C4935 C4936 1.400 . S
C4935 C4940 1.490 . S
C4936 H4926 0.930 . S
C4936 C4935 1.400 . S
C4936 C4939 1.386 . S
H4937 C4953 0.930 . S
H4938 C4954 0.931 . S
C4939 H4927 0.929 . S
C4939 C4933 1.390 . S
C4939 C4936 1.386 . S
C4940 C4935 1.490 . S
C4940 C4942 1.395 . S
C4940 C4943 1.403 . S
H4941 C4947 0.930 . S
C4942 H4928 0.930 . S
C4942 C4940 1.395 . S
C4942 C4945 1.403 . S
C4943 C4940 1.403 . S
C4943 C4944 1.524 . S
C4943 C4947 1.400 . S
C4944 H4929 0.960 . S
C4944 H4930 0.960 . S
C4944 H4931 0.960 . S
C4944 C4943 1.524 . S
C4945 C4942 1.403 . S
C4945 C4946 1.392 . S
C4945 C4949 1.495 . S
C4946 C4945 1.392 . S
C4946 C4947 1.385 . S
C4946 C4948 1.478 . S
C4947 H4941 0.930 . S
C4947 C4943 1.400 . S
C4947 C4946 1.385 . S
C4948 C4946 1.478 . S
C4948 C4950 1.381 . S
C4948 C4954 1.383 . S
C4949 C4945 1.495 . S
C4949 H4955 0.959 . S
C4949 H4956 0.961 . S
C4949 H4957 0.960 . S
C4950 C4948 1.381 . S
C4950 C4951 1.394 . S
C4950 H4958 0.930 . S
C4951 C4950 1.394 . S
C4951 C4952 1.383 . S
C4951 H4959 0.929 . S
C4952 C4951 1.383 . S
C4952 C4953 1.377 . S
C4953 H4937 0.930 . S
C4953 C4952 1.377 . S
C4953 C4954 1.379 . S
C4954 H4938 0.931 . S
C4954 C4948 1.383 . S
C4954 C4953 1.379 . S
H4955 C4949 0.959 . S
H4956 C4949 0.961 . S
H4957 C4949 0.960 . S
H4958 C4950 0.930 . S
H4959 C4951 0.929 . S
C937 C129 0.923 . S
C956 C13 0.885 . S
C973 C854 0.942 . S
C992 C42 0.915 . S
C1009 C419 0.924 . S
C1028 C71 0.943 . S
C1045 C100 0.939 . S
C1064 C680 0.989 . S
C1081 C738 0.926 . S
C1100 C158 0.876 . S
C1117 C187 0.946 . S
C1136 C303 0.967 . S
C1153 C216 0.944 . S
C1172 C564 0.980 . S
C1189 C245 0.923 . S
C1208 C361 0.890 . S
C1225 C622 0.946 . S
C1244 C274 0.956 . S
C1261 C912 0.929 . S
C1280 C332 0.966 . S
C1297 C506 0.944 . S
C1316 C390 0.984 . S
C1333 C796 0.935 . S
C1352 C448 0.984 . S
C1369 C593 0.937 . S
C1388 C477 0.890 . S
C1405 C883 0.946 . S
C1424 C535 0.961 . S
C1441 C651 0.943 . S
C1460 C767 0.924 . S
C1477 C709 0.932 . S
C1496 C825 0.979 . S
C1513 C5 1.975 . S
C1532 C189 1.964 . S
C1549 C34 1.977 1_545 S
C1568 C914 1.956 . S
C1585 C363 1.975 . S
C1604 C63 1.976 1_545 S
C1621 C624 1.970 . S
C1640 C92 1.973 . S
C1657 C73 1.973 . S
C1676 C121 1.972 . S
C1693 C150 1.978 1_565 S
C1712 C798 1.979 . S
C1729 C179 1.975 1_565 S
C1748 C247 1.962 . S
C1765 C208 1.975 . S
C1784 C508 1.957 . S
C1801 C237 1.975 . S
C1820 C421 1.966 . S
C1837 C266 1.974 . S
C1856 C682 1.973 . S
C1873 C131 1.971 . S
C1892 C295 1.966 . S
C1909 C324 1.977 . S
C1928 C856 1.980 . S
C1945 C353 1.979 . S
C1964 C305 1.980 . S
C1981 C382 1.976 . S
C2000 C566 1.959 . S
C2017 C411 1.978 . S
C2036 C15 1.971 . S
C2053 C440 1.979 . S
C2072 C740 1.980 . S
C2089 C653 1.973 . S
C2108 C469 1.983 . S
C2125 C498 1.977 1_545 S
C2144 C450 1.979 . S
C2161 C827 1.971 . S
C2180 C527 1.967 1_545 S
C2197 C160 1.971 . S
C2216 C556 1.984 . S
C2233 C585 1.977 . S
C2252 C537 1.975 . S
C2269 C334 1.972 . S
C2288 C614 1.969 1_565 S
C2305 C711 1.973 . S
C2324 C643 1.981 1_565 S
C2341 C44 1.970 . S
C2360 C672 1.962 . S
C2377 C885 1.971 . S
C2396 C701 1.966 . S
C2413 C730 1.977 . S
C2432 C218 1.980 . S
C2449 C595 1.970 . S
C2468 C759 1.973 . S
C2485 C392 1.971 . S
C2504 C788 1.966 . S
C2521 C769 1.973 . S
C2540 C817 1.971 . S
C2557 C102 1.970 . S
C2576 C846 1.964 . S
C2593 C875 1.974 . S
C2612 C479 1.958 . S
C2629 C904 1.979 . S
C2648 C276 1.978 . S
C2665 C293 0.455 . S
C2684 C3 0.376 . S
C2701 C322 0.434 . S
C2720 C32 0.426 . S
C2737 C235 0.432 . S
C2756 C61 0.482 . S
C2773 C264 0.444 . S
C2792 C90 0.525 . S
C2809 C409 0.458 . S
C2828 C119 0.470 . S
C2845 C148 0.442 . S
C2864 C438 0.457 . S
C2881 C351 0.446 . S
C2900 C177 0.479 . S
C2917 C206 0.464 . S
C2936 C380 0.520 . S
C2953 C467 0.457 . S
C2972 C757 0.382 . S
C2989 C496 0.448 . S
C3008 C786 0.524 . S
C3025 C699 0.440 . S
C3044 C525 0.392 . S
C3061 C728 0.436 . S
C3080 C554 0.409 . S
C3097 C873 0.445 . S
C3116 C583 0.472 . S
C3133 C902 0.463 . S
C3152 C612 0.525 . S
C3169 C815 0.446 . S
C3188 C641 0.477 . S
C3205 C670 0.446 . S
C3224 C844 0.479 . S
C3241 C21 0.972 . S
C3260 C50 0.948 . S
C3277 C79 0.971 . S
C3296 C108 0.948 . S
C3313 C137 0.972 . S
C3332 C166 0.981 . S
C3349 C195 0.978 . S
C3368 C224 0.950 . S
C3385 C253 0.972 . S
C3404 C282 0.950 . S
C3421 C340 0.982 . S
C3440 C311 1.002 . S
C3457 C398 0.983 . S
C3476 C369 0.960 . S
C3493 C456 0.983 . S
C3512 C427 0.960 . S
C3529 C514 0.980 . S
C3548 C485 0.985 . S
C3565 C572 0.974 . S
C3584 C543 0.967 . S
C3601 C601 0.983 . S
C3620 C630 0.960 . S
C3637 C659 0.983 . S
C3656 C688 0.960 . S
C3673 C717 0.983 . S
C3692 C746 1.002 . S
C3709 C804 0.972 . S
C3728 C775 0.949 . S
C3745 C862 0.972 . S
C3764 C833 0.992 . S
C3781 C920 0.971 . S
C3800 C891 0.992 . S
C3817 C66 1.396 . S
C3836 C8 1.398 . S
C3853 C37 1.393 . S
C3872 C95 1.375 . S
C3889 C124 1.409 . S
C3908 C182 1.377 . S
C3925 C211 1.395 . S
C3944 C153 1.366 . S
C3961 C240 1.411 . S
C3980 C298 1.432 . S
C3997 C327 1.408 . S
C4016 C269 1.443 . S
C4033 C356 1.397 . S
C4052 C414 1.358 . S
C4069 C385 1.398 . S
C4088 C443 1.436 . S
C4105 C472 1.411 . S
C4124 C530 1.419 . S
C4141 C501 1.411 . S
C4160 C559 1.424 . S
C4177 C646 1.411 . S
C4196 C588 1.402 . S
C4213 C675 1.402 . S
C4232 C617 1.355 . S
C4249 C704 1.409 . S
C4268 C762 1.443 . S
C4285 C733 1.411 . S
C4304 C791 1.424 . S
C4321 C878 1.396 . S
C4340 C820 1.430 . S
C4357 C907 1.405 . S
C4376 C849 1.359 . S
C4393 C10 2.067 . S
C4412 C97 2.074 . S
C4429 C39 2.070 . S
C4448 C68 2.069 . S
C4465 C213 2.067 . S
C4484 C126 2.058 . S
C4501 C155 2.072 . S
C4520 C184 2.075 . S
C4537 C242 2.071 . S
C4556 C329 2.056 . S
C4573 C300 2.069 . S
C4592 C271 2.073 . S
C4609 C445 2.068 . S
C4628 C358 2.059 . S
C4645 C387 2.070 . S
C4664 C416 2.071 . S
C4681 C561 2.071 . S
C4700 C474 2.060 . S
C4717 C503 2.072 . S
C4736 C532 2.056 . S
C4753 C590 2.067 . S
C4772 C677 2.055 . S
C4789 C619 2.070 . S
C4808 C648 2.068 . S
C4825 C706 2.067 . S
C4844 C793 2.077 . S
C4861 C735 2.070 . S
C4880 C764 2.054 . S
C4897 C822 2.070 . S
C4916 C909 2.071 . S
C4933 C851 2.068 . S
C4952 C880 2.058 . S
