# Generated by pormake.
# Topology snk, (6)-cn, num edge types: 1
# Building blocks:
#     Node 0, Type 0, BuildingBlock: KUMBUR_clean_sbu_1, # of connection points: 6
#     Node 1, Type 0, BuildingBlock: KUMBUR_clean_sbu_1, # of connection points: 6
#     Node 2, Type 0, BuildingBlock: KUMBUR_clean_sbu_1, # of connection points: 6
#     Node 3, Type 0, BuildingBlock: KUMBUR_clean_sbu_1, # of connection points: 6
#     Node 4, Type 0, BuildingBlock: KUMBUR_clean_sbu_1, # of connection points: 6
#     Node 5, Type 0, BuildingBlock: KUMBUR_clean_sbu_1, # of connection points: 6
#     Node 6, Type 0, BuildingBlock: KUMBUR_clean_sbu_1, # of connection points: 6
#     Node 7, Type 0, BuildingBlock: KUMBUR_clean_sbu_1, # of connection points: 6
#     Edge 8, Type (0, 0), BuildingBlock: CIFDUS_clean_linker_0, # of connection points: 2
#     Edge 9, Type (0, 0), BuildingBlock: CIFDUS_clean_linker_0, # of connection points: 2
#     Edge 10, Type (0, 0), BuildingBlock: CIFDUS_clean_linker_0, # of connection points: 2
#     Edge 11, Type (0, 0), BuildingBlock: CIFDUS_clean_linker_0, # of connection points: 2
#     Edge 12, Type (0, 0), BuildingBlock: CIFDUS_clean_linker_0, # of connection points: 2
#     Edge 13, Type (0, 0), BuildingBlock: CIFDUS_clean_linker_0, # of connection points: 2
#     Edge 14, Type (0, 0), BuildingBlock: CIFDUS_clean_linker_0, # of connection points: 2
#     Edge 15, Type (0, 0), BuildingBlock: CIFDUS_clean_linker_0, # of connection points: 2
#     Edge 16, Type (0, 0), BuildingBlock: CIFDUS_clean_linker_0, # of connection points: 2
#     Edge 17, Type (0, 0), BuildingBlock: CIFDUS_clean_linker_0, # of connection points: 2
#     Edge 18, Type (0, 0), BuildingBlock: CIFDUS_clean_linker_0, # of connection points: 2
#     Edge 19, Type (0, 0), BuildingBlock: CIFDUS_clean_linker_0, # of connection points: 2
#     Edge 20, Type (0, 0), BuildingBlock: CIFDUS_clean_linker_0, # of connection points: 2
#     Edge 21, Type (0, 0), BuildingBlock: CIFDUS_clean_linker_0, # of connection points: 2
#     Edge 22, Type (0, 0), BuildingBlock: CIFDUS_clean_linker_0, # of connection points: 2
#     Edge 23, Type (0, 0), BuildingBlock: CIFDUS_clean_linker_0, # of connection points: 2
#     Edge 24, Type (0, 0), BuildingBlock: CIFDUS_clean_linker_0, # of connection points: 2
#     Edge 25, Type (0, 0), BuildingBlock: CIFDUS_clean_linker_0, # of connection points: 2
#     Edge 26, Type (0, 0), BuildingBlock: CIFDUS_clean_linker_0, # of connection points: 2
#     Edge 27, Type (0, 0), BuildingBlock: CIFDUS_clean_linker_0, # of connection points: 2
#     Edge 28, Type (0, 0), BuildingBlock: CIFDUS_clean_linker_0, # of connection points: 2
#     Edge 29, Type (0, 0), BuildingBlock: CIFDUS_clean_linker_0, # of connection points: 2
#     Edge 30, Type (0, 0), BuildingBlock: CIFDUS_clean_linker_0, # of connection points: 2
#     Edge 31, Type (0, 0), BuildingBlock: CIFDUS_clean_linker_0, # of connection points: 2
# Relax obj value: 0.009
# Max RMSD: 0.077
# Mean RMSD: 0.075
data_MOF--net-snk--node1-KUMBUR_clean_sbu_1--edge1-CIFDUS_clean_linker_0
_symmetry_space_group_name_H-M    P1
_symmetry_Int_Tables_number       1
_symmetry_cell_setting            triclinic
loop_
_symmetry_equiv_pos_as_xyz
'x, y, z'
_cell_length_a     32.844056
_cell_length_b     32.725653
_cell_length_c     22.840652
_cell_angle_alpha  90.16584
_cell_angle_beta   89.968608
_cell_angle_gamma 89.744292
loop_
_atom_site_label
_atom_site_type_symbol
_atom_site_fract_x
_atom_site_fract_y
_atom_site_fract_z
_atom_type_partial_charge
Tb0 Tb 0.99769 0.05117 0.58463 0.0
C1 C 0.98102 0.88674 0.46149 0.0
N2 N 0.01569 0.90931 0.46231 0.0
C3 C 0.05504 0.84934 0.48387 0.0
C4 C 0.98195 0.84451 0.47325 0.0
C5 C 0.05256 0.89123 0.47229 0.0
C6 C 0.01958 0.8259 0.48467 0.0
C7 C 0.90751 0.88459 0.45197 0.0
C8 C 0.94423 0.90672 0.4517 0.0
C9 C 0.90826 0.84242 0.46346 0.0
C10 C 0.94536 0.82245 0.47418 0.0
Tb11 Tb 1.00769 0.97743 0.44497 0.0
N12 N 0.94449 0.94794 0.44297 0.0
C13 C 0.87121 0.90552 0.44027 0.0
C14 C 0.90948 0.96764 0.42714 0.0
C15 C 0.87231 0.94704 0.42688 0.0
H16 H 0.08013 0.90898 0.47064 0.0
H17 H 0.84459 0.96306 0.41521 0.0
H18 H 0.90966 0.10151 0.57506 0.0
H19 H 0.15354 0.10241 0.59854 0.0
H20 H 0.90988 0.99865 0.41219 0.0
H21 H 0.84235 0.88982 0.43974 0.0
H22 H 0.09836 0.05138 0.59867 0.0
H23 H 0.0843 0.83514 0.49214 0.0
H24 H 0.88034 0.82494 0.46409 0.0
H25 H 0.94541 0.78997 0.48326 0.0
H26 H 0.88748 0.1727 0.55911 0.0
H27 H 0.02157 0.79356 0.49423 0.0
H28 H 0.13717 0.17587 0.58735 0.0
N29 N 0.97271 0.11624 0.5775 0.0
C30 C 1.00096 0.14647 0.57746 0.0
C31 C 0.91947 0.16578 0.56454 0.0
C32 C 0.98955 0.18771 0.57025 0.0
C33 C 0.93222 0.12538 0.57272 0.0
C34 C 0.94821 0.19712 0.56327 0.0
N35 N 0.05138 0.09538 0.58618 0.0
C36 C 0.09087 0.08325 0.59355 0.0
C37 C 0.07208 0.16597 0.58253 0.0
C38 C 0.04164 0.1358 0.58325 0.0
C39 C 0.1128 0.15365 0.58774 0.0
C40 C 0.12218 0.11215 0.5938 0.0
H41 H 0.93817 0.22838 0.55697 0.0
H42 H 0.01163 0.24983 0.5633 0.0
H43 H 0.08384 0.23088 0.57478 0.0
O44 O 0.01938 0.03355 0.66753 0.0
O45 O 0.02687 0.07689 0.50576 0.0
O46 O 0.05461 0.02516 0.44817 0.0
O47 O 0.96751 0.07335 0.65981 0.0
O48 O 0.04036 0.99884 0.58964 0.0
O49 O 0.0639 0.98235 0.49635 0.0
O50 O 0.98833 0.9824 0.35748 0.0
O51 O 0.9887 0.95288 0.53126 0.0
O52 O 0.95103 1.00395 0.57377 0.0
O53 O 0.0432 0.95004 0.37852 0.0
O54 O 0.97379 0.03547 0.43587 0.0
O55 O 0.94516 0.04361 0.52676 0.0
C56 C 0.05169 0.06375 0.46437 0.0
C57 C 0.97089 0.0308 0.74355 0.0
C58 C 0.96767 0.01296 0.84773 0.0
C59 C 0.93385 0.98805 0.83555 0.0
C60 C 0.93716 1.00584 0.73268 0.0
C61 C 0.91886 0.98451 0.77846 0.0
C62 C 0.98608 0.03421 0.80099 0.0
C63 C 0.06697 0.98122 0.55401 0.0
C64 C 0.9909 0.05323 0.69563 0.0
C65 C 0.01975 0.218 0.56932 0.0
C66 C 0.0609 0.20719 0.57573 0.0
C67 C 0.95924 0.96496 0.56644 0.0
C68 C 0.04045 0.98452 0.28735 0.0
C69 C 0.04286 1.00117 0.1827 0.0
C70 C 0.07678 0.02617 0.19379 0.0
C71 C 0.07413 1.0098 0.2971 0.0
C72 C 0.0249 0.9803 0.23016 0.0
C73 C 0.09217 0.03038 0.25055 0.0
C74 C 0.94718 0.05313 0.47096 0.0
C75 C 0.02019 0.96378 0.3366 0.0
H76 H 0.91848 0.9718 0.87032 0.0
H77 H 0.92491 1.00309 0.68894 0.0
H78 H 0.89275 0.96536 0.76972 0.0
H79 H 0.01247 0.05317 0.80906 0.0
H80 H 0.09178 0.04209 0.1584 0.0
H81 H 0.08648 0.0137 0.34067 0.0
H82 H 0.99838 0.96135 0.22294 0.0
H83 H 0.11823 0.04965 0.25874 0.0
Tb84 Tb 0.22791 0.76204 0.84298 0.0
C85 C 0.37446 0.72297 0.68819 0.0
N86 N 0.35959 0.76088 0.70068 0.0
C87 C 0.42713 0.78564 0.71722 0.0
C88 C 0.41656 0.7148 0.69081 0.0
C89 C 0.38507 0.79222 0.71475 0.0
C90 C 0.44292 0.74681 0.70509 0.0
C91 C 0.36134 0.65201 0.6641 0.0
C92 C 0.34698 0.69197 0.67518 0.0
C93 C 0.40332 0.64367 0.66694 0.0
C94 C 0.43085 0.67498 0.6801 0.0
Tb95 Tb 0.29128 0.76846 0.69039 0.0
N96 N 0.30637 0.701 0.67357 0.0
C97 C 0.33314 0.6217 0.64982 0.0
C98 C 0.27922 0.67205 0.65563 0.0
C99 C 0.292 0.63191 0.64485 0.0
H100 H 0.37305 0.82244 0.72296 0.0
H101 H 0.27017 0.60903 0.63146 0.0
H102 H 0.16589 0.68216 0.83095 0.0
H103 H 0.20271 0.91626 0.91824 0.0
H104 H 0.248 0.67961 0.64707 0.0
H105 H 0.34293 0.59062 0.64101 0.0
H106 H 0.2438 0.85748 0.88408 0.0
H107 H 0.44735 0.81055 0.72812 0.0
H108 H 0.41483 0.6131 0.65875 0.0
H109 H 0.4631 0.66804 0.68223 0.0
H110 H 0.09219 0.66906 0.8385 0.0
H111 H 0.47546 0.74189 0.70683 0.0
H112 H 0.12793 0.90975 0.92791 0.0
N113 N 0.16036 0.74578 0.84931 0.0
C114 C 0.13506 0.77657 0.86609 0.0
C115 C 0.10381 0.69955 0.84588 0.0
C116 C 0.09293 0.77018 0.8731 0.0
C117 C 0.14552 0.70727 0.8406 0.0
C118 C 0.07735 0.73117 0.86201 0.0
N119 N 0.19265 0.81885 0.87158 0.0
C120 C 0.21118 0.85455 0.88704 0.0
C121 C 0.12723 0.8467 0.89889 0.0
C122 C 0.15188 0.81421 0.87884 0.0
C123 C 0.14579 0.88397 0.91242 0.0
C124 C 0.18799 0.8878 0.90685 0.0
H125 H 0.04519 0.72491 0.86708 0.0
H126 H 0.03558 0.79833 0.89813 0.0
H127 H 0.06556 0.86542 0.92018 0.0
O128 O 0.26389 0.76708 0.91934 0.0
O129 O 0.20317 0.80845 0.78267 0.0
O130 O 0.24153 0.81334 0.69629 0.0
O131 O 0.21276 0.72653 0.91616 0.0
O132 O 0.28439 0.7987 0.83998 0.0
O133 O 0.29624 0.82295 0.74559 0.0
O134 O 0.28204 0.75935 0.60031 0.0
O135 O 0.31906 0.74155 0.7706 0.0
O136 O 0.26286 0.71171 0.80664 0.0
O137 O 0.32052 0.80787 0.63073 0.0
O138 O 0.22832 0.74602 0.68546 0.0
O139 O 0.21963 0.7155 0.77464 0.0
C140 C 0.21076 0.82416 0.73046 0.0
C141 C 0.22641 0.75814 1.00704 0.0
C142 C 0.23963 0.77106 0.11096 0.0
C143 C 0.19928 0.78516 0.11715 0.0
C144 C 0.18624 0.77202 1.01483 0.0
C145 C 0.17294 0.7857 0.06938 0.0
C146 C 0.25304 0.75768 0.05533 0.0
C147 C 0.30026 0.82538 0.80299 0.0
C148 C 0.24032 0.74303 0.94932 0.0
C149 C 0.06799 0.80262 0.8922 0.0
C150 C 0.0851 0.84081 0.90501 0.0
C151 C 0.30242 0.714 0.80468 0.0
C152 C 0.33289 0.78118 0.53498 0.0
C153 C 0.341 0.77858 0.42855 0.0
C154 C 0.38114 0.76452 0.4361 0.0
C155 C 0.37323 0.76781 0.54172 0.0
C156 C 0.31707 0.7866 0.47845 0.0
C157 C 0.39712 0.75936 0.4924 0.0
C158 C 0.20667 0.72353 0.72142 0.0
C159 C 0.30585 0.78908 0.58523 0.0
H160 H 0.18762 0.79483 0.15935 0.0
H161 H 0.16478 0.77167 0.97916 0.0
H162 H 0.14185 0.79615 0.07486 0.0
H163 H 0.28403 0.74685 0.04955 0.0
H164 H 0.40035 0.75822 0.39856 0.0
H165 H 0.3863 0.76394 0.58469 0.0
H166 H 0.28575 0.79663 0.47336 0.0
H167 H 0.4282 0.74892 0.49784 0.0
Tb168 Tb 0.51404 0.98769 0.09349 0.0
C169 C 0.57767 0.12289 0.95441 0.0
N170 N 0.53689 0.11691 0.95667 0.0
C171 C 0.52595 0.18835 0.97452 0.0
C172 C 0.59451 0.16173 0.965 0.0
C173 C 0.51076 0.14903 0.96458 0.0
C174 C 0.56805 0.19463 0.97558 0.0
C175 C 0.64478 0.0951 0.93571 0.0
C176 C 0.6023 0.08989 0.94046 0.0
C177 C 0.66209 0.13317 0.9494 0.0
C178 C 0.63698 0.16646 0.96393 0.0
Tb179 Tb 0.51474 0.052 0.9409 0.0
N180 N 0.58428 0.05368 0.92701 0.0
C181 C 0.66828 0.06256 0.91444 0.0
C182 C 0.60654 0.02419 0.89874 0.0
C183 C 0.6489 0.02739 0.89424 0.0
H184 H 0.47826 0.14412 0.96416 0.0
H185 H 0.66642 1.00315 0.87379 0.0
H186 H 0.61045 0.95867 0.10591 0.0
H187 H 0.37782 0.90898 0.15809 0.0
H188 H 0.59196 0.99853 0.87797 0.0
H189 H 0.70101 0.06526 0.91006 0.0
H190 H 0.42028 0.9694 0.13495 0.0
H191 H 0.50525 0.21369 0.98176 0.0
H192 H 0.69472 0.13756 0.94683 0.0
H193 H 0.65062 0.19591 0.97285 0.0
H194 H 0.64892 0.89357 0.11079 0.0
H195 H 0.57974 0.22502 0.98378 0.0
H196 H 0.40784 0.83948 0.15248 0.0
N197 N 0.55262 0.92972 0.10237 0.0
C198 C 0.53191 0.89421 0.10763 0.0
C199 C 0.61598 0.89328 0.10948 0.0
C200 C 0.55239 0.85648 0.11268 0.0
C201 C 0.59414 0.93003 0.10633 0.0
C202 C 0.59502 0.85624 0.11176 0.0
N203 N 0.47262 0.93392 0.1138 0.0
C204 C 0.43328 0.93904 0.13204 0.0
C205 C 0.46761 0.86118 0.12754 0.0
C206 C 0.49026 0.89643 0.11434 0.0
C207 C 0.42634 0.86577 0.14185 0.0
C208 C 0.40931 0.90498 0.14524 0.0
H209 H 0.61196 0.82787 0.11526 0.0
H210 H 0.54499 0.79139 0.12556 0.0
H211 H 0.47051 0.79541 0.1385 0.0
O212 O 0.50783 0.03402 0.15746 0.0
O213 O 0.46577 0.96937 0.03153 0.0
O214 O 0.47553 0.99725 0.9376 0.0
O215 O 0.52351 0.97255 0.18178 0.0
O216 O 0.46298 0.03097 0.08274 0.0
O217 O 0.46214 0.06795 0.99443 0.0
O218 O 0.5274 0.06278 0.85171 0.0
O219 O 0.52848 0.07736 0.02862 0.0
O220 O 0.5651 0.02673 0.07091 0.0
O221 O 0.46942 0.07854 0.88802 0.0
O222 O 0.53297 0.9877 0.93689 0.0
O223 O 0.56203 0.98288 0.02677 0.0
C224 C 0.45728 0.97211 0.97485 0.0
C225 C 0.543 0.02473 0.24719 0.0
C226 C 0.55024 0.04655 0.34924 0.0
C227 C 0.59232 0.05137 0.33982 0.0
C228 C 0.58506 0.02844 0.23924 0.0
C229 C 0.60951 0.04232 0.28518 0.0
C230 C 0.52579 0.03362 0.30206 0.0
C231 C 0.44754 0.05869 0.04668 0.0
C232 C 0.51641 1.0094 0.20041 0.0
C233 C 0.52977 0.82068 0.12164 0.0
C234 C 0.48739 0.82301 0.12913 0.0
C235 C 0.55868 0.06571 0.06257 0.0
C236 C 0.47099 0.05904 0.78752 0.0
C237 C 0.4726 0.04584 0.68186 0.0
C238 C 0.43245 0.03131 0.68507 0.0
C239 C 0.43081 0.04445 0.78944 0.0
C240 C 0.49175 0.05951 0.7335 0.0
C241 C 0.41184 0.03055 0.73852 0.0
C242 C 0.55503 0.96729 0.97483 0.0
C243 C 0.49093 0.07583 0.84046 0.0
H244 H 0.61199 0.06191 0.37471 0.0
H245 H 0.59889 0.02 0.19795 0.0
H246 H 0.64198 0.04552 0.27872 0.0
H247 H 0.49342 0.02901 0.30837 0.0
H248 H 0.4171 0.02016 0.64626 0.0
H249 H 0.41386 0.04405 0.83011 0.0
H250 H 0.5225 0.07134 0.73146 0.0
H251 H 0.38092 0.01933 0.74043 0.0
Tb252 Tb 0.21772 0.26256 0.1943 0.0
C253 C 0.38408 0.29635 0.31994 0.0
N254 N 0.36217 0.26126 0.32289 0.0
C255 C 0.42353 0.2217 0.3135 0.0
C256 C 0.42667 0.29548 0.31235 0.0
C257 C 0.38129 0.22416 0.32084 0.0
C258 C 0.44631 0.2575 0.30884 0.0
C259 C 0.38491 0.37046 0.32011 0.0
C260 C 0.36347 0.33332 0.32354 0.0
C261 C 0.42735 0.36982 0.31231 0.0
C262 C 0.44815 0.33242 0.30825 0.0
Tb263 Tb 0.29327 0.26905 0.33199 0.0
N264 N 0.32215 0.3327 0.32852 0.0
C265 C 0.36302 0.4071 0.32445 0.0
C266 C 0.30099 0.36835 0.33577 0.0
C267 C 0.32094 0.406 0.333 0.0
H268 H 0.3641 0.19644 0.32619 0.0
H269 H 0.30386 0.43415 0.33794 0.0
H270 H 0.14111 0.32752 0.21379 0.0
H271 H 0.21989 0.09886 0.15865 0.0
H272 H 0.26894 0.36821 0.34468 0.0
H273 H 0.37835 0.43631 0.32214 0.0
H274 H 0.24825 0.16787 0.15827 0.0
H275 H 0.43851 0.19219 0.31172 0.0
H276 H 0.44434 0.39805 0.30929 0.0
H277 H 0.48082 0.33242 0.30187 0.0
H278 H 0.06762 0.32415 0.23572 0.0
H279 H 0.479 0.25551 0.30299 0.0
H280 H 0.14762 0.08855 0.18338 0.0
N281 N 0.14897 0.26322 0.21002 0.0
C282 C 0.13038 0.22621 0.21041 0.0
C283 C 0.08499 0.29631 0.22921 0.0
C284 C 0.08834 0.2227 0.22165 0.0
C285 C 0.12679 0.29817 0.21778 0.0
C286 C 0.06571 0.25839 0.23168 0.0
N287 N 0.19465 0.19649 0.19114 0.0
C288 C 0.21772 0.16388 0.17366 0.0
C289 C 0.13589 0.15273 0.1995 0.0
C290 C 0.15398 0.19169 0.20039 0.0
C291 C 0.16028 0.11891 0.18575 0.0
C292 C 0.20122 0.12461 0.17196 0.0
H293 H 0.03336 0.25704 0.24068 0.0
H294 H 0.03811 0.18047 0.2312 0.0
H295 H 0.07963 0.11924 0.21104 0.0
O296 O 0.23249 0.24626 0.10755 0.0
O297 O 0.19711 0.23901 0.27986 0.0
O298 O 0.25436 0.21454 0.32634 0.0
O299 O 0.18527 0.29 0.1251 0.0
O300 O 0.27849 0.23312 0.1893 0.0
O301 O 0.29556 0.21169 0.28264 0.0
O302 O 0.27624 0.29061 0.41543 0.0
O303 O 0.31405 0.29437 0.24712 0.0
O304 O 0.25631 0.31696 0.19969 0.0
O305 O 0.32133 0.2434 0.40639 0.0
O306 O 0.23321 0.29895 0.33763 0.0
O307 O 0.21407 0.31976 0.2447 0.0
C308 C 0.21501 0.21309 0.31545 0.0
C309 C 0.22203 0.29717 0.03642 0.0
C310 C 0.23585 0.30577 0.93168 0.0
C311 C 0.25162 0.34478 0.94377 0.0
C312 C 0.23822 0.33603 0.0473 0.0
C313 C 0.253 0.35962 1.00117 0.0
C314 C 0.22099 0.28213 0.97861 0.0
C315 C 0.29823 0.20839 0.22521 0.0
C316 C 0.20655 0.27173 0.08474 0.0
C317 C 0.07036 0.18383 0.22248 0.0
C318 C 0.09405 0.14894 0.21117 0.0
C319 C 0.29583 0.3181 0.20861 0.0
C320 C 0.27955 0.24198 0.49102 0.0
C321 C 0.26094 0.23722 0.59492 0.0
C322 C 0.24096 0.20016 0.58261 0.0
C323 C 0.25936 0.20507 0.48015 0.0
C324 C 0.28011 0.25803 0.54831 0.0
C325 C 0.24009 0.18442 0.5257 0.0
C326 C 0.21235 0.32302 0.30236 0.0
C327 C 0.29929 0.26456 0.44291 0.0
H328 H 0.26213 0.36418 0.90863 0.0
H329 H 0.23912 0.3482 0.09133 0.0
H330 H 0.26524 0.3897 1.00986 0.0
H331 H 0.20895 0.25187 0.97033 0.0
H332 H 0.2265 0.18282 0.61708 0.0
H333 H 0.25858 0.19214 0.43656 0.0
H334 H 0.29509 0.28695 0.55624 0.0
H335 H 0.22462 0.1559 0.51693 0.0
Tb336 Tb 0.7328 0.26823 0.34387 0.0
C337 C 0.86808 0.21969 0.16952 0.0
N338 N 0.85436 0.25734 0.18533 0.0
C339 C 0.92305 0.28038 0.19755 0.0
C340 C 0.91001 0.21043 0.16901 0.0
C341 C 0.88108 0.28801 0.19774 0.0
C342 C 0.93759 0.24134 0.18355 0.0
C343 C 0.85258 0.15105 0.13702 0.0
C344 C 0.83969 0.19046 0.15419 0.0
C345 C 0.89428 0.14116 0.13797 0.0
C346 C 0.92294 0.17081 0.15389 0.0
Tb347 Tb 0.78563 0.26708 0.18255 0.0
N348 N 0.79967 0.20133 0.15341 0.0
C349 C 0.8233 0.12321 0.11764 0.0
C350 C 0.77162 0.17537 0.12967 0.0
C351 C 0.78275 0.1357 0.11294 0.0
H352 H 0.8701 0.3184 0.20749 0.0
H353 H 0.76015 0.11508 0.09531 0.0
H354 H 0.67175 0.18557 0.34483 0.0
H355 H 0.70059 0.42193 0.41402 0.0
H356 H 0.74081 0.18532 0.12163 0.0
H357 H 0.83191 0.09263 0.10401 0.0
H358 H 0.74453 0.36265 0.38813 0.0
H359 H 0.94416 0.30464 0.20799 0.0
H360 H 0.90472 0.11094 0.12533 0.0
H361 H 0.95503 0.16295 0.15369 0.0
H362 H 0.59837 0.17213 0.33991 0.0
H363 H 0.97008 0.23549 0.18351 0.0
H364 H 0.6256 0.41627 0.40576 0.0
N365 N 0.66505 0.25059 0.34338 0.0
C366 C 0.63837 0.28212 0.3503 0.0
C367 C 0.60919 0.20331 0.34183 0.0
C368 C 0.59593 0.2756 0.35117 0.0
C369 C 0.65099 0.21124 0.34319 0.0
C370 C 0.58149 0.2357 0.34475 0.0
N371 N 0.69481 0.32505 0.36339 0.0
C372 C 0.71181 0.36031 0.3841 0.0
C373 C 0.62754 0.35328 0.37634 0.0
C374 C 0.65378 0.3205 0.3622 0.0
C375 C 0.64472 0.39041 0.39417 0.0
C376 C 0.68705 0.39372 0.3989 0.0
H377 H 0.54913 0.22939 0.34501 0.0
H378 H 0.53679 0.30425 0.36224 0.0
H379 H 0.56447 0.37238 0.38437 0.0
O380 O 0.76994 0.27955 0.41754 0.0
O381 O 0.71835 0.31872 0.28216 0.0
O382 O 0.72236 0.28607 0.19408 0.0
O383 O 0.71344 0.24822 0.42701 0.0
O384 O 0.79052 0.3005 0.33118 0.0
O385 O 0.79526 0.32315 0.23479 0.0
O386 O 0.78108 0.26042 0.0911 0.0
O387 O 0.8196 0.24388 0.26 0.0
O388 O 0.77075 0.21554 0.31948 0.0
O389 O 0.79813 0.31791 0.12871 0.0
O390 O 0.72622 0.23687 0.19385 0.0
O391 O 0.72555 0.21268 0.28893 0.0
C392 C 0.71021 0.31718 0.22572 0.0
C393 C 0.76435 0.23479 0.49819 0.0
C394 C 0.79603 0.22593 0.59455 0.0
C395 C 0.80067 0.18405 0.58237 0.0
C396 C 0.76877 0.1928 0.4876 0.0
C397 C 0.7869 0.16765 0.52951 0.0
C398 C 0.77762 0.25125 0.55214 0.0
C399 C 0.80325 0.32663 0.29135 0.0
C400 C 0.7455 0.26171 0.45395 0.0
C401 C 0.56944 0.30871 0.36152 0.0
C402 C 0.58521 0.34747 0.37432 0.0
C403 C 0.80855 0.21733 0.30044 0.0
C404 C 0.8215 0.30275 0.03148 0.0
C405 C 0.83525 0.29937 0.92564 0.0
C406 C 0.87482 0.3139 0.93664 0.0
C407 C 0.86115 0.31702 0.04096 0.0
C408 C 0.80878 0.29391 0.97379 0.0
C409 C 0.88757 0.32249 0.99375 0.0
C410 C 0.71407 0.21048 0.23363 0.0
C411 C 0.79238 0.29751 0.08037 0.0
H412 H 0.81447 0.16384 0.61427 0.0
H413 H 0.75784 0.17948 0.4472 0.0
H414 H 0.79002 0.13523 0.52131 0.0
H415 H 0.77401 0.28365 0.56083 0.0
H416 H 0.89588 0.31928 0.90102 0.0
H417 H 0.87166 0.32424 0.08465 0.0
H418 H 0.77828 0.28241 0.96667 0.0
H419 H 0.91806 0.33374 1.00139 0.0
Tb420 Tb 0.72147 0.76221 0.71277 0.0
C421 C 0.89612 0.7609 0.83237 0.0
N422 N 0.86615 0.73306 0.84037 0.0
C423 C 0.91541 0.67871 0.83601 0.0
C424 C 0.93689 0.7487 0.82368 0.0
C425 C 0.87542 0.69248 0.84463 0.0
C426 C 0.94622 0.70691 0.82458 0.0
C427 C 0.91598 0.83205 0.82815 0.0
C428 C 0.88591 0.80186 0.83452 0.0
C429 C 0.95653 0.8202 0.81773 0.0
C430 C 0.96691 0.77859 0.81516 0.0
Tb431 Tb 0.80137 0.75867 0.84732 0.0
N432 N 0.84607 0.81201 0.84204 0.0
C433 C 0.90428 0.87312 0.83236 0.0
C434 C 0.83471 0.85194 0.84882 0.0
C435 C 0.86354 0.8831 0.84342 0.0
H436 H 0.85198 0.67091 0.85601 0.0
H437 H 0.85428 0.91477 0.84727 0.0
H438 H 0.65323 0.83739 0.70598 0.0
H439 H 0.70367 0.59744 0.71727 0.0
H440 H 0.80324 0.85976 0.8561 0.0
H441 H 0.92651 0.89722 0.82764 0.0
H442 H 0.74084 0.66124 0.70216 0.0
H443 H 0.92248 0.64642 0.83862 0.0
H444 H 0.98009 0.84292 0.81197 0.0
H445 H 0.99829 0.76987 0.80726 0.0
H446 H 0.57875 0.84492 0.71687 0.0
H447 H 0.97716 0.6962 0.81801 0.0
H448 H 0.62976 0.59925 0.73796 0.0
N449 N 0.65268 0.77279 0.71676 0.0
C450 C 0.62955 0.73894 0.72461 0.0
C451 C 0.59266 0.81492 0.71916 0.0
C452 C 0.58702 0.74188 0.73206 0.0
C453 C 0.63483 0.8105 0.71285 0.0
C454 C 0.5687 0.78054 0.72953 0.0
N455 N 0.68995 0.69981 0.71921 0.0
C456 C 0.70929 0.663 0.71347 0.0
C457 C 0.6259 0.66523 0.73351 0.0
C458 C 0.64874 0.70116 0.72549 0.0
C459 C 0.64617 0.62759 0.73193 0.0
C460 C 0.68792 0.62647 0.72068 0.0
H461 H 0.53613 0.78418 0.73518 0.0
H462 H 0.53175 0.70784 0.7489 0.0
H463 H 0.56568 0.6408 0.74955 0.0
O464 O 0.73167 0.73667 0.62926 0.0
O465 O 0.70017 0.74183 0.79917 0.0
O466 O 0.75577 0.7099 0.8393 0.0
O467 O 0.69949 0.79344 0.63865 0.0
O468 O 0.78162 0.73227 0.70416 0.0
O469 O 0.7945 0.70373 0.79378 0.0
O470 O 0.77967 0.77993 0.92868 0.0
O471 O 0.81995 0.79026 0.76554 0.0
O472 O 0.76187 0.81501 0.7199 0.0
O473 O 0.827 0.73472 0.92466 0.0
O474 O 0.75012 0.80175 0.85623 0.0
O475 O 0.71468 0.81644 0.76935 0.0
C476 C 0.71627 0.71637 0.83698 0.0
C477 C 0.73936 0.78447 0.5534 0.0
C478 C 0.75785 0.78531 0.44937 0.0
C479 C 0.78601 0.8165 0.46163 0.0
C480 C 0.76777 0.81539 0.56415 0.0
C481 C 0.79101 0.83122 0.51858 0.0
C482 C 0.73457 0.76935 0.49602 0.0
C483 C 0.79902 0.70398 0.73657 0.0
C484 C 0.71519 0.76738 0.60191 0.0
C485 C 0.5643 0.70626 0.74191 0.0
C486 C 0.58367 0.66803 0.74251 0.0
C487 C 0.8013 0.81596 0.72989 0.0
C488 C 0.78195 0.7319 1.00526 0.0
C489 C 0.76523 0.72322 0.109 0.0
C490 C 0.74053 0.68976 0.09401 0.0
C491 C 0.75794 0.69786 0.99164 0.0
C492 C 0.78567 0.74435 0.06399 0.0
C493 C 0.73705 0.67719 0.03572 0.0
C494 C 0.72243 0.82206 0.82591 0.0
C495 C 0.80259 0.75513 0.9587 0.0
H496 H 0.80376 0.83006 0.42691 0.0
H497 H 0.77181 0.82745 0.60772 0.0
H498 H 0.81277 0.85519 0.52747 0.0
H499 H 0.71303 0.74498 0.48801 0.0
H500 H 0.72464 0.6727 0.12747 0.0
H501 H 0.75549 0.68716 0.94707 0.0
H502 H 0.80421 0.77069 0.07452 0.0
H503 H 0.71835 0.65111 0.02471 0.0
Tb504 Tb 0.49836 0.53538 0.06434 0.0
C505 C 0.4471 0.39529 0.9207 0.0
N506 N 0.48723 0.40325 0.92899 0.0
C507 C 0.49946 0.33304 0.95365 0.0
C508 C 0.43132 0.35586 0.92989 0.0
C509 C 0.51369 0.3727 0.94414 0.0
C510 C 0.45805 0.32463 0.94692 0.0
C511 C 0.38045 0.41972 0.892 0.0
C512 C 0.42199 0.4271 0.90329 0.0
C513 C 0.36428 0.38071 0.90224 0.0
C514 C 0.38959 0.34889 0.9214 0.0
Tb515 Tb 0.50712 0.46935 0.91534 0.0
N516 N 0.43879 0.46451 0.89395 0.0
C517 C 0.35684 0.45124 0.86834 0.0
C518 C 0.41696 0.49335 0.86396 0.0
C519 C 0.37546 0.48787 0.85285 0.0
H520 H 0.54564 0.37915 0.94962 0.0
H521 H 0.35815 0.5115 0.83087 0.0
H522 H 0.41065 0.58609 0.06212 0.0
H523 H 0.65151 0.58437 0.1138 0.0
H524 H 0.43137 0.52021 0.84656 0.0
H525 H 0.32482 0.44681 0.85892 0.0
H526 H 0.59662 0.5339 0.09921 0.0
H527 H 0.52041 0.30902 0.96633 0.0
H528 H 0.33249 0.37459 0.89394 0.0
H529 H 0.37676 0.31885 0.9284 0.0
H530 H 0.38834 0.65835 0.05823 0.0
H531 H 0.44711 0.2939 0.95446 0.0
H532 H 0.63643 0.65835 0.10608 0.0
N533 N 0.47358 0.60064 0.06756 0.0
C534 C 0.50177 0.63061 0.07284 0.0
C535 C 0.42038 0.65096 0.06209 0.0
C536 C 0.4905 0.67216 0.07153 0.0
C537 C 0.43311 0.61011 0.06394 0.0
C538 C 0.44924 0.68215 0.06528 0.0
N539 N 0.55126 0.57893 0.08204 0.0
C540 C 0.58972 0.56608 0.096 0.0
C541 C 0.57221 0.64928 0.08907 0.0
C542 C 0.54195 0.61942 0.08128 0.0
C543 C 0.6122 0.63638 0.09998 0.0
C544 C 0.62085 0.59461 0.10429 0.0
H545 H 0.4393 0.71376 0.06394 0.0
H546 H 0.51265 0.73432 0.07525 0.0
H547 H 0.5843 0.71437 0.0912 0.0
O548 O 0.5047 0.49711 0.13799 0.0
O549 O 0.5414 0.55908 0.99854 0.0
O550 O 0.55985 0.50912 0.92982 0.0
O551 O 0.471 0.55337 0.14363 0.0
O552 O 0.54315 0.48465 0.06508 0.0
O553 O 0.55926 0.45715 0.97258 0.0
O554 O 0.50783 0.48332 0.82545 0.0
O555 O 0.48528 0.44364 0.99906 0.0
O556 O 0.4485 0.49632 0.03577 0.0
O557 O 0.54061 0.43155 0.85735 0.0
O558 O 0.48714 0.5338 0.9118 0.0
O559 O 0.45127 0.53902 0.99687 0.0
C560 C 0.56493 0.54468 0.95628 0.0
C561 C 0.50645 0.53235 0.22839 0.0
C562 C 0.51959 0.51682 0.33168 0.0
C563 C 0.54431 0.55183 0.33491 0.0
C564 C 0.53118 0.56705 0.23315 0.0
C565 C 0.55012 0.57653 0.28598 0.0
C566 C 0.50082 0.50721 0.27771 0.0
C567 C 0.5649 0.46065 0.02991 0.0
C568 C 0.48588 0.52261 0.17263 0.0
C569 C 0.52067 0.70224 0.07712 0.0
C570 C 0.56145 0.69085 0.08608 0.0
C571 C 0.45476 0.45701 0.03093 0.0
C572 C 0.51436 0.42803 0.7603 0.0
C573 C 0.50819 0.42139 0.65371 0.0
C574 C 0.48389 0.38659 0.66182 0.0
C575 C 0.49023 0.39312 0.76725 0.0
C576 C 0.5233 0.44193 0.7035 0.0
C577 C 0.47512 0.37258 0.7182 0.0
C578 C 0.46029 0.55299 0.94471 0.0
C579 C 0.52929 0.45152 0.81116 0.0
H580 H 0.55844 0.56089 0.37572 0.0
H581 H 0.53546 0.58722 0.19637 0.0
H582 H 0.56892 0.60353 0.28929 0.0
H583 H 0.48182 0.48033 0.27394 0.0
H584 H 0.47207 0.36988 0.62457 0.0
H585 H 0.48295 0.38177 0.81036 0.0
H586 H 0.54143 0.46928 0.6982 0.0
H587 H 0.4565 0.34567 0.72391 0.0
Tb588 Tb 1.00075 0.482 0.59505 0.0
C589 C 0.03812 0.64132 0.44669 0.0
N590 N 1.00428 0.61786 0.44127 0.0
C591 C 0.9639 0.67772 0.42282 0.0
C592 C 0.0359 0.68424 0.44227 0.0
C593 C 0.96776 0.63525 0.42728 0.0
C594 C 0.99804 0.70238 0.431 0.0
C595 C 0.11117 0.64526 0.46137 0.0
C596 C 0.07528 0.62211 0.45584 0.0
C597 C 0.10904 0.68808 0.458 0.0
C598 C 0.0715 0.70752 0.44846 0.0
Tb599 Tb 0.01429 0.54913 0.45057 0.0
N600 N 0.07594 0.58069 0.46106 0.0
C601 C 0.14803 0.62466 0.47054 0.0
C602 C 0.11209 0.56037 0.46723 0.0
C603 C 0.14852 0.58202 0.47291 0.0
H604 H 0.94197 0.61616 0.41731 0.0
H605 H 0.17698 0.56578 0.47895 0.0
H606 H 0.07785 0.42252 0.63408 0.0
H607 H 0.84017 0.45215 0.56672 0.0
H608 H 0.11308 0.52758 0.46818 0.0
H609 H 0.17628 0.64133 0.47526 0.0
H610 H 0.90148 0.49518 0.57228 0.0
H611 H 0.93475 0.69135 0.41218 0.0
H612 H 0.13624 0.70642 0.46257 0.0
H613 H 0.07041 0.74054 0.44545 0.0
H614 H 0.08976 0.3489 0.65193 0.0
H615 H 0.99503 0.73524 0.42707 0.0
H616 H 0.84582 0.37743 0.58143 0.0
N617 N 0.01526 0.41502 0.61351 0.0
C618 C 0.98329 0.38892 0.61094 0.0
C619 C 0.05971 0.3597 0.63997 0.0
C620 C 0.98836 0.34685 0.62208 0.0
C621 C 0.05302 0.40124 0.629 0.0
C622 C 0.02728 0.33233 0.63623 0.0
N623 N 0.94181 0.44535 0.58719 0.0
C624 C 0.90445 0.46271 0.57807 0.0
C625 C 0.91094 0.37886 0.59593 0.0
C626 C 0.94517 0.40466 0.59813 0.0
C627 C 0.87287 0.3962 0.58366 0.0
C628 C 0.86959 0.43835 0.57519 0.0
H629 H 0.03249 0.30025 0.64527 0.0
H630 H 0.95767 0.28846 0.62805 0.0
H631 H 0.8899 0.31645 0.60478 0.0
O632 O 0.96512 0.50191 0.6653 0.0
O633 O 0.97874 0.45516 0.5131 0.0
O634 O 0.96153 0.50749 0.44945 0.0
O635 O 0.02307 0.47307 0.68077 0.0
O636 O 0.9724 0.54275 0.58621 0.0
O637 O 0.95422 0.55754 0.49132 0.0
O638 O 0.04855 0.53235 0.37706 0.0
O639 O 0.03562 0.57487 0.53527 0.0
O640 O 0.05554 0.51898 0.58881 0.0
O641 O 0.99228 0.56543 0.36712 0.0
O642 O 0.04166 0.48795 0.4546 0.0
O643 O 0.05902 0.47086 0.54965 0.0
C644 C 0.95986 0.46897 0.46623 0.0
C645 C 1.00145 0.52437 0.74681 0.0
C646 C 1.00227 0.54697 0.84825 0.0
C647 C 0.0145 0.58605 0.83005 0.0
C648 C 0.01255 0.56378 0.72894 0.0
C649 C 0.01954 0.59434 0.77051 0.0
C650 C 0.99627 0.51618 0.80629 0.0
C651 C 0.94678 0.55851 0.54811 0.0
C652 C 0.99229 0.49218 0.70418 0.0
C653 C 0.95444 0.32085 0.61944 0.0
C654 C 0.91582 0.33681 0.60633 0.0
C655 C 0.05647 0.55835 0.57865 0.0
C656 C 1.00966 0.51747 0.29439 0.0
C657 C 1.00354 0.50173 0.1907 0.0
C658 C 0.98978 0.46233 0.205 0.0
C659 C 0.99675 0.47783 0.3081 0.0
C660 C 0.01298 0.52929 0.23588 0.0
C661 C 0.98642 0.45054 0.26352 0.0
C662 C 0.06458 0.46818 0.49237 0.0
C663 C 0.02161 0.54622 0.34041 0.0
H664 H 0.01926 0.6103 0.86166 0.0
H665 H 0.01507 0.57106 0.68304 0.0
H666 H 0.02826 0.62465 0.75653 0.0
H667 H 0.98726 0.48579 0.81989 0.0
H668 H 0.98254 0.44039 0.17102 0.0
H669 H 0.99525 0.46786 0.35306 0.0
H670 H 0.02311 0.55994 0.2256 0.0
H671 H 0.97636 0.42001 0.27433 0.0
H672 H 0.13043 0.05663 0.42511 0.0
H673 H 0.03009 0.1416 0.4381 0.0
H674 H 0.07087 0.19458 0.39153 0.0
H675 H 0.13558 0.21764 0.34868 0.0
H676 H 0.23816 0.13518 0.34293 0.0
H677 H 0.19642 0.08073 0.38508 0.0
C678 C 0.11751 0.08668 0.41729 0.0
C679 C 0.07709 0.09496 0.43451 0.0
C680 C 0.14172 0.11765 0.39214 0.0
C681 C 0.06102 0.13431 0.42511 0.0
C682 C 0.08436 0.16471 0.39853 0.0
C683 C 0.14878 0.18772 0.35668 0.0
C684 C 0.18994 0.18048 0.34268 0.0
C685 C 0.12482 0.15686 0.38214 0.0
C686 C 0.20666 0.14165 0.35373 0.0
C687 C 0.18272 0.11044 0.37761 0.0
H688 H 0.06538 0.94275 0.65943 0.0
H689 H 0.14152 0.9607 0.50791 0.0
H690 H 0.19335 0.91531 0.54981 0.0
H691 H 0.21627 0.86887 0.62859 0.0
H692 H 0.13721 0.84835 0.77634 0.0
H693 H 0.08802 0.89652 0.73747 0.0
C694 C 0.09352 0.93716 0.63578 0.0
C695 C 0.09955 0.95537 0.5806 0.0
C696 C 0.1229 0.91048 0.6597 0.0
C697 C 0.13599 0.94712 0.55035 0.0
C698 C 0.16567 0.92112 0.57435 0.0
C699 C 0.18846 0.87505 0.65268 0.0
C700 C 0.18135 0.8552 0.70667 0.0
C701 C 0.15936 0.90233 0.62888 0.0
C702 C 0.14461 0.86364 0.73615 0.0
C703 C 0.11599 0.89108 0.71339 0.0
H704 H 0.33588 0.82819 0.91095 0.0
H705 H 0.32728 0.89525 0.74908 0.0
H706 H 0.37418 0.94669 0.7874 0.0
H707 H 0.41877 0.97244 0.8671 0.0
H708 H 0.42955 0.90186 0.02516 0.0
H709 H 0.38079 0.85288 0.98876 0.0
C710 C 0.34391 0.85418 0.88402 0.0
C711 C 0.32775 0.85765 0.82711 0.0
C712 C 0.37135 0.88347 0.90601 0.0
C713 C 0.33914 0.89154 0.79298 0.0
C714 C 0.36604 0.92109 0.81492 0.0
C715 C 0.41028 0.94655 0.89379 0.0
C716 C 0.42717 0.94215 0.95037 0.0
C717 C 0.38256 0.91736 0.87141 0.0
C718 C 0.41609 0.9076 0.98317 0.0
C719 C 0.38839 0.87896 0.96178 0.0
H720 H 0.41464 0.06062 0.15728 0.0
H721 H 0.40515 0.118 0.98761 0.0
H722 H 0.35856 0.16886 0.02769 0.0
H723 H 0.32363 0.2 0.11192 0.0
H724 H 0.33022 0.1412 0.28053 0.0
H725 H 0.37507 0.08863 0.23991 0.0
C726 C 0.40199 0.08382 0.12868 0.0
C727 C 0.41401 0.08535 0.06938 0.0
C728 C 0.37515 0.11341 0.15209 0.0
C729 C 0.39697 0.11589 0.03343 0.0
C730 C 0.3703 0.14526 0.05638 0.0
C731 C 0.33475 0.17566 0.13987 0.0
C732 C 0.32441 0.17545 0.19976 0.0
C733 C 0.35981 0.14484 0.11587 0.0
C734 C 0.33869 0.14313 0.23482 0.0
C735 C 0.36405 0.11269 0.21143 0.0
H736 H 0.87981 0.96925 0.60277 0.0
H737 H 0.98449 0.88934 0.60105 0.0
H738 H 0.94579 0.83684 0.65258 0.0
H739 H 0.88168 0.813 0.6977 0.0
H740 H 0.77619 0.89186 0.69581 0.0
H741 H 0.81547 0.94505 0.64674 0.0
C742 C 0.89418 0.94043 0.61402 0.0
C743 C 0.93516 0.93347 0.59836 0.0
C744 C 0.87148 0.91 0.6431 0.0
C745 C 0.95305 0.89562 0.61248 0.0
C746 C 0.93092 0.86554 0.6421 0.0
C747 C 0.86735 0.84191 0.68679 0.0
C748 C 0.82593 0.84832 0.70059 0.0
C749 C 0.89006 0.8723 0.65763 0.0
C750 C 0.80787 0.88591 0.68555 0.0
C751 C 0.83038 0.91644 0.65751 0.0
H752 H 0.96051 0.11692 0.39754 0.0
H753 H 0.8649 0.05163 0.48562 0.0
H754 H 0.8136 0.09465 0.43765 0.0
H755 H 0.79593 0.15092 0.37061 0.0
H756 H 0.89183 0.22208 0.29292 0.0
H757 H 0.94284 0.17676 0.33597 0.0
C758 C 0.92841 0.11243 0.40648 0.0
C759 C 0.91641 0.08104 0.44481 0.0
C760 C 0.89914 0.1384 0.3805 0.0
C761 C 0.87482 0.07571 0.45653 0.0
C762 C 0.84552 0.10031 0.42909 0.0
C763 C 0.82796 0.15702 0.36378 0.0
C764 C 0.83974 0.18983 0.32764 0.0
C765 C 0.85729 0.13187 0.39112 0.0
C766 C 0.88158 0.19656 0.31885 0.0
C767 C 0.9109 0.17085 0.34419 0.0
H768 H 0.63959 0.2191 0.18521 0.0
H769 H 0.7278 0.12834 0.23631 0.0
H770 H 0.68822 0.07511 0.18634 0.0
H771 H 0.63091 0.0558 0.12121 0.0
H772 H 0.53754 0.14505 0.08419 0.0
H773 H 0.57698 0.19763 0.13397 0.0
C774 C 0.64962 0.18747 0.18627 0.0
C775 C 0.68654 0.1775 0.21396 0.0
C776 C 0.62616 0.15701 0.15887 0.0
C777 C 0.69926 0.13653 0.21558 0.0
C778 C 0.67684 0.10623 0.18652 0.0
C779 C 0.61873 0.08651 0.12518 0.0
C780 C 0.58159 0.09652 0.09763 0.0
C781 C 0.64056 0.11625 0.15707 0.0
C782 C 0.56656 0.13665 0.10309 0.0
C783 C 0.58892 0.16673 0.13225 0.0
H784 H 0.64036 0.83083 0.82282 0.0
H785 H 0.74666 0.87641 0.91062 0.0
H786 H 0.70419 0.9226 0.96906 0.0
H787 H 0.63645 0.95259 0.99202 0.0
H788 H 0.53071 0.90797 0.90071 0.0
H789 H 0.57301 0.85919 0.84651 0.0
C790 C 0.65439 0.852 0.85279 0.0
C791 C 0.69692 0.85169 0.85951 0.0
C792 C 0.62962 0.87823 0.88657 0.0
C793 C 0.71421 0.87691 0.90278 0.0
C794 C 0.68983 0.90316 0.93668 0.0
C795 C 0.62265 0.93148 0.96128 0.0
C796 C 0.58043 0.93357 0.95078 0.0
C797 C 0.64744 0.9043 0.92876 0.0
C798 C 0.56309 0.90675 0.90973 0.0
C799 C 0.5873 0.87907 0.87842 0.0
H800 H 0.56734 0.62771 0.95517 0.0
H801 H 0.6384 0.52103 0.91044 0.0
H802 H 0.69353 0.56465 0.87483 0.0
H803 H 0.72058 0.63355 0.85265 0.0
H804 H 0.64625 0.73934 0.88968 0.0
H805 H 0.59397 0.69595 0.93321 0.0
C806 C 0.59511 0.61398 0.93836 0.0
C807 C 0.59882 0.57112 0.93593 0.0
C808 C 0.62629 0.63924 0.91682 0.0
C809 C 0.63468 0.5539 0.9127 0.0
C810 C 0.66629 0.57885 0.89251 0.0
C811 C 0.69321 0.647 0.87121 0.0
C812 C 0.68747 0.68961 0.86875 0.0
C813 C 0.66238 0.62161 0.89397 0.0
C814 C 0.65144 0.70664 0.89155 0.0
C815 C 0.62146 0.68184 0.91616 0.0
H816 H 0.69092 0.32463 0.10989 0.0
H817 H 0.67233 0.38342 0.27678 0.0
H818 H 0.62609 0.43266 0.23195 0.0
H819 H 0.58921 0.45809 0.14514 0.0
H820 H 0.61278 0.40251 0.9766 0.0
H821 H 0.65898 0.35369 0.02204 0.0
C822 C 0.67682 0.34817 0.13666 0.0
C823 C 0.68421 0.34919 0.19753 0.0
C824 C 0.65113 0.3773 0.10997 0.0
C825 C 0.66628 0.38075 0.23065 0.0
C826 C 0.64002 0.40929 0.20471 0.0
C827 C 0.60458 0.43554 0.11808 0.0
C828 C 0.59658 0.43384 0.05734 0.0
C829 C 0.63186 0.40765 0.14441 0.0
C830 C 0.6175 0.40448 0.02341 0.0
C831 C 0.64412 0.3764 0.04941 0.0
H832 H 0.90411 0.48119 0.37603 0.0
H833 H 0.96134 0.38663 0.47951 0.0
H834 H 0.91847 0.33558 0.43507 0.0
H835 H 0.86321 0.31679 0.36973 0.0
H836 H 0.80807 0.40744 0.25853 0.0
H837 H 0.85207 0.46041 0.30152 0.0
C838 C 0.90726 0.44942 0.38861 0.0
C839 C 0.93506 0.43844 0.43313 0.0
C840 C 0.88302 0.41921 0.36105 0.0
C841 C 0.93927 0.39676 0.44747 0.0
C842 C 0.91495 0.36713 0.42152 0.0
C843 C 0.86088 0.34816 0.35471 0.0
C844 C 0.83214 0.35836 0.31166 0.0
C845 C 0.88639 0.37801 0.37899 0.0
C846 C 0.83004 0.3989 0.29172 0.0
C847 C 0.85504 0.42917 0.31655 0.0
H848 H 0.82253 0.69862 0.6214 0.0
H849 H 0.82697 0.63242 0.78425 0.0
H850 H 0.8743 0.58323 0.74165 0.0
H851 H 0.91619 0.56036 0.65914 0.0
H852 H 0.89973 0.61647 0.49052 0.0
H853 H 0.85485 0.66765 0.53367 0.0
C854 C 0.83375 0.67341 0.64764 0.0
C855 C 0.82358 0.67118 0.70759 0.0
C856 C 0.85882 0.64333 0.62154 0.0
C857 C 0.83689 0.63704 0.73968 0.0
C858 C 0.86332 0.60825 0.71487 0.0
C859 C 0.90291 0.58357 0.63144 0.0
C860 C 0.91383 0.58571 0.57178 0.0
C861 C 0.8751 0.61154 0.65611 0.0
C862 C 0.89435 0.61521 0.53683 0.0
C863 C 0.86801 0.64434 0.56156 0.0
H864 H 0.37578 0.31269 0.17655 0.0
H865 H 0.27161 0.39311 0.16943 0.0
H866 H 0.31151 0.44364 0.11573 0.0
H867 H 0.37612 0.46491 0.06915 0.0
H868 H 0.47898 0.38265 0.07169 0.0
H869 H 0.43984 0.33331 0.12849 0.0
C870 C 0.36186 0.34133 0.16333 0.0
C871 C 0.32061 0.34891 0.17668 0.0
C872 C 0.38488 0.37007 0.1315 0.0
C873 C 0.30309 0.38619 0.15908 0.0
C874 C 0.32598 0.41522 0.12854 0.0
C875 C 0.38997 0.43627 0.08246 0.0
C876 C 0.43053 0.42764 0.06632 0.0
C877 C 0.36689 0.40749 0.11422 0.0
C878 C 0.44783 0.39009 0.08326 0.0
C879 C 0.42545 0.36183 0.1159 0.0
H880 H 0.37944 0.57113 0.9572 0.0
H881 H 0.48903 0.61222 0.87252 0.0
H882 H 0.45096 0.6673 0.8245 0.0
H883 H 0.38585 0.703 0.80492 0.0
H884 H 0.27548 0.65775 0.88338 0.0
H885 H 0.3144 0.6063 0.9365 0.0
C886 C 0.39502 0.59251 0.92885 0.0
C887 C 0.4371 0.58781 0.91892 0.0
C888 C 0.37269 0.62352 0.90016 0.0
C889 C 0.45669 0.61522 0.88099 0.0
C890 C 0.43491 0.64675 0.85353 0.0
C891 C 0.3702 0.68163 0.8329 0.0
C892 C 0.3275 0.68411 0.83886 0.0
C893 C 0.39276 0.65101 0.86228 0.0
C894 C 0.30816 0.65662 0.87713 0.0
C895 C 0.33044 0.627 0.9077 0.0
H896 H 0.1902 0.64269 0.73864 0.0
H897 H 0.1498 0.74885 0.64344 0.0
H898 H 0.09801 0.70796 0.59348 0.0
H899 H 0.06553 0.64161 0.57486 0.0
H900 H 0.11005 0.53417 0.66376 0.0
H901 H 0.15782 0.57599 0.71925 0.0
C902 C 0.1696 0.65691 0.70763 0.0
C903 C 0.17349 0.69883 0.69518 0.0
C904 C 0.14066 0.63291 0.67776 0.0
C905 C 0.14727 0.71667 0.65384 0.0
C906 C 0.1177 0.69329 0.62524 0.0
C907 C 0.08608 0.62712 0.60558 0.0
C908 C 0.08466 0.58446 0.61372 0.0
C909 C 0.11444 0.65125 0.63628 0.0
C910 C 0.11065 0.56675 0.65568 0.0
C911 C 0.13808 0.5907 0.68759 0.0
H912 H 0.19332 0.33232 0.41831 0.0
H913 H 0.17205 0.38647 0.24878 0.0
H914 H 0.12416 0.43489 0.29258 0.0
H915 H 0.08737 0.46083 0.37804 0.0
H916 H 0.11427 0.41242 0.54928 0.0
H917 H 0.16117 0.363 0.50567 0.0
C918 C 0.17837 0.35474 0.39075 0.0
C919 C 0.1853 0.35453 0.32966 0.0
C920 C 0.15182 0.38354 0.41658 0.0
C921 C 0.16621 0.38462 0.29534 0.0
C922 C 0.13907 0.41267 0.32051 0.0
C923 C 0.10341 0.43966 0.40629 0.0
C924 C 0.09596 0.43987 0.46725 0.0
C925 C 0.13134 0.41213 0.38097 0.0
C926 C 0.11806 0.41247 0.50244 0.0
C927 C 0.14526 0.38426 0.47738 0.0
H928 H 0.97562 0.95347 0.93123 0.0
H929 H 0.99418 0.0824 0.90281 0.0
H930 H 0.01861 0.09009 1.00313 0.0
H931 H 0.03398 0.0606 0.09956 0.0
H932 H 0.01552 0.93171 0.12823 0.0
H933 H 0.99075 0.924 0.02798 0.0
C934 C 0.9847 0.98335 0.94704 0.0
C935 C 0.98309 0.01727 0.90907 0.0
C936 C 0.99847 0.98768 1.00515 0.0
C937 C 0.99562 0.05559 0.93043 0.0
C938 C 1.00935 0.0601 0.98807 0.0
C939 C 0.02485 0.03071 0.08385 0.0
C940 C 0.02672 0.99679 0.12176 0.0
C941 C 0.01093 0.02638 0.02584 0.0
C942 C 0.01398 0.95849 0.10058 0.0
C943 C 1.00006 0.95398 0.04299 0.0
H944 H 0.3463 0.72811 0.33323 0.0
H945 H 0.29695 0.84395 0.39043 0.0
H946 H 0.26417 0.85329 0.29555 0.0
H947 H 0.24654 0.82716 0.19849 0.0
H948 H 0.29308 0.71006 0.14175 0.0
H949 H 0.3311 0.70333 0.23327 0.0
C950 C 0.32882 0.75562 0.32457 0.0
C951 C 0.32376 0.78511 0.36908 0.0
C952 C 0.30968 0.76067 0.26989 0.0
C953 C 0.30076 0.82048 0.35731 0.0
C954 C 0.28216 0.82594 0.30296 0.0
C955 C 0.26495 0.80009 0.20609 0.0
C956 C 0.26653 0.76899 0.16342 0.0
C957 C 0.28583 0.79594 0.25934 0.0
C958 C 0.29143 0.73463 0.17353 0.0
C959 C 0.31292 0.73058 0.22615 0.0
H960 H 0.44396 0.07367 0.57753 0.0
H961 H 0.54992 0.01947 0.65784 0.0
H962 H 0.58413 0.01671 0.56266 0.0
H963 H 0.58226 0.02601 0.45579 0.0
H964 H 0.47674 0.08195 0.3761 0.0
H965 H 0.44391 0.08718 0.47166 0.0
C966 C 0.47455 0.06124 0.57413 0.0
C967 C 0.49426 0.04651 0.62461 0.0
C968 C 0.49401 0.05979 0.51931 0.0
C969 C 0.53416 0.03117 0.61971 0.0
C970 C 0.55364 0.02941 0.56525 0.0
C971 C 0.55239 0.04002 0.45932 0.0
C972 C 0.53194 0.05315 0.40841 0.0
C973 C 0.5337 0.04323 0.51463 0.0
C974 C 0.49296 0.07079 0.41414 0.0
C975 C 0.47419 0.074 0.4689 0.0
H976 H 0.29494 0.3108 0.84776 0.0
H977 H 0.17328 0.26605 0.87707 0.0
H978 H 0.17 0.24186 0.77586 0.0
H979 H 0.20114 0.23426 0.67866 0.0
H980 H 0.32381 0.27688 0.65017 0.0
H981 H 0.32656 0.30221 0.75063 0.0
C982 C 0.2676 0.29598 0.83191 0.0
C983 C 0.23439 0.29029 0.87016 0.0
C984 C 0.2659 0.2821 0.77352 0.0
C985 C 0.19947 0.27043 0.84897 0.0
C986 C 0.19746 0.25682 0.79091 0.0
C987 C 0.22873 0.24866 0.69439 0.0
C988 C 0.2622 0.25354 0.65627 0.0
C989 C 0.23049 0.26247 0.75278 0.0
C990 C 0.29726 0.27316 0.67772 0.0
C991 C 0.29904 0.28739 0.73552 0.0
H992 H 0.87998 0.26521 0.83668 0.0
H993 H 0.76016 0.31278 0.87552 0.0
H994 H 0.7381 0.29681 0.77595 0.0
H995 H 0.75225 0.26729 0.67777 0.0
H996 H 0.87215 0.22024 0.64019 0.0
H997 H 0.89506 0.23923 0.73819 0.0
C998 C 0.84918 0.27271 0.82336 0.0
C999 C 0.82185 0.29011 0.86422 0.0
C1000 C 0.83672 0.26374 0.76575 0.0
C1001 C 0.78181 0.29875 0.84579 0.0
C1002 C 0.7692 0.28994 0.7885 0.0
C1003 C 0.78351 0.2618 0.69095 0.0
C1004 C 0.81048 0.24227 0.65179 0.0
C1005 C 0.7963 0.27219 0.74811 0.0
C1006 C 0.85079 0.23493 0.6696 0.0
C1007 C 0.86387 0.24574 0.72574 0.0
H1008 H 0.81657 0.7743 0.36574 0.0
H1009 H 0.68708 0.76302 0.39383 0.0
H1010 H 0.67808 0.74213 0.29197 0.0
H1011 H 0.70658 0.72958 0.19358 0.0
H1012 H 0.83565 0.74363 0.16519 0.0
H1013 H 0.84488 0.7623 0.26791 0.0
C1014 C 0.78625 0.76771 0.34965 0.0
C1015 C 0.75257 0.77046 0.38785 0.0
C1016 C 0.78111 0.75667 0.29059 0.0
C1017 C 0.71372 0.76071 0.36605 0.0
C1018 C 0.70845 0.74911 0.30749 0.0
C1019 C 0.73676 0.73651 0.20997 0.0
C1020 C 0.77035 0.73532 0.17154 0.0
C1021 C 0.74188 0.74728 0.26923 0.0
C1022 C 0.80918 0.74486 0.19345 0.0
C1023 C 0.81453 0.75526 0.25234 0.0
H1024 H 0.4565 0.42831 0.56033 0.0
H1025 H 0.5813 0.44801 0.61178 0.0
H1026 H 0.59658 0.47562 0.51506 0.0
H1027 H 0.57394 0.4972 0.41776 0.0
H1028 H 0.44842 0.48053 0.36731 0.0
H1029 H 0.43455 0.44708 0.46056 0.0
C1030 C 0.48716 0.4382 0.55017 0.0
C1031 C 0.51761 0.43641 0.59361 0.0
C1032 C 0.49571 0.45437 0.49443 0.0
C1033 C 0.5571 0.4497 0.57967 0.0
C1034 C 0.56593 0.46528 0.52421 0.0
C1035 C 0.54344 0.48648 0.42712 0.0
C1036 C 0.5122 0.49206 0.38554 0.0
C1037 C 0.53533 0.46838 0.48161 0.0
C1038 C 0.47321 0.47663 0.39804 0.0
C1039 C 0.46511 0.45781 0.45177 0.0
H1040 H 0.05199 0.56463 0.93939 0.0
H1041 H 0.93708 0.50875 0.89654 0.0
H1042 H 0.92718 0.48982 0.99894 0.0
H1043 H 0.95173 0.48827 0.10026 0.0
H1044 H 0.06739 0.54285 0.14282 0.0
H1045 H 0.07622 0.5637 0.0411 0.0
C1046 C 0.02461 0.54873 0.95275 0.0
C1047 C 0.99538 0.53795 0.91077 0.0
C1048 C 0.01929 0.53768 1.0115 0.0
C1049 C 0.96019 0.51695 0.92824 0.0
C1050 C 0.95448 0.5062 0.98668 0.0
C1051 C 0.97898 0.50446 0.08711 0.0
C1052 C 1.00881 0.51404 0.12889 0.0
C1053 C 0.98401 0.51608 0.02856 0.0
C1054 C 0.04374 0.53556 0.11151 0.0
C1055 C 0.04891 0.54733 0.05336 0.0
loop_
_geom_bond_atom_site_label_1
_geom_bond_atom_site_label_2
_geom_bond_distance
_geom_bond_site_symmetry_2
_ccdc_geom_bond_type
Tb0 N29 2.617 . S
Tb0 N35 2.572 1_655 S
Tb0 O44 2.465 1_655 S
Tb0 O45 2.387 1_655 S
Tb0 O47 2.428 . S
Tb0 O48 2.308 1_645 S
Tb0 O52 2.349 1_545 S
Tb0 O55 2.393 . S
Tb0 C64 2.802 . S
C1 N2 1.379 1_655 S
C1 C4 1.416 . S
C1 C8 1.424 . S
N2 C1 1.379 1_455 S
N2 C5 1.334 . S
N2 Tb11 2.617 . S
C3 C5 1.390 . S
C3 C6 1.339 . S
C3 H23 0.930 . S
C4 C1 1.416 . S
C4 C6 1.416 1_655 S
C4 C10 1.448 . S
C5 N2 1.334 . S
C5 C3 1.390 . S
C5 H16 0.930 . S
C6 C3 1.339 . S
C6 C4 1.416 1_455 S
C6 H27 0.930 . S
C7 C8 1.413 . S
C7 C9 1.427 . S
C7 C13 1.416 . S
C8 C1 1.424 . S
C8 C7 1.413 . S
C8 N12 1.361 . S
C9 C7 1.427 . S
C9 C10 1.328 . S
C9 H24 0.929 . S
C10 C4 1.448 . S
C10 C9 1.328 . S
C10 H25 0.930 . S
Tb11 N2 2.617 . S
Tb11 N12 2.572 1_455 S
Tb11 O46 2.349 1_565 S
Tb11 O49 2.393 . S
Tb11 O50 2.465 1_455 S
Tb11 O51 2.387 1_455 S
Tb11 O53 2.428 . S
Tb11 O54 2.308 1_465 S
Tb11 C75 2.802 . S
N12 C8 1.361 . S
N12 Tb11 2.572 1_655 S
N12 C14 1.340 . S
C13 C7 1.416 . S
C13 C15 1.332 . S
C13 H21 0.931 . S
C14 N12 1.340 . S
C14 C15 1.407 . S
C14 H20 0.930 . S
C15 C13 1.332 . S
C15 C14 1.407 . S
C15 H17 0.929 . S
H16 C5 0.930 . S
H17 C15 0.929 . S
H18 C33 0.930 . S
H19 C40 0.929 . S
H20 C14 0.930 . S
H21 C13 0.931 . S
H22 C36 0.930 . S
H23 C3 0.930 . S
H24 C9 0.929 . S
H25 C10 0.930 . S
H26 C31 0.930 . S
H27 C6 0.930 . S
H28 C39 0.931 . S
N29 Tb0 2.617 . S
N29 C30 1.379 1_655 S
N29 C33 1.334 . S
C30 N29 1.379 1_455 S
C30 C32 1.416 . S
C30 C38 1.424 . S
C31 H26 0.930 . S
C31 C33 1.390 . S
C31 C34 1.339 . S
C32 C30 1.416 . S
C32 C34 1.416 1_455 S
C32 C65 1.448 . S
C33 H18 0.930 . S
C33 N29 1.334 . S
C33 C31 1.390 . S
C34 C31 1.339 . S
C34 C32 1.416 1_655 S
C34 H41 0.930 . S
N35 Tb0 2.572 1_455 S
N35 C36 1.340 . S
N35 C38 1.361 . S
C36 H22 0.930 . S
C36 N35 1.340 . S
C36 C40 1.407 . S
C37 C38 1.413 . S
C37 C39 1.416 . S
C37 C66 1.427 . S
C38 C30 1.424 . S
C38 N35 1.361 . S
C38 C37 1.413 . S
C39 H28 0.931 . S
C39 C37 1.416 . S
C39 C40 1.332 . S
C40 H19 0.929 . S
C40 C36 1.407 . S
C40 C39 1.332 . S
H41 C34 0.930 . S
H42 C65 0.930 . S
H43 C66 0.929 . S
O44 Tb0 2.465 1_455 S
O44 C64 1.264 1_455 S
O45 Tb0 2.387 1_455 S
O45 C56 1.264 . S
O46 Tb11 2.349 1_545 S
O46 C56 1.243 . S
O47 Tb0 2.428 . S
O47 C64 1.256 . S
O48 Tb0 2.308 1_465 S
O48 C63 1.266 . S
O49 Tb11 2.393 . S
O49 C63 1.248 . S
O50 Tb11 2.465 1_655 S
O50 C75 1.264 1_655 S
O51 Tb11 2.387 1_655 S
O51 C67 1.264 . S
O52 Tb0 2.349 1_565 S
O52 C67 1.243 . S
O53 Tb11 2.428 . S
O53 C75 1.256 . S
O54 Tb11 2.308 1_645 S
O54 C74 1.266 . S
O55 Tb0 2.393 . S
O55 C74 1.248 . S
C56 O45 1.264 . S
C56 O46 1.243 . S
C57 C60 1.399 . S
C57 C62 1.383 . S
C57 C64 1.496 . S
C58 C59 1.399 . S
C58 C62 1.389 . S
C59 C58 1.399 . S
C59 C61 1.380 . S
C59 H76 0.929 . S
C60 C57 1.399 . S
C60 C61 1.392 . S
C60 H77 0.929 . S
C61 C59 1.380 . S
C61 C60 1.392 . S
C61 H78 0.929 . S
C62 C57 1.383 . S
C62 C58 1.389 . S
C62 H79 0.931 1_645 S
C63 O48 1.266 . S
C63 O49 1.248 . S
C64 Tb0 2.802 . S
C64 O44 1.264 1_655 S
C64 O47 1.256 . S
C64 C57 1.496 . S
C65 C32 1.448 . S
C65 H42 0.930 . S
C65 C66 1.328 . S
C66 C37 1.427 . S
C66 H43 0.929 . S
C66 C65 1.328 . S
C67 O51 1.264 . S
C67 O52 1.243 . S
C68 C71 1.399 . S
C68 C72 1.383 . S
C68 C75 1.496 . S
C69 C70 1.399 . S
C69 C72 1.389 . S
C70 C69 1.399 . S
C70 C73 1.380 . S
C70 H80 0.929 . S
C71 C68 1.399 . S
C71 C73 1.392 . S
C71 H81 0.929 . S
C72 C68 1.383 . S
C72 C69 1.389 . S
C72 H82 0.931 1_465 S
C73 C70 1.380 . S
C73 C71 1.392 . S
C73 H83 0.929 . S
C74 O54 1.266 . S
C74 O55 1.248 . S
C75 Tb11 2.802 . S
C75 O50 1.264 1_455 S
C75 O53 1.256 . S
C75 C68 1.496 . S
H76 C59 0.929 . S
H77 C60 0.929 . S
H78 C61 0.929 . S
H79 C62 0.931 1_465 S
H80 C70 0.929 . S
H81 C71 0.929 . S
H82 C72 0.931 1_645 S
H83 C73 0.929 . S
Tb84 N113 2.617 . S
Tb84 N119 2.572 . S
Tb84 O128 2.465 . S
Tb84 O129 2.387 . S
Tb84 O131 2.428 . S
Tb84 O132 2.308 . S
Tb84 O136 2.349 . S
Tb84 O139 2.393 . S
Tb84 C148 2.802 . S
C85 N86 1.379 . S
C85 C88 1.416 . S
C85 C92 1.424 . S
N86 C85 1.379 . S
N86 C89 1.334 . S
N86 Tb95 2.617 . S
C87 C89 1.390 . S
C87 C90 1.339 . S
C87 H107 0.930 . S
C88 C85 1.416 . S
C88 C90 1.416 . S
C88 C94 1.448 . S
C89 N86 1.334 . S
C89 C87 1.390 . S
C89 H100 0.930 . S
C90 C87 1.339 . S
C90 C88 1.416 . S
C90 H111 0.930 . S
C91 C92 1.413 . S
C91 C93 1.427 . S
C91 C97 1.416 . S
C92 C85 1.424 . S
C92 C91 1.413 . S
C92 N96 1.361 . S
C93 C91 1.427 . S
C93 C94 1.328 . S
C93 H108 0.929 . S
C94 C88 1.448 . S
C94 C93 1.328 . S
C94 H109 0.930 . S
Tb95 N86 2.617 . S
Tb95 N96 2.572 . S
Tb95 O130 2.349 . S
Tb95 O133 2.393 . S
Tb95 O134 2.465 . S
Tb95 O135 2.387 . S
Tb95 O137 2.428 . S
Tb95 O138 2.308 . S
Tb95 C159 2.802 . S
N96 C92 1.361 . S
N96 Tb95 2.572 . S
N96 C98 1.340 . S
C97 C91 1.416 . S
C97 C99 1.332 . S
C97 H105 0.931 . S
C98 N96 1.340 . S
C98 C99 1.407 . S
C98 H104 0.930 . S
C99 C97 1.332 . S
C99 C98 1.407 . S
C99 H101 0.929 . S
H100 C89 0.930 . S
H101 C99 0.929 . S
H102 C117 0.930 . S
H103 C124 0.929 . S
H104 C98 0.930 . S
H105 C97 0.931 . S
H106 C120 0.930 . S
H107 C87 0.930 . S
H108 C93 0.929 . S
H109 C94 0.930 . S
H110 C115 0.930 . S
H111 C90 0.930 . S
H112 C123 0.931 . S
N113 Tb84 2.617 . S
N113 C114 1.379 . S
N113 C117 1.334 . S
C114 N113 1.379 . S
C114 C116 1.416 . S
C114 C122 1.424 . S
C115 H110 0.930 . S
C115 C117 1.390 . S
C115 C118 1.339 . S
C116 C114 1.416 . S
C116 C118 1.416 . S
C116 C149 1.448 . S
C117 H102 0.930 . S
C117 N113 1.334 . S
C117 C115 1.390 . S
C118 C115 1.339 . S
C118 C116 1.416 . S
C118 H125 0.930 . S
N119 Tb84 2.572 . S
N119 C120 1.340 . S
N119 C122 1.361 . S
C120 H106 0.930 . S
C120 N119 1.340 . S
C120 C124 1.407 . S
C121 C122 1.413 . S
C121 C123 1.416 . S
C121 C150 1.427 . S
C122 C114 1.424 . S
C122 N119 1.361 . S
C122 C121 1.413 . S
C123 H112 0.931 . S
C123 C121 1.416 . S
C123 C124 1.332 . S
C124 H103 0.929 . S
C124 C120 1.407 . S
C124 C123 1.332 . S
H125 C118 0.930 . S
H126 C149 0.930 . S
H127 C150 0.929 . S
O128 Tb84 2.465 . S
O128 C148 1.264 . S
O129 Tb84 2.387 . S
O129 C140 1.264 . S
O130 Tb95 2.349 . S
O130 C140 1.243 . S
O131 Tb84 2.428 . S
O131 C148 1.256 . S
O132 Tb84 2.308 . S
O132 C147 1.266 . S
O133 Tb95 2.393 . S
O133 C147 1.248 . S
O134 Tb95 2.465 . S
O134 C159 1.264 . S
O135 Tb95 2.387 . S
O135 C151 1.264 . S
O136 Tb84 2.349 . S
O136 C151 1.243 . S
O137 Tb95 2.428 . S
O137 C159 1.256 . S
O138 Tb95 2.308 . S
O138 C158 1.266 . S
O139 Tb84 2.393 . S
O139 C158 1.248 . S
C140 O129 1.264 . S
C140 O130 1.243 . S
C141 C144 1.399 1_556 S
C141 C146 1.383 1_556 S
C141 C148 1.497 . S
C142 C143 1.399 . S
C142 C146 1.389 . S
C143 C142 1.399 . S
C143 C145 1.380 . S
C143 H160 0.929 . S
C144 C141 1.399 1_554 S
C144 C145 1.392 . S
C144 H161 0.929 1_554 S
C145 C143 1.380 . S
C145 C144 1.392 . S
C145 H162 0.929 . S
C146 C141 1.383 1_554 S
C146 C142 1.389 . S
C146 H163 0.931 . S
C147 O132 1.266 . S
C147 O133 1.248 . S
C148 Tb84 2.802 . S
C148 O128 1.264 . S
C148 O131 1.256 . S
C148 C141 1.497 . S
C149 C116 1.448 . S
C149 H126 0.930 . S
C149 C150 1.328 . S
C150 C121 1.427 . S
C150 H127 0.929 . S
C150 C149 1.328 . S
C151 O135 1.264 . S
C151 O136 1.243 . S
C152 C155 1.399 . S
C152 C156 1.383 . S
C152 C159 1.496 . S
C153 C154 1.399 . S
C153 C156 1.389 . S
C154 C153 1.399 . S
C154 C157 1.380 . S
C154 H164 0.929 . S
C155 C152 1.399 . S
C155 C157 1.392 . S
C155 H165 0.929 . S
C156 C152 1.383 . S
C156 C153 1.389 . S
C156 H166 0.931 . S
C157 C154 1.380 . S
C157 C155 1.392 . S
C157 H167 0.929 . S
C158 O138 1.266 . S
C158 O139 1.248 . S
C159 Tb95 2.802 . S
C159 O134 1.264 . S
C159 O137 1.256 . S
C159 C152 1.496 . S
H160 C143 0.929 . S
H161 C144 0.929 1_556 S
H162 C145 0.929 . S
H163 C146 0.931 . S
H164 C154 0.929 . S
H165 C155 0.929 . S
H166 C156 0.931 . S
H167 C157 0.929 . S
Tb168 N197 2.617 . S
Tb168 N203 2.572 . S
Tb168 O212 2.465 . S
Tb168 O213 2.387 1_554 S
Tb168 O215 2.428 . S
Tb168 O216 2.308 1_565 S
Tb168 O220 2.349 1_565 S
Tb168 O223 2.393 . S
Tb168 C232 2.802 . S
C169 N170 1.379 . S
C169 C172 1.416 . S
C169 C176 1.424 . S
N170 C169 1.379 . S
N170 C173 1.334 . S
N170 Tb179 2.617 . S
C171 C173 1.390 . S
C171 C174 1.339 . S
C171 H191 0.930 . S
C172 C169 1.416 . S
C172 C174 1.416 . S
C172 C178 1.448 . S
C173 N170 1.334 . S
C173 C171 1.390 . S
C173 H184 0.930 . S
C174 C171 1.339 . S
C174 C172 1.416 . S
C174 H195 0.930 . S
C175 C176 1.413 . S
C175 C177 1.427 . S
C175 C181 1.416 . S
C176 C169 1.424 . S
C176 C175 1.413 . S
C176 N180 1.361 . S
C177 C175 1.427 . S
C177 C178 1.328 . S
C177 H192 0.929 . S
C178 C172 1.448 . S
C178 C177 1.328 . S
C178 H193 0.930 . S
Tb179 N170 2.617 . S
Tb179 N180 2.572 . S
Tb179 O214 2.349 1_545 S
Tb179 O217 2.393 . S
Tb179 O218 2.465 . S
Tb179 O219 2.387 1_556 S
Tb179 O221 2.428 . S
Tb179 O222 2.308 1_545 S
Tb179 C243 2.802 . S
N180 C176 1.361 . S
N180 Tb179 2.572 . S
N180 C182 1.340 . S
C181 C175 1.416 . S
C181 C183 1.332 . S
C181 H189 0.931 . S
C182 N180 1.340 . S
C182 C183 1.407 . S
C182 H188 0.930 . S
C183 C181 1.332 . S
C183 C182 1.407 . S
C183 H185 0.929 . S
H184 C173 0.930 . S
H185 C183 0.929 . S
H186 C201 0.930 . S
H187 C208 0.929 . S
H188 C182 0.930 . S
H189 C181 0.931 . S
H190 C204 0.930 . S
H191 C171 0.930 . S
H192 C177 0.929 . S
H193 C178 0.930 . S
H194 C199 0.930 . S
H195 C174 0.930 . S
H196 C207 0.931 . S
N197 Tb168 2.617 . S
N197 C198 1.379 . S
N197 C201 1.334 . S
C198 N197 1.379 . S
C198 C200 1.416 . S
C198 C206 1.424 . S
C199 H194 0.930 . S
C199 C201 1.390 . S
C199 C202 1.339 . S
C200 C198 1.416 . S
C200 C202 1.416 . S
C200 C233 1.448 . S
C201 H186 0.930 . S
C201 N197 1.334 . S
C201 C199 1.390 . S
C202 C199 1.339 . S
C202 C200 1.416 . S
C202 H209 0.930 . S
N203 Tb168 2.572 . S
N203 C204 1.340 . S
N203 C206 1.361 . S
C204 H190 0.930 . S
C204 N203 1.340 . S
C204 C208 1.407 . S
C205 C206 1.413 . S
C205 C207 1.416 . S
C205 C234 1.427 . S
C206 C198 1.424 . S
C206 N203 1.361 . S
C206 C205 1.413 . S
C207 H196 0.931 . S
C207 C205 1.416 . S
C207 C208 1.332 . S
C208 H187 0.929 . S
C208 C204 1.407 . S
C208 C207 1.332 . S
H209 C202 0.930 . S
H210 C233 0.930 . S
H211 C234 0.929 . S
O212 Tb168 2.465 . S
O212 C232 1.264 . S
O213 Tb168 2.387 1_556 S
O213 C224 1.264 . S
O214 Tb179 2.349 1_565 S
O214 C224 1.243 . S
O215 Tb168 2.428 . S
O215 C232 1.256 . S
O216 Tb168 2.308 1_545 S
O216 C231 1.266 . S
O217 Tb179 2.393 . S
O217 C231 1.248 1_556 S
O218 Tb179 2.465 . S
O218 C243 1.264 . S
O219 Tb179 2.387 1_554 S
O219 C235 1.264 . S
O220 Tb168 2.349 1_545 S
O220 C235 1.243 . S
O221 Tb179 2.428 . S
O221 C243 1.256 . S
O222 Tb179 2.308 1_565 S
O222 C242 1.266 . S
O223 Tb168 2.393 . S
O223 C242 1.248 1_554 S
C224 O213 1.264 . S
C224 O214 1.243 . S
C225 C228 1.399 . S
C225 C230 1.383 . S
C225 C232 1.496 . S
C226 C227 1.399 . S
C226 C230 1.389 . S
C227 C226 1.399 . S
C227 C229 1.380 . S
C227 H244 0.929 . S
C228 C225 1.399 . S
C228 C229 1.392 . S
C228 H245 0.929 . S
C229 C227 1.380 . S
C229 C228 1.392 . S
C229 H246 0.929 . S
C230 C225 1.383 . S
C230 C226 1.389 . S
C230 H247 0.931 1_565 S
C231 O216 1.266 . S
C231 O217 1.248 1_554 S
C232 Tb168 2.802 . S
C232 O212 1.264 . S
C232 O215 1.256 . S
C232 C225 1.496 . S
C233 C200 1.448 . S
C233 H210 0.930 . S
C233 C234 1.328 . S
C234 C205 1.427 . S
C234 H211 0.929 . S
C234 C233 1.328 . S
C235 O219 1.264 . S
C235 O220 1.243 . S
C236 C239 1.399 . S
C236 C240 1.383 . S
C236 C243 1.496 . S
C237 C238 1.399 . S
C237 C240 1.389 . S
C238 C237 1.399 . S
C238 C241 1.380 . S
C238 H248 0.929 . S
C239 C236 1.399 . S
C239 C241 1.392 . S
C239 H249 0.929 . S
C240 C236 1.383 . S
C240 C237 1.389 . S
C240 H250 0.931 1_545 S
C241 C238 1.380 . S
C241 C239 1.392 . S
C241 H251 0.929 . S
C242 O222 1.266 . S
C242 O223 1.248 1_556 S
C243 Tb179 2.802 . S
C243 O218 1.264 . S
C243 O221 1.256 . S
C243 C236 1.496 . S
H244 C227 0.929 . S
H245 C228 0.929 . S
H246 C229 0.929 . S
H247 C230 0.931 1_545 S
H248 C238 0.929 . S
H249 C239 0.929 . S
H250 C240 0.931 1_565 S
H251 C241 0.929 . S
Tb252 N281 2.617 . S
Tb252 N287 2.572 . S
Tb252 O296 2.465 . S
Tb252 O297 2.387 . S
Tb252 O299 2.428 . S
Tb252 O300 2.308 . S
Tb252 O304 2.349 . S
Tb252 O307 2.393 . S
Tb252 C316 2.802 . S
C253 N254 1.379 . S
C253 C256 1.416 . S
C253 C260 1.424 . S
N254 C253 1.379 . S
N254 C257 1.334 . S
N254 Tb263 2.617 . S
C255 C257 1.390 . S
C255 C258 1.339 . S
C255 H275 0.930 . S
C256 C253 1.416 . S
C256 C258 1.416 . S
C256 C262 1.448 . S
C257 N254 1.334 . S
C257 C255 1.390 . S
C257 H268 0.930 . S
C258 C255 1.339 . S
C258 C256 1.416 . S
C258 H279 0.930 . S
C259 C260 1.413 . S
C259 C261 1.427 . S
C259 C265 1.416 . S
C260 C253 1.424 . S
C260 C259 1.413 . S
C260 N264 1.361 . S
C261 C259 1.427 . S
C261 C262 1.328 . S
C261 H276 0.929 . S
C262 C256 1.448 . S
C262 C261 1.328 . S
C262 H277 0.930 . S
Tb263 N254 2.617 . S
Tb263 N264 2.572 . S
Tb263 O298 2.349 . S
Tb263 O301 2.393 . S
Tb263 O302 2.465 . S
Tb263 O303 2.387 . S
Tb263 O305 2.428 . S
Tb263 O306 2.308 . S
Tb263 C327 2.802 . S
N264 C260 1.361 . S
N264 Tb263 2.572 . S
N264 C266 1.340 . S
C265 C259 1.416 . S
C265 C267 1.332 . S
C265 H273 0.931 . S
C266 N264 1.340 . S
C266 C267 1.407 . S
C266 H272 0.930 . S
C267 C265 1.332 . S
C267 C266 1.407 . S
C267 H269 0.929 . S
H268 C257 0.930 . S
H269 C267 0.929 . S
H270 C285 0.930 . S
H271 C292 0.929 . S
H272 C266 0.930 . S
H273 C265 0.931 . S
H274 C288 0.930 . S
H275 C255 0.930 . S
H276 C261 0.929 . S
H277 C262 0.930 . S
H278 C283 0.930 . S
H279 C258 0.930 . S
H280 C291 0.931 . S
N281 Tb252 2.617 . S
N281 C282 1.379 . S
N281 C285 1.334 . S
C282 N281 1.379 . S
C282 C284 1.416 . S
C282 C290 1.424 . S
C283 H278 0.930 . S
C283 C285 1.390 . S
C283 C286 1.339 . S
C284 C282 1.416 . S
C284 C286 1.416 . S
C284 C317 1.448 . S
C285 H270 0.930 . S
C285 N281 1.334 . S
C285 C283 1.390 . S
C286 C283 1.339 . S
C286 C284 1.416 . S
C286 H293 0.930 . S
N287 Tb252 2.572 . S
N287 C288 1.340 . S
N287 C290 1.361 . S
C288 H274 0.930 . S
C288 N287 1.340 . S
C288 C292 1.407 . S
C289 C290 1.413 . S
C289 C291 1.416 . S
C289 C318 1.427 . S
C290 C282 1.424 . S
C290 N287 1.361 . S
C290 C289 1.413 . S
C291 H280 0.931 . S
C291 C289 1.416 . S
C291 C292 1.332 . S
C292 H271 0.929 . S
C292 C288 1.407 . S
C292 C291 1.332 . S
H293 C286 0.930 . S
H294 C317 0.930 . S
H295 C318 0.929 . S
O296 Tb252 2.465 . S
O296 C316 1.264 . S
O297 Tb252 2.387 . S
O297 C308 1.264 . S
O298 Tb263 2.349 . S
O298 C308 1.243 . S
O299 Tb252 2.428 . S
O299 C316 1.256 . S
O300 Tb252 2.308 . S
O300 C315 1.266 . S
O301 Tb263 2.393 . S
O301 C315 1.248 . S
O302 Tb263 2.465 . S
O302 C327 1.264 . S
O303 Tb263 2.387 . S
O303 C319 1.264 . S
O304 Tb252 2.349 . S
O304 C319 1.243 . S
O305 Tb263 2.428 . S
O305 C327 1.256 . S
O306 Tb263 2.308 . S
O306 C326 1.266 . S
O307 Tb252 2.393 . S
O307 C326 1.248 . S
C308 O297 1.264 . S
C308 O298 1.243 . S
C309 C312 1.398 1_554 S
C309 C314 1.381 1_554 S
C309 C316 1.499 . S
C310 C311 1.399 . S
C310 C314 1.389 . S
C311 C310 1.399 . S
C311 C313 1.380 . S
C311 H328 0.929 . S
C312 C309 1.398 1_556 S
C312 C313 1.392 . S
C312 H329 0.929 1_556 S
C313 C311 1.380 . S
C313 C312 1.392 . S
C313 H330 0.929 . S
C314 C309 1.381 1_556 S
C314 C310 1.389 . S
C314 H331 0.931 . S
C315 O300 1.266 . S
C315 O301 1.248 . S
C316 Tb252 2.802 . S
C316 O296 1.264 . S
C316 O299 1.256 . S
C316 C309 1.499 . S
C317 C284 1.448 . S
C317 H294 0.930 . S
C317 C318 1.328 . S
C318 C289 1.427 . S
C318 H295 0.929 . S
C318 C317 1.328 . S
C319 O303 1.264 . S
C319 O304 1.243 . S
C320 C323 1.399 . S
C320 C324 1.383 . S
C320 C327 1.496 . S
C321 C322 1.399 . S
C321 C324 1.389 . S
C322 C321 1.399 . S
C322 C325 1.380 . S
C322 H332 0.929 . S
C323 C320 1.399 . S
C323 C325 1.392 . S
C323 H333 0.929 . S
C324 C320 1.383 . S
C324 C321 1.389 . S
C324 H334 0.931 . S
C325 C322 1.380 . S
C325 C323 1.392 . S
C325 H335 0.929 . S
C326 O306 1.266 . S
C326 O307 1.248 . S
C327 Tb263 2.802 . S
C327 O302 1.264 . S
C327 O305 1.256 . S
C327 C320 1.496 . S
H328 C311 0.929 . S
H329 C312 0.929 1_554 S
H330 C313 0.929 . S
H331 C314 0.931 . S
H332 C322 0.929 . S
H333 C323 0.929 . S
H334 C324 0.931 . S
H335 C325 0.929 . S
Tb336 N365 2.617 . S
Tb336 N371 2.572 . S
Tb336 O380 2.465 . S
Tb336 O381 2.387 . S
Tb336 O383 2.428 . S
Tb336 O384 2.308 . S
Tb336 O388 2.349 . S
Tb336 O391 2.393 . S
Tb336 C400 2.802 . S
C337 N338 1.379 . S
C337 C340 1.416 . S
C337 C344 1.424 . S
N338 C337 1.379 . S
N338 C341 1.334 . S
N338 Tb347 2.617 . S
C339 C341 1.390 . S
C339 C342 1.339 . S
C339 H359 0.930 . S
C340 C337 1.416 . S
C340 C342 1.416 . S
C340 C346 1.448 . S
C341 N338 1.334 . S
C341 C339 1.390 . S
C341 H352 0.930 . S
C342 C339 1.339 . S
C342 C340 1.416 . S
C342 H363 0.930 . S
C343 C344 1.413 . S
C343 C345 1.427 . S
C343 C349 1.416 . S
C344 C337 1.424 . S
C344 C343 1.413 . S
C344 N348 1.361 . S
C345 C343 1.427 . S
C345 C346 1.328 . S
C345 H360 0.929 . S
C346 C340 1.448 . S
C346 C345 1.328 . S
C346 H361 0.930 . S
Tb347 N338 2.617 . S
Tb347 N348 2.572 . S
Tb347 O382 2.349 . S
Tb347 O385 2.393 . S
Tb347 O386 2.465 . S
Tb347 O387 2.387 . S
Tb347 O389 2.428 . S
Tb347 O390 2.308 . S
Tb347 C411 2.802 . S
N348 C344 1.361 . S
N348 Tb347 2.572 . S
N348 C350 1.340 . S
C349 C343 1.416 . S
C349 C351 1.332 . S
C349 H357 0.931 . S
C350 N348 1.340 . S
C350 C351 1.407 . S
C350 H356 0.930 . S
C351 C349 1.332 . S
C351 C350 1.407 . S
C351 H353 0.929 . S
H352 C341 0.930 . S
H353 C351 0.929 . S
H354 C369 0.930 . S
H355 C376 0.929 . S
H356 C350 0.930 . S
H357 C349 0.931 . S
H358 C372 0.930 . S
H359 C339 0.930 . S
H360 C345 0.929 . S
H361 C346 0.930 . S
H362 C367 0.930 . S
H363 C342 0.930 . S
H364 C375 0.931 . S
N365 Tb336 2.617 . S
N365 C366 1.379 . S
N365 C369 1.334 . S
C366 N365 1.379 . S
C366 C368 1.416 . S
C366 C374 1.424 . S
C367 H362 0.930 . S
C367 C369 1.390 . S
C367 C370 1.339 . S
C368 C366 1.416 . S
C368 C370 1.416 . S
C368 C401 1.448 . S
C369 H354 0.930 . S
C369 N365 1.334 . S
C369 C367 1.390 . S
C370 C367 1.339 . S
C370 C368 1.416 . S
C370 H377 0.930 . S
N371 Tb336 2.572 . S
N371 C372 1.340 . S
N371 C374 1.361 . S
C372 H358 0.930 . S
C372 N371 1.340 . S
C372 C376 1.407 . S
C373 C374 1.413 . S
C373 C375 1.416 . S
C373 C402 1.427 . S
C374 C366 1.424 . S
C374 N371 1.361 . S
C374 C373 1.413 . S
C375 H364 0.931 . S
C375 C373 1.416 . S
C375 C376 1.332 . S
C376 H355 0.929 . S
C376 C372 1.407 . S
C376 C375 1.332 . S
H377 C370 0.930 . S
H378 C401 0.930 . S
H379 C402 0.929 . S
O380 Tb336 2.465 . S
O380 C400 1.264 . S
O381 Tb336 2.387 . S
O381 C392 1.264 . S
O382 Tb347 2.349 . S
O382 C392 1.243 . S
O383 Tb336 2.428 . S
O383 C400 1.256 . S
O384 Tb336 2.308 . S
O384 C399 1.266 . S
O385 Tb347 2.393 . S
O385 C399 1.248 . S
O386 Tb347 2.465 . S
O386 C411 1.264 . S
O387 Tb347 2.387 . S
O387 C403 1.264 . S
O388 Tb336 2.349 . S
O388 C403 1.243 . S
O389 Tb347 2.428 . S
O389 C411 1.256 . S
O390 Tb347 2.308 . S
O390 C410 1.266 . S
O391 Tb336 2.393 . S
O391 C410 1.248 . S
C392 O381 1.264 . S
C392 O382 1.243 . S
C393 C396 1.399 . S
C393 C398 1.383 . S
C393 C400 1.496 . S
C394 C395 1.399 . S
C394 C398 1.389 . S
C395 C394 1.399 . S
C395 C397 1.380 . S
C395 H412 0.929 . S
C396 C393 1.399 . S
C396 C397 1.392 . S
C396 H413 0.929 . S
C397 C395 1.380 . S
C397 C396 1.392 . S
C397 H414 0.929 . S
C398 C393 1.383 . S
C398 C394 1.389 . S
C398 H415 0.931 . S
C399 O384 1.266 . S
C399 O385 1.248 . S
C400 Tb336 2.802 . S
C400 O380 1.264 . S
C400 O383 1.256 . S
C400 C393 1.496 . S
C401 C368 1.448 . S
C401 H378 0.930 . S
C401 C402 1.328 . S
C402 C373 1.427 . S
C402 H379 0.929 . S
C402 C401 1.328 . S
C403 O387 1.264 . S
C403 O388 1.243 . S
C404 C407 1.399 1_554 S
C404 C408 1.382 1_554 S
C404 C411 1.497 . S
C405 C406 1.399 . S
C405 C408 1.389 . S
C406 C405 1.399 . S
C406 C409 1.380 . S
C406 H416 0.929 . S
C407 C404 1.399 1_556 S
C407 C409 1.392 . S
C407 H417 0.929 1_556 S
C408 C404 1.382 1_556 S
C408 C405 1.389 . S
C408 H418 0.931 . S
C409 C406 1.380 . S
C409 C407 1.392 . S
C409 H419 0.929 . S
C410 O390 1.266 . S
C410 O391 1.248 . S
C411 Tb347 2.802 . S
C411 O386 1.264 . S
C411 O389 1.256 . S
C411 C404 1.497 . S
H412 C395 0.929 . S
H413 C396 0.929 . S
H414 C397 0.929 . S
H415 C398 0.931 . S
H416 C406 0.929 . S
H417 C407 0.929 1_554 S
H418 C408 0.931 . S
H419 C409 0.929 . S
Tb420 N449 2.617 . S
Tb420 N455 2.572 . S
Tb420 O464 2.465 . S
Tb420 O465 2.387 . S
Tb420 O467 2.428 . S
Tb420 O468 2.308 . S
Tb420 O472 2.349 . S
Tb420 O475 2.393 . S
Tb420 C484 2.802 . S
C421 N422 1.379 . S
C421 C424 1.416 . S
C421 C428 1.424 . S
N422 C421 1.379 . S
N422 C425 1.334 . S
N422 Tb431 2.617 . S
C423 C425 1.390 . S
C423 C426 1.339 . S
C423 H443 0.930 . S
C424 C421 1.416 . S
C424 C426 1.416 . S
C424 C430 1.448 . S
C425 N422 1.334 . S
C425 C423 1.390 . S
C425 H436 0.930 . S
C426 C423 1.339 . S
C426 C424 1.416 . S
C426 H447 0.930 . S
C427 C428 1.413 . S
C427 C429 1.427 . S
C427 C433 1.416 . S
C428 C421 1.424 . S
C428 C427 1.413 . S
C428 N432 1.361 . S
C429 C427 1.427 . S
C429 C430 1.328 . S
C429 H444 0.929 . S
C430 C424 1.448 . S
C430 C429 1.328 . S
C430 H445 0.930 . S
Tb431 N422 2.617 . S
Tb431 N432 2.572 . S
Tb431 O466 2.349 . S
Tb431 O469 2.393 . S
Tb431 O470 2.465 . S
Tb431 O471 2.387 . S
Tb431 O473 2.428 . S
Tb431 O474 2.308 . S
Tb431 C495 2.802 . S
N432 C428 1.361 . S
N432 Tb431 2.572 . S
N432 C434 1.340 . S
C433 C427 1.416 . S
C433 C435 1.332 . S
C433 H441 0.931 . S
C434 N432 1.340 . S
C434 C435 1.407 . S
C434 H440 0.930 . S
C435 C433 1.332 . S
C435 C434 1.407 . S
C435 H437 0.929 . S
H436 C425 0.930 . S
H437 C435 0.929 . S
H438 C453 0.930 . S
H439 C460 0.929 . S
H440 C434 0.930 . S
H441 C433 0.931 . S
H442 C456 0.930 . S
H443 C423 0.930 . S
H444 C429 0.929 . S
H445 C430 0.930 . S
H446 C451 0.930 . S
H447 C426 0.930 . S
H448 C459 0.931 . S
N449 Tb420 2.617 . S
N449 C450 1.379 . S
N449 C453 1.334 . S
C450 N449 1.379 . S
C450 C452 1.416 . S
C450 C458 1.424 . S
C451 H446 0.930 . S
C451 C453 1.390 . S
C451 C454 1.339 . S
C452 C450 1.416 . S
C452 C454 1.416 . S
C452 C485 1.448 . S
C453 H438 0.930 . S
C453 N449 1.334 . S
C453 C451 1.390 . S
C454 C451 1.339 . S
C454 C452 1.416 . S
C454 H461 0.930 . S
N455 Tb420 2.572 . S
N455 C456 1.340 . S
N455 C458 1.361 . S
C456 H442 0.930 . S
C456 N455 1.340 . S
C456 C460 1.407 . S
C457 C458 1.413 . S
C457 C459 1.416 . S
C457 C486 1.427 . S
C458 C450 1.424 . S
C458 N455 1.361 . S
C458 C457 1.413 . S
C459 H448 0.931 . S
C459 C457 1.416 . S
C459 C460 1.332 . S
C460 H439 0.929 . S
C460 C456 1.407 . S
C460 C459 1.332 . S
H461 C454 0.930 . S
H462 C485 0.930 . S
H463 C486 0.929 . S
O464 Tb420 2.465 . S
O464 C484 1.264 . S
O465 Tb420 2.387 . S
O465 C476 1.264 . S
O466 Tb431 2.349 . S
O466 C476 1.243 . S
O467 Tb420 2.428 . S
O467 C484 1.256 . S
O468 Tb420 2.308 . S
O468 C483 1.266 . S
O469 Tb431 2.393 . S
O469 C483 1.248 . S
O470 Tb431 2.465 . S
O470 C495 1.264 . S
O471 Tb431 2.387 . S
O471 C487 1.264 . S
O472 Tb420 2.349 . S
O472 C487 1.243 . S
O473 Tb431 2.428 . S
O473 C495 1.256 . S
O474 Tb431 2.308 . S
O474 C494 1.266 . S
O475 Tb420 2.393 . S
O475 C494 1.248 . S
C476 O465 1.264 . S
C476 O466 1.243 . S
C477 C480 1.399 . S
C477 C482 1.383 . S
C477 C484 1.496 . S
C478 C479 1.399 . S
C478 C482 1.389 . S
C479 C478 1.399 . S
C479 C481 1.380 . S
C479 H496 0.929 . S
C480 C477 1.399 . S
C480 C481 1.392 . S
C480 H497 0.929 . S
C481 C479 1.380 . S
C481 C480 1.392 . S
C481 H498 0.929 . S
C482 C477 1.383 . S
C482 C478 1.389 . S
C482 H499 0.931 . S
C483 O468 1.266 . S
C483 O469 1.248 . S
C484 Tb420 2.802 . S
C484 O464 1.264 . S
C484 O467 1.256 . S
C484 C477 1.496 . S
C485 C452 1.448 . S
C485 H462 0.930 . S
C485 C486 1.328 . S
C486 C457 1.427 . S
C486 H463 0.929 . S
C486 C485 1.328 . S
C487 O471 1.264 . S
C487 O472 1.243 . S
C488 C491 1.398 1_556 S
C488 C492 1.381 1_556 S
C488 C495 1.499 . S
C489 C490 1.399 . S
C489 C492 1.389 . S
C490 C489 1.399 . S
C490 C493 1.380 . S
C490 H500 0.929 . S
C491 C488 1.398 1_554 S
C491 C493 1.392 . S
C491 H501 0.929 1_554 S
C492 C488 1.381 1_554 S
C492 C489 1.389 . S
C492 H502 0.931 . S
C493 C490 1.380 . S
C493 C491 1.392 . S
C493 H503 0.929 . S
C494 O474 1.266 . S
C494 O475 1.248 . S
C495 Tb431 2.802 . S
C495 O470 1.264 . S
C495 O473 1.256 . S
C495 C488 1.499 . S
H496 C479 0.929 . S
H497 C480 0.929 . S
H498 C481 0.929 . S
H499 C482 0.931 . S
H500 C490 0.929 . S
H501 C491 0.929 1_556 S
H502 C492 0.931 . S
H503 C493 0.929 . S
Tb504 N533 2.617 . S
Tb504 N539 2.572 . S
Tb504 O548 2.465 . S
Tb504 O549 2.387 1_554 S
Tb504 O551 2.428 . S
Tb504 O552 2.308 . S
Tb504 O556 2.349 . S
Tb504 O559 2.393 . S
Tb504 C568 2.802 . S
C505 N506 1.379 . S
C505 C508 1.416 . S
C505 C512 1.424 . S
N506 C505 1.379 . S
N506 C509 1.334 . S
N506 Tb515 2.617 . S
C507 C509 1.390 . S
C507 C510 1.339 . S
C507 H527 0.930 . S
C508 C505 1.416 . S
C508 C510 1.416 . S
C508 C514 1.448 . S
C509 N506 1.334 . S
C509 C507 1.390 . S
C509 H520 0.930 . S
C510 C507 1.339 . S
C510 C508 1.416 . S
C510 H531 0.930 . S
C511 C512 1.413 . S
C511 C513 1.427 . S
C511 C517 1.416 . S
C512 C505 1.424 . S
C512 C511 1.413 . S
C512 N516 1.361 . S
C513 C511 1.427 . S
C513 C514 1.328 . S
C513 H528 0.929 . S
C514 C508 1.448 . S
C514 C513 1.328 . S
C514 H529 0.930 . S
Tb515 N506 2.617 . S
Tb515 N516 2.572 . S
Tb515 O550 2.349 . S
Tb515 O553 2.393 . S
Tb515 O554 2.465 . S
Tb515 O555 2.387 1_556 S
Tb515 O557 2.428 . S
Tb515 O558 2.308 . S
Tb515 C579 2.802 . S
N516 C512 1.361 . S
N516 Tb515 2.572 . S
N516 C518 1.340 . S
C517 C511 1.416 . S
C517 C519 1.332 . S
C517 H525 0.931 . S
C518 N516 1.340 . S
C518 C519 1.407 . S
C518 H524 0.930 . S
C519 C517 1.332 . S
C519 C518 1.407 . S
C519 H521 0.929 . S
H520 C509 0.930 . S
H521 C519 0.929 . S
H522 C537 0.930 . S
H523 C544 0.929 . S
H524 C518 0.930 . S
H525 C517 0.931 . S
H526 C540 0.930 . S
H527 C507 0.930 . S
H528 C513 0.929 . S
H529 C514 0.930 . S
H530 C535 0.930 . S
H531 C510 0.930 . S
H532 C543 0.931 . S
N533 Tb504 2.617 . S
N533 C534 1.379 . S
N533 C537 1.334 . S
C534 N533 1.379 . S
C534 C536 1.416 . S
C534 C542 1.424 . S
C535 H530 0.930 . S
C535 C537 1.390 . S
C535 C538 1.339 . S
C536 C534 1.416 . S
C536 C538 1.416 . S
C536 C569 1.448 . S
C537 H522 0.930 . S
C537 N533 1.334 . S
C537 C535 1.390 . S
C538 C535 1.339 . S
C538 C536 1.416 . S
C538 H545 0.930 . S
N539 Tb504 2.572 . S
N539 C540 1.340 . S
N539 C542 1.361 . S
C540 H526 0.930 . S
C540 N539 1.340 . S
C540 C544 1.407 . S
C541 C542 1.413 . S
C541 C543 1.416 . S
C541 C570 1.427 . S
C542 C534 1.424 . S
C542 N539 1.361 . S
C542 C541 1.413 . S
C543 H532 0.931 . S
C543 C541 1.416 . S
C543 C544 1.332 . S
C544 H523 0.929 . S
C544 C540 1.407 . S
C544 C543 1.332 . S
H545 C538 0.930 . S
H546 C569 0.930 . S
H547 C570 0.929 . S
O548 Tb504 2.465 . S
O548 C568 1.264 . S
O549 Tb504 2.387 1_556 S
O549 C560 1.264 . S
O550 Tb515 2.349 . S
O550 C560 1.243 . S
O551 Tb504 2.428 . S
O551 C568 1.256 . S
O552 Tb504 2.308 . S
O552 C567 1.266 . S
O553 Tb515 2.393 . S
O553 C567 1.248 1_556 S
O554 Tb515 2.465 . S
O554 C579 1.264 . S
O555 Tb515 2.387 1_554 S
O555 C571 1.264 . S
O556 Tb504 2.349 . S
O556 C571 1.243 . S
O557 Tb515 2.428 . S
O557 C579 1.256 . S
O558 Tb515 2.308 . S
O558 C578 1.266 . S
O559 Tb504 2.393 . S
O559 C578 1.248 1_554 S
C560 O549 1.264 . S
C560 O550 1.243 . S
C561 C564 1.399 . S
C561 C566 1.383 . S
C561 C568 1.496 . S
C562 C563 1.399 . S
C562 C566 1.389 . S
C563 C562 1.399 . S
C563 C565 1.380 . S
C563 H580 0.929 . S
C564 C561 1.399 . S
C564 C565 1.392 . S
C564 H581 0.929 . S
C565 C563 1.380 . S
C565 C564 1.392 . S
C565 H582 0.929 . S
C566 C561 1.383 . S
C566 C562 1.389 . S
C566 H583 0.931 . S
C567 O552 1.266 . S
C567 O553 1.248 1_554 S
C568 Tb504 2.802 . S
C568 O548 1.264 . S
C568 O551 1.256 . S
C568 C561 1.496 . S
C569 C536 1.448 . S
C569 H546 0.930 . S
C569 C570 1.328 . S
C570 C541 1.427 . S
C570 H547 0.929 . S
C570 C569 1.328 . S
C571 O555 1.264 . S
C571 O556 1.243 . S
C572 C575 1.399 . S
C572 C576 1.383 . S
C572 C579 1.496 . S
C573 C574 1.399 . S
C573 C576 1.389 . S
C574 C573 1.399 . S
C574 C577 1.380 . S
C574 H584 0.929 . S
C575 C572 1.399 . S
C575 C577 1.392 . S
C575 H585 0.929 . S
C576 C572 1.383 . S
C576 C573 1.389 . S
C576 H586 0.931 . S
C577 C574 1.380 . S
C577 C575 1.392 . S
C577 H587 0.929 . S
C578 O558 1.266 . S
C578 O559 1.248 1_556 S
C579 Tb515 2.802 . S
C579 O554 1.264 . S
C579 O557 1.256 . S
C579 C572 1.496 . S
H580 C563 0.929 . S
H581 C564 0.929 . S
H582 C565 0.929 . S
H583 C566 0.931 . S
H584 C574 0.929 . S
H585 C575 0.929 . S
H586 C576 0.931 . S
H587 C577 0.929 . S
Tb588 N617 2.617 . S
Tb588 N623 2.572 1_455 S
Tb588 O632 2.465 1_455 S
Tb588 O633 2.387 1_455 S
Tb588 O635 2.428 . S
Tb588 O636 2.308 1_455 S
Tb588 O640 2.349 . S
Tb588 O643 2.393 . S
Tb588 C652 2.802 . S
C589 N590 1.379 1_455 S
C589 C592 1.416 . S
C589 C596 1.424 . S
N590 C589 1.379 1_655 S
N590 C593 1.334 . S
N590 Tb599 2.617 . S
C591 C593 1.390 . S
C591 C594 1.339 . S
C591 H611 0.930 . S
C592 C589 1.416 . S
C592 C594 1.416 1_455 S
C592 C598 1.448 . S
C593 N590 1.334 . S
C593 C591 1.390 . S
C593 H604 0.930 . S
C594 C591 1.339 . S
C594 C592 1.416 1_655 S
C594 H615 0.930 . S
C595 C596 1.413 . S
C595 C597 1.427 . S
C595 C601 1.416 . S
C596 C589 1.424 . S
C596 C595 1.413 . S
C596 N600 1.361 . S
C597 C595 1.427 . S
C597 C598 1.328 . S
C597 H612 0.929 . S
C598 C592 1.448 . S
C598 C597 1.328 . S
C598 H613 0.930 . S
Tb599 N590 2.617 . S
Tb599 N600 2.572 1_655 S
Tb599 O634 2.349 . S
Tb599 O637 2.393 . S
Tb599 O638 2.465 1_655 S
Tb599 O639 2.387 1_655 S
Tb599 O641 2.428 . S
Tb599 O642 2.308 1_655 S
Tb599 C663 2.802 . S
N600 C596 1.361 . S
N600 Tb599 2.572 1_455 S
N600 C602 1.340 . S
C601 C595 1.416 . S
C601 C603 1.332 . S
C601 H609 0.931 . S
C602 N600 1.340 . S
C602 C603 1.407 . S
C602 H608 0.930 . S
C603 C601 1.332 . S
C603 C602 1.407 . S
C603 H605 0.929 . S
H604 C593 0.930 . S
H605 C603 0.929 . S
H606 C621 0.930 . S
H607 C628 0.929 . S
H608 C602 0.930 . S
H609 C601 0.931 . S
H610 C624 0.930 . S
H611 C591 0.930 . S
H612 C597 0.929 . S
H613 C598 0.930 . S
H614 C619 0.930 . S
H615 C594 0.930 . S
H616 C627 0.931 . S
N617 Tb588 2.617 . S
N617 C618 1.379 1_455 S
N617 C621 1.334 . S
C618 N617 1.379 1_655 S
C618 C620 1.416 . S
C618 C626 1.424 . S
C619 H614 0.930 . S
C619 C621 1.390 . S
C619 C622 1.339 . S
C620 C618 1.416 . S
C620 C622 1.416 1_655 S
C620 C653 1.448 . S
C621 H606 0.930 . S
C621 N617 1.334 . S
C621 C619 1.390 . S
C622 C619 1.339 . S
C622 C620 1.416 1_455 S
C622 H629 0.930 . S
N623 Tb588 2.572 1_655 S
N623 C624 1.340 . S
N623 C626 1.361 . S
C624 H610 0.930 . S
C624 N623 1.340 . S
C624 C628 1.407 . S
C625 C626 1.413 . S
C625 C627 1.416 . S
C625 C654 1.427 . S
C626 C618 1.424 . S
C626 N623 1.361 . S
C626 C625 1.413 . S
C627 H616 0.931 . S
C627 C625 1.416 . S
C627 C628 1.332 . S
C628 H607 0.929 . S
C628 C624 1.407 . S
C628 C627 1.332 . S
H629 C622 0.930 . S
H630 C653 0.930 . S
H631 C654 0.929 . S
O632 Tb588 2.465 1_655 S
O632 C652 1.264 1_655 S
O633 Tb588 2.387 1_655 S
O633 C644 1.264 . S
O634 Tb599 2.349 . S
O634 C644 1.243 . S
O635 Tb588 2.428 . S
O635 C652 1.256 . S
O636 Tb588 2.308 1_655 S
O636 C651 1.266 . S
O637 Tb599 2.393 . S
O637 C651 1.248 . S
O638 Tb599 2.465 1_455 S
O638 C663 1.264 1_455 S
O639 Tb599 2.387 1_455 S
O639 C655 1.264 . S
O640 Tb588 2.349 . S
O640 C655 1.243 . S
O641 Tb599 2.428 . S
O641 C663 1.256 . S
O642 Tb599 2.308 1_455 S
O642 C662 1.266 . S
O643 Tb588 2.393 . S
O643 C662 1.248 . S
C644 O633 1.264 . S
C644 O634 1.243 . S
C645 C648 1.399 . S
C645 C650 1.383 . S
C645 C652 1.496 . S
C646 C647 1.399 . S
C646 C650 1.389 . S
C647 C646 1.399 . S
C647 C649 1.380 . S
C647 H664 0.929 . S
C648 C645 1.399 . S
C648 C649 1.392 . S
C648 H665 0.929 . S
C649 C647 1.380 . S
C649 C648 1.392 . S
C649 H666 0.929 . S
C650 C645 1.383 . S
C650 C646 1.389 . S
C650 H667 0.931 1_455 S
C651 O636 1.266 . S
C651 O637 1.248 . S
C652 Tb588 2.802 . S
C652 O632 1.264 1_455 S
C652 O635 1.256 . S
C652 C645 1.496 . S
C653 C620 1.448 . S
C653 H630 0.930 . S
C653 C654 1.328 . S
C654 C625 1.427 . S
C654 H631 0.929 . S
C654 C653 1.328 . S
C655 O639 1.264 . S
C655 O640 1.243 . S
C656 C659 1.399 . S
C656 C660 1.383 . S
C656 C663 1.496 . S
C657 C658 1.399 . S
C657 C660 1.389 . S
C658 C657 1.399 . S
C658 C661 1.380 . S
C658 H668 0.929 . S
C659 C656 1.399 . S
C659 C661 1.392 . S
C659 H669 0.929 . S
C660 C656 1.383 . S
C660 C657 1.389 . S
C660 H670 0.931 1_655 S
C661 C658 1.380 . S
C661 C659 1.392 . S
C661 H671 0.929 . S
C662 O642 1.266 . S
C662 O643 1.248 . S
C663 Tb599 2.802 . S
C663 O638 1.264 1_655 S
C663 O641 1.256 . S
C663 C656 1.496 . S
H664 C647 0.929 . S
H665 C648 0.929 . S
H666 C649 0.929 . S
H667 C650 0.931 1_655 S
H668 C658 0.929 . S
H669 C659 0.929 . S
H670 C660 0.931 1_455 S
H671 C661 0.929 . S
H672 C678 0.930 . S
H673 C681 0.930 . S
H674 C682 0.930 . S
H675 C683 0.930 . S
H676 C686 0.930 . S
H677 C687 0.930 . S
C678 H672 0.930 . S
C678 C679 1.355 . S
C678 C680 1.415 . S
C679 C678 1.355 . S
C679 C681 1.419 . S
C680 C678 1.415 . S
C680 C685 1.425 . S
C680 C687 1.409 . S
C681 H673 0.930 . S
C681 C679 1.419 . S
C681 C682 1.362 . S
C682 H674 0.930 . S
C682 C681 1.362 . S
C682 C685 1.409 . S
C683 H675 0.930 . S
C683 C684 1.355 . S
C683 C685 1.415 . S
C684 C683 1.355 . S
C684 C686 1.419 . S
C685 C680 1.425 . S
C685 C682 1.409 . S
C685 C683 1.415 . S
C686 H676 0.930 . S
C686 C684 1.419 . S
C686 C687 1.362 . S
C687 H677 0.930 . S
C687 C680 1.409 . S
C687 C686 1.362 . S
H688 C694 0.930 . S
H689 C697 0.930 . S
H690 C698 0.930 . S
H691 C699 0.930 . S
H692 C702 0.930 . S
H693 C703 0.930 . S
C694 H688 0.930 . S
C694 C695 1.355 . S
C694 C696 1.415 . S
C695 C694 1.355 . S
C695 C697 1.419 . S
C696 C694 1.415 . S
C696 C701 1.425 . S
C696 C703 1.409 . S
C697 H689 0.930 . S
C697 C695 1.419 . S
C697 C698 1.362 . S
C698 H690 0.930 . S
C698 C697 1.362 . S
C698 C701 1.409 . S
C699 H691 0.930 . S
C699 C700 1.355 . S
C699 C701 1.415 . S
C700 C699 1.355 . S
C700 C702 1.419 . S
C701 C696 1.425 . S
C701 C698 1.409 . S
C701 C699 1.415 . S
C702 H692 0.930 . S
C702 C700 1.419 . S
C702 C703 1.362 . S
C703 H693 0.930 . S
C703 C696 1.409 . S
C703 C702 1.362 . S
H704 C710 0.930 . S
H705 C713 0.930 . S
H706 C714 0.930 . S
H707 C715 0.930 . S
H708 C718 0.930 . S
H709 C719 0.930 . S
C710 H704 0.930 . S
C710 C711 1.355 . S
C710 C712 1.415 . S
C711 C710 1.355 . S
C711 C713 1.419 . S
C712 C710 1.415 . S
C712 C717 1.425 . S
C712 C719 1.409 . S
C713 H705 0.930 . S
C713 C711 1.419 . S
C713 C714 1.362 . S
C714 H706 0.930 . S
C714 C713 1.362 . S
C714 C717 1.409 . S
C715 H707 0.930 . S
C715 C716 1.355 . S
C715 C717 1.415 . S
C716 C715 1.355 . S
C716 C718 1.419 . S
C717 C712 1.425 . S
C717 C714 1.409 . S
C717 C715 1.415 . S
C718 H708 0.930 . S
C718 C716 1.419 . S
C718 C719 1.362 . S
C719 H709 0.930 . S
C719 C712 1.409 . S
C719 C718 1.362 . S
H720 C726 0.930 . S
H721 C729 0.930 . S
H722 C730 0.930 . S
H723 C731 0.930 . S
H724 C734 0.930 . S
H725 C735 0.930 . S
C726 H720 0.930 . S
C726 C727 1.355 . S
C726 C728 1.415 . S
C727 C726 1.355 . S
C727 C729 1.419 . S
C728 C726 1.415 . S
C728 C733 1.425 . S
C728 C735 1.409 . S
C729 H721 0.930 . S
C729 C727 1.419 . S
C729 C730 1.362 . S
C730 H722 0.930 . S
C730 C729 1.362 . S
C730 C733 1.409 . S
C731 H723 0.930 . S
C731 C732 1.355 . S
C731 C733 1.415 . S
C732 C731 1.355 . S
C732 C734 1.419 . S
C733 C728 1.425 . S
C733 C730 1.409 . S
C733 C731 1.415 . S
C734 H724 0.930 . S
C734 C732 1.419 . S
C734 C735 1.362 . S
C735 H725 0.930 . S
C735 C728 1.409 . S
C735 C734 1.362 . S
H736 C742 0.930 . S
H737 C745 0.930 . S
H738 C746 0.930 . S
H739 C747 0.930 . S
H740 C750 0.930 . S
H741 C751 0.930 . S
C742 H736 0.930 . S
C742 C743 1.355 . S
C742 C744 1.415 . S
C743 C742 1.355 . S
C743 C745 1.419 . S
C744 C742 1.415 . S
C744 C749 1.425 . S
C744 C751 1.409 . S
C745 H737 0.930 . S
C745 C743 1.419 . S
C745 C746 1.362 . S
C746 H738 0.930 . S
C746 C745 1.362 . S
C746 C749 1.409 . S
C747 H739 0.930 . S
C747 C748 1.355 . S
C747 C749 1.415 . S
C748 C747 1.355 . S
C748 C750 1.419 . S
C749 C744 1.425 . S
C749 C746 1.409 . S
C749 C747 1.415 . S
C750 H740 0.930 . S
C750 C748 1.419 . S
C750 C751 1.362 . S
C751 H741 0.930 . S
C751 C744 1.409 . S
C751 C750 1.362 . S
H752 C758 0.930 . S
H753 C761 0.930 . S
H754 C762 0.930 . S
H755 C763 0.930 . S
H756 C766 0.930 . S
H757 C767 0.930 . S
C758 H752 0.930 . S
C758 C759 1.355 . S
C758 C760 1.415 . S
C759 C758 1.355 . S
C759 C761 1.419 . S
C760 C758 1.415 . S
C760 C765 1.425 . S
C760 C767 1.409 . S
C761 H753 0.930 . S
C761 C759 1.419 . S
C761 C762 1.362 . S
C762 H754 0.930 . S
C762 C761 1.362 . S
C762 C765 1.409 . S
C763 H755 0.930 . S
C763 C764 1.355 . S
C763 C765 1.415 . S
C764 C763 1.355 . S
C764 C766 1.419 . S
C765 C760 1.425 . S
C765 C762 1.409 . S
C765 C763 1.415 . S
C766 H756 0.930 . S
C766 C764 1.419 . S
C766 C767 1.362 . S
C767 H757 0.930 . S
C767 C760 1.409 . S
C767 C766 1.362 . S
H768 C774 0.930 . S
H769 C777 0.930 . S
H770 C778 0.930 . S
H771 C779 0.930 . S
H772 C782 0.930 1_556 S
H773 C783 0.930 . S
C774 H768 0.930 . S
C774 C775 1.355 . S
C774 C776 1.415 . S
C775 C774 1.355 . S
C775 C777 1.419 . S
C776 C774 1.415 . S
C776 C781 1.425 . S
C776 C783 1.409 . S
C777 H769 0.930 . S
C777 C775 1.419 . S
C777 C778 1.362 . S
C778 H770 0.930 . S
C778 C777 1.362 . S
C778 C781 1.409 . S
C779 H771 0.930 . S
C779 C780 1.355 . S
C779 C781 1.415 . S
C780 C779 1.355 . S
C780 C782 1.419 . S
C781 C776 1.425 . S
C781 C778 1.409 . S
C781 C779 1.415 . S
C782 H772 0.930 1_554 S
C782 C780 1.419 . S
C782 C783 1.362 . S
C783 H773 0.930 . S
C783 C776 1.409 . S
C783 C782 1.362 . S
H784 C790 0.930 . S
H785 C793 0.930 . S
H786 C794 0.930 . S
H787 C795 0.930 . S
H788 C798 0.930 . S
H789 C799 0.930 . S
C790 H784 0.930 . S
C790 C791 1.355 . S
C790 C792 1.415 . S
C791 C790 1.355 . S
C791 C793 1.419 . S
C792 C790 1.415 . S
C792 C797 1.425 . S
C792 C799 1.409 . S
C793 H785 0.930 . S
C793 C791 1.419 . S
C793 C794 1.362 . S
C794 H786 0.930 . S
C794 C793 1.362 . S
C794 C797 1.409 . S
C795 H787 0.930 . S
C795 C796 1.355 . S
C795 C797 1.415 . S
C796 C795 1.355 . S
C796 C798 1.419 . S
C797 C792 1.425 . S
C797 C794 1.409 . S
C797 C795 1.415 . S
C798 H788 0.930 . S
C798 C796 1.419 . S
C798 C799 1.362 . S
C799 H789 0.930 . S
C799 C792 1.409 . S
C799 C798 1.362 . S
H800 C806 0.930 . S
H801 C809 0.930 . S
H802 C810 0.930 . S
H803 C811 0.930 . S
H804 C814 0.930 . S
H805 C815 0.930 . S
C806 H800 0.930 . S
C806 C807 1.355 . S
C806 C808 1.415 . S
C807 C806 1.355 . S
C807 C809 1.419 . S
C808 C806 1.415 . S
C808 C813 1.425 . S
C808 C815 1.409 . S
C809 H801 0.930 . S
C809 C807 1.419 . S
C809 C810 1.362 . S
C810 H802 0.930 . S
C810 C809 1.362 . S
C810 C813 1.409 . S
C811 H803 0.930 . S
C811 C812 1.355 . S
C811 C813 1.415 . S
C812 C811 1.355 . S
C812 C814 1.419 . S
C813 C808 1.425 . S
C813 C810 1.409 . S
C813 C811 1.415 . S
C814 H804 0.930 . S
C814 C812 1.419 . S
C814 C815 1.362 . S
C815 H805 0.930 . S
C815 C808 1.409 . S
C815 C814 1.362 . S
H816 C822 0.930 . S
H817 C825 0.930 . S
H818 C826 0.930 . S
H819 C827 0.930 . S
H820 C830 0.930 . S
H821 C831 0.930 . S
C822 H816 0.930 . S
C822 C823 1.355 . S
C822 C824 1.415 . S
C823 C822 1.355 . S
C823 C825 1.419 . S
C824 C822 1.415 . S
C824 C829 1.425 . S
C824 C831 1.409 . S
C825 H817 0.930 . S
C825 C823 1.419 . S
C825 C826 1.362 . S
C826 H818 0.930 . S
C826 C825 1.362 . S
C826 C829 1.409 . S
C827 H819 0.930 . S
C827 C828 1.355 . S
C827 C829 1.415 . S
C828 C827 1.355 . S
C828 C830 1.419 . S
C829 C824 1.425 . S
C829 C826 1.409 . S
C829 C827 1.415 . S
C830 H820 0.930 . S
C830 C828 1.419 . S
C830 C831 1.362 . S
C831 H821 0.930 . S
C831 C824 1.409 . S
C831 C830 1.362 . S
H832 C838 0.930 . S
H833 C841 0.930 . S
H834 C842 0.930 . S
H835 C843 0.930 . S
H836 C846 0.930 . S
H837 C847 0.930 . S
C838 H832 0.930 . S
C838 C839 1.355 . S
C838 C840 1.415 . S
C839 C838 1.355 . S
C839 C841 1.419 . S
C840 C838 1.415 . S
C840 C845 1.425 . S
C840 C847 1.409 . S
C841 H833 0.930 . S
C841 C839 1.419 . S
C841 C842 1.362 . S
C842 H834 0.930 . S
C842 C841 1.362 . S
C842 C845 1.409 . S
C843 H835 0.930 . S
C843 C844 1.355 . S
C843 C845 1.415 . S
C844 C843 1.355 . S
C844 C846 1.419 . S
C845 C840 1.425 . S
C845 C842 1.409 . S
C845 C843 1.415 . S
C846 H836 0.930 . S
C846 C844 1.419 . S
C846 C847 1.362 . S
C847 H837 0.930 . S
C847 C840 1.409 . S
C847 C846 1.362 . S
H848 C854 0.930 . S
H849 C857 0.930 . S
H850 C858 0.930 . S
H851 C859 0.930 . S
H852 C862 0.930 . S
H853 C863 0.930 . S
C854 H848 0.930 . S
C854 C855 1.355 . S
C854 C856 1.415 . S
C855 C854 1.355 . S
C855 C857 1.419 . S
C856 C854 1.415 . S
C856 C861 1.425 . S
C856 C863 1.409 . S
C857 H849 0.930 . S
C857 C855 1.419 . S
C857 C858 1.362 . S
C858 H850 0.930 . S
C858 C857 1.362 . S
C858 C861 1.409 . S
C859 H851 0.930 . S
C859 C860 1.355 . S
C859 C861 1.415 . S
C860 C859 1.355 . S
C860 C862 1.419 . S
C861 C856 1.425 . S
C861 C858 1.409 . S
C861 C859 1.415 . S
C862 H852 0.930 . S
C862 C860 1.419 . S
C862 C863 1.362 . S
C863 H853 0.930 . S
C863 C856 1.409 . S
C863 C862 1.362 . S
H864 C870 0.930 . S
H865 C873 0.930 . S
H866 C874 0.930 . S
H867 C875 0.930 . S
H868 C878 0.930 . S
H869 C879 0.930 . S
C870 H864 0.930 . S
C870 C871 1.355 . S
C870 C872 1.415 . S
C871 C870 1.355 . S
C871 C873 1.419 . S
C872 C870 1.415 . S
C872 C877 1.425 . S
C872 C879 1.409 . S
C873 H865 0.930 . S
C873 C871 1.419 . S
C873 C874 1.362 . S
C874 H866 0.930 . S
C874 C873 1.362 . S
C874 C877 1.409 . S
C875 H867 0.930 . S
C875 C876 1.355 . S
C875 C877 1.415 . S
C876 C875 1.355 . S
C876 C878 1.419 . S
C877 C872 1.425 . S
C877 C874 1.409 . S
C877 C875 1.415 . S
C878 H868 0.930 . S
C878 C876 1.419 . S
C878 C879 1.362 . S
C879 H869 0.930 . S
C879 C872 1.409 . S
C879 C878 1.362 . S
H880 C886 0.930 . S
H881 C889 0.930 . S
H882 C890 0.930 . S
H883 C891 0.930 . S
H884 C894 0.930 . S
H885 C895 0.930 . S
C886 H880 0.930 . S
C886 C887 1.355 . S
C886 C888 1.415 . S
C887 C886 1.355 . S
C887 C889 1.419 . S
C888 C886 1.415 . S
C888 C893 1.425 . S
C888 C895 1.409 . S
C889 H881 0.930 . S
C889 C887 1.419 . S
C889 C890 1.362 . S
C890 H882 0.930 . S
C890 C889 1.362 . S
C890 C893 1.409 . S
C891 H883 0.930 . S
C891 C892 1.355 . S
C891 C893 1.415 . S
C892 C891 1.355 . S
C892 C894 1.419 . S
C893 C888 1.425 . S
C893 C890 1.409 . S
C893 C891 1.415 . S
C894 H884 0.930 . S
C894 C892 1.419 . S
C894 C895 1.362 . S
C895 H885 0.930 . S
C895 C888 1.409 . S
C895 C894 1.362 . S
H896 C902 0.930 . S
H897 C905 0.930 . S
H898 C906 0.930 . S
H899 C907 0.930 . S
H900 C910 0.930 . S
H901 C911 0.930 . S
C902 H896 0.930 . S
C902 C903 1.355 . S
C902 C904 1.415 . S
C903 C902 1.355 . S
C903 C905 1.419 . S
C904 C902 1.415 . S
C904 C909 1.425 . S
C904 C911 1.409 . S
C905 H897 0.930 . S
C905 C903 1.419 . S
C905 C906 1.362 . S
C906 H898 0.930 . S
C906 C905 1.362 . S
C906 C909 1.409 . S
C907 H899 0.930 . S
C907 C908 1.355 . S
C907 C909 1.415 . S
C908 C907 1.355 . S
C908 C910 1.419 . S
C909 C904 1.425 . S
C909 C906 1.409 . S
C909 C907 1.415 . S
C910 H900 0.930 . S
C910 C908 1.419 . S
C910 C911 1.362 . S
C911 H901 0.930 . S
C911 C904 1.409 . S
C911 C910 1.362 . S
H912 C918 0.930 . S
H913 C921 0.930 . S
H914 C922 0.930 . S
H915 C923 0.930 . S
H916 C926 0.930 . S
H917 C927 0.930 . S
C918 H912 0.930 . S
C918 C919 1.355 . S
C918 C920 1.415 . S
C919 C918 1.355 . S
C919 C921 1.419 . S
C920 C918 1.415 . S
C920 C925 1.425 . S
C920 C927 1.409 . S
C921 H913 0.930 . S
C921 C919 1.419 . S
C921 C922 1.362 . S
C922 H914 0.930 . S
C922 C921 1.362 . S
C922 C925 1.409 . S
C923 H915 0.930 . S
C923 C924 1.355 . S
C923 C925 1.415 . S
C924 C923 1.355 . S
C924 C926 1.419 . S
C925 C920 1.425 . S
C925 C922 1.409 . S
C925 C923 1.415 . S
C926 H916 0.930 . S
C926 C924 1.419 . S
C926 C927 1.362 . S
C927 H917 0.930 . S
C927 C920 1.409 . S
C927 C926 1.362 . S
H928 C934 0.930 . S
H929 C937 0.930 . S
H930 C938 0.930 . S
H931 C939 0.930 . S
H932 C942 0.930 . S
H933 C943 0.930 . S
C934 H928 0.930 . S
C934 C935 1.355 1_565 S
C934 C936 1.415 . S
C935 C934 1.355 1_545 S
C935 C937 1.419 1_655 S
C936 C934 1.415 . S
C936 C941 1.425 1_666 S
C936 C943 1.409 1_556 S
C937 H929 0.930 . S
C937 C935 1.419 1_455 S
C937 C938 1.362 . S
C938 H930 0.930 . S
C938 C937 1.362 . S
C938 C941 1.409 1_556 S
C939 H931 0.930 . S
C939 C940 1.336 1_545 S
C939 C941 1.415 . S
C940 C939 1.336 1_565 S
C940 C942 1.443 1_455 S
C941 C936 1.425 1_444 S
C941 C938 1.409 1_554 S
C941 C939 1.415 . S
C942 H932 0.930 . S
C942 C940 1.443 1_655 S
C942 C943 1.362 . S
C943 H933 0.930 . S
C943 C936 1.409 1_554 S
C943 C942 1.362 . S
H944 C950 0.930 . S
H945 C953 0.930 . S
H946 C954 0.930 . S
H947 C955 0.930 . S
H948 C958 0.930 . S
H949 C959 0.930 . S
C950 H944 0.930 . S
C950 C951 1.355 . S
C950 C952 1.415 . S
C951 C950 1.355 . S
C951 C953 1.419 . S
C952 C950 1.415 . S
C952 C957 1.425 . S
C952 C959 1.409 . S
C953 H945 0.930 . S
C953 C951 1.419 . S
C953 C954 1.362 . S
C954 H946 0.930 . S
C954 C953 1.362 . S
C954 C957 1.409 . S
C955 H947 0.930 . S
C955 C956 1.355 . S
C955 C957 1.415 . S
C956 C955 1.355 . S
C956 C958 1.419 . S
C957 C952 1.425 . S
C957 C954 1.409 . S
C957 C955 1.415 . S
C958 H948 0.930 . S
C958 C956 1.419 . S
C958 C959 1.362 . S
C959 H949 0.930 . S
C959 C952 1.409 . S
C959 C958 1.362 . S
H960 C966 0.930 . S
H961 C969 0.930 . S
H962 C970 0.930 . S
H963 C971 0.930 . S
H964 C974 0.930 . S
H965 C975 0.930 . S
C966 H960 0.930 . S
C966 C967 1.355 1_545 S
C966 C968 1.415 . S
C967 C966 1.355 1_565 S
C967 C969 1.419 . S
C968 C966 1.415 . S
C968 C973 1.425 1_545 S
C968 C975 1.409 . S
C969 H961 0.930 . S
C969 C967 1.419 . S
C969 C970 1.362 . S
C970 H962 0.930 . S
C970 C969 1.362 . S
C970 C973 1.409 . S
C971 H963 0.930 . S
C971 C972 1.355 1_565 S
C971 C973 1.415 . S
C972 C971 1.355 1_545 S
C972 C974 1.419 . S
C973 C968 1.425 1_565 S
C973 C970 1.409 . S
C973 C971 1.415 . S
C974 H964 0.930 . S
C974 C972 1.419 . S
C974 C975 1.362 . S
C975 H965 0.930 . S
C975 C968 1.409 . S
C975 C974 1.362 . S
H976 C982 0.930 . S
H977 C985 0.930 . S
H978 C986 0.930 . S
H979 C987 0.930 . S
H980 C990 0.930 . S
H981 C991 0.930 . S
C982 H976 0.930 . S
C982 C983 1.355 . S
C982 C984 1.415 . S
C983 C982 1.355 . S
C983 C985 1.419 . S
C984 C982 1.415 . S
C984 C989 1.425 . S
C984 C991 1.409 . S
C985 H977 0.930 . S
C985 C983 1.419 . S
C985 C986 1.362 . S
C986 H978 0.930 . S
C986 C985 1.362 . S
C986 C989 1.409 . S
C987 H979 0.930 . S
C987 C988 1.355 . S
C987 C989 1.415 . S
C988 C987 1.355 . S
C988 C990 1.419 . S
C989 C984 1.425 . S
C989 C986 1.409 . S
C989 C987 1.415 . S
C990 H980 0.930 . S
C990 C988 1.419 . S
C990 C991 1.362 . S
C991 H981 0.930 . S
C991 C984 1.409 . S
C991 C990 1.362 . S
H992 C998 0.930 . S
H993 C1001 0.930 . S
H994 C1002 0.930 . S
H995 C1003 0.930 . S
H996 C1006 0.930 . S
H997 C1007 0.930 . S
C998 H992 0.930 . S
C998 C999 1.355 . S
C998 C1000 1.415 . S
C999 C998 1.355 . S
C999 C1001 1.419 . S
C1000 C998 1.415 . S
C1000 C1005 1.425 . S
C1000 C1007 1.409 . S
C1001 H993 0.930 . S
C1001 C999 1.419 . S
C1001 C1002 1.362 . S
C1002 H994 0.930 . S
C1002 C1001 1.362 . S
C1002 C1005 1.409 . S
C1003 H995 0.930 . S
C1003 C1004 1.355 . S
C1003 C1005 1.415 . S
C1004 C1003 1.355 . S
C1004 C1006 1.419 . S
C1005 C1000 1.425 . S
C1005 C1002 1.409 . S
C1005 C1003 1.415 . S
C1006 H996 0.930 . S
C1006 C1004 1.419 . S
C1006 C1007 1.362 . S
C1007 H997 0.930 . S
C1007 C1000 1.409 . S
C1007 C1006 1.362 . S
H1008 C1014 0.930 . S
H1009 C1017 0.930 . S
H1010 C1018 0.930 . S
H1011 C1019 0.930 . S
H1012 C1022 0.930 . S
H1013 C1023 0.930 . S
C1014 H1008 0.930 . S
C1014 C1015 1.355 . S
C1014 C1016 1.415 . S
C1015 C1014 1.355 . S
C1015 C1017 1.419 . S
C1016 C1014 1.415 . S
C1016 C1021 1.425 . S
C1016 C1023 1.409 . S
C1017 H1009 0.930 . S
C1017 C1015 1.419 . S
C1017 C1018 1.362 . S
C1018 H1010 0.930 . S
C1018 C1017 1.362 . S
C1018 C1021 1.409 . S
C1019 H1011 0.930 . S
C1019 C1020 1.355 . S
C1019 C1021 1.415 . S
C1020 C1019 1.355 . S
C1020 C1022 1.419 . S
C1021 C1016 1.425 . S
C1021 C1018 1.409 . S
C1021 C1019 1.415 . S
C1022 H1012 0.930 . S
C1022 C1020 1.419 . S
C1022 C1023 1.362 . S
C1023 H1013 0.930 . S
C1023 C1016 1.409 . S
C1023 C1022 1.362 . S
H1024 C1030 0.930 . S
H1025 C1033 0.930 . S
H1026 C1034 0.930 . S
H1027 C1035 0.930 . S
H1028 C1038 0.930 . S
H1029 C1039 0.930 . S
C1030 H1024 0.930 . S
C1030 C1031 1.355 . S
C1030 C1032 1.415 . S
C1031 C1030 1.355 . S
C1031 C1033 1.419 . S
C1032 C1030 1.415 . S
C1032 C1037 1.425 . S
C1032 C1039 1.409 . S
C1033 H1025 0.930 . S
C1033 C1031 1.419 . S
C1033 C1034 1.362 . S
C1034 H1026 0.930 . S
C1034 C1033 1.362 . S
C1034 C1037 1.409 . S
C1035 H1027 0.930 . S
C1035 C1036 1.355 . S
C1035 C1037 1.415 . S
C1036 C1035 1.355 . S
C1036 C1038 1.419 . S
C1037 C1032 1.425 . S
C1037 C1034 1.409 . S
C1037 C1035 1.415 . S
C1038 H1028 0.930 . S
C1038 C1036 1.419 . S
C1038 C1039 1.362 . S
C1039 H1029 0.930 . S
C1039 C1032 1.409 . S
C1039 C1038 1.362 . S
H1040 C1046 0.930 . S
H1041 C1049 0.930 . S
H1042 C1050 0.930 . S
H1043 C1051 0.930 . S
H1044 C1054 0.930 . S
H1045 C1055 0.930 . S
C1046 H1040 0.930 . S
C1046 C1047 1.355 1_455 S
C1046 C1048 1.415 . S
C1047 C1046 1.355 1_655 S
C1047 C1049 1.419 . S
C1048 C1046 1.415 . S
C1048 C1053 1.425 1_456 S
C1048 C1055 1.409 1_556 S
C1049 H1041 0.930 . S
C1049 C1047 1.419 . S
C1049 C1050 1.362 . S
C1050 H1042 0.930 . S
C1050 C1049 1.362 . S
C1050 C1053 1.409 1_556 S
C1051 H1043 0.930 . S
C1051 C1052 1.355 1_655 S
C1051 C1053 1.415 . S
C1052 C1051 1.355 1_455 S
C1052 C1054 1.419 . S
C1053 C1048 1.425 1_654 S
C1053 C1050 1.409 1_554 S
C1053 C1051 1.415 . S
C1054 H1044 0.930 . S
C1054 C1052 1.419 . S
C1054 C1055 1.362 . S
C1055 H1045 0.930 . S
C1055 C1048 1.409 1_554 S
C1055 C1054 1.362 . S
C679 C56 1.480 . S
C684 C308 1.506 . S
C695 C63 1.494 . S
C700 C140 1.484 . S
C711 C147 1.483 . S
C716 C224 1.491 . S
C727 C231 1.509 . S
C732 C315 1.508 . S
C743 C67 1.480 . S
C748 C487 1.504 . S
C759 C74 1.483 . S
C764 C403 1.501 . S
C775 C410 1.480 . S
C780 C235 1.506 . S
C791 C494 1.514 . S
C796 C242 1.516 . S
C807 C560 1.499 . S
C812 C476 1.482 . S
C823 C392 1.514 . S
C828 C567 1.489 . S
C839 C644 1.491 . S
C844 C399 1.482 . S
C855 C483 1.495 . S
C860 C651 1.501 . S
C871 C319 1.512 . S
C876 C571 1.481 . S
C887 C578 1.512 . S
C892 C151 1.503 . S
C903 C158 1.506 . S
C908 C655 1.502 . S
C919 C326 1.486 . S
C924 C662 1.487 . S
C935 C58 1.252 . S
C940 C69 1.258 . S
C951 C153 1.235 . S
C956 C142 1.235 . S
C967 C237 1.310 1_565 S
C972 C226 1.310 1_545 S
C983 C310 1.241 . S
C988 C321 1.241 . S
C999 C405 1.275 . S
C1004 C394 1.275 . S
C1015 C478 1.238 . S
C1020 C489 1.238 . S
C1031 C573 1.245 . S
C1036 C562 1.245 . S
C1047 C646 1.360 1_655 S
C1052 C657 1.360 1_455 S
