# Generated by pormake.
# Topology unw, (4)-cn, num edge types: 1
# Building blocks:
#     Node 0, Type 0, BuildingBlock: CEKHIL_clean_sbu_0, # of connection points: 4
#     Node 1, Type 0, BuildingBlock: CEKHIL_clean_sbu_0, # of connection points: 4
#     Node 2, Type 0, BuildingBlock: CEKHIL_clean_sbu_0, # of connection points: 4
#     Node 3, Type 0, BuildingBlock: CEKHIL_clean_sbu_0, # of connection points: 4
#     Node 4, Type 0, BuildingBlock: CEKHIL_clean_sbu_0, # of connection points: 4
#     Node 5, Type 0, BuildingBlock: CEKHIL_clean_sbu_0, # of connection points: 4
#     Node 6, Type 0, BuildingBlock: CEKHIL_clean_sbu_0, # of connection points: 4
#     Node 7, Type 0, BuildingBlock: CEKHIL_clean_sbu_0, # of connection points: 4
#     Node 8, Type 0, BuildingBlock: CEKHIL_clean_sbu_0, # of connection points: 4
#     Node 9, Type 0, BuildingBlock: CEKHIL_clean_sbu_0, # of connection points: 4
#     Node 10, Type 0, BuildingBlock: CEKHIL_clean_sbu_0, # of connection points: 4
#     Node 11, Type 0, BuildingBlock: CEKHIL_clean_sbu_0, # of connection points: 4
#     Node 12, Type 0, BuildingBlock: CEKHIL_clean_sbu_0, # of connection points: 4
#     Node 13, Type 0, BuildingBlock: CEKHIL_clean_sbu_0, # of connection points: 4
#     Node 14, Type 0, BuildingBlock: CEKHIL_clean_sbu_0, # of connection points: 4
#     Node 15, Type 0, BuildingBlock: CEKHIL_clean_sbu_0, # of connection points: 4
#     Node 16, Type 0, BuildingBlock: CEKHIL_clean_sbu_0, # of connection points: 4
#     Node 17, Type 0, BuildingBlock: CEKHIL_clean_sbu_0, # of connection points: 4
#     Node 18, Type 0, BuildingBlock: CEKHIL_clean_sbu_0, # of connection points: 4
#     Node 19, Type 0, BuildingBlock: CEKHIL_clean_sbu_0, # of connection points: 4
#     Node 20, Type 0, BuildingBlock: CEKHIL_clean_sbu_0, # of connection points: 4
#     Node 21, Type 0, BuildingBlock: CEKHIL_clean_sbu_0, # of connection points: 4
#     Node 22, Type 0, BuildingBlock: CEKHIL_clean_sbu_0, # of connection points: 4
#     Node 23, Type 0, BuildingBlock: CEKHIL_clean_sbu_0, # of connection points: 4
#     Edge 24, Type (0, 0), BuildingBlock: EZIPEK_clean_linker_0, # of connection points: 2
#     Edge 25, Type (0, 0), BuildingBlock: EZIPEK_clean_linker_0, # of connection points: 2
#     Edge 26, Type (0, 0), BuildingBlock: EZIPEK_clean_linker_0, # of connection points: 2
#     Edge 27, Type (0, 0), BuildingBlock: EZIPEK_clean_linker_0, # of connection points: 2
#     Edge 28, Type (0, 0), BuildingBlock: EZIPEK_clean_linker_0, # of connection points: 2
#     Edge 29, Type (0, 0), BuildingBlock: EZIPEK_clean_linker_0, # of connection points: 2
#     Edge 30, Type (0, 0), BuildingBlock: EZIPEK_clean_linker_0, # of connection points: 2
#     Edge 31, Type (0, 0), BuildingBlock: EZIPEK_clean_linker_0, # of connection points: 2
#     Edge 32, Type (0, 0), BuildingBlock: EZIPEK_clean_linker_0, # of connection points: 2
#     Edge 33, Type (0, 0), BuildingBlock: EZIPEK_clean_linker_0, # of connection points: 2
#     Edge 34, Type (0, 0), BuildingBlock: EZIPEK_clean_linker_0, # of connection points: 2
#     Edge 35, Type (0, 0), BuildingBlock: EZIPEK_clean_linker_0, # of connection points: 2
#     Edge 36, Type (0, 0), BuildingBlock: EZIPEK_clean_linker_0, # of connection points: 2
#     Edge 37, Type (0, 0), BuildingBlock: EZIPEK_clean_linker_0, # of connection points: 2
#     Edge 38, Type (0, 0), BuildingBlock: EZIPEK_clean_linker_0, # of connection points: 2
#     Edge 39, Type (0, 0), BuildingBlock: EZIPEK_clean_linker_0, # of connection points: 2
#     Edge 40, Type (0, 0), BuildingBlock: EZIPEK_clean_linker_0, # of connection points: 2
#     Edge 41, Type (0, 0), BuildingBlock: EZIPEK_clean_linker_0, # of connection points: 2
#     Edge 42, Type (0, 0), BuildingBlock: EZIPEK_clean_linker_0, # of connection points: 2
#     Edge 43, Type (0, 0), BuildingBlock: EZIPEK_clean_linker_0, # of connection points: 2
#     Edge 44, Type (0, 0), BuildingBlock: EZIPEK_clean_linker_0, # of connection points: 2
#     Edge 45, Type (0, 0), BuildingBlock: EZIPEK_clean_linker_0, # of connection points: 2
#     Edge 46, Type (0, 0), BuildingBlock: EZIPEK_clean_linker_0, # of connection points: 2
#     Edge 47, Type (0, 0), BuildingBlock: EZIPEK_clean_linker_0, # of connection points: 2
#     Edge 48, Type (0, 0), BuildingBlock: EZIPEK_clean_linker_0, # of connection points: 2
#     Edge 49, Type (0, 0), BuildingBlock: EZIPEK_clean_linker_0, # of connection points: 2
#     Edge 50, Type (0, 0), BuildingBlock: EZIPEK_clean_linker_0, # of connection points: 2
#     Edge 51, Type (0, 0), BuildingBlock: EZIPEK_clean_linker_0, # of connection points: 2
#     Edge 52, Type (0, 0), BuildingBlock: EZIPEK_clean_linker_0, # of connection points: 2
#     Edge 53, Type (0, 0), BuildingBlock: EZIPEK_clean_linker_0, # of connection points: 2
#     Edge 54, Type (0, 0), BuildingBlock: EZIPEK_clean_linker_0, # of connection points: 2
#     Edge 55, Type (0, 0), BuildingBlock: EZIPEK_clean_linker_0, # of connection points: 2
#     Edge 56, Type (0, 0), BuildingBlock: EZIPEK_clean_linker_0, # of connection points: 2
#     Edge 57, Type (0, 0), BuildingBlock: EZIPEK_clean_linker_0, # of connection points: 2
#     Edge 58, Type (0, 0), BuildingBlock: EZIPEK_clean_linker_0, # of connection points: 2
#     Edge 59, Type (0, 0), BuildingBlock: EZIPEK_clean_linker_0, # of connection points: 2
#     Edge 60, Type (0, 0), BuildingBlock: EZIPEK_clean_linker_0, # of connection points: 2
#     Edge 61, Type (0, 0), BuildingBlock: EZIPEK_clean_linker_0, # of connection points: 2
#     Edge 62, Type (0, 0), BuildingBlock: EZIPEK_clean_linker_0, # of connection points: 2
#     Edge 63, Type (0, 0), BuildingBlock: EZIPEK_clean_linker_0, # of connection points: 2
#     Edge 64, Type (0, 0), BuildingBlock: EZIPEK_clean_linker_0, # of connection points: 2
#     Edge 65, Type (0, 0), BuildingBlock: EZIPEK_clean_linker_0, # of connection points: 2
#     Edge 66, Type (0, 0), BuildingBlock: EZIPEK_clean_linker_0, # of connection points: 2
#     Edge 67, Type (0, 0), BuildingBlock: EZIPEK_clean_linker_0, # of connection points: 2
#     Edge 68, Type (0, 0), BuildingBlock: EZIPEK_clean_linker_0, # of connection points: 2
#     Edge 69, Type (0, 0), BuildingBlock: EZIPEK_clean_linker_0, # of connection points: 2
#     Edge 70, Type (0, 0), BuildingBlock: EZIPEK_clean_linker_0, # of connection points: 2
#     Edge 71, Type (0, 0), BuildingBlock: EZIPEK_clean_linker_0, # of connection points: 2
# Relax obj value: 0.377
# Max RMSD: 0.303
# Mean RMSD: 0.288
data_MOF--net-unw--node1-CEKHIL_clean_sbu_0--edge1-EZIPEK_clean_linker_0
_symmetry_space_group_name_H-M    P1
_symmetry_Int_Tables_number       1
_symmetry_cell_setting            triclinic
loop_
_symmetry_equiv_pos_as_xyz
'x, y, z'
_cell_length_a     32.226329
_cell_length_b     32.898598
_cell_length_c     32.571006
_cell_angle_alpha  89.993599
_cell_angle_beta   90.184264
_cell_angle_gamma 90.674129
loop_
_atom_site_label
_atom_site_type_symbol
_atom_site_fract_x
_atom_site_fract_y
_atom_site_fract_z
_atom_type_partial_charge
Co0 Co 0.1816 0.43584 0.22561 0.0
O1 O 0.18012 0.46699 0.17552 0.0
O2 O 0.2046 0.49023 0.23382 0.0
C3 C 0.11579 0.40838 0.2234 0.0
O4 O 0.18704 0.41235 0.28356 0.0
Co5 Co 0.17514 0.34138 0.21924 0.0
O6 O 0.16973 0.34576 0.27964 0.0
C7 C 0.25409 0.38235 0.19981 0.0
C8 C 0.19736 0.4971 0.19507 0.0
C9 C 0.17921 0.3775 0.30025 0.0
O10 O 0.2391 0.4165 0.21131 0.0
O11 O 0.23269 0.34944 0.19741 0.0
O12 O 0.12251 0.4453 0.23636 0.0
O13 O 0.14826 0.39222 0.20736 0.0
Co14 Co 0.69568 0.06193 0.27323 0.0
O15 O 0.69827 0.03481 0.32583 0.0
O16 O 0.72039 0.00828 0.26855 0.0
C17 C 0.62924 0.086 0.27471 0.0
O18 O 0.69752 0.08172 0.21345 0.0
Co19 Co 0.68667 0.15671 0.27495 0.0
O20 O 0.67617 0.14691 0.21565 0.0
C21 C 0.76867 0.12114 0.28902 0.0
C22 C 0.71548 0.0041 0.30803 0.0
C23 C 0.68645 0.11511 0.1958 0.0
O24 O 0.75325 0.08563 0.28188 0.0
O25 O 0.74686 0.15337 0.2909 0.0
O26 O 0.63626 0.04797 0.26698 0.0
O27 O 0.66151 0.10514 0.28879 0.0
Co28 Co 0.82679 0.56619 0.2249 0.0
O29 O 0.82949 0.53706 0.17383 0.0
O30 O 0.804 0.51163 0.23076 0.0
C31 C 0.89246 0.59385 0.22537 0.0
O32 O 0.81998 0.58758 0.28337 0.0
Co33 Co 0.83254 0.66068 0.22158 0.0
O34 O 0.83743 0.6542 0.28181 0.0
C35 C 0.75427 0.61999 0.19939 0.0
C36 C 0.81206 0.50624 0.19199 0.0
C37 C 0.82769 0.62185 0.30123 0.0
O38 O 0.76944 0.58564 0.21001 0.0
O39 O 0.7753 0.65318 0.19855 0.0
O40 O 0.88559 0.55648 0.23679 0.0
O41 O 0.86029 0.61049 0.209 0.0
Co42 Co 0.31107 0.93997 0.27256 0.0
O43 O 0.36966 0.94946 0.26189 0.0
O44 O 0.34267 0.8907 0.28118 0.0
C45 C 0.29511 0.99685 0.30873 0.0
O46 O 0.25322 0.91846 0.28609 0.0
Co47 Co 0.24692 0.99735 0.23086 0.0
O48 O 0.20608 0.9591 0.25581 0.0
C49 C 0.28086 0.93047 0.18309 0.0
C50 C 0.37496 0.91077 0.26781 0.0
C51 C 0.21564 0.92757 0.27637 0.0
O52 O 0.30229 0.92062 0.2147 0.0
O53 O 0.25883 0.96251 0.18147 0.0
O54 O 0.31421 0.9669 0.32657 0.0
O55 O 0.29305 0.99403 0.26919 0.0
Co56 Co 0.19759 0.56686 0.78866 0.0
O57 O 0.19848 0.53568 0.83882 0.0
O58 O 0.22006 0.51285 0.77886 0.0
C59 C 0.13166 0.59288 0.79279 0.0
O60 O 0.19983 0.59179 0.73108 0.0
Co61 Co 0.19383 0.66059 0.80052 0.0
O62 O 0.18237 0.65743 0.74081 0.0
C63 C 0.27372 0.62051 0.81046 0.0
C64 C 0.21534 0.50661 0.81811 0.0
C65 C 0.18973 0.62723 0.71747 0.0
O66 O 0.25624 0.58689 0.79968 0.0
O67 O 0.25383 0.65354 0.81549 0.0
O68 O 0.13817 0.55604 0.78008 0.0
O69 O 0.16465 0.6095 0.80862 0.0
Co70 Co 0.32681 0.07906 0.71283 0.0
O71 O 0.32732 0.05478 0.65896 0.0
O72 O 0.3111 0.02202 0.71613 0.0
C73 C 0.38818 0.11463 0.71076 0.0
O74 O 0.3229 0.09535 0.77333 0.0
Co75 Co 0.32014 0.17356 0.71632 0.0
O76 O 0.32873 0.16381 0.77574 0.0
C77 C 0.24671 0.12434 0.69576 0.0
C78 C 0.3138 0.02163 0.6762 0.0
C79 C 0.3258 0.12921 0.79323 0.0
O80 O 0.26667 0.09209 0.7045 0.0
O81 O 0.26322 0.15987 0.69492 0.0
O82 O 0.38719 0.07589 0.71893 0.0
O83 O 0.35289 0.12817 0.69821 0.0
Co84 Co 0.80261 0.42842 0.77773 0.0
O85 O 0.86243 0.42449 0.77499 0.0
O86 O 0.82012 0.37358 0.79065 0.0
C87 C 0.79643 0.48827 0.81329 0.0
O88 O 0.73984 0.42108 0.78197 0.0
Co89 Co 0.76157 0.49776 0.72836 0.0
O90 O 0.70951 0.47544 0.75261 0.0
C91 C 0.79171 0.42709 0.68385 0.0
C92 C 0.85749 0.38567 0.78114 0.0
C93 C 0.70759 0.44176 0.77189 0.0
O94 O 0.79974 0.4114 0.71885 0.0
O95 O 0.7789 0.46355 0.67969 0.0
O96 O 0.80343 0.45398 0.83191 0.0
O97 O 0.79903 0.48538 0.77368 0.0
Co98 Co 0.68669 0.93243 0.72358 0.0
O99 O 0.68439 0.96251 0.67267 0.0
O100 O 0.71057 0.98659 0.73072 0.0
C101 C 0.62069 0.90516 0.72415 0.0
O102 O 0.69355 0.90983 0.7817 0.0
Co103 Co 0.67967 0.83783 0.7184 0.0
O104 O 0.67574 0.84329 0.77883 0.0
C105 C 0.75849 0.87816 0.69764 0.0
C106 C 0.70356 0.99195 0.69169 0.0
C107 C 0.68586 0.87521 0.79888 0.0
O108 O 0.74361 0.91248 0.70853 0.0
O109 O 0.73717 0.84516 0.69616 0.0
O110 O 0.628 0.94243 0.73577 0.0
O111 O 0.65246 0.88863 0.70713 0.0
Co112 Co 0.21763 0.18953 0.43869 0.0
O113 O 0.22888 0.13169 0.44154 0.0
O114 O 0.20653 0.16361 0.38626 0.0
C115 C 0.18174 0.19882 0.4991 0.0
O116 O 0.20468 0.24784 0.42303 0.0
Co117 Co 0.26107 0.24722 0.50071 0.0
O118 O 0.23 0.29044 0.4715 0.0
C119 C 0.30979 0.21416 0.43327 0.0
C120 C 0.22178 0.13069 0.40214 0.0
C121 C 0.21105 0.28372 0.43773 0.0
O122 O 0.276 0.19833 0.41986 0.0
O123 O 0.3121 0.23334 0.46742 0.0
O124 O 0.16375 0.18468 0.46611 0.0
O125 O 0.22173 0.20186 0.4953 0.0
Co126 Co 0.93294 0.27055 0.31445 0.0
O127 O 0.93415 0.26215 0.3731 0.0
O128 O 0.87823 0.27847 0.33744 0.0
C129 C 0.99212 0.3086 0.30749 0.0
O130 O 0.92077 0.28217 0.25424 0.0
Co131 Co 1.00035 0.23078 0.26098 0.0
O132 O 0.97707 0.26578 0.21704 0.0
C133 C 0.93015 0.18063 0.28815 0.0
C134 C 0.89426 0.26736 0.37238 0.0
C135 C 0.94096 0.28078 0.22016 0.0
O136 O 0.91617 0.21235 0.30578 0.0
O137 O 0.96494 0.1802 0.26931 0.0
O138 O 0.95751 0.32468 0.31954 0.0
O139 O 0.99048 0.26921 0.30552 0.0
Co140 Co 0.79208 0.81283 0.43307 0.0
O141 O 0.78703 0.87125 0.43726 0.0
O142 O 0.80655 0.83912 0.3817 0.0
C143 C 0.82508 0.79891 0.49419 0.0
O144 O 0.80014 0.7538 0.41714 0.0
Co145 Co 0.74083 0.75897 0.49232 0.0
O146 O 0.77069 0.71368 0.46544 0.0
C147 C 0.69855 0.79656 0.42272 0.0
C148 C 0.79617 0.87345 0.39841 0.0
C149 C 0.79127 0.71866 0.43243 0.0
O150 O 0.73415 0.80974 0.41145 0.0
O151 O 0.693 0.77751 0.45657 0.0
O152 O 0.84524 0.81217 0.46219 0.0
O153 O 0.78514 0.79988 0.48917 0.0
Co154 Co 0.07755 0.72278 0.31773 0.0
O155 O 0.08263 0.73285 0.37583 0.0
O156 O 0.13364 0.71202 0.33572 0.0
C157 C 0.01638 0.68766 0.3157 0.0
O158 O 0.08366 0.71 0.25709 0.0
Co159 Co 0.00743 0.76506 0.26917 0.0
O160 O 0.02633 0.7301 0.22324 0.0
C161 C 0.08085 0.81247 0.29218 0.0
C162 C 0.12191 0.72533 0.37142 0.0
C163 C 0.06159 0.71305 0.22421 0.0
O164 O 0.09572 0.77983 0.30704 0.0
O165 O 0.0444 0.81462 0.2767 0.0
O166 O 0.05091 0.67001 0.32582 0.0
O167 O 0.01975 0.72691 0.31338 0.0
Co168 Co 0.248 0.81684 0.56393 0.0
O169 O 0.19904 0.81535 0.5297 0.0
O170 O 0.25834 0.78538 0.51474 0.0
C171 C 0.25113 0.88337 0.58105 0.0
O172 O 0.30432 0.81292 0.59261 0.0
Co173 Co 0.23383 0.83581 0.65674 0.0
O174 O 0.29504 0.83166 0.65858 0.0
C175 C 0.21461 0.75438 0.62615 0.0
C176 C 0.21975 0.79208 0.50519 0.0
C177 C 0.31822 0.82043 0.62909 0.0
O178 O 0.22963 0.76477 0.59128 0.0
O179 O 0.20978 0.77927 0.65585 0.0
O180 O 0.26312 0.87167 0.54491 0.0
O181 O 0.23002 0.85623 0.60111 0.0
Co182 Co 0.05898 0.26712 0.69653 0.0
O183 O 0.02733 0.31666 0.70187 0.0
O184 O 0.00505 0.25586 0.72093 0.0
C185 C 0.08447 0.27488 0.63063 0.0
O186 O 0.08202 0.20982 0.6945 0.0
Co187 Co 0.15504 0.27562 0.68889 0.0
O188 O 0.148 0.21781 0.67278 0.0
C189 C 0.1179 0.28131 0.77043 0.0
C190 C 0.9984 0.29477 0.71909 0.0
C191 C 0.11627 0.19559 0.68068 0.0
O192 O 0.08209 0.27413 0.75424 0.0
O193 O 0.15116 0.28553 0.74949 0.0
O194 O 0.04659 0.26239 0.63733 0.0
O195 O 0.10231 0.28827 0.66368 0.0
Co196 Co 0.76075 0.19739 0.56955 0.0
O197 O 0.81239 0.19701 0.54005 0.0
O198 O 0.75286 0.21931 0.51483 0.0
C199 C 0.76062 0.13383 0.59725 0.0
O200 O 0.70182 0.20148 0.59186 0.0
Co201 Co 0.76767 0.19492 0.66498 0.0
O202 O 0.70638 0.19523 0.66072 0.0
C203 C 0.78416 0.27175 0.62273 0.0
C204 C 0.79252 0.21407 0.51002 0.0
C205 C 0.68525 0.1994 0.62782 0.0
O206 O 0.77331 0.25465 0.58892 0.0
O207 O 0.78759 0.25242 0.65661 0.0
O208 O 0.7512 0.13924 0.55886 0.0
O209 O 0.77752 0.1655 0.61446 0.0
Co210 Co 0.93825 0.71369 0.6908 0.0
O211 O 0.96826 0.66314 0.69321 0.0
O212 O 0.99322 0.72127 0.71509 0.0
C213 C 0.91262 0.71047 0.62452 0.0
O214 O 0.9165 0.77174 0.69216 0.0
Co215 Co 0.84203 0.70773 0.68286 0.0
O216 O 0.84987 0.7664 0.67102 0.0
C217 C 0.87973 0.69531 0.76359 0.0
C218 C 0.99918 0.6825 0.71015 0.0
C219 C 0.88214 0.78747 0.67997 0.0
O220 O 0.91548 0.70351 0.74796 0.0
O221 O 0.84639 0.69243 0.74234 0.0
O222 O 0.95078 0.72151 0.6322 0.0
O223 O 0.89425 0.6957 0.65661 0.0
Co224 Co 0.42648 0.21289 0.19912 0.0
O225 O 0.45254 0.1604 0.20388 0.0
O226 O 0.48354 0.21879 0.2187 0.0
C227 C 0.39585 0.20592 0.13521 0.0
O228 O 0.40855 0.2723 0.19686 0.0
Co229 Co 0.32978 0.21228 0.19836 0.0
O230 O 0.34014 0.26931 0.18148 0.0
C231 C 0.37294 0.20404 0.27707 0.0
C232 C 0.48536 0.17926 0.21757 0.0
C233 C 0.37414 0.28905 0.18617 0.0
O234 O 0.40772 0.2092 0.25847 0.0
O235 O 0.33802 0.20159 0.25844 0.0
O236 O 0.43506 0.21494 0.13934 0.0
O237 O 0.37902 0.1952 0.16966 0.0
Co238 Co 0.43978 0.7729 0.82508 0.0
O239 O 0.43888 0.76551 0.88386 0.0
O240 O 0.38544 0.78523 0.8462 0.0
C241 C 0.50039 0.80822 0.81668 0.0
O242 O 0.42911 0.78252 0.76462 0.0
Co243 Co 0.50555 0.72682 0.77504 0.0
O244 O 0.48124 0.756 0.72744 0.0
C245 C 0.43432 0.68144 0.80629 0.0
C246 C 0.39937 0.77309 0.88161 0.0
C247 C 0.44731 0.77526 0.73032 0.0
O248 O 0.42045 0.7154 0.8188 0.0
O249 O 0.47009 0.6778 0.78986 0.0
O250 O 0.46657 0.82598 0.82843 0.0
O251 O 0.49746 0.76875 0.81685 0.0
Co252 Co 0.27011 0.30126 0.94222 0.0
O253 O 0.2598 0.35861 0.95075 0.0
O254 O 0.28068 0.33211 0.89238 0.0
C255 C 0.30529 0.28774 0.00242 0.0
O256 O 0.28472 0.24476 0.92175 0.0
Co257 Co 0.22867 0.23647 0.99786 0.0
O258 O 0.26511 0.19787 0.96847 0.0
C259 C 0.18003 0.27125 0.9302 0.0
C260 C 0.26723 0.36384 0.91189 0.0
C261 C 0.2825 0.20784 0.93482 0.0
O262 O 0.21192 0.29301 0.9211 0.0
O263 O 0.17895 0.24774 0.96152 0.0
O264 O 0.32349 0.30454 0.971 0.0
O265 O 0.26548 0.28397 0.99748 0.0
Co266 Co 0.56042 0.25818 0.80736 0.0
O267 O 0.56189 0.26753 0.86595 0.0
O268 O 0.61609 0.25063 0.82818 0.0
C269 C 0.50209 0.21894 0.80241 0.0
O270 O 0.57025 0.24554 0.74724 0.0
Co271 Co 0.4903 0.29556 0.7548 0.0
O272 O 0.51432 0.26279 0.70954 0.0
C273 C 0.55921 0.34782 0.78122 0.0
C274 C 0.6016 0.26132 0.86375 0.0
C275 C 0.55012 0.24715 0.71304 0.0
O276 O 0.57565 0.31635 0.79714 0.0
O277 O 0.5233 0.34739 0.76431 0.0
O278 O 0.53732 0.20391 0.81424 0.0
O279 O 0.50249 0.25837 0.8 0.0
Co280 Co 0.72271 0.68364 0.93381 0.0
O281 O 0.72816 0.62539 0.93972 0.0
O282 O 0.70784 0.65567 0.88329 0.0
C283 C 0.69011 0.69889 0.99466 0.0
O284 O 0.71411 0.74222 0.91626 0.0
Co285 Co 0.77412 0.73923 0.99171 0.0
O286 O 0.74433 0.78365 0.96318 0.0
C287 C 0.81604 0.70048 0.92272 0.0
C288 C 0.71841 0.62188 0.90107 0.0
C289 C 0.72331 0.77776 0.93046 0.0
O290 O 0.78046 0.6866 0.91191 0.0
O291 O 0.82165 0.72037 0.95609 0.0
O292 O 0.6698 0.68472 0.96305 0.0
O293 O 0.73001 0.6981 0.98955 0.0
Co294 Co 0.57725 0.78635 0.18968 0.0
O295 O 0.54859 0.83776 0.19167 0.0
O296 O 0.52206 0.77941 0.21331 0.0
C297 C 0.60352 0.78915 0.12381 0.0
O298 O 0.59781 0.72782 0.19123 0.0
Co299 Co 0.67361 0.79048 0.18331 0.0
O300 O 0.66477 0.73196 0.17129 0.0
C301 C 0.63542 0.80334 0.26346 0.0
C302 C 0.51798 0.81854 0.20914 0.0
C303 C 0.63202 0.71145 0.17966 0.0
O304 O 0.59972 0.79585 0.24719 0.0
O305 O 0.66902 0.80566 0.24278 0.0
O306 O 0.56506 0.77891 0.13088 0.0
O307 O 0.62192 0.80349 0.15619 0.0
Co308 Co 0.26985 0.69416 0.07836 0.0
O309 O 0.32298 0.69988 0.05152 0.0
O310 O 0.26242 0.7151 0.02335 0.0
C311 C 0.27717 0.63085 0.1066 0.0
O312 O 0.20943 0.69129 0.09634 0.0
Co313 Co 0.26842 0.69071 0.17374 0.0
O314 O 0.20948 0.6758 0.1637 0.0
C315 C 0.27938 0.76957 0.13334 0.0
C316 C 0.30267 0.71438 0.02038 0.0
C317 C 0.19058 0.68148 0.12975 0.0
O318 O 0.27439 0.75202 0.09849 0.0
O319 O 0.28057 0.75045 0.1675 0.0
O320 O 0.26748 0.63561 0.06809 0.0
O321 O 0.28812 0.66454 0.12432 0.0
Co322 Co 0.7358 0.31691 0.06452 0.0
O323 O 0.6847 0.31801 0.03399 0.0
O324 O 0.74485 0.29711 0.00918 0.0
C325 C 0.73229 0.38 0.09377 0.0
O326 O 0.7945 0.3131 0.08762 0.0
Co327 Co 0.72987 0.31858 0.15995 0.0
O328 O 0.79045 0.32775 0.1551 0.0
C329 C 0.71392 0.24196 0.11617 0.0
C330 C 0.70527 0.30269 0.00367 0.0
C331 C 0.81137 0.32061 0.12278 0.0
O332 O 0.72346 0.25925 0.08215 0.0
O333 O 0.71172 0.26077 0.15044 0.0
O334 O 0.74503 0.37514 0.05627 0.0
O335 O 0.71698 0.34706 0.10964 0.0
C336 C 0.26273 0.5928 0.17365 0.0
C337 C 0.26361 0.59323 0.13003 0.0
C338 C 0.2151 0.5351 0.12907 0.0
C339 C 0.21396 0.53434 0.17278 0.0
N340 N 0.22405 0.57401 0.23441 0.0
N341 N 0.25592 0.55185 0.06934 0.0
C342 C 0.23447 0.56629 0.1946 0.0
C343 C 0.24438 0.5605 0.10863 0.0
N344 N 0.29118 0.61521 0.19532 0.0
N345 N 0.18537 0.51519 0.10657 0.0
H346 H 0.28093 0.5665 0.05515 0.0
H347 H 0.24511 0.52626 0.05354 0.0
H348 H 0.15852 0.50306 0.11969 0.0
H349 H 0.18348 0.51729 0.07468 0.0
H350 H 0.29422 0.61353 0.22713 0.0
H351 H 0.31576 0.6305 0.18116 0.0
H352 H 0.2353 0.59909 0.25069 0.0
H353 H 0.19931 0.55932 0.24894 0.0
C354 C 0.57003 0.09849 0.22306 0.0
C355 C 0.59022 0.10779 0.26127 0.0
C356 C 0.53849 0.16195 0.27261 0.0
C357 C 0.52236 0.15595 0.23236 0.0
N358 N 0.52643 0.12197 0.16714 0.0
N359 N 0.59226 0.1488 0.32291 0.0
C360 C 0.53885 0.12487 0.2073 0.0
C361 C 0.57418 0.1399 0.28592 0.0
N362 N 0.58019 0.06469 0.20107 0.0
N363 N 0.51785 0.18649 0.29941 0.0
H364 H 0.61327 0.12975 0.33751 0.0
H365 H 0.58702 0.17567 0.33888 0.0
H366 H 0.49098 0.20205 0.29161 0.0
H367 H 0.52485 0.18859 0.33056 0.0
H368 H 0.56086 0.05232 0.1785 0.0
H369 H 0.60701 0.04805 0.205 0.0
H370 H 0.53901 0.10184 0.14607 0.0
H371 H 0.50607 0.14231 0.15341 0.0
C372 C 0.74296 0.41571 0.16258 0.0
C373 C 0.74629 0.4161 0.11909 0.0
C374 C 0.79902 0.47024 0.12422 0.0
C375 C 0.79584 0.47019 0.16776 0.0
N376 N 0.77724 0.43011 0.22715 0.0
N377 N 0.7633 0.45754 0.06026 0.0
C378 C 0.77113 0.43946 0.18677 0.0
C379 C 0.7701 0.44748 0.10037 0.0
N380 N 0.71083 0.39534 0.18083 0.0
N381 N 0.83222 0.48843 0.10546 0.0
H382 H 0.7387 0.44519 0.04331 0.0
H383 H 0.77776 0.48234 0.04613 0.0
H384 H 0.85804 0.49896 0.12182 0.0
H385 H 0.83733 0.48662 0.07393 0.0
H386 H 0.70496 0.39673 0.21224 0.0
H387 H 0.68651 0.38238 0.16397 0.0
H388 H 0.76251 0.40568 0.24163 0.0
H389 H 0.80179 0.4423 0.24423 0.0
C390 C 0.4594 0.86729 0.19755 0.0
C391 C 0.48088 0.84108 0.22456 0.0
C392 C 0.43335 0.86062 0.28048 0.0
C393 C 0.4136 0.88909 0.25407 0.0
N394 N 0.41443 0.92463 0.18862 0.0
N395 N 0.49348 0.81865 0.29393 0.0
C396 C 0.42881 0.89418 0.21316 0.0
C397 C 0.46909 0.83909 0.2666 0.0
N398 N 0.46647 0.86489 0.15622 0.0
N399 N 0.41843 0.85452 0.31925 0.0
H400 H 0.52018 0.80326 0.28538 0.0
H401 H 0.4895 0.81983 0.3256 0.0
H402 H 0.39572 0.87264 0.33238 0.0
H403 H 0.42739 0.8304 0.33786 0.0
H404 H 0.44863 0.87984 0.13433 0.0
H405 H 0.48735 0.84461 0.14328 0.0
H406 H 0.42938 0.93364 0.16174 0.0
H407 H 0.38916 0.94264 0.19542 0.0
C408 C 0.2144 0.41802 0.89332 0.0
C409 C 0.25525 0.40202 0.88929 0.0
C410 C 0.27096 0.45605 0.83852 0.0
C411 C 0.22891 0.46869 0.83953 0.0
N412 N 0.15882 0.45599 0.86166 0.0
N413 N 0.32202 0.40508 0.85588 0.0
C414 C 0.20029 0.44815 0.86533 0.0
C415 C 0.28323 0.42063 0.86091 0.0
N416 N 0.18857 0.40506 0.92393 0.0
N417 N 0.29984 0.4793 0.81835 0.0
H418 H 0.33418 0.38263 0.87486 0.0
H419 H 0.34161 0.41338 0.83186 0.0
H420 H 0.29243 0.50559 0.8022 0.0
H421 H 0.33166 0.47461 0.82039 0.0
H422 H 0.16191 0.42068 0.93215 0.0
H423 H 0.1942 0.38053 0.94305 0.0
H424 H 0.1358 0.43925 0.87665 0.0
H425 H 0.14693 0.47644 0.84029 0.0
C426 C 0.43658 0.20899 0.75899 0.0
C427 C 0.46942 0.19211 0.78245 0.0
C428 C 0.4553 0.12567 0.75021 0.0
C429 C 0.4219 0.14228 0.7276 0.0
N430 N 0.39494 0.20342 0.69733 0.0
N431 N 0.49592 0.13029 0.81227 0.0
C432 C 0.41656 0.18507 0.72814 0.0
C433 C 0.4751 0.14928 0.78128 0.0
N434 N 0.42162 0.24644 0.76856 0.0
N435 N 0.47023 0.08832 0.74019 0.0
H436 H 0.50489 0.14535 0.83909 0.0
H437 H 0.49805 0.09877 0.81445 0.0
H438 H 0.46001 0.07246 0.71427 0.0
H439 H 0.49681 0.07627 0.75358 0.0
H440 H 0.39553 0.25869 0.75445 0.0
H441 H 0.43084 0.26223 0.79483 0.0
H442 H 0.39299 0.23489 0.69437 0.0
H443 H 0.38445 0.18752 0.67155 0.0
C444 C 0.74453 0.5496 0.89847 0.0
C445 C 0.72941 0.58395 0.87711 0.0
C446 C 0.76281 0.55877 0.81411 0.0
C447 C 0.77883 0.52471 0.8358 0.0
N448 N 0.79883 0.5001 0.90293 0.0
N449 N 0.7092 0.60957 0.81072 0.0
C450 C 0.77334 0.52329 0.8792 0.0
C451 C 0.73416 0.58522 0.83375 0.0
N452 N 0.72951 0.54062 0.93659 0.0
N453 N 0.77794 0.56862 0.77625 0.0
H454 H 0.68412 0.62488 0.82327 0.0
H455 H 0.70906 0.60927 0.77873 0.0
H456 H 0.80363 0.55451 0.76355 0.0
H457 H 0.76981 0.59505 0.76069 0.0
H458 H 0.73678 0.51398 0.95225 0.0
H459 H 0.70523 0.55677 0.94969 0.0
H460 H 0.79814 0.50048 0.93492 0.0
H461 H 0.82514 0.4861 0.89131 0.0
C462 C 0.58443 0.83732 0.73868 0.0
C463 C 0.58476 0.88042 0.74132 0.0
C464 C 0.53369 0.87579 0.79709 0.0
C465 C 0.53448 0.83249 0.79561 0.0
N466 N 0.57502 0.7744 0.77569 0.0
N467 N 0.54474 0.93881 0.76027 0.0
C468 C 0.5637 0.81372 0.76926 0.0
C469 C 0.55495 0.89917 0.76678 0.0
N470 N 0.60124 0.81873 0.7053 0.0
N471 N 0.51651 0.89489 0.83005 0.0
H472 H 0.55598 0.95532 0.73524 0.0
H473 H 0.52064 0.95306 0.77568 0.0
H474 H 0.5066 0.87915 0.85609 0.0
H475 H 0.51826 0.92624 0.83442 0.0
H476 H 0.59881 0.7875 0.70022 0.0
H477 H 0.61179 0.83507 0.67988 0.0
H478 H 0.5985 0.76044 0.7591 0.0
H479 H 0.56634 0.75817 0.80178 0.0
C480 C 0.08903 0.23919 0.56092 0.0
C481 C 0.10869 0.26197 0.59268 0.0
C482 C 0.17665 0.23989 0.56637 0.0
C483 C 0.15709 0.21625 0.53493 0.0
N484 N 0.09339 0.18145 0.51556 0.0
N485 N 0.17139 0.29822 0.61119 0.0
C486 C 0.11286 0.21286 0.53553 0.0
C487 C 0.15258 0.26654 0.59118 0.0
N488 N 0.0479 0.24476 0.55283 0.0
N489 N 0.21747 0.23419 0.57581 0.0
H490 H 0.15453 0.32118 0.62526 0.0
H491 H 0.20293 0.30501 0.60836 0.0
H492 H 0.23463 0.21035 0.56391 0.0
H493 H 0.23213 0.24842 0.60059 0.0
H494 H 0.03272 0.23163 0.52775 0.0
H495 H 0.03075 0.26737 0.56712 0.0
H496 H 0.06165 0.17558 0.5179 0.0
H497 H 0.10944 0.15722 0.50288 0.0
C498 C 0.81549 0.26938 0.46059 0.0
C499 C 0.81517 0.22781 0.47265 0.0
C500 C 0.8694 0.21359 0.42227 0.0
C501 C 0.86754 0.2544 0.40761 0.0
N502 N 0.83507 0.32008 0.40979 0.0
N503 N 0.83448 0.15882 0.45842 0.0
C504 C 0.83909 0.28184 0.4256 0.0
C505 C 0.84013 0.19957 0.45168 0.0
N506 N 0.79544 0.29746 0.484 0.0
N507 N 0.89927 0.18782 0.40866 0.0
H508 H 0.81239 0.1472 0.47876 0.0
H509 H 0.84849 0.13646 0.44075 0.0
H510 H 0.91911 0.19413 0.38438 0.0
H511 H 0.90621 0.16077 0.4237 0.0
H512 H 0.7985 0.32871 0.47969 0.0
H513 H 0.77837 0.2899 0.51007 0.0
H514 H 0.81136 0.33964 0.41811 0.0
H515 H 0.85409 0.33156 0.38659 0.0
C516 C 0.8247 0.75535 0.56018 0.0
C517 C 0.84703 0.77786 0.52979 0.0
C518 C 0.9118 0.74718 0.55567 0.0
C519 C 0.88969 0.72599 0.58677 0.0
N520 N 0.82352 0.69588 0.60398 0.0
N521 N 0.91425 0.80678 0.5128 0.0
C522 C 0.84563 0.72591 0.58478 0.0
C523 C 0.8913 0.7767 0.53107 0.0
N524 N 0.78453 0.7647 0.5689 0.0
N525 N 0.95201 0.73737 0.54767 0.0
H526 H 0.90108 0.83319 0.50122 0.0
H527 H 0.94642 0.80906 0.51566 0.0
H528 H 0.96648 0.71279 0.56172 0.0
H529 H 0.96856 0.74938 0.52294 0.0
H530 H 0.76813 0.75141 0.59304 0.0
H531 H 0.76997 0.79027 0.55714 0.0
H532 H 0.7915 0.69233 0.60075 0.0
H533 H 0.8378 0.67103 0.61767 0.0
C534 C 0.14567 0.72277 0.44463 0.0
C535 C 0.15217 0.73718 0.40416 0.0
C536 C 0.20926 0.78129 0.42928 0.0
C537 C 0.19866 0.77109 0.47023 0.0
N538 N 0.15527 0.73339 0.51759 0.0
N539 N 0.18757 0.78398 0.3582 0.0
C540 C 0.16648 0.7421 0.47809 0.0
C541 C 0.18373 0.76699 0.39635 0.0
N542 N 0.12042 0.68965 0.45087 0.0
N543 N 0.24342 0.80515 0.42175 0.0
H544 H 0.17061 0.77445 0.33272 0.0
H545 H 0.20561 0.80976 0.35222 0.0
H546 H 0.26152 0.81813 0.44499 0.0
H547 H 0.25569 0.80963 0.39253 0.0
H548 H 0.11746 0.67489 0.479 0.0
H549 H 0.10546 0.67433 0.42687 0.0
H550 H 0.1712 0.74465 0.54304 0.0
H551 H 0.12869 0.71683 0.5253 0.0
C552 C 0.69043 0.04946 0.64258 0.0
C553 C 0.71834 0.02888 0.66879 0.0
C554 C 0.77383 0.07754 0.64922 0.0
C555 C 0.74651 0.09669 0.62086 0.0
N556 N 0.67924 0.09576 0.58647 0.0
N557 N 0.78908 0.01774 0.69004 0.0
C558 C 0.70537 0.08052 0.61566 0.0
C559 C 0.76066 0.04158 0.67051 0.0
N560 N 0.64873 0.04157 0.64562 0.0
N561 N 0.81294 0.09296 0.65529 0.0
H562 H 0.78131 0.99056 0.70467 0.0
H563 H 0.821 0.02264 0.68841 0.0
H564 H 0.82615 0.11554 0.63693 0.0
H565 H 0.83184 0.08438 0.67972 0.0
H566 H 0.62614 0.05876 0.63098 0.0
H567 H 0.63614 0.02073 0.66638 0.0
H568 H 0.65246 0.08042 0.57683 0.0
H569 H 0.68386 0.12311 0.57119 0.0
C570 C 0.03732 0.61696 0.72736 0.0
C571 C 0.03617 0.66024 0.72825 0.0
C572 C 0.09297 0.65949 0.77956 0.0
C573 C 0.09398 0.61633 0.77824 0.0
N574 N 0.05309 0.55588 0.76512 0.0
N575 N 0.07629 0.72109 0.7429 0.0
C576 C 0.06197 0.59562 0.75637 0.0
C577 C 0.06756 0.68122 0.75114 0.0
N578 N 0.01873 0.59595 0.69602 0.0
N579 N 0.11369 0.67987 0.80996 0.0
H580 H 0.06338 0.73637 0.71803 0.0
H581 H 0.10119 0.73681 0.75614 0.0
H582 H 0.12775 0.66488 0.8344 0.0
H583 H 0.11134 0.71112 0.81441 0.0
H584 H 0.0214 0.5646 0.69251 0.0
H585 H 0.0073 0.61018 0.66982 0.0
H586 H 0.02777 0.54032 0.7524 0.0
H587 H 0.06695 0.54065 0.78957 0.0
C588 C 0.25581 0.97353 0.65458 0.0
C589 C 0.29782 0.98694 0.6507 0.0
C590 C 0.30905 0.93495 0.59744 0.0
C591 C 0.26676 0.92174 0.60114 0.0
N592 N 0.1977 0.93688 0.62403 0.0
N593 N 0.36229 0.98532 0.61326 0.0
C594 C 0.2396 0.94338 0.62725 0.0
C595 C 0.32343 0.96959 0.62006 0.0
N596 N 0.23083 0.98998 0.68393 0.0
N597 N 0.33703 0.91229 0.576 0.0
H598 H 0.37658 0.00667 0.63242 0.0
H599 H 0.37966 0.97874 0.58724 0.0
H600 H 0.33004 0.88529 0.56096 0.0
H601 H 0.36893 0.91755 0.57687 0.0
H602 H 0.2023 0.97735 0.69226 0.0
H603 H 0.23909 0.01517 0.70157 0.0
H604 H 0.17573 0.95447 0.63893 0.0
H605 H 0.18447 0.91688 0.60273 0.0
C606 C 0.9674 0.34552 0.76852 0.0
C607 C 0.96136 0.31406 0.7389 0.0
C608 C 0.88555 0.32391 0.74283 0.0
C609 C 0.8919 0.35672 0.77109 0.0
N610 N 0.93716 0.39084 0.81899 0.0
N611 N 0.91476 0.26855 0.70289 0.0
C612 C 0.93243 0.36524 0.78615 0.0
C613 C 0.92037 0.30135 0.72825 0.0
N614 N 0.00679 0.35644 0.78015 0.0
N615 N 0.84669 0.31586 0.72761 0.0
H616 H 0.9389 0.25444 0.68749 0.0
H617 H 0.8865 0.25369 0.6982 0.0
H618 H 0.82054 0.33263 0.73438 0.0
H619 H 0.83982 0.29358 0.70606 0.0
H620 H 0.01403 0.38278 0.79649 0.0
H621 H 0.03282 0.33965 0.77248 0.0
H622 H 0.96508 0.39579 0.83442 0.0
H623 H 0.91207 0.40433 0.83363 0.0
C624 C 0.77727 0.90744 0.3303 0.0
C625 C 0.78446 0.91045 0.37329 0.0
C626 C 0.74141 0.97173 0.37507 0.0
C627 C 0.73354 0.9687 0.33197 0.0
N628 N 0.7314 0.92333 0.27376 0.0
N629 N 0.78849 0.9561 0.43077 0.0
C630 C 0.74821 0.93378 0.31089 0.0
C631 C 0.7711 0.94587 0.39386 0.0
N632 N 0.80044 0.88165 0.30719 0.0
N633 N 0.71766 0.99597 0.39936 0.0
H634 H 0.81307 0.93986 0.44339 0.0
H635 H 0.7828 0.98357 0.44556 0.0
H636 H 0.69019 0.00899 0.38937 0.0
H637 H 0.72068 0.99693 0.43121 0.0
H638 H 0.79874 0.88051 0.27526 0.0
H639 H 0.826 0.86649 0.31909 0.0
H640 H 0.73796 0.89617 0.25881 0.0
H641 H 0.70615 0.93843 0.2611 0.0
C642 C 0.96028 0.59846 0.26486 0.0
C643 C 0.92893 0.61818 0.24185 0.0
C644 C 0.94976 0.68313 0.2731 0.0
C645 C 0.9809 0.66364 0.29681 0.0
N646 N 0.00251 0.59991 0.32624 0.0
N647 N 0.90722 0.68216 0.21266 0.0
C648 C 0.98275 0.62042 0.29558 0.0
C649 C 0.92794 0.66129 0.24234 0.0
N650 N 0.97054 0.55938 0.25563 0.0
N651 N 0.93757 0.72181 0.28085 0.0
H652 H 0.89643 0.66823 0.18586 0.0
H653 H 0.90551 0.71384 0.2127 0.0
H654 H 0.9469 0.73857 0.3065 0.0
H655 H 0.9469 0.73857 0.3065 0.0
H656 H 0.99558 0.54457 0.26903 0.0
H657 H 0.95791 0.54407 0.23038 0.0
H658 H 0.00188 0.56833 0.32874 0.0
H659 H 0.01377 0.61443 0.35254 0.0
C660 C 0.24764 0.02268 0.36537 0.0
C661 C 0.27504 0.03096 0.33197 0.0
C662 C 0.26402 0.10461 0.34152 0.0
C663 C 0.23767 0.09641 0.37591 0.0
N664 N 0.19761 0.04793 0.41484 0.0
N665 N 0.31304 0.07963 0.29104 0.0
C666 C 0.22801 0.05545 0.38649 0.0
C667 C 0.2835 0.07188 0.3203 0.0
N668 N 0.24027 0.98333 0.37706 0.0
N669 N 0.2713 0.14383 0.32929 0.0
H670 H 0.33077 0.05714 0.27735 0.0
H671 H 0.32277 0.10841 0.28187 0.0
H672 H 0.26479 0.16923 0.34689 0.0
H673 H 0.28292 0.15181 0.30064 0.0
H674 H 0.2261 0.97503 0.40451 0.0
H675 H 0.24933 0.95832 0.35989 0.0
H676 H 0.18548 0.01924 0.42139 0.0
H677 H 0.18145 0.07097 0.42959 0.0
C678 C 0.04723 0.40153 0.26132 0.0
C679 C 0.07898 0.38334 0.23781 0.0
C680 C 0.05783 0.31636 0.26431 0.0
C681 C 0.02635 0.33431 0.28861 0.0
N682 N 0.00401 0.39619 0.32148 0.0
N683 N 0.09821 0.32215 0.20229 0.0
C684 C 0.02415 0.37758 0.28992 0.0
C685 C 0.0795 0.34034 0.23487 0.0
N686 N 0.03723 0.44118 0.25451 0.0
N687 N 0.07026 0.27754 0.27177 0.0
H688 H 0.10957 0.33876 0.17739 0.0
H689 H 0.09661 0.29089 0.19714 0.0
H690 H 0.06078 0.26119 0.29753 0.0
H691 H 0.09519 0.26438 0.25663 0.0
H692 H 0.0119 0.45512 0.26817 0.0
H693 H 0.05036 0.45812 0.2307 0.0
H694 H 0.00442 0.42756 0.32585 0.0
H695 H 0.99288 0.38028 0.3469 0.0
C696 C 0.69098 0.74267 0.06049 0.0
C697 C 0.66836 0.72051 0.02991 0.0
C698 C 0.60411 0.75249 0.05496 0.0
C699 C 0.62643 0.77322 0.08635 0.0
N700 N 0.69305 0.80199 0.10452 0.0
N701 N 0.60062 0.69273 0.01244 0.0
C702 C 0.67048 0.77244 0.08494 0.0
C703 C 0.62412 0.72248 0.03073 0.0
N704 N 0.73096 0.73264 0.06955 0.0
N705 N 0.56421 0.76316 0.04636 0.0
H706 H 0.61323 0.66589 1.00137 0.0
H707 H 0.5684 0.69117 0.01492 0.0
H708 H 0.55018 0.78806 0.06017 0.0
H709 H 0.54762 0.75147 0.0214 0.0
H710 H 0.74752 0.7456 0.09387 0.0
H711 H 0.74513 0.70691 0.05781 0.0
H712 H 0.72515 0.80494 0.10172 0.0
H713 H 0.67918 0.82706 0.11812 0.0
C714 C 0.31629 0.71661 0.94426 0.0
C715 C 0.3248 0.73178 0.98416 0.0
C716 C 0.3795 0.77677 0.95633 0.0
C717 C 0.37094 0.76196 0.91618 0.0
N718 N 0.32674 0.72166 0.87091 0.0
N719 N 0.35681 0.78315 0.02692 0.0
C720 C 0.33761 0.73352 0.90977 0.0
C721 C 0.35438 0.76369 0.98987 0.0
N722 N 0.28961 0.68423 0.93959 0.0
N723 N 0.41171 0.80354 0.96249 0.0
H724 H 0.33798 0.77546 0.05171 0.0
H725 H 0.37441 0.80938 0.03213 0.0
H726 H 0.42797 0.81734 0.93851 0.0
H727 H 0.42351 0.81088 0.99138 0.0
H728 H 0.28384 0.6695 0.91192 0.0
H729 H 0.27478 0.66985 0.96409 0.0
H730 H 0.29896 0.70681 0.86389 0.0
H731 H 0.34403 0.72805 0.84483 0.0
C732 C 0.30728 0.25109 0.07198 0.0
C733 C 0.32897 0.26859 0.03804 0.0
C734 C 0.39275 0.23541 0.06301 0.0
C735 C 0.37143 0.21943 0.09759 0.0
N736 N 0.30462 0.19683 0.12212 0.0
N737 N 0.39703 0.28997 0.01396 0.0
C738 C 0.32754 0.22279 0.0984 0.0
C739 C 0.37299 0.26402 0.03671 0.0
N740 N 0.26866 0.26453 0.08191 0.0
N741 N 0.43124 0.22133 0.05356 0.0
H742 H 0.38576 0.31652 1.00095 0.0
H743 H 0.42935 0.2895 0.01447 0.0
H744 H 0.44467 0.1972 0.06934 0.0
H745 H 0.44674 0.22914 0.02659 0.0
H746 H 0.25308 0.2554 0.10841 0.0
H747 H 0.25515 0.2895 0.06773 0.0
H748 H 0.27229 0.19572 0.12137 0.0
H749 H 0.31781 0.17232 0.13744 0.0
C750 C 0.67876 0.25063 0.95269 0.0
C751 C 0.68349 0.29191 0.96489 0.0
C752 C 0.63334 0.31249 0.9124 0.0
C753 C 0.62989 0.27149 0.89866 0.0
N754 N 0.65376 0.20234 0.90162 0.0
N755 N 0.6732 0.36281 0.95063 0.0
C756 C 0.65429 0.24086 0.91734 0.0
C757 C 0.66303 0.323 0.94304 0.0
N758 N 0.69566 0.22059 0.9762 0.0
N759 N 0.60787 0.34157 0.89672 0.0
H760 H 0.69534 0.37156 0.97244 0.0
H761 H 0.66297 0.38688 0.93262 0.0
H762 H 0.58727 0.33634 0.87265 0.0
H763 H 0.60499 0.37032 0.90969 0.0
H764 H 0.68923 0.18979 0.97195 0.0
H765 H 0.71401 0.22646 0.00199 0.0
H766 H 0.67439 0.17991 0.91068 0.0
H767 H 0.63424 0.19335 0.8776 0.0
C768 C 0.15083 0.35155 0.36619 0.0
C769 C 0.18374 0.37127 0.34514 0.0
C770 C 0.2336 0.34253 0.3934 0.0
C771 C 0.20096 0.31883 0.41122 0.0
N772 N 0.12757 0.30577 0.41916 0.0
N773 N 0.25292 0.39886 0.34884 0.0
C774 C 0.1593 0.32542 0.39945 0.0
C775 C 0.22399 0.3714 0.36237 0.0
N776 N 0.11082 0.35695 0.35437 0.0
N777 N 0.27403 0.33511 0.40343 0.0
H778 H 0.24587 0.42115 0.32729 0.0
H779 H 0.28206 0.40275 0.36227 0.0
H780 H 0.28283 0.31424 0.42573 0.0
H781 H 0.29916 0.34754 0.38761 0.0
H782 H 0.10245 0.37708 0.33109 0.0
H783 H 0.10245 0.37708 0.33109 0.0
H784 H 0.09657 0.3093 0.4106 0.0
H785 H 0.13241 0.28686 0.44444 0.0
C786 C 0.88387 0.12669 0.31755 0.0
C787 C 0.89921 0.14736 0.28259 0.0
C788 C 0.83142 0.14284 0.2496 0.0
C789 C 0.81439 0.1263 0.28624 0.0
N790 N 0.82444 0.09601 0.35278 0.0
N791 N 0.89339 0.15728 0.21009 0.0
C792 C 0.84087 0.11535 0.31935 0.0
C793 C 0.8748 0.14928 0.24679 0.0
N794 N 0.91101 0.11811 0.34848 0.0
N795 N 0.80601 0.15452 0.2182 0.0
H796 H 0.92552 0.16036 0.20762 0.0
H797 H 0.87781 0.15569 0.18205 0.0
H798 H 0.77407 0.14922 0.21805 0.0
H799 H 0.81633 0.17217 0.19367 0.0
H800 H 0.90328 0.10248 0.37516 0.0
H801 H 0.94246 0.12583 0.34616 0.0
H802 H 0.8414 0.08762 0.37855 0.0
H803 H 0.79311 0.08783 0.35458 0.0
C804 C 0.78075 0.62794 0.36081 0.0
C805 C 0.82175 0.62695 0.34593 0.0
C806 C 0.84405 0.67417 0.39985 0.0
C807 C 0.8019 0.68237 0.40817 0.0
N808 N 0.72904 0.66759 0.3959 0.0
N809 N 0.89429 0.64024 0.35885 0.0
C810 C 0.76982 0.65862 0.38939 0.0
C811 C 0.85386 0.64664 0.36826 0.0
N812 N 0.75242 0.59988 0.34724 0.0
N813 N 0.87499 0.69369 0.42105 0.0
H814 H 0.9034 0.61936 0.33659 0.0
H815 H 0.9034 0.61936 0.33659 0.0
H816 H 0.8691 0.71365 0.44521 0.0
H817 H 0.90635 0.68892 0.41492 0.0
H818 H 0.72254 0.59707 0.35909 0.0
H819 H 0.76067 0.57637 0.32754 0.0
H820 H 0.70475 0.65463 0.37906 0.0
H821 H 0.71936 0.69024 0.41593 0.0
C822 C 0.18187 0.86051 0.26128 0.0
C823 C 0.18186 0.89753 0.28377 0.0
C824 C 0.11264 0.88039 0.31093 0.0
C825 C 0.11159 0.84544 0.28559 0.0
N826 N 0.14071 0.80687 0.23007 0.0
N827 N 0.14596 0.94509 0.32703 0.0
C828 C 0.14493 0.83699 0.25882 0.0
C829 C 0.14672 0.90828 0.30763 0.0
N830 N 0.21708 0.84737 0.24234 0.0
N831 N 0.08189 0.88609 0.33905 0.0
H832 H 0.17129 0.9651 0.32735 0.0
H833 H 0.11965 0.95667 0.34109 0.0
H834 H 0.05603 0.8668 0.34109 0.0
H835 H 0.08306 0.90839 0.36171 0.0
H836 H 0.22004 0.81817 0.23042 0.0
H837 H 0.2446 0.86407 0.24087 0.0
H838 H 0.16215 0.80181 0.20684 0.0
H839 H 0.11364 0.7895 0.22681 0.0
C840 C 0.2292 0.64438 0.65557 0.0
C841 C 0.19007 0.63697 0.67317 0.0
C842 C 0.16326 0.69841 0.64104 0.0
C843 C 0.20482 0.71091 0.63337 0.0
N844 N 0.27708 0.69225 0.62565 0.0
N845 N 0.11713 0.64449 0.66601 0.0
C846 C 0.23752 0.68245 0.63715 0.0
C847 C 0.15599 0.65968 0.65928 0.0
N848 N 0.25961 0.61629 0.65816 0.0
N849 N 0.13145 0.72426 0.63275 0.0
H850 H 0.11301 0.61612 0.67996 0.0
H851 H 0.09011 0.65794 0.65533 0.0
H852 H 0.13622 0.75206 0.61794 0.0
H853 H 0.10074 0.71858 0.64088 0.0
H854 H 0.25482 0.5876 0.67116 0.0
H855 H 0.25482 0.5876 0.67116 0.0
H856 H 0.30167 0.67216 0.62934 0.0
H857 H 0.28525 0.72016 0.61273 0.0
C858 C 0.18614 0.12603 0.64805 0.0
C859 C 0.20173 0.12086 0.68841 0.0
C860 C 0.1329 0.13346 0.71621 0.0
C861 C 0.12298 0.15149 0.67847 0.0
N862 N 0.1262 0.14373 0.60603 0.0
N863 N 0.18832 0.10936 0.76039 0.0
C864 C 0.14461 0.13908 0.64333 0.0
C865 C 0.17417 0.11998 0.72239 0.0
N866 N 0.21174 0.12122 0.61516 0.0
N867 N 0.1035 0.13201 0.74611 0.0
H868 H 0.21832 0.09878 0.76515 0.0
H869 H 0.17071 0.11135 0.78702 0.0
H870 H 0.07375 0.14317 0.7407 0.0
H871 H 0.10762 0.11778 0.77435 0.0
H872 H 0.20335 0.12821 0.58511 0.0
H873 H 0.24194 0.1105 0.61846 0.0
H874 H 0.13923 0.13406 0.57857 0.0
H875 H 0.09606 0.15496 0.60389 0.0
C876 C 0.82872 0.3345 0.63086 0.0
C877 C 0.78915 0.31668 0.62357 0.0
C878 C 0.7571 0.38335 0.6311 0.0
C879 C 0.79448 0.39858 0.64854 0.0
N880 N 0.86788 0.39217 0.65842 0.0
N881 N 0.7159 0.32567 0.60995 0.0
C882 C 0.83124 0.37546 0.64511 0.0
C883 C 0.75367 0.34171 0.62075 0.0
N884 N 0.86347 0.31198 0.62458 0.0
N885 N 0.72331 0.40728 0.6263 0.0
H886 H 0.71126 0.29509 0.60278 0.0
H887 H 0.68911 0.34318 0.60852 0.0
H888 H 0.72332 0.43836 0.63258 0.0
H889 H 0.72332 0.43836 0.63258 0.0
H890 H 0.89357 0.32351 0.62693 0.0
H891 H 0.86191 0.282 0.61412 0.0
H892 H 0.89534 0.37613 0.66156 0.0
H893 H 0.87012 0.42263 0.66732 0.0
C894 C 0.85597 0.84721 0.64484 0.0
C895 C 0.87614 0.83184 0.67984 0.0
C896 C 0.83081 0.87063 0.72411 0.0
C897 C 0.8035 0.87514 0.69007 0.0
N898 N 0.79284 0.87625 0.61697 0.0
N899 N 0.89744 0.84545 0.74861 0.0
C900 C 0.81755 0.86723 0.64976 0.0
C901 C 0.86876 0.84987 0.71817 0.0
N902 N 0.87285 0.83993 0.60737 0.0
N903 N 0.81886 0.88326 0.76212 0.0
H904 H 0.92519 0.83028 0.74326 0.0
H905 H 0.89539 0.85908 0.77734 0.0
H906 H 0.79193 0.89987 0.76657 0.0
H907 H 0.83517 0.87716 0.789 0.0
H908 H 0.86128 0.85167 0.58001 0.0
H909 H 0.90089 0.82448 0.60495 0.0
H910 H 0.79932 0.8677 0.58693 0.0
H911 H 0.76516 0.89209 0.6204 0.0
C912 C 0.35794 0.24768 0.38389 0.0
C913 C 0.3455 0.21182 0.40457 0.0
C914 C 0.3711 0.17134 0.34672 0.0
C915 C 0.37211 0.20702 0.32253 0.0
N916 N 0.36928 0.28008 0.31801 0.0
N917 N 0.34557 0.13895 0.40893 0.0
C918 C 0.36727 0.24561 0.34131 0.0
C919 C 0.35485 0.17338 0.38728 0.0
N920 N 0.36029 0.28353 0.4048 0.0
N921 N 0.38526 0.1358 0.33069 0.0
H922 H 0.33546 0.14014 0.43934 0.0
H923 H 0.34656 0.10979 0.39657 0.0
H924 H 0.39737 0.13412 0.30105 0.0
H925 H 0.38804 0.10911 0.34759 0.0
H926 H 0.37204 0.31033 0.3921 0.0
H927 H 0.35483 0.28522 0.43627 0.0
H928 H 0.36089 0.30862 0.3288 0.0
H929 H 0.37723 0.27964 0.28701 0.0
C930 C 0.9073 0.26834 0.15143 0.0
C931 C 0.92021 0.29599 0.18271 0.0
C932 C 0.87576 0.3484 0.1539 0.0
C933 C 0.85692 0.31831 0.12875 0.0
N934 N 0.86612 0.25727 0.08957 0.0
N935 N 0.92699 0.36482 0.20673 0.0
C936 C 0.87676 0.28078 0.12259 0.0
C937 C 0.90809 0.33719 0.18126 0.0
N938 N 0.92214 0.22962 0.1509 0.0
N939 N 0.86098 0.38705 0.15221 0.0
H940 H 0.95162 0.35697 0.22595 0.0
H941 H 0.91992 0.39554 0.20783 0.0
H942 H 0.83872 0.39507 0.13043 0.0
H943 H 0.87094 0.41092 0.17084 0.0
H944 H 0.91031 0.20657 0.13224 0.0
H945 H 0.94584 0.21986 0.17014 0.0
H946 H 0.88093 0.23045 0.08173 0.0
H947 H 0.8454 0.267 0.06714 0.0
C948 C 0.64812 0.84099 0.32959 0.0
C949 C 0.63887 0.80405 0.30898 0.0
C950 C 0.64638 0.76663 0.37387 0.0
C951 C 0.66472 0.80169 0.39181 0.0
N952 N 0.67596 0.87394 0.39093 0.0
N953 N 0.62863 0.73127 0.31093 0.0
C954 C 0.66248 0.83965 0.37105 0.0
C955 C 0.63685 0.76685 0.33119 0.0
N956 N 0.64353 0.87698 0.3092 0.0
N957 N 0.63841 0.73314 0.39743 0.0
H958 H 0.6208 0.7301 0.2799 0.0
H959 H 0.63231 0.7027 0.3241 0.0
H960 H 0.64343 0.73271 0.429 0.0
H961 H 0.62224 0.70764 0.3868 0.0
H962 H 0.64762 0.90546 0.32256 0.0
H963 H 0.63296 0.87835 0.27891 0.0
H964 H 0.67934 0.90229 0.37719 0.0
H965 H 0.68424 0.87355 0.42197 0.0
C966 C 0.12664 0.64875 0.1555 0.0
C967 C 0.14466 0.68031 0.13182 0.0
C968 C 0.09158 0.72719 0.15458 0.0
C969 C 0.08016 0.69872 0.1855 0.0
N970 N 0.07717 0.62943 0.20874 0.0
N971 N 0.13282 0.74359 0.09601 0.0
C972 C 0.09411 0.65809 0.18324 0.0
C973 C 0.12294 0.71695 0.12645 0.0
N974 N 0.14268 0.61072 0.15237 0.0
N975 N 0.07465 0.76503 0.15312 0.0
H976 H 0.15457 0.73762 0.0732 0.0
H977 H 0.15457 0.73762 0.0732 0.0
H978 H 0.05162 0.77479 0.173 0.0
H979 H 0.08384 0.7868 0.13154 0.0
H980 H 0.13255 0.58557 0.16905 0.0
H981 H 0.16574 0.60457 0.13089 0.0
H982 H 0.08655 0.59934 0.21019 0.0
H983 H 0.05232 0.63596 0.22806 0.0
C984 C 0.41818 0.8309 0.68886 0.0
C985 C 0.42651 0.78915 0.69264 0.0
C986 C 0.37971 0.77475 0.63506 0.0
C987 C 0.36259 0.81401 0.63988 0.0
N988 N 0.36754 0.88096 0.67054 0.0
N989 N 0.41572 0.72015 0.66918 0.0
C990 C 0.38319 0.84292 0.66573 0.0
C991 C 0.40829 0.76074 0.66501 0.0
N992 N 0.44311 0.85869 0.70844 0.0
N993 N 0.36838 0.75063 0.60273 0.0
H994 H 0.43692 0.70857 0.69022 0.0
H995 H 0.39881 0.69778 0.65357 0.0
H996 H 0.34919 0.76044 0.57909 0.0
H997 H 0.38223 0.72282 0.59664 0.0
H998 H 0.44072 0.88997 0.70422 0.0
H999 H 0.46898 0.85006 0.72561 0.0
H1000 H 0.37819 0.90162 0.69252 0.0
H1001 H 0.34186 0.89086 0.6543 0.0
C1002 C 0.13122 0.30769 0.88383 0.0
C1003 C 0.14632 0.27028 0.89867 0.0
C1004 C 0.13096 0.23831 0.83244 0.0
C1005 C 0.12228 0.27722 0.81564 0.0
N1006 N 0.11205 0.34896 0.82494 0.0
N1007 N 0.14249 0.19752 0.89344 0.0
C1008 C 0.12082 0.31187 0.84146 0.0
C1009 C 0.14032 0.23468 0.87499 0.0
N1010 N 0.12579 0.33856 0.91109 0.0
N1011 N 0.13291 0.20524 0.80716 0.0
H1012 H 0.14678 0.19426 0.92496 0.0
H1013 H 0.13501 0.17031 0.87874 0.0
H1014 H 0.1253 0.20644 0.77606 0.0
H1015 H 0.14459 0.1773 0.81629 0.0
H1016 H 0.11129 0.36574 0.90385 0.0
H1017 H 0.13241 0.33483 0.94229 0.0
H1018 H 0.11439 0.37614 0.84111 0.0
H1019 H 0.10426 0.35273 0.79407 0.0
C1020 C 0.6189 0.23837 0.62033 0.0
C1021 C 0.63962 0.20274 0.63347 0.0
C1022 C 0.58238 0.18801 0.68066 0.0
C1023 C 0.56998 0.22866 0.6769 0.0
N1024 N 0.57005 0.29108 0.63836 0.0
N1025 N 0.63829 0.14078 0.67346 0.0
C1026 C 0.58555 0.25314 0.6445 0.0
C1027 C 0.61973 0.17603 0.66191 0.0
N1028 N 0.63128 0.25822 0.58558 0.0
N1029 N 0.55892 0.16163 0.70343 0.0
H1030 H 0.66578 0.1312 0.66041 0.0
H1031 H 0.62795 0.12246 0.6975 0.0
H1032 H 0.53125 0.17067 0.71703 0.0
H1033 H 0.56436 0.13053 0.70514 0.0
H1034 H 0.6157 0.28293 0.57321 0.0
H1035 H 0.65432 0.24735 0.56634 0.0
H1036 H 0.58372 0.31267 0.61917 0.0
H1037 H 0.54373 0.30133 0.65347 0.0
C1038 C 0.86574 0.65685 0.82894 0.0
C1039 C 0.87579 0.69399 0.80904 0.0
C1040 C 0.86876 0.73039 0.87452 0.0
C1041 C 0.84966 0.69538 0.89171 0.0
N1042 N 0.83747 0.62328 0.88959 0.0
N1043 N 0.8867 0.76667 0.81229 0.0
C1044 C 0.85133 0.65772 0.87032 0.0
C1045 C 0.87821 0.73079 0.83188 0.0
N1046 N 0.86965 0.62112 0.80795 0.0
N1047 N 0.87781 0.7632 0.89874 0.0
H1048 H 0.89432 0.76837 0.78129 0.0
H1049 H 0.8833 0.79502 0.82601 0.0
H1050 H 0.87338 0.76303 0.93037 0.0
H1051 H 0.89453 0.7885 0.88854 0.0
H1052 H 0.86479 0.59249 0.82069 0.0
H1053 H 0.88036 0.62006 0.77776 0.0
H1054 H 0.83366 0.59518 0.8754 0.0
H1055 H 0.8294 0.62323 0.92063 0.0
C1056 C 0.31221 0.36881 0.15162 0.0
C1057 C 0.2991 0.37927 0.19169 0.0
C1058 C 0.36453 0.35439 0.21978 0.0
C1059 C 0.37044 0.33355 0.18266 0.0
N1060 N 0.36482 0.33581 0.10989 0.0
N1061 N 0.31604 0.39047 0.26305 0.0
C1062 C 0.34973 0.34703 0.14714 0.0
C1063 C 0.32704 0.37605 0.2254 0.0
N1064 N 0.28723 0.37713 0.11883 0.0
N1065 N 0.39396 0.3514 0.24969 0.0
H1066 H 0.28943 0.4076 0.2674 0.0
H1067 H 0.33277 0.38512 0.28985 0.0
H1068 H 0.42102 0.33493 0.2448 0.0
H1069 H 0.39311 0.36724 0.27733 0.0
H1070 H 0.29292 0.36729 0.08904 0.0
H1071 H 0.26025 0.39413 0.12198 0.0
H1072 H 0.35256 0.34529 0.08194 0.0
H1073 H 0.39194 0.3188 0.10786 0.0
C1074 C 0.38317 0.63772 0.77026 0.0
C1075 C 0.4038 0.64738 0.80737 0.0
C1076 C 0.34321 0.62246 0.84593 0.0
C1077 C 0.3197 0.62315 0.80921 0.0
N1078 N 0.31693 0.63126 0.73564 0.0
N1079 N 0.40561 0.64597 0.88108 0.0
C1080 C 0.33976 0.62981 0.77098 0.0
C1081 C 0.38473 0.6378 0.84545 0.0
N1082 N 0.40484 0.63744 0.73434 0.0
N1083 N 0.32575 0.60742 0.88098 0.0
H1084 H 0.43663 0.65552 0.88113 0.0
H1085 H 0.39189 0.64481 0.90997 0.0
H1086 H 0.29536 0.5961 0.88167 0.0
H1087 H 0.34222 0.60329 0.90819 0.0
H1088 H 0.39214 0.62783 0.70649 0.0
H1089 H 0.4368 0.64252 0.73341 0.0
H1090 H 0.32894 0.64104 0.70764 0.0
H1091 H 0.2851 0.62541 0.73499 0.0
C1092 C 0.26948 0.14739 0.88894 0.0
C1093 C 0.29793 0.17531 0.90757 0.0
C1094 C 0.35235 0.15384 0.86046 0.0
C1095 C 0.3224 0.13048 0.83864 0.0
N1096 N 0.25944 0.09098 0.84166 0.0
N1097 N 0.36856 0.19666 0.91951 0.0
C1098 C 0.28335 0.12226 0.85641 0.0
C1099 C 0.34033 0.17548 0.89623 0.0
N1100 N 0.2286 0.14707 0.89996 0.0
N1101 N 0.39171 0.15628 0.8454 0.0
H1102 H 0.36015 0.21213 0.94616 0.0
H1103 H 0.40038 0.19681 0.91433 0.0
H1104 H 0.40075 0.13808 0.82086 0.0
H1105 H 0.41481 0.17565 0.85665 0.0
H1106 H 0.2056 0.13131 0.8838 0.0
H1107 H 0.21695 0.16447 0.92387 0.0
H1108 H 0.23179 0.08139 0.8552 0.0
H1109 H 0.26977 0.07162 0.81864 0.0
C1110 C 0.59922 0.40866 0.80698 0.0
C1111 C 0.58828 0.3822 0.77426 0.0
C1112 C 0.65462 0.39564 0.74075 0.0
C1113 C 0.66639 0.42157 0.77371 0.0
N1114 N 0.64852 0.45842 0.83487 0.0
N1115 N 0.5989 0.36097 0.70461 0.0
C1116 C 0.63802 0.43018 0.80574 0.0
C1117 C 0.61383 0.37941 0.73928 0.0
N1118 N 0.57259 0.4124 0.83923 0.0
N1119 N 0.68299 0.38502 0.71166 0.0
H1120 H 0.5687 0.34945 0.70271 0.0
H1121 H 0.61454 0.36118 0.67668 0.0
H1122 H 0.71322 0.39651 0.71115 0.0
H1123 H 0.67772 0.36218 0.69006 0.0
H1124 H 0.57928 0.42864 0.86587 0.0
H1125 H 0.54346 0.39815 0.83929 0.0
H1126 H 0.62851 0.46831 0.85767 0.0
H1127 H 0.6772 0.4735 0.83511 0.0
C1128 C 0.67005 0.82243 0.89816 0.0
C1129 C 0.71236 0.8135 0.90541 0.0
C1130 C 0.7331 0.86804 0.85837 0.0
C1131 C 0.69203 0.86918 0.84356 0.0
N1132 N 0.6198 0.85572 0.85391 0.0
N1133 N 0.78508 0.82723 0.89175 0.0
C1134 C 0.65985 0.84944 0.86565 0.0
C1135 C 0.74427 0.83684 0.88617 0.0
N1136 N 0.64009 0.80482 0.92213 0.0
N1137 N 0.7613 0.89642 0.84542 0.0
H1138 H 0.79495 0.80406 0.91114 0.0
H1139 H 0.80905 0.84015 0.87456 0.0
H1140 H 0.75285 0.92044 0.82639 0.0
H1141 H 0.79124 0.89893 0.85739 0.0
H1142 H 0.60869 0.8115 0.92008 0.0
H1143 H 0.64717 0.78523 0.94632 0.0
H1144 H 0.59435 0.83967 0.86533 0.0
H1145 H 0.61266 0.87771 0.832 0.0
C1146 C 0.65753 0.65121 0.14505 0.0
C1147 C 0.63725 0.66696 0.17968 0.0
C1148 C 0.68184 0.62799 0.22482 0.0
C1149 C 0.7093 0.62287 0.1912 0.0
N1150 N 0.72041 0.62098 0.11826 0.0
N1151 N 0.61503 0.65341 0.24804 0.0
C1152 C 0.6956 0.63063 0.15063 0.0
C1153 C 0.64406 0.64891 0.21816 0.0
N1154 N 0.64116 0.65871 0.10729 0.0
N1155 N 0.69354 0.61587 0.26316 0.0
H1156 H 0.58748 0.66884 0.24221 0.0
H1157 H 0.61659 0.63952 0.2767 0.0
H1158 H 0.72041 0.59925 0.26816 0.0
H1159 H 0.67716 0.62257 0.28975 0.0
H1160 H 0.65286 0.64686 0.08012 0.0
H1161 H 0.61339 0.67458 0.10439 0.0
H1162 H 0.71423 0.62926 0.08804 0.0
H1163 H 0.74782 0.60479 0.12223 0.0
C1164 C 0.2386 0.87602 0.14849 0.0
C1165 C 0.27656 0.89826 0.15133 0.0
C1166 C 0.31557 0.83772 0.13268 0.0
C1167 C 0.27836 0.81449 0.13438 0.0
N1168 N 0.20364 0.81246 0.13109 0.0
N1169 N 0.3466 0.90524 0.12857 0.0
C1170 C 0.23951 0.8341 0.13771 0.0
C1171 C 0.31356 0.88057 0.13726 0.0
N1172 N 0.20215 0.89401 0.15904 0.0
N1173 N 0.35283 0.81877 0.12876 0.0
H1174 H 0.34469 0.93679 0.13161 0.0
H1175 H 0.37358 0.89498 0.11465 0.0
H1176 H 0.35523 0.78738 0.12505 0.0
H1177 H 0.38127 0.83388 0.13162 0.0
H1178 H 0.17451 0.87807 0.16388 0.0
H1179 H 0.19956 0.92514 0.16378 0.0
H1180 H 0.17449 0.82559 0.12893 0.0
H1181 H 0.20333 0.78141 0.12476 0.0
C1182 C 0.66593 0.18173 0.1171 0.0
C1183 C 0.70694 0.19752 0.11658 0.0
C1184 C 0.73312 0.13173 0.13948 0.0
C1185 C 0.6923 0.12152 0.15119 0.0
N1186 N 0.62236 0.12183 0.12782 0.0
N1187 N 0.78038 0.18474 0.11469 0.0
C1188 C 0.65948 0.14145 0.13137 0.0
C1189 C 0.74105 0.17117 0.12279 0.0
N1190 N 0.63349 0.20578 0.10618 0.0
N1191 N 0.76377 0.10454 0.14708 0.0
H1192 H 0.78627 0.21345 0.10223 0.0
H1193 H 0.80693 0.16766 0.11932 0.0
H1194 H 0.75686 0.07603 0.15962 0.0
H1195 H 0.79482 0.10918 0.13962 0.0
H1196 H 0.60253 0.1972 0.11002 0.0
H1197 H 0.63796 0.23494 0.0942 0.0
H1198 H 0.59734 0.13343 0.11146 0.0
H1199 H 0.61917 0.09179 0.1377 0.0
loop_
_geom_bond_atom_site_label_1
_geom_bond_atom_site_label_2
_geom_bond_distance
_geom_bond_site_symmetry_2
_ccdc_geom_bond_type
Co0 O1 2.216 . S
Co0 O2 2.091 . S
Co0 O4 2.004 . S
Co0 O10 2.021 . S
Co0 O12 2.137 . S
Co0 O13 2.244 . S
O1 Co0 2.216 . S
O1 C8 1.247 . S
O2 Co0 2.091 . S
O2 C8 1.261 . S
C3 O12 1.247 . S
C3 O13 1.272 . S
O4 Co0 2.004 . S
O4 C9 1.259 . S
Co5 O6 2.061 . S
Co5 O11 2.052 . S
Co5 O13 2.135 . S
O6 Co5 2.061 . S
O6 C9 1.235 . S
C7 O10 1.238 . S
C7 O11 1.241 . S
C8 O1 1.247 . S
C8 O2 1.261 . S
C9 O4 1.259 . S
C9 O6 1.235 . S
O10 Co0 2.021 . S
O10 C7 1.238 . S
O11 Co5 2.052 . S
O11 C7 1.241 . S
O12 Co0 2.137 . S
O12 C3 1.247 . S
O13 Co0 2.244 . S
O13 C3 1.272 . S
O13 Co5 2.135 . S
Co14 O15 2.216 . S
Co14 O16 2.091 . S
Co14 O18 2.004 . S
Co14 O24 2.021 . S
Co14 O26 2.137 . S
Co14 O27 2.244 . S
O15 Co14 2.216 . S
O15 C22 1.247 . S
O16 Co14 2.091 . S
O16 C22 1.261 . S
C17 O26 1.247 . S
C17 O27 1.272 . S
O18 Co14 2.004 . S
O18 C23 1.259 . S
Co19 O20 2.061 . S
Co19 O25 2.052 . S
Co19 O27 2.135 . S
O20 Co19 2.061 . S
O20 C23 1.235 . S
C21 O24 1.238 . S
C21 O25 1.241 . S
C22 O15 1.247 . S
C22 O16 1.261 . S
C23 O18 1.259 . S
C23 O20 1.235 . S
O24 Co14 2.021 . S
O24 C21 1.238 . S
O25 Co19 2.052 . S
O25 C21 1.241 . S
O26 Co14 2.137 . S
O26 C17 1.247 . S
O27 Co14 2.244 . S
O27 C17 1.272 . S
O27 Co19 2.135 . S
Co28 O29 2.216 . S
Co28 O30 2.091 . S
Co28 O32 2.004 . S
Co28 O38 2.021 . S
Co28 O40 2.137 . S
Co28 O41 2.244 . S
O29 Co28 2.216 . S
O29 C36 1.247 . S
O30 Co28 2.091 . S
O30 C36 1.261 . S
C31 O40 1.247 . S
C31 O41 1.272 . S
O32 Co28 2.004 . S
O32 C37 1.259 . S
Co33 O34 2.061 . S
Co33 O39 2.052 . S
Co33 O41 2.135 . S
O34 Co33 2.061 . S
O34 C37 1.235 . S
C35 O38 1.238 . S
C35 O39 1.241 . S
C36 O29 1.247 . S
C36 O30 1.261 . S
C37 O32 1.259 . S
C37 O34 1.235 . S
O38 Co28 2.021 . S
O38 C35 1.238 . S
O39 Co33 2.052 . S
O39 C35 1.241 . S
O40 Co28 2.137 . S
O40 C31 1.247 . S
O41 Co28 2.244 . S
O41 C31 1.272 . S
O41 Co33 2.135 . S
Co42 O43 2.216 . S
Co42 O44 2.091 . S
Co42 O46 2.004 . S
Co42 O52 2.021 . S
Co42 O54 2.137 . S
Co42 O55 2.244 . S
O43 Co42 2.216 . S
O43 C50 1.247 . S
O44 Co42 2.091 . S
O44 C50 1.261 . S
C45 O54 1.247 . S
C45 O55 1.272 . S
O46 Co42 2.004 . S
O46 C51 1.259 . S
Co47 O48 2.061 . S
Co47 O53 2.052 . S
Co47 O55 2.135 . S
O48 Co47 2.061 . S
O48 C51 1.235 . S
C49 O52 1.238 . S
C49 O53 1.241 . S
C50 O43 1.247 . S
C50 O44 1.261 . S
C51 O46 1.259 . S
C51 O48 1.235 . S
O52 Co42 2.021 . S
O52 C49 1.238 . S
O53 Co47 2.052 . S
O53 C49 1.241 . S
O54 Co42 2.137 . S
O54 C45 1.247 . S
O55 Co42 2.244 . S
O55 C45 1.272 . S
O55 Co47 2.135 . S
Co56 O57 2.216 . S
Co56 O58 2.091 . S
Co56 O60 2.004 . S
Co56 O66 2.021 . S
Co56 O68 2.137 . S
Co56 O69 2.244 . S
O57 Co56 2.216 . S
O57 C64 1.247 . S
O58 Co56 2.091 . S
O58 C64 1.261 . S
C59 O68 1.247 . S
C59 O69 1.272 . S
O60 Co56 2.004 . S
O60 C65 1.259 . S
Co61 O62 2.061 . S
Co61 O67 2.052 . S
Co61 O69 2.135 . S
O62 Co61 2.061 . S
O62 C65 1.235 . S
C63 O66 1.238 . S
C63 O67 1.241 . S
C64 O57 1.247 . S
C64 O58 1.261 . S
C65 O60 1.259 . S
C65 O62 1.235 . S
O66 Co56 2.021 . S
O66 C63 1.238 . S
O67 Co61 2.052 . S
O67 C63 1.241 . S
O68 Co56 2.137 . S
O68 C59 1.247 . S
O69 Co56 2.244 . S
O69 C59 1.272 . S
O69 Co61 2.135 . S
Co70 O71 2.216 . S
Co70 O72 2.091 . S
Co70 O74 2.004 . S
Co70 O80 2.021 . S
Co70 O82 2.137 . S
Co70 O83 2.244 . S
O71 Co70 2.216 . S
O71 C78 1.247 . S
O72 Co70 2.091 . S
O72 C78 1.261 . S
C73 O82 1.247 . S
C73 O83 1.272 . S
O74 Co70 2.004 . S
O74 C79 1.259 . S
Co75 O76 2.061 . S
Co75 O81 2.052 . S
Co75 O83 2.135 . S
O76 Co75 2.061 . S
O76 C79 1.235 . S
C77 O80 1.238 . S
C77 O81 1.241 . S
C78 O71 1.247 . S
C78 O72 1.261 . S
C79 O74 1.259 . S
C79 O76 1.235 . S
O80 Co70 2.021 . S
O80 C77 1.238 . S
O81 Co75 2.052 . S
O81 C77 1.241 . S
O82 Co70 2.137 . S
O82 C73 1.247 . S
O83 Co70 2.244 . S
O83 C73 1.272 . S
O83 Co75 2.135 . S
Co84 O85 2.216 . S
Co84 O86 2.091 . S
Co84 O88 2.004 . S
Co84 O94 2.021 . S
Co84 O96 2.137 . S
Co84 O97 2.244 . S
O85 Co84 2.216 . S
O85 C92 1.247 . S
O86 Co84 2.091 . S
O86 C92 1.261 . S
C87 O96 1.247 . S
C87 O97 1.272 . S
O88 Co84 2.004 . S
O88 C93 1.259 . S
Co89 O90 2.061 . S
Co89 O95 2.052 . S
Co89 O97 2.135 . S
O90 Co89 2.061 . S
O90 C93 1.235 . S
C91 O94 1.238 . S
C91 O95 1.241 . S
C92 O85 1.247 . S
C92 O86 1.261 . S
C93 O88 1.259 . S
C93 O90 1.235 . S
O94 Co84 2.021 . S
O94 C91 1.238 . S
O95 Co89 2.052 . S
O95 C91 1.241 . S
O96 Co84 2.137 . S
O96 C87 1.247 . S
O97 Co84 2.244 . S
O97 C87 1.272 . S
O97 Co89 2.135 . S
Co98 O99 2.216 . S
Co98 O100 2.091 . S
Co98 O102 2.004 . S
Co98 O108 2.021 . S
Co98 O110 2.137 . S
Co98 O111 2.244 . S
O99 Co98 2.216 . S
O99 C106 1.247 . S
O100 Co98 2.091 . S
O100 C106 1.261 . S
C101 O110 1.247 . S
C101 O111 1.272 . S
O102 Co98 2.004 . S
O102 C107 1.259 . S
Co103 O104 2.061 . S
Co103 O109 2.052 . S
Co103 O111 2.135 . S
O104 Co103 2.061 . S
O104 C107 1.235 . S
C105 O108 1.238 . S
C105 O109 1.241 . S
C106 O99 1.247 . S
C106 O100 1.261 . S
C107 O102 1.259 . S
C107 O104 1.235 . S
O108 Co98 2.021 . S
O108 C105 1.238 . S
O109 Co103 2.052 . S
O109 C105 1.241 . S
O110 Co98 2.137 . S
O110 C101 1.247 . S
O111 Co98 2.244 . S
O111 C101 1.272 . S
O111 Co103 2.135 . S
Co112 O113 2.216 . S
Co112 O114 2.091 . S
Co112 O116 2.004 . S
Co112 O122 2.021 . S
Co112 O124 2.137 . S
Co112 O125 2.244 . S
O113 Co112 2.216 . S
O113 C120 1.247 . S
O114 Co112 2.091 . S
O114 C120 1.261 . S
C115 O124 1.247 . S
C115 O125 1.272 . S
O116 Co112 2.004 . S
O116 C121 1.259 . S
Co117 O118 2.061 . S
Co117 O123 2.052 . S
Co117 O125 2.135 . S
O118 Co117 2.061 . S
O118 C121 1.235 . S
C119 O122 1.238 . S
C119 O123 1.241 . S
C120 O113 1.247 . S
C120 O114 1.261 . S
C121 O116 1.259 . S
C121 O118 1.235 . S
O122 Co112 2.021 . S
O122 C119 1.238 . S
O123 Co117 2.052 . S
O123 C119 1.241 . S
O124 Co112 2.137 . S
O124 C115 1.247 . S
O125 Co112 2.244 . S
O125 C115 1.272 . S
O125 Co117 2.135 . S
Co126 O127 2.216 . S
Co126 O128 2.091 . S
Co126 O130 2.004 . S
Co126 O136 2.021 . S
Co126 O138 2.137 . S
Co126 O139 2.244 . S
O127 Co126 2.216 . S
O127 C134 1.247 . S
O128 Co126 2.091 . S
O128 C134 1.261 . S
C129 O138 1.247 . S
C129 O139 1.272 . S
O130 Co126 2.004 . S
O130 C135 1.259 . S
Co131 O132 2.061 . S
Co131 O137 2.052 . S
Co131 O139 2.135 . S
O132 Co131 2.061 . S
O132 C135 1.235 . S
C133 O136 1.238 . S
C133 O137 1.241 . S
C134 O127 1.247 . S
C134 O128 1.261 . S
C135 O130 1.259 . S
C135 O132 1.235 . S
O136 Co126 2.021 . S
O136 C133 1.238 . S
O137 Co131 2.052 . S
O137 C133 1.241 . S
O138 Co126 2.137 . S
O138 C129 1.247 . S
O139 Co126 2.244 . S
O139 C129 1.272 . S
O139 Co131 2.135 . S
Co140 O141 2.216 . S
Co140 O142 2.091 . S
Co140 O144 2.004 . S
Co140 O150 2.021 . S
Co140 O152 2.137 . S
Co140 O153 2.244 . S
O141 Co140 2.216 . S
O141 C148 1.247 . S
O142 Co140 2.091 . S
O142 C148 1.261 . S
C143 O152 1.247 . S
C143 O153 1.272 . S
O144 Co140 2.004 . S
O144 C149 1.259 . S
Co145 O146 2.061 . S
Co145 O151 2.052 . S
Co145 O153 2.135 . S
O146 Co145 2.061 . S
O146 C149 1.235 . S
C147 O150 1.238 . S
C147 O151 1.241 . S
C148 O141 1.247 . S
C148 O142 1.261 . S
C149 O144 1.259 . S
C149 O146 1.235 . S
O150 Co140 2.021 . S
O150 C147 1.238 . S
O151 Co145 2.052 . S
O151 C147 1.241 . S
O152 Co140 2.137 . S
O152 C143 1.247 . S
O153 Co140 2.244 . S
O153 C143 1.272 . S
O153 Co145 2.135 . S
Co154 O155 2.216 . S
Co154 O156 2.091 . S
Co154 O158 2.004 . S
Co154 O164 2.021 . S
Co154 O166 2.137 . S
Co154 O167 2.244 . S
O155 Co154 2.216 . S
O155 C162 1.247 . S
O156 Co154 2.091 . S
O156 C162 1.261 . S
C157 O166 1.247 . S
C157 O167 1.272 . S
O158 Co154 2.004 . S
O158 C163 1.259 . S
Co159 O160 2.061 . S
Co159 O165 2.052 . S
Co159 O167 2.135 . S
O160 Co159 2.061 . S
O160 C163 1.235 . S
C161 O164 1.238 . S
C161 O165 1.241 . S
C162 O155 1.247 . S
C162 O156 1.261 . S
C163 O158 1.259 . S
C163 O160 1.235 . S
O164 Co154 2.021 . S
O164 C161 1.238 . S
O165 Co159 2.052 . S
O165 C161 1.241 . S
O166 Co154 2.137 . S
O166 C157 1.247 . S
O167 Co154 2.244 . S
O167 C157 1.272 . S
O167 Co159 2.135 . S
Co168 O169 2.216 . S
Co168 O170 2.091 . S
Co168 O172 2.004 . S
Co168 O178 2.021 . S
Co168 O180 2.137 . S
Co168 O181 2.244 . S
O169 Co168 2.216 . S
O169 C176 1.247 . S
O170 Co168 2.091 . S
O170 C176 1.261 . S
C171 O180 1.247 . S
C171 O181 1.272 . S
O172 Co168 2.004 . S
O172 C177 1.259 . S
Co173 O174 2.061 . S
Co173 O179 2.052 . S
Co173 O181 2.135 . S
O174 Co173 2.061 . S
O174 C177 1.235 . S
C175 O178 1.238 . S
C175 O179 1.241 . S
C176 O169 1.247 . S
C176 O170 1.261 . S
C177 O172 1.259 . S
C177 O174 1.235 . S
O178 Co168 2.021 . S
O178 C175 1.238 . S
O179 Co173 2.052 . S
O179 C175 1.241 . S
O180 Co168 2.137 . S
O180 C171 1.247 . S
O181 Co168 2.244 . S
O181 C171 1.272 . S
O181 Co173 2.135 . S
Co182 O183 2.216 . S
Co182 O184 2.091 . S
Co182 O186 2.004 . S
Co182 O192 2.021 . S
Co182 O194 2.137 . S
Co182 O195 2.244 . S
O183 Co182 2.216 . S
O183 C190 1.247 . S
O184 Co182 2.091 . S
O184 C190 1.261 . S
C185 O194 1.247 . S
C185 O195 1.272 . S
O186 Co182 2.004 . S
O186 C191 1.259 . S
Co187 O188 2.061 . S
Co187 O193 2.052 . S
Co187 O195 2.135 . S
O188 Co187 2.061 . S
O188 C191 1.235 . S
C189 O192 1.238 . S
C189 O193 1.241 . S
C190 O183 1.247 . S
C190 O184 1.261 . S
C191 O186 1.259 . S
C191 O188 1.235 . S
O192 Co182 2.021 . S
O192 C189 1.238 . S
O193 Co187 2.052 . S
O193 C189 1.241 . S
O194 Co182 2.137 . S
O194 C185 1.247 . S
O195 Co182 2.244 . S
O195 C185 1.272 . S
O195 Co187 2.135 . S
Co196 O197 2.216 . S
Co196 O198 2.091 . S
Co196 O200 2.004 . S
Co196 O206 2.021 . S
Co196 O208 2.137 . S
Co196 O209 2.244 . S
O197 Co196 2.216 . S
O197 C204 1.247 . S
O198 Co196 2.091 . S
O198 C204 1.261 . S
C199 O208 1.247 . S
C199 O209 1.272 . S
O200 Co196 2.004 . S
O200 C205 1.259 . S
Co201 O202 2.061 . S
Co201 O207 2.052 . S
Co201 O209 2.135 . S
O202 Co201 2.061 . S
O202 C205 1.235 . S
C203 O206 1.238 . S
C203 O207 1.241 . S
C204 O197 1.247 . S
C204 O198 1.261 . S
C205 O200 1.259 . S
C205 O202 1.235 . S
O206 Co196 2.021 . S
O206 C203 1.238 . S
O207 Co201 2.052 . S
O207 C203 1.241 . S
O208 Co196 2.137 . S
O208 C199 1.247 . S
O209 Co196 2.244 . S
O209 C199 1.272 . S
O209 Co201 2.135 . S
Co210 O211 2.216 . S
Co210 O212 2.091 . S
Co210 O214 2.004 . S
Co210 O220 2.021 . S
Co210 O222 2.137 . S
Co210 O223 2.244 . S
O211 Co210 2.216 . S
O211 C218 1.247 . S
O212 Co210 2.091 . S
O212 C218 1.261 . S
C213 O222 1.247 . S
C213 O223 1.272 . S
O214 Co210 2.004 . S
O214 C219 1.259 . S
Co215 O216 2.061 . S
Co215 O221 2.052 . S
Co215 O223 2.135 . S
O216 Co215 2.061 . S
O216 C219 1.235 . S
C217 O220 1.238 . S
C217 O221 1.241 . S
C218 O211 1.247 . S
C218 O212 1.261 . S
C219 O214 1.259 . S
C219 O216 1.235 . S
O220 Co210 2.021 . S
O220 C217 1.238 . S
O221 Co215 2.052 . S
O221 C217 1.241 . S
O222 Co210 2.137 . S
O222 C213 1.247 . S
O223 Co210 2.244 . S
O223 C213 1.272 . S
O223 Co215 2.135 . S
Co224 O225 2.216 . S
Co224 O226 2.091 . S
Co224 O228 2.004 . S
Co224 O234 2.021 . S
Co224 O236 2.137 . S
Co224 O237 2.244 . S
O225 Co224 2.216 . S
O225 C232 1.247 . S
O226 Co224 2.091 . S
O226 C232 1.261 . S
C227 O236 1.247 . S
C227 O237 1.272 . S
O228 Co224 2.004 . S
O228 C233 1.259 . S
Co229 O230 2.061 . S
Co229 O235 2.052 . S
Co229 O237 2.135 . S
O230 Co229 2.061 . S
O230 C233 1.235 . S
C231 O234 1.238 . S
C231 O235 1.241 . S
C232 O225 1.247 . S
C232 O226 1.261 . S
C233 O228 1.259 . S
C233 O230 1.235 . S
O234 Co224 2.021 . S
O234 C231 1.238 . S
O235 Co229 2.052 . S
O235 C231 1.241 . S
O236 Co224 2.137 . S
O236 C227 1.247 . S
O237 Co224 2.244 . S
O237 C227 1.272 . S
O237 Co229 2.135 . S
Co238 O239 2.216 . S
Co238 O240 2.091 . S
Co238 O242 2.004 . S
Co238 O248 2.021 . S
Co238 O250 2.137 . S
Co238 O251 2.244 . S
O239 Co238 2.216 . S
O239 C246 1.247 . S
O240 Co238 2.091 . S
O240 C246 1.261 . S
C241 O250 1.247 . S
C241 O251 1.272 . S
O242 Co238 2.004 . S
O242 C247 1.259 . S
Co243 O244 2.061 . S
Co243 O249 2.052 . S
Co243 O251 2.135 . S
O244 Co243 2.061 . S
O244 C247 1.235 . S
C245 O248 1.238 . S
C245 O249 1.241 . S
C246 O239 1.247 . S
C246 O240 1.261 . S
C247 O242 1.259 . S
C247 O244 1.235 . S
O248 Co238 2.021 . S
O248 C245 1.238 . S
O249 Co243 2.052 . S
O249 C245 1.241 . S
O250 Co238 2.137 . S
O250 C241 1.247 . S
O251 Co238 2.244 . S
O251 C241 1.272 . S
O251 Co243 2.135 . S
Co252 O253 2.216 . S
Co252 O254 2.091 . S
Co252 O256 2.004 . S
Co252 O262 2.021 . S
Co252 O264 2.137 . S
Co252 O265 2.244 . S
O253 Co252 2.216 . S
O253 C260 1.247 . S
O254 Co252 2.091 . S
O254 C260 1.261 . S
C255 O264 1.247 . S
C255 O265 1.272 . S
O256 Co252 2.004 . S
O256 C261 1.259 . S
Co257 O258 2.061 . S
Co257 O263 2.052 . S
Co257 O265 2.135 . S
O258 Co257 2.061 . S
O258 C261 1.235 . S
C259 O262 1.238 . S
C259 O263 1.241 . S
C260 O253 1.247 . S
C260 O254 1.261 . S
C261 O256 1.259 . S
C261 O258 1.235 . S
O262 Co252 2.021 . S
O262 C259 1.238 . S
O263 Co257 2.052 . S
O263 C259 1.241 . S
O264 Co252 2.137 . S
O264 C255 1.247 . S
O265 Co252 2.244 . S
O265 C255 1.272 . S
O265 Co257 2.135 . S
Co266 O267 2.216 . S
Co266 O268 2.091 . S
Co266 O270 2.004 . S
Co266 O276 2.021 . S
Co266 O278 2.137 . S
Co266 O279 2.244 . S
O267 Co266 2.216 . S
O267 C274 1.247 . S
O268 Co266 2.091 . S
O268 C274 1.261 . S
C269 O278 1.247 . S
C269 O279 1.272 . S
O270 Co266 2.004 . S
O270 C275 1.259 . S
Co271 O272 2.061 . S
Co271 O277 2.052 . S
Co271 O279 2.135 . S
O272 Co271 2.061 . S
O272 C275 1.235 . S
C273 O276 1.238 . S
C273 O277 1.241 . S
C274 O267 1.247 . S
C274 O268 1.261 . S
C275 O270 1.259 . S
C275 O272 1.235 . S
O276 Co266 2.021 . S
O276 C273 1.238 . S
O277 Co271 2.052 . S
O277 C273 1.241 . S
O278 Co266 2.137 . S
O278 C269 1.247 . S
O279 Co266 2.244 . S
O279 C269 1.272 . S
O279 Co271 2.135 . S
Co280 O281 2.216 . S
Co280 O282 2.091 . S
Co280 O284 2.004 . S
Co280 O290 2.021 . S
Co280 O292 2.137 . S
Co280 O293 2.244 . S
O281 Co280 2.216 . S
O281 C288 1.247 . S
O282 Co280 2.091 . S
O282 C288 1.261 . S
C283 O292 1.247 . S
C283 O293 1.272 . S
O284 Co280 2.004 . S
O284 C289 1.259 . S
Co285 O286 2.061 . S
Co285 O291 2.052 . S
Co285 O293 2.135 . S
O286 Co285 2.061 . S
O286 C289 1.235 . S
C287 O290 1.238 . S
C287 O291 1.241 . S
C288 O281 1.247 . S
C288 O282 1.261 . S
C289 O284 1.259 . S
C289 O286 1.235 . S
O290 Co280 2.021 . S
O290 C287 1.238 . S
O291 Co285 2.052 . S
O291 C287 1.241 . S
O292 Co280 2.137 . S
O292 C283 1.247 . S
O293 Co280 2.244 . S
O293 C283 1.272 . S
O293 Co285 2.135 . S
Co294 O295 2.216 . S
Co294 O296 2.091 . S
Co294 O298 2.004 . S
Co294 O304 2.021 . S
Co294 O306 2.137 . S
Co294 O307 2.244 . S
O295 Co294 2.216 . S
O295 C302 1.247 . S
O296 Co294 2.091 . S
O296 C302 1.261 . S
C297 O306 1.247 . S
C297 O307 1.272 . S
O298 Co294 2.004 . S
O298 C303 1.259 . S
Co299 O300 2.061 . S
Co299 O305 2.052 . S
Co299 O307 2.135 . S
O300 Co299 2.061 . S
O300 C303 1.235 . S
C301 O304 1.238 . S
C301 O305 1.241 . S
C302 O295 1.247 . S
C302 O296 1.261 . S
C303 O298 1.259 . S
C303 O300 1.235 . S
O304 Co294 2.021 . S
O304 C301 1.238 . S
O305 Co299 2.052 . S
O305 C301 1.241 . S
O306 Co294 2.137 . S
O306 C297 1.247 . S
O307 Co294 2.244 . S
O307 C297 1.272 . S
O307 Co299 2.135 . S
Co308 O309 2.216 . S
Co308 O310 2.091 . S
Co308 O312 2.004 . S
Co308 O318 2.021 . S
Co308 O320 2.137 . S
Co308 O321 2.244 . S
O309 Co308 2.216 . S
O309 C316 1.247 . S
O310 Co308 2.091 . S
O310 C316 1.261 . S
C311 O320 1.247 . S
C311 O321 1.272 . S
O312 Co308 2.004 . S
O312 C317 1.259 . S
Co313 O314 2.061 . S
Co313 O319 2.052 . S
Co313 O321 2.135 . S
O314 Co313 2.061 . S
O314 C317 1.235 . S
C315 O318 1.238 . S
C315 O319 1.241 . S
C316 O309 1.247 . S
C316 O310 1.261 . S
C317 O312 1.259 . S
C317 O314 1.235 . S
O318 Co308 2.021 . S
O318 C315 1.238 . S
O319 Co313 2.052 . S
O319 C315 1.241 . S
O320 Co308 2.137 . S
O320 C311 1.247 . S
O321 Co308 2.244 . S
O321 C311 1.272 . S
O321 Co313 2.135 . S
Co322 O323 2.216 . S
Co322 O324 2.091 . S
Co322 O326 2.004 . S
Co322 O332 2.021 . S
Co322 O334 2.137 . S
Co322 O335 2.244 . S
O323 Co322 2.216 . S
O323 C330 1.247 . S
O324 Co322 2.091 . S
O324 C330 1.261 . S
C325 O334 1.247 . S
C325 O335 1.272 . S
O326 Co322 2.004 . S
O326 C331 1.259 . S
Co327 O328 2.061 . S
Co327 O333 2.052 . S
Co327 O335 2.135 . S
O328 Co327 2.061 . S
O328 C331 1.235 . S
C329 O332 1.238 . S
C329 O333 1.241 . S
C330 O323 1.247 . S
C330 O324 1.261 . S
C331 O326 1.259 . S
C331 O328 1.235 . S
O332 Co322 2.021 . S
O332 C329 1.238 . S
O333 Co327 2.052 . S
O333 C329 1.241 . S
O334 Co322 2.137 . S
O334 C325 1.247 . S
O335 Co322 2.244 . S
O335 C325 1.272 . S
O335 Co327 2.135 . S
C336 C337 1.363 . S
C336 C342 1.379 . S
C336 N344 1.356 . S
C337 C336 1.363 . S
C337 C343 1.363 . S
C338 C339 1.363 . S
C338 C343 1.379 . S
C338 N345 1.356 . S
C339 C338 1.363 . S
C339 C342 1.363 . S
N340 C342 1.356 . S
N340 H352 0.984 . S
N340 H353 0.985 . S
N341 C343 1.356 . S
N341 H346 0.984 . S
N341 H347 0.985 . S
C342 C336 1.379 . S
C342 C339 1.363 . S
C342 N340 1.356 . S
C343 C337 1.363 . S
C343 C338 1.379 . S
C343 N341 1.356 . S
N344 C336 1.356 . S
N344 H350 0.984 . S
N344 H351 0.984 . S
N345 C338 1.356 . S
N345 H348 0.984 . S
N345 H349 0.985 . S
H346 N341 0.984 . S
H347 N341 0.985 . S
H348 N345 0.984 . S
H349 N345 0.985 . S
H350 N344 0.984 . S
H351 N344 0.984 . S
H352 N340 0.984 . S
H353 N340 0.985 . S
C354 C355 1.363 . S
C354 C360 1.379 . S
C354 N362 1.356 . S
C355 C354 1.363 . S
C355 C361 1.363 . S
C356 C357 1.363 . S
C356 C361 1.379 . S
C356 N363 1.356 . S
C357 C356 1.363 . S
C357 C360 1.363 . S
N358 C360 1.356 . S
N358 H370 0.984 . S
N358 H371 0.985 . S
N359 C361 1.356 . S
N359 H364 0.984 . S
N359 H365 0.985 . S
C360 C354 1.379 . S
C360 C357 1.363 . S
C360 N358 1.356 . S
C361 C355 1.363 . S
C361 C356 1.379 . S
C361 N359 1.356 . S
N362 C354 1.356 . S
N362 H368 0.984 . S
N362 H369 0.984 . S
N363 C356 1.356 . S
N363 H366 0.984 . S
N363 H367 0.985 . S
H364 N359 0.984 . S
H365 N359 0.985 . S
H366 N363 0.984 . S
H367 N363 0.985 . S
H368 N362 0.984 . S
H369 N362 0.984 . S
H370 N358 0.984 . S
H371 N358 0.985 . S
C372 C373 1.363 . S
C372 C378 1.379 . S
C372 N380 1.356 . S
C373 C372 1.363 . S
C373 C379 1.363 . S
C374 C375 1.363 . S
C374 C379 1.379 . S
C374 N381 1.356 . S
C375 C374 1.363 . S
C375 C378 1.363 . S
N376 C378 1.356 . S
N376 H388 0.984 . S
N376 H389 0.985 . S
N377 C379 1.356 . S
N377 H382 0.984 . S
N377 H383 0.985 . S
C378 C372 1.379 . S
C378 C375 1.363 . S
C378 N376 1.356 . S
C379 C373 1.363 . S
C379 C374 1.379 . S
C379 N377 1.356 . S
N380 C372 1.356 . S
N380 H386 0.984 . S
N380 H387 0.984 . S
N381 C374 1.356 . S
N381 H384 0.984 . S
N381 H385 0.985 . S
H382 N377 0.984 . S
H383 N377 0.985 . S
H384 N381 0.984 . S
H385 N381 0.985 . S
H386 N380 0.984 . S
H387 N380 0.984 . S
H388 N376 0.984 . S
H389 N376 0.985 . S
C390 C391 1.363 . S
C390 C396 1.379 . S
C390 N398 1.356 . S
C391 C390 1.363 . S
C391 C397 1.363 . S
C392 C393 1.363 . S
C392 C397 1.379 . S
C392 N399 1.356 . S
C393 C392 1.363 . S
C393 C396 1.363 . S
N394 C396 1.356 . S
N394 H406 0.984 . S
N394 H407 0.985 . S
N395 C397 1.356 . S
N395 H400 0.984 . S
N395 H401 0.985 . S
C396 C390 1.379 . S
C396 C393 1.363 . S
C396 N394 1.356 . S
C397 C391 1.363 . S
C397 C392 1.379 . S
C397 N395 1.356 . S
N398 C390 1.356 . S
N398 H404 0.984 . S
N398 H405 0.984 . S
N399 C392 1.356 . S
N399 H402 0.984 . S
N399 H403 0.985 . S
H400 N395 0.984 . S
H401 N395 0.985 . S
H402 N399 0.984 . S
H403 N399 0.985 . S
H404 N398 0.984 . S
H405 N398 0.984 . S
H406 N394 0.984 . S
H407 N394 0.985 . S
C408 C409 1.363 . S
C408 C414 1.379 . S
C408 N416 1.356 . S
C409 C408 1.363 . S
C409 C415 1.363 . S
C410 C411 1.363 . S
C410 C415 1.379 . S
C410 N417 1.356 . S
C411 C410 1.363 . S
C411 C414 1.363 . S
N412 C414 1.356 . S
N412 H424 0.984 . S
N412 H425 0.985 . S
N413 C415 1.356 . S
N413 H418 0.984 . S
N413 H419 0.985 . S
C414 C408 1.379 . S
C414 C411 1.363 . S
C414 N412 1.356 . S
C415 C409 1.363 . S
C415 C410 1.379 . S
C415 N413 1.356 . S
N416 C408 1.356 . S
N416 H422 0.984 . S
N416 H423 0.984 . S
N417 C410 1.356 . S
N417 H420 0.984 . S
N417 H421 0.985 . S
H418 N413 0.984 . S
H419 N413 0.985 . S
H420 N417 0.984 . S
H421 N417 0.985 . S
H422 N416 0.984 . S
H423 N416 0.984 . S
H424 N412 0.984 . S
H425 N412 0.985 . S
C426 C427 1.363 . S
C426 C432 1.379 . S
C426 N434 1.356 . S
C427 C426 1.363 . S
C427 C433 1.363 . S
C428 C429 1.363 . S
C428 C433 1.379 . S
C428 N435 1.356 . S
C429 C428 1.363 . S
C429 C432 1.363 . S
N430 C432 1.356 . S
N430 H442 0.984 . S
N430 H443 0.985 . S
N431 C433 1.356 . S
N431 H436 0.984 . S
N431 H437 0.985 . S
C432 C426 1.379 . S
C432 C429 1.363 . S
C432 N430 1.356 . S
C433 C427 1.363 . S
C433 C428 1.379 . S
C433 N431 1.356 . S
N434 C426 1.356 . S
N434 H440 0.984 . S
N434 H441 0.984 . S
N435 C428 1.356 . S
N435 H438 0.984 . S
N435 H439 0.985 . S
H436 N431 0.984 . S
H437 N431 0.985 . S
H438 N435 0.984 . S
H439 N435 0.985 . S
H440 N434 0.984 . S
H441 N434 0.984 . S
H442 N430 0.984 . S
H443 N430 0.985 . S
C444 C445 1.363 . S
C444 C450 1.379 . S
C444 N452 1.356 . S
C445 C444 1.363 . S
C445 C451 1.363 . S
C446 C447 1.363 . S
C446 C451 1.379 . S
C446 N453 1.356 . S
C447 C446 1.363 . S
C447 C450 1.363 . S
N448 C450 1.356 . S
N448 H460 0.984 . S
N448 H461 0.985 . S
N449 C451 1.356 . S
N449 H454 0.984 . S
N449 H455 0.985 . S
C450 C444 1.379 . S
C450 C447 1.363 . S
C450 N448 1.356 . S
C451 C445 1.363 . S
C451 C446 1.379 . S
C451 N449 1.356 . S
N452 C444 1.356 . S
N452 H458 0.984 . S
N452 H459 0.984 . S
N453 C446 1.356 . S
N453 H456 0.984 . S
N453 H457 0.985 . S
H454 N449 0.984 . S
H455 N449 0.985 . S
H456 N453 0.984 . S
H457 N453 0.985 . S
H458 N452 0.984 . S
H459 N452 0.984 . S
H460 N448 0.984 . S
H461 N448 0.985 . S
C462 C463 1.363 . S
C462 C468 1.379 . S
C462 N470 1.356 . S
C463 C462 1.363 . S
C463 C469 1.363 . S
C464 C465 1.363 . S
C464 C469 1.379 . S
C464 N471 1.356 . S
C465 C464 1.363 . S
C465 C468 1.363 . S
N466 C468 1.356 . S
N466 H478 0.984 . S
N466 H479 0.985 . S
N467 C469 1.356 . S
N467 H472 0.984 . S
N467 H473 0.985 . S
C468 C462 1.379 . S
C468 C465 1.363 . S
C468 N466 1.356 . S
C469 C463 1.363 . S
C469 C464 1.379 . S
C469 N467 1.356 . S
N470 C462 1.356 . S
N470 H476 0.984 . S
N470 H477 0.984 . S
N471 C464 1.356 . S
N471 H474 0.984 . S
N471 H475 0.985 . S
H472 N467 0.984 . S
H473 N467 0.985 . S
H474 N471 0.984 . S
H475 N471 0.985 . S
H476 N470 0.984 . S
H477 N470 0.984 . S
H478 N466 0.984 . S
H479 N466 0.985 . S
C480 C481 1.363 . S
C480 C486 1.379 . S
C480 N488 1.356 . S
C481 C480 1.363 . S
C481 C487 1.363 . S
C482 C483 1.363 . S
C482 C487 1.379 . S
C482 N489 1.356 . S
C483 C482 1.363 . S
C483 C486 1.363 . S
N484 C486 1.356 . S
N484 H496 0.984 . S
N484 H497 0.985 . S
N485 C487 1.356 . S
N485 H490 0.984 . S
N485 H491 0.985 . S
C486 C480 1.379 . S
C486 C483 1.363 . S
C486 N484 1.356 . S
C487 C481 1.363 . S
C487 C482 1.379 . S
C487 N485 1.356 . S
N488 C480 1.356 . S
N488 H494 0.984 . S
N488 H495 0.984 . S
N489 C482 1.356 . S
N489 H492 0.984 . S
N489 H493 0.985 . S
H490 N485 0.984 . S
H491 N485 0.985 . S
H492 N489 0.984 . S
H493 N489 0.985 . S
H494 N488 0.984 . S
H495 N488 0.984 . S
H496 N484 0.984 . S
H497 N484 0.985 . S
C498 C499 1.363 . S
C498 C504 1.379 . S
C498 N506 1.356 . S
C499 C498 1.363 . S
C499 C505 1.363 . S
C500 C501 1.363 . S
C500 C505 1.379 . S
C500 N507 1.356 . S
C501 C500 1.363 . S
C501 C504 1.363 . S
N502 C504 1.356 . S
N502 H514 0.984 . S
N502 H515 0.985 . S
N503 C505 1.356 . S
N503 H508 0.984 . S
N503 H509 0.985 . S
C504 C498 1.379 . S
C504 C501 1.363 . S
C504 N502 1.356 . S
C505 C499 1.363 . S
C505 C500 1.379 . S
C505 N503 1.356 . S
N506 C498 1.356 . S
N506 H512 0.984 . S
N506 H513 0.984 . S
N507 C500 1.356 . S
N507 H510 0.984 . S
N507 H511 0.985 . S
H508 N503 0.984 . S
H509 N503 0.985 . S
H510 N507 0.984 . S
H511 N507 0.985 . S
H512 N506 0.984 . S
H513 N506 0.984 . S
H514 N502 0.984 . S
H515 N502 0.985 . S
C516 C517 1.363 . S
C516 C522 1.379 . S
C516 N524 1.356 . S
C517 C516 1.363 . S
C517 C523 1.363 . S
C518 C519 1.363 . S
C518 C523 1.379 . S
C518 N525 1.356 . S
C519 C518 1.363 . S
C519 C522 1.363 . S
N520 C522 1.356 . S
N520 H532 0.984 . S
N520 H533 0.985 . S
N521 C523 1.356 . S
N521 H526 0.984 . S
N521 H527 0.985 . S
C522 C516 1.379 . S
C522 C519 1.363 . S
C522 N520 1.356 . S
C523 C517 1.363 . S
C523 C518 1.379 . S
C523 N521 1.356 . S
N524 C516 1.356 . S
N524 H530 0.984 . S
N524 H531 0.984 . S
N525 C518 1.356 . S
N525 H528 0.984 . S
N525 H529 0.985 . S
H526 N521 0.984 . S
H527 N521 0.985 . S
H528 N525 0.984 . S
H529 N525 0.985 . S
H530 N524 0.984 . S
H531 N524 0.984 . S
H532 N520 0.984 . S
H533 N520 0.985 . S
C534 C535 1.363 . S
C534 C540 1.379 . S
C534 N542 1.356 . S
C535 C534 1.363 . S
C535 C541 1.363 . S
C536 C537 1.363 . S
C536 C541 1.379 . S
C536 N543 1.356 . S
C537 C536 1.363 . S
C537 C540 1.363 . S
N538 C540 1.356 . S
N538 H550 0.984 . S
N538 H551 0.985 . S
N539 C541 1.356 . S
N539 H544 0.984 . S
N539 H545 0.985 . S
C540 C534 1.379 . S
C540 C537 1.363 . S
C540 N538 1.356 . S
C541 C535 1.363 . S
C541 C536 1.379 . S
C541 N539 1.356 . S
N542 C534 1.356 . S
N542 H548 0.984 . S
N542 H549 0.984 . S
N543 C536 1.356 . S
N543 H546 0.984 . S
N543 H547 0.985 . S
H544 N539 0.984 . S
H545 N539 0.985 . S
H546 N543 0.984 . S
H547 N543 0.985 . S
H548 N542 0.984 . S
H549 N542 0.984 . S
H550 N538 0.984 . S
H551 N538 0.985 . S
C552 C553 1.363 . S
C552 C558 1.379 . S
C552 N560 1.356 . S
C553 C552 1.363 . S
C553 C559 1.363 . S
C554 C555 1.363 . S
C554 C559 1.379 . S
C554 N561 1.356 . S
C555 C554 1.363 . S
C555 C558 1.363 . S
N556 C558 1.356 . S
N556 H568 0.984 . S
N556 H569 0.985 . S
N557 C559 1.356 1_565 S
N557 H562 0.984 . S
N557 H563 0.985 . S
C558 C552 1.379 . S
C558 C555 1.363 . S
C558 N556 1.356 . S
C559 C553 1.363 . S
C559 C554 1.379 . S
C559 N557 1.356 1_545 S
N560 C552 1.356 . S
N560 H566 0.984 . S
N560 H567 0.984 . S
N561 C554 1.356 . S
N561 H564 0.984 . S
N561 H565 0.985 1_545 S
H562 N557 0.984 . S
H563 N557 0.985 . S
H564 N561 0.984 . S
H565 N561 0.985 1_565 S
H566 N560 0.984 . S
H567 N560 0.984 . S
H568 N556 0.984 . S
H569 N556 0.985 . S
C570 C571 1.363 . S
C570 C576 1.379 . S
C570 N578 1.356 1_455 S
C571 C570 1.363 . S
C571 C577 1.363 . S
C572 C573 1.363 . S
C572 C577 1.379 . S
C572 N579 1.356 . S
C573 C572 1.363 . S
C573 C576 1.363 . S
N574 C576 1.356 . S
N574 H586 0.984 . S
N574 H587 0.985 . S
N575 C577 1.356 . S
N575 H580 0.984 . S
N575 H581 0.985 . S
C576 C570 1.379 . S
C576 C573 1.363 . S
C576 N574 1.356 . S
C577 C571 1.363 . S
C577 C572 1.379 . S
C577 N575 1.356 . S
N578 C570 1.356 1_655 S
N578 H584 0.984 . S
N578 H585 0.984 . S
N579 C572 1.356 . S
N579 H582 0.984 . S
N579 H583 0.985 . S
H580 N575 0.984 . S
H581 N575 0.985 . S
H582 N579 0.984 . S
H583 N579 0.985 . S
H584 N578 0.984 . S
H585 N578 0.984 . S
H586 N574 0.984 . S
H587 N574 0.985 . S
C588 C589 1.363 1_545 S
C588 C594 1.379 1_545 S
C588 N596 1.356 . S
C589 C588 1.363 1_565 S
C589 C595 1.363 . S
C590 C591 1.363 . S
C590 C595 1.379 . S
C590 N597 1.356 . S
C591 C590 1.363 . S
C591 C594 1.363 . S
N592 C594 1.356 . S
N592 H604 0.984 1_565 S
N592 H605 0.985 . S
N593 C595 1.356 . S
N593 H598 0.984 . S
N593 H599 0.985 . S
C594 C588 1.379 1_565 S
C594 C591 1.363 . S
C594 N592 1.356 . S
C595 C589 1.363 . S
C595 C590 1.379 . S
C595 N593 1.356 . S
N596 C588 1.356 . S
N596 H602 0.984 . S
N596 H603 0.984 . S
N597 C590 1.356 . S
N597 H600 0.984 . S
N597 H601 0.985 . S
H598 N593 0.984 . S
H599 N593 0.985 . S
H600 N597 0.984 . S
H601 N597 0.985 . S
H602 N596 0.984 . S
H603 N596 0.984 . S
H604 N592 0.984 1_545 S
H605 N592 0.985 . S
C606 C607 1.363 1_455 S
C606 C612 1.379 1_455 S
C606 N614 1.356 . S
C607 C606 1.363 1_655 S
C607 C613 1.363 . S
C608 C609 1.363 . S
C608 C613 1.379 . S
C608 N615 1.356 . S
C609 C608 1.363 . S
C609 C612 1.363 . S
N610 C612 1.356 . S
N610 H622 0.984 1_655 S
N610 H623 0.985 . S
N611 C613 1.356 . S
N611 H616 0.984 . S
N611 H617 0.985 . S
C612 C606 1.379 1_655 S
C612 C609 1.363 . S
C612 N610 1.356 . S
C613 C607 1.363 . S
C613 C608 1.379 . S
C613 N611 1.356 . S
N614 C606 1.356 . S
N614 H620 0.984 . S
N614 H621 0.984 . S
N615 C608 1.356 . S
N615 H618 0.984 . S
N615 H619 0.985 . S
H616 N611 0.984 . S
H617 N611 0.985 . S
H618 N615 0.984 . S
H619 N615 0.985 . S
H620 N614 0.984 . S
H621 N614 0.984 . S
H622 N610 0.984 1_455 S
H623 N610 0.985 . S
C624 C625 1.363 . S
C624 C630 1.379 . S
C624 N632 1.356 . S
C625 C624 1.363 . S
C625 C631 1.363 . S
C626 C627 1.363 1_545 S
C626 C631 1.379 1_545 S
C626 N633 1.356 . S
C627 C626 1.363 1_565 S
C627 C630 1.363 . S
N628 C630 1.356 . S
N628 H640 0.984 . S
N628 H641 0.985 . S
N629 C631 1.356 1_545 S
N629 H634 0.984 1_545 S
N629 H635 0.985 . S
C630 C624 1.379 . S
C630 C627 1.363 . S
C630 N628 1.356 . S
C631 C625 1.363 . S
C631 C626 1.379 1_565 S
C631 N629 1.356 1_565 S
N632 C624 1.356 . S
N632 H638 0.984 . S
N632 H639 0.984 . S
N633 C626 1.356 . S
N633 H636 0.984 . S
N633 H637 0.985 . S
H634 N629 0.984 1_565 S
H635 N629 0.985 . S
H636 N633 0.984 . S
H637 N633 0.985 . S
H638 N632 0.984 . S
H639 N632 0.984 . S
H640 N628 0.984 . S
H641 N628 0.985 . S
C642 C643 1.363 . S
C642 C648 1.379 . S
C642 N650 1.356 . S
C643 C642 1.363 . S
C643 C649 1.363 . S
C644 C645 1.363 . S
C644 C649 1.379 . S
C644 N651 1.356 1_655 S
C645 C644 1.363 . S
C645 C648 1.363 . S
N646 C648 1.356 . S
N646 H658 0.984 . S
N646 H659 0.985 . S
N647 C649 1.356 . S
N647 H652 0.984 . S
N647 H653 0.985 . S
C648 C642 1.379 . S
C648 C645 1.363 . S
C648 N646 1.356 . S
C649 C643 1.363 . S
C649 C644 1.379 . S
C649 N647 1.356 . S
N650 C642 1.356 . S
N650 H656 0.984 . S
N650 H657 0.984 . S
N651 C644 1.356 1_455 S
N651 H654 0.984 . S
N651 H655 0.985 . S
H652 N647 0.984 . S
H653 N647 0.985 . S
H654 N651 0.984 . S
H655 N651 0.985 . S
H656 N650 0.984 . S
H657 N650 0.984 . S
H658 N646 0.984 . S
H659 N646 0.985 . S
C660 C661 1.376 . S
C660 C666 1.379 . S
C660 N668 1.356 . S
C661 C660 1.376 . S
C661 C667 1.337 1_565 S
C662 C663 1.363 . S
C662 C667 1.379 . S
C662 N669 1.356 . S
C663 C662 1.363 . S
C663 C666 1.363 1_545 S
N664 C666 1.356 . S
N664 H676 0.984 . S
N664 H677 0.985 1_565 S
N665 C667 1.356 . S
N665 H670 0.984 . S
N665 H671 0.985 . S
C666 C660 1.379 . S
C666 C663 1.363 1_565 S
C666 N664 1.356 . S
C667 C661 1.337 1_545 S
C667 C662 1.379 . S
C667 N665 1.356 . S
N668 C660 1.356 . S
N668 H674 0.984 . S
N668 H675 0.984 . S
N669 C662 1.356 . S
N669 H672 0.984 . S
N669 H673 0.985 . S
H670 N665 0.984 . S
H671 N665 0.985 . S
H672 N669 0.984 . S
H673 N669 0.985 . S
H674 N668 0.984 . S
H675 N668 0.984 . S
H676 N664 0.984 . S
H677 N664 0.985 1_545 S
C678 C679 1.363 . S
C678 C684 1.379 . S
C678 N686 1.356 . S
C679 C678 1.363 . S
C679 C685 1.363 . S
C680 C681 1.363 . S
C680 C685 1.379 . S
C680 N687 1.356 1_455 S
C681 C680 1.363 . S
C681 C684 1.363 . S
N682 C684 1.356 . S
N682 H694 0.984 . S
N682 H695 0.985 . S
N683 C685 1.356 . S
N683 H688 0.984 . S
N683 H689 0.985 . S
C684 C678 1.379 . S
C684 C681 1.363 . S
C684 N682 1.356 . S
C685 C679 1.363 . S
C685 C680 1.379 . S
C685 N683 1.356 . S
N686 C678 1.356 . S
N686 H692 0.984 . S
N686 H693 0.984 . S
N687 C680 1.356 1_655 S
N687 H690 0.984 . S
N687 H691 0.985 . S
H688 N683 0.984 . S
H689 N683 0.985 . S
H690 N687 0.984 . S
H691 N687 0.985 . S
H692 N686 0.984 . S
H693 N686 0.984 . S
H694 N682 0.984 . S
H695 N682 0.985 . S
C696 C697 1.363 . S
C696 C702 1.379 . S
C696 N704 1.356 . S
C697 C696 1.363 . S
C697 C703 1.363 1_554 S
C698 C699 1.363 . S
C698 C703 1.379 1_554 S
C698 N705 1.356 . S
C699 C698 1.363 . S
C699 C702 1.363 . S
N700 C702 1.356 . S
N700 H712 0.984 . S
N700 H713 0.985 . S
N701 C703 1.356 . S
N701 H706 0.984 . S
N701 H707 0.985 . S
C702 C696 1.379 . S
C702 C699 1.363 . S
C702 N700 1.356 . S
C703 C697 1.363 1_556 S
C703 C698 1.379 1_556 S
C703 N701 1.356 . S
N704 C696 1.356 . S
N704 H710 0.984 . S
N704 H711 0.984 . S
N705 C698 1.356 . S
N705 H708 0.984 . S
N705 H709 0.985 . S
H706 N701 0.984 . S
H707 N701 0.985 . S
H708 N705 0.984 . S
H709 N705 0.985 . S
H710 N704 0.984 . S
H711 N704 0.984 . S
H712 N700 0.984 . S
H713 N700 0.985 . S
C714 C715 1.363 . S
C714 C720 1.379 . S
C714 N722 1.356 . S
C715 C714 1.363 . S
C715 C721 1.363 1_556 S
C716 C717 1.363 . S
C716 C721 1.379 1_556 S
C716 N723 1.356 1_556 S
C717 C716 1.363 . S
C717 C720 1.363 . S
N718 C720 1.356 . S
N718 H730 0.984 . S
N718 H731 0.985 . S
N719 C721 1.356 . S
N719 H724 0.984 . S
N719 H725 0.985 . S
C720 C714 1.379 . S
C720 C717 1.363 . S
C720 N718 1.356 . S
C721 C715 1.363 1_554 S
C721 C716 1.379 1_554 S
C721 N719 1.356 . S
N722 C714 1.356 . S
N722 H728 0.984 . S
N722 H729 0.984 . S
N723 C716 1.356 1_554 S
N723 H726 0.984 1_554 S
N723 H727 0.985 . S
H724 N719 0.984 . S
H725 N719 0.985 . S
H726 N723 0.984 1_556 S
H727 N723 0.985 . S
H728 N722 0.984 . S
H729 N722 0.984 . S
H730 N718 0.984 . S
H731 N718 0.985 . S
C732 C733 1.363 . S
C732 C738 1.379 . S
C732 N740 1.356 . S
C733 C732 1.363 . S
C733 C739 1.363 . S
C734 C735 1.363 . S
C734 C739 1.379 . S
C734 N741 1.356 . S
C735 C734 1.363 . S
C735 C738 1.363 . S
N736 C738 1.356 . S
N736 H748 0.984 . S
N736 H749 0.985 . S
N737 C739 1.356 1_556 S
N737 H742 0.984 . S
N737 H743 0.985 . S
C738 C732 1.379 . S
C738 C735 1.363 . S
C738 N736 1.356 . S
C739 C733 1.363 . S
C739 C734 1.379 . S
C739 N737 1.356 1_554 S
N740 C732 1.356 . S
N740 H746 0.984 . S
N740 H747 0.984 . S
N741 C734 1.356 . S
N741 H744 0.984 . S
N741 H745 0.985 . S
H742 N737 0.984 . S
H743 N737 0.985 . S
H744 N741 0.984 . S
H745 N741 0.985 . S
H746 N740 0.984 . S
H747 N740 0.984 . S
H748 N736 0.984 . S
H749 N736 0.985 . S
C750 C751 1.363 . S
C750 C756 1.379 . S
C750 N758 1.356 . S
C751 C750 1.363 . S
C751 C757 1.358 1_556 S
C752 C753 1.363 . S
C752 C757 1.373 1_556 S
C752 N759 1.356 . S
C753 C752 1.363 . S
C753 C756 1.363 . S
N754 C756 1.356 . S
N754 H766 0.984 . S
N754 H767 0.985 . S
N755 C757 1.367 . S
N755 H760 0.984 . S
N755 H761 0.985 . S
C756 C750 1.379 . S
C756 C753 1.363 . S
C756 N754 1.356 . S
C757 C751 1.358 1_554 S
C757 C752 1.373 1_554 S
C757 N755 1.367 . S
N758 C750 1.356 . S
N758 H764 0.984 . S
N758 H765 0.984 . S
N759 C752 1.356 . S
N759 H762 0.984 . S
N759 H763 0.985 1_556 S
H760 N755 0.984 . S
H761 N755 0.985 . S
H762 N759 0.984 . S
H763 N759 0.985 1_554 S
H764 N758 0.984 . S
H765 N758 0.984 . S
H766 N754 0.984 . S
H767 N754 0.985 . S
C768 C769 1.363 . S
C768 C774 1.379 . S
C768 N776 1.356 . S
C769 C768 1.363 . S
C769 C775 1.363 . S
C770 C771 1.363 . S
C770 C775 1.379 . S
C770 N777 1.356 . S
C771 C770 1.363 . S
C771 C774 1.363 . S
N772 C774 1.356 . S
N772 H784 0.984 . S
N772 H785 0.985 . S
N773 C775 1.356 . S
N773 H778 0.984 . S
N773 H779 0.985 . S
C774 C768 1.379 . S
C774 C771 1.363 . S
C774 N772 1.356 . S
C775 C769 1.363 . S
C775 C770 1.379 . S
C775 N773 1.356 . S
N776 C768 1.356 . S
N776 H782 0.984 . S
N776 H783 0.984 . S
N777 C770 1.356 . S
N777 H780 0.984 . S
N777 H781 0.985 . S
H778 N773 0.984 . S
H779 N773 0.985 . S
H780 N777 0.984 . S
H781 N777 0.985 . S
H782 N776 0.984 . S
H783 N776 0.984 . S
H784 N772 0.984 . S
H785 N772 0.985 . S
C786 C787 1.363 . S
C786 C792 1.379 . S
C786 N794 1.356 . S
C787 C786 1.363 . S
C787 C793 1.363 . S
C788 C789 1.363 . S
C788 C793 1.379 . S
C788 N795 1.356 . S
C789 C788 1.363 . S
C789 C792 1.363 . S
N790 C792 1.356 . S
N790 H802 0.984 . S
N790 H803 0.985 . S
N791 C793 1.356 . S
N791 H796 0.984 . S
N791 H797 0.985 . S
C792 C786 1.379 . S
C792 C789 1.363 . S
C792 N790 1.356 . S
C793 C787 1.363 . S
C793 C788 1.379 . S
C793 N791 1.356 . S
N794 C786 1.356 . S
N794 H800 0.984 . S
N794 H801 0.984 . S
N795 C788 1.356 . S
N795 H798 0.984 . S
N795 H799 0.985 . S
H796 N791 0.984 . S
H797 N791 0.985 . S
H798 N795 0.984 . S
H799 N795 0.985 . S
H800 N794 0.984 . S
H801 N794 0.984 . S
H802 N790 0.984 . S
H803 N790 0.985 . S
C804 C805 1.363 . S
C804 C810 1.379 . S
C804 N812 1.356 . S
C805 C804 1.363 . S
C805 C811 1.363 . S
C806 C807 1.363 . S
C806 C811 1.379 . S
C806 N813 1.356 . S
C807 C806 1.363 . S
C807 C810 1.363 . S
N808 C810 1.356 . S
N808 H820 0.984 . S
N808 H821 0.985 . S
N809 C811 1.356 . S
N809 H814 0.984 . S
N809 H815 0.985 . S
C810 C804 1.379 . S
C810 C807 1.363 . S
C810 N808 1.356 . S
C811 C805 1.363 . S
C811 C806 1.379 . S
C811 N809 1.356 . S
N812 C804 1.356 . S
N812 H818 0.984 . S
N812 H819 0.984 . S
N813 C806 1.356 . S
N813 H816 0.984 . S
N813 H817 0.985 . S
H814 N809 0.984 . S
H815 N809 0.985 . S
H816 N813 0.984 . S
H817 N813 0.985 . S
H818 N812 0.984 . S
H819 N812 0.984 . S
H820 N808 0.984 . S
H821 N808 0.985 . S
C822 C823 1.363 . S
C822 C828 1.379 . S
C822 N830 1.356 . S
C823 C822 1.363 . S
C823 C829 1.363 . S
C824 C825 1.363 . S
C824 C829 1.379 . S
C824 N831 1.356 . S
C825 C824 1.363 . S
C825 C828 1.363 . S
N826 C828 1.356 . S
N826 H838 0.984 . S
N826 H839 0.985 . S
N827 C829 1.356 . S
N827 H832 0.984 . S
N827 H833 0.985 . S
C828 C822 1.379 . S
C828 C825 1.363 . S
C828 N826 1.356 . S
C829 C823 1.363 . S
C829 C824 1.379 . S
C829 N827 1.356 . S
N830 C822 1.356 . S
N830 H836 0.984 . S
N830 H837 0.984 . S
N831 C824 1.356 . S
N831 H834 0.984 . S
N831 H835 0.985 . S
H832 N827 0.984 . S
H833 N827 0.985 . S
H834 N831 0.984 . S
H835 N831 0.985 . S
H836 N830 0.984 . S
H837 N830 0.984 . S
H838 N826 0.984 . S
H839 N826 0.985 . S
C840 C841 1.363 . S
C840 C846 1.379 . S
C840 N848 1.356 . S
C841 C840 1.363 . S
C841 C847 1.363 . S
C842 C843 1.363 . S
C842 C847 1.379 . S
C842 N849 1.356 . S
C843 C842 1.363 . S
C843 C846 1.363 . S
N844 C846 1.356 . S
N844 H856 0.984 . S
N844 H857 0.985 . S
N845 C847 1.356 . S
N845 H850 0.984 . S
N845 H851 0.985 . S
C846 C840 1.379 . S
C846 C843 1.363 . S
C846 N844 1.356 . S
C847 C841 1.363 . S
C847 C842 1.379 . S
C847 N845 1.356 . S
N848 C840 1.356 . S
N848 H854 0.984 . S
N848 H855 0.984 . S
N849 C842 1.356 . S
N849 H852 0.984 . S
N849 H853 0.985 . S
H850 N845 0.984 . S
H851 N845 0.985 . S
H852 N849 0.984 . S
H853 N849 0.985 . S
H854 N848 0.984 . S
H855 N848 0.984 . S
H856 N844 0.984 . S
H857 N844 0.985 . S
C858 C859 1.363 . S
C858 C864 1.379 . S
C858 N866 1.356 . S
C859 C858 1.363 . S
C859 C865 1.363 . S
C860 C861 1.363 . S
C860 C865 1.379 . S
C860 N867 1.356 . S
C861 C860 1.363 . S
C861 C864 1.363 . S
N862 C864 1.356 . S
N862 H874 0.984 . S
N862 H875 0.985 . S
N863 C865 1.356 . S
N863 H868 0.984 . S
N863 H869 0.985 . S
C864 C858 1.379 . S
C864 C861 1.363 . S
C864 N862 1.356 . S
C865 C859 1.363 . S
C865 C860 1.379 . S
C865 N863 1.356 . S
N866 C858 1.356 . S
N866 H872 0.984 . S
N866 H873 0.984 . S
N867 C860 1.356 . S
N867 H870 0.984 . S
N867 H871 0.985 . S
H868 N863 0.984 . S
H869 N863 0.985 . S
H870 N867 0.984 . S
H871 N867 0.985 . S
H872 N866 0.984 . S
H873 N866 0.984 . S
H874 N862 0.984 . S
H875 N862 0.985 . S
C876 C877 1.363 . S
C876 C882 1.379 . S
C876 N884 1.356 . S
C877 C876 1.363 . S
C877 C883 1.363 . S
C878 C879 1.363 . S
C878 C883 1.379 . S
C878 N885 1.356 . S
C879 C878 1.363 . S
C879 C882 1.363 . S
N880 C882 1.356 . S
N880 H892 0.984 . S
N880 H893 0.985 . S
N881 C883 1.356 . S
N881 H886 0.984 . S
N881 H887 0.985 . S
C882 C876 1.379 . S
C882 C879 1.363 . S
C882 N880 1.356 . S
C883 C877 1.363 . S
C883 C878 1.379 . S
C883 N881 1.356 . S
N884 C876 1.356 . S
N884 H890 0.984 . S
N884 H891 0.984 . S
N885 C878 1.356 . S
N885 H888 0.984 . S
N885 H889 0.985 . S
H886 N881 0.984 . S
H887 N881 0.985 . S
H888 N885 0.984 . S
H889 N885 0.985 . S
H890 N884 0.984 . S
H891 N884 0.984 . S
H892 N880 0.984 . S
H893 N880 0.985 . S
C894 C895 1.363 . S
C894 C900 1.379 . S
C894 N902 1.356 . S
C895 C894 1.363 . S
C895 C901 1.363 . S
C896 C897 1.363 . S
C896 C901 1.379 . S
C896 N903 1.356 . S
C897 C896 1.363 . S
C897 C900 1.363 . S
N898 C900 1.356 . S
N898 H910 0.984 . S
N898 H911 0.985 . S
N899 C901 1.356 . S
N899 H904 0.984 . S
N899 H905 0.985 . S
C900 C894 1.379 . S
C900 C897 1.363 . S
C900 N898 1.356 . S
C901 C895 1.363 . S
C901 C896 1.379 . S
C901 N899 1.356 . S
N902 C894 1.356 . S
N902 H908 0.984 . S
N902 H909 0.984 . S
N903 C896 1.356 . S
N903 H906 0.984 . S
N903 H907 0.985 . S
H904 N899 0.984 . S
H905 N899 0.985 . S
H906 N903 0.984 . S
H907 N903 0.985 . S
H908 N902 0.984 . S
H909 N902 0.984 . S
H910 N898 0.984 . S
H911 N898 0.985 . S
C912 C913 1.363 . S
C912 C918 1.379 . S
C912 N920 1.356 . S
C913 C912 1.363 . S
C913 C919 1.363 . S
C914 C915 1.363 . S
C914 C919 1.379 . S
C914 N921 1.356 . S
C915 C914 1.363 . S
C915 C918 1.363 . S
N916 C918 1.356 . S
N916 H928 0.984 . S
N916 H929 0.985 . S
N917 C919 1.356 . S
N917 H922 0.984 . S
N917 H923 0.985 . S
C918 C912 1.379 . S
C918 C915 1.363 . S
C918 N916 1.356 . S
C919 C913 1.363 . S
C919 C914 1.379 . S
C919 N917 1.356 . S
N920 C912 1.356 . S
N920 H926 0.984 . S
N920 H927 0.984 . S
N921 C914 1.356 . S
N921 H924 0.984 . S
N921 H925 0.985 . S
H922 N917 0.984 . S
H923 N917 0.985 . S
H924 N921 0.984 . S
H925 N921 0.985 . S
H926 N920 0.984 . S
H927 N920 0.984 . S
H928 N916 0.984 . S
H929 N916 0.985 . S
C930 C931 1.363 . S
C930 C936 1.379 . S
C930 N938 1.356 . S
C931 C930 1.363 . S
C931 C937 1.363 . S
C932 C933 1.363 . S
C932 C937 1.379 . S
C932 N939 1.356 . S
C933 C932 1.363 . S
C933 C936 1.363 . S
N934 C936 1.356 . S
N934 H946 0.984 . S
N934 H947 0.985 . S
N935 C937 1.356 . S
N935 H940 0.984 . S
N935 H941 0.985 . S
C936 C930 1.379 . S
C936 C933 1.363 . S
C936 N934 1.356 . S
C937 C931 1.363 . S
C937 C932 1.379 . S
C937 N935 1.356 . S
N938 C930 1.356 . S
N938 H944 0.984 . S
N938 H945 0.984 . S
N939 C932 1.356 . S
N939 H942 0.984 . S
N939 H943 0.985 . S
H940 N935 0.984 . S
H941 N935 0.985 . S
H942 N939 0.984 . S
H943 N939 0.985 . S
H944 N938 0.984 . S
H945 N938 0.984 . S
H946 N934 0.984 . S
H947 N934 0.985 . S
C948 C949 1.363 . S
C948 C954 1.379 . S
C948 N956 1.356 . S
C949 C948 1.363 . S
C949 C955 1.363 . S
C950 C951 1.363 . S
C950 C955 1.379 . S
C950 N957 1.356 . S
C951 C950 1.363 . S
C951 C954 1.363 . S
N952 C954 1.356 . S
N952 H964 0.984 . S
N952 H965 0.985 . S
N953 C955 1.356 . S
N953 H958 0.984 . S
N953 H959 0.985 . S
C954 C948 1.379 . S
C954 C951 1.363 . S
C954 N952 1.356 . S
C955 C949 1.363 . S
C955 C950 1.379 . S
C955 N953 1.356 . S
N956 C948 1.356 . S
N956 H962 0.984 . S
N956 H963 0.984 . S
N957 C950 1.356 . S
N957 H960 0.984 . S
N957 H961 0.985 . S
H958 N953 0.984 . S
H959 N953 0.985 . S
H960 N957 0.984 . S
H961 N957 0.985 . S
H962 N956 0.984 . S
H963 N956 0.984 . S
H964 N952 0.984 . S
H965 N952 0.985 . S
C966 C967 1.363 . S
C966 C972 1.379 . S
C966 N974 1.356 . S
C967 C966 1.363 . S
C967 C973 1.363 . S
C968 C969 1.363 . S
C968 C973 1.379 . S
C968 N975 1.356 . S
C969 C968 1.363 . S
C969 C972 1.363 . S
N970 C972 1.356 . S
N970 H982 0.984 . S
N970 H983 0.985 . S
N971 C973 1.356 . S
N971 H976 0.984 . S
N971 H977 0.985 . S
C972 C966 1.379 . S
C972 C969 1.363 . S
C972 N970 1.356 . S
C973 C967 1.363 . S
C973 C968 1.379 . S
C973 N971 1.356 . S
N974 C966 1.356 . S
N974 H980 0.984 1_455 S
N974 H981 0.984 . S
N975 C968 1.356 . S
N975 H978 0.984 . S
N975 H979 0.985 . S
H976 N971 0.984 . S
H977 N971 0.985 . S
H978 N975 0.984 . S
H979 N975 0.985 . S
H980 N974 0.984 1_655 S
H981 N974 0.984 . S
H982 N970 0.984 . S
H983 N970 0.985 . S
C984 C985 1.363 . S
C984 C990 1.379 . S
C984 N992 1.356 . S
C985 C984 1.363 . S
C985 C991 1.363 . S
C986 C987 1.363 . S
C986 C991 1.379 . S
C986 N993 1.356 . S
C987 C986 1.363 . S
C987 C990 1.363 . S
N988 C990 1.356 . S
N988 H1000 0.984 . S
N988 H1001 0.985 . S
N989 C991 1.356 . S
N989 H994 0.984 . S
N989 H995 0.985 . S
C990 C984 1.379 . S
C990 C987 1.363 . S
C990 N988 1.356 . S
C991 C985 1.363 . S
C991 C986 1.379 . S
C991 N989 1.356 . S
N992 C984 1.356 . S
N992 H998 0.984 . S
N992 H999 0.984 . S
N993 C986 1.356 . S
N993 H996 0.984 . S
N993 H997 0.985 . S
H994 N989 0.984 . S
H995 N989 0.985 . S
H996 N993 0.984 . S
H997 N993 0.985 . S
H998 N992 0.984 . S
H999 N992 0.984 . S
H1000 N988 0.984 . S
H1001 N988 0.985 . S
C1002 C1003 1.363 . S
C1002 C1008 1.379 . S
C1002 N1010 1.356 . S
C1003 C1002 1.363 . S
C1003 C1009 1.363 . S
C1004 C1005 1.363 . S
C1004 C1009 1.379 . S
C1004 N1011 1.356 . S
C1005 C1004 1.363 . S
C1005 C1008 1.363 . S
N1006 C1008 1.356 . S
N1006 H1018 0.984 . S
N1006 H1019 0.985 . S
N1007 C1009 1.356 . S
N1007 H1012 0.984 . S
N1007 H1013 0.985 . S
C1008 C1002 1.379 . S
C1008 C1005 1.363 . S
C1008 N1006 1.356 . S
C1009 C1003 1.363 . S
C1009 C1004 1.379 . S
C1009 N1007 1.356 . S
N1010 C1002 1.356 . S
N1010 H1016 0.984 . S
N1010 H1017 0.984 . S
N1011 C1004 1.356 . S
N1011 H1014 0.984 . S
N1011 H1015 0.985 . S
H1012 N1007 0.984 . S
H1013 N1007 0.985 . S
H1014 N1011 0.984 . S
H1015 N1011 0.985 . S
H1016 N1010 0.984 . S
H1017 N1010 0.984 . S
H1018 N1006 0.984 . S
H1019 N1006 0.985 . S
C1020 C1021 1.363 . S
C1020 C1026 1.379 . S
C1020 N1028 1.356 . S
C1021 C1020 1.363 . S
C1021 C1027 1.363 . S
C1022 C1023 1.363 . S
C1022 C1027 1.379 . S
C1022 N1029 1.356 . S
C1023 C1022 1.363 . S
C1023 C1026 1.363 . S
N1024 C1026 1.356 . S
N1024 H1036 0.984 . S
N1024 H1037 0.985 . S
N1025 C1027 1.356 . S
N1025 H1030 0.984 . S
N1025 H1031 0.985 . S
C1026 C1020 1.379 . S
C1026 C1023 1.363 . S
C1026 N1024 1.356 . S
C1027 C1021 1.363 . S
C1027 C1022 1.379 . S
C1027 N1025 1.356 . S
N1028 C1020 1.356 . S
N1028 H1034 0.984 . S
N1028 H1035 0.984 . S
N1029 C1022 1.356 . S
N1029 H1032 0.984 . S
N1029 H1033 0.985 . S
H1030 N1025 0.984 . S
H1031 N1025 0.985 . S
H1032 N1029 0.984 . S
H1033 N1029 0.985 . S
H1034 N1028 0.984 . S
H1035 N1028 0.984 . S
H1036 N1024 0.984 . S
H1037 N1024 0.985 . S
C1038 C1039 1.363 . S
C1038 C1044 1.379 . S
C1038 N1046 1.356 . S
C1039 C1038 1.363 . S
C1039 C1045 1.363 . S
C1040 C1041 1.363 . S
C1040 C1045 1.379 . S
C1040 N1047 1.356 . S
C1041 C1040 1.363 . S
C1041 C1044 1.363 . S
N1042 C1044 1.356 . S
N1042 H1054 0.984 . S
N1042 H1055 0.985 . S
N1043 C1045 1.356 . S
N1043 H1048 0.984 . S
N1043 H1049 0.985 . S
C1044 C1038 1.379 . S
C1044 C1041 1.363 . S
C1044 N1042 1.356 . S
C1045 C1039 1.363 . S
C1045 C1040 1.379 . S
C1045 N1043 1.356 . S
N1046 C1038 1.356 . S
N1046 H1052 0.984 . S
N1046 H1053 0.984 . S
N1047 C1040 1.356 . S
N1047 H1050 0.984 . S
N1047 H1051 0.985 . S
H1048 N1043 0.984 . S
H1049 N1043 0.985 . S
H1050 N1047 0.984 . S
H1051 N1047 0.985 . S
H1052 N1046 0.984 . S
H1053 N1046 0.984 . S
H1054 N1042 0.984 . S
H1055 N1042 0.985 . S
C1056 C1057 1.363 . S
C1056 C1062 1.379 . S
C1056 N1064 1.356 . S
C1057 C1056 1.363 . S
C1057 C1063 1.363 . S
C1058 C1059 1.363 . S
C1058 C1063 1.379 . S
C1058 N1065 1.356 . S
C1059 C1058 1.363 . S
C1059 C1062 1.363 . S
N1060 C1062 1.356 . S
N1060 H1072 0.984 . S
N1060 H1073 0.985 . S
N1061 C1063 1.356 . S
N1061 H1066 0.984 . S
N1061 H1067 0.985 . S
C1062 C1056 1.379 . S
C1062 C1059 1.363 . S
C1062 N1060 1.356 . S
C1063 C1057 1.363 . S
C1063 C1058 1.379 . S
C1063 N1061 1.356 . S
N1064 C1056 1.356 . S
N1064 H1070 0.984 . S
N1064 H1071 0.984 . S
N1065 C1058 1.356 . S
N1065 H1068 0.984 . S
N1065 H1069 0.985 . S
H1066 N1061 0.984 . S
H1067 N1061 0.985 . S
H1068 N1065 0.984 . S
H1069 N1065 0.985 . S
H1070 N1064 0.984 . S
H1071 N1064 0.984 . S
H1072 N1060 0.984 . S
H1073 N1060 0.985 . S
C1074 C1075 1.363 . S
C1074 C1080 1.379 . S
C1074 N1082 1.356 . S
C1075 C1074 1.363 . S
C1075 C1081 1.363 . S
C1076 C1077 1.363 . S
C1076 C1081 1.379 . S
C1076 N1083 1.356 . S
C1077 C1076 1.363 . S
C1077 C1080 1.363 . S
N1078 C1080 1.356 . S
N1078 H1090 0.984 . S
N1078 H1091 0.985 . S
N1079 C1081 1.356 . S
N1079 H1084 0.984 . S
N1079 H1085 0.985 . S
C1080 C1074 1.379 . S
C1080 C1077 1.363 . S
C1080 N1078 1.356 . S
C1081 C1075 1.363 . S
C1081 C1076 1.379 . S
C1081 N1079 1.356 . S
N1082 C1074 1.356 . S
N1082 H1088 0.984 . S
N1082 H1089 0.984 . S
N1083 C1076 1.356 . S
N1083 H1086 0.984 . S
N1083 H1087 0.985 . S
H1084 N1079 0.984 . S
H1085 N1079 0.985 . S
H1086 N1083 0.984 . S
H1087 N1083 0.985 . S
H1088 N1082 0.984 . S
H1089 N1082 0.984 . S
H1090 N1078 0.984 . S
H1091 N1078 0.985 . S
C1092 C1093 1.363 . S
C1092 C1098 1.379 . S
C1092 N1100 1.356 . S
C1093 C1092 1.363 . S
C1093 C1099 1.363 . S
C1094 C1095 1.363 . S
C1094 C1099 1.379 . S
C1094 N1101 1.356 . S
C1095 C1094 1.363 . S
C1095 C1098 1.363 . S
N1096 C1098 1.356 . S
N1096 H1108 0.984 . S
N1096 H1109 0.985 . S
N1097 C1099 1.356 . S
N1097 H1102 0.984 . S
N1097 H1103 0.985 . S
C1098 C1092 1.379 . S
C1098 C1095 1.363 . S
C1098 N1096 1.356 . S
C1099 C1093 1.363 . S
C1099 C1094 1.379 . S
C1099 N1097 1.356 . S
N1100 C1092 1.356 . S
N1100 H1106 0.984 . S
N1100 H1107 0.984 . S
N1101 C1094 1.356 . S
N1101 H1104 0.984 . S
N1101 H1105 0.985 . S
H1102 N1097 0.984 . S
H1103 N1097 0.985 . S
H1104 N1101 0.984 . S
H1105 N1101 0.985 . S
H1106 N1100 0.984 . S
H1107 N1100 0.984 . S
H1108 N1096 0.984 . S
H1109 N1096 0.985 . S
C1110 C1111 1.363 . S
C1110 C1116 1.379 . S
C1110 N1118 1.356 . S
C1111 C1110 1.363 . S
C1111 C1117 1.363 . S
C1112 C1113 1.363 . S
C1112 C1117 1.379 . S
C1112 N1119 1.356 . S
C1113 C1112 1.363 . S
C1113 C1116 1.363 . S
N1114 C1116 1.356 . S
N1114 H1126 0.984 . S
N1114 H1127 0.985 . S
N1115 C1117 1.356 . S
N1115 H1120 0.984 . S
N1115 H1121 0.985 . S
C1116 C1110 1.379 . S
C1116 C1113 1.363 . S
C1116 N1114 1.356 . S
C1117 C1111 1.363 . S
C1117 C1112 1.379 . S
C1117 N1115 1.356 . S
N1118 C1110 1.356 . S
N1118 H1124 0.984 . S
N1118 H1125 0.984 . S
N1119 C1112 1.356 . S
N1119 H1122 0.984 . S
N1119 H1123 0.985 . S
H1120 N1115 0.984 . S
H1121 N1115 0.985 . S
H1122 N1119 0.984 . S
H1123 N1119 0.985 . S
H1124 N1118 0.984 . S
H1125 N1118 0.984 . S
H1126 N1114 0.984 . S
H1127 N1114 0.985 . S
C1128 C1129 1.363 . S
C1128 C1134 1.379 . S
C1128 N1136 1.356 . S
C1129 C1128 1.363 . S
C1129 C1135 1.363 . S
C1130 C1131 1.363 . S
C1130 C1135 1.379 . S
C1130 N1137 1.356 . S
C1131 C1130 1.363 . S
C1131 C1134 1.363 . S
N1132 C1134 1.356 . S
N1132 H1144 0.984 . S
N1132 H1145 0.985 . S
N1133 C1135 1.356 . S
N1133 H1138 0.984 . S
N1133 H1139 0.985 . S
C1134 C1128 1.379 . S
C1134 C1131 1.363 . S
C1134 N1132 1.356 . S
C1135 C1129 1.363 . S
C1135 C1130 1.379 . S
C1135 N1133 1.356 . S
N1136 C1128 1.356 . S
N1136 H1142 0.984 . S
N1136 H1143 0.984 . S
N1137 C1130 1.356 . S
N1137 H1140 0.984 . S
N1137 H1141 0.985 . S
H1138 N1133 0.984 . S
H1139 N1133 0.985 . S
H1140 N1137 0.984 . S
H1141 N1137 0.985 . S
H1142 N1136 0.984 . S
H1143 N1136 0.984 . S
H1144 N1132 0.984 . S
H1145 N1132 0.985 . S
C1146 C1147 1.363 . S
C1146 C1152 1.379 . S
C1146 N1154 1.356 . S
C1147 C1146 1.363 . S
C1147 C1153 1.363 . S
C1148 C1149 1.363 . S
C1148 C1153 1.379 . S
C1148 N1155 1.356 . S
C1149 C1148 1.363 . S
C1149 C1152 1.363 . S
N1150 C1152 1.356 . S
N1150 H1162 0.984 . S
N1150 H1163 0.985 . S
N1151 C1153 1.356 . S
N1151 H1156 0.984 . S
N1151 H1157 0.985 . S
C1152 C1146 1.379 . S
C1152 C1149 1.363 . S
C1152 N1150 1.356 . S
C1153 C1147 1.363 . S
C1153 C1148 1.379 . S
C1153 N1151 1.356 . S
N1154 C1146 1.356 . S
N1154 H1160 0.984 . S
N1154 H1161 0.984 . S
N1155 C1148 1.356 . S
N1155 H1158 0.984 . S
N1155 H1159 0.985 . S
H1156 N1151 0.984 . S
H1157 N1151 0.985 . S
H1158 N1155 0.984 . S
H1159 N1155 0.985 . S
H1160 N1154 0.984 . S
H1161 N1154 0.984 . S
H1162 N1150 0.984 . S
H1163 N1150 0.985 . S
C1164 C1165 1.363 . S
C1164 C1170 1.379 . S
C1164 N1172 1.356 . S
C1165 C1164 1.363 . S
C1165 C1171 1.363 . S
C1166 C1167 1.363 . S
C1166 C1171 1.379 . S
C1166 N1173 1.356 . S
C1167 C1166 1.363 . S
C1167 C1170 1.363 . S
N1168 C1170 1.356 . S
N1168 H1180 0.984 . S
N1168 H1181 0.985 . S
N1169 C1171 1.356 . S
N1169 H1174 0.984 . S
N1169 H1175 0.985 . S
C1170 C1164 1.379 . S
C1170 C1167 1.363 . S
C1170 N1168 1.356 . S
C1171 C1165 1.363 . S
C1171 C1166 1.379 . S
C1171 N1169 1.356 . S
N1172 C1164 1.356 . S
N1172 H1178 0.984 . S
N1172 H1179 0.984 . S
N1173 C1166 1.356 . S
N1173 H1176 0.984 . S
N1173 H1177 0.985 . S
H1174 N1169 0.984 . S
H1175 N1169 0.985 . S
H1176 N1173 0.984 . S
H1177 N1173 0.985 . S
H1178 N1172 0.984 . S
H1179 N1172 0.984 . S
H1180 N1168 0.984 . S
H1181 N1168 0.985 . S
C1182 C1183 1.363 . S
C1182 C1188 1.379 . S
C1182 N1190 1.356 . S
C1183 C1182 1.363 . S
C1183 C1189 1.363 . S
C1184 C1185 1.363 . S
C1184 C1189 1.379 . S
C1184 N1191 1.356 . S
C1185 C1184 1.363 . S
C1185 C1188 1.363 . S
N1186 C1188 1.356 . S
N1186 H1198 0.984 . S
N1186 H1199 0.985 . S
N1187 C1189 1.356 . S
N1187 H1192 0.984 . S
N1187 H1193 0.985 . S
C1188 C1182 1.379 . S
C1188 C1185 1.363 . S
C1188 N1186 1.356 . S
C1189 C1183 1.363 . S
C1189 C1184 1.379 . S
C1189 N1187 1.356 . S
N1190 C1182 1.356 . S
N1190 H1196 0.984 . S
N1190 H1197 0.984 . S
N1191 C1184 1.356 . S
N1191 H1194 0.984 . S
N1191 H1195 0.985 . S
H1192 N1187 0.984 . S
H1193 N1187 0.985 . S
H1194 N1191 0.984 . S
H1195 N1191 0.985 . S
H1196 N1190 0.984 . S
H1197 N1190 0.984 . S
H1198 N1186 0.984 . S
H1199 N1186 0.985 . S
C337 C311 2.070 . S
C339 C8 1.977 . S
C355 C17 2.031 . S
C357 C232 1.949 . S
C373 C325 2.037 . S
C375 C36 1.939 . S
C391 C302 1.958 . S
C393 C50 2.033 . S
C409 C260 2.032 . S
C411 C64 1.959 . S
C427 C269 1.891 . S
C429 C73 2.085 . S
C445 C288 2.074 . S
C447 C87 1.916 . S
C463 C101 2.057 . S
C465 C241 1.880 . S
C481 C185 2.064 . S
C483 C115 1.905 . S
C499 C204 1.964 . S
C501 C134 2.055 . S
C517 C143 1.913 . S
C519 C213 2.078 . S
C535 C162 2.057 . S
C537 C176 1.968 . S
C553 C106 1.977 1_545 S
C555 C199 2.070 . S
C571 C218 1.949 1_455 S
C573 C59 2.031 . S
C589 C78 1.939 1_565 S
C591 C171 2.037 . S
C607 C190 1.958 1_655 S
C609 C92 2.033 . S
C625 C148 2.032 . S
C627 C22 1.959 1_565 S
C643 C31 2.085 . S
C645 C157 1.891 1_655 S
C661 C45 1.936 . S
C663 C120 2.074 . S
C679 C3 2.057 . S
C681 C129 1.880 1_455 S
C697 C283 1.905 1_554 S
C699 C297 2.064 . S
C715 C316 1.964 1_556 S
C717 C246 2.055 . S
C733 C255 1.913 1_554 S
C735 C227 2.078 . S
C751 C330 1.968 1_556 S
C753 C274 2.057 . S
C769 C9 1.012 . S
C771 C121 1.228 . S
C787 C133 1.104 . S
C789 C21 1.283 . S
C805 C37 0.967 . S
C807 C149 1.171 . S
C823 C51 1.203 . S
C825 C161 1.088 . S
C841 C65 0.994 . S
C843 C175 1.257 . S
C859 C77 1.273 . S
C861 C191 1.013 . S
C877 C203 1.277 . S
C879 C91 1.105 . S
C895 C219 1.027 . S
C897 C105 1.274 . S
C913 C119 1.149 . S
C915 C231 1.317 . S
C931 C135 1.196 . S
C933 C331 0.967 . S
C949 C301 1.349 . S
C951 C147 1.170 . S
C967 C317 0.960 . S
C969 C163 1.168 . S
C985 C247 1.196 . S
C987 C177 0.967 . S
C1003 C259 1.170 . S
C1005 C189 1.349 . S
C1021 C205 0.960 . S
C1023 C275 1.168 . S
C1039 C217 1.317 . S
C1041 C287 1.149 . S
C1057 C7 1.274 . S
C1059 C233 1.027 . S
C1075 C245 1.104 . S
C1077 C63 1.283 . S
C1093 C261 1.171 . S
C1095 C79 0.967 . S
C1111 C273 1.088 . S
C1113 C93 1.203 . S
C1129 C289 1.228 . S
C1131 C107 1.012 . S
C1147 C303 1.013 . S
C1149 C35 1.273 . S
C1165 C49 1.105 . S
C1167 C315 1.277 . S
C1183 C329 1.257 . S
C1185 C23 0.994 . S
