# Generated by pormake.
# Topology zfa, (5)-cn, num edge types: 1
# Building blocks:
#     Node 0, Type 0, BuildingBlock: BEQFEK_clean_sbu_0, # of connection points: 5
#     Node 1, Type 0, BuildingBlock: BEQFEK_clean_sbu_0, # of connection points: 5
#     Node 2, Type 0, BuildingBlock: BEQFEK_clean_sbu_0, # of connection points: 5
#     Node 3, Type 0, BuildingBlock: BEQFEK_clean_sbu_0, # of connection points: 5
#     Node 4, Type 0, BuildingBlock: BEQFEK_clean_sbu_0, # of connection points: 5
#     Node 5, Type 0, BuildingBlock: BEQFEK_clean_sbu_0, # of connection points: 5
#     Node 6, Type 0, BuildingBlock: BEQFEK_clean_sbu_0, # of connection points: 5
#     Node 7, Type 0, BuildingBlock: BEQFEK_clean_sbu_0, # of connection points: 5
#     Edge 8, Type (0, 0), BuildingBlock: XIVTED_clean_linker_0, # of connection points: 2
#     Edge 9, Type (0, 0), BuildingBlock: XIVTED_clean_linker_0, # of connection points: 2
#     Edge 10, Type (0, 0), BuildingBlock: XIVTED_clean_linker_0, # of connection points: 2
#     Edge 11, Type (0, 0), BuildingBlock: XIVTED_clean_linker_0, # of connection points: 2
#     Edge 12, Type (0, 0), BuildingBlock: XIVTED_clean_linker_0, # of connection points: 2
#     Edge 13, Type (0, 0), BuildingBlock: XIVTED_clean_linker_0, # of connection points: 2
#     Edge 14, Type (0, 0), BuildingBlock: XIVTED_clean_linker_0, # of connection points: 2
#     Edge 15, Type (0, 0), BuildingBlock: XIVTED_clean_linker_0, # of connection points: 2
#     Edge 16, Type (0, 0), BuildingBlock: XIVTED_clean_linker_0, # of connection points: 2
#     Edge 17, Type (0, 0), BuildingBlock: XIVTED_clean_linker_0, # of connection points: 2
#     Edge 18, Type (0, 0), BuildingBlock: XIVTED_clean_linker_0, # of connection points: 2
#     Edge 19, Type (0, 0), BuildingBlock: XIVTED_clean_linker_0, # of connection points: 2
#     Edge 20, Type (0, 0), BuildingBlock: XIVTED_clean_linker_0, # of connection points: 2
#     Edge 21, Type (0, 0), BuildingBlock: XIVTED_clean_linker_0, # of connection points: 2
#     Edge 22, Type (0, 0), BuildingBlock: XIVTED_clean_linker_0, # of connection points: 2
#     Edge 23, Type (0, 0), BuildingBlock: XIVTED_clean_linker_0, # of connection points: 2
#     Edge 24, Type (0, 0), BuildingBlock: XIVTED_clean_linker_0, # of connection points: 2
#     Edge 25, Type (0, 0), BuildingBlock: XIVTED_clean_linker_0, # of connection points: 2
#     Edge 26, Type (0, 0), BuildingBlock: XIVTED_clean_linker_0, # of connection points: 2
#     Edge 27, Type (0, 0), BuildingBlock: XIVTED_clean_linker_0, # of connection points: 2
# Relax obj value: 0.369
# Max RMSD: 0.183
# Mean RMSD: 0.182
data_MOF--net-zfa--node1-BEQFEK_clean_sbu_0--edge1-XIVTED_clean_linker_0
_symmetry_space_group_name_H-M    P1
_symmetry_Int_Tables_number       1
_symmetry_cell_setting            triclinic
loop_
_symmetry_equiv_pos_as_xyz
'x, y, z'
_cell_length_a     31.465899
_cell_length_b     31.433795
_cell_length_c     38.166174
_cell_angle_alpha  89.643681
_cell_angle_beta   90.05792
_cell_angle_gamma 89.938694
loop_
_atom_site_label
_atom_site_type_symbol
_atom_site_fract_x
_atom_site_fract_y
_atom_site_fract_z
_atom_type_partial_charge
Co0 Co 0.17303 0.20801 0.31537 0.0
Co1 Co 0.1837 0.30544 0.32936 0.0
C2 C 0.19043 0.24444 0.38787 0.0
O3 O 0.18436 0.21387 0.36677 0.0
O4 O 0.19073 0.28278 0.3772 0.0
C5 C 0.12183 0.14147 0.33404 0.0
O6 O 0.11524 0.17011 0.35834 0.0
C7 C 0.16763 0.38951 0.35801 0.0
C8 C 0.17499 0.43037 0.31121 0.0
C9 C 0.16115 0.43061 0.34569 0.0
N10 N 0.18275 0.36582 0.33162 0.0
N11 N 0.18846 0.39072 0.30404 0.0
C12 C 0.15883 0.37261 0.39408 0.0
H13 H 0.13419 0.34745 0.39296 0.0
H14 H 0.14868 0.39815 0.41218 0.0
H15 H 0.18822 0.35789 0.40471 0.0
C16 C 0.08948 0.23852 0.28715 0.0
N17 N 0.12866 0.24612 0.30035 0.0
N18 N 0.13111 0.28636 0.30921 0.0
C19 C 0.0929 0.3051 0.30327 0.0
C20 C 0.06492 0.27526 0.28925 0.0
C21 C 0.07592 0.19734 0.27118 0.0
H22 H 0.10379 0.17979 0.26091 0.0
H23 H 0.05961 0.17763 0.29118 0.0
H24 H 0.05306 0.20323 0.2495 0.0
O25 O 0.22928 0.21842 0.29146 0.0
O26 O 0.2351 0.28777 0.30196 0.0
H27 H 0.09997 0.37252 0.29882 0.0
H28 H 0.04756 0.3561 0.31255 0.0
C29 C 0.08195 0.34916 0.31479 0.0
H30 H 0.09116 0.35287 0.34252 0.0
H31 H 0.1985 0.37998 0.27959 0.0
O32 O 0.14932 0.14932 0.31035 0.0
C33 C 0.25016 0.25329 0.28947 0.0
Co34 Co 0.33477 0.67632 0.8145 0.0
Co35 Co 0.23963 0.68018 0.83729 0.0
C36 C 0.30608 0.68178 0.89081 0.0
O37 O 0.33421 0.68235 0.86689 0.0
O38 O 0.26687 0.6794 0.88337 0.0
C39 C 0.39903 0.62116 0.82324 0.0
O40 O 0.36844 0.6078 0.84396 0.0
C41 C 0.15983 0.65698 0.87083 0.0
C42 C 0.11402 0.66601 0.8277 0.0
C43 C 0.11821 0.64875 0.86106 0.0
N44 N 0.17973 0.67633 0.84397 0.0
N45 N 0.15175 0.68304 0.81871 0.0
C46 C 0.18077 0.64544 0.90486 0.0
H47 H 0.19508 0.67444 0.91632 0.0
H48 H 0.20672 0.62223 0.90035 0.0
H49 H 0.15769 0.63211 0.92394 0.0
C50 C 0.30417 0.5963 0.78094 0.0
N51 N 0.29674 0.63294 0.79827 0.0
N52 N 0.25802 0.63192 0.81104 0.0
C53 C 0.24058 0.59354 0.80396 0.0
C54 C 0.26948 0.56939 0.78485 0.0
C55 C 0.3426 0.58779 0.75895 0.0
H56 H 0.35882 0.61793 0.75185 0.0
H57 H 0.36492 0.56678 0.7733 0.0
H58 H 0.33316 0.57088 0.7347 0.0
O59 O 0.32048 0.7333 0.79443 0.0
O60 O 0.25373 0.73618 0.81369 0.0
H61 H 0.17291 0.59623 0.80748 0.0
H62 H 0.19446 0.54383 0.81533 0.0
C63 C 0.19966 0.57828 0.81936 0.0
H64 H 0.20006 0.58428 0.84783 0.0
H65 H 0.15927 0.69602 0.79427 0.0
O66 O 0.39328 0.65514 0.80545 0.0
C67 C 0.28548 0.75345 0.79822 0.0
Co68 Co 0.87678 0.84123 0.31267 0.0
Co69 Co 0.8757 0.74424 0.33203 0.0
C70 C 0.86828 0.81256 0.3868 0.0
O71 O 0.86907 0.84236 0.36413 0.0
O72 O 0.87153 0.7737 0.37795 0.0
C73 C 0.88561 0.93136 0.31695 0.0
O74 O 0.86193 0.92668 0.34503 0.0
C75 C 0.91328 0.6701 0.36489 0.0
C76 C 0.89367 0.61797 0.33008 0.0
C77 C 0.92064 0.62752 0.35774 0.0
N78 N 0.88496 0.68534 0.34164 0.0
N79 N 0.87223 0.65371 0.32158 0.0
C80 C 0.93298 0.69654 0.39302 0.0
H81 H 0.95275 0.72196 0.38103 0.0
H82 H 0.95213 0.67714 0.41157 0.0
H83 H 0.90733 0.71188 0.40818 0.0
C84 C 0.96472 0.81779 0.29113 0.0
N85 N 0.92505 0.80708 0.30148 0.0
N86 N 0.92319 0.7657 0.30615 0.0
C87 C 0.96097 0.74855 0.29687 0.0
C88 C 0.989 0.78097 0.2877 0.0
C89 C 0.98048 0.86267 0.28949 0.0
H90 H 0.96942 0.87758 0.2647 0.0
H91 H 0.96739 0.88092 0.31178 0.0
H92 H 1.01562 0.86439 0.29073 0.0
O93 O 0.82183 0.82088 0.2915 0.0
O94 O 0.82057 0.75266 0.30734 0.0
H95 H 0.99505 0.69513 0.27557 0.0
H96 H 0.98101 0.69058 0.32096 0.0
C97 C 0.96984 0.7019 0.29508 0.0
H98 H 0.94069 0.68444 0.28768 0.0
H99 H 0.85145 0.65722 0.30044 0.0
O100 O 0.8909 0.89973 0.29687 0.0
C101 C 0.80297 0.78489 0.29288 0.0
Co102 Co 0.71674 0.37734 0.81352 0.0
Co103 Co 0.81266 0.37075 0.83389 0.0
C104 C 0.74739 0.36704 0.88882 0.0
O105 O 0.7184 0.36915 0.86562 0.0
O106 O 0.78639 0.36846 0.88051 0.0
C107 C 0.65266 0.43246 0.82357 0.0
O108 O 0.68334 0.445 0.84446 0.0
C109 C 0.89326 0.39128 0.86727 0.0
C110 C 0.93812 0.38529 0.82327 0.0
C111 C 0.93467 0.40017 0.85729 0.0
N112 N 0.87275 0.37391 0.83997 0.0
N113 N 0.90018 0.36896 0.81414 0.0
C114 C 0.87299 0.40065 0.90188 0.0
H115 H 0.84719 0.42436 0.89843 0.0
H116 H 0.8965 0.41249 0.92118 0.0
H117 H 0.85864 0.37103 0.91244 0.0
C118 C 0.74754 0.45867 0.78116 0.0
N119 N 0.75493 0.42108 0.79753 0.0
N120 N 0.79403 0.42092 0.80957 0.0
C121 C 0.8118 0.45942 0.80308 0.0
C122 C 0.78275 0.48494 0.78501 0.0
C123 C 0.70879 0.46854 0.75979 0.0
H124 H 0.69224 0.43887 0.75215 0.0
H125 H 0.68685 0.4889 0.77488 0.0
H126 H 0.71789 0.48661 0.73586 0.0
O127 O 0.72971 0.32068 0.79288 0.0
O128 O 0.79789 0.31636 0.80843 0.0
H129 H 0.87959 0.45658 0.80458 0.0
H130 H 0.85833 0.50808 0.8158 0.0
C131 C 0.85336 0.47331 0.81812 0.0
H132 H 0.85419 0.46471 0.84618 0.0
H133 H 0.89211 0.35777 0.78933 0.0
O134 O 0.65829 0.39915 0.80527 0.0
C135 C 0.76479 0.30015 0.79427 0.0
Co136 Co 0.6731 0.34264 0.21595 0.0
Co137 Co 0.68237 0.24594 0.19876 0.0
C138 C 0.68838 0.30908 0.1421 0.0
O139 O 0.6855 0.33874 0.16451 0.0
O140 O 0.686 0.27027 0.15126 0.0
C141 C 0.62143 0.40914 0.19859 0.0
O142 O 0.61524 0.38102 0.17381 0.0
C143 C 0.66585 0.1628 0.16841 0.0
C144 C 0.67416 0.12041 0.21416 0.0
C145 C 0.65956 0.12134 0.17987 0.0
N146 N 0.68157 0.1856 0.1951 0.0
N147 N 0.68788 0.15976 0.22203 0.0
C148 C 0.65619 0.18083 0.13284 0.0
H149 H 0.63146 0.20585 0.13482 0.0
H150 H 0.64572 0.15585 0.11434 0.0
H151 H 0.68531 0.19592 0.12216 0.0
C152 C 0.58949 0.31148 0.24388 0.0
N153 N 0.6285 0.3042 0.2302 0.0
N154 N 0.63074 0.26422 0.22055 0.0
C155 C 0.59263 0.24539 0.22642 0.0
C156 C 0.5649 0.27485 0.24125 0.0
C157 C 0.57603 0.35219 0.2607 0.0
H158 H 0.60398 0.36958 0.27098 0.0
H159 H 0.55921 0.37232 0.24123 0.0
H160 H 0.55359 0.34566 0.2825 0.0
O161 O 0.72896 0.3313 0.23977 0.0
O162 O 0.73506 0.26302 0.22535 0.0
H163 H 0.59996 0.17786 0.22876 0.0
H164 H 0.54711 0.19478 0.21656 0.0
C165 C 0.5814 0.20187 0.21384 0.0
H166 H 0.58975 0.19941 0.18584 0.0
H167 H 0.69844 0.16967 0.24658 0.0
O168 O 0.64922 0.40111 0.22206 0.0
C169 C 0.75016 0.29653 0.23953 0.0
Co170 Co 0.20701 0.17762 0.71388 0.0
Co171 Co 0.30517 0.18311 0.70333 0.0
C172 C 0.24178 0.1879 0.64302 0.0
O173 O 0.20959 0.1815 0.66242 0.0
O174 O 0.27906 0.19005 0.6559 0.0
C175 C 0.11761 0.16757 0.70575 0.0
O176 O 0.12371 0.1902 0.67714 0.0
C177 C 0.37933 0.14367 0.6735 0.0
C178 C 0.43199 0.1674 0.70615 0.0
C179 C 0.42231 0.13822 0.68019 0.0
N180 N 0.3641 0.17343 0.69527 0.0
N181 N 0.39591 0.18837 0.71414 0.0
C182 C 0.35248 0.12045 0.64739 0.0
H183 H 0.33563 0.1438 0.63055 0.0
H184 H 0.32815 0.10122 0.66131 0.0
H185 H 0.37177 0.09984 0.63011 0.0
C186 C 0.23083 0.09122 0.7392 0.0
N187 N 0.2412 0.13106 0.72888 0.0
N188 N 0.28273 0.13445 0.7275 0.0
C189 C 0.30011 0.09752 0.73905 0.0
C190 C 0.26786 0.06843 0.74622 0.0
C191 C 0.18661 0.07382 0.73765 0.0
H192 H 0.16926 0.08338 0.76163 0.0
H193 H 0.16978 0.087 0.71448 0.0
H194 H 0.18644 0.03864 0.73581 0.0
O195 O 0.22439 0.23461 0.73355 0.0
O196 O 0.29485 0.2371 0.72882 0.0
H197 H 0.36226 0.1211 0.7518 0.0
H198 H 0.35175 0.06743 0.76677 0.0
C199 C 0.34655 0.09067 0.74516 0.0
H200 H 0.36111 0.07759 0.72121 0.0
H201 H 0.39251 0.21086 0.73394 0.0
O202 O 0.14808 0.16315 0.72729 0.0
C203 C 0.25966 0.25418 0.73768 0.0
Co204 Co 0.37698 0.70858 0.21721 0.0
Co205 Co 0.37674 0.80524 0.19726 0.0
C206 C 0.37136 0.73633 0.1427 0.0
O207 O 0.37133 0.70678 0.1656 0.0
O208 O 0.3741 0.77528 0.15142 0.0
C209 C 0.38393 0.61825 0.21418 0.0
O210 O 0.35961 0.62289 0.18642 0.0
C211 C 0.41676 0.87865 0.16543 0.0
C212 C 0.39051 0.93235 0.19541 0.0
C213 C 0.42086 0.92207 0.1705 0.0
N214 N 0.38654 0.8638 0.18709 0.0
N215 N 0.37014 0.89619 0.20436 0.0
C216 C 0.44121 0.85116 0.14067 0.0
H217 H 0.41847 0.83391 0.1239 0.0
H218 H 0.45984 0.82714 0.15559 0.0
H219 H 0.46237 0.86996 0.1233 0.0
C220 C 0.46437 0.73189 0.24026 0.0
N221 N 0.42494 0.74261 0.22924 0.0
N222 N 0.42311 0.78399 0.22459 0.0
C223 C 0.46051 0.80117 0.23473 0.0
C224 C 0.48842 0.76872 0.24426 0.0
C225 C 0.48024 0.68702 0.24198 0.0
H226 H 0.46953 0.67228 0.26692 0.0
H227 H 0.46698 0.66859 0.21985 0.0
H228 H 0.51538 0.68534 0.24057 0.0
O229 O 0.32142 0.72952 0.2371 0.0
O230 O 0.3209 0.79762 0.22089 0.0
H231 H 0.43903 0.86531 0.24268 0.0
H232 H 0.49208 0.85436 0.25859 0.0
C233 C 0.4689 0.84784 0.23735 0.0
H234 H 0.48271 0.85943 0.21249 0.0
H235 H 0.34689 0.89326 0.22369 0.0
O236 O 0.39043 0.65018 0.23368 0.0
C237 C 0.3028 0.76566 0.23525 0.0
Co238 Co 0.84525 0.87712 0.71384 0.0
Co239 Co 0.7479 0.87094 0.69817 0.0
C240 C 0.80826 0.8644 0.64042 0.0
O241 O 0.83842 0.86577 0.66259 0.0
O242 O 0.76979 0.86803 0.64995 0.0
C243 C 0.91063 0.92833 0.69466 0.0
O244 O 0.88067 0.93562 0.67142 0.0
C245 C 0.66366 0.891 0.67084 0.0
C246 C 0.62392 0.88314 0.71799 0.0
C247 C 0.62326 0.89865 0.6839 0.0
N248 N 0.68746 0.87364 0.69646 0.0
N249 N 0.66312 0.86766 0.72423 0.0
C250 C 0.67982 0.90087 0.63477 0.0
H251 H 0.70562 0.9248 0.63608 0.0
H252 H 0.65409 0.91252 0.61727 0.0
H253 H 0.69343 0.87152 0.62333 0.0
C254 C 0.81753 0.95992 0.74433 0.0
N255 N 0.80862 0.92188 0.7297 0.0
N256 N 0.76846 0.92141 0.72035 0.0
C257 C 0.75111 0.95995 0.72729 0.0
C258 C 0.78179 0.98592 0.7426 0.0
C259 C 0.85893 0.9709 0.76134 0.0
H260 H 0.87558 0.94172 0.77036 0.0
H261 H 0.87923 0.98823 0.74239 0.0
H262 H 0.85353 0.99217 0.78403 0.0
O263 O 0.83399 0.8214 0.73738 0.0
O264 O 0.76535 0.81688 0.72347 0.0
H265 H 0.7025 1.00797 0.71788 0.0
H266 H 0.704 0.96502 0.68746 0.0
C267 C 0.70781 0.97332 0.71534 0.0
H268 H 0.68347 0.95604 0.7308 0.0
H269 H 0.67413 0.85613 0.74828 0.0
O270 O 0.90421 0.89997 0.7181 0.0
C271 C 0.79896 0.80079 0.73709 0.0
H272 H 1.00242 0.65384 0.37182 0.0
H273 H 0.16805 0.51669 0.3411 0.0
H274 H 0.92449 0.54123 0.36477 0.0
H275 H 0.08525 0.41727 0.37885 0.0
H276 H 0.11223 0.56857 0.35266 0.0
H277 H 0.06445 0.60966 0.38004 0.0
C278 C 0.99794 0.61981 0.37289 0.0
C279 C 0.95772 0.6013 0.36813 0.0
C280 C 0.10674 0.53571 0.35987 0.0
C281 C 0.02996 0.55011 0.37482 0.0
C282 C 0.13866 0.50607 0.35305 0.0
C283 C 0.13171 0.46281 0.35974 0.0
C284 C 0.06735 0.52175 0.37306 0.0
C285 C 0.09264 0.45041 0.37431 0.0
C286 C 0.03391 0.59444 0.37673 0.0
C287 C 0.95483 0.55682 0.36842 0.0
N288 N 0.06175 0.47967 0.38002 0.0
N289 N 0.99053 0.5327 0.37145 0.0
H290 H 1.02127 0.40043 0.85982 0.0
H291 H 0.03169 0.64828 0.86462 0.0
H292 H 0.91162 0.47672 0.88522 0.0
H293 H 0.14183 0.57038 0.88582 0.0
H294 H 0.98646 0.58599 0.87495 0.0
H295 H 0.06675 0.46189 0.87206 0.0
C296 C 1.00692 0.42969 0.86892 0.0
C297 C 0.96272 0.43326 0.87188 0.0
C298 C 1.02051 0.58291 0.87826 0.0
C299 C 1.01402 0.5038 0.88479 0.0
C300 C 0.04622 0.61841 0.87242 0.0
C301 C 0.09047 0.61467 0.87474 0.0
C302 C 0.03943 0.54325 0.88543 0.0
C303 C 0.10788 0.57508 0.88433 0.0
C304 C 0.03277 0.46472 0.87586 0.0
C305 C 0.94553 0.47211 0.88318 0.0
N306 N 0.08237 0.54074 0.88873 0.0
N307 N 0.97115 0.50608 0.88864 0.0
H308 H 0.41817 1.00644 0.15373 0.0
H309 H 0.66588 0.03494 0.18151 0.0
H310 H 0.50544 0.90146 0.16626 0.0
H311 H 0.58266 0.13691 0.14887 0.0
H312 H 0.60883 0.98412 0.16956 0.0
H313 H 0.47894 0.05419 0.14576 0.0
C314 C 0.45003 0.99332 0.15403 0.0
C315 C 0.45662 0.94984 0.16016 0.0
C316 C 0.60343 1.01756 0.16418 0.0
C317 C 0.5262 1.00408 0.15187 0.0
C318 C 0.63603 0.04645 0.1709 0.0
C319 C 0.62926 0.09006 0.1657 0.0
C320 C 0.56351 0.03263 0.15302 0.0
C321 C 0.58977 0.10354 0.15248 0.0
C322 C 0.48469 1.02049 0.14946 0.0
C323 C 0.49856 0.93447 0.16079 0.0
N324 N 0.55821 0.07499 0.14705 0.0
N325 N 0.53171 0.96162 0.15708 0.0
H326 H 0.63926 0.97583 0.65306 0.0
H327 H 0.40015 0.05416 0.67359 0.0
H328 H 0.53692 0.89525 0.68866 0.0
H329 H 0.50734 0.13929 0.66633 0.0
H330 H 0.44736 0.99413 0.66475 0.0
H331 H 0.58869 0.03321 0.64314 0.0
C332 C 0.60593 0.96961 0.65764 0.0
C333 C 0.59213 0.93034 0.67118 0.0
C334 C 0.46049 1.02597 0.66448 0.0
C335 C 0.53428 0.99667 0.661 0.0
C336 C 0.43345 0.06051 0.66915 0.0
C337 C 0.44972 0.10208 0.67013 0.0
C338 C 0.50426 0.03288 0.66103 0.0
C339 C 0.49352 0.10778 0.66553 0.0
C340 C 0.57715 1.00272 0.65242 0.0
C341 C 0.54873 0.92493 0.67795 0.0
N342 N 0.51937 0.07351 0.66129 0.0
N343 N 0.5213 0.95785 0.67297 0.0
H344 H 0.50215 0.32952 0.21966 0.0
H345 H 0.30679 0.18644 0.28564 0.0
H346 H 0.52031 0.21102 0.2751 0.0
H347 H 0.29655 0.32121 0.26539 0.0
H348 H 0.38326 0.19044 0.27289 0.0
H349 H 0.42547 0.32319 0.22856 0.0
C350 C 0.4901 0.30233 0.23404 0.0
C351 C 0.51795 0.27094 0.24691 0.0
C352 C 0.36414 0.21903 0.27096 0.0
C353 C 0.42951 0.26276 0.25624 0.0
C354 C 0.32036 0.2167 0.27787 0.0
C355 C 0.29498 0.25354 0.27657 0.0
C356 C 0.38271 0.25834 0.26215 0.0
C357 C 0.3147 0.29197 0.2668 0.0
C358 C 0.44617 0.29854 0.23883 0.0
C359 C 0.50008 0.2358 0.26445 0.0
N360 N 0.35717 0.29334 0.25998 0.0
N361 N 0.45707 0.23255 0.26848 0.0
H362 H 0.22237 1.02203 0.79429 0.0
H363 H 0.34265 0.80127 0.75981 0.0
H364 H 0.32209 1.00932 0.7177 0.0
H365 H 0.22205 0.81052 0.81305 0.0
H366 H 0.33933 0.87785 0.74723 0.0
H367 H 0.2259 0.94525 0.80536 0.0
C368 C 0.24508 1.00309 0.77984 0.0
C369 C 0.27187 1.02222 0.75496 0.0
C370 C 0.31352 0.86301 0.76149 0.0
C371 C 0.2765 0.93413 0.76778 0.0
C372 C 0.31533 0.81922 0.76865 0.0
C373 C 0.28256 0.79913 0.78752 0.0
C374 C 0.27896 0.88716 0.77366 0.0
C375 C 0.24804 0.82433 0.79833 0.0
C376 C 0.24711 0.95923 0.78617 0.0
C377 C 0.30119 0.99613 0.73744 0.0
N378 N 0.24733 0.86688 0.79148 0.0
N379 N 0.30273 0.9535 0.74416 0.0
H380 H 0.53462 0.72668 0.29473 0.0
H381 H 0.75539 0.84216 0.25415 0.0
H382 H 0.54816 0.81802 0.21075 0.0
H383 H 0.74671 0.72052 0.30677 0.0
H384 H 0.67886 0.83879 0.24185 0.0
H385 H 0.61162 0.72936 0.30431 0.0
C386 C 0.55377 0.74735 0.27834 0.0
C387 C 0.53482 0.77209 0.25188 0.0
C388 C 0.69388 0.81273 0.25585 0.0
C389 C 0.62301 0.77588 0.26303 0.0
C390 C 0.7376 0.81457 0.26282 0.0
C391 C 0.75777 0.78155 0.28149 0.0
C392 C 0.66992 0.77801 0.26817 0.0
C393 C 0.73282 0.74668 0.29216 0.0
C394 C 0.59772 0.74889 0.28382 0.0
C395 C 0.56119 0.79889 0.23183 0.0
N396 N 0.69029 0.74605 0.28567 0.0
N397 N 0.60386 0.80015 0.23785 0.0
H398 H 0.69815 0.24473 0.78576 0.0
H399 H 0.83881 0.04776 0.72361 0.0
H400 H 0.83471 0.2518 0.7775 0.0
H401 H 0.71942 0.0309 0.77721 0.0
H402 H 0.83488 0.1242 0.7348 0.0
H403 H 0.70187 0.16842 0.77303 0.0
C404 C 0.72888 0.23045 0.78077 0.0
C405 C 0.76619 0.25492 0.78268 0.0
C406 C 0.80958 0.10378 0.74419 0.0
C407 C 0.77056 0.16736 0.76809 0.0
C408 C 0.81197 0.05999 0.73812 0.0
C409 C 0.77956 0.03262 0.74974 0.0
C410 C 0.7741 0.12074 0.76148 0.0
C411 C 0.74491 0.05078 0.76743 0.0
C412 C 0.73096 0.18677 0.77383 0.0
C413 C 0.80511 0.23432 0.77635 0.0
N414 N 0.74294 0.09367 0.77256 0.0
N415 N 0.80626 0.19189 0.76922 0.0
H416 H 1.00219 0.22079 0.31101 0.0
H417 H 0.80616 0.36335 0.24598 0.0
H418 H 1.02016 0.33874 0.25479 0.0
H419 H 0.79747 0.22743 0.26036 0.0
H420 H 0.8826 0.35933 0.25896 0.0
H421 H 0.92557 0.22661 0.30129 0.0
C422 C 0.99014 0.24777 0.29631 0.0
C423 C 1.01794 0.27912 0.28344 0.0
C424 C 0.86383 0.33048 0.25953 0.0
C425 C 0.92954 0.28676 0.27326 0.0
C426 C 0.82008 0.33278 0.25247 0.0
C427 C 0.79513 0.29567 0.25212 0.0
C428 C 0.8828 0.29091 0.26692 0.0
C429 C 0.81528 0.25688 0.26028 0.0
C430 C 0.94624 0.25125 0.29106 0.0
C431 C 1.0 0.31402 0.26552 0.0
N432 N 0.85772 0.25555 0.2674 0.0
N433 N 0.95702 0.31701 0.2611 0.0
H434 H 0.32958 0.50985 0.80156 0.0
H435 H 0.19174 0.30911 0.74159 0.0
H436 H 0.20619 0.52241 0.75347 0.0
H437 H 0.32727 0.30334 0.75854 0.0
H438 H 0.19359 0.38563 0.75326 0.0
H439 H 0.32697 0.43311 0.79195 0.0
C440 C 0.30216 0.49655 0.78847 0.0
C441 C 0.26826 0.52274 0.7779 0.0
C442 C 0.22286 0.36754 0.75461 0.0
C443 C 0.26439 0.43432 0.7679 0.0
C444 C 0.22182 0.32371 0.74825 0.0
C445 C 0.25944 0.2995 0.74905 0.0
C446 C 0.26171 0.38745 0.76225 0.0
C447 C 0.29747 0.32054 0.75755 0.0
C448 C 0.3005 0.45259 0.78333 0.0
C449 C 0.23293 0.50338 0.76215 0.0
N450 N 0.2976 0.36316 0.7638 0.0
N451 N 0.23181 0.46035 0.75776 0.0
H452 H 0.04834 0.73174 0.32198 0.0
H453 H 0.24763 0.83116 0.22147 0.0
H454 H 0.03597 0.8227 0.23755 0.0
H455 H 0.25414 0.70913 0.27373 0.0
H456 H 0.17175 0.83453 0.2345 0.0
H457 H 0.1249 0.7278 0.31076 0.0
C458 C 0.06159 0.75056 0.30082 0.0
C459 C 0.03553 0.77748 0.28055 0.0
C460 C 0.18981 0.80709 0.24324 0.0
C461 C 0.12355 0.77412 0.26835 0.0
C462 C 0.23331 0.80523 0.23606 0.0
C463 C 0.25759 0.76972 0.24646 0.0
C464 C 0.17017 0.77351 0.2614 0.0
C465 C 0.23685 0.73709 0.26513 0.0
C466 C 0.1054 0.74852 0.29464 0.0
C467 C 0.05484 0.8019 0.25409 0.0
N468 N 0.1944 0.73979 0.27205 0.0
N469 N 0.09762 0.79985 0.2489 0.0
H470 H 0.86613 0.74553 0.74583 0.0
H471 H 0.72342 0.54554 0.80093 0.0
H472 H 0.72951 0.75186 0.7539 0.0
H473 H 0.84746 0.5315 0.75459 0.0
H474 H 0.72749 0.62235 0.79116 0.0
H475 H 0.86277 0.6688 0.75775 0.0
C476 C 0.83547 0.73101 0.75066 0.0
C477 C 0.79803 0.75542 0.74887 0.0
C478 C 0.75379 0.60251 0.78299 0.0
C479 C 0.79404 0.66732 0.76238 0.0
C480 C 0.7513 0.55849 0.7882 0.0
C481 C 0.78493 0.53179 0.77817 0.0
C482 C 0.79052 0.62039 0.76812 0.0
C483 C 0.82089 0.55084 0.76293 0.0
C484 C 0.83359 0.68708 0.75712 0.0
C485 C 0.75922 0.73449 0.75497 0.0
N486 N 0.82285 0.59393 0.75854 0.0
N487 N 0.75825 0.69183 0.76148 0.0
H488 H 0.16423 0.1748 0.42533 0.0
H489 H 0.29407 0.22983 0.59732 0.0
H490 H 0.23327 0.29264 0.43566 0.0
H491 H 0.17541 0.16126 0.60224 0.0
H492 H 0.28163 0.24336 0.53483 0.0
H493 H 0.17709 0.15982 0.48761 0.0
C494 C 0.18218 0.19743 0.44067 0.0
C495 C 0.19765 0.23507 0.42538 0.0
C496 C 0.25844 0.2253 0.54967 0.0
C497 C 0.21297 0.21775 0.49617 0.0
C498 C 0.26558 0.21735 0.5852 0.0
C499 C 0.23564 0.19451 0.60498 0.0
C500 C 0.2216 0.20947 0.53366 0.0
C501 C 0.19918 0.17922 0.58797 0.0
C502 C 0.18932 0.18893 0.47614 0.0
C503 C 0.22057 0.26339 0.44649 0.0
N504 N 0.19329 0.18674 0.55318 0.0
N505 N 0.2279 0.25396 0.48077 0.0
H506 H 0.39877 0.78112 0.08526 0.0
H507 H 0.26413 0.65152 0.94836 0.0
H508 H 0.33224 0.66656 0.11504 0.0
H509 H 0.37704 0.7199 0.91757 0.0
H510 H 0.28354 0.66143 1.0099 0.0
H511 H 0.38636 0.7643 0.02364 0.0
C512 C 0.38161 0.75243 0.07887 0.0
C513 C 0.36632 0.72535 0.10533 0.0
C514 C 0.30419 0.67394 0.98964 0.0
C515 C 0.35167 0.70616 0.03496 0.0
C516 C 0.29304 0.66855 0.95457 0.0
C517 C 0.31891 0.68515 0.92789 0.0
C518 C 0.34097 0.69692 0.99806 0.0
C519 C 0.35627 0.70655 0.93737 0.0
C520 C 0.37479 0.74272 0.0437 0.0
C521 C 0.34465 0.68828 0.09545 0.0
N522 N 0.36592 0.71235 0.97175 0.0
N523 N 0.33745 0.68004 0.06103 0.0
H524 H 0.87967 0.82863 0.61272 0.0
H525 H 0.822 0.87821 0.41368 0.0
H526 H 0.76034 0.88646 0.58307 0.0
H527 H 0.8994 0.77099 0.44447 0.0
H528 H 0.80781 0.89258 0.47575 0.0
H529 H 0.89593 0.81786 0.55072 0.0
C530 C 0.85696 0.83921 0.59316 0.0
C531 C 0.81846 0.85824 0.60303 0.0
C532 C 0.82791 0.86595 0.46879 0.0
C533 C 0.8372 0.84653 0.53222 0.0
C534 C 0.83623 0.8579 0.43351 0.0
C535 C 0.86157 0.82308 0.42401 0.0
C536 C 0.84589 0.83957 0.49464 0.0
C537 C 0.87915 0.79768 0.45066 0.0
C538 C 0.86622 0.83291 0.55786 0.0
C539 C 0.79018 0.87128 0.57658 0.0
N540 N 0.87115 0.80654 0.48482 0.0
N541 N 0.80022 0.8654 0.5423 0.0
H542 H 0.72673 0.37987 0.11492 0.0
H543 H 0.67721 0.32737 0.91556 0.0
H544 H 0.66486 0.2633 0.08456 0.0
H545 H 0.791 0.39379 0.94654 0.0
H546 H 0.66074 0.31462 0.97762 0.0
H547 H 0.73929 0.39634 0.05287 0.0
C548 C 0.71558 0.3579 0.09519 0.0
C549 C 0.695 0.32002 0.10483 0.0
C550 C 0.6892 0.3321 0.9707 0.0
C551 C 0.70862 0.339 0.03413 0.0
C552 C 0.69848 0.33959 0.93543 0.0
C553 C 0.73567 0.3614 0.92599 0.0
C554 C 0.71677 0.34744 0.99662 0.0
C555 C 0.76227 0.37642 0.95273 0.0
C556 C 0.7229 0.36724 0.05991 0.0
C557 C 0.68126 0.2926 0.07824 0.0
N558 N 0.75219 0.36936 0.98689 0.0
N559 N 0.68808 0.30276 0.04403 0.0
H560 H 0.9408 0.95137 0.26346 0.0
H561 H 0.0697 0.11187 0.38493 0.0
H562 H 0.90003 0.99287 0.36568 0.0
H563 H 0.10304 0.09168 0.27663 0.0
H564 H 1.01011 0.06366 0.37838 0.0
H565 H 1.00079 1.00085 0.26668 0.0
C566 C 0.94407 0.97129 0.28634 0.0
C567 C 0.91569 0.96741 0.31462 0.0
C568 C 0.03043 0.06952 0.35598 0.0
C569 C 0.98438 1.02361 0.31856 0.0
C570 C 0.06477 0.09682 0.35979 0.0
C571 C 0.09125 0.10604 0.33121 0.0
C572 C 1.02224 0.05104 0.32331 0.0
C573 C 0.08346 0.08531 0.29936 0.0
C574 C 0.97843 0.99936 0.2882 0.0
C575 C 0.92116 0.99444 0.34335 0.0
N576 N 0.04936 0.05891 0.29616 0.0
N577 N 0.95509 1.02096 0.34473 0.0
H578 H 0.4023 0.53564 0.83162 0.0
H579 H 0.64915 0.51758 0.83393 0.0
H580 H 0.47976 0.64338 0.80243 0.0
H581 H 0.57236 0.41129 0.80115 0.0
H582 H 0.58762 0.5643 0.82758 0.0
H583 H 0.46399 0.48927 0.82554 0.0
C584 C 0.43237 0.54954 0.82387 0.0
C585 C 0.43617 0.59347 0.8178 0.0
C586 C 0.58436 0.53085 0.82147 0.0
C587 C 0.50677 0.54056 0.81122 0.0
C588 C 0.61925 0.50406 0.8254 0.0
C589 C 0.61559 0.46042 0.81837 0.0
C590 C 0.54522 0.51372 0.81138 0.0
C591 C 0.57635 0.44473 0.80692 0.0
C592 C 0.46739 0.52296 0.82013 0.0
C593 C 0.47567 0.60969 0.80742 0.0
N594 N 0.54232 0.47132 0.80433 0.0
N595 N 0.50981 0.58324 0.80502 0.0
H596 H 0.39426 0.55418 0.16697 0.0
H597 H 0.60493 0.45955 0.25612 0.0
H598 H 0.44125 0.59899 0.26644 0.0
H599 H 0.56518 0.43645 0.14963 0.0
H600 H 0.54377 0.50756 0.26323 0.0
H601 H 0.45292 0.50387 0.16455 0.0
C602 C 0.41652 0.55302 0.18863 0.0
C603 C 0.41325 0.5815 0.21662 0.0
C604 C 0.54876 0.49212 0.23829 0.0
C605 C 0.48128 0.52437 0.21366 0.0
C606 C 0.58386 0.46515 0.23411 0.0
C607 C 0.59007 0.44386 0.20228 0.0
C608 C 0.51984 0.49753 0.21048 0.0
C609 C 0.56155 0.45189 0.17473 0.0
C610 C 0.45038 0.52454 0.18705 0.0
C611 C 0.44303 0.57817 0.24402 0.0
N612 N 0.52764 0.47776 0.17956 0.0
N613 N 0.47615 0.55047 0.24168 0.0
H614 H 0.05697 0.15302 0.65603 0.0
H615 H 0.96334 0.94524 0.75078 0.0
H616 H 0.09646 0.11301 0.75949 0.0
H617 H 0.93672 0.98289 0.64403 0.0
H618 H 1.0113 1.00657 0.75606 0.0
H619 H 1.00796 0.09332 0.65406 0.0
C620 C 0.05489 0.13208 0.67861 0.0
C621 C 0.08147 0.13763 0.70771 0.0
C622 C 0.99515 1.00108 0.73144 0.0
C623 C 1.02592 0.06841 0.70533 0.0
C624 C 0.96824 0.96584 0.72829 0.0
C625 C 0.94586 0.95914 0.69699 0.0
C626 C 0.99953 0.02951 0.70306 0.0
C627 C 0.95301 0.98703 0.66878 0.0
C628 C 0.02718 0.09762 0.67732 0.0
C629 C 0.0771 0.10947 0.73625 0.0
N630 N 0.97891 1.02106 0.67258 0.0
N631 N 0.05021 0.07574 0.73421 0.0
loop_
_geom_bond_atom_site_label_1
_geom_bond_atom_site_label_2
_geom_bond_distance
_geom_bond_site_symmetry_2
_ccdc_geom_bond_type
Co0 O3 1.970 . S
Co0 N17 1.989 . S
Co0 O25 1.967 . S
Co0 O32 1.920 . S
Co1 O4 1.966 . S
Co1 N10 2.022 . S
Co1 N18 1.993 . S
Co1 O26 1.941 . S
C2 O3 1.258 . S
C2 O4 1.263 . S
O3 Co0 1.970 . S
O3 C2 1.258 . S
O4 Co1 1.966 . S
O4 C2 1.263 . S
C5 O6 1.235 . S
C5 O32 1.289 . S
O6 C5 1.235 . S
C7 C9 1.400 . S
C7 N10 1.351 . S
C7 C12 1.501 . S
C8 C9 1.387 . S
C8 N11 1.341 . S
C9 C7 1.400 . S
C9 C8 1.387 . S
N10 Co1 2.022 . S
N10 C7 1.351 . S
N10 N11 1.365 . S
N11 C8 1.341 . S
N11 N10 1.365 . S
N11 H31 0.862 . S
C12 C7 1.501 . S
C12 H13 0.961 . S
C12 H14 0.961 . S
C12 H15 0.960 . S
H13 C12 0.961 . S
H14 C12 0.961 . S
H15 C12 0.960 . S
C16 N17 1.342 1_655 S
C16 C20 1.401 . S
C16 C21 1.499 . S
N17 Co0 1.989 . S
N17 C16 1.342 1_455 S
N17 N18 1.388 . S
N18 Co1 1.993 . S
N18 N17 1.388 . S
N18 C19 1.346 1_455 S
C19 N18 1.346 1_655 S
C19 C20 1.396 . S
C19 C29 1.510 . S
C20 C16 1.401 . S
C20 C19 1.396 . S
C21 C16 1.499 . S
C21 H22 0.959 . S
C21 H23 0.960 . S
C21 H24 0.961 . S
H22 C21 0.959 . S
H23 C21 0.960 . S
H24 C21 0.961 . S
O25 Co0 1.967 . S
O25 C33 1.258 . S
O26 Co1 1.941 . S
O26 C33 1.266 . S
H27 C29 0.959 . S
H28 C29 0.961 . S
C29 C19 1.510 . S
C29 H27 0.959 . S
C29 H28 0.961 . S
C29 H30 0.960 . S
H30 C29 0.960 . S
H31 N11 0.862 . S
O32 Co0 1.920 . S
O32 C5 1.289 . S
C33 O25 1.258 . S
C33 O26 1.266 . S
Co34 O37 1.970 . S
Co34 N51 1.989 . S
Co34 O59 1.967 . S
Co34 O66 1.920 . S
Co35 O38 1.966 . S
Co35 N44 2.022 . S
Co35 N52 1.993 . S
Co35 O60 1.941 . S
C36 O37 1.258 . S
C36 O38 1.263 . S
O37 Co34 1.970 . S
O37 C36 1.258 . S
O38 Co35 1.966 . S
O38 C36 1.263 . S
C39 O40 1.235 . S
C39 O66 1.289 . S
O40 C39 1.235 . S
C41 C43 1.400 . S
C41 N44 1.351 . S
C41 C46 1.501 . S
C42 C43 1.387 . S
C42 N45 1.341 . S
C43 C41 1.400 . S
C43 C42 1.387 . S
N44 Co35 2.022 . S
N44 C41 1.351 . S
N44 N45 1.365 . S
N45 C42 1.341 . S
N45 N44 1.365 . S
N45 H65 0.862 . S
C46 C41 1.501 . S
C46 H47 0.961 . S
C46 H48 0.961 . S
C46 H49 0.960 . S
H47 C46 0.961 . S
H48 C46 0.961 . S
H49 C46 0.960 . S
C50 N51 1.342 . S
C50 C54 1.401 . S
C50 C55 1.499 . S
N51 Co34 1.989 . S
N51 C50 1.342 . S
N51 N52 1.388 . S
N52 Co35 1.993 . S
N52 N51 1.388 . S
N52 C53 1.346 . S
C53 N52 1.346 . S
C53 C54 1.396 . S
C53 C63 1.510 . S
C54 C50 1.401 . S
C54 C53 1.396 . S
C55 C50 1.499 . S
C55 H56 0.959 . S
C55 H57 0.960 . S
C55 H58 0.961 . S
H56 C55 0.959 . S
H57 C55 0.960 . S
H58 C55 0.961 . S
O59 Co34 1.967 . S
O59 C67 1.258 . S
O60 Co35 1.941 . S
O60 C67 1.266 . S
H61 C63 0.959 . S
H62 C63 0.961 . S
C63 C53 1.510 . S
C63 H61 0.959 . S
C63 H62 0.961 . S
C63 H64 0.960 . S
H64 C63 0.960 . S
H65 N45 0.862 . S
O66 Co34 1.920 . S
O66 C39 1.289 . S
C67 O59 1.258 . S
C67 O60 1.266 . S
Co68 O71 1.970 . S
Co68 N85 1.989 . S
Co68 O93 1.967 . S
Co68 O100 1.920 . S
Co69 O72 1.966 . S
Co69 N78 2.022 . S
Co69 N86 1.993 . S
Co69 O94 1.941 . S
C70 O71 1.258 . S
C70 O72 1.263 . S
O71 Co68 1.970 . S
O71 C70 1.258 . S
O72 Co69 1.966 . S
O72 C70 1.263 . S
C73 O74 1.235 . S
C73 O100 1.289 . S
O74 C73 1.235 . S
C75 C77 1.400 . S
C75 N78 1.351 . S
C75 C80 1.501 . S
C76 C77 1.387 . S
C76 N79 1.341 . S
C77 C75 1.400 . S
C77 C76 1.387 . S
N78 Co69 2.022 . S
N78 C75 1.351 . S
N78 N79 1.365 . S
N79 C76 1.341 . S
N79 N78 1.365 . S
N79 H99 0.862 . S
C80 C75 1.501 . S
C80 H81 0.961 . S
C80 H82 0.961 . S
C80 H83 0.960 . S
H81 C80 0.961 . S
H82 C80 0.961 . S
H83 C80 0.960 . S
C84 N85 1.342 1_455 S
C84 C88 1.401 . S
C84 C89 1.499 . S
N85 Co68 1.989 . S
N85 C84 1.342 1_655 S
N85 N86 1.388 . S
N86 Co69 1.993 . S
N86 N85 1.388 . S
N86 C87 1.346 1_655 S
C87 N86 1.346 1_455 S
C87 C88 1.396 . S
C87 C97 1.510 . S
C88 C84 1.401 . S
C88 C87 1.396 . S
C89 C84 1.499 . S
C89 H90 0.959 . S
C89 H91 0.960 . S
C89 H92 0.961 . S
H90 C89 0.959 . S
H91 C89 0.960 . S
H92 C89 0.961 . S
O93 Co68 1.967 . S
O93 C101 1.258 . S
O94 Co69 1.941 . S
O94 C101 1.266 . S
H95 C97 0.959 . S
H96 C97 0.961 . S
C97 C87 1.510 . S
C97 H95 0.959 . S
C97 H96 0.961 . S
C97 H98 0.960 . S
H98 C97 0.960 . S
H99 N79 0.862 . S
O100 Co68 1.920 . S
O100 C73 1.289 . S
C101 O93 1.258 . S
C101 O94 1.266 . S
Co102 O105 1.970 . S
Co102 N119 1.989 . S
Co102 O127 1.967 . S
Co102 O134 1.920 . S
Co103 O106 1.966 . S
Co103 N112 2.022 . S
Co103 N120 1.993 . S
Co103 O128 1.941 . S
C104 O105 1.258 . S
C104 O106 1.263 . S
O105 Co102 1.970 . S
O105 C104 1.258 . S
O106 Co103 1.966 . S
O106 C104 1.263 . S
C107 O108 1.235 . S
C107 O134 1.289 . S
O108 C107 1.235 . S
C109 C111 1.400 . S
C109 N112 1.351 . S
C109 C114 1.501 . S
C110 C111 1.387 . S
C110 N113 1.341 . S
C111 C109 1.400 . S
C111 C110 1.387 . S
N112 Co103 2.022 . S
N112 C109 1.351 . S
N112 N113 1.365 . S
N113 C110 1.341 . S
N113 N112 1.365 . S
N113 H133 0.862 . S
C114 C109 1.501 . S
C114 H115 0.961 . S
C114 H116 0.961 . S
C114 H117 0.960 . S
H115 C114 0.961 . S
H116 C114 0.961 . S
H117 C114 0.960 . S
C118 N119 1.342 . S
C118 C122 1.401 . S
C118 C123 1.499 . S
N119 Co102 1.989 . S
N119 C118 1.342 . S
N119 N120 1.388 . S
N120 Co103 1.993 . S
N120 N119 1.388 . S
N120 C121 1.346 . S
C121 N120 1.346 . S
C121 C122 1.396 . S
C121 C131 1.510 . S
C122 C118 1.401 . S
C122 C121 1.396 . S
C123 C118 1.499 . S
C123 H124 0.959 . S
C123 H125 0.960 . S
C123 H126 0.961 . S
H124 C123 0.959 . S
H125 C123 0.960 . S
H126 C123 0.961 . S
O127 Co102 1.967 . S
O127 C135 1.258 . S
O128 Co103 1.941 . S
O128 C135 1.266 . S
H129 C131 0.959 . S
H130 C131 0.961 . S
C131 C121 1.510 . S
C131 H129 0.959 . S
C131 H130 0.961 . S
C131 H132 0.960 . S
H132 C131 0.960 . S
H133 N113 0.862 . S
O134 Co102 1.920 . S
O134 C107 1.289 . S
C135 O127 1.258 . S
C135 O128 1.266 . S
Co136 O139 1.970 . S
Co136 N153 1.989 . S
Co136 O161 1.967 . S
Co136 O168 1.920 . S
Co137 O140 1.966 . S
Co137 N146 2.022 . S
Co137 N154 1.993 . S
Co137 O162 1.941 . S
C138 O139 1.258 . S
C138 O140 1.263 . S
O139 Co136 1.970 . S
O139 C138 1.258 . S
O140 Co137 1.966 . S
O140 C138 1.263 . S
C141 O142 1.235 . S
C141 O168 1.289 . S
O142 C141 1.235 . S
C143 C145 1.400 . S
C143 N146 1.351 . S
C143 C148 1.501 . S
C144 C145 1.387 . S
C144 N147 1.341 . S
C145 C143 1.400 . S
C145 C144 1.387 . S
N146 Co137 2.022 . S
N146 C143 1.351 . S
N146 N147 1.365 . S
N147 C144 1.341 . S
N147 N146 1.365 . S
N147 H167 0.862 . S
C148 C143 1.501 . S
C148 H149 0.961 . S
C148 H150 0.961 . S
C148 H151 0.960 . S
H149 C148 0.961 . S
H150 C148 0.961 . S
H151 C148 0.960 . S
C152 N153 1.342 . S
C152 C156 1.401 . S
C152 C157 1.499 . S
N153 Co136 1.989 . S
N153 C152 1.342 . S
N153 N154 1.388 . S
N154 Co137 1.993 . S
N154 N153 1.388 . S
N154 C155 1.346 . S
C155 N154 1.346 . S
C155 C156 1.396 . S
C155 C165 1.510 . S
C156 C152 1.401 . S
C156 C155 1.396 . S
C157 C152 1.499 . S
C157 H158 0.959 . S
C157 H159 0.960 . S
C157 H160 0.961 . S
H158 C157 0.959 . S
H159 C157 0.960 . S
H160 C157 0.961 . S
O161 Co136 1.967 . S
O161 C169 1.258 . S
O162 Co137 1.941 . S
O162 C169 1.266 . S
H163 C165 0.959 . S
H164 C165 0.961 . S
C165 C155 1.510 . S
C165 H163 0.959 . S
C165 H164 0.961 . S
C165 H166 0.960 . S
H166 C165 0.960 . S
H167 N147 0.862 . S
O168 Co136 1.920 . S
O168 C141 1.289 . S
C169 O161 1.258 . S
C169 O162 1.266 . S
Co170 O173 1.970 . S
Co170 N187 1.989 . S
Co170 O195 1.967 . S
Co170 O202 1.920 . S
Co171 O174 1.966 . S
Co171 N180 2.022 . S
Co171 N188 1.993 . S
Co171 O196 1.941 . S
C172 O173 1.258 . S
C172 O174 1.263 . S
O173 Co170 1.970 . S
O173 C172 1.258 . S
O174 Co171 1.966 . S
O174 C172 1.263 . S
C175 O176 1.235 . S
C175 O202 1.289 . S
O176 C175 1.235 . S
C177 C179 1.400 . S
C177 N180 1.351 . S
C177 C182 1.501 . S
C178 C179 1.387 . S
C178 N181 1.341 . S
C179 C177 1.400 . S
C179 C178 1.387 . S
N180 Co171 2.022 . S
N180 C177 1.351 . S
N180 N181 1.365 . S
N181 C178 1.341 . S
N181 N180 1.365 . S
N181 H201 0.862 . S
C182 C177 1.501 . S
C182 H183 0.961 . S
C182 H184 0.961 . S
C182 H185 0.960 . S
H183 C182 0.961 . S
H184 C182 0.961 . S
H185 C182 0.960 . S
C186 N187 1.342 1_565 S
C186 C190 1.401 . S
C186 C191 1.499 . S
N187 Co170 1.989 . S
N187 C186 1.342 1_545 S
N187 N188 1.388 . S
N188 Co171 1.993 . S
N188 N187 1.388 . S
N188 C189 1.346 1_545 S
C189 N188 1.346 1_565 S
C189 C190 1.396 . S
C189 C199 1.510 . S
C190 C186 1.401 . S
C190 C189 1.396 . S
C191 C186 1.499 . S
C191 H192 0.959 . S
C191 H193 0.960 . S
C191 H194 0.961 . S
H192 C191 0.959 . S
H193 C191 0.960 . S
H194 C191 0.961 . S
O195 Co170 1.967 . S
O195 C203 1.258 . S
O196 Co171 1.941 . S
O196 C203 1.266 . S
H197 C199 0.959 . S
H198 C199 0.961 . S
C199 C189 1.510 . S
C199 H197 0.959 . S
C199 H198 0.961 . S
C199 H200 0.960 . S
H200 C199 0.960 . S
H201 N181 0.862 . S
O202 Co170 1.920 . S
O202 C175 1.289 . S
C203 O195 1.258 . S
C203 O196 1.266 . S
Co204 O207 1.970 . S
Co204 N221 1.989 . S
Co204 O229 1.967 . S
Co204 O236 1.920 . S
Co205 O208 1.966 . S
Co205 N214 2.022 . S
Co205 N222 1.993 . S
Co205 O230 1.941 . S
C206 O207 1.258 . S
C206 O208 1.263 . S
O207 Co204 1.970 . S
O207 C206 1.258 . S
O208 Co205 1.966 . S
O208 C206 1.263 . S
C209 O210 1.235 . S
C209 O236 1.289 . S
O210 C209 1.235 . S
C211 C213 1.400 . S
C211 N214 1.351 . S
C211 C216 1.501 . S
C212 C213 1.387 . S
C212 N215 1.341 . S
C213 C211 1.400 . S
C213 C212 1.387 . S
N214 Co205 2.022 . S
N214 C211 1.351 . S
N214 N215 1.365 . S
N215 C212 1.341 . S
N215 N214 1.365 . S
N215 H235 0.862 . S
C216 C211 1.501 . S
C216 H217 0.961 . S
C216 H218 0.961 . S
C216 H219 0.960 . S
H217 C216 0.961 . S
H218 C216 0.961 . S
H219 C216 0.960 . S
C220 N221 1.342 . S
C220 C224 1.401 . S
C220 C225 1.499 . S
N221 Co204 1.989 . S
N221 C220 1.342 . S
N221 N222 1.388 . S
N222 Co205 1.993 . S
N222 N221 1.388 . S
N222 C223 1.346 . S
C223 N222 1.346 . S
C223 C224 1.396 . S
C223 C233 1.510 . S
C224 C220 1.401 . S
C224 C223 1.396 . S
C225 C220 1.499 . S
C225 H226 0.959 . S
C225 H227 0.960 . S
C225 H228 0.961 . S
H226 C225 0.959 . S
H227 C225 0.960 . S
H228 C225 0.961 . S
O229 Co204 1.967 . S
O229 C237 1.258 . S
O230 Co205 1.941 . S
O230 C237 1.266 . S
H231 C233 0.959 . S
H232 C233 0.961 . S
C233 C223 1.510 . S
C233 H231 0.959 . S
C233 H232 0.961 . S
C233 H234 0.960 . S
H234 C233 0.960 . S
H235 N215 0.862 . S
O236 Co204 1.920 . S
O236 C209 1.289 . S
C237 O229 1.258 . S
C237 O230 1.266 . S
Co238 O241 1.970 . S
Co238 N255 1.989 . S
Co238 O263 1.967 . S
Co238 O270 1.920 . S
Co239 O242 1.966 . S
Co239 N248 2.022 . S
Co239 N256 1.993 . S
Co239 O264 1.941 . S
C240 O241 1.258 . S
C240 O242 1.263 . S
O241 Co238 1.970 . S
O241 C240 1.258 . S
O242 Co239 1.966 . S
O242 C240 1.263 . S
C243 O244 1.235 . S
C243 O270 1.289 . S
O244 C243 1.235 . S
C245 C247 1.400 . S
C245 N248 1.351 . S
C245 C250 1.501 . S
C246 C247 1.387 . S
C246 N249 1.341 . S
C247 C245 1.400 . S
C247 C246 1.387 . S
N248 Co239 2.022 . S
N248 C245 1.351 . S
N248 N249 1.365 . S
N249 C246 1.341 . S
N249 N248 1.365 . S
N249 H269 0.862 . S
C250 C245 1.501 . S
C250 H251 0.961 . S
C250 H252 0.961 . S
C250 H253 0.960 . S
H251 C250 0.961 . S
H252 C250 0.961 . S
H253 C250 0.960 . S
C254 N255 1.342 1_545 S
C254 C258 1.401 . S
C254 C259 1.499 . S
N255 Co238 1.989 . S
N255 C254 1.342 1_565 S
N255 N256 1.388 . S
N256 Co239 1.993 . S
N256 N255 1.388 . S
N256 C257 1.346 1_565 S
C257 N256 1.346 1_545 S
C257 C258 1.396 . S
C257 C267 1.510 . S
C258 C254 1.401 . S
C258 C257 1.396 . S
C259 C254 1.499 . S
C259 H260 0.959 . S
C259 H261 0.960 . S
C259 H262 0.961 . S
H260 C259 0.959 . S
H261 C259 0.960 . S
H262 C259 0.961 . S
O263 Co238 1.967 . S
O263 C271 1.258 . S
O264 Co239 1.941 . S
O264 C271 1.266 . S
H265 C267 0.959 . S
H266 C267 0.961 . S
C267 C257 1.510 . S
C267 H265 0.959 . S
C267 H266 0.961 . S
C267 H268 0.960 . S
H268 C267 0.960 . S
H269 N249 0.862 . S
O270 Co238 1.920 . S
O270 C243 1.289 . S
C271 O263 1.258 . S
C271 O264 1.266 . S
H272 C278 0.930 . S
H273 C282 0.930 . S
H274 C287 0.929 . S
H275 C285 0.929 . S
H276 C280 0.929 . S
H277 C286 0.929 . S
C278 H272 0.930 . S
C278 C279 1.367 . S
C278 C286 1.378 . S
C279 C278 1.367 . S
C279 C287 1.433 . S
C280 H276 0.929 . S
C280 C282 1.378 . S
C280 C284 1.350 . S
C281 C284 1.463 1_655 S
C281 C286 1.350 . S
C281 N289 1.427 . S
C282 H273 0.930 . S
C282 C280 1.378 . S
C282 C283 1.367 . S
C283 C282 1.367 . S
C283 C285 1.433 . S
C284 C280 1.350 . S
C284 C281 1.463 1_455 S
C284 N288 1.427 . S
C285 H275 0.929 . S
C285 C283 1.433 . S
C285 N288 1.384 . S
C286 H277 0.929 . S
C286 C278 1.378 . S
C286 C281 1.350 . S
C287 H274 0.929 . S
C287 C279 1.433 . S
C287 N289 1.384 . S
N288 C284 1.427 . S
N288 C285 1.384 . S
N289 C281 1.427 . S
N289 C287 1.384 . S
H290 C296 0.930 . S
H291 C300 0.930 . S
H292 C305 0.929 . S
H293 C303 0.929 . S
H294 C298 0.929 . S
H295 C304 0.929 . S
C296 H290 0.930 . S
C296 C297 1.367 . S
C296 C304 1.378 . S
C297 C296 1.367 . S
C297 C305 1.433 . S
C298 H294 0.929 . S
C298 C300 1.378 . S
C298 C302 1.350 . S
C299 C302 1.463 1_655 S
C299 C304 1.350 . S
C299 N307 1.427 . S
C300 H291 0.930 . S
C300 C298 1.378 . S
C300 C301 1.367 . S
C301 C300 1.367 . S
C301 C303 1.433 . S
C302 C298 1.350 . S
C302 C299 1.463 1_455 S
C302 N306 1.427 . S
C303 H293 0.929 . S
C303 C301 1.433 . S
C303 N306 1.384 . S
C304 H295 0.929 . S
C304 C296 1.378 . S
C304 C299 1.350 . S
C305 H292 0.929 . S
C305 C297 1.433 . S
C305 N307 1.384 . S
N306 C302 1.427 . S
N306 C303 1.384 . S
N307 C299 1.427 . S
N307 C305 1.384 . S
H308 C314 0.930 . S
H309 C318 0.930 . S
H310 C323 0.929 . S
H311 C321 0.929 . S
H312 C316 0.929 . S
H313 C322 0.929 . S
C314 H308 0.930 . S
C314 C315 1.367 . S
C314 C322 1.378 . S
C315 C314 1.367 . S
C315 C323 1.433 . S
C316 H312 0.929 . S
C316 C318 1.378 . S
C316 C320 1.350 . S
C317 C320 1.463 1_565 S
C317 C322 1.350 . S
C317 N325 1.427 . S
C318 H309 0.930 . S
C318 C316 1.378 . S
C318 C319 1.367 . S
C319 C318 1.367 . S
C319 C321 1.433 . S
C320 C316 1.350 . S
C320 C317 1.463 1_545 S
C320 N324 1.427 . S
C321 H311 0.929 . S
C321 C319 1.433 . S
C321 N324 1.384 . S
C322 H313 0.929 . S
C322 C314 1.378 . S
C322 C317 1.350 . S
C323 H310 0.929 . S
C323 C315 1.433 . S
C323 N325 1.384 . S
N324 C320 1.427 . S
N324 C321 1.384 . S
N325 C317 1.427 . S
N325 C323 1.384 . S
H326 C332 0.930 1_545 S
H327 C336 0.930 1_565 S
H328 C341 0.929 . S
H329 C339 0.929 . S
H330 C334 0.929 . S
H331 C340 0.929 . S
C332 H326 0.930 1_565 S
C332 C333 1.367 . S
C332 C340 1.378 1_565 S
C333 C332 1.367 . S
C333 C341 1.433 . S
C334 H330 0.929 . S
C334 C336 1.378 1_565 S
C334 C338 1.350 1_565 S
C335 C338 1.463 1_565 S
C335 C340 1.350 1_565 S
C335 N343 1.427 . S
C336 H327 0.930 1_545 S
C336 C334 1.378 1_545 S
C336 C337 1.367 . S
C337 C336 1.367 . S
C337 C339 1.433 . S
C338 C334 1.350 1_545 S
C338 C335 1.463 1_545 S
C338 N342 1.427 . S
C339 H329 0.929 . S
C339 C337 1.433 . S
C339 N342 1.384 . S
C340 H331 0.929 . S
C340 C332 1.378 1_545 S
C340 C335 1.350 1_545 S
C341 H328 0.929 . S
C341 C333 1.433 . S
C341 N343 1.384 . S
N342 C338 1.427 . S
N342 C339 1.384 . S
N343 C335 1.427 . S
N343 C341 1.384 . S
H344 C350 0.930 . S
H345 C354 0.930 . S
H346 C359 0.929 . S
H347 C357 0.929 . S
H348 C352 0.929 . S
H349 C358 0.929 . S
C350 H344 0.930 . S
C350 C351 1.367 . S
C350 C358 1.378 . S
C351 C350 1.367 . S
C351 C359 1.433 . S
C352 H348 0.929 . S
C352 C354 1.378 . S
C352 C356 1.350 . S
C353 C356 1.463 . S
C353 C358 1.350 . S
C353 N361 1.427 . S
C354 H345 0.930 . S
C354 C352 1.378 . S
C354 C355 1.367 . S
C355 C354 1.367 . S
C355 C357 1.433 . S
C356 C352 1.350 . S
C356 C353 1.463 . S
C356 N360 1.427 . S
C357 H347 0.929 . S
C357 C355 1.433 . S
C357 N360 1.384 . S
C358 H349 0.929 . S
C358 C350 1.378 . S
C358 C353 1.350 . S
C359 H346 0.929 . S
C359 C351 1.433 . S
C359 N361 1.384 . S
N360 C356 1.427 . S
N360 C357 1.384 . S
N361 C353 1.427 . S
N361 C359 1.384 . S
H362 C368 0.930 . S
H363 C372 0.930 . S
H364 C377 0.929 . S
H365 C375 0.929 . S
H366 C370 0.929 . S
H367 C376 0.929 . S
C368 H362 0.930 . S
C368 C369 1.367 . S
C368 C376 1.378 . S
C369 C368 1.367 . S
C369 C377 1.433 . S
C370 H366 0.929 . S
C370 C372 1.378 . S
C370 C374 1.350 . S
C371 C374 1.463 . S
C371 C376 1.350 . S
C371 N379 1.427 . S
C372 H363 0.930 . S
C372 C370 1.378 . S
C372 C373 1.367 . S
C373 C372 1.367 . S
C373 C375 1.433 . S
C374 C370 1.350 . S
C374 C371 1.463 . S
C374 N378 1.427 . S
C375 H365 0.929 . S
C375 C373 1.433 . S
C375 N378 1.384 . S
C376 H367 0.929 . S
C376 C368 1.378 . S
C376 C371 1.350 . S
C377 H364 0.929 . S
C377 C369 1.433 . S
C377 N379 1.384 . S
N378 C374 1.427 . S
N378 C375 1.384 . S
N379 C371 1.427 . S
N379 C377 1.384 . S
H380 C386 0.930 . S
H381 C390 0.930 . S
H382 C395 0.929 . S
H383 C393 0.929 . S
H384 C388 0.929 . S
H385 C394 0.929 . S
C386 H380 0.930 . S
C386 C387 1.367 . S
C386 C394 1.378 . S
C387 C386 1.367 . S
C387 C395 1.433 . S
C388 H384 0.929 . S
C388 C390 1.378 . S
C388 C392 1.350 . S
C389 C392 1.463 . S
C389 C394 1.350 . S
C389 N397 1.427 . S
C390 H381 0.930 . S
C390 C388 1.378 . S
C390 C391 1.367 . S
C391 C390 1.367 . S
C391 C393 1.433 . S
C392 C388 1.350 . S
C392 C389 1.463 . S
C392 N396 1.427 . S
C393 H383 0.929 . S
C393 C391 1.433 . S
C393 N396 1.384 . S
C394 H385 0.929 . S
C394 C386 1.378 . S
C394 C389 1.350 . S
C395 H382 0.929 . S
C395 C387 1.433 . S
C395 N397 1.384 . S
N396 C392 1.427 . S
N396 C393 1.384 . S
N397 C389 1.427 . S
N397 C395 1.384 . S
H398 C404 0.930 . S
H399 C408 0.930 . S
H400 C413 0.929 . S
H401 C411 0.929 . S
H402 C406 0.929 . S
H403 C412 0.929 . S
C404 H398 0.930 . S
C404 C405 1.367 . S
C404 C412 1.378 . S
C405 C404 1.367 . S
C405 C413 1.433 . S
C406 H402 0.929 . S
C406 C408 1.378 . S
C406 C410 1.350 . S
C407 C410 1.463 . S
C407 C412 1.350 . S
C407 N415 1.427 . S
C408 H399 0.930 . S
C408 C406 1.378 . S
C408 C409 1.367 . S
C409 C408 1.367 . S
C409 C411 1.433 . S
C410 C406 1.350 . S
C410 C407 1.463 . S
C410 N414 1.427 . S
C411 H401 0.929 . S
C411 C409 1.433 . S
C411 N414 1.384 . S
C412 H403 0.929 . S
C412 C404 1.378 . S
C412 C407 1.350 . S
C413 H400 0.929 . S
C413 C405 1.433 . S
C413 N415 1.384 . S
N414 C410 1.427 . S
N414 C411 1.384 . S
N415 C407 1.427 . S
N415 C413 1.384 . S
H416 C422 0.930 . S
H417 C426 0.930 . S
H418 C431 0.929 . S
H419 C429 0.929 . S
H420 C424 0.929 . S
H421 C430 0.929 . S
C422 H416 0.930 . S
C422 C423 1.367 . S
C422 C430 1.378 . S
C423 C422 1.367 . S
C423 C431 1.433 . S
C424 H420 0.929 . S
C424 C426 1.378 . S
C424 C428 1.350 . S
C425 C428 1.463 . S
C425 C430 1.350 . S
C425 N433 1.427 . S
C426 H417 0.930 . S
C426 C424 1.378 . S
C426 C427 1.367 . S
C427 C426 1.367 . S
C427 C429 1.433 . S
C428 C424 1.350 . S
C428 C425 1.463 . S
C428 N432 1.427 . S
C429 H419 0.929 . S
C429 C427 1.433 . S
C429 N432 1.384 . S
C430 H421 0.929 . S
C430 C422 1.378 . S
C430 C425 1.350 . S
C431 H418 0.929 . S
C431 C423 1.433 . S
C431 N433 1.384 . S
N432 C428 1.427 . S
N432 C429 1.384 . S
N433 C425 1.427 . S
N433 C431 1.384 . S
H434 C440 0.930 . S
H435 C444 0.930 . S
H436 C449 0.929 . S
H437 C447 0.929 . S
H438 C442 0.929 . S
H439 C448 0.929 . S
C440 H434 0.930 . S
C440 C441 1.367 . S
C440 C448 1.378 . S
C441 C440 1.367 . S
C441 C449 1.433 . S
C442 H438 0.929 . S
C442 C444 1.378 . S
C442 C446 1.350 . S
C443 C446 1.463 . S
C443 C448 1.350 . S
C443 N451 1.427 . S
C444 H435 0.930 . S
C444 C442 1.378 . S
C444 C445 1.367 . S
C445 C444 1.367 . S
C445 C447 1.433 . S
C446 C442 1.350 . S
C446 C443 1.463 . S
C446 N450 1.427 . S
C447 H437 0.929 . S
C447 C445 1.433 . S
C447 N450 1.384 . S
C448 H439 0.929 . S
C448 C440 1.378 . S
C448 C443 1.350 . S
C449 H436 0.929 . S
C449 C441 1.433 . S
C449 N451 1.384 . S
N450 C446 1.427 . S
N450 C447 1.384 . S
N451 C443 1.427 . S
N451 C449 1.384 . S
H452 C458 0.930 . S
H453 C462 0.930 . S
H454 C467 0.929 . S
H455 C465 0.929 . S
H456 C460 0.929 . S
H457 C466 0.929 . S
C458 H452 0.930 . S
C458 C459 1.367 . S
C458 C466 1.378 . S
C459 C458 1.367 . S
C459 C467 1.433 . S
C460 H456 0.929 . S
C460 C462 1.378 . S
C460 C464 1.350 . S
C461 C464 1.463 . S
C461 C466 1.350 . S
C461 N469 1.427 . S
C462 H453 0.930 . S
C462 C460 1.378 . S
C462 C463 1.367 . S
C463 C462 1.367 . S
C463 C465 1.433 . S
C464 C460 1.350 . S
C464 C461 1.463 . S
C464 N468 1.427 . S
C465 H455 0.929 . S
C465 C463 1.433 . S
C465 N468 1.384 . S
C466 H457 0.929 . S
C466 C458 1.378 . S
C466 C461 1.350 . S
C467 H454 0.929 . S
C467 C459 1.433 . S
C467 N469 1.384 . S
N468 C464 1.427 . S
N468 C465 1.384 . S
N469 C461 1.427 . S
N469 C467 1.384 . S
H470 C476 0.930 . S
H471 C480 0.930 . S
H472 C485 0.929 . S
H473 C483 0.929 . S
H474 C478 0.929 . S
H475 C484 0.929 . S
C476 H470 0.930 . S
C476 C477 1.367 . S
C476 C484 1.378 . S
C477 C476 1.367 . S
C477 C485 1.433 . S
C478 H474 0.929 . S
C478 C480 1.378 . S
C478 C482 1.350 . S
C479 C482 1.463 . S
C479 C484 1.350 . S
C479 N487 1.427 . S
C480 H471 0.930 . S
C480 C478 1.378 . S
C480 C481 1.367 . S
C481 C480 1.367 . S
C481 C483 1.433 . S
C482 C478 1.350 . S
C482 C479 1.463 . S
C482 N486 1.427 . S
C483 H473 0.929 . S
C483 C481 1.433 . S
C483 N486 1.384 . S
C484 H475 0.929 . S
C484 C476 1.378 . S
C484 C479 1.350 . S
C485 H472 0.929 . S
C485 C477 1.433 . S
C485 N487 1.384 . S
N486 C482 1.427 . S
N486 C483 1.384 . S
N487 C479 1.427 . S
N487 C485 1.384 . S
H488 C494 0.930 . S
H489 C498 0.930 . S
H490 C503 0.929 . S
H491 C501 0.929 . S
H492 C496 0.929 . S
H493 C502 0.929 . S
C494 H488 0.930 . S
C494 C495 1.367 . S
C494 C502 1.378 . S
C495 C494 1.367 . S
C495 C503 1.433 . S
C496 H492 0.929 . S
C496 C498 1.378 . S
C496 C500 1.350 . S
C497 C500 1.463 . S
C497 C502 1.350 . S
C497 N505 1.427 . S
C498 H489 0.930 . S
C498 C496 1.378 . S
C498 C499 1.367 . S
C499 C498 1.367 . S
C499 C501 1.433 . S
C500 C496 1.350 . S
C500 C497 1.463 . S
C500 N504 1.427 . S
C501 H491 0.929 . S
C501 C499 1.433 . S
C501 N504 1.384 . S
C502 H493 0.929 . S
C502 C494 1.378 . S
C502 C497 1.350 . S
C503 H490 0.929 . S
C503 C495 1.433 . S
C503 N505 1.384 . S
N504 C500 1.427 . S
N504 C501 1.384 . S
N505 C497 1.427 . S
N505 C503 1.384 . S
H506 C512 0.930 . S
H507 C516 0.930 . S
H508 C521 0.929 . S
H509 C519 0.929 . S
H510 C514 0.929 1_554 S
H511 C520 0.929 1_556 S
C512 H506 0.930 . S
C512 C513 1.367 . S
C512 C520 1.378 . S
C513 C512 1.367 . S
C513 C521 1.433 . S
C514 H510 0.929 1_556 S
C514 C516 1.378 . S
C514 C518 1.350 . S
C515 C518 1.463 1_554 S
C515 C520 1.350 . S
C515 N523 1.427 . S
C516 H507 0.930 . S
C516 C514 1.378 . S
C516 C517 1.367 . S
C517 C516 1.367 . S
C517 C519 1.433 . S
C518 C514 1.350 . S
C518 C515 1.463 1_556 S
C518 N522 1.427 . S
C519 H509 0.929 . S
C519 C517 1.433 . S
C519 N522 1.384 . S
C520 H511 0.929 1_554 S
C520 C512 1.378 . S
C520 C515 1.350 . S
C521 H508 0.929 . S
C521 C513 1.433 . S
C521 N523 1.384 . S
N522 C518 1.427 . S
N522 C519 1.384 . S
N523 C515 1.427 . S
N523 C521 1.384 . S
H524 C530 0.930 . S
H525 C534 0.930 . S
H526 C539 0.929 . S
H527 C537 0.929 . S
H528 C532 0.929 . S
H529 C538 0.929 . S
C530 H524 0.930 . S
C530 C531 1.367 . S
C530 C538 1.378 . S
C531 C530 1.367 . S
C531 C539 1.433 . S
C532 H528 0.929 . S
C532 C534 1.378 . S
C532 C536 1.350 . S
C533 C536 1.463 . S
C533 C538 1.350 . S
C533 N541 1.427 . S
C534 H525 0.930 . S
C534 C532 1.378 . S
C534 C535 1.367 . S
C535 C534 1.367 . S
C535 C537 1.433 . S
C536 C532 1.350 . S
C536 C533 1.463 . S
C536 N540 1.427 . S
C537 H527 0.929 . S
C537 C535 1.433 . S
C537 N540 1.384 . S
C538 H529 0.929 . S
C538 C530 1.378 . S
C538 C533 1.350 . S
C539 H526 0.929 . S
C539 C531 1.433 . S
C539 N541 1.384 . S
N540 C536 1.427 . S
N540 C537 1.384 . S
N541 C533 1.427 . S
N541 C539 1.384 . S
H542 C548 0.930 . S
H543 C552 0.930 . S
H544 C557 0.929 . S
H545 C555 0.929 . S
H546 C550 0.929 . S
H547 C556 0.929 . S
C548 H542 0.930 . S
C548 C549 1.367 . S
C548 C556 1.378 . S
C549 C548 1.367 . S
C549 C557 1.433 . S
C550 H546 0.929 . S
C550 C552 1.378 . S
C550 C554 1.350 . S
C551 C554 1.463 1_554 S
C551 C556 1.350 . S
C551 N559 1.427 . S
C552 H543 0.930 . S
C552 C550 1.378 . S
C552 C553 1.367 . S
C553 C552 1.367 . S
C553 C555 1.433 . S
C554 C550 1.350 . S
C554 C551 1.463 1_556 S
C554 N558 1.427 . S
C555 H545 0.929 . S
C555 C553 1.433 . S
C555 N558 1.384 . S
C556 H547 0.929 . S
C556 C548 1.378 . S
C556 C551 1.350 . S
C557 H544 0.929 . S
C557 C549 1.433 . S
C557 N559 1.384 . S
N558 C554 1.427 . S
N558 C555 1.384 . S
N559 C551 1.427 . S
N559 C557 1.384 . S
H560 C566 0.930 . S
H561 C570 0.930 . S
H562 C575 0.929 . S
H563 C573 0.929 . S
H564 C568 0.929 . S
H565 C574 0.929 . S
C566 H560 0.930 . S
C566 C567 1.367 . S
C566 C574 1.378 . S
C567 C566 1.367 . S
C567 C575 1.433 . S
C568 H564 0.929 . S
C568 C570 1.378 . S
C568 C572 1.350 . S
C569 C572 1.463 1_665 S
C569 C574 1.350 . S
C569 N577 1.427 1_655 S
C570 H561 0.930 . S
C570 C568 1.378 . S
C570 C571 1.367 . S
C571 C570 1.367 . S
C571 C573 1.433 . S
C572 C568 1.350 . S
C572 C569 1.463 1_445 S
C572 N576 1.427 1_455 S
C573 H563 0.929 . S
C573 C571 1.433 . S
C573 N576 1.384 1_455 S
C574 H565 0.929 . S
C574 C566 1.378 . S
C574 C569 1.350 . S
C575 H562 0.929 . S
C575 C567 1.433 . S
C575 N577 1.384 1_655 S
N576 C572 1.427 1_655 S
N576 C573 1.384 1_655 S
N577 C569 1.427 1_455 S
N577 C575 1.384 1_455 S
H578 C584 0.930 . S
H579 C588 0.930 . S
H580 C593 0.929 . S
H581 C591 0.929 . S
H582 C586 0.929 . S
H583 C592 0.929 . S
C584 H578 0.930 . S
C584 C585 1.367 . S
C584 C592 1.378 . S
C585 C584 1.367 . S
C585 C593 1.433 . S
C586 H582 0.929 . S
C586 C588 1.378 . S
C586 C590 1.350 . S
C587 C590 1.463 . S
C587 C592 1.350 . S
C587 N595 1.427 . S
C588 H579 0.930 . S
C588 C586 1.378 . S
C588 C589 1.367 . S
C589 C588 1.367 . S
C589 C591 1.433 . S
C590 C586 1.350 . S
C590 C587 1.463 . S
C590 N594 1.427 . S
C591 H581 0.929 . S
C591 C589 1.433 . S
C591 N594 1.384 . S
C592 H583 0.929 . S
C592 C584 1.378 . S
C592 C587 1.350 . S
C593 H580 0.929 . S
C593 C585 1.433 . S
C593 N595 1.384 . S
N594 C590 1.427 . S
N594 C591 1.384 . S
N595 C587 1.427 . S
N595 C593 1.384 . S
H596 C602 0.930 . S
H597 C606 0.930 . S
H598 C611 0.929 . S
H599 C609 0.929 . S
H600 C604 0.929 . S
H601 C610 0.929 . S
C602 H596 0.930 . S
C602 C603 1.367 . S
C602 C610 1.378 . S
C603 C602 1.367 . S
C603 C611 1.433 . S
C604 H600 0.929 . S
C604 C606 1.378 . S
C604 C608 1.350 . S
C605 C608 1.463 . S
C605 C610 1.350 . S
C605 N613 1.427 . S
C606 H597 0.930 . S
C606 C604 1.378 . S
C606 C607 1.367 . S
C607 C606 1.367 . S
C607 C609 1.433 . S
C608 C604 1.350 . S
C608 C605 1.463 . S
C608 N612 1.427 . S
C609 H599 0.929 . S
C609 C607 1.433 . S
C609 N612 1.384 . S
C610 H601 0.929 . S
C610 C602 1.378 . S
C610 C605 1.350 . S
C611 H598 0.929 . S
C611 C603 1.433 . S
C611 N613 1.384 . S
N612 C608 1.427 . S
N612 C609 1.384 . S
N613 C605 1.427 . S
N613 C611 1.384 . S
H614 C620 0.930 . S
H615 C624 0.930 . S
H616 C629 0.929 . S
H617 C627 0.929 . S
H618 C622 0.929 . S
H619 C628 0.929 . S
C620 H614 0.930 . S
C620 C621 1.367 . S
C620 C628 1.378 . S
C621 C620 1.367 . S
C621 C629 1.433 . S
C622 H618 0.929 . S
C622 C624 1.378 . S
C622 C626 1.350 . S
C623 C626 1.463 1_445 S
C623 C628 1.350 . S
C623 N631 1.427 . S
C624 H615 0.930 . S
C624 C622 1.378 . S
C624 C625 1.367 . S
C625 C624 1.367 . S
C625 C627 1.433 . S
C626 C622 1.350 . S
C626 C623 1.463 1_665 S
C626 N630 1.427 . S
C627 H617 0.929 . S
C627 C625 1.433 . S
C627 N630 1.384 . S
C628 H619 0.929 . S
C628 C620 1.378 . S
C628 C623 1.350 . S
C629 H616 0.929 . S
C629 C621 1.433 . S
C629 N631 1.384 . S
N630 C626 1.427 . S
N630 C627 1.384 . S
N631 C623 1.427 . S
N631 C629 1.384 . S
C279 C77 0.441 . S
C283 C9 0.496 . S
C297 C111 0.492 . S
C301 C43 0.442 . S
C315 C213 0.441 . S
C319 C145 0.495 . S
C333 C247 0.453 . S
C337 C179 0.489 . S
C351 C156 2.415 . S
C355 C33 2.412 . S
C369 C190 2.419 . S
C373 C67 2.416 . S
C387 C224 2.420 . S
C391 C101 2.415 . S
C405 C135 2.411 . S
C409 C258 2.415 . S
C423 C20 2.416 . S
C427 C169 2.414 . S
C441 C54 2.416 . S
C445 C203 2.414 . S
C459 C88 2.416 . S
C463 C237 2.410 . S
C477 C271 2.414 . S
C481 C122 2.417 . S
C495 C2 1.729 . S
C499 C172 1.735 . S
C513 C206 1.738 . S
C517 C36 1.735 . S
C531 C240 1.727 . S
C535 C70 1.729 . S
C549 C138 1.727 . S
C553 C104 1.729 . S
C567 C73 0.460 . S
C571 C5 0.441 . S
C585 C39 0.422 . S
C589 C107 0.411 . S
C603 C209 0.424 . S
C607 C141 0.448 . S
C621 C175 0.423 . S
C625 C243 0.448 . S
