# Generated by pormake.
# Topology unb, (4)-cn, num edge types: 1
# Building blocks:
#     Node 0, Type 0, BuildingBlock: UXUYUI_clean_sbu_0, # of connection points: 4
#     Node 1, Type 0, BuildingBlock: UXUYUI_clean_sbu_0, # of connection points: 4
#     Node 2, Type 0, BuildingBlock: UXUYUI_clean_sbu_0, # of connection points: 4
#     Node 3, Type 0, BuildingBlock: UXUYUI_clean_sbu_0, # of connection points: 4
#     Node 4, Type 0, BuildingBlock: UXUYUI_clean_sbu_0, # of connection points: 4
#     Node 5, Type 0, BuildingBlock: UXUYUI_clean_sbu_0, # of connection points: 4
#     Node 6, Type 0, BuildingBlock: UXUYUI_clean_sbu_0, # of connection points: 4
#     Node 7, Type 0, BuildingBlock: UXUYUI_clean_sbu_0, # of connection points: 4
#     Node 8, Type 0, BuildingBlock: UXUYUI_clean_sbu_0, # of connection points: 4
#     Node 9, Type 0, BuildingBlock: UXUYUI_clean_sbu_0, # of connection points: 4
#     Node 10, Type 0, BuildingBlock: UXUYUI_clean_sbu_0, # of connection points: 4
#     Node 11, Type 0, BuildingBlock: UXUYUI_clean_sbu_0, # of connection points: 4
#     Node 12, Type 0, BuildingBlock: UXUYUI_clean_sbu_0, # of connection points: 4
#     Node 13, Type 0, BuildingBlock: UXUYUI_clean_sbu_0, # of connection points: 4
#     Node 14, Type 0, BuildingBlock: UXUYUI_clean_sbu_0, # of connection points: 4
#     Node 15, Type 0, BuildingBlock: UXUYUI_clean_sbu_0, # of connection points: 4
#     Node 16, Type 0, BuildingBlock: UXUYUI_clean_sbu_0, # of connection points: 4
#     Node 17, Type 0, BuildingBlock: UXUYUI_clean_sbu_0, # of connection points: 4
#     Edge 18, Type (0, 0), None
#     Edge 19, Type (0, 0), None
#     Edge 20, Type (0, 0), None
#     Edge 21, Type (0, 0), None
#     Edge 22, Type (0, 0), None
#     Edge 23, Type (0, 0), None
#     Edge 24, Type (0, 0), None
#     Edge 25, Type (0, 0), None
#     Edge 26, Type (0, 0), None
#     Edge 27, Type (0, 0), None
#     Edge 28, Type (0, 0), None
#     Edge 29, Type (0, 0), None
#     Edge 30, Type (0, 0), None
#     Edge 31, Type (0, 0), None
#     Edge 32, Type (0, 0), None
#     Edge 33, Type (0, 0), None
#     Edge 34, Type (0, 0), None
#     Edge 35, Type (0, 0), None
#     Edge 36, Type (0, 0), None
#     Edge 37, Type (0, 0), None
#     Edge 38, Type (0, 0), None
#     Edge 39, Type (0, 0), None
#     Edge 40, Type (0, 0), None
#     Edge 41, Type (0, 0), None
#     Edge 42, Type (0, 0), None
#     Edge 43, Type (0, 0), None
#     Edge 44, Type (0, 0), None
#     Edge 45, Type (0, 0), None
#     Edge 46, Type (0, 0), None
#     Edge 47, Type (0, 0), None
#     Edge 48, Type (0, 0), None
#     Edge 49, Type (0, 0), None
#     Edge 50, Type (0, 0), None
#     Edge 51, Type (0, 0), None
#     Edge 52, Type (0, 0), None
#     Edge 53, Type (0, 0), None
# Relax obj value: 0.067
# Max RMSD: 0.057
# Mean RMSD: 0.057
data_MOF--net-unb--node1-UXUYUI_clean_sbu_0--edge1-none
_symmetry_space_group_name_H-M    P1
_symmetry_Int_Tables_number       1
_symmetry_cell_setting            triclinic
loop_
_symmetry_equiv_pos_as_xyz
'x, y, z'
_cell_length_a     61.643962
_cell_length_b     61.641066
_cell_length_c     21.869475
_cell_angle_alpha  89.989618
_cell_angle_beta   90.012242
_cell_angle_gamma 119.97671
loop_
_atom_site_label
_atom_site_type_symbol
_atom_site_fract_x
_atom_site_fract_y
_atom_site_fract_z
_atom_type_partial_charge
Li0 Li 0.15488 0.27959 0.14819 0.0
Li1 Li 0.15982 0.25006 0.08299 0.0
Li2 Li 0.15772 0.28371 0.03544 0.0
Li3 Li 0.11877 0.24678 0.07794 0.0
C4 C 0.20318 0.30976 0.10337 0.0
N5 N 0.24277 0.35739 0.12493 0.0
C6 C 0.22708 0.31342 0.11499 0.0
C7 C 0.19945 0.33032 0.10267 0.0
C8 C 0.24686 0.33765 0.12579 0.0
C9 C 0.21968 0.35425 0.11366 0.0
C10 C 0.13875 0.22503 0.18572 0.0
C11 C 0.12424 0.18327 0.22357 0.0
N12 N 0.1466 0.19149 0.25223 0.0
C13 C 0.16151 0.23313 0.21587 0.0
C14 C 0.11988 0.19996 0.18974 0.0
C15 C 0.16515 0.21585 0.24911 0.0
C16 C 0.149 0.30786 0.24663 0.0
N17 N 0.16412 0.29981 0.22269 0.0
C18 C 0.19693 0.32622 0.29213 0.0
C19 C 0.18739 0.30804 0.24607 0.0
C20 C 0.18213 0.3356 0.31708 0.0
C21 C 0.15753 0.32557 0.29419 0.0
H22 H 0.13047 0.30101 0.22782 0.0
H23 H 0.19906 0.3012 0.22738 0.0
C24 C 0.19991 0.24527 0.04231 0.0
N25 N 0.17727 0.23158 0.07001 0.0
C26 C 0.21264 0.23367 0.01898 0.0
C27 C 0.17892 0.19395 0.05428 0.0
C28 C 0.1668 0.20636 0.07708 0.0
C29 C 0.20199 0.20759 0.02377 0.0
H30 H 0.20747 0.26511 0.03516 0.0
H31 H 0.1484 0.1956 0.097 0.0
C32 C 0.12281 0.29903 0.07376 0.0
N33 N 0.10371 0.32947 0.04023 0.0
C34 C 0.10302 0.29051 0.03205 0.0
C35 C 0.1326 0.32295 0.09911 0.0
C36 C 0.09371 0.3062 0.01546 0.0
C37 C 0.12277 0.33808 0.08138 0.0
C38 C 0.14634 0.23578 0.96819 0.0
C39 C 0.16531 0.24877 0.92523 0.0
C40 C 0.13422 0.2096 0.96993 0.0
C41 C 0.17185 0.2354 0.8849 0.0
C42 C 0.14129 0.19692 0.9288 0.0
N43 N 0.15982 0.20997 0.88752 0.0
C44 C 0.19359 0.32033 0.95536 0.0
C45 C 0.15104 0.30527 0.93011 0.0
C46 C 0.2014 0.33587 0.9043 0.0
N47 N 0.16878 0.30596 0.96818 0.0
C48 C 0.15797 0.32052 0.87855 0.0
C49 C 0.18345 0.33621 0.86548 0.0
H50 H 0.20739 0.3193 0.98356 0.0
H51 H 0.13151 0.29244 0.93893 0.0
C52 C 0.06649 0.23104 0.09246 0.0
N53 N 0.08329 0.22716 0.06112 0.0
C54 C 0.04149 0.21972 0.07311 0.0
C55 C 0.05124 0.19981 0.99119 0.0
C56 C 0.07608 0.21192 0.01129 0.0
C57 C 0.03345 0.20385 0.02141 0.0
H58 H 0.07275 0.24385 0.13079 0.0
H59 H 0.08975 0.20973 0.98559 0.0
O60 O 0.18355 0.28608 0.09384 0.0
O61 O 0.13488 0.24162 0.15284 0.0
O62 O 0.13187 0.28369 0.09137 0.0
O63 O 0.14005 0.24862 1.009 0.0
H64 H 0.23028 0.29769 0.1162 0.0
H65 H 0.18118 0.32782 0.09307 0.0
H66 H 0.26544 0.34075 0.135 0.0
H67 H 0.21702 0.37032 0.11313 0.0
H68 H 0.10987 0.16378 0.22694 0.0
H69 H 0.17626 0.25251 0.2131 0.0
H70 H 0.10214 0.19347 0.16668 0.0
H71 H 0.18272 0.2218 0.27238 0.0
H72 H 0.21608 0.33321 0.30639 0.0
H73 H 0.14486 0.33131 0.31233 0.0
H74 H 0.23018 0.24493 0.99515 0.0
H75 H 0.1701 0.17383 0.05952 0.0
H76 H 0.09519 0.27212 0.01173 0.0
H77 H 0.14752 0.32981 0.13243 0.0
H78 H 0.07856 0.29987 0.98281 0.0
H79 H 0.13024 0.35665 0.10053 0.0
H80 H 0.17509 0.26897 0.92329 0.0
H81 H 0.12001 0.19918 1.00393 0.0
H82 H 0.18657 0.24526 0.85166 0.0
H83 H 0.13224 0.1767 0.93015 0.0
H84 H 0.22123 0.34708 0.89457 0.0
H85 H 0.14355 0.32008 0.84937 0.0
H86 H 0.02889 0.2241 0.0975 0.0
H87 H 0.04622 0.18756 0.95189 0.0
Li88 Li 0.78417 0.91704 0.08144 0.0
Li89 Li 0.7538 0.88189 0.14627 0.0
Li90 Li 0.78691 0.8783 0.07782 0.0
Li91 Li 0.75021 0.88038 0.03391 0.0
C92 C 0.8069 0.91886 0.19126 0.0
N93 N 0.837 0.95662 0.27143 0.0
C94 C 0.7972 0.93165 0.22363 0.0
C95 C 0.83184 0.92516 0.1997 0.0
C96 C 0.81275 0.95073 0.26392 0.0
C97 C 0.84677 0.94433 0.24048 0.0
C98 C 0.72664 0.905 0.0981 0.0
C99 C 0.68163 0.88434 0.10544 0.0
N100 N 0.68318 0.90693 0.11406 0.0
C101 C 0.7278 0.92801 0.10692 0.0
C102 C 0.70339 0.88299 0.09724 0.0
C103 C 0.70561 0.92859 0.11494 0.0
C104 C 0.79153 0.96015 0.02336 0.0
N105 N 0.80262 0.95279 0.06605 0.0
C106 C 0.83831 0.99419 0.06869 0.0
C107 C 0.82565 0.96926 0.08887 0.0
C108 C 0.82751 1.00196 0.02335 0.0
C109 C 0.80381 0.98462 1.0007 0.0
H110 H 0.77337 0.94665 1.00528 0.0
H111 H 0.83454 0.96305 0.12142 0.0
C112 C 0.72549 0.84785 0.2444 0.0
N113 N 0.73283 0.87075 0.21962 0.0
C114 C 0.70769 0.83837 0.29173 0.0
C115 C 0.70522 0.87613 0.2873 0.0
C116 C 0.72349 0.8851 0.2414 0.0
C117 C 0.69678 0.85231 0.31349 0.0
H118 H 0.73306 0.83664 0.22653 0.0
H119 H 0.72962 0.90336 0.22191 0.0
C120 C 0.80242 0.91585 0.97141 0.0
N121 N 0.837 0.95324 0.8966 0.0
C122 C 0.79448 0.92297 0.91915 0.0
C123 C 0.82793 0.92754 0.98537 0.0
C124 C 0.81227 0.94196 0.88195 0.0
C125 C 0.84513 0.94646 0.94704 0.0
C126 C 0.73314 0.83044 0.07531 0.0
C127 C 0.74077 0.81621 0.04134 0.0
C128 C 0.70834 0.81948 0.09533 0.0
C129 C 0.72329 0.79144 0.02662 0.0
C130 C 0.69142 0.79465 0.07974 0.0
N131 N 0.69917 0.78127 0.04591 0.0
C132 C 0.81366 0.85112 0.10055 0.0
C133 C 0.8125 0.86339 0.99863 0.0
C134 C 0.82662 0.83894 0.08169 0.0
N135 N 0.80688 0.86305 0.05895 0.0
C136 C 0.82558 0.85173 0.97796 0.0
C137 C 0.83277 0.83908 0.01942 0.0
H138 H 0.80859 0.85064 0.14809 0.0
H139 H 0.80645 0.8724 0.96596 0.0
C140 C 0.71662 0.88207 0.94945 0.0
N141 N 0.72869 0.8696 0.96599 0.0
C142 C 0.70125 0.87461 0.89804 0.0
C143 C 0.71227 0.8426 0.87957 0.0
C144 C 0.72729 0.85061 0.93157 0.0
C145 C 0.69888 0.85455 0.86273 0.0
H146 H 0.71923 0.89809 0.97536 0.0
H147 H 0.73818 0.84197 0.94387 0.0
O148 O 0.79203 0.90021 0.15154 0.0
O149 O 0.74823 0.90416 0.09045 0.0
O150 O 0.78527 0.8978 1.00933 0.0
O151 O 0.75011 0.85465 0.09062 0.0
H152 H 0.77794 0.92702 0.21729 0.0
H153 H 0.83956 0.91538 0.17484 0.0
H154 H 0.80555 0.96088 0.28916 0.0
H155 H 0.86613 0.94947 0.24744 0.0
H156 H 0.66351 0.86745 0.10479 0.0
H157 H 0.74568 0.94522 0.10779 0.0
H158 H 0.70218 0.86512 0.08966 0.0
H159 H 0.70623 0.94627 0.12189 0.0
H160 H 0.85664 1.00711 0.08712 0.0
H161 H 0.79481 0.98999 0.96609 0.0
H162 H 0.7026 0.82024 0.31072 0.0
H163 H 0.69746 0.88774 0.30064 0.0
H164 H 0.77477 0.91409 0.90785 0.0
H165 H 0.83431 0.92226 0.02587 0.0
H166 H 0.80642 0.9478 0.84155 0.0
H167 H 0.86492 0.95582 0.95751 0.0
H168 H 0.75992 0.82426 0.02594 0.0
H169 H 0.70221 0.82989 0.12314 0.0
H170 H 0.7289 0.7803 0.9999 0.0
H171 H 0.67215 0.78597 0.09478 0.0
H172 H 0.83126 0.82908 0.11547 0.0
H173 H 0.83004 0.85275 0.92981 0.0
H174 H 0.69171 0.88468 0.8854 0.0
H175 H 0.71101 0.82716 0.85311 0.0
Li176 Li 0.1561 0.87864 0.15068 0.0
Li177 Li 0.12093 0.87355 0.0789 0.0
Li178 Li 0.15869 0.87757 0.04161 0.0
Li179 Li 0.16079 0.91466 0.07961 0.0
C180 C 0.13333 0.83025 0.06886 0.0
N181 N 0.13281 0.78988 0.01228 0.0
C182 C 0.11455 0.81577 0.02673 0.0
C183 C 0.15176 0.82408 0.0825 0.0
C184 C 0.11465 0.79548 0.9985 0.0
C185 C 0.15118 0.80362 0.0534 0.0
C186 C 0.11957 0.89247 0.19612 0.0
C187 C 0.09345 0.90311 0.25631 0.0
N188 N 0.08483 0.88135 0.28801 0.0
C189 C 0.11046 0.8702 0.22922 0.0
C190 C 0.11105 0.9091 0.20973 0.0
C191 C 0.09291 0.86493 0.27557 0.0
C192 C 0.1842 0.88522 0.26325 0.0
N193 N 0.16589 0.86851 0.22558 0.0
C194 C 0.16458 0.83433 0.28123 0.0
C195 C 0.15563 0.84347 0.23496 0.0
C196 C 0.18393 0.85097 0.32047 0.0
C197 C 0.19332 0.87686 0.31138 0.0
H198 H 0.19225 0.90508 0.25496 0.0
H199 H 0.14094 0.83043 0.20507 0.0
C200 C 0.08033 0.85149 0.99902 0.0
N201 N 0.08533 0.85692 0.05958 0.0
C202 C 0.05582 0.84004 0.97697 0.0
C203 C 0.04139 0.83849 0.08031 0.0
C204 C 0.06638 0.85065 0.10031 0.0
C205 C 0.03599 0.83328 0.01779 0.0
H206 H 0.09547 0.85587 0.96749 0.0
H207 H 0.0705 0.85488 0.1482 0.0
C208 C 0.2074 0.90739 0.07973 0.0
N209 N 0.25449 0.91787 0.04243 0.0
C210 C 0.21781 0.92095 0.02603 0.0
C211 C 0.22101 0.89931 0.1147 0.0
C212 C 0.24161 0.92599 1.00784 0.0
C213 C 0.24478 0.90477 0.09503 0.0
C214 C 0.12901 0.90586 0.98455 0.0
C215 C 0.12827 0.90833 0.92112 0.0
C216 C 0.1174 0.91531 0.02247 0.0
C217 C 0.11586 0.92011 0.89674 0.0
C218 C 0.10517 0.92695 0.99632 0.0
N219 N 0.10465 0.92909 0.93453 0.0
C220 C 0.15838 0.8628 0.92265 0.0
C221 C 0.18963 0.86106 0.98221 0.0
C222 C 0.16543 0.85455 0.87124 0.0
N223 N 0.17066 0.86616 0.97646 0.0
C224 C 0.19736 0.85282 0.9319 0.0
C225 C 0.18525 0.8496 0.87553 0.0
H226 H 0.14296 0.86637 0.91981 0.0
H227 H 0.19848 0.86293 0.02594 0.0
C228 C 0.18189 0.96855 0.10264 0.0
N229 N 0.17671 0.95009 0.06138 0.0
C230 C 0.1934 0.99366 0.08353 0.0
C231 C 0.19356 0.98017 0.98009 0.0
C232 C 0.18265 0.9556 1.00129 0.0
C233 C 0.19931 0.99983 0.02115 0.0
H234 H 0.17723 0.96384 0.15032 0.0
H235 H 0.17875 0.94077 0.9692 0.0
O236 O 0.1338 0.85048 0.09614 0.0
O237 O 0.13683 0.89808 0.15076 0.0
O238 O 0.18417 0.90231 0.09853 0.0
O239 O 0.14113 0.89428 1.00888 0.0
H240 H 0.10007 0.82013 0.0158 0.0
H241 H 0.16673 0.83533 0.11407 0.0
H242 H 0.10027 0.78419 0.96561 0.0
H243 H 0.16545 0.79879 0.06314 0.0
H244 H 0.08665 0.91579 0.2673 0.0
H245 H 0.11657 0.85697 0.21869 0.0
H246 H 0.11799 0.92645 0.18455 0.0
H247 H 0.08563 0.84773 0.30145 0.0
H248 H 0.15671 0.81428 0.28446 0.0
H249 H 0.20771 0.8907 0.34069 0.0
H250 H 0.05234 0.83597 0.92861 0.0
H251 H 0.02646 0.83343 0.11314 0.0
H252 H 0.20749 0.92716 0.99818 0.0
H253 H 0.21324 0.88875 0.15631 0.0
H254 H 0.24981 0.9363 0.96614 0.0
H255 H 0.25548 0.89855 0.1215 0.0
H256 H 0.13727 0.9013 0.89098 0.0
H257 H 0.11772 0.91368 0.07151 0.0
H258 H 0.11515 0.92213 0.84776 0.0
H259 H 0.09608 0.93429 0.02519 0.0
H260 H 0.15566 0.85232 0.82849 0.0
H261 H 0.21235 0.84862 0.9373 0.0
H262 H 0.19784 1.008 0.11759 0.0
H263 H 0.19713 0.9835 0.9316 0.0
Li264 Li 0.25412 0.1117 0.9422 0.0
Li265 Li 0.29104 0.15068 0.98465 0.0
Li266 Li 0.25735 0.15273 0.93713 0.0
Li267 Li 0.28689 0.14781 0.87191 0.0
C268 C 0.24314 0.1393 0.05201 0.0
N269 N 0.21741 0.15283 0.13279 0.0
C270 C 0.25617 0.15827 0.09493 0.0
C271 C 0.21697 0.12719 0.05035 0.0
C272 C 0.24284 0.16483 0.13532 0.0
C273 C 0.20432 0.1343 0.09153 0.0
C274 C 0.30641 0.11583 0.94641 0.0
C275 C 0.3455 0.11585 0.93884 0.0
N276 N 0.33693 0.09683 0.98009 0.0
C277 C 0.29793 0.09608 0.98823 0.0
C278 C 0.33033 0.12563 0.92104 0.0
C279 C 0.31366 0.08682 1.0049 0.0
C280 C 0.23858 0.05947 0.9279 0.0
N281 N 0.23454 0.07622 0.959 0.0
C282 C 0.20709 0.04411 0.02868 0.0
C283 C 0.21916 0.06896 1.00857 0.0
C284 C 0.21131 0.02639 0.99874 0.0
C285 C 0.22731 0.03448 0.94728 0.0
H286 H 0.25149 0.06578 0.88978 0.0
H287 H 0.21683 0.08258 0.03406 0.0
C288 C 0.32776 0.18656 0.06461 0.0
N289 N 0.31331 0.16175 0.05189 0.0
C290 C 0.34331 0.19434 0.11567 0.0
C291 C 0.32778 0.1509 0.14162 0.0
C292 C 0.31253 0.14399 0.09007 0.0
C293 C 0.34356 0.17638 0.15458 0.0
H294 H 0.32679 0.20038 0.03634 0.0
H295 H 0.29963 0.12447 0.08134 0.0
C296 C 0.23231 0.1316 0.83442 0.0
N297 N 0.19872 0.13937 0.76792 0.0
C298 C 0.24037 0.15435 0.80422 0.0
C299 C 0.20725 0.11271 0.83046 0.0
C300 C 0.22306 0.15794 0.77099 0.0
C301 C 0.19053 0.11702 0.79662 0.0
C302 C 0.31703 0.19614 0.91665 0.0
C303 C 0.32064 0.22003 0.90504 0.0
C304 C 0.33761 0.19245 0.91724 0.0
C305 C 0.34484 0.23982 0.89415 0.0
C306 C 0.36151 0.2127 0.90617 0.0
N307 N 0.36461 0.23578 0.89491 0.0
C308 C 0.2525 0.19279 0.97782 0.0
C309 C 0.21361 0.15965 0.94303 0.0
C310 C 0.24088 0.2055 1.00115 0.0
N311 N 0.23884 0.17014 0.95011 0.0
C312 C 0.20118 0.17174 0.96584 0.0
C313 C 0.21479 0.19481 0.99636 0.0
H314 H 0.27235 0.20037 0.98497 0.0
H315 H 0.20287 0.14125 0.92311 0.0
C316 C 0.31515 0.14191 0.77348 0.0
N317 N 0.3071 0.15704 0.79739 0.0
C318 C 0.33285 0.15043 0.72592 0.0
C319 C 0.3335 0.18983 0.7279 0.0
C320 C 0.31532 0.1803 0.77397 0.0
C321 C 0.34288 0.17503 0.703 0.0
H322 H 0.30831 0.12339 0.79233 0.0
H323 H 0.30848 0.19198 0.79263 0.0
O324 O 0.25595 0.13298 0.01114 0.0
O325 O 0.29103 0.12483 0.92874 0.0
O326 O 0.24893 0.12778 0.8673 0.0
O327 O 0.29336 0.17648 0.92623 0.0
H328 H 0.27637 0.16803 0.09681 0.0
H329 H 0.20652 0.11299 0.01636 0.0
H330 H 0.25273 0.17955 0.16855 0.0
H331 H 0.18411 0.12526 0.09025 0.0
H332 H 0.36406 0.12334 0.91967 0.0
H333 H 0.27955 0.08824 1.00858 0.0
H334 H 0.33715 0.14052 0.88764 0.0
H335 H 0.30737 0.0717 0.03763 0.0
H336 H 0.19473 0.03904 0.06776 0.0
H337 H 0.23183 0.02193 0.92313 0.0
H338 H 0.35458 0.21418 0.12532 0.0
H339 H 0.32727 0.13647 0.17088 0.0
H340 H 0.25974 0.16912 0.80694 0.0
H341 H 0.20079 0.09499 0.85355 0.0
H342 H 0.22898 0.1755 0.74767 0.0
H343 H 0.17105 0.10263 0.7933 0.0
H344 H 0.30489 0.2232 0.9039 0.0
H345 H 0.33514 0.1742 0.92682 0.0
H346 H 0.34791 0.25839 0.88495 0.0
H347 H 0.3776 0.21008 0.90662 0.0
H348 H 0.25212 0.22304 0.025 0.0
H349 H 0.18106 0.1629 0.96059 0.0
H350 H 0.3386 0.13776 0.70781 0.0
H351 H 0.34049 0.20897 0.71361 0.0
Li352 Li 0.92171 0.15317 0.94045 0.0
Li353 Li 0.88456 0.151 0.97827 0.0
Li354 Li 0.88063 0.11328 0.94072 0.0
Li355 Li 0.88576 0.14855 0.86917 0.0
C356 C 0.9128 0.12125 0.03531 0.0
N357 N 0.93594 0.09681 0.08533 0.0
C358 C 0.91509 0.12034 0.09876 0.0
C359 C 0.92238 0.10977 0.99737 0.0
C360 C 0.92683 0.10789 0.12313 0.0
C361 C 0.93398 0.09749 0.02351 0.0
C362 C 0.91458 0.19979 0.94059 0.0
C363 C 0.91231 0.23738 0.92551 0.0
N364 N 0.92531 0.24692 0.97831 0.0
C365 C 0.92803 0.21003 0.9945 0.0
C366 C 0.90672 0.21359 0.90562 0.0
C367 C 0.93321 0.23385 0.0129 0.0
C368 C 0.97562 0.1745 0.91749 0.0
N369 N 0.95714 0.16912 0.95883 0.0
C370 C 0.9872 0.18585 0.04017 0.0
C371 C 0.96263 0.17489 0.01899 0.0
C372 C 1.00689 0.1918 0.99903 0.0
C373 C 1.00073 0.18605 0.93658 0.0
H374 H 0.97093 0.16996 0.86976 0.0
H375 H 0.94779 0.17085 0.05115 0.0
C376 C 0.86966 0.15064 0.09719 0.0
N377 N 0.87311 0.16294 0.04339 0.0
C378 C 0.86145 0.15775 0.14857 0.0
C379 C 0.85992 0.18978 0.08788 0.0
C380 C 0.86811 0.18198 0.03759 0.0
C381 C 0.85663 0.17765 0.14426 0.0
H382 H 0.87316 0.13517 0.10006 0.0
H383 H 0.87005 0.19086 0.99387 0.0
C384 C 0.89971 0.11214 0.82353 0.0
N385 N 0.88876 0.07758 0.73127 0.0
C386 C 0.87748 0.10306 0.79027 0.0
C387 C 0.91638 0.10368 0.80989 0.0
C388 C 0.87229 0.0856 0.74373 0.0
C389 C 0.91048 0.08617 0.76312 0.0
C390 C 0.83729 0.12564 0.95075 0.0
C391 C 0.82278 0.1068 0.99272 0.0
C392 C 0.83114 0.14409 0.93725 0.0
C393 C 0.80248 0.10687 0.02095 0.0
C394 C 0.81066 0.14348 0.96634 0.0
N395 N 0.7969 0.12505 1.00731 0.0
C396 C 0.8585 0.07248 0.02014 0.0
C397 C 0.85797 0.05878 0.91875 0.0
C398 C 0.84711 0.04793 0.04189 0.0
N399 N 0.86405 0.07763 0.95967 0.0
C400 C 0.84589 0.03375 0.93845 0.0
C401 C 0.84055 0.02819 1.00088 0.0
H402 H 0.86274 0.08754 0.05182 0.0
H403 H 0.86232 0.063 0.87094 0.0
C404 C 0.89245 0.17679 0.75676 0.0
N405 N 0.8757 0.15844 0.7943 0.0
C406 C 0.88413 0.18595 0.70862 0.0
C407 C 0.84157 0.1572 0.73853 0.0
C408 C 0.85068 0.1482 0.78479 0.0
C409 C 0.85825 0.17657 0.69941 0.0
H410 H 0.9123 0.18483 0.76514 0.0
H411 H 0.83761 0.13348 0.81458 0.0
O412 O 0.90124 0.1334 0.01099 0.0
O413 O 0.90936 0.17654 0.9216 0.0
O414 O 0.90523 0.12932 0.86906 0.0
O415 O 0.85754 0.12614 0.92348 0.0
H416 H 0.90796 0.12923 0.12892 0.0
H417 H 0.92088 0.11023 0.94832 0.0
H418 H 0.92872 0.10705 0.17213 0.0
H419 H 0.94141 0.08851 0.99463 0.0
H420 H 0.90627 0.24823 0.89904 0.0
H421 H 0.93406 0.19955 0.02237 0.0
H422 H 0.89623 0.20596 0.86386 0.0
H423 H 0.94345 0.24191 0.05476 0.0
H424 H 0.99053 0.1893 0.0887 0.0
H425 H 1.01509 0.19065 0.90247 0.0
H426 H 0.85916 0.14796 0.19133 0.0
H427 H 0.85583 0.20484 0.08246 0.0
H428 H 0.86421 0.10913 0.80082 0.0
H429 H 0.9337 0.1106 0.83519 0.0
H430 H 0.85513 0.07835 0.71773 0.0
H431 H 0.92319 0.07942 0.7521 0.0
H432 H 0.82713 0.09231 1.00354 0.0
H433 H 0.84241 0.15911 0.90581 0.0
H434 H 0.79116 0.09245 0.05371 0.0
H435 H 0.80585 0.15777 0.95672 0.0
H436 H 0.84293 0.04435 0.09018 0.0
H437 H 0.84099 0.0189 0.90544 0.0
H438 H 0.898 0.20037 0.67941 0.0
H439 H 0.82153 0.14933 0.73521 0.0
Li440 Li 0.88655 0.78082 0.94179 0.0
Li441 Li 0.88816 0.74392 0.98642 0.0
Li442 Li 0.9248 0.77741 0.93831 0.0
Li443 Li 0.88959 0.74725 0.87383 0.0
C444 C 0.92465 0.79423 0.05036 0.0
N445 N 0.96339 0.82462 0.12813 0.0
C446 C 0.93018 0.78392 0.10081 0.0
C447 C 0.93866 0.82003 0.03978 0.0
C448 C 0.94987 0.7996 0.13954 0.0
C449 C 0.95822 0.83506 0.07952 0.0
C450 C 0.83828 0.72773 0.94604 0.0
C451 C 0.80134 0.68677 0.94214 0.0
N452 N 0.78899 0.69521 0.97769 0.0
C453 C 0.82511 0.73606 0.98187 0.0
C454 C 0.82621 0.70295 0.9254 0.0
C455 C 0.80026 0.71931 0.99767 0.0
C456 C 0.85433 0.80203 0.92123 0.0
N457 N 0.8714 0.8011 0.95891 0.0
C458 C 0.86444 0.82504 0.03488 0.0
C459 C 0.8765 0.81226 0.01484 0.0
C460 C 0.84643 0.82611 0.99767 0.0
C461 C 0.84158 0.81446 0.93977 0.0
H462 H 0.85002 0.79245 0.87766 0.0
H463 H 0.8895 0.81073 0.04501 0.0
C464 C 0.88915 0.70961 0.06997 0.0
N465 N 0.87716 0.72226 0.05434 0.0
C466 C 0.8816 0.69417 0.12123 0.0
C467 C 0.8505 0.70625 0.14146 0.0
C468 C 0.8586 0.72136 0.08961 0.0
C469 C 0.86194 0.69228 0.15736 0.0
H470 H 0.90491 0.71185 0.04354 0.0
H471 H 0.8504 0.73273 0.07817 0.0
C472 C 0.92705 0.8001 0.82852 0.0
N473 N 0.9652 0.82987 0.74886 0.0
C474 C 0.93998 0.79026 0.79731 0.0
C475 C 0.9334 0.82501 0.81916 0.0
C476 C 0.95925 0.80565 0.75727 0.0
C477 C 0.95277 0.83978 0.77866 0.0
C478 C 0.91119 0.71917 0.92139 0.0
C479 C 0.93353 0.71904 0.91167 0.0
C480 C 0.88849 0.69656 0.92222 0.0
C481 C 0.93275 0.69622 0.90269 0.0
C482 C 0.88849 0.67414 0.91306 0.0
N483 N 0.91044 0.67443 0.90353 0.0
C484 C 0.96824 0.78395 0.99328 0.0
C485 C 0.97696 0.81889 0.9312 0.0
C486 C 0.99272 0.79613 0.01584 0.0
N487 N 0.96067 0.79552 0.95247 0.0
C488 C 1.00189 0.83149 0.9513 0.0
C489 C 1.00984 0.82023 0.99499 0.0
H490 H 0.95487 0.76554 0.01026 0.0
H491 H 0.97056 0.82816 0.90032 0.0
C492 C 0.8553 0.71873 0.77605 0.0
N493 N 0.8783 0.72623 0.80046 0.0
C494 C 0.84581 0.70093 0.72871 0.0
C495 C 0.88376 0.6988 0.73232 0.0
C496 C 0.89274 0.71708 0.77821 0.0
C497 C 0.85985 0.69018 0.70653 0.0
H498 H 0.84403 0.72618 0.7942 0.0
H499 H 0.91107 0.72335 0.79736 0.0
O500 O 0.90588 0.77911 0.01094 0.0
O501 O 0.86256 0.74399 0.92956 0.0
O502 O 0.90822 0.78539 0.868 0.0
O503 O 0.91167 0.74139 0.92973 0.0
H504 H 0.91955 0.764 0.10964 0.0
H505 H 0.9347 0.82826 1.00066 0.0
H506 H 0.95447 0.79187 0.17855 0.0
H507 H 0.96937 0.85501 0.07157 0.0
H508 H 0.79181 0.66754 0.92663 0.0
H509 H 0.83406 0.75518 0.99808 0.0
H510 H 0.8358 0.69628 0.89631 0.0
H511 H 0.78993 0.72547 0.02583 0.0
H512 H 0.8692 0.83391 0.07938 0.0
H513 H 0.82755 0.81427 0.90966 0.0
H514 H 0.89133 0.68421 0.13315 0.0
H515 H 0.83538 0.7054 0.16857 0.0
H516 H 0.93531 0.77104 0.80439 0.0
H517 H 0.92352 0.83285 0.8431 0.0
H518 H 0.96951 0.79834 0.73296 0.0
H519 H 0.95796 0.85911 0.77101 0.0
H520 H 0.95126 0.73641 0.91079 0.0
H521 H 0.87113 0.69636 0.93044 0.0
H522 H 0.94989 0.69584 0.89499 0.0
H523 H 0.87104 0.6565 0.91364 0.0
H524 H 0.99825 0.78681 0.04918 0.0
H525 H 1.01465 0.85012 0.93431 0.0
H526 H 0.82761 0.69571 0.71004 0.0
H527 H 0.89547 0.69119 0.71868 0.0
Li528 Li 0.82757 0.58623 0.41293 0.0
Li529 Li 0.82212 0.61591 0.48515 0.0
Li530 Li 0.78672 0.58539 0.41158 0.0
Li531 Li 0.82427 0.62062 0.37614 0.0
C532 C 0.80758 0.56554 0.5294 0.0
N533 N 0.81795 0.54176 0.62238 0.0
C534 C 0.83026 0.57816 0.56107 0.0
C535 C 0.79017 0.54084 0.5449 0.0
C536 C 0.83514 0.56582 0.60801 0.0
C537 C 0.79578 0.52913 0.59205 0.0
C538 C 0.87107 0.64268 0.40786 0.0
C539 C 0.89621 0.68753 0.39644 0.0
N540 N 0.91172 0.68437 0.35788 0.0
C541 C 0.88738 0.63991 0.36848 0.0
C542 C 0.87558 0.6667 0.42221 0.0
C543 C 0.90777 0.66121 0.34354 0.0
C544 C 0.85278 0.57043 0.33579 0.0
N545 N 0.84377 0.5669 0.39397 0.0
C546 C 0.85784 0.53757 0.41248 0.0
C547 C 0.84592 0.55066 0.43225 0.0
C548 C 0.86743 0.54101 0.35257 0.0
C549 C 0.8646 0.55765 0.31407 0.0
H550 H 0.85083 0.58336 0.30599 0.0
H551 H 0.83839 0.54771 0.47796 0.0
C552 C 0.81547 0.63748 0.59795 0.0
N553 N 0.83205 0.63531 0.56102 0.0
C554 C 0.82399 0.65477 0.64653 0.0
C555 C 0.86641 0.66715 0.61843 0.0
C556 C 0.85708 0.64928 0.57168 0.0
C557 C 0.84993 0.67046 0.65687 0.0
H558 H 0.79561 0.62634 0.58867 0.0
H559 H 0.87004 0.64724 0.5423 0.0
C560 C 0.79666 0.56327 0.31601 0.0
N561 N 0.77426 0.51631 0.26282 0.0
C562 C 0.79569 0.56083 0.25236 0.0
C563 C 0.78616 0.54177 0.35257 0.0
C564 C 0.7843 0.53694 0.22636 0.0
C565 C 0.77495 0.51822 0.32482 0.0
C566 C 0.7938 0.63911 0.41423 0.0
C567 C 0.78044 0.63628 0.36035 0.0
C568 C 0.8015 0.66046 0.45027 0.0
C569 C 0.77518 0.65499 0.34311 0.0
C570 C 0.79583 0.67873 0.43151 0.0
N571 N 0.78291 0.67565 0.37875 0.0
C572 C 0.73284 0.55224 0.43196 0.0
C573 C 0.74616 0.56694 0.33133 0.0
C574 C 0.70783 0.53869 0.41218 0.0
N575 N 0.75143 0.56601 0.39141 0.0
C576 C 0.72162 0.55352 0.30956 0.0
C577 C 0.70188 0.53909 0.34994 0.0
H578 H 0.73738 0.55182 0.47957 0.0
H579 H 0.76113 0.57807 0.29975 0.0
C580 C 0.84138 0.63612 0.25912 0.0
N581 N 0.83641 0.64444 0.31186 0.0
C582 C 0.84994 0.65158 0.20799 0.0
C583 C 0.84872 0.68418 0.26683 0.0
C584 C 0.84032 0.66811 0.31697 0.0
C585 C 0.85345 0.67583 0.21145 0.0
H586 H 0.83873 0.61745 0.25686 0.0
H587 H 0.83728 0.67472 0.35997 0.0
O588 O 0.80241 0.57721 0.48323 0.0
O589 O 0.85072 0.62202 0.43189 0.0
O590 O 0.80791 0.58665 0.34193 0.0
O591 O 0.79908 0.62099 0.43214 0.0
H592 H 0.84408 0.59715 0.549 0.0
H593 H 0.77254 0.53082 0.52065 0.0
H594 H 0.85265 0.57533 0.63283 0.0
H595 H 0.7825 0.51 0.60453 0.0
H596 H 0.89976 0.70619 0.40673 0.0
H597 H 0.88437 0.62155 0.35728 0.0
H598 H 0.86296 0.66922 0.45181 0.0
H599 H 0.92047 0.65931 0.3128 0.0
H600 H 0.8593 0.52471 0.44362 0.0
H601 H 0.87192 0.56119 0.2679 0.0
H602 H 0.81025 0.65583 0.67514 0.0
H603 H 0.8865 0.67872 0.6226 0.0
H604 H 0.80359 0.57722 0.22329 0.0
H605 H 0.78665 0.54315 0.4018 0.0
H606 H 0.78343 0.53481 0.17718 0.0
H607 H 0.7668 0.50146 0.35259 0.0
H608 H 0.77454 0.62003 0.33166 0.0
H609 H 0.81194 0.66302 0.49198 0.0
H610 H 0.765 0.65312 0.3013 0.0
H611 H 0.80175 0.69539 0.45883 0.0
H612 H 0.69334 0.52827 0.44559 0.0
H613 H 0.71833 0.55425 0.26119 0.0
H614 H 0.85341 0.6445 0.16598 0.0
H615 H 0.85178 0.703 0.27153 0.0
Li616 Li 0.44802 0.24857 0.41268 0.0
Li617 Li 0.4182 0.21315 0.48396 0.0
Li618 Li 0.44965 0.2089 0.4124 0.0
Li619 Li 0.4145 0.21075 0.37487 0.0
C620 C 0.46822 0.24968 0.52997 0.0
N621 N 0.49124 0.28405 0.62289 0.0
C622 C 0.45497 0.25896 0.56201 0.0
C623 C 0.49316 0.25785 0.54511 0.0
C624 C 0.46694 0.27632 0.60891 0.0
C625 C 0.50447 0.27527 0.59221 0.0
C626 C 0.39178 0.23527 0.40388 0.0
C627 C 0.34709 0.21629 0.3902 0.0
N628 N 0.35091 0.23472 0.35004 0.0
C629 C 0.39523 0.25411 0.36279 0.0
C630 C 0.36749 0.21625 0.41791 0.0
C631 C 0.37435 0.25346 0.33592 0.0
C632 C 0.46475 0.28919 0.33405 0.0
N633 N 0.46666 0.28415 0.39383 0.0
C634 C 0.4931 0.32801 0.41379 0.0
C635 C 0.48059 0.30301 0.43375 0.0
C636 C 0.49155 0.33358 0.35205 0.0
C637 C 0.47721 0.31373 0.31205 0.0
H638 H 0.4533 0.27403 0.30316 0.0
H639 H 0.48207 0.29883 0.48095 0.0
C640 C 0.39648 0.18465 0.59601 0.0
N641 N 0.39831 0.20322 0.55886 0.0
C642 C 0.379 0.17554 0.64412 0.0
C643 C 0.36566 0.20476 0.61493 0.0
C644 C 0.38377 0.21371 0.56875 0.0
C645 C 0.36272 0.18518 0.65367 0.0
H646 H 0.4081 0.17642 0.58733 0.0
H647 H 0.38559 0.22859 0.53924 0.0
C648 C 0.47246 0.24125 0.31799 0.0
N649 N 0.52006 0.26646 0.26833 0.0
C650 C 0.47573 0.24272 0.25454 0.0
C651 C 0.49348 0.25259 0.35612 0.0
C652 C 0.49992 0.25554 0.23035 0.0
C653 C 0.51735 0.26526 0.33015 0.0
C654 C 0.39623 0.16201 0.41185 0.0
C655 C 0.39973 0.15209 0.35774 0.0
C656 C 0.37456 0.14789 0.4465 0.0
C657 C 0.38133 0.12825 0.33881 0.0
C658 C 0.35662 0.1241 0.42607 0.0
N659 N 0.36034 0.11487 0.37308 0.0
C660 C 0.48184 0.18716 0.43561 0.0
C661 C 0.46945 0.18772 0.33356 0.0
C662 C 0.49528 0.17544 0.41683 0.0
N663 N 0.46928 0.19309 0.39387 0.0
C664 C 0.48298 0.17659 0.31272 0.0
C665 C 0.49613 0.17006 0.35431 0.0
H666 H 0.48126 0.19132 0.48345 0.0
H667 H 0.45901 0.1921 0.30108 0.0
C668 C 0.39993 0.21131 0.25617 0.0
N669 N 0.39113 0.19879 0.30973 0.0
C670 C 0.38465 0.20426 0.20473 0.0
C671 C 0.35122 0.17188 0.26492 0.0
C672 C 0.36719 0.17959 0.31523 0.0
C673 C 0.36 0.18423 0.20875 0.0
H674 H 0.41883 0.22691 0.25355 0.0
H675 H 0.36028 0.1705 0.35876 0.0
O676 O 0.45689 0.23265 0.48399 0.0
O677 O 0.41204 0.23536 0.42989 0.0
O678 O 0.44875 0.22878 0.34213 0.0
O679 O 0.41402 0.18528 0.43134 0.0
H680 H 0.4358 0.25313 0.55024 0.0
H681 H 0.50365 0.25081 0.52067 0.0
H682 H 0.45695 0.28372 0.634 0.0
H683 H 0.52378 0.2818 0.6044 0.0
H684 H 0.32823 0.20155 0.40025 0.0
H685 H 0.4138 0.26907 0.3517 0.0
H686 H 0.36442 0.20125 0.44873 0.0
H687 H 0.37678 0.26787 0.30386 0.0
H688 H 0.50411 0.3428 0.4461 0.0
H689 H 0.47522 0.31716 0.26437 0.0
H690 H 0.37826 0.16096 0.67302 0.0
H691 H 0.35367 0.21283 0.61846 0.0
H692 H 0.45974 0.23396 0.22423 0.0
H693 H 0.49149 0.25172 0.40519 0.0
H694 H 0.50269 0.2568 0.18135 0.0
H695 H 0.53374 0.27413 0.35917 0.0
H696 H 0.41625 0.16282 0.33014 0.0
H697 H 0.37152 0.15529 0.48842 0.0
H698 H 0.38371 0.12042 0.29678 0.0
H699 H 0.33971 0.11301 0.45228 0.0
H700 H 0.50456 0.17038 0.45127 0.0
H701 H 0.48321 0.17343 0.26413 0.0
H702 H 0.39213 0.21421 0.16216 0.0
H703 H 0.33212 0.15672 0.27016 0.0
Li704 Li 0.82002 0.21422 0.48102 0.0
Li705 Li 0.78558 0.20928 0.41567 0.0
Li706 Li 0.82136 0.21141 0.36827 0.0
Li707 Li 0.82332 0.25037 0.41078 0.0
C708 C 0.80206 0.16599 0.43621 0.0
N709 N 0.81033 0.12653 0.45792 0.0
C710 C 0.78191 0.14206 0.44797 0.0
C711 C 0.82639 0.16982 0.43547 0.0
C712 C 0.78648 0.12236 0.45884 0.0
C713 C 0.83021 0.14966 0.44652 0.0
C714 C 0.78148 0.23029 0.5182 0.0
C715 C 0.75411 0.24473 0.55559 0.0
N716 N 0.73994 0.22234 0.58409 0.0
C717 C 0.76679 0.2075 0.5482 0.0
C718 C 0.77523 0.24913 0.52206 0.0
C719 C 0.7458 0.20381 0.58113 0.0
C720 C 0.8542 0.21993 0.57932 0.0
N721 N 0.83098 0.20492 0.55555 0.0
C722 C 0.82442 0.17211 0.62523 0.0
C723 C 0.81585 0.1817 0.57909 0.0
C724 C 0.84864 0.18679 0.65002 0.0
C725 C 0.86332 0.21134 0.6269 0.0
H726 H 0.86596 0.23841 0.56036 0.0
H727 H 0.79731 0.17009 0.56047 0.0
C728 C 0.74062 0.16905 0.37541 0.0
N729 N 0.74963 0.19181 0.40252 0.0
C730 C 0.71626 0.15624 0.35229 0.0
C731 C 0.71036 0.19017 0.38651 0.0
C732 C 0.73493 0.20236 0.4091 0.0
C733 C 0.70085 0.16694 0.35667 0.0
H734 H 0.75287 0.16142 0.36861 0.0
H735 H 0.74261 0.22084 0.42856 0.0
C736 C 0.87154 0.2465 0.40655 0.0
N737 N 0.92109 0.26594 0.37278 0.0
C738 C 0.88268 0.2664 0.36512 0.0
C739 C 0.8858 0.23678 0.43152 0.0
C740 C 0.90768 0.27588 0.34839 0.0
C741 C 0.91076 0.24677 0.41367 0.0
C742 C 0.7848 0.22291 0.30113 0.0
C743 C 0.77849 0.20372 0.25863 0.0
C744 C 0.77109 0.23539 0.3026 0.0
C745 C 0.75856 0.19731 0.21845 0.0
C746 C 0.75129 0.22843 0.26163 0.0
N747 N 0.74548 0.20968 0.22078 0.0
C748 C 0.82208 0.17552 0.28817 0.0
C749 C 0.84964 0.21806 0.26291 0.0
C750 C 0.82981 0.16767 0.23719 0.0
N751 N 0.83255 0.20035 0.30096 0.0
C752 C 0.85792 0.21108 0.21134 0.0
C753 C 0.84809 0.18558 0.19836 0.0
H754 H 0.80723 0.16175 0.31638 0.0
H755 H 0.85641 0.23761 0.27177 0.0
C756 C 0.85894 0.30294 0.42715 0.0
N757 N 0.83907 0.28587 0.39391 0.0
C758 C 0.87243 0.32803 0.40832 0.0
C759 C 0.84431 0.31774 0.32267 0.0
C760 C 0.83174 0.29285 0.34242 0.0
C761 C 0.86527 0.33585 0.35505 0.0
H762 H 0.86498 0.29688 0.46684 0.0
H763 H 0.8166 0.27898 0.31523 0.0
O764 O 0.7979 0.18556 0.42661 0.0
O765 O 0.80202 0.2342 0.48562 0.0
O766 O 0.84715 0.23728 0.42429 0.0
O767 O 0.80394 0.22908 0.34182 0.0
H768 H 0.76295 0.13878 0.44924 0.0
H769 H 0.84208 0.1881 0.42577 0.0
H770 H 0.77107 0.10376 0.46816 0.0
H771 H 0.84896 0.15239 0.44595 0.0
H772 H 0.74895 0.25908 0.55882 0.0
H773 H 0.77145 0.19276 0.54555 0.0
H774 H 0.78649 0.26689 0.49912 0.0
H775 H 0.73415 0.18621 0.60428 0.0
H776 H 0.81219 0.153 0.63969 0.0
H777 H 0.88178 0.22392 0.64491 0.0
H778 H 0.70993 0.13859 0.32895 0.0
H779 H 0.6991 0.19904 0.39144 0.0
H780 H 0.87203 0.2742 0.34514 0.0
H781 H 0.87783 0.22178 0.46465 0.0
H782 H 0.91641 0.29112 0.31595 0.0
H783 H 0.92195 0.23935 0.43252 0.0
H784 H 0.78866 0.19368 0.25696 0.0
H785 H 0.77519 0.24983 0.33619 0.0
H786 H 0.75343 0.18242 0.18555 0.0
H787 H 0.74039 0.23777 0.26273 0.0
H788 H 0.82119 0.14783 0.22752 0.0
H789 H 0.87189 0.22546 0.18211 0.0
H790 H 0.88875 0.3409 0.43443 0.0
H791 H 0.83763 0.32257 0.28202 0.0
Li792 Li 0.92581 0.44778 0.27434 0.0
Li793 Li 0.96089 0.48516 0.31063 0.0
Li794 Li 0.9269 0.48874 0.27208 0.0
Li795 Li 0.95687 0.48307 0.20147 0.0
C796 C 0.9031 0.45796 0.36835 0.0
N797 N 0.8557 0.43609 0.419 0.0
C798 C 0.90011 0.45749 0.4318 0.0
C799 C 0.88192 0.44724 0.3307 0.0
C800 C 0.87601 0.44636 0.45651 0.0
C801 C 0.85814 0.4363 0.35718 0.0
C802 C 0.97858 0.45371 0.27561 0.0
C803 C 1.01726 0.4534 0.26227 0.0
N804 N 1.01322 0.44101 0.31628 0.0
C805 C 0.97475 0.44087 0.33082 0.0
C806 C 0.99996 0.45998 0.24089 0.0
C807 C 0.99251 0.43467 0.35068 0.0
C808 C 0.89452 0.39386 0.25175 0.0
N809 N 0.90635 0.41239 0.29374 0.0
C810 C 0.89201 0.38224 0.37505 0.0
C811 C 0.9055 0.4069 0.35429 0.0
C812 C 0.87959 0.36251 0.33319 0.0
C813 C 0.88114 0.3687 0.27048 0.0
H814 H 0.89563 0.39855 0.20375 0.0
H815 H 0.9154 0.42176 0.38704 0.0
C816 C 0.97611 0.50158 0.42848 0.0
N817 N 0.9845 0.49704 0.3753 0.0
C818 C 0.99152 0.5098 0.47973 0.0
C819 C 0.02425 0.5092 0.42003 0.0
C820 C 1.00819 0.50102 0.36989 0.0
C821 C 1.01585 0.51349 0.47591 0.0
H822 H 0.9574 0.49882 0.43101 0.0
H823 H 1.01478 0.49817 0.32661 0.0
C824 C 0.90696 0.4689 0.15503 0.0
N825 N 0.88406 0.47967 0.06067 0.0
C826 C 0.9199 0.49169 0.12393 0.0
C827 C 0.88239 0.45159 0.13828 0.0
C828 C 0.908 0.49677 0.07626 0.0
C829 C 0.87113 0.45739 0.09044 0.0
C830 C 0.98344 0.53207 0.27881 0.0
C831 C 0.98054 0.54839 0.31784 0.0
C832 C 1.0075 0.53657 0.26513 0.0
C833 C 1.00175 0.56877 0.34314 0.0
C834 C 0.02824 0.55718 0.29123 0.0
N835 N 0.02496 0.5727 0.32945 0.0
C836 C 0.9109 0.51406 0.34793 0.0
C837 C 0.89113 0.5068 0.25138 0.0
C838 C 0.89779 0.52558 0.3694 0.0
N839 N 0.9075 0.50496 0.28986 0.0
C840 C 0.87771 0.51841 0.2709 0.0
C841 C 0.88094 0.52799 0.33079 0.0
H842 H 0.92389 0.51231 0.37794 0.0
H843 H 0.88826 0.49916 0.20577 0.0
C844 C 0.97886 0.47596 0.09015 0.0
N845 N 0.97672 0.49274 0.12636 0.0
C846 C 0.99633 0.48423 0.04199 0.0
C847 C 1.00906 0.52681 0.06927 0.0
C848 C 0.99096 0.51773 0.11549 0.0
C849 C 1.01231 0.51012 0.03143 0.0
H850 H 0.9675 0.45614 0.09959 0.0
H851 H 0.98893 0.53085 0.1443 0.0
O852 O 0.92671 0.46905 0.34368 0.0
O853 O 0.96144 0.45996 0.25526 0.0
O854 O 0.91818 0.46355 0.20195 0.0
O855 O 0.96286 0.51174 0.25435 0.0
H856 H 0.91624 0.46559 0.46175 0.0
H857 H 0.8837 0.44734 0.28161 0.0
H858 H 0.87346 0.44588 0.50553 0.0
H859 H 0.84162 0.42798 0.32854 0.0
H860 H 0.03393 0.4582 0.23599 0.0
H861 H 0.95849 0.43615 0.35857 0.0
H862 H 1.00324 0.46997 0.19812 0.0
H863 H 0.98987 0.42489 0.39354 0.0
H864 H 0.89123 0.37885 0.42375 0.0
H865 H 0.87244 0.35432 0.23589 0.0
H866 H 0.98434 0.51286 0.52208 0.0
H867 H 0.04311 0.5124 0.41493 0.0
H868 H 0.93879 0.50544 0.13694 0.0
H869 H 0.87213 0.43389 0.1621 0.0
H870 H 0.91776 0.51436 0.05186 0.0
H871 H 0.8521 0.44419 0.07699 0.0
H872 H 0.96215 0.54542 0.32847 0.0
H873 H 1.01013 0.52394 0.23579 0.0
H874 H 0.99975 0.58149 0.37361 0.0
H875 H 0.04694 0.56072 0.28146 0.0
H876 H 0.9012 0.53292 0.41555 0.0
H877 H 0.8647 0.51958 0.23967 0.0
H878 H 0.99728 0.47031 0.01385 0.0
H879 H 1.02081 0.54687 0.06506 0.0
Li880 Li 0.58952 0.48324 0.2734 0.0
Li881 Li 0.55221 0.48261 0.31705 0.0
Li882 Li 0.54734 0.44529 0.27232 0.0
Li883 Li 0.55434 0.48155 0.2049 0.0
C884 C 0.56951 0.44635 0.37924 0.0
N885 N 0.5698 0.40938 0.45023 0.0
C886 C 0.56226 0.44367 0.44059 0.0
C887 C 0.57723 0.43041 0.35425 0.0
C888 C 0.56247 0.42483 0.47567 0.0
C889 C 0.57714 0.41178 0.3908 0.0
C890 C 0.59423 0.53078 0.28821 0.0
C891 C 0.61887 0.57583 0.28443 0.0
N892 N 0.62803 0.57592 0.34109 0.0
C893 C 0.60384 0.5313 0.34646 0.0
C894 C 0.60177 0.55319 0.2569 0.0
C895 C 0.62094 0.55432 0.37237 0.0
C896 C 0.64189 0.51999 0.25942 0.0
N897 N 0.62543 0.49832 0.28807 0.0
C898 C 0.65815 0.50173 0.35402 0.0
C899 C 0.63327 0.48905 0.33423 0.0
C900 C 0.67542 0.52462 0.32708 0.0
C901 C 0.66696 0.53354 0.27842 0.0
H902 H 0.63529 0.52743 0.22375 0.0
H903 H 0.62015 0.47225 0.35765 0.0
C904 C 0.5255 0.47639 0.42408 0.0
N905 N 0.54052 0.49398 0.38271 0.0
C906 C 0.51663 0.48322 0.47485 0.0
C907 C 0.53862 0.5261 0.439 0.0
C908 C 0.54662 0.51835 0.38826 0.0
C909 C 0.52364 0.5084 0.4829 0.0
H910 H 0.52048 0.45705 0.41752 0.0
H911 H 0.55767 0.5318 0.35355 0.0
C912 C 0.56841 0.44332 0.1594 0.0
N913 N 0.56089 0.40714 0.07429 0.0
C914 C 0.54749 0.43349 0.12106 0.0
C915 C 0.58557 0.43488 0.15441 0.0
C916 C 0.544 0.41517 0.07833 0.0
C917 C 0.58141 0.41653 0.11109 0.0
C918 C 0.50625 0.4632 0.27597 0.0
C919 C 0.4852 0.44385 0.30465 0.0
C920 C 0.50761 0.48626 0.26611 0.0
C921 C 0.46595 0.44801 0.32368 0.0
C922 C 0.48797 0.48967 0.28583 0.0
N923 N 0.46773 0.47065 0.31403 0.0
C924 C 0.51472 0.40312 0.33988 0.0
C925 C 0.53034 0.39152 0.25468 0.0
C926 C 0.50266 0.37856 0.36196 0.0
N927 N 0.52858 0.40931 0.28763 0.0
C928 C 0.51815 0.36655 0.27456 0.0
C929 C 0.50437 0.35989 0.32938 0.0
H930 H 0.51379 0.41756 0.3658 0.0
H931 H 0.54167 0.39661 0.21395 0.0
C932 C 0.56126 0.51331 0.09928 0.0
N933 N 0.54472 0.49261 0.13118 0.0
C934 C 0.553 0.52242 0.0509 0.0
C935 C 0.51087 0.48893 0.06923 0.0
C936 C 0.51998 0.48027 0.11636 0.0
C937 C 0.52734 0.51042 0.03543 0.0
H938 H 0.58083 0.52304 0.11203 0.0
H939 H 0.50704 0.46399 0.14243 0.0
O940 O 0.56868 0.4642 0.34357 0.0
O941 O 0.57772 0.50846 0.26151 0.0
O942 O 0.5722 0.46126 0.20141 0.0
O943 O 0.52564 0.45978 0.25841 0.0
H944 H 0.55659 0.45603 0.46102 0.0
H945 H 0.58296 0.43227 0.30684 0.0
H946 H 0.55681 0.42249 0.52314 0.0
H947 H 0.58284 0.39919 0.37187 0.0
H948 H 0.62489 0.59334 0.26074 0.0
H949 H 0.59818 0.51412 0.37138 0.0
H950 H 0.59449 0.55307 0.21176 0.0
H951 H 0.62857 0.55501 0.41734 0.0
H952 H 0.66363 0.49368 0.39071 0.0
H953 H 0.67929 0.55126 0.25649 0.0
H954 H 0.50488 0.46917 0.50801 0.0
H955 H 0.54394 0.54563 0.44384 0.0
H956 H 0.53402 0.43981 0.12458 0.0
H957 H 0.60186 0.44236 0.18385 0.0
H958 H 0.52786 0.40731 0.04845 0.0
H959 H 0.59448 0.40975 0.10677 0.0
H960 H 0.48374 0.42583 0.3122 0.0
H961 H 0.52387 0.50149 0.24437 0.0
H962 H 0.44959 0.43324 0.34617 0.0
H963 H 0.48886 0.50748 0.27895 0.0
H964 H 0.49203 0.37422 0.40405 0.0
H965 H 0.52005 0.35272 0.24818 0.0
H966 H 0.56668 0.53874 0.02606 0.0
H967 H 0.49092 0.4791 0.06076 0.0
Li968 Li 0.55258 0.11434 0.27659 0.0
Li969 Li 0.55483 0.07752 0.31962 0.0
Li970 Li 0.5904 0.11113 0.2714 0.0
Li971 Li 0.55586 0.08138 0.20665 0.0
C972 C 0.59139 0.12589 0.38579 0.0
N973 N 0.63085 0.15242 0.46549 0.0
C974 C 0.59769 0.11327 0.42911 0.0
C975 C 0.60518 0.15206 0.38321 0.0
C976 C 0.61769 0.127 0.46894 0.0
C977 C 0.62505 0.16512 0.42386 0.0
C978 C 0.50443 0.06219 0.28111 0.0
C979 C 0.4652 0.02333 0.27317 0.0
N980 N 0.45477 0.0321 0.31395 0.0
C981 C 0.4932 0.07089 0.32244 0.0
C982 C 0.49021 0.03827 0.2558 0.0
C983 C 0.46814 0.05538 0.33869 0.0
C984 C 0.51642 0.13066 0.26108 0.0
N985 N 0.53673 0.13403 0.29333 0.0
C986 C 0.5319 0.1612 0.36361 0.0
C987 C 0.54448 0.14889 0.34383 0.0
C988 C 0.51047 0.15775 0.33234 0.0
C989 C 0.50289 0.14221 0.28004 0.0
H990 H 0.51006 0.11814 0.22219 0.0
H991 H 0.56001 0.15065 0.37026 0.0
C992 C 0.55511 0.04167 0.40048 0.0
N993 N 0.54395 0.05536 0.38717 0.0
C994 C 0.54768 0.02614 0.45157 0.0
C995 C 0.51838 0.0401 0.47632 0.0
C996 C 0.5264 0.05535 0.42472 0.0
C997 C 0.52896 0.02512 0.48993 0.0
H998 H 0.57025 0.04325 0.37259 0.0
H999 H 0.51903 0.0676 0.41544 0.0
C1000 C 0.59407 0.13586 0.16827 0.0
N1001 N 0.63526 0.16924 0.10106 0.0
C1002 C 0.60868 0.12769 0.13814 0.0
C1003 C 0.60022 0.16091 0.16388 0.0
C1004 C 0.6295 0.1449 0.10454 0.0
C1005 C 0.62116 0.17751 0.12968 0.0
C1006 C 0.57403 0.05132 0.25216 0.0
C1007 C 0.59417 0.04747 0.24078 0.0
C1008 C 0.5497 0.03085 0.25348 0.0
C1009 C 0.58958 0.02315 0.23077 0.0
C1010 C 0.54587 1.00682 0.24328 0.0
N1011 N 0.56573 1.0035 0.2322 0.0
C1012 C 0.63546 0.11621 0.31188 0.0
C1013 C 0.64104 0.15496 0.27648 0.0
C1014 C 0.65985 0.12794 0.33489 0.0
N1015 N 0.62637 0.12976 0.28402 0.0
C1016 C 0.66562 0.1675 0.29894 0.0
C1017 C 0.6752 0.15402 0.3296 0.0
H1018 H 0.62326 0.09638 0.31935 0.0
H1019 H 0.6333 0.16562 0.25642 0.0
C1020 C 0.52168 0.05297 0.10809 0.0
N1021 N 0.54479 0.06095 0.13233 0.0
C1022 C 0.51253 0.03524 0.06056 0.0
C1023 C 0.55113 0.03434 0.06334 0.0
C1024 C 0.55977 0.05257 0.1093 0.0
C1025 C 0.52703 0.02507 0.03801 0.0
H1026 H 0.51003 0.05993 0.1266 0.0
H1027 H 0.57824 0.05935 0.12816 0.0
O1028 O 0.57217 0.11269 0.34546 0.0
O1029 O 0.52887 0.07736 0.26376 0.0
O1030 O 0.57371 0.11934 0.2015 0.0
O1031 O 0.57822 0.0751 0.26106 0.0
H1032 H 0.58744 0.09308 0.43172 0.0
H1033 H 0.6011 0.16219 0.34897 0.0
H1034 H 0.6228 0.11743 0.50246 0.0
H1035 H 0.63601 0.18534 0.42188 0.0
H1036 H 0.45404 1.00477 0.25404 0.0
H1037 H 0.50382 0.08927 0.34274 0.0
H1038 H 0.49827 0.03129 0.22278 0.0
H1039 H 0.45933 0.06184 0.37104 0.0
H1040 H 0.53892 0.17316 0.40344 0.0
H1041 H 0.48622 0.13828 0.25483 0.0
H1042 H 0.55686 0.01547 0.46166 0.0
H1043 H 0.50403 0.03998 0.5051 0.0
H1044 H 0.60411 0.10833 0.14119 0.0
H1045 H 0.58901 0.16744 0.18691 0.0
H1046 H 0.6411 0.1389 0.08128 0.0
H1047 H 0.62623 0.19699 0.12603 0.0
H1048 H 0.61312 0.06313 0.23918 0.0
H1049 H 0.53402 0.0335 0.26294 0.0
H1050 H 0.60498 0.0199 0.22175 0.0
H1051 H 0.52712 0.99082 0.24428 0.0
H1052 H 0.66623 0.11679 0.35887 0.0
H1053 H 0.67684 0.18761 0.29329 0.0
H1054 H 0.49418 0.0296 0.04217 0.0
H1055 H 0.56325 0.02726 0.04944 0.0
Li1056 Li 0.49023 0.94976 0.81862 0.0
Li1057 Li 0.49582 0.91973 0.74803 0.0
Li1058 Li 0.49229 0.95374 0.70948 0.0
Li1059 Li 0.4549 0.91871 0.74585 0.0
C1060 C 0.53922 0.97621 0.74113 0.0
N1061 N 0.5799 0.01762 0.69028 0.0
C1062 C 0.55546 0.97322 0.70202 0.0
C1063 C 0.54382 1.00031 0.75478 0.0
C1064 C 0.57587 0.99437 0.67662 0.0
C1065 C 0.56446 0.021 0.72857 0.0
C1066 C 0.47603 0.89986 0.86516 0.0
C1067 C 0.46452 0.86407 0.9299 0.0
N1068 N 0.48681 0.87701 0.95958 0.0
C1069 C 0.49884 0.91281 0.89618 0.0
C1070 C 0.45871 0.87531 0.88203 0.0
C1071 C 0.50393 0.90093 0.94387 0.0
C1072 C 0.48319 0.97175 0.93001 0.0
N1073 N 0.49995 0.96961 0.89371 0.0
C1074 C 0.53405 1.00196 0.9507 0.0
C1075 C 0.52495 0.98385 0.9045 0.0
C1076 C 0.51738 1.00521 0.98863 0.0
C1077 C 0.49148 0.98922 0.97817 0.0
H1078 H 0.46337 0.96038 0.92064 0.0
H1079 H 0.53804 0.98182 0.87563 0.0
C1080 C 0.52097 0.90359 0.67207 0.0
N1081 N 0.51198 0.90028 0.73023 0.0
C1082 C 0.53244 0.89043 0.65058 0.0
C1083 C 0.52543 0.8705 0.74924 0.0
C1084 C 0.51386 0.88396 0.76878 0.0
C1085 C 0.5349 0.87363 0.68927 0.0
H1086 H 0.5192 0.91655 0.64201 0.0
H1087 H 0.50631 0.88117 0.81446 0.0
C1088 C 0.46103 0.97161 0.74462 0.0
N1089 N 0.44864 1.00651 0.70414 0.0
C1090 C 0.44814 0.96786 0.68952 0.0
C1091 C 0.46749 0.99304 0.77935 0.0
C1092 C 0.4421 0.98575 0.66975 0.0
C1093 C 0.46108 1.01047 0.75806 0.0
C1094 C 0.46497 0.89593 0.65185 0.0
C1095 C 0.4644 0.89291 0.58839 0.0
C1096 C 0.45428 0.87476 0.68955 0.0
C1097 C 0.4532 0.8688 0.56373 0.0
C1098 C 0.44328 0.85097 0.66312 0.0
N1099 N 0.44297 0.8485 0.60129 0.0
C1100 C 0.50862 0.96888 0.59153 0.0
C1101 C 0.50829 1.00107 0.65017 0.0
C1102 C 0.51685 0.98428 0.54026 0.0
N1103 N 0.50418 0.97733 0.64475 0.0
C1104 C 0.51649 0.01712 0.60001 0.0
C1105 C 0.52068 1.00866 0.5441 0.0
H1106 H 0.50577 0.95014 0.58899 0.0
H1107 H 0.50553 1.00771 0.69347 0.0
C1108 C 0.40098 0.88726 0.76836 0.0
N1109 N 0.41952 0.89925 0.72647 0.0
C1110 C 0.37584 0.87382 0.74955 0.0
C1111 C 0.3894 0.88498 0.64509 0.0
C1112 C 0.41405 0.89852 0.66593 0.0
C1113 C 0.36967 0.87239 0.68684 0.0
H1114 H 0.40566 0.88827 0.81635 0.0
H1115 H 0.42892 0.90852 0.63327 0.0
O1116 O 0.51887 0.95569 0.76569 0.0
O1117 O 0.47067 0.91106 0.81821 0.0
O1118 O 0.46712 0.95435 0.76489 0.0
O1119 O 0.47611 0.91955 0.67647 0.0
H1120 H 0.55241 0.95479 0.69141 0.0
H1121 H 0.53126 1.00302 0.78418 0.0
H1122 H 0.58852 0.9923 0.64609 0.0
H1123 H 0.56808 0.03972 0.73832 0.0
H1124 H 0.45131 0.84506 0.94344 0.0
H1125 H 0.5126 0.93168 0.88307 0.0
H1126 H 0.44099 0.86505 0.85827 0.0
H1127 H 0.52153 0.91068 0.96821 0.0
H1128 H 0.55411 1.01372 0.95484 0.0
H1129 H 0.47758 0.99017 1.00638 0.0
H1130 H 0.5397 0.89376 0.60436 0.0
H1131 H 0.52665 0.85754 0.78054 0.0
H1132 H 0.44325 0.95156 0.66178 0.0
H1133 H 0.47752 0.99627 0.82203 0.0
H1134 H 0.43229 0.98317 0.62696 0.0
H1135 H 0.46603 0.02718 0.78434 0.0
H1136 H 0.47246 0.90903 0.55841 0.0
H1137 H 0.45446 0.87657 0.73864 0.0
H1138 H 0.45264 0.86623 0.51472 0.0
H1139 H 0.43498 0.83446 0.69179 0.0
H1140 H 0.51983 0.97705 0.49788 0.0
H1141 H 0.51981 0.03601 0.60513 0.0
H1142 H 0.36146 0.86499 0.78407 0.0
H1143 H 0.38604 0.88429 0.59638 0.0
Li1144 Li 0.11827 0.58305 0.74874 0.0
Li1145 Li 0.0885 0.54852 0.81343 0.0
Li1146 Li 0.12149 0.54524 0.7436 0.0
Li1147 Li 0.08469 0.5475 0.70043 0.0
C1148 C 0.14295 0.58674 0.85196 0.0
N1149 N 0.17626 0.62793 0.91926 0.0
C1150 C 0.13475 0.60134 0.88201 0.0
C1151 C 0.16799 0.59289 0.85647 0.0
C1152 C 0.15192 0.62216 0.91565 0.0
C1153 C 0.18457 0.61384 0.89071 0.0
C1154 C 0.05844 0.56663 0.76774 0.0
C1155 C 1.01394 0.5384 0.77634 0.0
N1156 N 1.01055 0.55823 0.78733 0.0
C1157 C 0.05452 0.58674 0.779 0.0
C1158 C 0.038 0.54228 0.76633 0.0
C1159 C 0.03017 0.5821 0.78883 0.0
C1160 C 0.12336 0.62812 0.7082 0.0
N1161 N 0.1369 0.61903 0.73614 0.0
C1162 C 0.17465 0.65828 0.72125 0.0
C1163 C 0.1621 0.6337 0.74374 0.0
C1164 C 0.16117 0.66785 0.69049 0.0
C1165 C 0.1351 0.6525 0.68515 0.0
H1166 H 0.10353 0.61591 0.70069 0.0
H1167 H 0.17275 0.62597 0.76386 0.0
C1168 C 0.06007 0.51436 0.91205 0.0
N1169 N 0.06804 0.53746 0.88773 0.0
C1170 C 0.04234 0.50523 0.95958 0.0
C1171 C 0.04143 0.54383 0.95661 0.0
C1172 C 0.05965 0.55244 0.91065 0.0
C1173 C 0.03216 0.51974 0.98203 0.0
H1174 H 0.06704 0.50271 0.89362 0.0
H1175 H 0.06643 0.57091 0.89173 0.0
C1176 C 0.13312 0.58407 0.63443 0.0
N1177 N 0.15976 0.62353 0.55483 0.0
C1178 C 0.12056 0.59038 0.59099 0.0
C1179 C 0.15929 0.59784 0.63718 0.0
C1180 C 0.13434 0.61039 0.55121 0.0
C1181 C 0.1724 0.61771 0.59658 0.0
C1182 C 0.06938 0.49708 0.73905 0.0
C1183 C 0.07811 0.48586 0.69777 0.0
C1184 C 0.04547 0.48283 0.76439 0.0
C1185 C 0.06265 0.46078 0.68162 0.0
C1186 C 0.03057 0.45779 0.74711 0.0
N1187 N 0.03938 0.44738 0.70639 0.0
C1188 C 0.13789 0.50913 0.75922 0.0
C1189 C 0.15602 0.53713 0.67631 0.0
C1190 C 0.14945 0.49562 0.74028 0.0
N1191 N 0.14119 0.52941 0.72689 0.0
C1192 C 0.16834 0.52456 0.65655 0.0
C1193 C 0.16495 0.50317 0.6879 0.0
H1194 H 0.1254 0.5028 0.79817 0.0
H1195 H 0.15772 0.55262 0.64981 0.0
C1196 C 0.049 0.54793 0.61939 0.0
N1197 N 0.06256 0.53665 0.63283 0.0
C1198 C 0.03347 0.54054 0.5683 0.0
C1199 C 0.04717 0.51102 0.54379 0.0
C1200 C 0.06242 0.519 0.5954 0.0
C1201 C 0.03232 0.52174 0.53007 0.0
H1202 H 0.05066 0.56314 0.64721 0.0
H1203 H 0.07456 0.51152 0.60478 0.0
O1204 O 0.12646 0.56637 0.81868 0.0
O1205 O 0.08224 0.57087 0.75898 0.0
O1206 O 0.11986 0.56484 0.6747 0.0
O1207 O 0.08451 0.52153 0.75632 0.0
H1208 H 0.11539 0.59675 0.87886 0.0
H1209 H 0.17455 0.58169 0.8335 0.0
H1210 H 0.1459 0.63375 0.93886 0.0
H1211 H 0.20404 0.61892 0.89446 0.0
H1212 H 0.99796 0.51964 0.77527 0.0
H1213 H 0.07015 0.60571 0.78065 0.0
H1214 H 0.0407 0.52663 0.75694 0.0
H1215 H 0.02687 0.59747 0.79777 0.0
H1216 H 0.19475 0.6695 0.72693 0.0
H1217 H 0.12396 0.65888 0.66111 0.0
H1218 H 0.03671 0.48689 0.97804 0.0
H1219 H 0.03434 0.55595 0.97043 0.0
H1220 H 0.10037 0.58015 0.58824 0.0
H1221 H 0.16937 0.59374 0.6715 0.0
H1222 H 0.12482 0.61552 0.5176 0.0
H1223 H 0.19262 0.62866 0.59869 0.0
H1224 H 0.09648 0.4965 0.67745 0.0
H1225 H 0.03846 0.49088 0.79735 0.0
H1226 H 0.06914 0.45198 0.64932 0.0
H1227 H 1.01202 0.44661 0.76626 0.0
H1228 H 0.14556 0.47897 0.76556 0.0
H1229 H 0.18026 0.53156 0.61666 0.0
H1230 H 0.0229 0.54982 0.55812 0.0
H1231 H 0.04695 0.49659 0.5151 0.0
Li1232 Li 0.48873 0.54695 0.81536 0.0
Li1233 Li 0.45243 0.53986 0.74798 0.0
Li1234 Li 0.48977 0.5448 0.70321 0.0
Li1235 Li 0.49032 0.58208 0.74684 0.0
C1236 C 0.47043 0.49885 0.7443 0.0
N1237 N 0.47794 0.46038 0.70618 0.0
C1238 C 0.4511 0.4778 0.71559 0.0
C1239 C 0.4935 0.50024 0.75415 0.0
C1240 C 0.45529 0.45856 0.69653 0.0
C1241 C 0.49695 0.48062 0.7344 0.0
C1242 C 0.45044 0.56099 0.86083 0.0
C1243 C 0.42362 0.57401 0.90888 0.0
N1244 N 0.41427 0.55355 0.94587 0.0
C1245 C 0.44065 0.54013 0.89937 0.0
C1246 C 0.44196 0.57813 0.86559 0.0
C1247 C 0.42233 0.53668 0.94206 0.0
C1248 C 0.52053 0.55393 0.92092 0.0
N1249 N 0.49983 0.53737 0.88907 0.0
C1250 C 0.4962 0.50355 0.95105 0.0
C1251 C 0.48751 0.51263 0.90393 0.0
C1252 C 0.51769 0.52004 0.98481 0.0
C1253 C 0.52967 0.54569 0.96929 0.0
H1254 H 0.53025 0.5735 0.90813 0.0
H1255 H 0.47122 0.49968 0.87789 0.0
C1256 C 0.41026 0.50722 0.68042 0.0
N1257 N 0.41645 0.52106 0.7327 0.0
C1258 C 0.38571 0.49517 0.65832 0.0
C1259 C 0.37368 0.51063 0.74577 0.0
C1260 C 0.39864 0.52281 0.76568 0.0
C1261 C 0.36703 0.49687 0.69091 0.0
H1262 H 0.42471 0.50631 0.65449 0.0
H1263 H 0.40373 0.53412 0.80643 0.0
C1264 C 0.53788 0.58693 0.73193 0.0
N1265 N 0.58293 0.62088 0.67891 0.0
C1266 C 0.53832 0.59648 0.67364 0.0
C1267 C 0.56032 0.59462 0.76322 0.0
C1268 C 0.5613 0.61365 0.64766 0.0
C1269 C 0.58292 0.61179 0.73561 0.0
C1270 C 0.45343 0.56201 0.64103 0.0
C1271 C 0.45076 0.55476 0.57968 0.0
C1272 C 0.43746 0.56971 0.66602 0.0
C1273 C 0.43191 0.55495 0.5446 0.0
C1274 C 0.41883 0.5696 0.62947 0.0
N1275 N 0.41644 0.56225 0.57003 0.0
C1276 C 0.4836 0.51812 0.59617 0.0
C1277 C 0.52556 0.53931 0.63203 0.0
C1278 C 0.49047 0.50928 0.5454 0.0
N1279 N 0.50117 0.53315 0.63756 0.0
C1280 C 0.53334 0.53134 0.58129 0.0
C1281 C 0.51566 0.51634 0.53737 0.0
H1282 H 0.46425 0.51305 0.60271 0.0
H1283 H 0.53899 0.55037 0.66676 0.0
C1284 C 0.52693 0.63449 0.76092 0.0
N1285 N 0.50532 0.61798 0.73214 0.0
C1286 C 0.54043 0.65957 0.74194 0.0
C1287 C 0.50869 0.65064 0.66605 0.0
C1288 C 0.49606 0.62576 0.68584 0.0
C1289 C 0.53152 0.66797 0.69315 0.0
H1290 H 0.53437 0.62794 0.7967 0.0
H1291 H 0.47931 0.6126 0.6623 0.0
O1292 O 0.46698 0.51822 0.76188 0.0
O1293 O 0.46838 0.56474 0.81887 0.0
O1294 O 0.51561 0.57036 0.75871 0.0
O1295 O 0.47129 0.56121 0.6767 0.0
H1296 H 0.43307 0.47631 0.70804 0.0
H1297 H 0.50872 0.51651 0.77591 0.0
H1298 H 0.44054 0.4422 0.67402 0.0
H1299 H 0.51476 0.48154 0.74128 0.0
H1300 H 0.41681 0.58707 0.91303 0.0
H1301 H 0.44701 0.52668 0.89604 0.0
H1302 H 0.44942 0.59437 0.836 0.0
H1303 H 0.41451 0.52059 0.97209 0.0
H1304 H 0.48638 0.4836 0.95955 0.0
H1305 H 0.54599 0.55939 0.9941 0.0
H1306 H 0.38138 0.48456 0.6162 0.0
H1307 H 0.35985 0.51251 0.77217 0.0
H1308 H 0.52111 0.59071 0.64874 0.0
H1309 H 0.56027 0.5874 0.80839 0.0
H1310 H 0.56193 0.62122 0.60265 0.0
H1311 H 0.60045 0.61792 0.75929 0.0
H1312 H 0.46313 0.54911 0.55925 0.0
H1313 H 0.43932 0.57544 0.71343 0.0
H1314 H 0.42957 0.54929 0.49713 0.0
H1315 H 0.40622 0.57528 0.6484 0.0
H1316 H 0.47643 0.49751 0.51223 0.0
H1317 H 0.55289 0.5367 0.57647 0.0
H1318 H 0.5581 0.67195 0.76399 0.0
H1319 H 0.50065 0.65608 0.62925 0.0
Li1320 Li 0.62735 0.81685 0.64385 0.0
Li1321 Li 0.59211 0.77928 0.60856 0.0
Li1322 Li 0.62258 0.81461 0.53487 0.0
Li1323 Li 0.59296 0.82012 0.60706 0.0
C1324 C 0.64572 0.7862 0.60585 0.0
N1325 N 0.68206 0.77503 0.64131 0.0
C1326 C 0.64283 0.77284 0.65977 0.0
C1327 C 0.66704 0.79376 0.56977 0.0
C1328 C 0.66144 0.76743 0.67699 0.0
C1329 C 0.68521 0.78795 0.58851 0.0
C1330 C 0.57006 0.78932 0.70417 0.0
C1331 C 0.52501 0.76756 0.69563 0.0
N1332 N 0.52316 0.76704 0.75764 0.0
C1333 C 0.56769 0.78852 0.76783 0.0
C1334 C 0.54852 0.77872 0.66774 0.0
C1335 C 0.54383 0.77718 0.79397 0.0
C1336 C 0.64294 0.83433 0.76054 0.0
N1337 N 0.65117 0.82905 0.70809 0.0
C1338 C 0.69079 0.8411 0.75347 0.0
C1339 C 0.67476 0.8327 0.70328 0.0
C1340 C 0.68251 0.84613 0.80855 0.0
C1341 C 0.65838 0.84294 0.81168 0.0
H1342 H 0.62433 0.83187 0.76253 0.0
H1343 H 0.68132 0.82944 0.66048 0.0
C1344 C 0.55911 0.72538 0.58825 0.0
N1345 N 0.57276 0.74399 0.62885 0.0
C1346 C 0.5456 0.70037 0.60802 0.0
C1347 C 0.56024 0.7142 0.71074 0.0
C1348 C 0.57362 0.73874 0.68897 0.0
C1349 C 0.54593 0.69444 0.67031 0.0
H1350 H 0.55875 0.7299 0.54059 0.0
H1351 H 0.58468 0.75373 0.72059 0.0
C1352 C 0.64947 0.86359 0.6118 0.0
N1353 N 0.69133 0.90418 0.66139 0.0
C1354 C 0.64685 0.88004 0.65095 0.0
C1355 C 0.67343 0.86791 0.59748 0.0
C1356 C 0.66823 0.90041 0.6757 0.0
C1357 C 0.69434 0.88851 0.62306 0.0
C1358 C 0.57223 0.80007 0.49065 0.0
C1359 C 0.58484 0.82278 0.45911 0.0
C1360 C 0.54756 0.78263 0.47498 0.0
C1361 C 0.57252 0.82766 0.41211 0.0
C1362 C 0.53587 0.78823 0.42777 0.0
N1363 N 0.54849 0.81043 0.39757 0.0
C1364 C 0.64418 0.80793 0.42222 0.0
C1365 C 0.65583 0.84954 0.44818 0.0
C1366 C 0.66146 0.81645 0.37364 0.0
N1367 N 0.64194 0.82451 0.459 0.0
C1368 C 0.67368 0.85887 0.4014 0.0
C1369 C 0.67707 0.84239 0.36313 0.0
H1370 H 0.6331 0.78808 0.43164 0.0
H1371 H 0.65375 0.86249 0.47747 0.0
C1372 C 0.57736 0.8455 0.68405 0.0
N1373 N 0.57368 0.83635 0.626 0.0
C1374 C 0.56462 0.85737 0.70581 0.0
C1375 C 0.54428 0.85034 0.60769 0.0
C1376 C 0.55732 0.83838 0.58788 0.0
C1377 C 0.54787 0.86008 0.66747 0.0
H1378 H 0.59037 0.84364 0.71372 0.0
H1379 H 0.55425 0.83073 0.54228 0.0
O1380 O 0.62769 0.79162 0.58795 0.0
O1381 O 0.59341 0.80053 0.67812 0.0
O1382 O 0.62874 0.84325 0.58799 0.0
O1383 O 0.58388 0.7949 0.53688 0.0
H1384 H 0.62662 0.76707 0.68851 0.0
H1385 H 0.66964 0.80419 0.52803 0.0
H1386 H 0.65952 0.75726 0.71883 0.0
H1387 H 0.70184 0.79376 0.56116 0.0
H1388 H 0.50822 0.75933 0.66796 0.0
H1389 H 0.58412 0.79652 0.7968 0.0
H1390 H 0.54985 0.77907 0.61851 0.0
H1391 H 0.54175 0.77645 0.84316 0.0
H1392 H 0.70952 0.84391 0.74908 0.0
H1393 H 0.65138 0.84667 0.85347 0.0
H1394 H 0.53527 0.68586 0.57458 0.0
H1395 H 0.56091 0.71092 0.75914 0.0
H1396 H 0.62854 0.87717 0.66214 0.0
H1397 H 0.67584 0.85516 0.56804 0.0
H1398 H 0.66645 0.91323 0.70627 0.0
H1399 H 0.71296 0.89193 0.61279 0.0
H1400 H 0.60379 0.83663 0.47132 0.0
H1401 H 0.53756 0.76498 0.49914 0.0
H1402 H 0.58201 0.84519 0.38739 0.0
H1403 H 0.51677 0.77492 0.41516 0.0
H1404 H 0.66259 0.80272 0.34515 0.0
H1405 H 0.68519 0.87896 0.39707 0.0
H1406 H 0.56828 0.8648 0.75187 0.0
H1407 H 0.53132 0.85172 0.57668 0.0
Li1408 Li 0.25759 0.81592 0.60905 0.0
Li1409 Li 0.21866 0.81401 0.65152 0.0
Li1410 Li 0.21648 0.7782 0.60421 0.0
Li1411 Li 0.22145 0.81263 0.5388 0.0
C1412 C 0.23008 0.77745 0.71881 0.0
N1413 N 0.21673 0.73815 0.79934 0.0
C1414 C 0.21088 0.7712 0.76125 0.0
C1415 C 0.2425 0.76368 0.7175 0.0
C1416 C 0.2044 0.75129 0.80152 0.0
C1417 C 0.23548 0.7439 0.75856 0.0
C1418 C 0.2537 0.86415 0.61323 0.0
C1419 C 0.2539 0.90334 0.60614 0.0
N1420 N 0.27305 0.91369 0.64709 0.0
C1421 C 0.27359 0.87531 0.65472 0.0
C1422 C 0.24396 0.87839 0.58825 0.0
C1423 C 0.28301 0.9003 0.67149 0.0
C1424 C 0.3101 0.85167 0.59286 0.0
N1425 N 0.29308 0.83169 0.62588 0.0
C1426 C 0.32498 0.83692 0.697 0.0
C1427 C 0.3001 0.8243 0.67719 0.0
C1428 C 0.34303 0.858 0.66488 0.0
C1429 C 0.33518 0.86522 0.61177 0.0
H1430 H 0.304 0.85776 0.55333 0.0
H1431 H 0.28626 0.80906 0.7042 0.0
C1432 C 0.18285 0.81496 0.73154 0.0
N1433 N 0.20766 0.82527 0.7188 0.0
C1434 C 0.1751 0.82278 0.78254 0.0
C1435 C 0.21855 0.85061 0.80849 0.0
C1436 C 0.22544 0.84225 0.75692 0.0
C1437 C 0.19308 0.84096 0.82142 0.0
H1438 H 0.16902 0.80018 0.7033 0.0
H1439 H 0.24496 0.84887 0.74811 0.0
C1440 C 0.23748 0.77405 0.5017 0.0
N1441 N 0.22951 0.73248 0.43591 0.0
C1442 C 0.21469 0.75937 0.47171 0.0
C1443 C 0.25631 0.76778 0.4979 0.0
C1444 C 0.21099 0.73835 0.43883 0.0
C1445 C 0.25189 0.74664 0.46442 0.0
C1446 C 0.1732 0.79468 0.58355 0.0
C1447 C 0.14929 0.7745 0.57178 0.0
C1448 C 0.17702 0.819 0.58419 0.0
C1449 C 0.12958 0.77905 0.56079 0.0
C1450 C 0.15685 0.82279 0.57303 0.0
N1451 N 0.13374 0.8029 0.56162 0.0
C1452 C 0.17624 0.73326 0.64452 0.0
C1453 C 0.20954 0.72753 0.6109 0.0
C1454 C 0.16342 0.7089 0.66768 0.0
N1455 N 0.199 0.74225 0.61742 0.0
C1456 C 0.19734 0.70298 0.63355 0.0
C1457 C 0.17411 0.69349 0.66337 0.0
H1458 H 0.16862 0.74552 0.65127 0.0
H1459 H 0.22802 0.7352 0.59146 0.0
C1460 C 0.22721 0.84681 0.44054 0.0
N1461 N 0.21217 0.82359 0.46427 0.0
C1462 C 0.21865 0.85596 0.39297 0.0
C1463 C 0.17939 0.8171 0.39455 0.0
C1464 C 0.18895 0.80849 0.44069 0.0
C1465 C 0.19411 0.84132 0.36983 0.0
H1466 H 0.2457 0.85855 0.45952 0.0
H1467 H 0.17733 0.78995 0.45928 0.0
O1468 O 0.2363 0.79657 0.67803 0.0
O1469 O 0.24453 0.83977 0.59547 0.0
O1470 O 0.24141 0.7946 0.53424 0.0
O1471 O 0.19278 0.79054 0.59323 0.0
H1472 H 0.20087 0.78141 0.76278 0.0
H1473 H 0.25693 0.76772 0.68395 0.0
H1474 H 0.18951 0.74621 0.83436 0.0
H1475 H 0.24478 0.73296 0.75758 0.0
H1476 H 0.24646 0.91451 0.58728 0.0
H1477 H 0.28141 0.86469 0.67471 0.0
H1478 H 0.22897 0.87042 0.55507 0.0
H1479 H 0.29824 0.90905 0.70397 0.0
H1480 H 0.32985 0.83019 0.73751 0.0
H1481 H 0.348 0.88163 0.58587 0.0
H1482 H 0.15527 0.81428 0.79218 0.0
H1483 H 0.23298 0.8645 0.83776 0.0
H1484 H 0.19996 0.76403 0.47433 0.0
H1485 H 0.27407 0.77904 0.52084 0.0
H1486 H 0.19339 0.7267 0.41569 0.0
H1487 H 0.26624 0.74147 0.46122 0.0
H1488 H 0.14603 0.75555 0.57057 0.0
H1489 H 0.19529 0.8347 0.5939 0.0
H1490 H 0.11099 0.76363 0.55146 0.0
H1491 H 0.15956 0.84154 0.57353 0.0
H1492 H 0.14577 0.7026 0.691 0.0
H1493 H 0.2062 0.6917 0.62867 0.0
H1494 H 0.23125 0.87442 0.375 0.0
H1495 H 0.16029 0.80489 0.38005 0.0
Li1496 Li 0.2161 0.44236 0.6078 0.0
Li1497 Li 0.2179 0.40717 0.64525 0.0
Li1498 Li 0.25574 0.44067 0.60747 0.0
Li1499 Li 0.2203 0.4109 0.53617 0.0
C1500 C 0.24847 0.46511 0.70223 0.0
N1501 N 0.27376 0.51269 0.75199 0.0
C1502 C 0.24997 0.46836 0.76569 0.0
C1503 C 0.25982 0.48614 0.66414 0.0
C1504 C 0.26283 0.49254 0.78993 0.0
C1505 C 0.27252 0.51001 0.69017 0.0
C1506 C 0.16917 0.389 0.6083 0.0
C1507 C 0.13118 0.34946 0.59408 0.0
N1508 N 0.12199 0.35321 0.64711 0.0
C1509 C 0.15929 0.39253 0.66246 0.0
C1510 C 0.15498 0.36735 0.57363 0.0
C1511 C 0.13544 0.37418 0.6814 0.0
C1512 C 0.19434 0.47452 0.58463 0.0
N1513 N 0.20031 0.46201 0.62639 0.0
C1514 C 0.18386 0.47574 0.70754 0.0
C1515 C 0.19499 0.46222 0.6867 0.0
C1516 C 0.17727 0.48885 0.66594 0.0
C1517 C 0.18261 0.48795 0.60341 0.0
H1518 H 0.19846 0.47392 0.53678 0.0
H1519 H 0.19939 0.4518 0.7192 0.0
C1520 C 0.21847 0.39256 0.76388 0.0
N1521 N 0.20591 0.38379 0.71036 0.0
C1522 C 0.21141 0.37727 0.81531 0.0
C1523 C 0.17894 0.3439 0.75518 0.0
C1524 C 0.18666 0.35987 0.70487 0.0
C1525 C 0.19132 0.35265 0.81132 0.0
H1526 H 0.23411 0.41143 0.76648 0.0
H1527 H 0.17755 0.35298 0.66136 0.0
C1528 C 0.25689 0.46093 0.49025 0.0
N1529 N 0.29129 0.48397 0.39742 0.0
C1530 C 0.26615 0.44768 0.45815 0.0
C1531 C 0.2651 0.48588 0.47522 0.0
C1532 C 0.28352 0.45966 0.41129 0.0
C1533 C 0.28253 0.49722 0.42816 0.0
C1534 C 0.24235 0.38438 0.61614 0.0
C1535 C 0.26118 0.38778 0.65716 0.0
C1536 C 0.22328 0.36012 0.60209 0.0
C1537 C 0.26048 0.36686 0.68396 0.0
C1538 C 0.22327 0.33968 0.62973 0.0
N1539 N 0.2417 0.34345 0.66983 0.0
C1540 C 0.29634 0.45729 0.6861 0.0
C1541 C 0.31019 0.47321 0.58647 0.0
C1542 C 0.32087 0.46972 0.70813 0.0
N1543 N 0.29131 0.45925 0.62634 0.0
C1544 C 0.33518 0.48568 0.60647 0.0
C1545 C 0.34073 0.48407 0.66819 0.0
H1546 H 0.28116 0.44582 0.71694 0.0
H1547 H 0.30602 0.47474 0.53929 0.0
C1548 C 0.19179 0.38919 0.42412 0.0
N1549 N 0.21035 0.39102 0.46124 0.0
C1550 C 0.18266 0.37171 0.376 0.0
C1551 C 0.21188 0.35837 0.40513 0.0
C1552 C 0.22084 0.37648 0.45132 0.0
C1553 C 0.19229 0.35544 0.36641 0.0
H1554 H 0.18356 0.40081 0.43283 0.0
H1555 H 0.23571 0.37829 0.48081 0.0
O1556 O 0.23597 0.44141 0.67804 0.0
O1557 O 0.19245 0.40674 0.5888 0.0
O1558 O 0.23985 0.44959 0.53619 0.0
O1559 O 0.24248 0.40468 0.5902 0.0
H1560 H 0.24122 0.45236 0.79597 0.0
H1561 H 0.25892 0.48417 0.61507 0.0
H1562 H 0.26412 0.49529 0.83894 0.0
H1563 H 0.2814 0.52641 0.66118 0.0
H1564 H 0.12003 0.33257 0.56785 0.0
H1565 H 0.17007 0.40904 0.69008 0.0
H1566 H 0.16235 0.36429 0.53168 0.0
H1567 H 0.12764 0.37659 0.72346 0.0
H1568 H 0.18072 0.476 0.75614 0.0
H1569 H 0.17751 0.4972 0.56896 0.0
H1570 H 0.2214 0.38473 0.85786 0.0
H1571 H 0.16373 0.32482 0.74996 0.0
H1572 H 0.26029 0.42849 0.46984 0.0
H1573 H 0.25807 0.49638 0.4997 0.0
H1574 H 0.29091 0.44966 0.38616 0.0
H1575 H 0.28908 0.51653 0.41605 0.0
H1576 H 0.27618 0.40633 0.66826 0.0
H1577 H 0.20828 0.35709 0.57132 0.0
H1578 H 0.27489 0.36925 0.71598 0.0
H1579 H 0.2085 0.32083 0.61967 0.0
H1580 H 0.32429 0.46768 0.7558 0.0
H1581 H 0.34998 0.49672 0.5742 0.0
H1582 H 0.16808 0.37099 0.34712 0.0
H1583 H 0.21994 0.34637 0.40157 0.0
loop_
_geom_bond_atom_site_label_1
_geom_bond_atom_site_label_2
_geom_bond_distance
_geom_bond_site_symmetry_2
_ccdc_geom_bond_type
Li0 N17 1.990 . S
Li0 O60 1.956 . S
Li0 O61 1.970 . S
Li0 O62 1.961 . S
Li1 N25 1.990 . S
Li1 O60 1.970 . S
Li1 O61 1.956 . S
Li1 O63 1.961 1_554 S
Li2 N47 1.990 1_554 S
Li2 O60 1.961 . S
Li2 O62 1.956 . S
Li2 O63 1.970 1_554 S
Li3 N53 1.990 . S
Li3 O61 1.961 . S
Li3 O62 1.970 . S
Li3 O63 1.956 1_554 S
C4 C6 1.348 . S
C4 C7 1.356 . S
C4 O60 1.325 . S
N5 C8 1.314 . S
N5 C9 1.279 . S
C6 C4 1.348 . S
C6 C8 1.353 . S
C6 H64 0.929 . S
C7 C4 1.356 . S
C7 C9 1.358 . S
C7 H65 0.930 . S
C8 N5 1.314 . S
C8 C6 1.353 . S
C8 H66 0.930 . S
C9 N5 1.279 . S
C9 C7 1.358 . S
C9 H67 0.930 . S
C10 C13 1.348 . S
C10 C14 1.356 . S
C10 O61 1.325 . S
C11 N12 1.279 . S
C11 C14 1.358 . S
C11 H68 0.930 . S
N12 C11 1.279 . S
N12 C15 1.314 . S
C13 C10 1.348 . S
C13 C15 1.353 . S
C13 H69 0.929 . S
C14 C10 1.356 . S
C14 C11 1.358 . S
C14 H70 0.930 . S
C15 N12 1.314 . S
C15 C13 1.353 . S
C15 H71 0.930 . S
C16 N17 1.314 . S
C16 C21 1.353 . S
C16 H22 0.930 . S
N17 Li0 1.990 . S
N17 C16 1.314 . S
N17 C19 1.279 . S
C18 C19 1.358 . S
C18 C20 1.356 . S
C18 H72 0.930 . S
C19 N17 1.279 . S
C19 C18 1.358 . S
C19 H23 0.930 . S
C20 C18 1.356 . S
C20 C21 1.348 . S
C21 C16 1.353 . S
C21 C20 1.348 . S
C21 H73 0.929 . S
H22 C16 0.930 . S
H23 C19 0.930 . S
C24 N25 1.321 . S
C24 C26 1.352 1_554 S
C24 H30 0.923 1_554 S
N25 Li1 1.990 . S
N25 C24 1.321 . S
N25 C28 1.279 . S
C26 C24 1.352 1_556 S
C26 C29 1.348 1_556 S
C26 H74 0.929 . S
C27 C28 1.358 . S
C27 C29 1.356 . S
C27 H75 0.930 . S
C28 N25 1.279 . S
C28 C27 1.358 . S
C28 H31 0.930 . S
C29 C26 1.348 1_554 S
C29 C27 1.356 . S
H30 C24 0.923 1_556 S
H31 C28 0.930 . S
C32 C34 1.348 . S
C32 C35 1.356 . S
C32 O62 1.325 . S
N33 C36 1.314 . S
N33 C37 1.279 . S
C34 C32 1.348 . S
C34 C36 1.353 . S
C34 H76 0.929 . S
C35 C32 1.356 . S
C35 C37 1.358 . S
C35 H77 0.930 . S
C36 N33 1.314 . S
C36 C34 1.353 . S
C36 H78 0.930 . S
C37 N33 1.279 . S
C37 C35 1.358 . S
C37 H79 0.930 . S
C38 C39 1.348 . S
C38 C40 1.356 . S
C38 O63 1.325 . S
C39 C38 1.348 . S
C39 C41 1.353 . S
C39 H80 0.929 . S
C40 C38 1.356 . S
C40 C42 1.358 . S
C40 H81 0.930 . S
C41 C39 1.353 . S
C41 N43 1.314 . S
C41 H82 0.930 . S
C42 C40 1.358 . S
C42 N43 1.279 . S
C42 H83 0.930 . S
N43 C41 1.314 . S
N43 C42 1.279 . S
C44 C46 1.353 . S
C44 N47 1.314 . S
C44 H50 0.930 . S
C45 N47 1.279 . S
C45 C48 1.358 . S
C45 H51 0.930 . S
C46 C44 1.353 . S
C46 C49 1.348 . S
C46 H84 0.929 . S
N47 Li2 1.990 1_556 S
N47 C44 1.314 . S
N47 C45 1.279 . S
C48 C45 1.358 . S
C48 C49 1.356 . S
C48 H85 0.930 . S
C49 C46 1.348 . S
C49 C48 1.356 . S
H50 C44 0.930 . S
H51 C45 0.930 . S
C52 N53 1.314 . S
C52 C54 1.353 . S
C52 H58 0.930 . S
N53 Li3 1.990 . S
N53 C52 1.314 . S
N53 C56 1.279 1_554 S
C54 C52 1.353 . S
C54 C57 1.348 . S
C54 H86 0.929 . S
C55 C56 1.358 . S
C55 C57 1.356 1_556 S
C55 H87 0.930 . S
C56 N53 1.279 1_556 S
C56 C55 1.358 . S
C56 H59 0.930 . S
C57 C54 1.348 . S
C57 C55 1.356 1_554 S
H58 C52 0.930 . S
H59 C56 0.930 . S
O60 Li0 1.956 . S
O60 Li1 1.970 . S
O60 Li2 1.961 . S
O60 C4 1.325 . S
O61 Li0 1.970 . S
O61 Li1 1.956 . S
O61 Li3 1.961 . S
O61 C10 1.325 . S
O62 Li0 1.961 . S
O62 Li2 1.956 . S
O62 Li3 1.970 . S
O62 C32 1.325 . S
O63 Li1 1.961 1_556 S
O63 Li2 1.970 1_556 S
O63 Li3 1.956 1_556 S
O63 C38 1.325 . S
H64 C6 0.929 . S
H65 C7 0.930 . S
H66 C8 0.930 . S
H67 C9 0.930 . S
H68 C11 0.930 . S
H69 C13 0.929 . S
H70 C14 0.930 . S
H71 C15 0.930 . S
H72 C18 0.930 . S
H73 C21 0.929 . S
H74 C26 0.929 . S
H75 C27 0.930 . S
H76 C34 0.929 . S
H77 C35 0.930 . S
H78 C36 0.930 . S
H79 C37 0.930 . S
H80 C39 0.929 . S
H81 C40 0.930 . S
H82 C41 0.930 . S
H83 C42 0.930 . S
H84 C46 0.929 . S
H85 C48 0.930 . S
H86 C54 0.929 . S
H87 C55 0.930 . S
Li88 N105 1.990 . S
Li88 O148 1.956 . S
Li88 O149 1.970 . S
Li88 O150 1.961 1_554 S
Li89 N113 1.990 . S
Li89 O148 1.970 . S
Li89 O149 1.956 . S
Li89 O151 1.961 . S
Li90 N135 1.990 . S
Li90 O148 1.961 . S
Li90 O150 1.956 1_554 S
Li90 O151 1.970 . S
Li91 N141 1.990 1_554 S
Li91 O149 1.961 . S
Li91 O150 1.970 1_554 S
Li91 O151 1.956 . S
C92 C94 1.348 . S
C92 C95 1.356 . S
C92 O148 1.325 . S
N93 C96 1.314 . S
N93 C97 1.279 . S
C94 C92 1.348 . S
C94 C96 1.353 . S
C94 H152 0.929 . S
C95 C92 1.356 . S
C95 C97 1.358 . S
C95 H153 0.930 . S
C96 N93 1.314 . S
C96 C94 1.353 . S
C96 H154 0.930 . S
C97 N93 1.279 . S
C97 C95 1.358 . S
C97 H155 0.930 . S
C98 C101 1.348 . S
C98 C102 1.356 . S
C98 O149 1.325 . S
C99 N100 1.279 . S
C99 C102 1.358 . S
C99 H156 0.930 . S
N100 C99 1.279 . S
N100 C103 1.314 . S
C101 C98 1.348 . S
C101 C103 1.353 . S
C101 H157 0.929 . S
C102 C98 1.356 . S
C102 C99 1.358 . S
C102 H158 0.930 . S
C103 N100 1.314 . S
C103 C101 1.353 . S
C103 H159 0.930 . S
C104 N105 1.321 . S
C104 C109 1.352 1_554 S
C104 H110 0.923 1_554 S
N105 Li88 1.990 . S
N105 C104 1.321 . S
N105 C107 1.279 . S
C106 C107 1.358 . S
C106 C108 1.356 . S
C106 H160 0.930 . S
C107 N105 1.279 . S
C107 C106 1.358 . S
C107 H111 0.930 . S
C108 C106 1.356 . S
C108 C109 1.348 1_554 S
C109 C104 1.352 1_556 S
C109 C108 1.348 1_556 S
C109 H161 0.929 . S
H110 C104 0.923 1_556 S
H111 C107 0.930 . S
C112 N113 1.314 . S
C112 C114 1.353 . S
C112 H118 0.930 . S
N113 Li89 1.990 . S
N113 C112 1.314 . S
N113 C116 1.279 . S
C114 C112 1.353 . S
C114 C117 1.348 . S
C114 H162 0.929 . S
C115 C116 1.358 . S
C115 C117 1.356 . S
C115 H163 0.930 . S
C116 N113 1.279 . S
C116 C115 1.358 . S
C116 H119 0.930 . S
C117 C114 1.348 . S
C117 C115 1.356 . S
H118 C112 0.930 . S
H119 C116 0.930 . S
C120 C122 1.348 . S
C120 C123 1.356 . S
C120 O150 1.325 . S
N121 C124 1.314 . S
N121 C125 1.279 . S
C122 C120 1.348 . S
C122 C124 1.353 . S
C122 H164 0.929 . S
C123 C120 1.356 . S
C123 C125 1.358 . S
C123 H165 0.930 . S
C124 N121 1.314 . S
C124 C122 1.353 . S
C124 H166 0.930 . S
C125 N121 1.279 . S
C125 C123 1.358 . S
C125 H167 0.930 . S
C126 C127 1.348 . S
C126 C128 1.356 . S
C126 O151 1.325 . S
C127 C126 1.348 . S
C127 C129 1.353 . S
C127 H168 0.929 . S
C128 C126 1.356 . S
C128 C130 1.358 . S
C128 H169 0.930 . S
C129 C127 1.353 . S
C129 N131 1.314 . S
C129 H170 0.930 . S
C130 C128 1.358 . S
C130 N131 1.279 . S
C130 H171 0.930 . S
N131 C129 1.314 . S
N131 C130 1.279 . S
C132 C134 1.353 . S
C132 N135 1.314 . S
C132 H138 0.930 . S
C133 N135 1.279 1_556 S
C133 C136 1.358 . S
C133 H139 0.930 . S
C134 C132 1.353 . S
C134 C137 1.348 . S
C134 H172 0.929 . S
N135 Li90 1.990 . S
N135 C132 1.314 . S
N135 C133 1.279 1_554 S
C136 C133 1.358 . S
C136 C137 1.356 1_556 S
C136 H173 0.930 . S
C137 C134 1.348 . S
C137 C136 1.356 1_554 S
H138 C132 0.930 . S
H139 C133 0.930 . S
C140 N141 1.314 . S
C140 C142 1.353 . S
C140 H146 0.930 . S
N141 Li91 1.990 1_556 S
N141 C140 1.314 . S
N141 C144 1.279 . S
C142 C140 1.353 . S
C142 C145 1.348 . S
C142 H174 0.929 . S
C143 C144 1.358 . S
C143 C145 1.356 . S
C143 H175 0.930 . S
C144 N141 1.279 . S
C144 C143 1.358 . S
C144 H147 0.930 . S
C145 C142 1.348 . S
C145 C143 1.356 . S
H146 C140 0.930 . S
H147 C144 0.930 . S
O148 Li88 1.956 . S
O148 Li89 1.970 . S
O148 Li90 1.961 . S
O148 C92 1.325 . S
O149 Li88 1.970 . S
O149 Li89 1.956 . S
O149 Li91 1.961 . S
O149 C98 1.325 . S
O150 Li88 1.961 1_556 S
O150 Li90 1.956 1_556 S
O150 Li91 1.970 1_556 S
O150 C120 1.325 . S
O151 Li89 1.961 . S
O151 Li90 1.970 . S
O151 Li91 1.956 . S
O151 C126 1.325 . S
H152 C94 0.929 . S
H153 C95 0.930 . S
H154 C96 0.930 . S
H155 C97 0.930 . S
H156 C99 0.930 . S
H157 C101 0.929 . S
H158 C102 0.930 . S
H159 C103 0.930 . S
H160 C106 0.930 . S
H161 C109 0.929 . S
H162 C114 0.929 . S
H163 C115 0.930 . S
H164 C122 0.929 . S
H165 C123 0.930 . S
H166 C124 0.930 . S
H167 C125 0.930 . S
H168 C127 0.929 . S
H169 C128 0.930 . S
H170 C129 0.930 . S
H171 C130 0.930 . S
H172 C134 0.929 . S
H173 C136 0.930 . S
H174 C142 0.929 . S
H175 C143 0.930 . S
Li176 N193 1.990 . S
Li176 O236 1.956 . S
Li176 O237 1.970 . S
Li176 O238 1.961 . S
Li177 N201 1.990 . S
Li177 O236 1.970 . S
Li177 O237 1.956 . S
Li177 O239 1.961 1_554 S
Li178 N223 1.990 1_554 S
Li178 O236 1.961 . S
Li178 O238 1.956 . S
Li178 O239 1.970 1_554 S
Li179 N229 1.990 . S
Li179 O237 1.961 . S
Li179 O238 1.970 . S
Li179 O239 1.956 1_554 S
C180 C182 1.348 . S
C180 C183 1.356 . S
C180 O236 1.325 . S
N181 C184 1.314 . S
N181 C185 1.279 . S
C182 C180 1.348 . S
C182 C184 1.353 . S
C182 H240 0.929 . S
C183 C180 1.356 . S
C183 C185 1.358 . S
C183 H241 0.930 . S
C184 N181 1.314 . S
C184 C182 1.353 . S
C184 H242 0.930 . S
C185 N181 1.279 . S
C185 C183 1.358 . S
C185 H243 0.930 . S
C186 C189 1.348 . S
C186 C190 1.356 . S
C186 O237 1.325 . S
C187 N188 1.279 . S
C187 C190 1.358 . S
C187 H244 0.930 . S
N188 C187 1.279 . S
N188 C191 1.314 . S
C189 C186 1.348 . S
C189 C191 1.353 . S
C189 H245 0.929 . S
C190 C186 1.356 . S
C190 C187 1.358 . S
C190 H246 0.930 . S
C191 N188 1.314 . S
C191 C189 1.353 . S
C191 H247 0.930 . S
C192 N193 1.314 . S
C192 C197 1.353 . S
C192 H198 0.930 . S
N193 Li176 1.990 . S
N193 C192 1.314 . S
N193 C195 1.279 . S
C194 C195 1.358 . S
C194 C196 1.356 . S
C194 H248 0.930 . S
C195 N193 1.279 . S
C195 C194 1.358 . S
C195 H199 0.930 . S
C196 C194 1.356 . S
C196 C197 1.348 . S
C197 C192 1.353 . S
C197 C196 1.348 . S
C197 H249 0.929 . S
H198 C192 0.930 . S
H199 C195 0.930 . S
C200 N201 1.321 . S
C200 C202 1.352 1_554 S
C200 H206 0.923 1_554 S
N201 Li177 1.990 . S
N201 C200 1.321 . S
N201 C204 1.279 . S
C202 C200 1.352 1_556 S
C202 C205 1.348 1_556 S
C202 H250 0.929 . S
C203 C204 1.358 . S
C203 C205 1.356 . S
C203 H251 0.930 . S
C204 N201 1.279 . S
C204 C203 1.358 . S
C204 H207 0.930 . S
C205 C202 1.348 1_554 S
C205 C203 1.356 . S
H206 C200 0.923 1_556 S
H207 C204 0.930 . S
C208 C210 1.348 . S
C208 C211 1.356 . S
C208 O238 1.325 . S
N209 C212 1.314 . S
N209 C213 1.279 . S
C210 C208 1.348 . S
C210 C212 1.353 . S
C210 H252 0.929 . S
C211 C208 1.356 . S
C211 C213 1.358 . S
C211 H253 0.930 . S
C212 N209 1.314 . S
C212 C210 1.353 . S
C212 H254 0.930 . S
C213 N209 1.279 . S
C213 C211 1.358 . S
C213 H255 0.930 . S
C214 C215 1.348 . S
C214 C216 1.356 . S
C214 O239 1.325 . S
C215 C214 1.348 . S
C215 C217 1.353 . S
C215 H256 0.929 . S
C216 C214 1.356 . S
C216 C218 1.358 . S
C216 H257 0.930 . S
C217 C215 1.353 . S
C217 N219 1.314 . S
C217 H258 0.930 . S
C218 C216 1.358 . S
C218 N219 1.279 . S
C218 H259 0.930 . S
N219 C217 1.314 . S
N219 C218 1.279 . S
C220 C222 1.353 . S
C220 N223 1.314 . S
C220 H226 0.930 . S
C221 N223 1.279 . S
C221 C224 1.358 . S
C221 H227 0.930 . S
C222 C220 1.353 . S
C222 C225 1.348 . S
C222 H260 0.929 . S
N223 Li178 1.990 1_556 S
N223 C220 1.314 . S
N223 C221 1.279 . S
C224 C221 1.358 . S
C224 C225 1.356 . S
C224 H261 0.930 . S
C225 C222 1.348 . S
C225 C224 1.356 . S
H226 C220 0.930 . S
H227 C221 0.930 . S
C228 N229 1.314 . S
C228 C230 1.353 . S
C228 H234 0.930 . S
N229 Li179 1.990 . S
N229 C228 1.314 . S
N229 C232 1.279 1_554 S
C230 C228 1.353 . S
C230 C233 1.348 . S
C230 H262 0.929 . S
C231 C232 1.358 . S
C231 C233 1.356 1_556 S
C231 H263 0.930 . S
C232 N229 1.279 1_556 S
C232 C231 1.358 . S
C232 H235 0.930 . S
C233 C230 1.348 . S
C233 C231 1.356 1_554 S
H234 C228 0.930 . S
H235 C232 0.930 . S
O236 Li176 1.956 . S
O236 Li177 1.970 . S
O236 Li178 1.961 . S
O236 C180 1.325 . S
O237 Li176 1.970 . S
O237 Li177 1.956 . S
O237 Li179 1.961 . S
O237 C186 1.325 . S
O238 Li176 1.961 . S
O238 Li178 1.956 . S
O238 Li179 1.970 . S
O238 C208 1.325 . S
O239 Li177 1.961 1_556 S
O239 Li178 1.970 1_556 S
O239 Li179 1.956 1_556 S
O239 C214 1.325 . S
H240 C182 0.929 . S
H241 C183 0.930 . S
H242 C184 0.930 . S
H243 C185 0.930 . S
H244 C187 0.930 . S
H245 C189 0.929 . S
H246 C190 0.930 . S
H247 C191 0.930 . S
H248 C194 0.930 . S
H249 C197 0.929 . S
H250 C202 0.929 . S
H251 C203 0.930 . S
H252 C210 0.929 . S
H253 C211 0.930 . S
H254 C212 0.930 . S
H255 C213 0.930 . S
H256 C215 0.929 . S
H257 C216 0.930 . S
H258 C217 0.930 . S
H259 C218 0.930 . S
H260 C222 0.929 . S
H261 C224 0.930 . S
H262 C230 0.929 . S
H263 C231 0.930 . S
Li264 N281 1.990 . S
Li264 O324 1.956 1_556 S
Li264 O325 1.970 . S
Li264 O326 1.961 . S
Li265 N289 1.990 1_556 S
Li265 O324 1.970 1_556 S
Li265 O325 1.956 . S
Li265 O327 1.961 . S
Li266 N311 1.990 . S
Li266 O324 1.961 1_556 S
Li266 O326 1.956 . S
Li266 O327 1.970 . S
Li267 N317 1.990 . S
Li267 O325 1.961 . S
Li267 O326 1.970 . S
Li267 O327 1.956 . S
C268 C270 1.348 . S
C268 C271 1.356 . S
C268 O324 1.325 . S
N269 C272 1.314 . S
N269 C273 1.279 . S
C270 C268 1.348 . S
C270 C272 1.353 . S
C270 H328 0.929 . S
C271 C268 1.356 . S
C271 C273 1.358 . S
C271 H329 0.930 . S
C272 N269 1.314 . S
C272 C270 1.353 . S
C272 H330 0.930 . S
C273 N269 1.279 . S
C273 C271 1.358 . S
C273 H331 0.930 . S
C274 C277 1.348 . S
C274 C278 1.356 . S
C274 O325 1.325 . S
C275 N276 1.279 . S
C275 C278 1.358 . S
C275 H332 0.930 . S
N276 C275 1.279 . S
N276 C279 1.314 . S
C277 C274 1.348 . S
C277 C279 1.353 . S
C277 H333 0.929 . S
C278 C274 1.356 . S
C278 C275 1.358 . S
C278 H334 0.930 . S
C279 N276 1.314 . S
C279 C277 1.353 . S
C279 H335 0.930 . S
C280 N281 1.314 . S
C280 C285 1.353 . S
C280 H286 0.930 . S
N281 Li264 1.990 . S
N281 C280 1.314 . S
N281 C283 1.279 1_556 S
C282 C283 1.358 . S
C282 C284 1.356 1_554 S
C282 H336 0.930 . S
C283 N281 1.279 1_554 S
C283 C282 1.358 . S
C283 H287 0.930 . S
C284 C282 1.356 1_556 S
C284 C285 1.348 . S
C285 C280 1.353 . S
C285 C284 1.348 . S
C285 H337 0.929 . S
H286 C280 0.930 . S
H287 C283 0.930 . S
C288 N289 1.314 . S
C288 C290 1.353 . S
C288 H294 0.930 . S
N289 Li265 1.990 1_554 S
N289 C288 1.314 . S
N289 C292 1.279 . S
C290 C288 1.353 . S
C290 C293 1.348 . S
C290 H338 0.929 . S
C291 C292 1.358 . S
C291 C293 1.356 . S
C291 H339 0.930 . S
C292 N289 1.279 . S
C292 C291 1.358 . S
C292 H295 0.930 . S
C293 C290 1.348 . S
C293 C291 1.356 . S
H294 C288 0.930 . S
H295 C292 0.930 . S
C296 C298 1.348 . S
C296 C299 1.356 . S
C296 O326 1.325 . S
N297 C300 1.314 . S
N297 C301 1.279 . S
C298 C296 1.348 . S
C298 C300 1.353 . S
C298 H340 0.929 . S
C299 C296 1.356 . S
C299 C301 1.358 . S
C299 H341 0.930 . S
C300 N297 1.314 . S
C300 C298 1.353 . S
C300 H342 0.930 . S
C301 N297 1.279 . S
C301 C299 1.358 . S
C301 H343 0.930 . S
C302 C303 1.348 . S
C302 C304 1.356 . S
C302 O327 1.325 . S
C303 C302 1.348 . S
C303 C305 1.353 . S
C303 H344 0.929 . S
C304 C302 1.356 . S
C304 C306 1.358 . S
C304 H345 0.930 . S
C305 C303 1.353 . S
C305 N307 1.314 . S
C305 H346 0.930 . S
C306 C304 1.358 . S
C306 N307 1.279 . S
C306 H347 0.930 . S
N307 C305 1.314 . S
N307 C306 1.279 . S
C308 C310 1.352 1_556 S
C308 N311 1.321 . S
C308 H314 0.923 1_556 S
C309 N311 1.279 . S
C309 C312 1.358 . S
C309 H315 0.930 . S
C310 C308 1.352 1_554 S
C310 C313 1.348 1_554 S
C310 H348 0.929 . S
N311 Li266 1.990 . S
N311 C308 1.321 . S
N311 C309 1.279 . S
C312 C309 1.358 . S
C312 C313 1.356 . S
C312 H349 0.930 . S
C313 C310 1.348 1_556 S
C313 C312 1.356 . S
H314 C308 0.923 1_554 S
H315 C309 0.930 . S
C316 N317 1.314 . S
C316 C318 1.353 . S
C316 H322 0.930 . S
N317 Li267 1.990 . S
N317 C316 1.314 . S
N317 C320 1.279 . S
C318 C316 1.353 . S
C318 C321 1.348 . S
C318 H350 0.929 . S
C319 C320 1.358 . S
C319 C321 1.356 . S
C319 H351 0.930 . S
C320 N317 1.279 . S
C320 C319 1.358 . S
C320 H323 0.930 . S
C321 C318 1.348 . S
C321 C319 1.356 . S
H322 C316 0.930 . S
H323 C320 0.930 . S
O324 Li264 1.956 1_554 S
O324 Li265 1.970 1_554 S
O324 Li266 1.961 1_554 S
O324 C268 1.325 . S
O325 Li264 1.970 . S
O325 Li265 1.956 . S
O325 Li267 1.961 . S
O325 C274 1.325 . S
O326 Li264 1.961 . S
O326 Li266 1.956 . S
O326 Li267 1.970 . S
O326 C296 1.325 . S
O327 Li265 1.961 . S
O327 Li266 1.970 . S
O327 Li267 1.956 . S
O327 C302 1.325 . S
H328 C270 0.929 . S
H329 C271 0.930 . S
H330 C272 0.930 . S
H331 C273 0.930 . S
H332 C275 0.930 . S
H333 C277 0.929 . S
H334 C278 0.930 . S
H335 C279 0.930 . S
H336 C282 0.930 . S
H337 C285 0.929 . S
H338 C290 0.929 . S
H339 C291 0.930 . S
H340 C298 0.929 . S
H341 C299 0.930 . S
H342 C300 0.930 . S
H343 C301 0.930 . S
H344 C303 0.929 . S
H345 C304 0.930 . S
H346 C305 0.930 . S
H347 C306 0.930 . S
H348 C310 0.929 . S
H349 C312 0.930 . S
H350 C318 0.929 . S
H351 C319 0.930 . S
Li352 N369 1.990 . S
Li352 O412 1.956 1_556 S
Li352 O413 1.970 . S
Li352 O414 1.961 . S
Li353 N377 1.990 1_556 S
Li353 O412 1.970 1_556 S
Li353 O413 1.956 . S
Li353 O415 1.961 . S
Li354 N399 1.990 . S
Li354 O412 1.961 1_556 S
Li354 O414 1.956 . S
Li354 O415 1.970 . S
Li355 N405 1.990 . S
Li355 O413 1.961 . S
Li355 O414 1.970 . S
Li355 O415 1.956 . S
C356 C358 1.348 . S
C356 C359 1.356 . S
C356 O412 1.325 . S
N357 C360 1.314 . S
N357 C361 1.279 . S
C358 C356 1.348 . S
C358 C360 1.353 . S
C358 H416 0.929 . S
C359 C356 1.356 . S
C359 C361 1.358 . S
C359 H417 0.930 . S
C360 N357 1.314 . S
C360 C358 1.353 . S
C360 H418 0.930 . S
C361 N357 1.279 . S
C361 C359 1.358 . S
C361 H419 0.930 . S
C362 C365 1.348 . S
C362 C366 1.356 . S
C362 O413 1.325 . S
C363 N364 1.279 . S
C363 C366 1.358 . S
C363 H420 0.930 . S
N364 C363 1.279 . S
N364 C367 1.314 . S
C365 C362 1.348 . S
C365 C367 1.353 . S
C365 H421 0.929 . S
C366 C362 1.356 . S
C366 C363 1.358 . S
C366 H422 0.930 . S
C367 N364 1.314 . S
C367 C365 1.353 . S
C367 H423 0.930 . S
C368 N369 1.314 . S
C368 C373 1.353 . S
C368 H374 0.930 . S
N369 Li352 1.990 . S
N369 C368 1.314 . S
N369 C371 1.279 1_556 S
C370 C371 1.358 . S
C370 C372 1.356 1_554 S
C370 H424 0.930 . S
C371 N369 1.279 1_554 S
C371 C370 1.358 . S
C371 H375 0.930 . S
C372 C370 1.356 1_556 S
C372 C373 1.348 . S
C373 C368 1.353 . S
C373 C372 1.348 . S
C373 H425 0.929 . S
H374 C368 0.930 . S
H375 C371 0.930 . S
C376 N377 1.314 . S
C376 C378 1.353 . S
C376 H382 0.930 . S
N377 Li353 1.990 1_554 S
N377 C376 1.314 . S
N377 C380 1.279 . S
C378 C376 1.353 . S
C378 C381 1.348 . S
C378 H426 0.929 . S
C379 C380 1.358 . S
C379 C381 1.356 . S
C379 H427 0.930 . S
C380 N377 1.279 . S
C380 C379 1.358 . S
C380 H383 0.930 . S
C381 C378 1.348 . S
C381 C379 1.356 . S
H382 C376 0.930 . S
H383 C380 0.930 . S
C384 C386 1.348 . S
C384 C387 1.356 . S
C384 O414 1.325 . S
N385 C388 1.314 . S
N385 C389 1.279 . S
C386 C384 1.348 . S
C386 C388 1.353 . S
C386 H428 0.929 . S
C387 C384 1.356 . S
C387 C389 1.358 . S
C387 H429 0.930 . S
C388 N385 1.314 . S
C388 C386 1.353 . S
C388 H430 0.930 . S
C389 N385 1.279 . S
C389 C387 1.358 . S
C389 H431 0.930 . S
C390 C391 1.348 . S
C390 C392 1.356 . S
C390 O415 1.325 . S
C391 C390 1.348 . S
C391 C393 1.353 . S
C391 H432 0.929 . S
C392 C390 1.356 . S
C392 C394 1.358 . S
C392 H433 0.930 . S
C393 C391 1.353 . S
C393 N395 1.314 . S
C393 H434 0.930 . S
C394 C392 1.358 . S
C394 N395 1.279 . S
C394 H435 0.930 . S
N395 C393 1.314 . S
N395 C394 1.279 . S
C396 C398 1.352 1_556 S
C396 N399 1.321 . S
C396 H402 0.923 1_556 S
C397 N399 1.279 . S
C397 C400 1.358 . S
C397 H403 0.930 . S
C398 C396 1.352 1_554 S
C398 C401 1.348 1_554 S
C398 H436 0.929 . S
N399 Li354 1.990 . S
N399 C396 1.321 . S
N399 C397 1.279 . S
C400 C397 1.358 . S
C400 C401 1.356 . S
C400 H437 0.930 . S
C401 C398 1.348 1_556 S
C401 C400 1.356 . S
H402 C396 0.923 1_554 S
H403 C397 0.930 . S
C404 N405 1.314 . S
C404 C406 1.353 . S
C404 H410 0.930 . S
N405 Li355 1.990 . S
N405 C404 1.314 . S
N405 C408 1.279 . S
C406 C404 1.353 . S
C406 C409 1.348 . S
C406 H438 0.929 . S
C407 C408 1.358 . S
C407 C409 1.356 . S
C407 H439 0.930 . S
C408 N405 1.279 . S
C408 C407 1.358 . S
C408 H411 0.930 . S
C409 C406 1.348 . S
C409 C407 1.356 . S
H410 C404 0.930 . S
H411 C408 0.930 . S
O412 Li352 1.956 1_554 S
O412 Li353 1.970 1_554 S
O412 Li354 1.961 1_554 S
O412 C356 1.325 . S
O413 Li352 1.970 . S
O413 Li353 1.956 . S
O413 Li355 1.961 . S
O413 C362 1.325 . S
O414 Li352 1.961 . S
O414 Li354 1.956 . S
O414 Li355 1.970 . S
O414 C384 1.325 . S
O415 Li353 1.961 . S
O415 Li354 1.970 . S
O415 Li355 1.956 . S
O415 C390 1.325 . S
H416 C358 0.929 . S
H417 C359 0.930 . S
H418 C360 0.930 . S
H419 C361 0.930 . S
H420 C363 0.930 . S
H421 C365 0.929 . S
H422 C366 0.930 . S
H423 C367 0.930 . S
H424 C370 0.930 . S
H425 C373 0.929 . S
H426 C378 0.929 . S
H427 C379 0.930 . S
H428 C386 0.929 . S
H429 C387 0.930 . S
H430 C388 0.930 . S
H431 C389 0.930 . S
H432 C391 0.929 . S
H433 C392 0.930 . S
H434 C393 0.930 . S
H435 C394 0.930 . S
H436 C398 0.929 . S
H437 C400 0.930 . S
H438 C406 0.929 . S
H439 C407 0.930 . S
Li440 N457 1.990 . S
Li440 O500 1.956 1_556 S
Li440 O501 1.970 . S
Li440 O502 1.961 . S
Li441 N465 1.990 1_556 S
Li441 O500 1.970 1_556 S
Li441 O501 1.956 . S
Li441 O503 1.961 . S
Li442 N487 1.990 . S
Li442 O500 1.961 1_556 S
Li442 O502 1.956 . S
Li442 O503 1.970 . S
Li443 N493 1.990 . S
Li443 O501 1.961 . S
Li443 O502 1.970 . S
Li443 O503 1.956 . S
C444 C446 1.348 . S
C444 C447 1.356 . S
C444 O500 1.325 . S
N445 C448 1.314 . S
N445 C449 1.279 . S
C446 C444 1.348 . S
C446 C448 1.353 . S
C446 H504 0.929 . S
C447 C444 1.356 . S
C447 C449 1.358 . S
C447 H505 0.930 . S
C448 N445 1.314 . S
C448 C446 1.353 . S
C448 H506 0.930 . S
C449 N445 1.279 . S
C449 C447 1.358 . S
C449 H507 0.930 . S
C450 C453 1.348 . S
C450 C454 1.356 . S
C450 O501 1.325 . S
C451 N452 1.279 . S
C451 C454 1.358 . S
C451 H508 0.930 . S
N452 C451 1.279 . S
N452 C455 1.314 . S
C453 C450 1.348 . S
C453 C455 1.353 . S
C453 H509 0.929 . S
C454 C450 1.356 . S
C454 C451 1.358 . S
C454 H510 0.930 . S
C455 N452 1.314 . S
C455 C453 1.353 . S
C455 H511 0.930 . S
C456 N457 1.314 . S
C456 C461 1.353 . S
C456 H462 0.930 . S
N457 Li440 1.990 . S
N457 C456 1.314 . S
N457 C459 1.279 1_556 S
C458 C459 1.358 . S
C458 C460 1.356 1_554 S
C458 H512 0.930 . S
C459 N457 1.279 1_554 S
C459 C458 1.358 . S
C459 H463 0.930 . S
C460 C458 1.356 1_556 S
C460 C461 1.348 . S
C461 C456 1.353 . S
C461 C460 1.348 . S
C461 H513 0.929 . S
H462 C456 0.930 . S
H463 C459 0.930 . S
C464 N465 1.314 . S
C464 C466 1.353 . S
C464 H470 0.930 . S
N465 Li441 1.990 1_554 S
N465 C464 1.314 . S
N465 C468 1.279 . S
C466 C464 1.353 . S
C466 C469 1.348 . S
C466 H514 0.929 . S
C467 C468 1.358 . S
C467 C469 1.356 . S
C467 H515 0.930 . S
C468 N465 1.279 . S
C468 C467 1.358 . S
C468 H471 0.930 . S
C469 C466 1.348 . S
C469 C467 1.356 . S
H470 C464 0.930 . S
H471 C468 0.930 . S
C472 C474 1.348 . S
C472 C475 1.356 . S
C472 O502 1.325 . S
N473 C476 1.314 . S
N473 C477 1.279 . S
C474 C472 1.348 . S
C474 C476 1.353 . S
C474 H516 0.929 . S
C475 C472 1.356 . S
C475 C477 1.358 . S
C475 H517 0.930 . S
C476 N473 1.314 . S
C476 C474 1.353 . S
C476 H518 0.930 . S
C477 N473 1.279 . S
C477 C475 1.358 . S
C477 H519 0.930 . S
C478 C479 1.348 . S
C478 C480 1.356 . S
C478 O503 1.325 . S
C479 C478 1.348 . S
C479 C481 1.353 . S
C479 H520 0.929 . S
C480 C478 1.356 . S
C480 C482 1.358 . S
C480 H521 0.930 . S
C481 C479 1.353 . S
C481 N483 1.314 . S
C481 H522 0.930 . S
C482 C480 1.358 . S
C482 N483 1.279 . S
C482 H523 0.930 . S
N483 C481 1.314 . S
N483 C482 1.279 . S
C484 C486 1.352 1_556 S
C484 N487 1.321 . S
C484 H490 0.923 1_556 S
C485 N487 1.279 . S
C485 C488 1.358 . S
C485 H491 0.930 . S
C486 C484 1.352 1_554 S
C486 C489 1.348 1_554 S
C486 H524 0.929 . S
N487 Li442 1.990 . S
N487 C484 1.321 . S
N487 C485 1.279 . S
C488 C485 1.358 . S
C488 C489 1.356 . S
C488 H525 0.930 . S
C489 C486 1.348 1_556 S
C489 C488 1.356 . S
H490 C484 0.923 1_554 S
H491 C485 0.930 . S
C492 N493 1.314 . S
C492 C494 1.353 . S
C492 H498 0.930 . S
N493 Li443 1.990 . S
N493 C492 1.314 . S
N493 C496 1.279 . S
C494 C492 1.353 . S
C494 C497 1.348 . S
C494 H526 0.929 . S
C495 C496 1.358 . S
C495 C497 1.356 . S
C495 H527 0.930 . S
C496 N493 1.279 . S
C496 C495 1.358 . S
C496 H499 0.930 . S
C497 C494 1.348 . S
C497 C495 1.356 . S
H498 C492 0.930 . S
H499 C496 0.930 . S
O500 Li440 1.956 1_554 S
O500 Li441 1.970 1_554 S
O500 Li442 1.961 1_554 S
O500 C444 1.325 . S
O501 Li440 1.970 . S
O501 Li441 1.956 . S
O501 Li443 1.961 . S
O501 C450 1.325 . S
O502 Li440 1.961 . S
O502 Li442 1.956 . S
O502 Li443 1.970 . S
O502 C472 1.325 . S
O503 Li441 1.961 . S
O503 Li442 1.970 . S
O503 Li443 1.956 . S
O503 C478 1.325 . S
H504 C446 0.929 . S
H505 C447 0.930 . S
H506 C448 0.930 . S
H507 C449 0.930 . S
H508 C451 0.930 . S
H509 C453 0.929 . S
H510 C454 0.930 . S
H511 C455 0.930 . S
H512 C458 0.930 . S
H513 C461 0.929 . S
H514 C466 0.929 . S
H515 C467 0.930 . S
H516 C474 0.929 . S
H517 C475 0.930 . S
H518 C476 0.930 . S
H519 C477 0.930 . S
H520 C479 0.929 . S
H521 C480 0.930 . S
H522 C481 0.930 . S
H523 C482 0.930 . S
H524 C486 0.929 . S
H525 C488 0.930 . S
H526 C494 0.929 . S
H527 C495 0.930 . S
Li528 N545 1.990 . S
Li528 O588 1.956 . S
Li528 O589 1.970 . S
Li528 O590 1.961 . S
Li529 N553 1.990 . S
Li529 O588 1.970 . S
Li529 O589 1.956 . S
Li529 O591 1.961 . S
Li530 N575 1.990 . S
Li530 O588 1.961 . S
Li530 O590 1.956 . S
Li530 O591 1.970 . S
Li531 N581 1.990 . S
Li531 O589 1.961 . S
Li531 O590 1.970 . S
Li531 O591 1.956 . S
C532 C534 1.348 . S
C532 C535 1.356 . S
C532 O588 1.325 . S
N533 C536 1.314 . S
N533 C537 1.279 . S
C534 C532 1.348 . S
C534 C536 1.353 . S
C534 H592 0.929 . S
C535 C532 1.356 . S
C535 C537 1.358 . S
C535 H593 0.930 . S
C536 N533 1.314 . S
C536 C534 1.353 . S
C536 H594 0.930 . S
C537 N533 1.279 . S
C537 C535 1.358 . S
C537 H595 0.930 . S
C538 C541 1.348 . S
C538 C542 1.356 . S
C538 O589 1.325 . S
C539 N540 1.279 . S
C539 C542 1.358 . S
C539 H596 0.930 . S
N540 C539 1.279 . S
N540 C543 1.314 . S
C541 C538 1.348 . S
C541 C543 1.353 . S
C541 H597 0.929 . S
C542 C538 1.356 . S
C542 C539 1.358 . S
C542 H598 0.930 . S
C543 N540 1.314 . S
C543 C541 1.353 . S
C543 H599 0.930 . S
C544 N545 1.314 . S
C544 C549 1.353 . S
C544 H550 0.930 . S
N545 Li528 1.990 . S
N545 C544 1.314 . S
N545 C547 1.279 . S
C546 C547 1.358 . S
C546 C548 1.356 . S
C546 H600 0.930 . S
C547 N545 1.279 . S
C547 C546 1.358 . S
C547 H551 0.930 . S
C548 C546 1.356 . S
C548 C549 1.348 . S
C549 C544 1.353 . S
C549 C548 1.348 . S
C549 H601 0.929 . S
H550 C544 0.930 . S
H551 C547 0.930 . S
C552 N553 1.314 . S
C552 C554 1.353 . S
C552 H558 0.930 . S
N553 Li529 1.990 . S
N553 C552 1.314 . S
N553 C556 1.279 . S
C554 C552 1.353 . S
C554 C557 1.348 . S
C554 H602 0.929 . S
C555 C556 1.358 . S
C555 C557 1.356 . S
C555 H603 0.930 . S
C556 N553 1.279 . S
C556 C555 1.358 . S
C556 H559 0.930 . S
C557 C554 1.348 . S
C557 C555 1.356 . S
H558 C552 0.930 . S
H559 C556 0.930 . S
C560 C562 1.348 . S
C560 C563 1.356 . S
C560 O590 1.325 . S
N561 C564 1.314 . S
N561 C565 1.279 . S
C562 C560 1.348 . S
C562 C564 1.353 . S
C562 H604 0.929 . S
C563 C560 1.356 . S
C563 C565 1.358 . S
C563 H605 0.930 . S
C564 N561 1.314 . S
C564 C562 1.353 . S
C564 H606 0.930 . S
C565 N561 1.279 . S
C565 C563 1.358 . S
C565 H607 0.930 . S
C566 C567 1.348 . S
C566 C568 1.356 . S
C566 O591 1.325 . S
C567 C566 1.348 . S
C567 C569 1.353 . S
C567 H608 0.929 . S
C568 C566 1.356 . S
C568 C570 1.358 . S
C568 H609 0.930 . S
C569 C567 1.353 . S
C569 N571 1.314 . S
C569 H610 0.930 . S
C570 C568 1.358 . S
C570 N571 1.279 . S
C570 H611 0.930 . S
N571 C569 1.314 . S
N571 C570 1.279 . S
C572 C574 1.353 . S
C572 N575 1.314 . S
C572 H578 0.930 . S
C573 N575 1.279 . S
C573 C576 1.358 . S
C573 H579 0.930 . S
C574 C572 1.353 . S
C574 C577 1.348 . S
C574 H612 0.929 . S
N575 Li530 1.990 . S
N575 C572 1.314 . S
N575 C573 1.279 . S
C576 C573 1.358 . S
C576 C577 1.356 . S
C576 H613 0.930 . S
C577 C574 1.348 . S
C577 C576 1.356 . S
H578 C572 0.930 . S
H579 C573 0.930 . S
C580 N581 1.314 . S
C580 C582 1.353 . S
C580 H586 0.930 . S
N581 Li531 1.990 . S
N581 C580 1.314 . S
N581 C584 1.279 . S
C582 C580 1.353 . S
C582 C585 1.348 . S
C582 H614 0.929 . S
C583 C584 1.358 . S
C583 C585 1.356 . S
C583 H615 0.930 . S
C584 N581 1.279 . S
C584 C583 1.358 . S
C584 H587 0.930 . S
C585 C582 1.348 . S
C585 C583 1.356 . S
H586 C580 0.930 . S
H587 C584 0.930 . S
O588 Li528 1.956 . S
O588 Li529 1.970 . S
O588 Li530 1.961 . S
O588 C532 1.325 . S
O589 Li528 1.970 . S
O589 Li529 1.956 . S
O589 Li531 1.961 . S
O589 C538 1.325 . S
O590 Li528 1.961 . S
O590 Li530 1.956 . S
O590 Li531 1.970 . S
O590 C560 1.325 . S
O591 Li529 1.961 . S
O591 Li530 1.970 . S
O591 Li531 1.956 . S
O591 C566 1.325 . S
H592 C534 0.929 . S
H593 C535 0.930 . S
H594 C536 0.930 . S
H595 C537 0.930 . S
H596 C539 0.930 . S
H597 C541 0.929 . S
H598 C542 0.930 . S
H599 C543 0.930 . S
H600 C546 0.930 . S
H601 C549 0.929 . S
H602 C554 0.929 . S
H603 C555 0.930 . S
H604 C562 0.929 . S
H605 C563 0.930 . S
H606 C564 0.930 . S
H607 C565 0.930 . S
H608 C567 0.929 . S
H609 C568 0.930 . S
H610 C569 0.930 . S
H611 C570 0.930 . S
H612 C574 0.929 . S
H613 C576 0.930 . S
H614 C582 0.929 . S
H615 C583 0.930 . S
Li616 N633 1.990 . S
Li616 O676 1.956 . S
Li616 O677 1.970 . S
Li616 O678 1.961 . S
Li617 N641 1.990 . S
Li617 O676 1.970 . S
Li617 O677 1.956 . S
Li617 O679 1.961 . S
Li618 N663 1.990 . S
Li618 O676 1.961 . S
Li618 O678 1.956 . S
Li618 O679 1.970 . S
Li619 N669 1.990 . S
Li619 O677 1.961 . S
Li619 O678 1.970 . S
Li619 O679 1.956 . S
C620 C622 1.348 . S
C620 C623 1.356 . S
C620 O676 1.325 . S
N621 C624 1.314 . S
N621 C625 1.279 . S
C622 C620 1.348 . S
C622 C624 1.353 . S
C622 H680 0.929 . S
C623 C620 1.356 . S
C623 C625 1.358 . S
C623 H681 0.930 . S
C624 N621 1.314 . S
C624 C622 1.353 . S
C624 H682 0.930 . S
C625 N621 1.279 . S
C625 C623 1.358 . S
C625 H683 0.930 . S
C626 C629 1.348 . S
C626 C630 1.356 . S
C626 O677 1.325 . S
C627 N628 1.279 . S
C627 C630 1.358 . S
C627 H684 0.930 . S
N628 C627 1.279 . S
N628 C631 1.314 . S
C629 C626 1.348 . S
C629 C631 1.353 . S
C629 H685 0.929 . S
C630 C626 1.356 . S
C630 C627 1.358 . S
C630 H686 0.930 . S
C631 N628 1.314 . S
C631 C629 1.353 . S
C631 H687 0.930 . S
C632 N633 1.314 . S
C632 C637 1.353 . S
C632 H638 0.930 . S
N633 Li616 1.990 . S
N633 C632 1.314 . S
N633 C635 1.279 . S
C634 C635 1.358 . S
C634 C636 1.356 . S
C634 H688 0.930 . S
C635 N633 1.279 . S
C635 C634 1.358 . S
C635 H639 0.930 . S
C636 C634 1.356 . S
C636 C637 1.348 . S
C637 C632 1.353 . S
C637 C636 1.348 . S
C637 H689 0.929 . S
H638 C632 0.930 . S
H639 C635 0.930 . S
C640 N641 1.314 . S
C640 C642 1.353 . S
C640 H646 0.930 . S
N641 Li617 1.990 . S
N641 C640 1.314 . S
N641 C644 1.279 . S
C642 C640 1.353 . S
C642 C645 1.348 . S
C642 H690 0.929 . S
C643 C644 1.358 . S
C643 C645 1.356 . S
C643 H691 0.930 . S
C644 N641 1.279 . S
C644 C643 1.358 . S
C644 H647 0.930 . S
C645 C642 1.348 . S
C645 C643 1.356 . S
H646 C640 0.930 . S
H647 C644 0.930 . S
C648 C650 1.348 . S
C648 C651 1.356 . S
C648 O678 1.325 . S
N649 C652 1.314 . S
N649 C653 1.279 . S
C650 C648 1.348 . S
C650 C652 1.353 . S
C650 H692 0.929 . S
C651 C648 1.356 . S
C651 C653 1.358 . S
C651 H693 0.930 . S
C652 N649 1.314 . S
C652 C650 1.353 . S
C652 H694 0.930 . S
C653 N649 1.279 . S
C653 C651 1.358 . S
C653 H695 0.930 . S
C654 C655 1.348 . S
C654 C656 1.356 . S
C654 O679 1.325 . S
C655 C654 1.348 . S
C655 C657 1.353 . S
C655 H696 0.929 . S
C656 C654 1.356 . S
C656 C658 1.358 . S
C656 H697 0.930 . S
C657 C655 1.353 . S
C657 N659 1.314 . S
C657 H698 0.930 . S
C658 C656 1.358 . S
C658 N659 1.279 . S
C658 H699 0.930 . S
N659 C657 1.314 . S
N659 C658 1.279 . S
C660 C662 1.353 . S
C660 N663 1.314 . S
C660 H666 0.930 . S
C661 N663 1.279 . S
C661 C664 1.358 . S
C661 H667 0.930 . S
C662 C660 1.353 . S
C662 C665 1.348 . S
C662 H700 0.929 . S
N663 Li618 1.990 . S
N663 C660 1.314 . S
N663 C661 1.279 . S
C664 C661 1.358 . S
C664 C665 1.356 . S
C664 H701 0.930 . S
C665 C662 1.348 . S
C665 C664 1.356 . S
H666 C660 0.930 . S
H667 C661 0.930 . S
C668 N669 1.314 . S
C668 C670 1.353 . S
C668 H674 0.930 . S
N669 Li619 1.990 . S
N669 C668 1.314 . S
N669 C672 1.279 . S
C670 C668 1.353 . S
C670 C673 1.348 . S
C670 H702 0.929 . S
C671 C672 1.358 . S
C671 C673 1.356 . S
C671 H703 0.930 . S
C672 N669 1.279 . S
C672 C671 1.358 . S
C672 H675 0.930 . S
C673 C670 1.348 . S
C673 C671 1.356 . S
H674 C668 0.930 . S
H675 C672 0.930 . S
O676 Li616 1.956 . S
O676 Li617 1.970 . S
O676 Li618 1.961 . S
O676 C620 1.325 . S
O677 Li616 1.970 . S
O677 Li617 1.956 . S
O677 Li619 1.961 . S
O677 C626 1.325 . S
O678 Li616 1.961 . S
O678 Li618 1.956 . S
O678 Li619 1.970 . S
O678 C648 1.325 . S
O679 Li617 1.961 . S
O679 Li618 1.970 . S
O679 Li619 1.956 . S
O679 C654 1.325 . S
H680 C622 0.929 . S
H681 C623 0.930 . S
H682 C624 0.930 . S
H683 C625 0.930 . S
H684 C627 0.930 . S
H685 C629 0.929 . S
H686 C630 0.930 . S
H687 C631 0.930 . S
H688 C634 0.930 . S
H689 C637 0.929 . S
H690 C642 0.929 . S
H691 C643 0.930 . S
H692 C650 0.929 . S
H693 C651 0.930 . S
H694 C652 0.930 . S
H695 C653 0.930 . S
H696 C655 0.929 . S
H697 C656 0.930 . S
H698 C657 0.930 . S
H699 C658 0.930 . S
H700 C662 0.929 . S
H701 C664 0.930 . S
H702 C670 0.929 . S
H703 C671 0.930 . S
Li704 N721 1.990 . S
Li704 O764 1.956 . S
Li704 O765 1.970 . S
Li704 O766 1.961 . S
Li705 N729 1.990 . S
Li705 O764 1.970 . S
Li705 O765 1.956 . S
Li705 O767 1.961 . S
Li706 N751 1.990 . S
Li706 O764 1.961 . S
Li706 O766 1.956 . S
Li706 O767 1.970 . S
Li707 N757 1.990 . S
Li707 O765 1.961 . S
Li707 O766 1.970 . S
Li707 O767 1.956 . S
C708 C710 1.348 . S
C708 C711 1.356 . S
C708 O764 1.325 . S
N709 C712 1.314 . S
N709 C713 1.279 . S
C710 C708 1.348 . S
C710 C712 1.353 . S
C710 H768 0.929 . S
C711 C708 1.356 . S
C711 C713 1.358 . S
C711 H769 0.930 . S
C712 N709 1.314 . S
C712 C710 1.353 . S
C712 H770 0.930 . S
C713 N709 1.279 . S
C713 C711 1.358 . S
C713 H771 0.930 . S
C714 C717 1.348 . S
C714 C718 1.356 . S
C714 O765 1.325 . S
C715 N716 1.279 . S
C715 C718 1.358 . S
C715 H772 0.930 . S
N716 C715 1.279 . S
N716 C719 1.314 . S
C717 C714 1.348 . S
C717 C719 1.353 . S
C717 H773 0.929 . S
C718 C714 1.356 . S
C718 C715 1.358 . S
C718 H774 0.930 . S
C719 N716 1.314 . S
C719 C717 1.353 . S
C719 H775 0.930 . S
C720 N721 1.314 . S
C720 C725 1.353 . S
C720 H726 0.930 . S
N721 Li704 1.990 . S
N721 C720 1.314 . S
N721 C723 1.279 . S
C722 C723 1.358 . S
C722 C724 1.356 . S
C722 H776 0.930 . S
C723 N721 1.279 . S
C723 C722 1.358 . S
C723 H727 0.930 . S
C724 C722 1.356 . S
C724 C725 1.348 . S
C725 C720 1.353 . S
C725 C724 1.348 . S
C725 H777 0.929 . S
H726 C720 0.930 . S
H727 C723 0.930 . S
C728 N729 1.314 . S
C728 C730 1.353 . S
C728 H734 0.930 . S
N729 Li705 1.990 . S
N729 C728 1.314 . S
N729 C732 1.279 . S
C730 C728 1.353 . S
C730 C733 1.348 . S
C730 H778 0.929 . S
C731 C732 1.358 . S
C731 C733 1.356 . S
C731 H779 0.930 . S
C732 N729 1.279 . S
C732 C731 1.358 . S
C732 H735 0.930 . S
C733 C730 1.348 . S
C733 C731 1.356 . S
H734 C728 0.930 . S
H735 C732 0.930 . S
C736 C738 1.348 . S
C736 C739 1.356 . S
C736 O766 1.325 . S
N737 C740 1.314 . S
N737 C741 1.279 . S
C738 C736 1.348 . S
C738 C740 1.353 . S
C738 H780 0.929 . S
C739 C736 1.356 . S
C739 C741 1.358 . S
C739 H781 0.930 . S
C740 N737 1.314 . S
C740 C738 1.353 . S
C740 H782 0.930 . S
C741 N737 1.279 . S
C741 C739 1.358 . S
C741 H783 0.930 . S
C742 C743 1.348 . S
C742 C744 1.356 . S
C742 O767 1.325 . S
C743 C742 1.348 . S
C743 C745 1.353 . S
C743 H784 0.929 . S
C744 C742 1.356 . S
C744 C746 1.358 . S
C744 H785 0.930 . S
C745 C743 1.353 . S
C745 N747 1.314 . S
C745 H786 0.930 . S
C746 C744 1.358 . S
C746 N747 1.279 . S
C746 H787 0.930 . S
N747 C745 1.314 . S
N747 C746 1.279 . S
C748 C750 1.353 . S
C748 N751 1.314 . S
C748 H754 0.930 . S
C749 N751 1.279 . S
C749 C752 1.358 . S
C749 H755 0.930 . S
C750 C748 1.353 . S
C750 C753 1.348 . S
C750 H788 0.929 . S
N751 Li706 1.990 . S
N751 C748 1.314 . S
N751 C749 1.279 . S
C752 C749 1.358 . S
C752 C753 1.356 . S
C752 H789 0.930 . S
C753 C750 1.348 . S
C753 C752 1.356 . S
H754 C748 0.930 . S
H755 C749 0.930 . S
C756 N757 1.314 . S
C756 C758 1.353 . S
C756 H762 0.930 . S
N757 Li707 1.990 . S
N757 C756 1.314 . S
N757 C760 1.279 . S
C758 C756 1.353 . S
C758 C761 1.348 . S
C758 H790 0.929 . S
C759 C760 1.358 . S
C759 C761 1.356 . S
C759 H791 0.930 . S
C760 N757 1.279 . S
C760 C759 1.358 . S
C760 H763 0.930 . S
C761 C758 1.348 . S
C761 C759 1.356 . S
H762 C756 0.930 . S
H763 C760 0.930 . S
O764 Li704 1.956 . S
O764 Li705 1.970 . S
O764 Li706 1.961 . S
O764 C708 1.325 . S
O765 Li704 1.970 . S
O765 Li705 1.956 . S
O765 Li707 1.961 . S
O765 C714 1.325 . S
O766 Li704 1.961 . S
O766 Li706 1.956 . S
O766 Li707 1.970 . S
O766 C736 1.325 . S
O767 Li705 1.961 . S
O767 Li706 1.970 . S
O767 Li707 1.956 . S
O767 C742 1.325 . S
H768 C710 0.929 . S
H769 C711 0.930 . S
H770 C712 0.930 . S
H771 C713 0.930 . S
H772 C715 0.930 . S
H773 C717 0.929 . S
H774 C718 0.930 . S
H775 C719 0.930 . S
H776 C722 0.930 . S
H777 C725 0.929 . S
H778 C730 0.929 . S
H779 C731 0.930 . S
H780 C738 0.929 . S
H781 C739 0.930 . S
H782 C740 0.930 . S
H783 C741 0.930 . S
H784 C743 0.929 . S
H785 C744 0.930 . S
H786 C745 0.930 . S
H787 C746 0.930 . S
H788 C750 0.929 . S
H789 C752 0.930 . S
H790 C758 0.929 . S
H791 C759 0.930 . S
Li792 N809 1.990 . S
Li792 O852 1.956 . S
Li792 O853 1.970 . S
Li792 O854 1.961 . S
Li793 N817 1.990 . S
Li793 O852 1.970 . S
Li793 O853 1.956 . S
Li793 O855 1.961 . S
Li794 N839 1.990 . S
Li794 O852 1.961 . S
Li794 O854 1.956 . S
Li794 O855 1.970 . S
Li795 N845 1.990 . S
Li795 O853 1.961 . S
Li795 O854 1.970 . S
Li795 O855 1.956 . S
C796 C798 1.348 . S
C796 C799 1.356 . S
C796 O852 1.325 . S
N797 C800 1.314 . S
N797 C801 1.279 . S
C798 C796 1.348 . S
C798 C800 1.353 . S
C798 H856 0.929 . S
C799 C796 1.356 . S
C799 C801 1.358 . S
C799 H857 0.930 . S
C800 N797 1.314 . S
C800 C798 1.353 . S
C800 H858 0.930 . S
C801 N797 1.279 . S
C801 C799 1.358 . S
C801 H859 0.930 . S
C802 C805 1.348 . S
C802 C806 1.356 . S
C802 O853 1.325 . S
C803 N804 1.279 . S
C803 C806 1.358 . S
C803 H860 0.930 1_655 S
N804 C803 1.279 . S
N804 C807 1.314 . S
C805 C802 1.348 . S
C805 C807 1.353 . S
C805 H861 0.929 . S
C806 C802 1.356 . S
C806 C803 1.358 . S
C806 H862 0.930 . S
C807 N804 1.314 . S
C807 C805 1.353 . S
C807 H863 0.930 . S
C808 N809 1.314 . S
C808 C813 1.353 . S
C808 H814 0.930 . S
N809 Li792 1.990 . S
N809 C808 1.314 . S
N809 C811 1.279 . S
C810 C811 1.358 . S
C810 C812 1.356 . S
C810 H864 0.930 . S
C811 N809 1.279 . S
C811 C810 1.358 . S
C811 H815 0.930 . S
C812 C810 1.356 . S
C812 C813 1.348 . S
C813 C808 1.353 . S
C813 C812 1.348 . S
C813 H865 0.929 . S
H814 C808 0.930 . S
H815 C811 0.930 . S
C816 N817 1.314 . S
C816 C818 1.353 . S
C816 H822 0.930 . S
N817 Li793 1.990 . S
N817 C816 1.314 . S
N817 C820 1.279 . S
C818 C816 1.353 . S
C818 C821 1.345 . S
C818 H866 0.929 . S
C819 C820 1.358 . S
C819 C821 1.357 . S
C819 H867 0.930 1_655 S
C820 N817 1.279 . S
C820 C819 1.358 . S
C820 H823 0.930 . S
C821 C818 1.345 . S
C821 C819 1.357 . S
H822 C816 0.930 . S
H823 C820 0.930 . S
C824 C826 1.348 . S
C824 C827 1.356 . S
C824 O854 1.325 . S
N825 C828 1.314 . S
N825 C829 1.279 . S
C826 C824 1.348 . S
C826 C828 1.353 . S
C826 H868 0.929 . S
C827 C824 1.356 . S
C827 C829 1.358 . S
C827 H869 0.930 . S
C828 N825 1.314 . S
C828 C826 1.353 . S
C828 H870 0.930 . S
C829 N825 1.279 . S
C829 C827 1.358 . S
C829 H871 0.930 . S
C830 C831 1.348 . S
C830 C832 1.356 . S
C830 O855 1.325 . S
C831 C830 1.348 . S
C831 C833 1.353 . S
C831 H872 0.929 . S
C832 C830 1.356 . S
C832 C834 1.358 . S
C832 H873 0.930 . S
C833 C831 1.353 . S
C833 N835 1.314 . S
C833 H874 0.930 . S
C834 C832 1.358 . S
C834 N835 1.279 . S
C834 H875 0.930 1_655 S
N835 C833 1.314 . S
N835 C834 1.279 . S
C836 C838 1.353 . S
C836 N839 1.314 . S
C836 H842 0.930 . S
C837 N839 1.279 . S
C837 C840 1.358 . S
C837 H843 0.930 . S
C838 C836 1.353 . S
C838 C841 1.348 . S
C838 H876 0.929 . S
N839 Li794 1.990 . S
N839 C836 1.314 . S
N839 C837 1.279 . S
C840 C837 1.358 . S
C840 C841 1.356 . S
C840 H877 0.930 . S
C841 C838 1.348 . S
C841 C840 1.356 . S
H842 C836 0.930 . S
H843 C837 0.930 . S
C844 N845 1.314 . S
C844 C846 1.353 . S
C844 H850 0.930 . S
N845 Li795 1.990 . S
N845 C844 1.314 . S
N845 C848 1.279 . S
C846 C844 1.353 . S
C846 C849 1.348 . S
C846 H878 0.929 . S
C847 C848 1.358 . S
C847 C849 1.356 . S
C847 H879 0.930 . S
C848 N845 1.279 . S
C848 C847 1.358 . S
C848 H851 0.930 . S
C849 C846 1.348 . S
C849 C847 1.356 . S
H850 C844 0.930 . S
H851 C848 0.930 . S
O852 Li792 1.956 . S
O852 Li793 1.970 . S
O852 Li794 1.961 . S
O852 C796 1.325 . S
O853 Li792 1.970 . S
O853 Li793 1.956 . S
O853 Li795 1.961 . S
O853 C802 1.325 . S
O854 Li792 1.961 . S
O854 Li794 1.956 . S
O854 Li795 1.970 . S
O854 C824 1.325 . S
O855 Li793 1.961 . S
O855 Li794 1.970 . S
O855 Li795 1.956 . S
O855 C830 1.325 . S
H856 C798 0.929 . S
H857 C799 0.930 . S
H858 C800 0.930 . S
H859 C801 0.930 . S
H860 C803 0.930 1_455 S
H861 C805 0.929 . S
H862 C806 0.930 . S
H863 C807 0.930 . S
H864 C810 0.930 . S
H865 C813 0.929 . S
H866 C818 0.929 . S
H867 C819 0.930 1_455 S
H868 C826 0.929 . S
H869 C827 0.930 . S
H870 C828 0.930 . S
H871 C829 0.930 . S
H872 C831 0.929 . S
H873 C832 0.930 . S
H874 C833 0.930 . S
H875 C834 0.930 1_455 S
H876 C838 0.929 . S
H877 C840 0.930 . S
H878 C846 0.929 . S
H879 C847 0.930 . S
Li880 N897 1.990 . S
Li880 O940 1.956 . S
Li880 O941 1.970 . S
Li880 O942 1.961 . S
Li881 N905 1.990 . S
Li881 O940 1.970 . S
Li881 O941 1.956 . S
Li881 O943 1.961 . S
Li882 N927 1.990 . S
Li882 O940 1.961 . S
Li882 O942 1.956 . S
Li882 O943 1.970 . S
Li883 N933 1.990 . S
Li883 O941 1.961 . S
Li883 O942 1.970 . S
Li883 O943 1.956 . S
C884 C886 1.348 . S
C884 C887 1.356 . S
C884 O940 1.325 . S
N885 C888 1.314 . S
N885 C889 1.279 . S
C886 C884 1.348 . S
C886 C888 1.353 . S
C886 H944 0.929 . S
C887 C884 1.356 . S
C887 C889 1.358 . S
C887 H945 0.930 . S
C888 N885 1.314 . S
C888 C886 1.353 . S
C888 H946 0.930 . S
C889 N885 1.279 . S
C889 C887 1.358 . S
C889 H947 0.930 . S
C890 C893 1.348 . S
C890 C894 1.356 . S
C890 O941 1.325 . S
C891 N892 1.279 . S
C891 C894 1.358 . S
C891 H948 0.930 . S
N892 C891 1.279 . S
N892 C895 1.314 . S
C893 C890 1.348 . S
C893 C895 1.353 . S
C893 H949 0.929 . S
C894 C890 1.356 . S
C894 C891 1.358 . S
C894 H950 0.930 . S
C895 N892 1.314 . S
C895 C893 1.353 . S
C895 H951 0.930 . S
C896 N897 1.314 . S
C896 C901 1.353 . S
C896 H902 0.930 . S
N897 Li880 1.990 . S
N897 C896 1.314 . S
N897 C899 1.279 . S
C898 C899 1.358 . S
C898 C900 1.356 . S
C898 H952 0.930 . S
C899 N897 1.279 . S
C899 C898 1.358 . S
C899 H903 0.930 . S
C900 C898 1.356 . S
C900 C901 1.348 . S
C901 C896 1.353 . S
C901 C900 1.348 . S
C901 H953 0.929 . S
H902 C896 0.930 . S
H903 C899 0.930 . S
C904 N905 1.314 . S
C904 C906 1.353 . S
C904 H910 0.930 . S
N905 Li881 1.990 . S
N905 C904 1.314 . S
N905 C908 1.279 . S
C906 C904 1.353 . S
C906 C909 1.348 . S
C906 H954 0.929 . S
C907 C908 1.358 . S
C907 C909 1.356 . S
C907 H955 0.930 . S
C908 N905 1.279 . S
C908 C907 1.358 . S
C908 H911 0.930 . S
C909 C906 1.348 . S
C909 C907 1.356 . S
H910 C904 0.930 . S
H911 C908 0.930 . S
C912 C914 1.348 . S
C912 C915 1.356 . S
C912 O942 1.325 . S
N913 C916 1.314 . S
N913 C917 1.279 . S
C914 C912 1.348 . S
C914 C916 1.353 . S
C914 H956 0.929 . S
C915 C912 1.356 . S
C915 C917 1.358 . S
C915 H957 0.930 . S
C916 N913 1.314 . S
C916 C914 1.353 . S
C916 H958 0.930 . S
C917 N913 1.279 . S
C917 C915 1.358 . S
C917 H959 0.930 . S
C918 C919 1.348 . S
C918 C920 1.356 . S
C918 O943 1.325 . S
C919 C918 1.348 . S
C919 C921 1.353 . S
C919 H960 0.929 . S
C920 C918 1.356 . S
C920 C922 1.358 . S
C920 H961 0.930 . S
C921 C919 1.353 . S
C921 N923 1.314 . S
C921 H962 0.930 . S
C922 C920 1.358 . S
C922 N923 1.279 . S
C922 H963 0.930 . S
N923 C921 1.314 . S
N923 C922 1.279 . S
C924 C926 1.353 . S
C924 N927 1.314 . S
C924 H930 0.930 . S
C925 N927 1.279 . S
C925 C928 1.358 . S
C925 H931 0.930 . S
C926 C924 1.353 . S
C926 C929 1.348 . S
C926 H964 0.929 . S
N927 Li882 1.990 . S
N927 C924 1.314 . S
N927 C925 1.279 . S
C928 C925 1.358 . S
C928 C929 1.356 . S
C928 H965 0.930 . S
C929 C926 1.348 . S
C929 C928 1.356 . S
H930 C924 0.930 . S
H931 C925 0.930 . S
C932 N933 1.314 . S
C932 C934 1.353 . S
C932 H938 0.930 . S
N933 Li883 1.990 . S
N933 C932 1.314 . S
N933 C936 1.279 . S
C934 C932 1.353 . S
C934 C937 1.348 . S
C934 H966 0.929 . S
C935 C936 1.358 . S
C935 C937 1.356 . S
C935 H967 0.930 . S
C936 N933 1.279 . S
C936 C935 1.358 . S
C936 H939 0.930 . S
C937 C934 1.348 . S
C937 C935 1.356 . S
H938 C932 0.930 . S
H939 C936 0.930 . S
O940 Li880 1.956 . S
O940 Li881 1.970 . S
O940 Li882 1.961 . S
O940 C884 1.325 . S
O941 Li880 1.970 . S
O941 Li881 1.956 . S
O941 Li883 1.961 . S
O941 C890 1.325 . S
O942 Li880 1.961 . S
O942 Li882 1.956 . S
O942 Li883 1.970 . S
O942 C912 1.325 . S
O943 Li881 1.961 . S
O943 Li882 1.970 . S
O943 Li883 1.956 . S
O943 C918 1.325 . S
H944 C886 0.929 . S
H945 C887 0.930 . S
H946 C888 0.930 . S
H947 C889 0.930 . S
H948 C891 0.930 . S
H949 C893 0.929 . S
H950 C894 0.930 . S
H951 C895 0.930 . S
H952 C898 0.930 . S
H953 C901 0.929 . S
H954 C906 0.929 . S
H955 C907 0.930 . S
H956 C914 0.929 . S
H957 C915 0.930 . S
H958 C916 0.930 . S
H959 C917 0.930 . S
H960 C919 0.929 . S
H961 C920 0.930 . S
H962 C921 0.930 . S
H963 C922 0.930 . S
H964 C926 0.929 . S
H965 C928 0.930 . S
H966 C934 0.929 . S
H967 C935 0.930 . S
Li968 N985 1.990 . S
Li968 O1028 1.956 . S
Li968 O1029 1.970 . S
Li968 O1030 1.961 . S
Li969 N993 1.990 . S
Li969 O1028 1.970 . S
Li969 O1029 1.956 . S
Li969 O1031 1.961 . S
Li970 N1015 1.990 . S
Li970 O1028 1.961 . S
Li970 O1030 1.956 . S
Li970 O1031 1.970 . S
Li971 N1021 1.990 . S
Li971 O1029 1.961 . S
Li971 O1030 1.970 . S
Li971 O1031 1.956 . S
C972 C974 1.348 . S
C972 C975 1.356 . S
C972 O1028 1.325 . S
N973 C976 1.314 . S
N973 C977 1.279 . S
C974 C972 1.348 . S
C974 C976 1.353 . S
C974 H1032 0.929 . S
C975 C972 1.356 . S
C975 C977 1.358 . S
C975 H1033 0.930 . S
C976 N973 1.314 . S
C976 C974 1.353 . S
C976 H1034 0.930 . S
C977 N973 1.279 . S
C977 C975 1.358 . S
C977 H1035 0.930 . S
C978 C981 1.348 . S
C978 C982 1.356 . S
C978 O1029 1.325 . S
C979 N980 1.279 . S
C979 C982 1.358 . S
C979 H1036 0.930 1_545 S
N980 C979 1.279 . S
N980 C983 1.314 . S
C981 C978 1.348 . S
C981 C983 1.353 . S
C981 H1037 0.929 . S
C982 C978 1.356 . S
C982 C979 1.358 . S
C982 H1038 0.930 . S
C983 N980 1.314 . S
C983 C981 1.353 . S
C983 H1039 0.930 . S
C984 N985 1.314 . S
C984 C989 1.353 . S
C984 H990 0.930 . S
N985 Li968 1.990 . S
N985 C984 1.314 . S
N985 C987 1.279 . S
C986 C987 1.358 . S
C986 C988 1.356 . S
C986 H1040 0.930 . S
C987 N985 1.279 . S
C987 C986 1.358 . S
C987 H991 0.930 . S
C988 C986 1.356 . S
C988 C989 1.348 . S
C989 C984 1.353 . S
C989 C988 1.348 . S
C989 H1041 0.929 . S
H990 C984 0.930 . S
H991 C987 0.930 . S
C992 N993 1.314 . S
C992 C994 1.353 . S
C992 H998 0.930 . S
N993 Li969 1.990 . S
N993 C992 1.314 . S
N993 C996 1.279 . S
C994 C992 1.353 . S
C994 C997 1.348 . S
C994 H1042 0.929 . S
C995 C996 1.358 . S
C995 C997 1.354 . S
C995 H1043 0.930 1_545 S
C996 N993 1.279 . S
C996 C995 1.358 . S
C996 H999 0.930 . S
C997 C994 1.348 . S
C997 C995 1.354 . S
H998 C992 0.930 . S
H999 C996 0.930 . S
C1000 C1002 1.348 . S
C1000 C1003 1.356 . S
C1000 O1030 1.325 . S
N1001 C1004 1.314 . S
N1001 C1005 1.279 . S
C1002 C1000 1.348 . S
C1002 C1004 1.353 . S
C1002 H1044 0.929 . S
C1003 C1000 1.356 . S
C1003 C1005 1.358 . S
C1003 H1045 0.930 . S
C1004 N1001 1.314 . S
C1004 C1002 1.353 . S
C1004 H1046 0.930 . S
C1005 N1001 1.279 . S
C1005 C1003 1.358 . S
C1005 H1047 0.930 . S
C1006 C1007 1.348 . S
C1006 C1008 1.356 . S
C1006 O1031 1.325 . S
C1007 C1006 1.348 . S
C1007 C1009 1.353 . S
C1007 H1048 0.929 . S
C1008 C1006 1.356 . S
C1008 C1010 1.358 . S
C1008 H1049 0.930 . S
C1009 C1007 1.353 . S
C1009 N1011 1.314 . S
C1009 H1050 0.930 . S
C1010 C1008 1.358 . S
C1010 N1011 1.279 . S
C1010 H1051 0.930 1_545 S
N1011 C1009 1.314 . S
N1011 C1010 1.279 . S
C1012 C1014 1.353 . S
C1012 N1015 1.314 . S
C1012 H1018 0.930 . S
C1013 N1015 1.279 . S
C1013 C1016 1.358 . S
C1013 H1019 0.930 . S
C1014 C1012 1.353 . S
C1014 C1017 1.348 . S
C1014 H1052 0.929 . S
N1015 Li970 1.990 . S
N1015 C1012 1.314 . S
N1015 C1013 1.279 . S
C1016 C1013 1.358 . S
C1016 C1017 1.356 . S
C1016 H1053 0.930 . S
C1017 C1014 1.348 . S
C1017 C1016 1.356 . S
H1018 C1012 0.930 . S
H1019 C1013 0.930 . S
C1020 N1021 1.314 . S
C1020 C1022 1.353 . S
C1020 H1026 0.930 . S
N1021 Li971 1.990 . S
N1021 C1020 1.314 . S
N1021 C1024 1.279 . S
C1022 C1020 1.353 . S
C1022 C1025 1.348 . S
C1022 H1054 0.929 . S
C1023 C1024 1.358 . S
C1023 C1025 1.356 . S
C1023 H1055 0.930 . S
C1024 N1021 1.279 . S
C1024 C1023 1.358 . S
C1024 H1027 0.930 . S
C1025 C1022 1.348 . S
C1025 C1023 1.356 . S
H1026 C1020 0.930 . S
H1027 C1024 0.930 . S
O1028 Li968 1.956 . S
O1028 Li969 1.970 . S
O1028 Li970 1.961 . S
O1028 C972 1.325 . S
O1029 Li968 1.970 . S
O1029 Li969 1.956 . S
O1029 Li971 1.961 . S
O1029 C978 1.325 . S
O1030 Li968 1.961 . S
O1030 Li970 1.956 . S
O1030 Li971 1.970 . S
O1030 C1000 1.325 . S
O1031 Li969 1.961 . S
O1031 Li970 1.970 . S
O1031 Li971 1.956 . S
O1031 C1006 1.325 . S
H1032 C974 0.929 . S
H1033 C975 0.930 . S
H1034 C976 0.930 . S
H1035 C977 0.930 . S
H1036 C979 0.930 1_565 S
H1037 C981 0.929 . S
H1038 C982 0.930 . S
H1039 C983 0.930 . S
H1040 C986 0.930 . S
H1041 C989 0.929 . S
H1042 C994 0.929 . S
H1043 C995 0.930 1_565 S
H1044 C1002 0.929 . S
H1045 C1003 0.930 . S
H1046 C1004 0.930 . S
H1047 C1005 0.930 . S
H1048 C1007 0.929 . S
H1049 C1008 0.930 . S
H1050 C1009 0.930 . S
H1051 C1010 0.930 1_565 S
H1052 C1014 0.929 . S
H1053 C1016 0.930 . S
H1054 C1022 0.929 . S
H1055 C1023 0.930 . S
Li1056 N1073 1.990 . S
Li1056 O1116 1.956 . S
Li1056 O1117 1.970 . S
Li1056 O1118 1.961 . S
Li1057 N1081 1.990 . S
Li1057 O1116 1.970 . S
Li1057 O1117 1.956 . S
Li1057 O1119 1.961 . S
Li1058 N1103 1.990 . S
Li1058 O1116 1.961 . S
Li1058 O1118 1.956 . S
Li1058 O1119 1.970 . S
Li1059 N1109 1.990 . S
Li1059 O1117 1.961 . S
Li1059 O1118 1.970 . S
Li1059 O1119 1.956 . S
C1060 C1062 1.348 . S
C1060 C1063 1.356 . S
C1060 O1116 1.325 . S
N1061 C1064 1.314 . S
N1061 C1065 1.279 . S
C1062 C1060 1.348 . S
C1062 C1064 1.353 . S
C1062 H1120 0.929 . S
C1063 C1060 1.356 . S
C1063 C1065 1.358 . S
C1063 H1121 0.930 . S
C1064 N1061 1.314 . S
C1064 C1062 1.353 . S
C1064 H1122 0.930 . S
C1065 N1061 1.279 . S
C1065 C1063 1.358 . S
C1065 H1123 0.930 1_565 S
C1066 C1069 1.348 . S
C1066 C1070 1.356 . S
C1066 O1117 1.325 . S
C1067 N1068 1.279 . S
C1067 C1070 1.358 . S
C1067 H1124 0.930 . S
N1068 C1067 1.279 . S
N1068 C1071 1.314 . S
C1069 C1066 1.348 . S
C1069 C1071 1.353 . S
C1069 H1125 0.929 . S
C1070 C1066 1.356 . S
C1070 C1067 1.358 . S
C1070 H1126 0.930 . S
C1071 N1068 1.314 . S
C1071 C1069 1.353 . S
C1071 H1127 0.930 . S
C1072 N1073 1.314 . S
C1072 C1077 1.353 . S
C1072 H1078 0.930 . S
N1073 Li1056 1.990 . S
N1073 C1072 1.314 . S
N1073 C1075 1.279 . S
C1074 C1075 1.358 . S
C1074 C1076 1.356 . S
C1074 H1128 0.930 . S
C1075 N1073 1.279 . S
C1075 C1074 1.358 . S
C1075 H1079 0.930 . S
C1076 C1074 1.356 . S
C1076 C1077 1.348 . S
C1077 C1072 1.353 . S
C1077 C1076 1.348 . S
C1077 H1129 0.929 . S
H1078 C1072 0.930 . S
H1079 C1075 0.930 . S
C1080 N1081 1.314 . S
C1080 C1082 1.353 . S
C1080 H1086 0.930 . S
N1081 Li1057 1.990 . S
N1081 C1080 1.314 . S
N1081 C1084 1.279 . S
C1082 C1080 1.353 . S
C1082 C1085 1.348 . S
C1082 H1130 0.929 . S
C1083 C1084 1.358 . S
C1083 C1085 1.356 . S
C1083 H1131 0.930 . S
C1084 N1081 1.279 . S
C1084 C1083 1.358 . S
C1084 H1087 0.930 . S
C1085 C1082 1.348 . S
C1085 C1083 1.356 . S
H1086 C1080 0.930 . S
H1087 C1084 0.930 . S
C1088 C1090 1.348 . S
C1088 C1091 1.356 . S
C1088 O1118 1.325 . S
N1089 C1092 1.314 . S
N1089 C1093 1.279 . S
C1090 C1088 1.348 . S
C1090 C1092 1.353 . S
C1090 H1132 0.929 . S
C1091 C1088 1.356 . S
C1091 C1093 1.358 . S
C1091 H1133 0.930 . S
C1092 N1089 1.314 . S
C1092 C1090 1.353 . S
C1092 H1134 0.930 . S
C1093 N1089 1.279 . S
C1093 C1091 1.358 . S
C1093 H1135 0.930 1_565 S
C1094 C1095 1.348 . S
C1094 C1096 1.356 . S
C1094 O1119 1.325 . S
C1095 C1094 1.348 . S
C1095 C1097 1.353 . S
C1095 H1136 0.929 . S
C1096 C1094 1.356 . S
C1096 C1098 1.358 . S
C1096 H1137 0.930 . S
C1097 C1095 1.353 . S
C1097 N1099 1.314 . S
C1097 H1138 0.930 . S
C1098 C1096 1.358 . S
C1098 N1099 1.279 . S
C1098 H1139 0.930 . S
N1099 C1097 1.314 . S
N1099 C1098 1.279 . S
C1100 C1102 1.353 . S
C1100 N1103 1.314 . S
C1100 H1106 0.930 . S
C1101 N1103 1.279 . S
C1101 C1104 1.358 . S
C1101 H1107 0.930 . S
C1102 C1100 1.353 . S
C1102 C1105 1.345 . S
C1102 H1140 0.929 . S
N1103 Li1058 1.990 . S
N1103 C1100 1.314 . S
N1103 C1101 1.279 . S
C1104 C1101 1.358 . S
C1104 C1105 1.357 . S
C1104 H1141 0.930 1_565 S
C1105 C1102 1.345 . S
C1105 C1104 1.357 . S
H1106 C1100 0.930 . S
H1107 C1101 0.930 . S
C1108 N1109 1.314 . S
C1108 C1110 1.353 . S
C1108 H1114 0.930 . S
N1109 Li1059 1.990 . S
N1109 C1108 1.314 . S
N1109 C1112 1.279 . S
C1110 C1108 1.353 . S
C1110 C1113 1.348 . S
C1110 H1142 0.929 . S
C1111 C1112 1.358 . S
C1111 C1113 1.356 . S
C1111 H1143 0.930 . S
C1112 N1109 1.279 . S
C1112 C1111 1.358 . S
C1112 H1115 0.930 . S
C1113 C1110 1.348 . S
C1113 C1111 1.356 . S
H1114 C1108 0.930 . S
H1115 C1112 0.930 . S
O1116 Li1056 1.956 . S
O1116 Li1057 1.970 . S
O1116 Li1058 1.961 . S
O1116 C1060 1.325 . S
O1117 Li1056 1.970 . S
O1117 Li1057 1.956 . S
O1117 Li1059 1.961 . S
O1117 C1066 1.325 . S
O1118 Li1056 1.961 . S
O1118 Li1058 1.956 . S
O1118 Li1059 1.970 . S
O1118 C1088 1.325 . S
O1119 Li1057 1.961 . S
O1119 Li1058 1.970 . S
O1119 Li1059 1.956 . S
O1119 C1094 1.325 . S
H1120 C1062 0.929 . S
H1121 C1063 0.930 . S
H1122 C1064 0.930 . S
H1123 C1065 0.930 1_545 S
H1124 C1067 0.930 . S
H1125 C1069 0.929 . S
H1126 C1070 0.930 . S
H1127 C1071 0.930 . S
H1128 C1074 0.930 . S
H1129 C1077 0.929 . S
H1130 C1082 0.929 . S
H1131 C1083 0.930 . S
H1132 C1090 0.929 . S
H1133 C1091 0.930 . S
H1134 C1092 0.930 . S
H1135 C1093 0.930 1_545 S
H1136 C1095 0.929 . S
H1137 C1096 0.930 . S
H1138 C1097 0.930 . S
H1139 C1098 0.930 . S
H1140 C1102 0.929 . S
H1141 C1104 0.930 1_545 S
H1142 C1110 0.929 . S
H1143 C1111 0.930 . S
Li1144 N1161 1.990 . S
Li1144 O1204 1.956 . S
Li1144 O1205 1.970 . S
Li1144 O1206 1.961 . S
Li1145 N1169 1.990 . S
Li1145 O1204 1.970 . S
Li1145 O1205 1.956 . S
Li1145 O1207 1.961 . S
Li1146 N1191 1.990 . S
Li1146 O1204 1.961 . S
Li1146 O1206 1.956 . S
Li1146 O1207 1.970 . S
Li1147 N1197 1.990 . S
Li1147 O1205 1.961 . S
Li1147 O1206 1.970 . S
Li1147 O1207 1.956 . S
C1148 C1150 1.348 . S
C1148 C1151 1.356 . S
C1148 O1204 1.325 . S
N1149 C1152 1.314 . S
N1149 C1153 1.279 . S
C1150 C1148 1.348 . S
C1150 C1152 1.353 . S
C1150 H1208 0.929 . S
C1151 C1148 1.356 . S
C1151 C1153 1.358 . S
C1151 H1209 0.930 . S
C1152 N1149 1.314 . S
C1152 C1150 1.353 . S
C1152 H1210 0.930 . S
C1153 N1149 1.279 . S
C1153 C1151 1.358 . S
C1153 H1211 0.930 . S
C1154 C1157 1.348 . S
C1154 C1158 1.356 . S
C1154 O1205 1.325 . S
C1155 N1156 1.279 . S
C1155 C1158 1.358 . S
C1155 H1212 0.930 1_455 S
N1156 C1155 1.279 . S
N1156 C1159 1.314 . S
C1157 C1154 1.348 . S
C1157 C1159 1.353 . S
C1157 H1213 0.929 . S
C1158 C1154 1.356 . S
C1158 C1155 1.358 . S
C1158 H1214 0.930 . S
C1159 N1156 1.314 . S
C1159 C1157 1.353 . S
C1159 H1215 0.930 . S
C1160 N1161 1.314 . S
C1160 C1165 1.353 . S
C1160 H1166 0.930 . S
N1161 Li1144 1.990 . S
N1161 C1160 1.314 . S
N1161 C1163 1.279 . S
C1162 C1163 1.358 . S
C1162 C1164 1.356 . S
C1162 H1216 0.930 . S
C1163 N1161 1.279 . S
C1163 C1162 1.358 . S
C1163 H1167 0.930 . S
C1164 C1162 1.356 . S
C1164 C1165 1.348 . S
C1165 C1160 1.353 . S
C1165 C1164 1.348 . S
C1165 H1217 0.929 . S
H1166 C1160 0.930 . S
H1167 C1163 0.930 . S
C1168 N1169 1.314 . S
C1168 C1170 1.353 . S
C1168 H1174 0.930 . S
N1169 Li1145 1.990 . S
N1169 C1168 1.314 . S
N1169 C1172 1.279 . S
C1170 C1168 1.353 . S
C1170 C1173 1.348 . S
C1170 H1218 0.929 . S
C1171 C1172 1.358 . S
C1171 C1173 1.356 . S
C1171 H1219 0.930 . S
C1172 N1169 1.279 . S
C1172 C1171 1.358 . S
C1172 H1175 0.930 . S
C1173 C1170 1.348 . S
C1173 C1171 1.356 . S
H1174 C1168 0.930 . S
H1175 C1172 0.930 . S
C1176 C1178 1.348 . S
C1176 C1179 1.356 . S
C1176 O1206 1.325 . S
N1177 C1180 1.314 . S
N1177 C1181 1.279 . S
C1178 C1176 1.348 . S
C1178 C1180 1.353 . S
C1178 H1220 0.929 . S
C1179 C1176 1.356 . S
C1179 C1181 1.358 . S
C1179 H1221 0.930 . S
C1180 N1177 1.314 . S
C1180 C1178 1.353 . S
C1180 H1222 0.930 . S
C1181 N1177 1.279 . S
C1181 C1179 1.358 . S
C1181 H1223 0.930 . S
C1182 C1183 1.348 . S
C1182 C1184 1.356 . S
C1182 O1207 1.325 . S
C1183 C1182 1.348 . S
C1183 C1185 1.353 . S
C1183 H1224 0.929 . S
C1184 C1182 1.356 . S
C1184 C1186 1.358 . S
C1184 H1225 0.930 . S
C1185 C1183 1.353 . S
C1185 N1187 1.314 . S
C1185 H1226 0.930 . S
C1186 C1184 1.358 . S
C1186 N1187 1.279 . S
C1186 H1227 0.930 1_455 S
N1187 C1185 1.314 . S
N1187 C1186 1.279 . S
C1188 C1190 1.353 . S
C1188 N1191 1.314 . S
C1188 H1194 0.930 . S
C1189 N1191 1.279 . S
C1189 C1192 1.358 . S
C1189 H1195 0.930 . S
C1190 C1188 1.353 . S
C1190 C1193 1.348 . S
C1190 H1228 0.929 . S
N1191 Li1146 1.990 . S
N1191 C1188 1.314 . S
N1191 C1189 1.279 . S
C1192 C1189 1.358 . S
C1192 C1193 1.356 . S
C1192 H1229 0.930 . S
C1193 C1190 1.348 . S
C1193 C1192 1.356 . S
H1194 C1188 0.930 . S
H1195 C1189 0.930 . S
C1196 N1197 1.314 . S
C1196 C1198 1.353 . S
C1196 H1202 0.930 . S
N1197 Li1147 1.990 . S
N1197 C1196 1.314 . S
N1197 C1200 1.279 . S
C1198 C1196 1.353 . S
C1198 C1201 1.348 . S
C1198 H1230 0.929 . S
C1199 C1200 1.358 . S
C1199 C1201 1.354 . S
C1199 H1231 0.930 1_455 S
C1200 N1197 1.279 . S
C1200 C1199 1.358 . S
C1200 H1203 0.930 . S
C1201 C1198 1.348 . S
C1201 C1199 1.354 . S
H1202 C1196 0.930 . S
H1203 C1200 0.930 . S
O1204 Li1144 1.956 . S
O1204 Li1145 1.970 . S
O1204 Li1146 1.961 . S
O1204 C1148 1.325 . S
O1205 Li1144 1.970 . S
O1205 Li1145 1.956 . S
O1205 Li1147 1.961 . S
O1205 C1154 1.325 . S
O1206 Li1144 1.961 . S
O1206 Li1146 1.956 . S
O1206 Li1147 1.970 . S
O1206 C1176 1.325 . S
O1207 Li1145 1.961 . S
O1207 Li1146 1.970 . S
O1207 Li1147 1.956 . S
O1207 C1182 1.325 . S
H1208 C1150 0.929 . S
H1209 C1151 0.930 . S
H1210 C1152 0.930 . S
H1211 C1153 0.930 . S
H1212 C1155 0.930 1_655 S
H1213 C1157 0.929 . S
H1214 C1158 0.930 . S
H1215 C1159 0.930 . S
H1216 C1162 0.930 . S
H1217 C1165 0.929 . S
H1218 C1170 0.929 . S
H1219 C1171 0.930 . S
H1220 C1178 0.929 . S
H1221 C1179 0.930 . S
H1222 C1180 0.930 . S
H1223 C1181 0.930 . S
H1224 C1183 0.929 . S
H1225 C1184 0.930 . S
H1226 C1185 0.930 . S
H1227 C1186 0.930 1_655 S
H1228 C1190 0.929 . S
H1229 C1192 0.930 . S
H1230 C1198 0.929 . S
H1231 C1199 0.930 1_655 S
Li1232 N1249 1.990 . S
Li1232 O1292 1.956 . S
Li1232 O1293 1.970 . S
Li1232 O1294 1.961 . S
Li1233 N1257 1.990 . S
Li1233 O1292 1.970 . S
Li1233 O1293 1.956 . S
Li1233 O1295 1.961 . S
Li1234 N1279 1.990 . S
Li1234 O1292 1.961 . S
Li1234 O1294 1.956 . S
Li1234 O1295 1.970 . S
Li1235 N1285 1.990 . S
Li1235 O1293 1.961 . S
Li1235 O1294 1.970 . S
Li1235 O1295 1.956 . S
C1236 C1238 1.348 . S
C1236 C1239 1.356 . S
C1236 O1292 1.325 . S
N1237 C1240 1.314 . S
N1237 C1241 1.279 . S
C1238 C1236 1.348 . S
C1238 C1240 1.353 . S
C1238 H1296 0.929 . S
C1239 C1236 1.356 . S
C1239 C1241 1.358 . S
C1239 H1297 0.930 . S
C1240 N1237 1.314 . S
C1240 C1238 1.353 . S
C1240 H1298 0.930 . S
C1241 N1237 1.279 . S
C1241 C1239 1.358 . S
C1241 H1299 0.930 . S
C1242 C1245 1.348 . S
C1242 C1246 1.356 . S
C1242 O1293 1.325 . S
C1243 N1244 1.279 . S
C1243 C1246 1.358 . S
C1243 H1300 0.930 . S
N1244 C1243 1.279 . S
N1244 C1247 1.314 . S
C1245 C1242 1.348 . S
C1245 C1247 1.353 . S
C1245 H1301 0.929 . S
C1246 C1242 1.356 . S
C1246 C1243 1.358 . S
C1246 H1302 0.930 . S
C1247 N1244 1.314 . S
C1247 C1245 1.353 . S
C1247 H1303 0.930 . S
C1248 N1249 1.314 . S
C1248 C1253 1.353 . S
C1248 H1254 0.930 . S
N1249 Li1232 1.990 . S
N1249 C1248 1.314 . S
N1249 C1251 1.279 . S
C1250 C1251 1.358 . S
C1250 C1252 1.356 . S
C1250 H1304 0.930 . S
C1251 N1249 1.279 . S
C1251 C1250 1.358 . S
C1251 H1255 0.930 . S
C1252 C1250 1.356 . S
C1252 C1253 1.348 . S
C1253 C1248 1.353 . S
C1253 C1252 1.348 . S
C1253 H1305 0.929 . S
H1254 C1248 0.930 . S
H1255 C1251 0.930 . S
C1256 N1257 1.314 . S
C1256 C1258 1.353 . S
C1256 H1262 0.930 . S
N1257 Li1233 1.990 . S
N1257 C1256 1.314 . S
N1257 C1260 1.279 . S
C1258 C1256 1.353 . S
C1258 C1261 1.348 . S
C1258 H1306 0.929 . S
C1259 C1260 1.358 . S
C1259 C1261 1.356 . S
C1259 H1307 0.930 . S
C1260 N1257 1.279 . S
C1260 C1259 1.358 . S
C1260 H1263 0.930 . S
C1261 C1258 1.348 . S
C1261 C1259 1.356 . S
H1262 C1256 0.930 . S
H1263 C1260 0.930 . S
C1264 C1266 1.348 . S
C1264 C1267 1.356 . S
C1264 O1294 1.325 . S
N1265 C1268 1.314 . S
N1265 C1269 1.279 . S
C1266 C1264 1.348 . S
C1266 C1268 1.353 . S
C1266 H1308 0.929 . S
C1267 C1264 1.356 . S
C1267 C1269 1.358 . S
C1267 H1309 0.930 . S
C1268 N1265 1.314 . S
C1268 C1266 1.353 . S
C1268 H1310 0.930 . S
C1269 N1265 1.279 . S
C1269 C1267 1.358 . S
C1269 H1311 0.930 . S
C1270 C1271 1.348 . S
C1270 C1272 1.356 . S
C1270 O1295 1.325 . S
C1271 C1270 1.348 . S
C1271 C1273 1.353 . S
C1271 H1312 0.929 . S
C1272 C1270 1.356 . S
C1272 C1274 1.358 . S
C1272 H1313 0.930 . S
C1273 C1271 1.353 . S
C1273 N1275 1.314 . S
C1273 H1314 0.930 . S
C1274 C1272 1.358 . S
C1274 N1275 1.279 . S
C1274 H1315 0.930 . S
N1275 C1273 1.314 . S
N1275 C1274 1.279 . S
C1276 C1278 1.353 . S
C1276 N1279 1.314 . S
C1276 H1282 0.930 . S
C1277 N1279 1.279 . S
C1277 C1280 1.358 . S
C1277 H1283 0.930 . S
C1278 C1276 1.353 . S
C1278 C1281 1.348 . S
C1278 H1316 0.929 . S
N1279 Li1234 1.990 . S
N1279 C1276 1.314 . S
N1279 C1277 1.279 . S
C1280 C1277 1.358 . S
C1280 C1281 1.356 . S
C1280 H1317 0.930 . S
C1281 C1278 1.348 . S
C1281 C1280 1.356 . S
H1282 C1276 0.930 . S
H1283 C1277 0.930 . S
C1284 N1285 1.314 . S
C1284 C1286 1.353 . S
C1284 H1290 0.930 . S
N1285 Li1235 1.990 . S
N1285 C1284 1.314 . S
N1285 C1288 1.279 . S
C1286 C1284 1.353 . S
C1286 C1289 1.348 . S
C1286 H1318 0.929 . S
C1287 C1288 1.358 . S
C1287 C1289 1.356 . S
C1287 H1319 0.930 . S
C1288 N1285 1.279 . S
C1288 C1287 1.358 . S
C1288 H1291 0.930 . S
C1289 C1286 1.348 . S
C1289 C1287 1.356 . S
H1290 C1284 0.930 . S
H1291 C1288 0.930 . S
O1292 Li1232 1.956 . S
O1292 Li1233 1.970 . S
O1292 Li1234 1.961 . S
O1292 C1236 1.325 . S
O1293 Li1232 1.970 . S
O1293 Li1233 1.956 . S
O1293 Li1235 1.961 . S
O1293 C1242 1.325 . S
O1294 Li1232 1.961 . S
O1294 Li1234 1.956 . S
O1294 Li1235 1.970 . S
O1294 C1264 1.325 . S
O1295 Li1233 1.961 . S
O1295 Li1234 1.970 . S
O1295 Li1235 1.956 . S
O1295 C1270 1.325 . S
H1296 C1238 0.929 . S
H1297 C1239 0.930 . S
H1298 C1240 0.930 . S
H1299 C1241 0.930 . S
H1300 C1243 0.930 . S
H1301 C1245 0.929 . S
H1302 C1246 0.930 . S
H1303 C1247 0.930 . S
H1304 C1250 0.930 . S
H1305 C1253 0.929 . S
H1306 C1258 0.929 . S
H1307 C1259 0.930 . S
H1308 C1266 0.929 . S
H1309 C1267 0.930 . S
H1310 C1268 0.930 . S
H1311 C1269 0.930 . S
H1312 C1271 0.929 . S
H1313 C1272 0.930 . S
H1314 C1273 0.930 . S
H1315 C1274 0.930 . S
H1316 C1278 0.929 . S
H1317 C1280 0.930 . S
H1318 C1286 0.929 . S
H1319 C1287 0.930 . S
Li1320 N1337 1.990 . S
Li1320 O1380 1.956 . S
Li1320 O1381 1.970 . S
Li1320 O1382 1.961 . S
Li1321 N1345 1.990 . S
Li1321 O1380 1.970 . S
Li1321 O1381 1.956 . S
Li1321 O1383 1.961 . S
Li1322 N1367 1.990 . S
Li1322 O1380 1.961 . S
Li1322 O1382 1.956 . S
Li1322 O1383 1.970 . S
Li1323 N1373 1.990 . S
Li1323 O1381 1.961 . S
Li1323 O1382 1.970 . S
Li1323 O1383 1.956 . S
C1324 C1326 1.348 . S
C1324 C1327 1.356 . S
C1324 O1380 1.325 . S
N1325 C1328 1.314 . S
N1325 C1329 1.279 . S
C1326 C1324 1.348 . S
C1326 C1328 1.353 . S
C1326 H1384 0.929 . S
C1327 C1324 1.356 . S
C1327 C1329 1.358 . S
C1327 H1385 0.930 . S
C1328 N1325 1.314 . S
C1328 C1326 1.353 . S
C1328 H1386 0.930 . S
C1329 N1325 1.279 . S
C1329 C1327 1.358 . S
C1329 H1387 0.930 . S
C1330 C1333 1.348 . S
C1330 C1334 1.356 . S
C1330 O1381 1.325 . S
C1331 N1332 1.279 . S
C1331 C1334 1.358 . S
C1331 H1388 0.930 . S
N1332 C1331 1.279 . S
N1332 C1335 1.314 . S
C1333 C1330 1.348 . S
C1333 C1335 1.353 . S
C1333 H1389 0.929 . S
C1334 C1330 1.356 . S
C1334 C1331 1.358 . S
C1334 H1390 0.930 . S
C1335 N1332 1.314 . S
C1335 C1333 1.353 . S
C1335 H1391 0.930 . S
C1336 N1337 1.314 . S
C1336 C1341 1.353 . S
C1336 H1342 0.930 . S
N1337 Li1320 1.990 . S
N1337 C1336 1.314 . S
N1337 C1339 1.279 . S
C1338 C1339 1.358 . S
C1338 C1340 1.356 . S
C1338 H1392 0.930 . S
C1339 N1337 1.279 . S
C1339 C1338 1.358 . S
C1339 H1343 0.930 . S
C1340 C1338 1.356 . S
C1340 C1341 1.348 . S
C1341 C1336 1.353 . S
C1341 C1340 1.348 . S
C1341 H1393 0.929 . S
H1342 C1336 0.930 . S
H1343 C1339 0.930 . S
C1344 N1345 1.314 . S
C1344 C1346 1.353 . S
C1344 H1350 0.930 . S
N1345 Li1321 1.990 . S
N1345 C1344 1.314 . S
N1345 C1348 1.279 . S
C1346 C1344 1.353 . S
C1346 C1349 1.348 . S
C1346 H1394 0.929 . S
C1347 C1348 1.358 . S
C1347 C1349 1.356 . S
C1347 H1395 0.930 . S
C1348 N1345 1.279 . S
C1348 C1347 1.358 . S
C1348 H1351 0.930 . S
C1349 C1346 1.348 . S
C1349 C1347 1.356 . S
H1350 C1344 0.930 . S
H1351 C1348 0.930 . S
C1352 C1354 1.348 . S
C1352 C1355 1.356 . S
C1352 O1382 1.325 . S
N1353 C1356 1.314 . S
N1353 C1357 1.279 . S
C1354 C1352 1.348 . S
C1354 C1356 1.353 . S
C1354 H1396 0.929 . S
C1355 C1352 1.356 . S
C1355 C1357 1.358 . S
C1355 H1397 0.930 . S
C1356 N1353 1.314 . S
C1356 C1354 1.353 . S
C1356 H1398 0.930 . S
C1357 N1353 1.279 . S
C1357 C1355 1.358 . S
C1357 H1399 0.930 . S
C1358 C1359 1.348 . S
C1358 C1360 1.356 . S
C1358 O1383 1.325 . S
C1359 C1358 1.348 . S
C1359 C1361 1.353 . S
C1359 H1400 0.929 . S
C1360 C1358 1.356 . S
C1360 C1362 1.358 . S
C1360 H1401 0.930 . S
C1361 C1359 1.353 . S
C1361 N1363 1.314 . S
C1361 H1402 0.930 . S
C1362 C1360 1.358 . S
C1362 N1363 1.279 . S
C1362 H1403 0.930 . S
N1363 C1361 1.314 . S
N1363 C1362 1.279 . S
C1364 C1366 1.353 . S
C1364 N1367 1.314 . S
C1364 H1370 0.930 . S
C1365 N1367 1.279 . S
C1365 C1368 1.358 . S
C1365 H1371 0.930 . S
C1366 C1364 1.353 . S
C1366 C1369 1.348 . S
C1366 H1404 0.929 . S
N1367 Li1322 1.990 . S
N1367 C1364 1.314 . S
N1367 C1365 1.279 . S
C1368 C1365 1.358 . S
C1368 C1369 1.356 . S
C1368 H1405 0.930 . S
C1369 C1366 1.348 . S
C1369 C1368 1.356 . S
H1370 C1364 0.930 . S
H1371 C1365 0.930 . S
C1372 N1373 1.314 . S
C1372 C1374 1.353 . S
C1372 H1378 0.930 . S
N1373 Li1323 1.990 . S
N1373 C1372 1.314 . S
N1373 C1376 1.279 . S
C1374 C1372 1.353 . S
C1374 C1377 1.348 . S
C1374 H1406 0.929 . S
C1375 C1376 1.358 . S
C1375 C1377 1.356 . S
C1375 H1407 0.930 . S
C1376 N1373 1.279 . S
C1376 C1375 1.358 . S
C1376 H1379 0.930 . S
C1377 C1374 1.348 . S
C1377 C1375 1.356 . S
H1378 C1372 0.930 . S
H1379 C1376 0.930 . S
O1380 Li1320 1.956 . S
O1380 Li1321 1.970 . S
O1380 Li1322 1.961 . S
O1380 C1324 1.325 . S
O1381 Li1320 1.970 . S
O1381 Li1321 1.956 . S
O1381 Li1323 1.961 . S
O1381 C1330 1.325 . S
O1382 Li1320 1.961 . S
O1382 Li1322 1.956 . S
O1382 Li1323 1.970 . S
O1382 C1352 1.325 . S
O1383 Li1321 1.961 . S
O1383 Li1322 1.970 . S
O1383 Li1323 1.956 . S
O1383 C1358 1.325 . S
H1384 C1326 0.929 . S
H1385 C1327 0.930 . S
H1386 C1328 0.930 . S
H1387 C1329 0.930 . S
H1388 C1331 0.930 . S
H1389 C1333 0.929 . S
H1390 C1334 0.930 . S
H1391 C1335 0.930 . S
H1392 C1338 0.930 . S
H1393 C1341 0.929 . S
H1394 C1346 0.929 . S
H1395 C1347 0.930 . S
H1396 C1354 0.929 . S
H1397 C1355 0.930 . S
H1398 C1356 0.930 . S
H1399 C1357 0.930 . S
H1400 C1359 0.929 . S
H1401 C1360 0.930 . S
H1402 C1361 0.930 . S
H1403 C1362 0.930 . S
H1404 C1366 0.929 . S
H1405 C1368 0.930 . S
H1406 C1374 0.929 . S
H1407 C1375 0.930 . S
Li1408 N1425 1.990 . S
Li1408 O1468 1.956 . S
Li1408 O1469 1.970 . S
Li1408 O1470 1.961 . S
Li1409 N1433 1.990 . S
Li1409 O1468 1.970 . S
Li1409 O1469 1.956 . S
Li1409 O1471 1.961 . S
Li1410 N1455 1.990 . S
Li1410 O1468 1.961 . S
Li1410 O1470 1.956 . S
Li1410 O1471 1.970 . S
Li1411 N1461 1.990 . S
Li1411 O1469 1.961 . S
Li1411 O1470 1.970 . S
Li1411 O1471 1.956 . S
C1412 C1414 1.348 . S
C1412 C1415 1.356 . S
C1412 O1468 1.325 . S
N1413 C1416 1.314 . S
N1413 C1417 1.279 . S
C1414 C1412 1.348 . S
C1414 C1416 1.353 . S
C1414 H1472 0.929 . S
C1415 C1412 1.356 . S
C1415 C1417 1.358 . S
C1415 H1473 0.930 . S
C1416 N1413 1.314 . S
C1416 C1414 1.353 . S
C1416 H1474 0.930 . S
C1417 N1413 1.279 . S
C1417 C1415 1.358 . S
C1417 H1475 0.930 . S
C1418 C1421 1.348 . S
C1418 C1422 1.356 . S
C1418 O1469 1.325 . S
C1419 N1420 1.279 . S
C1419 C1422 1.358 . S
C1419 H1476 0.930 . S
N1420 C1419 1.279 . S
N1420 C1423 1.314 . S
C1421 C1418 1.348 . S
C1421 C1423 1.353 . S
C1421 H1477 0.929 . S
C1422 C1418 1.356 . S
C1422 C1419 1.358 . S
C1422 H1478 0.930 . S
C1423 N1420 1.314 . S
C1423 C1421 1.353 . S
C1423 H1479 0.930 . S
C1424 N1425 1.314 . S
C1424 C1429 1.353 . S
C1424 H1430 0.930 . S
N1425 Li1408 1.990 . S
N1425 C1424 1.314 . S
N1425 C1427 1.279 . S
C1426 C1427 1.358 . S
C1426 C1428 1.356 . S
C1426 H1480 0.930 . S
C1427 N1425 1.279 . S
C1427 C1426 1.358 . S
C1427 H1431 0.930 . S
C1428 C1426 1.356 . S
C1428 C1429 1.348 . S
C1429 C1424 1.353 . S
C1429 C1428 1.348 . S
C1429 H1481 0.929 . S
H1430 C1424 0.930 . S
H1431 C1427 0.930 . S
C1432 N1433 1.314 . S
C1432 C1434 1.353 . S
C1432 H1438 0.930 . S
N1433 Li1409 1.990 . S
N1433 C1432 1.314 . S
N1433 C1436 1.279 . S
C1434 C1432 1.353 . S
C1434 C1437 1.348 . S
C1434 H1482 0.929 . S
C1435 C1436 1.358 . S
C1435 C1437 1.356 . S
C1435 H1483 0.930 . S
C1436 N1433 1.279 . S
C1436 C1435 1.358 . S
C1436 H1439 0.930 . S
C1437 C1434 1.348 . S
C1437 C1435 1.356 . S
H1438 C1432 0.930 . S
H1439 C1436 0.930 . S
C1440 C1442 1.348 . S
C1440 C1443 1.356 . S
C1440 O1470 1.325 . S
N1441 C1444 1.314 . S
N1441 C1445 1.279 . S
C1442 C1440 1.348 . S
C1442 C1444 1.353 . S
C1442 H1484 0.929 . S
C1443 C1440 1.356 . S
C1443 C1445 1.358 . S
C1443 H1485 0.930 . S
C1444 N1441 1.314 . S
C1444 C1442 1.353 . S
C1444 H1486 0.930 . S
C1445 N1441 1.279 . S
C1445 C1443 1.358 . S
C1445 H1487 0.930 . S
C1446 C1447 1.348 . S
C1446 C1448 1.356 . S
C1446 O1471 1.325 . S
C1447 C1446 1.348 . S
C1447 C1449 1.353 . S
C1447 H1488 0.929 . S
C1448 C1446 1.356 . S
C1448 C1450 1.358 . S
C1448 H1489 0.930 . S
C1449 C1447 1.353 . S
C1449 N1451 1.314 . S
C1449 H1490 0.930 . S
C1450 C1448 1.358 . S
C1450 N1451 1.279 . S
C1450 H1491 0.930 . S
N1451 C1449 1.314 . S
N1451 C1450 1.279 . S
C1452 C1454 1.353 . S
C1452 N1455 1.314 . S
C1452 H1458 0.930 . S
C1453 N1455 1.279 . S
C1453 C1456 1.358 . S
C1453 H1459 0.930 . S
C1454 C1452 1.353 . S
C1454 C1457 1.348 . S
C1454 H1492 0.929 . S
N1455 Li1410 1.990 . S
N1455 C1452 1.314 . S
N1455 C1453 1.279 . S
C1456 C1453 1.358 . S
C1456 C1457 1.356 . S
C1456 H1493 0.930 . S
C1457 C1454 1.348 . S
C1457 C1456 1.356 . S
H1458 C1452 0.930 . S
H1459 C1453 0.930 . S
C1460 N1461 1.314 . S
C1460 C1462 1.353 . S
C1460 H1466 0.930 . S
N1461 Li1411 1.990 . S
N1461 C1460 1.314 . S
N1461 C1464 1.279 . S
C1462 C1460 1.353 . S
C1462 C1465 1.348 . S
C1462 H1494 0.929 . S
C1463 C1464 1.358 . S
C1463 C1465 1.356 . S
C1463 H1495 0.930 . S
C1464 N1461 1.279 . S
C1464 C1463 1.358 . S
C1464 H1467 0.930 . S
C1465 C1462 1.348 . S
C1465 C1463 1.356 . S
H1466 C1460 0.930 . S
H1467 C1464 0.930 . S
O1468 Li1408 1.956 . S
O1468 Li1409 1.970 . S
O1468 Li1410 1.961 . S
O1468 C1412 1.325 . S
O1469 Li1408 1.970 . S
O1469 Li1409 1.956 . S
O1469 Li1411 1.961 . S
O1469 C1418 1.325 . S
O1470 Li1408 1.961 . S
O1470 Li1410 1.956 . S
O1470 Li1411 1.970 . S
O1470 C1440 1.325 . S
O1471 Li1409 1.961 . S
O1471 Li1410 1.970 . S
O1471 Li1411 1.956 . S
O1471 C1446 1.325 . S
H1472 C1414 0.929 . S
H1473 C1415 0.930 . S
H1474 C1416 0.930 . S
H1475 C1417 0.930 . S
H1476 C1419 0.930 . S
H1477 C1421 0.929 . S
H1478 C1422 0.930 . S
H1479 C1423 0.930 . S
H1480 C1426 0.930 . S
H1481 C1429 0.929 . S
H1482 C1434 0.929 . S
H1483 C1435 0.930 . S
H1484 C1442 0.929 . S
H1485 C1443 0.930 . S
H1486 C1444 0.930 . S
H1487 C1445 0.930 . S
H1488 C1447 0.929 . S
H1489 C1448 0.930 . S
H1490 C1449 0.930 . S
H1491 C1450 0.930 . S
H1492 C1454 0.929 . S
H1493 C1456 0.930 . S
H1494 C1462 0.929 . S
H1495 C1463 0.930 . S
Li1496 N1513 1.990 . S
Li1496 O1556 1.956 . S
Li1496 O1557 1.970 . S
Li1496 O1558 1.961 . S
Li1497 N1521 1.990 . S
Li1497 O1556 1.970 . S
Li1497 O1557 1.956 . S
Li1497 O1559 1.961 . S
Li1498 N1543 1.990 . S
Li1498 O1556 1.961 . S
Li1498 O1558 1.956 . S
Li1498 O1559 1.970 . S
Li1499 N1549 1.990 . S
Li1499 O1557 1.961 . S
Li1499 O1558 1.970 . S
Li1499 O1559 1.956 . S
C1500 C1502 1.348 . S
C1500 C1503 1.356 . S
C1500 O1556 1.325 . S
N1501 C1504 1.314 . S
N1501 C1505 1.279 . S
C1502 C1500 1.348 . S
C1502 C1504 1.353 . S
C1502 H1560 0.929 . S
C1503 C1500 1.356 . S
C1503 C1505 1.358 . S
C1503 H1561 0.930 . S
C1504 N1501 1.314 . S
C1504 C1502 1.353 . S
C1504 H1562 0.930 . S
C1505 N1501 1.279 . S
C1505 C1503 1.358 . S
C1505 H1563 0.930 . S
C1506 C1509 1.348 . S
C1506 C1510 1.356 . S
C1506 O1557 1.325 . S
C1507 N1508 1.279 . S
C1507 C1510 1.358 . S
C1507 H1564 0.930 . S
N1508 C1507 1.279 . S
N1508 C1511 1.314 . S
C1509 C1506 1.348 . S
C1509 C1511 1.353 . S
C1509 H1565 0.929 . S
C1510 C1506 1.356 . S
C1510 C1507 1.358 . S
C1510 H1566 0.930 . S
C1511 N1508 1.314 . S
C1511 C1509 1.353 . S
C1511 H1567 0.930 . S
C1512 N1513 1.314 . S
C1512 C1517 1.353 . S
C1512 H1518 0.930 . S
N1513 Li1496 1.990 . S
N1513 C1512 1.314 . S
N1513 C1515 1.279 . S
C1514 C1515 1.358 . S
C1514 C1516 1.356 . S
C1514 H1568 0.930 . S
C1515 N1513 1.279 . S
C1515 C1514 1.358 . S
C1515 H1519 0.930 . S
C1516 C1514 1.356 . S
C1516 C1517 1.348 . S
C1517 C1512 1.353 . S
C1517 C1516 1.348 . S
C1517 H1569 0.929 . S
H1518 C1512 0.930 . S
H1519 C1515 0.930 . S
C1520 N1521 1.314 . S
C1520 C1522 1.353 . S
C1520 H1526 0.930 . S
N1521 Li1497 1.990 . S
N1521 C1520 1.314 . S
N1521 C1524 1.279 . S
C1522 C1520 1.353 . S
C1522 C1525 1.348 . S
C1522 H1570 0.929 . S
C1523 C1524 1.358 . S
C1523 C1525 1.356 . S
C1523 H1571 0.930 . S
C1524 N1521 1.279 . S
C1524 C1523 1.358 . S
C1524 H1527 0.930 . S
C1525 C1522 1.348 . S
C1525 C1523 1.356 . S
H1526 C1520 0.930 . S
H1527 C1524 0.930 . S
C1528 C1530 1.348 . S
C1528 C1531 1.356 . S
C1528 O1558 1.325 . S
N1529 C1532 1.314 . S
N1529 C1533 1.279 . S
C1530 C1528 1.348 . S
C1530 C1532 1.353 . S
C1530 H1572 0.929 . S
C1531 C1528 1.356 . S
C1531 C1533 1.358 . S
C1531 H1573 0.930 . S
C1532 N1529 1.314 . S
C1532 C1530 1.353 . S
C1532 H1574 0.930 . S
C1533 N1529 1.279 . S
C1533 C1531 1.358 . S
C1533 H1575 0.930 . S
C1534 C1535 1.348 . S
C1534 C1536 1.356 . S
C1534 O1559 1.325 . S
C1535 C1534 1.348 . S
C1535 C1537 1.353 . S
C1535 H1576 0.929 . S
C1536 C1534 1.356 . S
C1536 C1538 1.358 . S
C1536 H1577 0.930 . S
C1537 C1535 1.353 . S
C1537 N1539 1.314 . S
C1537 H1578 0.930 . S
C1538 C1536 1.358 . S
C1538 N1539 1.279 . S
C1538 H1579 0.930 . S
N1539 C1537 1.314 . S
N1539 C1538 1.279 . S
C1540 C1542 1.353 . S
C1540 N1543 1.314 . S
C1540 H1546 0.930 . S
C1541 N1543 1.279 . S
C1541 C1544 1.358 . S
C1541 H1547 0.930 . S
C1542 C1540 1.353 . S
C1542 C1545 1.348 . S
C1542 H1580 0.929 . S
N1543 Li1498 1.990 . S
N1543 C1540 1.314 . S
N1543 C1541 1.279 . S
C1544 C1541 1.358 . S
C1544 C1545 1.356 . S
C1544 H1581 0.930 . S
C1545 C1542 1.348 . S
C1545 C1544 1.356 . S
H1546 C1540 0.930 . S
H1547 C1541 0.930 . S
C1548 N1549 1.314 . S
C1548 C1550 1.353 . S
C1548 H1554 0.930 . S
N1549 Li1499 1.990 . S
N1549 C1548 1.314 . S
N1549 C1552 1.279 . S
C1550 C1548 1.353 . S
C1550 C1553 1.348 . S
C1550 H1582 0.929 . S
C1551 C1552 1.358 . S
C1551 C1553 1.356 . S
C1551 H1583 0.930 . S
C1552 N1549 1.279 . S
C1552 C1551 1.358 . S
C1552 H1555 0.930 . S
C1553 C1550 1.348 . S
C1553 C1551 1.356 . S
H1554 C1548 0.930 . S
H1555 C1552 0.930 . S
O1556 Li1496 1.956 . S
O1556 Li1497 1.970 . S
O1556 Li1498 1.961 . S
O1556 C1500 1.325 . S
O1557 Li1496 1.970 . S
O1557 Li1497 1.956 . S
O1557 Li1499 1.961 . S
O1557 C1506 1.325 . S
O1558 Li1496 1.961 . S
O1558 Li1498 1.956 . S
O1558 Li1499 1.970 . S
O1558 C1528 1.325 . S
O1559 Li1497 1.961 . S
O1559 Li1498 1.970 . S
O1559 Li1499 1.956 . S
O1559 C1534 1.325 . S
H1560 C1502 0.929 . S
H1561 C1503 0.930 . S
H1562 C1504 0.930 . S
H1563 C1505 0.930 . S
H1564 C1507 0.930 . S
H1565 C1509 0.929 . S
H1566 C1510 0.930 . S
H1567 C1511 0.930 . S
H1568 C1514 0.930 . S
H1569 C1517 0.929 . S
H1570 C1522 0.929 . S
H1571 C1523 0.930 . S
H1572 C1530 0.929 . S
H1573 C1531 0.930 . S
H1574 C1532 0.930 . S
H1575 C1533 0.930 . S
H1576 C1535 0.929 . S
H1577 C1536 0.930 . S
H1578 C1537 0.930 . S
H1579 C1538 0.930 . S
H1580 C1542 0.929 . S
H1581 C1544 0.930 . S
H1582 C1550 0.929 . S
H1583 C1551 0.930 . S
C1553 C20 2.640 . S
C1369 C117 2.640 . S
C1465 C196 2.640 . S
C645 C321 2.640 . S
C724 C409 2.640 . S
C497 C557 2.640 . S
C849 C1173 2.640 1_654 S
C937 C1252 2.640 1_554 S
C1025 C1076 2.640 1_544 S
C49 C1525 0.425 . S
C1340 C145 0.425 . S
C225 C1437 0.425 . S
C673 C293 0.425 . S
C381 C753 0.425 . S
C469 C585 0.425 . S
C821 C1201 0.425 1_655 S
C1281 C909 0.425 . S
C1105 C997 0.425 1_565 S
C29 C313 2.100 1_554 S
C401 C108 2.100 1_546 S
C489 C205 2.100 1_656 S
C460 C137 2.090 1_556 S
C233 C284 2.090 1_564 S
C372 C57 2.090 1_656 S
C548 C841 2.100 . S
C929 C636 2.100 . S
C1017 C733 2.100 . S
C988 C665 2.090 . S
C761 C812 2.090 . S
C900 C577 2.090 . S
C1377 C1085 2.100 . S
C1457 C1164 2.100 . S
C1261 C1545 2.100 . S
C1516 C1193 2.090 . S
C1289 C1349 2.090 . S
C1428 C1113 2.090 . S
