# Generated by pormake.
# Topology wfs, (7)-cn, num edge types: 1
# Building blocks:
#     Node 0, Type 0, BuildingBlock: HICVOG_clean_sbu_0, # of connection points: 7
#     Node 1, Type 0, BuildingBlock: HICVOG_clean_sbu_0, # of connection points: 7
#     Node 2, Type 0, BuildingBlock: HICVOG_clean_sbu_0, # of connection points: 7
#     Node 3, Type 0, BuildingBlock: HICVOG_clean_sbu_0, # of connection points: 7
#     Node 4, Type 0, BuildingBlock: HICVOG_clean_sbu_0, # of connection points: 7
#     Node 5, Type 0, BuildingBlock: HICVOG_clean_sbu_0, # of connection points: 7
#     Node 6, Type 0, BuildingBlock: HICVOG_clean_sbu_0, # of connection points: 7
#     Node 7, Type 0, BuildingBlock: HICVOG_clean_sbu_0, # of connection points: 7
#     Edge 8, Type (0, 0), BuildingBlock: KIFKEQ_clean_linker_1, # of connection points: 2
#     Edge 9, Type (0, 0), BuildingBlock: KIFKEQ_clean_linker_1, # of connection points: 2
#     Edge 10, Type (0, 0), BuildingBlock: KIFKEQ_clean_linker_1, # of connection points: 2
#     Edge 11, Type (0, 0), BuildingBlock: KIFKEQ_clean_linker_1, # of connection points: 2
#     Edge 12, Type (0, 0), BuildingBlock: KIFKEQ_clean_linker_1, # of connection points: 2
#     Edge 13, Type (0, 0), BuildingBlock: KIFKEQ_clean_linker_1, # of connection points: 2
#     Edge 14, Type (0, 0), BuildingBlock: KIFKEQ_clean_linker_1, # of connection points: 2
#     Edge 15, Type (0, 0), BuildingBlock: KIFKEQ_clean_linker_1, # of connection points: 2
#     Edge 16, Type (0, 0), BuildingBlock: KIFKEQ_clean_linker_1, # of connection points: 2
#     Edge 17, Type (0, 0), BuildingBlock: KIFKEQ_clean_linker_1, # of connection points: 2
#     Edge 18, Type (0, 0), BuildingBlock: KIFKEQ_clean_linker_1, # of connection points: 2
#     Edge 19, Type (0, 0), BuildingBlock: KIFKEQ_clean_linker_1, # of connection points: 2
#     Edge 20, Type (0, 0), BuildingBlock: KIFKEQ_clean_linker_1, # of connection points: 2
#     Edge 21, Type (0, 0), BuildingBlock: KIFKEQ_clean_linker_1, # of connection points: 2
#     Edge 22, Type (0, 0), BuildingBlock: KIFKEQ_clean_linker_1, # of connection points: 2
#     Edge 23, Type (0, 0), BuildingBlock: KIFKEQ_clean_linker_1, # of connection points: 2
#     Edge 24, Type (0, 0), BuildingBlock: KIFKEQ_clean_linker_1, # of connection points: 2
#     Edge 25, Type (0, 0), BuildingBlock: KIFKEQ_clean_linker_1, # of connection points: 2
#     Edge 26, Type (0, 0), BuildingBlock: KIFKEQ_clean_linker_1, # of connection points: 2
#     Edge 27, Type (0, 0), BuildingBlock: KIFKEQ_clean_linker_1, # of connection points: 2
#     Edge 28, Type (0, 0), BuildingBlock: KIFKEQ_clean_linker_1, # of connection points: 2
#     Edge 29, Type (0, 0), BuildingBlock: KIFKEQ_clean_linker_1, # of connection points: 2
#     Edge 30, Type (0, 0), BuildingBlock: KIFKEQ_clean_linker_1, # of connection points: 2
#     Edge 31, Type (0, 0), BuildingBlock: KIFKEQ_clean_linker_1, # of connection points: 2
#     Edge 32, Type (0, 0), BuildingBlock: KIFKEQ_clean_linker_1, # of connection points: 2
#     Edge 33, Type (0, 0), BuildingBlock: KIFKEQ_clean_linker_1, # of connection points: 2
#     Edge 34, Type (0, 0), BuildingBlock: KIFKEQ_clean_linker_1, # of connection points: 2
#     Edge 35, Type (0, 0), BuildingBlock: KIFKEQ_clean_linker_1, # of connection points: 2
# Relax obj value: 0.537
# Max RMSD: 0.319
# Mean RMSD: 0.319
data_MOF--net-wfs--node1-HICVOG_clean_sbu_0--edge1-KIFKEQ_clean_linker_1
_symmetry_space_group_name_H-M    P1
_symmetry_Int_Tables_number       1
_symmetry_cell_setting            triclinic
loop_
_symmetry_equiv_pos_as_xyz
'x, y, z'
_cell_length_a     31.724123
_cell_length_b     30.041053
_cell_length_c     33.357457
_cell_angle_alpha  89.922584
_cell_angle_beta   89.889951
_cell_angle_gamma 90.142957
loop_
_atom_site_label
_atom_site_type_symbol
_atom_site_fract_x
_atom_site_fract_y
_atom_site_fract_z
_atom_type_partial_charge
Zn0 Zn 0.16721 0.16239 0.21282 0.0
C1 C 0.17982 0.29366 0.23351 0.0
N2 N 0.22095 0.28322 0.23584 0.0
C3 C 0.22072 0.23932 0.22875 0.0
N4 N 0.18163 0.22342 0.22294 0.0
N5 N 0.15536 0.25753 0.22583 0.0
C6 C 0.07811 0.27744 0.13961 0.0
O7 O 0.11906 0.28207 0.13535 0.0
O8 O 0.21458 0.11705 0.21945 0.0
Zn9 Zn 0.09351 0.25251 0.22735 0.0
N10 N 0.14727 0.15724 0.15906 0.0
C11 C 0.09358 0.16743 0.11038 0.0
C12 C 0.10869 0.17314 0.14922 0.0
C13 C 0.17084 0.13422 0.1323 0.0
N14 N 0.11677 0.14371 0.08375 0.0
C15 C 0.15485 0.12621 0.09388 0.0
O16 O 0.07105 0.19133 0.24733 0.0
C17 C 0.08437 0.15234 0.25597 0.0
O18 O 0.12165 0.14021 0.24774 0.0
H19 H 0.08967 0.18925 0.17159 0.0
H20 H 0.20101 0.12102 0.14146 0.0
C21 C 0.03595 0.31397 0.26144 0.0
C22 C 0.01886 0.34073 0.29185 0.0
C23 C 0.08004 0.32842 0.33106 0.0
C24 C 0.09607 0.30049 0.30139 0.0
N25 N 0.07392 0.29428 0.267 0.0
N26 N 0.04152 0.3472 0.32599 0.0
H27 H 0.01816 0.30633 0.23466 0.0
C28 C 0.23406 0.10586 0.25124 0.0
O29 O 0.2266 0.12745 0.28472 0.0
O30 O 0.06325 0.26668 0.17384 0.0
H31 H 0.12568 0.28345 0.30588 0.0
H32 H 0.06304 0.18023 0.10188 0.0
H33 H 0.09741 0.33391 0.35849 0.0
Zn34 Zn 0.10588 0.77076 0.79679 0.0
C35 C 0.21752 0.78263 0.73976 0.0
N36 N 0.2125 0.73951 0.73048 0.0
C37 C 0.17717 0.72865 0.75079 0.0
N38 N 0.16149 0.76361 0.77169 0.0
N39 N 0.18741 0.79718 0.76468 0.0
C40 C 0.22955 0.91768 0.74037 0.0
O41 O 0.2002 0.90684 0.71439 0.0
O42 O 0.09924 0.75517 0.85693 0.0
Zn43 Zn 0.1866 0.85233 0.7925 0.0
N44 N 0.07006 0.73094 0.76758 0.0
C45 C 0.04958 0.69828 0.7058 0.0
C46 C 0.07505 0.72747 0.72725 0.0
C47 C 0.03963 0.70779 0.78725 0.0
N48 N 0.01825 0.6762 0.72518 0.0
C49 C 0.01186 0.68064 0.76539 0.0
O50 O 0.13172 0.88311 0.78624 0.0
C51 C 0.09283 0.87326 0.78487 0.0
O52 O 0.08007 0.83306 0.78825 0.0
H53 H 0.09895 0.74687 0.71199 0.0
H54 H 0.03653 0.71188 0.81929 0.0
C55 C 0.19441 0.87539 0.87243 0.0
C56 C 0.20356 0.87022 0.91314 0.0
C57 C 0.21721 0.79367 0.90224 0.0
C58 C 0.20794 0.79902 0.86162 0.0
N59 N 0.19684 0.83992 0.84772 0.0
N60 N 0.21508 0.82943 0.92709 0.0
H61 H 0.18636 0.90755 0.85996 0.0
C62 C 0.0935 0.78566 0.88301 0.0
O63 O 0.09895 0.82734 0.87224 0.0
O64 O 0.23044 0.89781 0.77408 0.0
H65 H 0.21019 0.77106 0.84138 0.0
H66 H 0.05367 0.69434 0.6738 0.0
H67 H 0.22635 0.76149 0.91386 0.0
Zn68 Zn 0.81846 0.86666 0.20464 0.0
C69 C 0.81147 0.73724 0.23133 0.0
N70 N 0.77083 0.74712 0.23887 0.0
C71 C 0.76999 0.79118 0.23262 0.0
N72 N 0.80769 0.80749 0.22211 0.0
N73 N 0.83453 0.77389 0.22152 0.0
C74 C 0.91625 0.75216 0.13507 0.0
O75 O 0.87739 0.73759 0.13131 0.0
O76 O 0.76969 0.90989 0.21155 0.0
Zn77 Zn 0.8961 0.78214 0.2214 0.0
N78 N 0.83045 0.86332 0.14888 0.0
C79 C 0.87575 0.8508 0.09335 0.0
C80 C 0.86929 0.85295 0.13467 0.0
C81 C 0.79797 0.87222 0.12391 0.0
N82 N 0.84361 0.86144 0.06826 0.0
C83 C 0.8048 0.8728 0.08249 0.0
O84 O 0.91651 0.84442 0.2403 0.0
C85 C 0.90254 0.88404 0.24421 0.0
O86 O 0.86594 0.89461 0.2326 0.0
H87 H 0.89484 0.84671 0.15525 0.0
H88 H 0.76751 0.88025 0.13653 0.0
C89 C 0.951 0.71861 0.2579 0.0
C90 C 0.96627 0.69324 0.29016 0.0
C91 C 0.90813 0.71659 0.32965 0.0
C92 C 0.89431 0.74331 0.2982 0.0
N93 N 0.91557 0.74309 0.26281 0.0
N94 N 0.94412 0.69283 0.32518 0.0
H95 H 0.96842 0.72157 0.23011 0.0
C96 C 0.75766 0.92626 0.24481 0.0
O97 O 0.77495 0.91219 0.27824 0.0
O98 O 0.92775 0.76936 0.16825 0.0
H99 H 0.86666 0.76393 0.30179 0.0
H100 H 0.90636 0.8423 0.0813 0.0
H101 H 0.8912 0.71585 0.35782 0.0
Zn102 Zn 0.88565 0.24 0.80213 0.0
C103 C 0.76374 0.23309 0.76842 0.0
N104 N 0.76711 0.27701 0.76218 0.0
C105 C 0.8064 0.2856 0.77554 0.0
N106 N 0.82585 0.24862 0.78977 0.0
N107 N 0.79837 0.2159 0.78499 0.0
C108 C 0.76424 0.08978 0.74923 0.0
O109 O 0.80089 0.09301 0.73103 0.0
O110 O 0.90682 0.25603 0.85874 0.0
Zn111 Zn 0.79965 0.15657 0.8046 0.0
N112 N 0.91525 0.27681 0.76403 0.0
C113 C 0.92093 0.30756 0.69855 0.0
C114 C 0.89971 0.28103 0.72629 0.0
C115 C 0.95171 0.29707 0.77496 0.0
N116 N 0.95808 0.3267 0.70904 0.0
C117 C 0.97469 0.32174 0.74642 0.0
O118 O 0.85505 0.12692 0.79763 0.0
C119 C 0.89377 0.13607 0.79259 0.0
O120 O 0.90725 0.17617 0.79286 0.0
H121 H 0.87094 0.26411 0.71788 0.0
H122 H 0.96273 0.29291 0.80534 0.0
C123 C 0.77309 0.1168 0.87408 0.0
C124 C 0.75513 0.11303 0.91222 0.0
C125 C 0.75738 0.19168 0.91869 0.0
C126 C 0.77536 0.19511 0.88057 0.0
N127 N 0.78295 0.15743 0.85933 0.0
N128 N 0.74759 0.15078 0.93364 0.0
H129 H 0.77807 0.08791 0.85534 0.0
C130 C 0.89044 0.26695 0.89222 0.0
O131 O 0.84941 0.27171 0.89495 0.0
O132 O 0.75641 0.11553 0.77853 0.0
H133 H 0.78184 0.22737 0.86754 0.0
H134 H 0.90865 0.31188 0.66857 0.0
H135 H 0.7508 0.22124 0.93607 0.0
Zn136 Zn 0.60823 0.73576 0.71308 0.0
C137 C 0.72278 0.72936 0.76464 0.0
N138 N 0.71785 0.77271 0.77288 0.0
C139 C 0.68158 0.78236 0.75371 0.0
N140 N 0.66511 0.74632 0.73481 0.0
N141 N 0.69189 0.7136 0.74138 0.0
C142 C 0.73517 0.59378 0.76563 0.0
O143 O 0.70444 0.60285 0.79077 0.0
O144 O 0.60009 0.74 0.6514 0.0
Zn145 Zn 0.69157 0.65818 0.7144 0.0
N146 N 0.57187 0.77763 0.74001 0.0
C147 C 0.55519 0.81991 0.79809 0.0
C148 C 0.58036 0.7888 0.77865 0.0
C149 C 0.53764 0.79419 0.72086 0.0
N150 N 0.52099 0.8365 0.77893 0.0
C151 C 0.51091 0.82411 0.74085 0.0
O152 O 0.63814 0.62591 0.72372 0.0
C153 C 0.59938 0.63382 0.7297 0.0
O154 O 0.58477 0.67341 0.72797 0.0
H155 H 0.60657 0.77381 0.79422 0.0
H156 H 0.53122 0.78322 0.69074 0.0
C157 C 0.70575 0.6326 0.63617 0.0
C158 C 0.71493 0.63689 0.59534 0.0
C159 C 0.7135 0.71544 0.60199 0.0
C160 C 0.70403 0.71089 0.64268 0.0
N161 N 0.70035 0.66943 0.65873 0.0
N162 N 0.71882 0.67837 0.57923 0.0
H163 H 0.70365 0.60029 0.65044 0.0
C164 C 0.59137 0.77428 0.63033 0.0
O165 O 0.59327 0.81379 0.64705 0.0
O166 O 0.7369 0.61464 0.73244 0.0
H167 H 0.70036 0.74007 0.66124 0.0
H168 H 0.56208 0.82993 0.82851 0.0
H169 H 0.71674 0.74811 0.58864 0.0
Zn170 Zn 0.59239 0.27738 0.27512 0.0
C171 C 0.71976 0.28882 0.26717 0.0
N172 N 0.71874 0.24469 0.26116 0.0
C173 C 0.67746 0.2353 0.26502 0.0
N174 N 0.65417 0.27205 0.27293 0.0
N175 N 0.68126 0.30568 0.27413 0.0
C176 C 0.73568 0.42332 0.24679 0.0
O177 O 0.72967 0.40127 0.21329 0.0
O178 O 0.5647 0.25695 0.32847 0.0
Zn179 Zn 0.66836 0.36642 0.28672 0.0
N180 N 0.57119 0.24089 0.23227 0.0
C181 C 0.57556 0.21831 0.16409 0.0
C182 C 0.59155 0.24227 0.19643 0.0
C183 C 0.5346 0.21793 0.23682 0.0
N184 N 0.53857 0.196 0.16832 0.0
C185 C 0.51732 0.19523 0.20383 0.0
O186 O 0.62019 0.39037 0.25635 0.0
C187 C 0.5819 0.37905 0.25244 0.0
O188 O 0.56905 0.33992 0.26142 0.0
H189 H 0.62001 0.26184 0.19309 0.0
H190 H 0.51798 0.22 0.26509 0.0
C191 C 0.68007 0.38982 0.36756 0.0
C192 C 0.6691 0.39406 0.40799 0.0
C193 C 0.60521 0.35547 0.39548 0.0
C194 C 0.61578 0.35252 0.35502 0.0
N195 N 0.65325 0.36909 0.3421 0.0
N196 N 0.63197 0.37633 0.42101 0.0
H197 H 0.7092 0.40374 0.35618 0.0
C198 C 0.5819 0.24812 0.36208 0.0
O199 O 0.62318 0.24949 0.36495 0.0
O200 O 0.71539 0.41204 0.27819 0.0
H201 H 0.59434 0.33741 0.33407 0.0
H202 H 0.5917 0.21859 0.1355 0.0
H203 H 0.57554 0.34236 0.40635 0.0
Zn204 Zn 0.32036 0.35761 0.69707 0.0
C205 C 0.30705 0.22783 0.72068 0.0
N206 N 0.26763 0.24024 0.73058 0.0
C207 C 0.26886 0.28431 0.72461 0.0
N208 N 0.30675 0.29833 0.71215 0.0
N209 N 0.33149 0.26303 0.70976 0.0
C210 C 0.39881 0.24495 0.61355 0.0
O211 O 0.35747 0.24554 0.61133 0.0
O212 O 0.27403 0.40311 0.70771 0.0
Zn213 Zn 0.39311 0.26661 0.70365 0.0
N214 N 0.33021 0.35772 0.64089 0.0
C215 C 0.37425 0.35046 0.58368 0.0
C216 C 0.36856 0.3481 0.62507 0.0
C217 C 0.29756 0.37039 0.61747 0.0
N218 N 0.34194 0.36453 0.56028 0.0
C219 C 0.3037 0.3752 0.5762 0.0
O220 O 0.41968 0.327 0.72148 0.0
C221 C 0.40855 0.36695 0.72952 0.0
O222 O 0.37122 0.38036 0.72361 0.0
H223 H 0.39438 0.33889 0.64439 0.0
H224 H 0.26774 0.37874 0.63129 0.0
C225 C 0.45187 0.202 0.72941 0.0
C226 C 0.46998 0.17059 0.75559 0.0
C227 C 0.41285 0.18183 0.80077 0.0
C228 C 0.39653 0.21447 0.7756 0.0
N229 N 0.4157 0.22289 0.73995 0.0
N230 N 0.44927 0.16118 0.79046 0.0
H231 H 0.46674 0.21195 0.70174 0.0
C232 C 0.26382 0.41925 0.74162 0.0
O233 O 0.28186 0.40383 0.7742 0.0
O234 O 0.41658 0.25216 0.64719 0.0
H235 H 0.36854 0.23261 0.78415 0.0
H236 H 0.40449 0.34275 0.5704 0.0
H237 H 0.39742 0.17388 0.82884 0.0
Zn238 Zn 0.38941 0.74777 0.29227 0.0
C239 C 0.26399 0.7429 0.26968 0.0
N240 N 0.26761 0.78628 0.26086 0.0
C241 C 0.30858 0.79435 0.26866 0.0
N242 N 0.32908 0.75747 0.28177 0.0
N243 N 0.30052 0.72534 0.28201 0.0
C244 C 0.25786 0.60337 0.2503 0.0
O245 O 0.28517 0.61352 0.22205 0.0
O246 O 0.40899 0.7564 0.35135 0.0
Zn247 Zn 0.307 0.66599 0.30121 0.0
N248 N 0.41852 0.78944 0.25837 0.0
C249 C 0.42802 0.82115 0.1937 0.0
C250 C 0.40623 0.79281 0.21952 0.0
C251 C 0.45231 0.81231 0.27234 0.0
N252 N 0.46305 0.84236 0.20712 0.0
C253 C 0.47658 0.83816 0.2457 0.0
O254 O 0.35893 0.63726 0.28198 0.0
C255 C 0.39638 0.64652 0.27169 0.0
O256 O 0.4107 0.68617 0.27374 0.0
H257 H 0.37957 0.77373 0.20883 0.0
H258 H 0.46076 0.80873 0.30348 0.0
C259 C 0.29195 0.62897 0.37495 0.0
C260 C 0.28282 0.62741 0.41585 0.0
C261 C 0.30199 0.70348 0.42153 0.0
C262 C 0.31083 0.70487 0.38049 0.0
N263 N 0.30535 0.66745 0.35823 0.0
N264 N 0.28791 0.66488 0.43828 0.0
H265 H 0.28695 0.60025 0.35599 0.0
C266 C 0.44449 0.73894 0.3604 0.0
O267 O 0.46499 0.71722 0.33236 0.0
O268 O 0.26036 0.62299 0.28397 0.0
H269 H 0.32054 0.73565 0.36635 0.0
H270 H 0.41822 0.8249 0.16285 0.0
H271 H 0.30571 0.73295 0.43979 0.0
H272 H 0.28941 0.07721 0.30911 0.0
H273 H 0.23799 0.04161 0.19379 0.0
H274 H 0.32541 1.00552 0.3125 0.0
H275 H 0.27134 0.96967 0.19794 0.0
H276 H 0.32912 0.84163 0.20248 0.0
H277 H 0.32671 0.9222 0.19677 0.0
H278 H 0.31066 0.93168 0.32532 0.0
H279 H 0.31761 0.85126 0.33072 0.0
C280 C 0.286 0.05418 0.28436 0.0
C281 C 0.26043 0.06502 0.25139 0.0
C282 C 0.30645 0.01283 0.28638 0.0
C283 C 0.30131 0.98096 0.25574 0.0
C284 C 0.27716 0.99303 0.22196 0.0
C285 C 0.25744 0.0345 0.21967 0.0
C286 C 0.32803 0.86127 0.22967 0.0
C287 C 0.32482 0.84029 0.26713 0.0
C288 C 0.32529 0.90759 0.22641 0.0
C289 C 0.31679 0.93399 0.26038 0.0
C290 C 0.31733 0.91308 0.29831 0.0
C291 C 0.3216 0.86674 0.30159 0.0
H292 H 0.96744 0.71328 0.83028 0.0
H293 H 0.96445 0.61058 0.73938 0.0
H294 H 0.89282 0.70556 0.83977 0.0
H295 H 0.88865 0.60292 0.74936 0.0
H296 H 0.77793 0.69927 0.7101 0.0
H297 H 0.84595 0.66482 0.72256 0.0
H298 H 0.82324 0.67177 0.85032 0.0
H299 H 0.75469 0.70681 0.83728 0.0
C300 C 0.95158 0.68731 0.81368 0.0
C301 C 0.97196 0.66364 0.78286 0.0
C302 C 0.90829 0.68283 0.81933 0.0
C303 C 0.88473 0.65482 0.79422 0.0
C304 C 0.90607 0.62572 0.76831 0.0
C305 C 0.94945 0.63019 0.76258 0.0
C306 C 0.7873 0.69253 0.74075 0.0
C307 C 0.76164 0.70527 0.7728 0.0
C308 C 0.82587 0.67219 0.74798 0.0
C309 C 0.83976 0.66507 0.78751 0.0
C310 C 0.81317 0.67661 0.81962 0.0
C311 C 0.77435 0.69689 0.81227 0.0
H312 H 0.66972 0.17722 0.32625 0.0
H313 H 0.65982 0.1882 0.19805 0.0
H314 H 0.67745 0.0972 0.32034 0.0
H315 H 0.66106 0.108 0.19183 0.0
H316 H 0.74759 0.98771 0.18593 0.0
H317 H 0.71304 0.05884 0.19053 0.0
H318 H 0.66662 0.02414 0.3088 0.0
H319 H 0.70486 0.95388 0.30492 0.0
C320 C 0.66601 0.16208 0.297 0.0
C321 C 0.66258 0.18893 0.26277 0.0
C322 C 0.67062 0.11586 0.29339 0.0
C323 C 0.67116 0.0953 0.25534 0.0
C324 C 0.6626 0.12212 0.2216 0.0
C325 C 0.66001 0.16839 0.22516 0.0
C326 C 0.72948 0.99501 0.21269 0.0
C327 C 0.72954 0.96554 0.24531 0.0
C328 C 0.70903 0.03603 0.21534 0.0
C329 C 0.68685 0.04838 0.25034 0.0
C330 C 0.68425 0.01699 0.28179 0.0
C331 C 0.70588 0.97637 0.27953 0.0
H332 H 0.01776 0.38771 0.70725 0.0
H333 H 0.03192 0.2898 0.80159 0.0
H334 H 0.09386 0.39989 0.70755 0.0
H335 H 0.10641 0.30192 0.80174 0.0
H336 H 0.23902 0.31066 0.7963 0.0
H337 H 0.16974 0.34294 0.80952 0.0
H338 H 0.14685 0.35003 0.68183 0.0
H339 H 0.21703 0.32008 0.66916 0.0
C340 C 0.03673 0.36973 0.72881 0.0
C341 C 0.01838 0.33739 0.754 0.0
C342 C 0.08032 0.37676 0.72895 0.0
C343 C 0.10635 0.35149 0.75424 0.0
C344 C 0.08748 0.32252 0.78215 0.0
C345 C 0.04414 0.31546 0.782 0.0
C346 C 0.21953 0.3208 0.77127 0.0
C347 C 0.23261 0.31292 0.73184 0.0
C348 C 0.17997 0.33913 0.77872 0.0
C349 C 0.15234 0.34806 0.74679 0.0
C350 C 0.1673 0.34385 0.70718 0.0
C351 C 0.20726 0.32631 0.69979 0.0
H352 H 0.29215 0.95067 0.78859 0.0
H353 H 0.23043 0.97304 0.67504 0.0
H354 H 0.32867 0.02193 0.78184 0.0
H355 H 0.26654 0.04436 0.66858 0.0
H356 H 0.30114 0.17663 0.78622 0.0
H357 H 0.29708 0.09601 0.78806 0.0
H358 H 0.33174 0.09086 0.66284 0.0
H359 H 0.33643 0.1726 0.66151 0.0
C360 C 0.2869 0.97037 0.76185 0.0
C361 C 0.25756 0.95657 0.73281 0.0
C362 C 0.30789 0.01123 0.75797 0.0
C363 C 0.30017 0.0392 0.72491 0.0
C364 C 0.27352 0.02363 0.69429 0.0
C365 C 0.25247 0.9828 0.6982 0.0
C366 C 0.30985 0.15816 0.75958 0.0
C367 C 0.31961 0.18073 0.72388 0.0
C368 C 0.3075 0.11183 0.76057 0.0
C369 C 0.3137 0.08681 0.7255 0.0
C370 C 0.32654 0.10922 0.69032 0.0
C371 C 0.32977 0.15591 0.68961 0.0
H372 H 0.20415 0.74133 0.21213 0.0
H373 H 0.23209 0.69487 0.33135 0.0
H374 H 0.13364 0.70952 0.21719 0.0
H375 H 0.16333 0.65918 0.33549 0.0
H376 H 0.02147 0.69215 0.35156 0.0
H377 H 0.09706 0.68841 0.34596 0.0
H378 H 0.08569 0.64948 0.22158 0.0
H379 H 0.00916 0.65495 0.22706 0.0
C380 C 0.19545 0.72303 0.23893 0.0
C381 C 0.22347 0.71966 0.27108 0.0
C382 C 0.15537 0.70408 0.24168 0.0
C383 C 0.14271 0.68145 0.27674 0.0
C384 C 0.17175 0.6767 0.30822 0.0
C385 C 0.21133 0.69666 0.30577 0.0
C386 C 0.03492 0.68126 0.32336 0.0
C387 C 0.00959 0.67561 0.28934 0.0
C388 C 0.07856 0.67892 0.32011 0.0
C389 C 0.09764 0.6701 0.28287 0.0
C390 C 0.07196 0.65805 0.25029 0.0
C391 C 0.02817 0.66104 0.25343 0.0
H392 H 0.69034 0.0672 0.78728 0.0
H393 H 0.77444 0.02457 0.69291 0.0
H394 H 0.6527 0.99634 0.78301 0.0
H395 H 0.73725 0.95386 0.68899 0.0
H396 H 0.67007 0.84272 0.81231 0.0
H397 H 0.67614 0.92301 0.80488 0.0
H398 H 0.67443 0.90848 0.67604 0.0
H399 H 0.66869 0.82751 0.68397 0.0
C400 C 0.7003 0.04315 0.76504 0.0
C401 C 0.73601 0.05128 0.74097 0.0
C402 C 0.67873 1.00245 0.76266 0.0
C403 C 0.6922 0.96905 0.73601 0.0
C404 C 0.72568 0.97879 0.70966 0.0
C405 C 0.74731 0.01937 0.71212 0.0
C406 C 0.66892 0.85693 0.78245 0.0
C407 C 0.66842 0.82909 0.74872 0.0
C408 C 0.67247 0.90305 0.77809 0.0
C409 C 0.6764 0.92233 0.73981 0.0
C410 C 0.67192 0.89467 0.70596 0.0
C411 C 0.66785 0.84838 0.71041 0.0
H412 H 0.78058 0.28916 0.21099 0.0
H413 H 0.74857 0.34186 0.32708 0.0
H414 H 0.85131 0.31959 0.21688 0.0
H415 H 0.81897 0.37493 0.33263 0.0
H416 H 0.96148 0.33913 0.35196 0.0
H417 H 0.88546 0.34245 0.34511 0.0
H418 H 0.8996 0.37959 0.22048 0.0
H419 H 0.97603 0.37442 0.2272 0.0
C420 C 0.78851 0.30867 0.23723 0.0
C421 C 0.75932 0.31396 0.26833 0.0
C422 C 0.82887 0.32663 0.24051 0.0
C423 C 0.84098 0.34994 0.27524 0.0
C424 C 0.81083 0.35694 0.30561 0.0
C425 C 0.77045 0.33855 0.30236 0.0
C426 C 0.94838 0.34931 0.32342 0.0
C427 C 0.97448 0.3552 0.28983 0.0
C428 C 0.90465 0.35145 0.31947 0.0
C429 C 0.88628 0.36018 0.28192 0.0
C430 C 0.91272 0.37138 0.2495 0.0
C431 C 0.95646 0.36855 0.25333 0.0
H432 H 0.80157 0.56496 0.71969 0.0
H433 H 0.7327 0.53505 0.82829 0.0
H434 H 0.83851 0.49399 0.72523 0.0
H435 H 0.76884 0.46405 0.83339 0.0
H436 H 0.83233 0.33565 0.83925 0.0
H437 H 0.83083 0.41724 0.8413 0.0
H438 H 0.81133 0.42017 0.71314 0.0
H439 H 0.81306 0.33944 0.71155 0.0
C440 C 0.7948 0.54362 0.74512 0.0
C441 C 0.76342 0.55525 0.77303 0.0
C442 C 0.81598 0.5029 0.74829 0.0
C443 C 0.80628 0.47285 0.77943 0.0
C444 C 0.77748 0.48631 0.80915 0.0
C445 C 0.75637 0.52702 0.80602 0.0
C446 C 0.83003 0.354 0.8114 0.0
C447 C 0.82301 0.33145 0.77524 0.0
C448 C 0.82848 0.4007 0.81257 0.0
C449 C 0.82016 0.42541 0.77748 0.0
C450 C 0.81803 0.40259 0.74075 0.0
C451 C 0.81909 0.35617 0.73974 0.0
H452 H 0.28072 0.23631 0.28527 0.0
H453 H 0.24822 0.18573 0.16849 0.0
H454 H 0.35093 0.20507 0.27901 0.0
H455 H 0.31845 0.15249 0.16234 0.0
H456 H 0.47593 0.15441 0.26676 0.0
H457 H 0.39978 0.14515 0.27322 0.0
H458 H 0.38436 0.18838 0.15045 0.0
H459 H 0.45996 0.19643 0.14382 0.0
C460 C 0.28844 0.21714 0.25876 0.0
C461 C 0.25944 0.21303 0.22745 0.0
C462 C 0.32848 0.19869 0.25528 0.0
C463 C 0.34048 0.17623 0.22009 0.0
C464 C 0.31033 0.1699 0.18967 0.0
C465 C 0.27017 0.18862 0.19318 0.0
C466 C 0.45624 0.16095 0.24094 0.0
C467 C 0.47371 0.17776 0.20523 0.0
C468 C 0.41266 0.15554 0.24459 0.0
C469 C 0.38586 0.16731 0.21276 0.0
C470 C 0.40388 0.17895 0.17564 0.0
C471 C 0.44741 0.18387 0.17188 0.0
H472 H 0.18464 0.67707 0.81685 0.0
H473 H 0.14731 0.67409 0.69291 0.0
H474 H 0.19497 0.59688 0.81585 0.0
H475 H 0.15323 0.59341 0.69241 0.0
H476 H 0.24453 0.47681 0.6813 0.0
H477 H 0.20925 0.5477 0.68635 0.0
H478 H 0.18251 0.52196 0.81159 0.0
H479 H 0.22074 0.45173 0.80671 0.0
C480 C 0.17603 0.65873 0.79011 0.0
C481 C 0.16477 0.68161 0.7551 0.0
C482 C 0.18215 0.61251 0.78932 0.0
C483 C 0.17632 0.58812 0.75358 0.0
C484 C 0.15987 0.61082 0.72007 0.0
C485 C 0.1553 0.6571 0.72054 0.0
C486 C 0.23063 0.48596 0.70981 0.0
C487 C 0.23605 0.4589 0.74374 0.0
C488 C 0.20982 0.52678 0.71275 0.0
C489 C 0.19283 0.54146 0.74956 0.0
C490 C 0.19591 0.51275 0.78293 0.0
C491 C 0.21762 0.47221 0.78013 0.0
H492 H 0.5293 0.80833 0.30603 0.0
H493 H 0.52272 0.90298 0.20815 0.0
H494 H 0.60396 0.81699 0.30836 0.0
H495 H 0.59912 0.91171 0.21087 0.0
H496 H 0.71773 0.82385 0.17593 0.0
H497 H 0.6485 0.85682 0.1872 0.0
H498 H 0.66987 0.85268 0.31526 0.0
H499 H 0.73821 0.81751 0.30347 0.0
C500 C 0.54315 0.83269 0.28608 0.0
C501 C 0.5195 0.8542 0.25613 0.0
C502 C 0.58669 0.83773 0.28754 0.0
C503 C 0.60776 0.86422 0.2591 0.0
C504 C 0.5838 0.89014 0.23253 0.0
C505 C 0.54002 0.88514 0.23104 0.0
C506 C 0.70768 0.83097 0.20631 0.0
C507 C 0.73242 0.81803 0.23892 0.0
C508 C 0.66838 0.85039 0.2129 0.0
C509 C 0.6534 0.85696 0.25225 0.0
C510 C 0.68015 0.8473 0.28467 0.0
C511 C 0.71908 0.82719 0.27804 0.0
H512 H 0.79303 0.45299 0.19062 0.0
H513 H 0.73556 0.48827 0.30353 0.0
H514 H 0.82824 0.52543 0.18832 0.0
H515 H 0.76784 0.5608 0.30028 0.0
H516 H 0.82315 0.67968 0.16999 0.0
H517 H 0.81524 0.59928 0.17494 0.0
H518 H 0.82187 0.60893 0.3042 0.0
H519 H 0.82417 0.68923 0.29863 0.0
C520 C 0.78808 0.47613 0.21504 0.0
C521 C 0.76119 0.4649 0.24708 0.0
C522 C 0.80805 0.51792 0.21364 0.0
C523 C 0.80106 0.54983 0.24393 0.0
C524 C 0.77528 0.53748 0.27665 0.0
C525 C 0.75614 0.49562 0.2784 0.0
C526 C 0.82491 0.66425 0.1993 0.0
C527 C 0.82601 0.69075 0.23387 0.0
C528 C 0.82003 0.61789 0.20231 0.0
C529 C 0.8167 0.59696 0.24012 0.0
C530 C 0.82268 0.62343 0.2745 0.0
C531 C 0.82572 0.66972 0.27142 0.0
H532 H 0.52207 0.17448 0.68756 0.0
H533 H 0.51848 0.12515 0.8096 0.0
H534 H 0.59766 0.17432 0.68929 0.0
H535 H 0.59469 0.1208 0.80958 0.0
H536 H 0.70552 0.21995 0.8255 0.0
H537 H 0.63771 0.18324 0.81867 0.0
H538 H 0.66738 0.1514 0.69518 0.0
H539 H 0.73488 0.19057 0.70222 0.0
C540 C 0.53699 0.163 0.71473 0.0
C541 C 0.51377 0.15381 0.74984 0.0
C542 C 0.58091 0.16178 0.71527 0.0
C543 C 0.60241 0.14989 0.75047 0.0
C544 C 0.57905 0.13247 0.78272 0.0
C545 C 0.53514 0.13473 0.78256 0.0
C546 C 0.69743 0.20472 0.79711 0.0
C547 C 0.72444 0.20843 0.76419 0.0
C548 C 0.65891 0.18295 0.79321 0.0
C549 C 0.64682 0.16421 0.75625 0.0
C550 C 0.67529 0.16606 0.72383 0.0
C551 C 0.71372 0.18849 0.72769 0.0
H552 H 0.20199 0.56893 0.30513 0.0
H553 H 0.24924 0.54896 0.18496 0.0
H554 H 0.16525 0.49753 0.30181 0.0
H555 H 0.21298 0.47753 0.18187 0.0
H556 H 0.14375 0.3503 0.17931 0.0
H557 H 0.14836 0.43173 0.18217 0.0
H558 H 0.1949 0.42276 0.30352 0.0
H559 H 0.19038 0.34213 0.30023 0.0
C560 C 0.20394 0.54976 0.2777 0.0
C561 C 0.22927 0.56438 0.24556 0.0
C562 C 0.18288 0.50875 0.27584 0.0
C563 C 0.18646 0.48144 0.24175 0.0
C564 C 0.20914 0.49773 0.20849 0.0
C565 C 0.23029 0.53866 0.21039 0.0
C566 C 0.15278 0.36597 0.20718 0.0
C567 C 0.16607 0.34001 0.23976 0.0
C568 C 0.15611 0.41259 0.20867 0.0
C569 C 0.17252 0.4339 0.24292 0.0
C570 C 0.18177 0.4078 0.27678 0.0
C571 C 0.17903 0.36145 0.27501 0.0
H572 H 0.27074 0.81703 0.79406 0.0
H573 H 0.25227 0.79994 0.667 0.0
H574 H 0.34048 0.84783 0.78181 0.0
H575 H 0.3228 0.83081 0.65423 0.0
H576 H 0.46325 0.78281 0.68196 0.0
H577 H 0.38917 0.79221 0.67124 0.0
H578 H 0.38815 0.90478 0.75155 0.0
H579 H 0.46365 0.89597 0.76237 0.0
C580 C 0.28134 0.82129 0.7634 0.0
C581 C 0.25646 0.80685 0.73139 0.0
C582 C 0.32104 0.83935 0.75626 0.0
C583 C 0.33696 0.84209 0.71697 0.0
C584 C 0.31114 0.82931 0.68475 0.0
C585 C 0.27113 0.81148 0.69198 0.0
C586 C 0.44835 0.81104 0.69608 0.0
C587 C 0.46965 0.8379 0.7241 0.0
C588 C 0.40535 0.81649 0.68966 0.0
C589 C 0.38274 0.84853 0.71134 0.0
C590 C 0.40486 0.87923 0.73507 0.0
C591 C 0.44803 0.87395 0.74139 0.0
H592 H -0.0012 0.14796 0.24531 0.0
H593 H 0.10376 0.07546 0.29516 0.0
H594 H 0.95476 0.08168 0.25141 0.0
H595 H 0.05958 0.00952 0.30222 0.0
H596 H 0.98906 0.8897 0.24344 0.0
H597 H 0.03157 0.95613 0.25608 0.0
H598 H 0.91954 0.02756 0.29176 0.0
H599 H 0.8772 0.96176 0.27808 0.0
C600 C 0.01206 0.11838 0.2589 0.0
C601 C 0.05486 0.11694 0.26941 0.0
C602 C 0.98683 0.08018 0.26235 0.0
C603 C 0.00379 0.03982 0.2767 0.0
C604 C 0.04573 0.03957 0.29013 0.0
C605 C 0.07094 0.07759 0.28646 0.0
C606 C 0.97373 0.91928 0.25484 0.0
C607 C 0.92975 0.92056 0.2593 0.0
C608 C -0.00194 0.95748 0.26216 0.0
C609 C 0.97893 0.9976 0.27445 0.0
C610 C 0.93526 0.99773 0.28144 0.0
C611 C 0.91102 0.95981 0.27385 0.0
H612 H 0.87458 0.05058 0.77199 0.0
H613 H 0.97994 0.13568 0.80156 0.0
H614 H 0.92163 0.98726 0.76662 0.0
H615 H 0.02708 0.07173 0.79783 0.0
H616 H 0.10786 0.957 0.75673 0.0
H617 H 0.06012 0.02009 0.75535 0.0
H618 H 0.96136 0.93767 0.80569 0.0
H619 H 0.00894 0.87395 0.80549 0.0
C620 C 0.90788 0.05579 0.77747 0.0
C621 C 0.92346 0.09832 0.7873 0.0
C622 C 0.93489 0.01925 0.7747 0.0
C623 C 0.97828 0.02397 0.78209 0.0
C624 C -0.00601 0.06673 0.79135 0.0
C625 C 0.96694 0.10349 0.79367 0.0
C626 C 0.07581 0.9522 0.76721 0.0
C627 C 0.06222 0.91036 0.78127 0.0
C628 C 0.04847 0.9886 0.76674 0.0
C629 C 0.00682 0.98441 0.78077 0.0
C630 C 0.99298 0.94223 0.79412 0.0
C631 C 0.02028 0.90559 0.79413 0.0
H632 H 0.51268 0.62927 0.72585 0.0
H633 H 0.62291 0.54993 0.75118 0.0
H634 H 0.46858 0.56279 0.73221 0.0
H635 H 0.579 0.48411 0.75849 0.0
H636 H 0.4932 0.36949 0.71217 0.0
H637 H 0.5397 0.4342 0.71723 0.0
H638 H 0.44074 0.50755 0.77674 0.0
H639 H 0.3942 0.44343 0.77073 0.0
C640 C 0.52742 0.59788 0.73341 0.0
C641 C 0.57136 0.59501 0.73761 0.0
C642 C 0.50215 0.55968 0.73722 0.0
C643 C 0.52022 0.5178 0.74561 0.0
C644 C 0.56401 0.51544 0.75123 0.0
C645 C 0.58918 0.55342 0.74722 0.0
C646 C 0.48182 0.39903 0.72726 0.0
C647 C 0.43996 0.40137 0.7408 0.0
C648 C 0.50841 0.4363 0.73008 0.0
C649 C 0.49377 0.47657 0.74678 0.0
C650 C 0.45278 0.47766 0.76274 0.0
C651 C 0.42623 0.44064 0.75968 0.0
H652 H 0.49758 0.38235 0.27033 0.0
H653 H 0.59799 0.458 0.21497 0.0
H654 H 0.45248 0.44789 0.26849 0.0
H655 H 0.55265 0.52315 0.21208 0.0
H656 H 0.37106 0.56588 0.24352 0.0
H657 H 0.41392 0.50064 0.23022 0.0
H658 H 0.52605 0.57588 0.25929 0.0
H659 H 0.48297 0.64183 0.27146 0.0
C660 C 0.50959 0.41254 0.25663 0.0
C661 C 0.55146 0.41498 0.2431 0.0
C662 C 0.48375 0.45028 0.25559 0.0
C663 C 0.4991 0.49119 0.24066 0.0
C664 C 0.54008 0.49263 0.22468 0.0
C665 C 0.56595 0.45508 0.22598 0.0
C666 C 0.40495 0.56872 0.24663 0.0
C667 C 0.4236 0.60904 0.2589 0.0
C668 C 0.42952 0.53113 0.23921 0.0
C669 C 0.47345 0.53262 0.24415 0.0
C670 C 0.49234 0.57351 0.25477 0.0
C671 C 0.46768 0.61138 0.26188 0.0
H672 H 0.15726 0.13007 0.01263 0.0
H673 H 0.19677 0.04973 0.11335 0.0
H674 H 0.1772 0.07019 0.96709 0.0
H675 H 0.21562 0.98988 0.06819 0.0
H676 H 0.14331 0.9341 0.91512 0.0
H677 H 0.14149 1.00012 0.95682 0.0
H678 H 0.25763 0.95973 0.01381 0.0
H679 H 0.25895 0.89267 0.97204 0.0
C680 C 0.17103 0.10004 0.0249 0.0
C681 C 0.17532 0.09456 0.06643 0.0
C682 C 0.18221 0.06572 0.99896 0.0
C683 C 0.19716 0.02507 0.01421 0.0
C684 C 0.20448 0.0209 0.05551 0.0
C685 C 0.1937 0.05537 0.08143 0.0
C686 C 0.16866 0.93953 0.9363 0.0
C687 C 0.20155 0.90873 0.94017 0.0
C688 C 0.16783 0.97752 0.95996 0.0
C689 C 0.19993 0.9856 0.98797 0.0
C690 C 0.23254 0.95436 0.99237 0.0
C691 C 0.23322 0.91602 0.96871 0.0
H692 H 0.08821 0.84054 0.94804 0.0
H693 H 0.05332 0.70897 0.90796 0.0
H694 H 0.04791 0.82939 0.00947 0.0
H695 H 0.01327 0.69747 0.96997 0.0
H696 H 0.90209 0.71964 0.05924 0.0
H697 H 0.94823 0.72418 1.00069 0.0
H698 H 0.04315 0.78962 0.07223 0.0
H699 H -0.00316 0.78559 0.13061 0.0
C700 C 0.07249 0.80887 0.95261 0.0
C701 C 0.07409 0.77569 0.92288 0.0
C702 C 0.04941 0.80238 0.98806 0.0
C703 C 0.02694 0.76258 0.99487 0.0
C704 C 0.02964 0.72879 0.96566 0.0
C705 C 0.05305 0.73518 0.93023 0.0
C706 C 0.93293 0.73469 0.06263 0.0
C707 C 0.94554 0.75229 0.09984 0.0
C708 C 0.95958 0.73709 0.02899 0.0
C709 C -0.0004 0.75735 0.03145 0.0
C710 C 0.01245 0.77426 0.06888 0.0
C711 C 0.98589 0.7717 0.10254 0.0
H712 H 0.68991 0.08983 0.96168 0.0
H713 H 0.79994 0.03658 0.90227 0.0
H714 H 0.67973 0.01862 0.99611 0.0
H715 H 0.79057 0.96698 0.93652 0.0
H716 H 0.74998 0.94073 0.09836 0.0
H717 H 0.71887 0.98917 0.04963 0.0
H718 H 0.75715 0.89999 0.9547 0.0
H719 H 0.79031 0.85158 0.0042 0.0
C720 C 0.71146 0.06275 0.95554 0.0
C721 C 0.74579 0.06887 0.92951 0.0
C722 C 0.70553 0.02195 0.975 0.0
C723 C 0.73438 0.98697 0.9693 0.0
C724 C 0.76703 0.9925 0.94117 0.0
C725 C 0.7727 0.03289 0.92161 0.0
C726 C 0.75029 0.93005 0.06739 0.0
C727 C 0.77369 0.89278 0.05501 0.0
C728 C 0.73208 0.95809 0.03915 0.0
C729 C 0.73686 0.94937 0.99804 0.0
C730 C 0.75431 0.9084 0.98616 0.0
C731 C 0.77323 0.88063 0.01443 0.0
H732 H 0.09848 0.30208 0.06272 0.0
H733 H -0.00641 0.25787 0.13528 0.0
H734 H 0.05328 0.3027 0.00376 0.0
H735 H 0.94865 0.25696 0.07613 0.0
H736 H 0.86777 0.29348 0.96818 0.0
H737 H 0.91232 0.29931 0.02753 0.0
H738 H 0.01939 0.25521 0.958 0.0
H739 H 0.97523 0.25094 0.89861 0.0
C740 C 0.06574 0.29249 0.06616 0.0
C741 C 0.04981 0.27999 0.10393 0.0
C742 C 0.03976 0.29247 0.03215 0.0
C743 C -0.00294 0.27962 0.03474 0.0
C744 C 0.98105 0.26769 0.07273 0.0
C745 C 0.00699 0.268 0.1068 0.0
C746 C 0.90088 0.28529 0.9655 0.0
C747 C 0.91775 0.27177 0.92843 0.0
C748 C 0.92649 0.28831 0.99972 0.0
C749 C 0.96974 0.27769 0.99797 0.0
C750 C 0.98655 0.26445 0.96071 0.0
C751 C 0.96103 0.26169 0.92651 0.0
H752 H 0.7072 0.47325 0.39092 0.0
H753 H 0.68558 0.37879 0.48661 0.0
H754 H 0.73133 0.52783 0.43902 0.0
H755 H 0.71163 0.43308 0.53504 0.0
H756 H 0.77018 0.62371 0.53373 0.0
H757 H 0.77529 0.55806 0.4905 0.0
H758 H 0.67306 0.49647 0.55648 0.0
H759 H 0.66864 0.56083 0.59939 0.0
C760 C 0.70942 0.46345 0.42211 0.0
C761 C 0.69397 0.42205 0.43527 0.0
C762 C 0.72344 0.4948 0.44976 0.0
C763 C 0.7225 0.48511 0.49095 0.0
C764 C 0.71159 0.44186 0.50353 0.0
C765 C 0.69684 0.41077 0.47593 0.0
C766 C 0.74925 0.59576 0.53903 0.0
C767 C 0.71931 0.59711 0.57001 0.0
C768 C 0.75226 0.55822 0.51451 0.0
C769 C 0.72496 0.5218 0.52036 0.0
C770 C 0.69555 0.52318 0.55187 0.0
C771 C 0.69278 0.56034 0.57637 0.0
H772 H 0.37489 0.25871 0.53559 0.0
H773 H 0.48204 0.22153 0.60748 0.0
H774 H 0.41865 0.2576 0.47571 0.0
H775 H 0.52547 0.21718 0.54742 0.0
H776 H 0.6056 0.25808 0.4404 0.0
H777 H 0.56164 0.25569 0.49997 0.0
H778 H 0.45412 0.22034 0.4269 0.0
H779 H 0.49797 0.22594 0.36706 0.0
C780 C 0.40771 0.24941 0.53851 0.0
C781 C 0.42491 0.24047 0.57648 0.0
C782 C 0.43301 0.24845 0.50392 0.0
C783 C 0.47619 0.2374 0.506 0.0
C784 C 0.49289 0.22703 0.5441 0.0
C785 C 0.46779 0.22906 0.57878 0.0
C786 C 0.57261 0.24951 0.43707 0.0
C787 C 0.55541 0.24232 0.3988 0.0
C788 C 0.54716 0.24784 0.4715 0.0
C789 C 0.50375 0.23782 0.46899 0.0
C790 C 0.48695 0.22926 0.43057 0.0
C791 C 0.51226 0.23197 0.39603 0.0
H792 H 0.28239 0.36032 0.49825 0.0
H793 H 0.25805 0.44773 0.59834 0.0
H794 H 0.25427 0.41637 0.45267 0.0
H795 H 0.23297 0.50416 0.5534 0.0
H796 H 0.31406 0.54516 0.40191 0.0
H797 H 0.29597 0.4767 0.4352 0.0
H798 H 0.20011 0.54535 0.50387 0.0
H799 H 0.2201 0.61521 0.47096 0.0
C800 C 0.26973 0.39086 0.51057 0.0
C801 C 0.27341 0.40014 0.55155 0.0
C802 C 0.2539 0.42311 0.48455 0.0
C803 C 0.24346 0.46569 0.49911 0.0
C804 C 0.24107 0.47212 0.54078 0.0
C805 C 0.25574 0.43949 0.56682 0.0
C806 C 0.28852 0.54552 0.42353 0.0
C807 C 0.26876 0.58544 0.43428 0.0
C808 C 0.27759 0.50594 0.44238 0.0
C809 C 0.24639 0.50515 0.47241 0.0
C810 C 0.2247 0.54481 0.48133 0.0
C811 C 0.23622 0.5848 0.46276 0.0
H812 H 0.55614 0.83902 0.583 0.0
H813 H 0.58142 0.69789 0.58578 0.0
H814 H 0.5194 0.83024 0.51929 0.0
H815 H 0.54422 0.68904 0.52224 0.0
H816 H 0.51512 0.69762 0.38787 0.0
H817 H 0.55048 0.70627 0.45183 0.0
H818 H 0.45487 0.79927 0.48971 0.0
H819 H 0.41932 0.79089 0.42481 0.0
C820 C 0.55417 0.8061 0.56995 0.0
C821 C 0.57207 0.7692 0.58967 0.0
C822 C 0.53258 0.801 0.53351 0.0
C823 C 0.52845 0.7589 0.51546 0.0
C824 C 0.54696 0.72209 0.5349 0.0
C825 C 0.56834 0.72714 0.57148 0.0
C826 C 0.50133 0.7199 0.40974 0.0
C827 C 0.46421 0.74362 0.4009 0.0
C828 C 0.52165 0.72464 0.44673 0.0
C829 C 0.50573 0.75345 0.47624 0.0
C830 C 0.46839 0.7771 0.46762 0.0
C831 C 0.44778 0.7721 0.43048 0.0
loop_
_geom_bond_atom_site_label_1
_geom_bond_atom_site_label_2
_geom_bond_distance
_geom_bond_site_symmetry_2
_ccdc_geom_bond_type
Zn0 N4 2.020 . S
Zn0 O8 2.019 . S
Zn0 N10 2.119 . S
Zn0 O18 1.975 . S
C1 N2 1.334 . S
C1 N5 1.336 . S
N2 C1 1.334 . S
N2 C3 1.334 . S
C3 N2 1.334 . S
C3 N4 1.336 . S
N4 Zn0 2.020 . S
N4 C3 1.336 . S
N4 N5 1.354 . S
N5 C1 1.336 . S
N5 N4 1.354 . S
N5 Zn9 2.020 . S
C6 O7 1.244 . S
C6 O30 1.257 . S
O7 C6 1.244 . S
O8 Zn0 2.019 . S
O8 C28 1.257 . S
Zn9 N5 2.020 . S
Zn9 O16 1.975 . S
Zn9 N25 2.119 . S
Zn9 O30 2.019 . S
N10 Zn0 2.119 . S
N10 C12 1.334 . S
N10 C13 1.328 . S
C11 C12 1.391 . S
C11 N14 1.329 . S
C11 H32 0.930 . S
C12 N10 1.334 . S
C12 C11 1.391 . S
C12 H19 0.930 . S
C13 N10 1.328 . S
C13 C15 1.392 . S
C13 H20 0.930 . S
N14 C11 1.329 . S
N14 C15 1.331 . S
C15 C13 1.392 . S
C15 N14 1.331 . S
O16 Zn9 1.975 . S
O16 C17 1.252 . S
C17 O16 1.252 . S
C17 O18 1.252 . S
O18 Zn0 1.975 . S
O18 C17 1.252 . S
H19 C12 0.930 . S
H20 C13 0.930 . S
C21 C22 1.392 . S
C21 N25 1.328 . S
C21 H27 0.930 . S
C22 C21 1.392 . S
C22 N26 1.331 . S
C23 C24 1.391 . S
C23 N26 1.329 . S
C23 H33 0.930 . S
C24 C23 1.391 . S
C24 N25 1.334 . S
C24 H31 0.930 . S
N25 Zn9 2.119 . S
N25 C21 1.328 . S
N25 C24 1.334 . S
N26 C22 1.331 . S
N26 C23 1.329 . S
H27 C21 0.930 . S
C28 O8 1.257 . S
C28 O29 1.244 . S
O29 C28 1.244 . S
O30 C6 1.257 . S
O30 Zn9 2.019 . S
H31 C24 0.930 . S
H32 C11 0.930 . S
H33 C23 0.930 . S
Zn34 N38 2.020 . S
Zn34 O42 2.019 . S
Zn34 N44 2.119 . S
Zn34 O52 1.975 . S
C35 N36 1.334 . S
C35 N39 1.336 . S
N36 C35 1.334 . S
N36 C37 1.334 . S
C37 N36 1.334 . S
C37 N38 1.336 . S
N38 Zn34 2.020 . S
N38 C37 1.336 . S
N38 N39 1.354 . S
N39 C35 1.336 . S
N39 N38 1.354 . S
N39 Zn43 2.020 . S
C40 O41 1.244 . S
C40 O64 1.257 . S
O41 C40 1.244 . S
O42 Zn34 2.019 . S
O42 C62 1.257 . S
Zn43 N39 2.020 . S
Zn43 O50 1.975 . S
Zn43 N59 2.119 . S
Zn43 O64 2.019 . S
N44 Zn34 2.119 . S
N44 C46 1.334 . S
N44 C47 1.328 . S
C45 C46 1.391 . S
C45 N48 1.329 . S
C45 H66 0.930 . S
C46 N44 1.334 . S
C46 C45 1.391 . S
C46 H53 0.930 . S
C47 N44 1.328 . S
C47 C49 1.392 . S
C47 H54 0.930 . S
N48 C45 1.329 . S
N48 C49 1.331 . S
C49 C47 1.392 . S
C49 N48 1.331 . S
O50 Zn43 1.975 . S
O50 C51 1.252 . S
C51 O50 1.252 . S
C51 O52 1.252 . S
O52 Zn34 1.975 . S
O52 C51 1.252 . S
H53 C46 0.930 . S
H54 C47 0.930 . S
C55 C56 1.392 . S
C55 N59 1.328 . S
C55 H61 0.930 . S
C56 C55 1.392 . S
C56 N60 1.331 . S
C57 C58 1.391 . S
C57 N60 1.329 . S
C57 H67 0.930 . S
C58 C57 1.391 . S
C58 N59 1.334 . S
C58 H65 0.930 . S
N59 Zn43 2.119 . S
N59 C55 1.328 . S
N59 C58 1.334 . S
N60 C56 1.331 . S
N60 C57 1.329 . S
H61 C55 0.930 . S
C62 O42 1.257 . S
C62 O63 1.244 . S
O63 C62 1.244 . S
O64 C40 1.257 . S
O64 Zn43 2.019 . S
H65 C58 0.930 . S
H66 C45 0.930 . S
H67 C57 0.930 . S
Zn68 N72 2.020 . S
Zn68 O76 2.019 . S
Zn68 N78 2.119 . S
Zn68 O86 1.975 . S
C69 N70 1.334 . S
C69 N73 1.336 . S
N70 C69 1.334 . S
N70 C71 1.334 . S
C71 N70 1.334 . S
C71 N72 1.336 . S
N72 Zn68 2.020 . S
N72 C71 1.336 . S
N72 N73 1.354 . S
N73 C69 1.336 . S
N73 N72 1.354 . S
N73 Zn77 2.020 . S
C74 O75 1.244 . S
C74 O98 1.257 . S
O75 C74 1.244 . S
O76 Zn68 2.019 . S
O76 C96 1.257 . S
Zn77 N73 2.020 . S
Zn77 O84 1.975 . S
Zn77 N93 2.119 . S
Zn77 O98 2.019 . S
N78 Zn68 2.119 . S
N78 C80 1.334 . S
N78 C81 1.328 . S
C79 C80 1.391 . S
C79 N82 1.329 . S
C79 H100 0.930 . S
C80 N78 1.334 . S
C80 C79 1.391 . S
C80 H87 0.930 . S
C81 N78 1.328 . S
C81 C83 1.392 . S
C81 H88 0.930 . S
N82 C79 1.329 . S
N82 C83 1.331 . S
C83 C81 1.392 . S
C83 N82 1.331 . S
O84 Zn77 1.975 . S
O84 C85 1.252 . S
C85 O84 1.252 . S
C85 O86 1.252 . S
O86 Zn68 1.975 . S
O86 C85 1.252 . S
H87 C80 0.930 . S
H88 C81 0.930 . S
C89 C90 1.392 . S
C89 N93 1.328 . S
C89 H95 0.930 . S
C90 C89 1.392 . S
C90 N94 1.331 . S
C91 C92 1.391 . S
C91 N94 1.329 . S
C91 H101 0.930 . S
C92 C91 1.391 . S
C92 N93 1.334 . S
C92 H99 0.930 . S
N93 Zn77 2.119 . S
N93 C89 1.328 . S
N93 C92 1.334 . S
N94 C90 1.331 . S
N94 C91 1.329 . S
H95 C89 0.930 . S
C96 O76 1.257 . S
C96 O97 1.244 . S
O97 C96 1.244 . S
O98 C74 1.257 . S
O98 Zn77 2.019 . S
H99 C92 0.930 . S
H100 C79 0.930 . S
H101 C91 0.930 . S
Zn102 N106 2.020 . S
Zn102 O110 2.019 . S
Zn102 N112 2.119 . S
Zn102 O120 1.975 . S
C103 N104 1.334 . S
C103 N107 1.336 . S
N104 C103 1.334 . S
N104 C105 1.334 . S
C105 N104 1.334 . S
C105 N106 1.336 . S
N106 Zn102 2.020 . S
N106 C105 1.336 . S
N106 N107 1.354 . S
N107 C103 1.336 . S
N107 N106 1.354 . S
N107 Zn111 2.020 . S
C108 O109 1.244 . S
C108 O132 1.257 . S
O109 C108 1.244 . S
O110 Zn102 2.019 . S
O110 C130 1.257 . S
Zn111 N107 2.020 . S
Zn111 O118 1.975 . S
Zn111 N127 2.119 . S
Zn111 O132 2.019 . S
N112 Zn102 2.119 . S
N112 C114 1.334 . S
N112 C115 1.328 . S
C113 C114 1.391 . S
C113 N116 1.329 . S
C113 H134 0.930 . S
C114 N112 1.334 . S
C114 C113 1.391 . S
C114 H121 0.930 . S
C115 N112 1.328 . S
C115 C117 1.392 . S
C115 H122 0.930 . S
N116 C113 1.329 . S
N116 C117 1.331 . S
C117 C115 1.392 . S
C117 N116 1.331 . S
O118 Zn111 1.975 . S
O118 C119 1.252 . S
C119 O118 1.252 . S
C119 O120 1.252 . S
O120 Zn102 1.975 . S
O120 C119 1.252 . S
H121 C114 0.930 . S
H122 C115 0.930 . S
C123 C124 1.392 . S
C123 N127 1.328 . S
C123 H129 0.930 . S
C124 C123 1.392 . S
C124 N128 1.331 . S
C125 C126 1.391 . S
C125 N128 1.329 . S
C125 H135 0.930 . S
C126 C125 1.391 . S
C126 N127 1.334 . S
C126 H133 0.930 . S
N127 Zn111 2.119 . S
N127 C123 1.328 . S
N127 C126 1.334 . S
N128 C124 1.331 . S
N128 C125 1.329 . S
H129 C123 0.930 . S
C130 O110 1.257 . S
C130 O131 1.244 . S
O131 C130 1.244 . S
O132 C108 1.257 . S
O132 Zn111 2.019 . S
H133 C126 0.930 . S
H134 C113 0.930 . S
H135 C125 0.930 . S
Zn136 N140 2.020 . S
Zn136 O144 2.019 . S
Zn136 N146 2.119 . S
Zn136 O154 1.975 . S
C137 N138 1.334 . S
C137 N141 1.336 . S
N138 C137 1.334 . S
N138 C139 1.334 . S
C139 N138 1.334 . S
C139 N140 1.336 . S
N140 Zn136 2.020 . S
N140 C139 1.336 . S
N140 N141 1.354 . S
N141 C137 1.336 . S
N141 N140 1.354 . S
N141 Zn145 2.020 . S
C142 O143 1.244 . S
C142 O166 1.257 . S
O143 C142 1.244 . S
O144 Zn136 2.019 . S
O144 C164 1.257 . S
Zn145 N141 2.020 . S
Zn145 O152 1.975 . S
Zn145 N161 2.119 . S
Zn145 O166 2.019 . S
N146 Zn136 2.119 . S
N146 C148 1.334 . S
N146 C149 1.328 . S
C147 C148 1.391 . S
C147 N150 1.329 . S
C147 H168 0.930 . S
C148 N146 1.334 . S
C148 C147 1.391 . S
C148 H155 0.930 . S
C149 N146 1.328 . S
C149 C151 1.392 . S
C149 H156 0.930 . S
N150 C147 1.329 . S
N150 C151 1.331 . S
C151 C149 1.392 . S
C151 N150 1.331 . S
O152 Zn145 1.975 . S
O152 C153 1.252 . S
C153 O152 1.252 . S
C153 O154 1.252 . S
O154 Zn136 1.975 . S
O154 C153 1.252 . S
H155 C148 0.930 . S
H156 C149 0.930 . S
C157 C158 1.392 . S
C157 N161 1.328 . S
C157 H163 0.930 . S
C158 C157 1.392 . S
C158 N162 1.331 . S
C159 C160 1.391 . S
C159 N162 1.329 . S
C159 H169 0.930 . S
C160 C159 1.391 . S
C160 N161 1.334 . S
C160 H167 0.930 . S
N161 Zn145 2.119 . S
N161 C157 1.328 . S
N161 C160 1.334 . S
N162 C158 1.331 . S
N162 C159 1.329 . S
H163 C157 0.930 . S
C164 O144 1.257 . S
C164 O165 1.244 . S
O165 C164 1.244 . S
O166 C142 1.257 . S
O166 Zn145 2.019 . S
H167 C160 0.930 . S
H168 C147 0.930 . S
H169 C159 0.930 . S
Zn170 N174 2.020 . S
Zn170 O178 2.019 . S
Zn170 N180 2.119 . S
Zn170 O188 1.975 . S
C171 N172 1.334 . S
C171 N175 1.336 . S
N172 C171 1.334 . S
N172 C173 1.334 . S
C173 N172 1.334 . S
C173 N174 1.336 . S
N174 Zn170 2.020 . S
N174 C173 1.336 . S
N174 N175 1.354 . S
N175 C171 1.336 . S
N175 N174 1.354 . S
N175 Zn179 2.020 . S
C176 O177 1.244 . S
C176 O200 1.257 . S
O177 C176 1.244 . S
O178 Zn170 2.019 . S
O178 C198 1.257 . S
Zn179 N175 2.020 . S
Zn179 O186 1.975 . S
Zn179 N195 2.119 . S
Zn179 O200 2.019 . S
N180 Zn170 2.119 . S
N180 C182 1.334 . S
N180 C183 1.328 . S
C181 C182 1.391 . S
C181 N184 1.329 . S
C181 H202 0.930 . S
C182 N180 1.334 . S
C182 C181 1.391 . S
C182 H189 0.930 . S
C183 N180 1.328 . S
C183 C185 1.392 . S
C183 H190 0.930 . S
N184 C181 1.329 . S
N184 C185 1.331 . S
C185 C183 1.392 . S
C185 N184 1.331 . S
O186 Zn179 1.975 . S
O186 C187 1.252 . S
C187 O186 1.252 . S
C187 O188 1.252 . S
O188 Zn170 1.975 . S
O188 C187 1.252 . S
H189 C182 0.930 . S
H190 C183 0.930 . S
C191 C192 1.392 . S
C191 N195 1.328 . S
C191 H197 0.930 . S
C192 C191 1.392 . S
C192 N196 1.331 . S
C193 C194 1.391 . S
C193 N196 1.329 . S
C193 H203 0.930 . S
C194 C193 1.391 . S
C194 N195 1.334 . S
C194 H201 0.930 . S
N195 Zn179 2.119 . S
N195 C191 1.328 . S
N195 C194 1.334 . S
N196 C192 1.331 . S
N196 C193 1.329 . S
H197 C191 0.930 . S
C198 O178 1.257 . S
C198 O199 1.244 . S
O199 C198 1.244 . S
O200 C176 1.257 . S
O200 Zn179 2.019 . S
H201 C194 0.930 . S
H202 C181 0.930 . S
H203 C193 0.930 . S
Zn204 N208 2.020 . S
Zn204 O212 2.019 . S
Zn204 N214 2.119 . S
Zn204 O222 1.975 . S
C205 N206 1.334 . S
C205 N209 1.336 . S
N206 C205 1.334 . S
N206 C207 1.334 . S
C207 N206 1.334 . S
C207 N208 1.336 . S
N208 Zn204 2.020 . S
N208 C207 1.336 . S
N208 N209 1.354 . S
N209 C205 1.336 . S
N209 N208 1.354 . S
N209 Zn213 2.020 . S
C210 O211 1.244 . S
C210 O234 1.257 . S
O211 C210 1.244 . S
O212 Zn204 2.019 . S
O212 C232 1.257 . S
Zn213 N209 2.020 . S
Zn213 O220 1.975 . S
Zn213 N229 2.119 . S
Zn213 O234 2.019 . S
N214 Zn204 2.119 . S
N214 C216 1.334 . S
N214 C217 1.328 . S
C215 C216 1.391 . S
C215 N218 1.329 . S
C215 H236 0.930 . S
C216 N214 1.334 . S
C216 C215 1.391 . S
C216 H223 0.930 . S
C217 N214 1.328 . S
C217 C219 1.392 . S
C217 H224 0.930 . S
N218 C215 1.329 . S
N218 C219 1.331 . S
C219 C217 1.392 . S
C219 N218 1.331 . S
O220 Zn213 1.975 . S
O220 C221 1.252 . S
C221 O220 1.252 . S
C221 O222 1.252 . S
O222 Zn204 1.975 . S
O222 C221 1.252 . S
H223 C216 0.930 . S
H224 C217 0.930 . S
C225 C226 1.392 . S
C225 N229 1.328 . S
C225 H231 0.930 . S
C226 C225 1.392 . S
C226 N230 1.331 . S
C227 C228 1.391 . S
C227 N230 1.329 . S
C227 H237 0.930 . S
C228 C227 1.391 . S
C228 N229 1.334 . S
C228 H235 0.930 . S
N229 Zn213 2.119 . S
N229 C225 1.328 . S
N229 C228 1.334 . S
N230 C226 1.331 . S
N230 C227 1.329 . S
H231 C225 0.930 . S
C232 O212 1.257 . S
C232 O233 1.244 . S
O233 C232 1.244 . S
O234 C210 1.257 . S
O234 Zn213 2.019 . S
H235 C228 0.930 . S
H236 C215 0.930 . S
H237 C227 0.930 . S
Zn238 N242 2.020 . S
Zn238 O246 2.019 . S
Zn238 N248 2.119 . S
Zn238 O256 1.975 . S
C239 N240 1.334 . S
C239 N243 1.336 . S
N240 C239 1.334 . S
N240 C241 1.334 . S
C241 N240 1.334 . S
C241 N242 1.336 . S
N242 Zn238 2.020 . S
N242 C241 1.336 . S
N242 N243 1.354 . S
N243 C239 1.336 . S
N243 N242 1.354 . S
N243 Zn247 2.020 . S
C244 O245 1.244 . S
C244 O268 1.257 . S
O245 C244 1.244 . S
O246 Zn238 2.019 . S
O246 C266 1.257 . S
Zn247 N243 2.020 . S
Zn247 O254 1.975 . S
Zn247 N263 2.119 . S
Zn247 O268 2.019 . S
N248 Zn238 2.119 . S
N248 C250 1.334 . S
N248 C251 1.328 . S
C249 C250 1.391 . S
C249 N252 1.329 . S
C249 H270 0.930 . S
C250 N248 1.334 . S
C250 C249 1.391 . S
C250 H257 0.930 . S
C251 N248 1.328 . S
C251 C253 1.392 . S
C251 H258 0.930 . S
N252 C249 1.329 . S
N252 C253 1.331 . S
C253 C251 1.392 . S
C253 N252 1.331 . S
O254 Zn247 1.975 . S
O254 C255 1.252 . S
C255 O254 1.252 . S
C255 O256 1.252 . S
O256 Zn238 1.975 . S
O256 C255 1.252 . S
H257 C250 0.930 . S
H258 C251 0.930 . S
C259 C260 1.392 . S
C259 N263 1.328 . S
C259 H265 0.930 . S
C260 C259 1.392 . S
C260 N264 1.331 . S
C261 C262 1.391 . S
C261 N264 1.329 . S
C261 H271 0.930 . S
C262 C261 1.391 . S
C262 N263 1.334 . S
C262 H269 0.930 . S
N263 Zn247 2.119 . S
N263 C259 1.328 . S
N263 C262 1.334 . S
N264 C260 1.331 . S
N264 C261 1.329 . S
H265 C259 0.930 . S
C266 O246 1.257 . S
C266 O267 1.244 . S
O267 C266 1.244 . S
O268 C244 1.257 . S
O268 Zn247 2.019 . S
H269 C262 0.930 . S
H270 C249 0.930 . S
H271 C261 0.930 . S
H272 C280 0.950 . S
H273 C285 0.950 . S
H274 C282 0.950 . S
H275 C284 0.950 . S
H276 C286 0.950 . S
H277 C288 0.950 . S
H278 C290 0.950 . S
H279 C291 0.950 . S
C280 H272 0.950 . S
C280 C281 1.386 . S
C280 C282 1.391 1_545 S
C281 C280 1.386 . S
C281 C285 1.393 1_545 S
C282 H274 0.950 . S
C282 C280 1.391 1_565 S
C282 C283 1.400 . S
C283 C282 1.400 . S
C283 C284 1.398 . S
C283 C289 1.491 . S
C284 H275 0.950 . S
C284 C283 1.398 . S
C284 C285 1.391 . S
C285 H273 0.950 . S
C285 C281 1.393 1_565 S
C285 C284 1.391 . S
C286 H276 0.950 . S
C286 C287 1.386 . S
C286 C288 1.391 . S
C287 C286 1.386 . S
C287 C291 1.393 . S
C288 H277 0.950 . S
C288 C286 1.391 . S
C288 C289 1.400 . S
C289 C283 1.491 . S
C289 C288 1.400 . S
C289 C290 1.398 . S
C290 H278 0.950 . S
C290 C289 1.398 . S
C290 C291 1.391 . S
C291 H279 0.950 . S
C291 C287 1.393 . S
C291 C290 1.391 . S
H292 C300 0.950 . S
H293 C305 0.950 1_455 S
H294 C302 0.950 . S
H295 C304 0.950 . S
H296 C306 0.950 . S
H297 C308 0.950 . S
H298 C310 0.950 . S
H299 C311 0.950 . S
C300 H292 0.950 . S
C300 C301 1.386 1_655 S
C300 C302 1.391 . S
C301 C300 1.386 1_455 S
C301 C305 1.393 1_455 S
C302 H294 0.950 . S
C302 C300 1.391 . S
C302 C303 1.400 . S
C303 C302 1.400 . S
C303 C304 1.398 . S
C303 C309 1.491 . S
C304 H295 0.950 . S
C304 C303 1.398 . S
C304 C305 1.391 . S
C305 H293 0.950 1_655 S
C305 C301 1.393 1_655 S
C305 C304 1.391 . S
C306 H296 0.950 . S
C306 C307 1.386 . S
C306 C308 1.391 . S
C307 C306 1.386 . S
C307 C311 1.393 . S
C308 H297 0.950 . S
C308 C306 1.391 . S
C308 C309 1.400 . S
C309 C303 1.491 . S
C309 C308 1.400 . S
C309 C310 1.398 . S
C310 H298 0.950 . S
C310 C309 1.398 . S
C310 C311 1.391 . S
C311 H299 0.950 . S
C311 C307 1.393 . S
C311 C310 1.391 . S
H312 C320 0.950 . S
H313 C325 0.950 . S
H314 C322 0.950 . S
H315 C324 0.950 . S
H316 C326 0.950 . S
H317 C328 0.950 . S
H318 C330 0.950 . S
H319 C331 0.950 . S
C320 H312 0.950 . S
C320 C321 1.386 . S
C320 C322 1.391 . S
C321 C320 1.386 . S
C321 C325 1.393 . S
C322 H314 0.950 . S
C322 C320 1.391 . S
C322 C323 1.400 . S
C323 C322 1.400 . S
C323 C324 1.398 . S
C323 C329 1.491 . S
C324 H315 0.950 . S
C324 C323 1.398 . S
C324 C325 1.391 . S
C325 H313 0.950 . S
C325 C321 1.393 . S
C325 C324 1.391 . S
C326 H316 0.950 . S
C326 C327 1.386 1_545 S
C326 C328 1.391 . S
C327 C326 1.386 1_565 S
C327 C331 1.393 . S
C328 H317 0.950 . S
C328 C326 1.391 . S
C328 C329 1.400 . S
C329 C323 1.491 . S
C329 C328 1.400 . S
C329 C330 1.398 . S
C330 H318 0.950 . S
C330 C329 1.398 . S
C330 C331 1.391 1_545 S
C331 H319 0.950 . S
C331 C327 1.393 . S
C331 C330 1.391 1_565 S
H332 C340 0.950 1_655 S
H333 C345 0.950 . S
H334 C342 0.950 . S
H335 C344 0.950 . S
H336 C346 0.950 . S
H337 C348 0.950 . S
H338 C350 0.950 . S
H339 C351 0.950 . S
C340 H332 0.950 1_455 S
C340 C341 1.386 1_455 S
C340 C342 1.391 . S
C341 C340 1.386 1_655 S
C341 C345 1.393 1_655 S
C342 H334 0.950 . S
C342 C340 1.391 . S
C342 C343 1.400 . S
C343 C342 1.400 . S
C343 C344 1.398 . S
C343 C349 1.491 . S
C344 H335 0.950 . S
C344 C343 1.398 . S
C344 C345 1.391 . S
C345 H333 0.950 . S
C345 C341 1.393 1_455 S
C345 C344 1.391 . S
C346 H336 0.950 . S
C346 C347 1.386 . S
C346 C348 1.391 . S
C347 C346 1.386 . S
C347 C351 1.393 . S
C348 H337 0.950 . S
C348 C346 1.391 . S
C348 C349 1.400 . S
C349 C343 1.491 . S
C349 C348 1.400 . S
C349 C350 1.398 . S
C350 H338 0.950 . S
C350 C349 1.398 . S
C350 C351 1.391 . S
C351 H339 0.950 . S
C351 C347 1.393 . S
C351 C350 1.391 . S
H352 C360 0.950 . S
H353 C365 0.952 . S
H354 C362 0.950 . S
H355 C364 0.950 . S
H356 C366 0.950 . S
H357 C368 0.950 . S
H358 C370 0.950 . S
H359 C371 0.950 . S
C360 H352 0.950 . S
C360 C361 1.386 . S
C360 C362 1.391 1_565 S
C361 C360 1.386 . S
C361 C365 1.393 1_565 S
C362 H354 0.950 . S
C362 C360 1.391 1_545 S
C362 C363 1.400 . S
C363 C362 1.400 . S
C363 C364 1.398 . S
C363 C369 1.491 . S
C364 H355 0.950 . S
C364 C363 1.398 . S
C364 C365 1.391 . S
C365 H353 0.952 . S
C365 C361 1.393 1_545 S
C365 C364 1.391 . S
C366 H356 0.950 . S
C366 C367 1.386 . S
C366 C368 1.391 . S
C367 C366 1.386 . S
C367 C371 1.393 . S
C368 H357 0.950 . S
C368 C366 1.391 . S
C368 C369 1.400 . S
C369 C363 1.491 . S
C369 C368 1.400 . S
C369 C370 1.398 . S
C370 H358 0.950 . S
C370 C369 1.398 . S
C370 C371 1.391 . S
C371 H359 0.950 . S
C371 C367 1.393 . S
C371 C370 1.391 . S
H372 C380 0.950 . S
H373 C385 0.950 . S
H374 C382 0.950 . S
H375 C384 0.950 . S
H376 C386 0.950 1_655 S
H377 C388 0.950 . S
H378 C390 0.950 . S
H379 C391 0.950 . S
C380 H372 0.950 . S
C380 C381 1.386 . S
C380 C382 1.391 . S
C381 C380 1.386 . S
C381 C385 1.393 . S
C382 H374 0.950 . S
C382 C380 1.391 . S
C382 C383 1.400 . S
C383 C382 1.400 . S
C383 C384 1.398 . S
C383 C389 1.491 . S
C384 H375 0.950 . S
C384 C383 1.398 . S
C384 C385 1.391 . S
C385 H373 0.950 . S
C385 C381 1.393 . S
C385 C384 1.391 . S
C386 H376 0.950 1_455 S
C386 C387 1.386 1_455 S
C386 C388 1.391 . S
C387 C386 1.386 1_655 S
C387 C391 1.393 1_655 S
C388 H377 0.950 . S
C388 C386 1.391 . S
C388 C389 1.400 . S
C389 C383 1.491 . S
C389 C388 1.400 . S
C389 C390 1.398 . S
C390 H378 0.950 . S
C390 C389 1.398 . S
C390 C391 1.391 . S
C391 H379 0.950 . S
C391 C387 1.393 1_455 S
C391 C390 1.391 . S
H392 C400 0.950 . S
H393 C405 0.950 1_545 S
H394 C402 0.950 . S
H395 C404 0.950 . S
H396 C406 0.950 . S
H397 C408 0.950 . S
H398 C410 0.950 . S
H399 C411 0.950 . S
C400 H392 0.950 . S
C400 C401 1.386 . S
C400 C402 1.391 1_545 S
C401 C400 1.386 . S
C401 C405 1.393 1_545 S
C402 H394 0.950 . S
C402 C400 1.391 1_565 S
C402 C403 1.400 . S
C403 C402 1.400 . S
C403 C404 1.398 . S
C403 C409 1.491 . S
C404 H395 0.950 . S
C404 C403 1.398 . S
C404 C405 1.391 . S
C405 H393 0.950 1_565 S
C405 C401 1.393 1_565 S
C405 C404 1.391 . S
C406 H396 0.950 . S
C406 C407 1.386 . S
C406 C408 1.391 . S
C407 C406 1.386 . S
C407 C411 1.393 . S
C408 H397 0.950 . S
C408 C406 1.391 . S
C408 C409 1.400 . S
C409 C403 1.491 . S
C409 C408 1.400 . S
C409 C410 1.398 . S
C410 H398 0.950 . S
C410 C409 1.398 . S
C410 C411 1.391 . S
C411 H399 0.950 . S
C411 C407 1.393 . S
C411 C410 1.391 . S
H412 C420 0.950 . S
H413 C425 0.950 . S
H414 C422 0.950 . S
H415 C424 0.950 . S
H416 C426 0.943 1_455 S
H417 C428 0.950 . S
H418 C430 0.950 . S
H419 C431 0.948 1_455 S
C420 H412 0.950 . S
C420 C421 1.386 . S
C420 C422 1.391 . S
C421 C420 1.386 . S
C421 C425 1.393 . S
C422 H414 0.950 . S
C422 C420 1.391 . S
C422 C423 1.400 . S
C423 C422 1.400 . S
C423 C424 1.398 . S
C423 C429 1.491 . S
C424 H415 0.950 . S
C424 C423 1.398 . S
C424 C425 1.391 . S
C425 H413 0.950 . S
C425 C421 1.393 . S
C425 C424 1.391 . S
C426 H416 0.943 1_655 S
C426 C427 1.386 1_655 S
C426 C428 1.391 . S
C427 C426 1.386 1_455 S
C427 C431 1.393 1_455 S
C428 H417 0.950 . S
C428 C426 1.391 . S
C428 C429 1.400 . S
C429 C423 1.491 . S
C429 C428 1.400 . S
C429 C430 1.398 . S
C430 H418 0.950 . S
C430 C429 1.398 . S
C430 C431 1.391 . S
C431 H419 0.948 1_655 S
C431 C427 1.393 1_655 S
C431 C430 1.391 . S
H432 C440 0.950 . S
H433 C445 0.950 . S
H434 C442 0.950 . S
H435 C444 0.950 . S
H436 C446 0.950 . S
H437 C448 0.950 . S
H438 C450 0.950 . S
H439 C451 0.950 . S
C440 H432 0.950 . S
C440 C441 1.386 . S
C440 C442 1.391 . S
C441 C440 1.386 . S
C441 C445 1.393 . S
C442 H434 0.950 . S
C442 C440 1.391 . S
C442 C443 1.400 . S
C443 C442 1.400 . S
C443 C444 1.398 . S
C443 C449 1.491 . S
C444 H435 0.950 . S
C444 C443 1.398 . S
C444 C445 1.391 . S
C445 H433 0.950 . S
C445 C441 1.393 . S
C445 C444 1.391 . S
C446 H436 0.950 . S
C446 C447 1.386 . S
C446 C448 1.391 . S
C447 C446 1.386 . S
C447 C451 1.393 . S
C448 H437 0.950 . S
C448 C446 1.391 . S
C448 C449 1.400 . S
C449 C443 1.491 . S
C449 C448 1.400 . S
C449 C450 1.398 . S
C450 H438 0.950 . S
C450 C449 1.398 . S
C450 C451 1.391 . S
C451 H439 0.950 . S
C451 C447 1.393 . S
C451 C450 1.391 . S
H452 C460 0.950 . S
H453 C465 0.950 . S
H454 C462 0.950 . S
H455 C464 0.950 . S
H456 C466 0.950 . S
H457 C468 0.950 . S
H458 C470 0.950 . S
H459 C471 0.950 . S
C460 H452 0.950 . S
C460 C461 1.386 . S
C460 C462 1.391 . S
C461 C460 1.386 . S
C461 C465 1.393 . S
C462 H454 0.950 . S
C462 C460 1.391 . S
C462 C463 1.400 . S
C463 C462 1.400 . S
C463 C464 1.398 . S
C463 C469 1.491 . S
C464 H455 0.950 . S
C464 C463 1.398 . S
C464 C465 1.391 . S
C465 H453 0.950 . S
C465 C461 1.393 . S
C465 C464 1.391 . S
C466 H456 0.950 . S
C466 C467 1.386 . S
C466 C468 1.391 . S
C467 C466 1.386 . S
C467 C471 1.393 . S
C468 H457 0.950 . S
C468 C466 1.391 . S
C468 C469 1.400 . S
C469 C463 1.491 . S
C469 C468 1.400 . S
C469 C470 1.398 . S
C470 H458 0.950 . S
C470 C469 1.398 . S
C470 C471 1.391 . S
C471 H459 0.950 . S
C471 C467 1.393 . S
C471 C470 1.391 . S
H472 C480 0.950 . S
H473 C485 0.950 . S
H474 C482 0.950 . S
H475 C484 0.950 . S
H476 C486 0.950 . S
H477 C488 0.950 . S
H478 C490 0.950 . S
H479 C491 0.950 . S
C480 H472 0.950 . S
C480 C481 1.386 . S
C480 C482 1.391 . S
C481 C480 1.386 . S
C481 C485 1.393 . S
C482 H474 0.950 . S
C482 C480 1.391 . S
C482 C483 1.400 . S
C483 C482 1.400 . S
C483 C484 1.398 . S
C483 C489 1.491 . S
C484 H475 0.950 . S
C484 C483 1.398 . S
C484 C485 1.391 . S
C485 H473 0.950 . S
C485 C481 1.393 . S
C485 C484 1.391 . S
C486 H476 0.950 . S
C486 C487 1.386 . S
C486 C488 1.391 . S
C487 C486 1.386 . S
C487 C491 1.393 . S
C488 H477 0.950 . S
C488 C486 1.391 . S
C488 C489 1.400 . S
C489 C483 1.491 . S
C489 C488 1.400 . S
C489 C490 1.398 . S
C490 H478 0.950 . S
C490 C489 1.398 . S
C490 C491 1.391 . S
C491 H479 0.950 . S
C491 C487 1.393 . S
C491 C490 1.391 . S
H492 C500 0.950 . S
H493 C505 0.950 . S
H494 C502 0.950 . S
H495 C504 0.950 . S
H496 C506 0.950 . S
H497 C508 0.950 . S
H498 C510 0.950 . S
H499 C511 0.950 . S
C500 H492 0.950 . S
C500 C501 1.386 . S
C500 C502 1.391 . S
C501 C500 1.386 . S
C501 C505 1.393 . S
C502 H494 0.950 . S
C502 C500 1.391 . S
C502 C503 1.400 . S
C503 C502 1.400 . S
C503 C504 1.398 . S
C503 C509 1.491 . S
C504 H495 0.950 . S
C504 C503 1.398 . S
C504 C505 1.391 . S
C505 H493 0.950 . S
C505 C501 1.393 . S
C505 C504 1.391 . S
C506 H496 0.950 . S
C506 C507 1.386 . S
C506 C508 1.391 . S
C507 C506 1.386 . S
C507 C511 1.393 . S
C508 H497 0.950 . S
C508 C506 1.391 . S
C508 C509 1.400 . S
C509 C503 1.491 . S
C509 C508 1.400 . S
C509 C510 1.398 . S
C510 H498 0.950 . S
C510 C509 1.398 . S
C510 C511 1.391 . S
C511 H499 0.950 . S
C511 C507 1.393 . S
C511 C510 1.391 . S
H512 C520 0.950 . S
H513 C525 0.950 . S
H514 C522 0.950 . S
H515 C524 0.950 . S
H516 C526 0.950 . S
H517 C528 0.950 . S
H518 C530 0.950 . S
H519 C531 0.950 . S
C520 H512 0.950 . S
C520 C521 1.386 . S
C520 C522 1.391 . S
C521 C520 1.386 . S
C521 C525 1.393 . S
C522 H514 0.950 . S
C522 C520 1.391 . S
C522 C523 1.400 . S
C523 C522 1.400 . S
C523 C524 1.398 . S
C523 C529 1.491 . S
C524 H515 0.950 . S
C524 C523 1.398 . S
C524 C525 1.391 . S
C525 H513 0.950 . S
C525 C521 1.393 . S
C525 C524 1.391 . S
C526 H516 0.950 . S
C526 C527 1.386 . S
C526 C528 1.391 . S
C527 C526 1.386 . S
C527 C531 1.393 . S
C528 H517 0.950 . S
C528 C526 1.391 . S
C528 C529 1.400 . S
C529 C523 1.491 . S
C529 C528 1.400 . S
C529 C530 1.398 . S
C530 H518 0.950 . S
C530 C529 1.398 . S
C530 C531 1.391 . S
C531 H519 0.950 . S
C531 C527 1.393 . S
C531 C530 1.391 . S
H532 C540 0.950 . S
H533 C545 0.950 . S
H534 C542 0.950 . S
H535 C544 0.950 . S
H536 C546 0.950 . S
H537 C548 0.950 . S
H538 C550 0.950 . S
H539 C551 0.950 . S
C540 H532 0.950 . S
C540 C541 1.386 . S
C540 C542 1.391 . S
C541 C540 1.386 . S
C541 C545 1.393 . S
C542 H534 0.950 . S
C542 C540 1.391 . S
C542 C543 1.400 . S
C543 C542 1.400 . S
C543 C544 1.398 . S
C543 C549 1.491 . S
C544 H535 0.950 . S
C544 C543 1.398 . S
C544 C545 1.391 . S
C545 H533 0.950 . S
C545 C541 1.393 . S
C545 C544 1.391 . S
C546 H536 0.950 . S
C546 C547 1.386 . S
C546 C548 1.391 . S
C547 C546 1.386 . S
C547 C551 1.393 . S
C548 H537 0.950 . S
C548 C546 1.391 . S
C548 C549 1.400 . S
C549 C543 1.491 . S
C549 C548 1.400 . S
C549 C550 1.398 . S
C550 H538 0.950 . S
C550 C549 1.398 . S
C550 C551 1.391 . S
C551 H539 0.950 . S
C551 C547 1.393 . S
C551 C550 1.391 . S
H552 C560 0.950 . S
H553 C565 0.950 . S
H554 C562 0.950 . S
H555 C564 0.950 . S
H556 C566 0.950 . S
H557 C568 0.950 . S
H558 C570 0.950 . S
H559 C571 0.950 . S
C560 H552 0.950 . S
C560 C561 1.386 . S
C560 C562 1.391 . S
C561 C560 1.386 . S
C561 C565 1.393 . S
C562 H554 0.950 . S
C562 C560 1.391 . S
C562 C563 1.400 . S
C563 C562 1.400 . S
C563 C564 1.398 . S
C563 C569 1.491 . S
C564 H555 0.950 . S
C564 C563 1.398 . S
C564 C565 1.391 . S
C565 H553 0.950 . S
C565 C561 1.393 . S
C565 C564 1.391 . S
C566 H556 0.950 . S
C566 C567 1.386 . S
C566 C568 1.391 . S
C567 C566 1.386 . S
C567 C571 1.393 . S
C568 H557 0.950 . S
C568 C566 1.391 . S
C568 C569 1.400 . S
C569 C563 1.491 . S
C569 C568 1.400 . S
C569 C570 1.398 . S
C570 H558 0.950 . S
C570 C569 1.398 . S
C570 C571 1.391 . S
C571 H559 0.950 . S
C571 C567 1.393 . S
C571 C570 1.391 . S
H572 C580 0.950 . S
H573 C585 0.950 . S
H574 C582 0.950 . S
H575 C584 0.950 . S
H576 C586 0.950 . S
H577 C588 0.950 . S
H578 C590 0.950 . S
H579 C591 0.950 . S
C580 H572 0.950 . S
C580 C581 1.386 . S
C580 C582 1.391 . S
C581 C580 1.386 . S
C581 C585 1.393 . S
C582 H574 0.950 . S
C582 C580 1.391 . S
C582 C583 1.400 . S
C583 C582 1.400 . S
C583 C584 1.398 . S
C583 C589 1.491 . S
C584 H575 0.950 . S
C584 C583 1.398 . S
C584 C585 1.391 . S
C585 H573 0.950 . S
C585 C581 1.393 . S
C585 C584 1.391 . S
C586 H576 0.950 . S
C586 C587 1.386 . S
C586 C588 1.391 . S
C587 C586 1.386 . S
C587 C591 1.393 . S
C588 H577 0.950 . S
C588 C586 1.391 . S
C588 C589 1.400 . S
C589 C583 1.491 . S
C589 C588 1.400 . S
C589 C590 1.398 . S
C590 H578 0.950 . S
C590 C589 1.398 . S
C590 C591 1.391 . S
C591 H579 0.950 . S
C591 C587 1.393 . S
C591 C590 1.391 . S
H592 C600 0.950 . S
H593 C605 0.950 . S
H594 C602 0.950 1_655 S
H595 C604 0.950 1_565 S
H596 C606 0.950 . S
H597 C608 0.950 1_455 S
H598 C610 0.950 1_545 S
H599 C611 0.950 . S
C600 H592 0.950 . S
C600 C601 1.386 . S
C600 C602 1.391 . S
C601 C600 1.386 . S
C601 C605 1.393 . S
C602 H594 0.950 1_455 S
C602 C600 1.391 . S
C602 C603 1.400 . S
C603 C602 1.400 . S
C603 C604 1.398 . S
C603 C609 1.491 1_445 S
C604 H595 0.950 1_545 S
C604 C603 1.398 . S
C604 C605 1.391 . S
C605 H593 0.950 . S
C605 C601 1.393 . S
C605 C604 1.391 . S
C606 H596 0.950 . S
C606 C607 1.386 . S
C606 C608 1.391 . S
C607 C606 1.386 . S
C607 C611 1.393 . S
C608 H597 0.950 1_655 S
C608 C606 1.391 . S
C608 C609 1.400 . S
C609 C603 1.491 1_665 S
C609 C608 1.400 . S
C609 C610 1.398 . S
C610 H598 0.950 1_565 S
C610 C609 1.398 . S
C610 C611 1.391 . S
C611 H599 0.950 . S
C611 C607 1.393 . S
C611 C610 1.391 . S
H612 C620 0.950 . S
H613 C625 0.950 . S
H614 C622 0.950 1_565 S
H615 C624 0.950 1_455 S
H616 C626 0.950 . S
H617 C628 0.950 1_545 S
H618 C630 0.950 1_655 S
H619 C631 0.950 . S
C620 H612 0.950 . S
C620 C621 1.386 . S
C620 C622 1.391 . S
C621 C620 1.386 . S
C621 C625 1.393 . S
C622 H614 0.950 1_545 S
C622 C620 1.391 . S
C622 C623 1.400 . S
C623 C622 1.400 . S
C623 C624 1.398 . S
C623 C629 1.491 1_645 S
C624 H615 0.950 1_655 S
C624 C623 1.398 . S
C624 C625 1.391 . S
C625 H613 0.950 . S
C625 C621 1.393 . S
C625 C624 1.391 . S
C626 H616 0.950 . S
C626 C627 1.386 . S
C626 C628 1.391 . S
C627 C626 1.386 . S
C627 C631 1.393 . S
C628 H617 0.950 1_565 S
C628 C626 1.391 . S
C628 C629 1.400 . S
C629 C623 1.491 1_465 S
C629 C628 1.400 . S
C629 C630 1.398 . S
C630 H618 0.950 1_455 S
C630 C629 1.398 . S
C630 C631 1.391 . S
C631 H619 0.950 . S
C631 C627 1.393 . S
C631 C630 1.391 . S
H632 C640 0.950 . S
H633 C645 0.950 . S
H634 C642 0.950 . S
H635 C644 0.950 . S
H636 C646 0.950 . S
H637 C648 0.950 . S
H638 C650 0.950 . S
H639 C651 0.950 . S
C640 H632 0.950 . S
C640 C641 1.386 . S
C640 C642 1.391 . S
C641 C640 1.386 . S
C641 C645 1.393 . S
C642 H634 0.950 . S
C642 C640 1.391 . S
C642 C643 1.400 . S
C643 C642 1.400 . S
C643 C644 1.398 . S
C643 C649 1.491 . S
C644 H635 0.950 . S
C644 C643 1.398 . S
C644 C645 1.391 . S
C645 H633 0.950 . S
C645 C641 1.393 . S
C645 C644 1.391 . S
C646 H636 0.950 . S
C646 C647 1.386 . S
C646 C648 1.391 . S
C647 C646 1.386 . S
C647 C651 1.393 . S
C648 H637 0.950 . S
C648 C646 1.391 . S
C648 C649 1.400 . S
C649 C643 1.491 . S
C649 C648 1.400 . S
C649 C650 1.398 . S
C650 H638 0.950 . S
C650 C649 1.398 . S
C650 C651 1.391 . S
C651 H639 0.950 . S
C651 C647 1.393 . S
C651 C650 1.391 . S
H652 C660 0.950 . S
H653 C665 0.950 . S
H654 C662 0.950 . S
H655 C664 0.950 . S
H656 C666 0.950 . S
H657 C668 0.950 . S
H658 C670 0.950 . S
H659 C671 0.950 . S
C660 H652 0.950 . S
C660 C661 1.386 . S
C660 C662 1.391 . S
C661 C660 1.386 . S
C661 C665 1.393 . S
C662 H654 0.950 . S
C662 C660 1.391 . S
C662 C663 1.400 . S
C663 C662 1.400 . S
C663 C664 1.398 . S
C663 C669 1.491 . S
C664 H655 0.950 . S
C664 C663 1.398 . S
C664 C665 1.391 . S
C665 H653 0.950 . S
C665 C661 1.393 . S
C665 C664 1.391 . S
C666 H656 0.950 . S
C666 C667 1.386 . S
C666 C668 1.391 . S
C667 C666 1.386 . S
C667 C671 1.393 . S
C668 H657 0.950 . S
C668 C666 1.391 . S
C668 C669 1.400 . S
C669 C663 1.491 . S
C669 C668 1.400 . S
C669 C670 1.398 . S
C670 H658 0.950 . S
C670 C669 1.398 . S
C670 C671 1.391 . S
C671 H659 0.950 . S
C671 C667 1.393 . S
C671 C670 1.391 . S
H672 C680 0.950 . S
H673 C685 0.950 . S
H674 C682 0.950 . S
H675 C684 0.950 . S
H676 C686 0.950 . S
H677 C688 0.950 . S
H678 C690 0.950 . S
H679 C691 0.950 . S
C680 H672 0.950 . S
C680 C681 1.386 . S
C680 C682 1.391 . S
C681 C680 1.386 . S
C681 C685 1.393 . S
C682 H674 0.950 . S
C682 C680 1.391 . S
C682 C683 1.400 . S
C683 C682 1.400 . S
C683 C684 1.398 . S
C683 C689 1.491 1_544 S
C684 H675 0.950 . S
C684 C683 1.398 . S
C684 C685 1.391 . S
C685 H673 0.950 . S
C685 C681 1.393 . S
C685 C684 1.391 . S
C686 H676 0.950 . S
C686 C687 1.386 . S
C686 C688 1.391 . S
C687 C686 1.386 . S
C687 C691 1.393 . S
C688 H677 0.950 . S
C688 C686 1.391 . S
C688 C689 1.400 . S
C689 C683 1.491 1_566 S
C689 C688 1.400 . S
C689 C690 1.398 . S
C690 H678 0.950 . S
C690 C689 1.398 . S
C690 C691 1.391 . S
C691 H679 0.950 . S
C691 C687 1.393 . S
C691 C690 1.391 . S
H692 C700 0.950 . S
H693 C705 0.950 . S
H694 C702 0.950 1_554 S
H695 C704 0.950 1_655 S
H696 C706 0.950 . S
H697 C708 0.950 1_556 S
H698 C710 0.950 1_455 S
H699 C711 0.950 . S
C700 H692 0.950 . S
C700 C701 1.386 . S
C700 C702 1.391 . S
C701 C700 1.386 . S
C701 C705 1.393 . S
C702 H694 0.950 1_556 S
C702 C700 1.391 . S
C702 C703 1.400 . S
C703 C702 1.400 . S
C703 C704 1.398 . S
C703 C709 1.491 1_456 S
C704 H695 0.950 1_455 S
C704 C703 1.398 . S
C704 C705 1.391 . S
C705 H693 0.950 . S
C705 C701 1.393 . S
C705 C704 1.391 . S
C706 H696 0.950 . S
C706 C707 1.386 . S
C706 C708 1.391 . S
C707 C706 1.386 . S
C707 C711 1.393 . S
C708 H697 0.950 1_554 S
C708 C706 1.391 . S
C708 C709 1.400 . S
C709 C703 1.491 1_654 S
C709 C708 1.400 . S
C709 C710 1.398 . S
C710 H698 0.950 1_655 S
C710 C709 1.398 . S
C710 C711 1.391 . S
C711 H699 0.950 . S
C711 C707 1.393 . S
C711 C710 1.391 . S
H712 C720 0.950 . S
H713 C725 0.950 . S
H714 C722 0.950 . S
H715 C724 0.950 . S
H716 C726 0.950 . S
H717 C728 0.950 . S
H718 C730 0.950 . S
H719 C731 0.950 . S
C720 H712 0.950 . S
C720 C721 1.386 . S
C720 C722 1.391 . S
C721 C720 1.386 . S
C721 C725 1.393 . S
C722 H714 0.950 . S
C722 C720 1.391 . S
C722 C723 1.400 . S
C723 C722 1.400 . S
C723 C724 1.398 . S
C723 C729 1.491 1_546 S
C724 H715 0.950 . S
C724 C723 1.398 . S
C724 C725 1.391 . S
C725 H713 0.950 . S
C725 C721 1.393 . S
C725 C724 1.391 . S
C726 H716 0.950 . S
C726 C727 1.386 . S
C726 C728 1.391 . S
C727 C726 1.386 . S
C727 C731 1.393 . S
C728 H717 0.950 . S
C728 C726 1.391 . S
C728 C729 1.400 . S
C729 C723 1.491 1_564 S
C729 C728 1.400 . S
C729 C730 1.398 . S
C730 H718 0.950 . S
C730 C729 1.398 . S
C730 C731 1.391 . S
C731 H719 0.950 . S
C731 C727 1.393 . S
C731 C730 1.391 . S
H732 C740 0.950 . S
H733 C745 0.950 . S
H734 C742 0.950 1_556 S
H735 C744 0.950 . S
H736 C746 0.950 . S
H737 C748 0.950 1_554 S
H738 C750 0.950 . S
H739 C751 0.950 . S
C740 H732 0.950 . S
C740 C741 1.386 . S
C740 C742 1.391 . S
C741 C740 1.386 . S
C741 C745 1.393 . S
C742 H734 0.950 1_554 S
C742 C740 1.391 . S
C742 C743 1.400 . S
C743 C742 1.400 . S
C743 C744 1.398 1_455 S
C743 C749 1.491 1_454 S
C744 H735 0.950 . S
C744 C743 1.398 1_655 S
C744 C745 1.391 1_655 S
C745 H733 0.950 . S
C745 C741 1.393 . S
C745 C744 1.391 1_455 S
C746 H736 0.950 . S
C746 C747 1.386 . S
C746 C748 1.391 . S
C747 C746 1.386 . S
C747 C751 1.393 . S
C748 H737 0.950 1_556 S
C748 C746 1.391 . S
C748 C749 1.400 . S
C749 C743 1.491 1_656 S
C749 C748 1.400 . S
C749 C750 1.398 1_655 S
C750 H738 0.950 . S
C750 C749 1.398 1_455 S
C750 C751 1.391 1_455 S
C751 H739 0.950 . S
C751 C747 1.393 . S
C751 C750 1.391 1_655 S
H752 C760 0.950 . S
H753 C765 0.950 . S
H754 C762 0.950 . S
H755 C764 0.950 . S
H756 C766 0.950 . S
H757 C768 0.950 . S
H758 C770 0.950 . S
H759 C771 0.950 . S
C760 H752 0.950 . S
C760 C761 1.386 . S
C760 C762 1.391 . S
C761 C760 1.386 . S
C761 C765 1.393 . S
C762 H754 0.950 . S
C762 C760 1.391 . S
C762 C763 1.400 . S
C763 C762 1.400 . S
C763 C764 1.398 . S
C763 C769 1.491 . S
C764 H755 0.950 . S
C764 C763 1.398 . S
C764 C765 1.391 . S
C765 H753 0.950 . S
C765 C761 1.393 . S
C765 C764 1.391 . S
C766 H756 0.950 . S
C766 C767 1.386 . S
C766 C768 1.391 . S
C767 C766 1.386 . S
C767 C771 1.393 . S
C768 H757 0.950 . S
C768 C766 1.391 . S
C768 C769 1.400 . S
C769 C763 1.491 . S
C769 C768 1.400 . S
C769 C770 1.398 . S
C770 H758 0.950 . S
C770 C769 1.398 . S
C770 C771 1.391 . S
C771 H759 0.950 . S
C771 C767 1.393 . S
C771 C770 1.391 . S
H772 C780 0.950 . S
H773 C785 0.950 . S
H774 C782 0.950 . S
H775 C784 0.950 . S
H776 C786 0.950 . S
H777 C788 0.950 . S
H778 C790 0.950 . S
H779 C791 0.950 . S
C780 H772 0.950 . S
C780 C781 1.386 . S
C780 C782 1.391 . S
C781 C780 1.386 . S
C781 C785 1.393 . S
C782 H774 0.950 . S
C782 C780 1.391 . S
C782 C783 1.400 . S
C783 C782 1.400 . S
C783 C784 1.398 . S
C783 C789 1.491 . S
C784 H775 0.950 . S
C784 C783 1.398 . S
C784 C785 1.391 . S
C785 H773 0.950 . S
C785 C781 1.393 . S
C785 C784 1.391 . S
C786 H776 0.950 . S
C786 C787 1.386 . S
C786 C788 1.391 . S
C787 C786 1.386 . S
C787 C791 1.393 . S
C788 H777 0.950 . S
C788 C786 1.391 . S
C788 C789 1.400 . S
C789 C783 1.491 . S
C789 C788 1.400 . S
C789 C790 1.398 . S
C790 H778 0.950 . S
C790 C789 1.398 . S
C790 C791 1.391 . S
C791 H779 0.950 . S
C791 C787 1.393 . S
C791 C790 1.391 . S
H792 C800 0.950 . S
H793 C805 0.950 . S
H794 C802 0.950 . S
H795 C804 0.950 . S
H796 C806 0.950 . S
H797 C808 0.950 . S
H798 C810 0.950 . S
H799 C811 0.950 . S
C800 H792 0.950 . S
C800 C801 1.386 . S
C800 C802 1.391 . S
C801 C800 1.386 . S
C801 C805 1.393 . S
C802 H794 0.950 . S
C802 C800 1.391 . S
C802 C803 1.400 . S
C803 C802 1.400 . S
C803 C804 1.398 . S
C803 C809 1.491 . S
C804 H795 0.950 . S
C804 C803 1.398 . S
C804 C805 1.391 . S
C805 H793 0.950 . S
C805 C801 1.393 . S
C805 C804 1.391 . S
C806 H796 0.950 . S
C806 C807 1.386 . S
C806 C808 1.391 . S
C807 C806 1.386 . S
C807 C811 1.393 . S
C808 H797 0.950 . S
C808 C806 1.391 . S
C808 C809 1.400 . S
C809 C803 1.491 . S
C809 C808 1.400 . S
C809 C810 1.398 . S
C810 H798 0.950 . S
C810 C809 1.398 . S
C810 C811 1.391 . S
C811 H799 0.950 . S
C811 C807 1.393 . S
C811 C810 1.391 . S
H812 C820 0.950 . S
H813 C825 0.950 . S
H814 C822 0.950 . S
H815 C824 0.950 . S
H816 C826 0.950 . S
H817 C828 0.950 . S
H818 C830 0.950 . S
H819 C831 0.950 . S
C820 H812 0.950 . S
C820 C821 1.386 . S
C820 C822 1.391 . S
C821 C820 1.386 . S
C821 C825 1.393 . S
C822 H814 0.950 . S
C822 C820 1.391 . S
C822 C823 1.400 . S
C823 C822 1.400 . S
C823 C824 1.398 . S
C823 C829 1.491 . S
C824 H815 0.950 . S
C824 C823 1.398 . S
C824 C825 1.391 . S
C825 H813 0.950 . S
C825 C821 1.393 . S
C825 C824 1.391 . S
C826 H816 0.950 . S
C826 C827 1.386 . S
C826 C828 1.391 . S
C827 C826 1.386 . S
C827 C831 1.393 . S
C828 H817 0.950 . S
C828 C826 1.391 . S
C828 C829 1.400 . S
C829 C823 1.491 . S
C829 C828 1.400 . S
C829 C830 1.398 . S
C830 H818 0.950 . S
C830 C829 1.398 . S
C830 C831 1.391 . S
C831 H819 0.950 . S
C831 C827 1.393 . S
C831 C830 1.391 . S
C281 C28 1.737 . S
C287 C241 1.626 . S
C301 C49 1.249 . S
C307 C137 1.274 . S
C321 C173 1.631 . S
C327 C96 1.735 . S
C341 C117 1.279 . S
C347 C207 1.243 . S
C361 C40 1.740 . S
C367 C205 1.619 . S
C381 C239 1.273 . S
C387 C90 1.251 . S
C401 C108 1.742 . S
C407 C139 1.616 . S
C421 C171 1.265 . S
C427 C22 1.259 . S
C441 C142 1.745 . S
C447 C105 1.604 . S
C461 C3 1.263 . S
C467 C185 1.259 . S
C481 C37 1.636 . S
C487 C232 1.731 . S
C501 C253 1.261 . S
C507 C71 1.262 . S
C521 C176 1.740 . S
C527 C69 1.620 . S
C541 C226 1.248 . S
C547 C103 1.276 . S
C561 C244 1.743 . S
C567 C1 1.612 . S
C581 C35 1.242 . S
C587 C151 1.280 . S
C601 C17 1.636 . S
C607 C85 1.632 . S
C621 C119 1.632 . S
C627 C51 1.637 . S
C641 C153 1.638 . S
C647 C221 1.631 . S
C661 C187 1.633 . S
C667 C255 1.635 . S
C681 C15 0.834 . S
C687 C56 0.861 . S
C701 C62 0.688 . S
C707 C74 0.728 . S
C721 C124 0.845 . S
C727 C83 0.854 . S
C741 C6 0.677 . S
C747 C130 0.733 . S
C761 C192 0.807 . S
C767 C158 0.819 . S
C781 C210 0.681 . S
C787 C198 0.732 . S
C801 C219 0.860 . S
C807 C260 0.835 . S
C821 C164 0.694 . S
C827 C266 0.722 . S
