# Generated by pormake.
# Topology crs, (6)-cn, num edge types: 1
# Building blocks:
#     Node 0, Type 0, BuildingBlock: UKALOJ_clean_sbu_0, # of connection points: 6
#     Node 1, Type 0, BuildingBlock: UKALOJ_clean_sbu_0, # of connection points: 6
#     Node 2, Type 0, BuildingBlock: UKALOJ_clean_sbu_0, # of connection points: 6
#     Node 3, Type 0, BuildingBlock: UKALOJ_clean_sbu_0, # of connection points: 6
#     Node 4, Type 0, BuildingBlock: UKALOJ_clean_sbu_0, # of connection points: 6
#     Node 5, Type 0, BuildingBlock: UKALOJ_clean_sbu_0, # of connection points: 6
#     Node 6, Type 0, BuildingBlock: UKALOJ_clean_sbu_0, # of connection points: 6
#     Node 7, Type 0, BuildingBlock: UKALOJ_clean_sbu_0, # of connection points: 6
#     Node 8, Type 0, BuildingBlock: UKALOJ_clean_sbu_0, # of connection points: 6
#     Node 9, Type 0, BuildingBlock: UKALOJ_clean_sbu_0, # of connection points: 6
#     Node 10, Type 0, BuildingBlock: UKALOJ_clean_sbu_0, # of connection points: 6
#     Node 11, Type 0, BuildingBlock: UKALOJ_clean_sbu_0, # of connection points: 6
#     Node 12, Type 0, BuildingBlock: UKALOJ_clean_sbu_0, # of connection points: 6
#     Node 13, Type 0, BuildingBlock: UKALOJ_clean_sbu_0, # of connection points: 6
#     Node 14, Type 0, BuildingBlock: UKALOJ_clean_sbu_0, # of connection points: 6
#     Node 15, Type 0, BuildingBlock: UKALOJ_clean_sbu_0, # of connection points: 6
#     Edge 16, Type (0, 0), BuildingBlock: UVAHIK_clean_linker_0, # of connection points: 2
#     Edge 17, Type (0, 0), BuildingBlock: UVAHIK_clean_linker_0, # of connection points: 2
#     Edge 18, Type (0, 0), BuildingBlock: UVAHIK_clean_linker_0, # of connection points: 2
#     Edge 19, Type (0, 0), BuildingBlock: UVAHIK_clean_linker_0, # of connection points: 2
#     Edge 20, Type (0, 0), BuildingBlock: UVAHIK_clean_linker_0, # of connection points: 2
#     Edge 21, Type (0, 0), BuildingBlock: UVAHIK_clean_linker_0, # of connection points: 2
#     Edge 22, Type (0, 0), BuildingBlock: UVAHIK_clean_linker_0, # of connection points: 2
#     Edge 23, Type (0, 0), BuildingBlock: UVAHIK_clean_linker_0, # of connection points: 2
#     Edge 24, Type (0, 0), BuildingBlock: UVAHIK_clean_linker_0, # of connection points: 2
#     Edge 25, Type (0, 0), BuildingBlock: UVAHIK_clean_linker_0, # of connection points: 2
#     Edge 26, Type (0, 0), BuildingBlock: UVAHIK_clean_linker_0, # of connection points: 2
#     Edge 27, Type (0, 0), BuildingBlock: UVAHIK_clean_linker_0, # of connection points: 2
#     Edge 28, Type (0, 0), BuildingBlock: UVAHIK_clean_linker_0, # of connection points: 2
#     Edge 29, Type (0, 0), BuildingBlock: UVAHIK_clean_linker_0, # of connection points: 2
#     Edge 30, Type (0, 0), BuildingBlock: UVAHIK_clean_linker_0, # of connection points: 2
#     Edge 31, Type (0, 0), BuildingBlock: UVAHIK_clean_linker_0, # of connection points: 2
#     Edge 32, Type (0, 0), BuildingBlock: UVAHIK_clean_linker_0, # of connection points: 2
#     Edge 33, Type (0, 0), BuildingBlock: UVAHIK_clean_linker_0, # of connection points: 2
#     Edge 34, Type (0, 0), BuildingBlock: UVAHIK_clean_linker_0, # of connection points: 2
#     Edge 35, Type (0, 0), BuildingBlock: UVAHIK_clean_linker_0, # of connection points: 2
#     Edge 36, Type (0, 0), BuildingBlock: UVAHIK_clean_linker_0, # of connection points: 2
#     Edge 37, Type (0, 0), BuildingBlock: UVAHIK_clean_linker_0, # of connection points: 2
#     Edge 38, Type (0, 0), BuildingBlock: UVAHIK_clean_linker_0, # of connection points: 2
#     Edge 39, Type (0, 0), BuildingBlock: UVAHIK_clean_linker_0, # of connection points: 2
#     Edge 40, Type (0, 0), BuildingBlock: UVAHIK_clean_linker_0, # of connection points: 2
#     Edge 41, Type (0, 0), BuildingBlock: UVAHIK_clean_linker_0, # of connection points: 2
#     Edge 42, Type (0, 0), BuildingBlock: UVAHIK_clean_linker_0, # of connection points: 2
#     Edge 43, Type (0, 0), BuildingBlock: UVAHIK_clean_linker_0, # of connection points: 2
#     Edge 44, Type (0, 0), BuildingBlock: UVAHIK_clean_linker_0, # of connection points: 2
#     Edge 45, Type (0, 0), BuildingBlock: UVAHIK_clean_linker_0, # of connection points: 2
#     Edge 46, Type (0, 0), BuildingBlock: UVAHIK_clean_linker_0, # of connection points: 2
#     Edge 47, Type (0, 0), BuildingBlock: UVAHIK_clean_linker_0, # of connection points: 2
#     Edge 48, Type (0, 0), BuildingBlock: UVAHIK_clean_linker_0, # of connection points: 2
#     Edge 49, Type (0, 0), BuildingBlock: UVAHIK_clean_linker_0, # of connection points: 2
#     Edge 50, Type (0, 0), BuildingBlock: UVAHIK_clean_linker_0, # of connection points: 2
#     Edge 51, Type (0, 0), BuildingBlock: UVAHIK_clean_linker_0, # of connection points: 2
#     Edge 52, Type (0, 0), BuildingBlock: UVAHIK_clean_linker_0, # of connection points: 2
#     Edge 53, Type (0, 0), BuildingBlock: UVAHIK_clean_linker_0, # of connection points: 2
#     Edge 54, Type (0, 0), BuildingBlock: UVAHIK_clean_linker_0, # of connection points: 2
#     Edge 55, Type (0, 0), BuildingBlock: UVAHIK_clean_linker_0, # of connection points: 2
#     Edge 56, Type (0, 0), BuildingBlock: UVAHIK_clean_linker_0, # of connection points: 2
#     Edge 57, Type (0, 0), BuildingBlock: UVAHIK_clean_linker_0, # of connection points: 2
#     Edge 58, Type (0, 0), BuildingBlock: UVAHIK_clean_linker_0, # of connection points: 2
#     Edge 59, Type (0, 0), BuildingBlock: UVAHIK_clean_linker_0, # of connection points: 2
#     Edge 60, Type (0, 0), BuildingBlock: UVAHIK_clean_linker_0, # of connection points: 2
#     Edge 61, Type (0, 0), BuildingBlock: UVAHIK_clean_linker_0, # of connection points: 2
#     Edge 62, Type (0, 0), BuildingBlock: UVAHIK_clean_linker_0, # of connection points: 2
#     Edge 63, Type (0, 0), BuildingBlock: UVAHIK_clean_linker_0, # of connection points: 2
# Relax obj value: 0.449
# Max RMSD: 0.329
# Mean RMSD: 0.254
data_MOF--net-crs--node1-UKALOJ_clean_sbu_0--edge1-UVAHIK_clean_linker_0
_symmetry_space_group_name_H-M    P1
_symmetry_Int_Tables_number       1
_symmetry_cell_setting            triclinic
loop_
_symmetry_equiv_pos_as_xyz
'x, y, z'
_cell_length_a     56.64635
_cell_length_b     56.67601
_cell_length_c     52.101232
_cell_angle_alpha  87.199358
_cell_angle_beta   92.895657
_cell_angle_gamma 100.39994
loop_
_atom_site_label
_atom_site_type_symbol
_atom_site_fract_x
_atom_site_fract_y
_atom_site_fract_z
_atom_type_partial_charge
Zn0 Zn 0.96474 0.02902 0.98676 0.0
O1 O -0.00275 0.0326 0.00925 0.0
C2 C 0.98185 0.07611 0.95878 0.0
Zn3 Zn 0.9862 0.02588 0.95285 0.0
C4 C 0.01739 0.03215 -0.00017 0.0
O5 O 0.01841 0.03007 0.97578 0.0
C6 C 0.93345 0.02126 0.93995 0.0
O7 O 0.98159 0.98898 0.96105 0.0
O8 O 0.95984 0.991 0.99429 0.0
N9 N 0.00516 0.02241 0.9215 0.0
C10 C 0.00091 0.00694 0.90228 0.0
C11 C 0.03583 0.02781 0.89756 0.0
N12 N 0.02677 0.03551 0.9184 0.0
N13 N 0.01979 0.01011 0.88693 0.0
C14 C 0.95123 0.05092 0.03606 0.0
C15 C 0.92142 0.02554 0.04936 0.0
N16 N 0.94681 0.03327 0.01907 0.0
N17 N 0.92829 0.01748 0.02741 0.0
N18 N 0.93549 0.04659 0.05494 0.0
H19 H 0.98585 0.06932 0.02271 0.0
H20 H 0.97935 0.07565 0.05483 0.0
H21 H 0.96422 0.08813 0.02797 0.0
C22 C 0.97148 0.07203 0.03517 0.0
C23 C 0.97929 0.98739 0.8996 0.0
H24 H 0.96781 0.98557 0.9163 0.0
H25 H 0.98505 0.96999 0.89695 0.0
H26 H 0.96837 0.99142 0.88221 0.0
O27 O 0.95375 0.02146 0.93052 0.0
O28 O 0.93235 0.02444 0.96384 0.0
C29 C 0.96953 0.97857 0.97953 0.0
O30 O 0.96992 0.06695 0.97797 0.0
O31 O 0.99091 0.0626 0.94488 0.0
Zn32 Zn 0.03853 0.26096 0.26869 0.0
O33 O 0.02429 0.23084 0.24672 0.0
C34 C 0.06432 0.28552 0.2237 0.0
Zn35 Zn 0.01635 0.28321 0.24533 0.0
C36 C 0.00936 0.2328 0.22805 0.0
O37 O 0.00316 0.25302 0.22277 0.0
C38 C 0.04498 0.31091 0.28671 0.0
O39 O 0.98813 0.27282 0.27084 0.0
O40 O 0.00993 0.2507 0.29383 0.0
N41 N -0.00384 0.30371 0.2236 0.0
C42 C 0.97225 0.30089 0.21868 0.0
C43 C 0.98791 0.3348 0.2019 0.0
N44 N 0.00588 0.3247 0.213 0.0
N45 N 0.9666 0.32026 0.20529 0.0
C46 C 0.07328 0.22626 0.28693 0.0
C47 C 0.07059 0.22615 0.32763 0.0
N48 N 0.05846 0.24146 0.29173 0.0
N49 N 0.05695 0.24149 0.31701 0.0
N50 N 0.08118 0.21649 0.30918 0.0
H51 H 0.07857 0.20041 0.25978 0.0
H52 H 0.09715 0.22952 0.25595 0.0
H53 H 0.06613 0.22548 0.24565 0.0
C54 C 0.07887 0.22 0.26052 0.0
C55 C 0.95459 0.2788 0.22597 0.0
H56 H 0.96296 0.2626 0.2266 0.0
H57 H 0.93889 0.27631 0.21211 0.0
H58 H 0.94811 0.28068 0.24535 0.0
O59 O 0.02989 0.31309 0.26822 0.0
O60 O 0.05196 0.29096 0.29088 0.0
C61 C 0.99036 0.2585 0.28994 0.0
O62 O 0.06702 0.2714 0.24295 0.0
O63 O 0.04473 0.2934 0.22028 0.0
Zn64 Zn 0.76855 0.25646 0.56401 0.0
O65 O 0.73237 0.25021 0.55032 0.0
C66 C 0.7649 0.20388 0.57649 0.0
Zn67 Zn 0.77758 0.2361 0.53151 0.0
C68 C 0.7261 0.2394 0.52962 0.0
O69 O 0.74159 0.23129 0.51743 0.0
C70 C 0.82008 0.25377 0.56554 0.0
O71 O 0.78395 0.26898 0.51007 0.0
O72 O 0.77403 0.28899 0.54162 0.0
N73 N 0.78665 0.21837 0.5012 0.0
C74 C 0.80363 0.22511 0.48379 0.0
C75 C 0.78604 0.18966 0.47521 0.0
N76 N 0.77575 0.19632 0.49586 0.0
N77 N 0.80343 0.20755 0.46722 0.0
C78 C 0.74368 0.26703 0.61258 0.0
C79 C 0.76161 0.30234 0.62126 0.0
N80 N 0.76 0.27405 0.59455 0.0
N81 N 0.77115 0.29599 0.59997 0.0
N82 N 0.7446 0.28428 0.62966 0.0
H83 H 0.724 0.23531 0.59413 0.0
H84 H 0.7078 0.24761 0.61753 0.0
H85 H 0.73122 0.23153 0.6279 0.0
C86 C 0.72568 0.24407 0.61275 0.0
C87 C 0.82147 0.24818 0.4837 0.0
H88 H 0.82326 0.25666 0.50248 0.0
H89 H 0.81558 0.26082 0.46887 0.0
H90 H 0.83935 0.24492 0.47854 0.0
O91 O 0.8134 0.24127 0.54605 0.0
O92 O 0.80473 0.26281 0.57693 0.0
C93 C 0.78061 0.28864 0.5187 0.0
O94 O 0.7633 0.22377 0.58585 0.0
O95 O 0.77047 0.20345 0.55323 0.0
Zn96 Zn 0.6706 0.94783 0.76134 0.0
O97 O 0.68214 0.98174 0.74224 0.0
C98 C 0.64083 0.93314 0.71403 0.0
Zn99 Zn 0.69069 0.93125 0.73345 0.0
C100 C 0.69493 0.98328 0.72265 0.0
O101 O 0.70115 0.96455 0.71483 0.0
C102 C 0.66807 0.89563 0.77272 0.0
O103 O 0.72176 0.93867 0.75868 0.0
O104 O 0.70125 0.95415 0.78602 0.0
N105 N 0.70937 0.91585 0.70807 0.0
C106 C 0.72363 0.89916 0.71144 0.0
C107 C 0.724 0.91045 0.67182 0.0
N108 N 0.70957 0.92274 0.68342 0.0
N109 N 0.73297 0.89538 0.6889 0.0
C110 C 0.63622 0.9781 0.78405 0.0
C111 C 0.64264 0.97231 0.82434 0.0
N112 N 0.65225 0.9631 0.78703 0.0
N113 N 0.65611 0.95949 0.81207 0.0
N114 N 0.62984 0.98404 0.80721 0.0
H115 H 0.64022 0.98647 0.74325 0.0
H116 H 0.6262 0.00704 0.76 0.0
H117 H 0.60998 0.9776 0.75306 0.0
C118 C 0.6279 0.98794 0.7586 0.0
C119 C 0.72937 0.88755 0.73696 0.0
H120 H 0.74861 0.88588 0.73863 0.0
H121 H 0.71834 0.86931 0.73854 0.0
H122 H 0.72524 0.89762 0.75324 0.0
O123 O 0.68008 0.89781 0.75255 0.0
O124 O 0.66057 0.91379 0.78049 0.0
C125 C 0.72087 0.94856 0.77991 0.0
O126 O 0.64003 0.9418 0.73596 0.0
O127 O 0.65973 0.92573 0.70825 0.0
Zn128 Zn 0.57679 0.81016 0.25289 0.0
O129 O 0.56832 0.77842 0.23174 0.0
C130 C 0.60853 0.83576 0.21422 0.0
Zn131 Zn 0.55618 0.82932 0.22389 0.0
C132 C 0.55613 0.77893 0.21062 0.0
O133 O 0.54976 0.79839 0.20246 0.0
C134 C 0.57618 0.86064 0.26584 0.0
O135 O 0.52364 0.81607 0.24241 0.0
O136 O 0.54482 0.79933 0.27205 0.0
N137 N 0.53882 0.84635 0.19534 0.0
C138 C 0.52169 0.86008 0.19536 0.0
C139 C 0.52812 0.85499 0.15623 0.0
N140 N 0.5429 0.84341 0.17102 0.0
N141 N 0.51465 0.86575 0.17096 0.0
C142 C 0.61058 0.77856 0.28113 0.0
C143 C 0.60032 0.77903 0.31989 0.0
N144 N 0.59407 0.79296 0.28135 0.0
N145 N 0.58787 0.79334 0.30548 0.0
N146 N 0.61484 0.7697 0.3051 0.0
H147 H 0.61158 0.77697 0.23969 0.0
H148 H 0.62148 0.75234 0.25799 0.0
H149 H 0.64026 0.78142 0.25678 0.0
C150 C 0.62136 0.77192 0.2574 0.0
C151 C 0.5112 0.86689 0.21922 0.0
H152 H 0.5164 0.8566 0.23645 0.0
H153 H 0.49132 0.86416 0.21692 0.0
H154 H 0.51806 0.88614 0.22252 0.0
O155 O 0.5627 0.86008 0.24558 0.0
O156 O 0.58456 0.84203 0.27349 0.0
C157 C 0.52466 0.80359 0.26322 0.0
O158 O 0.6086 0.82137 0.23367 0.0
O159 O 0.58895 0.84191 0.20592 0.0
Zn160 Zn 0.26506 0.78405 0.47382 0.0
O161 O 0.24024 0.75401 0.48725 0.0
C162 C 0.30306 0.76612 0.50691 0.0
Zn163 Zn 0.28314 0.75899 0.45373 0.0
C164 C 0.24116 0.73311 0.48009 0.0
O165 O 0.25757 0.73017 0.46555 0.0
C166 C 0.30768 0.80966 0.44743 0.0
O167 O 0.26109 0.76369 0.42077 0.0
O168 O 0.24269 0.7878 0.44087 0.0
N169 N 0.29944 0.73603 0.43501 0.0
C170 C 0.30953 0.73808 0.41196 0.0
C171 C 0.3168 0.70572 0.4306 0.0
N172 N 0.30366 0.71572 0.44641 0.0
N173 N 0.32057 0.71927 0.4087 0.0
C174 C 0.2261 0.8047 0.50053 0.0
C175 C 0.2467 0.83409 0.52021 0.0
N176 N 0.24896 0.80669 0.49356 0.0
N177 N 0.2617 0.82517 0.50556 0.0
N178 N 0.22424 0.8215 0.51742 0.0
H179 H 0.20846 0.78161 0.47088 0.0
H180 H 0.18849 0.79399 0.49036 0.0
H181 H 0.20321 0.77028 0.50327 0.0
C182 C 0.2054 0.78666 0.49053 0.0
C183 C 0.31019 0.75935 0.39346 0.0
H184 H 0.3007 0.77302 0.40033 0.0
H185 H 0.30128 0.7534 0.37487 0.0
H186 H 0.32911 0.76759 0.38989 0.0
O187 O 0.30918 0.78834 0.44235 0.0
O188 O 0.29031 0.81342 0.46026 0.0
C189 C 0.2451 0.77677 0.42077 0.0
O190 O 0.28785 0.78012 0.50651 0.0
O191 O 0.30474 0.75433 0.48716 0.0
Zn192 Zn 0.34931 0.62074 0.77032 0.0
O193 O 0.3598 0.65138 0.74577 0.0
C194 C 0.31366 0.6009 0.72872 0.0
Zn195 Zn 0.36396 0.59965 0.74237 0.0
C196 C 0.37198 0.65065 0.72609 0.0
O197 O 0.37761 0.63087 0.72051 0.0
C198 C 0.33955 0.56969 0.78591 0.0
O199 O 0.39578 0.60368 0.76574 0.0
O200 O 0.38278 0.62809 0.79094 0.0
N201 N 0.37792 0.57942 0.71771 0.0
C202 C 0.38538 0.55825 0.72165 0.0
C203 C 0.38756 0.56744 0.68156 0.0
N204 N 0.37942 0.5852 0.69281 0.0
N205 N 0.39133 0.55034 0.69933 0.0
C206 C 0.31995 0.65686 0.79008 0.0
C207 C 0.32265 0.65057 0.83069 0.0
N208 N 0.3346 0.64069 0.79471 0.0
N209 N 0.33642 0.63698 0.81997 0.0
N210 N 0.31229 0.66339 0.81235 0.0
H211 H 0.31666 0.65425 0.74845 0.0
H212 H 0.32012 0.68391 0.75995 0.0
H213 H 0.29191 0.66386 0.76289 0.0
C214 C 0.31168 0.66492 0.76379 0.0
C215 C 0.38761 0.54555 0.74737 0.0
H216 H 0.39098 0.55843 0.763 0.0
H217 H 0.40245 0.53514 0.74775 0.0
H218 H 0.3707 0.53278 0.75087 0.0
O219 O 0.34884 0.56842 0.76444 0.0
O220 O 0.33887 0.59017 0.79437 0.0
C221 C 0.3992 0.61696 0.78502 0.0
O222 O 0.31555 0.61137 0.74993 0.0
O223 O 0.33214 0.59539 0.7195 0.0
Zn224 Zn 0.02424 0.48544 0.52841 0.0
O225 O 0.03752 0.47235 0.49647 0.0
C226 C 0.00911 0.43602 0.55078 0.0
Zn227 Zn 0.05286 0.47255 0.55288 0.0
C228 C 0.05432 0.46017 0.49824 0.0
O229 O 0.06426 0.45644 0.52021 0.0
C230 C 0.02194 0.49871 0.58201 0.0
O231 O 0.07578 0.50428 0.54335 0.0
O232 O 0.04703 0.51891 0.52209 0.0
N233 N 0.07976 0.4621 0.57615 0.0
C234 C 0.09371 0.47409 0.59477 0.0
C235 C 0.10569 0.44087 0.59141 0.0
N236 N 0.08718 0.44142 0.57415 0.0
N237 N 0.10992 0.46105 0.60483 0.0
C238 C 0.98504 0.49116 0.48519 0.0
C239 C 0.97727 0.52516 0.49428 0.0
N240 N -0.00141 0.49845 0.50631 0.0
N241 N 0.99374 0.51956 0.51186 0.0
N242 N 0.97153 0.50775 0.47717 0.0
H243 H -0.00285 0.46996 0.4575 0.0
H244 H 0.96617 0.46035 0.46539 0.0
H245 H 0.99012 0.45429 0.48765 0.0
C246 C 0.98446 0.46749 0.47335 0.0
C247 C 0.09274 0.49925 0.60205 0.0
H248 H 0.08255 0.50892 0.58791 0.0
H249 H 0.11117 0.5098 0.60446 0.0
H250 H 0.08392 0.49852 0.62064 0.0
O251 O 0.04047 0.48894 0.58483 0.0
O252 O 0.01104 0.49873 0.5602 0.0
C253 C 0.06858 0.52154 0.53087 0.0
O254 O 0.00186 0.45165 0.53539 0.0
O255 O 0.02987 0.44062 0.56171 0.0
Zn256 Zn 0.20794 0.29689 0.94474 0.0
O257 O 0.24278 0.31605 0.9526 0.0
C258 C 0.22757 0.26624 0.90943 0.0
Zn259 Zn 0.21938 0.26537 0.96529 0.0
C260 C 0.25922 0.30619 0.96352 0.0
O261 O 0.25446 0.28429 0.97092 0.0
C262 C 0.16775 0.25628 0.94751 0.0
O263 O 0.21053 0.27684 0.00031 0.0
O264 O 0.1969 0.30725 0.98088 0.0
N265 N 0.2306 0.2363 0.98266 0.0
C266 C 0.22403 0.22232 0.00367 0.0
C267 C 0.2545 0.21088 0.98925 0.0
N268 N 0.24949 0.22912 0.97374 0.0
N269 N 0.23891 0.2063 0.00832 0.0
C270 C 0.21055 0.34245 0.90887 0.0
C271 C 0.18127 0.35777 0.92046 0.0
N272 N 0.19893 0.32713 0.92665 0.0
N273 N 0.18065 0.33662 0.9337 0.0
N274 N 0.19972 0.36169 0.90455 0.0
H275 H 0.24258 0.32622 0.90752 0.0
H276 H 0.24618 0.3571 0.8965 0.0
H277 H 0.2295 0.334 0.87704 0.0
C278 C 0.23355 0.33969 0.8971 0.0
C279 C 0.20245 0.22374 0.01863 0.0
H280 H 0.18867 0.2309 0.00627 0.0
H281 H 0.20791 0.23606 0.03461 0.0
H282 H 0.19455 0.20579 0.02685 0.0
O283 O 0.18395 0.24672 0.95964 0.0
O284 O 0.17303 0.27752 0.93788 0.0
C285 C 0.20071 0.29516 0.00146 0.0
O286 O 0.21911 0.28557 0.90914 0.0
O287 O 0.22859 0.25413 0.9304 0.0
Zn288 Zn 0.22892 0.98323 0.22957 0.0
O289 O 0.24345 0.01818 0.21519 0.0
C290 C 0.19951 0.97579 0.18148 0.0
Zn291 Zn 0.24848 0.96805 0.20038 0.0
C292 C 0.25688 0.02102 0.19605 0.0
O293 O 0.26232 0.00273 0.18624 0.0
C294 C 0.21966 0.93016 0.23299 0.0
O295 O 0.27904 0.96887 0.22661 0.0
O296 O 0.25903 0.98401 0.25464 0.0
N297 N 0.26499 0.95324 0.17292 0.0
C298 C 0.28814 0.95627 0.16656 0.0
C299 C 0.26891 0.92698 0.1456 0.0
N300 N 0.25302 0.93524 0.1596 0.0
N301 N 0.29104 0.94005 0.14942 0.0
C302 C 0.1984 0.01359 0.25766 0.0
C303 C 0.20435 0.00242 0.2968 0.0
N304 N 0.21241 -0.00326 0.25779 0.0
N305 N 0.21597 0.98974 0.28209 0.0
N306 N 0.19305 0.01737 0.28191 0.0
H307 H 0.20263 0.02608 0.21783 0.0
H308 H 0.19203 0.04645 0.23823 0.0
H309 H 0.17238 0.01967 0.2281 0.0
C310 C 0.19118 0.02729 0.23407 0.0
C311 C 0.30829 0.97328 0.17909 0.0
H312 H 0.30166 0.98765 0.18864 0.0
H313 H 0.32127 0.98168 0.16466 0.0
H314 H 0.31801 0.96308 0.1935 0.0
O315 O 0.23381 0.93318 0.21449 0.0
O316 O 0.21465 0.94838 0.24333 0.0
C317 C 0.27812 0.97727 0.24865 0.0
O318 O 0.19891 0.98269 0.20422 0.0
O319 O 0.21798 0.96818 0.17473 0.0
Zn320 Zn 0.48443 0.23439 0.78561 0.0
O321 O 0.47006 0.21051 0.75678 0.0
C322 C 0.52794 0.25158 0.75463 0.0
Zn323 Zn 0.48066 0.26496 0.75824 0.0
C324 C 0.4622 0.21812 0.73529 0.0
O325 O 0.46427 0.24058 0.73056 0.0
C326 C 0.50268 0.28132 0.8086 0.0
O327 O 0.44673 0.26484 0.77304 0.0
O328 O 0.44893 0.23266 0.79782 0.0
N329 N 0.47666 0.29267 0.73295 0.0
C330 C 0.46559 0.31161 0.73476 0.0
C331 C 0.47998 0.31408 0.69747 0.0
N332 N 0.48559 0.29423 0.70979 0.0
N333 N 0.46727 0.32517 0.71267 0.0
C334 C 0.49672 0.18545 0.80564 0.0
C335 C 0.49288 0.18609 0.84608 0.0
N336 N 0.48932 0.20613 0.81019 0.0
N337 N 0.48688 0.20646 0.83533 0.0
N338 N 0.49888 0.1725 0.8278 0.0
H339 H 0.50797 0.19434 0.76655 0.0
H340 H 0.48799 0.16625 0.77112 0.0
H341 H 0.51897 0.16913 0.78191 0.0
C342 C 0.50342 0.1786 0.77985 0.0
C343 C 0.45439 0.31752 0.75858 0.0
H344 H 0.46299 0.31037 0.77608 0.0
H345 H 0.43506 0.30927 0.75789 0.0
H346 H 0.4559 0.33722 0.75988 0.0
O347 O 0.49756 0.28892 0.78603 0.0
O348 O 0.49811 0.25896 0.81442 0.0
C349 C 0.43731 0.24874 0.78908 0.0
O350 O 0.52021 0.23699 0.77289 0.0
O351 O 0.51427 0.26491 0.74396 0.0
Zn352 Zn 0.02439 0.74933 0.74519 0.0
O353 O 0.02364 0.71769 0.72556 0.0
C354 C 0.04257 0.77818 0.69838 0.0
Zn355 Zn -0.00499 0.75778 0.71812 0.0
C356 C 0.00865 0.71149 0.70707 0.0
O357 O 0.99397 0.72517 0.69938 0.0
C358 C 0.01153 0.79555 0.75654 0.0
O359 O 0.97026 0.73884 0.74416 0.0
O360 O -0.00078 0.72999 0.77033 0.0
N361 N 0.9672 0.76629 0.69464 0.0
C362 C 0.94896 0.7774 0.69995 0.0
C363 C 0.94543 0.77036 0.66001 0.0
N364 N 0.96495 0.76189 0.66981 0.0
N365 N 0.93521 0.7804 0.6785 0.0
C366 C 0.07395 0.7382 0.7655 0.0
C367 C 0.06988 0.7358 0.80606 0.0
N368 N 0.05156 0.74169 0.76962 0.0
N369 N 0.04907 0.74015 0.79482 0.0
N370 N 0.08585 0.73467 0.78808 0.0
H371 H 0.09672 0.72449 0.74007 0.0
H372 H 0.09293 0.75502 0.73311 0.0
H373 H 0.06894 0.7308 0.72512 0.0
C374 C 0.08361 0.73691 0.73943 0.0
C375 C 0.94379 0.78419 0.72634 0.0
H376 H 0.95185 0.77369 0.74166 0.0
H377 H 0.92412 0.78157 0.72875 0.0
H378 H 0.9514 0.80339 0.72884 0.0
O379 O -0.00295 0.79041 0.73738 0.0
O380 O 0.0249 0.78082 0.76459 0.0
C381 C 0.97695 0.7284 0.76466 0.0
O382 O 0.04907 0.76889 0.71967 0.0
O383 O 0.02033 0.77596 0.69204 0.0
Zn384 Zn 0.73158 0.50503 0.29216 0.0
O385 O 0.72904 0.53017 0.26104 0.0
C386 C 0.69043 0.47208 0.26909 0.0
Zn387 Zn 0.74351 0.48036 0.26566 0.0
C388 C 0.73569 0.52613 0.23902 0.0
O389 O 0.74232 0.50634 0.23559 0.0
C390 C 0.74075 0.45969 0.31885 0.0
O391 O 0.77976 0.49572 0.27417 0.0
O392 O 0.76772 0.52039 0.29977 0.0
N393 N 0.7532 0.45827 0.23991 0.0
C394 C 0.76915 0.44322 0.24113 0.0
C395 C 0.75356 0.44272 0.20298 0.0
N396 N 0.74348 0.45784 0.21624 0.0
N397 N 0.76961 0.43316 0.2182 0.0
C398 C 0.72499 0.55115 0.31935 0.0
C399 C 0.69787 0.53668 0.34548 0.0
N400 N 0.72054 0.5271 0.3172 0.0
N401 N 0.70392 0.51816 0.33371 0.0
N402 N 0.71079 0.55769 0.3369 0.0
H403 H 0.75074 0.55894 0.28914 0.0
H404 H 0.7575 0.57687 0.31635 0.0
H405 H 0.73362 0.5823 0.29396 0.0
C406 C 0.74255 0.56816 0.30357 0.0
C407 C 0.78516 0.43945 0.26423 0.0
H408 H 0.78655 0.45408 0.27777 0.0
H409 H 0.80338 0.4381 0.25826 0.0
H410 H 0.77756 0.4224 0.27452 0.0
O411 O 0.74506 0.45477 0.29619 0.0
O412 O 0.73447 0.47962 0.32264 0.0
C413 C 0.78472 0.51252 0.28992 0.0
O414 O 0.69552 0.48889 0.28478 0.0
O415 O 0.70723 0.46528 0.25778 0.0
Zn416 Zn 0.79111 0.75236 0.01692 0.0
O417 O 0.75466 0.73847 0.02112 0.0
C418 C 0.8038 0.71231 0.04863 0.0
Zn419 Zn 0.79606 0.72322 0.99196 0.0
C420 C 0.74599 0.71884 0.01064 0.0
O421 O 0.75924 0.70884 -0.00279 0.0
C422 C 0.84151 0.75661 -4e-05 0.0
O423 O 0.78582 0.74186 0.95825 0.0
O424 O 0.78212 0.77116 0.98278 0.0
N425 N 0.79898 0.69414 0.9716 0.0
C426 C 0.80788 0.69262 0.94839 0.0
C427 C 0.7986 0.65691 0.9642 0.0
N428 N 0.79307 0.67193 0.98134 0.0
N429 N 0.80758 0.66948 0.94321 0.0
C430 C 0.77521 0.78715 0.05419 0.0
C431 C 0.79878 0.81984 0.04448 0.0
N432 N 0.78971 0.78222 0.03632 0.0
N433 N 0.80443 0.80251 0.03043 0.0
N434 N 0.78044 0.81065 0.05946 0.0
H435 H 0.76268 0.75115 0.06889 0.0
H436 H 0.73964 0.76678 0.05546 0.0
H437 H 0.75346 0.7744 0.08659 0.0
C438 C 0.75674 0.76879 0.06717 0.0
C439 C 0.81856 0.71377 0.9316 0.0
H440 H 0.82274 0.73049 0.94221 0.0
H441 H 0.80554 0.71631 0.91552 0.0
H442 H 0.83524 0.71047 0.92324 0.0
O443 O 0.83338 0.73803 0.98739 0.0
O444 O 0.82744 0.76553 0.01319 0.0
C445 C 0.78035 0.76237 0.96065 0.0
O446 O 0.79899 0.73315 0.05083 0.0
O447 O 0.80489 0.70451 0.02631 0.0
Zn448 Zn 0.48143 0.06516 0.48179 0.0
O449 O 0.50122 0.0583 0.5161 0.0
C450 C 0.51156 0.11172 0.471 0.0
Zn451 Zn 0.51134 0.06084 0.45766 0.0
C452 C 0.52243 0.0543 0.5144 0.0
O453 O 0.5314 0.05559 0.49239 0.0
C454 C 0.46925 0.06826 0.42512 0.0
O455 O 0.50026 0.02342 0.45656 0.0
O456 O 0.46976 0.02804 0.47894 0.0
N457 N 0.54117 0.05995 0.43798 0.0
C458 C 0.54503 0.04902 0.41662 0.0
C459 C 0.57915 0.06655 0.43147 0.0
N460 N 0.56235 0.071 0.44703 0.0
N461 N 0.56872 0.05302 0.41206 0.0
C462 C 0.44884 0.08092 0.52102 0.0
C463 C 0.41542 0.05736 0.51429 0.0
N464 N 0.45193 0.06667 0.50203 0.0
N465 N 0.43117 0.05204 0.49784 0.0
N466 N 0.4261 0.0756 0.52877 0.0
H467 H 0.46509 0.10101 0.55356 0.0
H468 H 0.46848 0.11678 0.52282 0.0
H469 H 0.48616 0.09402 0.53159 0.0
C470 C 0.46833 0.0991 0.53301 0.0
C471 C 0.52589 0.03321 0.40123 0.0
H472 H 0.50876 0.02902 0.4111 0.0
H473 H 0.53193 0.01623 0.39723 0.0
H474 H 0.52254 0.04254 0.38255 0.0
O475 O 0.49069 0.06492 0.4234 0.0
O476 O 0.46146 0.07048 0.44719 0.0
C477 C 0.48079 0.0145 0.46717 0.0
O478 O 0.49355 0.10274 0.48401 0.0
O479 O 0.52191 0.09814 0.45854 0.0
Zn480 Zn 0.49836 0.50931 0.061 0.0
O481 O 0.50634 0.49219 0.09623 0.0
C482 C 0.54861 0.5374 0.06082 0.0
Zn483 Zn 0.52407 0.49134 0.04187 0.0
C484 C 0.52044 0.47707 0.09731 0.0
O485 O 0.53049 0.47305 0.07709 0.0
C486 C 0.50166 0.5238 0.00567 0.0
O487 O 0.49456 0.46364 0.03374 0.0
O488 O 0.46998 0.48109 0.05427 0.0
N489 N 0.54669 0.47368 0.02407 0.0
C490 C 0.54487 0.46402 0.00076 0.0
C491 C 0.57726 0.45668 0.01946 0.0
N492 N 0.56688 0.46922 0.0356 0.0
N493 N 0.56395 0.45335 -0.00268 0.0
C494 C 0.48034 0.54286 0.09733 0.0
C495 C 0.4465 0.54674 0.07968 0.0
N496 N 0.4759 0.52752 0.07803 0.0
N497 N 0.45464 0.52965 0.06733 0.0
N498 N 0.4622 0.55509 0.09882 0.0
H499 H 0.50022 0.55247 0.13268 0.0
H500 H 0.51504 0.56434 0.10405 0.0
H501 H 0.51342 0.53302 0.11344 0.0
C502 C 0.50363 0.54825 0.11277 0.0
C503 C 0.52383 0.46397 0.98199 0.0
H504 H 0.51878 0.44626 0.97311 0.0
H505 H 0.5288 0.47791 0.96657 0.0
H506 H 0.50799 0.46815 0.99101 0.0
O507 O 0.5175 0.51048 0.00688 0.0
O508 O 0.49025 0.52589 0.02554 0.0
C509 C 0.47368 0.46374 0.04146 0.0
O510 O 0.52731 0.53802 0.06685 0.0
O511 O 0.55306 0.51894 0.05052 0.0
C512 C 0.94229 0.05356 0.10108 0.0
C513 C 0.93466 0.06107 0.07653 0.0
C514 C 0.94651 0.06972 0.12098 0.0
C515 C 0.93659 0.12897 0.14085 0.0
H516 H 0.00038 0.13371 0.17314 0.0
C517 C 0.98393 0.21413 0.19105 0.0
C518 C -0.00106 0.21167 0.21295 0.0
C519 C 0.97396 0.19416 0.1769 0.0
C520 C 0.98233 0.13242 0.16474 0.0
H521 H 0.92427 0.09048 0.05345 0.0
H522 H 0.93113 0.11875 0.08823 0.0
H523 H 0.98504 0.10077 0.14514 0.0
H524 H 0.01496 0.18619 0.2374 0.0
H525 H -0.0028 0.1513 0.21302 0.0
H526 H 0.93393 0.16075 0.16023 0.0
C527 C 0.93383 0.10048 0.09232 0.0
C528 C 0.97354 0.11349 0.14868 0.0
C529 C 0.9299 0.08441 0.07243 0.0
C530 C 0.0036 0.18874 0.22051 0.0
C531 C 0.99348 0.16873 0.20645 0.0
C532 C 0.9453 0.14781 0.15709 0.0
C533 C 0.9429 0.09354 0.11659 0.0
C534 C 0.95076 0.11181 0.13618 0.0
C535 C 0.97859 0.17118 0.1844 0.0
C536 C 0.96849 0.15006 0.16883 0.0
H537 H 0.94633 0.03567 0.10438 0.0
H538 H 0.95335 0.06386 0.13954 0.0
H539 H 0.91888 0.12798 0.13166 0.0
H540 H 0.98 0.23155 0.18468 0.0
H541 H 0.96295 0.19684 0.15977 0.0
C542 C 0.83325 0.19013 0.44525 0.0
C543 C 0.81867 0.20758 0.4461 0.0
C544 C 0.85032 0.192 0.42643 0.0
C545 C 0.86804 0.22146 0.36379 0.0
H546 H 0.93303 0.21909 0.38958 0.0
C547 C 0.95036 0.26232 0.30588 0.0
C548 C 0.97019 0.25054 0.30706 0.0
C549 C 0.9311 0.25455 0.32173 0.0
C550 C 0.91496 0.2194 0.38191 0.0
H551 H 0.80907 0.2396 0.42741 0.0
H552 H 0.83877 0.24293 0.39434 0.0
H553 H 0.89986 0.20866 0.41842 0.0
H554 H 0.98535 0.22126 0.3257 0.0
H555 H 0.95155 0.20744 0.35309 0.0
H556 H 0.88308 0.23236 0.32734 0.0
C557 C 0.83722 0.22789 0.40818 0.0
C558 C 0.89595 0.21341 0.39846 0.0
C559 C 0.8204 0.22614 0.42714 0.0
C560 C 0.97038 0.23082 0.32446 0.0
C561 C 0.95103 0.22294 0.3402 0.0
C562 C 0.88701 0.22727 0.34718 0.0
C563 C 0.85273 0.21115 0.40798 0.0
C564 C 0.87237 0.2148 0.38968 0.0
C565 C 0.93115 0.23471 0.33903 0.0
C566 C 0.91076 0.22676 0.35616 0.0
H567 H 0.83208 0.17571 0.45981 0.0
H568 H 0.86191 0.17874 0.42656 0.0
H569 H 0.84999 0.2224 0.35645 0.0
H570 H 0.9498 0.27775 0.2929 0.0
H571 H 0.91633 0.26437 0.3207 0.0
C572 C 0.71292 0.00699 0.68473 0.0
C573 C 0.70228 0.00643 0.70859 0.0
C574 C 0.71972 0.02865 0.67102 0.0
C575 C 0.73714 0.09302 0.6781 0.0
H576 H 0.7193 0.09692 0.60534 0.0
C577 C 0.75291 0.18207 0.61793 0.0
C578 C 0.7595 0.18145 0.59236 0.0
C579 C 0.74641 0.16086 0.63258 0.0
C580 C 0.72474 0.09603 0.62554 0.0
H581 H 0.69052 0.02815 0.7369 0.0
H582 H 0.70274 0.06628 0.71286 0.0
H583 H 0.70647 0.05971 0.63026 0.0
H584 H 0.76533 0.15812 0.5624 0.0
H585 H 0.7546 0.12105 0.58822 0.0
H586 H 0.75581 0.12917 0.67336 0.0
C587 C 0.70575 0.04982 0.7049 0.0
C588 C 0.71728 0.07478 0.63981 0.0
C589 C 0.69869 0.02805 0.71856 0.0
C590 C 0.76015 0.15918 0.58198 0.0
C591 C 0.75383 0.13794 0.59672 0.0
C592 C 0.74481 0.11425 0.66378 0.0
C593 C 0.71619 0.05025 0.68095 0.0
C594 C 0.72346 0.07307 0.66618 0.0
C595 C 0.74658 0.13854 0.62207 0.0
C596 C 0.73872 0.11596 0.63732 0.0
H597 H 0.71591 0.99064 0.67649 0.0
H598 H 0.72797 0.02854 0.65272 0.0
H599 H 0.74236 0.09202 0.69836 0.0
H600 H 0.75247 0.19893 0.6266 0.0
H601 H 0.74071 0.16196 0.65194 0.0
C602 C 0.88862 0.01552 0.93314 0.0
C603 C 0.91134 0.01585 0.92336 0.0
C604 C 0.86777 0.00878 0.91773 0.0
C605 C 0.82717 0.97903 0.88682 0.0
H606 H 0.82545 -0.00271 0.81411 0.0
C607 C 0.7653 0.95253 0.78869 0.0
C608 C 0.74254 0.95441 0.79703 0.0
C609 C 0.78587 0.95962 0.80438 0.0
C610 C 0.82578 0.99185 0.83433 0.0
H611 H 0.93 0.00971 0.8896 0.0
H612 H 0.89383 -0.00244 0.86304 0.0
H613 H 0.86109 0.01202 0.8409 0.0
H614 H 0.72341 0.96452 0.82866 0.0
H615 H 0.75927 0.97671 0.85602 0.0
H616 H 0.79165 0.95912 0.88019 0.0
C617 C 0.89201 0.00289 0.88242 0.0
C618 C 0.84618 0.00028 0.8497 0.0
C619 C 0.91279 0.00973 0.89774 0.0
C620 C 0.7407 0.9629 0.82163 0.0
C621 C 0.76121 0.96978 0.83738 0.0
C622 C 0.80669 0.97073 0.87147 0.0
C623 C 0.86923 0.00214 0.89225 0.0
C624 C 0.84717 0.99389 0.87611 0.0
C625 C 0.78403 0.96849 0.8288 0.0
C626 C 0.80584 0.97699 0.84506 0.0
H627 H 0.8869 0.0202 0.95279 0.0
H628 H 0.85051 0.00875 0.92578 0.0
H629 H 0.82747 0.9734 0.90698 0.0
H630 H 0.7673 0.94602 0.76985 0.0
H631 H 0.80324 0.95819 0.79742 0.0
C632 C 0.03752 0.034 0.04368 0.0
C633 C 0.03874 0.03127 0.01713 0.0
C634 C 0.0563 0.02966 0.06061 0.0
C635 C 0.10451 0.9943 0.06607 0.0
H636 H 0.12546 0.03192 0.12588 0.0
C637 C 0.18253 0.97616 0.13614 0.0
C638 C 0.18002 0.97911 0.16244 0.0
C639 C 0.16556 0.9824 0.11786 0.0
C640 C 0.1196 0.02107 0.10942 0.0
H641 H 0.06115 0.02307 0.9874 0.0
H642 H 0.09403 0.01565 0.01704 0.0
H643 H 0.09657 0.04505 0.09457 0.0
H644 H 0.15711 0.98981 0.19025 0.0
H645 H 0.12733 0.0002 0.15844 0.0
H646 H 0.12727 0.97013 0.08108 0.0
C647 C 0.07838 0.02082 0.02473 0.0
C648 C 0.10313 0.02866 0.09144 0.0
C649 C 0.05963 0.02527 0.00776 0.0
C650 C 0.15967 0.98746 0.17013 0.0
C651 C 0.1427 0.99363 0.15188 0.0
C652 C 0.12094 0.98667 0.08409 0.0
C653 C 0.07666 0.02244 0.05139 0.0
C654 C 0.09529 0.01528 0.06966 0.0
C655 C 0.1457 0.99165 0.1255 0.0
C656 C 0.12852 -0.00014 0.10608 0.0
H657 H 0.02169 0.03865 0.05151 0.0
H658 H 0.05437 0.03093 0.08105 0.0
H659 H 0.09851 0.98339 0.04968 0.0
H660 H 0.19806 0.96987 0.12958 0.0
H661 H 0.16847 0.98079 0.09768 0.0
C662 C 0.07285 0.42988 0.47626 0.0
C663 C 0.06085 0.44958 0.47482 0.0
C664 C 0.07573 0.41801 0.45395 0.0
C665 C 0.04582 0.40723 0.39044 0.0
H666 H 0.10099 0.37907 0.37611 0.0
C667 C 0.04487 0.35262 0.30063 0.0
C668 C 0.05274 0.33055 0.30465 0.0
C669 C 0.0497 0.36994 0.31929 0.0
C670 C 0.08542 0.38676 0.37991 0.0
H671 H 0.04419 0.47344 0.44877 0.0
H672 H 0.04954 0.45306 0.41013 0.0
H673 H 0.10269 0.40416 0.41332 0.0
H674 H 0.07297 0.30989 0.33082 0.0
H675 H 0.08094 0.33984 0.36348 0.0
H676 H 0.02821 0.38943 0.35772 0.0
C677 C 0.05615 0.44633 0.42842 0.0
C678 C 0.08641 0.40111 0.40121 0.0
C679 C 0.05316 0.45805 0.45059 0.0
C680 C 0.06658 0.32669 0.32713 0.0
C681 C 0.0713 0.34395 0.34583 0.0
C682 C 0.04481 0.3929 0.36928 0.0
C683 C 0.06675 0.42572 0.42991 0.0
C684 C 0.06655 0.41138 0.40676 0.0
C685 C 0.06239 0.36553 0.34244 0.0
C686 C 0.0645 0.38233 0.36382 0.0
H687 H 0.07896 0.42296 0.49467 0.0
H688 H 0.08391 0.40211 0.45573 0.0
H689 H 0.03001 0.41445 0.39446 0.0
H690 H 0.03435 0.35624 0.28342 0.0
H691 H 0.04298 0.38658 0.31585 0.0
C692 C 0.727 0.26524 0.66929 0.0
C693 C 0.72939 0.28423 0.65079 0.0
C694 C 0.7091 0.26274 0.68717 0.0
C695 C 0.66276 0.29313 0.71296 0.0
H696 H 0.62547 0.22858 0.71621 0.0
C697 C 0.56226 0.27375 0.73014 0.0
C698 C 0.55302 0.25442 0.74682 0.0
C699 C 0.58618 0.27748 0.7235 0.0
C700 C 0.63591 0.24659 0.71594 0.0
H701 H 0.71646 0.31638 0.63726 0.0
H702 H 0.68477 0.31202 0.66821 0.0
H703 H 0.66424 0.23592 0.69635 0.0
H704 H 0.56159 0.22372 0.76949 0.0
H705 H 0.60361 0.23007 0.75737 0.0
H706 H 0.63373 0.30389 0.73144 0.0
C707 C 0.6968 0.29913 0.66926 0.0
C708 C 0.65818 0.25083 0.70461 0.0
C709 C 0.71484 0.30167 0.6515 0.0
C710 C 0.56821 0.23874 0.75656 0.0
C711 C 0.59221 0.24236 0.74966 0.0
C712 C 0.64043 0.28889 0.72414 0.0
C713 C 0.69323 0.27918 0.68674 0.0
C714 C 0.67155 0.27426 0.70236 0.0
C715 C 0.60142 0.2619 0.73322 0.0
C716 C 0.62651 0.2657 0.72507 0.0
H717 H 0.73845 0.25187 0.66923 0.0
H718 H 0.70717 0.24748 0.70073 0.0
H719 H 0.67282 0.31129 0.71196 0.0
H720 H 0.55108 0.28622 0.72234 0.0
H721 H 0.59267 0.29241 0.71039 0.0
C722 C 0.67576 0.85384 0.78076 0.0
C723 C 0.66808 0.87404 0.78982 0.0
C724 C 0.68321 0.83673 0.79801 0.0
C725 C 0.68838 0.81867 0.86787 0.0
H726 H 0.74974 0.8048 0.84911 0.0
C727 C 0.75844 0.79454 0.94317 0.0
C728 C 0.7689 0.77447 0.93886 0.0
C729 C 0.74446 0.80394 0.92383 0.0
C730 C 0.7325 0.80824 0.85449 0.0
H731 H 0.6598 0.89079 0.824 0.0
H732 H 0.67307 0.8613 0.85401 0.0
H733 H 0.72548 0.82404 0.8175 0.0
H734 H 0.77375 0.74921 0.91044 0.0
H735 H 0.74963 0.76609 0.87637 0.0
H736 H 0.69611 0.80382 0.90529 0.0
C737 C 0.67326 0.85844 0.83364 0.0
C738 C 0.71845 0.81913 0.83634 0.0
C739 C 0.6656 0.87543 0.81637 0.0
C740 C 0.76597 0.7647 0.91435 0.0
C741 C 0.75213 0.77431 0.89488 0.0
C742 C 0.70256 0.80801 0.88608 0.0
C743 C 0.68329 0.83955 0.82469 0.0
C744 C 0.69641 0.82491 0.84293 0.0
C745 C 0.74079 0.79366 0.89966 0.0
C746 C 0.72496 0.80313 0.87971 0.0
H747 H 0.67758 0.8521 0.76037 0.0
H748 H 0.69015 0.822 0.79044 0.0
H749 H 0.67135 0.82246 0.87351 0.0
H750 H 0.76033 0.80254 0.96179 0.0
H751 H 0.73631 0.81917 0.92787 0.0
C752 C 0.20116 0.29054 0.04927 0.0
C753 C 0.19246 0.30093 0.02649 0.0
C754 C 0.19117 0.29284 0.07272 0.0
C755 C 0.15124 0.32523 0.10628 0.0
H756 H 0.1364 0.2648 0.14542 0.0
C757 C 0.07942 0.30672 0.1829 0.0
C758 C 0.08306 0.29169 0.20448 0.0
C759 C 0.09586 0.3108 0.16339 0.0
C760 C 0.14079 0.28195 0.13507 0.0
H761 H 0.16737 0.32303 0.01064 0.0
H762 H 0.14956 0.32681 0.05174 0.0
H763 H 0.15957 0.26707 0.10717 0.0
H764 H 0.10743 0.27006 0.22304 0.0
H765 H 0.13633 0.27743 0.18906 0.0
H766 H 0.1319 0.33992 0.13404 0.0
C767 C 0.1643 0.31705 0.05144 0.0
C768 C 0.15408 0.28326 0.11306 0.0
C769 C 0.17444 0.31485 0.02789 0.0
C770 C 0.10403 0.28161 0.2066 0.0
C771 C 0.12051 0.28573 0.18706 0.0
C772 C 0.13793 0.32393 0.12838 0.0
C773 C 0.17211 0.30546 0.07397 0.0
C774 C 0.15927 0.30483 0.09825 0.0
C775 C 0.11637 0.29999 0.16499 0.0
C776 C 0.13232 0.30218 0.14286 0.0
H777 H 0.21532 0.28003 0.0489 0.0
H778 H 0.19798 0.28418 0.08981 0.0
H779 H 0.15517 0.34217 0.09544 0.0
H780 H 0.06348 0.31481 0.18066 0.0
H781 H 0.09194 0.32164 0.14656 0.0
C782 C 0.75406 0.42236 0.33704 0.0
C783 C 0.74475 0.44322 0.34084 0.0
C784 C 0.75977 0.40785 0.35801 0.0
C785 C 0.74735 0.39243 0.42583 0.0
H786 H 0.80686 0.36764 0.4259 0.0
C787 C 0.77512 0.33118 0.5092 0.0
C788 C 0.7821 0.31018 0.50129 0.0
C789 C 0.7734 0.35023 0.49152 0.0
C790 C 0.79017 0.37439 0.42613 0.0
H791 H 0.73362 0.46493 0.3696 0.0
H792 H 0.74352 0.43948 0.40621 0.0
H793 H 0.79705 0.39476 0.39079 0.0
H794 H 0.79378 0.29322 0.46891 0.0
H795 H 0.79077 0.32622 0.43828 0.0
H796 H 0.74017 0.37158 0.46082 0.0
C797 C 0.74635 0.43437 0.387 0.0
C798 C 0.78452 0.38985 0.40601 0.0
C799 C 0.74072 0.44895 0.36602 0.0
C800 C 0.78844 0.30913 0.4757 0.0
C801 C 0.7868 0.32814 0.45811 0.0
C802 C 0.75297 0.37691 0.44594 0.0
C803 C 0.75622 0.41384 0.38321 0.0
C804 C 0.76286 0.39868 0.40542 0.0
C805 C 0.77875 0.34867 0.46566 0.0
C806 C 0.77424 0.36738 0.44606 0.0
H807 H 0.75732 0.4174 0.3179 0.0
H808 H 0.76694 0.39189 0.35449 0.0
H809 H 0.73045 0.39883 0.42579 0.0
H810 H 0.77016 0.33257 0.5288 0.0
H811 H 0.76742 0.36598 0.49795 0.0
C812 C 0.55625 0.03547 0.53374 0.0
C813 C 0.53508 0.04449 0.53697 0.0
C814 C 0.56591 0.02223 0.55363 0.0
C815 C 0.56658 0.00844 0.62332 0.0
H816 H 0.58381 0.94867 0.6041 0.0
C817 C 0.60184 0.94568 0.70003 0.0
C818 C 0.6225 0.93706 0.69372 0.0
C819 C 0.58802 0.9558 0.68096 0.0
C820 C 0.57927 0.96536 0.60981 0.0
H821 H 0.50828 0.04785 0.56424 0.0
H822 H 0.52547 0.02503 0.59917 0.0
H823 H 0.5678 0.97446 0.57138 0.0
H824 H 0.64364 0.9305 0.66211 0.0
H825 H 0.61982 0.94825 0.62903 0.0
H826 H 0.57868 -0.00019 0.66158 0.0
C827 C 0.53443 0.02807 0.58111 0.0
C828 C 0.57011 0.98016 0.59103 0.0
C829 C 0.52461 0.04117 0.5611 0.0
C830 C 0.6278 0.93688 0.66767 0.0
C831 C 0.61409 0.94714 0.64863 0.0
C832 C 0.57595 0.99375 0.64209 0.0
C833 C 0.55478 0.01788 0.57731 0.0
C834 C 0.56391 0.00198 0.59752 0.0
C835 C 0.59459 0.95761 0.65515 0.0
C836 C 0.58263 0.97211 0.63555 0.0
H837 H 0.56484 0.0377 0.51545 0.0
H838 H 0.58189 0.015 0.55031 0.0
H839 H 0.56209 0.02521 0.62887 0.0
H840 H 0.5971 0.94586 0.71988 0.0
H841 H 0.57273 0.96306 0.68661 0.0
C842 C 0.00768 0.98796 0.84761 0.0
C843 C 0.02441 0.99424 0.86799 0.0
C844 C 0.00967 0.96893 0.8323 0.0
C845 C 0.03104 0.91248 0.83953 0.0
H846 H 0.01686 0.90814 0.76615 0.0
C847 C 0.03187 0.8255 0.78777 0.0
C848 C 0.01392 0.81899 0.76852 0.0
C849 C 0.03504 0.84804 0.79833 0.0
C850 C 0.02061 0.90903 0.7867 0.0
H851 H 0.05726 0.98722 0.88729 0.0
H852 H 0.06096 0.95393 0.86042 0.0
H853 H 0.02043 0.94687 0.78611 0.0
H854 H 0.98524 0.83108 0.74522 0.0
H855 H 0.99015 0.87012 0.76435 0.0
H856 H 0.03037 0.87469 0.84053 0.0
C857 C 0.04615 0.96347 0.85645 0.0
C858 C 0.02281 0.9312 0.79805 0.0
C859 C 0.0442 0.98256 0.87163 0.0
C860 C -0.00089 0.83547 0.76014 0.0
C861 C 0.00213 0.85797 0.77089 0.0
C862 C 0.02865 0.89033 0.82827 0.0
C863 C 0.02843 0.95593 0.83727 0.0
C864 C 0.02795 0.93308 0.82459 0.0
C865 C 0.02018 0.86453 0.79006 0.0
C866 C 0.02329 0.8883 0.80176 0.0
H867 H 0.9925 -0.00293 0.84435 0.0
H868 H -0.00425 0.96348 0.81767 0.0
H869 H 0.03449 0.91331 0.86014 0.0
H870 H 0.04377 0.81332 0.79448 0.0
H871 H 0.04936 0.85264 0.81275 0.0
C872 C -0.00041 0.1116 0.93171 0.0
C873 C 0.98753 0.10235 0.95391 0.0
C874 C 0.01009 0.13574 0.92951 0.0
C875 C 0.03299 0.18775 0.92816 0.0
H876 H 0.07155 0.19919 0.99142 0.0
C877 C 0.12422 0.25401 0.93425 0.0
C878 C 0.14262 0.24351 0.94673 0.0
C879 C 0.10022 0.24258 0.93544 0.0
C880 C 0.06078 0.19642 0.97367 0.0
H881 H 0.97415 0.11172 0.98959 0.0
H882 H 0.99261 0.15409 0.98581 0.0
H883 H 0.03489 0.16954 0.99155 0.0
H884 H 0.15031 0.21269 0.9699 0.0
H885 H 0.10872 0.19277 0.97167 0.0
H886 H 0.06028 0.21327 0.90995 0.0
C887 C 0.99437 0.1425 0.97035 0.0
C888 C 0.03952 0.17966 0.97379 0.0
C889 C 0.9838 0.11824 0.97253 0.0
C890 C 0.1366 0.22129 0.96008 0.0
C891 C 0.11272 0.21 0.96138 0.0
C892 C 0.05438 0.20449 0.92804 0.0
C893 C 0.00874 0.15119 0.94948 0.0
C894 C 0.02612 0.17412 0.95074 0.0
C895 C 0.09426 0.22063 0.94932 0.0
C896 C 0.0691 0.20791 0.95053 0.0
H897 H 0.00239 0.0999 0.91675 0.0
H898 H 0.02108 0.14167 0.9132 0.0
H899 H 0.02278 0.18421 0.91019 0.0
H900 H 0.1283 0.27118 0.92387 0.0
H901 H 0.08633 0.25107 0.92586 0.0
C902 C 0.72316 0.60176 0.34151 0.0
C903 C 0.70524 0.58105 0.34094 0.0
C904 C 0.71694 0.62451 0.3422 0.0
C905 C 0.69215 0.66628 0.32011 0.0
H906 H 0.64897 0.68226 0.36929 0.0
C907 C 0.65239 0.75328 0.30711 0.0
C908 C 0.62822 0.7512 0.31299 0.0
C909 C 0.66501 0.73475 0.31427 0.0
C910 C 0.66086 0.67804 0.35524 0.0
H911 H 0.66696 0.56792 0.34306 0.0
H912 H 0.65624 0.6075 0.34531 0.0
H913 H 0.66515 0.64522 0.37572 0.0
H914 H 0.59821 0.72867 0.33103 0.0
H915 H 0.61965 0.69587 0.34264 0.0
H916 H 0.68672 0.69804 0.29858 0.0
C917 C 0.67502 0.60614 0.34454 0.0
C918 C 0.67027 0.65694 0.35911 0.0
C919 C 0.68118 0.5835 0.34326 0.0
C920 C 0.61692 0.7306 0.32647 0.0
C921 C 0.62933 0.71194 0.33327 0.0
C922 C 0.6824 0.68717 0.31595 0.0
C923 C 0.69277 0.62685 0.34331 0.0
C924 C 0.68562 0.65069 0.34132 0.0
C925 C 0.65354 0.71368 0.32718 0.0
C926 C 0.66617 0.69305 0.33316 0.0
H927 H 0.74193 0.60052 0.34127 0.0
H928 H 0.73095 0.64029 0.34167 0.0
H929 H 0.70378 0.66166 0.30599 0.0
H930 H 0.66151 0.76928 0.29713 0.0
H931 H 0.68372 0.73696 0.30965 0.0
C932 C 0.32509 0.85333 0.44508 0.0
C933 C 0.3268 0.82967 0.43987 0.0
C934 C 0.34426 0.87197 0.4405 0.0
C935 C 0.38419 0.91001 0.42127 0.0
H936 H 0.44446 0.89876 0.4541 0.0
C937 C 0.47734 0.97593 0.44453 0.0
C938 C 0.46913 0.9895 0.46301 0.0
C939 C 0.46337 0.95419 0.43708 0.0
C940 C 0.42792 0.90195 0.44432 0.0
H941 H 0.34942 0.80707 0.42449 0.0
H942 H 0.38305 0.83979 0.41666 0.0
H943 H 0.41169 0.86481 0.4468 0.0
H944 H 0.44092 0.99012 0.48958 0.0
H945 H 0.41667 0.9524 0.47639 0.0
H946 H 0.39986 0.94732 0.42064 0.0
C947 C 0.3669 0.84381 0.42442 0.0
C948 C 0.40921 0.88262 0.44008 0.0
C949 C 0.34764 0.82514 0.42887 0.0
C950 C 0.44764 0.98021 0.47514 0.0
C951 C 0.43373 0.9587 0.46761 0.0
C952 C 0.40279 0.92925 0.42563 0.0
C953 C 0.36554 0.86731 0.43067 0.0
C954 C 0.38684 0.88665 0.42954 0.0
C955 C 0.44114 0.946 0.44802 0.0
C956 C 0.42437 0.92538 0.43805 0.0
H957 H 0.30925 0.8574 0.45348 0.0
H958 H 0.34281 0.88986 0.44586 0.0
H959 H 0.36727 0.91354 0.41273 0.0
H960 H 0.49383 0.98268 0.43485 0.0
H961 H 0.46929 0.94445 0.42196 0.0
C962 C 0.1291 0.74547 0.78017 0.0
C963 C 0.11013 0.73099 0.79288 0.0
C964 C 0.15268 0.74181 0.78494 0.0
C965 C 0.19148 0.7125 0.83123 0.0
H966 H 0.23063 0.71316 0.77218 0.0
C967 C 0.27368 0.66565 0.83067 0.0
C968 C 0.29304 0.67618 0.81575 0.0
C969 C 0.25317 0.67608 0.83091 0.0
C970 C 0.22013 0.71335 0.78895 0.0
H971 H 0.10076 0.70202 0.82112 0.0
H972 H 0.14193 0.69514 0.82919 0.0
H973 H 0.19099 0.72388 0.76631 0.0
H974 H 0.30736 0.70704 0.79159 0.0
H975 H 0.27137 0.72532 0.7917 0.0
H976 H 0.22047 0.70119 0.85371 0.0
C977 C 0.13872 0.70949 0.81571 0.0
C978 C 0.19737 0.71947 0.78558 0.0
C979 C 0.11517 0.71326 0.811 0.0
C980 C 0.29231 0.69823 0.80255 0.0
C981 C 0.27178 0.70867 0.8027 0.0
C982 C 0.21425 0.70627 0.83458 0.0
C983 C 0.15775 0.72362 0.80258 0.0
C984 C 0.18262 0.71879 0.80661 0.0
C985 C 0.25172 0.69732 0.81627 0.0
C986 C 0.22868 0.70632 0.81341 0.0
H987 H 0.12572 0.75982 0.7668 0.0
H988 H 0.16697 0.75334 0.77491 0.0
H989 H 0.18074 0.7122 0.8479 0.0
H990 H 0.2739 0.64863 0.841 0.0
H991 H 0.23798 0.66681 0.84142 0.0
C992 C 0.8631 0.25331 0.55769 0.0
C993 C 0.84586 0.26056 0.57255 0.0
C994 C 0.8871 0.26456 0.55991 0.0
C995 C 0.9234 0.30882 0.54857 0.0
H996 H 0.95537 0.34175 0.60771 0.0
C997 C 0.97243 0.40561 0.54097 0.0
C998 C 0.99414 0.4122 0.55515 0.0
C999 C 0.95889 0.38266 0.54439 0.0
C1000 C 0.94696 0.33242 0.59103 0.0
H1001 H 0.84063 0.28288 0.60371 0.0
H1002 H 0.88217 0.30285 0.60714 0.0
H1003 H 0.92509 0.30567 0.61419 0.0
H1004 H 0.01869 0.4 0.58412 0.0
H1005 H -0.00513 0.35993 0.5901 0.0
H1006 H 0.94462 0.33599 0.52543 0.0
C1007 C 0.87739 0.28848 0.59385 0.0
C1008 C 0.92957 0.31185 0.59474 0.0
C1009 C 0.85345 0.27717 0.59171 0.0
C1010 C 0.00197 0.39546 0.57293 0.0
C1011 C 0.98838 0.37253 0.5764 0.0
C1012 C 0.94076 0.32931 0.54489 0.0
C1013 C 0.89415 0.28329 0.57692 0.0
C1014 C 0.91686 0.30049 0.57354 0.0
C1015 C 0.96679 0.36589 0.56206 0.0
C1016 C 0.95189 0.3419 0.56605 0.0
H1017 H 0.85784 0.24022 0.54304 0.0
H1018 H 0.89976 0.25984 0.54701 0.0
H1019 H 0.91386 0.30068 0.53178 0.0
H1020 H 0.96595 0.4181 0.52712 0.0
H1021 H 0.94204 0.37815 0.53343 0.0
C1022 C 0.33071 0.94895 0.13021 0.0
C1023 C 0.31308 0.933 0.14331 0.0
C1024 C 0.35314 0.94277 0.12681 0.0
C1025 C 0.38571 0.89099 0.13208 0.0
H1026 H 0.44137 0.94006 0.14637 0.0
C1027 C 0.47986 0.86696 0.14101 0.0
C1028 C 0.49458 0.87667 0.16179 0.0
C1029 C 0.45914 0.87594 0.13328 0.0
C1030 C 0.42602 0.92611 0.14243 0.0
H1031 H 0.30433 0.89807 0.16244 0.0
H1032 H 0.34345 0.88726 0.15707 0.0
H1033 H 0.40157 0.95073 0.14299 0.0
H1034 H 0.5006 0.90525 0.18877 0.0
H1035 H 0.46368 0.91992 0.17663 0.0
H1036 H 0.4098 0.86605 0.13331 0.0
C1037 C 0.3401 0.90434 0.14889 0.0
C1038 C 0.4032 0.93231 0.14009 0.0
C1039 C 0.31773 0.91048 0.1521 0.0
C1040 C 0.489 0.89659 0.17359 0.0
C1041 C 0.46807 0.90538 0.16614 0.0
C1042 C 0.40845 0.88475 0.13472 0.0
C1043 C 0.35824 0.92054 0.13655 0.0
C1044 C 0.38271 0.9147 0.13551 0.0
C1045 C 0.45256 0.89478 0.14627 0.0
C1046 C 0.42886 0.90212 0.14048 0.0
H1047 H 0.32721 0.96629 0.12301 0.0
H1048 H 0.36655 0.95551 0.11685 0.0
H1049 H 0.37038 0.87705 0.12806 0.0
H1050 H 0.48395 0.85184 0.13126 0.0
H1051 H 0.44802 0.86775 0.11744 0.0
C1052 C 0.38137 0.50648 0.70267 0.0
C1053 C 0.39697 0.52734 0.69473 0.0
C1054 C 0.38769 0.48405 0.70062 0.0
C1055 C 0.42983 0.45129 0.67135 0.0
H1056 H 0.41751 0.40956 0.73226 0.0
C1057 C 0.47271 0.36666 0.69474 0.0
C1058 C 0.45804 0.34677 0.70626 0.0
C1059 C 0.46429 0.38826 0.69011 0.0
C1060 C 0.42078 0.42083 0.71495 0.0
H1061 H 0.43058 0.5415 0.67716 0.0
H1062 H 0.44218 0.50203 0.67396 0.0
H1063 H 0.40462 0.44819 0.72982 0.0
H1064 H 0.42252 0.33287 0.71971 0.0
H1065 H 0.40773 0.37058 0.71187 0.0
H1066 H 0.4465 0.42384 0.65682 0.0
C1067 C 0.42495 0.50297 0.68157 0.0
C1068 C 0.41337 0.44298 0.71352 0.0
C1069 C 0.41845 0.52548 0.68345 0.0
C1070 C 0.4344 0.34829 0.7117 0.0
C1071 C 0.42596 0.3698 0.7071 0.0
C1072 C 0.43736 0.42905 0.67282 0.0
C1073 C 0.40986 0.48207 0.69075 0.0
C1074 C 0.41769 0.45844 0.69169 0.0
C1075 C 0.44099 0.39016 0.69681 0.0
C1076 C 0.43281 0.41358 0.69463 0.0
H1077 H 0.36445 0.50766 0.71087 0.0
H1078 H 0.37538 0.46827 0.70722 0.0
H1079 H 0.43329 0.46276 0.65421 0.0
H1080 H 0.49095 0.36571 0.6902 0.0
H1081 H 0.47629 0.40368 0.68224 0.0
C1082 C 0.19583 0.80016 0.5483 0.0
C1083 C 0.20535 0.82146 0.53476 0.0
C1084 C 0.17867 0.80007 0.56648 0.0
C1085 C 0.13292 0.83174 0.58771 0.0
H1086 H 0.14069 0.79392 0.65063 0.0
C1087 C 0.05544 0.79375 0.65451 0.0
C1088 C 0.06096 0.79053 0.68089 0.0
C1089 C 0.07363 0.8028 0.63762 0.0
C1090 C 0.13837 0.80494 0.63343 0.0
H1091 H 0.20498 0.85948 0.52986 0.0
H1092 H 0.17451 0.85943 0.56203 0.0
H1093 H 0.17174 0.79973 0.6194 0.0
H1094 H 0.08939 0.79612 0.71061 0.0
H1095 H 0.12096 0.81236 0.68132 0.0
H1096 H 0.09932 0.83674 0.60182 0.0
C1097 C 0.18016 0.84274 0.55814 0.0
C1098 C 0.15606 0.808 0.61537 0.0
C1099 C 0.19753 0.84282 0.53988 0.0
C1100 C 0.08468 0.79794 0.69029 0.0
C1101 C 0.10277 0.80722 0.67349 0.0
C1102 C 0.11511 0.82867 0.60587 0.0
C1103 C 0.17081 0.82136 0.57182 0.0
C1104 C 0.15326 0.82088 0.59205 0.0
C1105 C 0.09762 0.809 0.64687 0.0
C1106 C 0.11745 0.81482 0.62873 0.0
H1107 H 0.20222 0.78366 0.54539 0.0
H1108 H 0.17166 0.78327 0.57654 0.0
H1109 H 0.13033 0.84176 0.56986 0.0
H1110 H 0.03728 0.78823 0.64674 0.0
H1111 H 0.06906 0.80376 0.61721 0.0
C1112 C 0.21558 0.88548 0.23209 0.0
C1113 C 0.21027 0.9058 0.24343 0.0
C1114 C 0.20953 0.86276 0.24409 0.0
C1115 C 0.17846 0.82974 0.30049 0.0
H1116 H 0.23723 0.80371 0.30894 0.0
C1117 C 0.21475 0.79681 0.39612 0.0
C1118 C 0.23061 0.78038 0.39706 0.0
C1119 C 0.20396 0.80309 0.37275 0.0
C1120 C 0.22032 0.81009 0.30641 0.0
H1121 H 0.19262 0.91799 0.275 0.0
H1122 H 0.18279 0.8787 0.29627 0.0
H1123 H 0.23276 0.83226 0.27394 0.0
H1124 H 0.24568 0.75576 0.37477 0.0
H1125 H 0.22669 0.76666 0.33395 0.0
H1126 H 0.16691 0.80872 0.33434 0.0
C1127 C 0.19127 0.88007 0.27795 0.0
C1128 C 0.21774 0.82655 0.2862 0.0
C1129 C 0.19719 0.90272 0.2659 0.0
C1130 C 0.23385 0.7688 0.37458 0.0
C1131 C 0.22296 0.77501 0.35121 0.0
C1132 C 0.18108 0.81325 0.32079 0.0
C1133 C 0.19819 0.85997 0.26772 0.0
C1134 C 0.19738 0.83759 0.28389 0.0
C1135 C 0.20874 0.79298 0.34987 0.0
C1136 C 0.20262 0.80431 0.32476 0.0
H1137 H 0.22529 0.88724 0.21451 0.0
H1138 H 0.21476 0.84755 0.23551 0.0
H1139 H 0.16232 0.83754 0.29882 0.0
H1140 H 0.21168 0.80584 0.41317 0.0
H1141 H 0.1933 0.81717 0.37241 0.0
C1142 C 0.02545 0.67415 0.70261 0.0
C1143 C 0.00771 0.68798 0.69564 0.0
C1144 C 0.02409 0.65141 0.69293 0.0
C1145 C -0.00324 0.61389 0.63972 0.0
H1146 H 0.01616 0.56238 0.68293 0.0
C1147 C 0.99324 0.52186 0.5992 0.0
C1148 C 0.01501 0.5132 0.60222 0.0
C1149 C 0.98897 0.54017 0.61428 0.0
C1150 C 0.01069 0.57661 0.67067 0.0
H1151 H 0.97461 0.6888 0.67307 0.0
H1152 H 0.9721 0.64892 0.65635 0.0
H1153 H 0.01552 0.60114 0.70125 0.0
H1154 H 0.04832 0.51537 0.62505 0.0
H1155 H 0.04095 0.54753 0.65133 0.0
H1156 H 0.99226 0.58959 0.60909 0.0
C1157 C 0.98724 0.65581 0.66905 0.0
C1158 C 0.01041 0.59882 0.6811 0.0
C1159 C 0.98865 0.67865 0.67864 0.0
C1160 C 0.03143 0.52169 0.62222 0.0
C1161 C 0.02718 0.54012 0.6373 0.0
C1162 C -0.00307 0.5917 0.62937 0.0
C1163 C 0.00491 0.6419 0.67615 0.0
C1164 C 0.00375 0.61781 0.66563 0.0
C1165 C 0.00638 0.55025 0.63266 0.0
C1166 C 0.00415 0.5729 0.64463 0.0
H1167 H 0.04043 0.68087 0.7156 0.0
H1168 H 0.03827 0.64139 0.69838 0.0
H1169 H 0.99192 0.62821 0.62716 0.0
H1170 H 0.98006 0.51545 0.58417 0.0
H1171 H 0.97252 0.54724 0.6107 0.0
C1172 C 0.33546 0.72343 0.36467 0.0
C1173 C 0.33898 0.71822 0.39104 0.0
C1174 C 0.35506 0.72846 0.34881 0.0
C1175 C 0.41921 0.75298 0.35646 0.0
H1176 H 0.42049 0.74242 0.2836 0.0
C1177 C 0.50469 0.7809 0.30066 0.0
C1178 C 0.50272 0.79311 0.27675 0.0
C1179 C 0.48422 0.77008 0.31329 0.0
C1180 C 0.42022 0.74561 0.3039 0.0
H1181 H 0.36494 0.7108 0.42087 0.0
H1182 H 0.39901 0.71843 0.39308 0.0
H1183 H 0.38558 0.72341 0.30778 0.0
H1184 H 0.47773 0.80349 0.24722 0.0
H1185 H 0.44169 0.78452 0.26959 0.0
H1186 H 0.45366 0.77516 0.35271 0.0
C1187 C 0.38136 0.71982 0.38481 0.0
C1188 C 0.40033 0.7347 0.31774 0.0
C1189 C 0.36184 0.71515 0.40066 0.0
C1190 C 0.47978 0.79428 0.26569 0.0
C1191 C 0.4592 0.78328 0.27834 0.0
C1192 C 0.43902 0.76372 0.34273 0.0
C1193 C 0.37839 0.72787 0.35909 0.0
C1194 C 0.39969 0.73821 0.34421 0.0
C1195 C 0.46129 0.77117 0.30231 0.0
C1196 C 0.43978 0.7601 0.31637 0.0
H1197 H 0.31777 0.72481 0.3566 0.0
H1198 H 0.3521 0.73431 0.329 0.0
H1199 H 0.41901 0.7567 0.37663 0.0
H1200 H 0.52209 0.77956 0.30966 0.0
H1201 H 0.48634 0.76063 0.33161 0.0
C1202 C 0.27546 0.04695 0.15985 0.0
C1203 C 0.26275 0.04471 0.18257 0.0
C1204 C 0.27578 0.0671 0.14337 0.0
C1205 C 0.26451 0.12826 0.13414 0.0
H1206 H 0.23597 0.10631 0.06831 0.0
C1207 C 0.2358 0.19345 0.05435 0.0
C1208 C 0.23991 0.18865 0.02891 0.0
C1209 C 0.23877 0.17679 0.0744 0.0
C1210 C 0.2443 0.11283 0.08639 0.0
H1211 H 0.24267 0.06296 0.20723 0.0
H1212 H 0.24356 0.09842 0.17835 0.0
H1213 H 0.24429 0.07718 0.10173 0.0
H1214 H 0.25096 0.16311 0.0046 0.0
H1215 H 0.25696 0.13444 0.03943 0.0
H1216 H 0.26508 0.16401 0.11856 0.0
C1217 C 0.25301 0.08441 0.17331 0.0
C1218 C 0.24901 0.09612 0.10553 0.0
C1219 C 0.2525 0.06411 0.18978 0.0
C1220 C 0.24733 0.16706 0.02398 0.0
C1221 C 0.25058 0.15058 0.04396 0.0
C1222 C 0.26015 0.14511 0.11476 0.0
C1223 C 0.26365 0.08545 0.14945 0.0
C1224 C 0.25929 0.10367 0.12946 0.0
C1225 C 0.24632 0.15519 0.06944 0.0
C1226 C 0.25012 0.13755 0.09058 0.0
H1227 H 0.2838 0.03246 0.15389 0.0
H1228 H 0.28439 0.06774 0.12518 0.0
H1229 H 0.27234 0.13441 0.15256 0.0
H1230 H 0.23104 0.21034 0.05892 0.0
H1231 H 0.23524 0.18089 0.09377 0.0
C1232 C 0.81449 0.66801 0.89725 0.0
C1233 C 0.81918 0.6607 0.92278 0.0
C1234 C 0.82996 0.66502 0.87817 0.0
C1235 C 0.86523 0.6556 0.83969 0.0
H1236 H 0.92923 0.68308 0.86542 0.0
C1237 C 0.96607 0.69945 0.80179 0.0
C1238 C 0.95894 0.71401 0.7813 0.0
C1239 C 0.94898 0.68583 0.81749 0.0
C1240 C 0.91166 0.67485 0.85787 0.0
H1241 H 0.84173 0.64212 0.94817 0.0
H1242 H 0.86884 0.63652 0.91471 0.0
H1243 H 0.898 0.66904 0.89549 0.0
H1244 H 0.92832 0.72544 0.76092 0.0
H1245 H 0.89862 0.70229 0.78872 0.0
H1246 H 0.87881 0.66247 0.80193 0.0
C1247 C 0.85349 0.64496 0.90947 0.0
C1248 C 0.89371 0.66671 0.87518 0.0
C1249 C 0.83795 0.64797 0.92854 0.0
C1250 C 0.93438 0.7144 0.77657 0.0
C1251 C 0.91733 0.7009 0.79234 0.0
C1252 C 0.88325 0.66368 0.82234 0.0
C1253 C 0.85036 0.6546 0.8844 0.0
C1254 C 0.87011 0.6578 0.86626 0.0
C1255 C 0.92443 0.68661 0.8131 0.0
C1256 C 0.90644 0.6742 0.83125 0.0
H1257 H 0.79983 0.67756 0.89248 0.0
H1258 H 0.82705 0.67271 0.85908 0.0
H1259 H 0.84726 0.64855 0.83229 0.0
H1260 H 0.98485 0.69856 0.80574 0.0
H1261 H 0.95501 0.67481 0.83316 0.0
C1262 C 0.38562 0.6695 0.6838 0.0
C1263 C 0.37663 0.67172 0.70804 0.0
C1264 C 0.38513 0.68751 0.66463 0.0
C1265 C 0.34748 0.73171 0.64603 0.0
H1266 H 0.38849 0.74352 0.5877 0.0
C1267 C 0.31598 0.77583 0.55241 0.0
C1268 C 0.31802 0.76299 0.53046 0.0
C1269 C 0.3286 0.77138 0.57533 0.0
C1270 C 0.37693 0.74047 0.60392 0.0
H1271 H 0.36249 0.69565 0.73209 0.0
H1272 H 0.36206 0.72727 0.69874 0.0
H1273 H 0.4024 0.7243 0.62723 0.0
H1274 H 0.33585 0.73633 0.51495 0.0
H1275 H 0.35748 0.72826 0.55504 0.0
H1276 H 0.3216 0.74681 0.62251 0.0
C1277 C 0.36889 0.71134 0.69434 0.0
C1278 C 0.38488 0.7295 0.62653 0.0
C1279 C 0.36924 0.69326 0.71348 0.0
C1280 C 0.33379 0.74644 0.53156 0.0
C1281 C 0.34638 0.74198 0.55449 0.0
C1282 C 0.33958 0.74271 0.62351 0.0
C1283 C 0.37577 0.70816 0.66936 0.0
C1284 C 0.36988 0.72423 0.64752 0.0
C1285 C 0.34349 0.754 0.57678 0.0
C1286 C 0.35386 0.74646 0.6019 0.0
H1287 H 0.39156 0.65319 0.67903 0.0
H1288 H 0.39043 0.68436 0.6456 0.0
H1289 H 0.33526 0.72761 0.66162 0.0
H1290 H 0.30418 0.78891 0.55211 0.0
H1291 H 0.32623 0.78113 0.59211 0.0
C1292 C 0.32269 0.9819 0.25802 0.0
C1293 C 0.29948 0.9817 0.26647 0.0
C1294 C 0.34292 0.98985 0.27404 0.0
C1295 C 0.36153 0.00362 0.34201 0.0
H1296 H 0.4133 0.04933 0.31218 0.0
C1297 C 0.42769 0.06521 0.40566 0.0
C1298 C 0.45211 0.06466 0.40265 0.0
C1299 C 0.41041 0.0559 0.38704 0.0
C1300 C 0.39904 0.03647 0.32069 0.0
H1301 H 0.27926 0.98851 0.29877 0.0
H1302 H 0.31417 0.00238 0.32636 0.0
H1303 H 0.38089 0.02856 0.28419 0.0
H1304 H 0.47768 0.05588 0.3766 0.0
H1305 H 0.44734 0.03991 0.34385 0.0
H1306 H 0.37925 0.01196 0.3785 0.0
C1307 C 0.31696 -0.00369 0.30755 0.0
C1308 C 0.38058 0.02444 0.3047 0.0
C1309 C 0.29688 0.98846 0.29162 0.0
C1310 C 0.45902 0.05655 0.37953 0.0
C1311 C 0.44167 0.04734 0.36079 0.0
C1312 C 0.37978 0.01575 0.35793 0.0
C1313 C 0.34025 -0.00243 0.29882 0.0
C1314 C 0.36136 0.0082 0.31525 0.0
C1315 C 0.41714 0.04601 0.36492 0.0
C1316 C 0.39847 0.03263 0.34751 0.0
H1317 H 0.32529 0.97686 0.23873 0.0
H1318 H 0.36062 0.99034 0.26687 0.0
H1319 H 0.34732 0.99083 0.35074 0.0
H1320 H 0.42172 0.07147 0.42312 0.0
H1321 H 0.39163 0.05555 0.39043 0.0
C1322 C 0.87888 0.77147 0.97586 0.0
C1323 C 0.86655 0.76918 -0.00122 0.0
C1324 C 0.89974 0.78884 0.97329 0.0
C1325 C 0.92385 0.84073 0.96652 0.0
H1326 H 0.96315 0.86844 0.02445 0.0
C1327 C 0.95518 0.93991 0.00428 0.0
C1328 C 0.96609 0.95212 0.98264 0.0
C1329 C 0.95066 0.9148 0.00599 0.0
C1330 C 0.95246 0.8608 0.00805 0.0
H1331 H 0.86763 0.78087 0.03787 0.0
H1332 H 0.9033 0.81099 0.03345 0.0
H1333 H 0.94382 0.82627 0.02712 0.0
H1334 H 0.98159 0.94758 0.94626 0.0
H1335 H 0.97313 0.90388 0.9491 0.0
H1336 H 0.93212 0.87544 0.94773 0.0
C1337 C 0.89738 0.7997 0.01735 0.0
C1338 C 0.94138 0.83669 0.00953 0.0
C1339 C 0.87669 0.78251 0.01986 0.0
C1340 C 0.97305 0.93875 0.96317 0.0
C1341 C 0.96825 0.91372 0.96474 0.0
C1342 C 0.93529 0.86468 0.96489 0.0
C1343 C 0.90848 0.80401 0.99364 0.0
C1344 C 0.92588 0.82672 0.98931 0.0
C1345 C 0.95672 0.90152 0.98597 0.0
C1346 C 0.94878 0.8752 0.98607 0.0
H1347 H 0.8714 0.76129 0.95937 0.0
H1348 H 0.90814 0.79138 0.9549 0.0
H1349 H 0.91192 0.83388 0.95065 0.0
H1350 H 0.94971 0.94972 0.01961 0.0
H1351 H 0.94149 0.90577 0.02245 0.0
C1352 C 0.68227 0.23507 0.53667 0.0
C1353 C 0.70101 0.23636 0.51976 0.0
C1354 C 0.65838 0.23038 0.52744 0.0
C1355 C 0.62329 0.2013 0.47269 0.0
H1356 H 0.56975 0.21782 0.50718 0.0
C1357 C 0.53237 0.14908 0.44978 0.0
C1358 C 0.52237 0.1372 0.47197 0.0
C1359 C 0.54919 0.17018 0.45168 0.0
C1360 C 0.58454 0.21329 0.49719 0.0
H1361 H 0.70977 0.23589 0.47982 0.0
H1362 H 0.66818 0.22879 0.46348 0.0
H1363 H 0.61068 0.23838 0.51775 0.0
H1364 H 0.51967 0.13912 0.51307 0.0
H1365 H 0.54993 0.17558 0.51668 0.0
H1366 H 0.59763 0.17574 0.45284 0.0
C1367 C 0.67175 0.23031 0.484 0.0
C1368 C 0.60798 0.22492 0.50333 0.0
C1369 C 0.69558 0.23441 0.49331 0.0
C1370 C 0.52722 0.14808 0.49571 0.0
C1371 C 0.5445 0.169 0.49772 0.0
C1372 C 0.60002 0.18995 0.46641 0.0
C1373 C 0.65282 0.22739 0.50103 0.0
C1374 C 0.6277 0.21846 0.49172 0.0
C1375 C 0.55677 0.17928 0.47592 0.0
C1376 C 0.58042 0.19526 0.4791 0.0
H1377 H 0.68605 0.23663 0.55718 0.0
H1378 H 0.64436 0.22795 0.5412 0.0
H1379 H 0.6379 0.19537 0.4637 0.0
H1380 H 0.52859 0.14106 0.43122 0.0
H1381 H 0.55792 0.17808 0.43447 0.0
C1382 C 0.79645 0.42256 0.18671 0.0
C1383 C 0.78513 0.41773 0.21022 0.0
C1384 C 0.81289 0.40868 0.17962 0.0
C1385 C 0.83556 0.3519 0.19579 0.0
H1386 H 0.8963 0.38876 0.17411 0.0
C1387 C 0.92567 0.32223 0.21778 0.0
C1388 C 0.94342 0.32657 0.19944 0.0
C1389 C 0.90389 0.33011 0.21307 0.0
C1390 C 0.87931 0.37811 0.17957 0.0
H1391 H 0.78026 0.39339 0.24359 0.0
H1392 H 0.80959 0.36963 0.23184 0.0
H1393 H 0.86191 0.40864 0.17688 0.0
H1394 H 0.95258 0.34288 0.16202 0.0
H1395 H 0.91435 0.35716 0.1538 0.0
H1396 H 0.85345 0.32163 0.19974 0.0
C1397 C 0.80587 0.38411 0.2188 0.0
C1398 C 0.85957 0.38949 0.18117 0.0
C1399 C 0.78942 0.39797 0.22583 0.0
C1400 C 0.939 0.33909 0.17628 0.0
C1401 C 0.91722 0.34722 0.17163 0.0
C1402 C 0.85533 0.34055 0.19429 0.0
C1403 C 0.81816 0.3896 0.19586 0.0
C1404 C 0.83771 0.37668 0.1901 0.0
C1405 C 0.89954 0.34294 0.19011 0.0
C1406 C 0.87759 0.35372 0.18697 0.0
H1407 H 0.79314 0.43757 0.17424 0.0
H1408 H 0.82178 0.41314 0.16164 0.0
H1409 H 0.81881 0.34144 0.2022 0.0
H1410 H 0.92898 0.31376 0.23631 0.0
H1411 H 0.89092 0.32717 0.228 0.0
C1412 C 0.07902 0.56314 0.51137 0.0
C1413 C 0.08509 0.54456 0.52779 0.0
C1414 C 0.09514 0.58477 0.50853 0.0
C1415 C 0.1596 0.60825 0.51539 0.0
H1416 H 0.14026 0.6706 0.50881 0.0
C1417 C 0.22142 0.69069 0.4753 0.0
C1418 C 0.22295 0.71239 0.48769 0.0
C1419 C 0.20408 0.671 0.48186 0.0
C1420 C 0.14589 0.6533 0.51091 0.0
H1421 H 0.11226 0.53433 0.5549 0.0
H1422 H 0.13999 0.57203 0.55029 0.0
H1423 H 0.11023 0.63469 0.51785 0.0
H1424 H 0.20778 0.73045 0.51691 0.0
H1425 H 0.17727 0.69573 0.52849 0.0
H1426 H 0.19518 0.62667 0.50875 0.0
C1427 C 0.12312 0.56977 0.53915 0.0
C1428 C 0.12872 0.6328 0.51577 0.0
C1429 C 0.10719 0.54818 0.5418 0.0
C1430 C 0.20681 0.71402 0.50685 0.0
C1431 C 0.18938 0.69422 0.51345 0.0
C1432 C 0.17668 0.62865 0.51061 0.0
C1433 C 0.11746 0.58812 0.5222 0.0
C1434 C 0.13544 0.61008 0.51787 0.0
C1435 C 0.18797 0.67253 0.50104 0.0
C1436 C 0.16995 0.65131 0.50798 0.0
H1437 H 0.06204 0.56083 0.50044 0.0
H1438 H 0.09043 0.59858 0.49516 0.0
H1439 H 0.16527 0.59095 0.51661 0.0
H1440 H 0.23348 0.68893 0.4603 0.0
H1441 H 0.20312 0.65461 0.47168 0.0
C1442 C 0.59254 0.00085 0.80009 0.0
C1443 C 0.61476 0.00073 0.81325 0.0
C1444 C 0.57847 0.01775 0.80546 0.0
C1445 C 0.54684 0.0485 0.82862 0.0
H1446 H 0.5801 0.11389 0.8371 0.0
C1447 C 0.52728 0.14944 0.84998 0.0
C1448 C 0.50843 0.15071 0.83175 0.0
C1449 C 0.53873 0.1295 0.85155 0.0
C1450 C 0.57053 0.09566 0.83524 0.0
H1451 H 0.63913 0.0172 0.84324 0.0
H1452 H 0.61446 0.04655 0.853 0.0
H1453 H 0.60315 0.0822 0.83234 0.0
H1454 H 0.4853 0.13153 0.80245 0.0
H1455 H 0.50545 0.09677 0.80477 0.0
H1456 H 0.51417 0.06218 0.83092 0.0
C1457 C 0.60813 0.03401 0.83806 0.0
C1458 C 0.58376 0.07747 0.83249 0.0
C1459 C 0.62218 0.01713 0.83264 0.0
C1460 C 0.50016 0.1311 0.81626 0.0
C1461 C 0.51154 0.11113 0.81782 0.0
C1462 C 0.53359 0.06673 0.83134 0.0
C1463 C 0.58626 0.03474 0.82429 0.0
C1464 C 0.57209 0.05371 0.82884 0.0
C1465 C 0.53136 0.11038 0.83503 0.0
C1466 C 0.54528 0.09057 0.83439 0.0
H1467 H 0.58601 0.98786 0.78569 0.0
H1468 H 0.56176 0.01783 0.79443 0.0
H1469 H 0.5373 0.03032 0.82626 0.0
H1470 H 0.53381 0.16435 0.8622 0.0
H1471 H 0.55369 0.12927 0.8653 0.0
C1472 C 0.73604 0.56877 0.22357 0.0
C1473 C 0.73875 0.54529 0.21853 0.0
C1474 C 0.74272 0.5876 0.20555 0.0
C1475 C 0.75749 0.60091 0.13726 0.0
H1476 H 0.79575 0.65939 0.1632 0.0
C1477 C 0.8073 0.67203 0.06844 0.0
C1478 C 0.80352 0.69557 0.07133 0.0
C1479 C 0.80132 0.65441 0.08783 0.0
C1480 C 0.78498 0.64322 0.15571 0.0
H1481 H 0.74939 0.52294 0.1901 0.0
H1482 H 0.76105 0.55566 0.15885 0.0
H1483 H 0.77874 0.62717 0.19338 0.0
H1484 H 0.79236 0.71953 0.0977 0.0
H1485 H 0.78197 0.68872 0.13157 0.0
H1486 H 0.7638 0.61683 0.09964 0.0
C1487 C 0.7537 0.5596 0.17662 0.0
C1488 C 0.77511 0.62483 0.17296 0.0
C1489 C 0.74707 0.54082 0.1946 0.0
C1490 C 0.79551 0.70156 0.09487 0.0
C1491 C 0.78952 0.6839 0.11429 0.0
C1492 C 0.76739 0.61922 0.12006 0.0
C1493 C 0.75212 0.58328 0.18211 0.0
C1494 C 0.76138 0.60341 0.16391 0.0
C1495 C 0.79145 0.65995 0.11051 0.0
C1496 C 0.7814 0.6405 0.12907 0.0
H1497 H 0.72964 0.57281 0.24182 0.0
H1498 H 0.7409 0.6056 0.21015 0.0
H1499 H 0.74667 0.58481 0.12967 0.0
H1500 H 0.81362 0.66685 0.05063 0.0
H1501 H 0.80354 0.6362 0.08465 0.0
C1502 C 0.95806 0.49965 0.43184 0.0
C1503 C 0.95436 0.50819 0.45593 0.0
C1504 C 0.94172 0.5016 0.41111 0.0
C1505 C 0.87946 0.51224 0.39709 0.0
H1506 H 0.90056 0.52688 0.32747 0.0
C1507 C 0.81431 0.53689 0.31946 0.0
C1508 C 0.80952 0.5197 0.30046 0.0
C1509 C 0.83529 0.53881 0.33494 0.0
C1510 C 0.89456 0.52284 0.34687 0.0
H1511 H 0.93128 0.5262 0.47692 0.0
H1512 H 0.90343 0.53047 0.44085 0.0
H1513 H 0.93016 0.52211 0.36252 0.0
H1514 H 0.82431 0.49321 0.28062 0.0
H1515 H 0.86118 0.49681 0.30775 0.0
H1516 H 0.84406 0.51349 0.38163 0.0
C1517 C 0.9183 0.52139 0.43801 0.0
C1518 C 0.91138 0.51989 0.36688 0.0
C1519 C 0.93437 0.51914 0.45869 0.0
C1520 C 0.82741 0.5065 0.29524 0.0
C1521 C 0.84853 0.50856 0.31071 0.0
C1522 C 0.86285 0.51559 0.37729 0.0
C1523 C 0.92162 0.5125 0.41399 0.0
C1524 C 0.904 0.51473 0.39228 0.0
C1525 C 0.85193 0.52377 0.33153 0.0
C1526 C 0.87024 0.52108 0.35208 0.0
H1527 H 0.9738 0.49204 0.42877 0.0
H1528 H 0.94482 0.49453 0.39288 0.0
H1529 H 0.87297 0.50757 0.4162 0.0
H1530 H 0.80105 0.54757 0.32373 0.0
H1531 H 0.83776 0.5509 0.35073 0.0
C1532 C 0.27364 0.57585 0.73398 0.0
C1533 C 0.28994 0.5903 0.71791 0.0
C1534 C 0.2535 0.56096 0.72349 0.0
C1535 C 0.22989 0.53452 0.66061 0.0
H1536 H 0.17425 0.51035 0.7006 0.0
C1537 C 0.15306 0.46623 0.61706 0.0
C1538 C 0.1297 0.4686 0.62273 0.0
C1539 C 0.1728 0.47802 0.63149 0.0
C1540 C 0.18939 0.51709 0.68883 0.0
H1541 H 0.29756 0.60185 0.67859 0.0
H1542 H 0.26114 0.57784 0.66021 0.0
H1543 H 0.2057 0.5404 0.71806 0.0
H1544 H 0.1084 0.48191 0.65013 0.0
H1545 H 0.14228 0.5043 0.67366 0.0
H1546 H 0.21257 0.51305 0.63039 0.0
C1547 C 0.26441 0.57667 0.68082 0.0
C1548 C 0.20788 0.53416 0.69918 0.0
C1549 C 0.28508 0.59087 0.6913 0.0
C1550 C 0.1263 0.48087 0.64457 0.0
C1551 C 0.14593 0.49333 0.65845 0.0
C1552 C 0.21102 0.51815 0.64989 0.0
C1553 C 0.24878 0.56073 0.69667 0.0
C1554 C 0.2285 0.54314 0.68528 0.0
C1555 C 0.16957 0.49286 0.65154 0.0
C1556 C 0.19042 0.50912 0.6638 0.0
H1557 H 0.27739 0.57473 0.75457 0.0
H1558 H 0.24245 0.54879 0.73652 0.0
H1559 H 0.2456 0.54025 0.64937 0.0
H1560 H 0.15609 0.45639 0.6006 0.0
H1561 H 0.19058 0.47613 0.62622 0.0
C1562 C 0.65123 0.83442 0.20638 0.0
C1563 C 0.63103 0.84531 0.20146 0.0
C1564 C 0.67205 0.84233 0.19302 0.0
C1565 C 0.68877 0.87023 0.13056 0.0
H1566 H 0.75036 0.85553 0.15538 0.0
C1567 C 0.74246 0.82103 0.07147 0.0
C1568 C 0.76751 0.82423 0.07431 0.0
C1569 C 0.72971 0.83387 0.08609 0.0
C1570 C 0.73357 0.86042 0.14813 0.0
H1571 H 0.61729 0.87423 0.18028 0.0
H1572 H 0.65391 0.8884 0.15722 0.0
H1573 H 0.72106 0.86112 0.18606 0.0
H1574 H 0.79924 0.84432 0.09306 0.0
H1575 H 0.77681 0.86696 0.11919 0.0
H1576 H 0.70105 0.86894 0.09265 0.0
C1577 C 0.65346 0.87335 0.17091 0.0
C1578 C 0.71664 0.8633 0.16572 0.0
C1579 C 0.63248 0.86519 0.18406 0.0
C1580 C 0.77982 0.84139 0.09103 0.0
C1581 C 0.76704 0.85428 0.10583 0.0
C1582 C 0.7058 0.8677 0.11302 0.0
C1583 C 0.67324 0.86154 0.17467 0.0
C1584 C 0.69346 0.86651 0.15706 0.0
C1585 C 0.74181 0.85038 0.10372 0.0
C1586 C 0.72765 0.86105 0.12163 0.0
H1587 H 0.65066 0.81912 0.21979 0.0
H1588 H 0.68668 0.83245 0.1961 0.0
H1589 H 0.6712 0.87284 0.1231 0.0
H1590 H 0.73272 0.8085 0.05798 0.0
H1591 H 0.71028 0.83012 0.08424 0.0
C1592 C 0.65944 0.44552 0.24284 0.0
C1593 C 0.66515 0.46147 0.26293 0.0
C1594 C 0.63561 0.43818 0.23445 0.0
C1595 C 0.58334 0.42315 0.21941 0.0
H1596 H 0.55665 0.48118 0.20686 0.0
C1597 C 0.54272 0.44957 0.12366 0.0
C1598 C 0.52616 0.46532 0.12216 0.0
C1599 C 0.55079 0.44118 0.14751 0.0
C1600 C 0.56323 0.4645 0.2107 0.0
H1601 H 0.6503 0.48026 0.29178 0.0
H1602 H 0.60857 0.46723 0.27723 0.0
H1603 H 0.58856 0.48046 0.23919 0.0
H1604 H 0.50328 0.48277 0.14431 0.0
H1605 H 0.51747 0.4681 0.18603 0.0
H1606 H 0.5591 0.40799 0.1892 0.0
C1607 C 0.62257 0.46083 0.26761 0.0
C1608 C 0.58163 0.46408 0.22937 0.0
C1609 C 0.64646 0.46832 0.2759 0.0
C1610 C 0.51636 0.47095 0.14487 0.0
C1611 C 0.52442 0.46252 0.16876 0.0
C1612 C 0.56492 0.42362 0.20062 0.0
C1613 C 0.61696 0.44652 0.24608 0.0
C1614 C 0.5929 0.44392 0.23281 0.0
C1615 C 0.54244 0.44835 0.17035 0.0
C1616 C 0.55574 0.44482 0.19505 0.0
H1617 H 0.67342 0.43972 0.23262 0.0
H1618 H 0.63205 0.42739 0.21763 0.0
H1619 H 0.59126 0.40714 0.22211 0.0
H1620 H 0.5504 0.44468 0.10649 0.0
H1621 H 0.56488 0.43052 0.14802 0.0
C1622 C 0.45608 0.42824 0.01574 0.0
C1623 C 0.45355 0.44458 0.03441 0.0
C1624 C 0.43627 0.41162 0.00732 0.0
C1625 C 0.37058 0.40373 0.00263 0.0
H1626 H 0.37332 0.33779 0.98833 0.0
C1627 C 0.28959 0.34332 0.95657 0.0
C1628 C 0.28339 0.32028 0.96813 0.0
C1629 C 0.31187 0.35739 0.96228 0.0
C1630 C 0.37231 0.35615 0.99232 0.0
H1631 H 0.42876 0.45552 0.05994 0.0
H1632 H 0.39438 0.42625 0.04562 0.0
H1633 H 0.40935 0.36399 0.00501 0.0
H1634 H 0.29591 0.29346 0.9939 0.0
H1635 H 0.33463 0.31834 0.00442 0.0
H1636 H 0.33351 0.39588 0.99085 0.0
C1637 C 0.41147 0.42667 0.037 0.0
C1638 C 0.39294 0.37117 0.00165 0.0
C1639 C 0.43118 0.44334 0.0453 0.0
C1640 C 0.30021 0.3112 0.98476 0.0
C1641 C 0.32244 0.32537 0.99064 0.0
C1642 C 0.35002 0.38877 0.99341 0.0
C1643 C 0.41368 0.41103 0.01752 0.0
C1644 C 0.39217 0.39503 0.00713 0.0
C1645 C 0.32828 0.34878 0.97985 0.0
C1646 C 0.35061 0.3648 0.98828 0.0
H1647 H 0.47313 0.42881 0.007 0.0
H1648 H 0.43845 0.39985 0.99218 0.0
H1649 H 0.36955 0.42217 0.00625 0.0
H1650 H 0.27711 0.35065 0.94337 0.0
H1651 H 0.31609 0.37519 0.95327 0.0
C1652 C 0.08638 0.1778 0.32982 0.0
C1653 C 0.09455 0.19731 0.31298 0.0
C1654 C 0.09803 0.15808 0.33203 0.0
C1655 C 0.1539 0.1372 0.31716 0.0
H1656 H 0.1119 0.07535 0.31161 0.0
C1657 C 0.15889 0.0389 0.2792 0.0
C1658 C 0.18088 0.0353 0.29081 0.0
C1659 C 0.14809 0.05762 0.28659 0.0
C1660 C 0.12385 0.09249 0.31322 0.0
H1661 H 0.12242 0.21263 0.28704 0.0
H1662 H 0.14249 0.17786 0.29017 0.0
H1663 H 0.09463 0.11124 0.31601 0.0
H1664 H 0.20824 0.04723 0.32015 0.0
H1665 H 0.18927 0.07998 0.33339 0.0
H1666 H 0.18305 0.11857 0.31315 0.0
C1667 C 0.12705 0.17771 0.30165 0.0
C1668 C 0.114 0.11301 0.31604 0.0
C1669 C 0.11537 0.19744 0.29949 0.0
C1670 C 0.19134 0.04989 0.31084 0.0
C1671 C 0.18059 0.06865 0.31824 0.0
C1672 C 0.16376 0.11667 0.31436 0.0
C1673 C 0.11817 0.1576 0.31753 0.0
C1674 C 0.12889 0.13564 0.3175 0.0
C1675 C 0.15907 0.07296 0.30586 0.0
C1676 C 0.14879 0.09418 0.31181 0.0
H1677 H 0.07046 0.17749 0.34059 0.0
H1678 H 0.09103 0.14301 0.34473 0.0
H1679 H 0.16583 0.15437 0.31855 0.0
H1680 H 0.15021 0.02741 0.26422 0.0
H1681 H 0.13157 0.06054 0.2766 0.0
C1682 C 0.21255 0.40552 0.90322 0.0
C1683 C 0.2088 0.38373 0.8907 0.0
C1684 C 0.22513 0.42637 0.89141 0.0
C1685 C 0.24825 0.45319 0.82909 0.0
H1686 H 0.29712 0.49063 0.87274 0.0
C1687 C 0.32273 0.52568 0.78736 0.0
C1688 C 0.32722 0.54775 0.7995 0.0
C1689 C 0.30838 0.50565 0.79876 0.0
C1690 C 0.28343 0.48049 0.86035 0.0
H1691 H 0.21318 0.36687 0.85534 0.0
H1692 H 0.2356 0.40312 0.83473 0.0
H1693 H 0.26992 0.45656 0.89135 0.0
H1694 H 0.32085 0.56588 0.83354 0.0
H1695 H 0.2959 0.5309 0.85345 0.0
H1696 H 0.262 0.47703 0.79804 0.0
C1697 C 0.22895 0.40423 0.85367 0.0
C1698 C 0.26775 0.46103 0.87102 0.0
C1699 C 0.21633 0.38343 0.8655 0.0
C1700 C 0.31778 0.54912 0.82372 0.0
C1701 C 0.30353 0.52906 0.83516 0.0
C1702 C 0.26399 0.47262 0.81841 0.0
C1703 C 0.23411 0.42579 0.8668 0.0
C1704 C 0.24999 0.44712 0.85552 0.0
C1705 C 0.2983 0.50723 0.82258 0.0
C1706 C 0.28179 0.48644 0.83392 0.0
H1707 H 0.20681 0.40612 0.92265 0.0
H1708 H 0.22836 0.4428 0.90182 0.0
H1709 H 0.23461 0.44303 0.81668 0.0
H1710 H 0.32959 0.52404 0.76863 0.0
H1711 H 0.30495 0.48896 0.78879 0.0
C1712 C 0.2513 0.23953 0.8898 0.0
C1713 C 0.23981 0.25955 0.88716 0.0
C1714 C 0.26773 0.23594 0.87207 0.0
C1715 C 0.3081 0.27165 0.82502 0.0
H1716 H 0.33012 0.21091 0.82383 0.0
C1717 C 0.39502 0.22799 0.79327 0.0
C1718 C 0.41266 0.24848 0.79654 0.0
C1719 C 0.37111 0.22842 0.79839 0.0
C1720 C 0.32422 0.22805 0.82326 0.0
H1721 H 0.23451 0.29004 0.86222 0.0
H1722 H 0.26227 0.28302 0.83022 0.0
H1723 H 0.29094 0.21185 0.83913 0.0
H1724 H 0.41972 0.28533 0.8079 0.0
H1725 H 0.37873 0.28562 0.81931 0.0
H1726 H 0.34059 0.28762 0.80739 0.0
C1727 C 0.25949 0.2707 0.84677 0.0
C1728 C 0.3017 0.22865 0.83266 0.0
C1729 C 0.2433 0.27459 0.86494 0.0
C1730 C 0.40627 0.2693 0.80534 0.0
C1731 C 0.38259 0.2695 0.81142 0.0
C1732 C 0.33025 0.27094 0.8147 0.0
C1733 C 0.2728 0.25195 0.85075 0.0
C1734 C 0.29384 0.25061 0.835 0.0
C1735 C 0.3645 0.24913 0.8078 0.0
C1736 C 0.33923 0.24931 0.81486 0.0
H1737 H 0.24894 0.22742 0.90659 0.0
H1738 H 0.2776 0.22147 0.87633 0.0
H1739 H 0.30292 0.289 0.82631 0.0
H1740 H 0.3996 0.21189 0.78594 0.0
H1741 H 0.35789 0.21253 0.79464 0.0
C1742 C 0.47477 0.54517 0.97768 0.0
C1743 C 0.4968 0.53732 0.9817 0.0
C1744 C 0.47019 0.55866 0.95552 0.0
C1745 C 0.49093 0.57491 0.88946 0.0
H1746 H 0.44573 0.61831 0.89295 0.0
C1747 C 0.42655 0.63309 0.82183 0.0
C1748 C 0.42027 0.61623 0.80269 0.0
C1749 C 0.44316 0.62937 0.84172 0.0
C1750 C 0.45888 0.60683 0.89144 0.0
H1751 H 0.5315 0.53754 0.96589 0.0
H1752 H 0.52393 0.562 0.92749 0.0
H1753 H 0.46094 0.60097 0.93215 0.0
H1754 H 0.42779 0.58324 0.78821 0.0
H1755 H 0.45535 0.57599 0.82326 0.0
H1756 H 0.4896 0.58157 0.84876 0.0
C1757 C 0.50987 0.55721 0.9411 0.0
C1758 C 0.46722 0.59637 0.91408 0.0
C1759 C 0.51426 0.54323 0.96313 0.0
C1760 C 0.43221 0.59657 0.80271 0.0
C1761 C 0.44829 0.59251 0.82289 0.0
C1762 C 0.48305 0.58588 0.8668 0.0
C1763 C 0.48776 0.56515 0.93703 0.0
C1764 C 0.48241 0.57936 0.91332 0.0
C1765 C 0.45327 0.60833 0.84327 0.0
C1766 C 0.466 0.6011 0.86736 0.0
H1767 H 0.46089 0.54067 0.99158 0.0
H1768 H 0.45265 0.56367 0.95279 0.0
H1769 H 0.50273 0.56204 0.888 0.0
H1770 H 0.41787 0.64862 0.82205 0.0
H1771 H 0.44714 0.64244 0.85651 0.0
C1772 C 0.70914 0.6891 -0.00018 0.0
C1773 C 0.72165 0.7063 0.01641 0.0
C1774 C 0.68757 0.67484 0.00706 0.0
C1775 C 0.63631 0.65538 0.0254 0.0
H1776 H 0.64478 0.61567 0.08686 0.0
C1777 C 0.56096 0.58173 0.06367 0.0
C1778 C 0.56739 0.55892 0.06316 0.0
C1779 C 0.57848 0.60242 0.06182 0.0
C1780 C 0.64213 0.62688 0.06989 0.0
H1781 H 0.72122 0.72255 0.05319 0.0
H1782 H 0.68378 0.69708 0.06607 0.0
H1783 H 0.67704 0.64865 0.07452 0.0
H1784 H 0.59716 0.53979 0.06203 0.0
H1785 H 0.62789 0.57609 0.05956 0.0
H1786 H 0.60158 0.63333 0.02051 0.0
C1787 C 0.69052 0.69499 0.04738 0.0
C1788 C 0.66043 0.64572 0.06291 0.0
C1789 C 0.71181 0.7096 0.03992 0.0
C1790 C 0.59174 0.55715 0.06238 0.0
C1791 C 0.60929 0.57785 0.06108 0.0
C1792 C 0.61781 0.63687 0.03267 0.0
C1793 C 0.67849 0.67725 0.03118 0.0
C1794 C 0.65786 0.65971 0.04029 0.0
C1795 C 0.60269 0.6006 0.06005 0.0
C1796 C 0.62083 0.62215 0.05463 0.0
H1797 H 0.71637 0.68621 0.98161 0.0
H1798 H 0.67862 0.6611 0.99437 0.0
H1799 H 0.63404 0.66597 0.00786 0.0
H1800 H 0.5423 0.58362 0.06416 0.0
H1801 H 0.57307 0.61984 0.06108 0.0
C1802 C 0.9138 0.81315 0.68759 0.0
C1803 C 0.91433 0.79165 0.6755 0.0
C1804 C 0.89288 0.82296 0.6866 0.0
C1805 C 0.83781 0.82799 0.65061 0.0
H1806 H 0.81355 0.8384 0.71672 0.0
C1807 C 0.76928 0.8901 0.66727 0.0
C1808 C 0.7507 0.88104 0.6839 0.0
C1809 C 0.78756 0.87713 0.66368 0.0
C1810 C 0.82001 0.83542 0.69813 0.0
H1811 H 0.89416 0.76471 0.65099 0.0
H1812 H 0.85747 0.78242 0.64852 0.0
H1813 H 0.84951 0.82036 0.71504 0.0
H1814 H 0.73535 0.85009 0.70755 0.0
H1815 H 0.76795 0.82797 0.70237 0.0
H1816 H 0.8087 0.8439 0.63375 0.0
C1817 C 0.87315 0.79119 0.65937 0.0
C1818 C 0.84062 0.82527 0.69718 0.0
C1819 C 0.89405 0.78111 0.66075 0.0
C1820 C 0.75004 0.85811 0.69571 0.0
C1821 C 0.76851 0.84531 0.69246 0.0
C1822 C 0.8174 0.83863 0.65156 0.0
C1823 C 0.87226 0.81187 0.67284 0.0
C1824 C 0.84978 0.8216 0.67345 0.0
C1825 C 0.78764 0.85488 0.67675 0.0
C1826 C 0.80839 0.84249 0.67536 0.0
H1827 H 0.92954 0.82237 0.69792 0.0
H1828 H 0.89278 0.83924 0.69664 0.0
H1829 H 0.84463 0.82538 0.6321 0.0
H1830 H 0.77009 0.90761 0.65772 0.0
H1831 H 0.80214 0.88493 0.6515 0.0
C1832 C 0.44389 0.17646 0.72322 0.0
C1833 C 0.45022 0.20097 0.71628 0.0
C1834 C 0.4327 0.16018 0.70521 0.0
C1835 C 0.42712 0.12891 0.65928 0.0
H1836 H 0.38551 0.14705 0.60317 0.0
C1837 C 0.41675 0.11096 0.54839 0.0
C1838 C 0.41593 0.0861 0.549 0.0
C1839 C 0.41175 0.12209 0.57023 0.0
C1840 C 0.39687 0.14163 0.6189 0.0
H1841 H 0.44942 0.22776 0.68521 0.0
H1842 H 0.4307 0.19929 0.65355 0.0
H1843 H 0.39493 0.17254 0.64013 0.0
H1844 H 0.40755 0.05296 0.57162 0.0
H1845 H 0.39891 0.07244 0.61032 0.0
H1846 H 0.42982 0.09852 0.63767 0.0
C1847 C 0.43378 0.19266 0.67305 0.0
C1848 C 0.40241 0.15627 0.63995 0.0
C1849 C 0.44477 0.20896 0.69112 0.0
C1850 C 0.4082 0.07219 0.57096 0.0
C1851 C 0.4034 0.08333 0.59299 0.0
C1852 C 0.42144 0.11421 0.63836 0.0
C1853 C 0.4278 0.16804 0.67982 0.0
C1854 C 0.41837 0.15054 0.65988 0.0
C1855 C 0.40606 0.10848 0.59308 0.0
C1856 C 0.40702 0.1209 0.61752 0.0
H1857 H 0.44757 0.1698 0.74258 0.0
H1858 H 0.42806 0.14139 0.71114 0.0
H1859 H 0.43966 0.12404 0.67412 0.0
H1860 H 0.42265 0.12184 0.53146 0.0
H1861 H 0.41419 0.1415 0.56978 0.0
C1862 C 0.50817 0.29553 0.85334 0.0
C1863 C 0.51452 0.29835 0.82761 0.0
C1864 C 0.51894 0.31222 0.87117 0.0
C1865 C 0.55534 0.37417 0.87459 0.0
H1866 H 0.55598 0.35614 0.9472 0.0
C1867 C 0.56173 0.44424 0.95124 0.0
C1868 C 0.56773 0.43839 0.97691 0.0
C1869 C 0.56118 0.42762 0.93225 0.0
C1870 C 0.55662 0.3616 0.92703 0.0
H1871 H 0.53774 0.31987 0.80031 0.0
H1872 H 0.55786 0.34805 0.8316 0.0
H1873 H 0.54447 0.32552 0.91621 0.0
H1874 H 0.58148 0.41213 0.00221 0.0
H1875 H 0.58246 0.38379 0.96881 0.0
H1876 H 0.56904 0.41003 0.88532 0.0
C1877 C 0.54372 0.33384 0.83804 0.0
C1878 C 0.54935 0.34393 0.90911 0.0
C1879 C 0.53233 0.3176 0.82007 0.0
C1880 C 0.57612 0.41682 0.98265 0.0
C1881 C 0.57631 0.40043 0.96351 0.0
C1882 C 0.56338 0.39173 0.89246 0.0
C1883 C 0.53693 0.33166 0.86382 0.0
C1884 C 0.5477 0.35004 0.88267 0.0
C1885 C 0.56766 0.40507 0.93827 0.0
C1886 C 0.56325 0.38589 0.91903 0.0
H1887 H 0.49435 0.28083 0.8595 0.0
H1888 H 0.51263 0.31008 0.89054 0.0
H1889 H 0.55431 0.37987 0.85451 0.0
H1890 H 0.55659 0.46134 0.94593 0.0
H1891 H 0.55447 0.4322 0.9132 0.0
C1892 C 0.5732 0.90343 0.27148 0.0
C1893 C 0.58291 0.88309 0.27968 0.0
C1894 C 0.5798 0.92483 0.28422 0.0
C1895 C 0.60414 0.97119 0.30756 0.0
H1896 H 0.60034 0.96515 0.38171 0.0
C1897 C 0.59946 0.0293 0.40366 0.0
C1898 C 0.58089 0.04124 0.39447 0.0
C1899 C 0.60824 0.01393 0.38793 0.0
C1900 C 0.60216 0.96728 0.3611 0.0
H1901 H 0.60758 0.86932 0.30729 0.0
H1902 H 0.6191 0.9068 0.32959 0.0
H1903 H 0.59906 0.9295 0.35743 0.0
H1904 H 0.5592 0.04926 0.36096 0.0
H1905 H 0.5738 0.02178 0.33356 0.0
H1906 H 0.60598 0.00896 0.31127 0.0
C1907 C 0.60625 0.90609 0.31341 0.0
C1908 C 0.60136 0.94679 0.34716 0.0
C1909 C 0.59961 0.88464 0.30068 0.0
C1910 C 0.57294 0.03954 0.36861 0.0
C1911 C 0.58163 0.02413 0.35287 0.0
C1912 C 0.60492 0.99174 0.32153 0.0
C1913 C 0.5963 0.92635 0.30539 0.0
C1914 C 0.60147 0.94844 0.3202 0.0
C1915 C 0.59857 0.01034 0.36276 0.0
C1916 C 0.60309 0.98986 0.34836 0.0
H1917 H 0.56031 0.90282 0.25533 0.0
H1918 H 0.57145 0.93998 0.27791 0.0
H1919 H 0.60473 0.97301 0.2868 0.0
H1920 H 0.60603 0.03063 0.42351 0.0
H1921 H 0.62162 0.00387 0.3959 0.0
C1922 C 0.46126 0.58101 0.13499 0.0
C1923 C 0.46478 0.5784 0.10898 0.0
C1924 C 0.46832 0.6034 0.14588 0.0
C1925 C 0.50098 0.64667 0.16766 0.0
H1926 H 0.50231 0.70623 0.12749 0.0
C1927 C 0.55648 0.73576 0.20251 0.0
C1928 C 0.54681 0.75667 0.19715 0.0
C1929 C 0.54591 0.71424 0.19131 0.0
C1930 C 0.50184 0.68986 0.13921 0.0
H1931 H 0.47799 0.59639 0.07373 0.0
H1932 H 0.49102 0.6353 0.09252 0.0
H1933 H 0.4815 0.66898 0.11001 0.0
H1934 H 0.51853 0.77151 0.17594 0.0
H1935 H 0.49964 0.73412 0.15741 0.0
H1936 H 0.52031 0.66774 0.19739 0.0
C1937 C 0.48209 0.62062 0.10459 0.0
C1938 C 0.49015 0.66836 0.12898 0.0
C1939 C 0.47469 0.5984 0.09374 0.0
C1940 C 0.52663 0.75576 0.18019 0.0
C1941 C 0.51581 0.73425 0.16944 0.0
C1942 C 0.51228 0.66826 0.17812 0.0
C1943 C 0.47947 0.62334 0.13094 0.0
C1944 C 0.48987 0.64643 0.14289 0.0
C1945 C 0.5252 0.71315 0.17493 0.0
C1946 C 0.51309 0.69012 0.16392 0.0
H1947 H 0.45391 0.56555 0.14699 0.0
H1948 H 0.46564 0.60491 0.16612 0.0
H1949 H 0.50148 0.63014 0.17883 0.0
H1950 H 0.57206 0.73598 0.2155 0.0
H1951 H 0.55396 0.69849 0.19558 0.0
loop_
_geom_bond_atom_site_label_1
_geom_bond_atom_site_label_2
_geom_bond_distance
_geom_bond_site_symmetry_2
_ccdc_geom_bond_type
Zn0 O1 2.055 . S
Zn0 O8 2.046 1_455 S
Zn0 N16 2.036 1_455 S
Zn0 O28 2.053 1_454 S
Zn0 O30 2.066 . S
O1 Zn0 2.055 . S
O1 C4 1.259 . S
C2 O30 1.256 1_556 S
C2 O31 1.244 . S
Zn3 O5 2.046 1_546 S
Zn3 O7 2.055 1_446 S
Zn3 N9 2.036 1_545 S
Zn3 O27 2.044 1_455 S
Zn3 O31 2.053 . S
C4 O1 1.259 . S
C4 O5 1.254 1_545 S
O5 Zn3 2.046 1_564 S
O5 C4 1.254 1_565 S
C6 O27 1.280 . S
C6 O28 1.244 . S
O7 Zn3 2.055 1_664 S
O7 C29 1.259 . S
O8 Zn0 2.046 1_655 S
O8 C29 1.254 1_545 S
N9 Zn3 2.036 1_565 S
N9 C10 1.298 . S
N9 N12 1.398 . S
C10 N9 1.298 . S
C10 N13 1.367 . S
C10 C23 1.481 1_455 S
C11 N12 1.299 . S
C11 N13 1.379 . S
N12 N9 1.398 . S
N12 C11 1.299 . S
N13 C10 1.367 . S
N13 C11 1.379 . S
C14 N16 1.298 1_455 S
C14 N18 1.367 1_455 S
C14 C22 1.481 . S
C15 N17 1.299 . S
C15 N18 1.379 . S
N16 Zn0 2.036 1_655 S
N16 C14 1.298 1_655 S
N16 N17 1.398 . S
N17 C15 1.299 . S
N17 N16 1.398 . S
N18 C14 1.367 1_655 S
N18 C15 1.379 . S
H19 C22 0.980 . S
H20 C22 0.981 . S
H21 C22 0.981 . S
C22 C14 1.481 . S
C22 H19 0.980 . S
C22 H20 0.981 . S
C22 H21 0.981 . S
C23 C10 1.481 1_655 S
C23 H24 0.980 . S
C23 H25 0.981 . S
C23 H26 0.981 . S
H24 C23 0.980 . S
H25 C23 0.981 . S
H26 C23 0.981 . S
O27 Zn3 2.044 1_655 S
O27 C6 1.280 . S
O28 Zn0 2.053 1_656 S
O28 C6 1.244 . S
C29 O7 1.259 . S
C29 O8 1.254 1_565 S
O30 Zn0 2.066 . S
O30 C2 1.256 1_554 S
O31 C2 1.244 . S
O31 Zn3 2.053 . S
Zn32 O33 2.055 . S
Zn32 O40 2.046 . S
Zn32 N48 2.036 . S
Zn32 O60 2.053 . S
Zn32 O62 2.066 . S
O33 Zn32 2.055 . S
O33 C36 1.259 . S
C34 O62 1.256 . S
C34 O63 1.244 . S
Zn35 O37 2.046 . S
Zn35 O39 2.056 1_455 S
Zn35 N41 2.036 . S
Zn35 O59 2.066 . S
Zn35 O63 2.053 . S
C36 O33 1.259 . S
C36 O37 1.254 . S
O37 Zn35 2.046 . S
O37 C36 1.254 . S
C38 O59 1.256 . S
C38 O60 1.244 . S
O39 Zn35 2.056 1_655 S
O39 C61 1.260 1_655 S
O40 Zn32 2.046 . S
O40 C61 1.254 . S
N41 Zn35 2.036 . S
N41 C42 1.298 1_455 S
N41 N44 1.398 . S
C42 N41 1.298 1_655 S
C42 N45 1.367 . S
C42 C55 1.481 . S
C43 N44 1.299 1_655 S
C43 N45 1.379 . S
N44 N41 1.398 . S
N44 C43 1.299 1_455 S
N45 C42 1.367 . S
N45 C43 1.379 . S
C46 N48 1.298 . S
C46 N50 1.367 . S
C46 C54 1.481 . S
C47 N49 1.299 . S
C47 N50 1.379 . S
N48 Zn32 2.036 . S
N48 C46 1.298 . S
N48 N49 1.398 . S
N49 C47 1.299 . S
N49 N48 1.398 . S
N50 C46 1.367 . S
N50 C47 1.379 . S
H51 C54 0.980 . S
H52 C54 0.981 . S
H53 C54 0.981 . S
C54 C46 1.481 . S
C54 H51 0.980 . S
C54 H52 0.981 . S
C54 H53 0.981 . S
C55 C42 1.481 . S
C55 H56 0.980 . S
C55 H57 0.981 . S
C55 H58 0.981 . S
H56 C55 0.980 . S
H57 C55 0.981 . S
H58 C55 0.981 . S
O59 Zn35 2.066 . S
O59 C38 1.256 . S
O60 Zn32 2.053 . S
O60 C38 1.244 . S
C61 O39 1.260 1_455 S
C61 O40 1.254 . S
O62 Zn32 2.066 . S
O62 C34 1.256 . S
O63 C34 1.244 . S
O63 Zn35 2.053 . S
Zn64 O65 2.055 . S
Zn64 O72 2.046 . S
Zn64 N80 2.036 . S
Zn64 O92 2.053 . S
Zn64 O94 2.066 . S
O65 Zn64 2.055 . S
O65 C68 1.259 . S
C66 O94 1.256 . S
C66 O95 1.244 . S
Zn67 O69 2.046 . S
Zn67 O71 2.055 . S
Zn67 N73 2.036 . S
Zn67 O91 2.066 . S
Zn67 O95 2.053 . S
C68 O65 1.259 . S
C68 O69 1.254 . S
O69 Zn67 2.046 . S
O69 C68 1.254 . S
C70 O91 1.256 . S
C70 O92 1.244 . S
O71 Zn67 2.055 . S
O71 C93 1.259 . S
O72 Zn64 2.046 . S
O72 C93 1.254 . S
N73 Zn67 2.036 . S
N73 C74 1.298 . S
N73 N76 1.398 . S
C74 N73 1.298 . S
C74 N77 1.367 . S
C74 C87 1.481 . S
C75 N76 1.299 . S
C75 N77 1.379 . S
N76 N73 1.398 . S
N76 C75 1.299 . S
N77 C74 1.367 . S
N77 C75 1.379 . S
C78 N80 1.298 . S
C78 N82 1.367 . S
C78 C86 1.481 . S
C79 N81 1.299 . S
C79 N82 1.379 . S
N80 Zn64 2.036 . S
N80 C78 1.298 . S
N80 N81 1.398 . S
N81 C79 1.299 . S
N81 N80 1.398 . S
N82 C78 1.367 . S
N82 C79 1.379 . S
H83 C86 0.980 . S
H84 C86 0.981 . S
H85 C86 0.981 . S
C86 C78 1.481 . S
C86 H83 0.980 . S
C86 H84 0.981 . S
C86 H85 0.981 . S
C87 C74 1.481 . S
C87 H88 0.980 . S
C87 H89 0.981 . S
C87 H90 0.981 . S
H88 C87 0.980 . S
H89 C87 0.981 . S
H90 C87 0.981 . S
O91 Zn67 2.066 . S
O91 C70 1.256 . S
O92 Zn64 2.053 . S
O92 C70 1.244 . S
C93 O71 1.259 . S
C93 O72 1.254 . S
O94 Zn64 2.066 . S
O94 C66 1.256 . S
O95 C66 1.244 . S
O95 Zn67 2.053 . S
Zn96 O97 2.055 . S
Zn96 O104 2.046 . S
Zn96 N112 2.036 . S
Zn96 O124 2.053 . S
Zn96 O126 2.066 . S
O97 Zn96 2.055 . S
O97 C100 1.259 . S
C98 O126 1.256 . S
C98 O127 1.240 1_545 S
Zn99 O101 2.046 . S
Zn99 O103 2.055 . S
Zn99 N105 2.036 1_545 S
Zn99 O123 2.066 1_545 S
Zn99 O127 2.053 1_545 S
C100 O97 1.259 . S
C100 O101 1.254 . S
O101 Zn99 2.046 . S
O101 C100 1.254 . S
C102 O123 1.256 . S
C102 O124 1.244 1_565 S
O103 Zn99 2.055 . S
O103 C125 1.259 . S
O104 Zn96 2.046 . S
O104 C125 1.254 . S
N105 Zn99 2.036 1_565 S
N105 C106 1.298 . S
N105 N108 1.398 . S
C106 N105 1.298 . S
C106 N109 1.367 . S
C106 C119 1.481 . S
C107 N108 1.299 . S
C107 N109 1.379 . S
N108 N105 1.398 . S
N108 C107 1.299 . S
N109 C106 1.367 . S
N109 C107 1.379 . S
C110 N112 1.298 . S
C110 N114 1.367 . S
C110 C118 1.481 . S
C111 N113 1.299 . S
C111 N114 1.379 . S
N112 Zn96 2.036 . S
N112 C110 1.298 . S
N112 N113 1.398 . S
N113 C111 1.299 . S
N113 N112 1.398 . S
N114 C110 1.367 . S
N114 C111 1.379 . S
H115 C118 0.980 . S
H116 C118 0.981 . S
H117 C118 0.981 . S
C118 C110 1.481 . S
C118 H115 0.980 . S
C118 H116 0.981 . S
C118 H117 0.981 . S
C119 C106 1.481 . S
C119 H120 0.980 . S
C119 H121 0.981 . S
C119 H122 0.981 . S
H120 C119 0.980 . S
H121 C119 0.981 . S
H122 C119 0.981 . S
O123 Zn99 2.066 1_565 S
O123 C102 1.256 . S
O124 Zn96 2.053 . S
O124 C102 1.244 1_545 S
C125 O103 1.259 . S
C125 O104 1.254 . S
O126 Zn96 2.066 . S
O126 C98 1.256 . S
O127 C98 1.240 1_565 S
O127 Zn99 2.053 1_565 S
Zn128 O129 2.055 . S
Zn128 O136 2.046 . S
Zn128 N144 2.036 . S
Zn128 O156 2.053 . S
Zn128 O158 2.066 . S
O129 Zn128 2.055 . S
O129 C132 1.259 . S
C130 O158 1.256 . S
C130 O159 1.244 . S
Zn131 O133 2.046 . S
Zn131 O135 2.055 . S
Zn131 N137 2.036 . S
Zn131 O155 2.066 . S
Zn131 O159 2.053 . S
C132 O129 1.259 . S
C132 O133 1.254 . S
O133 Zn131 2.046 . S
O133 C132 1.254 . S
C134 O155 1.256 . S
C134 O156 1.244 . S
O135 Zn131 2.055 . S
O135 C157 1.259 . S
O136 Zn128 2.046 . S
O136 C157 1.254 . S
N137 Zn131 2.036 . S
N137 C138 1.298 . S
N137 N140 1.398 . S
C138 N137 1.298 . S
C138 N141 1.367 . S
C138 C151 1.481 . S
C139 N140 1.299 . S
C139 N141 1.379 . S
N140 N137 1.398 . S
N140 C139 1.299 . S
N141 C138 1.367 . S
N141 C139 1.379 . S
C142 N144 1.298 . S
C142 N146 1.367 . S
C142 C150 1.481 . S
C143 N145 1.299 . S
C143 N146 1.379 . S
N144 Zn128 2.036 . S
N144 C142 1.298 . S
N144 N145 1.398 . S
N145 C143 1.299 . S
N145 N144 1.398 . S
N146 C142 1.367 . S
N146 C143 1.379 . S
H147 C150 0.980 . S
H148 C150 0.981 . S
H149 C150 0.981 . S
C150 C142 1.481 . S
C150 H147 0.980 . S
C150 H148 0.981 . S
C150 H149 0.981 . S
C151 C138 1.481 . S
C151 H152 0.980 . S
C151 H153 0.981 . S
C151 H154 0.981 . S
H152 C151 0.980 . S
H153 C151 0.981 . S
H154 C151 0.981 . S
O155 Zn131 2.066 . S
O155 C134 1.256 . S
O156 Zn128 2.053 . S
O156 C134 1.244 . S
C157 O135 1.259 . S
C157 O136 1.254 . S
O158 Zn128 2.066 . S
O158 C130 1.256 . S
O159 C130 1.244 . S
O159 Zn131 2.053 . S
Zn160 O161 2.055 . S
Zn160 O168 2.046 . S
Zn160 N176 2.036 . S
Zn160 O188 2.053 . S
Zn160 O190 2.066 . S
O161 Zn160 2.055 . S
O161 C164 1.259 . S
C162 O190 1.256 . S
C162 O191 1.244 . S
Zn163 O165 2.046 . S
Zn163 O167 2.055 . S
Zn163 N169 2.036 . S
Zn163 O187 2.066 . S
Zn163 O191 2.053 . S
C164 O161 1.259 . S
C164 O165 1.254 . S
O165 Zn163 2.046 . S
O165 C164 1.254 . S
C166 O187 1.256 . S
C166 O188 1.244 . S
O167 Zn163 2.055 . S
O167 C189 1.259 . S
O168 Zn160 2.046 . S
O168 C189 1.254 . S
N169 Zn163 2.036 . S
N169 C170 1.298 . S
N169 N172 1.398 . S
C170 N169 1.298 . S
C170 N173 1.367 . S
C170 C183 1.481 . S
C171 N172 1.299 . S
C171 N173 1.379 . S
N172 N169 1.398 . S
N172 C171 1.299 . S
N173 C170 1.367 . S
N173 C171 1.379 . S
C174 N176 1.298 . S
C174 N178 1.367 . S
C174 C182 1.481 . S
C175 N177 1.299 . S
C175 N178 1.379 . S
N176 Zn160 2.036 . S
N176 C174 1.298 . S
N176 N177 1.398 . S
N177 C175 1.299 . S
N177 N176 1.398 . S
N178 C174 1.367 . S
N178 C175 1.379 . S
H179 C182 0.980 . S
H180 C182 0.981 . S
H181 C182 0.981 . S
C182 C174 1.481 . S
C182 H179 0.980 . S
C182 H180 0.981 . S
C182 H181 0.981 . S
C183 C170 1.481 . S
C183 H184 0.980 . S
C183 H185 0.981 . S
C183 H186 0.981 . S
H184 C183 0.980 . S
H185 C183 0.981 . S
H186 C183 0.981 . S
O187 Zn163 2.066 . S
O187 C166 1.256 . S
O188 Zn160 2.053 . S
O188 C166 1.244 . S
C189 O167 1.259 . S
C189 O168 1.254 . S
O190 Zn160 2.066 . S
O190 C162 1.256 . S
O191 C162 1.244 . S
O191 Zn163 2.053 . S
Zn192 O193 2.055 . S
Zn192 O200 2.046 . S
Zn192 N208 2.036 . S
Zn192 O220 2.053 . S
Zn192 O222 2.066 . S
O193 Zn192 2.055 . S
O193 C196 1.259 . S
C194 O222 1.256 . S
C194 O223 1.244 . S
Zn195 O197 2.046 . S
Zn195 O199 2.055 . S
Zn195 N201 2.036 . S
Zn195 O219 2.066 . S
Zn195 O223 2.053 . S
C196 O193 1.259 . S
C196 O197 1.254 . S
O197 Zn195 2.046 . S
O197 C196 1.254 . S
C198 O219 1.256 . S
C198 O220 1.244 . S
O199 Zn195 2.055 . S
O199 C221 1.259 . S
O200 Zn192 2.046 . S
O200 C221 1.254 . S
N201 Zn195 2.036 . S
N201 C202 1.298 . S
N201 N204 1.398 . S
C202 N201 1.298 . S
C202 N205 1.367 . S
C202 C215 1.481 . S
C203 N204 1.299 . S
C203 N205 1.379 . S
N204 N201 1.398 . S
N204 C203 1.299 . S
N205 C202 1.367 . S
N205 C203 1.379 . S
C206 N208 1.298 . S
C206 N210 1.367 . S
C206 C214 1.481 . S
C207 N209 1.299 . S
C207 N210 1.379 . S
N208 Zn192 2.036 . S
N208 C206 1.298 . S
N208 N209 1.398 . S
N209 C207 1.299 . S
N209 N208 1.398 . S
N210 C206 1.367 . S
N210 C207 1.379 . S
H211 C214 0.980 . S
H212 C214 0.981 . S
H213 C214 0.981 . S
C214 C206 1.481 . S
C214 H211 0.980 . S
C214 H212 0.981 . S
C214 H213 0.981 . S
C215 C202 1.481 . S
C215 H216 0.980 . S
C215 H217 0.981 . S
C215 H218 0.981 . S
H216 C215 0.980 . S
H217 C215 0.981 . S
H218 C215 0.981 . S
O219 Zn195 2.066 . S
O219 C198 1.256 . S
O220 Zn192 2.053 . S
O220 C198 1.244 . S
C221 O199 1.259 . S
C221 O200 1.254 . S
O222 Zn192 2.066 . S
O222 C194 1.256 . S
O223 C194 1.244 . S
O223 Zn195 2.053 . S
Zn224 O225 2.040 1_655 S
Zn224 O232 2.024 1_655 S
Zn224 N240 2.059 . S
Zn224 O252 2.058 . S
Zn224 O254 2.083 . S
O225 Zn224 2.040 1_455 S
O225 C228 1.259 . S
C226 O254 1.256 . S
C226 O255 1.244 1_655 S
Zn227 O229 2.046 . S
Zn227 O231 2.055 . S
Zn227 N233 2.036 . S
Zn227 O251 2.066 . S
Zn227 O255 2.053 . S
C228 O225 1.259 . S
C228 O229 1.254 . S
O229 Zn227 2.046 . S
O229 C228 1.254 . S
C230 O251 1.256 . S
C230 O252 1.244 1_455 S
O231 Zn227 2.055 . S
O231 C253 1.259 . S
O232 Zn224 2.024 1_455 S
O232 C253 1.254 . S
N233 Zn227 2.036 . S
N233 C234 1.298 . S
N233 N236 1.398 . S
C234 N233 1.298 . S
C234 N237 1.367 . S
C234 C247 1.481 . S
C235 N236 1.299 . S
C235 N237 1.379 . S
N236 N233 1.398 . S
N236 C235 1.299 . S
N237 C234 1.367 . S
N237 C235 1.379 . S
C238 N240 1.298 . S
C238 N242 1.367 . S
C238 C246 1.481 . S
C239 N241 1.299 . S
C239 N242 1.379 . S
N240 Zn224 2.059 . S
N240 C238 1.298 . S
N240 N241 1.398 . S
N241 C239 1.299 . S
N241 N240 1.398 . S
N242 C238 1.367 . S
N242 C239 1.379 . S
H243 C246 0.980 . S
H244 C246 0.981 . S
H245 C246 0.981 . S
C246 C238 1.481 . S
C246 H243 0.980 . S
C246 H244 0.981 . S
C246 H245 0.981 . S
C247 C234 1.481 . S
C247 H248 0.980 . S
C247 H249 0.981 . S
C247 H250 0.981 . S
H248 C247 0.980 . S
H249 C247 0.981 . S
H250 C247 0.981 . S
O251 Zn227 2.066 . S
O251 C230 1.256 . S
O252 Zn224 2.058 . S
O252 C230 1.244 1_655 S
C253 O231 1.259 . S
C253 O232 1.254 . S
O254 Zn224 2.083 . S
O254 C226 1.256 . S
O255 C226 1.244 1_455 S
O255 Zn227 2.053 . S
Zn256 O257 2.055 1_556 S
Zn256 O264 2.046 1_556 S
Zn256 N272 2.036 . S
Zn256 O284 2.053 . S
Zn256 O286 2.066 . S
O257 Zn256 2.055 1_554 S
O257 C260 1.259 . S
C258 O286 1.256 . S
C258 O287 1.244 . S
Zn259 O261 2.046 . S
Zn259 O263 2.055 . S
Zn259 N265 2.036 . S
Zn259 O283 2.066 . S
Zn259 O287 2.053 1_554 S
C260 O257 1.259 . S
C260 O261 1.254 . S
O261 Zn259 2.046 . S
O261 C260 1.254 . S
C262 O283 1.256 1_556 S
C262 O284 1.244 . S
O263 Zn259 2.055 . S
O263 C285 1.259 . S
O264 Zn256 2.046 1_554 S
O264 C285 1.254 . S
N265 Zn259 2.036 . S
N265 C266 1.298 . S
N265 N268 1.398 . S
C266 N265 1.298 . S
C266 N269 1.367 . S
C266 C279 1.481 . S
C267 N268 1.299 . S
C267 N269 1.379 . S
N268 N265 1.398 . S
N268 C267 1.299 . S
N269 C266 1.367 . S
N269 C267 1.379 . S
C270 N272 1.298 . S
C270 N274 1.367 . S
C270 C278 1.481 . S
C271 N273 1.299 . S
C271 N274 1.379 . S
N272 Zn256 2.036 . S
N272 C270 1.298 . S
N272 N273 1.398 . S
N273 C271 1.299 . S
N273 N272 1.398 . S
N274 C270 1.367 . S
N274 C271 1.379 . S
H275 C278 0.980 . S
H276 C278 0.981 . S
H277 C278 0.981 . S
C278 C270 1.481 . S
C278 H275 0.980 . S
C278 H276 0.981 . S
C278 H277 0.981 . S
C279 C266 1.481 . S
C279 H280 0.980 . S
C279 H281 0.981 . S
C279 H282 0.981 . S
H280 C279 0.980 . S
H281 C279 0.981 . S
H282 C279 0.981 . S
O283 Zn259 2.066 . S
O283 C262 1.256 1_554 S
O284 Zn256 2.053 . S
O284 C262 1.244 . S
C285 O263 1.259 . S
C285 O264 1.254 . S
O286 Zn256 2.066 . S
O286 C258 1.256 . S
O287 C258 1.244 . S
O287 Zn259 2.053 1_556 S
Zn288 O289 2.055 . S
Zn288 O296 2.046 . S
Zn288 N304 2.036 . S
Zn288 O316 2.053 1_545 S
Zn288 O318 2.066 . S
O289 Zn288 2.055 . S
O289 C292 1.259 . S
C290 O318 1.256 1_565 S
C290 O319 1.244 . S
Zn291 O293 2.046 1_565 S
Zn291 O295 2.055 1_565 S
Zn291 N297 2.036 . S
Zn291 O315 2.066 . S
Zn291 O319 2.053 . S
C292 O289 1.259 . S
C292 O293 1.254 . S
O293 Zn291 2.046 1_545 S
O293 C292 1.254 . S
C294 O315 1.256 . S
C294 O316 1.244 . S
O295 Zn291 2.055 1_545 S
O295 C317 1.259 . S
O296 Zn288 2.046 . S
O296 C317 1.254 . S
N297 Zn291 2.036 . S
N297 C298 1.298 . S
N297 N300 1.398 . S
C298 N297 1.298 . S
C298 N301 1.367 . S
C298 C311 1.481 . S
C299 N300 1.299 . S
C299 N301 1.379 . S
N300 N297 1.398 . S
N300 C299 1.299 . S
N301 C298 1.367 . S
N301 C299 1.379 . S
C302 N304 1.298 . S
C302 N306 1.367 . S
C302 C310 1.481 . S
C303 N305 1.299 . S
C303 N306 1.379 . S
N304 Zn288 2.036 . S
N304 C302 1.298 . S
N304 N305 1.398 . S
N305 C303 1.299 . S
N305 N304 1.398 . S
N306 C302 1.367 . S
N306 C303 1.379 . S
H307 C310 0.980 . S
H308 C310 0.981 . S
H309 C310 0.981 . S
C310 C302 1.481 . S
C310 H307 0.980 . S
C310 H308 0.981 . S
C310 H309 0.981 . S
C311 C298 1.481 . S
C311 H312 0.980 . S
C311 H313 0.981 . S
C311 H314 0.981 . S
H312 C311 0.980 . S
H313 C311 0.981 . S
H314 C311 0.981 . S
O315 Zn291 2.066 . S
O315 C294 1.256 . S
O316 Zn288 2.053 1_565 S
O316 C294 1.244 . S
C317 O295 1.259 . S
C317 O296 1.254 . S
O318 Zn288 2.066 . S
O318 C290 1.256 1_545 S
O319 C290 1.244 . S
O319 Zn291 2.053 . S
Zn320 O321 2.055 . S
Zn320 O328 2.046 . S
Zn320 N336 2.036 . S
Zn320 O348 2.053 . S
Zn320 O350 2.066 . S
O321 Zn320 2.055 . S
O321 C324 1.259 . S
C322 O350 1.256 . S
C322 O351 1.244 . S
Zn323 O325 2.046 . S
Zn323 O327 2.055 . S
Zn323 N329 2.036 . S
Zn323 O347 2.066 . S
Zn323 O351 2.053 . S
C324 O321 1.259 . S
C324 O325 1.254 . S
O325 Zn323 2.046 . S
O325 C324 1.254 . S
C326 O347 1.256 . S
C326 O348 1.244 . S
O327 Zn323 2.055 . S
O327 C349 1.259 . S
O328 Zn320 2.046 . S
O328 C349 1.254 . S
N329 Zn323 2.036 . S
N329 C330 1.298 . S
N329 N332 1.398 . S
C330 N329 1.298 . S
C330 N333 1.367 . S
C330 C343 1.481 . S
C331 N332 1.299 . S
C331 N333 1.379 . S
N332 N329 1.398 . S
N332 C331 1.299 . S
N333 C330 1.367 . S
N333 C331 1.379 . S
C334 N336 1.298 . S
C334 N338 1.367 . S
C334 C342 1.481 . S
C335 N337 1.299 . S
C335 N338 1.379 . S
N336 Zn320 2.036 . S
N336 C334 1.298 . S
N336 N337 1.398 . S
N337 C335 1.299 . S
N337 N336 1.398 . S
N338 C334 1.367 . S
N338 C335 1.379 . S
H339 C342 0.980 . S
H340 C342 0.981 . S
H341 C342 0.981 . S
C342 C334 1.481 . S
C342 H339 0.980 . S
C342 H340 0.981 . S
C342 H341 0.981 . S
C343 C330 1.481 . S
C343 H344 0.980 . S
C343 H345 0.981 . S
C343 H346 0.981 . S
H344 C343 0.980 . S
H345 C343 0.981 . S
H346 C343 0.981 . S
O347 Zn323 2.066 . S
O347 C326 1.256 . S
O348 Zn320 2.053 . S
O348 C326 1.244 . S
C349 O327 1.259 . S
C349 O328 1.254 . S
O350 Zn320 2.066 . S
O350 C322 1.256 . S
O351 C322 1.244 . S
O351 Zn323 2.053 . S
Zn352 O353 2.055 . S
Zn352 O360 2.046 1_455 S
Zn352 N368 2.036 . S
Zn352 O380 2.053 . S
Zn352 O382 2.066 . S
O353 Zn352 2.055 . S
O353 C356 1.259 1_455 S
C354 O382 1.256 . S
C354 O383 1.244 . S
Zn355 O357 2.046 . S
Zn355 O359 2.055 . S
Zn355 N361 2.036 . S
Zn355 O379 2.066 1_655 S
Zn355 O383 2.053 1_655 S
C356 O353 1.259 1_655 S
C356 O357 1.254 . S
O357 Zn355 2.046 . S
O357 C356 1.254 . S
C358 O379 1.256 . S
C358 O380 1.244 . S
O359 Zn355 2.055 . S
O359 C381 1.259 . S
O360 Zn352 2.046 1_655 S
O360 C381 1.254 . S
N361 Zn355 2.036 . S
N361 C362 1.298 . S
N361 N364 1.398 . S
C362 N361 1.298 . S
C362 N365 1.367 . S
C362 C375 1.481 . S
C363 N364 1.299 . S
C363 N365 1.379 . S
N364 N361 1.398 . S
N364 C363 1.299 . S
N365 C362 1.367 . S
N365 C363 1.379 . S
C366 N368 1.298 . S
C366 N370 1.367 . S
C366 C374 1.481 . S
C367 N369 1.299 . S
C367 N370 1.379 . S
N368 Zn352 2.036 . S
N368 C366 1.298 . S
N368 N369 1.398 . S
N369 C367 1.299 . S
N369 N368 1.398 . S
N370 C366 1.367 . S
N370 C367 1.379 . S
H371 C374 0.980 . S
H372 C374 0.981 . S
H373 C374 0.981 . S
C374 C366 1.481 . S
C374 H371 0.980 . S
C374 H372 0.981 . S
C374 H373 0.981 . S
C375 C362 1.481 . S
C375 H376 0.980 . S
C375 H377 0.981 . S
C375 H378 0.981 . S
H376 C375 0.980 . S
H377 C375 0.981 . S
H378 C375 0.981 . S
O379 Zn355 2.066 1_455 S
O379 C358 1.256 . S
O380 Zn352 2.053 . S
O380 C358 1.244 . S
C381 O359 1.259 . S
C381 O360 1.254 . S
O382 Zn352 2.066 . S
O382 C354 1.256 . S
O383 C354 1.244 . S
O383 Zn355 2.053 1_455 S
Zn384 O385 2.055 . S
Zn384 O392 2.046 . S
Zn384 N400 2.036 . S
Zn384 O412 2.053 . S
Zn384 O414 2.066 . S
O385 Zn384 2.055 . S
O385 C388 1.259 . S
C386 O414 1.256 . S
C386 O415 1.244 . S
Zn387 O389 2.046 . S
Zn387 O391 2.055 . S
Zn387 N393 2.036 . S
Zn387 O411 2.066 . S
Zn387 O415 2.053 . S
C388 O385 1.259 . S
C388 O389 1.254 . S
O389 Zn387 2.046 . S
O389 C388 1.254 . S
C390 O411 1.256 . S
C390 O412 1.244 . S
O391 Zn387 2.055 . S
O391 C413 1.259 . S
O392 Zn384 2.046 . S
O392 C413 1.254 . S
N393 Zn387 2.036 . S
N393 C394 1.298 . S
N393 N396 1.398 . S
C394 N393 1.298 . S
C394 N397 1.367 . S
C394 C407 1.481 . S
C395 N396 1.299 . S
C395 N397 1.379 . S
N396 N393 1.398 . S
N396 C395 1.299 . S
N397 C394 1.367 . S
N397 C395 1.379 . S
C398 N400 1.298 . S
C398 N402 1.367 . S
C398 C406 1.481 . S
C399 N401 1.299 . S
C399 N402 1.379 . S
N400 Zn384 2.036 . S
N400 C398 1.298 . S
N400 N401 1.398 . S
N401 C399 1.299 . S
N401 N400 1.398 . S
N402 C398 1.367 . S
N402 C399 1.379 . S
H403 C406 0.980 . S
H404 C406 0.981 . S
H405 C406 0.981 . S
C406 C398 1.481 . S
C406 H403 0.980 . S
C406 H404 0.981 . S
C406 H405 0.981 . S
C407 C394 1.481 . S
C407 H408 0.980 . S
C407 H409 0.981 . S
C407 H410 0.981 . S
H408 C407 0.980 . S
H409 C407 0.981 . S
H410 C407 0.981 . S
O411 Zn387 2.066 . S
O411 C390 1.256 . S
O412 Zn384 2.053 . S
O412 C390 1.244 . S
C413 O391 1.259 . S
C413 O392 1.254 . S
O414 Zn384 2.066 . S
O414 C386 1.256 . S
O415 C386 1.244 . S
O415 Zn387 2.053 . S
Zn416 O417 2.055 . S
Zn416 O424 2.046 1_554 S
Zn416 N432 2.036 . S
Zn416 O444 2.053 . S
Zn416 O446 2.066 . S
O417 Zn416 2.055 . S
O417 C420 1.259 1_554 S
C418 O446 1.256 . S
C418 O447 1.244 . S
Zn419 O421 2.046 . S
Zn419 O423 2.055 . S
Zn419 N425 2.036 . S
Zn419 O443 2.079 . S
Zn419 O447 2.053 1_556 S
C420 O417 1.259 1_556 S
C420 O421 1.254 . S
O421 Zn419 2.046 . S
O421 C420 1.254 . S
C422 O443 1.233 1_554 S
C422 O444 1.244 . S
O423 Zn419 2.055 . S
O423 C445 1.259 . S
O424 Zn416 2.046 1_556 S
O424 C445 1.254 . S
N425 Zn419 2.036 . S
N425 C426 1.298 . S
N425 N428 1.398 . S
C426 N425 1.298 . S
C426 N429 1.367 . S
C426 C439 1.481 . S
C427 N428 1.299 . S
C427 N429 1.379 . S
N428 N425 1.398 . S
N428 C427 1.299 . S
N429 C426 1.367 . S
N429 C427 1.379 . S
C430 N432 1.298 . S
C430 N434 1.367 . S
C430 C438 1.481 . S
C431 N433 1.299 . S
C431 N434 1.379 . S
N432 Zn416 2.036 . S
N432 C430 1.298 . S
N432 N433 1.398 . S
N433 C431 1.299 . S
N433 N432 1.398 . S
N434 C430 1.367 . S
N434 C431 1.379 . S
H435 C438 0.980 . S
H436 C438 0.981 . S
H437 C438 0.981 . S
C438 C430 1.481 . S
C438 H435 0.980 . S
C438 H436 0.981 . S
C438 H437 0.981 . S
C439 C426 1.481 . S
C439 H440 0.980 . S
C439 H441 0.981 . S
C439 H442 0.981 . S
H440 C439 0.980 . S
H441 C439 0.981 . S
H442 C439 0.981 . S
O443 Zn419 2.079 . S
O443 C422 1.233 1_556 S
O444 Zn416 2.053 . S
O444 C422 1.244 . S
C445 O423 1.259 . S
C445 O424 1.254 . S
O446 Zn416 2.066 . S
O446 C418 1.256 . S
O447 C418 1.244 . S
O447 Zn419 2.053 1_554 S
Zn448 O449 2.055 . S
Zn448 O456 2.046 . S
Zn448 N464 2.036 . S
Zn448 O476 2.053 . S
Zn448 O478 2.066 . S
O449 Zn448 2.055 . S
O449 C452 1.259 . S
C450 O478 1.256 . S
C450 O479 1.244 . S
Zn451 O453 2.037 1_545 S
Zn451 O455 2.055 1_545 S
Zn451 N457 2.036 1_545 S
Zn451 O475 2.066 . S
Zn451 O479 2.053 . S
C452 O449 1.259 . S
C452 O453 1.232 1_545 S
O453 Zn451 2.037 1_565 S
O453 C452 1.232 1_565 S
C454 O475 1.256 . S
C454 O476 1.244 . S
O455 Zn451 2.055 1_565 S
O455 C477 1.259 . S
O456 Zn448 2.046 . S
O456 C477 1.254 1_545 S
N457 Zn451 2.036 1_565 S
N457 C458 1.298 . S
N457 N460 1.398 . S
C458 N457 1.298 . S
C458 N461 1.367 . S
C458 C471 1.481 . S
C459 N460 1.299 . S
C459 N461 1.379 . S
N460 N457 1.398 . S
N460 C459 1.299 . S
N461 C458 1.367 . S
N461 C459 1.379 . S
C462 N464 1.298 . S
C462 N466 1.367 . S
C462 C470 1.481 . S
C463 N465 1.299 . S
C463 N466 1.379 . S
N464 Zn448 2.036 . S
N464 C462 1.298 . S
N464 N465 1.398 . S
N465 C463 1.299 . S
N465 N464 1.398 . S
N466 C462 1.367 . S
N466 C463 1.379 . S
H467 C470 0.980 . S
H468 C470 0.981 . S
H469 C470 0.981 . S
C470 C462 1.481 . S
C470 H467 0.980 . S
C470 H468 0.981 . S
C470 H469 0.981 . S
C471 C458 1.481 . S
C471 H472 0.980 . S
C471 H473 0.981 . S
C471 H474 0.981 . S
H472 C471 0.980 . S
H473 C471 0.981 . S
H474 C471 0.981 . S
O475 Zn451 2.066 . S
O475 C454 1.256 . S
O476 Zn448 2.053 . S
O476 C454 1.244 . S
C477 O455 1.259 . S
C477 O456 1.254 1_565 S
O478 Zn448 2.066 . S
O478 C450 1.256 . S
O479 C450 1.244 . S
O479 Zn451 2.053 . S
Zn480 O481 2.055 . S
Zn480 O488 2.046 . S
Zn480 N496 2.036 . S
Zn480 O508 2.053 1_554 S
Zn480 O510 2.066 . S
O481 Zn480 2.055 . S
O481 C484 1.259 . S
C482 O510 1.256 1_556 S
C482 O511 1.244 . S
Zn483 O485 2.046 1_556 S
Zn483 O487 2.055 1_556 S
Zn483 N489 2.036 . S
Zn483 O507 2.066 . S
Zn483 O511 2.053 . S
C484 O481 1.259 . S
C484 O485 1.254 . S
O485 Zn483 2.046 1_554 S
O485 C484 1.254 . S
C486 O507 1.256 . S
C486 O508 1.244 . S
O487 Zn483 2.055 1_554 S
O487 C509 1.259 . S
O488 Zn480 2.046 . S
O488 C509 1.254 . S
N489 Zn483 2.036 . S
N489 C490 1.298 . S
N489 N492 1.398 . S
C490 N489 1.298 . S
C490 N493 1.367 . S
C490 C503 1.481 . S
C491 N492 1.299 . S
C491 N493 1.379 . S
N492 N489 1.398 . S
N492 C491 1.299 . S
N493 C490 1.367 . S
N493 C491 1.379 . S
C494 N496 1.298 . S
C494 N498 1.367 . S
C494 C502 1.481 . S
C495 N497 1.299 . S
C495 N498 1.379 . S
N496 Zn480 2.036 . S
N496 C494 1.298 . S
N496 N497 1.398 . S
N497 C495 1.299 . S
N497 N496 1.398 . S
N498 C494 1.367 . S
N498 C495 1.379 . S
H499 C502 0.980 . S
H500 C502 0.981 . S
H501 C502 0.981 . S
C502 C494 1.481 . S
C502 H499 0.980 . S
C502 H500 0.981 . S
C502 H501 0.981 . S
C503 C490 1.481 . S
C503 H504 0.980 . S
C503 H505 0.981 . S
C503 H506 0.981 . S
H504 C503 0.980 . S
H505 C503 0.981 . S
H506 C503 0.981 . S
O507 Zn483 2.066 . S
O507 C486 1.256 . S
O508 Zn480 2.053 1_556 S
O508 C486 1.244 . S
C509 O487 1.259 . S
C509 O488 1.254 . S
O510 Zn480 2.066 . S
O510 C482 1.256 1_554 S
O511 C482 1.244 . S
O511 Zn483 2.053 . S
C512 C513 1.349 . S
C512 C514 1.326 . S
C512 H537 0.950 . S
C513 C512 1.349 . S
C513 C529 1.349 . S
C514 C512 1.326 . S
C514 C533 1.432 1_655 S
C514 H538 0.948 1_655 S
C515 C532 1.574 . S
C515 C534 1.368 . S
C515 H539 0.949 . S
H516 C520 0.949 . S
C517 C518 1.349 . S
C517 C519 1.327 . S
C517 H540 0.950 . S
C518 C517 1.349 . S
C518 C530 1.349 . S
C519 C517 1.327 . S
C519 C535 1.429 . S
C519 H541 0.950 . S
C520 H516 0.949 . S
C520 C528 1.574 . S
C520 C536 1.368 . S
H521 C529 0.950 . S
H522 C527 0.955 1_455 S
H523 C528 0.949 . S
H524 C530 0.950 . S
H525 C531 0.950 . S
H526 C532 0.949 . S
C527 H522 0.955 1_655 S
C527 C529 1.326 . S
C527 C533 1.427 1_655 S
C528 C520 1.574 . S
C528 H523 0.949 . S
C528 C534 1.368 . S
C529 C513 1.349 . S
C529 H521 0.950 . S
C529 C527 1.326 . S
C530 C518 1.349 . S
C530 H524 0.950 . S
C530 C531 1.327 . S
C531 H525 0.950 . S
C531 C530 1.327 . S
C531 C535 1.429 . S
C532 C515 1.574 . S
C532 H526 0.949 . S
C532 C536 1.368 . S
C533 C514 1.432 1_455 S
C533 C527 1.427 1_455 S
C533 C534 1.523 . S
C534 C515 1.368 . S
C534 C528 1.368 . S
C534 C533 1.523 . S
C535 C519 1.429 . S
C535 C531 1.429 . S
C535 C536 1.523 . S
C536 C520 1.368 . S
C536 C532 1.368 . S
C536 C535 1.523 . S
H537 C512 0.950 . S
H538 C514 0.948 1_455 S
H539 C515 0.949 . S
H540 C517 0.950 . S
H541 C519 0.950 . S
C542 C543 1.349 . S
C542 C544 1.327 . S
C542 H567 0.950 . S
C543 C542 1.349 . S
C543 C559 1.349 . S
C544 C542 1.327 . S
C544 C563 1.429 . S
C544 H568 0.950 . S
C545 C562 1.574 . S
C545 C564 1.368 . S
C545 H569 0.949 . S
H546 C550 0.949 . S
C547 C548 1.349 . S
C547 C549 1.327 . S
C547 H570 0.950 . S
C548 C547 1.349 . S
C548 C560 1.346 . S
C549 C547 1.327 . S
C549 C565 1.429 . S
C549 H571 0.950 . S
C550 H546 0.949 . S
C550 C558 1.574 . S
C550 C566 1.368 . S
H551 C559 0.950 . S
H552 C557 0.950 . S
H553 C558 0.949 . S
H554 C560 0.930 1_455 S
H555 C561 0.950 . S
H556 C562 0.949 . S
C557 H552 0.950 . S
C557 C559 1.327 . S
C557 C563 1.429 . S
C558 C550 1.574 . S
C558 H553 0.949 . S
C558 C564 1.368 . S
C559 C543 1.349 . S
C559 H551 0.950 . S
C559 C557 1.327 . S
C560 C548 1.346 . S
C560 H554 0.930 1_655 S
C560 C561 1.350 . S
C561 H555 0.950 . S
C561 C560 1.350 . S
C561 C565 1.429 . S
C562 C545 1.574 . S
C562 H556 0.949 . S
C562 C566 1.368 . S
C563 C544 1.429 . S
C563 C557 1.429 . S
C563 C564 1.523 . S
C564 C545 1.368 . S
C564 C558 1.368 . S
C564 C563 1.523 . S
C565 C549 1.429 . S
C565 C561 1.429 . S
C565 C566 1.523 . S
C566 C550 1.368 . S
C566 C562 1.368 . S
C566 C565 1.523 . S
H567 C542 0.950 . S
H568 C544 0.950 . S
H569 C545 0.949 . S
H570 C547 0.950 . S
H571 C549 0.950 . S
C572 C573 1.349 . S
C572 C574 1.327 . S
C572 H597 0.950 . S
C573 C572 1.349 . S
C573 C589 1.349 . S
C574 C572 1.327 . S
C574 C593 1.429 . S
C574 H598 0.950 . S
C575 C592 1.574 . S
C575 C594 1.368 . S
C575 H599 0.949 . S
H576 C580 0.949 . S
C577 C578 1.349 . S
C577 C579 1.327 . S
C577 H600 0.950 . S
C578 C577 1.349 . S
C578 C590 1.349 . S
C579 C577 1.327 . S
C579 C595 1.429 . S
C579 H601 0.950 . S
C580 H576 0.949 . S
C580 C588 1.574 . S
C580 C596 1.368 . S
H581 C589 0.950 . S
H582 C587 0.950 . S
H583 C588 0.949 . S
H584 C590 0.950 . S
H585 C591 0.950 . S
H586 C592 0.949 . S
C587 H582 0.950 . S
C587 C589 1.327 . S
C587 C593 1.429 . S
C588 C580 1.574 . S
C588 H583 0.949 . S
C588 C594 1.368 . S
C589 C573 1.349 . S
C589 H581 0.950 . S
C589 C587 1.327 . S
C590 C578 1.349 . S
C590 H584 0.950 . S
C590 C591 1.327 . S
C591 H585 0.950 . S
C591 C590 1.327 . S
C591 C595 1.429 . S
C592 C575 1.574 . S
C592 H586 0.949 . S
C592 C596 1.368 . S
C593 C574 1.429 . S
C593 C587 1.429 . S
C593 C594 1.523 . S
C594 C575 1.368 . S
C594 C588 1.368 . S
C594 C593 1.523 . S
C595 C579 1.429 . S
C595 C591 1.429 . S
C595 C596 1.523 . S
C596 C580 1.368 . S
C596 C592 1.368 . S
C596 C595 1.523 . S
H597 C572 0.950 . S
H598 C574 0.950 . S
H599 C575 0.949 . S
H600 C577 0.950 . S
H601 C579 0.950 . S
C602 C603 1.349 . S
C602 C604 1.327 . S
C602 H627 0.950 . S
C603 C602 1.349 . S
C603 C619 1.349 . S
C604 C602 1.327 . S
C604 C623 1.429 . S
C604 H628 0.950 . S
C605 C622 1.574 . S
C605 C624 1.368 . S
C605 H629 0.953 . S
H606 C610 0.949 . S
C607 C608 1.349 . S
C607 C609 1.327 . S
C607 H630 0.950 . S
C608 C607 1.349 . S
C608 C620 1.349 . S
C609 C607 1.327 . S
C609 C625 1.429 . S
C609 H631 0.950 . S
C610 H606 0.949 . S
C610 C618 1.574 . S
C610 C626 1.368 . S
H611 C619 0.941 1_565 S
H612 C617 0.943 1_565 S
H613 C618 0.949 . S
H614 C620 0.950 . S
H615 C621 0.950 . S
H616 C622 0.949 . S
C617 H612 0.943 1_545 S
C617 C619 1.327 . S
C617 C623 1.429 . S
C618 C610 1.574 . S
C618 H613 0.949 . S
C618 C624 1.368 . S
C619 C603 1.349 . S
C619 H611 0.941 1_545 S
C619 C617 1.327 . S
C620 C608 1.349 . S
C620 H614 0.950 . S
C620 C621 1.327 . S
C621 H615 0.950 . S
C621 C620 1.327 . S
C621 C625 1.429 . S
C622 C605 1.574 . S
C622 H616 0.949 . S
C622 C626 1.368 . S
C623 C604 1.429 . S
C623 C617 1.429 . S
C623 C624 1.523 . S
C624 C605 1.368 . S
C624 C618 1.368 . S
C624 C623 1.523 . S
C625 C609 1.429 . S
C625 C621 1.429 . S
C625 C626 1.523 . S
C626 C610 1.368 . S
C626 C622 1.368 . S
C626 C625 1.523 . S
H627 C602 0.950 . S
H628 C604 0.950 . S
H629 C605 0.953 . S
H630 C607 0.950 . S
H631 C609 0.950 . S
C632 C633 1.349 . S
C632 C634 1.327 . S
C632 H657 0.950 . S
C633 C632 1.349 . S
C633 C649 1.349 1_545 S
C634 C632 1.327 . S
C634 C653 1.429 . S
C634 H658 0.950 . S
C635 C652 1.574 . S
C635 C654 1.369 1_565 S
C635 H659 0.949 . S
H636 C640 0.949 . S
C637 C638 1.349 . S
C637 C639 1.327 . S
C637 H660 0.950 . S
C638 C637 1.349 . S
C638 C650 1.349 1_565 S
C639 C637 1.327 . S
C639 C655 1.429 . S
C639 H661 0.950 . S
C640 H636 0.949 . S
C640 C648 1.574 . S
C640 C656 1.368 1_545 S
H641 C649 0.950 . S
H642 C647 0.950 . S
H643 C648 0.949 . S
H644 C650 0.950 . S
H645 C651 0.950 . S
H646 C652 0.949 . S
C647 H642 0.950 . S
C647 C649 1.327 . S
C647 C653 1.429 1_565 S
C648 C640 1.574 . S
C648 H643 0.949 . S
C648 C654 1.368 . S
C649 C633 1.349 1_565 S
C649 H641 0.950 . S
C649 C647 1.327 . S
C650 C638 1.349 1_545 S
C650 H644 0.950 . S
C650 C651 1.327 . S
C651 H645 0.950 . S
C651 C650 1.327 . S
C651 C655 1.429 1_545 S
C652 C635 1.574 . S
C652 H646 0.949 . S
C652 C656 1.368 . S
C653 C634 1.429 . S
C653 C647 1.429 1_545 S
C653 C654 1.523 . S
C654 C635 1.369 1_545 S
C654 C648 1.368 . S
C654 C653 1.523 . S
C655 C639 1.429 . S
C655 C651 1.429 1_565 S
C655 C656 1.523 . S
C656 C640 1.368 1_565 S
C656 C652 1.368 . S
C656 C655 1.523 . S
H657 C632 0.950 . S
H658 C634 0.950 . S
H659 C635 0.949 . S
H660 C637 0.950 . S
H661 C639 0.950 . S
C662 C663 1.349 . S
C662 C664 1.327 . S
C662 H687 0.950 . S
C663 C662 1.349 . S
C663 C679 1.349 . S
C664 C662 1.327 . S
C664 C683 1.429 . S
C664 H688 0.950 . S
C665 C682 1.574 . S
C665 C684 1.368 . S
C665 H689 0.949 . S
H666 C670 0.949 . S
C667 C668 1.349 . S
C667 C669 1.327 . S
C667 H690 0.950 . S
C668 C667 1.349 . S
C668 C680 1.349 . S
C669 C667 1.327 . S
C669 C685 1.429 . S
C669 H691 0.950 . S
C670 H666 0.949 . S
C670 C678 1.574 . S
C670 C686 1.368 . S
H671 C679 0.950 . S
H672 C677 0.950 . S
H673 C678 0.949 . S
H674 C680 0.950 . S
H675 C681 0.950 . S
H676 C682 0.949 . S
C677 H672 0.950 . S
C677 C679 1.327 . S
C677 C683 1.429 . S
C678 C670 1.574 . S
C678 H673 0.949 . S
C678 C684 1.368 . S
C679 C663 1.349 . S
C679 H671 0.950 . S
C679 C677 1.327 . S
C680 C668 1.349 . S
C680 H674 0.950 . S
C680 C681 1.327 . S
C681 H675 0.950 . S
C681 C680 1.327 . S
C681 C685 1.429 . S
C682 C665 1.574 . S
C682 H676 0.949 . S
C682 C686 1.368 . S
C683 C664 1.429 . S
C683 C677 1.429 . S
C683 C684 1.523 . S
C684 C665 1.368 . S
C684 C678 1.368 . S
C684 C683 1.523 . S
C685 C669 1.429 . S
C685 C681 1.429 . S
C685 C686 1.523 . S
C686 C670 1.368 . S
C686 C682 1.368 . S
C686 C685 1.523 . S
H687 C662 0.950 . S
H688 C664 0.950 . S
H689 C665 0.949 . S
H690 C667 0.950 . S
H691 C669 0.950 . S
C692 C693 1.349 . S
C692 C694 1.327 . S
C692 H717 0.950 . S
C693 C692 1.349 . S
C693 C709 1.349 . S
C694 C692 1.327 . S
C694 C713 1.429 . S
C694 H718 0.950 . S
C695 C712 1.574 . S
C695 C714 1.368 . S
C695 H719 0.949 . S
H696 C700 0.949 . S
C697 C698 1.349 . S
C697 C699 1.327 . S
C697 H720 0.950 . S
C698 C697 1.349 . S
C698 C710 1.349 . S
C699 C697 1.327 . S
C699 C715 1.429 . S
C699 H721 0.950 . S
C700 H696 0.949 . S
C700 C708 1.574 . S
C700 C716 1.368 . S
H701 C709 0.950 . S
H702 C707 0.950 . S
H703 C708 0.949 . S
H704 C710 0.950 . S
H705 C711 0.950 . S
H706 C712 0.949 . S
C707 H702 0.950 . S
C707 C709 1.327 . S
C707 C713 1.429 . S
C708 C700 1.574 . S
C708 H703 0.949 . S
C708 C714 1.368 . S
C709 C693 1.349 . S
C709 H701 0.950 . S
C709 C707 1.327 . S
C710 C698 1.349 . S
C710 H704 0.950 . S
C710 C711 1.327 . S
C711 H705 0.950 . S
C711 C710 1.327 . S
C711 C715 1.429 . S
C712 C695 1.574 . S
C712 H706 0.949 . S
C712 C716 1.368 . S
C713 C694 1.429 . S
C713 C707 1.429 . S
C713 C714 1.523 . S
C714 C695 1.368 . S
C714 C708 1.368 . S
C714 C713 1.523 . S
C715 C699 1.429 . S
C715 C711 1.429 . S
C715 C716 1.523 . S
C716 C700 1.368 . S
C716 C712 1.368 . S
C716 C715 1.523 . S
H717 C692 0.950 . S
H718 C694 0.950 . S
H719 C695 0.949 . S
H720 C697 0.950 . S
H721 C699 0.950 . S
C722 C723 1.349 . S
C722 C724 1.327 . S
C722 H747 0.950 . S
C723 C722 1.349 . S
C723 C739 1.349 . S
C724 C722 1.327 . S
C724 C743 1.429 . S
C724 H748 0.950 . S
C725 C742 1.574 . S
C725 C744 1.368 . S
C725 H749 0.949 . S
H726 C730 0.949 . S
C727 C728 1.349 . S
C727 C729 1.327 . S
C727 H750 0.950 . S
C728 C727 1.349 . S
C728 C740 1.349 . S
C729 C727 1.327 . S
C729 C745 1.429 . S
C729 H751 0.950 . S
C730 H726 0.949 . S
C730 C738 1.574 . S
C730 C746 1.368 . S
H731 C739 0.950 . S
H732 C737 0.950 . S
H733 C738 0.949 . S
H734 C740 0.950 . S
H735 C741 0.950 . S
H736 C742 0.949 . S
C737 H732 0.950 . S
C737 C739 1.327 . S
C737 C743 1.429 . S
C738 C730 1.574 . S
C738 H733 0.949 . S
C738 C744 1.368 . S
C739 C723 1.349 . S
C739 H731 0.950 . S
C739 C737 1.327 . S
C740 C728 1.349 . S
C740 H734 0.950 . S
C740 C741 1.327 . S
C741 H735 0.950 . S
C741 C740 1.327 . S
C741 C745 1.429 . S
C742 C725 1.574 . S
C742 H736 0.949 . S
C742 C746 1.368 . S
C743 C724 1.429 . S
C743 C737 1.429 . S
C743 C744 1.523 . S
C744 C725 1.368 . S
C744 C738 1.368 . S
C744 C743 1.523 . S
C745 C729 1.429 . S
C745 C741 1.429 . S
C745 C746 1.523 . S
C746 C730 1.368 . S
C746 C742 1.368 . S
C746 C745 1.523 . S
H747 C722 0.950 . S
H748 C724 0.950 . S
H749 C725 0.949 . S
H750 C727 0.950 . S
H751 C729 0.950 . S
C752 C753 1.349 . S
C752 C754 1.327 . S
C752 H777 0.950 . S
C753 C752 1.349 . S
C753 C769 1.349 . S
C754 C752 1.327 . S
C754 C773 1.429 . S
C754 H778 0.950 . S
C755 C772 1.574 . S
C755 C774 1.368 . S
C755 H779 0.949 . S
H756 C760 0.949 . S
C757 C758 1.349 . S
C757 C759 1.327 . S
C757 H780 0.950 . S
C758 C757 1.349 . S
C758 C770 1.349 . S
C759 C757 1.327 . S
C759 C775 1.429 . S
C759 H781 0.950 . S
C760 H756 0.949 . S
C760 C768 1.574 . S
C760 C776 1.368 . S
H761 C769 0.950 . S
H762 C767 0.950 . S
H763 C768 0.949 . S
H764 C770 0.950 . S
H765 C771 0.950 . S
H766 C772 0.949 . S
C767 H762 0.950 . S
C767 C769 1.327 . S
C767 C773 1.429 . S
C768 C760 1.574 . S
C768 H763 0.949 . S
C768 C774 1.368 . S
C769 C753 1.349 . S
C769 H761 0.950 . S
C769 C767 1.327 . S
C770 C758 1.349 . S
C770 H764 0.950 . S
C770 C771 1.327 . S
C771 H765 0.950 . S
C771 C770 1.327 . S
C771 C775 1.429 . S
C772 C755 1.574 . S
C772 H766 0.949 . S
C772 C776 1.368 . S
C773 C754 1.429 . S
C773 C767 1.429 . S
C773 C774 1.523 . S
C774 C755 1.368 . S
C774 C768 1.368 . S
C774 C773 1.523 . S
C775 C759 1.429 . S
C775 C771 1.429 . S
C775 C776 1.523 . S
C776 C760 1.368 . S
C776 C772 1.368 . S
C776 C775 1.523 . S
H777 C752 0.950 . S
H778 C754 0.950 . S
H779 C755 0.949 . S
H780 C757 0.950 . S
H781 C759 0.950 . S
C782 C783 1.349 . S
C782 C784 1.327 . S
C782 H807 0.950 . S
C783 C782 1.349 . S
C783 C799 1.349 . S
C784 C782 1.327 . S
C784 C803 1.429 . S
C784 H808 0.950 . S
C785 C802 1.574 . S
C785 C804 1.368 . S
C785 H809 0.949 . S
H786 C790 0.949 . S
C787 C788 1.349 . S
C787 C789 1.327 . S
C787 H810 0.950 . S
C788 C787 1.349 . S
C788 C800 1.349 . S
C789 C787 1.327 . S
C789 C805 1.429 . S
C789 H811 0.950 . S
C790 H786 0.949 . S
C790 C798 1.574 . S
C790 C806 1.368 . S
H791 C799 0.950 . S
H792 C797 0.950 . S
H793 C798 0.949 . S
H794 C800 0.950 . S
H795 C801 0.950 . S
H796 C802 0.949 . S
C797 H792 0.950 . S
C797 C799 1.327 . S
C797 C803 1.429 . S
C798 C790 1.574 . S
C798 H793 0.949 . S
C798 C804 1.368 . S
C799 C783 1.349 . S
C799 H791 0.950 . S
C799 C797 1.327 . S
C800 C788 1.349 . S
C800 H794 0.950 . S
C800 C801 1.327 . S
C801 H795 0.950 . S
C801 C800 1.327 . S
C801 C805 1.429 . S
C802 C785 1.574 . S
C802 H796 0.949 . S
C802 C806 1.368 . S
C803 C784 1.429 . S
C803 C797 1.429 . S
C803 C804 1.523 . S
C804 C785 1.368 . S
C804 C798 1.368 . S
C804 C803 1.523 . S
C805 C789 1.429 . S
C805 C801 1.429 . S
C805 C806 1.523 . S
C806 C790 1.368 . S
C806 C802 1.368 . S
C806 C805 1.523 . S
H807 C782 0.950 . S
H808 C784 0.950 . S
H809 C785 0.949 . S
H810 C787 0.950 . S
H811 C789 0.950 . S
C812 C813 1.349 1_565 S
C812 C814 1.327 . S
C812 H837 0.950 . S
C813 C812 1.349 1_545 S
C813 C829 1.349 . S
C814 C812 1.327 . S
C814 C833 1.429 1_565 S
C814 H838 0.950 . S
C815 C832 1.574 . S
C815 C834 1.368 . S
C815 H839 0.949 . S
H816 C820 0.949 . S
C817 C818 1.349 . S
C817 C819 1.327 . S
C817 H840 0.950 . S
C818 C817 1.349 . S
C818 C830 1.349 1_545 S
C819 C817 1.327 . S
C819 C835 1.429 . S
C819 H841 0.950 . S
C820 H816 0.949 . S
C820 C828 1.574 . S
C820 C836 1.368 1_565 S
H821 C829 0.950 . S
H822 C827 0.950 . S
H823 C828 0.949 . S
H824 C830 0.950 . S
H825 C831 0.950 . S
H826 C832 0.949 . S
C827 H822 0.950 . S
C827 C829 1.327 . S
C827 C833 1.429 . S
C828 C820 1.574 . S
C828 H823 0.949 . S
C828 C834 1.368 1_565 S
C829 C813 1.349 . S
C829 H821 0.950 . S
C829 C827 1.327 . S
C830 C818 1.349 1_565 S
C830 H824 0.950 . S
C830 C831 1.327 . S
C831 H825 0.950 . S
C831 C830 1.327 . S
C831 C835 1.429 1_565 S
C832 C815 1.574 . S
C832 H826 0.949 . S
C832 C836 1.368 . S
C833 C814 1.429 1_545 S
C833 C827 1.429 . S
C833 C834 1.523 . S
C834 C815 1.368 . S
C834 C828 1.368 1_545 S
C834 C833 1.523 . S
C835 C819 1.429 . S
C835 C831 1.429 1_545 S
C835 C836 1.523 . S
C836 C820 1.368 1_545 S
C836 C832 1.368 . S
C836 C835 1.523 . S
H837 C812 0.950 . S
H838 C814 0.950 . S
H839 C815 0.949 . S
H840 C817 0.950 . S
H841 C819 0.950 . S
C842 C843 1.349 . S
C842 C844 1.327 . S
C842 H867 0.950 . S
C843 C842 1.349 . S
C843 C859 1.349 . S
C844 C842 1.327 . S
C844 C863 1.429 . S
C844 H868 0.950 . S
C845 C862 1.574 . S
C845 C864 1.368 . S
C845 H869 0.949 . S
H846 C850 0.949 . S
C847 C848 1.349 . S
C847 C849 1.327 . S
C847 H870 0.950 . S
C848 C847 1.349 . S
C848 C860 1.349 . S
C849 C847 1.327 . S
C849 C865 1.429 . S
C849 H871 0.950 . S
C850 H846 0.949 . S
C850 C858 1.574 . S
C850 C866 1.368 . S
H851 C859 0.950 . S
H852 C857 0.950 . S
H853 C858 0.949 . S
H854 C860 0.950 . S
H855 C861 0.950 . S
H856 C862 0.949 . S
C857 H852 0.950 . S
C857 C859 1.327 . S
C857 C863 1.429 . S
C858 C850 1.574 . S
C858 H853 0.949 . S
C858 C864 1.368 . S
C859 C843 1.349 . S
C859 H851 0.950 . S
C859 C857 1.327 . S
C860 C848 1.349 . S
C860 H854 0.950 . S
C860 C861 1.327 . S
C861 H855 0.950 . S
C861 C860 1.327 . S
C861 C865 1.429 . S
C862 C845 1.574 . S
C862 H856 0.949 . S
C862 C866 1.368 . S
C863 C844 1.429 . S
C863 C857 1.429 . S
C863 C864 1.523 . S
C864 C845 1.368 . S
C864 C858 1.368 . S
C864 C863 1.523 . S
C865 C849 1.429 . S
C865 C861 1.429 . S
C865 C866 1.523 . S
C866 C850 1.368 . S
C866 C862 1.368 . S
C866 C865 1.523 . S
H867 C842 0.950 . S
H868 C844 0.950 . S
H869 C845 0.949 . S
H870 C847 0.950 . S
H871 C849 0.950 . S
C872 C873 1.349 1_554 S
C872 C874 1.327 . S
C872 H897 0.950 . S
C873 C872 1.349 1_556 S
C873 C889 1.349 . S
C874 C872 1.327 . S
C874 C893 1.429 1_554 S
C874 H898 0.950 . S
C875 C892 1.574 . S
C875 C894 1.368 . S
C875 H899 0.949 . S
H876 C880 0.949 . S
C877 C878 1.349 . S
C877 C879 1.327 . S
C877 H900 0.950 . S
C878 C877 1.349 . S
C878 C890 1.349 1_556 S
C879 C877 1.327 . S
C879 C895 1.429 . S
C879 H901 0.950 . S
C880 H876 0.949 . S
C880 C888 1.574 . S
C880 C896 1.368 1_554 S
H881 C889 0.950 . S
H882 C887 0.950 . S
H883 C888 0.949 . S
H884 C890 0.950 . S
H885 C891 0.950 . S
H886 C892 0.949 . S
C887 H882 0.950 . S
C887 C889 1.327 . S
C887 C893 1.429 . S
C888 C880 1.574 . S
C888 H883 0.949 . S
C888 C894 1.368 1_554 S
C889 C873 1.349 . S
C889 H881 0.950 . S
C889 C887 1.327 . S
C890 C878 1.349 1_554 S
C890 H884 0.950 . S
C890 C891 1.327 . S
C891 H885 0.950 . S
C891 C890 1.327 . S
C891 C895 1.429 1_554 S
C892 C875 1.574 . S
C892 H886 0.949 . S
C892 C896 1.368 . S
C893 C874 1.429 1_556 S
C893 C887 1.429 . S
C893 C894 1.523 . S
C894 C875 1.368 . S
C894 C888 1.368 1_556 S
C894 C893 1.523 . S
C895 C879 1.429 . S
C895 C891 1.429 1_556 S
C895 C896 1.523 . S
C896 C880 1.368 1_556 S
C896 C892 1.368 . S
C896 C895 1.523 . S
H897 C872 0.950 . S
H898 C874 0.950 . S
H899 C875 0.949 . S
H900 C877 0.950 . S
H901 C879 0.950 . S
C902 C903 1.349 . S
C902 C904 1.327 . S
C902 H927 0.950 . S
C903 C902 1.349 . S
C903 C919 1.349 . S
C904 C902 1.327 . S
C904 C923 1.429 . S
C904 H928 0.950 . S
C905 C922 1.574 . S
C905 C924 1.368 . S
C905 H929 0.949 . S
H906 C910 0.949 . S
C907 C908 1.349 . S
C907 C909 1.327 . S
C907 H930 0.950 . S
C908 C907 1.349 . S
C908 C920 1.349 . S
C909 C907 1.327 . S
C909 C925 1.429 . S
C909 H931 0.950 . S
C910 H906 0.949 . S
C910 C918 1.574 . S
C910 C926 1.368 . S
H911 C919 0.950 . S
H912 C917 0.950 . S
H913 C918 0.949 . S
H914 C920 0.950 . S
H915 C921 0.950 . S
H916 C922 0.949 . S
C917 H912 0.950 . S
C917 C919 1.327 . S
C917 C923 1.429 . S
C918 C910 1.574 . S
C918 H913 0.949 . S
C918 C924 1.368 . S
C919 C903 1.349 . S
C919 H911 0.950 . S
C919 C917 1.327 . S
C920 C908 1.349 . S
C920 H914 0.950 . S
C920 C921 1.327 . S
C921 H915 0.950 . S
C921 C920 1.327 . S
C921 C925 1.429 . S
C922 C905 1.574 . S
C922 H916 0.949 . S
C922 C926 1.368 . S
C923 C904 1.429 . S
C923 C917 1.429 . S
C923 C924 1.523 . S
C924 C905 1.368 . S
C924 C918 1.368 . S
C924 C923 1.523 . S
C925 C909 1.429 . S
C925 C921 1.429 . S
C925 C926 1.523 . S
C926 C910 1.368 . S
C926 C922 1.368 . S
C926 C925 1.523 . S
H927 C902 0.950 . S
H928 C904 0.950 . S
H929 C905 0.949 . S
H930 C907 0.950 . S
H931 C909 0.950 . S
C932 C933 1.349 . S
C932 C934 1.327 . S
C932 H957 0.950 . S
C933 C932 1.349 . S
C933 C949 1.349 . S
C934 C932 1.327 . S
C934 C953 1.429 . S
C934 H958 0.950 . S
C935 C952 1.574 . S
C935 C954 1.368 . S
C935 H959 0.949 . S
H936 C940 0.949 . S
C937 C938 1.349 . S
C937 C939 1.327 . S
C937 H960 0.950 . S
C938 C937 1.349 . S
C938 C950 1.349 . S
C939 C937 1.327 . S
C939 C955 1.429 . S
C939 H961 0.950 . S
C940 H936 0.949 . S
C940 C948 1.574 . S
C940 C956 1.368 . S
H941 C949 0.950 . S
H942 C947 0.950 . S
H943 C948 0.949 . S
H944 C950 0.950 . S
H945 C951 0.950 . S
H946 C952 0.949 . S
C947 H942 0.950 . S
C947 C949 1.327 . S
C947 C953 1.429 . S
C948 C940 1.574 . S
C948 H943 0.949 . S
C948 C954 1.368 . S
C949 C933 1.349 . S
C949 H941 0.950 . S
C949 C947 1.327 . S
C950 C938 1.349 . S
C950 H944 0.950 . S
C950 C951 1.327 . S
C951 H945 0.950 . S
C951 C950 1.327 . S
C951 C955 1.429 . S
C952 C935 1.574 . S
C952 H946 0.949 . S
C952 C956 1.368 . S
C953 C934 1.429 . S
C953 C947 1.429 . S
C953 C954 1.523 . S
C954 C935 1.368 . S
C954 C948 1.368 . S
C954 C953 1.523 . S
C955 C939 1.429 . S
C955 C951 1.429 . S
C955 C956 1.523 . S
C956 C940 1.368 . S
C956 C952 1.368 . S
C956 C955 1.523 . S
H957 C932 0.950 . S
H958 C934 0.950 . S
H959 C935 0.949 . S
H960 C937 0.950 . S
H961 C939 0.950 . S
C962 C963 1.349 . S
C962 C964 1.327 . S
C962 H987 0.950 . S
C963 C962 1.349 . S
C963 C979 1.349 . S
C964 C962 1.327 . S
C964 C983 1.429 . S
C964 H988 0.950 . S
C965 C982 1.574 . S
C965 C984 1.368 . S
C965 H989 0.949 . S
H966 C970 0.949 . S
C967 C968 1.349 . S
C967 C969 1.327 . S
C967 H990 0.950 . S
C968 C967 1.349 . S
C968 C980 1.349 . S
C969 C967 1.327 . S
C969 C985 1.429 . S
C969 H991 0.950 . S
C970 H966 0.949 . S
C970 C978 1.574 . S
C970 C986 1.368 . S
H971 C979 0.950 . S
H972 C977 0.950 . S
H973 C978 0.949 . S
H974 C980 0.950 . S
H975 C981 0.950 . S
H976 C982 0.949 . S
C977 H972 0.950 . S
C977 C979 1.327 . S
C977 C983 1.429 . S
C978 C970 1.574 . S
C978 H973 0.949 . S
C978 C984 1.368 . S
C979 C963 1.349 . S
C979 H971 0.950 . S
C979 C977 1.327 . S
C980 C968 1.349 . S
C980 H974 0.950 . S
C980 C981 1.327 . S
C981 H975 0.950 . S
C981 C980 1.327 . S
C981 C985 1.429 . S
C982 C965 1.574 . S
C982 H976 0.949 . S
C982 C986 1.368 . S
C983 C964 1.429 . S
C983 C977 1.429 . S
C983 C984 1.523 . S
C984 C965 1.368 . S
C984 C978 1.368 . S
C984 C983 1.523 . S
C985 C969 1.429 . S
C985 C981 1.429 . S
C985 C986 1.523 . S
C986 C970 1.368 . S
C986 C982 1.368 . S
C986 C985 1.523 . S
H987 C962 0.950 . S
H988 C964 0.950 . S
H989 C965 0.949 . S
H990 C967 0.950 . S
H991 C969 0.950 . S
C992 C993 1.349 . S
C992 C994 1.327 . S
C992 H1017 0.950 . S
C993 C992 1.349 . S
C993 C1009 1.349 . S
C994 C992 1.327 . S
C994 C1013 1.429 . S
C994 H1018 0.950 . S
C995 C1012 1.574 . S
C995 C1014 1.368 . S
C995 H1019 0.949 . S
H996 C1000 0.949 . S
C997 C998 1.349 . S
C997 C999 1.327 . S
C997 H1020 0.950 . S
C998 C997 1.349 . S
C998 C1010 1.349 . S
C999 C997 1.327 . S
C999 C1015 1.429 . S
C999 H1021 0.950 . S
C1000 H996 0.949 . S
C1000 C1008 1.574 . S
C1000 C1016 1.368 . S
H1001 C1009 0.950 . S
H1002 C1007 0.950 . S
H1003 C1008 0.949 . S
H1004 C1010 0.950 . S
H1005 C1011 0.950 . S
H1006 C1012 0.949 . S
C1007 H1002 0.950 . S
C1007 C1009 1.327 . S
C1007 C1013 1.429 . S
C1008 C1000 1.574 . S
C1008 H1003 0.949 . S
C1008 C1014 1.368 . S
C1009 C993 1.349 . S
C1009 H1001 0.950 . S
C1009 C1007 1.327 . S
C1010 C998 1.349 . S
C1010 H1004 0.950 . S
C1010 C1011 1.327 . S
C1011 H1005 0.950 . S
C1011 C1010 1.327 . S
C1011 C1015 1.429 . S
C1012 C995 1.574 . S
C1012 H1006 0.949 . S
C1012 C1016 1.368 . S
C1013 C994 1.429 . S
C1013 C1007 1.429 . S
C1013 C1014 1.523 . S
C1014 C995 1.368 . S
C1014 C1008 1.368 . S
C1014 C1013 1.523 . S
C1015 C999 1.429 . S
C1015 C1011 1.429 . S
C1015 C1016 1.523 . S
C1016 C1000 1.368 . S
C1016 C1012 1.368 . S
C1016 C1015 1.523 . S
H1017 C992 0.950 . S
H1018 C994 0.950 . S
H1019 C995 0.949 . S
H1020 C997 0.950 . S
H1021 C999 0.950 . S
C1022 C1023 1.349 . S
C1022 C1024 1.327 . S
C1022 H1047 0.950 . S
C1023 C1022 1.349 . S
C1023 C1039 1.349 . S
C1024 C1022 1.327 . S
C1024 C1043 1.429 . S
C1024 H1048 0.950 . S
C1025 C1042 1.574 . S
C1025 C1044 1.368 . S
C1025 H1049 0.949 . S
H1026 C1030 0.949 . S
C1027 C1028 1.349 . S
C1027 C1029 1.327 . S
C1027 H1050 0.950 . S
C1028 C1027 1.349 . S
C1028 C1040 1.349 . S
C1029 C1027 1.327 . S
C1029 C1045 1.429 . S
C1029 H1051 0.950 . S
C1030 H1026 0.949 . S
C1030 C1038 1.574 . S
C1030 C1046 1.368 . S
H1031 C1039 0.950 . S
H1032 C1037 0.950 . S
H1033 C1038 0.949 . S
H1034 C1040 0.950 . S
H1035 C1041 0.950 . S
H1036 C1042 0.949 . S
C1037 H1032 0.950 . S
C1037 C1039 1.327 . S
C1037 C1043 1.429 . S
C1038 C1030 1.574 . S
C1038 H1033 0.949 . S
C1038 C1044 1.368 . S
C1039 C1023 1.349 . S
C1039 H1031 0.950 . S
C1039 C1037 1.327 . S
C1040 C1028 1.349 . S
C1040 H1034 0.950 . S
C1040 C1041 1.327 . S
C1041 H1035 0.950 . S
C1041 C1040 1.327 . S
C1041 C1045 1.429 . S
C1042 C1025 1.574 . S
C1042 H1036 0.949 . S
C1042 C1046 1.368 . S
C1043 C1024 1.429 . S
C1043 C1037 1.429 . S
C1043 C1044 1.523 . S
C1044 C1025 1.368 . S
C1044 C1038 1.368 . S
C1044 C1043 1.523 . S
C1045 C1029 1.429 . S
C1045 C1041 1.429 . S
C1045 C1046 1.523 . S
C1046 C1030 1.368 . S
C1046 C1042 1.368 . S
C1046 C1045 1.523 . S
H1047 C1022 0.950 . S
H1048 C1024 0.950 . S
H1049 C1025 0.949 . S
H1050 C1027 0.950 . S
H1051 C1029 0.950 . S
C1052 C1053 1.349 . S
C1052 C1054 1.327 . S
C1052 H1077 0.950 . S
C1053 C1052 1.349 . S
C1053 C1069 1.349 . S
C1054 C1052 1.327 . S
C1054 C1073 1.429 . S
C1054 H1078 0.950 . S
C1055 C1072 1.574 . S
C1055 C1074 1.368 . S
C1055 H1079 0.949 . S
H1056 C1060 0.949 . S
C1057 C1058 1.349 . S
C1057 C1059 1.327 . S
C1057 H1080 0.950 . S
C1058 C1057 1.349 . S
C1058 C1070 1.349 . S
C1059 C1057 1.327 . S
C1059 C1075 1.429 . S
C1059 H1081 0.950 . S
C1060 H1056 0.949 . S
C1060 C1068 1.574 . S
C1060 C1076 1.368 . S
H1061 C1069 0.950 . S
H1062 C1067 0.950 . S
H1063 C1068 0.949 . S
H1064 C1070 0.950 . S
H1065 C1071 0.950 . S
H1066 C1072 0.949 . S
C1067 H1062 0.950 . S
C1067 C1069 1.327 . S
C1067 C1073 1.429 . S
C1068 C1060 1.574 . S
C1068 H1063 0.949 . S
C1068 C1074 1.368 . S
C1069 C1053 1.349 . S
C1069 H1061 0.950 . S
C1069 C1067 1.327 . S
C1070 C1058 1.349 . S
C1070 H1064 0.950 . S
C1070 C1071 1.327 . S
C1071 H1065 0.950 . S
C1071 C1070 1.327 . S
C1071 C1075 1.429 . S
C1072 C1055 1.574 . S
C1072 H1066 0.949 . S
C1072 C1076 1.368 . S
C1073 C1054 1.429 . S
C1073 C1067 1.429 . S
C1073 C1074 1.523 . S
C1074 C1055 1.368 . S
C1074 C1068 1.368 . S
C1074 C1073 1.523 . S
C1075 C1059 1.429 . S
C1075 C1071 1.429 . S
C1075 C1076 1.523 . S
C1076 C1060 1.368 . S
C1076 C1072 1.368 . S
C1076 C1075 1.523 . S
H1077 C1052 0.950 . S
H1078 C1054 0.950 . S
H1079 C1055 0.949 . S
H1080 C1057 0.950 . S
H1081 C1059 0.950 . S
C1082 C1083 1.349 . S
C1082 C1084 1.327 . S
C1082 H1107 0.950 . S
C1083 C1082 1.349 . S
C1083 C1099 1.349 . S
C1084 C1082 1.327 . S
C1084 C1103 1.429 . S
C1084 H1108 0.950 . S
C1085 C1102 1.574 . S
C1085 C1104 1.368 . S
C1085 H1109 0.949 . S
H1086 C1090 0.949 . S
C1087 C1088 1.349 . S
C1087 C1089 1.327 . S
C1087 H1110 0.950 . S
C1088 C1087 1.349 . S
C1088 C1100 1.349 . S
C1089 C1087 1.327 . S
C1089 C1105 1.429 . S
C1089 H1111 0.950 . S
C1090 H1086 0.949 . S
C1090 C1098 1.574 . S
C1090 C1106 1.368 . S
H1091 C1099 0.950 . S
H1092 C1097 0.950 . S
H1093 C1098 0.949 . S
H1094 C1100 0.950 . S
H1095 C1101 0.950 . S
H1096 C1102 0.949 . S
C1097 H1092 0.950 . S
C1097 C1099 1.327 . S
C1097 C1103 1.429 . S
C1098 C1090 1.574 . S
C1098 H1093 0.949 . S
C1098 C1104 1.368 . S
C1099 C1083 1.349 . S
C1099 H1091 0.950 . S
C1099 C1097 1.327 . S
C1100 C1088 1.349 . S
C1100 H1094 0.950 . S
C1100 C1101 1.327 . S
C1101 H1095 0.950 . S
C1101 C1100 1.327 . S
C1101 C1105 1.429 . S
C1102 C1085 1.574 . S
C1102 H1096 0.949 . S
C1102 C1106 1.368 . S
C1103 C1084 1.429 . S
C1103 C1097 1.429 . S
C1103 C1104 1.523 . S
C1104 C1085 1.368 . S
C1104 C1098 1.368 . S
C1104 C1103 1.523 . S
C1105 C1089 1.429 . S
C1105 C1101 1.429 . S
C1105 C1106 1.523 . S
C1106 C1090 1.368 . S
C1106 C1102 1.368 . S
C1106 C1105 1.523 . S
H1107 C1082 0.950 . S
H1108 C1084 0.950 . S
H1109 C1085 0.949 . S
H1110 C1087 0.950 . S
H1111 C1089 0.950 . S
C1112 C1113 1.349 . S
C1112 C1114 1.327 . S
C1112 H1137 0.950 . S
C1113 C1112 1.349 . S
C1113 C1129 1.349 . S
C1114 C1112 1.327 . S
C1114 C1133 1.429 . S
C1114 H1138 0.950 . S
C1115 C1132 1.574 . S
C1115 C1134 1.368 . S
C1115 H1139 0.949 . S
H1116 C1120 0.949 . S
C1117 C1118 1.349 . S
C1117 C1119 1.327 . S
C1117 H1140 0.950 . S
C1118 C1117 1.349 . S
C1118 C1130 1.349 . S
C1119 C1117 1.327 . S
C1119 C1135 1.429 . S
C1119 H1141 0.950 . S
C1120 H1116 0.949 . S
C1120 C1128 1.574 . S
C1120 C1136 1.368 . S
H1121 C1129 0.950 . S
H1122 C1127 0.950 . S
H1123 C1128 0.949 . S
H1124 C1130 0.950 . S
H1125 C1131 0.950 . S
H1126 C1132 0.949 . S
C1127 H1122 0.950 . S
C1127 C1129 1.327 . S
C1127 C1133 1.429 . S
C1128 C1120 1.574 . S
C1128 H1123 0.949 . S
C1128 C1134 1.368 . S
C1129 C1113 1.349 . S
C1129 H1121 0.950 . S
C1129 C1127 1.327 . S
C1130 C1118 1.349 . S
C1130 H1124 0.950 . S
C1130 C1131 1.327 . S
C1131 H1125 0.950 . S
C1131 C1130 1.327 . S
C1131 C1135 1.429 . S
C1132 C1115 1.574 . S
C1132 H1126 0.949 . S
C1132 C1136 1.368 . S
C1133 C1114 1.429 . S
C1133 C1127 1.429 . S
C1133 C1134 1.523 . S
C1134 C1115 1.368 . S
C1134 C1128 1.368 . S
C1134 C1133 1.523 . S
C1135 C1119 1.429 . S
C1135 C1131 1.429 . S
C1135 C1136 1.523 . S
C1136 C1120 1.368 . S
C1136 C1132 1.368 . S
C1136 C1135 1.523 . S
H1137 C1112 0.950 . S
H1138 C1114 0.950 . S
H1139 C1115 0.949 . S
H1140 C1117 0.950 . S
H1141 C1119 0.950 . S
C1142 C1143 1.349 . S
C1142 C1144 1.327 . S
C1142 H1167 0.950 . S
C1143 C1142 1.349 . S
C1143 C1159 1.349 1_655 S
C1144 C1142 1.327 . S
C1144 C1163 1.429 . S
C1144 H1168 0.950 . S
C1145 C1162 1.574 . S
C1145 C1164 1.368 1_455 S
C1145 H1169 0.949 . S
H1146 C1150 0.949 . S
C1147 C1148 1.349 . S
C1147 C1149 1.327 . S
C1147 H1170 0.950 . S
C1148 C1147 1.349 . S
C1148 C1160 1.349 1_455 S
C1149 C1147 1.327 . S
C1149 C1165 1.444 . S
C1149 H1171 0.950 . S
C1150 H1146 0.949 . S
C1150 C1158 1.574 . S
C1150 C1166 1.368 . S
H1151 C1159 0.950 . S
H1152 C1157 0.950 . S
H1153 C1158 0.949 . S
H1154 C1160 0.950 . S
H1155 C1161 0.950 . S
H1156 C1162 0.949 . S
C1157 H1152 0.950 . S
C1157 C1159 1.327 . S
C1157 C1163 1.429 1_455 S
C1158 C1150 1.574 . S
C1158 H1153 0.949 . S
C1158 C1164 1.368 . S
C1159 C1143 1.349 1_455 S
C1159 H1151 0.950 . S
C1159 C1157 1.327 . S
C1160 C1148 1.349 1_655 S
C1160 H1154 0.950 . S
C1160 C1161 1.327 . S
C1161 H1155 0.950 . S
C1161 C1160 1.327 . S
C1161 C1165 1.421 1_655 S
C1162 C1145 1.574 . S
C1162 H1156 0.949 . S
C1162 C1166 1.368 1_455 S
C1163 C1144 1.429 . S
C1163 C1157 1.429 1_655 S
C1163 C1164 1.523 . S
C1164 C1145 1.368 1_655 S
C1164 C1158 1.368 . S
C1164 C1163 1.523 . S
C1165 C1149 1.444 . S
C1165 C1161 1.421 1_455 S
C1165 C1166 1.517 1_455 S
C1166 C1150 1.368 . S
C1166 C1162 1.368 1_655 S
C1166 C1165 1.517 1_655 S
H1167 C1142 0.950 . S
H1168 C1144 0.950 . S
H1169 C1145 0.949 . S
H1170 C1147 0.950 . S
H1171 C1149 0.950 . S
C1172 C1173 1.349 . S
C1172 C1174 1.327 . S
C1172 H1197 0.950 . S
C1173 C1172 1.349 . S
C1173 C1189 1.349 . S
C1174 C1172 1.327 . S
C1174 C1193 1.429 . S
C1174 H1198 0.950 . S
C1175 C1192 1.574 . S
C1175 C1194 1.368 . S
C1175 H1199 0.949 . S
H1176 C1180 0.949 . S
C1177 C1178 1.349 . S
C1177 C1179 1.327 . S
C1177 H1200 0.950 . S
C1178 C1177 1.349 . S
C1178 C1190 1.349 . S
C1179 C1177 1.327 . S
C1179 C1195 1.429 . S
C1179 H1201 0.950 . S
C1180 H1176 0.949 . S
C1180 C1188 1.574 . S
C1180 C1196 1.368 . S
H1181 C1189 0.950 . S
H1182 C1187 0.950 . S
H1183 C1188 0.949 . S
H1184 C1190 0.950 . S
H1185 C1191 0.950 . S
H1186 C1192 0.949 . S
C1187 H1182 0.950 . S
C1187 C1189 1.327 . S
C1187 C1193 1.429 . S
C1188 C1180 1.574 . S
C1188 H1183 0.949 . S
C1188 C1194 1.368 . S
C1189 C1173 1.349 . S
C1189 H1181 0.950 . S
C1189 C1187 1.327 . S
C1190 C1178 1.349 . S
C1190 H1184 0.950 . S
C1190 C1191 1.327 . S
C1191 H1185 0.950 . S
C1191 C1190 1.327 . S
C1191 C1195 1.429 . S
C1192 C1175 1.574 . S
C1192 H1186 0.949 . S
C1192 C1196 1.368 . S
C1193 C1174 1.429 . S
C1193 C1187 1.429 . S
C1193 C1194 1.523 . S
C1194 C1175 1.368 . S
C1194 C1188 1.368 . S
C1194 C1193 1.523 . S
C1195 C1179 1.429 . S
C1195 C1191 1.429 . S
C1195 C1196 1.523 . S
C1196 C1180 1.368 . S
C1196 C1192 1.368 . S
C1196 C1195 1.523 . S
H1197 C1172 0.950 . S
H1198 C1174 0.950 . S
H1199 C1175 0.949 . S
H1200 C1177 0.950 . S
H1201 C1179 0.950 . S
C1202 C1203 1.349 . S
C1202 C1204 1.327 . S
C1202 H1227 0.950 . S
C1203 C1202 1.349 . S
C1203 C1219 1.349 . S
C1204 C1202 1.327 . S
C1204 C1223 1.429 . S
C1204 H1228 0.950 . S
C1205 C1222 1.574 . S
C1205 C1224 1.368 . S
C1205 H1229 0.949 . S
H1206 C1210 0.949 . S
C1207 C1208 1.349 . S
C1207 C1209 1.327 . S
C1207 H1230 0.950 . S
C1208 C1207 1.349 . S
C1208 C1220 1.349 . S
C1209 C1207 1.327 . S
C1209 C1225 1.429 . S
C1209 H1231 0.950 . S
C1210 H1206 0.949 . S
C1210 C1218 1.574 . S
C1210 C1226 1.368 . S
H1211 C1219 0.950 . S
H1212 C1217 0.950 . S
H1213 C1218 0.949 . S
H1214 C1220 0.950 . S
H1215 C1221 0.950 . S
H1216 C1222 0.949 . S
C1217 H1212 0.950 . S
C1217 C1219 1.327 . S
C1217 C1223 1.429 . S
C1218 C1210 1.574 . S
C1218 H1213 0.949 . S
C1218 C1224 1.368 . S
C1219 C1203 1.349 . S
C1219 H1211 0.950 . S
C1219 C1217 1.327 . S
C1220 C1208 1.349 . S
C1220 H1214 0.950 . S
C1220 C1221 1.327 . S
C1221 H1215 0.950 . S
C1221 C1220 1.327 . S
C1221 C1225 1.429 . S
C1222 C1205 1.574 . S
C1222 H1216 0.949 . S
C1222 C1226 1.368 . S
C1223 C1204 1.429 . S
C1223 C1217 1.429 . S
C1223 C1224 1.523 . S
C1224 C1205 1.368 . S
C1224 C1218 1.368 . S
C1224 C1223 1.523 . S
C1225 C1209 1.429 . S
C1225 C1221 1.429 . S
C1225 C1226 1.523 . S
C1226 C1210 1.368 . S
C1226 C1222 1.368 . S
C1226 C1225 1.523 . S
H1227 C1202 0.950 . S
H1228 C1204 0.950 . S
H1229 C1205 0.949 . S
H1230 C1207 0.950 . S
H1231 C1209 0.950 . S
C1232 C1233 1.349 . S
C1232 C1234 1.327 . S
C1232 H1257 0.950 . S
C1233 C1232 1.349 . S
C1233 C1249 1.349 . S
C1234 C1232 1.327 . S
C1234 C1253 1.429 . S
C1234 H1258 0.950 . S
C1235 C1252 1.574 . S
C1235 C1254 1.368 . S
C1235 H1259 0.949 . S
H1236 C1240 0.949 . S
C1237 C1238 1.349 . S
C1237 C1239 1.327 . S
C1237 H1260 0.950 . S
C1238 C1237 1.349 . S
C1238 C1250 1.349 . S
C1239 C1237 1.327 . S
C1239 C1255 1.429 . S
C1239 H1261 0.950 . S
C1240 H1236 0.949 . S
C1240 C1248 1.574 . S
C1240 C1256 1.368 . S
H1241 C1249 0.950 . S
H1242 C1247 0.950 . S
H1243 C1248 0.949 . S
H1244 C1250 0.950 . S
H1245 C1251 0.950 . S
H1246 C1252 0.949 . S
C1247 H1242 0.950 . S
C1247 C1249 1.327 . S
C1247 C1253 1.429 . S
C1248 C1240 1.574 . S
C1248 H1243 0.949 . S
C1248 C1254 1.368 . S
C1249 C1233 1.349 . S
C1249 H1241 0.950 . S
C1249 C1247 1.327 . S
C1250 C1238 1.349 . S
C1250 H1244 0.950 . S
C1250 C1251 1.327 . S
C1251 H1245 0.950 . S
C1251 C1250 1.327 . S
C1251 C1255 1.429 . S
C1252 C1235 1.574 . S
C1252 H1246 0.949 . S
C1252 C1256 1.368 . S
C1253 C1234 1.429 . S
C1253 C1247 1.429 . S
C1253 C1254 1.523 . S
C1254 C1235 1.368 . S
C1254 C1248 1.368 . S
C1254 C1253 1.523 . S
C1255 C1239 1.429 . S
C1255 C1251 1.429 . S
C1255 C1256 1.523 . S
C1256 C1240 1.368 . S
C1256 C1252 1.368 . S
C1256 C1255 1.523 . S
H1257 C1232 0.950 . S
H1258 C1234 0.950 . S
H1259 C1235 0.949 . S
H1260 C1237 0.950 . S
H1261 C1239 0.950 . S
C1262 C1263 1.349 . S
C1262 C1264 1.327 . S
C1262 H1287 0.950 . S
C1263 C1262 1.349 . S
C1263 C1279 1.349 . S
C1264 C1262 1.327 . S
C1264 C1283 1.429 . S
C1264 H1288 0.950 . S
C1265 C1282 1.574 . S
C1265 C1284 1.368 . S
C1265 H1289 0.949 . S
H1266 C1270 0.949 . S
C1267 C1268 1.349 . S
C1267 C1269 1.327 . S
C1267 H1290 0.950 . S
C1268 C1267 1.349 . S
C1268 C1280 1.349 . S
C1269 C1267 1.327 . S
C1269 C1285 1.429 . S
C1269 H1291 0.950 . S
C1270 H1266 0.949 . S
C1270 C1278 1.574 . S
C1270 C1286 1.368 . S
H1271 C1279 0.950 . S
H1272 C1277 0.950 . S
H1273 C1278 0.949 . S
H1274 C1280 0.950 . S
H1275 C1281 0.950 . S
H1276 C1282 0.949 . S
C1277 H1272 0.950 . S
C1277 C1279 1.327 . S
C1277 C1283 1.429 . S
C1278 C1270 1.574 . S
C1278 H1273 0.949 . S
C1278 C1284 1.368 . S
C1279 C1263 1.349 . S
C1279 H1271 0.950 . S
C1279 C1277 1.327 . S
C1280 C1268 1.349 . S
C1280 H1274 0.950 . S
C1280 C1281 1.327 . S
C1281 H1275 0.950 . S
C1281 C1280 1.327 . S
C1281 C1285 1.429 . S
C1282 C1265 1.574 . S
C1282 H1276 0.949 . S
C1282 C1286 1.368 . S
C1283 C1264 1.429 . S
C1283 C1277 1.429 . S
C1283 C1284 1.523 . S
C1284 C1265 1.368 . S
C1284 C1278 1.368 . S
C1284 C1283 1.523 . S
C1285 C1269 1.429 . S
C1285 C1281 1.429 . S
C1285 C1286 1.523 . S
C1286 C1270 1.368 . S
C1286 C1282 1.368 . S
C1286 C1285 1.523 . S
H1287 C1262 0.950 . S
H1288 C1264 0.950 . S
H1289 C1265 0.949 . S
H1290 C1267 0.950 . S
H1291 C1269 0.950 . S
C1292 C1293 1.349 . S
C1292 C1294 1.327 . S
C1292 H1317 0.950 1_545 S
C1293 C1292 1.349 . S
C1293 C1309 1.349 . S
C1294 C1292 1.327 . S
C1294 C1313 1.429 . S
C1294 H1318 0.950 1_545 S
C1295 C1312 1.574 . S
C1295 C1314 1.368 . S
C1295 H1319 0.949 . S
H1296 C1300 0.921 1_565 S
C1297 C1298 1.349 . S
C1297 C1299 1.327 . S
C1297 H1320 0.950 . S
C1298 C1297 1.349 . S
C1298 C1310 1.349 . S
C1299 C1297 1.327 . S
C1299 C1315 1.429 . S
C1299 H1321 0.950 . S
C1300 H1296 0.921 1_545 S
C1300 C1308 1.574 . S
C1300 C1316 1.368 . S
H1301 C1309 0.950 . S
H1302 C1307 0.950 . S
H1303 C1308 0.949 1_565 S
H1304 C1310 0.950 . S
H1305 C1311 0.950 . S
H1306 C1312 0.949 . S
C1307 H1302 0.950 . S
C1307 C1309 1.327 . S
C1307 C1313 1.429 . S
C1308 C1300 1.574 . S
C1308 H1303 0.949 1_545 S
C1308 C1314 1.368 . S
C1309 C1293 1.349 . S
C1309 H1301 0.950 . S
C1309 C1307 1.327 . S
C1310 C1298 1.349 . S
C1310 H1304 0.950 . S
C1310 C1311 1.327 . S
C1311 H1305 0.950 . S
C1311 C1310 1.327 . S
C1311 C1315 1.429 . S
C1312 C1295 1.574 . S
C1312 H1306 0.949 . S
C1312 C1316 1.368 . S
C1313 C1294 1.429 . S
C1313 C1307 1.429 . S
C1313 C1314 1.523 . S
C1314 C1295 1.368 . S
C1314 C1308 1.368 . S
C1314 C1313 1.523 . S
C1315 C1299 1.429 . S
C1315 C1311 1.429 . S
C1315 C1316 1.523 . S
C1316 C1300 1.368 . S
C1316 C1312 1.368 . S
C1316 C1315 1.523 . S
H1317 C1292 0.950 1_565 S
H1318 C1294 0.950 1_565 S
H1319 C1295 0.949 . S
H1320 C1297 0.950 . S
H1321 C1299 0.950 . S
C1322 C1323 1.349 . S
C1322 C1324 1.327 . S
C1322 H1347 0.950 . S
C1323 C1322 1.349 . S
C1323 C1339 1.328 1_554 S
C1324 C1322 1.327 . S
C1324 C1343 1.429 . S
C1324 H1348 0.950 . S
C1325 C1342 1.574 . S
C1325 C1344 1.368 1_556 S
C1325 H1349 0.949 . S
H1326 C1330 0.949 . S
C1327 C1328 1.381 . S
C1327 C1329 1.326 . S
C1327 H1350 0.920 1_554 S
C1328 C1327 1.381 . S
C1328 C1340 1.349 . S
C1329 C1327 1.326 . S
C1329 C1345 1.434 . S
C1329 H1351 0.944 1_554 S
C1330 H1326 0.949 . S
C1330 C1338 1.574 . S
C1330 C1346 1.368 . S
H1331 C1339 0.972 . S
H1332 C1337 0.981 . S
H1333 C1338 0.949 . S
H1334 C1340 0.950 . S
H1335 C1341 0.950 . S
H1336 C1342 0.949 . S
C1337 H1332 0.981 . S
C1337 C1339 1.327 . S
C1337 C1343 1.399 1_556 S
C1338 C1330 1.574 . S
C1338 H1333 0.949 . S
C1338 C1344 1.368 . S
C1339 C1323 1.328 1_556 S
C1339 H1331 0.972 . S
C1339 C1337 1.327 . S
C1340 C1328 1.349 . S
C1340 H1334 0.950 . S
C1340 C1341 1.327 . S
C1341 H1335 0.950 . S
C1341 C1340 1.327 . S
C1341 C1345 1.429 . S
C1342 C1325 1.574 . S
C1342 H1336 0.949 . S
C1342 C1346 1.368 1_556 S
C1343 C1324 1.429 . S
C1343 C1337 1.399 1_554 S
C1343 C1344 1.523 . S
C1344 C1325 1.368 1_554 S
C1344 C1338 1.368 . S
C1344 C1343 1.523 . S
C1345 C1329 1.434 . S
C1345 C1341 1.429 . S
C1345 C1346 1.523 . S
C1346 C1330 1.368 . S
C1346 C1342 1.368 1_554 S
C1346 C1345 1.523 . S
H1347 C1322 0.950 . S
H1348 C1324 0.950 . S
H1349 C1325 0.949 . S
H1350 C1327 0.920 1_556 S
H1351 C1329 0.944 1_556 S
C1352 C1353 1.349 . S
C1352 C1354 1.327 . S
C1352 H1377 0.950 . S
C1353 C1352 1.349 . S
C1353 C1369 1.349 . S
C1354 C1352 1.327 . S
C1354 C1373 1.429 . S
C1354 H1378 0.950 . S
C1355 C1372 1.574 . S
C1355 C1374 1.368 . S
C1355 H1379 0.949 . S
H1356 C1360 0.949 . S
C1357 C1358 1.349 . S
C1357 C1359 1.327 . S
C1357 H1380 0.950 . S
C1358 C1357 1.349 . S
C1358 C1370 1.349 . S
C1359 C1357 1.327 . S
C1359 C1375 1.429 . S
C1359 H1381 0.950 . S
C1360 H1356 0.949 . S
C1360 C1368 1.574 . S
C1360 C1376 1.368 . S
H1361 C1369 0.950 . S
H1362 C1367 0.950 . S
H1363 C1368 0.949 . S
H1364 C1370 0.950 . S
H1365 C1371 0.950 . S
H1366 C1372 0.949 . S
C1367 H1362 0.950 . S
C1367 C1369 1.327 . S
C1367 C1373 1.429 . S
C1368 C1360 1.574 . S
C1368 H1363 0.949 . S
C1368 C1374 1.368 . S
C1369 C1353 1.349 . S
C1369 H1361 0.950 . S
C1369 C1367 1.327 . S
C1370 C1358 1.349 . S
C1370 H1364 0.950 . S
C1370 C1371 1.327 . S
C1371 H1365 0.950 . S
C1371 C1370 1.327 . S
C1371 C1375 1.429 . S
C1372 C1355 1.574 . S
C1372 H1366 0.949 . S
C1372 C1376 1.368 . S
C1373 C1354 1.429 . S
C1373 C1367 1.429 . S
C1373 C1374 1.523 . S
C1374 C1355 1.368 . S
C1374 C1368 1.368 . S
C1374 C1373 1.523 . S
C1375 C1359 1.429 . S
C1375 C1371 1.429 . S
C1375 C1376 1.523 . S
C1376 C1360 1.368 . S
C1376 C1372 1.368 . S
C1376 C1375 1.523 . S
H1377 C1352 0.950 . S
H1378 C1354 0.950 . S
H1379 C1355 0.949 . S
H1380 C1357 0.950 . S
H1381 C1359 0.950 . S
C1382 C1383 1.349 . S
C1382 C1384 1.327 . S
C1382 H1407 0.950 . S
C1383 C1382 1.349 . S
C1383 C1399 1.349 . S
C1384 C1382 1.327 . S
C1384 C1403 1.429 . S
C1384 H1408 0.950 . S
C1385 C1402 1.574 . S
C1385 C1404 1.368 . S
C1385 H1409 0.949 . S
H1386 C1390 0.949 . S
C1387 C1388 1.349 . S
C1387 C1389 1.327 . S
C1387 H1410 0.950 . S
C1388 C1387 1.349 . S
C1388 C1400 1.349 . S
C1389 C1387 1.327 . S
C1389 C1405 1.429 . S
C1389 H1411 0.950 . S
C1390 H1386 0.949 . S
C1390 C1398 1.574 . S
C1390 C1406 1.368 . S
H1391 C1399 0.950 . S
H1392 C1397 0.950 . S
H1393 C1398 0.949 . S
H1394 C1400 0.950 . S
H1395 C1401 0.950 . S
H1396 C1402 0.949 . S
C1397 H1392 0.950 . S
C1397 C1399 1.327 . S
C1397 C1403 1.429 . S
C1398 C1390 1.574 . S
C1398 H1393 0.949 . S
C1398 C1404 1.368 . S
C1399 C1383 1.349 . S
C1399 H1391 0.950 . S
C1399 C1397 1.327 . S
C1400 C1388 1.349 . S
C1400 H1394 0.950 . S
C1400 C1401 1.327 . S
C1401 H1395 0.950 . S
C1401 C1400 1.327 . S
C1401 C1405 1.429 . S
C1402 C1385 1.574 . S
C1402 H1396 0.949 . S
C1402 C1406 1.368 . S
C1403 C1384 1.429 . S
C1403 C1397 1.429 . S
C1403 C1404 1.523 . S
C1404 C1385 1.368 . S
C1404 C1398 1.368 . S
C1404 C1403 1.523 . S
C1405 C1389 1.429 . S
C1405 C1401 1.429 . S
C1405 C1406 1.523 . S
C1406 C1390 1.368 . S
C1406 C1402 1.368 . S
C1406 C1405 1.523 . S
H1407 C1382 0.950 . S
H1408 C1384 0.950 . S
H1409 C1385 0.949 . S
H1410 C1387 0.950 . S
H1411 C1389 0.950 . S
C1412 C1413 1.349 . S
C1412 C1414 1.327 . S
C1412 H1437 0.950 . S
C1413 C1412 1.349 . S
C1413 C1429 1.349 . S
C1414 C1412 1.327 . S
C1414 C1433 1.429 . S
C1414 H1438 0.950 . S
C1415 C1432 1.574 . S
C1415 C1434 1.368 . S
C1415 H1439 0.949 . S
H1416 C1420 0.949 . S
C1417 C1418 1.349 . S
C1417 C1419 1.327 . S
C1417 H1440 0.950 . S
C1418 C1417 1.349 . S
C1418 C1430 1.349 . S
C1419 C1417 1.327 . S
C1419 C1435 1.429 . S
C1419 H1441 0.950 . S
C1420 H1416 0.949 . S
C1420 C1428 1.574 . S
C1420 C1436 1.368 . S
H1421 C1429 0.950 . S
H1422 C1427 0.950 . S
H1423 C1428 0.949 . S
H1424 C1430 0.950 . S
H1425 C1431 0.950 . S
H1426 C1432 0.949 . S
C1427 H1422 0.950 . S
C1427 C1429 1.327 . S
C1427 C1433 1.429 . S
C1428 C1420 1.574 . S
C1428 H1423 0.949 . S
C1428 C1434 1.368 . S
C1429 C1413 1.349 . S
C1429 H1421 0.950 . S
C1429 C1427 1.327 . S
C1430 C1418 1.349 . S
C1430 H1424 0.950 . S
C1430 C1431 1.327 . S
C1431 H1425 0.950 . S
C1431 C1430 1.327 . S
C1431 C1435 1.429 . S
C1432 C1415 1.574 . S
C1432 H1426 0.949 . S
C1432 C1436 1.368 . S
C1433 C1414 1.429 . S
C1433 C1427 1.429 . S
C1433 C1434 1.523 . S
C1434 C1415 1.368 . S
C1434 C1428 1.368 . S
C1434 C1433 1.523 . S
C1435 C1419 1.429 . S
C1435 C1431 1.429 . S
C1435 C1436 1.523 . S
C1436 C1420 1.368 . S
C1436 C1432 1.368 . S
C1436 C1435 1.523 . S
H1437 C1412 0.950 . S
H1438 C1414 0.950 . S
H1439 C1415 0.949 . S
H1440 C1417 0.950 . S
H1441 C1419 0.950 . S
C1442 C1443 1.349 . S
C1442 C1444 1.327 . S
C1442 H1467 0.950 . S
C1443 C1442 1.349 . S
C1443 C1459 1.349 . S
C1444 C1442 1.327 . S
C1444 C1463 1.429 . S
C1444 H1468 0.950 . S
C1445 C1462 1.574 . S
C1445 C1464 1.368 . S
C1445 H1469 0.949 . S
H1446 C1450 0.949 . S
C1447 C1448 1.349 . S
C1447 C1449 1.327 . S
C1447 H1470 0.950 . S
C1448 C1447 1.349 . S
C1448 C1460 1.349 . S
C1449 C1447 1.327 . S
C1449 C1465 1.429 . S
C1449 H1471 0.950 . S
C1450 H1446 0.949 . S
C1450 C1458 1.574 . S
C1450 C1466 1.368 . S
H1451 C1459 0.950 . S
H1452 C1457 0.950 . S
H1453 C1458 0.949 . S
H1454 C1460 0.950 . S
H1455 C1461 0.950 . S
H1456 C1462 0.949 . S
C1457 H1452 0.950 . S
C1457 C1459 1.327 . S
C1457 C1463 1.429 . S
C1458 C1450 1.574 . S
C1458 H1453 0.949 . S
C1458 C1464 1.368 . S
C1459 C1443 1.349 . S
C1459 H1451 0.950 . S
C1459 C1457 1.327 . S
C1460 C1448 1.349 . S
C1460 H1454 0.950 . S
C1460 C1461 1.327 . S
C1461 H1455 0.950 . S
C1461 C1460 1.327 . S
C1461 C1465 1.429 . S
C1462 C1445 1.574 . S
C1462 H1456 0.949 . S
C1462 C1466 1.368 . S
C1463 C1444 1.429 . S
C1463 C1457 1.429 . S
C1463 C1464 1.523 . S
C1464 C1445 1.368 . S
C1464 C1458 1.368 . S
C1464 C1463 1.523 . S
C1465 C1449 1.429 . S
C1465 C1461 1.429 . S
C1465 C1466 1.523 . S
C1466 C1450 1.368 . S
C1466 C1462 1.368 . S
C1466 C1465 1.523 . S
H1467 C1442 0.950 . S
H1468 C1444 0.950 . S
H1469 C1445 0.949 . S
H1470 C1447 0.950 . S
H1471 C1449 0.950 . S
C1472 C1473 1.349 . S
C1472 C1474 1.327 . S
C1472 H1497 0.950 . S
C1473 C1472 1.349 . S
C1473 C1489 1.349 . S
C1474 C1472 1.327 . S
C1474 C1493 1.429 . S
C1474 H1498 0.950 . S
C1475 C1492 1.574 . S
C1475 C1494 1.368 . S
C1475 H1499 0.949 . S
H1476 C1480 0.949 . S
C1477 C1478 1.349 . S
C1477 C1479 1.327 . S
C1477 H1500 0.950 . S
C1478 C1477 1.349 . S
C1478 C1490 1.349 . S
C1479 C1477 1.327 . S
C1479 C1495 1.429 . S
C1479 H1501 0.950 . S
C1480 H1476 0.949 . S
C1480 C1488 1.574 . S
C1480 C1496 1.368 . S
H1481 C1489 0.950 . S
H1482 C1487 0.950 . S
H1483 C1488 0.949 . S
H1484 C1490 0.950 . S
H1485 C1491 0.950 . S
H1486 C1492 0.949 . S
C1487 H1482 0.950 . S
C1487 C1489 1.327 . S
C1487 C1493 1.429 . S
C1488 C1480 1.574 . S
C1488 H1483 0.949 . S
C1488 C1494 1.368 . S
C1489 C1473 1.349 . S
C1489 H1481 0.950 . S
C1489 C1487 1.327 . S
C1490 C1478 1.349 . S
C1490 H1484 0.950 . S
C1490 C1491 1.327 . S
C1491 H1485 0.950 . S
C1491 C1490 1.327 . S
C1491 C1495 1.429 . S
C1492 C1475 1.574 . S
C1492 H1486 0.949 . S
C1492 C1496 1.368 . S
C1493 C1474 1.429 . S
C1493 C1487 1.429 . S
C1493 C1494 1.523 . S
C1494 C1475 1.368 . S
C1494 C1488 1.368 . S
C1494 C1493 1.523 . S
C1495 C1479 1.429 . S
C1495 C1491 1.429 . S
C1495 C1496 1.523 . S
C1496 C1480 1.368 . S
C1496 C1492 1.368 . S
C1496 C1495 1.523 . S
H1497 C1472 0.950 . S
H1498 C1474 0.950 . S
H1499 C1475 0.949 . S
H1500 C1477 0.950 . S
H1501 C1479 0.950 . S
C1502 C1503 1.349 . S
C1502 C1504 1.327 . S
C1502 H1527 0.950 . S
C1503 C1502 1.349 . S
C1503 C1519 1.349 . S
C1504 C1502 1.327 . S
C1504 C1523 1.429 . S
C1504 H1528 0.950 . S
C1505 C1522 1.574 . S
C1505 C1524 1.368 . S
C1505 H1529 0.949 . S
H1506 C1510 0.949 . S
C1507 C1508 1.349 . S
C1507 C1509 1.327 . S
C1507 H1530 0.950 . S
C1508 C1507 1.349 . S
C1508 C1520 1.349 . S
C1509 C1507 1.327 . S
C1509 C1525 1.429 . S
C1509 H1531 0.950 . S
C1510 H1506 0.949 . S
C1510 C1518 1.574 . S
C1510 C1526 1.368 . S
H1511 C1519 0.950 . S
H1512 C1517 0.950 . S
H1513 C1518 0.949 . S
H1514 C1520 0.950 . S
H1515 C1521 0.950 . S
H1516 C1522 0.949 . S
C1517 H1512 0.950 . S
C1517 C1519 1.327 . S
C1517 C1523 1.429 . S
C1518 C1510 1.574 . S
C1518 H1513 0.949 . S
C1518 C1524 1.368 . S
C1519 C1503 1.349 . S
C1519 H1511 0.950 . S
C1519 C1517 1.327 . S
C1520 C1508 1.349 . S
C1520 H1514 0.950 . S
C1520 C1521 1.327 . S
C1521 H1515 0.950 . S
C1521 C1520 1.327 . S
C1521 C1525 1.429 . S
C1522 C1505 1.574 . S
C1522 H1516 0.949 . S
C1522 C1526 1.368 . S
C1523 C1504 1.429 . S
C1523 C1517 1.429 . S
C1523 C1524 1.523 . S
C1524 C1505 1.368 . S
C1524 C1518 1.368 . S
C1524 C1523 1.523 . S
C1525 C1509 1.429 . S
C1525 C1521 1.429 . S
C1525 C1526 1.523 . S
C1526 C1510 1.368 . S
C1526 C1522 1.368 . S
C1526 C1525 1.523 . S
H1527 C1502 0.950 . S
H1528 C1504 0.950 . S
H1529 C1505 0.949 . S
H1530 C1507 0.950 . S
H1531 C1509 0.950 . S
C1532 C1533 1.349 . S
C1532 C1534 1.327 . S
C1532 H1557 0.950 . S
C1533 C1532 1.349 . S
C1533 C1549 1.349 . S
C1534 C1532 1.327 . S
C1534 C1553 1.429 . S
C1534 H1558 0.950 . S
C1535 C1552 1.574 . S
C1535 C1554 1.368 . S
C1535 H1559 0.949 . S
H1536 C1540 0.949 . S
C1537 C1538 1.349 . S
C1537 C1539 1.327 . S
C1537 H1560 0.950 . S
C1538 C1537 1.349 . S
C1538 C1550 1.349 . S
C1539 C1537 1.327 . S
C1539 C1555 1.429 . S
C1539 H1561 0.950 . S
C1540 H1536 0.949 . S
C1540 C1548 1.574 . S
C1540 C1556 1.368 . S
H1541 C1549 0.950 . S
H1542 C1547 0.950 . S
H1543 C1548 0.949 . S
H1544 C1550 0.950 . S
H1545 C1551 0.950 . S
H1546 C1552 0.949 . S
C1547 H1542 0.950 . S
C1547 C1549 1.327 . S
C1547 C1553 1.429 . S
C1548 C1540 1.574 . S
C1548 H1543 0.949 . S
C1548 C1554 1.368 . S
C1549 C1533 1.349 . S
C1549 H1541 0.950 . S
C1549 C1547 1.327 . S
C1550 C1538 1.349 . S
C1550 H1544 0.950 . S
C1550 C1551 1.327 . S
C1551 H1545 0.950 . S
C1551 C1550 1.327 . S
C1551 C1555 1.429 . S
C1552 C1535 1.574 . S
C1552 H1546 0.949 . S
C1552 C1556 1.368 . S
C1553 C1534 1.429 . S
C1553 C1547 1.429 . S
C1553 C1554 1.523 . S
C1554 C1535 1.368 . S
C1554 C1548 1.368 . S
C1554 C1553 1.523 . S
C1555 C1539 1.429 . S
C1555 C1551 1.429 . S
C1555 C1556 1.523 . S
C1556 C1540 1.368 . S
C1556 C1552 1.368 . S
C1556 C1555 1.523 . S
H1557 C1532 0.950 . S
H1558 C1534 0.950 . S
H1559 C1535 0.949 . S
H1560 C1537 0.950 . S
H1561 C1539 0.950 . S
C1562 C1563 1.349 . S
C1562 C1564 1.327 . S
C1562 H1587 0.950 . S
C1563 C1562 1.349 . S
C1563 C1579 1.349 . S
C1564 C1562 1.327 . S
C1564 C1583 1.429 . S
C1564 H1588 0.950 . S
C1565 C1582 1.574 . S
C1565 C1584 1.368 . S
C1565 H1589 0.949 . S
H1566 C1570 0.949 . S
C1567 C1568 1.349 . S
C1567 C1569 1.327 . S
C1567 H1590 0.950 . S
C1568 C1567 1.349 . S
C1568 C1580 1.349 . S
C1569 C1567 1.327 . S
C1569 C1585 1.429 . S
C1569 H1591 0.950 . S
C1570 H1566 0.949 . S
C1570 C1578 1.574 . S
C1570 C1586 1.368 . S
H1571 C1579 0.950 . S
H1572 C1577 0.950 . S
H1573 C1578 0.949 . S
H1574 C1580 0.950 . S
H1575 C1581 0.950 . S
H1576 C1582 0.949 . S
C1577 H1572 0.950 . S
C1577 C1579 1.327 . S
C1577 C1583 1.429 . S
C1578 C1570 1.574 . S
C1578 H1573 0.949 . S
C1578 C1584 1.368 . S
C1579 C1563 1.349 . S
C1579 H1571 0.950 . S
C1579 C1577 1.327 . S
C1580 C1568 1.349 . S
C1580 H1574 0.950 . S
C1580 C1581 1.327 . S
C1581 H1575 0.950 . S
C1581 C1580 1.327 . S
C1581 C1585 1.429 . S
C1582 C1565 1.574 . S
C1582 H1576 0.949 . S
C1582 C1586 1.368 . S
C1583 C1564 1.429 . S
C1583 C1577 1.429 . S
C1583 C1584 1.523 . S
C1584 C1565 1.368 . S
C1584 C1578 1.368 . S
C1584 C1583 1.523 . S
C1585 C1569 1.429 . S
C1585 C1581 1.429 . S
C1585 C1586 1.523 . S
C1586 C1570 1.368 . S
C1586 C1582 1.368 . S
C1586 C1585 1.523 . S
H1587 C1562 0.950 . S
H1588 C1564 0.950 . S
H1589 C1565 0.949 . S
H1590 C1567 0.950 . S
H1591 C1569 0.950 . S
C1592 C1593 1.349 . S
C1592 C1594 1.327 . S
C1592 H1617 0.950 . S
C1593 C1592 1.349 . S
C1593 C1609 1.349 . S
C1594 C1592 1.327 . S
C1594 C1613 1.429 . S
C1594 H1618 0.950 . S
C1595 C1612 1.574 . S
C1595 C1614 1.368 . S
C1595 H1619 0.949 . S
H1596 C1600 0.949 . S
C1597 C1598 1.349 . S
C1597 C1599 1.327 . S
C1597 H1620 0.950 . S
C1598 C1597 1.349 . S
C1598 C1610 1.349 . S
C1599 C1597 1.327 . S
C1599 C1615 1.429 . S
C1599 H1621 0.950 . S
C1600 H1596 0.949 . S
C1600 C1608 1.574 . S
C1600 C1616 1.368 . S
H1601 C1609 0.950 . S
H1602 C1607 0.950 . S
H1603 C1608 0.949 . S
H1604 C1610 0.950 . S
H1605 C1611 0.950 . S
H1606 C1612 0.949 . S
C1607 H1602 0.950 . S
C1607 C1609 1.327 . S
C1607 C1613 1.429 . S
C1608 C1600 1.574 . S
C1608 H1603 0.949 . S
C1608 C1614 1.368 . S
C1609 C1593 1.349 . S
C1609 H1601 0.950 . S
C1609 C1607 1.327 . S
C1610 C1598 1.349 . S
C1610 H1604 0.950 . S
C1610 C1611 1.327 . S
C1611 H1605 0.950 . S
C1611 C1610 1.327 . S
C1611 C1615 1.429 . S
C1612 C1595 1.574 . S
C1612 H1606 0.949 . S
C1612 C1616 1.368 . S
C1613 C1594 1.429 . S
C1613 C1607 1.429 . S
C1613 C1614 1.523 . S
C1614 C1595 1.368 . S
C1614 C1608 1.368 . S
C1614 C1613 1.523 . S
C1615 C1599 1.429 . S
C1615 C1611 1.429 . S
C1615 C1616 1.523 . S
C1616 C1600 1.368 . S
C1616 C1612 1.368 . S
C1616 C1615 1.523 . S
H1617 C1592 0.950 . S
H1618 C1594 0.950 . S
H1619 C1595 0.949 . S
H1620 C1597 0.950 . S
H1621 C1599 0.950 . S
C1622 C1623 1.349 . S
C1622 C1624 1.327 . S
C1622 H1647 0.950 1_554 S
C1623 C1622 1.349 . S
C1623 C1639 1.349 . S
C1624 C1622 1.327 . S
C1624 C1643 1.429 . S
C1624 H1648 0.950 1_554 S
C1625 C1642 1.574 . S
C1625 C1644 1.368 . S
C1625 H1649 0.949 . S
H1626 C1630 0.949 1_556 S
C1627 C1628 1.349 . S
C1627 C1629 1.327 . S
C1627 H1650 0.950 . S
C1628 C1627 1.349 . S
C1628 C1640 1.349 . S
C1629 C1627 1.327 . S
C1629 C1645 1.429 . S
C1629 H1651 0.950 . S
C1630 H1626 0.949 1_554 S
C1630 C1638 1.574 . S
C1630 C1646 1.368 . S
H1631 C1639 0.950 . S
H1632 C1637 0.950 . S
H1633 C1638 0.949 1_556 S
H1634 C1640 0.950 1_556 S
H1635 C1641 0.950 1_556 S
H1636 C1642 0.949 . S
C1637 H1632 0.950 . S
C1637 C1639 1.327 . S
C1637 C1643 1.429 . S
C1638 C1630 1.574 . S
C1638 H1633 0.949 1_554 S
C1638 C1644 1.368 . S
C1639 C1623 1.349 . S
C1639 H1631 0.950 . S
C1639 C1637 1.327 . S
C1640 C1628 1.349 . S
C1640 H1634 0.950 1_554 S
C1640 C1641 1.327 . S
C1641 H1635 0.950 1_554 S
C1641 C1640 1.327 . S
C1641 C1645 1.429 . S
C1642 C1625 1.574 . S
C1642 H1636 0.949 . S
C1642 C1646 1.368 . S
C1643 C1624 1.429 . S
C1643 C1637 1.429 . S
C1643 C1644 1.523 . S
C1644 C1625 1.368 . S
C1644 C1638 1.368 . S
C1644 C1643 1.523 . S
C1645 C1629 1.429 . S
C1645 C1641 1.429 . S
C1645 C1646 1.523 . S
C1646 C1630 1.368 . S
C1646 C1642 1.368 . S
C1646 C1645 1.523 . S
H1647 C1622 0.950 1_556 S
H1648 C1624 0.950 1_556 S
H1649 C1625 0.949 . S
H1650 C1627 0.950 . S
H1651 C1629 0.950 . S
C1652 C1653 1.349 . S
C1652 C1654 1.327 . S
C1652 H1677 0.950 . S
C1653 C1652 1.349 . S
C1653 C1669 1.349 . S
C1654 C1652 1.327 . S
C1654 C1673 1.429 . S
C1654 H1678 0.950 . S
C1655 C1672 1.574 . S
C1655 C1674 1.368 . S
C1655 H1679 0.949 . S
H1656 C1660 0.949 . S
C1657 C1658 1.349 . S
C1657 C1659 1.327 . S
C1657 H1680 0.950 . S
C1658 C1657 1.349 . S
C1658 C1670 1.349 . S
C1659 C1657 1.327 . S
C1659 C1675 1.429 . S
C1659 H1681 0.950 . S
C1660 H1656 0.949 . S
C1660 C1668 1.574 . S
C1660 C1676 1.368 . S
H1661 C1669 0.950 . S
H1662 C1667 0.950 . S
H1663 C1668 0.949 . S
H1664 C1670 0.950 . S
H1665 C1671 0.950 . S
H1666 C1672 0.949 . S
C1667 H1662 0.950 . S
C1667 C1669 1.327 . S
C1667 C1673 1.429 . S
C1668 C1660 1.574 . S
C1668 H1663 0.949 . S
C1668 C1674 1.368 . S
C1669 C1653 1.349 . S
C1669 H1661 0.950 . S
C1669 C1667 1.327 . S
C1670 C1658 1.349 . S
C1670 H1664 0.950 . S
C1670 C1671 1.327 . S
C1671 H1665 0.950 . S
C1671 C1670 1.327 . S
C1671 C1675 1.429 . S
C1672 C1655 1.574 . S
C1672 H1666 0.949 . S
C1672 C1676 1.368 . S
C1673 C1654 1.429 . S
C1673 C1667 1.429 . S
C1673 C1674 1.523 . S
C1674 C1655 1.368 . S
C1674 C1668 1.368 . S
C1674 C1673 1.523 . S
C1675 C1659 1.429 . S
C1675 C1671 1.429 . S
C1675 C1676 1.523 . S
C1676 C1660 1.368 . S
C1676 C1672 1.368 . S
C1676 C1675 1.523 . S
H1677 C1652 0.950 . S
H1678 C1654 0.950 . S
H1679 C1655 0.949 . S
H1680 C1657 0.950 . S
H1681 C1659 0.950 . S
C1682 C1683 1.349 . S
C1682 C1684 1.327 . S
C1682 H1707 0.950 . S
C1683 C1682 1.349 . S
C1683 C1699 1.349 . S
C1684 C1682 1.327 . S
C1684 C1703 1.429 . S
C1684 H1708 0.950 . S
C1685 C1702 1.574 . S
C1685 C1704 1.368 . S
C1685 H1709 0.949 . S
H1686 C1690 0.949 . S
C1687 C1688 1.349 . S
C1687 C1689 1.327 . S
C1687 H1710 0.950 . S
C1688 C1687 1.349 . S
C1688 C1700 1.349 . S
C1689 C1687 1.327 . S
C1689 C1705 1.429 . S
C1689 H1711 0.950 . S
C1690 H1686 0.949 . S
C1690 C1698 1.574 . S
C1690 C1706 1.368 . S
H1691 C1699 0.950 . S
H1692 C1697 0.950 . S
H1693 C1698 0.949 . S
H1694 C1700 0.950 . S
H1695 C1701 0.950 . S
H1696 C1702 0.949 . S
C1697 H1692 0.950 . S
C1697 C1699 1.327 . S
C1697 C1703 1.429 . S
C1698 C1690 1.574 . S
C1698 H1693 0.949 . S
C1698 C1704 1.368 . S
C1699 C1683 1.349 . S
C1699 H1691 0.950 . S
C1699 C1697 1.327 . S
C1700 C1688 1.349 . S
C1700 H1694 0.950 . S
C1700 C1701 1.327 . S
C1701 H1695 0.950 . S
C1701 C1700 1.327 . S
C1701 C1705 1.429 . S
C1702 C1685 1.574 . S
C1702 H1696 0.949 . S
C1702 C1706 1.368 . S
C1703 C1684 1.429 . S
C1703 C1697 1.429 . S
C1703 C1704 1.523 . S
C1704 C1685 1.368 . S
C1704 C1698 1.368 . S
C1704 C1703 1.523 . S
C1705 C1689 1.429 . S
C1705 C1701 1.429 . S
C1705 C1706 1.523 . S
C1706 C1690 1.368 . S
C1706 C1702 1.368 . S
C1706 C1705 1.523 . S
H1707 C1682 0.950 . S
H1708 C1684 0.950 . S
H1709 C1685 0.949 . S
H1710 C1687 0.950 . S
H1711 C1689 0.950 . S
C1712 C1713 1.349 . S
C1712 C1714 1.327 . S
C1712 H1737 0.950 . S
C1713 C1712 1.349 . S
C1713 C1729 1.349 . S
C1714 C1712 1.327 . S
C1714 C1733 1.429 . S
C1714 H1738 0.950 . S
C1715 C1732 1.574 . S
C1715 C1734 1.368 . S
C1715 H1739 0.949 . S
H1716 C1720 0.949 . S
C1717 C1718 1.349 . S
C1717 C1719 1.327 . S
C1717 H1740 0.950 . S
C1718 C1717 1.349 . S
C1718 C1730 1.349 . S
C1719 C1717 1.327 . S
C1719 C1735 1.429 . S
C1719 H1741 0.950 . S
C1720 H1716 0.949 . S
C1720 C1728 1.574 . S
C1720 C1736 1.368 . S
H1721 C1729 0.950 . S
H1722 C1727 0.950 . S
H1723 C1728 0.949 . S
H1724 C1730 0.950 . S
H1725 C1731 0.950 . S
H1726 C1732 0.949 . S
C1727 H1722 0.950 . S
C1727 C1729 1.327 . S
C1727 C1733 1.429 . S
C1728 C1720 1.574 . S
C1728 H1723 0.949 . S
C1728 C1734 1.368 . S
C1729 C1713 1.349 . S
C1729 H1721 0.950 . S
C1729 C1727 1.327 . S
C1730 C1718 1.349 . S
C1730 H1724 0.950 . S
C1730 C1731 1.327 . S
C1731 H1725 0.950 . S
C1731 C1730 1.327 . S
C1731 C1735 1.429 . S
C1732 C1715 1.574 . S
C1732 H1726 0.949 . S
C1732 C1736 1.368 . S
C1733 C1714 1.429 . S
C1733 C1727 1.429 . S
C1733 C1734 1.523 . S
C1734 C1715 1.368 . S
C1734 C1728 1.368 . S
C1734 C1733 1.523 . S
C1735 C1719 1.429 . S
C1735 C1731 1.429 . S
C1735 C1736 1.523 . S
C1736 C1720 1.368 . S
C1736 C1732 1.368 . S
C1736 C1735 1.523 . S
H1737 C1712 0.950 . S
H1738 C1714 0.950 . S
H1739 C1715 0.949 . S
H1740 C1717 0.950 . S
H1741 C1719 0.950 . S
C1742 C1743 1.349 . S
C1742 C1744 1.327 . S
C1742 H1767 0.950 . S
C1743 C1742 1.349 . S
C1743 C1759 1.349 . S
C1744 C1742 1.327 . S
C1744 C1763 1.429 . S
C1744 H1768 0.950 . S
C1745 C1762 1.574 . S
C1745 C1764 1.368 . S
C1745 H1769 0.949 . S
H1746 C1750 0.949 . S
C1747 C1748 1.349 . S
C1747 C1749 1.327 . S
C1747 H1770 0.950 . S
C1748 C1747 1.349 . S
C1748 C1760 1.349 . S
C1749 C1747 1.327 . S
C1749 C1765 1.429 . S
C1749 H1771 0.950 . S
C1750 H1746 0.949 . S
C1750 C1758 1.574 . S
C1750 C1766 1.368 . S
H1751 C1759 0.950 . S
H1752 C1757 0.950 . S
H1753 C1758 0.949 . S
H1754 C1760 0.950 . S
H1755 C1761 0.950 . S
H1756 C1762 0.949 . S
C1757 H1752 0.950 . S
C1757 C1759 1.327 . S
C1757 C1763 1.429 . S
C1758 C1750 1.574 . S
C1758 H1753 0.949 . S
C1758 C1764 1.368 . S
C1759 C1743 1.349 . S
C1759 H1751 0.950 . S
C1759 C1757 1.327 . S
C1760 C1748 1.349 . S
C1760 H1754 0.950 . S
C1760 C1761 1.327 . S
C1761 H1755 0.950 . S
C1761 C1760 1.327 . S
C1761 C1765 1.429 . S
C1762 C1745 1.574 . S
C1762 H1756 0.949 . S
C1762 C1766 1.368 . S
C1763 C1744 1.429 . S
C1763 C1757 1.429 . S
C1763 C1764 1.523 . S
C1764 C1745 1.368 . S
C1764 C1758 1.368 . S
C1764 C1763 1.523 . S
C1765 C1749 1.429 . S
C1765 C1761 1.429 . S
C1765 C1766 1.523 . S
C1766 C1750 1.368 . S
C1766 C1762 1.368 . S
C1766 C1765 1.523 . S
H1767 C1742 0.950 . S
H1768 C1744 0.950 . S
H1769 C1745 0.949 . S
H1770 C1747 0.950 . S
H1771 C1749 0.950 . S
C1772 C1773 1.349 . S
C1772 C1774 1.327 . S
C1772 H1797 0.950 . S
C1773 C1772 1.349 . S
C1773 C1789 1.349 1_556 S
C1774 C1772 1.327 . S
C1774 C1793 1.429 . S
C1774 H1798 0.950 . S
C1775 C1792 1.574 . S
C1775 C1794 1.368 1_554 S
C1775 H1799 0.949 . S
H1776 C1780 0.949 . S
C1777 C1778 1.349 1_554 S
C1777 C1779 1.327 . S
C1777 H1800 0.950 . S
C1778 C1777 1.349 1_556 S
C1778 C1790 1.349 . S
C1779 C1777 1.327 . S
C1779 C1795 1.429 1_554 S
C1779 H1801 0.950 . S
C1780 H1776 0.949 . S
C1780 C1788 1.574 . S
C1780 C1796 1.368 . S
H1781 C1789 0.950 . S
H1782 C1787 0.950 . S
H1783 C1788 0.949 . S
H1784 C1790 0.950 . S
H1785 C1791 0.950 . S
H1786 C1792 0.949 . S
C1787 H1782 0.950 . S
C1787 C1789 1.327 . S
C1787 C1793 1.429 1_554 S
C1788 C1780 1.574 . S
C1788 H1783 0.949 . S
C1788 C1794 1.368 . S
C1789 C1773 1.349 1_554 S
C1789 H1781 0.950 . S
C1789 C1787 1.327 . S
C1790 C1778 1.349 . S
C1790 H1784 0.950 . S
C1790 C1791 1.327 . S
C1791 H1785 0.950 . S
C1791 C1790 1.327 . S
C1791 C1795 1.429 . S
C1792 C1775 1.574 . S
C1792 H1786 0.949 . S
C1792 C1796 1.368 1_554 S
C1793 C1774 1.429 . S
C1793 C1787 1.429 1_556 S
C1793 C1794 1.523 . S
C1794 C1775 1.368 1_556 S
C1794 C1788 1.368 . S
C1794 C1793 1.523 . S
C1795 C1779 1.429 1_556 S
C1795 C1791 1.429 . S
C1795 C1796 1.523 . S
C1796 C1780 1.368 . S
C1796 C1792 1.368 1_556 S
C1796 C1795 1.523 . S
H1797 C1772 0.950 . S
H1798 C1774 0.950 . S
H1799 C1775 0.949 . S
H1800 C1777 0.950 . S
H1801 C1779 0.950 . S
C1802 C1803 1.349 . S
C1802 C1804 1.327 . S
C1802 H1827 0.950 . S
C1803 C1802 1.349 . S
C1803 C1819 1.349 . S
C1804 C1802 1.327 . S
C1804 C1823 1.429 . S
C1804 H1828 0.950 . S
C1805 C1822 1.574 . S
C1805 C1824 1.368 . S
C1805 H1829 0.949 . S
H1806 C1810 0.949 . S
C1807 C1808 1.349 . S
C1807 C1809 1.327 . S
C1807 H1830 0.950 . S
C1808 C1807 1.349 . S
C1808 C1820 1.349 . S
C1809 C1807 1.327 . S
C1809 C1825 1.429 . S
C1809 H1831 0.950 . S
C1810 H1806 0.949 . S
C1810 C1818 1.574 . S
C1810 C1826 1.368 . S
H1811 C1819 0.950 . S
H1812 C1817 0.950 . S
H1813 C1818 0.949 . S
H1814 C1820 0.950 . S
H1815 C1821 0.950 . S
H1816 C1822 0.949 . S
C1817 H1812 0.950 . S
C1817 C1819 1.327 . S
C1817 C1823 1.429 . S
C1818 C1810 1.574 . S
C1818 H1813 0.949 . S
C1818 C1824 1.368 . S
C1819 C1803 1.349 . S
C1819 H1811 0.950 . S
C1819 C1817 1.327 . S
C1820 C1808 1.349 . S
C1820 H1814 0.950 . S
C1820 C1821 1.327 . S
C1821 H1815 0.950 . S
C1821 C1820 1.327 . S
C1821 C1825 1.429 . S
C1822 C1805 1.574 . S
C1822 H1816 0.949 . S
C1822 C1826 1.368 . S
C1823 C1804 1.429 . S
C1823 C1817 1.429 . S
C1823 C1824 1.523 . S
C1824 C1805 1.368 . S
C1824 C1818 1.368 . S
C1824 C1823 1.523 . S
C1825 C1809 1.429 . S
C1825 C1821 1.429 . S
C1825 C1826 1.523 . S
C1826 C1810 1.368 . S
C1826 C1822 1.368 . S
C1826 C1825 1.523 . S
H1827 C1802 0.950 . S
H1828 C1804 0.950 . S
H1829 C1805 0.949 . S
H1830 C1807 0.950 . S
H1831 C1809 0.950 . S
C1832 C1833 1.349 . S
C1832 C1834 1.327 . S
C1832 H1857 0.950 . S
C1833 C1832 1.349 . S
C1833 C1849 1.349 . S
C1834 C1832 1.327 . S
C1834 C1853 1.429 . S
C1834 H1858 0.950 . S
C1835 C1852 1.574 . S
C1835 C1854 1.368 . S
C1835 H1859 0.949 . S
H1836 C1840 0.949 . S
C1837 C1838 1.349 . S
C1837 C1839 1.327 . S
C1837 H1860 0.950 . S
C1838 C1837 1.349 . S
C1838 C1850 1.349 . S
C1839 C1837 1.327 . S
C1839 C1855 1.429 . S
C1839 H1861 0.950 . S
C1840 H1836 0.949 . S
C1840 C1848 1.574 . S
C1840 C1856 1.368 . S
H1841 C1849 0.950 . S
H1842 C1847 0.950 . S
H1843 C1848 0.949 . S
H1844 C1850 0.950 . S
H1845 C1851 0.950 . S
H1846 C1852 0.949 . S
C1847 H1842 0.950 . S
C1847 C1849 1.327 . S
C1847 C1853 1.429 . S
C1848 C1840 1.574 . S
C1848 H1843 0.949 . S
C1848 C1854 1.368 . S
C1849 C1833 1.349 . S
C1849 H1841 0.950 . S
C1849 C1847 1.327 . S
C1850 C1838 1.349 . S
C1850 H1844 0.950 . S
C1850 C1851 1.327 . S
C1851 H1845 0.950 . S
C1851 C1850 1.327 . S
C1851 C1855 1.429 . S
C1852 C1835 1.574 . S
C1852 H1846 0.949 . S
C1852 C1856 1.368 . S
C1853 C1834 1.429 . S
C1853 C1847 1.429 . S
C1853 C1854 1.523 . S
C1854 C1835 1.368 . S
C1854 C1848 1.368 . S
C1854 C1853 1.523 . S
C1855 C1839 1.429 . S
C1855 C1851 1.429 . S
C1855 C1856 1.523 . S
C1856 C1840 1.368 . S
C1856 C1852 1.368 . S
C1856 C1855 1.523 . S
H1857 C1832 0.950 . S
H1858 C1834 0.950 . S
H1859 C1835 0.949 . S
H1860 C1837 0.950 . S
H1861 C1839 0.950 . S
C1862 C1863 1.349 . S
C1862 C1864 1.327 . S
C1862 H1887 0.950 . S
C1863 C1862 1.349 . S
C1863 C1879 1.349 . S
C1864 C1862 1.327 . S
C1864 C1883 1.429 . S
C1864 H1888 0.950 . S
C1865 C1882 1.574 . S
C1865 C1884 1.368 . S
C1865 H1889 0.949 . S
H1866 C1870 0.949 . S
C1867 C1868 1.349 . S
C1867 C1869 1.327 . S
C1867 H1890 0.950 . S
C1868 C1867 1.349 . S
C1868 C1880 1.349 . S
C1869 C1867 1.327 . S
C1869 C1885 1.429 . S
C1869 H1891 0.950 . S
C1870 H1866 0.949 . S
C1870 C1878 1.574 . S
C1870 C1886 1.368 . S
H1871 C1879 0.950 . S
H1872 C1877 0.950 . S
H1873 C1878 0.949 . S
H1874 C1880 0.950 . S
H1875 C1881 0.950 . S
H1876 C1882 0.949 . S
C1877 H1872 0.950 . S
C1877 C1879 1.327 . S
C1877 C1883 1.429 . S
C1878 C1870 1.574 . S
C1878 H1873 0.949 . S
C1878 C1884 1.368 . S
C1879 C1863 1.349 . S
C1879 H1871 0.950 . S
C1879 C1877 1.327 . S
C1880 C1868 1.349 . S
C1880 H1874 0.950 . S
C1880 C1881 1.327 . S
C1881 H1875 0.950 . S
C1881 C1880 1.327 . S
C1881 C1885 1.429 . S
C1882 C1865 1.574 . S
C1882 H1876 0.949 . S
C1882 C1886 1.368 . S
C1883 C1864 1.429 . S
C1883 C1877 1.429 . S
C1883 C1884 1.523 . S
C1884 C1865 1.368 . S
C1884 C1878 1.368 . S
C1884 C1883 1.523 . S
C1885 C1869 1.429 . S
C1885 C1881 1.429 . S
C1885 C1886 1.523 . S
C1886 C1870 1.368 . S
C1886 C1882 1.368 . S
C1886 C1885 1.523 . S
H1887 C1862 0.950 . S
H1888 C1864 0.950 . S
H1889 C1865 0.949 . S
H1890 C1867 0.950 . S
H1891 C1869 0.950 . S
C1892 C1893 1.349 . S
C1892 C1894 1.327 . S
C1892 H1917 0.950 . S
C1893 C1892 1.349 . S
C1893 C1909 1.349 . S
C1894 C1892 1.327 . S
C1894 C1913 1.429 . S
C1894 H1918 0.950 . S
C1895 C1912 1.574 . S
C1895 C1914 1.368 . S
C1895 H1919 0.949 . S
H1896 C1900 0.949 . S
C1897 C1898 1.349 . S
C1897 C1899 1.327 . S
C1897 H1920 0.950 . S
C1898 C1897 1.349 . S
C1898 C1910 1.349 . S
C1899 C1897 1.327 . S
C1899 C1915 1.429 . S
C1899 H1921 0.950 . S
C1900 H1896 0.949 . S
C1900 C1908 1.574 . S
C1900 C1916 1.368 . S
H1901 C1909 0.950 . S
H1902 C1907 0.950 . S
H1903 C1908 0.949 . S
H1904 C1910 0.950 . S
H1905 C1911 0.950 . S
H1906 C1912 0.949 . S
C1907 H1902 0.950 . S
C1907 C1909 1.327 . S
C1907 C1913 1.429 . S
C1908 C1900 1.574 . S
C1908 H1903 0.949 . S
C1908 C1914 1.368 . S
C1909 C1893 1.349 . S
C1909 H1901 0.950 . S
C1909 C1907 1.327 . S
C1910 C1898 1.349 . S
C1910 H1904 0.950 . S
C1910 C1911 1.327 . S
C1911 H1905 0.950 . S
C1911 C1910 1.327 . S
C1911 C1915 1.429 . S
C1912 C1895 1.574 . S
C1912 H1906 0.949 . S
C1912 C1916 1.368 . S
C1913 C1894 1.429 . S
C1913 C1907 1.429 . S
C1913 C1914 1.523 . S
C1914 C1895 1.368 . S
C1914 C1908 1.368 . S
C1914 C1913 1.523 . S
C1915 C1899 1.429 . S
C1915 C1911 1.429 . S
C1915 C1916 1.523 . S
C1916 C1900 1.368 . S
C1916 C1912 1.368 . S
C1916 C1915 1.523 . S
H1917 C1892 0.950 . S
H1918 C1894 0.950 . S
H1919 C1895 0.949 . S
H1920 C1897 0.950 . S
H1921 C1899 0.950 . S
C1922 C1923 1.349 . S
C1922 C1924 1.327 . S
C1922 H1947 0.950 . S
C1923 C1922 1.349 . S
C1923 C1939 1.349 . S
C1924 C1922 1.327 . S
C1924 C1943 1.429 . S
C1924 H1948 0.950 . S
C1925 C1942 1.574 . S
C1925 C1944 1.368 . S
C1925 H1949 0.949 . S
H1926 C1930 0.949 . S
C1927 C1928 1.349 . S
C1927 C1929 1.327 . S
C1927 H1950 0.950 . S
C1928 C1927 1.349 . S
C1928 C1940 1.349 . S
C1929 C1927 1.327 . S
C1929 C1945 1.429 . S
C1929 H1951 0.950 . S
C1930 H1926 0.949 . S
C1930 C1938 1.574 . S
C1930 C1946 1.368 . S
H1931 C1939 0.950 . S
H1932 C1937 0.950 . S
H1933 C1938 0.949 . S
H1934 C1940 0.950 . S
H1935 C1941 0.950 . S
H1936 C1942 0.949 . S
C1937 H1932 0.950 . S
C1937 C1939 1.327 . S
C1937 C1943 1.429 . S
C1938 C1930 1.574 . S
C1938 H1933 0.949 . S
C1938 C1944 1.368 . S
C1939 C1923 1.349 . S
C1939 H1931 0.950 . S
C1939 C1937 1.327 . S
C1940 C1928 1.349 . S
C1940 H1934 0.950 . S
C1940 C1941 1.327 . S
C1941 H1935 0.950 . S
C1941 C1940 1.327 . S
C1941 C1945 1.429 . S
C1942 C1925 1.574 . S
C1942 H1936 0.949 . S
C1942 C1946 1.368 . S
C1943 C1924 1.429 . S
C1943 C1937 1.429 . S
C1943 C1944 1.523 . S
C1944 C1925 1.368 . S
C1944 C1938 1.368 . S
C1944 C1943 1.523 . S
C1945 C1929 1.429 . S
C1945 C1941 1.429 . S
C1945 C1946 1.523 . S
C1946 C1930 1.368 . S
C1946 C1942 1.368 . S
C1946 C1945 1.523 . S
H1947 C1922 0.950 . S
H1948 C1924 0.950 . S
H1949 C1925 0.949 . S
H1950 C1927 0.950 . S
H1951 C1929 0.950 . S
C513 N18 0.544 . S
C518 C36 0.545 . S
C543 N77 0.544 . S
C548 C61 0.545 1_655 S
C573 C100 1.196 . S
C578 C66 1.199 . S
C603 C6 1.199 . S
C608 C125 1.196 . S
C633 C4 1.404 . S
C638 C290 1.389 . S
C663 C228 1.383 . S
C668 C38 1.359 . S
C693 N82 0.839 . S
C698 C322 0.840 . S
C723 C102 1.306 . S
C728 C445 1.318 . S
C753 C285 1.383 . S
C758 C34 1.359 . S
C783 C390 1.389 . S
C788 C93 1.404 . S
C813 C452 1.318 . S
C818 C98 1.306 . S
C843 N13 0.839 . S
C848 C358 0.840 . S
C873 C2 1.000 . S
C878 C262 1.001 . S
C903 N402 0.326 . S
C908 N146 0.251 . S
C933 C166 0.940 . S
C938 C477 0.940 . S
C963 N370 0.201 . S
C968 N210 0.187 . S
C993 C70 1.000 . S
C998 C226 1.002 . S
C1023 N301 0.326 . S
C1028 N141 0.251 . S
C1053 N205 0.187 . S
C1058 N333 0.201 . S
C1083 N178 0.396 . S
C1088 C354 0.390 . S
C1113 C294 0.804 . S
C1118 C189 0.807 . S
C1143 C356 1.196 . S
C1148 C230 1.206 . S
C1173 N173 0.214 . S
C1178 C157 0.186 . S
C1203 C292 0.181 . S
C1208 N269 0.202 . S
C1233 N429 0.359 . S
C1238 C381 0.336 . S
C1263 C196 0.827 . S
C1268 C162 0.830 . S
C1293 C317 1.068 . S
C1298 C454 1.068 . S
C1323 C422 0.874 . S
C1328 C29 0.873 . S
C1353 C68 0.873 . S
C1358 C450 0.873 . S
C1383 N397 0.407 . S
C1388 N45 0.413 . S
C1413 C253 0.810 . S
C1418 C164 0.811 . S
C1443 N114 0.207 . S
C1448 N338 0.105 . S
C1473 C388 1.068 . S
C1478 C418 1.069 . S
C1503 N242 0.202 . S
C1508 C413 0.181 . S
C1533 C194 0.451 . S
C1538 N237 0.460 . S
C1563 C130 0.399 . S
C1568 N434 0.401 . S
C1593 C386 0.804 . S
C1598 C484 0.807 . S
C1623 C509 0.811 . S
C1628 C260 0.810 . S
C1653 N50 0.413 . S
C1658 N306 0.406 . S
C1683 N274 0.460 . S
C1688 C198 0.451 . S
C1713 C258 1.206 . S
C1718 C349 1.196 . S
C1743 C486 0.830 . S
C1748 C221 0.827 . S
C1773 C420 0.940 . S
C1778 C482 0.940 . S
C1803 N365 0.105 . S
C1808 N109 0.207 . S
C1833 C324 0.336 . S
C1838 N466 0.359 . S
C1863 C326 0.390 . S
C1868 N493 0.396 . S
C1893 C134 0.399 . S
C1898 N461 0.401 . S
C1923 N498 0.214 . S
C1928 C132 0.186 . S
