# Generated by pormake.
# Topology snz, (6)-cn, num edge types: 1
# Building blocks:
#     Node 0, Type 0, BuildingBlock: JUFBIX_clean_sbu_0, # of connection points: 6
#     Node 1, Type 0, BuildingBlock: JUFBIX_clean_sbu_0, # of connection points: 6
#     Node 2, Type 0, BuildingBlock: JUFBIX_clean_sbu_0, # of connection points: 6
#     Node 3, Type 0, BuildingBlock: JUFBIX_clean_sbu_0, # of connection points: 6
#     Node 4, Type 0, BuildingBlock: JUFBIX_clean_sbu_0, # of connection points: 6
#     Node 5, Type 0, BuildingBlock: JUFBIX_clean_sbu_0, # of connection points: 6
#     Node 6, Type 0, BuildingBlock: JUFBIX_clean_sbu_0, # of connection points: 6
#     Node 7, Type 0, BuildingBlock: JUFBIX_clean_sbu_0, # of connection points: 6
#     Node 8, Type 0, BuildingBlock: JUFBIX_clean_sbu_0, # of connection points: 6
#     Edge 9, Type (0, 0), BuildingBlock: XIVTED_clean_linker_0, # of connection points: 2
#     Edge 10, Type (0, 0), BuildingBlock: XIVTED_clean_linker_0, # of connection points: 2
#     Edge 11, Type (0, 0), BuildingBlock: XIVTED_clean_linker_0, # of connection points: 2
#     Edge 12, Type (0, 0), BuildingBlock: XIVTED_clean_linker_0, # of connection points: 2
#     Edge 13, Type (0, 0), BuildingBlock: XIVTED_clean_linker_0, # of connection points: 2
#     Edge 14, Type (0, 0), BuildingBlock: XIVTED_clean_linker_0, # of connection points: 2
#     Edge 15, Type (0, 0), BuildingBlock: XIVTED_clean_linker_0, # of connection points: 2
#     Edge 16, Type (0, 0), BuildingBlock: XIVTED_clean_linker_0, # of connection points: 2
#     Edge 17, Type (0, 0), BuildingBlock: XIVTED_clean_linker_0, # of connection points: 2
#     Edge 18, Type (0, 0), BuildingBlock: XIVTED_clean_linker_0, # of connection points: 2
#     Edge 19, Type (0, 0), BuildingBlock: XIVTED_clean_linker_0, # of connection points: 2
#     Edge 20, Type (0, 0), BuildingBlock: XIVTED_clean_linker_0, # of connection points: 2
#     Edge 21, Type (0, 0), BuildingBlock: XIVTED_clean_linker_0, # of connection points: 2
#     Edge 22, Type (0, 0), BuildingBlock: XIVTED_clean_linker_0, # of connection points: 2
#     Edge 23, Type (0, 0), BuildingBlock: XIVTED_clean_linker_0, # of connection points: 2
#     Edge 24, Type (0, 0), BuildingBlock: XIVTED_clean_linker_0, # of connection points: 2
#     Edge 25, Type (0, 0), BuildingBlock: XIVTED_clean_linker_0, # of connection points: 2
#     Edge 26, Type (0, 0), BuildingBlock: XIVTED_clean_linker_0, # of connection points: 2
#     Edge 27, Type (0, 0), BuildingBlock: XIVTED_clean_linker_0, # of connection points: 2
#     Edge 28, Type (0, 0), BuildingBlock: XIVTED_clean_linker_0, # of connection points: 2
#     Edge 29, Type (0, 0), BuildingBlock: XIVTED_clean_linker_0, # of connection points: 2
#     Edge 30, Type (0, 0), BuildingBlock: XIVTED_clean_linker_0, # of connection points: 2
#     Edge 31, Type (0, 0), BuildingBlock: XIVTED_clean_linker_0, # of connection points: 2
#     Edge 32, Type (0, 0), BuildingBlock: XIVTED_clean_linker_0, # of connection points: 2
#     Edge 33, Type (0, 0), BuildingBlock: XIVTED_clean_linker_0, # of connection points: 2
#     Edge 34, Type (0, 0), BuildingBlock: XIVTED_clean_linker_0, # of connection points: 2
#     Edge 35, Type (0, 0), BuildingBlock: XIVTED_clean_linker_0, # of connection points: 2
# Relax obj value: 0.336
# Max RMSD: 0.273
# Mean RMSD: 0.226
data_MOF--net-snz--node1-JUFBIX_clean_sbu_0--edge1-XIVTED_clean_linker_0
_symmetry_space_group_name_H-M    P1
_symmetry_Int_Tables_number       1
_symmetry_cell_setting            triclinic
loop_
_symmetry_equiv_pos_as_xyz
'x, y, z'
_cell_length_a     53.786181
_cell_length_b     58.434999
_cell_length_c     14.877234
_cell_angle_alpha  90.444765
_cell_angle_beta   90.30457
_cell_angle_gamma 119.91801
loop_
_atom_site_label
_atom_site_type_symbol
_atom_site_fract_x
_atom_site_fract_y
_atom_site_fract_z
_atom_type_partial_charge
Co0 Co 0.14454 0.56446 0.86293 0.0
C1 C 0.11992 0.54711 0.02923 0.0
Co2 Co 0.10478 0.52544 0.86135 0.0
C3 C 0.18515 0.61674 0.92956 0.0
C4 C 0.20135 0.60526 0.81736 0.0
N5 N 0.17773 0.59727 0.86779 0.0
N6 N 0.2126 0.6363 0.92075 0.0
C7 C 0.22279 0.6292 0.84972 0.0
H8 H 0.1712 0.61587 -0.01682 0.0
H9 H 0.20331 0.59385 0.76308 0.0
C10 C 0.12913 0.54254 0.69506 0.0
N11 N 0.0724 0.49181 0.85672 0.0
C12 C 0.07147 0.46986 0.82285 0.0
C13 C 0.04618 0.48323 0.8916 0.0
N14 N 0.04595 0.44778 0.83612 0.0
C15 C 0.02988 0.45621 0.87894 0.0
C16 C 0.09511 0.56774 0.83703 0.0
O17 O 0.14756 0.5629 0.73788 0.0
O18 O 0.10903 0.52363 0.73713 0.0
O19 O 0.082 0.5425 0.84004 0.0
O20 O 0.12221 0.58058 0.84717 0.0
O21 O 0.10067 0.52738 -0.01423 0.0
H22 H 0.03967 0.49565 0.92658 0.0
H23 H 0.08951 0.47011 0.79009 0.0
O24 O 0.14086 0.5654 -0.0122 0.0
O25 O 0.16699 0.54848 0.87903 0.0
O26 O 0.12835 0.50958 0.8835 0.0
C27 C 0.15553 0.52377 0.88889 0.0
H28 H 0.24441 0.64015 0.82426 0.0
H29 H 1.00828 0.44369 0.90278 0.0
Co30 Co 0.63028 0.5209 0.00198 0.0
C31 C 0.62407 0.53814 0.83521 0.0
Co32 Co 0.63218 0.55952 0.00289 0.0
C33 C 0.61111 0.46709 0.94696 0.0
C34 C 0.6461 0.48194 0.04119 0.0
N35 N 0.62862 0.48855 -0.00262 0.0
N36 N 0.61714 0.44741 0.95703 0.0
C37 C 0.63911 0.4567 0.01653 0.0
H38 H 0.59481 0.46625 0.90187 0.0
H39 H 0.6631 0.49482 0.0872 0.0
C40 C 0.63837 0.54233 0.16983 0.0
N41 N 0.63492 0.59234 0.00985 0.0
C42 C 0.6556 0.61322 0.05578 0.0
C43 C 0.61703 0.60052 -0.02071 0.0
N44 N 0.65139 0.6341 0.05601 0.0
C45 C 0.62705 0.62622 0.00806 0.0
C46 C 0.57702 0.51703 0.02565 0.0
O47 O 0.63552 0.52232 0.12701 0.0
O48 O 0.63791 0.56084 0.12759 0.0
O49 O 0.59138 0.54214 0.02112 0.0
O50 O 0.59007 0.50399 0.01831 0.0
O51 O 0.62642 0.558 0.87819 0.0
H52 H 0.59762 0.58838 0.94075 0.0
H53 H 0.6728 0.61268 0.09202 0.0
O54 O 0.625 0.51975 0.87718 0.0
O55 O 0.6705 0.53793 -0.01499 0.0
O56 O 0.67279 0.57636 -0.01623 0.0
C57 C 0.68526 0.56282 -0.02294 0.0
H58 H 0.64939 0.44601 0.04081 0.0
H59 H 0.61705 0.63803 -0.00441 0.0
Co60 Co 0.66793 0.02037 0.19621 0.0
C61 C 0.67399 0.04367 0.36358 0.0
Co62 Co 0.66275 0.05553 0.19636 0.0
C63 C 0.69473 0.99029 0.24268 0.0
C64 C 0.65628 0.96697 0.16578 0.0
N65 N 0.67307 0.99137 0.20051 0.0
N66 N 0.69215 0.96615 0.23627 0.0
C67 C 0.66792 0.95138 0.18786 0.0
H68 H 0.71171 0.00679 0.27944 0.0
H69 H 0.63676 0.96087 0.12757 0.0
C70 C 0.65675 0.03201 0.02904 0.0
N71 N 0.65879 0.08528 0.19331 0.0
C72 C 0.64457 0.09144 0.13191 0.0
C73 C 0.67247 0.10695 0.24653 0.0
N74 N 0.64916 0.1162 0.14378 0.0
C75 C 0.66657 0.12593 0.21641 0.0
C76 C 0.71841 0.06736 0.1626 0.0
O77 O 0.66052 0.01529 0.07199 0.0
O78 O 0.65672 0.05095 0.0712 0.0
O79 O 0.70234 0.07715 0.17606 0.0
O80 O 0.70796 0.04257 0.17041 0.0
O81 O 0.66881 0.0596 0.32127 0.0
H82 H 0.68678 0.10924 0.30158 0.0
H83 H 0.63227 0.07849 0.0767 0.0
O84 O 0.67534 0.02549 0.32075 0.0
O85 O 0.62755 0.99856 0.22025 0.0
O86 O 0.62303 0.03387 0.21565 0.0
C87 C 0.61173 0.00907 0.22549 0.0
H88 H 0.65926 0.93083 0.16934 0.0
H89 H 0.67502 0.14556 0.24471 0.0
Co90 Co 0.8717 0.90202 0.51121 0.0
C91 C 0.84727 0.88506 0.67743 0.0
Co92 Co 0.83164 0.86318 0.5095 0.0
C93 C 0.9058 0.95758 0.55061 0.0
C94 C 0.9305 0.9438 0.48053 0.0
N95 N 0.90441 0.9355 0.51595 0.0
N96 N 0.93151 0.97948 0.53741 0.0
C97 C 0.94719 0.97077 0.49368 0.0
H98 H 0.88795 0.95754 0.58395 0.0
H99 H 0.93668 0.93123 0.44493 0.0
C100 C 0.85633 0.88039 0.34326 0.0
N101 N 0.79813 0.83057 0.50455 0.0
C102 C 0.79035 0.81103 0.44279 0.0
C103 C 0.77464 0.82286 0.55537 0.0
N104 N 0.76281 0.79168 0.45206 0.0
C105 C 0.75293 0.79902 0.52332 0.0
C106 C 0.82133 0.90431 0.48379 0.0
O107 O 0.87575 0.90001 0.38676 0.0
O108 O 0.83525 0.86224 0.38464 0.0
O109 O 0.80965 0.87958 0.49372 0.0
O110 O 0.84853 0.91831 0.48899 0.0
O111 O 0.82871 0.86477 0.6346 0.0
H112 H 0.77296 0.83438 0.6098 0.0
H113 H 0.80414 0.81168 0.38899 0.0
O114 O 0.86748 0.90388 0.63538 0.0
O115 O 0.89403 0.88447 0.5326 0.0
O116 O 0.85351 0.84666 0.52493 0.0
C117 C 0.8806 0.85921 0.53527 0.0
H118 H 0.96881 0.98306 0.46965 0.0
H119 H 0.73136 0.78826 0.54929 0.0
Co120 Co 0.34471 0.86698 0.37434 0.0
C121 C 0.33852 0.88457 0.20838 0.0
Co122 Co 0.34681 0.90567 0.37715 0.0
C123 C 0.32162 0.81343 0.31992 0.0
C124 C 0.35987 0.82606 0.39804 0.0
N125 N 0.34206 0.83423 0.36672 0.0
N126 N 0.32591 0.7926 0.31984 0.0
C127 C 0.35004 0.80043 0.36884 0.0
H128 H 0.30453 0.814 0.28308 0.0
H129 H 0.37909 0.83814 0.43747 0.0
C130 C 0.35303 0.88806 0.54293 0.0
N131 N 0.34841 0.93798 0.38234 0.0
C132 C 0.36628 0.95972 0.43099 0.0
C133 C 0.33052 0.94431 0.33963 0.0
N134 N 0.3601 0.9793 0.42078 0.0
C135 C 0.33763 0.96965 0.36312 0.0
C136 C 0.29177 0.86372 0.40159 0.0
O137 O 0.35057 0.86831 0.49894 0.0
O138 O 0.35221 0.90665 0.50195 0.0
O139 O 0.30665 0.88862 0.39452 0.0
O140 O 0.3041 0.85007 0.39382 0.0
O141 O 0.34145 0.90445 0.25222 0.0
H142 H 0.31322 0.9312 0.29489 0.0
H143 H 0.38304 0.96088 0.47466 0.0
O144 O 0.33891 0.86587 0.24963 0.0
O145 O 0.38546 0.88436 0.35567 0.0
O146 O 0.38699 0.92259 0.3603 0.0
C147 C 0.3999 0.90946 0.35172 0.0
H148 H 0.36004 0.78864 0.38179 0.0
H149 H 0.32716 0.98019 0.33905 0.0
Co150 Co 0.31251 0.37041 0.16367 0.0
C151 C 0.31904 0.39358 0.33209 0.0
Co152 Co 0.30832 0.40611 0.16597 0.0
C153 C 0.33108 0.33459 0.2248 0.0
C154 C 0.30181 0.31867 0.11348 0.0
N155 N 0.31616 0.34053 0.16539 0.0
N156 N 0.32631 0.30978 0.21305 0.0
C157 C 0.30801 0.29976 0.14251 0.0
H158 H 0.34406 0.34778 0.27862 0.0
H159 H 0.28692 0.31623 0.06013 0.0
C160 C 0.30171 0.38312 -0.00246 0.0
N161 N 0.30358 0.43535 0.16316 0.0
C162 C 0.28203 0.43677 0.12153 0.0
C163 C 0.3205 0.45961 0.19885 0.0
N164 N 0.28479 0.46096 0.12926 0.0
C165 C 0.30904 0.47542 0.17794 0.0
C166 C 0.36413 0.41685 0.13615 0.0
O167 O 0.30642 0.36674 0.03877 0.0
O168 O 0.30088 0.40141 0.0414 0.0
O169 O 0.34863 0.42764 0.14226 0.0
O170 O 0.35245 0.39195 0.14452 0.0
O171 O 0.31575 0.41073 0.29023 0.0
H172 H 0.33997 0.46543 0.23703 0.0
H173 H 0.26498 0.42045 0.08432 0.0
O174 O 0.31857 0.37456 0.28886 0.0
O175 O 0.27267 0.34893 0.18395 0.0
O176 O 0.26841 0.38425 0.19161 0.0
C177 C 0.25724 0.35936 0.19848 0.0
H178 H 0.29919 0.28 0.11494 0.0
H179 H 0.31782 0.49592 0.19754 0.0
Co180 Co 0.51035 0.21464 0.67785 0.0
C181 C 0.46293 0.16492 0.65119 0.0
Co182 Co 0.46928 0.21453 0.67755 0.0
C183 C 0.54936 0.19805 0.73565 0.0
C184 C 0.56984 0.23074 0.64654 0.0
N185 N 0.54441 0.2143 0.68443 0.0
N186 N 0.57691 0.20377 0.7324 0.0
C187 C 0.58994 0.22436 0.67622 0.0
H188 H 0.53323 0.18303 0.77781 0.0
H189 H 0.57367 0.24675 0.60225 0.0
C190 C 0.51668 0.26423 0.70463 0.0
N191 N 0.43517 0.21481 0.67099 0.0
C192 C 0.42992 0.23066 0.61861 0.0
C193 C 0.40991 0.19852 0.71006 0.0
N194 N 0.40233 0.22481 0.62226 0.0
C195 C 0.38961 0.20457 0.67997 0.0
C196 C 0.48504 0.20828 0.84459 0.0
O197 O 0.53034 0.25176 0.69748 0.0
O198 O 0.48951 0.25165 0.69686 0.0
O199 O 0.46539 0.20971 0.80203 0.0
O200 O 0.50618 0.20976 0.80234 0.0
O201 O 0.44928 0.1774 0.65833 0.0
H202 H 0.40633 0.18281 0.75543 0.0
H203 H 0.44585 0.24547 0.57538 0.0
O204 O 0.49011 0.17752 0.65836 0.0
O205 O 0.5143 0.21953 0.55341 0.0
O206 O 0.47342 0.21933 0.55303 0.0
C207 C 0.4946 0.2209 0.51081 0.0
H208 H 0.61241 0.23435 0.6588 0.0
H209 H 0.3672 0.1946 0.69818 0.0
Co210 Co 1.01378 0.22116 0.68826 0.0
C211 C 0.99971 0.26112 0.71325 0.0
Co212 Co 0.96707 0.20688 0.69151 0.0
C213 C 0.06934 0.24081 0.60327 0.0
C214 C 0.07307 0.2491 0.74448 0.0
N215 N 0.05358 0.23556 0.67896 0.0
N216 N 0.09751 0.25763 0.61866 0.0
C217 C 0.09996 0.26268 0.70767 0.0
H218 H 0.0602 0.23443 0.53669 0.0
H219 H 0.06797 0.25096 0.81336 0.0
C220 C 0.98114 0.16692 0.66646 0.0
N221 N 0.92793 0.19357 0.70285 0.0
C222 C 0.91043 0.17492 0.76113 0.0
C223 C 0.91164 0.20259 0.66534 0.0
N224 N 0.88407 0.17231 0.76314 0.0
C225 C 0.88469 0.18962 0.7025 0.0
C226 C 0.98771 0.21831 0.5229 0.0
O227 O 1.00701 0.18593 0.66915 0.0
O228 O 0.9608 0.17194 0.67594 0.0
O229 O 0.96456 0.20945 0.56646 0.0
O230 O 1.01099 0.22472 0.5642 0.0
O231 O 0.97395 0.24219 0.70719 0.0
H232 H 0.91927 0.21843 0.61729 0.0
H233 H 0.91748 0.16462 0.80545 0.0
O234 O 0.02004 0.25602 0.70711 0.0
O235 O 0.01561 0.21731 0.81341 0.0
O236 O 0.96976 0.20436 0.81571 0.0
C237 C 0.99265 0.20962 0.85704 0.0
H238 H 0.11951 0.27654 0.74272 0.0
H239 H 0.86721 0.19322 0.68792 0.0
Co240 Co 0.96639 0.69713 0.68907 0.0
C241 C 0.96892 0.74574 0.66696 0.0
Co242 Co 1.01064 0.73119 0.68852 0.0
C243 C 0.90677 0.66607 0.7402 0.0
C244 C 0.91917 0.64554 0.64715 0.0
N245 N 0.92919 0.66874 0.6914 0.0
N246 N 0.88322 0.642 0.72877 0.0
C247 C 0.891 0.62908 0.66998 0.0
H248 H 0.90799 0.68124 0.78524 0.0
H249 H 0.93169 0.64077 0.60207 0.0
C250 C 1.00822 0.68265 0.71047 0.0
N251 N 0.04784 0.75953 0.68618 0.0
C252 C 0.07026 0.76199 0.6379 0.0
C253 C 0.05793 0.78281 0.72995 0.0
N254 N 0.09388 0.786 0.6492 0.0
C255 C 0.08615 0.79911 0.70733 0.0
C256 C 0.98744 0.71865 0.85608 0.0
O257 O 0.98127 0.67357 0.70505 0.0
O258 O 0.025 0.70745 0.70419 0.0
O259 O 1.00976 0.73457 0.81361 0.0
O260 O 0.96585 0.70083 0.81364 0.0
O261 O 0.99584 0.75471 0.67271 0.0
H262 H 0.04543 0.78773 0.7746 0.0
H263 H 0.06898 0.7467 0.59337 0.0
O264 O 0.95202 0.72095 0.67313 0.0
O265 O 0.96729 0.69373 0.56398 0.0
O266 O 1.01116 0.72752 0.56392 0.0
C267 C 0.9896 0.70967 0.52149 0.0
H268 H 0.87733 0.60915 0.64502 0.0
H269 H 0.09991 0.81906 0.73202 0.0
H270 H 0.09218 0.50252 0.58385 0.0
H271 H 0.15704 0.58688 0.14063 0.0
H272 H 0.16584 0.58125 0.58298 0.0
H273 H 0.08279 0.5085 0.14108 0.0
H274 H 0.16011 0.58539 0.30343 0.0
H275 H 0.089 0.50395 0.42092 0.0
C276 C 0.10786 0.52001 0.54924 0.0
C277 C 0.12921 0.54189 0.59674 0.0
C278 C 0.14307 0.56856 0.26799 0.0
C279 C 0.12547 0.54374 0.41102 0.0
C280 C 0.14121 0.56944 0.17514 0.0
C281 C 0.11972 0.54769 0.12754 0.0
C282 C 0.12333 0.54576 0.31326 0.0
C283 C 0.09972 0.52567 0.1754 0.0
C284 C 0.10592 0.52086 0.45635 0.0
C285 C 0.149 0.564 0.54878 0.0
N286 N 0.10212 0.5252 0.26594 0.0
N287 N 0.14654 0.56441 0.45829 0.0
H288 H 0.61776 0.49818 0.72476 0.0
H289 H 0.64482 0.58237 0.28014 0.0
H290 H 0.62914 0.57681 0.72232 0.0
H291 H 0.63322 0.50368 0.28281 0.0
H292 H 0.64006 0.58104 0.44286 0.0
H293 H 0.62254 0.49957 0.56211 0.0
C294 C 0.621 0.51565 0.68984 0.0
C295 C 0.62324 0.5375 0.73686 0.0
C296 C 0.63868 0.56411 0.4079 0.0
C297 C 0.62905 0.5393 0.55133 0.0
C298 C 0.64154 0.5649 0.31513 0.0
C299 C 0.63921 0.54301 0.26817 0.0
C300 C 0.63344 0.54126 0.4537 0.0
C301 C 0.63507 0.52094 0.3166 0.0
C302 C 0.62386 0.51647 0.59708 0.0
C303 C 0.62733 0.55956 0.68848 0.0
N304 N 0.63214 0.52057 0.40701 0.0
N305 N 0.63028 0.55996 0.59807 0.0
H306 H 0.6623 0.99772 0.91635 0.0
H307 H 0.66842 0.07784 0.47657 0.0
H308 H 0.6506 0.06571 0.91759 0.0
H309 H 0.68061 0.01012 0.4747 0.0
H310 H 0.66286 0.07424 0.63918 0.0
H311 H 0.66808 1.00135 0.75368 0.0
C312 C 0.66059 0.0132 0.88226 0.0
C313 C 0.65611 0.03152 0.93041 0.0
C314 C 0.6669 0.06026 0.60324 0.0
C315 C 0.66314 0.03602 0.74505 0.0
C316 C 0.67027 0.06241 0.51053 0.0
C317 C 0.6748 0.04415 0.4622 0.0
C318 C 0.66804 0.03968 0.64763 0.0
C319 C 0.67703 0.02456 0.50944 0.0
C320 C 0.6641 0.01538 0.78955 0.0
C321 C 0.65412 0.05121 0.88304 0.0
N322 N 0.67343 0.02274 0.59969 0.0
N323 N 0.65782 0.05303 0.79287 0.0
H324 H 0.88445 0.92494 0.78863 0.0
H325 H 0.81894 0.8408 0.23185 0.0
H326 H 0.81031 0.84649 0.78951 0.0
H327 H 0.89373 0.91885 0.23142 0.0
H328 H 0.81592 0.84233 0.06907 0.0
H329 H 0.88759 0.92349 0.95157 0.0
C330 C 0.86866 0.90751 0.82325 0.0
C331 C 0.84719 0.88572 0.77575 0.0
C332 C 0.83307 0.85907 0.1045 0.0
C333 C 0.85088 0.88384 0.96147 0.0
C334 C 0.8349 0.85817 0.19735 0.0
C335 C 0.85653 0.87982 0.24495 0.0
C336 C 0.85297 0.88179 0.05923 0.0
C337 C 0.87668 0.90176 0.1971 0.0
C338 C 0.87057 0.90664 0.91614 0.0
C339 C 0.82726 0.86368 0.82371 0.0
N340 N 0.87431 0.90225 0.10656 0.0
N341 N 0.82969 0.86325 0.9142 0.0
H342 H 0.34959 0.84951 0.65337 0.0
H343 H 0.34206 0.92311 0.09786 0.0
H344 H 0.35754 0.92686 0.65592 0.0
H345 H 0.3339 0.84568 0.09556 0.0
H346 H 0.34688 0.92448 0.93492 0.0
H347 H 0.34476 0.84809 0.81635 0.0
C348 C 0.35063 0.8663 0.68835 0.0
C349 C 0.35378 0.88826 0.64131 0.0
C350 C 0.3439 0.90715 0.97008 0.0
C351 C 0.34791 0.88663 0.82687 0.0
C352 C 0.34098 0.90629 0.06293 0.0
C353 C 0.33777 0.88433 0.11002 0.0
C354 C 0.34363 0.8859 0.92448 0.0
C355 C 0.33649 0.86307 0.06171 0.0
C356 C 0.34769 0.86541 0.78122 0.0
C357 C 0.35499 0.90948 0.6897 0.0
N358 N 0.33959 0.86445 -0.02863 0.0
N359 N 0.35189 0.90806 0.78003 0.0
H360 H 0.32592 0.35982 0.44115 0.0
H361 H 0.29424 0.41665 0.88876 0.0
H362 H 0.31285 0.42703 0.44703 0.0
H363 H 0.30785 0.34975 0.88228 0.0
H364 H 0.29975 0.42008 0.72614 0.0
H365 H 0.32007 0.35629 0.60348 0.0
C366 C 0.32215 0.37404 0.47676 0.0
C367 C 0.31973 0.39369 0.43067 0.0
C368 C 0.30138 0.40457 0.76025 0.0
C369 C 0.31261 0.3895 0.61599 0.0
C370 C 0.29805 0.40249 0.85297 0.0
C371 C 0.30078 0.38298 0.89896 0.0
C372 C 0.3075 0.38705 0.71349 0.0
C373 C 0.30568 0.36514 0.8494 0.0
C374 C 0.31863 0.3719 0.56936 0.0
C375 C 0.31485 0.41157 0.48006 0.0
N376 N 0.30907 0.36772 0.75918 0.0
N377 N 0.31127 0.40895 0.57024 0.0
H378 H 0.45661 0.22551 0.40172 0.0
H379 H 0.52303 0.20365 0.95366 0.0
H380 H 0.53226 0.2175 0.39688 0.0
H381 H 0.44741 0.21171 0.95853 0.0
H382 H 0.52624 0.20789 0.11667 0.0
H383 H 0.45342 0.22129 0.23872 0.0
C384 C 0.47271 0.22309 0.36621 0.0
C385 C 0.49464 0.22167 0.41259 0.0
C386 C 0.50888 0.20862 0.08214 0.0
C387 C 0.49091 0.21655 0.22667 0.0
C388 C 0.50694 0.20608 -0.01082 0.0
C389 C 0.48501 0.20751 0.94281 0.0
C390 C 0.48877 0.21265 0.12872 0.0
C391 C 0.46469 0.21056 -0.0081 0.0
C392 C 0.47078 0.22056 0.27325 0.0
C393 C 0.51498 0.21864 0.36351 0.0
N394 N 0.46716 0.21319 0.08252 0.0
N395 N 0.51252 0.21602 0.27288 0.0
H396 H 0.94141 0.19657 0.40875 0.0
H397 H 0.03874 0.22912 -0.02799 0.0
H398 H 0.03405 0.24143 0.41384 0.0
H399 H 0.94608 0.18874 0.96499 0.0
H400 H 0.03747 0.23215 0.13561 0.0
H401 H 0.94258 0.19337 0.24528 0.0
C402 C 0.96195 0.20597 0.37536 0.0
C403 C 0.98767 0.21903 0.42461 0.0
C404 C 0.01743 0.22254 0.09813 0.0
C405 C 0.98922 0.21516 0.23882 0.0
C406 C 0.01817 0.22064 0.00501 0.0
C407 C 0.99252 0.20884 0.95528 0.0
C408 C 0.99086 0.21251 0.14109 0.0
C409 C 0.9664 0.19821 0.00096 0.0
C410 C 0.96264 0.20399 0.28229 0.0
C411 C 1.01373 0.23085 0.37838 0.0
N412 N 0.96625 0.20041 0.09146 0.0
N413 N 1.01384 0.2285 0.28791 0.0
H414 H 0.94581 0.67695 0.40863 0.0
H415 H 0.03123 0.75136 0.96895 0.0
H416 H 0.03341 0.74144 0.41148 0.0
H417 H 0.94361 0.6869 0.96609 0.0
H418 H 0.03217 0.74854 0.1321 0.0
H419 H 0.94486 0.67978 0.24547 0.0
C420 C 0.96491 0.69153 0.3748 0.0
C421 C 0.98966 0.7091 0.42329 0.0
C422 C 1.01272 0.73509 0.09573 0.0
C423 C 0.98862 0.71264 0.23764 0.0
C424 C 1.01212 0.73679 0.00278 0.0
C425 C 0.98737 0.71922 0.95428 0.0
C426 C 0.9884 0.7157 0.13993 0.0
C427 C 0.96319 0.70073 0.00111 0.0
C428 C 0.96431 0.69324 0.28185 0.0
C429 C 1.01383 0.7276 0.37647 0.0
N430 N 0.96437 0.69936 0.0916 0.0
N431 N 1.01265 0.72898 0.28597 0.0
H432 H 0.2992 0.51065 0.08026 0.0
H433 H 0.13929 0.47253 0.9347 0.0
H434 H 0.2278 0.43102 0.09025 0.0
H435 H 0.21385 0.54956 0.90094 0.0
H436 H 0.17074 0.45628 -0.01019 0.0
H437 H 0.26755 0.52494 0.01527 0.0
C438 C 0.27682 0.49617 0.06926 0.0
C439 C 0.26619 0.4696 0.09102 0.0
C440 C 0.18016 0.47668 0.96969 0.0
C441 C 0.22968 0.48579 0.01552 0.0
C442 C 0.16223 0.48593 0.93798 0.0
C443 C 0.1739 0.51248 0.91356 0.0
C444 C 0.20989 0.49414 -0.02275 0.0
C445 C 0.2038 0.52897 0.91937 0.0
C446 C 0.25875 0.5043 0.03142 0.0
C447 C 0.23701 0.45165 0.07371 0.0
N448 N 0.22066 0.51959 0.95102 0.0
N449 N 0.21975 0.46008 0.03732 0.0
H450 H 0.7084 0.65852 0.092 0.0
H451 H 0.7055 0.7667 0.41719 0.0
H452 H 0.63306 0.66542 0.13221 0.0
H453 H 0.78296 0.76587 0.34976 0.0
H454 H 0.67848 0.7293 0.31499 0.0
H455 H 0.73605 0.69778 0.1862 0.0
C456 C 0.69769 0.66835 0.12058 0.0
C457 C 0.66832 0.65857 0.10475 0.0
C458 C 0.7014 0.73731 0.32239 0.0
C459 C 0.69986 0.70359 0.21286 0.0
C460 C 0.71682 0.75855 0.38144 0.0
C461 C 0.74657 0.76939 0.39259 0.0
C462 C 0.71573 0.72665 0.27435 0.0
C463 C 0.76013 0.75828 0.34287 0.0
C464 C 0.71351 0.69083 0.1741 0.0
C465 C 0.65566 0.67237 0.14221 0.0
N466 N 0.7446 0.73747 0.28627 0.0
N467 N 0.67145 0.69405 0.19515 0.0
H468 H 0.57854 0.95512 0.24829 0.0
H469 H 0.43587 0.96261 0.33987 0.0
H470 H 0.5737 0.02666 0.24553 0.0
H471 H 0.43562 0.88867 0.32656 0.0
H472 H 0.48702 0.98597 0.31003 0.0
H473 H 0.52694 0.93002 0.28058 0.0
C474 C 0.56669 0.96554 0.25438 0.0
C475 C 0.58056 0.99308 0.24412 0.0
C476 C 0.47589 0.96463 0.31358 0.0
C477 C 0.52164 0.96453 0.28126 0.0
C478 C 0.44657 0.95122 0.33078 0.0
C479 C 0.43129 0.92356 0.33561 0.0
C480 C 0.49036 0.95042 0.301 0.0
C481 C 0.44651 0.91 0.32334 0.0
C482 C 0.53725 0.95121 0.27281 0.0
C483 C 0.56407 1.00551 0.25277 0.0
N484 N 0.47522 0.92356 0.30652 0.0
N485 N 0.53565 0.99119 0.27084 0.0
H486 H 0.67469 0.1693 0.12098 0.0
H487 H 0.63236 0.22629 0.78957 0.0
H488 H 0.60269 0.09518 0.03195 0.0
H489 H 0.55095 0.15388 0.79638 0.0
H490 H 0.65275 0.20656 0.88761 0.0
H491 H 0.65952 0.19241 0.01938 0.0
C492 C 0.65569 0.15783 0.07998 0.0
C493 C 0.64002 0.13017 0.08504 0.0
C494 C 0.63031 0.19506 0.86912 0.0
C495 C 0.62308 0.15657 0.96482 0.0
C496 C 0.61878 0.20622 0.81161 0.0
C497 C 0.58979 0.19185 0.78552 0.0
C498 C 0.61266 0.16935 0.90114 0.0
C499 C 0.57321 0.1659 0.81635 0.0
C500 C 0.64729 0.17108 0.02039 0.0
C501 C 0.6157 0.11645 0.02944 0.0
N502 N 0.58487 0.15552 0.87256 0.0
N503 N 0.60795 0.1298 -0.02808 0.0
H504 H 0.0525 0.30556 0.72838 0.0
H505 H 0.99241 0.40489 0.81425 0.0
H506 H 0.9621 0.27994 0.73354 0.0
H507 H 0.08229 0.42845 0.81171 0.0
H508 H 0.9805 0.3593 0.78295 0.0
H509 H 0.06337 0.3508 0.7561 0.0
C510 C 0.03487 0.30942 0.73519 0.0
C511 C 1.0063 0.28879 0.72861 0.0
C512 C 1.00283 0.37449 0.789 0.0
C513 C 0.01871 0.34093 0.76072 0.0
C514 C 1.00966 0.40057 0.80728 0.0
C515 C 0.03845 0.42078 0.81549 0.0
C516 C 0.02491 0.36845 0.77901 0.0
C517 C 0.05983 0.41384 0.80467 0.0
C518 C 0.04113 0.33535 0.7511 0.0
C519 C 0.98445 0.29517 0.73809 0.0
N520 N 0.05262 0.38837 0.78723 0.0
N521 N 0.9911 0.32064 0.75375 0.0
H522 H 0.85815 0.66957 0.79057 0.0
H523 H 0.71732 0.53888 0.95265 0.0
H524 H 0.84559 0.59087 0.76713 0.0
H525 H 0.72327 0.6153 0.94537 0.0
H526 H 0.76646 0.55882 0.89939 0.0
H527 H 0.81094 0.65124 0.86086 0.0
C528 C 0.84558 0.64848 0.80068 0.0
C529 C 0.85581 0.63173 0.77224 0.0
C530 C 0.75713 0.57131 0.90979 0.0
C531 C 0.80178 0.61061 0.85248 0.0
C532 C 0.72903 0.55992 0.94058 0.0
C533 C 0.71602 0.57539 0.9531 0.0
C534 C 0.77252 0.59842 0.89121 0.0
C535 C 0.73239 0.60259 0.93641 0.0
C536 C 0.81858 0.63802 0.84043 0.0
C537 C 0.83845 0.60451 0.78644 0.0
N538 N 0.75974 0.61323 0.9059 0.0
N539 N 0.81238 0.59485 0.82542 0.0
H540 H 0.06452 0.69634 0.72901 0.0
H541 H 0.03706 0.54946 0.80478 0.0
H542 H 0.97928 0.62838 0.72888 0.0
H543 H 0.11906 0.62106 0.82956 0.0
H544 H 1.01467 0.57656 0.77245 0.0
H545 H 0.0842 0.66768 0.7596 0.0
C546 C 0.04987 0.67534 0.73522 0.0
C547 C 0.02015 0.66485 0.72645 0.0
C548 C 0.03755 0.58621 0.78517 0.0
C549 C 0.04272 0.63155 0.76204 0.0
C550 C 0.05032 0.57076 0.8037 0.0
C551 C 0.08004 0.58289 0.81985 0.0
C552 C 0.05468 0.61392 0.7825 0.0
C553 C 0.09612 0.61062 0.81746 0.0
C554 C 0.06116 0.6589 0.75295 0.0
C555 C 1.00234 0.63737 0.7352 0.0
N556 N 0.08331 0.62502 0.79906 0.0
N557 N 1.01389 0.62166 0.75256 0.0
H558 H 0.64081 0.41703 0.9181 0.0
H559 H 0.49414 0.29688 0.72568 0.0
H560 H 0.5624 0.41979 0.89297 0.0
H561 H 0.57403 0.29628 0.7392 0.0
H562 H 0.51916 0.34268 0.77928 0.0
H563 H 0.61702 0.37341 0.84698 0.0
C564 C 0.61854 0.40843 0.89791 0.0
C565 C 0.60352 0.42202 0.91226 0.0
C566 C 0.53125 0.33259 0.76989 0.0
C567 C 0.57613 0.37207 0.82979 0.0
C568 C 0.51699 0.30644 0.73916 0.0
C569 C 0.53198 0.29265 0.72847 0.0
C570 C 0.56069 0.34502 0.79047 0.0
C571 C 0.56157 0.30608 0.74675 0.0
C572 C 0.605 0.38357 0.85665 0.0
C573 C 0.57485 0.4101 0.88281 0.0
N574 N 0.5749 0.33144 0.77744 0.0
N575 N 0.56203 0.38573 0.84349 0.0
H576 H 0.87156 0.12547 0.83746 0.0
H577 H 0.74622 0.12068 0.13877 0.0
H578 H 0.84559 0.18437 0.83378 0.0
H579 H 0.75564 0.05232 0.09373 0.0
H580 H 0.78841 0.14674 0.04752 0.0
H581 H 0.83408 0.10051 0.9479 0.0
C582 C 0.85801 0.13316 0.85997 0.0
C583 C 0.86157 0.15695 0.82584 0.0
C584 C 0.78145 0.1261 0.05821 0.0
C585 C 0.81896 0.12871 0.95261 0.0
C586 C 0.75744 0.1112 0.11098 0.0
C587 C 0.74715 0.08415 0.1234 0.0
C588 C 0.79545 0.11397 0.01737 0.0
C589 C 0.76275 0.07308 0.08581 0.0
C590 C 0.83663 0.1189 0.92281 0.0
C591 C 0.84333 0.16594 0.857 0.0
N592 N 0.78599 0.08799 0.03374 0.0
N593 N 0.82292 0.15187 0.91868 0.0
H594 H 0.67782 0.91683 0.28935 0.0
H595 H 0.8379 0.9553 0.43319 0.0
H596 H 0.74919 0.99635 0.27424 0.0
H597 H 0.76301 0.87907 0.47607 0.0
H598 H 0.8065 0.97146 0.37658 0.0
H599 H 0.70952 0.90297 0.35665 0.0
C600 C 0.70021 0.93137 0.29972 0.0
C601 C 0.71082 0.95778 0.27583 0.0
C602 C 0.79701 0.95126 0.39909 0.0
C603 C 0.74741 0.9421 0.35397 0.0
C604 C 0.81491 0.94207 0.43168 0.0
C605 C 0.80312 0.91575 0.45894 0.0
C606 C 0.7672 0.93395 0.39352 0.0
C607 C 0.77316 0.89947 0.45532 0.0
C608 C 0.71831 0.9235 0.3389 0.0
C609 C 0.74001 0.97584 0.29239 0.0
N610 N 0.75634 0.90877 0.42272 0.0
N611 N 0.75732 0.96766 0.33008 0.0
H612 H 0.3447 0.7614 0.24558 0.0
H613 H 0.19173 0.66154 0.02265 0.0
H614 H 0.26911 0.76825 0.28039 0.0
H615 H 0.26981 0.66155 0.95751 0.0
H616 H 0.21893 0.69841 0.12714 0.0
H617 H 0.31666 0.72212 0.151 0.0
C618 C 0.32215 0.75447 0.23418 0.0
C619 C 0.30927 0.76823 0.27037 0.0
C620 C 0.23012 0.69036 0.08988 0.0
C621 C 0.27712 0.7235 0.1616 0.0
C622 C 0.21457 0.66925 0.03045 0.0
C623 C 0.2285 0.65849 -0.01915 0.0
C624 C 0.25983 0.70072 0.10036 0.0
C625 C 0.25823 0.66946 -0.00686 0.0
C626 C 0.3062 0.73218 0.1796 0.0
C627 C 0.28 0.7585 0.25264 0.0
N628 N 0.27288 0.68992 0.05172 0.0
N629 N 0.26495 0.73679 0.19942 0.0
H630 H 0.5412 0.46383 0.03736 0.0
H631 H 0.39772 0.47085 0.11735 0.0
H632 H 0.5409 0.53755 0.04732 0.0
H633 H 0.40207 0.39906 0.11619 0.0
H634 H 0.44955 0.496 0.08932 0.0
H635 H 0.48981 0.44023 0.06326 0.0
C636 C 0.53034 0.47512 0.04495 0.0
C637 C 0.54553 0.50279 0.04025 0.0
C638 C 0.43909 0.47475 0.09522 0.0
C639 C 0.48616 0.47564 0.07021 0.0
C640 C 0.40951 0.46037 0.1112 0.0
C641 C 0.39543 0.43276 0.11919 0.0
C642 C 0.45469 0.4614 0.08704 0.0
C643 C 0.41187 0.42027 0.11062 0.0
C644 C 0.50086 0.46157 0.05984 0.0
C645 C 0.53009 0.51622 0.05051 0.0
N646 N 0.44048 0.43465 0.09505 0.0
N647 N 0.50125 0.50252 0.06507 0.0
H648 H 0.99845 0.80002 0.65165 0.0
H649 H 0.85603 0.80579 0.53715 0.0
H650 H 0.91284 0.73262 0.64345 0.0
H651 H 0.93824 0.87662 0.57259 0.0
H652 H 0.87804 0.7794 0.56995 0.0
H653 H 0.97837 0.82877 0.61896 0.0
C654 C 0.97546 0.79125 0.64328 0.0
C655 C 0.95733 0.76377 0.6503 0.0
C656 C 0.89144 0.80069 0.57075 0.0
C657 C 0.93429 0.79661 0.61236 0.0
C658 C 0.87884 0.81593 0.55174 0.0
C659 C 0.89523 0.84366 0.55227 0.0
C660 C 0.92086 0.81298 0.59059 0.0
C661 C 0.92474 0.85535 0.57144 0.0
C662 C 0.96404 0.80771 0.62458 0.0
C663 C 0.92773 0.7536 0.63872 0.0
N664 N 0.93664 0.83995 0.58995 0.0
N665 N 0.91724 0.76996 0.62019 0.0
H666 H 0.48543 0.13223 0.63022 0.0
H667 H 0.33674 0.00986 0.46041 0.0
H668 H 0.40537 0.13259 0.62146 0.0
H669 H 0.41556 0.00757 0.47815 0.0
H670 H 0.3613 0.05423 0.52559 0.0
H671 H 0.45997 0.08591 0.5822 0.0
C672 C 0.46247 0.12253 0.61884 0.0
C673 C 0.44753 0.13637 0.62935 0.0
C674 C 0.37324 0.04403 0.51561 0.0
C675 C 0.41831 0.08339 0.57393 0.0
C676 C 0.35925 0.01873 0.47778 0.0
C677 C 0.37417 1.00505 0.463 0.0
C678 C 0.40246 0.0559 0.53857 0.0
C679 C 0.40319 0.01733 0.48876 0.0
C680 C 0.44795 0.09608 0.59135 0.0
C681 C 0.41778 0.12275 0.6139 0.0
N682 N 0.41646 0.04214 0.52476 0.0
N683 N 0.4042 0.09709 0.58646 0.0
H684 H 0.13742 0.3095 0.62269 0.0
H685 H 0.22363 0.3054 0.20149 0.0
H686 H 0.1058 0.23866 0.46133 0.0
H687 H 0.22652 0.37696 0.29315 0.0
H688 H 0.1819 0.27982 0.29709 0.0
H689 H 0.17285 0.334 0.5075 0.0
C690 C 0.13815 0.29906 0.56325 0.0
C691 C 0.1189 0.27195 0.55188 0.0
C692 C 0.19139 0.30107 0.2949 0.0
C693 C 0.15928 0.29993 0.41927 0.0
C694 C 0.21513 0.31569 0.24021 0.0
C695 C 0.22866 0.34339 0.23951 0.0
C696 C 0.18154 0.3143 0.35069 0.0
C697 C 0.21678 0.35567 0.29133 0.0
C698 C 0.15813 0.31311 0.49702 0.0
C699 C 0.12035 0.25953 0.47252 0.0
N700 N 0.19424 0.34108 0.34601 0.0
N701 N 0.14045 0.27355 0.40951 0.0
H702 H 0.34653 0.20178 0.56808 0.0
H703 H 0.30105 0.2568 0.23847 0.0
H704 H 0.4278 0.27414 0.55346 0.0
H705 H 0.37412 0.33129 0.31905 0.0
H706 H 0.31729 0.2342 0.33871 0.0
H707 H 0.3254 0.22076 0.4698 0.0
C708 C 0.35994 0.22168 0.54423 0.0
C709 C 0.38909 0.23626 0.56837 0.0
C710 C 0.32954 0.25551 0.33612 0.0
C711 C 0.36532 0.25788 0.45238 0.0
C712 C 0.32052 0.26845 0.27729 0.0
C713 C 0.33614 0.29607 0.27041 0.0
C714 C 0.35435 0.27029 0.38906 0.0
C715 C 0.36111 0.31005 0.32314 0.0
C716 C 0.34796 0.2324 0.48657 0.0
C717 C 0.40541 0.26196 0.53514 0.0
N718 N 0.36945 0.297 0.38001 0.0
N719 N 0.39331 0.27192 0.47888 0.0
H720 H 0.98555 0.022 0.55598 0.0
H721 H 0.92819 0.12252 0.65988 0.0
H722 H 0.89605 0.99951 0.56799 0.0
H723 H 0.0182 0.14776 0.63718 0.0
H724 H 0.9166 0.07716 0.63097 0.0
H725 H 0.99839 0.06775 0.58906 0.0
C726 C 0.96856 0.02656 0.56538 0.0
C727 C 0.93959 0.00658 0.5592 0.0
C728 C 0.93892 0.09255 0.63234 0.0
C729 C 0.95426 0.05914 0.59791 0.0
C730 C 0.9456 0.11856 0.64895 0.0
C731 C 0.97427 0.13914 0.6509 0.0
C732 C 0.961 0.08679 0.61739 0.0
C733 C 0.9958 0.13259 0.63632 0.0
C734 C 0.97595 0.05275 0.58467 0.0
C735 C 0.91863 0.0139 0.57326 0.0
N736 N 0.98873 0.10702 0.62008 0.0
N737 N 0.92637 0.03945 0.59172 0.0
H738 H 0.1187 0.75802 0.5892 0.0
H739 H 0.25995 0.8879 0.42494 0.0
H740 H 0.13183 0.83698 0.61003 0.0
H741 H 0.25358 0.81132 0.43446 0.0
H742 H 0.21087 0.86828 0.47823 0.0
H743 H 0.16591 0.77595 0.51924 0.0
C744 C 0.1314 0.77908 0.57859 0.0
C745 C 0.12133 0.79603 0.60616 0.0
C746 C 0.22009 0.85569 0.46835 0.0
C747 C 0.17534 0.81667 0.52629 0.0
C748 C 0.24816 0.86688 0.43755 0.0
C749 C 0.26104 0.85128 0.42562 0.0
C750 C 0.20459 0.82862 0.48757 0.0
C751 C 0.24456 0.82413 0.44293 0.0
C752 C 0.1584 0.78931 0.53904 0.0
C753 C 0.13885 0.82319 0.59138 0.0
N754 N 0.21722 0.81367 0.47348 0.0
N755 N 0.16491 0.83262 0.55258 0.0
loop_
_geom_bond_atom_site_label_1
_geom_bond_atom_site_label_2
_geom_bond_distance
_geom_bond_site_symmetry_2
_ccdc_geom_bond_type
Co0 N5 2.057 . S
Co0 O17 2.021 1_554 S
Co0 O20 2.062 . S
Co0 O24 2.117 . S
Co0 O25 2.020 . S
C1 O21 1.259 . S
C1 O24 1.258 . S
Co2 N11 2.057 1_554 S
Co2 O18 2.117 1_554 S
Co2 O19 2.020 . S
Co2 O21 2.021 . S
Co2 O26 2.062 . S
C3 N5 1.316 . S
C3 N6 1.347 . S
C3 H8 0.931 1_554 S
C4 N5 1.375 . S
C4 C7 1.350 . S
C4 H9 0.930 . S
N5 Co0 2.057 . S
N5 C3 1.316 . S
N5 C4 1.375 . S
N6 C3 1.347 . S
N6 C7 1.373 . S
C7 C4 1.350 . S
C7 N6 1.373 . S
C7 H28 0.931 . S
H8 C3 0.931 1_556 S
H9 C4 0.930 . S
C10 O17 1.259 . S
C10 O18 1.258 . S
N11 Co2 2.057 1_556 S
N11 C12 1.316 1_556 S
N11 C13 1.375 . S
C12 N11 1.316 1_554 S
C12 N14 1.347 1_554 S
C12 H23 0.931 . S
C13 N11 1.375 . S
C13 C15 1.350 . S
C13 H22 0.930 . S
N14 C12 1.347 1_556 S
N14 C15 1.373 . S
C15 C13 1.350 . S
C15 N14 1.373 . S
C15 H29 0.931 . S
C16 O19 1.256 . S
C16 O20 1.256 . S
O17 Co0 2.021 1_556 S
O17 C10 1.259 . S
O18 Co2 2.117 1_556 S
O18 C10 1.258 . S
O19 Co2 2.020 . S
O19 C16 1.256 . S
O20 Co0 2.062 . S
O20 C16 1.256 . S
O21 C1 1.259 . S
O21 Co2 2.021 . S
H22 C13 0.930 . S
H23 C12 0.931 . S
O24 Co0 2.117 . S
O24 C1 1.258 . S
O25 Co0 2.020 . S
O25 C27 1.256 . S
O26 Co2 2.062 . S
O26 C27 1.255 . S
C27 O25 1.256 . S
C27 O26 1.255 . S
H28 C7 0.931 . S
H29 C15 0.931 . S
Co30 N35 2.057 . S
Co30 O47 2.021 . S
Co30 O50 2.062 . S
Co30 O54 2.117 1_554 S
Co30 O55 2.020 . S
C31 O51 1.259 . S
C31 O54 1.258 . S
Co32 N41 2.057 . S
Co32 O48 2.117 . S
Co32 O49 2.020 . S
Co32 O51 2.021 1_554 S
Co32 O56 2.062 . S
C33 N35 1.316 . S
C33 N36 1.347 . S
C33 H38 0.931 . S
C34 N35 1.375 1_556 S
C34 C37 1.350 . S
C34 H39 0.930 . S
N35 Co30 2.057 . S
N35 C33 1.316 . S
N35 C34 1.375 1_554 S
N36 C33 1.347 . S
N36 C37 1.373 1_554 S
C37 C34 1.350 . S
C37 N36 1.373 1_556 S
C37 H58 0.931 . S
H38 C33 0.931 . S
H39 C34 0.930 . S
C40 O47 1.259 . S
C40 O48 1.258 . S
N41 Co32 2.057 . S
N41 C42 1.316 . S
N41 C43 1.375 . S
C42 N41 1.316 . S
C42 N44 1.347 . S
C42 H53 0.931 . S
C43 N41 1.375 . S
C43 C45 1.350 . S
C43 H52 0.930 . S
N44 C42 1.347 . S
N44 C45 1.373 . S
C45 C43 1.350 . S
C45 N44 1.373 . S
C45 H59 0.931 . S
C46 O49 1.256 . S
C46 O50 1.255 . S
O47 Co30 2.021 . S
O47 C40 1.259 . S
O48 Co32 2.117 . S
O48 C40 1.258 . S
O49 Co32 2.020 . S
O49 C46 1.256 . S
O50 Co30 2.062 . S
O50 C46 1.255 . S
O51 C31 1.259 . S
O51 Co32 2.021 1_556 S
H52 C43 0.930 . S
H53 C42 0.931 . S
O54 Co30 2.117 1_556 S
O54 C31 1.258 . S
O55 Co30 2.020 . S
O55 C57 1.256 . S
O56 Co32 2.062 . S
O56 C57 1.255 . S
C57 O55 1.256 . S
C57 O56 1.255 . S
H58 C37 0.931 . S
H59 C45 0.931 . S
Co60 N65 2.057 1_545 S
Co60 O77 2.021 1_545 S
Co60 O80 2.062 . S
Co60 O84 2.117 . S
Co60 O85 2.020 1_545 S
C61 O81 1.259 . S
C61 O84 1.258 . S
Co62 N71 2.057 . S
Co62 O78 2.117 . S
Co62 O79 2.020 . S
Co62 O81 2.021 . S
Co62 O86 2.062 . S
C63 N65 1.316 . S
C63 N66 1.347 . S
C63 H68 0.931 . S
C64 N65 1.375 . S
C64 C67 1.350 . S
C64 H69 0.930 . S
N65 Co60 2.057 1_565 S
N65 C63 1.316 . S
N65 C64 1.375 . S
N66 C63 1.347 . S
N66 C67 1.373 . S
C67 C64 1.350 . S
C67 N66 1.373 . S
C67 H88 0.931 . S
H68 C63 0.931 . S
H69 C64 0.930 . S
C70 O77 1.259 1_546 S
C70 O78 1.258 1_556 S
N71 Co62 2.057 . S
N71 C72 1.316 . S
N71 C73 1.375 . S
C72 N71 1.316 . S
C72 N74 1.347 . S
C72 H83 0.931 . S
C73 N71 1.375 . S
C73 C75 1.350 . S
C73 H82 0.930 1_554 S
N74 C72 1.347 . S
N74 C75 1.373 . S
C75 C73 1.350 . S
C75 N74 1.373 . S
C75 H89 0.931 1_554 S
C76 O79 1.256 . S
C76 O80 1.255 . S
O77 Co60 2.021 1_565 S
O77 C70 1.259 1_564 S
O78 Co62 2.117 . S
O78 C70 1.258 1_554 S
O79 Co62 2.020 . S
O79 C76 1.256 . S
O80 Co60 2.062 . S
O80 C76 1.255 . S
O81 C61 1.259 . S
O81 Co62 2.021 . S
H82 C73 0.930 1_556 S
H83 C72 0.931 . S
O84 Co60 2.117 . S
O84 C61 1.258 . S
O85 Co60 2.020 1_565 S
O85 C87 1.256 . S
O86 Co62 2.062 . S
O86 C87 1.255 1_545 S
C87 O85 1.256 . S
C87 O86 1.255 1_565 S
H88 C67 0.931 . S
H89 C75 0.931 1_556 S
Co90 N95 2.057 . S
Co90 O107 2.021 . S
Co90 O110 2.062 . S
Co90 O114 2.117 . S
Co90 O115 2.020 . S
C91 O111 1.259 . S
C91 O114 1.258 . S
Co92 N101 2.057 . S
Co92 O108 2.117 . S
Co92 O109 2.020 . S
Co92 O111 2.021 . S
Co92 O116 2.062 . S
C93 N95 1.316 . S
C93 N96 1.347 . S
C93 H98 0.931 . S
C94 N95 1.375 . S
C94 C97 1.350 . S
C94 H99 0.930 . S
N95 Co90 2.057 . S
N95 C93 1.316 . S
N95 C94 1.375 . S
N96 C93 1.347 . S
N96 C97 1.373 . S
C97 C94 1.350 . S
C97 N96 1.373 . S
C97 H118 0.931 . S
H98 C93 0.931 . S
H99 C94 0.930 . S
C100 O107 1.259 . S
C100 O108 1.258 . S
N101 Co92 2.057 . S
N101 C102 1.316 . S
N101 C103 1.375 . S
C102 N101 1.316 . S
C102 N104 1.347 . S
C102 H113 0.931 . S
C103 N101 1.375 . S
C103 C105 1.350 . S
C103 H112 0.930 . S
N104 C102 1.347 . S
N104 C105 1.373 . S
C105 C103 1.350 . S
C105 N104 1.373 . S
C105 H119 0.931 . S
C106 O109 1.256 . S
C106 O110 1.255 . S
O107 Co90 2.021 . S
O107 C100 1.259 . S
O108 Co92 2.117 . S
O108 C100 1.258 . S
O109 Co92 2.020 . S
O109 C106 1.256 . S
O110 Co90 2.062 . S
O110 C106 1.255 . S
O111 C91 1.259 . S
O111 Co92 2.021 . S
H112 C103 0.930 . S
H113 C102 0.931 . S
O114 Co90 2.117 . S
O114 C91 1.258 . S
O115 Co90 2.020 . S
O115 C117 1.256 . S
O116 Co92 2.062 . S
O116 C117 1.255 . S
C117 O115 1.256 . S
C117 O116 1.255 . S
H118 C97 0.931 . S
H119 C105 0.931 . S
Co120 N125 2.057 . S
Co120 O137 2.021 . S
Co120 O140 2.062 . S
Co120 O144 2.117 . S
Co120 O145 2.020 . S
C121 O141 1.259 . S
C121 O144 1.258 . S
Co122 N131 2.057 . S
Co122 O138 2.117 . S
Co122 O139 2.020 . S
Co122 O141 2.021 . S
Co122 O146 2.062 . S
C123 N125 1.316 . S
C123 N126 1.347 . S
C123 H128 0.931 . S
C124 N125 1.375 . S
C124 C127 1.350 . S
C124 H129 0.930 . S
N125 Co120 2.057 . S
N125 C123 1.316 . S
N125 C124 1.375 . S
N126 C123 1.347 . S
N126 C127 1.373 . S
C127 C124 1.350 . S
C127 N126 1.373 . S
C127 H148 0.931 . S
H128 C123 0.931 . S
H129 C124 0.930 . S
C130 O137 1.259 . S
C130 O138 1.258 . S
N131 Co122 2.057 . S
N131 C132 1.316 . S
N131 C133 1.375 . S
C132 N131 1.316 . S
C132 N134 1.347 1_565 S
C132 H143 0.931 . S
C133 N131 1.375 . S
C133 C135 1.387 . S
C133 H142 0.930 . S
N134 C132 1.347 1_545 S
N134 C135 1.361 1_545 S
C135 C133 1.387 . S
C135 N134 1.361 1_565 S
C135 H149 0.911 1_565 S
C136 O139 1.256 . S
C136 O140 1.255 . S
O137 Co120 2.021 . S
O137 C130 1.259 . S
O138 Co122 2.117 . S
O138 C130 1.258 . S
O139 Co122 2.020 . S
O139 C136 1.256 . S
O140 Co120 2.062 . S
O140 C136 1.255 . S
O141 C121 1.259 . S
O141 Co122 2.021 . S
H142 C133 0.930 . S
H143 C132 0.931 . S
O144 Co120 2.117 . S
O144 C121 1.258 . S
O145 Co120 2.020 . S
O145 C147 1.256 . S
O146 Co122 2.062 . S
O146 C147 1.255 . S
C147 O145 1.256 . S
C147 O146 1.255 . S
H148 C127 0.931 . S
H149 C135 0.911 1_545 S
Co150 N155 2.057 . S
Co150 O167 2.021 . S
Co150 O170 2.062 . S
Co150 O174 2.117 . S
Co150 O175 2.020 . S
C151 O171 1.259 . S
C151 O174 1.258 . S
Co152 N161 2.057 . S
Co152 O168 2.117 . S
Co152 O169 2.020 . S
Co152 O171 2.021 . S
Co152 O176 2.062 . S
C153 N155 1.316 . S
C153 N156 1.347 . S
C153 H158 0.931 . S
C154 N155 1.375 . S
C154 C157 1.350 . S
C154 H159 0.930 . S
N155 Co150 2.057 . S
N155 C153 1.316 . S
N155 C154 1.375 . S
N156 C153 1.347 . S
N156 C157 1.373 . S
C157 C154 1.350 . S
C157 N156 1.373 . S
C157 H178 0.931 . S
H158 C153 0.931 . S
H159 C154 0.930 . S
C160 O167 1.259 . S
C160 O168 1.258 . S
N161 Co152 2.057 . S
N161 C162 1.316 . S
N161 C163 1.375 . S
C162 N161 1.316 . S
C162 N164 1.347 . S
C162 H173 0.931 . S
C163 N161 1.375 . S
C163 C165 1.350 . S
C163 H172 0.930 . S
N164 C162 1.347 . S
N164 C165 1.373 . S
C165 C163 1.350 . S
C165 N164 1.373 . S
C165 H179 0.931 . S
C166 O169 1.256 . S
C166 O170 1.255 . S
O167 Co150 2.021 . S
O167 C160 1.259 . S
O168 Co152 2.117 . S
O168 C160 1.258 . S
O169 Co152 2.020 . S
O169 C166 1.256 . S
O170 Co150 2.062 . S
O170 C166 1.255 . S
O171 C151 1.259 . S
O171 Co152 2.021 . S
H172 C163 0.930 . S
H173 C162 0.931 . S
O174 Co150 2.117 . S
O174 C151 1.258 . S
O175 Co150 2.020 . S
O175 C177 1.256 . S
O176 Co152 2.062 . S
O176 C177 1.255 . S
C177 O175 1.256 . S
C177 O176 1.255 . S
H178 C157 0.931 . S
H179 C165 0.931 . S
Co180 N185 2.057 . S
Co180 O197 2.021 . S
Co180 O200 2.062 . S
Co180 O204 2.117 . S
Co180 O205 2.020 . S
C181 O201 1.259 . S
C181 O204 1.258 . S
Co182 N191 2.057 . S
Co182 O198 2.117 . S
Co182 O199 2.020 . S
Co182 O201 2.021 . S
Co182 O206 2.062 . S
C183 N185 1.316 . S
C183 N186 1.347 . S
C183 H188 0.931 . S
C184 N185 1.375 . S
C184 C187 1.350 . S
C184 H189 0.930 . S
N185 Co180 2.057 . S
N185 C183 1.316 . S
N185 C184 1.375 . S
N186 C183 1.347 . S
N186 C187 1.373 . S
C187 C184 1.350 . S
C187 N186 1.373 . S
C187 H208 0.931 . S
H188 C183 0.931 . S
H189 C184 0.930 . S
C190 O197 1.259 . S
C190 O198 1.258 . S
N191 Co182 2.057 . S
N191 C192 1.316 . S
N191 C193 1.375 . S
C192 N191 1.316 . S
C192 N194 1.347 . S
C192 H203 0.931 . S
C193 N191 1.375 . S
C193 C195 1.350 . S
C193 H202 0.930 . S
N194 C192 1.347 . S
N194 C195 1.373 . S
C195 C193 1.350 . S
C195 N194 1.373 . S
C195 H209 0.931 . S
C196 O199 1.256 . S
C196 O200 1.255 . S
O197 Co180 2.021 . S
O197 C190 1.259 . S
O198 Co182 2.117 . S
O198 C190 1.258 . S
O199 Co182 2.020 . S
O199 C196 1.256 . S
O200 Co180 2.062 . S
O200 C196 1.255 . S
O201 C181 1.259 . S
O201 Co182 2.021 . S
H202 C193 0.930 . S
H203 C192 0.931 . S
O204 Co180 2.117 . S
O204 C181 1.258 . S
O205 Co180 2.020 . S
O205 C207 1.256 . S
O206 Co182 2.062 . S
O206 C207 1.255 . S
C207 O205 1.256 . S
C207 O206 1.255 . S
H208 C187 0.931 . S
H209 C195 0.931 . S
Co210 N215 2.057 . S
Co210 O227 2.021 1_455 S
Co210 O230 2.062 1_455 S
Co210 O234 2.117 1_455 S
Co210 O235 2.020 . S
C211 O231 1.259 . S
C211 O234 1.258 . S
Co212 N221 2.057 . S
Co212 O228 2.117 . S
Co212 O229 2.020 . S
Co212 O231 2.021 . S
Co212 O236 2.062 . S
C213 N215 1.316 . S
C213 N216 1.347 . S
C213 H218 0.931 . S
C214 N215 1.375 . S
C214 C217 1.350 . S
C214 H219 0.930 . S
N215 Co210 2.057 . S
N215 C213 1.316 . S
N215 C214 1.375 . S
N216 C213 1.347 . S
N216 C217 1.373 . S
C217 C214 1.350 . S
C217 N216 1.373 . S
C217 H238 0.931 . S
H218 C213 0.931 . S
H219 C214 0.930 . S
C220 O227 1.259 . S
C220 O228 1.258 . S
N221 Co212 2.057 . S
N221 C222 1.316 . S
N221 C223 1.375 . S
C222 N221 1.316 . S
C222 N224 1.347 . S
C222 H233 0.931 . S
C223 N221 1.375 . S
C223 C225 1.350 . S
C223 H232 0.930 . S
N224 C222 1.347 . S
N224 C225 1.373 . S
C225 C223 1.350 . S
C225 N224 1.373 . S
C225 H239 0.931 . S
C226 O229 1.256 . S
C226 O230 1.255 . S
O227 Co210 2.021 1_655 S
O227 C220 1.259 . S
O228 Co212 2.117 . S
O228 C220 1.258 . S
O229 Co212 2.020 . S
O229 C226 1.256 . S
O230 Co210 2.062 1_655 S
O230 C226 1.255 . S
O231 C211 1.259 . S
O231 Co212 2.021 . S
H232 C223 0.930 . S
H233 C222 0.931 . S
O234 Co210 2.117 1_655 S
O234 C211 1.258 . S
O235 Co210 2.020 . S
O235 C237 1.256 1_455 S
O236 Co212 2.062 . S
O236 C237 1.255 . S
C237 O235 1.256 1_655 S
C237 O236 1.255 . S
H238 C217 0.931 . S
H239 C225 0.931 . S
Co240 N245 2.057 . S
Co240 O257 2.021 . S
Co240 O260 2.062 . S
Co240 O264 2.117 . S
Co240 O265 2.020 . S
C241 O261 1.259 . S
C241 O264 1.258 . S
Co242 N251 2.057 . S
Co242 O258 2.117 . S
Co242 O259 2.020 1_455 S
Co242 O261 2.021 1_455 S
Co242 O266 2.062 1_455 S
C243 N245 1.316 . S
C243 N246 1.347 . S
C243 H248 0.931 . S
C244 N245 1.375 . S
C244 C247 1.350 . S
C244 H249 0.930 . S
N245 Co240 2.057 . S
N245 C243 1.316 . S
N245 C244 1.375 . S
N246 C243 1.347 . S
N246 C247 1.373 . S
C247 C244 1.350 . S
C247 N246 1.373 . S
C247 H268 0.931 . S
H248 C243 0.931 . S
H249 C244 0.930 . S
C250 O257 1.259 . S
C250 O258 1.258 1_655 S
N251 Co242 2.057 . S
N251 C252 1.316 . S
N251 C253 1.375 . S
C252 N251 1.316 . S
C252 N254 1.347 . S
C252 H263 0.931 . S
C253 N251 1.375 . S
C253 C255 1.350 . S
C253 H262 0.930 . S
N254 C252 1.347 . S
N254 C255 1.373 . S
C255 C253 1.350 . S
C255 N254 1.373 . S
C255 H269 0.931 . S
C256 O259 1.256 . S
C256 O260 1.255 . S
O257 Co240 2.021 . S
O257 C250 1.259 . S
O258 Co242 2.117 . S
O258 C250 1.258 1_455 S
O259 Co242 2.020 1_655 S
O259 C256 1.256 . S
O260 Co240 2.062 . S
O260 C256 1.255 . S
O261 C241 1.259 . S
O261 Co242 2.021 1_655 S
H262 C253 0.930 . S
H263 C252 0.931 . S
O264 Co240 2.117 . S
O264 C241 1.258 . S
O265 Co240 2.020 . S
O265 C267 1.256 . S
O266 Co242 2.062 1_655 S
O266 C267 1.255 . S
C267 O265 1.256 . S
C267 O266 1.255 . S
H268 C247 0.931 . S
H269 C255 0.931 . S
H270 C276 0.930 . S
H271 C280 0.930 . S
H272 C285 0.929 . S
H273 C283 0.929 . S
H274 C278 0.929 . S
H275 C284 0.929 . S
C276 H270 0.930 . S
C276 C277 1.367 . S
C276 C284 1.378 . S
C277 C276 1.367 . S
C277 C285 1.433 . S
C278 H274 0.929 . S
C278 C280 1.378 . S
C278 C282 1.350 . S
C279 C282 1.463 . S
C279 C284 1.350 . S
C279 N287 1.427 . S
C280 H271 0.930 . S
C280 C278 1.378 . S
C280 C281 1.367 . S
C281 C280 1.367 . S
C281 C283 1.433 . S
C282 C278 1.350 . S
C282 C279 1.463 . S
C282 N286 1.427 . S
C283 H273 0.929 . S
C283 C281 1.433 . S
C283 N286 1.384 . S
C284 H275 0.929 . S
C284 C276 1.378 . S
C284 C279 1.350 . S
C285 H272 0.929 . S
C285 C277 1.433 . S
C285 N287 1.384 . S
N286 C282 1.427 . S
N286 C283 1.384 . S
N287 C279 1.427 . S
N287 C285 1.384 . S
H288 C294 0.930 . S
H289 C298 0.930 . S
H290 C303 0.929 . S
H291 C301 0.929 . S
H292 C296 0.929 . S
H293 C302 0.929 . S
C294 H288 0.930 . S
C294 C295 1.367 . S
C294 C302 1.378 . S
C295 C294 1.367 . S
C295 C303 1.433 . S
C296 H292 0.929 . S
C296 C298 1.378 . S
C296 C300 1.350 . S
C297 C300 1.463 . S
C297 C302 1.350 . S
C297 N305 1.427 . S
C298 H289 0.930 . S
C298 C296 1.378 . S
C298 C299 1.367 . S
C299 C298 1.367 . S
C299 C301 1.433 . S
C300 C296 1.350 . S
C300 C297 1.463 . S
C300 N304 1.427 . S
C301 H291 0.929 . S
C301 C299 1.433 . S
C301 N304 1.384 . S
C302 H293 0.929 . S
C302 C294 1.378 . S
C302 C297 1.350 . S
C303 H290 0.929 . S
C303 C295 1.433 . S
C303 N305 1.384 . S
N304 C300 1.427 . S
N304 C301 1.384 . S
N305 C297 1.427 . S
N305 C303 1.384 . S
H306 C312 0.930 . S
H307 C316 0.930 . S
H308 C321 0.929 . S
H309 C319 0.929 . S
H310 C314 0.929 1_565 S
H311 C320 0.929 . S
C312 H306 0.930 . S
C312 C313 1.367 . S
C312 C320 1.378 . S
C313 C312 1.367 . S
C313 C321 1.433 1_545 S
C314 H310 0.929 1_545 S
C314 C316 1.378 . S
C314 C318 1.350 . S
C315 C318 1.463 . S
C315 C320 1.350 . S
C315 N323 1.427 1_545 S
C316 H307 0.930 . S
C316 C314 1.378 . S
C316 C317 1.367 . S
C317 C316 1.367 . S
C317 C319 1.433 . S
C318 C314 1.350 . S
C318 C315 1.463 . S
C318 N322 1.427 . S
C319 H309 0.929 . S
C319 C317 1.433 . S
C319 N322 1.384 . S
C320 H311 0.929 . S
C320 C312 1.378 . S
C320 C315 1.350 . S
C321 H308 0.929 . S
C321 C313 1.433 1_565 S
C321 N323 1.384 . S
N322 C318 1.427 . S
N322 C319 1.384 . S
N323 C315 1.427 1_565 S
N323 C321 1.384 . S
H324 C330 0.930 . S
H325 C334 0.930 . S
H326 C339 0.929 . S
H327 C337 0.929 . S
H328 C332 0.930 . S
H329 C338 0.929 . S
C330 H324 0.930 . S
C330 C331 1.367 . S
C330 C338 1.378 . S
C331 C330 1.367 . S
C331 C339 1.433 . S
C332 H328 0.930 . S
C332 C334 1.375 1_556 S
C332 C336 1.351 . S
C333 C336 1.463 . S
C333 C338 1.350 . S
C333 N341 1.427 . S
C334 H325 0.930 . S
C334 C332 1.375 1_554 S
C334 C335 1.367 . S
C335 C334 1.367 . S
C335 C337 1.433 . S
C336 C332 1.351 . S
C336 C333 1.463 . S
C336 N340 1.427 . S
C337 H327 0.929 . S
C337 C335 1.433 . S
C337 N340 1.384 1_554 S
C338 H329 0.929 . S
C338 C330 1.378 . S
C338 C333 1.350 . S
C339 H326 0.929 . S
C339 C331 1.433 . S
C339 N341 1.384 . S
N340 C336 1.427 . S
N340 C337 1.384 1_556 S
N341 C333 1.427 . S
N341 C339 1.384 . S
H342 C348 0.930 . S
H343 C352 0.930 . S
H344 C357 0.929 . S
H345 C355 0.929 . S
H346 C350 0.929 . S
H347 C356 0.929 . S
C348 H342 0.930 . S
C348 C349 1.367 . S
C348 C356 1.378 . S
C349 C348 1.367 . S
C349 C357 1.433 . S
C350 H346 0.929 . S
C350 C352 1.378 1_556 S
C350 C354 1.350 . S
C351 C354 1.463 . S
C351 C356 1.350 . S
C351 N359 1.427 . S
C352 H343 0.930 . S
C352 C350 1.378 1_554 S
C352 C353 1.367 . S
C353 C352 1.367 . S
C353 C355 1.433 . S
C354 C350 1.350 . S
C354 C351 1.463 . S
C354 N358 1.427 . S
C355 H345 0.929 . S
C355 C353 1.433 . S
C355 N358 1.384 1_554 S
C356 H347 0.929 . S
C356 C348 1.378 . S
C356 C351 1.350 . S
C357 H344 0.929 . S
C357 C349 1.433 . S
C357 N359 1.384 . S
N358 C354 1.427 . S
N358 C355 1.384 1_556 S
N359 C351 1.427 . S
N359 C357 1.384 . S
H360 C366 0.930 . S
H361 C370 0.930 . S
H362 C375 0.929 . S
H363 C373 0.929 1_554 S
H364 C368 0.929 . S
H365 C374 0.929 . S
C366 H360 0.930 . S
C366 C367 1.367 . S
C366 C374 1.378 . S
C367 C366 1.367 . S
C367 C375 1.433 . S
C368 H364 0.929 . S
C368 C370 1.378 . S
C368 C372 1.350 . S
C369 C372 1.463 . S
C369 C374 1.350 . S
C369 N377 1.427 . S
C370 H361 0.930 . S
C370 C368 1.378 . S
C370 C371 1.367 1_556 S
C371 C370 1.367 1_554 S
C371 C373 1.433 1_554 S
C372 C368 1.350 . S
C372 C369 1.463 . S
C372 N376 1.427 . S
C373 H363 0.929 1_556 S
C373 C371 1.433 1_556 S
C373 N376 1.384 . S
C374 H365 0.929 . S
C374 C366 1.378 . S
C374 C369 1.350 . S
C375 H362 0.929 . S
C375 C367 1.433 . S
C375 N377 1.384 . S
N376 C372 1.427 . S
N376 C373 1.384 . S
N377 C369 1.427 . S
N377 C375 1.384 . S
H378 C384 0.930 . S
H379 C388 0.930 1_556 S
H380 C393 0.929 . S
H381 C391 0.929 . S
H382 C386 0.929 . S
H383 C392 0.929 . S
C384 H378 0.930 . S
C384 C385 1.367 . S
C384 C392 1.378 . S
C385 C384 1.367 . S
C385 C393 1.433 . S
C386 H382 0.929 . S
C386 C388 1.378 . S
C386 C390 1.350 . S
C387 C390 1.463 . S
C387 C392 1.350 . S
C387 N395 1.427 . S
C388 H379 0.930 1_554 S
C388 C386 1.378 . S
C388 C389 1.367 1_554 S
C389 C388 1.367 1_556 S
C389 C391 1.433 1_556 S
C390 C386 1.350 . S
C390 C387 1.463 . S
C390 N394 1.427 . S
C391 H381 0.929 . S
C391 C389 1.433 1_554 S
C391 N394 1.384 . S
C392 H383 0.929 . S
C392 C384 1.378 . S
C392 C387 1.350 . S
C393 H380 0.929 . S
C393 C385 1.433 . S
C393 N395 1.384 . S
N394 C390 1.427 . S
N394 C391 1.384 . S
N395 C387 1.427 . S
N395 C393 1.384 . S
H396 C402 0.930 . S
H397 C406 0.951 1_556 S
H398 C411 0.929 1_455 S
H399 C409 0.929 1_556 S
H400 C404 0.929 1_455 S
H401 C410 0.929 . S
C402 H396 0.930 . S
C402 C403 1.367 . S
C402 C410 1.378 . S
C403 C402 1.367 . S
C403 C411 1.433 . S
C404 H400 0.929 1_655 S
C404 C406 1.371 1_655 S
C404 C408 1.350 . S
C405 C408 1.463 . S
C405 C410 1.350 . S
C405 N413 1.427 . S
C406 H397 0.951 1_554 S
C406 C404 1.371 1_455 S
C406 C407 1.355 1_454 S
C407 C406 1.355 1_656 S
C407 C409 1.433 1_556 S
C408 C404 1.350 . S
C408 C405 1.463 . S
C408 N412 1.427 . S
C409 H399 0.929 1_554 S
C409 C407 1.433 1_554 S
C409 N412 1.384 . S
C410 H401 0.929 . S
C410 C402 1.378 . S
C410 C405 1.350 . S
C411 H398 0.929 1_655 S
C411 C403 1.433 . S
C411 N413 1.384 . S
N412 C408 1.427 . S
N412 C409 1.384 . S
N413 C405 1.427 . S
N413 C411 1.384 . S
H414 C420 0.930 . S
H415 C424 0.930 1_556 S
H416 C429 0.929 . S
H417 C427 0.930 . S
H418 C422 0.929 . S
H419 C428 0.929 . S
C420 H414 0.930 . S
C420 C421 1.367 . S
C420 C428 1.378 . S
C421 C420 1.367 . S
C421 C429 1.433 . S
C422 H418 0.929 . S
C422 C424 1.378 . S
C422 C426 1.350 . S
C423 C426 1.463 . S
C423 C428 1.350 . S
C423 N431 1.427 . S
C424 H415 0.930 1_554 S
C424 C422 1.378 . S
C424 C425 1.367 1_554 S
C425 C424 1.367 1_556 S
C425 C427 1.433 1_556 S
C426 C422 1.350 . S
C426 C423 1.463 . S
C426 N430 1.427 . S
C427 H417 0.930 . S
C427 C425 1.433 1_554 S
C427 N430 1.384 . S
C428 H419 0.929 . S
C428 C420 1.378 . S
C428 C423 1.350 . S
C429 H416 0.929 . S
C429 C421 1.433 . S
C429 N431 1.384 . S
N430 C426 1.427 . S
N430 C427 1.384 . S
N431 C423 1.427 . S
N431 C429 1.384 . S
H432 C438 0.930 . S
H433 C442 0.930 . S
H434 C447 0.929 . S
H435 C445 0.929 1_556 S
H436 C440 0.929 . S
H437 C446 0.929 . S
C438 H432 0.930 . S
C438 C439 1.367 . S
C438 C446 1.378 . S
C439 C438 1.367 . S
C439 C447 1.433 . S
C440 H436 0.929 . S
C440 C442 1.378 . S
C440 C444 1.350 . S
C441 C444 1.463 . S
C441 C446 1.350 . S
C441 N449 1.427 . S
C442 H433 0.930 . S
C442 C440 1.378 . S
C442 C443 1.367 . S
C443 C442 1.367 . S
C443 C445 1.433 . S
C444 C440 1.350 . S
C444 C441 1.463 . S
C444 N448 1.427 . S
C445 H435 0.929 1_554 S
C445 C443 1.433 . S
C445 N448 1.384 . S
C446 H437 0.929 . S
C446 C438 1.378 . S
C446 C441 1.350 . S
C447 H434 0.929 . S
C447 C439 1.433 . S
C447 N449 1.384 . S
N448 C444 1.427 . S
N448 C445 1.384 . S
N449 C441 1.427 . S
N449 C447 1.384 . S
H450 C456 0.930 . S
H451 C460 0.930 . S
H452 C465 0.929 . S
H453 C463 0.929 . S
H454 C458 0.929 . S
H455 C464 0.929 . S
C456 H450 0.930 . S
C456 C457 1.367 . S
C456 C464 1.378 . S
C457 C456 1.367 . S
C457 C465 1.433 . S
C458 H454 0.929 . S
C458 C460 1.378 . S
C458 C462 1.350 . S
C459 C462 1.463 . S
C459 C464 1.350 . S
C459 N467 1.427 . S
C460 H451 0.930 . S
C460 C458 1.378 . S
C460 C461 1.367 . S
C461 C460 1.367 . S
C461 C463 1.433 . S
C462 C458 1.350 . S
C462 C459 1.463 . S
C462 N466 1.427 . S
C463 H453 0.929 . S
C463 C461 1.433 . S
C463 N466 1.384 . S
C464 H455 0.929 . S
C464 C456 1.378 . S
C464 C459 1.350 . S
C465 H452 0.929 . S
C465 C457 1.433 . S
C465 N467 1.384 . S
N466 C462 1.427 . S
N466 C463 1.384 . S
N467 C459 1.427 . S
N467 C465 1.384 . S
H468 C474 0.930 . S
H469 C478 0.930 . S
H470 C483 0.929 . S
H471 C481 0.929 . S
H472 C476 0.929 . S
H473 C482 0.929 . S
C474 H468 0.930 . S
C474 C475 1.367 . S
C474 C482 1.378 . S
C475 C474 1.367 . S
C475 C483 1.433 . S
C476 H472 0.929 . S
C476 C478 1.378 . S
C476 C480 1.350 . S
C477 C480 1.463 . S
C477 C482 1.350 . S
C477 N485 1.427 . S
C478 H469 0.930 . S
C478 C476 1.378 . S
C478 C479 1.367 . S
C479 C478 1.367 . S
C479 C481 1.433 . S
C480 C476 1.350 . S
C480 C477 1.463 . S
C480 N484 1.427 . S
C481 H471 0.929 . S
C481 C479 1.433 . S
C481 N484 1.384 . S
C482 H473 0.929 . S
C482 C474 1.378 . S
C482 C477 1.350 . S
C483 H470 0.929 . S
C483 C475 1.433 . S
C483 N485 1.384 . S
N484 C480 1.427 . S
N484 C481 1.384 . S
N485 C477 1.427 . S
N485 C483 1.384 . S
H486 C492 0.930 . S
H487 C496 0.930 . S
H488 C501 0.929 . S
H489 C499 0.929 . S
H490 C494 0.929 . S
H491 C500 0.929 . S
C492 H486 0.930 . S
C492 C493 1.367 . S
C492 C500 1.378 . S
C493 C492 1.367 . S
C493 C501 1.433 . S
C494 H490 0.929 . S
C494 C496 1.378 . S
C494 C498 1.350 . S
C495 C498 1.463 1_554 S
C495 C500 1.350 . S
C495 N503 1.427 1_554 S
C496 H487 0.930 . S
C496 C494 1.378 . S
C496 C497 1.367 . S
C497 C496 1.367 . S
C497 C499 1.433 . S
C498 C494 1.350 . S
C498 C495 1.463 1_556 S
C498 N502 1.427 . S
C499 H489 0.929 . S
C499 C497 1.433 . S
C499 N502 1.384 . S
C500 H491 0.929 . S
C500 C492 1.378 . S
C500 C495 1.350 . S
C501 H488 0.929 . S
C501 C493 1.433 . S
C501 N503 1.384 1_554 S
N502 C498 1.427 . S
N502 C499 1.384 . S
N503 C495 1.427 1_556 S
N503 C501 1.384 1_556 S
H504 C510 0.930 . S
H505 C514 0.930 1_554 S
H506 C519 0.929 . S
H507 C517 0.929 . S
H508 C512 0.929 . S
H509 C518 0.929 . S
C510 H504 0.930 . S
C510 C511 1.367 1_455 S
C510 C518 1.378 . S
C511 C510 1.367 1_655 S
C511 C519 1.433 . S
C512 H508 0.929 . S
C512 C514 1.378 . S
C512 C516 1.350 . S
C513 C516 1.463 . S
C513 C518 1.350 1_655 S
C513 N521 1.427 . S
C514 H505 0.930 1_556 S
C514 C512 1.378 . S
C514 C515 1.367 1_655 S
C515 C514 1.367 1_455 S
C515 C517 1.433 . S
C516 C512 1.350 . S
C516 C513 1.463 . S
C516 N520 1.427 1_655 S
C517 H507 0.929 . S
C517 C515 1.433 . S
C517 N520 1.384 . S
C518 H509 0.929 . S
C518 C510 1.378 . S
C518 C513 1.350 1_455 S
C519 H506 0.929 . S
C519 C511 1.433 . S
C519 N521 1.384 . S
N520 C516 1.427 1_455 S
N520 C517 1.384 . S
N521 C513 1.427 . S
N521 C519 1.384 . S
H522 C528 0.930 . S
H523 C532 0.930 . S
H524 C537 0.929 . S
H525 C535 0.929 . S
H526 C530 0.929 . S
H527 C536 0.929 1_554 S
C528 H522 0.930 . S
C528 C529 1.367 . S
C528 C536 1.378 . S
C529 C528 1.367 . S
C529 C537 1.433 . S
C530 H526 0.929 . S
C530 C532 1.378 . S
C530 C534 1.350 . S
C531 C534 1.463 . S
C531 C536 1.350 . S
C531 N539 1.427 . S
C532 H523 0.930 . S
C532 C530 1.378 . S
C532 C533 1.367 1_556 S
C533 C532 1.367 1_554 S
C533 C535 1.433 . S
C534 C530 1.350 . S
C534 C531 1.463 . S
C534 N538 1.427 1_556 S
C535 H525 0.929 . S
C535 C533 1.433 . S
C535 N538 1.384 . S
C536 H527 0.929 1_556 S
C536 C528 1.378 . S
C536 C531 1.350 . S
C537 H524 0.929 . S
C537 C529 1.433 . S
C537 N539 1.384 . S
N538 C534 1.427 1_554 S
N538 C535 1.384 . S
N539 C531 1.427 . S
N539 C537 1.384 . S
H540 C546 0.930 . S
H541 C550 0.930 . S
H542 C555 0.929 . S
H543 C553 0.929 . S
H544 C548 0.929 1_654 S
H545 C554 0.929 . S
C546 H540 0.930 . S
C546 C547 1.367 1_455 S
C546 C554 1.378 . S
C547 C546 1.367 1_655 S
C547 C555 1.433 . S
C548 H544 0.929 1_456 S
C548 C550 1.378 1_556 S
C548 C552 1.350 . S
C549 C552 1.463 . S
C549 C554 1.350 . S
C549 N557 1.427 1_455 S
C550 H541 0.930 . S
C550 C548 1.378 1_554 S
C550 C551 1.367 1_554 S
C551 C550 1.367 1_556 S
C551 C553 1.433 . S
C552 C548 1.350 . S
C552 C549 1.463 . S
C552 N556 1.427 . S
C553 H543 0.929 . S
C553 C551 1.433 . S
C553 N556 1.384 . S
C554 H545 0.929 . S
C554 C546 1.378 . S
C554 C549 1.350 . S
C555 H542 0.929 . S
C555 C547 1.433 . S
C555 N557 1.384 . S
N556 C552 1.427 . S
N556 C553 1.384 . S
N557 C549 1.427 1_655 S
N557 C555 1.384 . S
H558 C564 0.930 . S
H559 C568 0.930 . S
H560 C573 0.929 . S
H561 C571 0.929 . S
H562 C566 0.929 . S
H563 C572 0.929 . S
C564 H558 0.930 . S
C564 C565 1.367 1_556 S
C564 C572 1.378 . S
C565 C564 1.367 1_554 S
C565 C573 1.433 . S
C566 H562 0.929 . S
C566 C568 1.378 . S
C566 C570 1.350 . S
C567 C570 1.463 . S
C567 C572 1.350 . S
C567 N575 1.427 1_556 S
C568 H559 0.930 . S
C568 C566 1.378 . S
C568 C569 1.367 . S
C569 C568 1.367 . S
C569 C571 1.433 . S
C570 C566 1.350 . S
C570 C567 1.463 . S
C570 N574 1.427 . S
C571 H561 0.929 . S
C571 C569 1.433 . S
C571 N574 1.384 . S
C572 H563 0.929 . S
C572 C564 1.378 . S
C572 C567 1.350 . S
C573 H560 0.929 . S
C573 C565 1.433 . S
C573 N575 1.384 . S
N574 C570 1.427 . S
N574 C571 1.384 . S
N575 C567 1.427 1_554 S
N575 C573 1.384 . S
H576 C582 0.930 . S
H577 C586 0.930 1_556 S
H578 C591 0.929 . S
H579 C589 0.929 . S
H580 C584 0.929 . S
H581 C590 0.929 . S
C582 H576 0.930 . S
C582 C583 1.367 . S
C582 C590 1.378 1_556 S
C583 C582 1.367 . S
C583 C591 1.433 . S
C584 H580 0.929 . S
C584 C586 1.378 1_556 S
C584 C588 1.350 1_556 S
C585 C588 1.463 1_556 S
C585 C590 1.350 1_556 S
C585 N593 1.427 . S
C586 H577 0.930 1_554 S
C586 C584 1.378 1_554 S
C586 C587 1.367 . S
C587 C586 1.367 . S
C587 C589 1.433 . S
C588 C584 1.350 1_554 S
C588 C585 1.463 1_554 S
C588 N592 1.427 . S
C589 H579 0.929 . S
C589 C587 1.433 . S
C589 N592 1.384 . S
C590 H581 0.929 . S
C590 C582 1.378 1_554 S
C590 C585 1.350 1_554 S
C591 H578 0.929 . S
C591 C583 1.433 . S
C591 N593 1.384 . S
N592 C588 1.427 . S
N592 C589 1.384 . S
N593 C585 1.427 . S
N593 C591 1.384 . S
H594 C600 0.930 . S
H595 C604 0.930 . S
H596 C609 0.929 . S
H597 C607 0.929 . S
H598 C602 0.929 . S
H599 C608 0.929 . S
C600 H594 0.930 . S
C600 C601 1.367 . S
C600 C608 1.378 . S
C601 C600 1.367 . S
C601 C609 1.433 . S
C602 H598 0.929 . S
C602 C604 1.378 . S
C602 C606 1.350 . S
C603 C606 1.463 . S
C603 C608 1.350 . S
C603 N611 1.427 . S
C604 H595 0.930 . S
C604 C602 1.378 . S
C604 C605 1.367 . S
C605 C604 1.367 . S
C605 C607 1.433 . S
C606 C602 1.350 . S
C606 C603 1.463 . S
C606 N610 1.427 . S
C607 H597 0.929 . S
C607 C605 1.433 . S
C607 N610 1.384 . S
C608 H599 0.929 . S
C608 C600 1.378 . S
C608 C603 1.350 . S
C609 H596 0.929 . S
C609 C601 1.433 . S
C609 N611 1.384 . S
N610 C606 1.427 . S
N610 C607 1.384 . S
N611 C603 1.427 . S
N611 C609 1.384 . S
H612 C618 0.930 . S
H613 C622 0.930 . S
H614 C627 0.929 . S
H615 C625 0.929 1_556 S
H616 C620 0.929 . S
H617 C626 0.929 . S
C618 H612 0.930 . S
C618 C619 1.367 . S
C618 C626 1.378 . S
C619 C618 1.367 . S
C619 C627 1.433 . S
C620 H616 0.929 . S
C620 C622 1.378 . S
C620 C624 1.350 . S
C621 C624 1.463 . S
C621 C626 1.350 . S
C621 N629 1.427 . S
C622 H613 0.930 . S
C622 C620 1.378 . S
C622 C623 1.367 . S
C623 C622 1.367 . S
C623 C625 1.433 . S
C624 C620 1.350 . S
C624 C621 1.463 . S
C624 N628 1.427 . S
C625 H615 0.929 1_554 S
C625 C623 1.433 . S
C625 N628 1.384 . S
C626 H617 0.929 . S
C626 C618 1.378 . S
C626 C621 1.350 . S
C627 H614 0.929 . S
C627 C619 1.433 . S
C627 N629 1.384 . S
N628 C624 1.427 . S
N628 C625 1.384 . S
N629 C621 1.427 . S
N629 C627 1.384 . S
H630 C636 0.930 . S
H631 C640 0.930 . S
H632 C645 0.929 . S
H633 C643 0.929 . S
H634 C638 0.929 . S
H635 C644 0.929 . S
C636 H630 0.930 . S
C636 C637 1.367 . S
C636 C644 1.378 . S
C637 C636 1.367 . S
C637 C645 1.433 . S
C638 H634 0.929 . S
C638 C640 1.378 . S
C638 C642 1.350 . S
C639 C642 1.463 . S
C639 C644 1.350 . S
C639 N647 1.427 . S
C640 H631 0.930 . S
C640 C638 1.378 . S
C640 C641 1.367 . S
C641 C640 1.367 . S
C641 C643 1.433 . S
C642 C638 1.350 . S
C642 C639 1.463 . S
C642 N646 1.427 . S
C643 H633 0.929 . S
C643 C641 1.433 . S
C643 N646 1.384 . S
C644 H635 0.929 . S
C644 C636 1.378 . S
C644 C639 1.350 . S
C645 H632 0.929 . S
C645 C637 1.433 . S
C645 N647 1.384 . S
N646 C642 1.427 . S
N646 C643 1.384 . S
N647 C639 1.427 . S
N647 C645 1.384 . S
H648 C654 0.930 . S
H649 C658 0.930 . S
H650 C663 0.929 . S
H651 C661 0.929 . S
H652 C656 0.929 . S
H653 C662 0.929 . S
C654 H648 0.930 . S
C654 C655 1.367 . S
C654 C662 1.378 . S
C655 C654 1.367 . S
C655 C663 1.433 . S
C656 H652 0.929 . S
C656 C658 1.378 . S
C656 C660 1.350 . S
C657 C660 1.463 . S
C657 C662 1.350 . S
C657 N665 1.427 . S
C658 H649 0.930 . S
C658 C656 1.378 . S
C658 C659 1.367 . S
C659 C658 1.367 . S
C659 C661 1.433 . S
C660 C656 1.350 . S
C660 C657 1.463 . S
C660 N664 1.427 . S
C661 H651 0.929 . S
C661 C659 1.433 . S
C661 N664 1.384 . S
C662 H653 0.929 . S
C662 C654 1.378 . S
C662 C657 1.350 . S
C663 H650 0.929 . S
C663 C655 1.433 . S
C663 N665 1.384 . S
N664 C660 1.427 . S
N664 C661 1.384 . S
N665 C657 1.427 . S
N665 C663 1.384 . S
H666 C672 0.930 . S
H667 C676 0.930 . S
H668 C681 0.929 . S
H669 C679 0.929 . S
H670 C674 0.929 . S
H671 C680 0.929 . S
C672 H666 0.930 . S
C672 C673 1.367 . S
C672 C680 1.378 . S
C673 C672 1.367 . S
C673 C681 1.433 . S
C674 H670 0.929 . S
C674 C676 1.378 . S
C674 C678 1.350 . S
C675 C678 1.463 . S
C675 C680 1.350 . S
C675 N683 1.427 . S
C676 H667 0.930 . S
C676 C674 1.378 . S
C676 C677 1.367 . S
C677 C676 1.367 . S
C677 C679 1.433 . S
C678 C674 1.350 . S
C678 C675 1.463 . S
C678 N682 1.427 . S
C679 H669 0.929 . S
C679 C677 1.433 . S
C679 N682 1.384 . S
C680 H671 0.929 . S
C680 C672 1.378 . S
C680 C675 1.350 . S
C681 H668 0.929 . S
C681 C673 1.433 . S
C681 N683 1.384 . S
N682 C678 1.427 . S
N682 C679 1.384 . S
N683 C675 1.427 . S
N683 C681 1.384 . S
H684 C690 0.930 . S
H685 C694 0.930 . S
H686 C699 0.929 . S
H687 C697 0.929 . S
H688 C692 0.929 . S
H689 C698 0.929 . S
C690 H684 0.930 . S
C690 C691 1.367 . S
C690 C698 1.378 . S
C691 C690 1.367 . S
C691 C699 1.433 . S
C692 H688 0.929 . S
C692 C694 1.378 . S
C692 C696 1.350 . S
C693 C696 1.463 . S
C693 C698 1.350 . S
C693 N701 1.427 . S
C694 H685 0.930 . S
C694 C692 1.378 . S
C694 C695 1.367 . S
C695 C694 1.367 . S
C695 C697 1.433 . S
C696 C692 1.350 . S
C696 C693 1.463 . S
C696 N700 1.427 . S
C697 H687 0.929 . S
C697 C695 1.433 . S
C697 N700 1.384 . S
C698 H689 0.929 . S
C698 C690 1.378 . S
C698 C693 1.350 . S
C699 H686 0.929 . S
C699 C691 1.433 . S
C699 N701 1.384 . S
N700 C696 1.427 . S
N700 C697 1.384 . S
N701 C693 1.427 . S
N701 C699 1.384 . S
H702 C708 0.930 . S
H703 C712 0.930 . S
H704 C717 0.929 . S
H705 C715 0.929 . S
H706 C710 0.929 . S
H707 C716 0.929 . S
C708 H702 0.930 . S
C708 C709 1.367 . S
C708 C716 1.378 . S
C709 C708 1.367 . S
C709 C717 1.433 . S
C710 H706 0.929 . S
C710 C712 1.378 . S
C710 C714 1.350 . S
C711 C714 1.463 . S
C711 C716 1.350 . S
C711 N719 1.427 . S
C712 H703 0.930 . S
C712 C710 1.378 . S
C712 C713 1.367 . S
C713 C712 1.367 . S
C713 C715 1.433 . S
C714 C710 1.350 . S
C714 C711 1.463 . S
C714 N718 1.427 . S
C715 H705 0.929 . S
C715 C713 1.433 . S
C715 N718 1.384 . S
C716 H707 0.929 . S
C716 C708 1.378 . S
C716 C711 1.350 . S
C717 H704 0.929 . S
C717 C709 1.433 . S
C717 N719 1.384 . S
N718 C714 1.427 . S
N718 C715 1.384 . S
N719 C711 1.427 . S
N719 C717 1.384 . S
H720 C726 0.930 . S
H721 C730 0.930 . S
H722 C735 0.929 . S
H723 C733 0.929 . S
H724 C728 0.929 . S
H725 C734 0.929 . S
C726 H720 0.930 . S
C726 C727 1.367 . S
C726 C734 1.378 . S
C727 C726 1.367 . S
C727 C735 1.433 . S
C728 H724 0.929 . S
C728 C730 1.378 . S
C728 C732 1.350 . S
C729 C732 1.463 . S
C729 C734 1.350 . S
C729 N737 1.427 . S
C730 H721 0.930 . S
C730 C728 1.378 . S
C730 C731 1.367 . S
C731 C730 1.367 . S
C731 C733 1.433 . S
C732 C728 1.350 . S
C732 C729 1.463 . S
C732 N736 1.427 . S
C733 H723 0.929 . S
C733 C731 1.433 . S
C733 N736 1.384 . S
C734 H725 0.929 . S
C734 C726 1.378 . S
C734 C729 1.350 . S
C735 H722 0.929 . S
C735 C727 1.433 . S
C735 N737 1.384 . S
N736 C732 1.427 . S
N736 C733 1.384 . S
N737 C729 1.427 . S
N737 C735 1.384 . S
H738 C744 0.930 . S
H739 C748 0.930 . S
H740 C753 0.929 . S
H741 C751 0.929 . S
H742 C746 0.929 . S
H743 C752 0.929 . S
C744 H738 0.930 . S
C744 C745 1.367 . S
C744 C752 1.378 . S
C745 C744 1.367 . S
C745 C753 1.433 . S
C746 H742 0.929 . S
C746 C748 1.378 . S
C746 C750 1.350 . S
C747 C750 1.463 . S
C747 C752 1.350 . S
C747 N755 1.427 . S
C748 H739 0.930 . S
C748 C746 1.378 . S
C748 C749 1.367 . S
C749 C748 1.367 . S
C749 C751 1.433 . S
C750 C746 1.350 . S
C750 C747 1.463 . S
C750 N754 1.427 . S
C751 H741 0.929 . S
C751 C749 1.433 . S
C751 N754 1.384 . S
C752 H743 0.929 . S
C752 C744 1.378 . S
C752 C747 1.350 . S
C753 H740 0.929 . S
C753 C745 1.433 . S
C753 N755 1.384 . S
N754 C750 1.427 . S
N754 C751 1.384 . S
N755 C747 1.427 . S
N755 C753 1.384 . S
C277 C10 1.073 . S
C281 C1 1.073 . S
C295 C31 1.082 . S
C299 C40 1.082 . S
C313 C70 1.101 . S
C317 C61 1.101 . S
C331 C91 1.069 . S
C335 C100 1.069 . S
C349 C130 1.078 . S
C353 C121 1.078 . S
C367 C151 1.110 . S
C371 C160 1.110 . S
C385 C207 1.095 . S
C389 C196 1.095 . S
C403 C226 1.071 . S
C407 C237 1.071 . S
C421 C267 1.041 . S
C425 C256 1.041 . S
C439 N164 1.397 . S
C443 C27 1.462 . S
C457 N44 1.039 . S
C461 N104 1.036 . S
C475 C87 1.873 . S
C479 C147 1.904 . S
C493 N74 0.801 . S
C497 N186 0.783 . S
C511 C211 1.498 . S
C515 N14 1.402 . S
C529 N246 1.383 . S
C533 C57 1.373 . S
C547 C250 1.906 . S
C551 C16 1.862 1_556 S
C565 N36 0.925 . S
C569 C190 0.990 . S
C583 N224 1.109 . S
C587 C76 1.139 . S
C601 N66 1.409 . S
C605 C106 1.465 . S
C619 N126 1.040 . S
C623 N6 1.038 . S
C637 C46 1.904 . S
C641 C166 1.874 . S
C655 C241 1.902 . S
C659 C117 1.855 . S
C673 C181 0.994 . S
C677 N134 0.945 . S
C691 N216 1.106 . S
C695 C177 1.154 . S
C709 N194 0.782 . S
C713 N156 0.799 . S
C727 N96 1.390 1_545 S
C731 C220 1.494 . S
C745 N254 1.377 . S
C749 C136 1.378 . S
