# Generated by pormake.
# Topology mer, (4)-cn, num edge types: 1
# Building blocks:
#     Node 0, Type 0, BuildingBlock: KUFVIS_clean_sbu_0, # of connection points: 4
#     Node 1, Type 0, BuildingBlock: KUFVIS_clean_sbu_0, # of connection points: 4
#     Node 2, Type 0, BuildingBlock: KUFVIS_clean_sbu_0, # of connection points: 4
#     Node 3, Type 0, BuildingBlock: KUFVIS_clean_sbu_0, # of connection points: 4
#     Node 4, Type 0, BuildingBlock: KUFVIS_clean_sbu_0, # of connection points: 4
#     Node 5, Type 0, BuildingBlock: KUFVIS_clean_sbu_0, # of connection points: 4
#     Node 6, Type 0, BuildingBlock: KUFVIS_clean_sbu_0, # of connection points: 4
#     Node 7, Type 0, BuildingBlock: KUFVIS_clean_sbu_0, # of connection points: 4
#     Node 8, Type 0, BuildingBlock: KUFVIS_clean_sbu_0, # of connection points: 4
#     Node 9, Type 0, BuildingBlock: KUFVIS_clean_sbu_0, # of connection points: 4
#     Node 10, Type 0, BuildingBlock: KUFVIS_clean_sbu_0, # of connection points: 4
#     Node 11, Type 0, BuildingBlock: KUFVIS_clean_sbu_0, # of connection points: 4
#     Node 12, Type 0, BuildingBlock: KUFVIS_clean_sbu_0, # of connection points: 4
#     Node 13, Type 0, BuildingBlock: KUFVIS_clean_sbu_0, # of connection points: 4
#     Node 14, Type 0, BuildingBlock: KUFVIS_clean_sbu_0, # of connection points: 4
#     Node 15, Type 0, BuildingBlock: KUFVIS_clean_sbu_0, # of connection points: 4
#     Node 16, Type 0, BuildingBlock: KUFVIS_clean_sbu_0, # of connection points: 4
#     Node 17, Type 0, BuildingBlock: KUFVIS_clean_sbu_0, # of connection points: 4
#     Node 18, Type 0, BuildingBlock: KUFVIS_clean_sbu_0, # of connection points: 4
#     Node 19, Type 0, BuildingBlock: KUFVIS_clean_sbu_0, # of connection points: 4
#     Node 20, Type 0, BuildingBlock: KUFVIS_clean_sbu_0, # of connection points: 4
#     Node 21, Type 0, BuildingBlock: KUFVIS_clean_sbu_0, # of connection points: 4
#     Node 22, Type 0, BuildingBlock: KUFVIS_clean_sbu_0, # of connection points: 4
#     Node 23, Type 0, BuildingBlock: KUFVIS_clean_sbu_0, # of connection points: 4
#     Node 24, Type 0, BuildingBlock: KUFVIS_clean_sbu_0, # of connection points: 4
#     Node 25, Type 0, BuildingBlock: KUFVIS_clean_sbu_0, # of connection points: 4
#     Node 26, Type 0, BuildingBlock: KUFVIS_clean_sbu_0, # of connection points: 4
#     Node 27, Type 0, BuildingBlock: KUFVIS_clean_sbu_0, # of connection points: 4
#     Node 28, Type 0, BuildingBlock: KUFVIS_clean_sbu_0, # of connection points: 4
#     Node 29, Type 0, BuildingBlock: KUFVIS_clean_sbu_0, # of connection points: 4
#     Node 30, Type 0, BuildingBlock: KUFVIS_clean_sbu_0, # of connection points: 4
#     Node 31, Type 0, BuildingBlock: KUFVIS_clean_sbu_0, # of connection points: 4
#     Edge 32, Type (0, 0), BuildingBlock: UVAHIK_clean_linker_0, # of connection points: 2
#     Edge 33, Type (0, 0), BuildingBlock: UVAHIK_clean_linker_0, # of connection points: 2
#     Edge 34, Type (0, 0), BuildingBlock: UVAHIK_clean_linker_0, # of connection points: 2
#     Edge 35, Type (0, 0), BuildingBlock: UVAHIK_clean_linker_0, # of connection points: 2
#     Edge 36, Type (0, 0), BuildingBlock: UVAHIK_clean_linker_0, # of connection points: 2
#     Edge 37, Type (0, 0), BuildingBlock: UVAHIK_clean_linker_0, # of connection points: 2
#     Edge 38, Type (0, 0), BuildingBlock: UVAHIK_clean_linker_0, # of connection points: 2
#     Edge 39, Type (0, 0), BuildingBlock: UVAHIK_clean_linker_0, # of connection points: 2
#     Edge 40, Type (0, 0), BuildingBlock: UVAHIK_clean_linker_0, # of connection points: 2
#     Edge 41, Type (0, 0), BuildingBlock: UVAHIK_clean_linker_0, # of connection points: 2
#     Edge 42, Type (0, 0), BuildingBlock: UVAHIK_clean_linker_0, # of connection points: 2
#     Edge 43, Type (0, 0), BuildingBlock: UVAHIK_clean_linker_0, # of connection points: 2
#     Edge 44, Type (0, 0), BuildingBlock: UVAHIK_clean_linker_0, # of connection points: 2
#     Edge 45, Type (0, 0), BuildingBlock: UVAHIK_clean_linker_0, # of connection points: 2
#     Edge 46, Type (0, 0), BuildingBlock: UVAHIK_clean_linker_0, # of connection points: 2
#     Edge 47, Type (0, 0), BuildingBlock: UVAHIK_clean_linker_0, # of connection points: 2
#     Edge 48, Type (0, 0), BuildingBlock: UVAHIK_clean_linker_0, # of connection points: 2
#     Edge 49, Type (0, 0), BuildingBlock: UVAHIK_clean_linker_0, # of connection points: 2
#     Edge 50, Type (0, 0), BuildingBlock: UVAHIK_clean_linker_0, # of connection points: 2
#     Edge 51, Type (0, 0), BuildingBlock: UVAHIK_clean_linker_0, # of connection points: 2
#     Edge 52, Type (0, 0), BuildingBlock: UVAHIK_clean_linker_0, # of connection points: 2
#     Edge 53, Type (0, 0), BuildingBlock: UVAHIK_clean_linker_0, # of connection points: 2
#     Edge 54, Type (0, 0), BuildingBlock: UVAHIK_clean_linker_0, # of connection points: 2
#     Edge 55, Type (0, 0), BuildingBlock: UVAHIK_clean_linker_0, # of connection points: 2
#     Edge 56, Type (0, 0), BuildingBlock: UVAHIK_clean_linker_0, # of connection points: 2
#     Edge 57, Type (0, 0), BuildingBlock: UVAHIK_clean_linker_0, # of connection points: 2
#     Edge 58, Type (0, 0), BuildingBlock: UVAHIK_clean_linker_0, # of connection points: 2
#     Edge 59, Type (0, 0), BuildingBlock: UVAHIK_clean_linker_0, # of connection points: 2
#     Edge 60, Type (0, 0), BuildingBlock: UVAHIK_clean_linker_0, # of connection points: 2
#     Edge 61, Type (0, 0), BuildingBlock: UVAHIK_clean_linker_0, # of connection points: 2
#     Edge 62, Type (0, 0), BuildingBlock: UVAHIK_clean_linker_0, # of connection points: 2
#     Edge 63, Type (0, 0), BuildingBlock: UVAHIK_clean_linker_0, # of connection points: 2
#     Edge 64, Type (0, 0), BuildingBlock: UVAHIK_clean_linker_0, # of connection points: 2
#     Edge 65, Type (0, 0), BuildingBlock: UVAHIK_clean_linker_0, # of connection points: 2
#     Edge 66, Type (0, 0), BuildingBlock: UVAHIK_clean_linker_0, # of connection points: 2
#     Edge 67, Type (0, 0), BuildingBlock: UVAHIK_clean_linker_0, # of connection points: 2
#     Edge 68, Type (0, 0), BuildingBlock: UVAHIK_clean_linker_0, # of connection points: 2
#     Edge 69, Type (0, 0), BuildingBlock: UVAHIK_clean_linker_0, # of connection points: 2
#     Edge 70, Type (0, 0), BuildingBlock: UVAHIK_clean_linker_0, # of connection points: 2
#     Edge 71, Type (0, 0), BuildingBlock: UVAHIK_clean_linker_0, # of connection points: 2
#     Edge 72, Type (0, 0), BuildingBlock: UVAHIK_clean_linker_0, # of connection points: 2
#     Edge 73, Type (0, 0), BuildingBlock: UVAHIK_clean_linker_0, # of connection points: 2
#     Edge 74, Type (0, 0), BuildingBlock: UVAHIK_clean_linker_0, # of connection points: 2
#     Edge 75, Type (0, 0), BuildingBlock: UVAHIK_clean_linker_0, # of connection points: 2
#     Edge 76, Type (0, 0), BuildingBlock: UVAHIK_clean_linker_0, # of connection points: 2
#     Edge 77, Type (0, 0), BuildingBlock: UVAHIK_clean_linker_0, # of connection points: 2
#     Edge 78, Type (0, 0), BuildingBlock: UVAHIK_clean_linker_0, # of connection points: 2
#     Edge 79, Type (0, 0), BuildingBlock: UVAHIK_clean_linker_0, # of connection points: 2
#     Edge 80, Type (0, 0), BuildingBlock: UVAHIK_clean_linker_0, # of connection points: 2
#     Edge 81, Type (0, 0), BuildingBlock: UVAHIK_clean_linker_0, # of connection points: 2
#     Edge 82, Type (0, 0), BuildingBlock: UVAHIK_clean_linker_0, # of connection points: 2
#     Edge 83, Type (0, 0), BuildingBlock: UVAHIK_clean_linker_0, # of connection points: 2
#     Edge 84, Type (0, 0), BuildingBlock: UVAHIK_clean_linker_0, # of connection points: 2
#     Edge 85, Type (0, 0), BuildingBlock: UVAHIK_clean_linker_0, # of connection points: 2
#     Edge 86, Type (0, 0), BuildingBlock: UVAHIK_clean_linker_0, # of connection points: 2
#     Edge 87, Type (0, 0), BuildingBlock: UVAHIK_clean_linker_0, # of connection points: 2
#     Edge 88, Type (0, 0), BuildingBlock: UVAHIK_clean_linker_0, # of connection points: 2
#     Edge 89, Type (0, 0), BuildingBlock: UVAHIK_clean_linker_0, # of connection points: 2
#     Edge 90, Type (0, 0), BuildingBlock: UVAHIK_clean_linker_0, # of connection points: 2
#     Edge 91, Type (0, 0), BuildingBlock: UVAHIK_clean_linker_0, # of connection points: 2
#     Edge 92, Type (0, 0), BuildingBlock: UVAHIK_clean_linker_0, # of connection points: 2
#     Edge 93, Type (0, 0), BuildingBlock: UVAHIK_clean_linker_0, # of connection points: 2
#     Edge 94, Type (0, 0), BuildingBlock: UVAHIK_clean_linker_0, # of connection points: 2
#     Edge 95, Type (0, 0), BuildingBlock: UVAHIK_clean_linker_0, # of connection points: 2
# Relax obj value: 0.090
# Max RMSD: 0.140
# Mean RMSD: 0.134
data_MOF--net-mer--node1-KUFVIS_clean_sbu_0--edge1-UVAHIK_clean_linker_0
_symmetry_space_group_name_H-M    P1
_symmetry_Int_Tables_number       1
_symmetry_cell_setting            triclinic
loop_
_symmetry_equiv_pos_as_xyz
'x, y, z'
_cell_length_a     82.894037
_cell_length_b     82.109105
_cell_length_c     66.896939
_cell_angle_alpha  90.001862
_cell_angle_beta   90.000655
_cell_angle_gamma 90.005583
loop_
_atom_site_label
_atom_site_type_symbol
_atom_site_fract_x
_atom_site_fract_y
_atom_site_fract_z
_atom_type_partial_charge
Mn0 Mn 0.10512 0.27218 0.35034 0.0
Mn1 Mn 0.13307 0.29444 0.37475 0.0
C2 C 0.10661 0.27067 0.38465 0.0
C3 C 0.07979 0.27109 0.33556 0.0
C4 C 0.14072 0.26327 0.35208 0.0
O5 O 0.11271 0.28844 0.32955 0.0
O6 O 0.1287 0.30452 0.34827 0.0
C7 C 0.11419 0.32458 0.38115 0.0
N8 N 0.123 0.31201 0.3887 0.0
C9 C 0.12023 0.32229 0.42221 0.0
C10 C 0.11122 0.33541 0.41478 0.0
C11 C 0.10815 0.33653 0.39417 0.0
C12 C 0.12594 0.31076 0.40852 0.0
H13 H 0.11179 0.32546 0.36531 0.0
C14 C 0.12147 0.30105 0.33188 0.0
O15 O 0.09114 0.26107 0.33022 0.0
O16 O 0.08321 0.28161 0.34938 0.0
N17 N 0.13854 0.28625 0.40068 0.0
C18 C 0.1469 0.27251 0.40552 0.0
C19 C 0.15078 0.26944 0.4256 0.0
C20 C 0.14618 0.28059 0.44047 0.0
C21 C 0.13774 0.29472 0.43512 0.0
C22 C 0.13433 0.2972 0.41484 0.0
H23 H 0.15057 0.26394 0.39416 0.0
O24 O 0.09924 0.25938 0.3746 0.0
O25 O 0.11246 0.28273 0.37435 0.0
O26 O 0.12624 0.25943 0.34757 0.0
O27 O 0.14448 0.27638 0.3613 0.0
C28 C 0.13236 0.30632 0.44914 0.0
C29 C 0.12356 0.32006 0.4427 0.0
H30 H 0.1065 0.34463 0.42478 0.0
H31 H 0.10113 0.34658 0.38834 0.0
H32 H 0.1573 0.2585 0.42961 0.0
H33 H 0.14915 0.27814 0.45595 0.0
H34 H 0.13473 0.30467 0.46494 0.0
H35 H 0.1193 0.32878 0.45364 0.0
Mn36 Mn 0.71584 0.11757 0.35407 0.0
Mn37 Mn 0.75322 0.10691 0.36876 0.0
C38 C 0.73525 0.1374 0.3574 0.0
C39 C 0.6975 0.1199 0.32808 0.0
C40 C 0.7245 0.1093 0.3969 0.0
O41 O 0.71618 0.09299 0.35108 0.0
O42 O 0.74252 0.08778 0.35625 0.0
C43 C 0.76799 0.10117 0.32911 0.0
N44 N 0.76798 0.10909 0.34699 0.0
C45 C 0.79194 0.12402 0.33821 0.0
C46 C 0.79227 0.11594 0.31975 0.0
C47 C 0.78022 0.1045 0.31516 0.0
C48 C 0.77944 0.12022 0.35149 0.0
H49 H 0.75872 0.09241 0.32551 0.0
C50 C 0.72827 0.08339 0.35113 0.0
O51 O 0.69259 0.11841 0.34645 0.0
O52 O 0.71293 0.11999 0.32493 0.0
N53 N 0.76511 0.12424 0.381 0.0
C54 C 0.76287 0.13122 0.39928 0.0
C55 C 0.77381 0.14306 0.40606 0.0
C56 C 0.78704 0.14745 0.3941 0.0
C57 C 0.78927 0.13988 0.37552 0.0
C58 C 0.77802 0.12811 0.3696 0.0
H59 H 0.75279 0.12784 0.40861 0.0
O60 O 0.72011 0.14137 0.35672 0.0
O61 O 0.73856 0.12202 0.35531 0.0
O62 O 0.71452 0.11533 0.38441 0.0
O63 O 0.73881 0.10479 0.39226 0.0
C64 C 0.80213 0.14367 0.36256 0.0
C65 C 0.80341 0.13582 0.34387 0.0
H66 H 0.80167 0.11849 0.30894 0.0
H67 H 0.78035 0.09827 0.3009 0.0
H68 H 0.77203 0.1488 0.42045 0.0
H69 H 0.79538 0.15668 0.39931 0.0
H70 H 0.81099 0.15275 0.36673 0.0
H71 H 0.81322 0.139 0.33392 0.0
Mn72 Mn 0.89301 0.72433 0.34916 0.0
Mn73 Mn 0.86415 0.70453 0.37508 0.0
C74 C 0.89214 0.72676 0.38348 0.0
C75 C 0.91823 0.72366 0.33404 0.0
C76 C 0.85805 0.73548 0.35124 0.0
O77 O 0.88413 0.70805 0.32912 0.0
O78 O 0.86753 0.69354 0.34894 0.0
C79 C 0.88126 0.67345 0.38229 0.0
N80 N 0.87334 0.68673 0.38951 0.0
C81 C 0.87593 0.67715 0.42336 0.0
C82 C 0.88403 0.6633 0.41628 0.0
C83 C 0.88674 0.66148 0.39566 0.0
C84 C 0.87076 0.68867 0.40932 0.0
H85 H 0.88337 0.67202 0.36646 0.0
C86 C 0.87464 0.69609 0.33221 0.0
O87 O 0.90737 0.73413 0.32844 0.0
O88 O 0.91434 0.71362 0.34819 0.0
N89 N 0.85958 0.71371 0.40076 0.0
C90 C 0.85212 0.72805 0.40521 0.0
C91 C 0.84864 0.73184 0.42522 0.0
C92 C 0.85272 0.72079 0.44043 0.0
C93 C 0.86028 0.70606 0.43549 0.0
C94 C 0.86331 0.70288 0.41526 0.0
H95 H 0.84883 0.73654 0.39358 0.0
O96 O 0.89998 0.73735 0.37286 0.0
O97 O 0.88542 0.71486 0.37374 0.0
O98 O 0.87267 0.73825 0.34626 0.0
O99 O 0.85365 0.72292 0.36114 0.0
C100 C 0.86512 0.6945 0.44986 0.0
C101 C 0.873 0.68008 0.4438 0.0
H102 H 0.88831 0.65406 0.42654 0.0
H103 H 0.89304 0.65086 0.3901 0.0
H104 H 0.8428 0.74323 0.42892 0.0
H105 H 0.85003 0.72375 0.45584 0.0
H106 H 0.86304 0.69668 0.46562 0.0
H107 H 0.87686 0.67139 0.455 0.0
Mn108 Mn 0.27919 0.87929 0.35335 0.0
Mn109 Mn 0.24251 0.88896 0.37154 0.0
C110 C 0.2602 0.8591 0.35703 0.0
C111 C 0.29645 0.87786 0.32614 0.0
C112 C 0.27267 0.88605 0.39714 0.0
O113 O 0.27839 0.90394 0.35161 0.0
O114 O 0.25234 0.90865 0.35919 0.0
C115 C 0.22537 0.89602 0.33372 0.0
N116 N 0.22649 0.88747 0.3511 0.0
C117 C 0.2019 0.87299 0.34401 0.0
C118 C 0.20042 0.88173 0.32609 0.0
C119 C 0.21223 0.89325 0.3209 0.0
C120 C 0.21523 0.8763 0.35621 0.0
H121 H 0.23445 0.90486 0.32967 0.0
C122 C 0.26624 0.91338 0.35316 0.0
O123 O 0.30205 0.879 0.34423 0.0
O124 O 0.2809 0.87776 0.32393 0.0
N125 N 0.23151 0.87105 0.3838 0.0
C126 C 0.23515 0.86307 0.40109 0.0
C127 C 0.22476 0.85084 0.40813 0.0
C128 C 0.21066 0.84706 0.39746 0.0
C129 C 0.20706 0.85557 0.37985 0.0
C130 C 0.21782 0.86771 0.37362 0.0
H131 H 0.24593 0.86595 0.40942 0.0
O132 O 0.27534 0.8554 0.35514 0.0
O133 O 0.25657 0.8745 0.35599 0.0
O134 O 0.28203 0.88054 0.38362 0.0
O135 O 0.25811 0.89047 0.39387 0.0
C136 C 0.19339 0.85225 0.368 0.0
C137 C 0.19083 0.86093 0.35007 0.0
H138 H 0.19034 0.87958 0.31612 0.0
H139 H 0.21121 0.89998 0.30705 0.0
H140 H 0.22762 0.84432 0.42173 0.0
H141 H 0.20274 0.83752 0.40284 0.0
H142 H 0.18491 0.84287 0.37238 0.0
H143 H 0.18041 0.8581 0.34094 0.0
Mn144 Mn 0.10509 0.72647 0.64828 0.0
Mn145 Mn 0.13461 0.70542 0.62514 0.0
C146 C 0.10715 0.72751 0.61396 0.0
C147 C 0.07942 0.72653 0.6622 0.0
C148 C 0.14022 0.73725 0.64735 0.0
O149 O 0.11305 0.71087 0.66965 0.0
O150 O 0.13027 0.69551 0.65173 0.0
C151 C 0.1175 0.67418 0.61897 0.0
N152 N 0.12571 0.68713 0.61135 0.0
C153 C 0.12391 0.67631 0.57798 0.0
C154 C 0.11551 0.66281 0.5855 0.0
C155 C 0.11226 0.66177 0.60607 0.0
C156 C 0.12884 0.6883 0.59156 0.0
H157 H 0.11495 0.67336 0.63478 0.0
C158 C 0.12252 0.69873 0.66783 0.0
O159 O 0.09017 0.73714 0.6677 0.0
O160 O 0.08364 0.71598 0.64877 0.0
N161 N 0.14004 0.71354 0.59916 0.0
C162 C 0.1477 0.72766 0.59422 0.0
C163 C 0.15164 0.73071 0.57415 0.0
C164 C 0.1478 0.71916 0.55941 0.0
C165 C 0.14007 0.70465 0.56487 0.0
C166 C 0.13657 0.70221 0.58514 0.0
H167 H 0.15077 0.73655 0.60548 0.0
O168 O 0.09908 0.73859 0.62352 0.0
O169 O 0.11341 0.71595 0.62475 0.0
O170 O 0.12548 0.74031 0.65143 0.0
O171 O 0.14484 0.72427 0.63845 0.0
C172 C 0.13547 0.69262 0.55098 0.0
C173 C 0.12735 0.67848 0.55752 0.0
H174 H 0.11141 0.65323 0.57559 0.0
H175 H 0.10572 0.65142 0.61197 0.0
H176 H 0.15761 0.74194 0.57004 0.0
H177 H 0.1508 0.72159 0.54393 0.0
H178 H 0.13792 0.69422 0.53519 0.0
H179 H 0.12368 0.66943 0.54666 0.0
Mn180 Mn 0.28411 0.1205 0.64305 0.0
Mn181 Mn 0.24603 0.1107 0.63003 0.0
C182 C 0.26496 0.14071 0.64093 0.0
C183 C 0.3037 0.1226 0.66768 0.0
C184 C 0.27376 0.113 0.60047 0.0
O185 O 0.28342 0.0959 0.64595 0.0
O186 O 0.25694 0.09117 0.64126 0.0
C187 C 0.23277 0.10433 0.67035 0.0
N188 N 0.23217 0.1126 0.65272 0.0
C189 C 0.20865 0.12746 0.66328 0.0
C190 C 0.20894 0.11902 0.6815 0.0
C191 C 0.22109 0.10745 0.68507 0.0
C192 C 0.22064 0.12388 0.64921 0.0
H193 H 0.2421 0.09544 0.67316 0.0
C194 C 0.2712 0.08647 0.64586 0.0
O195 O 0.30762 0.12083 0.64901 0.0
O196 O 0.28844 0.12292 0.67199 0.0
N197 N 0.23387 0.12838 0.61903 0.0
C198 C 0.23541 0.13562 0.60079 0.0
C199 C 0.22426 0.14758 0.59495 0.0
C200 C 0.21152 0.15182 0.60777 0.0
C201 C 0.20998 0.14396 0.62628 0.0
C202 C 0.22142 0.13209 0.63127 0.0
H203 H 0.2451 0.13234 0.59079 0.0
O204 O 0.28018 0.14437 0.64072 0.0
O205 O 0.26141 0.12538 0.64312 0.0
O206 O 0.2843 0.11836 0.6127 0.0
O207 O 0.25946 0.1089 0.60561 0.0
C208 C 0.19761 0.14753 0.64004 0.0
C209 C 0.19701 0.13937 0.65858 0.0
H210 H 0.19996 0.12139 0.69289 0.0
H211 H 0.22144 0.10094 0.69914 0.0
H212 H 0.22549 0.15354 0.5806 0.0
H213 H 0.203 0.16113 0.60327 0.0
H214 H 0.1886 0.15666 0.63659 0.0
H215 H 0.18757 0.14238 0.66915 0.0
Mn216 Mn 0.89356 0.27392 0.64538 0.0
Mn217 Mn 0.86513 0.29536 0.62071 0.0
C218 C 0.89213 0.27217 0.61108 0.0
C219 C 0.91897 0.27351 0.66004 0.0
C220 C 0.85817 0.26417 0.64369 0.0
O221 O 0.88561 0.29014 0.666 0.0
O222 O 0.86924 0.30569 0.64711 0.0
C223 C 0.88332 0.3259 0.61408 0.0
N224 N 0.87482 0.31307 0.60662 0.0
C225 C 0.87742 0.3232 0.57302 0.0
C226 C 0.88611 0.33658 0.58035 0.0
C227 C 0.88912 0.3379 0.60096 0.0
C228 C 0.87195 0.31162 0.58681 0.0
H229 H 0.88567 0.32694 0.62991 0.0
C230 C 0.87654 0.30251 0.66354 0.0
O231 O 0.90786 0.26328 0.66556 0.0
O232 O 0.91525 0.28387 0.64617 0.0
N233 N 0.8599 0.28688 0.59485 0.0
C234 C 0.85185 0.27292 0.59013 0.0
C235 C 0.84807 0.26963 0.57007 0.0
C236 C 0.85244 0.28079 0.55511 0.0
C237 C 0.86056 0.29514 0.56034 0.0
C238 C 0.86389 0.29784 0.5806 0.0
H239 H 0.84836 0.26434 0.60157 0.0
O240 O 0.89973 0.26111 0.62123 0.0
O241 O 0.88599 0.28415 0.62127 0.0
O242 O 0.87272 0.26069 0.64828 0.0
O243 O 0.85414 0.27711 0.6343 0.0
C244 C 0.8657 0.30678 0.54622 0.0
C245 C 0.87417 0.32076 0.55255 0.0
H246 H 0.89064 0.34584 0.57027 0.0
H247 H 0.89588 0.34815 0.60671 0.0
H248 H 0.8418 0.25852 0.56615 0.0
H249 H 0.84955 0.27818 0.53964 0.0
H250 H 0.8634 0.30497 0.53043 0.0
H251 H 0.87826 0.32951 0.54153 0.0
Mn252 Mn 0.71839 0.88064 0.64439 0.0
Mn253 Mn 0.75679 0.89018 0.63258 0.0
C254 C 0.73715 0.86013 0.64196 0.0
C255 C 0.69842 0.8784 0.66851 0.0
C256 C 0.7294 0.88921 0.60244 0.0
O257 O 0.71949 0.90512 0.64819 0.0
O258 O 0.74613 0.90955 0.64462 0.0
C259 C 0.76999 0.89511 0.67323 0.0
N260 N 0.77057 0.88743 0.65521 0.0
C261 C 0.79413 0.87226 0.66495 0.0
C262 C 0.79386 0.8801 0.68357 0.0
C263 C 0.78171 0.89154 0.68774 0.0
C264 C 0.78216 0.87634 0.65107 0.0
H265 H 0.76065 0.90389 0.67648 0.0
C266 C 0.73184 0.91434 0.64897 0.0
O267 O 0.69479 0.88064 0.64982 0.0
O268 O 0.71361 0.87766 0.67313 0.0
N269 N 0.76873 0.87265 0.62086 0.0
C270 C 0.76682 0.8656 0.60256 0.0
C271 C 0.77779 0.85362 0.59625 0.0
C272 C 0.79069 0.84914 0.60869 0.0
C273 C 0.79253 0.85671 0.62734 0.0
C274 C 0.78128 0.86864 0.63278 0.0
H275 H 0.75699 0.86904 0.59287 0.0
O276 O 0.72186 0.85681 0.64129 0.0
O277 O 0.74102 0.87534 0.64479 0.0
O278 O 0.71863 0.88348 0.61409 0.0
O279 O 0.74363 0.89301 0.60814 0.0
C280 C 0.80489 0.85264 0.64092 0.0
C281 C 0.80566 0.86037 0.65973 0.0
H282 H 0.80284 0.87733 0.69483 0.0
H283 H 0.78137 0.89757 0.70212 0.0
H284 H 0.77628 0.84783 0.58184 0.0
H285 H 0.79905 0.8398 0.60384 0.0
H286 H 0.8137 0.84339 0.63717 0.0
H287 H 0.81506 0.85697 0.67016 0.0
Mn288 Mn 0.8898 0.72209 0.63167 0.0
Mn289 Mn 0.86217 0.70059 0.60548 0.0
C290 C 0.88997 0.72337 0.59738 0.0
C291 C 0.91428 0.72307 0.64849 0.0
C292 C 0.8547 0.73262 0.62606 0.0
O293 O 0.88081 0.70646 0.65209 0.0
O294 O 0.86382 0.69167 0.63319 0.0
C295 C 0.87991 0.66934 0.60375 0.0
N296 N 0.87235 0.68184 0.59421 0.0
C297 C 0.87721 0.66965 0.56206 0.0
C298 C 0.88496 0.65658 0.57155 0.0
C299 C 0.88636 0.65646 0.59249 0.0
C300 C 0.87104 0.68214 0.57407 0.0
H301 H 0.88103 0.66923 0.61984 0.0
C302 C 0.87079 0.69487 0.64985 0.0
O303 O 0.90276 0.73324 0.65266 0.0
O304 O 0.91153 0.71237 0.63463 0.0
N305 N 0.85903 0.70751 0.57842 0.0
C306 C 0.85161 0.72122 0.57154 0.0
C307 C 0.84937 0.7233 0.55088 0.0
C308 C 0.8546 0.7112 0.53754 0.0
C309 C 0.86198 0.69709 0.54498 0.0
C310 C 0.86377 0.69562 0.56573 0.0
H311 H 0.84755 0.73056 0.5817 0.0
O312 O 0.89714 0.7345 0.6079 0.0
O313 O 0.88333 0.71141 0.60723 0.0
O314 O 0.8689 0.7353 0.63269 0.0
O315 O 0.85085 0.71993 0.61607 0.0
C316 C 0.86788 0.68454 0.53261 0.0
C317 C 0.87554 0.67086 0.54114 0.0
H318 H 0.88997 0.64664 0.56291 0.0
H319 H 0.89238 0.64646 0.59991 0.0
H320 H 0.84368 0.73424 0.54525 0.0
H321 H 0.85298 0.71292 0.52161 0.0
H322 H 0.86676 0.68539 0.51651 0.0
H323 H 0.8802 0.66138 0.53147 0.0
Mn324 Mn 0.28218 0.88674 0.64143 0.0
Mn325 Mn 0.30223 0.85356 0.62513 0.0
C326 C 0.28374 0.88157 0.60768 0.0
C327 C 0.28292 0.91376 0.65168 0.0
C328 C 0.26861 0.85225 0.64328 0.0
O329 O 0.29496 0.87959 0.6657 0.0
O330 O 0.30982 0.85932 0.65248 0.0
C331 C 0.33484 0.86799 0.62191 0.0
N332 N 0.32215 0.86016 0.61327 0.0
C333 C 0.33568 0.85937 0.58146 0.0
C334 C 0.34895 0.86733 0.59005 0.0
C335 C 0.34851 0.87169 0.61036 0.0
C336 C 0.32242 0.85597 0.59373 0.0
H337 H 0.33451 0.87143 0.63749 0.0
C338 C 0.30598 0.86881 0.66693 0.0
O339 O 0.27125 0.90416 0.65713 0.0
O340 O 0.29416 0.90758 0.64055 0.0
N341 N 0.29624 0.84663 0.59884 0.0
C342 C 0.28235 0.83926 0.59276 0.0
C343 C 0.28079 0.83423 0.57278 0.0
C344 C 0.29356 0.8367 0.55933 0.0
C345 C 0.30784 0.84406 0.56601 0.0
C346 C 0.30876 0.84865 0.58614 0.0
H347 H 0.27249 0.8373 0.60303 0.0
O348 O 0.27278 0.89133 0.6146 0.0
O349 O 0.29374 0.87551 0.62067 0.0
O350 O 0.2667 0.86759 0.64531 0.0
O351 O 0.2816 0.84581 0.63661 0.0
C352 C 0.32112 0.84718 0.55344 0.0
C353 C 0.33501 0.85487 0.56114 0.0
H354 H 0.35949 0.87026 0.58118 0.0
H355 H 0.35866 0.8779 0.61707 0.0
H356 H 0.26974 0.82852 0.56776 0.0
H357 H 0.29226 0.83292 0.5439 0.0
H358 H 0.32071 0.84387 0.53777 0.0
H359 H 0.34508 0.85736 0.55128 0.0
Mn360 Mn 0.10889 0.27541 0.63298 0.0
Mn361 Mn 0.13691 0.29688 0.60757 0.0
C362 C 0.10919 0.27413 0.59868 0.0
C363 C 0.08421 0.2748 0.64939 0.0
C364 C 0.14402 0.26523 0.62933 0.0
O365 O 0.11796 0.29101 0.65358 0.0
O366 O 0.13377 0.3069 0.6344 0.0
C367 C 0.1189 0.32771 0.60244 0.0
N368 N 0.127 0.3149 0.59432 0.0
C369 C 0.12339 0.32547 0.56107 0.0
C370 C 0.11509 0.33885 0.56909 0.0
C371 C 0.1128 0.33994 0.58986 0.0
C372 C 0.12919 0.31367 0.57435 0.0
H373 H 0.1171 0.32857 0.6184 0.0
C374 C 0.12711 0.30332 0.65112 0.0
O375 O 0.09554 0.26446 0.65374 0.0
O376 O 0.08729 0.28547 0.63559 0.0
N377 N 0.14129 0.28873 0.5813 0.0
C378 C 0.14912 0.27481 0.57592 0.0
C379 C 0.15222 0.27176 0.55562 0.0
C380 C 0.14742 0.28312 0.5411 0.0
C381 C 0.13958 0.29746 0.54702 0.0
C382 C 0.13693 0.29991 0.56748 0.0
H383 H 0.15293 0.26607 0.587 0.0
O384 O 0.10164 0.26313 0.60898 0.0
O385 O 0.11584 0.28594 0.60875 0.0
O386 O 0.12952 0.26189 0.6342 0.0
O387 O 0.14816 0.27832 0.62032 0.0
C388 C 0.13408 0.30931 0.53339 0.0
C389 C 0.12594 0.32328 0.54041 0.0
H390 H 0.11033 0.34829 0.55943 0.0
H391 H 0.10634 0.35019 0.59615 0.0
H392 H 0.15829 0.26067 0.55117 0.0
H393 H 0.14976 0.28069 0.52545 0.0
H394 H 0.13586 0.3077 0.51747 0.0
H395 H 0.12158 0.3322 0.52978 0.0
Mn396 Mn 0.71746 0.11248 0.64316 0.0
Mn397 Mn 0.6966 0.14372 0.62316 0.0
C398 C 0.7165 0.11545 0.60894 0.0
C399 C 0.7173 0.08616 0.65585 0.0
C400 C 0.7297 0.14742 0.64232 0.0
O401 O 0.70396 0.12074 0.66634 0.0
O402 O 0.68839 0.13916 0.65053 0.0
C403 C 0.66471 0.12776 0.61966 0.0
N404 N 0.67733 0.13569 0.61099 0.0
C405 C 0.66469 0.13442 0.57864 0.0
C406 C 0.6515 0.12634 0.58725 0.0
C407 C 0.65154 0.12297 0.60785 0.0
C408 C 0.67747 0.1389 0.59117 0.0
H409 H 0.66473 0.12509 0.63547 0.0
C410 C 0.69235 0.13092 0.66605 0.0
O411 O 0.72858 0.0964 0.66075 0.0
O412 O 0.7061 0.09131 0.64391 0.0
N413 N 0.70314 0.14948 0.59665 0.0
C414 C 0.71689 0.15714 0.59062 0.0
C415 C 0.71879 0.16136 0.57041 0.0
C416 C 0.70647 0.15782 0.55666 0.0
C417 C 0.69234 0.15013 0.56326 0.0
C418 C 0.69105 0.14638 0.58362 0.0
H419 H 0.72637 0.15998 0.60112 0.0
O420 O 0.72757 0.1065 0.61712 0.0
O421 O 0.70604 0.12196 0.621 0.0
O422 O 0.73226 0.13232 0.6456 0.0
O423 O 0.71655 0.15291 0.63487 0.0
C424 C 0.67954 0.14592 0.55041 0.0
C425 C 0.66575 0.13801 0.55808 0.0
H426 H 0.64134 0.12259 0.57818 0.0
H427 H 0.64144 0.11667 0.61459 0.0
H428 H 0.72971 0.16733 0.56544 0.0
H429 H 0.708 0.16105 0.54108 0.0
H430 H 0.68024 0.14856 0.53456 0.0
H431 H 0.65606 0.13468 0.54802 0.0
Mn432 Mn 0.89092 0.27275 0.36266 0.0
Mn433 Mn 0.86313 0.2952 0.38705 0.0
C434 C 0.89124 0.27309 0.39699 0.0
C435 C 0.91525 0.27182 0.34551 0.0
C436 C 0.85606 0.26252 0.36761 0.0
O437 O 0.88103 0.287 0.34119 0.0
O438 O 0.86622 0.30435 0.35974 0.0
C439 C 0.88114 0.32619 0.39055 0.0
N440 N 0.87303 0.31367 0.39934 0.0
C441 C 0.8766 0.32543 0.43199 0.0
C442 C 0.88488 0.33852 0.42327 0.0
C443 C 0.88721 0.33887 0.40247 0.0
C444 C 0.87084 0.31315 0.41935 0.0
H445 H 0.88298 0.32646 0.37457 0.0
C446 C 0.87226 0.29964 0.34308 0.0
O447 O 0.90407 0.26105 0.34232 0.0
O448 O 0.91224 0.2831 0.35857 0.0
N449 N 0.85882 0.28794 0.41373 0.0
C450 C 0.85102 0.27421 0.41986 0.0
C451 C 0.8479 0.27188 0.4403 0.0
C452 C 0.85265 0.28377 0.45419 0.0
C453 C 0.86046 0.29791 0.44752 0.0
C454 C 0.86313 0.29962 0.42695 0.0
H455 H 0.84721 0.26507 0.40926 0.0
O456 O 0.89892 0.26183 0.38727 0.0
O457 O 0.88422 0.28429 0.38628 0.0
O458 O 0.87057 0.25888 0.36318 0.0
O459 O 0.85188 0.27615 0.37531 0.0
C460 C 0.86591 0.31026 0.4605 0.0
C461 C 0.87403 0.32398 0.45274 0.0
H462 H 0.88961 0.34831 0.43242 0.0
H463 H 0.89366 0.34889 0.39564 0.0
H464 H 0.84185 0.26095 0.44533 0.0
H465 H 0.8503 0.2819 0.46995 0.0
H466 H 0.86411 0.30921 0.47649 0.0
H467 H 0.87835 0.33329 0.46289 0.0
Mn468 Mn 0.71718 0.88581 0.35455 0.0
Mn469 Mn 0.69865 0.85393 0.37652 0.0
C470 C 0.71831 0.88302 0.38871 0.0
C471 C 0.7155 0.91201 0.34171 0.0
C472 C 0.73077 0.85132 0.35479 0.0
O473 O 0.70271 0.877 0.33271 0.0
O474 O 0.68902 0.85774 0.34964 0.0
C475 C 0.66635 0.86865 0.38191 0.0
N476 N 0.67965 0.86139 0.38986 0.0
C477 C 0.66851 0.86282 0.42303 0.0
C478 C 0.65464 0.8702 0.41518 0.0
C479 C 0.65357 0.87316 0.39454 0.0
C480 C 0.68084 0.85856 0.40971 0.0
H481 H 0.66552 0.87101 0.36606 0.0
C482 C 0.69173 0.86617 0.33386 0.0
O483 O 0.72678 0.90208 0.33591 0.0
O484 O 0.70515 0.90661 0.35464 0.0
N485 N 0.70658 0.84883 0.40265 0.0
C486 C 0.72089 0.84185 0.40787 0.0
C487 C 0.72394 0.83822 0.42804 0.0
C488 C 0.7122 0.84164 0.44258 0.0
C489 C 0.69744 0.84853 0.4368 0.0
C490 C 0.69503 0.85174 0.41646 0.0
H491 H 0.72995 0.83915 0.39677 0.0
O492 O 0.72858 0.89227 0.37949 0.0
O493 O 0.70735 0.87608 0.3777 0.0
O494 O 0.73243 0.86645 0.35092 0.0
O495 O 0.71838 0.84538 0.36359 0.0
C496 C 0.68511 0.8525 0.45044 0.0
C497 C 0.67068 0.8597 0.44358 0.0
H498 H 0.64478 0.87375 0.42488 0.0
H499 H 0.64294 0.87893 0.38838 0.0
H500 H 0.73534 0.83285 0.43238 0.0
H501 H 0.71466 0.83898 0.45815 0.0
H502 H 0.68666 0.85022 0.46628 0.0
H503 H 0.66136 0.86286 0.45424 0.0
Mn504 Mn 0.10765 0.72044 0.36557 0.0
Mn505 Mn 0.13582 0.69863 0.39044 0.0
C506 C 0.1079 0.72096 0.39989 0.0
C507 C 0.08301 0.72144 0.34909 0.0
C508 C 0.14268 0.73126 0.37095 0.0
O509 O 0.11662 0.70546 0.34441 0.0
O510 O 0.13386 0.69033 0.36249 0.0
C511 C 0.11832 0.66722 0.39144 0.0
N512 N 0.12594 0.67955 0.40126 0.0
C513 C 0.12163 0.66657 0.43306 0.0
C514 C 0.11383 0.65368 0.42328 0.0
C515 C 0.11213 0.65403 0.40238 0.0
C516 C 0.12753 0.67939 0.42137 0.0
H517 H 0.11697 0.66748 0.37538 0.0
C518 C 0.12672 0.69388 0.34607 0.0
O519 O 0.09435 0.73188 0.34516 0.0
O520 O 0.08602 0.71049 0.36257 0.0
N521 N 0.13933 0.70493 0.41766 0.0
C522 C 0.1469 0.71846 0.42485 0.0
C523 C 0.14949 0.72003 0.4455 0.0
C524 C 0.1445 0.7076 0.45853 0.0
C525 C 0.13701 0.69366 0.45076 0.0
C526 C 0.13485 0.69271 0.43002 0.0
H527 H 0.1508 0.72804 0.41493 0.0
O528 O 0.10041 0.73218 0.38988 0.0
O529 O 0.11456 0.70931 0.38952 0.0
O530 O 0.12837 0.73396 0.36474 0.0
O531 O 0.14682 0.71832 0.38029 0.0
C532 C 0.13137 0.68079 0.4628 0.0
C533 C 0.12363 0.66728 0.45397 0.0
H534 H 0.10902 0.64349 0.43167 0.0
H535 H 0.10606 0.64417 0.39474 0.0
H536 H 0.1553 0.73082 0.45138 0.0
H537 H 0.14641 0.70892 0.47446 0.0
H538 H 0.13277 0.68123 0.47889 0.0
H539 H 0.11919 0.65754 0.4634 0.0
Mn540 Mn 0.28177 0.11248 0.35444 0.0
Mn541 Mn 0.3035 0.14413 0.37194 0.0
C542 C 0.28322 0.11691 0.38833 0.0
C543 C 0.28121 0.08568 0.34344 0.0
C544 C 0.27011 0.14769 0.35364 0.0
O545 O 0.29508 0.1194 0.33051 0.0
O546 O 0.31091 0.13856 0.34446 0.0
C547 C 0.3352 0.12772 0.37491 0.0
N548 N 0.32295 0.13612 0.38372 0.0
C549 C 0.33631 0.13539 0.41564 0.0
C550 C 0.34913 0.12683 0.40688 0.0
C551 C 0.34855 0.12295 0.38643 0.0
C552 C 0.32334 0.13983 0.4034 0.0
H553 H 0.33476 0.12465 0.35922 0.0
C554 C 0.30664 0.1296 0.32968 0.0
O555 O 0.27007 0.09594 0.33813 0.0
O556 O 0.29268 0.09108 0.35483 0.0
N557 N 0.29781 0.15089 0.3984 0.0
C558 C 0.2844 0.15907 0.40459 0.0
C559 C 0.28306 0.16382 0.42469 0.0
C560 C 0.29557 0.16027 0.43816 0.0
C561 C 0.30938 0.1521 0.43137 0.0
C562 C 0.31011 0.14783 0.41112 0.0
H563 H 0.27476 0.16188 0.39431 0.0
O564 O 0.27187 0.10786 0.38094 0.0
O565 O 0.29371 0.12265 0.3757 0.0
O566 O 0.26736 0.13254 0.35103 0.0
O567 O 0.2834 0.15326 0.36061 0.0
C568 C 0.32237 0.14791 0.44393 0.0
C569 C 0.3358 0.13951 0.43608 0.0
H570 H 0.35942 0.12309 0.41573 0.0
H571 H 0.35836 0.11628 0.37958 0.0
H572 H 0.27239 0.17018 0.4298 0.0
H573 H 0.29445 0.16386 0.45367 0.0
H574 H 0.32209 0.15095 0.45968 0.0
H575 H 0.34565 0.13621 0.44593 0.0
Mn576 Mn 0.60819 0.77409 0.84868 0.0
Mn577 Mn 0.6398 0.79246 0.87092 0.0
C578 C 0.61138 0.77202 0.88281 0.0
C579 C 0.58206 0.77635 0.83646 0.0
C580 C 0.64246 0.76105 0.84698 0.0
O581 O 0.61645 0.7897 0.8275 0.0
O582 O 0.63507 0.80355 0.84518 0.0
C583 C 0.62512 0.82452 0.87972 0.0
N584 N 0.6327 0.81078 0.88617 0.0
C585 C 0.6328 0.82041 0.92015 0.0
C586 C 0.62509 0.83472 0.91385 0.0
C587 C 0.6212 0.83676 0.89356 0.0
C588 C 0.63643 0.80866 0.90567 0.0
H589 H 0.62208 0.82611 0.86414 0.0
C590 C 0.62661 0.80126 0.82938 0.0
O591 O 0.59171 0.76508 0.82987 0.0
O592 O 0.58764 0.78618 0.84993 0.0
N593 N 0.64562 0.78304 0.89609 0.0
C594 C 0.6524 0.76823 0.89985 0.0
C595 C 0.65676 0.76413 0.9195 0.0
C596 C 0.65422 0.77534 0.93505 0.0
C597 C 0.64737 0.79056 0.9308 0.0
C598 C 0.6434 0.79402 0.9109 0.0
H599 H 0.65445 0.75959 0.88796 0.0
O600 O 0.60224 0.76177 0.87336 0.0
O601 O 0.61804 0.78335 0.87205 0.0
O602 O 0.62742 0.75894 0.84382 0.0
O603 O 0.64821 0.77349 0.85603 0.0
C604 C 0.64408 0.80233 0.94558 0.0
C605 C 0.63676 0.81723 0.94026 0.0
H606 H 0.62199 0.84416 0.92449 0.0
H607 H 0.61518 0.84773 0.8886 0.0
H608 H 0.66204 0.75236 0.92266 0.0
H609 H 0.65752 0.7721 0.95021 0.0
H610 H 0.64691 0.79995 0.96112 0.0
H611 H 0.63408 0.82608 0.95179 0.0
Mn612 Mn 0.21491 0.61937 0.85367 0.0
Mn613 Mn 0.25326 0.6084 0.86357 0.0
C614 C 0.23452 0.63912 0.85552 0.0
C615 C 0.19453 0.62256 0.83021 0.0
C616 C 0.22685 0.61007 0.89503 0.0
O617 O 0.21497 0.59487 0.84958 0.0
O618 O 0.24154 0.58952 0.85193 0.0
C619 C 0.26478 0.60339 0.82215 0.0
N620 N 0.26623 0.61096 0.84018 0.0
C621 C 0.2895 0.62592 0.82899 0.0
C622 C 0.28833 0.6182 0.81034 0.0
C623 C 0.27588 0.60693 0.8069 0.0
C624 C 0.27807 0.62193 0.8436 0.0
H625 H 0.2552 0.59475 0.81944 0.0
C626 C 0.22699 0.58524 0.84819 0.0
O627 O 0.19118 0.62037 0.849 0.0
O628 O 0.20962 0.62274 0.82515 0.0
N629 N 0.26616 0.62545 0.8748 0.0
C630 C 0.26542 0.63207 0.89346 0.0
C631 C 0.27693 0.6437 0.89923 0.0
C632 C 0.2892 0.64826 0.88587 0.0
C633 C 0.2899 0.64105 0.8669 0.0
C634 C 0.27815 0.62946 0.86201 0.0
H635 H 0.25609 0.62856 0.90386 0.0
O636 O 0.21941 0.64306 0.85686 0.0
O637 O 0.23766 0.62381 0.85239 0.0
O638 O 0.21592 0.61623 0.88393 0.0
O639 O 0.24079 0.60585 0.88865 0.0
C640 C 0.30172 0.64501 0.85257 0.0
C641 C 0.30146 0.63753 0.83358 0.0
H642 H 0.29686 0.62091 0.79853 0.0
H643 H 0.27485 0.60098 0.79252 0.0
H644 H 0.27634 0.64917 0.91394 0.0
H645 H 0.29799 0.65733 0.89032 0.0
H646 H 0.31096 0.65394 0.85592 0.0
H647 H 0.31048 0.64085 0.8226 0.0
Mn648 Mn 0.39255 0.22747 0.8483 0.0
Mn649 Mn 0.363 0.20714 0.87236 0.0
C650 C 0.39042 0.22958 0.88253 0.0
C651 C 0.41825 0.22715 0.83445 0.0
C652 C 0.35741 0.2382 0.84857 0.0
O653 O 0.38466 0.21117 0.8277 0.0
O654 O 0.36741 0.19637 0.84631 0.0
C655 C 0.38011 0.17615 0.88016 0.0
N656 N 0.37185 0.18933 0.88709 0.0
C657 C 0.3734 0.17956 0.92096 0.0
C658 C 0.38184 0.16582 0.91417 0.0
C659 C 0.38525 0.16414 0.89369 0.0
C660 C 0.36859 0.19111 0.90677 0.0
H661 H 0.38276 0.17484 0.86444 0.0
C662 C 0.37519 0.19909 0.83009 0.0
O663 O 0.40748 0.23755 0.82843 0.0
O664 O 0.41403 0.21702 0.84837 0.0
N665 N 0.35748 0.21611 0.89788 0.0
C666 C 0.34982 0.23039 0.90208 0.0
C667 C 0.34573 0.23406 0.92194 0.0
C668 C 0.34942 0.22296 0.93725 0.0
C669 C 0.35718 0.20829 0.93255 0.0
C670 C 0.36084 0.20523 0.91246 0.0
H671 H 0.34685 0.23893 0.89038 0.0
O672 O 0.39848 0.24038 0.8725 0.0
O673 O 0.38419 0.2177 0.87227 0.0
O674 O 0.37215 0.24117 0.84442 0.0
O675 O 0.35279 0.22551 0.85807 0.0
C676 C 0.36165 0.19668 0.94705 0.0
C677 C 0.36981 0.18236 0.94126 0.0
H678 H 0.38587 0.15656 0.92456 0.0
H679 H 0.39182 0.15362 0.88836 0.0
H680 H 0.33974 0.24542 0.92545 0.0
H681 H 0.34628 0.22585 0.95256 0.0
H682 H 0.35909 0.19877 0.96272 0.0
H683 H 0.37339 0.17364 0.95258 0.0
Mn684 Mn 0.78325 0.37654 0.85284 0.0
Mn685 Mn 0.74536 0.38683 0.86613 0.0
C686 C 0.76397 0.3565 0.85515 0.0
C687 C 0.80272 0.37433 0.82807 0.0
C688 C 0.77332 0.38455 0.89537 0.0
O689 O 0.78274 0.40113 0.84985 0.0
O690 O 0.75627 0.40612 0.85424 0.0
C691 C 0.73142 0.39286 0.82609 0.0
N692 N 0.73103 0.38486 0.8439 0.0
C693 C 0.70687 0.37051 0.83456 0.0
C694 C 0.70694 0.37868 0.81616 0.0
C695 C 0.7193 0.38987 0.81188 0.0
C696 C 0.71926 0.374 0.84813 0.0
H697 H 0.74091 0.40146 0.82275 0.0
C698 C 0.77059 0.41064 0.84962 0.0
O699 O 0.80673 0.37605 0.84672 0.0
O700 O 0.78744 0.37405 0.82387 0.0
N701 N 0.73325 0.36938 0.87775 0.0
C702 C 0.73538 0.36192 0.89576 0.0
C703 C 0.72424 0.35011 0.90211 0.0
C704 C 0.71095 0.34622 0.89001 0.0
C705 C 0.7089 0.35419 0.87165 0.0
C706 C 0.72034 0.36593 0.86616 0.0
H707 H 0.74551 0.36491 0.9052 0.0
O708 O 0.77917 0.35274 0.85527 0.0
O709 O 0.76049 0.37186 0.85296 0.0
O710 O 0.78367 0.37873 0.88322 0.0
O711 O 0.7591 0.38889 0.89022 0.0
C712 C 0.69615 0.35071 0.85839 0.0
C713 C 0.69516 0.35882 0.83984 0.0
H714 H 0.69765 0.37637 0.80514 0.0
H715 H 0.71948 0.39617 0.79767 0.0
H716 H 0.72591 0.34401 0.9163 0.0
H717 H 0.70245 0.33703 0.89489 0.0
H718 H 0.68718 0.34162 0.86218 0.0
H719 H 0.68544 0.35587 0.82965 0.0
Mn720 Mn 0.60599 0.22373 0.14619 0.0
Mn721 Mn 0.63573 0.20572 0.11995 0.0
C722 C 0.60707 0.22712 0.11202 0.0
C723 C 0.58064 0.22127 0.16065 0.0
C724 C 0.64051 0.23607 0.14543 0.0
O725 O 0.61535 0.20727 0.16564 0.0
O726 O 0.6323 0.19363 0.14534 0.0
C727 C 0.6198 0.17438 0.11051 0.0
N728 N 0.62732 0.18822 0.10426 0.0
C729 C 0.62534 0.17999 0.06982 0.0
C730 C 0.61766 0.1656 0.07589 0.0
C731 C 0.61484 0.16281 0.09632 0.0
C732 C 0.63001 0.19107 0.08464 0.0
H733 H 0.6176 0.17222 0.1262 0.0
C734 C 0.62506 0.19557 0.1621 0.0
O735 O 0.59078 0.2322 0.16696 0.0
O736 O 0.5853 0.21188 0.1462 0.0
N737 N 0.64029 0.21608 0.09494 0.0
C738 C 0.64724 0.23086 0.09151 0.0
C739 C 0.65069 0.23563 0.07181 0.0
C740 C 0.64709 0.22511 0.05586 0.0
C741 C 0.64004 0.20992 0.05976 0.0
C742 C 0.63702 0.20576 0.07971 0.0
H743 H 0.65014 0.23895 0.1037 0.0
O744 O 0.59869 0.23708 0.12291 0.0
O745 O 0.61418 0.21529 0.12142 0.0
O746 O 0.62573 0.23841 0.15001 0.0
O747 O 0.64541 0.22386 0.13522 0.0
C748 C 0.6357 0.19883 0.04461 0.0
C749 C 0.6283 0.1839 0.04963 0.0
H750 H 0.61377 0.15666 0.065 0.0
H751 H 0.60886 0.15177 0.10112 0.0
H752 H 0.65613 0.24738 0.06892 0.0
H753 H 0.64975 0.22885 0.04069 0.0
H754 H 0.63779 0.20176 0.02903 0.0
H755 H 0.62481 0.17558 0.03784 0.0
Mn756 Mn 0.7805 0.61781 0.14199 0.0
Mn757 Mn 0.74273 0.60645 0.1298 0.0
C758 C 0.7607 0.63733 0.13947 0.0
C759 C 0.79974 0.62079 0.16691 0.0
C760 C 0.77029 0.6088 0.09991 0.0
O761 O 0.78063 0.59325 0.14545 0.0
O762 O 0.75418 0.58765 0.14203 0.0
C763 C 0.72959 0.60106 0.1704 0.0
N764 N 0.72879 0.60873 0.15238 0.0
C765 C 0.70498 0.62342 0.16225 0.0
C766 C 0.70547 0.61559 0.18088 0.0
C767 C 0.71786 0.6044 0.18498 0.0
C768 C 0.71701 0.61961 0.14832 0.0
H769 H 0.73912 0.59248 0.17362 0.0
C770 C 0.76868 0.5835 0.14631 0.0
O771 O 0.80402 0.61913 0.14833 0.0
O772 O 0.78444 0.62065 0.17088 0.0
N773 N 0.73014 0.62344 0.11794 0.0
C774 C 0.73162 0.63025 0.09945 0.0
C775 C 0.72029 0.64187 0.09311 0.0
C776 C 0.70746 0.64622 0.10573 0.0
C777 C 0.70602 0.63884 0.12454 0.0
C778 C 0.71762 0.62727 0.13 0.0
H779 H 0.7414 0.6269 0.08962 0.0
O780 O 0.77579 0.64151 0.13916 0.0
O781 O 0.75769 0.62193 0.14203 0.0
O782 O 0.78069 0.61518 0.1116 0.0
O783 O 0.75625 0.60419 0.10555 0.0
C784 C 0.69362 0.64263 0.13817 0.0
C785 C 0.69315 0.635 0.15706 0.0
H786 H 0.69646 0.61816 0.19218 0.0
H787 H 0.71836 0.59837 0.19935 0.0
H788 H 0.72146 0.64747 0.07854 0.0
H789 H 0.69881 0.65529 0.10086 0.0
H790 H 0.68449 0.65155 0.13437 0.0
H791 H 0.68369 0.63819 0.16751 0.0
Mn792 Mn 0.38875 0.77353 0.14521 0.0
Mn793 Mn 0.35838 0.79005 0.11858 0.0
C794 C 0.38767 0.76949 0.11115 0.0
C795 C 0.41411 0.7768 0.15939 0.0
C796 C 0.35463 0.76005 0.1449 0.0
O797 O 0.37899 0.79012 0.16423 0.0
O798 O 0.3614 0.80264 0.14366 0.0
C799 C 0.37321 0.82177 0.10838 0.0
N800 N 0.36617 0.80758 0.10247 0.0
C801 C 0.36781 0.81534 0.06783 0.0
C802 C 0.375 0.83009 0.07355 0.0
C803 C 0.37775 0.83328 0.09391 0.0
C804 C 0.36355 0.80433 0.08292 0.0
H805 H 0.37536 0.82425 0.12401 0.0
C806 C 0.3688 0.80134 0.16041 0.0
O807 O 0.40421 0.7658 0.1661 0.0
O808 O 0.40917 0.78588 0.14479 0.0
N809 N 0.35417 0.77914 0.09383 0.0
C810 C 0.34774 0.76407 0.09076 0.0
C811 C 0.34443 0.75888 0.07119 0.0
C812 C 0.34762 0.76927 0.05499 0.0
C813 C 0.35415 0.78476 0.05851 0.0
C814 C 0.35706 0.78933 0.07836 0.0
H815 H 0.34515 0.75606 0.10315 0.0
O816 O 0.39633 0.75996 0.12227 0.0
O817 O 0.38025 0.78128 0.12027 0.0
O818 O 0.36947 0.75835 0.14957 0.0
O819 O 0.34931 0.77184 0.13429 0.0
C820 C 0.35807 0.79577 0.04309 0.0
C821 C 0.36495 0.81102 0.04775 0.0
H822 H 0.37856 0.83898 0.06244 0.0
H823 H 0.38336 0.8446 0.09843 0.0
H824 H 0.3394 0.7469 0.06859 0.0
H825 H 0.34506 0.76522 0.03992 0.0
H826 H 0.35605 0.79253 0.02759 0.0
H827 H 0.36813 0.81928 0.03575 0.0
Mn828 Mn 0.21367 0.37673 0.14335 0.0
Mn829 Mn 0.25171 0.38752 0.13145 0.0
C830 C 0.23321 0.35694 0.14112 0.0
C831 C 0.19385 0.37402 0.16761 0.0
C832 C 0.22442 0.38525 0.10124 0.0
O833 O 0.21386 0.40128 0.14686 0.0
O834 O 0.24033 0.40658 0.14317 0.0
C835 C 0.26441 0.39321 0.1722 0.0
N836 N 0.26535 0.38535 0.15431 0.0
C837 C 0.28897 0.37062 0.16481 0.0
C838 C 0.28832 0.37864 0.1833 0.0
C839 C 0.27596 0.38994 0.18703 0.0
C840 C 0.2771 0.37434 0.15064 0.0
H841 H 0.25491 0.40188 0.17513 0.0
C842 C 0.2259 0.41091 0.14752 0.0
O843 O 0.19008 0.3759 0.1489 0.0
O844 O 0.20907 0.37383 0.17215 0.0
N845 N 0.26429 0.3703 0.12008 0.0
C846 C 0.26304 0.3634 0.10161 0.0
C847 C 0.27442 0.3517 0.0956 0.0
C848 C 0.28707 0.34739 0.10851 0.0
C849 C 0.2883 0.35489 0.12728 0.0
C850 C 0.27665 0.36651 0.13241 0.0
H851 H 0.25341 0.36673 0.09155 0.0
O852 O 0.21806 0.35299 0.14056 0.0
O853 O 0.23644 0.37229 0.14375 0.0
O854 O 0.21385 0.37934 0.11304 0.0
O855 O 0.23853 0.38964 0.10685 0.0
C856 C 0.30054 0.35119 0.14115 0.0
C857 C 0.30082 0.35897 0.15996 0.0
H858 H 0.2972 0.37614 0.19478 0.0
H859 H 0.27534 0.39613 0.2013 0.0
H860 H 0.27342 0.34602 0.08106 0.0
H861 H 0.29575 0.33827 0.10389 0.0
H862 H 0.30971 0.34224 0.1376 0.0
H863 H 0.31017 0.35585 0.1706 0.0
Mn864 Mn 0.38719 0.21926 0.13043 0.0
Mn865 Mn 0.35786 0.19993 0.10479 0.0
C866 C 0.38643 0.22165 0.09625 0.0
C867 C 0.41217 0.21791 0.14602 0.0
C868 C 0.35256 0.23113 0.1283 0.0
O869 O 0.37768 0.20351 0.1505 0.0
O870 O 0.361 0.18883 0.13099 0.0
C871 C 0.37434 0.16851 0.09753 0.0
N872 N 0.36672 0.18198 0.09032 0.0
C873 C 0.36949 0.17255 0.05643 0.0
C874 C 0.37726 0.15852 0.0635 0.0
C875 C 0.37973 0.15652 0.08414 0.0
C876 C 0.36436 0.18407 0.07049 0.0
H877 H 0.37629 0.16696 0.11338 0.0
C878 C 0.36803 0.19164 0.14771 0.0
O879 O 0.4016 0.22879 0.15126 0.0
O880 O 0.40817 0.20789 0.13187 0.0
N881 N 0.35346 0.20922 0.07911 0.0
C882 C 0.34626 0.22371 0.07469 0.0
C883 C 0.34315 0.22771 0.05464 0.0
C884 C 0.3473 0.21674 0.03939 0.0
C885 C 0.35448 0.20181 0.04432 0.0
C886 C 0.35717 0.19842 0.06457 0.0
H887 H 0.34298 0.23217 0.08634 0.0
O888 O 0.39468 0.23192 0.10685 0.0
O889 O 0.37937 0.20988 0.10594 0.0
O890 O 0.36728 0.23377 0.13285 0.0
O891 O 0.34773 0.2185 0.11884 0.0
C892 C 0.35931 0.19028 0.02992 0.0
C893 C 0.36686 0.17568 0.03597 0.0
H894 H 0.38149 0.14927 0.05322 0.0
H895 H 0.38579 0.14576 0.0897 0.0
H896 H 0.33758 0.23925 0.05096 0.0
H897 H 0.34498 0.21992 0.02394 0.0
H898 H 0.35748 0.19261 0.01414 0.0
H899 H 0.37071 0.167 0.02474 0.0
Mn900 Mn 0.78144 0.38557 0.142 0.0
Mn901 Mn 0.80057 0.35303 0.1226 0.0
C902 C 0.78172 0.38189 0.10787 0.0
C903 C 0.783 0.41204 0.15404 0.0
C904 C 0.7678 0.35129 0.14308 0.0
O905 O 0.79482 0.37698 0.1651 0.0
O906 O 0.80994 0.35811 0.1493 0.0
C907 C 0.83291 0.36753 0.11664 0.0
N908 N 0.81971 0.35984 0.10904 0.0
C909 C 0.83123 0.35957 0.07603 0.0
C910 C 0.84502 0.36735 0.08354 0.0
C911 C 0.84583 0.37139 0.10393 0.0
C912 C 0.81874 0.35602 0.08943 0.0
H913 H 0.83353 0.37075 0.13228 0.0
C914 C 0.80627 0.36662 0.1647 0.0
O915 O 0.77136 0.4024 0.15943 0.0
O916 O 0.79379 0.40621 0.14196 0.0
N917 N 0.79286 0.34679 0.09674 0.0
C918 C 0.77856 0.33967 0.09177 0.0
C919 C 0.77575 0.33498 0.07189 0.0
C920 C 0.78771 0.33753 0.05735 0.0
C921 C 0.80241 0.3447 0.06285 0.0
C922 C 0.80459 0.34894 0.08295 0.0
H923 H 0.76934 0.33759 0.10287 0.0
O924 O 0.77124 0.39158 0.116 0.0
O925 O 0.79203 0.37511 0.11991 0.0
O926 O 0.76581 0.36658 0.14534 0.0
O927 O 0.78066 0.345 0.13579 0.0
C928 C 0.81491 0.34795 0.04915 0.0
C929 C 0.82928 0.35544 0.05572 0.0
H930 H 0.85499 0.3704 0.07376 0.0
H931 H 0.85639 0.37749 0.10981 0.0
H932 H 0.76439 0.32942 0.06777 0.0
H933 H 0.78547 0.33396 0.04202 0.0
H934 H 0.81351 0.34491 0.03349 0.0
H935 H 0.83873 0.35805 0.045 0.0
Mn936 Mn 0.60892 0.77788 0.13104 0.0
Mn937 Mn 0.63981 0.79792 0.10928 0.0
C938 C 0.61138 0.77725 0.09687 0.0
C939 C 0.58327 0.77901 0.14488 0.0
C940 C 0.64341 0.76536 0.13038 0.0
O941 O 0.61766 0.79231 0.15302 0.0
O942 O 0.63567 0.80752 0.13616 0.0
C943 C 0.62422 0.83002 0.10374 0.0
N944 N 0.63194 0.81686 0.09587 0.0
C945 C 0.63087 0.82829 0.06278 0.0
C946 C 0.62301 0.84203 0.07054 0.0
C947 C 0.61964 0.84287 0.0911 0.0
C948 C 0.63517 0.81588 0.0761 0.0
H949 H 0.62157 0.83067 0.11953 0.0
C950 C 0.62772 0.804 0.15202 0.0
O951 O 0.59337 0.76764 0.14999 0.0
O952 O 0.58811 0.7896 0.13181 0.0
N953 N 0.64527 0.79008 0.08319 0.0
C954 C 0.65248 0.77577 0.07799 0.0
C955 C 0.65645 0.77289 0.05788 0.0
C956 C 0.65314 0.7848 0.04338 0.0
C957 C 0.64596 0.79953 0.04913 0.0
C958 C 0.64239 0.80177 0.06941 0.0
H959 H 0.65512 0.7666 0.08906 0.0
O960 O 0.60241 0.76664 0.10599 0.0
O961 O 0.61812 0.78836 0.10798 0.0
O962 O 0.62846 0.76286 0.13376 0.0
O963 O 0.64891 0.77834 0.12229 0.0
C964 C 0.64197 0.81197 0.0355 0.0
C965 C 0.63438 0.82632 0.0423 0.0
H966 H 0.6194 0.85194 0.06084 0.0
H967 H 0.6135 0.8534 0.09719 0.0
H968 H 0.66201 0.7615 0.05357 0.0
H969 H 0.65608 0.78247 0.02787 0.0
H970 H 0.64449 0.81054 0.0197 0.0
H971 H 0.63119 0.83571 0.03164 0.0
Mn972 Mn 0.21572 0.6086 0.14351 0.0
Mn973 Mn 0.19774 0.64103 0.12207 0.0
C974 C 0.21676 0.61163 0.10935 0.0
C975 C 0.21355 0.58235 0.15609 0.0
C976 C 0.23001 0.6428 0.14359 0.0
O977 O 0.20159 0.6176 0.16562 0.0
O978 O 0.1882 0.63723 0.149 0.0
C979 C 0.16513 0.62701 0.11678 0.0
N980 N 0.17853 0.63408 0.1088 0.0
C981 C 0.16715 0.63323 0.07573 0.0
C982 C 0.15318 0.62604 0.0836 0.0
C983 C 0.15219 0.62288 0.10421 0.0
C984 C 0.17965 0.63708 0.08898 0.0
H985 H 0.16436 0.6245 0.1326 0.0
C986 C 0.19087 0.6287 0.1647 0.0
O987 O 0.22506 0.59201 0.1619 0.0
O988 O 0.20325 0.58805 0.14331 0.0
N989 N 0.20562 0.64622 0.09594 0.0
C990 C 0.22001 0.65302 0.09069 0.0
C991 C 0.22299 0.65683 0.07056 0.0
C992 C 0.21109 0.65379 0.05608 0.0
C993 C 0.19625 0.64711 0.0619 0.0
C994 C 0.19392 0.64369 0.0822 0.0
H995 H 0.22919 0.65543 0.10175 0.0
O996 O 0.22684 0.60207 0.11839 0.0
O997 O 0.20599 0.61872 0.12052 0.0
O998 O 0.2314 0.6276 0.14722 0.0
O999 O 0.2177 0.64906 0.13495 0.0
C1000 C 0.18375 0.64355 0.04832 0.0
C1001 C 0.16923 0.63655 0.05522 0.0
H1002 H 0.14318 0.6228 0.07395 0.0
H1003 H 0.14148 0.61727 0.11039 0.0
H1004 H 0.23445 0.66204 0.0662 0.0
H1005 H 0.21349 0.6566 0.04054 0.0
H1006 H 0.18523 0.64601 0.03252 0.0
H1007 H 0.15978 0.6337 0.0446 0.0
Mn1008 Mn 0.38759 0.77791 0.86372 0.0
Mn1009 Mn 0.35816 0.79639 0.89012 0.0
C1010 C 0.38692 0.77476 0.8978 0.0
C1011 C 0.41259 0.77978 0.84828 0.0
C1012 C 0.35307 0.76568 0.86559 0.0
O1013 O 0.37795 0.79406 0.84424 0.0
O1014 O 0.3611 0.80807 0.86426 0.0
C1015 C 0.37431 0.82783 0.89831 0.0
N1016 N 0.36687 0.81413 0.90512 0.0
C1017 C 0.36959 0.82289 0.93928 0.0
C1018 C 0.37719 0.83716 0.93263 0.0
C1019 C 0.37959 0.83961 0.91205 0.0
C1020 C 0.36456 0.81161 0.92488 0.0
H1021 H 0.37622 0.82973 0.8825 0.0
C1022 C 0.36816 0.80574 0.84745 0.0
O1023 O 0.4021 0.76897 0.8426 0.0
O1024 O 0.40847 0.78947 0.86271 0.0
N1025 N 0.35396 0.7865 0.91551 0.0
C1026 C 0.34701 0.77181 0.91952 0.0
C1027 C 0.34402 0.76734 0.93944 0.0
C1028 C 0.34805 0.77806 0.95502 0.0
C1029 C 0.35499 0.7932 0.95053 0.0
C1030 C 0.35757 0.79705 0.93038 0.0
H1031 H 0.34382 0.76354 0.90762 0.0
O1032 O 0.3952 0.76477 0.88683 0.0
O1033 O 0.37976 0.78668 0.88852 0.0
O1034 O 0.36778 0.7633 0.86082 0.0
O1035 O 0.34816 0.77802 0.87554 0.0
C1036 C 0.35971 0.80449 0.96527 0.0
C1037 C 0.36705 0.81931 0.95965 0.0
H1038 H 0.38134 0.84624 0.94318 0.0
H1039 H 0.38552 0.85055 0.90681 0.0
H1040 H 0.33865 0.75564 0.94278 0.0
H1041 H 0.34584 0.77452 0.97037 0.0
H1042 H 0.35797 0.8018 0.98098 0.0
H1043 H 0.37083 0.8278 0.97113 0.0
Mn1044 Mn 0.21522 0.38677 0.85445 0.0
Mn1045 Mn 0.19646 0.35383 0.87356 0.0
C1046 C 0.21545 0.38253 0.88844 0.0
C1047 C 0.21364 0.41345 0.84311 0.0
C1048 C 0.22912 0.35242 0.85295 0.0
O1049 O 0.20136 0.37879 0.83151 0.0
O1050 O 0.18747 0.3587 0.8466 0.0
C1051 C 0.16391 0.36802 0.87869 0.0
N1052 N 0.17709 0.36054 0.88665 0.0
C1053 C 0.16516 0.36046 0.91945 0.0
C1054 C 0.15141 0.36807 0.91158 0.0
C1055 C 0.1508 0.37189 0.89112 0.0
C1056 C 0.17784 0.35689 0.90633 0.0
H1057 H 0.16343 0.37105 0.86299 0.0
C1058 C 0.19049 0.36782 0.8315 0.0
O1059 O 0.22513 0.40382 0.83719 0.0
O1060 O 0.20304 0.40749 0.85535 0.0
N1061 N 0.20382 0.34768 0.8996 0.0
C1062 C 0.21805 0.34055 0.90488 0.0
C1063 C 0.22061 0.33597 0.92485 0.0
C1064 C 0.20849 0.33863 0.93915 0.0
C1065 C 0.19386 0.34577 0.93331 0.0
C1066 C 0.19192 0.3499 0.91315 0.0
H1067 H 0.2274 0.33841 0.89395 0.0
O1068 O 0.22589 0.39223 0.88028 0.0
O1069 O 0.20488 0.37599 0.87651 0.0
O1070 O 0.23073 0.36772 0.85018 0.0
O1071 O 0.21658 0.346 0.86084 0.0
C1072 C 0.18119 0.34908 0.94675 0.0
C1073 C 0.16687 0.35647 0.93983 0.0
H1074 H 0.1413 0.37111 0.92112 0.0
H1075 H 0.14026 0.37783 0.88495 0.0
H1076 H 0.23192 0.33042 0.92922 0.0
H1077 H 0.21054 0.33514 0.95455 0.0
H1078 H 0.18239 0.34613 0.96246 0.0
H1079 H 0.15728 0.3591 0.95034 0.0
Mn1080 Mn 0.60788 0.2219 0.86419 0.0
Mn1081 Mn 0.63513 0.20048 0.89107 0.0
C1082 C 0.60763 0.22378 0.89841 0.0
C1083 C 0.58342 0.22284 0.8473 0.0
C1084 C 0.6431 0.23205 0.8697 0.0
O1085 O 0.61671 0.20579 0.84425 0.0
O1086 O 0.63342 0.19108 0.86362 0.0
C1087 C 0.61694 0.16953 0.8936 0.0
N1088 N 0.62468 0.18208 0.90282 0.0
C1089 C 0.61967 0.17051 0.93528 0.0
C1090 C 0.61174 0.15739 0.92613 0.0
C1091 C 0.61033 0.15693 0.9052 0.0
C1092 C 0.626 0.18271 0.92294 0.0
H1093 H 0.61581 0.16915 0.87752 0.0
C1094 C 0.62654 0.19408 0.84686 0.0
O1095 O 0.59505 0.23281 0.84286 0.0
O1096 O 0.58606 0.21237 0.86145 0.0
N1097 N 0.63832 0.20784 0.91794 0.0
C1098 C 0.64591 0.22158 0.92447 0.0
C1099 C 0.64819 0.22398 0.94506 0.0
C1100 C 0.64283 0.21217 0.95871 0.0
C1101 C 0.63527 0.19803 0.95164 0.0
C1102 C 0.63344 0.19624 0.93094 0.0
H1103 H 0.65009 0.23068 0.91406 0.0
O1104 O 0.60064 0.23482 0.88759 0.0
O1105 O 0.61415 0.21157 0.88891 0.0
O1106 O 0.62897 0.23485 0.86292 0.0
O1107 O 0.64672 0.21945 0.88 0.0
C1108 C 0.62922 0.18577 0.96433 0.0
C1109 C 0.62137 0.17205 0.95616 0.0
H1110 H 0.60661 0.14766 0.93502 0.0
H1111 H 0.60416 0.14688 0.89804 0.0
H1112 H 0.65403 0.23494 0.9504 0.0
H1113 H 0.64449 0.21413 0.97459 0.0
H1114 H 0.63036 0.18688 0.98041 0.0
H1115 H 0.6166 0.1628 0.96608 0.0
Mn1116 Mn 0.78075 0.6089 0.85171 0.0
Mn1117 Mn 0.7988 0.64161 0.87243 0.0
C1118 C 0.77998 0.61231 0.88585 0.0
C1119 C 0.78277 0.58248 0.83961 0.0
C1120 C 0.76641 0.64307 0.85115 0.0
O1121 O 0.79473 0.61767 0.82929 0.0
O1122 O 0.8082 0.63749 0.84551 0.0
C1123 C 0.83148 0.62777 0.87772 0.0
N1124 N 0.8181 0.63489 0.88567 0.0
C1125 C 0.82965 0.63449 0.91867 0.0
C1126 C 0.8436 0.62726 0.91082 0.0
C1127 C 0.8445 0.62386 0.89026 0.0
C1128 C 0.81707 0.63814 0.90544 0.0
H1129 H 0.83218 0.62507 0.86195 0.0
C1130 C 0.80546 0.62878 0.82997 0.0
O1131 O 0.77126 0.59209 0.83374 0.0
O1132 O 0.7932 0.58834 0.85214 0.0
N1133 N 0.79102 0.64708 0.89852 0.0
C1134 C 0.7766 0.65381 0.90377 0.0
C1135 C 0.77369 0.65781 0.92386 0.0
C1136 C 0.78568 0.65502 0.9383 0.0
C1137 C 0.80054 0.64838 0.93247 0.0
C1138 C 0.8028 0.64477 0.91221 0.0
H1139 H 0.76735 0.65602 0.89274 0.0
O1140 O 0.76982 0.60266 0.87709 0.0
O1141 O 0.79064 0.61929 0.87443 0.0
O1142 O 0.76501 0.62782 0.84784 0.0
O1143 O 0.77875 0.64946 0.85955 0.0
C1144 C 0.81313 0.64503 0.94602 0.0
C1145 C 0.82764 0.63803 0.93914 0.0
H1146 H 0.85365 0.62418 0.92045 0.0
H1147 H 0.8552 0.6182 0.88411 0.0
H1148 H 0.76221 0.66298 0.92822 0.0
H1149 H 0.78333 0.65797 0.95381 0.0
H1150 H 0.8117 0.64763 0.96179 0.0
H1151 H 0.83716 0.63534 0.94973 0.0
C1152 C 0.2414 0.15419 0.34438 0.0
C1153 C 0.25703 0.15951 0.34934 0.0
C1154 C 0.22883 0.1654 0.34203 0.0
C1155 C 0.21733 0.20653 0.35829 0.0
H1156 H 0.1841 0.20323 0.31768 0.0
C1157 C 0.17007 0.25659 0.34957 0.0
C1158 C 0.15391 0.25166 0.34754 0.0
C1159 C 0.18258 0.24539 0.34746 0.0
C1160 C 0.19324 0.20422 0.32919 0.0
H1161 H 0.27181 0.18092 0.35476 0.0
H1162 H 0.25 0.20035 0.35045 0.0
H1163 H 0.20623 0.18346 0.3182 0.0
H1164 H 0.1383 0.23117 0.3408 0.0
H1165 H 0.16025 0.2115 0.33735 0.0
H1166 H 0.2044 0.22707 0.36947 0.0
C1167 C 0.24738 0.18749 0.34877 0.0
C1168 C 0.20589 0.19292 0.32949 0.0
C1169 C 0.25991 0.17633 0.35115 0.0
C1170 C 0.15061 0.23537 0.34246 0.0
C1171 C 0.16319 0.22411 0.34043 0.0
C1172 C 0.20475 0.21777 0.358 0.0
C1173 C 0.23163 0.18216 0.3446 0.0
C1174 C 0.21813 0.19403 0.344 0.0
C1175 C 0.17929 0.22894 0.34338 0.0
C1176 C 0.1926 0.21683 0.3434 0.0
H1177 H 0.23874 0.14134 0.34285 0.0
H1178 H 0.2168 0.1609 0.33892 0.0
H1179 H 0.22634 0.2075 0.36997 0.0
H1180 H 0.17309 0.26908 0.35321 0.0
H1181 H 0.19488 0.24959 0.34936 0.0
C1182 C 0.74803 0.16152 0.37304 0.0
C1183 C 0.74752 0.1502 0.35744 0.0
C1184 C 0.75942 0.17404 0.37284 0.0
C1185 C 0.77925 0.20411 0.36575 0.0
H1186 H 0.82088 0.19641 0.34118 0.0
C1187 C 0.82726 0.25472 0.3618 0.0
C1188 C 0.84344 0.25012 0.36432 0.0
C1189 C 0.81529 0.24293 0.3593 0.0
C1190 C 0.80939 0.19874 0.34833 0.0
H1191 H 0.75717 0.14368 0.32851 0.0
H1192 H 0.77663 0.16596 0.32752 0.0
H1193 H 0.80066 0.17514 0.34061 0.0
H1194 H 0.8598 0.22958 0.36636 0.0
H1195 H 0.83892 0.20901 0.3629 0.0
H1196 H 0.78833 0.22736 0.37447 0.0
C1197 C 0.76898 0.16478 0.34054 0.0
C1198 C 0.79764 0.18657 0.34773 0.0
C1199 C 0.75783 0.15204 0.34102 0.0
C1200 C 0.84744 0.2335 0.36423 0.0
C1201 C 0.83544 0.2217 0.36211 0.0
C1202 C 0.7911 0.21616 0.36664 0.0
C1203 C 0.77008 0.17584 0.35658 0.0
C1204 C 0.78243 0.18903 0.35656 0.0
C1205 C 0.81919 0.22624 0.35966 0.0
C1206 C 0.80637 0.21362 0.35804 0.0
H1207 H 0.7399 0.16042 0.38566 0.0
H1208 H 0.76001 0.18207 0.38564 0.0
H1209 H 0.76759 0.20667 0.37233 0.0
H1210 H 0.82385 0.26746 0.36164 0.0
H1211 H 0.80298 0.24693 0.35703 0.0
C1212 C 0.84969 0.76307 0.33851 0.0
C1213 C 0.84551 0.74765 0.34608 0.0
C1214 C 0.8378 0.77486 0.33514 0.0
C1215 C 0.79361 0.78028 0.32942 0.0
H1216 H 0.80136 0.82318 0.35165 0.0
C1217 C 0.74233 0.82318 0.35256 0.0
C1218 C 0.74404 0.84003 0.3494 0.0
C1219 C 0.75504 0.81255 0.34848 0.0
C1220 C 0.79909 0.81137 0.34502 0.0
H1221 H 0.82544 0.73241 0.35539 0.0
H1222 H 0.80489 0.7529 0.34961 0.0
H1223 H 0.82322 0.80331 0.35072 0.0
H1224 H 0.76046 0.85882 0.33903 0.0
H1225 H 0.78268 0.84018 0.3319 0.0
H1226 H 0.76936 0.78816 0.32427 0.0
C1227 C 0.81731 0.75587 0.34612 0.0
C1228 C 0.81163 0.79998 0.34448 0.0
C1229 C 0.82914 0.74415 0.34959 0.0
C1230 C 0.75871 0.84593 0.34168 0.0
C1231 C 0.77148 0.83527 0.33767 0.0
C1232 C 0.7811 0.79164 0.32997 0.0
C1233 C 0.8215 0.77143 0.3391 0.0
C1234 C 0.8089 0.78418 0.33714 0.0
C1235 C 0.76981 0.81848 0.34117 0.0
C1236 C 0.78359 0.80717 0.33824 0.0
H1237 H 0.86217 0.76618 0.33563 0.0
H1238 H 0.84138 0.78671 0.32957 0.0
H1239 H 0.79122 0.76829 0.32332 0.0
H1240 H 0.73124 0.81816 0.3585 0.0
H1241 H 0.75344 0.79971 0.35163 0.0
C1242 C 0.16977 0.74335 0.37832 0.0
C1243 C 0.15506 0.74401 0.36786 0.0
C1244 C 0.18111 0.75579 0.37632 0.0
C1245 C 0.19495 0.78828 0.34338 0.0
H1246 H 0.21238 0.80712 0.39196 0.0
C1247 C 0.23596 0.84532 0.34317 0.0
C1248 C 0.24816 0.84607 0.35763 0.0
C1249 C 0.22466 0.8327 0.34358 0.0
C1250 C 0.20784 0.80185 0.37823 0.0
H1251 H 0.141 0.75806 0.34659 0.0
H1252 H 0.16103 0.7797 0.34291 0.0
H1253 H 0.19259 0.78528 0.39414 0.0
H1254 H 0.25935 0.83364 0.38251 0.0
H1255 H 0.23978 0.81142 0.38323 0.0
H1256 H 0.21045 0.80456 0.32743 0.0
C1257 C 0.16363 0.76956 0.35274 0.0
C1258 C 0.19645 0.78939 0.37951 0.0
C1259 C 0.15216 0.75721 0.35494 0.0
C1260 C 0.24965 0.83352 0.37166 0.0
C1261 C 0.2384 0.82089 0.37209 0.0
C1262 C 0.20651 0.80063 0.34209 0.0
C1263 C 0.17811 0.76905 0.36362 0.0
C1264 C 0.18996 0.78245 0.36211 0.0
C1265 C 0.22559 0.82048 0.35829 0.0
C1266 C 0.21315 0.8075 0.35951 0.0
H1267 H 0.17244 0.73336 0.38836 0.0
H1268 H 0.19227 0.75503 0.3847 0.0
H1269 H 0.19019 0.78303 0.32975 0.0
H1270 H 0.23507 0.8546 0.33171 0.0
H1271 H 0.21498 0.8328 0.33273 0.0
C1272 C 0.14838 0.76539 0.65833 0.0
C1273 C 0.15268 0.74956 0.6523 0.0
C1274 C 0.16024 0.77727 0.66139 0.0
C1275 C 0.2042 0.78274 0.66926 0.0
H1276 H 0.1977 0.82437 0.64311 0.0
C1277 C 0.25678 0.8243 0.64671 0.0
C1278 C 0.25499 0.84128 0.64835 0.0
C1279 C 0.24383 0.81391 0.65056 0.0
C1280 C 0.19961 0.81294 0.65082 0.0
H1281 H 0.17293 0.73371 0.64545 0.0
H1282 H 0.19345 0.75434 0.6507 0.0
H1283 H 0.17569 0.80468 0.64426 0.0
H1284 H 0.23812 0.86059 0.65576 0.0
H1285 H 0.21549 0.84238 0.66254 0.0
H1286 H 0.22825 0.79081 0.67537 0.0
C1287 C 0.18094 0.75758 0.65321 0.0
C1288 C 0.18699 0.80165 0.65149 0.0
C1289 C 0.16913 0.74577 0.65004 0.0
C1290 C 0.23995 0.84759 0.65429 0.0
C1291 C 0.22695 0.83717 0.6581 0.0
C1292 C 0.21681 0.79402 0.66861 0.0
C1293 C 0.17665 0.77352 0.65866 0.0
C1294 C 0.18928 0.78628 0.66029 0.0
C1295 C 0.22872 0.82022 0.65615 0.0
C1296 C 0.21478 0.80908 0.65895 0.0
H1297 H 0.13584 0.76874 0.66022 0.0
H1298 H 0.15658 0.78943 0.66574 0.0
H1299 H 0.20624 0.77111 0.67648 0.0
H1300 H 0.26815 0.81896 0.64214 0.0
H1301 H 0.24554 0.80093 0.64861 0.0
C1302 C 0.24303 0.15574 0.65818 0.0
C1303 C 0.25295 0.15376 0.64142 0.0
C1304 C 0.23204 0.16862 0.65903 0.0
C1305 C 0.20332 0.19054 0.65261 0.0
H1306 H 0.21188 0.23077 0.62429 0.0
C1307 C 0.15283 0.23649 0.63488 0.0
C1308 C 0.15668 0.2531 0.63365 0.0
C1309 C 0.16496 0.2249 0.63765 0.0
C1310 C 0.20932 0.21975 0.63257 0.0
H1311 H 0.26009 0.1639 0.61298 0.0
H1312 H 0.24023 0.18573 0.6136 0.0
H1313 H 0.23279 0.21032 0.62661 0.0
H1314 H 0.17612 0.27072 0.63517 0.0
H1315 H 0.19719 0.25062 0.64094 0.0
H1316 H 0.1801 0.20034 0.6594 0.0
C1317 C 0.24102 0.17775 0.62642 0.0
C1318 C 0.22127 0.20781 0.63357 0.0
C1319 C 0.25226 0.16511 0.62586 0.0
C1320 C 0.17282 0.25796 0.63585 0.0
C1321 C 0.18491 0.2464 0.63902 0.0
C1322 C 0.19146 0.2026 0.65191 0.0
C1323 C 0.23069 0.17967 0.64299 0.0
C1324 C 0.21835 0.19288 0.64324 0.0
C1325 C 0.18119 0.22968 0.63964 0.0
C1326 C 0.19419 0.21726 0.64159 0.0
H1327 H 0.24383 0.14736 0.67066 0.0
H1328 H 0.22466 0.16988 0.67228 0.0
H1329 H 0.20049 0.17925 0.66017 0.0
H1330 H 0.1405 0.23237 0.63304 0.0
H1331 H 0.1616 0.21216 0.63765 0.0
C1332 C 0.74 0.17604 0.64428 0.0
C1333 C 0.74282 0.15925 0.64643 0.0
C1334 C 0.75255 0.1872 0.64654 0.0
C1335 C 0.79394 0.19281 0.66607 0.0
H1336 H 0.79544 0.22676 0.62582 0.0
C1337 C 0.84879 0.23608 0.65334 0.0
C1338 C 0.84521 0.25231 0.64827 0.0
C1339 C 0.83641 0.22457 0.65531 0.0
C1340 C 0.7951 0.2175 0.63735 0.0
H1341 H 0.76103 0.1411 0.65338 0.0
H1342 H 0.78301 0.16067 0.65709 0.0
H1343 H 0.77367 0.20699 0.62524 0.0
H1344 H 0.82571 0.26937 0.6426 0.0
H1345 H 0.80428 0.24947 0.64631 0.0
H1346 H 0.81558 0.20338 0.67802 0.0
C1347 C 0.77102 0.16515 0.65381 0.0
C1348 C 0.78261 0.20616 0.63702 0.0
C1349 C 0.75842 0.15394 0.65159 0.0
C1350 C 0.82896 0.25694 0.64622 0.0
C1351 C 0.81665 0.2455 0.64826 0.0
C1352 C 0.80651 0.20422 0.6664 0.0
C1353 C 0.76827 0.18188 0.65092 0.0
C1354 C 0.78178 0.19375 0.65145 0.0
C1355 C 0.82023 0.22911 0.65229 0.0
C1356 C 0.80713 0.21677 0.65212 0.0
H1357 H 0.72813 0.18062 0.64052 0.0
H1358 H 0.74996 0.20004 0.64463 0.0
H1359 H 0.79359 0.18343 0.67745 0.0
H1360 H 0.86118 0.2321 0.65503 0.0
H1361 H 0.83955 0.21202 0.65837 0.0
C1362 C 0.84448 0.75762 0.64358 0.0
C1363 C 0.84212 0.7451 0.62951 0.0
C1364 C 0.83281 0.76973 0.64618 0.0
C1365 C 0.80119 0.79095 0.61921 0.0
H1366 H 0.78437 0.80281 0.6713 0.0
C1367 C 0.74816 0.8352 0.62625 0.0
C1368 C 0.74886 0.84679 0.64156 0.0
C1369 C 0.75916 0.82236 0.6258 0.0
C1370 C 0.7891 0.79982 0.65667 0.0
H1371 H 0.82551 0.73538 0.6074 0.0
H1372 H 0.80539 0.7567 0.6117 0.0
H1373 H 0.80481 0.78146 0.66861 0.0
H1374 H 0.76009 0.85324 0.66964 0.0
H1375 H 0.77982 0.83111 0.66864 0.0
H1376 H 0.78599 0.80948 0.60718 0.0
C1377 C 0.81625 0.75708 0.6207 0.0
C1378 C 0.80075 0.78756 0.65516 0.0
C1379 C 0.82776 0.74485 0.61831 0.0
C1380 C 0.75988 0.84476 0.65724 0.0
C1381 C 0.77095 0.83193 0.65681 0.0
C1382 C 0.78975 0.80333 0.62072 0.0
C1383 C 0.81871 0.76967 0.63455 0.0
C1384 C 0.80675 0.78293 0.63638 0.0
C1385 C 0.77095 0.82077 0.64082 0.0
C1386 C 0.7834 0.8078 0.63944 0.0
H1387 H 0.85536 0.75812 0.65252 0.0
H1388 H 0.83498 0.77937 0.65691 0.0
H1389 H 0.80585 0.78776 0.60459 0.0
H1390 H 0.73932 0.83629 0.6144 0.0
H1391 H 0.75842 0.8137 0.61363 0.0
C1392 C 0.64864 0.73252 0.83549 0.0
C1393 C 0.65399 0.74819 0.84086 0.0
C1394 C 0.65977 0.72006 0.83168 0.0
C1395 C 0.70316 0.71241 0.82124 0.0
H1396 H 0.69609 0.67198 0.84989 0.0
C1397 C 0.75489 0.67098 0.84633 0.0
C1398 C 0.75294 0.65399 0.84539 0.0
C1399 C 0.74209 0.68136 0.84173 0.0
C1400 C 0.69812 0.68306 0.84148 0.0
H1401 H 0.67525 0.76317 0.84554 0.0
H1402 H 0.69447 0.74158 0.83906 0.0
H1403 H 0.67465 0.6923 0.8485 0.0
H1404 H 0.736 0.63461 0.83853 0.0
H1405 H 0.71358 0.65284 0.8306 0.0
H1406 H 0.72685 0.70343 0.8149 0.0
C1407 C 0.68173 0.73888 0.83764 0.0
C1408 C 0.68583 0.6947 0.84065 0.0
C1409 C 0.67067 0.75126 0.84153 0.0
C1410 C 0.73793 0.64763 0.83942 0.0
C1411 C 0.72506 0.65805 0.83495 0.0
C1412 C 0.71544 0.7008 0.82211 0.0
C1413 C 0.67644 0.72308 0.83299 0.0
C1414 C 0.68839 0.7097 0.83103 0.0
C1415 C 0.727 0.67503 0.83616 0.0
C1416 C 0.71322 0.68621 0.83274 0.0
H1417 H 0.63588 0.72974 0.83482 0.0
H1418 H 0.65534 0.70803 0.82799 0.0
H1419 H 0.70539 0.72372 0.81338 0.0
H1420 H 0.76626 0.67633 0.85085 0.0
H1421 H 0.74391 0.69438 0.8431 0.0
C1422 C 0.2482 0.66285 0.87083 0.0
C1423 C 0.24676 0.65195 0.85487 0.0
C1424 C 0.25947 0.67544 0.87003 0.0
C1425 C 0.27815 0.70601 0.86198 0.0
H1426 H 0.31877 0.69954 0.83442 0.0
C1427 C 0.32474 0.75749 0.85796 0.0
C1428 C 0.34102 0.75319 0.86026 0.0
C1429 C 0.31307 0.74555 0.85466 0.0
C1430 C 0.30755 0.70152 0.84235 0.0
H1431 H 0.25464 0.64624 0.82487 0.0
H1432 H 0.27397 0.66867 0.82297 0.0
H1433 H 0.29881 0.67791 0.83453 0.0
H1434 H 0.35794 0.73308 0.86055 0.0
H1435 H 0.33753 0.71213 0.85564 0.0
H1436 H 0.28719 0.72924 0.87075 0.0
C1437 C 0.2671 0.66709 0.83659 0.0
C1438 C 0.29597 0.68915 0.84219 0.0
C1439 C 0.25604 0.65427 0.83761 0.0
C1440 C 0.34548 0.73675 0.85867 0.0
C1441 C 0.33376 0.72475 0.85576 0.0
C1442 C 0.2898 0.71826 0.86238 0.0
C1443 C 0.26908 0.67776 0.85289 0.0
C1444 C 0.28117 0.69117 0.8522 0.0
C1445 C 0.31736 0.72898 0.85403 0.0
C1446 C 0.3047 0.71616 0.85268 0.0
H1447 H 0.24088 0.66137 0.88412 0.0
H1448 H 0.2608 0.68317 0.88304 0.0
H1449 H 0.26678 0.70823 0.86946 0.0
H1450 H 0.321 0.77011 0.85888 0.0
H1451 H 0.30065 0.74934 0.85286 0.0
C1452 C 0.3285 0.24656 0.84541 0.0
C1453 C 0.34494 0.25033 0.84303 0.0
C1454 C 0.31667 0.25827 0.84184 0.0
C1455 C 0.31069 0.30233 0.84243 0.0
H1456 H 0.2691 0.29099 0.81979 0.0
C1457 C 0.25741 0.34786 0.84053 0.0
C1458 C 0.24263 0.34149 0.84731 0.0
C1459 C 0.27037 0.3375 0.83628 0.0
C1460 C 0.28065 0.29434 0.82617 0.0
H1461 H 0.36176 0.26933 0.83441 0.0
H1462 H 0.34099 0.28985 0.82818 0.0
H1463 H 0.29118 0.27137 0.81854 0.0
H1464 H 0.22983 0.31915 0.85447 0.0
H1465 H 0.25237 0.30123 0.8472 0.0
H1466 H 0.30001 0.32512 0.8506 0.0
C1467 C 0.33734 0.27779 0.83294 0.0
C1468 C 0.29328 0.28312 0.82544 0.0
C1469 C 0.34922 0.26601 0.83641 0.0
C1470 C 0.24101 0.32452 0.84928 0.0
C1471 C 0.25392 0.3142 0.84496 0.0
C1472 C 0.29804 0.31358 0.84315 0.0
C1473 C 0.32095 0.27409 0.83586 0.0
C1474 C 0.30832 0.28682 0.83403 0.0
C1475 C 0.26879 0.32057 0.83861 0.0
C1476 C 0.28276 0.30953 0.8355 0.0
H1477 H 0.32472 0.23461 0.85044 0.0
H1478 H 0.30418 0.25508 0.84451 0.0
H1479 H 0.32207 0.3055 0.84936 0.0
H1480 H 0.2591 0.36086 0.83879 0.0
H1481 H 0.28165 0.34276 0.83126 0.0
C1482 C 0.67034 0.24366 0.8772 0.0
C1483 C 0.6559 0.2443 0.86619 0.0
C1484 C 0.68208 0.25567 0.87485 0.0
C1485 C 0.69788 0.28634 0.84081 0.0
H1486 H 0.71392 0.30679 0.88913 0.0
C1487 C 0.74058 0.34223 0.8398 0.0
C1488 C 0.75188 0.3435 0.85529 0.0
C1489 C 0.72909 0.32977 0.84001 0.0
C1490 C 0.70979 0.30105 0.87549 0.0
H1491 H 0.64274 0.25782 0.84356 0.0
H1492 H 0.6635 0.27872 0.83926 0.0
H1493 H 0.69341 0.28569 0.89146 0.0
H1494 H 0.76144 0.33201 0.88184 0.0
H1495 H 0.74159 0.31007 0.88221 0.0
H1496 H 0.71453 0.3014 0.82481 0.0
C1497 C 0.66557 0.26892 0.8498 0.0
C1498 C 0.69797 0.28902 0.87685 0.0
C1499 C 0.65369 0.25701 0.85234 0.0
C1500 C 0.75241 0.33152 0.87015 0.0
C1501 C 0.74099 0.31905 0.87037 0.0
C1502 C 0.70989 0.29826 0.83944 0.0
C1503 C 0.67976 0.26846 0.86126 0.0
C1504 C 0.69198 0.2815 0.85955 0.0
C1505 C 0.72893 0.31824 0.85558 0.0
C1506 C 0.71606 0.30568 0.85679 0.0
H1507 H 0.67251 0.23404 0.88795 0.0
H1508 H 0.69301 0.25496 0.8837 0.0
H1509 H 0.69349 0.28062 0.82726 0.0
H1510 H 0.74047 0.35102 0.82773 0.0
H1511 H 0.72004 0.32954 0.82836 0.0
C1512 C 0.64818 0.26394 0.15794 0.0
C1513 C 0.65273 0.24833 0.15136 0.0
C1514 C 0.6599 0.27584 0.1617 0.0
C1515 C 0.70384 0.28159 0.17004 0.0
H1516 H 0.69715 0.3234 0.14443 0.0
C1517 C 0.75615 0.32326 0.14675 0.0
C1518 C 0.75435 0.34022 0.14856 0.0
C1519 C 0.74327 0.31284 0.15092 0.0
C1520 C 0.69911 0.31191 0.152 0.0
H1521 H 0.67321 0.23282 0.14443 0.0
H1522 H 0.69345 0.25347 0.15085 0.0
H1523 H 0.67518 0.30367 0.14549 0.0
H1524 H 0.73761 0.35948 0.15665 0.0
H1525 H 0.71515 0.34122 0.16393 0.0
H1526 H 0.72793 0.28962 0.17598 0.0
C1527 C 0.68089 0.25654 0.15324 0.0
C1528 C 0.68651 0.30061 0.15263 0.0
C1529 C 0.66924 0.24472 0.14938 0.0
C1530 C 0.73943 0.34648 0.15504 0.0
C1531 C 0.72652 0.33604 0.15914 0.0
C1532 C 0.71643 0.29287 0.1694 0.0
C1533 C 0.67638 0.27231 0.15914 0.0
C1534 C 0.68887 0.28516 0.16118 0.0
C1535 C 0.72827 0.31911 0.15696 0.0
C1536 C 0.71434 0.30799 0.15991 0.0
H1537 H 0.63558 0.26712 0.15963 0.0
H1538 H 0.65607 0.28787 0.16637 0.0
H1539 H 0.70594 0.26989 0.17706 0.0
H1540 H 0.76743 0.31798 0.14179 0.0
H1541 H 0.74495 0.29987 0.1488 0.0
C1542 C 0.73837 0.65188 0.15656 0.0
C1543 C 0.74827 0.64997 0.13975 0.0
C1544 C 0.72717 0.66458 0.15734 0.0
C1545 C 0.69848 0.68677 0.15089 0.0
H1546 H 0.70867 0.72778 0.12518 0.0
C1547 C 0.65026 0.73594 0.13515 0.0
C1548 C 0.65505 0.75234 0.13516 0.0
C1549 C 0.66167 0.72357 0.13766 0.0
C1550 C 0.70566 0.71652 0.13273 0.0
H1551 H 0.75505 0.65996 0.11109 0.0
H1552 H 0.73494 0.68162 0.11176 0.0
H1553 H 0.72878 0.70646 0.12627 0.0
H1554 H 0.67533 0.76873 0.13894 0.0
H1555 H 0.69509 0.74727 0.14418 0.0
H1556 H 0.67554 0.69716 0.15805 0.0
C1557 C 0.73587 0.67363 0.12457 0.0
C1558 C 0.71714 0.70412 0.13301 0.0
C1559 C 0.74726 0.66113 0.12401 0.0
C1560 C 0.67132 0.75618 0.1386 0.0
C1561 C 0.68266 0.74385 0.14146 0.0
C1562 C 0.68704 0.69927 0.15083 0.0
C1563 C 0.72569 0.67556 0.14127 0.0
C1564 C 0.71364 0.68899 0.14184 0.0
C1565 C 0.67807 0.72737 0.14054 0.0
C1566 C 0.69043 0.71427 0.14158 0.0
H1567 H 0.73942 0.64365 0.16915 0.0
H1568 H 0.71983 0.66586 0.17062 0.0
H1569 H 0.69528 0.67528 0.15776 0.0
H1570 H 0.63781 0.73263 0.13238 0.0
H1571 H 0.65769 0.71105 0.1366 0.0
C1572 C 0.25829 0.64758 0.15592 0.0
C1573 C 0.24343 0.65382 0.14921 0.0
C1574 C 0.27114 0.65807 0.16024 0.0
C1575 C 0.2808 0.70125 0.17091 0.0
H1576 H 0.32209 0.69142 0.14648 0.0
C1577 C 0.32626 0.75051 0.14946 0.0
C1578 C 0.34288 0.74747 0.15124 0.0
C1579 C 0.31504 0.73836 0.15374 0.0
C1580 C 0.31076 0.6942 0.15378 0.0
H1581 H 0.23038 0.67605 0.14226 0.0
H1582 H 0.2527 0.69419 0.14968 0.0
H1583 H 0.30054 0.67118 0.14565 0.0
H1584 H 0.36073 0.72936 0.15955 0.0
H1585 H 0.341 0.70802 0.16698 0.0
H1586 H 0.29081 0.72447 0.17844 0.0
C1587 C 0.2544 0.68122 0.15179 0.0
C1588 C 0.2984 0.68261 0.15328 0.0
C1589 C 0.24162 0.67078 0.14736 0.0
C1590 C 0.34801 0.7321 0.15802 0.0
C1591 C 0.33673 0.71986 0.16218 0.0
C1592 C 0.29313 0.71281 0.17142 0.0
C1593 C 0.26934 0.675 0.1581 0.0
C1594 C 0.28314 0.68622 0.1613 0.0
C1595 C 0.32013 0.72282 0.15985 0.0
C1596 C 0.30808 0.70961 0.16231 0.0
H1597 H 0.26012 0.63459 0.15753 0.0
H1598 H 0.2825 0.65294 0.16517 0.0
H1599 H 0.26927 0.70425 0.17758 0.0
H1600 H 0.32185 0.76221 0.14436 0.0
H1601 H 0.30236 0.74098 0.15151 0.0
C1602 C 0.24642 0.33304 0.12558 0.0
C1603 C 0.24546 0.34412 0.14142 0.0
C1604 C 0.25776 0.3205 0.12602 0.0
C1605 C 0.277 0.29018 0.13341 0.0
H1606 H 0.31826 0.29715 0.15926 0.0
C1607 C 0.32422 0.23914 0.13613 0.0
C1608 C 0.34042 0.24358 0.13343 0.0
C1609 C 0.31248 0.25099 0.13955 0.0
C1610 C 0.30687 0.29503 0.15179 0.0
H1611 H 0.25426 0.35016 0.17092 0.0
H1612 H 0.27368 0.32781 0.17225 0.0
H1613 H 0.29813 0.31858 0.15982 0.0
H1614 H 0.35713 0.26386 0.13246 0.0
H1615 H 0.3366 0.28464 0.13755 0.0
H1616 H 0.28603 0.26701 0.12439 0.0
C1617 C 0.26639 0.32922 0.15894 0.0
C1618 C 0.29518 0.30729 0.15235 0.0
C1619 C 0.25527 0.342 0.15826 0.0
C1620 C 0.34474 0.26008 0.13464 0.0
C1621 C 0.33295 0.27199 0.13767 0.0
C1622 C 0.28875 0.27805 0.13258 0.0
C1623 C 0.26792 0.31839 0.14271 0.0
C1624 C 0.28014 0.30509 0.14298 0.0
C1625 C 0.31662 0.26761 0.13992 0.0
C1626 C 0.30389 0.28033 0.14166 0.0
H1627 H 0.23869 0.33437 0.11263 0.0
H1628 H 0.25871 0.31267 0.11306 0.0
H1629 H 0.26546 0.28781 0.12643 0.0
H1630 H 0.32058 0.22647 0.13551 0.0
H1631 H 0.30013 0.2471 0.14174 0.0
C1632 C 0.93587 0.25698 0.32502 0.0
C1633 C 0.93102 0.27107 0.33532 0.0
C1634 C 0.95147 0.25584 0.31711 0.0
C1635 C 0.98778 0.28028 0.30458 0.0
H1636 H 0.01163 0.24286 0.32397 0.0
C1637 C 0.053 0.28373 0.32958 0.0
C1638 C 0.06346 0.27047 0.32689 0.0
C1639 C 0.037 0.2828 0.32334 0.0
C1640 C 0.00513 0.25319 0.31793 0.0
H1641 H 0.9383 0.2953 0.34453 0.0
H1642 H 0.96536 0.29334 0.33081 0.0
H1643 H 0.98229 0.24303 0.32608 0.0
H1644 H 0.06563 0.24608 0.31478 0.0
H1645 H 0.03735 0.24434 0.3041 0.0
H1646 H 0.01069 0.29083 0.29751 0.0
C1647 C 0.95719 0.28319 0.3287 0.0
C1648 C 0.9883 0.25329 0.31916 0.0
C1649 C 0.94172 0.28425 0.33675 0.0
C1650 C 0.05779 0.25647 0.31706 0.0
C1651 C 0.04164 0.25546 0.311 0.0
C1652 C 0.00458 0.28018 0.30335 0.0
C1653 C 0.96235 0.26887 0.31915 0.0
C1654 C 0.97953 0.26716 0.31336 0.0
C1655 C 0.03104 0.26854 0.3144 0.0
C1656 C 0.01345 0.26695 0.31089 0.0
H1657 H 0.92784 0.24663 0.32366 0.0
H1658 H 0.95512 0.24468 0.30976 0.0
H1659 H 0.98129 0.291 0.29964 0.0
H1660 H 0.05706 0.29471 0.33701 0.0
H1661 H 0.0291 0.293 0.32646 0.0
C1662 C 0.73893 0.05594 0.34143 0.0
C1663 C 0.7257 0.06623 0.34514 0.0
C1664 C 0.73653 0.03957 0.33663 0.0
C1665 C 0.70798 0.00684 0.34534 0.0
H1666 H 0.73246 0.98365 0.30496 0.0
C1667 C 0.70069 0.9381 0.33723 0.0
C1668 C 0.71501 0.92914 0.33526 0.0
C1669 C 0.70063 0.95488 0.33411 0.0
C1670 C 0.7256 0.98993 0.31638 0.0
H1671 H 0.69954 0.06746 0.3461 0.0
H1672 H 0.69541 0.03881 0.33796 0.0
H1673 H 0.73513 0.01322 0.30789 0.0
H1674 H 0.74033 0.93048 0.32745 0.0
H1675 H 0.74045 0.95993 0.32272 0.0
H1676 H 0.69901 0.98373 0.35459 0.0
C1677 C 0.70763 0.04346 0.33881 0.0
C1678 C 0.7271 0.00685 0.31799 0.0
C1679 C 0.71001 0.05987 0.34343 0.0
C1680 C 0.72911 0.93711 0.32902 0.0
C1681 C 0.72914 0.95399 0.32623 0.0
C1682 C 0.7066 0.98997 0.34388 0.0
C1683 C 0.72087 0.03312 0.33561 0.0
C1684 C 0.71842 0.01542 0.33264 0.0
C1685 C 0.71499 0.96315 0.32935 0.0
C1686 C 0.71551 0.98125 0.32952 0.0
H1687 H 0.75118 0.06047 0.34245 0.0
H1688 H 0.74696 0.03182 0.33441 0.0
H1689 H 0.70134 0.01311 0.35699 0.0
H1690 H 0.68958 0.93219 0.34176 0.0
H1691 H 0.68942 0.96146 0.33607 0.0
C1692 C 0.05631 0.70911 0.34123 0.0
C1693 C 0.06719 0.72207 0.33901 0.0
C1694 C 0.04092 0.70998 0.3329 0.0
C1695 C 0.01018 0.73956 0.32039 0.0
H1696 H 0.98812 0.70137 0.29997 0.0
C1697 C 0.94086 0.73713 0.3154 0.0
C1698 C 0.93467 0.72355 0.32561 0.0
C1699 C 0.95716 0.73766 0.30996 0.0
C1700 C 0.99413 0.71219 0.30548 0.0
H1701 H 0.07074 0.74592 0.3258 0.0
H1702 H 0.04359 0.74756 0.31143 0.0
H1703 H 0.01742 0.70105 0.30352 0.0
H1704 H 0.94031 0.69947 0.33694 0.0
H1705 H 0.96855 0.70036 0.3275 0.0
H1706 H 0.98682 0.75035 0.32347 0.0
C1707 C 0.04705 0.73671 0.31959 0.0
C1708 C 0.01088 0.712 0.30752 0.0
C1709 C 0.06256 0.73576 0.32778 0.0
C1710 C 0.94477 0.71015 0.3292 0.0
C1711 C 0.96094 0.7106 0.3236 0.0
C1712 C 0.9934 0.73973 0.31838 0.0
C1713 C 0.03602 0.72389 0.32228 0.0
C1714 C 0.01899 0.72542 0.31582 0.0
C1715 C 0.96744 0.72451 0.31439 0.0
C1716 C 0.98516 0.72578 0.31176 0.0
H1717 H 0.05955 0.69837 0.34973 0.0
H1718 H 0.03263 0.70001 0.33551 0.0
H1719 H 0.01608 0.75006 0.32692 0.0
H1720 H 0.93331 0.74762 0.31243 0.0
H1721 H 0.96184 0.74851 0.30279 0.0
C1722 C 0.28385 0.93735 0.34524 0.0
C1723 C 0.26834 0.93077 0.3479 0.0
C1724 C 0.28585 0.95391 0.34123 0.0
C1725 C 0.26517 0.99077 0.32327 0.0
H1726 H 0.29552 0.01329 0.3576 0.0
C1727 C 0.2658 0.06079 0.33344 0.0
C1728 C 0.28055 0.06831 0.33799 0.0
C1729 C 0.26495 0.04386 0.33133 0.0
C1730 C 0.28725 0.00721 0.34755 0.0
H1731 H 0.24273 0.93636 0.34764 0.0
H1732 H 0.24629 0.96528 0.34061 0.0
H1733 H 0.29294 0.98392 0.35993 0.0
H1734 H 0.30616 0.06435 0.34229 0.0
H1735 H 0.30484 0.03499 0.33778 0.0
H1736 H 0.25946 0.01413 0.31089 0.0
C1737 C 0.25687 0.95758 0.34163 0.0
C1738 C 0.28573 0.99035 0.34897 0.0
C1739 C 0.25486 0.94104 0.34583 0.0
C1740 C 0.29458 0.05881 0.33907 0.0
C1741 C 0.29379 0.04197 0.33664 0.0
C1742 C 0.26681 0.00769 0.32168 0.0
C1743 C 0.2724 0.96421 0.3396 0.0
C1744 C 0.27458 0.98198 0.337 0.0
C1745 C 0.27889 0.03421 0.33345 0.0
C1746 C 0.27777 0.01613 0.33395 0.0
H1747 H 0.2945 0.92979 0.34665 0.0
H1748 H 0.29796 0.9587 0.33955 0.0
H1749 H 0.25657 0.98457 0.31375 0.0
H1750 H 0.25479 0.06786 0.33259 0.0
H1751 H 0.25324 0.03831 0.32903 0.0
C1752 C 0.05278 0.71314 0.66673 0.0
C1753 C 0.06283 0.7266 0.67018 0.0
C1754 C 0.0366 0.71358 0.6723 0.0
C1755 C 0.00386 0.74242 0.67765 0.0
H1756 H 0.98046 0.70362 0.69355 0.0
C1757 C 0.93464 0.73759 0.66973 0.0
C1758 C 0.93009 0.72383 0.65858 0.0
C1759 C 0.95022 0.73876 0.67769 0.0
C1760 C 0.98683 0.7146 0.68927 0.0
H1761 H 0.06407 0.75083 0.68297 0.0
H1762 H 0.03551 0.75168 0.69255 0.0
H1763 H 0.00981 0.70429 0.69647 0.0
H1764 H 0.9379 0.70018 0.64786 0.0
H1765 H 0.96492 0.70218 0.66174 0.0
H1766 H 0.98095 0.75242 0.66948 0.0
C1767 C 0.04024 0.7408 0.68552 0.0
C1768 C 0.0036 0.71499 0.69094 0.0
C1769 C 0.05655 0.74029 0.6801 0.0
C1770 C 0.94109 0.71097 0.6563 0.0
C1771 C 0.95653 0.71206 0.66443 0.0
C1772 C 0.98706 0.74205 0.67602 0.0
C1773 C 0.03004 0.72753 0.68135 0.0
C1774 C 0.01234 0.72861 0.68427 0.0
C1775 C 0.96137 0.72607 0.67488 0.0
C1776 C 0.97846 0.72786 0.68098 0.0
H1777 H 0.05729 0.70238 0.65921 0.0
H1778 H 0.02904 0.70325 0.66858 0.0
H1779 H 0.01026 0.75306 0.67228 0.0
H1780 H 0.92638 0.74767 0.67173 0.0
H1781 H 0.95363 0.74968 0.68573 0.0
C1782 C 0.29735 0.94027 0.6545 0.0
C1783 C 0.28311 0.93121 0.65686 0.0
C1784 C 0.29727 0.95711 0.65719 0.0
C1785 C 0.2726 0.9919 0.67589 0.0
H1786 H 0.29669 0.01579 0.63574 0.0
C1787 C 0.26021 0.05895 0.65465 0.0
C1788 C 0.27357 0.0691 0.65101 0.0
C1789 C 0.26236 0.04237 0.65843 0.0
C1790 C 0.2901 0.00931 0.64725 0.0
H1791 H 0.25778 0.93251 0.66466 0.0
H1792 H 0.25748 0.96203 0.66874 0.0
H1793 H 0.29862 0.9863 0.63695 0.0
H1794 H 0.29971 0.06982 0.64912 0.0
H1795 H 0.3034 0.04081 0.65556 0.0
H1796 H 0.2636 0.01508 0.68556 0.0
C1797 C 0.2688 0.95613 0.66522 0.0
C1798 C 0.29123 0.99238 0.648 0.0
C1799 C 0.26894 0.93921 0.66278 0.0
C1800 C 0.28915 0.06236 0.65178 0.0
C1801 C 0.29128 0.04574 0.6554 0.0
C1802 C 0.27136 0.00887 0.675 0.0
C1803 C 0.2829 0.96532 0.662 0.0
C1804 C 0.28241 0.98343 0.66223 0.0
C1805 C 0.27789 0.03555 0.65852 0.0
C1806 C 0.28 0.01772 0.66056 0.0
H1807 H 0.30851 0.93438 0.65019 0.0
H1808 H 0.30844 0.96374 0.6551 0.0
H1809 H 0.26582 0.98543 0.68721 0.0
H1810 H 0.24805 0.06376 0.65432 0.0
H1811 H 0.25181 0.03479 0.66062 0.0
C1812 C 0.06341 0.26056 0.67025 0.0
C1813 C 0.06828 0.27426 0.65919 0.0
C1814 C 0.04773 0.25959 0.67794 0.0
C1815 C 0.01132 0.28423 0.68891 0.0
H1816 H 0.98756 0.24607 0.67161 0.0
C1817 C 0.94569 0.28655 0.66521 0.0
C1818 C 0.93541 0.27324 0.66847 0.0
C1819 C 0.96178 0.28591 0.67111 0.0
C1820 C 0.99404 0.25663 0.67706 0.0
H1821 H 0.06089 0.29799 0.64832 0.0
H1822 H 0.03368 0.29635 0.66172 0.0
H1823 H 0.01691 0.24633 0.66925 0.0
H1824 H 0.93366 0.24907 0.6813 0.0
H1825 H 0.96208 0.24783 0.69147 0.0
H1826 H 0.98841 0.29485 0.69576 0.0
C1827 C 0.04191 0.28637 0.66455 0.0
C1828 C 0.01087 0.25678 0.67569 0.0
C1829 C 0.05746 0.28725 0.65671 0.0
C1830 C 0.94135 0.25949 0.67857 0.0
C1831 C 0.95759 0.25877 0.68433 0.0
C1832 C 0.99453 0.28406 0.69033 0.0
C1833 C 0.03677 0.27242 0.67493 0.0
C1834 C 0.01959 0.27086 0.68075 0.0
C1835 C 0.96802 0.27188 0.68032 0.0
C1836 C 0.98568 0.27055 0.68355 0.0
H1837 H 0.07153 0.25037 0.67241 0.0
H1838 H 0.04409 0.24872 0.68592 0.0
H1839 H 0.01779 0.29513 0.69328 0.0
H1840 H 0.94143 0.29736 0.65756 0.0
H1841 H 0.96953 0.29612 0.66752 0.0
C1842 C 0.73216 0.06142 0.66758 0.0
C1843 C 0.7176 0.06899 0.66226 0.0
C1844 C 0.73275 0.04455 0.67043 0.0
C1845 C 0.71048 0.00789 0.65452 0.0
H1846 H 0.74023 0.98552 0.6898 0.0
C1847 C 0.71392 0.93812 0.6567 0.0
C1848 C 0.72953 0.93159 0.65481 0.0
C1849 C 0.71174 0.95463 0.66093 0.0
C1850 C 0.73188 0.99164 0.67988 0.0
H1851 H 0.69203 0.06522 0.65741 0.0
H1852 H 0.6929 0.03598 0.66316 0.0
H1853 H 0.73742 0.01512 0.69204 0.0
H1854 H 0.75509 0.93719 0.65683 0.0
H1855 H 0.75122 0.96601 0.66412 0.0
H1856 H 0.70504 0.98451 0.64225 0.0
C1857 C 0.704 0.04286 0.66437 0.0
C1858 C 0.73029 0.00858 0.68111 0.0
C1859 C 0.70346 0.05964 0.66121 0.0
C1860 C 0.7429 0.94183 0.65801 0.0
C1861 C 0.7407 0.95832 0.66237 0.0
C1862 C 0.71197 0.99101 0.65341 0.0
C1863 C 0.71874 0.03501 0.66827 0.0
C1864 C 0.71968 0.01692 0.66828 0.0
C1865 C 0.72511 0.96494 0.6635 0.0
C1866 C 0.7228 0.98272 0.66591 0.0
H1867 H 0.74325 0.06838 0.66843 0.0
H1868 H 0.74434 0.03893 0.67329 0.0
H1869 H 0.70248 0.01389 0.64405 0.0
H1870 H 0.70335 0.93059 0.65446 0.0
H1871 H 0.69958 0.95938 0.66193 0.0
C1872 C 0.55689 0.79241 0.833 0.0
C1873 C 0.56515 0.77772 0.82992 0.0
C1874 C 0.54031 0.79332 0.82997 0.0
C1875 C 0.50419 0.77256 0.80977 0.0
H1876 H 0.48381 0.79323 0.85537 0.0
C1877 C 0.43605 0.76699 0.83059 0.0
C1878 C 0.42893 0.78064 0.8397 0.0
C1879 C 0.45244 0.7672 0.82549 0.0
C1880 C 0.48925 0.78767 0.84232 0.0
H1881 H 0.56281 0.75272 0.81993 0.0
H1882 H 0.53351 0.7542 0.81504 0.0
H1883 H 0.51292 0.79255 0.85316 0.0
H1884 H 0.43283 0.80564 0.8489 0.0
H1885 H 0.46115 0.80619 0.83951 0.0
H1886 H 0.48024 0.76748 0.7992 0.0
C1887 C 0.53996 0.76506 0.8196 0.0
C1888 C 0.50598 0.78727 0.84107 0.0
C1889 C 0.55669 0.76419 0.82245 0.0
C1890 C 0.43809 0.79485 0.84223 0.0
C1891 C 0.45433 0.79513 0.83692 0.0
C1892 C 0.48731 0.77299 0.81101 0.0
C1893 C 0.53155 0.77949 0.82406 0.0
C1894 C 0.51367 0.77984 0.82474 0.0
C1895 C 0.46186 0.78112 0.82927 0.0
C1896 C 0.47968 0.78067 0.82727 0.0
H1897 H 0.56316 0.80311 0.83843 0.0
H1898 H 0.53422 0.80473 0.83303 0.0
H1899 H 0.50982 0.76672 0.79703 0.0
H1900 H 0.42921 0.75589 0.82846 0.0
H1901 H 0.4579 0.7562 0.81965 0.0
C1902 C 0.22686 0.4387 0.83012 0.0
C1903 C 0.21303 0.43074 0.83725 0.0
C1904 C 0.22677 0.45556 0.82717 0.0
C1905 C 0.205 0.49187 0.84524 0.0
H1906 H 0.23134 0.51428 0.80602 0.0
C1907 C 0.20824 0.56175 0.84235 0.0
C1908 C 0.22399 0.56811 0.84241 0.0
C1909 C 0.20557 0.54527 0.83835 0.0
C1910 C 0.22392 0.50816 0.81703 0.0
H1911 H 0.18792 0.43386 0.84543 0.0
H1912 H 0.18755 0.46311 0.83962 0.0
H1913 H 0.22875 0.48465 0.80454 0.0
H1914 H 0.24921 0.56227 0.83731 0.0
H1915 H 0.24451 0.53354 0.83037 0.0
H1916 H 0.2003 0.51532 0.85783 0.0
C1917 C 0.19866 0.45652 0.83698 0.0
C1918 C 0.22248 0.4912 0.81624 0.0
C1919 C 0.19883 0.43974 0.8402 0.0
C1920 C 0.23693 0.55776 0.83757 0.0
C1921 C 0.23425 0.54132 0.83341 0.0
C1922 C 0.20633 0.50879 0.84591 0.0
C1923 C 0.21276 0.46473 0.83106 0.0
C1924 C 0.21319 0.48283 0.83054 0.0
C1925 C 0.21858 0.53485 0.83414 0.0
C1926 C 0.216 0.51708 0.83202 0.0
H1927 H 0.23798 0.43204 0.82776 0.0
H1928 H 0.23789 0.46146 0.82278 0.0
H1929 H 0.19803 0.48587 0.85677 0.0
H1930 H 0.19798 0.56938 0.84593 0.0
H1931 H 0.19335 0.54061 0.83883 0.0
C1932 C 0.44486 0.21359 0.83041 0.0
C1933 C 0.43484 0.22698 0.82647 0.0
C1934 C 0.46102 0.21383 0.82475 0.0
C1935 C 0.49388 0.24231 0.81815 0.0
H1936 H 0.51694 0.20308 0.8031 0.0
C1937 C 0.56311 0.23717 0.82577 0.0
C1938 C 0.56762 0.22354 0.8372 0.0
C1939 C 0.54752 0.23831 0.81785 0.0
C1940 C 0.51067 0.21418 0.80714 0.0
H1941 H 0.43365 0.25088 0.81277 0.0
H1942 H 0.46218 0.25139 0.80305 0.0
H1943 H 0.48758 0.20387 0.8005 0.0
H1944 H 0.55969 0.2001 0.84845 0.0
H1945 H 0.53265 0.20206 0.83468 0.0
H1946 H 0.51691 0.25232 0.82581 0.0
C1947 C 0.45744 0.24071 0.81051 0.0
C1948 C 0.49389 0.21463 0.80565 0.0
C1949 C 0.44113 0.24039 0.81602 0.0
C1950 C 0.55654 0.21079 0.8398 0.0
C1951 C 0.54108 0.21185 0.83173 0.0
C1952 C 0.5107 0.24187 0.81962 0.0
C1953 C 0.46759 0.22751 0.81513 0.0
C1954 C 0.48528 0.22844 0.81201 0.0
C1955 C 0.53629 0.22574 0.821 0.0
C1956 C 0.51917 0.22754 0.81498 0.0
H1957 H 0.44033 0.20304 0.83835 0.0
H1958 H 0.46856 0.20357 0.82881 0.0
H1959 H 0.48758 0.25309 0.82327 0.0
H1960 H 0.57143 0.24717 0.82351 0.0
H1961 H 0.54414 0.24914 0.8096 0.0
C1962 C 0.75993 0.43806 0.83977 0.0
C1963 C 0.77315 0.42786 0.84389 0.0
C1964 C 0.76231 0.45448 0.8352 0.0
C1965 C 0.79039 0.48748 0.84502 0.0
H1966 H 0.76675 0.51043 0.80368 0.0
C1967 C 0.79768 0.55628 0.83638 0.0
C1968 C 0.7834 0.5652 0.83372 0.0
C1969 C 0.79781 0.53945 0.83363 0.0
C1970 C 0.77337 0.50422 0.81537 0.0
H1971 H 0.79928 0.42687 0.84589 0.0
H1972 H 0.80336 0.4556 0.83815 0.0
H1973 H 0.76417 0.48086 0.80662 0.0
H1974 H 0.75825 0.56369 0.82513 0.0
H1975 H 0.75826 0.53419 0.821 0.0
H1976 H 0.79903 0.51068 0.85448 0.0
C1977 C 0.79117 0.45084 0.83849 0.0
C1978 C 0.77192 0.4873 0.81699 0.0
C1979 C 0.78882 0.43438 0.84288 0.0
C1980 C 0.76944 0.5571 0.82724 0.0
C1981 C 0.76949 0.54019 0.82479 0.0
C1982 C 0.79171 0.50436 0.84354 0.0
C1983 C 0.77793 0.46108 0.83483 0.0
C1984 C 0.78031 0.4788 0.83197 0.0
C1985 C 0.78358 0.5311 0.82852 0.0
C1986 C 0.7831 0.51299 0.82883 0.0
H1987 H 0.74771 0.43342 0.84026 0.0
H1988 H 0.75187 0.46214 0.83262 0.0
H1989 H 0.79679 0.48128 0.85691 0.0
H1990 H 0.80869 0.56227 0.84113 0.0
H1991 H 0.80898 0.53291 0.83609 0.0
C1992 C 0.43744 0.20284 0.15338 0.0
C1993 C 0.42838 0.2172 0.15498 0.0
C1994 C 0.45353 0.20252 0.15937 0.0
C1995 C 0.48605 0.22523 0.18564 0.0
H1996 H 0.5126 0.20367 0.14593 0.0
C1997 C 0.55556 0.23365 0.17503 0.0
C1998 C 0.56408 0.21989 0.16837 0.0
C1999 C 0.53885 0.23275 0.17809 0.0
C2000 C 0.50539 0.20951 0.15739 0.0
H2001 H 0.42866 0.24224 0.16517 0.0
H2002 H 0.4571 0.24189 0.17508 0.0
H2003 H 0.48359 0.20316 0.14251 0.0
H2004 H 0.56235 0.19411 0.16181 0.0
H2005 H 0.53346 0.19243 0.1677 0.0
H2006 H 0.50824 0.23197 0.2001 0.0
C2007 C 0.45168 0.23079 0.1695 0.0
C2008 C 0.4887 0.2092 0.15543 0.0
C2009 C 0.43543 0.23102 0.16375 0.0
C2010 C 0.556 0.20496 0.16662 0.0
C2011 C 0.53945 0.20401 0.16992 0.0
C2012 C 0.5029 0.22559 0.18757 0.0
C2013 C 0.46103 0.21666 0.16674 0.0
C2014 C 0.47879 0.21694 0.16956 0.0
C2015 C 0.53057 0.21805 0.1747 0.0
C2016 C 0.51271 0.21762 0.17349 0.0
H2017 H 0.43222 0.19191 0.147 0.0
H2018 H 0.46026 0.19131 0.15757 0.0
H2019 H 0.47872 0.23132 0.19676 0.0
H2020 H 0.56157 0.24531 0.17647 0.0
H2021 H 0.53231 0.24377 0.18178 0.0
C2022 C 0.7875 0.56022 0.15305 0.0
C2023 C 0.77169 0.5664 0.15225 0.0
C2024 C 0.79023 0.54382 0.15743 0.0
C2025 C 0.77171 0.50681 0.17878 0.0
H2026 H 0.79888 0.48422 0.14064 0.0
C2027 C 0.76948 0.43725 0.16666 0.0
C2028 C 0.7835 0.42929 0.1601 0.0
C2029 C 0.76948 0.45412 0.16951 0.0
C2030 C 0.79155 0.49032 0.15175 0.0
H2031 H 0.7464 0.56032 0.15635 0.0
H2032 H 0.75122 0.53172 0.16394 0.0
H2033 H 0.79637 0.51363 0.13884 0.0
H2034 H 0.80881 0.43243 0.15291 0.0
H2035 H 0.80898 0.46171 0.15858 0.0
H2036 H 0.76675 0.48344 0.19157 0.0
C2037 C 0.76148 0.53958 0.16121 0.0
C2038 C 0.79008 0.50721 0.15065 0.0
C2039 C 0.75873 0.55594 0.15667 0.0
C2040 C 0.79776 0.4383 0.1577 0.0
C2041 C 0.79782 0.45509 0.16083 0.0
C2042 C 0.77329 0.48989 0.18001 0.0
C2043 C 0.77723 0.5333 0.16129 0.0
C2044 C 0.77994 0.5156 0.16392 0.0
C2045 C 0.78355 0.4633 0.1661 0.0
C2046 C 0.78303 0.4814 0.16628 0.0
H2047 H 0.79777 0.56794 0.14982 0.0
H2048 H 0.80251 0.5393 0.15756 0.0
H2049 H 0.76393 0.51302 0.18933 0.0
H2050 H 0.75831 0.43058 0.16858 0.0
H2051 H 0.75822 0.46002 0.1734 0.0
C2052 C 0.43927 0.76483 0.17402 0.0
C2053 C 0.43079 0.77837 0.16668 0.0
C2054 C 0.45602 0.76568 0.17673 0.0
C2055 C 0.4896 0.78787 0.1544 0.0
H2056 H 0.51619 0.76696 0.19459 0.0
C2057 C 0.55772 0.7941 0.15071 0.0
C2058 C 0.56674 0.77977 0.15295 0.0
C2059 C 0.54154 0.79454 0.15627 0.0
C2060 C 0.50888 0.77278 0.18323 0.0
H2061 H 0.43268 0.80383 0.15845 0.0
H2062 H 0.46166 0.80547 0.16373 0.0
H2063 H 0.4867 0.76678 0.19815 0.0
H2064 H 0.56621 0.75488 0.16374 0.0
H2065 H 0.53763 0.75549 0.17299 0.0
H2066 H 0.51144 0.79354 0.13915 0.0
C2067 C 0.45559 0.79404 0.16676 0.0
C2068 C 0.49204 0.77269 0.18529 0.0
C2069 C 0.43899 0.79313 0.16382 0.0
C2070 C 0.55949 0.76608 0.1618 0.0
C2071 C 0.54317 0.76646 0.16719 0.0
C2072 C 0.50629 0.78793 0.15234 0.0
C2073 C 0.4644 0.78014 0.17228 0.0
C2074 C 0.48226 0.78035 0.17092 0.0
C2075 C 0.53392 0.78058 0.16393 0.0
C2076 C 0.51616 0.78049 0.16675 0.0
H2077 H 0.43319 0.75331 0.17632 0.0
H2078 H 0.46249 0.75477 0.18101 0.0
H2079 H 0.48241 0.79344 0.14273 0.0
H2080 H 0.56307 0.80493 0.14425 0.0
H2081 H 0.53486 0.80574 0.15405 0.0
C2082 C 0.20736 0.43441 0.1543 0.0
C2083 C 0.2231 0.42805 0.15343 0.0
C2084 C 0.20482 0.45082 0.15881 0.0
C2085 C 0.2237 0.48745 0.18056 0.0
H2086 H 0.19682 0.5106 0.14263 0.0
C2087 C 0.22664 0.55707 0.16915 0.0
C2088 C 0.21277 0.56518 0.16241 0.0
C2089 C 0.22644 0.5402 0.17199 0.0
C2090 C 0.20406 0.50435 0.15369 0.0
H2091 H 0.24846 0.43383 0.1575 0.0
H2092 H 0.24397 0.46245 0.16531 0.0
H2093 H 0.19905 0.4812 0.14047 0.0
H2094 H 0.18748 0.56235 0.15496 0.0
H2095 H 0.18691 0.53308 0.16066 0.0
H2096 H 0.22884 0.51066 0.19368 0.0
C2097 C 0.23362 0.45471 0.16254 0.0
C2098 C 0.20538 0.48746 0.15238 0.0
C2099 C 0.23619 0.43834 0.15787 0.0
C2100 C 0.19841 0.55635 0.1599 0.0
C2101 C 0.19813 0.53956 0.16303 0.0
C2102 C 0.22227 0.50438 0.18201 0.0
C2103 C 0.21794 0.46117 0.16272 0.0
C2104 C 0.21541 0.47887 0.16556 0.0
C2105 C 0.21228 0.53118 0.16838 0.0
C2106 C 0.21263 0.51307 0.16837 0.0
H2107 H 0.197 0.42681 0.15106 0.0
H2108 H 0.19259 0.45547 0.15901 0.0
H2109 H 0.2314 0.48107 0.19104 0.0
H2110 H 0.23788 0.5636 0.17116 0.0
H2111 H 0.2376 0.53417 0.17595 0.0
C2112 C 0.11098 0.25699 0.41728 0.0
C2113 C 0.10581 0.27064 0.40651 0.0
C2114 C 0.11027 0.25699 0.43813 0.0
C2115 C 0.09134 0.27755 0.48147 0.0
H2116 H 0.12881 0.26103 0.50961 0.0
C2117 C 0.10148 0.28681 0.56632 0.0
C2118 C 0.10828 0.27374 0.57683 0.0
C2119 C 0.10023 0.28619 0.54551 0.0
C2120 C 0.11819 0.26554 0.50199 0.0
H2121 H 0.09426 0.2942 0.40845 0.0
H2122 H 0.09324 0.29444 0.44499 0.0
H2123 H 0.12813 0.26017 0.47329 0.0
H2124 H 0.11774 0.24928 0.57451 0.0
H2125 H 0.11569 0.24813 0.53806 0.0
H2126 H 0.08144 0.28295 0.51027 0.0
C2127 C 0.09806 0.28381 0.4375 0.0
C2128 C 0.11779 0.26504 0.48116 0.0
C2129 C 0.09885 0.28381 0.41665 0.0
C2130 C 0.11293 0.25968 0.56651 0.0
C2131 C 0.11178 0.25907 0.54572 0.0
C2132 C 0.09174 0.27807 0.50234 0.0
C2133 C 0.10408 0.27053 0.44849 0.0
C2134 C 0.10435 0.27099 0.47065 0.0
C2135 C 0.10563 0.27241 0.53496 0.0
C2136 C 0.10516 0.27201 0.51282 0.0
H2137 H 0.11593 0.24651 0.40959 0.0
H2138 H 0.11463 0.2464 0.44614 0.0
H2139 H 0.08073 0.28206 0.47382 0.0
H2140 H 0.09728 0.29753 0.5742 0.0
H2141 H 0.09545 0.29667 0.53766 0.0
C2142 C 0.72764 0.12066 0.57513 0.0
C2143 C 0.71478 0.11555 0.58716 0.0
C2144 C 0.72629 0.12009 0.55434 0.0
C2145 C 0.7077 0.09799 0.51396 0.0
H2146 H 0.71727 0.13626 0.48206 0.0
C2147 C 0.72739 0.09729 0.43105 0.0
C2148 C 0.71978 0.1084 0.41815 0.0
C2149 C 0.72413 0.09751 0.45152 0.0
C2150 C 0.7144 0.12554 0.4908 0.0
H2151 H 0.69101 0.10463 0.5874 0.0
H2152 H 0.68875 0.10327 0.55081 0.0
H2153 H 0.71703 0.13828 0.51856 0.0
H2154 H 0.70255 0.12824 0.4165 0.0
H2155 H 0.69718 0.12888 0.45248 0.0
H2156 H 0.70584 0.08508 0.48616 0.0
C2157 C 0.69963 0.1082 0.55745 0.0
C2158 C 0.71435 0.12667 0.51161 0.0
C2159 C 0.70086 0.10908 0.57825 0.0
C2160 C 0.70852 0.11946 0.42606 0.0
C2161 C 0.7055 0.1199 0.44661 0.0
C2162 C 0.70807 0.09678 0.49312 0.0
C2163 C 0.71229 0.11384 0.54534 0.0
C2164 C 0.71116 0.11288 0.52335 0.0
C2165 C 0.71343 0.10905 0.45951 0.0
C2166 C 0.71157 0.11052 0.4814 0.0
H2167 H 0.73862 0.1253 0.58182 0.0
H2168 H 0.7363 0.12427 0.54528 0.0
H2169 H 0.70529 0.08718 0.52275 0.0
H2170 H 0.73609 0.0886 0.42536 0.0
H2171 H 0.73047 0.08911 0.46122 0.0
C2172 C 0.88923 0.74116 0.41594 0.0
C2173 C 0.89344 0.7271 0.40531 0.0
C2174 C 0.89027 0.74135 0.43678 0.0
C2175 C 0.9085 0.72016 0.48015 0.0
H2176 H 0.87178 0.73815 0.50846 0.0
C2177 C 0.89795 0.71085 0.56497 0.0
C2178 C 0.89124 0.72392 0.57555 0.0
C2179 C 0.89946 0.71164 0.54418 0.0
C2180 C 0.88223 0.73326 0.50081 0.0
H2181 H 0.90367 0.70293 0.40742 0.0
H2182 H 0.9053 0.70308 0.44392 0.0
H2183 H 0.87251 0.73922 0.47217 0.0
H2184 H 0.88236 0.74862 0.57342 0.0
H2185 H 0.88493 0.75012 0.53708 0.0
H2186 H 0.91822 0.71426 0.5089 0.0
C2187 C 0.90097 0.71388 0.43635 0.0
C2188 C 0.88263 0.73386 0.47999 0.0
C2189 C 0.89983 0.71368 0.41553 0.0
C2190 C 0.88706 0.7382 0.56536 0.0
C2191 C 0.88849 0.73901 0.54461 0.0
C2192 C 0.90812 0.71962 0.50103 0.0
C2193 C 0.89587 0.72759 0.44724 0.0
C2194 C 0.89575 0.7273 0.46941 0.0
C2195 C 0.89444 0.72563 0.53374 0.0
C2196 C 0.89498 0.72619 0.51159 0.0
H2197 H 0.88472 0.7518 0.40818 0.0
H2198 H 0.88661 0.75224 0.44471 0.0
H2199 H 0.91886 0.71516 0.47244 0.0
H2200 H 0.90184 0.69996 0.57276 0.0
H2201 H 0.90409 0.70113 0.53627 0.0
C2202 C 0.30044 0.88586 0.57733 0.0
C2203 C 0.28608 0.88029 0.58605 0.0
C2204 C 0.30218 0.88594 0.55655 0.0
C2205 C 0.28742 0.86733 0.51068 0.0
H2206 H 0.29607 0.90883 0.48507 0.0
C2207 C 0.2899 0.87513 0.42478 0.0
C2208 C 0.27849 0.88652 0.41797 0.0
C2209 C 0.29394 0.87437 0.44506 0.0
C2210 C 0.29385 0.89714 0.49205 0.0
H2211 H 0.26204 0.87119 0.58035 0.0
H2212 H 0.26522 0.87081 0.54391 0.0
H2213 H 0.29726 0.90668 0.52159 0.0
H2214 H 0.263 0.90656 0.42677 0.0
H2215 H 0.27039 0.90549 0.46208 0.0
H2216 H 0.28368 0.85786 0.4812 0.0
C2217 C 0.27519 0.87488 0.5531 0.0
C2218 C 0.29459 0.8959 0.51286 0.0
C2219 C 0.27335 0.87513 0.57383 0.0
C2220 C 0.27178 0.89762 0.43162 0.0
C2221 C 0.27607 0.89708 0.45177 0.0
C2222 C 0.28697 0.8685 0.48986 0.0
C2223 C 0.28958 0.88037 0.5443 0.0
C2224 C 0.29097 0.88109 0.52233 0.0
C2225 C 0.28691 0.88524 0.45873 0.0
C2226 C 0.28977 0.88351 0.48042 0.0
H2227 H 0.31021 0.89035 0.58658 0.0
H2228 H 0.31333 0.89032 0.55005 0.0
H2229 H 0.28464 0.85579 0.51772 0.0
H2230 H 0.29518 0.86636 0.41461 0.0
H2231 H 0.30233 0.86514 0.45013 0.0
C2232 C 0.10081 0.70811 0.43244 0.0
C2233 C 0.10726 0.72127 0.42176 0.0
C2234 C 0.09984 0.70874 0.45329 0.0
C2235 C 0.11815 0.72992 0.4963 0.0
H2236 H 0.08141 0.71304 0.52557 0.0
C2237 C 0.11102 0.74043 0.58074 0.0
C2238 C 0.10643 0.72689 0.5921 0.0
C2239 C 0.11033 0.7398 0.5599 0.0
C2240 C 0.09182 0.71766 0.51761 0.0
H2241 H 0.1163 0.74591 0.42386 0.0
H2242 H 0.11473 0.74708 0.46031 0.0
H2243 H 0.08165 0.71165 0.48911 0.0
H2244 H 0.09597 0.70276 0.59117 0.0
H2245 H 0.0949 0.70148 0.55465 0.0
H2246 H 0.1283 0.73599 0.52469 0.0
C2247 C 0.11092 0.73606 0.45277 0.0
C2248 C 0.09196 0.71685 0.49674 0.0
C2249 C 0.11178 0.73544 0.43197 0.0
C2250 C 0.1001 0.71312 0.58253 0.0
C2251 C 0.09929 0.71249 0.5617 0.0
C2252 C 0.11799 0.73075 0.51712 0.0
C2253 C 0.10519 0.72262 0.4637 0.0
C2254 C 0.10509 0.72308 0.48586 0.0
C2255 C 0.10469 0.72572 0.55014 0.0
C2256 C 0.10479 0.72472 0.52801 0.0
H2257 H 0.09668 0.69731 0.42467 0.0
H2258 H 0.09535 0.6982 0.46127 0.0
H2259 H 0.12859 0.73453 0.48837 0.0
H2260 H 0.1155 0.75134 0.58797 0.0
H2261 H 0.11422 0.75032 0.55142 0.0
C2262 C 0.27232 0.12376 0.42178 0.0
C2263 C 0.28508 0.11795 0.41005 0.0
C2264 C 0.27355 0.12369 0.44258 0.0
C2265 C 0.29037 0.10135 0.48348 0.0
H2266 H 0.28248 0.14029 0.51488 0.0
C2267 C 0.26957 0.10193 0.56601 0.0
C2268 C 0.27798 0.11233 0.57904 0.0
C2269 C 0.2728 0.10214 0.54552 0.0
C2270 C 0.28485 0.12937 0.50627 0.0
H2271 H 0.30855 0.10642 0.41042 0.0
H2272 H 0.31058 0.10592 0.44708 0.0
H2273 H 0.28365 0.14212 0.47834 0.0
H2274 H 0.29649 0.13097 0.58087 0.0
H2275 H 0.3018 0.1316 0.54491 0.0
H2276 H 0.29081 0.08847 0.51138 0.0
C2277 C 0.29991 0.11103 0.44015 0.0
C2278 C 0.28545 0.13041 0.48546 0.0
C2279 C 0.29881 0.11142 0.41931 0.0
C2280 C 0.28988 0.12275 0.57121 0.0
C2281 C 0.29287 0.12318 0.55067 0.0
C2282 C 0.28945 0.10025 0.50429 0.0
C2283 C 0.28731 0.11724 0.45191 0.0
C2284 C 0.28806 0.11639 0.47391 0.0
C2285 C 0.28428 0.11297 0.53766 0.0
C2286 C 0.28653 0.11423 0.51582 0.0
H2287 H 0.26147 0.12844 0.41482 0.0
H2288 H 0.26359 0.12831 0.45139 0.0
H2289 H 0.2923 0.09037 0.47482 0.0
H2290 H 0.26036 0.09375 0.57161 0.0
H2291 H 0.26594 0.09424 0.53572 0.0
C2292 C 0.89853 0.28659 0.42903 0.0
C2293 C 0.8919 0.27327 0.41884 0.0
C2294 C 0.89955 0.28643 0.44988 0.0
C2295 C 0.88126 0.26641 0.49371 0.0
H2296 H 0.9183 0.28364 0.52208 0.0
C2297 C 0.88818 0.25831 0.57848 0.0
C2298 C 0.89302 0.27209 0.58923 0.0
C2299 C 0.88898 0.25827 0.55764 0.0
C2300 C 0.90781 0.27893 0.51436 0.0
H2301 H 0.88254 0.24881 0.42181 0.0
H2302 H 0.88422 0.24844 0.45827 0.0
H2303 H 0.91789 0.28413 0.48559 0.0
H2304 H 0.90409 0.29589 0.58727 0.0
H2305 H 0.9053 0.29604 0.55073 0.0
H2306 H 0.87117 0.26117 0.52236 0.0
C2307 C 0.88813 0.25925 0.45035 0.0
C2308 C 0.90757 0.27923 0.49348 0.0
C2309 C 0.88721 0.25941 0.42954 0.0
C2310 C 0.89976 0.28538 0.57908 0.0
C2311 C 0.90065 0.28535 0.55824 0.0
C2312 C 0.8815 0.26611 0.51454 0.0
C2313 C 0.89409 0.27285 0.46078 0.0
C2314 C 0.89432 0.27288 0.48293 0.0
C2315 C 0.89495 0.27191 0.54727 0.0
C2316 C 0.8948 0.27229 0.52511 0.0
H2317 H 0.90278 0.29715 0.42087 0.0
H2318 H 0.9042 0.29709 0.45747 0.0
H2319 H 0.87075 0.26168 0.48604 0.0
H2320 H 0.8834 0.24775 0.58618 0.0
H2321 H 0.88487 0.24758 0.54964 0.0
C2322 C 0.73396 0.90191 0.56902 0.0
C2323 C 0.7257 0.89059 0.58093 0.0
C2324 C 0.73169 0.90218 0.54836 0.0
C2325 C 0.70585 0.88578 0.50721 0.0
H2326 H 0.74425 0.89434 0.47588 0.0
C2327 C 0.70452 0.88898 0.42084 0.0
C2328 C 0.71801 0.88299 0.41058 0.0
C2329 C 0.70477 0.89027 0.44166 0.0
C2330 C 0.73343 0.89169 0.48435 0.0
H2331 H 0.70832 0.87087 0.58068 0.0
H2332 H 0.70482 0.87083 0.54454 0.0
H2333 H 0.7456 0.89587 0.51193 0.0
H2334 H 0.74249 0.87427 0.41348 0.0
H2335 H 0.74276 0.87564 0.4499 0.0
H2336 H 0.69395 0.88073 0.47953 0.0
C2337 C 0.71271 0.87987 0.55112 0.0
C2338 C 0.73412 0.8929 0.50511 0.0
C2339 C 0.71475 0.87983 0.57186 0.0
C2340 C 0.73187 0.87865 0.42125 0.0
C2341 C 0.73204 0.87963 0.44206 0.0
C2342 C 0.70522 0.88433 0.48639 0.0
C2343 C 0.72137 0.89086 0.53906 0.0
C2344 C 0.72035 0.88998 0.51686 0.0
C2345 C 0.71854 0.88559 0.45256 0.0
C2346 C 0.71903 0.88722 0.4747 0.0
H2347 H 0.74234 0.91048 0.57566 0.0
H2348 H 0.73822 0.91114 0.53967 0.0
H2349 H 0.69494 0.88363 0.5157 0.0
H2350 H 0.69391 0.89292 0.41271 0.0
H2351 H 0.69428 0.89522 0.44914 0.0
C2352 C 0.60647 0.79089 0.06429 0.0
C2353 C 0.61188 0.77729 0.07501 0.0
C2354 C 0.60617 0.79057 0.04342 0.0
C2355 C 0.6238 0.76885 0.00035 0.0
H2356 H 0.58755 0.78709 0.97135 0.0
C2357 C 0.6152 0.75872 0.91585 0.0
C2358 C 0.61113 0.77253 0.90467 0.0
C2359 C 0.61493 0.75933 0.93672 0.0
C2360 C 0.59783 0.78209 0.97924 0.0
H2361 H 0.61997 0.75232 0.07287 0.0
H2362 H 0.61956 0.75167 0.03633 0.0
H2363 H 0.588 0.78842 0.00777 0.0
H2364 H 0.6021 0.79722 0.90596 0.0
H2365 H 0.60171 0.79844 0.94247 0.0
H2366 H 0.63358 0.76243 0.97184 0.0
C2367 C 0.61604 0.76278 0.04391 0.0
C2368 C 0.5981 0.78287 9e-05 0.0
C2369 C 0.61623 0.7631 0.06475 0.0
C2370 C 0.60578 0.78661 0.91445 0.0
C2371 C 0.60538 0.78722 0.93528 0.0
C2372 C 0.62352 0.76804 0.97952 0.0
C2373 C 0.61112 0.77655 0.03301 0.0
C2374 C 0.61105 0.77618 0.01086 0.0
C2375 C 0.6102 0.77367 0.94664 0.0
C2376 C 0.6105 0.77458 0.96875 0.0
H2377 H 0.6025 0.80175 0.07207 0.0
H2378 H 0.60233 0.80137 0.03545 0.0
H2379 H 0.63408 0.76383 0.00823 0.0
H2380 H 0.61894 0.7476 0.90846 0.0
H2381 H 0.61839 0.7486 0.94508 0.0
C2382 C 0.23205 0.59695 0.92811 0.0
C2383 C 0.22366 0.6085 0.91667 0.0
C2384 C 0.23004 0.5963 0.94881 0.0
C2385 C 0.20443 0.61175 0.99075 0.0
H2386 H 0.24276 0.60193 0.02162 0.0
C2387 C 0.20298 0.60647 0.07697 0.0
C2388 C 0.21653 0.61202 0.08746 0.0
C2389 C 0.20326 0.6056 0.05611 0.0
C2390 C 0.23197 0.60492 0.0133 0.0
H2391 H 0.20639 0.6283 0.91785 0.0
H2392 H 0.20335 0.62766 0.95404 0.0
H2393 H 0.24407 0.60146 0.98552 0.0
H2394 H 0.24118 0.62031 0.08491 0.0
H2395 H 0.24153 0.6197 0.04848 0.0
H2396 H 0.19258 0.61609 0.01864 0.0
C2397 C 0.21114 0.61874 0.94706 0.0
C2398 C 0.23263 0.60433 0.99248 0.0
C2399 C 0.21292 0.61917 0.92628 0.0
C2400 C 0.23051 0.61629 0.07697 0.0
C2401 C 0.23072 0.61573 0.05613 0.0
C2402 C 0.20383 0.61259 0.01162 0.0
C2403 C 0.21984 0.60744 0.95864 0.0
C2404 C 0.21888 0.60772 0.98089 0.0
C2405 C 0.21714 0.61027 0.04539 0.0
C2406 C 0.21761 0.60923 0.02317 0.0
H2407 H 0.24028 0.58845 0.92106 0.0
H2408 H 0.23661 0.58713 0.9571 0.0
H2409 H 0.19352 0.61424 0.98238 0.0
H2410 H 0.19227 0.60258 0.08494 0.0
H2411 H 0.1927 0.601 0.04844 0.0
C2412 C 0.38313 0.23712 0.06472 0.0
C2413 C 0.38718 0.22257 0.07443 0.0
C2414 C 0.38434 0.23829 0.04397 0.0
C2415 C 0.40409 0.21987 0.0001 0.0
H2416 H 0.36885 0.24006 0.97115 0.0
C2417 C 0.39746 0.21591 0.91438 0.0
C2418 C 0.3912 0.2295 0.90439 0.0
C2419 C 0.39812 0.21565 0.93521 0.0
C2420 C 0.37888 0.23455 0.97901 0.0
H2421 H 0.39712 0.19841 0.07074 0.0
H2422 H 0.39906 0.20027 0.03428 0.0
H2423 H 0.36763 0.23818 0.00742 0.0
H2424 H 0.38217 0.25405 0.90776 0.0
H2425 H 0.38323 0.25369 0.94436 0.0
H2426 H 0.41531 0.21619 0.97165 0.0
C2427 C 0.3947 0.2107 0.04258 0.0
C2428 C 0.37817 0.23347 -0.0002 0.0
C2429 C 0.39338 0.20953 0.06335 0.0
C2430 C 0.38661 0.24328 0.91533 0.0
C2431 C 0.38717 0.24301 0.93619 0.0
C2432 C 0.40479 0.22095 0.97928 0.0
C2433 C 0.38998 0.22503 0.03266 0.0
C2434 C 0.39077 0.22613 0.01057 0.0
C2435 C 0.39267 0.22907 0.94637 0.0
C2436 C 0.39219 0.22829 0.96851 0.0
H2437 H 0.37878 0.24748 0.07318 0.0
H2438 H 0.38095 0.24961 0.0368 0.0
H2439 H 0.41409 0.21434 0.00801 0.0
H2440 H 0.40158 0.20538 0.90606 0.0
H2441 H 0.40237 0.20471 0.94256 0.0
C2442 C 0.79715 0.38699 0.07669 0.0
C2443 C 0.78312 0.38125 0.08607 0.0
C2444 C 0.79811 0.38743 0.05585 0.0
C2445 C 0.78251 0.36862 0.01086 0.0
H2446 H 0.79118 0.40965 0.98415 0.0
C2447 C 0.78874 0.37452 0.92506 0.0
C2448 C 0.77756 0.38548 0.91677 0.0
C2449 C 0.7915 0.37429 0.94567 0.0
C2450 C 0.78889 0.39811 0.99147 0.0
H2451 H 0.75887 0.3723 0.08152 0.0
H2452 H 0.76073 0.37249 0.0449 0.0
H2453 H 0.79201 0.40822 0.02079 0.0
H2454 H 0.76105 0.40525 0.92338 0.0
H2455 H 0.76623 0.40511 0.95936 0.0
H2456 H 0.77932 0.3585 0.9816 0.0
C2457 C 0.771 0.37648 0.05364 0.0
C2458 C 0.78942 0.39728 0.01232 0.0
C2459 C 0.76992 0.37638 0.07446 0.0
C2460 C 0.76969 0.39664 0.92937 0.0
C2461 C 0.7727 0.39663 0.9499 0.0
C2462 C 0.78231 0.36937 0.99001 0.0
C2463 C 0.78509 0.38204 0.04418 0.0
C2464 C 0.78593 0.38259 0.02216 0.0
C2465 C 0.78339 0.38525 0.95825 0.0
C2466 C 0.78522 0.38418 0.98017 0.0
H2467 H 0.80728 0.39125 0.0855 0.0
H2468 H 0.80906 0.39183 0.04884 0.0
H2469 H 0.77981 0.35717 0.01817 0.0
H2470 H 0.79491 0.36571 0.91573 0.0
H2471 H 0.79981 0.36543 0.95182 0.0
C2472 C 0.59953 0.21422 0.07988 0.0
C2473 C 0.60566 0.2277 0.09023 0.0
C2474 C 0.59814 0.21464 0.0591 0.0
C2475 C 0.61547 0.23524 0.01548 0.0
H2476 H 0.57953 0.21568 0.98717 0.0
C2477 C 0.61057 0.23905 0.93012 0.0
C2478 C 0.60627 0.22467 0.9202 0.0
C2479 C 0.60915 0.24011 0.95085 0.0
C2480 C 0.58972 0.22105 0.99487 0.0
H2481 H 0.61375 0.25264 0.08769 0.0
H2482 H 0.61149 0.25343 0.05117 0.0
H2483 H 0.57938 0.21643 0.02365 0.0
H2484 H 0.59544 0.20086 0.9234 0.0
H2485 H 0.59326 0.20245 0.95985 0.0
H2486 H 0.62598 0.23961 0.98684 0.0
C2487 C 0.60816 0.24238 0.05898 0.0
C2488 C 0.58962 0.2215 0.01574 0.0
C2489 C 0.60943 0.24198 0.0798 0.0
C2490 C 0.59942 0.2118 0.931 0.0
C2491 C 0.59794 0.21284 0.95176 0.0
C2492 C 0.61561 0.23472 0.99466 0.0
C2493 C 0.60275 0.22862 0.0484 0.0
C2494 C 0.60251 0.22859 0.02626 0.0
C2495 C 0.60312 0.2269 0.96195 0.0
C2496 C 0.60274 0.22762 0.9841 0.0
H2497 H 0.59606 0.20328 0.08785 0.0
H2498 H 0.59399 0.20383 0.05139 0.0
H2499 H 0.62568 0.24057 0.02315 0.0
H2500 H 0.61537 0.24932 0.92187 0.0
H2501 H 0.61282 0.25127 0.95819 0.0
C2502 C 0.76641 0.59562 0.06665 0.0
C2503 C 0.77411 0.60744 0.07841 0.0
C2504 C 0.76861 0.59533 0.04598 0.0
C2505 C 0.79337 0.61254 0.00437 0.0
H2506 H 0.75513 0.60201 0.97363 0.0
C2507 C 0.79421 0.60751 0.91802 0.0
C2508 C 0.78047 0.61286 0.90773 0.0
C2509 C 0.79418 0.60674 0.9389 0.0
C2510 C 0.76589 0.60521 0.98192 0.0
H2511 H 0.79049 0.62801 0.07786 0.0
H2512 H 0.79389 0.62794 0.04166 0.0
H2513 H 0.75409 0.60094 0.00973 0.0
H2514 H 0.75578 0.62092 0.91067 0.0
H2515 H 0.75583 0.62038 0.94713 0.0
H2516 H 0.80491 0.61758 0.97643 0.0
C2517 C 0.78647 0.61859 0.0484 0.0
C2518 C 0.76539 0.60427 0.00272 0.0
C2519 C 0.78449 0.61867 0.06917 0.0
C2520 C 0.76659 0.61705 0.91845 0.0
C2521 C 0.76661 0.61655 0.93929 0.0
C2522 C 0.79382 0.61368 0.9835 0.0
C2523 C 0.77829 0.6071 0.03649 0.0
C2524 C 0.77912 0.60787 0.01426 0.0
C2525 C 0.78036 0.61125 0.94982 0.0
C2526 C 0.78006 0.61005 0.97202 0.0
H2527 H 0.75849 0.58667 0.07341 0.0
H2528 H 0.76249 0.586 0.03741 0.0
H2529 H 0.80424 0.61525 0.01271 0.0
H2530 H 0.80487 0.6037 0.9099 0.0
H2531 H 0.80487 0.60229 0.94642 0.0
C2532 C 0.38425 0.75875 0.92901 0.0
C2533 C 0.38791 0.77351 0.91956 0.0
C2534 C 0.3856 0.75735 0.94972 0.0
C2535 C 0.40451 0.7763 0.99405 0.0
H2536 H 0.36968 0.75487 0.02241 0.0
C2537 C 0.39491 0.78241 0.07897 0.0
C2538 C 0.38923 0.76878 0.0894 0.0
C2539 C 0.39632 0.78196 0.05821 0.0
C2540 C 0.37959 0.76072 0.01471 0.0
H2541 H 0.39739 0.79782 0.92361 0.0
H2542 H 0.39947 0.79561 0.95999 0.0
H2543 H 0.369 0.75631 0.9861 0.0
H2544 H 0.382 0.74355 0.08702 0.0
H2545 H 0.3843 0.74269 0.05048 0.0
H2546 H 0.41495 0.78094 0.02275 0.0
C2547 C 0.39535 0.78515 0.95155 0.0
C2548 C 0.37921 0.76154 0.99389 0.0
C2549 C 0.39393 0.78654 0.93083 0.0
C2550 C 0.38597 0.75432 0.07905 0.0
C2551 C 0.38726 0.75387 0.05824 0.0
C2552 C 0.40485 0.77554 0.01489 0.0
C2553 C 0.39096 0.77061 0.96125 0.0
C2554 C 0.39163 0.76939 0.98334 0.0
C2555 C 0.39219 0.76779 0.04758 0.0
C2556 C 0.39234 0.76783 0.02544 0.0
H2557 H 0.38007 0.7484 0.92039 0.0
H2558 H 0.38249 0.74587 0.9567 0.0
H2559 H 0.41439 0.78221 0.98633 0.0
H2560 H 0.39798 0.79351 0.08686 0.0
H2561 H 0.40007 0.79289 0.05045 0.0
C2562 C 0.20038 0.38741 0.91995 0.0
C2563 C 0.2143 0.38176 0.91026 0.0
C2564 C 0.19972 0.38788 0.94081 0.0
C2565 C 0.216 0.36929 0.98551 0.0
H2566 H 0.2076 0.41038 0.01224 0.0
C2567 C 0.20938 0.37532 0.07123 0.0
C2568 C 0.22057 0.38617 0.07972 0.0
C2569 C 0.20688 0.37508 0.05058 0.0
C2570 C 0.20984 0.39883 0.00492 0.0
H2571 H 0.23868 0.37297 0.91429 0.0
H2572 H 0.23735 0.3732 0.95094 0.0
H2573 H 0.20645 0.40888 0.97561 0.0
H2574 H 0.23742 0.40571 0.07338 0.0
H2575 H 0.23266 0.40558 0.03728 0.0
H2576 H 0.21937 0.35921 0.01476 0.0
C2577 C 0.22693 0.3771 0.94243 0.0
C2578 C 0.20912 0.39796 0.98407 0.0
C2579 C 0.2277 0.37697 0.92158 0.0
C2580 C 0.22875 0.39719 0.06724 0.0
C2581 C 0.22599 0.39718 0.04664 0.0
C2582 C 0.21637 0.37007 0.00635 0.0
C2583 C 0.21296 0.38261 0.95219 0.0
C2584 C 0.21245 0.38324 0.97422 0.0
C2585 C 0.21525 0.38592 0.03813 0.0
C2586 C 0.21354 0.3849 0.01619 0.0
H2587 H 0.1901 0.39161 0.91137 0.0
H2588 H 0.18886 0.39223 0.94806 0.0
H2589 H 0.21859 0.35782 0.97819 0.0
H2590 H 0.20298 0.36661 0.08044 0.0
H2591 H 0.19852 0.36632 0.04429 0.0
C2592 C 0.1856 0.37334 0.20336 0.0
C2593 C 0.18151 0.37144 0.18313 0.0
C2594 C 0.17461 0.36925 0.21829 0.0
C2595 C 0.14295 0.34032 0.2276 0.0
H2596 H 0.13839 0.36397 0.27746 0.0
C2597 C 0.11497 0.30984 0.29683 0.0
C2598 C 0.12377 0.31208 0.3146 0.0
C2599 C 0.11798 0.31961 0.28013 0.0
C2600 C 0.13954 0.35721 0.26364 0.0
H2601 H 0.16251 0.36444 0.16258 0.0
H2602 H 0.14331 0.35688 0.18888 0.0
H2603 H 0.15106 0.37719 0.24878 0.0
H2604 H 0.14223 0.32678 0.32892 0.0
H2605 H 0.14776 0.34341 0.29979 0.0
H2606 H 0.13244 0.31999 0.24267 0.0
C2607 C 0.15501 0.36166 0.19308 0.0
C2608 C 0.14671 0.36481 0.24721 0.0
C2609 C 0.16596 0.366 0.17808 0.0
C2610 C 0.13523 0.32468 0.31549 0.0
C2611 C 0.1383 0.33435 0.29879 0.0
C2612 C 0.13592 0.33265 0.24407 0.0
C2613 C 0.15936 0.36298 0.21331 0.0
C2614 C 0.14895 0.35625 0.22926 0.0
C2615 C 0.1299 0.33178 0.2808 0.0
C2616 C 0.13465 0.34083 0.26249 0.0
H2617 H 0.19747 0.37759 0.20767 0.0
H2618 H 0.17835 0.37021 0.23376 0.0
H2619 H 0.14468 0.33338 0.21399 0.0
H2620 H 0.10591 0.30038 0.29569 0.0
H2621 H 0.11113 0.31746 0.2666 0.0
C2622 C 0.62266 0.18639 0.19781 0.0
C2623 C 0.62867 0.1839 0.17837 0.0
C2624 C 0.62745 0.17625 0.21351 0.0
C2625 C 0.66215 0.1519 0.22775 0.0
H2626 H 0.63525 0.1365 0.27125 0.0
C2627 C 0.69093 0.11746 0.29206 0.0
C2628 C 0.68626 0.12222 0.31133 0.0
C2629 C 0.68165 0.12179 0.27554 0.0
C2630 C 0.64291 0.14079 0.25925 0.0
H2631 H 0.64356 0.16808 0.16 0.0
H2632 H 0.65187 0.15049 0.18736 0.0
H2633 H 0.62285 0.15028 0.24261 0.0
H2634 H 0.66783 0.13438 0.32874 0.0
H2635 H 0.65186 0.14264 0.29973 0.0
H2636 H 0.68225 0.14322 0.24442 0.0
C2637 C 0.64366 0.16044 0.19048 0.0
C2638 C 0.63582 0.14863 0.24287 0.0
C2639 C 0.63888 0.17053 0.17481 0.0
C2640 C 0.67165 0.13057 0.31398 0.0
C2641 C 0.66249 0.13523 0.29735 0.0
C2642 C 0.66923 0.14423 0.24409 0.0
C2643 C 0.63835 0.16345 0.21007 0.0
C2644 C 0.64541 0.15429 0.227 0.0
C2645 C 0.66771 0.13136 0.27789 0.0
C2646 C 0.65974 0.1386 0.26008 0.0
H2647 H 0.61469 0.1965 0.20107 0.0
H2648 H 0.62324 0.1789 0.22849 0.0
H2649 H 0.6699 0.15646 0.21597 0.0
H2650 H 0.70204 0.11077 0.28969 0.0
H2651 H 0.68576 0.11816 0.26084 0.0
C2652 C 0.82562 0.63251 0.1797 0.0
C2653 C 0.81148 0.62352 0.18305 0.0
C2654 C 0.8351 0.63757 0.19588 0.0
C2655 C 0.82973 0.64609 0.24956 0.0
H2656 H 0.8759 0.65362 0.24921 0.0
C2657 C 0.86129 0.6711 0.31865 0.0
C2658 C 0.87101 0.68489 0.31544 0.0
C2659 C 0.85635 0.66145 0.30263 0.0
C2660 C 0.863 0.65157 0.24945 0.0
H2661 H 0.79693 0.61138 0.20542 0.0
H2662 H 0.81379 0.61944 0.23345 0.0
H2663 H 0.86312 0.63993 0.22073 0.0
H2664 H 0.88399 0.69873 0.29292 0.0
H2665 H 0.87518 0.68187 0.26488 0.0
H2666 H 0.82949 0.65776 0.27805 0.0
C2667 C 0.81726 0.62328 0.21857 0.0
C2668 C 0.85567 0.64378 0.23316 0.0
C2669 C 0.80765 0.61855 0.20252 0.0
C2670 C 0.87641 0.68826 0.29592 0.0
C2671 C 0.87146 0.67856 0.27986 0.0
C2672 C 0.83703 0.6537 0.26579 0.0
C2673 C 0.83068 0.63347 0.21558 0.0
C2674 C 0.83892 0.64098 0.23304 0.0
C2675 C 0.86101 0.66534 0.28302 0.0
C2676 C 0.85371 0.65656 0.26592 0.0
H2677 H 0.82877 0.6365 0.16477 0.0
H2678 H 0.84533 0.64544 0.19302 0.0
H2679 H 0.81674 0.64463 0.24978 0.0
H2680 H 0.8571 0.66795 0.33349 0.0
H2681 H 0.84852 0.65116 0.30553 0.0
C2682 C 0.37127 0.81166 0.19566 0.0
C2683 C 0.36479 0.81322 0.17631 0.0
C2684 C 0.36619 0.82199 0.21104 0.0
C2685 C 0.33052 0.84482 0.22535 0.0
H2686 H 0.35755 0.86331 0.26688 0.0
C2687 C 0.30146 0.8794 0.28957 0.0
C2688 C 0.3071 0.87562 0.30877 0.0
C2689 C 0.31041 0.8751 0.27275 0.0
C2690 C 0.34984 0.85815 0.25544 0.0
H2691 H 0.3487 0.82763 0.15771 0.0
H2692 H 0.3399 0.84551 0.18452 0.0
H2693 H 0.37001 0.84928 0.23849 0.0
H2694 H 0.32689 0.86521 0.32564 0.0
H2695 H 0.3423 0.85704 0.29621 0.0
H2696 H 0.31037 0.85285 0.24241 0.0
C2697 C 0.34871 0.83614 0.18783 0.0
C2698 C 0.35698 0.85017 0.2392 0.0
C2699 C 0.35378 0.82588 0.17248 0.0
C2700 C 0.32229 0.86828 0.31095 0.0
C2701 C 0.33114 0.86367 0.29407 0.0
C2702 C 0.32341 0.85262 0.24158 0.0
C2703 C 0.35455 0.83404 0.20736 0.0
C2704 C 0.34735 0.84338 0.22406 0.0
C2705 C 0.32504 0.86656 0.27476 0.0
C2706 C 0.33294 0.85933 0.2569 0.0
H2707 H 0.37985 0.80212 0.19912 0.0
H2708 H 0.37083 0.82005 0.226 0.0
H2709 H 0.32278 0.8394 0.21413 0.0
H2710 H 0.28988 0.8853 0.28752 0.0
H2711 H 0.30558 0.87797 0.25813 0.0
C2712 C 0.16671 0.63166 0.82074 0.0
C2713 C 0.1819 0.62556 0.81517 0.0
C2714 C 0.15567 0.63656 0.8061 0.0
C2715 C 0.14631 0.63409 0.75212 0.0
H2716 H 0.13418 0.6795 0.75726 0.0
C2717 C 0.13607 0.67502 0.68432 0.0
C2718 C 0.1249 0.68788 0.68528 0.0
C2719 C 0.139 0.66528 0.701 0.0
C2720 C 0.13707 0.6667 0.75571 0.0
H2721 H 0.19706 0.6188 0.7901 0.0
H2722 H 0.17778 0.62712 0.76466 0.0
H2723 H 0.14612 0.66538 0.78563 0.0
H2724 H 0.10752 0.70009 0.7044 0.0
H2725 H 0.11257 0.68294 0.7335 0.0
H2726 H 0.13774 0.63551 0.72202 0.0
C2727 C 0.17438 0.62819 0.78025 0.0
C2728 C 0.14392 0.65861 0.772 0.0
C2729 C 0.18548 0.62355 0.79481 0.0
C2730 C 0.11633 0.6904 0.70317 0.0
C2731 C 0.11924 0.6806 0.71988 0.0
C2732 C 0.13935 0.64213 0.73588 0.0
C2733 C 0.15955 0.63514 0.78572 0.0
C2734 C 0.14917 0.64243 0.7701 0.0
C2735 C 0.13077 0.66807 0.71906 0.0
C2736 C 0.13525 0.65871 0.73725 0.0
H2737 H 0.16368 0.63334 0.83635 0.0
H2738 H 0.14428 0.64186 0.81069 0.0
H2739 H 0.15006 0.62153 0.75037 0.0
H2740 H 0.14288 0.67267 0.67081 0.0
H2741 H 0.14817 0.65594 0.69991 0.0
C2742 C 0.3116 0.12373 0.70355 0.0
C2743 C 0.31594 0.12515 0.68335 0.0
C2744 C 0.32247 0.12806 0.71854 0.0
C2745 C 0.3543 0.157 0.72716 0.0
H2746 H 0.35784 0.13498 0.77825 0.0
C2747 C 0.38187 0.18925 0.7955 0.0
C2748 C 0.37279 0.18772 0.81317 0.0
C2749 C 0.37888 0.17905 0.77918 0.0
C2750 C 0.35698 0.14129 0.76407 0.0
H2751 H 0.33526 0.13147 0.66292 0.0
H2752 H 0.35423 0.13939 0.68927 0.0
H2753 H 0.34542 0.12097 0.74997 0.0
H2754 H 0.35381 0.17385 0.8277 0.0
H2755 H 0.34835 0.15647 0.79923 0.0
H2756 H 0.36488 0.17767 0.74143 0.0
C2757 C 0.34243 0.13484 0.69343 0.0
C2758 C 0.34994 0.13323 0.74789 0.0
C2759 C 0.33161 0.13027 0.6784 0.0
C2760 C 0.36103 0.17542 0.81435 0.0
C2761 C 0.358 0.16531 0.79803 0.0
C2762 C 0.3612 0.16512 0.74338 0.0
C2763 C 0.33782 0.13408 0.71362 0.0
C2764 C 0.34807 0.14121 0.72947 0.0
C2765 C 0.36672 0.16714 0.78015 0.0
C2766 C 0.36211 0.15755 0.76221 0.0
H2767 H 0.29963 0.11973 0.7078 0.0
H2768 H 0.31852 0.12752 0.73397 0.0
H2769 H 0.35287 0.1635 0.71318 0.0
H2770 H 0.39115 0.19847 0.79414 0.0
H2771 H 0.38596 0.18063 0.76572 0.0
C2772 C 0.862 0.32575 0.67971 0.0
C2773 C 0.87389 0.31357 0.68071 0.0
C2774 C 0.85859 0.3354 0.69633 0.0
C2775 C 0.8611 0.33412 0.75107 0.0
H2776 H 0.84436 0.37804 0.74603 0.0
C2777 C 0.83065 0.36699 0.8171 0.0
C2778 C 0.81489 0.37195 0.8123 0.0
C2779 C 0.84152 0.36284 0.80195 0.0
C2780 C 0.84915 0.36584 0.74768 0.0
H2781 H 0.89215 0.30263 0.69971 0.0
H2782 H 0.88635 0.31969 0.72865 0.0
H2783 H 0.85738 0.36511 0.71739 0.0
H2784 H 0.79845 0.37743 0.788 0.0
H2785 H 0.81744 0.37037 0.76162 0.0
H2786 H 0.85248 0.33475 0.78121 0.0
C2787 C 0.87943 0.32151 0.7151 0.0
C2788 C 0.85652 0.35839 0.73129 0.0
C2789 C 0.88277 0.31175 0.69849 0.0
C2790 C 0.81049 0.37355 0.79214 0.0
C2791 C 0.82141 0.36964 0.77703 0.0
C2792 C 0.85388 0.34164 0.76751 0.0
C2793 C 0.86708 0.33324 0.71434 0.0
C2794 C 0.86202 0.34222 0.73258 0.0
C2795 C 0.83688 0.36386 0.78179 0.0
C2796 C 0.84732 0.35734 0.76574 0.0
H2797 H 0.85492 0.32752 0.66628 0.0
H2798 H 0.84882 0.34411 0.69526 0.0
H2799 H 0.86504 0.32161 0.75258 0.0
H2800 H 0.83435 0.36566 0.83254 0.0
H2801 H 0.85341 0.35846 0.80598 0.0
C2802 C 0.68998 0.87712 0.70416 0.0
C2803 C 0.68594 0.87583 0.68385 0.0
C2804 C 0.67886 0.8728 0.71885 0.0
C2805 C 0.64691 0.84392 0.7266 0.0
H2806 H 0.64303 0.86564 0.77785 0.0
C2807 C 0.61968 0.81114 0.79486 0.0
C2808 C 0.62894 0.8126 0.8124 0.0
C2809 C 0.62249 0.82143 0.77857 0.0
C2810 C 0.64397 0.85943 0.76362 0.0
H2811 H 0.66689 0.86975 0.66292 0.0
H2812 H 0.64747 0.8618 0.68878 0.0
H2813 H 0.65547 0.87989 0.74977 0.0
H2814 H 0.64805 0.82643 0.82674 0.0
H2815 H 0.65317 0.84397 0.79834 0.0
H2816 H 0.63641 0.8231 0.74066 0.0
C2817 C 0.65923 0.86627 0.69324 0.0
C2818 C 0.65101 0.86762 0.74755 0.0
C2819 C 0.67031 0.87085 0.67849 0.0
C2820 C 0.64071 0.82489 0.81348 0.0
C2821 C 0.64354 0.83511 0.79722 0.0
C2822 C 0.63999 0.83568 0.74271 0.0
C2823 C 0.66355 0.8669 0.71353 0.0
C2824 C 0.65306 0.85973 0.7291 0.0
C2825 C 0.63462 0.83338 0.77948 0.0
C2826 C 0.63901 0.84313 0.7616 0.0
H2827 H 0.70192 0.88102 0.7087 0.0
H2828 H 0.68259 0.87323 0.73437 0.0
H2829 H 0.64847 0.8375 0.71259 0.0
H2830 H 0.6104 0.80192 0.79358 0.0
H2831 H 0.6153 0.8199 0.76519 0.0
C2832 C 0.87442 0.68795 0.68601 0.0
C2833 C 0.86656 0.68507 0.66771 0.0
C2834 C 0.86957 0.67988 0.70333 0.0
C2835 C 0.84621 0.645 0.72277 0.0
H2836 H 0.84051 0.6731 0.76883 0.0
C2837 C 0.82839 0.64254 0.81239 0.0
C2838 C 0.81475 0.63239 0.81159 0.0
C2839 C 0.83627 0.64723 0.79488 0.0
C2840 C 0.8423 0.66499 0.75626 0.0
H2841 H 0.8479 0.6708 0.65317 0.0
H2842 H 0.83934 0.65678 0.68356 0.0
H2843 H 0.85147 0.68427 0.7381 0.0
H2844 H 0.7991 0.61868 0.79174 0.0
H2845 H 0.81266 0.62714 0.76117 0.0
H2846 H 0.83687 0.62573 0.741 0.0
C2847 C 0.84932 0.66527 0.6844 0.0
C2848 C 0.84856 0.67141 0.73861 0.0
C2849 C 0.85418 0.67337 0.66701 0.0
C2850 C 0.80957 0.62651 0.79291 0.0
C2851 C 0.8174 0.6313 0.77536 0.0
C2852 C 0.83999 0.63853 0.74052 0.0
C2853 C 0.85674 0.66872 0.70281 0.0
C2854 C 0.85055 0.66153 0.72165 0.0
C2855 C 0.83064 0.64199 0.77612 0.0
C2856 C 0.83791 0.64848 0.75745 0.0
H2857 H 0.88415 0.69672 0.68712 0.0
H2858 H 0.87572 0.68256 0.71723 0.0
H2859 H 0.84774 0.63707 0.70997 0.0
H2860 H 0.83285 0.64711 0.82655 0.0
H2861 H 0.84666 0.65518 0.79603 0.0
C2862 C 0.35311 0.82952 0.83294 0.0
C2863 C 0.36428 0.81676 0.83059 0.0
C2864 C 0.34845 0.83896 0.81653 0.0
C2865 C 0.33195 0.8471 0.7773 0.0
H2866 H 0.36112 0.85782 0.73391 0.0
C2867 C 0.30901 0.87487 0.70351 0.0
C2868 C 0.31449 0.86681 0.68624 0.0
C2869 C 0.31633 0.87202 0.72199 0.0
C2870 C 0.35285 0.85492 0.74593 0.0
H2871 H 0.37983 0.80444 0.80926 0.0
H2872 H 0.37151 0.82065 0.78077 0.0
H2873 H 0.37195 0.84724 0.76528 0.0
H2874 H 0.33246 0.85 0.67475 0.0
H2875 H 0.34512 0.84498 0.70696 0.0
H2876 H 0.31283 0.85436 0.75778 0.0
C2877 C 0.36648 0.82352 0.79529 0.0
C2878 C 0.35903 0.84885 0.76386 0.0
C2879 C 0.37115 0.81411 0.81165 0.0
C2880 C 0.32785 0.85633 0.68775 0.0
C2881 C 0.33521 0.85356 0.7062 0.0
C2882 C 0.32578 0.85322 0.7594 0.0
C2883 C 0.35486 0.83585 0.79746 0.0
C2884 C 0.34861 0.84447 0.77956 0.0
C2885 C 0.32936 0.86116 0.72356 0.0
C2886 C 0.33613 0.8568 0.74335 0.0
H2887 H 0.34768 0.83201 0.84734 0.0
H2888 H 0.33963 0.84852 0.81873 0.0
H2889 H 0.32357 0.84365 0.78898 0.0
H2890 H 0.2988 0.88309 0.70289 0.0
H2891 H 0.31167 0.87816 0.73511 0.0
C2892 C 0.14053 0.32755 0.66686 0.0
C2893 C 0.13072 0.31366 0.66872 0.0
C2894 C 0.145 0.33649 0.68374 0.0
C2895 C 0.16225 0.34446 0.72245 0.0
H2896 H 0.13397 0.35067 0.76801 0.0
C2897 C 0.18514 0.37365 0.79527 0.0
C2898 C 0.18128 0.36504 0.81282 0.0
C2899 C 0.17738 0.37006 0.77728 0.0
C2900 C 0.14201 0.34899 0.7554 0.0
H2901 H 0.11739 0.2987 0.6898 0.0
H2902 H 0.1254 0.3141 0.71916 0.0
H2903 H 0.12306 0.33972 0.73687 0.0
H2904 H 0.16564 0.34641 0.82531 0.0
H2905 H 0.15225 0.34008 0.7939 0.0
H2906 H 0.18126 0.35336 0.74107 0.0
C2907 C 0.12949 0.31821 0.70464 0.0
C2908 C 0.13577 0.34272 0.73759 0.0
C2909 C 0.12499 0.3093 0.68777 0.0
C2910 C 0.169 0.35323 0.81209 0.0
C2911 C 0.16122 0.34968 0.7941 0.0
C2912 C 0.16847 0.35076 0.74022 0.0
C2913 C 0.13978 0.33174 0.70286 0.0
C2914 C 0.14589 0.34008 0.72104 0.0
C2915 C 0.16553 0.35784 0.77643 0.0
C2916 C 0.15848 0.35281 0.75701 0.0
H2917 H 0.14504 0.33138 0.6524 0.0
H2918 H 0.15275 0.34701 0.68185 0.0
H2919 H 0.17044 0.34235 0.7101 0.0
H2920 H 0.19445 0.38291 0.79528 0.0
H2921 H 0.1808 0.3767 0.76395 0.0
C2922 C 0.68946 0.12879 0.7033 0.0
C2923 C 0.68329 0.1339 0.68475 0.0
C2924 C 0.68161 0.13298 0.72107 0.0
C2925 C 0.65416 0.16436 0.74049 0.0
H2926 H 0.65211 0.13664 0.78738 0.0
C2927 C 0.62212 0.18585 0.81129 0.0
C2928 C 0.6307 0.18397 0.82928 0.0
C2929 C 0.627 0.1777 0.79404 0.0
C2930 C 0.65267 0.14451 0.77441 0.0
H2931 H 0.66347 0.14652 0.67027 0.0
H2932 H 0.64967 0.15354 0.70116 0.0
H2933 H 0.66334 0.12594 0.75618 0.0
H2934 H 0.65065 0.17131 0.84345 0.0
H2935 H 0.65929 0.15722 0.81315 0.0
H2936 H 0.64374 0.18298 0.75861 0.0
C2937 C 0.66081 0.14669 0.70203 0.0
C2938 C 0.6591 0.13841 0.75657 0.0
C2939 C 0.6687 0.14261 0.68431 0.0
C2940 C 0.6438 0.17309 0.82983 0.0
C2941 C 0.64872 0.16495 0.8125 0.0
C2942 C 0.64772 0.17042 0.75822 0.0
C2943 C 0.66737 0.14228 0.72063 0.0
C2944 C 0.65995 0.1483 0.73943 0.0
C2945 C 0.6406 0.16751 0.79432 0.0
C2946 C 0.64693 0.1606 0.77539 0.0
H2947 H 0.70068 0.12205 0.70418 0.0
H2948 H 0.68705 0.12949 0.73515 0.0
H2949 H 0.65498 0.17244 0.72774 0.0
H2950 H 0.61182 0.19393 0.81036 0.0
H2951 H 0.62031 0.17965 0.78034 0.0
C2952 C 0.83181 0.35966 0.18254 0.0
C2953 C 0.81539 0.36372 0.18325 0.0
C2954 C 0.84014 0.35577 0.20006 0.0
C2955 C 0.8359 0.35481 0.25605 0.0
H2956 H 0.86804 0.32084 0.25098 0.0
C2957 C 0.86509 0.32574 0.32585 0.0
C2958 C 0.86836 0.30899 0.32489 0.0
C2959 C 0.86084 0.33434 0.30859 0.0
C2960 C 0.85896 0.33019 0.25276 0.0
H2961 H 0.79478 0.3671 0.2027 0.0
H2962 H 0.80889 0.35933 0.23303 0.0
H2963 H 0.85599 0.3322 0.22126 0.0
H2964 H 0.86963 0.28804 0.30526 0.0
H2965 H 0.86139 0.30266 0.27553 0.0
H2966 H 0.83785 0.35173 0.28762 0.0
C2967 C 0.81568 0.35979 0.21922 0.0
C2968 C 0.85224 0.33702 0.23558 0.0
C2969 C 0.8075 0.36414 0.20179 0.0
C2970 C 0.86737 0.301 0.3064 0.0
C2971 C 0.86276 0.30948 0.28927 0.0
C2972 C 0.84232 0.34768 0.27326 0.0
C2973 C 0.8321 0.35534 0.2186 0.0
C2974 C 0.8404 0.34925 0.23694 0.0
C2975 C 0.85939 0.32628 0.29008 0.0
C2976 C 0.85372 0.33503 0.27186 0.0
H2977 H 0.83821 0.35945 0.16843 0.0
H2978 H 0.85285 0.3529 0.19893 0.0
H2979 H 0.82715 0.36449 0.25781 0.0
H2980 H 0.8659 0.33222 0.33993 0.0
H2981 H 0.85868 0.3473 0.30981 0.0
C2982 C 0.64284 0.82564 0.17082 0.0
C2983 C 0.63088 0.81348 0.17044 0.0
C2984 C 0.64684 0.83343 0.18872 0.0
C2985 C 0.64655 0.82566 0.24248 0.0
H2986 H 0.65774 0.87138 0.24684 0.0
C2987 C 0.6866 0.86905 0.29711 0.0
C2988 C 0.682 0.86273 0.3158 0.0
C2989 C 0.67822 0.86471 0.2798 0.0
C2990 C 0.65473 0.85857 0.24582 0.0
H2991 H 0.61312 0.80069 0.18846 0.0
H2992 H 0.62009 0.81433 0.21955 0.0
H2993 H 0.64688 0.86085 0.21541 0.0
H2994 H 0.6644 0.8476 0.33106 0.0
H2995 H 0.64964 0.84027 0.30091 0.0
H2996 H 0.65482 0.82317 0.27254 0.0
C2997 C 0.62654 0.81762 0.20606 0.0
C2998 C 0.6485 0.85256 0.22785 0.0
C2999 C 0.62252 0.80985 0.18819 0.0
C3000 C 0.66841 0.85252 0.31688 0.0
C3001 C 0.65997 0.84827 0.29959 0.0
C3002 C 0.65283 0.83163 0.26038 0.0
C3003 C 0.63897 0.82922 0.2066 0.0
C3004 C 0.6445 0.83601 0.22595 0.0
C3005 C 0.66499 0.85404 0.2808 0.0
C3006 C 0.65715 0.84812 0.26221 0.0
H3007 H 0.64948 0.8288 0.15742 0.0
H3008 H 0.65656 0.84225 0.1887 0.0
H3009 H 0.64386 0.81278 0.24138 0.0
H3010 H 0.69701 0.87694 0.29571 0.0
H3011 H 0.68252 0.86924 0.26556 0.0
C3012 C 0.1428 0.67241 0.32813 0.0
C3013 C 0.13077 0.6845 0.32782 0.0
C3014 C 0.14743 0.66455 0.31048 0.0
C3015 C 0.1484 0.67163 0.25643 0.0
H3016 H 0.15855 0.62561 0.25301 0.0
C3017 C 0.18636 0.62626 0.20165 0.0
C3018 C 0.18154 0.63249 0.183 0.0
C3019 C 0.17852 0.6311 0.21916 0.0
C3020 C 0.15586 0.6385 0.25378 0.0
H3021 H 0.11364 0.69718 0.30877 0.0
H3022 H 0.12167 0.68345 0.27819 0.0
H3023 H 0.14796 0.63682 0.28423 0.0
H3024 H 0.16407 0.64797 0.16804 0.0
H3025 H 0.15025 0.65615 0.19852 0.0
H3026 H 0.15662 0.6735 0.22628 0.0
C3027 C 0.12771 0.68025 0.29201 0.0
C3028 C 0.1498 0.64491 0.27164 0.0
C3029 C 0.12307 0.68808 0.3096 0.0
C3030 C 0.16825 0.6431 0.18218 0.0
C3031 C 0.16036 0.64785 0.19967 0.0
C3032 C 0.1545 0.66526 0.23865 0.0
C3033 C 0.14014 0.66864 0.29218 0.0
C3034 C 0.14605 0.66155 0.27315 0.0
C3035 C 0.16563 0.6422 0.2184 0.0
C3036 C 0.15837 0.64865 0.23711 0.0
H3037 H 0.14895 0.6693 0.34189 0.0
H3038 H 0.15712 0.65572 0.31105 0.0
H3039 H 0.14593 0.68456 0.25724 0.0
H3040 H 0.19656 0.61807 0.20286 0.0
H3041 H 0.18299 0.62663 0.23335 0.0
C3042 C 0.32854 0.14219 0.30895 0.0
C3043 C 0.31525 0.13162 0.31042 0.0
C3044 C 0.33588 0.14507 0.2905 0.0
C3045 C 0.32637 0.14521 0.23722 0.0
H3046 H 0.37242 0.15195 0.23119 0.0
C3047 C 0.35331 0.16799 0.16304 0.0
C3048 C 0.36429 0.18096 0.16495 0.0
C3049 C 0.34878 0.15885 0.17975 0.0
C3050 C 0.35953 0.15013 0.23265 0.0
H3051 H 0.29971 0.11523 0.2937 0.0
H3052 H 0.31257 0.12029 0.26154 0.0
H3053 H 0.3618 0.14148 0.26272 0.0
H3054 H 0.37965 0.19398 0.18587 0.0
H3055 H 0.37156 0.17827 0.2149 0.0
H3056 H 0.32398 0.15439 0.20748 0.0
C3057 C 0.31717 0.12647 0.27466 0.0
C3058 C 0.35346 0.14413 0.25069 0.0
C3059 C 0.30985 0.12354 0.29312 0.0
C3060 C 0.37112 0.18413 0.1838 0.0
C3061 C 0.36658 0.17502 0.20047 0.0
C3062 C 0.33242 0.15124 0.21921 0.0
C3063 C 0.33009 0.13747 0.27311 0.0
C3064 C 0.33678 0.14194 0.2533 0.0
C3065 C 0.35514 0.16247 0.19872 0.0
C3066 C 0.34903 0.15411 0.21688 0.0
H3067 H 0.33309 0.14856 0.32196 0.0
H3068 H 0.34571 0.15374 0.28977 0.0
H3069 H 0.31344 0.14384 0.23884 0.0
H3070 H 0.34792 0.1651 0.14872 0.0
H3071 H 0.3401 0.14911 0.17787 0.0
loop_
_geom_bond_atom_site_label_1
_geom_bond_atom_site_label_2
_geom_bond_distance
_geom_bond_site_symmetry_2
_ccdc_geom_bond_type
Mn0 O5 2.095 . S
Mn0 O15 2.162 . S
Mn0 O16 2.297 . S
Mn0 O24 2.385 . S
Mn0 O25 2.209 . S
Mn0 O26 2.094 . S
Mn1 O6 2.121 . S
Mn1 N8 2.257 . S
Mn1 N17 2.282 . S
Mn1 O25 2.215 . S
Mn1 O27 2.117 . S
C2 O24 1.234 . S
C2 O25 1.283 . S
C3 O15 1.281 . S
C3 O16 1.236 . S
C4 O26 1.240 . S
C4 O27 1.264 . S
O5 Mn0 2.095 . S
O5 C14 1.250 . S
O6 Mn1 2.121 . S
O6 C14 1.258 . S
C7 N8 1.326 . S
C7 C11 1.460 . S
C7 H13 0.929 . S
N8 Mn1 2.257 . S
N8 C7 1.326 . S
N8 C12 1.362 . S
C9 C10 1.258 . S
C9 C12 1.431 . S
C9 C29 1.449 . S
C10 C9 1.258 . S
C10 C11 1.477 . S
C10 H30 0.931 . S
C11 C7 1.460 . S
C11 C10 1.477 . S
C11 H31 0.930 . S
C12 N8 1.362 . S
C12 C9 1.431 . S
C12 C22 1.476 . S
H13 C7 0.929 . S
C14 O5 1.250 . S
C14 O6 1.258 . S
O15 Mn0 2.162 . S
O15 C3 1.281 . S
O16 Mn0 2.297 . S
O16 C3 1.236 . S
N17 Mn1 2.282 . S
N17 C18 1.328 . S
N17 C22 1.318 . S
C18 N17 1.328 . S
C18 C19 1.457 . S
C18 H23 0.929 . S
C19 C18 1.457 . S
C19 C20 1.291 . S
C19 H32 0.931 . S
C20 C19 1.291 . S
C20 C21 1.373 . S
C20 H33 0.929 . S
C21 C20 1.373 . S
C21 C22 1.396 . S
C21 C28 1.403 . S
C22 C12 1.476 . S
C22 N17 1.318 . S
C22 C21 1.396 . S
H23 C18 0.929 . S
O24 Mn0 2.385 . S
O24 C2 1.234 . S
O25 Mn0 2.209 . S
O25 Mn1 2.215 . S
O25 C2 1.283 . S
O26 Mn0 2.094 . S
O26 C4 1.240 . S
O27 Mn1 2.117 . S
O27 C4 1.264 . S
C28 C21 1.403 . S
C28 C29 1.399 . S
C28 H34 0.929 . S
C29 C9 1.449 . S
C29 C28 1.399 . S
C29 H35 0.930 . S
H30 C10 0.931 . S
H31 C11 0.930 . S
H32 C19 0.931 . S
H33 C20 0.929 . S
H34 C28 0.929 . S
H35 C29 0.930 . S
Mn36 O41 2.095 . S
Mn36 O51 2.162 . S
Mn36 O52 2.297 . S
Mn36 O60 2.385 . S
Mn36 O61 2.209 . S
Mn36 O62 2.094 . S
Mn37 O42 2.121 . S
Mn37 N44 2.257 . S
Mn37 N53 2.282 . S
Mn37 O61 2.215 . S
Mn37 O63 2.117 . S
C38 O60 1.234 . S
C38 O61 1.283 . S
C39 O51 1.281 . S
C39 O52 1.236 . S
C40 O62 1.240 . S
C40 O63 1.264 . S
O41 Mn36 2.095 . S
O41 C50 1.250 . S
O42 Mn37 2.121 . S
O42 C50 1.258 . S
C43 N44 1.326 . S
C43 C47 1.460 . S
C43 H49 0.929 . S
N44 Mn37 2.257 . S
N44 C43 1.326 . S
N44 C48 1.362 . S
C45 C46 1.258 . S
C45 C48 1.431 . S
C45 C65 1.449 . S
C46 C45 1.258 . S
C46 C47 1.477 . S
C46 H66 0.931 . S
C47 C43 1.460 . S
C47 C46 1.477 . S
C47 H67 0.930 . S
C48 N44 1.362 . S
C48 C45 1.431 . S
C48 C58 1.476 . S
H49 C43 0.929 . S
C50 O41 1.250 . S
C50 O42 1.258 . S
O51 Mn36 2.162 . S
O51 C39 1.281 . S
O52 Mn36 2.297 . S
O52 C39 1.236 . S
N53 Mn37 2.282 . S
N53 C54 1.328 . S
N53 C58 1.318 . S
C54 N53 1.328 . S
C54 C55 1.457 . S
C54 H59 0.929 . S
C55 C54 1.457 . S
C55 C56 1.291 . S
C55 H68 0.931 . S
C56 C55 1.291 . S
C56 C57 1.373 . S
C56 H69 0.929 . S
C57 C56 1.373 . S
C57 C58 1.396 . S
C57 C64 1.403 . S
C58 C48 1.476 . S
C58 N53 1.318 . S
C58 C57 1.396 . S
H59 C54 0.929 . S
O60 Mn36 2.385 . S
O60 C38 1.234 . S
O61 Mn36 2.209 . S
O61 Mn37 2.215 . S
O61 C38 1.283 . S
O62 Mn36 2.094 . S
O62 C40 1.240 . S
O63 Mn37 2.117 . S
O63 C40 1.264 . S
C64 C57 1.403 . S
C64 C65 1.399 . S
C64 H70 0.929 . S
C65 C45 1.449 . S
C65 C64 1.399 . S
C65 H71 0.930 . S
H66 C46 0.931 . S
H67 C47 0.930 . S
H68 C55 0.931 . S
H69 C56 0.929 . S
H70 C64 0.929 . S
H71 C65 0.930 . S
Mn72 O77 2.095 . S
Mn72 O87 2.162 . S
Mn72 O88 2.297 . S
Mn72 O96 2.385 . S
Mn72 O97 2.209 . S
Mn72 O98 2.094 . S
Mn73 O78 2.121 . S
Mn73 N80 2.257 . S
Mn73 N89 2.282 . S
Mn73 O97 2.215 . S
Mn73 O99 2.117 . S
C74 O96 1.234 . S
C74 O97 1.283 . S
C75 O87 1.281 . S
C75 O88 1.236 . S
C76 O98 1.240 . S
C76 O99 1.264 . S
O77 Mn72 2.095 . S
O77 C86 1.250 . S
O78 Mn73 2.121 . S
O78 C86 1.258 . S
C79 N80 1.326 . S
C79 C83 1.460 . S
C79 H85 0.929 . S
N80 Mn73 2.257 . S
N80 C79 1.326 . S
N80 C84 1.362 . S
C81 C82 1.258 . S
C81 C84 1.431 . S
C81 C101 1.449 . S
C82 C81 1.258 . S
C82 C83 1.477 . S
C82 H102 0.931 . S
C83 C79 1.460 . S
C83 C82 1.477 . S
C83 H103 0.930 . S
C84 N80 1.362 . S
C84 C81 1.431 . S
C84 C94 1.476 . S
H85 C79 0.929 . S
C86 O77 1.250 . S
C86 O78 1.258 . S
O87 Mn72 2.162 . S
O87 C75 1.281 . S
O88 Mn72 2.297 . S
O88 C75 1.236 . S
N89 Mn73 2.282 . S
N89 C90 1.328 . S
N89 C94 1.318 . S
C90 N89 1.328 . S
C90 C91 1.457 . S
C90 H95 0.929 . S
C91 C90 1.457 . S
C91 C92 1.291 . S
C91 H104 0.931 . S
C92 C91 1.291 . S
C92 C93 1.373 . S
C92 H105 0.929 . S
C93 C92 1.373 . S
C93 C94 1.396 . S
C93 C100 1.403 . S
C94 C84 1.476 . S
C94 N89 1.318 . S
C94 C93 1.396 . S
H95 C90 0.929 . S
O96 Mn72 2.385 . S
O96 C74 1.234 . S
O97 Mn72 2.209 . S
O97 Mn73 2.215 . S
O97 C74 1.283 . S
O98 Mn72 2.094 . S
O98 C76 1.240 . S
O99 Mn73 2.117 . S
O99 C76 1.264 . S
C100 C93 1.403 . S
C100 C101 1.399 . S
C100 H106 0.929 . S
C101 C81 1.449 . S
C101 C100 1.399 . S
C101 H107 0.930 . S
H102 C82 0.931 . S
H103 C83 0.930 . S
H104 C91 0.931 . S
H105 C92 0.929 . S
H106 C100 0.929 . S
H107 C101 0.930 . S
Mn108 O113 2.095 . S
Mn108 O123 2.162 . S
Mn108 O124 2.297 . S
Mn108 O132 2.385 . S
Mn108 O133 2.209 . S
Mn108 O134 2.094 . S
Mn109 O114 2.121 . S
Mn109 N116 2.257 . S
Mn109 N125 2.282 . S
Mn109 O133 2.215 . S
Mn109 O135 2.117 . S
C110 O132 1.234 . S
C110 O133 1.283 . S
C111 O123 1.281 . S
C111 O124 1.236 . S
C112 O134 1.240 . S
C112 O135 1.264 . S
O113 Mn108 2.095 . S
O113 C122 1.250 . S
O114 Mn109 2.121 . S
O114 C122 1.258 . S
C115 N116 1.326 . S
C115 C119 1.460 . S
C115 H121 0.929 . S
N116 Mn109 2.257 . S
N116 C115 1.326 . S
N116 C120 1.362 . S
C117 C118 1.258 . S
C117 C120 1.431 . S
C117 C137 1.449 . S
C118 C117 1.258 . S
C118 C119 1.477 . S
C118 H138 0.931 . S
C119 C115 1.460 . S
C119 C118 1.477 . S
C119 H139 0.930 . S
C120 N116 1.362 . S
C120 C117 1.431 . S
C120 C130 1.476 . S
H121 C115 0.929 . S
C122 O113 1.250 . S
C122 O114 1.258 . S
O123 Mn108 2.162 . S
O123 C111 1.281 . S
O124 Mn108 2.297 . S
O124 C111 1.236 . S
N125 Mn109 2.282 . S
N125 C126 1.328 . S
N125 C130 1.318 . S
C126 N125 1.328 . S
C126 C127 1.457 . S
C126 H131 0.929 . S
C127 C126 1.457 . S
C127 C128 1.291 . S
C127 H140 0.931 . S
C128 C127 1.291 . S
C128 C129 1.373 . S
C128 H141 0.929 . S
C129 C128 1.373 . S
C129 C130 1.396 . S
C129 C136 1.403 . S
C130 C120 1.476 . S
C130 N125 1.318 . S
C130 C129 1.396 . S
H131 C126 0.929 . S
O132 Mn108 2.385 . S
O132 C110 1.234 . S
O133 Mn108 2.209 . S
O133 Mn109 2.215 . S
O133 C110 1.283 . S
O134 Mn108 2.094 . S
O134 C112 1.240 . S
O135 Mn109 2.117 . S
O135 C112 1.264 . S
C136 C129 1.403 . S
C136 C137 1.399 . S
C136 H142 0.929 . S
C137 C117 1.449 . S
C137 C136 1.399 . S
C137 H143 0.930 . S
H138 C118 0.931 . S
H139 C119 0.930 . S
H140 C127 0.931 . S
H141 C128 0.929 . S
H142 C136 0.929 . S
H143 C137 0.930 . S
Mn144 O149 2.095 . S
Mn144 O159 2.162 . S
Mn144 O160 2.297 . S
Mn144 O168 2.385 . S
Mn144 O169 2.209 . S
Mn144 O170 2.094 . S
Mn145 O150 2.121 . S
Mn145 N152 2.257 . S
Mn145 N161 2.282 . S
Mn145 O169 2.215 . S
Mn145 O171 2.117 . S
C146 O168 1.234 . S
C146 O169 1.283 . S
C147 O159 1.281 . S
C147 O160 1.236 . S
C148 O170 1.240 . S
C148 O171 1.264 . S
O149 Mn144 2.095 . S
O149 C158 1.250 . S
O150 Mn145 2.121 . S
O150 C158 1.258 . S
C151 N152 1.326 . S
C151 C155 1.460 . S
C151 H157 0.929 . S
N152 Mn145 2.257 . S
N152 C151 1.326 . S
N152 C156 1.362 . S
C153 C154 1.258 . S
C153 C156 1.431 . S
C153 C173 1.449 . S
C154 C153 1.258 . S
C154 C155 1.477 . S
C154 H174 0.931 . S
C155 C151 1.460 . S
C155 C154 1.477 . S
C155 H175 0.930 . S
C156 N152 1.362 . S
C156 C153 1.431 . S
C156 C166 1.476 . S
H157 C151 0.929 . S
C158 O149 1.250 . S
C158 O150 1.258 . S
O159 Mn144 2.162 . S
O159 C147 1.281 . S
O160 Mn144 2.297 . S
O160 C147 1.236 . S
N161 Mn145 2.282 . S
N161 C162 1.328 . S
N161 C166 1.318 . S
C162 N161 1.328 . S
C162 C163 1.457 . S
C162 H167 0.929 . S
C163 C162 1.457 . S
C163 C164 1.291 . S
C163 H176 0.931 . S
C164 C163 1.291 . S
C164 C165 1.373 . S
C164 H177 0.929 . S
C165 C164 1.373 . S
C165 C166 1.396 . S
C165 C172 1.403 . S
C166 C156 1.476 . S
C166 N161 1.318 . S
C166 C165 1.396 . S
H167 C162 0.929 . S
O168 Mn144 2.385 . S
O168 C146 1.234 . S
O169 Mn144 2.209 . S
O169 Mn145 2.215 . S
O169 C146 1.283 . S
O170 Mn144 2.094 . S
O170 C148 1.240 . S
O171 Mn145 2.117 . S
O171 C148 1.264 . S
C172 C165 1.403 . S
C172 C173 1.399 . S
C172 H178 0.929 . S
C173 C153 1.449 . S
C173 C172 1.399 . S
C173 H179 0.930 . S
H174 C154 0.931 . S
H175 C155 0.930 . S
H176 C163 0.931 . S
H177 C164 0.929 . S
H178 C172 0.929 . S
H179 C173 0.930 . S
Mn180 O185 2.095 . S
Mn180 O195 2.162 . S
Mn180 O196 2.297 . S
Mn180 O204 2.385 . S
Mn180 O205 2.209 . S
Mn180 O206 2.094 . S
Mn181 O186 2.121 . S
Mn181 N188 2.257 . S
Mn181 N197 2.282 . S
Mn181 O205 2.215 . S
Mn181 O207 2.117 . S
C182 O204 1.234 . S
C182 O205 1.283 . S
C183 O195 1.281 . S
C183 O196 1.236 . S
C184 O206 1.240 . S
C184 O207 1.264 . S
O185 Mn180 2.095 . S
O185 C194 1.250 . S
O186 Mn181 2.121 . S
O186 C194 1.258 . S
C187 N188 1.326 . S
C187 C191 1.460 . S
C187 H193 0.929 . S
N188 Mn181 2.257 . S
N188 C187 1.326 . S
N188 C192 1.362 . S
C189 C190 1.258 . S
C189 C192 1.431 . S
C189 C209 1.449 . S
C190 C189 1.258 . S
C190 C191 1.477 . S
C190 H210 0.931 . S
C191 C187 1.460 . S
C191 C190 1.477 . S
C191 H211 0.930 . S
C192 N188 1.362 . S
C192 C189 1.431 . S
C192 C202 1.476 . S
H193 C187 0.929 . S
C194 O185 1.250 . S
C194 O186 1.258 . S
O195 Mn180 2.162 . S
O195 C183 1.281 . S
O196 Mn180 2.297 . S
O196 C183 1.236 . S
N197 Mn181 2.282 . S
N197 C198 1.328 . S
N197 C202 1.318 . S
C198 N197 1.328 . S
C198 C199 1.457 . S
C198 H203 0.929 . S
C199 C198 1.457 . S
C199 C200 1.291 . S
C199 H212 0.931 . S
C200 C199 1.291 . S
C200 C201 1.373 . S
C200 H213 0.929 . S
C201 C200 1.373 . S
C201 C202 1.396 . S
C201 C208 1.403 . S
C202 C192 1.476 . S
C202 N197 1.318 . S
C202 C201 1.396 . S
H203 C198 0.929 . S
O204 Mn180 2.385 . S
O204 C182 1.234 . S
O205 Mn180 2.209 . S
O205 Mn181 2.215 . S
O205 C182 1.283 . S
O206 Mn180 2.094 . S
O206 C184 1.240 . S
O207 Mn181 2.117 . S
O207 C184 1.264 . S
C208 C201 1.403 . S
C208 C209 1.399 . S
C208 H214 0.929 . S
C209 C189 1.449 . S
C209 C208 1.399 . S
C209 H215 0.930 . S
H210 C190 0.931 . S
H211 C191 0.930 . S
H212 C199 0.931 . S
H213 C200 0.929 . S
H214 C208 0.929 . S
H215 C209 0.930 . S
Mn216 O221 2.095 . S
Mn216 O231 2.162 . S
Mn216 O232 2.297 . S
Mn216 O240 2.385 . S
Mn216 O241 2.209 . S
Mn216 O242 2.094 . S
Mn217 O222 2.121 . S
Mn217 N224 2.257 . S
Mn217 N233 2.282 . S
Mn217 O241 2.215 . S
Mn217 O243 2.117 . S
C218 O240 1.234 . S
C218 O241 1.283 . S
C219 O231 1.281 . S
C219 O232 1.236 . S
C220 O242 1.240 . S
C220 O243 1.264 . S
O221 Mn216 2.095 . S
O221 C230 1.250 . S
O222 Mn217 2.121 . S
O222 C230 1.258 . S
C223 N224 1.326 . S
C223 C227 1.460 . S
C223 H229 0.929 . S
N224 Mn217 2.257 . S
N224 C223 1.326 . S
N224 C228 1.362 . S
C225 C226 1.258 . S
C225 C228 1.431 . S
C225 C245 1.449 . S
C226 C225 1.258 . S
C226 C227 1.477 . S
C226 H246 0.931 . S
C227 C223 1.460 . S
C227 C226 1.477 . S
C227 H247 0.930 . S
C228 N224 1.362 . S
C228 C225 1.431 . S
C228 C238 1.476 . S
H229 C223 0.929 . S
C230 O221 1.250 . S
C230 O222 1.258 . S
O231 Mn216 2.162 . S
O231 C219 1.281 . S
O232 Mn216 2.297 . S
O232 C219 1.236 . S
N233 Mn217 2.282 . S
N233 C234 1.328 . S
N233 C238 1.318 . S
C234 N233 1.328 . S
C234 C235 1.457 . S
C234 H239 0.929 . S
C235 C234 1.457 . S
C235 C236 1.291 . S
C235 H248 0.931 . S
C236 C235 1.291 . S
C236 C237 1.373 . S
C236 H249 0.929 . S
C237 C236 1.373 . S
C237 C238 1.396 . S
C237 C244 1.403 . S
C238 C228 1.476 . S
C238 N233 1.318 . S
C238 C237 1.396 . S
H239 C234 0.929 . S
O240 Mn216 2.385 . S
O240 C218 1.234 . S
O241 Mn216 2.209 . S
O241 Mn217 2.215 . S
O241 C218 1.283 . S
O242 Mn216 2.094 . S
O242 C220 1.240 . S
O243 Mn217 2.117 . S
O243 C220 1.264 . S
C244 C237 1.403 . S
C244 C245 1.399 . S
C244 H250 0.929 . S
C245 C225 1.449 . S
C245 C244 1.399 . S
C245 H251 0.930 . S
H246 C226 0.931 . S
H247 C227 0.930 . S
H248 C235 0.931 . S
H249 C236 0.929 . S
H250 C244 0.929 . S
H251 C245 0.930 . S
Mn252 O257 2.095 . S
Mn252 O267 2.162 . S
Mn252 O268 2.297 . S
Mn252 O276 2.385 . S
Mn252 O277 2.209 . S
Mn252 O278 2.094 . S
Mn253 O258 2.121 . S
Mn253 N260 2.257 . S
Mn253 N269 2.282 . S
Mn253 O277 2.215 . S
Mn253 O279 2.117 . S
C254 O276 1.234 . S
C254 O277 1.283 . S
C255 O267 1.281 . S
C255 O268 1.236 . S
C256 O278 1.240 . S
C256 O279 1.264 . S
O257 Mn252 2.095 . S
O257 C266 1.250 . S
O258 Mn253 2.121 . S
O258 C266 1.258 . S
C259 N260 1.326 . S
C259 C263 1.460 . S
C259 H265 0.929 . S
N260 Mn253 2.257 . S
N260 C259 1.326 . S
N260 C264 1.362 . S
C261 C262 1.258 . S
C261 C264 1.431 . S
C261 C281 1.449 . S
C262 C261 1.258 . S
C262 C263 1.477 . S
C262 H282 0.931 . S
C263 C259 1.460 . S
C263 C262 1.477 . S
C263 H283 0.930 . S
C264 N260 1.362 . S
C264 C261 1.431 . S
C264 C274 1.476 . S
H265 C259 0.929 . S
C266 O257 1.250 . S
C266 O258 1.258 . S
O267 Mn252 2.162 . S
O267 C255 1.281 . S
O268 Mn252 2.297 . S
O268 C255 1.236 . S
N269 Mn253 2.282 . S
N269 C270 1.328 . S
N269 C274 1.318 . S
C270 N269 1.328 . S
C270 C271 1.457 . S
C270 H275 0.929 . S
C271 C270 1.457 . S
C271 C272 1.291 . S
C271 H284 0.931 . S
C272 C271 1.291 . S
C272 C273 1.373 . S
C272 H285 0.929 . S
C273 C272 1.373 . S
C273 C274 1.396 . S
C273 C280 1.403 . S
C274 C264 1.476 . S
C274 N269 1.318 . S
C274 C273 1.396 . S
H275 C270 0.929 . S
O276 Mn252 2.385 . S
O276 C254 1.234 . S
O277 Mn252 2.209 . S
O277 Mn253 2.215 . S
O277 C254 1.283 . S
O278 Mn252 2.094 . S
O278 C256 1.240 . S
O279 Mn253 2.117 . S
O279 C256 1.264 . S
C280 C273 1.403 . S
C280 C281 1.399 . S
C280 H286 0.929 . S
C281 C261 1.449 . S
C281 C280 1.399 . S
C281 H287 0.930 . S
H282 C262 0.931 . S
H283 C263 0.930 . S
H284 C271 0.931 . S
H285 C272 0.929 . S
H286 C280 0.929 . S
H287 C281 0.930 . S
Mn288 O293 2.095 . S
Mn288 O303 2.162 . S
Mn288 O304 2.297 . S
Mn288 O312 2.385 . S
Mn288 O313 2.209 . S
Mn288 O314 2.094 . S
Mn289 O294 2.121 . S
Mn289 N296 2.257 . S
Mn289 N305 2.282 . S
Mn289 O313 2.215 . S
Mn289 O315 2.117 . S
C290 O312 1.234 . S
C290 O313 1.283 . S
C291 O303 1.281 . S
C291 O304 1.236 . S
C292 O314 1.240 . S
C292 O315 1.264 . S
O293 Mn288 2.095 . S
O293 C302 1.250 . S
O294 Mn289 2.121 . S
O294 C302 1.258 . S
C295 N296 1.326 . S
C295 C299 1.460 . S
C295 H301 0.929 . S
N296 Mn289 2.257 . S
N296 C295 1.326 . S
N296 C300 1.362 . S
C297 C298 1.258 . S
C297 C300 1.431 . S
C297 C317 1.449 . S
C298 C297 1.258 . S
C298 C299 1.477 . S
C298 H318 0.931 . S
C299 C295 1.460 . S
C299 C298 1.477 . S
C299 H319 0.930 . S
C300 N296 1.362 . S
C300 C297 1.431 . S
C300 C310 1.476 . S
H301 C295 0.929 . S
C302 O293 1.250 . S
C302 O294 1.258 . S
O303 Mn288 2.162 . S
O303 C291 1.281 . S
O304 Mn288 2.297 . S
O304 C291 1.236 . S
N305 Mn289 2.282 . S
N305 C306 1.328 . S
N305 C310 1.318 . S
C306 N305 1.328 . S
C306 C307 1.457 . S
C306 H311 0.929 . S
C307 C306 1.457 . S
C307 C308 1.291 . S
C307 H320 0.931 . S
C308 C307 1.291 . S
C308 C309 1.373 . S
C308 H321 0.929 . S
C309 C308 1.373 . S
C309 C310 1.396 . S
C309 C316 1.403 . S
C310 C300 1.476 . S
C310 N305 1.318 . S
C310 C309 1.396 . S
H311 C306 0.929 . S
O312 Mn288 2.385 . S
O312 C290 1.234 . S
O313 Mn288 2.209 . S
O313 Mn289 2.215 . S
O313 C290 1.283 . S
O314 Mn288 2.094 . S
O314 C292 1.240 . S
O315 Mn289 2.117 . S
O315 C292 1.264 . S
C316 C309 1.403 . S
C316 C317 1.399 . S
C316 H322 0.929 . S
C317 C297 1.449 . S
C317 C316 1.399 . S
C317 H323 0.930 . S
H318 C298 0.931 . S
H319 C299 0.930 . S
H320 C307 0.931 . S
H321 C308 0.929 . S
H322 C316 0.929 . S
H323 C317 0.930 . S
Mn324 O329 2.095 . S
Mn324 O339 2.162 . S
Mn324 O340 2.297 . S
Mn324 O348 2.385 . S
Mn324 O349 2.209 . S
Mn324 O350 2.094 . S
Mn325 O330 2.121 . S
Mn325 N332 2.257 . S
Mn325 N341 2.282 . S
Mn325 O349 2.215 . S
Mn325 O351 2.117 . S
C326 O348 1.234 . S
C326 O349 1.283 . S
C327 O339 1.281 . S
C327 O340 1.236 . S
C328 O350 1.240 . S
C328 O351 1.264 . S
O329 Mn324 2.095 . S
O329 C338 1.250 . S
O330 Mn325 2.121 . S
O330 C338 1.258 . S
C331 N332 1.326 . S
C331 C335 1.460 . S
C331 H337 0.929 . S
N332 Mn325 2.257 . S
N332 C331 1.326 . S
N332 C336 1.362 . S
C333 C334 1.258 . S
C333 C336 1.431 . S
C333 C353 1.449 . S
C334 C333 1.258 . S
C334 C335 1.477 . S
C334 H354 0.931 . S
C335 C331 1.460 . S
C335 C334 1.477 . S
C335 H355 0.930 . S
C336 N332 1.362 . S
C336 C333 1.431 . S
C336 C346 1.476 . S
H337 C331 0.929 . S
C338 O329 1.250 . S
C338 O330 1.258 . S
O339 Mn324 2.162 . S
O339 C327 1.281 . S
O340 Mn324 2.297 . S
O340 C327 1.236 . S
N341 Mn325 2.282 . S
N341 C342 1.328 . S
N341 C346 1.318 . S
C342 N341 1.328 . S
C342 C343 1.457 . S
C342 H347 0.929 . S
C343 C342 1.457 . S
C343 C344 1.291 . S
C343 H356 0.931 . S
C344 C343 1.291 . S
C344 C345 1.373 . S
C344 H357 0.929 . S
C345 C344 1.373 . S
C345 C346 1.396 . S
C345 C352 1.403 . S
C346 C336 1.476 . S
C346 N341 1.318 . S
C346 C345 1.396 . S
H347 C342 0.929 . S
O348 Mn324 2.385 . S
O348 C326 1.234 . S
O349 Mn324 2.209 . S
O349 Mn325 2.215 . S
O349 C326 1.283 . S
O350 Mn324 2.094 . S
O350 C328 1.240 . S
O351 Mn325 2.117 . S
O351 C328 1.264 . S
C352 C345 1.403 . S
C352 C353 1.399 . S
C352 H358 0.929 . S
C353 C333 1.449 . S
C353 C352 1.399 . S
C353 H359 0.930 . S
H354 C334 0.931 . S
H355 C335 0.930 . S
H356 C343 0.931 . S
H357 C344 0.929 . S
H358 C352 0.929 . S
H359 C353 0.930 . S
Mn360 O365 2.095 . S
Mn360 O375 2.162 . S
Mn360 O376 2.297 . S
Mn360 O384 2.385 . S
Mn360 O385 2.209 . S
Mn360 O386 2.094 . S
Mn361 O366 2.121 . S
Mn361 N368 2.257 . S
Mn361 N377 2.282 . S
Mn361 O385 2.215 . S
Mn361 O387 2.117 . S
C362 O384 1.234 . S
C362 O385 1.283 . S
C363 O375 1.281 . S
C363 O376 1.236 . S
C364 O386 1.240 . S
C364 O387 1.264 . S
O365 Mn360 2.095 . S
O365 C374 1.250 . S
O366 Mn361 2.121 . S
O366 C374 1.258 . S
C367 N368 1.326 . S
C367 C371 1.460 . S
C367 H373 0.929 . S
N368 Mn361 2.257 . S
N368 C367 1.326 . S
N368 C372 1.362 . S
C369 C370 1.258 . S
C369 C372 1.431 . S
C369 C389 1.449 . S
C370 C369 1.258 . S
C370 C371 1.477 . S
C370 H390 0.931 . S
C371 C367 1.460 . S
C371 C370 1.477 . S
C371 H391 0.930 . S
C372 N368 1.362 . S
C372 C369 1.431 . S
C372 C382 1.476 . S
H373 C367 0.929 . S
C374 O365 1.250 . S
C374 O366 1.258 . S
O375 Mn360 2.162 . S
O375 C363 1.281 . S
O376 Mn360 2.297 . S
O376 C363 1.236 . S
N377 Mn361 2.282 . S
N377 C378 1.328 . S
N377 C382 1.318 . S
C378 N377 1.328 . S
C378 C379 1.457 . S
C378 H383 0.929 . S
C379 C378 1.457 . S
C379 C380 1.291 . S
C379 H392 0.931 . S
C380 C379 1.291 . S
C380 C381 1.373 . S
C380 H393 0.929 . S
C381 C380 1.373 . S
C381 C382 1.396 . S
C381 C388 1.403 . S
C382 C372 1.476 . S
C382 N377 1.318 . S
C382 C381 1.396 . S
H383 C378 0.929 . S
O384 Mn360 2.385 . S
O384 C362 1.234 . S
O385 Mn360 2.209 . S
O385 Mn361 2.215 . S
O385 C362 1.283 . S
O386 Mn360 2.094 . S
O386 C364 1.240 . S
O387 Mn361 2.117 . S
O387 C364 1.264 . S
C388 C381 1.403 . S
C388 C389 1.399 . S
C388 H394 0.929 . S
C389 C369 1.449 . S
C389 C388 1.399 . S
C389 H395 0.930 . S
H390 C370 0.931 . S
H391 C371 0.930 . S
H392 C379 0.931 . S
H393 C380 0.929 . S
H394 C388 0.929 . S
H395 C389 0.930 . S
Mn396 O401 2.095 . S
Mn396 O411 2.162 . S
Mn396 O412 2.297 . S
Mn396 O420 2.385 . S
Mn396 O421 2.209 . S
Mn396 O422 2.094 . S
Mn397 O402 2.121 . S
Mn397 N404 2.257 . S
Mn397 N413 2.282 . S
Mn397 O421 2.215 . S
Mn397 O423 2.117 . S
C398 O420 1.234 . S
C398 O421 1.283 . S
C399 O411 1.281 . S
C399 O412 1.236 . S
C400 O422 1.240 . S
C400 O423 1.264 . S
O401 Mn396 2.095 . S
O401 C410 1.250 . S
O402 Mn397 2.121 . S
O402 C410 1.258 . S
C403 N404 1.326 . S
C403 C407 1.460 . S
C403 H409 0.929 . S
N404 Mn397 2.257 . S
N404 C403 1.326 . S
N404 C408 1.362 . S
C405 C406 1.258 . S
C405 C408 1.431 . S
C405 C425 1.449 . S
C406 C405 1.258 . S
C406 C407 1.477 . S
C406 H426 0.931 . S
C407 C403 1.460 . S
C407 C406 1.477 . S
C407 H427 0.930 . S
C408 N404 1.362 . S
C408 C405 1.431 . S
C408 C418 1.476 . S
H409 C403 0.929 . S
C410 O401 1.250 . S
C410 O402 1.258 . S
O411 Mn396 2.162 . S
O411 C399 1.281 . S
O412 Mn396 2.297 . S
O412 C399 1.236 . S
N413 Mn397 2.282 . S
N413 C414 1.328 . S
N413 C418 1.318 . S
C414 N413 1.328 . S
C414 C415 1.457 . S
C414 H419 0.929 . S
C415 C414 1.457 . S
C415 C416 1.291 . S
C415 H428 0.931 . S
C416 C415 1.291 . S
C416 C417 1.373 . S
C416 H429 0.929 . S
C417 C416 1.373 . S
C417 C418 1.396 . S
C417 C424 1.403 . S
C418 C408 1.476 . S
C418 N413 1.318 . S
C418 C417 1.396 . S
H419 C414 0.929 . S
O420 Mn396 2.385 . S
O420 C398 1.234 . S
O421 Mn396 2.209 . S
O421 Mn397 2.215 . S
O421 C398 1.283 . S
O422 Mn396 2.094 . S
O422 C400 1.240 . S
O423 Mn397 2.117 . S
O423 C400 1.264 . S
C424 C417 1.403 . S
C424 C425 1.399 . S
C424 H430 0.929 . S
C425 C405 1.449 . S
C425 C424 1.399 . S
C425 H431 0.930 . S
H426 C406 0.931 . S
H427 C407 0.930 . S
H428 C415 0.931 . S
H429 C416 0.929 . S
H430 C424 0.929 . S
H431 C425 0.930 . S
Mn432 O437 2.095 . S
Mn432 O447 2.162 . S
Mn432 O448 2.297 . S
Mn432 O456 2.385 . S
Mn432 O457 2.209 . S
Mn432 O458 2.094 . S
Mn433 O438 2.121 . S
Mn433 N440 2.257 . S
Mn433 N449 2.282 . S
Mn433 O457 2.215 . S
Mn433 O459 2.117 . S
C434 O456 1.234 . S
C434 O457 1.283 . S
C435 O447 1.281 . S
C435 O448 1.236 . S
C436 O458 1.240 . S
C436 O459 1.264 . S
O437 Mn432 2.095 . S
O437 C446 1.250 . S
O438 Mn433 2.121 . S
O438 C446 1.258 . S
C439 N440 1.326 . S
C439 C443 1.460 . S
C439 H445 0.929 . S
N440 Mn433 2.257 . S
N440 C439 1.326 . S
N440 C444 1.362 . S
C441 C442 1.258 . S
C441 C444 1.431 . S
C441 C461 1.449 . S
C442 C441 1.258 . S
C442 C443 1.477 . S
C442 H462 0.931 . S
C443 C439 1.460 . S
C443 C442 1.477 . S
C443 H463 0.930 . S
C444 N440 1.362 . S
C444 C441 1.431 . S
C444 C454 1.476 . S
H445 C439 0.929 . S
C446 O437 1.250 . S
C446 O438 1.258 . S
O447 Mn432 2.162 . S
O447 C435 1.281 . S
O448 Mn432 2.297 . S
O448 C435 1.236 . S
N449 Mn433 2.282 . S
N449 C450 1.328 . S
N449 C454 1.318 . S
C450 N449 1.328 . S
C450 C451 1.457 . S
C450 H455 0.929 . S
C451 C450 1.457 . S
C451 C452 1.291 . S
C451 H464 0.931 . S
C452 C451 1.291 . S
C452 C453 1.373 . S
C452 H465 0.929 . S
C453 C452 1.373 . S
C453 C454 1.396 . S
C453 C460 1.403 . S
C454 C444 1.476 . S
C454 N449 1.318 . S
C454 C453 1.396 . S
H455 C450 0.929 . S
O456 Mn432 2.385 . S
O456 C434 1.234 . S
O457 Mn432 2.209 . S
O457 Mn433 2.215 . S
O457 C434 1.283 . S
O458 Mn432 2.094 . S
O458 C436 1.240 . S
O459 Mn433 2.117 . S
O459 C436 1.264 . S
C460 C453 1.403 . S
C460 C461 1.399 . S
C460 H466 0.929 . S
C461 C441 1.449 . S
C461 C460 1.399 . S
C461 H467 0.930 . S
H462 C442 0.931 . S
H463 C443 0.930 . S
H464 C451 0.931 . S
H465 C452 0.929 . S
H466 C460 0.929 . S
H467 C461 0.930 . S
Mn468 O473 2.095 . S
Mn468 O483 2.162 . S
Mn468 O484 2.297 . S
Mn468 O492 2.385 . S
Mn468 O493 2.209 . S
Mn468 O494 2.094 . S
Mn469 O474 2.121 . S
Mn469 N476 2.257 . S
Mn469 N485 2.282 . S
Mn469 O493 2.215 . S
Mn469 O495 2.117 . S
C470 O492 1.234 . S
C470 O493 1.283 . S
C471 O483 1.281 . S
C471 O484 1.236 . S
C472 O494 1.240 . S
C472 O495 1.264 . S
O473 Mn468 2.095 . S
O473 C482 1.250 . S
O474 Mn469 2.121 . S
O474 C482 1.258 . S
C475 N476 1.326 . S
C475 C479 1.460 . S
C475 H481 0.929 . S
N476 Mn469 2.257 . S
N476 C475 1.326 . S
N476 C480 1.362 . S
C477 C478 1.258 . S
C477 C480 1.431 . S
C477 C497 1.449 . S
C478 C477 1.258 . S
C478 C479 1.477 . S
C478 H498 0.931 . S
C479 C475 1.460 . S
C479 C478 1.477 . S
C479 H499 0.930 . S
C480 N476 1.362 . S
C480 C477 1.431 . S
C480 C490 1.476 . S
H481 C475 0.929 . S
C482 O473 1.250 . S
C482 O474 1.258 . S
O483 Mn468 2.162 . S
O483 C471 1.281 . S
O484 Mn468 2.297 . S
O484 C471 1.236 . S
N485 Mn469 2.282 . S
N485 C486 1.328 . S
N485 C490 1.318 . S
C486 N485 1.328 . S
C486 C487 1.457 . S
C486 H491 0.929 . S
C487 C486 1.457 . S
C487 C488 1.291 . S
C487 H500 0.931 . S
C488 C487 1.291 . S
C488 C489 1.373 . S
C488 H501 0.929 . S
C489 C488 1.373 . S
C489 C490 1.396 . S
C489 C496 1.403 . S
C490 C480 1.476 . S
C490 N485 1.318 . S
C490 C489 1.396 . S
H491 C486 0.929 . S
O492 Mn468 2.385 . S
O492 C470 1.234 . S
O493 Mn468 2.209 . S
O493 Mn469 2.215 . S
O493 C470 1.283 . S
O494 Mn468 2.094 . S
O494 C472 1.240 . S
O495 Mn469 2.117 . S
O495 C472 1.264 . S
C496 C489 1.403 . S
C496 C497 1.399 . S
C496 H502 0.929 . S
C497 C477 1.449 . S
C497 C496 1.399 . S
C497 H503 0.930 . S
H498 C478 0.931 . S
H499 C479 0.930 . S
H500 C487 0.931 . S
H501 C488 0.929 . S
H502 C496 0.929 . S
H503 C497 0.930 . S
Mn504 O509 2.095 . S
Mn504 O519 2.162 . S
Mn504 O520 2.297 . S
Mn504 O528 2.385 . S
Mn504 O529 2.209 . S
Mn504 O530 2.094 . S
Mn505 O510 2.121 . S
Mn505 N512 2.257 . S
Mn505 N521 2.282 . S
Mn505 O529 2.215 . S
Mn505 O531 2.117 . S
C506 O528 1.234 . S
C506 O529 1.283 . S
C507 O519 1.281 . S
C507 O520 1.236 . S
C508 O530 1.240 . S
C508 O531 1.264 . S
O509 Mn504 2.095 . S
O509 C518 1.250 . S
O510 Mn505 2.121 . S
O510 C518 1.258 . S
C511 N512 1.326 . S
C511 C515 1.460 . S
C511 H517 0.929 . S
N512 Mn505 2.257 . S
N512 C511 1.326 . S
N512 C516 1.362 . S
C513 C514 1.258 . S
C513 C516 1.431 . S
C513 C533 1.449 . S
C514 C513 1.258 . S
C514 C515 1.477 . S
C514 H534 0.931 . S
C515 C511 1.460 . S
C515 C514 1.477 . S
C515 H535 0.930 . S
C516 N512 1.362 . S
C516 C513 1.431 . S
C516 C526 1.476 . S
H517 C511 0.929 . S
C518 O509 1.250 . S
C518 O510 1.258 . S
O519 Mn504 2.162 . S
O519 C507 1.281 . S
O520 Mn504 2.297 . S
O520 C507 1.236 . S
N521 Mn505 2.282 . S
N521 C522 1.328 . S
N521 C526 1.318 . S
C522 N521 1.328 . S
C522 C523 1.457 . S
C522 H527 0.929 . S
C523 C522 1.457 . S
C523 C524 1.291 . S
C523 H536 0.931 . S
C524 C523 1.291 . S
C524 C525 1.373 . S
C524 H537 0.929 . S
C525 C524 1.373 . S
C525 C526 1.396 . S
C525 C532 1.403 . S
C526 C516 1.476 . S
C526 N521 1.318 . S
C526 C525 1.396 . S
H527 C522 0.929 . S
O528 Mn504 2.385 . S
O528 C506 1.234 . S
O529 Mn504 2.209 . S
O529 Mn505 2.215 . S
O529 C506 1.283 . S
O530 Mn504 2.094 . S
O530 C508 1.240 . S
O531 Mn505 2.117 . S
O531 C508 1.264 . S
C532 C525 1.403 . S
C532 C533 1.399 . S
C532 H538 0.929 . S
C533 C513 1.449 . S
C533 C532 1.399 . S
C533 H539 0.930 . S
H534 C514 0.931 . S
H535 C515 0.930 . S
H536 C523 0.931 . S
H537 C524 0.929 . S
H538 C532 0.929 . S
H539 C533 0.930 . S
Mn540 O545 2.095 . S
Mn540 O555 2.162 . S
Mn540 O556 2.297 . S
Mn540 O564 2.385 . S
Mn540 O565 2.209 . S
Mn540 O566 2.094 . S
Mn541 O546 2.121 . S
Mn541 N548 2.257 . S
Mn541 N557 2.282 . S
Mn541 O565 2.215 . S
Mn541 O567 2.117 . S
C542 O564 1.234 . S
C542 O565 1.283 . S
C543 O555 1.281 . S
C543 O556 1.236 . S
C544 O566 1.240 . S
C544 O567 1.264 . S
O545 Mn540 2.095 . S
O545 C554 1.250 . S
O546 Mn541 2.121 . S
O546 C554 1.258 . S
C547 N548 1.326 . S
C547 C551 1.460 . S
C547 H553 0.929 . S
N548 Mn541 2.257 . S
N548 C547 1.326 . S
N548 C552 1.362 . S
C549 C550 1.258 . S
C549 C552 1.431 . S
C549 C569 1.449 . S
C550 C549 1.258 . S
C550 C551 1.477 . S
C550 H570 0.931 . S
C551 C547 1.460 . S
C551 C550 1.477 . S
C551 H571 0.930 . S
C552 N548 1.362 . S
C552 C549 1.431 . S
C552 C562 1.476 . S
H553 C547 0.929 . S
C554 O545 1.250 . S
C554 O546 1.258 . S
O555 Mn540 2.162 . S
O555 C543 1.281 . S
O556 Mn540 2.297 . S
O556 C543 1.236 . S
N557 Mn541 2.282 . S
N557 C558 1.328 . S
N557 C562 1.318 . S
C558 N557 1.328 . S
C558 C559 1.457 . S
C558 H563 0.929 . S
C559 C558 1.457 . S
C559 C560 1.291 . S
C559 H572 0.931 . S
C560 C559 1.291 . S
C560 C561 1.373 . S
C560 H573 0.929 . S
C561 C560 1.373 . S
C561 C562 1.396 . S
C561 C568 1.403 . S
C562 C552 1.476 . S
C562 N557 1.318 . S
C562 C561 1.396 . S
H563 C558 0.929 . S
O564 Mn540 2.385 . S
O564 C542 1.234 . S
O565 Mn540 2.209 . S
O565 Mn541 2.215 . S
O565 C542 1.283 . S
O566 Mn540 2.094 . S
O566 C544 1.240 . S
O567 Mn541 2.117 . S
O567 C544 1.264 . S
C568 C561 1.403 . S
C568 C569 1.399 . S
C568 H574 0.929 . S
C569 C549 1.449 . S
C569 C568 1.399 . S
C569 H575 0.930 . S
H570 C550 0.931 . S
H571 C551 0.930 . S
H572 C559 0.931 . S
H573 C560 0.929 . S
H574 C568 0.929 . S
H575 C569 0.930 . S
Mn576 O581 2.095 . S
Mn576 O591 2.162 . S
Mn576 O592 2.297 . S
Mn576 O600 2.385 . S
Mn576 O601 2.209 . S
Mn576 O602 2.094 . S
Mn577 O582 2.121 . S
Mn577 N584 2.257 . S
Mn577 N593 2.282 . S
Mn577 O601 2.215 . S
Mn577 O603 2.117 . S
C578 O600 1.234 . S
C578 O601 1.283 . S
C579 O591 1.281 . S
C579 O592 1.236 . S
C580 O602 1.240 . S
C580 O603 1.264 . S
O581 Mn576 2.095 . S
O581 C590 1.250 . S
O582 Mn577 2.121 . S
O582 C590 1.258 . S
C583 N584 1.326 . S
C583 C587 1.460 . S
C583 H589 0.929 . S
N584 Mn577 2.257 . S
N584 C583 1.326 . S
N584 C588 1.362 . S
C585 C586 1.258 . S
C585 C588 1.431 . S
C585 C605 1.449 . S
C586 C585 1.258 . S
C586 C587 1.477 . S
C586 H606 0.931 . S
C587 C583 1.460 . S
C587 C586 1.477 . S
C587 H607 0.930 . S
C588 N584 1.362 . S
C588 C585 1.431 . S
C588 C598 1.476 . S
H589 C583 0.929 . S
C590 O581 1.250 . S
C590 O582 1.258 . S
O591 Mn576 2.162 . S
O591 C579 1.281 . S
O592 Mn576 2.297 . S
O592 C579 1.236 . S
N593 Mn577 2.282 . S
N593 C594 1.328 . S
N593 C598 1.318 . S
C594 N593 1.328 . S
C594 C595 1.457 . S
C594 H599 0.929 . S
C595 C594 1.457 . S
C595 C596 1.291 . S
C595 H608 0.931 . S
C596 C595 1.291 . S
C596 C597 1.373 . S
C596 H609 0.929 . S
C597 C596 1.373 . S
C597 C598 1.396 . S
C597 C604 1.403 . S
C598 C588 1.476 . S
C598 N593 1.318 . S
C598 C597 1.396 . S
H599 C594 0.929 . S
O600 Mn576 2.385 . S
O600 C578 1.234 . S
O601 Mn576 2.209 . S
O601 Mn577 2.215 . S
O601 C578 1.283 . S
O602 Mn576 2.094 . S
O602 C580 1.240 . S
O603 Mn577 2.117 . S
O603 C580 1.264 . S
C604 C597 1.403 . S
C604 C605 1.399 . S
C604 H610 0.929 . S
C605 C585 1.449 . S
C605 C604 1.399 . S
C605 H611 0.930 . S
H606 C586 0.931 . S
H607 C587 0.930 . S
H608 C595 0.931 . S
H609 C596 0.929 . S
H610 C604 0.929 . S
H611 C605 0.930 . S
Mn612 O617 2.095 . S
Mn612 O627 2.162 . S
Mn612 O628 2.297 . S
Mn612 O636 2.385 . S
Mn612 O637 2.209 . S
Mn612 O638 2.094 . S
Mn613 O618 2.121 . S
Mn613 N620 2.257 . S
Mn613 N629 2.282 . S
Mn613 O637 2.215 . S
Mn613 O639 2.117 . S
C614 O636 1.234 . S
C614 O637 1.283 . S
C615 O627 1.281 . S
C615 O628 1.236 . S
C616 O638 1.240 . S
C616 O639 1.264 . S
O617 Mn612 2.095 . S
O617 C626 1.250 . S
O618 Mn613 2.121 . S
O618 C626 1.258 . S
C619 N620 1.326 . S
C619 C623 1.460 . S
C619 H625 0.929 . S
N620 Mn613 2.257 . S
N620 C619 1.326 . S
N620 C624 1.362 . S
C621 C622 1.258 . S
C621 C624 1.431 . S
C621 C641 1.449 . S
C622 C621 1.258 . S
C622 C623 1.477 . S
C622 H642 0.931 . S
C623 C619 1.460 . S
C623 C622 1.477 . S
C623 H643 0.930 . S
C624 N620 1.362 . S
C624 C621 1.431 . S
C624 C634 1.476 . S
H625 C619 0.929 . S
C626 O617 1.250 . S
C626 O618 1.258 . S
O627 Mn612 2.162 . S
O627 C615 1.281 . S
O628 Mn612 2.297 . S
O628 C615 1.236 . S
N629 Mn613 2.282 . S
N629 C630 1.328 . S
N629 C634 1.318 . S
C630 N629 1.328 . S
C630 C631 1.457 . S
C630 H635 0.929 . S
C631 C630 1.457 . S
C631 C632 1.291 . S
C631 H644 0.931 . S
C632 C631 1.291 . S
C632 C633 1.373 . S
C632 H645 0.929 . S
C633 C632 1.373 . S
C633 C634 1.396 . S
C633 C640 1.403 . S
C634 C624 1.476 . S
C634 N629 1.318 . S
C634 C633 1.396 . S
H635 C630 0.929 . S
O636 Mn612 2.385 . S
O636 C614 1.234 . S
O637 Mn612 2.209 . S
O637 Mn613 2.215 . S
O637 C614 1.283 . S
O638 Mn612 2.094 . S
O638 C616 1.240 . S
O639 Mn613 2.117 . S
O639 C616 1.264 . S
C640 C633 1.403 . S
C640 C641 1.399 . S
C640 H646 0.929 . S
C641 C621 1.449 . S
C641 C640 1.399 . S
C641 H647 0.930 . S
H642 C622 0.931 . S
H643 C623 0.930 . S
H644 C631 0.931 . S
H645 C632 0.929 . S
H646 C640 0.929 . S
H647 C641 0.930 . S
Mn648 O653 2.095 . S
Mn648 O663 2.162 . S
Mn648 O664 2.297 . S
Mn648 O672 2.385 . S
Mn648 O673 2.209 . S
Mn648 O674 2.094 . S
Mn649 O654 2.121 . S
Mn649 N656 2.257 . S
Mn649 N665 2.282 . S
Mn649 O673 2.215 . S
Mn649 O675 2.117 . S
C650 O672 1.234 . S
C650 O673 1.283 . S
C651 O663 1.281 . S
C651 O664 1.236 . S
C652 O674 1.240 . S
C652 O675 1.264 . S
O653 Mn648 2.095 . S
O653 C662 1.250 . S
O654 Mn649 2.121 . S
O654 C662 1.258 . S
C655 N656 1.326 . S
C655 C659 1.460 . S
C655 H661 0.929 . S
N656 Mn649 2.257 . S
N656 C655 1.326 . S
N656 C660 1.362 . S
C657 C658 1.258 . S
C657 C660 1.431 . S
C657 C677 1.449 . S
C658 C657 1.258 . S
C658 C659 1.477 . S
C658 H678 0.931 . S
C659 C655 1.460 . S
C659 C658 1.477 . S
C659 H679 0.930 . S
C660 N656 1.362 . S
C660 C657 1.431 . S
C660 C670 1.476 . S
H661 C655 0.929 . S
C662 O653 1.250 . S
C662 O654 1.258 . S
O663 Mn648 2.162 . S
O663 C651 1.281 . S
O664 Mn648 2.297 . S
O664 C651 1.236 . S
N665 Mn649 2.282 . S
N665 C666 1.328 . S
N665 C670 1.318 . S
C666 N665 1.328 . S
C666 C667 1.457 . S
C666 H671 0.929 . S
C667 C666 1.457 . S
C667 C668 1.291 . S
C667 H680 0.931 . S
C668 C667 1.291 . S
C668 C669 1.373 . S
C668 H681 0.929 . S
C669 C668 1.373 . S
C669 C670 1.396 . S
C669 C676 1.403 . S
C670 C660 1.476 . S
C670 N665 1.318 . S
C670 C669 1.396 . S
H671 C666 0.929 . S
O672 Mn648 2.385 . S
O672 C650 1.234 . S
O673 Mn648 2.209 . S
O673 Mn649 2.215 . S
O673 C650 1.283 . S
O674 Mn648 2.094 . S
O674 C652 1.240 . S
O675 Mn649 2.117 . S
O675 C652 1.264 . S
C676 C669 1.403 . S
C676 C677 1.399 . S
C676 H682 0.929 . S
C677 C657 1.449 . S
C677 C676 1.399 . S
C677 H683 0.930 . S
H678 C658 0.931 . S
H679 C659 0.930 . S
H680 C667 0.931 . S
H681 C668 0.929 . S
H682 C676 0.929 . S
H683 C677 0.930 . S
Mn684 O689 2.095 . S
Mn684 O699 2.162 . S
Mn684 O700 2.297 . S
Mn684 O708 2.385 . S
Mn684 O709 2.209 . S
Mn684 O710 2.094 . S
Mn685 O690 2.121 . S
Mn685 N692 2.257 . S
Mn685 N701 2.282 . S
Mn685 O709 2.215 . S
Mn685 O711 2.117 . S
C686 O708 1.234 . S
C686 O709 1.283 . S
C687 O699 1.281 . S
C687 O700 1.236 . S
C688 O710 1.240 . S
C688 O711 1.264 . S
O689 Mn684 2.095 . S
O689 C698 1.250 . S
O690 Mn685 2.121 . S
O690 C698 1.258 . S
C691 N692 1.326 . S
C691 C695 1.460 . S
C691 H697 0.929 . S
N692 Mn685 2.257 . S
N692 C691 1.326 . S
N692 C696 1.362 . S
C693 C694 1.258 . S
C693 C696 1.431 . S
C693 C713 1.449 . S
C694 C693 1.258 . S
C694 C695 1.477 . S
C694 H714 0.931 . S
C695 C691 1.460 . S
C695 C694 1.477 . S
C695 H715 0.930 . S
C696 N692 1.362 . S
C696 C693 1.431 . S
C696 C706 1.476 . S
H697 C691 0.929 . S
C698 O689 1.250 . S
C698 O690 1.258 . S
O699 Mn684 2.162 . S
O699 C687 1.281 . S
O700 Mn684 2.297 . S
O700 C687 1.236 . S
N701 Mn685 2.282 . S
N701 C702 1.328 . S
N701 C706 1.318 . S
C702 N701 1.328 . S
C702 C703 1.457 . S
C702 H707 0.929 . S
C703 C702 1.457 . S
C703 C704 1.291 . S
C703 H716 0.931 . S
C704 C703 1.291 . S
C704 C705 1.373 . S
C704 H717 0.929 . S
C705 C704 1.373 . S
C705 C706 1.396 . S
C705 C712 1.403 . S
C706 C696 1.476 . S
C706 N701 1.318 . S
C706 C705 1.396 . S
H707 C702 0.929 . S
O708 Mn684 2.385 . S
O708 C686 1.234 . S
O709 Mn684 2.209 . S
O709 Mn685 2.215 . S
O709 C686 1.283 . S
O710 Mn684 2.094 . S
O710 C688 1.240 . S
O711 Mn685 2.117 . S
O711 C688 1.264 . S
C712 C705 1.403 . S
C712 C713 1.399 . S
C712 H718 0.929 . S
C713 C693 1.449 . S
C713 C712 1.399 . S
C713 H719 0.930 . S
H714 C694 0.931 . S
H715 C695 0.930 . S
H716 C703 0.931 . S
H717 C704 0.929 . S
H718 C712 0.929 . S
H719 C713 0.930 . S
Mn720 O725 2.095 . S
Mn720 O735 2.162 . S
Mn720 O736 2.297 . S
Mn720 O744 2.385 . S
Mn720 O745 2.209 . S
Mn720 O746 2.094 . S
Mn721 O726 2.121 . S
Mn721 N728 2.257 . S
Mn721 N737 2.282 . S
Mn721 O745 2.215 . S
Mn721 O747 2.117 . S
C722 O744 1.234 . S
C722 O745 1.283 . S
C723 O735 1.281 . S
C723 O736 1.236 . S
C724 O746 1.240 . S
C724 O747 1.264 . S
O725 Mn720 2.095 . S
O725 C734 1.250 . S
O726 Mn721 2.121 . S
O726 C734 1.258 . S
C727 N728 1.326 . S
C727 C731 1.460 . S
C727 H733 0.929 . S
N728 Mn721 2.257 . S
N728 C727 1.326 . S
N728 C732 1.362 . S
C729 C730 1.258 . S
C729 C732 1.431 . S
C729 C749 1.449 . S
C730 C729 1.258 . S
C730 C731 1.477 . S
C730 H750 0.931 . S
C731 C727 1.460 . S
C731 C730 1.477 . S
C731 H751 0.930 . S
C732 N728 1.362 . S
C732 C729 1.431 . S
C732 C742 1.476 . S
H733 C727 0.929 . S
C734 O725 1.250 . S
C734 O726 1.258 . S
O735 Mn720 2.162 . S
O735 C723 1.281 . S
O736 Mn720 2.297 . S
O736 C723 1.236 . S
N737 Mn721 2.282 . S
N737 C738 1.328 . S
N737 C742 1.318 . S
C738 N737 1.328 . S
C738 C739 1.457 . S
C738 H743 0.929 . S
C739 C738 1.457 . S
C739 C740 1.291 . S
C739 H752 0.931 . S
C740 C739 1.291 . S
C740 C741 1.373 . S
C740 H753 0.929 . S
C741 C740 1.373 . S
C741 C742 1.396 . S
C741 C748 1.403 . S
C742 C732 1.476 . S
C742 N737 1.318 . S
C742 C741 1.396 . S
H743 C738 0.929 . S
O744 Mn720 2.385 . S
O744 C722 1.234 . S
O745 Mn720 2.209 . S
O745 Mn721 2.215 . S
O745 C722 1.283 . S
O746 Mn720 2.094 . S
O746 C724 1.240 . S
O747 Mn721 2.117 . S
O747 C724 1.264 . S
C748 C741 1.403 . S
C748 C749 1.399 . S
C748 H754 0.929 . S
C749 C729 1.449 . S
C749 C748 1.399 . S
C749 H755 0.930 . S
H750 C730 0.931 . S
H751 C731 0.930 . S
H752 C739 0.931 . S
H753 C740 0.929 . S
H754 C748 0.929 . S
H755 C749 0.930 . S
Mn756 O761 2.095 . S
Mn756 O771 2.162 . S
Mn756 O772 2.297 . S
Mn756 O780 2.385 . S
Mn756 O781 2.209 . S
Mn756 O782 2.094 . S
Mn757 O762 2.121 . S
Mn757 N764 2.257 . S
Mn757 N773 2.282 . S
Mn757 O781 2.215 . S
Mn757 O783 2.117 . S
C758 O780 1.234 . S
C758 O781 1.283 . S
C759 O771 1.281 . S
C759 O772 1.236 . S
C760 O782 1.240 . S
C760 O783 1.264 . S
O761 Mn756 2.095 . S
O761 C770 1.250 . S
O762 Mn757 2.121 . S
O762 C770 1.258 . S
C763 N764 1.326 . S
C763 C767 1.460 . S
C763 H769 0.929 . S
N764 Mn757 2.257 . S
N764 C763 1.326 . S
N764 C768 1.362 . S
C765 C766 1.258 . S
C765 C768 1.431 . S
C765 C785 1.449 . S
C766 C765 1.258 . S
C766 C767 1.477 . S
C766 H786 0.931 . S
C767 C763 1.460 . S
C767 C766 1.477 . S
C767 H787 0.930 . S
C768 N764 1.362 . S
C768 C765 1.431 . S
C768 C778 1.476 . S
H769 C763 0.929 . S
C770 O761 1.250 . S
C770 O762 1.258 . S
O771 Mn756 2.162 . S
O771 C759 1.281 . S
O772 Mn756 2.297 . S
O772 C759 1.236 . S
N773 Mn757 2.282 . S
N773 C774 1.328 . S
N773 C778 1.318 . S
C774 N773 1.328 . S
C774 C775 1.457 . S
C774 H779 0.929 . S
C775 C774 1.457 . S
C775 C776 1.291 . S
C775 H788 0.931 . S
C776 C775 1.291 . S
C776 C777 1.373 . S
C776 H789 0.929 . S
C777 C776 1.373 . S
C777 C778 1.396 . S
C777 C784 1.403 . S
C778 C768 1.476 . S
C778 N773 1.318 . S
C778 C777 1.396 . S
H779 C774 0.929 . S
O780 Mn756 2.385 . S
O780 C758 1.234 . S
O781 Mn756 2.209 . S
O781 Mn757 2.215 . S
O781 C758 1.283 . S
O782 Mn756 2.094 . S
O782 C760 1.240 . S
O783 Mn757 2.117 . S
O783 C760 1.264 . S
C784 C777 1.403 . S
C784 C785 1.399 . S
C784 H790 0.929 . S
C785 C765 1.449 . S
C785 C784 1.399 . S
C785 H791 0.930 . S
H786 C766 0.931 . S
H787 C767 0.930 . S
H788 C775 0.931 . S
H789 C776 0.929 . S
H790 C784 0.929 . S
H791 C785 0.930 . S
Mn792 O797 2.095 . S
Mn792 O807 2.162 . S
Mn792 O808 2.297 . S
Mn792 O816 2.385 . S
Mn792 O817 2.209 . S
Mn792 O818 2.094 . S
Mn793 O798 2.121 . S
Mn793 N800 2.257 . S
Mn793 N809 2.282 . S
Mn793 O817 2.215 . S
Mn793 O819 2.117 . S
C794 O816 1.234 . S
C794 O817 1.283 . S
C795 O807 1.281 . S
C795 O808 1.236 . S
C796 O818 1.240 . S
C796 O819 1.264 . S
O797 Mn792 2.095 . S
O797 C806 1.250 . S
O798 Mn793 2.121 . S
O798 C806 1.258 . S
C799 N800 1.326 . S
C799 C803 1.460 . S
C799 H805 0.929 . S
N800 Mn793 2.257 . S
N800 C799 1.326 . S
N800 C804 1.362 . S
C801 C802 1.258 . S
C801 C804 1.431 . S
C801 C821 1.449 . S
C802 C801 1.258 . S
C802 C803 1.477 . S
C802 H822 0.931 . S
C803 C799 1.460 . S
C803 C802 1.477 . S
C803 H823 0.930 . S
C804 N800 1.362 . S
C804 C801 1.431 . S
C804 C814 1.476 . S
H805 C799 0.929 . S
C806 O797 1.250 . S
C806 O798 1.258 . S
O807 Mn792 2.162 . S
O807 C795 1.281 . S
O808 Mn792 2.297 . S
O808 C795 1.236 . S
N809 Mn793 2.282 . S
N809 C810 1.328 . S
N809 C814 1.318 . S
C810 N809 1.328 . S
C810 C811 1.457 . S
C810 H815 0.929 . S
C811 C810 1.457 . S
C811 C812 1.291 . S
C811 H824 0.931 . S
C812 C811 1.291 . S
C812 C813 1.373 . S
C812 H825 0.929 . S
C813 C812 1.373 . S
C813 C814 1.396 . S
C813 C820 1.403 . S
C814 C804 1.476 . S
C814 N809 1.318 . S
C814 C813 1.396 . S
H815 C810 0.929 . S
O816 Mn792 2.385 . S
O816 C794 1.234 . S
O817 Mn792 2.209 . S
O817 Mn793 2.215 . S
O817 C794 1.283 . S
O818 Mn792 2.094 . S
O818 C796 1.240 . S
O819 Mn793 2.117 . S
O819 C796 1.264 . S
C820 C813 1.403 . S
C820 C821 1.399 . S
C820 H826 0.929 . S
C821 C801 1.449 . S
C821 C820 1.399 . S
C821 H827 0.930 . S
H822 C802 0.931 . S
H823 C803 0.930 . S
H824 C811 0.931 . S
H825 C812 0.929 . S
H826 C820 0.929 . S
H827 C821 0.930 . S
Mn828 O833 2.095 . S
Mn828 O843 2.162 . S
Mn828 O844 2.297 . S
Mn828 O852 2.385 . S
Mn828 O853 2.209 . S
Mn828 O854 2.094 . S
Mn829 O834 2.121 . S
Mn829 N836 2.257 . S
Mn829 N845 2.282 . S
Mn829 O853 2.215 . S
Mn829 O855 2.117 . S
C830 O852 1.234 . S
C830 O853 1.283 . S
C831 O843 1.281 . S
C831 O844 1.236 . S
C832 O854 1.240 . S
C832 O855 1.264 . S
O833 Mn828 2.095 . S
O833 C842 1.250 . S
O834 Mn829 2.121 . S
O834 C842 1.258 . S
C835 N836 1.326 . S
C835 C839 1.460 . S
C835 H841 0.929 . S
N836 Mn829 2.257 . S
N836 C835 1.326 . S
N836 C840 1.362 . S
C837 C838 1.258 . S
C837 C840 1.431 . S
C837 C857 1.449 . S
C838 C837 1.258 . S
C838 C839 1.477 . S
C838 H858 0.931 . S
C839 C835 1.460 . S
C839 C838 1.477 . S
C839 H859 0.930 . S
C840 N836 1.362 . S
C840 C837 1.431 . S
C840 C850 1.476 . S
H841 C835 0.929 . S
C842 O833 1.250 . S
C842 O834 1.258 . S
O843 Mn828 2.162 . S
O843 C831 1.281 . S
O844 Mn828 2.297 . S
O844 C831 1.236 . S
N845 Mn829 2.282 . S
N845 C846 1.328 . S
N845 C850 1.318 . S
C846 N845 1.328 . S
C846 C847 1.457 . S
C846 H851 0.929 . S
C847 C846 1.457 . S
C847 C848 1.291 . S
C847 H860 0.931 . S
C848 C847 1.291 . S
C848 C849 1.373 . S
C848 H861 0.929 . S
C849 C848 1.373 . S
C849 C850 1.396 . S
C849 C856 1.403 . S
C850 C840 1.476 . S
C850 N845 1.318 . S
C850 C849 1.396 . S
H851 C846 0.929 . S
O852 Mn828 2.385 . S
O852 C830 1.234 . S
O853 Mn828 2.209 . S
O853 Mn829 2.215 . S
O853 C830 1.283 . S
O854 Mn828 2.094 . S
O854 C832 1.240 . S
O855 Mn829 2.117 . S
O855 C832 1.264 . S
C856 C849 1.403 . S
C856 C857 1.399 . S
C856 H862 0.929 . S
C857 C837 1.449 . S
C857 C856 1.399 . S
C857 H863 0.930 . S
H858 C838 0.931 . S
H859 C839 0.930 . S
H860 C847 0.931 . S
H861 C848 0.929 . S
H862 C856 0.929 . S
H863 C857 0.930 . S
Mn864 O869 2.095 . S
Mn864 O879 2.162 . S
Mn864 O880 2.297 . S
Mn864 O888 2.385 . S
Mn864 O889 2.209 . S
Mn864 O890 2.094 . S
Mn865 O870 2.121 . S
Mn865 N872 2.257 . S
Mn865 N881 2.282 . S
Mn865 O889 2.215 . S
Mn865 O891 2.117 . S
C866 O888 1.234 . S
C866 O889 1.283 . S
C867 O879 1.281 . S
C867 O880 1.236 . S
C868 O890 1.240 . S
C868 O891 1.264 . S
O869 Mn864 2.095 . S
O869 C878 1.250 . S
O870 Mn865 2.121 . S
O870 C878 1.258 . S
C871 N872 1.326 . S
C871 C875 1.460 . S
C871 H877 0.929 . S
N872 Mn865 2.257 . S
N872 C871 1.326 . S
N872 C876 1.362 . S
C873 C874 1.258 . S
C873 C876 1.431 . S
C873 C893 1.449 . S
C874 C873 1.258 . S
C874 C875 1.477 . S
C874 H894 0.931 . S
C875 C871 1.460 . S
C875 C874 1.477 . S
C875 H895 0.930 . S
C876 N872 1.362 . S
C876 C873 1.431 . S
C876 C886 1.476 . S
H877 C871 0.929 . S
C878 O869 1.250 . S
C878 O870 1.258 . S
O879 Mn864 2.162 . S
O879 C867 1.281 . S
O880 Mn864 2.297 . S
O880 C867 1.236 . S
N881 Mn865 2.282 . S
N881 C882 1.328 . S
N881 C886 1.318 . S
C882 N881 1.328 . S
C882 C883 1.457 . S
C882 H887 0.929 . S
C883 C882 1.457 . S
C883 C884 1.291 . S
C883 H896 0.931 . S
C884 C883 1.291 . S
C884 C885 1.373 . S
C884 H897 0.929 . S
C885 C884 1.373 . S
C885 C886 1.396 . S
C885 C892 1.403 . S
C886 C876 1.476 . S
C886 N881 1.318 . S
C886 C885 1.396 . S
H887 C882 0.929 . S
O888 Mn864 2.385 . S
O888 C866 1.234 . S
O889 Mn864 2.209 . S
O889 Mn865 2.215 . S
O889 C866 1.283 . S
O890 Mn864 2.094 . S
O890 C868 1.240 . S
O891 Mn865 2.117 . S
O891 C868 1.264 . S
C892 C885 1.403 . S
C892 C893 1.399 . S
C892 H898 0.929 . S
C893 C873 1.449 . S
C893 C892 1.399 . S
C893 H899 0.930 . S
H894 C874 0.931 . S
H895 C875 0.930 . S
H896 C883 0.931 . S
H897 C884 0.929 . S
H898 C892 0.929 . S
H899 C893 0.930 . S
Mn900 O905 2.095 . S
Mn900 O915 2.162 . S
Mn900 O916 2.297 . S
Mn900 O924 2.385 . S
Mn900 O925 2.209 . S
Mn900 O926 2.094 . S
Mn901 O906 2.121 . S
Mn901 N908 2.257 . S
Mn901 N917 2.282 . S
Mn901 O925 2.215 . S
Mn901 O927 2.117 . S
C902 O924 1.234 . S
C902 O925 1.283 . S
C903 O915 1.281 . S
C903 O916 1.236 . S
C904 O926 1.240 . S
C904 O927 1.264 . S
O905 Mn900 2.095 . S
O905 C914 1.250 . S
O906 Mn901 2.121 . S
O906 C914 1.258 . S
C907 N908 1.326 . S
C907 C911 1.460 . S
C907 H913 0.929 . S
N908 Mn901 2.257 . S
N908 C907 1.326 . S
N908 C912 1.362 . S
C909 C910 1.258 . S
C909 C912 1.431 . S
C909 C929 1.449 . S
C910 C909 1.258 . S
C910 C911 1.477 . S
C910 H930 0.931 . S
C911 C907 1.460 . S
C911 C910 1.477 . S
C911 H931 0.930 . S
C912 N908 1.362 . S
C912 C909 1.431 . S
C912 C922 1.476 . S
H913 C907 0.929 . S
C914 O905 1.250 . S
C914 O906 1.258 . S
O915 Mn900 2.162 . S
O915 C903 1.281 . S
O916 Mn900 2.297 . S
O916 C903 1.236 . S
N917 Mn901 2.282 . S
N917 C918 1.328 . S
N917 C922 1.318 . S
C918 N917 1.328 . S
C918 C919 1.457 . S
C918 H923 0.929 . S
C919 C918 1.457 . S
C919 C920 1.291 . S
C919 H932 0.931 . S
C920 C919 1.291 . S
C920 C921 1.373 . S
C920 H933 0.929 . S
C921 C920 1.373 . S
C921 C922 1.396 . S
C921 C928 1.403 . S
C922 C912 1.476 . S
C922 N917 1.318 . S
C922 C921 1.396 . S
H923 C918 0.929 . S
O924 Mn900 2.385 . S
O924 C902 1.234 . S
O925 Mn900 2.209 . S
O925 Mn901 2.215 . S
O925 C902 1.283 . S
O926 Mn900 2.094 . S
O926 C904 1.240 . S
O927 Mn901 2.117 . S
O927 C904 1.264 . S
C928 C921 1.403 . S
C928 C929 1.399 . S
C928 H934 0.929 . S
C929 C909 1.449 . S
C929 C928 1.399 . S
C929 H935 0.930 . S
H930 C910 0.931 . S
H931 C911 0.930 . S
H932 C919 0.931 . S
H933 C920 0.929 . S
H934 C928 0.929 . S
H935 C929 0.930 . S
Mn936 O941 2.095 . S
Mn936 O951 2.162 . S
Mn936 O952 2.297 . S
Mn936 O960 2.385 . S
Mn936 O961 2.209 . S
Mn936 O962 2.094 . S
Mn937 O942 2.121 . S
Mn937 N944 2.257 . S
Mn937 N953 2.282 . S
Mn937 O961 2.215 . S
Mn937 O963 2.117 . S
C938 O960 1.234 . S
C938 O961 1.283 . S
C939 O951 1.281 . S
C939 O952 1.236 . S
C940 O962 1.240 . S
C940 O963 1.264 . S
O941 Mn936 2.095 . S
O941 C950 1.250 . S
O942 Mn937 2.121 . S
O942 C950 1.258 . S
C943 N944 1.326 . S
C943 C947 1.460 . S
C943 H949 0.929 . S
N944 Mn937 2.257 . S
N944 C943 1.326 . S
N944 C948 1.362 . S
C945 C946 1.258 . S
C945 C948 1.431 . S
C945 C965 1.449 . S
C946 C945 1.258 . S
C946 C947 1.477 . S
C946 H966 0.931 . S
C947 C943 1.460 . S
C947 C946 1.477 . S
C947 H967 0.930 . S
C948 N944 1.362 . S
C948 C945 1.431 . S
C948 C958 1.476 . S
H949 C943 0.929 . S
C950 O941 1.250 . S
C950 O942 1.258 . S
O951 Mn936 2.162 . S
O951 C939 1.281 . S
O952 Mn936 2.297 . S
O952 C939 1.236 . S
N953 Mn937 2.282 . S
N953 C954 1.328 . S
N953 C958 1.318 . S
C954 N953 1.328 . S
C954 C955 1.457 . S
C954 H959 0.929 . S
C955 C954 1.457 . S
C955 C956 1.291 . S
C955 H968 0.931 . S
C956 C955 1.291 . S
C956 C957 1.373 . S
C956 H969 0.929 . S
C957 C956 1.373 . S
C957 C958 1.396 . S
C957 C964 1.403 . S
C958 C948 1.476 . S
C958 N953 1.318 . S
C958 C957 1.396 . S
H959 C954 0.929 . S
O960 Mn936 2.385 . S
O960 C938 1.234 . S
O961 Mn936 2.209 . S
O961 Mn937 2.215 . S
O961 C938 1.283 . S
O962 Mn936 2.094 . S
O962 C940 1.240 . S
O963 Mn937 2.117 . S
O963 C940 1.264 . S
C964 C957 1.403 . S
C964 C965 1.399 . S
C964 H970 0.929 . S
C965 C945 1.449 . S
C965 C964 1.399 . S
C965 H971 0.930 . S
H966 C946 0.931 . S
H967 C947 0.930 . S
H968 C955 0.931 . S
H969 C956 0.929 . S
H970 C964 0.929 . S
H971 C965 0.930 . S
Mn972 O977 2.095 . S
Mn972 O987 2.162 . S
Mn972 O988 2.297 . S
Mn972 O996 2.385 . S
Mn972 O997 2.209 . S
Mn972 O998 2.094 . S
Mn973 O978 2.121 . S
Mn973 N980 2.257 . S
Mn973 N989 2.282 . S
Mn973 O997 2.215 . S
Mn973 O999 2.117 . S
C974 O996 1.234 . S
C974 O997 1.283 . S
C975 O987 1.281 . S
C975 O988 1.236 . S
C976 O998 1.240 . S
C976 O999 1.264 . S
O977 Mn972 2.095 . S
O977 C986 1.250 . S
O978 Mn973 2.121 . S
O978 C986 1.258 . S
C979 N980 1.326 . S
C979 C983 1.460 . S
C979 H985 0.929 . S
N980 Mn973 2.257 . S
N980 C979 1.326 . S
N980 C984 1.362 . S
C981 C982 1.258 . S
C981 C984 1.431 . S
C981 C1001 1.449 . S
C982 C981 1.258 . S
C982 C983 1.477 . S
C982 H1002 0.931 . S
C983 C979 1.460 . S
C983 C982 1.477 . S
C983 H1003 0.930 . S
C984 N980 1.362 . S
C984 C981 1.431 . S
C984 C994 1.476 . S
H985 C979 0.929 . S
C986 O977 1.250 . S
C986 O978 1.258 . S
O987 Mn972 2.162 . S
O987 C975 1.281 . S
O988 Mn972 2.297 . S
O988 C975 1.236 . S
N989 Mn973 2.282 . S
N989 C990 1.328 . S
N989 C994 1.318 . S
C990 N989 1.328 . S
C990 C991 1.457 . S
C990 H995 0.929 . S
C991 C990 1.457 . S
C991 C992 1.291 . S
C991 H1004 0.931 . S
C992 C991 1.291 . S
C992 C993 1.373 . S
C992 H1005 0.929 . S
C993 C992 1.373 . S
C993 C994 1.396 . S
C993 C1000 1.403 . S
C994 C984 1.476 . S
C994 N989 1.318 . S
C994 C993 1.396 . S
H995 C990 0.929 . S
O996 Mn972 2.385 . S
O996 C974 1.234 . S
O997 Mn972 2.209 . S
O997 Mn973 2.215 . S
O997 C974 1.283 . S
O998 Mn972 2.094 . S
O998 C976 1.240 . S
O999 Mn973 2.117 . S
O999 C976 1.264 . S
C1000 C993 1.403 . S
C1000 C1001 1.399 . S
C1000 H1006 0.929 . S
C1001 C981 1.449 . S
C1001 C1000 1.399 . S
C1001 H1007 0.930 . S
H1002 C982 0.931 . S
H1003 C983 0.930 . S
H1004 C991 0.931 . S
H1005 C992 0.929 . S
H1006 C1000 0.929 . S
H1007 C1001 0.930 . S
Mn1008 O1013 2.095 . S
Mn1008 O1023 2.162 . S
Mn1008 O1024 2.297 . S
Mn1008 O1032 2.385 . S
Mn1008 O1033 2.209 . S
Mn1008 O1034 2.094 . S
Mn1009 O1014 2.121 . S
Mn1009 N1016 2.257 . S
Mn1009 N1025 2.282 . S
Mn1009 O1033 2.215 . S
Mn1009 O1035 2.117 . S
C1010 O1032 1.234 . S
C1010 O1033 1.283 . S
C1011 O1023 1.281 . S
C1011 O1024 1.236 . S
C1012 O1034 1.240 . S
C1012 O1035 1.264 . S
O1013 Mn1008 2.095 . S
O1013 C1022 1.250 . S
O1014 Mn1009 2.121 . S
O1014 C1022 1.258 . S
C1015 N1016 1.326 . S
C1015 C1019 1.460 . S
C1015 H1021 0.929 . S
N1016 Mn1009 2.257 . S
N1016 C1015 1.326 . S
N1016 C1020 1.362 . S
C1017 C1018 1.258 . S
C1017 C1020 1.431 . S
C1017 C1037 1.449 . S
C1018 C1017 1.258 . S
C1018 C1019 1.477 . S
C1018 H1038 0.931 . S
C1019 C1015 1.460 . S
C1019 C1018 1.477 . S
C1019 H1039 0.930 . S
C1020 N1016 1.362 . S
C1020 C1017 1.431 . S
C1020 C1030 1.476 . S
H1021 C1015 0.929 . S
C1022 O1013 1.250 . S
C1022 O1014 1.258 . S
O1023 Mn1008 2.162 . S
O1023 C1011 1.281 . S
O1024 Mn1008 2.297 . S
O1024 C1011 1.236 . S
N1025 Mn1009 2.282 . S
N1025 C1026 1.328 . S
N1025 C1030 1.318 . S
C1026 N1025 1.328 . S
C1026 C1027 1.457 . S
C1026 H1031 0.929 . S
C1027 C1026 1.457 . S
C1027 C1028 1.291 . S
C1027 H1040 0.931 . S
C1028 C1027 1.291 . S
C1028 C1029 1.373 . S
C1028 H1041 0.929 . S
C1029 C1028 1.373 . S
C1029 C1030 1.396 . S
C1029 C1036 1.403 . S
C1030 C1020 1.476 . S
C1030 N1025 1.318 . S
C1030 C1029 1.396 . S
H1031 C1026 0.929 . S
O1032 Mn1008 2.385 . S
O1032 C1010 1.234 . S
O1033 Mn1008 2.209 . S
O1033 Mn1009 2.215 . S
O1033 C1010 1.283 . S
O1034 Mn1008 2.094 . S
O1034 C1012 1.240 . S
O1035 Mn1009 2.117 . S
O1035 C1012 1.264 . S
C1036 C1029 1.403 . S
C1036 C1037 1.399 . S
C1036 H1042 0.929 . S
C1037 C1017 1.449 . S
C1037 C1036 1.399 . S
C1037 H1043 0.930 . S
H1038 C1018 0.931 . S
H1039 C1019 0.930 . S
H1040 C1027 0.931 . S
H1041 C1028 0.929 . S
H1042 C1036 0.929 . S
H1043 C1037 0.930 . S
Mn1044 O1049 2.095 . S
Mn1044 O1059 2.162 . S
Mn1044 O1060 2.297 . S
Mn1044 O1068 2.385 . S
Mn1044 O1069 2.209 . S
Mn1044 O1070 2.094 . S
Mn1045 O1050 2.121 . S
Mn1045 N1052 2.257 . S
Mn1045 N1061 2.282 . S
Mn1045 O1069 2.215 . S
Mn1045 O1071 2.117 . S
C1046 O1068 1.234 . S
C1046 O1069 1.283 . S
C1047 O1059 1.281 . S
C1047 O1060 1.236 . S
C1048 O1070 1.240 . S
C1048 O1071 1.264 . S
O1049 Mn1044 2.095 . S
O1049 C1058 1.250 . S
O1050 Mn1045 2.121 . S
O1050 C1058 1.258 . S
C1051 N1052 1.326 . S
C1051 C1055 1.460 . S
C1051 H1057 0.929 . S
N1052 Mn1045 2.257 . S
N1052 C1051 1.326 . S
N1052 C1056 1.362 . S
C1053 C1054 1.258 . S
C1053 C1056 1.431 . S
C1053 C1073 1.449 . S
C1054 C1053 1.258 . S
C1054 C1055 1.477 . S
C1054 H1074 0.931 . S
C1055 C1051 1.460 . S
C1055 C1054 1.477 . S
C1055 H1075 0.930 . S
C1056 N1052 1.362 . S
C1056 C1053 1.431 . S
C1056 C1066 1.476 . S
H1057 C1051 0.929 . S
C1058 O1049 1.250 . S
C1058 O1050 1.258 . S
O1059 Mn1044 2.162 . S
O1059 C1047 1.281 . S
O1060 Mn1044 2.297 . S
O1060 C1047 1.236 . S
N1061 Mn1045 2.282 . S
N1061 C1062 1.328 . S
N1061 C1066 1.318 . S
C1062 N1061 1.328 . S
C1062 C1063 1.457 . S
C1062 H1067 0.929 . S
C1063 C1062 1.457 . S
C1063 C1064 1.291 . S
C1063 H1076 0.931 . S
C1064 C1063 1.291 . S
C1064 C1065 1.373 . S
C1064 H1077 0.929 . S
C1065 C1064 1.373 . S
C1065 C1066 1.396 . S
C1065 C1072 1.403 . S
C1066 C1056 1.476 . S
C1066 N1061 1.318 . S
C1066 C1065 1.396 . S
H1067 C1062 0.929 . S
O1068 Mn1044 2.385 . S
O1068 C1046 1.234 . S
O1069 Mn1044 2.209 . S
O1069 Mn1045 2.215 . S
O1069 C1046 1.283 . S
O1070 Mn1044 2.094 . S
O1070 C1048 1.240 . S
O1071 Mn1045 2.117 . S
O1071 C1048 1.264 . S
C1072 C1065 1.403 . S
C1072 C1073 1.399 . S
C1072 H1078 0.929 . S
C1073 C1053 1.449 . S
C1073 C1072 1.399 . S
C1073 H1079 0.930 . S
H1074 C1054 0.931 . S
H1075 C1055 0.930 . S
H1076 C1063 0.931 . S
H1077 C1064 0.929 . S
H1078 C1072 0.929 . S
H1079 C1073 0.930 . S
Mn1080 O1085 2.095 . S
Mn1080 O1095 2.162 . S
Mn1080 O1096 2.297 . S
Mn1080 O1104 2.385 . S
Mn1080 O1105 2.209 . S
Mn1080 O1106 2.094 . S
Mn1081 O1086 2.121 . S
Mn1081 N1088 2.257 . S
Mn1081 N1097 2.282 . S
Mn1081 O1105 2.215 . S
Mn1081 O1107 2.117 . S
C1082 O1104 1.234 . S
C1082 O1105 1.283 . S
C1083 O1095 1.281 . S
C1083 O1096 1.236 . S
C1084 O1106 1.240 . S
C1084 O1107 1.264 . S
O1085 Mn1080 2.095 . S
O1085 C1094 1.250 . S
O1086 Mn1081 2.121 . S
O1086 C1094 1.258 . S
C1087 N1088 1.326 . S
C1087 C1091 1.460 . S
C1087 H1093 0.929 . S
N1088 Mn1081 2.257 . S
N1088 C1087 1.326 . S
N1088 C1092 1.362 . S
C1089 C1090 1.258 . S
C1089 C1092 1.431 . S
C1089 C1109 1.449 . S
C1090 C1089 1.258 . S
C1090 C1091 1.477 . S
C1090 H1110 0.931 . S
C1091 C1087 1.460 . S
C1091 C1090 1.477 . S
C1091 H1111 0.930 . S
C1092 N1088 1.362 . S
C1092 C1089 1.431 . S
C1092 C1102 1.476 . S
H1093 C1087 0.929 . S
C1094 O1085 1.250 . S
C1094 O1086 1.258 . S
O1095 Mn1080 2.162 . S
O1095 C1083 1.281 . S
O1096 Mn1080 2.297 . S
O1096 C1083 1.236 . S
N1097 Mn1081 2.282 . S
N1097 C1098 1.328 . S
N1097 C1102 1.318 . S
C1098 N1097 1.328 . S
C1098 C1099 1.457 . S
C1098 H1103 0.929 . S
C1099 C1098 1.457 . S
C1099 C1100 1.291 . S
C1099 H1112 0.931 . S
C1100 C1099 1.291 . S
C1100 C1101 1.373 . S
C1100 H1113 0.929 . S
C1101 C1100 1.373 . S
C1101 C1102 1.396 . S
C1101 C1108 1.403 . S
C1102 C1092 1.476 . S
C1102 N1097 1.318 . S
C1102 C1101 1.396 . S
H1103 C1098 0.929 . S
O1104 Mn1080 2.385 . S
O1104 C1082 1.234 . S
O1105 Mn1080 2.209 . S
O1105 Mn1081 2.215 . S
O1105 C1082 1.283 . S
O1106 Mn1080 2.094 . S
O1106 C1084 1.240 . S
O1107 Mn1081 2.117 . S
O1107 C1084 1.264 . S
C1108 C1101 1.403 . S
C1108 C1109 1.399 . S
C1108 H1114 0.929 . S
C1109 C1089 1.449 . S
C1109 C1108 1.399 . S
C1109 H1115 0.930 . S
H1110 C1090 0.931 . S
H1111 C1091 0.930 . S
H1112 C1099 0.931 . S
H1113 C1100 0.929 . S
H1114 C1108 0.929 . S
H1115 C1109 0.930 . S
Mn1116 O1121 2.095 . S
Mn1116 O1131 2.162 . S
Mn1116 O1132 2.297 . S
Mn1116 O1140 2.385 . S
Mn1116 O1141 2.209 . S
Mn1116 O1142 2.094 . S
Mn1117 O1122 2.121 . S
Mn1117 N1124 2.257 . S
Mn1117 N1133 2.282 . S
Mn1117 O1141 2.215 . S
Mn1117 O1143 2.117 . S
C1118 O1140 1.234 . S
C1118 O1141 1.283 . S
C1119 O1131 1.281 . S
C1119 O1132 1.236 . S
C1120 O1142 1.240 . S
C1120 O1143 1.264 . S
O1121 Mn1116 2.095 . S
O1121 C1130 1.250 . S
O1122 Mn1117 2.121 . S
O1122 C1130 1.258 . S
C1123 N1124 1.326 . S
C1123 C1127 1.460 . S
C1123 H1129 0.929 . S
N1124 Mn1117 2.257 . S
N1124 C1123 1.326 . S
N1124 C1128 1.362 . S
C1125 C1126 1.258 . S
C1125 C1128 1.431 . S
C1125 C1145 1.449 . S
C1126 C1125 1.258 . S
C1126 C1127 1.477 . S
C1126 H1146 0.931 . S
C1127 C1123 1.460 . S
C1127 C1126 1.477 . S
C1127 H1147 0.930 . S
C1128 N1124 1.362 . S
C1128 C1125 1.431 . S
C1128 C1138 1.476 . S
H1129 C1123 0.929 . S
C1130 O1121 1.250 . S
C1130 O1122 1.258 . S
O1131 Mn1116 2.162 . S
O1131 C1119 1.281 . S
O1132 Mn1116 2.297 . S
O1132 C1119 1.236 . S
N1133 Mn1117 2.282 . S
N1133 C1134 1.328 . S
N1133 C1138 1.318 . S
C1134 N1133 1.328 . S
C1134 C1135 1.457 . S
C1134 H1139 0.929 . S
C1135 C1134 1.457 . S
C1135 C1136 1.291 . S
C1135 H1148 0.931 . S
C1136 C1135 1.291 . S
C1136 C1137 1.373 . S
C1136 H1149 0.929 . S
C1137 C1136 1.373 . S
C1137 C1138 1.396 . S
C1137 C1144 1.403 . S
C1138 C1128 1.476 . S
C1138 N1133 1.318 . S
C1138 C1137 1.396 . S
H1139 C1134 0.929 . S
O1140 Mn1116 2.385 . S
O1140 C1118 1.234 . S
O1141 Mn1116 2.209 . S
O1141 Mn1117 2.215 . S
O1141 C1118 1.283 . S
O1142 Mn1116 2.094 . S
O1142 C1120 1.240 . S
O1143 Mn1117 2.117 . S
O1143 C1120 1.264 . S
C1144 C1137 1.403 . S
C1144 C1145 1.399 . S
C1144 H1150 0.929 . S
C1145 C1125 1.449 . S
C1145 C1144 1.399 . S
C1145 H1151 0.930 . S
H1146 C1126 0.931 . S
H1147 C1127 0.930 . S
H1148 C1135 0.931 . S
H1149 C1136 0.929 . S
H1150 C1144 0.929 . S
H1151 C1145 0.930 . S
C1152 C1153 1.349 . S
C1152 C1154 1.327 . S
C1152 H1177 0.950 . S
C1153 C1152 1.349 . S
C1153 C1169 1.349 . S
C1154 C1152 1.327 . S
C1154 C1173 1.429 . S
C1154 H1178 0.950 . S
C1155 C1172 1.574 . S
C1155 C1174 1.368 . S
C1155 H1179 0.949 . S
H1156 C1160 0.949 . S
C1157 C1158 1.349 . S
C1157 C1159 1.327 . S
C1157 H1180 0.950 . S
C1158 C1157 1.349 . S
C1158 C1170 1.349 . S
C1159 C1157 1.327 . S
C1159 C1175 1.429 . S
C1159 H1181 0.950 . S
C1160 H1156 0.949 . S
C1160 C1168 1.574 . S
C1160 C1176 1.368 . S
H1161 C1169 0.950 . S
H1162 C1167 0.950 . S
H1163 C1168 0.949 . S
H1164 C1170 0.950 . S
H1165 C1171 0.950 . S
H1166 C1172 0.949 . S
C1167 H1162 0.950 . S
C1167 C1169 1.327 . S
C1167 C1173 1.429 . S
C1168 C1160 1.574 . S
C1168 H1163 0.949 . S
C1168 C1174 1.368 . S
C1169 C1153 1.349 . S
C1169 H1161 0.950 . S
C1169 C1167 1.327 . S
C1170 C1158 1.349 . S
C1170 H1164 0.950 . S
C1170 C1171 1.327 . S
C1171 H1165 0.950 . S
C1171 C1170 1.327 . S
C1171 C1175 1.429 . S
C1172 C1155 1.574 . S
C1172 H1166 0.949 . S
C1172 C1176 1.368 . S
C1173 C1154 1.429 . S
C1173 C1167 1.429 . S
C1173 C1174 1.523 . S
C1174 C1155 1.368 . S
C1174 C1168 1.368 . S
C1174 C1173 1.523 . S
C1175 C1159 1.429 . S
C1175 C1171 1.429 . S
C1175 C1176 1.523 . S
C1176 C1160 1.368 . S
C1176 C1172 1.368 . S
C1176 C1175 1.523 . S
H1177 C1152 0.950 . S
H1178 C1154 0.950 . S
H1179 C1155 0.949 . S
H1180 C1157 0.950 . S
H1181 C1159 0.950 . S
C1182 C1183 1.349 . S
C1182 C1184 1.327 . S
C1182 H1207 0.950 . S
C1183 C1182 1.349 . S
C1183 C1199 1.349 . S
C1184 C1182 1.327 . S
C1184 C1203 1.429 . S
C1184 H1208 0.950 . S
C1185 C1202 1.574 . S
C1185 C1204 1.368 . S
C1185 H1209 0.949 . S
H1186 C1190 0.949 . S
C1187 C1188 1.349 . S
C1187 C1189 1.327 . S
C1187 H1210 0.950 . S
C1188 C1187 1.349 . S
C1188 C1200 1.349 . S
C1189 C1187 1.327 . S
C1189 C1205 1.429 . S
C1189 H1211 0.950 . S
C1190 H1186 0.949 . S
C1190 C1198 1.574 . S
C1190 C1206 1.368 . S
H1191 C1199 0.950 . S
H1192 C1197 0.950 . S
H1193 C1198 0.949 . S
H1194 C1200 0.950 . S
H1195 C1201 0.950 . S
H1196 C1202 0.949 . S
C1197 H1192 0.950 . S
C1197 C1199 1.327 . S
C1197 C1203 1.429 . S
C1198 C1190 1.574 . S
C1198 H1193 0.949 . S
C1198 C1204 1.368 . S
C1199 C1183 1.349 . S
C1199 H1191 0.950 . S
C1199 C1197 1.327 . S
C1200 C1188 1.349 . S
C1200 H1194 0.950 . S
C1200 C1201 1.327 . S
C1201 H1195 0.950 . S
C1201 C1200 1.327 . S
C1201 C1205 1.429 . S
C1202 C1185 1.574 . S
C1202 H1196 0.949 . S
C1202 C1206 1.368 . S
C1203 C1184 1.429 . S
C1203 C1197 1.429 . S
C1203 C1204 1.523 . S
C1204 C1185 1.368 . S
C1204 C1198 1.368 . S
C1204 C1203 1.523 . S
C1205 C1189 1.429 . S
C1205 C1201 1.429 . S
C1205 C1206 1.523 . S
C1206 C1190 1.368 . S
C1206 C1202 1.368 . S
C1206 C1205 1.523 . S
H1207 C1182 0.950 . S
H1208 C1184 0.950 . S
H1209 C1185 0.949 . S
H1210 C1187 0.950 . S
H1211 C1189 0.950 . S
C1212 C1213 1.349 . S
C1212 C1214 1.327 . S
C1212 H1237 0.950 . S
C1213 C1212 1.349 . S
C1213 C1229 1.349 . S
C1214 C1212 1.327 . S
C1214 C1233 1.429 . S
C1214 H1238 0.950 . S
C1215 C1232 1.574 . S
C1215 C1234 1.368 . S
C1215 H1239 0.949 . S
H1216 C1220 0.949 . S
C1217 C1218 1.349 . S
C1217 C1219 1.327 . S
C1217 H1240 0.950 . S
C1218 C1217 1.349 . S
C1218 C1230 1.349 . S
C1219 C1217 1.327 . S
C1219 C1235 1.429 . S
C1219 H1241 0.950 . S
C1220 H1216 0.949 . S
C1220 C1228 1.574 . S
C1220 C1236 1.368 . S
H1221 C1229 0.950 . S
H1222 C1227 0.950 . S
H1223 C1228 0.949 . S
H1224 C1230 0.950 . S
H1225 C1231 0.950 . S
H1226 C1232 0.949 . S
C1227 H1222 0.950 . S
C1227 C1229 1.327 . S
C1227 C1233 1.429 . S
C1228 C1220 1.574 . S
C1228 H1223 0.949 . S
C1228 C1234 1.368 . S
C1229 C1213 1.349 . S
C1229 H1221 0.950 . S
C1229 C1227 1.327 . S
C1230 C1218 1.349 . S
C1230 H1224 0.950 . S
C1230 C1231 1.327 . S
C1231 H1225 0.950 . S
C1231 C1230 1.327 . S
C1231 C1235 1.429 . S
C1232 C1215 1.574 . S
C1232 H1226 0.949 . S
C1232 C1236 1.368 . S
C1233 C1214 1.429 . S
C1233 C1227 1.429 . S
C1233 C1234 1.523 . S
C1234 C1215 1.368 . S
C1234 C1228 1.368 . S
C1234 C1233 1.523 . S
C1235 C1219 1.429 . S
C1235 C1231 1.429 . S
C1235 C1236 1.523 . S
C1236 C1220 1.368 . S
C1236 C1232 1.368 . S
C1236 C1235 1.523 . S
H1237 C1212 0.950 . S
H1238 C1214 0.950 . S
H1239 C1215 0.949 . S
H1240 C1217 0.950 . S
H1241 C1219 0.950 . S
C1242 C1243 1.349 . S
C1242 C1244 1.327 . S
C1242 H1267 0.950 . S
C1243 C1242 1.349 . S
C1243 C1259 1.349 . S
C1244 C1242 1.327 . S
C1244 C1263 1.429 . S
C1244 H1268 0.950 . S
C1245 C1262 1.574 . S
C1245 C1264 1.368 . S
C1245 H1269 0.949 . S
H1246 C1250 0.949 . S
C1247 C1248 1.349 . S
C1247 C1249 1.327 . S
C1247 H1270 0.950 . S
C1248 C1247 1.349 . S
C1248 C1260 1.349 . S
C1249 C1247 1.327 . S
C1249 C1265 1.429 . S
C1249 H1271 0.950 . S
C1250 H1246 0.949 . S
C1250 C1258 1.574 . S
C1250 C1266 1.368 . S
H1251 C1259 0.950 . S
H1252 C1257 0.950 . S
H1253 C1258 0.949 . S
H1254 C1260 0.950 . S
H1255 C1261 0.950 . S
H1256 C1262 0.949 . S
C1257 H1252 0.950 . S
C1257 C1259 1.327 . S
C1257 C1263 1.429 . S
C1258 C1250 1.574 . S
C1258 H1253 0.949 . S
C1258 C1264 1.368 . S
C1259 C1243 1.349 . S
C1259 H1251 0.950 . S
C1259 C1257 1.327 . S
C1260 C1248 1.349 . S
C1260 H1254 0.950 . S
C1260 C1261 1.327 . S
C1261 H1255 0.950 . S
C1261 C1260 1.327 . S
C1261 C1265 1.429 . S
C1262 C1245 1.574 . S
C1262 H1256 0.949 . S
C1262 C1266 1.368 . S
C1263 C1244 1.429 . S
C1263 C1257 1.429 . S
C1263 C1264 1.523 . S
C1264 C1245 1.368 . S
C1264 C1258 1.368 . S
C1264 C1263 1.523 . S
C1265 C1249 1.429 . S
C1265 C1261 1.429 . S
C1265 C1266 1.523 . S
C1266 C1250 1.368 . S
C1266 C1262 1.368 . S
C1266 C1265 1.523 . S
H1267 C1242 0.950 . S
H1268 C1244 0.950 . S
H1269 C1245 0.949 . S
H1270 C1247 0.950 . S
H1271 C1249 0.950 . S
C1272 C1273 1.349 . S
C1272 C1274 1.327 . S
C1272 H1297 0.950 . S
C1273 C1272 1.349 . S
C1273 C1289 1.349 . S
C1274 C1272 1.327 . S
C1274 C1293 1.429 . S
C1274 H1298 0.950 . S
C1275 C1292 1.574 . S
C1275 C1294 1.368 . S
C1275 H1299 0.949 . S
H1276 C1280 0.949 . S
C1277 C1278 1.349 . S
C1277 C1279 1.327 . S
C1277 H1300 0.950 . S
C1278 C1277 1.349 . S
C1278 C1290 1.349 . S
C1279 C1277 1.327 . S
C1279 C1295 1.429 . S
C1279 H1301 0.950 . S
C1280 H1276 0.949 . S
C1280 C1288 1.574 . S
C1280 C1296 1.368 . S
H1281 C1289 0.950 . S
H1282 C1287 0.950 . S
H1283 C1288 0.949 . S
H1284 C1290 0.950 . S
H1285 C1291 0.950 . S
H1286 C1292 0.949 . S
C1287 H1282 0.950 . S
C1287 C1289 1.327 . S
C1287 C1293 1.429 . S
C1288 C1280 1.574 . S
C1288 H1283 0.949 . S
C1288 C1294 1.368 . S
C1289 C1273 1.349 . S
C1289 H1281 0.950 . S
C1289 C1287 1.327 . S
C1290 C1278 1.349 . S
C1290 H1284 0.950 . S
C1290 C1291 1.327 . S
C1291 H1285 0.950 . S
C1291 C1290 1.327 . S
C1291 C1295 1.429 . S
C1292 C1275 1.574 . S
C1292 H1286 0.949 . S
C1292 C1296 1.368 . S
C1293 C1274 1.429 . S
C1293 C1287 1.429 . S
C1293 C1294 1.523 . S
C1294 C1275 1.368 . S
C1294 C1288 1.368 . S
C1294 C1293 1.523 . S
C1295 C1279 1.429 . S
C1295 C1291 1.429 . S
C1295 C1296 1.523 . S
C1296 C1280 1.368 . S
C1296 C1292 1.368 . S
C1296 C1295 1.523 . S
H1297 C1272 0.950 . S
H1298 C1274 0.950 . S
H1299 C1275 0.949 . S
H1300 C1277 0.950 . S
H1301 C1279 0.950 . S
C1302 C1303 1.349 . S
C1302 C1304 1.327 . S
C1302 H1327 0.950 . S
C1303 C1302 1.349 . S
C1303 C1319 1.349 . S
C1304 C1302 1.327 . S
C1304 C1323 1.429 . S
C1304 H1328 0.950 . S
C1305 C1322 1.574 . S
C1305 C1324 1.368 . S
C1305 H1329 0.949 . S
H1306 C1310 0.949 . S
C1307 C1308 1.349 . S
C1307 C1309 1.327 . S
C1307 H1330 0.950 . S
C1308 C1307 1.349 . S
C1308 C1320 1.349 . S
C1309 C1307 1.327 . S
C1309 C1325 1.429 . S
C1309 H1331 0.950 . S
C1310 H1306 0.949 . S
C1310 C1318 1.574 . S
C1310 C1326 1.368 . S
H1311 C1319 0.950 . S
H1312 C1317 0.950 . S
H1313 C1318 0.949 . S
H1314 C1320 0.950 . S
H1315 C1321 0.950 . S
H1316 C1322 0.949 . S
C1317 H1312 0.950 . S
C1317 C1319 1.327 . S
C1317 C1323 1.429 . S
C1318 C1310 1.574 . S
C1318 H1313 0.949 . S
C1318 C1324 1.368 . S
C1319 C1303 1.349 . S
C1319 H1311 0.950 . S
C1319 C1317 1.327 . S
C1320 C1308 1.349 . S
C1320 H1314 0.950 . S
C1320 C1321 1.327 . S
C1321 H1315 0.950 . S
C1321 C1320 1.327 . S
C1321 C1325 1.429 . S
C1322 C1305 1.574 . S
C1322 H1316 0.949 . S
C1322 C1326 1.368 . S
C1323 C1304 1.429 . S
C1323 C1317 1.429 . S
C1323 C1324 1.523 . S
C1324 C1305 1.368 . S
C1324 C1318 1.368 . S
C1324 C1323 1.523 . S
C1325 C1309 1.429 . S
C1325 C1321 1.429 . S
C1325 C1326 1.523 . S
C1326 C1310 1.368 . S
C1326 C1322 1.368 . S
C1326 C1325 1.523 . S
H1327 C1302 0.950 . S
H1328 C1304 0.950 . S
H1329 C1305 0.949 . S
H1330 C1307 0.950 . S
H1331 C1309 0.950 . S
C1332 C1333 1.349 . S
C1332 C1334 1.327 . S
C1332 H1357 0.950 . S
C1333 C1332 1.349 . S
C1333 C1349 1.349 . S
C1334 C1332 1.327 . S
C1334 C1353 1.429 . S
C1334 H1358 0.950 . S
C1335 C1352 1.574 . S
C1335 C1354 1.368 . S
C1335 H1359 0.949 . S
H1336 C1340 0.949 . S
C1337 C1338 1.349 . S
C1337 C1339 1.327 . S
C1337 H1360 0.950 . S
C1338 C1337 1.349 . S
C1338 C1350 1.349 . S
C1339 C1337 1.327 . S
C1339 C1355 1.429 . S
C1339 H1361 0.950 . S
C1340 H1336 0.949 . S
C1340 C1348 1.574 . S
C1340 C1356 1.368 . S
H1341 C1349 0.950 . S
H1342 C1347 0.950 . S
H1343 C1348 0.949 . S
H1344 C1350 0.950 . S
H1345 C1351 0.950 . S
H1346 C1352 0.949 . S
C1347 H1342 0.950 . S
C1347 C1349 1.327 . S
C1347 C1353 1.429 . S
C1348 C1340 1.574 . S
C1348 H1343 0.949 . S
C1348 C1354 1.368 . S
C1349 C1333 1.349 . S
C1349 H1341 0.950 . S
C1349 C1347 1.327 . S
C1350 C1338 1.349 . S
C1350 H1344 0.950 . S
C1350 C1351 1.327 . S
C1351 H1345 0.950 . S
C1351 C1350 1.327 . S
C1351 C1355 1.429 . S
C1352 C1335 1.574 . S
C1352 H1346 0.949 . S
C1352 C1356 1.368 . S
C1353 C1334 1.429 . S
C1353 C1347 1.429 . S
C1353 C1354 1.523 . S
C1354 C1335 1.368 . S
C1354 C1348 1.368 . S
C1354 C1353 1.523 . S
C1355 C1339 1.429 . S
C1355 C1351 1.429 . S
C1355 C1356 1.523 . S
C1356 C1340 1.368 . S
C1356 C1352 1.368 . S
C1356 C1355 1.523 . S
H1357 C1332 0.950 . S
H1358 C1334 0.950 . S
H1359 C1335 0.949 . S
H1360 C1337 0.950 . S
H1361 C1339 0.950 . S
C1362 C1363 1.349 . S
C1362 C1364 1.327 . S
C1362 H1387 0.950 . S
C1363 C1362 1.349 . S
C1363 C1379 1.349 . S
C1364 C1362 1.327 . S
C1364 C1383 1.429 . S
C1364 H1388 0.950 . S
C1365 C1382 1.574 . S
C1365 C1384 1.368 . S
C1365 H1389 0.949 . S
H1366 C1370 0.949 . S
C1367 C1368 1.349 . S
C1367 C1369 1.327 . S
C1367 H1390 0.950 . S
C1368 C1367 1.349 . S
C1368 C1380 1.349 . S
C1369 C1367 1.327 . S
C1369 C1385 1.429 . S
C1369 H1391 0.950 . S
C1370 H1366 0.949 . S
C1370 C1378 1.574 . S
C1370 C1386 1.368 . S
H1371 C1379 0.950 . S
H1372 C1377 0.950 . S
H1373 C1378 0.949 . S
H1374 C1380 0.950 . S
H1375 C1381 0.950 . S
H1376 C1382 0.949 . S
C1377 H1372 0.950 . S
C1377 C1379 1.327 . S
C1377 C1383 1.429 . S
C1378 C1370 1.574 . S
C1378 H1373 0.949 . S
C1378 C1384 1.368 . S
C1379 C1363 1.349 . S
C1379 H1371 0.950 . S
C1379 C1377 1.327 . S
C1380 C1368 1.349 . S
C1380 H1374 0.950 . S
C1380 C1381 1.327 . S
C1381 H1375 0.950 . S
C1381 C1380 1.327 . S
C1381 C1385 1.429 . S
C1382 C1365 1.574 . S
C1382 H1376 0.949 . S
C1382 C1386 1.368 . S
C1383 C1364 1.429 . S
C1383 C1377 1.429 . S
C1383 C1384 1.523 . S
C1384 C1365 1.368 . S
C1384 C1378 1.368 . S
C1384 C1383 1.523 . S
C1385 C1369 1.429 . S
C1385 C1381 1.429 . S
C1385 C1386 1.523 . S
C1386 C1370 1.368 . S
C1386 C1382 1.368 . S
C1386 C1385 1.523 . S
H1387 C1362 0.950 . S
H1388 C1364 0.950 . S
H1389 C1365 0.949 . S
H1390 C1367 0.950 . S
H1391 C1369 0.950 . S
C1392 C1393 1.349 . S
C1392 C1394 1.327 . S
C1392 H1417 0.950 . S
C1393 C1392 1.349 . S
C1393 C1409 1.349 . S
C1394 C1392 1.327 . S
C1394 C1413 1.429 . S
C1394 H1418 0.950 . S
C1395 C1412 1.574 . S
C1395 C1414 1.368 . S
C1395 H1419 0.949 . S
H1396 C1400 0.949 . S
C1397 C1398 1.349 . S
C1397 C1399 1.327 . S
C1397 H1420 0.950 . S
C1398 C1397 1.349 . S
C1398 C1410 1.349 . S
C1399 C1397 1.327 . S
C1399 C1415 1.429 . S
C1399 H1421 0.950 . S
C1400 H1396 0.949 . S
C1400 C1408 1.574 . S
C1400 C1416 1.368 . S
H1401 C1409 0.950 . S
H1402 C1407 0.950 . S
H1403 C1408 0.949 . S
H1404 C1410 0.950 . S
H1405 C1411 0.950 . S
H1406 C1412 0.949 . S
C1407 H1402 0.950 . S
C1407 C1409 1.327 . S
C1407 C1413 1.429 . S
C1408 C1400 1.574 . S
C1408 H1403 0.949 . S
C1408 C1414 1.368 . S
C1409 C1393 1.349 . S
C1409 H1401 0.950 . S
C1409 C1407 1.327 . S
C1410 C1398 1.349 . S
C1410 H1404 0.950 . S
C1410 C1411 1.327 . S
C1411 H1405 0.950 . S
C1411 C1410 1.327 . S
C1411 C1415 1.429 . S
C1412 C1395 1.574 . S
C1412 H1406 0.949 . S
C1412 C1416 1.368 . S
C1413 C1394 1.429 . S
C1413 C1407 1.429 . S
C1413 C1414 1.523 . S
C1414 C1395 1.368 . S
C1414 C1408 1.368 . S
C1414 C1413 1.523 . S
C1415 C1399 1.429 . S
C1415 C1411 1.429 . S
C1415 C1416 1.523 . S
C1416 C1400 1.368 . S
C1416 C1412 1.368 . S
C1416 C1415 1.523 . S
H1417 C1392 0.950 . S
H1418 C1394 0.950 . S
H1419 C1395 0.949 . S
H1420 C1397 0.950 . S
H1421 C1399 0.950 . S
C1422 C1423 1.349 . S
C1422 C1424 1.327 . S
C1422 H1447 0.950 . S
C1423 C1422 1.349 . S
C1423 C1439 1.349 . S
C1424 C1422 1.327 . S
C1424 C1443 1.429 . S
C1424 H1448 0.950 . S
C1425 C1442 1.574 . S
C1425 C1444 1.368 . S
C1425 H1449 0.949 . S
H1426 C1430 0.949 . S
C1427 C1428 1.349 . S
C1427 C1429 1.327 . S
C1427 H1450 0.950 . S
C1428 C1427 1.349 . S
C1428 C1440 1.349 . S
C1429 C1427 1.327 . S
C1429 C1445 1.429 . S
C1429 H1451 0.950 . S
C1430 H1426 0.949 . S
C1430 C1438 1.574 . S
C1430 C1446 1.368 . S
H1431 C1439 0.950 . S
H1432 C1437 0.950 . S
H1433 C1438 0.949 . S
H1434 C1440 0.950 . S
H1435 C1441 0.950 . S
H1436 C1442 0.949 . S
C1437 H1432 0.950 . S
C1437 C1439 1.327 . S
C1437 C1443 1.429 . S
C1438 C1430 1.574 . S
C1438 H1433 0.949 . S
C1438 C1444 1.368 . S
C1439 C1423 1.349 . S
C1439 H1431 0.950 . S
C1439 C1437 1.327 . S
C1440 C1428 1.349 . S
C1440 H1434 0.950 . S
C1440 C1441 1.327 . S
C1441 H1435 0.950 . S
C1441 C1440 1.327 . S
C1441 C1445 1.429 . S
C1442 C1425 1.574 . S
C1442 H1436 0.949 . S
C1442 C1446 1.368 . S
C1443 C1424 1.429 . S
C1443 C1437 1.429 . S
C1443 C1444 1.523 . S
C1444 C1425 1.368 . S
C1444 C1438 1.368 . S
C1444 C1443 1.523 . S
C1445 C1429 1.429 . S
C1445 C1441 1.429 . S
C1445 C1446 1.523 . S
C1446 C1430 1.368 . S
C1446 C1442 1.368 . S
C1446 C1445 1.523 . S
H1447 C1422 0.950 . S
H1448 C1424 0.950 . S
H1449 C1425 0.949 . S
H1450 C1427 0.950 . S
H1451 C1429 0.950 . S
C1452 C1453 1.349 . S
C1452 C1454 1.327 . S
C1452 H1477 0.950 . S
C1453 C1452 1.349 . S
C1453 C1469 1.349 . S
C1454 C1452 1.327 . S
C1454 C1473 1.429 . S
C1454 H1478 0.950 . S
C1455 C1472 1.574 . S
C1455 C1474 1.368 . S
C1455 H1479 0.949 . S
H1456 C1460 0.949 . S
C1457 C1458 1.349 . S
C1457 C1459 1.327 . S
C1457 H1480 0.950 . S
C1458 C1457 1.349 . S
C1458 C1470 1.349 . S
C1459 C1457 1.327 . S
C1459 C1475 1.429 . S
C1459 H1481 0.950 . S
C1460 H1456 0.949 . S
C1460 C1468 1.574 . S
C1460 C1476 1.368 . S
H1461 C1469 0.950 . S
H1462 C1467 0.950 . S
H1463 C1468 0.949 . S
H1464 C1470 0.950 . S
H1465 C1471 0.950 . S
H1466 C1472 0.949 . S
C1467 H1462 0.950 . S
C1467 C1469 1.327 . S
C1467 C1473 1.429 . S
C1468 C1460 1.574 . S
C1468 H1463 0.949 . S
C1468 C1474 1.368 . S
C1469 C1453 1.349 . S
C1469 H1461 0.950 . S
C1469 C1467 1.327 . S
C1470 C1458 1.349 . S
C1470 H1464 0.950 . S
C1470 C1471 1.327 . S
C1471 H1465 0.950 . S
C1471 C1470 1.327 . S
C1471 C1475 1.429 . S
C1472 C1455 1.574 . S
C1472 H1466 0.949 . S
C1472 C1476 1.368 . S
C1473 C1454 1.429 . S
C1473 C1467 1.429 . S
C1473 C1474 1.523 . S
C1474 C1455 1.368 . S
C1474 C1468 1.368 . S
C1474 C1473 1.523 . S
C1475 C1459 1.429 . S
C1475 C1471 1.429 . S
C1475 C1476 1.523 . S
C1476 C1460 1.368 . S
C1476 C1472 1.368 . S
C1476 C1475 1.523 . S
H1477 C1452 0.950 . S
H1478 C1454 0.950 . S
H1479 C1455 0.949 . S
H1480 C1457 0.950 . S
H1481 C1459 0.950 . S
C1482 C1483 1.349 . S
C1482 C1484 1.327 . S
C1482 H1507 0.950 . S
C1483 C1482 1.349 . S
C1483 C1499 1.349 . S
C1484 C1482 1.327 . S
C1484 C1503 1.429 . S
C1484 H1508 0.950 . S
C1485 C1502 1.574 . S
C1485 C1504 1.368 . S
C1485 H1509 0.949 . S
H1486 C1490 0.949 . S
C1487 C1488 1.349 . S
C1487 C1489 1.327 . S
C1487 H1510 0.950 . S
C1488 C1487 1.349 . S
C1488 C1500 1.349 . S
C1489 C1487 1.327 . S
C1489 C1505 1.429 . S
C1489 H1511 0.950 . S
C1490 H1486 0.949 . S
C1490 C1498 1.574 . S
C1490 C1506 1.368 . S
H1491 C1499 0.950 . S
H1492 C1497 0.950 . S
H1493 C1498 0.949 . S
H1494 C1500 0.950 . S
H1495 C1501 0.950 . S
H1496 C1502 0.949 . S
C1497 H1492 0.950 . S
C1497 C1499 1.327 . S
C1497 C1503 1.429 . S
C1498 C1490 1.574 . S
C1498 H1493 0.949 . S
C1498 C1504 1.368 . S
C1499 C1483 1.349 . S
C1499 H1491 0.950 . S
C1499 C1497 1.327 . S
C1500 C1488 1.349 . S
C1500 H1494 0.950 . S
C1500 C1501 1.327 . S
C1501 H1495 0.950 . S
C1501 C1500 1.327 . S
C1501 C1505 1.429 . S
C1502 C1485 1.574 . S
C1502 H1496 0.949 . S
C1502 C1506 1.368 . S
C1503 C1484 1.429 . S
C1503 C1497 1.429 . S
C1503 C1504 1.523 . S
C1504 C1485 1.368 . S
C1504 C1498 1.368 . S
C1504 C1503 1.523 . S
C1505 C1489 1.429 . S
C1505 C1501 1.429 . S
C1505 C1506 1.523 . S
C1506 C1490 1.368 . S
C1506 C1502 1.368 . S
C1506 C1505 1.523 . S
H1507 C1482 0.950 . S
H1508 C1484 0.950 . S
H1509 C1485 0.949 . S
H1510 C1487 0.950 . S
H1511 C1489 0.950 . S
C1512 C1513 1.349 . S
C1512 C1514 1.327 . S
C1512 H1537 0.950 . S
C1513 C1512 1.349 . S
C1513 C1529 1.349 . S
C1514 C1512 1.327 . S
C1514 C1533 1.429 . S
C1514 H1538 0.950 . S
C1515 C1532 1.574 . S
C1515 C1534 1.368 . S
C1515 H1539 0.949 . S
H1516 C1520 0.949 . S
C1517 C1518 1.349 . S
C1517 C1519 1.327 . S
C1517 H1540 0.950 . S
C1518 C1517 1.349 . S
C1518 C1530 1.349 . S
C1519 C1517 1.327 . S
C1519 C1535 1.429 . S
C1519 H1541 0.950 . S
C1520 H1516 0.949 . S
C1520 C1528 1.574 . S
C1520 C1536 1.368 . S
H1521 C1529 0.950 . S
H1522 C1527 0.950 . S
H1523 C1528 0.949 . S
H1524 C1530 0.950 . S
H1525 C1531 0.950 . S
H1526 C1532 0.949 . S
C1527 H1522 0.950 . S
C1527 C1529 1.327 . S
C1527 C1533 1.429 . S
C1528 C1520 1.574 . S
C1528 H1523 0.949 . S
C1528 C1534 1.368 . S
C1529 C1513 1.349 . S
C1529 H1521 0.950 . S
C1529 C1527 1.327 . S
C1530 C1518 1.349 . S
C1530 H1524 0.950 . S
C1530 C1531 1.327 . S
C1531 H1525 0.950 . S
C1531 C1530 1.327 . S
C1531 C1535 1.429 . S
C1532 C1515 1.574 . S
C1532 H1526 0.949 . S
C1532 C1536 1.368 . S
C1533 C1514 1.429 . S
C1533 C1527 1.429 . S
C1533 C1534 1.523 . S
C1534 C1515 1.368 . S
C1534 C1528 1.368 . S
C1534 C1533 1.523 . S
C1535 C1519 1.429 . S
C1535 C1531 1.429 . S
C1535 C1536 1.523 . S
C1536 C1520 1.368 . S
C1536 C1532 1.368 . S
C1536 C1535 1.523 . S
H1537 C1512 0.950 . S
H1538 C1514 0.950 . S
H1539 C1515 0.949 . S
H1540 C1517 0.950 . S
H1541 C1519 0.950 . S
C1542 C1543 1.349 . S
C1542 C1544 1.327 . S
C1542 H1567 0.950 . S
C1543 C1542 1.349 . S
C1543 C1559 1.349 . S
C1544 C1542 1.327 . S
C1544 C1563 1.429 . S
C1544 H1568 0.950 . S
C1545 C1562 1.574 . S
C1545 C1564 1.368 . S
C1545 H1569 0.949 . S
H1546 C1550 0.949 . S
C1547 C1548 1.349 . S
C1547 C1549 1.327 . S
C1547 H1570 0.950 . S
C1548 C1547 1.349 . S
C1548 C1560 1.349 . S
C1549 C1547 1.327 . S
C1549 C1565 1.429 . S
C1549 H1571 0.950 . S
C1550 H1546 0.949 . S
C1550 C1558 1.574 . S
C1550 C1566 1.368 . S
H1551 C1559 0.950 . S
H1552 C1557 0.950 . S
H1553 C1558 0.949 . S
H1554 C1560 0.950 . S
H1555 C1561 0.950 . S
H1556 C1562 0.949 . S
C1557 H1552 0.950 . S
C1557 C1559 1.327 . S
C1557 C1563 1.429 . S
C1558 C1550 1.574 . S
C1558 H1553 0.949 . S
C1558 C1564 1.368 . S
C1559 C1543 1.349 . S
C1559 H1551 0.950 . S
C1559 C1557 1.327 . S
C1560 C1548 1.349 . S
C1560 H1554 0.950 . S
C1560 C1561 1.327 . S
C1561 H1555 0.950 . S
C1561 C1560 1.327 . S
C1561 C1565 1.429 . S
C1562 C1545 1.574 . S
C1562 H1556 0.949 . S
C1562 C1566 1.368 . S
C1563 C1544 1.429 . S
C1563 C1557 1.429 . S
C1563 C1564 1.523 . S
C1564 C1545 1.368 . S
C1564 C1558 1.368 . S
C1564 C1563 1.523 . S
C1565 C1549 1.429 . S
C1565 C1561 1.429 . S
C1565 C1566 1.523 . S
C1566 C1550 1.368 . S
C1566 C1562 1.368 . S
C1566 C1565 1.523 . S
H1567 C1542 0.950 . S
H1568 C1544 0.950 . S
H1569 C1545 0.949 . S
H1570 C1547 0.950 . S
H1571 C1549 0.950 . S
C1572 C1573 1.349 . S
C1572 C1574 1.327 . S
C1572 H1597 0.950 . S
C1573 C1572 1.349 . S
C1573 C1589 1.349 . S
C1574 C1572 1.327 . S
C1574 C1593 1.429 . S
C1574 H1598 0.950 . S
C1575 C1592 1.574 . S
C1575 C1594 1.368 . S
C1575 H1599 0.949 . S
H1576 C1580 0.949 . S
C1577 C1578 1.349 . S
C1577 C1579 1.327 . S
C1577 H1600 0.950 . S
C1578 C1577 1.349 . S
C1578 C1590 1.349 . S
C1579 C1577 1.327 . S
C1579 C1595 1.429 . S
C1579 H1601 0.950 . S
C1580 H1576 0.949 . S
C1580 C1588 1.574 . S
C1580 C1596 1.368 . S
H1581 C1589 0.950 . S
H1582 C1587 0.950 . S
H1583 C1588 0.949 . S
H1584 C1590 0.950 . S
H1585 C1591 0.950 . S
H1586 C1592 0.949 . S
C1587 H1582 0.950 . S
C1587 C1589 1.327 . S
C1587 C1593 1.429 . S
C1588 C1580 1.574 . S
C1588 H1583 0.949 . S
C1588 C1594 1.368 . S
C1589 C1573 1.349 . S
C1589 H1581 0.950 . S
C1589 C1587 1.327 . S
C1590 C1578 1.349 . S
C1590 H1584 0.950 . S
C1590 C1591 1.327 . S
C1591 H1585 0.950 . S
C1591 C1590 1.327 . S
C1591 C1595 1.429 . S
C1592 C1575 1.574 . S
C1592 H1586 0.949 . S
C1592 C1596 1.368 . S
C1593 C1574 1.429 . S
C1593 C1587 1.429 . S
C1593 C1594 1.523 . S
C1594 C1575 1.368 . S
C1594 C1588 1.368 . S
C1594 C1593 1.523 . S
C1595 C1579 1.429 . S
C1595 C1591 1.429 . S
C1595 C1596 1.523 . S
C1596 C1580 1.368 . S
C1596 C1592 1.368 . S
C1596 C1595 1.523 . S
H1597 C1572 0.950 . S
H1598 C1574 0.950 . S
H1599 C1575 0.949 . S
H1600 C1577 0.950 . S
H1601 C1579 0.950 . S
C1602 C1603 1.349 . S
C1602 C1604 1.327 . S
C1602 H1627 0.950 . S
C1603 C1602 1.349 . S
C1603 C1619 1.349 . S
C1604 C1602 1.327 . S
C1604 C1623 1.429 . S
C1604 H1628 0.950 . S
C1605 C1622 1.574 . S
C1605 C1624 1.368 . S
C1605 H1629 0.949 . S
H1606 C1610 0.949 . S
C1607 C1608 1.349 . S
C1607 C1609 1.327 . S
C1607 H1630 0.950 . S
C1608 C1607 1.349 . S
C1608 C1620 1.349 . S
C1609 C1607 1.327 . S
C1609 C1625 1.429 . S
C1609 H1631 0.950 . S
C1610 H1606 0.949 . S
C1610 C1618 1.574 . S
C1610 C1626 1.368 . S
H1611 C1619 0.950 . S
H1612 C1617 0.950 . S
H1613 C1618 0.949 . S
H1614 C1620 0.950 . S
H1615 C1621 0.950 . S
H1616 C1622 0.949 . S
C1617 H1612 0.950 . S
C1617 C1619 1.327 . S
C1617 C1623 1.429 . S
C1618 C1610 1.574 . S
C1618 H1613 0.949 . S
C1618 C1624 1.368 . S
C1619 C1603 1.349 . S
C1619 H1611 0.950 . S
C1619 C1617 1.327 . S
C1620 C1608 1.349 . S
C1620 H1614 0.950 . S
C1620 C1621 1.327 . S
C1621 H1615 0.950 . S
C1621 C1620 1.327 . S
C1621 C1625 1.429 . S
C1622 C1605 1.574 . S
C1622 H1616 0.949 . S
C1622 C1626 1.368 . S
C1623 C1604 1.429 . S
C1623 C1617 1.429 . S
C1623 C1624 1.523 . S
C1624 C1605 1.368 . S
C1624 C1618 1.368 . S
C1624 C1623 1.523 . S
C1625 C1609 1.429 . S
C1625 C1621 1.429 . S
C1625 C1626 1.523 . S
C1626 C1610 1.368 . S
C1626 C1622 1.368 . S
C1626 C1625 1.523 . S
H1627 C1602 0.950 . S
H1628 C1604 0.950 . S
H1629 C1605 0.949 . S
H1630 C1607 0.950 . S
H1631 C1609 0.950 . S
C1632 C1633 1.349 . S
C1632 C1634 1.327 . S
C1632 H1657 0.950 . S
C1633 C1632 1.349 . S
C1633 C1649 1.349 . S
C1634 C1632 1.327 . S
C1634 C1653 1.429 . S
C1634 H1658 0.950 . S
C1635 C1652 1.574 1_655 S
C1635 C1654 1.368 . S
C1635 H1659 0.949 . S
H1636 C1640 0.949 . S
C1637 C1638 1.349 . S
C1637 C1639 1.327 . S
C1637 H1660 0.950 . S
C1638 C1637 1.349 . S
C1638 C1650 1.349 . S
C1639 C1637 1.327 . S
C1639 C1655 1.429 . S
C1639 H1661 0.950 . S
C1640 H1636 0.949 . S
C1640 C1648 1.574 1_455 S
C1640 C1656 1.368 . S
H1641 C1649 0.950 . S
H1642 C1647 0.950 . S
H1643 C1648 0.949 . S
H1644 C1650 0.950 . S
H1645 C1651 0.950 . S
H1646 C1652 0.949 . S
C1647 H1642 0.950 . S
C1647 C1649 1.327 . S
C1647 C1653 1.429 . S
C1648 C1640 1.574 1_655 S
C1648 H1643 0.949 . S
C1648 C1654 1.368 . S
C1649 C1633 1.349 . S
C1649 H1641 0.950 . S
C1649 C1647 1.327 . S
C1650 C1638 1.349 . S
C1650 H1644 0.950 . S
C1650 C1651 1.327 . S
C1651 H1645 0.950 . S
C1651 C1650 1.327 . S
C1651 C1655 1.429 . S
C1652 C1635 1.574 1_455 S
C1652 H1646 0.949 . S
C1652 C1656 1.368 . S
C1653 C1634 1.429 . S
C1653 C1647 1.429 . S
C1653 C1654 1.523 . S
C1654 C1635 1.368 . S
C1654 C1648 1.368 . S
C1654 C1653 1.523 . S
C1655 C1639 1.429 . S
C1655 C1651 1.429 . S
C1655 C1656 1.523 . S
C1656 C1640 1.368 . S
C1656 C1652 1.368 . S
C1656 C1655 1.523 . S
H1657 C1632 0.950 . S
H1658 C1634 0.950 . S
H1659 C1635 0.949 . S
H1660 C1637 0.950 . S
H1661 C1639 0.950 . S
C1662 C1663 1.349 . S
C1662 C1664 1.327 . S
C1662 H1687 0.950 . S
C1663 C1662 1.349 . S
C1663 C1679 1.349 . S
C1664 C1662 1.327 . S
C1664 C1683 1.429 . S
C1664 H1688 0.950 . S
C1665 C1682 1.574 1_545 S
C1665 C1684 1.368 . S
C1665 H1689 0.949 . S
H1666 C1670 0.949 . S
C1667 C1668 1.349 . S
C1667 C1669 1.327 . S
C1667 H1690 0.950 . S
C1668 C1667 1.349 . S
C1668 C1680 1.349 . S
C1669 C1667 1.327 . S
C1669 C1685 1.429 . S
C1669 H1691 0.950 . S
C1670 H1666 0.949 . S
C1670 C1678 1.574 1_565 S
C1670 C1686 1.368 . S
H1671 C1679 0.950 . S
H1672 C1677 0.950 . S
H1673 C1678 0.949 . S
H1674 C1680 0.950 . S
H1675 C1681 0.950 . S
H1676 C1682 0.949 . S
C1677 H1672 0.950 . S
C1677 C1679 1.327 . S
C1677 C1683 1.429 . S
C1678 C1670 1.574 1_545 S
C1678 H1673 0.949 . S
C1678 C1684 1.368 . S
C1679 C1663 1.349 . S
C1679 H1671 0.950 . S
C1679 C1677 1.327 . S
C1680 C1668 1.349 . S
C1680 H1674 0.950 . S
C1680 C1681 1.327 . S
C1681 H1675 0.950 . S
C1681 C1680 1.327 . S
C1681 C1685 1.429 . S
C1682 C1665 1.574 1_565 S
C1682 H1676 0.949 . S
C1682 C1686 1.368 . S
C1683 C1664 1.429 . S
C1683 C1677 1.429 . S
C1683 C1684 1.523 . S
C1684 C1665 1.368 . S
C1684 C1678 1.368 . S
C1684 C1683 1.523 . S
C1685 C1669 1.429 . S
C1685 C1681 1.429 . S
C1685 C1686 1.523 . S
C1686 C1670 1.368 . S
C1686 C1682 1.368 . S
C1686 C1685 1.523 . S
H1687 C1662 0.950 . S
H1688 C1664 0.950 . S
H1689 C1665 0.949 . S
H1690 C1667 0.950 . S
H1691 C1669 0.950 . S
C1692 C1693 1.349 . S
C1692 C1694 1.327 . S
C1692 H1717 0.950 . S
C1693 C1692 1.349 . S
C1693 C1709 1.349 . S
C1694 C1692 1.327 . S
C1694 C1713 1.429 . S
C1694 H1718 0.950 . S
C1695 C1712 1.574 1_455 S
C1695 C1714 1.368 . S
C1695 H1719 0.949 . S
H1696 C1700 0.949 . S
C1697 C1698 1.349 . S
C1697 C1699 1.327 . S
C1697 H1720 0.950 . S
C1698 C1697 1.349 . S
C1698 C1710 1.349 . S
C1699 C1697 1.327 . S
C1699 C1715 1.429 . S
C1699 H1721 0.950 . S
C1700 H1696 0.949 . S
C1700 C1708 1.574 1_655 S
C1700 C1716 1.368 . S
H1701 C1709 0.950 . S
H1702 C1707 0.950 . S
H1703 C1708 0.949 . S
H1704 C1710 0.950 . S
H1705 C1711 0.950 . S
H1706 C1712 0.949 . S
C1707 H1702 0.950 . S
C1707 C1709 1.327 . S
C1707 C1713 1.429 . S
C1708 C1700 1.574 1_455 S
C1708 H1703 0.949 . S
C1708 C1714 1.368 . S
C1709 C1693 1.349 . S
C1709 H1701 0.950 . S
C1709 C1707 1.327 . S
C1710 C1698 1.349 . S
C1710 H1704 0.950 . S
C1710 C1711 1.327 . S
C1711 H1705 0.950 . S
C1711 C1710 1.327 . S
C1711 C1715 1.429 . S
C1712 C1695 1.574 1_655 S
C1712 H1706 0.949 . S
C1712 C1716 1.368 . S
C1713 C1694 1.429 . S
C1713 C1707 1.429 . S
C1713 C1714 1.523 . S
C1714 C1695 1.368 . S
C1714 C1708 1.368 . S
C1714 C1713 1.523 . S
C1715 C1699 1.429 . S
C1715 C1711 1.429 . S
C1715 C1716 1.523 . S
C1716 C1700 1.368 . S
C1716 C1712 1.368 . S
C1716 C1715 1.523 . S
H1717 C1692 0.950 . S
H1718 C1694 0.950 . S
H1719 C1695 0.949 . S
H1720 C1697 0.950 . S
H1721 C1699 0.950 . S
C1722 C1723 1.349 . S
C1722 C1724 1.327 . S
C1722 H1747 0.950 . S
C1723 C1722 1.349 . S
C1723 C1739 1.349 . S
C1724 C1722 1.327 . S
C1724 C1743 1.429 . S
C1724 H1748 0.950 . S
C1725 C1742 1.574 1_565 S
C1725 C1744 1.368 . S
C1725 H1749 0.949 . S
H1726 C1730 0.949 . S
C1727 C1728 1.349 . S
C1727 C1729 1.327 . S
C1727 H1750 0.950 . S
C1728 C1727 1.349 . S
C1728 C1740 1.349 . S
C1729 C1727 1.327 . S
C1729 C1745 1.429 . S
C1729 H1751 0.950 . S
C1730 H1726 0.949 . S
C1730 C1738 1.574 1_545 S
C1730 C1746 1.368 . S
H1731 C1739 0.950 . S
H1732 C1737 0.950 . S
H1733 C1738 0.949 . S
H1734 C1740 0.950 . S
H1735 C1741 0.950 . S
H1736 C1742 0.949 . S
C1737 H1732 0.950 . S
C1737 C1739 1.327 . S
C1737 C1743 1.429 . S
C1738 C1730 1.574 1_565 S
C1738 H1733 0.949 . S
C1738 C1744 1.368 . S
C1739 C1723 1.349 . S
C1739 H1731 0.950 . S
C1739 C1737 1.327 . S
C1740 C1728 1.349 . S
C1740 H1734 0.950 . S
C1740 C1741 1.327 . S
C1741 H1735 0.950 . S
C1741 C1740 1.327 . S
C1741 C1745 1.429 . S
C1742 C1725 1.574 1_545 S
C1742 H1736 0.949 . S
C1742 C1746 1.368 . S
C1743 C1724 1.429 . S
C1743 C1737 1.429 . S
C1743 C1744 1.523 . S
C1744 C1725 1.368 . S
C1744 C1738 1.368 . S
C1744 C1743 1.523 . S
C1745 C1729 1.429 . S
C1745 C1741 1.429 . S
C1745 C1746 1.523 . S
C1746 C1730 1.368 . S
C1746 C1742 1.368 . S
C1746 C1745 1.523 . S
H1747 C1722 0.950 . S
H1748 C1724 0.950 . S
H1749 C1725 0.949 . S
H1750 C1727 0.950 . S
H1751 C1729 0.950 . S
C1752 C1753 1.349 . S
C1752 C1754 1.327 . S
C1752 H1777 0.950 . S
C1753 C1752 1.349 . S
C1753 C1769 1.349 . S
C1754 C1752 1.327 . S
C1754 C1773 1.429 . S
C1754 H1778 0.950 . S
C1755 C1772 1.574 1_455 S
C1755 C1774 1.368 . S
C1755 H1779 0.949 . S
H1756 C1760 0.949 . S
C1757 C1758 1.349 . S
C1757 C1759 1.327 . S
C1757 H1780 0.950 . S
C1758 C1757 1.349 . S
C1758 C1770 1.349 . S
C1759 C1757 1.327 . S
C1759 C1775 1.429 . S
C1759 H1781 0.950 . S
C1760 H1756 0.949 . S
C1760 C1768 1.574 1_655 S
C1760 C1776 1.368 . S
H1761 C1769 0.950 . S
H1762 C1767 0.950 . S
H1763 C1768 0.949 . S
H1764 C1770 0.950 . S
H1765 C1771 0.950 . S
H1766 C1772 0.949 . S
C1767 H1762 0.950 . S
C1767 C1769 1.327 . S
C1767 C1773 1.429 . S
C1768 C1760 1.574 1_455 S
C1768 H1763 0.949 . S
C1768 C1774 1.368 . S
C1769 C1753 1.349 . S
C1769 H1761 0.950 . S
C1769 C1767 1.327 . S
C1770 C1758 1.349 . S
C1770 H1764 0.950 . S
C1770 C1771 1.327 . S
C1771 H1765 0.950 . S
C1771 C1770 1.327 . S
C1771 C1775 1.429 . S
C1772 C1755 1.574 1_655 S
C1772 H1766 0.949 . S
C1772 C1776 1.368 . S
C1773 C1754 1.429 . S
C1773 C1767 1.429 . S
C1773 C1774 1.523 . S
C1774 C1755 1.368 . S
C1774 C1768 1.368 . S
C1774 C1773 1.523 . S
C1775 C1759 1.429 . S
C1775 C1771 1.429 . S
C1775 C1776 1.523 . S
C1776 C1760 1.368 . S
C1776 C1772 1.368 . S
C1776 C1775 1.523 . S
H1777 C1752 0.950 . S
H1778 C1754 0.950 . S
H1779 C1755 0.949 . S
H1780 C1757 0.950 . S
H1781 C1759 0.950 . S
C1782 C1783 1.349 . S
C1782 C1784 1.327 . S
C1782 H1807 0.950 . S
C1783 C1782 1.349 . S
C1783 C1799 1.349 . S
C1784 C1782 1.327 . S
C1784 C1803 1.429 . S
C1784 H1808 0.950 . S
C1785 C1802 1.574 1_565 S
C1785 C1804 1.368 . S
C1785 H1809 0.949 . S
H1786 C1790 0.949 . S
C1787 C1788 1.349 . S
C1787 C1789 1.327 . S
C1787 H1810 0.950 . S
C1788 C1787 1.349 . S
C1788 C1800 1.349 . S
C1789 C1787 1.327 . S
C1789 C1805 1.429 . S
C1789 H1811 0.950 . S
C1790 H1786 0.949 . S
C1790 C1798 1.574 1_545 S
C1790 C1806 1.368 . S
H1791 C1799 0.950 . S
H1792 C1797 0.950 . S
H1793 C1798 0.949 . S
H1794 C1800 0.950 . S
H1795 C1801 0.950 . S
H1796 C1802 0.949 . S
C1797 H1792 0.950 . S
C1797 C1799 1.327 . S
C1797 C1803 1.429 . S
C1798 C1790 1.574 1_565 S
C1798 H1793 0.949 . S
C1798 C1804 1.368 . S
C1799 C1783 1.349 . S
C1799 H1791 0.950 . S
C1799 C1797 1.327 . S
C1800 C1788 1.349 . S
C1800 H1794 0.950 . S
C1800 C1801 1.327 . S
C1801 H1795 0.950 . S
C1801 C1800 1.327 . S
C1801 C1805 1.429 . S
C1802 C1785 1.574 1_545 S
C1802 H1796 0.949 . S
C1802 C1806 1.368 . S
C1803 C1784 1.429 . S
C1803 C1797 1.429 . S
C1803 C1804 1.523 . S
C1804 C1785 1.368 . S
C1804 C1798 1.368 . S
C1804 C1803 1.523 . S
C1805 C1789 1.429 . S
C1805 C1801 1.429 . S
C1805 C1806 1.523 . S
C1806 C1790 1.368 . S
C1806 C1802 1.368 . S
C1806 C1805 1.523 . S
H1807 C1782 0.950 . S
H1808 C1784 0.950 . S
H1809 C1785 0.949 . S
H1810 C1787 0.950 . S
H1811 C1789 0.950 . S
C1812 C1813 1.349 . S
C1812 C1814 1.327 . S
C1812 H1837 0.950 . S
C1813 C1812 1.349 . S
C1813 C1829 1.349 . S
C1814 C1812 1.327 . S
C1814 C1833 1.429 . S
C1814 H1838 0.950 . S
C1815 C1832 1.574 1_455 S
C1815 C1834 1.368 . S
C1815 H1839 0.949 . S
H1816 C1820 0.949 . S
C1817 C1818 1.349 . S
C1817 C1819 1.327 . S
C1817 H1840 0.950 . S
C1818 C1817 1.349 . S
C1818 C1830 1.349 . S
C1819 C1817 1.327 . S
C1819 C1835 1.429 . S
C1819 H1841 0.950 . S
C1820 H1816 0.949 . S
C1820 C1828 1.574 1_655 S
C1820 C1836 1.368 . S
H1821 C1829 0.950 . S
H1822 C1827 0.950 . S
H1823 C1828 0.949 . S
H1824 C1830 0.950 . S
H1825 C1831 0.950 . S
H1826 C1832 0.949 . S
C1827 H1822 0.950 . S
C1827 C1829 1.327 . S
C1827 C1833 1.429 . S
C1828 C1820 1.574 1_455 S
C1828 H1823 0.949 . S
C1828 C1834 1.368 . S
C1829 C1813 1.349 . S
C1829 H1821 0.950 . S
C1829 C1827 1.327 . S
C1830 C1818 1.349 . S
C1830 H1824 0.950 . S
C1830 C1831 1.327 . S
C1831 H1825 0.950 . S
C1831 C1830 1.327 . S
C1831 C1835 1.429 . S
C1832 C1815 1.574 1_655 S
C1832 H1826 0.949 . S
C1832 C1836 1.368 . S
C1833 C1814 1.429 . S
C1833 C1827 1.429 . S
C1833 C1834 1.523 . S
C1834 C1815 1.368 . S
C1834 C1828 1.368 . S
C1834 C1833 1.523 . S
C1835 C1819 1.429 . S
C1835 C1831 1.429 . S
C1835 C1836 1.523 . S
C1836 C1820 1.368 . S
C1836 C1832 1.368 . S
C1836 C1835 1.523 . S
H1837 C1812 0.950 . S
H1838 C1814 0.950 . S
H1839 C1815 0.949 . S
H1840 C1817 0.950 . S
H1841 C1819 0.950 . S
C1842 C1843 1.349 . S
C1842 C1844 1.327 . S
C1842 H1867 0.950 . S
C1843 C1842 1.349 . S
C1843 C1859 1.349 . S
C1844 C1842 1.327 . S
C1844 C1863 1.429 . S
C1844 H1868 0.950 . S
C1845 C1862 1.574 1_545 S
C1845 C1864 1.368 . S
C1845 H1869 0.949 . S
H1846 C1850 0.949 . S
C1847 C1848 1.349 . S
C1847 C1849 1.327 . S
C1847 H1870 0.950 . S
C1848 C1847 1.349 . S
C1848 C1860 1.349 . S
C1849 C1847 1.327 . S
C1849 C1865 1.429 . S
C1849 H1871 0.950 . S
C1850 H1846 0.949 . S
C1850 C1858 1.574 1_565 S
C1850 C1866 1.368 . S
H1851 C1859 0.950 . S
H1852 C1857 0.950 . S
H1853 C1858 0.949 . S
H1854 C1860 0.950 . S
H1855 C1861 0.950 . S
H1856 C1862 0.949 . S
C1857 H1852 0.950 . S
C1857 C1859 1.327 . S
C1857 C1863 1.429 . S
C1858 C1850 1.574 1_545 S
C1858 H1853 0.949 . S
C1858 C1864 1.368 . S
C1859 C1843 1.349 . S
C1859 H1851 0.950 . S
C1859 C1857 1.327 . S
C1860 C1848 1.349 . S
C1860 H1854 0.950 . S
C1860 C1861 1.327 . S
C1861 H1855 0.950 . S
C1861 C1860 1.327 . S
C1861 C1865 1.429 . S
C1862 C1845 1.574 1_565 S
C1862 H1856 0.949 . S
C1862 C1866 1.368 . S
C1863 C1844 1.429 . S
C1863 C1857 1.429 . S
C1863 C1864 1.523 . S
C1864 C1845 1.368 . S
C1864 C1858 1.368 . S
C1864 C1863 1.523 . S
C1865 C1849 1.429 . S
C1865 C1861 1.429 . S
C1865 C1866 1.523 . S
C1866 C1850 1.368 . S
C1866 C1862 1.368 . S
C1866 C1865 1.523 . S
H1867 C1842 0.950 . S
H1868 C1844 0.950 . S
H1869 C1845 0.949 . S
H1870 C1847 0.950 . S
H1871 C1849 0.950 . S
C1872 C1873 1.349 . S
C1872 C1874 1.327 . S
C1872 H1897 0.950 . S
C1873 C1872 1.349 . S
C1873 C1889 1.349 . S
C1874 C1872 1.327 . S
C1874 C1893 1.429 . S
C1874 H1898 0.950 . S
C1875 C1892 1.574 . S
C1875 C1894 1.368 . S
C1875 H1899 0.949 . S
H1876 C1880 0.949 . S
C1877 C1878 1.349 . S
C1877 C1879 1.327 . S
C1877 H1900 0.950 . S
C1878 C1877 1.349 . S
C1878 C1890 1.349 . S
C1879 C1877 1.327 . S
C1879 C1895 1.429 . S
C1879 H1901 0.950 . S
C1880 H1876 0.949 . S
C1880 C1888 1.574 . S
C1880 C1896 1.368 . S
H1881 C1889 0.950 . S
H1882 C1887 0.950 . S
H1883 C1888 0.949 . S
H1884 C1890 0.950 . S
H1885 C1891 0.950 . S
H1886 C1892 0.949 . S
C1887 H1882 0.950 . S
C1887 C1889 1.327 . S
C1887 C1893 1.429 . S
C1888 C1880 1.574 . S
C1888 H1883 0.949 . S
C1888 C1894 1.368 . S
C1889 C1873 1.349 . S
C1889 H1881 0.950 . S
C1889 C1887 1.327 . S
C1890 C1878 1.349 . S
C1890 H1884 0.950 . S
C1890 C1891 1.327 . S
C1891 H1885 0.950 . S
C1891 C1890 1.327 . S
C1891 C1895 1.429 . S
C1892 C1875 1.574 . S
C1892 H1886 0.949 . S
C1892 C1896 1.368 . S
C1893 C1874 1.429 . S
C1893 C1887 1.429 . S
C1893 C1894 1.523 . S
C1894 C1875 1.368 . S
C1894 C1888 1.368 . S
C1894 C1893 1.523 . S
C1895 C1879 1.429 . S
C1895 C1891 1.429 . S
C1895 C1896 1.523 . S
C1896 C1880 1.368 . S
C1896 C1892 1.368 . S
C1896 C1895 1.523 . S
H1897 C1872 0.950 . S
H1898 C1874 0.950 . S
H1899 C1875 0.949 . S
H1900 C1877 0.950 . S
H1901 C1879 0.950 . S
C1902 C1903 1.349 . S
C1902 C1904 1.327 . S
C1902 H1927 0.950 . S
C1903 C1902 1.349 . S
C1903 C1919 1.349 . S
C1904 C1902 1.327 . S
C1904 C1923 1.429 . S
C1904 H1928 0.950 . S
C1905 C1922 1.574 . S
C1905 C1924 1.368 . S
C1905 H1929 0.949 . S
H1906 C1910 0.949 . S
C1907 C1908 1.349 . S
C1907 C1909 1.327 . S
C1907 H1930 0.950 . S
C1908 C1907 1.349 . S
C1908 C1920 1.349 . S
C1909 C1907 1.327 . S
C1909 C1925 1.429 . S
C1909 H1931 0.950 . S
C1910 H1906 0.949 . S
C1910 C1918 1.574 . S
C1910 C1926 1.368 . S
H1911 C1919 0.950 . S
H1912 C1917 0.950 . S
H1913 C1918 0.949 . S
H1914 C1920 0.950 . S
H1915 C1921 0.950 . S
H1916 C1922 0.949 . S
C1917 H1912 0.950 . S
C1917 C1919 1.327 . S
C1917 C1923 1.429 . S
C1918 C1910 1.574 . S
C1918 H1913 0.949 . S
C1918 C1924 1.368 . S
C1919 C1903 1.349 . S
C1919 H1911 0.950 . S
C1919 C1917 1.327 . S
C1920 C1908 1.349 . S
C1920 H1914 0.950 . S
C1920 C1921 1.327 . S
C1921 H1915 0.950 . S
C1921 C1920 1.327 . S
C1921 C1925 1.429 . S
C1922 C1905 1.574 . S
C1922 H1916 0.949 . S
C1922 C1926 1.368 . S
C1923 C1904 1.429 . S
C1923 C1917 1.429 . S
C1923 C1924 1.523 . S
C1924 C1905 1.368 . S
C1924 C1918 1.368 . S
C1924 C1923 1.523 . S
C1925 C1909 1.429 . S
C1925 C1921 1.429 . S
C1925 C1926 1.523 . S
C1926 C1910 1.368 . S
C1926 C1922 1.368 . S
C1926 C1925 1.523 . S
H1927 C1902 0.950 . S
H1928 C1904 0.950 . S
H1929 C1905 0.949 . S
H1930 C1907 0.950 . S
H1931 C1909 0.950 . S
C1932 C1933 1.349 . S
C1932 C1934 1.327 . S
C1932 H1957 0.950 . S
C1933 C1932 1.349 . S
C1933 C1949 1.349 . S
C1934 C1932 1.327 . S
C1934 C1953 1.429 . S
C1934 H1958 0.950 . S
C1935 C1952 1.574 . S
C1935 C1954 1.368 . S
C1935 H1959 0.949 . S
H1936 C1940 0.949 . S
C1937 C1938 1.349 . S
C1937 C1939 1.327 . S
C1937 H1960 0.950 . S
C1938 C1937 1.349 . S
C1938 C1950 1.349 . S
C1939 C1937 1.327 . S
C1939 C1955 1.429 . S
C1939 H1961 0.950 . S
C1940 H1936 0.949 . S
C1940 C1948 1.574 . S
C1940 C1956 1.368 . S
H1941 C1949 0.950 . S
H1942 C1947 0.950 . S
H1943 C1948 0.949 . S
H1944 C1950 0.950 . S
H1945 C1951 0.950 . S
H1946 C1952 0.949 . S
C1947 H1942 0.950 . S
C1947 C1949 1.327 . S
C1947 C1953 1.429 . S
C1948 C1940 1.574 . S
C1948 H1943 0.949 . S
C1948 C1954 1.368 . S
C1949 C1933 1.349 . S
C1949 H1941 0.950 . S
C1949 C1947 1.327 . S
C1950 C1938 1.349 . S
C1950 H1944 0.950 . S
C1950 C1951 1.327 . S
C1951 H1945 0.950 . S
C1951 C1950 1.327 . S
C1951 C1955 1.429 . S
C1952 C1935 1.574 . S
C1952 H1946 0.949 . S
C1952 C1956 1.368 . S
C1953 C1934 1.429 . S
C1953 C1947 1.429 . S
C1953 C1954 1.523 . S
C1954 C1935 1.368 . S
C1954 C1948 1.368 . S
C1954 C1953 1.523 . S
C1955 C1939 1.429 . S
C1955 C1951 1.429 . S
C1955 C1956 1.523 . S
C1956 C1940 1.368 . S
C1956 C1952 1.368 . S
C1956 C1955 1.523 . S
H1957 C1932 0.950 . S
H1958 C1934 0.950 . S
H1959 C1935 0.949 . S
H1960 C1937 0.950 . S
H1961 C1939 0.950 . S
C1962 C1963 1.349 . S
C1962 C1964 1.327 . S
C1962 H1987 0.950 . S
C1963 C1962 1.349 . S
C1963 C1979 1.349 . S
C1964 C1962 1.327 . S
C1964 C1983 1.429 . S
C1964 H1988 0.950 . S
C1965 C1982 1.574 . S
C1965 C1984 1.368 . S
C1965 H1989 0.949 . S
H1966 C1970 0.949 . S
C1967 C1968 1.349 . S
C1967 C1969 1.327 . S
C1967 H1990 0.950 . S
C1968 C1967 1.349 . S
C1968 C1980 1.349 . S
C1969 C1967 1.327 . S
C1969 C1985 1.429 . S
C1969 H1991 0.950 . S
C1970 H1966 0.949 . S
C1970 C1978 1.574 . S
C1970 C1986 1.368 . S
H1971 C1979 0.950 . S
H1972 C1977 0.950 . S
H1973 C1978 0.949 . S
H1974 C1980 0.950 . S
H1975 C1981 0.950 . S
H1976 C1982 0.949 . S
C1977 H1972 0.950 . S
C1977 C1979 1.327 . S
C1977 C1983 1.429 . S
C1978 C1970 1.574 . S
C1978 H1973 0.949 . S
C1978 C1984 1.368 . S
C1979 C1963 1.349 . S
C1979 H1971 0.950 . S
C1979 C1977 1.327 . S
C1980 C1968 1.349 . S
C1980 H1974 0.950 . S
C1980 C1981 1.327 . S
C1981 H1975 0.950 . S
C1981 C1980 1.327 . S
C1981 C1985 1.429 . S
C1982 C1965 1.574 . S
C1982 H1976 0.949 . S
C1982 C1986 1.368 . S
C1983 C1964 1.429 . S
C1983 C1977 1.429 . S
C1983 C1984 1.523 . S
C1984 C1965 1.368 . S
C1984 C1978 1.368 . S
C1984 C1983 1.523 . S
C1985 C1969 1.429 . S
C1985 C1981 1.429 . S
C1985 C1986 1.523 . S
C1986 C1970 1.368 . S
C1986 C1982 1.368 . S
C1986 C1985 1.523 . S
H1987 C1962 0.950 . S
H1988 C1964 0.950 . S
H1989 C1965 0.949 . S
H1990 C1967 0.950 . S
H1991 C1969 0.950 . S
C1992 C1993 1.349 . S
C1992 C1994 1.327 . S
C1992 H2017 0.950 . S
C1993 C1992 1.349 . S
C1993 C2009 1.349 . S
C1994 C1992 1.327 . S
C1994 C2013 1.429 . S
C1994 H2018 0.950 . S
C1995 C2012 1.574 . S
C1995 C2014 1.368 . S
C1995 H2019 0.949 . S
H1996 C2000 0.949 . S
C1997 C1998 1.349 . S
C1997 C1999 1.327 . S
C1997 H2020 0.950 . S
C1998 C1997 1.349 . S
C1998 C2010 1.349 . S
C1999 C1997 1.327 . S
C1999 C2015 1.429 . S
C1999 H2021 0.950 . S
C2000 H1996 0.949 . S
C2000 C2008 1.574 . S
C2000 C2016 1.368 . S
H2001 C2009 0.950 . S
H2002 C2007 0.950 . S
H2003 C2008 0.949 . S
H2004 C2010 0.950 . S
H2005 C2011 0.950 . S
H2006 C2012 0.949 . S
C2007 H2002 0.950 . S
C2007 C2009 1.327 . S
C2007 C2013 1.429 . S
C2008 C2000 1.574 . S
C2008 H2003 0.949 . S
C2008 C2014 1.368 . S
C2009 C1993 1.349 . S
C2009 H2001 0.950 . S
C2009 C2007 1.327 . S
C2010 C1998 1.349 . S
C2010 H2004 0.950 . S
C2010 C2011 1.327 . S
C2011 H2005 0.950 . S
C2011 C2010 1.327 . S
C2011 C2015 1.429 . S
C2012 C1995 1.574 . S
C2012 H2006 0.949 . S
C2012 C2016 1.368 . S
C2013 C1994 1.429 . S
C2013 C2007 1.429 . S
C2013 C2014 1.523 . S
C2014 C1995 1.368 . S
C2014 C2008 1.368 . S
C2014 C2013 1.523 . S
C2015 C1999 1.429 . S
C2015 C2011 1.429 . S
C2015 C2016 1.523 . S
C2016 C2000 1.368 . S
C2016 C2012 1.368 . S
C2016 C2015 1.523 . S
H2017 C1992 0.950 . S
H2018 C1994 0.950 . S
H2019 C1995 0.949 . S
H2020 C1997 0.950 . S
H2021 C1999 0.950 . S
C2022 C2023 1.349 . S
C2022 C2024 1.327 . S
C2022 H2047 0.950 . S
C2023 C2022 1.349 . S
C2023 C2039 1.349 . S
C2024 C2022 1.327 . S
C2024 C2043 1.429 . S
C2024 H2048 0.950 . S
C2025 C2042 1.574 . S
C2025 C2044 1.368 . S
C2025 H2049 0.949 . S
H2026 C2030 0.949 . S
C2027 C2028 1.349 . S
C2027 C2029 1.327 . S
C2027 H2050 0.950 . S
C2028 C2027 1.349 . S
C2028 C2040 1.349 . S
C2029 C2027 1.327 . S
C2029 C2045 1.429 . S
C2029 H2051 0.950 . S
C2030 H2026 0.949 . S
C2030 C2038 1.574 . S
C2030 C2046 1.368 . S
H2031 C2039 0.950 . S
H2032 C2037 0.950 . S
H2033 C2038 0.949 . S
H2034 C2040 0.950 . S
H2035 C2041 0.950 . S
H2036 C2042 0.949 . S
C2037 H2032 0.950 . S
C2037 C2039 1.327 . S
C2037 C2043 1.429 . S
C2038 C2030 1.574 . S
C2038 H2033 0.949 . S
C2038 C2044 1.368 . S
C2039 C2023 1.349 . S
C2039 H2031 0.950 . S
C2039 C2037 1.327 . S
C2040 C2028 1.349 . S
C2040 H2034 0.950 . S
C2040 C2041 1.327 . S
C2041 H2035 0.950 . S
C2041 C2040 1.327 . S
C2041 C2045 1.429 . S
C2042 C2025 1.574 . S
C2042 H2036 0.949 . S
C2042 C2046 1.368 . S
C2043 C2024 1.429 . S
C2043 C2037 1.429 . S
C2043 C2044 1.523 . S
C2044 C2025 1.368 . S
C2044 C2038 1.368 . S
C2044 C2043 1.523 . S
C2045 C2029 1.429 . S
C2045 C2041 1.429 . S
C2045 C2046 1.523 . S
C2046 C2030 1.368 . S
C2046 C2042 1.368 . S
C2046 C2045 1.523 . S
H2047 C2022 0.950 . S
H2048 C2024 0.950 . S
H2049 C2025 0.949 . S
H2050 C2027 0.950 . S
H2051 C2029 0.950 . S
C2052 C2053 1.349 . S
C2052 C2054 1.327 . S
C2052 H2077 0.950 . S
C2053 C2052 1.349 . S
C2053 C2069 1.349 . S
C2054 C2052 1.327 . S
C2054 C2073 1.429 . S
C2054 H2078 0.950 . S
C2055 C2072 1.574 . S
C2055 C2074 1.368 . S
C2055 H2079 0.949 . S
H2056 C2060 0.949 . S
C2057 C2058 1.349 . S
C2057 C2059 1.327 . S
C2057 H2080 0.950 . S
C2058 C2057 1.349 . S
C2058 C2070 1.349 . S
C2059 C2057 1.327 . S
C2059 C2075 1.429 . S
C2059 H2081 0.950 . S
C2060 H2056 0.949 . S
C2060 C2068 1.574 . S
C2060 C2076 1.368 . S
H2061 C2069 0.950 . S
H2062 C2067 0.950 . S
H2063 C2068 0.949 . S
H2064 C2070 0.950 . S
H2065 C2071 0.950 . S
H2066 C2072 0.949 . S
C2067 H2062 0.950 . S
C2067 C2069 1.327 . S
C2067 C2073 1.429 . S
C2068 C2060 1.574 . S
C2068 H2063 0.949 . S
C2068 C2074 1.368 . S
C2069 C2053 1.349 . S
C2069 H2061 0.950 . S
C2069 C2067 1.327 . S
C2070 C2058 1.349 . S
C2070 H2064 0.950 . S
C2070 C2071 1.327 . S
C2071 H2065 0.950 . S
C2071 C2070 1.327 . S
C2071 C2075 1.429 . S
C2072 C2055 1.574 . S
C2072 H2066 0.949 . S
C2072 C2076 1.368 . S
C2073 C2054 1.429 . S
C2073 C2067 1.429 . S
C2073 C2074 1.523 . S
C2074 C2055 1.368 . S
C2074 C2068 1.368 . S
C2074 C2073 1.523 . S
C2075 C2059 1.429 . S
C2075 C2071 1.429 . S
C2075 C2076 1.523 . S
C2076 C2060 1.368 . S
C2076 C2072 1.368 . S
C2076 C2075 1.523 . S
H2077 C2052 0.950 . S
H2078 C2054 0.950 . S
H2079 C2055 0.949 . S
H2080 C2057 0.950 . S
H2081 C2059 0.950 . S
C2082 C2083 1.349 . S
C2082 C2084 1.327 . S
C2082 H2107 0.950 . S
C2083 C2082 1.349 . S
C2083 C2099 1.349 . S
C2084 C2082 1.327 . S
C2084 C2103 1.429 . S
C2084 H2108 0.950 . S
C2085 C2102 1.574 . S
C2085 C2104 1.368 . S
C2085 H2109 0.949 . S
H2086 C2090 0.949 . S
C2087 C2088 1.349 . S
C2087 C2089 1.327 . S
C2087 H2110 0.950 . S
C2088 C2087 1.349 . S
C2088 C2100 1.349 . S
C2089 C2087 1.327 . S
C2089 C2105 1.429 . S
C2089 H2111 0.950 . S
C2090 H2086 0.949 . S
C2090 C2098 1.574 . S
C2090 C2106 1.368 . S
H2091 C2099 0.950 . S
H2092 C2097 0.950 . S
H2093 C2098 0.949 . S
H2094 C2100 0.950 . S
H2095 C2101 0.950 . S
H2096 C2102 0.949 . S
C2097 H2092 0.950 . S
C2097 C2099 1.327 . S
C2097 C2103 1.429 . S
C2098 C2090 1.574 . S
C2098 H2093 0.949 . S
C2098 C2104 1.368 . S
C2099 C2083 1.349 . S
C2099 H2091 0.950 . S
C2099 C2097 1.327 . S
C2100 C2088 1.349 . S
C2100 H2094 0.950 . S
C2100 C2101 1.327 . S
C2101 H2095 0.950 . S
C2101 C2100 1.327 . S
C2101 C2105 1.429 . S
C2102 C2085 1.574 . S
C2102 H2096 0.949 . S
C2102 C2106 1.368 . S
C2103 C2084 1.429 . S
C2103 C2097 1.429 . S
C2103 C2104 1.523 . S
C2104 C2085 1.368 . S
C2104 C2098 1.368 . S
C2104 C2103 1.523 . S
C2105 C2089 1.429 . S
C2105 C2101 1.429 . S
C2105 C2106 1.523 . S
C2106 C2090 1.368 . S
C2106 C2102 1.368 . S
C2106 C2105 1.523 . S
H2107 C2082 0.950 . S
H2108 C2084 0.950 . S
H2109 C2085 0.949 . S
H2110 C2087 0.950 . S
H2111 C2089 0.950 . S
C2112 C2113 1.349 . S
C2112 C2114 1.327 . S
C2112 H2137 0.950 . S
C2113 C2112 1.349 . S
C2113 C2129 1.349 . S
C2114 C2112 1.327 . S
C2114 C2133 1.429 . S
C2114 H2138 0.950 . S
C2115 C2132 1.574 . S
C2115 C2134 1.368 . S
C2115 H2139 0.949 . S
H2116 C2120 0.949 . S
C2117 C2118 1.349 . S
C2117 C2119 1.327 . S
C2117 H2140 0.950 . S
C2118 C2117 1.349 . S
C2118 C2130 1.349 . S
C2119 C2117 1.327 . S
C2119 C2135 1.429 . S
C2119 H2141 0.950 . S
C2120 H2116 0.949 . S
C2120 C2128 1.574 . S
C2120 C2136 1.368 . S
H2121 C2129 0.950 . S
H2122 C2127 0.950 . S
H2123 C2128 0.949 . S
H2124 C2130 0.950 . S
H2125 C2131 0.950 . S
H2126 C2132 0.949 . S
C2127 H2122 0.950 . S
C2127 C2129 1.327 . S
C2127 C2133 1.429 . S
C2128 C2120 1.574 . S
C2128 H2123 0.949 . S
C2128 C2134 1.368 . S
C2129 C2113 1.349 . S
C2129 H2121 0.950 . S
C2129 C2127 1.327 . S
C2130 C2118 1.349 . S
C2130 H2124 0.950 . S
C2130 C2131 1.327 . S
C2131 H2125 0.950 . S
C2131 C2130 1.327 . S
C2131 C2135 1.429 . S
C2132 C2115 1.574 . S
C2132 H2126 0.949 . S
C2132 C2136 1.368 . S
C2133 C2114 1.429 . S
C2133 C2127 1.429 . S
C2133 C2134 1.523 . S
C2134 C2115 1.368 . S
C2134 C2128 1.368 . S
C2134 C2133 1.523 . S
C2135 C2119 1.429 . S
C2135 C2131 1.429 . S
C2135 C2136 1.523 . S
C2136 C2120 1.368 . S
C2136 C2132 1.368 . S
C2136 C2135 1.523 . S
H2137 C2112 0.950 . S
H2138 C2114 0.950 . S
H2139 C2115 0.949 . S
H2140 C2117 0.950 . S
H2141 C2119 0.950 . S
C2142 C2143 1.349 . S
C2142 C2144 1.327 . S
C2142 H2167 0.950 . S
C2143 C2142 1.349 . S
C2143 C2159 1.349 . S
C2144 C2142 1.327 . S
C2144 C2163 1.429 . S
C2144 H2168 0.950 . S
C2145 C2162 1.574 . S
C2145 C2164 1.368 . S
C2145 H2169 0.949 . S
H2146 C2150 0.949 . S
C2147 C2148 1.349 . S
C2147 C2149 1.327 . S
C2147 H2170 0.950 . S
C2148 C2147 1.349 . S
C2148 C2160 1.349 . S
C2149 C2147 1.327 . S
C2149 C2165 1.429 . S
C2149 H2171 0.950 . S
C2150 H2146 0.949 . S
C2150 C2158 1.574 . S
C2150 C2166 1.368 . S
H2151 C2159 0.950 . S
H2152 C2157 0.950 . S
H2153 C2158 0.949 . S
H2154 C2160 0.950 . S
H2155 C2161 0.950 . S
H2156 C2162 0.949 . S
C2157 H2152 0.950 . S
C2157 C2159 1.327 . S
C2157 C2163 1.429 . S
C2158 C2150 1.574 . S
C2158 H2153 0.949 . S
C2158 C2164 1.368 . S
C2159 C2143 1.349 . S
C2159 H2151 0.950 . S
C2159 C2157 1.327 . S
C2160 C2148 1.349 . S
C2160 H2154 0.950 . S
C2160 C2161 1.327 . S
C2161 H2155 0.950 . S
C2161 C2160 1.327 . S
C2161 C2165 1.429 . S
C2162 C2145 1.574 . S
C2162 H2156 0.949 . S
C2162 C2166 1.368 . S
C2163 C2144 1.429 . S
C2163 C2157 1.429 . S
C2163 C2164 1.523 . S
C2164 C2145 1.368 . S
C2164 C2158 1.368 . S
C2164 C2163 1.523 . S
C2165 C2149 1.429 . S
C2165 C2161 1.429 . S
C2165 C2166 1.523 . S
C2166 C2150 1.368 . S
C2166 C2162 1.368 . S
C2166 C2165 1.523 . S
H2167 C2142 0.950 . S
H2168 C2144 0.950 . S
H2169 C2145 0.949 . S
H2170 C2147 0.950 . S
H2171 C2149 0.950 . S
C2172 C2173 1.349 . S
C2172 C2174 1.327 . S
C2172 H2197 0.950 . S
C2173 C2172 1.349 . S
C2173 C2189 1.349 . S
C2174 C2172 1.327 . S
C2174 C2193 1.429 . S
C2174 H2198 0.950 . S
C2175 C2192 1.574 . S
C2175 C2194 1.368 . S
C2175 H2199 0.949 . S
H2176 C2180 0.949 . S
C2177 C2178 1.349 . S
C2177 C2179 1.327 . S
C2177 H2200 0.950 . S
C2178 C2177 1.349 . S
C2178 C2190 1.349 . S
C2179 C2177 1.327 . S
C2179 C2195 1.429 . S
C2179 H2201 0.950 . S
C2180 H2176 0.949 . S
C2180 C2188 1.574 . S
C2180 C2196 1.368 . S
H2181 C2189 0.950 . S
H2182 C2187 0.950 . S
H2183 C2188 0.949 . S
H2184 C2190 0.950 . S
H2185 C2191 0.950 . S
H2186 C2192 0.949 . S
C2187 H2182 0.950 . S
C2187 C2189 1.327 . S
C2187 C2193 1.429 . S
C2188 C2180 1.574 . S
C2188 H2183 0.949 . S
C2188 C2194 1.368 . S
C2189 C2173 1.349 . S
C2189 H2181 0.950 . S
C2189 C2187 1.327 . S
C2190 C2178 1.349 . S
C2190 H2184 0.950 . S
C2190 C2191 1.327 . S
C2191 H2185 0.950 . S
C2191 C2190 1.327 . S
C2191 C2195 1.429 . S
C2192 C2175 1.574 . S
C2192 H2186 0.949 . S
C2192 C2196 1.368 . S
C2193 C2174 1.429 . S
C2193 C2187 1.429 . S
C2193 C2194 1.523 . S
C2194 C2175 1.368 . S
C2194 C2188 1.368 . S
C2194 C2193 1.523 . S
C2195 C2179 1.429 . S
C2195 C2191 1.429 . S
C2195 C2196 1.523 . S
C2196 C2180 1.368 . S
C2196 C2192 1.368 . S
C2196 C2195 1.523 . S
H2197 C2172 0.950 . S
H2198 C2174 0.950 . S
H2199 C2175 0.949 . S
H2200 C2177 0.950 . S
H2201 C2179 0.950 . S
C2202 C2203 1.349 . S
C2202 C2204 1.327 . S
C2202 H2227 0.950 . S
C2203 C2202 1.349 . S
C2203 C2219 1.349 . S
C2204 C2202 1.327 . S
C2204 C2223 1.429 . S
C2204 H2228 0.950 . S
C2205 C2222 1.574 . S
C2205 C2224 1.368 . S
C2205 H2229 0.949 . S
H2206 C2210 0.949 . S
C2207 C2208 1.349 . S
C2207 C2209 1.327 . S
C2207 H2230 0.950 . S
C2208 C2207 1.349 . S
C2208 C2220 1.349 . S
C2209 C2207 1.327 . S
C2209 C2225 1.429 . S
C2209 H2231 0.950 . S
C2210 H2206 0.949 . S
C2210 C2218 1.574 . S
C2210 C2226 1.368 . S
H2211 C2219 0.950 . S
H2212 C2217 0.950 . S
H2213 C2218 0.949 . S
H2214 C2220 0.950 . S
H2215 C2221 0.950 . S
H2216 C2222 0.949 . S
C2217 H2212 0.950 . S
C2217 C2219 1.327 . S
C2217 C2223 1.429 . S
C2218 C2210 1.574 . S
C2218 H2213 0.949 . S
C2218 C2224 1.368 . S
C2219 C2203 1.349 . S
C2219 H2211 0.950 . S
C2219 C2217 1.327 . S
C2220 C2208 1.349 . S
C2220 H2214 0.950 . S
C2220 C2221 1.327 . S
C2221 H2215 0.950 . S
C2221 C2220 1.327 . S
C2221 C2225 1.429 . S
C2222 C2205 1.574 . S
C2222 H2216 0.949 . S
C2222 C2226 1.368 . S
C2223 C2204 1.429 . S
C2223 C2217 1.429 . S
C2223 C2224 1.523 . S
C2224 C2205 1.368 . S
C2224 C2218 1.368 . S
C2224 C2223 1.523 . S
C2225 C2209 1.429 . S
C2225 C2221 1.429 . S
C2225 C2226 1.523 . S
C2226 C2210 1.368 . S
C2226 C2222 1.368 . S
C2226 C2225 1.523 . S
H2227 C2202 0.950 . S
H2228 C2204 0.950 . S
H2229 C2205 0.949 . S
H2230 C2207 0.950 . S
H2231 C2209 0.950 . S
C2232 C2233 1.349 . S
C2232 C2234 1.327 . S
C2232 H2257 0.950 . S
C2233 C2232 1.349 . S
C2233 C2249 1.349 . S
C2234 C2232 1.327 . S
C2234 C2253 1.429 . S
C2234 H2258 0.950 . S
C2235 C2252 1.574 . S
C2235 C2254 1.368 . S
C2235 H2259 0.949 . S
H2236 C2240 0.949 . S
C2237 C2238 1.349 . S
C2237 C2239 1.327 . S
C2237 H2260 0.950 . S
C2238 C2237 1.349 . S
C2238 C2250 1.349 . S
C2239 C2237 1.327 . S
C2239 C2255 1.429 . S
C2239 H2261 0.950 . S
C2240 H2236 0.949 . S
C2240 C2248 1.574 . S
C2240 C2256 1.368 . S
H2241 C2249 0.950 . S
H2242 C2247 0.950 . S
H2243 C2248 0.949 . S
H2244 C2250 0.950 . S
H2245 C2251 0.950 . S
H2246 C2252 0.949 . S
C2247 H2242 0.950 . S
C2247 C2249 1.327 . S
C2247 C2253 1.429 . S
C2248 C2240 1.574 . S
C2248 H2243 0.949 . S
C2248 C2254 1.368 . S
C2249 C2233 1.349 . S
C2249 H2241 0.950 . S
C2249 C2247 1.327 . S
C2250 C2238 1.349 . S
C2250 H2244 0.950 . S
C2250 C2251 1.327 . S
C2251 H2245 0.950 . S
C2251 C2250 1.327 . S
C2251 C2255 1.429 . S
C2252 C2235 1.574 . S
C2252 H2246 0.949 . S
C2252 C2256 1.368 . S
C2253 C2234 1.429 . S
C2253 C2247 1.429 . S
C2253 C2254 1.523 . S
C2254 C2235 1.368 . S
C2254 C2248 1.368 . S
C2254 C2253 1.523 . S
C2255 C2239 1.429 . S
C2255 C2251 1.429 . S
C2255 C2256 1.523 . S
C2256 C2240 1.368 . S
C2256 C2252 1.368 . S
C2256 C2255 1.523 . S
H2257 C2232 0.950 . S
H2258 C2234 0.950 . S
H2259 C2235 0.949 . S
H2260 C2237 0.950 . S
H2261 C2239 0.950 . S
C2262 C2263 1.349 . S
C2262 C2264 1.327 . S
C2262 H2287 0.950 . S
C2263 C2262 1.349 . S
C2263 C2279 1.349 . S
C2264 C2262 1.327 . S
C2264 C2283 1.429 . S
C2264 H2288 0.950 . S
C2265 C2282 1.574 . S
C2265 C2284 1.368 . S
C2265 H2289 0.949 . S
H2266 C2270 0.949 . S
C2267 C2268 1.349 . S
C2267 C2269 1.327 . S
C2267 H2290 0.950 . S
C2268 C2267 1.349 . S
C2268 C2280 1.349 . S
C2269 C2267 1.327 . S
C2269 C2285 1.429 . S
C2269 H2291 0.950 . S
C2270 H2266 0.949 . S
C2270 C2278 1.574 . S
C2270 C2286 1.368 . S
H2271 C2279 0.950 . S
H2272 C2277 0.950 . S
H2273 C2278 0.949 . S
H2274 C2280 0.950 . S
H2275 C2281 0.950 . S
H2276 C2282 0.949 . S
C2277 H2272 0.950 . S
C2277 C2279 1.327 . S
C2277 C2283 1.429 . S
C2278 C2270 1.574 . S
C2278 H2273 0.949 . S
C2278 C2284 1.368 . S
C2279 C2263 1.349 . S
C2279 H2271 0.950 . S
C2279 C2277 1.327 . S
C2280 C2268 1.349 . S
C2280 H2274 0.950 . S
C2280 C2281 1.327 . S
C2281 H2275 0.950 . S
C2281 C2280 1.327 . S
C2281 C2285 1.429 . S
C2282 C2265 1.574 . S
C2282 H2276 0.949 . S
C2282 C2286 1.368 . S
C2283 C2264 1.429 . S
C2283 C2277 1.429 . S
C2283 C2284 1.523 . S
C2284 C2265 1.368 . S
C2284 C2278 1.368 . S
C2284 C2283 1.523 . S
C2285 C2269 1.429 . S
C2285 C2281 1.429 . S
C2285 C2286 1.523 . S
C2286 C2270 1.368 . S
C2286 C2282 1.368 . S
C2286 C2285 1.523 . S
H2287 C2262 0.950 . S
H2288 C2264 0.950 . S
H2289 C2265 0.949 . S
H2290 C2267 0.950 . S
H2291 C2269 0.950 . S
C2292 C2293 1.349 . S
C2292 C2294 1.327 . S
C2292 H2317 0.950 . S
C2293 C2292 1.349 . S
C2293 C2309 1.349 . S
C2294 C2292 1.327 . S
C2294 C2313 1.429 . S
C2294 H2318 0.950 . S
C2295 C2312 1.574 . S
C2295 C2314 1.368 . S
C2295 H2319 0.949 . S
H2296 C2300 0.949 . S
C2297 C2298 1.349 . S
C2297 C2299 1.327 . S
C2297 H2320 0.950 . S
C2298 C2297 1.349 . S
C2298 C2310 1.349 . S
C2299 C2297 1.327 . S
C2299 C2315 1.429 . S
C2299 H2321 0.950 . S
C2300 H2296 0.949 . S
C2300 C2308 1.574 . S
C2300 C2316 1.368 . S
H2301 C2309 0.950 . S
H2302 C2307 0.950 . S
H2303 C2308 0.949 . S
H2304 C2310 0.950 . S
H2305 C2311 0.950 . S
H2306 C2312 0.949 . S
C2307 H2302 0.950 . S
C2307 C2309 1.327 . S
C2307 C2313 1.429 . S
C2308 C2300 1.574 . S
C2308 H2303 0.949 . S
C2308 C2314 1.368 . S
C2309 C2293 1.349 . S
C2309 H2301 0.950 . S
C2309 C2307 1.327 . S
C2310 C2298 1.349 . S
C2310 H2304 0.950 . S
C2310 C2311 1.327 . S
C2311 H2305 0.950 . S
C2311 C2310 1.327 . S
C2311 C2315 1.429 . S
C2312 C2295 1.574 . S
C2312 H2306 0.949 . S
C2312 C2316 1.368 . S
C2313 C2294 1.429 . S
C2313 C2307 1.429 . S
C2313 C2314 1.523 . S
C2314 C2295 1.368 . S
C2314 C2308 1.368 . S
C2314 C2313 1.523 . S
C2315 C2299 1.429 . S
C2315 C2311 1.429 . S
C2315 C2316 1.523 . S
C2316 C2300 1.368 . S
C2316 C2312 1.368 . S
C2316 C2315 1.523 . S
H2317 C2292 0.950 . S
H2318 C2294 0.950 . S
H2319 C2295 0.949 . S
H2320 C2297 0.950 . S
H2321 C2299 0.950 . S
C2322 C2323 1.349 . S
C2322 C2324 1.327 . S
C2322 H2347 0.950 . S
C2323 C2322 1.349 . S
C2323 C2339 1.349 . S
C2324 C2322 1.327 . S
C2324 C2343 1.429 . S
C2324 H2348 0.950 . S
C2325 C2342 1.574 . S
C2325 C2344 1.368 . S
C2325 H2349 0.949 . S
H2326 C2330 0.949 . S
C2327 C2328 1.349 . S
C2327 C2329 1.327 . S
C2327 H2350 0.950 . S
C2328 C2327 1.349 . S
C2328 C2340 1.349 . S
C2329 C2327 1.327 . S
C2329 C2345 1.429 . S
C2329 H2351 0.950 . S
C2330 H2326 0.949 . S
C2330 C2338 1.574 . S
C2330 C2346 1.368 . S
H2331 C2339 0.950 . S
H2332 C2337 0.950 . S
H2333 C2338 0.949 . S
H2334 C2340 0.950 . S
H2335 C2341 0.950 . S
H2336 C2342 0.949 . S
C2337 H2332 0.950 . S
C2337 C2339 1.327 . S
C2337 C2343 1.429 . S
C2338 C2330 1.574 . S
C2338 H2333 0.949 . S
C2338 C2344 1.368 . S
C2339 C2323 1.349 . S
C2339 H2331 0.950 . S
C2339 C2337 1.327 . S
C2340 C2328 1.349 . S
C2340 H2334 0.950 . S
C2340 C2341 1.327 . S
C2341 H2335 0.950 . S
C2341 C2340 1.327 . S
C2341 C2345 1.429 . S
C2342 C2325 1.574 . S
C2342 H2336 0.949 . S
C2342 C2346 1.368 . S
C2343 C2324 1.429 . S
C2343 C2337 1.429 . S
C2343 C2344 1.523 . S
C2344 C2325 1.368 . S
C2344 C2338 1.368 . S
C2344 C2343 1.523 . S
C2345 C2329 1.429 . S
C2345 C2341 1.429 . S
C2345 C2346 1.523 . S
C2346 C2330 1.368 . S
C2346 C2342 1.368 . S
C2346 C2345 1.523 . S
H2347 C2322 0.950 . S
H2348 C2324 0.950 . S
H2349 C2325 0.949 . S
H2350 C2327 0.950 . S
H2351 C2329 0.950 . S
C2352 C2353 1.349 . S
C2352 C2354 1.327 . S
C2352 H2377 0.950 . S
C2353 C2352 1.349 . S
C2353 C2369 1.349 . S
C2354 C2352 1.327 . S
C2354 C2373 1.429 . S
C2354 H2378 0.950 . S
C2355 C2372 1.574 1_554 S
C2355 C2374 1.368 . S
C2355 H2379 0.949 . S
H2356 C2360 0.949 . S
C2357 C2358 1.349 . S
C2357 C2359 1.327 . S
C2357 H2380 0.950 . S
C2358 C2357 1.349 . S
C2358 C2370 1.349 . S
C2359 C2357 1.327 . S
C2359 C2375 1.429 . S
C2359 H2381 0.950 . S
C2360 H2356 0.949 . S
C2360 C2368 1.574 1_556 S
C2360 C2376 1.368 . S
H2361 C2369 0.950 . S
H2362 C2367 0.950 . S
H2363 C2368 0.949 . S
H2364 C2370 0.950 . S
H2365 C2371 0.950 . S
H2366 C2372 0.949 . S
C2367 H2362 0.950 . S
C2367 C2369 1.327 . S
C2367 C2373 1.429 . S
C2368 C2360 1.574 1_554 S
C2368 H2363 0.949 . S
C2368 C2374 1.368 . S
C2369 C2353 1.349 . S
C2369 H2361 0.950 . S
C2369 C2367 1.327 . S
C2370 C2358 1.349 . S
C2370 H2364 0.950 . S
C2370 C2371 1.327 . S
C2371 H2365 0.950 . S
C2371 C2370 1.327 . S
C2371 C2375 1.429 . S
C2372 C2355 1.574 1_556 S
C2372 H2366 0.949 . S
C2372 C2376 1.368 . S
C2373 C2354 1.429 . S
C2373 C2367 1.429 . S
C2373 C2374 1.523 . S
C2374 C2355 1.368 . S
C2374 C2368 1.368 . S
C2374 C2373 1.523 . S
C2375 C2359 1.429 . S
C2375 C2371 1.429 . S
C2375 C2376 1.523 . S
C2376 C2360 1.368 . S
C2376 C2372 1.368 . S
C2376 C2375 1.523 . S
H2377 C2352 0.950 . S
H2378 C2354 0.950 . S
H2379 C2355 0.949 . S
H2380 C2357 0.950 . S
H2381 C2359 0.950 . S
C2382 C2383 1.349 . S
C2382 C2384 1.327 . S
C2382 H2407 0.950 . S
C2383 C2382 1.349 . S
C2383 C2399 1.349 . S
C2384 C2382 1.327 . S
C2384 C2403 1.429 . S
C2384 H2408 0.950 . S
C2385 C2402 1.574 . S
C2385 C2404 1.368 1_554 S
C2385 H2409 0.949 1_554 S
H2386 C2390 0.949 . S
C2387 C2388 1.349 . S
C2387 C2389 1.327 . S
C2387 H2410 0.950 . S
C2388 C2387 1.349 . S
C2388 C2400 1.349 . S
C2389 C2387 1.327 . S
C2389 C2405 1.429 . S
C2389 H2411 0.950 . S
C2390 H2386 0.949 . S
C2390 C2398 1.574 1_554 S
C2390 C2406 1.368 . S
H2391 C2399 0.950 . S
H2392 C2397 0.950 . S
H2393 C2398 0.949 . S
H2394 C2400 0.950 . S
H2395 C2401 0.950 . S
H2396 C2402 0.949 . S
C2397 H2392 0.950 . S
C2397 C2399 1.327 . S
C2397 C2403 1.429 . S
C2398 C2390 1.574 1_556 S
C2398 H2393 0.949 . S
C2398 C2404 1.368 . S
C2399 C2383 1.349 . S
C2399 H2391 0.950 . S
C2399 C2397 1.327 . S
C2400 C2388 1.349 . S
C2400 H2394 0.950 . S
C2400 C2401 1.327 . S
C2401 H2395 0.950 . S
C2401 C2400 1.327 . S
C2401 C2405 1.429 . S
C2402 C2385 1.574 . S
C2402 H2396 0.949 . S
C2402 C2406 1.368 . S
C2403 C2384 1.429 . S
C2403 C2397 1.429 . S
C2403 C2404 1.523 . S
C2404 C2385 1.368 1_556 S
C2404 C2398 1.368 . S
C2404 C2403 1.523 . S
C2405 C2389 1.429 . S
C2405 C2401 1.429 . S
C2405 C2406 1.523 . S
C2406 C2390 1.368 . S
C2406 C2402 1.368 . S
C2406 C2405 1.523 . S
H2407 C2382 0.950 . S
H2408 C2384 0.950 . S
H2409 C2385 0.949 1_556 S
H2410 C2387 0.950 . S
H2411 C2389 0.950 . S
C2412 C2413 1.349 . S
C2412 C2414 1.327 . S
C2412 H2437 0.950 . S
C2413 C2412 1.349 . S
C2413 C2429 1.349 . S
C2414 C2412 1.327 . S
C2414 C2433 1.429 . S
C2414 H2438 0.950 . S
C2415 C2432 1.574 1_554 S
C2415 C2434 1.368 . S
C2415 H2439 0.949 . S
H2416 C2420 0.949 . S
C2417 C2418 1.349 . S
C2417 C2419 1.327 . S
C2417 H2440 0.950 . S
C2418 C2417 1.349 . S
C2418 C2430 1.349 . S
C2419 C2417 1.327 . S
C2419 C2435 1.429 . S
C2419 H2441 0.950 . S
C2420 H2416 0.949 . S
C2420 C2428 1.574 1_556 S
C2420 C2436 1.368 . S
H2421 C2429 0.950 . S
H2422 C2427 0.950 . S
H2423 C2428 0.949 . S
H2424 C2430 0.950 . S
H2425 C2431 0.950 . S
H2426 C2432 0.949 . S
C2427 H2422 0.950 . S
C2427 C2429 1.327 . S
C2427 C2433 1.429 . S
C2428 C2420 1.574 1_554 S
C2428 H2423 0.949 . S
C2428 C2434 1.368 . S
C2429 C2413 1.349 . S
C2429 H2421 0.950 . S
C2429 C2427 1.327 . S
C2430 C2418 1.349 . S
C2430 H2424 0.950 . S
C2430 C2431 1.327 . S
C2431 H2425 0.950 . S
C2431 C2430 1.327 . S
C2431 C2435 1.429 . S
C2432 C2415 1.574 1_556 S
C2432 H2426 0.949 . S
C2432 C2436 1.368 . S
C2433 C2414 1.429 . S
C2433 C2427 1.429 . S
C2433 C2434 1.523 . S
C2434 C2415 1.368 . S
C2434 C2428 1.368 . S
C2434 C2433 1.523 . S
C2435 C2419 1.429 . S
C2435 C2431 1.429 . S
C2435 C2436 1.523 . S
C2436 C2420 1.368 . S
C2436 C2432 1.368 . S
C2436 C2435 1.523 . S
H2437 C2412 0.950 . S
H2438 C2414 0.950 . S
H2439 C2415 0.949 . S
H2440 C2417 0.950 . S
H2441 C2419 0.950 . S
C2442 C2443 1.349 . S
C2442 C2444 1.327 . S
C2442 H2467 0.950 . S
C2443 C2442 1.349 . S
C2443 C2459 1.349 . S
C2444 C2442 1.327 . S
C2444 C2463 1.429 . S
C2444 H2468 0.950 . S
C2445 C2462 1.562 1_554 S
C2445 C2464 1.368 . S
C2445 H2469 0.949 . S
H2446 C2450 0.948 . S
C2447 C2448 1.349 . S
C2447 C2449 1.327 . S
C2447 H2470 0.950 . S
C2448 C2447 1.349 . S
C2448 C2460 1.349 . S
C2449 C2447 1.327 . S
C2449 C2465 1.429 . S
C2449 H2471 0.950 . S
C2450 H2446 0.948 . S
C2450 C2458 1.575 1_556 S
C2450 C2466 1.368 . S
H2451 C2459 0.950 . S
H2452 C2457 0.950 . S
H2453 C2458 0.949 . S
H2454 C2460 0.950 . S
H2455 C2461 0.950 . S
H2456 C2462 0.956 . S
C2457 H2452 0.950 . S
C2457 C2459 1.327 . S
C2457 C2463 1.429 . S
C2458 C2450 1.575 1_554 S
C2458 H2453 0.949 . S
C2458 C2464 1.368 . S
C2459 C2443 1.349 . S
C2459 H2451 0.950 . S
C2459 C2457 1.327 . S
C2460 C2448 1.349 . S
C2460 H2454 0.950 . S
C2460 C2461 1.327 . S
C2461 H2455 0.950 . S
C2461 C2460 1.327 . S
C2461 C2465 1.429 . S
C2462 C2445 1.562 1_556 S
C2462 H2456 0.956 . S
C2462 C2466 1.373 . S
C2463 C2444 1.429 . S
C2463 C2457 1.429 . S
C2463 C2464 1.523 . S
C2464 C2445 1.368 . S
C2464 C2458 1.368 . S
C2464 C2463 1.523 . S
C2465 C2449 1.429 . S
C2465 C2461 1.429 . S
C2465 C2466 1.523 . S
C2466 C2450 1.368 . S
C2466 C2462 1.373 . S
C2466 C2465 1.523 . S
H2467 C2442 0.950 . S
H2468 C2444 0.950 . S
H2469 C2445 0.949 . S
H2470 C2447 0.950 . S
H2471 C2449 0.950 . S
C2472 C2473 1.349 . S
C2472 C2474 1.327 . S
C2472 H2497 0.950 . S
C2473 C2472 1.349 . S
C2473 C2489 1.349 . S
C2474 C2472 1.327 . S
C2474 C2493 1.429 . S
C2474 H2498 0.950 . S
C2475 C2492 1.574 1_554 S
C2475 C2494 1.368 . S
C2475 H2499 0.949 . S
H2476 C2480 0.949 . S
C2477 C2478 1.349 . S
C2477 C2479 1.327 . S
C2477 H2500 0.950 . S
C2478 C2477 1.349 . S
C2478 C2490 1.349 . S
C2479 C2477 1.327 . S
C2479 C2495 1.429 . S
C2479 H2501 0.950 . S
C2480 H2476 0.949 . S
C2480 C2488 1.574 1_556 S
C2480 C2496 1.368 . S
H2481 C2489 0.950 . S
H2482 C2487 0.950 . S
H2483 C2488 0.949 . S
H2484 C2490 0.950 . S
H2485 C2491 0.950 . S
H2486 C2492 0.949 . S
C2487 H2482 0.950 . S
C2487 C2489 1.327 . S
C2487 C2493 1.429 . S
C2488 C2480 1.574 1_554 S
C2488 H2483 0.949 . S
C2488 C2494 1.368 . S
C2489 C2473 1.349 . S
C2489 H2481 0.950 . S
C2489 C2487 1.327 . S
C2490 C2478 1.349 . S
C2490 H2484 0.950 . S
C2490 C2491 1.327 . S
C2491 H2485 0.950 . S
C2491 C2490 1.327 . S
C2491 C2495 1.429 . S
C2492 C2475 1.574 1_556 S
C2492 H2486 0.949 . S
C2492 C2496 1.368 . S
C2493 C2474 1.429 . S
C2493 C2487 1.429 . S
C2493 C2494 1.523 . S
C2494 C2475 1.368 . S
C2494 C2488 1.368 . S
C2494 C2493 1.523 . S
C2495 C2479 1.429 . S
C2495 C2491 1.429 . S
C2495 C2496 1.523 . S
C2496 C2480 1.368 . S
C2496 C2492 1.368 . S
C2496 C2495 1.523 . S
H2497 C2472 0.950 . S
H2498 C2474 0.950 . S
H2499 C2475 0.949 . S
H2500 C2477 0.950 . S
H2501 C2479 0.950 . S
C2502 C2503 1.349 . S
C2502 C2504 1.327 . S
C2502 H2527 0.950 . S
C2503 C2502 1.349 . S
C2503 C2519 1.349 . S
C2504 C2502 1.327 . S
C2504 C2523 1.429 . S
C2504 H2528 0.950 . S
C2505 C2522 1.574 . S
C2505 C2524 1.368 1_556 S
C2505 H2529 0.949 1_556 S
H2506 C2510 0.949 . S
C2507 C2508 1.349 . S
C2507 C2509 1.327 . S
C2507 H2530 0.950 . S
C2508 C2507 1.349 . S
C2508 C2520 1.349 . S
C2509 C2507 1.327 . S
C2509 C2525 1.429 . S
C2509 H2531 0.950 . S
C2510 H2506 0.949 . S
C2510 C2518 1.574 1_556 S
C2510 C2526 1.368 . S
H2511 C2519 0.950 . S
H2512 C2517 0.950 . S
H2513 C2518 0.949 . S
H2514 C2520 0.950 . S
H2515 C2521 0.950 . S
H2516 C2522 0.949 . S
C2517 H2512 0.950 . S
C2517 C2519 1.327 . S
C2517 C2523 1.429 . S
C2518 C2510 1.574 1_554 S
C2518 H2513 0.949 . S
C2518 C2524 1.368 . S
C2519 C2503 1.349 . S
C2519 H2511 0.950 . S
C2519 C2517 1.327 . S
C2520 C2508 1.349 . S
C2520 H2514 0.950 . S
C2520 C2521 1.327 . S
C2521 H2515 0.950 . S
C2521 C2520 1.327 . S
C2521 C2525 1.429 . S
C2522 C2505 1.574 . S
C2522 H2516 0.949 . S
C2522 C2526 1.368 . S
C2523 C2504 1.429 . S
C2523 C2517 1.429 . S
C2523 C2524 1.523 . S
C2524 C2505 1.368 1_554 S
C2524 C2518 1.368 . S
C2524 C2523 1.523 . S
C2525 C2509 1.429 . S
C2525 C2521 1.429 . S
C2525 C2526 1.523 . S
C2526 C2510 1.368 . S
C2526 C2522 1.368 . S
C2526 C2525 1.523 . S
H2527 C2502 0.950 . S
H2528 C2504 0.950 . S
H2529 C2505 0.949 1_554 S
H2530 C2507 0.950 . S
H2531 C2509 0.950 . S
C2532 C2533 1.349 . S
C2532 C2534 1.327 . S
C2532 H2557 0.950 . S
C2533 C2532 1.349 . S
C2533 C2549 1.349 . S
C2534 C2532 1.327 . S
C2534 C2553 1.429 . S
C2534 H2558 0.950 . S
C2535 C2552 1.574 1_556 S
C2535 C2554 1.368 . S
C2535 H2559 0.949 . S
H2536 C2540 0.949 . S
C2537 C2538 1.349 . S
C2537 C2539 1.327 . S
C2537 H2560 0.950 . S
C2538 C2537 1.349 . S
C2538 C2550 1.349 . S
C2539 C2537 1.327 . S
C2539 C2555 1.429 . S
C2539 H2561 0.950 . S
C2540 H2536 0.949 . S
C2540 C2548 1.574 1_554 S
C2540 C2556 1.368 . S
H2541 C2549 0.950 . S
H2542 C2547 0.950 . S
H2543 C2548 0.949 . S
H2544 C2550 0.950 . S
H2545 C2551 0.950 . S
H2546 C2552 0.949 . S
C2547 H2542 0.950 . S
C2547 C2549 1.327 . S
C2547 C2553 1.429 . S
C2548 C2540 1.574 1_556 S
C2548 H2543 0.949 . S
C2548 C2554 1.368 . S
C2549 C2533 1.349 . S
C2549 H2541 0.950 . S
C2549 C2547 1.327 . S
C2550 C2538 1.349 . S
C2550 H2544 0.950 . S
C2550 C2551 1.327 . S
C2551 H2545 0.950 . S
C2551 C2550 1.327 . S
C2551 C2555 1.429 . S
C2552 C2535 1.574 1_554 S
C2552 H2546 0.949 . S
C2552 C2556 1.368 . S
C2553 C2534 1.429 . S
C2553 C2547 1.429 . S
C2553 C2554 1.523 . S
C2554 C2535 1.368 . S
C2554 C2548 1.368 . S
C2554 C2553 1.523 . S
C2555 C2539 1.429 . S
C2555 C2551 1.429 . S
C2555 C2556 1.523 . S
C2556 C2540 1.368 . S
C2556 C2552 1.368 . S
C2556 C2555 1.523 . S
H2557 C2532 0.950 . S
H2558 C2534 0.950 . S
H2559 C2535 0.949 . S
H2560 C2537 0.950 . S
H2561 C2539 0.950 . S
C2562 C2563 1.349 . S
C2562 C2564 1.327 . S
C2562 H2587 0.950 . S
C2563 C2562 1.349 . S
C2563 C2579 1.349 . S
C2564 C2562 1.327 . S
C2564 C2583 1.429 . S
C2564 H2588 0.950 . S
C2565 C2582 1.560 1_556 S
C2565 C2584 1.368 . S
C2565 H2589 0.949 . S
H2566 C2570 0.948 . S
C2567 C2568 1.349 . S
C2567 C2569 1.327 . S
C2567 H2590 0.950 . S
C2568 C2567 1.349 . S
C2568 C2580 1.349 . S
C2569 C2567 1.327 . S
C2569 C2585 1.429 . S
C2569 H2591 0.950 . S
C2570 H2566 0.948 . S
C2570 C2578 1.576 1_554 S
C2570 C2586 1.367 . S
H2571 C2579 0.950 . S
H2572 C2577 0.950 . S
H2573 C2578 0.949 . S
H2574 C2580 0.950 . S
H2575 C2581 0.950 . S
H2576 C2582 0.957 . S
C2577 H2572 0.950 . S
C2577 C2579 1.327 . S
C2577 C2583 1.429 . S
C2578 C2570 1.576 1_556 S
C2578 H2573 0.949 . S
C2578 C2584 1.368 . S
C2579 C2563 1.349 . S
C2579 H2571 0.950 . S
C2579 C2577 1.327 . S
C2580 C2568 1.349 . S
C2580 H2574 0.950 . S
C2580 C2581 1.327 . S
C2581 H2575 0.950 . S
C2581 C2580 1.327 . S
C2581 C2585 1.429 . S
C2582 C2565 1.560 1_554 S
C2582 H2576 0.957 . S
C2582 C2586 1.373 . S
C2583 C2564 1.429 . S
C2583 C2577 1.429 . S
C2583 C2584 1.523 . S
C2584 C2565 1.368 . S
C2584 C2578 1.368 . S
C2584 C2583 1.523 . S
C2585 C2569 1.429 . S
C2585 C2581 1.429 . S
C2585 C2586 1.523 . S
C2586 C2570 1.367 . S
C2586 C2582 1.373 . S
C2586 C2585 1.523 . S
H2587 C2562 0.950 . S
H2588 C2564 0.950 . S
H2589 C2565 0.949 . S
H2590 C2567 0.950 . S
H2591 C2569 0.950 . S
C2592 C2593 1.349 . S
C2592 C2594 1.327 . S
C2592 H2617 0.950 . S
C2593 C2592 1.349 . S
C2593 C2609 1.349 . S
C2594 C2592 1.327 . S
C2594 C2613 1.429 . S
C2594 H2618 0.950 . S
C2595 C2612 1.574 . S
C2595 C2614 1.368 . S
C2595 H2619 0.949 . S
H2596 C2600 0.949 . S
C2597 C2598 1.349 . S
C2597 C2599 1.327 . S
C2597 H2620 0.950 . S
C2598 C2597 1.349 . S
C2598 C2610 1.349 . S
C2599 C2597 1.327 . S
C2599 C2615 1.429 . S
C2599 H2621 0.950 . S
C2600 H2596 0.949 . S
C2600 C2608 1.574 . S
C2600 C2616 1.368 . S
H2601 C2609 0.950 . S
H2602 C2607 0.950 . S
H2603 C2608 0.949 . S
H2604 C2610 0.950 . S
H2605 C2611 0.950 . S
H2606 C2612 0.949 . S
C2607 H2602 0.950 . S
C2607 C2609 1.327 . S
C2607 C2613 1.429 . S
C2608 C2600 1.574 . S
C2608 H2603 0.949 . S
C2608 C2614 1.368 . S
C2609 C2593 1.349 . S
C2609 H2601 0.950 . S
C2609 C2607 1.327 . S
C2610 C2598 1.349 . S
C2610 H2604 0.950 . S
C2610 C2611 1.327 . S
C2611 H2605 0.950 . S
C2611 C2610 1.327 . S
C2611 C2615 1.429 . S
C2612 C2595 1.574 . S
C2612 H2606 0.949 . S
C2612 C2616 1.368 . S
C2613 C2594 1.429 . S
C2613 C2607 1.429 . S
C2613 C2614 1.523 . S
C2614 C2595 1.368 . S
C2614 C2608 1.368 . S
C2614 C2613 1.523 . S
C2615 C2599 1.429 . S
C2615 C2611 1.429 . S
C2615 C2616 1.523 . S
C2616 C2600 1.368 . S
C2616 C2612 1.368 . S
C2616 C2615 1.523 . S
H2617 C2592 0.950 . S
H2618 C2594 0.950 . S
H2619 C2595 0.949 . S
H2620 C2597 0.950 . S
H2621 C2599 0.950 . S
C2622 C2623 1.349 . S
C2622 C2624 1.327 . S
C2622 H2647 0.950 . S
C2623 C2622 1.349 . S
C2623 C2639 1.349 . S
C2624 C2622 1.327 . S
C2624 C2643 1.429 . S
C2624 H2648 0.950 . S
C2625 C2642 1.574 . S
C2625 C2644 1.368 . S
C2625 H2649 0.949 . S
H2626 C2630 0.949 . S
C2627 C2628 1.349 . S
C2627 C2629 1.327 . S
C2627 H2650 0.950 . S
C2628 C2627 1.349 . S
C2628 C2640 1.349 . S
C2629 C2627 1.327 . S
C2629 C2645 1.429 . S
C2629 H2651 0.950 . S
C2630 H2626 0.949 . S
C2630 C2638 1.574 . S
C2630 C2646 1.368 . S
H2631 C2639 0.950 . S
H2632 C2637 0.950 . S
H2633 C2638 0.949 . S
H2634 C2640 0.950 . S
H2635 C2641 0.950 . S
H2636 C2642 0.949 . S
C2637 H2632 0.950 . S
C2637 C2639 1.327 . S
C2637 C2643 1.429 . S
C2638 C2630 1.574 . S
C2638 H2633 0.949 . S
C2638 C2644 1.368 . S
C2639 C2623 1.349 . S
C2639 H2631 0.950 . S
C2639 C2637 1.327 . S
C2640 C2628 1.349 . S
C2640 H2634 0.950 . S
C2640 C2641 1.327 . S
C2641 H2635 0.950 . S
C2641 C2640 1.327 . S
C2641 C2645 1.429 . S
C2642 C2625 1.574 . S
C2642 H2636 0.949 . S
C2642 C2646 1.368 . S
C2643 C2624 1.429 . S
C2643 C2637 1.429 . S
C2643 C2644 1.523 . S
C2644 C2625 1.368 . S
C2644 C2638 1.368 . S
C2644 C2643 1.523 . S
C2645 C2629 1.429 . S
C2645 C2641 1.429 . S
C2645 C2646 1.523 . S
C2646 C2630 1.368 . S
C2646 C2642 1.368 . S
C2646 C2645 1.523 . S
H2647 C2622 0.950 . S
H2648 C2624 0.950 . S
H2649 C2625 0.949 . S
H2650 C2627 0.950 . S
H2651 C2629 0.950 . S
C2652 C2653 1.349 . S
C2652 C2654 1.327 . S
C2652 H2677 0.950 . S
C2653 C2652 1.349 . S
C2653 C2669 1.349 . S
C2654 C2652 1.327 . S
C2654 C2673 1.429 . S
C2654 H2678 0.950 . S
C2655 C2672 1.574 . S
C2655 C2674 1.368 . S
C2655 H2679 0.949 . S
H2656 C2660 0.949 . S
C2657 C2658 1.349 . S
C2657 C2659 1.327 . S
C2657 H2680 0.950 . S
C2658 C2657 1.349 . S
C2658 C2670 1.349 . S
C2659 C2657 1.327 . S
C2659 C2675 1.429 . S
C2659 H2681 0.950 . S
C2660 H2656 0.949 . S
C2660 C2668 1.574 . S
C2660 C2676 1.368 . S
H2661 C2669 0.950 . S
H2662 C2667 0.950 . S
H2663 C2668 0.949 . S
H2664 C2670 0.950 . S
H2665 C2671 0.950 . S
H2666 C2672 0.949 . S
C2667 H2662 0.950 . S
C2667 C2669 1.327 . S
C2667 C2673 1.429 . S
C2668 C2660 1.574 . S
C2668 H2663 0.949 . S
C2668 C2674 1.368 . S
C2669 C2653 1.349 . S
C2669 H2661 0.950 . S
C2669 C2667 1.327 . S
C2670 C2658 1.349 . S
C2670 H2664 0.950 . S
C2670 C2671 1.327 . S
C2671 H2665 0.950 . S
C2671 C2670 1.327 . S
C2671 C2675 1.429 . S
C2672 C2655 1.574 . S
C2672 H2666 0.949 . S
C2672 C2676 1.368 . S
C2673 C2654 1.429 . S
C2673 C2667 1.429 . S
C2673 C2674 1.523 . S
C2674 C2655 1.368 . S
C2674 C2668 1.368 . S
C2674 C2673 1.523 . S
C2675 C2659 1.429 . S
C2675 C2671 1.429 . S
C2675 C2676 1.523 . S
C2676 C2660 1.368 . S
C2676 C2672 1.368 . S
C2676 C2675 1.523 . S
H2677 C2652 0.950 . S
H2678 C2654 0.950 . S
H2679 C2655 0.949 . S
H2680 C2657 0.950 . S
H2681 C2659 0.950 . S
C2682 C2683 1.349 . S
C2682 C2684 1.327 . S
C2682 H2707 0.950 . S
C2683 C2682 1.349 . S
C2683 C2699 1.349 . S
C2684 C2682 1.327 . S
C2684 C2703 1.429 . S
C2684 H2708 0.950 . S
C2685 C2702 1.574 . S
C2685 C2704 1.368 . S
C2685 H2709 0.949 . S
H2686 C2690 0.949 . S
C2687 C2688 1.349 . S
C2687 C2689 1.327 . S
C2687 H2710 0.950 . S
C2688 C2687 1.349 . S
C2688 C2700 1.349 . S
C2689 C2687 1.327 . S
C2689 C2705 1.429 . S
C2689 H2711 0.950 . S
C2690 H2686 0.949 . S
C2690 C2698 1.574 . S
C2690 C2706 1.368 . S
H2691 C2699 0.950 . S
H2692 C2697 0.950 . S
H2693 C2698 0.949 . S
H2694 C2700 0.950 . S
H2695 C2701 0.950 . S
H2696 C2702 0.949 . S
C2697 H2692 0.950 . S
C2697 C2699 1.327 . S
C2697 C2703 1.429 . S
C2698 C2690 1.574 . S
C2698 H2693 0.949 . S
C2698 C2704 1.368 . S
C2699 C2683 1.349 . S
C2699 H2691 0.950 . S
C2699 C2697 1.327 . S
C2700 C2688 1.349 . S
C2700 H2694 0.950 . S
C2700 C2701 1.327 . S
C2701 H2695 0.950 . S
C2701 C2700 1.327 . S
C2701 C2705 1.429 . S
C2702 C2685 1.574 . S
C2702 H2696 0.949 . S
C2702 C2706 1.368 . S
C2703 C2684 1.429 . S
C2703 C2697 1.429 . S
C2703 C2704 1.523 . S
C2704 C2685 1.368 . S
C2704 C2698 1.368 . S
C2704 C2703 1.523 . S
C2705 C2689 1.429 . S
C2705 C2701 1.429 . S
C2705 C2706 1.523 . S
C2706 C2690 1.368 . S
C2706 C2702 1.368 . S
C2706 C2705 1.523 . S
H2707 C2682 0.950 . S
H2708 C2684 0.950 . S
H2709 C2685 0.949 . S
H2710 C2687 0.950 . S
H2711 C2689 0.950 . S
C2712 C2713 1.349 . S
C2712 C2714 1.327 . S
C2712 H2737 0.950 . S
C2713 C2712 1.349 . S
C2713 C2729 1.349 . S
C2714 C2712 1.327 . S
C2714 C2733 1.429 . S
C2714 H2738 0.950 . S
C2715 C2732 1.574 . S
C2715 C2734 1.368 . S
C2715 H2739 0.949 . S
H2716 C2720 0.949 . S
C2717 C2718 1.349 . S
C2717 C2719 1.327 . S
C2717 H2740 0.950 . S
C2718 C2717 1.349 . S
C2718 C2730 1.349 . S
C2719 C2717 1.327 . S
C2719 C2735 1.429 . S
C2719 H2741 0.950 . S
C2720 H2716 0.949 . S
C2720 C2728 1.574 . S
C2720 C2736 1.368 . S
H2721 C2729 0.950 . S
H2722 C2727 0.950 . S
H2723 C2728 0.949 . S
H2724 C2730 0.950 . S
H2725 C2731 0.950 . S
H2726 C2732 0.949 . S
C2727 H2722 0.950 . S
C2727 C2729 1.327 . S
C2727 C2733 1.429 . S
C2728 C2720 1.574 . S
C2728 H2723 0.949 . S
C2728 C2734 1.368 . S
C2729 C2713 1.349 . S
C2729 H2721 0.950 . S
C2729 C2727 1.327 . S
C2730 C2718 1.349 . S
C2730 H2724 0.950 . S
C2730 C2731 1.327 . S
C2731 H2725 0.950 . S
C2731 C2730 1.327 . S
C2731 C2735 1.429 . S
C2732 C2715 1.574 . S
C2732 H2726 0.949 . S
C2732 C2736 1.368 . S
C2733 C2714 1.429 . S
C2733 C2727 1.429 . S
C2733 C2734 1.523 . S
C2734 C2715 1.368 . S
C2734 C2728 1.368 . S
C2734 C2733 1.523 . S
C2735 C2719 1.429 . S
C2735 C2731 1.429 . S
C2735 C2736 1.523 . S
C2736 C2720 1.368 . S
C2736 C2732 1.368 . S
C2736 C2735 1.523 . S
H2737 C2712 0.950 . S
H2738 C2714 0.950 . S
H2739 C2715 0.949 . S
H2740 C2717 0.950 . S
H2741 C2719 0.950 . S
C2742 C2743 1.349 . S
C2742 C2744 1.327 . S
C2742 H2767 0.950 . S
C2743 C2742 1.349 . S
C2743 C2759 1.349 . S
C2744 C2742 1.327 . S
C2744 C2763 1.429 . S
C2744 H2768 0.950 . S
C2745 C2762 1.574 . S
C2745 C2764 1.368 . S
C2745 H2769 0.949 . S
H2746 C2750 0.949 . S
C2747 C2748 1.349 . S
C2747 C2749 1.327 . S
C2747 H2770 0.950 . S
C2748 C2747 1.349 . S
C2748 C2760 1.349 . S
C2749 C2747 1.327 . S
C2749 C2765 1.429 . S
C2749 H2771 0.950 . S
C2750 H2746 0.949 . S
C2750 C2758 1.574 . S
C2750 C2766 1.368 . S
H2751 C2759 0.950 . S
H2752 C2757 0.950 . S
H2753 C2758 0.949 . S
H2754 C2760 0.950 . S
H2755 C2761 0.950 . S
H2756 C2762 0.949 . S
C2757 H2752 0.950 . S
C2757 C2759 1.327 . S
C2757 C2763 1.429 . S
C2758 C2750 1.574 . S
C2758 H2753 0.949 . S
C2758 C2764 1.368 . S
C2759 C2743 1.349 . S
C2759 H2751 0.950 . S
C2759 C2757 1.327 . S
C2760 C2748 1.349 . S
C2760 H2754 0.950 . S
C2760 C2761 1.327 . S
C2761 H2755 0.950 . S
C2761 C2760 1.327 . S
C2761 C2765 1.429 . S
C2762 C2745 1.574 . S
C2762 H2756 0.949 . S
C2762 C2766 1.368 . S
C2763 C2744 1.429 . S
C2763 C2757 1.429 . S
C2763 C2764 1.523 . S
C2764 C2745 1.368 . S
C2764 C2758 1.368 . S
C2764 C2763 1.523 . S
C2765 C2749 1.429 . S
C2765 C2761 1.429 . S
C2765 C2766 1.523 . S
C2766 C2750 1.368 . S
C2766 C2762 1.368 . S
C2766 C2765 1.523 . S
H2767 C2742 0.950 . S
H2768 C2744 0.950 . S
H2769 C2745 0.949 . S
H2770 C2747 0.950 . S
H2771 C2749 0.950 . S
C2772 C2773 1.349 . S
C2772 C2774 1.327 . S
C2772 H2797 0.950 . S
C2773 C2772 1.349 . S
C2773 C2789 1.349 . S
C2774 C2772 1.327 . S
C2774 C2793 1.429 . S
C2774 H2798 0.950 . S
C2775 C2792 1.574 . S
C2775 C2794 1.368 . S
C2775 H2799 0.949 . S
H2776 C2780 0.949 . S
C2777 C2778 1.349 . S
C2777 C2779 1.327 . S
C2777 H2800 0.950 . S
C2778 C2777 1.349 . S
C2778 C2790 1.349 . S
C2779 C2777 1.327 . S
C2779 C2795 1.429 . S
C2779 H2801 0.950 . S
C2780 H2776 0.949 . S
C2780 C2788 1.574 . S
C2780 C2796 1.368 . S
H2781 C2789 0.950 . S
H2782 C2787 0.950 . S
H2783 C2788 0.949 . S
H2784 C2790 0.950 . S
H2785 C2791 0.950 . S
H2786 C2792 0.949 . S
C2787 H2782 0.950 . S
C2787 C2789 1.327 . S
C2787 C2793 1.429 . S
C2788 C2780 1.574 . S
C2788 H2783 0.949 . S
C2788 C2794 1.368 . S
C2789 C2773 1.349 . S
C2789 H2781 0.950 . S
C2789 C2787 1.327 . S
C2790 C2778 1.349 . S
C2790 H2784 0.950 . S
C2790 C2791 1.327 . S
C2791 H2785 0.950 . S
C2791 C2790 1.327 . S
C2791 C2795 1.429 . S
C2792 C2775 1.574 . S
C2792 H2786 0.949 . S
C2792 C2796 1.368 . S
C2793 C2774 1.429 . S
C2793 C2787 1.429 . S
C2793 C2794 1.523 . S
C2794 C2775 1.368 . S
C2794 C2788 1.368 . S
C2794 C2793 1.523 . S
C2795 C2779 1.429 . S
C2795 C2791 1.429 . S
C2795 C2796 1.523 . S
C2796 C2780 1.368 . S
C2796 C2792 1.368 . S
C2796 C2795 1.523 . S
H2797 C2772 0.950 . S
H2798 C2774 0.950 . S
H2799 C2775 0.949 . S
H2800 C2777 0.950 . S
H2801 C2779 0.950 . S
C2802 C2803 1.349 . S
C2802 C2804 1.327 . S
C2802 H2827 0.950 . S
C2803 C2802 1.349 . S
C2803 C2819 1.349 . S
C2804 C2802 1.327 . S
C2804 C2823 1.429 . S
C2804 H2828 0.950 . S
C2805 C2822 1.574 . S
C2805 C2824 1.368 . S
C2805 H2829 0.949 . S
H2806 C2810 0.949 . S
C2807 C2808 1.349 . S
C2807 C2809 1.327 . S
C2807 H2830 0.950 . S
C2808 C2807 1.349 . S
C2808 C2820 1.349 . S
C2809 C2807 1.327 . S
C2809 C2825 1.429 . S
C2809 H2831 0.950 . S
C2810 H2806 0.949 . S
C2810 C2818 1.574 . S
C2810 C2826 1.368 . S
H2811 C2819 0.950 . S
H2812 C2817 0.950 . S
H2813 C2818 0.949 . S
H2814 C2820 0.950 . S
H2815 C2821 0.950 . S
H2816 C2822 0.949 . S
C2817 H2812 0.950 . S
C2817 C2819 1.327 . S
C2817 C2823 1.429 . S
C2818 C2810 1.574 . S
C2818 H2813 0.949 . S
C2818 C2824 1.368 . S
C2819 C2803 1.349 . S
C2819 H2811 0.950 . S
C2819 C2817 1.327 . S
C2820 C2808 1.349 . S
C2820 H2814 0.950 . S
C2820 C2821 1.327 . S
C2821 H2815 0.950 . S
C2821 C2820 1.327 . S
C2821 C2825 1.429 . S
C2822 C2805 1.574 . S
C2822 H2816 0.949 . S
C2822 C2826 1.368 . S
C2823 C2804 1.429 . S
C2823 C2817 1.429 . S
C2823 C2824 1.523 . S
C2824 C2805 1.368 . S
C2824 C2818 1.368 . S
C2824 C2823 1.523 . S
C2825 C2809 1.429 . S
C2825 C2821 1.429 . S
C2825 C2826 1.523 . S
C2826 C2810 1.368 . S
C2826 C2822 1.368 . S
C2826 C2825 1.523 . S
H2827 C2802 0.950 . S
H2828 C2804 0.950 . S
H2829 C2805 0.949 . S
H2830 C2807 0.950 . S
H2831 C2809 0.950 . S
C2832 C2833 1.349 . S
C2832 C2834 1.327 . S
C2832 H2857 0.950 . S
C2833 C2832 1.349 . S
C2833 C2849 1.349 . S
C2834 C2832 1.327 . S
C2834 C2853 1.429 . S
C2834 H2858 0.950 . S
C2835 C2852 1.574 . S
C2835 C2854 1.368 . S
C2835 H2859 0.949 . S
H2836 C2840 0.949 . S
C2837 C2838 1.349 . S
C2837 C2839 1.327 . S
C2837 H2860 0.950 . S
C2838 C2837 1.349 . S
C2838 C2850 1.349 . S
C2839 C2837 1.327 . S
C2839 C2855 1.429 . S
C2839 H2861 0.950 . S
C2840 H2836 0.949 . S
C2840 C2848 1.574 . S
C2840 C2856 1.368 . S
H2841 C2849 0.950 . S
H2842 C2847 0.950 . S
H2843 C2848 0.949 . S
H2844 C2850 0.950 . S
H2845 C2851 0.950 . S
H2846 C2852 0.949 . S
C2847 H2842 0.950 . S
C2847 C2849 1.327 . S
C2847 C2853 1.429 . S
C2848 C2840 1.574 . S
C2848 H2843 0.949 . S
C2848 C2854 1.368 . S
C2849 C2833 1.349 . S
C2849 H2841 0.950 . S
C2849 C2847 1.327 . S
C2850 C2838 1.349 . S
C2850 H2844 0.950 . S
C2850 C2851 1.327 . S
C2851 H2845 0.950 . S
C2851 C2850 1.327 . S
C2851 C2855 1.429 . S
C2852 C2835 1.574 . S
C2852 H2846 0.949 . S
C2852 C2856 1.368 . S
C2853 C2834 1.429 . S
C2853 C2847 1.429 . S
C2853 C2854 1.523 . S
C2854 C2835 1.368 . S
C2854 C2848 1.368 . S
C2854 C2853 1.523 . S
C2855 C2839 1.429 . S
C2855 C2851 1.429 . S
C2855 C2856 1.523 . S
C2856 C2840 1.368 . S
C2856 C2852 1.368 . S
C2856 C2855 1.523 . S
H2857 C2832 0.950 . S
H2858 C2834 0.950 . S
H2859 C2835 0.949 . S
H2860 C2837 0.950 . S
H2861 C2839 0.950 . S
C2862 C2863 1.349 . S
C2862 C2864 1.327 . S
C2862 H2887 0.950 . S
C2863 C2862 1.349 . S
C2863 C2879 1.349 . S
C2864 C2862 1.327 . S
C2864 C2883 1.429 . S
C2864 H2888 0.950 . S
C2865 C2882 1.574 . S
C2865 C2884 1.368 . S
C2865 H2889 0.949 . S
H2866 C2870 0.949 . S
C2867 C2868 1.349 . S
C2867 C2869 1.327 . S
C2867 H2890 0.950 . S
C2868 C2867 1.349 . S
C2868 C2880 1.349 . S
C2869 C2867 1.327 . S
C2869 C2885 1.429 . S
C2869 H2891 0.950 . S
C2870 H2866 0.949 . S
C2870 C2878 1.574 . S
C2870 C2886 1.368 . S
H2871 C2879 0.950 . S
H2872 C2877 0.950 . S
H2873 C2878 0.949 . S
H2874 C2880 0.950 . S
H2875 C2881 0.950 . S
H2876 C2882 0.949 . S
C2877 H2872 0.950 . S
C2877 C2879 1.327 . S
C2877 C2883 1.429 . S
C2878 C2870 1.574 . S
C2878 H2873 0.949 . S
C2878 C2884 1.368 . S
C2879 C2863 1.349 . S
C2879 H2871 0.950 . S
C2879 C2877 1.327 . S
C2880 C2868 1.349 . S
C2880 H2874 0.950 . S
C2880 C2881 1.327 . S
C2881 H2875 0.950 . S
C2881 C2880 1.327 . S
C2881 C2885 1.429 . S
C2882 C2865 1.574 . S
C2882 H2876 0.949 . S
C2882 C2886 1.368 . S
C2883 C2864 1.429 . S
C2883 C2877 1.429 . S
C2883 C2884 1.523 . S
C2884 C2865 1.368 . S
C2884 C2878 1.368 . S
C2884 C2883 1.523 . S
C2885 C2869 1.429 . S
C2885 C2881 1.429 . S
C2885 C2886 1.523 . S
C2886 C2870 1.368 . S
C2886 C2882 1.368 . S
C2886 C2885 1.523 . S
H2887 C2862 0.950 . S
H2888 C2864 0.950 . S
H2889 C2865 0.949 . S
H2890 C2867 0.950 . S
H2891 C2869 0.950 . S
C2892 C2893 1.349 . S
C2892 C2894 1.327 . S
C2892 H2917 0.950 . S
C2893 C2892 1.349 . S
C2893 C2909 1.349 . S
C2894 C2892 1.327 . S
C2894 C2913 1.429 . S
C2894 H2918 0.950 . S
C2895 C2912 1.574 . S
C2895 C2914 1.368 . S
C2895 H2919 0.949 . S
H2896 C2900 0.949 . S
C2897 C2898 1.349 . S
C2897 C2899 1.327 . S
C2897 H2920 0.950 . S
C2898 C2897 1.349 . S
C2898 C2910 1.349 . S
C2899 C2897 1.327 . S
C2899 C2915 1.429 . S
C2899 H2921 0.950 . S
C2900 H2896 0.949 . S
C2900 C2908 1.574 . S
C2900 C2916 1.368 . S
H2901 C2909 0.950 . S
H2902 C2907 0.950 . S
H2903 C2908 0.949 . S
H2904 C2910 0.950 . S
H2905 C2911 0.950 . S
H2906 C2912 0.949 . S
C2907 H2902 0.950 . S
C2907 C2909 1.327 . S
C2907 C2913 1.429 . S
C2908 C2900 1.574 . S
C2908 H2903 0.949 . S
C2908 C2914 1.368 . S
C2909 C2893 1.349 . S
C2909 H2901 0.950 . S
C2909 C2907 1.327 . S
C2910 C2898 1.349 . S
C2910 H2904 0.950 . S
C2910 C2911 1.327 . S
C2911 H2905 0.950 . S
C2911 C2910 1.327 . S
C2911 C2915 1.429 . S
C2912 C2895 1.574 . S
C2912 H2906 0.949 . S
C2912 C2916 1.368 . S
C2913 C2894 1.429 . S
C2913 C2907 1.429 . S
C2913 C2914 1.523 . S
C2914 C2895 1.368 . S
C2914 C2908 1.368 . S
C2914 C2913 1.523 . S
C2915 C2899 1.429 . S
C2915 C2911 1.429 . S
C2915 C2916 1.523 . S
C2916 C2900 1.368 . S
C2916 C2912 1.368 . S
C2916 C2915 1.523 . S
H2917 C2892 0.950 . S
H2918 C2894 0.950 . S
H2919 C2895 0.949 . S
H2920 C2897 0.950 . S
H2921 C2899 0.950 . S
C2922 C2923 1.349 . S
C2922 C2924 1.327 . S
C2922 H2947 0.950 . S
C2923 C2922 1.349 . S
C2923 C2939 1.349 . S
C2924 C2922 1.327 . S
C2924 C2943 1.429 . S
C2924 H2948 0.950 . S
C2925 C2942 1.574 . S
C2925 C2944 1.368 . S
C2925 H2949 0.949 . S
H2926 C2930 0.949 . S
C2927 C2928 1.349 . S
C2927 C2929 1.327 . S
C2927 H2950 0.950 . S
C2928 C2927 1.349 . S
C2928 C2940 1.349 . S
C2929 C2927 1.327 . S
C2929 C2945 1.429 . S
C2929 H2951 0.950 . S
C2930 H2926 0.949 . S
C2930 C2938 1.574 . S
C2930 C2946 1.368 . S
H2931 C2939 0.950 . S
H2932 C2937 0.950 . S
H2933 C2938 0.949 . S
H2934 C2940 0.950 . S
H2935 C2941 0.950 . S
H2936 C2942 0.949 . S
C2937 H2932 0.950 . S
C2937 C2939 1.327 . S
C2937 C2943 1.429 . S
C2938 C2930 1.574 . S
C2938 H2933 0.949 . S
C2938 C2944 1.368 . S
C2939 C2923 1.349 . S
C2939 H2931 0.950 . S
C2939 C2937 1.327 . S
C2940 C2928 1.349 . S
C2940 H2934 0.950 . S
C2940 C2941 1.327 . S
C2941 H2935 0.950 . S
C2941 C2940 1.327 . S
C2941 C2945 1.429 . S
C2942 C2925 1.574 . S
C2942 H2936 0.949 . S
C2942 C2946 1.368 . S
C2943 C2924 1.429 . S
C2943 C2937 1.429 . S
C2943 C2944 1.523 . S
C2944 C2925 1.368 . S
C2944 C2938 1.368 . S
C2944 C2943 1.523 . S
C2945 C2929 1.429 . S
C2945 C2941 1.429 . S
C2945 C2946 1.523 . S
C2946 C2930 1.368 . S
C2946 C2942 1.368 . S
C2946 C2945 1.523 . S
H2947 C2922 0.950 . S
H2948 C2924 0.950 . S
H2949 C2925 0.949 . S
H2950 C2927 0.950 . S
H2951 C2929 0.950 . S
C2952 C2953 1.349 . S
C2952 C2954 1.327 . S
C2952 H2977 0.950 . S
C2953 C2952 1.349 . S
C2953 C2969 1.349 . S
C2954 C2952 1.327 . S
C2954 C2973 1.429 . S
C2954 H2978 0.950 . S
C2955 C2972 1.574 . S
C2955 C2974 1.368 . S
C2955 H2979 0.949 . S
H2956 C2960 0.949 . S
C2957 C2958 1.349 . S
C2957 C2959 1.327 . S
C2957 H2980 0.950 . S
C2958 C2957 1.349 . S
C2958 C2970 1.349 . S
C2959 C2957 1.327 . S
C2959 C2975 1.429 . S
C2959 H2981 0.950 . S
C2960 H2956 0.949 . S
C2960 C2968 1.574 . S
C2960 C2976 1.368 . S
H2961 C2969 0.950 . S
H2962 C2967 0.950 . S
H2963 C2968 0.949 . S
H2964 C2970 0.950 . S
H2965 C2971 0.950 . S
H2966 C2972 0.949 . S
C2967 H2962 0.950 . S
C2967 C2969 1.327 . S
C2967 C2973 1.429 . S
C2968 C2960 1.574 . S
C2968 H2963 0.949 . S
C2968 C2974 1.368 . S
C2969 C2953 1.349 . S
C2969 H2961 0.950 . S
C2969 C2967 1.327 . S
C2970 C2958 1.349 . S
C2970 H2964 0.950 . S
C2970 C2971 1.327 . S
C2971 H2965 0.950 . S
C2971 C2970 1.327 . S
C2971 C2975 1.429 . S
C2972 C2955 1.574 . S
C2972 H2966 0.949 . S
C2972 C2976 1.368 . S
C2973 C2954 1.429 . S
C2973 C2967 1.429 . S
C2973 C2974 1.523 . S
C2974 C2955 1.368 . S
C2974 C2968 1.368 . S
C2974 C2973 1.523 . S
C2975 C2959 1.429 . S
C2975 C2971 1.429 . S
C2975 C2976 1.523 . S
C2976 C2960 1.368 . S
C2976 C2972 1.368 . S
C2976 C2975 1.523 . S
H2977 C2952 0.950 . S
H2978 C2954 0.950 . S
H2979 C2955 0.949 . S
H2980 C2957 0.950 . S
H2981 C2959 0.950 . S
C2982 C2983 1.349 . S
C2982 C2984 1.327 . S
C2982 H3007 0.950 . S
C2983 C2982 1.349 . S
C2983 C2999 1.349 . S
C2984 C2982 1.327 . S
C2984 C3003 1.429 . S
C2984 H3008 0.950 . S
C2985 C3002 1.574 . S
C2985 C3004 1.368 . S
C2985 H3009 0.949 . S
H2986 C2990 0.949 . S
C2987 C2988 1.349 . S
C2987 C2989 1.327 . S
C2987 H3010 0.950 . S
C2988 C2987 1.349 . S
C2988 C3000 1.349 . S
C2989 C2987 1.327 . S
C2989 C3005 1.429 . S
C2989 H3011 0.950 . S
C2990 H2986 0.949 . S
C2990 C2998 1.574 . S
C2990 C3006 1.368 . S
H2991 C2999 0.950 . S
H2992 C2997 0.950 . S
H2993 C2998 0.949 . S
H2994 C3000 0.950 . S
H2995 C3001 0.950 . S
H2996 C3002 0.949 . S
C2997 H2992 0.950 . S
C2997 C2999 1.327 . S
C2997 C3003 1.429 . S
C2998 C2990 1.574 . S
C2998 H2993 0.949 . S
C2998 C3004 1.368 . S
C2999 C2983 1.349 . S
C2999 H2991 0.950 . S
C2999 C2997 1.327 . S
C3000 C2988 1.349 . S
C3000 H2994 0.950 . S
C3000 C3001 1.327 . S
C3001 H2995 0.950 . S
C3001 C3000 1.327 . S
C3001 C3005 1.429 . S
C3002 C2985 1.574 . S
C3002 H2996 0.949 . S
C3002 C3006 1.368 . S
C3003 C2984 1.429 . S
C3003 C2997 1.429 . S
C3003 C3004 1.523 . S
C3004 C2985 1.368 . S
C3004 C2998 1.368 . S
C3004 C3003 1.523 . S
C3005 C2989 1.429 . S
C3005 C3001 1.429 . S
C3005 C3006 1.523 . S
C3006 C2990 1.368 . S
C3006 C3002 1.368 . S
C3006 C3005 1.523 . S
H3007 C2982 0.950 . S
H3008 C2984 0.950 . S
H3009 C2985 0.949 . S
H3010 C2987 0.950 . S
H3011 C2989 0.950 . S
C3012 C3013 1.349 . S
C3012 C3014 1.327 . S
C3012 H3037 0.950 . S
C3013 C3012 1.349 . S
C3013 C3029 1.349 . S
C3014 C3012 1.327 . S
C3014 C3033 1.429 . S
C3014 H3038 0.950 . S
C3015 C3032 1.574 . S
C3015 C3034 1.368 . S
C3015 H3039 0.949 . S
H3016 C3020 0.949 . S
C3017 C3018 1.349 . S
C3017 C3019 1.327 . S
C3017 H3040 0.950 . S
C3018 C3017 1.349 . S
C3018 C3030 1.349 . S
C3019 C3017 1.327 . S
C3019 C3035 1.429 . S
C3019 H3041 0.950 . S
C3020 H3016 0.949 . S
C3020 C3028 1.574 . S
C3020 C3036 1.368 . S
H3021 C3029 0.950 . S
H3022 C3027 0.950 . S
H3023 C3028 0.949 . S
H3024 C3030 0.950 . S
H3025 C3031 0.950 . S
H3026 C3032 0.949 . S
C3027 H3022 0.950 . S
C3027 C3029 1.327 . S
C3027 C3033 1.429 . S
C3028 C3020 1.574 . S
C3028 H3023 0.949 . S
C3028 C3034 1.368 . S
C3029 C3013 1.349 . S
C3029 H3021 0.950 . S
C3029 C3027 1.327 . S
C3030 C3018 1.349 . S
C3030 H3024 0.950 . S
C3030 C3031 1.327 . S
C3031 H3025 0.950 . S
C3031 C3030 1.327 . S
C3031 C3035 1.429 . S
C3032 C3015 1.574 . S
C3032 H3026 0.949 . S
C3032 C3036 1.368 . S
C3033 C3014 1.429 . S
C3033 C3027 1.429 . S
C3033 C3034 1.523 . S
C3034 C3015 1.368 . S
C3034 C3028 1.368 . S
C3034 C3033 1.523 . S
C3035 C3019 1.429 . S
C3035 C3031 1.429 . S
C3035 C3036 1.523 . S
C3036 C3020 1.368 . S
C3036 C3032 1.368 . S
C3036 C3035 1.523 . S
H3037 C3012 0.950 . S
H3038 C3014 0.950 . S
H3039 C3015 0.949 . S
H3040 C3017 0.950 . S
H3041 C3019 0.950 . S
C3042 C3043 1.349 . S
C3042 C3044 1.327 . S
C3042 H3067 0.950 . S
C3043 C3042 1.349 . S
C3043 C3059 1.349 . S
C3044 C3042 1.327 . S
C3044 C3063 1.429 . S
C3044 H3068 0.950 . S
C3045 C3062 1.574 . S
C3045 C3064 1.368 . S
C3045 H3069 0.949 . S
H3046 C3050 0.949 . S
C3047 C3048 1.349 . S
C3047 C3049 1.327 . S
C3047 H3070 0.950 . S
C3048 C3047 1.349 . S
C3048 C3060 1.349 . S
C3049 C3047 1.327 . S
C3049 C3065 1.429 . S
C3049 H3071 0.950 . S
C3050 H3046 0.949 . S
C3050 C3058 1.574 . S
C3050 C3066 1.368 . S
H3051 C3059 0.950 . S
H3052 C3057 0.950 . S
H3053 C3058 0.949 . S
H3054 C3060 0.950 . S
H3055 C3061 0.950 . S
H3056 C3062 0.949 . S
C3057 H3052 0.950 . S
C3057 C3059 1.327 . S
C3057 C3063 1.429 . S
C3058 C3050 1.574 . S
C3058 H3053 0.949 . S
C3058 C3064 1.368 . S
C3059 C3043 1.349 . S
C3059 H3051 0.950 . S
C3059 C3057 1.327 . S
C3060 C3048 1.349 . S
C3060 H3054 0.950 . S
C3060 C3061 1.327 . S
C3061 H3055 0.950 . S
C3061 C3060 1.327 . S
C3061 C3065 1.429 . S
C3062 C3045 1.574 . S
C3062 H3056 0.949 . S
C3062 C3066 1.368 . S
C3063 C3044 1.429 . S
C3063 C3057 1.429 . S
C3063 C3064 1.523 . S
C3064 C3045 1.368 . S
C3064 C3058 1.368 . S
C3064 C3063 1.523 . S
C3065 C3049 1.429 . S
C3065 C3061 1.429 . S
C3065 C3066 1.523 . S
C3066 C3050 1.368 . S
C3066 C3062 1.368 . S
C3066 C3065 1.523 . S
H3067 C3042 0.950 . S
H3068 C3044 0.950 . S
H3069 C3045 0.949 . S
H3070 C3047 0.950 . S
H3071 C3049 0.950 . S
C1153 C544 1.314 . S
C1158 C4 1.318 . S
C1183 C38 1.488 . S
C1188 C436 1.492 . S
C1213 C76 1.318 . S
C1218 C472 1.314 . S
C1243 C508 1.492 . S
C1248 C110 1.488 . S
C1273 C148 1.318 . S
C1278 C328 1.314 . S
C1303 C182 1.488 . S
C1308 C364 1.492 . S
C1333 C400 1.314 . S
C1338 C220 1.318 . S
C1363 C292 1.492 . S
C1368 C254 1.488 . S
C1393 C580 1.318 . S
C1398 C1120 1.314 . S
C1423 C614 1.488 . S
C1428 C1012 1.492 . S
C1453 C652 1.318 . S
C1458 C1048 1.314 . S
C1483 C1084 1.492 . S
C1488 C686 1.488 . S
C1513 C724 1.318 . S
C1518 C904 1.314 . S
C1543 C758 1.488 . S
C1548 C940 1.492 . S
C1573 C976 1.314 . S
C1578 C796 1.318 . S
C1603 C830 1.488 . S
C1608 C868 1.492 . S
C1633 C435 1.281 . S
C1638 C3 1.281 . S
C1663 C50 1.180 . S
C1668 C471 1.232 . S
C1693 C507 1.281 . S
C1698 C75 1.281 . S
C1723 C122 1.180 . S
C1728 C543 1.232 . S
C1753 C147 1.281 . S
C1758 C291 1.281 . S
C1783 C327 1.232 . S
C1788 C194 1.180 . S
C1813 C363 1.281 . S
C1818 C219 1.281 . S
C1843 C399 1.232 . S
C1848 C266 1.180 . S
C1873 C579 1.281 . S
C1878 C1011 1.281 . S
C1903 C1047 1.232 . S
C1908 C626 1.180 . S
C1933 C651 1.281 . S
C1938 C1083 1.281 . S
C1963 C698 1.180 . S
C1968 C1119 1.232 . S
C1993 C867 1.281 . S
C1998 C723 1.281 . S
C2023 C770 1.180 . S
C2028 C903 1.232 . S
C2053 C795 1.281 . S
C2058 C939 1.281 . S
C2083 C842 1.180 . S
C2088 C975 1.232 . S
C2113 C2 1.251 . S
C2118 C362 1.248 . S
C2143 C398 1.244 . S
C2148 C40 1.242 . S
C2173 C74 1.251 . S
C2178 C290 1.248 . S
C2203 C326 1.244 . S
C2208 C112 1.242 . S
C2233 C506 1.248 . S
C2238 C146 1.251 . S
C2263 C542 1.244 . S
C2268 C184 1.242 . S
C2293 C434 1.248 . S
C2298 C218 1.251 . S
C2323 C256 1.242 . S
C2328 C470 1.244 . S
C2353 C938 1.248 . S
C2358 C578 1.251 . S
C2383 C616 1.242 . S
C2388 C974 1.244 . S
C2413 C866 1.248 . S
C2418 C650 1.251 . S
C2443 C902 1.244 . S
C2448 C688 1.242 . S
C2473 C722 1.251 . S
C2478 C1082 1.248 . S
C2503 C760 1.242 . S
C2508 C1118 1.244 . S
C2533 C1010 1.248 . S
C2538 C794 1.251 . S
C2563 C1046 1.244 . S
C2568 C832 1.242 . S
C2593 C831 1.065 . S
C2598 C14 1.030 . S
C2623 C734 1.030 . S
C2628 C39 1.065 . S
C2653 C759 1.065 . S
C2658 C86 1.030 . S
C2683 C806 1.030 . S
C2688 C111 1.065 . S
C2713 C615 1.065 . S
C2718 C158 1.030 . S
C2743 C183 1.065 . S
C2748 C662 1.030 . S
C2773 C230 1.030 . S
C2778 C687 1.065 . S
C2803 C255 1.065 . S
C2808 C590 1.030 . S
C2833 C302 1.068 . S
C2838 C1130 1.061 . S
C2863 C1022 1.068 . S
C2868 C338 1.061 . S
C2893 C374 1.068 . S
C2898 C1058 1.061 . S
C2923 C410 1.061 . S
C2928 C1094 1.068 . S
C2953 C914 1.061 . S
C2958 C446 1.068 . S
C2983 C950 1.068 . S
C2988 C482 1.061 . S
C3013 C518 1.068 . S
C3018 C986 1.061 . S
C3043 C554 1.061 . S
C3048 C878 1.068 . S
