# Generated by pormake.
# Topology pem, (4)-cn, num edge types: 1
# Building blocks:
#     Node 0, Type 0, BuildingBlock: UXUYUI_clean_sbu_0, # of connection points: 4
#     Node 1, Type 0, BuildingBlock: UXUYUI_clean_sbu_0, # of connection points: 4
#     Node 2, Type 0, BuildingBlock: UXUYUI_clean_sbu_0, # of connection points: 4
#     Node 3, Type 0, BuildingBlock: UXUYUI_clean_sbu_0, # of connection points: 4
#     Node 4, Type 0, BuildingBlock: UXUYUI_clean_sbu_0, # of connection points: 4
#     Node 5, Type 0, BuildingBlock: UXUYUI_clean_sbu_0, # of connection points: 4
#     Node 6, Type 0, BuildingBlock: UXUYUI_clean_sbu_0, # of connection points: 4
#     Node 7, Type 0, BuildingBlock: UXUYUI_clean_sbu_0, # of connection points: 4
#     Node 8, Type 0, BuildingBlock: UXUYUI_clean_sbu_0, # of connection points: 4
#     Node 9, Type 0, BuildingBlock: UXUYUI_clean_sbu_0, # of connection points: 4
#     Node 10, Type 0, BuildingBlock: UXUYUI_clean_sbu_0, # of connection points: 4
#     Node 11, Type 0, BuildingBlock: UXUYUI_clean_sbu_0, # of connection points: 4
#     Node 12, Type 0, BuildingBlock: UXUYUI_clean_sbu_0, # of connection points: 4
#     Node 13, Type 0, BuildingBlock: UXUYUI_clean_sbu_0, # of connection points: 4
#     Node 14, Type 0, BuildingBlock: UXUYUI_clean_sbu_0, # of connection points: 4
#     Node 15, Type 0, BuildingBlock: UXUYUI_clean_sbu_0, # of connection points: 4
#     Node 16, Type 0, BuildingBlock: UXUYUI_clean_sbu_0, # of connection points: 4
#     Node 17, Type 0, BuildingBlock: UXUYUI_clean_sbu_0, # of connection points: 4
#     Node 18, Type 0, BuildingBlock: UXUYUI_clean_sbu_0, # of connection points: 4
#     Node 19, Type 0, BuildingBlock: UXUYUI_clean_sbu_0, # of connection points: 4
#     Node 20, Type 0, BuildingBlock: UXUYUI_clean_sbu_0, # of connection points: 4
#     Node 21, Type 0, BuildingBlock: UXUYUI_clean_sbu_0, # of connection points: 4
#     Node 22, Type 0, BuildingBlock: UXUYUI_clean_sbu_0, # of connection points: 4
#     Node 23, Type 0, BuildingBlock: UXUYUI_clean_sbu_0, # of connection points: 4
#     Node 24, Type 0, BuildingBlock: UXUYUI_clean_sbu_0, # of connection points: 4
#     Node 25, Type 0, BuildingBlock: UXUYUI_clean_sbu_0, # of connection points: 4
#     Node 26, Type 0, BuildingBlock: UXUYUI_clean_sbu_0, # of connection points: 4
#     Node 27, Type 0, BuildingBlock: UXUYUI_clean_sbu_0, # of connection points: 4
#     Node 28, Type 0, BuildingBlock: UXUYUI_clean_sbu_0, # of connection points: 4
#     Node 29, Type 0, BuildingBlock: UXUYUI_clean_sbu_0, # of connection points: 4
#     Node 30, Type 0, BuildingBlock: UXUYUI_clean_sbu_0, # of connection points: 4
#     Node 31, Type 0, BuildingBlock: UXUYUI_clean_sbu_0, # of connection points: 4
#     Edge 32, Type (0, 0), BuildingBlock: UVAHIK_clean_linker_0, # of connection points: 2
#     Edge 33, Type (0, 0), BuildingBlock: UVAHIK_clean_linker_0, # of connection points: 2
#     Edge 34, Type (0, 0), BuildingBlock: UVAHIK_clean_linker_0, # of connection points: 2
#     Edge 35, Type (0, 0), BuildingBlock: UVAHIK_clean_linker_0, # of connection points: 2
#     Edge 36, Type (0, 0), BuildingBlock: UVAHIK_clean_linker_0, # of connection points: 2
#     Edge 37, Type (0, 0), BuildingBlock: UVAHIK_clean_linker_0, # of connection points: 2
#     Edge 38, Type (0, 0), BuildingBlock: UVAHIK_clean_linker_0, # of connection points: 2
#     Edge 39, Type (0, 0), BuildingBlock: UVAHIK_clean_linker_0, # of connection points: 2
#     Edge 40, Type (0, 0), BuildingBlock: UVAHIK_clean_linker_0, # of connection points: 2
#     Edge 41, Type (0, 0), BuildingBlock: UVAHIK_clean_linker_0, # of connection points: 2
#     Edge 42, Type (0, 0), BuildingBlock: UVAHIK_clean_linker_0, # of connection points: 2
#     Edge 43, Type (0, 0), BuildingBlock: UVAHIK_clean_linker_0, # of connection points: 2
#     Edge 44, Type (0, 0), BuildingBlock: UVAHIK_clean_linker_0, # of connection points: 2
#     Edge 45, Type (0, 0), BuildingBlock: UVAHIK_clean_linker_0, # of connection points: 2
#     Edge 46, Type (0, 0), BuildingBlock: UVAHIK_clean_linker_0, # of connection points: 2
#     Edge 47, Type (0, 0), BuildingBlock: UVAHIK_clean_linker_0, # of connection points: 2
#     Edge 48, Type (0, 0), BuildingBlock: UVAHIK_clean_linker_0, # of connection points: 2
#     Edge 49, Type (0, 0), BuildingBlock: UVAHIK_clean_linker_0, # of connection points: 2
#     Edge 50, Type (0, 0), BuildingBlock: UVAHIK_clean_linker_0, # of connection points: 2
#     Edge 51, Type (0, 0), BuildingBlock: UVAHIK_clean_linker_0, # of connection points: 2
#     Edge 52, Type (0, 0), BuildingBlock: UVAHIK_clean_linker_0, # of connection points: 2
#     Edge 53, Type (0, 0), BuildingBlock: UVAHIK_clean_linker_0, # of connection points: 2
#     Edge 54, Type (0, 0), BuildingBlock: UVAHIK_clean_linker_0, # of connection points: 2
#     Edge 55, Type (0, 0), BuildingBlock: UVAHIK_clean_linker_0, # of connection points: 2
#     Edge 56, Type (0, 0), BuildingBlock: UVAHIK_clean_linker_0, # of connection points: 2
#     Edge 57, Type (0, 0), BuildingBlock: UVAHIK_clean_linker_0, # of connection points: 2
#     Edge 58, Type (0, 0), BuildingBlock: UVAHIK_clean_linker_0, # of connection points: 2
#     Edge 59, Type (0, 0), BuildingBlock: UVAHIK_clean_linker_0, # of connection points: 2
#     Edge 60, Type (0, 0), BuildingBlock: UVAHIK_clean_linker_0, # of connection points: 2
#     Edge 61, Type (0, 0), BuildingBlock: UVAHIK_clean_linker_0, # of connection points: 2
#     Edge 62, Type (0, 0), BuildingBlock: UVAHIK_clean_linker_0, # of connection points: 2
#     Edge 63, Type (0, 0), BuildingBlock: UVAHIK_clean_linker_0, # of connection points: 2
#     Edge 64, Type (0, 0), BuildingBlock: UVAHIK_clean_linker_0, # of connection points: 2
#     Edge 65, Type (0, 0), BuildingBlock: UVAHIK_clean_linker_0, # of connection points: 2
#     Edge 66, Type (0, 0), BuildingBlock: UVAHIK_clean_linker_0, # of connection points: 2
#     Edge 67, Type (0, 0), BuildingBlock: UVAHIK_clean_linker_0, # of connection points: 2
#     Edge 68, Type (0, 0), BuildingBlock: UVAHIK_clean_linker_0, # of connection points: 2
#     Edge 69, Type (0, 0), BuildingBlock: UVAHIK_clean_linker_0, # of connection points: 2
#     Edge 70, Type (0, 0), BuildingBlock: UVAHIK_clean_linker_0, # of connection points: 2
#     Edge 71, Type (0, 0), BuildingBlock: UVAHIK_clean_linker_0, # of connection points: 2
#     Edge 72, Type (0, 0), BuildingBlock: UVAHIK_clean_linker_0, # of connection points: 2
#     Edge 73, Type (0, 0), BuildingBlock: UVAHIK_clean_linker_0, # of connection points: 2
#     Edge 74, Type (0, 0), BuildingBlock: UVAHIK_clean_linker_0, # of connection points: 2
#     Edge 75, Type (0, 0), BuildingBlock: UVAHIK_clean_linker_0, # of connection points: 2
#     Edge 76, Type (0, 0), BuildingBlock: UVAHIK_clean_linker_0, # of connection points: 2
#     Edge 77, Type (0, 0), BuildingBlock: UVAHIK_clean_linker_0, # of connection points: 2
#     Edge 78, Type (0, 0), BuildingBlock: UVAHIK_clean_linker_0, # of connection points: 2
#     Edge 79, Type (0, 0), BuildingBlock: UVAHIK_clean_linker_0, # of connection points: 2
#     Edge 80, Type (0, 0), BuildingBlock: UVAHIK_clean_linker_0, # of connection points: 2
#     Edge 81, Type (0, 0), BuildingBlock: UVAHIK_clean_linker_0, # of connection points: 2
#     Edge 82, Type (0, 0), BuildingBlock: UVAHIK_clean_linker_0, # of connection points: 2
#     Edge 83, Type (0, 0), BuildingBlock: UVAHIK_clean_linker_0, # of connection points: 2
#     Edge 84, Type (0, 0), BuildingBlock: UVAHIK_clean_linker_0, # of connection points: 2
#     Edge 85, Type (0, 0), BuildingBlock: UVAHIK_clean_linker_0, # of connection points: 2
#     Edge 86, Type (0, 0), BuildingBlock: UVAHIK_clean_linker_0, # of connection points: 2
#     Edge 87, Type (0, 0), BuildingBlock: UVAHIK_clean_linker_0, # of connection points: 2
#     Edge 88, Type (0, 0), BuildingBlock: UVAHIK_clean_linker_0, # of connection points: 2
#     Edge 89, Type (0, 0), BuildingBlock: UVAHIK_clean_linker_0, # of connection points: 2
#     Edge 90, Type (0, 0), BuildingBlock: UVAHIK_clean_linker_0, # of connection points: 2
#     Edge 91, Type (0, 0), BuildingBlock: UVAHIK_clean_linker_0, # of connection points: 2
#     Edge 92, Type (0, 0), BuildingBlock: UVAHIK_clean_linker_0, # of connection points: 2
#     Edge 93, Type (0, 0), BuildingBlock: UVAHIK_clean_linker_0, # of connection points: 2
#     Edge 94, Type (0, 0), BuildingBlock: UVAHIK_clean_linker_0, # of connection points: 2
#     Edge 95, Type (0, 0), BuildingBlock: UVAHIK_clean_linker_0, # of connection points: 2
# Relax obj value: 0.135
# Max RMSD: 0.073
# Mean RMSD: 0.073
data_MOF--net-pem--node1-UXUYUI_clean_sbu_0--edge1-UVAHIK_clean_linker_0
_symmetry_space_group_name_H-M    P1
_symmetry_Int_Tables_number       1
_symmetry_cell_setting            triclinic
loop_
_symmetry_equiv_pos_as_xyz
'x, y, z'
_cell_length_a     74.848807
_cell_length_b     74.765465
_cell_length_c     74.759323
_cell_angle_alpha  90.003645
_cell_angle_beta   89.984013
_cell_angle_gamma 90.008285
loop_
_atom_site_label
_atom_site_type_symbol
_atom_site_fract_x
_atom_site_fract_y
_atom_site_fract_z
_atom_type_partial_charge
Li0 Li 0.07596 0.1276 0.11328 0.0
Li1 Li 0.09199 0.09982 0.12681 0.0
Li2 Li 0.10092 0.11321 0.09728 0.0
Li3 Li 0.07322 0.0981 0.10065 0.0
C4 C 0.10242 0.13492 0.13738 0.0
N5 N 0.09949 0.15321 0.1694 0.0
C6 C 0.10928 0.12754 0.1531 0.0
C7 C 0.09533 0.15215 0.13776 0.0
C8 C 0.10757 0.13694 0.16919 0.0
C9 C 0.09335 0.16093 0.15414 0.0
C10 C 0.05 0.09812 0.12707 0.0
C11 C 0.03156 0.07308 0.13563 0.0
N12 N 0.01685 0.08212 0.12996 0.0
C13 C 0.0347 0.10717 0.12135 0.0
C14 C 0.04844 0.08094 0.13428 0.0
C15 C 0.01806 0.09885 0.12292 0.0
C16 C 0.05467 0.15687 0.10192 0.0
N17 N 0.0604 0.14821 0.11684 0.0
C18 C 0.04229 0.16731 0.13516 0.0
C19 C 0.05405 0.15284 0.13326 0.0
C20 C 0.03629 0.17668 0.11994 0.0
C21 C 0.04265 0.1711 0.10314 0.0
H22 H 0.05894 0.15241 0.08891 0.0
H23 H 0.05813 0.14532 0.14492 0.0
C24 C 0.1145 0.07649 0.14657 0.0
N25 N 0.09904 0.08598 0.14757 0.0
C26 C 0.11858 0.06357 0.15948 0.0
C27 C 0.09135 0.07125 0.17498 0.0
C28 C 0.08782 0.08406 0.16176 0.0
C29 C 0.10663 0.06034 0.17365 0.0
H30 H 0.12305 0.0781 0.13506 0.0
H31 H 0.07565 0.09184 0.16235 0.0
C32 C 0.08198 0.12645 0.0713 0.0
N33 N 0.09252 0.13796 0.03774 0.0
C34 C 0.08082 0.11497 0.05657 0.0
C35 C 0.0884 0.14385 0.06888 0.0
C36 C 0.08625 0.12101 0.03975 0.0
C37 C 0.09367 0.14941 0.05183 0.0
C38 C 0.09575 0.07057 0.09716 0.0
C39 C 0.09352 0.0678 0.07878 0.0
C40 C 0.09618 0.05576 0.1086 0.0
C41 C 0.09198 0.05039 0.07217 0.0
C42 C 0.09461 0.03855 0.10149 0.0
N43 N 0.09257 0.03624 0.08357 0.0
C44 C 0.12619 0.10317 0.07077 0.0
C45 C 0.12833 0.13369 0.07867 0.0
C46 C 0.13918 0.10527 0.05754 0.0
N47 N 0.12078 0.11727 0.08088 0.0
C48 C 0.1416 0.13639 0.06567 0.0
C49 C 0.14727 0.12202 0.05484 0.0
H50 H 0.12067 0.09013 0.0731 0.0
H51 H 0.12383 0.14478 0.08678 0.0
C52 C 0.04493 0.0927 0.07729 0.0
N53 N 0.0553 0.08418 0.08951 0.0
C54 C 0.03306 0.083 0.06678 0.0
C55 C 0.04144 0.05629 0.083 0.0
C56 C 0.05296 0.06657 0.09332 0.0
C57 C 0.03193 0.0644 0.06899 0.0
H58 H 0.0464 0.10693 0.07521 0.0
H59 H 0.06056 0.06032 0.10384 0.0
O60 O 0.10233 0.12524 0.12181 0.0
O61 O 0.06645 0.10588 0.12526 0.0
O62 O 0.07712 0.12063 0.08801 0.0
O63 O 0.09753 0.08759 0.10389 0.0
H64 H 0.11588 0.11474 0.15288 0.0
H65 H 0.09118 0.15862 0.12553 0.0
H66 H 0.1125 0.13125 0.18153 0.0
H67 H 0.08712 0.17397 0.15468 0.0
H68 H 0.03018 0.05974 0.14106 0.0
H69 H 0.03567 0.12039 0.11555 0.0
H70 H 0.06016 0.07356 0.13839 0.0
H71 H 0.00612 0.10567 0.11847 0.0
H72 H 0.03799 0.17102 0.14847 0.0
H73 H 0.03805 0.17727 0.09089 0.0
H74 H 0.13075 0.05587 0.15807 0.0
H75 H 0.0817 0.0693 0.18559 0.0
H76 H 0.07577 0.10153 0.05804 0.0
H77 H 0.08968 0.15287 0.08014 0.0
H78 H 0.08547 0.11222 0.02828 0.0
H79 H 0.0988 0.16279 0.04983 0.0
H80 H 0.09275 0.07895 0.06967 0.0
H81 H 0.0973 0.05741 0.12286 0.0
H82 H 0.09022 0.04814 0.05799 0.0
H83 H 0.09489 0.02703 0.11024 0.0
H84 H 0.14341 0.09359 0.05011 0.0
H85 H 0.14724 0.14962 0.06408 0.0
H86 H 0.02553 0.08983 0.05647 0.0
H87 H 0.04094 0.04199 0.08525 0.0
Li88 Li 0.17683 0.86055 0.36639 0.0
Li89 Li 0.16016 0.87338 0.34013 0.0
Li90 Li 0.15478 0.84131 0.3516 0.0
Li91 Li 0.18266 0.85019 0.33792 0.0
C92 C 0.14964 0.87171 0.3805 0.0
N93 N 0.15519 0.88514 0.41428 0.0
C94 C 0.15113 0.89015 0.38304 0.0
C95 C 0.15025 0.86013 0.39514 0.0
C96 C 0.15389 0.8967 0.40029 0.0
C97 C 0.15325 0.86719 0.41213 0.0
C98 C 0.20192 0.87919 0.33936 0.0
C99 C 0.22001 0.8898 0.31486 0.0
N100 N 0.23498 0.88632 0.32456 0.0
C101 C 0.21748 0.87577 0.34911 0.0
C102 C 0.20317 0.88631 0.32212 0.0
C103 C 0.23407 0.87945 0.34138 0.0
C104 C 0.19463 0.85177 0.39883 0.0
N105 N 0.18968 0.86585 0.38847 0.0
C106 C 0.20598 0.88589 0.40751 0.0
C107 C 0.19516 0.88273 0.39252 0.0
C108 C 0.21178 0.87148 0.41824 0.0
C109 C 0.20571 0.85423 0.41369 0.0
H110 H 0.19031 0.83848 0.39529 0.0
H111 H 0.19137 0.89374 0.38393 0.0
C112 C 0.13447 0.89089 0.31813 0.0
N113 N 0.14977 0.89332 0.32765 0.0
C114 C 0.12923 0.90345 0.30524 0.0
C115 C 0.15492 0.92132 0.31307 0.0
C116 C 0.15965 0.90845 0.32578 0.0
C117 C 0.13978 0.91875 0.30215 0.0
H118 H 0.127 0.87859 0.31965 0.0
H119 H 0.17178 0.91006 0.33346 0.0
C120 C 0.18099 0.81717 0.35654 0.0
N121 N 0.18396 0.78079 0.35032 0.0
C122 C 0.17861 0.81028 0.33934 0.0
C123 C 0.18483 0.80545 0.37062 0.0
C124 C 0.1802 0.7919 0.33643 0.0
C125 C 0.18627 0.78713 0.36721 0.0
C126 C 0.15764 0.8479 0.30865 0.0
C127 C 0.15287 0.83122 0.30161 0.0
C128 C 0.16079 0.86218 0.29696 0.0
C129 C 0.15151 0.82909 0.2831 0.0
C130 C 0.15925 0.85952 0.27854 0.0
N131 N 0.15469 0.84316 0.27204 0.0
C132 C 0.12513 0.82061 0.34005 0.0
C133 C 0.13658 0.812 0.36828 0.0
C134 C 0.11175 0.80758 0.34113 0.0
N135 N 0.13706 0.82275 0.3536 0.0
C136 C 0.12338 0.79882 0.36995 0.0
C137 C 0.11045 0.7967 0.35643 0.0
H138 H 0.12553 0.82952 0.32868 0.0
H139 H 0.14626 0.81387 0.37884 0.0
C140 C 0.21552 0.83388 0.33421 0.0
N141 N 0.20247 0.84201 0.32452 0.0
C142 C 0.2291 0.82459 0.32558 0.0
C143 C 0.21661 0.8339 0.29723 0.0
C144 C 0.20335 0.84307 0.30643 0.0
C145 C 0.22911 0.82373 0.30685 0.0
H146 H 0.2148 0.8338 0.34865 0.0
H147 H 0.19336 0.85024 0.29904 0.0
O148 O 0.14945 0.86489 0.36363 0.0
O149 O 0.18557 0.87525 0.34654 0.0
O150 O 0.17914 0.83516 0.35978 0.0
O151 O 0.15856 0.85039 0.32682 0.0
H152 H 0.15082 0.89919 0.37174 0.0
H153 H 0.14927 0.84581 0.39326 0.0
H154 H 0.15543 0.91091 0.40251 0.0
H155 H 0.15439 0.85838 0.42354 0.0
H156 H 0.22117 0.89522 0.3015 0.0
H157 H 0.21679 0.87008 0.36239 0.0
H158 H 0.19129 0.88891 0.31432 0.0
H159 H 0.24623 0.87677 0.34872 0.0
H160 H 0.20988 0.8995 0.41047 0.0
H161 H 0.20994 0.84255 0.42109 0.0
H162 H 0.11755 0.90067 0.29719 0.0
H163 H 0.16336 0.93297 0.31159 0.0
H164 H 0.17572 0.81903 0.32829 0.0
H165 H 0.1865 0.81035 0.38411 0.0
H166 H 0.17845 0.78648 0.32313 0.0
H167 H 0.18919 0.77795 0.378 0.0
H168 H 0.1502 0.81997 0.3103 0.0
H169 H 0.16482 0.87509 0.30197 0.0
H170 H 0.14787 0.81624 0.27753 0.0
H171 H 0.16178 0.87045 0.26939 0.0
H172 H 0.10199 0.80673 0.33048 0.0
H173 H 0.12315 0.79059 0.38186 0.0
H174 H 0.23873 0.81717 0.33345 0.0
H175 H 0.2161 0.83361 0.28276 0.0
Li176 Li 0.41112 0.91109 0.61821 0.0
Li177 Li 0.42648 0.88314 0.60584 0.0
Li178 Li 0.43137 0.91131 0.59259 0.0
Li179 Li 0.40313 0.89725 0.58756 0.0
C180 C 0.4531 0.91116 0.62063 0.0
N181 N 0.48684 0.92543 0.62538 0.0
C182 C 0.46825 0.90059 0.6178 0.0
C183 C 0.45513 0.92899 0.62591 0.0
C184 C 0.48518 0.90805 0.62027 0.0
C185 C 0.47229 0.93595 0.62824 0.0
C186 C 0.4002 0.87301 0.62438 0.0
C187 C 0.40584 0.84194 0.63019 0.0
N188 N 0.40642 0.84548 0.64803 0.0
C189 C 0.40037 0.87634 0.64277 0.0
C190 C 0.40217 0.85558 0.61804 0.0
C191 C 0.40342 0.86218 0.65454 0.0
C192 C 0.38744 0.93309 0.63934 0.0
N193 N 0.40355 0.92468 0.63896 0.0
C194 C 0.41259 0.93999 0.66562 0.0
C195 C 0.41575 0.9274 0.65215 0.0
C196 C 0.39644 0.94968 0.66596 0.0
C197 C 0.38353 0.94552 0.65285 0.0
H198 H 0.37793 0.93073 0.62872 0.0
H199 H 0.42836 0.92039 0.65177 0.0
C200 C 0.44619 0.85164 0.59803 0.0
N201 N 0.44018 0.86182 0.61183 0.0
C202 C 0.45738 0.83701 0.60113 0.0
C203 C 0.45602 0.84335 0.63273 0.0
C204 C 0.44512 0.85813 0.62896 0.0
C205 C 0.46252 0.83256 0.61869 0.0
H206 H 0.44279 0.85522 0.5845 0.0
H207 H 0.44065 0.86671 0.63971 0.0
C208 C 0.40847 0.9404 0.58954 0.0
N209 N 0.40979 0.97604 0.57969 0.0
C210 C 0.40652 0.94531 0.57159 0.0
C211 C 0.4109 0.95369 0.60249 0.0
C212 C 0.4073 0.96337 0.56688 0.0
C213 C 0.41156 0.97161 0.59724 0.0
C214 C 0.42598 0.88739 0.56187 0.0
C215 C 0.42655 0.90288 0.55141 0.0
C216 C 0.42399 0.87076 0.55352 0.0
C217 C 0.42516 0.90149 0.53283 0.0
C218 C 0.42262 0.86993 0.5349 0.0
N219 N 0.42324 0.88518 0.52502 0.0
C220 C 0.46366 0.91251 0.57534 0.0
C221 C 0.45403 0.94127 0.58465 0.0
C222 C 0.47981 0.91946 0.56933 0.0
N223 N 0.45113 0.92345 0.58268 0.0
C224 C 0.47001 0.94878 0.57891 0.0
C225 C 0.48309 0.9378 0.57114 0.0
H226 H 0.46126 0.89828 0.57456 0.0
H227 H 0.4443 0.94958 0.5912 0.0
C228 C 0.3744 0.90858 0.56528 0.0
N229 N 0.38423 0.89403 0.57005 0.0
C230 C 0.36047 0.90703 0.55289 0.0
C231 C 0.36736 0.87564 0.54985 0.0
C232 C 0.38109 0.87777 0.56246 0.0
C233 C 0.35654 0.89032 0.54522 0.0
H234 H 0.37689 0.92131 0.57163 0.0
H235 H 0.38893 0.86633 0.56651 0.0
O236 O 0.43641 0.90421 0.61784 0.0
O237 O 0.39973 0.88689 0.61258 0.0
O238 O 0.40741 0.92279 0.5945 0.0
O239 O 0.42686 0.88848 0.58017 0.0
H240 H 0.46699 0.88685 0.61348 0.0
H241 H 0.4436 0.9375 0.62777 0.0
H242 H 0.49701 0.90005 0.61802 0.0
H243 H 0.47405 0.94976 0.63219 0.0
H244 H 0.40888 0.82869 0.62536 0.0
H245 H 0.39865 0.88976 0.64788 0.0
H246 H 0.40217 0.85287 0.60381 0.0
H247 H 0.40394 0.86455 0.6688 0.0
H248 H 0.42314 0.94257 0.67516 0.0
H249 H 0.37063 0.95205 0.65271 0.0
H250 H 0.46238 0.82966 0.58971 0.0
H251 H 0.45934 0.84053 0.64653 0.0
H252 H 0.40429 0.93534 0.56137 0.0
H253 H 0.41259 0.95026 0.6164 0.0
H254 H 0.40586 0.96733 0.55304 0.0
H255 H 0.41357 0.98199 0.60712 0.0
H256 H 0.42804 0.91584 0.55753 0.0
H257 H 0.42307 0.85862 0.56131 0.0
H258 H 0.42559 0.9134 0.52462 0.0
H259 H 0.42096 0.85715 0.52831 0.0
H260 H 0.48965 0.91061 0.56345 0.0
H261 H 0.47201 0.96306 0.5803 0.0
H262 H 0.3524 0.91867 0.5499 0.0
H263 H 0.36491 0.86254 0.54418 0.0
Li264 Li 0.34289 0.12644 0.84503 0.0
Li265 Li 0.32698 0.13823 0.87349 0.0
Li266 Li 0.32109 0.15059 0.84507 0.0
Li267 Li 0.3496 0.15668 0.85868 0.0
C268 C 0.30156 0.12152 0.8444 0.0
N269 N 0.2692 0.11513 0.82781 0.0
C270 C 0.28556 0.12471 0.85351 0.0
C271 C 0.30109 0.11503 0.82687 0.0
C272 C 0.26934 0.12141 0.84488 0.0
C273 C 0.2846 0.11188 0.81871 0.0
C274 C 0.35393 0.11793 0.88142 0.0
C275 C 0.34483 0.10588 0.90986 0.0
N276 N 0.34703 0.08903 0.90343 0.0
C277 C 0.35676 0.1005 0.87527 0.0
C278 C 0.34901 0.12064 0.89919 0.0
C279 C 0.35317 0.08607 0.88659 0.0
C280 C 0.36699 0.1106 0.82021 0.0
N281 N 0.35238 0.10718 0.83049 0.0
C282 C 0.34827 0.07899 0.81588 0.0
C283 C 0.34336 0.09148 0.82893 0.0
C284 C 0.36247 0.08272 0.80403 0.0
C285 C 0.37219 0.09862 0.80678 0.0
H286 H 0.37388 0.12324 0.82161 0.0
H287 H 0.3319 0.08895 0.83738 0.0
C288 C 0.31185 0.14715 0.90706 0.0
N289 N 0.31332 0.13337 0.89528 0.0
C290 C 0.30081 0.14579 0.92205 0.0
C291 C 0.29329 0.11571 0.91311 0.0
C292 C 0.30442 0.11772 0.89811 0.0
C293 C 0.29107 0.13005 0.9251 0.0
H294 H 0.31901 0.15936 0.90464 0.0
H295 H 0.30565 0.10696 0.88852 0.0
C296 C 0.34295 0.15499 0.81552 0.0
N297 N 0.34013 0.16459 0.77983 0.0
C298 C 0.34399 0.17298 0.81041 0.0
C299 C 0.34042 0.14193 0.80233 0.0
C300 C 0.34251 0.17755 0.79235 0.0
C301 C 0.33907 0.14703 0.78441 0.0
C302 C 0.32688 0.1822 0.86774 0.0
C303 C 0.32486 0.19208 0.85198 0.0
C304 C 0.33066 0.19124 0.8837 0.0
C305 C 0.32644 0.21068 0.85244 0.0
C306 C 0.33216 0.20987 0.88362 0.0
N307 N 0.33002 0.21913 0.86813 0.0
C308 C 0.28872 0.1682 0.84398 0.0
C309 C 0.29796 0.15856 0.81524 0.0
C310 C 0.27417 0.17717 0.83669 0.0
N311 N 0.30071 0.15988 0.83314 0.0
C312 C 0.28368 0.16743 0.80735 0.0
C313 C 0.27199 0.17747 0.81807 0.0
H314 H 0.29085 0.16841 0.85828 0.0
H315 H 0.307 0.15105 0.80699 0.0
C316 C 0.3757 0.18105 0.84645 0.0
N317 N 0.36803 0.17451 0.86158 0.0
C318 C 0.38854 0.19455 0.84736 0.0
C319 C 0.38573 0.19431 0.87954 0.0
C320 C 0.37272 0.1809 0.87797 0.0
C321 C 0.39407 0.2011 0.86408 0.0
H322 H 0.37231 0.1754 0.83366 0.0
H323 H 0.36653 0.17542 0.88984 0.0
O324 O 0.31757 0.12513 0.85244 0.0
O325 O 0.35394 0.13199 0.86968 0.0
O326 O 0.34487 0.15016 0.83315 0.0
O327 O 0.32586 0.16384 0.86746 0.0
H328 H 0.28565 0.12998 0.86698 0.0
H329 H 0.31331 0.11271 0.81952 0.0
H330 H 0.25686 0.12394 0.85173 0.0
H331 H 0.28405 0.10696 0.80512 0.0
H332 H 0.33936 0.10782 0.92307 0.0
H333 H 0.36129 0.09808 0.86182 0.0
H334 H 0.34735 0.13406 0.90435 0.0
H335 H 0.35474 0.0725 0.88185 0.0
H336 H 0.34069 0.06671 0.8149 0.0
H337 H 0.38315 0.10233 0.79811 0.0
H338 H 0.29971 0.15709 0.93106 0.0
H339 H 0.28593 0.10337 0.91489 0.0
H340 H 0.346 0.18341 0.82019 0.0
H341 H 0.33899 0.12803 0.80583 0.0
H342 H 0.34331 0.19142 0.7883 0.0
H343 H 0.33702 0.13703 0.77416 0.0
H344 H 0.32218 0.18552 0.83945 0.0
H345 H 0.33289 0.18403 0.896 0.0
H346 H 0.32487 0.2184 0.8403 0.0
H347 H 0.33516 0.21696 0.89588 0.0
H348 H 0.26523 0.18447 0.84544 0.0
H349 H 0.28251 0.16729 0.79291 0.0
H350 H 0.39458 0.19932 0.8351 0.0
H351 H 0.38976 0.19872 0.89273 0.0
Li352 Li 0.07453 0.91147 0.40499 0.0
Li353 Li 0.10153 0.89654 0.41434 0.0
Li354 Li 0.09718 0.90753 0.38203 0.0
Li355 Li 0.07919 0.88204 0.39541 0.0
C356 C 0.0993 0.93924 0.40873 0.0
N357 N 0.10051 0.97536 0.41677 0.0
C358 C 0.10053 0.94494 0.42652 0.0
C359 C 0.09878 0.952 0.39505 0.0
C360 C 0.10108 0.96323 0.4303 0.0
C361 C 0.09939 0.97017 0.39938 0.0
C362 C 0.07622 0.89079 0.43867 0.0
C363 C 0.07726 0.87624 0.4675 0.0
N364 N 0.07635 0.89247 0.47566 0.0
C365 C 0.07535 0.9073 0.4474 0.0
C366 C 0.07721 0.87512 0.44885 0.0
C367 C 0.0754 0.90788 0.46607 0.0
C368 C 0.04161 0.91753 0.42055 0.0
N369 N 0.05513 0.92613 0.412 0.0
C370 C 0.04108 0.95432 0.41656 0.0
C371 C 0.05454 0.94402 0.40896 0.0
C372 C 0.02793 0.94599 0.42706 0.0
C373 C 0.02773 0.92725 0.42819 0.0
H374 H 0.04204 0.90316 0.42209 0.0
H375 H 0.06471 0.95043 0.40112 0.0
C376 C 0.13004 0.90832 0.43654 0.0
N377 N 0.11935 0.89406 0.43288 0.0
C378 C 0.14403 0.90682 0.44883 0.0
C379 C 0.13569 0.87602 0.45372 0.0
C380 C 0.12174 0.87816 0.44141 0.0
C381 C 0.14729 0.89038 0.45729 0.0
H382 H 0.12837 0.92063 0.4292 0.0
H383 H 0.11323 0.86693 0.4382 0.0
C384 C 0.05638 0.91082 0.37507 0.0
N385 N 0.02554 0.92876 0.36556 0.0
C386 C 0.03968 0.90298 0.37803 0.0
C387 C 0.05739 0.92778 0.36727 0.0
C388 C 0.02425 0.91226 0.37313 0.0
C389 C 0.04165 0.93663 0.36255 0.0
C390 C 0.10536 0.86714 0.38348 0.0
C391 C 0.10177 0.86565 0.36522 0.0
C392 C 0.10563 0.85189 0.39426 0.0
C393 C 0.09765 0.84889 0.35816 0.0
C394 C 0.10149 0.83537 0.38667 0.0
N395 N 0.09736 0.83429 0.369 0.0
C396 C 0.1231 0.92917 0.36471 0.0
C397 C 0.09937 0.91973 0.34605 0.0
C398 C 0.12861 0.94171 0.35193 0.0
N399 N 0.10824 0.91908 0.36188 0.0
C400 C 0.1045 0.93196 0.33285 0.0
C401 C 0.11887 0.94375 0.33594 0.0
H402 H 0.12982 0.92854 0.37751 0.0
H403 H 0.08763 0.91153 0.34408 0.0
C404 C 0.06176 0.84876 0.4036 0.0
N405 N 0.06536 0.86051 0.3902 0.0
C406 C 0.05006 0.8344 0.40086 0.0
C407 C 0.04623 0.84412 0.37034 0.0
C408 C 0.05792 0.85837 0.37373 0.0
C409 C 0.04181 0.83203 0.38411 0.0
H410 H 0.06764 0.85075 0.4166 0.0
H411 H 0.06076 0.86797 0.36329 0.0
O412 O 0.09918 0.92134 0.4047 0.0
O413 O 0.07666 0.88993 0.42034 0.0
O414 O 0.07162 0.90211 0.38015 0.0
O415 O 0.1066 0.88363 0.39109 0.0
H416 H 0.10122 0.9354 0.43734 0.0
H417 H 0.09733 0.94802 0.38125 0.0
H418 H 0.10202 0.96778 0.44401 0.0
H419 H 0.09884 0.98014 0.38891 0.0
H420 H 0.07811 0.86421 0.47549 0.0
H421 H 0.07469 0.91959 0.4399 0.0
H422 H 0.07829 0.8622 0.44248 0.0
H423 H 0.07472 0.92061 0.47293 0.0
H424 H 0.04177 0.96872 0.41523 0.0
H425 H 0.01755 0.92027 0.43576 0.0
H426 H 0.15279 0.91816 0.45094 0.0
H427 H 0.13762 0.86314 0.46005 0.0
H428 H 0.03863 0.88998 0.38429 0.0
H429 H 0.07016 0.9342 0.36518 0.0
H430 H 0.01124 0.9064 0.37543 0.0
H431 H 0.04223 0.9498 0.3566 0.0
H432 H 0.10138 0.87742 0.35679 0.0
H433 H 0.10826 0.85293 0.40845 0.0
H434 H 0.09433 0.84754 0.34414 0.0
H435 H 0.10117 0.82347 0.39489 0.0
H436 H 0.13972 0.9504 0.35511 0.0
H437 H 0.09688 0.93248 0.32057 0.0
H438 H 0.04699 0.82571 0.41202 0.0
H439 H 0.04051 0.84279 0.35711 0.0
Li440 Li 0.3244 0.84459 0.65971 0.0
Li441 Li 0.35268 0.83768 0.64604 0.0
Li442 Li 0.3461 0.86874 0.6591 0.0
Li443 Li 0.33009 0.85654 0.63165 0.0
C444 C 0.34736 0.84053 0.68913 0.0
N445 N 0.34649 0.8314 0.72501 0.0
C446 C 0.3502 0.82282 0.69446 0.0
C447 C 0.34424 0.85361 0.70216 0.0
C448 C 0.34963 0.81846 0.71262 0.0
C449 C 0.34382 0.84873 0.72019 0.0
C450 C 0.32838 0.81262 0.6382 0.0
C451 C 0.32931 0.78382 0.62358 0.0
N452 N 0.32872 0.77563 0.63981 0.0
C453 C 0.32786 0.80386 0.65471 0.0
C454 C 0.32917 0.80247 0.62249 0.0
C455 C 0.32799 0.78519 0.65526 0.0
C456 C 0.29146 0.82849 0.66096 0.0
N457 N 0.30397 0.83604 0.67177 0.0
C458 C 0.28608 0.83066 0.69749 0.0
C459 C 0.30126 0.83789 0.68961 0.0
C460 C 0.27353 0.82166 0.6868 0.0
C461 C 0.27603 0.82114 0.66824 0.0
H462 H 0.29365 0.82791 0.64668 0.0
H463 H 0.31086 0.84474 0.6978 0.0
C464 C 0.38137 0.8154 0.65755 0.0
N465 N 0.37107 0.81968 0.64318 0.0
C466 C 0.39523 0.80294 0.65596 0.0
C467 C 0.38737 0.79895 0.62491 0.0
C468 C 0.37367 0.81156 0.62709 0.0
C469 C 0.39863 0.79474 0.63939 0.0
H470 H 0.37939 0.82228 0.67009 0.0
H471 H 0.36538 0.8152 0.61581 0.0
C472 C 0.30501 0.8742 0.66005 0.0
N473 N 0.2728 0.88229 0.6762 0.0
C474 C 0.28896 0.87134 0.65092 0.0
C475 C 0.30467 0.88126 0.67736 0.0
C476 C 0.27282 0.87549 0.65933 0.0
C477 C 0.28825 0.88525 0.6853 0.0
C478 C 0.35645 0.87369 0.62086 0.0
C479 C 0.35618 0.89216 0.62376 0.0
C480 C 0.35369 0.86694 0.60372 0.0
C481 C 0.35193 0.90353 0.60959 0.0
C482 C 0.34862 0.87866 0.59014 0.0
N483 N 0.34781 0.89655 0.59332 0.0
C484 C 0.36878 0.88655 0.68391 0.0
C485 C 0.34587 0.90464 0.67172 0.0
C486 C 0.37295 0.89975 0.69649 0.0
N487 N 0.355 0.88894 0.67231 0.0
C488 C 0.34977 0.91832 0.68387 0.0
C489 C 0.36302 0.91574 0.69699 0.0
H490 H 0.37569 0.87385 0.68425 0.0
H491 H 0.335 0.90625 0.66233 0.0
C492 C 0.31292 0.84865 0.59878 0.0
N493 N 0.31642 0.86228 0.61029 0.0
C494 C 0.30175 0.85128 0.58406 0.0
C495 C 0.29829 0.88216 0.59284 0.0
C496 C 0.30939 0.87887 0.60759 0.0
C497 C 0.29407 0.86813 0.58106 0.0
H498 H 0.31854 0.83563 0.60121 0.0
H499 H 0.31217 0.88945 0.61706 0.0
O500 O 0.34833 0.84517 0.6714 0.0
O501 O 0.32878 0.83096 0.63736 0.0
O502 O 0.32093 0.86985 0.65219 0.0
O503 O 0.35722 0.86224 0.63503 0.0
H504 H 0.3529 0.81247 0.68473 0.0
H505 H 0.34168 0.8673 0.69842 0.0
H506 H 0.35176 0.8048 0.71687 0.0
H507 H 0.34126 0.85871 0.73035 0.0
H508 H 0.33 0.77585 0.61152 0.0
H509 H 0.32737 0.81135 0.667 0.0
H510 H 0.33002 0.80885 0.60956 0.0
H511 H 0.32757 0.77831 0.66798 0.0
H512 H 0.28474 0.83127 0.7119 0.0
H513 H 0.26653 0.81452 0.65955 0.0
H514 H 0.40368 0.80036 0.66743 0.0
H515 H 0.38936 0.79285 0.61192 0.0
H516 H 0.28895 0.8657 0.6376 0.0
H517 H 0.31692 0.88342 0.68469 0.0
H518 H 0.2603 0.87322 0.65247 0.0
H519 H 0.2878 0.89062 0.69873 0.0
H520 H 0.3587 0.89761 0.63689 0.0
H521 H 0.35379 0.85265 0.60134 0.0
H522 H 0.35131 0.91783 0.61165 0.0
H523 H 0.34455 0.87341 0.57734 0.0
H524 H 0.38319 0.89697 0.70632 0.0
H525 H 0.34209 0.93058 0.68329 0.0
H526 H 0.29891 0.84014 0.57524 0.0
H527 H 0.2925 0.89532 0.59108 0.0
Li528 Li 0.40875 0.10661 0.90467 0.0
Li529 Li 0.4359 0.0913 0.89768 0.0
Li530 Li 0.43164 0.12062 0.88651 0.0
Li531 Li 0.41447 0.0936 0.87355 0.0
C532 C 0.43086 0.11738 0.92941 0.0
N533 N 0.42508 0.12525 0.96515 0.0
C534 C 0.43461 0.10468 0.94263 0.0
C535 C 0.42431 0.13416 0.93448 0.0
C536 C 0.43156 0.10889 0.96058 0.0
C537 C 0.42144 0.13786 0.95257 0.0
C538 C 0.41295 0.06415 0.90378 0.0
C539 C 0.41312 0.03205 0.89992 0.0
N540 N 0.41615 0.02998 0.91772 0.0
C541 C 0.41607 0.06162 0.92205 0.0
C542 C 0.41149 0.04918 0.89262 0.0
C543 C 0.41765 0.04429 0.92884 0.0
C544 C 0.38365 0.09633 0.93133 0.0
N545 N 0.39016 0.11068 0.92228 0.0
C546 C 0.37079 0.13023 0.93874 0.0
C547 C 0.38387 0.12744 0.92561 0.0
C548 C 0.36387 0.11559 0.94835 0.0
C549 C 0.37064 0.09848 0.94453 0.0
H550 H 0.38812 0.08308 0.928 0.0
H551 H 0.38893 0.13865 0.91801 0.0
C552 C 0.46723 0.0847 0.9165 0.0
N553 N 0.45478 0.07677 0.90595 0.0
C554 C 0.47993 0.07433 0.92526 0.0
C555 C 0.46808 0.04822 0.91027 0.0
C556 C 0.45583 0.05917 0.90164 0.0
C557 C 0.47965 0.05568 0.92303 0.0
H558 H 0.4667 0.09896 0.91886 0.0
H559 H 0.44669 0.05345 0.8921 0.0
C560 C 0.405 0.13216 0.86902 0.0
N561 N 0.41253 0.15945 0.84545 0.0
C562 C 0.4036 0.12926 0.85062 0.0
C563 C 0.409 0.14916 0.87548 0.0
C564 C 0.40726 0.14333 0.83889 0.0
C565 C 0.41353 0.16255 0.86336 0.0
C566 C 0.45593 0.09181 0.86865 0.0
C567 C 0.47194 0.1004 0.87298 0.0
C568 C 0.45631 0.07498 0.86052 0.0
C569 C 0.48813 0.09193 0.86915 0.0
C570 C 0.47278 0.06697 0.85691 0.0
N571 N 0.48821 0.07553 0.86127 0.0
C572 C 0.45101 0.152 0.89577 0.0
C573 C 0.45222 0.14573 0.8648 0.0
C574 C 0.4619 0.167 0.89356 0.0
N575 N 0.44614 0.14181 0.88152 0.0
C576 C 0.46319 0.16071 0.86194 0.0
C577 C 0.46821 0.17161 0.87647 0.0
H578 H 0.44683 0.14829 0.90902 0.0
H579 H 0.44851 0.13726 0.85367 0.0
C580 C 0.39025 0.07028 0.85644 0.0
N581 N 0.40483 0.08068 0.85345 0.0
C582 C 0.38492 0.0575 0.84386 0.0
C583 C 0.4089 0.06733 0.82464 0.0
C584 C 0.4138 0.07987 0.83767 0.0
C585 C 0.39466 0.05542 0.8279 0.0
H586 H 0.38366 0.07089 0.86926 0.0
H587 H 0.42534 0.08832 0.83555 0.0
O588 O 0.43351 0.11343 0.91166 0.0
O589 O 0.41126 0.08109 0.89688 0.0
O590 O 0.40452 0.11808 0.88057 0.0
O591 O 0.43995 0.09971 0.87266 0.0
H592 H 0.43983 0.09169 0.93918 0.0
H593 H 0.42101 0.14412 0.92452 0.0
H594 H 0.43436 0.09913 0.97089 0.0
H595 H 0.4162 0.15073 0.9566 0.0
H596 H 0.41212 0.02041 0.89138 0.0
H597 H 0.41723 0.0729 0.93095 0.0
H598 H 0.40962 0.05067 0.87841 0.0
H599 H 0.42008 0.04222 0.94295 0.0
H600 H 0.36599 0.14368 0.94115 0.0
H601 H 0.36534 0.08667 0.95102 0.0
H602 H 0.48906 0.08067 0.93453 0.0
H603 H 0.46746 0.03394 0.90795 0.0
H604 H 0.40027 0.11619 0.84543 0.0
H605 H 0.41017 0.15154 0.88972 0.0
H606 H 0.40648 0.14127 0.82459 0.0
H607 H 0.4185 0.17515 0.86828 0.0
H608 H 0.47187 0.11335 0.87943 0.0
H609 H 0.44405 0.06802 0.85738 0.0
H610 H 0.50063 0.09836 0.8725 0.0
H611 H 0.47328 0.05389 0.85074 0.0
H612 H 0.4658 0.17456 0.90528 0.0
H613 H 0.46768 0.16369 0.8485 0.0
H614 H 0.37397 0.04866 0.8472 0.0
H615 H 0.41656 0.06666 0.81238 0.0
Li616 Li 0.16062 0.15033 0.14363 0.0
Li617 Li 0.18782 0.14628 0.15958 0.0
Li618 Li 0.18531 0.1339 0.13013 0.0
Li619 Li 0.16884 0.12026 0.1572 0.0
C620 C 0.18041 0.17603 0.13131 0.0
N621 N 0.17092 0.20995 0.11998 0.0
C622 C 0.18144 0.19054 0.14307 0.0
C623 C 0.17468 0.17884 0.11372 0.0
C624 C 0.17654 0.20756 0.13711 0.0
C625 C 0.16993 0.19607 0.10827 0.0
C626 C 0.16428 0.14967 0.18652 0.0
C627 C 0.16381 0.1447 0.21846 0.0
N628 N 0.16607 0.16253 0.22123 0.0
C629 C 0.16669 0.16795 0.18976 0.0
C630 C 0.16293 0.13795 0.20106 0.0
C631 C 0.16754 0.17418 0.20735 0.0
C632 C 0.1356 0.17715 0.15308 0.0
N633 N 0.14123 0.16704 0.13907 0.0
C634 C 0.12137 0.18281 0.11941 0.0
C635 C 0.1343 0.16954 0.12242 0.0
C636 C 0.11539 0.19352 0.13373 0.0
C637 C 0.12291 0.1906 0.15069 0.0
H638 H 0.14071 0.17465 0.16626 0.0
H639 H 0.139 0.16141 0.11143 0.0
C640 C 0.2165 0.16884 0.16556 0.0
N641 N 0.20548 0.15716 0.17404 0.0
C642 C 0.22822 0.17938 0.17538 0.0
C643 C 0.21836 0.16429 0.20225 0.0
C644 C 0.20705 0.15386 0.19183 0.0
C645 C 0.22847 0.17785 0.19409 0.0
H646 H 0.21562 0.17051 0.15122 0.0
H647 H 0.19895 0.14372 0.19811 0.0
C648 C 0.15932 0.11221 0.11976 0.0
N649 N 0.1632 0.08436 0.09576 0.0
C650 C 0.15597 0.09462 0.1251 0.0
C651 C 0.16386 0.11571 0.102 0.0
C652 C 0.15781 0.08075 0.11274 0.0
C653 C 0.16639 0.10139 0.09025 0.0
C654 C 0.21086 0.11984 0.1597 0.0
C655 C 0.22631 0.12506 0.15058 0.0
C656 C 0.21217 0.11317 0.17711 0.0
C657 C 0.24286 0.12354 0.15909 0.0
C658 C 0.22896 0.11185 0.18515 0.0
N659 N 0.24383 0.11702 0.17605 0.0
C660 C 0.20735 0.14481 0.1016 0.0
C661 C 0.20549 0.11333 0.10396 0.0
C662 C 0.21905 0.14341 0.08715 0.0
N663 N 0.2005 0.12994 0.1095 0.0
C664 C 0.21693 0.11129 0.08926 0.0
C665 C 0.22392 0.12649 0.08056 0.0
H666 H 0.20418 0.15785 0.10682 0.0
H667 H 0.20045 0.10166 0.11087 0.0
C668 C 0.14532 0.09972 0.17892 0.0
N669 N 0.16136 0.09938 0.1704 0.0
C670 C 0.14102 0.08663 0.19157 0.0
C671 C 0.16926 0.07228 0.1855 0.0
C672 C 0.173 0.08566 0.17294 0.0
C673 C 0.15332 0.07296 0.19548 0.0
H674 H 0.13643 0.11084 0.17682 0.0
H675 H 0.18561 0.08558 0.1659 0.0
O676 O 0.18473 0.15915 0.13702 0.0
O677 O 0.16317 0.14329 0.16933 0.0
O678 O 0.15891 0.12579 0.13203 0.0
O679 O 0.19451 0.12163 0.15174 0.0
H680 H 0.18598 0.18876 0.15665 0.0
H681 H 0.17354 0.16776 0.10447 0.0
H682 H 0.17722 0.21887 0.14611 0.0
H683 H 0.16532 0.19838 0.09475 0.0
H684 H 0.16281 0.13574 0.22978 0.0
H685 H 0.16816 0.17725 0.17883 0.0
H686 H 0.16151 0.12376 0.19904 0.0
H687 H 0.16945 0.18829 0.20997 0.0
H688 H 0.11611 0.18459 0.10605 0.0
H689 H 0.11843 0.19802 0.16229 0.0
H690 H 0.23625 0.1893 0.16853 0.0
H691 H 0.2182 0.16254 0.21663 0.0
H692 H 0.15204 0.09166 0.13864 0.0
H693 H 0.1663 0.12928 0.09758 0.0
H694 H 0.15526 0.06708 0.11673 0.0
H695 H 0.1712 0.10379 0.07684 0.0
H696 H 0.22553 0.13041 0.13717 0.0
H697 H 0.20032 0.10944 0.18451 0.0
H698 H 0.25492 0.12759 0.15223 0.0
H699 H 0.23016 0.10683 0.19866 0.0
H700 H 0.22453 0.15557 0.08155 0.0
H701 H 0.22016 0.09792 0.08476 0.0
H702 H 0.12838 0.08753 0.19856 0.0
H703 H 0.17923 0.0621 0.18802 0.0
Li704 Li 0.59765 0.39418 0.90001 0.0
Li705 Li 0.56968 0.40879 0.89569 0.0
Li706 Li 0.57408 0.37995 0.88262 0.0
Li707 Li 0.58948 0.40826 0.87019 0.0
C708 C 0.5772 0.38176 0.92557 0.0
N709 N 0.58491 0.37318 0.96074 0.0
C710 C 0.57447 0.3943 0.93918 0.0
C711 C 0.58372 0.36478 0.92994 0.0
C712 C 0.57848 0.38973 0.95685 0.0
C713 C 0.58756 0.36071 0.94777 0.0
C714 C 0.59196 0.437 0.90013 0.0
C715 C 0.59076 0.46892 0.89523 0.0
N716 N 0.58859 0.47154 0.91309 0.0
C717 C 0.58969 0.44007 0.91846 0.0
C718 C 0.59245 0.4516 0.88843 0.0
C719 C 0.58801 0.45759 0.92474 0.0
C720 C 0.62216 0.40416 0.92722 0.0
N721 N 0.61673 0.39004 0.91715 0.0
C722 C 0.63628 0.37055 0.9335 0.0
C723 C 0.6236 0.37341 0.91998 0.0
C724 C 0.64213 0.38498 0.94412 0.0
C725 C 0.63465 0.40192 0.9409 0.0
H726 H 0.61705 0.41731 0.92448 0.0
H727 H 0.61908 0.36233 0.91186 0.0
C728 C 0.53883 0.41206 0.91582 0.0
N729 N 0.55066 0.42175 0.90602 0.0
C730 C 0.52515 0.42062 0.92505 0.0
C731 C 0.5351 0.44872 0.91247 0.0
C732 C 0.54842 0.43957 0.90336 0.0
C733 C 0.52372 0.4393 0.92407 0.0
H734 H 0.5404 0.39773 0.91694 0.0
H735 H 0.55718 0.4468 0.8945 0.0
C736 C 0.60067 0.37227 0.86055 0.0
N737 N 0.59689 0.35077 0.83069 0.0
C738 C 0.60424 0.37903 0.84352 0.0
C739 C 0.59611 0.35431 0.86246 0.0
C740 C 0.60231 0.36797 0.82859 0.0
C741 C 0.5937 0.34383 0.84717 0.0
C742 C 0.54753 0.40857 0.86831 0.0
C743 C 0.53231 0.39849 0.87225 0.0
C744 C 0.54568 0.4262 0.86236 0.0
C745 C 0.51545 0.40624 0.8702 0.0
C746 C 0.5286 0.43346 0.86047 0.0
N747 N 0.51396 0.42342 0.86441 0.0
C748 C 0.55472 0.34917 0.89235 0.0
C749 C 0.55443 0.35422 0.86113 0.0
C750 C 0.54373 0.33425 0.89043 0.0
N751 N 0.56006 0.35872 0.87784 0.0
C752 C 0.54367 0.33911 0.85852 0.0
C753 C 0.53802 0.32891 0.87333 0.0
H754 H 0.55846 0.35346 0.90557 0.0
H755 H 0.55836 0.36234 0.84981 0.0
C756 C 0.61272 0.43116 0.85049 0.0
N757 N 0.59681 0.42243 0.84986 0.0
C758 C 0.61715 0.44381 0.83745 0.0
C759 C 0.58919 0.43748 0.82265 0.0
C760 C 0.58539 0.42484 0.83592 0.0
C761 C 0.60502 0.4476 0.82358 0.0
H762 H 0.6215 0.42904 0.86171 0.0
H763 H 0.57295 0.41751 0.83551 0.0
O764 O 0.57372 0.38612 0.90808 0.0
O765 O 0.59388 0.41991 0.8937 0.0
O766 O 0.60051 0.3834 0.87509 0.0
O767 O 0.56416 0.40134 0.87065 0.0
H768 H 0.56929 0.40743 0.93622 0.0
H769 H 0.58621 0.35494 0.91962 0.0
H770 H 0.57648 0.39936 0.96747 0.0
H771 H 0.59278 0.34768 0.95127 0.0
H772 H 0.59106 0.48029 0.88628 0.0
H773 H 0.58911 0.42909 0.92778 0.0
H774 H 0.59377 0.44967 0.87421 0.0
H775 H 0.58622 0.46009 0.93888 0.0
H776 H 0.6415 0.3572 0.93552 0.0
H777 H 0.63902 0.41358 0.94828 0.0
H778 H 0.51636 0.41283 0.93351 0.0
H779 H 0.53451 0.46314 0.91125 0.0
H780 H 0.60849 0.39265 0.84176 0.0
H781 H 0.59353 0.34877 0.87557 0.0
H782 H 0.60489 0.37314 0.81532 0.0
H783 H 0.58884 0.33035 0.84839 0.0
H784 H 0.53348 0.3849 0.87707 0.0
H785 H 0.55732 0.43435 0.85966 0.0
H786 H 0.50356 0.39862 0.87328 0.0
H787 H 0.52698 0.44713 0.85602 0.0
H788 H 0.53929 0.32739 0.90237 0.0
H789 H 0.53976 0.33559 0.84504 0.0
H790 H 0.62973 0.45087 0.83852 0.0
H791 H 0.57937 0.43987 0.81229 0.0
Li792 Li 0.81996 0.35169 0.15205 0.0
Li793 Li 0.84905 0.35102 0.13933 0.0
Li794 Li 0.83778 0.37857 0.15437 0.0
Li795 Li 0.82409 0.36742 0.12431 0.0
C796 C 0.84041 0.34672 0.18111 0.0
N797 N 0.83576 0.33031 0.21398 0.0
C798 C 0.8413 0.32809 0.1826 0.0
C799 C 0.83707 0.35696 0.19642 0.0
C800 C 0.83891 0.32005 0.1993 0.0
C801 C 0.83481 0.34843 0.21289 0.0
C802 C 0.83162 0.32515 0.12267 0.0
C803 C 0.84293 0.30625 0.09904 0.0
N804 N 0.84241 0.29198 0.1103 0.0
C805 C 0.8311 0.31025 0.13394 0.0
C806 C 0.83752 0.32311 0.10502 0.0
C807 C 0.83665 0.29362 0.12747 0.0
C808 C 0.79228 0.32716 0.15145 0.0
N809 N 0.80139 0.33819 0.16266 0.0
C810 C 0.78409 0.32837 0.18751 0.0
C811 C 0.79695 0.33962 0.18021 0.0
C812 C 0.77549 0.31583 0.1765 0.0
C813 C 0.77926 0.3157 0.15814 0.0
H814 H 0.79541 0.32697 0.13734 0.0
H815 H 0.80351 0.34926 0.18864 0.0
C816 C 0.87705 0.32811 0.15096 0.0
N817 N 0.86989 0.33588 0.13618 0.0
C818 C 0.89081 0.31559 0.14943 0.0
C819 C 0.89051 0.31995 0.11747 0.0
C820 C 0.87643 0.3321 0.11964 0.0
C821 C 0.89788 0.3114 0.13252 0.0
H822 H 0.87225 0.33174 0.16405 0.0
H823 H 0.87032 0.33812 0.1081 0.0
C824 C 0.79637 0.37771 0.15434 0.0
N825 N 0.76325 0.3786 0.1706 0.0
C826 C 0.78116 0.37244 0.14487 0.0
C827 C 0.79475 0.38352 0.17203 0.0
C828 C 0.76453 0.37295 0.15335 0.0
C829 C 0.77788 0.38386 0.18002 0.0
C830 C 0.85027 0.39343 0.12208 0.0
C831 C 0.85708 0.40785 0.13182 0.0
C832 C 0.84329 0.39645 0.10507 0.0
C833 C 0.85523 0.42518 0.12508 0.0
C834 C 0.84164 0.41396 0.09874 0.0
N835 N 0.84753 0.42787 0.10884 0.0
C836 C 0.85811 0.39488 0.18141 0.0
C837 C 0.8343 0.41327 0.17172 0.0
C838 C 0.86258 0.40707 0.19487 0.0
N839 N 0.84396 0.39792 0.17045 0.0
C840 C 0.83841 0.42596 0.18491 0.0
C841 C 0.85249 0.42279 0.19705 0.0
H842 H 0.86535 0.38245 0.18025 0.0
H843 H 0.82318 0.41548 0.16276 0.0
C844 C 0.80397 0.35702 0.09415 0.0
N845 N 0.80902 0.37185 0.10339 0.0
C846 C 0.79183 0.35816 0.08005 0.0
C847 C 0.78969 0.38992 0.08517 0.0
C848 C 0.80184 0.38812 0.09938 0.0
C849 C 0.7844 0.37474 0.07536 0.0
H850 H 0.80884 0.34408 0.09807 0.0
H851 H 0.8052 0.39964 0.10745 0.0
O852 O 0.84303 0.35487 0.16486 0.0
O853 O 0.82655 0.34166 0.12889 0.0
O854 O 0.81281 0.37686 0.14644 0.0
O855 O 0.84993 0.37656 0.12929 0.0
H856 H 0.8439 0.31986 0.17103 0.0
H857 H 0.83571 0.3713 0.19562 0.0
H858 H 0.83958 0.30566 0.20058 0.0
H859 H 0.83213 0.35622 0.22479 0.0
H860 H 0.84769 0.30455 0.08548 0.0
H861 H 0.82638 0.31144 0.14753 0.0
H862 H 0.83837 0.3345 0.09613 0.0
H863 H 0.83634 0.28201 0.1361 0.0
H864 H 0.78156 0.32895 0.20176 0.0
H865 H 0.7726 0.3065 0.14915 0.0
H866 H 0.89628 0.30977 0.1615 0.0
H867 H 0.89525 0.31699 0.10411 0.0
H868 H 0.78222 0.3678 0.13119 0.0
H869 H 0.80643 0.38742 0.17961 0.0
H870 H 0.75265 0.36881 0.14623 0.0
H871 H 0.77644 0.38821 0.19375 0.0
H872 H 0.86371 0.40575 0.14445 0.0
H873 H 0.83916 0.38536 0.09681 0.0
H874 H 0.85988 0.43652 0.13276 0.0
H875 H 0.83574 0.41647 0.08578 0.0
H876 H 0.87338 0.40377 0.20389 0.0
H877 H 0.83049 0.43805 0.18567 0.0
H878 H 0.78827 0.34606 0.07293 0.0
H879 H 0.784 0.40293 0.08237 0.0
Li880 Li 0.90351 0.60863 0.41035 0.0
Li881 Li 0.93123 0.59338 0.40513 0.0
Li882 Li 0.92688 0.62149 0.39164 0.0
Li883 Li 0.91015 0.59359 0.38024 0.0
C884 C 0.92621 0.61847 0.43554 0.0
N885 N 0.92222 0.62239 0.47215 0.0
C886 C 0.92754 0.60364 0.44685 0.0
C887 C 0.92284 0.63532 0.44295 0.0
C888 C 0.9255 0.60587 0.46529 0.0
C889 C 0.92087 0.63702 0.46145 0.0
C890 C 0.90822 0.56523 0.41007 0.0
C891 C 0.91067 0.53364 0.40364 0.0
N892 N 0.91014 0.53002 0.42145 0.0
C893 C 0.90768 0.56112 0.42833 0.0
C894 C 0.90974 0.5513 0.39764 0.0
C895 C 0.9087 0.54329 0.4338 0.0
C896 C 0.87675 0.59842 0.43536 0.0
N897 N 0.88492 0.61296 0.42808 0.0
C898 C 0.86708 0.63242 0.44637 0.0
C899 C 0.88043 0.62979 0.43343 0.0
C900 C 0.85824 0.61758 0.4539 0.0
C901 C 0.86353 0.6004 0.44842 0.0
H902 H 0.87995 0.58524 0.43053 0.0
H903 H 0.88701 0.6412 0.42744 0.0
C904 C 0.96315 0.59036 0.4237 0.0
N905 N 0.95071 0.58052 0.41482 0.0
C906 C 0.97789 0.58205 0.43138 0.0
C907 C 0.96745 0.55387 0.4194 0.0
C908 C 0.95299 0.56275 0.41193 0.0
C909 C 0.97984 0.56348 0.42971 0.0
H910 H 0.96148 0.60466 0.42501 0.0
H911 H 0.94369 0.55541 0.40382 0.0
C912 C 0.90158 0.63125 0.37188 0.0
N913 N 0.91222 0.65518 0.34581 0.0
C914 C 0.90219 0.626 0.35395 0.0
C915 C 0.90512 0.64899 0.37636 0.0
C916 C 0.90753 0.63832 0.34095 0.0
C917 C 0.91125 0.66065 0.36311 0.0
C918 C 0.95145 0.59097 0.37631 0.0
C919 C 0.96774 0.59921 0.38031 0.0
C920 C 0.95135 0.5736 0.36938 0.0
C921 C 0.98366 0.58995 0.37725 0.0
C922 C 0.96756 0.5648 0.36647 0.0
N923 N 0.98324 0.57309 0.37044 0.0
C924 C 0.94227 0.65616 0.3971 0.0
C925 C 0.95149 0.64214 0.37029 0.0
C926 C 0.9538 0.67053 0.39397 0.0
N927 N 0.94141 0.64223 0.38544 0.0
C928 C 0.96351 0.65608 0.3668 0.0
C929 C 0.96504 0.67047 0.37889 0.0
H930 H 0.93401 0.65612 0.40889 0.0
H931 H 0.95061 0.63094 0.36117 0.0
C932 C 0.8859 0.56947 0.36326 0.0
N933 N 0.90096 0.5793 0.3606 0.0
C934 C 0.88057 0.55662 0.35072 0.0
C935 C 0.90584 0.56482 0.33244 0.0
C936 C 0.91064 0.57754 0.3453 0.0
C937 C 0.89085 0.55377 0.33522 0.0
H938 H 0.8787 0.57076 0.3757 0.0
H939 H 0.92251 0.58557 0.34339 0.0
O940 O 0.92771 0.61647 0.41734 0.0
O941 O 0.90685 0.58264 0.40437 0.0
O942 O 0.89992 0.61868 0.38506 0.0
O943 O 0.9357 0.59968 0.37959 0.0
H944 H 0.93011 0.5905 0.44152 0.0
H945 H 0.92136 0.64695 0.43453 0.0
H946 H 0.9265 0.59447 0.47413 0.0
H947 H 0.91814 0.64998 0.4673 0.0
H948 H 0.91199 0.52281 0.39414 0.0
H949 H 0.9064 0.57152 0.43826 0.0
H950 H 0.91082 0.55403 0.38353 0.0
H951 H 0.90829 0.54 0.44789 0.0
H952 H 0.86345 0.64591 0.45017 0.0
H953 H 0.85682 0.58859 0.45343 0.0
H954 H 0.98733 0.58994 0.43901 0.0
H955 H 0.96838 0.53951 0.41781 0.0
H956 H 0.89909 0.61246 0.35014 0.0
H957 H 0.90462 0.65328 0.39018 0.0
H958 H 0.90851 0.63431 0.32709 0.0
H959 H 0.91587 0.67383 0.36669 0.0
H960 H 0.9681 0.61246 0.38609 0.0
H961 H 0.93891 0.56679 0.36666 0.0
H962 H 0.99634 0.59614 0.38038 0.0
H963 H 0.96766 0.55133 0.3612 0.0
H964 H 0.95399 0.68147 0.40345 0.0
H965 H 0.97194 0.6552 0.35508 0.0
H966 H 0.86903 0.5484 0.35366 0.0
H967 H 0.91405 0.56346 0.32061 0.0
Li968 Li 0.82916 0.64088 0.37024 0.0
Li969 Li 0.84675 0.62872 0.34317 0.0
Li970 Li 0.85264 0.65944 0.35729 0.0
Li971 Li 0.82543 0.65318 0.3415 0.0
C972 C 0.85472 0.62236 0.3816 0.0
N973 N 0.84455 0.5976 0.40699 0.0
C974 C 0.85499 0.60411 0.37756 0.0
C975 C 0.85042 0.62794 0.39885 0.0
C976 C 0.84993 0.59178 0.39065 0.0
C977 C 0.8446 0.61527 0.41126 0.0
C978 C 0.80567 0.62394 0.33992 0.0
C979 C 0.79026 0.61415 0.31334 0.0
N980 N 0.77435 0.61673 0.32176 0.0
C981 C 0.78918 0.62648 0.34832 0.0
C982 C 0.80624 0.61772 0.32229 0.0
C983 C 0.7735 0.62277 0.3389 0.0
C984 C 0.80945 0.64951 0.4015 0.0
N985 N 0.81396 0.63551 0.3908 0.0
C986 C 0.79565 0.61585 0.40836 0.0
C987 C 0.8071 0.61889 0.3938 0.0
C988 C 0.79075 0.63017 0.41951 0.0
C989 C 0.79787 0.64715 0.41595 0.0
H990 H 0.81456 0.66265 0.39864 0.0
H991 H 0.81054 0.60801 0.38491 0.0
C992 C 0.87147 0.61105 0.32005 0.0
N993 N 0.85627 0.60868 0.32974 0.0
C994 C 0.87688 0.59825 0.3075 0.0
C995 C 0.85137 0.58031 0.31569 0.0
C996 C 0.84652 0.59342 0.32815 0.0
C997 C 0.86651 0.58279 0.30476 0.0
H998 H 0.87867 0.62351 0.32114 0.0
H999 H 0.83448 0.59177 0.33599 0.0
C1000 C 0.82978 0.68444 0.36647 0.0
N1001 N 0.83396 0.72094 0.37112 0.0
C1002 C 0.82722 0.69616 0.35212 0.0
C1003 C 0.83443 0.69137 0.38322 0.0
C1004 C 0.82939 0.71453 0.35473 0.0
C1005 C 0.8365 0.70983 0.38529 0.0
C1006 C 0.8487 0.65826 0.31406 0.0
C1007 C 0.84779 0.67655 0.31019 0.0
C1008 C 0.84846 0.64592 0.29998 0.0
C1009 C 0.84669 0.68216 0.2924 0.0
C1010 C 0.84741 0.65206 0.28236 0.0
N1011 N 0.84655 0.6699 0.27897 0.0
C1012 C 0.87856 0.68569 0.34756 0.0
C1013 C 0.87571 0.68201 0.37886 0.0
C1014 C 0.89128 0.69919 0.34995 0.0
N1015 N 0.87095 0.67743 0.36188 0.0
C1016 C 0.88855 0.69537 0.38188 0.0
C1017 C 0.8966 0.70412 0.36728 0.0
H1018 H 0.87518 0.68149 0.33422 0.0
H1019 H 0.86969 0.67516 0.39009 0.0
C1020 C 0.79312 0.67021 0.33804 0.0
N1021 N 0.80602 0.66213 0.32811 0.0
C1022 C 0.77857 0.67819 0.32972 0.0
C1023 C 0.79002 0.66793 0.30125 0.0
C1024 C 0.80427 0.66006 0.31016 0.0
C1025 C 0.77732 0.67771 0.31102 0.0
H1026 H 0.79442 0.67086 0.35242 0.0
H1027 H 0.81396 0.65254 0.30267 0.0
O1028 O 0.85631 0.6347 0.36824 0.0
O1029 O 0.82117 0.62788 0.34878 0.0
O1030 O 0.82807 0.6663 0.36412 0.0
O1031 O 0.85013 0.65248 0.33143 0.0
H1032 H 0.85848 0.59955 0.36431 0.0
H1033 H 0.84999 0.64204 0.40212 0.0
H1034 H 0.84964 0.57764 0.38762 0.0
H1035 H 0.8393 0.61959 0.42394 0.0
H1036 H 0.79049 0.60943 0.29967 0.0
H1037 H 0.78849 0.6315 0.36187 0.0
H1038 H 0.81886 0.61602 0.31546 0.0
H1039 H 0.76064 0.62476 0.3452 0.0
H1040 H 0.79022 0.6026 0.41054 0.0
H1041 H 0.79437 0.65855 0.42418 0.0
H1042 H 0.88852 0.60098 0.29935 0.0
H1043 H 0.84307 0.56853 0.31438 0.0
H1044 H 0.82363 0.69121 0.33907 0.0
H1045 H 0.83691 0.68261 0.39445 0.0
H1046 H 0.82747 0.7237 0.3437 0.0
H1047 H 0.84024 0.71531 0.39815 0.0
H1048 H 0.84797 0.68638 0.32075 0.0
H1049 H 0.84856 0.63174 0.30254 0.0
H1050 H 0.84597 0.69627 0.28928 0.0
H1051 H 0.84712 0.64263 0.27139 0.0
H1052 H 0.89742 0.70518 0.33828 0.0
H1053 H 0.89227 0.69868 0.39548 0.0
H1054 H 0.76884 0.68533 0.33773 0.0
H1055 H 0.78957 0.66721 0.28679 0.0
Li1056 Li 0.6649 0.3771 0.8485 0.0
Li1057 Li 0.68043 0.36322 0.87642 0.0
Li1058 Li 0.68341 0.35082 0.84693 0.0
Li1059 Li 0.65549 0.34729 0.8618 0.0
C1060 C 0.70669 0.37736 0.84728 0.0
N1061 N 0.73988 0.38079 0.83147 0.0
C1062 C 0.72201 0.37173 0.85636 0.0
C1063 C 0.70824 0.38476 0.83018 0.0
C1064 C 0.73867 0.37357 0.84813 0.0
C1065 C 0.72514 0.38638 0.82242 0.0
C1066 C 0.65431 0.38732 0.88378 0.0
C1067 C 0.66371 0.40323 0.91019 0.0
N1068 N 0.65839 0.41888 0.90264 0.0
C1069 C 0.64829 0.40346 0.87655 0.0
C1070 C 0.66116 0.3871 0.90111 0.0
C1071 C 0.65058 0.41929 0.88624 0.0
C1072 C 0.64356 0.39705 0.82444 0.0
N1073 N 0.6585 0.39816 0.83468 0.0
C1074 C 0.66608 0.4262 0.82104 0.0
C1075 C 0.66942 0.41268 0.83363 0.0
C1076 C 0.65125 0.42485 0.8095 0.0
C1077 C 0.63958 0.41029 0.81186 0.0
H1078 H 0.6354 0.38522 0.82522 0.0
H1079 H 0.68123 0.41335 0.84193 0.0
C1080 C 0.70142 0.35165 0.90584 0.0
N1081 N 0.69589 0.36662 0.89713 0.0
C1082 C 0.71338 0.35277 0.92012 0.0
C1083 C 0.71405 0.38478 0.91632 0.0
C1084 C 0.70239 0.38298 0.90177 0.0
C1085 C 0.71985 0.36951 0.92575 0.0
H1086 H 0.69703 0.33868 0.90139 0.0
H1087 H 0.69848 0.39466 0.89419 0.0
C1088 C 0.66114 0.34676 0.81946 0.0
N1089 N 0.66477 0.33177 0.78576 0.0
C1090 C 0.66421 0.3284 0.81751 0.0
C1091 C 0.66009 0.35748 0.80414 0.0
C1092 C 0.66597 0.32108 0.80041 0.0
C1093 C 0.6619 0.34966 0.78726 0.0
C1094 C 0.67436 0.32148 0.87557 0.0
C1095 C 0.67635 0.30631 0.86482 0.0
C1096 C 0.66713 0.31971 0.89274 0.0
C1097 C 0.67089 0.28967 0.87132 0.0
C1098 C 0.66185 0.30283 0.89877 0.0
N1099 N 0.66379 0.28829 0.88801 0.0
C1100 C 0.71226 0.3282 0.84192 0.0
C1101 C 0.70409 0.34386 0.81561 0.0
C1102 C 0.72481 0.31826 0.83249 0.0
N1103 N 0.70159 0.33999 0.83318 0.0
C1104 C 0.71624 0.33403 0.80557 0.0
C1105 C 0.72623 0.3205 0.81391 0.0
H1106 H 0.71061 0.3261 0.85613 0.0
H1107 H 0.69618 0.35408 0.80921 0.0
C1108 C 0.63057 0.32024 0.85166 0.0
N1109 N 0.63543 0.33075 0.86569 0.0
C1110 C 0.61706 0.30747 0.85343 0.0
C1111 C 0.6133 0.31646 0.88416 0.0
C1112 C 0.62711 0.32902 0.88183 0.0
C1113 C 0.6079 0.30565 0.86971 0.0
H1114 H 0.63689 0.32191 0.83889 0.0
H1115 H 0.63115 0.33741 0.89289 0.0
O1116 O 0.69023 0.37529 0.85496 0.0
O1117 O 0.65415 0.37199 0.87374 0.0
O1118 O 0.65919 0.35417 0.83617 0.0
O1119 O 0.67925 0.33801 0.8693 0.0
H1120 H 0.72105 0.3658 0.86952 0.0
H1121 H 0.6965 0.38882 0.8228 0.0
H1122 H 0.75064 0.36919 0.85496 0.0
H1123 H 0.72652 0.39195 0.80914 0.0
H1124 H 0.66985 0.4033 0.92329 0.0
H1125 H 0.64195 0.40377 0.86361 0.0
H1126 H 0.6648 0.3746 0.90738 0.0
H1127 H 0.64638 0.43195 0.88067 0.0
H1128 H 0.67553 0.43707 0.81978 0.0
H1129 H 0.62774 0.40879 0.80368 0.0
H1130 H 0.71783 0.34047 0.92631 0.0
H1131 H 0.71843 0.39806 0.92005 0.0
H1132 H 0.66551 0.31989 0.82908 0.0
H1133 H 0.65823 0.37172 0.80515 0.0
H1134 H 0.66839 0.3069 0.7988 0.0
H1135 H 0.66114 0.35785 0.77536 0.0
H1136 H 0.6821 0.30729 0.85161 0.0
H1137 H 0.6653 0.33132 0.9012 0.0
H1138 H 0.67231 0.27785 0.8631 0.0
H1139 H 0.6561 0.30131 0.91195 0.0
H1140 H 0.73269 0.30835 0.83952 0.0
H1141 H 0.71689 0.33629 0.79128 0.0
H1142 H 0.61351 0.29938 0.84195 0.0
H1143 H 0.60658 0.3156 0.89696 0.0
Li1144 Li 0.90214 0.89681 0.91443 0.0
Li1145 Li 0.92601 0.88245 0.89677 0.0
Li1146 Li 0.93054 0.91076 0.90918 0.0
Li1147 Li 0.91064 0.90984 0.8834 0.0
C1148 C 0.92607 0.88889 0.94055 0.0
N1149 N 0.92601 0.89015 0.97751 0.0
C1150 C 0.92927 0.87338 0.9505 0.0
C1151 C 0.92293 0.90502 0.94942 0.0
C1152 C 0.92916 0.87429 0.96917 0.0
C1153 C 0.92295 0.9054 0.9681 0.0
C1154 C 0.9008 0.87101 0.87911 0.0
C1155 C 0.91002 0.8576 0.8513 0.0
N1156 N 0.91089 0.84144 0.85958 0.0
C1157 C 0.90069 0.85415 0.88705 0.0
C1158 C 0.90507 0.87277 0.86099 0.0
C1159 C 0.90634 0.83945 0.87708 0.0
C1160 C 0.87151 0.90836 0.93394 0.0
N1161 N 0.88298 0.8944 0.93182 0.0
C1162 C 0.86701 0.87758 0.95402 0.0
C1163 C 0.88121 0.87932 0.94187 0.0
C1164 C 0.85438 0.89145 0.95583 0.0
C1165 C 0.85708 0.90715 0.9458 0.0
H1166 H 0.873 0.92015 0.92572 0.0
H1167 H 0.89059 0.86845 0.94018 0.0
C1168 C 0.95018 0.85983 0.87708 0.0
N1169 N 0.93946 0.8605 0.89176 0.0
C1170 C 0.96137 0.8451 0.8741 0.0
C1171 C 0.94957 0.83137 0.90077 0.0
C1172 C 0.93906 0.84664 0.90356 0.0
C1173 C 0.96137 0.83049 0.88607 0.0
H1174 H 0.95044 0.87102 0.86792 0.0
H1175 H 0.93036 0.84733 0.91507 0.0
C1176 C 0.90614 0.94001 0.91037 0.0
N1177 N 0.90415 0.97635 0.91723 0.0
C1178 C 0.90997 0.95242 0.89689 0.0
C1179 C 0.90111 0.94619 0.92732 0.0
C1180 C 0.90894 0.97069 0.90062 0.0
C1181 C 0.90025 0.96458 0.93053 0.0
C1182 C 0.95245 0.91132 0.88203 0.0
C1183 C 0.95358 0.92854 0.87485 0.0
C1184 C 0.96802 0.90254 0.88746 0.0
C1185 C 0.97029 0.9367 0.8732 0.0
C1186 C 0.98448 0.91115 0.8856 0.0
N1187 N 0.98527 0.92791 0.87857 0.0
C1188 C 0.96129 0.91407 0.92957 0.0
C1189 C 0.95124 0.94173 0.9178 0.0
C1190 C 0.97499 0.92257 0.9388 0.0
N1191 N 0.94935 0.9238 0.91993 0.0
C1192 C 0.96474 0.95079 0.92675 0.0
C1193 C 0.97646 0.94123 0.93783 0.0
H1194 H 0.96001 0.8997 0.93032 0.0
H1195 H 0.94226 0.94907 0.90934 0.0
C1196 C 0.88714 0.93246 0.86311 0.0
N1197 N 0.90259 0.92288 0.86244 0.0
C1198 C 0.88292 0.94465 0.8495 0.0
C1199 C 0.91002 0.93616 0.83421 0.0
C1200 C 0.91371 0.92414 0.84809 0.0
C1201 C 0.89467 0.94702 0.83496 0.0
H1202 H 0.87856 0.93133 0.87471 0.0
H1203 H 0.92584 0.91629 0.84775 0.0
O1204 O 0.92578 0.88813 0.92224 0.0
O1205 O 0.89919 0.88585 0.88955 0.0
O1206 O 0.90659 0.92201 0.90679 0.0
O1207 O 0.93616 0.90326 0.88415 0.0
H1208 H 0.93172 0.86075 0.94391 0.0
H1209 H 0.92069 0.91713 0.94195 0.0
H1210 H 0.93155 0.86238 0.97703 0.0
H1211 H 0.92054 0.91783 0.9751 0.0
H1212 H 0.91374 0.85875 0.83738 0.0
H1213 H 0.89769 0.85268 0.90114 0.0
H1214 H 0.90524 0.88577 0.85467 0.0
H1215 H 0.90791 0.82667 0.88356 0.0
H1216 H 0.86582 0.86537 0.96171 0.0
H1217 H 0.84771 0.91815 0.94648 0.0
H1218 H 0.97032 0.8456 0.86276 0.0
H1219 H 0.94841 0.82047 0.91019 0.0
H1220 H 0.91416 0.94806 0.8838 0.0
H1221 H 0.89775 0.93696 0.93792 0.0
H1222 H 0.91203 0.98038 0.89033 0.0
H1223 H 0.89641 0.96949 0.94358 0.0
H1224 H 0.94169 0.93568 0.87084 0.0
H1225 H 0.96739 0.88936 0.89338 0.0
H1226 H 0.97134 0.95005 0.86774 0.0
H1227 H 0.99662 0.90456 0.88986 0.0
H1228 H 0.98399 0.91474 0.94701 0.0
H1229 H 0.9654 0.96523 0.9257 0.0
H1230 H 0.87094 0.95267 0.85077 0.0
H1231 H 0.91923 0.93705 0.82309 0.0
Li1232 Li 0.82046 0.15557 0.6628 0.0
Li1233 Li 0.84111 0.13092 0.66224 0.0
Li1234 Li 0.85072 0.16048 0.6498 0.0
Li1235 Li 0.82857 0.14167 0.63472 0.0
C1236 C 0.85591 0.1518 0.68827 0.0
N1237 N 0.8804 0.14574 0.71526 0.0
C1238 C 0.8721 0.14326 0.68452 0.0
C1239 C 0.85226 0.15742 0.70572 0.0
C1240 C 0.88426 0.14023 0.69836 0.0
C1241 C 0.86482 0.15424 0.71918 0.0
C1242 C 0.80833 0.11624 0.66245 0.0
C1243 C 0.80608 0.08411 0.66454 0.0
N1244 N 0.79422 0.08591 0.6782 0.0
C1245 C 0.79595 0.11777 0.67637 0.0
C1246 C 0.81328 0.09927 0.65635 0.0
C1247 C 0.78903 0.10228 0.68421 0.0
C1248 C 0.78916 0.17527 0.66516 0.0
N1249 N 0.80166 0.16627 0.67476 0.0
C1250 C 0.78828 0.17497 0.7022 0.0
C1251 C 0.80115 0.16539 0.69285 0.0
C1252 C 0.77596 0.18548 0.6927 0.0
C1253 C 0.7761 0.18516 0.67395 0.0
H1254 H 0.78978 0.17531 0.65071 0.0
H1255 H 0.81102 0.15762 0.69996 0.0
C1256 C 0.86209 0.10027 0.67428 0.0
N1257 N 0.84798 0.1112 0.67779 0.0
C1258 C 0.86708 0.08706 0.68663 0.0
C1259 C 0.84287 0.09628 0.70574 0.0
C1260 C 0.83866 0.10964 0.69336 0.0
C1261 C 0.85724 0.08465 0.70247 0.0
H1262 H 0.86971 0.10206 0.66211 0.0
H1263 H 0.82803 0.11897 0.69628 0.0
C1264 C 0.82557 0.18577 0.64124 0.0
N1265 N 0.82231 0.2225 0.6439 0.0
C1266 C 0.81899 0.19569 0.62684 0.0
C1267 C 0.83046 0.19454 0.65703 0.0
C1268 C 0.81745 0.21424 0.62844 0.0
C1269 C 0.82872 0.21311 0.6581 0.0
C1270 C 0.85565 0.12836 0.62327 0.0
C1271 C 0.8578 0.13934 0.60834 0.0
C1272 C 0.85187 0.11021 0.62108 0.0
C1273 C 0.85485 0.13221 0.59138 0.0
C1274 C 0.84898 0.10359 0.6039 0.0
N1275 N 0.85017 0.11474 0.58959 0.0
C1276 C 0.87976 0.18329 0.66112 0.0
C1277 C 0.87069 0.18744 0.63112 0.0
C1278 C 0.89348 0.19582 0.65906 0.0
N1279 N 0.86911 0.17877 0.64707 0.0
C1280 C 0.8841 0.20031 0.62853 0.0
C1281 C 0.89618 0.20417 0.64244 0.0
H1282 H 0.87795 0.17698 0.67393 0.0
H1283 H 0.8617 0.18419 0.62028 0.0
C1284 C 0.80599 0.12199 0.61051 0.0
N1285 N 0.81662 0.13667 0.61203 0.0
C1286 C 0.79508 0.11964 0.59547 0.0
C1287 C 0.80671 0.14716 0.58336 0.0
C1288 C 0.81705 0.1492 0.59884 0.0
C1289 C 0.79507 0.13244 0.58162 0.0
H1290 H 0.8054 0.11243 0.62131 0.0
H1291 H 0.82536 0.16093 0.6004 0.0
O1292 O 0.84364 0.15444 0.67494 0.0
O1293 O 0.81548 0.13128 0.65481 0.0
O1294 O 0.82724 0.16758 0.63977 0.0
O1295 O 0.85519 0.13577 0.63988 0.0
H1296 H 0.87516 0.13891 0.67107 0.0
H1297 H 0.83997 0.16431 0.70886 0.0
H1298 H 0.89675 0.13346 0.69568 0.0
H1299 H 0.86217 0.15852 0.73274 0.0
H1300 H 0.80994 0.07091 0.66005 0.0
H1301 H 0.79177 0.13074 0.68114 0.0
H1302 H 0.82271 0.0978 0.64552 0.0
H1303 H 0.77953 0.10328 0.69507 0.0
H1304 H 0.78871 0.17502 0.71668 0.0
H1305 H 0.76671 0.19304 0.66624 0.0
H1306 H 0.87848 0.0788 0.68384 0.0
H1307 H 0.83518 0.09536 0.71798 0.0
H1308 H 0.8151 0.18913 0.61454 0.0
H1309 H 0.83556 0.18716 0.66835 0.0
H1310 H 0.81239 0.22208 0.61738 0.0
H1311 H 0.83247 0.22006 0.67022 0.0
H1312 H 0.86068 0.15342 0.60989 0.0
H1313 H 0.85058 0.10151 0.63256 0.0
H1314 H 0.85563 0.14073 0.57972 0.0
H1315 H 0.8455 0.08969 0.60194 0.0
H1316 H 0.90233 0.19836 0.67023 0.0
H1317 H 0.88535 0.20672 0.61561 0.0
H1318 H 0.78618 0.10824 0.59519 0.0
H1319 H 0.80767 0.15726 0.57305 0.0
Li1320 Li 0.57793 0.12052 0.3948 0.0
Li1321 Li 0.60256 0.10831 0.4124 0.0
Li1322 Li 0.59169 0.09293 0.38456 0.0
Li1323 Li 0.57279 0.09304 0.41127 0.0
C1324 C 0.60261 0.13091 0.37531 0.0
N1325 N 0.59214 0.15902 0.35385 0.0
C1326 C 0.60178 0.14815 0.38231 0.0
C1327 C 0.59936 0.12813 0.35711 0.0
C1328 C 0.59578 0.16204 0.37141 0.0
C1329 C 0.59413 0.14254 0.34646 0.0
C1330 C 0.5794 0.11683 0.43952 0.0
C1331 C 0.58582 0.1016 0.46726 0.0
N1332 N 0.57991 0.11611 0.4765 0.0
C1333 C 0.57338 0.13157 0.44931 0.0
C1334 C 0.58567 0.1017 0.44859 0.0
C1335 C 0.57375 0.13096 0.46799 0.0
C1336 C 0.5536 0.14258 0.3743 0.0
N1337 N 0.56412 0.14197 0.38913 0.0
C1338 C 0.55351 0.17086 0.39824 0.0
C1339 C 0.5642 0.15575 0.40103 0.0
C1340 C 0.54219 0.17175 0.38322 0.0
C1341 C 0.54255 0.15735 0.37107 0.0
H1342 H 0.5535 0.13144 0.36512 0.0
H1343 H 0.57267 0.15504 0.41271 0.0
C1344 C 0.62967 0.09808 0.43738 0.0
N1345 N 0.62231 0.11245 0.42898 0.0
C1346 C 0.64367 0.1002 0.44955 0.0
C1347 C 0.64183 0.13211 0.44528 0.0
C1348 C 0.62788 0.12932 0.43299 0.0
C1349 C 0.65022 0.11738 0.45359 0.0
H1350 H 0.62477 0.08482 0.43468 0.0
H1351 H 0.62155 0.14064 0.42658 0.0
C1352 C 0.55713 0.09031 0.37299 0.0
N1353 N 0.54045 0.07281 0.34501 0.0
C1354 C 0.54488 0.07661 0.37642 0.0
C1355 C 0.56064 0.09529 0.35532 0.0
C1356 C 0.53665 0.06788 0.3621 0.0
C1357 C 0.55216 0.08624 0.34136 0.0
C1358 C 0.60851 0.06881 0.40795 0.0
C1359 C 0.62421 0.07046 0.39798 0.0
C1360 C 0.6053 0.0531 0.41758 0.0
C1361 C 0.6361 0.05606 0.39723 0.0
C1362 C 0.61759 0.03909 0.41663 0.0
N1363 N 0.63257 0.04081 0.40649 0.0
C1364 C 0.61232 0.07877 0.35465 0.0
C1365 C 0.58867 0.06066 0.36511 0.0
C1366 C 0.61667 0.06598 0.34164 0.0
N1367 N 0.59818 0.07614 0.36577 0.0
C1368 C 0.59237 0.04769 0.35215 0.0
C1369 C 0.60629 0.05037 0.33974 0.0
H1370 H 0.62042 0.09066 0.35607 0.0
H1371 H 0.57821 0.05828 0.37479 0.0
C1372 C 0.54657 0.08638 0.43754 0.0
N1373 N 0.55681 0.07924 0.42437 0.0
C1374 C 0.53886 0.07521 0.45029 0.0
C1375 C 0.55064 0.04968 0.43418 0.0
C1376 C 0.55809 0.06134 0.42181 0.0
C1377 C 0.54175 0.05668 0.44917 0.0
H1378 H 0.5455 0.10073 0.43894 0.0
H1379 H 0.566 0.0562 0.41085 0.0
O1380 O 0.6043 0.11667 0.38659 0.0
O1381 O 0.57915 0.11732 0.4212 0.0
O1382 O 0.56557 0.09877 0.38687 0.0
O1383 O 0.59649 0.08261 0.40853 0.0
H1384 H 0.60414 0.15048 0.39641 0.0
H1385 H 0.60014 0.11489 0.3514 0.0
H1386 H 0.59318 0.17499 0.37717 0.0
H1387 H 0.59116 0.14051 0.33246 0.0
H1388 H 0.5906 0.08998 0.47442 0.0
H1389 H 0.56843 0.14337 0.44258 0.0
H1390 H 0.59027 0.09009 0.44134 0.0
H1391 H 0.56913 0.14228 0.47572 0.0
H1392 H 0.55406 0.18169 0.40783 0.0
H1393 H 0.53392 0.15716 0.35945 0.0
H1394 H 0.64962 0.0883 0.45522 0.0
H1395 H 0.64597 0.14567 0.44814 0.0
H1396 H 0.54174 0.07274 0.38998 0.0
H1397 H 0.5699 0.10593 0.35237 0.0
H1398 H 0.52722 0.0572 0.36458 0.0
H1399 H 0.55489 0.08988 0.32762 0.0
H1400 H 0.62707 0.08268 0.39079 0.0
H1401 H 0.59361 0.05179 0.42594 0.0
H1402 H 0.64812 0.05696 0.3893 0.0
H1403 H 0.61524 0.02685 0.42398 0.0
H1404 H 0.62804 0.06843 0.33317 0.0
H1405 H 0.5845 0.03556 0.35218 0.0
H1406 H 0.53174 0.08104 0.46147 0.0
H1407 H 0.55319 0.03549 0.43281 0.0
Li1408 Li 0.6608 0.86958 0.16401 0.0
Li1409 Li 0.68247 0.84393 0.16288 0.0
Li1410 Li 0.67552 0.85853 0.13598 0.0
Li1411 Li 0.65303 0.83912 0.14932 0.0
C1412 C 0.70201 0.87794 0.15445 0.0
N1413 N 0.73362 0.89566 0.14725 0.0
C1414 C 0.71687 0.86848 0.14825 0.0
C1415 C 0.70318 0.89647 0.15683 0.0
C1416 C 0.73274 0.87767 0.14472 0.0
C1417 C 0.71929 0.90516 0.15316 0.0
C1418 C 0.65656 0.83913 0.19193 0.0
C1419 C 0.64881 0.81594 0.21309 0.0
N1420 N 0.65198 0.82746 0.2268 0.0
C1421 C 0.65953 0.85075 0.20628 0.0
C1422 C 0.65096 0.8216 0.19541 0.0
C1423 C 0.65724 0.8446 0.22378 0.0
C1424 C 0.63517 0.89315 0.18113 0.0
N1425 N 0.65275 0.88887 0.1793 0.0
C1426 C 0.66068 0.90994 0.20209 0.0
C1427 C 0.66543 0.89712 0.18937 0.0
C1428 C 0.6426 0.91434 0.20476 0.0
C1429 C 0.62978 0.90594 0.19379 0.0
H1430 H 0.62528 0.8863 0.1731 0.0
H1431 H 0.67926 0.89319 0.18805 0.0
C1432 C 0.71342 0.82346 0.16606 0.0
N1433 N 0.70164 0.83372 0.17534 0.0
C1434 C 0.72623 0.81353 0.17511 0.0
C1435 C 0.71551 0.8262 0.20291 0.0
C1436 C 0.70309 0.83606 0.19326 0.0
C1437 C 0.7267 0.81412 0.19386 0.0
H1438 H 0.71235 0.82234 0.15169 0.0
H1439 H 0.6941 0.84496 0.20015 0.0
C1440 C 0.64982 0.87659 0.12664 0.0
N1441 N 0.65791 0.8998 0.09926 0.0
C1442 C 0.64992 0.87049 0.10903 0.0
C1443 C 0.65294 0.89465 0.13032 0.0
C1444 C 0.65448 0.88234 0.09542 0.0
C1445 C 0.65689 0.90622 0.11623 0.0
C1446 C 0.67788 0.81401 0.14004 0.0
C1447 C 0.68082 0.80424 0.12434 0.0
C1448 C 0.67584 0.80489 0.15621 0.0
C1449 C 0.6815 0.78558 0.12512 0.0
C1450 C 0.67665 0.78624 0.15647 0.0
N1451 N 0.67942 0.77703 0.14104 0.0
C1452 C 0.69637 0.88119 0.11128 0.0
C1453 C 0.68892 0.85237 0.10074 0.0
C1454 C 0.70716 0.88423 0.09624 0.0
N1455 N 0.68799 0.86519 0.11363 0.0
C1456 C 0.6992 0.85499 0.0853 0.0
C1457 C 0.70909 0.87087 0.08308 0.0
H1458 H 0.69504 0.89156 0.12121 0.0
H1459 H 0.6817 0.84002 0.10249 0.0
C1460 C 0.62147 0.82048 0.15974 0.0
N1461 N 0.63391 0.82179 0.14653 0.0
C1462 C 0.60705 0.80865 0.15813 0.0
C1463 C 0.61891 0.79891 0.12976 0.0
C1464 C 0.63301 0.8111 0.13183 0.0
C1465 C 0.60531 0.79786 0.14278 0.0
H1466 H 0.62226 0.82925 0.17121 0.0
H1467 H 0.64304 0.81226 0.12149 0.0
O1468 O 0.68627 0.86925 0.1578 0.0
O1469 O 0.65842 0.84512 0.17465 0.0
O1470 O 0.6488 0.86461 0.1403 0.0
O1471 O 0.67678 0.83233 0.13945 0.0
H1472 H 0.71605 0.85429 0.14577 0.0
H1473 H 0.69169 0.90412 0.16109 0.0
H1474 H 0.74432 0.87051 0.13985 0.0
H1475 H 0.72037 0.91949 0.1549 0.0
H1476 H 0.64455 0.80241 0.21591 0.0
H1477 H 0.6639 0.86429 0.20401 0.0
H1478 H 0.64818 0.81238 0.18464 0.0
H1479 H 0.65967 0.85346 0.23496 0.0
H1480 H 0.67114 0.91623 0.20986 0.0
H1481 H 0.61567 0.90875 0.19533 0.0
H1482 H 0.73492 0.80469 0.16763 0.0
H1483 H 0.71539 0.82708 0.21737 0.0
H1484 H 0.64778 0.85647 0.10607 0.0
H1485 H 0.65298 0.89954 0.14393 0.0
H1486 H 0.65595 0.87747 0.08192 0.0
H1487 H 0.6597 0.92017 0.11884 0.0
H1488 H 0.68242 0.81091 0.11163 0.0
H1489 H 0.67399 0.81216 0.16848 0.0
H1490 H 0.68368 0.77789 0.11305 0.0
H1491 H 0.67515 0.77908 0.16896 0.0
H1492 H 0.71438 0.89673 0.09539 0.0
H1493 H 0.69951 0.84449 0.07535 0.0
H1494 H 0.59694 0.80871 0.16848 0.0
H1495 H 0.6186 0.79062 0.1179 0.0
Li1496 Li 0.91259 0.09146 0.61985 0.0
Li1497 Li 0.93414 0.09043 0.59534 0.0
Li1498 Li 0.92834 0.11922 0.60755 0.0
Li1499 Li 0.9058 0.10459 0.58858 0.0
C1500 C 0.95129 0.08682 0.62646 0.0
N1501 N 0.97738 0.06398 0.63924 0.0
C1502 C 0.94745 0.06876 0.62936 0.0
C1503 C 0.96854 0.09319 0.62974 0.0
C1504 C 0.96077 0.05743 0.63586 0.0
C1505 C 0.9815 0.08145 0.63632 0.0
C1506 C 0.90871 0.0628 0.58864 0.0
C1507 C 0.90553 0.044 0.56256 0.0
N1508 N 0.90551 0.02928 0.57325 0.0
C1509 C 0.90842 0.04746 0.59936 0.0
C1510 C 0.90703 0.06102 0.57009 0.0
C1511 C 0.90689 0.03066 0.59133 0.0
C1512 C 0.88858 0.0675 0.63741 0.0
N1513 N 0.90342 0.07772 0.63985 0.0
C1514 C 0.90855 0.06407 0.66841 0.0
C1515 C 0.91308 0.07658 0.65523 0.0
C1516 C 0.89378 0.05266 0.66592 0.0
C1517 C 0.88353 0.05483 0.65028 0.0
H1518 H 0.88116 0.06856 0.62504 0.0
H1519 H 0.92474 0.08494 0.65699 0.0
C1520 C 0.96691 0.08717 0.57888 0.0
N1521 N 0.95355 0.07733 0.58626 0.0
C1522 C 0.98037 0.07878 0.56916 0.0
C1523 C 0.96704 0.05024 0.5766 0.0
C1524 C 0.95386 0.05919 0.58612 0.0
C1525 C 0.98001 0.06013 0.56728 0.0
H1526 H 0.9665 0.10161 0.57967 0.0
H1527 H 0.94351 0.05167 0.5927 0.0
C1528 C 0.90209 0.12982 0.62439 0.0
N1529 N 0.91047 0.1589 0.64541 0.0
C1530 C 0.90159 0.14697 0.61715 0.0
C1531 C 0.90589 0.12747 0.64253 0.0
C1532 C 0.90636 0.16144 0.62788 0.0
C1533 C 0.91 0.14238 0.65298 0.0
C1534 C 0.93122 0.11434 0.56381 0.0
C1535 C 0.93087 0.13112 0.55554 0.0
C1536 C 0.93289 0.099 0.55324 0.0
C1537 C 0.93188 0.13224 0.53692 0.0
C1538 C 0.93392 0.10067 0.53466 0.0
N1539 N 0.93336 0.11712 0.52694 0.0
C1540 C 0.95253 0.14218 0.62714 0.0
C1541 C 0.93967 0.15586 0.60178 0.0
C1542 C 0.9636 0.15708 0.62991 0.0
N1543 N 0.94112 0.1416 0.613 0.0
C1544 C 0.94999 0.17128 0.60441 0.0
C1545 C 0.96269 0.17199 0.61833 0.0
H1546 H 0.95341 0.13085 0.63606 0.0
H1547 H 0.93029 0.1554 0.59085 0.0
C1548 C 0.87546 0.09322 0.56848 0.0
N1549 N 0.88706 0.10706 0.57071 0.0
C1550 C 0.86126 0.0945 0.55635 0.0
C1551 C 0.87143 0.12406 0.54842 0.0
C1552 C 0.88538 0.12225 0.56083 0.0
C1553 C 0.85879 0.11023 0.54628 0.0
H1554 H 0.87665 0.08146 0.57677 0.0
H1555 H 0.89455 0.13321 0.5629 0.0
O1556 O 0.9382 0.09814 0.62046 0.0
O1557 O 0.90998 0.07943 0.59633 0.0
O1558 O 0.90133 0.11538 0.61331 0.0
O1559 O 0.93013 0.11305 0.58211 0.0
H1560 H 0.93434 0.06348 0.62648 0.0
H1561 H 0.97193 0.10702 0.62727 0.0
H1562 H 0.95791 0.04344 0.6382 0.0
H1563 H 0.99486 0.08624 0.63909 0.0
H1564 H 0.90426 0.04249 0.54823 0.0
H1565 H 0.90957 0.04843 0.61372 0.0
H1566 H 0.90654 0.07265 0.56155 0.0
H1567 H 0.90679 0.01871 0.59948 0.0
H1568 H 0.91656 0.06341 0.68044 0.0
H1569 H 0.87208 0.0464 0.64763 0.0
H1570 H 0.99029 0.08682 0.56233 0.0
H1571 H 0.96622 0.03582 0.57544 0.0
H1572 H 0.8989 0.14893 0.60305 0.0
H1573 H 0.90635 0.11424 0.64832 0.0
H1574 H 0.90761 0.17452 0.62198 0.0
H1575 H 0.91336 0.14078 0.66695 0.0
H1576 H 0.9296 0.14319 0.56334 0.0
H1577 H 0.93359 0.08593 0.55925 0.0
H1578 H 0.93146 0.14515 0.53039 0.0
H1579 H 0.93521 0.08887 0.52638 0.0
H1580 H 0.97314 0.15649 0.64074 0.0
H1581 H 0.94799 0.18244 0.59544 0.0
H1582 H 0.85184 0.08356 0.55566 0.0
H1583 H 0.87048 0.13633 0.5408 0.0
Li1584 Li 0.6542 0.16149 0.35669 0.0
Li1585 Li 0.67793 0.14337 0.36889 0.0
Li1586 Li 0.68389 0.15918 0.34227 0.0
Li1587 Li 0.66381 0.1334 0.34077 0.0
C1588 C 0.67817 0.18785 0.36555 0.0
N1589 N 0.67883 0.22483 0.36483 0.0
C1590 C 0.68488 0.19744 0.38013 0.0
C1591 C 0.67184 0.19712 0.35057 0.0
C1592 C 0.68509 0.21612 0.37952 0.0
C1593 C 0.67227 0.21579 0.35048 0.0
C1594 C 0.65411 0.12128 0.37614 0.0
C1595 C 0.66444 0.09105 0.38078 0.0
N1596 N 0.66502 0.09409 0.39867 0.0
C1597 C 0.65403 0.12387 0.39462 0.0
C1598 C 0.65908 0.10463 0.3692 0.0
C1599 C 0.66006 0.11009 0.40572 0.0
C1600 C 0.62568 0.18505 0.34671 0.0
N1601 N 0.63524 0.17897 0.36094 0.0
C1602 C 0.61985 0.19958 0.38022 0.0
C1603 C 0.63282 0.18625 0.37746 0.0
C1604 C 0.60897 0.20531 0.36589 0.0
C1605 C 0.61234 0.19791 0.34892 0.0
H1606 H 0.62827 0.17995 0.33354 0.0
H1607 H 0.64101 0.18178 0.38851 0.0
C1608 C 0.70057 0.12179 0.3921 0.0
N1609 N 0.69056 0.13695 0.39089 0.0
C1610 C 0.71139 0.11872 0.40708 0.0
C1611 C 0.7009 0.14648 0.41973 0.0
C1612 C 0.69032 0.14903 0.4045 0.0
C1613 C 0.71198 0.13133 0.42106 0.0
H1614 H 0.70056 0.11229 0.3812 0.0
H1615 H 0.68214 0.16089 0.40337 0.0
C1616 C 0.64974 0.15656 0.31611 0.0
N1617 N 0.62827 0.15351 0.28618 0.0
C1618 C 0.63279 0.14888 0.31745 0.0
C1619 C 0.65567 0.16296 0.29957 0.0
C1620 C 0.62216 0.14735 0.30217 0.0
C1621 C 0.64464 0.16125 0.28459 0.0
C1622 C 0.70744 0.13153 0.34923 0.0
C1623 C 0.7176 0.14431 0.35834 0.0
C1624 C 0.71569 0.11612 0.34263 0.0
C1625 C 0.73588 0.14143 0.36072 0.0
C1626 C 0.73401 0.11373 0.34528 0.0
N1627 N 0.74364 0.12632 0.3542 0.0
C1628 C 0.71117 0.18461 0.33441 0.0
C1629 C 0.70266 0.16433 0.31154 0.0
C1630 C 0.72168 0.19419 0.32242 0.0
N1631 N 0.70125 0.17059 0.3285 0.0
C1632 C 0.7129 0.17352 0.29907 0.0
C1633 C 0.72192 0.18912 0.30433 0.0
H1634 H 0.71039 0.18881 0.34821 0.0
H1635 H 0.69498 0.15275 0.30751 0.0
C1636 C 0.64064 0.10752 0.323 0.0
N1637 N 0.65736 0.11463 0.32385 0.0
C1638 C 0.63649 0.09448 0.31019 0.0
C1639 C 0.66688 0.09591 0.29962 0.0
C1640 C 0.67033 0.10922 0.31233 0.0
C1641 C 0.64979 0.08806 0.2985 0.0
H1642 H 0.63048 0.11201 0.33223 0.0
H1643 H 0.68342 0.11531 0.31299 0.0
O1644 O 0.67775 0.16954 0.36615 0.0
O1645 O 0.65166 0.13548 0.36485 0.0
O1646 O 0.66034 0.15799 0.33097 0.0
O1647 O 0.68949 0.13395 0.34684 0.0
H1648 H 0.68989 0.19054 0.39181 0.0
H1649 H 0.66667 0.19005 0.33909 0.0
H1650 H 0.69025 0.22369 0.39072 0.0
H1651 H 0.6674 0.2231 0.33899 0.0
H1652 H 0.66866 0.07827 0.37549 0.0
H1653 H 0.65066 0.13679 0.40021 0.0
H1654 H 0.65952 0.10231 0.35502 0.0
H1655 H 0.66167 0.11239 0.4198 0.0
H1656 H 0.61824 0.2051 0.3935 0.0
H1657 H 0.60442 0.2015 0.33737 0.0
H1658 H 0.71976 0.10691 0.40731 0.0
H1659 H 0.70058 0.15643 0.43025 0.0
H1660 H 0.62795 0.1442 0.33024 0.0
H1661 H 0.66852 0.16941 0.29831 0.0
H1662 H 0.60907 0.1413 0.30303 0.0
H1663 H 0.64907 0.16613 0.27172 0.0
H1664 H 0.71142 0.15626 0.36366 0.0
H1665 H 0.70799 0.10607 0.33561 0.0
H1666 H 0.74389 0.15117 0.3678 0.0
H1667 H 0.74057 0.10185 0.34028 0.0
H1668 H 0.72883 0.20591 0.32703 0.0
H1669 H 0.71268 0.16917 0.28526 0.0
H1670 H 0.62305 0.08918 0.30988 0.0
H1671 H 0.6775 0.09205 0.29059 0.0
Li1672 Li 0.57628 0.91349 0.09282 0.0
Li1673 Li 0.59676 0.91305 0.11797 0.0
Li1674 Li 0.60446 0.89923 0.08719 0.0
Li1675 Li 0.58092 0.88571 0.10577 0.0
C1676 C 0.60099 0.94263 0.09065 0.0
N1677 N 0.60328 0.97893 0.08375 0.0
C1678 C 0.59673 0.95508 0.10396 0.0
C1679 C 0.6066 0.94874 0.07386 0.0
C1680 C 0.59793 0.97334 0.10021 0.0
C1681 C 0.60759 0.96711 0.07063 0.0
C1682 C 0.55496 0.91488 0.12052 0.0
C1683 C 0.52281 0.91442 0.11839 0.0
N1684 N 0.52224 0.93152 0.12457 0.0
C1685 C 0.55405 0.93242 0.12694 0.0
C1686 C 0.53921 0.90577 0.11628 0.0
C1687 C 0.53739 0.9406 0.12886 0.0
C1688 C 0.54473 0.91499 0.07441 0.0
N1689 N 0.55726 0.92586 0.08183 0.0
C1690 C 0.54251 0.95171 0.07065 0.0
C1691 C 0.55602 0.94393 0.08075 0.0
C1692 C 0.53017 0.9407 0.06174 0.0
C1693 C 0.53097 0.92216 0.06423 0.0
H1694 H 0.54574 0.90065 0.07597 0.0
H1695 H 0.56572 0.95234 0.08719 0.0
C1696 C 0.62117 0.93578 0.13676 0.0
N1697 N 0.6057 0.92633 0.13829 0.0
C1698 C 0.62617 0.94804 0.15004 0.0
C1699 C 0.59968 0.94002 0.16662 0.0
C1700 C 0.59524 0.92787 0.15309 0.0
C1701 C 0.61509 0.9507 0.16501 0.0
H1702 H 0.62911 0.93454 0.12475 0.0
H1703 H 0.58302 0.92021 0.15404 0.0
C1704 C 0.57973 0.89152 0.06183 0.0
N1705 N 0.57829 0.8933 0.02492 0.0
C1706 C 0.57506 0.87641 0.05185 0.0
C1707 C 0.58358 0.90753 0.05301 0.0
C1708 C 0.57444 0.87757 0.03321 0.0
C1709 C 0.58279 0.90818 0.03436 0.0
C1710 C 0.60623 0.8738 0.12203 0.0
C1711 C 0.60706 0.85716 0.11365 0.0
C1712 C 0.60139 0.87503 0.14003 0.0
C1713 C 0.6018 0.84202 0.12315 0.0
C1714 C 0.59656 0.85951 0.14917 0.0
N1715 N 0.59646 0.84356 0.14047 0.0
C1716 C 0.63546 0.90963 0.06801 0.0
C1717 C 0.62475 0.88102 0.05981 0.0
C1718 C 0.65011 0.90781 0.05651 0.0
N1719 N 0.62341 0.89615 0.06984 0.0
C1720 C 0.63902 0.87878 0.04785 0.0
C1721 C 0.6523 0.8921 0.04633 0.0
H1722 H 0.63427 0.92145 0.07623 0.0
H1723 H 0.61489 0.87055 0.0613 0.0
C1724 C 0.55781 0.86319 0.12696 0.0
N1725 N 0.56756 0.86399 0.11162 0.0
C1726 C 0.5468 0.84843 0.13052 0.0
C1727 C 0.55644 0.83522 0.10271 0.0
C1728 C 0.56702 0.85036 0.09956 0.0
C1729 C 0.54579 0.83418 0.11822 0.0
H1730 H 0.55823 0.87425 0.13629 0.0
H1731 H 0.57493 0.85119 0.0875 0.0
O1732 O 0.60034 0.92465 0.09424 0.0
O1733 O 0.57118 0.90676 0.11816 0.0
O1734 O 0.5806 0.89051 0.08011 0.0
O1735 O 0.60789 0.88895 0.1121 0.0
H1736 H 0.59226 0.95076 0.11697 0.0
H1737 H 0.61026 0.93945 0.06341 0.0
H1738 H 0.59456 0.98307 0.11038 0.0
H1739 H 0.61187 0.97197 0.05768 0.0
H1740 H 0.51053 0.90757 0.11501 0.0
H1741 H 0.56605 0.93969 0.1303 0.0
H1742 H 0.53964 0.89229 0.11107 0.0
H1743 H 0.5365 0.9542 0.13374 0.0
H1744 H 0.54242 0.96609 0.06895 0.0
H1745 H 0.52153 0.91329 0.05777 0.0
H1746 H 0.63812 0.95598 0.14815 0.0
H1747 H 0.59092 0.94128 0.17808 0.0
H1748 H 0.572 0.86389 0.05841 0.0
H1749 H 0.58696 0.91935 0.0605 0.0
H1750 H 0.57089 0.86597 0.02533 0.0
H1751 H 0.58572 0.92052 0.0274 0.0
H1752 H 0.61057 0.85612 0.09963 0.0
H1753 H 0.60063 0.88789 0.14661 0.0
H1754 H 0.60131 0.82919 0.11653 0.0
H1755 H 0.59236 0.86021 0.163 0.0
H1756 H 0.65995 0.9184 0.05628 0.0
H1757 H 0.63966 0.86662 0.04003 0.0
H1758 H 0.53872 0.84857 0.14252 0.0
H1759 H 0.55657 0.82452 0.09297 0.0
Li1760 Li 0.85293 0.83863 0.85226 0.0
Li1761 Li 0.83013 0.8562 0.86677 0.0
Li1762 Li 0.82315 0.84262 0.83955 0.0
Li1763 Li 0.84354 0.86876 0.83939 0.0
C1764 C 0.829 0.81217 0.85968 0.0
N1765 N 0.82754 0.77551 0.85499 0.0
C1766 C 0.82256 0.80117 0.87336 0.0
C1767 C 0.83468 0.80448 0.84358 0.0
C1768 C 0.82194 0.78268 0.87074 0.0
C1769 C 0.83383 0.78593 0.84148 0.0
C1770 C 0.85566 0.87389 0.87724 0.0
C1771 C 0.84779 0.90191 0.89098 0.0
N1772 N 0.8473 0.89359 0.90714 0.0
C1773 C 0.85626 0.8659 0.89408 0.0
C1774 C 0.8518 0.8921 0.87564 0.0
C1775 C 0.85152 0.876 0.909 0.0
C1776 C 0.88289 0.81622 0.84124 0.0
N1777 N 0.87201 0.8208 0.85511 0.0
C1778 C 0.88713 0.79965 0.87405 0.0
C1779 C 0.8736 0.81237 0.8712 0.0
C1780 C 0.89936 0.79571 0.86029 0.0
C1781 C 0.89675 0.80389 0.84358 0.0
H1782 H 0.88118 0.82223 0.82831 0.0
H1783 H 0.86454 0.81576 0.88196 0.0
C1784 C 0.80939 0.87764 0.89165 0.0
N1785 N 0.81781 0.86169 0.88919 0.0
C1786 C 0.79896 0.88064 0.9069 0.0
C1787 C 0.80655 0.85104 0.91728 0.0
C1788 C 0.81668 0.84855 0.90173 0.0
C1789 C 0.79715 0.86714 0.91992 0.0
H1790 H 0.81041 0.88794 0.88154 0.0
H1791 H 0.82357 0.83604 0.89959 0.0
C1792 C 0.85925 0.84594 0.81434 0.0
N1793 N 0.88544 0.84816 0.78838 0.0
C1794 C 0.87481 0.85577 0.81753 0.0
C1795 C 0.85703 0.83717 0.79798 0.0
C1796 C 0.88787 0.85679 0.80421 0.0
C1797 C 0.87045 0.83843 0.78504 0.0
C1798 C 0.80097 0.87267 0.8481 0.0
C1799 C 0.7887 0.86157 0.85677 0.0
C1800 C 0.79556 0.88943 0.84188 0.0
C1801 C 0.77113 0.86745 0.85906 0.0
C1802 C 0.77787 0.89482 0.84443 0.0
N1803 N 0.76613 0.88381 0.85289 0.0
C1804 C 0.79345 0.82054 0.83434 0.0
C1805 C 0.80627 0.83329 0.80824 0.0
C1806 C 0.78298 0.80915 0.82404 0.0
N1807 N 0.80532 0.83165 0.82626 0.0
C1808 C 0.79619 0.82206 0.79741 0.0
C1809 C 0.78506 0.80918 0.80538 0.0
H1810 H 0.793 0.8196 0.84876 0.0
H1811 H 0.81579 0.84244 0.80234 0.0
C1812 C 0.86424 0.89915 0.82599 0.0
N1813 N 0.84936 0.88884 0.82426 0.0
C1814 C 0.86788 0.91266 0.8135 0.0
C1815 C 0.84086 0.90479 0.79781 0.0
C1816 C 0.83779 0.8914 0.81049 0.0
C1817 C 0.85606 0.91578 0.79915 0.0
H1818 H 0.87346 0.89669 0.83687 0.0
H1819 H 0.82625 0.88277 0.80921 0.0
O1820 O 0.82964 0.83032 0.86217 0.0
O1821 O 0.85665 0.8635 0.86234 0.0
O1822 O 0.84608 0.84524 0.82699 0.0
O1823 O 0.81837 0.86747 0.84613 0.0
H1824 H 0.81805 0.80685 0.88588 0.0
H1825 H 0.83967 0.81265 0.83278 0.0
H1826 H 0.81699 0.77402 0.88122 0.0
H1827 H 0.83818 0.77984 0.8291 0.0
H1828 H 0.84445 0.91595 0.89 0.0
H1829 H 0.85898 0.85174 0.89543 0.0
H1830 H 0.85116 0.89842 0.86265 0.0
H1831 H 0.85052 0.86964 0.92192 0.0
H1832 H 0.88833 0.7934 0.88706 0.0
H1833 H 0.90568 0.80125 0.8325 0.0
H1834 H 0.79186 0.89319 0.9081 0.0
H1835 H 0.80594 0.84035 0.92702 0.0
H1836 H 0.87679 0.86247 0.83019 0.0
H1837 H 0.84513 0.82941 0.79533 0.0
H1838 H 0.89993 0.86443 0.80646 0.0
H1839 H 0.86892 0.8317 0.77232 0.0
H1840 H 0.7928 0.84875 0.86203 0.0
H1841 H 0.80496 0.89824 0.83529 0.0
H1842 H 0.76151 0.85904 0.86584 0.0
H1843 H 0.7735 0.90779 0.83973 0.0
H1844 H 0.77434 0.79958 0.83063 0.0
H1845 H 0.79831 0.82243 0.78309 0.0
H1846 H 0.87984 0.92052 0.81508 0.0
H1847 H 0.83155 0.90615 0.78681 0.0
Li1848 Li 0.41456 0.59149 0.11657 0.0
Li1849 Li 0.43415 0.59015 0.09123 0.0
Li1850 Li 0.42735 0.61852 0.10502 0.0
Li1851 Li 0.40399 0.60374 0.08724 0.0
C1852 C 0.44788 0.59063 0.12996 0.0
N1853 N 0.46301 0.57489 0.1598 0.0
C1854 C 0.46039 0.57688 0.12801 0.0
C1855 C 0.44327 0.59653 0.1471 0.0
C1856 C 0.46785 0.56906 0.14326 0.0
C1857 C 0.45099 0.58835 0.16201 0.0
C1858 C 0.39841 0.56557 0.09748 0.0
C1859 C 0.38895 0.53473 0.09783 0.0
N1860 N 0.37372 0.53958 0.10649 0.0
C1861 C 0.38259 0.57024 0.10626 0.0
C1862 C 0.40158 0.54767 0.09314 0.0
C1863 C 0.37031 0.55692 0.11076 0.0
C1864 C 0.39405 0.5802 0.14782 0.0
N1865 N 0.40801 0.5764 0.13679 0.0
C1866 C 0.41285 0.5485 0.15189 0.0
C1867 C 0.41715 0.56074 0.13842 0.0
C1868 C 0.39855 0.55202 0.16355 0.0
C1869 C 0.38895 0.568 0.16112 0.0
H1870 H 0.38654 0.59242 0.14594 0.0
H1871 H 0.42765 0.55758 0.12901 0.0
C1872 C 0.4648 0.58723 0.07081 0.0
N1873 N 0.45234 0.57779 0.08003 0.0
C1874 C 0.47743 0.57829 0.06051 0.0
C1875 C 0.46489 0.55019 0.0707 0.0
C1876 C 0.45252 0.55969 0.08075 0.0
C1877 C 0.47712 0.55955 0.05993 0.0
H1878 H 0.46447 0.60169 0.07093 0.0
H1879 H 0.44274 0.55271 0.08873 0.0
C1880 C 0.4015 0.63077 0.1194 0.0
N1881 N 0.4079 0.66416 0.13338 0.0
C1882 C 0.40034 0.64584 0.10843 0.0
C1883 C 0.40503 0.6327 0.13762 0.0
C1884 C 0.40361 0.66266 0.11578 0.0
C1885 C 0.40843 0.64971 0.14442 0.0
C1886 C 0.42824 0.61117 0.06081 0.0
C1887 C 0.43491 0.62502 0.05018 0.0
C1888 C 0.42245 0.59532 0.05273 0.0
C1889 C 0.43562 0.62282 0.03163 0.0
C1890 C 0.42337 0.59364 0.03414 0.0
N1891 N 0.42988 0.60731 0.02407 0.0
C1892 C 0.44879 0.64297 0.12576 0.0
C1893 C 0.44108 0.65363 0.09699 0.0
C1894 C 0.45923 0.65819 0.12893 0.0
N1895 N 0.43995 0.64092 0.10999 0.0
C1896 C 0.45128 0.66912 0.09964 0.0
C1897 C 0.4608 0.6715 0.11571 0.0
H1898 H 0.44804 0.63264 0.1358 0.0
H1899 H 0.43402 0.65174 0.08453 0.0
C1900 C 0.37356 0.5922 0.06632 0.0
N1901 N 0.38454 0.60629 0.06983 0.0
C1902 C 0.35897 0.59405 0.05477 0.0
C1903 C 0.368 0.62447 0.04912 0.0
C1904 C 0.38233 0.62209 0.06102 0.0
C1905 C 0.35573 0.61047 0.04617 0.0
H1906 H 0.37581 0.57949 0.07265 0.0
H1907 H 0.39149 0.633 0.06349 0.0
O1908 O 0.44026 0.59826 0.11516 0.0
O1909 O 0.41072 0.57849 0.09332 0.0
O1910 O 0.40092 0.61415 0.11199 0.0
O1911 O 0.42747 0.61321 0.07902 0.0
H1912 H 0.4643 0.57225 0.11489 0.0
H1913 H 0.43362 0.6071 0.1489 0.0
H1914 H 0.47747 0.55835 0.14194 0.0
H1915 H 0.44739 0.59268 0.17534 0.0
H1916 H 0.39124 0.52082 0.09455 0.0
H1917 H 0.37995 0.58403 0.10971 0.0
H1918 H 0.41356 0.54377 0.08608 0.0
H1919 H 0.35809 0.56038 0.11767 0.0
H1920 H 0.42035 0.53616 0.15282 0.0
H1921 H 0.37757 0.571 0.16935 0.0
H1922 H 0.48679 0.58591 0.0525 0.0
H1923 H 0.46412 0.53573 0.07049 0.0
H1924 H 0.3977 0.64448 0.09427 0.0
H1925 H 0.4057 0.62113 0.14628 0.0
H1926 H 0.40326 0.67445 0.10741 0.0
H1927 H 0.41173 0.65143 0.1584 0.0
H1928 H 0.43954 0.63735 0.05617 0.0
H1929 H 0.41728 0.5844 0.06064 0.0
H1930 H 0.44075 0.63344 0.02326 0.0
H1931 H 0.41892 0.58146 0.02773 0.0
H1932 H 0.46651 0.65913 0.1414 0.0
H1933 H 0.45179 0.67905 0.08912 0.0
H1934 H 0.35006 0.58279 0.05303 0.0
H1935 H 0.36646 0.63723 0.04247 0.0
Li1936 Li 0.17648 0.64277 0.86595 0.0
Li1937 Li 0.15324 0.66108 0.85314 0.0
Li1938 Li 0.16144 0.63151 0.83843 0.0
Li1939 Li 0.18269 0.65731 0.839 0.0
C1940 C 0.15172 0.62454 0.8764 0.0
N1941 N 0.16296 0.6036 0.90446 0.0
C1942 C 0.15182 0.63151 0.89367 0.0
C1943 C 0.15636 0.60667 0.87346 0.0
C1944 C 0.15818 0.62089 0.90757 0.0
C1945 C 0.16172 0.59619 0.88792 0.0
C1946 C 0.1777 0.68706 0.8606 0.0
C1947 C 0.17291 0.71405 0.84354 0.0
N1948 N 0.17915 0.72389 0.85749 0.0
C1949 C 0.1841 0.69747 0.87475 0.0
C1950 C 0.17208 0.69543 0.84483 0.0
C1951 C 0.18471 0.71606 0.87293 0.0
C1952 C 0.19962 0.62149 0.88945 0.0
N1953 N 0.19004 0.63688 0.88772 0.0
C1954 C 0.20106 0.64721 0.91607 0.0
C1955 C 0.19055 0.64959 0.90075 0.0
C1956 C 0.2117 0.63178 0.91795 0.0
C1957 C 0.21062 0.61873 0.90438 0.0
H1958 H 0.199 0.61142 0.87911 0.0
H1959 H 0.1827 0.66163 0.89927 0.0
C1960 C 0.12518 0.68577 0.84322 0.0
N1961 N 0.13427 0.67866 0.85729 0.0
C1962 C 0.1114 0.69809 0.84595 0.0
C1963 C 0.11715 0.69673 0.87765 0.0
C1964 C 0.13074 0.68419 0.87429 0.0
C1965 C 0.10695 0.70366 0.86338 0.0
H1966 H 0.12841 0.68185 0.82976 0.0
H1967 H 0.13838 0.67874 0.8853 0.0
C1968 C 0.20331 0.62443 0.84472 0.0
N1969 N 0.23644 0.60827 0.84632 0.0
C1970 C 0.21791 0.63373 0.8517 0.0
C1971 C 0.20552 0.60693 0.83855 0.0
C1972 C 0.23457 0.62533 0.85239 0.0
C1973 C 0.22238 0.59899 0.83948 0.0
C1974 C 0.14698 0.6566 0.81395 0.0
C1975 C 0.13093 0.64722 0.81541 0.0
C1976 C 0.15043 0.66676 0.79865 0.0
C1977 C 0.11856 0.64804 0.80145 0.0
C1978 C 0.13771 0.66729 0.78499 0.0
N1979 N 0.12218 0.65798 0.78665 0.0
C1980 C 0.14039 0.60115 0.82543 0.0
C1981 C 0.16357 0.61197 0.80678 0.0
C1982 C 0.13559 0.58841 0.81252 0.0
N1983 N 0.15423 0.61256 0.82238 0.0
C1984 C 0.15914 0.59959 0.79348 0.0
C1985 C 0.14497 0.58756 0.79619 0.0
H1986 H 0.13293 0.60205 0.83778 0.0
H1987 H 0.17441 0.62129 0.80462 0.0
C1988 C 0.21314 0.67813 0.83398 0.0
N1989 N 0.20071 0.66778 0.82576 0.0
C1990 C 0.22506 0.68809 0.82379 0.0
C1991 C 0.21185 0.67544 0.79704 0.0
C1992 C 0.20033 0.6656 0.80777 0.0
C1993 C 0.22388 0.68744 0.80507 0.0
H1994 H 0.21324 0.67928 0.8484 0.0
H1995 H 0.19043 0.65693 0.80178 0.0
O1996 O 0.14961 0.63579 0.86227 0.0
O1997 O 0.17701 0.66882 0.86233 0.0
O1998 O 0.18678 0.63217 0.84424 0.0
O1999 O 0.15927 0.6558 0.82745 0.0
H2000 H 0.14857 0.64542 0.89603 0.0
H2001 H 0.15666 0.60119 0.8601 0.0
H2002 H 0.15996 0.62666 0.92066 0.0
H2003 H 0.16562 0.58241 0.88587 0.0
H2004 H 0.16859 0.72067 0.83142 0.0
H2005 H 0.18857 0.69127 0.88703 0.0
H2006 H 0.16716 0.68774 0.83366 0.0
H2007 H 0.18963 0.72426 0.88379 0.0
H2008 H 0.20088 0.65749 0.92624 0.0
H2009 H 0.2186 0.60668 0.9049 0.0
H2010 H 0.10398 0.70277 0.83445 0.0
H2011 H 0.11457 0.70079 0.89131 0.0
H2012 H 0.21632 0.64714 0.85687 0.0
H2013 H 0.19428 0.59953 0.83322 0.0
H2014 H 0.24598 0.63232 0.85785 0.0
H2015 H 0.22429 0.58543 0.8348 0.0
H2016 H 0.12818 0.63937 0.82722 0.0
H2017 H 0.16271 0.67429 0.7974 0.0
H2018 H 0.1061 0.64078 0.80237 0.0
H2019 H 0.14017 0.67512 0.77307 0.0
H2020 H 0.12445 0.57955 0.81516 0.0
H2021 H 0.16692 0.59932 0.78126 0.0
H2022 H 0.23434 0.697 0.83044 0.0
H2023 H 0.21037 0.67466 0.78265 0.0
Li2024 Li 0.09292 0.40803 0.61902 0.0
Li2025 Li 0.07417 0.40637 0.59203 0.0
Li2026 Li 0.07907 0.37954 0.60972 0.0
Li2027 Li 0.104 0.39145 0.59212 0.0
C2028 C 0.05713 0.41049 0.62967 0.0
N2029 N 0.03785 0.42834 0.65575 0.0
C2030 C 0.04504 0.42394 0.62494 0.0
C2031 C 0.05906 0.40589 0.64769 0.0
C2032 C 0.03551 0.43287 0.6383 0.0
C2033 C 0.0493 0.41511 0.66067 0.0
C2034 C 0.10913 0.43153 0.59443 0.0
C2035 C 0.11697 0.46123 0.58452 0.0
N2036 N 0.13214 0.46045 0.59447 0.0
C2037 C 0.12505 0.43083 0.60415 0.0
C2038 C 0.10521 0.44673 0.58427 0.0
C2039 C 0.13639 0.44569 0.6042 0.0
C2040 C 0.11464 0.4242 0.64714 0.0
N2041 N 0.09953 0.42578 0.63709 0.0
C2042 C 0.09331 0.45428 0.65048 0.0
C2043 C 0.0892 0.44072 0.63824 0.0
C2044 C 0.10836 0.45261 0.66156 0.0
C2045 C 0.11921 0.43741 0.65962 0.0
H2046 H 0.12327 0.41275 0.64534 0.0
H2047 H 0.07783 0.44225 0.6295 0.0
C2048 C 0.04632 0.40937 0.56722 0.0
N2049 N 0.05744 0.41846 0.57833 0.0
C2050 C 0.03513 0.41871 0.55566 0.0
C2051 C 0.0462 0.44641 0.56835 0.0
C2052 C 0.05721 0.43654 0.57952 0.0
C2053 C 0.03535 0.43746 0.55592 0.0
H2054 H 0.04654 0.39492 0.56695 0.0
H2055 H 0.06576 0.44324 0.58905 0.0
C2056 C 0.10249 0.37216 0.63239 0.0
N2057 N 0.09021 0.34955 0.65897 0.0
C2058 C 0.10073 0.35391 0.62907 0.0
C2059 C 0.09907 0.37869 0.64956 0.0
C2060 C 0.09388 0.34283 0.64249 0.0
C2061 C 0.0929 0.36709 0.6628 0.0
C2062 C 0.08164 0.38116 0.56508 0.0
C2063 C 0.07736 0.36528 0.55619 0.0
C2064 C 0.08682 0.39616 0.55516 0.0
C2065 C 0.07836 0.36466 0.53753 0.0
C2066 C 0.08767 0.395 0.53654 0.0
N2067 N 0.08346 0.3794 0.52818 0.0
C2068 C 0.05253 0.35873 0.62855 0.0
C2069 C 0.0668 0.34365 0.6047 0.0
C2070 C 0.04116 0.34411 0.63136 0.0
N2071 N 0.06504 0.3583 0.61536 0.0
C2072 C 0.05579 0.3287 0.60711 0.0
C2073 C 0.04255 0.32875 0.62051 0.0
H2074 H 0.05104 0.37058 0.63664 0.0
H2075 H 0.07675 0.3436 0.59422 0.0
C2076 C 0.13016 0.40124 0.56617 0.0
N2077 N 0.1238 0.38702 0.57559 0.0
C2078 C 0.14402 0.3992 0.55383 0.0
C2079 C 0.14411 0.36757 0.56002 0.0
C2080 C 0.13021 0.37028 0.57241 0.0
C2081 C 0.15151 0.38221 0.55064 0.0
H2082 H 0.12452 0.41433 0.56813 0.0
H2083 H 0.12461 0.35901 0.57955 0.0
O2084 O 0.06685 0.40183 0.61673 0.0
O2085 O 0.09765 0.41726 0.59453 0.0
O2086 O 0.10515 0.38379 0.61848 0.0
O2087 O 0.0809 0.38187 0.58338 0.0
H2088 H 0.04292 0.42744 0.61112 0.0
H2089 H 0.06789 0.39527 0.65167 0.0
H2090 H 0.02621 0.44337 0.63478 0.0
H2091 H 0.0508 0.41172 0.67466 0.0
H2092 H 0.11405 0.47308 0.57676 0.0
H2093 H 0.1285 0.41895 0.61165 0.0
H2094 H 0.09339 0.44726 0.57602 0.0
H2095 H 0.14856 0.44553 0.61195 0.0
H2096 H 0.08469 0.46588 0.65138 0.0
H2097 H 0.13128 0.43593 0.66744 0.0
H2098 H 0.02679 0.41142 0.54632 0.0
H2099 H 0.04681 0.46087 0.56886 0.0
H2100 H 0.10321 0.34863 0.61582 0.0
H2101 H 0.10009 0.39271 0.65251 0.0
H2102 H 0.09065 0.32912 0.63957 0.0
H2103 H 0.08969 0.37218 0.67595 0.0
H2104 H 0.07329 0.35354 0.56359 0.0
H2105 H 0.09015 0.4086 0.56172 0.0
H2106 H 0.07509 0.35245 0.53049 0.0
H2107 H 0.09167 0.4065 0.52873 0.0
H2108 H 0.03098 0.3452 0.64158 0.0
H2109 H 0.05763 0.31729 0.59841 0.0
H2110 H 0.14912 0.41109 0.54738 0.0
H2111 H 0.14887 0.35409 0.55783 0.0
Li2112 Li 0.18409 0.34383 0.65976 0.0
Li2113 Li 0.16419 0.37001 0.66225 0.0
Li2114 Li 0.15446 0.34244 0.64525 0.0
Li2115 Li 0.1785 0.36057 0.63379 0.0
C2116 C 0.14937 0.34474 0.68548 0.0
N2117 N 0.12659 0.34388 0.71457 0.0
C2118 C 0.13254 0.35272 0.68444 0.0
C2119 C 0.15449 0.33602 0.7012 0.0
C2120 C 0.12126 0.35226 0.69934 0.0
C2121 C 0.14281 0.33577 0.71577 0.0
C2122 C 0.20793 0.37176 0.65445 0.0
C2123 C 0.23439 0.38922 0.66023 0.0
N2124 N 0.24425 0.37719 0.65079 0.0
C2125 C 0.21832 0.35956 0.64483 0.0
C2126 C 0.216 0.3867 0.66223 0.0
C2127 C 0.23666 0.36255 0.64312 0.0
C2128 C 0.21159 0.31843 0.66581 0.0
N2129 N 0.20122 0.33151 0.67297 0.0
C2130 C 0.21186 0.32527 0.70224 0.0
C2131 C 0.2019 0.33574 0.69058 0.0
C2132 C 0.22139 0.31055 0.69552 0.0
C2133 C 0.22189 0.30768 0.67696 0.0
H2134 H 0.21127 0.31583 0.6516 0.0
H2135 H 0.19386 0.34663 0.69566 0.0
C2136 C 0.14115 0.39581 0.6805 0.0
N2137 N 0.15762 0.38809 0.67991 0.0
C2138 C 0.13693 0.40828 0.69388 0.0
C2139 C 0.16667 0.40477 0.70579 0.0
C2140 C 0.17026 0.39228 0.69229 0.0
C2141 C 0.14982 0.41308 0.70675 0.0
H2142 H 0.13125 0.39224 0.6706 0.0
H2143 H 0.18315 0.38576 0.69177 0.0
C2144 C 0.17781 0.31597 0.63574 0.0
N2145 N 0.17747 0.27898 0.63555 0.0
C2146 C 0.18338 0.30657 0.62057 0.0
C2147 C 0.17212 0.3065 0.65085 0.0
C2148 C 0.1831 0.28789 0.62073 0.0
C2149 C 0.17203 0.28782 0.65048 0.0
C2150 C 0.15528 0.38328 0.62715 0.0
C2151 C 0.15553 0.38127 0.60861 0.0
C2152 C 0.16037 0.39963 0.63469 0.0
C2153 C 0.1618 0.39533 0.59801 0.0
C2154 C 0.16607 0.41351 0.62361 0.0
N2155 N 0.16685 0.41103 0.60563 0.0
C2156 C 0.12798 0.31631 0.6545 0.0
C2157 C 0.13042 0.32114 0.62337 0.0
C2158 C 0.11474 0.30338 0.65185 0.0
N2159 N 0.13525 0.32529 0.64043 0.0
C2160 C 0.11723 0.30815 0.62006 0.0
C2161 C 0.10888 0.2992 0.63445 0.0
H2162 H 0.13243 0.31903 0.66791 0.0
H2163 H 0.13677 0.32795 0.6123 0.0
C2164 C 0.20197 0.38217 0.61123 0.0
N2165 N 0.19154 0.36728 0.6121 0.0
C2166 C 0.21306 0.38516 0.59642 0.0
C2167 C 0.20208 0.3578 0.58332 0.0
C2168 C 0.19117 0.35538 0.59834 0.0
C2169 C 0.21351 0.3727 0.58228 0.0
H2170 H 0.2021 0.39151 0.62228 0.0
H2171 H 0.18265 0.34375 0.5992 0.0
O2172 O 0.16062 0.34518 0.67106 0.0
O2173 O 0.18993 0.3692 0.65622 0.0
O2174 O 0.17787 0.33431 0.63561 0.0
O2175 O 0.1523 0.36879 0.63793 0.0
H2176 H 0.12834 0.35918 0.67222 0.0
H2177 H 0.16722 0.32928 0.70211 0.0
H2178 H 0.10827 0.35854 0.69883 0.0
H2179 H 0.14661 0.32909 0.72803 0.0
H2180 H 0.24081 0.40074 0.66615 0.0
H2181 H 0.21227 0.34799 0.63859 0.0
H2182 H 0.20812 0.3963 0.66967 0.0
H2183 H 0.24486 0.35325 0.63566 0.0
H2184 H 0.21103 0.32795 0.71645 0.0
H2185 H 0.22944 0.29672 0.67124 0.0
H2186 H 0.12377 0.41427 0.69392 0.0
H2187 H 0.17695 0.40761 0.71556 0.0
H2188 H 0.1879 0.31361 0.60877 0.0
H2189 H 0.16788 0.3134 0.6628 0.0
H2190 H 0.18737 0.28046 0.60906 0.0
H2191 H 0.16765 0.28036 0.66208 0.0
H2192 H 0.15222 0.36851 0.60264 0.0
H2193 H 0.16059 0.40149 0.64895 0.0
H2194 H 0.16348 0.39351 0.58384 0.0
H2195 H 0.17027 0.4261 0.62935 0.0
H2196 H 0.10878 0.29727 0.66352 0.0
H2197 H 0.11361 0.30525 0.60635 0.0
H2198 H 0.22172 0.39675 0.59644 0.0
H2199 H 0.20169 0.34793 0.57275 0.0
Li2200 Li 0.32701 0.65738 0.16496 0.0
Li2201 Li 0.34768 0.63249 0.16307 0.0
Li2202 Li 0.35534 0.66416 0.1511 0.0
Li2203 Li 0.33195 0.64623 0.1365 0.0
C2204 C 0.35208 0.65839 0.19412 0.0
N2205 N 0.35521 0.66372 0.23063 0.0
C2206 C 0.34813 0.64455 0.20609 0.0
C2207 C 0.35778 0.67491 0.20081 0.0
C2208 C 0.34976 0.64751 0.22446 0.0
C2209 C 0.35921 0.67736 0.21928 0.0
C2210 C 0.30586 0.62943 0.16417 0.0
C2211 C 0.27369 0.63078 0.16284 0.0
N2212 N 0.27279 0.62405 0.17972 0.0
C2213 C 0.30461 0.62248 0.18148 0.0
C2214 C 0.29027 0.63358 0.15474 0.0
C2215 C 0.28777 0.61987 0.18911 0.0
C2216 C 0.29483 0.67479 0.16815 0.0
N2217 N 0.30773 0.66684 0.17818 0.0
C2218 C 0.29226 0.67392 0.20504 0.0
C2219 C 0.30637 0.66568 0.19623 0.0
C2220 C 0.27936 0.68325 0.19509 0.0
C2221 C 0.2804 0.68311 0.17638 0.0
H2222 H 0.29596 0.67495 0.15374 0.0
H2223 H 0.31634 0.65875 0.20389 0.0
C2224 C 0.37199 0.61299 0.18512 0.0
N2225 N 0.35648 0.61173 0.17571 0.0
C2226 C 0.37673 0.59968 0.19743 0.0
C2227 C 0.34994 0.58355 0.18949 0.0
C2228 C 0.34573 0.59717 0.17734 0.0
C2229 C 0.36548 0.5848 0.20008 0.0
H2230 H 0.38019 0.62484 0.1838 0.0
H2231 H 0.33348 0.59644 0.16971 0.0
C2232 C 0.33046 0.6898 0.14539 0.0
N2233 N 0.32931 0.72647 0.15017 0.0
C2234 C 0.32675 0.70108 0.13094 0.0
C2235 C 0.33353 0.69722 0.16225 0.0
C2236 C 0.32625 0.71957 0.13362 0.0
C2237 C 0.33289 0.71575 0.16442 0.0
C2238 C 0.35779 0.63248 0.12279 0.0
C2239 C 0.35843 0.64346 0.10771 0.0
C2240 C 0.35398 0.61429 0.12096 0.0
C2241 C 0.35459 0.63616 0.091 0.0
C2242 C 0.35024 0.60748 0.10399 0.0
N2243 N 0.3504 0.61852 0.08954 0.0
C2244 C 0.38653 0.68329 0.1622 0.0
C2245 C 0.37542 0.69214 0.13393 0.0
C2246 C 0.40095 0.69515 0.16061 0.0
N2247 N 0.3743 0.68172 0.14882 0.0
C2248 C 0.38965 0.70416 0.13176 0.0
C2249 C 0.40293 0.70555 0.14504 0.0
H2250 H 0.38559 0.67472 0.17379 0.0
H2251 H 0.36551 0.69079 0.12349 0.0
C2252 C 0.31042 0.62566 0.11184 0.0
N2253 N 0.31893 0.64155 0.11434 0.0
C2254 C 0.2999 0.6228 0.0966 0.0
C2255 C 0.30731 0.65254 0.08653 0.0
C2256 C 0.31751 0.6549 0.10204 0.0
C2257 C 0.29803 0.63642 0.0837 0.0
H2258 H 0.3115 0.61531 0.12189 0.0
H2259 H 0.32444 0.66737 0.10422 0.0
O2260 O 0.35107 0.65556 0.17601 0.0
O2261 O 0.32224 0.63247 0.15661 0.0
O2262 O 0.33131 0.67166 0.14287 0.0
O2263 O 0.35893 0.63992 0.13937 0.0
H2264 H 0.34346 0.63176 0.20133 0.0
H2265 H 0.36115 0.68578 0.1919 0.0
H2266 H 0.34661 0.63693 0.23382 0.0
H2267 H 0.36357 0.69009 0.2246 0.0
H2268 H 0.26153 0.63405 0.15574 0.0
H2269 H 0.31649 0.61934 0.18905 0.0
H2270 H 0.29096 0.63923 0.14144 0.0
H2271 H 0.28663 0.6146 0.20254 0.0
H2272 H 0.29206 0.67384 0.21953 0.0
H2273 H 0.27058 0.68996 0.16824 0.0
H2274 H 0.38875 0.60144 0.20529 0.0
H2275 H 0.34107 0.57216 0.19054 0.0
H2276 H 0.32437 0.69566 0.11775 0.0
H2277 H 0.33619 0.68875 0.17358 0.0
H2278 H 0.32345 0.72844 0.12254 0.0
H2279 H 0.33522 0.72162 0.17744 0.0
H2280 H 0.36108 0.65764 0.10902 0.0
H2281 H 0.35328 0.60569 0.1326 0.0
H2282 H 0.35445 0.64462 0.07927 0.0
H2283 H 0.34685 0.59351 0.10232 0.0
H2284 H 0.41087 0.69552 0.17114 0.0
H2285 H 0.39034 0.71211 0.11968 0.0
H2286 H 0.29283 0.61024 0.09529 0.0
H2287 H 0.30666 0.66334 0.07691 0.0
Li2288 Li 0.57993 0.61751 0.60987 0.0
Li2289 Li 0.59687 0.59144 0.62288 0.0
Li2290 Li 0.60162 0.60236 0.59048 0.0
Li2291 Li 0.57396 0.58883 0.60016 0.0
C2292 C 0.60695 0.63151 0.62103 0.0
N2293 N 0.60095 0.66493 0.63514 0.0
C2294 C 0.60516 0.63362 0.6395 0.0
C2295 C 0.60645 0.6464 0.60978 0.0
C2296 C 0.60218 0.6507 0.64639 0.0
C2297 C 0.60319 0.66319 0.61717 0.0
C2298 C 0.55531 0.59064 0.62956 0.0
C2299 C 0.53776 0.5662 0.64117 0.0
N2300 N 0.52259 0.5756 0.63775 0.0
C2301 C 0.53955 0.60009 0.62622 0.0
C2302 C 0.55443 0.57357 0.63715 0.0
C2303 C 0.52314 0.59225 0.63043 0.0
C2304 C 0.56363 0.65057 0.60065 0.0
N2305 N 0.56725 0.63977 0.61482 0.0
C2306 C 0.54979 0.65865 0.63404 0.0
C2307 C 0.56069 0.6436 0.63138 0.0
C2308 C 0.5453 0.66962 0.61944 0.0
C2309 C 0.55267 0.66558 0.60265 0.0
H2310 H 0.56904 0.64736 0.58768 0.0
H2311 H 0.56348 0.63469 0.64243 0.0
C2312 C 0.62289 0.56982 0.64049 0.0
N2313 N 0.60766 0.57945 0.64297 0.0
C2314 C 0.62833 0.55725 0.6533 0.0
C2315 C 0.60306 0.5657 0.67148 0.0
C2316 C 0.59813 0.57808 0.65836 0.0
C2317 C 0.61806 0.5546 0.66887 0.0
H2318 H 0.6301 0.57096 0.628 0.0
H2319 H 0.58606 0.58587 0.66002 0.0
C2320 C 0.57498 0.60706 0.56678 0.0
N2321 N 0.5714 0.60061 0.5305 0.0
C2322 C 0.57707 0.58978 0.55999 0.0
C2323 C 0.57111 0.6211 0.55502 0.0
C2324 C 0.57517 0.58676 0.54166 0.0
C2325 C 0.56936 0.61757 0.53675 0.0
C2326 C 0.59865 0.55947 0.59791 0.0
C2327 C 0.60262 0.55202 0.5812 0.0
C2328 C 0.59592 0.54811 0.61255 0.0
C2329 C 0.60362 0.53346 0.57938 0.0
C2330 C 0.59707 0.52962 0.6102 0.0
N2331 N 0.60085 0.52273 0.5938 0.0
C2332 C 0.63048 0.5904 0.56868 0.0
C2333 C 0.61986 0.61932 0.56135 0.0
C2334 C 0.6439 0.59168 0.5557 0.0
N2335 N 0.61899 0.60423 0.57149 0.0
C2336 C 0.6332 0.62125 0.54834 0.0
C2337 C 0.64574 0.60748 0.54568 0.0
H2338 H 0.62981 0.5787 0.57711 0.0
H2339 H 0.61052 0.6301 0.56374 0.0
C2340 C 0.54073 0.58495 0.58468 0.0
N2341 N 0.55394 0.57535 0.59263 0.0
C2342 C 0.52683 0.57623 0.57598 0.0
C2343 C 0.53943 0.548 0.58547 0.0
C2344 C 0.55299 0.55729 0.59409 0.0
C2345 C 0.5267 0.55749 0.57546 0.0
H2346 H 0.54152 0.59939 0.5843 0.0
H2347 H 0.56311 0.54999 0.60116 0.0
O2348 O 0.60734 0.61481 0.61382 0.0
O2349 O 0.57148 0.59792 0.62511 0.0
O2350 O 0.57717 0.6104 0.5847 0.0
O2351 O 0.59809 0.5777 0.60007 0.0
H2352 H 0.60545 0.62213 0.64831 0.0
H2353 H 0.60765 0.64485 0.59544 0.0
H2354 H 0.60043 0.6526 0.66063 0.0
H2355 H 0.60204 0.67477 0.60858 0.0
H2356 H 0.53689 0.55296 0.64696 0.0
H2357 H 0.53995 0.61321 0.62013 0.0
H2358 H 0.56645 0.56599 0.6397 0.0
H2359 H 0.51084 0.59936 0.6278 0.0
H2360 H 0.54427 0.66118 0.64719 0.0
H2361 H 0.54973 0.67378 0.59107 0.0
H2362 H 0.63991 0.54905 0.65049 0.0
H2363 H 0.59486 0.56455 0.68333 0.0
H2364 H 0.57995 0.57877 0.56879 0.0
H2365 H 0.56961 0.63462 0.55986 0.0
H2366 H 0.5767 0.57341 0.5363 0.0
H2367 H 0.56642 0.62833 0.52753 0.0
H2368 H 0.60496 0.56043 0.56967 0.0
H2369 H 0.5925 0.55343 0.62551 0.0
H2370 H 0.60663 0.52758 0.56651 0.0
H2371 H 0.59486 0.52074 0.62141 0.0
H2372 H 0.65337 0.58082 0.55428 0.0
H2373 H 0.634 0.63358 0.54078 0.0
H2374 H 0.51703 0.58402 0.56871 0.0
H2375 H 0.53988 0.53352 0.58544 0.0
Li2376 Li 0.91829 0.40234 0.1284 0.0
Li2377 Li 0.93194 0.37242 0.11654 0.0
Li2378 Li 0.93506 0.40034 0.10102 0.0
Li2379 Li 0.90635 0.38749 0.10096 0.0
C2380 C 0.96025 0.40118 0.12617 0.0
N2381 N 0.99455 0.4148 0.12639 0.0
C2382 C 0.97412 0.39176 0.11792 0.0
C2383 C 0.96383 0.41745 0.13465 0.0
C2384 C 0.99137 0.3989 0.11815 0.0
C2385 C 0.98126 0.42413 0.13459 0.0
C2386 C 0.90623 0.37017 0.14337 0.0
C2387 C 0.91538 0.34722 0.1641 0.0
N2388 N 0.90947 0.3574 0.17794 0.0
C2389 C 0.89937 0.37998 0.15773 0.0
C2390 C 0.91348 0.3533 0.14652 0.0
C2391 C 0.90149 0.37348 0.17513 0.0
C2392 C 0.89887 0.42979 0.14497 0.0
N2393 N 0.91268 0.4184 0.148 0.0
C2394 C 0.91831 0.43235 0.17631 0.0
C2395 C 0.92222 0.41924 0.16346 0.0
C2396 C 0.90453 0.44484 0.1732 0.0
C2397 C 0.8946 0.44317 0.15731 0.0
H2398 H 0.89166 0.42894 0.13251 0.0
H2399 H 0.93306 0.40993 0.16568 0.0
C2400 C 0.9534 0.34312 0.10573 0.0
N2401 N 0.94755 0.35171 0.12068 0.0
C2402 C 0.96563 0.3291 0.10687 0.0
C2403 C 0.9667 0.33333 0.1388 0.0
C2404 C 0.9544 0.3474 0.13702 0.0
C2405 C 0.97257 0.324 0.12354 0.0
H2406 H 0.94916 0.34751 0.09272 0.0
H2407 H 0.95066 0.35513 0.14865 0.0
C2408 C 0.91475 0.42837 0.09543 0.0
N2409 N 0.92033 0.4594 0.076 0.0
C2410 C 0.91525 0.42788 0.07673 0.0
C2411 C 0.91717 0.44473 0.10422 0.0
C2412 C 0.91808 0.44367 0.06716 0.0
C2413 C 0.91993 0.46024 0.09417 0.0
C2414 C 0.92201 0.36754 0.07673 0.0
C2415 C 0.92036 0.37537 0.05982 0.0
C2416 C 0.91657 0.3498 0.07921 0.0
C2417 C 0.91329 0.36536 0.04572 0.0
C2418 C 0.90966 0.3402 0.06475 0.0
N2419 N 0.90814 0.34813 0.04845 0.0
C2420 C 0.95887 0.40394 0.07243 0.0
C2421 C 0.95742 0.42916 0.09161 0.0
C2422 C 0.96982 0.41318 0.06056 0.0
N2423 N 0.95235 0.4123 0.08717 0.0
C2424 C 0.96821 0.43893 0.08011 0.0
C2425 C 0.97407 0.43111 0.06407 0.0
H2426 H 0.95513 0.39028 0.06961 0.0
H2427 H 0.95242 0.43531 0.10367 0.0
C2428 C 0.87829 0.39935 0.07815 0.0
N2429 N 0.88504 0.38455 0.08627 0.0
C2430 C 0.86439 0.39795 0.06578 0.0
C2431 C 0.86369 0.36614 0.07096 0.0
C2432 C 0.8778 0.36819 0.0831 0.0
C2433 C 0.85684 0.38117 0.06193 0.0
H2434 H 0.8835 0.41237 0.08138 0.0
H2435 H 0.88335 0.35665 0.0896 0.0
O2436 O 0.94322 0.39459 0.12579 0.0
O2437 O 0.90625 0.37714 0.12641 0.0
O2438 O 0.91203 0.41295 0.10504 0.0
O2439 O 0.92874 0.37722 0.09079 0.0
H2440 H 0.97155 0.37921 0.11119 0.0
H2441 H 0.95322 0.42499 0.14094 0.0
H2442 H 1.00221 0.39182 0.11171 0.0
H2443 H 0.98421 0.43677 0.14098 0.0
H2444 H 0.92149 0.33437 0.1667 0.0
H2445 H 0.89253 0.39248 0.15552 0.0
H2446 H 0.91763 0.34499 0.13548 0.0
H2447 H 0.89686 0.38124 0.18642 0.0
H2448 H 0.9261 0.43274 0.18849 0.0
H2449 H 0.88404 0.45249 0.15405 0.0
H2450 H 0.9697 0.32242 0.09468 0.0
H2451 H 0.97206 0.33026 0.1519 0.0
H2452 H 0.91357 0.4154 0.06966 0.0
H2453 H 0.91735 0.44547 0.11862 0.0
H2454 H 0.91854 0.44341 0.0527 0.0
H2455 H 0.92189 0.47294 0.10082 0.0
H2456 H 0.92451 0.38902 0.05755 0.0
H2457 H 0.91728 0.34362 0.09228 0.0
H2458 H 0.9119 0.37129 0.03259 0.0
H2459 H 0.90532 0.32652 0.06654 0.0
H2460 H 0.9744 0.40658 0.0485 0.0
H2461 H 0.97103 0.45278 0.08329 0.0
H2462 H 0.85928 0.41007 0.05973 0.0
H2463 H 0.85854 0.35286 0.0684 0.0
Li2464 Li 0.68253 0.65705 0.65932 0.0
Li2465 Li 0.65473 0.66591 0.64573 0.0
Li2466 Li 0.65983 0.63394 0.6572 0.0
Li2467 Li 0.67663 0.64675 0.63064 0.0
C2468 C 0.65935 0.66079 0.68852 0.0
N2469 N 0.66004 0.66847 0.72473 0.0
C2470 C 0.6576 0.67844 0.69447 0.0
C2471 C 0.66129 0.64704 0.70107 0.0
C2472 C 0.65805 0.68205 0.7128 0.0
C2473 C 0.66163 0.65119 0.71928 0.0
C2474 C 0.67987 0.69024 0.63884 0.0
C2475 C 0.6791 0.71935 0.62488 0.0
N2476 N 0.68039 0.72717 0.64125 0.0
C2477 C 0.68109 0.69861 0.65552 0.0
C2478 C 0.67879 0.70073 0.62339 0.0
C2479 C 0.68139 0.71726 0.65647 0.0
C2480 C 0.71615 0.67139 0.66184 0.0
N2481 N 0.70305 0.66417 0.67215 0.0
C2482 C 0.7208 0.66751 0.69833 0.0
C2483 C 0.70532 0.66156 0.68997 0.0
C2484 C 0.7341 0.67601 0.68816 0.0
C2485 C 0.7319 0.67743 0.6696 0.0
H2486 H 0.71424 0.67264 0.64756 0.0
H2487 H 0.69518 0.65502 0.69776 0.0
C2488 C 0.62616 0.68761 0.6582 0.0
N2489 N 0.6366 0.68418 0.64369 0.0
C2490 C 0.61182 0.69955 0.65698 0.0
C2491 C 0.6194 0.70463 0.626 0.0
C2492 C 0.63371 0.69268 0.62786 0.0
C2493 C 0.60799 0.70789 0.64059 0.0
H2494 H 0.62835 0.68038 0.6705 0.0
H2495 H 0.64207 0.68967 0.61646 0.0
C2496 C 0.70074 0.62677 0.65833 0.0
N2497 N 0.73254 0.61698 0.67432 0.0
C2498 C 0.7169 0.62913 0.64927 0.0
C2499 C 0.70074 0.61935 0.67549 0.0
C2500 C 0.73284 0.62413 0.65759 0.0
C2501 C 0.71696 0.6145 0.68335 0.0
C2502 C 0.65003 0.63429 0.6173 0.0
C2503 C 0.65247 0.61581 0.61621 0.0
C2504 C 0.65023 0.64472 0.60181 0.0
C2505 C 0.65588 0.60811 0.59958 0.0
C2506 C 0.65377 0.63653 0.58545 0.0
N2507 N 0.65673 0.6186 0.58474 0.0
C2508 C 0.63471 0.61704 0.68003 0.0
C2509 C 0.65808 0.59816 0.6701 0.0
C2510 C 0.62938 0.60433 0.69271 0.0
N2511 N 0.64927 0.61403 0.66956 0.0
C2512 C 0.65314 0.58504 0.68249 0.0
C2513 C 0.63901 0.58825 0.69453 0.0
H2514 H 0.62803 0.62986 0.67945 0.0
H2515 H 0.66959 0.59607 0.6616 0.0
C2516 C 0.69425 0.655 0.59773 0.0
N2517 N 0.68978 0.64126 0.60878 0.0
C2518 C 0.70535 0.65216 0.58294 0.0
C2519 C 0.70685 0.62091 0.59077 0.0
C2520 C 0.69592 0.62443 0.60559 0.0
C2521 C 0.71202 0.63494 0.57928 0.0
H2522 H 0.68957 0.66831 0.60067 0.0
H2523 H 0.69257 0.61374 0.61475 0.0
O2524 O 0.6585 0.65692 0.67061 0.0
O2525 O 0.67905 0.67195 0.63761 0.0
O2526 O 0.68503 0.63197 0.65056 0.0
O2527 O 0.64932 0.64235 0.63359 0.0
H2528 H 0.65579 0.68929 0.68509 0.0
H2529 H 0.66295 0.63334 0.69685 0.0
H2530 H 0.65675 0.69566 0.71755 0.0
H2531 H 0.66326 0.64067 0.72909 0.0
H2532 H 0.67821 0.7276 0.61302 0.0
H2533 H 0.68176 0.69084 0.66764 0.0
H2534 H 0.6774 0.69462 0.61037 0.0
H2535 H 0.68235 0.72385 0.66931 0.0
H2536 H 0.72189 0.66627 0.71272 0.0
H2537 H 0.74197 0.68369 0.66128 0.0
H2538 H 0.60328 0.70151 0.66851 0.0
H2539 H 0.61701 0.7109 0.61317 0.0
H2540 H 0.71718 0.63505 0.63607 0.0
H2541 H 0.6884 0.6176 0.68279 0.0
H2542 H 0.74546 0.626 0.65079 0.0
H2543 H 0.71717 0.60885 0.69667 0.0
H2544 H 0.65243 0.60764 0.62817 0.0
H2545 H 0.64849 0.65907 0.60256 0.0
H2546 H 0.65825 0.59388 0.5985 0.0
H2547 H 0.65452 0.64447 0.57339 0.0
H2548 H 0.61846 0.60758 0.70162 0.0
H2549 H 0.66069 0.57272 0.6829 0.0
H2550 H 0.70914 0.66357 0.57488 0.0
H2551 H 0.71132 0.60734 0.58852 0.0
Li2552 Li 0.4064 0.3998 0.41296 0.0
Li2553 Li 0.42877 0.38384 0.39535 0.0
Li2554 Li 0.43629 0.41239 0.40802 0.0
Li2555 Li 0.41624 0.41061 0.38274 0.0
C2556 C 0.43103 0.39285 0.43912 0.0
N2557 N 0.43368 0.39816 0.47561 0.0
C2558 C 0.43773 0.37932 0.45013 0.0
C2559 C 0.42572 0.40912 0.44669 0.0
C2560 C 0.43896 0.38226 0.46854 0.0
C2561 C 0.42715 0.41153 0.46516 0.0
C2562 C 0.40237 0.37148 0.38219 0.0
C2563 C 0.41005 0.35114 0.35852 0.0
N2564 N 0.40858 0.33729 0.37022 0.0
C2565 C 0.40027 0.35701 0.39381 0.0
C2566 C 0.40672 0.36854 0.36428 0.0
C2567 C 0.40342 0.33978 0.38747 0.0
C2568 C 0.37635 0.41183 0.43485 0.0
N2569 N 0.38744 0.39786 0.43112 0.0
C2570 C 0.37218 0.37989 0.45302 0.0
C2571 C 0.38587 0.38224 0.44036 0.0
C2572 C 0.35979 0.39372 0.45621 0.0
C2573 C 0.36234 0.40997 0.44708 0.0
H2574 H 0.37798 0.42444 0.42822 0.0
H2575 H 0.39514 0.37145 0.43778 0.0
C2576 C 0.45069 0.35907 0.3759 0.0
N2577 N 0.44097 0.36112 0.39113 0.0
C2578 C 0.46136 0.34391 0.37335 0.0
C2579 C 0.45169 0.3329 0.40208 0.0
C2580 C 0.4414 0.34843 0.40419 0.0
C2581 C 0.46218 0.33055 0.38661 0.0
H2582 H 0.45059 0.36945 0.36588 0.0
H2583 H 0.43379 0.35041 0.41633 0.0
C2584 C 0.39955 0.43648 0.40357 0.0
N2585 N 0.37199 0.46071 0.39935 0.0
C2586 C 0.38422 0.43171 0.39398 0.0
C2587 C 0.40084 0.45358 0.41101 0.0
C2588 C 0.37046 0.44415 0.39196 0.0
C2589 C 0.38674 0.46562 0.40876 0.0
C2590 C 0.44909 0.41118 0.36913 0.0
C2591 C 0.46087 0.4256 0.37074 0.0
C2592 C 0.44467 0.40478 0.35212 0.0
C2593 C 0.46776 0.43358 0.3553 0.0
C2594 C 0.4518 0.41314 0.33701 0.0
N2595 N 0.46309 0.42726 0.3389 0.0
C2596 C 0.46863 0.41589 0.42536 0.0
C2597 C 0.45415 0.44321 0.4181 0.0
C2598 C 0.48226 0.42504 0.43408 0.0
N2599 N 0.4548 0.42511 0.41809 0.0
C2600 C 0.46748 0.45291 0.42662 0.0
C2601 C 0.48149 0.44376 0.43515 0.0
H2602 H 0.46874 0.40143 0.42482 0.0
H2603 H 0.44307 0.45003 0.41183 0.0
C2604 C 0.3976 0.42131 0.34976 0.0
N2605 N 0.40994 0.4255 0.36245 0.0
C2606 C 0.39359 0.43358 0.33613 0.0
C2607 C 0.415 0.45407 0.34882 0.0
C2608 C 0.41836 0.44163 0.36232 0.0
C2609 C 0.40248 0.45015 0.33541 0.0
H2610 H 0.39072 0.40859 0.35033 0.0
H2611 H 0.42767 0.44491 0.37288 0.0
O2612 O 0.42971 0.39008 0.42107 0.0
O2613 O 0.40224 0.38844 0.38877 0.0
O2614 O 0.41346 0.42471 0.40513 0.0
O2615 O 0.4419 0.40342 0.38409 0.0
H2616 H 0.44195 0.36667 0.4445 0.0
H2617 H 0.42052 0.41979 0.43845 0.0
H2618 H 0.4441 0.37188 0.47721 0.0
H2619 H 0.42307 0.42404 0.47118 0.0
H2620 H 0.41404 0.34865 0.34484 0.0
H2621 H 0.39703 0.35915 0.40774 0.0
H2622 H 0.40819 0.37964 0.35514 0.0
H2623 H 0.40234 0.32844 0.39638 0.0
H2624 H 0.37127 0.36727 0.46005 0.0
H2625 H 0.35328 0.42111 0.44883 0.0
H2626 H 0.46943 0.34311 0.36136 0.0
H2627 H 0.45155 0.32297 0.41261 0.0
H2628 H 0.38296 0.41853 0.38815 0.0
H2629 H 0.41256 0.45751 0.4185 0.0
H2630 H 0.35856 0.44065 0.38453 0.0
H2631 H 0.38755 0.47889 0.41447 0.0
H2632 H 0.46464 0.43067 0.38372 0.0
H2633 H 0.43562 0.39365 0.35056 0.0
H2634 H 0.4768 0.44482 0.35637 0.0
H2635 H 0.44833 0.40842 0.32378 0.0
H2636 H 0.49289 0.41758 0.44049 0.0
H2637 H 0.46626 0.46732 0.42741 0.0
H2638 H 0.38377 0.43013 0.32619 0.0
H2639 H 0.42189 0.4668 0.34909 0.0
Li2640 Li 0.10593 0.60645 0.91523 0.0
Li2641 Li 0.08117 0.61932 0.8962 0.0
Li2642 Li 0.07615 0.5934 0.91309 0.0
Li2643 Li 0.09501 0.59014 0.88663 0.0
C2644 C 0.07243 0.62047 0.93638 0.0
N2645 N 0.05011 0.6261 0.96526 0.0
C2646 C 0.05459 0.62526 0.93363 0.0
C2647 C 0.07896 0.61865 0.9538 0.0
C2648 C 0.04351 0.62801 0.94841 0.0
C2649 C 0.06745 0.62153 0.96823 0.0
C2650 C 0.10575 0.62577 0.87437 0.0
C2651 C 0.09692 0.63041 0.84369 0.0
N2652 N 0.09474 0.64812 0.84708 0.0
C2653 C 0.10453 0.64415 0.87727 0.0
C2654 C 0.1025 0.61895 0.85729 0.0
C2655 C 0.09834 0.65512 0.86346 0.0
C2656 C 0.13749 0.59614 0.93376 0.0
N2657 N 0.12569 0.60981 0.93171 0.0
C2658 C 0.14155 0.6271 0.95363 0.0
C2659 C 0.12731 0.62503 0.94158 0.0
C2660 C 0.15447 0.61346 0.95549 0.0
C2661 C 0.15201 0.5977 0.94545 0.0
H2662 H 0.13609 0.58421 0.92571 0.0
H2663 H 0.11756 0.6356 0.94006 0.0
C2664 C 0.05642 0.64089 0.87612 0.0
N2665 N 0.06814 0.64114 0.89 0.0
C2666 C 0.04521 0.65554 0.87285 0.0
C2667 C 0.05885 0.6709 0.8977 0.0
C2668 C 0.06959 0.65583 0.90067 0.0
C2669 C 0.04608 0.67087 0.88383 0.0
H2670 H 0.05544 0.62912 0.86784 0.0
H2671 H 0.0789 0.65573 0.91173 0.0
C2672 C 0.10155 0.56547 0.9207 0.0
N2673 N 0.10673 0.53412 0.93972 0.0
C2674 C 0.10011 0.54887 0.91217 0.0
C2675 C 0.10596 0.56604 0.93887 0.0
C2676 C 0.10268 0.5332 0.92201 0.0
C2677 C 0.10842 0.55008 0.94827 0.0
C2678 C 0.05934 0.58363 0.88026 0.0
C2679 C 0.06127 0.56611 0.88646 0.0
C2680 C 0.04752 0.58713 0.86621 0.0
C2681 C 0.05155 0.55236 0.87842 0.0
C2682 C 0.03802 0.57301 0.85849 0.0
N2683 N 0.04023 0.55606 0.86469 0.0
C2684 C 0.04101 0.58181 0.92161 0.0
C2685 C 0.06272 0.57801 0.94434 0.0
C2686 C 0.02798 0.57384 0.93227 0.0
N2687 N 0.05816 0.58301 0.92752 0.0
C2688 C 0.05018 0.57015 0.95549 0.0
C2689 C 0.03267 0.56763 0.94932 0.0
H2690 H 0.03739 0.58696 0.90862 0.0
H2691 H 0.07602 0.58031 0.94922 0.0
C2692 C 0.11735 0.5632 0.87061 0.0
N2693 N 0.10243 0.57326 0.8679 0.0
C2694 C 0.12213 0.5497 0.85847 0.0
C2695 C 0.0967 0.55772 0.84039 0.0
C2696 C 0.09237 0.57096 0.85289 0.0
C2697 C 0.11156 0.54653 0.84321 0.0
H2698 H 0.12527 0.56528 0.88254 0.0
H2699 H 0.08092 0.57941 0.85055 0.0
O2700 O 0.08341 0.61737 0.92209 0.0
O2701 O 0.10757 0.61434 0.88854 0.0
O2702 O 0.09956 0.58103 0.91114 0.0
O2703 O 0.06901 0.59727 0.88776 0.0
H2704 H 0.0493 0.62657 0.92023 0.0
H2705 H 0.09268 0.61478 0.95616 0.0
H2706 H 0.02965 0.63161 0.94649 0.0
H2707 H 0.07228 0.62006 0.98178 0.0
H2708 H 0.09403 0.62517 0.83052 0.0
H2709 H 0.10695 0.64969 0.89044 0.0
H2710 H 0.10377 0.60489 0.85464 0.0
H2711 H 0.09562 0.66902 0.866 0.0
H2712 H 0.14238 0.63932 0.96134 0.0
H2713 H 0.16158 0.58688 0.94591 0.0
H2714 H 0.03551 0.65446 0.86218 0.0
H2715 H 0.06046 0.68235 0.90639 0.0
H2716 H 0.09709 0.54801 0.89806 0.0
H2717 H 0.10728 0.57869 0.94575 0.0
H2718 H 0.10151 0.52031 0.91556 0.0
H2719 H 0.11169 0.55039 0.96236 0.0
H2720 H 0.06994 0.56325 0.89758 0.0
H2721 H 0.04579 0.60055 0.86116 0.0
H2722 H 0.05295 0.53875 0.88314 0.0
H2723 H 0.02892 0.57553 0.84754 0.0
H2724 H 0.0145 0.57237 0.92722 0.0
H2725 H 0.05436 0.56552 0.96856 0.0
H2726 H 0.13369 0.54149 0.86133 0.0
H2727 H 0.08844 0.55631 0.82859 0.0
Li2728 Li 0.32893 0.35988 0.36739 0.0
Li2729 Li 0.35191 0.34157 0.35245 0.0
Li2730 Li 0.3435 0.37279 0.33971 0.0
Li2731 Li 0.32297 0.3476 0.33947 0.0
C2732 C 0.35568 0.37361 0.37982 0.0
N2733 N 0.35038 0.38729 0.41359 0.0
C2734 C 0.35786 0.36266 0.39477 0.0
C2735 C 0.35133 0.39165 0.38199 0.0
C2736 C 0.35507 0.36982 0.41175 0.0
C2737 C 0.34868 0.39832 0.39923 0.0
C2738 C 0.32728 0.31608 0.36059 0.0
C2739 C 0.32959 0.2889 0.34335 0.0
N2740 N 0.32567 0.27921 0.35823 0.0
C2741 C 0.32318 0.30585 0.3757 0.0
C2742 C 0.33045 0.30753 0.34429 0.0
C2743 C 0.32247 0.28723 0.37424 0.0
C2744 C 0.30608 0.37961 0.39145 0.0
N2745 N 0.31662 0.36487 0.38991 0.0
C2746 C 0.30667 0.35441 0.41858 0.0
C2747 C 0.31708 0.35239 0.40314 0.0
C2748 C 0.29494 0.36906 0.42027 0.0
C2749 C 0.29503 0.38191 0.40643 0.0
H2750 H 0.30568 0.38925 0.38067 0.0
H2751 H 0.32552 0.34076 0.40169 0.0
C2752 C 0.38275 0.32209 0.34098 0.0
N2753 N 0.37082 0.324 0.35459 0.0
C2754 C 0.39682 0.30978 0.34229 0.0
C2755 C 0.38576 0.30111 0.37136 0.0
C2756 C 0.37189 0.31356 0.36946 0.0
C2757 C 0.3988 0.2994 0.35788 0.0
H2758 H 0.38178 0.33062 0.32936 0.0
H2759 H 0.36219 0.31516 0.38006 0.0
C2760 C 0.30175 0.37517 0.33954 0.0
N2761 N 0.26853 0.37914 0.32394 0.0
C2762 C 0.30024 0.38236 0.32235 0.0
C2763 C 0.28636 0.37007 0.34883 0.0
C2764 C 0.28333 0.38425 0.31469 0.0
C2765 C 0.26969 0.37217 0.3407 0.0
C2766 C 0.34699 0.34568 0.30948 0.0
C2767 C 0.34238 0.35893 0.2971 0.0
C2768 C 0.35276 0.32899 0.30327 0.0
C2769 C 0.3434 0.35522 0.27882 0.0
C2770 C 0.35357 0.32579 0.28488 0.0
N2771 N 0.34892 0.33886 0.27313 0.0
C2772 C 0.36633 0.3913 0.3153 0.0
C2773 C 0.34161 0.40827 0.3254 0.0
C2774 C 0.37048 0.40436 0.3025 0.0
N2775 N 0.35179 0.39321 0.32607 0.0
C2776 C 0.34536 0.42174 0.31291 0.0
C2777 C 0.35972 0.41973 0.3009 0.0
H2778 H 0.37414 0.37914 0.31595 0.0
H2779 H 0.33011 0.4095 0.33407 0.0
C2780 C 0.29171 0.32784 0.33749 0.0
N2781 N 0.30355 0.337 0.32716 0.0
C2782 C 0.27814 0.3179 0.32959 0.0
C2783 C 0.28814 0.32846 0.30068 0.0
C2784 C 0.3015 0.33817 0.30917 0.0
C2785 C 0.27672 0.31761 0.3109 0.0
H2786 H 0.29315 0.32781 0.35187 0.0
H2787 H 0.31042 0.34621 0.30131 0.0
O2788 O 0.35577 0.36621 0.36319 0.0
O2789 O 0.3283 0.33434 0.36188 0.0
O2790 O 0.31823 0.3728 0.34711 0.0
O2791 O 0.3466 0.34927 0.32748 0.0
H2792 H 0.36088 0.34859 0.39321 0.0
H2793 H 0.34941 0.40021 0.37047 0.0
H2794 H 0.35612 0.36134 0.42342 0.0
H2795 H 0.34496 0.41215 0.4012 0.0
H2796 H 0.33201 0.28215 0.33078 0.0
H2797 H 0.32063 0.31219 0.38844 0.0
H2798 H 0.33334 0.31522 0.33246 0.0
H2799 H 0.31937 0.27916 0.38584 0.0
H2800 H 0.3077 0.34435 0.42892 0.0
H2801 H 0.28615 0.39331 0.40669 0.0
H2802 H 0.40656 0.30917 0.33161 0.0
H2803 H 0.38645 0.29318 0.38345 0.0
H2804 H 0.31199 0.38626 0.31491 0.0
H2805 H 0.28728 0.36423 0.36203 0.0
H2806 H 0.28197 0.38971 0.30136 0.0
H2807 H 0.25768 0.36815 0.34768 0.0
H2808 H 0.33763 0.37183 0.3015 0.0
H2809 H 0.35667 0.31857 0.31249 0.0
H2810 H 0.33973 0.36534 0.26915 0.0
H2811 H 0.35797 0.31292 0.27995 0.0
H2812 H 0.38164 0.40213 0.29357 0.0
H2813 H 0.33693 0.4335 0.31252 0.0
H2814 H 0.26937 0.30994 0.33792 0.0
H2815 H 0.28752 0.32858 0.28621 0.0
C2816 C 0.02582 0.05724 0.03709 0.0
C2817 C 0.02324 0.0532 0.05527 0.0
C2818 C 0.02092 0.04502 0.02397 0.0
C2819 C 0.01701 0.9972 0.01805 0.0
H2820 H 0.99421 0.00962 0.97318 0.0
C2821 C 0.98827 0.94656 0.96836 0.0
C2822 C 0.98831 0.95099 0.95012 0.0
C2823 C 0.99562 0.95824 0.98083 0.0
C2824 C 1.00094 0.00605 0.9855 0.0
H2825 H 0.01221 0.03388 0.0739 0.0
H2826 H 0.00379 0.01234 0.05081 0.0
H2827 H 0.99792 0.03242 0.99616 0.0
H2828 H 0.99776 0.96993 0.93031 0.0
H2829 H 0.01079 0.99039 0.9522 0.0
H2830 H 0.01997 0.97081 0.00741 0.0
C2831 C 0.00983 0.02489 0.04685 0.0
C2832 C 1.00287 0.01904 0.99868 0.0
C2833 C 0.01461 0.0372 0.06001 0.0
C2834 C 0.99732 0.96641 0.94436 0.0
C2835 C 0.00471 0.97809 0.95684 0.0
C2836 C 0.01514 0.98422 0.00483 0.0
C2837 C 0.01347 0.02852 0.02879 0.0
C2838 C 0.0108 0.01467 0.01509 0.0
C2839 C 1.00313 0.97449 0.97521 0.0
C2840 C 0.00699 0.98851 0.98849 0.0
H2841 H 0.03271 0.0693 0.03299 0.0
H2842 H 0.02396 0.04805 0.01012 0.0
H2843 H 0.02352 0.99365 0.0305 0.0
H2844 H 0.98125 0.93483 0.97318 0.0
H2845 H 0.99412 0.95517 0.99491 0.0
C2846 C 0.25953 0.69069 0.22092 0.0
C2847 C 0.26697 0.69544 0.20434 0.0
C2848 C 0.25245 0.70384 0.23206 0.0
C2849 C 0.24081 0.75184 0.23514 0.0
H2850 H 0.2654 0.74884 0.28077 0.0
C2851 C 0.24603 0.81273 0.28024 0.0
C2852 C 0.2393 0.80969 0.2975 0.0
C2853 C 0.25059 0.79832 0.26935 0.0
C2854 C 0.25841 0.74979 0.26812 0.0
H2855 H 0.27104 0.71724 0.18556 0.0
H2856 H 0.25858 0.74 0.20485 0.0
H2857 H 0.26624 0.72348 0.26031 0.0
H2858 H 0.23371 0.78936 0.31752 0.0
H2859 H 0.24201 0.76437 0.29865 0.0
H2860 H 0.23325 0.77829 0.24287 0.0
C2861 C 0.25818 0.72621 0.20931 0.0
C2862 C 0.25868 0.73524 0.25652 0.0
C2863 C 0.2653 0.71312 0.19821 0.0
C2864 C 0.23904 0.79218 0.30435 0.0
C2865 C 0.24369 0.77782 0.2935 0.0
C2866 C 0.24058 0.76641 0.24673 0.0
C2867 C 0.25265 0.72182 0.22669 0.0
C2868 C 0.25003 0.73621 0.23986 0.0
C2869 C 0.2486 0.78075 0.27565 0.0
C2870 C 0.24955 0.76555 0.26321 0.0
H2871 H 0.26034 0.67707 0.22577 0.0
H2872 H 0.24789 0.70012 0.24531 0.0
H2873 H 0.23399 0.75287 0.22241 0.0
H2874 H 0.24662 0.82613 0.27477 0.0
H2875 H 0.25475 0.80086 0.2557 0.0
C2876 C 0.50841 0.95942 0.57279 0.0
C2877 C 0.4993 0.94589 0.56352 0.0
C2878 C 0.52076 0.97014 0.56387 0.0
C2879 C 0.54179 0.97802 0.51926 0.0
H2880 H 0.52326 0.02596 0.52643 0.0
C2881 C 0.53232 0.02738 0.46211 0.0
C2882 C 0.53823 0.04501 0.46465 0.0
C2883 C 0.53203 0.01545 0.4764 0.0
C2884 C 0.52886 0.01274 0.52446 0.0
H2885 H 0.49724 0.93155 0.5384 0.0
H2886 H 0.51838 0.95037 0.52274 0.0
H2887 H 0.51794 0.00324 0.54896 0.0
H2888 H 0.54804 0.06413 0.48421 0.0
H2889 H 0.5469 0.04337 0.50931 0.0
H2890 H 0.55152 0.98742 0.49403 0.0
C2891 C 0.51634 0.95268 0.53689 0.0
C2892 C 0.52598 0.99973 0.53744 0.0
C2893 C 0.50411 0.94191 0.54584 0.0
C2894 C 0.54309 0.05072 0.4819 0.0
C2895 C 0.54266 0.03882 0.49622 0.0
C2896 C 0.54452 0.99102 0.5062 0.0
C2897 C 0.52396 0.96754 0.54553 0.0
C2898 C 0.53171 0.98203 0.53459 0.0
C2899 C 0.53754 0.02101 0.49347 0.0
C2900 C 0.53741 0.00825 0.50842 0.0
H2901 H 0.50514 0.96243 0.58658 0.0
H2902 H 0.52674 0.98128 0.57093 0.0
H2903 H 0.54659 0.96456 0.51686 0.0
H2904 H 0.52833 0.0227 0.44899 0.0
H2905 H 0.52757 0.00186 0.4741 0.0
C2906 C 0.25921 0.20807 0.81596 0.0
C2907 C 0.2597 0.19038 0.80963 0.0
C2908 C 0.25179 0.22155 0.80553 0.0
C2909 C 0.22632 0.23173 0.76465 0.0
H2910 H 0.26268 0.26822 0.75825 0.0
C2911 C 0.22534 0.27875 0.70451 0.0
C2912 C 0.22841 0.29696 0.70797 0.0
C2913 C 0.22885 0.26598 0.71756 0.0
C2914 C 0.25229 0.2583 0.76005 0.0
H2915 H 0.25091 0.17254 0.78853 0.0
H2916 H 0.2382 0.19624 0.77007 0.0
H2917 H 0.26629 0.24582 0.78154 0.0
H2918 H 0.23865 0.31598 0.72734 0.0
H2919 H 0.2444 0.29366 0.75037 0.0
H2920 H 0.2124 0.24416 0.74302 0.0
C2921 C 0.24356 0.19965 0.78308 0.0
C2922 C 0.2543 0.24553 0.77343 0.0
C2923 C 0.25096 0.18613 0.79356 0.0
C2924 C 0.23597 0.30205 0.72439 0.0
C2925 C 0.23936 0.28927 0.73751 0.0
C2926 C 0.22425 0.24459 0.75132 0.0
C2927 C 0.24479 0.21756 0.7886 0.0
C2928 C 0.24142 0.23206 0.77573 0.0
C2929 C 0.23536 0.27118 0.73437 0.0
C2930 C 0.23734 0.25785 0.74877 0.0
H2931 H 0.26591 0.21182 0.82825 0.0
H2932 H 0.25261 0.23526 0.81016 0.0
H2933 H 0.21621 0.22148 0.76623 0.0
H2934 H 0.21932 0.2744 0.69208 0.0
H2935 H 0.22603 0.25207 0.71465 0.0
C2936 C 0.01499 0.95147 0.45714 0.0
C2937 C 0.01684 0.95688 0.43923 0.0
C2938 C 0.00884 0.96342 0.46995 0.0
C2939 C 0.01108 0.01085 0.47854 0.0
H2940 H 0.98385 0.99817 0.5208 0.0
C2941 C 0.99087 0.05858 0.53593 0.0
C2942 C 0.9906 0.05124 0.55325 0.0
C2943 C 0.99583 0.04807 0.52139 0.0
C2944 C 0.99167 0.00177 0.50915 0.0
H2945 H 0.01187 0.97837 0.42038 0.0
H2946 H 1.00122 0.99944 0.44301 0.0
H2947 H 0.98458 0.97773 0.49544 0.0
H2948 H 0.99744 0.02807 0.56927 0.0
H2949 H 0.00612 0.00964 0.54373 0.0
H2950 H 0.01816 0.03493 0.49236 0.0
C2951 C 0.00483 0.986 0.44705 0.0
C2952 C 0.99192 0.99019 0.49461 0.0
C2953 C 0.01088 0.97397 0.43414 0.0
C2954 C 0.99725 0.03391 0.556 0.0
C2955 C 1.00214 0.02339 0.54144 0.0
C2956 C 0.01074 0.02251 0.49308 0.0
C2957 C 0.00449 0.98102 0.46515 0.0
C2958 C 1.00188 0.99447 0.4793 0.0
C2959 C 1.00052 0.03011 0.52399 0.0
C2960 C 1.0013 0.01788 0.50861 0.0
H2961 H 0.0197 0.93854 0.46162 0.0
H2962 H 0.00888 0.95926 0.48383 0.0
H2963 H 0.01911 0.01432 0.46699 0.0
H2964 H 0.98567 0.07185 0.53337 0.0
H2965 H 0.9945 0.05354 0.50803 0.0
C2966 C 0.25149 0.81597 0.71119 0.0
C2967 C 0.25992 0.81033 0.69539 0.0
C2968 C 0.24356 0.80345 0.72247 0.0
C2969 C 0.23229 0.75553 0.72788 0.0
H2970 H 0.25637 0.76137 0.77351 0.0
C2971 C 0.23867 0.69739 0.7768 0.0
C2972 C 0.23245 0.70135 0.79407 0.0
C2973 C 0.24239 0.71117 0.76483 0.0
C2974 C 0.24948 0.75964 0.76088 0.0
H2975 H 0.26461 0.78768 0.67781 0.0
H2976 H 0.25072 0.76599 0.69736 0.0
H2977 H 0.25705 0.78557 0.75176 0.0
H2978 H 0.22655 0.72278 0.81281 0.0
H2979 H 0.23338 0.74669 0.79208 0.0
H2980 H 0.22501 0.72942 0.73696 0.0
C2981 C 0.25023 0.77998 0.70112 0.0
C2982 C 0.24966 0.77354 0.74853 0.0
C2983 C 0.25818 0.79245 0.68988 0.0
C2984 C 0.23156 0.71926 0.79968 0.0
C2985 C 0.23536 0.733 0.78776 0.0
C2986 C 0.23211 0.74162 0.74025 0.0
C2987 C 0.24394 0.78522 0.718 0.0
C2988 C 0.2412 0.77155 0.73187 0.0
C2989 C 0.24005 0.72905 0.77005 0.0
C2990 C 0.24085 0.74352 0.75677 0.0
H2991 H 0.25233 0.82978 0.71552 0.0
H2992 H 0.23841 0.80782 0.7353 0.0
H2993 H 0.2257 0.75371 0.71511 0.0
H2994 H 0.23972 0.68367 0.77225 0.0
H2995 H 0.24639 0.70786 0.7513 0.0
C2996 C 0.49492 0.02695 0.93103 0.0
C2997 C 0.48857 0.04391 0.93611 0.0
C2998 C 0.49881 0.01414 0.94401 0.0
C2999 C 0.48477 0.00294 0.98936 0.0
H3000 H 0.52514 0.97051 0.98924 0.0
C3001 C 0.51036 0.96506 0.05053 0.0
C3002 C 0.51852 0.94839 0.04788 0.0
C3003 C 0.50328 0.97437 0.03605 0.0
C3004 C 0.51357 0.97922 0.98921 0.0
H3005 H 0.48283 0.06118 0.95881 0.0
H3006 H 0.4904 0.03914 0.98126 0.0
H3007 H 0.52219 0.99254 0.96539 0.0
H3008 H 0.52422 0.92758 0.02841 0.0
H3009 H 0.51148 0.94371 0.00323 0.0
H3010 H 0.4764 0.98993 0.01343 0.0
C3011 C 0.4918 0.03559 0.96728 0.0
C3012 C 0.51198 0.99187 0.97565 0.0
C3013 C 0.48781 0.04833 0.95437 0.0
C3014 C 0.51793 0.94039 0.03087 0.0
C3015 C 0.51083 0.94968 0.01642 0.0
C3016 C 0.48636 0.9903 0.00292 0.0
C3017 C 0.49651 0.01818 0.96219 0.0
C3018 C 0.49779 0.00408 0.97586 0.0
C3019 C 0.50426 0.96708 0.01876 0.0
C3020 C 0.50095 0.97857 0.00313 0.0
H3021 H 0.4959 0.02328 0.91706 0.0
H3022 H 0.50258 0.0008 0.93978 0.0
H3023 H 0.47344 0.01195 0.98954 0.0
H3024 H 0.51047 0.97138 0.06357 0.0
H3025 H 0.49831 0.98781 0.0382 0.0
C3026 C 0.25681 0.30817 0.28585 0.0
C3027 C 0.2656 0.30408 0.30191 0.0
C3028 C 0.25051 0.29446 0.27492 0.0
C3029 C 0.24246 0.24582 0.27187 0.0
H3030 H 0.26147 0.25187 0.22394 0.0
C3031 C 0.24455 0.18784 0.22175 0.0
C3032 C 0.23678 0.19193 0.20514 0.0
C3033 C 0.24899 0.20151 0.23364 0.0
C3034 C 0.25603 0.25005 0.23725 0.0
H3035 H 0.27326 0.28266 0.31997 0.0
H3036 H 0.26216 0.25882 0.30098 0.0
H3037 H 0.26368 0.27633 0.24533 0.0
H3038 H 0.22838 0.21358 0.18765 0.0
H3039 H 0.23646 0.23726 0.20817 0.0
H3040 H 0.23491 0.21945 0.26374 0.0
C3041 C 0.26007 0.27255 0.29682 0.0
C3042 C 0.25712 0.26407 0.24942 0.0
C3043 C 0.26639 0.28623 0.30773 0.0
C3044 C 0.23465 0.20994 0.20018 0.0
C3045 C 0.23918 0.22355 0.21199 0.0
C3046 C 0.24137 0.23177 0.25967 0.0
C3047 C 0.25291 0.27653 0.27995 0.0
C3048 C 0.25031 0.26209 0.26682 0.0
C3049 C 0.24584 0.21943 0.22901 0.0
C3050 C 0.24813 0.2338 0.24226 0.0
H3051 H 0.2558 0.32186 0.28124 0.0
H3052 H 0.24466 0.29784 0.2621 0.0
H3053 H 0.23713 0.24399 0.28522 0.0
H3054 H 0.24657 0.17408 0.22581 0.0
H3055 H 0.25441 0.19806 0.24663 0.0
C3056 C 0.49469 0.533 0.05009 0.0
C3057 C 0.48729 0.5498 0.04621 0.0
C3058 C 0.49989 0.52169 0.03625 0.0
C3059 C 0.48604 0.51264 0.99081 0.0
H3060 H 0.52559 0.47921 0.99093 0.0
C3061 C 0.50509 0.46572 0.9326 0.0
C3062 C 0.51287 0.44925 0.9372 0.0
C3063 C 0.49981 0.47761 0.94594 0.0
C3064 C 0.51432 0.4883 0.99091 0.0
H3065 H 0.4811 0.5687 0.02504 0.0
H3066 H 0.49067 0.54909 0.00091 0.0
H3067 H 0.52419 0.50249 0.01369 0.0
H3068 H 0.51918 0.43142 0.95929 0.0
H3069 H 0.50926 0.45184 0.9824 0.0
H3070 H 0.47613 0.49838 0.96805 0.0
C3071 C 0.49207 0.54455 0.0146 0.0
C3072 C 0.51364 0.50169 0.0038 0.0
C3073 C 0.48684 0.55583 0.02842 0.0
C3074 C 0.51324 0.44399 0.95524 0.0
C3075 C 0.50782 0.45579 0.96853 0.0
C3076 C 0.48672 0.49923 0.9779 0.0
C3077 C 0.4978 0.5271 0.01838 0.0
C3078 C 0.49946 0.5139 0.0039 0.0
C3079 C 0.5021 0.47305 0.96401 0.0
C3080 C 0.50079 0.48688 0.97795 0.0
H3081 H 0.49535 0.52816 0.06373 0.0
H3082 H 0.5043 0.50828 0.03951 0.0
H3083 H 0.47475 0.52171 0.99083 0.0
H3084 H 0.5043 0.46994 0.91876 0.0
H3085 H 0.49528 0.49082 0.94211 0.0
C3086 C 0.76691 0.28381 0.1794 0.0
C3087 C 0.76436 0.3017 0.18456 0.0
C3088 C 0.75955 0.27001 0.18949 0.0
C3089 C 0.7289 0.25951 0.22683 0.0
H3090 H 0.76623 0.22609 0.24034 0.0
C3091 C 0.72524 0.21963 0.29159 0.0
C3092 C 0.72914 0.20128 0.2906 0.0
C3093 C 0.72908 0.23082 0.27725 0.0
C3094 C 0.7556 0.23514 0.23651 0.0
H3095 H 0.7507 0.31929 0.20312 0.0
H3096 H 0.73818 0.29516 0.22104 0.0
H3097 H 0.77146 0.2471 0.21603 0.0
H3098 H 0.74104 0.18043 0.27432 0.0
H3099 H 0.74764 0.20009 0.24907 0.0
H3100 H 0.71326 0.24786 0.24771 0.0
C3101 C 0.74577 0.29178 0.20918 0.0
C3102 C 0.75853 0.2471 0.22254 0.0
C3103 C 0.75308 0.30559 0.19904 0.0
C3104 C 0.73778 0.19451 0.27535 0.0
C3105 C 0.7416 0.20574 0.26097 0.0
C3106 C 0.72598 0.24756 0.24081 0.0
C3107 C 0.7496 0.27389 0.20491 0.0
C3108 C 0.74533 0.25962 0.21782 0.0
C3109 C 0.73682 0.22388 0.26164 0.0
C3110 C 0.73946 0.23555 0.246 0.0
H3111 H 0.77562 0.28038 0.16835 0.0
H3112 H 0.76245 0.2563 0.1858 0.0
H3113 H 0.71847 0.26892 0.22332 0.0
H3114 H 0.71837 0.22521 0.30305 0.0
H3115 H 0.72561 0.24486 0.27823 0.0
C3116 C 0.01742 0.46386 0.54663 0.0
C3117 C 0.02603 0.44783 0.54209 0.0
C3118 C 0.01223 0.47573 0.5333 0.0
C3119 C 0.02606 0.48861 0.48848 0.0
H3120 H 0.98438 0.51923 0.4911 0.0
C3121 C 1.00083 0.53797 0.43446 0.0
C3122 C 0.99272 0.55365 0.44089 0.0
C3123 C 0.008 0.52562 0.44643 0.0
C3124 C 0.9962 0.51091 0.49039 0.0
H3125 H 0.03473 0.43089 0.52019 0.0
H3126 H 0.02514 0.45149 0.49681 0.0
H3127 H 0.98734 0.49445 0.51197 0.0
H3128 H 0.98787 0.56987 0.46452 0.0
H3129 H 1.00079 0.54852 0.48525 0.0
H3130 H 0.03473 0.50507 0.46665 0.0
C3131 C 0.02279 0.45502 0.51067 0.0
C3132 C 0.99782 0.49668 0.50222 0.0
C3133 C 0.02803 0.44315 0.52402 0.0
C3134 C 0.994 0.5579 0.45914 0.0
C3135 C 1.00121 0.5456 0.47105 0.0
C3136 C 0.02437 0.5028 0.47652 0.0
C3137 C 0.0155 0.47169 0.51525 0.0
C3138 C 0.01286 0.48554 0.50152 0.0
C3139 C 0.00717 0.52894 0.46487 0.0
C3140 C 0.00955 0.51419 0.4776 0.0
H3141 H 0.01559 0.46763 0.5605 0.0
H3142 H 0.00669 0.48852 0.53723 0.0
H3143 H 0.03794 0.48036 0.48784 0.0
H3144 H 1.00031 0.53459 0.42038 0.0
H3145 H 0.01267 0.51287 0.44138 0.0
C3146 C 0.75719 0.68445 0.28525 0.0
C3147 C 0.76494 0.68971 0.30153 0.0
C3148 C 0.75009 0.69727 0.27376 0.0
C3149 C 0.739 0.74531 0.26917 0.0
H3150 H 0.76194 0.74002 0.22289 0.0
C3151 C 0.74359 0.80392 0.22085 0.0
C3152 C 0.73617 0.80014 0.20402 0.0
C3153 C 0.74815 0.79002 0.23237 0.0
C3154 C 0.75543 0.7416 0.23574 0.0
H3155 H 0.76964 0.71212 0.31941 0.0
H3156 H 0.75719 0.73433 0.29949 0.0
H3157 H 0.76328 0.71558 0.24442 0.0
H3158 H 0.72912 0.77886 0.18548 0.0
H3159 H 0.73748 0.75476 0.2054 0.0
H3160 H 0.73144 0.77148 0.26054 0.0
C3161 C 0.75653 0.7204 0.29556 0.0
C3162 C 0.75597 0.72758 0.24795 0.0
C3163 C 0.76364 0.70762 0.30701 0.0
C3164 C 0.73502 0.78227 0.19826 0.0
C3165 C 0.7397 0.76841 0.20971 0.0
C3166 C 0.73852 0.75935 0.25697 0.0
C3167 C 0.75063 0.71544 0.27845 0.0
C3168 C 0.74786 0.72936 0.26482 0.0
C3169 C 0.7455 0.77219 0.22712 0.0
C3170 C 0.74686 0.75764 0.24024 0.0
H3171 H 0.75775 0.67064 0.2809 0.0
H3172 H 0.74524 0.69312 0.26075 0.0
H3173 H 0.7326 0.74696 0.28207 0.0
H3174 H 0.74492 0.81759 0.22548 0.0
H3175 H 0.75296 0.79318 0.24567 0.0
C3176 C 0.76565 0.21669 0.69695 0.0
C3177 C 0.76517 0.19873 0.70241 0.0
C3178 C 0.75981 0.2301 0.70844 0.0
C3179 C 0.75848 0.23736 0.75624 0.0
H3180 H 0.73548 0.28214 0.74386 0.0
C3181 C 0.73408 0.28891 0.80717 0.0
C3182 C 0.73574 0.30715 0.80292 0.0
C3183 C 0.73952 0.27592 0.79505 0.0
C3184 C 0.74219 0.26979 0.74737 0.0
H3185 H 0.75641 0.18043 0.7231 0.0
H3186 H 0.74595 0.20395 0.7432 0.0
H3187 H 0.7375 0.25835 0.72155 0.0
H3188 H 0.74588 0.32607 0.78338 0.0
H3189 H 0.75515 0.30317 0.76196 0.0
H3190 H 0.76308 0.24873 0.78207 0.0
C3191 C 0.75125 0.20765 0.73023 0.0
C3192 C 0.74318 0.25617 0.7347 0.0
C3193 C 0.75713 0.19423 0.71875 0.0
C3194 C 0.74415 0.31211 0.78686 0.0
C3195 C 0.74944 0.29907 0.77463 0.0
C3196 C 0.75746 0.25095 0.7689 0.0
C3197 C 0.7534 0.22571 0.72552 0.0
C3198 C 0.75124 0.23981 0.73908 0.0
C3199 C 0.7466 0.28091 0.77843 0.0
C3200 C 0.74925 0.26722 0.76458 0.0
H3201 H 0.77195 0.22053 0.68447 0.0
H3202 H 0.76166 0.24393 0.70451 0.0
H3203 H 0.76522 0.22504 0.7598 0.0
H3204 H 0.7274 0.28457 0.81926 0.0
H3205 H 0.73705 0.26199 0.79821 0.0
C3206 C 0.78085 0.77649 0.80107 0.0
C3207 C 0.77856 0.79401 0.79462 0.0
C3208 C 0.77856 0.76193 0.78973 0.0
C3209 C 0.78265 0.75082 0.74272 0.0
H3210 H 0.75597 0.70809 0.75489 0.0
C3211 C 0.75206 0.70356 0.69235 0.0
C3212 C 0.74854 0.6858 0.6973 0.0
C3213 C 0.76143 0.71477 0.70382 0.0
C3214 C 0.76394 0.7197 0.7515 0.0
H3215 H 0.7707 0.80998 0.77173 0.0
H3216 H 0.76673 0.78438 0.7518 0.0
H3217 H 0.75807 0.73236 0.77647 0.0
H3218 H 0.7542 0.66507 0.71678 0.0
H3219 H 0.77065 0.6848 0.73697 0.0
H3220 H 0.78817 0.73835 0.71758 0.0
C3221 C 0.77061 0.78205 0.76557 0.0
C3222 C 0.76493 0.73365 0.76377 0.0
C3223 C 0.77278 0.79663 0.77695 0.0
C3224 C 0.75641 0.67885 0.71287 0.0
C3225 C 0.76581 0.6901 0.72439 0.0
C3226 C 0.78176 0.73682 0.73048 0.0
C3227 C 0.77406 0.76466 0.77175 0.0
C3228 C 0.77387 0.74949 0.75926 0.0
C3229 C 0.76743 0.70838 0.72042 0.0
C3230 C 0.77196 0.72134 0.73456 0.0
H3231 H 0.78561 0.77402 0.81452 0.0
H3232 H 0.7813 0.74862 0.79475 0.0
H3233 H 0.78999 0.7628 0.73917 0.0
H3234 H 0.74608 0.70936 0.6805 0.0
H3235 H 0.76236 0.72882 0.70042 0.0
C3236 C 0.49529 0.44727 0.46506 0.0
C3237 C 0.49323 0.45358 0.4475 0.0
C3238 C 0.50148 0.45866 0.47838 0.0
C3239 C 0.49763 0.50575 0.48789 0.0
H3240 H 0.52361 0.49354 0.53104 0.0
C3241 C 0.51592 0.55463 0.54422 0.0
C3242 C 0.51617 0.54794 0.56179 0.0
C3243 C 0.51125 0.54354 0.53005 0.0
C3244 C 0.51609 0.49697 0.51914 0.0
H3245 H 0.49825 0.47573 0.42949 0.0
H3246 H 0.50925 0.49572 0.45288 0.0
H3247 H 0.52414 0.47308 0.50562 0.0
H3248 H 0.50952 0.52525 0.57859 0.0
H3249 H 0.50144 0.50574 0.55365 0.0
H3250 H 0.48958 0.52963 0.50144 0.0
C3251 C 0.50565 0.48213 0.45638 0.0
C3252 C 0.51658 0.48539 0.50457 0.0
C3253 C 0.49944 0.47072 0.44304 0.0
C3254 C 0.50976 0.53061 0.56513 0.0
C3255 C 0.50521 0.51946 0.55091 0.0
C3256 C 0.49719 0.51734 0.50244 0.0
C3257 C 0.50571 0.47649 0.4743 0.0
C3258 C 0.50725 0.48963 0.48887 0.0
C3259 C 0.50683 0.52561 0.53325 0.0
C3260 C 0.50628 0.51296 0.51822 0.0
H3261 H 0.49049 0.43415 0.4689 0.0
H3262 H 0.50134 0.45397 0.49209 0.0
H3263 H 0.48995 0.50914 0.47609 0.0
H3264 H 0.52097 0.56785 0.54114 0.0
H3265 H 0.51262 0.54857 0.51653 0.0
C3266 C 0.0198 0.55881 0.97869 0.0
C3267 C 0.02022 0.55682 0.96003 0.0
C3268 C 0.01246 0.54544 0.98932 0.0
C3269 C 0.98563 0.50512 0.99155 0.0
H3270 H 0.02413 0.48735 0.02149 0.0
C3271 C 0.97714 0.44107 0.0324 0.0
C3272 C 0.98265 0.44234 0.05032 0.0
C3273 C 0.98248 0.4539 0.02 0.0
C3274 C 0.01319 0.49223 0.01335 0.0
H3275 H 0.01149 0.54047 0.93769 0.0
H3276 H 0.99827 0.5172 0.95639 0.0
H3277 H 0.02869 0.51412 0.00354 0.0
H3278 H 0.99925 0.45705 0.06899 0.0
H3279 H 0.008 0.47982 0.0476 0.0
H3280 H 0.9699 0.48359 0.00175 0.0
C3281 C 0.00379 0.52901 0.96272 0.0
C3282 C 0.01579 0.50753 0.00314 0.0
C3283 C 0.01128 0.54234 0.95206 0.0
C3284 C 0.99458 0.45592 0.05533 0.0
C3285 C 0.99974 0.46886 0.043 0.0
C3286 C 0.98291 0.48992 0.00201 0.0
C3287 C 0.00526 0.53007 0.98137 0.0
C3288 C 1.00198 0.51416 0.99234 0.0
C3289 C 0.99328 0.46829 0.02536 0.0
C3290 C 0.99664 0.48342 0.01312 0.0
H3291 H 0.02632 0.57006 0.9851 0.0
H3292 H 0.01345 0.54654 0.00374 0.0
H3293 H 0.9749 0.51002 0.98316 0.0
H3294 H 0.96784 0.43082 0.02815 0.0
H3295 H 0.97762 0.45291 0.00639 0.0
C3296 C 0.1048 0.0463 0.20442 0.0
C3297 C 0.10952 0.04503 0.18624 0.0
C3298 C 0.10694 0.03166 0.21595 0.0
C3299 C 0.13168 0.98843 0.21999 0.0
H3300 H 0.09918 0.98076 0.25957 0.0
C3301 C 0.14916 0.9407 0.2782 0.0
C3302 C 0.13544 0.93165 0.28739 0.0
C3303 C 0.14525 0.9532 0.26485 0.0
C3304 C 0.1083 0.98249 0.24848 0.0
H3305 H 0.11987 0.027 0.16599 0.0
H3306 H 0.12373 0.00171 0.18598 0.0
H3307 H 0.0934 0.00477 0.23844 0.0
H3308 H 0.10664 0.92855 0.28897 0.0
H3309 H 0.09987 0.94999 0.26551 0.0
H3310 H 0.14642 0.96601 0.2298 0.0
C3311 C 0.11863 0.01409 0.19148 0.0
C3312 C 0.10511 0.99651 0.23644 0.0
C3313 C 0.11646 0.0287 0.17996 0.0
C3314 C 0.11766 0.93513 0.2823 0.0
C3315 C 0.11373 0.94767 0.2689 0.0
C3316 C 0.13486 0.97442 0.232 0.0
C3317 C 0.11396 0.01533 0.20968 0.0
C3318 C 0.11686 0.99985 0.22212 0.0
C3319 C 0.12746 0.95711 0.26013 0.0
C3320 C 0.12336 0.97134 0.24659 0.0
H3321 H 0.09968 0.05871 0.20984 0.0
H3322 H 0.10351 0.03335 0.22991 0.0
H3323 H 0.14117 0.99055 0.20928 0.0
H3324 H 0.16306 0.93814 0.28125 0.0
H3325 H 0.15627 0.96013 0.25855 0.0
C3326 C 0.32891 0.87357 0.53547 0.0
C3327 C 0.34064 0.88813 0.53333 0.0
C3328 C 0.31363 0.87191 0.52473 0.0
C3329 C 0.28411 0.89819 0.49386 0.0
H3330 H 0.26948 0.85132 0.47726 0.0
C3331 C 0.23737 0.88809 0.43307 0.0
C3332 C 0.22461 0.87422 0.43349 0.0
C3333 C 0.24988 0.89012 0.44686 0.0
C3334 C 0.2732 0.8645 0.48196 0.0
H3335 H 0.3455 0.91225 0.51804 0.0
H3336 H 0.3192 0.90923 0.49913 0.0
H3337 H 0.29447 0.85399 0.49796 0.0
H3338 H 0.21514 0.85185 0.44945 0.0
H3339 H 0.23711 0.85524 0.47317 0.0
H3340 H 0.26304 0.90867 0.47751 0.0
C3341 C 0.32149 0.89925 0.50937 0.0
C3342 C 0.28758 0.86605 0.49389 0.0
C3343 C 0.33669 0.90095 0.52016 0.0
C3344 C 0.22478 0.86256 0.44833 0.0
C3345 C 0.2374 0.86452 0.46206 0.0
C3346 C 0.2698 0.89663 0.48188 0.0
C3347 C 0.30965 0.88475 0.51151 0.0
C3348 C 0.29349 0.88295 0.49977 0.0
C3349 C 0.2502 0.87826 0.46146 0.0
C3350 C 0.26436 0.8798 0.4755 0.0
H3351 H 0.33132 0.86363 0.54573 0.0
H3352 H 0.30474 0.86073 0.52707 0.0
H3353 H 0.28783 0.9114 0.49847 0.0
H3354 H 0.23815 0.89713 0.42179 0.0
H3355 H 0.25974 0.90067 0.44575 0.0
C3356 C 0.38402 0.06884 0.78168 0.0
C3357 C 0.36657 0.0705 0.78858 0.0
C3358 C 0.38775 0.05716 0.76748 0.0
C3359 C 0.36527 0.02937 0.73191 0.0
H3360 H 0.41094 0.0051 0.73106 0.0
C3361 C 0.38266 0.9793 0.67528 0.0
C3362 C 0.39346 0.96441 0.67938 0.0
C3363 C 0.38006 0.99311 0.68772 0.0
C3364 C 0.398 0.01154 0.73112 0.0
H3365 H 0.33922 0.06143 0.78491 0.0
H3366 H 0.34579 0.04067 0.7611 0.0
H3367 H 0.40493 0.02702 0.75412 0.0
H3368 H 0.41018 0.95295 0.70019 0.0
H3369 H 0.40556 0.97664 0.72163 0.0
H3370 H 0.35787 0.01306 0.70967 0.0
C3371 C 0.35669 0.04857 0.76641 0.0
C3372 C 0.39466 0.0245 0.74425 0.0
C3373 C 0.35294 0.06034 0.78047 0.0
C3374 C 0.40184 0.96408 0.69625 0.0
C3375 C 0.39921 0.97785 0.70869 0.0
C3376 C 0.36849 0.01622 0.71896 0.0
C3377 C 0.37417 0.04668 0.75969 0.0
C3378 C 0.37818 0.03356 0.74498 0.0
C3379 C 0.38814 0.99254 0.70474 0.0
C3380 C 0.38489 0.007 0.71835 0.0
H3381 H 0.39499 0.07627 0.78745 0.0
H3382 H 0.40135 0.05642 0.76262 0.0
H3383 H 0.35251 0.03617 0.73167 0.0
H3384 H 0.37645 0.98059 0.66228 0.0
H3385 H 0.37189 0.00438 0.68379 0.0
C3386 C 0.27653 0.11424 0.95124 0.0
C3387 C 0.2778 0.12924 0.93998 0.0
C3388 C 0.2637 0.11364 0.96495 0.0
C3389 C 0.23153 0.14264 0.99044 0.0
H3390 H 0.20756 0.09767 0.99974 0.0
C3391 C 0.17679 0.13541 0.04519 0.0
C3392 C 0.16227 0.12396 0.04169 0.0
C3393 C 0.19129 0.13637 0.03338 0.0
C3394 C 0.21397 0.1104 0.99721 0.0
H3395 H 0.26648 0.15528 0.93421 0.0
H3396 H 0.24398 0.15408 0.95756 0.0
H3397 H 0.23224 0.09864 0.97858 0.0
H3398 H 0.1516 0.10505 0.02239 0.0
H3399 H 0.17705 0.10636 0.00224 0.0
H3400 H 0.21278 0.15454 0.00848 0.0
C3401 C 0.25315 0.14295 0.95632 0.0
C3402 C 0.2284 0.11091 0.98525 0.0
C3403 C 0.26604 0.14362 0.9428 0.0
C3404 C 0.16266 0.11371 0.02587 0.0
C3405 C 0.17733 0.11445 0.01425 0.0
C3406 C 0.21702 0.14216 0.00228 0.0
C3407 C 0.2517 0.12794 0.9676 0.0
C3408 C 0.23725 0.12708 0.98148 0.0
C3409 C 0.192 0.12564 0.01793 0.0
C3410 C 0.20788 0.12608 0.00571 0.0
H3411 H 0.28557 0.10305 0.94957 0.0
H3412 H 0.26326 0.10197 0.97351 0.0
H3413 H 0.23819 0.1553 0.98826 0.0
H3414 H 0.17724 0.14333 0.05731 0.0
H3415 H 0.20211 0.14534 0.03658 0.0
C3416 C 0.15586 0.04241 0.20973 0.0
C3417 C 0.15013 0.0603 0.21063 0.0
C3418 C 0.15351 0.03085 0.22428 0.0
C3419 C 0.12615 0.02538 0.26562 0.0
H3420 H 0.16074 0.98834 0.27614 0.0
C3421 C 0.10939 0.96669 0.313 0.0
C3422 C 0.12308 0.9585 0.32299 0.0
C3423 C 0.11324 0.98008 0.3005 0.0
C3424 C 0.15096 0.99868 0.27358 0.0
H3425 H 0.13773 0.08005 0.22793 0.0
H3426 H 0.13327 0.05989 0.25299 0.0
H3427 H 0.16669 0.00954 0.25228 0.0
H3428 H 0.15165 0.95893 0.328 0.0
H3429 H 0.15827 0.98242 0.30659 0.0
H3430 H 0.11056 0.01477 0.28708 0.0
C3431 C 0.13944 0.05467 0.24098 0.0
C3432 C 0.1543 0.01076 0.25965 0.0
C3433 C 0.14194 0.06627 0.2265 0.0
C3434 C 0.14069 0.96469 0.32054 0.0
C3435 C 0.14454 0.97813 0.30805 0.0
C3436 C 0.12282 0.01332 0.27955 0.0
C3437 C 0.14511 0.03675 0.24008 0.0
C3438 C 0.14187 0.0242 0.25535 0.0
C3439 C 0.1309 0.9859 0.29766 0.0
C3440 C 0.13504 0.99959 0.2836 0.0
H3441 H 0.162 0.03723 0.19768 0.0
H3442 H 0.15792 0.01714 0.22294 0.0
H3443 H 0.11612 0.03538 0.26266 0.0
H3444 H 0.09558 0.96277 0.31474 0.0
H3445 H 0.10231 0.98551 0.29276 0.0
C3446 C 0.28174 0.88498 0.55454 0.0
C3447 C 0.28073 0.87055 0.56653 0.0
C3448 C 0.26897 0.88699 0.54093 0.0
C3449 C 0.23124 0.86223 0.5183 0.0
H3450 H 0.21737 0.90981 0.50338 0.0
C3451 C 0.17413 0.87271 0.46716 0.0
C3452 C 0.16334 0.88799 0.46886 0.0
C3453 C 0.18951 0.87067 0.4776 0.0
C3454 C 0.22083 0.8964 0.50756 0.0
H3455 H 0.26528 0.84725 0.57402 0.0
H3456 H 0.2427 0.85111 0.55115 0.0
H3457 H 0.24182 0.90615 0.52431 0.0
H3458 H 0.16022 0.91306 0.48303 0.0
H3459 H 0.18673 0.90941 0.5015 0.0
H3460 H 0.20948 0.85252 0.50272 0.0
C3461 C 0.2537 0.8605 0.55146 0.0
C3462 C 0.23522 0.89426 0.51938 0.0
C3463 C 0.2666 0.85833 0.56477 0.0
C3464 C 0.16834 0.90119 0.48127 0.0
C3465 C 0.18369 0.89912 0.49178 0.0
C3466 C 0.2166 0.8644 0.50689 0.0
C3467 C 0.25468 0.87479 0.5392 0.0
C3468 C 0.24045 0.87714 0.52524 0.0
C3469 C 0.19463 0.88386 0.49006 0.0
C3470 C 0.21095 0.88153 0.5015 0.0
H3471 H 0.29258 0.89454 0.55551 0.0
H3472 H 0.27045 0.89806 0.53173 0.0
H3473 H 0.23512 0.84876 0.52189 0.0
H3474 H 0.17086 0.86242 0.45748 0.0
H3475 H 0.19745 0.85875 0.47571 0.0
C3476 C 0.40453 0.03178 0.80586 0.0
C3477 C 0.39066 0.04033 0.81531 0.0
C3478 C 0.40093 0.01756 0.79424 0.0
C3479 C 0.365 0.99731 0.76722 0.0
H3480 H 0.3966 0.95634 0.76597 0.0
C3481 C 0.35121 0.9388 0.71864 0.0
C3482 C 0.36574 0.92914 0.71162 0.0
C3483 C 0.35366 0.95131 0.73235 0.0
C3484 C 0.3878 0.9678 0.76575 0.0
H3485 H 0.36199 0.04027 0.81973 0.0
H3486 H 0.35579 0.01546 0.79955 0.0
H3487 H 0.40203 0.98019 0.78732 0.0
H3488 H 0.39431 0.92503 0.714 0.0
H3489 H 0.39867 0.94678 0.73753 0.0
H3490 H 0.35137 0.98572 0.74505 0.0
C3491 C 0.36948 0.01987 0.80113 0.0
C3492 C 0.39088 0.98148 0.77818 0.0
C3493 C 0.37309 0.03405 0.81286 0.0
C3494 C 0.38273 0.93205 0.71908 0.0
C3495 C 0.3852 0.94459 0.73277 0.0
C3496 C 0.36222 0.98393 0.75443 0.0
C3497 C 0.38336 0.01143 0.79169 0.0
C3498 C 0.3796 0.99648 0.77899 0.0
C3499 C 0.37077 0.9547 0.73946 0.0
C3500 C 0.37357 0.9689 0.75343 0.0
H3501 H 0.41829 0.03588 0.80759 0.0
H3502 H 0.41194 0.01151 0.78705 0.0
H3503 H 0.35605 0.00866 0.76742 0.0
H3504 H 0.33778 0.93651 0.71379 0.0
H3505 H 0.34199 0.95814 0.73747 0.0
C3506 C 0.33457 0.12973 0.95741 0.0
C3507 C 0.34858 0.11768 0.96103 0.0
C3508 C 0.31965 0.13071 0.96871 0.0
C3509 C 0.29446 0.10459 0.00209 0.0
H3510 H 0.27829 0.15059 0.0196 0.0
C3511 C 0.24861 0.11052 0.06384 0.0
C3512 C 0.2365 0.12487 0.06506 0.0
C3513 C 0.26073 0.1094 0.04961 0.0
C3514 C 0.28231 0.13761 0.01461 0.0
H3515 H 0.35794 0.09756 0.97974 0.0
H3516 H 0.33186 0.09908 0.99916 0.0
H3517 H 0.30203 0.14927 0.99738 0.0
H3518 H 0.22794 0.14932 0.05193 0.0
H3519 H 0.24846 0.14705 0.02706 0.0
H3520 H 0.27468 0.09286 0.01907 0.0
C3521 C 0.33235 0.10763 0.98747 0.0
C3522 C 0.29601 0.13689 0.00189 0.0
C3523 C 0.34732 0.10679 0.97633 0.0
C3524 C 0.23687 0.13797 0.05153 0.0
C3525 C 0.24882 0.13674 0.03722 0.0
C3526 C 0.28059 0.1053 0.01461 0.0
C3527 C 0.3183 0.11951 0.98375 0.0
C3528 C 0.30254 0.12036 0.99583 0.0
C3529 C 0.26104 0.12252 0.03609 0.0
C3530 C 0.27461 0.12181 0.02142 0.0
H3531 H 0.33485 0.13808 0.94558 0.0
H3532 H 0.30899 0.13995 0.96546 0.0
H3533 H 0.29895 0.09166 0.99735 0.0
H3534 H 0.24919 0.1004 0.07417 0.0
H3535 H 0.27022 0.09848 0.04956 0.0
C3536 C 0.92666 0.30101 0.11814 0.0
C3537 C 0.91297 0.29842 0.13081 0.0
C3538 C 0.94093 0.28894 0.11689 0.0
C3539 C 0.96469 0.25385 0.14274 0.0
H3540 H 0.98104 0.23779 0.09626 0.0
C3541 C 0.01025 0.19204 0.13515 0.0
C3542 C 0.02313 0.19175 0.12142 0.0
C3543 C 0.9978 0.20596 0.13636 0.0
C3544 C 0.97691 0.24232 0.10938 0.0
H3545 H 0.90351 0.2807 0.15177 0.0
H3546 H 0.92839 0.25994 0.14974 0.0
H3547 H 0.95787 0.26056 0.09819 0.0
H3548 H 0.0326 0.2063 0.09806 0.0
H3549 H 0.0111 0.23033 0.10024 0.0
H3550 H 0.98379 0.23581 0.15398 0.0
C3551 C 0.92826 0.27145 0.14095 0.0
C3552 C 0.96355 0.25539 0.11046 0.0
C3553 C 0.91395 0.28341 0.14211 0.0
C3554 C 0.02301 0.20583 0.10887 0.0
C3555 C 0.01057 0.21973 0.11009 0.0
C3556 C 0.97815 0.24091 0.14167 0.0
C3557 C 0.94197 0.27407 0.12838 0.0
C3558 C 0.95706 0.2611 0.12716 0.0
C3559 C 0.9978 0.22005 0.12387 0.0
C3560 C 0.98424 0.23471 0.12498 0.0
H3561 H 0.92651 0.31253 0.10936 0.0
H3562 H 0.95132 0.29139 0.10711 0.0
H3563 H 0.96033 0.25827 0.15583 0.0
H3564 H 0.00938 0.18127 0.14478 0.0
H3565 H 0.98788 0.2054 0.14688 0.0
C3566 C 0.51207 0.31375 0.85799 0.0
C3567 C 0.52538 0.31355 0.87129 0.0
C3568 C 0.49929 0.30012 0.85706 0.0
C3569 C 0.47649 0.26694 0.88521 0.0
H3570 H 0.46035 0.24796 0.83975 0.0
C3571 C 0.41028 0.22739 0.8777 0.0
C3572 C 0.40984 0.21322 0.86537 0.0
C3573 C 0.42531 0.23853 0.87887 0.0
C3574 C 0.46478 0.25296 0.8526 0.0
H3575 H 0.53599 0.29809 0.89353 0.0
H3576 H 0.51301 0.27509 0.89252 0.0
H3577 H 0.4854 0.26874 0.84053 0.0
H3578 H 0.42527 0.1992 0.84514 0.0
H3579 H 0.4514 0.21829 0.84743 0.0
H3580 H 0.45593 0.25109 0.8973 0.0
C3581 C 0.51268 0.28571 0.88269 0.0
C3582 C 0.47904 0.26502 0.85301 0.0
C3583 C 0.52574 0.29907 0.88337 0.0
C3584 C 0.42492 0.21025 0.8545 0.0
C3585 C 0.43996 0.22122 0.8558 0.0
C3586 C 0.46215 0.25492 0.8848 0.0
C3587 C 0.49928 0.28609 0.86957 0.0
C3588 C 0.48493 0.27233 0.86928 0.0
C3589 C 0.4403 0.23564 0.86785 0.0
C3590 C 0.45601 0.24789 0.86847 0.0
H3591 H 0.51103 0.32475 0.84865 0.0
H3592 H 0.48897 0.30098 0.84694 0.0
H3593 H 0.48065 0.27237 0.89797 0.0
H3594 H 0.39889 0.23007 0.88623 0.0
H3595 H 0.42501 0.24964 0.88816 0.0
C3596 C 0.98422 0.69023 0.35913 0.0
C3597 C 0.97886 0.68476 0.37634 0.0
C3598 C 0.99795 0.70279 0.35687 0.0
C3599 C 0.0359 0.72396 0.38174 0.0
H3600 H 0.03577 0.75695 0.34174 0.0
C3601 C 0.08692 0.78187 0.37552 0.0
C3602 C 0.09511 0.78409 0.35871 0.0
C3603 C 0.07232 0.77034 0.37762 0.0
C3604 C 0.03606 0.74772 0.35291 0.0
H3605 H 0.98389 0.68871 0.4047 0.0
H3606 H 0.00683 0.71115 0.40079 0.0
H3607 H 0.0111 0.73595 0.34542 0.0
H3608 H 0.09417 0.77581 0.33091 0.0
H3609 H 0.06861 0.75586 0.33457 0.0
H3610 H 0.06073 0.73602 0.38936 0.0
C3611 C 1.00089 0.70532 0.38894 0.0
C3612 C 0.02195 0.73557 0.35498 0.0
C3613 C 0.98735 0.69262 0.3912 0.0
C3614 C 0.08814 0.7746 0.34402 0.0
C3615 C 0.07346 0.76316 0.3461 0.0
C3616 C 0.0499 0.7362 0.37975 0.0
C3617 C 0.00662 0.71042 0.37175 0.0
C3618 C 0.02165 0.72347 0.36943 0.0
C3619 C 0.06543 0.76082 0.36294 0.0
C3620 C 0.05021 0.74818 0.36527 0.0
H3621 H 0.97786 0.68479 0.34732 0.0
H3622 H 1.00197 0.70621 0.34339 0.0
H3623 H 0.03648 0.71466 0.39282 0.0
H3624 H 0.09158 0.78927 0.38706 0.0
H3625 H 0.06626 0.76905 0.39072 0.0
C3626 C 0.99969 0.30821 0.1114 0.0
C3627 C 0.98644 0.30965 0.12468 0.0
C3628 C 0.01269 0.29481 0.11221 0.0
C3629 C 0.03503 0.26374 0.14375 0.0
H3630 H 0.0524 0.24193 0.1 0.0
C3631 C 0.10047 0.22278 0.14153 0.0
C3632 C 0.10063 0.20683 0.1315 0.0
C3633 C 0.08599 0.23459 0.1406 0.0
C3634 C 0.04765 0.2478 0.11236 0.0
H3635 H 0.9765 0.29783 0.14921 0.0
H3636 H 0.99938 0.27455 0.15079 0.0
H3637 H 0.0277 0.26315 0.09876 0.0
H3638 H 0.08548 0.19106 0.11241 0.0
H3639 H 0.0607 0.21198 0.11029 0.0
H3640 H 0.05489 0.24822 0.15734 0.0
C3641 C 0.99973 0.2839 0.13974 0.0
C3642 C 0.03359 0.26014 0.11165 0.0
C3643 C 0.98663 0.29731 0.13888 0.0
C3644 C 0.08606 0.2033 0.12013 0.0
C3645 C 0.07169 0.21525 0.11904 0.0
C3646 C 0.04914 0.25144 0.14445 0.0
C3647 C 0.01292 0.28243 0.12637 0.0
C3648 C 0.02718 0.26844 0.1273 0.0
C3649 C 0.07131 0.23091 0.12946 0.0
C3650 C 0.05577 0.24344 0.12875 0.0
H3651 H 1.00028 0.31768 0.10046 0.0
H3652 H 0.02284 0.29444 0.10189 0.0
H3653 H 0.03061 0.26992 0.15607 0.0
H3654 H 0.11157 0.22619 0.15017 0.0
H3655 H 0.08639 0.24671 0.14851 0.0
C3656 C 0.58019 0.71674 0.62385 0.0
C3657 C 0.59166 0.7191 0.63856 0.0
C3658 C 0.56462 0.72702 0.62213 0.0
C3659 C 0.53407 0.75724 0.64796 0.0
H3660 H 0.52058 0.77397 0.6008 0.0
C3661 C 0.48737 0.81785 0.63642 0.0
C3662 C 0.47513 0.81731 0.62211 0.0
C3663 C 0.49978 0.80405 0.63898 0.0
C3664 C 0.52398 0.76922 0.61406 0.0
H3665 H 0.59573 0.73408 0.66301 0.0
H3666 H 0.56894 0.75232 0.65984 0.0
H3667 H 0.54569 0.75356 0.60402 0.0
H3668 H 0.46626 0.80113 0.59965 0.0
H3669 H 0.48805 0.7774 0.60397 0.0
H3670 H 0.51256 0.77334 0.65797 0.0
C3671 C 0.57166 0.74226 0.64978 0.0
C3672 C 0.53842 0.75745 0.61592 0.0
C3673 C 0.58713 0.73189 0.65156 0.0
C3674 C 0.47557 0.80234 0.61065 0.0
C3675 C 0.48807 0.78861 0.61314 0.0
C3676 C 0.51969 0.76909 0.6461 0.0
C3677 C 0.56015 0.74002 0.63504 0.0
C3678 C 0.5439 0.75153 0.63294 0.0
C3679 C 0.50045 0.78937 0.62724 0.0
C3680 C 0.51466 0.77548 0.62915 0.0
H3681 H 0.58308 0.7067 0.61381 0.0
H3682 H 0.55596 0.72457 0.6108 0.0
H3683 H 0.5375 0.75261 0.66125 0.0
H3684 H 0.48786 0.82922 0.64536 0.0
H3685 H 0.50931 0.80524 0.64982 0.0
C3686 C 0.92528 0.71395 0.38209 0.0
C3687 C 0.91137 0.71731 0.36987 0.0
C3688 C 0.93966 0.72589 0.38376 0.0
C3689 C 0.95268 0.77302 0.37452 0.0
H3690 H 1.00097 0.75516 0.37969 0.0
C3691 C 0.01284 0.82112 0.37064 0.0
C3692 C 0.0279 0.81783 0.38143 0.0
C3693 C 0.99917 0.80844 0.36906 0.0
C3694 C 0.9876 0.76044 0.37836 0.0
H3695 H 0.90169 0.73597 0.34994 0.0
H3696 H 0.92663 0.75675 0.35284 0.0
H3697 H 0.97613 0.73416 0.3775 0.0
H3698 H 0.0405 0.79799 0.39845 0.0
H3699 H 0.01641 0.77624 0.39632 0.0
H3700 H 0.96391 0.79926 0.37558 0.0
C3701 C 0.92642 0.74496 0.36124 0.0
C3702 C 0.97331 0.74834 0.37716 0.0
C3703 C 0.91216 0.73296 0.35948 0.0
C3704 C 0.02901 0.80122 0.39026 0.0
C3705 C 0.01522 0.78858 0.38884 0.0
C3706 C 0.96693 0.7851 0.37574 0.0
C3707 C 0.94041 0.7416 0.37338 0.0
C3708 C 0.95566 0.75445 0.3751 0.0
C3709 C 0.99992 0.79209 0.37841 0.0
C3710 C 0.98467 0.77904 0.37748 0.0
H3711 H 0.92525 0.70188 0.39011 0.0
H3712 H 0.95011 0.72286 0.39331 0.0
H3713 H 0.93925 0.77827 0.37335 0.0
H3714 H 0.0113 0.83374 0.36372 0.0
H3715 H 0.98793 0.81157 0.36051 0.0
C3716 C 0.49541 0.18593 0.86255 0.0
C3717 C 0.48072 0.18707 0.87424 0.0
C3718 C 0.50809 0.1997 0.86174 0.0
C3719 C 0.52651 0.23696 0.88866 0.0
H3720 H 0.54873 0.25049 0.84388 0.0
C3721 C 0.58996 0.28202 0.88599 0.0
C3722 C 0.59229 0.29323 0.87108 0.0
C3723 C 0.57575 0.26975 0.88662 0.0
C3724 C 0.54259 0.24712 0.85654 0.0
H3725 H 0.46744 0.20424 0.89353 0.0
H3726 H 0.48972 0.22801 0.89234 0.0
H3727 H 0.52461 0.22876 0.84389 0.0
H3728 H 0.58088 0.30075 0.84547 0.0
H3729 H 0.55583 0.28037 0.84702 0.0
H3730 H 0.54423 0.25554 0.90131 0.0
C3731 C 0.49153 0.21636 0.88395 0.0
C3732 C 0.52884 0.23441 0.85654 0.0
C3733 C 0.47877 0.20266 0.88465 0.0
C3734 C 0.5797 0.29227 0.85713 0.0
C3735 C 0.56534 0.28034 0.85792 0.0
C3736 C 0.5403 0.24966 0.88868 0.0
C3737 C 0.50649 0.21498 0.87264 0.0
C3738 C 0.52065 0.22909 0.87259 0.0
C3739 C 0.56331 0.26859 0.87249 0.0
C3740 C 0.54855 0.25499 0.87261 0.0
H3741 H 0.49753 0.17409 0.8545 0.0
H3742 H 0.51952 0.19806 0.85302 0.0
H3743 H 0.52063 0.23309 0.90132 0.0
H3744 H 0.59945 0.28231 0.89692 0.0
H3745 H 0.57484 0.26086 0.89801 0.0
C3746 C 0.84832 0.06043 0.72413 0.0
C3747 C 0.86188 0.07025 0.7156 0.0
C3748 C 0.85244 0.04736 0.73689 0.0
C3749 C 0.88992 0.01912 0.75449 0.0
H3750 H 0.85678 0.01174 0.79365 0.0
C3751 C 0.90534 0.97067 0.81328 0.0
C3752 C 0.89116 0.96087 0.82087 0.0
C3753 C 0.90215 0.98393 0.80041 0.0
C3754 C 0.86608 0.01338 0.78267 0.0
H3755 H 0.89059 0.07363 0.71368 0.0
H3756 H 0.8978 0.05103 0.73609 0.0
H3757 H 0.85102 0.03514 0.77191 0.0
H3758 H 0.86243 0.9572 0.82024 0.0
H3759 H 0.85688 0.98019 0.79782 0.0
H3760 H 0.90486 0.99718 0.76523 0.0
C3761 C 0.8839 0.05329 0.73282 0.0
C3762 C 0.86277 0.02691 0.77013 0.0
C3763 C 0.87976 0.06632 0.71993 0.0
C3764 C 0.87368 0.96467 0.81505 0.0
C3765 C 0.87049 0.97793 0.80215 0.0
C3766 C 0.89318 0.00552 0.76702 0.0
C3767 C 0.87028 0.0437 0.74166 0.0
C3768 C 0.8745 0.02989 0.75567 0.0
C3769 C 0.88468 0.98785 0.79469 0.0
C3770 C 0.88126 0.00237 0.78126 0.0
H3771 H 0.83442 0.06273 0.72082 0.0
H3772 H 0.84152 0.03995 0.74283 0.0
H3773 H 0.89918 0.0207 0.74349 0.0
H3774 H 0.91897 0.96842 0.81759 0.0
H3775 H 0.91343 0.99141 0.79528 0.0
C3776 C 0.67836 0.1338 0.46327 0.0
C3777 C 0.6661 0.11965 0.46572 0.0
C3778 C 0.69342 0.13551 0.47433 0.0
C3779 C 0.72484 0.11077 0.50185 0.0
H3780 H 0.72922 0.15329 0.53109 0.0
C3781 C 0.77602 0.11429 0.56011 0.0
C3782 C 0.78226 0.13102 0.56615 0.0
C3783 C 0.76287 0.1131 0.54679 0.0
C3784 C 0.72862 0.14145 0.52281 0.0
H3785 H 0.66035 0.09644 0.48231 0.0
H3786 H 0.68695 0.09906 0.50081 0.0
H3787 H 0.70529 0.15117 0.50922 0.0
H3788 H 0.77958 0.15967 0.56199 0.0
H3789 H 0.75806 0.15755 0.5381 0.0
H3790 H 0.74847 0.10119 0.51468 0.0
C3791 C 0.68477 0.10878 0.49029 0.0
C3792 C 0.71473 0.14024 0.51031 0.0
C3793 C 0.66953 0.10728 0.47955 0.0
C3794 C 0.77543 0.14647 0.55779 0.0
C3795 C 0.76258 0.14526 0.54422 0.0
C3796 C 0.73903 0.11212 0.51403 0.0
C3797 C 0.69683 0.12293 0.48786 0.0
C3798 C 0.71253 0.12479 0.49991 0.0
C3799 C 0.75574 0.12857 0.53871 0.0
C3800 C 0.74105 0.12739 0.52497 0.0
H3801 H 0.67652 0.14344 0.45264 0.0
H3802 H 0.70257 0.14653 0.47214 0.0
H3803 H 0.72353 0.09876 0.49385 0.0
H3804 H 0.78112 0.10199 0.56577 0.0
H3805 H 0.75804 0.09993 0.54325 0.0
C3806 C 0.64692 0.92827 0.23525 0.0
C3807 C 0.63739 0.92743 0.21905 0.0
C3808 C 0.64288 0.94121 0.24818 0.0
C3809 C 0.60921 0.9774 0.25974 0.0
H3810 H 0.64716 0.99183 0.29184 0.0
C3811 C 0.59593 0.02615 0.31839 0.0
C3812 C 0.60982 0.03701 0.32506 0.0
C3813 C 0.59912 0.01331 0.30514 0.0
C3814 C 0.63641 0.98825 0.28286 0.0
H3815 H 0.61524 0.93898 0.20451 0.0
H3816 H 0.60881 0.96201 0.22629 0.0
H3817 H 0.65283 0.96905 0.26977 0.0
H3818 H 0.63816 0.04279 0.32202 0.0
H3819 H 0.64333 0.02152 0.29822 0.0
H3820 H 0.5933 0.99775 0.27191 0.0
C3821 C 0.61937 0.95265 0.22932 0.0
C3822 C 0.63954 0.97467 0.27033 0.0
C3823 C 0.62316 0.93942 0.21658 0.0
C3824 C 0.62693 0.03495 0.31741 0.0
C3825 C 0.63003 0.02237 0.30383 0.0
C3826 C 0.60625 0.99133 0.27194 0.0
C3827 C 0.62936 0.95404 0.24527 0.0
C3828 C 0.62594 0.96877 0.25865 0.0
C3829 C 0.61624 0.01111 0.29765 0.0
C3830 C 0.61972 0.99686 0.28389 0.0
H3831 H 0.65749 0.91881 0.23808 0.0
H3832 H 0.65043 0.94097 0.26051 0.0
H3833 H 0.59816 0.97338 0.25135 0.0
H3834 H 0.5824 0.0275 0.32331 0.0
H3835 H 0.5881 0.00489 0.30106 0.0
C3836 C 0.83128 0.9041 0.97711 0.0
C3837 C 0.83826 0.88941 0.96759 0.0
C3838 C 0.8162 0.90219 0.98809 0.0
C3839 C 0.7919 0.86866 0.01445 0.0
H3840 H 0.75355 0.90345 0.01506 0.0
C3841 C 0.73089 0.85809 0.06053 0.0
C3842 C 0.72201 0.87303 0.06779 0.0
C3843 C 0.7439 0.86009 0.04721 0.0
C3844 C 0.76427 0.89375 0.01544 0.0
H3845 H 0.8341 0.86128 0.96174 0.0
H3846 H 0.80813 0.85789 0.98123 0.0
H3847 H 0.77834 0.90712 0.99428 0.0
H3848 H 0.71959 0.9019 0.06566 0.0
H3849 H 0.74291 0.90547 0.04346 0.0
H3850 H 0.77861 0.85571 0.03608 0.0
C3851 C 0.81452 0.87086 0.98031 0.0
C3852 C 0.77844 0.8958 0.00331 0.0
C3853 C 0.8295 0.8728 0.9692 0.0
C3854 C 0.72632 0.89003 0.06086 0.0
C3855 C 0.73962 0.89206 0.04777 0.0
C3856 C 0.77796 0.8668 0.02682 0.0
C3857 C 0.80775 0.8855 0.99001 0.0
C3858 C 0.7924 0.88323 0.00261 0.0
C3859 C 0.74886 0.87713 0.04087 0.0
C3860 C 0.7638 0.87925 0.02752 0.0
H3861 H 0.83767 0.91707 0.9764 0.0
H3862 H 0.81145 0.9137 0.99549 0.0
H3863 H 0.8026 0.85891 0.01452 0.0
H3864 H 0.72826 0.84474 0.06543 0.0
H3865 H 0.75008 0.84811 0.04196 0.0
C3866 C 0.90261 0.02969 0.68907 0.0
C3867 C 0.88911 0.03873 0.67959 0.0
C3868 C 0.89838 0.0164 0.70156 0.0
C3869 C 0.86085 0.99797 0.72896 0.0
H3870 H 0.89335 0.95803 0.73434 0.0
C3871 C 0.84533 0.93929 0.7773 0.0
C3872 C 0.85957 0.93017 0.78557 0.0
C3873 C 0.84847 0.95226 0.76415 0.0
C3874 C 0.88426 0.96924 0.73335 0.0
H3875 H 0.86037 0.04107 0.67652 0.0
H3876 H 0.85304 0.01748 0.69773 0.0
H3877 H 0.89929 0.98062 0.71186 0.0
H3878 H 0.88851 0.92816 0.78646 0.0
H3879 H 0.89397 0.95141 0.76449 0.0
H3880 H 0.84613 0.98694 0.75084 0.0
C3881 C 0.86697 0.02076 0.69562 0.0
C3882 C 0.88766 0.98226 0.72031 0.0
C3883 C 0.8712 0.03418 0.6832 0.0
C3884 C 0.87711 0.93482 0.78056 0.0
C3885 C 0.88026 0.94803 0.76762 0.0
C3886 C 0.85761 0.98512 0.74223 0.0
C3887 C 0.88051 0.01152 0.70489 0.0
C3888 C 0.87616 0.997 0.71807 0.0
C3889 C 0.86598 0.95683 0.75902 0.0
C3890 C 0.86932 0.97057 0.74473 0.0
H3891 H 0.91656 0.03264 0.68666 0.0
H3892 H 0.90923 0.01002 0.7087 0.0
H3893 H 0.85168 0.00909 0.72782 0.0
H3894 H 0.83163 0.93648 0.78097 0.0
H3895 H 0.83704 0.95847 0.75784 0.0
C3896 C 0.83493 0.1293 0.53153 0.0
C3897 C 0.84282 0.11241 0.53428 0.0
C3898 C 0.82002 0.13131 0.52033 0.0
C3899 C 0.79378 0.10674 0.48496 0.0
H3900 H 0.76017 0.14546 0.49237 0.0
C3901 C 0.72894 0.1122 0.44326 0.0
C3902 C 0.72482 0.12921 0.43631 0.0
C3903 C 0.74218 0.11013 0.45635 0.0
C3904 C 0.76948 0.13462 0.49004 0.0
H3905 H 0.84063 0.08431 0.52725 0.0
H3906 H 0.8142 0.08756 0.50899 0.0
H3907 H 0.78521 0.14181 0.51278 0.0
H3908 H 0.73124 0.15746 0.43834 0.0
H3909 H 0.75404 0.15384 0.46126 0.0
H3910 H 0.7778 0.09945 0.46235 0.0
C3911 C 0.81988 0.0995 0.51486 0.0
C3912 C 0.78397 0.13252 0.50177 0.0
C3913 C 0.83501 0.09755 0.52573 0.0
C3914 C 0.73383 0.14415 0.44342 0.0
C3915 C 0.74699 0.14208 0.4566 0.0
C3916 C 0.77915 0.10868 0.47344 0.0
C3917 C 0.81222 0.11644 0.51175 0.0
C3918 C 0.79644 0.11856 0.49943 0.0
C3919 C 0.75163 0.12501 0.46297 0.0
C3920 C 0.76681 0.12266 0.47577 0.0
H3921 H 0.84014 0.14108 0.53813 0.0
H3922 H 0.81485 0.14466 0.51828 0.0
H3923 H 0.80321 0.09614 0.48217 0.0
H3924 H 0.72203 0.10041 0.43847 0.0
H3925 H 0.74511 0.09681 0.46124 0.0
C3926 C 0.63659 0.9682 0.18442 0.0
C3927 C 0.61905 0.96502 0.17843 0.0
C3928 C 0.64007 0.98133 0.19739 0.0
C3929 C 0.62042 0.022 0.21854 0.0
H3930 H 0.65449 0.01222 0.25627 0.0
C3931 C 0.62885 0.07097 0.27792 0.0
C3932 C 0.64599 0.07328 0.28538 0.0
C3933 C 0.62547 0.05733 0.26548 0.0
C3934 C 0.64508 0.01536 0.24575 0.0
H3935 H 0.59151 0.97363 0.18112 0.0
H3936 H 0.59752 0.99628 0.2037 0.0
H3937 H 0.64939 0.99004 0.23302 0.0
H3938 H 0.67279 0.06212 0.28582 0.0
H3939 H 0.66723 0.03935 0.26348 0.0
H3940 H 0.61637 0.04745 0.23089 0.0
C3941 C 0.60865 0.98873 0.19836 0.0
C3942 C 0.64214 0.00255 0.23236 0.0
C3943 C 0.60516 0.97553 0.18553 0.0
C3944 C 0.65952 0.06126 0.28014 0.0
C3945 C 0.65622 0.04783 0.26747 0.0
C3946 C 0.62348 0.03488 0.2318 0.0
C3947 C 0.62613 0.99177 0.20457 0.0
C3948 C 0.62967 0.00562 0.21862 0.0
C3949 C 0.63917 0.04571 0.25981 0.0
C3950 C 0.6358 0.03177 0.24571 0.0
H3951 H 0.6476 0.96025 0.1794 0.0
H3952 H 0.65373 0.98336 0.20171 0.0
H3953 H 0.61098 0.02506 0.20799 0.0
H3954 H 0.618 0.07988 0.28137 0.0
H3955 H 0.61203 0.05598 0.26031 0.0
C3956 C 0.6756 0.87233 0.03153 0.0
C3957 C 0.6685 0.88951 0.0347 0.0
C3958 C 0.69056 0.86993 0.02048 0.0
C3959 C 0.71807 0.89431 0.986 0.0
H3960 H 0.74945 0.85348 0.99164 0.0
C3961 C 0.78212 0.88632 0.94344 0.0
C3962 C 0.78473 0.86944 0.93549 0.0
C3963 C 0.7692 0.88875 0.95679 0.0
C3964 C 0.74073 0.8649 0.98981 0.0
H3965 H 0.6723 0.91769 0.02866 0.0
H3966 H 0.69884 0.91367 0.01079 0.0
H3967 H 0.72481 0.85779 0.01244 0.0
H3968 H 0.77592 0.84176 0.93603 0.0
H3969 H 0.75386 0.84595 0.95957 0.0
H3970 H 0.73426 0.90148 0.96349 0.0
C3971 C 0.69245 0.90186 0.01615 0.0
C3972 C 0.72648 0.86738 0.00175 0.0
C3973 C 0.67725 0.90422 0.02683 0.0
C3974 C 0.77457 0.85492 0.94191 0.0
C3975 C 0.76182 0.85732 0.95542 0.0
C3976 C 0.73245 0.89195 0.97425 0.0
C3977 C 0.69921 0.88465 0.01248 0.0
C3978 C 0.71483 0.88212 1.00003 0.0
C3979 C 0.75869 0.87433 0.96278 0.0
C3980 C 0.74392 0.87717 0.97591 0.0
H3981 H 0.66968 0.86062 0.03763 0.0
H3982 H 0.69506 0.85641 0.01801 0.0
H3983 H 0.70927 0.90554 0.98368 0.0
H3984 H 0.78995 0.89775 0.93924 0.0
H3985 H 0.76735 0.90199 0.96236 0.0
C3986 C 0.98124 0.81068 0.86675 0.0
C3987 C 0.9741 0.81497 0.88368 0.0
C3988 C 0.99439 0.79745 0.86481 0.0
C3989 C 0.02691 0.77003 0.89226 0.0
H3990 H 0.03559 0.74745 0.84644 0.0
C3991 C 0.08039 0.71413 0.88173 0.0
C3992 C 0.09135 0.71592 0.86649 0.0
C3993 C 0.06539 0.72515 0.88418 0.0
C3994 C 0.03342 0.75372 0.85932 0.0
H3995 H 0.97508 0.80738 0.91177 0.0
H3996 H 0.99636 0.78352 0.90812 0.0
H3997 H 0.01056 0.76777 0.84976 0.0
H3998 H 0.09505 0.73133 0.84214 0.0
H3999 H 0.06881 0.75007 0.84621 0.0
H4000 H 0.04983 0.75559 0.9017 0.0
C4001 C 0.99264 0.79109 0.89637 0.0
C4002 C 0.01903 0.76557 0.86127 0.0
C4003 C 0.97991 0.8047 0.89841 0.0
C4004 C 0.08683 0.72916 0.85386 0.0
C4005 C 0.07174 0.73999 0.85619 0.0
C4006 C 0.04121 0.75803 0.89033 0.0
C4007 C 1.00056 0.78753 0.87963 0.0
C4008 C 0.01553 0.77409 0.87774 0.0
C4009 C 0.06077 0.73812 0.87135 0.0
C4010 C 0.04481 0.74992 0.87377 0.0
H4011 H 0.97691 0.81764 0.85485 0.0
H4012 H 0.99999 0.79548 0.85163 0.0
H4013 H 0.02525 0.77648 0.90509 0.0
H4014 H 0.08316 0.70397 0.89166 0.0
H4015 H 0.05721 0.7233 0.89598 0.0
C4016 C 0.47563 0.69478 0.13532 0.0
C4017 C 0.4731 0.68712 0.11829 0.0
C4018 C 0.48848 0.70815 0.13804 0.0
C4019 C 0.51708 0.74155 0.11472 0.0
H4020 H 0.548 0.73533 0.15578 0.0
C4021 C 0.58239 0.78277 0.12283 0.0
C4022 C 0.58916 0.78618 0.14009 0.0
C4023 C 0.56743 0.77176 0.12031 0.0
C4024 C 0.53935 0.73764 0.14443 0.0
H4025 H 0.48193 0.68823 0.09064 0.0
H4026 H 0.50391 0.71176 0.09532 0.0
H4027 H 0.52307 0.71512 0.1513 0.0
H4028 H 0.5848 0.78067 0.16828 0.0
H4029 H 0.55828 0.76268 0.16401 0.0
H4030 H 0.53317 0.76415 0.10787 0.0
C4031 C 0.49595 0.70738 0.1066 0.0
C4032 C 0.525 0.7259 0.14183 0.0
C4033 C 0.48325 0.69387 0.10392 0.0
C4034 C 0.5801 0.77858 0.15476 0.0
C4035 C 0.56492 0.76789 0.15226 0.0
C4036 C 0.53133 0.75345 0.11742 0.0
C4037 C 0.49901 0.71444 0.12376 0.0
C4038 C 0.51373 0.7276 0.12689 0.0
C4039 C 0.55846 0.76402 0.13498 0.0
C4040 C 0.54279 0.75167 0.13229 0.0
H4041 H 0.4678 0.69032 0.14666 0.0
H4042 H 0.49024 0.71349 0.15138 0.0
H4043 H 0.50852 0.74345 0.1032 0.0
H4044 H 0.58857 0.78867 0.11115 0.0
H4045 H 0.56316 0.76912 0.10674 0.0
C4046 C 0.02456 0.30288 0.6079 0.0
C4047 C 0.02985 0.31332 0.62269 0.0
C4048 C 0.01193 0.28916 0.60978 0.0
C4049 C 0.98616 0.26283 0.64423 0.0
H4050 H 0.9535 0.25556 0.60468 0.0
C4051 C 0.91803 0.22763 0.65294 0.0
C4052 C 0.91209 0.21592 0.63946 0.0
C4053 C 0.93345 0.23796 0.65056 0.0
C4054 C 0.96265 0.2572 0.61578 0.0
H4055 H 0.0263 0.31653 0.65134 0.0
H4056 H 0.00352 0.29378 0.65432 0.0
H4057 H 0.97843 0.2761 0.60131 0.0
H4058 H 0.91809 0.20579 0.61292 0.0
H4059 H 0.9449 0.22394 0.60873 0.0
H4060 H 0.96999 0.24418 0.65878 0.0
C4061 C 0.00943 0.29579 0.64127 0.0
C4062 C 0.97708 0.269 0.61384 0.0
C4063 C 0.02236 0.30923 0.63948 0.0
C4064 C 0.92202 0.21489 0.62348 0.0
C4065 C 0.93746 0.22526 0.62109 0.0
C4066 C 0.9717 0.25108 0.64617 0.0
C4067 C 0.00379 0.28567 0.6264 0.0
C4068 C 0.98901 0.27217 0.62811 0.0
C4069 C 0.94339 0.23692 0.63462 0.0
C4070 C 0.95959 0.24833 0.63206 0.0
H4071 H 0.0298 0.30551 0.59467 0.0
H4072 H 0.00844 0.28143 0.59805 0.0
H4073 H 0.99514 0.26446 0.65545 0.0
H4074 H 0.91066 0.22894 0.66534 0.0
H4075 H 0.93742 0.24702 0.66114 0.0
C4076 C 0.02752 0.69661 0.89599 0.0
C4077 C 0.03322 0.68618 0.88135 0.0
C4078 C 0.01465 0.71009 0.89388 0.0
C4079 C 0.98846 0.73547 0.8588 0.0
H4080 H 0.9565 0.74418 0.89863 0.0
C4081 C 0.92082 0.77177 0.85004 0.0
C4082 C 0.91514 0.78379 0.86337 0.0
C4083 C 0.93605 0.76117 0.8525 0.0
C4084 C 0.96545 0.74214 0.88744 0.0
H4085 H 0.03007 0.68281 0.85266 0.0
H4086 H 0.00688 0.705 0.84929 0.0
H4087 H 0.98133 0.72361 0.90223 0.0
H4088 H 0.92145 0.79421 0.8897 0.0
H4089 H 0.94798 0.77561 0.89403 0.0
H4090 H 0.9722 0.7538 0.84396 0.0
C4091 C 0.01265 0.70322 0.86243 0.0
C4092 C 0.97985 0.73031 0.88949 0.0
C4093 C 0.02585 0.69007 0.86445 0.0
C4094 C 0.92517 0.78486 0.87928 0.0
C4095 C 0.94044 0.77423 0.88174 0.0
C4096 C 0.97403 0.74724 0.85674 0.0
C4097 C 0.0066 0.71334 0.87715 0.0
C4098 C 0.99161 0.72666 0.87518 0.0
C4099 C 0.94611 0.76224 0.86836 0.0
C4100 C 0.96218 0.75059 0.87096 0.0
H4101 H 0.03262 0.69417 0.9093 0.0
H4102 H 0.01093 0.71782 0.90553 0.0
H4103 H 0.99728 0.73354 0.8475 0.0
H4104 H 0.91336 0.77041 0.8377 0.0
H4105 H 0.93978 0.75189 0.84202 0.0
C4106 C 0.42308 0.28641 0.37745 0.0
C4107 C 0.41491 0.28779 0.36053 0.0
C4108 C 0.43808 0.2755 0.38003 0.0
C4109 C 0.47519 0.25256 0.3567 0.0
H4110 H 0.47341 0.21984 0.39684 0.0
C4111 C 0.5249 0.19326 0.36356 0.0
C4112 C 0.52947 0.18705 0.38075 0.0
C4113 C 0.51204 0.20671 0.36128 0.0
C4114 C 0.47443 0.22908 0.38575 0.0
H4115 H 0.41662 0.2789 0.33295 0.0
H4116 H 0.44287 0.26004 0.33744 0.0
H4117 H 0.4496 0.24152 0.39271 0.0
H4118 H 0.52413 0.19072 0.40906 0.0
H4119 H 0.50251 0.21452 0.40516 0.0
H4120 H 0.50022 0.24048 0.34992 0.0
C4121 C 0.43762 0.26747 0.34871 0.0
C4122 C 0.46065 0.24151 0.38335 0.0
C4123 C 0.42253 0.27829 0.34615 0.0
C4124 C 0.52116 0.19513 0.39559 0.0
C4125 C 0.50841 0.20864 0.39332 0.0
C4126 C 0.48917 0.24031 0.35925 0.0
C4127 C 0.44545 0.26576 0.36572 0.0
C4128 C 0.46074 0.25327 0.3687 0.0
C4129 C 0.5034 0.21449 0.37612 0.0
C4130 C 0.48892 0.2282 0.37372 0.0
H4131 H 0.41799 0.29392 0.38875 0.0
H4132 H 0.44398 0.27474 0.39323 0.0
H4133 H 0.47576 0.26159 0.34539 0.0
H4134 H 0.53118 0.18765 0.35178 0.0
H4135 H 0.50855 0.21063 0.34779 0.0
C4136 C 0.97996 0.19838 0.60537 0.0
C4137 C 0.97538 0.18764 0.62021 0.0
C4138 C 0.99267 0.21211 0.60681 0.0
C4139 C 0.02134 0.2371 0.64041 0.0
H4140 H 0.04944 0.24775 0.59819 0.0
C4141 C 0.08988 0.2727 0.64393 0.0
C4142 C 0.0934 0.2866 0.63167 0.0
C4143 C 0.07465 0.26194 0.64227 0.0
C4144 C 0.04159 0.2451 0.61007 0.0
H4145 H 0.9804 0.18424 0.64866 0.0
H4146 H 1.0034 0.20667 0.65072 0.0
H4147 H 0.02459 0.22698 0.59608 0.0
H4148 H 0.08341 0.29942 0.60761 0.0
H4149 H 0.05727 0.28018 0.60438 0.0
H4150 H 0.03897 0.25485 0.65443 0.0
C4151 C 0.99684 0.20495 0.63795 0.0
C4152 C 0.02714 0.23319 0.60888 0.0
C4153 C 0.98373 0.19159 0.63665 0.0
C4154 C 0.0814 0.28887 0.61729 0.0
C4155 C 0.06628 0.27789 0.61548 0.0
C4156 C 0.0359 0.24885 0.64161 0.0
C4157 C 1.00178 0.21533 0.62299 0.0
C4158 C 0.01676 0.22884 0.62407 0.0
C4159 C 0.06257 0.26444 0.6281 0.0
C4160 C 0.04635 0.25284 0.62651 0.0
H4161 H 0.97419 0.196 0.59234 0.0
H4162 H 0.99543 0.22002 0.59502 0.0
H4163 H 0.01365 0.23467 0.65241 0.0
H4164 H 0.09892 0.27 0.65489 0.0
H4165 H 0.07245 0.25144 0.65201 0.0
C4166 C 0.42711 0.71886 0.1255 0.0
C4167 C 0.41899 0.71725 0.14243 0.0
C4168 C 0.44194 0.73005 0.12296 0.0
C4169 C 0.47846 0.75398 0.14662 0.0
H4170 H 0.47702 0.78553 0.10556 0.0
C4171 C 0.52867 0.81287 0.13839 0.0
C4172 C 0.53306 0.81888 0.12107 0.0
C4173 C 0.51572 0.79955 0.14101 0.0
C4174 C 0.47798 0.77662 0.11692 0.0
H4175 H 0.42061 0.72602 0.17004 0.0
H4176 H 0.44649 0.74538 0.16562 0.0
H4177 H 0.45343 0.7637 0.10987 0.0
H4178 H 0.52731 0.81481 0.09289 0.0
H4179 H 0.50581 0.79109 0.09735 0.0
H4180 H 0.50323 0.76652 0.15349 0.0
C4181 C 0.44139 0.73791 0.15431 0.0
C4182 C 0.4643 0.76409 0.11942 0.0
C4183 C 0.42649 0.7268 0.15684 0.0
C4184 C 0.52454 0.8106 0.10646 0.0
C4185 C 0.51179 0.79713 0.10906 0.0
C4186 C 0.49234 0.76634 0.14397 0.0
C4187 C 0.44916 0.73988 0.13729 0.0
C4188 C 0.46426 0.75267 0.13435 0.0
C4189 C 0.50685 0.7916 0.12639 0.0
C4190 C 0.49229 0.77798 0.12912 0.0
H4191 H 0.42209 0.71136 0.11417 0.0
H4192 H 0.44781 0.73095 0.10975 0.0
H4193 H 0.47897 0.74528 0.15818 0.0
H4194 H 0.53513 0.81856 0.15003 0.0
H4195 H 0.51237 0.79586 0.1546 0.0
C4196 C 0.65311 0.45594 0.79606 0.0
C4197 C 0.6486 0.43774 0.79437 0.0
C4198 C 0.65102 0.46775 0.78162 0.0
C4199 C 0.62636 0.47245 0.73847 0.0
H4200 H 0.65882 0.5121 0.73108 0.0
C4201 C 0.60876 0.53098 0.69119 0.0
C4202 C 0.62245 0.54001 0.68194 0.0
C4203 C 0.6127 0.51766 0.70372 0.0
C4204 C 0.64969 0.501 0.73275 0.0
H4205 H 0.63883 0.41776 0.77569 0.0
H4206 H 0.63494 0.43824 0.75085 0.0
H4207 H 0.66463 0.49076 0.75494 0.0
H4208 H 0.65122 0.54137 0.67854 0.0
H4209 H 0.65805 0.51802 0.70013 0.0
H4210 H 0.61153 0.48249 0.71621 0.0
C4211 C 0.63984 0.44353 0.76341 0.0
C4212 C 0.65292 0.48884 0.74667 0.0
C4213 C 0.64201 0.43173 0.77778 0.0
C4214 C 0.64024 0.53484 0.68531 0.0
C4215 C 0.6442 0.5215 0.6979 0.0
C4216 C 0.62312 0.4846 0.7246 0.0
C4217 C 0.64422 0.46175 0.76509 0.0
C4218 C 0.64121 0.47445 0.74986 0.0
C4219 C 0.63049 0.51283 0.70747 0.0
C4220 C 0.63461 0.49921 0.72162 0.0
H4221 H 0.65797 0.46118 0.80865 0.0
H4222 H 0.65428 0.48171 0.78361 0.0
H4223 H 0.61689 0.46169 0.7405 0.0
H4224 H 0.59486 0.53412 0.68873 0.0
H4225 H 0.6017 0.51143 0.71075 0.0
C4226 C 0.84098 0.39098 0.03384 0.0
C4227 C 0.84184 0.37958 0.04881 0.0
C4228 C 0.82675 0.38996 0.02179 0.0
C4229 C 0.7917 0.3596 0.00515 0.0
H4230 H 0.77134 0.40324 0.98596 0.0
C4231 C 0.73285 0.35823 0.95494 0.0
C4232 C 0.73286 0.37089 0.94096 0.0
C4233 C 0.74506 0.3594 0.96905 0.0
C4234 C 0.77702 0.3909 0.99096 0.0
H4235 H 0.82818 0.35798 0.06256 0.0
H4236 H 0.80354 0.35596 0.04127 0.0
H4237 H 0.79462 0.40494 0.00864 0.0
H4238 H 0.74668 0.39437 0.93085 0.0
H4239 H 0.76781 0.39638 0.95532 0.0
H4240 H 0.77448 0.34552 0.98721 0.0
C4241 C 0.81394 0.36576 0.03897 0.0
C4242 C 0.79036 0.39189 0.00403 0.0
C4243 C 0.82813 0.36689 0.05116 0.0
C4244 C 0.74569 0.38466 0.94153 0.0
C4245 C 0.75792 0.38582 0.95565 0.0
C4246 C 0.77847 0.3586 0.99195 0.0
C4247 C 0.81301 0.37738 0.02422 0.0
C4248 C 0.79803 0.37626 0.01113 0.0
C4249 C 0.75776 0.37323 0.96965 0.0
C4250 C 0.77111 0.37425 0.98448 0.0
H4251 H 0.85146 0.40062 0.03123 0.0
H4252 H 0.82669 0.39884 0.01035 0.0
H4253 H 0.79741 0.3473 0.01021 0.0
H4254 H 0.72328 0.3474 0.95523 0.0
H4255 H 0.74438 0.3495 0.97958 0.0
C4256 C 0.88881 0.5659 0.28564 0.0
C4257 C 0.87096 0.56979 0.29015 0.0
C4258 C 0.89287 0.55343 0.27223 0.0
C4259 C 0.87304 0.52903 0.23333 0.0
H4260 H 0.91145 0.49546 0.24217 0.0
C4261 C 0.88344 0.46647 0.18857 0.0
C4262 C 0.90088 0.45984 0.18603 0.0
C4263 C 0.88006 0.48042 0.20064 0.0
C4264 C 0.90089 0.50489 0.2392 0.0
H4265 H 0.8434 0.5641 0.28314 0.0
H4266 H 0.85043 0.54249 0.25994 0.0
H4267 H 0.90581 0.51933 0.26338 0.0
H4268 H 0.92856 0.46366 0.19374 0.0
H4269 H 0.92279 0.48798 0.21442 0.0
H4270 H 0.86839 0.51489 0.2089 0.0
C4271 C 0.86137 0.54894 0.26688 0.0
C4272 C 0.89759 0.51863 0.25151 0.0
C4273 C 0.85731 0.56123 0.28042 0.0
C4274 C 0.91488 0.46793 0.19566 0.0
C4275 C 0.91153 0.48198 0.2076 0.0
C4276 C 0.87654 0.51548 0.22085 0.0
C4277 C 0.8792 0.54466 0.26272 0.0
C4278 C 0.88346 0.53076 0.24891 0.0
C4279 C 0.89405 0.48837 0.21044 0.0
C4280 C 0.89045 0.50309 0.22363 0.0
H4281 H 0.89972 0.57222 0.2927 0.0
H4282 H 0.90677 0.55072 0.26928 0.0
H4283 H 0.86225 0.53828 0.23065 0.0
H4284 H 0.8722 0.46048 0.18169 0.0
H4285 H 0.86635 0.48456 0.20265 0.0
C4286 C 0.77937 0.61459 0.44719 0.0
C4287 C 0.7774 0.62788 0.43406 0.0
C4288 C 0.76668 0.61278 0.46091 0.0
C4289 C 0.72717 0.63648 0.48154 0.0
H4290 H 0.7166 0.58934 0.50016 0.0
C4291 C 0.67118 0.62611 0.534 0.0
C4292 C 0.66143 0.61005 0.53363 0.0
C4293 C 0.68635 0.62835 0.52326 0.0
C4294 C 0.71914 0.60261 0.49495 0.0
H4295 H 0.76048 0.64941 0.42474 0.0
H4296 H 0.73803 0.64579 0.44785 0.0
H4297 H 0.74076 0.59308 0.47888 0.0
H4298 H 0.65993 0.5838 0.5215 0.0
H4299 H 0.68598 0.58781 0.5024 0.0
H4300 H 0.70481 0.64584 0.49652 0.0
C4301 C 0.74964 0.63718 0.44827 0.0
C4302 C 0.73335 0.60483 0.48292 0.0
C4303 C 0.76246 0.63919 0.43483 0.0
C4304 C 0.66722 0.59629 0.52221 0.0
C4305 C 0.68232 0.59858 0.51134 0.0
C4306 C 0.71273 0.6342 0.4932 0.0
C4307 C 0.75153 0.62401 0.46164 0.0
C4308 C 0.73741 0.62177 0.47574 0.0
C4309 C 0.69222 0.61463 0.51175 0.0
C4310 C 0.70829 0.61718 0.49995 0.0
H4311 H 0.79088 0.60581 0.44701 0.0
H4312 H 0.76887 0.60263 0.47099 0.0
H4313 H 0.7301 0.64987 0.4769 0.0
H4314 H 0.66731 0.63688 0.54287 0.0
H4315 H 0.69352 0.64086 0.5242 0.0
C4316 C 0.60269 0.4618 0.79299 0.0
C4317 C 0.60828 0.46274 0.81093 0.0
C4318 C 0.60502 0.47637 0.78145 0.0
C4319 C 0.63215 0.51781 0.77607 0.0
H4320 H 0.59742 0.52836 0.73917 0.0
C4321 C 0.64862 0.56527 0.71736 0.0
C4322 C 0.63489 0.57528 0.70928 0.0
C4323 C 0.64484 0.55277 0.73077 0.0
C4324 C 0.60724 0.52578 0.74946 0.0
H4325 H 0.62046 0.48011 0.83075 0.0
H4326 H 0.62493 0.50519 0.8106 0.0
H4327 H 0.59161 0.50441 0.76031 0.0
H4328 H 0.60632 0.58027 0.70983 0.0
H4329 H 0.59981 0.55883 0.73333 0.0
H4330 H 0.64767 0.53933 0.76545 0.0
C4331 C 0.61885 0.49314 0.80536 0.0
C4332 C 0.60397 0.51182 0.76151 0.0
C4333 C 0.61636 0.47865 0.81694 0.0
C4334 C 0.61731 0.57281 0.71553 0.0
C4335 C 0.61353 0.56031 0.72898 0.0
C4336 C 0.63542 0.53177 0.76403 0.0
C4337 C 0.61328 0.49221 0.78741 0.0
C4338 C 0.61645 0.50751 0.7749 0.0
C4339 C 0.62721 0.54992 0.73667 0.0
C4340 C 0.62314 0.53583 0.75035 0.0
H4341 H 0.59667 0.44972 0.78775 0.0
H4342 H 0.60069 0.47502 0.76771 0.0
H4343 H 0.64221 0.51484 0.78604 0.0
H4344 H 0.6624 0.56702 0.71335 0.0
H4345 H 0.65581 0.54503 0.73614 0.0
C4346 C 0.75775 0.36227 0.05902 0.0
C4347 C 0.77064 0.37586 0.0609 0.0
C4348 C 0.7448 0.36311 0.04557 0.0
C4349 C 0.72182 0.39498 0.01527 0.0
H4350 H 0.70527 0.35143 0.99248 0.0
C4351 C 0.6568 0.39294 0.97349 0.0
C4352 C 0.65677 0.38286 0.95757 0.0
C4353 C 0.67116 0.39199 0.98546 0.0
C4354 C 0.70978 0.36375 0.9986 0.0
H4355 H 0.78004 0.40091 0.04975 0.0
H4356 H 0.75728 0.4025 0.02636 0.0
H4357 H 0.73002 0.35018 0.01359 0.0
H4358 H 0.67207 0.36375 0.94196 0.0
H4359 H 0.69661 0.36163 0.96312 0.0
H4360 H 0.70175 0.40858 1.00003 0.0
C4361 C 0.75713 0.39122 0.03545 0.0
C4362 C 0.72388 0.36302 0.0109 0.0
C4363 C 0.77017 0.39035 0.04891 0.0
C4364 C 0.67137 0.37149 0.9542 0.0
C4365 C 0.68562 0.37039 0.96628 0.0
C4366 C 0.7077 0.39571 0.00297 0.0
C4367 C 0.74426 0.37759 0.03357 0.0
C4368 C 0.72999 0.37858 0.01958 0.0
C4369 C 0.68587 0.38082 0.98195 0.0
C4370 C 0.70135 0.38008 0.9946 0.0
H4371 H 0.7574 0.35108 0.0682 0.0
H4372 H 0.73492 0.35256 0.04489 0.0
H4373 H 0.72599 0.40724 0.02174 0.0
H4374 H 0.64568 0.4016 0.97676 0.0
H4375 H 0.67064 0.39991 0.99757 0.0
C4376 C 0.90003 0.5294 0.31368 0.0
C4377 C 0.88639 0.53902 0.32239 0.0
C4378 C 0.89596 0.51583 0.30144 0.0
C4379 C 0.88442 0.48227 0.28152 0.0
H4380 H 0.84543 0.49086 0.24858 0.0
C4381 C 0.84222 0.44467 0.22068 0.0
C4382 C 0.85622 0.43537 0.21222 0.0
C4383 C 0.84562 0.45646 0.23483 0.0
C4384 C 0.85615 0.48796 0.25783 0.0
H4385 H 0.85763 0.54129 0.32518 0.0
H4386 H 0.85056 0.51776 0.30384 0.0
H4387 H 0.85107 0.51191 0.27256 0.0
H4388 H 0.88495 0.43134 0.21241 0.0
H4389 H 0.89089 0.45207 0.23667 0.0
H4390 H 0.88921 0.45803 0.2671 0.0
C4391 C 0.86446 0.52085 0.30636 0.0
C4392 C 0.85947 0.50018 0.27162 0.0
C4393 C 0.86854 0.53432 0.31875 0.0
C4394 C 0.87372 0.43801 0.21864 0.0
C4395 C 0.87715 0.44994 0.2327 0.0
C4396 C 0.88091 0.46985 0.26792 0.0
C4397 C 0.87811 0.51149 0.2974 0.0
C4398 C 0.87382 0.4977 0.28351 0.0
C4399 C 0.86316 0.45946 0.24096 0.0
C4400 C 0.86679 0.47255 0.25575 0.0
H4401 H 0.91395 0.53226 0.31637 0.0
H4402 H 0.90688 0.50903 0.29483 0.0
H4403 H 0.89539 0.47967 0.29059 0.0
H4404 H 0.82849 0.44263 0.21662 0.0
H4405 H 0.83436 0.46303 0.24111 0.0
C4406 C 0.83997 0.60841 0.48071 0.0
C4407 C 0.84245 0.61982 0.46596 0.0
C4408 C 0.8246 0.60966 0.49133 0.0
C4409 C 0.78719 0.64027 0.50314 0.0
H4410 H 0.76678 0.59716 0.52347 0.0
C4411 C 0.7243 0.64234 0.54852 0.0
C4412 C 0.72495 0.63189 0.5642 0.0
C4413 C 0.73704 0.64022 0.53493 0.0
C4414 C 0.77238 0.60935 0.51801 0.0
H4415 H 0.83041 0.64132 0.45068 0.0
H4416 H 0.8036 0.64348 0.46915 0.0
H4417 H 0.79206 0.59496 0.50302 0.0
H4418 H 0.73998 0.61096 0.5776 0.0
H4419 H 0.76192 0.6072 0.55399 0.0
H4420 H 0.7676 0.65466 0.51828 0.0
C4421 C 0.81372 0.63378 0.47276 0.0
C4422 C 0.78694 0.6081 0.5063 0.0
C4423 C 0.82915 0.63258 0.46216 0.0
C4424 C 0.73862 0.61902 0.56566 0.0
C4425 C 0.75132 0.61686 0.55205 0.0
C4426 C 0.77262 0.64151 0.51486 0.0
C4427 C 0.81118 0.62229 0.48747 0.0
C4428 C 0.7948 0.62356 0.49895 0.0
C4429 C 0.75084 0.62757 0.53658 0.0
C4430 C 0.76523 0.6261 0.52274 0.0
H4431 H 0.84997 0.59851 0.4841 0.0
H4432 H 0.82336 0.60081 0.50273 0.0
H4433 H 0.7929 0.6525 0.4979 0.0
H4434 H 0.71393 0.65225 0.54667 0.0
H4435 H 0.7361 0.64857 0.52313 0.0
C4436 C 0.53279 0.69662 0.63552 0.0
C4437 C 0.53198 0.68434 0.62131 0.0
C4438 C 0.51989 0.71016 0.63723 0.0
C4439 C 0.48207 0.7322 0.61199 0.0
H4440 H 0.46794 0.74772 0.65932 0.0
C4441 C 0.42532 0.78413 0.62176 0.0
C4442 C 0.41446 0.78278 0.63705 0.0
C4443 C 0.44052 0.77336 0.61981 0.0
C4444 C 0.47147 0.74337 0.64597 0.0
H4445 H 0.51673 0.67641 0.59802 0.0
H4446 H 0.49403 0.69926 0.60128 0.0
H4447 H 0.49245 0.72678 0.65602 0.0
H4448 H 0.41105 0.76876 0.66218 0.0
H4449 H 0.43727 0.74985 0.65873 0.0
H4450 H 0.46036 0.74773 0.60199 0.0
C4451 C 0.50493 0.69915 0.61078 0.0
C4452 C 0.48589 0.73154 0.64403 0.0
C4453 C 0.51795 0.68586 0.60893 0.0
C4454 C 0.41921 0.77032 0.65032 0.0
C4455 C 0.4344 0.75953 0.64836 0.0
C4456 C 0.46741 0.74367 0.61395 0.0
C4457 C 0.50566 0.71161 0.62492 0.0
C4458 C 0.49125 0.72549 0.62701 0.0
C4459 C 0.44543 0.76094 0.63312 0.0
C4460 C 0.46168 0.7493 0.63099 0.0
H4461 H 0.54353 0.69589 0.6452 0.0
H4462 H 0.52119 0.71952 0.64819 0.0
H4463 H 0.486 0.72844 0.59858 0.0
H4464 H 0.42229 0.7938 0.61141 0.0
H4465 H 0.4485 0.77501 0.60789 0.0
C4466 C 0.38758 0.56609 0.21772 0.0
C4467 C 0.36978 0.57079 0.21379 0.0
C4468 C 0.39151 0.55336 0.23094 0.0
C4469 C 0.37048 0.52886 0.26959 0.0
H4470 H 0.41121 0.49741 0.26393 0.0
C4471 C 0.38118 0.46725 0.31555 0.0
C4472 C 0.39876 0.46342 0.32095 0.0
C4473 C 0.37781 0.48027 0.30245 0.0
C4474 C 0.39991 0.50623 0.2659 0.0
H4475 H 0.34218 0.56539 0.2209 0.0
H4476 H 0.34891 0.54275 0.24302 0.0
H4477 H 0.40565 0.52057 0.24185 0.0
H4478 H 0.4266 0.47005 0.31648 0.0
H4479 H 0.42077 0.49281 0.29393 0.0
H4480 H 0.36478 0.51444 0.29366 0.0
C4481 C 0.35996 0.54927 0.23636 0.0
C4482 C 0.39672 0.51964 0.25319 0.0
C4483 C 0.35606 0.56211 0.2233 0.0
C4484 C 0.41288 0.47276 0.31276 0.0
C4485 C 0.40953 0.4857 0.29965 0.0
C4486 C 0.37371 0.5155 0.28232 0.0
C4487 C 0.37775 0.54477 0.24055 0.0
C4488 C 0.38181 0.53106 0.25468 0.0
C4489 C 0.39195 0.48975 0.29436 0.0
C4490 C 0.38843 0.50393 0.28064 0.0
H4491 H 0.39856 0.57213 0.21049 0.0
H4492 H 0.40539 0.55043 0.23372 0.0
H4493 H 0.35913 0.5376 0.27161 0.0
H4494 H 0.36999 0.46033 0.32159 0.0
H4495 H 0.36411 0.48274 0.29852 0.0
C4496 C 0.2757 0.64873 0.06151 0.0
C4497 C 0.28577 0.63417 0.06798 0.0
C4498 C 0.26323 0.64644 0.04772 0.0
C4499 C 0.23406 0.61216 0.02823 0.0
H4500 H 0.22737 0.64645 0.98999 0.0
C4501 C 0.17895 0.60092 0.97533 0.0
C4502 C 0.1706 0.61578 0.96729 0.0
C4503 C 0.19411 0.60299 0.9861 0.0
C4504 C 0.22877 0.63682 1.00069 0.0
H4505 H 0.29111 0.60591 0.06406 0.0
H4506 H 0.26898 0.60186 0.04042 0.0
H4507 H 0.25183 0.65039 0.01108 0.0
H4508 H 0.17249 0.64461 0.9642 0.0
H4509 H 0.19779 0.64835 0.984 0.0
H4510 H 0.21077 0.59894 0.01858 0.0
C4511 C 0.27069 0.61504 0.04618 0.0
C4512 C 0.24293 0.63909 0.01278 0.0
C4513 C 0.28334 0.61736 0.05982 0.0
C4514 C 0.17807 0.6328 0.97042 0.0
C4515 C 0.193 0.63492 0.98158 0.0
C4516 C 0.21977 0.61003 0.01634 0.0
C4517 C 0.26029 0.6295 0.04013 0.0
C4518 C 0.24575 0.62678 0.02671 0.0
C4519 C 0.20126 0.62005 0.98973 0.0
C4520 C 0.21685 0.62229 0.00229 0.0
H4521 H 0.2769 0.66184 0.06752 0.0
H4522 H 0.25534 0.65783 0.04352 0.0
H4523 H 0.23562 0.60261 0.03901 0.0
H4524 H 0.1737 0.58756 0.97355 0.0
H4525 H 0.20018 0.59105 0.99156 0.0
C4526 C 0.13348 0.52694 0.82626 0.0
C4527 C 0.11573 0.53164 0.83039 0.0
C4528 C 0.13723 0.51369 0.81348 0.0
C4529 C 0.11548 0.48847 0.77574 0.0
H4530 H 0.15856 0.45984 0.77821 0.0
C4531 C 0.1287 0.42763 0.72896 0.0
C4532 C 0.14579 0.42656 0.7211 0.0
C4533 C 0.12506 0.44014 0.74248 0.0
C4534 C 0.1465 0.4678 0.77729 0.0
H4535 H 0.08805 0.52483 0.82514 0.0
H4536 H 0.0945 0.50162 0.80342 0.0
H4537 H 0.15218 0.48143 0.8018 0.0
H4538 H 0.17229 0.43837 0.72131 0.0
H4539 H 0.16599 0.45987 0.74502 0.0
H4540 H 0.10964 0.47436 0.75145 0.0
C4541 C 0.10563 0.50869 0.80937 0.0
C4542 C 0.14284 0.4803 0.7908 0.0
C4543 C 0.10189 0.52208 0.82195 0.0
C4544 C 0.15908 0.43845 0.7272 0.0
C4545 C 0.15547 0.45084 0.74081 0.0
C4546 C 0.11897 0.47573 0.76243 0.0
C4547 C 0.12336 0.50446 0.80465 0.0
C4548 C 0.12726 0.49089 0.79028 0.0
C4549 C 0.13842 0.45187 0.74863 0.0
C4550 C 0.13456 0.46526 0.76298 0.0
H4551 H 0.14454 0.53407 0.83229 0.0
H4552 H 0.15107 0.51119 0.81011 0.0
H4553 H 0.10361 0.49663 0.7744 0.0
H4554 H 0.11815 0.41862 0.72487 0.0
H4555 H 0.11181 0.4405 0.74828 0.0
C4556 C 0.23496 0.35965 0.55959 0.0
C4557 C 0.22649 0.37472 0.56711 0.0
C4558 C 0.24813 0.36158 0.54639 0.0
C4559 C 0.28162 0.39402 0.53065 0.0
H4560 H 0.28587 0.36271 0.4896 0.0
C4561 C 0.33706 0.4058 0.47822 0.0
C4562 C 0.34416 0.39124 0.46861 0.0
C4563 C 0.32211 0.40373 0.48928 0.0
C4564 C 0.28514 0.37145 0.5011 0.0
H4565 H 0.22472 0.40365 0.56563 0.0
H4566 H 0.2479 0.40698 0.54291 0.0
H4567 H 0.26087 0.35908 0.51016 0.0
H4568 H 0.34054 0.36293 0.46323 0.0
H4569 H 0.31543 0.35904 0.48341 0.0
H4570 H 0.30619 0.40583 0.52239 0.0
C4571 C 0.24448 0.39366 0.54747 0.0
C4572 C 0.27067 0.36939 0.51287 0.0
C4573 C 0.2312 0.39174 0.56055 0.0
C4574 C 0.33582 0.37446 0.47061 0.0
C4575 C 0.32105 0.3723 0.482 0.0
C4576 C 0.29626 0.39583 0.51913 0.0
C4577 C 0.25336 0.37863 0.54045 0.0
C4578 C 0.26862 0.38078 0.52771 0.0
C4579 C 0.31392 0.38691 0.49157 0.0
C4580 C 0.29824 0.3847 0.50402 0.0
H4581 H 0.23192 0.34632 0.56434 0.0
H4582 H 0.25474 0.3497 0.54138 0.0
H4583 H 0.28074 0.40274 0.54219 0.0
H4584 H 0.34309 0.41893 0.47736 0.0
H4585 H 0.31695 0.4155 0.49592 0.0
C4586 C 0.34908 0.44178 0.27763 0.0
C4587 C 0.36328 0.43342 0.28669 0.0
C4588 C 0.35232 0.45439 0.26413 0.0
C4589 C 0.38833 0.47099 0.23351 0.0
H4590 H 0.35605 0.51098 0.22717 0.0
C4591 C 0.40711 0.53016 0.18771 0.0
C4592 C 0.39369 0.53892 0.1779 0.0
C4593 C 0.40278 0.5173 0.20062 0.0
C4594 C 0.36512 0.4998 0.22853 0.0
H4595 H 0.39215 0.43227 0.2888 0.0
H4596 H 0.39782 0.45442 0.26561 0.0
H4597 H 0.35024 0.48919 0.25054 0.0
H4598 H 0.36504 0.54119 0.17438 0.0
H4599 H 0.35744 0.51863 0.19672 0.0
H4600 H 0.40346 0.48183 0.21181 0.0
C4601 C 0.38411 0.45085 0.2685 0.0
C4602 C 0.36175 0.48719 0.24201 0.0
C4603 C 0.38085 0.43812 0.2819 0.0
C4604 C 0.37574 0.53476 0.18169 0.0
C4605 C 0.37139 0.52178 0.19456 0.0
C4606 C 0.39182 0.48371 0.2202 0.0
C4607 C 0.36989 0.45915 0.25932 0.0
C4608 C 0.37335 0.4726 0.2448 0.0
C4609 C 0.38486 0.51267 0.20409 0.0
C4610 C 0.38042 0.49849 0.21763 0.0
H4611 H 0.33537 0.4383 0.28067 0.0
H4612 H 0.34098 0.46013 0.25724 0.0
H4613 H 0.39736 0.45976 0.2348 0.0
H4614 H 0.42106 0.53332 0.18549 0.0
H4615 H 0.41357 0.51113 0.20801 0.0
C4616 C 0.33042 0.62938 0.03389 0.0
C4617 C 0.3396 0.61292 0.03448 0.0
C4618 C 0.31538 0.63162 0.02289 0.0
C4619 C 0.27975 0.60724 0.99883 0.0
H4620 H 0.27966 0.64805 0.96694 0.0
C4621 C 0.22914 0.61276 0.94007 0.0
C4622 C 0.22442 0.62975 0.93341 0.0
C4623 C 0.2421 0.61089 0.95351 0.0
C4624 C 0.2791 0.63674 0.97595 0.0
H4625 H 0.33974 0.5859 0.02381 0.0
H4626 H 0.3134 0.58975 0.00508 0.0
H4627 H 0.30345 0.64477 0.98877 0.0
H4628 H 0.2296 0.65818 0.93654 0.0
H4629 H 0.25096 0.65502 0.96052 0.0
H4630 H 0.25516 0.59942 0.98656 0.0
C4631 C 0.31786 0.6009 0.01319 0.0
C4632 C 0.2929 0.63485 0.98847 0.0
C4633 C 0.33301 0.59871 0.02399 0.0
C4634 C 0.23259 0.64482 0.94123 0.0
C4635 C 0.24529 0.64297 0.95486 0.0
C4636 C 0.26572 0.60931 0.98656 0.0
C4637 C 0.30897 0.61742 0.01234 0.0
C4638 C 0.29354 0.61997 0.99992 0.0
C4639 C 0.25061 0.62596 0.961 0.0
C4640 C 0.26523 0.62401 0.97472 0.0
H4641 H 0.33472 0.64053 0.04207 0.0
H4642 H 0.30867 0.64446 0.02274 0.0
H4643 H 0.27974 0.59572 0.00761 0.0
H4644 H 0.22295 0.60078 0.93482 0.0
H4645 H 0.24573 0.5975 0.95762 0.0
C4646 C 0.11235 0.48486 0.6705 0.0
C4647 C 0.11265 0.46663 0.67508 0.0
C4648 C 0.11603 0.49803 0.68334 0.0
C4649 C 0.13506 0.5042 0.72951 0.0
H4650 H 0.11117 0.5501 0.72625 0.0
C4651 C 0.13616 0.55638 0.78694 0.0
C4652 C 0.14029 0.57408 0.78217 0.0
C4653 C 0.13265 0.54346 0.77383 0.0
C4654 C 0.11802 0.53738 0.72728 0.0
H4655 H 0.11678 0.44796 0.69679 0.0
H4656 H 0.1225 0.47082 0.71929 0.0
H4657 H 0.10533 0.52724 0.70376 0.0
H4658 H 0.14335 0.59217 0.7597 0.0
H4659 H 0.13708 0.56962 0.73681 0.0
H4660 H 0.14717 0.51424 0.75349 0.0
C4661 C 0.12007 0.47504 0.7057 0.0
C4662 C 0.11478 0.52424 0.7143 0.0
C4663 C 0.1167 0.46188 0.6928 0.0
C4664 C 0.14042 0.57862 0.76388 0.0
C4665 C 0.13669 0.56573 0.75076 0.0
C4666 C 0.13803 0.51722 0.74267 0.0
C4667 C 0.11981 0.49335 0.70122 0.0
C4668 C 0.12329 0.50744 0.71514 0.0
C4669 C 0.13297 0.54793 0.75558 0.0
C4670 C 0.12962 0.53401 0.74167 0.0
H4671 H 0.10947 0.48894 0.6569 0.0
H4672 H 0.11605 0.51188 0.67914 0.0
H4673 H 0.14222 0.49167 0.73054 0.0
H4674 H 0.13604 0.55247 0.80083 0.0
H4675 H 0.12962 0.52994 0.77793 0.0
C4676 C 0.17 0.39232 0.52397 0.0
C4677 C 0.16718 0.38011 0.53812 0.0
C4678 C 0.18507 0.39105 0.51293 0.0
C4679 C 0.21543 0.36023 0.49263 0.0
H4680 H 0.24822 0.4 0.48738 0.0
C4681 C 0.2756 0.3549 0.44432 0.0
C4682 C 0.28207 0.3704 0.43574 0.0
C4683 C 0.26289 0.35597 0.45804 0.0
C4684 C 0.23905 0.38886 0.48829 0.0
H4685 H 0.17843 0.35669 0.55114 0.0
H4686 H 0.20415 0.35404 0.5312 0.0
H4687 H 0.22364 0.40199 0.50869 0.0
H4688 H 0.2803 0.3994 0.43587 0.0
H4689 H 0.2574 0.40119 0.45861 0.0
H4690 H 0.22986 0.34736 0.47168 0.0
C4691 C 0.19471 0.3648 0.52907 0.0
C4692 C 0.22506 0.38997 0.50074 0.0
C4693 C 0.17982 0.36629 0.54042 0.0
C4694 C 0.27551 0.38704 0.44167 0.0
C4695 C 0.26247 0.3881 0.45513 0.0
C4696 C 0.22914 0.35925 0.47989 0.0
C4697 C 0.19755 0.37728 0.51532 0.0
C4698 C 0.21308 0.37569 0.50298 0.0
C4699 C 0.25577 0.37256 0.46347 0.0
C4700 C 0.24123 0.37355 0.47742 0.0
H4701 H 0.1605 0.40284 0.52115 0.0
H4702 H 0.18677 0.40067 0.50222 0.0
H4703 H 0.20625 0.34911 0.49395 0.0
H4704 H 0.27995 0.34173 0.44022 0.0
H4705 H 0.25869 0.34364 0.46433 0.0
C4706 C 0.48348 0.30774 0.39984 0.0
C4707 C 0.47479 0.31502 0.38475 0.0
C4708 C 0.49661 0.29449 0.39793 0.0
C4709 C 0.53065 0.27982 0.3664 0.0
H4710 H 0.53386 0.23706 0.39542 0.0
C4711 C 0.58774 0.22919 0.35463 0.0
C4712 C 0.5936 0.218 0.36861 0.0
C4713 C 0.57268 0.2401 0.35662 0.0
C4714 C 0.53344 0.24902 0.38733 0.0
H4715 H 0.47252 0.31282 0.35586 0.0
H4716 H 0.49597 0.29041 0.35259 0.0
H4717 H 0.50836 0.25701 0.39885 0.0
H4718 H 0.58774 0.20989 0.39588 0.0
H4719 H 0.56265 0.22993 0.3999 0.0
H4720 H 0.55596 0.27273 0.35553 0.0
C4721 C 0.49258 0.29509 0.36588 0.0
C4722 C 0.51868 0.26044 0.38928 0.0
C4723 C 0.4792 0.30806 0.36779 0.0
C4724 C 0.58403 0.21848 0.38484 0.0
C4725 C 0.56922 0.2298 0.38701 0.0
C4726 C 0.54557 0.26866 0.36473 0.0
C4727 C 0.50164 0.28836 0.3809 0.0
C4728 C 0.51705 0.2759 0.37873 0.0
C4729 C 0.56318 0.24078 0.37289 0.0
C4730 C 0.54722 0.25292 0.37502 0.0
H4731 H 0.48075 0.31277 0.41313 0.0
H4732 H 0.50342 0.28966 0.40976 0.0
H4733 H 0.52999 0.29184 0.35834 0.0
H4734 H 0.59475 0.22959 0.34198 0.0
H4735 H 0.56847 0.24783 0.34515 0.0
loop_
_geom_bond_atom_site_label_1
_geom_bond_atom_site_label_2
_geom_bond_distance
_geom_bond_site_symmetry_2
_ccdc_geom_bond_type
Li0 N17 1.990 . S
Li0 O60 1.956 . S
Li0 O61 1.970 . S
Li0 O62 1.961 . S
Li1 N25 1.990 . S
Li1 O60 1.970 . S
Li1 O61 1.956 . S
Li1 O63 1.961 . S
Li2 N47 1.990 . S
Li2 O60 1.961 . S
Li2 O62 1.956 . S
Li2 O63 1.970 . S
Li3 N53 1.990 . S
Li3 O61 1.961 . S
Li3 O62 1.970 . S
Li3 O63 1.956 . S
C4 C6 1.348 . S
C4 C7 1.356 . S
C4 O60 1.325 . S
N5 C8 1.314 . S
N5 C9 1.279 . S
C6 C4 1.348 . S
C6 C8 1.353 . S
C6 H64 0.929 . S
C7 C4 1.356 . S
C7 C9 1.358 . S
C7 H65 0.930 . S
C8 N5 1.314 . S
C8 C6 1.353 . S
C8 H66 0.930 . S
C9 N5 1.279 . S
C9 C7 1.358 . S
C9 H67 0.930 . S
C10 C13 1.348 . S
C10 C14 1.356 . S
C10 O61 1.325 . S
C11 N12 1.279 . S
C11 C14 1.358 . S
C11 H68 0.930 . S
N12 C11 1.279 . S
N12 C15 1.314 . S
C13 C10 1.348 . S
C13 C15 1.353 . S
C13 H69 0.929 . S
C14 C10 1.356 . S
C14 C11 1.358 . S
C14 H70 0.930 . S
C15 N12 1.314 . S
C15 C13 1.353 . S
C15 H71 0.930 . S
C16 N17 1.314 . S
C16 C21 1.353 . S
C16 H22 0.930 . S
N17 Li0 1.990 . S
N17 C16 1.314 . S
N17 C19 1.279 . S
C18 C19 1.358 . S
C18 C20 1.356 . S
C18 H72 0.930 . S
C19 N17 1.279 . S
C19 C18 1.358 . S
C19 H23 0.930 . S
C20 C18 1.356 . S
C20 C21 1.348 . S
C21 C16 1.353 . S
C21 C20 1.348 . S
C21 H73 0.929 . S
H22 C16 0.930 . S
H23 C19 0.930 . S
C24 N25 1.314 . S
C24 C26 1.353 . S
C24 H30 0.930 . S
N25 Li1 1.990 . S
N25 C24 1.314 . S
N25 C28 1.279 . S
C26 C24 1.353 . S
C26 C29 1.348 . S
C26 H74 0.929 . S
C27 C28 1.358 . S
C27 C29 1.356 . S
C27 H75 0.930 . S
C28 N25 1.279 . S
C28 C27 1.358 . S
C28 H31 0.930 . S
C29 C26 1.348 . S
C29 C27 1.356 . S
H30 C24 0.930 . S
H31 C28 0.930 . S
C32 C34 1.348 . S
C32 C35 1.356 . S
C32 O62 1.325 . S
N33 C36 1.314 . S
N33 C37 1.279 . S
C34 C32 1.348 . S
C34 C36 1.353 . S
C34 H76 0.929 . S
C35 C32 1.356 . S
C35 C37 1.358 . S
C35 H77 0.930 . S
C36 N33 1.314 . S
C36 C34 1.353 . S
C36 H78 0.930 . S
C37 N33 1.279 . S
C37 C35 1.358 . S
C37 H79 0.930 . S
C38 C39 1.348 . S
C38 C40 1.356 . S
C38 O63 1.325 . S
C39 C38 1.348 . S
C39 C41 1.353 . S
C39 H80 0.929 . S
C40 C38 1.356 . S
C40 C42 1.358 . S
C40 H81 0.930 . S
C41 C39 1.353 . S
C41 N43 1.314 . S
C41 H82 0.930 . S
C42 C40 1.358 . S
C42 N43 1.279 . S
C42 H83 0.930 . S
N43 C41 1.314 . S
N43 C42 1.279 . S
C44 C46 1.353 . S
C44 N47 1.314 . S
C44 H50 0.930 . S
C45 N47 1.279 . S
C45 C48 1.358 . S
C45 H51 0.930 . S
C46 C44 1.353 . S
C46 C49 1.348 . S
C46 H84 0.929 . S
N47 Li2 1.990 . S
N47 C44 1.314 . S
N47 C45 1.279 . S
C48 C45 1.358 . S
C48 C49 1.356 . S
C48 H85 0.930 . S
C49 C46 1.348 . S
C49 C48 1.356 . S
H50 C44 0.930 . S
H51 C45 0.930 . S
C52 N53 1.314 . S
C52 C54 1.353 . S
C52 H58 0.930 . S
N53 Li3 1.990 . S
N53 C52 1.314 . S
N53 C56 1.279 . S
C54 C52 1.353 . S
C54 C57 1.348 . S
C54 H86 0.929 . S
C55 C56 1.358 . S
C55 C57 1.356 . S
C55 H87 0.930 . S
C56 N53 1.279 . S
C56 C55 1.358 . S
C56 H59 0.930 . S
C57 C54 1.348 . S
C57 C55 1.356 . S
H58 C52 0.930 . S
H59 C56 0.930 . S
O60 Li0 1.956 . S
O60 Li1 1.970 . S
O60 Li2 1.961 . S
O60 C4 1.325 . S
O61 Li0 1.970 . S
O61 Li1 1.956 . S
O61 Li3 1.961 . S
O61 C10 1.325 . S
O62 Li0 1.961 . S
O62 Li2 1.956 . S
O62 Li3 1.970 . S
O62 C32 1.325 . S
O63 Li1 1.961 . S
O63 Li2 1.970 . S
O63 Li3 1.956 . S
O63 C38 1.325 . S
H64 C6 0.929 . S
H65 C7 0.930 . S
H66 C8 0.930 . S
H67 C9 0.930 . S
H68 C11 0.930 . S
H69 C13 0.929 . S
H70 C14 0.930 . S
H71 C15 0.930 . S
H72 C18 0.930 . S
H73 C21 0.929 . S
H74 C26 0.929 . S
H75 C27 0.930 . S
H76 C34 0.929 . S
H77 C35 0.930 . S
H78 C36 0.930 . S
H79 C37 0.930 . S
H80 C39 0.929 . S
H81 C40 0.930 . S
H82 C41 0.930 . S
H83 C42 0.930 . S
H84 C46 0.929 . S
H85 C48 0.930 . S
H86 C54 0.929 . S
H87 C55 0.930 . S
Li88 N105 1.990 . S
Li88 O148 1.956 . S
Li88 O149 1.970 . S
Li88 O150 1.961 . S
Li89 N113 1.990 . S
Li89 O148 1.970 . S
Li89 O149 1.956 . S
Li89 O151 1.961 . S
Li90 N135 1.990 . S
Li90 O148 1.961 . S
Li90 O150 1.956 . S
Li90 O151 1.970 . S
Li91 N141 1.990 . S
Li91 O149 1.961 . S
Li91 O150 1.970 . S
Li91 O151 1.956 . S
C92 C94 1.348 . S
C92 C95 1.356 . S
C92 O148 1.325 . S
N93 C96 1.314 . S
N93 C97 1.279 . S
C94 C92 1.348 . S
C94 C96 1.353 . S
C94 H152 0.929 . S
C95 C92 1.356 . S
C95 C97 1.358 . S
C95 H153 0.930 . S
C96 N93 1.314 . S
C96 C94 1.353 . S
C96 H154 0.930 . S
C97 N93 1.279 . S
C97 C95 1.358 . S
C97 H155 0.930 . S
C98 C101 1.348 . S
C98 C102 1.356 . S
C98 O149 1.325 . S
C99 N100 1.279 . S
C99 C102 1.358 . S
C99 H156 0.930 . S
N100 C99 1.279 . S
N100 C103 1.314 . S
C101 C98 1.348 . S
C101 C103 1.353 . S
C101 H157 0.929 . S
C102 C98 1.356 . S
C102 C99 1.358 . S
C102 H158 0.930 . S
C103 N100 1.314 . S
C103 C101 1.353 . S
C103 H159 0.930 . S
C104 N105 1.314 . S
C104 C109 1.353 . S
C104 H110 0.930 . S
N105 Li88 1.990 . S
N105 C104 1.314 . S
N105 C107 1.279 . S
C106 C107 1.358 . S
C106 C108 1.356 . S
C106 H160 0.930 . S
C107 N105 1.279 . S
C107 C106 1.358 . S
C107 H111 0.930 . S
C108 C106 1.356 . S
C108 C109 1.348 . S
C109 C104 1.353 . S
C109 C108 1.348 . S
C109 H161 0.929 . S
H110 C104 0.930 . S
H111 C107 0.930 . S
C112 N113 1.314 . S
C112 C114 1.353 . S
C112 H118 0.930 . S
N113 Li89 1.990 . S
N113 C112 1.314 . S
N113 C116 1.279 . S
C114 C112 1.353 . S
C114 C117 1.348 . S
C114 H162 0.929 . S
C115 C116 1.358 . S
C115 C117 1.356 . S
C115 H163 0.930 . S
C116 N113 1.279 . S
C116 C115 1.358 . S
C116 H119 0.930 . S
C117 C114 1.348 . S
C117 C115 1.356 . S
H118 C112 0.930 . S
H119 C116 0.930 . S
C120 C122 1.348 . S
C120 C123 1.356 . S
C120 O150 1.325 . S
N121 C124 1.314 . S
N121 C125 1.279 . S
C122 C120 1.348 . S
C122 C124 1.353 . S
C122 H164 0.929 . S
C123 C120 1.356 . S
C123 C125 1.358 . S
C123 H165 0.930 . S
C124 N121 1.314 . S
C124 C122 1.353 . S
C124 H166 0.930 . S
C125 N121 1.279 . S
C125 C123 1.358 . S
C125 H167 0.930 . S
C126 C127 1.348 . S
C126 C128 1.356 . S
C126 O151 1.325 . S
C127 C126 1.348 . S
C127 C129 1.353 . S
C127 H168 0.929 . S
C128 C126 1.356 . S
C128 C130 1.358 . S
C128 H169 0.930 . S
C129 C127 1.353 . S
C129 N131 1.314 . S
C129 H170 0.930 . S
C130 C128 1.358 . S
C130 N131 1.279 . S
C130 H171 0.930 . S
N131 C129 1.314 . S
N131 C130 1.279 . S
C132 C134 1.353 . S
C132 N135 1.314 . S
C132 H138 0.930 . S
C133 N135 1.279 . S
C133 C136 1.358 . S
C133 H139 0.930 . S
C134 C132 1.353 . S
C134 C137 1.348 . S
C134 H172 0.929 . S
N135 Li90 1.990 . S
N135 C132 1.314 . S
N135 C133 1.279 . S
C136 C133 1.358 . S
C136 C137 1.356 . S
C136 H173 0.930 . S
C137 C134 1.348 . S
C137 C136 1.356 . S
H138 C132 0.930 . S
H139 C133 0.930 . S
C140 N141 1.314 . S
C140 C142 1.353 . S
C140 H146 0.930 . S
N141 Li91 1.990 . S
N141 C140 1.314 . S
N141 C144 1.279 . S
C142 C140 1.353 . S
C142 C145 1.348 . S
C142 H174 0.929 . S
C143 C144 1.358 . S
C143 C145 1.356 . S
C143 H175 0.930 . S
C144 N141 1.279 . S
C144 C143 1.358 . S
C144 H147 0.930 . S
C145 C142 1.348 . S
C145 C143 1.356 . S
H146 C140 0.930 . S
H147 C144 0.930 . S
O148 Li88 1.956 . S
O148 Li89 1.970 . S
O148 Li90 1.961 . S
O148 C92 1.325 . S
O149 Li88 1.970 . S
O149 Li89 1.956 . S
O149 Li91 1.961 . S
O149 C98 1.325 . S
O150 Li88 1.961 . S
O150 Li90 1.956 . S
O150 Li91 1.970 . S
O150 C120 1.325 . S
O151 Li89 1.961 . S
O151 Li90 1.970 . S
O151 Li91 1.956 . S
O151 C126 1.325 . S
H152 C94 0.929 . S
H153 C95 0.930 . S
H154 C96 0.930 . S
H155 C97 0.930 . S
H156 C99 0.930 . S
H157 C101 0.929 . S
H158 C102 0.930 . S
H159 C103 0.930 . S
H160 C106 0.930 . S
H161 C109 0.929 . S
H162 C114 0.929 . S
H163 C115 0.930 . S
H164 C122 0.929 . S
H165 C123 0.930 . S
H166 C124 0.930 . S
H167 C125 0.930 . S
H168 C127 0.929 . S
H169 C128 0.930 . S
H170 C129 0.930 . S
H171 C130 0.930 . S
H172 C134 0.929 . S
H173 C136 0.930 . S
H174 C142 0.929 . S
H175 C143 0.930 . S
Li176 N193 1.990 . S
Li176 O236 1.956 . S
Li176 O237 1.970 . S
Li176 O238 1.961 . S
Li177 N201 1.990 . S
Li177 O236 1.970 . S
Li177 O237 1.956 . S
Li177 O239 1.961 . S
Li178 N223 1.990 . S
Li178 O236 1.961 . S
Li178 O238 1.956 . S
Li178 O239 1.970 . S
Li179 N229 1.990 . S
Li179 O237 1.961 . S
Li179 O238 1.970 . S
Li179 O239 1.956 . S
C180 C182 1.348 . S
C180 C183 1.356 . S
C180 O236 1.325 . S
N181 C184 1.314 . S
N181 C185 1.279 . S
C182 C180 1.348 . S
C182 C184 1.353 . S
C182 H240 0.929 . S
C183 C180 1.356 . S
C183 C185 1.358 . S
C183 H241 0.930 . S
C184 N181 1.314 . S
C184 C182 1.353 . S
C184 H242 0.930 . S
C185 N181 1.279 . S
C185 C183 1.358 . S
C185 H243 0.930 . S
C186 C189 1.348 . S
C186 C190 1.356 . S
C186 O237 1.325 . S
C187 N188 1.279 . S
C187 C190 1.358 . S
C187 H244 0.930 . S
N188 C187 1.279 . S
N188 C191 1.314 . S
C189 C186 1.348 . S
C189 C191 1.353 . S
C189 H245 0.929 . S
C190 C186 1.356 . S
C190 C187 1.358 . S
C190 H246 0.930 . S
C191 N188 1.314 . S
C191 C189 1.353 . S
C191 H247 0.930 . S
C192 N193 1.314 . S
C192 C197 1.353 . S
C192 H198 0.930 . S
N193 Li176 1.990 . S
N193 C192 1.314 . S
N193 C195 1.279 . S
C194 C195 1.358 . S
C194 C196 1.356 . S
C194 H248 0.930 . S
C195 N193 1.279 . S
C195 C194 1.358 . S
C195 H199 0.930 . S
C196 C194 1.356 . S
C196 C197 1.348 . S
C197 C192 1.353 . S
C197 C196 1.348 . S
C197 H249 0.929 . S
H198 C192 0.930 . S
H199 C195 0.930 . S
C200 N201 1.314 . S
C200 C202 1.353 . S
C200 H206 0.930 . S
N201 Li177 1.990 . S
N201 C200 1.314 . S
N201 C204 1.279 . S
C202 C200 1.353 . S
C202 C205 1.348 . S
C202 H250 0.929 . S
C203 C204 1.358 . S
C203 C205 1.356 . S
C203 H251 0.930 . S
C204 N201 1.279 . S
C204 C203 1.358 . S
C204 H207 0.930 . S
C205 C202 1.348 . S
C205 C203 1.356 . S
H206 C200 0.930 . S
H207 C204 0.930 . S
C208 C210 1.348 . S
C208 C211 1.356 . S
C208 O238 1.325 . S
N209 C212 1.314 . S
N209 C213 1.279 . S
C210 C208 1.348 . S
C210 C212 1.353 . S
C210 H252 0.929 . S
C211 C208 1.356 . S
C211 C213 1.358 . S
C211 H253 0.930 . S
C212 N209 1.314 . S
C212 C210 1.353 . S
C212 H254 0.930 . S
C213 N209 1.279 . S
C213 C211 1.358 . S
C213 H255 0.930 . S
C214 C215 1.348 . S
C214 C216 1.356 . S
C214 O239 1.325 . S
C215 C214 1.348 . S
C215 C217 1.353 . S
C215 H256 0.929 . S
C216 C214 1.356 . S
C216 C218 1.358 . S
C216 H257 0.930 . S
C217 C215 1.353 . S
C217 N219 1.314 . S
C217 H258 0.930 . S
C218 C216 1.358 . S
C218 N219 1.279 . S
C218 H259 0.930 . S
N219 C217 1.314 . S
N219 C218 1.279 . S
C220 C222 1.353 . S
C220 N223 1.314 . S
C220 H226 0.930 . S
C221 N223 1.279 . S
C221 C224 1.358 . S
C221 H227 0.930 . S
C222 C220 1.353 . S
C222 C225 1.348 . S
C222 H260 0.929 . S
N223 Li178 1.990 . S
N223 C220 1.314 . S
N223 C221 1.279 . S
C224 C221 1.358 . S
C224 C225 1.356 . S
C224 H261 0.930 . S
C225 C222 1.348 . S
C225 C224 1.356 . S
H226 C220 0.930 . S
H227 C221 0.930 . S
C228 N229 1.314 . S
C228 C230 1.353 . S
C228 H234 0.930 . S
N229 Li179 1.990 . S
N229 C228 1.314 . S
N229 C232 1.279 . S
C230 C228 1.353 . S
C230 C233 1.348 . S
C230 H262 0.929 . S
C231 C232 1.358 . S
C231 C233 1.356 . S
C231 H263 0.930 . S
C232 N229 1.279 . S
C232 C231 1.358 . S
C232 H235 0.930 . S
C233 C230 1.348 . S
C233 C231 1.356 . S
H234 C228 0.930 . S
H235 C232 0.930 . S
O236 Li176 1.956 . S
O236 Li177 1.970 . S
O236 Li178 1.961 . S
O236 C180 1.325 . S
O237 Li176 1.970 . S
O237 Li177 1.956 . S
O237 Li179 1.961 . S
O237 C186 1.325 . S
O238 Li176 1.961 . S
O238 Li178 1.956 . S
O238 Li179 1.970 . S
O238 C208 1.325 . S
O239 Li177 1.961 . S
O239 Li178 1.970 . S
O239 Li179 1.956 . S
O239 C214 1.325 . S
H240 C182 0.929 . S
H241 C183 0.930 . S
H242 C184 0.930 . S
H243 C185 0.930 . S
H244 C187 0.930 . S
H245 C189 0.929 . S
H246 C190 0.930 . S
H247 C191 0.930 . S
H248 C194 0.930 . S
H249 C197 0.929 . S
H250 C202 0.929 . S
H251 C203 0.930 . S
H252 C210 0.929 . S
H253 C211 0.930 . S
H254 C212 0.930 . S
H255 C213 0.930 . S
H256 C215 0.929 . S
H257 C216 0.930 . S
H258 C217 0.930 . S
H259 C218 0.930 . S
H260 C222 0.929 . S
H261 C224 0.930 . S
H262 C230 0.929 . S
H263 C231 0.930 . S
Li264 N281 1.990 . S
Li264 O324 1.956 . S
Li264 O325 1.970 . S
Li264 O326 1.961 . S
Li265 N289 1.990 . S
Li265 O324 1.970 . S
Li265 O325 1.956 . S
Li265 O327 1.961 . S
Li266 N311 1.990 . S
Li266 O324 1.961 . S
Li266 O326 1.956 . S
Li266 O327 1.970 . S
Li267 N317 1.990 . S
Li267 O325 1.961 . S
Li267 O326 1.970 . S
Li267 O327 1.956 . S
C268 C270 1.348 . S
C268 C271 1.356 . S
C268 O324 1.325 . S
N269 C272 1.314 . S
N269 C273 1.279 . S
C270 C268 1.348 . S
C270 C272 1.353 . S
C270 H328 0.929 . S
C271 C268 1.356 . S
C271 C273 1.358 . S
C271 H329 0.930 . S
C272 N269 1.314 . S
C272 C270 1.353 . S
C272 H330 0.930 . S
C273 N269 1.279 . S
C273 C271 1.358 . S
C273 H331 0.930 . S
C274 C277 1.348 . S
C274 C278 1.356 . S
C274 O325 1.325 . S
C275 N276 1.279 . S
C275 C278 1.358 . S
C275 H332 0.930 . S
N276 C275 1.279 . S
N276 C279 1.314 . S
C277 C274 1.348 . S
C277 C279 1.353 . S
C277 H333 0.929 . S
C278 C274 1.356 . S
C278 C275 1.358 . S
C278 H334 0.930 . S
C279 N276 1.314 . S
C279 C277 1.353 . S
C279 H335 0.930 . S
C280 N281 1.314 . S
C280 C285 1.353 . S
C280 H286 0.930 . S
N281 Li264 1.990 . S
N281 C280 1.314 . S
N281 C283 1.279 . S
C282 C283 1.358 . S
C282 C284 1.356 . S
C282 H336 0.930 . S
C283 N281 1.279 . S
C283 C282 1.358 . S
C283 H287 0.930 . S
C284 C282 1.356 . S
C284 C285 1.348 . S
C285 C280 1.353 . S
C285 C284 1.348 . S
C285 H337 0.929 . S
H286 C280 0.930 . S
H287 C283 0.930 . S
C288 N289 1.314 . S
C288 C290 1.353 . S
C288 H294 0.930 . S
N289 Li265 1.990 . S
N289 C288 1.314 . S
N289 C292 1.279 . S
C290 C288 1.353 . S
C290 C293 1.348 . S
C290 H338 0.929 . S
C291 C292 1.358 . S
C291 C293 1.356 . S
C291 H339 0.930 . S
C292 N289 1.279 . S
C292 C291 1.358 . S
C292 H295 0.930 . S
C293 C290 1.348 . S
C293 C291 1.356 . S
H294 C288 0.930 . S
H295 C292 0.930 . S
C296 C298 1.348 . S
C296 C299 1.356 . S
C296 O326 1.325 . S
N297 C300 1.314 . S
N297 C301 1.279 . S
C298 C296 1.348 . S
C298 C300 1.353 . S
C298 H340 0.929 . S
C299 C296 1.356 . S
C299 C301 1.358 . S
C299 H341 0.930 . S
C300 N297 1.314 . S
C300 C298 1.353 . S
C300 H342 0.930 . S
C301 N297 1.279 . S
C301 C299 1.358 . S
C301 H343 0.930 . S
C302 C303 1.348 . S
C302 C304 1.356 . S
C302 O327 1.325 . S
C303 C302 1.348 . S
C303 C305 1.353 . S
C303 H344 0.929 . S
C304 C302 1.356 . S
C304 C306 1.358 . S
C304 H345 0.930 . S
C305 C303 1.353 . S
C305 N307 1.314 . S
C305 H346 0.930 . S
C306 C304 1.358 . S
C306 N307 1.279 . S
C306 H347 0.930 . S
N307 C305 1.314 . S
N307 C306 1.279 . S
C308 C310 1.353 . S
C308 N311 1.314 . S
C308 H314 0.930 . S
C309 N311 1.279 . S
C309 C312 1.358 . S
C309 H315 0.930 . S
C310 C308 1.353 . S
C310 C313 1.348 . S
C310 H348 0.929 . S
N311 Li266 1.990 . S
N311 C308 1.314 . S
N311 C309 1.279 . S
C312 C309 1.358 . S
C312 C313 1.356 . S
C312 H349 0.930 . S
C313 C310 1.348 . S
C313 C312 1.356 . S
H314 C308 0.930 . S
H315 C309 0.930 . S
C316 N317 1.314 . S
C316 C318 1.353 . S
C316 H322 0.930 . S
N317 Li267 1.990 . S
N317 C316 1.314 . S
N317 C320 1.279 . S
C318 C316 1.353 . S
C318 C321 1.348 . S
C318 H350 0.929 . S
C319 C320 1.358 . S
C319 C321 1.356 . S
C319 H351 0.930 . S
C320 N317 1.279 . S
C320 C319 1.358 . S
C320 H323 0.930 . S
C321 C318 1.348 . S
C321 C319 1.356 . S
H322 C316 0.930 . S
H323 C320 0.930 . S
O324 Li264 1.956 . S
O324 Li265 1.970 . S
O324 Li266 1.961 . S
O324 C268 1.325 . S
O325 Li264 1.970 . S
O325 Li265 1.956 . S
O325 Li267 1.961 . S
O325 C274 1.325 . S
O326 Li264 1.961 . S
O326 Li266 1.956 . S
O326 Li267 1.970 . S
O326 C296 1.325 . S
O327 Li265 1.961 . S
O327 Li266 1.970 . S
O327 Li267 1.956 . S
O327 C302 1.325 . S
H328 C270 0.929 . S
H329 C271 0.930 . S
H330 C272 0.930 . S
H331 C273 0.930 . S
H332 C275 0.930 . S
H333 C277 0.929 . S
H334 C278 0.930 . S
H335 C279 0.930 . S
H336 C282 0.930 . S
H337 C285 0.929 . S
H338 C290 0.929 . S
H339 C291 0.930 . S
H340 C298 0.929 . S
H341 C299 0.930 . S
H342 C300 0.930 . S
H343 C301 0.930 . S
H344 C303 0.929 . S
H345 C304 0.930 . S
H346 C305 0.930 . S
H347 C306 0.930 . S
H348 C310 0.929 . S
H349 C312 0.930 . S
H350 C318 0.929 . S
H351 C319 0.930 . S
Li352 N369 1.990 . S
Li352 O412 1.956 . S
Li352 O413 1.970 . S
Li352 O414 1.961 . S
Li353 N377 1.990 . S
Li353 O412 1.970 . S
Li353 O413 1.956 . S
Li353 O415 1.961 . S
Li354 N399 1.990 . S
Li354 O412 1.961 . S
Li354 O414 1.956 . S
Li354 O415 1.970 . S
Li355 N405 1.990 . S
Li355 O413 1.961 . S
Li355 O414 1.970 . S
Li355 O415 1.956 . S
C356 C358 1.348 . S
C356 C359 1.356 . S
C356 O412 1.325 . S
N357 C360 1.314 . S
N357 C361 1.279 . S
C358 C356 1.348 . S
C358 C360 1.353 . S
C358 H416 0.929 . S
C359 C356 1.356 . S
C359 C361 1.358 . S
C359 H417 0.930 . S
C360 N357 1.314 . S
C360 C358 1.353 . S
C360 H418 0.930 . S
C361 N357 1.279 . S
C361 C359 1.358 . S
C361 H419 0.930 . S
C362 C365 1.348 . S
C362 C366 1.356 . S
C362 O413 1.325 . S
C363 N364 1.279 . S
C363 C366 1.358 . S
C363 H420 0.930 . S
N364 C363 1.279 . S
N364 C367 1.314 . S
C365 C362 1.348 . S
C365 C367 1.353 . S
C365 H421 0.929 . S
C366 C362 1.356 . S
C366 C363 1.358 . S
C366 H422 0.930 . S
C367 N364 1.314 . S
C367 C365 1.353 . S
C367 H423 0.930 . S
C368 N369 1.314 . S
C368 C373 1.353 . S
C368 H374 0.930 . S
N369 Li352 1.990 . S
N369 C368 1.314 . S
N369 C371 1.279 . S
C370 C371 1.358 . S
C370 C372 1.356 . S
C370 H424 0.930 . S
C371 N369 1.279 . S
C371 C370 1.358 . S
C371 H375 0.930 . S
C372 C370 1.356 . S
C372 C373 1.348 . S
C373 C368 1.353 . S
C373 C372 1.348 . S
C373 H425 0.929 . S
H374 C368 0.930 . S
H375 C371 0.930 . S
C376 N377 1.314 . S
C376 C378 1.353 . S
C376 H382 0.930 . S
N377 Li353 1.990 . S
N377 C376 1.314 . S
N377 C380 1.279 . S
C378 C376 1.353 . S
C378 C381 1.348 . S
C378 H426 0.929 . S
C379 C380 1.358 . S
C379 C381 1.356 . S
C379 H427 0.930 . S
C380 N377 1.279 . S
C380 C379 1.358 . S
C380 H383 0.930 . S
C381 C378 1.348 . S
C381 C379 1.356 . S
H382 C376 0.930 . S
H383 C380 0.930 . S
C384 C386 1.348 . S
C384 C387 1.356 . S
C384 O414 1.325 . S
N385 C388 1.314 . S
N385 C389 1.279 . S
C386 C384 1.348 . S
C386 C388 1.353 . S
C386 H428 0.929 . S
C387 C384 1.356 . S
C387 C389 1.358 . S
C387 H429 0.930 . S
C388 N385 1.314 . S
C388 C386 1.353 . S
C388 H430 0.930 . S
C389 N385 1.279 . S
C389 C387 1.358 . S
C389 H431 0.930 . S
C390 C391 1.348 . S
C390 C392 1.356 . S
C390 O415 1.325 . S
C391 C390 1.348 . S
C391 C393 1.353 . S
C391 H432 0.929 . S
C392 C390 1.356 . S
C392 C394 1.358 . S
C392 H433 0.930 . S
C393 C391 1.353 . S
C393 N395 1.314 . S
C393 H434 0.930 . S
C394 C392 1.358 . S
C394 N395 1.279 . S
C394 H435 0.930 . S
N395 C393 1.314 . S
N395 C394 1.279 . S
C396 C398 1.353 . S
C396 N399 1.314 . S
C396 H402 0.930 . S
C397 N399 1.279 . S
C397 C400 1.358 . S
C397 H403 0.930 . S
C398 C396 1.353 . S
C398 C401 1.348 . S
C398 H436 0.929 . S
N399 Li354 1.990 . S
N399 C396 1.314 . S
N399 C397 1.279 . S
C400 C397 1.358 . S
C400 C401 1.356 . S
C400 H437 0.930 . S
C401 C398 1.348 . S
C401 C400 1.356 . S
H402 C396 0.930 . S
H403 C397 0.930 . S
C404 N405 1.314 . S
C404 C406 1.353 . S
C404 H410 0.930 . S
N405 Li355 1.990 . S
N405 C404 1.314 . S
N405 C408 1.279 . S
C406 C404 1.353 . S
C406 C409 1.348 . S
C406 H438 0.929 . S
C407 C408 1.358 . S
C407 C409 1.356 . S
C407 H439 0.930 . S
C408 N405 1.279 . S
C408 C407 1.358 . S
C408 H411 0.930 . S
C409 C406 1.348 . S
C409 C407 1.356 . S
H410 C404 0.930 . S
H411 C408 0.930 . S
O412 Li352 1.956 . S
O412 Li353 1.970 . S
O412 Li354 1.961 . S
O412 C356 1.325 . S
O413 Li352 1.970 . S
O413 Li353 1.956 . S
O413 Li355 1.961 . S
O413 C362 1.325 . S
O414 Li352 1.961 . S
O414 Li354 1.956 . S
O414 Li355 1.970 . S
O414 C384 1.325 . S
O415 Li353 1.961 . S
O415 Li354 1.970 . S
O415 Li355 1.956 . S
O415 C390 1.325 . S
H416 C358 0.929 . S
H417 C359 0.930 . S
H418 C360 0.930 . S
H419 C361 0.930 . S
H420 C363 0.930 . S
H421 C365 0.929 . S
H422 C366 0.930 . S
H423 C367 0.930 . S
H424 C370 0.930 . S
H425 C373 0.929 . S
H426 C378 0.929 . S
H427 C379 0.930 . S
H428 C386 0.929 . S
H429 C387 0.930 . S
H430 C388 0.930 . S
H431 C389 0.930 . S
H432 C391 0.929 . S
H433 C392 0.930 . S
H434 C393 0.930 . S
H435 C394 0.930 . S
H436 C398 0.929 . S
H437 C400 0.930 . S
H438 C406 0.929 . S
H439 C407 0.930 . S
Li440 N457 1.990 . S
Li440 O500 1.956 . S
Li440 O501 1.970 . S
Li440 O502 1.961 . S
Li441 N465 1.990 . S
Li441 O500 1.970 . S
Li441 O501 1.956 . S
Li441 O503 1.961 . S
Li442 N487 1.990 . S
Li442 O500 1.961 . S
Li442 O502 1.956 . S
Li442 O503 1.970 . S
Li443 N493 1.990 . S
Li443 O501 1.961 . S
Li443 O502 1.970 . S
Li443 O503 1.956 . S
C444 C446 1.348 . S
C444 C447 1.356 . S
C444 O500 1.325 . S
N445 C448 1.314 . S
N445 C449 1.279 . S
C446 C444 1.348 . S
C446 C448 1.353 . S
C446 H504 0.929 . S
C447 C444 1.356 . S
C447 C449 1.358 . S
C447 H505 0.930 . S
C448 N445 1.314 . S
C448 C446 1.353 . S
C448 H506 0.930 . S
C449 N445 1.279 . S
C449 C447 1.358 . S
C449 H507 0.930 . S
C450 C453 1.348 . S
C450 C454 1.356 . S
C450 O501 1.325 . S
C451 N452 1.279 . S
C451 C454 1.358 . S
C451 H508 0.930 . S
N452 C451 1.279 . S
N452 C455 1.314 . S
C453 C450 1.348 . S
C453 C455 1.353 . S
C453 H509 0.929 . S
C454 C450 1.356 . S
C454 C451 1.358 . S
C454 H510 0.930 . S
C455 N452 1.314 . S
C455 C453 1.353 . S
C455 H511 0.930 . S
C456 N457 1.314 . S
C456 C461 1.353 . S
C456 H462 0.930 . S
N457 Li440 1.990 . S
N457 C456 1.314 . S
N457 C459 1.279 . S
C458 C459 1.358 . S
C458 C460 1.356 . S
C458 H512 0.930 . S
C459 N457 1.279 . S
C459 C458 1.358 . S
C459 H463 0.930 . S
C460 C458 1.356 . S
C460 C461 1.348 . S
C461 C456 1.353 . S
C461 C460 1.348 . S
C461 H513 0.929 . S
H462 C456 0.930 . S
H463 C459 0.930 . S
C464 N465 1.314 . S
C464 C466 1.353 . S
C464 H470 0.930 . S
N465 Li441 1.990 . S
N465 C464 1.314 . S
N465 C468 1.279 . S
C466 C464 1.353 . S
C466 C469 1.348 . S
C466 H514 0.929 . S
C467 C468 1.358 . S
C467 C469 1.356 . S
C467 H515 0.930 . S
C468 N465 1.279 . S
C468 C467 1.358 . S
C468 H471 0.930 . S
C469 C466 1.348 . S
C469 C467 1.356 . S
H470 C464 0.930 . S
H471 C468 0.930 . S
C472 C474 1.348 . S
C472 C475 1.356 . S
C472 O502 1.325 . S
N473 C476 1.314 . S
N473 C477 1.279 . S
C474 C472 1.348 . S
C474 C476 1.353 . S
C474 H516 0.929 . S
C475 C472 1.356 . S
C475 C477 1.358 . S
C475 H517 0.930 . S
C476 N473 1.314 . S
C476 C474 1.353 . S
C476 H518 0.930 . S
C477 N473 1.279 . S
C477 C475 1.358 . S
C477 H519 0.930 . S
C478 C479 1.348 . S
C478 C480 1.356 . S
C478 O503 1.325 . S
C479 C478 1.348 . S
C479 C481 1.353 . S
C479 H520 0.929 . S
C480 C478 1.356 . S
C480 C482 1.358 . S
C480 H521 0.930 . S
C481 C479 1.353 . S
C481 N483 1.314 . S
C481 H522 0.930 . S
C482 C480 1.358 . S
C482 N483 1.279 . S
C482 H523 0.930 . S
N483 C481 1.314 . S
N483 C482 1.279 . S
C484 C486 1.353 . S
C484 N487 1.314 . S
C484 H490 0.930 . S
C485 N487 1.279 . S
C485 C488 1.358 . S
C485 H491 0.930 . S
C486 C484 1.353 . S
C486 C489 1.348 . S
C486 H524 0.929 . S
N487 Li442 1.990 . S
N487 C484 1.314 . S
N487 C485 1.279 . S
C488 C485 1.358 . S
C488 C489 1.356 . S
C488 H525 0.930 . S
C489 C486 1.348 . S
C489 C488 1.356 . S
H490 C484 0.930 . S
H491 C485 0.930 . S
C492 N493 1.314 . S
C492 C494 1.353 . S
C492 H498 0.930 . S
N493 Li443 1.990 . S
N493 C492 1.314 . S
N493 C496 1.279 . S
C494 C492 1.353 . S
C494 C497 1.348 . S
C494 H526 0.929 . S
C495 C496 1.358 . S
C495 C497 1.356 . S
C495 H527 0.930 . S
C496 N493 1.279 . S
C496 C495 1.358 . S
C496 H499 0.930 . S
C497 C494 1.348 . S
C497 C495 1.356 . S
H498 C492 0.930 . S
H499 C496 0.930 . S
O500 Li440 1.956 . S
O500 Li441 1.970 . S
O500 Li442 1.961 . S
O500 C444 1.325 . S
O501 Li440 1.970 . S
O501 Li441 1.956 . S
O501 Li443 1.961 . S
O501 C450 1.325 . S
O502 Li440 1.961 . S
O502 Li442 1.956 . S
O502 Li443 1.970 . S
O502 C472 1.325 . S
O503 Li441 1.961 . S
O503 Li442 1.970 . S
O503 Li443 1.956 . S
O503 C478 1.325 . S
H504 C446 0.929 . S
H505 C447 0.930 . S
H506 C448 0.930 . S
H507 C449 0.930 . S
H508 C451 0.930 . S
H509 C453 0.929 . S
H510 C454 0.930 . S
H511 C455 0.930 . S
H512 C458 0.930 . S
H513 C461 0.929 . S
H514 C466 0.929 . S
H515 C467 0.930 . S
H516 C474 0.929 . S
H517 C475 0.930 . S
H518 C476 0.930 . S
H519 C477 0.930 . S
H520 C479 0.929 . S
H521 C480 0.930 . S
H522 C481 0.930 . S
H523 C482 0.930 . S
H524 C486 0.929 . S
H525 C488 0.930 . S
H526 C494 0.929 . S
H527 C495 0.930 . S
Li528 N545 1.990 . S
Li528 O588 1.956 . S
Li528 O589 1.970 . S
Li528 O590 1.961 . S
Li529 N553 1.990 . S
Li529 O588 1.970 . S
Li529 O589 1.956 . S
Li529 O591 1.961 . S
Li530 N575 1.990 . S
Li530 O588 1.961 . S
Li530 O590 1.956 . S
Li530 O591 1.970 . S
Li531 N581 1.990 . S
Li531 O589 1.961 . S
Li531 O590 1.970 . S
Li531 O591 1.956 . S
C532 C534 1.348 . S
C532 C535 1.356 . S
C532 O588 1.325 . S
N533 C536 1.314 . S
N533 C537 1.279 . S
C534 C532 1.348 . S
C534 C536 1.353 . S
C534 H592 0.929 . S
C535 C532 1.356 . S
C535 C537 1.358 . S
C535 H593 0.930 . S
C536 N533 1.314 . S
C536 C534 1.353 . S
C536 H594 0.930 . S
C537 N533 1.279 . S
C537 C535 1.358 . S
C537 H595 0.930 . S
C538 C541 1.348 . S
C538 C542 1.356 . S
C538 O589 1.325 . S
C539 N540 1.279 . S
C539 C542 1.358 . S
C539 H596 0.930 . S
N540 C539 1.279 . S
N540 C543 1.314 . S
C541 C538 1.348 . S
C541 C543 1.353 . S
C541 H597 0.929 . S
C542 C538 1.356 . S
C542 C539 1.358 . S
C542 H598 0.930 . S
C543 N540 1.314 . S
C543 C541 1.353 . S
C543 H599 0.930 . S
C544 N545 1.314 . S
C544 C549 1.353 . S
C544 H550 0.930 . S
N545 Li528 1.990 . S
N545 C544 1.314 . S
N545 C547 1.279 . S
C546 C547 1.358 . S
C546 C548 1.356 . S
C546 H600 0.930 . S
C547 N545 1.279 . S
C547 C546 1.358 . S
C547 H551 0.930 . S
C548 C546 1.356 . S
C548 C549 1.348 . S
C549 C544 1.353 . S
C549 C548 1.348 . S
C549 H601 0.929 . S
H550 C544 0.930 . S
H551 C547 0.930 . S
C552 N553 1.314 . S
C552 C554 1.353 . S
C552 H558 0.930 . S
N553 Li529 1.990 . S
N553 C552 1.314 . S
N553 C556 1.279 . S
C554 C552 1.353 . S
C554 C557 1.348 . S
C554 H602 0.929 . S
C555 C556 1.358 . S
C555 C557 1.356 . S
C555 H603 0.930 . S
C556 N553 1.279 . S
C556 C555 1.358 . S
C556 H559 0.930 . S
C557 C554 1.348 . S
C557 C555 1.356 . S
H558 C552 0.930 . S
H559 C556 0.930 . S
C560 C562 1.348 . S
C560 C563 1.356 . S
C560 O590 1.325 . S
N561 C564 1.314 . S
N561 C565 1.279 . S
C562 C560 1.348 . S
C562 C564 1.353 . S
C562 H604 0.929 . S
C563 C560 1.356 . S
C563 C565 1.358 . S
C563 H605 0.930 . S
C564 N561 1.314 . S
C564 C562 1.353 . S
C564 H606 0.930 . S
C565 N561 1.279 . S
C565 C563 1.358 . S
C565 H607 0.930 . S
C566 C567 1.348 . S
C566 C568 1.356 . S
C566 O591 1.325 . S
C567 C566 1.348 . S
C567 C569 1.353 . S
C567 H608 0.929 . S
C568 C566 1.356 . S
C568 C570 1.358 . S
C568 H609 0.930 . S
C569 C567 1.353 . S
C569 N571 1.314 . S
C569 H610 0.930 . S
C570 C568 1.358 . S
C570 N571 1.279 . S
C570 H611 0.930 . S
N571 C569 1.314 . S
N571 C570 1.279 . S
C572 C574 1.353 . S
C572 N575 1.314 . S
C572 H578 0.930 . S
C573 N575 1.279 . S
C573 C576 1.358 . S
C573 H579 0.930 . S
C574 C572 1.353 . S
C574 C577 1.348 . S
C574 H612 0.929 . S
N575 Li530 1.990 . S
N575 C572 1.314 . S
N575 C573 1.279 . S
C576 C573 1.358 . S
C576 C577 1.356 . S
C576 H613 0.930 . S
C577 C574 1.348 . S
C577 C576 1.356 . S
H578 C572 0.930 . S
H579 C573 0.930 . S
C580 N581 1.314 . S
C580 C582 1.353 . S
C580 H586 0.930 . S
N581 Li531 1.990 . S
N581 C580 1.314 . S
N581 C584 1.279 . S
C582 C580 1.353 . S
C582 C585 1.348 . S
C582 H614 0.929 . S
C583 C584 1.358 . S
C583 C585 1.356 . S
C583 H615 0.930 . S
C584 N581 1.279 . S
C584 C583 1.358 . S
C584 H587 0.930 . S
C585 C582 1.348 . S
C585 C583 1.356 . S
H586 C580 0.930 . S
H587 C584 0.930 . S
O588 Li528 1.956 . S
O588 Li529 1.970 . S
O588 Li530 1.961 . S
O588 C532 1.325 . S
O589 Li528 1.970 . S
O589 Li529 1.956 . S
O589 Li531 1.961 . S
O589 C538 1.325 . S
O590 Li528 1.961 . S
O590 Li530 1.956 . S
O590 Li531 1.970 . S
O590 C560 1.325 . S
O591 Li529 1.961 . S
O591 Li530 1.970 . S
O591 Li531 1.956 . S
O591 C566 1.325 . S
H592 C534 0.929 . S
H593 C535 0.930 . S
H594 C536 0.930 . S
H595 C537 0.930 . S
H596 C539 0.930 . S
H597 C541 0.929 . S
H598 C542 0.930 . S
H599 C543 0.930 . S
H600 C546 0.930 . S
H601 C549 0.929 . S
H602 C554 0.929 . S
H603 C555 0.930 . S
H604 C562 0.929 . S
H605 C563 0.930 . S
H606 C564 0.930 . S
H607 C565 0.930 . S
H608 C567 0.929 . S
H609 C568 0.930 . S
H610 C569 0.930 . S
H611 C570 0.930 . S
H612 C574 0.929 . S
H613 C576 0.930 . S
H614 C582 0.929 . S
H615 C583 0.930 . S
Li616 N633 1.990 . S
Li616 O676 1.956 . S
Li616 O677 1.970 . S
Li616 O678 1.961 . S
Li617 N641 1.990 . S
Li617 O676 1.970 . S
Li617 O677 1.956 . S
Li617 O679 1.961 . S
Li618 N663 1.990 . S
Li618 O676 1.961 . S
Li618 O678 1.956 . S
Li618 O679 1.970 . S
Li619 N669 1.990 . S
Li619 O677 1.961 . S
Li619 O678 1.970 . S
Li619 O679 1.956 . S
C620 C622 1.348 . S
C620 C623 1.356 . S
C620 O676 1.325 . S
N621 C624 1.314 . S
N621 C625 1.279 . S
C622 C620 1.348 . S
C622 C624 1.353 . S
C622 H680 0.929 . S
C623 C620 1.356 . S
C623 C625 1.358 . S
C623 H681 0.930 . S
C624 N621 1.314 . S
C624 C622 1.353 . S
C624 H682 0.930 . S
C625 N621 1.279 . S
C625 C623 1.358 . S
C625 H683 0.930 . S
C626 C629 1.348 . S
C626 C630 1.356 . S
C626 O677 1.325 . S
C627 N628 1.279 . S
C627 C630 1.358 . S
C627 H684 0.930 . S
N628 C627 1.279 . S
N628 C631 1.314 . S
C629 C626 1.348 . S
C629 C631 1.353 . S
C629 H685 0.929 . S
C630 C626 1.356 . S
C630 C627 1.358 . S
C630 H686 0.930 . S
C631 N628 1.314 . S
C631 C629 1.353 . S
C631 H687 0.930 . S
C632 N633 1.314 . S
C632 C637 1.353 . S
C632 H638 0.930 . S
N633 Li616 1.990 . S
N633 C632 1.314 . S
N633 C635 1.279 . S
C634 C635 1.358 . S
C634 C636 1.356 . S
C634 H688 0.930 . S
C635 N633 1.279 . S
C635 C634 1.358 . S
C635 H639 0.930 . S
C636 C634 1.356 . S
C636 C637 1.348 . S
C637 C632 1.353 . S
C637 C636 1.348 . S
C637 H689 0.929 . S
H638 C632 0.930 . S
H639 C635 0.930 . S
C640 N641 1.314 . S
C640 C642 1.353 . S
C640 H646 0.930 . S
N641 Li617 1.990 . S
N641 C640 1.314 . S
N641 C644 1.279 . S
C642 C640 1.353 . S
C642 C645 1.348 . S
C642 H690 0.929 . S
C643 C644 1.358 . S
C643 C645 1.356 . S
C643 H691 0.930 . S
C644 N641 1.279 . S
C644 C643 1.358 . S
C644 H647 0.930 . S
C645 C642 1.348 . S
C645 C643 1.356 . S
H646 C640 0.930 . S
H647 C644 0.930 . S
C648 C650 1.348 . S
C648 C651 1.356 . S
C648 O678 1.325 . S
N649 C652 1.314 . S
N649 C653 1.279 . S
C650 C648 1.348 . S
C650 C652 1.353 . S
C650 H692 0.929 . S
C651 C648 1.356 . S
C651 C653 1.358 . S
C651 H693 0.930 . S
C652 N649 1.314 . S
C652 C650 1.353 . S
C652 H694 0.930 . S
C653 N649 1.279 . S
C653 C651 1.358 . S
C653 H695 0.930 . S
C654 C655 1.348 . S
C654 C656 1.356 . S
C654 O679 1.325 . S
C655 C654 1.348 . S
C655 C657 1.353 . S
C655 H696 0.929 . S
C656 C654 1.356 . S
C656 C658 1.358 . S
C656 H697 0.930 . S
C657 C655 1.353 . S
C657 N659 1.314 . S
C657 H698 0.930 . S
C658 C656 1.358 . S
C658 N659 1.279 . S
C658 H699 0.930 . S
N659 C657 1.314 . S
N659 C658 1.279 . S
C660 C662 1.353 . S
C660 N663 1.314 . S
C660 H666 0.930 . S
C661 N663 1.279 . S
C661 C664 1.358 . S
C661 H667 0.930 . S
C662 C660 1.353 . S
C662 C665 1.348 . S
C662 H700 0.929 . S
N663 Li618 1.990 . S
N663 C660 1.314 . S
N663 C661 1.279 . S
C664 C661 1.358 . S
C664 C665 1.356 . S
C664 H701 0.930 . S
C665 C662 1.348 . S
C665 C664 1.356 . S
H666 C660 0.930 . S
H667 C661 0.930 . S
C668 N669 1.314 . S
C668 C670 1.353 . S
C668 H674 0.930 . S
N669 Li619 1.990 . S
N669 C668 1.314 . S
N669 C672 1.279 . S
C670 C668 1.353 . S
C670 C673 1.348 . S
C670 H702 0.929 . S
C671 C672 1.358 . S
C671 C673 1.356 . S
C671 H703 0.930 . S
C672 N669 1.279 . S
C672 C671 1.358 . S
C672 H675 0.930 . S
C673 C670 1.348 . S
C673 C671 1.356 . S
H674 C668 0.930 . S
H675 C672 0.930 . S
O676 Li616 1.956 . S
O676 Li617 1.970 . S
O676 Li618 1.961 . S
O676 C620 1.325 . S
O677 Li616 1.970 . S
O677 Li617 1.956 . S
O677 Li619 1.961 . S
O677 C626 1.325 . S
O678 Li616 1.961 . S
O678 Li618 1.956 . S
O678 Li619 1.970 . S
O678 C648 1.325 . S
O679 Li617 1.961 . S
O679 Li618 1.970 . S
O679 Li619 1.956 . S
O679 C654 1.325 . S
H680 C622 0.929 . S
H681 C623 0.930 . S
H682 C624 0.930 . S
H683 C625 0.930 . S
H684 C627 0.930 . S
H685 C629 0.929 . S
H686 C630 0.930 . S
H687 C631 0.930 . S
H688 C634 0.930 . S
H689 C637 0.929 . S
H690 C642 0.929 . S
H691 C643 0.930 . S
H692 C650 0.929 . S
H693 C651 0.930 . S
H694 C652 0.930 . S
H695 C653 0.930 . S
H696 C655 0.929 . S
H697 C656 0.930 . S
H698 C657 0.930 . S
H699 C658 0.930 . S
H700 C662 0.929 . S
H701 C664 0.930 . S
H702 C670 0.929 . S
H703 C671 0.930 . S
Li704 N721 1.990 . S
Li704 O764 1.956 . S
Li704 O765 1.970 . S
Li704 O766 1.961 . S
Li705 N729 1.990 . S
Li705 O764 1.970 . S
Li705 O765 1.956 . S
Li705 O767 1.961 . S
Li706 N751 1.990 . S
Li706 O764 1.961 . S
Li706 O766 1.956 . S
Li706 O767 1.970 . S
Li707 N757 1.990 . S
Li707 O765 1.961 . S
Li707 O766 1.970 . S
Li707 O767 1.956 . S
C708 C710 1.348 . S
C708 C711 1.356 . S
C708 O764 1.325 . S
N709 C712 1.314 . S
N709 C713 1.279 . S
C710 C708 1.348 . S
C710 C712 1.353 . S
C710 H768 0.929 . S
C711 C708 1.356 . S
C711 C713 1.358 . S
C711 H769 0.930 . S
C712 N709 1.314 . S
C712 C710 1.353 . S
C712 H770 0.930 . S
C713 N709 1.279 . S
C713 C711 1.358 . S
C713 H771 0.930 . S
C714 C717 1.348 . S
C714 C718 1.356 . S
C714 O765 1.325 . S
C715 N716 1.279 . S
C715 C718 1.358 . S
C715 H772 0.930 . S
N716 C715 1.279 . S
N716 C719 1.314 . S
C717 C714 1.348 . S
C717 C719 1.353 . S
C717 H773 0.929 . S
C718 C714 1.356 . S
C718 C715 1.358 . S
C718 H774 0.930 . S
C719 N716 1.314 . S
C719 C717 1.353 . S
C719 H775 0.930 . S
C720 N721 1.314 . S
C720 C725 1.353 . S
C720 H726 0.930 . S
N721 Li704 1.990 . S
N721 C720 1.314 . S
N721 C723 1.279 . S
C722 C723 1.358 . S
C722 C724 1.356 . S
C722 H776 0.930 . S
C723 N721 1.279 . S
C723 C722 1.358 . S
C723 H727 0.930 . S
C724 C722 1.356 . S
C724 C725 1.348 . S
C725 C720 1.353 . S
C725 C724 1.348 . S
C725 H777 0.929 . S
H726 C720 0.930 . S
H727 C723 0.930 . S
C728 N729 1.314 . S
C728 C730 1.353 . S
C728 H734 0.930 . S
N729 Li705 1.990 . S
N729 C728 1.314 . S
N729 C732 1.279 . S
C730 C728 1.353 . S
C730 C733 1.348 . S
C730 H778 0.929 . S
C731 C732 1.358 . S
C731 C733 1.356 . S
C731 H779 0.930 . S
C732 N729 1.279 . S
C732 C731 1.358 . S
C732 H735 0.930 . S
C733 C730 1.348 . S
C733 C731 1.356 . S
H734 C728 0.930 . S
H735 C732 0.930 . S
C736 C738 1.348 . S
C736 C739 1.356 . S
C736 O766 1.325 . S
N737 C740 1.314 . S
N737 C741 1.279 . S
C738 C736 1.348 . S
C738 C740 1.353 . S
C738 H780 0.929 . S
C739 C736 1.356 . S
C739 C741 1.358 . S
C739 H781 0.930 . S
C740 N737 1.314 . S
C740 C738 1.353 . S
C740 H782 0.930 . S
C741 N737 1.279 . S
C741 C739 1.358 . S
C741 H783 0.930 . S
C742 C743 1.348 . S
C742 C744 1.356 . S
C742 O767 1.325 . S
C743 C742 1.348 . S
C743 C745 1.353 . S
C743 H784 0.929 . S
C744 C742 1.356 . S
C744 C746 1.358 . S
C744 H785 0.930 . S
C745 C743 1.353 . S
C745 N747 1.314 . S
C745 H786 0.930 . S
C746 C744 1.358 . S
C746 N747 1.279 . S
C746 H787 0.930 . S
N747 C745 1.314 . S
N747 C746 1.279 . S
C748 C750 1.353 . S
C748 N751 1.314 . S
C748 H754 0.930 . S
C749 N751 1.279 . S
C749 C752 1.358 . S
C749 H755 0.930 . S
C750 C748 1.353 . S
C750 C753 1.348 . S
C750 H788 0.929 . S
N751 Li706 1.990 . S
N751 C748 1.314 . S
N751 C749 1.279 . S
C752 C749 1.358 . S
C752 C753 1.356 . S
C752 H789 0.930 . S
C753 C750 1.348 . S
C753 C752 1.356 . S
H754 C748 0.930 . S
H755 C749 0.930 . S
C756 N757 1.314 . S
C756 C758 1.353 . S
C756 H762 0.930 . S
N757 Li707 1.990 . S
N757 C756 1.314 . S
N757 C760 1.279 . S
C758 C756 1.353 . S
C758 C761 1.348 . S
C758 H790 0.929 . S
C759 C760 1.358 . S
C759 C761 1.356 . S
C759 H791 0.930 . S
C760 N757 1.279 . S
C760 C759 1.358 . S
C760 H763 0.930 . S
C761 C758 1.348 . S
C761 C759 1.356 . S
H762 C756 0.930 . S
H763 C760 0.930 . S
O764 Li704 1.956 . S
O764 Li705 1.970 . S
O764 Li706 1.961 . S
O764 C708 1.325 . S
O765 Li704 1.970 . S
O765 Li705 1.956 . S
O765 Li707 1.961 . S
O765 C714 1.325 . S
O766 Li704 1.961 . S
O766 Li706 1.956 . S
O766 Li707 1.970 . S
O766 C736 1.325 . S
O767 Li705 1.961 . S
O767 Li706 1.970 . S
O767 Li707 1.956 . S
O767 C742 1.325 . S
H768 C710 0.929 . S
H769 C711 0.930 . S
H770 C712 0.930 . S
H771 C713 0.930 . S
H772 C715 0.930 . S
H773 C717 0.929 . S
H774 C718 0.930 . S
H775 C719 0.930 . S
H776 C722 0.930 . S
H777 C725 0.929 . S
H778 C730 0.929 . S
H779 C731 0.930 . S
H780 C738 0.929 . S
H781 C739 0.930 . S
H782 C740 0.930 . S
H783 C741 0.930 . S
H784 C743 0.929 . S
H785 C744 0.930 . S
H786 C745 0.930 . S
H787 C746 0.930 . S
H788 C750 0.929 . S
H789 C752 0.930 . S
H790 C758 0.929 . S
H791 C759 0.930 . S
Li792 N809 1.990 . S
Li792 O852 1.956 . S
Li792 O853 1.970 . S
Li792 O854 1.961 . S
Li793 N817 1.990 . S
Li793 O852 1.970 . S
Li793 O853 1.956 . S
Li793 O855 1.961 . S
Li794 N839 1.990 . S
Li794 O852 1.961 . S
Li794 O854 1.956 . S
Li794 O855 1.970 . S
Li795 N845 1.990 . S
Li795 O853 1.961 . S
Li795 O854 1.970 . S
Li795 O855 1.956 . S
C796 C798 1.348 . S
C796 C799 1.356 . S
C796 O852 1.325 . S
N797 C800 1.314 . S
N797 C801 1.279 . S
C798 C796 1.348 . S
C798 C800 1.353 . S
C798 H856 0.929 . S
C799 C796 1.356 . S
C799 C801 1.358 . S
C799 H857 0.930 . S
C800 N797 1.314 . S
C800 C798 1.353 . S
C800 H858 0.930 . S
C801 N797 1.279 . S
C801 C799 1.358 . S
C801 H859 0.930 . S
C802 C805 1.348 . S
C802 C806 1.356 . S
C802 O853 1.325 . S
C803 N804 1.279 . S
C803 C806 1.358 . S
C803 H860 0.930 . S
N804 C803 1.279 . S
N804 C807 1.314 . S
C805 C802 1.348 . S
C805 C807 1.353 . S
C805 H861 0.929 . S
C806 C802 1.356 . S
C806 C803 1.358 . S
C806 H862 0.930 . S
C807 N804 1.314 . S
C807 C805 1.353 . S
C807 H863 0.930 . S
C808 N809 1.314 . S
C808 C813 1.353 . S
C808 H814 0.930 . S
N809 Li792 1.990 . S
N809 C808 1.314 . S
N809 C811 1.279 . S
C810 C811 1.358 . S
C810 C812 1.356 . S
C810 H864 0.930 . S
C811 N809 1.279 . S
C811 C810 1.358 . S
C811 H815 0.930 . S
C812 C810 1.356 . S
C812 C813 1.348 . S
C813 C808 1.353 . S
C813 C812 1.348 . S
C813 H865 0.929 . S
H814 C808 0.930 . S
H815 C811 0.930 . S
C816 N817 1.314 . S
C816 C818 1.353 . S
C816 H822 0.930 . S
N817 Li793 1.990 . S
N817 C816 1.314 . S
N817 C820 1.279 . S
C818 C816 1.353 . S
C818 C821 1.348 . S
C818 H866 0.929 . S
C819 C820 1.358 . S
C819 C821 1.356 . S
C819 H867 0.930 . S
C820 N817 1.279 . S
C820 C819 1.358 . S
C820 H823 0.930 . S
C821 C818 1.348 . S
C821 C819 1.356 . S
H822 C816 0.930 . S
H823 C820 0.930 . S
C824 C826 1.348 . S
C824 C827 1.356 . S
C824 O854 1.325 . S
N825 C828 1.314 . S
N825 C829 1.279 . S
C826 C824 1.348 . S
C826 C828 1.353 . S
C826 H868 0.929 . S
C827 C824 1.356 . S
C827 C829 1.358 . S
C827 H869 0.930 . S
C828 N825 1.314 . S
C828 C826 1.353 . S
C828 H870 0.930 . S
C829 N825 1.279 . S
C829 C827 1.358 . S
C829 H871 0.930 . S
C830 C831 1.348 . S
C830 C832 1.356 . S
C830 O855 1.325 . S
C831 C830 1.348 . S
C831 C833 1.353 . S
C831 H872 0.929 . S
C832 C830 1.356 . S
C832 C834 1.358 . S
C832 H873 0.930 . S
C833 C831 1.353 . S
C833 N835 1.314 . S
C833 H874 0.930 . S
C834 C832 1.358 . S
C834 N835 1.279 . S
C834 H875 0.930 . S
N835 C833 1.314 . S
N835 C834 1.279 . S
C836 C838 1.353 . S
C836 N839 1.314 . S
C836 H842 0.930 . S
C837 N839 1.279 . S
C837 C840 1.358 . S
C837 H843 0.930 . S
C838 C836 1.353 . S
C838 C841 1.348 . S
C838 H876 0.929 . S
N839 Li794 1.990 . S
N839 C836 1.314 . S
N839 C837 1.279 . S
C840 C837 1.358 . S
C840 C841 1.356 . S
C840 H877 0.930 . S
C841 C838 1.348 . S
C841 C840 1.356 . S
H842 C836 0.930 . S
H843 C837 0.930 . S
C844 N845 1.314 . S
C844 C846 1.353 . S
C844 H850 0.930 . S
N845 Li795 1.990 . S
N845 C844 1.314 . S
N845 C848 1.279 . S
C846 C844 1.353 . S
C846 C849 1.348 . S
C846 H878 0.929 . S
C847 C848 1.358 . S
C847 C849 1.356 . S
C847 H879 0.930 . S
C848 N845 1.279 . S
C848 C847 1.358 . S
C848 H851 0.930 . S
C849 C846 1.348 . S
C849 C847 1.356 . S
H850 C844 0.930 . S
H851 C848 0.930 . S
O852 Li792 1.956 . S
O852 Li793 1.970 . S
O852 Li794 1.961 . S
O852 C796 1.325 . S
O853 Li792 1.970 . S
O853 Li793 1.956 . S
O853 Li795 1.961 . S
O853 C802 1.325 . S
O854 Li792 1.961 . S
O854 Li794 1.956 . S
O854 Li795 1.970 . S
O854 C824 1.325 . S
O855 Li793 1.961 . S
O855 Li794 1.970 . S
O855 Li795 1.956 . S
O855 C830 1.325 . S
H856 C798 0.929 . S
H857 C799 0.930 . S
H858 C800 0.930 . S
H859 C801 0.930 . S
H860 C803 0.930 . S
H861 C805 0.929 . S
H862 C806 0.930 . S
H863 C807 0.930 . S
H864 C810 0.930 . S
H865 C813 0.929 . S
H866 C818 0.929 . S
H867 C819 0.930 . S
H868 C826 0.929 . S
H869 C827 0.930 . S
H870 C828 0.930 . S
H871 C829 0.930 . S
H872 C831 0.929 . S
H873 C832 0.930 . S
H874 C833 0.930 . S
H875 C834 0.930 . S
H876 C838 0.929 . S
H877 C840 0.930 . S
H878 C846 0.929 . S
H879 C847 0.930 . S
Li880 N897 1.990 . S
Li880 O940 1.956 . S
Li880 O941 1.970 . S
Li880 O942 1.961 . S
Li881 N905 1.990 . S
Li881 O940 1.970 . S
Li881 O941 1.956 . S
Li881 O943 1.961 . S
Li882 N927 1.990 . S
Li882 O940 1.961 . S
Li882 O942 1.956 . S
Li882 O943 1.970 . S
Li883 N933 1.990 . S
Li883 O941 1.961 . S
Li883 O942 1.970 . S
Li883 O943 1.956 . S
C884 C886 1.348 . S
C884 C887 1.356 . S
C884 O940 1.325 . S
N885 C888 1.314 . S
N885 C889 1.279 . S
C886 C884 1.348 . S
C886 C888 1.353 . S
C886 H944 0.929 . S
C887 C884 1.356 . S
C887 C889 1.358 . S
C887 H945 0.930 . S
C888 N885 1.314 . S
C888 C886 1.353 . S
C888 H946 0.930 . S
C889 N885 1.279 . S
C889 C887 1.358 . S
C889 H947 0.930 . S
C890 C893 1.348 . S
C890 C894 1.356 . S
C890 O941 1.325 . S
C891 N892 1.279 . S
C891 C894 1.358 . S
C891 H948 0.930 . S
N892 C891 1.279 . S
N892 C895 1.314 . S
C893 C890 1.348 . S
C893 C895 1.353 . S
C893 H949 0.929 . S
C894 C890 1.356 . S
C894 C891 1.358 . S
C894 H950 0.930 . S
C895 N892 1.314 . S
C895 C893 1.353 . S
C895 H951 0.930 . S
C896 N897 1.314 . S
C896 C901 1.353 . S
C896 H902 0.930 . S
N897 Li880 1.990 . S
N897 C896 1.314 . S
N897 C899 1.279 . S
C898 C899 1.358 . S
C898 C900 1.356 . S
C898 H952 0.930 . S
C899 N897 1.279 . S
C899 C898 1.358 . S
C899 H903 0.930 . S
C900 C898 1.356 . S
C900 C901 1.348 . S
C901 C896 1.353 . S
C901 C900 1.348 . S
C901 H953 0.929 . S
H902 C896 0.930 . S
H903 C899 0.930 . S
C904 N905 1.314 . S
C904 C906 1.353 . S
C904 H910 0.930 . S
N905 Li881 1.990 . S
N905 C904 1.314 . S
N905 C908 1.279 . S
C906 C904 1.353 . S
C906 C909 1.348 . S
C906 H954 0.929 . S
C907 C908 1.358 . S
C907 C909 1.356 . S
C907 H955 0.930 . S
C908 N905 1.279 . S
C908 C907 1.358 . S
C908 H911 0.930 . S
C909 C906 1.348 . S
C909 C907 1.356 . S
H910 C904 0.930 . S
H911 C908 0.930 . S
C912 C914 1.348 . S
C912 C915 1.356 . S
C912 O942 1.325 . S
N913 C916 1.314 . S
N913 C917 1.279 . S
C914 C912 1.348 . S
C914 C916 1.353 . S
C914 H956 0.929 . S
C915 C912 1.356 . S
C915 C917 1.358 . S
C915 H957 0.930 . S
C916 N913 1.314 . S
C916 C914 1.353 . S
C916 H958 0.930 . S
C917 N913 1.279 . S
C917 C915 1.358 . S
C917 H959 0.930 . S
C918 C919 1.348 . S
C918 C920 1.356 . S
C918 O943 1.325 . S
C919 C918 1.348 . S
C919 C921 1.353 . S
C919 H960 0.929 . S
C920 C918 1.356 . S
C920 C922 1.358 . S
C920 H961 0.930 . S
C921 C919 1.353 . S
C921 N923 1.314 . S
C921 H962 0.930 . S
C922 C920 1.358 . S
C922 N923 1.279 . S
C922 H963 0.930 . S
N923 C921 1.314 . S
N923 C922 1.279 . S
C924 C926 1.353 . S
C924 N927 1.314 . S
C924 H930 0.930 . S
C925 N927 1.279 . S
C925 C928 1.358 . S
C925 H931 0.930 . S
C926 C924 1.353 . S
C926 C929 1.348 . S
C926 H964 0.929 . S
N927 Li882 1.990 . S
N927 C924 1.314 . S
N927 C925 1.279 . S
C928 C925 1.358 . S
C928 C929 1.356 . S
C928 H965 0.930 . S
C929 C926 1.348 . S
C929 C928 1.356 . S
H930 C924 0.930 . S
H931 C925 0.930 . S
C932 N933 1.314 . S
C932 C934 1.353 . S
C932 H938 0.930 . S
N933 Li883 1.990 . S
N933 C932 1.314 . S
N933 C936 1.279 . S
C934 C932 1.353 . S
C934 C937 1.348 . S
C934 H966 0.929 . S
C935 C936 1.358 . S
C935 C937 1.356 . S
C935 H967 0.930 . S
C936 N933 1.279 . S
C936 C935 1.358 . S
C936 H939 0.930 . S
C937 C934 1.348 . S
C937 C935 1.356 . S
H938 C932 0.930 . S
H939 C936 0.930 . S
O940 Li880 1.956 . S
O940 Li881 1.970 . S
O940 Li882 1.961 . S
O940 C884 1.325 . S
O941 Li880 1.970 . S
O941 Li881 1.956 . S
O941 Li883 1.961 . S
O941 C890 1.325 . S
O942 Li880 1.961 . S
O942 Li882 1.956 . S
O942 Li883 1.970 . S
O942 C912 1.325 . S
O943 Li881 1.961 . S
O943 Li882 1.970 . S
O943 Li883 1.956 . S
O943 C918 1.325 . S
H944 C886 0.929 . S
H945 C887 0.930 . S
H946 C888 0.930 . S
H947 C889 0.930 . S
H948 C891 0.930 . S
H949 C893 0.929 . S
H950 C894 0.930 . S
H951 C895 0.930 . S
H952 C898 0.930 . S
H953 C901 0.929 . S
H954 C906 0.929 . S
H955 C907 0.930 . S
H956 C914 0.929 . S
H957 C915 0.930 . S
H958 C916 0.930 . S
H959 C917 0.930 . S
H960 C919 0.929 . S
H961 C920 0.930 . S
H962 C921 0.930 . S
H963 C922 0.930 . S
H964 C926 0.929 . S
H965 C928 0.930 . S
H966 C934 0.929 . S
H967 C935 0.930 . S
Li968 N985 1.990 . S
Li968 O1028 1.956 . S
Li968 O1029 1.970 . S
Li968 O1030 1.961 . S
Li969 N993 1.990 . S
Li969 O1028 1.970 . S
Li969 O1029 1.956 . S
Li969 O1031 1.961 . S
Li970 N1015 1.990 . S
Li970 O1028 1.961 . S
Li970 O1030 1.956 . S
Li970 O1031 1.970 . S
Li971 N1021 1.990 . S
Li971 O1029 1.961 . S
Li971 O1030 1.970 . S
Li971 O1031 1.956 . S
C972 C974 1.348 . S
C972 C975 1.356 . S
C972 O1028 1.325 . S
N973 C976 1.314 . S
N973 C977 1.279 . S
C974 C972 1.348 . S
C974 C976 1.353 . S
C974 H1032 0.929 . S
C975 C972 1.356 . S
C975 C977 1.358 . S
C975 H1033 0.930 . S
C976 N973 1.314 . S
C976 C974 1.353 . S
C976 H1034 0.930 . S
C977 N973 1.279 . S
C977 C975 1.358 . S
C977 H1035 0.930 . S
C978 C981 1.348 . S
C978 C982 1.356 . S
C978 O1029 1.325 . S
C979 N980 1.279 . S
C979 C982 1.358 . S
C979 H1036 0.930 . S
N980 C979 1.279 . S
N980 C983 1.314 . S
C981 C978 1.348 . S
C981 C983 1.353 . S
C981 H1037 0.929 . S
C982 C978 1.356 . S
C982 C979 1.358 . S
C982 H1038 0.930 . S
C983 N980 1.314 . S
C983 C981 1.353 . S
C983 H1039 0.930 . S
C984 N985 1.314 . S
C984 C989 1.353 . S
C984 H990 0.930 . S
N985 Li968 1.990 . S
N985 C984 1.314 . S
N985 C987 1.279 . S
C986 C987 1.358 . S
C986 C988 1.356 . S
C986 H1040 0.930 . S
C987 N985 1.279 . S
C987 C986 1.358 . S
C987 H991 0.930 . S
C988 C986 1.356 . S
C988 C989 1.348 . S
C989 C984 1.353 . S
C989 C988 1.348 . S
C989 H1041 0.929 . S
H990 C984 0.930 . S
H991 C987 0.930 . S
C992 N993 1.314 . S
C992 C994 1.353 . S
C992 H998 0.930 . S
N993 Li969 1.990 . S
N993 C992 1.314 . S
N993 C996 1.279 . S
C994 C992 1.353 . S
C994 C997 1.348 . S
C994 H1042 0.929 . S
C995 C996 1.358 . S
C995 C997 1.356 . S
C995 H1043 0.930 . S
C996 N993 1.279 . S
C996 C995 1.358 . S
C996 H999 0.930 . S
C997 C994 1.348 . S
C997 C995 1.356 . S
H998 C992 0.930 . S
H999 C996 0.930 . S
C1000 C1002 1.348 . S
C1000 C1003 1.356 . S
C1000 O1030 1.325 . S
N1001 C1004 1.314 . S
N1001 C1005 1.279 . S
C1002 C1000 1.348 . S
C1002 C1004 1.353 . S
C1002 H1044 0.929 . S
C1003 C1000 1.356 . S
C1003 C1005 1.358 . S
C1003 H1045 0.930 . S
C1004 N1001 1.314 . S
C1004 C1002 1.353 . S
C1004 H1046 0.930 . S
C1005 N1001 1.279 . S
C1005 C1003 1.358 . S
C1005 H1047 0.930 . S
C1006 C1007 1.348 . S
C1006 C1008 1.356 . S
C1006 O1031 1.325 . S
C1007 C1006 1.348 . S
C1007 C1009 1.353 . S
C1007 H1048 0.929 . S
C1008 C1006 1.356 . S
C1008 C1010 1.358 . S
C1008 H1049 0.930 . S
C1009 C1007 1.353 . S
C1009 N1011 1.314 . S
C1009 H1050 0.930 . S
C1010 C1008 1.358 . S
C1010 N1011 1.279 . S
C1010 H1051 0.930 . S
N1011 C1009 1.314 . S
N1011 C1010 1.279 . S
C1012 C1014 1.353 . S
C1012 N1015 1.314 . S
C1012 H1018 0.930 . S
C1013 N1015 1.279 . S
C1013 C1016 1.358 . S
C1013 H1019 0.930 . S
C1014 C1012 1.353 . S
C1014 C1017 1.348 . S
C1014 H1052 0.929 . S
N1015 Li970 1.990 . S
N1015 C1012 1.314 . S
N1015 C1013 1.279 . S
C1016 C1013 1.358 . S
C1016 C1017 1.356 . S
C1016 H1053 0.930 . S
C1017 C1014 1.348 . S
C1017 C1016 1.356 . S
H1018 C1012 0.930 . S
H1019 C1013 0.930 . S
C1020 N1021 1.314 . S
C1020 C1022 1.353 . S
C1020 H1026 0.930 . S
N1021 Li971 1.990 . S
N1021 C1020 1.314 . S
N1021 C1024 1.279 . S
C1022 C1020 1.353 . S
C1022 C1025 1.348 . S
C1022 H1054 0.929 . S
C1023 C1024 1.358 . S
C1023 C1025 1.356 . S
C1023 H1055 0.930 . S
C1024 N1021 1.279 . S
C1024 C1023 1.358 . S
C1024 H1027 0.930 . S
C1025 C1022 1.348 . S
C1025 C1023 1.356 . S
H1026 C1020 0.930 . S
H1027 C1024 0.930 . S
O1028 Li968 1.956 . S
O1028 Li969 1.970 . S
O1028 Li970 1.961 . S
O1028 C972 1.325 . S
O1029 Li968 1.970 . S
O1029 Li969 1.956 . S
O1029 Li971 1.961 . S
O1029 C978 1.325 . S
O1030 Li968 1.961 . S
O1030 Li970 1.956 . S
O1030 Li971 1.970 . S
O1030 C1000 1.325 . S
O1031 Li969 1.961 . S
O1031 Li970 1.970 . S
O1031 Li971 1.956 . S
O1031 C1006 1.325 . S
H1032 C974 0.929 . S
H1033 C975 0.930 . S
H1034 C976 0.930 . S
H1035 C977 0.930 . S
H1036 C979 0.930 . S
H1037 C981 0.929 . S
H1038 C982 0.930 . S
H1039 C983 0.930 . S
H1040 C986 0.930 . S
H1041 C989 0.929 . S
H1042 C994 0.929 . S
H1043 C995 0.930 . S
H1044 C1002 0.929 . S
H1045 C1003 0.930 . S
H1046 C1004 0.930 . S
H1047 C1005 0.930 . S
H1048 C1007 0.929 . S
H1049 C1008 0.930 . S
H1050 C1009 0.930 . S
H1051 C1010 0.930 . S
H1052 C1014 0.929 . S
H1053 C1016 0.930 . S
H1054 C1022 0.929 . S
H1055 C1023 0.930 . S
Li1056 N1073 1.990 . S
Li1056 O1116 1.956 . S
Li1056 O1117 1.970 . S
Li1056 O1118 1.961 . S
Li1057 N1081 1.990 . S
Li1057 O1116 1.970 . S
Li1057 O1117 1.956 . S
Li1057 O1119 1.961 . S
Li1058 N1103 1.990 . S
Li1058 O1116 1.961 . S
Li1058 O1118 1.956 . S
Li1058 O1119 1.970 . S
Li1059 N1109 1.990 . S
Li1059 O1117 1.961 . S
Li1059 O1118 1.970 . S
Li1059 O1119 1.956 . S
C1060 C1062 1.348 . S
C1060 C1063 1.356 . S
C1060 O1116 1.325 . S
N1061 C1064 1.314 . S
N1061 C1065 1.279 . S
C1062 C1060 1.348 . S
C1062 C1064 1.353 . S
C1062 H1120 0.929 . S
C1063 C1060 1.356 . S
C1063 C1065 1.358 . S
C1063 H1121 0.930 . S
C1064 N1061 1.314 . S
C1064 C1062 1.353 . S
C1064 H1122 0.930 . S
C1065 N1061 1.279 . S
C1065 C1063 1.358 . S
C1065 H1123 0.930 . S
C1066 C1069 1.348 . S
C1066 C1070 1.356 . S
C1066 O1117 1.325 . S
C1067 N1068 1.279 . S
C1067 C1070 1.358 . S
C1067 H1124 0.930 . S
N1068 C1067 1.279 . S
N1068 C1071 1.314 . S
C1069 C1066 1.348 . S
C1069 C1071 1.353 . S
C1069 H1125 0.929 . S
C1070 C1066 1.356 . S
C1070 C1067 1.358 . S
C1070 H1126 0.930 . S
C1071 N1068 1.314 . S
C1071 C1069 1.353 . S
C1071 H1127 0.930 . S
C1072 N1073 1.314 . S
C1072 C1077 1.353 . S
C1072 H1078 0.930 . S
N1073 Li1056 1.990 . S
N1073 C1072 1.314 . S
N1073 C1075 1.279 . S
C1074 C1075 1.358 . S
C1074 C1076 1.356 . S
C1074 H1128 0.930 . S
C1075 N1073 1.279 . S
C1075 C1074 1.358 . S
C1075 H1079 0.930 . S
C1076 C1074 1.356 . S
C1076 C1077 1.348 . S
C1077 C1072 1.353 . S
C1077 C1076 1.348 . S
C1077 H1129 0.929 . S
H1078 C1072 0.930 . S
H1079 C1075 0.930 . S
C1080 N1081 1.314 . S
C1080 C1082 1.353 . S
C1080 H1086 0.930 . S
N1081 Li1057 1.990 . S
N1081 C1080 1.314 . S
N1081 C1084 1.279 . S
C1082 C1080 1.353 . S
C1082 C1085 1.348 . S
C1082 H1130 0.929 . S
C1083 C1084 1.358 . S
C1083 C1085 1.356 . S
C1083 H1131 0.930 . S
C1084 N1081 1.279 . S
C1084 C1083 1.358 . S
C1084 H1087 0.930 . S
C1085 C1082 1.348 . S
C1085 C1083 1.356 . S
H1086 C1080 0.930 . S
H1087 C1084 0.930 . S
C1088 C1090 1.348 . S
C1088 C1091 1.356 . S
C1088 O1118 1.325 . S
N1089 C1092 1.314 . S
N1089 C1093 1.279 . S
C1090 C1088 1.348 . S
C1090 C1092 1.353 . S
C1090 H1132 0.929 . S
C1091 C1088 1.356 . S
C1091 C1093 1.358 . S
C1091 H1133 0.930 . S
C1092 N1089 1.314 . S
C1092 C1090 1.353 . S
C1092 H1134 0.930 . S
C1093 N1089 1.279 . S
C1093 C1091 1.358 . S
C1093 H1135 0.930 . S
C1094 C1095 1.348 . S
C1094 C1096 1.356 . S
C1094 O1119 1.325 . S
C1095 C1094 1.348 . S
C1095 C1097 1.353 . S
C1095 H1136 0.929 . S
C1096 C1094 1.356 . S
C1096 C1098 1.358 . S
C1096 H1137 0.930 . S
C1097 C1095 1.353 . S
C1097 N1099 1.314 . S
C1097 H1138 0.930 . S
C1098 C1096 1.358 . S
C1098 N1099 1.279 . S
C1098 H1139 0.930 . S
N1099 C1097 1.314 . S
N1099 C1098 1.279 . S
C1100 C1102 1.353 . S
C1100 N1103 1.314 . S
C1100 H1106 0.930 . S
C1101 N1103 1.279 . S
C1101 C1104 1.358 . S
C1101 H1107 0.930 . S
C1102 C1100 1.353 . S
C1102 C1105 1.348 . S
C1102 H1140 0.929 . S
N1103 Li1058 1.990 . S
N1103 C1100 1.314 . S
N1103 C1101 1.279 . S
C1104 C1101 1.358 . S
C1104 C1105 1.356 . S
C1104 H1141 0.930 . S
C1105 C1102 1.348 . S
C1105 C1104 1.356 . S
H1106 C1100 0.930 . S
H1107 C1101 0.930 . S
C1108 N1109 1.314 . S
C1108 C1110 1.353 . S
C1108 H1114 0.930 . S
N1109 Li1059 1.990 . S
N1109 C1108 1.314 . S
N1109 C1112 1.279 . S
C1110 C1108 1.353 . S
C1110 C1113 1.348 . S
C1110 H1142 0.929 . S
C1111 C1112 1.358 . S
C1111 C1113 1.356 . S
C1111 H1143 0.930 . S
C1112 N1109 1.279 . S
C1112 C1111 1.358 . S
C1112 H1115 0.930 . S
C1113 C1110 1.348 . S
C1113 C1111 1.356 . S
H1114 C1108 0.930 . S
H1115 C1112 0.930 . S
O1116 Li1056 1.956 . S
O1116 Li1057 1.970 . S
O1116 Li1058 1.961 . S
O1116 C1060 1.325 . S
O1117 Li1056 1.970 . S
O1117 Li1057 1.956 . S
O1117 Li1059 1.961 . S
O1117 C1066 1.325 . S
O1118 Li1056 1.961 . S
O1118 Li1058 1.956 . S
O1118 Li1059 1.970 . S
O1118 C1088 1.325 . S
O1119 Li1057 1.961 . S
O1119 Li1058 1.970 . S
O1119 Li1059 1.956 . S
O1119 C1094 1.325 . S
H1120 C1062 0.929 . S
H1121 C1063 0.930 . S
H1122 C1064 0.930 . S
H1123 C1065 0.930 . S
H1124 C1067 0.930 . S
H1125 C1069 0.929 . S
H1126 C1070 0.930 . S
H1127 C1071 0.930 . S
H1128 C1074 0.930 . S
H1129 C1077 0.929 . S
H1130 C1082 0.929 . S
H1131 C1083 0.930 . S
H1132 C1090 0.929 . S
H1133 C1091 0.930 . S
H1134 C1092 0.930 . S
H1135 C1093 0.930 . S
H1136 C1095 0.929 . S
H1137 C1096 0.930 . S
H1138 C1097 0.930 . S
H1139 C1098 0.930 . S
H1140 C1102 0.929 . S
H1141 C1104 0.930 . S
H1142 C1110 0.929 . S
H1143 C1111 0.930 . S
Li1144 N1161 1.990 . S
Li1144 O1204 1.956 . S
Li1144 O1205 1.970 . S
Li1144 O1206 1.961 . S
Li1145 N1169 1.990 . S
Li1145 O1204 1.970 . S
Li1145 O1205 1.956 . S
Li1145 O1207 1.961 . S
Li1146 N1191 1.990 . S
Li1146 O1204 1.961 . S
Li1146 O1206 1.956 . S
Li1146 O1207 1.970 . S
Li1147 N1197 1.990 . S
Li1147 O1205 1.961 . S
Li1147 O1206 1.970 . S
Li1147 O1207 1.956 . S
C1148 C1150 1.348 . S
C1148 C1151 1.356 . S
C1148 O1204 1.325 . S
N1149 C1152 1.314 . S
N1149 C1153 1.279 . S
C1150 C1148 1.348 . S
C1150 C1152 1.353 . S
C1150 H1208 0.929 . S
C1151 C1148 1.356 . S
C1151 C1153 1.358 . S
C1151 H1209 0.930 . S
C1152 N1149 1.314 . S
C1152 C1150 1.353 . S
C1152 H1210 0.930 . S
C1153 N1149 1.279 . S
C1153 C1151 1.358 . S
C1153 H1211 0.930 . S
C1154 C1157 1.348 . S
C1154 C1158 1.356 . S
C1154 O1205 1.325 . S
C1155 N1156 1.279 . S
C1155 C1158 1.358 . S
C1155 H1212 0.930 . S
N1156 C1155 1.279 . S
N1156 C1159 1.314 . S
C1157 C1154 1.348 . S
C1157 C1159 1.353 . S
C1157 H1213 0.929 . S
C1158 C1154 1.356 . S
C1158 C1155 1.358 . S
C1158 H1214 0.930 . S
C1159 N1156 1.314 . S
C1159 C1157 1.353 . S
C1159 H1215 0.930 . S
C1160 N1161 1.314 . S
C1160 C1165 1.353 . S
C1160 H1166 0.930 . S
N1161 Li1144 1.990 . S
N1161 C1160 1.314 . S
N1161 C1163 1.279 . S
C1162 C1163 1.358 . S
C1162 C1164 1.356 . S
C1162 H1216 0.930 . S
C1163 N1161 1.279 . S
C1163 C1162 1.358 . S
C1163 H1167 0.930 . S
C1164 C1162 1.356 . S
C1164 C1165 1.348 . S
C1165 C1160 1.353 . S
C1165 C1164 1.348 . S
C1165 H1217 0.929 . S
H1166 C1160 0.930 . S
H1167 C1163 0.930 . S
C1168 N1169 1.314 . S
C1168 C1170 1.353 . S
C1168 H1174 0.930 . S
N1169 Li1145 1.990 . S
N1169 C1168 1.314 . S
N1169 C1172 1.279 . S
C1170 C1168 1.353 . S
C1170 C1173 1.348 . S
C1170 H1218 0.929 . S
C1171 C1172 1.358 . S
C1171 C1173 1.356 . S
C1171 H1219 0.930 . S
C1172 N1169 1.279 . S
C1172 C1171 1.358 . S
C1172 H1175 0.930 . S
C1173 C1170 1.348 . S
C1173 C1171 1.356 . S
H1174 C1168 0.930 . S
H1175 C1172 0.930 . S
C1176 C1178 1.348 . S
C1176 C1179 1.356 . S
C1176 O1206 1.325 . S
N1177 C1180 1.314 . S
N1177 C1181 1.279 . S
C1178 C1176 1.348 . S
C1178 C1180 1.353 . S
C1178 H1220 0.929 . S
C1179 C1176 1.356 . S
C1179 C1181 1.358 . S
C1179 H1221 0.930 . S
C1180 N1177 1.314 . S
C1180 C1178 1.353 . S
C1180 H1222 0.930 . S
C1181 N1177 1.279 . S
C1181 C1179 1.358 . S
C1181 H1223 0.930 . S
C1182 C1183 1.348 . S
C1182 C1184 1.356 . S
C1182 O1207 1.325 . S
C1183 C1182 1.348 . S
C1183 C1185 1.353 . S
C1183 H1224 0.929 . S
C1184 C1182 1.356 . S
C1184 C1186 1.358 . S
C1184 H1225 0.930 . S
C1185 C1183 1.353 . S
C1185 N1187 1.314 . S
C1185 H1226 0.930 . S
C1186 C1184 1.358 . S
C1186 N1187 1.279 . S
C1186 H1227 0.930 . S
N1187 C1185 1.314 . S
N1187 C1186 1.279 . S
C1188 C1190 1.353 . S
C1188 N1191 1.314 . S
C1188 H1194 0.930 . S
C1189 N1191 1.279 . S
C1189 C1192 1.358 . S
C1189 H1195 0.930 . S
C1190 C1188 1.353 . S
C1190 C1193 1.348 . S
C1190 H1228 0.929 . S
N1191 Li1146 1.990 . S
N1191 C1188 1.314 . S
N1191 C1189 1.279 . S
C1192 C1189 1.358 . S
C1192 C1193 1.356 . S
C1192 H1229 0.930 . S
C1193 C1190 1.348 . S
C1193 C1192 1.356 . S
H1194 C1188 0.930 . S
H1195 C1189 0.930 . S
C1196 N1197 1.314 . S
C1196 C1198 1.353 . S
C1196 H1202 0.930 . S
N1197 Li1147 1.990 . S
N1197 C1196 1.314 . S
N1197 C1200 1.279 . S
C1198 C1196 1.353 . S
C1198 C1201 1.348 . S
C1198 H1230 0.929 . S
C1199 C1200 1.358 . S
C1199 C1201 1.356 . S
C1199 H1231 0.930 . S
C1200 N1197 1.279 . S
C1200 C1199 1.358 . S
C1200 H1203 0.930 . S
C1201 C1198 1.348 . S
C1201 C1199 1.356 . S
H1202 C1196 0.930 . S
H1203 C1200 0.930 . S
O1204 Li1144 1.956 . S
O1204 Li1145 1.970 . S
O1204 Li1146 1.961 . S
O1204 C1148 1.325 . S
O1205 Li1144 1.970 . S
O1205 Li1145 1.956 . S
O1205 Li1147 1.961 . S
O1205 C1154 1.325 . S
O1206 Li1144 1.961 . S
O1206 Li1146 1.956 . S
O1206 Li1147 1.970 . S
O1206 C1176 1.325 . S
O1207 Li1145 1.961 . S
O1207 Li1146 1.970 . S
O1207 Li1147 1.956 . S
O1207 C1182 1.325 . S
H1208 C1150 0.929 . S
H1209 C1151 0.930 . S
H1210 C1152 0.930 . S
H1211 C1153 0.930 . S
H1212 C1155 0.930 . S
H1213 C1157 0.929 . S
H1214 C1158 0.930 . S
H1215 C1159 0.930 . S
H1216 C1162 0.930 . S
H1217 C1165 0.929 . S
H1218 C1170 0.929 . S
H1219 C1171 0.930 . S
H1220 C1178 0.929 . S
H1221 C1179 0.930 . S
H1222 C1180 0.930 . S
H1223 C1181 0.930 . S
H1224 C1183 0.929 . S
H1225 C1184 0.930 . S
H1226 C1185 0.930 . S
H1227 C1186 0.930 . S
H1228 C1190 0.929 . S
H1229 C1192 0.930 . S
H1230 C1198 0.929 . S
H1231 C1199 0.930 . S
Li1232 N1249 1.990 . S
Li1232 O1292 1.956 . S
Li1232 O1293 1.970 . S
Li1232 O1294 1.961 . S
Li1233 N1257 1.990 . S
Li1233 O1292 1.970 . S
Li1233 O1293 1.956 . S
Li1233 O1295 1.961 . S
Li1234 N1279 1.990 . S
Li1234 O1292 1.961 . S
Li1234 O1294 1.956 . S
Li1234 O1295 1.970 . S
Li1235 N1285 1.990 . S
Li1235 O1293 1.961 . S
Li1235 O1294 1.970 . S
Li1235 O1295 1.956 . S
C1236 C1238 1.348 . S
C1236 C1239 1.356 . S
C1236 O1292 1.325 . S
N1237 C1240 1.314 . S
N1237 C1241 1.279 . S
C1238 C1236 1.348 . S
C1238 C1240 1.353 . S
C1238 H1296 0.929 . S
C1239 C1236 1.356 . S
C1239 C1241 1.358 . S
C1239 H1297 0.930 . S
C1240 N1237 1.314 . S
C1240 C1238 1.353 . S
C1240 H1298 0.930 . S
C1241 N1237 1.279 . S
C1241 C1239 1.358 . S
C1241 H1299 0.930 . S
C1242 C1245 1.348 . S
C1242 C1246 1.356 . S
C1242 O1293 1.325 . S
C1243 N1244 1.279 . S
C1243 C1246 1.358 . S
C1243 H1300 0.930 . S
N1244 C1243 1.279 . S
N1244 C1247 1.314 . S
C1245 C1242 1.348 . S
C1245 C1247 1.353 . S
C1245 H1301 0.929 . S
C1246 C1242 1.356 . S
C1246 C1243 1.358 . S
C1246 H1302 0.930 . S
C1247 N1244 1.314 . S
C1247 C1245 1.353 . S
C1247 H1303 0.930 . S
C1248 N1249 1.314 . S
C1248 C1253 1.353 . S
C1248 H1254 0.930 . S
N1249 Li1232 1.990 . S
N1249 C1248 1.314 . S
N1249 C1251 1.279 . S
C1250 C1251 1.358 . S
C1250 C1252 1.356 . S
C1250 H1304 0.930 . S
C1251 N1249 1.279 . S
C1251 C1250 1.358 . S
C1251 H1255 0.930 . S
C1252 C1250 1.356 . S
C1252 C1253 1.348 . S
C1253 C1248 1.353 . S
C1253 C1252 1.348 . S
C1253 H1305 0.929 . S
H1254 C1248 0.930 . S
H1255 C1251 0.930 . S
C1256 N1257 1.314 . S
C1256 C1258 1.353 . S
C1256 H1262 0.930 . S
N1257 Li1233 1.990 . S
N1257 C1256 1.314 . S
N1257 C1260 1.279 . S
C1258 C1256 1.353 . S
C1258 C1261 1.348 . S
C1258 H1306 0.929 . S
C1259 C1260 1.358 . S
C1259 C1261 1.356 . S
C1259 H1307 0.930 . S
C1260 N1257 1.279 . S
C1260 C1259 1.358 . S
C1260 H1263 0.930 . S
C1261 C1258 1.348 . S
C1261 C1259 1.356 . S
H1262 C1256 0.930 . S
H1263 C1260 0.930 . S
C1264 C1266 1.348 . S
C1264 C1267 1.356 . S
C1264 O1294 1.325 . S
N1265 C1268 1.314 . S
N1265 C1269 1.279 . S
C1266 C1264 1.348 . S
C1266 C1268 1.353 . S
C1266 H1308 0.929 . S
C1267 C1264 1.356 . S
C1267 C1269 1.358 . S
C1267 H1309 0.930 . S
C1268 N1265 1.314 . S
C1268 C1266 1.353 . S
C1268 H1310 0.930 . S
C1269 N1265 1.279 . S
C1269 C1267 1.358 . S
C1269 H1311 0.930 . S
C1270 C1271 1.348 . S
C1270 C1272 1.356 . S
C1270 O1295 1.325 . S
C1271 C1270 1.348 . S
C1271 C1273 1.353 . S
C1271 H1312 0.929 . S
C1272 C1270 1.356 . S
C1272 C1274 1.358 . S
C1272 H1313 0.930 . S
C1273 C1271 1.353 . S
C1273 N1275 1.314 . S
C1273 H1314 0.930 . S
C1274 C1272 1.358 . S
C1274 N1275 1.279 . S
C1274 H1315 0.930 . S
N1275 C1273 1.314 . S
N1275 C1274 1.279 . S
C1276 C1278 1.353 . S
C1276 N1279 1.314 . S
C1276 H1282 0.930 . S
C1277 N1279 1.279 . S
C1277 C1280 1.358 . S
C1277 H1283 0.930 . S
C1278 C1276 1.353 . S
C1278 C1281 1.348 . S
C1278 H1316 0.929 . S
N1279 Li1234 1.990 . S
N1279 C1276 1.314 . S
N1279 C1277 1.279 . S
C1280 C1277 1.358 . S
C1280 C1281 1.356 . S
C1280 H1317 0.930 . S
C1281 C1278 1.348 . S
C1281 C1280 1.356 . S
H1282 C1276 0.930 . S
H1283 C1277 0.930 . S
C1284 N1285 1.314 . S
C1284 C1286 1.353 . S
C1284 H1290 0.930 . S
N1285 Li1235 1.990 . S
N1285 C1284 1.314 . S
N1285 C1288 1.279 . S
C1286 C1284 1.353 . S
C1286 C1289 1.348 . S
C1286 H1318 0.929 . S
C1287 C1288 1.358 . S
C1287 C1289 1.356 . S
C1287 H1319 0.930 . S
C1288 N1285 1.279 . S
C1288 C1287 1.358 . S
C1288 H1291 0.930 . S
C1289 C1286 1.348 . S
C1289 C1287 1.356 . S
H1290 C1284 0.930 . S
H1291 C1288 0.930 . S
O1292 Li1232 1.956 . S
O1292 Li1233 1.970 . S
O1292 Li1234 1.961 . S
O1292 C1236 1.325 . S
O1293 Li1232 1.970 . S
O1293 Li1233 1.956 . S
O1293 Li1235 1.961 . S
O1293 C1242 1.325 . S
O1294 Li1232 1.961 . S
O1294 Li1234 1.956 . S
O1294 Li1235 1.970 . S
O1294 C1264 1.325 . S
O1295 Li1233 1.961 . S
O1295 Li1234 1.970 . S
O1295 Li1235 1.956 . S
O1295 C1270 1.325 . S
H1296 C1238 0.929 . S
H1297 C1239 0.930 . S
H1298 C1240 0.930 . S
H1299 C1241 0.930 . S
H1300 C1243 0.930 . S
H1301 C1245 0.929 . S
H1302 C1246 0.930 . S
H1303 C1247 0.930 . S
H1304 C1250 0.930 . S
H1305 C1253 0.929 . S
H1306 C1258 0.929 . S
H1307 C1259 0.930 . S
H1308 C1266 0.929 . S
H1309 C1267 0.930 . S
H1310 C1268 0.930 . S
H1311 C1269 0.930 . S
H1312 C1271 0.929 . S
H1313 C1272 0.930 . S
H1314 C1273 0.930 . S
H1315 C1274 0.930 . S
H1316 C1278 0.929 . S
H1317 C1280 0.930 . S
H1318 C1286 0.929 . S
H1319 C1287 0.930 . S
Li1320 N1337 1.990 . S
Li1320 O1380 1.956 . S
Li1320 O1381 1.970 . S
Li1320 O1382 1.961 . S
Li1321 N1345 1.990 . S
Li1321 O1380 1.970 . S
Li1321 O1381 1.956 . S
Li1321 O1383 1.961 . S
Li1322 N1367 1.990 . S
Li1322 O1380 1.961 . S
Li1322 O1382 1.956 . S
Li1322 O1383 1.970 . S
Li1323 N1373 1.990 . S
Li1323 O1381 1.961 . S
Li1323 O1382 1.970 . S
Li1323 O1383 1.956 . S
C1324 C1326 1.348 . S
C1324 C1327 1.356 . S
C1324 O1380 1.325 . S
N1325 C1328 1.314 . S
N1325 C1329 1.279 . S
C1326 C1324 1.348 . S
C1326 C1328 1.353 . S
C1326 H1384 0.929 . S
C1327 C1324 1.356 . S
C1327 C1329 1.358 . S
C1327 H1385 0.930 . S
C1328 N1325 1.314 . S
C1328 C1326 1.353 . S
C1328 H1386 0.930 . S
C1329 N1325 1.279 . S
C1329 C1327 1.358 . S
C1329 H1387 0.930 . S
C1330 C1333 1.348 . S
C1330 C1334 1.356 . S
C1330 O1381 1.325 . S
C1331 N1332 1.279 . S
C1331 C1334 1.358 . S
C1331 H1388 0.930 . S
N1332 C1331 1.279 . S
N1332 C1335 1.314 . S
C1333 C1330 1.348 . S
C1333 C1335 1.353 . S
C1333 H1389 0.929 . S
C1334 C1330 1.356 . S
C1334 C1331 1.358 . S
C1334 H1390 0.930 . S
C1335 N1332 1.314 . S
C1335 C1333 1.353 . S
C1335 H1391 0.930 . S
C1336 N1337 1.314 . S
C1336 C1341 1.353 . S
C1336 H1342 0.930 . S
N1337 Li1320 1.990 . S
N1337 C1336 1.314 . S
N1337 C1339 1.279 . S
C1338 C1339 1.358 . S
C1338 C1340 1.356 . S
C1338 H1392 0.930 . S
C1339 N1337 1.279 . S
C1339 C1338 1.358 . S
C1339 H1343 0.930 . S
C1340 C1338 1.356 . S
C1340 C1341 1.348 . S
C1341 C1336 1.353 . S
C1341 C1340 1.348 . S
C1341 H1393 0.929 . S
H1342 C1336 0.930 . S
H1343 C1339 0.930 . S
C1344 N1345 1.314 . S
C1344 C1346 1.353 . S
C1344 H1350 0.930 . S
N1345 Li1321 1.990 . S
N1345 C1344 1.314 . S
N1345 C1348 1.279 . S
C1346 C1344 1.353 . S
C1346 C1349 1.348 . S
C1346 H1394 0.929 . S
C1347 C1348 1.358 . S
C1347 C1349 1.356 . S
C1347 H1395 0.930 . S
C1348 N1345 1.279 . S
C1348 C1347 1.358 . S
C1348 H1351 0.930 . S
C1349 C1346 1.348 . S
C1349 C1347 1.356 . S
H1350 C1344 0.930 . S
H1351 C1348 0.930 . S
C1352 C1354 1.348 . S
C1352 C1355 1.356 . S
C1352 O1382 1.325 . S
N1353 C1356 1.314 . S
N1353 C1357 1.279 . S
C1354 C1352 1.348 . S
C1354 C1356 1.353 . S
C1354 H1396 0.929 . S
C1355 C1352 1.356 . S
C1355 C1357 1.358 . S
C1355 H1397 0.930 . S
C1356 N1353 1.314 . S
C1356 C1354 1.353 . S
C1356 H1398 0.930 . S
C1357 N1353 1.279 . S
C1357 C1355 1.358 . S
C1357 H1399 0.930 . S
C1358 C1359 1.348 . S
C1358 C1360 1.356 . S
C1358 O1383 1.325 . S
C1359 C1358 1.348 . S
C1359 C1361 1.353 . S
C1359 H1400 0.929 . S
C1360 C1358 1.356 . S
C1360 C1362 1.358 . S
C1360 H1401 0.930 . S
C1361 C1359 1.353 . S
C1361 N1363 1.314 . S
C1361 H1402 0.930 . S
C1362 C1360 1.358 . S
C1362 N1363 1.279 . S
C1362 H1403 0.930 . S
N1363 C1361 1.314 . S
N1363 C1362 1.279 . S
C1364 C1366 1.353 . S
C1364 N1367 1.314 . S
C1364 H1370 0.930 . S
C1365 N1367 1.279 . S
C1365 C1368 1.358 . S
C1365 H1371 0.930 . S
C1366 C1364 1.353 . S
C1366 C1369 1.348 . S
C1366 H1404 0.929 . S
N1367 Li1322 1.990 . S
N1367 C1364 1.314 . S
N1367 C1365 1.279 . S
C1368 C1365 1.358 . S
C1368 C1369 1.356 . S
C1368 H1405 0.930 . S
C1369 C1366 1.348 . S
C1369 C1368 1.356 . S
H1370 C1364 0.930 . S
H1371 C1365 0.930 . S
C1372 N1373 1.314 . S
C1372 C1374 1.353 . S
C1372 H1378 0.930 . S
N1373 Li1323 1.990 . S
N1373 C1372 1.314 . S
N1373 C1376 1.279 . S
C1374 C1372 1.353 . S
C1374 C1377 1.348 . S
C1374 H1406 0.929 . S
C1375 C1376 1.358 . S
C1375 C1377 1.356 . S
C1375 H1407 0.930 . S
C1376 N1373 1.279 . S
C1376 C1375 1.358 . S
C1376 H1379 0.930 . S
C1377 C1374 1.348 . S
C1377 C1375 1.356 . S
H1378 C1372 0.930 . S
H1379 C1376 0.930 . S
O1380 Li1320 1.956 . S
O1380 Li1321 1.970 . S
O1380 Li1322 1.961 . S
O1380 C1324 1.325 . S
O1381 Li1320 1.970 . S
O1381 Li1321 1.956 . S
O1381 Li1323 1.961 . S
O1381 C1330 1.325 . S
O1382 Li1320 1.961 . S
O1382 Li1322 1.956 . S
O1382 Li1323 1.970 . S
O1382 C1352 1.325 . S
O1383 Li1321 1.961 . S
O1383 Li1322 1.970 . S
O1383 Li1323 1.956 . S
O1383 C1358 1.325 . S
H1384 C1326 0.929 . S
H1385 C1327 0.930 . S
H1386 C1328 0.930 . S
H1387 C1329 0.930 . S
H1388 C1331 0.930 . S
H1389 C1333 0.929 . S
H1390 C1334 0.930 . S
H1391 C1335 0.930 . S
H1392 C1338 0.930 . S
H1393 C1341 0.929 . S
H1394 C1346 0.929 . S
H1395 C1347 0.930 . S
H1396 C1354 0.929 . S
H1397 C1355 0.930 . S
H1398 C1356 0.930 . S
H1399 C1357 0.930 . S
H1400 C1359 0.929 . S
H1401 C1360 0.930 . S
H1402 C1361 0.930 . S
H1403 C1362 0.930 . S
H1404 C1366 0.929 . S
H1405 C1368 0.930 . S
H1406 C1374 0.929 . S
H1407 C1375 0.930 . S
Li1408 N1425 1.990 . S
Li1408 O1468 1.956 . S
Li1408 O1469 1.970 . S
Li1408 O1470 1.961 . S
Li1409 N1433 1.990 . S
Li1409 O1468 1.970 . S
Li1409 O1469 1.956 . S
Li1409 O1471 1.961 . S
Li1410 N1455 1.990 . S
Li1410 O1468 1.961 . S
Li1410 O1470 1.956 . S
Li1410 O1471 1.970 . S
Li1411 N1461 1.990 . S
Li1411 O1469 1.961 . S
Li1411 O1470 1.970 . S
Li1411 O1471 1.956 . S
C1412 C1414 1.348 . S
C1412 C1415 1.356 . S
C1412 O1468 1.325 . S
N1413 C1416 1.314 . S
N1413 C1417 1.279 . S
C1414 C1412 1.348 . S
C1414 C1416 1.353 . S
C1414 H1472 0.929 . S
C1415 C1412 1.356 . S
C1415 C1417 1.358 . S
C1415 H1473 0.930 . S
C1416 N1413 1.314 . S
C1416 C1414 1.353 . S
C1416 H1474 0.930 . S
C1417 N1413 1.279 . S
C1417 C1415 1.358 . S
C1417 H1475 0.930 . S
C1418 C1421 1.348 . S
C1418 C1422 1.356 . S
C1418 O1469 1.325 . S
C1419 N1420 1.279 . S
C1419 C1422 1.358 . S
C1419 H1476 0.930 . S
N1420 C1419 1.279 . S
N1420 C1423 1.314 . S
C1421 C1418 1.348 . S
C1421 C1423 1.353 . S
C1421 H1477 0.929 . S
C1422 C1418 1.356 . S
C1422 C1419 1.358 . S
C1422 H1478 0.930 . S
C1423 N1420 1.314 . S
C1423 C1421 1.353 . S
C1423 H1479 0.930 . S
C1424 N1425 1.314 . S
C1424 C1429 1.353 . S
C1424 H1430 0.930 . S
N1425 Li1408 1.990 . S
N1425 C1424 1.314 . S
N1425 C1427 1.279 . S
C1426 C1427 1.358 . S
C1426 C1428 1.356 . S
C1426 H1480 0.930 . S
C1427 N1425 1.279 . S
C1427 C1426 1.358 . S
C1427 H1431 0.930 . S
C1428 C1426 1.356 . S
C1428 C1429 1.348 . S
C1429 C1424 1.353 . S
C1429 C1428 1.348 . S
C1429 H1481 0.929 . S
H1430 C1424 0.930 . S
H1431 C1427 0.930 . S
C1432 N1433 1.314 . S
C1432 C1434 1.353 . S
C1432 H1438 0.930 . S
N1433 Li1409 1.990 . S
N1433 C1432 1.314 . S
N1433 C1436 1.279 . S
C1434 C1432 1.353 . S
C1434 C1437 1.348 . S
C1434 H1482 0.929 . S
C1435 C1436 1.358 . S
C1435 C1437 1.356 . S
C1435 H1483 0.930 . S
C1436 N1433 1.279 . S
C1436 C1435 1.358 . S
C1436 H1439 0.930 . S
C1437 C1434 1.348 . S
C1437 C1435 1.356 . S
H1438 C1432 0.930 . S
H1439 C1436 0.930 . S
C1440 C1442 1.348 . S
C1440 C1443 1.356 . S
C1440 O1470 1.325 . S
N1441 C1444 1.314 . S
N1441 C1445 1.279 . S
C1442 C1440 1.348 . S
C1442 C1444 1.353 . S
C1442 H1484 0.929 . S
C1443 C1440 1.356 . S
C1443 C1445 1.358 . S
C1443 H1485 0.930 . S
C1444 N1441 1.314 . S
C1444 C1442 1.353 . S
C1444 H1486 0.930 . S
C1445 N1441 1.279 . S
C1445 C1443 1.358 . S
C1445 H1487 0.930 . S
C1446 C1447 1.348 . S
C1446 C1448 1.356 . S
C1446 O1471 1.325 . S
C1447 C1446 1.348 . S
C1447 C1449 1.353 . S
C1447 H1488 0.929 . S
C1448 C1446 1.356 . S
C1448 C1450 1.358 . S
C1448 H1489 0.930 . S
C1449 C1447 1.353 . S
C1449 N1451 1.314 . S
C1449 H1490 0.930 . S
C1450 C1448 1.358 . S
C1450 N1451 1.279 . S
C1450 H1491 0.930 . S
N1451 C1449 1.314 . S
N1451 C1450 1.279 . S
C1452 C1454 1.353 . S
C1452 N1455 1.314 . S
C1452 H1458 0.930 . S
C1453 N1455 1.279 . S
C1453 C1456 1.358 . S
C1453 H1459 0.930 . S
C1454 C1452 1.353 . S
C1454 C1457 1.348 . S
C1454 H1492 0.929 . S
N1455 Li1410 1.990 . S
N1455 C1452 1.314 . S
N1455 C1453 1.279 . S
C1456 C1453 1.358 . S
C1456 C1457 1.356 . S
C1456 H1493 0.930 . S
C1457 C1454 1.348 . S
C1457 C1456 1.356 . S
H1458 C1452 0.930 . S
H1459 C1453 0.930 . S
C1460 N1461 1.314 . S
C1460 C1462 1.353 . S
C1460 H1466 0.930 . S
N1461 Li1411 1.990 . S
N1461 C1460 1.314 . S
N1461 C1464 1.279 . S
C1462 C1460 1.353 . S
C1462 C1465 1.348 . S
C1462 H1494 0.929 . S
C1463 C1464 1.358 . S
C1463 C1465 1.356 . S
C1463 H1495 0.930 . S
C1464 N1461 1.279 . S
C1464 C1463 1.358 . S
C1464 H1467 0.930 . S
C1465 C1462 1.348 . S
C1465 C1463 1.356 . S
H1466 C1460 0.930 . S
H1467 C1464 0.930 . S
O1468 Li1408 1.956 . S
O1468 Li1409 1.970 . S
O1468 Li1410 1.961 . S
O1468 C1412 1.325 . S
O1469 Li1408 1.970 . S
O1469 Li1409 1.956 . S
O1469 Li1411 1.961 . S
O1469 C1418 1.325 . S
O1470 Li1408 1.961 . S
O1470 Li1410 1.956 . S
O1470 Li1411 1.970 . S
O1470 C1440 1.325 . S
O1471 Li1409 1.961 . S
O1471 Li1410 1.970 . S
O1471 Li1411 1.956 . S
O1471 C1446 1.325 . S
H1472 C1414 0.929 . S
H1473 C1415 0.930 . S
H1474 C1416 0.930 . S
H1475 C1417 0.930 . S
H1476 C1419 0.930 . S
H1477 C1421 0.929 . S
H1478 C1422 0.930 . S
H1479 C1423 0.930 . S
H1480 C1426 0.930 . S
H1481 C1429 0.929 . S
H1482 C1434 0.929 . S
H1483 C1435 0.930 . S
H1484 C1442 0.929 . S
H1485 C1443 0.930 . S
H1486 C1444 0.930 . S
H1487 C1445 0.930 . S
H1488 C1447 0.929 . S
H1489 C1448 0.930 . S
H1490 C1449 0.930 . S
H1491 C1450 0.930 . S
H1492 C1454 0.929 . S
H1493 C1456 0.930 . S
H1494 C1462 0.929 . S
H1495 C1463 0.930 . S
Li1496 N1513 1.990 . S
Li1496 O1556 1.956 . S
Li1496 O1557 1.970 . S
Li1496 O1558 1.961 . S
Li1497 N1521 1.990 . S
Li1497 O1556 1.970 . S
Li1497 O1557 1.956 . S
Li1497 O1559 1.961 . S
Li1498 N1543 1.990 . S
Li1498 O1556 1.961 . S
Li1498 O1558 1.956 . S
Li1498 O1559 1.970 . S
Li1499 N1549 1.990 . S
Li1499 O1557 1.961 . S
Li1499 O1558 1.970 . S
Li1499 O1559 1.956 . S
C1500 C1502 1.348 . S
C1500 C1503 1.356 . S
C1500 O1556 1.325 . S
N1501 C1504 1.314 . S
N1501 C1505 1.279 . S
C1502 C1500 1.348 . S
C1502 C1504 1.353 . S
C1502 H1560 0.929 . S
C1503 C1500 1.356 . S
C1503 C1505 1.358 . S
C1503 H1561 0.930 . S
C1504 N1501 1.314 . S
C1504 C1502 1.353 . S
C1504 H1562 0.930 . S
C1505 N1501 1.279 . S
C1505 C1503 1.358 . S
C1505 H1563 0.930 . S
C1506 C1509 1.348 . S
C1506 C1510 1.356 . S
C1506 O1557 1.325 . S
C1507 N1508 1.279 . S
C1507 C1510 1.358 . S
C1507 H1564 0.930 . S
N1508 C1507 1.279 . S
N1508 C1511 1.314 . S
C1509 C1506 1.348 . S
C1509 C1511 1.353 . S
C1509 H1565 0.929 . S
C1510 C1506 1.356 . S
C1510 C1507 1.358 . S
C1510 H1566 0.930 . S
C1511 N1508 1.314 . S
C1511 C1509 1.353 . S
C1511 H1567 0.930 . S
C1512 N1513 1.314 . S
C1512 C1517 1.353 . S
C1512 H1518 0.930 . S
N1513 Li1496 1.990 . S
N1513 C1512 1.314 . S
N1513 C1515 1.279 . S
C1514 C1515 1.358 . S
C1514 C1516 1.356 . S
C1514 H1568 0.930 . S
C1515 N1513 1.279 . S
C1515 C1514 1.358 . S
C1515 H1519 0.930 . S
C1516 C1514 1.356 . S
C1516 C1517 1.348 . S
C1517 C1512 1.353 . S
C1517 C1516 1.348 . S
C1517 H1569 0.929 . S
H1518 C1512 0.930 . S
H1519 C1515 0.930 . S
C1520 N1521 1.314 . S
C1520 C1522 1.353 . S
C1520 H1526 0.930 . S
N1521 Li1497 1.990 . S
N1521 C1520 1.314 . S
N1521 C1524 1.279 . S
C1522 C1520 1.353 . S
C1522 C1525 1.348 . S
C1522 H1570 0.929 . S
C1523 C1524 1.358 . S
C1523 C1525 1.356 . S
C1523 H1571 0.930 . S
C1524 N1521 1.279 . S
C1524 C1523 1.358 . S
C1524 H1527 0.930 . S
C1525 C1522 1.348 . S
C1525 C1523 1.356 . S
H1526 C1520 0.930 . S
H1527 C1524 0.930 . S
C1528 C1530 1.348 . S
C1528 C1531 1.356 . S
C1528 O1558 1.325 . S
N1529 C1532 1.314 . S
N1529 C1533 1.279 . S
C1530 C1528 1.348 . S
C1530 C1532 1.353 . S
C1530 H1572 0.929 . S
C1531 C1528 1.356 . S
C1531 C1533 1.358 . S
C1531 H1573 0.930 . S
C1532 N1529 1.314 . S
C1532 C1530 1.353 . S
C1532 H1574 0.930 . S
C1533 N1529 1.279 . S
C1533 C1531 1.358 . S
C1533 H1575 0.930 . S
C1534 C1535 1.348 . S
C1534 C1536 1.356 . S
C1534 O1559 1.325 . S
C1535 C1534 1.348 . S
C1535 C1537 1.353 . S
C1535 H1576 0.929 . S
C1536 C1534 1.356 . S
C1536 C1538 1.358 . S
C1536 H1577 0.930 . S
C1537 C1535 1.353 . S
C1537 N1539 1.314 . S
C1537 H1578 0.930 . S
C1538 C1536 1.358 . S
C1538 N1539 1.279 . S
C1538 H1579 0.930 . S
N1539 C1537 1.314 . S
N1539 C1538 1.279 . S
C1540 C1542 1.353 . S
C1540 N1543 1.314 . S
C1540 H1546 0.930 . S
C1541 N1543 1.279 . S
C1541 C1544 1.358 . S
C1541 H1547 0.930 . S
C1542 C1540 1.353 . S
C1542 C1545 1.348 . S
C1542 H1580 0.929 . S
N1543 Li1498 1.990 . S
N1543 C1540 1.314 . S
N1543 C1541 1.279 . S
C1544 C1541 1.358 . S
C1544 C1545 1.356 . S
C1544 H1581 0.930 . S
C1545 C1542 1.348 . S
C1545 C1544 1.356 . S
H1546 C1540 0.930 . S
H1547 C1541 0.930 . S
C1548 N1549 1.314 . S
C1548 C1550 1.353 . S
C1548 H1554 0.930 . S
N1549 Li1499 1.990 . S
N1549 C1548 1.314 . S
N1549 C1552 1.279 . S
C1550 C1548 1.353 . S
C1550 C1553 1.348 . S
C1550 H1582 0.929 . S
C1551 C1552 1.358 . S
C1551 C1553 1.356 . S
C1551 H1583 0.930 . S
C1552 N1549 1.279 . S
C1552 C1551 1.358 . S
C1552 H1555 0.930 . S
C1553 C1550 1.348 . S
C1553 C1551 1.356 . S
H1554 C1548 0.930 . S
H1555 C1552 0.930 . S
O1556 Li1496 1.956 . S
O1556 Li1497 1.970 . S
O1556 Li1498 1.961 . S
O1556 C1500 1.325 . S
O1557 Li1496 1.970 . S
O1557 Li1497 1.956 . S
O1557 Li1499 1.961 . S
O1557 C1506 1.325 . S
O1558 Li1496 1.961 . S
O1558 Li1498 1.956 . S
O1558 Li1499 1.970 . S
O1558 C1528 1.325 . S
O1559 Li1497 1.961 . S
O1559 Li1498 1.970 . S
O1559 Li1499 1.956 . S
O1559 C1534 1.325 . S
H1560 C1502 0.929 . S
H1561 C1503 0.930 . S
H1562 C1504 0.930 . S
H1563 C1505 0.930 . S
H1564 C1507 0.930 . S
H1565 C1509 0.929 . S
H1566 C1510 0.930 . S
H1567 C1511 0.930 . S
H1568 C1514 0.930 . S
H1569 C1517 0.929 . S
H1570 C1522 0.929 . S
H1571 C1523 0.930 . S
H1572 C1530 0.929 . S
H1573 C1531 0.930 . S
H1574 C1532 0.930 . S
H1575 C1533 0.930 . S
H1576 C1535 0.929 . S
H1577 C1536 0.930 . S
H1578 C1537 0.930 . S
H1579 C1538 0.930 . S
H1580 C1542 0.929 . S
H1581 C1544 0.930 . S
H1582 C1550 0.929 . S
H1583 C1551 0.930 . S
Li1584 N1601 1.990 . S
Li1584 O1644 1.956 . S
Li1584 O1645 1.970 . S
Li1584 O1646 1.961 . S
Li1585 N1609 1.990 . S
Li1585 O1644 1.970 . S
Li1585 O1645 1.956 . S
Li1585 O1647 1.961 . S
Li1586 N1631 1.990 . S
Li1586 O1644 1.961 . S
Li1586 O1646 1.956 . S
Li1586 O1647 1.970 . S
Li1587 N1637 1.990 . S
Li1587 O1645 1.961 . S
Li1587 O1646 1.970 . S
Li1587 O1647 1.956 . S
C1588 C1590 1.348 . S
C1588 C1591 1.356 . S
C1588 O1644 1.325 . S
N1589 C1592 1.314 . S
N1589 C1593 1.279 . S
C1590 C1588 1.348 . S
C1590 C1592 1.353 . S
C1590 H1648 0.929 . S
C1591 C1588 1.356 . S
C1591 C1593 1.358 . S
C1591 H1649 0.930 . S
C1592 N1589 1.314 . S
C1592 C1590 1.353 . S
C1592 H1650 0.930 . S
C1593 N1589 1.279 . S
C1593 C1591 1.358 . S
C1593 H1651 0.930 . S
C1594 C1597 1.348 . S
C1594 C1598 1.356 . S
C1594 O1645 1.325 . S
C1595 N1596 1.279 . S
C1595 C1598 1.358 . S
C1595 H1652 0.930 . S
N1596 C1595 1.279 . S
N1596 C1599 1.314 . S
C1597 C1594 1.348 . S
C1597 C1599 1.353 . S
C1597 H1653 0.929 . S
C1598 C1594 1.356 . S
C1598 C1595 1.358 . S
C1598 H1654 0.930 . S
C1599 N1596 1.314 . S
C1599 C1597 1.353 . S
C1599 H1655 0.930 . S
C1600 N1601 1.314 . S
C1600 C1605 1.353 . S
C1600 H1606 0.930 . S
N1601 Li1584 1.990 . S
N1601 C1600 1.314 . S
N1601 C1603 1.279 . S
C1602 C1603 1.358 . S
C1602 C1604 1.356 . S
C1602 H1656 0.930 . S
C1603 N1601 1.279 . S
C1603 C1602 1.358 . S
C1603 H1607 0.930 . S
C1604 C1602 1.356 . S
C1604 C1605 1.348 . S
C1605 C1600 1.353 . S
C1605 C1604 1.348 . S
C1605 H1657 0.929 . S
H1606 C1600 0.930 . S
H1607 C1603 0.930 . S
C1608 N1609 1.314 . S
C1608 C1610 1.353 . S
C1608 H1614 0.930 . S
N1609 Li1585 1.990 . S
N1609 C1608 1.314 . S
N1609 C1612 1.279 . S
C1610 C1608 1.353 . S
C1610 C1613 1.348 . S
C1610 H1658 0.929 . S
C1611 C1612 1.358 . S
C1611 C1613 1.356 . S
C1611 H1659 0.930 . S
C1612 N1609 1.279 . S
C1612 C1611 1.358 . S
C1612 H1615 0.930 . S
C1613 C1610 1.348 . S
C1613 C1611 1.356 . S
H1614 C1608 0.930 . S
H1615 C1612 0.930 . S
C1616 C1618 1.348 . S
C1616 C1619 1.356 . S
C1616 O1646 1.325 . S
N1617 C1620 1.314 . S
N1617 C1621 1.279 . S
C1618 C1616 1.348 . S
C1618 C1620 1.353 . S
C1618 H1660 0.929 . S
C1619 C1616 1.356 . S
C1619 C1621 1.358 . S
C1619 H1661 0.930 . S
C1620 N1617 1.314 . S
C1620 C1618 1.353 . S
C1620 H1662 0.930 . S
C1621 N1617 1.279 . S
C1621 C1619 1.358 . S
C1621 H1663 0.930 . S
C1622 C1623 1.348 . S
C1622 C1624 1.356 . S
C1622 O1647 1.325 . S
C1623 C1622 1.348 . S
C1623 C1625 1.353 . S
C1623 H1664 0.929 . S
C1624 C1622 1.356 . S
C1624 C1626 1.358 . S
C1624 H1665 0.930 . S
C1625 C1623 1.353 . S
C1625 N1627 1.314 . S
C1625 H1666 0.930 . S
C1626 C1624 1.358 . S
C1626 N1627 1.279 . S
C1626 H1667 0.930 . S
N1627 C1625 1.314 . S
N1627 C1626 1.279 . S
C1628 C1630 1.353 . S
C1628 N1631 1.314 . S
C1628 H1634 0.930 . S
C1629 N1631 1.279 . S
C1629 C1632 1.358 . S
C1629 H1635 0.930 . S
C1630 C1628 1.353 . S
C1630 C1633 1.348 . S
C1630 H1668 0.929 . S
N1631 Li1586 1.990 . S
N1631 C1628 1.314 . S
N1631 C1629 1.279 . S
C1632 C1629 1.358 . S
C1632 C1633 1.356 . S
C1632 H1669 0.930 . S
C1633 C1630 1.348 . S
C1633 C1632 1.356 . S
H1634 C1628 0.930 . S
H1635 C1629 0.930 . S
C1636 N1637 1.314 . S
C1636 C1638 1.353 . S
C1636 H1642 0.930 . S
N1637 Li1587 1.990 . S
N1637 C1636 1.314 . S
N1637 C1640 1.279 . S
C1638 C1636 1.353 . S
C1638 C1641 1.348 . S
C1638 H1670 0.929 . S
C1639 C1640 1.358 . S
C1639 C1641 1.356 . S
C1639 H1671 0.930 . S
C1640 N1637 1.279 . S
C1640 C1639 1.358 . S
C1640 H1643 0.930 . S
C1641 C1638 1.348 . S
C1641 C1639 1.356 . S
H1642 C1636 0.930 . S
H1643 C1640 0.930 . S
O1644 Li1584 1.956 . S
O1644 Li1585 1.970 . S
O1644 Li1586 1.961 . S
O1644 C1588 1.325 . S
O1645 Li1584 1.970 . S
O1645 Li1585 1.956 . S
O1645 Li1587 1.961 . S
O1645 C1594 1.325 . S
O1646 Li1584 1.961 . S
O1646 Li1586 1.956 . S
O1646 Li1587 1.970 . S
O1646 C1616 1.325 . S
O1647 Li1585 1.961 . S
O1647 Li1586 1.970 . S
O1647 Li1587 1.956 . S
O1647 C1622 1.325 . S
H1648 C1590 0.929 . S
H1649 C1591 0.930 . S
H1650 C1592 0.930 . S
H1651 C1593 0.930 . S
H1652 C1595 0.930 . S
H1653 C1597 0.929 . S
H1654 C1598 0.930 . S
H1655 C1599 0.930 . S
H1656 C1602 0.930 . S
H1657 C1605 0.929 . S
H1658 C1610 0.929 . S
H1659 C1611 0.930 . S
H1660 C1618 0.929 . S
H1661 C1619 0.930 . S
H1662 C1620 0.930 . S
H1663 C1621 0.930 . S
H1664 C1623 0.929 . S
H1665 C1624 0.930 . S
H1666 C1625 0.930 . S
H1667 C1626 0.930 . S
H1668 C1630 0.929 . S
H1669 C1632 0.930 . S
H1670 C1638 0.929 . S
H1671 C1639 0.930 . S
Li1672 N1689 1.990 . S
Li1672 O1732 1.956 . S
Li1672 O1733 1.970 . S
Li1672 O1734 1.961 . S
Li1673 N1697 1.990 . S
Li1673 O1732 1.970 . S
Li1673 O1733 1.956 . S
Li1673 O1735 1.961 . S
Li1674 N1719 1.990 . S
Li1674 O1732 1.961 . S
Li1674 O1734 1.956 . S
Li1674 O1735 1.970 . S
Li1675 N1725 1.990 . S
Li1675 O1733 1.961 . S
Li1675 O1734 1.970 . S
Li1675 O1735 1.956 . S
C1676 C1678 1.348 . S
C1676 C1679 1.356 . S
C1676 O1732 1.325 . S
N1677 C1680 1.314 . S
N1677 C1681 1.279 . S
C1678 C1676 1.348 . S
C1678 C1680 1.353 . S
C1678 H1736 0.929 . S
C1679 C1676 1.356 . S
C1679 C1681 1.358 . S
C1679 H1737 0.930 . S
C1680 N1677 1.314 . S
C1680 C1678 1.353 . S
C1680 H1738 0.930 . S
C1681 N1677 1.279 . S
C1681 C1679 1.358 . S
C1681 H1739 0.930 . S
C1682 C1685 1.348 . S
C1682 C1686 1.356 . S
C1682 O1733 1.325 . S
C1683 N1684 1.279 . S
C1683 C1686 1.358 . S
C1683 H1740 0.930 . S
N1684 C1683 1.279 . S
N1684 C1687 1.314 . S
C1685 C1682 1.348 . S
C1685 C1687 1.353 . S
C1685 H1741 0.929 . S
C1686 C1682 1.356 . S
C1686 C1683 1.358 . S
C1686 H1742 0.930 . S
C1687 N1684 1.314 . S
C1687 C1685 1.353 . S
C1687 H1743 0.930 . S
C1688 N1689 1.314 . S
C1688 C1693 1.353 . S
C1688 H1694 0.930 . S
N1689 Li1672 1.990 . S
N1689 C1688 1.314 . S
N1689 C1691 1.279 . S
C1690 C1691 1.358 . S
C1690 C1692 1.356 . S
C1690 H1744 0.930 . S
C1691 N1689 1.279 . S
C1691 C1690 1.358 . S
C1691 H1695 0.930 . S
C1692 C1690 1.356 . S
C1692 C1693 1.348 . S
C1693 C1688 1.353 . S
C1693 C1692 1.348 . S
C1693 H1745 0.929 . S
H1694 C1688 0.930 . S
H1695 C1691 0.930 . S
C1696 N1697 1.314 . S
C1696 C1698 1.353 . S
C1696 H1702 0.930 . S
N1697 Li1673 1.990 . S
N1697 C1696 1.314 . S
N1697 C1700 1.279 . S
C1698 C1696 1.353 . S
C1698 C1701 1.348 . S
C1698 H1746 0.929 . S
C1699 C1700 1.358 . S
C1699 C1701 1.356 . S
C1699 H1747 0.930 . S
C1700 N1697 1.279 . S
C1700 C1699 1.358 . S
C1700 H1703 0.930 . S
C1701 C1698 1.348 . S
C1701 C1699 1.356 . S
H1702 C1696 0.930 . S
H1703 C1700 0.930 . S
C1704 C1706 1.348 . S
C1704 C1707 1.356 . S
C1704 O1734 1.325 . S
N1705 C1708 1.314 . S
N1705 C1709 1.279 . S
C1706 C1704 1.348 . S
C1706 C1708 1.353 . S
C1706 H1748 0.929 . S
C1707 C1704 1.356 . S
C1707 C1709 1.358 . S
C1707 H1749 0.930 . S
C1708 N1705 1.314 . S
C1708 C1706 1.353 . S
C1708 H1750 0.930 . S
C1709 N1705 1.279 . S
C1709 C1707 1.358 . S
C1709 H1751 0.930 . S
C1710 C1711 1.348 . S
C1710 C1712 1.356 . S
C1710 O1735 1.325 . S
C1711 C1710 1.348 . S
C1711 C1713 1.353 . S
C1711 H1752 0.929 . S
C1712 C1710 1.356 . S
C1712 C1714 1.358 . S
C1712 H1753 0.930 . S
C1713 C1711 1.353 . S
C1713 N1715 1.314 . S
C1713 H1754 0.930 . S
C1714 C1712 1.358 . S
C1714 N1715 1.279 . S
C1714 H1755 0.930 . S
N1715 C1713 1.314 . S
N1715 C1714 1.279 . S
C1716 C1718 1.353 . S
C1716 N1719 1.314 . S
C1716 H1722 0.930 . S
C1717 N1719 1.279 . S
C1717 C1720 1.358 . S
C1717 H1723 0.930 . S
C1718 C1716 1.353 . S
C1718 C1721 1.348 . S
C1718 H1756 0.929 . S
N1719 Li1674 1.990 . S
N1719 C1716 1.314 . S
N1719 C1717 1.279 . S
C1720 C1717 1.358 . S
C1720 C1721 1.356 . S
C1720 H1757 0.930 . S
C1721 C1718 1.348 . S
C1721 C1720 1.356 . S
H1722 C1716 0.930 . S
H1723 C1717 0.930 . S
C1724 N1725 1.314 . S
C1724 C1726 1.353 . S
C1724 H1730 0.930 . S
N1725 Li1675 1.990 . S
N1725 C1724 1.314 . S
N1725 C1728 1.279 . S
C1726 C1724 1.353 . S
C1726 C1729 1.348 . S
C1726 H1758 0.929 . S
C1727 C1728 1.358 . S
C1727 C1729 1.356 . S
C1727 H1759 0.930 . S
C1728 N1725 1.279 . S
C1728 C1727 1.358 . S
C1728 H1731 0.930 . S
C1729 C1726 1.348 . S
C1729 C1727 1.356 . S
H1730 C1724 0.930 . S
H1731 C1728 0.930 . S
O1732 Li1672 1.956 . S
O1732 Li1673 1.970 . S
O1732 Li1674 1.961 . S
O1732 C1676 1.325 . S
O1733 Li1672 1.970 . S
O1733 Li1673 1.956 . S
O1733 Li1675 1.961 . S
O1733 C1682 1.325 . S
O1734 Li1672 1.961 . S
O1734 Li1674 1.956 . S
O1734 Li1675 1.970 . S
O1734 C1704 1.325 . S
O1735 Li1673 1.961 . S
O1735 Li1674 1.970 . S
O1735 Li1675 1.956 . S
O1735 C1710 1.325 . S
H1736 C1678 0.929 . S
H1737 C1679 0.930 . S
H1738 C1680 0.930 . S
H1739 C1681 0.930 . S
H1740 C1683 0.930 . S
H1741 C1685 0.929 . S
H1742 C1686 0.930 . S
H1743 C1687 0.930 . S
H1744 C1690 0.930 . S
H1745 C1693 0.929 . S
H1746 C1698 0.929 . S
H1747 C1699 0.930 . S
H1748 C1706 0.929 . S
H1749 C1707 0.930 . S
H1750 C1708 0.930 . S
H1751 C1709 0.930 . S
H1752 C1711 0.929 . S
H1753 C1712 0.930 . S
H1754 C1713 0.930 . S
H1755 C1714 0.930 . S
H1756 C1718 0.929 . S
H1757 C1720 0.930 . S
H1758 C1726 0.929 . S
H1759 C1727 0.930 . S
Li1760 N1777 1.990 . S
Li1760 O1820 1.956 . S
Li1760 O1821 1.970 . S
Li1760 O1822 1.961 . S
Li1761 N1785 1.990 . S
Li1761 O1820 1.970 . S
Li1761 O1821 1.956 . S
Li1761 O1823 1.961 . S
Li1762 N1807 1.990 . S
Li1762 O1820 1.961 . S
Li1762 O1822 1.956 . S
Li1762 O1823 1.970 . S
Li1763 N1813 1.990 . S
Li1763 O1821 1.961 . S
Li1763 O1822 1.970 . S
Li1763 O1823 1.956 . S
C1764 C1766 1.348 . S
C1764 C1767 1.356 . S
C1764 O1820 1.325 . S
N1765 C1768 1.314 . S
N1765 C1769 1.279 . S
C1766 C1764 1.348 . S
C1766 C1768 1.353 . S
C1766 H1824 0.929 . S
C1767 C1764 1.356 . S
C1767 C1769 1.358 . S
C1767 H1825 0.930 . S
C1768 N1765 1.314 . S
C1768 C1766 1.353 . S
C1768 H1826 0.930 . S
C1769 N1765 1.279 . S
C1769 C1767 1.358 . S
C1769 H1827 0.930 . S
C1770 C1773 1.348 . S
C1770 C1774 1.356 . S
C1770 O1821 1.325 . S
C1771 N1772 1.279 . S
C1771 C1774 1.358 . S
C1771 H1828 0.930 . S
N1772 C1771 1.279 . S
N1772 C1775 1.314 . S
C1773 C1770 1.348 . S
C1773 C1775 1.353 . S
C1773 H1829 0.929 . S
C1774 C1770 1.356 . S
C1774 C1771 1.358 . S
C1774 H1830 0.930 . S
C1775 N1772 1.314 . S
C1775 C1773 1.353 . S
C1775 H1831 0.930 . S
C1776 N1777 1.314 . S
C1776 C1781 1.353 . S
C1776 H1782 0.930 . S
N1777 Li1760 1.990 . S
N1777 C1776 1.314 . S
N1777 C1779 1.279 . S
C1778 C1779 1.358 . S
C1778 C1780 1.356 . S
C1778 H1832 0.930 . S
C1779 N1777 1.279 . S
C1779 C1778 1.358 . S
C1779 H1783 0.930 . S
C1780 C1778 1.356 . S
C1780 C1781 1.348 . S
C1781 C1776 1.353 . S
C1781 C1780 1.348 . S
C1781 H1833 0.929 . S
H1782 C1776 0.930 . S
H1783 C1779 0.930 . S
C1784 N1785 1.314 . S
C1784 C1786 1.353 . S
C1784 H1790 0.930 . S
N1785 Li1761 1.990 . S
N1785 C1784 1.314 . S
N1785 C1788 1.279 . S
C1786 C1784 1.353 . S
C1786 C1789 1.348 . S
C1786 H1834 0.929 . S
C1787 C1788 1.358 . S
C1787 C1789 1.356 . S
C1787 H1835 0.930 . S
C1788 N1785 1.279 . S
C1788 C1787 1.358 . S
C1788 H1791 0.930 . S
C1789 C1786 1.348 . S
C1789 C1787 1.356 . S
H1790 C1784 0.930 . S
H1791 C1788 0.930 . S
C1792 C1794 1.348 . S
C1792 C1795 1.356 . S
C1792 O1822 1.325 . S
N1793 C1796 1.314 . S
N1793 C1797 1.279 . S
C1794 C1792 1.348 . S
C1794 C1796 1.353 . S
C1794 H1836 0.929 . S
C1795 C1792 1.356 . S
C1795 C1797 1.358 . S
C1795 H1837 0.930 . S
C1796 N1793 1.314 . S
C1796 C1794 1.353 . S
C1796 H1838 0.930 . S
C1797 N1793 1.279 . S
C1797 C1795 1.358 . S
C1797 H1839 0.930 . S
C1798 C1799 1.348 . S
C1798 C1800 1.356 . S
C1798 O1823 1.325 . S
C1799 C1798 1.348 . S
C1799 C1801 1.353 . S
C1799 H1840 0.929 . S
C1800 C1798 1.356 . S
C1800 C1802 1.358 . S
C1800 H1841 0.930 . S
C1801 C1799 1.353 . S
C1801 N1803 1.314 . S
C1801 H1842 0.930 . S
C1802 C1800 1.358 . S
C1802 N1803 1.279 . S
C1802 H1843 0.930 . S
N1803 C1801 1.314 . S
N1803 C1802 1.279 . S
C1804 C1806 1.353 . S
C1804 N1807 1.314 . S
C1804 H1810 0.930 . S
C1805 N1807 1.279 . S
C1805 C1808 1.358 . S
C1805 H1811 0.930 . S
C1806 C1804 1.353 . S
C1806 C1809 1.348 . S
C1806 H1844 0.929 . S
N1807 Li1762 1.990 . S
N1807 C1804 1.314 . S
N1807 C1805 1.279 . S
C1808 C1805 1.358 . S
C1808 C1809 1.356 . S
C1808 H1845 0.930 . S
C1809 C1806 1.348 . S
C1809 C1808 1.356 . S
H1810 C1804 0.930 . S
H1811 C1805 0.930 . S
C1812 N1813 1.314 . S
C1812 C1814 1.353 . S
C1812 H1818 0.930 . S
N1813 Li1763 1.990 . S
N1813 C1812 1.314 . S
N1813 C1816 1.279 . S
C1814 C1812 1.353 . S
C1814 C1817 1.348 . S
C1814 H1846 0.929 . S
C1815 C1816 1.358 . S
C1815 C1817 1.356 . S
C1815 H1847 0.930 . S
C1816 N1813 1.279 . S
C1816 C1815 1.358 . S
C1816 H1819 0.930 . S
C1817 C1814 1.348 . S
C1817 C1815 1.356 . S
H1818 C1812 0.930 . S
H1819 C1816 0.930 . S
O1820 Li1760 1.956 . S
O1820 Li1761 1.970 . S
O1820 Li1762 1.961 . S
O1820 C1764 1.325 . S
O1821 Li1760 1.970 . S
O1821 Li1761 1.956 . S
O1821 Li1763 1.961 . S
O1821 C1770 1.325 . S
O1822 Li1760 1.961 . S
O1822 Li1762 1.956 . S
O1822 Li1763 1.970 . S
O1822 C1792 1.325 . S
O1823 Li1761 1.961 . S
O1823 Li1762 1.970 . S
O1823 Li1763 1.956 . S
O1823 C1798 1.325 . S
H1824 C1766 0.929 . S
H1825 C1767 0.930 . S
H1826 C1768 0.930 . S
H1827 C1769 0.930 . S
H1828 C1771 0.930 . S
H1829 C1773 0.929 . S
H1830 C1774 0.930 . S
H1831 C1775 0.930 . S
H1832 C1778 0.930 . S
H1833 C1781 0.929 . S
H1834 C1786 0.929 . S
H1835 C1787 0.930 . S
H1836 C1794 0.929 . S
H1837 C1795 0.930 . S
H1838 C1796 0.930 . S
H1839 C1797 0.930 . S
H1840 C1799 0.929 . S
H1841 C1800 0.930 . S
H1842 C1801 0.930 . S
H1843 C1802 0.930 . S
H1844 C1806 0.929 . S
H1845 C1808 0.930 . S
H1846 C1814 0.929 . S
H1847 C1815 0.930 . S
Li1848 N1865 1.990 . S
Li1848 O1908 1.956 . S
Li1848 O1909 1.970 . S
Li1848 O1910 1.961 . S
Li1849 N1873 1.990 . S
Li1849 O1908 1.970 . S
Li1849 O1909 1.956 . S
Li1849 O1911 1.961 . S
Li1850 N1895 1.990 . S
Li1850 O1908 1.961 . S
Li1850 O1910 1.956 . S
Li1850 O1911 1.970 . S
Li1851 N1901 1.990 . S
Li1851 O1909 1.961 . S
Li1851 O1910 1.970 . S
Li1851 O1911 1.956 . S
C1852 C1854 1.348 . S
C1852 C1855 1.356 . S
C1852 O1908 1.325 . S
N1853 C1856 1.314 . S
N1853 C1857 1.279 . S
C1854 C1852 1.348 . S
C1854 C1856 1.353 . S
C1854 H1912 0.929 . S
C1855 C1852 1.356 . S
C1855 C1857 1.358 . S
C1855 H1913 0.930 . S
C1856 N1853 1.314 . S
C1856 C1854 1.353 . S
C1856 H1914 0.930 . S
C1857 N1853 1.279 . S
C1857 C1855 1.358 . S
C1857 H1915 0.930 . S
C1858 C1861 1.348 . S
C1858 C1862 1.356 . S
C1858 O1909 1.325 . S
C1859 N1860 1.279 . S
C1859 C1862 1.358 . S
C1859 H1916 0.930 . S
N1860 C1859 1.279 . S
N1860 C1863 1.314 . S
C1861 C1858 1.348 . S
C1861 C1863 1.353 . S
C1861 H1917 0.929 . S
C1862 C1858 1.356 . S
C1862 C1859 1.358 . S
C1862 H1918 0.930 . S
C1863 N1860 1.314 . S
C1863 C1861 1.353 . S
C1863 H1919 0.930 . S
C1864 N1865 1.314 . S
C1864 C1869 1.353 . S
C1864 H1870 0.930 . S
N1865 Li1848 1.990 . S
N1865 C1864 1.314 . S
N1865 C1867 1.279 . S
C1866 C1867 1.358 . S
C1866 C1868 1.356 . S
C1866 H1920 0.930 . S
C1867 N1865 1.279 . S
C1867 C1866 1.358 . S
C1867 H1871 0.930 . S
C1868 C1866 1.356 . S
C1868 C1869 1.348 . S
C1869 C1864 1.353 . S
C1869 C1868 1.348 . S
C1869 H1921 0.929 . S
H1870 C1864 0.930 . S
H1871 C1867 0.930 . S
C1872 N1873 1.314 . S
C1872 C1874 1.353 . S
C1872 H1878 0.930 . S
N1873 Li1849 1.990 . S
N1873 C1872 1.314 . S
N1873 C1876 1.279 . S
C1874 C1872 1.353 . S
C1874 C1877 1.348 . S
C1874 H1922 0.929 . S
C1875 C1876 1.358 . S
C1875 C1877 1.356 . S
C1875 H1923 0.930 . S
C1876 N1873 1.279 . S
C1876 C1875 1.358 . S
C1876 H1879 0.930 . S
C1877 C1874 1.348 . S
C1877 C1875 1.356 . S
H1878 C1872 0.930 . S
H1879 C1876 0.930 . S
C1880 C1882 1.348 . S
C1880 C1883 1.356 . S
C1880 O1910 1.325 . S
N1881 C1884 1.314 . S
N1881 C1885 1.279 . S
C1882 C1880 1.348 . S
C1882 C1884 1.353 . S
C1882 H1924 0.929 . S
C1883 C1880 1.356 . S
C1883 C1885 1.358 . S
C1883 H1925 0.930 . S
C1884 N1881 1.314 . S
C1884 C1882 1.353 . S
C1884 H1926 0.930 . S
C1885 N1881 1.279 . S
C1885 C1883 1.358 . S
C1885 H1927 0.930 . S
C1886 C1887 1.348 . S
C1886 C1888 1.356 . S
C1886 O1911 1.325 . S
C1887 C1886 1.348 . S
C1887 C1889 1.353 . S
C1887 H1928 0.929 . S
C1888 C1886 1.356 . S
C1888 C1890 1.358 . S
C1888 H1929 0.930 . S
C1889 C1887 1.353 . S
C1889 N1891 1.314 . S
C1889 H1930 0.930 . S
C1890 C1888 1.358 . S
C1890 N1891 1.279 . S
C1890 H1931 0.930 . S
N1891 C1889 1.314 . S
N1891 C1890 1.279 . S
C1892 C1894 1.353 . S
C1892 N1895 1.314 . S
C1892 H1898 0.930 . S
C1893 N1895 1.279 . S
C1893 C1896 1.358 . S
C1893 H1899 0.930 . S
C1894 C1892 1.353 . S
C1894 C1897 1.348 . S
C1894 H1932 0.929 . S
N1895 Li1850 1.990 . S
N1895 C1892 1.314 . S
N1895 C1893 1.279 . S
C1896 C1893 1.358 . S
C1896 C1897 1.356 . S
C1896 H1933 0.930 . S
C1897 C1894 1.348 . S
C1897 C1896 1.356 . S
H1898 C1892 0.930 . S
H1899 C1893 0.930 . S
C1900 N1901 1.314 . S
C1900 C1902 1.353 . S
C1900 H1906 0.930 . S
N1901 Li1851 1.990 . S
N1901 C1900 1.314 . S
N1901 C1904 1.279 . S
C1902 C1900 1.353 . S
C1902 C1905 1.348 . S
C1902 H1934 0.929 . S
C1903 C1904 1.358 . S
C1903 C1905 1.356 . S
C1903 H1935 0.930 . S
C1904 N1901 1.279 . S
C1904 C1903 1.358 . S
C1904 H1907 0.930 . S
C1905 C1902 1.348 . S
C1905 C1903 1.356 . S
H1906 C1900 0.930 . S
H1907 C1904 0.930 . S
O1908 Li1848 1.956 . S
O1908 Li1849 1.970 . S
O1908 Li1850 1.961 . S
O1908 C1852 1.325 . S
O1909 Li1848 1.970 . S
O1909 Li1849 1.956 . S
O1909 Li1851 1.961 . S
O1909 C1858 1.325 . S
O1910 Li1848 1.961 . S
O1910 Li1850 1.956 . S
O1910 Li1851 1.970 . S
O1910 C1880 1.325 . S
O1911 Li1849 1.961 . S
O1911 Li1850 1.970 . S
O1911 Li1851 1.956 . S
O1911 C1886 1.325 . S
H1912 C1854 0.929 . S
H1913 C1855 0.930 . S
H1914 C1856 0.930 . S
H1915 C1857 0.930 . S
H1916 C1859 0.930 . S
H1917 C1861 0.929 . S
H1918 C1862 0.930 . S
H1919 C1863 0.930 . S
H1920 C1866 0.930 . S
H1921 C1869 0.929 . S
H1922 C1874 0.929 . S
H1923 C1875 0.930 . S
H1924 C1882 0.929 . S
H1925 C1883 0.930 . S
H1926 C1884 0.930 . S
H1927 C1885 0.930 . S
H1928 C1887 0.929 . S
H1929 C1888 0.930 . S
H1930 C1889 0.930 . S
H1931 C1890 0.930 . S
H1932 C1894 0.929 . S
H1933 C1896 0.930 . S
H1934 C1902 0.929 . S
H1935 C1903 0.930 . S
Li1936 N1953 1.990 . S
Li1936 O1996 1.956 . S
Li1936 O1997 1.970 . S
Li1936 O1998 1.961 . S
Li1937 N1961 1.990 . S
Li1937 O1996 1.970 . S
Li1937 O1997 1.956 . S
Li1937 O1999 1.961 . S
Li1938 N1983 1.990 . S
Li1938 O1996 1.961 . S
Li1938 O1998 1.956 . S
Li1938 O1999 1.970 . S
Li1939 N1989 1.990 . S
Li1939 O1997 1.961 . S
Li1939 O1998 1.970 . S
Li1939 O1999 1.956 . S
C1940 C1942 1.348 . S
C1940 C1943 1.356 . S
C1940 O1996 1.325 . S
N1941 C1944 1.314 . S
N1941 C1945 1.279 . S
C1942 C1940 1.348 . S
C1942 C1944 1.353 . S
C1942 H2000 0.929 . S
C1943 C1940 1.356 . S
C1943 C1945 1.358 . S
C1943 H2001 0.930 . S
C1944 N1941 1.314 . S
C1944 C1942 1.353 . S
C1944 H2002 0.930 . S
C1945 N1941 1.279 . S
C1945 C1943 1.358 . S
C1945 H2003 0.930 . S
C1946 C1949 1.348 . S
C1946 C1950 1.356 . S
C1946 O1997 1.325 . S
C1947 N1948 1.279 . S
C1947 C1950 1.358 . S
C1947 H2004 0.930 . S
N1948 C1947 1.279 . S
N1948 C1951 1.314 . S
C1949 C1946 1.348 . S
C1949 C1951 1.353 . S
C1949 H2005 0.929 . S
C1950 C1946 1.356 . S
C1950 C1947 1.358 . S
C1950 H2006 0.930 . S
C1951 N1948 1.314 . S
C1951 C1949 1.353 . S
C1951 H2007 0.930 . S
C1952 N1953 1.314 . S
C1952 C1957 1.353 . S
C1952 H1958 0.930 . S
N1953 Li1936 1.990 . S
N1953 C1952 1.314 . S
N1953 C1955 1.279 . S
C1954 C1955 1.358 . S
C1954 C1956 1.356 . S
C1954 H2008 0.930 . S
C1955 N1953 1.279 . S
C1955 C1954 1.358 . S
C1955 H1959 0.930 . S
C1956 C1954 1.356 . S
C1956 C1957 1.348 . S
C1957 C1952 1.353 . S
C1957 C1956 1.348 . S
C1957 H2009 0.929 . S
H1958 C1952 0.930 . S
H1959 C1955 0.930 . S
C1960 N1961 1.314 . S
C1960 C1962 1.353 . S
C1960 H1966 0.930 . S
N1961 Li1937 1.990 . S
N1961 C1960 1.314 . S
N1961 C1964 1.279 . S
C1962 C1960 1.353 . S
C1962 C1965 1.348 . S
C1962 H2010 0.929 . S
C1963 C1964 1.358 . S
C1963 C1965 1.356 . S
C1963 H2011 0.930 . S
C1964 N1961 1.279 . S
C1964 C1963 1.358 . S
C1964 H1967 0.930 . S
C1965 C1962 1.348 . S
C1965 C1963 1.356 . S
H1966 C1960 0.930 . S
H1967 C1964 0.930 . S
C1968 C1970 1.348 . S
C1968 C1971 1.356 . S
C1968 O1998 1.325 . S
N1969 C1972 1.314 . S
N1969 C1973 1.279 . S
C1970 C1968 1.348 . S
C1970 C1972 1.353 . S
C1970 H2012 0.929 . S
C1971 C1968 1.356 . S
C1971 C1973 1.358 . S
C1971 H2013 0.930 . S
C1972 N1969 1.314 . S
C1972 C1970 1.353 . S
C1972 H2014 0.930 . S
C1973 N1969 1.279 . S
C1973 C1971 1.358 . S
C1973 H2015 0.930 . S
C1974 C1975 1.348 . S
C1974 C1976 1.356 . S
C1974 O1999 1.325 . S
C1975 C1974 1.348 . S
C1975 C1977 1.353 . S
C1975 H2016 0.929 . S
C1976 C1974 1.356 . S
C1976 C1978 1.358 . S
C1976 H2017 0.930 . S
C1977 C1975 1.353 . S
C1977 N1979 1.314 . S
C1977 H2018 0.930 . S
C1978 C1976 1.358 . S
C1978 N1979 1.279 . S
C1978 H2019 0.930 . S
N1979 C1977 1.314 . S
N1979 C1978 1.279 . S
C1980 C1982 1.353 . S
C1980 N1983 1.314 . S
C1980 H1986 0.930 . S
C1981 N1983 1.279 . S
C1981 C1984 1.358 . S
C1981 H1987 0.930 . S
C1982 C1980 1.353 . S
C1982 C1985 1.348 . S
C1982 H2020 0.929 . S
N1983 Li1938 1.990 . S
N1983 C1980 1.314 . S
N1983 C1981 1.279 . S
C1984 C1981 1.358 . S
C1984 C1985 1.356 . S
C1984 H2021 0.930 . S
C1985 C1982 1.348 . S
C1985 C1984 1.356 . S
H1986 C1980 0.930 . S
H1987 C1981 0.930 . S
C1988 N1989 1.314 . S
C1988 C1990 1.353 . S
C1988 H1994 0.930 . S
N1989 Li1939 1.990 . S
N1989 C1988 1.314 . S
N1989 C1992 1.279 . S
C1990 C1988 1.353 . S
C1990 C1993 1.348 . S
C1990 H2022 0.929 . S
C1991 C1992 1.358 . S
C1991 C1993 1.356 . S
C1991 H2023 0.930 . S
C1992 N1989 1.279 . S
C1992 C1991 1.358 . S
C1992 H1995 0.930 . S
C1993 C1990 1.348 . S
C1993 C1991 1.356 . S
H1994 C1988 0.930 . S
H1995 C1992 0.930 . S
O1996 Li1936 1.956 . S
O1996 Li1937 1.970 . S
O1996 Li1938 1.961 . S
O1996 C1940 1.325 . S
O1997 Li1936 1.970 . S
O1997 Li1937 1.956 . S
O1997 Li1939 1.961 . S
O1997 C1946 1.325 . S
O1998 Li1936 1.961 . S
O1998 Li1938 1.956 . S
O1998 Li1939 1.970 . S
O1998 C1968 1.325 . S
O1999 Li1937 1.961 . S
O1999 Li1938 1.970 . S
O1999 Li1939 1.956 . S
O1999 C1974 1.325 . S
H2000 C1942 0.929 . S
H2001 C1943 0.930 . S
H2002 C1944 0.930 . S
H2003 C1945 0.930 . S
H2004 C1947 0.930 . S
H2005 C1949 0.929 . S
H2006 C1950 0.930 . S
H2007 C1951 0.930 . S
H2008 C1954 0.930 . S
H2009 C1957 0.929 . S
H2010 C1962 0.929 . S
H2011 C1963 0.930 . S
H2012 C1970 0.929 . S
H2013 C1971 0.930 . S
H2014 C1972 0.930 . S
H2015 C1973 0.930 . S
H2016 C1975 0.929 . S
H2017 C1976 0.930 . S
H2018 C1977 0.930 . S
H2019 C1978 0.930 . S
H2020 C1982 0.929 . S
H2021 C1984 0.930 . S
H2022 C1990 0.929 . S
H2023 C1991 0.930 . S
Li2024 N2041 1.990 . S
Li2024 O2084 1.956 . S
Li2024 O2085 1.970 . S
Li2024 O2086 1.961 . S
Li2025 N2049 1.990 . S
Li2025 O2084 1.970 . S
Li2025 O2085 1.956 . S
Li2025 O2087 1.961 . S
Li2026 N2071 1.990 . S
Li2026 O2084 1.961 . S
Li2026 O2086 1.956 . S
Li2026 O2087 1.970 . S
Li2027 N2077 1.990 . S
Li2027 O2085 1.961 . S
Li2027 O2086 1.970 . S
Li2027 O2087 1.956 . S
C2028 C2030 1.348 . S
C2028 C2031 1.356 . S
C2028 O2084 1.325 . S
N2029 C2032 1.314 . S
N2029 C2033 1.279 . S
C2030 C2028 1.348 . S
C2030 C2032 1.353 . S
C2030 H2088 0.929 . S
C2031 C2028 1.356 . S
C2031 C2033 1.358 . S
C2031 H2089 0.930 . S
C2032 N2029 1.314 . S
C2032 C2030 1.353 . S
C2032 H2090 0.930 . S
C2033 N2029 1.279 . S
C2033 C2031 1.358 . S
C2033 H2091 0.930 . S
C2034 C2037 1.348 . S
C2034 C2038 1.356 . S
C2034 O2085 1.325 . S
C2035 N2036 1.279 . S
C2035 C2038 1.358 . S
C2035 H2092 0.930 . S
N2036 C2035 1.279 . S
N2036 C2039 1.314 . S
C2037 C2034 1.348 . S
C2037 C2039 1.353 . S
C2037 H2093 0.929 . S
C2038 C2034 1.356 . S
C2038 C2035 1.358 . S
C2038 H2094 0.930 . S
C2039 N2036 1.314 . S
C2039 C2037 1.353 . S
C2039 H2095 0.930 . S
C2040 N2041 1.314 . S
C2040 C2045 1.353 . S
C2040 H2046 0.930 . S
N2041 Li2024 1.990 . S
N2041 C2040 1.314 . S
N2041 C2043 1.279 . S
C2042 C2043 1.358 . S
C2042 C2044 1.356 . S
C2042 H2096 0.930 . S
C2043 N2041 1.279 . S
C2043 C2042 1.358 . S
C2043 H2047 0.930 . S
C2044 C2042 1.356 . S
C2044 C2045 1.348 . S
C2045 C2040 1.353 . S
C2045 C2044 1.348 . S
C2045 H2097 0.929 . S
H2046 C2040 0.930 . S
H2047 C2043 0.930 . S
C2048 N2049 1.314 . S
C2048 C2050 1.353 . S
C2048 H2054 0.930 . S
N2049 Li2025 1.990 . S
N2049 C2048 1.314 . S
N2049 C2052 1.279 . S
C2050 C2048 1.353 . S
C2050 C2053 1.348 . S
C2050 H2098 0.929 . S
C2051 C2052 1.358 . S
C2051 C2053 1.356 . S
C2051 H2099 0.930 . S
C2052 N2049 1.279 . S
C2052 C2051 1.358 . S
C2052 H2055 0.930 . S
C2053 C2050 1.348 . S
C2053 C2051 1.356 . S
H2054 C2048 0.930 . S
H2055 C2052 0.930 . S
C2056 C2058 1.348 . S
C2056 C2059 1.356 . S
C2056 O2086 1.325 . S
N2057 C2060 1.314 . S
N2057 C2061 1.279 . S
C2058 C2056 1.348 . S
C2058 C2060 1.353 . S
C2058 H2100 0.929 . S
C2059 C2056 1.356 . S
C2059 C2061 1.358 . S
C2059 H2101 0.930 . S
C2060 N2057 1.314 . S
C2060 C2058 1.353 . S
C2060 H2102 0.930 . S
C2061 N2057 1.279 . S
C2061 C2059 1.358 . S
C2061 H2103 0.930 . S
C2062 C2063 1.348 . S
C2062 C2064 1.356 . S
C2062 O2087 1.325 . S
C2063 C2062 1.348 . S
C2063 C2065 1.353 . S
C2063 H2104 0.929 . S
C2064 C2062 1.356 . S
C2064 C2066 1.358 . S
C2064 H2105 0.930 . S
C2065 C2063 1.353 . S
C2065 N2067 1.314 . S
C2065 H2106 0.930 . S
C2066 C2064 1.358 . S
C2066 N2067 1.279 . S
C2066 H2107 0.930 . S
N2067 C2065 1.314 . S
N2067 C2066 1.279 . S
C2068 C2070 1.353 . S
C2068 N2071 1.314 . S
C2068 H2074 0.930 . S
C2069 N2071 1.279 . S
C2069 C2072 1.358 . S
C2069 H2075 0.930 . S
C2070 C2068 1.353 . S
C2070 C2073 1.348 . S
C2070 H2108 0.929 . S
N2071 Li2026 1.990 . S
N2071 C2068 1.314 . S
N2071 C2069 1.279 . S
C2072 C2069 1.358 . S
C2072 C2073 1.356 . S
C2072 H2109 0.930 . S
C2073 C2070 1.348 . S
C2073 C2072 1.356 . S
H2074 C2068 0.930 . S
H2075 C2069 0.930 . S
C2076 N2077 1.314 . S
C2076 C2078 1.353 . S
C2076 H2082 0.930 . S
N2077 Li2027 1.990 . S
N2077 C2076 1.314 . S
N2077 C2080 1.279 . S
C2078 C2076 1.353 . S
C2078 C2081 1.348 . S
C2078 H2110 0.929 . S
C2079 C2080 1.358 . S
C2079 C2081 1.356 . S
C2079 H2111 0.930 . S
C2080 N2077 1.279 . S
C2080 C2079 1.358 . S
C2080 H2083 0.930 . S
C2081 C2078 1.348 . S
C2081 C2079 1.356 . S
H2082 C2076 0.930 . S
H2083 C2080 0.930 . S
O2084 Li2024 1.956 . S
O2084 Li2025 1.970 . S
O2084 Li2026 1.961 . S
O2084 C2028 1.325 . S
O2085 Li2024 1.970 . S
O2085 Li2025 1.956 . S
O2085 Li2027 1.961 . S
O2085 C2034 1.325 . S
O2086 Li2024 1.961 . S
O2086 Li2026 1.956 . S
O2086 Li2027 1.970 . S
O2086 C2056 1.325 . S
O2087 Li2025 1.961 . S
O2087 Li2026 1.970 . S
O2087 Li2027 1.956 . S
O2087 C2062 1.325 . S
H2088 C2030 0.929 . S
H2089 C2031 0.930 . S
H2090 C2032 0.930 . S
H2091 C2033 0.930 . S
H2092 C2035 0.930 . S
H2093 C2037 0.929 . S
H2094 C2038 0.930 . S
H2095 C2039 0.930 . S
H2096 C2042 0.930 . S
H2097 C2045 0.929 . S
H2098 C2050 0.929 . S
H2099 C2051 0.930 . S
H2100 C2058 0.929 . S
H2101 C2059 0.930 . S
H2102 C2060 0.930 . S
H2103 C2061 0.930 . S
H2104 C2063 0.929 . S
H2105 C2064 0.930 . S
H2106 C2065 0.930 . S
H2107 C2066 0.930 . S
H2108 C2070 0.929 . S
H2109 C2072 0.930 . S
H2110 C2078 0.929 . S
H2111 C2079 0.930 . S
Li2112 N2129 1.990 . S
Li2112 O2172 1.956 . S
Li2112 O2173 1.970 . S
Li2112 O2174 1.961 . S
Li2113 N2137 1.990 . S
Li2113 O2172 1.970 . S
Li2113 O2173 1.956 . S
Li2113 O2175 1.961 . S
Li2114 N2159 1.990 . S
Li2114 O2172 1.961 . S
Li2114 O2174 1.956 . S
Li2114 O2175 1.970 . S
Li2115 N2165 1.990 . S
Li2115 O2173 1.961 . S
Li2115 O2174 1.970 . S
Li2115 O2175 1.956 . S
C2116 C2118 1.348 . S
C2116 C2119 1.356 . S
C2116 O2172 1.325 . S
N2117 C2120 1.314 . S
N2117 C2121 1.279 . S
C2118 C2116 1.348 . S
C2118 C2120 1.353 . S
C2118 H2176 0.929 . S
C2119 C2116 1.356 . S
C2119 C2121 1.358 . S
C2119 H2177 0.930 . S
C2120 N2117 1.314 . S
C2120 C2118 1.353 . S
C2120 H2178 0.930 . S
C2121 N2117 1.279 . S
C2121 C2119 1.358 . S
C2121 H2179 0.930 . S
C2122 C2125 1.348 . S
C2122 C2126 1.356 . S
C2122 O2173 1.325 . S
C2123 N2124 1.279 . S
C2123 C2126 1.358 . S
C2123 H2180 0.930 . S
N2124 C2123 1.279 . S
N2124 C2127 1.314 . S
C2125 C2122 1.348 . S
C2125 C2127 1.353 . S
C2125 H2181 0.929 . S
C2126 C2122 1.356 . S
C2126 C2123 1.358 . S
C2126 H2182 0.930 . S
C2127 N2124 1.314 . S
C2127 C2125 1.353 . S
C2127 H2183 0.930 . S
C2128 N2129 1.314 . S
C2128 C2133 1.353 . S
C2128 H2134 0.930 . S
N2129 Li2112 1.990 . S
N2129 C2128 1.314 . S
N2129 C2131 1.279 . S
C2130 C2131 1.358 . S
C2130 C2132 1.356 . S
C2130 H2184 0.930 . S
C2131 N2129 1.279 . S
C2131 C2130 1.358 . S
C2131 H2135 0.930 . S
C2132 C2130 1.356 . S
C2132 C2133 1.348 . S
C2133 C2128 1.353 . S
C2133 C2132 1.348 . S
C2133 H2185 0.929 . S
H2134 C2128 0.930 . S
H2135 C2131 0.930 . S
C2136 N2137 1.314 . S
C2136 C2138 1.353 . S
C2136 H2142 0.930 . S
N2137 Li2113 1.990 . S
N2137 C2136 1.314 . S
N2137 C2140 1.279 . S
C2138 C2136 1.353 . S
C2138 C2141 1.348 . S
C2138 H2186 0.929 . S
C2139 C2140 1.358 . S
C2139 C2141 1.356 . S
C2139 H2187 0.930 . S
C2140 N2137 1.279 . S
C2140 C2139 1.358 . S
C2140 H2143 0.930 . S
C2141 C2138 1.348 . S
C2141 C2139 1.356 . S
H2142 C2136 0.930 . S
H2143 C2140 0.930 . S
C2144 C2146 1.348 . S
C2144 C2147 1.356 . S
C2144 O2174 1.325 . S
N2145 C2148 1.314 . S
N2145 C2149 1.279 . S
C2146 C2144 1.348 . S
C2146 C2148 1.353 . S
C2146 H2188 0.929 . S
C2147 C2144 1.356 . S
C2147 C2149 1.358 . S
C2147 H2189 0.930 . S
C2148 N2145 1.314 . S
C2148 C2146 1.353 . S
C2148 H2190 0.930 . S
C2149 N2145 1.279 . S
C2149 C2147 1.358 . S
C2149 H2191 0.930 . S
C2150 C2151 1.348 . S
C2150 C2152 1.356 . S
C2150 O2175 1.325 . S
C2151 C2150 1.348 . S
C2151 C2153 1.353 . S
C2151 H2192 0.929 . S
C2152 C2150 1.356 . S
C2152 C2154 1.358 . S
C2152 H2193 0.930 . S
C2153 C2151 1.353 . S
C2153 N2155 1.314 . S
C2153 H2194 0.930 . S
C2154 C2152 1.358 . S
C2154 N2155 1.279 . S
C2154 H2195 0.930 . S
N2155 C2153 1.314 . S
N2155 C2154 1.279 . S
C2156 C2158 1.353 . S
C2156 N2159 1.314 . S
C2156 H2162 0.930 . S
C2157 N2159 1.279 . S
C2157 C2160 1.358 . S
C2157 H2163 0.930 . S
C2158 C2156 1.353 . S
C2158 C2161 1.348 . S
C2158 H2196 0.929 . S
N2159 Li2114 1.990 . S
N2159 C2156 1.314 . S
N2159 C2157 1.279 . S
C2160 C2157 1.358 . S
C2160 C2161 1.356 . S
C2160 H2197 0.930 . S
C2161 C2158 1.348 . S
C2161 C2160 1.356 . S
H2162 C2156 0.930 . S
H2163 C2157 0.930 . S
C2164 N2165 1.314 . S
C2164 C2166 1.353 . S
C2164 H2170 0.930 . S
N2165 Li2115 1.990 . S
N2165 C2164 1.314 . S
N2165 C2168 1.279 . S
C2166 C2164 1.353 . S
C2166 C2169 1.348 . S
C2166 H2198 0.929 . S
C2167 C2168 1.358 . S
C2167 C2169 1.356 . S
C2167 H2199 0.930 . S
C2168 N2165 1.279 . S
C2168 C2167 1.358 . S
C2168 H2171 0.930 . S
C2169 C2166 1.348 . S
C2169 C2167 1.356 . S
H2170 C2164 0.930 . S
H2171 C2168 0.930 . S
O2172 Li2112 1.956 . S
O2172 Li2113 1.970 . S
O2172 Li2114 1.961 . S
O2172 C2116 1.325 . S
O2173 Li2112 1.970 . S
O2173 Li2113 1.956 . S
O2173 Li2115 1.961 . S
O2173 C2122 1.325 . S
O2174 Li2112 1.961 . S
O2174 Li2114 1.956 . S
O2174 Li2115 1.970 . S
O2174 C2144 1.325 . S
O2175 Li2113 1.961 . S
O2175 Li2114 1.970 . S
O2175 Li2115 1.956 . S
O2175 C2150 1.325 . S
H2176 C2118 0.929 . S
H2177 C2119 0.930 . S
H2178 C2120 0.930 . S
H2179 C2121 0.930 . S
H2180 C2123 0.930 . S
H2181 C2125 0.929 . S
H2182 C2126 0.930 . S
H2183 C2127 0.930 . S
H2184 C2130 0.930 . S
H2185 C2133 0.929 . S
H2186 C2138 0.929 . S
H2187 C2139 0.930 . S
H2188 C2146 0.929 . S
H2189 C2147 0.930 . S
H2190 C2148 0.930 . S
H2191 C2149 0.930 . S
H2192 C2151 0.929 . S
H2193 C2152 0.930 . S
H2194 C2153 0.930 . S
H2195 C2154 0.930 . S
H2196 C2158 0.929 . S
H2197 C2160 0.930 . S
H2198 C2166 0.929 . S
H2199 C2167 0.930 . S
Li2200 N2217 1.990 . S
Li2200 O2260 1.956 . S
Li2200 O2261 1.970 . S
Li2200 O2262 1.961 . S
Li2201 N2225 1.990 . S
Li2201 O2260 1.970 . S
Li2201 O2261 1.956 . S
Li2201 O2263 1.961 . S
Li2202 N2247 1.990 . S
Li2202 O2260 1.961 . S
Li2202 O2262 1.956 . S
Li2202 O2263 1.970 . S
Li2203 N2253 1.990 . S
Li2203 O2261 1.961 . S
Li2203 O2262 1.970 . S
Li2203 O2263 1.956 . S
C2204 C2206 1.348 . S
C2204 C2207 1.356 . S
C2204 O2260 1.325 . S
N2205 C2208 1.314 . S
N2205 C2209 1.279 . S
C2206 C2204 1.348 . S
C2206 C2208 1.353 . S
C2206 H2264 0.929 . S
C2207 C2204 1.356 . S
C2207 C2209 1.358 . S
C2207 H2265 0.930 . S
C2208 N2205 1.314 . S
C2208 C2206 1.353 . S
C2208 H2266 0.930 . S
C2209 N2205 1.279 . S
C2209 C2207 1.358 . S
C2209 H2267 0.930 . S
C2210 C2213 1.348 . S
C2210 C2214 1.356 . S
C2210 O2261 1.325 . S
C2211 N2212 1.279 . S
C2211 C2214 1.358 . S
C2211 H2268 0.930 . S
N2212 C2211 1.279 . S
N2212 C2215 1.314 . S
C2213 C2210 1.348 . S
C2213 C2215 1.353 . S
C2213 H2269 0.929 . S
C2214 C2210 1.356 . S
C2214 C2211 1.358 . S
C2214 H2270 0.930 . S
C2215 N2212 1.314 . S
C2215 C2213 1.353 . S
C2215 H2271 0.930 . S
C2216 N2217 1.314 . S
C2216 C2221 1.353 . S
C2216 H2222 0.930 . S
N2217 Li2200 1.990 . S
N2217 C2216 1.314 . S
N2217 C2219 1.279 . S
C2218 C2219 1.358 . S
C2218 C2220 1.356 . S
C2218 H2272 0.930 . S
C2219 N2217 1.279 . S
C2219 C2218 1.358 . S
C2219 H2223 0.930 . S
C2220 C2218 1.356 . S
C2220 C2221 1.348 . S
C2221 C2216 1.353 . S
C2221 C2220 1.348 . S
C2221 H2273 0.929 . S
H2222 C2216 0.930 . S
H2223 C2219 0.930 . S
C2224 N2225 1.314 . S
C2224 C2226 1.353 . S
C2224 H2230 0.930 . S
N2225 Li2201 1.990 . S
N2225 C2224 1.314 . S
N2225 C2228 1.279 . S
C2226 C2224 1.353 . S
C2226 C2229 1.348 . S
C2226 H2274 0.929 . S
C2227 C2228 1.358 . S
C2227 C2229 1.356 . S
C2227 H2275 0.930 . S
C2228 N2225 1.279 . S
C2228 C2227 1.358 . S
C2228 H2231 0.930 . S
C2229 C2226 1.348 . S
C2229 C2227 1.356 . S
H2230 C2224 0.930 . S
H2231 C2228 0.930 . S
C2232 C2234 1.348 . S
C2232 C2235 1.356 . S
C2232 O2262 1.325 . S
N2233 C2236 1.314 . S
N2233 C2237 1.279 . S
C2234 C2232 1.348 . S
C2234 C2236 1.353 . S
C2234 H2276 0.929 . S
C2235 C2232 1.356 . S
C2235 C2237 1.358 . S
C2235 H2277 0.930 . S
C2236 N2233 1.314 . S
C2236 C2234 1.353 . S
C2236 H2278 0.930 . S
C2237 N2233 1.279 . S
C2237 C2235 1.358 . S
C2237 H2279 0.930 . S
C2238 C2239 1.348 . S
C2238 C2240 1.356 . S
C2238 O2263 1.325 . S
C2239 C2238 1.348 . S
C2239 C2241 1.353 . S
C2239 H2280 0.929 . S
C2240 C2238 1.356 . S
C2240 C2242 1.358 . S
C2240 H2281 0.930 . S
C2241 C2239 1.353 . S
C2241 N2243 1.314 . S
C2241 H2282 0.930 . S
C2242 C2240 1.358 . S
C2242 N2243 1.279 . S
C2242 H2283 0.930 . S
N2243 C2241 1.314 . S
N2243 C2242 1.279 . S
C2244 C2246 1.353 . S
C2244 N2247 1.314 . S
C2244 H2250 0.930 . S
C2245 N2247 1.279 . S
C2245 C2248 1.358 . S
C2245 H2251 0.930 . S
C2246 C2244 1.353 . S
C2246 C2249 1.348 . S
C2246 H2284 0.929 . S
N2247 Li2202 1.990 . S
N2247 C2244 1.314 . S
N2247 C2245 1.279 . S
C2248 C2245 1.358 . S
C2248 C2249 1.356 . S
C2248 H2285 0.930 . S
C2249 C2246 1.348 . S
C2249 C2248 1.356 . S
H2250 C2244 0.930 . S
H2251 C2245 0.930 . S
C2252 N2253 1.314 . S
C2252 C2254 1.353 . S
C2252 H2258 0.930 . S
N2253 Li2203 1.990 . S
N2253 C2252 1.314 . S
N2253 C2256 1.279 . S
C2254 C2252 1.353 . S
C2254 C2257 1.348 . S
C2254 H2286 0.929 . S
C2255 C2256 1.358 . S
C2255 C2257 1.356 . S
C2255 H2287 0.930 . S
C2256 N2253 1.279 . S
C2256 C2255 1.358 . S
C2256 H2259 0.930 . S
C2257 C2254 1.348 . S
C2257 C2255 1.356 . S
H2258 C2252 0.930 . S
H2259 C2256 0.930 . S
O2260 Li2200 1.956 . S
O2260 Li2201 1.970 . S
O2260 Li2202 1.961 . S
O2260 C2204 1.325 . S
O2261 Li2200 1.970 . S
O2261 Li2201 1.956 . S
O2261 Li2203 1.961 . S
O2261 C2210 1.325 . S
O2262 Li2200 1.961 . S
O2262 Li2202 1.956 . S
O2262 Li2203 1.970 . S
O2262 C2232 1.325 . S
O2263 Li2201 1.961 . S
O2263 Li2202 1.970 . S
O2263 Li2203 1.956 . S
O2263 C2238 1.325 . S
H2264 C2206 0.929 . S
H2265 C2207 0.930 . S
H2266 C2208 0.930 . S
H2267 C2209 0.930 . S
H2268 C2211 0.930 . S
H2269 C2213 0.929 . S
H2270 C2214 0.930 . S
H2271 C2215 0.930 . S
H2272 C2218 0.930 . S
H2273 C2221 0.929 . S
H2274 C2226 0.929 . S
H2275 C2227 0.930 . S
H2276 C2234 0.929 . S
H2277 C2235 0.930 . S
H2278 C2236 0.930 . S
H2279 C2237 0.930 . S
H2280 C2239 0.929 . S
H2281 C2240 0.930 . S
H2282 C2241 0.930 . S
H2283 C2242 0.930 . S
H2284 C2246 0.929 . S
H2285 C2248 0.930 . S
H2286 C2254 0.929 . S
H2287 C2255 0.930 . S
Li2288 N2305 1.990 . S
Li2288 O2348 1.956 . S
Li2288 O2349 1.970 . S
Li2288 O2350 1.961 . S
Li2289 N2313 1.990 . S
Li2289 O2348 1.970 . S
Li2289 O2349 1.956 . S
Li2289 O2351 1.961 . S
Li2290 N2335 1.990 . S
Li2290 O2348 1.961 . S
Li2290 O2350 1.956 . S
Li2290 O2351 1.970 . S
Li2291 N2341 1.990 . S
Li2291 O2349 1.961 . S
Li2291 O2350 1.970 . S
Li2291 O2351 1.956 . S
C2292 C2294 1.348 . S
C2292 C2295 1.356 . S
C2292 O2348 1.325 . S
N2293 C2296 1.314 . S
N2293 C2297 1.279 . S
C2294 C2292 1.348 . S
C2294 C2296 1.353 . S
C2294 H2352 0.929 . S
C2295 C2292 1.356 . S
C2295 C2297 1.358 . S
C2295 H2353 0.930 . S
C2296 N2293 1.314 . S
C2296 C2294 1.353 . S
C2296 H2354 0.930 . S
C2297 N2293 1.279 . S
C2297 C2295 1.358 . S
C2297 H2355 0.930 . S
C2298 C2301 1.348 . S
C2298 C2302 1.356 . S
C2298 O2349 1.325 . S
C2299 N2300 1.279 . S
C2299 C2302 1.358 . S
C2299 H2356 0.930 . S
N2300 C2299 1.279 . S
N2300 C2303 1.314 . S
C2301 C2298 1.348 . S
C2301 C2303 1.353 . S
C2301 H2357 0.929 . S
C2302 C2298 1.356 . S
C2302 C2299 1.358 . S
C2302 H2358 0.930 . S
C2303 N2300 1.314 . S
C2303 C2301 1.353 . S
C2303 H2359 0.930 . S
C2304 N2305 1.314 . S
C2304 C2309 1.353 . S
C2304 H2310 0.930 . S
N2305 Li2288 1.990 . S
N2305 C2304 1.314 . S
N2305 C2307 1.279 . S
C2306 C2307 1.358 . S
C2306 C2308 1.356 . S
C2306 H2360 0.930 . S
C2307 N2305 1.279 . S
C2307 C2306 1.358 . S
C2307 H2311 0.930 . S
C2308 C2306 1.356 . S
C2308 C2309 1.348 . S
C2309 C2304 1.353 . S
C2309 C2308 1.348 . S
C2309 H2361 0.929 . S
H2310 C2304 0.930 . S
H2311 C2307 0.930 . S
C2312 N2313 1.314 . S
C2312 C2314 1.353 . S
C2312 H2318 0.930 . S
N2313 Li2289 1.990 . S
N2313 C2312 1.314 . S
N2313 C2316 1.279 . S
C2314 C2312 1.353 . S
C2314 C2317 1.348 . S
C2314 H2362 0.929 . S
C2315 C2316 1.358 . S
C2315 C2317 1.356 . S
C2315 H2363 0.930 . S
C2316 N2313 1.279 . S
C2316 C2315 1.358 . S
C2316 H2319 0.930 . S
C2317 C2314 1.348 . S
C2317 C2315 1.356 . S
H2318 C2312 0.930 . S
H2319 C2316 0.930 . S
C2320 C2322 1.348 . S
C2320 C2323 1.356 . S
C2320 O2350 1.325 . S
N2321 C2324 1.314 . S
N2321 C2325 1.279 . S
C2322 C2320 1.348 . S
C2322 C2324 1.353 . S
C2322 H2364 0.929 . S
C2323 C2320 1.356 . S
C2323 C2325 1.358 . S
C2323 H2365 0.930 . S
C2324 N2321 1.314 . S
C2324 C2322 1.353 . S
C2324 H2366 0.930 . S
C2325 N2321 1.279 . S
C2325 C2323 1.358 . S
C2325 H2367 0.930 . S
C2326 C2327 1.348 . S
C2326 C2328 1.356 . S
C2326 O2351 1.325 . S
C2327 C2326 1.348 . S
C2327 C2329 1.353 . S
C2327 H2368 0.929 . S
C2328 C2326 1.356 . S
C2328 C2330 1.358 . S
C2328 H2369 0.930 . S
C2329 C2327 1.353 . S
C2329 N2331 1.314 . S
C2329 H2370 0.930 . S
C2330 C2328 1.358 . S
C2330 N2331 1.279 . S
C2330 H2371 0.930 . S
N2331 C2329 1.314 . S
N2331 C2330 1.279 . S
C2332 C2334 1.353 . S
C2332 N2335 1.314 . S
C2332 H2338 0.930 . S
C2333 N2335 1.279 . S
C2333 C2336 1.358 . S
C2333 H2339 0.930 . S
C2334 C2332 1.353 . S
C2334 C2337 1.348 . S
C2334 H2372 0.929 . S
N2335 Li2290 1.990 . S
N2335 C2332 1.314 . S
N2335 C2333 1.279 . S
C2336 C2333 1.358 . S
C2336 C2337 1.356 . S
C2336 H2373 0.930 . S
C2337 C2334 1.348 . S
C2337 C2336 1.356 . S
H2338 C2332 0.930 . S
H2339 C2333 0.930 . S
C2340 N2341 1.314 . S
C2340 C2342 1.353 . S
C2340 H2346 0.930 . S
N2341 Li2291 1.990 . S
N2341 C2340 1.314 . S
N2341 C2344 1.279 . S
C2342 C2340 1.353 . S
C2342 C2345 1.348 . S
C2342 H2374 0.929 . S
C2343 C2344 1.358 . S
C2343 C2345 1.356 . S
C2343 H2375 0.930 . S
C2344 N2341 1.279 . S
C2344 C2343 1.358 . S
C2344 H2347 0.930 . S
C2345 C2342 1.348 . S
C2345 C2343 1.356 . S
H2346 C2340 0.930 . S
H2347 C2344 0.930 . S
O2348 Li2288 1.956 . S
O2348 Li2289 1.970 . S
O2348 Li2290 1.961 . S
O2348 C2292 1.325 . S
O2349 Li2288 1.970 . S
O2349 Li2289 1.956 . S
O2349 Li2291 1.961 . S
O2349 C2298 1.325 . S
O2350 Li2288 1.961 . S
O2350 Li2290 1.956 . S
O2350 Li2291 1.970 . S
O2350 C2320 1.325 . S
O2351 Li2289 1.961 . S
O2351 Li2290 1.970 . S
O2351 Li2291 1.956 . S
O2351 C2326 1.325 . S
H2352 C2294 0.929 . S
H2353 C2295 0.930 . S
H2354 C2296 0.930 . S
H2355 C2297 0.930 . S
H2356 C2299 0.930 . S
H2357 C2301 0.929 . S
H2358 C2302 0.930 . S
H2359 C2303 0.930 . S
H2360 C2306 0.930 . S
H2361 C2309 0.929 . S
H2362 C2314 0.929 . S
H2363 C2315 0.930 . S
H2364 C2322 0.929 . S
H2365 C2323 0.930 . S
H2366 C2324 0.930 . S
H2367 C2325 0.930 . S
H2368 C2327 0.929 . S
H2369 C2328 0.930 . S
H2370 C2329 0.930 . S
H2371 C2330 0.930 . S
H2372 C2334 0.929 . S
H2373 C2336 0.930 . S
H2374 C2342 0.929 . S
H2375 C2343 0.930 . S
Li2376 N2393 1.990 . S
Li2376 O2436 1.956 . S
Li2376 O2437 1.970 . S
Li2376 O2438 1.961 . S
Li2377 N2401 1.990 . S
Li2377 O2436 1.970 . S
Li2377 O2437 1.956 . S
Li2377 O2439 1.961 . S
Li2378 N2423 1.990 . S
Li2378 O2436 1.961 . S
Li2378 O2438 1.956 . S
Li2378 O2439 1.970 . S
Li2379 N2429 1.990 . S
Li2379 O2437 1.961 . S
Li2379 O2438 1.970 . S
Li2379 O2439 1.956 . S
C2380 C2382 1.348 . S
C2380 C2383 1.356 . S
C2380 O2436 1.325 . S
N2381 C2384 1.314 . S
N2381 C2385 1.279 . S
C2382 C2380 1.348 . S
C2382 C2384 1.353 . S
C2382 H2440 0.929 . S
C2383 C2380 1.356 . S
C2383 C2385 1.358 . S
C2383 H2441 0.930 . S
C2384 N2381 1.314 . S
C2384 C2382 1.353 . S
C2384 H2442 0.930 . S
C2385 N2381 1.279 . S
C2385 C2383 1.358 . S
C2385 H2443 0.930 . S
C2386 C2389 1.348 . S
C2386 C2390 1.356 . S
C2386 O2437 1.325 . S
C2387 N2388 1.279 . S
C2387 C2390 1.358 . S
C2387 H2444 0.930 . S
N2388 C2387 1.279 . S
N2388 C2391 1.314 . S
C2389 C2386 1.348 . S
C2389 C2391 1.353 . S
C2389 H2445 0.929 . S
C2390 C2386 1.356 . S
C2390 C2387 1.358 . S
C2390 H2446 0.930 . S
C2391 N2388 1.314 . S
C2391 C2389 1.353 . S
C2391 H2447 0.930 . S
C2392 N2393 1.314 . S
C2392 C2397 1.353 . S
C2392 H2398 0.930 . S
N2393 Li2376 1.990 . S
N2393 C2392 1.314 . S
N2393 C2395 1.279 . S
C2394 C2395 1.358 . S
C2394 C2396 1.356 . S
C2394 H2448 0.930 . S
C2395 N2393 1.279 . S
C2395 C2394 1.358 . S
C2395 H2399 0.930 . S
C2396 C2394 1.356 . S
C2396 C2397 1.348 . S
C2397 C2392 1.353 . S
C2397 C2396 1.348 . S
C2397 H2449 0.929 . S
H2398 C2392 0.930 . S
H2399 C2395 0.930 . S
C2400 N2401 1.314 . S
C2400 C2402 1.353 . S
C2400 H2406 0.930 . S
N2401 Li2377 1.990 . S
N2401 C2400 1.314 . S
N2401 C2404 1.279 . S
C2402 C2400 1.353 . S
C2402 C2405 1.348 . S
C2402 H2450 0.929 . S
C2403 C2404 1.358 . S
C2403 C2405 1.356 . S
C2403 H2451 0.930 . S
C2404 N2401 1.279 . S
C2404 C2403 1.358 . S
C2404 H2407 0.930 . S
C2405 C2402 1.348 . S
C2405 C2403 1.356 . S
H2406 C2400 0.930 . S
H2407 C2404 0.930 . S
C2408 C2410 1.348 . S
C2408 C2411 1.356 . S
C2408 O2438 1.325 . S
N2409 C2412 1.314 . S
N2409 C2413 1.279 . S
C2410 C2408 1.348 . S
C2410 C2412 1.353 . S
C2410 H2452 0.929 . S
C2411 C2408 1.356 . S
C2411 C2413 1.358 . S
C2411 H2453 0.930 . S
C2412 N2409 1.314 . S
C2412 C2410 1.353 . S
C2412 H2454 0.930 . S
C2413 N2409 1.279 . S
C2413 C2411 1.358 . S
C2413 H2455 0.930 . S
C2414 C2415 1.348 . S
C2414 C2416 1.356 . S
C2414 O2439 1.325 . S
C2415 C2414 1.348 . S
C2415 C2417 1.353 . S
C2415 H2456 0.929 . S
C2416 C2414 1.356 . S
C2416 C2418 1.358 . S
C2416 H2457 0.930 . S
C2417 C2415 1.353 . S
C2417 N2419 1.314 . S
C2417 H2458 0.930 . S
C2418 C2416 1.358 . S
C2418 N2419 1.279 . S
C2418 H2459 0.930 . S
N2419 C2417 1.314 . S
N2419 C2418 1.279 . S
C2420 C2422 1.353 . S
C2420 N2423 1.314 . S
C2420 H2426 0.930 . S
C2421 N2423 1.279 . S
C2421 C2424 1.358 . S
C2421 H2427 0.930 . S
C2422 C2420 1.353 . S
C2422 C2425 1.348 . S
C2422 H2460 0.929 . S
N2423 Li2378 1.990 . S
N2423 C2420 1.314 . S
N2423 C2421 1.279 . S
C2424 C2421 1.358 . S
C2424 C2425 1.356 . S
C2424 H2461 0.930 . S
C2425 C2422 1.348 . S
C2425 C2424 1.356 . S
H2426 C2420 0.930 . S
H2427 C2421 0.930 . S
C2428 N2429 1.314 . S
C2428 C2430 1.353 . S
C2428 H2434 0.930 . S
N2429 Li2379 1.990 . S
N2429 C2428 1.314 . S
N2429 C2432 1.279 . S
C2430 C2428 1.353 . S
C2430 C2433 1.348 . S
C2430 H2462 0.929 . S
C2431 C2432 1.358 . S
C2431 C2433 1.356 . S
C2431 H2463 0.930 . S
C2432 N2429 1.279 . S
C2432 C2431 1.358 . S
C2432 H2435 0.930 . S
C2433 C2430 1.348 . S
C2433 C2431 1.356 . S
H2434 C2428 0.930 . S
H2435 C2432 0.930 . S
O2436 Li2376 1.956 . S
O2436 Li2377 1.970 . S
O2436 Li2378 1.961 . S
O2436 C2380 1.325 . S
O2437 Li2376 1.970 . S
O2437 Li2377 1.956 . S
O2437 Li2379 1.961 . S
O2437 C2386 1.325 . S
O2438 Li2376 1.961 . S
O2438 Li2378 1.956 . S
O2438 Li2379 1.970 . S
O2438 C2408 1.325 . S
O2439 Li2377 1.961 . S
O2439 Li2378 1.970 . S
O2439 Li2379 1.956 . S
O2439 C2414 1.325 . S
H2440 C2382 0.929 . S
H2441 C2383 0.930 . S
H2442 C2384 0.930 . S
H2443 C2385 0.930 . S
H2444 C2387 0.930 . S
H2445 C2389 0.929 . S
H2446 C2390 0.930 . S
H2447 C2391 0.930 . S
H2448 C2394 0.930 . S
H2449 C2397 0.929 . S
H2450 C2402 0.929 . S
H2451 C2403 0.930 . S
H2452 C2410 0.929 . S
H2453 C2411 0.930 . S
H2454 C2412 0.930 . S
H2455 C2413 0.930 . S
H2456 C2415 0.929 . S
H2457 C2416 0.930 . S
H2458 C2417 0.930 . S
H2459 C2418 0.930 . S
H2460 C2422 0.929 . S
H2461 C2424 0.930 . S
H2462 C2430 0.929 . S
H2463 C2431 0.930 . S
Li2464 N2481 1.990 . S
Li2464 O2524 1.956 . S
Li2464 O2525 1.970 . S
Li2464 O2526 1.961 . S
Li2465 N2489 1.990 . S
Li2465 O2524 1.970 . S
Li2465 O2525 1.956 . S
Li2465 O2527 1.961 . S
Li2466 N2511 1.990 . S
Li2466 O2524 1.961 . S
Li2466 O2526 1.956 . S
Li2466 O2527 1.970 . S
Li2467 N2517 1.990 . S
Li2467 O2525 1.961 . S
Li2467 O2526 1.970 . S
Li2467 O2527 1.956 . S
C2468 C2470 1.348 . S
C2468 C2471 1.356 . S
C2468 O2524 1.325 . S
N2469 C2472 1.314 . S
N2469 C2473 1.279 . S
C2470 C2468 1.348 . S
C2470 C2472 1.353 . S
C2470 H2528 0.929 . S
C2471 C2468 1.356 . S
C2471 C2473 1.358 . S
C2471 H2529 0.930 . S
C2472 N2469 1.314 . S
C2472 C2470 1.353 . S
C2472 H2530 0.930 . S
C2473 N2469 1.279 . S
C2473 C2471 1.358 . S
C2473 H2531 0.930 . S
C2474 C2477 1.348 . S
C2474 C2478 1.356 . S
C2474 O2525 1.325 . S
C2475 N2476 1.279 . S
C2475 C2478 1.358 . S
C2475 H2532 0.930 . S
N2476 C2475 1.279 . S
N2476 C2479 1.314 . S
C2477 C2474 1.348 . S
C2477 C2479 1.353 . S
C2477 H2533 0.929 . S
C2478 C2474 1.356 . S
C2478 C2475 1.358 . S
C2478 H2534 0.930 . S
C2479 N2476 1.314 . S
C2479 C2477 1.353 . S
C2479 H2535 0.930 . S
C2480 N2481 1.314 . S
C2480 C2485 1.353 . S
C2480 H2486 0.930 . S
N2481 Li2464 1.990 . S
N2481 C2480 1.314 . S
N2481 C2483 1.279 . S
C2482 C2483 1.358 . S
C2482 C2484 1.356 . S
C2482 H2536 0.930 . S
C2483 N2481 1.279 . S
C2483 C2482 1.358 . S
C2483 H2487 0.930 . S
C2484 C2482 1.356 . S
C2484 C2485 1.348 . S
C2485 C2480 1.353 . S
C2485 C2484 1.348 . S
C2485 H2537 0.929 . S
H2486 C2480 0.930 . S
H2487 C2483 0.930 . S
C2488 N2489 1.314 . S
C2488 C2490 1.353 . S
C2488 H2494 0.930 . S
N2489 Li2465 1.990 . S
N2489 C2488 1.314 . S
N2489 C2492 1.279 . S
C2490 C2488 1.353 . S
C2490 C2493 1.348 . S
C2490 H2538 0.929 . S
C2491 C2492 1.358 . S
C2491 C2493 1.356 . S
C2491 H2539 0.930 . S
C2492 N2489 1.279 . S
C2492 C2491 1.358 . S
C2492 H2495 0.930 . S
C2493 C2490 1.348 . S
C2493 C2491 1.356 . S
H2494 C2488 0.930 . S
H2495 C2492 0.930 . S
C2496 C2498 1.348 . S
C2496 C2499 1.356 . S
C2496 O2526 1.325 . S
N2497 C2500 1.314 . S
N2497 C2501 1.279 . S
C2498 C2496 1.348 . S
C2498 C2500 1.353 . S
C2498 H2540 0.929 . S
C2499 C2496 1.356 . S
C2499 C2501 1.358 . S
C2499 H2541 0.930 . S
C2500 N2497 1.314 . S
C2500 C2498 1.353 . S
C2500 H2542 0.930 . S
C2501 N2497 1.279 . S
C2501 C2499 1.358 . S
C2501 H2543 0.930 . S
C2502 C2503 1.348 . S
C2502 C2504 1.356 . S
C2502 O2527 1.325 . S
C2503 C2502 1.348 . S
C2503 C2505 1.353 . S
C2503 H2544 0.929 . S
C2504 C2502 1.356 . S
C2504 C2506 1.358 . S
C2504 H2545 0.930 . S
C2505 C2503 1.353 . S
C2505 N2507 1.314 . S
C2505 H2546 0.930 . S
C2506 C2504 1.358 . S
C2506 N2507 1.279 . S
C2506 H2547 0.930 . S
N2507 C2505 1.314 . S
N2507 C2506 1.279 . S
C2508 C2510 1.353 . S
C2508 N2511 1.314 . S
C2508 H2514 0.930 . S
C2509 N2511 1.279 . S
C2509 C2512 1.358 . S
C2509 H2515 0.930 . S
C2510 C2508 1.353 . S
C2510 C2513 1.348 . S
C2510 H2548 0.929 . S
N2511 Li2466 1.990 . S
N2511 C2508 1.314 . S
N2511 C2509 1.279 . S
C2512 C2509 1.358 . S
C2512 C2513 1.356 . S
C2512 H2549 0.930 . S
C2513 C2510 1.348 . S
C2513 C2512 1.356 . S
H2514 C2508 0.930 . S
H2515 C2509 0.930 . S
C2516 N2517 1.314 . S
C2516 C2518 1.353 . S
C2516 H2522 0.930 . S
N2517 Li2467 1.990 . S
N2517 C2516 1.314 . S
N2517 C2520 1.279 . S
C2518 C2516 1.353 . S
C2518 C2521 1.348 . S
C2518 H2550 0.929 . S
C2519 C2520 1.358 . S
C2519 C2521 1.356 . S
C2519 H2551 0.930 . S
C2520 N2517 1.279 . S
C2520 C2519 1.358 . S
C2520 H2523 0.930 . S
C2521 C2518 1.348 . S
C2521 C2519 1.356 . S
H2522 C2516 0.930 . S
H2523 C2520 0.930 . S
O2524 Li2464 1.956 . S
O2524 Li2465 1.970 . S
O2524 Li2466 1.961 . S
O2524 C2468 1.325 . S
O2525 Li2464 1.970 . S
O2525 Li2465 1.956 . S
O2525 Li2467 1.961 . S
O2525 C2474 1.325 . S
O2526 Li2464 1.961 . S
O2526 Li2466 1.956 . S
O2526 Li2467 1.970 . S
O2526 C2496 1.325 . S
O2527 Li2465 1.961 . S
O2527 Li2466 1.970 . S
O2527 Li2467 1.956 . S
O2527 C2502 1.325 . S
H2528 C2470 0.929 . S
H2529 C2471 0.930 . S
H2530 C2472 0.930 . S
H2531 C2473 0.930 . S
H2532 C2475 0.930 . S
H2533 C2477 0.929 . S
H2534 C2478 0.930 . S
H2535 C2479 0.930 . S
H2536 C2482 0.930 . S
H2537 C2485 0.929 . S
H2538 C2490 0.929 . S
H2539 C2491 0.930 . S
H2540 C2498 0.929 . S
H2541 C2499 0.930 . S
H2542 C2500 0.930 . S
H2543 C2501 0.930 . S
H2544 C2503 0.929 . S
H2545 C2504 0.930 . S
H2546 C2505 0.930 . S
H2547 C2506 0.930 . S
H2548 C2510 0.929 . S
H2549 C2512 0.930 . S
H2550 C2518 0.929 . S
H2551 C2519 0.930 . S
Li2552 N2569 1.990 . S
Li2552 O2612 1.956 . S
Li2552 O2613 1.970 . S
Li2552 O2614 1.961 . S
Li2553 N2577 1.990 . S
Li2553 O2612 1.970 . S
Li2553 O2613 1.956 . S
Li2553 O2615 1.961 . S
Li2554 N2599 1.990 . S
Li2554 O2612 1.961 . S
Li2554 O2614 1.956 . S
Li2554 O2615 1.970 . S
Li2555 N2605 1.990 . S
Li2555 O2613 1.961 . S
Li2555 O2614 1.970 . S
Li2555 O2615 1.956 . S
C2556 C2558 1.348 . S
C2556 C2559 1.356 . S
C2556 O2612 1.325 . S
N2557 C2560 1.314 . S
N2557 C2561 1.279 . S
C2558 C2556 1.348 . S
C2558 C2560 1.353 . S
C2558 H2616 0.929 . S
C2559 C2556 1.356 . S
C2559 C2561 1.358 . S
C2559 H2617 0.930 . S
C2560 N2557 1.314 . S
C2560 C2558 1.353 . S
C2560 H2618 0.930 . S
C2561 N2557 1.279 . S
C2561 C2559 1.358 . S
C2561 H2619 0.930 . S
C2562 C2565 1.348 . S
C2562 C2566 1.356 . S
C2562 O2613 1.325 . S
C2563 N2564 1.279 . S
C2563 C2566 1.358 . S
C2563 H2620 0.930 . S
N2564 C2563 1.279 . S
N2564 C2567 1.314 . S
C2565 C2562 1.348 . S
C2565 C2567 1.353 . S
C2565 H2621 0.929 . S
C2566 C2562 1.356 . S
C2566 C2563 1.358 . S
C2566 H2622 0.930 . S
C2567 N2564 1.314 . S
C2567 C2565 1.353 . S
C2567 H2623 0.930 . S
C2568 N2569 1.314 . S
C2568 C2573 1.353 . S
C2568 H2574 0.930 . S
N2569 Li2552 1.990 . S
N2569 C2568 1.314 . S
N2569 C2571 1.279 . S
C2570 C2571 1.358 . S
C2570 C2572 1.356 . S
C2570 H2624 0.930 . S
C2571 N2569 1.279 . S
C2571 C2570 1.358 . S
C2571 H2575 0.930 . S
C2572 C2570 1.356 . S
C2572 C2573 1.348 . S
C2573 C2568 1.353 . S
C2573 C2572 1.348 . S
C2573 H2625 0.929 . S
H2574 C2568 0.930 . S
H2575 C2571 0.930 . S
C2576 N2577 1.314 . S
C2576 C2578 1.353 . S
C2576 H2582 0.930 . S
N2577 Li2553 1.990 . S
N2577 C2576 1.314 . S
N2577 C2580 1.279 . S
C2578 C2576 1.353 . S
C2578 C2581 1.348 . S
C2578 H2626 0.929 . S
C2579 C2580 1.358 . S
C2579 C2581 1.356 . S
C2579 H2627 0.930 . S
C2580 N2577 1.279 . S
C2580 C2579 1.358 . S
C2580 H2583 0.930 . S
C2581 C2578 1.348 . S
C2581 C2579 1.356 . S
H2582 C2576 0.930 . S
H2583 C2580 0.930 . S
C2584 C2586 1.348 . S
C2584 C2587 1.356 . S
C2584 O2614 1.325 . S
N2585 C2588 1.314 . S
N2585 C2589 1.279 . S
C2586 C2584 1.348 . S
C2586 C2588 1.353 . S
C2586 H2628 0.929 . S
C2587 C2584 1.356 . S
C2587 C2589 1.358 . S
C2587 H2629 0.930 . S
C2588 N2585 1.314 . S
C2588 C2586 1.353 . S
C2588 H2630 0.930 . S
C2589 N2585 1.279 . S
C2589 C2587 1.358 . S
C2589 H2631 0.930 . S
C2590 C2591 1.348 . S
C2590 C2592 1.356 . S
C2590 O2615 1.325 . S
C2591 C2590 1.348 . S
C2591 C2593 1.353 . S
C2591 H2632 0.929 . S
C2592 C2590 1.356 . S
C2592 C2594 1.358 . S
C2592 H2633 0.930 . S
C2593 C2591 1.353 . S
C2593 N2595 1.314 . S
C2593 H2634 0.930 . S
C2594 C2592 1.358 . S
C2594 N2595 1.279 . S
C2594 H2635 0.930 . S
N2595 C2593 1.314 . S
N2595 C2594 1.279 . S
C2596 C2598 1.353 . S
C2596 N2599 1.314 . S
C2596 H2602 0.930 . S
C2597 N2599 1.279 . S
C2597 C2600 1.358 . S
C2597 H2603 0.930 . S
C2598 C2596 1.353 . S
C2598 C2601 1.348 . S
C2598 H2636 0.929 . S
N2599 Li2554 1.990 . S
N2599 C2596 1.314 . S
N2599 C2597 1.279 . S
C2600 C2597 1.358 . S
C2600 C2601 1.356 . S
C2600 H2637 0.930 . S
C2601 C2598 1.348 . S
C2601 C2600 1.356 . S
H2602 C2596 0.930 . S
H2603 C2597 0.930 . S
C2604 N2605 1.314 . S
C2604 C2606 1.353 . S
C2604 H2610 0.930 . S
N2605 Li2555 1.990 . S
N2605 C2604 1.314 . S
N2605 C2608 1.279 . S
C2606 C2604 1.353 . S
C2606 C2609 1.348 . S
C2606 H2638 0.929 . S
C2607 C2608 1.358 . S
C2607 C2609 1.356 . S
C2607 H2639 0.930 . S
C2608 N2605 1.279 . S
C2608 C2607 1.358 . S
C2608 H2611 0.930 . S
C2609 C2606 1.348 . S
C2609 C2607 1.356 . S
H2610 C2604 0.930 . S
H2611 C2608 0.930 . S
O2612 Li2552 1.956 . S
O2612 Li2553 1.970 . S
O2612 Li2554 1.961 . S
O2612 C2556 1.325 . S
O2613 Li2552 1.970 . S
O2613 Li2553 1.956 . S
O2613 Li2555 1.961 . S
O2613 C2562 1.325 . S
O2614 Li2552 1.961 . S
O2614 Li2554 1.956 . S
O2614 Li2555 1.970 . S
O2614 C2584 1.325 . S
O2615 Li2553 1.961 . S
O2615 Li2554 1.970 . S
O2615 Li2555 1.956 . S
O2615 C2590 1.325 . S
H2616 C2558 0.929 . S
H2617 C2559 0.930 . S
H2618 C2560 0.930 . S
H2619 C2561 0.930 . S
H2620 C2563 0.930 . S
H2621 C2565 0.929 . S
H2622 C2566 0.930 . S
H2623 C2567 0.930 . S
H2624 C2570 0.930 . S
H2625 C2573 0.929 . S
H2626 C2578 0.929 . S
H2627 C2579 0.930 . S
H2628 C2586 0.929 . S
H2629 C2587 0.930 . S
H2630 C2588 0.930 . S
H2631 C2589 0.930 . S
H2632 C2591 0.929 . S
H2633 C2592 0.930 . S
H2634 C2593 0.930 . S
H2635 C2594 0.930 . S
H2636 C2598 0.929 . S
H2637 C2600 0.930 . S
H2638 C2606 0.929 . S
H2639 C2607 0.930 . S
Li2640 N2657 1.990 . S
Li2640 O2700 1.956 . S
Li2640 O2701 1.970 . S
Li2640 O2702 1.961 . S
Li2641 N2665 1.990 . S
Li2641 O2700 1.970 . S
Li2641 O2701 1.956 . S
Li2641 O2703 1.961 . S
Li2642 N2687 1.990 . S
Li2642 O2700 1.961 . S
Li2642 O2702 1.956 . S
Li2642 O2703 1.970 . S
Li2643 N2693 1.990 . S
Li2643 O2701 1.961 . S
Li2643 O2702 1.970 . S
Li2643 O2703 1.956 . S
C2644 C2646 1.348 . S
C2644 C2647 1.356 . S
C2644 O2700 1.325 . S
N2645 C2648 1.314 . S
N2645 C2649 1.279 . S
C2646 C2644 1.348 . S
C2646 C2648 1.353 . S
C2646 H2704 0.929 . S
C2647 C2644 1.356 . S
C2647 C2649 1.358 . S
C2647 H2705 0.930 . S
C2648 N2645 1.314 . S
C2648 C2646 1.353 . S
C2648 H2706 0.930 . S
C2649 N2645 1.279 . S
C2649 C2647 1.358 . S
C2649 H2707 0.930 . S
C2650 C2653 1.348 . S
C2650 C2654 1.356 . S
C2650 O2701 1.325 . S
C2651 N2652 1.279 . S
C2651 C2654 1.358 . S
C2651 H2708 0.930 . S
N2652 C2651 1.279 . S
N2652 C2655 1.314 . S
C2653 C2650 1.348 . S
C2653 C2655 1.353 . S
C2653 H2709 0.929 . S
C2654 C2650 1.356 . S
C2654 C2651 1.358 . S
C2654 H2710 0.930 . S
C2655 N2652 1.314 . S
C2655 C2653 1.353 . S
C2655 H2711 0.930 . S
C2656 N2657 1.314 . S
C2656 C2661 1.353 . S
C2656 H2662 0.930 . S
N2657 Li2640 1.990 . S
N2657 C2656 1.314 . S
N2657 C2659 1.279 . S
C2658 C2659 1.358 . S
C2658 C2660 1.356 . S
C2658 H2712 0.930 . S
C2659 N2657 1.279 . S
C2659 C2658 1.358 . S
C2659 H2663 0.930 . S
C2660 C2658 1.356 . S
C2660 C2661 1.348 . S
C2661 C2656 1.353 . S
C2661 C2660 1.348 . S
C2661 H2713 0.929 . S
H2662 C2656 0.930 . S
H2663 C2659 0.930 . S
C2664 N2665 1.314 . S
C2664 C2666 1.353 . S
C2664 H2670 0.930 . S
N2665 Li2641 1.990 . S
N2665 C2664 1.314 . S
N2665 C2668 1.279 . S
C2666 C2664 1.353 . S
C2666 C2669 1.348 . S
C2666 H2714 0.929 . S
C2667 C2668 1.358 . S
C2667 C2669 1.356 . S
C2667 H2715 0.930 . S
C2668 N2665 1.279 . S
C2668 C2667 1.358 . S
C2668 H2671 0.930 . S
C2669 C2666 1.348 . S
C2669 C2667 1.356 . S
H2670 C2664 0.930 . S
H2671 C2668 0.930 . S
C2672 C2674 1.348 . S
C2672 C2675 1.356 . S
C2672 O2702 1.325 . S
N2673 C2676 1.314 . S
N2673 C2677 1.279 . S
C2674 C2672 1.348 . S
C2674 C2676 1.353 . S
C2674 H2716 0.929 . S
C2675 C2672 1.356 . S
C2675 C2677 1.358 . S
C2675 H2717 0.930 . S
C2676 N2673 1.314 . S
C2676 C2674 1.353 . S
C2676 H2718 0.930 . S
C2677 N2673 1.279 . S
C2677 C2675 1.358 . S
C2677 H2719 0.930 . S
C2678 C2679 1.348 . S
C2678 C2680 1.356 . S
C2678 O2703 1.325 . S
C2679 C2678 1.348 . S
C2679 C2681 1.353 . S
C2679 H2720 0.929 . S
C2680 C2678 1.356 . S
C2680 C2682 1.358 . S
C2680 H2721 0.930 . S
C2681 C2679 1.353 . S
C2681 N2683 1.314 . S
C2681 H2722 0.930 . S
C2682 C2680 1.358 . S
C2682 N2683 1.279 . S
C2682 H2723 0.930 . S
N2683 C2681 1.314 . S
N2683 C2682 1.279 . S
C2684 C2686 1.353 . S
C2684 N2687 1.314 . S
C2684 H2690 0.930 . S
C2685 N2687 1.279 . S
C2685 C2688 1.358 . S
C2685 H2691 0.930 . S
C2686 C2684 1.353 . S
C2686 C2689 1.348 . S
C2686 H2724 0.929 . S
N2687 Li2642 1.990 . S
N2687 C2684 1.314 . S
N2687 C2685 1.279 . S
C2688 C2685 1.358 . S
C2688 C2689 1.356 . S
C2688 H2725 0.930 . S
C2689 C2686 1.348 . S
C2689 C2688 1.356 . S
H2690 C2684 0.930 . S
H2691 C2685 0.930 . S
C2692 N2693 1.314 . S
C2692 C2694 1.353 . S
C2692 H2698 0.930 . S
N2693 Li2643 1.990 . S
N2693 C2692 1.314 . S
N2693 C2696 1.279 . S
C2694 C2692 1.353 . S
C2694 C2697 1.348 . S
C2694 H2726 0.929 . S
C2695 C2696 1.358 . S
C2695 C2697 1.356 . S
C2695 H2727 0.930 . S
C2696 N2693 1.279 . S
C2696 C2695 1.358 . S
C2696 H2699 0.930 . S
C2697 C2694 1.348 . S
C2697 C2695 1.356 . S
H2698 C2692 0.930 . S
H2699 C2696 0.930 . S
O2700 Li2640 1.956 . S
O2700 Li2641 1.970 . S
O2700 Li2642 1.961 . S
O2700 C2644 1.325 . S
O2701 Li2640 1.970 . S
O2701 Li2641 1.956 . S
O2701 Li2643 1.961 . S
O2701 C2650 1.325 . S
O2702 Li2640 1.961 . S
O2702 Li2642 1.956 . S
O2702 Li2643 1.970 . S
O2702 C2672 1.325 . S
O2703 Li2641 1.961 . S
O2703 Li2642 1.970 . S
O2703 Li2643 1.956 . S
O2703 C2678 1.325 . S
H2704 C2646 0.929 . S
H2705 C2647 0.930 . S
H2706 C2648 0.930 . S
H2707 C2649 0.930 . S
H2708 C2651 0.930 . S
H2709 C2653 0.929 . S
H2710 C2654 0.930 . S
H2711 C2655 0.930 . S
H2712 C2658 0.930 . S
H2713 C2661 0.929 . S
H2714 C2666 0.929 . S
H2715 C2667 0.930 . S
H2716 C2674 0.929 . S
H2717 C2675 0.930 . S
H2718 C2676 0.930 . S
H2719 C2677 0.930 . S
H2720 C2679 0.929 . S
H2721 C2680 0.930 . S
H2722 C2681 0.930 . S
H2723 C2682 0.930 . S
H2724 C2686 0.929 . S
H2725 C2688 0.930 . S
H2726 C2694 0.929 . S
H2727 C2695 0.930 . S
Li2728 N2745 1.990 . S
Li2728 O2788 1.956 . S
Li2728 O2789 1.970 . S
Li2728 O2790 1.961 . S
Li2729 N2753 1.990 . S
Li2729 O2788 1.970 . S
Li2729 O2789 1.956 . S
Li2729 O2791 1.961 . S
Li2730 N2775 1.990 . S
Li2730 O2788 1.961 . S
Li2730 O2790 1.956 . S
Li2730 O2791 1.970 . S
Li2731 N2781 1.990 . S
Li2731 O2789 1.961 . S
Li2731 O2790 1.970 . S
Li2731 O2791 1.956 . S
C2732 C2734 1.348 . S
C2732 C2735 1.356 . S
C2732 O2788 1.325 . S
N2733 C2736 1.314 . S
N2733 C2737 1.279 . S
C2734 C2732 1.348 . S
C2734 C2736 1.353 . S
C2734 H2792 0.929 . S
C2735 C2732 1.356 . S
C2735 C2737 1.358 . S
C2735 H2793 0.930 . S
C2736 N2733 1.314 . S
C2736 C2734 1.353 . S
C2736 H2794 0.930 . S
C2737 N2733 1.279 . S
C2737 C2735 1.358 . S
C2737 H2795 0.930 . S
C2738 C2741 1.348 . S
C2738 C2742 1.356 . S
C2738 O2789 1.325 . S
C2739 N2740 1.279 . S
C2739 C2742 1.358 . S
C2739 H2796 0.930 . S
N2740 C2739 1.279 . S
N2740 C2743 1.314 . S
C2741 C2738 1.348 . S
C2741 C2743 1.353 . S
C2741 H2797 0.929 . S
C2742 C2738 1.356 . S
C2742 C2739 1.358 . S
C2742 H2798 0.930 . S
C2743 N2740 1.314 . S
C2743 C2741 1.353 . S
C2743 H2799 0.930 . S
C2744 N2745 1.314 . S
C2744 C2749 1.353 . S
C2744 H2750 0.930 . S
N2745 Li2728 1.990 . S
N2745 C2744 1.314 . S
N2745 C2747 1.279 . S
C2746 C2747 1.358 . S
C2746 C2748 1.356 . S
C2746 H2800 0.930 . S
C2747 N2745 1.279 . S
C2747 C2746 1.358 . S
C2747 H2751 0.930 . S
C2748 C2746 1.356 . S
C2748 C2749 1.348 . S
C2749 C2744 1.353 . S
C2749 C2748 1.348 . S
C2749 H2801 0.929 . S
H2750 C2744 0.930 . S
H2751 C2747 0.930 . S
C2752 N2753 1.314 . S
C2752 C2754 1.353 . S
C2752 H2758 0.930 . S
N2753 Li2729 1.990 . S
N2753 C2752 1.314 . S
N2753 C2756 1.279 . S
C2754 C2752 1.353 . S
C2754 C2757 1.348 . S
C2754 H2802 0.929 . S
C2755 C2756 1.358 . S
C2755 C2757 1.356 . S
C2755 H2803 0.930 . S
C2756 N2753 1.279 . S
C2756 C2755 1.358 . S
C2756 H2759 0.930 . S
C2757 C2754 1.348 . S
C2757 C2755 1.356 . S
H2758 C2752 0.930 . S
H2759 C2756 0.930 . S
C2760 C2762 1.348 . S
C2760 C2763 1.356 . S
C2760 O2790 1.325 . S
N2761 C2764 1.314 . S
N2761 C2765 1.279 . S
C2762 C2760 1.348 . S
C2762 C2764 1.353 . S
C2762 H2804 0.929 . S
C2763 C2760 1.356 . S
C2763 C2765 1.358 . S
C2763 H2805 0.930 . S
C2764 N2761 1.314 . S
C2764 C2762 1.353 . S
C2764 H2806 0.930 . S
C2765 N2761 1.279 . S
C2765 C2763 1.358 . S
C2765 H2807 0.930 . S
C2766 C2767 1.348 . S
C2766 C2768 1.356 . S
C2766 O2791 1.325 . S
C2767 C2766 1.348 . S
C2767 C2769 1.353 . S
C2767 H2808 0.929 . S
C2768 C2766 1.356 . S
C2768 C2770 1.358 . S
C2768 H2809 0.930 . S
C2769 C2767 1.353 . S
C2769 N2771 1.314 . S
C2769 H2810 0.930 . S
C2770 C2768 1.358 . S
C2770 N2771 1.279 . S
C2770 H2811 0.930 . S
N2771 C2769 1.314 . S
N2771 C2770 1.279 . S
C2772 C2774 1.353 . S
C2772 N2775 1.314 . S
C2772 H2778 0.930 . S
C2773 N2775 1.279 . S
C2773 C2776 1.358 . S
C2773 H2779 0.930 . S
C2774 C2772 1.353 . S
C2774 C2777 1.348 . S
C2774 H2812 0.929 . S
N2775 Li2730 1.990 . S
N2775 C2772 1.314 . S
N2775 C2773 1.279 . S
C2776 C2773 1.358 . S
C2776 C2777 1.356 . S
C2776 H2813 0.930 . S
C2777 C2774 1.348 . S
C2777 C2776 1.356 . S
H2778 C2772 0.930 . S
H2779 C2773 0.930 . S
C2780 N2781 1.314 . S
C2780 C2782 1.353 . S
C2780 H2786 0.930 . S
N2781 Li2731 1.990 . S
N2781 C2780 1.314 . S
N2781 C2784 1.279 . S
C2782 C2780 1.353 . S
C2782 C2785 1.348 . S
C2782 H2814 0.929 . S
C2783 C2784 1.358 . S
C2783 C2785 1.356 . S
C2783 H2815 0.930 . S
C2784 N2781 1.279 . S
C2784 C2783 1.358 . S
C2784 H2787 0.930 . S
C2785 C2782 1.348 . S
C2785 C2783 1.356 . S
H2786 C2780 0.930 . S
H2787 C2784 0.930 . S
O2788 Li2728 1.956 . S
O2788 Li2729 1.970 . S
O2788 Li2730 1.961 . S
O2788 C2732 1.325 . S
O2789 Li2728 1.970 . S
O2789 Li2729 1.956 . S
O2789 Li2731 1.961 . S
O2789 C2738 1.325 . S
O2790 Li2728 1.961 . S
O2790 Li2730 1.956 . S
O2790 Li2731 1.970 . S
O2790 C2760 1.325 . S
O2791 Li2729 1.961 . S
O2791 Li2730 1.970 . S
O2791 Li2731 1.956 . S
O2791 C2766 1.325 . S
H2792 C2734 0.929 . S
H2793 C2735 0.930 . S
H2794 C2736 0.930 . S
H2795 C2737 0.930 . S
H2796 C2739 0.930 . S
H2797 C2741 0.929 . S
H2798 C2742 0.930 . S
H2799 C2743 0.930 . S
H2800 C2746 0.930 . S
H2801 C2749 0.929 . S
H2802 C2754 0.929 . S
H2803 C2755 0.930 . S
H2804 C2762 0.929 . S
H2805 C2763 0.930 . S
H2806 C2764 0.930 . S
H2807 C2765 0.930 . S
H2808 C2767 0.929 . S
H2809 C2768 0.930 . S
H2810 C2769 0.930 . S
H2811 C2770 0.930 . S
H2812 C2774 0.929 . S
H2813 C2776 0.930 . S
H2814 C2782 0.929 . S
H2815 C2783 0.930 . S
C2816 C2817 1.349 . S
C2816 C2818 1.327 . S
C2816 H2841 0.950 . S
C2817 C2816 1.349 . S
C2817 C2833 1.349 . S
C2818 C2816 1.327 . S
C2818 C2837 1.429 . S
C2818 H2842 0.950 . S
C2819 C2836 1.574 1_455 S
C2819 C2838 1.368 1_565 S
C2819 H2843 0.949 . S
H2820 C2824 0.949 . S
C2821 C2822 1.349 . S
C2821 C2823 1.327 . S
C2821 H2844 0.950 . S
C2822 C2821 1.349 . S
C2822 C2834 1.349 . S
C2823 C2821 1.327 . S
C2823 C2839 1.429 . S
C2823 H2845 0.950 . S
C2824 H2820 0.949 . S
C2824 C2832 1.574 1_655 S
C2824 C2840 1.368 1_545 S
H2825 C2833 0.950 . S
H2826 C2831 0.950 . S
H2827 C2832 0.949 . S
H2828 C2834 0.950 . S
H2829 C2835 0.950 . S
H2830 C2836 0.949 . S
C2831 H2826 0.950 . S
C2831 C2833 1.327 . S
C2831 C2837 1.429 . S
C2832 C2824 1.574 1_455 S
C2832 H2827 0.949 . S
C2832 C2838 1.368 1_556 S
C2833 C2817 1.349 . S
C2833 H2825 0.950 . S
C2833 C2831 1.327 . S
C2834 C2822 1.349 . S
C2834 H2828 0.950 . S
C2834 C2835 1.327 . S
C2835 H2829 0.950 . S
C2835 C2834 1.327 . S
C2835 C2839 1.429 . S
C2836 C2819 1.574 1_655 S
C2836 H2830 0.949 . S
C2836 C2840 1.368 1_554 S
C2837 C2818 1.429 . S
C2837 C2831 1.429 . S
C2837 C2838 1.523 . S
C2838 C2819 1.368 1_545 S
C2838 C2832 1.368 1_554 S
C2838 C2837 1.523 . S
C2839 C2823 1.429 . S
C2839 C2835 1.429 . S
C2839 C2840 1.523 . S
C2840 C2824 1.368 1_565 S
C2840 C2836 1.368 1_556 S
C2840 C2839 1.523 . S
H2841 C2816 0.950 . S
H2842 C2818 0.950 . S
H2843 C2819 0.949 . S
H2844 C2821 0.950 . S
H2845 C2823 0.950 . S
C2846 C2847 1.349 . S
C2846 C2848 1.327 . S
C2846 H2871 0.950 . S
C2847 C2846 1.349 . S
C2847 C2863 1.349 . S
C2848 C2846 1.327 . S
C2848 C2867 1.429 . S
C2848 H2872 0.950 . S
C2849 C2866 1.574 . S
C2849 C2868 1.368 . S
C2849 H2873 0.949 . S
H2850 C2854 0.949 . S
C2851 C2852 1.349 . S
C2851 C2853 1.327 . S
C2851 H2874 0.950 . S
C2852 C2851 1.349 . S
C2852 C2864 1.349 . S
C2853 C2851 1.327 . S
C2853 C2869 1.429 . S
C2853 H2875 0.950 . S
C2854 H2850 0.949 . S
C2854 C2862 1.574 . S
C2854 C2870 1.368 . S
H2855 C2863 0.950 . S
H2856 C2861 0.950 . S
H2857 C2862 0.949 . S
H2858 C2864 0.950 . S
H2859 C2865 0.950 . S
H2860 C2866 0.949 . S
C2861 H2856 0.950 . S
C2861 C2863 1.327 . S
C2861 C2867 1.429 . S
C2862 C2854 1.574 . S
C2862 H2857 0.949 . S
C2862 C2868 1.368 . S
C2863 C2847 1.349 . S
C2863 H2855 0.950 . S
C2863 C2861 1.327 . S
C2864 C2852 1.349 . S
C2864 H2858 0.950 . S
C2864 C2865 1.327 . S
C2865 H2859 0.950 . S
C2865 C2864 1.327 . S
C2865 C2869 1.429 . S
C2866 C2849 1.574 . S
C2866 H2860 0.949 . S
C2866 C2870 1.368 . S
C2867 C2848 1.429 . S
C2867 C2861 1.429 . S
C2867 C2868 1.523 . S
C2868 C2849 1.368 . S
C2868 C2862 1.368 . S
C2868 C2867 1.523 . S
C2869 C2853 1.429 . S
C2869 C2865 1.429 . S
C2869 C2870 1.523 . S
C2870 C2854 1.368 . S
C2870 C2866 1.368 . S
C2870 C2869 1.523 . S
H2871 C2846 0.950 . S
H2872 C2848 0.950 . S
H2873 C2849 0.949 . S
H2874 C2851 0.950 . S
H2875 C2853 0.950 . S
C2876 C2877 1.349 . S
C2876 C2878 1.327 . S
C2876 H2901 0.950 . S
C2877 C2876 1.349 . S
C2877 C2893 1.349 . S
C2878 C2876 1.327 . S
C2878 C2897 1.429 . S
C2878 H2902 0.950 . S
C2879 C2896 1.571 1_565 S
C2879 C2898 1.368 . S
C2879 H2903 0.949 . S
H2880 C2884 0.949 . S
C2881 C2882 1.349 . S
C2881 C2883 1.327 . S
C2881 H2904 0.950 . S
C2882 C2881 1.349 . S
C2882 C2894 1.349 . S
C2883 C2881 1.327 . S
C2883 C2899 1.429 . S
C2883 H2905 0.950 . S
C2884 H2880 0.949 . S
C2884 C2892 1.562 1_545 S
C2884 C2900 1.368 . S
H2885 C2893 0.950 . S
H2886 C2891 0.950 . S
H2887 C2892 0.949 . S
H2888 C2894 0.950 . S
H2889 C2895 0.950 . S
H2890 C2896 0.949 . S
C2891 H2886 0.950 . S
C2891 C2893 1.327 . S
C2891 C2897 1.429 . S
C2892 C2884 1.562 1_565 S
C2892 H2887 0.949 . S
C2892 C2898 1.379 . S
C2893 C2877 1.349 . S
C2893 H2885 0.950 . S
C2893 C2891 1.327 . S
C2894 C2882 1.349 . S
C2894 H2888 0.950 . S
C2894 C2895 1.327 . S
C2895 H2889 0.950 . S
C2895 C2894 1.327 . S
C2895 C2899 1.429 . S
C2896 C2879 1.571 1_545 S
C2896 H2890 0.949 . S
C2896 C2900 1.371 . S
C2897 C2878 1.429 . S
C2897 C2891 1.429 . S
C2897 C2898 1.523 . S
C2898 C2879 1.368 . S
C2898 C2892 1.379 . S
C2898 C2897 1.523 . S
C2899 C2883 1.429 . S
C2899 C2895 1.429 . S
C2899 C2900 1.523 . S
C2900 C2884 1.368 . S
C2900 C2896 1.371 . S
C2900 C2899 1.523 . S
H2901 C2876 0.950 . S
H2902 C2878 0.950 . S
H2903 C2879 0.949 . S
H2904 C2881 0.950 . S
H2905 C2883 0.950 . S
C2906 C2907 1.349 . S
C2906 C2908 1.327 . S
C2906 H2931 0.950 . S
C2907 C2906 1.349 . S
C2907 C2923 1.349 . S
C2908 C2906 1.327 . S
C2908 C2927 1.429 . S
C2908 H2932 0.950 . S
C2909 C2926 1.574 . S
C2909 C2928 1.368 . S
C2909 H2933 0.949 . S
H2910 C2914 0.949 . S
C2911 C2912 1.349 . S
C2911 C2913 1.327 . S
C2911 H2934 0.950 . S
C2912 C2911 1.349 . S
C2912 C2924 1.349 . S
C2913 C2911 1.327 . S
C2913 C2929 1.429 . S
C2913 H2935 0.950 . S
C2914 H2910 0.949 . S
C2914 C2922 1.574 . S
C2914 C2930 1.368 . S
H2915 C2923 0.950 . S
H2916 C2921 0.950 . S
H2917 C2922 0.949 . S
H2918 C2924 0.950 . S
H2919 C2925 0.950 . S
H2920 C2926 0.949 . S
C2921 H2916 0.950 . S
C2921 C2923 1.327 . S
C2921 C2927 1.429 . S
C2922 C2914 1.574 . S
C2922 H2917 0.949 . S
C2922 C2928 1.368 . S
C2923 C2907 1.349 . S
C2923 H2915 0.950 . S
C2923 C2921 1.327 . S
C2924 C2912 1.349 . S
C2924 H2918 0.950 . S
C2924 C2925 1.327 . S
C2925 H2919 0.950 . S
C2925 C2924 1.327 . S
C2925 C2929 1.429 . S
C2926 C2909 1.574 . S
C2926 H2920 0.949 . S
C2926 C2930 1.368 . S
C2927 C2908 1.429 . S
C2927 C2921 1.429 . S
C2927 C2928 1.523 . S
C2928 C2909 1.368 . S
C2928 C2922 1.368 . S
C2928 C2927 1.523 . S
C2929 C2913 1.429 . S
C2929 C2925 1.429 . S
C2929 C2930 1.523 . S
C2930 C2914 1.368 . S
C2930 C2926 1.368 . S
C2930 C2929 1.523 . S
H2931 C2906 0.950 . S
H2932 C2908 0.950 . S
H2933 C2909 0.949 . S
H2934 C2911 0.950 . S
H2935 C2913 0.950 . S
C2936 C2937 1.349 . S
C2936 C2938 1.327 . S
C2936 H2961 0.950 . S
C2937 C2936 1.349 . S
C2937 C2953 1.349 . S
C2938 C2936 1.327 . S
C2938 C2957 1.429 . S
C2938 H2962 0.950 . S
C2939 C2956 1.574 . S
C2939 C2958 1.368 1_545 S
C2939 H2963 0.949 . S
H2940 C2944 0.949 . S
C2941 C2942 1.349 . S
C2941 C2943 1.327 . S
C2941 H2964 0.950 . S
C2942 C2941 1.349 . S
C2942 C2954 1.349 . S
C2943 C2941 1.327 . S
C2943 C2959 1.429 . S
C2943 H2965 0.950 . S
C2944 H2940 0.949 . S
C2944 C2952 1.574 . S
C2944 C2960 1.368 1_565 S
H2945 C2953 0.950 . S
H2946 C2951 0.950 . S
H2947 C2952 0.949 . S
H2948 C2954 0.950 . S
H2949 C2955 0.950 . S
H2950 C2956 0.949 . S
C2951 H2946 0.950 . S
C2951 C2953 1.327 . S
C2951 C2957 1.429 . S
C2952 C2944 1.574 . S
C2952 H2947 0.949 . S
C2952 C2958 1.368 1_655 S
C2953 C2937 1.349 . S
C2953 H2945 0.950 . S
C2953 C2951 1.327 . S
C2954 C2942 1.349 . S
C2954 H2948 0.950 . S
C2954 C2955 1.327 . S
C2955 H2949 0.950 . S
C2955 C2954 1.327 . S
C2955 C2959 1.429 . S
C2956 C2939 1.574 . S
C2956 H2950 0.949 . S
C2956 C2960 1.368 1_455 S
C2957 C2938 1.429 . S
C2957 C2951 1.429 . S
C2957 C2958 1.523 . S
C2958 C2939 1.368 1_565 S
C2958 C2952 1.368 1_455 S
C2958 C2957 1.523 . S
C2959 C2943 1.429 . S
C2959 C2955 1.429 . S
C2959 C2960 1.523 . S
C2960 C2944 1.368 1_545 S
C2960 C2956 1.368 1_655 S
C2960 C2959 1.523 . S
H2961 C2936 0.950 . S
H2962 C2938 0.950 . S
H2963 C2939 0.949 . S
H2964 C2941 0.950 . S
H2965 C2943 0.950 . S
C2966 C2967 1.349 . S
C2966 C2968 1.327 . S
C2966 H2991 0.950 . S
C2967 C2966 1.349 . S
C2967 C2983 1.349 . S
C2968 C2966 1.327 . S
C2968 C2987 1.429 . S
C2968 H2992 0.950 . S
C2969 C2986 1.574 . S
C2969 C2988 1.368 . S
C2969 H2993 0.949 . S
H2970 C2974 0.949 . S
C2971 C2972 1.349 . S
C2971 C2973 1.327 . S
C2971 H2994 0.950 . S
C2972 C2971 1.349 . S
C2972 C2984 1.349 . S
C2973 C2971 1.327 . S
C2973 C2989 1.429 . S
C2973 H2995 0.950 . S
C2974 H2970 0.949 . S
C2974 C2982 1.574 . S
C2974 C2990 1.368 . S
H2975 C2983 0.950 . S
H2976 C2981 0.950 . S
H2977 C2982 0.949 . S
H2978 C2984 0.950 . S
H2979 C2985 0.950 . S
H2980 C2986 0.949 . S
C2981 H2976 0.950 . S
C2981 C2983 1.327 . S
C2981 C2987 1.429 . S
C2982 C2974 1.574 . S
C2982 H2977 0.949 . S
C2982 C2988 1.368 . S
C2983 C2967 1.349 . S
C2983 H2975 0.950 . S
C2983 C2981 1.327 . S
C2984 C2972 1.349 . S
C2984 H2978 0.950 . S
C2984 C2985 1.327 . S
C2985 H2979 0.950 . S
C2985 C2984 1.327 . S
C2985 C2989 1.429 . S
C2986 C2969 1.574 . S
C2986 H2980 0.949 . S
C2986 C2990 1.368 . S
C2987 C2968 1.429 . S
C2987 C2981 1.429 . S
C2987 C2988 1.523 . S
C2988 C2969 1.368 . S
C2988 C2982 1.368 . S
C2988 C2987 1.523 . S
C2989 C2973 1.429 . S
C2989 C2985 1.429 . S
C2989 C2990 1.523 . S
C2990 C2974 1.368 . S
C2990 C2986 1.368 . S
C2990 C2989 1.523 . S
H2991 C2966 0.950 . S
H2992 C2968 0.950 . S
H2993 C2969 0.949 . S
H2994 C2971 0.950 . S
H2995 C2973 0.950 . S
C2996 C2997 1.349 . S
C2996 C2998 1.327 . S
C2996 H3021 0.950 . S
C2997 C2996 1.349 . S
C2997 C3013 1.349 . S
C2998 C2996 1.327 . S
C2998 C3017 1.429 . S
C2998 H3022 0.950 . S
C2999 C3016 1.573 . S
C2999 C3018 1.368 1_554 S
C2999 H3023 0.949 . S
H3000 C3004 0.949 . S
C3001 C3002 1.349 . S
C3001 C3003 1.327 . S
C3001 H3024 0.950 . S
C3002 C3001 1.349 . S
C3002 C3014 1.349 . S
C3003 C3001 1.327 . S
C3003 C3019 1.429 . S
C3003 H3025 0.950 . S
C3004 H3000 0.949 . S
C3004 C3012 1.573 1_565 S
C3004 C3020 1.368 1_556 S
H3005 C3013 0.950 . S
H3006 C3011 0.950 . S
H3007 C3012 0.949 . S
H3008 C3014 0.950 . S
H3009 C3015 0.950 . S
H3010 C3016 0.949 1_565 S
C3011 H3006 0.950 . S
C3011 C3013 1.327 . S
C3011 C3017 1.429 . S
C3012 C3004 1.573 1_545 S
C3012 H3007 0.949 . S
C3012 C3018 1.369 . S
C3013 C2997 1.349 . S
C3013 H3005 0.950 . S
C3013 C3011 1.327 . S
C3014 C3002 1.349 . S
C3014 H3008 0.950 . S
C3014 C3015 1.327 . S
C3015 H3009 0.950 . S
C3015 C3014 1.327 . S
C3015 C3019 1.429 . S
C3016 C2999 1.573 . S
C3016 H3010 0.949 1_545 S
C3016 C3020 1.369 1_545 S
C3017 C2998 1.429 . S
C3017 C3011 1.429 . S
C3017 C3018 1.523 . S
C3018 C2999 1.368 1_556 S
C3018 C3012 1.369 . S
C3018 C3017 1.523 . S
C3019 C3003 1.429 . S
C3019 C3015 1.429 . S
C3019 C3020 1.523 . S
C3020 C3004 1.368 1_554 S
C3020 C3016 1.369 1_565 S
C3020 C3019 1.523 . S
H3021 C2996 0.950 . S
H3022 C2998 0.950 . S
H3023 C2999 0.949 . S
H3024 C3001 0.950 . S
H3025 C3003 0.950 . S
C3026 C3027 1.349 . S
C3026 C3028 1.327 . S
C3026 H3051 0.950 . S
C3027 C3026 1.349 . S
C3027 C3043 1.349 . S
C3028 C3026 1.327 . S
C3028 C3047 1.429 . S
C3028 H3052 0.950 . S
C3029 C3046 1.574 . S
C3029 C3048 1.368 . S
C3029 H3053 0.949 . S
H3030 C3034 0.949 . S
C3031 C3032 1.349 . S
C3031 C3033 1.327 . S
C3031 H3054 0.950 . S
C3032 C3031 1.349 . S
C3032 C3044 1.349 . S
C3033 C3031 1.327 . S
C3033 C3049 1.429 . S
C3033 H3055 0.950 . S
C3034 H3030 0.949 . S
C3034 C3042 1.574 . S
C3034 C3050 1.368 . S
H3035 C3043 0.950 . S
H3036 C3041 0.950 . S
H3037 C3042 0.949 . S
H3038 C3044 0.950 . S
H3039 C3045 0.950 . S
H3040 C3046 0.949 . S
C3041 H3036 0.950 . S
C3041 C3043 1.327 . S
C3041 C3047 1.429 . S
C3042 C3034 1.574 . S
C3042 H3037 0.949 . S
C3042 C3048 1.368 . S
C3043 C3027 1.349 . S
C3043 H3035 0.950 . S
C3043 C3041 1.327 . S
C3044 C3032 1.349 . S
C3044 H3038 0.950 . S
C3044 C3045 1.327 . S
C3045 H3039 0.950 . S
C3045 C3044 1.327 . S
C3045 C3049 1.429 . S
C3046 C3029 1.574 . S
C3046 H3040 0.949 . S
C3046 C3050 1.368 . S
C3047 C3028 1.429 . S
C3047 C3041 1.429 . S
C3047 C3048 1.523 . S
C3048 C3029 1.368 . S
C3048 C3042 1.368 . S
C3048 C3047 1.523 . S
C3049 C3033 1.429 . S
C3049 C3045 1.429 . S
C3049 C3050 1.523 . S
C3050 C3034 1.368 . S
C3050 C3046 1.368 . S
C3050 C3049 1.523 . S
H3051 C3026 0.950 . S
H3052 C3028 0.950 . S
H3053 C3029 0.949 . S
H3054 C3031 0.950 . S
H3055 C3033 0.950 . S
C3056 C3057 1.349 . S
C3056 C3058 1.327 . S
C3056 H3081 0.950 . S
C3057 C3056 1.349 . S
C3057 C3073 1.349 . S
C3058 C3056 1.327 . S
C3058 C3077 1.429 . S
C3058 H3082 0.950 . S
C3059 C3076 1.574 . S
C3059 C3078 1.368 1_556 S
C3059 H3083 0.949 . S
H3060 C3064 0.949 . S
C3061 C3062 1.349 . S
C3061 C3063 1.327 . S
C3061 H3084 0.950 . S
C3062 C3061 1.349 . S
C3062 C3074 1.349 . S
C3063 C3061 1.327 . S
C3063 C3079 1.429 . S
C3063 H3085 0.950 . S
C3064 H3060 0.949 . S
C3064 C3072 1.574 . S
C3064 C3080 1.368 1_554 S
H3065 C3073 0.950 . S
H3066 C3071 0.950 . S
H3067 C3072 0.949 . S
H3068 C3074 0.950 . S
H3069 C3075 0.950 . S
H3070 C3076 0.949 . S
C3071 H3066 0.950 . S
C3071 C3073 1.327 . S
C3071 C3077 1.429 . S
C3072 C3064 1.574 . S
C3072 H3067 0.949 . S
C3072 C3078 1.368 . S
C3073 C3057 1.349 . S
C3073 H3065 0.950 . S
C3073 C3071 1.327 . S
C3074 C3062 1.349 . S
C3074 H3068 0.950 . S
C3074 C3075 1.327 . S
C3075 H3069 0.950 . S
C3075 C3074 1.327 . S
C3075 C3079 1.429 . S
C3076 C3059 1.574 . S
C3076 H3070 0.949 . S
C3076 C3080 1.368 . S
C3077 C3058 1.429 . S
C3077 C3071 1.429 . S
C3077 C3078 1.523 . S
C3078 C3059 1.368 1_554 S
C3078 C3072 1.368 . S
C3078 C3077 1.523 . S
C3079 C3063 1.429 . S
C3079 C3075 1.429 . S
C3079 C3080 1.523 . S
C3080 C3064 1.368 1_556 S
C3080 C3076 1.368 . S
C3080 C3079 1.523 . S
H3081 C3056 0.950 . S
H3082 C3058 0.950 . S
H3083 C3059 0.949 . S
H3084 C3061 0.950 . S
H3085 C3063 0.950 . S
C3086 C3087 1.349 . S
C3086 C3088 1.327 . S
C3086 H3111 0.950 . S
C3087 C3086 1.349 . S
C3087 C3103 1.349 . S
C3088 C3086 1.327 . S
C3088 C3107 1.429 . S
C3088 H3112 0.950 . S
C3089 C3106 1.574 . S
C3089 C3108 1.368 . S
C3089 H3113 0.949 . S
H3090 C3094 0.949 . S
C3091 C3092 1.349 . S
C3091 C3093 1.327 . S
C3091 H3114 0.950 . S
C3092 C3091 1.349 . S
C3092 C3104 1.349 . S
C3093 C3091 1.327 . S
C3093 C3109 1.429 . S
C3093 H3115 0.950 . S
C3094 H3090 0.949 . S
C3094 C3102 1.574 . S
C3094 C3110 1.368 . S
H3095 C3103 0.950 . S
H3096 C3101 0.950 . S
H3097 C3102 0.949 . S
H3098 C3104 0.950 . S
H3099 C3105 0.950 . S
H3100 C3106 0.949 . S
C3101 H3096 0.950 . S
C3101 C3103 1.327 . S
C3101 C3107 1.429 . S
C3102 C3094 1.574 . S
C3102 H3097 0.949 . S
C3102 C3108 1.368 . S
C3103 C3087 1.349 . S
C3103 H3095 0.950 . S
C3103 C3101 1.327 . S
C3104 C3092 1.349 . S
C3104 H3098 0.950 . S
C3104 C3105 1.327 . S
C3105 H3099 0.950 . S
C3105 C3104 1.327 . S
C3105 C3109 1.429 . S
C3106 C3089 1.574 . S
C3106 H3100 0.949 . S
C3106 C3110 1.368 . S
C3107 C3088 1.429 . S
C3107 C3101 1.429 . S
C3107 C3108 1.523 . S
C3108 C3089 1.368 . S
C3108 C3102 1.368 . S
C3108 C3107 1.523 . S
C3109 C3093 1.429 . S
C3109 C3105 1.429 . S
C3109 C3110 1.523 . S
C3110 C3094 1.368 . S
C3110 C3106 1.368 . S
C3110 C3109 1.523 . S
H3111 C3086 0.950 . S
H3112 C3088 0.950 . S
H3113 C3089 0.949 . S
H3114 C3091 0.950 . S
H3115 C3093 0.950 . S
C3116 C3117 1.349 . S
C3116 C3118 1.327 . S
C3116 H3141 0.950 . S
C3117 C3116 1.349 . S
C3117 C3133 1.349 . S
C3118 C3116 1.327 . S
C3118 C3137 1.429 . S
C3118 H3142 0.950 . S
C3119 C3136 1.556 1_455 S
C3119 C3138 1.368 . S
C3119 H3143 0.949 . S
H3120 C3124 0.949 . S
C3121 C3122 1.349 . S
C3121 C3123 1.327 . S
C3121 H3144 0.950 . S
C3122 C3121 1.349 . S
C3122 C3134 1.349 . S
C3123 C3121 1.327 . S
C3123 C3139 1.429 . S
C3123 H3145 0.950 . S
C3124 H3120 0.949 . S
C3124 C3132 1.571 1_655 S
C3124 C3140 1.368 . S
H3125 C3133 0.950 . S
H3126 C3131 0.950 . S
H3127 C3132 0.949 . S
H3128 C3134 0.950 . S
H3129 C3135 0.950 . S
H3130 C3136 0.949 . S
C3131 H3126 0.950 . S
C3131 C3133 1.327 . S
C3131 C3137 1.429 . S
C3132 C3124 1.571 1_455 S
C3132 H3127 0.949 . S
C3132 C3138 1.370 . S
C3133 C3117 1.349 . S
C3133 H3125 0.950 . S
C3133 C3131 1.327 . S
C3134 C3122 1.349 . S
C3134 H3128 0.950 . S
C3134 C3135 1.327 . S
C3135 H3129 0.950 . S
C3135 C3134 1.327 . S
C3135 C3139 1.429 . S
C3136 C3119 1.556 1_655 S
C3136 H3130 0.949 . S
C3136 C3140 1.385 . S
C3137 C3118 1.429 . S
C3137 C3131 1.429 . S
C3137 C3138 1.523 . S
C3138 C3119 1.368 . S
C3138 C3132 1.370 . S
C3138 C3137 1.523 . S
C3139 C3123 1.429 . S
C3139 C3135 1.429 . S
C3139 C3140 1.523 . S
C3140 C3124 1.368 . S
C3140 C3136 1.385 . S
C3140 C3139 1.523 . S
H3141 C3116 0.950 . S
H3142 C3118 0.950 . S
H3143 C3119 0.949 . S
H3144 C3121 0.950 . S
H3145 C3123 0.950 . S
C3146 C3147 1.349 . S
C3146 C3148 1.327 . S
C3146 H3171 0.950 . S
C3147 C3146 1.349 . S
C3147 C3163 1.349 . S
C3148 C3146 1.327 . S
C3148 C3167 1.429 . S
C3148 H3172 0.950 . S
C3149 C3166 1.574 . S
C3149 C3168 1.368 . S
C3149 H3173 0.949 . S
H3150 C3154 0.949 . S
C3151 C3152 1.349 . S
C3151 C3153 1.327 . S
C3151 H3174 0.950 . S
C3152 C3151 1.349 . S
C3152 C3164 1.349 . S
C3153 C3151 1.327 . S
C3153 C3169 1.429 . S
C3153 H3175 0.950 . S
C3154 H3150 0.949 . S
C3154 C3162 1.574 . S
C3154 C3170 1.368 . S
H3155 C3163 0.950 . S
H3156 C3161 0.950 . S
H3157 C3162 0.949 . S
H3158 C3164 0.950 . S
H3159 C3165 0.950 . S
H3160 C3166 0.949 . S
C3161 H3156 0.950 . S
C3161 C3163 1.327 . S
C3161 C3167 1.429 . S
C3162 C3154 1.574 . S
C3162 H3157 0.949 . S
C3162 C3168 1.368 . S
C3163 C3147 1.349 . S
C3163 H3155 0.950 . S
C3163 C3161 1.327 . S
C3164 C3152 1.349 . S
C3164 H3158 0.950 . S
C3164 C3165 1.327 . S
C3165 H3159 0.950 . S
C3165 C3164 1.327 . S
C3165 C3169 1.429 . S
C3166 C3149 1.574 . S
C3166 H3160 0.949 . S
C3166 C3170 1.368 . S
C3167 C3148 1.429 . S
C3167 C3161 1.429 . S
C3167 C3168 1.523 . S
C3168 C3149 1.368 . S
C3168 C3162 1.368 . S
C3168 C3167 1.523 . S
C3169 C3153 1.429 . S
C3169 C3165 1.429 . S
C3169 C3170 1.523 . S
C3170 C3154 1.368 . S
C3170 C3166 1.368 . S
C3170 C3169 1.523 . S
H3171 C3146 0.950 . S
H3172 C3148 0.950 . S
H3173 C3149 0.949 . S
H3174 C3151 0.950 . S
H3175 C3153 0.950 . S
C3176 C3177 1.349 . S
C3176 C3178 1.327 . S
C3176 H3201 0.950 . S
C3177 C3176 1.349 . S
C3177 C3193 1.349 . S
C3178 C3176 1.327 . S
C3178 C3197 1.429 . S
C3178 H3202 0.950 . S
C3179 C3196 1.574 . S
C3179 C3198 1.368 . S
C3179 H3203 0.949 . S
H3180 C3184 0.949 . S
C3181 C3182 1.349 . S
C3181 C3183 1.327 . S
C3181 H3204 0.950 . S
C3182 C3181 1.349 . S
C3182 C3194 1.349 . S
C3183 C3181 1.327 . S
C3183 C3199 1.429 . S
C3183 H3205 0.950 . S
C3184 H3180 0.949 . S
C3184 C3192 1.574 . S
C3184 C3200 1.368 . S
H3185 C3193 0.950 . S
H3186 C3191 0.950 . S
H3187 C3192 0.949 . S
H3188 C3194 0.950 . S
H3189 C3195 0.950 . S
H3190 C3196 0.949 . S
C3191 H3186 0.950 . S
C3191 C3193 1.327 . S
C3191 C3197 1.429 . S
C3192 C3184 1.574 . S
C3192 H3187 0.949 . S
C3192 C3198 1.368 . S
C3193 C3177 1.349 . S
C3193 H3185 0.950 . S
C3193 C3191 1.327 . S
C3194 C3182 1.349 . S
C3194 H3188 0.950 . S
C3194 C3195 1.327 . S
C3195 H3189 0.950 . S
C3195 C3194 1.327 . S
C3195 C3199 1.429 . S
C3196 C3179 1.574 . S
C3196 H3190 0.949 . S
C3196 C3200 1.368 . S
C3197 C3178 1.429 . S
C3197 C3191 1.429 . S
C3197 C3198 1.523 . S
C3198 C3179 1.368 . S
C3198 C3192 1.368 . S
C3198 C3197 1.523 . S
C3199 C3183 1.429 . S
C3199 C3195 1.429 . S
C3199 C3200 1.523 . S
C3200 C3184 1.368 . S
C3200 C3196 1.368 . S
C3200 C3199 1.523 . S
H3201 C3176 0.950 . S
H3202 C3178 0.950 . S
H3203 C3179 0.949 . S
H3204 C3181 0.950 . S
H3205 C3183 0.950 . S
C3206 C3207 1.349 . S
C3206 C3208 1.327 . S
C3206 H3231 0.950 . S
C3207 C3206 1.349 . S
C3207 C3223 1.349 . S
C3208 C3206 1.327 . S
C3208 C3227 1.429 . S
C3208 H3232 0.950 . S
C3209 C3226 1.574 . S
C3209 C3228 1.368 . S
C3209 H3233 0.949 . S
H3210 C3214 0.949 . S
C3211 C3212 1.349 . S
C3211 C3213 1.327 . S
C3211 H3234 0.950 . S
C3212 C3211 1.349 . S
C3212 C3224 1.349 . S
C3213 C3211 1.327 . S
C3213 C3229 1.429 . S
C3213 H3235 0.950 . S
C3214 H3210 0.949 . S
C3214 C3222 1.574 . S
C3214 C3230 1.368 . S
H3215 C3223 0.950 . S
H3216 C3221 0.950 . S
H3217 C3222 0.949 . S
H3218 C3224 0.950 . S
H3219 C3225 0.950 . S
H3220 C3226 0.949 . S
C3221 H3216 0.950 . S
C3221 C3223 1.327 . S
C3221 C3227 1.429 . S
C3222 C3214 1.574 . S
C3222 H3217 0.949 . S
C3222 C3228 1.368 . S
C3223 C3207 1.349 . S
C3223 H3215 0.950 . S
C3223 C3221 1.327 . S
C3224 C3212 1.349 . S
C3224 H3218 0.950 . S
C3224 C3225 1.327 . S
C3225 H3219 0.950 . S
C3225 C3224 1.327 . S
C3225 C3229 1.429 . S
C3226 C3209 1.574 . S
C3226 H3220 0.949 . S
C3226 C3230 1.368 . S
C3227 C3208 1.429 . S
C3227 C3221 1.429 . S
C3227 C3228 1.523 . S
C3228 C3209 1.368 . S
C3228 C3222 1.368 . S
C3228 C3227 1.523 . S
C3229 C3213 1.429 . S
C3229 C3225 1.429 . S
C3229 C3230 1.523 . S
C3230 C3214 1.368 . S
C3230 C3226 1.368 . S
C3230 C3229 1.523 . S
H3231 C3206 0.950 . S
H3232 C3208 0.950 . S
H3233 C3209 0.949 . S
H3234 C3211 0.950 . S
H3235 C3213 0.950 . S
C3236 C3237 1.349 . S
C3236 C3238 1.327 . S
C3236 H3261 0.950 . S
C3237 C3236 1.349 . S
C3237 C3253 1.349 . S
C3238 C3236 1.327 . S
C3238 C3257 1.429 . S
C3238 H3262 0.950 . S
C3239 C3256 1.574 . S
C3239 C3258 1.368 . S
C3239 H3263 0.949 . S
H3240 C3244 0.949 . S
C3241 C3242 1.349 . S
C3241 C3243 1.327 . S
C3241 H3264 0.950 . S
C3242 C3241 1.349 . S
C3242 C3254 1.349 . S
C3243 C3241 1.327 . S
C3243 C3259 1.429 . S
C3243 H3265 0.950 . S
C3244 H3240 0.949 . S
C3244 C3252 1.574 . S
C3244 C3260 1.368 . S
H3245 C3253 0.950 . S
H3246 C3251 0.950 . S
H3247 C3252 0.949 . S
H3248 C3254 0.950 . S
H3249 C3255 0.950 . S
H3250 C3256 0.949 . S
C3251 H3246 0.950 . S
C3251 C3253 1.327 . S
C3251 C3257 1.429 . S
C3252 C3244 1.574 . S
C3252 H3247 0.949 . S
C3252 C3258 1.368 . S
C3253 C3237 1.349 . S
C3253 H3245 0.950 . S
C3253 C3251 1.327 . S
C3254 C3242 1.349 . S
C3254 H3248 0.950 . S
C3254 C3255 1.327 . S
C3255 H3249 0.950 . S
C3255 C3254 1.327 . S
C3255 C3259 1.429 . S
C3256 C3239 1.574 . S
C3256 H3250 0.949 . S
C3256 C3260 1.368 . S
C3257 C3238 1.429 . S
C3257 C3251 1.429 . S
C3257 C3258 1.523 . S
C3258 C3239 1.368 . S
C3258 C3252 1.368 . S
C3258 C3257 1.523 . S
C3259 C3243 1.429 . S
C3259 C3255 1.429 . S
C3259 C3260 1.523 . S
C3260 C3244 1.368 . S
C3260 C3256 1.368 . S
C3260 C3259 1.523 . S
H3261 C3236 0.950 . S
H3262 C3238 0.950 . S
H3263 C3239 0.949 . S
H3264 C3241 0.950 . S
H3265 C3243 0.950 . S
C3266 C3267 1.349 . S
C3266 C3268 1.327 . S
C3266 H3291 0.950 . S
C3267 C3266 1.349 . S
C3267 C3283 1.349 . S
C3268 C3266 1.327 . S
C3268 C3287 1.429 . S
C3268 H3292 0.950 . S
C3269 C3286 1.574 . S
C3269 C3288 1.368 1_655 S
C3269 H3293 0.949 . S
H3270 C3274 0.949 . S
C3271 C3272 1.349 . S
C3271 C3273 1.327 . S
C3271 H3294 0.950 . S
C3272 C3271 1.349 . S
C3272 C3284 1.349 . S
C3273 C3271 1.327 . S
C3273 C3289 1.429 . S
C3273 H3295 0.950 . S
C3274 H3270 0.949 . S
C3274 C3282 1.594 . S
C3274 C3290 1.368 1_455 S
H3275 C3283 0.950 . S
H3276 C3281 0.950 . S
H3277 C3282 0.949 . S
H3278 C3284 0.950 . S
H3279 C3285 0.950 . S
H3280 C3286 0.949 . S
C3281 H3276 0.950 . S
C3281 C3283 1.327 . S
C3281 C3287 1.429 . S
C3282 C3274 1.594 . S
C3282 H3277 0.949 . S
C3282 C3288 1.348 1_554 S
C3283 C3267 1.349 . S
C3283 H3275 0.950 . S
C3283 C3281 1.327 . S
C3284 C3272 1.349 . S
C3284 H3278 0.950 . S
C3284 C3285 1.327 . S
C3285 H3279 0.950 . S
C3285 C3284 1.327 . S
C3285 C3289 1.429 . S
C3286 C3269 1.574 . S
C3286 H3280 0.949 . S
C3286 C3290 1.368 1_556 S
C3287 C3268 1.429 . S
C3287 C3281 1.429 . S
C3287 C3288 1.523 . S
C3288 C3269 1.368 1_455 S
C3288 C3282 1.348 1_556 S
C3288 C3287 1.523 . S
C3289 C3273 1.429 . S
C3289 C3285 1.429 . S
C3289 C3290 1.523 . S
C3290 C3274 1.368 1_655 S
C3290 C3286 1.368 1_554 S
C3290 C3289 1.523 . S
H3291 C3266 0.950 . S
H3292 C3268 0.950 . S
H3293 C3269 0.949 . S
H3294 C3271 0.950 . S
H3295 C3273 0.950 . S
C3296 C3297 1.349 . S
C3296 C3298 1.327 . S
C3296 H3321 0.950 . S
C3297 C3296 1.349 . S
C3297 C3313 1.349 . S
C3298 C3296 1.327 . S
C3298 C3317 1.429 . S
C3298 H3322 0.950 . S
C3299 C3316 1.574 . S
C3299 C3318 1.327 1_565 S
C3299 H3323 0.949 . S
H3300 C3304 0.949 . S
C3301 C3302 1.349 . S
C3301 C3303 1.327 . S
C3301 H3324 0.950 . S
C3302 C3301 1.349 . S
C3302 C3314 1.349 . S
C3303 C3301 1.327 . S
C3303 C3319 1.429 . S
C3303 H3325 0.950 . S
C3304 H3300 0.949 . S
C3304 C3312 1.574 1_565 S
C3304 C3320 1.368 . S
H3305 C3313 0.950 . S
H3306 C3311 0.950 . S
H3307 C3312 0.949 . S
H3308 C3314 0.950 . S
H3309 C3315 0.950 . S
H3310 C3316 0.949 . S
C3311 H3306 0.950 . S
C3311 C3313 1.327 . S
C3311 C3317 1.429 . S
C3312 C3304 1.574 1_545 S
C3312 H3307 0.949 . S
C3312 C3318 1.381 . S
C3313 C3297 1.349 . S
C3313 H3305 0.950 . S
C3313 C3311 1.327 . S
C3314 C3302 1.349 . S
C3314 H3308 0.950 . S
C3314 C3315 1.327 . S
C3315 H3309 0.950 . S
C3315 C3314 1.327 . S
C3315 C3319 1.429 . S
C3316 C3299 1.574 . S
C3316 H3310 0.949 . S
C3316 C3320 1.368 . S
C3317 C3298 1.429 . S
C3317 C3311 1.429 . S
C3317 C3318 1.563 . S
C3318 C3299 1.327 1_545 S
C3318 C3312 1.381 . S
C3318 C3317 1.563 . S
C3319 C3303 1.429 . S
C3319 C3315 1.429 . S
C3319 C3320 1.523 . S
C3320 C3304 1.368 . S
C3320 C3316 1.368 . S
C3320 C3319 1.523 . S
H3321 C3296 0.950 . S
H3322 C3298 0.950 . S
H3323 C3299 0.949 . S
H3324 C3301 0.950 . S
H3325 C3303 0.950 . S
C3326 C3327 1.349 . S
C3326 C3328 1.327 . S
C3326 H3351 0.950 . S
C3327 C3326 1.349 . S
C3327 C3343 1.349 . S
C3328 C3326 1.327 . S
C3328 C3347 1.429 . S
C3328 H3352 0.950 . S
C3329 C3346 1.574 . S
C3329 C3348 1.368 . S
C3329 H3353 0.949 . S
H3330 C3334 0.949 . S
C3331 C3332 1.349 . S
C3331 C3333 1.327 . S
C3331 H3354 0.950 . S
C3332 C3331 1.349 . S
C3332 C3344 1.349 . S
C3333 C3331 1.327 . S
C3333 C3349 1.429 . S
C3333 H3355 0.950 . S
C3334 H3330 0.949 . S
C3334 C3342 1.574 . S
C3334 C3350 1.368 . S
H3335 C3343 0.950 . S
H3336 C3341 0.950 . S
H3337 C3342 0.949 . S
H3338 C3344 0.950 . S
H3339 C3345 0.950 . S
H3340 C3346 0.949 . S
C3341 H3336 0.950 . S
C3341 C3343 1.327 . S
C3341 C3347 1.429 . S
C3342 C3334 1.574 . S
C3342 H3337 0.949 . S
C3342 C3348 1.368 . S
C3343 C3327 1.349 . S
C3343 H3335 0.950 . S
C3343 C3341 1.327 . S
C3344 C3332 1.349 . S
C3344 H3338 0.950 . S
C3344 C3345 1.327 . S
C3345 H3339 0.950 . S
C3345 C3344 1.327 . S
C3345 C3349 1.429 . S
C3346 C3329 1.574 . S
C3346 H3340 0.949 . S
C3346 C3350 1.368 . S
C3347 C3328 1.429 . S
C3347 C3341 1.429 . S
C3347 C3348 1.523 . S
C3348 C3329 1.368 . S
C3348 C3342 1.368 . S
C3348 C3347 1.523 . S
C3349 C3333 1.429 . S
C3349 C3345 1.429 . S
C3349 C3350 1.523 . S
C3350 C3334 1.368 . S
C3350 C3346 1.368 . S
C3350 C3349 1.523 . S
H3351 C3326 0.950 . S
H3352 C3328 0.950 . S
H3353 C3329 0.949 . S
H3354 C3331 0.950 . S
H3355 C3333 0.950 . S
C3356 C3357 1.349 . S
C3356 C3358 1.327 . S
C3356 H3381 0.950 . S
C3357 C3356 1.349 . S
C3357 C3373 1.349 . S
C3358 C3356 1.327 . S
C3358 C3377 1.429 . S
C3358 H3382 0.950 . S
C3359 C3376 1.574 . S
C3359 C3378 1.368 . S
C3359 H3383 0.949 . S
H3360 C3364 0.949 . S
C3361 C3362 1.349 . S
C3361 C3363 1.327 . S
C3361 H3384 0.950 . S
C3362 C3361 1.349 . S
C3362 C3374 1.349 . S
C3363 C3361 1.327 . S
C3363 C3379 1.429 . S
C3363 H3385 0.980 . S
C3364 H3360 0.949 . S
C3364 C3372 1.574 1_565 S
C3364 C3380 1.388 . S
H3365 C3373 0.950 . S
H3366 C3371 0.950 . S
H3367 C3372 0.949 . S
H3368 C3374 0.950 . S
H3369 C3375 0.950 . S
H3370 C3376 0.949 . S
C3371 H3366 0.950 . S
C3371 C3373 1.327 . S
C3371 C3377 1.429 . S
C3372 C3364 1.574 1_545 S
C3372 H3367 0.949 . S
C3372 C3378 1.368 . S
C3373 C3357 1.349 . S
C3373 H3365 0.950 . S
C3373 C3371 1.327 . S
C3374 C3362 1.349 . S
C3374 H3368 0.950 . S
C3374 C3375 1.327 . S
C3375 H3369 0.950 . S
C3375 C3374 1.327 . S
C3375 C3379 1.429 . S
C3376 C3359 1.574 . S
C3376 H3370 0.949 . S
C3376 C3380 1.319 1_545 S
C3377 C3358 1.429 . S
C3377 C3371 1.429 . S
C3377 C3378 1.523 . S
C3378 C3359 1.368 . S
C3378 C3372 1.368 . S
C3378 C3377 1.523 . S
C3379 C3363 1.429 . S
C3379 C3375 1.429 . S
C3379 C3380 1.563 . S
C3380 C3364 1.388 . S
C3380 C3376 1.319 1_565 S
C3380 C3379 1.563 . S
H3381 C3356 0.950 . S
H3382 C3358 0.950 . S
H3383 C3359 0.949 . S
H3384 C3361 0.950 . S
H3385 C3363 0.980 . S
C3386 C3387 1.349 . S
C3386 C3388 1.327 . S
C3386 H3411 0.950 . S
C3387 C3386 1.349 . S
C3387 C3403 1.349 . S
C3388 C3386 1.327 . S
C3388 C3407 1.429 . S
C3388 H3412 0.950 . S
C3389 C3406 1.574 . S
C3389 C3408 1.368 . S
C3389 H3413 0.949 . S
H3390 C3394 0.949 . S
C3391 C3392 1.349 . S
C3391 C3393 1.327 . S
C3391 H3414 0.950 . S
C3392 C3391 1.349 . S
C3392 C3404 1.349 . S
C3393 C3391 1.327 . S
C3393 C3409 1.429 . S
C3393 H3415 0.950 . S
C3394 H3390 0.949 . S
C3394 C3402 1.574 1_554 S
C3394 C3410 1.372 . S
H3395 C3403 0.950 . S
H3396 C3401 0.950 . S
H3397 C3402 0.949 . S
H3398 C3404 0.950 . S
H3399 C3405 0.950 . S
H3400 C3406 0.949 . S
C3401 H3396 0.950 . S
C3401 C3403 1.327 . S
C3401 C3407 1.429 . S
C3402 C3394 1.574 1_556 S
C3402 H3397 0.949 . S
C3402 C3408 1.368 . S
C3403 C3387 1.349 . S
C3403 H3395 0.950 . S
C3403 C3401 1.327 . S
C3404 C3392 1.349 . S
C3404 H3398 0.950 . S
C3404 C3405 1.327 . S
C3405 H3399 0.950 . S
C3405 C3404 1.327 . S
C3405 C3409 1.429 . S
C3406 C3389 1.574 . S
C3406 H3400 0.949 . S
C3406 C3410 1.351 1_556 S
C3407 C3388 1.429 . S
C3407 C3401 1.429 . S
C3407 C3408 1.523 . S
C3408 C3389 1.368 . S
C3408 C3402 1.368 . S
C3408 C3407 1.523 . S
C3409 C3393 1.429 . S
C3409 C3405 1.429 . S
C3409 C3410 1.541 . S
C3410 C3394 1.372 . S
C3410 C3406 1.351 1_554 S
C3410 C3409 1.541 . S
H3411 C3386 0.950 . S
H3412 C3388 0.950 . S
H3413 C3389 0.949 . S
H3414 C3391 0.950 . S
H3415 C3393 0.950 . S
C3416 C3417 1.349 . S
C3416 C3418 1.327 . S
C3416 H3441 0.950 . S
C3417 C3416 1.349 . S
C3417 C3433 1.349 . S
C3418 C3416 1.327 . S
C3418 C3437 1.429 . S
C3418 H3442 0.950 . S
C3419 C3436 1.574 . S
C3419 C3438 1.368 . S
C3419 H3443 0.949 . S
H3420 C3424 0.949 . S
C3421 C3422 1.349 . S
C3421 C3423 1.327 . S
C3421 H3444 0.950 . S
C3422 C3421 1.349 . S
C3422 C3434 1.349 . S
C3423 C3421 1.327 . S
C3423 C3439 1.429 . S
C3423 H3445 0.950 . S
C3424 H3420 0.949 . S
C3424 C3432 1.574 1_565 S
C3424 C3440 1.382 . S
H3425 C3433 0.950 . S
H3426 C3431 0.950 . S
H3427 C3432 0.949 . S
H3428 C3434 0.950 . S
H3429 C3435 0.950 . S
H3430 C3436 0.949 . S
C3431 H3426 0.950 . S
C3431 C3433 1.327 . S
C3431 C3437 1.429 . S
C3432 C3424 1.574 1_545 S
C3432 H3427 0.949 . S
C3432 C3438 1.368 . S
C3433 C3417 1.349 . S
C3433 H3425 0.950 . S
C3433 C3431 1.327 . S
C3434 C3422 1.349 . S
C3434 H3428 0.950 . S
C3434 C3435 1.327 . S
C3435 H3429 0.950 . S
C3435 C3434 1.327 . S
C3435 C3439 1.429 . S
C3436 C3419 1.574 . S
C3436 H3430 0.949 . S
C3436 C3440 1.326 1_545 S
C3437 C3418 1.429 . S
C3437 C3431 1.429 . S
C3437 C3438 1.523 . S
C3438 C3419 1.368 . S
C3438 C3432 1.368 . S
C3438 C3437 1.523 . S
C3439 C3423 1.429 . S
C3439 C3435 1.429 . S
C3439 C3440 1.563 . S
C3440 C3424 1.382 . S
C3440 C3436 1.326 1_565 S
C3440 C3439 1.563 . S
H3441 C3416 0.950 . S
H3442 C3418 0.950 . S
H3443 C3419 0.949 . S
H3444 C3421 0.950 . S
H3445 C3423 0.950 . S
C3446 C3447 1.349 . S
C3446 C3448 1.327 . S
C3446 H3471 0.950 . S
C3447 C3446 1.349 . S
C3447 C3463 1.349 . S
C3448 C3446 1.327 . S
C3448 C3467 1.429 . S
C3448 H3472 0.950 . S
C3449 C3466 1.574 . S
C3449 C3468 1.368 . S
C3449 H3473 0.949 . S
H3450 C3454 0.949 . S
C3451 C3452 1.349 . S
C3451 C3453 1.327 . S
C3451 H3474 0.950 . S
C3452 C3451 1.349 . S
C3452 C3464 1.349 . S
C3453 C3451 1.327 . S
C3453 C3469 1.429 . S
C3453 H3475 0.950 . S
C3454 H3450 0.949 . S
C3454 C3462 1.574 . S
C3454 C3470 1.368 . S
H3455 C3463 0.950 . S
H3456 C3461 0.950 . S
H3457 C3462 0.949 . S
H3458 C3464 0.950 . S
H3459 C3465 0.950 . S
H3460 C3466 0.949 . S
C3461 H3456 0.950 . S
C3461 C3463 1.327 . S
C3461 C3467 1.429 . S
C3462 C3454 1.574 . S
C3462 H3457 0.949 . S
C3462 C3468 1.368 . S
C3463 C3447 1.349 . S
C3463 H3455 0.950 . S
C3463 C3461 1.327 . S
C3464 C3452 1.349 . S
C3464 H3458 0.950 . S
C3464 C3465 1.327 . S
C3465 H3459 0.950 . S
C3465 C3464 1.327 . S
C3465 C3469 1.429 . S
C3466 C3449 1.574 . S
C3466 H3460 0.949 . S
C3466 C3470 1.368 . S
C3467 C3448 1.429 . S
C3467 C3461 1.429 . S
C3467 C3468 1.523 . S
C3468 C3449 1.368 . S
C3468 C3462 1.368 . S
C3468 C3467 1.523 . S
C3469 C3453 1.429 . S
C3469 C3465 1.429 . S
C3469 C3470 1.523 . S
C3470 C3454 1.368 . S
C3470 C3466 1.368 . S
C3470 C3469 1.523 . S
H3471 C3446 0.950 . S
H3472 C3448 0.950 . S
H3473 C3449 0.949 . S
H3474 C3451 0.950 . S
H3475 C3453 0.950 . S
C3476 C3477 1.349 . S
C3476 C3478 1.327 . S
C3476 H3501 0.950 . S
C3477 C3476 1.349 . S
C3477 C3493 1.349 . S
C3478 C3476 1.327 . S
C3478 C3497 1.429 . S
C3478 H3502 0.950 . S
C3479 C3496 1.578 . S
C3479 C3498 1.366 1_565 S
C3479 H3503 0.946 1_565 S
H3480 C3484 0.949 . S
C3481 C3482 1.349 . S
C3481 C3483 1.327 . S
C3481 H3504 0.950 . S
C3482 C3481 1.349 . S
C3482 C3494 1.349 . S
C3483 C3481 1.327 . S
C3483 C3499 1.429 . S
C3483 H3505 0.950 . S
C3484 H3480 0.949 . S
C3484 C3492 1.574 . S
C3484 C3500 1.368 . S
H3485 C3493 0.950 . S
H3486 C3491 0.950 . S
H3487 C3492 0.949 . S
H3488 C3494 0.950 . S
H3489 C3495 0.950 . S
H3490 C3496 0.949 . S
C3491 H3486 0.950 . S
C3491 C3493 1.327 . S
C3491 C3497 1.429 . S
C3492 C3484 1.574 . S
C3492 H3487 0.949 . S
C3492 C3498 1.341 1_565 S
C3493 C3477 1.349 . S
C3493 H3485 0.950 . S
C3493 C3491 1.327 . S
C3494 C3482 1.349 . S
C3494 H3488 0.950 . S
C3494 C3495 1.327 . S
C3495 H3489 0.950 . S
C3495 C3494 1.327 . S
C3495 C3499 1.429 . S
C3496 C3479 1.578 . S
C3496 H3490 0.949 . S
C3496 C3500 1.368 . S
C3497 C3478 1.429 . S
C3497 C3491 1.429 . S
C3497 C3498 1.563 . S
C3498 C3479 1.366 1_545 S
C3498 C3492 1.341 1_545 S
C3498 C3497 1.563 . S
C3499 C3483 1.429 . S
C3499 C3495 1.429 . S
C3499 C3500 1.523 . S
C3500 C3484 1.368 . S
C3500 C3496 1.368 . S
C3500 C3499 1.523 . S
H3501 C3476 0.950 . S
H3502 C3478 0.950 . S
H3503 C3479 0.946 1_545 S
H3504 C3481 0.950 . S
H3505 C3483 0.950 . S
C3506 C3507 1.349 . S
C3506 C3508 1.327 . S
C3506 H3531 0.950 . S
C3507 C3506 1.349 . S
C3507 C3523 1.349 . S
C3508 C3506 1.327 . S
C3508 C3527 1.429 . S
C3508 H3532 0.950 . S
C3509 C3526 1.574 . S
C3509 C3528 1.352 1_554 S
C3509 H3533 0.949 . S
H3510 C3514 0.949 . S
C3511 C3512 1.349 . S
C3511 C3513 1.327 . S
C3511 H3534 0.950 . S
C3512 C3511 1.349 . S
C3512 C3524 1.349 . S
C3513 C3511 1.327 . S
C3513 C3529 1.429 . S
C3513 H3535 0.950 . S
C3514 H3510 0.949 . S
C3514 C3522 1.574 1_554 S
C3514 C3530 1.368 . S
H3515 C3523 0.950 . S
H3516 C3521 0.950 . S
H3517 C3522 0.949 . S
H3518 C3524 0.950 . S
H3519 C3525 0.950 . S
H3520 C3526 0.949 . S
C3521 H3516 0.950 . S
C3521 C3523 1.327 . S
C3521 C3527 1.429 . S
C3522 C3514 1.574 1_556 S
C3522 H3517 0.949 . S
C3522 C3528 1.371 . S
C3523 C3507 1.349 . S
C3523 H3515 0.950 . S
C3523 C3521 1.327 . S
C3524 C3512 1.349 . S
C3524 H3518 0.950 . S
C3524 C3525 1.327 . S
C3525 H3519 0.950 . S
C3525 C3524 1.327 . S
C3525 C3529 1.429 . S
C3526 C3509 1.574 . S
C3526 H3520 0.949 . S
C3526 C3530 1.368 . S
C3527 C3508 1.429 . S
C3527 C3521 1.429 . S
C3527 C3528 1.541 . S
C3528 C3509 1.352 1_556 S
C3528 C3522 1.371 . S
C3528 C3527 1.541 . S
C3529 C3513 1.429 . S
C3529 C3525 1.429 . S
C3529 C3530 1.523 . S
C3530 C3514 1.368 . S
C3530 C3526 1.368 . S
C3530 C3529 1.523 . S
H3531 C3506 0.950 . S
H3532 C3508 0.950 . S
H3533 C3509 0.949 . S
H3534 C3511 0.950 . S
H3535 C3513 0.950 . S
C3536 C3537 1.349 . S
C3536 C3538 1.327 . S
C3536 H3561 0.950 . S
C3537 C3536 1.349 . S
C3537 C3553 1.349 . S
C3538 C3536 1.327 . S
C3538 C3557 1.429 . S
C3538 H3562 0.950 . S
C3539 C3556 1.574 . S
C3539 C3558 1.368 . S
C3539 H3563 0.949 . S
H3540 C3544 0.949 . S
C3541 C3542 1.349 . S
C3541 C3543 1.327 . S
C3541 H3564 0.950 . S
C3542 C3541 1.349 . S
C3542 C3554 1.349 . S
C3543 C3541 1.327 . S
C3543 C3559 1.429 . S
C3543 H3565 0.950 . S
C3544 H3540 0.949 . S
C3544 C3552 1.574 1_455 S
C3544 C3560 1.368 1_455 S
H3545 C3553 0.950 . S
H3546 C3551 0.950 . S
H3547 C3552 0.949 . S
H3548 C3554 0.950 . S
H3549 C3555 0.950 . S
H3550 C3556 0.949 . S
C3551 H3546 0.950 . S
C3551 C3553 1.327 . S
C3551 C3557 1.429 . S
C3552 C3544 1.574 1_655 S
C3552 H3547 0.949 . S
C3552 C3558 1.368 . S
C3553 C3537 1.349 . S
C3553 H3545 0.950 . S
C3553 C3551 1.327 . S
C3554 C3542 1.349 . S
C3554 H3548 0.950 . S
C3554 C3555 1.327 . S
C3555 H3549 0.950 . S
C3555 C3554 1.327 . S
C3555 C3559 1.429 . S
C3556 C3539 1.574 . S
C3556 H3550 0.949 . S
C3556 C3560 1.373 . S
C3557 C3538 1.429 . S
C3557 C3551 1.429 . S
C3557 C3558 1.523 . S
C3558 C3539 1.368 . S
C3558 C3552 1.368 . S
C3558 C3557 1.523 . S
C3559 C3543 1.429 . S
C3559 C3555 1.429 . S
C3559 C3560 1.518 1_455 S
C3560 C3544 1.368 1_655 S
C3560 C3556 1.373 . S
C3560 C3559 1.518 1_655 S
H3561 C3536 0.950 . S
H3562 C3538 0.950 . S
H3563 C3539 0.949 . S
H3564 C3541 0.950 . S
H3565 C3543 0.950 . S
C3566 C3567 1.349 . S
C3566 C3568 1.327 . S
C3566 H3591 0.950 . S
C3567 C3566 1.349 . S
C3567 C3583 1.349 . S
C3568 C3566 1.327 . S
C3568 C3587 1.429 . S
C3568 H3592 0.950 . S
C3569 C3586 1.574 . S
C3569 C3588 1.368 . S
C3569 H3593 0.949 . S
H3570 C3574 0.949 . S
C3571 C3572 1.349 . S
C3571 C3573 1.327 . S
C3571 H3594 0.950 . S
C3572 C3571 1.349 . S
C3572 C3584 1.349 . S
C3573 C3571 1.327 . S
C3573 C3589 1.429 . S
C3573 H3595 0.950 . S
C3574 H3570 0.949 . S
C3574 C3582 1.574 . S
C3574 C3590 1.368 . S
H3575 C3583 0.950 . S
H3576 C3581 0.950 . S
H3577 C3582 0.949 . S
H3578 C3584 0.950 . S
H3579 C3585 0.950 . S
H3580 C3586 0.949 . S
C3581 H3576 0.950 . S
C3581 C3583 1.327 . S
C3581 C3587 1.429 . S
C3582 C3574 1.574 . S
C3582 H3577 0.949 . S
C3582 C3588 1.368 . S
C3583 C3567 1.349 . S
C3583 H3575 0.950 . S
C3583 C3581 1.327 . S
C3584 C3572 1.349 . S
C3584 H3578 0.950 . S
C3584 C3585 1.327 . S
C3585 H3579 0.950 . S
C3585 C3584 1.327 . S
C3585 C3589 1.429 . S
C3586 C3569 1.574 . S
C3586 H3580 0.949 . S
C3586 C3590 1.368 . S
C3587 C3568 1.429 . S
C3587 C3581 1.429 . S
C3587 C3588 1.523 . S
C3588 C3569 1.368 . S
C3588 C3582 1.368 . S
C3588 C3587 1.523 . S
C3589 C3573 1.429 . S
C3589 C3585 1.429 . S
C3589 C3590 1.523 . S
C3590 C3574 1.368 . S
C3590 C3586 1.368 . S
C3590 C3589 1.523 . S
H3591 C3566 0.950 . S
H3592 C3568 0.950 . S
H3593 C3569 0.949 . S
H3594 C3571 0.950 . S
H3595 C3573 0.950 . S
C3596 C3597 1.349 . S
C3596 C3598 1.327 . S
C3596 H3621 0.950 . S
C3597 C3596 1.349 . S
C3597 C3613 1.349 . S
C3598 C3596 1.327 . S
C3598 C3617 1.429 . S
C3598 H3622 0.950 . S
C3599 C3616 1.574 . S
C3599 C3618 1.373 . S
C3599 H3623 0.949 . S
H3600 C3604 0.949 . S
C3601 C3602 1.349 . S
C3601 C3603 1.327 . S
C3601 H3624 0.950 . S
C3602 C3601 1.349 . S
C3602 C3614 1.349 . S
C3603 C3601 1.327 . S
C3603 C3619 1.429 . S
C3603 H3625 0.950 . S
C3604 H3600 0.949 . S
C3604 C3612 1.574 1_455 S
C3604 C3620 1.368 . S
H3605 C3613 0.950 . S
H3606 C3611 0.950 . S
H3607 C3612 0.949 . S
H3608 C3614 0.950 . S
H3609 C3615 0.950 . S
H3610 C3616 0.949 . S
C3611 H3606 0.950 . S
C3611 C3613 1.327 . S
C3611 C3617 1.429 . S
C3612 C3604 1.574 1_655 S
C3612 H3607 0.949 . S
C3612 C3618 1.368 1_655 S
C3613 C3597 1.349 . S
C3613 H3605 0.950 . S
C3613 C3611 1.327 . S
C3614 C3602 1.349 . S
C3614 H3608 0.950 . S
C3614 C3615 1.327 . S
C3615 H3609 0.950 . S
C3615 C3614 1.327 . S
C3615 C3619 1.429 . S
C3616 C3599 1.574 . S
C3616 H3610 0.949 . S
C3616 C3620 1.368 . S
C3617 C3598 1.429 . S
C3617 C3611 1.429 . S
C3617 C3618 1.518 1_655 S
C3618 C3599 1.373 . S
C3618 C3612 1.368 1_455 S
C3618 C3617 1.518 1_455 S
C3619 C3603 1.429 . S
C3619 C3615 1.429 . S
C3619 C3620 1.523 . S
C3620 C3604 1.368 . S
C3620 C3616 1.368 . S
C3620 C3619 1.523 . S
H3621 C3596 0.950 . S
H3622 C3598 0.950 . S
H3623 C3599 0.949 . S
H3624 C3601 0.950 . S
H3625 C3603 0.950 . S
C3626 C3627 1.349 . S
C3626 C3628 1.327 . S
C3626 H3651 0.950 . S
C3627 C3626 1.349 . S
C3627 C3643 1.349 . S
C3628 C3626 1.327 . S
C3628 C3647 1.429 . S
C3628 H3652 0.950 . S
C3629 C3646 1.574 1_655 S
C3629 C3648 1.367 1_655 S
C3629 H3653 0.949 . S
H3630 C3634 0.949 . S
C3631 C3632 1.349 . S
C3631 C3633 1.327 . S
C3631 H3654 0.950 . S
C3632 C3631 1.349 . S
C3632 C3644 1.349 . S
C3633 C3631 1.327 . S
C3633 C3649 1.429 . S
C3633 H3655 0.950 . S
C3634 H3630 0.949 . S
C3634 C3642 1.574 . S
C3634 C3650 1.368 . S
H3635 C3643 0.950 . S
H3636 C3641 0.950 . S
H3637 C3642 0.949 . S
H3638 C3644 0.950 . S
H3639 C3645 0.950 . S
H3640 C3646 0.949 . S
C3641 H3636 0.950 . S
C3641 C3643 1.327 . S
C3641 C3647 1.429 . S
C3642 C3634 1.574 . S
C3642 H3637 0.949 . S
C3642 C3648 1.373 . S
C3643 C3627 1.349 . S
C3643 H3635 0.950 . S
C3643 C3641 1.327 . S
C3644 C3632 1.349 . S
C3644 H3638 0.950 . S
C3644 C3645 1.327 . S
C3645 H3639 0.950 . S
C3645 C3644 1.327 . S
C3645 C3649 1.429 . S
C3646 C3629 1.574 1_455 S
C3646 H3640 0.949 . S
C3646 C3650 1.368 . S
C3647 C3628 1.429 . S
C3647 C3641 1.429 . S
C3647 C3648 1.518 1_655 S
C3648 C3629 1.367 1_455 S
C3648 C3642 1.373 . S
C3648 C3647 1.518 1_455 S
C3649 C3633 1.429 . S
C3649 C3645 1.429 . S
C3649 C3650 1.523 . S
C3650 C3634 1.368 . S
C3650 C3646 1.368 . S
C3650 C3649 1.523 . S
H3651 C3626 0.950 . S
H3652 C3628 0.950 . S
H3653 C3629 0.949 . S
H3654 C3631 0.950 . S
H3655 C3633 0.950 . S
C3656 C3657 1.349 . S
C3656 C3658 1.327 . S
C3656 H3681 0.950 . S
C3657 C3656 1.349 . S
C3657 C3673 1.349 . S
C3658 C3656 1.327 . S
C3658 C3677 1.429 . S
C3658 H3682 0.950 . S
C3659 C3676 1.574 . S
C3659 C3678 1.368 . S
C3659 H3683 0.949 . S
H3660 C3664 0.949 . S
C3661 C3662 1.349 . S
C3661 C3663 1.327 . S
C3661 H3684 0.950 . S
C3662 C3661 1.349 . S
C3662 C3674 1.349 . S
C3663 C3661 1.327 . S
C3663 C3679 1.429 . S
C3663 H3685 0.950 . S
C3664 H3660 0.949 . S
C3664 C3672 1.574 . S
C3664 C3680 1.368 . S
H3665 C3673 0.950 . S
H3666 C3671 0.950 . S
H3667 C3672 0.949 . S
H3668 C3674 0.950 . S
H3669 C3675 0.950 . S
H3670 C3676 0.949 . S
C3671 H3666 0.950 . S
C3671 C3673 1.327 . S
C3671 C3677 1.429 . S
C3672 C3664 1.574 . S
C3672 H3667 0.949 . S
C3672 C3678 1.368 . S
C3673 C3657 1.349 . S
C3673 H3665 0.950 . S
C3673 C3671 1.327 . S
C3674 C3662 1.349 . S
C3674 H3668 0.950 . S
C3674 C3675 1.327 . S
C3675 H3669 0.950 . S
C3675 C3674 1.327 . S
C3675 C3679 1.429 . S
C3676 C3659 1.574 . S
C3676 H3670 0.949 . S
C3676 C3680 1.368 . S
C3677 C3658 1.429 . S
C3677 C3671 1.429 . S
C3677 C3678 1.523 . S
C3678 C3659 1.368 . S
C3678 C3672 1.368 . S
C3678 C3677 1.523 . S
C3679 C3663 1.429 . S
C3679 C3675 1.429 . S
C3679 C3680 1.523 . S
C3680 C3664 1.368 . S
C3680 C3676 1.368 . S
C3680 C3679 1.523 . S
H3681 C3656 0.950 . S
H3682 C3658 0.950 . S
H3683 C3659 0.949 . S
H3684 C3661 0.950 . S
H3685 C3663 0.950 . S
C3686 C3687 1.349 . S
C3686 C3688 1.327 . S
C3686 H3711 0.950 . S
C3687 C3686 1.349 . S
C3687 C3703 1.349 . S
C3688 C3686 1.327 . S
C3688 C3707 1.429 . S
C3688 H3712 0.950 . S
C3689 C3706 1.574 . S
C3689 C3708 1.368 . S
C3689 H3713 0.949 . S
H3690 C3694 0.949 . S
C3691 C3692 1.349 . S
C3691 C3693 1.327 . S
C3691 H3714 0.950 . S
C3692 C3691 1.349 . S
C3692 C3704 1.349 . S
C3693 C3691 1.327 . S
C3693 C3709 1.429 . S
C3693 H3715 0.950 . S
C3694 H3690 0.949 . S
C3694 C3702 1.574 1_455 S
C3694 C3710 1.368 1_455 S
H3695 C3703 0.950 . S
H3696 C3701 0.950 . S
H3697 C3702 0.949 . S
H3698 C3704 0.950 . S
H3699 C3705 0.950 . S
H3700 C3706 0.949 . S
C3701 H3696 0.950 . S
C3701 C3703 1.327 . S
C3701 C3707 1.429 . S
C3702 C3694 1.574 1_655 S
C3702 H3697 0.949 . S
C3702 C3708 1.368 . S
C3703 C3687 1.349 . S
C3703 H3695 0.950 . S
C3703 C3701 1.327 . S
C3704 C3692 1.349 . S
C3704 H3698 0.950 . S
C3704 C3705 1.327 . S
C3705 H3699 0.950 . S
C3705 C3704 1.327 . S
C3705 C3709 1.429 . S
C3706 C3689 1.574 . S
C3706 H3700 0.949 . S
C3706 C3710 1.373 . S
C3707 C3688 1.429 . S
C3707 C3701 1.429 . S
C3707 C3708 1.523 . S
C3708 C3689 1.368 . S
C3708 C3702 1.368 . S
C3708 C3707 1.523 . S
C3709 C3693 1.429 . S
C3709 C3705 1.429 . S
C3709 C3710 1.518 1_455 S
C3710 C3694 1.368 1_655 S
C3710 C3706 1.373 . S
C3710 C3709 1.518 1_655 S
H3711 C3686 0.950 . S
H3712 C3688 0.950 . S
H3713 C3689 0.949 . S
H3714 C3691 0.950 . S
H3715 C3693 0.950 . S
C3716 C3717 1.349 . S
C3716 C3718 1.327 . S
C3716 H3741 0.950 . S
C3717 C3716 1.349 . S
C3717 C3733 1.349 . S
C3718 C3716 1.327 . S
C3718 C3737 1.429 . S
C3718 H3742 0.950 . S
C3719 C3736 1.574 . S
C3719 C3738 1.368 . S
C3719 H3743 0.949 . S
H3720 C3724 0.949 . S
C3721 C3722 1.349 . S
C3721 C3723 1.327 . S
C3721 H3744 0.950 . S
C3722 C3721 1.349 . S
C3722 C3734 1.349 . S
C3723 C3721 1.327 . S
C3723 C3739 1.429 . S
C3723 H3745 0.950 . S
C3724 H3720 0.949 . S
C3724 C3732 1.574 . S
C3724 C3740 1.368 . S
H3725 C3733 0.950 . S
H3726 C3731 0.950 . S
H3727 C3732 0.949 . S
H3728 C3734 0.950 . S
H3729 C3735 0.950 . S
H3730 C3736 0.949 . S
C3731 H3726 0.950 . S
C3731 C3733 1.327 . S
C3731 C3737 1.429 . S
C3732 C3724 1.574 . S
C3732 H3727 0.949 . S
C3732 C3738 1.368 . S
C3733 C3717 1.349 . S
C3733 H3725 0.950 . S
C3733 C3731 1.327 . S
C3734 C3722 1.349 . S
C3734 H3728 0.950 . S
C3734 C3735 1.327 . S
C3735 H3729 0.950 . S
C3735 C3734 1.327 . S
C3735 C3739 1.429 . S
C3736 C3719 1.574 . S
C3736 H3730 0.949 . S
C3736 C3740 1.368 . S
C3737 C3718 1.429 . S
C3737 C3731 1.429 . S
C3737 C3738 1.523 . S
C3738 C3719 1.368 . S
C3738 C3732 1.368 . S
C3738 C3737 1.523 . S
C3739 C3723 1.429 . S
C3739 C3735 1.429 . S
C3739 C3740 1.523 . S
C3740 C3724 1.368 . S
C3740 C3736 1.368 . S
C3740 C3739 1.523 . S
H3741 C3716 0.950 . S
H3742 C3718 0.950 . S
H3743 C3719 0.949 . S
H3744 C3721 0.950 . S
H3745 C3723 0.950 . S
C3746 C3747 1.349 . S
C3746 C3748 1.327 . S
C3746 H3771 0.950 . S
C3747 C3746 1.349 . S
C3747 C3763 1.349 . S
C3748 C3746 1.327 . S
C3748 C3767 1.429 . S
C3748 H3772 0.950 . S
C3749 C3766 1.574 . S
C3749 C3768 1.368 . S
C3749 H3773 0.949 . S
H3750 C3754 0.949 . S
C3751 C3752 1.349 . S
C3751 C3753 1.327 . S
C3751 H3774 0.950 . S
C3752 C3751 1.349 . S
C3752 C3764 1.349 . S
C3753 C3751 1.327 . S
C3753 C3769 1.429 . S
C3753 H3775 0.950 . S
C3754 H3750 0.949 . S
C3754 C3762 1.574 1_565 S
C3754 C3770 1.372 . S
H3755 C3763 0.950 . S
H3756 C3761 0.950 . S
H3757 C3762 0.949 . S
H3758 C3764 0.950 . S
H3759 C3765 0.950 . S
H3760 C3766 0.949 . S
C3761 H3756 0.950 . S
C3761 C3763 1.327 . S
C3761 C3767 1.429 . S
C3762 C3754 1.574 1_545 S
C3762 H3757 0.949 . S
C3762 C3768 1.368 . S
C3763 C3747 1.349 . S
C3763 H3755 0.950 . S
C3763 C3761 1.327 . S
C3764 C3752 1.349 . S
C3764 H3758 0.950 . S
C3764 C3765 1.327 . S
C3765 H3759 0.950 . S
C3765 C3764 1.327 . S
C3765 C3769 1.429 . S
C3766 C3749 1.574 . S
C3766 H3760 0.949 . S
C3766 C3770 1.349 1_545 S
C3767 C3748 1.429 . S
C3767 C3761 1.429 . S
C3767 C3768 1.523 . S
C3768 C3749 1.368 . S
C3768 C3762 1.368 . S
C3768 C3767 1.523 . S
C3769 C3753 1.429 . S
C3769 C3765 1.429 . S
C3769 C3770 1.544 . S
C3770 C3754 1.372 . S
C3770 C3766 1.349 1_565 S
C3770 C3769 1.544 . S
H3771 C3746 0.950 . S
H3772 C3748 0.950 . S
H3773 C3749 0.949 . S
H3774 C3751 0.950 . S
H3775 C3753 0.950 . S
C3776 C3777 1.349 . S
C3776 C3778 1.327 . S
C3776 H3801 0.950 . S
C3777 C3776 1.349 . S
C3777 C3793 1.349 . S
C3778 C3776 1.327 . S
C3778 C3797 1.429 . S
C3778 H3802 0.950 . S
C3779 C3796 1.574 . S
C3779 C3798 1.368 . S
C3779 H3803 0.949 . S
H3780 C3784 0.949 . S
C3781 C3782 1.349 . S
C3781 C3783 1.327 . S
C3781 H3804 0.950 . S
C3782 C3781 1.349 . S
C3782 C3794 1.349 . S
C3783 C3781 1.327 . S
C3783 C3799 1.429 . S
C3783 H3805 0.950 . S
C3784 H3780 0.949 . S
C3784 C3792 1.574 . S
C3784 C3800 1.368 . S
H3785 C3793 0.950 . S
H3786 C3791 0.950 . S
H3787 C3792 0.949 . S
H3788 C3794 0.950 . S
H3789 C3795 0.950 . S
H3790 C3796 0.949 . S
C3791 H3786 0.950 . S
C3791 C3793 1.327 . S
C3791 C3797 1.429 . S
C3792 C3784 1.574 . S
C3792 H3787 0.949 . S
C3792 C3798 1.368 . S
C3793 C3777 1.349 . S
C3793 H3785 0.950 . S
C3793 C3791 1.327 . S
C3794 C3782 1.349 . S
C3794 H3788 0.950 . S
C3794 C3795 1.327 . S
C3795 H3789 0.950 . S
C3795 C3794 1.327 . S
C3795 C3799 1.429 . S
C3796 C3779 1.574 . S
C3796 H3790 0.949 . S
C3796 C3800 1.368 . S
C3797 C3778 1.429 . S
C3797 C3791 1.429 . S
C3797 C3798 1.523 . S
C3798 C3779 1.368 . S
C3798 C3792 1.368 . S
C3798 C3797 1.523 . S
C3799 C3783 1.429 . S
C3799 C3795 1.429 . S
C3799 C3800 1.523 . S
C3800 C3784 1.368 . S
C3800 C3796 1.368 . S
C3800 C3799 1.523 . S
H3801 C3776 0.950 . S
H3802 C3778 0.950 . S
H3803 C3779 0.949 . S
H3804 C3781 0.950 . S
H3805 C3783 0.950 . S
C3806 C3807 1.349 . S
C3806 C3808 1.327 . S
C3806 H3831 0.950 . S
C3807 C3806 1.349 . S
C3807 C3823 1.349 . S
C3808 C3806 1.327 . S
C3808 C3827 1.429 . S
C3808 H3832 0.950 . S
C3809 C3826 1.574 1_565 S
C3809 C3828 1.368 . S
C3809 H3833 0.949 . S
H3810 C3814 0.949 . S
C3811 C3812 1.349 . S
C3811 C3813 1.327 . S
C3811 H3834 0.950 . S
C3812 C3811 1.349 . S
C3812 C3824 1.349 . S
C3813 C3811 1.327 . S
C3813 C3829 1.429 . S
C3813 H3835 0.950 . S
C3814 H3810 0.949 . S
C3814 C3822 1.574 . S
C3814 C3830 1.342 1_565 S
H3815 C3823 0.950 . S
H3816 C3821 0.950 . S
H3817 C3822 0.949 . S
H3818 C3824 0.950 . S
H3819 C3825 0.954 1_565 S
H3820 C3826 0.949 . S
C3821 H3816 0.950 . S
C3821 C3823 1.327 . S
C3821 C3827 1.429 . S
C3822 C3814 1.574 . S
C3822 H3817 0.949 . S
C3822 C3828 1.368 . S
C3823 C3807 1.349 . S
C3823 H3815 0.950 . S
C3823 C3821 1.327 . S
C3824 C3812 1.349 . S
C3824 H3818 0.950 . S
C3824 C3825 1.327 . S
C3825 H3819 0.954 1_545 S
C3825 C3824 1.327 . S
C3825 C3829 1.429 . S
C3826 C3809 1.574 1_545 S
C3826 H3820 0.949 . S
C3826 C3830 1.379 . S
C3827 C3808 1.429 . S
C3827 C3821 1.429 . S
C3827 C3828 1.523 . S
C3828 C3809 1.368 . S
C3828 C3822 1.368 . S
C3828 C3827 1.523 . S
C3829 C3813 1.429 . S
C3829 C3825 1.429 . S
C3829 C3830 1.544 . S
C3830 C3814 1.342 1_545 S
C3830 C3826 1.379 . S
C3830 C3829 1.544 . S
H3831 C3806 0.950 . S
H3832 C3808 0.950 . S
H3833 C3809 0.949 . S
H3834 C3811 0.950 . S
H3835 C3813 0.950 . S
C3836 C3837 1.349 . S
C3836 C3838 1.327 . S
C3836 H3861 0.950 . S
C3837 C3836 1.349 . S
C3837 C3853 1.349 . S
C3838 C3836 1.327 . S
C3838 C3857 1.429 . S
C3838 H3862 0.950 . S
C3839 C3856 1.574 . S
C3839 C3858 1.334 1_554 S
C3839 H3863 0.949 . S
H3840 C3844 0.949 . S
C3841 C3842 1.349 . S
C3841 C3843 1.327 . S
C3841 H3864 0.950 . S
C3842 C3841 1.349 . S
C3842 C3854 1.349 . S
C3843 C3841 1.327 . S
C3843 C3859 1.429 . S
C3843 H3865 0.950 . S
C3844 H3840 0.949 . S
C3844 C3852 1.574 1_554 S
C3844 C3860 1.368 . S
H3845 C3853 0.950 . S
H3846 C3851 0.950 . S
H3847 C3852 0.949 . S
H3848 C3854 0.950 . S
H3849 C3855 0.950 . S
H3850 C3856 0.949 . S
C3851 H3846 0.950 . S
C3851 C3853 1.327 . S
C3851 C3857 1.429 . S
C3852 C3844 1.574 1_556 S
C3852 H3847 0.949 . S
C3852 C3858 1.376 . S
C3853 C3837 1.349 . S
C3853 H3845 0.950 . S
C3853 C3851 1.327 . S
C3854 C3842 1.349 . S
C3854 H3848 0.950 . S
C3854 C3855 1.327 . S
C3855 H3849 0.950 . S
C3855 C3854 1.327 . S
C3855 C3859 1.429 . S
C3856 C3839 1.574 . S
C3856 H3850 0.949 . S
C3856 C3860 1.368 . S
C3857 C3838 1.429 . S
C3857 C3851 1.429 . S
C3857 C3858 1.560 . S
C3858 C3839 1.334 1_556 S
C3858 C3852 1.376 . S
C3858 C3857 1.560 . S
C3859 C3843 1.429 . S
C3859 C3855 1.429 . S
C3859 C3860 1.523 . S
C3860 C3844 1.368 . S
C3860 C3856 1.368 . S
C3860 C3859 1.523 . S
H3861 C3836 0.950 . S
H3862 C3838 0.950 . S
H3863 C3839 0.949 . S
H3864 C3841 0.950 . S
H3865 C3843 0.950 . S
C3866 C3867 1.349 . S
C3866 C3868 1.327 . S
C3866 H3891 0.950 . S
C3867 C3866 1.349 . S
C3867 C3883 1.349 . S
C3868 C3866 1.327 . S
C3868 C3887 1.429 . S
C3868 H3892 0.987 . S
C3869 C3886 1.574 1_545 S
C3869 C3888 1.378 . S
C3869 H3893 0.949 . S
H3870 C3874 0.949 . S
C3871 C3872 1.349 . S
C3871 C3873 1.327 . S
C3871 H3894 0.950 . S
C3872 C3871 1.349 . S
C3872 C3884 1.349 . S
C3873 C3871 1.327 . S
C3873 C3889 1.429 . S
C3873 H3895 0.950 . S
C3874 H3870 0.949 . S
C3874 C3882 1.574 . S
C3874 C3890 1.368 . S
H3875 C3883 0.950 . S
H3876 C3881 0.950 . S
H3877 C3882 0.949 . S
H3878 C3884 0.950 . S
H3879 C3885 0.950 . S
H3880 C3886 0.949 . S
C3881 H3876 0.950 . S
C3881 C3883 1.327 . S
C3881 C3887 1.429 . S
C3882 C3874 1.574 . S
C3882 H3877 0.949 . S
C3882 C3888 1.342 1_565 S
C3883 C3867 1.349 . S
C3883 H3875 0.950 . S
C3883 C3881 1.327 . S
C3884 C3872 1.349 . S
C3884 H3878 0.950 . S
C3884 C3885 1.327 . S
C3885 H3879 0.950 . S
C3885 C3884 1.327 . S
C3885 C3889 1.429 . S
C3886 C3869 1.574 1_565 S
C3886 H3880 0.949 . S
C3886 C3890 1.368 . S
C3887 C3868 1.429 . S
C3887 C3881 1.429 . S
C3887 C3888 1.544 . S
C3888 C3869 1.378 . S
C3888 C3882 1.342 1_545 S
C3888 C3887 1.544 . S
C3889 C3873 1.429 . S
C3889 C3885 1.429 . S
C3889 C3890 1.523 . S
C3890 C3874 1.368 . S
C3890 C3886 1.368 . S
C3890 C3889 1.523 . S
H3891 C3866 0.950 . S
H3892 C3868 0.987 . S
H3893 C3869 0.949 . S
H3894 C3871 0.950 . S
H3895 C3873 0.950 . S
C3896 C3897 1.349 . S
C3896 C3898 1.327 . S
C3896 H3921 0.950 . S
C3897 C3896 1.349 . S
C3897 C3913 1.349 . S
C3898 C3896 1.327 . S
C3898 C3917 1.429 . S
C3898 H3922 0.950 . S
C3899 C3916 1.574 . S
C3899 C3918 1.368 . S
C3899 H3923 0.949 . S
H3900 C3904 0.949 . S
C3901 C3902 1.349 . S
C3901 C3903 1.327 . S
C3901 H3924 0.950 . S
C3902 C3901 1.349 . S
C3902 C3914 1.349 . S
C3903 C3901 1.327 . S
C3903 C3919 1.429 . S
C3903 H3925 0.950 . S
C3904 H3900 0.949 . S
C3904 C3912 1.574 . S
C3904 C3920 1.368 . S
H3905 C3913 0.950 . S
H3906 C3911 0.950 . S
H3907 C3912 0.949 . S
H3908 C3914 0.950 . S
H3909 C3915 0.950 . S
H3910 C3916 0.949 . S
C3911 H3906 0.950 . S
C3911 C3913 1.327 . S
C3911 C3917 1.429 . S
C3912 C3904 1.574 . S
C3912 H3907 0.949 . S
C3912 C3918 1.368 . S
C3913 C3897 1.349 . S
C3913 H3905 0.950 . S
C3913 C3911 1.327 . S
C3914 C3902 1.349 . S
C3914 H3908 0.950 . S
C3914 C3915 1.327 . S
C3915 H3909 0.950 . S
C3915 C3914 1.327 . S
C3915 C3919 1.429 . S
C3916 C3899 1.574 . S
C3916 H3910 0.949 . S
C3916 C3920 1.368 . S
C3917 C3898 1.429 . S
C3917 C3911 1.429 . S
C3917 C3918 1.523 . S
C3918 C3899 1.368 . S
C3918 C3912 1.368 . S
C3918 C3917 1.523 . S
C3919 C3903 1.429 . S
C3919 C3915 1.429 . S
C3919 C3920 1.523 . S
C3920 C3904 1.368 . S
C3920 C3916 1.368 . S
C3920 C3919 1.523 . S
H3921 C3896 0.950 . S
H3922 C3898 0.950 . S
H3923 C3899 0.949 . S
H3924 C3901 0.950 . S
H3925 C3903 0.950 . S
C3926 C3927 1.349 . S
C3926 C3928 1.327 . S
C3926 H3951 0.950 . S
C3927 C3926 1.349 . S
C3927 C3943 1.349 . S
C3928 C3926 1.327 . S
C3928 C3947 1.429 . S
C3928 H3952 0.950 . S
C3929 C3946 1.574 . S
C3929 C3948 1.340 1_545 S
C3929 H3953 0.949 . S
H3930 C3934 0.949 . S
C3931 C3932 1.349 . S
C3931 C3933 1.327 . S
C3931 H3954 0.950 . S
C3932 C3931 1.349 . S
C3932 C3944 1.349 . S
C3933 C3931 1.327 . S
C3933 C3949 1.429 . S
C3933 H3955 0.950 . S
C3934 H3930 0.949 . S
C3934 C3942 1.574 1_545 S
C3934 C3950 1.368 . S
H3935 C3943 0.950 . S
H3936 C3941 0.950 1_545 S
H3937 C3942 0.949 . S
H3938 C3944 0.950 . S
H3939 C3945 0.950 . S
H3940 C3946 0.949 . S
C3941 H3936 0.950 1_565 S
C3941 C3943 1.327 . S
C3941 C3947 1.429 . S
C3942 C3934 1.574 1_565 S
C3942 H3937 0.949 . S
C3942 C3948 1.380 . S
C3943 C3927 1.349 . S
C3943 H3935 0.950 . S
C3943 C3941 1.327 . S
C3944 C3932 1.349 . S
C3944 H3938 0.950 . S
C3944 C3945 1.327 . S
C3945 H3939 0.950 . S
C3945 C3944 1.327 . S
C3945 C3949 1.429 . S
C3946 C3929 1.574 . S
C3946 H3940 0.949 . S
C3946 C3950 1.368 . S
C3947 C3928 1.429 . S
C3947 C3941 1.429 . S
C3947 C3948 1.544 . S
C3948 C3929 1.340 1_565 S
C3948 C3942 1.380 . S
C3948 C3947 1.544 . S
C3949 C3933 1.429 . S
C3949 C3945 1.429 . S
C3949 C3950 1.523 . S
C3950 C3934 1.368 . S
C3950 C3946 1.368 . S
C3950 C3949 1.523 . S
H3951 C3926 0.950 . S
H3952 C3928 0.950 . S
H3953 C3929 0.949 . S
H3954 C3931 0.950 . S
H3955 C3933 0.950 . S
C3956 C3957 1.349 . S
C3956 C3958 1.327 . S
C3956 H3981 0.950 . S
C3957 C3956 1.349 . S
C3957 C3973 1.349 . S
C3958 C3956 1.327 . S
C3958 C3977 1.429 . S
C3958 H3982 0.950 . S
C3959 C3976 1.574 1_554 S
C3959 C3978 1.375 . S
C3959 H3983 0.949 . S
H3960 C3964 0.949 . S
C3961 C3962 1.349 . S
C3961 C3963 1.327 . S
C3961 H3984 0.950 . S
C3962 C3961 1.349 . S
C3962 C3974 1.349 . S
C3963 C3961 1.327 . S
C3963 C3979 1.429 . S
C3963 H3985 0.950 . S
C3964 H3960 0.949 . S
C3964 C3972 1.574 . S
C3964 C3980 1.368 . S
H3965 C3973 0.950 . S
H3966 C3971 0.950 . S
H3967 C3972 0.949 . S
H3968 C3974 0.950 . S
H3969 C3975 0.950 . S
H3970 C3976 0.949 . S
C3971 H3966 0.950 . S
C3971 C3973 1.327 . S
C3971 C3977 1.429 . S
C3972 C3964 1.574 . S
C3972 H3967 0.949 . S
C3972 C3978 1.334 1_556 S
C3973 C3957 1.349 . S
C3973 H3965 0.950 . S
C3973 C3971 1.327 . S
C3974 C3962 1.349 . S
C3974 H3968 0.950 . S
C3974 C3975 1.327 . S
C3975 H3969 0.950 . S
C3975 C3974 1.327 . S
C3975 C3979 1.429 . S
C3976 C3959 1.574 1_556 S
C3976 H3970 0.949 . S
C3976 C3980 1.368 . S
C3977 C3958 1.429 . S
C3977 C3971 1.429 . S
C3977 C3978 1.560 . S
C3978 C3959 1.375 . S
C3978 C3972 1.334 1_554 S
C3978 C3977 1.560 . S
C3979 C3963 1.429 . S
C3979 C3975 1.429 . S
C3979 C3980 1.523 . S
C3980 C3964 1.368 . S
C3980 C3976 1.368 . S
C3980 C3979 1.523 . S
H3981 C3956 0.950 . S
H3982 C3958 0.950 . S
H3983 C3959 0.949 . S
H3984 C3961 0.950 . S
H3985 C3963 0.950 . S
C3986 C3987 1.349 . S
C3986 C3988 1.327 . S
C3986 H4011 0.950 . S
C3987 C3986 1.349 . S
C3987 C4003 1.349 . S
C3988 C3986 1.327 . S
C3988 C4007 1.429 . S
C3988 H4012 0.950 . S
C3989 C4006 1.551 1_655 S
C3989 C4008 1.367 1_655 S
C3989 H4013 0.972 . S
H3990 C3994 0.949 . S
C3991 C3992 1.349 . S
C3991 C3993 1.327 . S
C3991 H4014 0.950 . S
C3992 C3991 1.349 . S
C3992 C4004 1.349 . S
C3993 C3991 1.327 . S
C3993 C4009 1.429 . S
C3993 H4015 0.950 . S
C3994 H3990 0.949 . S
C3994 C4002 1.574 . S
C3994 C4010 1.368 . S
H3995 C4003 0.950 . S
H3996 C4001 0.950 . S
H3997 C4002 0.949 . S
H3998 C4004 0.950 . S
H3999 C4005 0.950 . S
H4000 C4006 0.949 . S
C4001 H3996 0.950 . S
C4001 C4003 1.327 . S
C4001 C4007 1.429 . S
C4002 C3994 1.574 . S
C4002 H3997 0.949 . S
C4002 C4008 1.374 . S
C4003 C3987 1.349 . S
C4003 H3995 0.950 . S
C4003 C4001 1.327 . S
C4004 C3992 1.349 . S
C4004 H3998 0.950 . S
C4004 C4005 1.327 . S
C4005 H3999 0.950 . S
C4005 C4004 1.327 . S
C4005 C4009 1.429 . S
C4006 C3989 1.551 1_455 S
C4006 H4000 0.949 . S
C4006 C4010 1.368 . S
C4007 C3988 1.429 . S
C4007 C4001 1.429 . S
C4007 C4008 1.516 1_655 S
C4008 C3989 1.367 1_455 S
C4008 C4002 1.374 . S
C4008 C4007 1.516 1_455 S
C4009 C3993 1.429 . S
C4009 C4005 1.429 . S
C4009 C4010 1.523 . S
C4010 C3994 1.368 . S
C4010 C4006 1.368 . S
C4010 C4009 1.523 . S
H4011 C3986 0.950 . S
H4012 C3988 0.950 . S
H4013 C3989 0.972 . S
H4014 C3991 0.950 . S
H4015 C3993 0.950 . S
C4016 C4017 1.349 . S
C4016 C4018 1.327 . S
C4016 H4041 0.950 . S
C4017 C4016 1.349 . S
C4017 C4033 1.349 . S
C4018 C4016 1.327 . S
C4018 C4037 1.429 . S
C4018 H4042 0.950 . S
C4019 C4036 1.574 . S
C4019 C4038 1.368 . S
C4019 H4043 0.949 . S
H4020 C4024 0.949 . S
C4021 C4022 1.349 . S
C4021 C4023 1.327 . S
C4021 H4044 0.950 . S
C4022 C4021 1.349 . S
C4022 C4034 1.349 . S
C4023 C4021 1.327 . S
C4023 C4039 1.429 . S
C4023 H4045 0.950 . S
C4024 H4020 0.949 . S
C4024 C4032 1.574 . S
C4024 C4040 1.368 . S
H4025 C4033 0.950 . S
H4026 C4031 0.950 . S
H4027 C4032 0.949 . S
H4028 C4034 0.950 . S
H4029 C4035 0.950 . S
H4030 C4036 0.949 . S
C4031 H4026 0.950 . S
C4031 C4033 1.327 . S
C4031 C4037 1.429 . S
C4032 C4024 1.574 . S
C4032 H4027 0.949 . S
C4032 C4038 1.368 . S
C4033 C4017 1.349 . S
C4033 H4025 0.950 . S
C4033 C4031 1.327 . S
C4034 C4022 1.349 . S
C4034 H4028 0.950 . S
C4034 C4035 1.327 . S
C4035 H4029 0.950 . S
C4035 C4034 1.327 . S
C4035 C4039 1.429 . S
C4036 C4019 1.574 . S
C4036 H4030 0.949 . S
C4036 C4040 1.368 . S
C4037 C4018 1.429 . S
C4037 C4031 1.429 . S
C4037 C4038 1.523 . S
C4038 C4019 1.368 . S
C4038 C4032 1.368 . S
C4038 C4037 1.523 . S
C4039 C4023 1.429 . S
C4039 C4035 1.429 . S
C4039 C4040 1.523 . S
C4040 C4024 1.368 . S
C4040 C4036 1.368 . S
C4040 C4039 1.523 . S
H4041 C4016 0.950 . S
H4042 C4018 0.950 . S
H4043 C4019 0.949 . S
H4044 C4021 0.950 . S
H4045 C4023 0.950 . S
C4046 C4047 1.349 . S
C4046 C4048 1.327 . S
C4046 H4071 0.950 . S
C4047 C4046 1.349 . S
C4047 C4063 1.349 . S
C4048 C4046 1.327 . S
C4048 C4067 1.429 . S
C4048 H4072 0.950 . S
C4049 C4066 1.574 . S
C4049 C4068 1.374 . S
C4049 H4073 0.949 . S
H4050 C4054 0.949 . S
C4051 C4052 1.349 . S
C4051 C4053 1.327 . S
C4051 H4074 0.950 . S
C4052 C4051 1.349 . S
C4052 C4064 1.349 . S
C4053 C4051 1.327 . S
C4053 C4069 1.429 . S
C4053 H4075 0.950 . S
C4054 H4050 0.949 . S
C4054 C4062 1.574 1_655 S
C4054 C4070 1.368 . S
H4055 C4063 0.950 . S
H4056 C4061 0.950 . S
H4057 C4062 0.949 . S
H4058 C4064 0.950 . S
H4059 C4065 0.950 . S
H4060 C4066 0.949 . S
C4061 H4056 0.950 . S
C4061 C4063 1.327 . S
C4061 C4067 1.429 . S
C4062 C4054 1.574 1_455 S
C4062 H4057 0.949 . S
C4062 C4068 1.368 1_455 S
C4063 C4047 1.349 . S
C4063 H4055 0.950 . S
C4063 C4061 1.327 . S
C4064 C4052 1.349 . S
C4064 H4058 0.950 . S
C4064 C4065 1.327 . S
C4065 H4059 0.950 . S
C4065 C4064 1.327 . S
C4065 C4069 1.429 . S
C4066 C4049 1.574 . S
C4066 H4060 0.949 . S
C4066 C4070 1.368 . S
C4067 C4048 1.429 . S
C4067 C4061 1.429 . S
C4067 C4068 1.516 1_455 S
C4068 C4049 1.374 . S
C4068 C4062 1.368 1_655 S
C4068 C4067 1.516 1_655 S
C4069 C4053 1.429 . S
C4069 C4065 1.429 . S
C4069 C4070 1.523 . S
C4070 C4054 1.368 . S
C4070 C4066 1.368 . S
C4070 C4069 1.523 . S
H4071 C4046 0.950 . S
H4072 C4048 0.950 . S
H4073 C4049 0.949 . S
H4074 C4051 0.950 . S
H4075 C4053 0.950 . S
C4076 C4077 1.349 . S
C4076 C4078 1.327 . S
C4076 H4101 0.950 . S
C4077 C4076 1.349 . S
C4077 C4093 1.349 . S
C4078 C4076 1.327 . S
C4078 C4097 1.429 . S
C4078 H4102 0.950 . S
C4079 C4096 1.574 . S
C4079 C4098 1.374 . S
C4079 H4103 0.949 . S
H4080 C4084 0.949 . S
C4081 C4082 1.349 . S
C4081 C4083 1.327 . S
C4081 H4104 0.950 . S
C4082 C4081 1.349 . S
C4082 C4094 1.349 . S
C4083 C4081 1.327 . S
C4083 C4099 1.429 . S
C4083 H4105 0.950 . S
C4084 H4080 0.949 . S
C4084 C4092 1.574 1_655 S
C4084 C4100 1.368 . S
H4085 C4093 0.950 . S
H4086 C4091 0.950 . S
H4087 C4092 0.949 . S
H4088 C4094 0.950 . S
H4089 C4095 0.950 . S
H4090 C4096 0.949 . S
C4091 H4086 0.950 . S
C4091 C4093 1.327 . S
C4091 C4097 1.429 . S
C4092 C4084 1.574 1_455 S
C4092 H4087 0.949 . S
C4092 C4098 1.368 1_455 S
C4093 C4077 1.349 . S
C4093 H4085 0.950 . S
C4093 C4091 1.327 . S
C4094 C4082 1.349 . S
C4094 H4088 0.950 . S
C4094 C4095 1.327 . S
C4095 H4089 0.950 . S
C4095 C4094 1.327 . S
C4095 C4099 1.429 . S
C4096 C4079 1.574 . S
C4096 H4090 0.949 . S
C4096 C4100 1.368 . S
C4097 C4078 1.429 . S
C4097 C4091 1.429 . S
C4097 C4098 1.516 1_455 S
C4098 C4079 1.374 . S
C4098 C4092 1.368 1_655 S
C4098 C4097 1.516 1_655 S
C4099 C4083 1.429 . S
C4099 C4095 1.429 . S
C4099 C4100 1.523 . S
C4100 C4084 1.368 . S
C4100 C4096 1.368 . S
C4100 C4099 1.523 . S
H4101 C4076 0.950 . S
H4102 C4078 0.950 . S
H4103 C4079 0.949 . S
H4104 C4081 0.950 . S
H4105 C4083 0.950 . S
C4106 C4107 1.349 . S
C4106 C4108 1.327 . S
C4106 H4131 0.950 . S
C4107 C4106 1.349 . S
C4107 C4123 1.349 . S
C4108 C4106 1.327 . S
C4108 C4127 1.429 . S
C4108 H4132 0.950 . S
C4109 C4126 1.574 . S
C4109 C4128 1.368 . S
C4109 H4133 0.949 . S
H4110 C4114 0.949 . S
C4111 C4112 1.349 . S
C4111 C4113 1.327 . S
C4111 H4134 0.950 . S
C4112 C4111 1.349 . S
C4112 C4124 1.349 . S
C4113 C4111 1.327 . S
C4113 C4129 1.429 . S
C4113 H4135 0.950 . S
C4114 H4110 0.949 . S
C4114 C4122 1.574 . S
C4114 C4130 1.368 . S
H4115 C4123 0.950 . S
H4116 C4121 0.950 . S
H4117 C4122 0.949 . S
H4118 C4124 0.950 . S
H4119 C4125 0.950 . S
H4120 C4126 0.949 . S
C4121 H4116 0.950 . S
C4121 C4123 1.327 . S
C4121 C4127 1.429 . S
C4122 C4114 1.574 . S
C4122 H4117 0.949 . S
C4122 C4128 1.368 . S
C4123 C4107 1.349 . S
C4123 H4115 0.950 . S
C4123 C4121 1.327 . S
C4124 C4112 1.349 . S
C4124 H4118 0.950 . S
C4124 C4125 1.327 . S
C4125 H4119 0.950 . S
C4125 C4124 1.327 . S
C4125 C4129 1.429 . S
C4126 C4109 1.574 . S
C4126 H4120 0.949 . S
C4126 C4130 1.368 . S
C4127 C4108 1.429 . S
C4127 C4121 1.429 . S
C4127 C4128 1.523 . S
C4128 C4109 1.368 . S
C4128 C4122 1.368 . S
C4128 C4127 1.523 . S
C4129 C4113 1.429 . S
C4129 C4125 1.429 . S
C4129 C4130 1.523 . S
C4130 C4114 1.368 . S
C4130 C4126 1.368 . S
C4130 C4129 1.523 . S
H4131 C4106 0.950 . S
H4132 C4108 0.950 . S
H4133 C4109 0.949 . S
H4134 C4111 0.950 . S
H4135 C4113 0.950 . S
C4136 C4137 1.349 . S
C4136 C4138 1.327 . S
C4136 H4161 0.950 . S
C4137 C4136 1.349 . S
C4137 C4153 1.349 . S
C4138 C4136 1.327 . S
C4138 C4157 1.429 . S
C4138 H4162 0.950 . S
C4139 C4156 1.574 . S
C4139 C4158 1.374 . S
C4139 H4163 0.949 . S
H4140 C4144 0.949 . S
C4141 C4142 1.349 . S
C4141 C4143 1.327 . S
C4141 H4164 0.950 . S
C4142 C4141 1.349 . S
C4142 C4154 1.349 . S
C4143 C4141 1.327 . S
C4143 C4159 1.429 . S
C4143 H4165 0.950 . S
C4144 H4140 0.949 . S
C4144 C4152 1.574 1_455 S
C4144 C4160 1.368 . S
H4145 C4153 0.950 . S
H4146 C4151 0.950 . S
H4147 C4152 0.949 . S
H4148 C4154 0.950 . S
H4149 C4155 0.950 . S
H4150 C4156 0.949 . S
C4151 H4146 0.950 . S
C4151 C4153 1.327 . S
C4151 C4157 1.429 . S
C4152 C4144 1.574 1_655 S
C4152 H4147 0.949 . S
C4152 C4158 1.367 1_655 S
C4153 C4137 1.349 . S
C4153 H4145 0.950 . S
C4153 C4151 1.327 . S
C4154 C4142 1.349 . S
C4154 H4148 0.950 . S
C4154 C4155 1.327 . S
C4155 H4149 0.950 . S
C4155 C4154 1.327 . S
C4155 C4159 1.429 . S
C4156 C4139 1.574 . S
C4156 H4150 0.949 . S
C4156 C4160 1.368 . S
C4157 C4138 1.429 . S
C4157 C4151 1.429 . S
C4157 C4158 1.516 1_655 S
C4158 C4139 1.374 . S
C4158 C4152 1.367 1_455 S
C4158 C4157 1.516 1_455 S
C4159 C4143 1.429 . S
C4159 C4155 1.429 . S
C4159 C4160 1.523 . S
C4160 C4144 1.368 . S
C4160 C4156 1.368 . S
C4160 C4159 1.523 . S
H4161 C4136 0.950 . S
H4162 C4138 0.950 . S
H4163 C4139 0.949 . S
H4164 C4141 0.950 . S
H4165 C4143 0.950 . S
C4166 C4167 1.349 . S
C4166 C4168 1.327 . S
C4166 H4191 0.950 . S
C4167 C4166 1.349 . S
C4167 C4183 1.349 . S
C4168 C4166 1.327 . S
C4168 C4187 1.429 . S
C4168 H4192 0.950 . S
C4169 C4186 1.574 . S
C4169 C4188 1.368 . S
C4169 H4193 0.949 . S
H4170 C4174 0.949 . S
C4171 C4172 1.349 . S
C4171 C4173 1.327 . S
C4171 H4194 0.950 . S
C4172 C4171 1.349 . S
C4172 C4184 1.349 . S
C4173 C4171 1.327 . S
C4173 C4189 1.429 . S
C4173 H4195 0.950 . S
C4174 H4170 0.949 . S
C4174 C4182 1.574 . S
C4174 C4190 1.368 . S
H4175 C4183 0.950 . S
H4176 C4181 0.950 . S
H4177 C4182 0.949 . S
H4178 C4184 0.950 . S
H4179 C4185 0.950 . S
H4180 C4186 0.949 . S
C4181 H4176 0.950 . S
C4181 C4183 1.327 . S
C4181 C4187 1.429 . S
C4182 C4174 1.574 . S
C4182 H4177 0.949 . S
C4182 C4188 1.368 . S
C4183 C4167 1.349 . S
C4183 H4175 0.950 . S
C4183 C4181 1.327 . S
C4184 C4172 1.349 . S
C4184 H4178 0.950 . S
C4184 C4185 1.327 . S
C4185 H4179 0.950 . S
C4185 C4184 1.327 . S
C4185 C4189 1.429 . S
C4186 C4169 1.574 . S
C4186 H4180 0.949 . S
C4186 C4190 1.368 . S
C4187 C4168 1.429 . S
C4187 C4181 1.429 . S
C4187 C4188 1.523 . S
C4188 C4169 1.368 . S
C4188 C4182 1.368 . S
C4188 C4187 1.523 . S
C4189 C4173 1.429 . S
C4189 C4185 1.429 . S
C4189 C4190 1.523 . S
C4190 C4174 1.368 . S
C4190 C4186 1.368 . S
C4190 C4189 1.523 . S
H4191 C4166 0.950 . S
H4192 C4168 0.950 . S
H4193 C4169 0.949 . S
H4194 C4171 0.950 . S
H4195 C4173 0.950 . S
C4196 C4197 1.349 . S
C4196 C4198 1.327 . S
C4196 H4221 0.950 . S
C4197 C4196 1.349 . S
C4197 C4213 1.349 . S
C4198 C4196 1.327 . S
C4198 C4217 1.429 . S
C4198 H4222 0.950 . S
C4199 C4216 1.574 . S
C4199 C4218 1.368 . S
C4199 H4223 0.949 . S
H4200 C4204 0.949 . S
C4201 C4202 1.349 . S
C4201 C4203 1.327 . S
C4201 H4224 0.950 . S
C4202 C4201 1.349 . S
C4202 C4214 1.349 . S
C4203 C4201 1.327 . S
C4203 C4219 1.429 . S
C4203 H4225 0.950 . S
C4204 H4200 0.949 . S
C4204 C4212 1.574 . S
C4204 C4220 1.368 . S
H4205 C4213 0.950 . S
H4206 C4211 0.950 . S
H4207 C4212 0.949 . S
H4208 C4214 0.950 . S
H4209 C4215 0.950 . S
H4210 C4216 0.949 . S
C4211 H4206 0.950 . S
C4211 C4213 1.327 . S
C4211 C4217 1.429 . S
C4212 C4204 1.574 . S
C4212 H4207 0.949 . S
C4212 C4218 1.368 . S
C4213 C4197 1.349 . S
C4213 H4205 0.950 . S
C4213 C4211 1.327 . S
C4214 C4202 1.349 . S
C4214 H4208 0.950 . S
C4214 C4215 1.327 . S
C4215 H4209 0.950 . S
C4215 C4214 1.327 . S
C4215 C4219 1.429 . S
C4216 C4199 1.574 . S
C4216 H4210 0.949 . S
C4216 C4220 1.368 . S
C4217 C4198 1.429 . S
C4217 C4211 1.429 . S
C4217 C4218 1.523 . S
C4218 C4199 1.368 . S
C4218 C4212 1.368 . S
C4218 C4217 1.523 . S
C4219 C4203 1.429 . S
C4219 C4215 1.429 . S
C4219 C4220 1.523 . S
C4220 C4204 1.368 . S
C4220 C4216 1.368 . S
C4220 C4219 1.523 . S
H4221 C4196 0.950 . S
H4222 C4198 0.950 . S
H4223 C4199 0.949 . S
H4224 C4201 0.950 . S
H4225 C4203 0.950 . S
C4226 C4227 1.349 . S
C4226 C4228 1.327 . S
C4226 H4251 0.950 . S
C4227 C4226 1.349 . S
C4227 C4243 1.349 . S
C4228 C4226 1.327 . S
C4228 C4247 1.429 . S
C4228 H4252 0.950 . S
C4229 C4246 1.574 1_554 S
C4229 C4248 1.371 . S
C4229 H4253 0.949 . S
H4230 C4234 0.949 . S
C4231 C4232 1.349 . S
C4231 C4233 1.327 . S
C4231 H4254 0.950 . S
C4232 C4231 1.349 . S
C4232 C4244 1.349 . S
C4233 C4231 1.327 . S
C4233 C4249 1.429 . S
C4233 H4255 0.950 . S
C4234 H4230 0.949 . S
C4234 C4242 1.574 . S
C4234 C4250 1.368 . S
H4235 C4243 0.950 . S
H4236 C4241 0.950 . S
H4237 C4242 0.949 . S
H4238 C4244 0.950 . S
H4239 C4245 0.950 . S
H4240 C4246 0.949 . S
C4241 H4236 0.950 . S
C4241 C4243 1.327 . S
C4241 C4247 1.429 . S
C4242 C4234 1.574 . S
C4242 H4237 0.949 . S
C4242 C4248 1.352 1_556 S
C4243 C4227 1.349 . S
C4243 H4235 0.950 . S
C4243 C4241 1.327 . S
C4244 C4232 1.349 . S
C4244 H4238 0.950 . S
C4244 C4245 1.327 . S
C4245 H4239 0.950 . S
C4245 C4244 1.327 . S
C4245 C4249 1.429 . S
C4246 C4229 1.574 1_556 S
C4246 H4240 0.949 . S
C4246 C4250 1.368 . S
C4247 C4228 1.429 . S
C4247 C4241 1.429 . S
C4247 C4248 1.541 . S
C4248 C4229 1.371 . S
C4248 C4242 1.352 1_554 S
C4248 C4247 1.541 . S
C4249 C4233 1.429 . S
C4249 C4245 1.429 . S
C4249 C4250 1.523 . S
C4250 C4234 1.368 . S
C4250 C4246 1.368 . S
C4250 C4249 1.523 . S
H4251 C4226 0.950 . S
H4252 C4228 0.950 . S
H4253 C4229 0.949 . S
H4254 C4231 0.950 . S
H4255 C4233 0.950 . S
C4256 C4257 1.349 . S
C4256 C4258 1.327 . S
C4256 H4281 0.950 . S
C4257 C4256 1.349 . S
C4257 C4273 1.349 . S
C4258 C4256 1.327 . S
C4258 C4277 1.429 . S
C4258 H4282 0.950 . S
C4259 C4276 1.574 . S
C4259 C4278 1.368 . S
C4259 H4283 0.949 . S
H4260 C4264 0.949 . S
C4261 C4262 1.349 . S
C4261 C4263 1.327 . S
C4261 H4284 0.950 . S
C4262 C4261 1.349 . S
C4262 C4274 1.349 . S
C4263 C4261 1.327 . S
C4263 C4279 1.429 . S
C4263 H4285 0.950 . S
C4264 H4260 0.949 . S
C4264 C4272 1.574 . S
C4264 C4280 1.368 . S
H4265 C4273 0.950 . S
H4266 C4271 0.950 . S
H4267 C4272 0.949 . S
H4268 C4274 0.950 . S
H4269 C4275 0.950 . S
H4270 C4276 0.949 . S
C4271 H4266 0.950 . S
C4271 C4273 1.327 . S
C4271 C4277 1.429 . S
C4272 C4264 1.574 . S
C4272 H4267 0.949 . S
C4272 C4278 1.368 . S
C4273 C4257 1.349 . S
C4273 H4265 0.950 . S
C4273 C4271 1.327 . S
C4274 C4262 1.349 . S
C4274 H4268 0.950 . S
C4274 C4275 1.327 . S
C4275 H4269 0.950 . S
C4275 C4274 1.327 . S
C4275 C4279 1.429 . S
C4276 C4259 1.574 . S
C4276 H4270 0.949 . S
C4276 C4280 1.368 . S
C4277 C4258 1.429 . S
C4277 C4271 1.429 . S
C4277 C4278 1.523 . S
C4278 C4259 1.368 . S
C4278 C4272 1.368 . S
C4278 C4277 1.523 . S
C4279 C4263 1.429 . S
C4279 C4275 1.429 . S
C4279 C4280 1.523 . S
C4280 C4264 1.368 . S
C4280 C4276 1.368 . S
C4280 C4279 1.523 . S
H4281 C4256 0.950 . S
H4282 C4258 0.950 . S
H4283 C4259 0.949 . S
H4284 C4261 0.950 . S
H4285 C4263 0.950 . S
C4286 C4287 1.349 . S
C4286 C4288 1.327 . S
C4286 H4311 0.950 . S
C4287 C4286 1.349 . S
C4287 C4303 1.349 . S
C4288 C4286 1.327 . S
C4288 C4307 1.429 . S
C4288 H4312 0.950 . S
C4289 C4306 1.574 . S
C4289 C4308 1.368 . S
C4289 H4313 0.949 . S
H4290 C4294 0.949 . S
C4291 C4292 1.349 . S
C4291 C4293 1.327 . S
C4291 H4314 0.950 . S
C4292 C4291 1.349 . S
C4292 C4304 1.349 . S
C4293 C4291 1.327 . S
C4293 C4309 1.429 . S
C4293 H4315 0.950 . S
C4294 H4290 0.949 . S
C4294 C4302 1.574 . S
C4294 C4310 1.368 . S
H4295 C4303 0.950 . S
H4296 C4301 0.950 . S
H4297 C4302 0.949 . S
H4298 C4304 0.950 . S
H4299 C4305 0.950 . S
H4300 C4306 0.949 . S
C4301 H4296 0.950 . S
C4301 C4303 1.327 . S
C4301 C4307 1.429 . S
C4302 C4294 1.574 . S
C4302 H4297 0.949 . S
C4302 C4308 1.368 . S
C4303 C4287 1.349 . S
C4303 H4295 0.950 . S
C4303 C4301 1.327 . S
C4304 C4292 1.349 . S
C4304 H4298 0.950 . S
C4304 C4305 1.327 . S
C4305 H4299 0.950 . S
C4305 C4304 1.327 . S
C4305 C4309 1.429 . S
C4306 C4289 1.574 . S
C4306 H4300 0.949 . S
C4306 C4310 1.368 . S
C4307 C4288 1.429 . S
C4307 C4301 1.429 . S
C4307 C4308 1.523 . S
C4308 C4289 1.368 . S
C4308 C4302 1.368 . S
C4308 C4307 1.523 . S
C4309 C4293 1.429 . S
C4309 C4305 1.429 . S
C4309 C4310 1.523 . S
C4310 C4294 1.368 . S
C4310 C4306 1.368 . S
C4310 C4309 1.523 . S
H4311 C4286 0.950 . S
H4312 C4288 0.950 . S
H4313 C4289 0.949 . S
H4314 C4291 0.950 . S
H4315 C4293 0.950 . S
C4316 C4317 1.349 . S
C4316 C4318 1.327 . S
C4316 H4341 0.950 . S
C4317 C4316 1.349 . S
C4317 C4333 1.349 . S
C4318 C4316 1.327 . S
C4318 C4337 1.429 . S
C4318 H4342 0.950 . S
C4319 C4336 1.574 . S
C4319 C4338 1.368 . S
C4319 H4343 0.949 . S
H4320 C4324 0.949 . S
C4321 C4322 1.349 . S
C4321 C4323 1.327 . S
C4321 H4344 0.950 . S
C4322 C4321 1.349 . S
C4322 C4334 1.349 . S
C4323 C4321 1.327 . S
C4323 C4339 1.429 . S
C4323 H4345 0.950 . S
C4324 H4320 0.949 . S
C4324 C4332 1.574 . S
C4324 C4340 1.368 . S
H4325 C4333 0.950 . S
H4326 C4331 0.950 . S
H4327 C4332 0.949 . S
H4328 C4334 0.950 . S
H4329 C4335 0.950 . S
H4330 C4336 0.949 . S
C4331 H4326 0.950 . S
C4331 C4333 1.327 . S
C4331 C4337 1.429 . S
C4332 C4324 1.574 . S
C4332 H4327 0.949 . S
C4332 C4338 1.368 . S
C4333 C4317 1.349 . S
C4333 H4325 0.950 . S
C4333 C4331 1.327 . S
C4334 C4322 1.349 . S
C4334 H4328 0.950 . S
C4334 C4335 1.327 . S
C4335 H4329 0.950 . S
C4335 C4334 1.327 . S
C4335 C4339 1.429 . S
C4336 C4319 1.574 . S
C4336 H4330 0.949 . S
C4336 C4340 1.368 . S
C4337 C4318 1.429 . S
C4337 C4331 1.429 . S
C4337 C4338 1.523 . S
C4338 C4319 1.368 . S
C4338 C4332 1.368 . S
C4338 C4337 1.523 . S
C4339 C4323 1.429 . S
C4339 C4335 1.429 . S
C4339 C4340 1.523 . S
C4340 C4324 1.368 . S
C4340 C4336 1.368 . S
C4340 C4339 1.523 . S
H4341 C4316 0.950 . S
H4342 C4318 0.950 . S
H4343 C4319 0.949 . S
H4344 C4321 0.950 . S
H4345 C4323 0.950 . S
C4346 C4347 1.349 . S
C4346 C4348 1.327 . S
C4346 H4371 0.950 . S
C4347 C4346 1.349 . S
C4347 C4363 1.349 . S
C4348 C4346 1.327 . S
C4348 C4367 1.429 . S
C4348 H4372 0.950 . S
C4349 C4366 1.574 1_554 S
C4349 C4368 1.368 . S
C4349 H4373 0.949 . S
H4350 C4354 0.949 . S
C4351 C4352 1.349 . S
C4351 C4353 1.327 . S
C4351 H4374 0.950 . S
C4352 C4351 1.349 . S
C4352 C4364 1.349 . S
C4353 C4351 1.327 . S
C4353 C4369 1.429 . S
C4353 H4375 0.950 . S
C4354 H4350 0.949 . S
C4354 C4362 1.574 . S
C4354 C4370 1.351 1_554 S
H4355 C4363 0.950 . S
H4356 C4361 0.950 . S
H4357 C4362 0.949 . S
H4358 C4364 0.950 . S
H4359 C4365 0.950 . S
H4360 C4366 0.949 . S
C4361 H4356 0.950 . S
C4361 C4363 1.327 . S
C4361 C4367 1.429 . S
C4362 C4354 1.574 . S
C4362 H4357 0.949 . S
C4362 C4368 1.368 . S
C4363 C4347 1.349 . S
C4363 H4355 0.950 . S
C4363 C4361 1.327 . S
C4364 C4352 1.349 . S
C4364 H4358 0.950 . S
C4364 C4365 1.327 . S
C4365 H4359 0.950 . S
C4365 C4364 1.327 . S
C4365 C4369 1.429 . S
C4366 C4349 1.574 1_556 S
C4366 H4360 0.949 . S
C4366 C4370 1.372 . S
C4367 C4348 1.429 . S
C4367 C4361 1.429 . S
C4367 C4368 1.523 . S
C4368 C4349 1.368 . S
C4368 C4362 1.368 . S
C4368 C4367 1.523 . S
C4369 C4353 1.429 . S
C4369 C4365 1.429 . S
C4369 C4370 1.541 . S
C4370 C4354 1.351 1_556 S
C4370 C4366 1.372 . S
C4370 C4369 1.541 . S
H4371 C4346 0.950 . S
H4372 C4348 0.950 . S
H4373 C4349 0.949 . S
H4374 C4351 0.950 . S
H4375 C4353 0.950 . S
C4376 C4377 1.349 . S
C4376 C4378 1.327 . S
C4376 H4401 0.950 . S
C4377 C4376 1.349 . S
C4377 C4393 1.349 . S
C4378 C4376 1.327 . S
C4378 C4397 1.429 . S
C4378 H4402 0.950 . S
C4379 C4396 1.574 . S
C4379 C4398 1.368 . S
C4379 H4403 0.949 . S
H4380 C4384 0.949 . S
C4381 C4382 1.349 . S
C4381 C4383 1.327 . S
C4381 H4404 0.950 . S
C4382 C4381 1.349 . S
C4382 C4394 1.349 . S
C4383 C4381 1.327 . S
C4383 C4399 1.429 . S
C4383 H4405 0.950 . S
C4384 H4380 0.949 . S
C4384 C4392 1.574 . S
C4384 C4400 1.368 . S
H4385 C4393 0.950 . S
H4386 C4391 0.950 . S
H4387 C4392 0.949 . S
H4388 C4394 0.950 . S
H4389 C4395 0.950 . S
H4390 C4396 0.949 . S
C4391 H4386 0.950 . S
C4391 C4393 1.327 . S
C4391 C4397 1.429 . S
C4392 C4384 1.574 . S
C4392 H4387 0.949 . S
C4392 C4398 1.368 . S
C4393 C4377 1.349 . S
C4393 H4385 0.950 . S
C4393 C4391 1.327 . S
C4394 C4382 1.349 . S
C4394 H4388 0.950 . S
C4394 C4395 1.327 . S
C4395 H4389 0.950 . S
C4395 C4394 1.327 . S
C4395 C4399 1.429 . S
C4396 C4379 1.574 . S
C4396 H4390 0.949 . S
C4396 C4400 1.368 . S
C4397 C4378 1.429 . S
C4397 C4391 1.429 . S
C4397 C4398 1.523 . S
C4398 C4379 1.368 . S
C4398 C4392 1.368 . S
C4398 C4397 1.523 . S
C4399 C4383 1.429 . S
C4399 C4395 1.429 . S
C4399 C4400 1.523 . S
C4400 C4384 1.368 . S
C4400 C4396 1.368 . S
C4400 C4399 1.523 . S
H4401 C4376 0.950 . S
H4402 C4378 0.950 . S
H4403 C4379 0.949 . S
H4404 C4381 0.950 . S
H4405 C4383 0.950 . S
C4406 C4407 1.349 . S
C4406 C4408 1.327 . S
C4406 H4431 0.950 . S
C4407 C4406 1.349 . S
C4407 C4423 1.349 . S
C4408 C4406 1.327 . S
C4408 C4427 1.429 . S
C4408 H4432 0.950 . S
C4409 C4426 1.574 . S
C4409 C4428 1.368 . S
C4409 H4433 0.949 . S
H4410 C4414 0.949 . S
C4411 C4412 1.349 . S
C4411 C4413 1.327 . S
C4411 H4434 0.950 . S
C4412 C4411 1.349 . S
C4412 C4424 1.349 . S
C4413 C4411 1.327 . S
C4413 C4429 1.429 . S
C4413 H4435 0.950 . S
C4414 H4410 0.949 . S
C4414 C4422 1.574 . S
C4414 C4430 1.368 . S
H4415 C4423 0.950 . S
H4416 C4421 0.950 . S
H4417 C4422 0.949 . S
H4418 C4424 0.950 . S
H4419 C4425 0.950 . S
H4420 C4426 0.949 . S
C4421 H4416 0.950 . S
C4421 C4423 1.327 . S
C4421 C4427 1.429 . S
C4422 C4414 1.574 . S
C4422 H4417 0.949 . S
C4422 C4428 1.368 . S
C4423 C4407 1.349 . S
C4423 H4415 0.950 . S
C4423 C4421 1.327 . S
C4424 C4412 1.349 . S
C4424 H4418 0.950 . S
C4424 C4425 1.327 . S
C4425 H4419 0.950 . S
C4425 C4424 1.327 . S
C4425 C4429 1.429 . S
C4426 C4409 1.574 . S
C4426 H4420 0.949 . S
C4426 C4430 1.368 . S
C4427 C4408 1.429 . S
C4427 C4421 1.429 . S
C4427 C4428 1.523 . S
C4428 C4409 1.368 . S
C4428 C4422 1.368 . S
C4428 C4427 1.523 . S
C4429 C4413 1.429 . S
C4429 C4425 1.429 . S
C4429 C4430 1.523 . S
C4430 C4414 1.368 . S
C4430 C4426 1.368 . S
C4430 C4429 1.523 . S
H4431 C4406 0.950 . S
H4432 C4408 0.950 . S
H4433 C4409 0.949 . S
H4434 C4411 0.950 . S
H4435 C4413 0.950 . S
C4436 C4437 1.349 . S
C4436 C4438 1.327 . S
C4436 H4461 0.950 . S
C4437 C4436 1.349 . S
C4437 C4453 1.349 . S
C4438 C4436 1.327 . S
C4438 C4457 1.429 . S
C4438 H4462 0.950 . S
C4439 C4456 1.574 . S
C4439 C4458 1.368 . S
C4439 H4463 0.949 . S
H4440 C4444 0.949 . S
C4441 C4442 1.349 . S
C4441 C4443 1.327 . S
C4441 H4464 0.950 . S
C4442 C4441 1.349 . S
C4442 C4454 1.349 . S
C4443 C4441 1.327 . S
C4443 C4459 1.429 . S
C4443 H4465 0.950 . S
C4444 H4440 0.949 . S
C4444 C4452 1.574 . S
C4444 C4460 1.368 . S
H4445 C4453 0.950 . S
H4446 C4451 0.950 . S
H4447 C4452 0.949 . S
H4448 C4454 0.950 . S
H4449 C4455 0.950 . S
H4450 C4456 0.949 . S
C4451 H4446 0.950 . S
C4451 C4453 1.327 . S
C4451 C4457 1.429 . S
C4452 C4444 1.574 . S
C4452 H4447 0.949 . S
C4452 C4458 1.368 . S
C4453 C4437 1.349 . S
C4453 H4445 0.950 . S
C4453 C4451 1.327 . S
C4454 C4442 1.349 . S
C4454 H4448 0.950 . S
C4454 C4455 1.327 . S
C4455 H4449 0.950 . S
C4455 C4454 1.327 . S
C4455 C4459 1.429 . S
C4456 C4439 1.574 . S
C4456 H4450 0.949 . S
C4456 C4460 1.368 . S
C4457 C4438 1.429 . S
C4457 C4451 1.429 . S
C4457 C4458 1.523 . S
C4458 C4439 1.368 . S
C4458 C4452 1.368 . S
C4458 C4457 1.523 . S
C4459 C4443 1.429 . S
C4459 C4455 1.429 . S
C4459 C4460 1.523 . S
C4460 C4444 1.368 . S
C4460 C4456 1.368 . S
C4460 C4459 1.523 . S
H4461 C4436 0.950 . S
H4462 C4438 0.950 . S
H4463 C4439 0.949 . S
H4464 C4441 0.950 . S
H4465 C4443 0.950 . S
C4466 C4467 1.349 . S
C4466 C4468 1.327 . S
C4466 H4491 0.950 . S
C4467 C4466 1.349 . S
C4467 C4483 1.349 . S
C4468 C4466 1.327 . S
C4468 C4487 1.429 . S
C4468 H4492 0.950 . S
C4469 C4486 1.574 . S
C4469 C4488 1.368 . S
C4469 H4493 0.949 . S
H4470 C4474 0.949 . S
C4471 C4472 1.349 . S
C4471 C4473 1.327 . S
C4471 H4494 0.950 . S
C4472 C4471 1.349 . S
C4472 C4484 1.349 . S
C4473 C4471 1.327 . S
C4473 C4489 1.429 . S
C4473 H4495 0.950 . S
C4474 H4470 0.949 . S
C4474 C4482 1.574 . S
C4474 C4490 1.368 . S
H4475 C4483 0.950 . S
H4476 C4481 0.950 . S
H4477 C4482 0.949 . S
H4478 C4484 0.950 . S
H4479 C4485 0.950 . S
H4480 C4486 0.949 . S
C4481 H4476 0.950 . S
C4481 C4483 1.327 . S
C4481 C4487 1.429 . S
C4482 C4474 1.574 . S
C4482 H4477 0.949 . S
C4482 C4488 1.368 . S
C4483 C4467 1.349 . S
C4483 H4475 0.950 . S
C4483 C4481 1.327 . S
C4484 C4472 1.349 . S
C4484 H4478 0.950 . S
C4484 C4485 1.327 . S
C4485 H4479 0.950 . S
C4485 C4484 1.327 . S
C4485 C4489 1.429 . S
C4486 C4469 1.574 . S
C4486 H4480 0.949 . S
C4486 C4490 1.368 . S
C4487 C4468 1.429 . S
C4487 C4481 1.429 . S
C4487 C4488 1.523 . S
C4488 C4469 1.368 . S
C4488 C4482 1.368 . S
C4488 C4487 1.523 . S
C4489 C4473 1.429 . S
C4489 C4485 1.429 . S
C4489 C4490 1.523 . S
C4490 C4474 1.368 . S
C4490 C4486 1.368 . S
C4490 C4489 1.523 . S
H4491 C4466 0.950 . S
H4492 C4468 0.950 . S
H4493 C4469 0.949 . S
H4494 C4471 0.950 . S
H4495 C4473 0.950 . S
C4496 C4497 1.349 . S
C4496 C4498 1.327 . S
C4496 H4521 0.950 . S
C4497 C4496 1.349 . S
C4497 C4513 1.349 . S
C4498 C4496 1.327 . S
C4498 C4517 1.429 . S
C4498 H4522 0.950 . S
C4499 C4516 1.574 . S
C4499 C4518 1.368 . S
C4499 H4523 0.949 . S
H4500 C4504 0.949 . S
C4501 C4502 1.349 . S
C4501 C4503 1.327 . S
C4501 H4524 0.950 . S
C4502 C4501 1.349 . S
C4502 C4514 1.349 . S
C4503 C4501 1.327 . S
C4503 C4519 1.429 . S
C4503 H4525 0.950 . S
C4504 H4500 0.949 . S
C4504 C4512 1.574 1_556 S
C4504 C4520 1.373 . S
H4505 C4513 0.950 . S
H4506 C4511 0.950 . S
H4507 C4512 0.949 . S
H4508 C4514 0.950 . S
H4509 C4515 0.950 . S
H4510 C4516 0.949 . S
C4511 H4506 0.950 . S
C4511 C4513 1.327 . S
C4511 C4517 1.429 . S
C4512 C4504 1.574 1_554 S
C4512 H4507 0.949 . S
C4512 C4518 1.368 . S
C4513 C4497 1.349 . S
C4513 H4505 0.950 . S
C4513 C4511 1.327 . S
C4514 C4502 1.349 . S
C4514 H4508 0.950 . S
C4514 C4515 1.327 . S
C4515 H4509 0.950 . S
C4515 C4514 1.327 . S
C4515 C4519 1.429 . S
C4516 C4499 1.574 . S
C4516 H4510 0.949 . S
C4516 C4520 1.337 1_554 S
C4517 C4498 1.429 . S
C4517 C4511 1.429 . S
C4517 C4518 1.523 . S
C4518 C4499 1.368 . S
C4518 C4512 1.368 . S
C4518 C4517 1.523 . S
C4519 C4503 1.429 . S
C4519 C4515 1.429 . S
C4519 C4520 1.560 . S
C4520 C4504 1.373 . S
C4520 C4516 1.337 1_556 S
C4520 C4519 1.560 . S
H4521 C4496 0.950 . S
H4522 C4498 0.950 . S
H4523 C4499 0.949 . S
H4524 C4501 0.950 . S
H4525 C4503 0.950 . S
C4526 C4527 1.349 . S
C4526 C4528 1.327 . S
C4526 H4551 0.950 . S
C4527 C4526 1.349 . S
C4527 C4543 1.349 . S
C4528 C4526 1.327 . S
C4528 C4547 1.429 . S
C4528 H4552 0.950 . S
C4529 C4546 1.574 . S
C4529 C4548 1.368 . S
C4529 H4553 0.949 . S
H4530 C4534 0.949 . S
C4531 C4532 1.349 . S
C4531 C4533 1.327 . S
C4531 H4554 0.950 . S
C4532 C4531 1.349 . S
C4532 C4544 1.349 . S
C4533 C4531 1.327 . S
C4533 C4549 1.429 . S
C4533 H4555 0.950 . S
C4534 H4530 0.949 . S
C4534 C4542 1.574 . S
C4534 C4550 1.368 . S
H4535 C4543 0.950 . S
H4536 C4541 0.950 . S
H4537 C4542 0.949 . S
H4538 C4544 0.950 . S
H4539 C4545 0.950 . S
H4540 C4546 0.949 . S
C4541 H4536 0.950 . S
C4541 C4543 1.327 . S
C4541 C4547 1.429 . S
C4542 C4534 1.574 . S
C4542 H4537 0.949 . S
C4542 C4548 1.368 . S
C4543 C4527 1.349 . S
C4543 H4535 0.950 . S
C4543 C4541 1.327 . S
C4544 C4532 1.349 . S
C4544 H4538 0.950 . S
C4544 C4545 1.327 . S
C4545 H4539 0.950 . S
C4545 C4544 1.327 . S
C4545 C4549 1.429 . S
C4546 C4529 1.574 . S
C4546 H4540 0.949 . S
C4546 C4550 1.368 . S
C4547 C4528 1.429 . S
C4547 C4541 1.429 . S
C4547 C4548 1.523 . S
C4548 C4529 1.368 . S
C4548 C4542 1.368 . S
C4548 C4547 1.523 . S
C4549 C4533 1.429 . S
C4549 C4545 1.429 . S
C4549 C4550 1.523 . S
C4550 C4534 1.368 . S
C4550 C4546 1.368 . S
C4550 C4549 1.523 . S
H4551 C4526 0.950 . S
H4552 C4528 0.950 . S
H4553 C4529 0.949 . S
H4554 C4531 0.950 . S
H4555 C4533 0.950 . S
C4556 C4557 1.349 . S
C4556 C4558 1.327 . S
C4556 H4581 0.950 . S
C4557 C4556 1.349 . S
C4557 C4573 1.349 . S
C4558 C4556 1.327 . S
C4558 C4577 1.429 . S
C4558 H4582 0.950 . S
C4559 C4576 1.574 . S
C4559 C4578 1.368 . S
C4559 H4583 0.949 . S
H4560 C4564 0.949 . S
C4561 C4562 1.349 . S
C4561 C4563 1.327 . S
C4561 H4584 0.950 . S
C4562 C4561 1.349 . S
C4562 C4574 1.349 . S
C4563 C4561 1.327 . S
C4563 C4579 1.429 . S
C4563 H4585 0.950 . S
C4564 H4560 0.949 . S
C4564 C4572 1.574 . S
C4564 C4580 1.368 . S
H4565 C4573 0.950 . S
H4566 C4571 0.950 . S
H4567 C4572 0.949 . S
H4568 C4574 0.950 . S
H4569 C4575 0.950 . S
H4570 C4576 0.949 . S
C4571 H4566 0.950 . S
C4571 C4573 1.327 . S
C4571 C4577 1.429 . S
C4572 C4564 1.574 . S
C4572 H4567 0.949 . S
C4572 C4578 1.368 . S
C4573 C4557 1.349 . S
C4573 H4565 0.950 . S
C4573 C4571 1.327 . S
C4574 C4562 1.349 . S
C4574 H4568 0.950 . S
C4574 C4575 1.327 . S
C4575 H4569 0.950 . S
C4575 C4574 1.327 . S
C4575 C4579 1.429 . S
C4576 C4559 1.574 . S
C4576 H4570 0.949 . S
C4576 C4580 1.368 . S
C4577 C4558 1.429 . S
C4577 C4571 1.429 . S
C4577 C4578 1.523 . S
C4578 C4559 1.368 . S
C4578 C4572 1.368 . S
C4578 C4577 1.523 . S
C4579 C4563 1.429 . S
C4579 C4575 1.429 . S
C4579 C4580 1.523 . S
C4580 C4564 1.368 . S
C4580 C4576 1.368 . S
C4580 C4579 1.523 . S
H4581 C4556 0.950 . S
H4582 C4558 0.950 . S
H4583 C4559 0.949 . S
H4584 C4561 0.950 . S
H4585 C4563 0.950 . S
C4586 C4587 1.349 . S
C4586 C4588 1.327 . S
C4586 H4611 0.950 . S
C4587 C4586 1.349 . S
C4587 C4603 1.349 . S
C4588 C4586 1.327 . S
C4588 C4607 1.429 . S
C4588 H4612 0.950 . S
C4589 C4606 1.574 . S
C4589 C4608 1.368 . S
C4589 H4613 0.949 . S
H4590 C4594 0.949 . S
C4591 C4592 1.349 . S
C4591 C4593 1.327 . S
C4591 H4614 0.950 . S
C4592 C4591 1.349 . S
C4592 C4604 1.349 . S
C4593 C4591 1.327 . S
C4593 C4609 1.429 . S
C4593 H4615 0.950 . S
C4594 H4590 0.949 . S
C4594 C4602 1.574 . S
C4594 C4610 1.368 . S
H4595 C4603 0.950 . S
H4596 C4601 0.950 . S
H4597 C4602 0.949 . S
H4598 C4604 0.950 . S
H4599 C4605 0.950 . S
H4600 C4606 0.949 . S
C4601 H4596 0.950 . S
C4601 C4603 1.327 . S
C4601 C4607 1.429 . S
C4602 C4594 1.574 . S
C4602 H4597 0.949 . S
C4602 C4608 1.368 . S
C4603 C4587 1.349 . S
C4603 H4595 0.950 . S
C4603 C4601 1.327 . S
C4604 C4592 1.349 . S
C4604 H4598 0.950 . S
C4604 C4605 1.327 . S
C4605 H4599 0.950 . S
C4605 C4604 1.327 . S
C4605 C4609 1.429 . S
C4606 C4589 1.574 . S
C4606 H4600 0.949 . S
C4606 C4610 1.368 . S
C4607 C4588 1.429 . S
C4607 C4601 1.429 . S
C4607 C4608 1.523 . S
C4608 C4589 1.368 . S
C4608 C4602 1.368 . S
C4608 C4607 1.523 . S
C4609 C4593 1.429 . S
C4609 C4605 1.429 . S
C4609 C4610 1.523 . S
C4610 C4594 1.368 . S
C4610 C4606 1.368 . S
C4610 C4609 1.523 . S
H4611 C4586 0.950 . S
H4612 C4588 0.950 . S
H4613 C4589 0.949 . S
H4614 C4591 0.950 . S
H4615 C4593 0.950 . S
C4616 C4617 1.349 . S
C4616 C4618 1.327 . S
C4616 H4641 0.950 . S
C4617 C4616 1.349 . S
C4617 C4633 1.349 . S
C4618 C4616 1.327 . S
C4618 C4637 1.429 . S
C4618 H4642 0.950 . S
C4619 C4636 1.574 1_554 S
C4619 C4638 1.376 . S
C4619 H4643 0.949 . S
H4620 C4624 0.949 . S
C4621 C4622 1.349 . S
C4621 C4623 1.327 . S
C4621 H4644 0.950 . S
C4622 C4621 1.349 . S
C4622 C4634 1.349 . S
C4623 C4621 1.327 . S
C4623 C4639 1.429 . S
C4623 H4645 0.950 . S
C4624 H4620 0.949 . S
C4624 C4632 1.574 . S
C4624 C4640 1.368 . S
H4625 C4633 0.950 . S
H4626 C4631 0.950 . S
H4627 C4632 0.949 . S
H4628 C4634 0.950 . S
H4629 C4635 0.950 . S
H4630 C4636 0.949 . S
C4631 H4626 0.950 . S
C4631 C4633 1.327 . S
C4631 C4637 1.429 . S
C4632 C4624 1.574 . S
C4632 H4627 0.949 . S
C4632 C4638 1.334 1_556 S
C4633 C4617 1.349 . S
C4633 H4625 0.950 . S
C4633 C4631 1.327 . S
C4634 C4622 1.349 . S
C4634 H4628 0.950 . S
C4634 C4635 1.327 . S
C4635 H4629 0.950 . S
C4635 C4634 1.327 . S
C4635 C4639 1.429 . S
C4636 C4619 1.574 1_556 S
C4636 H4630 0.949 . S
C4636 C4640 1.368 . S
C4637 C4618 1.429 . S
C4637 C4631 1.429 . S
C4637 C4638 1.560 . S
C4638 C4619 1.376 . S
C4638 C4632 1.334 1_554 S
C4638 C4637 1.560 . S
C4639 C4623 1.429 . S
C4639 C4635 1.429 . S
C4639 C4640 1.523 . S
C4640 C4624 1.368 . S
C4640 C4636 1.368 . S
C4640 C4639 1.523 . S
H4641 C4616 0.950 . S
H4642 C4618 0.950 . S
H4643 C4619 0.949 . S
H4644 C4621 0.950 . S
H4645 C4623 0.950 . S
C4646 C4647 1.349 . S
C4646 C4648 1.327 . S
C4646 H4671 0.950 . S
C4647 C4646 1.349 . S
C4647 C4663 1.349 . S
C4648 C4646 1.327 . S
C4648 C4667 1.429 . S
C4648 H4672 0.950 . S
C4649 C4666 1.574 . S
C4649 C4668 1.368 . S
C4649 H4673 0.949 . S
H4650 C4654 0.949 . S
C4651 C4652 1.349 . S
C4651 C4653 1.327 . S
C4651 H4674 0.950 . S
C4652 C4651 1.349 . S
C4652 C4664 1.349 . S
C4653 C4651 1.327 . S
C4653 C4669 1.429 . S
C4653 H4675 0.950 . S
C4654 H4650 0.949 . S
C4654 C4662 1.574 . S
C4654 C4670 1.368 . S
H4655 C4663 0.950 . S
H4656 C4661 0.950 . S
H4657 C4662 0.949 . S
H4658 C4664 0.950 . S
H4659 C4665 0.950 . S
H4660 C4666 0.949 . S
C4661 H4656 0.950 . S
C4661 C4663 1.327 . S
C4661 C4667 1.429 . S
C4662 C4654 1.574 . S
C4662 H4657 0.949 . S
C4662 C4668 1.368 . S
C4663 C4647 1.349 . S
C4663 H4655 0.950 . S
C4663 C4661 1.327 . S
C4664 C4652 1.349 . S
C4664 H4658 0.950 . S
C4664 C4665 1.327 . S
C4665 H4659 0.950 . S
C4665 C4664 1.327 . S
C4665 C4669 1.429 . S
C4666 C4649 1.574 . S
C4666 H4660 0.949 . S
C4666 C4670 1.368 . S
C4667 C4648 1.429 . S
C4667 C4661 1.429 . S
C4667 C4668 1.523 . S
C4668 C4649 1.368 . S
C4668 C4662 1.368 . S
C4668 C4667 1.523 . S
C4669 C4653 1.429 . S
C4669 C4665 1.429 . S
C4669 C4670 1.523 . S
C4670 C4654 1.368 . S
C4670 C4666 1.368 . S
C4670 C4669 1.523 . S
H4671 C4646 0.950 . S
H4672 C4648 0.950 . S
H4673 C4649 0.949 . S
H4674 C4651 0.950 . S
H4675 C4653 0.950 . S
C4676 C4677 1.349 . S
C4676 C4678 1.327 . S
C4676 H4701 0.950 . S
C4677 C4676 1.349 . S
C4677 C4693 1.349 . S
C4678 C4676 1.327 . S
C4678 C4697 1.429 . S
C4678 H4702 0.950 . S
C4679 C4696 1.574 . S
C4679 C4698 1.368 . S
C4679 H4703 0.949 . S
H4680 C4684 0.949 . S
C4681 C4682 1.349 . S
C4681 C4683 1.327 . S
C4681 H4704 0.950 . S
C4682 C4681 1.349 . S
C4682 C4694 1.349 . S
C4683 C4681 1.327 . S
C4683 C4699 1.429 . S
C4683 H4705 0.950 . S
C4684 H4680 0.949 . S
C4684 C4692 1.574 . S
C4684 C4700 1.368 . S
H4685 C4693 0.950 . S
H4686 C4691 0.950 . S
H4687 C4692 0.949 . S
H4688 C4694 0.950 . S
H4689 C4695 0.950 . S
H4690 C4696 0.949 . S
C4691 H4686 0.950 . S
C4691 C4693 1.327 . S
C4691 C4697 1.429 . S
C4692 C4684 1.574 . S
C4692 H4687 0.949 . S
C4692 C4698 1.368 . S
C4693 C4677 1.349 . S
C4693 H4685 0.950 . S
C4693 C4691 1.327 . S
C4694 C4682 1.349 . S
C4694 H4688 0.950 . S
C4694 C4695 1.327 . S
C4695 H4689 0.950 . S
C4695 C4694 1.327 . S
C4695 C4699 1.429 . S
C4696 C4679 1.574 . S
C4696 H4690 0.949 . S
C4696 C4700 1.368 . S
C4697 C4678 1.429 . S
C4697 C4691 1.429 . S
C4697 C4698 1.523 . S
C4698 C4679 1.368 . S
C4698 C4692 1.368 . S
C4698 C4697 1.523 . S
C4699 C4683 1.429 . S
C4699 C4695 1.429 . S
C4699 C4700 1.523 . S
C4700 C4684 1.368 . S
C4700 C4696 1.368 . S
C4700 C4699 1.523 . S
H4701 C4676 0.950 . S
H4702 C4678 0.950 . S
H4703 C4679 0.949 . S
H4704 C4681 0.950 . S
H4705 C4683 0.950 . S
C4706 C4707 1.349 . S
C4706 C4708 1.327 . S
C4706 H4731 0.950 . S
C4707 C4706 1.349 . S
C4707 C4723 1.349 . S
C4708 C4706 1.327 . S
C4708 C4727 1.429 . S
C4708 H4732 0.950 . S
C4709 C4726 1.574 . S
C4709 C4728 1.368 . S
C4709 H4733 0.949 . S
H4710 C4714 0.949 . S
C4711 C4712 1.349 . S
C4711 C4713 1.327 . S
C4711 H4734 0.950 . S
C4712 C4711 1.349 . S
C4712 C4724 1.349 . S
C4713 C4711 1.327 . S
C4713 C4729 1.429 . S
C4713 H4735 0.950 . S
C4714 H4710 0.949 . S
C4714 C4722 1.574 . S
C4714 C4730 1.368 . S
H4715 C4723 0.950 . S
H4716 C4721 0.950 . S
H4717 C4722 0.949 . S
H4718 C4724 0.950 . S
H4719 C4725 0.950 . S
H4720 C4726 0.949 . S
C4721 H4716 0.950 . S
C4721 C4723 1.327 . S
C4721 C4727 1.429 . S
C4722 C4714 1.574 . S
C4722 H4717 0.949 . S
C4722 C4728 1.368 . S
C4723 C4707 1.349 . S
C4723 H4715 0.950 . S
C4723 C4721 1.327 . S
C4724 C4712 1.349 . S
C4724 H4718 0.950 . S
C4724 C4725 1.327 . S
C4725 H4719 0.950 . S
C4725 C4724 1.327 . S
C4725 C4729 1.429 . S
C4726 C4709 1.574 . S
C4726 H4720 0.949 . S
C4726 C4730 1.368 . S
C4727 C4708 1.429 . S
C4727 C4721 1.429 . S
C4727 C4728 1.523 . S
C4728 C4709 1.368 . S
C4728 C4722 1.368 . S
C4728 C4727 1.523 . S
C4729 C4713 1.429 . S
C4729 C4725 1.429 . S
C4729 C4730 1.523 . S
C4730 C4714 1.368 . S
C4730 C4726 1.368 . S
C4730 C4729 1.523 . S
H4731 C4706 0.950 . S
H4732 C4708 0.950 . S
H4733 C4709 0.949 . S
H4734 C4711 0.950 . S
H4735 C4713 0.950 . S
C2817 C57 0.812 . S
C2822 C1193 0.812 . S
C2847 C2220 0.812 . S
C2852 C145 0.812 . S
C2877 C225 0.812 . S
C2882 C1377 0.812 . S
C2907 C313 0.812 . S
C2912 C2132 0.812 . S
C2937 C372 0.812 . S
C2942 C1525 0.812 . S
C2967 C460 0.812 . S
C2972 C1993 0.812 . S
C2997 C557 0.812 . S
C3002 C1692 0.812 . S
C3027 C2785 0.812 . S
C3032 C645 0.812 . S
C3057 C1877 0.812 . S
C3062 C733 0.812 . S
C3087 C812 0.812 . S
C3092 C1633 0.812 . S
C3117 C2053 0.812 . S
C3122 C909 0.812 . S
C3147 C1025 0.812 . S
C3152 C1437 0.812 . S
C3177 C1252 0.812 . S
C3182 C1105 0.812 . S
C3207 C1809 0.812 . S
C3212 C2484 0.812 . S
C3237 C2601 0.812 . S
C3242 C2345 0.812 . S
C3267 C2689 0.812 . S
C3272 C2425 0.812 . S
C3297 C29 1.638 . S
C3302 C117 1.638 . S
C3327 C233 1.654 . S
C3332 C108 1.653 . S
C3357 C284 1.638 . S
C3362 C196 1.638 . S
C3387 C293 1.653 . S
C3392 C49 1.654 . S
C3417 C673 1.638 . S
C3422 C401 1.638 . S
C3447 C497 1.653 . S
C3452 C381 1.653 . S
C3477 C585 1.638 . S
C3482 C489 1.638 . S
C3507 C548 1.654 . S
C3512 C665 1.653 . S
C3537 C821 1.654 . S
C3542 C20 1.653 . S
C3567 C753 1.653 . S
C3572 C321 1.654 . S
C3597 C929 1.653 . S
C3602 C137 1.653 . S
C3627 C2405 1.653 . S
C3632 C636 1.654 . S
C3657 C2493 1.654 . S
C3662 C205 1.653 . S
C3687 C1017 1.654 . S
C3692 C409 1.653 . S
C3717 C577 1.653 . S
C3722 C1113 1.653 . S
C3747 C1261 1.640 . S
C3752 C1201 1.640 . S
C3777 C1349 1.648 . S
C3782 C1289 1.658 . S
C3807 C1428 1.640 . S
C3812 C1369 1.640 . S
C3837 C1164 1.648 . S
C3842 C1457 1.658 . S
C3867 C1516 1.640 . S
C3872 C1817 1.640 . S
C3897 C1553 1.648 . S
C3902 C1613 1.658 . S
C3927 C1701 1.640 . S
C3932 C1641 1.640 . S
C3957 C1721 1.648 . S
C3962 C1789 1.658 . S
C3987 C1173 1.658 . S
C3992 C1965 1.648 . S
C4017 C1897 1.658 . S
C4022 C1465 1.648 . S
C4047 C2073 1.658 . S
C4052 C1281 1.648 . S
C4077 C2669 1.658 . S
C4082 C1780 1.648 . S
C4107 C2757 1.648 . S
C4112 C1340 1.658 . S
C4137 C1545 1.658 . S
C4142 C2161 1.648 . S
C4167 C2249 1.648 . S
C4172 C1729 1.658 . S
C4197 C1076 1.638 . S
C4202 C2317 1.638 . S
C4227 C2433 1.654 . S
C4232 C1085 1.653 . S
C4257 C997 1.638 . S
C4262 C2396 1.638 . S
C4287 C988 1.653 . S
C4292 C2337 1.654 . S
C4317 C761 1.638 . S
C4322 C2513 1.638 . S
C4347 C849 1.653 . S
C4352 C724 1.653 . S
C4377 C937 1.638 . S
C4382 C841 1.638 . S
C4407 C900 1.654 . S
C4412 C2521 1.653 . S
C4437 C2308 1.653 . S
C4442 C469 1.654 . S
C4467 C2229 1.640 . S
C4472 C2609 1.640 . S
C4497 C2257 1.658 . S
C4502 C2660 1.648 . S
C4527 C2697 1.640 . S
C4532 C2141 1.640 . S
C4557 C2169 1.658 . S
C4562 C2572 1.648 . S
C4587 C2777 1.640 . S
C4592 C1868 1.640 . S
C4617 C1905 1.648 . S
C4622 C1956 1.658 . S
C4647 C2044 1.640 . S
C4652 C1985 1.640 . S
C4677 C2081 1.648 . S
C4682 C2748 1.658 . S
C4707 C2581 1.658 . S
C4712 C1604 1.648 . S
