# Generated by pormake.
# Topology dmp, (4)-cn, num edge types: 1
# Building blocks:
#     Node 0, Type 0, BuildingBlock: UXUYUI_clean_sbu_0, # of connection points: 4
#     Node 1, Type 0, BuildingBlock: UXUYUI_clean_sbu_0, # of connection points: 4
#     Node 2, Type 0, BuildingBlock: UXUYUI_clean_sbu_0, # of connection points: 4
#     Node 3, Type 0, BuildingBlock: UXUYUI_clean_sbu_0, # of connection points: 4
#     Edge 4, Type (0, 0), BuildingBlock: FUNLAD_clean_linker_0, # of connection points: 2
#     Edge 5, Type (0, 0), BuildingBlock: FUNLAD_clean_linker_0, # of connection points: 2
#     Edge 6, Type (0, 0), BuildingBlock: FUNLAD_clean_linker_0, # of connection points: 2
#     Edge 7, Type (0, 0), BuildingBlock: FUNLAD_clean_linker_0, # of connection points: 2
#     Edge 8, Type (0, 0), BuildingBlock: FUNLAD_clean_linker_0, # of connection points: 2
#     Edge 9, Type (0, 0), BuildingBlock: FUNLAD_clean_linker_0, # of connection points: 2
#     Edge 10, Type (0, 0), BuildingBlock: FUNLAD_clean_linker_0, # of connection points: 2
#     Edge 11, Type (0, 0), BuildingBlock: FUNLAD_clean_linker_0, # of connection points: 2
# Relax obj value: 0.351
# Max RMSD: 0.312
# Mean RMSD: 0.312
data_MOF--net-dmp--node1-UXUYUI_clean_sbu_0--edge1-FUNLAD_clean_linker_0
_symmetry_space_group_name_H-M    P1
_symmetry_Int_Tables_number       1
_symmetry_cell_setting            triclinic
loop_
_symmetry_equiv_pos_as_xyz
'x, y, z'
_cell_length_a     62.131749
_cell_length_b     26.543772
_cell_length_c     32.120492
_cell_angle_alpha  90.002976
_cell_angle_beta   90.044858
_cell_angle_gamma 89.871401
loop_
_atom_site_label
_atom_site_type_symbol
_atom_site_fract_x
_atom_site_fract_y
_atom_site_fract_z
_atom_type_partial_charge
Li0 Li 0.11435 0.28122 0.23564 0.0
Li1 Li 0.11427 0.21502 0.28546 0.0
Li2 Li 0.09101 0.21125 0.22457 0.0
Li3 Li 0.0842 0.27163 0.28057 0.0
C4 C 0.1443 0.20215 0.22318 0.0
N5 N 0.18808 0.18419 0.21905 0.0
C6 C 0.15867 0.23344 0.24444 0.0
C7 C 0.15221 0.1617 0.19988 0.0
C8 C 0.18074 0.22376 0.24193 0.0
C9 C 0.17439 0.15325 0.19817 0.0
C10 C 0.11462 0.29714 0.33863 0.0
C11 C 0.10522 0.27393 0.4089 0.0
N12 N 0.11546 0.3157 0.42327 0.0
C13 C 0.12505 0.33982 0.35409 0.0
C14 C 0.10462 0.26387 0.36624 0.0
C15 C 0.1253 0.34854 0.39698 0.0
C16 C 0.13325 0.37586 0.22748 0.0
N17 N 0.132 0.32985 0.20923 0.0
C18 C 0.15999 0.351 0.16153 0.0
C19 C 0.14436 0.31756 0.17582 0.0
C20 C 0.1627 0.39762 0.18163 0.0
C21 C 0.14846 0.41069 0.21391 0.0
H22 H 0.123 0.38464 0.25372 0.0
H23 H 0.14286 0.28077 0.16168 0.0
C24 C 0.12936 0.12423 0.31861 0.0
N25 N 0.13228 0.17488 0.31971 0.0
C26 C 0.14483 0.09213 0.33569 0.0
C27 C 0.16537 0.16515 0.35666 0.0
C28 C 0.14946 0.1958 0.33936 0.0
C29 C 0.16356 0.11254 0.35354 0.0
H30 H 0.11563 0.10876 0.30232 0.0
H31 H 0.15163 0.23618 0.33907 0.0
C32 C 0.08469 0.31088 0.18381 0.0
N33 N 0.08866 0.36707 0.11182 0.0
C34 C 0.07828 0.36137 0.18327 0.0
C35 C 0.09309 0.28894 0.14773 0.0
C36 C 0.08043 0.38915 0.14656 0.0
C37 C 0.09497 0.31797 0.11165 0.0
C38 C 0.06314 0.17703 0.28516 0.0
C39 C 0.04622 0.20218 0.26525 0.0
C40 C 0.05917 0.13173 0.30589 0.0
C41 C 0.02557 0.18156 0.26651 0.0
C42 C 0.03828 0.11234 0.30646 0.0
N43 N 0.02206 0.13744 0.28692 0.0
C44 C 0.08685 0.12142 0.1792 0.0
C45 C 0.06039 0.18356 0.16464 0.0
C46 C 0.07739 0.08835 0.15081 0.0
N47 N 0.07822 0.16787 0.18543 0.0
C48 C 0.05037 0.15174 0.13615 0.0
C49 C 0.05883 0.10338 0.12906 0.0
H50 H 0.10098 0.11003 0.19652 0.0
H51 H 0.05392 0.22079 0.1703 0.0
C52 C 0.06345 0.35843 0.30704 0.0
N53 N 0.06379 0.30773 0.3126 0.0
C54 C 0.05035 0.3887 0.33185 0.0
C55 C 0.03821 0.31392 0.36779 0.0
C56 C 0.05164 0.28511 0.34239 0.0
C57 C 0.03763 0.36646 0.36289 0.0
H58 H 0.07388 0.37542 0.28411 0.0
H59 H 0.05285 0.24498 0.34742 0.0
O60 O 0.12257 0.21012 0.22574 0.0
O61 O 0.11406 0.28873 0.2966 0.0
O62 O 0.08322 0.28329 0.21968 0.0
O63 O 0.0836 0.19587 0.28387 0.0
H64 H 0.15287 0.26473 0.26287 0.0
H65 H 0.14129 0.137 0.18338 0.0
H66 H 0.19202 0.24764 0.25828 0.0
H67 H 0.18073 0.12205 0.18027 0.0
H68 H 0.09753 0.24854 0.4306 0.0
H69 H 0.13283 0.36598 0.33312 0.0
H70 H 0.09645 0.23065 0.35498 0.0
H71 H 0.13331 0.38145 0.40937 0.0
H72 H 0.17066 0.33909 0.13676 0.0
H73 H 0.14965 0.44663 0.22968 0.0
H74 H 0.14269 0.05177 0.33304 0.0
H75 H 0.17965 0.18257 0.36949 0.0
H76 H 0.07173 0.37899 0.21083 0.0
H77 H 0.09845 0.25013 0.14775 0.0
H78 H 0.07556 0.42829 0.1457 0.0
H79 H 0.10155 0.30154 0.08358 0.0
H80 H 0.04895 0.23729 0.24908 0.0
H81 H 0.07212 0.11173 0.32131 0.0
H82 H 0.01233 0.20063 0.25126 0.0
H83 H 0.03498 0.07731 0.3224 0.0
H84 H 0.08427 0.05119 0.14648 0.0
H85 H 0.03626 0.165 0.1196 0.0
H86 H 0.05036 0.4291 0.32713 0.0
H87 H 0.02901 0.29548 0.392 0.0
Li88 Li 0.41352 0.75868 0.21955 0.0
Li89 Li 0.40385 0.69377 0.27093 0.0
Li90 Li 0.38287 0.70735 0.20921 0.0
Li91 Li 0.38212 0.76986 0.26159 0.0
C92 C 0.43313 0.66354 0.21159 0.0
N93 N 0.47401 0.6223 0.21133 0.0
C94 C 0.449 0.68254 0.23818 0.0
C95 C 0.43805 0.6235 0.18499 0.0
C96 C 0.46956 0.66119 0.23754 0.0
C97 C 0.45881 0.6032 0.18527 0.0
C98 C 0.41108 0.79466 0.31568 0.0
C99 C 0.39701 0.80886 0.38469 0.0
N100 N 0.40623 0.85528 0.385 0.0
C101 C 0.4205 0.84239 0.31677 0.0
C102 C 0.39932 0.77761 0.34997 0.0
C103 C 0.41783 0.87251 0.35207 0.0
C104 C 0.43443 0.84581 0.19602 0.0
N105 N 0.43507 0.79506 0.1908 0.0
C106 C 0.46054 0.80318 0.1356 0.0
C107 C 0.44789 0.77331 0.16156 0.0
C108 C 0.45967 0.85584 0.13942 0.0
C109 C 0.44678 0.87708 0.17075 0.0
H110 H 0.42339 0.86209 0.21829 0.0
H111 H 0.44741 0.73314 0.15656 0.0
C112 C 0.41076 0.59531 0.29834 0.0
N113 N 0.4143 0.64441 0.30805 0.0
C114 C 0.41794 0.55721 0.32488 0.0
C115 C 0.43271 0.62108 0.37034 0.0
C116 C 0.42533 0.65788 0.34283 0.0
C117 C 0.42891 0.57001 0.3616 0.0
H118 H 0.40241 0.58582 0.26986 0.0
H119 H 0.42855 0.69711 0.34907 0.0
C120 C 0.38542 0.79321 0.16023 0.0
N121 N 0.38794 0.82004 0.07726 0.0
C122 C 0.37688 0.83912 0.14671 0.0
C123 C 0.39525 0.76092 0.13154 0.0
C124 C 0.3783 0.852 0.10463 0.0
C125 C 0.39637 0.77517 0.08974 0.0
C126 C 0.35292 0.67758 0.26196 0.0
C127 C 0.335 0.70641 0.25052 0.0
C128 C 0.35087 0.6254 0.2661 0.0
C129 C 0.31536 0.68245 0.2431 0.0
C130 C 0.33098 0.60283 0.25824 0.0
N131 N 0.31379 0.63158 0.24699 0.0
C132 C 0.36847 0.62265 0.16533 0.0
C133 C 0.34774 0.69657 0.15417 0.0
C134 C 0.35277 0.59331 0.14604 0.0
N135 N 0.36523 0.67286 0.17046 0.0
C136 C 0.33156 0.66866 0.13496 0.0
C137 C 0.33351 0.61598 0.13253 0.0
H138 H 0.3825 0.60491 0.17894 0.0
H139 H 0.34546 0.73648 0.15934 0.0
C140 C 0.36562 0.86688 0.27471 0.0
N141 N 0.36443 0.8184 0.28795 0.0
C142 C 0.35064 0.9023 0.28859 0.0
C143 C 0.33423 0.83761 0.33098 0.0
C144 C 0.34965 0.8036 0.31656 0.0
C145 C 0.33416 0.88733 0.3159 0.0
H146 H 0.37769 0.87746 0.2521 0.0
H147 H 0.34918 0.76472 0.32659 0.0
O148 O 0.41273 0.68311 0.21183 0.0
O149 O 0.41311 0.76495 0.28108 0.0
O150 O 0.38458 0.78094 0.20159 0.0
O151 O 0.37243 0.70023 0.26827 0.0
H152 H 0.44558 0.71342 0.25905 0.0
H153 H 0.42592 0.60826 0.16434 0.0
H154 H 0.482 0.67553 0.25792 0.0
H155 H 0.46284 0.57222 0.16481 0.0
H156 H 0.38782 0.79628 0.4113 0.0
H157 H 0.42984 0.85602 0.29074 0.0
H158 H 0.39175 0.74092 0.34949 0.0
H159 H 0.425 0.90959 0.35331 0.0
H160 H 0.4699 0.78538 0.11124 0.0
H161 H 0.44567 0.91752 0.17473 0.0
H162 H 0.41475 0.51827 0.31699 0.0
H163 H 0.44159 0.63243 0.3978 0.0
H164 H 0.36932 0.86465 0.16859 0.0
H165 H 0.4021 0.72539 0.14136 0.0
H166 H 0.37179 0.88746 0.09375 0.0
H167 H 0.40398 0.75061 0.06724 0.0
H168 H 0.33634 0.74672 0.2464 0.0
H169 H 0.36452 0.60247 0.27495 0.0
H170 H 0.30143 0.70426 0.23385 0.0
H171 H 0.32922 0.56243 0.261 0.0
H172 H 0.35507 0.55292 0.14419 0.0
H173 H 0.31692 0.68771 0.12553 0.0
H174 H 0.35144 0.94045 0.27677 0.0
H175 H 0.32176 0.82417 0.35167 0.0
Li176 Li 0.87991 0.79708 0.72315 0.0
Li177 Li 0.90587 0.78475 0.77946 0.0
Li178 Li 0.90509 0.72965 0.71648 0.0
Li179 Li 0.87726 0.72203 0.76958 0.0
C180 C 0.9134 0.84709 0.69873 0.0
N181 N 0.91559 0.93691 0.65549 0.0
C182 C 0.91918 0.89143 0.71931 0.0
C183 C 0.90895 0.84832 0.65608 0.0
C184 C 0.92016 0.93649 0.69691 0.0
C185 C 0.91007 0.89413 0.6348 0.0
C186 C 0.86697 0.81151 0.82142 0.0
C187 C 0.8599 0.79824 0.89447 0.0
N188 N 0.85172 0.84567 0.89724 0.0
C189 C 0.85818 0.85987 0.8249 0.0
C190 C 0.86758 0.78023 0.85641 0.0
C191 C 0.85069 0.87656 0.86352 0.0
C192 C 0.84824 0.82806 0.66632 0.0
N193 N 0.86231 0.84498 0.69552 0.0
C194 C 0.84584 0.92627 0.69513 0.0
C195 C 0.86185 0.89344 0.70912 0.0
C196 C 0.8303 0.90887 0.66684 0.0
C197 C 0.8321 0.85972 0.65117 0.0
H198 H 0.84869 0.78914 0.65663 0.0
H199 H 0.87319 0.90577 0.73253 0.0
C200 C 0.94243 0.79434 0.83029 0.0
N201 N 0.92351 0.81664 0.81953 0.0
C202 C 0.95528 0.81529 0.86142 0.0
C203 C 0.92934 0.88282 0.86847 0.0
C204 C 0.91701 0.86055 0.83727 0.0
C205 C 0.94861 0.8598 0.88128 0.0
H206 H 0.94732 0.75974 0.8152 0.0
H207 H 0.9023 0.8784 0.82712 0.0
C208 C 0.87097 0.69215 0.67727 0.0
N209 N 0.86666 0.62188 0.61434 0.0
C210 C 0.86362 0.64363 0.68627 0.0
C211 C 0.87589 0.7051 0.63617 0.0
C212 C 0.86159 0.60861 0.65403 0.0
C213 C 0.8737 0.66898 0.60483 0.0
C214 C 0.91356 0.67514 0.80608 0.0
C215 C 0.91937 0.62603 0.795 0.0
C216 C 0.91333 0.68883 0.84812 0.0
C217 C 0.92432 0.59114 0.82617 0.0
C218 C 0.91839 0.6529 0.87836 0.0
N219 N 0.9237 0.60516 0.86686 0.0
C220 C 0.93585 0.71921 0.65293 0.0
C221 C 0.91964 0.64264 0.67413 0.0
C222 C 0.94754 0.69415 0.62217 0.0
N223 N 0.92208 0.6933 0.67778 0.0
C224 C 0.931 0.61605 0.64383 0.0
C225 C 0.94504 0.64192 0.61712 0.0
H226 H 0.93753 0.75946 0.6566 0.0
H227 H 0.9085 0.623 0.69414 0.0
C228 C 0.83664 0.70257 0.79748 0.0
N229 N 0.85639 0.68068 0.7955 0.0
C230 C 0.81903 0.67555 0.81204 0.0
C231 C 0.84239 0.6037 0.82272 0.0
C232 C 0.85966 0.63238 0.80815 0.0
C233 C 0.8217 0.62514 0.82417 0.0
H234 H 0.83447 0.74072 0.7864 0.0
H235 H 0.87539 0.61542 0.80549 0.0
O236 O 0.91207 0.80273 0.72024 0.0
O237 O 0.87436 0.79462 0.78371 0.0
O238 O 0.87329 0.72679 0.7085 0.0
O239 O 0.9088 0.70983 0.77583 0.0
H240 H 0.9228 0.89113 0.75223 0.0
H241 H 0.90449 0.81435 0.63967 0.0
H242 H 0.92451 0.97115 0.71248 0.0
H243 H 0.90652 0.89569 0.60185 0.0
H244 H 0.86034 0.77438 0.92176 0.0
H245 H 0.85726 0.88446 0.79816 0.0
H246 H 0.87357 0.74217 0.85415 0.0
H247 H 0.84401 0.91404 0.86666 0.0
H248 H 0.84499 0.96405 0.70779 0.0
H249 H 0.82023 0.8447 0.62982 0.0
H250 H 0.97 0.79627 0.87044 0.0
H251 H 0.92389 0.91783 0.88226 0.0
H252 H 0.85967 0.63296 0.71782 0.0
H253 H 0.88157 0.74247 0.62863 0.0
H254 H 0.85603 0.57085 0.66059 0.0
H255 H 0.87762 0.67837 0.57296 0.0
H256 H 0.91999 0.61479 0.76274 0.0
H257 H 0.90955 0.72692 0.85741 0.0
H258 H 0.92869 0.55293 0.81798 0.0
H259 H 0.9182 0.66303 0.91098 0.0
H260 H 0.95804 0.71562 0.602 0.0
H261 H 0.9288 0.5757 0.64138 0.0
H262 H 0.8033 0.69321 0.81173 0.0
H263 H 0.84508 0.56487 0.83171 0.0
Li264 Li 0.60925 0.22142 0.71537 0.0
Li265 Li 0.58385 0.21714 0.77337 0.0
Li266 Li 0.5768 0.26986 0.71358 0.0
Li267 Li 0.60474 0.29144 0.76384 0.0
C268 C 0.56236 0.18124 0.69217 0.0
N269 N 0.52626 0.15796 0.64581 0.0
C270 C 0.54309 0.16896 0.71209 0.0
C271 C 0.56334 0.18136 0.6487 0.0
C272 C 0.52501 0.15731 0.68808 0.0
C273 C 0.54489 0.16963 0.62581 0.0
C274 C 0.62058 0.18667 0.80364 0.0
C275 C 0.62136 0.15531 0.87414 0.0
N276 N 0.62881 0.11026 0.85995 0.0
C277 C 0.62827 0.14006 0.78977 0.0
C278 C 0.61715 0.19444 0.8462 0.0
C279 C 0.63234 0.10193 0.81873 0.0
C280 C 0.6511 0.20067 0.69124 0.0
N281 N 0.63044 0.18603 0.68467 0.0
C282 C 0.64197 0.12155 0.63781 0.0
C283 C 0.62554 0.1474 0.65856 0.0
C284 C 0.66345 0.13628 0.64382 0.0
C285 C 0.66791 0.17666 0.6706 0.0
H286 H 0.65449 0.23073 0.71298 0.0
H287 H 0.60897 0.13611 0.65448 0.0
C288 C 0.56093 0.19475 0.84627 0.0
N289 N 0.57128 0.17396 0.81325 0.0
C290 C 0.55242 0.1641 0.87731 0.0
C291 C 0.56495 0.09107 0.83925 0.0
C292 C 0.57326 0.12324 0.80892 0.0
C293 C 0.55442 0.11151 0.87409 0.0
H294 H 0.55946 0.23515 0.84868 0.0
H295 H 0.58147 0.10789 0.78206 0.0
C296 C 0.62172 0.30141 0.67309 0.0
N297 N 0.65422 0.31252 0.61506 0.0
C298 C 0.6404 0.32798 0.68328 0.0
C299 C 0.61958 0.28056 0.63331 0.0
C300 C 0.65663 0.33321 0.65351 0.0
C301 C 0.63619 0.28652 0.60445 0.0
C302 C 0.5701 0.33175 0.79317 0.0
C303 C 0.56185 0.37313 0.77141 0.0
C304 C 0.57601 0.33718 0.83495 0.0
C305 C 0.55962 0.41929 0.79188 0.0
C306 C 0.57357 0.384 0.85426 0.0
N307 N 0.56549 0.42373 0.83251 0.0
C308 C 0.53388 0.29309 0.69269 0.0
C309 C 0.55947 0.31202 0.64027 0.0
C310 C 0.51707 0.30907 0.66699 0.0
N311 N 0.55453 0.29457 0.67881 0.0
C312 C 0.5432 0.32785 0.61343 0.0
C313 C 0.52169 0.3263 0.62668 0.0
H314 H 0.53049 0.27911 0.72363 0.0
H315 H 0.57602 0.31355 0.6303 0.0
C316 C 0.63412 0.33096 0.82137 0.0
N317 N 0.62017 0.34384 0.79057 0.0
C318 C 0.64809 0.36672 0.83791 0.0
C319 C 0.6326 0.42885 0.7916 0.0
C320 C 0.61876 0.3919 0.7762 0.0
C321 C 0.64788 0.41598 0.82208 0.0
H322 H 0.63519 0.29236 0.83165 0.0
H323 H 0.60767 0.40085 0.75129 0.0
O324 O 0.58007 0.19407 0.71511 0.0
O325 O 0.61605 0.22416 0.77569 0.0
O326 O 0.60573 0.29537 0.70201 0.0
O327 O 0.57273 0.28642 0.77351 0.0
H328 H 0.54201 0.16902 0.7457 0.0
H329 H 0.57809 0.19111 0.6328 0.0
H330 H 0.50994 0.148 0.70306 0.0
H331 H 0.54535 0.16997 0.59215 0.0
H332 H 0.6186 0.16067 0.90709 0.0
H333 H 0.63087 0.13313 0.75701 0.0
H334 H 0.61087 0.22996 0.85746 0.0
H335 H 0.63822 0.06564 0.80841 0.0
H336 H 0.63801 0.09015 0.6177 0.0
H337 H 0.68431 0.18825 0.67681 0.0
H338 H 0.54464 0.18148 0.90385 0.0
H339 H 0.56658 0.05073 0.83528 0.0
H340 H 0.64252 0.34392 0.71394 0.0
H341 H 0.60547 0.25897 0.62506 0.0
H342 H 0.67119 0.35353 0.66105 0.0
H343 H 0.6348 0.27022 0.5737 0.0
H344 H 0.55741 0.36986 0.73898 0.0
H345 H 0.58281 0.30586 0.85207 0.0
H346 H 0.5533 0.45165 0.7754 0.0
H347 H 0.57821 0.38881 0.88648 0.0
H348 H 0.50066 0.30735 0.67824 0.0
H349 H 0.54742 0.34185 0.58284 0.0
H350 H 0.65989 0.35506 0.86083 0.0
H351 H 0.63197 0.4665 0.77864 0.0
C352 C 0.30515 0.9207 0.36338 0.0
C353 C 0.31561 0.92115 0.32453 0.0
C354 C 0.28588 0.9472 0.36917 0.0
C355 C 0.27677 0.97491 0.33617 0.0
C356 C 0.28775 0.97701 0.29805 0.0
C357 C 0.30688 0.95051 0.29225 0.0
C358 C 0.25516 -0.00135 0.33841 0.0
C359 C 0.24389 0.0068 0.37359 0.0
C360 C 0.22199 0.029 0.37183 0.0
C361 C 0.21559 0.06473 0.40153 0.0
C362 C 0.196 0.09035 0.39704 0.0
C363 C 0.18239 0.08001 0.36305 0.0
H364 H 0.21189 0.98758 0.31693 0.0
C365 C 0.18821 0.0416 0.3351 0.0
C366 C 0.20772 0.01625 0.33954 0.0
H367 H 0.17825 0.03282 0.3084 0.0
H368 H 0.31156 0.89878 0.389 0.0
H369 H 0.27788 0.94407 0.39893 0.0
H370 H 0.28111 -0.0021 0.27203 0.0
H371 H 0.31421 0.95112 0.26168 0.0
H372 H 0.24812 0.01044 0.30896 0.0
H373 H 0.25104 5e-05 0.4039 0.0
H374 H 0.22618 0.07454 0.42707 0.0
H375 H 0.19181 0.11927 0.41941 0.0
C376 C 0.18993 0.43392 0.13179 0.0
C377 C 0.18176 0.42945 0.17247 0.0
C378 C 0.20942 0.45882 0.1245 0.0
C379 C 0.22103 0.47993 0.15785 0.0
C380 C 0.21242 0.4769 0.19813 0.0
C381 C 0.19309 0.452 0.2054 0.0
C382 C 0.2428 0.50208 0.15323 0.0
C383 C 0.25217 0.51479 0.11692 0.0
C384 C 0.27427 0.53578 0.11632 0.0
C385 C 0.27937 0.57546 0.08927 0.0
C386 C 0.29922 0.60004 0.09264 0.0
C387 C 0.31434 0.58481 0.1228 0.0
H388 H 0.28682 0.48648 0.16454 0.0
C389 C 0.30973 0.54258 0.14762 0.0
C390 C 0.29 0.51817 0.14423 0.0
H391 H 0.32084 0.52996 0.17146 0.0
H392 H 0.18151 0.41724 0.10569 0.0
H393 H 0.21555 0.45975 0.09303 0.0
H394 H 0.22102 0.4926 0.22447 0.0
H395 H 0.18759 0.44853 0.23725 0.0
H396 H 0.2516 0.50897 0.18195 0.0
H397 H 0.2433 0.51301 0.08786 0.0
H398 H 0.26761 0.5891 0.06702 0.0
H399 H 0.30242 0.63202 0.07266 0.0
C400 C 0.6826 0.05482 0.63281 0.0
C401 C 0.68146 0.10698 0.62601 0.0
C402 C 0.70158 0.0286 0.62431 0.0
C403 C 0.71962 0.05411 0.60852 0.0
C404 C 0.71782 0.1052 0.59809 0.0
C405 C 0.69893 0.13166 0.60722 0.0
C406 C 0.74099 0.02954 0.60764 0.0
C407 C 0.74807 0.00433 0.64128 0.0
C408 C 0.77015 0.98414 0.64572 0.0
C409 C 0.77899 0.98112 0.6858 0.0
C410 C 0.79908 0.95906 0.69214 0.0
C411 C 0.81061 0.93868 0.65854 0.0
H412 H 0.77536 0.96643 0.58052 0.0
C413 C 0.80199 0.94242 0.61817 0.0
C414 C 0.78194 0.96533 0.61172 0.0
H415 H 0.81054 0.92668 0.59181 0.0
H416 H 0.66937 0.03498 0.64735 0.0
H417 H 0.70253 0.98891 0.63197 0.0
H418 H 0.73152 0.12544 0.58567 0.0
H419 H 0.69832 0.17185 0.60141 0.0
H420 H 0.75182 0.03763 0.58197 0.0
H421 H 0.73766 0.00163 0.66842 0.0
H422 H 0.77016 -0.00481 0.71248 0.0
H423 H 0.80514 0.95586 0.72367 0.0
C424 C 0.78539 0.6142 0.85706 0.0
C425 C 0.80251 0.59416 0.83368 0.0
C426 C 0.76581 0.58862 0.85969 0.0
C427 C 0.76304 0.54238 0.83898 0.0
C428 C 0.78054 0.52118 0.81758 0.0
C429 C 0.80011 0.54665 0.81507 0.0
C430 C 0.74171 0.51802 0.83477 0.0
C431 C 0.72482 0.52661 0.86003 0.0
C432 C 0.70364 0.50365 0.85112 0.0
C433 C 0.69151 0.48241 0.88342 0.0
C434 C 0.67268 0.45572 0.87441 0.0
C435 C 0.6655 0.45098 0.83305 0.0
H436 H 0.70457 0.51864 0.78475 0.0
C437 C 0.67691 0.47533 0.80119 0.0
C438 C 0.6958 0.50135 0.81012 0.0
H439 H 0.67187 0.47207 0.769 0.0
H440 H 0.78687 0.65065 0.87195 0.0
H441 H 0.75265 0.6066 0.87599 0.0
H442 H 0.77882 0.48568 0.80126 0.0
H443 H 0.81289 0.53046 0.79643 0.0
H444 H 0.73977 0.49173 0.80905 0.0
H445 H 0.72666 0.54856 0.88832 0.0
H446 H 0.69714 0.4844 0.91531 0.0
H447 H 0.66406 0.43756 0.89956 0.0
C448 C 0.02567 0.06492 0.09863 0.0
C449 C 0.04819 0.06889 0.09927 0.0
C450 C 0.01547 0.03388 0.06973 0.0
C451 C 0.02763 0.00577 0.04093 0.0
C452 C 0.05015 0.00974 0.04158 0.0
C453 C 0.06037 0.04072 0.07066 0.0
C454 C 0.01724 0.97464 0.0083 0.0
C455 C -0.00236 0.95387 0.01314 0.0
C456 C 0.98582 0.9275 0.97942 0.0
C457 C 0.96336 0.92378 0.98263 0.0
C458 C 0.95133 0.90151 0.95094 0.0
C459 C 0.96154 0.88208 0.91538 0.0
H460 H 0.01345 0.90732 0.94116 0.0
C461 C 0.98408 0.88435 0.91263 0.0
C462 C -0.00386 0.90672 0.94435 0.0
H463 H 0.99241 0.86963 0.88561 0.0
H464 H 0.01587 0.086 0.12045 0.0
H465 H -0.00193 0.03327 0.0694 0.0
H466 H 0.05986 0.98899 0.0194 0.0
H467 H 0.07775 0.04355 0.0701 0.0
H468 H 0.02598 0.9699 0.97935 0.0
H469 H 0.98926 0.95835 0.04257 0.0
H470 H 0.955 0.93894 0.00947 0.0
H471 H 0.93402 0.89939 0.95436 0.0
C472 C 0.52543 0.08973 0.92499 0.0
C473 C 0.54542 0.0784 0.90687 0.0
C474 C 0.51704 0.05937 0.95641 0.0
C475 C 0.52833 0.0164 0.97007 0.0
C476 C 0.54842 0.00533 0.95226 0.0
C477 C 0.55686 0.03587 0.92084 0.0
C478 C 0.51992 0.98333 0.00357 0.0
C479 C 0.49877 0.97916 0.01198 0.0
C480 C 0.48981 0.94774 0.04596 0.0
C481 C 0.46902 0.95889 0.06032 0.0
C482 C 0.4595 0.92973 0.09129 0.0
C483 C 0.47052 0.88842 0.10848 0.0
H484 H 0.51675 0.89567 0.05235 0.0
C485 C 0.49135 0.8771 0.09422 0.0
C486 C 0.50093 0.90642 0.06323 0.0
H487 H 0.50019 0.84537 0.10687 0.0
H488 H 0.51617 0.12209 0.91481 0.0
H489 H 0.50189 0.07044 0.97026 0.0
H490 H 0.55757 0.97286 0.96257 0.0
H491 H 0.57248 0.02663 0.90797 0.0
H492 H 0.5316 0.96179 0.02134 0.0
H493 H 0.48721 0.0003 0.99357 0.0
H494 H 0.46001 0.99019 0.04734 0.0
H495 H 0.44324 0.93879 0.10094 0.0
C496 C 0.94647 0.57685 0.56067 0.0
C497 C 0.9568 0.61462 0.5839 0.0
C498 C 0.95755 0.55069 0.52966 0.0
C499 C 0.97927 0.56165 0.52137 0.0
C500 C 0.98943 0.60016 0.54389 0.0
C501 C 0.97836 0.62622 0.575 0.0
C502 C 0.99176 0.53427 0.4892 0.0
C503 C 0.98766 0.48618 0.47841 0.0
C504 C 0.00065 0.45728 0.44776 0.0
C505 C 0.99183 0.41331 0.43048 0.0
C506 C 0.0037 0.38402 0.40257 0.0
C507 C 0.02468 0.39812 0.39141 0.0
H508 H 0.02958 0.50352 0.45032 0.0
C509 C 0.03356 0.44198 0.40871 0.0
C510 C 0.02176 0.47113 0.43674 0.0
H511 H 0.0499 0.4531 0.40143 0.0
H512 H 0.92969 0.56797 0.56606 0.0
H513 H 0.94892 0.5226 0.5119 0.0
H514 H 0.00611 0.60954 0.53789 0.0
H515 H 0.98682 0.65489 0.59251 0.0
H516 H 0.00514 0.55428 0.4753 0.0
H517 H 0.9743 0.46652 0.49283 0.0
H518 H 0.97569 0.40151 0.43862 0.0
H519 H -0.00357 0.35046 0.38958 0.0
C520 C 0.43469 0.5365 0.43358 0.0
C521 C 0.43679 0.53045 0.39033 0.0
C522 C 0.4433 0.50082 0.46085 0.0
C523 C 0.45415 0.45817 0.44534 0.0
C524 C 0.45589 0.45175 0.4021 0.0
C525 C 0.44719 0.48734 0.37483 0.0
C526 C 0.46569 0.42254 0.47309 0.0
C527 C 0.46063 0.41549 0.51346 0.0
C528 C 0.47463 0.38701 0.54267 0.0
C529 C 0.47396 0.39927 0.58519 0.0
C530 C 0.48872 0.37803 0.61297 0.0
C531 C 0.50438 0.34403 0.59866 0.0
H532 H 0.4898 0.33788 0.49692 0.0
C533 C 0.50421 0.3293 0.55669 0.0
C534 C 0.48938 0.35023 0.52899 0.0
H535 H 0.51578 0.30209 0.54516 0.0
H536 H 0.42662 0.56923 0.44638 0.0
H537 H 0.44214 0.50806 0.4939 0.0
H538 H 0.46438 0.41955 0.38936 0.0
H539 H 0.44926 0.48196 0.34164 0.0
H540 H 0.47953 0.40352 0.45977 0.0
H541 H 0.44671 0.43452 0.52657 0.0
H542 H 0.46261 0.42705 0.59665 0.0
H543 H 0.48849 0.38995 0.64522 0.0
loop_
_geom_bond_atom_site_label_1
_geom_bond_atom_site_label_2
_geom_bond_distance
_geom_bond_site_symmetry_2
_ccdc_geom_bond_type
Li0 N17 1.990 . S
Li0 O60 1.956 . S
Li0 O61 1.970 . S
Li0 O62 1.961 . S
Li1 N25 1.990 . S
Li1 O60 1.970 . S
Li1 O61 1.956 . S
Li1 O63 1.961 . S
Li2 N47 1.990 . S
Li2 O60 1.961 . S
Li2 O62 1.956 . S
Li2 O63 1.970 . S
Li3 N53 1.990 . S
Li3 O61 1.961 . S
Li3 O62 1.970 . S
Li3 O63 1.956 . S
C4 C6 1.348 . S
C4 C7 1.356 . S
C4 O60 1.325 . S
N5 C8 1.314 . S
N5 C9 1.279 . S
C6 C4 1.348 . S
C6 C8 1.353 . S
C6 H64 0.929 . S
C7 C4 1.356 . S
C7 C9 1.358 . S
C7 H65 0.930 . S
C8 N5 1.314 . S
C8 C6 1.353 . S
C8 H66 0.930 . S
C9 N5 1.279 . S
C9 C7 1.358 . S
C9 H67 0.930 . S
C10 C13 1.348 . S
C10 C14 1.356 . S
C10 O61 1.325 . S
C11 N12 1.279 . S
C11 C14 1.358 . S
C11 H68 0.930 . S
N12 C11 1.279 . S
N12 C15 1.314 . S
C13 C10 1.348 . S
C13 C15 1.353 . S
C13 H69 0.929 . S
C14 C10 1.356 . S
C14 C11 1.358 . S
C14 H70 0.930 . S
C15 N12 1.314 . S
C15 C13 1.353 . S
C15 H71 0.930 . S
C16 N17 1.314 . S
C16 C21 1.353 . S
C16 H22 0.930 . S
N17 Li0 1.990 . S
N17 C16 1.314 . S
N17 C19 1.279 . S
C18 C19 1.358 . S
C18 C20 1.356 . S
C18 H72 0.930 . S
C19 N17 1.279 . S
C19 C18 1.358 . S
C19 H23 0.930 . S
C20 C18 1.356 . S
C20 C21 1.348 . S
C21 C16 1.353 . S
C21 C20 1.348 . S
C21 H73 0.929 . S
H22 C16 0.930 . S
H23 C19 0.930 . S
C24 N25 1.314 . S
C24 C26 1.353 . S
C24 H30 0.930 . S
N25 Li1 1.990 . S
N25 C24 1.314 . S
N25 C28 1.279 . S
C26 C24 1.353 . S
C26 C29 1.348 . S
C26 H74 0.929 . S
C27 C28 1.358 . S
C27 C29 1.356 . S
C27 H75 0.930 . S
C28 N25 1.279 . S
C28 C27 1.358 . S
C28 H31 0.930 . S
C29 C26 1.348 . S
C29 C27 1.356 . S
H30 C24 0.930 . S
H31 C28 0.930 . S
C32 C34 1.348 . S
C32 C35 1.356 . S
C32 O62 1.325 . S
N33 C36 1.314 . S
N33 C37 1.279 . S
C34 C32 1.348 . S
C34 C36 1.353 . S
C34 H76 0.929 . S
C35 C32 1.356 . S
C35 C37 1.358 . S
C35 H77 0.930 . S
C36 N33 1.314 . S
C36 C34 1.353 . S
C36 H78 0.930 . S
C37 N33 1.279 . S
C37 C35 1.358 . S
C37 H79 0.930 . S
C38 C39 1.348 . S
C38 C40 1.356 . S
C38 O63 1.325 . S
C39 C38 1.348 . S
C39 C41 1.353 . S
C39 H80 0.929 . S
C40 C38 1.356 . S
C40 C42 1.358 . S
C40 H81 0.930 . S
C41 C39 1.353 . S
C41 N43 1.314 . S
C41 H82 0.930 . S
C42 C40 1.358 . S
C42 N43 1.279 . S
C42 H83 0.930 . S
N43 C41 1.314 . S
N43 C42 1.279 . S
C44 C46 1.353 . S
C44 N47 1.314 . S
C44 H50 0.930 . S
C45 N47 1.279 . S
C45 C48 1.358 . S
C45 H51 0.930 . S
C46 C44 1.353 . S
C46 C49 1.348 . S
C46 H84 0.929 . S
N47 Li2 1.990 . S
N47 C44 1.314 . S
N47 C45 1.279 . S
C48 C45 1.358 . S
C48 C49 1.356 . S
C48 H85 0.930 . S
C49 C46 1.348 . S
C49 C48 1.356 . S
H50 C44 0.930 . S
H51 C45 0.930 . S
C52 N53 1.314 . S
C52 C54 1.353 . S
C52 H58 0.930 . S
N53 Li3 1.990 . S
N53 C52 1.314 . S
N53 C56 1.279 . S
C54 C52 1.353 . S
C54 C57 1.348 . S
C54 H86 0.929 . S
C55 C56 1.358 . S
C55 C57 1.356 . S
C55 H87 0.930 . S
C56 N53 1.279 . S
C56 C55 1.358 . S
C56 H59 0.930 . S
C57 C54 1.348 . S
C57 C55 1.356 . S
H58 C52 0.930 . S
H59 C56 0.930 . S
O60 Li0 1.956 . S
O60 Li1 1.970 . S
O60 Li2 1.961 . S
O60 C4 1.325 . S
O61 Li0 1.970 . S
O61 Li1 1.956 . S
O61 Li3 1.961 . S
O61 C10 1.325 . S
O62 Li0 1.961 . S
O62 Li2 1.956 . S
O62 Li3 1.970 . S
O62 C32 1.325 . S
O63 Li1 1.961 . S
O63 Li2 1.970 . S
O63 Li3 1.956 . S
O63 C38 1.325 . S
H64 C6 0.929 . S
H65 C7 0.930 . S
H66 C8 0.930 . S
H67 C9 0.930 . S
H68 C11 0.930 . S
H69 C13 0.929 . S
H70 C14 0.930 . S
H71 C15 0.930 . S
H72 C18 0.930 . S
H73 C21 0.929 . S
H74 C26 0.929 . S
H75 C27 0.930 . S
H76 C34 0.929 . S
H77 C35 0.930 . S
H78 C36 0.930 . S
H79 C37 0.930 . S
H80 C39 0.929 . S
H81 C40 0.930 . S
H82 C41 0.930 . S
H83 C42 0.930 . S
H84 C46 0.929 . S
H85 C48 0.930 . S
H86 C54 0.929 . S
H87 C55 0.930 . S
Li88 N105 1.990 . S
Li88 O148 1.956 . S
Li88 O149 1.970 . S
Li88 O150 1.961 . S
Li89 N113 1.990 . S
Li89 O148 1.970 . S
Li89 O149 1.956 . S
Li89 O151 1.961 . S
Li90 N135 1.990 . S
Li90 O148 1.961 . S
Li90 O150 1.956 . S
Li90 O151 1.970 . S
Li91 N141 1.990 . S
Li91 O149 1.961 . S
Li91 O150 1.970 . S
Li91 O151 1.956 . S
C92 C94 1.348 . S
C92 C95 1.356 . S
C92 O148 1.325 . S
N93 C96 1.314 . S
N93 C97 1.279 . S
C94 C92 1.348 . S
C94 C96 1.353 . S
C94 H152 0.929 . S
C95 C92 1.356 . S
C95 C97 1.358 . S
C95 H153 0.930 . S
C96 N93 1.314 . S
C96 C94 1.353 . S
C96 H154 0.930 . S
C97 N93 1.279 . S
C97 C95 1.358 . S
C97 H155 0.930 . S
C98 C101 1.348 . S
C98 C102 1.356 . S
C98 O149 1.325 . S
C99 N100 1.279 . S
C99 C102 1.358 . S
C99 H156 0.930 . S
N100 C99 1.279 . S
N100 C103 1.314 . S
C101 C98 1.348 . S
C101 C103 1.353 . S
C101 H157 0.929 . S
C102 C98 1.356 . S
C102 C99 1.358 . S
C102 H158 0.930 . S
C103 N100 1.314 . S
C103 C101 1.353 . S
C103 H159 0.930 . S
C104 N105 1.314 . S
C104 C109 1.353 . S
C104 H110 0.930 . S
N105 Li88 1.990 . S
N105 C104 1.314 . S
N105 C107 1.279 . S
C106 C107 1.358 . S
C106 C108 1.356 . S
C106 H160 0.930 . S
C107 N105 1.279 . S
C107 C106 1.358 . S
C107 H111 0.930 . S
C108 C106 1.356 . S
C108 C109 1.348 . S
C109 C104 1.353 . S
C109 C108 1.348 . S
C109 H161 0.929 . S
H110 C104 0.930 . S
H111 C107 0.930 . S
C112 N113 1.314 . S
C112 C114 1.353 . S
C112 H118 0.930 . S
N113 Li89 1.990 . S
N113 C112 1.314 . S
N113 C116 1.279 . S
C114 C112 1.353 . S
C114 C117 1.348 . S
C114 H162 0.929 . S
C115 C116 1.358 . S
C115 C117 1.356 . S
C115 H163 0.930 . S
C116 N113 1.279 . S
C116 C115 1.358 . S
C116 H119 0.930 . S
C117 C114 1.348 . S
C117 C115 1.356 . S
H118 C112 0.930 . S
H119 C116 0.930 . S
C120 C122 1.348 . S
C120 C123 1.356 . S
C120 O150 1.325 . S
N121 C124 1.314 . S
N121 C125 1.279 . S
C122 C120 1.348 . S
C122 C124 1.353 . S
C122 H164 0.929 . S
C123 C120 1.356 . S
C123 C125 1.358 . S
C123 H165 0.930 . S
C124 N121 1.314 . S
C124 C122 1.353 . S
C124 H166 0.930 . S
C125 N121 1.279 . S
C125 C123 1.358 . S
C125 H167 0.930 . S
C126 C127 1.348 . S
C126 C128 1.356 . S
C126 O151 1.325 . S
C127 C126 1.348 . S
C127 C129 1.353 . S
C127 H168 0.929 . S
C128 C126 1.356 . S
C128 C130 1.358 . S
C128 H169 0.930 . S
C129 C127 1.353 . S
C129 N131 1.314 . S
C129 H170 0.930 . S
C130 C128 1.358 . S
C130 N131 1.279 . S
C130 H171 0.930 . S
N131 C129 1.314 . S
N131 C130 1.279 . S
C132 C134 1.353 . S
C132 N135 1.314 . S
C132 H138 0.930 . S
C133 N135 1.279 . S
C133 C136 1.358 . S
C133 H139 0.930 . S
C134 C132 1.353 . S
C134 C137 1.348 . S
C134 H172 0.929 . S
N135 Li90 1.990 . S
N135 C132 1.314 . S
N135 C133 1.279 . S
C136 C133 1.358 . S
C136 C137 1.356 . S
C136 H173 0.930 . S
C137 C134 1.348 . S
C137 C136 1.356 . S
H138 C132 0.930 . S
H139 C133 0.930 . S
C140 N141 1.314 . S
C140 C142 1.353 . S
C140 H146 0.930 . S
N141 Li91 1.990 . S
N141 C140 1.314 . S
N141 C144 1.279 . S
C142 C140 1.353 . S
C142 C145 1.348 . S
C142 H174 0.929 . S
C143 C144 1.358 . S
C143 C145 1.356 . S
C143 H175 0.930 . S
C144 N141 1.279 . S
C144 C143 1.358 . S
C144 H147 0.930 . S
C145 C142 1.348 . S
C145 C143 1.356 . S
H146 C140 0.930 . S
H147 C144 0.930 . S
O148 Li88 1.956 . S
O148 Li89 1.970 . S
O148 Li90 1.961 . S
O148 C92 1.325 . S
O149 Li88 1.970 . S
O149 Li89 1.956 . S
O149 Li91 1.961 . S
O149 C98 1.325 . S
O150 Li88 1.961 . S
O150 Li90 1.956 . S
O150 Li91 1.970 . S
O150 C120 1.325 . S
O151 Li89 1.961 . S
O151 Li90 1.970 . S
O151 Li91 1.956 . S
O151 C126 1.325 . S
H152 C94 0.929 . S
H153 C95 0.930 . S
H154 C96 0.930 . S
H155 C97 0.930 . S
H156 C99 0.930 . S
H157 C101 0.929 . S
H158 C102 0.930 . S
H159 C103 0.930 . S
H160 C106 0.930 . S
H161 C109 0.929 . S
H162 C114 0.929 . S
H163 C115 0.930 . S
H164 C122 0.929 . S
H165 C123 0.930 . S
H166 C124 0.930 . S
H167 C125 0.930 . S
H168 C127 0.929 . S
H169 C128 0.930 . S
H170 C129 0.930 . S
H171 C130 0.930 . S
H172 C134 0.929 . S
H173 C136 0.930 . S
H174 C142 0.929 . S
H175 C143 0.930 . S
Li176 N193 1.990 . S
Li176 O236 1.956 . S
Li176 O237 1.970 . S
Li176 O238 1.961 . S
Li177 N201 1.990 . S
Li177 O236 1.970 . S
Li177 O237 1.956 . S
Li177 O239 1.961 . S
Li178 N223 1.990 . S
Li178 O236 1.961 . S
Li178 O238 1.956 . S
Li178 O239 1.970 . S
Li179 N229 1.990 . S
Li179 O237 1.961 . S
Li179 O238 1.970 . S
Li179 O239 1.956 . S
C180 C182 1.348 . S
C180 C183 1.356 . S
C180 O236 1.325 . S
N181 C184 1.314 . S
N181 C185 1.279 . S
C182 C180 1.348 . S
C182 C184 1.353 . S
C182 H240 0.929 . S
C183 C180 1.356 . S
C183 C185 1.358 . S
C183 H241 0.930 . S
C184 N181 1.314 . S
C184 C182 1.353 . S
C184 H242 0.930 . S
C185 N181 1.279 . S
C185 C183 1.358 . S
C185 H243 0.930 . S
C186 C189 1.348 . S
C186 C190 1.356 . S
C186 O237 1.325 . S
C187 N188 1.279 . S
C187 C190 1.358 . S
C187 H244 0.930 . S
N188 C187 1.279 . S
N188 C191 1.314 . S
C189 C186 1.348 . S
C189 C191 1.353 . S
C189 H245 0.929 . S
C190 C186 1.356 . S
C190 C187 1.358 . S
C190 H246 0.930 . S
C191 N188 1.314 . S
C191 C189 1.353 . S
C191 H247 0.930 . S
C192 N193 1.314 . S
C192 C197 1.353 . S
C192 H198 0.930 . S
N193 Li176 1.990 . S
N193 C192 1.314 . S
N193 C195 1.279 . S
C194 C195 1.358 . S
C194 C196 1.356 . S
C194 H248 0.930 . S
C195 N193 1.279 . S
C195 C194 1.358 . S
C195 H199 0.930 . S
C196 C194 1.356 . S
C196 C197 1.348 . S
C197 C192 1.353 . S
C197 C196 1.348 . S
C197 H249 0.929 . S
H198 C192 0.930 . S
H199 C195 0.930 . S
C200 N201 1.314 . S
C200 C202 1.353 . S
C200 H206 0.930 . S
N201 Li177 1.990 . S
N201 C200 1.314 . S
N201 C204 1.279 . S
C202 C200 1.353 . S
C202 C205 1.348 . S
C202 H250 0.929 . S
C203 C204 1.358 . S
C203 C205 1.356 . S
C203 H251 0.930 . S
C204 N201 1.279 . S
C204 C203 1.358 . S
C204 H207 0.930 . S
C205 C202 1.348 . S
C205 C203 1.356 . S
H206 C200 0.930 . S
H207 C204 0.930 . S
C208 C210 1.348 . S
C208 C211 1.356 . S
C208 O238 1.325 . S
N209 C212 1.314 . S
N209 C213 1.279 . S
C210 C208 1.348 . S
C210 C212 1.353 . S
C210 H252 0.929 . S
C211 C208 1.356 . S
C211 C213 1.358 . S
C211 H253 0.930 . S
C212 N209 1.314 . S
C212 C210 1.353 . S
C212 H254 0.930 . S
C213 N209 1.279 . S
C213 C211 1.358 . S
C213 H255 0.930 . S
C214 C215 1.348 . S
C214 C216 1.356 . S
C214 O239 1.325 . S
C215 C214 1.348 . S
C215 C217 1.353 . S
C215 H256 0.929 . S
C216 C214 1.356 . S
C216 C218 1.358 . S
C216 H257 0.930 . S
C217 C215 1.353 . S
C217 N219 1.314 . S
C217 H258 0.930 . S
C218 C216 1.358 . S
C218 N219 1.279 . S
C218 H259 0.930 . S
N219 C217 1.314 . S
N219 C218 1.279 . S
C220 C222 1.353 . S
C220 N223 1.314 . S
C220 H226 0.930 . S
C221 N223 1.279 . S
C221 C224 1.358 . S
C221 H227 0.930 . S
C222 C220 1.353 . S
C222 C225 1.348 . S
C222 H260 0.929 . S
N223 Li178 1.990 . S
N223 C220 1.314 . S
N223 C221 1.279 . S
C224 C221 1.358 . S
C224 C225 1.356 . S
C224 H261 0.930 . S
C225 C222 1.348 . S
C225 C224 1.356 . S
H226 C220 0.930 . S
H227 C221 0.930 . S
C228 N229 1.314 . S
C228 C230 1.353 . S
C228 H234 0.930 . S
N229 Li179 1.990 . S
N229 C228 1.314 . S
N229 C232 1.279 . S
C230 C228 1.353 . S
C230 C233 1.348 . S
C230 H262 0.929 . S
C231 C232 1.358 . S
C231 C233 1.356 . S
C231 H263 0.930 . S
C232 N229 1.279 . S
C232 C231 1.358 . S
C232 H235 0.930 . S
C233 C230 1.348 . S
C233 C231 1.356 . S
H234 C228 0.930 . S
H235 C232 0.930 . S
O236 Li176 1.956 . S
O236 Li177 1.970 . S
O236 Li178 1.961 . S
O236 C180 1.325 . S
O237 Li176 1.970 . S
O237 Li177 1.956 . S
O237 Li179 1.961 . S
O237 C186 1.325 . S
O238 Li176 1.961 . S
O238 Li178 1.956 . S
O238 Li179 1.970 . S
O238 C208 1.325 . S
O239 Li177 1.961 . S
O239 Li178 1.970 . S
O239 Li179 1.956 . S
O239 C214 1.325 . S
H240 C182 0.929 . S
H241 C183 0.930 . S
H242 C184 0.930 . S
H243 C185 0.930 . S
H244 C187 0.930 . S
H245 C189 0.929 . S
H246 C190 0.930 . S
H247 C191 0.930 . S
H248 C194 0.930 . S
H249 C197 0.929 . S
H250 C202 0.929 . S
H251 C203 0.930 . S
H252 C210 0.929 . S
H253 C211 0.930 . S
H254 C212 0.930 . S
H255 C213 0.930 . S
H256 C215 0.929 . S
H257 C216 0.930 . S
H258 C217 0.930 . S
H259 C218 0.930 . S
H260 C222 0.929 . S
H261 C224 0.930 . S
H262 C230 0.929 . S
H263 C231 0.930 . S
Li264 N281 1.990 . S
Li264 O324 1.956 . S
Li264 O325 1.970 . S
Li264 O326 1.961 . S
Li265 N289 1.990 . S
Li265 O324 1.970 . S
Li265 O325 1.956 . S
Li265 O327 1.961 . S
Li266 N311 1.990 . S
Li266 O324 1.961 . S
Li266 O326 1.956 . S
Li266 O327 1.970 . S
Li267 N317 1.990 . S
Li267 O325 1.961 . S
Li267 O326 1.970 . S
Li267 O327 1.956 . S
C268 C270 1.348 . S
C268 C271 1.356 . S
C268 O324 1.325 . S
N269 C272 1.314 . S
N269 C273 1.279 . S
C270 C268 1.348 . S
C270 C272 1.353 . S
C270 H328 0.929 . S
C271 C268 1.356 . S
C271 C273 1.358 . S
C271 H329 0.930 . S
C272 N269 1.314 . S
C272 C270 1.353 . S
C272 H330 0.930 . S
C273 N269 1.279 . S
C273 C271 1.358 . S
C273 H331 0.930 . S
C274 C277 1.348 . S
C274 C278 1.356 . S
C274 O325 1.325 . S
C275 N276 1.279 . S
C275 C278 1.358 . S
C275 H332 0.930 . S
N276 C275 1.279 . S
N276 C279 1.314 . S
C277 C274 1.348 . S
C277 C279 1.353 . S
C277 H333 0.929 . S
C278 C274 1.356 . S
C278 C275 1.358 . S
C278 H334 0.930 . S
C279 N276 1.314 . S
C279 C277 1.353 . S
C279 H335 0.930 . S
C280 N281 1.314 . S
C280 C285 1.353 . S
C280 H286 0.930 . S
N281 Li264 1.990 . S
N281 C280 1.314 . S
N281 C283 1.279 . S
C282 C283 1.358 . S
C282 C284 1.356 . S
C282 H336 0.930 . S
C283 N281 1.279 . S
C283 C282 1.358 . S
C283 H287 0.930 . S
C284 C282 1.356 . S
C284 C285 1.348 . S
C285 C280 1.353 . S
C285 C284 1.348 . S
C285 H337 0.929 . S
H286 C280 0.930 . S
H287 C283 0.930 . S
C288 N289 1.314 . S
C288 C290 1.353 . S
C288 H294 0.930 . S
N289 Li265 1.990 . S
N289 C288 1.314 . S
N289 C292 1.279 . S
C290 C288 1.353 . S
C290 C293 1.348 . S
C290 H338 0.929 . S
C291 C292 1.358 . S
C291 C293 1.356 . S
C291 H339 0.930 . S
C292 N289 1.279 . S
C292 C291 1.358 . S
C292 H295 0.930 . S
C293 C290 1.348 . S
C293 C291 1.356 . S
H294 C288 0.930 . S
H295 C292 0.930 . S
C296 C298 1.348 . S
C296 C299 1.356 . S
C296 O326 1.325 . S
N297 C300 1.314 . S
N297 C301 1.279 . S
C298 C296 1.348 . S
C298 C300 1.353 . S
C298 H340 0.929 . S
C299 C296 1.356 . S
C299 C301 1.358 . S
C299 H341 0.930 . S
C300 N297 1.314 . S
C300 C298 1.353 . S
C300 H342 0.930 . S
C301 N297 1.279 . S
C301 C299 1.358 . S
C301 H343 0.930 . S
C302 C303 1.348 . S
C302 C304 1.356 . S
C302 O327 1.325 . S
C303 C302 1.348 . S
C303 C305 1.353 . S
C303 H344 0.929 . S
C304 C302 1.356 . S
C304 C306 1.358 . S
C304 H345 0.930 . S
C305 C303 1.353 . S
C305 N307 1.314 . S
C305 H346 0.930 . S
C306 C304 1.358 . S
C306 N307 1.279 . S
C306 H347 0.930 . S
N307 C305 1.314 . S
N307 C306 1.279 . S
C308 C310 1.353 . S
C308 N311 1.314 . S
C308 H314 0.930 . S
C309 N311 1.279 . S
C309 C312 1.358 . S
C309 H315 0.930 . S
C310 C308 1.353 . S
C310 C313 1.348 . S
C310 H348 0.929 . S
N311 Li266 1.990 . S
N311 C308 1.314 . S
N311 C309 1.279 . S
C312 C309 1.358 . S
C312 C313 1.356 . S
C312 H349 0.930 . S
C313 C310 1.348 . S
C313 C312 1.356 . S
H314 C308 0.930 . S
H315 C309 0.930 . S
C316 N317 1.314 . S
C316 C318 1.353 . S
C316 H322 0.930 . S
N317 Li267 1.990 . S
N317 C316 1.314 . S
N317 C320 1.279 . S
C318 C316 1.353 . S
C318 C321 1.348 . S
C318 H350 0.929 . S
C319 C320 1.358 . S
C319 C321 1.356 . S
C319 H351 0.930 . S
C320 N317 1.279 . S
C320 C319 1.358 . S
C320 H323 0.930 . S
C321 C318 1.348 . S
C321 C319 1.356 . S
H322 C316 0.930 . S
H323 C320 0.930 . S
O324 Li264 1.956 . S
O324 Li265 1.970 . S
O324 Li266 1.961 . S
O324 C268 1.325 . S
O325 Li264 1.970 . S
O325 Li265 1.956 . S
O325 Li267 1.961 . S
O325 C274 1.325 . S
O326 Li264 1.961 . S
O326 Li266 1.956 . S
O326 Li267 1.970 . S
O326 C296 1.325 . S
O327 Li265 1.961 . S
O327 Li266 1.970 . S
O327 Li267 1.956 . S
O327 C302 1.325 . S
H328 C270 0.929 . S
H329 C271 0.930 . S
H330 C272 0.930 . S
H331 C273 0.930 . S
H332 C275 0.930 . S
H333 C277 0.929 . S
H334 C278 0.930 . S
H335 C279 0.930 . S
H336 C282 0.930 . S
H337 C285 0.929 . S
H338 C290 0.929 . S
H339 C291 0.930 . S
H340 C298 0.929 . S
H341 C299 0.930 . S
H342 C300 0.930 . S
H343 C301 0.930 . S
H344 C303 0.929 . S
H345 C304 0.930 . S
H346 C305 0.930 . S
H347 C306 0.930 . S
H348 C310 0.929 . S
H349 C312 0.930 . S
H350 C318 0.929 . S
H351 C319 0.930 . S
C352 C353 1.386 . S
C352 C354 1.383 1_565 S
C352 H368 0.951 1_565 S
C353 C352 1.386 . S
C353 C357 1.383 . S
C354 C352 1.383 1_545 S
C354 C355 1.402 1_545 S
C354 H369 0.951 . S
C355 C354 1.402 1_565 S
C355 C356 1.375 . S
C355 C358 1.481 . S
C356 C355 1.375 . S
C356 C357 1.367 . S
C356 H370 0.951 . S
C357 C353 1.383 . S
C357 C356 1.367 . S
C357 H371 0.950 . S
C358 C355 1.481 . S
C358 C359 1.297 1_565 S
C358 H372 0.950 . S
C359 C358 1.297 1_545 S
C359 C360 1.479 . S
C359 H373 0.950 . S
C360 C359 1.479 . S
C360 C361 1.375 . S
C360 C366 1.404 . S
C361 C360 1.375 . S
C361 C362 1.369 . S
C361 H374 0.950 . S
C362 C361 1.369 . S
C362 C363 1.392 . S
C362 H375 0.951 . S
C363 C362 1.392 . S
C363 C365 1.384 . S
H364 C366 0.949 1_565 S
C365 C363 1.384 . S
C365 C366 1.385 . S
C365 H367 0.950 1_545 S
C366 C360 1.404 . S
C366 H364 0.949 1_545 S
C366 C365 1.385 . S
H367 C365 0.950 1_565 S
H368 C352 0.951 1_545 S
H369 C354 0.951 . S
H370 C356 0.951 . S
H371 C357 0.950 . S
H372 C358 0.950 . S
H373 C359 0.950 . S
H374 C361 0.950 . S
H375 C362 0.951 . S
C376 C377 1.386 . S
C376 C378 1.383 . S
C376 H392 0.951 . S
C377 C376 1.386 . S
C377 C381 1.383 . S
C378 C376 1.383 . S
C378 C379 1.402 . S
C378 H393 0.951 . S
C379 C378 1.402 . S
C379 C380 1.375 . S
C379 C382 1.481 . S
C380 C379 1.375 . S
C380 C381 1.367 . S
C380 H394 0.951 . S
C381 C377 1.383 . S
C381 C380 1.367 . S
C381 H395 0.950 . S
C382 C379 1.481 . S
C382 C383 1.297 . S
C382 H396 0.950 . S
C383 C382 1.297 . S
C383 C384 1.479 . S
C383 H397 0.950 . S
C384 C383 1.479 . S
C384 C385 1.375 . S
C384 C390 1.404 . S
C385 C384 1.375 . S
C385 C386 1.369 . S
C385 H398 0.950 . S
C386 C385 1.369 . S
C386 C387 1.392 . S
C386 H399 0.951 . S
C387 C386 1.392 . S
C387 C389 1.384 . S
H388 C390 0.949 . S
C389 C387 1.384 . S
C389 C390 1.385 . S
C389 H391 0.950 . S
C390 C384 1.404 . S
C390 H388 0.949 . S
C390 C389 1.385 . S
H391 C389 0.950 . S
H392 C376 0.951 . S
H393 C378 0.951 . S
H394 C380 0.951 . S
H395 C381 0.950 . S
H396 C382 0.950 . S
H397 C383 0.950 . S
H398 C385 0.950 . S
H399 C386 0.951 . S
C400 C401 1.386 . S
C400 C402 1.383 . S
C400 H416 0.951 . S
C401 C400 1.386 . S
C401 C405 1.383 . S
C402 C400 1.383 . S
C402 C403 1.402 . S
C402 H417 0.951 . S
C403 C402 1.402 . S
C403 C404 1.375 . S
C403 C406 1.481 1_545 S
C404 C403 1.375 . S
C404 C405 1.367 . S
C404 H418 0.951 1_545 S
C405 C401 1.383 . S
C405 C404 1.367 . S
C405 H419 0.950 . S
C406 C403 1.481 1_565 S
C406 C407 1.297 . S
C406 H420 0.950 . S
C407 C406 1.297 . S
C407 C408 1.479 . S
C407 H421 0.950 . S
C408 C407 1.479 . S
C408 C409 1.375 . S
C408 C414 1.404 . S
C409 C408 1.375 . S
C409 C410 1.369 . S
C409 H422 0.950 . S
C410 C409 1.369 . S
C410 C411 1.392 . S
C410 H423 0.951 . S
C411 C410 1.392 . S
C411 C413 1.384 . S
H412 C414 0.949 . S
C413 C411 1.384 . S
C413 C414 1.385 . S
C413 H415 0.950 . S
C414 C408 1.404 . S
C414 H412 0.949 . S
C414 C413 1.385 . S
H415 C413 0.950 . S
H416 C400 0.951 . S
H417 C402 0.951 . S
H418 C404 0.951 1_565 S
H419 C405 0.950 . S
H420 C406 0.950 . S
H421 C407 0.950 . S
H422 C409 0.950 . S
H423 C410 0.951 . S
C424 C425 1.386 . S
C424 C426 1.383 . S
C424 H440 0.951 . S
C425 C424 1.386 . S
C425 C429 1.383 . S
C426 C424 1.383 . S
C426 C427 1.402 . S
C426 H441 0.951 . S
C427 C426 1.402 . S
C427 C428 1.375 . S
C427 C430 1.481 . S
C428 C427 1.375 . S
C428 C429 1.367 . S
C428 H442 0.951 . S
C429 C425 1.383 . S
C429 C428 1.367 . S
C429 H443 0.950 . S
C430 C427 1.481 . S
C430 C431 1.297 . S
C430 H444 0.950 . S
C431 C430 1.297 . S
C431 C432 1.479 . S
C431 H445 0.950 . S
C432 C431 1.479 . S
C432 C433 1.375 . S
C432 C438 1.404 . S
C433 C432 1.375 . S
C433 C434 1.369 . S
C433 H446 0.950 . S
C434 C433 1.369 . S
C434 C435 1.392 . S
C434 H447 0.951 . S
C435 C434 1.392 . S
C435 C437 1.384 . S
H436 C438 0.949 . S
C437 C435 1.384 . S
C437 C438 1.385 . S
C437 H439 0.950 . S
C438 C432 1.404 . S
C438 H436 0.949 . S
C438 C437 1.385 . S
H439 C437 0.950 . S
H440 C424 0.951 . S
H441 C426 0.951 . S
H442 C428 0.951 . S
H443 C429 0.950 . S
H444 C430 0.950 . S
H445 C431 0.950 . S
H446 C433 0.950 . S
H447 C434 0.951 . S
C448 C449 1.386 . S
C448 C450 1.383 . S
C448 H464 0.951 . S
C449 C448 1.386 . S
C449 C453 1.383 . S
C450 C448 1.383 . S
C450 C451 1.402 . S
C450 H465 0.951 1_455 S
C451 C450 1.402 . S
C451 C452 1.375 . S
C451 C454 1.481 1_554 S
C452 C451 1.375 . S
C452 C453 1.367 . S
C452 H466 0.951 . S
C453 C449 1.383 . S
C453 C452 1.367 . S
C453 H467 0.950 . S
C454 C451 1.481 1_556 S
C454 C455 1.297 1_455 S
C454 H468 0.950 1_545 S
C455 C454 1.297 1_655 S
C455 C456 1.479 1_545 S
C455 H469 0.950 . S
C456 C455 1.479 1_565 S
C456 C457 1.375 . S
C456 C462 1.404 . S
C457 C456 1.375 . S
C457 C458 1.369 . S
C457 H470 0.950 . S
C458 C457 1.369 . S
C458 C459 1.392 . S
C458 H471 0.951 . S
C459 C458 1.392 . S
C459 C461 1.384 . S
H460 C462 0.949 1_455 S
C461 C459 1.384 . S
C461 C462 1.385 . S
C461 H463 0.950 . S
C462 C456 1.404 . S
C462 H460 0.949 1_655 S
C462 C461 1.385 . S
H463 C461 0.950 . S
H464 C448 0.951 . S
H465 C450 0.951 1_655 S
H466 C452 0.951 . S
H467 C453 0.950 . S
H468 C454 0.950 1_565 S
H469 C455 0.950 . S
H470 C457 0.950 . S
H471 C458 0.951 . S
C472 C473 1.386 . S
C472 C474 1.383 . S
C472 H488 0.951 . S
C473 C472 1.386 . S
C473 C477 1.383 . S
C474 C472 1.383 . S
C474 C475 1.402 . S
C474 H489 0.951 . S
C475 C474 1.402 . S
C475 C476 1.375 . S
C475 C478 1.483 1_545 S
C476 C475 1.375 . S
C476 C477 1.367 . S
C476 H490 0.951 1_556 S
C477 C473 1.383 . S
C477 C476 1.367 . S
C477 H491 0.950 . S
C478 C475 1.483 1_565 S
C478 C479 1.296 . S
C478 H492 0.949 1_556 S
C479 C478 1.296 . S
C479 C480 1.479 1_556 S
C479 H493 0.950 . S
C480 C479 1.479 1_554 S
C480 C481 1.375 . S
C480 C486 1.404 . S
C481 C480 1.375 . S
C481 C482 1.369 . S
C481 H494 0.950 1_554 S
C482 C481 1.369 . S
C482 C483 1.392 . S
C482 H495 0.951 . S
C483 C482 1.392 . S
C483 C485 1.384 . S
H484 C486 0.949 . S
C485 C483 1.384 . S
C485 C486 1.385 . S
C485 H487 0.950 . S
C486 C480 1.404 . S
C486 H484 0.949 . S
C486 C485 1.385 . S
H487 C485 0.950 . S
H488 C472 0.951 . S
H489 C474 0.951 . S
H490 C476 0.951 1_554 S
H491 C477 0.950 . S
H492 C478 0.949 1_554 S
H493 C479 0.950 . S
H494 C481 0.950 1_556 S
H495 C482 0.951 . S
C496 C497 1.386 . S
C496 C498 1.383 . S
C496 H512 0.951 . S
C497 C496 1.386 . S
C497 C501 1.383 . S
C498 C496 1.383 . S
C498 C499 1.402 . S
C498 H513 0.951 . S
C499 C498 1.402 . S
C499 C500 1.375 . S
C499 C502 1.481 1_655 S
C500 C499 1.375 . S
C500 C501 1.367 . S
C500 H514 0.951 1_655 S
C501 C497 1.383 . S
C501 C500 1.367 . S
C501 H515 0.950 . S
C502 C499 1.481 1_455 S
C502 C503 1.297 . S
C502 H516 0.950 . S
C503 C502 1.297 . S
C503 C504 1.479 . S
C503 H517 0.950 1_455 S
C504 C503 1.479 . S
C504 C505 1.375 . S
C504 C510 1.404 . S
C505 C504 1.375 . S
C505 C506 1.369 . S
C505 H518 0.950 1_455 S
C506 C505 1.369 . S
C506 C507 1.392 . S
C506 H519 0.951 . S
C507 C506 1.392 . S
C507 C509 1.384 . S
H508 C510 0.949 . S
C509 C507 1.384 . S
C509 C510 1.385 . S
C509 H511 0.950 . S
C510 C504 1.404 . S
C510 H508 0.949 . S
C510 C509 1.385 . S
H511 C509 0.950 . S
H512 C496 0.951 . S
H513 C498 0.951 . S
H514 C500 0.951 1_455 S
H515 C501 0.950 . S
H516 C502 0.950 . S
H517 C503 0.950 1_655 S
H518 C505 0.950 1_655 S
H519 C506 0.951 . S
C520 C521 1.386 . S
C520 C522 1.383 . S
C520 H536 0.951 . S
C521 C520 1.386 . S
C521 C525 1.383 . S
C522 C520 1.383 . S
C522 C523 1.402 . S
C522 H537 0.951 . S
C523 C522 1.402 . S
C523 C524 1.375 . S
C523 C526 1.481 . S
C524 C523 1.375 . S
C524 C525 1.367 . S
C524 H538 0.951 . S
C525 C521 1.383 . S
C525 C524 1.367 . S
C525 H539 0.950 . S
C526 C523 1.481 . S
C526 C527 1.297 . S
C526 H540 0.950 . S
C527 C526 1.297 . S
C527 C528 1.479 . S
C527 H541 0.950 . S
C528 C527 1.479 . S
C528 C529 1.375 . S
C528 C534 1.404 . S
C529 C528 1.375 . S
C529 C530 1.369 . S
C529 H542 0.950 . S
C530 C529 1.369 . S
C530 C531 1.392 . S
C530 H543 0.951 . S
C531 C530 1.392 . S
C531 C533 1.384 . S
H532 C534 0.949 . S
C533 C531 1.384 . S
C533 C534 1.385 . S
C533 H535 0.950 . S
C534 C528 1.404 . S
C534 H532 0.949 . S
C534 C533 1.385 . S
H535 C533 0.950 . S
H536 C520 0.951 . S
H537 C522 0.951 . S
H538 C524 0.951 . S
H539 C525 0.950 . S
H540 C526 0.950 . S
H541 C527 0.950 . S
H542 C529 0.950 . S
H543 C530 0.951 . S
C353 C145 0.539 . S
C363 C29 0.432 . S
C377 C20 0.534 . S
C387 C137 0.436 . S
C401 C284 0.670 . S
C411 C196 0.428 . S
C425 C233 0.538 . S
C435 C321 0.685 . S
C449 C49 1.815 . S
C459 C205 1.756 . S
C473 C293 1.791 . S
C483 C108 1.837 . S
C497 C225 1.815 . S
C507 C57 1.759 . S
C521 C117 1.785 . S
C531 C313 1.811 . S
