# Generated by pormake.
# Topology umk, (4)-cn, num edge types: 1
# Building blocks:
#     Node 0, Type 0, BuildingBlock: NAHDIM_clean_sbu_0, # of connection points: 4
#     Node 1, Type 0, BuildingBlock: NAHDIM_clean_sbu_0, # of connection points: 4
#     Node 2, Type 0, BuildingBlock: NAHDIM_clean_sbu_0, # of connection points: 4
#     Node 3, Type 0, BuildingBlock: NAHDIM_clean_sbu_0, # of connection points: 4
#     Node 4, Type 0, BuildingBlock: NAHDIM_clean_sbu_0, # of connection points: 4
#     Node 5, Type 0, BuildingBlock: NAHDIM_clean_sbu_0, # of connection points: 4
#     Node 6, Type 0, BuildingBlock: NAHDIM_clean_sbu_0, # of connection points: 4
#     Node 7, Type 0, BuildingBlock: NAHDIM_clean_sbu_0, # of connection points: 4
#     Node 8, Type 0, BuildingBlock: NAHDIM_clean_sbu_0, # of connection points: 4
#     Node 9, Type 0, BuildingBlock: NAHDIM_clean_sbu_0, # of connection points: 4
#     Node 10, Type 0, BuildingBlock: NAHDIM_clean_sbu_0, # of connection points: 4
#     Node 11, Type 0, BuildingBlock: NAHDIM_clean_sbu_0, # of connection points: 4
#     Node 12, Type 0, BuildingBlock: NAHDIM_clean_sbu_0, # of connection points: 4
#     Node 13, Type 0, BuildingBlock: NAHDIM_clean_sbu_0, # of connection points: 4
#     Node 14, Type 0, BuildingBlock: NAHDIM_clean_sbu_0, # of connection points: 4
#     Node 15, Type 0, BuildingBlock: NAHDIM_clean_sbu_0, # of connection points: 4
#     Node 16, Type 0, BuildingBlock: NAHDIM_clean_sbu_0, # of connection points: 4
#     Node 17, Type 0, BuildingBlock: NAHDIM_clean_sbu_0, # of connection points: 4
#     Node 18, Type 0, BuildingBlock: NAHDIM_clean_sbu_0, # of connection points: 4
#     Node 19, Type 0, BuildingBlock: NAHDIM_clean_sbu_0, # of connection points: 4
#     Node 20, Type 0, BuildingBlock: NAHDIM_clean_sbu_0, # of connection points: 4
#     Node 21, Type 0, BuildingBlock: NAHDIM_clean_sbu_0, # of connection points: 4
#     Node 22, Type 0, BuildingBlock: NAHDIM_clean_sbu_0, # of connection points: 4
#     Node 23, Type 0, BuildingBlock: NAHDIM_clean_sbu_0, # of connection points: 4
#     Edge 24, Type (0, 0), BuildingBlock: UVAHIK_clean_linker_0, # of connection points: 2
#     Edge 25, Type (0, 0), BuildingBlock: UVAHIK_clean_linker_0, # of connection points: 2
#     Edge 26, Type (0, 0), BuildingBlock: UVAHIK_clean_linker_0, # of connection points: 2
#     Edge 27, Type (0, 0), BuildingBlock: UVAHIK_clean_linker_0, # of connection points: 2
#     Edge 28, Type (0, 0), BuildingBlock: UVAHIK_clean_linker_0, # of connection points: 2
#     Edge 29, Type (0, 0), BuildingBlock: UVAHIK_clean_linker_0, # of connection points: 2
#     Edge 30, Type (0, 0), BuildingBlock: UVAHIK_clean_linker_0, # of connection points: 2
#     Edge 31, Type (0, 0), BuildingBlock: UVAHIK_clean_linker_0, # of connection points: 2
#     Edge 32, Type (0, 0), BuildingBlock: UVAHIK_clean_linker_0, # of connection points: 2
#     Edge 33, Type (0, 0), BuildingBlock: UVAHIK_clean_linker_0, # of connection points: 2
#     Edge 34, Type (0, 0), BuildingBlock: UVAHIK_clean_linker_0, # of connection points: 2
#     Edge 35, Type (0, 0), BuildingBlock: UVAHIK_clean_linker_0, # of connection points: 2
#     Edge 36, Type (0, 0), BuildingBlock: UVAHIK_clean_linker_0, # of connection points: 2
#     Edge 37, Type (0, 0), BuildingBlock: UVAHIK_clean_linker_0, # of connection points: 2
#     Edge 38, Type (0, 0), BuildingBlock: UVAHIK_clean_linker_0, # of connection points: 2
#     Edge 39, Type (0, 0), BuildingBlock: UVAHIK_clean_linker_0, # of connection points: 2
#     Edge 40, Type (0, 0), BuildingBlock: UVAHIK_clean_linker_0, # of connection points: 2
#     Edge 41, Type (0, 0), BuildingBlock: UVAHIK_clean_linker_0, # of connection points: 2
#     Edge 42, Type (0, 0), BuildingBlock: UVAHIK_clean_linker_0, # of connection points: 2
#     Edge 43, Type (0, 0), BuildingBlock: UVAHIK_clean_linker_0, # of connection points: 2
#     Edge 44, Type (0, 0), BuildingBlock: UVAHIK_clean_linker_0, # of connection points: 2
#     Edge 45, Type (0, 0), BuildingBlock: UVAHIK_clean_linker_0, # of connection points: 2
#     Edge 46, Type (0, 0), BuildingBlock: UVAHIK_clean_linker_0, # of connection points: 2
#     Edge 47, Type (0, 0), BuildingBlock: UVAHIK_clean_linker_0, # of connection points: 2
#     Edge 48, Type (0, 0), BuildingBlock: UVAHIK_clean_linker_0, # of connection points: 2
#     Edge 49, Type (0, 0), BuildingBlock: UVAHIK_clean_linker_0, # of connection points: 2
#     Edge 50, Type (0, 0), BuildingBlock: UVAHIK_clean_linker_0, # of connection points: 2
#     Edge 51, Type (0, 0), BuildingBlock: UVAHIK_clean_linker_0, # of connection points: 2
#     Edge 52, Type (0, 0), BuildingBlock: UVAHIK_clean_linker_0, # of connection points: 2
#     Edge 53, Type (0, 0), BuildingBlock: UVAHIK_clean_linker_0, # of connection points: 2
#     Edge 54, Type (0, 0), BuildingBlock: UVAHIK_clean_linker_0, # of connection points: 2
#     Edge 55, Type (0, 0), BuildingBlock: UVAHIK_clean_linker_0, # of connection points: 2
#     Edge 56, Type (0, 0), BuildingBlock: UVAHIK_clean_linker_0, # of connection points: 2
#     Edge 57, Type (0, 0), BuildingBlock: UVAHIK_clean_linker_0, # of connection points: 2
#     Edge 58, Type (0, 0), BuildingBlock: UVAHIK_clean_linker_0, # of connection points: 2
#     Edge 59, Type (0, 0), BuildingBlock: UVAHIK_clean_linker_0, # of connection points: 2
#     Edge 60, Type (0, 0), BuildingBlock: UVAHIK_clean_linker_0, # of connection points: 2
#     Edge 61, Type (0, 0), BuildingBlock: UVAHIK_clean_linker_0, # of connection points: 2
#     Edge 62, Type (0, 0), BuildingBlock: UVAHIK_clean_linker_0, # of connection points: 2
#     Edge 63, Type (0, 0), BuildingBlock: UVAHIK_clean_linker_0, # of connection points: 2
#     Edge 64, Type (0, 0), BuildingBlock: UVAHIK_clean_linker_0, # of connection points: 2
#     Edge 65, Type (0, 0), BuildingBlock: UVAHIK_clean_linker_0, # of connection points: 2
#     Edge 66, Type (0, 0), BuildingBlock: UVAHIK_clean_linker_0, # of connection points: 2
#     Edge 67, Type (0, 0), BuildingBlock: UVAHIK_clean_linker_0, # of connection points: 2
#     Edge 68, Type (0, 0), BuildingBlock: UVAHIK_clean_linker_0, # of connection points: 2
#     Edge 69, Type (0, 0), BuildingBlock: UVAHIK_clean_linker_0, # of connection points: 2
#     Edge 70, Type (0, 0), BuildingBlock: UVAHIK_clean_linker_0, # of connection points: 2
#     Edge 71, Type (0, 0), BuildingBlock: UVAHIK_clean_linker_0, # of connection points: 2
# Relax obj value: 0.111
# Max RMSD: 0.130
# Mean RMSD: 0.130
data_MOF--net-umk--node1-NAHDIM_clean_sbu_0--edge1-UVAHIK_clean_linker_0
_symmetry_space_group_name_H-M    P1
_symmetry_Int_Tables_number       1
_symmetry_cell_setting            triclinic
loop_
_symmetry_equiv_pos_as_xyz
'x, y, z'
_cell_length_a     85.888593
_cell_length_b     85.901604
_cell_length_c     54.307293
_cell_angle_alpha  90.024049
_cell_angle_beta   89.993146
_cell_angle_gamma 120.04532
loop_
_atom_site_label
_atom_site_type_symbol
_atom_site_fract_x
_atom_site_fract_y
_atom_site_fract_z
_atom_type_partial_charge
C0 C 0.30085 0.46346 0.04742 0.0
O1 O 0.31447 0.47844 0.05585 0.0
O2 O 0.3251 0.45299 0.0968 0.0
Zn3 Zn 0.32433 0.45042 0.05998 0.0
O4 O 0.34607 0.47141 0.04507 0.0
C5 C 0.31471 0.41329 0.06302 0.0
O6 O 0.30355 0.41285 0.07993 0.0
O7 O 0.30196 0.44927 0.04713 0.0
C8 C 0.3616 0.47412 0.05066 0.0
O9 O 0.36298 0.463 0.0659 0.0
C10 C 0.33323 0.46811 0.10768 0.0
O11 O 0.34147 0.48291 0.09455 0.0
O12 O 0.32461 0.42788 0.05159 0.0
C13 C 0.83307 0.30035 0.56515 0.0
O14 O 0.82825 0.3099 0.57872 0.0
O15 O 0.86208 0.32756 0.6152 0.0
Zn16 Zn 0.86771 0.32846 0.57913 0.0
O17 O 0.86722 0.34905 0.56249 0.0
C18 C 0.90003 0.33489 0.55478 0.0
O19 O 0.89144 0.33569 0.53524 0.0
O20 O 0.84967 0.30559 0.56271 0.0
C21 C 0.87753 0.36524 0.56909 0.0
O22 O 0.88859 0.36863 0.58764 0.0
C23 C 0.8536 0.33461 0.62489 0.0
O24 O 0.84776 0.34308 0.61086 0.0
O25 O 0.89234 0.33168 0.57564 0.0
C26 C 0.54441 0.84658 0.0519 0.0
O27 O 0.54893 0.85029 0.07517 0.0
O28 O 0.53341 0.87142 0.093 0.0
Zn29 Zn 0.5356 0.87477 0.05634 0.0
O30 O 0.51348 0.87413 0.0431 0.0
C31 C 0.57228 0.90329 0.05855 0.0
O32 O 0.57372 0.89207 0.07354 0.0
O33 O 0.53841 0.85532 0.04032 0.0
C34 C 0.50664 0.88226 0.05431 0.0
O35 O 0.51429 0.89117 0.07459 0.0
C36 C 0.51953 0.85865 0.10308 0.0
O37 O 0.50618 0.84716 0.08916 0.0
O38 O 0.55714 0.89868 0.04876 0.0
C39 C 0.68283 0.52908 0.54569 0.0
O40 O 0.66793 0.51376 0.54951 0.0
O41 O 0.66275 0.54122 0.60354 0.0
Zn42 Zn 0.66185 0.54307 0.56677 0.0
O43 O 0.63939 0.52189 0.55354 0.0
C44 C 0.67152 0.58032 0.5698 0.0
O45 O 0.68276 0.58085 0.58664 0.0
O46 O 0.68346 0.5437 0.55161 0.0
C47 C 0.63394 0.5226 0.53205 0.0
O48 O 0.64299 0.53737 0.51904 0.0
C49 C 0.66021 0.52702 0.61435 0.0
O50 O 0.65677 0.51283 0.60117 0.0
O51 O 0.66151 0.56565 0.55858 0.0
C52 C 0.14558 0.68532 0.03903 0.0
O53 O 0.13718 0.67 0.02703 0.0
O54 O 0.12572 0.66327 0.11307 0.0
Zn55 Zn 0.12089 0.66392 0.07688 0.0
O56 O 0.11835 0.64186 0.05985 0.0
C57 C 0.09164 0.66545 0.05283 0.0
O58 O 0.10061 0.66647 0.03272 0.0
O59 O 0.141 0.68606 0.06107 0.0
C60 C 0.10323 0.62789 0.0557 0.0
O61 O 0.08845 0.62732 0.06337 0.0
C62 C 0.11728 0.64848 0.12468 0.0
O63 O 0.10612 0.63385 0.11257 0.0
O64 O 0.0979 0.66448 0.0736 0.0
C65 C 0.46614 0.15225 0.55293 0.0
O66 O 0.48087 0.1535 0.56212 0.0
O67 O 0.45427 0.11989 0.60571 0.0
Zn68 Zn 0.45207 0.11634 0.56906 0.0
O69 O 0.47313 0.11494 0.55558 0.0
C70 C 0.41437 0.08886 0.57132 0.0
O71 O 0.41342 0.09941 0.58805 0.0
O72 O 0.45161 0.13722 0.55367 0.0
C73 C 0.47167 0.10654 0.53567 0.0
O74 O 0.45616 0.09861 0.52408 0.0
C75 C 0.46927 0.12653 0.61686 0.0
O76 O 0.48395 0.13104 0.60418 0.0
O77 O 0.42934 0.09352 0.56098 0.0
C78 C 0.54163 0.69744 0.92837 0.0
O79 O 0.54018 0.696 0.90429 0.0
O80 O 0.5341 0.66138 0.88937 0.0
Zn81 Zn 0.53808 0.66208 0.92585 0.0
O82 O 0.51684 0.64067 0.94118 0.0
C83 C 0.57478 0.67074 0.91965 0.0
O84 O 0.57488 0.68194 0.9031 0.0
O85 O 0.54101 0.68468 0.94092 0.0
C86 C 0.51864 0.63101 0.95737 0.0
O87 O 0.53485 0.63523 0.96475 0.0
C88 C 0.53025 0.64696 0.87801 0.0
O89 O 0.52877 0.63322 0.8906 0.0
O90 O 0.5605 0.66097 0.9318 0.0
C91 C 0.83837 0.52781 0.45023 0.0
O92 O 0.83833 0.51252 0.44887 0.0
O93 O 0.87234 0.53916 0.393 0.0
Zn94 Zn 0.87388 0.54187 0.42993 0.0
O95 O 0.87622 0.52196 0.44599 0.0
C96 C 0.90038 0.5795 0.42608 0.0
O97 O 0.88979 0.57917 0.40838 0.0
O98 O 0.85218 0.54219 0.44313 0.0
C99 C 0.8709 0.50672 0.43603 0.0
O100 O 0.86353 0.5035 0.41406 0.0
C101 C 0.85765 0.52982 0.38145 0.0
O102 O 0.84254 0.52117 0.39386 0.0
O103 O 0.89603 0.56519 0.43806 0.0
C104 C 0.29278 0.83763 0.92119 0.0
O105 O 0.29991 0.83496 0.90139 0.0
O106 O 0.32445 0.87189 0.88092 0.0
Zn107 Zn 0.32348 0.87328 0.91787 0.0
O108 O 0.34416 0.87205 0.93301 0.0
C109 C 0.32286 0.90661 0.91281 0.0
O110 O 0.31769 0.90099 0.89018 0.0
O111 O 0.30044 0.85308 0.93118 0.0
C112 C 0.34899 0.87755 0.95491 0.0
O113 O 0.34014 0.88375 0.96742 0.0
C114 C 0.33363 0.86605 0.87007 0.0
O115 O 0.34253 0.86028 0.88327 0.0
O116 O 0.32571 0.89685 0.92761 0.0
C117 C 0.46877 0.30733 0.44852 0.0
O118 O 0.48401 0.32257 0.44628 0.0
O119 O 0.4555 0.32747 0.39048 0.0
Zn120 Zn 0.45454 0.32817 0.42739 0.0
O121 O 0.47602 0.35059 0.44002 0.0
C122 C 0.41888 0.32378 0.42429 0.0
O123 O 0.41882 0.31743 0.40225 0.0
O124 O 0.45425 0.30649 0.44156 0.0
C125 C 0.48171 0.36566 0.42941 0.0
O126 O 0.47341 0.36657 0.40961 0.0
C127 C 0.46937 0.32954 0.37919 0.0
O128 O 0.48347 0.33217 0.39195 0.0
O129 O 0.43249 0.32875 0.43812 0.0
C130 C 0.14473 0.46392 0.95324 0.0
O131 O 0.14488 0.47924 0.95137 0.0
O132 O 0.11482 0.45363 0.89279 0.0
Zn133 Zn 0.11075 0.45067 0.9293 0.0
O134 O 0.10875 0.47114 0.94375 0.0
C135 C 0.08293 0.41358 0.92353 0.0
O136 O 0.09355 0.41361 0.9061 0.0
O137 O 0.1313 0.44965 0.94508 0.0
C138 C 0.10214 0.47936 0.93221 0.0
O139 O 0.09625 0.47447 0.90961 0.0
C140 C 0.1267 0.46821 0.88299 0.0
O141 O 0.1367 0.48214 0.89708 0.0
O142 O 0.08774 0.42782 0.93594 0.0
C143 C 0.69327 0.15079 0.43347 0.0
O144 O 0.68704 0.154 0.41318 0.0
O145 O 0.66267 0.11703 0.39106 0.0
Zn146 Zn 0.66255 0.11508 0.42807 0.0
O147 O 0.64127 0.11581 0.44195 0.0
C148 C 0.66466 0.08258 0.42374 0.0
O149 O 0.67154 0.08911 0.402 0.0
O150 O 0.68509 0.13513 0.4428 0.0
C151 C 0.62553 0.10415 0.43507 0.0
O152 O 0.62358 0.09198 0.41879 0.0
C153 C 0.65552 0.12494 0.38002 0.0
O154 O 0.64817 0.13247 0.39304 0.0
O155 O 0.66019 0.09149 0.43782 0.0
C156 C 0.68302 0.53153 0.94931 0.0
O157 O 0.66811 0.51598 0.94699 0.0
O158 O 0.66205 0.54129 0.88951 0.0
Zn159 Zn 0.66145 0.54408 0.92622 0.0
O160 O 0.63936 0.52349 0.94153 0.0
C161 C 0.67057 0.58107 0.92089 0.0
O162 O 0.68146 0.5812 0.9038 0.0
O163 O 0.68345 0.54569 0.94156 0.0
C164 C 0.62589 0.5116 0.92964 0.0
O165 O 0.62578 0.51238 0.9055 0.0
C166 C 0.6632 0.52867 0.87906 0.0
O167 O 0.66376 0.51629 0.89259 0.0
O168 O 0.66099 0.56674 0.93306 0.0
C169 C 0.1386 0.68692 0.47282 0.0
O170 O 0.12996 0.67251 0.48662 0.0
O171 O 0.11661 0.66351 0.40019 0.0
Zn172 Zn 0.11292 0.66418 0.43659 0.0
O173 O 0.11165 0.64245 0.4524 0.0
C174 C 0.08519 0.67335 0.43012 0.0
O175 O 0.09612 0.68406 0.41302 0.0
O176 O 0.13351 0.68655 0.45076 0.0
C177 C 0.12427 0.63899 0.44941 0.0
O178 O 0.13819 0.64981 0.43581 0.0
C179 C 0.10795 0.64879 0.38848 0.0
O180 O 0.09663 0.63418 0.40051 0.0
O181 O 0.08975 0.66381 0.44269 0.0
C182 C 0.44108 0.15156 0.93607 0.0
O183 O 0.43726 0.14939 0.91246 0.0
O184 O 0.45593 0.13186 0.89132 0.0
Zn185 Zn 0.45182 0.12527 0.92714 0.0
O186 O 0.473 0.12448 0.94139 0.0
C187 C 0.4236 0.09301 0.94977 0.0
O188 O 0.43162 0.10111 0.97034 0.0
O189 O 0.44758 0.14274 0.94618 0.0
C190 C 0.47456 0.11063 0.93865 0.0
O191 O 0.46215 0.0968 0.92633 0.0
C192 C 0.47109 0.13854 0.88063 0.0
O193 O 0.48545 0.14215 0.89353 0.0
O194 O 0.42987 0.1009 0.92937 0.0
C195 C 0.30196 0.45842 0.43027 0.0
O196 O 0.31017 0.4706 0.41307 0.0
O197 O 0.32916 0.4538 0.38344 0.0
Zn198 Zn 0.33016 0.4508 0.41997 0.0
O199 O 0.35191 0.47209 0.43447 0.0
C200 C 0.33309 0.42353 0.44715 0.0
O201 O 0.3336 0.43313 0.46631 0.0
O202 O 0.30807 0.4482 0.43619 0.0
C203 C 0.36747 0.47397 0.43199 0.0
O204 O 0.36926 0.46178 0.41969 0.0
C205 C 0.33764 0.46885 0.37246 0.0
O206 O 0.34739 0.48354 0.38538 0.0
O207 O 0.33153 0.42853 0.42574 0.0
C208 C 0.84602 0.30888 0.97209 0.0
O209 O 0.85521 0.32342 0.98552 0.0
O210 O 0.86495 0.33084 0.8977 0.0
Zn211 Zn 0.86951 0.33155 0.93399 0.0
O212 O 0.8704 0.35325 0.94925 0.0
C213 C 0.89744 0.32286 0.92716 0.0
O214 O 0.8861 0.3116 0.91083 0.0
O215 O 0.84985 0.30923 0.94944 0.0
C216 C 0.88118 0.36895 0.94129 0.0
O217 O 0.89169 0.37088 0.92257 0.0
C218 C 0.85491 0.33616 0.88822 0.0
O219 O 0.84714 0.34259 0.90256 0.0
O220 O 0.89309 0.33268 0.93949 0.0
C221 C 0.52216 0.83405 0.44111 0.0
O222 O 0.5072 0.83468 0.4411 0.0
O223 O 0.53323 0.86418 0.37826 0.0
Zn224 Zn 0.5356 0.86739 0.41483 0.0
O225 O 0.51496 0.86968 0.42801 0.0
C226 C 0.56337 0.89638 0.44335 0.0
O227 O 0.55298 0.88748 0.46203 0.0
O228 O 0.53606 0.84656 0.43072 0.0
C229 C 0.51513 0.88455 0.42779 0.0
O230 O 0.52911 0.89886 0.41855 0.0
C231 C 0.51895 0.85248 0.36764 0.0
O232 O 0.50495 0.84152 0.38102 0.0
O233 O 0.55871 0.89009 0.42174 0.0
C234 C 0.43891 0.29487 0.0669 0.0
O235 O 0.43671 0.29537 0.09076 0.0
O236 O 0.45168 0.33268 0.10496 0.0
Zn237 Zn 0.448 0.33224 0.06839 0.0
O238 O 0.46943 0.35258 0.05173 0.0
C239 C 0.41153 0.32463 0.07238 0.0
O240 O 0.41036 0.31254 0.08825 0.0
O241 O 0.4437 0.30892 0.05407 0.0
C242 C 0.47917 0.3677 0.06207 0.0
O243 O 0.47538 0.37022 0.08465 0.0
C244 C 0.46543 0.33329 0.11468 0.0
O245 O 0.47811 0.33396 0.10041 0.0
O246 O 0.42641 0.33463 0.06162 0.0
C247 C 0.15792 0.46011 0.5618 0.0
O248 O 0.16222 0.47236 0.57898 0.0
O249 O 0.12548 0.45676 0.60738 0.0
Zn250 Zn 0.12278 0.45491 0.57049 0.0
O251 O 0.12531 0.47772 0.55673 0.0
C252 C 0.08893 0.42178 0.57623 0.0
O253 O 0.09569 0.4213 0.59772 0.0
O254 O 0.14158 0.45066 0.55528 0.0
C255 C 0.11323 0.48177 0.56106 0.0
O256 O 0.09938 0.47097 0.57478 0.0
C257 C 0.1339 0.4717 0.61868 0.0
O258 O 0.14147 0.48674 0.60599 0.0
O259 O 0.09825 0.43467 0.56156 0.0
C260 C 0.69015 0.15265 0.06758 0.0
O261 O 0.68275 0.15364 0.08824 0.0
O262 O 0.65811 0.11653 0.10336 0.0
Zn263 Zn 0.65953 0.11685 0.06638 0.0
O264 O 0.63858 0.11792 0.05165 0.0
C265 C 0.66889 0.08902 0.06481 0.0
O266 O 0.68055 0.09896 0.0818 0.0
O267 O 0.68257 0.13819 0.05512 0.0
C268 C 0.62415 0.10358 0.04612 0.0
O269 O 0.62299 0.08796 0.05024 0.0
C270 C 0.64936 0.12246 0.11511 0.0
O271 O 0.64074 0.129 0.10284 0.0
O272 O 0.65882 0.09428 0.05526 0.0
C273 C 0.52733 0.68567 0.55513 0.0
O274 O 0.51321 0.67321 0.56692 0.0
O275 O 0.53611 0.66034 0.60196 0.0
Zn276 Zn 0.53983 0.66145 0.56541 0.0
O277 O 0.51904 0.63975 0.54963 0.0
C278 C 0.57713 0.67127 0.57068 0.0
O279 O 0.57696 0.68154 0.58849 0.0
O280 O 0.54089 0.68366 0.55218 0.0
C281 C 0.52072 0.62709 0.54031 0.0
O282 O 0.53648 0.62807 0.54091 0.0
C283 C 0.53236 0.64604 0.61355 0.0
O284 O 0.53088 0.63219 0.60125 0.0
O285 O 0.56293 0.66188 0.55819 0.0
C286 C 0.83845 0.5336 0.05082 0.0
O287 O 0.83813 0.51818 0.0522 0.0
O288 O 0.8728 0.5435 0.10605 0.0
Zn289 Zn 0.87399 0.54654 0.06924 0.0
O290 O 0.87423 0.52559 0.05332 0.0
C291 C 0.90563 0.58153 0.07527 0.0
O292 O 0.89919 0.58031 0.09758 0.0
O293 O 0.85261 0.54794 0.05717 0.0
C294 C 0.88497 0.52043 0.0606 0.0
O295 O 0.89596 0.52892 0.07895 0.0
C296 C 0.86004 0.52996 0.1167 0.0
O297 O 0.84708 0.51738 0.10339 0.0
O298 O 0.89687 0.56892 0.05996 0.0
C299 C 0.30157 0.84131 0.55671 0.0
O300 O 0.31046 0.83996 0.57548 0.0
O301 O 0.33237 0.87727 0.59395 0.0
Zn302 Zn 0.33068 0.87772 0.55705 0.0
O303 O 0.35173 0.87749 0.54126 0.0
C304 C 0.32013 0.90447 0.55844 0.0
O305 O 0.30871 0.89343 0.57487 0.0
O306 O 0.30774 0.85631 0.54571 0.0
C307 C 0.36643 0.89202 0.53755 0.0
O308 O 0.3678 0.90736 0.54423 0.0
C309 C 0.34206 0.87228 0.60532 0.0
O310 O 0.35168 0.86707 0.59266 0.0
O311 O 0.33068 0.90028 0.54775 0.0
C312 C 0.34335 0.48548 0.14718 0.0
C313 C 0.33368 0.46892 0.13487 0.0
C314 C 0.34402 0.48613 0.1729 0.0
C315 C 0.33801 0.45777 0.2271 0.0
H316 H 0.3335 0.49439 0.2629 0.0
C317 C 0.32695 0.45375 0.33164 0.0
C318 C 0.33695 0.46962 0.34531 0.0
C319 C 0.32676 0.45427 0.30598 0.0
C320 C 0.33497 0.48421 0.25313 0.0
H321 H 0.31689 0.44009 0.1399 0.0
H322 H 0.31789 0.44126 0.18466 0.0
H323 H 0.3328 0.49418 0.21792 0.0
H324 H 0.35438 0.49854 0.34276 0.0
H325 H 0.35409 0.49941 0.29781 0.0
H326 H 0.34007 0.44772 0.26222 0.0
C327 C 0.32521 0.45372 0.17447 0.0
C328 C 0.33458 0.48409 0.22739 0.0
C329 C 0.32455 0.45306 0.1488 0.0
C330 C 0.34654 0.48608 0.33276 0.0
C331 C 0.34632 0.48659 0.30703 0.0
C332 C 0.33836 0.45787 0.25277 0.0
C333 C 0.33503 0.47024 0.18682 0.0
C334 C 0.33596 0.47077 0.21411 0.0
C335 C 0.33655 0.47066 0.29338 0.0
C336 C 0.3367 0.47099 0.26608 0.0
H337 H 0.35056 0.49794 0.13697 0.0
H338 H 0.35185 0.49904 0.18187 0.0
H339 H 0.33947 0.44755 0.2174 0.0
H340 H 0.31934 0.44085 0.34072 0.0
H341 H 0.31887 0.4418 0.29598 0.0
C342 C 0.84198 0.34182 0.66309 0.0
C343 C 0.8507 0.33353 0.65182 0.0
C344 C 0.83977 0.34114 0.68867 0.0
C345 C 0.8404 0.31628 0.74403 0.0
H346 H 0.85204 0.36025 0.77877 0.0
C347 C 0.85892 0.32645 0.84647 0.0
C348 C 0.85206 0.33505 0.86128 0.0
C349 C 0.85643 0.32544 0.82103 0.0
C350 C 0.84847 0.3478 0.76932 0.0
H351 H 0.86375 0.31786 0.65853 0.0
H352 H 0.86008 0.31686 0.70295 0.0
H353 H 0.85171 0.35988 0.73381 0.0
H354 H 0.83715 0.34929 0.86099 0.0
H355 H 0.83287 0.34758 0.81633 0.0
H356 H 0.83763 0.30434 0.7795 0.0
C357 C 0.85472 0.32368 0.69208 0.0
C358 C 0.84826 0.34757 0.74358 0.0
C359 C 0.85694 0.32437 0.6666 0.0
C360 C 0.8426 0.34258 0.85007 0.0
C361 C 0.84021 0.34167 0.82452 0.0
C362 C 0.84066 0.31652 0.76972 0.0
C363 C 0.84617 0.33211 0.70343 0.0
C364 C 0.84459 0.3319 0.73066 0.0
C365 C 0.84709 0.33306 0.80977 0.0
C366 C 0.84505 0.33238 0.78262 0.0
H367 H 0.83697 0.34895 0.65221 0.0
H368 H 0.83299 0.34764 0.69687 0.0
H369 H 0.83714 0.30389 0.73462 0.0
H370 H 0.86628 0.32051 0.8545 0.0
H371 H 0.86212 0.31896 0.8101 0.0
C372 C 0.50235 0.83909 0.32816 0.0
C373 C 0.51801 0.85183 0.34044 0.0
C374 C 0.50143 0.83903 0.30242 0.0
C375 C 0.52206 0.86876 0.24901 0.0
H376 H 0.5027 0.82455 0.21136 0.0
C377 C 0.53294 0.86922 0.14483 0.0
C378 C 0.51843 0.85701 0.1302 0.0
C379 C 0.5319 0.86799 0.17044 0.0
C380 C 0.50793 0.83698 0.22163 0.0
H381 H 0.5451 0.87426 0.3353 0.0
H382 H 0.54351 0.87406 0.29062 0.0
H383 H 0.50257 0.82336 0.25635 0.0
H384 H 0.49149 0.83384 0.13102 0.0
H385 H 0.48963 0.8318 0.1759 0.0
H386 H 0.5275 0.88241 0.21447 0.0
C387 C 0.53185 0.86428 0.30084 0.0
C388 C 0.50786 0.8363 0.24737 0.0
C389 C 0.53279 0.86431 0.32646 0.0
C390 C 0.5029 0.84344 0.14178 0.0
C391 C 0.50187 0.84221 0.16747 0.0
C392 C 0.5221 0.86944 0.22336 0.0
C393 C 0.51613 0.85175 0.28853 0.0
C394 C 0.51517 0.85221 0.2613 0.0
C395 C 0.51633 0.85456 0.18208 0.0
C396 C 0.51528 0.85359 0.20936 0.0
H397 H 0.49073 0.82929 0.3384 0.0
H398 H 0.4891 0.82927 0.29343 0.0
H399 H 0.52744 0.88122 0.25925 0.0
H400 H 0.54515 0.87977 0.13652 0.0
H401 H 0.5434 0.87751 0.18115 0.0
C402 C 0.66288 0.51304 0.83987 0.0
C403 C 0.66369 0.52793 0.85189 0.0
C404 C 0.66322 0.5124 0.81414 0.0
C405 C 0.67684 0.54146 0.75929 0.0
H406 H 0.64244 0.49823 0.72479 0.0
C407 C 0.6639 0.54151 0.65554 0.0
C408 C 0.66117 0.52659 0.64152 0.0
C409 C 0.66484 0.54121 0.68117 0.0
C410 C 0.65231 0.51032 0.73414 0.0
H411 H 0.66556 0.55384 0.84635 0.0
H412 H 0.66615 0.55269 0.8016 0.0
H413 H 0.64313 0.4985 0.76975 0.0
H414 H 0.65735 0.49967 0.64343 0.0
H415 H 0.65923 0.49924 0.68825 0.0
H416 H 0.68605 0.55333 0.72382 0.0
C417 C 0.66538 0.54158 0.81203 0.0
C418 C 0.65269 0.51047 0.75988 0.0
C419 C 0.66493 0.54217 0.83768 0.0
C420 C 0.65941 0.51136 0.65371 0.0
C421 C 0.6604 0.51108 0.67939 0.0
C422 C 0.67653 0.54129 0.7336 0.0
C423 C 0.66452 0.5267 0.79998 0.0
C424 C 0.6648 0.52612 0.77271 0.0
C425 C 0.66315 0.52602 0.69341 0.0
C426 C 0.6641 0.5258 0.72071 0.0
H427 H 0.66192 0.50185 0.8503 0.0
H428 H 0.66266 0.50082 0.80534 0.0
H429 H 0.68654 0.55362 0.76868 0.0
H430 H 0.66523 0.55343 0.64675 0.0
H431 H 0.66665 0.55282 0.69141 0.0
C432 C 0.10127 0.63182 0.34877 0.0
C433 C 0.11039 0.64819 0.36161 0.0
C434 C 0.10325 0.6313 0.3233 0.0
C435 C 0.13247 0.65716 0.27102 0.0
H436 H 0.08948 0.62805 0.23241 0.0
C437 C 0.12916 0.66376 0.16533 0.0
C438 C 0.11882 0.6479 0.15175 0.0
C439 C 0.12937 0.66329 0.19106 0.0
C440 C 0.10167 0.63604 0.24293 0.0
H441 H 0.12893 0.67683 0.35783 0.0
H442 H 0.13218 0.67595 0.31337 0.0
H443 H 0.08742 0.62814 0.27708 0.0
H444 H 0.1012 0.61901 0.15451 0.0
H445 H 0.10171 0.6182 0.1993 0.0
H446 H 0.14666 0.66523 0.23671 0.0
C447 C 0.12369 0.66347 0.32302 0.0
C448 C 0.10048 0.63609 0.26855 0.0
C449 C 0.12173 0.66399 0.34849 0.0
C450 C 0.10919 0.6315 0.16441 0.0
C451 C 0.1094 0.63103 0.19009 0.0
C452 C 0.13366 0.65712 0.24534 0.0
C453 C 0.11437 0.64714 0.31011 0.0
C454 C 0.11585 0.6467 0.2829 0.0
C455 C 0.11924 0.64696 0.20372 0.0
C456 C 0.11825 0.6466 0.23102 0.0
H457 H 0.09253 0.61938 0.35835 0.0
H458 H 0.09609 0.61846 0.31395 0.0
H459 H 0.1446 0.66529 0.28157 0.0
H460 H 0.13674 0.67661 0.15613 0.0
H461 H 0.13697 0.67581 0.20103 0.0
C462 C 0.48813 0.14529 0.84085 0.0
C463 C 0.47209 0.14054 0.85354 0.0
C464 C 0.48848 0.14543 0.8151 0.0
C465 C 0.45814 0.12462 0.76257 0.0
H466 H 0.49755 0.16083 0.72377 0.0
C467 C 0.45459 0.12559 0.65704 0.0
C468 C 0.47012 0.12923 0.64382 0.0
C469 C 0.45529 0.12797 0.68251 0.0
C470 C 0.48654 0.15052 0.73439 0.0
H471 H 0.44408 0.13312 0.84916 0.0
H472 H 0.44477 0.13352 0.80438 0.0
H473 H 0.49811 0.16372 0.7686 0.0
H474 H 0.4986 0.13835 0.64696 0.0
H475 H 0.49973 0.14222 0.69156 0.0
H476 H 0.44663 0.11127 0.72858 0.0
C477 C 0.45698 0.13679 0.8143 0.0
C478 C 0.48685 0.1522 0.76003 0.0
C479 C 0.45662 0.13665 0.83997 0.0
C480 C 0.4864 0.13544 0.65661 0.0
C481 C 0.48708 0.13777 0.68215 0.0
C482 C 0.45785 0.12292 0.73701 0.0
C483 C 0.4728 0.14081 0.80158 0.0
C484 C 0.47261 0.13929 0.77436 0.0
C485 C 0.4715 0.13397 0.69539 0.0
C486 C 0.472 0.13587 0.7226 0.0
H487 H 0.50028 0.14837 0.85077 0.0
H488 H 0.50085 0.1485 0.8058 0.0
H489 H 0.44714 0.11424 0.77314 0.0
H490 H 0.44186 0.12092 0.64772 0.0
H491 H 0.44311 0.12521 0.6921 0.0
C492 C 0.5258 0.62931 0.65345 0.0
C493 C 0.53014 0.64517 0.6406 0.0
C494 C 0.52422 0.62865 0.67908 0.0
C495 C 0.51787 0.65169 0.73245 0.0
H496 H 0.53994 0.62895 0.76889 0.0
C497 C 0.53092 0.66091 0.83724 0.0
C498 C 0.5282 0.64588 0.85094 0.0
C499 C 0.52974 0.66008 0.81156 0.0
C500 C 0.53348 0.63513 0.75899 0.0
H501 H 0.53598 0.67272 0.64457 0.0
H502 H 0.53344 0.67163 0.68929 0.0
H503 H 0.54041 0.62879 0.72407 0.0
H504 H 0.52166 0.61803 0.84848 0.0
H505 H 0.51946 0.61655 0.80373 0.0
H506 H 0.51113 0.65819 0.76746 0.0
C507 C 0.53104 0.65963 0.67953 0.0
C508 C 0.53375 0.63504 0.7333 0.0
C509 C 0.53261 0.66028 0.65391 0.0
C510 C 0.52394 0.62989 0.83847 0.0
C511 C 0.52276 0.62906 0.81281 0.0
C512 C 0.51761 0.65179 0.75818 0.0
C513 C 0.52695 0.64384 0.69242 0.0
C514 C 0.52604 0.6434 0.71973 0.0
C515 C 0.52582 0.64419 0.79905 0.0
C516 C 0.52549 0.64358 0.77173 0.0
H517 H 0.52372 0.61739 0.64374 0.0
H518 H 0.52081 0.61621 0.68844 0.0
H519 H 0.51159 0.65803 0.72252 0.0
H520 H 0.53424 0.67344 0.84629 0.0
H521 H 0.53236 0.67203 0.80148 0.0
C522 C 0.8733 0.53983 0.34082 0.0
C523 C 0.85764 0.52865 0.35429 0.0
C524 C 0.8733 0.53889 0.31516 0.0
C525 C 0.84269 0.52355 0.26145 0.0
H526 H 0.88491 0.5294 0.22717 0.0
C527 C 0.84449 0.515 0.15603 0.0
C528 C 0.85968 0.52858 0.14385 0.0
C529 C 0.84402 0.51402 0.18173 0.0
C530 C 0.87307 0.52784 0.23651 0.0
H531 H 0.82974 0.50752 0.35142 0.0
H532 H 0.82983 0.50561 0.30664 0.0
H533 H 0.8844 0.52929 0.27206 0.0
H534 H 0.88638 0.55161 0.14908 0.0
H535 H 0.88555 0.54982 0.1939 0.0
H536 H 0.83136 0.52201 0.22579 0.0
C537 C 0.84203 0.51537 0.31588 0.0
C538 C 0.87278 0.52783 0.26222 0.0
C539 C 0.842 0.5164 0.34156 0.0
C540 C 0.87447 0.541 0.1579 0.0
C541 C 0.87405 0.53992 0.18356 0.0
C542 C 0.84293 0.52343 0.23573 0.0
C543 C 0.85767 0.52665 0.30236 0.0
C544 C 0.85766 0.52587 0.27501 0.0
C545 C 0.85878 0.52649 0.19574 0.0
C546 C 0.85819 0.52575 0.22301 0.0
H547 H 0.88555 0.54949 0.35007 0.0
H548 H 0.88549 0.548 0.30534 0.0
H549 H 0.83092 0.52227 0.27067 0.0
H550 H 0.83288 0.50522 0.14573 0.0
H551 H 0.83214 0.50343 0.19064 0.0
C552 C 0.33178 0.87762 0.64591 0.0
C553 C 0.34205 0.87193 0.63254 0.0
C554 C 0.33152 0.87711 0.6716 0.0
C555 C 0.3396 0.8553 0.72445 0.0
H556 H 0.34118 0.89483 0.76109 0.0
C557 C 0.34519 0.86033 0.83072 0.0
C558 C 0.33462 0.86622 0.84288 0.0
C559 C 0.34648 0.86096 0.80504 0.0
C560 C 0.34054 0.88359 0.75112 0.0
H561 H 0.36018 0.86131 0.63568 0.0
H562 H 0.3598 0.86054 0.68063 0.0
H563 H 0.34303 0.89627 0.71631 0.0
H564 H 0.31692 0.87717 0.83759 0.0
H565 H 0.31903 0.87808 0.79285 0.0
H566 H 0.33701 0.84258 0.75932 0.0
C567 C 0.35182 0.86522 0.67118 0.0
C568 C 0.34162 0.88443 0.72547 0.0
C569 C 0.3521 0.86576 0.64544 0.0
C570 C 0.32524 0.87259 0.82881 0.0
C571 C 0.32654 0.87323 0.80317 0.0
C572 C 0.33852 0.85445 0.75015 0.0
C573 C 0.34152 0.8709 0.68453 0.0
C574 C 0.34103 0.87024 0.71184 0.0
C575 C 0.33725 0.86752 0.79099 0.0
C576 C 0.33884 0.86854 0.76375 0.0
H577 H 0.32383 0.8824 0.63656 0.0
H578 H 0.32325 0.88133 0.68133 0.0
H579 H 0.3389 0.84405 0.71445 0.0
H580 H 0.35261 0.85537 0.84102 0.0
H581 H 0.35498 0.85663 0.79622 0.0
C582 C 0.48481 0.33135 0.33921 0.0
C583 C 0.46961 0.32918 0.35197 0.0
C584 C 0.48499 0.33112 0.31346 0.0
C585 C 0.45464 0.31633 0.25951 0.0
H586 H 0.49688 0.35161 0.22408 0.0
C587 C 0.45243 0.33052 0.1567 0.0
C588 C 0.46674 0.33267 0.14177 0.0
C589 C 0.45337 0.32954 0.18225 0.0
C590 C 0.48507 0.34153 0.23372 0.0
H591 H 0.44269 0.32511 0.34771 0.0
H592 H 0.44309 0.3249 0.30294 0.0
H593 H 0.49742 0.35079 0.26901 0.0
H594 H 0.49335 0.33563 0.142 0.0
H595 H 0.49498 0.33392 0.18679 0.0
H596 H 0.44221 0.30724 0.22429 0.0
C597 C 0.45478 0.32651 0.31278 0.0
C598 C 0.48538 0.34105 0.25944 0.0
C599 C 0.4546 0.32675 0.33846 0.0
C600 C 0.4821 0.33398 0.15299 0.0
C601 C 0.48307 0.33307 0.17863 0.0
C602 C 0.45433 0.31684 0.23385 0.0
C603 C 0.46996 0.32868 0.29997 0.0
C604 C 0.47008 0.32858 0.27263 0.0
C605 C 0.46866 0.33074 0.1935 0.0
C606 C 0.46945 0.32959 0.22068 0.0
H607 H 0.49658 0.33322 0.34908 0.0
H608 H 0.49682 0.33265 0.30413 0.0
H609 H 0.44276 0.30632 0.2691 0.0
H610 H 0.44041 0.3295 0.14867 0.0
H611 H 0.44216 0.32802 0.19323 0.0
C612 C 0.14505 0.48843 0.65851 0.0
C613 C 0.13496 0.47209 0.64586 0.0
C614 C 0.14578 0.48877 0.68423 0.0
C615 C 0.13759 0.45947 0.73847 0.0
H616 H 0.13349 0.49662 0.77348 0.0
C617 C 0.11962 0.45394 0.8413 0.0
C618 C 0.12911 0.46938 0.85597 0.0
C619 C 0.12177 0.45495 0.81578 0.0
C620 C 0.13488 0.4863 0.76396 0.0
H621 H 0.11775 0.44326 0.65029 0.0
H622 H 0.11878 0.44388 0.69505 0.0
H623 H 0.13463 0.49712 0.72858 0.0
H624 H 0.14831 0.49801 0.85534 0.0
H625 H 0.152 0.49976 0.81062 0.0
H626 H 0.13746 0.44845 0.77385 0.0
C627 C 0.1264 0.45642 0.68514 0.0
C628 C 0.13556 0.48659 0.73824 0.0
C629 C 0.12571 0.45608 0.65946 0.0
C630 C 0.1408 0.48587 0.84455 0.0
C631 C 0.14286 0.4869 0.81895 0.0
C632 C 0.13683 0.45914 0.76415 0.0
C633 C 0.13641 0.47276 0.69784 0.0
C634 C 0.13672 0.47306 0.72519 0.0
C635 C 0.13338 0.47143 0.80432 0.0
C636 C 0.13527 0.47243 0.77715 0.0
H637 H 0.15239 0.501 0.64856 0.0
H638 H 0.15378 0.50155 0.69344 0.0
H639 H 0.13885 0.44905 0.72901 0.0
H640 H 0.1105 0.44102 0.8495 0.0
H641 H 0.1141 0.44285 0.80496 0.0
C642 C 0.64653 0.13331 0.34052 0.0
C643 C 0.65524 0.12541 0.35282 0.0
C644 C 0.64596 0.13341 0.31481 0.0
C645 C 0.66862 0.12938 0.25954 0.0
H646 H 0.62385 0.1174 0.22678 0.0
C647 C 0.65872 0.11555 0.15538 0.0
C648 C 0.64957 0.12266 0.14234 0.0
C649 C 0.65933 0.11612 0.18106 0.0
C650 C 0.63651 0.12098 0.23565 0.0
H651 H 0.67027 0.1115 0.34777 0.0
H652 H 0.6692 0.11163 0.30294 0.0
H653 H 0.62529 0.11824 0.27166 0.0
H654 H 0.63378 0.13587 0.14605 0.0
H655 H 0.635 0.13702 0.19093 0.0
H656 H 0.67986 0.13214 0.22358 0.0
C657 C 0.66295 0.11789 0.31317 0.0
C658 C 0.63733 0.12147 0.26135 0.0
C659 C 0.66348 0.11773 0.33887 0.0
C660 C 0.64091 0.13023 0.15555 0.0
C661 C 0.64153 0.13082 0.18127 0.0
C662 C 0.66781 0.12894 0.23386 0.0
C663 C 0.65414 0.12568 0.30087 0.0
C664 C 0.65337 0.12558 0.27357 0.0
C665 C 0.65082 0.12383 0.19431 0.0
C666 C 0.65173 0.12464 0.22161 0.0
H667 H 0.64008 0.13936 0.35072 0.0
H668 H 0.63924 0.1397 0.30584 0.0
H669 H 0.68125 0.13289 0.26843 0.0
H670 H 0.66547 0.10955 0.14576 0.0
H671 H 0.66635 0.11036 0.19056 0.0
C672 C 0.1604 0.44714 0.96528 0.0
C673 C 0.16017 0.46336 0.96424 0.0
C674 C 0.17519 0.44671 0.97517 0.0
C675 C 0.21449 0.47172 0.01566 0.0
H676 H 0.23325 0.44521 0.98076 0.0
C677 C 0.28328 0.47885 0.03858 0.0
C678 C 0.28443 0.4631 0.03853 0.0
C679 C 0.26776 0.47852 0.03016 0.0
C680 C 0.22803 0.45248 0.99089 0.0
H681 H 0.17517 0.49183 0.97298 0.0
H682 H 0.20101 0.49109 0.99008 0.0
H683 H 0.20664 0.44519 0.96511 0.0
H684 H 0.27015 0.43461 0.02978 0.0
H685 H 0.24302 0.43403 0.01529 0.0
H686 H 0.23592 0.47906 0.04139 0.0
C687 C 0.18969 0.47867 0.98346 0.0
C688 C 0.2128 0.45247 0.98193 0.0
C689 C 0.17493 0.47911 0.97353 0.0
C690 C 0.26972 0.447 0.02996 0.0
C691 C 0.2542 0.44668 0.02154 0.0
C692 C 0.22971 0.47171 0.02464 0.0
C693 C 0.19002 0.46249 0.98426 0.0
C694 C 0.20592 0.46215 0.99416 0.0
C695 C 0.25307 0.46244 0.02152 0.0
C696 C 0.23669 0.46215 0.01229 0.0
H697 H 0.14921 0.43475 0.95835 0.0
H698 H 0.17497 0.434 0.97582 0.0
H699 H 0.20933 0.47908 0.02567 0.0
H700 H 0.29439 0.49147 0.04502 0.0
H701 H 0.26739 0.49094 0.03007 0.0
C702 C 0.71505 0.16216 0.46857 0.0
C703 C 0.70905 0.16542 0.44611 0.0
C704 C 0.72933 0.17616 0.48124 0.0
C705 C 0.76802 0.22194 0.47393 0.0
H706 H 0.76204 0.22546 0.54415 0.0
C707 C 0.80098 0.27773 0.5561 0.0
C708 C 0.81937 0.28409 0.55225 0.0
C709 C 0.78801 0.26265 0.54342 0.0
C710 C 0.76387 0.22467 0.52454 0.0
H711 H 0.71363 0.18586 0.41905 0.0
H712 H 0.73854 0.21034 0.44127 0.0
H713 H 0.73863 0.20032 0.52092 0.0
H714 H 0.8386 0.27952 0.53222 0.0
H715 H 0.8159 0.25314 0.51009 0.0
H716 H 0.79311 0.24652 0.4775 0.0
C717 C 0.73226 0.19691 0.44896 0.0
C718 C 0.75057 0.21019 0.51129 0.0
C719 C 0.71792 0.18291 0.43631 0.0
C720 C 0.82453 0.27496 0.53558 0.0
C721 C 0.81155 0.25993 0.5228 0.0
C722 C 0.78138 0.23639 0.48721 0.0
C723 C 0.73796 0.19371 0.4717 0.0
C724 C 0.75245 0.20874 0.48583 0.0
C725 C 0.79316 0.25366 0.52654 0.0
C726 C 0.77936 0.23797 0.51262 0.0
H727 H 0.70856 0.14882 0.47657 0.0
H728 H 0.7336 0.17325 0.49855 0.0
H729 H 0.7699 0.22108 0.45435 0.0
H730 H 0.79657 0.28447 0.5688 0.0
H731 H 0.77394 0.25824 0.54647 0.0
C732 C 0.54277 0.8294 0.01389 0.0
C733 C 0.54595 0.83216 0.03933 0.0
C734 C 0.5438 0.81552 0.00205 0.0
C735 C 0.53964 0.77172 0.0138 0.0
H736 H 0.56294 0.77906 0.95026 0.0
C737 C 0.54691 0.71581 0.96643 0.0
C738 C 0.54367 0.71361 0.94095 0.0
C739 C 0.54841 0.73083 0.97852 0.0
C740 C 0.55623 0.77675 0.96788 0.0
H741 H 0.55291 0.82269 0.07227 0.0
H742 H 0.55464 0.79837 0.05153 0.0
H743 H 0.56343 0.8044 0.97135 0.0
H744 H 0.53966 0.72555 0.90812 0.0
H745 H 0.54193 0.75163 0.92933 0.0
H746 H 0.5321 0.74405 0.0102 0.0
C747 C 0.55127 0.80692 0.04082 0.0
C748 C 0.55655 0.79127 0.97996 0.0
C749 C 0.55036 0.82088 0.05265 0.0
C750 C 0.54219 0.72687 0.92776 0.0
C751 C 0.5436 0.74187 0.93989 0.0
C752 C 0.53923 0.75719 0.00167 0.0
C753 C 0.54792 0.80406 0.01542 0.0
C754 C 0.5482 0.78886 0.00299 0.0
C755 C 0.54661 0.74395 0.96544 0.0
C756 C 0.54746 0.75953 0.97853 0.0
H757 H 0.53938 0.83788 0.00309 0.0
H758 H 0.54097 0.81351 0.9825 0.0
H759 H 0.53286 0.76942 0.03136 0.0
H760 H 0.54827 0.70591 0.9771 0.0
H761 H 0.55104 0.73218 -0.00186 0.0
C762 C 0.71439 0.5456 0.52964 0.0
C763 C 0.69872 0.52925 0.53497 0.0
C764 C 0.72947 0.54571 0.51978 0.0
C765 C 0.74349 0.51698 0.48707 0.0
H766 H 0.79085 0.5516 0.51157 0.0
C767 C 0.80669 0.51216 0.46572 0.0
C768 C 0.82242 0.52822 0.45954 0.0
C769 C 0.79158 0.51251 0.47441 0.0
C770 C 0.77773 0.54198 0.50437 0.0
H771 H 0.68657 0.5002 0.53414 0.0
H772 H 0.71295 0.50042 0.51732 0.0
H773 H 0.76444 0.5518 0.52763 0.0
H774 H 0.83463 0.55725 0.45764 0.0
H775 H 0.80819 0.55783 0.47281 0.0
H776 H 0.75681 0.50704 0.46401 0.0
C777 C 0.7135 0.51314 0.52037 0.0
C778 C 0.7626 0.5421 0.51353 0.0
C779 C 0.69842 0.51303 0.53016 0.0
C780 C 0.82273 0.54464 0.46228 0.0
C781 C 0.80763 0.54499 0.47108 0.0
C782 C 0.75861 0.51681 0.47798 0.0
C783 C 0.72921 0.52948 0.51511 0.0
C784 C 0.74531 0.52957 0.50503 0.0
C785 C 0.79189 0.52893 0.4772 0.0
C786 C 0.77588 0.52928 0.48658 0.0
H787 H 0.71503 0.55833 0.53304 0.0
H788 H 0.74127 0.55852 0.51561 0.0
H789 H 0.73039 0.50734 0.47985 0.0
H790 H 0.80603 0.49929 0.46385 0.0
H791 H 0.7797 0.49993 0.47926 0.0
C792 C 0.26996 0.82512 0.95501 0.0
C793 C 0.2765 0.82266 0.93247 0.0
C794 C 0.25509 0.81077 0.96627 0.0
C795 C 0.21579 0.76615 0.95427 0.0
H796 H 0.21898 0.75856 0.02406 0.0
C797 C 0.16575 0.7003 0.00304 0.0
C798 C 0.16008 0.70148 0.02689 0.0
C799 C 0.17945 0.71551 0.99147 0.0
C800 C 0.21775 0.76063 0.00465 0.0
H801 H 0.27234 0.80334 0.90383 0.0
H802 H 0.24637 0.77828 0.92356 0.0
H803 H 0.24363 0.78447 0.00372 0.0
H804 H 0.16423 0.7196 0.05724 0.0
H805 H 0.18801 0.74622 0.03689 0.0
H806 H 0.18993 0.74231 0.95517 0.0
C807 C 0.25271 0.79133 0.93242 0.0
C808 C 0.23188 0.77546 0.993 0.0
C809 C 0.26764 0.80566 0.9212 0.0
C810 C 0.16835 0.71822 0.0389 0.0
C811 C 0.18203 0.73346 0.02729 0.0
C812 C 0.20162 0.75135 0.96594 0.0
C813 C 0.24639 0.79371 0.95519 0.0
C814 C 0.23109 0.77831 0.96766 0.0
C815 C 0.18775 0.73227 0.00345 0.0
C816 C 0.2025 0.74835 0.99123 0.0
H817 H 0.27645 0.83807 0.96415 0.0
H818 H 0.25038 0.81305 0.98367 0.0
H819 H 0.21471 0.76815 0.93479 0.0
H820 H 0.1597 0.68759 0.9933 0.0
H821 H 0.18373 0.71407 0.97327 0.0
C822 C 0.45059 0.16692 0.53275 0.0
C823 C 0.46643 0.16815 0.54205 0.0
C824 C 0.45085 0.18198 0.52259 0.0
C825 C 0.47723 0.2315 0.52196 0.0
H826 H 0.45032 0.22646 0.46225 0.0
C827 C 0.48444 0.2925 0.46782 0.0
C828 C 0.46851 0.29138 0.45912 0.0
C829 C 0.48419 0.27744 0.47796 0.0
C830 C 0.45775 0.22804 0.47907 0.0
H831 H 0.495 0.18609 0.54789 0.0
H832 H 0.49549 0.21231 0.5299 0.0
H833 H 0.44991 0.20016 0.4799 0.0
H834 H 0.4398 0.27359 0.45422 0.0
H835 H 0.43938 0.24734 0.47203 0.0
H836 H 0.48511 0.25939 0.52107 0.0
C837 C 0.48282 0.19977 0.53077 0.0
C838 C 0.45751 0.21298 0.48918 0.0
C839 C 0.48255 0.18472 0.54095 0.0
C840 C 0.45232 0.27488 0.46072 0.0
C841 C 0.45208 0.25982 0.47079 0.0
C842 C 0.47749 0.24656 0.51182 0.0
C843 C 0.46697 0.19856 0.5215 0.0
C844 C 0.46724 0.21455 0.51074 0.0
C845 C 0.46801 0.26095 0.47954 0.0
C846 C 0.46775 0.24497 0.49028 0.0
H847 H 0.43793 0.15435 0.53341 0.0
H848 H 0.43838 0.18068 0.51588 0.0
H849 H 0.48464 0.23308 0.5388 0.0
H850 H 0.49714 0.305 0.46683 0.0
H851 H 0.49671 0.27866 0.4843 0.0
C852 C 0.82327 0.55075 0.03797 0.0
C853 C 0.82252 0.53421 0.04188 0.0
C854 C 0.80823 0.55122 0.02914 0.0
C855 C 0.759 0.52378 0.02375 0.0
H856 H 0.7649 0.55596 0.96995 0.0
C857 C 0.69888 0.51671 0.96801 0.0
C858 C 0.69905 0.53251 0.96085 0.0
C859 C 0.71401 0.51757 0.97888 0.0
C860 C 0.76305 0.54709 0.98521 0.0
H861 H 0.80539 0.50522 0.03983 0.0
H862 H 0.7792 0.50607 0.02443 0.0
H863 H 0.79126 0.55643 0.98753 0.0
H864 H 0.71519 0.56162 0.95963 0.0
H865 H 0.74154 0.56313 0.97892 0.0
H866 H 0.73082 0.5144 0.02146 0.0
C867 C 0.79136 0.51865 0.02834 0.0
C868 C 0.77815 0.54735 0.99525 0.0
C869 C 0.80641 0.51818 0.03701 0.0
C870 C 0.71466 0.5492 0.96486 0.0
C871 C 0.72979 0.55006 0.9758 0.0
C872 C 0.74392 0.52356 0.01379 0.0
C873 C 0.79214 0.53517 0.02423 0.0
C874 C 0.77625 0.53556 0.01444 0.0
C875 C 0.72964 0.53425 0.98291 0.0
C876 C 0.74575 0.53508 0.99423 0.0
H877 H 0.83549 0.56334 0.04158 0.0
H878 H 0.80915 0.56413 0.02633 0.0
H879 H 0.75718 0.51475 0.0388 0.0
H880 H 0.68709 0.50364 0.96509 0.0
H881 H 0.71355 0.50513 0.98378 0.0
C882 C 0.16272 0.71908 0.46852 0.0
C883 C 0.15457 0.70315 0.48241 0.0
C884 C 0.17823 0.73422 0.47708 0.0
C885 C 0.20537 0.75456 0.53322 0.0
H886 H 0.24319 0.7824 0.48608 0.0
C887 C 0.27689 0.80942 0.56189 0.0
C888 C 0.28456 0.82559 0.5485 0.0
C889 C 0.26079 0.79457 0.55415 0.0
C890 C 0.23268 0.77486 0.49941 0.0
H891 H 0.15616 0.69064 0.51628 0.0
H892 H 0.18343 0.71698 0.53101 0.0
H893 H 0.21542 0.75631 0.47212 0.0
H894 H 0.28134 0.83886 0.51652 0.0
H895 H 0.25324 0.8129 0.50302 0.0
H896 H 0.22283 0.77305 0.56055 0.0
C897 C 0.17768 0.71787 0.51369 0.0
C898 C 0.21675 0.75993 0.49142 0.0
C899 C 0.16209 0.70274 0.50519 0.0
C900 C 0.2758 0.82659 0.52722 0.0
C901 C 0.25976 0.81171 0.51941 0.0
C902 C 0.22136 0.76944 0.54123 0.0
C903 C 0.18599 0.73374 0.49964 0.0
C904 C 0.20289 0.74964 0.50822 0.0
C905 C 0.25209 0.79556 0.5328 0.0
C906 C 0.23515 0.77975 0.52438 0.0
H907 H 0.15717 0.71987 0.45096 0.0
H908 H 0.18411 0.74634 0.46602 0.0
H909 H 0.19487 0.74707 0.54657 0.0
H910 H 0.28331 0.80822 0.57837 0.0
H911 H 0.25527 0.78223 0.56468 0.0
C912 C 0.43437 0.17668 0.93915 0.0
C913 C 0.43813 0.16433 0.95076 0.0
C914 C 0.43229 0.18919 0.95305 0.0
C915 C 0.44401 0.21166 0.01372 0.0
H916 H 0.41061 0.22733 0.9941 0.0
C917 C 0.43493 0.26397 0.06915 0.0
C918 C 0.43622 0.27825 0.05498 0.0
C919 C 0.43322 0.24862 0.05768 0.0
C920 C 0.42 0.22307 -0.00025 0.0
H921 H 0.44204 0.15496 0.98607 0.0
H922 H 0.43797 0.17649 0.01034 0.0
H923 H 0.41099 0.20284 0.9718 0.0
H924 H 0.43619 0.28746 0.01778 0.0
H925 H 0.43308 0.26063 -0.00216 0.0
H926 H 0.45299 0.23193 0.04166 0.0
C927 C 0.43709 0.17684 0.99047 0.0
C928 C 0.42028 0.20911 0.98694 0.0
C929 C 0.43934 0.16445 0.97656 0.0
C930 C 0.4353 0.27671 0.02919 0.0
C931 C 0.43339 0.2613 0.01777 0.0
C932 C 0.4436 0.22549 0.02665 0.0
C933 C 0.43375 0.18951 0.97887 0.0
C934 C 0.43249 0.20344 0.99353 0.0
C935 C 0.43253 0.24721 0.03188 0.0
C936 C 0.43179 0.2315 0.01955 0.0
H937 H 0.43342 0.17694 0.91928 0.0
H938 H 0.43 0.19892 0.94347 0.0
H939 H 0.45378 0.20784 0.01907 0.0
H940 H 0.43558 0.26477 0.08906 0.0
H941 H 0.43248 0.23787 0.06896 0.0
C942 C 0.19007 0.46828 0.55665 0.0
C943 C 0.17201 0.458 0.54927 0.0
C944 C 0.20351 0.46692 0.54408 0.0
C945 C 0.21342 0.45461 0.48388 0.0
H946 H 0.25256 0.45412 0.5188 0.0
C947 C 0.27831 0.44495 0.46292 0.0
C948 C 0.28615 0.45698 0.44317 0.0
C949 C 0.26375 0.44401 0.47568 0.0
C950 C 0.24164 0.45409 0.5088 0.0
H951 H 0.15385 0.43794 0.52321 0.0
H952 H 0.17735 0.43555 0.50131 0.0
H953 H 0.22814 0.45395 0.54201 0.0
H954 H 0.28471 0.47726 0.42107 0.0
H955 H 0.25931 0.47563 0.44343 0.0
H956 H 0.2269 0.45472 0.45067 0.0
C957 C 0.1811 0.44479 0.51668 0.0
C958 C 0.22776 0.45417 0.52208 0.0
C959 C 0.16764 0.44609 0.52931 0.0
C960 C 0.27897 0.46785 0.43621 0.0
C961 C 0.26436 0.46685 0.44891 0.0
C962 C 0.22734 0.45461 0.4706 0.0
C963 C 0.19918 0.45529 0.52381 0.0
C964 C 0.21356 0.45452 0.50976 0.0
C965 C 0.25669 0.45501 0.46889 0.0
C966 C 0.24163 0.45444 0.48292 0.0
H967 H 0.19388 0.47757 0.57196 0.0
H968 H 0.21736 0.47531 0.54984 0.0
H969 H 0.20273 0.45505 0.47389 0.0
H970 H 0.2835 0.43635 0.46871 0.0
H971 H 0.25797 0.43461 0.49082 0.0
C972 C 0.82503 0.29256 0.00695 0.0
C973 C 0.831 0.29244 0.98291 0.0
C974 C 0.81035 0.27716 0.01672 0.0
C975 C 0.77046 0.23481 -0.00264 0.0
H976 H 0.76955 0.22106 0.06559 0.0
C977 C 0.71428 0.16762 0.03581 0.0
C978 C 0.70694 0.1683 0.05864 0.0
C979 C 0.72988 0.18256 0.02705 0.0
C980 C 0.76958 0.22483 0.04655 0.0
H981 H 0.82662 0.27594 0.9505 0.0
H982 H 0.80127 0.24903 0.9677 0.0
H983 H 0.79615 0.24755 0.04942 0.0
H984 H 0.71036 0.1851 0.09036 0.0
H985 H 0.7376 0.21123 0.07497 0.0
H986 H 0.74393 0.21209 0.99446 0.0
C987 C 0.80765 0.26112 0.97882 0.0
C988 C 0.78478 0.24 0.0373 0.0
C989 C 0.82225 0.27652 0.96902 0.0
C990 C 0.71567 0.18415 0.07269 0.0
C991 C 0.73133 0.19908 0.06396 0.0
C992 C 0.75531 0.21963 0.00657 0.0
C993 C 0.80141 0.26131 0.00268 0.0
C994 C 0.78538 0.24514 0.01259 0.0
C995 C 0.7385 0.19847 0.04097 0.0
C996 C 0.75471 0.21449 0.03125 0.0
H997 H 0.83147 0.30464 0.01809 0.0
H998 H 0.80575 0.2778 0.03507 0.0
H999 H 0.77035 0.2386 0.97837 0.0
H1000 H 0.70792 0.15558 0.02458 0.0
H1001 H 0.73524 0.18163 0.0094 0.0
C1002 C 0.50786 0.80573 0.466 0.0
C1003 C 0.52291 0.81908 0.45335 0.0
C1004 C 0.50861 0.79165 0.4777 0.0
C1005 C 0.53324 0.76688 0.4771 0.0
H1006 H 0.51271 0.75131 0.54222 0.0
C1007 C 0.54247 0.71494 0.53243 0.0
C1008 C 0.52728 0.70155 0.54482 0.0
C1009 C 0.54224 0.72967 0.52202 0.0
C1010 C 0.51834 0.75539 0.52394 0.0
H1011 H 0.55059 0.82816 0.44311 0.0
H1012 H 0.55189 0.80361 0.46359 0.0
H1013 H 0.51164 0.77625 0.5224 0.0
H1014 H 0.50001 0.69325 0.55626 0.0
H1015 H 0.49955 0.71888 0.53783 0.0
H1016 H 0.53983 0.74597 0.4785 0.0
C1017 C 0.53946 0.80395 0.46427 0.0
C1018 C 0.51773 0.76966 0.5126 0.0
C1019 C 0.53873 0.81806 0.45264 0.0
C1020 C 0.51194 0.70334 0.54686 0.0
C1021 C 0.51171 0.71808 0.53642 0.0
C1022 C 0.53382 0.7526 0.48841 0.0
C1023 C 0.52441 0.79059 0.47691 0.0
C1024 C 0.52516 0.77554 0.48906 0.0
C1025 C 0.52682 0.73134 0.52374 0.0
C1026 C 0.52637 0.74668 0.51194 0.0
H1027 H 0.49546 0.80613 0.46689 0.0
H1028 H 0.49673 0.78143 0.48706 0.0
H1029 H 0.53883 0.77093 0.45879 0.0
H1030 H 0.55454 0.71401 0.53065 0.0
H1031 H 0.55419 0.73981 0.5127 0.0
C1032 C 0.32955 0.39848 0.04144 0.0
C1033 C 0.31745 0.39777 0.05943 0.0
C1034 C 0.33412 0.38505 0.04015 0.0
C1035 C 0.33848 0.35386 0.08093 0.0
H1036 H 0.35277 0.34022 0.02063 0.0
C1037 C 0.38056 0.31866 0.08273 0.0
C1038 C 0.39605 0.3273 0.06796 0.0
C1039 C 0.36661 0.32243 0.07974 0.0
C1040 C 0.34876 0.34383 0.03762 0.0
H1041 H 0.29973 0.38177 0.0891 0.0
H1042 H 0.30773 0.35823 0.08677 0.0
H1043 H 0.33516 0.35536 0.01849 0.0
H1044 H 0.40868 0.34597 0.0377 0.0
H1045 H 0.38449 0.3526 0.03263 0.0
H1046 H 0.35273 0.34306 0.10004 0.0
C1047 C 0.31382 0.36933 0.07388 0.0
C1048 C 0.33869 0.35249 0.0364 0.0
C1049 C 0.3092 0.38278 0.07515 0.0
C1050 C 0.39697 0.33916 0.04947 0.0
C1051 C 0.38301 0.34283 0.04639 0.0
C1052 C 0.34852 0.34517 0.08215 0.0
C1053 C 0.32671 0.37059 0.05681 0.0
C1054 C 0.33403 0.3582 0.05802 0.0
C1055 C 0.36783 0.33477 0.06179 0.0
C1056 C 0.35432 0.34067 0.06049 0.0
H1057 H 0.33607 0.40979 0.02895 0.0
H1058 H 0.34425 0.38656 0.02695 0.0
H1059 H 0.33528 0.35823 0.09794 0.0
H1060 H 0.37942 0.30938 0.09706 0.0
H1061 H 0.35501 0.31593 0.09175 0.0
C1062 C 0.05842 0.39678 0.5881 0.0
C1063 C 0.0701 0.40849 0.57003 0.0
C1064 C 0.04015 0.3856 0.58296 0.0
C1065 C 0.0053 0.38366 0.54174 0.0
H1066 H 0.97579 0.33693 0.57188 0.0
C1067 C 0.92842 0.34521 0.53072 0.0
C1068 C 0.91892 0.3391 0.55298 0.0
C1069 C 0.94675 0.35081 0.52971 0.0
C1070 C 0.98388 0.34996 0.56333 0.0
H1071 H 0.07205 0.41688 0.53194 0.0
H1072 H 0.04028 0.39713 0.52283 0.0
H1073 H 0.00851 0.3519 0.57549 0.0
H1074 H 0.92096 0.33323 0.59133 0.0
H1075 H 0.9529 0.3431 0.58957 0.0
H1076 H 0.98073 0.38194 0.53007 0.0
C1077 C 0.04512 0.39689 0.54116 0.0
C1078 C 0.0026 0.35855 0.56543 0.0
C1079 C 0.06334 0.40816 0.54636 0.0
C1080 C 0.92791 0.33795 0.57392 0.0
C1081 C 0.94619 0.34347 0.57287 0.0
C1082 C 0.98663 0.37505 0.53955 0.0
C1083 C 0.03322 0.38582 0.55958 0.0
C1084 C 0.01351 0.37567 0.55508 0.0
C1085 C 0.95589 0.35032 0.5509 0.0
C1086 C 0.9757 0.35828 0.55074 0.0
H1087 H 0.06321 0.39672 0.60653 0.0
H1088 H 0.03136 0.3774 0.59767 0.0
H1089 H 0.01324 0.39697 0.53389 0.0
H1090 H 0.92186 0.34616 0.51424 0.0
H1091 H 0.95384 0.35584 0.51245 0.0
C1092 C 0.60359 0.92789 0.06825 0.0
C1093 C 0.58769 0.92157 0.05449 0.0
C1094 C 0.61743 0.94575 0.06606 0.0
C1095 C 0.63394 0.98693 0.02787 0.0
H1096 H 0.64901 0.01179 0.09049 0.0
C1097 C 0.65331 0.06041 0.04078 0.0
C1098 C 0.66592 0.07094 0.05886 0.0
C1099 C 0.64864 0.04251 0.03729 0.0
C1100 C 0.64536 0.00507 0.0728 0.0
H1101 H 0.57422 0.92874 0.0267 0.0
H1102 H 0.59822 0.95982 0.02305 0.0
H1103 H 0.63171 0.97913 0.0897 0.0
H1104 H 0.68441 0.07128 0.08636 0.0
H1105 H 0.67625 0.03992 0.08019 0.0
H1106 H 0.64695 0.01296 0.01105 0.0
C1107 C 0.6001 0.951 0.0354 0.0
C1108 C 0.63541 0.98631 0.07235 0.0
C1109 C 0.58626 0.93321 0.03767 0.0
C1110 C 0.67454 0.06348 0.07241 0.0
C1111 C 0.66983 0.04551 0.06894 0.0
C1112 C 0.64393 0.0057 0.02831 0.0
C1113 C 0.61567 0.95757 0.04995 0.0
C1114 C 0.62904 0.97708 0.04995 0.0
C1115 C 0.65648 0.03471 0.0518 0.0
C1116 C 0.64917 0.01498 0.05084 0.0
H1117 H 0.60514 0.91922 0.08128 0.0
H1118 H 0.62935 0.95041 0.07735 0.0
H1119 H 0.62949 0.98014 0.01029 0.0
H1120 H 0.64648 0.06578 0.02993 0.0
H1121 H 0.63816 0.03454 0.02413 0.0
C1122 C 0.65745 0.59546 0.54713 0.0
C1123 C 0.66904 0.59596 0.56577 0.0
C1124 C 0.65328 0.60915 0.54515 0.0
C1125 C 0.64859 0.64078 0.58446 0.0
H1126 H 0.63746 0.65575 0.52274 0.0
C1127 C 0.60777 0.67711 0.58286 0.0
C1128 C 0.593 0.66913 0.56674 0.0
C1129 C 0.62173 0.67325 0.58078 0.0
C1130 C 0.64057 0.65175 0.54013 0.0
H1131 H 0.68619 0.61177 0.59602 0.0
H1132 H 0.67882 0.63571 0.59255 0.0
H1133 H 0.65416 0.63963 0.52245 0.0
H1134 H 0.58179 0.65171 0.5349 0.0
H1135 H 0.6059 0.64485 0.53148 0.0
H1136 H 0.63426 0.65205 0.60212 0.0
C1137 C 0.67287 0.62461 0.57963 0.0
C1138 C 0.65013 0.64254 0.53996 0.0
C1139 C 0.67712 0.61093 0.58155 0.0
C1140 C 0.59293 0.65802 0.5477 0.0
C1141 C 0.60687 0.65421 0.5456 0.0
C1142 C 0.63901 0.64996 0.58464 0.0
C1143 C 0.66055 0.62363 0.56178 0.0
C1144 C 0.65368 0.6364 0.56207 0.0
C1145 C 0.6212 0.66141 0.56248 0.0
C1146 C 0.63433 0.65497 0.56243 0.0
H1147 H 0.65108 0.58416 0.53458 0.0
H1148 H 0.64358 0.60786 0.53137 0.0
H1149 H 0.65095 0.63608 0.60181 0.0
H1150 H 0.60827 0.68582 0.59763 0.0
H1151 H 0.63269 0.67916 0.5939 0.0
C1152 C 0.93012 0.59849 0.04459 0.0
C1153 C 0.92389 0.59616 0.06898 0.0
C1154 C 0.94811 0.61065 0.03913 0.0
C1155 C 0.9911 0.64721 0.06574 0.0
H1156 H 0.01225 0.62641 0.02337 0.0
C1157 C 0.06433 0.66306 0.07289 0.0
C1158 C 0.07352 0.66339 0.05131 0.0
C1159 C 0.04646 0.65904 0.07182 0.0
C1160 C 0.00656 0.63263 0.03483 0.0
H1161 H 0.93135 0.6055 0.10656 0.0
H1162 H 0.96278 0.62629 0.0972 0.0
H1163 H 0.9798 0.6117 0.02725 0.0
H1164 H 0.07151 0.66078 0.01153 0.0
H1165 H 0.0402 0.65364 0.00971 0.0
H1166 H 0.0181 0.66764 0.07426 0.0
C1167 C 0.95378 0.619 0.08216 0.0
C1168 C 0.9879 0.62421 0.03704 0.0
C1169 C 0.93575 0.60697 0.08758 0.0
C1170 C 0.06476 0.66052 0.02851 0.0
C1171 C 0.04683 0.65638 0.02745 0.0
C1172 C 0.0098 0.65558 0.06365 0.0
C1173 C 0.96029 0.62061 0.05797 0.0
C1174 C 0.97994 0.63114 0.05299 0.0
C1175 C 0.03739 0.65519 0.04916 0.0
C1176 C 0.01771 0.64812 0.04862 0.0
H1177 H 0.92124 0.59052 0.02979 0.0
H1178 H 0.95258 0.61185 0.02022 0.0
H1179 H 0.9854 0.65309 0.07785 0.0
H1180 H 0.07073 0.66531 0.09075 0.0
H1181 H 0.03949 0.65805 0.08889 0.0
C1182 C 0.38298 0.06404 0.58027 0.0
C1183 C 0.39863 0.07107 0.56581 0.0
C1184 C 0.36894 0.04642 0.57657 0.0
C1185 C 0.35172 0.00752 0.53349 0.0
H1186 H 0.33792 0.97917 0.59338 0.0
C1187 C 0.33465 0.93424 0.53713 0.0
C1188 C 0.32235 0.92251 0.55468 0.0
C1189 C 0.33868 0.95209 0.53581 0.0
C1190 C 0.34121 0.98687 0.57648 0.0
H1191 H 0.41138 0.06553 0.5352 0.0
H1192 H 0.38711 0.0349 0.52895 0.0
H1193 H 0.35477 0.01178 0.59602 0.0
H1194 H 0.30371 0.91999 0.58348 0.0
H1195 H 0.3108 0.95126 0.58116 0.0
H1196 H 0.33892 0.98249 0.51396 0.0
C1197 C 0.38554 0.04295 0.54302 0.0
C1198 C 0.35089 0.00561 0.578 0.0
C1199 C 0.39956 0.06048 0.54677 0.0
C1200 C 0.31335 0.92873 0.56988 0.0
C1201 C 0.31744 0.94664 0.56862 0.0
C1202 C 0.34204 0.98877 0.53197 0.0
C1203 C 0.37025 0.03557 0.55823 0.0
C1204 C 0.35685 0.01611 0.55652 0.0
C1205 C 0.33052 0.95863 0.55203 0.0
C1206 C 0.33729 0.97825 0.55345 0.0
H1207 H 0.38181 0.0719 0.595 0.0
H1208 H 0.35725 0.04113 0.58844 0.0
H1209 H 0.35584 0.01528 0.51662 0.0
H1210 H 0.34174 0.92985 0.52505 0.0
H1211 H 0.34896 0.961 0.52301 0.0
C1212 C 0.60521 0.67649 0.90655 0.0
C1213 C 0.59058 0.66843 0.92291 0.0
C1214 C 0.61926 0.67276 0.90826 0.0
C1215 C 0.63914 0.65231 0.94864 0.0
H1216 H 0.64873 0.63568 0.8872 0.0
C1217 C 0.65679 0.59661 0.94322 0.0
C1218 C 0.66797 0.59669 0.92428 0.0
C1219 C 0.65249 0.61022 0.94477 0.0
C1220 C 0.64662 0.64067 0.90445 0.0
H1221 H 0.5797 0.65093 0.95471 0.0
H1222 H 0.60405 0.64436 0.95756 0.0
H1223 H 0.63166 0.65127 0.88681 0.0
H1224 H 0.68429 0.6117 0.89299 0.0
H1225 H 0.67672 0.63554 0.89571 0.0
H1226 H 0.6534 0.64094 0.96637 0.0
C1227 C 0.60478 0.65365 0.94351 0.0
C1228 C 0.63681 0.64962 0.90423 0.0
C1229 C 0.59072 0.65729 0.94173 0.0
C1230 C 0.67554 0.61119 0.9077 0.0
C1231 C 0.67117 0.62481 0.9092 0.0
C1232 C 0.64897 0.64338 0.94886 0.0
C1233 C 0.61901 0.66103 0.92648 0.0
C1234 C 0.63239 0.65492 0.9264 0.0
C1235 C 0.65925 0.62423 0.9274 0.0
C1236 C 0.65222 0.63687 0.92685 0.0
H1237 H 0.60553 0.68522 0.89192 0.0
H1238 H 0.63012 0.67874 0.895 0.0
H1239 H 0.63621 0.65655 0.96597 0.0
H1240 H 0.65081 0.58568 0.95638 0.0
H1241 H 0.64309 0.60923 0.95883 0.0
C1242 C 0.92489 0.61027 0.41386 0.0
C1243 C 0.91813 0.59567 0.43027 0.0
C1244 C 0.94262 0.62441 0.416 0.0
C1245 C 0.98282 0.64413 0.45696 0.0
H1246 H 0.00914 0.6529 0.39573 0.0
C1247 C 0.05574 0.66006 0.45215 0.0
C1248 C 0.06705 0.67105 0.43323 0.0
C1249 C 0.03793 0.65615 0.45355 0.0
C1250 C 0.00202 0.65102 0.41293 0.0
H1251 H 0.92425 0.58506 0.4628 0.0
H1252 H 0.95509 0.60952 0.46638 0.0
H1253 H 0.97646 0.63645 0.39516 0.0
H1254 H 0.06885 0.68743 0.40176 0.0
H1255 H 0.03762 0.68054 0.40421 0.0
H1256 H 0.00847 0.65795 0.47482 0.0
C1257 C 0.94674 0.61018 0.45193 0.0
C1258 C 0.98325 0.64157 0.4126 0.0
C1259 C 0.92908 0.59604 0.44974 0.0
C1260 C 0.06043 0.67881 0.41647 0.0
C1261 C 0.04255 0.67484 0.41782 0.0
C1262 C 0.0016 0.65358 0.45729 0.0
C1263 C 0.95387 0.62427 0.43469 0.0
C1264 C 0.97345 0.63743 0.4347 0.0
C1265 C 0.031 0.66312 0.43604 0.0
C1266 C 0.01139 0.65652 0.43537 0.0
H1267 H 0.91674 0.61044 0.39875 0.0
H1268 H 0.94769 0.63519 0.4026 0.0
H1269 H 0.97562 0.64143 0.47425 0.0
H1270 H 0.06045 0.65395 0.46544 0.0
H1271 H 0.02935 0.6469 0.46763 0.0
C1272 C 0.40315 0.06425 0.97185 0.0
C1273 C 0.40836 0.07434 0.94998 0.0
C1274 C 0.38994 0.04605 0.97142 0.0
C1275 C 0.35395 0.01049 0.93299 0.0
H1276 H 0.36866 0.97944 0.96453 0.0
C1277 C 0.32861 0.93747 0.90273 0.0
C1278 C 0.32725 0.92489 0.92035 0.0
C1279 C 0.33495 0.95536 0.90942 0.0
C1280 C 0.36407 0.98784 0.95605 0.0
H1281 H 0.40314 0.07353 0.91076 0.0
H1282 H 0.38026 0.04187 0.91001 0.0
H1283 H 0.38609 0.0117 0.97112 0.0
H1284 H 0.33024 0.92087 0.95913 0.0
H1285 H 0.34094 0.95198 0.97087 0.0
H1286 H 0.33219 0.98659 0.91734 0.0
C1287 C 0.38626 0.04798 0.92751 0.0
C1288 C 0.3741 0.00637 0.95984 0.0
C1289 C 0.3995 0.06611 0.92791 0.0
C1290 C 0.33136 0.93031 0.94505 0.0
C1291 C 0.33756 0.94815 0.95177 0.0
C1292 C 0.34385 0.99191 0.92926 0.0
C1293 C 0.38162 0.03766 0.94914 0.0
C1294 C 0.36941 0.01793 0.94788 0.0
C1295 C 0.33992 0.961 0.93391 0.0
C1296 C 0.34906 0.98041 0.94029 0.0
H1297 H 0.40965 0.07022 0.98917 0.0
H1298 H 0.38649 0.03846 0.98842 0.0
H1299 H 0.34989 0.01907 0.92378 0.0
H1300 H 0.32554 0.93371 0.88355 0.0
H1301 H 0.33677 0.96492 0.89513 0.0
C1302 C 0.34084 0.40415 0.47291 0.0
C1303 C 0.33583 0.40796 0.45006 0.0
C1304 C 0.34535 0.39066 0.47488 0.0
C1305 C 0.34389 0.35195 0.44211 0.0
H1306 H 0.39052 0.36903 0.47245 0.0
C1307 C 0.3921 0.32687 0.41445 0.0
C1308 C 0.40436 0.32723 0.43187 0.0
C1309 C 0.38008 0.33269 0.42082 0.0
C1310 C 0.37728 0.36377 0.46441 0.0
H1311 H 0.33055 0.3999 0.41169 0.0
H1312 H 0.33855 0.37656 0.41509 0.0
H1313 H 0.3756 0.38654 0.47653 0.0
H1314 H 0.41265 0.33253 0.47013 0.0
H1315 H 0.39142 0.3423 0.48138 0.0
H1316 H 0.3459 0.32945 0.42928 0.0
C1317 C 0.3389 0.38387 0.43153 0.0
C1318 C 0.36873 0.37386 0.46675 0.0
C1319 C 0.33448 0.39739 0.42954 0.0
C1320 C 0.40354 0.33235 0.45619 0.0
C1321 C 0.39142 0.33802 0.46262 0.0
C1322 C 0.35243 0.3418 0.43985 0.0
C1323 C 0.34482 0.38066 0.45407 0.0
C1324 C 0.3522 0.36834 0.45503 0.0
C1325 C 0.37998 0.33884 0.4448 0.0
C1326 C 0.36947 0.34787 0.45037 0.0
H1327 H 0.34189 0.41199 0.48911 0.0
H1328 H 0.34969 0.38835 0.49255 0.0
H1329 H 0.33103 0.34725 0.43315 0.0
H1330 H 0.39238 0.32296 0.39556 0.0
H1331 H 0.3716 0.3333 0.40655 0.0
C1332 C 0.05771 0.38342 0.91044 0.0
C1333 C 0.06479 0.39785 0.92716 0.0
C1334 C 0.03977 0.36967 0.91228 0.0
C1335 C -0.00045 0.35065 0.95311 0.0
H1336 H 0.97336 0.34272 0.89191 0.0
C1337 C 0.92716 0.33636 0.94848 0.0
C1338 C 0.91561 0.3252 0.92986 0.0
C1339 C 0.94491 0.34007 0.94968 0.0
C1340 C 0.98045 0.34439 0.90909 0.0
H1341 H 0.05898 0.4086 0.95982 0.0
H1342 H 0.0278 0.38485 0.96286 0.0
H1343 H 0.00606 0.35853 0.89136 0.0
H1344 H 0.91337 0.30846 0.8986 0.0
H1345 H 0.94453 0.31507 0.90064 0.0
H1346 H 0.97387 0.33728 0.97094 0.0
C1347 C 0.03605 0.384 0.94843 0.0
C1348 C -0.00078 0.35345 0.90877 0.0
C1349 C 0.0539 0.39774 0.94654 0.0
C1350 C 0.92197 0.31719 0.91309 0.0
C1351 C 0.93981 0.321 0.91421 0.0
C1352 C 0.98077 0.3416 0.95342 0.0
C1353 C 0.02864 0.37006 0.93096 0.0
C1354 C 0.00898 0.35728 0.93088 0.0
C1355 C 0.95155 0.33276 0.93223 0.0
C1356 C 0.97106 0.33898 0.93151 0.0
H1357 H 0.0658 0.38306 0.89538 0.0
H1358 H 0.03448 0.359 0.89869 0.0
H1359 H 0.00671 0.3531 0.97039 0.0
H1360 H 0.92265 0.34267 0.96176 0.0
H1361 H 0.95367 0.34938 0.96359 0.0
C1362 C 0.59028 0.92374 0.42675 0.0
C1363 C 0.57915 0.91451 0.44685 0.0
C1364 C 0.60376 0.94169 0.42906 0.0
C1365 C 0.61265 0.98144 0.46383 0.0
H1366 H 0.65781 0.00352 0.42809 0.0
C1367 C 0.6546 0.05798 0.45491 0.0
C1368 C 0.6604 0.06426 0.43088 0.0
C1369 C 0.64853 0.04005 0.46096 0.0
C1370 C 0.64524 -0.00245 0.43816 0.0
H1371 H 0.5742 0.9165 0.48558 0.0
H1372 H 0.59781 0.94794 0.4896 0.0
H1373 H 0.64016 0.97079 0.43171 0.0
H1374 H 0.6653 0.05692 0.39468 0.0
H1375 H 0.65427 0.02554 0.40502 0.0
H1376 H 0.61716 0.00797 0.46933 0.0
C1377 C 0.59593 0.9413 0.47199 0.0
C1378 C 0.63517 0.97883 0.44028 0.0
C1379 C 0.58246 0.92329 0.4697 0.0
C1380 C 0.66088 0.05248 0.41335 0.0
C1381 C 0.65467 0.0345 0.41935 0.0
C1382 C 0.62266 0.00011 0.46165 0.0
C1383 C 0.60639 0.95081 0.45151 0.0
C1384 C 0.61855 0.97057 0.45261 0.0
C1385 C 0.64798 0.02797 0.44305 0.0
C1386 C 0.63884 0.00837 0.44826 0.0
H1387 H 0.58816 0.91733 0.40892 0.0
H1388 H 0.61145 0.94867 0.41287 0.0
H1389 H 0.59977 0.9755 0.47312 0.0
H1390 H 0.65429 0.0668 0.46893 0.0
H1391 H 0.6438 0.03554 0.47951 0.0
C1392 C 0.50457 0.60356 0.98411 0.0
C1393 C 0.50264 0.61493 0.96731 0.0
C1394 C 0.48946 0.58818 0.99311 0.0
C1395 C 0.44164 0.55669 0.97905 0.0
H1396 H 0.43908 0.5437 0.04792 0.0
C1397 C 0.37638 0.50168 0.02423 0.0
C1398 C 0.37788 0.48987 0.04067 0.0
C1399 C 0.39175 0.51671 0.01509 0.0
C1400 C 0.43968 0.54705 0.02858 0.0
H1401 H 0.48331 0.61916 0.947 0.0
H1402 H 0.45698 0.59249 0.96297 0.0
H1403 H 0.46563 0.57052 0.03252 0.0
H1404 H 0.39671 0.48452 0.0603 0.0
H1405 H 0.42355 0.51073 0.04421 0.0
H1406 H 0.41564 0.53327 0.97517 0.0
C1407 C 0.47018 0.5953 0.96887 0.0
C1408 C 0.4549 0.5624 0.01976 0.0
C1409 C 0.48528 0.61065 0.95985 0.0
C1410 C 0.39509 0.49337 0.0477 0.0
C1411 C 0.41046 0.50844 0.0386 0.0
C1412 C 0.42642 0.54136 0.98789 0.0
C1413 C 0.47209 0.58385 0.98554 0.0
C1414 C 0.45602 0.56743 0.9949 0.0
C1415 C 0.40895 0.52028 0.02223 0.0
C1416 C 0.42526 0.5364 0.01276 0.0
H1417 H 0.51777 0.60644 0.99016 0.0
H1418 H 0.49141 0.57953 0.0057 0.0
H1419 H 0.44222 0.56001 0.95971 0.0
H1420 H 0.36331 0.49939 0.01849 0.0
H1421 H 0.39014 0.5257 0.00273 0.0
C1422 C 0.86696 0.37651 0.53412 0.0
C1423 C 0.87708 0.38004 0.55583 0.0
C1424 C 0.86657 0.39043 0.52141 0.0
C1425 C 0.89121 0.43993 0.51421 0.0
H1426 H 0.84648 0.43119 0.48448 0.0
C1427 C 0.88134 0.4963 0.47223 0.0
C1428 C 0.87231 0.49253 0.44951 0.0
C1429 C 0.88228 0.48277 0.48525 0.0
C1430 C 0.85911 0.43377 0.49249 0.0
H1431 H 0.89465 0.40093 0.58134 0.0
H1432 H 0.89368 0.42521 0.5594 0.0
H1433 H 0.84726 0.40729 0.5076 0.0
H1434 H 0.85734 0.47163 0.42254 0.0
H1435 H 0.85897 0.44803 0.44532 0.0
H1436 H 0.90296 0.46653 0.49927 0.0
C1437 C 0.88631 0.41172 0.55195 0.0
C1438 C 0.85957 0.42008 0.50571 0.0
C1439 C 0.88678 0.39779 0.5646 0.0
C1440 C 0.86437 0.47498 0.44 0.0
C1441 C 0.86521 0.46143 0.45311 0.0
C1442 C 0.89071 0.45367 0.50111 0.0
C1443 C 0.87619 0.4082 0.53019 0.0
C1444 C 0.87565 0.42295 0.51662 0.0
C1445 C 0.87412 0.46517 0.4759 0.0
C1446 C 0.87467 0.45069 0.49001 0.0
H1447 H 0.85943 0.363 0.52676 0.0
H1448 H 0.8589 0.38727 0.50449 0.0
H1449 H 0.90388 0.44252 0.52206 0.0
H1450 H 0.88761 0.50969 0.48006 0.0
H1451 H 0.88911 0.48601 0.50287 0.0
C1452 C 0.3736 0.87001 0.95303 0.0
C1453 C 0.36465 0.8774 0.96595 0.0
C1454 C 0.3886 0.87017 0.96326 0.0
C1455 C 0.42455 0.89391 0.0088 0.0
H1456 H 0.42998 0.85184 0.00383 0.0
C1457 C 0.48187 0.88951 0.05785 0.0
C1458 C 0.4902 0.88158 0.04469 0.0
C1459 C 0.4663 0.88879 0.04878 0.0
C1460 C 0.42876 0.86376 0.00514 0.0
H1461 H 0.36436 0.89067 -0.00018 0.0
H1462 H 0.39054 0.89091 0.01767 0.0
H1463 H 0.4032 0.85089 0.987 0.0
H1464 H 0.48877 0.86675 0.01159 0.0
H1465 H 0.46181 0.86574 0.9956 0.0
H1466 H 0.45019 0.90687 0.02668 0.0
C1467 C 0.38602 0.88512 -0.00045 0.0
C1468 C 0.41341 0.8632 0.99552 0.0
C1469 C 0.37097 0.88488 0.98937 0.0
C1470 C 0.48265 0.87293 0.02224 0.0
C1471 C 0.46712 0.87226 0.01314 0.0
C1472 C 0.43994 0.89449 0.01833 0.0
C1473 C 0.39502 0.8778 0.98658 0.0
C1474 C 0.41116 0.87828 0.99719 0.0
C1475 C 0.45875 0.88015 0.02631 0.0
C1476 C 0.44225 0.87945 0.01655 0.0
H1477 H 0.36909 0.86416 0.93493 0.0
H1478 H 0.39537 0.8646 0.95271 0.0
H1479 H 0.4233 0.90582 0.01005 0.0
H1480 H 0.48731 0.89621 0.07526 0.0
H1481 H 0.46006 0.8948 0.05953 0.0
C1482 C 0.50524 0.38118 0.46179 0.0
C1483 C 0.49739 0.38197 0.43948 0.0
C1484 C 0.51996 0.39656 0.47147 0.0
C1485 C 0.5439 0.44621 0.46826 0.0
H1486 H 0.58239 0.44217 0.4993 0.0
C1487 C 0.6112 0.50788 0.49842 0.0
C1488 C 0.61796 0.5068 0.52154 0.0
C1489 C 0.59635 0.49283 0.48825 0.0
C1490 C 0.57166 0.44348 0.4909 0.0
H1491 H 0.49891 0.39952 0.40972 0.0
H1492 H 0.52484 0.42633 0.42642 0.0
H1493 H 0.55693 0.41558 0.48146 0.0
H1494 H 0.61434 0.4891 0.5522 0.0
H1495 H 0.58842 0.46285 0.53444 0.0
H1496 H 0.55879 0.47419 0.47758 0.0
C1497 C 0.51941 0.41387 0.43665 0.0
C1498 C 0.55706 0.42824 0.48069 0.0
C1499 C 0.50461 0.39848 0.427 0.0
C1500 C 0.60948 0.49038 0.53434 0.0
C1501 C 0.59471 0.47531 0.52411 0.0
C1502 C 0.55856 0.46148 0.47838 0.0
C1503 C 0.52725 0.41309 0.45901 0.0
C1504 C 0.54296 0.4294 0.46937 0.0
C1505 C 0.58803 0.47636 0.50092 0.0
C1506 C 0.57255 0.46024 0.48991 0.0
H1507 H 0.49994 0.36869 0.47194 0.0
H1508 H 0.52548 0.39553 0.48893 0.0
H1509 H 0.53314 0.44753 0.45999 0.0
H1510 H 0.61743 0.52034 0.48809 0.0
H1511 H 0.59159 0.49399 0.47025 0.0
C1512 C 0.09656 0.50533 0.93066 0.0
C1513 C 0.10122 0.49432 0.94421 0.0
C1514 C 0.09597 0.51962 0.94207 0.0
C1515 C 0.09111 0.53593 0.00252 0.0
H1516 H 0.11462 0.58293 0.97156 0.0
C1517 C 0.08605 0.59607 0.04075 0.0
C1518 C 0.10232 0.61248 0.04231 0.0
C1519 C 0.08523 0.58149 0.02816 0.0
C1520 C 0.10802 0.56988 0.98042 0.0
H1521 H 0.10876 0.48958 0.9804 0.0
H1522 H 0.10761 0.51442 0.00026 0.0
H1523 H 0.11434 0.55756 0.95072 0.0
H1524 H 0.13046 0.62653 0.03167 0.0
H1525 H 0.12898 0.60108 0.00963 0.0
H1526 H 0.08497 0.54828 0.03234 0.0
C1527 C 0.10436 0.51196 0.98086 0.0
C1528 C 0.10773 0.55535 0.96841 0.0
C1529 C 0.10512 0.49781 0.96942 0.0
C1530 C 0.11772 0.61405 0.03085 0.0
C1531 C 0.11686 0.59953 0.01808 0.0
C1532 C 0.09126 0.55042 0.01442 0.0
C1533 C 0.09983 0.52305 0.96729 0.0
C1534 C 0.09942 0.53827 0.97946 0.0
C1535 C 0.10063 0.58308 0.01668 0.0
C1536 C 0.09986 0.56758 0.00359 0.0
H1537 H 0.0935 0.503 0.9112 0.0
H1538 H 0.09232 0.52789 0.93122 0.0
H1539 H 0.08447 0.52288 0.01136 0.0
H1540 H 0.07394 0.59443 0.04936 0.0
H1541 H 0.07251 0.569 0.02719 0.0
C1542 C 0.48537 0.09526 0.50484 0.0
C1543 C 0.48734 0.10598 0.52547 0.0
C1544 C 0.50022 0.09487 0.49505 0.0
C1545 C 0.54947 0.12125 0.49166 0.0
H1546 H 0.54582 0.07584 0.47371 0.0
C1547 C 0.6116 0.11614 0.4644 0.0
C1548 C 0.60965 0.10434 0.44519 0.0
C1549 C 0.59659 0.11626 0.47408 0.0
C1550 C 0.547 0.08866 0.47831 0.0
H1551 H 0.50641 0.12468 0.55204 0.0
H1552 H 0.53232 0.12402 0.53488 0.0
H1553 H 0.51971 0.07615 0.49077 0.0
H1554 H 0.59045 0.08352 0.42089 0.0
H1555 H 0.56431 0.08396 0.43744 0.0
H1556 H 0.57667 0.13381 0.47899 0.0
C1557 C 0.51931 0.116 0.52622 0.0
C1558 C 0.53205 0.08882 0.48814 0.0
C1559 C 0.50445 0.11629 0.53612 0.0
C1560 C 0.59239 0.09271 0.43578 0.0
C1561 C 0.57739 0.09289 0.44537 0.0
C1562 C 0.56439 0.12111 0.48171 0.0
C1563 C 0.51735 0.1053 0.50558 0.0
C1564 C 0.53316 0.10511 0.49498 0.0
C1565 C 0.5793 0.10465 0.46467 0.0
C1566 C 0.56336 0.1048 0.47498 0.0
H1567 H 0.47237 0.08716 0.49621 0.0
H1568 H 0.49834 0.08663 0.479 0.0
H1569 H 0.55063 0.13404 0.49644 0.0
H1570 H 0.62471 0.12522 0.47215 0.0
H1571 H 0.59853 0.12529 0.48919 0.0
C1572 C 0.49666 0.3807 0.02326 0.0
C1573 C 0.49439 0.38239 0.04858 0.0
C1574 C 0.51083 0.39467 0.01037 0.0
C1575 C 0.55564 0.43405 0.01849 0.0
H1576 H 0.54625 0.44914 0.95562 0.0
C1577 C 0.60958 0.49748 0.9688 0.0
C1578 C 0.61062 0.49689 0.94303 0.0
C1579 C 0.5953 0.48354 0.98157 0.0
C1580 C 0.54917 0.44494 0.97297 0.0
H1581 H 0.50534 0.4 0.08026 0.0
H1582 H 0.5302 0.42437 0.0577 0.0
H1583 H 0.52163 0.42461 0.97814 0.0
H1584 H 0.59753 0.48115 0.91043 0.0
H1585 H 0.57282 0.4566 0.93274 0.0
H1586 H 0.5832 0.45411 0.01325 0.0
C1587 C 0.52099 0.4122 0.04789 0.0
C1588 C 0.53504 0.43092 0.98589 0.0
C1589 C 0.5067 0.39829 0.06076 0.0
C1590 C 0.59706 0.48206 0.93028 0.0
C1591 C 0.58284 0.46802 0.94308 0.0
C1592 C 0.5698 0.44796 0.00549 0.0
C1593 C 0.52313 0.41055 0.02255 0.0
C1594 C 0.53813 0.42538 0.00881 0.0
C1595 C 0.58179 0.46858 0.9689 0.0
C1596 C 0.56673 0.45363 0.9826 0.0
H1597 H 0.4874 0.36862 0.01332 0.0
H1598 H 0.51227 0.39297 0.99089 0.0
H1599 H 0.55845 0.42988 0.03596 0.0
H1600 H 0.61975 0.50878 0.97918 0.0
H1601 H 0.59477 0.4846 0.00139 0.0
C1602 C 0.13706 0.61892 0.45769 0.0
C1603 C 0.12329 0.623 0.4612 0.0
C1604 C 0.13608 0.6038 0.46884 0.0
C1605 C 0.1038 0.55998 0.49622 0.0
H1606 H 0.14647 0.56308 0.52543 0.0
C1607 C 0.10106 0.50255 0.5546 0.0
C1608 C 0.11463 0.49827 0.55043 0.0
C1609 C 0.10222 0.51796 0.54414 0.0
C1610 C 0.13448 0.56196 0.51715 0.0
H1611 H 0.09771 0.61445 0.47927 0.0
H1612 H 0.09611 0.5882 0.49888 0.0
H1613 H 0.1483 0.5896 0.50618 0.0
H1614 H 0.14014 0.50688 0.53215 0.0
H1615 H 0.14207 0.53365 0.51376 0.0
H1616 H 0.08998 0.53234 0.50716 0.0
C1617 C 0.10755 0.59655 0.48725 0.0
C1618 C 0.13553 0.57714 0.50611 0.0
C1619 C 0.10853 0.61166 0.47611 0.0
C1620 C 0.12946 0.5098 0.53575 0.0
C1621 C 0.13063 0.52521 0.52532 0.0
C1622 C 0.10275 0.5448 0.50727 0.0
C1623 C 0.12131 0.59243 0.48373 0.0
C1624 C 0.1202 0.57631 0.4955 0.0
C1625 C 0.11699 0.52942 0.52932 0.0
C1626 C 0.11808 0.54562 0.51784 0.0
H1627 H 0.14859 0.62736 0.44626 0.0
H1628 H 0.14679 0.60087 0.46552 0.0
H1629 H 0.09181 0.55882 0.48789 0.0
H1630 H 0.08948 0.49398 0.56588 0.0
H1631 H 0.0916 0.52096 0.54782 0.0
C1632 C 0.60923 0.12094 0.03316 0.0
C1633 C 0.6089 0.10445 0.03499 0.0
C1634 C 0.59481 0.12174 0.02262 0.0
C1635 C 0.5567 0.09767 0.9803 0.0
H1636 H 0.53786 0.12511 0.01243 0.0
C1637 C 0.49081 0.09408 0.94892 0.0
C1638 C 0.49012 0.11008 0.94929 0.0
C1639 C 0.50543 0.09351 0.9592 0.0
C1640 C 0.54311 0.11759 0.00303 0.0
H1641 H 0.59319 0.07589 0.02713 0.0
H1642 H 0.56805 0.07732 0.00867 0.0
H1643 H 0.56325 0.12402 0.03061 0.0
H1644 H 0.50434 0.1381 0.96044 0.0
H1645 H 0.52999 0.1372 0.97792 0.0
H1646 H 0.53672 0.09136 0.95258 0.0
C1647 C 0.57951 0.08962 0.01529 0.0
C1648 C 0.55763 0.11694 0.01349 0.0
C1649 C 0.59387 0.0888 0.026 0.0
C1650 C 0.50441 0.12553 0.96 0.0
C1651 C 0.51907 0.12499 0.97015 0.0
C1652 C 0.54225 0.0984 0.96975 0.0
C1653 C 0.57982 0.10609 0.01352 0.0
C1654 C 0.56454 0.10693 0.00227 0.0
C1655 C 0.51974 0.10896 0.96995 0.0
C1656 C 0.53524 0.10833 0.98102 0.0
H1657 H 0.62062 0.13325 0.03992 0.0
H1658 H 0.59549 0.13465 0.02129 0.0
H1659 H 0.56191 0.09005 0.97107 0.0
H1660 H 0.47997 0.08192 0.94091 0.0
H1661 H 0.50537 0.08088 0.95905 0.0
C1662 C 0.50705 0.59772 0.51776 0.0
C1663 C 0.50507 0.61136 0.52904 0.0
C1664 C 0.49227 0.58285 0.50714 0.0
C1665 C 0.44277 0.55695 0.5087 0.0
H1666 H 0.44762 0.53916 0.44519 0.0
C1667 C 0.3815 0.50316 0.45496 0.0
C1668 C 0.38334 0.48969 0.44288 0.0
C1669 C 0.39644 0.51797 0.46536 0.0
C1670 C 0.4461 0.54382 0.46307 0.0
H1671 H 0.486 0.62009 0.53797 0.0
H1672 H 0.46023 0.59417 0.51935 0.0
H1673 H 0.47356 0.56507 0.46361 0.0
H1674 H 0.40232 0.48121 0.43229 0.0
H1675 H 0.42836 0.50697 0.45073 0.0
H1676 H 0.41535 0.53569 0.50826 0.0
C1677 C 0.47319 0.59491 0.51892 0.0
C1678 C 0.46095 0.55868 0.4736 0.0
C1679 C 0.48798 0.60981 0.52947 0.0
C1680 C 0.40045 0.49138 0.4414 0.0
C1681 C 0.4154 0.5062 0.45185 0.0
C1682 C 0.42793 0.54208 0.4982 0.0
C1683 C 0.47517 0.58127 0.50765 0.0
C1684 C 0.45944 0.56542 0.49651 0.0
C1685 C 0.41356 0.51965 0.46399 0.0
C1686 C 0.42941 0.53537 0.47523 0.0
H1687 H 0.52002 0.59849 0.51715 0.0
H1688 H 0.49417 0.57246 0.49883 0.0
H1689 H 0.44125 0.56166 0.52655 0.0
H1690 H 0.36852 0.50231 0.45633 0.0
H1691 H 0.3946 0.52823 0.47425 0.0
C1692 C 0.87162 0.38273 0.97429 0.0
C1693 C 0.88202 0.38482 0.95325 0.0
C1694 C 0.87253 0.3977 0.98582 0.0
C1695 C 0.88463 0.44465 0.97486 0.0
H1696 H 0.88613 0.44762 0.04618 0.0
C1697 C 0.87383 0.49656 0.02811 0.0
C1698 C 0.88515 0.50515 0.04833 0.0
C1699 C 0.87403 0.4822 0.01639 0.0
C1700 C 0.88586 0.44705 0.02625 0.0
H1701 H 0.9015 0.40425 0.92776 0.0
H1702 H 0.90311 0.43041 0.94797 0.0
H1703 H 0.88568 0.42205 0.02588 0.0
H1704 H 0.90557 0.50538 0.07208 0.0
H1705 H 0.90594 0.48029 0.05153 0.0
H1706 H 0.88493 0.46972 0.97522 0.0
C1707 C 0.89416 0.41716 0.95542 0.0
C1708 C 0.88541 0.43232 0.01463 0.0
C1709 C 0.8933 0.40219 0.94392 0.0
C1710 C 0.89666 0.49903 0.05659 0.0
C1711 C 0.89681 0.48461 0.0449 0.0
C1712 C 0.885 0.45935 0.98647 0.0
C1713 C 0.88382 0.41507 0.97653 0.0
C1714 C 0.88471 0.43093 0.98882 0.0
C1715 C 0.88551 0.47606 0.02465 0.0
C1716 C 0.88555 0.46067 0.0123 0.0
H1717 H 0.86276 0.36953 0.98193 0.0
H1718 H 0.86422 0.39563 0.00187 0.0
H1719 H 0.88396 0.44388 0.95494 0.0
H1720 H 0.86477 0.50091 0.02131 0.0
H1721 H 0.86499 0.47573 0.00105 0.0
C1722 C 0.5007 0.90244 0.44052 0.0
C1723 C 0.49982 0.88573 0.43813 0.0
C1724 C 0.48631 0.90353 0.45065 0.0
C1725 C 0.43768 0.87661 0.46261 0.0
H1726 H 0.44699 0.91301 0.51179 0.0
C1727 C 0.38088 0.87518 0.5207 0.0
C1728 C 0.38177 0.89165 0.52578 0.0
C1729 C 0.39534 0.87481 0.50955 0.0
C1730 C 0.44416 0.90292 0.49784 0.0
H1731 H 0.4831 0.85702 0.44437 0.0
H1732 H 0.45803 0.85894 0.46201 0.0
H1733 H 0.47212 0.91183 0.4928 0.0
H1734 H 0.3985 0.92064 0.52303 0.0
H1735 H 0.42361 0.91997 0.50319 0.0
H1736 H 0.40976 0.86772 0.46749 0.0
C1737 C 0.46979 0.87119 0.45591 0.0
C1738 C 0.45857 0.90224 0.48699 0.0
C1739 C 0.48421 0.87011 0.44593 0.0
C1740 C 0.39742 0.90773 0.51946 0.0
C1741 C 0.41186 0.90735 0.5082 0.0
C1742 C 0.42329 0.87734 0.47336 0.0
C1743 C 0.47071 0.88791 0.45844 0.0
C1744 C 0.45547 0.889 0.46939 0.0
C1745 C 0.41099 0.89088 0.50311 0.0
C1746 C 0.42634 0.89042 0.49122 0.0
H1747 H 0.51254 0.91472 0.43468 0.0
H1748 H 0.48733 0.91658 0.45218 0.0
H1749 H 0.4349 0.86642 0.44882 0.0
H1750 H 0.36905 0.86255 0.52547 0.0
H1751 H 0.39432 0.86189 0.50627 0.0
loop_
_geom_bond_atom_site_label_1
_geom_bond_atom_site_label_2
_geom_bond_distance
_geom_bond_site_symmetry_2
_ccdc_geom_bond_type
C0 O1 1.160 . S
C0 O7 1.185 . S
O1 C0 1.160 . S
O2 Zn3 1.899 . S
O2 C10 1.284 . S
Zn3 O2 1.899 . S
Zn3 O4 2.032 . S
Zn3 O7 2.086 . S
Zn3 O12 1.977 . S
O4 Zn3 2.032 . S
O4 C8 1.278 . S
C5 O6 1.203 . S
C5 O12 1.267 . S
O6 C5 1.203 . S
O7 C0 1.185 . S
O7 Zn3 2.086 . S
C8 O4 1.278 . S
C8 O9 1.211 . S
O9 C8 1.211 . S
C10 O2 1.284 . S
C10 O11 1.273 . S
O11 C10 1.273 . S
O12 Zn3 1.977 . S
O12 C5 1.267 . S
C13 O14 1.160 . S
C13 O20 1.185 . S
O14 C13 1.160 . S
O15 Zn16 1.899 . S
O15 C23 1.284 . S
Zn16 O15 1.899 . S
Zn16 O17 2.032 . S
Zn16 O20 2.086 . S
Zn16 O25 1.977 . S
O17 Zn16 2.032 . S
O17 C21 1.278 . S
C18 O19 1.203 . S
C18 O25 1.267 . S
O19 C18 1.203 . S
O20 C13 1.185 . S
O20 Zn16 2.086 . S
C21 O17 1.278 . S
C21 O22 1.211 . S
O22 C21 1.211 . S
C23 O15 1.284 . S
C23 O24 1.273 . S
O24 C23 1.273 . S
O25 Zn16 1.977 . S
O25 C18 1.267 . S
C26 O27 1.160 . S
C26 O33 1.185 . S
O27 C26 1.160 . S
O28 Zn29 1.899 . S
O28 C36 1.284 . S
Zn29 O28 1.899 . S
Zn29 O30 2.032 . S
Zn29 O33 2.086 . S
Zn29 O38 1.977 . S
O30 Zn29 2.032 . S
O30 C34 1.278 . S
C31 O32 1.203 . S
C31 O38 1.267 . S
O32 C31 1.203 . S
O33 C26 1.185 . S
O33 Zn29 2.086 . S
C34 O30 1.278 . S
C34 O35 1.211 . S
O35 C34 1.211 . S
C36 O28 1.284 . S
C36 O37 1.273 . S
O37 C36 1.273 . S
O38 Zn29 1.977 . S
O38 C31 1.267 . S
C39 O40 1.160 . S
C39 O46 1.185 . S
O40 C39 1.160 . S
O41 Zn42 1.899 . S
O41 C49 1.284 . S
Zn42 O41 1.899 . S
Zn42 O43 2.032 . S
Zn42 O46 2.086 . S
Zn42 O51 1.977 . S
O43 Zn42 2.032 . S
O43 C47 1.278 . S
C44 O45 1.203 . S
C44 O51 1.267 . S
O45 C44 1.203 . S
O46 C39 1.185 . S
O46 Zn42 2.086 . S
C47 O43 1.278 . S
C47 O48 1.211 . S
O48 C47 1.211 . S
C49 O41 1.284 . S
C49 O50 1.273 . S
O50 C49 1.273 . S
O51 Zn42 1.977 . S
O51 C44 1.267 . S
C52 O53 1.160 . S
C52 O59 1.185 . S
O53 C52 1.160 . S
O54 Zn55 1.899 . S
O54 C62 1.284 . S
Zn55 O54 1.899 . S
Zn55 O56 2.032 . S
Zn55 O59 2.086 . S
Zn55 O64 1.977 . S
O56 Zn55 2.032 . S
O56 C60 1.278 . S
C57 O58 1.203 . S
C57 O64 1.267 . S
O58 C57 1.203 . S
O59 C52 1.185 . S
O59 Zn55 2.086 . S
C60 O56 1.278 . S
C60 O61 1.211 . S
O61 C60 1.211 . S
C62 O54 1.284 . S
C62 O63 1.273 . S
O63 C62 1.273 . S
O64 Zn55 1.977 . S
O64 C57 1.267 . S
C65 O66 1.160 . S
C65 O72 1.185 . S
O66 C65 1.160 . S
O67 Zn68 1.899 . S
O67 C75 1.284 . S
Zn68 O67 1.899 . S
Zn68 O69 2.032 . S
Zn68 O72 2.086 . S
Zn68 O77 1.977 . S
O69 Zn68 2.032 . S
O69 C73 1.278 . S
C70 O71 1.203 . S
C70 O77 1.267 . S
O71 C70 1.203 . S
O72 C65 1.185 . S
O72 Zn68 2.086 . S
C73 O69 1.278 . S
C73 O74 1.211 . S
O74 C73 1.211 . S
C75 O67 1.284 . S
C75 O76 1.273 . S
O76 C75 1.273 . S
O77 Zn68 1.977 . S
O77 C70 1.267 . S
C78 O79 1.160 . S
C78 O85 1.185 . S
O79 C78 1.160 . S
O80 Zn81 1.899 . S
O80 C88 1.284 . S
Zn81 O80 1.899 . S
Zn81 O82 2.032 . S
Zn81 O85 2.086 . S
Zn81 O90 1.977 . S
O82 Zn81 2.032 . S
O82 C86 1.278 . S
C83 O84 1.203 . S
C83 O90 1.267 . S
O84 C83 1.203 . S
O85 C78 1.185 . S
O85 Zn81 2.086 . S
C86 O82 1.278 . S
C86 O87 1.211 . S
O87 C86 1.211 . S
C88 O80 1.284 . S
C88 O89 1.273 . S
O89 C88 1.273 . S
O90 Zn81 1.977 . S
O90 C83 1.267 . S
C91 O92 1.160 . S
C91 O98 1.185 . S
O92 C91 1.160 . S
O93 Zn94 1.899 . S
O93 C101 1.284 . S
Zn94 O93 1.899 . S
Zn94 O95 2.032 . S
Zn94 O98 2.086 . S
Zn94 O103 1.977 . S
O95 Zn94 2.032 . S
O95 C99 1.278 . S
C96 O97 1.203 . S
C96 O103 1.267 . S
O97 C96 1.203 . S
O98 C91 1.185 . S
O98 Zn94 2.086 . S
C99 O95 1.278 . S
C99 O100 1.211 . S
O100 C99 1.211 . S
C101 O93 1.284 . S
C101 O102 1.273 . S
O102 C101 1.273 . S
O103 Zn94 1.977 . S
O103 C96 1.267 . S
C104 O105 1.160 . S
C104 O111 1.185 . S
O105 C104 1.160 . S
O106 Zn107 1.899 . S
O106 C114 1.284 . S
Zn107 O106 1.899 . S
Zn107 O108 2.032 . S
Zn107 O111 2.086 . S
Zn107 O116 1.977 . S
O108 Zn107 2.032 . S
O108 C112 1.278 . S
C109 O110 1.203 . S
C109 O116 1.267 . S
O110 C109 1.203 . S
O111 C104 1.185 . S
O111 Zn107 2.086 . S
C112 O108 1.278 . S
C112 O113 1.211 . S
O113 C112 1.211 . S
C114 O106 1.284 . S
C114 O115 1.273 . S
O115 C114 1.273 . S
O116 Zn107 1.977 . S
O116 C109 1.267 . S
C117 O118 1.160 . S
C117 O124 1.185 . S
O118 C117 1.160 . S
O119 Zn120 1.899 . S
O119 C127 1.284 . S
Zn120 O119 1.899 . S
Zn120 O121 2.032 . S
Zn120 O124 2.086 . S
Zn120 O129 1.977 . S
O121 Zn120 2.032 . S
O121 C125 1.278 . S
C122 O123 1.203 . S
C122 O129 1.267 . S
O123 C122 1.203 . S
O124 C117 1.185 . S
O124 Zn120 2.086 . S
C125 O121 1.278 . S
C125 O126 1.211 . S
O126 C125 1.211 . S
C127 O119 1.284 . S
C127 O128 1.273 . S
O128 C127 1.273 . S
O129 Zn120 1.977 . S
O129 C122 1.267 . S
C130 O131 1.160 . S
C130 O137 1.185 . S
O131 C130 1.160 . S
O132 Zn133 1.899 . S
O132 C140 1.284 . S
Zn133 O132 1.899 . S
Zn133 O134 2.032 . S
Zn133 O137 2.086 . S
Zn133 O142 1.977 . S
O134 Zn133 2.032 . S
O134 C138 1.278 . S
C135 O136 1.203 . S
C135 O142 1.267 . S
O136 C135 1.203 . S
O137 C130 1.185 . S
O137 Zn133 2.086 . S
C138 O134 1.278 . S
C138 O139 1.211 . S
O139 C138 1.211 . S
C140 O132 1.284 . S
C140 O141 1.273 . S
O141 C140 1.273 . S
O142 Zn133 1.977 . S
O142 C135 1.267 . S
C143 O144 1.160 . S
C143 O150 1.185 . S
O144 C143 1.160 . S
O145 Zn146 1.899 . S
O145 C153 1.284 . S
Zn146 O145 1.899 . S
Zn146 O147 2.032 . S
Zn146 O150 2.086 . S
Zn146 O155 1.977 . S
O147 Zn146 2.032 . S
O147 C151 1.278 . S
C148 O149 1.203 . S
C148 O155 1.267 . S
O149 C148 1.203 . S
O150 C143 1.185 . S
O150 Zn146 2.086 . S
C151 O147 1.278 . S
C151 O152 1.211 . S
O152 C151 1.211 . S
C153 O145 1.284 . S
C153 O154 1.273 . S
O154 C153 1.273 . S
O155 Zn146 1.977 . S
O155 C148 1.267 . S
C156 O157 1.160 . S
C156 O163 1.185 . S
O157 C156 1.160 . S
O158 Zn159 1.899 . S
O158 C166 1.284 . S
Zn159 O158 1.899 . S
Zn159 O160 2.032 . S
Zn159 O163 2.086 . S
Zn159 O168 1.977 . S
O160 Zn159 2.032 . S
O160 C164 1.278 . S
C161 O162 1.203 . S
C161 O168 1.267 . S
O162 C161 1.203 . S
O163 C156 1.185 . S
O163 Zn159 2.086 . S
C164 O160 1.278 . S
C164 O165 1.211 . S
O165 C164 1.211 . S
C166 O158 1.284 . S
C166 O167 1.273 . S
O167 C166 1.273 . S
O168 Zn159 1.977 . S
O168 C161 1.267 . S
C169 O170 1.160 . S
C169 O176 1.185 . S
O170 C169 1.160 . S
O171 Zn172 1.899 . S
O171 C179 1.284 . S
Zn172 O171 1.899 . S
Zn172 O173 2.032 . S
Zn172 O176 2.086 . S
Zn172 O181 1.977 . S
O173 Zn172 2.032 . S
O173 C177 1.278 . S
C174 O175 1.203 . S
C174 O181 1.267 . S
O175 C174 1.203 . S
O176 C169 1.185 . S
O176 Zn172 2.086 . S
C177 O173 1.278 . S
C177 O178 1.211 . S
O178 C177 1.211 . S
C179 O171 1.284 . S
C179 O180 1.273 . S
O180 C179 1.273 . S
O181 Zn172 1.977 . S
O181 C174 1.267 . S
C182 O183 1.160 . S
C182 O189 1.185 . S
O183 C182 1.160 . S
O184 Zn185 1.899 . S
O184 C192 1.284 . S
Zn185 O184 1.899 . S
Zn185 O186 2.032 . S
Zn185 O189 2.086 . S
Zn185 O194 1.977 . S
O186 Zn185 2.032 . S
O186 C190 1.278 . S
C187 O188 1.203 . S
C187 O194 1.267 . S
O188 C187 1.203 . S
O189 C182 1.185 . S
O189 Zn185 2.086 . S
C190 O186 1.278 . S
C190 O191 1.211 . S
O191 C190 1.211 . S
C192 O184 1.284 . S
C192 O193 1.273 . S
O193 C192 1.273 . S
O194 Zn185 1.977 . S
O194 C187 1.267 . S
C195 O196 1.160 . S
C195 O202 1.185 . S
O196 C195 1.160 . S
O197 Zn198 1.899 . S
O197 C205 1.284 . S
Zn198 O197 1.899 . S
Zn198 O199 2.032 . S
Zn198 O202 2.086 . S
Zn198 O207 1.977 . S
O199 Zn198 2.032 . S
O199 C203 1.278 . S
C200 O201 1.203 . S
C200 O207 1.267 . S
O201 C200 1.203 . S
O202 C195 1.185 . S
O202 Zn198 2.086 . S
C203 O199 1.278 . S
C203 O204 1.211 . S
O204 C203 1.211 . S
C205 O197 1.284 . S
C205 O206 1.273 . S
O206 C205 1.273 . S
O207 Zn198 1.977 . S
O207 C200 1.267 . S
C208 O209 1.160 . S
C208 O215 1.185 . S
O209 C208 1.160 . S
O210 Zn211 1.899 . S
O210 C218 1.284 . S
Zn211 O210 1.899 . S
Zn211 O212 2.032 . S
Zn211 O215 2.086 . S
Zn211 O220 1.977 . S
O212 Zn211 2.032 . S
O212 C216 1.278 . S
C213 O214 1.203 . S
C213 O220 1.267 . S
O214 C213 1.203 . S
O215 C208 1.185 . S
O215 Zn211 2.086 . S
C216 O212 1.278 . S
C216 O217 1.211 . S
O217 C216 1.211 . S
C218 O210 1.284 . S
C218 O219 1.273 . S
O219 C218 1.273 . S
O220 Zn211 1.977 . S
O220 C213 1.267 . S
C221 O222 1.160 . S
C221 O228 1.185 . S
O222 C221 1.160 . S
O223 Zn224 1.899 . S
O223 C231 1.284 . S
Zn224 O223 1.899 . S
Zn224 O225 2.032 . S
Zn224 O228 2.086 . S
Zn224 O233 1.977 . S
O225 Zn224 2.032 . S
O225 C229 1.278 . S
C226 O227 1.203 . S
C226 O233 1.267 . S
O227 C226 1.203 . S
O228 C221 1.185 . S
O228 Zn224 2.086 . S
C229 O225 1.278 . S
C229 O230 1.211 . S
O230 C229 1.211 . S
C231 O223 1.284 . S
C231 O232 1.273 . S
O232 C231 1.273 . S
O233 Zn224 1.977 . S
O233 C226 1.267 . S
C234 O235 1.160 . S
C234 O241 1.185 . S
O235 C234 1.160 . S
O236 Zn237 1.899 . S
O236 C244 1.284 . S
Zn237 O236 1.899 . S
Zn237 O238 2.032 . S
Zn237 O241 2.086 . S
Zn237 O246 1.977 . S
O238 Zn237 2.032 . S
O238 C242 1.278 . S
C239 O240 1.203 . S
C239 O246 1.267 . S
O240 C239 1.203 . S
O241 C234 1.185 . S
O241 Zn237 2.086 . S
C242 O238 1.278 . S
C242 O243 1.211 . S
O243 C242 1.211 . S
C244 O236 1.284 . S
C244 O245 1.273 . S
O245 C244 1.273 . S
O246 Zn237 1.977 . S
O246 C239 1.267 . S
C247 O248 1.160 . S
C247 O254 1.185 . S
O248 C247 1.160 . S
O249 Zn250 1.899 . S
O249 C257 1.284 . S
Zn250 O249 1.899 . S
Zn250 O251 2.032 . S
Zn250 O254 2.086 . S
Zn250 O259 1.977 . S
O251 Zn250 2.032 . S
O251 C255 1.278 . S
C252 O253 1.203 . S
C252 O259 1.267 . S
O253 C252 1.203 . S
O254 C247 1.185 . S
O254 Zn250 2.086 . S
C255 O251 1.278 . S
C255 O256 1.211 . S
O256 C255 1.211 . S
C257 O249 1.284 . S
C257 O258 1.273 . S
O258 C257 1.273 . S
O259 Zn250 1.977 . S
O259 C252 1.267 . S
C260 O261 1.160 . S
C260 O267 1.185 . S
O261 C260 1.160 . S
O262 Zn263 1.899 . S
O262 C270 1.284 . S
Zn263 O262 1.899 . S
Zn263 O264 2.032 . S
Zn263 O267 2.086 . S
Zn263 O272 1.977 . S
O264 Zn263 2.032 . S
O264 C268 1.278 . S
C265 O266 1.203 . S
C265 O272 1.267 . S
O266 C265 1.203 . S
O267 C260 1.185 . S
O267 Zn263 2.086 . S
C268 O264 1.278 . S
C268 O269 1.211 . S
O269 C268 1.211 . S
C270 O262 1.284 . S
C270 O271 1.273 . S
O271 C270 1.273 . S
O272 Zn263 1.977 . S
O272 C265 1.267 . S
C273 O274 1.160 . S
C273 O280 1.185 . S
O274 C273 1.160 . S
O275 Zn276 1.899 . S
O275 C283 1.284 . S
Zn276 O275 1.899 . S
Zn276 O277 2.032 . S
Zn276 O280 2.086 . S
Zn276 O285 1.977 . S
O277 Zn276 2.032 . S
O277 C281 1.278 . S
C278 O279 1.203 . S
C278 O285 1.267 . S
O279 C278 1.203 . S
O280 C273 1.185 . S
O280 Zn276 2.086 . S
C281 O277 1.278 . S
C281 O282 1.211 . S
O282 C281 1.211 . S
C283 O275 1.284 . S
C283 O284 1.273 . S
O284 C283 1.273 . S
O285 Zn276 1.977 . S
O285 C278 1.267 . S
C286 O287 1.160 . S
C286 O293 1.185 . S
O287 C286 1.160 . S
O288 Zn289 1.899 . S
O288 C296 1.284 . S
Zn289 O288 1.899 . S
Zn289 O290 2.032 . S
Zn289 O293 2.086 . S
Zn289 O298 1.977 . S
O290 Zn289 2.032 . S
O290 C294 1.278 . S
C291 O292 1.203 . S
C291 O298 1.267 . S
O292 C291 1.203 . S
O293 C286 1.185 . S
O293 Zn289 2.086 . S
C294 O290 1.278 . S
C294 O295 1.211 . S
O295 C294 1.211 . S
C296 O288 1.284 . S
C296 O297 1.273 . S
O297 C296 1.273 . S
O298 Zn289 1.977 . S
O298 C291 1.267 . S
C299 O300 1.160 . S
C299 O306 1.185 . S
O300 C299 1.160 . S
O301 Zn302 1.899 . S
O301 C309 1.284 . S
Zn302 O301 1.899 . S
Zn302 O303 2.032 . S
Zn302 O306 2.086 . S
Zn302 O311 1.977 . S
O303 Zn302 2.032 . S
O303 C307 1.278 . S
C304 O305 1.203 . S
C304 O311 1.267 . S
O305 C304 1.203 . S
O306 C299 1.185 . S
O306 Zn302 2.086 . S
C307 O303 1.278 . S
C307 O308 1.211 . S
O308 C307 1.211 . S
C309 O301 1.284 . S
C309 O310 1.273 . S
O310 C309 1.273 . S
O311 Zn302 1.977 . S
O311 C304 1.267 . S
C312 C313 1.349 . S
C312 C314 1.327 . S
C312 H337 0.950 . S
C313 C312 1.349 . S
C313 C329 1.349 . S
C314 C312 1.327 . S
C314 C333 1.429 . S
C314 H338 0.950 . S
C315 C332 1.574 . S
C315 C334 1.368 . S
C315 H339 0.949 . S
H316 C320 0.949 . S
C317 C318 1.349 . S
C317 C319 1.327 . S
C317 H340 0.950 . S
C318 C317 1.349 . S
C318 C330 1.349 . S
C319 C317 1.327 . S
C319 C335 1.429 . S
C319 H341 0.950 . S
C320 H316 0.949 . S
C320 C328 1.574 . S
C320 C336 1.368 . S
H321 C329 0.950 . S
H322 C327 0.950 . S
H323 C328 0.949 . S
H324 C330 0.950 . S
H325 C331 0.950 . S
H326 C332 0.949 . S
C327 H322 0.950 . S
C327 C329 1.327 . S
C327 C333 1.429 . S
C328 C320 1.574 . S
C328 H323 0.949 . S
C328 C334 1.368 . S
C329 C313 1.349 . S
C329 H321 0.950 . S
C329 C327 1.327 . S
C330 C318 1.349 . S
C330 H324 0.950 . S
C330 C331 1.327 . S
C331 H325 0.950 . S
C331 C330 1.327 . S
C331 C335 1.429 . S
C332 C315 1.574 . S
C332 H326 0.949 . S
C332 C336 1.368 . S
C333 C314 1.429 . S
C333 C327 1.429 . S
C333 C334 1.523 . S
C334 C315 1.368 . S
C334 C328 1.368 . S
C334 C333 1.523 . S
C335 C319 1.429 . S
C335 C331 1.429 . S
C335 C336 1.523 . S
C336 C320 1.368 . S
C336 C332 1.368 . S
C336 C335 1.523 . S
H337 C312 0.950 . S
H338 C314 0.950 . S
H339 C315 0.949 . S
H340 C317 0.950 . S
H341 C319 0.950 . S
C342 C343 1.349 . S
C342 C344 1.327 . S
C342 H367 0.950 . S
C343 C342 1.349 . S
C343 C359 1.349 . S
C344 C342 1.327 . S
C344 C363 1.429 . S
C344 H368 0.950 . S
C345 C362 1.574 . S
C345 C364 1.368 . S
C345 H369 0.949 . S
H346 C350 0.949 . S
C347 C348 1.349 . S
C347 C349 1.327 . S
C347 H370 0.950 . S
C348 C347 1.349 . S
C348 C360 1.349 . S
C349 C347 1.327 . S
C349 C365 1.429 . S
C349 H371 0.950 . S
C350 H346 0.949 . S
C350 C358 1.574 . S
C350 C366 1.368 . S
H351 C359 0.950 . S
H352 C357 0.950 . S
H353 C358 0.949 . S
H354 C360 0.950 . S
H355 C361 0.950 . S
H356 C362 0.949 . S
C357 H352 0.950 . S
C357 C359 1.327 . S
C357 C363 1.429 . S
C358 C350 1.574 . S
C358 H353 0.949 . S
C358 C364 1.368 . S
C359 C343 1.349 . S
C359 H351 0.950 . S
C359 C357 1.327 . S
C360 C348 1.349 . S
C360 H354 0.950 . S
C360 C361 1.327 . S
C361 H355 0.950 . S
C361 C360 1.327 . S
C361 C365 1.429 . S
C362 C345 1.574 . S
C362 H356 0.949 . S
C362 C366 1.368 . S
C363 C344 1.429 . S
C363 C357 1.429 . S
C363 C364 1.523 . S
C364 C345 1.368 . S
C364 C358 1.368 . S
C364 C363 1.523 . S
C365 C349 1.429 . S
C365 C361 1.429 . S
C365 C366 1.523 . S
C366 C350 1.368 . S
C366 C362 1.368 . S
C366 C365 1.523 . S
H367 C342 0.950 . S
H368 C344 0.950 . S
H369 C345 0.949 . S
H370 C347 0.950 . S
H371 C349 0.950 . S
C372 C373 1.349 . S
C372 C374 1.327 . S
C372 H397 0.950 . S
C373 C372 1.349 . S
C373 C389 1.349 . S
C374 C372 1.327 . S
C374 C393 1.429 . S
C374 H398 0.950 . S
C375 C392 1.574 . S
C375 C394 1.368 . S
C375 H399 0.949 . S
H376 C380 0.949 . S
C377 C378 1.349 . S
C377 C379 1.327 . S
C377 H400 0.950 . S
C378 C377 1.349 . S
C378 C390 1.349 . S
C379 C377 1.327 . S
C379 C395 1.429 . S
C379 H401 0.950 . S
C380 H376 0.949 . S
C380 C388 1.574 . S
C380 C396 1.368 . S
H381 C389 0.950 . S
H382 C387 0.950 . S
H383 C388 0.949 . S
H384 C390 0.950 . S
H385 C391 0.950 . S
H386 C392 0.949 . S
C387 H382 0.950 . S
C387 C389 1.327 . S
C387 C393 1.429 . S
C388 C380 1.574 . S
C388 H383 0.949 . S
C388 C394 1.368 . S
C389 C373 1.349 . S
C389 H381 0.950 . S
C389 C387 1.327 . S
C390 C378 1.349 . S
C390 H384 0.950 . S
C390 C391 1.327 . S
C391 H385 0.950 . S
C391 C390 1.327 . S
C391 C395 1.429 . S
C392 C375 1.574 . S
C392 H386 0.949 . S
C392 C396 1.368 . S
C393 C374 1.429 . S
C393 C387 1.429 . S
C393 C394 1.523 . S
C394 C375 1.368 . S
C394 C388 1.368 . S
C394 C393 1.523 . S
C395 C379 1.429 . S
C395 C391 1.429 . S
C395 C396 1.523 . S
C396 C380 1.368 . S
C396 C392 1.368 . S
C396 C395 1.523 . S
H397 C372 0.950 . S
H398 C374 0.950 . S
H399 C375 0.949 . S
H400 C377 0.950 . S
H401 C379 0.950 . S
C402 C403 1.349 . S
C402 C404 1.327 . S
C402 H427 0.950 . S
C403 C402 1.349 . S
C403 C419 1.349 . S
C404 C402 1.327 . S
C404 C423 1.429 . S
C404 H428 0.950 . S
C405 C422 1.574 . S
C405 C424 1.368 . S
C405 H429 0.949 . S
H406 C410 0.949 . S
C407 C408 1.349 . S
C407 C409 1.327 . S
C407 H430 0.950 . S
C408 C407 1.349 . S
C408 C420 1.349 . S
C409 C407 1.327 . S
C409 C425 1.429 . S
C409 H431 0.950 . S
C410 H406 0.949 . S
C410 C418 1.574 . S
C410 C426 1.368 . S
H411 C419 0.950 . S
H412 C417 0.950 . S
H413 C418 0.949 . S
H414 C420 0.950 . S
H415 C421 0.950 . S
H416 C422 0.949 . S
C417 H412 0.950 . S
C417 C419 1.327 . S
C417 C423 1.429 . S
C418 C410 1.574 . S
C418 H413 0.949 . S
C418 C424 1.368 . S
C419 C403 1.349 . S
C419 H411 0.950 . S
C419 C417 1.327 . S
C420 C408 1.349 . S
C420 H414 0.950 . S
C420 C421 1.327 . S
C421 H415 0.950 . S
C421 C420 1.327 . S
C421 C425 1.429 . S
C422 C405 1.574 . S
C422 H416 0.949 . S
C422 C426 1.368 . S
C423 C404 1.429 . S
C423 C417 1.429 . S
C423 C424 1.523 . S
C424 C405 1.368 . S
C424 C418 1.368 . S
C424 C423 1.523 . S
C425 C409 1.429 . S
C425 C421 1.429 . S
C425 C426 1.523 . S
C426 C410 1.368 . S
C426 C422 1.368 . S
C426 C425 1.523 . S
H427 C402 0.950 . S
H428 C404 0.950 . S
H429 C405 0.949 . S
H430 C407 0.950 . S
H431 C409 0.950 . S
C432 C433 1.349 . S
C432 C434 1.327 . S
C432 H457 0.950 . S
C433 C432 1.349 . S
C433 C449 1.349 . S
C434 C432 1.327 . S
C434 C453 1.429 . S
C434 H458 0.950 . S
C435 C452 1.574 . S
C435 C454 1.368 . S
C435 H459 0.949 . S
H436 C440 0.949 . S
C437 C438 1.349 . S
C437 C439 1.327 . S
C437 H460 0.950 . S
C438 C437 1.349 . S
C438 C450 1.349 . S
C439 C437 1.327 . S
C439 C455 1.429 . S
C439 H461 0.950 . S
C440 H436 0.949 . S
C440 C448 1.574 . S
C440 C456 1.368 . S
H441 C449 0.950 . S
H442 C447 0.950 . S
H443 C448 0.949 . S
H444 C450 0.950 . S
H445 C451 0.950 . S
H446 C452 0.949 . S
C447 H442 0.950 . S
C447 C449 1.327 . S
C447 C453 1.429 . S
C448 C440 1.574 . S
C448 H443 0.949 . S
C448 C454 1.368 . S
C449 C433 1.349 . S
C449 H441 0.950 . S
C449 C447 1.327 . S
C450 C438 1.349 . S
C450 H444 0.950 . S
C450 C451 1.327 . S
C451 H445 0.950 . S
C451 C450 1.327 . S
C451 C455 1.429 . S
C452 C435 1.574 . S
C452 H446 0.949 . S
C452 C456 1.368 . S
C453 C434 1.429 . S
C453 C447 1.429 . S
C453 C454 1.523 . S
C454 C435 1.368 . S
C454 C448 1.368 . S
C454 C453 1.523 . S
C455 C439 1.429 . S
C455 C451 1.429 . S
C455 C456 1.523 . S
C456 C440 1.368 . S
C456 C452 1.368 . S
C456 C455 1.523 . S
H457 C432 0.950 . S
H458 C434 0.950 . S
H459 C435 0.949 . S
H460 C437 0.950 . S
H461 C439 0.950 . S
C462 C463 1.349 . S
C462 C464 1.327 . S
C462 H487 0.950 . S
C463 C462 1.349 . S
C463 C479 1.349 . S
C464 C462 1.327 . S
C464 C483 1.429 . S
C464 H488 0.950 . S
C465 C482 1.574 . S
C465 C484 1.368 . S
C465 H489 0.949 . S
H466 C470 0.949 . S
C467 C468 1.349 . S
C467 C469 1.327 . S
C467 H490 0.950 . S
C468 C467 1.349 . S
C468 C480 1.349 . S
C469 C467 1.327 . S
C469 C485 1.429 . S
C469 H491 0.950 . S
C470 H466 0.949 . S
C470 C478 1.574 . S
C470 C486 1.368 . S
H471 C479 0.950 . S
H472 C477 0.950 . S
H473 C478 0.949 . S
H474 C480 0.950 . S
H475 C481 0.950 . S
H476 C482 0.949 . S
C477 H472 0.950 . S
C477 C479 1.327 . S
C477 C483 1.429 . S
C478 C470 1.574 . S
C478 H473 0.949 . S
C478 C484 1.368 . S
C479 C463 1.349 . S
C479 H471 0.950 . S
C479 C477 1.327 . S
C480 C468 1.349 . S
C480 H474 0.950 . S
C480 C481 1.327 . S
C481 H475 0.950 . S
C481 C480 1.327 . S
C481 C485 1.429 . S
C482 C465 1.574 . S
C482 H476 0.949 . S
C482 C486 1.368 . S
C483 C464 1.429 . S
C483 C477 1.429 . S
C483 C484 1.523 . S
C484 C465 1.368 . S
C484 C478 1.368 . S
C484 C483 1.523 . S
C485 C469 1.429 . S
C485 C481 1.429 . S
C485 C486 1.523 . S
C486 C470 1.368 . S
C486 C482 1.368 . S
C486 C485 1.523 . S
H487 C462 0.950 . S
H488 C464 0.950 . S
H489 C465 0.949 . S
H490 C467 0.950 . S
H491 C469 0.950 . S
C492 C493 1.349 . S
C492 C494 1.327 . S
C492 H517 0.950 . S
C493 C492 1.349 . S
C493 C509 1.349 . S
C494 C492 1.327 . S
C494 C513 1.429 . S
C494 H518 0.950 . S
C495 C512 1.574 . S
C495 C514 1.368 . S
C495 H519 0.949 . S
H496 C500 0.949 . S
C497 C498 1.349 . S
C497 C499 1.327 . S
C497 H520 0.950 . S
C498 C497 1.349 . S
C498 C510 1.349 . S
C499 C497 1.327 . S
C499 C515 1.429 . S
C499 H521 0.950 . S
C500 H496 0.949 . S
C500 C508 1.574 . S
C500 C516 1.368 . S
H501 C509 0.950 . S
H502 C507 0.950 . S
H503 C508 0.949 . S
H504 C510 0.950 . S
H505 C511 0.950 . S
H506 C512 0.949 . S
C507 H502 0.950 . S
C507 C509 1.327 . S
C507 C513 1.429 . S
C508 C500 1.574 . S
C508 H503 0.949 . S
C508 C514 1.368 . S
C509 C493 1.349 . S
C509 H501 0.950 . S
C509 C507 1.327 . S
C510 C498 1.349 . S
C510 H504 0.950 . S
C510 C511 1.327 . S
C511 H505 0.950 . S
C511 C510 1.327 . S
C511 C515 1.429 . S
C512 C495 1.574 . S
C512 H506 0.949 . S
C512 C516 1.368 . S
C513 C494 1.429 . S
C513 C507 1.429 . S
C513 C514 1.523 . S
C514 C495 1.368 . S
C514 C508 1.368 . S
C514 C513 1.523 . S
C515 C499 1.429 . S
C515 C511 1.429 . S
C515 C516 1.523 . S
C516 C500 1.368 . S
C516 C512 1.368 . S
C516 C515 1.523 . S
H517 C492 0.950 . S
H518 C494 0.950 . S
H519 C495 0.949 . S
H520 C497 0.950 . S
H521 C499 0.950 . S
C522 C523 1.349 . S
C522 C524 1.327 . S
C522 H547 0.950 . S
C523 C522 1.349 . S
C523 C539 1.349 . S
C524 C522 1.327 . S
C524 C543 1.429 . S
C524 H548 0.950 . S
C525 C542 1.574 . S
C525 C544 1.368 . S
C525 H549 0.949 . S
H526 C530 0.949 . S
C527 C528 1.349 . S
C527 C529 1.327 . S
C527 H550 0.950 . S
C528 C527 1.349 . S
C528 C540 1.349 . S
C529 C527 1.327 . S
C529 C545 1.429 . S
C529 H551 0.950 . S
C530 H526 0.949 . S
C530 C538 1.574 . S
C530 C546 1.368 . S
H531 C539 0.950 . S
H532 C537 0.950 . S
H533 C538 0.949 . S
H534 C540 0.950 . S
H535 C541 0.950 . S
H536 C542 0.949 . S
C537 H532 0.950 . S
C537 C539 1.327 . S
C537 C543 1.429 . S
C538 C530 1.574 . S
C538 H533 0.949 . S
C538 C544 1.368 . S
C539 C523 1.349 . S
C539 H531 0.950 . S
C539 C537 1.327 . S
C540 C528 1.349 . S
C540 H534 0.950 . S
C540 C541 1.327 . S
C541 H535 0.950 . S
C541 C540 1.327 . S
C541 C545 1.429 . S
C542 C525 1.574 . S
C542 H536 0.949 . S
C542 C546 1.368 . S
C543 C524 1.429 . S
C543 C537 1.429 . S
C543 C544 1.523 . S
C544 C525 1.368 . S
C544 C538 1.368 . S
C544 C543 1.523 . S
C545 C529 1.429 . S
C545 C541 1.429 . S
C545 C546 1.523 . S
C546 C530 1.368 . S
C546 C542 1.368 . S
C546 C545 1.523 . S
H547 C522 0.950 . S
H548 C524 0.950 . S
H549 C525 0.949 . S
H550 C527 0.950 . S
H551 C529 0.950 . S
C552 C553 1.349 . S
C552 C554 1.327 . S
C552 H577 0.950 . S
C553 C552 1.349 . S
C553 C569 1.349 . S
C554 C552 1.327 . S
C554 C573 1.429 . S
C554 H578 0.950 . S
C555 C572 1.574 . S
C555 C574 1.368 . S
C555 H579 0.949 . S
H556 C560 0.949 . S
C557 C558 1.349 . S
C557 C559 1.327 . S
C557 H580 0.950 . S
C558 C557 1.349 . S
C558 C570 1.349 . S
C559 C557 1.327 . S
C559 C575 1.429 . S
C559 H581 0.950 . S
C560 H556 0.949 . S
C560 C568 1.574 . S
C560 C576 1.368 . S
H561 C569 0.950 . S
H562 C567 0.950 . S
H563 C568 0.949 . S
H564 C570 0.950 . S
H565 C571 0.950 . S
H566 C572 0.949 . S
C567 H562 0.950 . S
C567 C569 1.327 . S
C567 C573 1.429 . S
C568 C560 1.574 . S
C568 H563 0.949 . S
C568 C574 1.368 . S
C569 C553 1.349 . S
C569 H561 0.950 . S
C569 C567 1.327 . S
C570 C558 1.349 . S
C570 H564 0.950 . S
C570 C571 1.327 . S
C571 H565 0.950 . S
C571 C570 1.327 . S
C571 C575 1.429 . S
C572 C555 1.574 . S
C572 H566 0.949 . S
C572 C576 1.368 . S
C573 C554 1.429 . S
C573 C567 1.429 . S
C573 C574 1.523 . S
C574 C555 1.368 . S
C574 C568 1.368 . S
C574 C573 1.523 . S
C575 C559 1.429 . S
C575 C571 1.429 . S
C575 C576 1.523 . S
C576 C560 1.368 . S
C576 C572 1.368 . S
C576 C575 1.523 . S
H577 C552 0.950 . S
H578 C554 0.950 . S
H579 C555 0.949 . S
H580 C557 0.950 . S
H581 C559 0.950 . S
C582 C583 1.349 . S
C582 C584 1.327 . S
C582 H607 0.950 . S
C583 C582 1.349 . S
C583 C599 1.349 . S
C584 C582 1.327 . S
C584 C603 1.429 . S
C584 H608 0.950 . S
C585 C602 1.574 . S
C585 C604 1.368 . S
C585 H609 0.949 . S
H586 C590 0.949 . S
C587 C588 1.349 . S
C587 C589 1.327 . S
C587 H610 0.950 . S
C588 C587 1.349 . S
C588 C600 1.349 . S
C589 C587 1.327 . S
C589 C605 1.429 . S
C589 H611 0.950 . S
C590 H586 0.949 . S
C590 C598 1.574 . S
C590 C606 1.368 . S
H591 C599 0.950 . S
H592 C597 0.950 . S
H593 C598 0.949 . S
H594 C600 0.950 . S
H595 C601 0.950 . S
H596 C602 0.949 . S
C597 H592 0.950 . S
C597 C599 1.327 . S
C597 C603 1.429 . S
C598 C590 1.574 . S
C598 H593 0.949 . S
C598 C604 1.368 . S
C599 C583 1.349 . S
C599 H591 0.950 . S
C599 C597 1.327 . S
C600 C588 1.349 . S
C600 H594 0.950 . S
C600 C601 1.327 . S
C601 H595 0.950 . S
C601 C600 1.327 . S
C601 C605 1.429 . S
C602 C585 1.574 . S
C602 H596 0.949 . S
C602 C606 1.368 . S
C603 C584 1.429 . S
C603 C597 1.429 . S
C603 C604 1.523 . S
C604 C585 1.368 . S
C604 C598 1.368 . S
C604 C603 1.523 . S
C605 C589 1.429 . S
C605 C601 1.429 . S
C605 C606 1.523 . S
C606 C590 1.368 . S
C606 C602 1.368 . S
C606 C605 1.523 . S
H607 C582 0.950 . S
H608 C584 0.950 . S
H609 C585 0.949 . S
H610 C587 0.950 . S
H611 C589 0.950 . S
C612 C613 1.349 . S
C612 C614 1.327 . S
C612 H637 0.950 . S
C613 C612 1.349 . S
C613 C629 1.349 . S
C614 C612 1.327 . S
C614 C633 1.429 . S
C614 H638 0.950 . S
C615 C632 1.574 . S
C615 C634 1.368 . S
C615 H639 0.949 . S
H616 C620 0.949 . S
C617 C618 1.349 . S
C617 C619 1.327 . S
C617 H640 0.950 . S
C618 C617 1.349 . S
C618 C630 1.349 . S
C619 C617 1.327 . S
C619 C635 1.429 . S
C619 H641 0.950 . S
C620 H616 0.949 . S
C620 C628 1.574 . S
C620 C636 1.368 . S
H621 C629 0.950 . S
H622 C627 0.950 . S
H623 C628 0.949 . S
H624 C630 0.950 . S
H625 C631 0.950 . S
H626 C632 0.949 . S
C627 H622 0.950 . S
C627 C629 1.327 . S
C627 C633 1.429 . S
C628 C620 1.574 . S
C628 H623 0.949 . S
C628 C634 1.368 . S
C629 C613 1.349 . S
C629 H621 0.950 . S
C629 C627 1.327 . S
C630 C618 1.349 . S
C630 H624 0.950 . S
C630 C631 1.327 . S
C631 H625 0.950 . S
C631 C630 1.327 . S
C631 C635 1.429 . S
C632 C615 1.574 . S
C632 H626 0.949 . S
C632 C636 1.368 . S
C633 C614 1.429 . S
C633 C627 1.429 . S
C633 C634 1.523 . S
C634 C615 1.368 . S
C634 C628 1.368 . S
C634 C633 1.523 . S
C635 C619 1.429 . S
C635 C631 1.429 . S
C635 C636 1.523 . S
C636 C620 1.368 . S
C636 C632 1.368 . S
C636 C635 1.523 . S
H637 C612 0.950 . S
H638 C614 0.950 . S
H639 C615 0.949 . S
H640 C617 0.950 . S
H641 C619 0.950 . S
C642 C643 1.349 . S
C642 C644 1.327 . S
C642 H667 0.950 . S
C643 C642 1.349 . S
C643 C659 1.349 . S
C644 C642 1.327 . S
C644 C663 1.429 . S
C644 H668 0.950 . S
C645 C662 1.574 . S
C645 C664 1.368 . S
C645 H669 0.949 . S
H646 C650 0.949 . S
C647 C648 1.349 . S
C647 C649 1.327 . S
C647 H670 0.950 . S
C648 C647 1.349 . S
C648 C660 1.349 . S
C649 C647 1.327 . S
C649 C665 1.429 . S
C649 H671 0.950 . S
C650 H646 0.949 . S
C650 C658 1.574 . S
C650 C666 1.368 . S
H651 C659 0.950 . S
H652 C657 0.950 . S
H653 C658 0.949 . S
H654 C660 0.950 . S
H655 C661 0.950 . S
H656 C662 0.949 . S
C657 H652 0.950 . S
C657 C659 1.327 . S
C657 C663 1.429 . S
C658 C650 1.574 . S
C658 H653 0.949 . S
C658 C664 1.368 . S
C659 C643 1.349 . S
C659 H651 0.950 . S
C659 C657 1.327 . S
C660 C648 1.349 . S
C660 H654 0.950 . S
C660 C661 1.327 . S
C661 H655 0.950 . S
C661 C660 1.327 . S
C661 C665 1.429 . S
C662 C645 1.574 . S
C662 H656 0.949 . S
C662 C666 1.368 . S
C663 C644 1.429 . S
C663 C657 1.429 . S
C663 C664 1.523 . S
C664 C645 1.368 . S
C664 C658 1.368 . S
C664 C663 1.523 . S
C665 C649 1.429 . S
C665 C661 1.429 . S
C665 C666 1.523 . S
C666 C650 1.368 . S
C666 C662 1.368 . S
C666 C665 1.523 . S
H667 C642 0.950 . S
H668 C644 0.950 . S
H669 C645 0.949 . S
H670 C647 0.950 . S
H671 C649 0.950 . S
C672 C673 1.349 . S
C672 C674 1.327 . S
C672 H697 0.950 . S
C673 C672 1.349 . S
C673 C689 1.349 . S
C674 C672 1.327 . S
C674 C693 1.429 . S
C674 H698 0.950 . S
C675 C692 1.574 . S
C675 C694 1.368 1_554 S
C675 H699 0.949 . S
H676 C680 0.949 . S
C677 C678 1.349 . S
C677 C679 1.327 . S
C677 H700 0.950 . S
C678 C677 1.349 . S
C678 C690 1.349 . S
C679 C677 1.327 . S
C679 C695 1.429 . S
C679 H701 0.950 . S
C680 H676 0.949 . S
C680 C688 1.574 . S
C680 C696 1.368 1_556 S
H681 C689 0.950 . S
H682 C687 0.950 . S
H683 C688 0.949 . S
H684 C690 0.950 . S
H685 C691 0.950 . S
H686 C692 0.949 . S
C687 H682 0.950 . S
C687 C689 1.327 . S
C687 C693 1.429 . S
C688 C680 1.574 . S
C688 H683 0.949 . S
C688 C694 1.368 . S
C689 C673 1.349 . S
C689 H681 0.950 . S
C689 C687 1.327 . S
C690 C678 1.349 . S
C690 H684 0.950 . S
C690 C691 1.327 . S
C691 H685 0.950 . S
C691 C690 1.327 . S
C691 C695 1.429 . S
C692 C675 1.574 . S
C692 H686 0.949 . S
C692 C696 1.368 . S
C693 C674 1.429 . S
C693 C687 1.429 . S
C693 C694 1.523 . S
C694 C675 1.368 1_556 S
C694 C688 1.368 . S
C694 C693 1.523 . S
C695 C679 1.429 . S
C695 C691 1.429 . S
C695 C696 1.523 . S
C696 C680 1.368 1_554 S
C696 C692 1.368 . S
C696 C695 1.523 . S
H697 C672 0.950 . S
H698 C674 0.950 . S
H699 C675 0.949 . S
H700 C677 0.950 . S
H701 C679 0.950 . S
C702 C703 1.349 . S
C702 C704 1.327 . S
C702 H727 0.950 . S
C703 C702 1.349 . S
C703 C719 1.349 . S
C704 C702 1.327 . S
C704 C723 1.429 . S
C704 H728 0.950 . S
C705 C722 1.574 . S
C705 C724 1.368 . S
C705 H729 0.949 . S
H706 C710 0.949 . S
C707 C708 1.349 . S
C707 C709 1.327 . S
C707 H730 0.950 . S
C708 C707 1.349 . S
C708 C720 1.349 . S
C709 C707 1.327 . S
C709 C725 1.429 . S
C709 H731 0.950 . S
C710 H706 0.949 . S
C710 C718 1.574 . S
C710 C726 1.368 . S
H711 C719 0.950 . S
H712 C717 0.950 . S
H713 C718 0.949 . S
H714 C720 0.950 . S
H715 C721 0.950 . S
H716 C722 0.949 . S
C717 H712 0.950 . S
C717 C719 1.327 . S
C717 C723 1.429 . S
C718 C710 1.574 . S
C718 H713 0.949 . S
C718 C724 1.368 . S
C719 C703 1.349 . S
C719 H711 0.950 . S
C719 C717 1.327 . S
C720 C708 1.349 . S
C720 H714 0.950 . S
C720 C721 1.327 . S
C721 H715 0.950 . S
C721 C720 1.327 . S
C721 C725 1.429 . S
C722 C705 1.574 . S
C722 H716 0.949 . S
C722 C726 1.368 . S
C723 C704 1.429 . S
C723 C717 1.429 . S
C723 C724 1.523 . S
C724 C705 1.368 . S
C724 C718 1.368 . S
C724 C723 1.523 . S
C725 C709 1.429 . S
C725 C721 1.429 . S
C725 C726 1.523 . S
C726 C710 1.368 . S
C726 C722 1.368 . S
C726 C725 1.523 . S
H727 C702 0.950 . S
H728 C704 0.950 . S
H729 C705 0.949 . S
H730 C707 0.950 . S
H731 C709 0.950 . S
C732 C733 1.349 . S
C732 C734 1.327 . S
C732 H757 0.950 . S
C733 C732 1.349 . S
C733 C749 1.349 . S
C734 C732 1.327 . S
C734 C753 1.429 . S
C734 H758 0.950 1_554 S
C735 C752 1.574 . S
C735 C754 1.368 . S
C735 H759 0.949 . S
H736 C740 0.949 . S
C737 C738 1.349 . S
C737 C739 1.327 . S
C737 H760 0.950 . S
C738 C737 1.349 . S
C738 C750 1.349 . S
C739 C737 1.327 . S
C739 C755 1.429 . S
C739 H761 0.950 1_556 S
C740 H736 0.949 . S
C740 C748 1.574 . S
C740 C756 1.368 . S
H741 C749 0.950 . S
H742 C747 0.950 . S
H743 C748 0.949 . S
H744 C750 0.950 . S
H745 C751 0.950 . S
H746 C752 0.949 . S
C747 H742 0.950 . S
C747 C749 1.327 . S
C747 C753 1.429 . S
C748 C740 1.574 . S
C748 H743 0.949 . S
C748 C754 1.368 1_556 S
C749 C733 1.349 . S
C749 H741 0.950 . S
C749 C747 1.327 . S
C750 C738 1.349 . S
C750 H744 0.950 . S
C750 C751 1.327 . S
C751 H745 0.950 . S
C751 C750 1.327 . S
C751 C755 1.429 . S
C752 C735 1.574 . S
C752 H746 0.949 . S
C752 C756 1.368 1_554 S
C753 C734 1.429 . S
C753 C747 1.429 . S
C753 C754 1.523 . S
C754 C735 1.368 . S
C754 C748 1.368 1_554 S
C754 C753 1.523 . S
C755 C739 1.429 . S
C755 C751 1.429 . S
C755 C756 1.523 . S
C756 C740 1.368 . S
C756 C752 1.368 1_556 S
C756 C755 1.523 . S
H757 C732 0.950 . S
H758 C734 0.950 1_556 S
H759 C735 0.949 . S
H760 C737 0.950 . S
H761 C739 0.950 1_554 S
C762 C763 1.349 . S
C762 C764 1.327 . S
C762 H787 0.950 . S
C763 C762 1.349 . S
C763 C779 1.349 . S
C764 C762 1.327 . S
C764 C783 1.429 . S
C764 H788 0.950 . S
C765 C782 1.574 . S
C765 C784 1.368 . S
C765 H789 0.949 . S
H766 C770 0.949 . S
C767 C768 1.349 . S
C767 C769 1.327 . S
C767 H790 0.950 . S
C768 C767 1.349 . S
C768 C780 1.349 . S
C769 C767 1.327 . S
C769 C785 1.429 . S
C769 H791 0.950 . S
C770 H766 0.949 . S
C770 C778 1.574 . S
C770 C786 1.368 . S
H771 C779 0.950 . S
H772 C777 0.950 . S
H773 C778 0.949 . S
H774 C780 0.950 . S
H775 C781 0.950 . S
H776 C782 0.949 . S
C777 H772 0.950 . S
C777 C779 1.327 . S
C777 C783 1.429 . S
C778 C770 1.574 . S
C778 H773 0.949 . S
C778 C784 1.368 . S
C779 C763 1.349 . S
C779 H771 0.950 . S
C779 C777 1.327 . S
C780 C768 1.349 . S
C780 H774 0.950 . S
C780 C781 1.327 . S
C781 H775 0.950 . S
C781 C780 1.327 . S
C781 C785 1.429 . S
C782 C765 1.574 . S
C782 H776 0.949 . S
C782 C786 1.368 . S
C783 C764 1.429 . S
C783 C777 1.429 . S
C783 C784 1.523 . S
C784 C765 1.368 . S
C784 C778 1.368 . S
C784 C783 1.523 . S
C785 C769 1.429 . S
C785 C781 1.429 . S
C785 C786 1.523 . S
C786 C770 1.368 . S
C786 C782 1.368 . S
C786 C785 1.523 . S
H787 C762 0.950 . S
H788 C764 0.950 . S
H789 C765 0.949 . S
H790 C767 0.950 . S
H791 C769 0.950 . S
C792 C793 1.349 . S
C792 C794 1.327 . S
C792 H817 0.950 . S
C793 C792 1.349 . S
C793 C809 1.349 . S
C794 C792 1.327 . S
C794 C813 1.429 . S
C794 H818 0.950 1_556 S
C795 C812 1.574 . S
C795 C814 1.368 . S
C795 H819 0.949 . S
H796 C800 0.949 . S
C797 C798 1.349 . S
C797 C799 1.327 . S
C797 H820 0.950 . S
C798 C797 1.349 . S
C798 C810 1.349 . S
C799 C797 1.327 . S
C799 C815 1.429 . S
C799 H821 0.950 1_554 S
C800 H796 0.949 . S
C800 C808 1.574 . S
C800 C816 1.368 . S
H801 C809 0.950 . S
H802 C807 0.950 . S
H803 C808 0.949 . S
H804 C810 0.950 . S
H805 C811 0.950 . S
H806 C812 0.949 . S
C807 H802 0.950 . S
C807 C809 1.327 . S
C807 C813 1.429 . S
C808 C800 1.574 . S
C808 H803 0.949 . S
C808 C814 1.368 1_554 S
C809 C793 1.349 . S
C809 H801 0.950 . S
C809 C807 1.327 . S
C810 C798 1.349 . S
C810 H804 0.950 . S
C810 C811 1.327 . S
C811 H805 0.950 . S
C811 C810 1.327 . S
C811 C815 1.429 . S
C812 C795 1.574 . S
C812 H806 0.949 . S
C812 C816 1.368 1_556 S
C813 C794 1.429 . S
C813 C807 1.429 . S
C813 C814 1.523 . S
C814 C795 1.368 . S
C814 C808 1.368 1_556 S
C814 C813 1.523 . S
C815 C799 1.429 . S
C815 C811 1.429 . S
C815 C816 1.523 . S
C816 C800 1.368 . S
C816 C812 1.368 1_554 S
C816 C815 1.523 . S
H817 C792 0.950 . S
H818 C794 0.950 1_554 S
H819 C795 0.949 . S
H820 C797 0.950 . S
H821 C799 0.950 1_556 S
C822 C823 1.349 . S
C822 C824 1.327 . S
C822 H847 0.950 . S
C823 C822 1.349 . S
C823 C839 1.349 . S
C824 C822 1.327 . S
C824 C843 1.429 . S
C824 H848 0.950 . S
C825 C842 1.574 . S
C825 C844 1.368 . S
C825 H849 0.949 . S
H826 C830 0.949 . S
C827 C828 1.349 . S
C827 C829 1.327 . S
C827 H850 0.950 . S
C828 C827 1.349 . S
C828 C840 1.349 . S
C829 C827 1.327 . S
C829 C845 1.429 . S
C829 H851 0.950 . S
C830 H826 0.949 . S
C830 C838 1.574 . S
C830 C846 1.368 . S
H831 C839 0.950 . S
H832 C837 0.950 . S
H833 C838 0.949 . S
H834 C840 0.950 . S
H835 C841 0.950 . S
H836 C842 0.949 . S
C837 H832 0.950 . S
C837 C839 1.327 . S
C837 C843 1.429 . S
C838 C830 1.574 . S
C838 H833 0.949 . S
C838 C844 1.368 . S
C839 C823 1.349 . S
C839 H831 0.950 . S
C839 C837 1.327 . S
C840 C828 1.349 . S
C840 H834 0.950 . S
C840 C841 1.327 . S
C841 H835 0.950 . S
C841 C840 1.327 . S
C841 C845 1.429 . S
C842 C825 1.574 . S
C842 H836 0.949 . S
C842 C846 1.368 . S
C843 C824 1.429 . S
C843 C837 1.429 . S
C843 C844 1.523 . S
C844 C825 1.368 . S
C844 C838 1.368 . S
C844 C843 1.523 . S
C845 C829 1.429 . S
C845 C841 1.429 . S
C845 C846 1.523 . S
C846 C830 1.368 . S
C846 C842 1.368 . S
C846 C845 1.523 . S
H847 C822 0.950 . S
H848 C824 0.950 . S
H849 C825 0.949 . S
H850 C827 0.950 . S
H851 C829 0.950 . S
C852 C853 1.349 . S
C852 C854 1.327 . S
C852 H877 0.950 . S
C853 C852 1.349 . S
C853 C869 1.349 . S
C854 C852 1.327 . S
C854 C873 1.429 . S
C854 H878 0.950 . S
C855 C872 1.574 . S
C855 C874 1.368 . S
C855 H879 0.949 . S
H856 C860 0.949 . S
C857 C858 1.349 . S
C857 C859 1.327 . S
C857 H880 0.950 . S
C858 C857 1.349 . S
C858 C870 1.349 . S
C859 C857 1.327 . S
C859 C875 1.429 . S
C859 H881 0.950 . S
C860 H856 0.949 . S
C860 C868 1.574 . S
C860 C876 1.368 . S
H861 C869 0.950 . S
H862 C867 0.950 . S
H863 C868 0.949 . S
H864 C870 0.950 . S
H865 C871 0.950 . S
H866 C872 0.949 . S
C867 H862 0.950 . S
C867 C869 1.327 . S
C867 C873 1.429 . S
C868 C860 1.574 . S
C868 H863 0.949 . S
C868 C874 1.368 1_556 S
C869 C853 1.349 . S
C869 H861 0.950 . S
C869 C867 1.327 . S
C870 C858 1.349 . S
C870 H864 0.950 . S
C870 C871 1.327 . S
C871 H865 0.950 . S
C871 C870 1.327 . S
C871 C875 1.429 . S
C872 C855 1.574 . S
C872 H866 0.949 . S
C872 C876 1.368 1_554 S
C873 C854 1.429 . S
C873 C867 1.429 . S
C873 C874 1.523 . S
C874 C855 1.368 . S
C874 C868 1.368 1_554 S
C874 C873 1.523 . S
C875 C859 1.429 . S
C875 C871 1.429 . S
C875 C876 1.523 . S
C876 C860 1.368 . S
C876 C872 1.368 1_556 S
C876 C875 1.523 . S
H877 C852 0.950 . S
H878 C854 0.950 . S
H879 C855 0.949 . S
H880 C857 0.950 . S
H881 C859 0.950 . S
C882 C883 1.349 . S
C882 C884 1.327 . S
C882 H907 0.950 . S
C883 C882 1.349 . S
C883 C899 1.349 . S
C884 C882 1.327 . S
C884 C903 1.429 . S
C884 H908 0.950 . S
C885 C902 1.574 . S
C885 C904 1.368 . S
C885 H909 0.949 . S
H886 C890 0.949 . S
C887 C888 1.349 . S
C887 C889 1.327 . S
C887 H910 0.950 . S
C888 C887 1.349 . S
C888 C900 1.349 . S
C889 C887 1.327 . S
C889 C905 1.429 . S
C889 H911 0.950 . S
C890 H886 0.949 . S
C890 C898 1.574 . S
C890 C906 1.368 . S
H891 C899 0.950 . S
H892 C897 0.950 . S
H893 C898 0.949 . S
H894 C900 0.950 . S
H895 C901 0.950 . S
H896 C902 0.949 . S
C897 H892 0.950 . S
C897 C899 1.327 . S
C897 C903 1.429 . S
C898 C890 1.574 . S
C898 H893 0.949 . S
C898 C904 1.368 . S
C899 C883 1.349 . S
C899 H891 0.950 . S
C899 C897 1.327 . S
C900 C888 1.349 . S
C900 H894 0.950 . S
C900 C901 1.327 . S
C901 H895 0.950 . S
C901 C900 1.327 . S
C901 C905 1.429 . S
C902 C885 1.574 . S
C902 H896 0.949 . S
C902 C906 1.368 . S
C903 C884 1.429 . S
C903 C897 1.429 . S
C903 C904 1.523 . S
C904 C885 1.368 . S
C904 C898 1.368 . S
C904 C903 1.523 . S
C905 C889 1.429 . S
C905 C901 1.429 . S
C905 C906 1.523 . S
C906 C890 1.368 . S
C906 C902 1.368 . S
C906 C905 1.523 . S
H907 C882 0.950 . S
H908 C884 0.950 . S
H909 C885 0.949 . S
H910 C887 0.950 . S
H911 C889 0.950 . S
C912 C913 1.349 . S
C912 C914 1.327 . S
C912 H937 0.950 . S
C913 C912 1.349 . S
C913 C929 1.349 . S
C914 C912 1.327 . S
C914 C933 1.429 . S
C914 H938 0.950 . S
C915 C932 1.574 . S
C915 C934 1.368 1_554 S
C915 H939 0.949 . S
H916 C920 0.949 . S
C917 C918 1.349 . S
C917 C919 1.327 . S
C917 H940 0.950 . S
C918 C917 1.349 . S
C918 C930 1.349 . S
C919 C917 1.327 . S
C919 C935 1.429 . S
C919 H941 0.950 . S
C920 H916 0.949 . S
C920 C928 1.574 . S
C920 C936 1.368 1_556 S
H921 C929 0.950 . S
H922 C927 0.950 1_554 S
H923 C928 0.949 . S
H924 C930 0.950 . S
H925 C931 0.950 1_556 S
H926 C932 0.949 . S
C927 H922 0.950 1_556 S
C927 C929 1.327 . S
C927 C933 1.429 . S
C928 C920 1.574 . S
C928 H923 0.949 . S
C928 C934 1.368 . S
C929 C913 1.349 . S
C929 H921 0.950 . S
C929 C927 1.327 . S
C930 C918 1.349 . S
C930 H924 0.950 . S
C930 C931 1.327 . S
C931 H925 0.950 1_554 S
C931 C930 1.327 . S
C931 C935 1.429 . S
C932 C915 1.574 . S
C932 H926 0.949 . S
C932 C936 1.368 . S
C933 C914 1.429 . S
C933 C927 1.429 . S
C933 C934 1.523 . S
C934 C915 1.368 1_556 S
C934 C928 1.368 . S
C934 C933 1.523 . S
C935 C919 1.429 . S
C935 C931 1.429 . S
C935 C936 1.523 . S
C936 C920 1.368 1_554 S
C936 C932 1.368 . S
C936 C935 1.523 . S
H937 C912 0.950 . S
H938 C914 0.950 . S
H939 C915 0.949 . S
H940 C917 0.950 . S
H941 C919 0.950 . S
C942 C943 1.349 . S
C942 C944 1.327 . S
C942 H967 0.950 . S
C943 C942 1.349 . S
C943 C959 1.349 . S
C944 C942 1.327 . S
C944 C963 1.429 . S
C944 H968 0.950 . S
C945 C962 1.574 . S
C945 C964 1.368 . S
C945 H969 0.949 . S
H946 C950 0.949 . S
C947 C948 1.349 . S
C947 C949 1.327 . S
C947 H970 0.950 . S
C948 C947 1.349 . S
C948 C960 1.349 . S
C949 C947 1.327 . S
C949 C965 1.429 . S
C949 H971 0.950 . S
C950 H946 0.949 . S
C950 C958 1.574 . S
C950 C966 1.368 . S
H951 C959 0.950 . S
H952 C957 0.950 . S
H953 C958 0.949 . S
H954 C960 0.950 . S
H955 C961 0.950 . S
H956 C962 0.949 . S
C957 H952 0.950 . S
C957 C959 1.327 . S
C957 C963 1.429 . S
C958 C950 1.574 . S
C958 H953 0.949 . S
C958 C964 1.368 . S
C959 C943 1.349 . S
C959 H951 0.950 . S
C959 C957 1.327 . S
C960 C948 1.349 . S
C960 H954 0.950 . S
C960 C961 1.327 . S
C961 H955 0.950 . S
C961 C960 1.327 . S
C961 C965 1.429 . S
C962 C945 1.574 . S
C962 H956 0.949 . S
C962 C966 1.368 . S
C963 C944 1.429 . S
C963 C957 1.429 . S
C963 C964 1.523 . S
C964 C945 1.368 . S
C964 C958 1.368 . S
C964 C963 1.523 . S
C965 C949 1.429 . S
C965 C961 1.429 . S
C965 C966 1.523 . S
C966 C950 1.368 . S
C966 C962 1.368 . S
C966 C965 1.523 . S
H967 C942 0.950 . S
H968 C944 0.950 . S
H969 C945 0.949 . S
H970 C947 0.950 . S
H971 C949 0.950 . S
C972 C973 1.349 . S
C972 C974 1.327 . S
C972 H997 0.950 . S
C973 C972 1.349 . S
C973 C989 1.349 . S
C974 C972 1.327 . S
C974 C993 1.429 . S
C974 H998 0.950 1_556 S
C975 C992 1.574 . S
C975 C994 1.368 . S
C975 H999 0.949 . S
H976 C980 0.949 . S
C977 C978 1.349 . S
C977 C979 1.327 . S
C977 H1000 0.950 . S
C978 C977 1.349 . S
C978 C990 1.349 . S
C979 C977 1.327 . S
C979 C995 1.429 . S
C979 H1001 0.950 1_554 S
C980 H976 0.949 . S
C980 C988 1.574 . S
C980 C996 1.368 . S
H981 C989 0.950 . S
H982 C987 0.950 . S
H983 C988 0.949 . S
H984 C990 0.950 . S
H985 C991 0.950 . S
H986 C992 0.949 . S
C987 H982 0.950 . S
C987 C989 1.327 . S
C987 C993 1.429 . S
C988 C980 1.574 . S
C988 H983 0.949 . S
C988 C994 1.368 1_554 S
C989 C973 1.349 . S
C989 H981 0.950 . S
C989 C987 1.327 . S
C990 C978 1.349 . S
C990 H984 0.950 . S
C990 C991 1.327 . S
C991 H985 0.950 . S
C991 C990 1.327 . S
C991 C995 1.429 . S
C992 C975 1.574 . S
C992 H986 0.949 . S
C992 C996 1.368 1_556 S
C993 C974 1.429 . S
C993 C987 1.429 . S
C993 C994 1.523 . S
C994 C975 1.368 . S
C994 C988 1.368 1_556 S
C994 C993 1.523 . S
C995 C979 1.429 . S
C995 C991 1.429 . S
C995 C996 1.523 . S
C996 C980 1.368 . S
C996 C992 1.368 1_554 S
C996 C995 1.523 . S
H997 C972 0.950 . S
H998 C974 0.950 1_554 S
H999 C975 0.949 . S
H1000 C977 0.950 . S
H1001 C979 0.950 1_556 S
C1002 C1003 1.349 . S
C1002 C1004 1.327 . S
C1002 H1027 0.950 . S
C1003 C1002 1.349 . S
C1003 C1019 1.349 . S
C1004 C1002 1.327 . S
C1004 C1023 1.429 . S
C1004 H1028 0.950 . S
C1005 C1022 1.574 . S
C1005 C1024 1.368 . S
C1005 H1029 0.949 . S
H1006 C1010 0.949 . S
C1007 C1008 1.349 . S
C1007 C1009 1.327 . S
C1007 H1030 0.950 . S
C1008 C1007 1.349 . S
C1008 C1020 1.349 . S
C1009 C1007 1.327 . S
C1009 C1025 1.429 . S
C1009 H1031 0.950 . S
C1010 H1006 0.949 . S
C1010 C1018 1.574 . S
C1010 C1026 1.368 . S
H1011 C1019 0.950 . S
H1012 C1017 0.950 . S
H1013 C1018 0.949 . S
H1014 C1020 0.950 . S
H1015 C1021 0.950 . S
H1016 C1022 0.949 . S
C1017 H1012 0.950 . S
C1017 C1019 1.327 . S
C1017 C1023 1.429 . S
C1018 C1010 1.574 . S
C1018 H1013 0.949 . S
C1018 C1024 1.368 . S
C1019 C1003 1.349 . S
C1019 H1011 0.950 . S
C1019 C1017 1.327 . S
C1020 C1008 1.349 . S
C1020 H1014 0.950 . S
C1020 C1021 1.327 . S
C1021 H1015 0.950 . S
C1021 C1020 1.327 . S
C1021 C1025 1.429 . S
C1022 C1005 1.574 . S
C1022 H1016 0.949 . S
C1022 C1026 1.368 . S
C1023 C1004 1.429 . S
C1023 C1017 1.429 . S
C1023 C1024 1.523 . S
C1024 C1005 1.368 . S
C1024 C1018 1.368 . S
C1024 C1023 1.523 . S
C1025 C1009 1.429 . S
C1025 C1021 1.429 . S
C1025 C1026 1.523 . S
C1026 C1010 1.368 . S
C1026 C1022 1.368 . S
C1026 C1025 1.523 . S
H1027 C1002 0.950 . S
H1028 C1004 0.950 . S
H1029 C1005 0.949 . S
H1030 C1007 0.950 . S
H1031 C1009 0.950 . S
C1032 C1033 1.349 . S
C1032 C1034 1.327 . S
C1032 H1057 0.950 . S
C1033 C1032 1.349 . S
C1033 C1049 1.349 . S
C1034 C1032 1.327 . S
C1034 C1053 1.429 . S
C1034 H1058 0.950 . S
C1035 C1052 1.574 . S
C1035 C1054 1.368 . S
C1035 H1059 0.949 . S
H1036 C1040 0.949 . S
C1037 C1038 1.349 . S
C1037 C1039 1.327 . S
C1037 H1060 0.950 . S
C1038 C1037 1.349 . S
C1038 C1050 1.349 . S
C1039 C1037 1.327 . S
C1039 C1055 1.429 . S
C1039 H1061 0.950 . S
C1040 H1036 0.949 . S
C1040 C1048 1.574 . S
C1040 C1056 1.368 . S
H1041 C1049 0.950 . S
H1042 C1047 0.950 . S
H1043 C1048 0.949 . S
H1044 C1050 0.950 . S
H1045 C1051 0.950 . S
H1046 C1052 0.949 . S
C1047 H1042 0.950 . S
C1047 C1049 1.327 . S
C1047 C1053 1.429 . S
C1048 C1040 1.574 . S
C1048 H1043 0.949 . S
C1048 C1054 1.368 . S
C1049 C1033 1.349 . S
C1049 H1041 0.950 . S
C1049 C1047 1.327 . S
C1050 C1038 1.349 . S
C1050 H1044 0.950 . S
C1050 C1051 1.327 . S
C1051 H1045 0.950 . S
C1051 C1050 1.327 . S
C1051 C1055 1.429 . S
C1052 C1035 1.574 . S
C1052 H1046 0.949 . S
C1052 C1056 1.368 . S
C1053 C1034 1.429 . S
C1053 C1047 1.429 . S
C1053 C1054 1.523 . S
C1054 C1035 1.368 . S
C1054 C1048 1.368 . S
C1054 C1053 1.523 . S
C1055 C1039 1.429 . S
C1055 C1051 1.429 . S
C1055 C1056 1.523 . S
C1056 C1040 1.368 . S
C1056 C1052 1.368 . S
C1056 C1055 1.523 . S
H1057 C1032 0.950 . S
H1058 C1034 0.950 . S
H1059 C1035 0.949 . S
H1060 C1037 0.950 . S
H1061 C1039 0.950 . S
C1062 C1063 1.349 . S
C1062 C1064 1.327 . S
C1062 H1087 0.950 . S
C1063 C1062 1.349 . S
C1063 C1079 1.349 . S
C1064 C1062 1.327 . S
C1064 C1083 1.429 . S
C1064 H1088 0.950 . S
C1065 C1082 1.574 1_455 S
C1065 C1084 1.368 . S
C1065 H1089 0.949 . S
H1066 C1070 0.949 . S
C1067 C1068 1.349 . S
C1067 C1069 1.327 . S
C1067 H1090 0.950 . S
C1068 C1067 1.349 . S
C1068 C1080 1.349 . S
C1069 C1067 1.327 . S
C1069 C1085 1.429 . S
C1069 H1091 0.950 . S
C1070 H1066 0.949 . S
C1070 C1078 1.574 1_655 S
C1070 C1086 1.368 . S
H1071 C1079 0.950 . S
H1072 C1077 0.950 . S
H1073 C1078 0.949 . S
H1074 C1080 0.950 . S
H1075 C1081 0.950 . S
H1076 C1082 0.949 . S
C1077 H1072 0.950 . S
C1077 C1079 1.327 . S
C1077 C1083 1.429 . S
C1078 C1070 1.574 1_455 S
C1078 H1073 0.949 . S
C1078 C1084 1.368 . S
C1079 C1063 1.349 . S
C1079 H1071 0.950 . S
C1079 C1077 1.327 . S
C1080 C1068 1.349 . S
C1080 H1074 0.950 . S
C1080 C1081 1.327 . S
C1081 H1075 0.950 . S
C1081 C1080 1.327 . S
C1081 C1085 1.429 . S
C1082 C1065 1.574 1_655 S
C1082 H1076 0.949 . S
C1082 C1086 1.368 . S
C1083 C1064 1.429 . S
C1083 C1077 1.429 . S
C1083 C1084 1.523 . S
C1084 C1065 1.368 . S
C1084 C1078 1.368 . S
C1084 C1083 1.523 . S
C1085 C1069 1.429 . S
C1085 C1081 1.429 . S
C1085 C1086 1.523 . S
C1086 C1070 1.368 . S
C1086 C1082 1.368 . S
C1086 C1085 1.523 . S
H1087 C1062 0.950 . S
H1088 C1064 0.950 . S
H1089 C1065 0.949 . S
H1090 C1067 0.950 . S
H1091 C1069 0.950 . S
C1092 C1093 1.349 . S
C1092 C1094 1.327 . S
C1092 H1117 0.950 . S
C1093 C1092 1.349 . S
C1093 C1109 1.349 . S
C1094 C1092 1.327 . S
C1094 C1113 1.429 . S
C1094 H1118 0.950 . S
C1095 C1112 1.574 1_565 S
C1095 C1114 1.368 . S
C1095 H1119 0.949 . S
H1096 C1100 0.949 . S
C1097 C1098 1.349 . S
C1097 C1099 1.327 . S
C1097 H1120 0.950 . S
C1098 C1097 1.349 . S
C1098 C1110 1.349 . S
C1099 C1097 1.327 . S
C1099 C1115 1.429 . S
C1099 H1121 0.950 . S
C1100 H1096 0.949 . S
C1100 C1108 1.574 1_545 S
C1100 C1116 1.368 . S
H1101 C1109 0.950 . S
H1102 C1107 0.950 . S
H1103 C1108 0.949 . S
H1104 C1110 0.950 . S
H1105 C1111 0.950 . S
H1106 C1112 0.949 . S
C1107 H1102 0.950 . S
C1107 C1109 1.327 . S
C1107 C1113 1.429 . S
C1108 C1100 1.574 1_565 S
C1108 H1103 0.949 . S
C1108 C1114 1.368 . S
C1109 C1093 1.349 . S
C1109 H1101 0.950 . S
C1109 C1107 1.327 . S
C1110 C1098 1.349 . S
C1110 H1104 0.950 . S
C1110 C1111 1.327 . S
C1111 H1105 0.950 . S
C1111 C1110 1.327 . S
C1111 C1115 1.429 . S
C1112 C1095 1.574 1_545 S
C1112 H1106 0.949 . S
C1112 C1116 1.368 . S
C1113 C1094 1.429 . S
C1113 C1107 1.429 . S
C1113 C1114 1.523 . S
C1114 C1095 1.368 . S
C1114 C1108 1.368 . S
C1114 C1113 1.523 . S
C1115 C1099 1.429 . S
C1115 C1111 1.429 . S
C1115 C1116 1.523 . S
C1116 C1100 1.368 . S
C1116 C1112 1.368 . S
C1116 C1115 1.523 . S
H1117 C1092 0.950 . S
H1118 C1094 0.950 . S
H1119 C1095 0.949 . S
H1120 C1097 0.950 . S
H1121 C1099 0.950 . S
C1122 C1123 1.349 . S
C1122 C1124 1.327 . S
C1122 H1147 0.950 . S
C1123 C1122 1.349 . S
C1123 C1139 1.349 . S
C1124 C1122 1.327 . S
C1124 C1143 1.429 . S
C1124 H1148 0.950 . S
C1125 C1142 1.574 . S
C1125 C1144 1.368 . S
C1125 H1149 0.949 . S
H1126 C1130 0.949 . S
C1127 C1128 1.349 . S
C1127 C1129 1.327 . S
C1127 H1150 0.950 . S
C1128 C1127 1.349 . S
C1128 C1140 1.349 . S
C1129 C1127 1.327 . S
C1129 C1145 1.429 . S
C1129 H1151 0.950 . S
C1130 H1126 0.949 . S
C1130 C1138 1.574 . S
C1130 C1146 1.368 . S
H1131 C1139 0.950 . S
H1132 C1137 0.950 . S
H1133 C1138 0.949 . S
H1134 C1140 0.950 . S
H1135 C1141 0.950 . S
H1136 C1142 0.949 . S
C1137 H1132 0.950 . S
C1137 C1139 1.327 . S
C1137 C1143 1.429 . S
C1138 C1130 1.574 . S
C1138 H1133 0.949 . S
C1138 C1144 1.368 . S
C1139 C1123 1.349 . S
C1139 H1131 0.950 . S
C1139 C1137 1.327 . S
C1140 C1128 1.349 . S
C1140 H1134 0.950 . S
C1140 C1141 1.327 . S
C1141 H1135 0.950 . S
C1141 C1140 1.327 . S
C1141 C1145 1.429 . S
C1142 C1125 1.574 . S
C1142 H1136 0.949 . S
C1142 C1146 1.368 . S
C1143 C1124 1.429 . S
C1143 C1137 1.429 . S
C1143 C1144 1.523 . S
C1144 C1125 1.368 . S
C1144 C1138 1.368 . S
C1144 C1143 1.523 . S
C1145 C1129 1.429 . S
C1145 C1141 1.429 . S
C1145 C1146 1.523 . S
C1146 C1130 1.368 . S
C1146 C1142 1.368 . S
C1146 C1145 1.523 . S
H1147 C1122 0.950 . S
H1148 C1124 0.950 . S
H1149 C1125 0.949 . S
H1150 C1127 0.950 . S
H1151 C1129 0.950 . S
C1152 C1153 1.349 . S
C1152 C1154 1.327 . S
C1152 H1177 0.950 . S
C1153 C1152 1.349 . S
C1153 C1169 1.349 . S
C1154 C1152 1.327 . S
C1154 C1173 1.429 . S
C1154 H1178 0.950 . S
C1155 C1172 1.574 1_655 S
C1155 C1174 1.368 . S
C1155 H1179 0.949 . S
H1156 C1160 0.949 . S
C1157 C1158 1.349 . S
C1157 C1159 1.327 . S
C1157 H1180 0.950 . S
C1158 C1157 1.349 . S
C1158 C1170 1.349 . S
C1159 C1157 1.327 . S
C1159 C1175 1.429 . S
C1159 H1181 0.950 . S
C1160 H1156 0.949 . S
C1160 C1168 1.574 1_455 S
C1160 C1176 1.368 . S
H1161 C1169 0.950 . S
H1162 C1167 0.950 . S
H1163 C1168 0.949 . S
H1164 C1170 0.950 . S
H1165 C1171 0.950 . S
H1166 C1172 0.949 . S
C1167 H1162 0.950 . S
C1167 C1169 1.327 . S
C1167 C1173 1.429 . S
C1168 C1160 1.574 1_655 S
C1168 H1163 0.949 . S
C1168 C1174 1.368 . S
C1169 C1153 1.349 . S
C1169 H1161 0.950 . S
C1169 C1167 1.327 . S
C1170 C1158 1.349 . S
C1170 H1164 0.950 . S
C1170 C1171 1.327 . S
C1171 H1165 0.950 . S
C1171 C1170 1.327 . S
C1171 C1175 1.429 . S
C1172 C1155 1.574 1_455 S
C1172 H1166 0.949 . S
C1172 C1176 1.368 . S
C1173 C1154 1.429 . S
C1173 C1167 1.429 . S
C1173 C1174 1.523 . S
C1174 C1155 1.368 . S
C1174 C1168 1.368 . S
C1174 C1173 1.523 . S
C1175 C1159 1.429 . S
C1175 C1171 1.429 . S
C1175 C1176 1.523 . S
C1176 C1160 1.368 . S
C1176 C1172 1.368 . S
C1176 C1175 1.523 . S
H1177 C1152 0.950 . S
H1178 C1154 0.950 . S
H1179 C1155 0.949 . S
H1180 C1157 0.950 . S
H1181 C1159 0.950 . S
C1182 C1183 1.349 . S
C1182 C1184 1.327 . S
C1182 H1207 0.950 . S
C1183 C1182 1.349 . S
C1183 C1199 1.349 . S
C1184 C1182 1.327 . S
C1184 C1203 1.429 . S
C1184 H1208 0.950 . S
C1185 C1202 1.574 1_545 S
C1185 C1204 1.368 . S
C1185 H1209 0.949 . S
H1186 C1190 0.949 . S
C1187 C1188 1.349 . S
C1187 C1189 1.327 . S
C1187 H1210 0.950 . S
C1188 C1187 1.349 . S
C1188 C1200 1.349 . S
C1189 C1187 1.327 . S
C1189 C1205 1.429 . S
C1189 H1211 0.950 . S
C1190 H1186 0.949 . S
C1190 C1198 1.574 1_565 S
C1190 C1206 1.368 . S
H1191 C1199 0.950 . S
H1192 C1197 0.950 . S
H1193 C1198 0.949 . S
H1194 C1200 0.950 . S
H1195 C1201 0.950 . S
H1196 C1202 0.949 . S
C1197 H1192 0.950 . S
C1197 C1199 1.327 . S
C1197 C1203 1.429 . S
C1198 C1190 1.574 1_545 S
C1198 H1193 0.949 . S
C1198 C1204 1.368 . S
C1199 C1183 1.349 . S
C1199 H1191 0.950 . S
C1199 C1197 1.327 . S
C1200 C1188 1.349 . S
C1200 H1194 0.950 . S
C1200 C1201 1.327 . S
C1201 H1195 0.950 . S
C1201 C1200 1.327 . S
C1201 C1205 1.429 . S
C1202 C1185 1.574 1_565 S
C1202 H1196 0.949 . S
C1202 C1206 1.368 . S
C1203 C1184 1.429 . S
C1203 C1197 1.429 . S
C1203 C1204 1.523 . S
C1204 C1185 1.368 . S
C1204 C1198 1.368 . S
C1204 C1203 1.523 . S
C1205 C1189 1.429 . S
C1205 C1201 1.429 . S
C1205 C1206 1.523 . S
C1206 C1190 1.368 . S
C1206 C1202 1.368 . S
C1206 C1205 1.523 . S
H1207 C1182 0.950 . S
H1208 C1184 0.950 . S
H1209 C1185 0.949 . S
H1210 C1187 0.950 . S
H1211 C1189 0.950 . S
C1212 C1213 1.349 . S
C1212 C1214 1.327 . S
C1212 H1237 0.950 . S
C1213 C1212 1.349 . S
C1213 C1229 1.349 . S
C1214 C1212 1.327 . S
C1214 C1233 1.429 . S
C1214 H1238 0.950 . S
C1215 C1232 1.574 . S
C1215 C1234 1.368 . S
C1215 H1239 0.949 . S
H1216 C1220 0.949 . S
C1217 C1218 1.349 . S
C1217 C1219 1.327 . S
C1217 H1240 0.950 . S
C1218 C1217 1.349 . S
C1218 C1230 1.349 . S
C1219 C1217 1.327 . S
C1219 C1235 1.429 . S
C1219 H1241 0.950 . S
C1220 H1216 0.949 . S
C1220 C1228 1.574 . S
C1220 C1236 1.368 . S
H1221 C1229 0.950 . S
H1222 C1227 0.950 . S
H1223 C1228 0.949 . S
H1224 C1230 0.950 . S
H1225 C1231 0.950 . S
H1226 C1232 0.949 . S
C1227 H1222 0.950 . S
C1227 C1229 1.327 . S
C1227 C1233 1.429 . S
C1228 C1220 1.574 . S
C1228 H1223 0.949 . S
C1228 C1234 1.368 . S
C1229 C1213 1.349 . S
C1229 H1221 0.950 . S
C1229 C1227 1.327 . S
C1230 C1218 1.349 . S
C1230 H1224 0.950 . S
C1230 C1231 1.327 . S
C1231 H1225 0.950 . S
C1231 C1230 1.327 . S
C1231 C1235 1.429 . S
C1232 C1215 1.574 . S
C1232 H1226 0.949 . S
C1232 C1236 1.368 . S
C1233 C1214 1.429 . S
C1233 C1227 1.429 . S
C1233 C1234 1.523 . S
C1234 C1215 1.368 . S
C1234 C1228 1.368 . S
C1234 C1233 1.523 . S
C1235 C1219 1.429 . S
C1235 C1231 1.429 . S
C1235 C1236 1.523 . S
C1236 C1220 1.368 . S
C1236 C1232 1.368 . S
C1236 C1235 1.523 . S
H1237 C1212 0.950 . S
H1238 C1214 0.950 . S
H1239 C1215 0.949 . S
H1240 C1217 0.950 . S
H1241 C1219 0.950 . S
C1242 C1243 1.349 . S
C1242 C1244 1.327 . S
C1242 H1267 0.950 . S
C1243 C1242 1.349 . S
C1243 C1259 1.349 . S
C1244 C1242 1.327 . S
C1244 C1263 1.429 . S
C1244 H1268 0.950 . S
C1245 C1262 1.574 1_655 S
C1245 C1264 1.368 . S
C1245 H1269 0.949 . S
H1246 C1250 0.949 . S
C1247 C1248 1.349 . S
C1247 C1249 1.327 . S
C1247 H1270 0.950 . S
C1248 C1247 1.349 . S
C1248 C1260 1.349 . S
C1249 C1247 1.327 . S
C1249 C1265 1.429 . S
C1249 H1271 0.950 . S
C1250 H1246 0.949 . S
C1250 C1258 1.574 1_455 S
C1250 C1266 1.368 . S
H1251 C1259 0.950 . S
H1252 C1257 0.950 . S
H1253 C1258 0.949 . S
H1254 C1260 0.950 . S
H1255 C1261 0.950 . S
H1256 C1262 0.949 . S
C1257 H1252 0.950 . S
C1257 C1259 1.327 . S
C1257 C1263 1.429 . S
C1258 C1250 1.574 1_655 S
C1258 H1253 0.949 . S
C1258 C1264 1.368 . S
C1259 C1243 1.349 . S
C1259 H1251 0.950 . S
C1259 C1257 1.327 . S
C1260 C1248 1.349 . S
C1260 H1254 0.950 . S
C1260 C1261 1.327 . S
C1261 H1255 0.950 . S
C1261 C1260 1.327 . S
C1261 C1265 1.429 . S
C1262 C1245 1.574 1_455 S
C1262 H1256 0.949 . S
C1262 C1266 1.368 . S
C1263 C1244 1.429 . S
C1263 C1257 1.429 . S
C1263 C1264 1.523 . S
C1264 C1245 1.368 . S
C1264 C1258 1.368 . S
C1264 C1263 1.523 . S
C1265 C1249 1.429 . S
C1265 C1261 1.429 . S
C1265 C1266 1.523 . S
C1266 C1250 1.368 . S
C1266 C1262 1.368 . S
C1266 C1265 1.523 . S
H1267 C1242 0.950 . S
H1268 C1244 0.950 . S
H1269 C1245 0.949 . S
H1270 C1247 0.950 . S
H1271 C1249 0.950 . S
C1272 C1273 1.349 . S
C1272 C1274 1.327 . S
C1272 H1297 0.950 . S
C1273 C1272 1.349 . S
C1273 C1289 1.349 . S
C1274 C1272 1.327 . S
C1274 C1293 1.429 . S
C1274 H1298 0.950 . S
C1275 C1292 1.574 1_545 S
C1275 C1294 1.368 . S
C1275 H1299 0.949 . S
H1276 C1280 0.949 . S
C1277 C1278 1.349 . S
C1277 C1279 1.327 . S
C1277 H1300 0.950 . S
C1278 C1277 1.349 . S
C1278 C1290 1.349 . S
C1279 C1277 1.327 . S
C1279 C1295 1.429 . S
C1279 H1301 0.950 . S
C1280 H1276 0.949 . S
C1280 C1288 1.574 1_565 S
C1280 C1296 1.368 . S
H1281 C1289 0.950 . S
H1282 C1287 0.950 . S
H1283 C1288 0.949 . S
H1284 C1290 0.950 . S
H1285 C1291 0.950 . S
H1286 C1292 0.949 . S
C1287 H1282 0.950 . S
C1287 C1289 1.327 . S
C1287 C1293 1.429 . S
C1288 C1280 1.574 1_545 S
C1288 H1283 0.949 . S
C1288 C1294 1.368 . S
C1289 C1273 1.349 . S
C1289 H1281 0.950 . S
C1289 C1287 1.327 . S
C1290 C1278 1.349 . S
C1290 H1284 0.950 . S
C1290 C1291 1.327 . S
C1291 H1285 0.950 . S
C1291 C1290 1.327 . S
C1291 C1295 1.429 . S
C1292 C1275 1.574 1_565 S
C1292 H1286 0.949 . S
C1292 C1296 1.368 . S
C1293 C1274 1.429 . S
C1293 C1287 1.429 . S
C1293 C1294 1.523 . S
C1294 C1275 1.368 . S
C1294 C1288 1.368 . S
C1294 C1293 1.523 . S
C1295 C1279 1.429 . S
C1295 C1291 1.429 . S
C1295 C1296 1.523 . S
C1296 C1280 1.368 . S
C1296 C1292 1.368 . S
C1296 C1295 1.523 . S
H1297 C1272 0.950 . S
H1298 C1274 0.950 . S
H1299 C1275 0.949 . S
H1300 C1277 0.950 . S
H1301 C1279 0.950 . S
C1302 C1303 1.349 . S
C1302 C1304 1.327 . S
C1302 H1327 0.950 . S
C1303 C1302 1.349 . S
C1303 C1319 1.349 . S
C1304 C1302 1.327 . S
C1304 C1323 1.429 . S
C1304 H1328 0.950 . S
C1305 C1322 1.574 . S
C1305 C1324 1.368 . S
C1305 H1329 0.949 . S
H1306 C1310 0.949 . S
C1307 C1308 1.349 . S
C1307 C1309 1.327 . S
C1307 H1330 0.950 . S
C1308 C1307 1.349 . S
C1308 C1320 1.349 . S
C1309 C1307 1.327 . S
C1309 C1325 1.429 . S
C1309 H1331 0.950 . S
C1310 H1306 0.949 . S
C1310 C1318 1.574 . S
C1310 C1326 1.368 . S
H1311 C1319 0.950 . S
H1312 C1317 0.950 . S
H1313 C1318 0.949 . S
H1314 C1320 0.950 . S
H1315 C1321 0.950 . S
H1316 C1322 0.949 . S
C1317 H1312 0.950 . S
C1317 C1319 1.327 . S
C1317 C1323 1.429 . S
C1318 C1310 1.574 . S
C1318 H1313 0.949 . S
C1318 C1324 1.368 . S
C1319 C1303 1.349 . S
C1319 H1311 0.950 . S
C1319 C1317 1.327 . S
C1320 C1308 1.349 . S
C1320 H1314 0.950 . S
C1320 C1321 1.327 . S
C1321 H1315 0.950 . S
C1321 C1320 1.327 . S
C1321 C1325 1.429 . S
C1322 C1305 1.574 . S
C1322 H1316 0.949 . S
C1322 C1326 1.368 . S
C1323 C1304 1.429 . S
C1323 C1317 1.429 . S
C1323 C1324 1.523 . S
C1324 C1305 1.368 . S
C1324 C1318 1.368 . S
C1324 C1323 1.523 . S
C1325 C1309 1.429 . S
C1325 C1321 1.429 . S
C1325 C1326 1.523 . S
C1326 C1310 1.368 . S
C1326 C1322 1.368 . S
C1326 C1325 1.523 . S
H1327 C1302 0.950 . S
H1328 C1304 0.950 . S
H1329 C1305 0.949 . S
H1330 C1307 0.950 . S
H1331 C1309 0.950 . S
C1332 C1333 1.349 . S
C1332 C1334 1.327 . S
C1332 H1357 0.950 . S
C1333 C1332 1.349 . S
C1333 C1349 1.349 . S
C1334 C1332 1.327 . S
C1334 C1353 1.429 . S
C1334 H1358 0.950 . S
C1335 C1352 1.574 1_455 S
C1335 C1354 1.368 . S
C1335 H1359 0.949 . S
H1336 C1340 0.949 . S
C1337 C1338 1.349 . S
C1337 C1339 1.327 . S
C1337 H1360 0.950 . S
C1338 C1337 1.349 . S
C1338 C1350 1.349 . S
C1339 C1337 1.327 . S
C1339 C1355 1.429 . S
C1339 H1361 0.950 . S
C1340 H1336 0.949 . S
C1340 C1348 1.574 1_655 S
C1340 C1356 1.368 . S
H1341 C1349 0.950 . S
H1342 C1347 0.950 . S
H1343 C1348 0.949 . S
H1344 C1350 0.950 . S
H1345 C1351 0.950 . S
H1346 C1352 0.949 . S
C1347 H1342 0.950 . S
C1347 C1349 1.327 . S
C1347 C1353 1.429 . S
C1348 C1340 1.574 1_455 S
C1348 H1343 0.949 . S
C1348 C1354 1.368 . S
C1349 C1333 1.349 . S
C1349 H1341 0.950 . S
C1349 C1347 1.327 . S
C1350 C1338 1.349 . S
C1350 H1344 0.950 . S
C1350 C1351 1.327 . S
C1351 H1345 0.950 . S
C1351 C1350 1.327 . S
C1351 C1355 1.429 . S
C1352 C1335 1.574 1_655 S
C1352 H1346 0.949 . S
C1352 C1356 1.368 . S
C1353 C1334 1.429 . S
C1353 C1347 1.429 . S
C1353 C1354 1.523 . S
C1354 C1335 1.368 . S
C1354 C1348 1.368 . S
C1354 C1353 1.523 . S
C1355 C1339 1.429 . S
C1355 C1351 1.429 . S
C1355 C1356 1.523 . S
C1356 C1340 1.368 . S
C1356 C1352 1.368 . S
C1356 C1355 1.523 . S
H1357 C1332 0.950 . S
H1358 C1334 0.950 . S
H1359 C1335 0.949 . S
H1360 C1337 0.950 . S
H1361 C1339 0.950 . S
C1362 C1363 1.349 . S
C1362 C1364 1.327 . S
C1362 H1387 0.950 . S
C1363 C1362 1.349 . S
C1363 C1379 1.349 . S
C1364 C1362 1.327 . S
C1364 C1383 1.429 . S
C1364 H1388 0.950 . S
C1365 C1382 1.574 1_565 S
C1365 C1384 1.368 . S
C1365 H1389 0.949 . S
H1366 C1370 0.949 . S
C1367 C1368 1.349 . S
C1367 C1369 1.327 . S
C1367 H1390 0.950 . S
C1368 C1367 1.349 . S
C1368 C1380 1.349 . S
C1369 C1367 1.327 . S
C1369 C1385 1.429 . S
C1369 H1391 0.950 . S
C1370 H1366 0.949 . S
C1370 C1378 1.574 1_545 S
C1370 C1386 1.368 . S
H1371 C1379 0.950 . S
H1372 C1377 0.950 . S
H1373 C1378 0.949 . S
H1374 C1380 0.950 . S
H1375 C1381 0.950 . S
H1376 C1382 0.949 . S
C1377 H1372 0.950 . S
C1377 C1379 1.327 . S
C1377 C1383 1.429 . S
C1378 C1370 1.574 1_565 S
C1378 H1373 0.949 . S
C1378 C1384 1.368 . S
C1379 C1363 1.349 . S
C1379 H1371 0.950 . S
C1379 C1377 1.327 . S
C1380 C1368 1.349 . S
C1380 H1374 0.950 . S
C1380 C1381 1.327 . S
C1381 H1375 0.950 . S
C1381 C1380 1.327 . S
C1381 C1385 1.429 . S
C1382 C1365 1.574 1_545 S
C1382 H1376 0.949 . S
C1382 C1386 1.368 . S
C1383 C1364 1.429 . S
C1383 C1377 1.429 . S
C1383 C1384 1.523 . S
C1384 C1365 1.368 . S
C1384 C1378 1.368 . S
C1384 C1383 1.523 . S
C1385 C1369 1.429 . S
C1385 C1381 1.429 . S
C1385 C1386 1.523 . S
C1386 C1370 1.368 . S
C1386 C1382 1.368 . S
C1386 C1385 1.523 . S
H1387 C1362 0.950 . S
H1388 C1364 0.950 . S
H1389 C1365 0.949 . S
H1390 C1367 0.950 . S
H1391 C1369 0.950 . S
C1392 C1393 1.349 . S
C1392 C1394 1.327 . S
C1392 H1417 0.950 . S
C1393 C1392 1.349 . S
C1393 C1409 1.349 . S
C1394 C1392 1.327 . S
C1394 C1413 1.429 . S
C1394 H1418 0.950 . S
C1395 C1412 1.574 . S
C1395 C1414 1.368 1_554 S
C1395 H1419 0.949 . S
H1396 C1400 0.949 . S
C1397 C1398 1.349 . S
C1397 C1399 1.327 . S
C1397 H1420 0.950 . S
C1398 C1397 1.349 . S
C1398 C1410 1.349 . S
C1399 C1397 1.327 . S
C1399 C1415 1.429 . S
C1399 H1421 0.950 . S
C1400 H1396 0.949 . S
C1400 C1408 1.574 . S
C1400 C1416 1.368 1_556 S
H1401 C1409 0.950 . S
H1402 C1407 0.950 . S
H1403 C1408 0.949 . S
H1404 C1410 0.950 . S
H1405 C1411 0.950 . S
H1406 C1412 0.949 . S
C1407 H1402 0.950 . S
C1407 C1409 1.327 . S
C1407 C1413 1.429 . S
C1408 C1400 1.574 . S
C1408 H1403 0.949 . S
C1408 C1414 1.368 . S
C1409 C1393 1.349 . S
C1409 H1401 0.950 . S
C1409 C1407 1.327 . S
C1410 C1398 1.349 . S
C1410 H1404 0.950 . S
C1410 C1411 1.327 . S
C1411 H1405 0.950 . S
C1411 C1410 1.327 . S
C1411 C1415 1.429 . S
C1412 C1395 1.574 . S
C1412 H1406 0.949 . S
C1412 C1416 1.368 . S
C1413 C1394 1.429 . S
C1413 C1407 1.429 . S
C1413 C1414 1.523 . S
C1414 C1395 1.368 1_556 S
C1414 C1408 1.368 . S
C1414 C1413 1.523 . S
C1415 C1399 1.429 . S
C1415 C1411 1.429 . S
C1415 C1416 1.523 . S
C1416 C1400 1.368 1_554 S
C1416 C1412 1.368 . S
C1416 C1415 1.523 . S
H1417 C1392 0.950 . S
H1418 C1394 0.950 . S
H1419 C1395 0.949 . S
H1420 C1397 0.950 . S
H1421 C1399 0.950 . S
C1422 C1423 1.349 . S
C1422 C1424 1.327 . S
C1422 H1447 0.950 . S
C1423 C1422 1.349 . S
C1423 C1439 1.349 . S
C1424 C1422 1.327 . S
C1424 C1443 1.429 . S
C1424 H1448 0.950 . S
C1425 C1442 1.574 . S
C1425 C1444 1.368 . S
C1425 H1449 0.949 . S
H1426 C1430 0.949 . S
C1427 C1428 1.349 . S
C1427 C1429 1.327 . S
C1427 H1450 0.950 . S
C1428 C1427 1.349 . S
C1428 C1440 1.349 . S
C1429 C1427 1.327 . S
C1429 C1445 1.429 . S
C1429 H1451 0.950 . S
C1430 H1426 0.949 . S
C1430 C1438 1.574 . S
C1430 C1446 1.368 . S
H1431 C1439 0.950 . S
H1432 C1437 0.950 . S
H1433 C1438 0.949 . S
H1434 C1440 0.950 . S
H1435 C1441 0.950 . S
H1436 C1442 0.949 . S
C1437 H1432 0.950 . S
C1437 C1439 1.327 . S
C1437 C1443 1.429 . S
C1438 C1430 1.574 . S
C1438 H1433 0.949 . S
C1438 C1444 1.368 . S
C1439 C1423 1.349 . S
C1439 H1431 0.950 . S
C1439 C1437 1.327 . S
C1440 C1428 1.349 . S
C1440 H1434 0.950 . S
C1440 C1441 1.327 . S
C1441 H1435 0.950 . S
C1441 C1440 1.327 . S
C1441 C1445 1.429 . S
C1442 C1425 1.574 . S
C1442 H1436 0.949 . S
C1442 C1446 1.368 . S
C1443 C1424 1.429 . S
C1443 C1437 1.429 . S
C1443 C1444 1.523 . S
C1444 C1425 1.368 . S
C1444 C1438 1.368 . S
C1444 C1443 1.523 . S
C1445 C1429 1.429 . S
C1445 C1441 1.429 . S
C1445 C1446 1.523 . S
C1446 C1430 1.368 . S
C1446 C1442 1.368 . S
C1446 C1445 1.523 . S
H1447 C1422 0.950 . S
H1448 C1424 0.950 . S
H1449 C1425 0.949 . S
H1450 C1427 0.950 . S
H1451 C1429 0.950 . S
C1452 C1453 1.349 . S
C1452 C1454 1.327 . S
C1452 H1477 0.950 . S
C1453 C1452 1.349 . S
C1453 C1469 1.349 . S
C1454 C1452 1.327 . S
C1454 C1473 1.429 . S
C1454 H1478 0.950 . S
C1455 C1472 1.574 . S
C1455 C1474 1.368 1_554 S
C1455 H1479 0.949 . S
H1456 C1460 0.949 . S
C1457 C1458 1.349 . S
C1457 C1459 1.327 . S
C1457 H1480 0.950 . S
C1458 C1457 1.349 . S
C1458 C1470 1.349 . S
C1459 C1457 1.327 . S
C1459 C1475 1.429 . S
C1459 H1481 0.950 . S
C1460 H1456 0.949 . S
C1460 C1468 1.574 . S
C1460 C1476 1.368 1_556 S
H1461 C1469 0.950 . S
H1462 C1467 0.950 . S
H1463 C1468 0.949 . S
H1464 C1470 0.950 . S
H1465 C1471 0.950 . S
H1466 C1472 0.949 . S
C1467 H1462 0.950 . S
C1467 C1469 1.327 . S
C1467 C1473 1.429 . S
C1468 C1460 1.574 . S
C1468 H1463 0.949 . S
C1468 C1474 1.368 . S
C1469 C1453 1.349 . S
C1469 H1461 0.950 . S
C1469 C1467 1.327 . S
C1470 C1458 1.349 . S
C1470 H1464 0.950 . S
C1470 C1471 1.327 . S
C1471 H1465 0.950 . S
C1471 C1470 1.327 . S
C1471 C1475 1.429 . S
C1472 C1455 1.574 . S
C1472 H1466 0.949 . S
C1472 C1476 1.368 . S
C1473 C1454 1.429 . S
C1473 C1467 1.429 . S
C1473 C1474 1.523 . S
C1474 C1455 1.368 1_556 S
C1474 C1468 1.368 . S
C1474 C1473 1.523 . S
C1475 C1459 1.429 . S
C1475 C1471 1.429 . S
C1475 C1476 1.523 . S
C1476 C1460 1.368 1_554 S
C1476 C1472 1.368 . S
C1476 C1475 1.523 . S
H1477 C1452 0.950 . S
H1478 C1454 0.950 . S
H1479 C1455 0.949 . S
H1480 C1457 0.950 . S
H1481 C1459 0.950 . S
C1482 C1483 1.349 . S
C1482 C1484 1.327 . S
C1482 H1507 0.950 . S
C1483 C1482 1.349 . S
C1483 C1499 1.349 . S
C1484 C1482 1.327 . S
C1484 C1503 1.429 . S
C1484 H1508 0.950 . S
C1485 C1502 1.574 . S
C1485 C1504 1.368 . S
C1485 H1509 0.949 . S
H1486 C1490 0.949 . S
C1487 C1488 1.349 . S
C1487 C1489 1.327 . S
C1487 H1510 0.950 . S
C1488 C1487 1.349 . S
C1488 C1500 1.349 . S
C1489 C1487 1.327 . S
C1489 C1505 1.429 . S
C1489 H1511 0.950 . S
C1490 H1486 0.949 . S
C1490 C1498 1.574 . S
C1490 C1506 1.368 . S
H1491 C1499 0.950 . S
H1492 C1497 0.950 . S
H1493 C1498 0.949 . S
H1494 C1500 0.950 . S
H1495 C1501 0.950 . S
H1496 C1502 0.949 . S
C1497 H1492 0.950 . S
C1497 C1499 1.327 . S
C1497 C1503 1.429 . S
C1498 C1490 1.574 . S
C1498 H1493 0.949 . S
C1498 C1504 1.368 . S
C1499 C1483 1.349 . S
C1499 H1491 0.950 . S
C1499 C1497 1.327 . S
C1500 C1488 1.349 . S
C1500 H1494 0.950 . S
C1500 C1501 1.327 . S
C1501 H1495 0.950 . S
C1501 C1500 1.327 . S
C1501 C1505 1.429 . S
C1502 C1485 1.574 . S
C1502 H1496 0.949 . S
C1502 C1506 1.368 . S
C1503 C1484 1.429 . S
C1503 C1497 1.429 . S
C1503 C1504 1.523 . S
C1504 C1485 1.368 . S
C1504 C1498 1.368 . S
C1504 C1503 1.523 . S
C1505 C1489 1.429 . S
C1505 C1501 1.429 . S
C1505 C1506 1.523 . S
C1506 C1490 1.368 . S
C1506 C1502 1.368 . S
C1506 C1505 1.523 . S
H1507 C1482 0.950 . S
H1508 C1484 0.950 . S
H1509 C1485 0.949 . S
H1510 C1487 0.950 . S
H1511 C1489 0.950 . S
C1512 C1513 1.349 . S
C1512 C1514 1.327 . S
C1512 H1537 0.950 . S
C1513 C1512 1.349 . S
C1513 C1529 1.349 . S
C1514 C1512 1.327 . S
C1514 C1533 1.429 . S
C1514 H1538 0.950 . S
C1515 C1532 1.574 . S
C1515 C1534 1.368 1_554 S
C1515 H1539 0.949 . S
H1516 C1520 0.949 . S
C1517 C1518 1.349 . S
C1517 C1519 1.327 . S
C1517 H1540 0.950 . S
C1518 C1517 1.349 . S
C1518 C1530 1.349 . S
C1519 C1517 1.327 . S
C1519 C1535 1.429 . S
C1519 H1541 0.950 . S
C1520 H1516 0.949 . S
C1520 C1528 1.574 . S
C1520 C1536 1.368 1_556 S
H1521 C1529 0.950 . S
H1522 C1527 0.950 1_554 S
H1523 C1528 0.949 . S
H1524 C1530 0.950 . S
H1525 C1531 0.950 1_556 S
H1526 C1532 0.949 . S
C1527 H1522 0.950 1_556 S
C1527 C1529 1.327 . S
C1527 C1533 1.429 . S
C1528 C1520 1.574 . S
C1528 H1523 0.949 . S
C1528 C1534 1.368 . S
C1529 C1513 1.349 . S
C1529 H1521 0.950 . S
C1529 C1527 1.327 . S
C1530 C1518 1.349 . S
C1530 H1524 0.950 . S
C1530 C1531 1.327 . S
C1531 H1525 0.950 1_554 S
C1531 C1530 1.327 . S
C1531 C1535 1.429 . S
C1532 C1515 1.574 . S
C1532 H1526 0.949 . S
C1532 C1536 1.368 . S
C1533 C1514 1.429 . S
C1533 C1527 1.429 . S
C1533 C1534 1.523 . S
C1534 C1515 1.368 1_556 S
C1534 C1528 1.368 . S
C1534 C1533 1.523 . S
C1535 C1519 1.429 . S
C1535 C1531 1.429 . S
C1535 C1536 1.523 . S
C1536 C1520 1.368 1_554 S
C1536 C1532 1.368 . S
C1536 C1535 1.523 . S
H1537 C1512 0.950 . S
H1538 C1514 0.950 . S
H1539 C1515 0.949 . S
H1540 C1517 0.950 . S
H1541 C1519 0.950 . S
C1542 C1543 1.349 . S
C1542 C1544 1.327 . S
C1542 H1567 0.950 . S
C1543 C1542 1.349 . S
C1543 C1559 1.349 . S
C1544 C1542 1.327 . S
C1544 C1563 1.429 . S
C1544 H1568 0.950 . S
C1545 C1562 1.574 . S
C1545 C1564 1.368 . S
C1545 H1569 0.949 . S
H1546 C1550 0.949 . S
C1547 C1548 1.349 . S
C1547 C1549 1.327 . S
C1547 H1570 0.950 . S
C1548 C1547 1.349 . S
C1548 C1560 1.349 . S
C1549 C1547 1.327 . S
C1549 C1565 1.429 . S
C1549 H1571 0.950 . S
C1550 H1546 0.949 . S
C1550 C1558 1.574 . S
C1550 C1566 1.368 . S
H1551 C1559 0.950 . S
H1552 C1557 0.950 . S
H1553 C1558 0.949 . S
H1554 C1560 0.950 . S
H1555 C1561 0.950 . S
H1556 C1562 0.949 . S
C1557 H1552 0.950 . S
C1557 C1559 1.327 . S
C1557 C1563 1.429 . S
C1558 C1550 1.574 . S
C1558 H1553 0.949 . S
C1558 C1564 1.368 . S
C1559 C1543 1.349 . S
C1559 H1551 0.950 . S
C1559 C1557 1.327 . S
C1560 C1548 1.349 . S
C1560 H1554 0.950 . S
C1560 C1561 1.327 . S
C1561 H1555 0.950 . S
C1561 C1560 1.327 . S
C1561 C1565 1.429 . S
C1562 C1545 1.574 . S
C1562 H1556 0.949 . S
C1562 C1566 1.368 . S
C1563 C1544 1.429 . S
C1563 C1557 1.429 . S
C1563 C1564 1.523 . S
C1564 C1545 1.368 . S
C1564 C1558 1.368 . S
C1564 C1563 1.523 . S
C1565 C1549 1.429 . S
C1565 C1561 1.429 . S
C1565 C1566 1.523 . S
C1566 C1550 1.368 . S
C1566 C1562 1.368 . S
C1566 C1565 1.523 . S
H1567 C1542 0.950 . S
H1568 C1544 0.950 . S
H1569 C1545 0.949 . S
H1570 C1547 0.950 . S
H1571 C1549 0.950 . S
C1572 C1573 1.349 . S
C1572 C1574 1.327 . S
C1572 H1597 0.950 . S
C1573 C1572 1.349 . S
C1573 C1589 1.349 . S
C1574 C1572 1.327 . S
C1574 C1593 1.429 . S
C1574 H1598 0.950 1_554 S
C1575 C1592 1.574 . S
C1575 C1594 1.368 . S
C1575 H1599 0.949 . S
H1576 C1580 0.949 . S
C1577 C1578 1.349 . S
C1577 C1579 1.327 . S
C1577 H1600 0.950 . S
C1578 C1577 1.349 . S
C1578 C1590 1.349 . S
C1579 C1577 1.327 . S
C1579 C1595 1.429 . S
C1579 H1601 0.950 1_556 S
C1580 H1576 0.949 . S
C1580 C1588 1.574 . S
C1580 C1596 1.368 . S
H1581 C1589 0.950 . S
H1582 C1587 0.950 . S
H1583 C1588 0.949 . S
H1584 C1590 0.950 . S
H1585 C1591 0.950 . S
H1586 C1592 0.949 . S
C1587 H1582 0.950 . S
C1587 C1589 1.327 . S
C1587 C1593 1.429 . S
C1588 C1580 1.574 . S
C1588 H1583 0.949 . S
C1588 C1594 1.368 1_556 S
C1589 C1573 1.349 . S
C1589 H1581 0.950 . S
C1589 C1587 1.327 . S
C1590 C1578 1.349 . S
C1590 H1584 0.950 . S
C1590 C1591 1.327 . S
C1591 H1585 0.950 . S
C1591 C1590 1.327 . S
C1591 C1595 1.429 . S
C1592 C1575 1.574 . S
C1592 H1586 0.949 . S
C1592 C1596 1.368 1_554 S
C1593 C1574 1.429 . S
C1593 C1587 1.429 . S
C1593 C1594 1.523 . S
C1594 C1575 1.368 . S
C1594 C1588 1.368 1_554 S
C1594 C1593 1.523 . S
C1595 C1579 1.429 . S
C1595 C1591 1.429 . S
C1595 C1596 1.523 . S
C1596 C1580 1.368 . S
C1596 C1592 1.368 1_556 S
C1596 C1595 1.523 . S
H1597 C1572 0.950 . S
H1598 C1574 0.950 1_556 S
H1599 C1575 0.949 . S
H1600 C1577 0.950 . S
H1601 C1579 0.950 1_554 S
C1602 C1603 1.349 . S
C1602 C1604 1.327 . S
C1602 H1627 0.950 . S
C1603 C1602 1.349 . S
C1603 C1619 1.349 . S
C1604 C1602 1.327 . S
C1604 C1623 1.429 . S
C1604 H1628 0.950 . S
C1605 C1622 1.574 . S
C1605 C1624 1.368 . S
C1605 H1629 0.949 . S
H1606 C1610 0.949 . S
C1607 C1608 1.349 . S
C1607 C1609 1.327 . S
C1607 H1630 0.950 . S
C1608 C1607 1.349 . S
C1608 C1620 1.349 . S
C1609 C1607 1.327 . S
C1609 C1625 1.429 . S
C1609 H1631 0.950 . S
C1610 H1606 0.949 . S
C1610 C1618 1.574 . S
C1610 C1626 1.368 . S
H1611 C1619 0.950 . S
H1612 C1617 0.950 . S
H1613 C1618 0.949 . S
H1614 C1620 0.950 . S
H1615 C1621 0.950 . S
H1616 C1622 0.949 . S
C1617 H1612 0.950 . S
C1617 C1619 1.327 . S
C1617 C1623 1.429 . S
C1618 C1610 1.574 . S
C1618 H1613 0.949 . S
C1618 C1624 1.368 . S
C1619 C1603 1.349 . S
C1619 H1611 0.950 . S
C1619 C1617 1.327 . S
C1620 C1608 1.349 . S
C1620 H1614 0.950 . S
C1620 C1621 1.327 . S
C1621 H1615 0.950 . S
C1621 C1620 1.327 . S
C1621 C1625 1.429 . S
C1622 C1605 1.574 . S
C1622 H1616 0.949 . S
C1622 C1626 1.368 . S
C1623 C1604 1.429 . S
C1623 C1617 1.429 . S
C1623 C1624 1.523 . S
C1624 C1605 1.368 . S
C1624 C1618 1.368 . S
C1624 C1623 1.523 . S
C1625 C1609 1.429 . S
C1625 C1621 1.429 . S
C1625 C1626 1.523 . S
C1626 C1610 1.368 . S
C1626 C1622 1.368 . S
C1626 C1625 1.523 . S
H1627 C1602 0.950 . S
H1628 C1604 0.950 . S
H1629 C1605 0.949 . S
H1630 C1607 0.950 . S
H1631 C1609 0.950 . S
C1632 C1633 1.349 . S
C1632 C1634 1.327 . S
C1632 H1657 0.950 . S
C1633 C1632 1.349 . S
C1633 C1649 1.349 . S
C1634 C1632 1.327 . S
C1634 C1653 1.429 . S
C1634 H1658 0.950 . S
C1635 C1652 1.574 . S
C1635 C1654 1.368 . S
C1635 H1659 0.949 . S
H1636 C1640 0.949 . S
C1637 C1638 1.349 . S
C1637 C1639 1.327 . S
C1637 H1660 0.950 . S
C1638 C1637 1.349 . S
C1638 C1650 1.349 . S
C1639 C1637 1.327 . S
C1639 C1655 1.429 . S
C1639 H1661 0.950 . S
C1640 H1636 0.949 . S
C1640 C1648 1.574 . S
C1640 C1656 1.368 . S
H1641 C1649 0.950 . S
H1642 C1647 0.950 . S
H1643 C1648 0.949 . S
H1644 C1650 0.950 . S
H1645 C1651 0.950 . S
H1646 C1652 0.949 . S
C1647 H1642 0.950 . S
C1647 C1649 1.327 . S
C1647 C1653 1.429 . S
C1648 C1640 1.574 . S
C1648 H1643 0.949 . S
C1648 C1654 1.368 1_556 S
C1649 C1633 1.349 . S
C1649 H1641 0.950 . S
C1649 C1647 1.327 . S
C1650 C1638 1.349 . S
C1650 H1644 0.950 . S
C1650 C1651 1.327 . S
C1651 H1645 0.950 . S
C1651 C1650 1.327 . S
C1651 C1655 1.429 . S
C1652 C1635 1.574 . S
C1652 H1646 0.949 . S
C1652 C1656 1.368 1_554 S
C1653 C1634 1.429 . S
C1653 C1647 1.429 . S
C1653 C1654 1.523 . S
C1654 C1635 1.368 . S
C1654 C1648 1.368 1_554 S
C1654 C1653 1.523 . S
C1655 C1639 1.429 . S
C1655 C1651 1.429 . S
C1655 C1656 1.523 . S
C1656 C1640 1.368 . S
C1656 C1652 1.368 1_556 S
C1656 C1655 1.523 . S
H1657 C1632 0.950 . S
H1658 C1634 0.950 . S
H1659 C1635 0.949 . S
H1660 C1637 0.950 . S
H1661 C1639 0.950 . S
C1662 C1663 1.349 . S
C1662 C1664 1.327 . S
C1662 H1687 0.950 . S
C1663 C1662 1.349 . S
C1663 C1679 1.349 . S
C1664 C1662 1.327 . S
C1664 C1683 1.429 . S
C1664 H1688 0.950 . S
C1665 C1682 1.574 . S
C1665 C1684 1.368 . S
C1665 H1689 0.949 . S
H1666 C1670 0.949 . S
C1667 C1668 1.349 . S
C1667 C1669 1.327 . S
C1667 H1690 0.950 . S
C1668 C1667 1.349 . S
C1668 C1680 1.349 . S
C1669 C1667 1.327 . S
C1669 C1685 1.429 . S
C1669 H1691 0.950 . S
C1670 H1666 0.949 . S
C1670 C1678 1.574 . S
C1670 C1686 1.368 . S
H1671 C1679 0.950 . S
H1672 C1677 0.950 . S
H1673 C1678 0.949 . S
H1674 C1680 0.950 . S
H1675 C1681 0.950 . S
H1676 C1682 0.949 . S
C1677 H1672 0.950 . S
C1677 C1679 1.327 . S
C1677 C1683 1.429 . S
C1678 C1670 1.574 . S
C1678 H1673 0.949 . S
C1678 C1684 1.368 . S
C1679 C1663 1.349 . S
C1679 H1671 0.950 . S
C1679 C1677 1.327 . S
C1680 C1668 1.349 . S
C1680 H1674 0.950 . S
C1680 C1681 1.327 . S
C1681 H1675 0.950 . S
C1681 C1680 1.327 . S
C1681 C1685 1.429 . S
C1682 C1665 1.574 . S
C1682 H1676 0.949 . S
C1682 C1686 1.368 . S
C1683 C1664 1.429 . S
C1683 C1677 1.429 . S
C1683 C1684 1.523 . S
C1684 C1665 1.368 . S
C1684 C1678 1.368 . S
C1684 C1683 1.523 . S
C1685 C1669 1.429 . S
C1685 C1681 1.429 . S
C1685 C1686 1.523 . S
C1686 C1670 1.368 . S
C1686 C1682 1.368 . S
C1686 C1685 1.523 . S
H1687 C1662 0.950 . S
H1688 C1664 0.950 . S
H1689 C1665 0.949 . S
H1690 C1667 0.950 . S
H1691 C1669 0.950 . S
C1692 C1693 1.349 . S
C1692 C1694 1.327 . S
C1692 H1717 0.950 . S
C1693 C1692 1.349 . S
C1693 C1709 1.349 . S
C1694 C1692 1.327 . S
C1694 C1713 1.429 . S
C1694 H1718 0.950 1_556 S
C1695 C1712 1.574 . S
C1695 C1714 1.368 . S
C1695 H1719 0.949 . S
H1696 C1700 0.949 . S
C1697 C1698 1.349 . S
C1697 C1699 1.327 . S
C1697 H1720 0.950 . S
C1698 C1697 1.349 . S
C1698 C1710 1.349 . S
C1699 C1697 1.327 . S
C1699 C1715 1.429 . S
C1699 H1721 0.950 1_554 S
C1700 H1696 0.949 . S
C1700 C1708 1.574 . S
C1700 C1716 1.368 . S
H1701 C1709 0.950 . S
H1702 C1707 0.950 . S
H1703 C1708 0.949 . S
H1704 C1710 0.950 . S
H1705 C1711 0.950 . S
H1706 C1712 0.949 . S
C1707 H1702 0.950 . S
C1707 C1709 1.327 . S
C1707 C1713 1.429 . S
C1708 C1700 1.574 . S
C1708 H1703 0.949 . S
C1708 C1714 1.368 1_554 S
C1709 C1693 1.349 . S
C1709 H1701 0.950 . S
C1709 C1707 1.327 . S
C1710 C1698 1.349 . S
C1710 H1704 0.950 . S
C1710 C1711 1.327 . S
C1711 H1705 0.950 . S
C1711 C1710 1.327 . S
C1711 C1715 1.429 . S
C1712 C1695 1.574 . S
C1712 H1706 0.949 . S
C1712 C1716 1.368 1_556 S
C1713 C1694 1.429 . S
C1713 C1707 1.429 . S
C1713 C1714 1.523 . S
C1714 C1695 1.368 . S
C1714 C1708 1.368 1_556 S
C1714 C1713 1.523 . S
C1715 C1699 1.429 . S
C1715 C1711 1.429 . S
C1715 C1716 1.523 . S
C1716 C1700 1.368 . S
C1716 C1712 1.368 1_554 S
C1716 C1715 1.523 . S
H1717 C1692 0.950 . S
H1718 C1694 0.950 1_554 S
H1719 C1695 0.949 . S
H1720 C1697 0.950 . S
H1721 C1699 0.950 1_556 S
C1722 C1723 1.349 . S
C1722 C1724 1.327 . S
C1722 H1747 0.950 . S
C1723 C1722 1.349 . S
C1723 C1739 1.349 . S
C1724 C1722 1.327 . S
C1724 C1743 1.429 . S
C1724 H1748 0.950 . S
C1725 C1742 1.574 . S
C1725 C1744 1.368 . S
C1725 H1749 0.949 . S
H1726 C1730 0.949 . S
C1727 C1728 1.349 . S
C1727 C1729 1.327 . S
C1727 H1750 0.950 . S
C1728 C1727 1.349 . S
C1728 C1740 1.349 . S
C1729 C1727 1.327 . S
C1729 C1745 1.429 . S
C1729 H1751 0.950 . S
C1730 H1726 0.949 . S
C1730 C1738 1.574 . S
C1730 C1746 1.368 . S
H1731 C1739 0.950 . S
H1732 C1737 0.950 . S
H1733 C1738 0.949 . S
H1734 C1740 0.950 . S
H1735 C1741 0.950 . S
H1736 C1742 0.949 . S
C1737 H1732 0.950 . S
C1737 C1739 1.327 . S
C1737 C1743 1.429 . S
C1738 C1730 1.574 . S
C1738 H1733 0.949 . S
C1738 C1744 1.368 . S
C1739 C1723 1.349 . S
C1739 H1731 0.950 . S
C1739 C1737 1.327 . S
C1740 C1728 1.349 . S
C1740 H1734 0.950 . S
C1740 C1741 1.327 . S
C1741 H1735 0.950 . S
C1741 C1740 1.327 . S
C1741 C1745 1.429 . S
C1742 C1725 1.574 . S
C1742 H1736 0.949 . S
C1742 C1746 1.368 . S
C1743 C1724 1.429 . S
C1743 C1737 1.429 . S
C1743 C1744 1.523 . S
C1744 C1725 1.368 . S
C1744 C1738 1.368 . S
C1744 C1743 1.523 . S
C1745 C1729 1.429 . S
C1745 C1741 1.429 . S
C1745 C1746 1.523 . S
C1746 C1730 1.368 . S
C1746 C1742 1.368 . S
C1746 C1745 1.523 . S
H1747 C1722 0.950 . S
H1748 C1724 0.950 . S
H1749 C1725 0.949 . S
H1750 C1727 0.950 . S
H1751 C1729 0.950 . S
C313 C10 1.440 . S
C318 C205 1.440 . S
C343 C23 1.440 . S
C348 C218 1.440 . S
C373 C231 1.440 . S
C378 C36 1.440 . S
C403 C166 1.440 . S
C408 C49 1.440 . S
C433 C179 1.440 . S
C438 C62 1.440 . S
C463 C192 1.441 . S
C468 C75 1.440 . S
C493 C283 1.440 . S
C498 C88 1.440 . S
C523 C101 1.440 . S
C528 C296 1.440 . S
C553 C309 1.440 . S
C558 C114 1.440 . S
C583 C127 1.440 . S
C588 C244 1.440 . S
C613 C257 1.440 . S
C618 C140 1.441 . S
C643 C153 1.440 . S
C648 C270 1.440 . S
C673 C130 0.997 . S
C678 C0 0.997 . S
C703 C143 0.997 . S
C708 C13 0.997 . S
C733 C26 0.997 . S
C738 C78 0.997 . S
C763 C39 0.997 . S
C768 C91 0.997 . S
C793 C104 0.997 . S
C798 C52 0.997 . S
C823 C65 0.997 . S
C828 C117 0.997 . S
C853 C286 0.997 . S
C858 C156 0.997 . S
C883 C169 0.997 . S
C888 C299 0.997 . S
C913 C182 0.997 . S
C918 C234 0.997 . S
C943 C247 0.997 . S
C948 C195 0.997 . S
C973 C208 0.997 . S
C978 C260 0.997 . S
C1003 C221 0.997 . S
C1008 C273 0.997 . S
C1033 C5 1.101 . S
C1038 C239 1.101 . S
C1063 C252 1.101 . S
C1068 C18 1.101 . S
C1093 C31 1.101 . S
C1098 C265 1.101 . S
C1123 C44 1.101 . S
C1128 C278 1.101 . S
C1153 C291 1.101 . S
C1158 C57 1.101 . S
C1183 C70 1.101 . S
C1188 C304 1.101 . S
C1213 C83 1.101 . S
C1218 C161 1.101 . S
C1243 C96 1.101 . S
C1248 C174 1.101 . S
C1273 C187 1.101 . S
C1278 C109 1.101 . S
C1303 C200 1.101 . S
C1308 C122 1.101 . S
C1333 C135 1.101 . S
C1338 C213 1.101 . S
C1363 C226 1.101 . S
C1368 C148 1.101 . S
C1393 C86 1.503 . S
C1398 C8 1.503 . S
C1423 C21 1.503 . S
C1428 C99 1.503 . S
C1453 C112 1.503 . S
C1458 C34 1.503 . S
C1483 C125 1.503 . S
C1488 C47 1.503 . S
C1513 C138 1.503 . S
C1518 C60 1.503 . S
C1543 C73 1.503 . S
C1548 C151 1.503 . S
C1573 C242 1.503 . S
C1578 C164 1.503 . S
C1603 C177 1.503 . S
C1608 C255 1.503 . S
C1633 C268 1.503 . S
C1638 C190 1.503 . S
C1663 C281 1.503 . S
C1668 C203 1.503 . S
C1693 C216 1.503 . S
C1698 C294 1.503 . S
C1723 C229 1.503 . S
C1728 C307 1.503 . S
