# Generated by pormake.
# Topology lcy-e, (6)-cn, num edge types: 1
# Building blocks:
#     Node 0, Type 0, BuildingBlock: GEDQOX_clean_sbu_0, # of connection points: 6
#     Node 1, Type 0, BuildingBlock: GEDQOX_clean_sbu_0, # of connection points: 6
#     Node 2, Type 0, BuildingBlock: GEDQOX_clean_sbu_0, # of connection points: 6
#     Node 3, Type 0, BuildingBlock: GEDQOX_clean_sbu_0, # of connection points: 6
#     Node 4, Type 0, BuildingBlock: GEDQOX_clean_sbu_0, # of connection points: 6
#     Node 5, Type 0, BuildingBlock: GEDQOX_clean_sbu_0, # of connection points: 6
#     Node 6, Type 0, BuildingBlock: GEDQOX_clean_sbu_0, # of connection points: 6
#     Node 7, Type 0, BuildingBlock: GEDQOX_clean_sbu_0, # of connection points: 6
#     Node 8, Type 0, BuildingBlock: GEDQOX_clean_sbu_0, # of connection points: 6
#     Node 9, Type 0, BuildingBlock: GEDQOX_clean_sbu_0, # of connection points: 6
#     Node 10, Type 0, BuildingBlock: GEDQOX_clean_sbu_0, # of connection points: 6
#     Node 11, Type 0, BuildingBlock: GEDQOX_clean_sbu_0, # of connection points: 6
#     Edge 12, Type (0, 0), BuildingBlock: KIFKEQ_clean_linker_1, # of connection points: 2
#     Edge 13, Type (0, 0), BuildingBlock: KIFKEQ_clean_linker_1, # of connection points: 2
#     Edge 14, Type (0, 0), BuildingBlock: KIFKEQ_clean_linker_1, # of connection points: 2
#     Edge 15, Type (0, 0), BuildingBlock: KIFKEQ_clean_linker_1, # of connection points: 2
#     Edge 16, Type (0, 0), BuildingBlock: KIFKEQ_clean_linker_1, # of connection points: 2
#     Edge 17, Type (0, 0), BuildingBlock: KIFKEQ_clean_linker_1, # of connection points: 2
#     Edge 18, Type (0, 0), BuildingBlock: KIFKEQ_clean_linker_1, # of connection points: 2
#     Edge 19, Type (0, 0), BuildingBlock: KIFKEQ_clean_linker_1, # of connection points: 2
#     Edge 20, Type (0, 0), BuildingBlock: KIFKEQ_clean_linker_1, # of connection points: 2
#     Edge 21, Type (0, 0), BuildingBlock: KIFKEQ_clean_linker_1, # of connection points: 2
#     Edge 22, Type (0, 0), BuildingBlock: KIFKEQ_clean_linker_1, # of connection points: 2
#     Edge 23, Type (0, 0), BuildingBlock: KIFKEQ_clean_linker_1, # of connection points: 2
#     Edge 24, Type (0, 0), BuildingBlock: KIFKEQ_clean_linker_1, # of connection points: 2
#     Edge 25, Type (0, 0), BuildingBlock: KIFKEQ_clean_linker_1, # of connection points: 2
#     Edge 26, Type (0, 0), BuildingBlock: KIFKEQ_clean_linker_1, # of connection points: 2
#     Edge 27, Type (0, 0), BuildingBlock: KIFKEQ_clean_linker_1, # of connection points: 2
#     Edge 28, Type (0, 0), BuildingBlock: KIFKEQ_clean_linker_1, # of connection points: 2
#     Edge 29, Type (0, 0), BuildingBlock: KIFKEQ_clean_linker_1, # of connection points: 2
#     Edge 30, Type (0, 0), BuildingBlock: KIFKEQ_clean_linker_1, # of connection points: 2
#     Edge 31, Type (0, 0), BuildingBlock: KIFKEQ_clean_linker_1, # of connection points: 2
#     Edge 32, Type (0, 0), BuildingBlock: KIFKEQ_clean_linker_1, # of connection points: 2
#     Edge 33, Type (0, 0), BuildingBlock: KIFKEQ_clean_linker_1, # of connection points: 2
#     Edge 34, Type (0, 0), BuildingBlock: KIFKEQ_clean_linker_1, # of connection points: 2
#     Edge 35, Type (0, 0), BuildingBlock: KIFKEQ_clean_linker_1, # of connection points: 2
#     Edge 36, Type (0, 0), BuildingBlock: KIFKEQ_clean_linker_1, # of connection points: 2
#     Edge 37, Type (0, 0), BuildingBlock: KIFKEQ_clean_linker_1, # of connection points: 2
#     Edge 38, Type (0, 0), BuildingBlock: KIFKEQ_clean_linker_1, # of connection points: 2
#     Edge 39, Type (0, 0), BuildingBlock: KIFKEQ_clean_linker_1, # of connection points: 2
#     Edge 40, Type (0, 0), BuildingBlock: KIFKEQ_clean_linker_1, # of connection points: 2
#     Edge 41, Type (0, 0), BuildingBlock: KIFKEQ_clean_linker_1, # of connection points: 2
#     Edge 42, Type (0, 0), BuildingBlock: KIFKEQ_clean_linker_1, # of connection points: 2
#     Edge 43, Type (0, 0), BuildingBlock: KIFKEQ_clean_linker_1, # of connection points: 2
#     Edge 44, Type (0, 0), BuildingBlock: KIFKEQ_clean_linker_1, # of connection points: 2
#     Edge 45, Type (0, 0), BuildingBlock: KIFKEQ_clean_linker_1, # of connection points: 2
#     Edge 46, Type (0, 0), BuildingBlock: KIFKEQ_clean_linker_1, # of connection points: 2
#     Edge 47, Type (0, 0), BuildingBlock: KIFKEQ_clean_linker_1, # of connection points: 2
# Relax obj value: 0.347
# Max RMSD: 0.340
# Mean RMSD: 0.259
data_MOF--net-lcy-e--node1-GEDQOX_clean_sbu_0--edge1-KIFKEQ_clean_linker_1
_symmetry_space_group_name_H-M    P1
_symmetry_Int_Tables_number       1
_symmetry_cell_setting            triclinic
loop_
_symmetry_equiv_pos_as_xyz
'x, y, z'
_cell_length_a     37.438031
_cell_length_b     45.784304
_cell_length_c     43.564191
_cell_angle_alpha  90.669123
_cell_angle_beta   87.170159
_cell_angle_gamma 77.50559
loop_
_atom_site_label
_atom_site_type_symbol
_atom_site_fract_x
_atom_site_fract_y
_atom_site_fract_z
_atom_type_partial_charge
Nd0 Nd 0.13167 0.23271 0.48556 0.0
Nd1 Nd 0.18893 0.25187 0.51822 0.0
C2 C 0.07538 0.21152 0.46553 0.0
C3 C 0.04941 0.19073 0.46922 0.0
C4 C 0.06181 0.16005 0.47495 0.0
C5 C 0.03812 0.13998 0.47337 0.0
C6 C 1.00117 0.14981 0.46594 0.0
C7 C 0.98864 0.18073 0.46122 0.0
C8 C 1.01236 0.20076 0.46276 0.0
C9 C 0.19985 0.21878 0.45356 0.0
C10 C 0.16745 0.18991 0.54045 0.0
C11 C 0.24812 0.26499 0.54027 0.0
C12 C 0.26363 0.29176 0.53518 0.0
C13 C 0.27201 0.30026 0.50519 0.0
C14 C 0.28135 0.32777 0.50009 0.0
C15 C 0.2822 0.34761 0.52477 0.0
C16 C 0.2753 0.33859 0.55487 0.0
C17 C 0.26613 0.31091 0.56 0.0
C18 C 0.12127 0.27844 0.54603 0.0
C19 C 0.15761 0.29106 0.45911 0.0
O20 O 0.07086 0.23606 0.4825 0.0
O21 O 0.10988 0.19964 0.45883 0.0
O22 O 0.16918 0.22949 0.44108 0.0
O23 O 0.19392 0.21546 0.48203 0.0
O24 O 0.14537 0.19334 0.5176 0.0
O25 O 0.18745 0.20962 0.54637 0.0
O26 O 0.24921 0.24704 0.51653 0.0
O27 O 0.2167 0.26963 0.55594 0.0
O28 O 0.14534 0.29298 0.53567 0.0
O29 O 0.13059 0.25148 0.53572 0.0
O30 O 0.18626 0.28188 0.47571 0.0
O31 O 0.12845 0.27915 0.4632 0.0
H32 H 0.09017 0.15135 0.47988 0.0
H33 H 0.04899 0.11661 0.47777 0.0
H34 H 0.96073 0.18945 0.45511 0.0
H35 H 1.00195 0.22408 0.45773 0.0
H36 H 0.27025 0.28612 0.48546 0.0
H37 H 0.28735 0.33368 0.47669 0.0
H38 H 0.27555 0.35337 0.5744 0.0
H39 H 0.25957 0.30499 0.58329 0.0
Nd40 Nd 0.03082 0.92682 0.73695 0.0
Nd41 Nd 1.01626 0.8655 0.73718 0.0
C42 C 0.03245 0.98453 0.73614 0.0
C43 C 0.04686 1.0055 0.71609 0.0
C44 C 0.05222 1.00046 0.6842 0.0
C45 C 0.06868 1.01949 0.66603 0.0
C46 C 0.08039 0.04376 0.67945 0.0
C47 C 0.07462 0.04871 0.71144 0.0
C48 C 0.05803 0.02979 0.72951 0.0
C49 C 0.08403 0.8845 0.70573 0.0
C50 C 0.98207 0.90549 0.68064 0.0
C51 C 0.02335 0.80701 0.73923 0.0
C52 C 0.05009 0.78383 0.75401 0.0
C53 C 0.08728 0.78521 0.75383 0.0
C54 C 0.11118 0.76642 0.77242 0.0
C55 C 0.09825 0.74615 0.79176 0.0
C56 C 0.06149 0.74368 0.79039 0.0
C57 C 0.03769 0.76232 0.77166 0.0
C58 C 0.95999 0.90798 0.76488 0.0
C59 C 0.06759 0.88405 0.79086 0.0
O60 O 1.00481 0.97403 0.72699 0.0
O61 O 0.05716 0.96415 0.74838 0.0
O62 O 0.0915 0.90577 0.72232 0.0
O63 O 0.05017 0.8872 0.70508 0.0
O64 O 0.99044 0.92824 0.69618 0.0
O65 O 0.9922 0.87786 0.69039 0.0
O66 O 0.03605 0.82034 0.71606 0.0
O67 O 1.00095 0.82567 0.75806 0.0
O68 O 0.95523 0.88619 0.74728 0.0
O69 O 0.99374 0.90648 0.7684 0.0
O70 O 0.06241 0.86245 0.77223 0.0
O71 O 0.05161 0.9121 0.78521 0.0
H72 H 0.04412 0.98164 0.6734 0.0
H73 H 0.07215 1.0152 0.64145 0.0
H74 H 0.08373 0.0668 0.72272 0.0
H75 H 0.05458 0.0338 0.75415 0.0
H76 H 0.09756 0.80174 0.74046 0.0
H77 H 0.13938 0.76867 0.77262 0.0
H78 H 0.05033 0.72872 0.80529 0.0
H79 H 1.00909 0.76106 0.77226 0.0
Nd80 Nd 0.31693 0.83739 0.98832 0.0
Nd81 Nd 0.27715 0.80228 1.02739 0.0
C82 C 0.35999 0.86913 0.96001 0.0
C83 C 0.38953 0.88557 0.96412 0.0
C84 C 0.41251 0.88034 0.98895 0.0
C85 C 0.44311 0.8935 0.9901 0.0
C86 C 0.45145 0.91209 0.96639 0.0
C87 C 0.42774 0.91762 0.94195 0.0
C88 C 0.39724 0.90457 0.9409 0.0
C89 C 0.25364 0.82841 0.96017 0.0
C90 C 0.27761 0.87087 0.05161 0.0
C91 C 0.23777 0.7683 0.05768 0.0
C92 C 0.24399 0.7366 0.06901 0.0
C93 C 0.21988 0.71803 0.06193 0.0
C94 C 0.22454 0.6887 0.07324 0.0
C95 C 0.25355 0.67672 0.09218 0.0
C96 C 0.27783 0.69538 0.09899 0.0
C97 C 0.27318 0.72467 0.08762 0.0
C98 C 0.34856 0.79688 1.04467 0.0
C99 C 0.33615 0.76763 0.97701 0.0
O100 O 0.36875 0.84017 0.96315 0.0
O101 O 0.32678 0.88099 0.97101 0.0
O102 O 0.28577 0.82638 0.94702 0.0
O103 O 0.25532 0.83471 0.98865 0.0
O104 O 0.29813 0.87255 1.02656 0.0
O105 O 0.26386 0.8468 0.057 0.0
O106 O 0.2369 0.77233 1.02801 0.0
O107 O 0.25447 0.78685 0.07108 0.0
O108 O 0.33253 0.77469 1.04193 0.0
O109 O 0.32756 0.82049 1.03636 0.0
O110 O 0.30224 0.76965 0.98771 0.0
O111 O 0.35167 0.79044 0.97998 0.0
H112 H 0.40725 0.8656 1.0071 0.0
H113 H 0.4603 0.88895 1.00951 0.0
H114 H 0.43334 0.93127 0.92295 0.0
H115 H 0.38024 0.90861 0.9213 0.0
H116 H 0.19712 0.72629 1.04767 0.0
H117 H 0.20541 0.67534 0.06679 0.0
H118 H 0.30025 0.68766 0.11371 0.0
H119 H 0.29243 0.73809 0.09371 0.0
Nd120 Nd 0.46204 0.11081 0.25679 0.0
Nd121 Nd 0.50205 0.15646 0.26861 0.0
C122 C 0.43484 0.06264 0.24491 0.0
C123 C 0.41969 0.04374 0.22307 0.0
C124 C 0.42101 1.01366 0.23002 0.0
C125 C 0.40312 0.99599 0.21228 0.0
C126 C 0.3834 1.00785 0.18688 0.0
C127 C 0.38297 0.03786 0.17941 0.0
C128 C 0.40071 0.05564 0.19739 0.0
C129 C 0.4263 0.16832 0.24006 0.0
C130 C 0.52439 0.12166 0.2034 0.0
C131 C 0.52304 0.20599 0.28399 0.0
C132 C 0.50559 0.23534 0.29801 0.0
C133 C 0.4716 0.25149 0.28887 0.0
C134 C 0.45476 0.27867 0.30353 0.0
C135 C 0.47135 0.28997 0.328 0.0
C136 C 0.5056 0.27367 0.33681 0.0
C137 C 0.52259 0.24681 0.32182 0.0
C138 C 0.54312 0.10106 0.28377 0.0
C139 C 0.43437 0.14883 0.31706 0.0
O140 O 0.46995 0.06209 0.24371 0.0
O141 O 0.41501 0.089 0.2526 0.0
O142 O 0.4101 0.14933 0.25354 0.0
O143 O 0.45955 0.1562 0.23485 0.0
O144 O 0.50294 0.10397 0.21373 0.0
O145 O 0.52667 0.14579 0.21937 0.0
O146 O 0.51374 0.20035 0.25638 0.0
O147 O 0.52566 0.18306 0.30198 0.0
O148 O 0.55503 0.12121 0.26822 0.0
O149 O 0.50862 0.10978 0.29029 0.0
O150 O 0.45024 0.16825 0.30252 0.0
O151 O 0.44247 0.1207 0.30741 0.0
H152 H 0.43519 1.00395 0.2498 0.0
H153 H 0.40469 0.97294 0.21856 0.0
H154 H 0.36795 0.04794 0.16021 0.0
H155 H 0.39888 0.07885 0.19164 0.0
H156 H 0.45778 0.2429 0.27077 0.0
H157 H 0.4286 0.29057 0.2959 0.0
H158 H 0.51889 0.28098 0.35608 0.0
H159 H 0.54865 0.23457 0.3294 0.0
Nd160 Nd 0.609 0.35024 0.60253 0.0
Nd161 Nd 0.52942 0.34457 0.60802 0.0
C162 C 0.67901 0.3496 0.59154 0.0
C163 C 0.70709 0.35969 0.60855 0.0
C164 C 0.74349 0.34373 0.60546 0.0
C165 C 0.76996 0.35192 0.62319 0.0
C166 C 0.76032 0.37626 0.64417 0.0
C167 C 0.72399 0.39275 0.64654 0.0
C168 C 0.69751 0.38442 0.62899 0.0
C169 C 0.56067 0.39972 0.62854 0.0
C170 C 0.5776 0.32816 0.66699 0.0
C171 C 0.45886 0.34828 0.60249 0.0
C172 C 0.43347 0.36175 0.57923 0.0
C173 C 0.43442 0.38988 0.56714 0.0
C174 C 0.4192 0.39811 0.53896 0.0
C175 C 0.40395 0.3779 0.52185 0.0
C176 C 0.40009 0.35099 0.53578 0.0
C177 C 0.41423 0.34327 0.56426 0.0
C178 C 0.57968 0.29161 0.59812 0.0
C179 C 0.56109 0.37029 0.54423 0.0
O180 O 0.66737 0.32677 0.60296 0.0
O181 O 0.6526 0.37074 0.58226 0.0
O182 O 0.59345 0.39006 0.63772 0.0
O183 O 0.55571 0.3838 0.60634 0.0
O184 O 0.60637 0.32525 0.64745 0.0
O185 O 0.54417 0.34084 0.65888 0.0
O186 O 0.47136 0.36621 0.62094 0.0
O187 O 0.48432 0.32577 0.59168 0.0
O188 O 0.55107 0.29482 0.6168 0.0
O189 O 0.58066 0.31561 0.5846 0.0
O190 O 0.53197 0.36964 0.56242 0.0
O191 O 0.59424 0.35826 0.55264 0.0
H192 H 0.75128 0.32458 0.58981 0.0
H193 H 0.79786 0.33896 0.62084 0.0
H194 H 0.71577 0.41134 0.66284 0.0
H195 H 0.66941 0.3969 0.63188 0.0
H196 H 0.4491 0.40464 0.57829 0.0
H197 H 0.42154 0.41954 0.52989 0.0
H198 H 0.38893 0.33443 0.52389 0.0
H199 H 0.41328 0.32142 0.57315 0.0
Nd200 Nd 1.00485 0.35667 0.83682 0.0
Nd201 Nd 0.03227 0.40351 0.804 0.0
C202 C 0.9736 0.31384 0.85911 0.0
C203 C 0.95459 0.29089 0.87267 0.0
C204 C 0.96518 0.26037 0.8641 0.0
C205 C 0.94573 0.23944 0.87604 0.0
C206 C 0.91512 0.2484 0.89697 0.0
C207 C 0.90528 0.2789 0.90597 0.0
C208 C 0.92454 0.29972 0.89398 0.0
C209 C 1.00037 0.40876 0.87259 0.0
C210 C 0.9505 0.39641 0.78971 0.0
C211 C 0.04711 0.45327 0.78137 0.0
C212 C 0.07811 0.46645 0.77192 0.0
C213 C 0.11425 0.44969 0.77128 0.0
C214 C 0.14331 0.46294 0.7621 0.0
C215 C 0.13653 0.49314 0.75361 0.0
C216 C 0.10018 0.50977 0.75466 0.0
C217 C 0.07127 0.49652 0.76376 0.0
C218 C 0.05502 0.3492 0.77163 0.0
C219 C 0.08305 0.36584 0.85456 0.0
O220 O 1.00487 0.30765 0.8428 0.0
O221 O 0.95976 0.34244 0.86327 0.0
O222 O 1.01087 0.38183 0.88237 0.0
O223 O 0.99206 0.40757 0.84485 0.0
O224 O 0.95692 0.37251 0.80667 0.0
O225 O 0.97442 0.41348 0.78614 0.0
O226 O 0.04283 0.44882 0.81074 0.0
O227 O 0.04136 0.43132 0.76424 0.0
O228 O 0.07629 0.36689 0.77887 0.0
O229 O 0.02348 0.35872 0.78517 0.0
O230 O 0.07326 0.39216 0.84186 0.0
O231 O 0.0652 0.34459 0.84897 0.0
H232 H 0.9881 0.2527 0.84771 0.0
H233 H 0.95418 0.21634 0.86819 0.0
H234 H 0.88258 0.28687 0.92247 0.0
H235 H 0.91565 0.32293 0.9014 0.0
H236 H 0.11991 0.42643 0.77777 0.0
H237 H 0.17102 0.44962 0.7617 0.0
H238 H 0.09393 0.53288 0.74772 0.0
H239 H 0.04347 0.50973 0.76419 0.0
Nd240 Nd 0.91167 0.62687 0.07837 0.0
Nd241 Nd 0.98581 0.64064 0.0672 0.0
C242 C 0.84335 0.62069 0.07639 0.0
C243 C 0.80801 0.63368 0.09248 0.0
C244 C 0.79613 0.66471 0.09727 0.0
C245 C 0.7646 0.67622 0.11578 0.0
C246 C 0.74478 0.65687 0.13019 0.0
C247 C 0.75601 0.62589 0.12419 0.0
C248 C 0.78724 0.61446 0.1054 0.0
C249 C 0.96365 0.59586 0.11517 0.0
C250 C 0.93268 0.67301 0.12658 0.0
C251 C 0.05346 0.64971 0.0672 0.0
C252 C 0.07686 0.66224 1.04516 0.0
C253 C 0.1131 0.64683 1.03817 0.0
C254 C 0.13376 0.65595 1.01391 0.0
C255 C 0.11848 0.68075 0.99646 0.0
C256 C 0.08284 0.69702 1.00468 0.0
C257 C 0.06218 0.68779 1.02867 0.0
C258 C 0.93167 0.67908 1.03673 0.0
C259 C 0.96503 0.59004 1.02132 0.0
O260 O 0.85753 0.63808 0.05796 0.0
O261 O 0.86754 0.60407 0.09311 0.0
O262 O 0.92948 0.60499 0.12431 0.0
O263 O 0.96857 0.60094 0.08704 0.0
O264 O 0.90488 0.66649 0.1124 0.0
O265 O 0.96694 0.66102 0.11657 0.0
O266 O 0.04586 0.62446 0.0586 0.0
O267 O 0.02498 0.66826 0.07994 0.0
O268 O 0.96459 0.66834 1.02506 0.0
O269 O 0.92884 0.66908 0.06331 0.0
O270 O 0.9922 0.60088 1.03194 0.0
O271 O 0.9313 0.59948 1.03321 0.0
H272 H 0.81175 0.68004 0.08754 0.0
H273 H 0.75636 0.70022 0.11951 0.0
H274 H 0.74184 0.61026 0.13524 0.0
H275 H 0.79608 0.59043 0.10201 0.0
H276 H 0.12484 0.627 1.05061 0.0
H277 H 0.16116 0.64305 1.00813 0.0
H278 H 0.06997 0.71587 0.99135 0.0
H279 H 0.03415 0.69988 1.03333 0.0
Nd280 Nd 0.57536 0.6951 0.39255 0.0
Nd281 Nd 0.52861 0.74754 0.37192 0.0
C282 C 0.6049 0.64387 0.4185 0.0
C283 C 0.59631 0.6144 0.42478 0.0
C284 C 0.56166 0.61169 0.43683 0.0
C285 C 0.55507 0.58351 0.44418 0.0
C286 C 0.58295 0.5575 0.43953 0.0
C287 C 0.61716 0.56036 0.42647 0.0
C288 C 0.62376 0.58848 0.4193 0.0
C289 C 0.60813 0.74426 0.39648 0.0
C290 C 0.51074 0.73128 0.43852 0.0
C291 C 0.4983 0.79555 0.34144 0.0
C292 C 0.48704 0.79708 0.30941 0.0
C293 C 0.47209 0.82447 0.29611 0.0
C294 C 0.4608 0.82518 0.26579 0.0
C295 C 0.46414 0.79848 0.24839 0.0
C296 C 0.47975 0.77119 0.26181 0.0
C297 C 0.49103 0.77051 0.29194 0.0
C298 C 0.49615 0.69862 0.36773 0.0
C299 C 0.58663 0.70652 0.32243 0.0
O300 O 0.61179 0.64964 0.38984 0.0
O301 O 0.58542 0.66708 0.43375 0.0
O302 O 0.62442 0.71773 0.38672 0.0
O303 O 0.57499 0.74466 0.4043 0.0
O304 O 0.52578 0.70458 0.42693 0.0
O305 O 0.51429 0.75527 0.42342 0.0
O306 O 0.53352 0.78741 0.34472 0.0
O307 O 0.47967 0.7817 0.36018 0.0
O308 O 0.47927 0.72521 0.37681 0.0
O309 O 0.5293 0.69827 0.36026 0.0
O310 O 0.57065 0.73396 0.33118 0.0
O311 O 0.58702 0.68452 0.34146 0.0
H312 H 0.53986 0.63135 0.44107 0.0
H313 H 0.5285 0.58226 0.45438 0.0
H314 H 0.63906 0.54084 0.42193 0.0
H315 H 0.65057 0.59 0.40979 0.0
H316 H 0.46883 0.84521 0.30922 0.0
H317 H 0.44867 0.84656 0.25624 0.0
H318 H 0.48334 0.75025 0.24899 0.0
H319 H 0.50267 0.74912 0.30173 0.0
Nd320 Nd 0.23301 0.41806 0.20527 0.0
Nd321 Nd 0.2554 0.45442 0.25143 0.0
C322 C 0.21389 0.39029 0.15693 0.0
C323 C 0.1984 0.39119 0.12625 0.0
C324 C 0.20534 0.41128 0.10374 0.0
C325 C 0.19388 0.40895 0.07373 0.0
C326 C 0.17539 0.38643 0.06561 0.0
C327 C 0.1679 0.36688 0.08859 0.0
C328 C 0.17921 0.36929 0.11847 0.0
C329 C 0.22216 0.39632 0.26445 0.0
C330 C 0.17555 0.47958 0.22333 0.0
C331 C 0.27205 0.48714 0.29754 0.0
C332 C 0.29893 0.50579 0.3039 0.0
C333 C 0.31095 0.5074 0.33375 0.0
C334 C 0.33489 0.52597 0.34072 0.0
C335 C 0.34748 0.54358 0.31798 0.0
C336 C 0.33591 0.54141 0.28785 0.0
C337 C 0.31197 0.52275 0.2809 0.0
C338 C 0.27755 0.47128 0.19325 0.0
C339 C 0.30839 0.39064 0.23119 0.0
O340 O 0.24604 0.39685 0.15903 0.0
O341 O 0.19187 0.39867 0.18122 0.0
O342 O 0.23386 0.38009 0.24006 0.0
O343 O 0.21552 0.42369 0.25746 0.0
O344 O 0.18638 0.45845 0.20218 0.0
O345 O 0.19519 0.48125 0.24753 0.0
O346 O 0.28446 0.45828 0.2944 0.0
O347 O 0.24739 0.49729 0.27791 0.0
O348 O 0.29851 0.46554 0.21617 0.0
O349 O 0.24761 0.46399 0.20049 0.0
O350 O 0.29414 0.40725 0.25562 0.0
O351 O 0.29445 0.39822 0.20469 0.0
H352 H 0.22021 0.42835 0.10915 0.0
H353 H 0.19968 0.42472 0.05688 0.0
H354 H 0.15433 0.34895 0.08331 0.0
H355 H 0.17394 0.35332 0.13534 0.0
H356 H 0.30147 0.49445 0.35187 0.0
H357 H 0.34357 0.52648 0.36402 0.0
H358 H 0.34457 0.55474 0.26973 0.0
H359 H 0.30323 0.52193 0.25763 0.0
Nd360 Nd 0.69234 0.06796 0.93399 0.0
Nd361 Nd 0.74179 0.03461 0.97507 0.0
C362 C 0.65694 0.10036 0.89005 0.0
C363 C 0.64941 0.12916 0.87398 0.0
C364 C 0.6775 0.1433 0.86388 0.0
C365 C 0.66965 0.16876 0.84568 0.0
C366 C 0.63358 0.18059 0.83722 0.0
C367 C 0.60546 0.16687 0.84833 0.0
C368 C 0.61333 0.14148 0.86644 0.0
C369 C 0.66447 0.07458 0.99466 0.0
C370 C 0.75842 0.09833 0.95711 0.0
C371 C 0.77675 0.99609 1.01493 0.0
C372 C 0.78887 0.96305 1.0162 0.0
C373 C 0.78167 0.94431 0.99257 0.0
C374 C 0.79475 0.91314 0.99335 0.0
C375 C 0.81538 0.89993 1.0178 0.0
C376 C 0.82227 0.91894 1.04149 0.0
C377 C 0.8092 0.95006 1.04065 0.0
C378 C 0.7689 0.02658 0.91492 0.0
C379 C 0.67363 1.00639 0.94988 0.0
O380 O 0.68929 0.0827 0.88566 0.0
O381 O 0.64325 0.09976 0.9181 0.0
O382 O 0.64639 0.06999 0.97116 0.0
O383 O 0.69716 0.07566 0.98626 0.0
O384 O 0.73577 0.09638 0.93539 0.0
O385 O 0.76208 0.07899 0.97978 0.0
O386 O 0.74156 1.00731 1.01719 0.0
O387 O 0.79321 1.00904 0.99379 0.0
O388 O 0.78706 0.03228 0.93776 0.0
O389 O 0.7364 0.02565 0.92383 0.0
O390 O 0.69511 1.00787 0.9728 0.0
O391 O 0.67334 0.02475 0.927 0.0
H392 H 0.70558 0.13433 0.86946 0.0
H393 H 0.69192 0.17898 0.83794 0.0
H394 H 0.57749 0.17501 0.84204 0.0
H395 H 0.59125 0.13084 0.87379 0.0
H396 H 0.76611 0.95382 0.97338 0.0
H397 H 0.78843 0.89939 0.97487 0.0
H398 H 0.83846 0.90986 0.06046 0.0
H399 H 0.81539 0.96405 0.05901 0.0
Nd400 Nd 0.82304 0.93515 0.41775 0.0
Nd401 Nd 0.77441 0.9613 0.46658 0.0
C402 C 0.85946 0.90376 0.36935 0.0
C403 C 0.86064 0.88092 0.34426 0.0
C404 C 0.87337 0.8864 0.31444 0.0
C405 C 0.87976 0.86393 0.2913 0.0
C406 C 0.87375 0.8351 0.29724 0.0
C407 C 0.85985 0.82995 0.32694 0.0
C408 C 0.85346 0.85248 0.35012 0.0
C409 C 0.8542 0.92693 0.47529 0.0
C410 C 0.75953 0.90016 0.44104 0.0
C411 C 0.74397 0.99006 0.5176 0.0
C412 C 0.73288 0.02198 0.52678 0.0
C413 C 0.74875 0.03287 0.55179 0.0
C414 C 0.73964 0.06331 0.55993 0.0
C415 C 0.71431 0.08341 0.54326 0.0
C416 C 0.69841 0.07236 0.51826 0.0
C417 C 0.7077 0.04204 0.51002 0.0
C418 C 0.73926 0.97367 0.41228 0.0
C419 C 0.83645 0.99868 0.43887 0.0
O420 O 0.83893 0.93062 0.3672 0.0
O421 O 0.86111 0.89474 0.39766 0.0
O422 O 0.87019 0.93459 0.45058 0.0
O423 O 0.82264 0.92322 0.46926 0.0
O424 O 0.77829 0.90746 0.41707 0.0
O425 O 0.75891 0.915 0.4673 0.0
O426 O 0.77912 0.97935 0.51341 0.0
O427 O 0.72529 0.98051 0.49663 0.0
O428 O 0.7252 0.96526 0.43743 0.0
O429 O 0.77279 0.97495 0.41556 0.0
O430 O 0.81157 0.99625 0.46082 0.0
O431 O 0.84405 0.97867 0.41618 0.0
H432 H 0.87941 0.90795 0.3092 0.0
H433 H 0.88972 0.86918 0.26873 0.0
H434 H 0.85506 0.80813 0.33271 0.0
H435 H 0.84388 0.84734 0.37286 0.0
H436 H 0.76847 1.01785 0.56489 0.0
H437 H 0.75266 0.07112 0.57912 0.0
H438 H 0.67826 0.08706 0.50529 0.0
H439 H 0.69512 0.0344 0.49047 0.0
Nd440 Nd 0.33943 0.65532 0.66907 0.0
Nd441 Nd 0.32126 0.64663 0.59833 0.0
C442 C 0.3417 0.66065 0.72902 0.0
C443 C 0.3687 0.65692 0.75298 0.0
C444 C 0.37816 0.68225 0.76574 0.0
C445 C 0.39881 0.67981 0.79164 0.0
C446 C 0.41025 0.65198 0.80558 0.0
C447 C 0.40315 0.62625 0.79141 0.0
C448 C 0.38244 0.6287 0.76537 0.0
C449 C 0.37461 0.68331 0.62544 0.0
C450 C 0.2653 0.69625 0.64148 0.0
C451 C 0.32461 0.6418 0.53831 0.0
C452 C 0.33047 0.61339 0.52041 0.0
C453 C 0.30459 0.60871 0.49972 0.0
C454 C 0.30369 0.57963 0.48988 0.0
C455 C 0.32833 0.55469 0.50097 0.0
C456 C 0.35621 0.55984 0.51947 0.0
C457 C 0.35737 0.5888 0.52889 0.0
C458 C 0.29153 0.60862 0.63553 0.0
C459 C 0.39102 0.60107 0.63015 0.0
O460 O 0.34054 0.68326 0.71058 0.0
O461 O 0.33699 0.63631 0.71518 0.0
O462 O 0.39015 0.67208 0.64999 0.0
O463 O 0.34193 0.68066 0.62563 0.0
O464 O 0.28091 0.6824 0.66545 0.0
O465 O 0.27822 0.68921 0.6128 0.0
O466 O 0.35247 0.64609 0.5537 0.0
O467 O 0.29328 0.64861 0.55452 0.0
O468 O 0.2877 0.60993 0.60614 0.0
O469 O 0.30991 0.62714 0.64307 0.0
O470 O 0.37619 0.61271 0.60472 0.0
O471 O 0.37924 0.61163 0.65792 0.0
H472 H 0.36787 0.70429 0.75679 0.0
H473 H 0.40305 0.70027 0.80214 0.0
H474 H 0.41175 0.60451 0.80149 0.0
H475 H 0.37574 0.60868 0.75593 0.0
H476 H 0.28353 0.62729 0.49286 0.0
H477 H 0.28244 0.57666 0.47493 0.0
H478 H 0.37557 0.54148 0.52882 0.0
H479 H 0.37774 0.59157 0.5448 0.0
H480 H 0.32301 0.37868 0.55776 0.0
H481 H 0.25663 0.3854 0.47863 0.0
H482 H 0.33507 0.42809 0.54726 0.0
H483 H 0.26908 0.43466 0.4682 0.0
H484 H 0.26286 0.5371 0.49863 0.0
H485 H 0.25256 0.48649 0.50105 0.0
H486 H 0.36908 0.45107 0.4997 0.0
H487 H 0.37998 0.50153 0.49529 0.0
C488 C 0.31089 0.39067 0.53823 0.0
C489 C 0.28911 0.37792 0.51891 0.0
C490 C 0.31813 0.41878 0.53206 0.0
C491 C 0.30333 0.43488 0.50673 0.0
C492 C 0.28102 0.42252 0.48773 0.0
C493 C 0.27411 0.39427 0.49366 0.0
C494 C 0.28649 0.51863 0.49768 0.0
C495 C 0.32234 0.52369 0.49703 0.0
C496 C 0.28046 0.48961 0.49937 0.0
C497 C 0.31003 0.46505 0.501 0.0
C498 C 0.34585 0.46976 0.49892 0.0
C499 C 0.35198 0.49872 0.49654 0.0
H500 H 0.82253 0.04636 0.88417 0.0
H501 H 0.76243 0.97607 0.88238 0.0
H502 H 0.86632 1.01984 0.84478 0.0
H503 H 0.80729 0.94849 0.84358 0.0
H504 H 0.88635 0.91232 0.76124 0.0
H505 H 0.83633 0.9432 0.79303 0.0
H506 H 0.91531 0.97797 0.84337 0.0
H507 H 0.96494 0.94785 0.81094 0.0
C508 C 0.81835 0.02539 0.87479 0.0
C509 C 0.78899 1.01336 0.88618 0.0
C510 C 0.84381 1.0099 0.85253 0.0
C511 C 0.84112 0.98154 0.84136 0.0
C512 C 0.81035 0.97028 0.85145 0.0
C513 C 0.78444 0.98612 0.8736 0.0
C514 C 0.89293 0.92675 0.779 0.0
C515 C 0.92965 0.92763 0.78357 0.0
C516 C 0.86422 0.94435 0.79738 0.0
C517 C 0.87146 0.96329 0.82088 0.0
C518 C 0.90834 0.96422 0.82519 0.0
C519 C 0.93698 0.94675 0.80672 0.0
H520 H 0.31766 0.63603 0.10467 0.0
H521 H 0.20035 0.64495 0.10901 0.0
H522 H 0.32515 0.58632 0.12609 0.0
H523 H 0.20794 0.59511 0.13022 0.0
H524 H 0.23257 0.49412 0.14706 0.0
H525 H 0.22706 0.54232 0.12184 0.0
H526 H 0.31825 0.55896 0.17102 0.0
H527 H 0.32353 0.51094 0.19604 0.0
C528 C 0.29328 0.62769 0.11035 0.0
C529 C 0.25829 0.64527 0.10492 0.0
C530 C 0.29765 0.59882 0.12273 0.0
C531 C 0.26725 0.58609 0.13019 0.0
C532 C 0.23228 0.6035 0.12448 0.0
C533 C 0.22789 0.63241 0.11217 0.0
C534 C 0.25155 0.50802 0.15238 0.0
C535 C 0.27825 0.49842 0.17393 0.0
C536 C 0.24829 0.53592 0.13798 0.0
C537 C 0.27189 0.55528 0.14436 0.0
C538 C 0.29959 0.54501 0.16502 0.0
C539 C 0.3027 0.51719 0.1795 0.0
H540 H 0.53389 0.07071 0.33813 0.0
H541 H 0.61534 0.08086 0.26801 0.0
H542 H 0.58205 0.03954 0.36719 0.0
H543 H 0.66303 0.04975 0.29643 0.0
H544 H 0.74707 1.01889 0.37106 0.0
H545 H 0.69945 0.04798 0.33984 0.0
H546 H 0.6247 0.99336 0.37076 0.0
H547 H 0.67168 0.96499 0.40182 0.0
C548 C 0.56186 0.0659 0.32859 0.0
C549 C 0.57039 0.07845 0.30056 0.0
C550 C 0.58976 0.04798 0.34531 0.0
C551 C 0.62712 0.04204 0.33458 0.0
C552 C 0.63515 0.05405 0.30612 0.0
C553 C 0.60744 0.07179 0.28953 0.0
C554 C 0.7207 1.01282 0.37075 0.0
C555 C 0.71353 0.98943 0.3891 0.0
C556 C 0.6931 0.02959 0.35286 0.0
C557 C 0.65746 0.02354 0.35277 0.0
C558 C 0.65105 0.9995 0.37047 0.0
C559 C 0.67842 0.98288 0.38817 0.0
H560 H 0.63932 0.27902 0.55726 0.0
H561 H 0.57831 0.23929 0.62561 0.0
H562 H 0.67951 0.22988 0.54572 0.0
H563 H 0.61737 0.1905 0.61373 0.0
H564 H 0.70238 0.10777 0.60155 0.0
H565 H 0.67737 0.1598 0.61655 0.0
H566 H 0.67384 0.18364 0.52089 0.0
H567 H 0.70092 0.13192 0.50592 0.0
C568 C 0.63466 0.25981 0.56986 0.0
C569 C 0.60558 0.26279 0.59207 0.0
C570 C 0.65753 0.23172 0.56323 0.0
C571 C 0.65165 0.20624 0.57879 0.0
C572 C 0.62314 0.20964 0.60166 0.0
C573 C 0.60046 0.23759 0.60826 0.0
C574 C 0.69723 0.12421 0.58372 0.0
C575 C 0.70314 0.11557 0.5525 0.0
C576 C 0.68248 0.15401 0.59232 0.0
C577 C 0.67302 0.17581 0.56991 0.0
C578 C 0.68091 0.16748 0.53876 0.0
C579 C 0.69592 0.13771 0.53016 0.0
H580 H 0.19462 0.46852 0.71419 0.0
H581 H 0.14651 0.54939 0.76655 0.0
H582 H 0.23905 0.49375 0.68949 0.0
H583 H 0.18998 0.57496 0.74094 0.0
H584 H 0.28459 0.61057 0.69852 0.0
H585 H 0.25387 0.57943 0.73152 0.0
H586 H 0.23066 0.53224 0.65092 0.0
H587 H 0.26176 0.56277 0.61843 0.0
C588 C 0.19395 0.4915 0.72086 0.0
C589 C 0.16672 0.50708 0.74201 0.0
C590 C 0.21917 0.50605 0.70649 0.0
C591 C 0.21768 0.53647 0.71293 0.0
C592 C 0.19197 0.55149 0.73553 0.0
C593 C 0.16677 0.53694 0.74993 0.0
C594 C 0.27347 0.59316 0.68808 0.0
C595 C 0.27549 0.58901 0.65604 0.0
C596 C 0.25571 0.57548 0.70687 0.0
C597 C 0.23994 0.55329 0.69384 0.0
C598 C 0.24303 0.54874 0.66178 0.0
C599 C 0.26054 0.56644 0.64312 0.0
H600 H 0.82076 0.86338 0.06788 0.0
H601 H 0.84324 0.86054 0.96959 0.0
H602 H 0.8465 0.80993 0.06971 0.0
H603 H 0.86764 0.80666 0.97125 0.0
H604 H 0.94892 0.71768 0.9932 0.0
H605 H 0.91922 0.77023 0.98726 0.0
H606 H 0.8365 0.76171 0.05727 0.0
H607 H 0.86671 0.7095 0.0636 0.0
C608 C 0.83112 0.85141 1.04658 0.0
C609 C 0.82992 0.86663 1.01861 0.0
C610 C 0.8455 0.82049 1.04757 0.0
C611 C 0.85918 0.80362 1.02061 0.0
C612 C 0.85774 0.81876 0.99257 0.0
C613 C 0.84328 0.84974 0.99158 0.0
C614 C 0.92402 0.72689 1.00692 0.0
C615 C 0.91033 0.70932 1.02897 0.0
C616 C 0.9069 0.75713 1.00353 0.0
C617 C 0.87557 0.77063 1.02207 0.0
C618 C 0.86097 0.7525 1.04305 0.0
C619 C 0.8781 0.72236 1.04646 0.0
H620 H 0.42452 0.69897 0.38126 0.0
H621 H 0.52323 0.64335 0.33948 0.0
H622 H 0.3906 0.66092 0.36955 0.0
H623 H 0.48923 0.60458 0.32812 0.0
H624 H 0.40506 0.5577 0.2833 0.0
H625 H 0.44215 0.59367 0.29568 0.0
H626 H 0.38262 0.61253 0.38363 0.0
H627 H 0.34468 0.57771 0.37081 0.0
C628 C 0.43908 0.67846 0.36968 0.0
C629 C 0.4766 0.6743 0.3612 0.0
C630 C 0.41961 0.65644 0.36314 0.0
C631 C 0.437 0.62943 0.34791 0.0
C632 C 0.47472 0.62516 0.33957 0.0
C633 C 0.49432 0.64729 0.34623 0.0
C634 C 0.39966 0.56966 0.30521 0.0
C635 C 0.37155 0.56468 0.32593 0.0
C636 C 0.42133 0.59008 0.31249 0.0
C637 C 0.41546 0.60627 0.34065 0.0
C638 C 0.38776 0.60091 0.36153 0.0
C639 C 0.36618 0.58053 0.35429 0.0
H640 H 0.39719 0.30966 0.34178 0.0
H641 H 0.50151 0.33254 0.3552 0.0
H642 H 0.36832 0.34679 0.38054 0.0
H643 H 0.474 0.36673 0.39621 0.0
H644 H 0.43692 0.41042 0.48004 0.0
H645 H 0.44068 0.4044 0.42499 0.0
H646 H 0.36384 0.34616 0.43184 0.0
H647 H 0.35633 0.35545 0.48611 0.0
C648 C 0.414 0.32285 0.35264 0.0
C649 C 0.45213 0.31707 0.34623 0.0
C650 C 0.39746 0.34394 0.37541 0.0
C651 C 0.4188 0.35903 0.39298 0.0
C652 C 0.45615 0.35568 0.38384 0.0
C653 C 0.47239 0.33533 0.36053 0.0
C654 C 0.41941 0.39742 0.46996 0.0
C655 C 0.39772 0.38209 0.48831 0.0
C656 C 0.4222 0.39344 0.43802 0.0
C657 C 0.40471 0.37302 0.4237 0.0
C658 C 0.37879 0.36147 0.44154 0.0
C659 C 0.37494 0.36637 0.4733 0.0
H660 H 0.12606 0.24262 0.59719 0.0
H661 H 0.08195 0.33277 0.56991 0.0
H662 H 0.10885 0.25747 0.65123 0.0
H663 H 0.06333 0.34737 0.62385 0.0
H664 H 1.00696 0.35452 0.72444 0.0
H665 H 1.01974 0.33692 0.67059 0.0
H666 H 0.12942 0.29338 0.69165 0.0
H667 H 0.11709 0.31205 0.74512 0.0
C668 C 0.11176 0.26545 0.60249 0.0
C669 C 0.10495 0.28627 0.57861 0.0
C670 C 0.10217 0.27411 0.63374 0.0
C671 C 0.08449 0.30377 0.64245 0.0
C672 C 0.07655 0.3243 0.61843 0.0
C673 C 0.08714 0.31586 0.58728 0.0
C674 C 0.03364 0.34075 0.71781 0.0
C675 C 0.06073 0.33441 0.73973 0.0
C676 C 0.04114 0.33085 0.68665 0.0
C677 C 0.07574 0.31351 0.67624 0.0
C678 C 0.10238 0.30638 0.69845 0.0
C679 C 0.09523 0.31705 0.72934 0.0
H680 H 0.10208 0.68937 0.81271 0.0
H681 H 0.14562 0.76821 0.82674 0.0
H682 H 0.12424 0.67055 0.86159 0.0
H683 H 0.16974 0.74862 0.87494 0.0
H684 H 0.12387 0.73557 0.97509 0.0
H685 H 0.13584 0.74741 0.92199 0.0
H686 H 0.16772 0.65297 0.89854 0.0
H687 H 0.15389 0.64125 0.95163 0.0
C688 C 0.11734 0.70229 0.82582 0.0
C689 C 0.12096 0.73075 0.81629 0.0
C690 C 0.13061 0.69128 0.85375 0.0
C691 C 0.14813 0.70839 0.87266 0.0
C692 C 0.1556 0.73519 0.86132 0.0
C693 C 0.14204 0.74631 0.83347 0.0
C694 C 0.13428 0.71736 0.95872 0.0
C695 C 0.13692 0.68755 0.96732 0.0
C696 C 0.14159 0.7241 0.92822 0.0
C697 C 0.15188 0.7011 0.9057 0.0
C698 C 0.15894 0.67122 0.91515 0.0
C699 C 0.1514 0.66449 0.94569 0.0
H700 H 0.42588 0.76041 0.22345 0.0
H701 H 0.47126 0.83716 0.20164 0.0
H702 H 0.40372 0.76006 0.17204 0.0
H703 H 0.44936 0.83665 0.14968 0.0
H704 H 0.36373 0.84568 0.07394 0.0
H705 H 0.39447 0.84628 0.1219 0.0
H706 H 0.4225 0.74957 0.1195 0.0
H707 H 0.39037 0.74909 0.0722 0.0
C708 C 0.4316 0.777 0.20751 0.0
C709 C 0.45057 0.79871 0.21671 0.0
C710 C 0.41898 0.77674 0.17787 0.0
C711 C 0.42505 0.79811 0.15639 0.0
C712 C 0.44391 0.81996 0.1656 0.0
C713 C 0.45646 0.82029 0.19542 0.0
C714 C 0.37705 0.82455 0.08336 0.0
C715 C 0.37422 0.7973 0.06947 0.0
C716 C 0.3948 0.82489 0.11091 0.0
C717 C 0.41047 0.79796 0.12503 0.0
C718 C 0.40989 0.77076 0.10981 0.0
C719 C 0.39185 0.77043 0.08246 0.0
H720 H 0.20316 0.33063 0.4525 0.0
H721 H 0.12249 0.29616 0.40449 0.0
H722 H 0.21605 0.35806 0.40678 0.0
H723 H 0.13604 0.32309 0.35849 0.0
H724 H 0.21051 0.34007 0.27336 0.0
H725 H 0.19147 0.31795 0.32049 0.0
H726 H 0.18801 0.40051 0.37031 0.0
H727 H 0.20625 0.4231 0.32254 0.0
C728 C 0.18767 0.32924 0.43237 0.0
C729 C 0.16143 0.31124 0.43255 0.0
C730 C 0.19514 0.34505 0.40604 0.0
C731 C 0.1773 0.34284 0.37863 0.0
C732 C 0.15055 0.3253 0.37899 0.0
C733 C 0.14247 0.31002 0.40557 0.0
C734 C 0.20545 0.35372 0.29425 0.0
C735 C 0.20982 0.38355 0.29388 0.0
C736 C 0.19431 0.34098 0.32138 0.0
C737 C 0.18791 0.35732 0.34945 0.0
C738 C 0.19266 0.38713 0.34924 0.0
C739 C 0.203 0.40017 0.3218 0.0
H740 H 0.92971 0.95428 0.66199 0.0
H741 H 0.98987 0.86682 0.63119 0.0
H742 H 0.89706 0.95939 0.61374 0.0
H743 H 0.95857 0.8725 0.5829 0.0
H744 H 0.92687 0.919 0.48658 0.0
H745 H 0.9563 0.91464 0.53583 0.0
H746 H 0.85092 0.9243 0.58384 0.0
H747 H 0.82139 0.92721 0.53421 0.0
C748 C 0.93625 0.93625 0.64495 0.0
C749 C 0.9626 0.9101 0.65081 0.0
C750 C 0.91733 0.9391 0.61731 0.0
C751 C 0.92498 0.9163 0.59426 0.0
C752 C 0.95179 0.89051 0.59996 0.0
C753 C 0.96979 0.88728 0.62782 0.0
C754 C 0.90982 0.91998 0.50755 0.0
C755 C 0.87158 0.92337 0.50608 0.0
C756 C 0.9268 0.91755 0.5359 0.0
C757 C 0.90614 0.91934 0.56404 0.0
C758 C 0.86779 0.92307 0.56274 0.0
C759 C 0.85083 0.9246 0.5342 0.0
H760 H 0.45645 0.68346 0.83092 0.0
H761 H 0.38976 0.6198 0.85333 0.0
H762 H 0.44895 0.70174 0.8836 0.0
H763 H 0.38465 0.63641 0.90669 0.0
H764 H 0.41027 0.74991 0.96818 0.0
H765 H 0.44432 0.70754 0.93694 0.0
H766 H 0.34262 0.6811 0.9202 0.0
H767 H 0.30928 0.7224 0.95248 0.0
C768 C 0.44173 0.67233 0.84747 0.0
C769 C 0.42191 0.65151 0.83764 0.0
C770 C 0.43765 0.68262 0.87794 0.0
C771 C 0.41432 0.67167 0.89907 0.0
C772 C 0.40129 0.64631 0.89057 0.0
C773 C 0.4047 0.63646 0.85992 0.0
C774 C 0.39542 0.73461 0.95823 0.0
C775 C 0.35705 0.73984 0.96191 0.0
C776 C 0.41494 0.71027 0.94044 0.0
C777 C 0.39633 0.6911 0.92549 0.0
C778 C 0.3582 0.69504 0.93149 0.0
C779 C 0.33882 0.71906 0.94969 0.0
H780 H 0.57395 0.15121 0.17589 0.0
H781 H 0.52552 0.07486 0.16282 0.0
H782 H 0.60941 0.13924 0.12699 0.0
H783 H 0.56129 0.06266 0.11429 0.0
H784 H 0.59595 0.06943 1.01311 0.0
H785 H 0.56398 0.08031 0.06314 0.0
H786 H 0.65951 0.10445 0.09879 0.0
H787 H 0.69166 0.09376 1.04788 0.0
C788 C 0.57086 0.1318 0.16269 0.0
C789 C 0.54646 0.11418 0.17346 0.0
C790 C 0.59153 0.12478 0.13463 0.0
C791 C 0.58837 0.09998 0.1163 0.0
C792 C 0.56423 0.08221 0.12731 0.0
C793 C 0.5437 0.08916 0.15537 0.0
C794 C 0.61034 0.07702 1.03155 0.0
C795 C 0.64648 0.08076 1.02627 0.0
C796 C 0.59196 0.08307 0.06051 0.0
C797 C 0.60894 0.0932 0.08542 0.0
C798 C 0.64526 0.09695 0.08023 0.0
C799 C 0.66386 0.09066 1.05106 0.0
H800 H 0.52758 0.30761 0.70466 0.0
H801 H 0.64109 0.31377 0.69659 0.0
H802 H 0.54083 0.27453 0.74832 0.0
H803 H 0.65414 0.28152 0.74041 0.0
H804 H 0.57395 0.2281 0.83864 0.0
H805 H 0.55912 0.26743 0.80095 0.0
H806 H 0.65967 0.2293 0.74848 0.0
H807 H 0.67443 0.19025 0.78597 0.0
C808 C 0.55511 0.30257 0.7127 0.0
C809 C 0.58332 0.31313 0.69696 0.0
C810 C 0.56277 0.28356 0.73774 0.0
C811 C 0.59876 0.27484 0.74763 0.0
C812 C 0.62634 0.28704 0.733 0.0
C813 C 0.61876 0.30579 0.70797 0.0
C814 C 0.59291 0.22814 0.81906 0.0
C815 C 0.62548 0.20594 0.81547 0.0
C816 C 0.58436 0.25071 0.79741 0.0
C817 C 0.60818 0.25171 0.77162 0.0
C818 C 0.64095 0.22972 0.76832 0.0
C819 C 0.64949 0.20723 0.78991 0.0
H820 H 0.11333 0.37036 1.04631 0.0
H821 H 0.21331 0.39365 1.01132 0.0
H822 H 0.09727 0.36188 0.994 0.0
H823 H 0.1967 0.38569 0.95883 0.0
H824 H 0.12551 0.40424 0.87203 0.0
H825 H 0.15049 0.40797 0.9222 0.0
H826 H 0.11689 0.32721 0.94944 0.0
H827 H 0.09157 0.32355 0.89933 0.0
C828 C 0.13211 0.37346 1.02754 0.0
C829 C 0.16478 0.3826 1.0333 0.0
C830 C 0.12287 0.36853 0.99745 0.0
C831 C 0.14586 0.37277 0.97213 0.0
C832 C 0.17827 0.38233 0.97776 0.0
C833 C 0.18767 0.38708 1.00793 0.0
C834 C 0.12426 0.38681 0.88839 0.0
C835 C 0.10636 0.36363 0.88154 0.0
C836 C 0.13858 0.389 0.91725 0.0
C837 C 0.13519 0.36818 0.94009 0.0
C838 C 0.11937 0.34395 0.93258 0.0
C839 C 0.10528 0.34163 0.90363 0.0
H840 H 0.93111 0.82386 0.2533 0.0
H841 H 0.83734 0.7899 0.28552 0.0
H842 H 0.94534 0.78477 0.21342 0.0
H843 H 0.85251 0.74999 0.24644 0.0
H844 H 0.86575 0.70219 0.15197 0.0
H845 H 0.85221 0.7402 0.19285 0.0
H846 H 0.96804 0.73259 0.20275 0.0
H847 H 0.98161 0.69482 0.16116 0.0
C848 C 0.91336 0.80815 0.25194 0.0
C849 C 0.88279 0.81049 0.27283 0.0
C850 C 0.92192 0.7853 0.22918 0.0
C851 C 0.90022 0.76389 0.22639 0.0
C852 C 0.86977 0.76611 0.24739 0.0
C853 C 0.86124 0.78895 0.27019 0.0
C854 C 0.88847 0.70842 0.16289 0.0
C855 C 0.92488 0.69521 0.15303 0.0
C856 C 0.88063 0.73027 0.18663 0.0
C857 C 0.90889 0.73979 0.20144 0.0
C858 C 0.94538 0.72633 0.19178 0.0
C859 C 0.95324 0.70439 0.16799 0.0
H860 H 0.44598 0.68888 0.619 0.0
H861 H 0.34296 0.70872 0.57485 0.0
H862 H 0.4757 0.70795 0.57439 0.0
H863 H 0.37252 0.7276 0.53056 0.0
H864 H 0.51139 0.7614 0.49316 0.0
H865 H 0.47597 0.75528 0.54102 0.0
H866 H 0.41966 0.69767 0.49209 0.0
H867 H 0.4551 0.70343 0.44505 0.0
C868 C 0.42967 0.69766 0.59997 0.0
C869 C 0.39237 0.69692 0.6001 0.0
C870 C 0.44655 0.70879 0.57462 0.0
C871 C 0.42637 0.71914 0.54904 0.0
C872 C 0.38874 0.71956 0.54989 0.0
C873 C 0.37189 0.70866 0.57519 0.0
C874 C 0.49072 0.74813 0.49273 0.0
C875 C 0.48559 0.733 0.46567 0.0
C876 C 0.4708 0.74439 0.52 0.0
C877 C 0.44511 0.72602 0.52017 0.0
C878 C 0.43893 0.71222 0.49258 0.0
C879 C 0.4592 0.71547 0.4657 0.0
H880 H 0.26366 0.18104 0.47067 0.0
H881 H 0.21811 0.235 0.39575 0.0
H882 H 0.32155 0.16439 0.43983 0.0
H883 H 0.27582 0.2189 0.36525 0.0
H884 H 0.40059 0.11565 0.35723 0.0
H885 H 0.34604 0.13295 0.39164 0.0
H886 H 0.34131 0.22362 0.36345 0.0
H887 H 0.39604 0.20648 0.32951 0.0
C888 C 0.26603 0.18949 0.44771 0.0
C889 C 0.23602 0.20929 0.43573 0.0
C890 C 0.29921 0.17983 0.42992 0.0
C891 C 0.30367 0.19022 0.39987 0.0
C892 C 0.27378 0.21052 0.38827 0.0
C893 C 0.24049 0.21966 0.40577 0.0
C894 C 0.38826 0.13934 0.35866 0.0
C895 C 0.40311 0.15956 0.34048 0.0
C896 C 0.35689 0.14931 0.37851 0.0
C897 C 0.33885 0.17975 0.3804 0.0
C898 C 0.35405 0.2 0.36253 0.0
C899 C 0.38577 0.19013 0.34315 0.0
H900 H 0.1775 0.18735 0.60244 0.0
H901 H 0.15165 0.13661 0.52565 0.0
H902 H 0.16162 0.15019 0.63775 0.0
H903 H 0.13577 0.09982 0.56061 0.0
H904 H 0.12981 0.02817 0.63009 0.0
H905 H 0.15825 0.061 0.59792 0.0
H906 H 0.10191 0.13727 0.65358 0.0
H907 H 0.07292 0.10465 0.68544 0.0
C908 C 0.16946 0.16787 0.59307 0.0
C909 C 0.16582 0.16488 0.56131 0.0
C910 C 0.15994 0.14679 0.61327 0.0
C911 C 0.14713 0.12216 0.60201 0.0
C912 C 0.14577 0.11834 0.57008 0.0
C913 C 0.1548 0.1395 0.55002 0.0
C914 C 0.12325 0.05196 0.6354 0.0
C915 C 0.09876 0.06369 0.66031 0.0
C916 C 0.13978 0.07075 0.61706 0.0
C917 C 0.13245 0.10176 0.62322 0.0
C918 C 0.10867 0.11343 0.64852 0.0
C919 C 0.09196 0.09468 0.66676 0.0
H920 H 0.10582 0.82855 0.8088 0.0
H921 H 0.08628 0.92198 0.83478 0.0
H922 H 0.14683 0.81623 0.85086 0.0
H923 H 0.12661 0.90965 0.87739 0.0
H924 H 0.23116 0.88219 0.93248 0.0
H925 H 0.18611 0.89559 0.89349 0.0
H926 H 0.15745 0.80959 0.90291 0.0
H927 H 0.20346 0.79622 0.94152 0.0
C928 C 0.10994 0.8466 0.82356 0.0
C929 C 0.09228 0.87645 0.81784 0.0
C930 C 0.13354 0.83941 0.84814 0.0
C931 C 0.14075 0.86168 0.86828 0.0
C932 C 0.12277 0.89155 0.86261 0.0
C933 C 0.09914 0.89874 0.83801 0.0
C934 C 0.21455 0.86642 0.92684 0.0
C935 C 0.22054 0.83838 0.94107 0.0
C936 C 0.18848 0.87409 0.90417 0.0
C937 C 0.16734 0.85392 0.8943 0.0
C938 C 0.173 0.82595 0.90908 0.0
C939 C 0.19914 0.81832 0.93184 0.0
H940 H 0.343 0.96779 0.20815 0.0
H941 H 0.3776 1.00503 0.12416 0.0
H942 H 0.31062 0.93701 0.17873 0.0
H943 H 0.34604 0.97389 0.09463 0.0
H944 H 0.269 0.93097 1.04567 0.0
H945 H 0.29031 0.96534 0.07984 0.0
H946 H 0.31674 0.89502 0.14565 0.0
H947 H 0.29361 0.86123 0.11179 0.0
C948 C 0.34399 0.96929 0.18335 0.0
C949 C 0.36311 0.98906 0.16867 0.0
C950 C 0.32532 0.95151 0.16637 0.0
C951 C 0.32524 0.95276 0.13404 0.0
C952 C 0.34443 0.97259 0.11943 0.0
C953 C 0.36283 0.9905 0.13643 0.0
C954 C 0.27794 0.92326 0.06802 0.0
C955 C 0.27886 0.89349 0.07619 0.0
C956 C 0.29102 0.94281 0.08745 0.0
C957 C 0.30628 0.93306 0.11548 0.0
C958 C 0.30505 0.90372 0.12451 0.0
C959 C 0.29136 0.88427 0.10518 0.0
H960 H 0.88932 0.37484 0.80116 0.0
H961 H 0.93715 0.42943 0.73776 0.0
H962 H 0.84062 0.3741 0.76646 0.0
H963 H 0.88807 0.4285 0.70279 0.0
H964 H 0.80631 0.33658 0.67755 0.0
H965 H 0.84879 0.34699 0.71456 0.0
H966 H 0.81724 0.44138 0.69648 0.0
H967 H 0.77458 0.43086 0.65889 0.0
C968 C 0.88907 0.38714 0.78004 0.0
C969 C 0.91738 0.40174 0.77187 0.0
C970 C 0.86124 0.38664 0.76018 0.0
C971 C 0.86116 0.4007 0.73175 0.0
C972 C 0.88766 0.41744 0.72461 0.0
C973 C 0.91567 0.41798 0.7446 0.0
C974 C 0.80872 0.35951 0.68118 0.0
C975 C 0.78732 0.3829 0.66532 0.0
C976 C 0.83266 0.36551 0.70262 0.0
C977 C 0.83586 0.39502 0.70858 0.0
C978 C 0.81512 0.41846 0.69228 0.0
C979 C 0.79074 0.41246 0.67095 0.0
H980 H 0.962 0.4665 0.8627 0.0
H981 H 0.03105 0.41434 0.92752 0.0
H982 H 0.95478 0.51093 0.89662 0.0
H983 H 0.02436 0.45862 0.96114 0.0
H984 H 0.03034 0.55115 1.00262 0.0
H985 H 0.04005 0.50875 0.96588 0.0
H986 H 0.92526 0.5303 0.94768 0.0
H987 H 0.9155 0.57228 0.98456 0.0
C988 C 0.97581 0.4645 0.88409 0.0
C989 C 0.99689 0.43662 0.89234 0.0
C990 C 0.97156 0.49002 0.9037 0.0
C991 C 0.98889 0.48868 0.93192 0.0
C992 C 1.01073 0.46087 0.93967 0.0
C993 C 1.01439 0.4353 0.92038 0.0
C994 C 1.00719 0.54707 0.9906 0.0
C995 C 0.97209 0.56546 0.9968 0.0
C996 C 1.01271 0.5225 0.96959 0.0
C997 C 0.98347 0.51574 0.95356 0.0
C998 C 0.94861 0.53468 0.95918 0.0
C999 C 0.94298 0.55885 0.98056 0.0
H1000 H 0.68071 0.63786 0.14159 0.0
H1001 H 0.74182 0.70161 0.17292 0.0
H1002 H 0.63729 0.65145 0.18585 0.0
H1003 H 0.69777 0.71575 0.21619 0.0
H1004 H 0.59777 0.74776 0.28047 0.0
H1005 H 0.63025 0.73843 0.23019 0.0
H1006 H 0.6472 0.64322 0.24356 0.0
H1007 H 0.61484 0.6524 0.29396 0.0
C1008 C 0.68465 0.655 0.15762 0.0
C1009 C 0.71497 0.66843 0.15381 0.0
C1010 C 0.65974 0.6628 0.18283 0.0
C1011 C 0.66439 0.6845 0.20439 0.0
C1012 C 0.69338 0.69917 0.19967 0.0
C1013 C 0.71853 0.69112 0.17475 0.0
C1014 C 0.60817 0.72482 0.27262 0.0
C1015 C 0.60418 0.70078 0.29129 0.0
C1016 C 0.62671 0.71955 0.24386 0.0
C1017 C 0.64117 0.69016 0.23312 0.0
C1018 C 0.63596 0.6661 0.25124 0.0
C1019 C 0.61775 0.67136 0.28016 0.0
H1020 H 0.50336 0.41646 0.53328 0.0
H1021 H 0.61227 0.37354 0.49825 0.0
H1022 H 0.50648 0.4603 0.50292 0.0
H1023 H 0.61496 0.417 0.46728 0.0
H1024 H 0.6315 0.5135 0.46685 0.0
H1025 H 0.62262 0.46551 0.48463 0.0
H1026 H 0.51218 0.48559 0.45398 0.0
H1027 H 0.52123 0.534 0.43573 0.0
C1028 C 0.52739 0.41583 0.51817 0.0
C1029 C 0.55786 0.39165 0.51863 0.0
C1030 C 0.52921 0.44109 0.50078 0.0
C1031 C 0.5614 0.44253 0.48331 0.0
C1032 C 0.59018 0.41699 0.48121 0.0
C1033 C 0.58848 0.3919 0.49872 0.0
C1034 C 0.60552 0.50758 0.46324 0.0
C1035 C 0.57722 0.52768 0.44958 0.0
C1036 C 0.60042 0.47991 0.47345 0.0
C1037 C 0.56681 0.47142 0.47041 0.0
C1038 C 0.53838 0.49143 0.45675 0.0
C1039 C 0.54355 0.51922 0.44639 0.0
H1040 H 0.32319 0.35713 0.28323 0.0
H1041 H 0.34606 0.35363 0.18507 0.0
H1042 H 0.35328 0.30413 0.28586 0.0
H1043 H 0.37565 0.30085 0.18759 0.0
H1044 H 0.45177 0.20995 0.20539 0.0
H1045 H 0.42733 0.26408 0.20438 0.0
H1046 H 0.34142 0.25548 0.27126 0.0
H1047 H 0.36575 0.20142 0.27194 0.0
C1048 C 0.33524 0.34529 0.26227 0.0
C1049 C 0.3322 0.35994 0.23394 0.0
C1050 C 0.35211 0.31468 0.2637 0.0
C1051 C 0.36674 0.2978 0.23688 0.0
C1052 C 0.36507 0.31288 0.20881 0.0
C1053 C 0.34798 0.34333 0.20735 0.0
C1054 C 0.4275 0.21962 0.21969 0.0
C1055 C 0.41061 0.20123 0.23856 0.0
C1056 C 0.41338 0.25073 0.21911 0.0
C1057 C 0.38231 0.26452 0.23783 0.0
C1058 C 0.36561 0.24599 0.25682 0.0
C1059 C 0.37936 0.21483 0.25698 0.0
H1060 H 0.93839 0.18841 0.91115 0.0
H1061 H 0.84053 0.2584 0.90962 0.0
H1062 H 0.90127 0.15327 0.92869 0.0
H1063 H 0.80404 0.22392 0.92837 0.0
H1064 H 0.74372 0.14799 0.9224 0.0
H1065 H 0.78178 0.1831 0.90994 0.0
H1066 H 0.86302 0.13778 0.97024 0.0
H1067 H 0.82455 0.10163 0.98238 0.0
C1068 C 0.90905 0.19645 0.91457 0.0
C1069 C 0.89279 0.22655 0.90873 0.0
C1070 C 0.88772 0.17628 0.9251 0.0
C1071 C 0.84937 0.18545 0.92997 0.0
C1072 C 0.83331 0.21563 0.92457 0.0
C1073 C 0.85451 0.2357 0.9141 0.0
C1074 C 0.76951 0.14548 0.93341 0.0
C1075 C 0.78079 0.12179 0.95358 0.0
C1076 C 0.79144 0.16593 0.9263 0.0
C1077 C 0.82575 0.16366 0.93902 0.0
C1078 C 0.83697 0.14026 0.95971 0.0
C1079 C 0.8147 0.11968 0.96702 0.0
H1080 H 0.17445 0.51105 0.17245 0.0
H1081 H 0.10832 0.50222 0.25407 0.0
H1082 H 0.12274 0.54227 0.14994 0.0
H1083 H 0.05537 0.53537 0.23206 0.0
H1084 H 0.03182 0.60693 0.11424 0.0
H1085 H 0.08165 0.58627 0.14665 0.0
H1086 H 1.01254 0.53496 0.19424 0.0
H1087 H 0.96177 0.55788 0.16294 0.0
C1088 C 0.14888 0.51681 0.18606 0.0
C1089 C 0.14553 0.5044 0.21504 0.0
C1090 C 0.11893 0.53498 0.17318 0.0
C1091 C 0.08436 0.54166 0.18898 0.0
C1092 C 0.08136 0.53049 0.21893 0.0
C1093 C 0.11175 0.51192 0.23185 0.0
C1094 C 0.02738 0.59126 0.13164 0.0
C1095 C 0.99334 0.58344 0.13559 0.0
C1096 C 0.05598 0.57927 0.15031 0.0
C1097 C 0.05178 0.55818 0.17282 0.0
C1098 C 1.01704 0.5512 0.17745 0.0
C1099 C 0.98799 0.56403 0.15927 0.0
H1100 H 0.70605 0.88462 0.48041 0.0
H1101 H 0.76168 0.86298 0.39125 0.0
H1102 H 0.66847 0.84785 0.4708 0.0
H1103 H 0.72423 0.82714 0.38155 0.0
H1104 H 0.68029 0.74272 0.38351 0.0
H1105 H 0.71588 0.77929 0.39618 0.0
H1106 H 0.61927 0.83639 0.43977 0.0
H1107 H 0.58344 0.79901 0.42734 0.0
C1108 C 0.71047 0.87199 0.45887 0.0
C1109 C 0.73726 0.87683 0.43677 0.0
C1110 C 0.68862 0.85105 0.45319 0.0
C1111 C 0.69316 0.83417 0.42536 0.0
C1112 C 0.72007 0.83911 0.40346 0.0
C1113 C 0.74161 0.85997 0.40903 0.0
C1114 C 0.66644 0.76305 0.39579 0.0
C1115 C 0.62883 0.7678 0.40426 0.0
C1116 C 0.68695 0.78426 0.40297 0.0
C1117 C 0.6707 0.81119 0.41891 0.0
C1118 C 0.633 0.81592 0.4277 0.0
C1119 C 0.61231 0.79457 0.42037 0.0
H1120 H 0.52921 0.43364 0.67883 0.0
H1121 H 0.55082 0.43677 0.5809 0.0
H1122 H 0.49104 0.48443 0.67844 0.0
H1123 H 0.51428 0.48757 0.58038 0.0
H1124 H 0.40663 0.55808 0.58449 0.0
H1125 H 0.45145 0.51083 0.58464 0.0
H1126 H 0.48844 0.53636 0.67147 0.0
H1127 H 0.44277 0.58313 0.67168 0.0
C1128 C 0.52644 0.44556 0.65744 0.0
C1129 C 0.54257 0.43151 0.62994 0.0
C1130 C 0.50472 0.4746 0.65711 0.0
C1131 C 0.49922 0.49001 0.62926 0.0
C1132 C 0.51711 0.4762 0.60208 0.0
C1133 C 0.53829 0.44721 0.6024 0.0
C1134 C 0.42477 0.5538 0.60329 0.0
C1135 C 0.42115 0.57425 0.62804 0.0
C1136 C 0.45054 0.5267 0.60344 0.0
C1137 C 0.47352 0.51966 0.6282 0.0
C1138 C 0.47075 0.54074 0.65236 0.0
C1139 C 0.44474 0.56764 0.65236 0.0
H1140 H 0.22782 0.73588 0.6008 0.0
H1141 H 0.23373 0.71625 0.6976 0.0
H1142 H 0.18307 0.78264 0.61387 0.0
H1143 H 0.19006 0.76267 0.7102 0.0
H1144 H 0.07315 0.84534 0.66168 0.0
H1145 H 0.11571 0.79928 0.64324 0.0
H1146 H 0.19702 0.81859 0.70263 0.0
H1147 H 0.15474 0.86483 0.72073 0.0
C1148 C 0.21935 0.74126 0.6247 0.0
C1149 C 0.23471 0.72241 0.64811 0.0
C1150 C 0.19388 0.768 0.63214 0.0
C1151 C 0.18385 0.77635 0.66304 0.0
C1152 C 0.19798 0.75696 0.68624 0.0
C1153 C 0.22289 0.73025 0.67889 0.0
C1154 C 0.10034 0.83988 0.67042 0.0
C1155 C 0.11081 0.85849 0.69261 0.0
C1156 C 0.12461 0.81368 0.6598 0.0
C1157 C 0.15943 0.80548 0.67164 0.0
C1158 C 0.17017 0.82446 0.6933 0.0
C1159 C 0.14614 0.85091 0.70352 0.0
H1160 H 0.52019 0.88657 0.98605 0.0
H1161 H 0.45944 0.96732 0.94675 0.0
H1162 H 0.5756 0.90682 0.98271 0.0
H1163 H 0.51475 0.98705 0.94286 0.0
H1164 H 0.62527 0.99977 0.90675 0.0
H1165 H 0.5732 0.97611 0.91213 0.0
H1166 H 0.60421 0.94775 1.00299 0.0
H1167 H 0.65686 0.97158 0.99762 0.0
C1168 C 0.5184 0.90874 0.97701 0.0
C1169 C 0.48509 0.92508 0.96638 0.0
C1170 C 0.55032 0.9203 0.975 0.0
C1171 C 0.54988 0.9484 0.96209 0.0
C1172 C 0.51641 0.96502 0.95225 0.0
C1173 C 0.48456 0.95362 0.95446 0.0
C1174 C 0.62144 0.98822 0.92781 0.0
C1175 C 0.64537 0.9878 0.95181 0.0
C1176 C 0.59125 0.97482 0.93098 0.0
C1177 C 0.58401 0.96042 0.9582 0.0
C1178 C 0.60891 0.95864 0.9817 0.0
C1179 C 0.63916 0.97228 0.9786 0.0
H1180 H 0.89347 1.00849 0.40052 0.0
H1181 H 0.83015 0.04308 0.48355 0.0
H1182 H 0.93183 0.04479 0.40672 0.0
H1183 H 0.8689 0.07904 0.49012 0.0
H1184 H 0.92655 0.15791 0.48049 0.0
H1185 H 0.88639 0.1233 0.47283 0.0
H1186 H 0.97881 0.05668 0.43599 0.0
H1187 H 1.01864 0.09164 0.44252 0.0
C1188 C 0.88749 0.02392 0.42006 0.0
C1189 C 0.85835 0.02263 0.44142 0.0
C1190 C 0.90989 0.0447 0.42384 0.0
C1191 C 0.90404 0.0651 0.44911 0.0
C1192 C 0.87439 0.06415 0.47015 0.0
C1193 C 0.85204 0.04331 0.46641 0.0
C1194 C 0.93843 0.136 0.47049 0.0
C1195 C 0.97628 0.12796 0.4622 0.0
C1196 C 0.91526 0.11585 0.46638 0.0
C1197 C 0.92891 0.08683 0.45366 0.0
C1198 C 0.96677 0.07878 0.44545 0.0
C1199 C 0.98994 0.09888 0.44966 0.0
loop_
_geom_bond_atom_site_label_1
_geom_bond_atom_site_label_2
_geom_bond_distance
_geom_bond_site_symmetry_2
_ccdc_geom_bond_type
Nd0 C2 2.836 . S
Nd0 O20 2.500 . S
Nd0 O21 2.492 . S
Nd0 O22 2.487 . S
Nd0 O23 2.682 . S
Nd0 O24 2.410 . S
Nd0 O29 2.414 . S
Nd0 O31 2.424 . S
Nd1 C11 2.836 . S
Nd1 O23 2.414 . S
Nd1 O25 2.424 . S
Nd1 O26 2.500 . S
Nd1 O27 2.492 . S
Nd1 O28 2.487 . S
Nd1 O29 2.682 . S
Nd1 O30 2.410 . S
C2 Nd0 2.836 . S
C2 C3 1.498 . S
C2 O20 1.258 . S
C2 O21 1.239 . S
C3 C2 1.498 . S
C3 C4 1.366 1_455 S
C3 C8 1.407 . S
C4 C3 1.366 1_655 S
C4 C5 1.392 . S
C4 H32 0.930 . S
C5 C4 1.392 . S
C5 C6 1.398 . S
C5 H33 0.929 . S
C6 C5 1.398 . S
C6 C7 1.352 . S
C7 C6 1.352 . S
C7 C8 1.384 1_655 S
C7 H34 0.930 . S
C8 C3 1.407 . S
C8 C7 1.384 1_455 S
C8 H35 0.929 . S
C9 O22 1.241 . S
C9 O23 1.273 . S
C10 O24 1.251 . S
C10 O25 1.268 . S
C11 Nd1 2.836 . S
C11 C12 1.498 . S
C11 O26 1.258 . S
C11 O27 1.239 . S
C12 C11 1.498 . S
C12 C13 1.366 . S
C12 C17 1.407 . S
C13 C12 1.366 . S
C13 C14 1.392 . S
C13 H36 0.930 . S
C14 C13 1.392 . S
C14 C15 1.398 . S
C14 H37 0.929 . S
C15 C14 1.398 . S
C15 C16 1.352 . S
C16 C15 1.352 . S
C16 C17 1.384 . S
C16 H38 0.930 . S
C17 C12 1.407 . S
C17 C16 1.384 . S
C17 H39 0.929 . S
C18 O28 1.241 . S
C18 O29 1.273 . S
C19 O30 1.251 . S
C19 O31 1.268 . S
O20 Nd0 2.500 . S
O20 C2 1.258 . S
O21 Nd0 2.492 . S
O21 C2 1.239 . S
O22 Nd0 2.487 . S
O22 C9 1.241 . S
O23 Nd0 2.682 . S
O23 Nd1 2.414 . S
O23 C9 1.273 . S
O24 Nd0 2.410 . S
O24 C10 1.251 . S
O25 Nd1 2.424 . S
O25 C10 1.268 . S
O26 Nd1 2.500 . S
O26 C11 1.258 . S
O27 Nd1 2.492 . S
O27 C11 1.239 . S
O28 Nd1 2.487 . S
O28 C18 1.241 . S
O29 Nd0 2.414 . S
O29 Nd1 2.682 . S
O29 C18 1.273 . S
O30 Nd1 2.410 . S
O30 C19 1.251 . S
O31 Nd0 2.424 . S
O31 C19 1.268 . S
H32 C4 0.930 . S
H33 C5 0.929 . S
H34 C7 0.930 . S
H35 C8 0.929 . S
H36 C13 0.930 . S
H37 C14 0.929 . S
H38 C16 0.930 . S
H39 C17 0.929 . S
Nd40 C42 2.836 . S
Nd40 O60 2.500 . S
Nd40 O61 2.492 . S
Nd40 O62 2.487 . S
Nd40 O63 2.682 . S
Nd40 O64 2.410 . S
Nd40 O69 2.414 . S
Nd40 O71 2.424 . S
Nd41 C51 2.836 . S
Nd41 O63 2.414 . S
Nd41 O65 2.424 . S
Nd41 O66 2.500 . S
Nd41 O67 2.492 . S
Nd41 O68 2.487 . S
Nd41 O69 2.682 . S
Nd41 O70 2.410 . S
C42 Nd40 2.836 . S
C42 C43 1.498 . S
C42 O60 1.258 . S
C42 O61 1.239 . S
C43 C42 1.498 . S
C43 C44 1.366 . S
C43 C48 1.407 . S
C44 C43 1.366 . S
C44 C45 1.392 . S
C44 H72 0.930 . S
C45 C44 1.392 . S
C45 C46 1.398 . S
C45 H73 0.929 . S
C46 C45 1.398 . S
C46 C47 1.352 . S
C47 C46 1.352 . S
C47 C48 1.384 . S
C47 H74 0.930 . S
C48 C43 1.407 . S
C48 C47 1.384 . S
C48 H75 0.929 . S
C49 O62 1.241 . S
C49 O63 1.273 . S
C50 O64 1.251 . S
C50 O65 1.268 . S
C51 Nd41 2.836 . S
C51 C52 1.498 . S
C51 O66 1.258 . S
C51 O67 1.239 . S
C52 C51 1.498 . S
C52 C53 1.366 . S
C52 C57 1.407 . S
C53 C52 1.366 . S
C53 C54 1.392 . S
C53 H76 0.930 . S
C54 C53 1.392 . S
C54 C55 1.398 . S
C54 H77 0.929 . S
C55 C54 1.398 . S
C55 C56 1.352 . S
C56 C55 1.352 . S
C56 C57 1.384 . S
C56 H78 0.930 . S
C57 C52 1.407 . S
C57 C56 1.384 . S
C57 H79 0.927 . S
C58 O68 1.241 . S
C58 O69 1.273 . S
C59 O70 1.251 . S
C59 O71 1.268 . S
O60 Nd40 2.500 . S
O60 C42 1.258 . S
O61 Nd40 2.492 . S
O61 C42 1.239 . S
O62 Nd40 2.487 . S
O62 C49 1.241 . S
O63 Nd40 2.682 . S
O63 Nd41 2.414 . S
O63 C49 1.273 . S
O64 Nd40 2.410 . S
O64 C50 1.251 . S
O65 Nd41 2.424 . S
O65 C50 1.268 . S
O66 Nd41 2.500 . S
O66 C51 1.258 . S
O67 Nd41 2.492 . S
O67 C51 1.239 . S
O68 Nd41 2.487 . S
O68 C58 1.241 . S
O69 Nd40 2.414 . S
O69 Nd41 2.682 . S
O69 C58 1.273 . S
O70 Nd41 2.410 . S
O70 C59 1.251 . S
O71 Nd40 2.424 . S
O71 C59 1.268 . S
H72 C44 0.930 . S
H73 C45 0.929 . S
H74 C47 0.930 . S
H75 C48 0.929 . S
H76 C53 0.930 . S
H77 C54 0.929 . S
H78 C56 0.930 . S
H79 C57 0.927 . S
Nd80 C82 2.836 . S
Nd80 O100 2.500 . S
Nd80 O101 2.492 . S
Nd80 O102 2.487 . S
Nd80 O103 2.682 . S
Nd80 O104 2.410 . S
Nd80 O109 2.414 . S
Nd80 O111 2.424 . S
Nd81 C91 2.836 . S
Nd81 O103 2.414 . S
Nd81 O105 2.424 . S
Nd81 O106 2.500 . S
Nd81 O107 2.492 . S
Nd81 O108 2.508 . S
Nd81 O109 2.682 . S
Nd81 O110 2.410 . S
C82 Nd80 2.836 . S
C82 C83 1.498 . S
C82 O100 1.258 . S
C82 O101 1.239 . S
C83 C82 1.498 . S
C83 C84 1.366 . S
C83 C88 1.407 . S
C84 C83 1.366 . S
C84 C85 1.392 . S
C84 H112 0.930 . S
C85 C84 1.392 . S
C85 C86 1.398 . S
C85 H113 0.929 . S
C86 C85 1.398 . S
C86 C87 1.352 . S
C87 C86 1.352 . S
C87 C88 1.384 . S
C87 H114 0.930 . S
C88 C83 1.407 . S
C88 C87 1.384 . S
C88 H115 0.929 . S
C89 O102 1.241 . S
C89 O103 1.273 . S
C90 O104 1.251 . S
C90 O105 1.268 . S
C91 Nd81 2.836 . S
C91 C92 1.498 . S
C91 O106 1.258 . S
C91 O107 1.239 . S
C92 C91 1.498 . S
C92 C93 1.366 . S
C92 C97 1.407 . S
C93 C92 1.366 . S
C93 C94 1.392 . S
C93 H116 0.930 . S
C94 C93 1.392 . S
C94 C95 1.398 . S
C94 H117 0.929 . S
C95 C94 1.398 . S
C95 C96 1.352 . S
C96 C95 1.352 . S
C96 C97 1.384 . S
C96 H118 0.930 1_556 S
C97 C92 1.407 . S
C97 C96 1.384 . S
C97 H119 0.929 1_556 S
C98 O108 1.255 . S
C98 O109 1.273 . S
C99 O110 1.251 . S
C99 O111 1.268 . S
O100 Nd80 2.500 . S
O100 C82 1.258 . S
O101 Nd80 2.492 . S
O101 C82 1.239 . S
O102 Nd80 2.487 . S
O102 C89 1.241 . S
O103 Nd80 2.682 . S
O103 Nd81 2.414 . S
O103 C89 1.273 . S
O104 Nd80 2.410 . S
O104 C90 1.251 . S
O105 Nd81 2.424 . S
O105 C90 1.268 . S
O106 Nd81 2.500 . S
O106 C91 1.258 . S
O107 Nd81 2.492 . S
O107 C91 1.239 . S
O108 Nd81 2.508 . S
O108 C98 1.255 . S
O109 Nd80 2.414 . S
O109 Nd81 2.682 . S
O109 C98 1.273 . S
O110 Nd81 2.410 . S
O110 C99 1.251 . S
O111 Nd80 2.424 . S
O111 C99 1.268 . S
H112 C84 0.930 . S
H113 C85 0.929 . S
H114 C87 0.930 . S
H115 C88 0.929 . S
H116 C93 0.930 . S
H117 C94 0.929 . S
H118 C96 0.930 1_554 S
H119 C97 0.929 1_554 S
Nd120 C122 2.836 . S
Nd120 O140 2.500 . S
Nd120 O141 2.492 . S
Nd120 O142 2.487 . S
Nd120 O143 2.682 . S
Nd120 O144 2.410 . S
Nd120 O149 2.414 . S
Nd120 O151 2.424 . S
Nd121 C131 2.836 . S
Nd121 O143 2.414 . S
Nd121 O145 2.424 . S
Nd121 O146 2.500 . S
Nd121 O147 2.492 . S
Nd121 O148 2.487 . S
Nd121 O149 2.682 . S
Nd121 O150 2.410 . S
C122 Nd120 2.836 . S
C122 C123 1.498 . S
C122 O140 1.258 . S
C122 O141 1.239 . S
C123 C122 1.498 . S
C123 C124 1.366 . S
C123 C128 1.407 . S
C124 C123 1.366 . S
C124 C125 1.392 . S
C124 H152 0.930 . S
C125 C124 1.392 . S
C125 C126 1.398 . S
C125 H153 0.929 . S
C126 C125 1.398 . S
C126 C127 1.352 . S
C127 C126 1.352 . S
C127 C128 1.384 . S
C127 H154 0.930 . S
C128 C123 1.407 . S
C128 C127 1.384 . S
C128 H155 0.929 . S
C129 O142 1.241 . S
C129 O143 1.273 . S
C130 O144 1.251 . S
C130 O145 1.268 . S
C131 Nd121 2.836 . S
C131 C132 1.498 . S
C131 O146 1.258 . S
C131 O147 1.239 . S
C132 C131 1.498 . S
C132 C133 1.366 . S
C132 C137 1.407 . S
C133 C132 1.366 . S
C133 C134 1.392 . S
C133 H156 0.930 . S
C134 C133 1.392 . S
C134 C135 1.398 . S
C134 H157 0.929 . S
C135 C134 1.398 . S
C135 C136 1.352 . S
C136 C135 1.352 . S
C136 C137 1.384 . S
C136 H158 0.930 . S
C137 C132 1.407 . S
C137 C136 1.384 . S
C137 H159 0.929 . S
C138 O148 1.241 . S
C138 O149 1.273 . S
C139 O150 1.251 . S
C139 O151 1.268 . S
O140 Nd120 2.500 . S
O140 C122 1.258 . S
O141 Nd120 2.492 . S
O141 C122 1.239 . S
O142 Nd120 2.487 . S
O142 C129 1.241 . S
O143 Nd120 2.682 . S
O143 Nd121 2.414 . S
O143 C129 1.273 . S
O144 Nd120 2.410 . S
O144 C130 1.251 . S
O145 Nd121 2.424 . S
O145 C130 1.268 . S
O146 Nd121 2.500 . S
O146 C131 1.258 . S
O147 Nd121 2.492 . S
O147 C131 1.239 . S
O148 Nd121 2.487 . S
O148 C138 1.241 . S
O149 Nd120 2.414 . S
O149 Nd121 2.682 . S
O149 C138 1.273 . S
O150 Nd121 2.410 . S
O150 C139 1.251 . S
O151 Nd120 2.424 . S
O151 C139 1.268 . S
H152 C124 0.930 . S
H153 C125 0.929 . S
H154 C127 0.930 . S
H155 C128 0.929 . S
H156 C133 0.930 . S
H157 C134 0.929 . S
H158 C136 0.930 . S
H159 C137 0.929 . S
Nd160 C162 2.836 . S
Nd160 O180 2.500 . S
Nd160 O181 2.492 . S
Nd160 O182 2.487 . S
Nd160 O183 2.682 . S
Nd160 O184 2.410 . S
Nd160 O189 2.414 . S
Nd160 O191 2.424 . S
Nd161 C171 2.836 . S
Nd161 O183 2.414 . S
Nd161 O185 2.424 . S
Nd161 O186 2.500 . S
Nd161 O187 2.492 . S
Nd161 O188 2.487 . S
Nd161 O189 2.682 . S
Nd161 O190 2.410 . S
C162 Nd160 2.836 . S
C162 C163 1.498 . S
C162 O180 1.258 . S
C162 O181 1.239 . S
C163 C162 1.498 . S
C163 C164 1.366 . S
C163 C168 1.407 . S
C164 C163 1.366 . S
C164 C165 1.392 . S
C164 H192 0.930 . S
C165 C164 1.392 . S
C165 C166 1.398 . S
C165 H193 0.929 . S
C166 C165 1.398 . S
C166 C167 1.352 . S
C167 C166 1.352 . S
C167 C168 1.384 . S
C167 H194 0.930 . S
C168 C163 1.407 . S
C168 C167 1.384 . S
C168 H195 0.929 . S
C169 O182 1.241 . S
C169 O183 1.273 . S
C170 O184 1.251 . S
C170 O185 1.268 . S
C171 Nd161 2.836 . S
C171 C172 1.498 . S
C171 O186 1.258 . S
C171 O187 1.239 . S
C172 C171 1.498 . S
C172 C173 1.366 . S
C172 C177 1.407 . S
C173 C172 1.366 . S
C173 C174 1.392 . S
C173 H196 0.930 . S
C174 C173 1.392 . S
C174 C175 1.398 . S
C174 H197 0.929 . S
C175 C174 1.398 . S
C175 C176 1.352 . S
C176 C175 1.352 . S
C176 C177 1.384 . S
C176 H198 0.930 . S
C177 C172 1.407 . S
C177 C176 1.384 . S
C177 H199 0.929 . S
C178 O188 1.241 . S
C178 O189 1.273 . S
C179 O190 1.251 . S
C179 O191 1.268 . S
O180 Nd160 2.500 . S
O180 C162 1.258 . S
O181 Nd160 2.492 . S
O181 C162 1.239 . S
O182 Nd160 2.487 . S
O182 C169 1.241 . S
O183 Nd160 2.682 . S
O183 Nd161 2.414 . S
O183 C169 1.273 . S
O184 Nd160 2.410 . S
O184 C170 1.251 . S
O185 Nd161 2.424 . S
O185 C170 1.268 . S
O186 Nd161 2.500 . S
O186 C171 1.258 . S
O187 Nd161 2.492 . S
O187 C171 1.239 . S
O188 Nd161 2.487 . S
O188 C178 1.241 . S
O189 Nd160 2.414 . S
O189 Nd161 2.682 . S
O189 C178 1.273 . S
O190 Nd161 2.410 . S
O190 C179 1.251 . S
O191 Nd160 2.424 . S
O191 C179 1.268 . S
H192 C164 0.930 . S
H193 C165 0.929 . S
H194 C167 0.930 . S
H195 C168 0.929 . S
H196 C173 0.930 . S
H197 C174 0.929 . S
H198 C176 0.930 . S
H199 C177 0.929 . S
Nd200 C202 2.836 . S
Nd200 O220 2.500 . S
Nd200 O221 2.492 . S
Nd200 O222 2.487 . S
Nd200 O223 2.682 . S
Nd200 O224 2.410 . S
Nd200 O229 2.414 . S
Nd200 O231 2.424 1_655 S
Nd201 C211 2.836 1_655 S
Nd201 O223 2.414 . S
Nd201 O225 2.424 . S
Nd201 O226 2.500 1_655 S
Nd201 O227 2.492 1_655 S
Nd201 O228 2.487 1_655 S
Nd201 O229 2.682 . S
Nd201 O230 2.410 1_655 S
C202 Nd200 2.836 . S
C202 C203 1.498 . S
C202 O220 1.258 . S
C202 O221 1.239 . S
C203 C202 1.498 . S
C203 C204 1.366 . S
C203 C208 1.407 . S
C204 C203 1.366 . S
C204 C205 1.392 . S
C204 H232 0.930 . S
C205 C204 1.392 . S
C205 C206 1.398 . S
C205 H233 0.929 . S
C206 C205 1.398 . S
C206 C207 1.352 . S
C207 C206 1.352 . S
C207 C208 1.384 . S
C207 H234 0.930 . S
C208 C203 1.407 . S
C208 C207 1.384 . S
C208 H235 0.929 . S
C209 O222 1.241 . S
C209 O223 1.273 . S
C210 O224 1.251 . S
C210 O225 1.268 . S
C211 Nd201 2.836 1_455 S
C211 C212 1.498 . S
C211 O226 1.258 . S
C211 O227 1.239 . S
C212 C211 1.498 . S
C212 C213 1.366 . S
C212 C217 1.407 . S
C213 C212 1.366 . S
C213 C214 1.392 . S
C213 H236 0.930 . S
C214 C213 1.392 . S
C214 C215 1.398 . S
C214 H237 0.929 . S
C215 C214 1.398 . S
C215 C216 1.352 . S
C216 C215 1.352 . S
C216 C217 1.384 . S
C216 H238 0.930 . S
C217 C212 1.407 . S
C217 C216 1.384 . S
C217 H239 0.929 . S
C218 O228 1.241 . S
C218 O229 1.273 1_455 S
C219 O230 1.251 . S
C219 O231 1.268 . S
O220 Nd200 2.500 . S
O220 C202 1.258 . S
O221 Nd200 2.492 . S
O221 C202 1.239 . S
O222 Nd200 2.487 . S
O222 C209 1.241 . S
O223 Nd200 2.682 . S
O223 Nd201 2.414 . S
O223 C209 1.273 . S
O224 Nd200 2.410 . S
O224 C210 1.251 . S
O225 Nd201 2.424 . S
O225 C210 1.268 . S
O226 Nd201 2.500 1_455 S
O226 C211 1.258 . S
O227 Nd201 2.492 1_455 S
O227 C211 1.239 . S
O228 Nd201 2.487 1_455 S
O228 C218 1.241 . S
O229 Nd200 2.414 . S
O229 Nd201 2.682 . S
O229 C218 1.273 1_655 S
O230 Nd201 2.410 1_455 S
O230 C219 1.251 . S
O231 Nd200 2.424 1_455 S
O231 C219 1.268 . S
H232 C204 0.930 . S
H233 C205 0.929 . S
H234 C207 0.930 . S
H235 C208 0.929 . S
H236 C213 0.930 . S
H237 C214 0.929 . S
H238 C216 0.930 . S
H239 C217 0.929 . S
Nd240 C242 2.836 . S
Nd240 O260 2.500 . S
Nd240 O261 2.492 . S
Nd240 O262 2.487 . S
Nd240 O263 2.682 . S
Nd240 O264 2.410 . S
Nd240 O269 2.414 . S
Nd240 O271 2.424 . S
Nd241 C251 2.836 1_554 S
Nd241 O263 2.414 . S
Nd241 O265 2.424 . S
Nd241 O266 2.500 1_554 S
Nd241 O267 2.492 1_554 S
Nd241 O268 2.487 . S
Nd241 O269 2.682 . S
Nd241 O270 2.410 1_554 S
C242 Nd240 2.836 . S
C242 C243 1.498 . S
C242 O260 1.258 . S
C242 O261 1.239 . S
C243 C242 1.498 . S
C243 C244 1.366 . S
C243 C248 1.407 . S
C244 C243 1.366 . S
C244 C245 1.392 . S
C244 H272 0.930 . S
C245 C244 1.392 . S
C245 C246 1.398 . S
C245 H273 0.929 . S
C246 C245 1.398 . S
C246 C247 1.352 . S
C247 C246 1.352 . S
C247 C248 1.384 . S
C247 H274 0.930 . S
C248 C243 1.407 . S
C248 C247 1.384 . S
C248 H275 0.929 . S
C249 O262 1.241 . S
C249 O263 1.273 . S
C250 O264 1.251 . S
C250 O265 1.268 . S
C251 Nd241 2.836 1_556 S
C251 C252 1.498 . S
C251 O266 1.258 . S
C251 O267 1.239 . S
C252 C251 1.498 . S
C252 C253 1.366 . S
C252 C257 1.407 . S
C253 C252 1.366 . S
C253 C254 1.392 1_655 S
C253 H276 0.930 . S
C254 C253 1.392 1_455 S
C254 C255 1.398 . S
C254 H277 0.929 . S
C255 C254 1.398 . S
C255 C256 1.352 1_455 S
C256 C255 1.352 1_655 S
C256 C257 1.384 . S
C256 H278 0.930 . S
C257 C252 1.407 . S
C257 C256 1.384 . S
C257 H279 0.929 . S
C258 O268 1.241 . S
C258 O269 1.273 . S
C259 O270 1.251 . S
C259 O271 1.268 1_556 S
O260 Nd240 2.500 . S
O260 C242 1.258 . S
O261 Nd240 2.492 . S
O261 C242 1.239 . S
O262 Nd240 2.487 . S
O262 C249 1.241 . S
O263 Nd240 2.682 . S
O263 Nd241 2.414 . S
O263 C249 1.273 . S
O264 Nd240 2.410 . S
O264 C250 1.251 . S
O265 Nd241 2.424 . S
O265 C250 1.268 . S
O266 Nd241 2.500 1_556 S
O266 C251 1.258 . S
O267 Nd241 2.492 1_556 S
O267 C251 1.239 . S
O268 Nd241 2.487 . S
O268 C258 1.241 . S
O269 Nd240 2.414 . S
O269 Nd241 2.682 . S
O269 C258 1.273 . S
O270 Nd241 2.410 1_556 S
O270 C259 1.251 . S
O271 Nd240 2.424 . S
O271 C259 1.268 1_554 S
H272 C244 0.930 . S
H273 C245 0.929 . S
H274 C247 0.930 . S
H275 C248 0.929 . S
H276 C253 0.930 . S
H277 C254 0.929 . S
H278 C256 0.930 . S
H279 C257 0.929 . S
Nd280 C282 2.836 . S
Nd280 O300 2.500 . S
Nd280 O301 2.492 . S
Nd280 O302 2.487 . S
Nd280 O303 2.682 . S
Nd280 O304 2.410 . S
Nd280 O309 2.414 . S
Nd280 O311 2.424 . S
Nd281 C291 2.836 . S
Nd281 O303 2.414 . S
Nd281 O305 2.424 . S
Nd281 O306 2.500 . S
Nd281 O307 2.492 . S
Nd281 O308 2.487 . S
Nd281 O309 2.682 . S
Nd281 O310 2.410 . S
C282 Nd280 2.836 . S
C282 C283 1.498 . S
C282 O300 1.258 . S
C282 O301 1.239 . S
C283 C282 1.498 . S
C283 C284 1.366 . S
C283 C288 1.407 . S
C284 C283 1.366 . S
C284 C285 1.392 . S
C284 H312 0.930 . S
C285 C284 1.392 . S
C285 C286 1.398 . S
C285 H313 0.929 . S
C286 C285 1.398 . S
C286 C287 1.352 . S
C287 C286 1.352 . S
C287 C288 1.384 . S
C287 H314 0.930 . S
C288 C283 1.407 . S
C288 C287 1.384 . S
C288 H315 0.929 . S
C289 O302 1.241 . S
C289 O303 1.273 . S
C290 O304 1.251 . S
C290 O305 1.268 . S
C291 Nd281 2.836 . S
C291 C292 1.498 . S
C291 O306 1.258 . S
C291 O307 1.239 . S
C292 C291 1.498 . S
C292 C293 1.366 . S
C292 C297 1.407 . S
C293 C292 1.366 . S
C293 C294 1.392 . S
C293 H316 0.930 . S
C294 C293 1.392 . S
C294 C295 1.398 . S
C294 H317 0.929 . S
C295 C294 1.398 . S
C295 C296 1.352 . S
C296 C295 1.352 . S
C296 C297 1.384 . S
C296 H318 0.930 . S
C297 C292 1.407 . S
C297 C296 1.384 . S
C297 H319 0.929 . S
C298 O308 1.241 . S
C298 O309 1.273 . S
C299 O310 1.251 . S
C299 O311 1.268 . S
O300 Nd280 2.500 . S
O300 C282 1.258 . S
O301 Nd280 2.492 . S
O301 C282 1.239 . S
O302 Nd280 2.487 . S
O302 C289 1.241 . S
O303 Nd280 2.682 . S
O303 Nd281 2.414 . S
O303 C289 1.273 . S
O304 Nd280 2.410 . S
O304 C290 1.251 . S
O305 Nd281 2.424 . S
O305 C290 1.268 . S
O306 Nd281 2.500 . S
O306 C291 1.258 . S
O307 Nd281 2.492 . S
O307 C291 1.239 . S
O308 Nd281 2.487 . S
O308 C298 1.241 . S
O309 Nd280 2.414 . S
O309 Nd281 2.682 . S
O309 C298 1.273 . S
O310 Nd281 2.410 . S
O310 C299 1.251 . S
O311 Nd280 2.424 . S
O311 C299 1.268 . S
H312 C284 0.930 . S
H313 C285 0.929 . S
H314 C287 0.930 . S
H315 C288 0.929 . S
H316 C293 0.930 . S
H317 C294 0.929 . S
H318 C296 0.930 . S
H319 C297 0.929 . S
Nd320 C322 2.836 . S
Nd320 O340 2.500 . S
Nd320 O341 2.492 . S
Nd320 O342 2.487 . S
Nd320 O343 2.682 . S
Nd320 O344 2.410 . S
Nd320 O349 2.414 . S
Nd320 O351 2.424 . S
Nd321 C331 2.836 . S
Nd321 O343 2.414 . S
Nd321 O345 2.424 . S
Nd321 O346 2.500 . S
Nd321 O347 2.492 . S
Nd321 O348 2.487 . S
Nd321 O349 2.682 . S
Nd321 O350 2.410 . S
C322 Nd320 2.836 . S
C322 C323 1.498 . S
C322 O340 1.258 . S
C322 O341 1.239 . S
C323 C322 1.498 . S
C323 C324 1.366 . S
C323 C328 1.407 . S
C324 C323 1.366 . S
C324 C325 1.392 1_554 S
C324 H352 0.930 . S
C325 C324 1.392 1_556 S
C325 C326 1.398 . S
C325 H353 0.929 . S
C326 C325 1.398 . S
C326 C327 1.352 1_556 S
C327 C326 1.352 1_554 S
C327 C328 1.384 . S
C327 H354 0.930 . S
C328 C323 1.407 . S
C328 C327 1.384 . S
C328 H355 0.929 . S
C329 O342 1.241 . S
C329 O343 1.273 . S
C330 O344 1.251 . S
C330 O345 1.268 . S
C331 Nd321 2.836 . S
C331 C332 1.498 . S
C331 O346 1.258 . S
C331 O347 1.239 . S
C332 C331 1.498 . S
C332 C333 1.366 . S
C332 C337 1.407 . S
C333 C332 1.366 . S
C333 C334 1.392 . S
C333 H356 0.930 . S
C334 C333 1.392 . S
C334 C335 1.398 . S
C334 H357 0.929 . S
C335 C334 1.398 . S
C335 C336 1.352 . S
C336 C335 1.352 . S
C336 C337 1.384 . S
C336 H358 0.930 . S
C337 C332 1.407 . S
C337 C336 1.384 . S
C337 H359 0.929 . S
C338 O348 1.241 . S
C338 O349 1.273 . S
C339 O350 1.251 . S
C339 O351 1.268 . S
O340 Nd320 2.500 . S
O340 C322 1.258 . S
O341 Nd320 2.492 . S
O341 C322 1.239 . S
O342 Nd320 2.487 . S
O342 C329 1.241 . S
O343 Nd320 2.682 . S
O343 Nd321 2.414 . S
O343 C329 1.273 . S
O344 Nd320 2.410 . S
O344 C330 1.251 . S
O345 Nd321 2.424 . S
O345 C330 1.268 . S
O346 Nd321 2.500 . S
O346 C331 1.258 . S
O347 Nd321 2.492 . S
O347 C331 1.239 . S
O348 Nd321 2.487 . S
O348 C338 1.241 . S
O349 Nd320 2.414 . S
O349 Nd321 2.682 . S
O349 C338 1.273 . S
O350 Nd321 2.410 . S
O350 C339 1.251 . S
O351 Nd320 2.424 . S
O351 C339 1.268 . S
H352 C324 0.930 . S
H353 C325 0.929 . S
H354 C327 0.930 . S
H355 C328 0.929 . S
H356 C333 0.930 . S
H357 C334 0.929 . S
H358 C336 0.930 . S
H359 C337 0.929 . S
Nd360 C362 2.836 . S
Nd360 O380 2.500 . S
Nd360 O381 2.492 . S
Nd360 O382 2.487 . S
Nd360 O383 2.682 . S
Nd360 O384 2.410 . S
Nd360 O389 2.414 . S
Nd360 O391 2.424 . S
Nd361 C371 2.836 1_545 S
Nd361 O383 2.414 . S
Nd361 O385 2.424 . S
Nd361 O386 2.500 1_545 S
Nd361 O387 2.492 1_545 S
Nd361 O388 2.487 1_545 S
Nd361 O389 2.682 . S
Nd361 O390 2.410 1_545 S
C362 Nd360 2.836 . S
C362 C363 1.498 . S
C362 O380 1.258 . S
C362 O381 1.239 . S
C363 C362 1.498 . S
C363 C364 1.366 . S
C363 C368 1.407 . S
C364 C363 1.366 . S
C364 C365 1.392 . S
C364 H392 0.930 . S
C365 C364 1.392 . S
C365 C366 1.398 . S
C365 H393 0.929 . S
C366 C365 1.398 . S
C366 C367 1.352 . S
C367 C366 1.352 . S
C367 C368 1.384 . S
C367 H394 0.930 . S
C368 C363 1.407 . S
C368 C367 1.384 . S
C368 H395 0.929 . S
C369 O382 1.241 . S
C369 O383 1.273 . S
C370 O384 1.251 . S
C370 O385 1.268 . S
C371 Nd361 2.836 1_565 S
C371 C372 1.498 . S
C371 O386 1.258 . S
C371 O387 1.239 . S
C372 C371 1.498 . S
C372 C373 1.366 . S
C372 C377 1.407 . S
C373 C372 1.366 . S
C373 C374 1.392 1_556 S
C373 H396 0.930 . S
C374 C373 1.392 1_554 S
C374 C375 1.398 . S
C374 H397 0.929 . S
C375 C374 1.398 . S
C375 C376 1.352 1_554 S
C376 C375 1.352 1_556 S
C376 C377 1.384 . S
C376 H398 0.930 . S
C377 C372 1.407 . S
C377 C376 1.384 . S
C377 H399 0.929 . S
C378 O388 1.241 1_545 S
C378 O389 1.273 . S
C379 O390 1.251 . S
C379 O391 1.268 1_565 S
O380 Nd360 2.500 . S
O380 C362 1.258 . S
O381 Nd360 2.492 . S
O381 C362 1.239 . S
O382 Nd360 2.487 . S
O382 C369 1.241 . S
O383 Nd360 2.682 . S
O383 Nd361 2.414 . S
O383 C369 1.273 . S
O384 Nd360 2.410 . S
O384 C370 1.251 . S
O385 Nd361 2.424 . S
O385 C370 1.268 . S
O386 Nd361 2.500 1_565 S
O386 C371 1.258 . S
O387 Nd361 2.492 1_565 S
O387 C371 1.239 . S
O388 Nd361 2.487 1_565 S
O388 C378 1.241 1_565 S
O389 Nd360 2.414 . S
O389 Nd361 2.682 . S
O389 C378 1.273 . S
O390 Nd361 2.410 1_565 S
O390 C379 1.251 . S
O391 Nd360 2.424 . S
O391 C379 1.268 1_545 S
H392 C364 0.930 . S
H393 C365 0.929 . S
H394 C367 0.930 . S
H395 C368 0.929 . S
H396 C373 0.930 . S
H397 C374 0.929 . S
H398 C376 0.930 . S
H399 C377 0.929 . S
Nd400 C402 2.836 . S
Nd400 O420 2.500 . S
Nd400 O421 2.492 . S
Nd400 O422 2.487 . S
Nd400 O423 2.682 . S
Nd400 O424 2.410 . S
Nd400 O429 2.414 . S
Nd400 O431 2.424 . S
Nd401 C411 2.836 . S
Nd401 O423 2.414 . S
Nd401 O425 2.424 . S
Nd401 O426 2.500 . S
Nd401 O427 2.457 1_565 S
Nd401 O428 2.487 . S
Nd401 O429 2.682 . S
Nd401 O430 2.410 . S
C402 Nd400 2.836 . S
C402 C403 1.498 . S
C402 O420 1.258 . S
C402 O421 1.239 . S
C403 C402 1.498 . S
C403 C404 1.366 . S
C403 C408 1.407 . S
C404 C403 1.366 . S
C404 C405 1.392 . S
C404 H432 0.930 . S
C405 C404 1.392 . S
C405 C406 1.398 . S
C405 H433 0.929 . S
C406 C405 1.398 . S
C406 C407 1.352 . S
C407 C406 1.352 . S
C407 C408 1.384 . S
C407 H434 0.930 . S
C408 C403 1.407 . S
C408 C407 1.384 . S
C408 H435 0.929 . S
C409 O422 1.241 . S
C409 O423 1.273 . S
C410 O424 1.251 . S
C410 O425 1.268 . S
C411 Nd401 2.836 . S
C411 C412 1.498 1_565 S
C411 O426 1.258 . S
C411 O427 1.243 1_565 S
C412 C411 1.498 1_545 S
C412 C413 1.366 . S
C412 C417 1.407 . S
C413 C412 1.366 . S
C413 C414 1.392 . S
C413 H436 0.930 . S
C414 C413 1.392 . S
C414 C415 1.398 . S
C414 H437 0.929 . S
C415 C414 1.398 . S
C415 C416 1.352 . S
C416 C415 1.352 . S
C416 C417 1.384 . S
C416 H438 0.930 . S
C417 C412 1.407 . S
C417 C416 1.384 . S
C417 H439 0.929 . S
C418 O428 1.241 . S
C418 O429 1.273 . S
C419 O430 1.251 . S
C419 O431 1.268 . S
O420 Nd400 2.500 . S
O420 C402 1.258 . S
O421 Nd400 2.492 . S
O421 C402 1.239 . S
O422 Nd400 2.487 . S
O422 C409 1.241 . S
O423 Nd400 2.682 . S
O423 Nd401 2.414 . S
O423 C409 1.273 . S
O424 Nd400 2.410 . S
O424 C410 1.251 . S
O425 Nd401 2.424 . S
O425 C410 1.268 . S
O426 Nd401 2.500 . S
O426 C411 1.258 . S
O427 Nd401 2.457 1_545 S
O427 C411 1.243 1_545 S
O428 Nd401 2.487 . S
O428 C418 1.241 . S
O429 Nd400 2.414 . S
O429 Nd401 2.682 . S
O429 C418 1.273 . S
O430 Nd401 2.410 . S
O430 C419 1.251 . S
O431 Nd400 2.424 . S
O431 C419 1.268 . S
H432 C404 0.930 . S
H433 C405 0.929 . S
H434 C407 0.930 . S
H435 C408 0.929 . S
H436 C413 0.930 . S
H437 C414 0.929 . S
H438 C416 0.930 . S
H439 C417 0.929 . S
Nd440 C442 2.836 . S
Nd440 O460 2.500 . S
Nd440 O461 2.492 . S
Nd440 O462 2.487 . S
Nd440 O463 2.682 . S
Nd440 O464 2.410 . S
Nd440 O469 2.414 . S
Nd440 O471 2.424 . S
Nd441 C451 2.836 . S
Nd441 O463 2.414 . S
Nd441 O465 2.424 . S
Nd441 O466 2.500 . S
Nd441 O467 2.492 . S
Nd441 O468 2.487 . S
Nd441 O469 2.682 . S
Nd441 O470 2.410 . S
C442 Nd440 2.836 . S
C442 C443 1.498 . S
C442 O460 1.258 . S
C442 O461 1.239 . S
C443 C442 1.498 . S
C443 C444 1.366 . S
C443 C448 1.407 . S
C444 C443 1.366 . S
C444 C445 1.392 . S
C444 H472 0.930 . S
C445 C444 1.392 . S
C445 C446 1.398 . S
C445 H473 0.929 . S
C446 C445 1.398 . S
C446 C447 1.352 . S
C447 C446 1.352 . S
C447 C448 1.384 . S
C447 H474 0.930 . S
C448 C443 1.407 . S
C448 C447 1.384 . S
C448 H475 0.929 . S
C449 O462 1.241 . S
C449 O463 1.273 . S
C450 O464 1.251 . S
C450 O465 1.268 . S
C451 Nd441 2.836 . S
C451 C452 1.498 . S
C451 O466 1.258 . S
C451 O467 1.239 . S
C452 C451 1.498 . S
C452 C453 1.366 . S
C452 C457 1.407 . S
C453 C452 1.366 . S
C453 C454 1.392 . S
C453 H476 0.930 . S
C454 C453 1.392 . S
C454 C455 1.398 . S
C454 H477 0.929 . S
C455 C454 1.398 . S
C455 C456 1.352 . S
C456 C455 1.352 . S
C456 C457 1.384 . S
C456 H478 0.930 . S
C457 C452 1.407 . S
C457 C456 1.384 . S
C457 H479 0.929 . S
C458 O468 1.241 . S
C458 O469 1.273 . S
C459 O470 1.251 . S
C459 O471 1.268 . S
O460 Nd440 2.500 . S
O460 C442 1.258 . S
O461 Nd440 2.492 . S
O461 C442 1.239 . S
O462 Nd440 2.487 . S
O462 C449 1.241 . S
O463 Nd440 2.682 . S
O463 Nd441 2.414 . S
O463 C449 1.273 . S
O464 Nd440 2.410 . S
O464 C450 1.251 . S
O465 Nd441 2.424 . S
O465 C450 1.268 . S
O466 Nd441 2.500 . S
O466 C451 1.258 . S
O467 Nd441 2.492 . S
O467 C451 1.239 . S
O468 Nd441 2.487 . S
O468 C458 1.241 . S
O469 Nd440 2.414 . S
O469 Nd441 2.682 . S
O469 C458 1.273 . S
O470 Nd441 2.410 . S
O470 C459 1.251 . S
O471 Nd440 2.424 . S
O471 C459 1.268 . S
H472 C444 0.930 . S
H473 C445 0.929 . S
H474 C447 0.930 . S
H475 C448 0.929 . S
H476 C453 0.930 . S
H477 C454 0.929 . S
H478 C456 0.930 . S
H479 C457 0.929 . S
H480 C488 0.950 . S
H481 C493 0.950 . S
H482 C490 0.950 . S
H483 C492 0.950 . S
H484 C494 0.950 . S
H485 C496 0.950 . S
H486 C498 0.950 . S
H487 C499 0.950 . S
C488 H480 0.950 . S
C488 C489 1.386 . S
C488 C490 1.391 . S
C489 C488 1.386 . S
C489 C493 1.393 . S
C490 H482 0.950 . S
C490 C488 1.391 . S
C490 C491 1.400 . S
C491 C490 1.400 . S
C491 C492 1.398 . S
C491 C497 1.491 . S
C492 H483 0.950 . S
C492 C491 1.398 . S
C492 C493 1.391 . S
C493 H481 0.950 . S
C493 C489 1.393 . S
C493 C492 1.391 . S
C494 H484 0.950 . S
C494 C495 1.386 . S
C494 C496 1.391 . S
C495 C494 1.386 . S
C495 C499 1.393 . S
C496 H485 0.950 . S
C496 C494 1.391 . S
C496 C497 1.400 . S
C497 C491 1.491 . S
C497 C496 1.400 . S
C497 C498 1.398 . S
C498 H486 0.950 . S
C498 C497 1.398 . S
C498 C499 1.391 . S
C499 H487 0.950 . S
C499 C495 1.393 . S
C499 C498 1.391 . S
H500 C508 0.950 1_545 S
H501 C513 0.950 . S
H502 C510 0.950 . S
H503 C512 0.950 . S
H504 C514 0.950 . S
H505 C516 0.950 . S
H506 C518 0.950 . S
H507 C519 0.950 . S
C508 H500 0.950 1_565 S
C508 C509 1.386 . S
C508 C510 1.391 . S
C509 C508 1.386 . S
C509 C513 1.393 . S
C510 H502 0.950 . S
C510 C508 1.391 . S
C510 C511 1.400 . S
C511 C510 1.400 . S
C511 C512 1.398 . S
C511 C517 1.491 . S
C512 H503 0.950 . S
C512 C511 1.398 . S
C512 C513 1.391 . S
C513 H501 0.950 . S
C513 C509 1.393 . S
C513 C512 1.391 . S
C514 H504 0.950 . S
C514 C515 1.386 . S
C514 C516 1.391 . S
C515 C514 1.386 . S
C515 C519 1.393 . S
C516 H505 0.950 . S
C516 C514 1.391 . S
C516 C517 1.400 . S
C517 C511 1.491 . S
C517 C516 1.400 . S
C517 C518 1.398 . S
C518 H506 0.950 . S
C518 C517 1.398 . S
C518 C519 1.391 . S
C519 H507 0.950 . S
C519 C515 1.393 . S
C519 C518 1.391 . S
H520 C528 0.950 . S
H521 C533 0.950 . S
H522 C530 0.950 . S
H523 C532 0.950 . S
H524 C534 0.950 . S
H525 C536 0.950 . S
H526 C538 0.950 . S
H527 C539 0.950 . S
C528 H520 0.950 . S
C528 C529 1.386 . S
C528 C530 1.391 1_556 S
C529 C528 1.386 . S
C529 C533 1.393 . S
C530 H522 0.950 . S
C530 C528 1.391 1_554 S
C530 C531 1.400 . S
C531 C530 1.400 . S
C531 C532 1.398 . S
C531 C537 1.491 . S
C532 H523 0.950 . S
C532 C531 1.398 . S
C532 C533 1.391 1_554 S
C533 H521 0.950 . S
C533 C529 1.393 . S
C533 C532 1.391 1_556 S
C534 H524 0.950 . S
C534 C535 1.386 . S
C534 C536 1.391 . S
C535 C534 1.386 . S
C535 C539 1.393 . S
C536 H525 0.950 . S
C536 C534 1.391 . S
C536 C537 1.400 . S
C537 C531 1.491 . S
C537 C536 1.400 . S
C537 C538 1.398 . S
C538 H526 0.950 . S
C538 C537 1.398 . S
C538 C539 1.391 . S
C539 H527 0.950 . S
C539 C535 1.393 . S
C539 C538 1.391 . S
H540 C548 0.950 . S
H541 C553 0.950 . S
H542 C550 0.950 . S
H543 C552 0.950 . S
H544 C554 0.950 . S
H545 C556 0.950 . S
H546 C558 0.950 . S
H547 C559 0.950 . S
C548 H540 0.950 . S
C548 C549 1.386 . S
C548 C550 1.391 . S
C549 C548 1.386 . S
C549 C553 1.393 . S
C550 H542 0.950 . S
C550 C548 1.391 . S
C550 C551 1.400 . S
C551 C550 1.400 . S
C551 C552 1.398 . S
C551 C557 1.491 . S
C552 H543 0.950 . S
C552 C551 1.398 . S
C552 C553 1.391 . S
C553 H541 0.950 . S
C553 C549 1.393 . S
C553 C552 1.391 . S
C554 H544 0.950 . S
C554 C555 1.386 1_545 S
C554 C556 1.391 . S
C555 C554 1.386 1_565 S
C555 C559 1.393 . S
C556 H545 0.950 . S
C556 C554 1.391 . S
C556 C557 1.400 . S
C557 C551 1.491 . S
C557 C556 1.400 . S
C557 C558 1.398 . S
C558 H546 0.950 . S
C558 C557 1.398 . S
C558 C559 1.391 1_545 S
C559 H547 0.950 . S
C559 C555 1.393 . S
C559 C558 1.391 1_565 S
H560 C568 0.950 . S
H561 C573 0.950 . S
H562 C570 0.950 . S
H563 C572 0.950 . S
H564 C574 0.950 . S
H565 C576 0.950 . S
H566 C578 0.950 . S
H567 C579 0.950 . S
C568 H560 0.950 . S
C568 C569 1.386 . S
C568 C570 1.391 . S
C569 C568 1.386 . S
C569 C573 1.393 . S
C570 H562 0.950 . S
C570 C568 1.391 . S
C570 C571 1.400 . S
C571 C570 1.400 . S
C571 C572 1.398 . S
C571 C577 1.491 . S
C572 H563 0.950 . S
C572 C571 1.398 . S
C572 C573 1.391 . S
C573 H561 0.950 . S
C573 C569 1.393 . S
C573 C572 1.391 . S
C574 H564 0.950 . S
C574 C575 1.386 . S
C574 C576 1.391 . S
C575 C574 1.386 . S
C575 C579 1.393 . S
C576 H565 0.950 . S
C576 C574 1.391 . S
C576 C577 1.400 . S
C577 C571 1.491 . S
C577 C576 1.400 . S
C577 C578 1.398 . S
C578 H566 0.950 . S
C578 C577 1.398 . S
C578 C579 1.391 . S
C579 H567 0.950 . S
C579 C575 1.393 . S
C579 C578 1.391 . S
H580 C588 0.950 . S
H581 C593 0.950 . S
H582 C590 0.950 . S
H583 C592 0.950 . S
H584 C594 0.950 . S
H585 C596 0.950 . S
H586 C598 0.950 . S
H587 C599 0.950 . S
C588 H580 0.950 . S
C588 C589 1.386 . S
C588 C590 1.391 . S
C589 C588 1.386 . S
C589 C593 1.393 . S
C590 H582 0.950 . S
C590 C588 1.391 . S
C590 C591 1.400 . S
C591 C590 1.400 . S
C591 C592 1.398 . S
C591 C597 1.491 . S
C592 H583 0.950 . S
C592 C591 1.398 . S
C592 C593 1.391 . S
C593 H581 0.950 . S
C593 C589 1.393 . S
C593 C592 1.391 . S
C594 H584 0.950 . S
C594 C595 1.386 . S
C594 C596 1.391 . S
C595 C594 1.386 . S
C595 C599 1.393 . S
C596 H585 0.950 . S
C596 C594 1.391 . S
C596 C597 1.400 . S
C597 C591 1.491 . S
C597 C596 1.400 . S
C597 C598 1.398 . S
C598 H586 0.950 . S
C598 C597 1.398 . S
C598 C599 1.391 . S
C599 H587 0.950 . S
C599 C595 1.393 . S
C599 C598 1.391 . S
H600 C608 0.950 . S
H601 C613 0.950 . S
H602 C610 0.950 . S
H603 C612 0.950 . S
H604 C614 0.960 . S
H605 C616 0.950 . S
H606 C618 0.950 . S
H607 C619 0.950 . S
C608 H600 0.950 . S
C608 C609 1.386 . S
C608 C610 1.391 . S
C609 C608 1.386 . S
C609 C613 1.393 1_554 S
C610 H602 0.950 . S
C610 C608 1.391 . S
C610 C611 1.400 . S
C611 C610 1.400 . S
C611 C612 1.398 1_554 S
C611 C617 1.491 . S
C612 H603 0.950 . S
C612 C611 1.398 1_556 S
C612 C613 1.391 . S
C613 H601 0.950 . S
C613 C609 1.393 1_556 S
C613 C612 1.391 . S
C614 H604 0.960 . S
C614 C615 1.375 1_556 S
C614 C616 1.392 . S
C615 C614 1.375 1_554 S
C615 C619 1.393 . S
C616 H605 0.950 . S
C616 C614 1.392 . S
C616 C617 1.400 1_556 S
C617 C611 1.491 . S
C617 C616 1.400 1_554 S
C617 C618 1.398 . S
C618 H606 0.950 . S
C618 C617 1.398 . S
C618 C619 1.391 . S
C619 H607 0.950 . S
C619 C615 1.393 . S
C619 C618 1.391 . S
H620 C628 0.950 . S
H621 C633 0.950 . S
H622 C630 0.950 . S
H623 C632 0.950 . S
H624 C634 0.950 . S
H625 C636 0.950 . S
H626 C638 0.950 . S
H627 C639 0.950 . S
C628 H620 0.950 . S
C628 C629 1.386 . S
C628 C630 1.391 . S
C629 C628 1.386 . S
C629 C633 1.393 . S
C630 H622 0.950 . S
C630 C628 1.391 . S
C630 C631 1.400 . S
C631 C630 1.400 . S
C631 C632 1.398 . S
C631 C637 1.491 . S
C632 H623 0.950 . S
C632 C631 1.398 . S
C632 C633 1.391 . S
C633 H621 0.950 . S
C633 C629 1.393 . S
C633 C632 1.391 . S
C634 H624 0.950 . S
C634 C635 1.386 . S
C634 C636 1.391 . S
C635 C634 1.386 . S
C635 C639 1.393 . S
C636 H625 0.950 . S
C636 C634 1.391 . S
C636 C637 1.400 . S
C637 C631 1.491 . S
C637 C636 1.400 . S
C637 C638 1.398 . S
C638 H626 0.950 . S
C638 C637 1.398 . S
C638 C639 1.391 . S
C639 H627 0.950 . S
C639 C635 1.393 . S
C639 C638 1.391 . S
H640 C648 0.950 . S
H641 C653 0.950 . S
H642 C650 0.950 . S
H643 C652 0.950 . S
H644 C654 0.950 . S
H645 C656 0.950 . S
H646 C658 0.950 . S
H647 C659 0.950 . S
C648 H640 0.950 . S
C648 C649 1.386 . S
C648 C650 1.391 . S
C649 C648 1.386 . S
C649 C653 1.393 . S
C650 H642 0.950 . S
C650 C648 1.391 . S
C650 C651 1.400 . S
C651 C650 1.400 . S
C651 C652 1.398 . S
C651 C657 1.491 . S
C652 H643 0.950 . S
C652 C651 1.398 . S
C652 C653 1.391 . S
C653 H641 0.950 . S
C653 C649 1.393 . S
C653 C652 1.391 . S
C654 H644 0.950 . S
C654 C655 1.386 . S
C654 C656 1.391 . S
C655 C654 1.386 . S
C655 C659 1.393 . S
C656 H645 0.950 . S
C656 C654 1.391 . S
C656 C657 1.400 . S
C657 C651 1.491 . S
C657 C656 1.400 . S
C657 C658 1.398 . S
C658 H646 0.950 . S
C658 C657 1.398 . S
C658 C659 1.391 . S
C659 H647 0.950 . S
C659 C655 1.393 . S
C659 C658 1.391 . S
H660 C668 0.950 . S
H661 C673 0.950 1_655 S
H662 C670 0.950 . S
H663 C672 0.950 1_655 S
H664 C674 0.950 . S
H665 C676 0.951 1_655 S
H666 C678 0.950 . S
H667 C679 0.950 . S
C668 H660 0.950 . S
C668 C669 1.386 . S
C668 C670 1.391 . S
C669 C668 1.386 . S
C669 C673 1.393 . S
C670 H662 0.950 . S
C670 C668 1.391 . S
C670 C671 1.400 . S
C671 C670 1.400 . S
C671 C672 1.398 . S
C671 C677 1.491 . S
C672 H663 0.950 1_455 S
C672 C671 1.398 . S
C672 C673 1.391 . S
C673 H661 0.950 1_455 S
C673 C669 1.393 . S
C673 C672 1.391 . S
C674 H664 0.950 . S
C674 C675 1.386 1_655 S
C674 C676 1.391 1_655 S
C675 C674 1.386 1_455 S
C675 C679 1.393 . S
C676 H665 0.951 1_455 S
C676 C674 1.391 1_455 S
C676 C677 1.399 . S
C677 C671 1.491 . S
C677 C676 1.399 . S
C677 C678 1.398 . S
C678 H666 0.950 . S
C678 C677 1.398 . S
C678 C679 1.391 . S
C679 H667 0.950 . S
C679 C675 1.393 . S
C679 C678 1.391 . S
H680 C688 0.950 . S
H681 C693 0.950 . S
H682 C690 0.950 . S
H683 C692 0.950 . S
H684 C694 0.950 . S
H685 C696 0.950 . S
H686 C698 0.950 1_655 S
H687 C699 0.950 1_655 S
C688 H680 0.950 . S
C688 C689 1.386 . S
C688 C690 1.391 . S
C689 C688 1.386 . S
C689 C693 1.393 . S
C690 H682 0.950 . S
C690 C688 1.391 . S
C690 C691 1.400 . S
C691 C690 1.400 . S
C691 C692 1.398 . S
C691 C697 1.491 . S
C692 H683 0.950 . S
C692 C691 1.398 . S
C692 C693 1.391 . S
C693 H681 0.950 . S
C693 C689 1.393 . S
C693 C692 1.391 . S
C694 H684 0.950 . S
C694 C695 1.386 . S
C694 C696 1.391 . S
C695 C694 1.386 . S
C695 C699 1.393 . S
C696 H685 0.950 . S
C696 C694 1.391 . S
C696 C697 1.400 . S
C697 C691 1.491 . S
C697 C696 1.400 . S
C697 C698 1.398 . S
C698 H686 0.950 1_455 S
C698 C697 1.398 . S
C698 C699 1.391 . S
C699 H687 0.950 1_455 S
C699 C695 1.393 . S
C699 C698 1.391 . S
H700 C708 0.950 . S
H701 C713 0.950 . S
H702 C710 0.950 . S
H703 C712 0.950 . S
H704 C714 0.950 . S
H705 C716 0.950 . S
H706 C718 0.950 . S
H707 C719 0.950 . S
C708 H700 0.950 . S
C708 C709 1.386 . S
C708 C710 1.391 . S
C709 C708 1.386 . S
C709 C713 1.393 . S
C710 H702 0.950 . S
C710 C708 1.391 . S
C710 C711 1.400 . S
C711 C710 1.400 . S
C711 C712 1.398 . S
C711 C717 1.491 . S
C712 H703 0.950 . S
C712 C711 1.398 . S
C712 C713 1.391 . S
C713 H701 0.950 . S
C713 C709 1.393 . S
C713 C712 1.391 . S
C714 H704 0.950 . S
C714 C715 1.386 . S
C714 C716 1.391 . S
C715 C714 1.386 . S
C715 C719 1.393 . S
C716 H705 0.950 . S
C716 C714 1.391 . S
C716 C717 1.400 . S
C717 C711 1.491 . S
C717 C716 1.400 . S
C717 C718 1.398 . S
C718 H706 0.950 . S
C718 C717 1.398 . S
C718 C719 1.391 . S
C719 H707 0.950 . S
C719 C715 1.393 . S
C719 C718 1.391 . S
H720 C728 0.950 . S
H721 C733 0.950 . S
H722 C730 0.950 . S
H723 C732 0.950 . S
H724 C734 0.950 . S
H725 C736 0.950 . S
H726 C738 0.950 . S
H727 C739 0.950 . S
C728 H720 0.950 . S
C728 C729 1.386 . S
C728 C730 1.391 . S
C729 C728 1.386 . S
C729 C733 1.393 . S
C730 H722 0.950 . S
C730 C728 1.391 . S
C730 C731 1.400 . S
C731 C730 1.400 . S
C731 C732 1.398 . S
C731 C737 1.491 . S
C732 H723 0.950 . S
C732 C731 1.398 . S
C732 C733 1.391 . S
C733 H721 0.950 . S
C733 C729 1.393 . S
C733 C732 1.391 . S
C734 H724 0.950 . S
C734 C735 1.386 . S
C734 C736 1.391 . S
C735 C734 1.386 . S
C735 C739 1.393 . S
C736 H725 0.950 . S
C736 C734 1.391 . S
C736 C737 1.400 . S
C737 C731 1.491 . S
C737 C736 1.400 . S
C737 C738 1.398 . S
C738 H726 0.950 . S
C738 C737 1.398 . S
C738 C739 1.391 . S
C739 H727 0.950 . S
C739 C735 1.393 . S
C739 C738 1.391 . S
H740 C748 0.950 . S
H741 C753 0.950 . S
H742 C750 0.950 . S
H743 C752 0.950 . S
H744 C754 0.950 . S
H745 C756 0.950 . S
H746 C758 0.950 . S
H747 C759 0.950 . S
C748 H740 0.950 . S
C748 C749 1.386 . S
C748 C750 1.391 . S
C749 C748 1.386 . S
C749 C753 1.393 . S
C750 H742 0.950 . S
C750 C748 1.391 . S
C750 C751 1.400 . S
C751 C750 1.400 . S
C751 C752 1.398 . S
C751 C757 1.491 . S
C752 H743 0.950 . S
C752 C751 1.398 . S
C752 C753 1.391 . S
C753 H741 0.950 . S
C753 C749 1.393 . S
C753 C752 1.391 . S
C754 H744 0.950 . S
C754 C755 1.386 . S
C754 C756 1.391 . S
C755 C754 1.386 . S
C755 C759 1.393 . S
C756 H745 0.950 . S
C756 C754 1.391 . S
C756 C757 1.400 . S
C757 C751 1.491 . S
C757 C756 1.400 . S
C757 C758 1.398 . S
C758 H746 0.950 . S
C758 C757 1.398 . S
C758 C759 1.391 . S
C759 H747 0.950 . S
C759 C755 1.393 . S
C759 C758 1.391 . S
H760 C768 0.950 . S
H761 C773 0.950 . S
H762 C770 0.950 . S
H763 C772 0.950 . S
H764 C774 0.950 . S
H765 C776 0.950 . S
H766 C778 0.950 . S
H767 C779 0.950 . S
C768 H760 0.950 . S
C768 C769 1.386 . S
C768 C770 1.391 . S
C769 C768 1.386 . S
C769 C773 1.393 . S
C770 H762 0.950 . S
C770 C768 1.391 . S
C770 C771 1.400 . S
C771 C770 1.400 . S
C771 C772 1.398 . S
C771 C777 1.491 . S
C772 H763 0.950 . S
C772 C771 1.398 . S
C772 C773 1.391 . S
C773 H761 0.950 . S
C773 C769 1.393 . S
C773 C772 1.391 . S
C774 H764 0.950 . S
C774 C775 1.386 . S
C774 C776 1.391 . S
C775 C774 1.386 . S
C775 C779 1.393 . S
C776 H765 0.950 . S
C776 C774 1.391 . S
C776 C777 1.400 . S
C777 C771 1.491 . S
C777 C776 1.400 . S
C777 C778 1.398 . S
C778 H766 0.950 . S
C778 C777 1.398 . S
C778 C779 1.391 . S
C779 H767 0.950 . S
C779 C775 1.393 . S
C779 C778 1.391 . S
H780 C788 0.950 . S
H781 C793 0.950 . S
H782 C790 0.950 . S
H783 C792 0.950 . S
H784 C794 0.950 . S
H785 C796 0.950 . S
H786 C798 0.950 . S
H787 C799 0.950 . S
C788 H780 0.950 . S
C788 C789 1.386 . S
C788 C790 1.391 . S
C789 C788 1.386 . S
C789 C793 1.393 . S
C790 H782 0.950 . S
C790 C788 1.391 . S
C790 C791 1.400 . S
C791 C790 1.400 . S
C791 C792 1.398 . S
C791 C797 1.491 . S
C792 H783 0.950 . S
C792 C791 1.398 . S
C792 C793 1.391 . S
C793 H781 0.950 . S
C793 C789 1.393 . S
C793 C792 1.391 . S
C794 H784 0.950 . S
C794 C795 1.386 . S
C794 C796 1.391 . S
C795 C794 1.386 . S
C795 C799 1.393 . S
C796 H785 0.950 . S
C796 C794 1.391 . S
C796 C797 1.400 1_556 S
C797 C791 1.491 . S
C797 C796 1.400 1_554 S
C797 C798 1.398 . S
C798 H786 0.950 . S
C798 C797 1.398 . S
C798 C799 1.391 1_554 S
C799 H787 0.950 . S
C799 C795 1.393 . S
C799 C798 1.391 1_556 S
H800 C808 0.950 . S
H801 C813 0.950 . S
H802 C810 0.950 . S
H803 C812 0.950 . S
H804 C814 0.950 . S
H805 C816 0.950 . S
H806 C818 0.950 . S
H807 C819 0.950 . S
C808 H800 0.950 . S
C808 C809 1.386 . S
C808 C810 1.391 . S
C809 C808 1.386 . S
C809 C813 1.393 . S
C810 H802 0.950 . S
C810 C808 1.391 . S
C810 C811 1.400 . S
C811 C810 1.400 . S
C811 C812 1.398 . S
C811 C817 1.491 . S
C812 H803 0.950 . S
C812 C811 1.398 . S
C812 C813 1.391 . S
C813 H801 0.950 . S
C813 C809 1.393 . S
C813 C812 1.391 . S
C814 H804 0.950 . S
C814 C815 1.386 . S
C814 C816 1.391 . S
C815 C814 1.386 . S
C815 C819 1.393 . S
C816 H805 0.950 . S
C816 C814 1.391 . S
C816 C817 1.400 . S
C817 C811 1.491 . S
C817 C816 1.400 . S
C817 C818 1.398 . S
C818 H806 0.950 . S
C818 C817 1.398 . S
C818 C819 1.391 . S
C819 H807 0.950 . S
C819 C815 1.393 . S
C819 C818 1.391 . S
H820 C828 0.950 . S
H821 C833 0.950 . S
H822 C830 0.950 . S
H823 C832 0.950 . S
H824 C834 0.950 . S
H825 C836 0.950 . S
H826 C838 0.950 . S
H827 C839 0.950 . S
C828 H820 0.950 . S
C828 C829 1.386 . S
C828 C830 1.391 . S
C829 C828 1.386 . S
C829 C833 1.393 . S
C830 H822 0.950 . S
C830 C828 1.391 . S
C830 C831 1.400 . S
C831 C830 1.400 . S
C831 C832 1.398 . S
C831 C837 1.491 . S
C832 H823 0.950 . S
C832 C831 1.398 . S
C832 C833 1.391 . S
C833 H821 0.950 . S
C833 C829 1.393 . S
C833 C832 1.391 . S
C834 H824 0.950 . S
C834 C835 1.386 . S
C834 C836 1.391 . S
C835 C834 1.386 . S
C835 C839 1.393 . S
C836 H825 0.950 . S
C836 C834 1.391 . S
C836 C837 1.400 . S
C837 C831 1.491 . S
C837 C836 1.400 . S
C837 C838 1.398 . S
C838 H826 0.950 . S
C838 C837 1.398 . S
C838 C839 1.391 . S
C839 H827 0.950 . S
C839 C835 1.393 . S
C839 C838 1.391 . S
H840 C848 0.950 . S
H841 C853 0.950 . S
H842 C850 0.950 . S
H843 C852 0.950 . S
H844 C854 0.950 . S
H845 C856 0.950 . S
H846 C858 0.950 . S
H847 C859 0.950 . S
C848 H840 0.950 . S
C848 C849 1.386 . S
C848 C850 1.391 . S
C849 C848 1.386 . S
C849 C853 1.393 . S
C850 H842 0.950 . S
C850 C848 1.391 . S
C850 C851 1.400 . S
C851 C850 1.400 . S
C851 C852 1.398 . S
C851 C857 1.491 . S
C852 H843 0.950 . S
C852 C851 1.398 . S
C852 C853 1.391 . S
C853 H841 0.950 . S
C853 C849 1.393 . S
C853 C852 1.391 . S
C854 H844 0.950 . S
C854 C855 1.386 . S
C854 C856 1.391 . S
C855 C854 1.386 . S
C855 C859 1.393 . S
C856 H845 0.950 . S
C856 C854 1.391 . S
C856 C857 1.400 . S
C857 C851 1.491 . S
C857 C856 1.400 . S
C857 C858 1.398 . S
C858 H846 0.950 . S
C858 C857 1.398 . S
C858 C859 1.391 . S
C859 H847 0.950 . S
C859 C855 1.393 . S
C859 C858 1.391 . S
H860 C868 0.950 . S
H861 C873 0.950 . S
H862 C870 0.950 . S
H863 C872 0.950 . S
H864 C874 0.950 . S
H865 C876 0.950 . S
H866 C878 0.950 . S
H867 C879 0.950 . S
C868 H860 0.950 . S
C868 C869 1.386 . S
C868 C870 1.391 . S
C869 C868 1.386 . S
C869 C873 1.393 . S
C870 H862 0.950 . S
C870 C868 1.391 . S
C870 C871 1.400 . S
C871 C870 1.400 . S
C871 C872 1.398 . S
C871 C877 1.491 . S
C872 H863 0.950 . S
C872 C871 1.398 . S
C872 C873 1.391 . S
C873 H861 0.950 . S
C873 C869 1.393 . S
C873 C872 1.391 . S
C874 H864 0.950 . S
C874 C875 1.386 . S
C874 C876 1.391 . S
C875 C874 1.386 . S
C875 C879 1.393 . S
C876 H865 0.950 . S
C876 C874 1.391 . S
C876 C877 1.400 . S
C877 C871 1.491 . S
C877 C876 1.400 . S
C877 C878 1.398 . S
C878 H866 0.950 . S
C878 C877 1.398 . S
C878 C879 1.391 . S
C879 H867 0.950 . S
C879 C875 1.393 . S
C879 C878 1.391 . S
H880 C888 0.950 . S
H881 C893 0.950 . S
H882 C890 0.950 . S
H883 C892 0.950 . S
H884 C894 0.950 . S
H885 C896 0.950 . S
H886 C898 0.950 . S
H887 C899 0.950 . S
C888 H880 0.950 . S
C888 C889 1.386 . S
C888 C890 1.391 . S
C889 C888 1.386 . S
C889 C893 1.393 . S
C890 H882 0.950 . S
C890 C888 1.391 . S
C890 C891 1.400 . S
C891 C890 1.400 . S
C891 C892 1.398 . S
C891 C897 1.491 . S
C892 H883 0.950 . S
C892 C891 1.398 . S
C892 C893 1.391 . S
C893 H881 0.950 . S
C893 C889 1.393 . S
C893 C892 1.391 . S
C894 H884 0.950 . S
C894 C895 1.386 . S
C894 C896 1.391 . S
C895 C894 1.386 . S
C895 C899 1.393 . S
C896 H885 0.950 . S
C896 C894 1.391 . S
C896 C897 1.400 . S
C897 C891 1.491 . S
C897 C896 1.400 . S
C897 C898 1.398 . S
C898 H886 0.950 . S
C898 C897 1.398 . S
C898 C899 1.391 . S
C899 H887 0.950 . S
C899 C895 1.393 . S
C899 C898 1.391 . S
H900 C908 0.950 . S
H901 C913 0.950 . S
H902 C910 0.950 . S
H903 C912 0.950 . S
H904 C914 0.950 . S
H905 C916 0.950 . S
H906 C918 0.950 . S
H907 C919 0.950 1_565 S
C908 H900 0.950 . S
C908 C909 1.386 . S
C908 C910 1.391 . S
C909 C908 1.386 . S
C909 C913 1.393 . S
C910 H902 0.950 . S
C910 C908 1.391 . S
C910 C911 1.400 . S
C911 C910 1.400 . S
C911 C912 1.398 . S
C911 C917 1.491 . S
C912 H903 0.950 . S
C912 C911 1.398 . S
C912 C913 1.391 . S
C913 H901 0.950 . S
C913 C909 1.393 . S
C913 C912 1.391 . S
C914 H904 0.950 . S
C914 C915 1.386 . S
C914 C916 1.391 . S
C915 C914 1.386 . S
C915 C919 1.393 . S
C916 H905 0.950 . S
C916 C914 1.391 . S
C916 C917 1.400 . S
C917 C911 1.491 . S
C917 C916 1.400 . S
C917 C918 1.398 . S
C918 H906 0.950 . S
C918 C917 1.398 . S
C918 C919 1.391 . S
C919 H907 0.950 1_545 S
C919 C915 1.393 . S
C919 C918 1.391 . S
H920 C928 0.950 . S
H921 C933 0.950 . S
H922 C930 0.950 . S
H923 C932 0.950 . S
H924 C934 0.950 . S
H925 C936 0.950 . S
H926 C938 0.950 . S
H927 C939 0.950 . S
C928 H920 0.950 . S
C928 C929 1.386 . S
C928 C930 1.391 . S
C929 C928 1.386 . S
C929 C933 1.393 . S
C930 H922 0.950 . S
C930 C928 1.391 . S
C930 C931 1.400 . S
C931 C930 1.400 . S
C931 C932 1.398 . S
C931 C937 1.491 . S
C932 H923 0.950 . S
C932 C931 1.398 . S
C932 C933 1.391 . S
C933 H921 0.950 . S
C933 C929 1.393 . S
C933 C932 1.391 . S
C934 H924 0.950 . S
C934 C935 1.386 . S
C934 C936 1.391 . S
C935 C934 1.386 . S
C935 C939 1.393 . S
C936 H925 0.950 . S
C936 C934 1.391 . S
C936 C937 1.400 . S
C937 C931 1.491 . S
C937 C936 1.400 . S
C937 C938 1.398 . S
C938 H926 0.950 . S
C938 C937 1.398 . S
C938 C939 1.391 . S
C939 H927 0.950 . S
C939 C935 1.393 . S
C939 C938 1.391 . S
H940 C948 0.950 . S
H941 C953 0.950 . S
H942 C950 0.950 . S
H943 C952 0.950 1_556 S
H944 C954 0.950 . S
H945 C956 0.950 . S
H946 C958 0.950 . S
H947 C959 0.950 . S
C948 H940 0.950 . S
C948 C949 1.386 1_565 S
C948 C950 1.391 . S
C949 C948 1.386 1_545 S
C949 C953 1.393 . S
C950 H942 0.950 . S
C950 C948 1.391 . S
C950 C951 1.400 . S
C951 C950 1.400 . S
C951 C952 1.398 . S
C951 C957 1.491 . S
C952 H943 0.950 1_554 S
C952 C951 1.398 . S
C952 C953 1.391 1_565 S
C953 H941 0.950 . S
C953 C949 1.393 . S
C953 C952 1.391 1_545 S
C954 H944 0.950 . S
C954 C955 1.386 . S
C954 C956 1.391 . S
C955 C954 1.386 . S
C955 C959 1.393 1_556 S
C956 H945 0.950 . S
C956 C954 1.391 . S
C956 C957 1.400 1_556 S
C957 C951 1.491 . S
C957 C956 1.400 1_554 S
C957 C958 1.398 . S
C958 H946 0.950 . S
C958 C957 1.398 . S
C958 C959 1.391 . S
C959 H947 0.950 . S
C959 C955 1.393 1_554 S
C959 C958 1.391 . S
H960 C968 0.950 . S
H961 C973 0.950 . S
H962 C970 0.950 . S
H963 C972 0.950 . S
H964 C974 0.950 . S
H965 C976 0.950 . S
H966 C978 0.950 . S
H967 C979 0.950 . S
C968 H960 0.950 . S
C968 C969 1.386 . S
C968 C970 1.391 . S
C969 C968 1.386 . S
C969 C973 1.393 . S
C970 H962 0.950 . S
C970 C968 1.391 . S
C970 C971 1.400 . S
C971 C970 1.400 . S
C971 C972 1.398 . S
C971 C977 1.491 . S
C972 H963 0.950 . S
C972 C971 1.398 . S
C972 C973 1.391 . S
C973 H961 0.950 . S
C973 C969 1.393 . S
C973 C972 1.391 . S
C974 H964 0.950 . S
C974 C975 1.386 . S
C974 C976 1.391 . S
C975 C974 1.386 . S
C975 C979 1.393 . S
C976 H965 0.950 . S
C976 C974 1.391 . S
C976 C977 1.400 . S
C977 C971 1.491 . S
C977 C976 1.400 . S
C977 C978 1.398 . S
C978 H966 0.950 . S
C978 C977 1.398 . S
C978 C979 1.391 . S
C979 H967 0.950 . S
C979 C975 1.393 . S
C979 C978 1.391 . S
H980 C988 0.950 . S
H981 C993 0.950 . S
H982 C990 0.950 . S
H983 C992 0.950 . S
H984 C994 0.950 . S
H985 C996 0.950 . S
H986 C998 0.950 . S
H987 C999 0.950 . S
C988 H980 0.950 . S
C988 C989 1.386 . S
C988 C990 1.391 . S
C989 C988 1.386 . S
C989 C993 1.393 . S
C990 H982 0.950 . S
C990 C988 1.391 . S
C990 C991 1.400 . S
C991 C990 1.400 . S
C991 C992 1.398 . S
C991 C997 1.491 . S
C992 H983 0.950 . S
C992 C991 1.398 . S
C992 C993 1.391 . S
C993 H981 0.950 . S
C993 C989 1.393 . S
C993 C992 1.391 . S
C994 H984 0.950 . S
C994 C995 1.386 . S
C994 C996 1.391 . S
C995 C994 1.386 . S
C995 C999 1.393 . S
C996 H985 0.950 . S
C996 C994 1.391 . S
C996 C997 1.400 . S
C997 C991 1.491 . S
C997 C996 1.400 . S
C997 C998 1.398 . S
C998 H986 0.950 . S
C998 C997 1.398 . S
C998 C999 1.391 . S
C999 H987 0.950 . S
C999 C995 1.393 . S
C999 C998 1.391 . S
H1000 C1008 0.950 . S
H1001 C1013 0.950 . S
H1002 C1010 0.950 . S
H1003 C1012 0.950 . S
H1004 C1014 0.950 . S
H1005 C1016 0.950 . S
H1006 C1018 0.950 . S
H1007 C1019 0.950 . S
C1008 H1000 0.950 . S
C1008 C1009 1.386 . S
C1008 C1010 1.391 . S
C1009 C1008 1.386 . S
C1009 C1013 1.393 . S
C1010 H1002 0.950 . S
C1010 C1008 1.391 . S
C1010 C1011 1.400 . S
C1011 C1010 1.400 . S
C1011 C1012 1.398 . S
C1011 C1017 1.491 . S
C1012 H1003 0.950 . S
C1012 C1011 1.398 . S
C1012 C1013 1.391 . S
C1013 H1001 0.950 . S
C1013 C1009 1.393 . S
C1013 C1012 1.391 . S
C1014 H1004 0.950 . S
C1014 C1015 1.386 . S
C1014 C1016 1.391 . S
C1015 C1014 1.386 . S
C1015 C1019 1.393 . S
C1016 H1005 0.950 . S
C1016 C1014 1.391 . S
C1016 C1017 1.400 . S
C1017 C1011 1.491 . S
C1017 C1016 1.400 . S
C1017 C1018 1.398 . S
C1018 H1006 0.950 . S
C1018 C1017 1.398 . S
C1018 C1019 1.391 . S
C1019 H1007 0.950 . S
C1019 C1015 1.393 . S
C1019 C1018 1.391 . S
H1020 C1028 0.950 . S
H1021 C1033 0.950 . S
H1022 C1030 0.950 . S
H1023 C1032 0.950 . S
H1024 C1034 0.950 . S
H1025 C1036 0.950 . S
H1026 C1038 0.950 . S
H1027 C1039 0.950 . S
C1028 H1020 0.950 . S
C1028 C1029 1.386 . S
C1028 C1030 1.391 . S
C1029 C1028 1.386 . S
C1029 C1033 1.393 . S
C1030 H1022 0.950 . S
C1030 C1028 1.391 . S
C1030 C1031 1.400 . S
C1031 C1030 1.400 . S
C1031 C1032 1.398 . S
C1031 C1037 1.491 . S
C1032 H1023 0.950 . S
C1032 C1031 1.398 . S
C1032 C1033 1.391 . S
C1033 H1021 0.950 . S
C1033 C1029 1.393 . S
C1033 C1032 1.391 . S
C1034 H1024 0.950 . S
C1034 C1035 1.386 . S
C1034 C1036 1.391 . S
C1035 C1034 1.386 . S
C1035 C1039 1.393 . S
C1036 H1025 0.950 . S
C1036 C1034 1.391 . S
C1036 C1037 1.400 . S
C1037 C1031 1.491 . S
C1037 C1036 1.400 . S
C1037 C1038 1.398 . S
C1038 H1026 0.950 . S
C1038 C1037 1.398 . S
C1038 C1039 1.391 . S
C1039 H1027 0.950 . S
C1039 C1035 1.393 . S
C1039 C1038 1.391 . S
H1040 C1048 0.950 . S
H1041 C1053 0.950 . S
H1042 C1050 0.950 . S
H1043 C1052 0.950 . S
H1044 C1054 0.950 . S
H1045 C1056 0.950 . S
H1046 C1058 0.950 . S
H1047 C1059 0.950 . S
C1048 H1040 0.950 . S
C1048 C1049 1.386 . S
C1048 C1050 1.391 . S
C1049 C1048 1.386 . S
C1049 C1053 1.393 . S
C1050 H1042 0.950 . S
C1050 C1048 1.391 . S
C1050 C1051 1.400 . S
C1051 C1050 1.400 . S
C1051 C1052 1.398 . S
C1051 C1057 1.491 . S
C1052 H1043 0.950 . S
C1052 C1051 1.398 . S
C1052 C1053 1.391 . S
C1053 H1041 0.950 . S
C1053 C1049 1.393 . S
C1053 C1052 1.391 . S
C1054 H1044 0.950 . S
C1054 C1055 1.386 . S
C1054 C1056 1.391 . S
C1055 C1054 1.386 . S
C1055 C1059 1.393 . S
C1056 H1045 0.950 . S
C1056 C1054 1.391 . S
C1056 C1057 1.400 . S
C1057 C1051 1.491 . S
C1057 C1056 1.400 . S
C1057 C1058 1.398 . S
C1058 H1046 0.950 . S
C1058 C1057 1.398 . S
C1058 C1059 1.391 . S
C1059 H1047 0.950 . S
C1059 C1055 1.393 . S
C1059 C1058 1.391 . S
H1060 C1068 0.950 . S
H1061 C1073 0.950 . S
H1062 C1070 0.950 . S
H1063 C1072 0.950 . S
H1064 C1074 0.950 . S
H1065 C1076 0.950 . S
H1066 C1078 0.950 . S
H1067 C1079 0.950 . S
C1068 H1060 0.950 . S
C1068 C1069 1.386 . S
C1068 C1070 1.391 . S
C1069 C1068 1.386 . S
C1069 C1073 1.393 . S
C1070 H1062 0.950 . S
C1070 C1068 1.391 . S
C1070 C1071 1.400 . S
C1071 C1070 1.400 . S
C1071 C1072 1.398 . S
C1071 C1077 1.491 . S
C1072 H1063 0.950 . S
C1072 C1071 1.398 . S
C1072 C1073 1.391 . S
C1073 H1061 0.950 . S
C1073 C1069 1.393 . S
C1073 C1072 1.391 . S
C1074 H1064 0.950 . S
C1074 C1075 1.386 . S
C1074 C1076 1.391 . S
C1075 C1074 1.386 . S
C1075 C1079 1.393 . S
C1076 H1065 0.950 . S
C1076 C1074 1.391 . S
C1076 C1077 1.400 . S
C1077 C1071 1.491 . S
C1077 C1076 1.400 . S
C1077 C1078 1.398 . S
C1078 H1066 0.950 . S
C1078 C1077 1.398 . S
C1078 C1079 1.391 . S
C1079 H1067 0.950 . S
C1079 C1075 1.393 . S
C1079 C1078 1.391 . S
H1080 C1088 0.950 . S
H1081 C1093 0.950 . S
H1082 C1090 0.950 . S
H1083 C1092 0.950 . S
H1084 C1094 0.950 . S
H1085 C1096 0.950 1_455 S
H1086 C1098 0.950 . S
H1087 C1099 0.950 . S
C1088 H1080 0.950 . S
C1088 C1089 1.386 . S
C1088 C1090 1.391 . S
C1089 C1088 1.386 . S
C1089 C1093 1.393 . S
C1090 H1082 0.950 . S
C1090 C1088 1.391 . S
C1090 C1091 1.400 . S
C1091 C1090 1.400 . S
C1091 C1092 1.398 . S
C1091 C1097 1.491 . S
C1092 H1083 0.950 . S
C1092 C1091 1.398 . S
C1092 C1093 1.391 . S
C1093 H1081 0.950 . S
C1093 C1089 1.393 . S
C1093 C1092 1.391 . S
C1094 H1084 0.950 . S
C1094 C1095 1.386 . S
C1094 C1096 1.391 . S
C1095 C1094 1.386 . S
C1095 C1099 1.393 . S
C1096 H1085 0.950 1_655 S
C1096 C1094 1.391 . S
C1096 C1097 1.400 1_655 S
C1097 C1091 1.491 . S
C1097 C1096 1.400 1_455 S
C1097 C1098 1.398 . S
C1098 H1086 0.950 . S
C1098 C1097 1.398 . S
C1098 C1099 1.391 1_455 S
C1099 H1087 0.950 . S
C1099 C1095 1.393 . S
C1099 C1098 1.391 1_655 S
H1100 C1108 0.950 . S
H1101 C1113 0.950 . S
H1102 C1110 0.950 . S
H1103 C1112 0.950 . S
H1104 C1114 0.950 . S
H1105 C1116 0.950 . S
H1106 C1118 0.950 . S
H1107 C1119 0.950 . S
C1108 H1100 0.950 . S
C1108 C1109 1.386 . S
C1108 C1110 1.391 . S
C1109 C1108 1.386 . S
C1109 C1113 1.393 . S
C1110 H1102 0.950 . S
C1110 C1108 1.391 . S
C1110 C1111 1.400 . S
C1111 C1110 1.400 . S
C1111 C1112 1.398 . S
C1111 C1117 1.491 . S
C1112 H1103 0.950 . S
C1112 C1111 1.398 . S
C1112 C1113 1.391 . S
C1113 H1101 0.950 . S
C1113 C1109 1.393 . S
C1113 C1112 1.391 . S
C1114 H1104 0.950 . S
C1114 C1115 1.386 . S
C1114 C1116 1.391 . S
C1115 C1114 1.386 . S
C1115 C1119 1.393 . S
C1116 H1105 0.950 . S
C1116 C1114 1.391 . S
C1116 C1117 1.400 . S
C1117 C1111 1.491 . S
C1117 C1116 1.400 . S
C1117 C1118 1.398 . S
C1118 H1106 0.950 . S
C1118 C1117 1.398 . S
C1118 C1119 1.391 . S
C1119 H1107 0.950 . S
C1119 C1115 1.393 . S
C1119 C1118 1.391 . S
H1120 C1128 0.950 . S
H1121 C1133 0.950 . S
H1122 C1130 0.950 . S
H1123 C1132 0.950 . S
H1124 C1134 0.950 . S
H1125 C1136 0.950 . S
H1126 C1138 0.950 . S
H1127 C1139 0.950 . S
C1128 H1120 0.950 . S
C1128 C1129 1.386 . S
C1128 C1130 1.391 . S
C1129 C1128 1.386 . S
C1129 C1133 1.393 . S
C1130 H1122 0.950 . S
C1130 C1128 1.391 . S
C1130 C1131 1.400 . S
C1131 C1130 1.400 . S
C1131 C1132 1.398 . S
C1131 C1137 1.491 . S
C1132 H1123 0.950 . S
C1132 C1131 1.398 . S
C1132 C1133 1.391 . S
C1133 H1121 0.950 . S
C1133 C1129 1.393 . S
C1133 C1132 1.391 . S
C1134 H1124 0.950 . S
C1134 C1135 1.386 . S
C1134 C1136 1.391 . S
C1135 C1134 1.386 . S
C1135 C1139 1.393 . S
C1136 H1125 0.950 . S
C1136 C1134 1.391 . S
C1136 C1137 1.400 . S
C1137 C1131 1.491 . S
C1137 C1136 1.400 . S
C1137 C1138 1.398 . S
C1138 H1126 0.950 . S
C1138 C1137 1.398 . S
C1138 C1139 1.391 . S
C1139 H1127 0.950 . S
C1139 C1135 1.393 . S
C1139 C1138 1.391 . S
H1140 C1148 0.950 . S
H1141 C1153 0.950 . S
H1142 C1150 0.950 . S
H1143 C1152 0.950 . S
H1144 C1154 0.950 . S
H1145 C1156 0.950 . S
H1146 C1158 0.950 . S
H1147 C1159 0.950 . S
C1148 H1140 0.950 . S
C1148 C1149 1.386 . S
C1148 C1150 1.391 . S
C1149 C1148 1.386 . S
C1149 C1153 1.393 . S
C1150 H1142 0.950 . S
C1150 C1148 1.391 . S
C1150 C1151 1.400 . S
C1151 C1150 1.400 . S
C1151 C1152 1.398 . S
C1151 C1157 1.491 . S
C1152 H1143 0.950 . S
C1152 C1151 1.398 . S
C1152 C1153 1.391 . S
C1153 H1141 0.950 . S
C1153 C1149 1.393 . S
C1153 C1152 1.391 . S
C1154 H1144 0.950 . S
C1154 C1155 1.386 . S
C1154 C1156 1.391 . S
C1155 C1154 1.386 . S
C1155 C1159 1.393 . S
C1156 H1145 0.950 . S
C1156 C1154 1.391 . S
C1156 C1157 1.400 . S
C1157 C1151 1.491 . S
C1157 C1156 1.400 . S
C1157 C1158 1.398 . S
C1158 H1146 0.950 . S
C1158 C1157 1.398 . S
C1158 C1159 1.391 . S
C1159 H1147 0.950 . S
C1159 C1155 1.393 . S
C1159 C1158 1.391 . S
H1160 C1168 0.950 . S
H1161 C1173 0.950 . S
H1162 C1170 0.950 . S
H1163 C1172 0.950 . S
H1164 C1174 0.950 1_545 S
H1165 C1176 0.950 . S
H1166 C1178 0.950 . S
H1167 C1179 0.950 . S
C1168 H1160 0.950 . S
C1168 C1169 1.386 . S
C1168 C1170 1.391 . S
C1169 C1168 1.386 . S
C1169 C1173 1.393 . S
C1170 H1162 0.950 . S
C1170 C1168 1.391 . S
C1170 C1171 1.400 . S
C1171 C1170 1.400 . S
C1171 C1172 1.398 . S
C1171 C1177 1.491 . S
C1172 H1163 0.950 . S
C1172 C1171 1.398 . S
C1172 C1173 1.391 . S
C1173 H1161 0.950 . S
C1173 C1169 1.393 . S
C1173 C1172 1.391 . S
C1174 H1164 0.950 1_565 S
C1174 C1175 1.386 . S
C1174 C1176 1.391 . S
C1175 C1174 1.386 . S
C1175 C1179 1.393 . S
C1176 H1165 0.950 . S
C1176 C1174 1.391 . S
C1176 C1177 1.400 . S
C1177 C1171 1.491 . S
C1177 C1176 1.400 . S
C1177 C1178 1.398 . S
C1178 H1166 0.950 . S
C1178 C1177 1.398 . S
C1178 C1179 1.391 . S
C1179 H1167 0.950 . S
C1179 C1175 1.393 . S
C1179 C1178 1.391 . S
H1180 C1188 0.950 . S
H1181 C1193 0.950 . S
H1182 C1190 0.950 . S
H1183 C1192 0.950 . S
H1184 C1194 0.950 . S
H1185 C1196 0.950 . S
H1186 C1198 0.950 . S
H1187 C1199 0.950 . S
C1188 H1180 0.950 . S
C1188 C1189 1.390 . S
C1188 C1190 1.391 1_565 S
C1189 C1188 1.390 . S
C1189 C1193 1.358 1_565 S
C1190 H1182 0.950 . S
C1190 C1188 1.391 1_545 S
C1190 C1191 1.400 . S
C1191 C1190 1.400 . S
C1191 C1192 1.398 . S
C1191 C1197 1.491 . S
C1192 H1183 0.950 . S
C1192 C1191 1.398 . S
C1192 C1193 1.391 . S
C1193 H1181 0.950 . S
C1193 C1189 1.358 1_545 S
C1193 C1192 1.391 . S
C1194 H1184 0.950 . S
C1194 C1195 1.386 . S
C1194 C1196 1.391 . S
C1195 C1194 1.386 . S
C1195 C1199 1.393 . S
C1196 H1185 0.950 . S
C1196 C1194 1.391 . S
C1196 C1197 1.400 . S
C1197 C1191 1.491 . S
C1197 C1196 1.400 . S
C1197 C1198 1.398 . S
C1198 H1186 0.950 . S
C1198 C1197 1.398 . S
C1198 C1199 1.391 . S
C1199 H1187 0.950 . S
C1199 C1195 1.393 . S
C1199 C1198 1.391 . S
C489 C15 0.438 . S
C495 C455 0.440 . S
C509 C378 2.878 1_565 S
C515 C58 2.793 1_655 S
C529 C95 2.250 . S
C535 C338 2.297 . S
C549 C138 3.032 . S
C555 C418 3.116 . S
C569 C178 1.607 . S
C575 C415 1.734 . S
C589 C215 1.407 . S
C595 C458 1.346 . S
C609 C375 1.826 . S
C615 C258 1.573 . S
C629 C298 1.679 . S
C635 C335 1.588 . S
C649 C135 1.181 . S
C655 C175 1.113 . S
C669 C18 3.436 . S
C675 C218 3.554 . S
C689 C55 0.425 . S
C695 C255 0.521 . S
C709 C295 1.913 . S
C715 C98 1.844 1_554 S
C729 C19 3.187 . S
C735 C329 3.231 . S
C749 C50 2.928 1_655 S
C755 C409 2.881 . S
C769 C446 0.819 . S
C775 C99 0.806 . S
C789 C130 2.001 . S
C795 C369 1.955 . S
C809 C170 0.926 . S
C815 C366 0.904 . S
C829 C326 1.291 . S
C835 C219 1.244 . S
C849 C406 1.826 . S
C855 C250 1.845 . S
C869 C449 1.885 . S
C875 C290 1.854 . S
C889 C9 2.321 . S
C895 C139 2.291 . S
C909 C10 1.739 . S
C915 C46 1.705 1_545 S
C929 C59 3.086 . S
C935 C89 3.062 . S
C949 C126 1.879 . S
C955 C90 1.955 . S
C969 C210 1.071 . S
C975 C166 1.022 . S
C989 C209 2.158 . S
C995 C259 2.180 . S
C1009 C246 0.343 . S
C1015 C299 0.418 . S
C1029 C179 1.105 . S
C1035 C286 1.112 . S
C1049 C339 1.299 . S
C1055 C129 1.412 . S
C1069 C206 1.731 . S
C1075 C370 1.762 . S
C1089 C330 1.732 . S
C1095 C249 1.744 . S
C1109 C410 3.246 . S
C1115 C289 3.199 . S
C1129 C169 0.450 . S
C1135 C459 0.435 . S
C1149 C450 1.415 . S
C1155 C49 1.417 . S
C1169 C86 1.091 . S
C1175 C379 1.088 . S
C1189 C419 2.026 . S
C1195 C6 2.017 . S
