# Generated by pormake.
# Topology wme, (6)-cn, num edge types: 1
# Building blocks:
#     Node 0, Type 0, BuildingBlock: KUMJIN_clean_sbu_0, # of connection points: 6
#     Node 1, Type 0, BuildingBlock: KUMJIN_clean_sbu_0, # of connection points: 6
#     Node 2, Type 0, BuildingBlock: KUMJIN_clean_sbu_0, # of connection points: 6
#     Node 3, Type 0, BuildingBlock: KUMJIN_clean_sbu_0, # of connection points: 6
#     Node 4, Type 0, BuildingBlock: KUMJIN_clean_sbu_0, # of connection points: 6
#     Node 5, Type 0, BuildingBlock: KUMJIN_clean_sbu_0, # of connection points: 6
#     Node 6, Type 0, BuildingBlock: KUMJIN_clean_sbu_0, # of connection points: 6
#     Node 7, Type 0, BuildingBlock: KUMJIN_clean_sbu_0, # of connection points: 6
#     Node 8, Type 0, BuildingBlock: KUMJIN_clean_sbu_0, # of connection points: 6
#     Node 9, Type 0, BuildingBlock: KUMJIN_clean_sbu_0, # of connection points: 6
#     Node 10, Type 0, BuildingBlock: KUMJIN_clean_sbu_0, # of connection points: 6
#     Node 11, Type 0, BuildingBlock: KUMJIN_clean_sbu_0, # of connection points: 6
#     Edge 12, Type (0, 0), BuildingBlock: CIFDUS_clean_linker_0, # of connection points: 2
#     Edge 13, Type (0, 0), BuildingBlock: CIFDUS_clean_linker_0, # of connection points: 2
#     Edge 14, Type (0, 0), BuildingBlock: CIFDUS_clean_linker_0, # of connection points: 2
#     Edge 15, Type (0, 0), BuildingBlock: CIFDUS_clean_linker_0, # of connection points: 2
#     Edge 16, Type (0, 0), BuildingBlock: CIFDUS_clean_linker_0, # of connection points: 2
#     Edge 17, Type (0, 0), BuildingBlock: CIFDUS_clean_linker_0, # of connection points: 2
#     Edge 18, Type (0, 0), BuildingBlock: CIFDUS_clean_linker_0, # of connection points: 2
#     Edge 19, Type (0, 0), BuildingBlock: CIFDUS_clean_linker_0, # of connection points: 2
#     Edge 20, Type (0, 0), BuildingBlock: CIFDUS_clean_linker_0, # of connection points: 2
#     Edge 21, Type (0, 0), BuildingBlock: CIFDUS_clean_linker_0, # of connection points: 2
#     Edge 22, Type (0, 0), BuildingBlock: CIFDUS_clean_linker_0, # of connection points: 2
#     Edge 23, Type (0, 0), BuildingBlock: CIFDUS_clean_linker_0, # of connection points: 2
#     Edge 24, Type (0, 0), BuildingBlock: CIFDUS_clean_linker_0, # of connection points: 2
#     Edge 25, Type (0, 0), BuildingBlock: CIFDUS_clean_linker_0, # of connection points: 2
#     Edge 26, Type (0, 0), BuildingBlock: CIFDUS_clean_linker_0, # of connection points: 2
#     Edge 27, Type (0, 0), BuildingBlock: CIFDUS_clean_linker_0, # of connection points: 2
#     Edge 28, Type (0, 0), BuildingBlock: CIFDUS_clean_linker_0, # of connection points: 2
#     Edge 29, Type (0, 0), BuildingBlock: CIFDUS_clean_linker_0, # of connection points: 2
#     Edge 30, Type (0, 0), BuildingBlock: CIFDUS_clean_linker_0, # of connection points: 2
#     Edge 31, Type (0, 0), BuildingBlock: CIFDUS_clean_linker_0, # of connection points: 2
#     Edge 32, Type (0, 0), BuildingBlock: CIFDUS_clean_linker_0, # of connection points: 2
#     Edge 33, Type (0, 0), BuildingBlock: CIFDUS_clean_linker_0, # of connection points: 2
#     Edge 34, Type (0, 0), BuildingBlock: CIFDUS_clean_linker_0, # of connection points: 2
#     Edge 35, Type (0, 0), BuildingBlock: CIFDUS_clean_linker_0, # of connection points: 2
#     Edge 36, Type (0, 0), BuildingBlock: CIFDUS_clean_linker_0, # of connection points: 2
#     Edge 37, Type (0, 0), BuildingBlock: CIFDUS_clean_linker_0, # of connection points: 2
#     Edge 38, Type (0, 0), BuildingBlock: CIFDUS_clean_linker_0, # of connection points: 2
#     Edge 39, Type (0, 0), BuildingBlock: CIFDUS_clean_linker_0, # of connection points: 2
#     Edge 40, Type (0, 0), BuildingBlock: CIFDUS_clean_linker_0, # of connection points: 2
#     Edge 41, Type (0, 0), BuildingBlock: CIFDUS_clean_linker_0, # of connection points: 2
#     Edge 42, Type (0, 0), BuildingBlock: CIFDUS_clean_linker_0, # of connection points: 2
#     Edge 43, Type (0, 0), BuildingBlock: CIFDUS_clean_linker_0, # of connection points: 2
#     Edge 44, Type (0, 0), BuildingBlock: CIFDUS_clean_linker_0, # of connection points: 2
#     Edge 45, Type (0, 0), BuildingBlock: CIFDUS_clean_linker_0, # of connection points: 2
#     Edge 46, Type (0, 0), BuildingBlock: CIFDUS_clean_linker_0, # of connection points: 2
#     Edge 47, Type (0, 0), BuildingBlock: CIFDUS_clean_linker_0, # of connection points: 2
# Relax obj value: 0.092
# Max RMSD: 0.212
# Mean RMSD: 0.212
data_MOF--net-wme--node1-KUMJIN_clean_sbu_0--edge1-CIFDUS_clean_linker_0
_symmetry_space_group_name_H-M    P1
_symmetry_Int_Tables_number       1
_symmetry_cell_setting            triclinic
loop_
_symmetry_equiv_pos_as_xyz
'x, y, z'
_cell_length_a     34.694697
_cell_length_b     34.727606
_cell_length_c     47.815043
_cell_angle_alpha  90.101329
_cell_angle_beta   90.218816
_cell_angle_gamma 119.79715
loop_
_atom_site_label
_atom_site_type_symbol
_atom_site_fract_x
_atom_site_fract_y
_atom_site_fract_z
_atom_type_partial_charge
Eu0 Eu 0.22721 0.37837 0.11207 0.0
C1 C 0.388 0.38021 0.12914 0.0
C2 C 0.41545 0.36934 0.08517 0.0
C3 C 0.46529 0.42871 0.11634 0.0
C4 C 0.38022 0.35829 0.10398 0.0
C5 C 0.4312 0.41439 0.13618 0.0
C6 C 0.45741 0.40615 0.0908 0.0
C7 C 0.40559 0.41262 0.18316 0.0
N8 N 0.3543 0.36505 0.14783 0.0
C9 C 0.36339 0.37874 0.17513 0.0
C10 C 0.43935 0.4315 0.16338 0.0
Eu11 Eu 0.28138 0.3134 0.13074 0.0
N12 N 0.33966 0.32229 0.09974 0.0
C13 C 0.33484 0.29159 0.07989 0.0
C14 C 0.40831 0.34121 0.06239 0.0
C15 C 0.36825 0.30132 0.06029 0.0
H16 H 0.33861 0.36385 0.19111 0.0
H17 H 0.36318 0.27791 0.04375 0.0
H18 H 0.48461 0.41578 0.07632 0.0
H19 H 0.41205 0.42402 0.20465 0.0
H20 H 0.30429 0.26017 0.07851 0.0
H21 H 0.05611 0.28625 0.14976 0.0
H22 H 0.43445 0.34849 0.04745 0.0
H23 H 0.25859 0.43743 0.05199 0.0
H24 H 0.13729 0.33281 0.15416 0.0
H25 H 0.22779 0.43425 0.00489 0.0
H26 H 0.49839 0.45558 0.12113 0.0
H27 H 1.02101 0.26546 0.10295 0.0
H28 H 1.02901 0.27682 0.05104 0.0
H29 H 0.47204 0.45766 0.16966 0.0
H30 H 0.07631 0.31833 0.01125 0.0
N31 N 0.14868 0.3357 0.11029 0.0
C32 C 0.12268 0.32346 0.13358 0.0
C33 C 0.0568 0.28556 0.10474 0.0
C34 C 0.08329 0.30264 0.08097 0.0
C35 C 0.07648 0.29733 0.13119 0.0
C36 C 0.12974 0.32869 0.08449 0.0
H37 H 0.1501 0.37772 0.99397 0.0
N38 N 0.19988 0.38109 0.06696 0.0
C39 C 0.20745 0.41064 0.02068 0.0
C40 C 0.15616 0.35227 0.06212 0.0
C41 C 0.22481 0.41226 0.04736 0.0
C42 C 0.16363 0.37858 0.01457 0.0
C43 C 0.13697 0.34985 0.03565 0.0
O44 O 0.26112 0.44296 0.1333 0.0
O45 O 0.29139 0.38226 0.12531 0.0
O46 O 0.27126 0.34381 0.16974 0.0
O47 O 0.21544 0.35986 0.15859 0.0
O48 O 0.29292 0.41793 0.0904 0.0
O49 O 0.19709 0.42111 0.11535 0.0
O50 O 0.26378 0.27321 0.16885 0.0
O51 O 0.2166 0.3137 0.12814 0.0
O52 O 0.23586 0.34872 0.07101 0.0
O53 O 0.27002 0.30819 0.08439 0.0
O54 O 0.21598 0.25858 0.11232 0.0
O55 O 0.29131 0.25577 0.13455 0.0
C56 C 0.31722 0.41068 0.10771 0.0
C57 C 0.24675 0.499 0.11614 0.0
C58 C 0.23487 0.56204 0.10726 0.0
C59 C 0.21952 0.51873 0.11762 0.0
C60 C 0.27751 0.58524 0.09562 0.0
C61 C 0.28921 0.52313 0.10422 0.0
C62 C 0.30441 0.56594 0.09417 0.0
C63 C 0.24129 0.35472 0.17705 0.0
C64 C 0.23122 0.45378 0.12738 0.0
C65 C 0.09139 0.32083 0.03153 0.0
C66 C 0.06454 0.29722 0.05416 0.0
C67 C 0.19158 0.2762 0.11728 0.0
C68 C 0.23382 0.19609 0.15928 0.0
C69 C 0.24099 0.15977 0.15498 0.0
C70 C 0.20454 0.11597 0.15355 0.0
C71 C 0.16129 0.10902 0.15631 0.0
C72 C 0.19017 0.18756 0.16315 0.0
C73 C 0.15424 0.14457 0.1613 0.0
C74 C 0.25308 0.32295 0.06544 0.0
C75 C 0.27095 0.24284 0.15825 0.0
H76 H 0.18653 0.5004 0.12645 0.0
H77 H 0.28982 0.6183 0.0873 0.0
H78 H 0.31079 0.50898 0.10267 0.0
H79 H 0.33715 0.58418 0.08503 0.0
H80 H 0.27448 0.16552 0.15254 0.0
H81 H 0.1329 0.07576 0.15545 0.0
H82 H 0.18383 0.21434 0.16748 0.0
H83 H 0.12078 0.13876 0.16394 0.0
Eu84 Eu 0.84908 0.20182 0.60025 0.0
C85 C 0.99151 0.32247 0.68701 0.0
C86 C 1.02444 0.39512 0.66545 0.0
C87 C 1.02139 0.38888 0.71607 0.0
C88 C 1.00269 0.34839 0.66301 0.0
C89 C 1.00202 0.34266 0.71372 0.0
C90 C 0.0325 0.41503 0.69201 0.0
C91 C 0.97757 0.27047 0.73391 0.0
N92 N 0.97295 0.2778 0.68429 0.0
C93 C 0.96756 0.25188 0.70709 0.0
C94 C 0.99419 0.31595 0.73728 0.0
Eu95 Eu 0.95506 0.24932 0.63827 0.0
N96 N 0.99518 0.32834 0.63747 0.0
C97 C 1.01199 0.35353 0.61394 0.0
C98 C 0.03908 0.4207 0.64119 0.0
C99 C 0.03364 0.39983 0.61542 0.0
H100 H 0.95471 0.21668 0.70475 0.0
H101 H 0.0458 0.41938 0.59657 0.0
H102 H 0.04868 0.45079 0.69418 0.0
H103 H 0.97225 0.24968 0.75196 0.0
H104 H 1.00807 0.33879 0.59364 0.0
H105 H 0.74997 0.02661 0.62708 0.0
H106 H 0.05587 0.4566 0.64221 0.0
H107 H 0.86566 0.24867 0.53553 0.0
H108 H 0.78884 0.10769 0.63554 0.0
H109 H 0.85715 0.22548 0.48631 0.0
H110 H 1.02915 0.40486 0.73642 0.0
H111 H 0.7477 0.99766 0.57945 0.0
H112 H 0.7636 1.01326 0.52826 0.0
H113 H 1.0019 0.33025 0.75811 0.0
H114 H 0.79144 0.06754 0.48997 0.0
N115 N 0.81068 0.124 0.59362 0.0
C116 C 0.78869 0.09517 0.6148 0.0
C117 C 0.76516 0.03316 0.58312 0.0
C118 C 0.78447 0.06301 0.56103 0.0
C119 C 0.76635 0.04935 0.61003 0.0
C120 C 0.80679 0.10895 0.56696 0.0
H121 H 0.82593 0.14629 0.47413 0.0
N122 N 0.84072 0.1833 0.5517 0.0
C123 C 0.84727 0.20096 0.5027 0.0
C124 C 0.82205 0.13943 0.54535 0.0
C125 C 0.85202 0.21394 0.53077 0.0
C126 C 0.82975 0.15626 0.49592 0.0
C127 C 0.81625 0.12479 0.51729 0.0
O128 O 0.8117 0.23699 0.5959 0.0
O129 O 0.90277 0.26303 0.62123 0.0
O130 O 0.90444 0.24587 0.66884 0.0
O131 O 0.83755 0.19333 0.64815 0.0
O132 O 0.88035 0.2717 0.58323 0.0
O133 O 0.77693 0.16871 0.60809 0.0
O134 O 1.02196 0.26596 0.65203 0.0
O135 O 0.89803 0.18675 0.62119 0.0
O136 O 0.90318 0.20583 0.5708 0.0
O137 O 0.96681 0.26261 0.59182 0.0
O138 O 0.92193 0.18236 0.66008 0.0
O139 O 0.98704 0.21294 0.62243 0.0
C140 C 0.90695 0.29229 0.60376 0.0
C141 C 0.73667 0.19461 0.581 0.0
C142 C 0.65815 0.16988 0.57036 0.0
C143 C 0.69186 0.17618 0.5898 0.0
C144 C 0.67051 0.18327 0.54246 0.0
C145 C 0.74714 0.20686 0.5529 0.0
C146 C 0.71437 0.20128 0.53388 0.0
C147 C 0.8613 0.21785 0.66995 0.0
C148 C 0.77301 0.20264 0.60087 0.0
C149 C 0.79612 0.07923 0.51139 0.0
C150 C 0.78029 0.04838 0.5332 0.0
C151 C 0.89332 0.1601 0.64076 0.0
C152 C 0.06531 0.24821 0.62216 0.0
C153 C 0.08903 0.22622 0.62868 0.0
C154 C 0.12824 0.23625 0.61422 0.0
C155 C 0.1431 0.26836 0.59298 0.0
C156 C 0.08146 0.28107 0.60156 0.0
C157 C 0.11996 0.29077 0.58685 0.0
C158 C 0.94592 0.23672 0.57015 0.0
C159 C 1.02346 0.23576 0.63672 0.0
H160 H 0.68335 0.16656 0.61143 0.0
H161 H 0.64615 0.18028 0.52708 0.0
H162 H 0.78095 0.22159 0.54565 0.0
H163 H 0.72309 0.21134 0.51235 0.0
H164 H 0.07682 0.20111 0.64485 0.0
H165 H 0.1733 0.27699 0.58164 0.0
H166 H 0.06435 0.2992 0.59702 0.0
H167 H 0.13214 0.31602 0.57082 0.0
Eu168 Eu 0.69199 0.84035 0.09813 0.0
C169 C 0.69146 0.98337 0.17872 0.0
C170 C 0.64325 1.00392 0.15397 0.0
C171 C 0.64776 1.00862 0.20463 0.0
C172 C 0.67399 0.98835 0.15365 0.0
C173 C 0.67915 0.99439 0.20437 0.0
C174 C 0.62977 1.01324 0.17952 0.0
C175 C 0.73135 0.97852 0.22789 0.0
N176 N 0.72145 0.9691 0.1781 0.0
C177 C 0.74219 0.96752 0.20212 0.0
C178 C 0.69931 0.99152 0.22908 0.0
Eu179 Eu 0.73675 0.94952 0.13377 0.0
N180 N 0.68759 0.9791 0.12906 0.0
C181 C 0.67322 0.98738 0.10418 0.0
C182 C 0.62727 1.01035 0.12859 0.0
C183 C 0.64271 1.00252 0.10364 0.0
H184 H 0.76589 0.95608 0.20172 0.0
H185 H 0.63087 1.00787 0.08385 0.0
H186 H 0.60599 0.02485 0.18004 0.0
H187 H 0.74723 0.97631 0.24687 0.0
H188 H 0.68331 0.98122 0.08426 0.0
H189 H 0.77053 0.74713 0.13624 0.0
H190 H 0.60355 0.02203 0.12802 0.0
H191 H 0.66311 0.8379 0.03031 0.0
H192 H 0.72338 0.78167 0.13905 0.0
H193 H 0.69428 0.83915 0.98348 0.0
H194 H 0.63765 1.01678 0.22415 0.0
H195 H 0.81515 0.7569 0.09385 0.0
H196 H 0.83633 0.78746 0.04507 0.0
H197 H 0.69071 0.9997 0.24913 0.0
H198 H 0.817 0.81549 0.0031 0.0
N199 N 0.73951 0.80924 0.09816 0.0
C200 C 0.74174 0.78522 0.12011 0.0
C201 C 0.79373 0.77131 0.09473 0.0
C202 C 0.78989 0.79435 0.07191 0.0
C203 C 0.7685 0.76562 0.11865 0.0
C204 C 0.76057 0.81133 0.0739 0.0
H205 H 0.76165 0.83211 0.97939 0.0
N206 N 0.71426 0.83353 0.05217 0.0
C207 C 0.71012 0.83565 0.00209 0.0
C208 C 0.74822 0.82499 0.05015 0.0
C209 C 0.69253 0.83485 0.02853 0.0
C210 C 0.74831 0.83192 0.99988 0.0
C211 C 0.76673 0.82462 0.02402 0.0
O212 O 0.65595 0.77218 0.11345 0.0
O213 O 0.67582 0.88919 0.11758 0.0
O214 O 0.69628 0.89756 0.16572 0.0
O215 O 0.68629 0.83112 0.14622 0.0
O216 O 0.64138 0.85839 0.08176 0.0
O217 O 0.62685 0.79188 0.08075 0.0
O218 O 0.80248 0.98831 0.11438 0.0
O219 O 0.75117 0.89624 0.1196 0.0
O220 O 0.73142 0.8966 0.06683 0.0
O221 O 0.73403 0.95881 0.08751 0.0
O222 O 0.7774 0.92629 0.15805 0.0
O223 O 0.78289 1.01805 0.1466 0.0
C224 C 0.64516 0.88553 0.10144 0.0
C225 C 0.57794 0.73363 0.11076 0.0
C226 C 0.51124 0.66151 0.11929 0.0
C227 C 0.55233 0.68756 0.10566 0.0
C228 C 0.4965 0.6828 0.138 0.0
C229 C 0.56248 0.75379 0.12957 0.0
C230 C 0.52192 0.72844 0.14305 0.0
C231 C 0.68401 0.85494 0.16747 0.0
C232 C 0.6216 0.75992 0.09732 0.0
C233 C 0.80102 0.81426 0.02276 0.0
C234 C 0.81215 0.79846 0.04666 0.0
C235 C 0.77545 0.89771 0.14007 0.0
C236 C 0.85928 0.03939 0.14464 0.0
C237 C 0.89874 0.07299 0.1323 0.0
C238 C 0.94026 0.08887 0.14602 0.0
C239 C 0.94147 0.06949 0.17163 0.0
C240 C 0.86194 0.02191 0.17054 0.0
C241 C 0.90268 0.03654 0.18375 0.0
C242 C 0.73837 0.9378 0.06588 0.0
C243 C 0.81535 0.02243 0.13083 0.0
H244 H 0.56478 0.67202 0.09142 0.0
H245 H 0.46482 0.66434 0.14843 0.0
H246 H 0.58189 0.78905 0.13392 0.0
H247 H 0.51006 0.74426 0.15747 0.0
H248 H 0.89699 0.08718 0.11249 0.0
H249 H 0.97265 0.07971 0.18237 0.0
H250 H 0.83255 0.99693 0.18074 0.0
H251 H 0.90419 0.02233 0.20357 0.0
Eu252 Eu 0.8386 0.65612 0.60533 0.0
C253 C 0.78049 0.7187 0.70644 0.0
C254 C 0.70102 0.67209 0.71195 0.0
C255 C 0.74865 0.70289 0.75297 0.0
C256 C 0.73876 0.69271 0.69475 0.0
C257 C 0.78604 0.72414 0.73562 0.0
C258 C 0.70622 0.67695 0.74116 0.0
C259 C 0.86498 0.77098 0.72805 0.0
N260 N 0.8159 0.73801 0.68896 0.0
C261 C 0.8577 0.76464 0.69916 0.0
C262 C 0.82903 0.75051 0.74637 0.0
Eu263 Eu 0.80152 0.72518 0.64039 0.0
N264 N 0.73509 0.68889 0.66644 0.0
C265 C 0.69444 0.66739 0.65388 0.0
C266 C 0.65921 0.64787 0.6992 0.0
C267 C 0.6559 0.64592 0.67001 0.0
H268 H 0.88538 0.7804 0.68496 0.0
H269 H 0.62367 0.62826 0.65994 0.0
H270 H 0.67763 0.66113 0.75477 0.0
H271 H 0.89829 0.79155 0.73616 0.0
H272 H 0.69192 0.66736 0.63137 0.0
H273 H 1.01443 0.74631 0.57794 0.0
H274 H 0.62931 0.63145 0.71165 0.0
H275 H 0.74948 0.59895 0.56505 0.0
H276 H 0.9498 0.71323 0.60955 0.0
H277 H 0.73102 0.58163 0.5148 0.0
H278 H 0.75217 0.70641 0.7755 0.0
H279 H 1.00282 0.73581 0.52686 0.0
H280 H 0.94953 0.70138 0.48632 0.0
H281 H 0.8348 0.75532 0.76872 0.0
H282 H 0.87285 0.65643 0.46921 0.0
N283 N 0.90235 0.69007 0.57668 0.0
C284 C 0.94447 0.7114 0.58725 0.0
C285 C 0.97435 0.72284 0.54055 0.0
C286 C 0.93107 0.69849 0.52987 0.0
C287 C 0.98107 0.72896 0.5694 0.0
C288 C 0.89528 0.68196 0.54874 0.0
H289 H 0.79109 0.61167 0.47964 0.0
N290 N 0.81843 0.63966 0.5579 0.0
C291 C 0.76517 0.60267 0.52134 0.0
C292 C 0.85209 0.65569 0.53906 0.0
C293 C 0.77553 0.61269 0.54968 0.0
C294 C 0.7992 0.61962 0.50156 0.0
C295 C 0.84335 0.64622 0.51033 0.0
O296 O 0.81392 0.5848 0.6065 0.0
O297 O 0.77735 0.66104 0.61626 0.0
O298 O 0.8069 0.67777 0.67109 0.0
O299 O 0.86367 0.67154 0.65063 0.0
O300 O 0.77445 0.60123 0.62236 0.0
O301 O 0.88419 0.62965 0.61172 0.0
O302 O 0.83053 0.79742 0.63936 0.0
O303 O 0.86114 0.71834 0.62945 0.0
O304 O 0.82852 0.70137 0.57386 0.0
O305 O 0.77371 0.709 0.5962 0.0
O306 O 0.87068 0.78063 0.62794 0.0
O307 O 0.76006 0.75603 0.6334 0.0
C308 C 0.75254 0.62176 0.62494 0.0
C309 C 0.86156 0.5592 0.58994 0.0
C310 C 0.88639 0.5049 0.58086 0.0
C311 C 0.88055 0.53346 0.59958 0.0
C312 C 0.87224 0.50224 0.55291 0.0
C313 C 0.848 0.55514 0.5619 0.0
C314 C 0.85341 0.52712 0.5436 0.0
C315 C 0.83821 0.66672 0.67255 0.0
C316 C 0.85303 0.58822 0.60894 0.0
C317 C 0.87883 0.66337 0.4914 0.0
C318 C 0.92256 0.68924 0.50115 0.0
C319 C 0.88953 0.75757 0.62331 0.0
C320 C 0.78619 0.82635 0.6562 0.0
C321 C 0.7983 0.87093 0.64944 0.0
C322 C 0.79619 0.89965 0.67005 0.0
C323 C 0.78422 0.88281 0.6975 0.0
C324 C 0.77071 0.81072 0.68308 0.0
C325 C 0.77059 0.8388 0.70364 0.0
C326 C 0.79728 0.71311 0.57358 0.0
C327 C 0.79283 0.79674 0.63658 0.0
H328 H 0.89079 0.53579 0.62124 0.0
H329 H 0.87524 0.48023 0.5381 0.0
H330 H 0.83207 0.57282 0.55413 0.0
H331 H 0.84246 0.52427 0.52208 0.0
H332 H 0.80907 0.88275 0.62842 0.0
H333 H 0.78538 0.90347 0.71478 0.0
H334 H 0.75957 0.77686 0.68845 0.0
H335 H 0.7603 0.82648 0.72466 0.0
Eu336 Eu 0.2142 0.83733 0.09959 0.0
C337 C 0.07615 0.71135 0.19044 0.0
C338 C 0.05211 0.63767 0.17239 0.0
C339 C 0.05169 0.64927 0.22249 0.0
C340 C 0.06889 0.68345 0.16804 0.0
C341 C 0.06697 0.69452 0.21793 0.0
C342 C 0.04429 0.62089 0.19975 0.0
C343 C 0.08643 0.76787 0.23419 0.0
N344 N 0.09087 0.75479 0.18527 0.0
C345 C 0.09505 0.78295 0.20658 0.0
C346 C 0.07272 0.72353 0.23994 0.0
Eu347 Eu 0.10824 0.77902 0.13831 0.0
N348 N 0.07649 0.70076 0.14191 0.0
C349 C 0.06534 0.67345 0.11909 0.0
C350 C 0.04279 0.60998 0.14909 0.0
C351 C 0.04894 0.62791 0.12231 0.0
H352 H 0.10575 0.81732 0.20253 0.0
H353 H 0.04118 0.6067 0.10411 0.0
H354 H 0.03172 0.58589 0.20351 0.0
H355 H 0.09057 0.79051 0.25103 0.0
H356 H 0.06999 0.68646 0.09819 0.0
H357 H 0.29722 1.01273 0.12911 0.0
H358 H 1.02999 0.57467 0.15152 0.0
H359 H 0.20281 0.79463 0.03467 0.0
H360 H 0.26828 0.93247 0.13628 0.0
H361 H 0.20209 0.8173 0.98578 0.0
H362 H 0.04478 0.63578 0.24346 0.0
H363 H 0.28908 0.04007 0.08292 0.0
H364 H 0.26512 0.02329 0.03246 0.0
H365 H 0.06613 0.71195 0.26135 0.0
H366 H 0.23798 0.96941 0.99345 0.0
N367 N 0.24442 0.91486 0.09456 0.0
C368 C 0.26545 0.94425 0.11589 0.0
C369 C 0.27697 1.00497 0.08585 0.0
C370 C 0.25802 0.97494 0.06362 0.0
C371 C 0.28173 0.98968 0.11193 0.0
C372 C 0.24296 0.92965 0.06856 0.0
H373 H 0.21725 0.89342 0.97557 0.0
N374 N 0.21792 0.8572 0.05184 0.0
C375 C 0.20952 0.84078 0.00268 0.0
C376 C 0.22918 0.89987 0.0465 0.0
C377 C 0.21021 0.82812 0.03036 0.0
C378 C 0.21797 0.88374 0.99701 0.0
C379 C 0.22869 0.91412 0.019 0.0
O380 O 0.2833 0.8726 0.11404 0.0
O381 O 0.1666 0.77493 0.1214 0.0
O382 O 0.1615 0.78707 0.16841 0.0
O383 O 0.22435 0.84607 0.14784 0.0
O384 O 0.19248 0.76763 0.08446 0.0
O385 O 0.26267 0.81892 0.08453 0.0
O386 O 0.06777 0.81015 0.14653 0.0
O387 O 0.15901 0.84294 0.11883 0.0
O388 O 0.15577 0.82636 0.07134 0.0
O389 O 0.09892 0.76353 0.09186 0.0
O390 O 0.13447 0.84771 0.15716 0.0
O391 O 0.0418 0.75242 0.11983 0.0
C392 C 0.16721 0.74637 0.10517 0.0
C393 C 0.32358 0.83407 0.11463 0.0
C394 C 0.39625 0.83869 0.12196 0.0
C395 C 0.36868 0.85128 0.1072 0.0
C396 C 0.37739 0.80845 0.14417 0.0
C397 C 0.30605 0.80408 0.13684 0.0
C398 C 0.33284 0.79141 0.15146 0.0
C399 C 0.20287 0.82044 0.16974 0.0
C400 C 0.29538 0.84846 0.09973 0.0
C401 C 0.23979 0.95832 0.01432 0.0
C402 C 0.25488 0.98885 0.03655 0.0
C403 C 0.161 0.87009 0.13727 0.0
C404 C 0.98959 0.76848 0.1419 0.0
C405 C 0.97036 0.79554 0.13722 0.0
C406 C 0.92729 0.78294 0.14711 0.0
C407 C 0.904 0.74243 0.16157 0.0
C408 C 0.96581 0.72882 0.15675 0.0
C409 C 0.9232 0.7159 0.16642 0.0
C410 C 0.11517 0.79118 0.07067 0.0
C411 C 0.03449 0.7824 0.13118 0.0
H412 H 0.38228 0.87477 0.09017 0.0
H413 H 0.3968 0.79708 0.15563 0.0
H414 H 0.27167 0.79059 0.1429 0.0
H415 H 0.31893 0.76804 0.16851 0.0
H416 H 0.98925 0.82656 0.12614 0.0
H417 H 0.8705 0.7307 0.16888 0.0
H418 H 0.98011 0.70781 0.16075 0.0
H419 H 0.90479 0.68498 0.17764 0.0
Eu420 Eu 0.38493 0.19924 0.59689 0.0
C421 C 0.36435 0.05137 0.68346 0.0
C422 C 0.41181 0.0244 0.6656 0.0
C423 C 0.39683 0.02079 0.71543 0.0
C424 C 0.38541 0.04433 0.66125 0.0
C425 C 0.36904 0.03885 0.71076 0.0
C426 C 0.41822 1.01361 0.69288 0.0
C427 C 0.31601 0.05999 0.7264 0.0
N428 N 0.33758 0.06861 0.67816 0.0
C429 C 0.31253 0.07197 0.69898 0.0
C430 C 0.34476 0.04379 0.73238 0.0
Eu431 Eu 0.33383 0.08889 0.63135 0.0
N432 N 0.37787 0.05445 0.63517 0.0
C433 C 0.39278 0.04223 0.61233 0.0
C434 C 0.4297 1.01454 0.64232 0.0
C435 C 0.41953 0.02286 0.61553 0.0
H436 H 0.29035 0.08462 0.69468 0.0
H437 H 0.4322 1.0143 0.59732 0.0
H438 H 0.43868 0.99863 0.69667 0.0
H439 H 0.29669 0.06348 0.74292 0.0
H440 H 0.38479 0.048 0.5915 0.0
H441 H 0.3036 0.28686 0.63933 0.0
H442 H 0.45021 0.9993 0.64475 0.0
H443 H 0.41294 0.19726 0.52996 0.0
H444 H 0.34939 0.25079 0.64086 0.0
H445 H 0.3893 0.20658 0.4827 0.0
H446 H 0.40118 1.01133 0.73628 0.0
H447 H 0.26898 0.29041 0.59477 0.0
H448 H 0.2573 0.27294 0.54315 0.0
H449 H 0.34742 0.03456 0.75364 0.0
H450 H 0.27781 0.24704 0.50065 0.0
N451 N 0.34123 0.23428 0.59755 0.0
C452 C 0.33504 0.25259 0.6212 0.0
C453 C 0.28968 0.27515 0.59523 0.0
C454 C 0.29768 0.25793 0.57086 0.0
C455 C 0.30913 0.27318 0.62042 0.0
C456 C 0.32495 0.23855 0.57263 0.0
H457 H 0.33029 0.22651 0.47756 0.0
N458 N 0.36795 0.21205 0.55102 0.0
C459 C 0.3744 0.21192 0.50107 0.0
C460 C 0.33808 0.2262 0.54862 0.0
C461 C 0.3879 0.20694 0.5278 0.0
C462 C 0.34094 0.22297 0.49826 0.0
C463 C 0.32301 0.23116 0.52222 0.0
O464 O 0.44862 0.25093 0.58007 0.0
O465 O 0.39752 0.14714 0.61534 0.0
O466 O 0.37837 0.13866 0.66337 0.0
O467 O 0.38342 0.20352 0.64513 0.0
O468 O 0.43105 0.17705 0.57909 0.0
O469 O 0.42703 0.26036 0.62038 0.0
O470 O 0.26234 0.04598 0.63828 0.0
O471 O 0.3235 0.14203 0.61307 0.0
O472 O 0.33794 0.14468 0.56619 0.0
O473 O 0.34111 0.08456 0.58462 0.0
O474 O 0.28756 0.11239 0.64844 0.0
O475 O 0.29676 0.0246 0.6103 0.0
C476 C 0.42557 0.1483 0.59792 0.0
C477 C 0.46892 0.32492 0.59339 0.0
C478 C 0.51839 0.4059 0.59843 0.0
C479 C 0.5082 0.36157 0.60402 0.0
C480 C 0.48784 0.41211 0.58228 0.0
C481 C 0.44037 0.3328 0.57667 0.0
C482 C 0.44962 0.37597 0.57132 0.0
C483 C 0.38732 0.18024 0.66603 0.0
C484 C 0.45652 0.2786 0.60072 0.0
C485 C 0.29172 0.24549 0.52062 0.0
C486 C 0.27973 0.25978 0.54484 0.0
C487 C 0.29491 0.14146 0.62948 0.0
C488 C 0.23019 0.96843 0.63108 0.0
C489 C 0.18418 0.94659 0.62522 0.0
C490 C 0.15603 0.90189 0.63316 0.0
C491 C 0.17529 0.87979 0.64708 0.0
C492 C 0.24815 0.94571 0.64532 0.0
C493 C 0.22077 0.90162 0.6532 0.0
C494 C 0.33017 0.10317 0.56439 0.0
C495 C 0.25886 1.01461 0.62174 0.0
H496 H 0.53068 0.35529 0.6164 0.0
H497 H 0.49294 0.44495 0.57824 0.0
H498 H 0.41063 0.30557 0.5679 0.0
H499 H 0.42678 0.38147 0.55877 0.0
H500 H 0.17046 0.9647 0.61468 0.0
H501 H 0.15542 0.84529 0.65297 0.0
H502 H 0.28333 0.96196 0.65014 0.0
H503 H 0.23493 0.88409 0.66394 0.0
Eu504 Eu 0.66441 0.83691 0.39997 0.0
C505 C 0.70544 0.72108 0.32161 0.0
C506 C 0.66064 0.64729 0.34046 0.0
C507 C 0.677 0.65691 0.29074 0.0
C508 C 0.68467 0.69374 0.34408 0.0
C509 C 0.70302 0.70296 0.29482 0.0
C510 C 0.65576 0.6291 0.31353 0.0
C511 C 0.75595 0.77661 0.27889 0.0
N512 N 0.73062 0.7653 0.3264 0.0
C513 C 0.75727 0.79295 0.30585 0.0
C514 C 0.72819 0.7315 0.27323 0.0
Eu515 Eu 0.73157 0.79073 0.3726 0.0
N516 N 0.69123 0.71237 0.36985 0.0
C517 C 0.67837 0.68642 0.39313 0.0
C518 C 0.64412 0.62051 0.36418 0.0
C519 C 0.65382 0.64017 0.39068 0.0
H520 H 0.77882 0.82783 0.31013 0.0
H521 H 0.64258 0.61975 0.40923 0.0
H522 H 0.63703 0.59351 0.31029 0.0
H523 H 0.77626 0.79879 0.26249 0.0
H524 H 0.68645 0.70136 0.41367 0.0
H525 H 0.62083 0.93774 0.33374 0.0
H526 H 0.62545 0.58468 0.36233 0.0
H527 H 0.73031 0.86977 0.4585 0.0
H528 H 0.6142 0.86884 0.35296 0.0
H529 H 0.78042 0.9379 0.48333 0.0
H530 H 0.67428 0.64237 0.27025 0.0
H531 H 0.67899 1.01056 0.35168 0.0
H532 H 0.73838 0.05325 0.38721 0.0
H533 H 0.72731 0.71889 0.25236 0.0
H534 H 0.78002 0.05304 0.42883 0.0
N535 N 0.67113 0.90223 0.37932 0.0
C536 C 0.6407 0.90052 0.36031 0.0
C537 C 0.67685 0.98042 0.35975 0.0
C538 C 0.70458 0.98188 0.38151 0.0
C539 C 0.644 0.93944 0.34957 0.0
C540 C 0.70041 0.94161 0.39131 0.0
H541 H 0.79523 1.01025 0.46494 0.0
N542 N 0.71626 0.90179 0.42509 0.0
C543 C 0.76461 0.9394 0.46412 0.0
C544 C 0.72325 0.94137 0.41506 0.0
C545 C 0.73603 0.90045 0.44962 0.0
C546 C 0.77272 0.98016 0.45376 0.0
C547 C 0.75168 0.98159 0.42914 0.0
O548 O 0.63075 0.84262 0.43735 0.0
O549 O 0.66573 0.7735 0.39243 0.0
O550 O 0.69026 0.79282 0.33664 0.0
O551 O 0.67268 0.84611 0.35205 0.0
O552 O 0.61234 0.77758 0.37641 0.0
O553 O 0.59404 0.81891 0.39905 0.0
O554 O 0.804 0.82605 0.36729 0.0
O555 O 0.73306 0.85058 0.39164 0.0
O556 O 0.67867 0.80304 0.4375 0.0
O557 O 0.72963 0.78427 0.41938 0.0
O558 O 0.7694 0.8604 0.35535 0.0
O559 O 0.77265 0.76549 0.39077 0.0
C560 C 0.62821 0.75143 0.38037 0.0
C561 C 0.57921 0.86753 0.42573 0.0
C562 C 0.52223 0.88962 0.41891 0.0
C563 C 0.53451 0.8562 0.42011 0.0
C564 C 0.55512 0.93404 0.42296 0.0
C565 C 0.61037 0.91218 0.4313 0.0
C566 C 0.59865 0.9451 0.42935 0.0
C567 C 0.67673 0.82171 0.33194 0.0
C568 C 0.59444 0.83407 0.42394 0.0
C569 C 0.75784 0.02188 0.41849 0.0
C570 C 0.73434 0.02203 0.39471 0.0
C571 C 0.75895 0.87957 0.3745 0.0
C572 C 0.83731 0.78114 0.36523 0.0
C573 C 0.88415 0.80736 0.36562 0.0
C574 C 0.91041 0.79382 0.3506 0.0
C575 C 0.88908 0.75337 0.33579 0.0
C576 C 0.81709 0.74112 0.3501 0.0
C577 C 0.84289 0.72732 0.33561 0.0
C578 C 0.7079 0.78877 0.44054 0.0
C579 C 0.80959 0.7961 0.3799 0.0
H580 H 0.50954 0.8218 0.4167 0.0
H581 H 0.54663 0.96015 0.42241 0.0
H582 H 0.64411 0.9219 0.43699 0.0
H583 H 0.62342 0.9794 0.43321 0.0
H584 H 0.89997 0.83855 0.37699 0.0
H585 H 0.90825 0.74173 0.32435 0.0
H586 H 0.78131 0.72047 0.34946 0.0
H587 H 0.827 0.69635 0.32406 0.0
Eu588 Eu 0.84666 0.65748 0.90438 0.0
C589 C 1.00746 0.70029 0.83181 0.0
C590 C 0.03621 0.65836 0.85576 0.0
C591 C 0.04653 0.67025 0.80561 0.0
C592 C 1.0128 0.68189 0.85613 0.0
C593 C 1.02568 0.69608 0.80647 0.0
C594 C 0.05169 0.65132 0.83021 0.0
C595 C 1.00664 0.74797 0.78575 0.0
N596 N 0.98772 0.7255 0.83347 0.0
C597 C 0.98895 0.751 0.81137 0.0
C598 C 1.02426 0.71966 0.78312 0.0
Eu599 Eu 0.95919 0.72948 0.87752 0.0
N600 N 0.99867 0.6905 0.88054 0.0
C601 C 1.01034 0.6802 0.90549 0.0
C602 C 0.04531 0.6446 0.88122 0.0
C603 C 0.0332 0.65647 0.90624 0.0
H604 H 0.97501 0.77263 0.81337 0.0
H605 H 0.04132 0.64727 0.92609 0.0
H606 H 0.06929 0.63287 0.82945 0.0
H607 H 1.00641 0.76721 0.76803 0.0
H608 H 1.00124 0.68947 0.92484 0.0
H609 H 0.74501 0.70833 0.84239 0.0
H610 H 0.06318 0.62641 0.88186 0.0
H611 H 0.85165 0.65442 0.97599 0.0
H612 H 0.79012 0.67434 0.85031 0.0
H613 H 0.83319 0.68406 0.01661 0.0
H614 H 0.06023 0.66611 0.78625 0.0
H615 H 0.72669 0.74261 0.8815 0.0
H616 H 0.73049 0.75883 0.9323 0.0
H617 H 0.03799 0.7174 0.76328 0.0
H618 H 0.75407 0.75188 0.97937 0.0
N619 N 0.8026 0.69144 0.89371 0.0
C620 C 0.78481 0.69013 0.86781 0.0
C621 C 0.74768 0.72818 0.8852 0.0
C622 C 0.76354 0.72748 0.91193 0.0
C623 C 0.75804 0.70902 0.86311 0.0
C624 C 0.79122 0.7086 0.91572 0.0
H625 H 0.79293 0.7252 0.01079 0.0
N626 N 0.8306 0.68588 0.94578 0.0
C627 C 0.82638 0.69162 0.99584 0.0
C628 C 0.80614 0.70638 0.94231 0.0
C629 C 0.83833 0.67616 0.97234 0.0
C630 C 0.80369 0.71485 0.99248 0.0
C631 C 0.79235 0.72162 0.96563 0.0
O632 O 0.80618 0.60139 0.93225 0.0
O633 O 0.91328 0.66231 0.89699 0.0
O634 O 0.91848 0.68841 0.84066 0.0
O635 O 0.8456 0.65926 0.85641 0.0
O636 O 0.85751 0.60605 0.88279 0.0
O637 O 0.78324 0.60169 0.89039 0.0
O638 O 0.9967 0.80068 0.86802 0.0
O639 O 0.89831 0.72708 0.89493 0.0
O640 O 0.89927 0.67129 0.9392 0.0
O641 O 0.95915 0.73721 0.9242 0.0
O642 O 0.9246 0.76447 0.85903 0.0
O643 O 1.02335 0.77316 0.89748 0.0
C644 C 0.89991 0.62463 0.88553 0.0
C645 C 0.72743 0.56807 0.92459 0.0
C646 C 0.6459 0.51963 0.92129 0.0
C647 C 0.68957 0.53042 0.91317 0.0
C648 C 0.64147 0.54857 0.94005 0.0
C649 C 0.72109 0.594 0.94452 0.0
C650 C 0.67859 0.5848 0.95179 0.0
C651 C 0.87512 0.66776 0.83631 0.0
C652 C 0.77311 0.58189 0.91452 0.0
C653 C 0.76553 0.74087 0.96171 0.0
C654 C 0.75158 0.74425 0.93493 0.0
C655 C 0.89459 0.75293 0.87804 0.0
C656 C 0.075 0.83497 0.8709 0.0
C657 C 0.09629 0.88186 0.87054 0.0
C658 C 0.13787 0.90695 0.85738 0.0
C659 C 0.15801 0.88457 0.84512 0.0
C660 C 0.09604 0.81365 0.85854 0.0
C661 C 0.13732 0.83836 0.84584 0.0
C662 C 0.93786 0.70833 0.94407 0.0
C663 C 0.0306 0.8084 0.88362 0.0
H664 H 0.69431 0.50954 0.89835 0.0
H665 H 0.60913 0.54338 0.94589 0.0
H666 H 0.7489 0.62177 0.9544 0.0
H667 H 0.67439 0.60599 0.96663 0.0
H668 H 0.08012 0.89863 0.87979 0.0
H669 H 0.18991 0.90298 0.83491 0.0
H670 H 0.08055 0.77785 0.85865 0.0
H671 H 0.15324 0.82159 0.83632 0.0
Eu672 Eu 0.19898 0.83907 0.40075 0.0
C673 C 0.34159 0.99854 0.32667 0.0
C674 C 0.4115 0.02116 0.35033 0.0
C675 C 0.41058 0.03404 0.30045 0.0
C676 C 0.36479 1.00131 0.35083 0.0
C677 C 0.36427 1.01569 0.3013 0.0
C678 C 0.43415 0.03673 0.32492 0.0
C679 C 0.29422 0.99846 0.28001 0.0
N680 N 0.29695 0.98082 0.32824 0.0
C681 C 0.27325 0.98192 0.30565 0.0
C682 C 0.33986 1.01489 0.27771 0.0
Eu683 Eu 0.26344 0.95256 0.3721 0.0
N684 N 0.34191 0.98622 0.37505 0.0
C685 C 0.36408 0.99259 0.39984 0.0
C686 C 0.43413 0.02571 0.37548 0.0
C687 C 0.41033 1.01184 0.40039 0.0
H688 H 0.23797 0.96927 0.30716 0.0
H689 H 0.42756 1.01584 0.42003 0.0
H690 H 0.46997 0.05176 0.32409 0.0
H691 H 0.27514 0.9984 0.26203 0.0
H692 H 0.34638 0.98203 0.41932 0.0
H693 H 0.04299 0.76094 0.34137 0.0
H694 H 0.46997 0.04066 0.37597 0.0
H695 H 0.21257 0.82851 0.4691 0.0
H696 H 0.12414 0.79917 0.34785 0.0
H697 H 0.16852 0.80945 0.51271 0.0
H698 H 0.42856 0.04706 0.28111 0.0
H699 H 0.99392 0.7452 0.38221 0.0
H700 H 0.98612 0.74881 0.43421 0.0
H701 H 0.35604 0.02771 0.25784 0.0
H702 H 1.02088 0.76492 0.48087 0.0
N703 N 0.1215 0.80532 0.39204 0.0
C704 C 0.10324 0.7923 0.36593 0.0
C705 C 1.02958 0.76161 0.38524 0.0
C706 C 0.04832 0.77348 0.41202 0.0
C707 C 0.05716 0.77044 0.36215 0.0
C708 C 0.09497 0.79469 0.41485 0.0
H709 H 0.08849 0.78582 0.51046 0.0
N710 N 0.15878 0.81923 0.44313 0.0
C711 C 0.15294 0.80795 0.49278 0.0
C712 C 0.11431 0.80273 0.44116 0.0
C713 C 0.17779 0.81888 0.46817 0.0
C714 C 0.10781 0.7947 0.49141 0.0
C715 C 0.08765 0.79062 0.46531 0.0
O716 O 0.16924 0.77255 0.38288 0.0
O717 O 0.26634 0.89126 0.38588 0.0
O718 O 0.26249 0.90838 0.33732 0.0
O719 O 0.20535 0.83938 0.35264 0.0
O720 O 0.26343 0.85814 0.4226 0.0
O721 O 0.21736 0.7906 0.41617 0.0
O722 O 0.23365 0.99468 0.36538 0.0
O723 O 0.1968 0.89853 0.38603 0.0
O724 O 0.2045 0.88858 0.43454 0.0
O725 O 0.26783 0.95202 0.41917 0.0
O726 O 0.19805 0.9306 0.34938 0.0
O727 O 0.28831 1.01609 0.3942 0.0
C728 C 0.28997 0.88671 0.40469 0.0
C729 C 0.20647 0.73152 0.38557 0.0
C730 C 0.19964 0.65811 0.3795 0.0
C731 C 0.18798 0.68669 0.39352 0.0
C732 C 0.23038 0.67552 0.35747 0.0
C733 C 0.23705 0.74799 0.36363 0.0
C734 C 0.24894 0.72006 0.34971 0.0
C735 C 0.2331 0.866 0.33306 0.0
C736 C 0.19074 0.75942 0.39895 0.0
C737 C 0.04162 0.77303 0.46256 0.0
C738 C 1.0219 0.76403 0.43598 0.0
C739 C 0.17266 0.90083 0.36699 0.0
C740 C 0.27763 0.07202 0.37254 0.0
C741 C 0.25438 0.09495 0.37854 0.0
C742 C 0.26928 0.13811 0.36797 0.0
C743 C 0.30821 0.15799 0.35181 0.0
C744 C 0.31618 0.09275 0.35629 0.0
C745 C 0.33141 0.13554 0.34614 0.0
C746 C 0.23767 0.92979 0.43831 0.0
C747 C 0.2604 0.02594 0.38233 0.0
H748 H 0.1638 0.67391 0.41022 0.0
H749 H 0.24076 0.6549 0.34651 0.0
H750 H 0.25124 0.78223 0.35708 0.0
H751 H 0.27259 0.73295 0.33276 0.0
H752 H 0.22422 0.07879 0.39079 0.0
H753 H 0.32094 0.19118 0.34363 0.0
H754 H 0.33436 0.07574 0.35134 0.0
H755 H 0.36126 0.15134 0.33364 0.0
Eu756 Eu 0.38174 0.19935 0.89708 0.0
C757 C 0.37484 0.33547 0.8146 0.0
C758 C 0.41999 0.40732 0.8363 0.0
C759 C 0.41459 0.40105 0.78563 0.0
C760 C 0.39204 0.36097 0.83839 0.0
C761 C 0.38474 0.35534 0.78795 0.0
C762 C 0.43231 0.42701 0.80979 0.0
C763 C 0.33154 0.28425 0.76822 0.0
N764 N 0.34595 0.29156 0.81767 0.0
C765 C 0.32316 0.26603 0.79509 0.0
C766 C 0.36304 0.32896 0.76457 0.0
Eu767 Eu 0.33367 0.26241 0.86362 0.0
N768 N 0.37841 0.34096 0.86359 0.0
C769 C 0.38782 0.366 0.88733 0.0
C770 C 0.43301 0.43267 0.86087 0.0
C771 C 0.41606 0.41199 0.88646 0.0
H772 H 0.2993 0.23128 0.79773 0.0
H773 H 0.42461 0.43143 0.90552 0.0
H774 H 0.45414 0.46248 0.80776 0.0
H775 H 0.31411 0.26369 0.75034 0.0
H776 H 0.37461 0.35069 0.90722 0.0
H777 H 0.30166 0.03507 0.84615 0.0
H778 H 0.45457 0.46833 0.86021 0.0
H779 H 0.40272 0.22455 0.96546 0.0
H780 H 0.33861 0.11562 0.84768 0.0
H781 H 0.388 0.18611 0.01065 0.0
H782 H 0.42307 0.41687 0.76533 0.0
H783 H 0.2822 0.99197 0.88988 0.0
H784 H 0.28491 0.99122 0.94201 0.0
H785 H 0.36961 0.34297 0.74374 0.0
H786 H 0.30943 0.03237 0.98639 0.0
N787 N 0.34102 0.12045 0.89229 0.0
C788 C 0.33129 0.09836 0.86722 0.0
C789 C 0.29882 0.02788 0.89084 0.0
C790 C 0.30987 0.05028 0.91647 0.0
C791 C 0.30987 0.05207 0.86614 0.0
C792 C 0.33136 0.09718 0.91663 0.0
H793 H 0.34569 0.10418 0.01222 0.0
N794 N 0.36664 0.16515 0.94154 0.0
C795 C 0.37536 0.16715 0.99151 0.0
C796 C 0.34421 0.12013 0.94186 0.0
C797 C 0.3835 0.18879 0.96581 0.0
C798 C 0.35143 0.12095 0.9923 0.0
C799 C 0.3362 0.09687 0.96732 0.0
O800 O 0.43303 0.18585 0.91365 0.0
O801 O 0.39546 0.26653 0.88289 0.0
O802 O 0.37937 0.25593 0.83274 0.0
O803 O 0.37744 0.1919 0.84934 0.0
O804 O 0.42441 0.26306 0.92038 0.0
O805 O 0.44315 0.21855 0.87413 0.0
O806 O 0.29125 0.28287 0.88543 0.0
O807 O 0.3206 0.19718 0.88108 0.0
O808 O 0.33767 0.20988 0.92876 0.0
O809 O 0.33526 0.27092 0.9105 0.0
O810 O 0.28602 0.19386 0.84531 0.0
O811 O 0.26777 0.24465 0.84741 0.0
C812 C 0.4209 0.28936 0.90294 0.0
C813 C 0.47292 0.17062 0.87951 0.0
C814 C 0.52684 0.14446 0.8764 0.0
C815 C 0.51279 0.17276 0.88839 0.0
C816 C 0.49997 0.11382 0.85574 0.0
C817 C 0.44718 0.13983 0.85879 0.0
C818 C 0.46053 0.11163 0.84705 0.0
C819 C 0.38471 0.22109 0.82918 0.0
C820 C 0.45805 0.20032 0.89165 0.0
C821 C 0.31463 0.05043 0.9671 0.0
C822 C 0.30114 0.02713 0.9418 0.0
C823 C 0.2915 0.17069 0.86419 0.0
C824 C 0.21487 0.22861 0.88254 0.0
C825 C 0.17453 0.22672 0.87513 0.0
C826 C 0.13392 0.19449 0.88713 0.0
C827 C 0.13479 0.16442 0.90652 0.0
C828 C 0.21437 0.19798 0.90183 0.0
C829 C 0.17466 0.16631 0.9138 0.0
C830 C 0.32872 0.24292 0.931 0.0
C831 C 0.25714 0.26024 0.86896 0.0
H832 H 0.53303 0.19678 0.90423 0.0
H833 H 0.50914 0.09103 0.84649 0.0
H834 H 0.41677 0.13772 0.85164 0.0
H835 H 0.44016 0.0879 0.83114 0.0
H836 H 0.17484 0.25016 0.86008 0.0
H837 H 0.10443 0.13855 0.91566 0.0
H838 H 0.24463 0.19801 0.9073 0.0
H839 H 0.17468 0.14265 0.9285 0.0
Eu840 Eu 0.20438 0.3765 0.40268 0.0
C841 C 0.04601 0.35513 0.33093 0.0
C842 C 1.0194 0.39613 0.35814 0.0
C843 C 1.01211 0.39322 0.30754 0.0
C844 C 0.03998 0.3698 0.35677 0.0
C845 C 0.03125 0.36596 0.30616 0.0
C846 C 1.00627 0.40832 0.33344 0.0
C847 C 0.05262 0.31962 0.28039 0.0
N848 N 0.06471 0.3289 0.32999 0.0
C849 C 0.06667 0.3097 0.3054 0.0
C850 C 0.03535 0.34833 0.28071 0.0
Eu851 Eu 0.09093 0.31675 0.37284 0.0
N852 N 0.05296 0.35748 0.38049 0.0
C853 C 0.04368 0.36851 0.40616 0.0
C854 C 1.01186 0.40896 0.38433 0.0
C855 C 1.02358 0.39465 0.40839 0.0
H856 H 0.08034 0.28773 0.30507 0.0
H857 H 1.01726 0.40388 0.42879 0.0
H858 H 0.99077 0.42877 0.33419 0.0
H859 H 0.05525 0.30525 0.26088 0.0
H860 H 0.0523 0.35862 0.42538 0.0
H861 H 0.3038 0.30891 0.35911 0.0
H862 H 0.99627 0.42923 0.3862 0.0
H863 H 0.20636 0.41193 0.46809 0.0
H864 H 0.25595 0.34258 0.35801 0.0
H865 H 0.23364 0.40683 0.51489 0.0
H866 H 1.00096 0.40218 0.28871 0.0
H867 H 0.32629 0.29179 0.40442 0.0
H868 H 0.32953 0.29956 0.45655 0.0
H869 H 1.02443 0.35595 0.26128 0.0
H870 H 0.31245 0.32876 0.49872 0.0
N871 N 0.24759 0.34078 0.40214 0.0
C872 C 0.26422 0.33398 0.37792 0.0
C873 C 0.30438 0.30567 0.40404 0.0
C874 C 0.29063 0.31648 0.42885 0.0
C875 C 0.29188 0.31539 0.37845 0.0
C876 C 0.26192 0.33435 0.42723 0.0
H877 H 0.27516 0.36658 0.52094 0.0
N878 N 0.22749 0.37067 0.44846 0.0
C879 C 0.23857 0.39026 0.49722 0.0
C880 C 0.25166 0.3499 0.45111 0.0
C881 C 0.22263 0.39256 0.47076 0.0
C882 C 0.26192 0.36749 0.50054 0.0
C883 C 0.26981 0.34806 0.47722 0.0
O884 O 0.23985 0.4487 0.4075 0.0
O885 O 0.14753 0.38245 0.38556 0.0
O886 O 0.13667 0.36004 0.33897 0.0
O887 O 0.20627 0.37382 0.35449 0.0
O888 O 0.17606 0.41698 0.42174 0.0
O889 O 0.27258 0.41814 0.38691 0.0
O890 O 1.02609 0.2641 0.35798 0.0
O891 O 0.15035 0.31138 0.38559 0.0
O892 O 0.15656 0.33371 0.43756 0.0
O893 O 0.08727 0.31862 0.4198 0.0
O894 O 0.11764 0.27849 0.34909 0.0
O895 O 0.05664 0.25265 0.39392 0.0
C896 C 0.14705 0.41018 0.40252 0.0
C897 C 0.31799 0.48419 0.41305 0.0
C898 C 0.39734 0.54094 0.4146 0.0
C899 C 0.359 0.51019 0.39938 0.0
C900 C 0.39346 0.54421 0.44376 0.0
C901 C 0.31583 0.48858 0.44209 0.0
C902 C 0.35331 0.51796 0.45729 0.0
C903 C 0.17895 0.37334 0.3347 0.0
C904 C 0.27692 0.45487 0.39695 0.0
C905 C 0.2973 0.32922 0.47899 0.0
C906 C 0.30726 0.31293 0.45493 0.0
C907 C 0.14945 0.28583 0.36622 0.0
C908 C 0.97841 0.21096 0.39073 0.0
C909 C 0.95027 0.1668 0.38237 0.0
C910 C 0.90939 0.14075 0.3957 0.0
C911 C 0.89667 0.15923 0.41744 0.0
C912 C 0.96501 0.22941 0.41211 0.0
C913 C 0.92427 0.2035 0.42543 0.0
C914 C 0.11323 0.31936 0.44032 0.0
C915 C 1.02211 0.23636 0.37748 0.0
H916 H 0.36065 0.50681 0.37696 0.0
H917 H 0.42099 0.56824 0.4563 0.0
H918 H 0.28486 0.47032 0.45306 0.0
H919 H 0.35091 0.52136 0.47963 0.0
H920 H 0.96048 0.15242 0.36584 0.0
H921 H 0.86534 0.13949 0.42805 0.0
H922 H 0.98625 0.2635 0.41869 0.0
H923 H 0.91422 0.21765 0.44214 0.0
Eu924 Eu 0.85032 0.20135 0.90264 0.0
C925 C 0.71673 0.05063 0.82235 0.0
C926 C 0.64539 0.02583 0.84441 0.0
C927 C 0.64948 0.02033 0.79398 0.0
C928 C 0.69197 0.04455 0.84645 0.0
C929 C 0.69547 0.03731 0.79603 0.0
C930 C 0.62454 1.01474 0.81808 0.0
C931 C 0.76606 0.05478 0.77582 0.0
N932 N 0.76124 0.06736 0.82472 0.0
C933 C 0.78575 0.06779 0.80225 0.0
C934 C 0.72087 0.04021 0.7726 0.0
Eu935 Eu 0.79197 0.08988 0.86989 0.0
N936 N 0.71294 0.05541 0.87182 0.0
C937 C 0.68847 0.04544 0.89586 0.0
C938 C 0.62083 1.01794 0.86893 0.0
C939 C 0.6424 0.02724 0.89472 0.0
H940 H 0.82077 0.07925 0.80463 0.0
H941 H 0.62356 0.02058 0.91384 0.0
H942 H 0.58891 1.00078 0.8162 0.0
H943 H 0.78578 0.05625 0.75793 0.0
H944 H 0.7036 0.05238 0.91623 0.0
H945 H 1.01898 0.28174 0.86129 0.0
H946 H 0.58509 1.00384 0.86819 0.0
H947 H 0.81909 0.20116 0.96897 0.0
H948 H 0.93742 0.24808 0.8592 0.0
H949 H 0.85133 0.21311 0.01665 0.0
H950 H 0.6327 1.01045 0.7739 0.0
H951 H 0.05632 0.2874 0.90655 0.0
H952 H 0.05032 0.27647 0.95873 0.0
H953 H 0.70571 0.03026 0.75207 0.0
H954 H 1.00409 0.25636 1.00106 0.0
N955 N 0.92861 0.23431 0.90275 0.0
C956 C 0.95335 0.25072 0.8791 0.0
C957 C 1.02054 0.27287 0.90578 0.0
C958 C 0.99515 0.25828 0.93017 0.0
C959 C 0.99959 0.26982 0.88021 0.0
C960 C 0.94869 0.2395 0.92798 0.0
H961 H 0.93039 0.23462 0.02295 0.0
N962 N 0.87904 0.21464 0.94886 0.0
C963 C 0.87179 0.21742 0.9986 0.0
C964 C 0.92299 0.22888 0.9518 0.0
C965 C 0.8537 0.21086 0.97165 0.0
C966 C 0.91638 0.22937 0.00206 0.0
C967 C 0.94281 0.2362 0.97849 0.0
O968 O 0.83536 0.25187 0.91833 0.0
O969 O 0.78683 0.14897 0.88366 0.0
O970 O 0.80151 0.13807 0.83573 0.0
O971 O 0.85446 0.20675 0.85437 0.0
O972 O 0.78113 0.18067 0.91851 0.0
O973 O 0.87459 0.26475 0.88104 0.0
O974 O 0.77382 0.02215 0.85742 0.0
O975 O 0.85596 0.14472 0.88586 0.0
O976 O 0.84144 0.14773 0.93437 0.0
O977 O 0.77912 0.08551 0.91643 0.0
O978 O 0.86012 0.11495 0.84975 0.0
O979 O 0.82015 0.05371 0.89127 0.0
C980 C 0.7591 0.15157 0.89943 0.0
C981 C 0.89059 0.3267 0.90956 0.0
C982 C 0.91899 0.40728 0.90899 0.0
C983 C 0.88815 0.36378 0.89966 0.0
C984 C 0.95248 0.41266 0.92796 0.0
C985 C 0.92401 0.33343 0.92874 0.0
C986 C 0.95478 0.37605 0.93776 0.0
C987 C 0.82984 0.18094 0.83326 0.0
C988 C 0.85911 0.28122 0.89947 0.0
C989 C 0.98856 0.2517 0.98074 0.0
C990 C 1.01479 0.26299 0.95663 0.0
C991 C 0.88308 0.14448 0.8685 0.0
C992 C 0.7823 0.9753 0.88979 0.0
C993 C 0.80116 0.94891 0.88306 0.0
C994 C 0.78736 0.90833 0.8967 0.0
C995 C 0.75462 0.89461 0.91746 0.0
C996 C 0.74858 0.96051 0.9098 0.0
C997 C 0.73511 0.92046 0.92376 0.0
C998 C 0.80763 0.10654 0.93698 0.0
C999 C 0.79926 1.01833 0.87586 0.0
H1000 H 0.86202 0.35863 0.88507 0.0
H1001 H 0.97738 0.44535 0.93509 0.0
H1002 H 0.92649 0.30576 0.93672 0.0
H1003 H 0.98067 0.38077 0.95239 0.0
H1004 H 0.82701 0.9602 0.86738 0.0
H1005 H 0.74344 0.86348 0.92828 0.0
H1006 H 0.73276 0.97983 0.91449 0.0
H1007 H 0.70928 0.90923 0.93937 0.0
H1008 H 0.20223 0.93635 0.17471 0.0
H1009 H 0.14672 0.90847 0.09149 0.0
H1010 H 0.15881 0.98424 0.08799 0.0
H1011 H 0.17942 0.0565 0.11059 0.0
H1012 H 0.23952 0.08548 0.19253 0.0
H1013 H 0.2326 1.01178 0.19442 0.0
C1014 C 0.19349 0.94726 0.15567 0.0
C1015 C 0.17401 0.91721 0.13328 0.0
C1016 C 0.20153 0.99108 0.15361 0.0
C1017 C 0.16238 0.93133 0.10878 0.0
C1018 C 0.16912 0.97454 0.10686 0.0
C1019 C 0.19208 0.04697 0.12847 0.0
C1020 C 0.21018 0.07636 0.15137 0.0
C1021 C 0.18805 1.00452 0.12933 0.0
C1022 C 0.22607 0.06363 0.17457 0.0
C1023 C 0.22162 0.02133 0.17576 0.0
H1024 H 0.25377 0.17001 0.66487 0.0
H1025 H 0.25805 0.13759 0.57838 0.0
H1026 H 0.20384 0.16053 0.56623 0.0
H1027 H 0.16057 0.19657 0.57963 0.0
H1028 H 0.15568 0.22837 0.66627 0.0
H1029 H 0.20502 0.19961 0.67894 0.0
C1030 C 0.24272 0.16805 0.64339 0.0
C1031 C 0.26128 0.15418 0.62231 0.0
C1032 C 0.21175 0.18161 0.63659 0.0
C1033 C 0.24556 0.15 0.59474 0.0
C1034 C 0.21429 0.16275 0.58785 0.0
C1035 C 0.17003 0.19679 0.6013 0.0
C1036 C 0.15475 0.21483 0.62197 0.0
C1037 C 0.1982 0.17993 0.60845 0.0
C1038 C 0.16688 0.21451 0.65001 0.0
C1039 C 0.19522 0.19822 0.65725 0.0
H1040 H 1.0065 0.15758 0.17462 0.0
H1041 H 0.97017 0.1025 0.09148 0.0
H1042 H 0.04419 0.15726 0.07458 0.0
H1043 H 0.12189 0.21751 0.08459 0.0
H1044 H 0.1566 0.26884 0.16863 0.0
H1045 H 0.08134 0.21792 0.1842 0.0
C1046 C 1.01467 0.15731 0.15277 0.0
C1047 C 0.98285 0.12538 0.13448 0.0
C1048 C 0.05744 0.18794 0.14345 0.0
C1049 C 0.99383 0.12664 0.10607 0.0
C1050 C 0.03636 0.15772 0.09645 0.0
C1051 C 0.11258 0.21773 0.10618 0.0
C1052 C 0.14452 0.24752 0.12533 0.0
C1053 C 0.06882 0.18802 0.11509 0.0
C1054 C 0.13241 0.24694 0.15339 0.0
C1055 C 0.0894 0.21766 0.16235 0.0
H1056 H 0.84853 0.95997 0.6281 0.0
H1057 H 0.76337 0.94704 0.69763 0.0
H1058 H 0.7885 0.02514 0.69606 0.0
H1059 H 0.83733 0.09918 0.67703 0.0
H1060 H 0.90831 0.11198 0.6009 0.0
H1061 H 0.88549 0.03254 0.60258 0.0
C1062 C 0.83482 0.97375 0.64272 0.0
C1063 C 0.80637 0.94689 0.66441 0.0
C1064 C 0.84686 0.01925 0.64048 0.0
C1065 C 0.78817 0.96636 0.68219 0.0
C1066 C 0.80187 1.01145 0.68107 0.0
C1067 C 0.8472 0.08435 0.66056 0.0
C1068 C 0.87413 0.11124 0.6388 0.0
C1069 C 0.83202 0.03846 0.66082 0.0
C1070 C 0.88686 0.09173 0.61762 0.0
C1071 C 0.87397 0.04633 0.61869 0.0
H1072 H 0.8729 0.79637 0.18227 0.0
H1073 H 0.93363 0.83353 0.10089 0.0
H1074 H 0.89419 0.87425 0.09178 0.0
H1075 H 0.83687 0.89424 0.10543 0.0
H1076 H 0.77477 0.85355 0.18607 0.0
H1077 H 0.81921 0.81858 0.19661 0.0
C1078 C 0.87743 0.813 0.16239 0.0
C1079 C 0.90601 0.81105 0.14222 0.0
C1080 C 0.85373 0.83541 0.15697 0.0
C1081 C 0.91226 0.83442 0.11701 0.0
C1082 C 0.88946 0.85765 0.11169 0.0
C1083 C 0.83289 0.87724 0.12511 0.0
C1084 C 0.80095 0.87442 0.14441 0.0
C1085 C 0.85919 0.85749 0.13122 0.0
C1086 C 0.79779 0.85447 0.17047 0.0
C1087 C 0.8235 0.83482 0.1766 0.0
H1088 H 0.95563 0.81834 0.59058 0.0
H1089 H 0.93213 0.74566 0.66738 0.0
H1090 H 1.01175 0.78341 0.67717 0.0
H1091 H 0.08794 0.83907 0.66484 0.0
H1092 H 0.11275 0.9106 0.58713 0.0
H1093 H 0.03317 0.87227 0.57713 0.0
C1094 C 0.96818 0.81049 0.60924 0.0
C1095 C 0.93811 0.77804 0.62775 0.0
C1096 C 1.01432 0.83268 0.61479 0.0
C1097 C 0.9546 0.76896 0.65223 0.0
C1098 C 1.00019 0.79104 0.658 0.0
C1099 C 0.0763 0.84597 0.64545 0.0
C1100 C 0.10698 0.87814 0.6269 0.0
C1101 C 0.0304 0.82307 0.63948 0.0
C1102 C 0.09038 0.88688 0.60221 0.0
C1103 C 0.0447 0.8646 0.59629 0.0
H1104 H 0.11481 0.8806 0.32446 0.0
H1105 H 0.12457 0.89409 0.4141 0.0
H1106 H 0.04459 0.86779 0.41693 0.0
H1107 H 0.97014 0.83212 0.39396 0.0
H1108 H 0.96181 0.81694 0.30422 0.0
H1109 H 0.04243 0.85216 0.30136 0.0
C1110 C 0.09936 0.878 0.34459 0.0
C1111 C 0.12498 0.88743 0.36911 0.0
C1112 C 0.05339 0.86206 0.34601 0.0
C1113 C 0.10506 0.88538 0.39501 0.0
C1114 C 0.0594 0.87061 0.39659 0.0
C1115 C 0.98612 0.83745 0.37378 0.0
C1116 C 0.95984 0.82139 0.34935 0.0
C1117 C 0.03287 0.85738 0.37228 0.0
C1118 C 0.98113 0.82831 0.32336 0.0
C1119 C 1.02729 0.84857 0.32168 0.0
H1120 H 0.16602 0.96983 0.89915 0.0
H1121 H 0.16098 0.95428 0.80953 0.0
H1122 H 0.20559 0.03457 0.8038 0.0
H1123 H 0.25061 0.1089 0.82409 0.0
H1124 H 0.25925 0.12585 0.91354 0.0
H1125 H 0.20847 0.04594 0.91964 0.0
C1126 C 0.17405 0.98424 0.87842 0.0
C1127 C 0.16011 0.95615 0.85476 0.0
C1128 C 0.20069 0.03073 0.87528 0.0
C1129 C 0.17134 0.9752 0.82801 0.0
C1130 C 0.19691 0.02111 0.82473 0.0
C1131 C 0.24111 0.09504 0.84491 0.0
C1132 C 0.25967 0.12284 0.86834 0.0
C1133 C 0.21251 0.04913 0.84817 0.0
C1134 C 0.2464 0.10478 0.8952 0.0
C1135 C 0.21718 0.05914 0.89866 0.0
H1136 H 0.17016 0.24247 0.40705 0.0
H1137 H 0.18126 0.2715 0.31887 0.0
H1138 H 0.21819 0.2282 0.31152 0.0
H1139 H 0.2475 0.18203 0.32972 0.0
H1140 H 0.23532 0.14962 0.41735 0.0
H1141 H 0.19861 0.19361 0.42535 0.0
C1142 C 0.18116 0.23956 0.38636 0.0
C1143 C 0.1744 0.26152 0.36364 0.0
C1144 C 0.20174 0.21349 0.38211 0.0
C1145 C 0.18723 0.25603 0.33676 0.0
C1146 C 0.20814 0.23103 0.33251 0.0
C1147 C 0.23688 0.18458 0.35061 0.0
C1148 C 0.24439 0.16257 0.3729 0.0
C1149 C 0.21564 0.20966 0.35497 0.0
C1150 C 0.2297 0.16582 0.39975 0.0
C1151 C 0.20886 0.19119 0.40434 0.0
H1152 H 0.06355 0.17558 0.92102 0.0
H1153 H 0.10556 0.20425 0.83508 0.0
H1154 H 0.03204 0.19168 0.82164 0.0
H1155 H 0.95417 0.16936 0.8341 0.0
H1156 H 0.91295 0.13859 0.91996 0.0
H1157 H 0.98702 0.15351 0.93338 0.0
C1158 C 0.0567 0.17877 0.89927 0.0
C1159 C 0.09029 0.19058 0.87912 0.0
C1160 C 1.01408 0.17049 0.89158 0.0
C1161 C 0.08075 0.19566 0.85117 0.0
C1162 C 0.03845 0.18799 0.84338 0.0
C1163 C 0.96164 0.16607 0.85571 0.0
C1164 C 0.92847 0.15402 0.87613 0.0
C1165 C 1.00465 0.17488 0.86335 0.0
C1166 C 0.93818 0.14896 0.90398 0.0
C1167 C 0.98053 0.15731 0.91166 0.0
H1168 H 0.89754 0.06751 0.42276 0.0
H1169 H 0.85694 0.11028 0.34947 0.0
H1170 H 0.80737 0.03274 0.3356 0.0
H1171 H 0.77406 0.95243 0.34529 0.0
H1172 H 0.81555 0.91018 0.41843 0.0
H1173 H 0.86752 0.98754 0.431 0.0
C1174 C 0.87789 0.05961 0.40372 0.0
C1175 C 0.88036 0.09407 0.38717 0.0
C1176 C 0.85008 1.01513 0.39578 0.0
C1177 C 0.8552 0.08393 0.36245 0.0
C1178 C 0.82707 0.03974 0.35453 0.0
C1179 C 0.79449 0.96046 0.36399 0.0
C1180 C 0.78993 0.92621 0.38165 0.0
C1181 C 0.82394 1.00503 0.37115 0.0
C1182 C 0.8175 0.93643 0.40524 0.0
C1183 C 0.84736 0.98053 0.41228 0.0
H1184 H 0.85991 0.7898 0.84376 0.0
H1185 H 0.89463 0.78551 0.92983 0.0
H1186 H 0.86419 0.83301 0.94346 0.0
H1187 H 0.82497 0.87358 0.93098 0.0
H1188 H 0.79307 0.88038 0.84457 0.0
H1189 H 0.82447 0.83375 0.83094 0.0
C1190 C 0.86079 0.79946 0.86545 0.0
C1191 C 0.87774 0.78294 0.88594 0.0
C1192 C 0.84346 0.82696 0.87305 0.0
C1193 C 0.88023 0.7967 0.91387 0.0
C1194 C 0.86305 0.82399 0.92163 0.0
C1195 C 0.82497 0.86478 0.9092 0.0
C1196 C 0.80667 0.88018 0.88879 0.0
C1197 C 0.84387 0.8387 0.90147 0.0
C1198 C 0.80718 0.86899 0.86059 0.0
C1199 C 0.82511 0.84238 0.8528 0.0
H1200 H 0.15001 0.67708 0.07206 0.0
H1201 H 0.18307 0.72287 0.15717 0.0
H1202 H 0.20189 0.66482 0.1668 0.0
H1203 H 0.22075 0.60882 0.14839 0.0
H1204 H 0.18833 0.56488 0.06287 0.0
H1205 H 0.15707 0.61367 0.05603 0.0
C1206 C 0.15995 0.67338 0.09297 0.0
C1207 C 0.16514 0.70428 0.11383 0.0
C1208 C 0.17147 0.64044 0.09813 0.0
C1209 C 0.1783 0.69932 0.1408 0.0
C1210 C 0.18961 0.66636 0.1462 0.0
C1211 C 0.20544 0.60896 0.1286 0.0
C1212 C 0.20649 0.58304 0.10617 0.0
C1213 C 0.18805 0.63784 0.1247 0.0
C1214 C 0.18742 0.58413 0.08046 0.0
C1215 C 0.16984 0.61229 0.0765 0.0
H1216 H 0.61965 0.18573 0.61673 0.0
H1217 H 0.58717 0.10822 0.54074 0.0
H1218 H 0.51007 0.08977 0.54456 0.0
H1219 H 0.45497 0.10627 0.56466 0.0
H1220 H 0.48272 0.17721 0.64268 0.0
H1221 H 0.55798 0.18706 0.64319 0.0
C1222 C 0.59547 0.16375 0.60149 0.0
C1223 C 0.60991 0.14992 0.57784 0.0
C1224 C 0.55026 0.1524 0.604 0.0
C1225 C 0.57763 0.12084 0.55858 0.0
C1226 C 0.53331 0.11007 0.56075 0.0
C1227 C 0.47685 0.12219 0.5824 0.0
C1228 C 0.4631 0.14043 0.60376 0.0
C1229 C 0.51969 0.12727 0.58263 0.0
C1230 C 0.49214 0.16191 0.62631 0.0
C1231 C 0.53544 0.16806 0.62638 0.0
H1232 H 0.46157 0.59495 0.15637 0.0
H1233 H 0.49653 0.61775 0.06904 0.0
H1234 H 0.4446 0.53979 0.05865 0.0
H1235 H 0.38286 0.46701 0.07339 0.0
H1236 H 0.34363 0.4466 0.15988 0.0
H1237 H 0.40364 0.52096 0.17159 0.0
C1238 C 0.45796 0.58296 0.13503 0.0
C1239 C 0.48287 0.61271 0.11352 0.0
C1240 C 0.42723 0.53812 0.12906 0.0
C1241 C 0.47824 0.59594 0.08613 0.0
C1242 C 0.44823 0.55126 0.08011 0.0
C1243 C 0.3884 0.4785 0.09492 0.0
C1244 C 0.35961 0.45067 0.11586 0.0
C1245 C 0.42181 0.52226 0.10128 0.0
C1246 C 0.36626 0.4665 0.14354 0.0
C1247 C 0.40016 0.50945 0.15015 0.0
H1248 H 0.86699 0.44702 0.62561 0.0
H1249 H 0.95175 0.49947 0.55355 0.0
H1250 H 0.97033 0.44066 0.55638 0.0
H1251 H 0.95179 0.36701 0.57375 0.0
H1252 H 0.87321 0.31608 0.64808 0.0
H1253 H 0.86321 0.38131 0.65016 0.0
C1254 C 0.89069 0.44644 0.61115 0.0
C1255 C 0.90687 0.47713 0.58886 0.0
C1256 C 0.90183 0.41227 0.61303 0.0
C1257 C 0.93786 0.47581 0.57048 0.0
C1258 C 0.9485 0.44203 0.57201 0.0
C1259 C 0.93416 0.37116 0.59114 0.0
C1260 C 0.91381 0.337 0.61091 0.0
C1261 C 0.92911 0.40896 0.59236 0.0
C1262 C 0.89008 0.34234 0.63293 0.0
C1263 C 0.8839 0.37946 0.63389 0.0
H1264 H 0.58092 0.8832 0.06796 0.0
H1265 H 0.61716 0.88899 0.15479 0.0
H1266 H 0.54499 0.87894 0.16872 0.0
H1267 H 0.46874 0.86165 0.15621 0.0
H1268 H 0.4315 0.85225 0.06916 0.0
H1269 H 0.50655 0.87102 0.05548 0.0
C1270 C 0.57328 0.88305 0.08995 0.0
C1271 C 0.60486 0.88743 0.11026 0.0
C1272 C 0.53109 0.87609 0.0978 0.0
C1273 C 0.59412 0.88661 0.13866 0.0
C1274 C 0.5525 0.88036 0.14664 0.0
C1275 C 0.47692 0.86372 0.1342 0.0
C1276 C 0.44382 0.85502 0.1138 0.0
C1277 C 0.52026 0.87393 0.1264 0.0
C1278 C 0.45587 0.85898 0.08543 0.0
C1279 C 0.49889 0.86943 0.07754 0.0
H1280 H 0.69799 0.55156 0.65597 0.0
H1281 H 0.69894 0.6274 0.58455 0.0
H1282 H 0.62575 0.56701 0.57028 0.0
H1283 H 0.5669 0.48908 0.57469 0.0
H1284 H 0.56494 0.41379 0.64715 0.0
H1285 H 0.63392 0.47695 0.66374 0.0
C1286 C 0.68135 0.55546 0.63784 0.0
C1287 C 0.70367 0.59423 0.62158 0.0
C1288 C 0.63988 0.51999 0.62933 0.0
C1289 C 0.6822 0.59848 0.5978 0.0
C1290 C 0.64063 0.56351 0.58937 0.0
C1291 C 0.58058 0.48639 0.5945 0.0
C1292 C 0.56016 0.44569 0.60931 0.0
C1293 C 0.61991 0.52348 0.60445 0.0
C1294 C 0.57989 0.44363 0.63465 0.0
C1295 C 0.61926 0.48015 0.64445 0.0
H1296 H 0.33424 0.86726 0.44316 0.0
H1297 H 0.34552 0.91214 0.35807 0.0
H1298 H 0.41844 0.91674 0.35448 0.0
H1299 H 0.47986 0.90827 0.37648 0.0
H1300 H 0.46006 0.85139 0.45882 0.0
H1301 H 0.38877 0.84934 0.46219 0.0
C1302 C 0.35253 0.8782 0.42372 0.0
C1303 C 0.33518 0.89162 0.40138 0.0
C1304 C 0.39253 0.87739 0.42118 0.0
C1305 C 0.35893 0.904 0.37613 0.0
C1306 C 0.40033 0.90579 0.37394 0.0
C1307 C 0.45927 0.89438 0.39481 0.0
C1308 C 0.47506 0.87944 0.41732 0.0
C1309 C 0.41756 0.89256 0.3964 0.0
C1310 C 0.44836 0.86219 0.44109 0.0
C1311 C 0.40784 0.86157 0.44314 0.0
H1312 H 0.56867 0.46936 0.94989 0.0
H1313 H 0.62934 0.47545 0.87014 0.0
H1314 H 0.56202 0.40783 0.85517 0.0
H1315 H 0.48675 0.34357 0.86625 0.0
H1316 H 0.42896 0.34083 0.94635 0.0
H1317 H 0.49308 0.41196 0.95883 0.0
C1318 C 0.56723 0.4571 0.92884 0.0
C1319 C 0.60469 0.47837 0.91127 0.0
C1320 C 0.52816 0.41888 0.92015 0.0
C1321 C 0.60174 0.45995 0.88449 0.0
C1322 C 0.56288 0.42137 0.87574 0.0
C1323 C 0.48761 0.3596 0.8859 0.0
C1324 C 0.45246 0.33756 0.90506 0.0
C1325 C 0.52585 0.4002 0.89349 0.0
C1326 C 0.45498 0.35767 0.93102 0.0
C1327 C 0.49196 0.39808 0.93833 0.0
H1328 H 0.17077 0.58419 0.34622 0.0
H1329 H 0.18725 0.62529 0.43272 0.0
H1330 H 0.16496 0.54982 0.44745 0.0
H1331 H 0.14937 0.47433 0.43576 0.0
H1332 H 0.13668 0.43414 0.34933 0.0
H1333 H 0.14768 0.5062 0.33469 0.0
C1334 C 0.1693 0.57662 0.36831 0.0
C1335 C 0.18126 0.61079 0.38829 0.0
C1336 C 0.1569 0.53304 0.37669 0.0
C1337 C 0.17816 0.59991 0.41684 0.0
C1338 C 0.1656 0.55668 0.4253 0.0
C1339 C 0.14797 0.48101 0.41374 0.0
C1340 C 0.1421 0.44864 0.39373 0.0
C1341 C 0.15597 0.52325 0.40542 0.0
C1342 C 0.1406 0.45796 0.36527 0.0
C1343 C 0.14749 0.49955 0.35684 0.0
H1344 H 0.69557 0.15006 0.93254 0.0
H1345 H 0.72504 0.13987 0.84627 0.0
H1346 H 0.65541 0.13566 0.83172 0.0
H1347 H 0.58818 0.13921 0.84333 0.0
H1348 H 0.56025 0.15287 0.92951 0.0
H1349 H 0.62787 0.15292 0.9442 0.0
C1350 C 0.6864 0.14638 0.91058 0.0
C1351 C 0.71483 0.14398 0.89058 0.0
C1352 C 0.64706 0.14564 0.90232 0.0
C1353 C 0.70312 0.14031 0.86216 0.0
C1354 C 0.66354 0.1385 0.8538 0.0
C1355 C 0.59661 0.14181 0.86538 0.0
C1356 C 0.56897 0.14606 0.88528 0.0
C1357 C 0.63552 0.14169 0.87368 0.0
C1358 C 0.58105 0.15019 0.91369 0.0
C1359 C 0.61956 0.14982 0.92213 0.0
H1360 H 0.48224 0.57609 0.43555 0.0
H1361 H 0.41073 0.57725 0.36163 0.0
H1362 H 0.47933 0.63666 0.34214 0.0
H1363 H 0.55697 0.69634 0.34915 0.0
H1364 H 0.62216 0.70469 0.42759 0.0
H1365 H 0.55929 0.63433 0.44225 0.0
C1366 C 0.48118 0.58935 0.41526 0.0
C1367 C 0.44046 0.57223 0.40054 0.0
C1368 C 0.5202 0.62566 0.4049 0.0
C1369 C 0.44104 0.58906 0.37365 0.0
C1370 C 0.48039 0.62362 0.36253 0.0
C1371 C 0.55784 0.68187 0.36907 0.0
C1372 C 0.59536 0.70457 0.38659 0.0
C1373 C 0.51981 0.64321 0.37838 0.0
C1374 C 0.5951 0.68671 0.41297 0.0
C1375 C 0.55861 0.64684 0.42161 0.0
H1376 H 0.89996 0.56236 0.85164 0.0
H1377 H 0.93136 0.61442 0.93558 0.0
H1378 H 0.94142 0.55255 0.94985 0.0
H1379 H 0.93413 0.48001 0.93975 0.0
H1380 H 0.89913 0.42507 0.85642 0.0
H1381 H 0.89624 0.49071 0.84089 0.0
C1382 C 0.91045 0.56076 0.8728 0.0
C1383 C 0.91697 0.59414 0.89217 0.0
C1384 C 0.91409 0.52375 0.8812 0.0
C1385 C 0.92824 0.59048 0.91991 0.0
C1386 C 0.9332 0.55458 0.92821 0.0
C1387 C 0.92655 0.48253 0.91804 0.0
C1388 C 0.91683 0.44727 0.89934 0.0
C1389 C 0.9252 0.5205 0.90921 0.0
C1390 C 0.90609 0.45111 0.87146 0.0
C1391 C 0.90487 0.48894 0.86247 0.0
H1392 H 0.23656 0.35364 0.30909 0.0
H1393 H 0.15092 0.40842 0.29402 0.0
H1394 H 0.16283 0.40842 0.24365 0.0
H1395 H 0.19401 0.38821 0.20348 0.0
H1396 H 0.27501 0.32809 0.21955 0.0
H1397 H 0.26831 0.33467 0.26947 0.0
C1398 C 0.22136 0.3665 0.29481 0.0
C1399 C 0.19319 0.38121 0.30522 0.0
C1400 C 0.22702 0.36488 0.26584 0.0
C1401 C 0.17298 0.39704 0.28643 0.0
C1402 C 0.17949 0.39677 0.25762 0.0
C1403 C 0.21021 0.37663 0.21791 0.0
C1404 C 0.23545 0.35826 0.20752 0.0
C1405 C 0.20571 0.37983 0.24699 0.0
C1406 C 0.25607 0.34326 0.22666 0.0
C1407 C 0.25219 0.34681 0.2554 0.0
H1408 H 0.89436 0.27129 0.71559 0.0
H1409 H 0.78424 0.1459 0.68858 0.0
H1410 H 0.76127 0.12674 0.7373 0.0
H1411 H 0.77783 0.14192 0.7874 0.0
H1412 H 0.89451 0.26234 0.81421 0.0
H1413 H 0.90901 0.28772 0.76572 0.0
C1414 C 0.8653 0.23967 0.72027 0.0
C1415 C 0.84165 0.20961 0.69839 0.0
C1416 C 0.85381 0.22791 0.74834 0.0
C1417 C 0.80316 0.16959 0.70489 0.0
C1418 C 0.79031 0.15846 0.7328 0.0
C1419 C 0.80696 0.17339 0.78272 0.0
C1420 C 0.83596 0.19939 0.8045 0.0
C1421 C 0.81639 0.18665 0.75468 0.0
C1422 C 0.872 0.24125 0.79798 0.0
C1423 C 0.88046 0.25565 0.77019 0.0
H1424 H 0.6616 0.88789 0.21196 0.0
H1425 H 0.679 0.77795 0.18728 0.0
H1426 H 0.67191 0.75449 0.23624 0.0
H1427 H 0.66894 0.77033 0.28639 0.0
H1428 H 0.66636 0.88897 0.31007 0.0
H1429 H 0.65891 0.90366 0.26134 0.0
C1430 C 0.66441 0.85904 0.21718 0.0
C1431 C 0.67215 0.83551 0.19595 0.0
C1432 C 0.66311 0.84748 0.24536 0.0
C1433 C 0.6734 0.79693 0.20313 0.0
C1434 C 0.66978 0.78377 0.23119 0.0
C1435 C 0.66737 0.79976 0.28097 0.0
C1436 C 0.66851 0.82863 0.30225 0.0
C1437 C 0.66616 0.80972 0.25255 0.0
C1438 C 0.66482 0.86568 0.29457 0.0
C1439 C 0.66117 0.87448 0.26651 0.0
H1440 H 0.78467 0.63668 0.71765 0.0
H1441 H 0.91827 0.67781 0.69109 0.0
H1442 H 0.9404 0.67739 0.73972 0.0
H1443 H 0.923 0.67186 0.78993 0.0
H1444 H 0.78948 0.63159 0.81598 0.0
H1445 H 0.76593 0.62436 0.76741 0.0
C1446 C 0.81864 0.64537 0.72246 0.0
C1447 C 0.8501 0.65854 0.70085 0.0
C1448 C 0.83122 0.64571 0.75041 0.0
C1449 C 0.89354 0.66822 0.70733 0.0
C1450 C 0.90624 0.66815 0.73517 0.0
C1451 C 0.88901 0.66244 0.78509 0.0
C1452 C 0.85903 0.65572 0.80688 0.0
C1453 C 0.87565 0.65832 0.75693 0.0
C1454 C 0.81415 0.63978 0.79996 0.0
C1455 C 0.80043 0.63511 0.77204 0.0
H1456 H 0.17546 0.7693 0.21626 0.0
H1457 H 0.27406 0.89916 0.18765 0.0
H1458 H 0.29577 0.92308 0.23619 0.0
H1459 H 0.28089 0.90932 0.28658 0.0
H1460 H 0.1766 0.78152 0.3144 0.0
H1461 H 0.16345 0.75446 0.26631 0.0
C1462 C 0.20195 0.80283 0.22052 0.0
C1463 C 0.22257 0.83262 0.19825 0.0
C1464 C 0.21289 0.81684 0.2484 0.0
C1465 C 0.25755 0.87552 0.20429 0.0
C1466 C 0.26969 0.88933 0.23208 0.0
C1467 C 0.25503 0.87566 0.28221 0.0
C1468 C 0.22892 0.84806 0.30421 0.0
C1469 C 0.24654 0.86069 0.2543 0.0
C1470 C 0.19677 0.80391 0.29803 0.0
C1471 C 0.18915 0.78836 0.27045 0.0
H1472 H 0.4051 0.27351 0.78263 0.0
H1473 H 0.38891 0.14839 0.8108 0.0
H1474 H 0.39638 0.12899 0.7632 0.0
H1475 H 0.39845 0.1431 0.71318 0.0
H1476 H 0.40082 0.26165 0.68369 0.0
H1477 H 0.40771 0.28802 0.73191 0.0
C1478 C 0.40218 0.24156 0.77837 0.0
C1479 C 0.39479 0.21189 0.8005 0.0
C1480 C 0.40356 0.22921 0.7505 0.0
C1481 C 0.39396 0.17183 0.79451 0.0
C1482 C 0.39791 0.16046 0.76709 0.0
C1483 C 0.39978 0.17444 0.71714 0.0
C1484 C 0.39755 0.19953 0.69471 0.0
C1485 C 0.4011 0.18815 0.74488 0.0
C1486 C 0.40167 0.24115 0.70045 0.0
C1487 C 0.40539 0.25618 0.72808 0.0
H1488 H 0.31655 0.31254 0.94444 0.0
H1489 H 0.29673 0.1878 0.97656 0.0
H1490 H 0.26456 0.1989 0.01918 0.0
H1491 H 0.24503 0.24533 0.04796 0.0
H1492 H 0.271 0.37279 0.01767 0.0
H1493 H 0.2951 0.35797 0.97273 0.0
C1494 C 0.3052 0.28756 0.96065 0.0
C1495 C 0.30969 0.24948 0.95728 0.0
C1496 C 0.28686 0.29425 0.98511 0.0
C1497 C 0.29444 0.21765 0.97864 0.0
C1498 C 0.27565 0.22383 0.00293 0.0
C1499 C 0.25589 0.26988 0.03147 0.0
C1500 C 0.25674 0.31041 0.03629 0.0
C1501 C 0.2721 0.26216 0.00645 0.0
C1502 C 0.26953 0.34123 0.01446 0.0
C1503 C 0.28407 0.33302 0.98896 0.0
H1504 H 0.03479 0.2457 0.4523 0.0
H1505 H 0.14031 0.36401 0.49016 0.0
H1506 H 0.09807 0.34844 0.53324 0.0
H1507 H 1.02875 0.30507 0.55861 0.0
H1508 H 0.9227 0.18516 0.52227 0.0
H1509 H 0.96653 0.19841 0.47968 0.0
C1510 C 0.04875 0.26767 0.47016 0.0
C1511 C 0.09135 0.30563 0.46807 0.0
C1512 C 1.02353 0.25883 0.49484 0.0
C1513 C 0.10879 0.33383 0.49135 0.0
C1514 C 0.08406 0.32531 0.51591 0.0
C1515 C 1.01527 0.28115 0.54177 0.0
C1516 C 0.97218 0.24406 0.54396 0.0
C1517 C 0.04114 0.28839 0.51769 0.0
C1518 C 0.95534 0.21432 0.52124 0.0
C1519 C 0.98062 0.22174 0.49689 0.0
H1520 H 0.80919 1.01836 0.05342 0.0
H1521 H 0.68749 0.91272 0.01887 0.0
H1522 H 0.69757 0.95618 0.97669 0.0
H1523 H 0.73867 0.02545 0.95079 0.0
H1524 H 0.86334 0.13014 0.98297 0.0
H1525 H 0.85371 0.08677 0.02536 0.0
C1526 C 0.78548 1.00461 0.03632 0.0
C1527 C 0.74834 0.96164 0.03885 0.0
C1528 C 0.79151 0.03012 0.01205 0.0
C1529 C 0.71729 0.94463 0.01692 0.0
C1530 C 0.72269 0.9699 0.99299 0.0
C1531 C 0.7643 0.03869 0.96671 0.0
C1532 C 0.80173 0.08129 0.96343 0.0
C1533 C 0.75944 1.01278 0.99043 0.0
C1534 C 0.83383 0.09793 0.98492 0.0
C1535 C 0.82855 0.07285 0.00909 0.0
H1536 H 0.72969 0.73147 0.56378 0.0
H1537 H 0.83869 0.72761 0.52307 0.0
H1538 H 0.81984 0.74982 0.47922 0.0
H1539 H 0.7739 0.77098 0.4525 0.0
H1540 H 0.66531 0.77747 0.49166 0.0
H1541 H 0.68313 0.75428 0.53624 0.0
C1542 C 0.74934 0.73543 0.54531 0.0
C1543 C 0.78538 0.72707 0.54685 0.0
C1544 C 0.73862 0.74902 0.51995 0.0
C1545 C 0.81044 0.73282 0.52263 0.0
C1546 C 0.79981 0.74589 0.49749 0.0
C1547 C 0.75362 0.76727 0.4706 0.0
C1548 C 0.71784 0.7758 0.46841 0.0
C1549 C 0.76407 0.75405 0.49592 0.0
C1550 C 0.69289 0.77118 0.49253 0.0
C1551 C 0.7031 0.75781 0.51803 0.0
H1552 H 1.01281 0.78373 0.95935 0.0
H1553 H 0.92067 0.65261 0.98965 0.0
H1554 H 0.96728 0.66689 0.0315 0.0
H1555 H 0.03589 0.716 0.05852 0.0
H1556 H 0.12805 0.84581 0.02628 0.0
H1557 H 0.08006 0.83193 0.98568 0.0
C1558 C 1.00246 0.75797 0.97502 0.0
C1559 C 0.96278 0.71697 0.97115 0.0
C1560 C 1.02995 0.766 0.99851 0.0
C1561 C 0.95048 0.68456 0.99203 0.0
C1562 C 0.97744 0.69266 0.01588 0.0
C1563 C 0.04562 0.74132 0.04262 0.0
C1564 C 0.08615 0.78192 0.04548 0.0
C1565 C 1.01754 0.73313 0.01919 0.0
C1566 C 0.09776 0.81413 0.02457 0.0
C1567 C 0.07004 0.80631 1.0014 0.0
H1568 H 0.24965 1.01168 0.44734 0.0
H1569 H 0.24524 0.90028 0.48981 0.0
H1570 H 0.27266 0.94422 0.5327 0.0
H1571 H 0.30448 1.01597 0.55645 0.0
H1572 H 0.30528 0.12698 0.51545 0.0
H1573 H 0.27379 0.0819 0.47325 0.0
C1574 C 0.25385 0.99684 0.46621 0.0
C1575 C 0.24481 0.95252 0.46555 0.0
C1576 C 0.27019 0.02263 0.49069 0.0
C1577 C 0.25062 0.9337 0.48998 0.0
C1578 C 0.26706 0.95916 0.51438 0.0
C1579 C 0.2976 0.03057 0.53847 0.0
C1580 C 0.30881 0.07564 0.53898 0.0
C1581 C 0.27797 1.00394 0.51473 0.0
C1582 C 0.29869 0.09314 0.51542 0.0
C1583 C 0.28014 0.06712 0.49137 0.0
loop_
_geom_bond_atom_site_label_1
_geom_bond_atom_site_label_2
_geom_bond_distance
_geom_bond_site_symmetry_2
_ccdc_geom_bond_type
Eu0 N31 2.657 . S
Eu0 N38 2.609 . S
Eu0 O44 2.558 . S
Eu0 O45 2.612 . S
Eu0 O47 2.339 . S
Eu0 O48 2.563 . S
Eu0 O49 2.419 . S
Eu0 O51 2.380 . S
Eu0 O52 2.432 . S
Eu0 C64 2.848 . S
C1 C4 1.429 . S
C1 C5 1.411 . S
C1 N8 1.377 . S
C2 C4 1.420 . S
C2 C6 1.423 . S
C2 C14 1.392 . S
C3 C5 1.420 . S
C3 C6 1.351 . S
C3 H26 0.931 . S
C4 C1 1.429 . S
C4 C2 1.420 . S
C4 N12 1.362 . S
C5 C1 1.411 . S
C5 C3 1.420 . S
C5 C10 1.395 . S
C6 C2 1.423 . S
C6 C3 1.351 . S
C6 H18 0.930 . S
C7 C9 1.400 . S
C7 C10 1.386 . S
C7 H19 0.930 . S
N8 C1 1.377 . S
N8 C9 1.321 . S
N8 Eu11 2.609 . S
C9 C7 1.400 . S
C9 N8 1.321 . S
C9 H16 0.930 . S
C10 C5 1.395 . S
C10 C7 1.386 . S
C10 H29 0.930 . S
Eu11 N8 2.609 . S
Eu11 N12 2.657 . S
Eu11 O45 2.380 . S
Eu11 O46 2.432 . S
Eu11 O50 2.558 . S
Eu11 O51 2.612 . S
Eu11 O53 2.339 . S
Eu11 O54 2.563 . S
Eu11 O55 2.419 . S
Eu11 C75 2.848 . S
N12 C4 1.362 . S
N12 Eu11 2.657 . S
N12 C13 1.334 . S
C13 N12 1.334 . S
C13 C15 1.413 . S
C13 H20 0.929 . S
C14 C2 1.392 . S
C14 C15 1.367 . S
C14 H22 0.930 . S
C15 C13 1.413 . S
C15 C14 1.367 . S
C15 H17 0.930 . S
H16 C9 0.930 . S
H17 C15 0.930 . S
H18 C6 0.930 . S
H19 C7 0.930 . S
H20 C13 0.929 . S
H21 C35 0.930 . S
H22 C14 0.930 . S
H23 C41 0.930 . S
H24 C32 0.929 . S
H25 C39 0.901 1_556 S
H26 C3 0.931 . S
H27 C33 0.930 . S
H28 C66 0.930 . S
H29 C10 0.930 . S
H30 C65 0.931 . S
N31 Eu0 2.657 . S
N31 C32 1.334 . S
N31 C36 1.362 . S
C32 H24 0.929 . S
C32 N31 1.334 . S
C32 C35 1.413 . S
C33 H27 0.930 . S
C33 C34 1.396 . S
C33 C35 1.367 1_655 S
C34 C33 1.396 . S
C34 C36 1.402 1_655 S
C34 C66 1.435 . S
C35 H21 0.930 . S
C35 C32 1.413 . S
C35 C33 1.367 1_455 S
C36 N31 1.362 . S
C36 C34 1.402 1_455 S
C36 C40 1.429 . S
H37 C42 0.930 1_556 S
N38 Eu0 2.609 . S
N38 C40 1.377 . S
N38 C41 1.321 . S
C39 H25 0.901 1_554 S
C39 C41 1.425 . S
C39 C42 1.391 . S
C40 C36 1.429 . S
C40 N38 1.377 . S
C40 C43 1.411 . S
C41 H23 0.930 . S
C41 N38 1.321 . S
C41 C39 1.425 . S
C42 H37 0.930 1_554 S
C42 C39 1.391 . S
C42 C43 1.395 . S
C43 C40 1.411 . S
C43 C42 1.395 . S
C43 C65 1.420 1_455 S
O44 Eu0 2.558 . S
O44 C64 1.257 . S
O45 Eu0 2.612 . S
O45 Eu11 2.380 . S
O45 C56 1.276 . S
O46 Eu11 2.432 . S
O46 C63 1.264 . S
O47 Eu0 2.339 . S
O47 C63 1.254 . S
O48 Eu0 2.563 . S
O48 C56 1.235 . S
O49 Eu0 2.419 . S
O49 C64 1.249 . S
O50 Eu11 2.558 . S
O50 C75 1.257 . S
O51 Eu0 2.380 . S
O51 Eu11 2.612 . S
O51 C67 1.276 . S
O52 Eu0 2.432 . S
O52 C74 1.264 . S
O53 Eu11 2.339 . S
O53 C74 1.254 . S
O54 Eu11 2.563 . S
O54 C67 1.235 . S
O55 Eu11 2.419 . S
O55 C75 1.249 . S
C56 O45 1.276 . S
C56 O48 1.235 . S
C57 C59 1.393 . S
C57 C61 1.395 . S
C57 C64 1.492 . S
C58 C59 1.392 . S
C58 C60 1.386 . S
C59 C57 1.393 . S
C59 C58 1.392 . S
C59 H76 0.930 . S
C60 C58 1.386 . S
C60 C62 1.395 . S
C60 H77 0.930 . S
C61 C57 1.395 . S
C61 C62 1.379 . S
C61 H78 0.930 . S
C62 C60 1.395 . S
C62 C61 1.379 . S
C62 H79 0.930 . S
C63 O46 1.264 . S
C63 O47 1.254 . S
C64 Eu0 2.848 . S
C64 O44 1.257 . S
C64 O49 1.249 . S
C64 C57 1.492 . S
C65 H30 0.931 . S
C65 C43 1.420 1_655 S
C65 C66 1.351 . S
C66 H28 0.930 . S
C66 C34 1.435 . S
C66 C65 1.351 . S
C67 O51 1.276 . S
C67 O54 1.235 . S
C68 C69 1.393 . S
C68 C72 1.395 . S
C68 C75 1.492 . S
C69 C68 1.393 . S
C69 C70 1.392 . S
C69 H80 0.930 . S
C70 C69 1.392 . S
C70 C71 1.386 . S
C71 C70 1.386 . S
C71 C73 1.395 . S
C71 H81 0.930 . S
C72 C68 1.395 . S
C72 C73 1.379 . S
C72 H82 0.930 . S
C73 C71 1.395 . S
C73 C72 1.379 . S
C73 H83 0.930 . S
C74 O52 1.264 . S
C74 O53 1.254 . S
C75 Eu11 2.848 . S
C75 O50 1.257 . S
C75 O55 1.249 . S
C75 C68 1.492 . S
H76 C59 0.930 . S
H77 C60 0.930 . S
H78 C61 0.930 . S
H79 C62 0.930 . S
H80 C69 0.930 . S
H81 C71 0.930 . S
H82 C72 0.930 . S
H83 C73 0.930 . S
Eu84 N115 2.657 . S
Eu84 N122 2.609 . S
Eu84 O128 2.558 . S
Eu84 O129 2.612 . S
Eu84 O131 2.339 . S
Eu84 O132 2.563 . S
Eu84 O133 2.419 . S
Eu84 O135 2.380 . S
Eu84 O136 2.432 . S
Eu84 C148 2.848 . S
C85 C88 1.429 . S
C85 C89 1.411 . S
C85 N92 1.377 . S
C86 C88 1.420 . S
C86 C90 1.423 1_655 S
C86 C98 1.392 . S
C87 C89 1.420 1_455 S
C87 C90 1.351 . S
C87 H110 0.931 . S
C88 C85 1.429 . S
C88 C86 1.420 . S
C88 N96 1.362 . S
C89 C85 1.411 . S
C89 C87 1.420 1_655 S
C89 C94 1.395 . S
C90 C86 1.423 1_455 S
C90 C87 1.351 . S
C90 H102 0.930 . S
C91 C93 1.400 . S
C91 C94 1.386 . S
C91 H103 0.930 . S
N92 C85 1.377 . S
N92 C93 1.321 . S
N92 Eu95 2.609 . S
C93 C91 1.400 . S
C93 N92 1.321 . S
C93 H100 0.930 . S
C94 C89 1.395 . S
C94 C91 1.386 . S
C94 H113 0.930 . S
Eu95 N92 2.609 . S
Eu95 N96 2.657 . S
Eu95 O129 2.380 . S
Eu95 O130 2.432 . S
Eu95 O134 2.558 . S
Eu95 O135 2.612 . S
Eu95 O137 2.339 . S
Eu95 O138 2.563 . S
Eu95 O139 2.419 . S
Eu95 C159 2.848 . S
N96 C88 1.362 . S
N96 Eu95 2.657 . S
N96 C97 1.334 . S
C97 N96 1.334 . S
C97 C99 1.413 . S
C97 H104 0.929 . S
C98 C86 1.392 . S
C98 C99 1.367 . S
C98 H106 0.930 1_655 S
C99 C97 1.413 . S
C99 C98 1.367 . S
C99 H101 0.930 . S
H100 C93 0.930 . S
H101 C99 0.930 . S
H102 C90 0.930 . S
H103 C91 0.930 . S
H104 C97 0.929 . S
H105 C119 0.930 . S
H106 C98 0.930 1_455 S
H107 C125 0.930 . S
H108 C116 0.929 . S
H109 C123 0.930 . S
H110 C87 0.931 . S
H111 C117 0.930 . S
H112 C150 0.930 . S
H113 C94 0.930 . S
H114 C149 0.931 . S
N115 Eu84 2.657 . S
N115 C116 1.334 . S
N115 C120 1.362 . S
C116 H108 0.929 . S
C116 N115 1.334 . S
C116 C119 1.413 . S
C117 H111 0.930 . S
C117 C118 1.399 . S
C117 C119 1.367 1_565 S
C118 C117 1.399 . S
C118 C120 1.402 1_565 S
C118 C150 1.433 . S
C119 H105 0.930 . S
C119 C116 1.413 . S
C119 C117 1.367 1_545 S
C120 N115 1.362 . S
C120 C118 1.402 1_545 S
C120 C124 1.429 . S
H121 C126 0.930 . S
N122 Eu84 2.609 . S
N122 C124 1.377 . S
N122 C125 1.321 . S
C123 H109 0.930 . S
C123 C125 1.400 . S
C123 C126 1.386 . S
C124 C120 1.429 . S
C124 N122 1.377 . S
C124 C127 1.411 . S
C125 H107 0.930 . S
C125 N122 1.321 . S
C125 C123 1.400 . S
C126 H121 0.930 . S
C126 C123 1.386 . S
C126 C127 1.395 . S
C127 C124 1.411 . S
C127 C126 1.395 . S
C127 C149 1.420 1_545 S
O128 Eu84 2.558 . S
O128 C148 1.257 . S
O129 Eu84 2.612 . S
O129 Eu95 2.380 . S
O129 C140 1.276 . S
O130 Eu95 2.432 . S
O130 C147 1.264 . S
O131 Eu84 2.339 . S
O131 C147 1.254 . S
O132 Eu84 2.563 . S
O132 C140 1.235 . S
O133 Eu84 2.419 . S
O133 C148 1.249 . S
O134 Eu95 2.558 . S
O134 C159 1.257 . S
O135 Eu84 2.380 . S
O135 Eu95 2.612 . S
O135 C151 1.276 . S
O136 Eu84 2.432 . S
O136 C158 1.264 . S
O137 Eu95 2.339 . S
O137 C158 1.254 . S
O138 Eu95 2.563 . S
O138 C151 1.235 . S
O139 Eu95 2.419 . S
O139 C159 1.249 . S
C140 O129 1.276 . S
C140 O132 1.235 . S
C141 C143 1.393 . S
C141 C145 1.395 . S
C141 C148 1.492 . S
C142 C143 1.392 . S
C142 C144 1.386 . S
C143 C141 1.393 . S
C143 C142 1.392 . S
C143 H160 0.930 . S
C144 C142 1.386 . S
C144 C146 1.395 . S
C144 H161 0.930 . S
C145 C141 1.395 . S
C145 C146 1.379 . S
C145 H162 0.930 . S
C146 C144 1.395 . S
C146 C145 1.379 . S
C146 H163 0.930 . S
C147 O130 1.264 . S
C147 O131 1.254 . S
C148 Eu84 2.848 . S
C148 O128 1.257 . S
C148 O133 1.249 . S
C148 C141 1.492 . S
C149 H114 0.931 . S
C149 C127 1.420 1_565 S
C149 C150 1.351 . S
C150 H112 0.930 . S
C150 C118 1.433 . S
C150 C149 1.351 . S
C151 O135 1.276 . S
C151 O138 1.235 . S
C152 C153 1.393 . S
C152 C156 1.395 . S
C152 C159 1.492 1_455 S
C153 C152 1.393 . S
C153 C154 1.392 . S
C153 H164 0.930 . S
C154 C153 1.392 . S
C154 C155 1.386 . S
C155 C154 1.386 . S
C155 C157 1.395 . S
C155 H165 0.930 . S
C156 C152 1.395 . S
C156 C157 1.379 . S
C156 H166 0.930 . S
C157 C155 1.395 . S
C157 C156 1.379 . S
C157 H167 0.930 . S
C158 O136 1.264 . S
C158 O137 1.254 . S
C159 Eu95 2.848 . S
C159 O134 1.257 . S
C159 O139 1.249 . S
C159 C152 1.492 1_655 S
H160 C143 0.930 . S
H161 C144 0.930 . S
H162 C145 0.930 . S
H163 C146 0.930 . S
H164 C153 0.930 . S
H165 C155 0.930 . S
H166 C156 0.930 . S
H167 C157 0.930 . S
Eu168 N199 2.657 . S
Eu168 N206 2.609 . S
Eu168 O212 2.558 . S
Eu168 O213 2.612 . S
Eu168 O215 2.339 . S
Eu168 O216 2.563 . S
Eu168 O217 2.419 . S
Eu168 O219 2.380 . S
Eu168 O220 2.432 . S
Eu168 C232 2.848 . S
C169 C172 1.429 . S
C169 C173 1.411 . S
C169 N176 1.377 . S
C170 C172 1.420 . S
C170 C174 1.423 1_565 S
C170 C182 1.392 . S
C171 C173 1.420 1_545 S
C171 C174 1.351 . S
C171 H194 0.931 . S
C172 C169 1.429 . S
C172 C170 1.420 . S
C172 N180 1.362 . S
C173 C169 1.411 . S
C173 C171 1.420 1_565 S
C173 C178 1.395 . S
C174 C170 1.423 1_545 S
C174 C171 1.351 . S
C174 H186 0.930 . S
C175 C177 1.400 . S
C175 C178 1.386 . S
C175 H187 0.930 . S
N176 C169 1.377 . S
N176 C177 1.321 . S
N176 Eu179 2.609 . S
C177 C175 1.400 . S
C177 N176 1.321 . S
C177 H184 0.930 . S
C178 C173 1.395 . S
C178 C175 1.386 . S
C178 H197 0.930 . S
Eu179 N176 2.609 . S
Eu179 N180 2.657 . S
Eu179 O213 2.380 . S
Eu179 O214 2.432 . S
Eu179 O218 2.558 . S
Eu179 O219 2.612 . S
Eu179 O221 2.339 . S
Eu179 O222 2.563 . S
Eu179 O223 2.419 . S
Eu179 C243 2.848 . S
N180 C172 1.362 . S
N180 Eu179 2.657 . S
N180 C181 1.334 . S
C181 N180 1.334 . S
C181 C183 1.413 . S
C181 H188 0.929 . S
C182 C170 1.392 . S
C182 C183 1.367 . S
C182 H190 0.930 1_565 S
C183 C181 1.413 . S
C183 C182 1.367 . S
C183 H185 0.930 . S
H184 C177 0.930 . S
H185 C183 0.930 . S
H186 C174 0.930 . S
H187 C175 0.930 . S
H188 C181 0.929 . S
H189 C203 0.930 . S
H190 C182 0.930 1_545 S
H191 C209 0.930 . S
H192 C200 0.929 . S
H193 C207 0.901 1_556 S
H194 C171 0.931 . S
H195 C201 0.930 . S
H196 C234 0.930 . S
H197 C178 0.930 . S
H198 C233 0.931 . S
N199 Eu168 2.657 . S
N199 C200 1.334 . S
N199 C204 1.362 . S
C200 H192 0.929 . S
C200 N199 1.334 . S
C200 C203 1.413 . S
C201 H195 0.930 . S
C201 C202 1.392 . S
C201 C203 1.367 . S
C202 C201 1.392 . S
C202 C204 1.420 . S
C202 C234 1.423 . S
C203 H189 0.930 . S
C203 C200 1.413 . S
C203 C201 1.367 . S
C204 N199 1.362 . S
C204 C202 1.420 . S
C204 C208 1.429 . S
H205 C210 0.930 1_556 S
N206 Eu168 2.609 . S
N206 C208 1.377 . S
N206 C209 1.321 . S
C207 H193 0.901 1_554 S
C207 C209 1.425 . S
C207 C210 1.391 . S
C208 C204 1.429 . S
C208 N206 1.377 . S
C208 C211 1.411 . S
C209 H191 0.930 . S
C209 N206 1.321 . S
C209 C207 1.425 . S
C210 H205 0.930 1_554 S
C210 C207 1.391 . S
C210 C211 1.395 . S
C211 C208 1.411 . S
C211 C210 1.395 . S
C211 C233 1.420 . S
O212 Eu168 2.558 . S
O212 C232 1.257 . S
O213 Eu168 2.612 . S
O213 Eu179 2.380 . S
O213 C224 1.276 . S
O214 Eu179 2.432 . S
O214 C231 1.264 . S
O215 Eu168 2.339 . S
O215 C231 1.254 . S
O216 Eu168 2.563 . S
O216 C224 1.235 . S
O217 Eu168 2.419 . S
O217 C232 1.249 . S
O218 Eu179 2.558 . S
O218 C243 1.257 . S
O219 Eu168 2.380 . S
O219 Eu179 2.612 . S
O219 C235 1.276 . S
O220 Eu168 2.432 . S
O220 C242 1.264 . S
O221 Eu179 2.339 . S
O221 C242 1.254 . S
O222 Eu179 2.563 . S
O222 C235 1.235 . S
O223 Eu179 2.419 . S
O223 C243 1.249 . S
C224 O213 1.276 . S
C224 O216 1.235 . S
C225 C227 1.393 . S
C225 C229 1.395 . S
C225 C232 1.492 . S
C226 C227 1.392 . S
C226 C228 1.386 . S
C227 C225 1.393 . S
C227 C226 1.392 . S
C227 H244 0.930 . S
C228 C226 1.386 . S
C228 C230 1.395 . S
C228 H245 0.930 . S
C229 C225 1.395 . S
C229 C230 1.379 . S
C229 H246 0.930 . S
C230 C228 1.395 . S
C230 C229 1.379 . S
C230 H247 0.930 . S
C231 O214 1.264 . S
C231 O215 1.254 . S
C232 Eu168 2.848 . S
C232 O212 1.257 . S
C232 O217 1.249 . S
C232 C225 1.492 . S
C233 H198 0.931 . S
C233 C211 1.420 . S
C233 C234 1.351 . S
C234 H196 0.930 . S
C234 C202 1.423 . S
C234 C233 1.351 . S
C235 O219 1.276 . S
C235 O222 1.235 . S
C236 C237 1.393 . S
C236 C240 1.395 . S
C236 C243 1.492 1_545 S
C237 C236 1.393 . S
C237 C238 1.392 . S
C237 H248 0.930 . S
C238 C237 1.392 . S
C238 C239 1.386 . S
C239 C238 1.386 . S
C239 C241 1.395 . S
C239 H249 0.930 . S
C240 C236 1.395 . S
C240 C241 1.379 . S
C240 H250 0.930 . S
C241 C239 1.395 . S
C241 C240 1.379 . S
C241 H251 0.930 . S
C242 O220 1.264 . S
C242 O221 1.254 . S
C243 Eu179 2.848 . S
C243 O218 1.257 . S
C243 O223 1.249 . S
C243 C236 1.492 1_565 S
H244 C227 0.930 . S
H245 C228 0.930 . S
H246 C229 0.930 . S
H247 C230 0.930 . S
H248 C237 0.930 . S
H249 C239 0.930 . S
H250 C240 0.930 . S
H251 C241 0.930 . S
Eu252 N283 2.657 . S
Eu252 N290 2.609 . S
Eu252 O296 2.558 . S
Eu252 O297 2.612 . S
Eu252 O299 2.339 . S
Eu252 O300 2.563 . S
Eu252 O301 2.419 . S
Eu252 O303 2.380 . S
Eu252 O304 2.432 . S
Eu252 C316 2.848 . S
C253 C256 1.429 . S
C253 C257 1.411 . S
C253 N260 1.377 . S
C254 C256 1.420 . S
C254 C258 1.423 . S
C254 C266 1.392 . S
C255 C257 1.420 . S
C255 C258 1.351 . S
C255 H278 0.931 . S
C256 C253 1.429 . S
C256 C254 1.420 . S
C256 N264 1.362 . S
C257 C253 1.411 . S
C257 C255 1.420 . S
C257 C262 1.395 . S
C258 C254 1.423 . S
C258 C255 1.351 . S
C258 H270 0.930 . S
C259 C261 1.400 . S
C259 C262 1.386 . S
C259 H271 0.930 . S
N260 C253 1.377 . S
N260 C261 1.321 . S
N260 Eu263 2.609 . S
C261 C259 1.400 . S
C261 N260 1.321 . S
C261 H268 0.930 . S
C262 C257 1.395 . S
C262 C259 1.386 . S
C262 H281 0.930 . S
Eu263 N260 2.609 . S
Eu263 N264 2.657 . S
Eu263 O297 2.380 . S
Eu263 O298 2.432 . S
Eu263 O302 2.558 . S
Eu263 O303 2.612 . S
Eu263 O305 2.339 . S
Eu263 O306 2.563 . S
Eu263 O307 2.419 . S
Eu263 C327 2.848 . S
N264 C256 1.362 . S
N264 Eu263 2.657 . S
N264 C265 1.334 . S
C265 N264 1.334 . S
C265 C267 1.413 . S
C265 H272 0.929 . S
C266 C254 1.392 . S
C266 C267 1.367 . S
C266 H274 0.930 . S
C267 C265 1.413 . S
C267 C266 1.367 . S
C267 H269 0.930 . S
H268 C261 0.930 . S
H269 C267 0.930 . S
H270 C258 0.930 . S
H271 C259 0.930 . S
H272 C265 0.929 . S
H273 C287 0.930 . S
H274 C266 0.930 . S
H275 C293 0.930 . S
H276 C284 0.929 . S
H277 C291 0.930 . S
H278 C255 0.931 . S
H279 C285 0.930 . S
H280 C318 0.930 . S
H281 C262 0.930 . S
H282 C317 0.931 . S
N283 Eu252 2.657 . S
N283 C284 1.334 . S
N283 C288 1.362 . S
C284 H276 0.929 . S
C284 N283 1.334 . S
C284 C287 1.413 . S
C285 H279 0.930 . S
C285 C286 1.396 . S
C285 C287 1.367 1_455 S
C286 C285 1.396 . S
C286 C288 1.402 1_455 S
C286 C318 1.435 . S
C287 H273 0.930 . S
C287 C284 1.413 . S
C287 C285 1.367 1_655 S
C288 N283 1.362 . S
C288 C286 1.402 1_655 S
C288 C292 1.429 . S
H289 C294 0.930 . S
N290 Eu252 2.609 . S
N290 C292 1.377 . S
N290 C293 1.321 . S
C291 H277 0.930 . S
C291 C293 1.400 . S
C291 C294 1.386 . S
C292 C288 1.429 . S
C292 N290 1.377 . S
C292 C295 1.411 . S
C293 H275 0.930 . S
C293 N290 1.321 . S
C293 C291 1.400 . S
C294 H289 0.930 . S
C294 C291 1.386 . S
C294 C295 1.395 . S
C295 C292 1.411 . S
C295 C294 1.395 . S
C295 C317 1.420 1_655 S
O296 Eu252 2.558 . S
O296 C316 1.257 . S
O297 Eu252 2.612 . S
O297 Eu263 2.380 . S
O297 C308 1.276 . S
O298 Eu263 2.432 . S
O298 C315 1.264 . S
O299 Eu252 2.339 . S
O299 C315 1.254 . S
O300 Eu252 2.563 . S
O300 C308 1.235 . S
O301 Eu252 2.419 . S
O301 C316 1.249 . S
O302 Eu263 2.558 . S
O302 C327 1.257 . S
O303 Eu252 2.380 . S
O303 Eu263 2.612 . S
O303 C319 1.276 . S
O304 Eu252 2.432 . S
O304 C326 1.264 . S
O305 Eu263 2.339 . S
O305 C326 1.254 . S
O306 Eu263 2.563 . S
O306 C319 1.235 . S
O307 Eu263 2.419 . S
O307 C327 1.249 . S
C308 O297 1.276 . S
C308 O300 1.235 . S
C309 C311 1.393 . S
C309 C313 1.395 . S
C309 C316 1.492 . S
C310 C311 1.392 . S
C310 C312 1.386 . S
C311 C309 1.393 . S
C311 C310 1.392 . S
C311 H328 0.930 . S
C312 C310 1.386 . S
C312 C314 1.395 . S
C312 H329 0.930 . S
C313 C309 1.395 . S
C313 C314 1.379 . S
C313 H330 0.930 . S
C314 C312 1.395 . S
C314 C313 1.379 . S
C314 H331 0.930 . S
C315 O298 1.264 . S
C315 O299 1.254 . S
C316 Eu252 2.848 . S
C316 O296 1.257 . S
C316 O301 1.249 . S
C316 C309 1.492 . S
C317 H282 0.931 . S
C317 C295 1.420 1_455 S
C317 C318 1.351 . S
C318 H280 0.930 . S
C318 C286 1.435 . S
C318 C317 1.351 . S
C319 O303 1.276 . S
C319 O306 1.235 . S
C320 C321 1.393 . S
C320 C324 1.395 . S
C320 C327 1.492 . S
C321 C320 1.393 . S
C321 C322 1.392 . S
C321 H332 0.930 . S
C322 C321 1.392 . S
C322 C323 1.386 . S
C323 C322 1.386 . S
C323 C325 1.395 . S
C323 H333 0.930 . S
C324 C320 1.395 . S
C324 C325 1.379 . S
C324 H334 0.930 . S
C325 C323 1.395 . S
C325 C324 1.379 . S
C325 H335 0.930 . S
C326 O304 1.264 . S
C326 O305 1.254 . S
C327 Eu263 2.848 . S
C327 O302 1.257 . S
C327 O307 1.249 . S
C327 C320 1.492 . S
H328 C311 0.930 . S
H329 C312 0.930 . S
H330 C313 0.930 . S
H331 C314 0.930 . S
H332 C321 0.930 . S
H333 C323 0.930 . S
H334 C324 0.930 . S
H335 C325 0.930 . S
Eu336 N367 2.657 . S
Eu336 N374 2.609 . S
Eu336 O380 2.558 . S
Eu336 O381 2.612 . S
Eu336 O383 2.339 . S
Eu336 O384 2.563 . S
Eu336 O385 2.419 . S
Eu336 O387 2.380 . S
Eu336 O388 2.432 . S
Eu336 C400 2.848 . S
C337 C340 1.429 . S
C337 C341 1.411 . S
C337 N344 1.377 . S
C338 C340 1.420 . S
C338 C342 1.423 1_455 S
C338 C350 1.392 . S
C339 C341 1.420 1_655 S
C339 C342 1.351 . S
C339 H362 0.931 . S
C340 C337 1.429 . S
C340 C338 1.420 . S
C340 N348 1.362 . S
C341 C337 1.411 . S
C341 C339 1.420 1_455 S
C341 C346 1.395 . S
C342 C338 1.423 1_655 S
C342 C339 1.351 . S
C342 H354 0.930 . S
C343 C345 1.400 . S
C343 C346 1.386 . S
C343 H355 0.930 . S
N344 C337 1.377 . S
N344 C345 1.321 . S
N344 Eu347 2.609 . S
C345 C343 1.400 . S
C345 N344 1.321 . S
C345 H352 0.930 . S
C346 C341 1.395 . S
C346 C343 1.386 . S
C346 H365 0.930 . S
Eu347 N344 2.609 . S
Eu347 N348 2.657 . S
Eu347 O381 2.380 . S
Eu347 O382 2.432 . S
Eu347 O386 2.558 . S
Eu347 O387 2.612 . S
Eu347 O389 2.339 . S
Eu347 O390 2.563 . S
Eu347 O391 2.419 . S
Eu347 C411 2.848 . S
N348 C340 1.362 . S
N348 Eu347 2.657 . S
N348 C349 1.334 . S
C349 N348 1.334 . S
C349 C351 1.413 . S
C349 H356 0.929 . S
C350 C338 1.392 . S
C350 C351 1.367 . S
C350 H358 0.930 1_455 S
C351 C349 1.413 . S
C351 C350 1.367 . S
C351 H353 0.930 . S
H352 C345 0.930 . S
H353 C351 0.930 . S
H354 C342 0.930 . S
H355 C343 0.930 . S
H356 C349 0.929 . S
H357 C371 0.930 . S
H358 C350 0.930 1_655 S
H359 C377 0.930 . S
H360 C368 0.929 . S
H361 C375 0.901 1_556 S
H362 C339 0.931 . S
H363 C369 0.930 . S
H364 C402 0.930 . S
H365 C346 0.930 . S
H366 C401 0.931 . S
N367 Eu336 2.657 . S
N367 C368 1.334 . S
N367 C372 1.362 . S
C368 H360 0.929 . S
C368 N367 1.334 . S
C368 C371 1.413 . S
C369 H363 0.930 . S
C369 C370 1.399 . S
C369 C371 1.367 1_545 S
C370 C369 1.399 . S
C370 C372 1.402 1_545 S
C370 C402 1.433 . S
C371 H357 0.930 . S
C371 C368 1.413 . S
C371 C369 1.367 1_565 S
C372 N367 1.362 . S
C372 C370 1.402 1_565 S
C372 C376 1.429 . S
H373 C378 0.930 1_556 S
N374 Eu336 2.609 . S
N374 C376 1.377 . S
N374 C377 1.321 . S
C375 H361 0.901 1_554 S
C375 C377 1.425 . S
C375 C378 1.391 . S
C376 C372 1.429 . S
C376 N374 1.377 . S
C376 C379 1.411 . S
C377 H359 0.930 . S
C377 N374 1.321 . S
C377 C375 1.425 . S
C378 H373 0.930 1_554 S
C378 C375 1.391 . S
C378 C379 1.395 . S
C379 C376 1.411 . S
C379 C378 1.395 . S
C379 C401 1.420 1_565 S
O380 Eu336 2.558 . S
O380 C400 1.257 . S
O381 Eu336 2.612 . S
O381 Eu347 2.380 . S
O381 C392 1.276 . S
O382 Eu347 2.432 . S
O382 C399 1.264 . S
O383 Eu336 2.339 . S
O383 C399 1.254 . S
O384 Eu336 2.563 . S
O384 C392 1.235 . S
O385 Eu336 2.419 . S
O385 C400 1.249 . S
O386 Eu347 2.558 . S
O386 C411 1.257 . S
O387 Eu336 2.380 . S
O387 Eu347 2.612 . S
O387 C403 1.276 . S
O388 Eu336 2.432 . S
O388 C410 1.264 . S
O389 Eu347 2.339 . S
O389 C410 1.254 . S
O390 Eu347 2.563 . S
O390 C403 1.235 . S
O391 Eu347 2.419 . S
O391 C411 1.249 . S
C392 O381 1.276 . S
C392 O384 1.235 . S
C393 C395 1.393 . S
C393 C397 1.395 . S
C393 C400 1.492 . S
C394 C395 1.392 . S
C394 C396 1.386 . S
C395 C393 1.393 . S
C395 C394 1.392 . S
C395 H412 0.930 . S
C396 C394 1.386 . S
C396 C398 1.395 . S
C396 H413 0.930 . S
C397 C393 1.395 . S
C397 C398 1.379 . S
C397 H414 0.930 . S
C398 C396 1.395 . S
C398 C397 1.379 . S
C398 H415 0.930 . S
C399 O382 1.264 . S
C399 O383 1.254 . S
C400 Eu336 2.848 . S
C400 O380 1.257 . S
C400 O385 1.249 . S
C400 C393 1.492 . S
C401 H366 0.931 . S
C401 C379 1.420 1_545 S
C401 C402 1.351 . S
C402 H364 0.930 . S
C402 C370 1.433 . S
C402 C401 1.351 . S
C403 O387 1.276 . S
C403 O390 1.235 . S
C404 C405 1.393 . S
C404 C408 1.395 . S
C404 C411 1.492 1_655 S
C405 C404 1.393 . S
C405 C406 1.392 . S
C405 H416 0.930 . S
C406 C405 1.392 . S
C406 C407 1.386 . S
C407 C406 1.386 . S
C407 C409 1.395 . S
C407 H417 0.930 . S
C408 C404 1.395 . S
C408 C409 1.379 . S
C408 H418 0.930 . S
C409 C407 1.395 . S
C409 C408 1.379 . S
C409 H419 0.930 . S
C410 O388 1.264 . S
C410 O389 1.254 . S
C411 Eu347 2.848 . S
C411 O386 1.257 . S
C411 O391 1.249 . S
C411 C404 1.492 1_455 S
H412 C395 0.930 . S
H413 C396 0.930 . S
H414 C397 0.930 . S
H415 C398 0.930 . S
H416 C405 0.930 . S
H417 C407 0.930 . S
H418 C408 0.930 . S
H419 C409 0.930 . S
Eu420 N451 2.657 . S
Eu420 N458 2.609 . S
Eu420 O464 2.558 . S
Eu420 O465 2.612 . S
Eu420 O467 2.339 . S
Eu420 O468 2.563 . S
Eu420 O469 2.419 . S
Eu420 O471 2.380 . S
Eu420 O472 2.432 . S
Eu420 C484 2.848 . S
C421 C424 1.429 . S
C421 C425 1.411 . S
C421 N428 1.377 . S
C422 C424 1.420 . S
C422 C426 1.423 1_545 S
C422 C434 1.392 . S
C423 C425 1.420 1_565 S
C423 C426 1.351 . S
C423 H446 0.931 . S
C424 C421 1.429 . S
C424 C422 1.420 . S
C424 N432 1.362 . S
C425 C421 1.411 . S
C425 C423 1.420 1_545 S
C425 C430 1.395 . S
C426 C422 1.423 1_565 S
C426 C423 1.351 . S
C426 H438 0.930 . S
C427 C429 1.400 . S
C427 C430 1.386 . S
C427 H439 0.930 . S
N428 C421 1.377 . S
N428 C429 1.321 . S
N428 Eu431 2.609 . S
C429 C427 1.400 . S
C429 N428 1.321 . S
C429 H436 0.930 . S
C430 C425 1.395 . S
C430 C427 1.386 . S
C430 H449 0.930 . S
Eu431 N428 2.609 . S
Eu431 N432 2.657 . S
Eu431 O465 2.380 . S
Eu431 O466 2.432 . S
Eu431 O470 2.558 . S
Eu431 O471 2.612 . S
Eu431 O473 2.339 . S
Eu431 O474 2.563 . S
Eu431 O475 2.419 . S
Eu431 C495 2.848 . S
N432 C424 1.362 . S
N432 Eu431 2.657 . S
N432 C433 1.334 . S
C433 N432 1.334 . S
C433 C435 1.413 . S
C433 H440 0.929 . S
C434 C422 1.392 . S
C434 C435 1.367 . S
C434 H442 0.930 1_545 S
C435 C433 1.413 . S
C435 C434 1.367 . S
C435 H437 0.930 . S
H436 C429 0.930 . S
H437 C435 0.930 . S
H438 C426 0.930 . S
H439 C427 0.930 . S
H440 C433 0.929 . S
H441 C455 0.930 . S
H442 C434 0.930 1_565 S
H443 C461 0.930 . S
H444 C452 0.929 . S
H445 C459 0.930 . S
H446 C423 0.931 . S
H447 C453 0.930 . S
H448 C486 0.930 . S
H449 C430 0.930 . S
H450 C485 0.931 . S
N451 Eu420 2.657 . S
N451 C452 1.334 . S
N451 C456 1.362 . S
C452 H444 0.929 . S
C452 N451 1.334 . S
C452 C455 1.413 . S
C453 H447 0.930 . S
C453 C454 1.392 . S
C453 C455 1.367 . S
C454 C453 1.392 . S
C454 C456 1.420 . S
C454 C486 1.423 . S
C455 H441 0.930 . S
C455 C452 1.413 . S
C455 C453 1.367 . S
C456 N451 1.362 . S
C456 C454 1.420 . S
C456 C460 1.429 . S
H457 C462 0.930 . S
N458 Eu420 2.609 . S
N458 C460 1.377 . S
N458 C461 1.321 . S
C459 H445 0.930 . S
C459 C461 1.400 . S
C459 C462 1.386 . S
C460 C456 1.429 . S
C460 N458 1.377 . S
C460 C463 1.411 . S
C461 H443 0.930 . S
C461 N458 1.321 . S
C461 C459 1.400 . S
C462 H457 0.930 . S
C462 C459 1.386 . S
C462 C463 1.395 . S
C463 C460 1.411 . S
C463 C462 1.395 . S
C463 C485 1.420 . S
O464 Eu420 2.558 . S
O464 C484 1.257 . S
O465 Eu420 2.612 . S
O465 Eu431 2.380 . S
O465 C476 1.276 . S
O466 Eu431 2.432 . S
O466 C483 1.264 . S
O467 Eu420 2.339 . S
O467 C483 1.254 . S
O468 Eu420 2.563 . S
O468 C476 1.235 . S
O469 Eu420 2.419 . S
O469 C484 1.249 . S
O470 Eu431 2.558 . S
O470 C495 1.257 . S
O471 Eu420 2.380 . S
O471 Eu431 2.612 . S
O471 C487 1.276 . S
O472 Eu420 2.432 . S
O472 C494 1.264 . S
O473 Eu431 2.339 . S
O473 C494 1.254 . S
O474 Eu431 2.563 . S
O474 C487 1.235 . S
O475 Eu431 2.419 . S
O475 C495 1.249 . S
C476 O465 1.276 . S
C476 O468 1.235 . S
C477 C479 1.393 . S
C477 C481 1.395 . S
C477 C484 1.492 . S
C478 C479 1.392 . S
C478 C480 1.386 . S
C479 C477 1.393 . S
C479 C478 1.392 . S
C479 H496 0.930 . S
C480 C478 1.386 . S
C480 C482 1.395 . S
C480 H497 0.930 . S
C481 C477 1.395 . S
C481 C482 1.379 . S
C481 H498 0.930 . S
C482 C480 1.395 . S
C482 C481 1.379 . S
C482 H499 0.930 . S
C483 O466 1.264 . S
C483 O467 1.254 . S
C484 Eu420 2.848 . S
C484 O464 1.257 . S
C484 O469 1.249 . S
C484 C477 1.492 . S
C485 H450 0.931 . S
C485 C463 1.420 . S
C485 C486 1.351 . S
C486 H448 0.930 . S
C486 C454 1.423 . S
C486 C485 1.351 . S
C487 O471 1.276 . S
C487 O474 1.235 . S
C488 C489 1.393 . S
C488 C492 1.395 . S
C488 C495 1.492 1_565 S
C489 C488 1.393 . S
C489 C490 1.392 . S
C489 H500 0.930 . S
C490 C489 1.392 . S
C490 C491 1.386 . S
C491 C490 1.386 . S
C491 C493 1.395 . S
C491 H501 0.930 . S
C492 C488 1.395 . S
C492 C493 1.379 . S
C492 H502 0.930 . S
C493 C491 1.395 . S
C493 C492 1.379 . S
C493 H503 0.930 . S
C494 O472 1.264 . S
C494 O473 1.254 . S
C495 Eu431 2.848 . S
C495 O470 1.257 . S
C495 O475 1.249 . S
C495 C488 1.492 1_545 S
H496 C479 0.930 . S
H497 C480 0.930 . S
H498 C481 0.930 . S
H499 C482 0.930 . S
H500 C489 0.930 . S
H501 C491 0.930 . S
H502 C492 0.930 . S
H503 C493 0.930 . S
Eu504 N535 2.657 . S
Eu504 N542 2.609 . S
Eu504 O548 2.558 . S
Eu504 O549 2.612 . S
Eu504 O551 2.339 . S
Eu504 O552 2.563 . S
Eu504 O553 2.419 . S
Eu504 O555 2.380 . S
Eu504 O556 2.432 . S
Eu504 C568 2.848 . S
C505 C508 1.429 . S
C505 C509 1.411 . S
C505 N512 1.377 . S
C506 C508 1.420 . S
C506 C510 1.423 . S
C506 C518 1.392 . S
C507 C509 1.420 . S
C507 C510 1.351 . S
C507 H530 0.931 . S
C508 C505 1.429 . S
C508 C506 1.420 . S
C508 N516 1.362 . S
C509 C505 1.411 . S
C509 C507 1.420 . S
C509 C514 1.395 . S
C510 C506 1.423 . S
C510 C507 1.351 . S
C510 H522 0.930 . S
C511 C513 1.400 . S
C511 C514 1.386 . S
C511 H523 0.930 . S
N512 C505 1.377 . S
N512 C513 1.321 . S
N512 Eu515 2.609 . S
C513 C511 1.400 . S
C513 N512 1.321 . S
C513 H520 0.930 . S
C514 C509 1.395 . S
C514 C511 1.386 . S
C514 H533 0.930 . S
Eu515 N512 2.609 . S
Eu515 N516 2.657 . S
Eu515 O549 2.380 . S
Eu515 O550 2.432 . S
Eu515 O554 2.558 . S
Eu515 O555 2.612 . S
Eu515 O557 2.339 . S
Eu515 O558 2.563 . S
Eu515 O559 2.419 . S
Eu515 C579 2.848 . S
N516 C508 1.362 . S
N516 Eu515 2.657 . S
N516 C517 1.334 . S
C517 N516 1.334 . S
C517 C519 1.413 . S
C517 H524 0.929 . S
C518 C506 1.392 . S
C518 C519 1.367 . S
C518 H526 0.930 . S
C519 C517 1.413 . S
C519 C518 1.367 . S
C519 H521 0.930 . S
H520 C513 0.930 . S
H521 C519 0.930 . S
H522 C510 0.930 . S
H523 C511 0.930 . S
H524 C517 0.929 . S
H525 C539 0.930 . S
H526 C518 0.930 . S
H527 C545 0.930 . S
H528 C536 0.929 . S
H529 C543 0.930 . S
H530 C507 0.931 . S
H531 C537 0.930 . S
H532 C570 0.930 . S
H533 C514 0.930 . S
H534 C569 0.931 . S
N535 Eu504 2.657 . S
N535 C536 1.334 . S
N535 C540 1.362 . S
C536 H528 0.929 . S
C536 N535 1.334 . S
C536 C539 1.413 . S
C537 H531 0.930 . S
C537 C538 1.396 . S
C537 C539 1.367 1_545 S
C538 C537 1.396 . S
C538 C540 1.402 1_545 S
C538 C570 1.435 . S
C539 H525 0.930 . S
C539 C536 1.413 . S
C539 C537 1.367 1_565 S
C540 N535 1.362 . S
C540 C538 1.402 1_565 S
C540 C544 1.429 . S
H541 C546 0.930 . S
N542 Eu504 2.609 . S
N542 C544 1.377 . S
N542 C545 1.321 . S
C543 H529 0.930 . S
C543 C545 1.400 . S
C543 C546 1.386 . S
C544 C540 1.429 . S
C544 N542 1.377 . S
C544 C547 1.411 . S
C545 H527 0.930 . S
C545 N542 1.321 . S
C545 C543 1.400 . S
C546 H541 0.930 . S
C546 C543 1.386 . S
C546 C547 1.395 . S
C547 C544 1.411 . S
C547 C546 1.395 . S
C547 C569 1.420 1_565 S
O548 Eu504 2.558 . S
O548 C568 1.257 . S
O549 Eu504 2.612 . S
O549 Eu515 2.380 . S
O549 C560 1.276 . S
O550 Eu515 2.432 . S
O550 C567 1.264 . S
O551 Eu504 2.339 . S
O551 C567 1.254 . S
O552 Eu504 2.563 . S
O552 C560 1.235 . S
O553 Eu504 2.419 . S
O553 C568 1.249 . S
O554 Eu515 2.558 . S
O554 C579 1.257 . S
O555 Eu504 2.380 . S
O555 Eu515 2.612 . S
O555 C571 1.276 . S
O556 Eu504 2.432 . S
O556 C578 1.264 . S
O557 Eu515 2.339 . S
O557 C578 1.254 . S
O558 Eu515 2.563 . S
O558 C571 1.235 . S
O559 Eu515 2.419 . S
O559 C579 1.249 . S
C560 O549 1.276 . S
C560 O552 1.235 . S
C561 C563 1.393 . S
C561 C565 1.395 . S
C561 C568 1.492 . S
C562 C563 1.392 . S
C562 C564 1.386 . S
C563 C561 1.393 . S
C563 C562 1.392 . S
C563 H580 0.930 . S
C564 C562 1.386 . S
C564 C566 1.395 . S
C564 H581 0.930 . S
C565 C561 1.395 . S
C565 C566 1.379 . S
C565 H582 0.930 . S
C566 C564 1.395 . S
C566 C565 1.379 . S
C566 H583 0.930 . S
C567 O550 1.264 . S
C567 O551 1.254 . S
C568 Eu504 2.848 . S
C568 O548 1.257 . S
C568 O553 1.249 . S
C568 C561 1.492 . S
C569 H534 0.931 . S
C569 C547 1.420 1_545 S
C569 C570 1.351 . S
C570 H532 0.930 . S
C570 C538 1.435 . S
C570 C569 1.351 . S
C571 O555 1.276 . S
C571 O558 1.235 . S
C572 C573 1.393 . S
C572 C576 1.395 . S
C572 C579 1.492 . S
C573 C572 1.393 . S
C573 C574 1.392 . S
C573 H584 0.930 . S
C574 C573 1.392 . S
C574 C575 1.386 . S
C575 C574 1.386 . S
C575 C577 1.395 . S
C575 H585 0.930 . S
C576 C572 1.395 . S
C576 C577 1.379 . S
C576 H586 0.930 . S
C577 C575 1.395 . S
C577 C576 1.379 . S
C577 H587 0.930 . S
C578 O556 1.264 . S
C578 O557 1.254 . S
C579 Eu515 2.848 . S
C579 O554 1.257 . S
C579 O559 1.249 . S
C579 C572 1.492 . S
H580 C563 0.930 . S
H581 C564 0.930 . S
H582 C565 0.930 . S
H583 C566 0.930 . S
H584 C573 0.930 . S
H585 C575 0.930 . S
H586 C576 0.930 . S
H587 C577 0.930 . S
Eu588 N619 2.657 . S
Eu588 N626 2.609 . S
Eu588 O632 2.558 . S
Eu588 O633 2.612 . S
Eu588 O635 2.339 . S
Eu588 O636 2.563 . S
Eu588 O637 2.419 . S
Eu588 O639 2.380 . S
Eu588 O640 2.432 . S
Eu588 C652 2.848 . S
C589 C592 1.429 . S
C589 C593 1.411 . S
C589 N596 1.377 . S
C590 C592 1.420 . S
C590 C594 1.423 1_655 S
C590 C602 1.392 . S
C591 C593 1.420 1_455 S
C591 C594 1.351 . S
C591 H614 0.931 . S
C592 C589 1.429 . S
C592 C590 1.420 . S
C592 N600 1.362 . S
C593 C589 1.411 . S
C593 C591 1.420 1_655 S
C593 C598 1.395 . S
C594 C590 1.423 1_455 S
C594 C591 1.351 . S
C594 H606 0.930 . S
C595 C597 1.400 . S
C595 C598 1.386 . S
C595 H607 0.930 . S
N596 C589 1.377 . S
N596 C597 1.321 . S
N596 Eu599 2.609 . S
C597 C595 1.400 . S
C597 N596 1.321 . S
C597 H604 0.930 . S
C598 C593 1.395 . S
C598 C595 1.386 . S
C598 H617 0.930 . S
Eu599 N596 2.609 . S
Eu599 N600 2.657 . S
Eu599 O633 2.380 . S
Eu599 O634 2.432 . S
Eu599 O638 2.558 . S
Eu599 O639 2.612 . S
Eu599 O641 2.339 . S
Eu599 O642 2.563 . S
Eu599 O643 2.419 . S
Eu599 C663 2.848 . S
N600 C592 1.362 . S
N600 Eu599 2.657 . S
N600 C601 1.334 . S
C601 N600 1.334 . S
C601 C603 1.413 . S
C601 H608 0.929 . S
C602 C590 1.392 . S
C602 C603 1.367 . S
C602 H610 0.930 1_655 S
C603 C601 1.413 . S
C603 C602 1.367 . S
C603 H605 0.930 . S
H604 C597 0.930 . S
H605 C603 0.930 . S
H606 C594 0.930 . S
H607 C595 0.930 . S
H608 C601 0.929 . S
H609 C623 0.930 . S
H610 C602 0.930 1_455 S
H611 C629 0.930 . S
H612 C620 0.929 . S
H613 C627 0.901 1_554 S
H614 C591 0.931 . S
H615 C621 0.930 . S
H616 C654 0.930 . S
H617 C598 0.930 . S
H618 C653 0.931 . S
N619 Eu588 2.657 . S
N619 C620 1.334 . S
N619 C624 1.362 . S
C620 H612 0.929 . S
C620 N619 1.334 . S
C620 C623 1.413 . S
C621 H615 0.930 . S
C621 C622 1.392 . S
C621 C623 1.367 . S
C622 C621 1.392 . S
C622 C624 1.420 . S
C622 C654 1.423 . S
C623 H609 0.930 . S
C623 C620 1.413 . S
C623 C621 1.367 . S
C624 N619 1.362 . S
C624 C622 1.420 . S
C624 C628 1.429 . S
H625 C630 0.930 1_554 S
N626 Eu588 2.609 . S
N626 C628 1.377 . S
N626 C629 1.321 . S
C627 H613 0.901 1_556 S
C627 C629 1.425 . S
C627 C630 1.391 . S
C628 C624 1.429 . S
C628 N626 1.377 . S
C628 C631 1.411 . S
C629 H611 0.930 . S
C629 N626 1.321 . S
C629 C627 1.425 . S
C630 H625 0.930 1_556 S
C630 C627 1.391 . S
C630 C631 1.395 . S
C631 C628 1.411 . S
C631 C630 1.395 . S
C631 C653 1.420 . S
O632 Eu588 2.558 . S
O632 C652 1.257 . S
O633 Eu588 2.612 . S
O633 Eu599 2.380 . S
O633 C644 1.276 . S
O634 Eu599 2.432 . S
O634 C651 1.264 . S
O635 Eu588 2.339 . S
O635 C651 1.254 . S
O636 Eu588 2.563 . S
O636 C644 1.235 . S
O637 Eu588 2.419 . S
O637 C652 1.249 . S
O638 Eu599 2.558 . S
O638 C663 1.257 . S
O639 Eu588 2.380 . S
O639 Eu599 2.612 . S
O639 C655 1.276 . S
O640 Eu588 2.432 . S
O640 C662 1.264 . S
O641 Eu599 2.339 . S
O641 C662 1.254 . S
O642 Eu599 2.563 . S
O642 C655 1.235 . S
O643 Eu599 2.419 . S
O643 C663 1.249 . S
C644 O633 1.276 . S
C644 O636 1.235 . S
C645 C647 1.393 . S
C645 C649 1.395 . S
C645 C652 1.492 . S
C646 C647 1.392 . S
C646 C648 1.386 . S
C647 C645 1.393 . S
C647 C646 1.392 . S
C647 H664 0.930 . S
C648 C646 1.386 . S
C648 C650 1.395 . S
C648 H665 0.930 . S
C649 C645 1.395 . S
C649 C650 1.379 . S
C649 H666 0.930 . S
C650 C648 1.395 . S
C650 C649 1.379 . S
C650 H667 0.930 . S
C651 O634 1.264 . S
C651 O635 1.254 . S
C652 Eu588 2.848 . S
C652 O632 1.257 . S
C652 O637 1.249 . S
C652 C645 1.492 . S
C653 H618 0.931 . S
C653 C631 1.420 . S
C653 C654 1.351 . S
C654 H616 0.930 . S
C654 C622 1.423 . S
C654 C653 1.351 . S
C655 O639 1.276 . S
C655 O642 1.235 . S
C656 C657 1.393 . S
C656 C660 1.395 . S
C656 C663 1.492 1_455 S
C657 C656 1.393 . S
C657 C658 1.392 . S
C657 H668 0.930 . S
C658 C657 1.392 . S
C658 C659 1.386 . S
C659 C658 1.386 . S
C659 C661 1.395 . S
C659 H669 0.930 . S
C660 C656 1.395 . S
C660 C661 1.379 . S
C660 H670 0.930 . S
C661 C659 1.395 . S
C661 C660 1.379 . S
C661 H671 0.930 . S
C662 O640 1.264 . S
C662 O641 1.254 . S
C663 Eu599 2.848 . S
C663 O638 1.257 . S
C663 O643 1.249 . S
C663 C656 1.492 1_655 S
H664 C647 0.930 . S
H665 C648 0.930 . S
H666 C649 0.930 . S
H667 C650 0.930 . S
H668 C657 0.930 . S
H669 C659 0.930 . S
H670 C660 0.930 . S
H671 C661 0.930 . S
Eu672 N703 2.657 . S
Eu672 N710 2.609 . S
Eu672 O716 2.558 . S
Eu672 O717 2.612 . S
Eu672 O719 2.339 . S
Eu672 O720 2.563 . S
Eu672 O721 2.419 . S
Eu672 O723 2.380 . S
Eu672 O724 2.432 . S
Eu672 C736 2.848 . S
C673 C676 1.429 . S
C673 C677 1.411 . S
C673 N680 1.377 . S
C674 C676 1.420 . S
C674 C678 1.423 1_565 S
C674 C686 1.392 . S
C675 C677 1.420 1_545 S
C675 C678 1.351 . S
C675 H698 0.931 . S
C676 C673 1.429 . S
C676 C674 1.420 . S
C676 N684 1.362 . S
C677 C673 1.411 . S
C677 C675 1.420 1_565 S
C677 C682 1.395 . S
C678 C674 1.423 1_545 S
C678 C675 1.351 . S
C678 H690 0.930 . S
C679 C681 1.400 . S
C679 C682 1.386 . S
C679 H691 0.930 . S
N680 C673 1.377 . S
N680 C681 1.321 . S
N680 Eu683 2.609 . S
C681 C679 1.400 . S
C681 N680 1.321 . S
C681 H688 0.930 . S
C682 C677 1.395 . S
C682 C679 1.386 . S
C682 H701 0.930 . S
Eu683 N680 2.609 . S
Eu683 N684 2.657 . S
Eu683 O717 2.380 . S
Eu683 O718 2.432 . S
Eu683 O722 2.558 . S
Eu683 O723 2.612 . S
Eu683 O725 2.339 . S
Eu683 O726 2.563 . S
Eu683 O727 2.419 . S
Eu683 C747 2.848 . S
N684 C676 1.362 . S
N684 Eu683 2.657 . S
N684 C685 1.334 . S
C685 N684 1.334 . S
C685 C687 1.413 . S
C685 H692 0.929 . S
C686 C674 1.392 . S
C686 C687 1.367 . S
C686 H694 0.930 1_565 S
C687 C685 1.413 . S
C687 C686 1.367 . S
C687 H689 0.930 . S
H688 C681 0.930 . S
H689 C687 0.930 . S
H690 C678 0.930 . S
H691 C679 0.930 . S
H692 C685 0.929 . S
H693 C707 0.930 . S
H694 C686 0.930 1_545 S
H695 C713 0.930 . S
H696 C704 0.929 . S
H697 C711 0.930 . S
H698 C675 0.931 . S
H699 C705 0.930 . S
H700 C738 0.930 . S
H701 C682 0.930 . S
H702 C737 0.931 . S
N703 Eu672 2.657 . S
N703 C704 1.334 . S
N703 C708 1.362 . S
C704 H696 0.929 . S
C704 N703 1.334 . S
C704 C707 1.413 . S
C705 H699 0.930 . S
C705 C706 1.399 . S
C705 C707 1.367 1_655 S
C706 C705 1.399 . S
C706 C708 1.402 1_655 S
C706 C738 1.433 . S
C707 H693 0.930 . S
C707 C704 1.413 . S
C707 C705 1.367 1_455 S
C708 N703 1.362 . S
C708 C706 1.402 1_455 S
C708 C712 1.429 . S
H709 C714 0.930 . S
N710 Eu672 2.609 . S
N710 C712 1.377 . S
N710 C713 1.321 . S
C711 H697 0.930 . S
C711 C713 1.400 . S
C711 C714 1.386 . S
C712 C708 1.429 . S
C712 N710 1.377 . S
C712 C715 1.411 . S
C713 H695 0.930 . S
C713 N710 1.321 . S
C713 C711 1.400 . S
C714 H709 0.930 . S
C714 C711 1.386 . S
C714 C715 1.395 . S
C715 C712 1.411 . S
C715 C714 1.395 . S
C715 C737 1.420 1_455 S
O716 Eu672 2.558 . S
O716 C736 1.257 . S
O717 Eu672 2.612 . S
O717 Eu683 2.380 . S
O717 C728 1.276 . S
O718 Eu683 2.432 . S
O718 C735 1.264 . S
O719 Eu672 2.339 . S
O719 C735 1.254 . S
O720 Eu672 2.563 . S
O720 C728 1.235 . S
O721 Eu672 2.419 . S
O721 C736 1.249 . S
O722 Eu683 2.558 . S
O722 C747 1.257 . S
O723 Eu672 2.380 . S
O723 Eu683 2.612 . S
O723 C739 1.276 . S
O724 Eu672 2.432 . S
O724 C746 1.264 . S
O725 Eu683 2.339 . S
O725 C746 1.254 . S
O726 Eu683 2.563 . S
O726 C739 1.235 . S
O727 Eu683 2.419 . S
O727 C747 1.249 . S
C728 O717 1.276 . S
C728 O720 1.235 . S
C729 C731 1.393 . S
C729 C733 1.395 . S
C729 C736 1.492 . S
C730 C731 1.392 . S
C730 C732 1.386 . S
C731 C729 1.393 . S
C731 C730 1.392 . S
C731 H748 0.930 . S
C732 C730 1.386 . S
C732 C734 1.395 . S
C732 H749 0.930 . S
C733 C729 1.395 . S
C733 C734 1.379 . S
C733 H750 0.930 . S
C734 C732 1.395 . S
C734 C733 1.379 . S
C734 H751 0.930 . S
C735 O718 1.264 . S
C735 O719 1.254 . S
C736 Eu672 2.848 . S
C736 O716 1.257 . S
C736 O721 1.249 . S
C736 C729 1.492 . S
C737 H702 0.931 . S
C737 C715 1.420 1_655 S
C737 C738 1.351 . S
C738 H700 0.930 . S
C738 C706 1.433 . S
C738 C737 1.351 . S
C739 O723 1.276 . S
C739 O726 1.235 . S
C740 C741 1.393 . S
C740 C744 1.395 . S
C740 C747 1.492 1_545 S
C741 C740 1.393 . S
C741 C742 1.392 . S
C741 H752 0.930 . S
C742 C741 1.392 . S
C742 C743 1.386 . S
C743 C742 1.386 . S
C743 C745 1.395 . S
C743 H753 0.930 . S
C744 C740 1.395 . S
C744 C745 1.379 . S
C744 H754 0.930 . S
C745 C743 1.395 . S
C745 C744 1.379 . S
C745 H755 0.930 . S
C746 O724 1.264 . S
C746 O725 1.254 . S
C747 Eu683 2.848 . S
C747 O722 1.257 . S
C747 O727 1.249 . S
C747 C740 1.492 1_565 S
H748 C731 0.930 . S
H749 C732 0.930 . S
H750 C733 0.930 . S
H751 C734 0.930 . S
H752 C741 0.930 . S
H753 C743 0.930 . S
H754 C744 0.930 . S
H755 C745 0.930 . S
Eu756 N787 2.657 . S
Eu756 N794 2.609 . S
Eu756 O800 2.558 . S
Eu756 O801 2.612 . S
Eu756 O803 2.339 . S
Eu756 O804 2.563 . S
Eu756 O805 2.419 . S
Eu756 O807 2.380 . S
Eu756 O808 2.432 . S
Eu756 C820 2.848 . S
C757 C760 1.429 . S
C757 C761 1.411 . S
C757 N764 1.377 . S
C758 C760 1.420 . S
C758 C762 1.423 . S
C758 C770 1.392 . S
C759 C761 1.420 . S
C759 C762 1.351 . S
C759 H782 0.931 . S
C760 C757 1.429 . S
C760 C758 1.420 . S
C760 N768 1.362 . S
C761 C757 1.411 . S
C761 C759 1.420 . S
C761 C766 1.395 . S
C762 C758 1.423 . S
C762 C759 1.351 . S
C762 H774 0.930 . S
C763 C765 1.400 . S
C763 C766 1.386 . S
C763 H775 0.930 . S
N764 C757 1.377 . S
N764 C765 1.321 . S
N764 Eu767 2.609 . S
C765 C763 1.400 . S
C765 N764 1.321 . S
C765 H772 0.930 . S
C766 C761 1.395 . S
C766 C763 1.386 . S
C766 H785 0.930 . S
Eu767 N764 2.609 . S
Eu767 N768 2.657 . S
Eu767 O801 2.380 . S
Eu767 O802 2.432 . S
Eu767 O806 2.558 . S
Eu767 O807 2.612 . S
Eu767 O809 2.339 . S
Eu767 O810 2.563 . S
Eu767 O811 2.419 . S
Eu767 C831 2.848 . S
N768 C760 1.362 . S
N768 Eu767 2.657 . S
N768 C769 1.334 . S
C769 N768 1.334 . S
C769 C771 1.413 . S
C769 H776 0.929 . S
C770 C758 1.392 . S
C770 C771 1.367 . S
C770 H778 0.930 . S
C771 C769 1.413 . S
C771 C770 1.367 . S
C771 H773 0.930 . S
H772 C765 0.930 . S
H773 C771 0.930 . S
H774 C762 0.930 . S
H775 C763 0.930 . S
H776 C769 0.929 . S
H777 C791 0.930 . S
H778 C770 0.930 . S
H779 C797 0.930 . S
H780 C788 0.929 . S
H781 C795 0.901 1_554 S
H782 C759 0.931 . S
H783 C789 0.930 . S
H784 C822 0.930 . S
H785 C766 0.930 . S
H786 C821 0.931 . S
N787 Eu756 2.657 . S
N787 C788 1.334 . S
N787 C792 1.362 . S
C788 H780 0.929 . S
C788 N787 1.334 . S
C788 C791 1.413 . S
C789 H783 0.930 . S
C789 C790 1.396 . S
C789 C791 1.367 1_565 S
C790 C789 1.396 . S
C790 C792 1.402 1_565 S
C790 C822 1.435 . S
C791 H777 0.930 . S
C791 C788 1.413 . S
C791 C789 1.367 1_545 S
C792 N787 1.362 . S
C792 C790 1.402 1_545 S
C792 C796 1.429 . S
H793 C798 0.930 1_554 S
N794 Eu756 2.609 . S
N794 C796 1.377 . S
N794 C797 1.321 . S
C795 H781 0.901 1_556 S
C795 C797 1.425 . S
C795 C798 1.391 . S
C796 C792 1.429 . S
C796 N794 1.377 . S
C796 C799 1.411 . S
C797 H779 0.930 . S
C797 N794 1.321 . S
C797 C795 1.425 . S
C798 H793 0.930 1_556 S
C798 C795 1.391 . S
C798 C799 1.395 . S
C799 C796 1.411 . S
C799 C798 1.395 . S
C799 C821 1.420 1_545 S
O800 Eu756 2.558 . S
O800 C820 1.257 . S
O801 Eu756 2.612 . S
O801 Eu767 2.380 . S
O801 C812 1.276 . S
O802 Eu767 2.432 . S
O802 C819 1.264 . S
O803 Eu756 2.339 . S
O803 C819 1.254 . S
O804 Eu756 2.563 . S
O804 C812 1.235 . S
O805 Eu756 2.419 . S
O805 C820 1.249 . S
O806 Eu767 2.558 . S
O806 C831 1.257 . S
O807 Eu756 2.380 . S
O807 Eu767 2.612 . S
O807 C823 1.276 . S
O808 Eu756 2.432 . S
O808 C830 1.264 . S
O809 Eu767 2.339 . S
O809 C830 1.254 . S
O810 Eu767 2.563 . S
O810 C823 1.235 . S
O811 Eu767 2.419 . S
O811 C831 1.249 . S
C812 O801 1.276 . S
C812 O804 1.235 . S
C813 C815 1.393 . S
C813 C817 1.395 . S
C813 C820 1.492 . S
C814 C815 1.392 . S
C814 C816 1.386 . S
C815 C813 1.393 . S
C815 C814 1.392 . S
C815 H832 0.930 . S
C816 C814 1.386 . S
C816 C818 1.395 . S
C816 H833 0.930 . S
C817 C813 1.395 . S
C817 C818 1.379 . S
C817 H834 0.930 . S
C818 C816 1.395 . S
C818 C817 1.379 . S
C818 H835 0.930 . S
C819 O802 1.264 . S
C819 O803 1.254 . S
C820 Eu756 2.848 . S
C820 O800 1.257 . S
C820 O805 1.249 . S
C820 C813 1.492 . S
C821 H786 0.931 . S
C821 C799 1.420 1_565 S
C821 C822 1.351 . S
C822 H784 0.930 . S
C822 C790 1.435 . S
C822 C821 1.351 . S
C823 O807 1.276 . S
C823 O810 1.235 . S
C824 C825 1.393 . S
C824 C828 1.395 . S
C824 C831 1.492 . S
C825 C824 1.393 . S
C825 C826 1.392 . S
C825 H836 0.930 . S
C826 C825 1.392 . S
C826 C827 1.386 . S
C827 C826 1.386 . S
C827 C829 1.395 . S
C827 H837 0.930 . S
C828 C824 1.395 . S
C828 C829 1.379 . S
C828 H838 0.930 . S
C829 C827 1.395 . S
C829 C828 1.379 . S
C829 H839 0.930 . S
C830 O808 1.264 . S
C830 O809 1.254 . S
C831 Eu767 2.848 . S
C831 O806 1.257 . S
C831 O811 1.249 . S
C831 C824 1.492 . S
H832 C815 0.930 . S
H833 C816 0.930 . S
H834 C817 0.930 . S
H835 C818 0.930 . S
H836 C825 0.930 . S
H837 C827 0.930 . S
H838 C828 0.930 . S
H839 C829 0.930 . S
Eu840 N871 2.657 . S
Eu840 N878 2.609 . S
Eu840 O884 2.558 . S
Eu840 O885 2.612 . S
Eu840 O887 2.339 . S
Eu840 O888 2.563 . S
Eu840 O889 2.419 . S
Eu840 O891 2.380 . S
Eu840 O892 2.432 . S
Eu840 C904 2.848 . S
C841 C844 1.429 . S
C841 C845 1.411 . S
C841 N848 1.377 . S
C842 C844 1.420 . S
C842 C846 1.423 1_455 S
C842 C854 1.392 . S
C843 C845 1.420 1_655 S
C843 C846 1.351 . S
C843 H866 0.931 . S
C844 C841 1.429 . S
C844 C842 1.420 . S
C844 N852 1.362 . S
C845 C841 1.411 . S
C845 C843 1.420 1_455 S
C845 C850 1.395 . S
C846 C842 1.423 1_655 S
C846 C843 1.351 . S
C846 H858 0.930 . S
C847 C849 1.400 . S
C847 C850 1.386 . S
C847 H859 0.930 . S
N848 C841 1.377 . S
N848 C849 1.321 . S
N848 Eu851 2.609 . S
C849 C847 1.400 . S
C849 N848 1.321 . S
C849 H856 0.930 . S
C850 C845 1.395 . S
C850 C847 1.386 . S
C850 H869 0.930 . S
Eu851 N848 2.609 . S
Eu851 N852 2.657 . S
Eu851 O885 2.380 . S
Eu851 O886 2.432 . S
Eu851 O890 2.558 . S
Eu851 O891 2.612 . S
Eu851 O893 2.339 . S
Eu851 O894 2.563 . S
Eu851 O895 2.419 . S
Eu851 C915 2.848 . S
N852 C844 1.362 . S
N852 Eu851 2.657 . S
N852 C853 1.334 . S
C853 N852 1.334 . S
C853 C855 1.413 . S
C853 H860 0.929 . S
C854 C842 1.392 . S
C854 C855 1.367 . S
C854 H862 0.930 1_455 S
C855 C853 1.413 . S
C855 C854 1.367 . S
C855 H857 0.930 . S
H856 C849 0.930 . S
H857 C855 0.930 . S
H858 C846 0.930 . S
H859 C847 0.930 . S
H860 C853 0.929 . S
H861 C875 0.930 . S
H862 C854 0.930 1_655 S
H863 C881 0.930 . S
H864 C872 0.929 . S
H865 C879 0.930 . S
H866 C843 0.931 . S
H867 C873 0.930 . S
H868 C906 0.930 . S
H869 C850 0.930 . S
H870 C905 0.931 . S
N871 Eu840 2.657 . S
N871 C872 1.334 . S
N871 C876 1.362 . S
C872 H864 0.929 . S
C872 N871 1.334 . S
C872 C875 1.413 . S
C873 H867 0.930 . S
C873 C874 1.392 . S
C873 C875 1.367 . S
C874 C873 1.392 . S
C874 C876 1.420 . S
C874 C906 1.423 . S
C875 H861 0.930 . S
C875 C872 1.413 . S
C875 C873 1.367 . S
C876 N871 1.362 . S
C876 C874 1.420 . S
C876 C880 1.429 . S
H877 C882 0.930 . S
N878 Eu840 2.609 . S
N878 C880 1.377 . S
N878 C881 1.321 . S
C879 H865 0.930 . S
C879 C881 1.400 . S
C879 C882 1.386 . S
C880 C876 1.429 . S
C880 N878 1.377 . S
C880 C883 1.411 . S
C881 H863 0.930 . S
C881 N878 1.321 . S
C881 C879 1.400 . S
C882 H877 0.930 . S
C882 C879 1.386 . S
C882 C883 1.395 . S
C883 C880 1.411 . S
C883 C882 1.395 . S
C883 C905 1.420 . S
O884 Eu840 2.558 . S
O884 C904 1.257 . S
O885 Eu840 2.612 . S
O885 Eu851 2.380 . S
O885 C896 1.276 . S
O886 Eu851 2.432 . S
O886 C903 1.264 . S
O887 Eu840 2.339 . S
O887 C903 1.254 . S
O888 Eu840 2.563 . S
O888 C896 1.235 . S
O889 Eu840 2.419 . S
O889 C904 1.249 . S
O890 Eu851 2.558 . S
O890 C915 1.257 . S
O891 Eu840 2.380 . S
O891 Eu851 2.612 . S
O891 C907 1.276 . S
O892 Eu840 2.432 . S
O892 C914 1.264 . S
O893 Eu851 2.339 . S
O893 C914 1.254 . S
O894 Eu851 2.563 . S
O894 C907 1.235 . S
O895 Eu851 2.419 . S
O895 C915 1.249 . S
C896 O885 1.276 . S
C896 O888 1.235 . S
C897 C899 1.393 . S
C897 C901 1.395 . S
C897 C904 1.492 . S
C898 C899 1.392 . S
C898 C900 1.386 . S
C899 C897 1.393 . S
C899 C898 1.392 . S
C899 H916 0.930 . S
C900 C898 1.386 . S
C900 C902 1.395 . S
C900 H917 0.930 . S
C901 C897 1.395 . S
C901 C902 1.379 . S
C901 H918 0.930 . S
C902 C900 1.395 . S
C902 C901 1.379 . S
C902 H919 0.930 . S
C903 O886 1.264 . S
C903 O887 1.254 . S
C904 Eu840 2.848 . S
C904 O884 1.257 . S
C904 O889 1.249 . S
C904 C897 1.492 . S
C905 H870 0.931 . S
C905 C883 1.420 . S
C905 C906 1.351 . S
C906 H868 0.930 . S
C906 C874 1.423 . S
C906 C905 1.351 . S
C907 O891 1.276 . S
C907 O894 1.235 . S
C908 C909 1.393 . S
C908 C912 1.395 . S
C908 C915 1.492 1_655 S
C909 C908 1.393 . S
C909 C910 1.392 . S
C909 H920 0.930 . S
C910 C909 1.392 . S
C910 C911 1.386 . S
C911 C910 1.386 . S
C911 C913 1.395 . S
C911 H921 0.930 . S
C912 C908 1.395 . S
C912 C913 1.379 . S
C912 H922 0.930 . S
C913 C911 1.395 . S
C913 C912 1.379 . S
C913 H923 0.930 . S
C914 O892 1.264 . S
C914 O893 1.254 . S
C915 Eu851 2.848 . S
C915 O890 1.257 . S
C915 O895 1.249 . S
C915 C908 1.492 1_455 S
H916 C899 0.930 . S
H917 C900 0.930 . S
H918 C901 0.930 . S
H919 C902 0.930 . S
H920 C909 0.930 . S
H921 C911 0.930 . S
H922 C912 0.930 . S
H923 C913 0.930 . S
Eu924 N955 2.657 . S
Eu924 N962 2.609 . S
Eu924 O968 2.558 . S
Eu924 O969 2.612 . S
Eu924 O971 2.339 . S
Eu924 O972 2.563 . S
Eu924 O973 2.419 . S
Eu924 O975 2.380 . S
Eu924 O976 2.432 . S
Eu924 C988 2.848 . S
C925 C928 1.429 . S
C925 C929 1.411 . S
C925 N932 1.377 . S
C926 C928 1.420 . S
C926 C930 1.423 1_545 S
C926 C938 1.392 . S
C927 C929 1.420 1_565 S
C927 C930 1.351 . S
C927 H950 0.931 . S
C928 C925 1.429 . S
C928 C926 1.420 . S
C928 N936 1.362 . S
C929 C925 1.411 . S
C929 C927 1.420 1_545 S
C929 C934 1.395 . S
C930 C926 1.423 1_565 S
C930 C927 1.351 . S
C930 H942 0.930 . S
C931 C933 1.400 . S
C931 C934 1.386 . S
C931 H943 0.930 . S
N932 C925 1.377 . S
N932 C933 1.321 . S
N932 Eu935 2.609 . S
C933 C931 1.400 . S
C933 N932 1.321 . S
C933 H940 0.930 . S
C934 C929 1.395 . S
C934 C931 1.386 . S
C934 H953 0.930 . S
Eu935 N932 2.609 . S
Eu935 N936 2.657 . S
Eu935 O969 2.380 . S
Eu935 O970 2.432 . S
Eu935 O974 2.558 . S
Eu935 O975 2.612 . S
Eu935 O977 2.339 . S
Eu935 O978 2.563 . S
Eu935 O979 2.419 . S
Eu935 C999 2.848 . S
N936 C928 1.362 . S
N936 Eu935 2.657 . S
N936 C937 1.334 . S
C937 N936 1.334 . S
C937 C939 1.413 . S
C937 H944 0.929 . S
C938 C926 1.392 . S
C938 C939 1.367 . S
C938 H946 0.930 1_545 S
C939 C937 1.413 . S
C939 C938 1.367 . S
C939 H941 0.930 . S
H940 C933 0.930 . S
H941 C939 0.930 . S
H942 C930 0.930 . S
H943 C931 0.930 . S
H944 C937 0.929 . S
H945 C959 0.930 . S
H946 C938 0.930 1_565 S
H947 C965 0.930 . S
H948 C956 0.929 . S
H949 C963 0.901 1_554 S
H950 C927 0.931 . S
H951 C957 0.930 . S
H952 C990 0.930 . S
H953 C934 0.930 . S
H954 C989 0.931 . S
N955 Eu924 2.657 . S
N955 C956 1.334 . S
N955 C960 1.362 . S
C956 H948 0.929 . S
C956 N955 1.334 . S
C956 C959 1.413 . S
C957 H951 0.930 . S
C957 C958 1.399 . S
C957 C959 1.367 1_455 S
C958 C957 1.399 . S
C958 C960 1.402 1_455 S
C958 C990 1.433 . S
C959 H945 0.930 . S
C959 C956 1.413 . S
C959 C957 1.367 1_655 S
C960 N955 1.362 . S
C960 C958 1.402 1_655 S
C960 C964 1.429 . S
H961 C966 0.930 1_554 S
N962 Eu924 2.609 . S
N962 C964 1.377 . S
N962 C965 1.321 . S
C963 H949 0.901 1_556 S
C963 C965 1.425 . S
C963 C966 1.391 . S
C964 C960 1.429 . S
C964 N962 1.377 . S
C964 C967 1.411 . S
C965 H947 0.930 . S
C965 N962 1.321 . S
C965 C963 1.425 . S
C966 H961 0.930 1_556 S
C966 C963 1.391 . S
C966 C967 1.395 . S
C967 C964 1.411 . S
C967 C966 1.395 . S
C967 C989 1.420 1_655 S
O968 Eu924 2.558 . S
O968 C988 1.257 . S
O969 Eu924 2.612 . S
O969 Eu935 2.380 . S
O969 C980 1.276 . S
O970 Eu935 2.432 . S
O970 C987 1.264 . S
O971 Eu924 2.339 . S
O971 C987 1.254 . S
O972 Eu924 2.563 . S
O972 C980 1.235 . S
O973 Eu924 2.419 . S
O973 C988 1.249 . S
O974 Eu935 2.558 . S
O974 C999 1.257 . S
O975 Eu924 2.380 . S
O975 Eu935 2.612 . S
O975 C991 1.276 . S
O976 Eu924 2.432 . S
O976 C998 1.264 . S
O977 Eu935 2.339 . S
O977 C998 1.254 . S
O978 Eu935 2.563 . S
O978 C991 1.235 . S
O979 Eu935 2.419 . S
O979 C999 1.249 . S
C980 O969 1.276 . S
C980 O972 1.235 . S
C981 C983 1.393 . S
C981 C985 1.395 . S
C981 C988 1.492 . S
C982 C983 1.392 . S
C982 C984 1.386 . S
C983 C981 1.393 . S
C983 C982 1.392 . S
C983 H1000 0.930 . S
C984 C982 1.386 . S
C984 C986 1.395 . S
C984 H1001 0.930 . S
C985 C981 1.395 . S
C985 C986 1.379 . S
C985 H1002 0.930 . S
C986 C984 1.395 . S
C986 C985 1.379 . S
C986 H1003 0.930 . S
C987 O970 1.264 . S
C987 O971 1.254 . S
C988 Eu924 2.848 . S
C988 O968 1.257 . S
C988 O973 1.249 . S
C988 C981 1.492 . S
C989 H954 0.931 . S
C989 C967 1.420 1_455 S
C989 C990 1.351 . S
C990 H952 0.930 . S
C990 C958 1.433 . S
C990 C989 1.351 . S
C991 O975 1.276 . S
C991 O978 1.235 . S
C992 C993 1.393 . S
C992 C996 1.395 . S
C992 C999 1.492 1_565 S
C993 C992 1.393 . S
C993 C994 1.392 . S
C993 H1004 0.930 . S
C994 C993 1.392 . S
C994 C995 1.386 . S
C995 C994 1.386 . S
C995 C997 1.395 . S
C995 H1005 0.930 . S
C996 C992 1.395 . S
C996 C997 1.379 . S
C996 H1006 0.930 . S
C997 C995 1.395 . S
C997 C996 1.379 . S
C997 H1007 0.930 . S
C998 O976 1.264 . S
C998 O977 1.254 . S
C999 Eu935 2.848 . S
C999 O974 1.257 . S
C999 O979 1.249 . S
C999 C992 1.492 1_545 S
H1000 C983 0.930 . S
H1001 C984 0.930 . S
H1002 C985 0.930 . S
H1003 C986 0.930 . S
H1004 C993 0.930 . S
H1005 C995 0.930 . S
H1006 C996 0.930 . S
H1007 C997 0.930 . S
H1008 C1014 0.930 . S
H1009 C1017 0.930 . S
H1010 C1018 0.930 . S
H1011 C1019 0.930 . S
H1012 C1022 0.930 . S
H1013 C1023 0.930 . S
C1014 H1008 0.930 . S
C1014 C1015 1.355 . S
C1014 C1016 1.430 . S
C1015 C1014 1.355 . S
C1015 C1017 1.419 . S
C1016 C1014 1.430 . S
C1016 C1021 1.417 1_565 S
C1016 C1023 1.401 1_565 S
C1017 H1009 0.930 . S
C1017 C1015 1.419 . S
C1017 C1018 1.362 . S
C1018 H1010 0.930 . S
C1018 C1017 1.362 . S
C1018 C1021 1.409 1_565 S
C1019 H1011 0.930 . S
C1019 C1020 1.355 . S
C1019 C1021 1.415 . S
C1020 C1019 1.355 . S
C1020 C1022 1.419 . S
C1021 C1016 1.417 1_545 S
C1021 C1018 1.409 1_545 S
C1021 C1019 1.415 . S
C1022 H1012 0.930 . S
C1022 C1020 1.419 . S
C1022 C1023 1.362 . S
C1023 H1013 0.930 . S
C1023 C1016 1.401 1_545 S
C1023 C1022 1.362 . S
H1024 C1030 0.930 . S
H1025 C1033 0.930 . S
H1026 C1034 0.930 . S
H1027 C1035 0.930 . S
H1028 C1038 0.930 . S
H1029 C1039 0.930 . S
C1030 H1024 0.930 . S
C1030 C1031 1.355 . S
C1030 C1032 1.415 . S
C1031 C1030 1.355 . S
C1031 C1033 1.419 . S
C1032 C1030 1.415 . S
C1032 C1037 1.425 . S
C1032 C1039 1.409 . S
C1033 H1025 0.930 . S
C1033 C1031 1.419 . S
C1033 C1034 1.362 . S
C1034 H1026 0.930 . S
C1034 C1033 1.362 . S
C1034 C1037 1.409 . S
C1035 H1027 0.930 . S
C1035 C1036 1.355 . S
C1035 C1037 1.415 . S
C1036 C1035 1.355 . S
C1036 C1038 1.419 . S
C1037 C1032 1.425 . S
C1037 C1034 1.409 . S
C1037 C1035 1.415 . S
C1038 H1028 0.930 . S
C1038 C1036 1.419 . S
C1038 C1039 1.362 . S
C1039 H1029 0.930 . S
C1039 C1032 1.409 . S
C1039 C1038 1.362 . S
H1040 C1046 0.930 . S
H1041 C1049 0.930 . S
H1042 C1050 0.926 1_455 S
H1043 C1051 0.930 . S
H1044 C1054 0.930 . S
H1045 C1055 0.930 1_655 S
C1046 H1040 0.930 . S
C1046 C1047 1.355 . S
C1046 C1048 1.415 . S
C1047 C1046 1.355 . S
C1047 C1049 1.419 . S
C1048 C1046 1.415 . S
C1048 C1053 1.425 1_655 S
C1048 C1055 1.409 1_655 S
C1049 H1041 0.930 . S
C1049 C1047 1.419 . S
C1049 C1050 1.362 . S
C1050 H1042 0.926 1_655 S
C1050 C1049 1.362 . S
C1050 C1053 1.409 1_655 S
C1051 H1043 0.930 . S
C1051 C1052 1.355 . S
C1051 C1053 1.415 . S
C1052 C1051 1.355 . S
C1052 C1054 1.419 . S
C1053 C1048 1.425 1_455 S
C1053 C1050 1.409 1_455 S
C1053 C1051 1.415 . S
C1054 H1044 0.930 . S
C1054 C1052 1.419 . S
C1054 C1055 1.362 . S
C1055 H1045 0.930 1_455 S
C1055 C1048 1.409 1_455 S
C1055 C1054 1.362 . S
H1056 C1062 0.930 . S
H1057 C1065 0.930 . S
H1058 C1066 0.930 . S
H1059 C1067 0.930 . S
H1060 C1070 0.930 . S
H1061 C1071 0.930 . S
C1062 H1056 0.930 . S
C1062 C1063 1.355 . S
C1062 C1064 1.415 . S
C1063 C1062 1.355 . S
C1063 C1065 1.419 . S
C1064 C1062 1.415 . S
C1064 C1069 1.434 . S
C1064 C1071 1.409 1_565 S
C1065 H1057 0.930 . S
C1065 C1063 1.419 . S
C1065 C1066 1.362 . S
C1066 H1058 0.930 . S
C1066 C1065 1.362 . S
C1066 C1069 1.417 . S
C1067 H1059 0.930 . S
C1067 C1068 1.355 . S
C1067 C1069 1.399 1_545 S
C1068 C1067 1.355 . S
C1068 C1070 1.419 . S
C1069 C1064 1.434 . S
C1069 C1066 1.417 . S
C1069 C1067 1.399 1_565 S
C1070 H1060 0.930 . S
C1070 C1068 1.419 . S
C1070 C1071 1.362 . S
C1071 H1061 0.930 . S
C1071 C1064 1.409 1_545 S
C1071 C1070 1.362 . S
H1072 C1078 0.930 . S
H1073 C1081 0.930 . S
H1074 C1082 0.930 . S
H1075 C1083 0.930 . S
H1076 C1086 0.930 . S
H1077 C1087 0.930 . S
C1078 H1072 0.930 . S
C1078 C1079 1.355 . S
C1078 C1080 1.415 . S
C1079 C1078 1.355 . S
C1079 C1081 1.419 . S
C1080 C1078 1.415 . S
C1080 C1085 1.425 . S
C1080 C1087 1.409 . S
C1081 H1073 0.930 . S
C1081 C1079 1.419 . S
C1081 C1082 1.362 . S
C1082 H1074 0.930 . S
C1082 C1081 1.362 . S
C1082 C1085 1.409 . S
C1083 H1075 0.930 . S
C1083 C1084 1.355 . S
C1083 C1085 1.415 . S
C1084 C1083 1.355 . S
C1084 C1086 1.419 . S
C1085 C1080 1.425 . S
C1085 C1082 1.409 . S
C1085 C1083 1.415 . S
C1086 H1076 0.930 . S
C1086 C1084 1.419 . S
C1086 C1087 1.362 . S
C1087 H1077 0.930 . S
C1087 C1080 1.409 . S
C1087 C1086 1.362 . S
H1088 C1094 0.930 . S
H1089 C1097 0.930 . S
H1090 C1098 0.930 . S
H1091 C1099 0.930 . S
H1092 C1102 0.930 . S
H1093 C1103 0.930 . S
C1094 H1088 0.930 . S
C1094 C1095 1.355 . S
C1094 C1096 1.415 . S
C1095 C1094 1.355 . S
C1095 C1097 1.419 . S
C1096 C1094 1.415 . S
C1096 C1101 1.425 1_655 S
C1096 C1103 1.409 1_655 S
C1097 H1089 0.930 . S
C1097 C1095 1.419 . S
C1097 C1098 1.362 . S
C1098 H1090 0.930 . S
C1098 C1097 1.362 . S
C1098 C1101 1.409 1_655 S
C1099 H1091 0.930 . S
C1099 C1100 1.355 . S
C1099 C1101 1.415 . S
C1100 C1099 1.355 . S
C1100 C1102 1.419 . S
C1101 C1096 1.425 1_455 S
C1101 C1098 1.409 1_455 S
C1101 C1099 1.415 . S
C1102 H1092 0.930 . S
C1102 C1100 1.419 . S
C1102 C1103 1.362 . S
C1103 H1093 0.930 . S
C1103 C1096 1.409 1_455 S
C1103 C1102 1.362 . S
H1104 C1110 0.930 . S
H1105 C1113 0.930 . S
H1106 C1114 0.930 . S
H1107 C1115 0.930 . S
H1108 C1118 0.930 . S
H1109 C1119 0.930 . S
C1110 H1104 0.930 . S
C1110 C1111 1.355 . S
C1110 C1112 1.415 . S
C1111 C1110 1.355 . S
C1111 C1113 1.419 . S
C1112 C1110 1.415 . S
C1112 C1117 1.425 1_455 S
C1112 C1119 1.409 1_455 S
C1113 H1105 0.930 . S
C1113 C1111 1.419 . S
C1113 C1114 1.362 . S
C1114 H1106 0.930 . S
C1114 C1113 1.362 . S
C1114 C1117 1.409 1_455 S
C1115 H1107 0.930 . S
C1115 C1116 1.355 . S
C1115 C1117 1.415 . S
C1116 C1115 1.355 . S
C1116 C1118 1.419 . S
C1117 C1112 1.425 1_655 S
C1117 C1114 1.409 1_655 S
C1117 C1115 1.415 . S
C1118 H1108 0.930 . S
C1118 C1116 1.419 . S
C1118 C1119 1.362 . S
C1119 H1109 0.930 . S
C1119 C1112 1.409 1_655 S
C1119 C1118 1.362 . S
H1120 C1126 0.930 . S
H1121 C1129 0.930 . S
H1122 C1130 0.930 1_545 S
H1123 C1131 0.930 . S
H1124 C1134 0.930 . S
H1125 C1135 0.930 1_565 S
C1126 H1120 0.930 . S
C1126 C1127 1.355 . S
C1126 C1128 1.415 . S
C1127 C1126 1.355 . S
C1127 C1129 1.419 . S
C1128 C1126 1.415 . S
C1128 C1133 1.425 1_565 S
C1128 C1135 1.409 1_565 S
C1129 H1121 0.930 . S
C1129 C1127 1.419 . S
C1129 C1130 1.362 . S
C1130 H1122 0.930 1_565 S
C1130 C1129 1.362 . S
C1130 C1133 1.409 1_565 S
C1131 H1123 0.930 . S
C1131 C1132 1.355 . S
C1131 C1133 1.415 . S
C1132 C1131 1.355 . S
C1132 C1134 1.419 . S
C1133 C1128 1.425 1_545 S
C1133 C1130 1.409 1_545 S
C1133 C1131 1.415 . S
C1134 H1124 0.930 . S
C1134 C1132 1.419 . S
C1134 C1135 1.362 . S
C1135 H1125 0.930 1_545 S
C1135 C1128 1.409 1_545 S
C1135 C1134 1.362 . S
H1136 C1142 0.930 . S
H1137 C1145 0.930 . S
H1138 C1146 0.930 . S
H1139 C1147 0.930 . S
H1140 C1150 0.930 . S
H1141 C1151 0.930 . S
C1142 H1136 0.930 . S
C1142 C1143 1.355 . S
C1142 C1144 1.415 . S
C1143 C1142 1.355 . S
C1143 C1145 1.419 . S
C1144 C1142 1.415 . S
C1144 C1149 1.425 . S
C1144 C1151 1.409 . S
C1145 H1137 0.930 . S
C1145 C1143 1.419 . S
C1145 C1146 1.362 . S
C1146 H1138 0.930 . S
C1146 C1145 1.362 . S
C1146 C1149 1.409 . S
C1147 H1139 0.930 . S
C1147 C1148 1.355 . S
C1147 C1149 1.415 . S
C1148 C1147 1.355 . S
C1148 C1150 1.419 . S
C1149 C1144 1.425 . S
C1149 C1146 1.409 . S
C1149 C1147 1.415 . S
C1150 H1140 0.930 . S
C1150 C1148 1.419 . S
C1150 C1151 1.362 . S
C1151 H1141 0.930 . S
C1151 C1144 1.409 . S
C1151 C1150 1.362 . S
H1152 C1158 0.930 . S
H1153 C1161 0.930 . S
H1154 C1162 0.930 . S
H1155 C1163 0.930 . S
H1156 C1166 0.930 . S
H1157 C1167 0.930 . S
C1158 H1152 0.930 . S
C1158 C1159 1.355 . S
C1158 C1160 1.415 . S
C1159 C1158 1.355 . S
C1159 C1161 1.419 . S
C1160 C1158 1.415 . S
C1160 C1165 1.428 . S
C1160 C1167 1.409 1_455 S
C1161 H1153 0.930 . S
C1161 C1159 1.419 . S
C1161 C1162 1.362 . S
C1162 H1154 0.930 . S
C1162 C1161 1.362 . S
C1162 C1165 1.412 . S
C1163 H1155 0.930 . S
C1163 C1164 1.355 . S
C1163 C1165 1.409 1_655 S
C1164 C1163 1.355 . S
C1164 C1166 1.419 . S
C1165 C1160 1.428 . S
C1165 C1162 1.412 . S
C1165 C1163 1.409 1_455 S
C1166 H1156 0.930 . S
C1166 C1164 1.419 . S
C1166 C1167 1.362 . S
C1167 H1157 0.930 . S
C1167 C1160 1.409 1_655 S
C1167 C1166 1.362 . S
H1168 C1174 0.930 . S
H1169 C1177 0.930 . S
H1170 C1178 0.930 1_565 S
H1171 C1179 0.930 . S
H1172 C1182 0.930 . S
H1173 C1183 0.930 1_545 S
C1174 H1168 0.930 . S
C1174 C1175 1.355 . S
C1174 C1176 1.415 . S
C1175 C1174 1.355 . S
C1175 C1177 1.419 . S
C1176 C1174 1.415 . S
C1176 C1181 1.425 1_545 S
C1176 C1183 1.409 1_545 S
C1177 H1169 0.930 . S
C1177 C1175 1.419 . S
C1177 C1178 1.362 . S
C1178 H1170 0.930 1_545 S
C1178 C1177 1.362 . S
C1178 C1181 1.409 1_545 S
C1179 H1171 0.930 . S
C1179 C1180 1.355 . S
C1179 C1181 1.415 . S
C1180 C1179 1.355 . S
C1180 C1182 1.419 . S
C1181 C1176 1.425 1_565 S
C1181 C1178 1.409 1_565 S
C1181 C1179 1.415 . S
C1182 H1172 0.930 . S
C1182 C1180 1.419 . S
C1182 C1183 1.362 . S
C1183 H1173 0.930 1_565 S
C1183 C1176 1.409 1_565 S
C1183 C1182 1.362 . S
H1184 C1190 0.930 . S
H1185 C1193 0.930 . S
H1186 C1194 0.930 . S
H1187 C1195 0.930 . S
H1188 C1198 0.930 . S
H1189 C1199 0.930 . S
C1190 H1184 0.930 . S
C1190 C1191 1.355 . S
C1190 C1192 1.415 . S
C1191 C1190 1.355 . S
C1191 C1193 1.419 . S
C1192 C1190 1.415 . S
C1192 C1197 1.425 . S
C1192 C1199 1.409 . S
C1193 H1185 0.930 . S
C1193 C1191 1.419 . S
C1193 C1194 1.362 . S
C1194 H1186 0.930 . S
C1194 C1193 1.362 . S
C1194 C1197 1.409 . S
C1195 H1187 0.930 . S
C1195 C1196 1.355 . S
C1195 C1197 1.415 . S
C1196 C1195 1.355 . S
C1196 C1198 1.419 . S
C1197 C1192 1.425 . S
C1197 C1194 1.409 . S
C1197 C1195 1.415 . S
C1198 H1188 0.930 . S
C1198 C1196 1.419 . S
C1198 C1199 1.362 . S
C1199 H1189 0.930 . S
C1199 C1192 1.409 . S
C1199 C1198 1.362 . S
H1200 C1206 0.930 . S
H1201 C1209 0.930 . S
H1202 C1210 0.930 . S
H1203 C1211 0.930 . S
H1204 C1214 0.930 . S
H1205 C1215 0.930 . S
C1206 H1200 0.930 . S
C1206 C1207 1.355 . S
C1206 C1208 1.415 . S
C1207 C1206 1.355 . S
C1207 C1209 1.419 . S
C1208 C1206 1.415 . S
C1208 C1213 1.425 . S
C1208 C1215 1.409 . S
C1209 H1201 0.930 . S
C1209 C1207 1.419 . S
C1209 C1210 1.362 . S
C1210 H1202 0.930 . S
C1210 C1209 1.362 . S
C1210 C1213 1.409 . S
C1211 H1203 0.930 . S
C1211 C1212 1.355 . S
C1211 C1213 1.415 . S
C1212 C1211 1.355 . S
C1212 C1214 1.419 . S
C1213 C1208 1.425 . S
C1213 C1210 1.409 . S
C1213 C1211 1.415 . S
C1214 H1204 0.930 . S
C1214 C1212 1.419 . S
C1214 C1215 1.362 . S
C1215 H1205 0.930 . S
C1215 C1208 1.409 . S
C1215 C1214 1.362 . S
H1216 C1222 0.930 . S
H1217 C1225 0.930 . S
H1218 C1226 0.930 . S
H1219 C1227 0.930 . S
H1220 C1230 0.930 . S
H1221 C1231 0.930 . S
C1222 H1216 0.930 . S
C1222 C1223 1.355 . S
C1222 C1224 1.415 . S
C1223 C1222 1.355 . S
C1223 C1225 1.419 . S
C1224 C1222 1.415 . S
C1224 C1229 1.425 . S
C1224 C1231 1.409 . S
C1225 H1217 0.930 . S
C1225 C1223 1.419 . S
C1225 C1226 1.362 . S
C1226 H1218 0.930 . S
C1226 C1225 1.362 . S
C1226 C1229 1.409 . S
C1227 H1219 0.930 . S
C1227 C1228 1.355 . S
C1227 C1229 1.415 . S
C1228 C1227 1.355 . S
C1228 C1230 1.419 . S
C1229 C1224 1.425 . S
C1229 C1226 1.409 . S
C1229 C1227 1.415 . S
C1230 H1220 0.930 . S
C1230 C1228 1.419 . S
C1230 C1231 1.362 . S
C1231 H1221 0.930 . S
C1231 C1224 1.409 . S
C1231 C1230 1.362 . S
H1232 C1238 0.930 . S
H1233 C1241 0.930 . S
H1234 C1242 0.930 . S
H1235 C1243 0.930 . S
H1236 C1246 0.930 . S
H1237 C1247 0.930 . S
C1238 H1232 0.930 . S
C1238 C1239 1.355 . S
C1238 C1240 1.415 . S
C1239 C1238 1.355 . S
C1239 C1241 1.419 . S
C1240 C1238 1.415 . S
C1240 C1245 1.425 . S
C1240 C1247 1.409 . S
C1241 H1233 0.930 . S
C1241 C1239 1.419 . S
C1241 C1242 1.362 . S
C1242 H1234 0.930 . S
C1242 C1241 1.362 . S
C1242 C1245 1.409 . S
C1243 H1235 0.930 . S
C1243 C1244 1.355 . S
C1243 C1245 1.415 . S
C1244 C1243 1.355 . S
C1244 C1246 1.419 . S
C1245 C1240 1.425 . S
C1245 C1242 1.409 . S
C1245 C1243 1.415 . S
C1246 H1236 0.930 . S
C1246 C1244 1.419 . S
C1246 C1247 1.362 . S
C1247 H1237 0.930 . S
C1247 C1240 1.409 . S
C1247 C1246 1.362 . S
H1248 C1254 0.930 . S
H1249 C1257 0.930 . S
H1250 C1258 0.930 . S
H1251 C1259 0.930 . S
H1252 C1262 0.930 . S
H1253 C1263 0.930 . S
C1254 H1248 0.930 . S
C1254 C1255 1.355 . S
C1254 C1256 1.415 . S
C1255 C1254 1.355 . S
C1255 C1257 1.419 . S
C1256 C1254 1.415 . S
C1256 C1261 1.425 . S
C1256 C1263 1.409 . S
C1257 H1249 0.930 . S
C1257 C1255 1.419 . S
C1257 C1258 1.362 . S
C1258 H1250 0.930 . S
C1258 C1257 1.362 . S
C1258 C1261 1.409 . S
C1259 H1251 0.930 . S
C1259 C1260 1.355 . S
C1259 C1261 1.415 . S
C1260 C1259 1.355 . S
C1260 C1262 1.419 . S
C1261 C1256 1.425 . S
C1261 C1258 1.409 . S
C1261 C1259 1.415 . S
C1262 H1252 0.930 . S
C1262 C1260 1.419 . S
C1262 C1263 1.362 . S
C1263 H1253 0.930 . S
C1263 C1256 1.409 . S
C1263 C1262 1.362 . S
H1264 C1270 0.930 . S
H1265 C1273 0.930 . S
H1266 C1274 0.930 . S
H1267 C1275 0.930 . S
H1268 C1278 0.930 . S
H1269 C1279 0.930 . S
C1270 H1264 0.930 . S
C1270 C1271 1.355 . S
C1270 C1272 1.415 . S
C1271 C1270 1.355 . S
C1271 C1273 1.419 . S
C1272 C1270 1.415 . S
C1272 C1277 1.425 . S
C1272 C1279 1.409 . S
C1273 H1265 0.930 . S
C1273 C1271 1.419 . S
C1273 C1274 1.362 . S
C1274 H1266 0.930 . S
C1274 C1273 1.362 . S
C1274 C1277 1.409 . S
C1275 H1267 0.930 . S
C1275 C1276 1.355 . S
C1275 C1277 1.415 . S
C1276 C1275 1.355 . S
C1276 C1278 1.419 . S
C1277 C1272 1.425 . S
C1277 C1274 1.409 . S
C1277 C1275 1.415 . S
C1278 H1268 0.930 . S
C1278 C1276 1.419 . S
C1278 C1279 1.362 . S
C1279 H1269 0.930 . S
C1279 C1272 1.409 . S
C1279 C1278 1.362 . S
H1280 C1286 0.930 . S
H1281 C1289 0.930 . S
H1282 C1290 0.930 . S
H1283 C1291 0.930 . S
H1284 C1294 0.930 . S
H1285 C1295 0.930 . S
C1286 H1280 0.930 . S
C1286 C1287 1.355 . S
C1286 C1288 1.415 . S
C1287 C1286 1.355 . S
C1287 C1289 1.419 . S
C1288 C1286 1.415 . S
C1288 C1293 1.425 . S
C1288 C1295 1.409 . S
C1289 H1281 0.930 . S
C1289 C1287 1.419 . S
C1289 C1290 1.362 . S
C1290 H1282 0.930 . S
C1290 C1289 1.362 . S
C1290 C1293 1.409 . S
C1291 H1283 0.930 . S
C1291 C1292 1.355 . S
C1291 C1293 1.415 . S
C1292 C1291 1.355 . S
C1292 C1294 1.419 . S
C1293 C1288 1.425 . S
C1293 C1290 1.409 . S
C1293 C1291 1.415 . S
C1294 H1284 0.930 . S
C1294 C1292 1.419 . S
C1294 C1295 1.362 . S
C1295 H1285 0.930 . S
C1295 C1288 1.409 . S
C1295 C1294 1.362 . S
H1296 C1302 0.930 . S
H1297 C1305 0.930 . S
H1298 C1306 0.930 . S
H1299 C1307 0.930 . S
H1300 C1310 0.930 . S
H1301 C1311 0.930 . S
C1302 H1296 0.930 . S
C1302 C1303 1.355 . S
C1302 C1304 1.415 . S
C1303 C1302 1.355 . S
C1303 C1305 1.419 . S
C1304 C1302 1.415 . S
C1304 C1309 1.425 . S
C1304 C1311 1.409 . S
C1305 H1297 0.930 . S
C1305 C1303 1.419 . S
C1305 C1306 1.362 . S
C1306 H1298 0.930 . S
C1306 C1305 1.362 . S
C1306 C1309 1.409 . S
C1307 H1299 0.930 . S
C1307 C1308 1.355 . S
C1307 C1309 1.415 . S
C1308 C1307 1.355 . S
C1308 C1310 1.419 . S
C1309 C1304 1.425 . S
C1309 C1306 1.409 . S
C1309 C1307 1.415 . S
C1310 H1300 0.930 . S
C1310 C1308 1.419 . S
C1310 C1311 1.362 . S
C1311 H1301 0.930 . S
C1311 C1304 1.409 . S
C1311 C1310 1.362 . S
H1312 C1318 0.930 . S
H1313 C1321 0.930 . S
H1314 C1322 0.930 . S
H1315 C1323 0.930 . S
H1316 C1326 0.930 . S
H1317 C1327 0.930 . S
C1318 H1312 0.930 . S
C1318 C1319 1.355 . S
C1318 C1320 1.415 . S
C1319 C1318 1.355 . S
C1319 C1321 1.419 . S
C1320 C1318 1.415 . S
C1320 C1325 1.425 . S
C1320 C1327 1.409 . S
C1321 H1313 0.930 . S
C1321 C1319 1.419 . S
C1321 C1322 1.362 . S
C1322 H1314 0.930 . S
C1322 C1321 1.362 . S
C1322 C1325 1.409 . S
C1323 H1315 0.930 . S
C1323 C1324 1.355 . S
C1323 C1325 1.415 . S
C1324 C1323 1.355 . S
C1324 C1326 1.419 . S
C1325 C1320 1.425 . S
C1325 C1322 1.409 . S
C1325 C1323 1.415 . S
C1326 H1316 0.930 . S
C1326 C1324 1.419 . S
C1326 C1327 1.362 . S
C1327 H1317 0.930 . S
C1327 C1320 1.409 . S
C1327 C1326 1.362 . S
H1328 C1334 0.930 . S
H1329 C1337 0.930 . S
H1330 C1338 0.930 . S
H1331 C1339 0.930 . S
H1332 C1342 0.930 . S
H1333 C1343 0.930 . S
C1334 H1328 0.930 . S
C1334 C1335 1.355 . S
C1334 C1336 1.415 . S
C1335 C1334 1.355 . S
C1335 C1337 1.419 . S
C1336 C1334 1.415 . S
C1336 C1341 1.425 . S
C1336 C1343 1.409 . S
C1337 H1329 0.930 . S
C1337 C1335 1.419 . S
C1337 C1338 1.362 . S
C1338 H1330 0.930 . S
C1338 C1337 1.362 . S
C1338 C1341 1.409 . S
C1339 H1331 0.930 . S
C1339 C1340 1.355 . S
C1339 C1341 1.415 . S
C1340 C1339 1.355 . S
C1340 C1342 1.419 . S
C1341 C1336 1.425 . S
C1341 C1338 1.409 . S
C1341 C1339 1.415 . S
C1342 H1332 0.930 . S
C1342 C1340 1.419 . S
C1342 C1343 1.362 . S
C1343 H1333 0.930 . S
C1343 C1336 1.409 . S
C1343 C1342 1.362 . S
H1344 C1350 0.930 . S
H1345 C1353 0.930 . S
H1346 C1354 0.930 . S
H1347 C1355 0.930 . S
H1348 C1358 0.930 . S
H1349 C1359 0.930 . S
C1350 H1344 0.930 . S
C1350 C1351 1.355 . S
C1350 C1352 1.415 . S
C1351 C1350 1.355 . S
C1351 C1353 1.419 . S
C1352 C1350 1.415 . S
C1352 C1357 1.425 . S
C1352 C1359 1.409 . S
C1353 H1345 0.930 . S
C1353 C1351 1.419 . S
C1353 C1354 1.362 . S
C1354 H1346 0.930 . S
C1354 C1353 1.362 . S
C1354 C1357 1.409 . S
C1355 H1347 0.930 . S
C1355 C1356 1.355 . S
C1355 C1357 1.415 . S
C1356 C1355 1.355 . S
C1356 C1358 1.419 . S
C1357 C1352 1.425 . S
C1357 C1354 1.409 . S
C1357 C1355 1.415 . S
C1358 H1348 0.930 . S
C1358 C1356 1.419 . S
C1358 C1359 1.362 . S
C1359 H1349 0.930 . S
C1359 C1352 1.409 . S
C1359 C1358 1.362 . S
H1360 C1366 0.930 . S
H1361 C1369 0.930 . S
H1362 C1370 0.930 . S
H1363 C1371 0.930 . S
H1364 C1374 0.930 . S
H1365 C1375 0.930 . S
C1366 H1360 0.930 . S
C1366 C1367 1.355 . S
C1366 C1368 1.415 . S
C1367 C1366 1.355 . S
C1367 C1369 1.419 . S
C1368 C1366 1.415 . S
C1368 C1373 1.425 . S
C1368 C1375 1.409 . S
C1369 H1361 0.930 . S
C1369 C1367 1.419 . S
C1369 C1370 1.362 . S
C1370 H1362 0.930 . S
C1370 C1369 1.362 . S
C1370 C1373 1.409 . S
C1371 H1363 0.930 . S
C1371 C1372 1.355 . S
C1371 C1373 1.415 . S
C1372 C1371 1.355 . S
C1372 C1374 1.419 . S
C1373 C1368 1.425 . S
C1373 C1370 1.409 . S
C1373 C1371 1.415 . S
C1374 H1364 0.930 . S
C1374 C1372 1.419 . S
C1374 C1375 1.362 . S
C1375 H1365 0.930 . S
C1375 C1368 1.409 . S
C1375 C1374 1.362 . S
H1376 C1382 0.930 . S
H1377 C1385 0.930 . S
H1378 C1386 0.930 . S
H1379 C1387 0.930 . S
H1380 C1390 0.930 . S
H1381 C1391 0.930 . S
C1382 H1376 0.930 . S
C1382 C1383 1.355 . S
C1382 C1384 1.415 . S
C1383 C1382 1.355 . S
C1383 C1385 1.419 . S
C1384 C1382 1.415 . S
C1384 C1389 1.425 . S
C1384 C1391 1.409 . S
C1385 H1377 0.930 . S
C1385 C1383 1.419 . S
C1385 C1386 1.362 . S
C1386 H1378 0.930 . S
C1386 C1385 1.362 . S
C1386 C1389 1.409 . S
C1387 H1379 0.930 . S
C1387 C1388 1.355 . S
C1387 C1389 1.415 . S
C1388 C1387 1.355 . S
C1388 C1390 1.419 . S
C1389 C1384 1.425 . S
C1389 C1386 1.409 . S
C1389 C1387 1.415 . S
C1390 H1380 0.930 . S
C1390 C1388 1.419 . S
C1390 C1391 1.362 . S
C1391 H1381 0.930 . S
C1391 C1384 1.409 . S
C1391 C1390 1.362 . S
H1392 C1398 0.930 . S
H1393 C1401 0.930 . S
H1394 C1402 0.930 . S
H1395 C1403 0.930 . S
H1396 C1406 0.930 . S
H1397 C1407 0.930 . S
C1398 H1392 0.930 . S
C1398 C1399 1.355 . S
C1398 C1400 1.415 . S
C1399 C1398 1.355 . S
C1399 C1401 1.419 . S
C1400 C1398 1.415 . S
C1400 C1405 1.425 . S
C1400 C1407 1.409 . S
C1401 H1393 0.930 . S
C1401 C1399 1.419 . S
C1401 C1402 1.362 . S
C1402 H1394 0.930 . S
C1402 C1401 1.362 . S
C1402 C1405 1.409 . S
C1403 H1395 0.930 . S
C1403 C1404 1.355 . S
C1403 C1405 1.415 . S
C1404 C1403 1.355 . S
C1404 C1406 1.419 . S
C1405 C1400 1.425 . S
C1405 C1402 1.409 . S
C1405 C1403 1.415 . S
C1406 H1396 0.930 . S
C1406 C1404 1.419 . S
C1406 C1407 1.362 . S
C1407 H1397 0.930 . S
C1407 C1400 1.409 . S
C1407 C1406 1.362 . S
H1408 C1414 0.930 . S
H1409 C1417 0.930 . S
H1410 C1418 0.930 . S
H1411 C1419 0.930 . S
H1412 C1422 0.930 . S
H1413 C1423 0.930 . S
C1414 H1408 0.930 . S
C1414 C1415 1.355 . S
C1414 C1416 1.415 . S
C1415 C1414 1.355 . S
C1415 C1417 1.419 . S
C1416 C1414 1.415 . S
C1416 C1421 1.425 . S
C1416 C1423 1.409 . S
C1417 H1409 0.930 . S
C1417 C1415 1.419 . S
C1417 C1418 1.362 . S
C1418 H1410 0.930 . S
C1418 C1417 1.362 . S
C1418 C1421 1.409 . S
C1419 H1411 0.930 . S
C1419 C1420 1.355 . S
C1419 C1421 1.415 . S
C1420 C1419 1.355 . S
C1420 C1422 1.419 . S
C1421 C1416 1.425 . S
C1421 C1418 1.409 . S
C1421 C1419 1.415 . S
C1422 H1412 0.930 . S
C1422 C1420 1.419 . S
C1422 C1423 1.362 . S
C1423 H1413 0.930 . S
C1423 C1416 1.409 . S
C1423 C1422 1.362 . S
H1424 C1430 0.930 . S
H1425 C1433 0.930 . S
H1426 C1434 0.930 . S
H1427 C1435 0.930 . S
H1428 C1438 0.930 . S
H1429 C1439 0.930 . S
C1430 H1424 0.930 . S
C1430 C1431 1.355 . S
C1430 C1432 1.415 . S
C1431 C1430 1.355 . S
C1431 C1433 1.419 . S
C1432 C1430 1.415 . S
C1432 C1437 1.425 . S
C1432 C1439 1.409 . S
C1433 H1425 0.930 . S
C1433 C1431 1.419 . S
C1433 C1434 1.362 . S
C1434 H1426 0.930 . S
C1434 C1433 1.362 . S
C1434 C1437 1.409 . S
C1435 H1427 0.930 . S
C1435 C1436 1.355 . S
C1435 C1437 1.415 . S
C1436 C1435 1.355 . S
C1436 C1438 1.419 . S
C1437 C1432 1.425 . S
C1437 C1434 1.409 . S
C1437 C1435 1.415 . S
C1438 H1428 0.930 . S
C1438 C1436 1.419 . S
C1438 C1439 1.362 . S
C1439 H1429 0.930 . S
C1439 C1432 1.409 . S
C1439 C1438 1.362 . S
H1440 C1446 0.930 . S
H1441 C1449 0.930 . S
H1442 C1450 0.930 . S
H1443 C1451 0.930 . S
H1444 C1454 0.930 . S
H1445 C1455 0.930 . S
C1446 H1440 0.930 . S
C1446 C1447 1.355 . S
C1446 C1448 1.415 . S
C1447 C1446 1.355 . S
C1447 C1449 1.419 . S
C1448 C1446 1.415 . S
C1448 C1453 1.425 . S
C1448 C1455 1.409 . S
C1449 H1441 0.930 . S
C1449 C1447 1.419 . S
C1449 C1450 1.362 . S
C1450 H1442 0.930 . S
C1450 C1449 1.362 . S
C1450 C1453 1.409 . S
C1451 H1443 0.930 . S
C1451 C1452 1.355 . S
C1451 C1453 1.415 . S
C1452 C1451 1.355 . S
C1452 C1454 1.419 . S
C1453 C1448 1.425 . S
C1453 C1450 1.409 . S
C1453 C1451 1.415 . S
C1454 H1444 0.930 . S
C1454 C1452 1.419 . S
C1454 C1455 1.362 . S
C1455 H1445 0.930 . S
C1455 C1448 1.409 . S
C1455 C1454 1.362 . S
H1456 C1462 0.930 . S
H1457 C1465 0.930 . S
H1458 C1466 0.930 . S
H1459 C1467 0.930 . S
H1460 C1470 0.930 . S
H1461 C1471 0.930 . S
C1462 H1456 0.930 . S
C1462 C1463 1.355 . S
C1462 C1464 1.415 . S
C1463 C1462 1.355 . S
C1463 C1465 1.419 . S
C1464 C1462 1.415 . S
C1464 C1469 1.425 . S
C1464 C1471 1.409 . S
C1465 H1457 0.930 . S
C1465 C1463 1.419 . S
C1465 C1466 1.362 . S
C1466 H1458 0.930 . S
C1466 C1465 1.362 . S
C1466 C1469 1.409 . S
C1467 H1459 0.930 . S
C1467 C1468 1.355 . S
C1467 C1469 1.415 . S
C1468 C1467 1.355 . S
C1468 C1470 1.419 . S
C1469 C1464 1.425 . S
C1469 C1466 1.409 . S
C1469 C1467 1.415 . S
C1470 H1460 0.930 . S
C1470 C1468 1.419 . S
C1470 C1471 1.362 . S
C1471 H1461 0.930 . S
C1471 C1464 1.409 . S
C1471 C1470 1.362 . S
H1472 C1478 0.930 . S
H1473 C1481 0.930 . S
H1474 C1482 0.930 . S
H1475 C1483 0.930 . S
H1476 C1486 0.930 . S
H1477 C1487 0.930 . S
C1478 H1472 0.930 . S
C1478 C1479 1.355 . S
C1478 C1480 1.415 . S
C1479 C1478 1.355 . S
C1479 C1481 1.419 . S
C1480 C1478 1.415 . S
C1480 C1485 1.425 . S
C1480 C1487 1.409 . S
C1481 H1473 0.930 . S
C1481 C1479 1.419 . S
C1481 C1482 1.362 . S
C1482 H1474 0.930 . S
C1482 C1481 1.362 . S
C1482 C1485 1.409 . S
C1483 H1475 0.930 . S
C1483 C1484 1.355 . S
C1483 C1485 1.415 . S
C1484 C1483 1.355 . S
C1484 C1486 1.419 . S
C1485 C1480 1.425 . S
C1485 C1482 1.409 . S
C1485 C1483 1.415 . S
C1486 H1476 0.930 . S
C1486 C1484 1.419 . S
C1486 C1487 1.362 . S
C1487 H1477 0.930 . S
C1487 C1480 1.409 . S
C1487 C1486 1.362 . S
H1488 C1494 0.930 . S
H1489 C1497 0.930 . S
H1490 C1498 0.930 . S
H1491 C1499 0.930 . S
H1492 C1502 0.930 . S
H1493 C1503 0.930 . S
C1494 H1488 0.930 . S
C1494 C1495 1.355 . S
C1494 C1496 1.415 . S
C1495 C1494 1.355 . S
C1495 C1497 1.419 . S
C1496 C1494 1.415 . S
C1496 C1501 1.425 1_556 S
C1496 C1503 1.409 . S
C1497 H1489 0.930 . S
C1497 C1495 1.419 . S
C1497 C1498 1.362 1_556 S
C1498 H1490 0.930 . S
C1498 C1497 1.362 1_554 S
C1498 C1501 1.409 . S
C1499 H1491 0.930 . S
C1499 C1500 1.355 . S
C1499 C1501 1.415 . S
C1500 C1499 1.355 . S
C1500 C1502 1.419 . S
C1501 C1496 1.425 1_554 S
C1501 C1498 1.409 . S
C1501 C1499 1.415 . S
C1502 H1492 0.930 . S
C1502 C1500 1.419 . S
C1502 C1503 1.362 1_554 S
C1503 H1493 0.930 . S
C1503 C1496 1.409 . S
C1503 C1502 1.362 1_556 S
H1504 C1510 0.930 . S
H1505 C1513 0.930 . S
H1506 C1514 0.930 . S
H1507 C1515 0.930 . S
H1508 C1518 0.930 . S
H1509 C1519 0.930 . S
C1510 H1504 0.930 . S
C1510 C1511 1.355 . S
C1510 C1512 1.415 . S
C1511 C1510 1.355 . S
C1511 C1513 1.419 . S
C1512 C1510 1.415 . S
C1512 C1517 1.425 1_455 S
C1512 C1519 1.409 1_455 S
C1513 H1505 0.930 . S
C1513 C1511 1.419 . S
C1513 C1514 1.362 . S
C1514 H1506 0.930 . S
C1514 C1513 1.362 . S
C1514 C1517 1.409 1_455 S
C1515 H1507 0.930 . S
C1515 C1516 1.355 . S
C1515 C1517 1.415 . S
C1516 C1515 1.355 . S
C1516 C1518 1.419 . S
C1517 C1512 1.425 1_655 S
C1517 C1514 1.409 1_655 S
C1517 C1515 1.415 . S
C1518 H1508 0.930 . S
C1518 C1516 1.419 . S
C1518 C1519 1.362 . S
C1519 H1509 0.930 . S
C1519 C1512 1.409 1_655 S
C1519 C1518 1.362 . S
H1520 C1526 0.930 . S
H1521 C1529 0.930 1_556 S
H1522 C1530 0.930 . S
H1523 C1531 0.930 . S
H1524 C1534 0.930 1_554 S
H1525 C1535 0.930 . S
C1526 H1520 0.930 . S
C1526 C1527 1.355 . S
C1526 C1528 1.415 1_565 S
C1527 C1526 1.355 . S
C1527 C1529 1.419 . S
C1528 C1526 1.415 1_545 S
C1528 C1533 1.425 1_544 S
C1528 C1535 1.409 . S
C1529 H1521 0.930 1_554 S
C1529 C1527 1.419 . S
C1529 C1530 1.362 1_554 S
C1530 H1522 0.930 . S
C1530 C1529 1.362 1_556 S
C1530 C1533 1.409 . S
C1531 H1523 0.930 . S
C1531 C1532 1.355 . S
C1531 C1533 1.415 1_545 S
C1532 C1531 1.355 . S
C1532 C1534 1.419 . S
C1533 C1528 1.425 1_566 S
C1533 C1530 1.409 . S
C1533 C1531 1.415 1_565 S
C1534 H1524 0.930 1_556 S
C1534 C1532 1.419 . S
C1534 C1535 1.362 1_556 S
C1535 H1525 0.930 . S
C1535 C1528 1.409 . S
C1535 C1534 1.362 1_554 S
H1536 C1542 0.930 . S
H1537 C1545 0.930 . S
H1538 C1546 0.930 . S
H1539 C1547 0.930 . S
H1540 C1550 0.930 . S
H1541 C1551 0.930 . S
C1542 H1536 0.930 . S
C1542 C1543 1.355 . S
C1542 C1544 1.415 . S
C1543 C1542 1.355 . S
C1543 C1545 1.419 . S
C1544 C1542 1.415 . S
C1544 C1549 1.425 . S
C1544 C1551 1.409 . S
C1545 H1537 0.930 . S
C1545 C1543 1.419 . S
C1545 C1546 1.362 . S
C1546 H1538 0.930 . S
C1546 C1545 1.362 . S
C1546 C1549 1.409 . S
C1547 H1539 0.930 . S
C1547 C1548 1.355 . S
C1547 C1549 1.415 . S
C1548 C1547 1.355 . S
C1548 C1550 1.419 . S
C1549 C1544 1.425 . S
C1549 C1546 1.409 . S
C1549 C1547 1.415 . S
C1550 H1540 0.930 . S
C1550 C1548 1.419 . S
C1550 C1551 1.362 . S
C1551 H1541 0.930 . S
C1551 C1544 1.409 . S
C1551 C1550 1.362 . S
H1552 C1558 0.930 . S
H1553 C1561 0.930 . S
H1554 C1562 0.930 1_455 S
H1555 C1563 0.930 . S
H1556 C1566 0.930 . S
H1557 C1567 0.930 1_655 S
C1558 H1552 0.930 . S
C1558 C1559 1.355 . S
C1558 C1560 1.415 1_556 S
C1559 C1558 1.355 . S
C1559 C1561 1.419 . S
C1560 C1558 1.415 1_554 S
C1560 C1565 1.425 1_654 S
C1560 C1567 1.409 1_655 S
C1561 H1553 0.930 . S
C1561 C1559 1.419 . S
C1561 C1562 1.362 . S
C1562 H1554 0.930 1_655 S
C1562 C1561 1.362 . S
C1562 C1565 1.409 1_655 S
C1563 H1555 0.930 . S
C1563 C1564 1.355 . S
C1563 C1565 1.415 1_554 S
C1564 C1563 1.355 . S
C1564 C1566 1.419 . S
C1565 C1560 1.425 1_456 S
C1565 C1562 1.409 1_455 S
C1565 C1563 1.415 1_556 S
C1566 H1556 0.930 . S
C1566 C1564 1.419 . S
C1566 C1567 1.362 . S
C1567 H1557 0.930 1_455 S
C1567 C1560 1.409 1_455 S
C1567 C1566 1.362 . S
H1568 C1574 0.930 . S
H1569 C1577 0.930 . S
H1570 C1578 0.930 . S
H1571 C1579 0.930 . S
H1572 C1582 0.930 . S
H1573 C1583 0.930 . S
C1574 H1568 0.930 . S
C1574 C1575 1.355 . S
C1574 C1576 1.415 . S
C1575 C1574 1.355 . S
C1575 C1577 1.419 . S
C1576 C1574 1.415 . S
C1576 C1581 1.425 1_565 S
C1576 C1583 1.409 . S
C1577 H1569 0.930 . S
C1577 C1575 1.419 . S
C1577 C1578 1.362 1_565 S
C1578 H1570 0.930 . S
C1578 C1577 1.362 1_545 S
C1578 C1581 1.409 . S
C1579 H1571 0.930 . S
C1579 C1580 1.355 . S
C1579 C1581 1.415 . S
C1580 C1579 1.355 . S
C1580 C1582 1.419 . S
C1581 C1576 1.425 1_545 S
C1581 C1578 1.409 . S
C1581 C1579 1.415 . S
C1582 H1572 0.930 . S
C1582 C1580 1.419 . S
C1582 C1583 1.362 1_545 S
C1583 H1573 0.930 . S
C1583 C1576 1.409 . S
C1583 C1582 1.362 1_565 S
C1015 C403 1.350 . S
C1020 C70 1.259 . S
C1031 C487 1.387 . S
C1036 C154 1.275 . S
C1047 C238 1.342 . S
C1052 C67 1.334 . S
C1063 C322 1.238 . S
C1068 C151 1.366 . S
C1079 C406 1.289 . S
C1084 C235 1.332 . S
C1095 C319 1.321 . S
C1100 C490 1.342 . S
C1111 C739 1.379 . S
C1116 C574 1.227 . S
C1127 C658 1.310 . S
C1132 C823 1.367 . S
C1143 C907 1.333 . S
C1148 C742 1.286 . S
C1159 C826 1.235 . S
C1164 C991 1.369 . S
C1175 C910 1.295 . S
C1180 C571 1.377 . S
C1191 C655 1.393 . S
C1196 C994 1.262 . S
C1207 C392 1.374 . S
C1212 C58 1.294 . S
C1223 C142 1.351 . S
C1228 C476 1.349 . S
C1239 C226 1.331 . S
C1244 C56 1.353 . S
C1255 C310 1.326 . S
C1260 C140 1.355 . S
C1271 C224 1.372 . S
C1276 C394 1.297 . S
C1287 C308 1.394 . S
C1292 C478 1.393 . S
C1303 C728 1.413 . S
C1308 C562 1.383 . S
C1319 C646 1.366 . S
C1324 C812 1.349 . S
C1335 C730 1.334 . S
C1340 C896 1.352 . S
C1351 C980 1.441 . S
C1356 C814 1.282 . S
C1367 C898 1.390 . S
C1372 C560 1.402 . S
C1383 C644 1.364 . S
C1388 C982 1.390 . S
C1399 C903 1.870 . S
C1404 C63 1.866 . S
C1415 C147 1.853 . S
C1420 C987 1.909 . S
C1431 C231 1.911 . S
C1436 C567 1.845 . S
C1447 C315 1.843 . S
C1452 C651 1.900 . S
C1463 C399 1.871 . S
C1468 C735 1.897 . S
C1479 C819 1.910 . S
C1484 C483 1.842 . S
C1495 C830 2.020 . S
C1500 C74 2.070 . S
C1511 C914 2.011 . S
C1516 C158 2.058 . S
C1527 C242 2.071 . S
C1532 C998 2.056 . S
C1543 C326 2.074 . S
C1548 C578 2.049 . S
C1559 C662 2.009 . S
C1564 C410 2.049 . S
C1575 C746 2.018 . S
C1580 C494 2.022 . S
