# Generated by pormake.
# Topology snl, (6)-cn, num edge types: 1
# Building blocks:
#     Node 0, Type 0, BuildingBlock: MIFKUJ_clean_sbu_0, # of connection points: 6
#     Node 1, Type 0, BuildingBlock: MIFKUJ_clean_sbu_0, # of connection points: 6
#     Node 2, Type 0, BuildingBlock: MIFKUJ_clean_sbu_0, # of connection points: 6
#     Node 3, Type 0, BuildingBlock: MIFKUJ_clean_sbu_0, # of connection points: 6
#     Node 4, Type 0, BuildingBlock: MIFKUJ_clean_sbu_0, # of connection points: 6
#     Node 5, Type 0, BuildingBlock: MIFKUJ_clean_sbu_0, # of connection points: 6
#     Node 6, Type 0, BuildingBlock: MIFKUJ_clean_sbu_0, # of connection points: 6
#     Node 7, Type 0, BuildingBlock: MIFKUJ_clean_sbu_0, # of connection points: 6
#     Node 8, Type 0, BuildingBlock: MIFKUJ_clean_sbu_0, # of connection points: 6
#     Node 9, Type 0, BuildingBlock: MIFKUJ_clean_sbu_0, # of connection points: 6
#     Node 10, Type 0, BuildingBlock: MIFKUJ_clean_sbu_0, # of connection points: 6
#     Node 11, Type 0, BuildingBlock: MIFKUJ_clean_sbu_0, # of connection points: 6
#     Node 12, Type 0, BuildingBlock: MIFKUJ_clean_sbu_0, # of connection points: 6
#     Node 13, Type 0, BuildingBlock: MIFKUJ_clean_sbu_0, # of connection points: 6
#     Node 14, Type 0, BuildingBlock: MIFKUJ_clean_sbu_0, # of connection points: 6
#     Node 15, Type 0, BuildingBlock: MIFKUJ_clean_sbu_0, # of connection points: 6
#     Edge 16, Type (0, 0), None
#     Edge 17, Type (0, 0), None
#     Edge 18, Type (0, 0), None
#     Edge 19, Type (0, 0), None
#     Edge 20, Type (0, 0), None
#     Edge 21, Type (0, 0), None
#     Edge 22, Type (0, 0), None
#     Edge 23, Type (0, 0), None
#     Edge 24, Type (0, 0), None
#     Edge 25, Type (0, 0), None
#     Edge 26, Type (0, 0), None
#     Edge 27, Type (0, 0), None
#     Edge 28, Type (0, 0), None
#     Edge 29, Type (0, 0), None
#     Edge 30, Type (0, 0), None
#     Edge 31, Type (0, 0), None
#     Edge 32, Type (0, 0), None
#     Edge 33, Type (0, 0), None
#     Edge 34, Type (0, 0), None
#     Edge 35, Type (0, 0), None
#     Edge 36, Type (0, 0), None
#     Edge 37, Type (0, 0), None
#     Edge 38, Type (0, 0), None
#     Edge 39, Type (0, 0), None
#     Edge 40, Type (0, 0), None
#     Edge 41, Type (0, 0), None
#     Edge 42, Type (0, 0), None
#     Edge 43, Type (0, 0), None
#     Edge 44, Type (0, 0), None
#     Edge 45, Type (0, 0), None
#     Edge 46, Type (0, 0), None
#     Edge 47, Type (0, 0), None
#     Edge 48, Type (0, 0), None
#     Edge 49, Type (0, 0), None
#     Edge 50, Type (0, 0), None
#     Edge 51, Type (0, 0), None
#     Edge 52, Type (0, 0), None
#     Edge 53, Type (0, 0), None
#     Edge 54, Type (0, 0), None
#     Edge 55, Type (0, 0), None
#     Edge 56, Type (0, 0), None
#     Edge 57, Type (0, 0), None
#     Edge 58, Type (0, 0), None
#     Edge 59, Type (0, 0), None
#     Edge 60, Type (0, 0), None
#     Edge 61, Type (0, 0), None
#     Edge 62, Type (0, 0), None
#     Edge 63, Type (0, 0), None
# Relax obj value: 0.141
# Max RMSD: 0.194
# Mean RMSD: 0.172
data_MOF--net-snl--node1-MIFKUJ_clean_sbu_0--edge1-none
_symmetry_space_group_name_H-M    P1
_symmetry_Int_Tables_number       1
_symmetry_cell_setting            triclinic
loop_
_symmetry_equiv_pos_as_xyz
'x, y, z'
_cell_length_a     27.488185
_cell_length_b     29.432514
_cell_length_c     10.317222
_cell_angle_alpha  88.626032
_cell_angle_beta   91.309141
_cell_angle_gamma 90.057582
loop_
_atom_site_label
_atom_site_type_symbol
_atom_site_fract_x
_atom_site_fract_y
_atom_site_fract_z
_atom_type_partial_charge
Zn0 Zn 0.12629 0.60894 0.31269 0.0
Zn1 Zn 0.11093 0.63391 0.00034 0.0
C2 C 0.22662 0.59911 0.38649 0.0
O3 O 0.20663 0.57151 0.47177 0.0
C4 C 1.0064 0.64342 0.95059 0.0
O5 O 0.02094 0.66552 0.84647 0.0
O6 O 0.11118 0.59722 0.50281 0.0
O7 O 0.091 0.66759 0.26605 0.0
O8 O 0.137 0.68742 0.1029 0.0
C9 C 0.11943 0.62765 0.58627 0.0
O10 O 0.13731 0.66709 0.54881 0.0
O11 O 0.1996 0.61984 0.30269 0.0
C12 C 0.11094 0.61815 0.72448 0.0
O13 O 0.0943 0.57826 0.76221 0.0
O14 O 0.12034 0.64812 0.80853 0.0
O15 O 0.14392 0.57305 0.03008 0.0
O16 O 0.11132 0.55098 0.21526 0.0
O17 O 0.03788 0.62705 0.03128 0.0
C18 C 0.11493 0.69779 0.205 0.0
C19 C 0.13162 0.54165 0.10948 0.0
Zn20 Zn 0.60591 0.92593 0.53949 0.0
Zn21 Zn 0.60105 0.84436 0.20081 0.0
C22 C 0.61027 0.01243 0.65069 0.0
O23 O 0.58552 0.98951 0.73785 0.0
C24 C 0.59455 0.7453 0.17524 0.0
O25 O 0.58494 0.75414 0.05194 0.0
O26 O 0.6232 0.89453 0.71201 0.0
O27 O 0.53383 0.91852 0.4859 0.0
O28 O 0.55674 0.87832 0.32177 0.0
C29 C 0.59253 0.88151 0.79558 0.0
O30 O 0.54579 0.88671 0.77067 0.0
O31 O 0.62366 0.99251 0.54978 0.0
C32 C 0.60968 0.86535 0.92464 0.0
O33 O 0.65654 0.86305 0.95152 0.0
O34 O 0.57944 0.85741 0.01388 0.0
O35 O 0.67172 0.86349 0.23369 0.0
O36 O 0.64301 0.89784 0.39868 0.0
O37 O 0.60044 0.77775 0.25275 0.0
C38 C 0.52279 0.8969 0.38342 0.0
C39 C 0.67957 0.88603 0.33546 0.0
Zn40 Zn 0.38774 0.39223 0.81884 0.0
Zn41 Zn 0.41525 0.37016 0.5018 0.0
C42 C 0.2886 0.3981 0.90198 0.0
O43 O 0.30916 0.42899 0.97485 0.0
C44 C 0.52063 0.36423 0.46668 0.0
O45 O 0.50698 0.34189 0.36344 0.0
O46 O 0.4073 0.40607 0.00293 0.0
O47 O 0.42645 0.3358 0.7816 0.0
O48 O 0.38814 0.31627 0.60229 0.0
C49 C 0.40353 0.375 0.08972 0.0
O50 O 0.38773 0.33458 0.05755 0.0
O51 O 0.31447 0.37731 0.82125 0.0
C52 C 0.41363 0.38501 0.22598 0.0
O53 O 0.42769 0.4259 0.25873 0.0
O54 O 0.40687 0.3547 0.3135 0.0
O55 O 0.38107 0.43033 0.51302 0.0
O56 O 0.39795 0.45063 0.71474 0.0
O57 O 0.48841 0.37878 0.54242 0.0
C58 C 0.4073 0.30549 0.71165 0.0
C59 C 0.38595 0.46064 0.59778 0.0
Zn60 Zn 0.87156 0.0997 0.1121 0.0
Zn61 Zn 0.87378 0.16235 0.78696 0.0
C62 C 0.86776 0.00583 0.1587 0.0
O63 O 0.8322 0.02113 0.22844 0.0
C64 C 0.90294 0.25636 0.78083 0.0
O65 O 0.9268 0.2429 0.67987 0.0
O66 O 0.8602 0.10529 0.30504 0.0
O67 O 0.92525 0.14332 0.0621 0.0
O68 O 0.93465 0.12871 0.85533 0.0
C69 C 0.87377 0.13743 0.37741 0.0
O70 O 0.8972 0.1724 0.32785 0.0
O71 O 0.89239 0.0339 0.0911 0.0
C72 C 0.86505 0.13418 0.51736 0.0
O73 O 0.84359 0.09815 0.56729 0.0
O74 O 0.87996 0.16537 0.59133 0.0
O75 O 0.80534 0.1391 0.82623 0.0
O76 O 0.80643 0.10677 0.02336 0.0
O77 O 0.87805 0.22771 0.84571 0.0
C78 C 0.95264 0.13543 0.96787 0.0
C79 C 0.78373 0.11986 0.92068 0.0
Zn80 Zn 0.1593 0.39743 0.1383 0.0
Zn81 Zn 0.14426 0.33856 0.80321 0.0
C82 C 0.1443 0.49429 0.08129 0.0
O83 O 0.16936 0.48563 0.97791 0.0
C84 C 0.12431 0.24333 0.74346 0.0
O85 O 0.10311 0.26146 0.63933 0.0
O86 O 0.18266 0.37672 0.31464 0.0
O87 O 0.10523 0.35389 0.09252 0.0
O88 O 0.0842 0.36507 0.88757 0.0
C89 C 0.15028 0.37104 0.39908 0.0
O90 O 0.1045 0.37921 0.3676 0.0
O91 O 0.13403 0.46198 0.16011 0.0
C92 C 0.16371 0.35695 0.53171 0.0
O93 O 0.20944 0.34954 0.56517 0.0
O94 O 0.13086 0.35327 0.61558 0.0
O95 O 0.21295 0.36382 0.83957 0.0
O96 O 0.21854 0.39866 0.0282 0.0
O97 O 0.14409 0.2691 0.82725 0.0
C98 C 0.07314 0.36361 0.00636 0.0
C99 C 0.23717 0.38611 0.9234 0.0
Zn100 Zn 0.83715 0.88055 0.36162 0.0
Zn101 Zn 0.9309 0.87596 0.03655 0.0
C102 C 0.72954 0.89583 0.38002 0.0
O103 O 0.7379 0.92187 0.47967 0.0
C104 C 0.03823 0.87261 0.01924 0.0
O105 O 0.02951 0.86771 0.89472 0.0
O106 O 0.84998 0.88926 0.558 0.0
O107 O 0.85936 0.82031 0.30163 0.0
O108 O 0.90276 0.81737 0.12106 0.0
C109 C 0.88657 0.87531 0.62636 0.0
O110 O 0.92169 0.85324 0.57103 0.0
O111 O 0.76469 0.87687 0.32456 0.0
C112 C 0.88887 0.88296 0.76788 0.0
O113 O 0.8528 0.90366 0.82326 0.0
O114 O 0.92508 0.86888 0.83748 0.0
O115 O 0.90433 0.93893 0.07832 0.0
O116 O 0.8585 0.93329 0.25259 0.0
O117 O 1.00271 0.87688 0.095 0.0
C118 C 0.87993 0.79814 0.214 0.0
C119 C 0.87841 0.95689 0.16406 0.0
Zn120 Zn 0.36166 0.60456 0.6086 0.0
Zn121 Zn 0.37455 0.63619 0.27189 0.0
C122 C 0.37548 0.50818 0.56073 0.0
O123 O 0.35691 0.51845 0.44533 0.0
C124 C 0.42044 0.72092 0.21423 0.0
O125 O 0.45602 0.69319 0.18733 0.0
O126 O 0.34354 0.62769 0.77874 0.0
O127 O 0.41901 0.64321 0.55557 0.0
O128 O 0.43135 0.60792 0.37483 0.0
C129 C 0.37236 0.61726 0.87195 0.0
O130 O 0.41166 0.59349 0.85071 0.0
O131 O 0.3823 0.5393 0.64233 0.0
C132 C 0.36166 0.63089 0.00244 0.0
O133 O 0.32517 0.6583 0.02366 0.0
O134 O 0.38794 0.61603 0.09613 0.0
O135 O 0.30348 0.61985 0.29995 0.0
O136 O 0.29897 0.60322 0.50935 0.0
O137 O 0.38125 0.70476 0.25956 0.0
C138 C 0.44789 0.62918 0.4715 0.0
C139 C 0.27904 0.60836 0.39832 0.0
Zn140 Zn 0.62976 0.13354 0.85592 0.0
Zn141 Zn 0.62219 0.14869 0.55024 0.0
C142 C 0.73057 0.11348 0.91578 0.0
O143 O 0.71022 0.08719 0.00375 0.0
C144 C 0.5181 0.16915 0.51749 0.0
O145 O 0.53093 0.19497 0.41848 0.0
O146 O 0.61531 0.12166 0.04529 0.0
O147 O 0.60138 0.19464 0.80776 0.0
O148 O 0.6506 0.20266 0.64362 0.0
C149 C 0.62816 0.14845 0.13448 0.0
O150 O 0.65164 0.18604 0.10485 0.0
O151 O 0.70361 0.13627 0.83636 0.0
C152 C 0.61814 0.13664 0.27037 0.0
O153 O 0.59498 0.09889 0.30009 0.0
O154 O 0.63263 0.16258 0.35996 0.0
O155 O 0.64486 0.08407 0.58908 0.0
O156 O 0.60175 0.07955 0.76665 0.0
O157 O 0.55023 0.14754 0.58419 0.0
C158 C 0.62466 0.22008 0.72988 0.0
C159 C 0.62005 0.06087 0.6696 0.0
Zn160 Zn 0.91551 0.37065 0.00727 0.0
Zn161 Zn 0.8932 0.39381 0.68977 0.0
C162 C 0.02164 0.36405 0.04317 0.0
O163 O 0.01046 0.35361 0.1632 0.0
C164 C 0.79389 0.40701 0.59538 0.0
O165 O 0.81629 0.43247 0.50925 0.0
O166 O 0.90929 0.35606 0.19869 0.0
O167 O 0.88437 0.43236 0.98153 0.0
O168 O 0.91092 0.45081 0.7864 0.0
C169 C 0.91634 0.38615 0.28344 0.0
O170 O 0.92969 0.42729 0.24716 0.0
O171 O 0.98778 0.37313 0.96018 0.0
C172 C 0.90726 0.37559 0.42035 0.0
O173 O 0.89025 0.33552 0.45516 0.0
O174 O 0.91263 0.40612 0.50453 0.0
O175 O 0.92438 0.33305 0.73862 0.0
O176 O 0.88401 0.3179 0.91626 0.0
O177 O 0.81872 0.3871 0.68587 0.0
C178 C 0.89455 0.46211 0.89522 0.0
C179 C 0.90373 0.30464 0.81388 0.0
Zn180 Zn 0.39638 0.16087 0.74527 0.0
Zn181 Zn 0.37334 0.14612 0.43911 0.0
C182 C 0.41114 0.25755 0.75295 0.0
O183 O 0.44104 0.24564 0.84884 0.0
C184 C 0.36204 0.04831 0.43814 0.0
O185 O 0.32066 0.05848 0.37823 0.0
O186 O 0.41268 0.15542 0.93861 0.0
O187 O 0.3337 0.12681 0.71974 0.0
O188 O 0.31054 0.15861 0.53216 0.0
C189 C 0.37979 0.15819 0.02298 0.0
O190 O 0.33449 0.16562 0.98521 0.0
O191 O 0.38645 0.22725 0.69523 0.0
C192 C 0.3921 0.15241 0.16196 0.0
O193 O 0.43733 0.14483 0.20007 0.0
O194 O 0.35892 0.15422 0.24578 0.0
O195 O 0.43402 0.18286 0.47762 0.0
O196 O 0.4549 0.14034 0.64869 0.0
O197 O 0.39045 0.08 0.4735 0.0
C198 C 0.30032 0.13866 0.6389 0.0
C199 C 0.46669 0.16415 0.54982 0.0
Zn200 Zn 0.60363 0.63337 0.44003 0.0
Zn201 Zn 0.63396 0.61004 0.12304 0.0
C202 C 0.50034 0.63842 0.48626 0.0
O203 O 0.51562 0.66639 0.57569 0.0
C204 C 0.73478 0.60533 0.05524 0.0
O205 O 0.71545 0.57535 0.97717 0.0
O206 O 0.61493 0.64841 0.62787 0.0
O207 O 0.6439 0.57656 0.42191 0.0
O208 O 0.62055 0.55248 0.22885 0.0
C209 C 0.61116 0.61706 0.71401 0.0
O210 O 0.59875 0.57588 0.67978 0.0
O211 O 0.53117 0.61962 0.41437 0.0
C212 C 0.62141 0.62661 0.85058 0.0
O213 O 0.63462 0.66763 0.88435 0.0
O214 O 0.61866 0.5951 0.9366 0.0
O215 O 0.59286 0.6661 0.14514 0.0
O216 O 0.61931 0.69017 0.33526 0.0
O217 O 0.7074 0.62543 0.13383 0.0
C218 C 0.63632 0.54451 0.34391 0.0
C219 C 0.60195 0.69819 0.22181 0.0
Zn220 Zn 0.15316 0.83734 0.27789 0.0
Zn221 Zn 0.17854 0.89598 0.94961 0.0
C222 C 0.11749 0.74422 0.25511 0.0
O223 O 0.08852 0.75614 0.34788 0.0
C224 C 0.16441 0.98775 0.84541 0.0
O225 O 0.18617 0.96988 0.74685 0.0
O226 O 0.14265 0.8394 0.47284 0.0
O227 O 0.22214 0.85923 0.25114 0.0
O228 O 0.24116 0.89075 0.06103 0.0
C229 C 0.17505 0.8535 0.55274 0.0
O230 O 0.21825 0.86499 0.51148 0.0
O231 O 0.1485 0.77259 0.21228 0.0
C232 C 0.16301 0.86098 0.68851 0.0
O233 O 0.11853 0.85359 0.72748 0.0
O234 O 0.19452 0.87806 0.76576 0.0
O235 O 0.12182 0.85551 -0.00122 0.0
O236 O 0.0971 0.87251 0.19199 0.0
O237 O 0.15661 0.96302 0.94585 0.0
C238 C 0.25304 0.87711 0.17567 0.0
C239 C 0.08871 0.86989 0.07089 0.0
Zn240 Zn 0.88248 0.65406 0.16356 0.0
Zn241 Zn 0.868 0.60489 0.83682 0.0
C242 C 0.8752 0.74829 0.222 0.0
O243 O 0.85299 0.72977 0.32137 0.0
C244 C 0.88373 0.51014 0.91757 0.0
O245 O 0.86217 0.52189 0.02399 0.0
O246 O 0.89738 0.6409 0.35199 0.0
O247 O 0.81098 0.6352 0.13331 0.0
O248 O 0.80692 0.60567 0.93807 0.0
C249 C 0.86481 0.63439 0.43561 0.0
O250 O 0.81861 0.63704 0.40123 0.0
O251 O 0.89073 0.72274 0.13426 0.0
C252 C 0.87896 0.6242 0.57023 0.0
O253 O 0.92494 0.61774 0.60288 0.0
O254 O 0.84675 0.62096 0.65588 0.0
O255 O 0.92422 0.64686 0.8783 0.0
O256 O 0.93844 0.62168 0.07761 0.0
O257 O 0.89144 0.5399 0.82912 0.0
C258 C 0.78691 0.61653 0.04232 0.0
C259 C 0.95392 0.63718 0.97049 0.0
Zn260 Zn 0.10869 0.12131 0.94855 0.0
Zn261 Zn 0.14683 0.11357 0.62 0.0
C262 C 1.00567 0.13726 0.99001 0.0
O263 O 0.02266 0.15313 0.0998 0.0
C264 C 0.24965 0.12737 0.66845 0.0
O265 O 0.23953 0.1078 0.78032 0.0
O266 O 0.11948 0.13603 0.1334 0.0
O267 O 0.13475 0.05682 0.93313 0.0
O268 O 0.15254 0.05581 0.72565 0.0
C269 C 0.11115 0.10854 0.22631 0.0
O270 O 0.09353 0.06797 0.20325 0.0
O271 O 0.03521 0.1226 0.90726 0.0
C272 C 0.12385 0.12182 0.35772 0.0
O273 O 0.14335 0.16185 0.37826 0.0
O274 O 0.11945 0.09377 0.45139 0.0
O275 O 0.10811 0.16857 0.67234 0.0
O276 O 0.14295 0.17531 0.86418 0.0
O277 O 0.21573 0.1345 0.5848 0.0
C278 C 0.1492 0.03581 0.83514 0.0
C279 C 0.12515 0.19345 0.76115 0.0
Zn280 Zn 0.64618 0.36367 0.69138 0.0
Zn281 Zn 0.66153 0.40003 0.35574 0.0
C282 C 0.62198 0.26955 0.74166 0.0
O283 O 0.59444 0.28705 0.82999 0.0
C284 C 0.64848 0.49773 0.38636 0.0
O285 O 0.66967 0.49003 0.50012 0.0
O286 O 0.63098 0.37505 0.8748 0.0
O287 O 0.71573 0.38567 0.67154 0.0
O288 O 0.72334 0.40266 0.46292 0.0
C289 C 0.66137 0.36629 0.966 0.0
O290 O 0.70384 0.34861 0.94063 0.0
O291 O 0.64653 0.29563 0.66807 0.0
C292 C 0.64972 0.37867 0.09746 0.0
O293 O 0.60687 0.39589 0.12133 0.0
O294 O 0.6817 0.37565 0.18752 0.0
O295 O 0.60308 0.36168 0.40575 0.0
O296 O 0.58785 0.39155 0.59361 0.0
O297 O 0.64001 0.46473 0.31198 0.0
C298 C 0.74147 0.39811 0.57657 0.0
C299 C 0.57294 0.37293 0.49052 0.0
Zn300 Zn 0.39913 0.8621 0.13203 0.0
Zn301 Zn 0.36554 0.90244 0.44814 0.0
C302 C 0.42527 0.76968 0.18335 0.0
O303 O 0.46724 0.78574 0.1447 0.0
C304 C 0.37572 1.00058 0.46233 0.0
O305 O 0.41688 0.99044 0.52333 0.0
O306 O 0.41235 0.86553 0.93981 0.0
O307 O 0.3363 0.89779 0.14972 0.0
O308 O 0.31583 0.86776 0.3379 0.0
C309 C 0.3778 0.86841 0.85573 0.0
O310 O 0.33248 0.86662 0.89296 0.0
O311 O 0.38872 0.7961 0.18563 0.0
C312 C 0.38845 0.87713 0.71871 0.0
O313 O 0.4338 0.87922 0.68202 0.0
O314 O 0.354 0.88535 0.63689 0.0
O315 O 0.43835 0.8978 0.4226 0.0
O316 O 0.46125 0.88199 0.2241 0.0
O317 O 0.34809 0.96891 0.42269 0.0
C318 C 0.30408 0.8813 0.22334 0.0
C319 C 0.47143 0.89198 0.34076 0.0
loop_
_geom_bond_atom_site_label_1
_geom_bond_atom_site_label_2
_geom_bond_distance
_geom_bond_site_symmetry_2
_ccdc_geom_bond_type
Zn0 O6 1.969 . S
Zn0 O7 1.965 . S
Zn0 O11 2.024 . S
Zn0 O16 1.969 . S
Zn1 O8 1.969 1_556 S
Zn1 O14 1.969 . S
Zn1 O15 1.965 1_556 S
Zn1 O17 2.024 1_556 S
C2 O3 1.229 . S
C2 O11 1.058 . S
O3 C2 1.229 . S
C4 O5 1.229 1_655 S
C4 O17 1.058 1_656 S
O5 C4 1.229 1_455 S
O6 Zn0 1.969 . S
O6 C9 1.267 . S
O7 Zn0 1.965 . S
O7 C18 1.260 . S
O8 Zn1 1.969 1_554 S
O8 C18 1.258 . S
C9 O6 1.267 . S
C9 O10 1.228 . S
O10 C9 1.228 . S
O11 Zn0 2.024 . S
O11 C2 1.058 . S
C12 O13 1.228 . S
C12 O14 1.267 . S
O13 C12 1.228 . S
O14 Zn1 1.969 . S
O14 C12 1.267 . S
O15 Zn1 1.965 1_554 S
O15 C19 1.260 . S
O16 Zn0 1.969 . S
O16 C19 1.258 . S
O17 Zn1 2.024 1_554 S
O17 C4 1.058 1_454 S
C18 O7 1.260 . S
C18 O8 1.258 . S
C19 O15 1.260 . S
C19 O16 1.258 . S
Zn20 O26 1.969 . S
Zn20 O27 1.965 . S
Zn20 O31 2.024 . S
Zn20 O36 1.969 . S
Zn21 O28 1.969 . S
Zn21 O34 1.969 . S
Zn21 O35 1.965 . S
Zn21 O37 2.024 . S
C22 O23 1.233 . S
C22 O31 1.069 . S
O23 C22 1.233 . S
C24 O25 1.229 . S
C24 O37 1.058 . S
O25 C24 1.229 . S
O26 Zn20 1.969 . S
O26 C29 1.267 . S
O27 Zn20 1.965 . S
O27 C38 1.260 . S
O28 Zn21 1.969 . S
O28 C38 1.258 . S
C29 O26 1.267 . S
C29 O30 1.228 . S
O30 C29 1.228 . S
O31 Zn20 2.024 . S
O31 C22 1.069 . S
C32 O33 1.228 . S
C32 O34 1.267 1_556 S
O33 C32 1.228 . S
O34 Zn21 1.969 . S
O34 C32 1.267 1_554 S
O35 Zn21 1.965 . S
O35 C39 1.260 . S
O36 Zn20 1.969 . S
O36 C39 1.258 . S
O37 Zn21 2.024 . S
O37 C24 1.058 . S
C38 O27 1.260 . S
C38 O28 1.258 . S
C39 O35 1.260 . S
C39 O36 1.258 . S
Zn40 O46 1.969 1_556 S
Zn40 O47 1.965 . S
Zn40 O51 2.024 . S
Zn40 O56 1.969 . S
Zn41 O48 1.969 . S
Zn41 O54 1.969 . S
Zn41 O55 1.965 . S
Zn41 O57 2.024 . S
C42 O43 1.229 . S
C42 O51 1.058 . S
O43 C42 1.229 . S
C44 O45 1.229 . S
C44 O57 1.058 . S
O45 C44 1.229 . S
O46 Zn40 1.969 1_554 S
O46 C49 1.267 . S
O47 Zn40 1.965 . S
O47 C58 1.260 . S
O48 Zn41 1.969 . S
O48 C58 1.258 . S
C49 O46 1.267 . S
C49 O50 1.228 . S
O50 C49 1.228 . S
O51 Zn40 2.024 . S
O51 C42 1.058 . S
C52 O53 1.228 . S
C52 O54 1.267 . S
O53 C52 1.228 . S
O54 Zn41 1.969 . S
O54 C52 1.267 . S
O55 Zn41 1.965 . S
O55 C59 1.260 . S
O56 Zn40 1.969 . S
O56 C59 1.258 . S
O57 Zn41 2.024 . S
O57 C44 1.058 . S
C58 O47 1.260 . S
C58 O48 1.258 . S
C59 O55 1.260 . S
C59 O56 1.258 . S
Zn60 O66 1.969 . S
Zn60 O67 1.965 . S
Zn60 O71 2.024 . S
Zn60 O76 1.969 . S
Zn61 O68 1.969 . S
Zn61 O74 1.969 . S
Zn61 O75 1.965 . S
Zn61 O77 2.024 . S
C62 O63 1.229 . S
C62 O71 1.058 . S
O63 C62 1.229 . S
C64 O65 1.229 . S
C64 O77 1.058 . S
O65 C64 1.229 . S
O66 Zn60 1.969 . S
O66 C69 1.267 . S
O67 Zn60 1.965 . S
O67 C78 1.260 1_554 S
O68 Zn61 1.969 . S
O68 C78 1.258 . S
C69 O66 1.267 . S
C69 O70 1.228 . S
O70 C69 1.228 . S
O71 Zn60 2.024 . S
O71 C62 1.058 . S
C72 O73 1.228 . S
C72 O74 1.267 . S
O73 C72 1.228 . S
O74 Zn61 1.969 . S
O74 C72 1.267 . S
O75 Zn61 1.965 . S
O75 C79 1.260 . S
O76 Zn60 1.969 . S
O76 C79 1.258 1_554 S
O77 Zn61 2.024 . S
O77 C64 1.058 . S
C78 O67 1.260 1_556 S
C78 O68 1.258 . S
C79 O75 1.260 . S
C79 O76 1.258 1_556 S
Zn80 O86 1.969 . S
Zn80 O87 1.965 . S
Zn80 O91 2.024 . S
Zn80 O96 1.969 . S
Zn81 O88 1.969 . S
Zn81 O94 1.969 . S
Zn81 O95 1.965 . S
Zn81 O97 2.024 . S
C82 O83 1.229 . S
C82 O91 1.058 . S
O83 C82 1.229 . S
C84 O85 1.229 . S
C84 O97 1.058 . S
O85 C84 1.229 . S
O86 Zn80 1.969 . S
O86 C89 1.267 . S
O87 Zn80 1.965 . S
O87 C98 1.260 1_554 S
O88 Zn81 1.969 . S
O88 C98 1.258 . S
C89 O86 1.267 . S
C89 O90 1.228 . S
O90 C89 1.228 . S
O91 Zn80 2.024 . S
O91 C82 1.058 . S
C92 O93 1.228 . S
C92 O94 1.267 . S
O93 C92 1.228 . S
O94 Zn81 1.969 . S
O94 C92 1.267 . S
O95 Zn81 1.965 . S
O95 C99 1.260 . S
O96 Zn80 1.969 . S
O96 C99 1.258 1_554 S
O97 Zn81 2.024 . S
O97 C84 1.058 . S
C98 O87 1.260 1_556 S
C98 O88 1.258 . S
C99 O95 1.260 . S
C99 O96 1.258 1_556 S
Zn100 O106 1.969 . S
Zn100 O107 1.965 . S
Zn100 O111 2.024 . S
Zn100 O116 1.969 . S
Zn101 O108 1.969 1_556 S
Zn101 O114 1.969 . S
Zn101 O115 1.965 1_556 S
Zn101 O117 2.024 1_556 S
C102 O103 1.229 . S
C102 O111 1.058 . S
O103 C102 1.229 . S
C104 O105 1.229 1_454 S
C104 O117 1.058 1_455 S
O105 C104 1.229 1_656 S
O106 Zn100 1.969 . S
O106 C109 1.267 . S
O107 Zn100 1.965 . S
O107 C118 1.260 . S
O108 Zn101 1.969 1_554 S
O108 C118 1.258 . S
C109 O106 1.267 . S
C109 O110 1.228 . S
O110 C109 1.228 . S
O111 Zn100 2.024 . S
O111 C102 1.058 . S
C112 O113 1.228 . S
C112 O114 1.267 . S
O113 C112 1.228 . S
O114 Zn101 1.969 . S
O114 C112 1.267 . S
O115 Zn101 1.965 1_554 S
O115 C119 1.260 . S
O116 Zn100 1.969 . S
O116 C119 1.258 . S
O117 Zn101 2.024 1_554 S
O117 C104 1.058 1_655 S
C118 O107 1.260 . S
C118 O108 1.258 . S
C119 O115 1.260 . S
C119 O116 1.258 . S
Zn120 O126 1.969 . S
Zn120 O127 1.965 . S
Zn120 O131 2.024 . S
Zn120 O136 1.969 . S
Zn121 O128 1.969 . S
Zn121 O134 1.969 . S
Zn121 O135 1.965 . S
Zn121 O137 2.024 . S
C122 O123 1.229 . S
C122 O131 1.058 . S
O123 C122 1.229 . S
C124 O125 1.229 . S
C124 O137 1.058 . S
O125 C124 1.229 . S
O126 Zn120 1.969 . S
O126 C129 1.267 . S
O127 Zn120 1.965 . S
O127 C138 1.260 . S
O128 Zn121 1.969 . S
O128 C138 1.258 . S
C129 O126 1.267 . S
C129 O130 1.228 . S
O130 C129 1.228 . S
O131 Zn120 2.024 . S
O131 C122 1.058 . S
C132 O133 1.228 . S
C132 O134 1.267 1_556 S
O133 C132 1.228 . S
O134 Zn121 1.969 . S
O134 C132 1.267 1_554 S
O135 Zn121 1.965 . S
O135 C139 1.260 . S
O136 Zn120 1.969 . S
O136 C139 1.258 . S
O137 Zn121 2.024 . S
O137 C124 1.058 . S
C138 O127 1.260 . S
C138 O128 1.258 . S
C139 O135 1.260 . S
C139 O136 1.258 . S
Zn140 O146 1.969 1_556 S
Zn140 O147 1.965 . S
Zn140 O151 2.024 . S
Zn140 O156 1.969 . S
Zn141 O148 1.969 . S
Zn141 O154 1.969 . S
Zn141 O155 1.965 . S
Zn141 O157 2.024 . S
C142 O143 1.229 . S
C142 O151 1.058 . S
O143 C142 1.229 . S
C144 O145 1.229 . S
C144 O157 1.058 . S
O145 C144 1.229 . S
O146 Zn140 1.969 1_554 S
O146 C149 1.267 . S
O147 Zn140 1.965 . S
O147 C158 1.260 . S
O148 Zn141 1.969 . S
O148 C158 1.258 . S
C149 O146 1.267 . S
C149 O150 1.228 . S
O150 C149 1.228 . S
O151 Zn140 2.024 . S
O151 C142 1.058 . S
C152 O153 1.228 . S
C152 O154 1.267 . S
O153 C152 1.228 . S
O154 Zn141 1.969 . S
O154 C152 1.267 . S
O155 Zn141 1.965 . S
O155 C159 1.260 . S
O156 Zn140 1.969 . S
O156 C159 1.258 . S
O157 Zn141 2.024 . S
O157 C144 1.058 . S
C158 O147 1.260 . S
C158 O148 1.258 . S
C159 O155 1.260 . S
C159 O156 1.258 . S
Zn160 O166 1.969 . S
Zn160 O167 1.965 1_554 S
Zn160 O171 2.024 1_554 S
Zn160 O176 1.969 1_554 S
Zn161 O168 1.969 . S
Zn161 O174 1.969 . S
Zn161 O175 1.965 . S
Zn161 O177 2.024 . S
C162 O163 1.229 1_455 S
C162 O171 1.058 1_454 S
O163 C162 1.229 1_655 S
C164 O165 1.229 . S
C164 O177 1.058 . S
O165 C164 1.229 . S
O166 Zn160 1.969 . S
O166 C169 1.267 . S
O167 Zn160 1.965 1_556 S
O167 C178 1.260 . S
O168 Zn161 1.969 . S
O168 C178 1.258 . S
C169 O166 1.267 . S
C169 O170 1.228 . S
O170 C169 1.228 . S
O171 Zn160 2.024 1_556 S
O171 C162 1.058 1_656 S
C172 O173 1.228 . S
C172 O174 1.267 . S
O173 C172 1.228 . S
O174 Zn161 1.969 . S
O174 C172 1.267 . S
O175 Zn161 1.965 . S
O175 C179 1.260 . S
O176 Zn160 1.969 1_556 S
O176 C179 1.258 . S
O177 Zn161 2.024 . S
O177 C164 1.058 . S
C178 O167 1.260 . S
C178 O168 1.258 . S
C179 O175 1.260 . S
C179 O176 1.258 . S
Zn180 O186 1.969 . S
Zn180 O187 1.965 . S
Zn180 O191 2.024 . S
Zn180 O196 1.969 . S
Zn181 O188 1.969 . S
Zn181 O194 1.969 . S
Zn181 O195 1.965 . S
Zn181 O197 2.024 . S
C182 O183 1.229 . S
C182 O191 1.058 . S
O183 C182 1.229 . S
C184 O185 1.229 . S
C184 O197 1.058 . S
O185 C184 1.229 . S
O186 Zn180 1.969 . S
O186 C189 1.267 1_556 S
O187 Zn180 1.965 . S
O187 C198 1.260 . S
O188 Zn181 1.969 . S
O188 C198 1.258 . S
C189 O186 1.267 1_554 S
C189 O190 1.228 . S
O190 C189 1.228 . S
O191 Zn180 2.024 . S
O191 C182 1.058 . S
C192 O193 1.228 . S
C192 O194 1.267 . S
O193 C192 1.228 . S
O194 Zn181 1.969 . S
O194 C192 1.267 . S
O195 Zn181 1.965 . S
O195 C199 1.260 . S
O196 Zn180 1.969 . S
O196 C199 1.258 . S
O197 Zn181 2.024 . S
O197 C184 1.058 . S
C198 O187 1.260 . S
C198 O188 1.258 . S
C199 O195 1.260 . S
C199 O196 1.258 . S
Zn200 O206 1.969 . S
Zn200 O207 1.965 . S
Zn200 O211 2.024 . S
Zn200 O216 1.969 . S
Zn201 O208 1.969 . S
Zn201 O214 1.969 1_554 S
Zn201 O215 1.965 . S
Zn201 O217 2.024 . S
C202 O203 1.229 . S
C202 O211 1.058 . S
O203 C202 1.229 . S
C204 O205 1.229 . S
C204 O217 1.058 . S
O205 C204 1.229 . S
O206 Zn200 1.969 . S
O206 C209 1.267 . S
O207 Zn200 1.965 . S
O207 C218 1.260 . S
O208 Zn201 1.969 . S
O208 C218 1.258 . S
C209 O206 1.267 . S
C209 O210 1.228 . S
O210 C209 1.228 . S
O211 Zn200 2.024 . S
O211 C202 1.058 . S
C212 O213 1.228 . S
C212 O214 1.267 . S
O213 C212 1.228 . S
O214 Zn201 1.969 1_556 S
O214 C212 1.267 . S
O215 Zn201 1.965 . S
O215 C219 1.260 . S
O216 Zn200 1.969 . S
O216 C219 1.258 . S
O217 Zn201 2.024 . S
O217 C204 1.058 . S
C218 O207 1.260 . S
C218 O208 1.258 . S
C219 O215 1.260 . S
C219 O216 1.258 . S
Zn220 O226 1.969 . S
Zn220 O227 1.965 . S
Zn220 O231 2.024 . S
Zn220 O236 1.969 . S
Zn221 O228 1.969 1_556 S
Zn221 O234 1.969 . S
Zn221 O235 1.965 1_556 S
Zn221 O237 2.024 . S
C222 O223 1.229 . S
C222 O231 1.058 . S
O223 C222 1.229 . S
C224 O225 1.229 1_545 S
C224 O237 1.058 1_545 S
O225 C224 1.229 1_565 S
O226 Zn220 1.969 . S
O226 C229 1.267 . S
O227 Zn220 1.965 . S
O227 C238 1.260 . S
O228 Zn221 1.969 1_554 S
O228 C238 1.258 . S
C229 O226 1.267 . S
C229 O230 1.228 . S
O230 C229 1.228 . S
O231 Zn220 2.024 . S
O231 C222 1.058 . S
C232 O233 1.228 . S
C232 O234 1.267 . S
O233 C232 1.228 . S
O234 Zn221 1.969 . S
O234 C232 1.267 . S
O235 Zn221 1.965 1_554 S
O235 C239 1.260 . S
O236 Zn220 1.969 . S
O236 C239 1.258 . S
O237 Zn221 2.024 . S
O237 C224 1.058 1_565 S
C238 O227 1.260 . S
C238 O228 1.258 . S
C239 O235 1.260 . S
C239 O236 1.258 . S
Zn240 O246 1.969 . S
Zn240 O247 1.965 . S
Zn240 O251 2.024 . S
Zn240 O256 1.969 . S
Zn241 O248 1.969 . S
Zn241 O254 1.969 . S
Zn241 O255 1.965 . S
Zn241 O257 2.024 . S
C242 O243 1.229 . S
C242 O251 1.058 . S
O243 C242 1.229 . S
C244 O245 1.229 . S
C244 O257 1.058 . S
O245 C244 1.229 . S
O246 Zn240 1.969 . S
O246 C249 1.267 . S
O247 Zn240 1.965 . S
O247 C258 1.260 . S
O248 Zn241 1.969 . S
O248 C258 1.258 1_556 S
C249 O246 1.267 . S
C249 O250 1.228 . S
O250 C249 1.228 . S
O251 Zn240 2.024 . S
O251 C242 1.058 . S
C252 O253 1.228 . S
C252 O254 1.267 . S
O253 C252 1.228 . S
O254 Zn241 1.969 . S
O254 C252 1.267 . S
O255 Zn241 1.965 . S
O255 C259 1.260 1_556 S
O256 Zn240 1.969 . S
O256 C259 1.258 . S
O257 Zn241 2.024 . S
O257 C244 1.058 . S
C258 O247 1.260 . S
C258 O248 1.258 1_554 S
C259 O255 1.260 1_554 S
C259 O256 1.258 . S
Zn260 O266 1.969 . S
Zn260 O267 1.965 1_554 S
Zn260 O271 2.024 1_554 S
Zn260 O276 1.969 1_554 S
Zn261 O268 1.969 . S
Zn261 O274 1.969 . S
Zn261 O275 1.965 . S
Zn261 O277 2.024 . S
C262 O263 1.227 1_655 S
C262 O271 1.050 1_654 S
O263 C262 1.227 1_455 S
C264 O265 1.229 . S
C264 O277 1.058 . S
O265 C264 1.229 . S
O266 Zn260 1.969 . S
O266 C269 1.267 . S
O267 Zn260 1.965 1_556 S
O267 C278 1.260 . S
O268 Zn261 1.969 . S
O268 C278 1.258 . S
C269 O266 1.267 . S
C269 O270 1.228 . S
O270 C269 1.228 . S
O271 Zn260 2.024 1_556 S
O271 C262 1.050 1_456 S
C272 O273 1.228 . S
C272 O274 1.267 . S
O273 C272 1.228 . S
O274 Zn261 1.969 . S
O274 C272 1.267 . S
O275 Zn261 1.965 . S
O275 C279 1.260 . S
O276 Zn260 1.969 1_556 S
O276 C279 1.258 . S
O277 Zn261 2.024 . S
O277 C264 1.058 . S
C278 O267 1.260 . S
C278 O268 1.258 . S
C279 O275 1.260 . S
C279 O276 1.258 . S
Zn280 O286 1.969 . S
Zn280 O287 1.965 . S
Zn280 O291 2.024 . S
Zn280 O296 1.969 . S
Zn281 O288 1.969 . S
Zn281 O294 1.969 . S
Zn281 O295 1.965 . S
Zn281 O297 2.024 . S
C282 O283 1.229 . S
C282 O291 1.058 . S
O283 C282 1.229 . S
C284 O285 1.229 . S
C284 O297 1.058 . S
O285 C284 1.229 . S
O286 Zn280 1.969 . S
O286 C289 1.267 1_556 S
O287 Zn280 1.965 . S
O287 C298 1.260 . S
O288 Zn281 1.969 . S
O288 C298 1.258 . S
C289 O286 1.267 1_554 S
C289 O290 1.228 1_554 S
O290 C289 1.228 1_556 S
O291 Zn280 2.024 . S
O291 C282 1.058 . S
C292 O293 1.228 . S
C292 O294 1.267 . S
O293 C292 1.228 . S
O294 Zn281 1.969 . S
O294 C292 1.267 . S
O295 Zn281 1.965 . S
O295 C299 1.260 . S
O296 Zn280 1.969 . S
O296 C299 1.258 . S
O297 Zn281 2.024 . S
O297 C284 1.058 . S
C298 O287 1.260 . S
C298 O288 1.258 . S
C299 O295 1.260 . S
C299 O296 1.258 . S
Zn300 O306 1.969 1_554 S
Zn300 O307 1.965 . S
Zn300 O311 2.024 . S
Zn300 O316 1.969 . S
Zn301 O308 1.969 . S
Zn301 O314 1.969 . S
Zn301 O315 1.965 . S
Zn301 O317 2.024 . S
C302 O303 1.229 . S
C302 O311 1.058 . S
O303 C302 1.229 . S
C304 O305 1.231 . S
C304 O317 1.058 1_545 S
O305 C304 1.231 . S
O306 Zn300 1.969 1_556 S
O306 C309 1.267 . S
O307 Zn300 1.965 . S
O307 C318 1.260 . S
O308 Zn301 1.969 . S
O308 C318 1.258 . S
C309 O306 1.267 . S
C309 O310 1.228 . S
O310 C309 1.228 . S
O311 Zn300 2.024 . S
O311 C302 1.058 . S
C312 O313 1.228 . S
C312 O314 1.267 . S
O313 C312 1.228 . S
O314 Zn301 1.969 . S
O314 C312 1.267 . S
O315 Zn301 1.965 . S
O315 C319 1.260 . S
O316 Zn300 1.969 . S
O316 C319 1.258 . S
O317 Zn301 2.024 . S
O317 C304 1.058 1_565 S
C318 O307 1.260 . S
C318 O308 1.258 . S
C319 O315 1.260 . S
C319 O316 1.258 . S
C12 C9 2.239 . S
C32 C29 2.115 . S
C52 C49 2.007 . S
C72 C69 2.290 . S
C89 C92 2.151 . S
C112 C109 2.354 . S
C129 C132 2.167 . S
C149 C152 2.274 . S
C169 C172 2.166 . S
C192 C189 1.993 . S
C212 C209 2.174 . S
C229 C232 2.396 . S
C252 C249 2.121 . S
C272 C269 2.187 . S
C292 C289 2.253 . S
C309 C312 2.352 . S
C18 C222 2.344 . S
C38 C319 2.541 . S
C58 C182 1.516 . S
C78 C262 1.767 1_556 S
C84 C279 1.955 . S
C239 C104 2.193 . S
C124 C302 1.363 . S
C144 C199 1.928 . S
C64 C179 2.064 . S
C24 C219 2.260 . S
C242 C118 1.960 . S
C158 C282 1.984 . S
C162 C98 1.686 1_554 S
C138 C202 1.614 . S
C44 C299 1.621 . S
C4 C259 1.748 1_556 S
C19 C82 1.524 . S
C39 C102 1.808 . S
C59 C122 1.048 . S
C79 C142 1.365 . S
C244 C178 1.680 . S
C264 C198 1.256 . S
C218 C284 1.563 . S
C318 C238 2.499 . S
C22 C159 1.923 1_565 S
C99 C42 1.359 . S
C119 C62 1.578 1_565 S
C2 C139 1.184 . S
C304 C184 0.637 . S
C258 C204 1.342 . S
C278 C224 1.746 . S
C298 C164 1.228 . S
