# Generated by pormake.
# Topology wiu, (6)-cn, num edge types: 1
# Building blocks:
#     Node 0, Type 0, BuildingBlock: JUFBIX_clean_sbu_0, # of connection points: 6
#     Node 1, Type 0, BuildingBlock: JUFBIX_clean_sbu_0, # of connection points: 6
#     Node 2, Type 0, BuildingBlock: JUFBIX_clean_sbu_0, # of connection points: 6
#     Node 3, Type 0, BuildingBlock: JUFBIX_clean_sbu_0, # of connection points: 6
#     Node 4, Type 0, BuildingBlock: JUFBIX_clean_sbu_0, # of connection points: 6
#     Node 5, Type 0, BuildingBlock: JUFBIX_clean_sbu_0, # of connection points: 6
#     Node 6, Type 0, BuildingBlock: JUFBIX_clean_sbu_0, # of connection points: 6
#     Node 7, Type 0, BuildingBlock: JUFBIX_clean_sbu_0, # of connection points: 6
#     Node 8, Type 0, BuildingBlock: JUFBIX_clean_sbu_0, # of connection points: 6
#     Node 9, Type 0, BuildingBlock: JUFBIX_clean_sbu_0, # of connection points: 6
#     Node 10, Type 0, BuildingBlock: JUFBIX_clean_sbu_0, # of connection points: 6
#     Node 11, Type 0, BuildingBlock: JUFBIX_clean_sbu_0, # of connection points: 6
#     Node 12, Type 0, BuildingBlock: JUFBIX_clean_sbu_0, # of connection points: 6
#     Node 13, Type 0, BuildingBlock: JUFBIX_clean_sbu_0, # of connection points: 6
#     Node 14, Type 0, BuildingBlock: JUFBIX_clean_sbu_0, # of connection points: 6
#     Node 15, Type 0, BuildingBlock: JUFBIX_clean_sbu_0, # of connection points: 6
#     Edge 16, Type (0, 0), BuildingBlock: EZIPEK_clean_linker_0, # of connection points: 2
#     Edge 17, Type (0, 0), BuildingBlock: EZIPEK_clean_linker_0, # of connection points: 2
#     Edge 18, Type (0, 0), BuildingBlock: EZIPEK_clean_linker_0, # of connection points: 2
#     Edge 19, Type (0, 0), BuildingBlock: EZIPEK_clean_linker_0, # of connection points: 2
#     Edge 20, Type (0, 0), BuildingBlock: EZIPEK_clean_linker_0, # of connection points: 2
#     Edge 21, Type (0, 0), BuildingBlock: EZIPEK_clean_linker_0, # of connection points: 2
#     Edge 22, Type (0, 0), BuildingBlock: EZIPEK_clean_linker_0, # of connection points: 2
#     Edge 23, Type (0, 0), BuildingBlock: EZIPEK_clean_linker_0, # of connection points: 2
#     Edge 24, Type (0, 0), BuildingBlock: EZIPEK_clean_linker_0, # of connection points: 2
#     Edge 25, Type (0, 0), BuildingBlock: EZIPEK_clean_linker_0, # of connection points: 2
#     Edge 26, Type (0, 0), BuildingBlock: EZIPEK_clean_linker_0, # of connection points: 2
#     Edge 27, Type (0, 0), BuildingBlock: EZIPEK_clean_linker_0, # of connection points: 2
#     Edge 28, Type (0, 0), BuildingBlock: EZIPEK_clean_linker_0, # of connection points: 2
#     Edge 29, Type (0, 0), BuildingBlock: EZIPEK_clean_linker_0, # of connection points: 2
#     Edge 30, Type (0, 0), BuildingBlock: EZIPEK_clean_linker_0, # of connection points: 2
#     Edge 31, Type (0, 0), BuildingBlock: EZIPEK_clean_linker_0, # of connection points: 2
#     Edge 32, Type (0, 0), BuildingBlock: EZIPEK_clean_linker_0, # of connection points: 2
#     Edge 33, Type (0, 0), BuildingBlock: EZIPEK_clean_linker_0, # of connection points: 2
#     Edge 34, Type (0, 0), BuildingBlock: EZIPEK_clean_linker_0, # of connection points: 2
#     Edge 35, Type (0, 0), BuildingBlock: EZIPEK_clean_linker_0, # of connection points: 2
#     Edge 36, Type (0, 0), BuildingBlock: EZIPEK_clean_linker_0, # of connection points: 2
#     Edge 37, Type (0, 0), BuildingBlock: EZIPEK_clean_linker_0, # of connection points: 2
#     Edge 38, Type (0, 0), BuildingBlock: EZIPEK_clean_linker_0, # of connection points: 2
#     Edge 39, Type (0, 0), BuildingBlock: EZIPEK_clean_linker_0, # of connection points: 2
#     Edge 40, Type (0, 0), BuildingBlock: EZIPEK_clean_linker_0, # of connection points: 2
#     Edge 41, Type (0, 0), BuildingBlock: EZIPEK_clean_linker_0, # of connection points: 2
#     Edge 42, Type (0, 0), BuildingBlock: EZIPEK_clean_linker_0, # of connection points: 2
#     Edge 43, Type (0, 0), BuildingBlock: EZIPEK_clean_linker_0, # of connection points: 2
#     Edge 44, Type (0, 0), BuildingBlock: EZIPEK_clean_linker_0, # of connection points: 2
#     Edge 45, Type (0, 0), BuildingBlock: EZIPEK_clean_linker_0, # of connection points: 2
#     Edge 46, Type (0, 0), BuildingBlock: EZIPEK_clean_linker_0, # of connection points: 2
#     Edge 47, Type (0, 0), BuildingBlock: EZIPEK_clean_linker_0, # of connection points: 2
#     Edge 48, Type (0, 0), BuildingBlock: EZIPEK_clean_linker_0, # of connection points: 2
#     Edge 49, Type (0, 0), BuildingBlock: EZIPEK_clean_linker_0, # of connection points: 2
#     Edge 50, Type (0, 0), BuildingBlock: EZIPEK_clean_linker_0, # of connection points: 2
#     Edge 51, Type (0, 0), BuildingBlock: EZIPEK_clean_linker_0, # of connection points: 2
#     Edge 52, Type (0, 0), BuildingBlock: EZIPEK_clean_linker_0, # of connection points: 2
#     Edge 53, Type (0, 0), BuildingBlock: EZIPEK_clean_linker_0, # of connection points: 2
#     Edge 54, Type (0, 0), BuildingBlock: EZIPEK_clean_linker_0, # of connection points: 2
#     Edge 55, Type (0, 0), BuildingBlock: EZIPEK_clean_linker_0, # of connection points: 2
#     Edge 56, Type (0, 0), BuildingBlock: EZIPEK_clean_linker_0, # of connection points: 2
#     Edge 57, Type (0, 0), BuildingBlock: EZIPEK_clean_linker_0, # of connection points: 2
#     Edge 58, Type (0, 0), BuildingBlock: EZIPEK_clean_linker_0, # of connection points: 2
#     Edge 59, Type (0, 0), BuildingBlock: EZIPEK_clean_linker_0, # of connection points: 2
#     Edge 60, Type (0, 0), BuildingBlock: EZIPEK_clean_linker_0, # of connection points: 2
#     Edge 61, Type (0, 0), BuildingBlock: EZIPEK_clean_linker_0, # of connection points: 2
#     Edge 62, Type (0, 0), BuildingBlock: EZIPEK_clean_linker_0, # of connection points: 2
#     Edge 63, Type (0, 0), BuildingBlock: EZIPEK_clean_linker_0, # of connection points: 2
# Relax obj value: 0.401
# Max RMSD: 0.267
# Mean RMSD: 0.252
data_MOF--net-wiu--node1-JUFBIX_clean_sbu_0--edge1-EZIPEK_clean_linker_0
_symmetry_space_group_name_H-M    P1
_symmetry_Int_Tables_number       1
_symmetry_cell_setting            triclinic
loop_
_symmetry_equiv_pos_as_xyz
'x, y, z'
_cell_length_a     21.310165
_cell_length_b     21.622421
_cell_length_c     51.125898
_cell_angle_alpha  97.828236
_cell_angle_beta   81.953176
_cell_angle_gamma 97.939272
loop_
_atom_site_label
_atom_site_type_symbol
_atom_site_fract_x
_atom_site_fract_y
_atom_site_fract_z
_atom_type_partial_charge
Co0 Co 0.30987 0.16774 0.07791 0.0
C1 C 0.24921 0.09978 0.11953 0.0
Co2 Co 0.36959 0.17095 0.10937 0.0
C3 C 0.24916 0.20711 0.0369 0.0
C4 C 0.22443 0.10908 0.0409 0.0
N5 N 0.25791 0.16201 0.05142 0.0
N6 N 0.21195 0.18408 1.01773 0.0
C7 C 0.19614 0.12256 1.02012 0.0
H8 H 0.2722 0.25503 0.03933 0.0
H9 H 0.22304 0.06306 0.04717 0.0
C10 C 0.41989 0.24239 0.06911 0.0
N11 N 0.42125 0.1752 0.13602 0.0
C12 C 0.41815 0.13355 0.15371 0.0
C13 C 0.4634 0.22397 0.14438 0.0
N14 N 0.45522 0.15511 0.17307 0.0
C15 C 0.4842 0.21174 0.16728 0.0
C16 C 0.4066 0.08197 0.0654 0.0
O17 O 0.36666 0.22652 0.06068 0.0
O18 O 0.43177 0.2226 0.08999 0.0
O19 O 0.41152 0.09925 0.09006 0.0
O20 O 0.36041 0.10194 0.05657 0.0
O21 O 0.30098 0.11974 0.12951 0.0
H22 H 0.47514 0.26729 0.13541 0.0
H23 H 0.38589 0.09029 0.15365 0.0
O24 O 0.24832 0.10736 0.09542 0.0
O25 O 0.26586 0.23767 0.09904 0.0
O26 O 0.33414 0.24468 0.12766 0.0
C27 C 0.28849 0.26676 0.11997 0.0
H28 H 0.16911 0.08931 1.00683 0.0
H29 H 0.51468 0.24348 0.17972 0.0
Co30 Co 0.6157 0.57679 0.32357 0.0
C31 C 0.68691 0.55189 0.36223 0.0
Co32 Co 0.62143 0.65313 0.35603 0.0
C33 C 0.62009 0.52585 0.26919 0.0
C34 C 0.61409 0.45261 0.29405 0.0
N35 N 0.6147 0.51533 0.29484 0.0
N36 N 0.62408 0.47258 0.25242 0.0
C37 C 0.62027 0.42612 0.26783 0.0
H38 H 0.62421 0.57213 0.26279 0.0
H39 H 0.61173 0.42817 0.31133 0.0
C40 C 0.54998 0.67107 0.31807 0.0
N41 N 0.6237 0.71568 0.38487 0.0
C42 C 0.66567 0.72263 0.4028 0.0
C43 C 0.57791 0.75161 0.39623 0.0
N44 N 0.64581 0.75692 0.42563 0.0
C45 C 0.59155 0.77731 0.42136 0.0
C46 C 0.70895 0.68583 0.3129 0.0
O47 O 0.55913 0.6156 0.30887 0.0
O48 O 0.57207 0.697 0.33926 0.0
O49 O 0.69667 0.69902 0.338 0.0
O50 O 0.68564 0.6308 0.30312 0.0
O51 O 0.67069 0.60488 0.37265 0.0
H52 H 0.53403 0.75332 0.38811 0.0
H53 H 0.707 0.6976 0.40048 0.0
O54 O 0.6736 0.53315 0.33873 0.0
O55 O 0.54249 0.5291 0.34374 0.0
O56 O 0.54365 0.6108 0.37397 0.0
C57 C 0.51645 0.55688 0.36553 0.0
H58 H 0.62398 0.37717 0.26059 0.0
H59 H 0.55965 0.80133 0.43652 0.0
Co60 Co 0.26835 0.86795 0.59901 0.0
C61 C 0.15659 0.85666 0.57927 0.0
Co62 Co 0.25236 0.95722 0.58356 0.0
C63 C 0.31733 0.75871 0.62038 0.0
C64 C 0.22061 0.77542 0.63255 0.0
N65 N 0.27415 0.79734 0.61722 0.0
N66 N 0.29162 0.71476 0.63695 0.0
C67 C 0.23105 0.72573 0.64444 0.0
H68 H 0.36637 0.76307 0.61113 0.0
H69 H 0.17563 0.79471 0.63527 0.0
C70 C 0.36693 0.97093 0.60502 0.0
N71 N 0.22425 1.01935 0.56474 0.0
C72 C 0.18618 1.00174 0.54468 0.0
C73 C 0.21188 0.07873 0.5735 0.0
N74 N 0.14836 0.04544 0.54169 0.0
C75 C 0.16643 0.09493 0.55933 0.0
C76 C 0.20735 0.9588 0.63605 0.0
O77 O 0.34744 0.91344 0.60869 0.0
O78 O 0.33451 1.00105 0.59245 0.0
O79 O 0.21307 0.99318 0.6173 0.0
O80 O 0.22649 0.90494 0.63122 0.0
O81 O 0.17596 0.91292 0.57653 0.0
H82 H 0.22881 0.10599 0.59104 0.0
H83 H 0.18069 0.95454 0.53433 0.0
O84 O 0.19031 0.82518 0.58934 0.0
O85 O 0.31026 0.83333 0.56554 0.0
O86 O 0.29213 0.91999 0.55082 0.0
C87 C 0.31357 0.86684 0.54645 0.0
H88 H 0.19689 0.69986 0.65798 0.0
H89 H 0.14377 0.13762 0.56361 0.0
Co90 Co 0.89024 0.4981 0.83931 0.0
C91 C 0.79529 0.55653 0.87608 0.0
Co92 Co 0.84198 0.44071 0.87025 0.0
C93 C 0.93888 0.54389 0.78842 0.0
C94 C 0.94138 0.61575 0.82155 0.0
N95 N 0.9276 0.55307 0.81519 0.0
N96 N 0.95674 0.59851 0.77791 0.0
C97 C 0.95857 0.64386 0.79867 0.0
H98 H 0.93024 0.49896 0.77665 0.0
H99 H 0.93594 0.63996 0.84155 0.0
C100 C 0.93624 0.38828 0.8346 0.0
N101 N 0.80748 0.38774 0.89604 0.0
C102 C 0.80337 0.40477 0.92262 0.0
C103 C 0.80777 0.32478 0.89319 0.0
N104 N 0.80577 0.35586 0.9362 0.0
C105 C 0.8083 0.30543 0.91764 0.0
C106 C 0.79332 0.40348 0.81958 0.0
O107 O 0.9428 0.43863 0.82394 0.0
O108 O 0.89903 0.38271 0.85593 0.0
O109 O 0.78386 0.39515 0.84439 0.0
O110 O 0.8287 0.45446 0.81404 0.0
O111 O 0.78414 0.50343 0.8853 0.0
H112 H 0.81508 0.29562 0.87446 0.0
H113 H 0.80678 0.45314 0.9316 0.0
O114 O 0.83562 0.56103 0.85541 0.0
O115 O 0.95483 0.535 0.86338 0.0
O116 O 0.90331 0.4808 0.89432 0.0
C117 C 0.95122 0.51882 0.88671 0.0
H118 H 0.96896 0.69383 0.79726 0.0
H119 H 0.81508 0.25874 0.92126 0.0
Co120 Co 0.65599 0.9075 0.94326 0.0
C121 C 0.60883 0.83524 0.98429 0.0
Co122 Co 0.72052 0.90379 0.97246 0.0
C123 C 0.60266 0.90952 0.89502 0.0
C124 C 0.53518 0.92629 0.92954 0.0
N125 N 0.59447 0.91 0.92159 0.0
N126 N 0.5525 0.92848 0.88625 0.0
C127 C 0.50972 0.93888 0.90787 0.0
H128 H 0.64673 0.90106 0.88259 0.0
H129 H 0.51373 0.93321 0.95003 0.0
C130 C 0.77414 0.97568 0.92889 0.0
N131 N 0.78382 0.9007 0.99378 0.0
C132 C 0.78178 0.88806 1.01912 0.0
C133 C 0.84541 0.89817 0.98323 0.0
N134 N 0.83962 0.87722 1.02431 0.0
C135 C 0.87949 0.88369 1.00182 0.0
C136 C 0.72636 0.80486 0.92889 0.0
O137 O 0.71855 0.96132 0.92165 0.0
O138 O 0.78147 0.96044 0.95141 0.0
O139 O 0.75215 0.83132 0.9493 0.0
O140 O 0.68371 0.83235 0.92153 0.0
O141 O 0.66312 0.84796 0.99236 0.0
H142 H 0.86391 0.90231 0.96267 0.0
H143 H 0.73843 0.88305 0.0329 0.0
O144 O 0.59808 0.85602 0.96353 0.0
O145 O 0.62306 0.9789 0.96605 0.0
O146 O 0.68131 0.97386 0.99698 0.0
C147 C 0.63337 0.9955 0.99012 0.0
H148 H 0.4651 0.95774 0.90812 0.0
H149 H 0.92929 0.87605 0.99886 0.0
Co150 Co 0.41559 0.41807 0.7 0.0
C151 C 0.47801 0.39192 0.7398 0.0
Co152 Co 0.42374 0.49235 0.73353 0.0
C153 C 0.41796 0.37086 0.64568 0.0
C154 C 0.38694 0.29576 0.6692 0.0
N155 N 0.40973 0.35706 0.67091 0.0
N156 N 0.40232 0.32103 0.62766 0.0
C157 C 0.38082 0.27391 0.64292 0.0
H158 H 0.43016 0.41867 0.64106 0.0
H159 H 0.37122 0.26986 0.68609 0.0
C160 C 0.36235 0.5261 0.69375 0.0
N161 N 0.42763 0.55422 0.76226 0.0
C162 C 0.40687 0.54589 0.78784 0.0
C163 C 0.44729 0.61646 0.76272 0.0
N164 N 0.41185 0.60022 0.80404 0.0
C165 C 0.43735 0.64506 0.78854 0.0
C166 C 0.52663 0.50458 0.6919 0.0
O167 O 0.37208 0.47122 0.68281 0.0
O168 O 0.37474 0.54183 0.71751 0.0
O169 O 0.5037 0.53257 0.71425 0.0
O170 O 0.49542 0.45417 0.68252 0.0
O171 O 0.47135 0.44761 0.74947 0.0
H172 H 0.46627 0.63985 0.74543 0.0
H173 H 0.38723 0.50106 0.79454 0.0
O174 O 0.45918 0.36925 0.71744 0.0
O175 O 0.33744 0.37741 0.71772 0.0
O176 O 0.3466 0.44568 0.75252 0.0
C177 C 0.31989 0.3927 0.74233 0.0
H178 H 0.35713 0.22808 0.63665 0.0
H179 H 0.44648 0.69474 0.79532 0.0
Co180 Co 0.79557 0.10753 0.45937 0.0
C181 C 0.67283 0.09088 0.44414 0.0
Co182 Co 0.76622 0.20001 0.45238 0.0
C183 C 0.88043 0.05178 0.48691 0.0
C184 C 0.85497 0.9861 0.45404 0.0
N185 N 0.83883 0.04036 0.4681 0.0
N186 N 0.92301 1.0096 0.48466 0.0
C187 C 0.9056 0.96688 0.46429 0.0
H188 H 0.88372 0.09372 0.5008 0.0
H189 H 0.83551 0.96481 0.43604 0.0
C190 C 0.88557 0.21437 0.46479 0.0
N191 N 0.7394 0.2764 0.44591 0.0
C192 C 0.72758 0.29781 0.42336 0.0
C193 C 0.74436 0.32857 0.46363 0.0
N194 N 0.72624 0.36126 0.42651 0.0
C195 C 0.73689 0.38 0.4519 0.0
C196 C 0.74361 0.17502 0.50597 0.0
O197 O 0.87087 0.15626 0.46515 0.0
O198 O 0.84543 0.24668 0.45915 0.0
O199 O 0.7357 0.21434 0.49048 0.0
O200 O 0.76522 0.12397 0.49595 0.0
O201 O 0.68694 0.15072 0.44449 0.0
H202 H 0.75661 0.33006 0.48353 0.0
H203 H 0.72296 0.26812 0.40473 0.0
O204 O 0.71298 0.05956 0.45192 0.0
O205 O 0.82684 0.09323 0.42275 0.0
O206 O 0.79834 0.18414 0.41635 0.0
C207 C 0.82352 0.13429 0.40747 0.0
H208 H 0.93069 0.92703 0.45603 0.0
H209 H 0.74019 0.42822 0.46123 0.0
Co210 Co 0.18234 0.62773 0.18911 0.0
C211 C 0.0978 0.68942 0.2267 0.0
Co212 Co 0.13132 0.57422 0.22079 0.0
C213 C 0.21047 0.66716 0.13644 0.0
C214 C 0.24612 0.73893 0.1656 0.0
N215 N 0.21868 0.67867 0.16257 0.0
N216 N 0.22945 0.71805 0.12348 0.0
C217 C 0.2523 0.76341 0.14168 0.0
H218 H 0.18892 0.62296 0.12707 0.0
H219 H 0.25906 0.7643 0.18411 0.0
C220 C 0.21804 0.50742 0.18179 0.0
N221 N 0.0902 0.52128 0.24522 0.0
C222 C 0.09158 0.52463 0.27167 0.0
C223 C 0.05374 0.46628 0.23894 0.0
N224 N 0.05767 0.47404 0.28177 0.0
C225 C 0.03323 0.43749 0.26137 0.0
C226 C 0.06764 0.5586 0.17473 0.0
O227 O 0.23363 0.56094 0.17316 0.0
O228 O 0.1788 0.50498 0.20307 0.0
O229 O 0.06376 0.54433 0.19825 0.0
O230 O 0.11775 0.59225 0.16619 0.0
O231 O 0.08573 0.63919 0.23749 0.0
H232 H 0.04444 0.44658 0.21915 0.0
H233 H 0.11803 0.56221 0.28323 0.0
O234 O 0.13204 0.68976 0.20426 0.0
O235 O 0.24455 0.66923 0.21425 0.0
O236 O 0.19674 0.612 0.24474 0.0
C237 C 0.23559 0.66082 0.23907 0.0
H238 H 0.27154 0.81085 0.13794 0.0
H239 H 1.00551 0.39181 0.26249 0.0
Co240 Co 0.81464 0.67824 0.5817 0.0
C241 C 0.75723 0.60388 0.623 0.0
Co242 Co 0.87815 0.67281 0.6113 0.0
C243 C 0.76491 0.6874 0.5318 0.0
C244 C 0.69941 0.70793 0.56658 0.0
N245 N 0.75652 0.6865 0.55853 0.0
N246 N 0.71543 0.70905 0.52346 0.0
C247 C 0.67413 0.72137 0.54522 0.0
H248 H 0.80752 0.67557 0.51897 0.0
H249 H 0.67897 0.71848 0.5868 0.0
C250 C 0.92612 0.74751 0.57157 0.0
N251 N 0.93622 0.66672 0.63409 0.0
C252 C 0.92424 0.66555 0.66058 0.0
C253 C 0.99638 0.65182 0.62745 0.0
N254 N 0.97361 0.64844 0.67061 0.0
C255 C 0.01922 0.63972 0.64988 0.0
C256 C 0.9033 0.58653 0.56376 0.0
O257 O 0.87163 0.73501 0.56416 0.0
O258 O 0.93908 0.7256 0.59179 0.0
O259 O 0.91176 0.60174 0.58812 0.0
O260 O 0.85656 0.60965 0.55651 0.0
O261 O 0.81159 0.61939 0.63149 0.0
H262 H 0.02058 0.6463 0.60736 0.0
H263 H 0.87847 0.67248 0.67202 0.0
O264 O 0.75154 0.61881 0.60017 0.0
O265 O 0.78192 0.75014 0.60647 0.0
O266 O 0.85064 0.74614 0.63387 0.0
C267 C 0.80749 0.77404 0.62738 0.0
H268 H 0.62967 0.74065 0.54562 0.0
H269 H 0.0644 0.62299 0.65077 0.0
Co270 Co 0.11358 0.08664 0.8193 0.0
C271 C 0.17948 0.04902 0.85658 0.0
Co272 Co 0.12321 0.15848 0.85345 0.0
C273 C 0.12226 0.04208 0.76424 0.0
C274 C 0.0823 0.96714 0.78714 0.0
N275 N 0.10559 1.0287 0.78947 0.0
N276 N 0.1113 0.99163 0.74635 0.0
C277 C 0.08628 0.94397 0.76048 0.0
H278 H 0.14357 0.08772 0.75888 0.0
H279 H 0.06481 0.94054 0.80365 0.0
C280 C 0.05755 0.18874 0.81606 0.0
N281 N 0.13101 0.21788 0.88282 0.0
C282 C 0.13363 0.20423 0.90752 0.0
C283 C 0.14483 0.28107 0.88431 0.0
N284 N 0.15006 0.25563 0.92418 0.0
C285 C 0.15714 0.30452 0.90987 0.0
C286 C 0.21603 0.18716 0.81041 0.0
O287 O 0.064 0.13373 0.80551 0.0
O288 O 0.07775 0.20939 0.83824 0.0
O289 O 0.19994 0.20095 0.83525 0.0
O290 O 0.18886 0.13473 0.80001 0.0
O291 O 0.16943 0.10307 0.86858 0.0
H292 H 0.14992 0.30774 0.86754 0.0
H293 H 0.12842 0.15688 0.91285 0.0
O294 O 0.16512 1.03504 0.83298 0.0
O295 O 0.03536 0.04419 0.83913 0.0
O296 O 0.04443 0.12051 0.87151 0.0
C297 C 1.01303 0.07004 0.86205 0.0
H298 H 0.07469 0.89561 0.75217 0.0
H299 H 0.17435 0.35259 0.91684 0.0
Co300 Co 0.75736 0.3681 0.0992 0.0
C301 C 0.64705 0.36238 0.07802 0.0
Co302 Co 0.73982 0.46167 0.0884 0.0
C303 C 0.78514 0.26829 0.13069 0.0
C304 C 0.75364 0.23524 0.0928 0.0
N305 N 0.76995 0.28884 0.10858 0.0
N306 N 0.77799 0.20438 0.12902 0.0
C307 C 0.7582 0.18402 0.10517 0.0
H308 H 0.80031 0.29915 0.14772 0.0
H309 H 0.73746 0.23322 0.07356 0.0
C310 C 0.85205 0.46906 0.1122 0.0
N311 N 0.71244 0.53326 0.07526 0.0
C312 C 0.64932 0.53821 0.074 0.0
C313 C 0.74245 0.56079 0.05392 0.0
N314 N 0.63874 0.56269 0.05205 0.0
C315 C 0.69791 0.57816 0.03974 0.0
C316 C 0.69179 0.44122 0.13996 0.0
O317 O 0.83641 0.40927 0.10992 0.0
O318 O 0.81736 0.50384 0.10307 0.0
O319 O 0.69298 0.47926 0.12277 0.0
O320 O 0.71705 0.39043 0.13362 0.0
O321 O 0.66787 0.4185 0.07546 0.0
H322 H 0.79258 0.55991 0.04674 0.0
H323 H 0.61088 0.51616 0.08688 0.0
O324 O 0.6782 0.32969 0.08888 0.0
O325 O 0.79784 0.34758 0.06397 0.0
O326 O 0.78705 0.44116 0.05458 0.0
C327 C 0.80642 0.38761 0.04735 0.0
H328 H 0.74893 0.13516 0.09707 0.0
H329 H 0.70809 0.59486 1.02038 0.0
Co330 Co 0.38354 0.98229 0.33855 0.0
C331 C 0.29451 0.04511 0.37744 0.0
Co332 Co 0.33891 0.92666 0.3707 0.0
C333 C 0.42294 1.02498 0.28629 0.0
C334 C 0.44414 0.09512 0.3187 0.0
N335 N 0.41974 1.03444 0.31309 0.0
N336 N 0.44742 0.07767 0.27521 0.0
C337 C 0.46089 0.12185 0.29545 0.0
H338 H 0.40507 0.98153 0.2752 0.0
H339 H 0.44671 0.11934 0.33855 0.0
C340 C 0.42731 0.86986 0.33314 0.0
N341 N 0.30613 0.87514 0.39739 0.0
C342 C 0.30877 0.89032 0.42384 0.0
C343 C 0.2969 0.8117 0.39403 0.0
N344 N 0.30528 0.83899 0.43674 0.0
C345 C 0.29776 0.78949 0.41791 0.0
C346 C 0.28194 0.89032 0.32154 0.0
O347 O 0.43244 0.91962 0.32215 0.0
O348 O 0.39274 0.86606 0.3553 0.0
O349 O 0.27586 0.88207 0.34633 0.0
O350 O 0.3185 0.93999 0.31538 0.0
O351 O 0.28477 0.99236 0.38701 0.0
H352 H 0.29578 0.78308 0.37511 0.0
H353 H 0.31975 0.93805 0.43303 0.0
O354 O 0.33205 0.04874 0.3558 0.0
O355 O 0.45216 1.0181 0.36069 0.0
O356 O 0.40454 0.9654 0.3928 0.0
C357 C 0.45179 1.00262 0.38393 0.0
H358 H 0.47838 0.17069 0.29357 0.0
H359 H 0.29698 0.74075 0.4209 0.0
Co360 Co 0.15957 0.39938 0.44427 0.0
C361 C 0.1096 0.32601 0.4855 0.0
Co362 Co 0.21778 0.39441 0.4758 0.0
C363 C 0.11052 0.41166 0.39593 0.0
C364 C 0.03571 0.38388 0.42606 0.0
N365 N 0.09993 0.39722 0.42107 0.0
N366 N 0.05585 0.40811 0.38523 0.0
C367 C 1.00843 0.39007 0.40385 0.0
H368 H 0.15718 0.42526 0.38559 0.0
H369 H 1.00997 0.37161 0.44478 0.0
C370 C 0.27602 0.46583 0.43175 0.0
N371 N 0.27911 0.39346 0.49854 0.0
C372 C 0.27496 0.38435 0.52449 0.0
C373 C 0.34111 0.38971 0.48903 0.0
N374 N 0.33192 0.37443 0.53103 0.0
C375 C 0.37337 0.37811 0.5088 0.0
C376 C 0.22944 0.29509 0.43203 0.0
O377 O 0.22062 0.45636 0.42424 0.0
O378 O 0.28164 0.44709 0.45381 0.0
O379 O 0.2473 0.31725 0.4547 0.0
O380 O 0.19492 0.32778 0.42236 0.0
O381 O 0.15974 0.34324 0.49627 0.0
H382 H 0.36133 0.39157 0.46851 0.0
H383 H 0.23082 0.38165 0.53787 0.0
O384 O 0.10342 0.34364 0.46346 0.0
O385 O 0.11886 0.46744 0.46672 0.0
O386 O 0.1782 0.46818 0.49802 0.0
C387 C 0.12908 0.48707 0.49065 0.0
H388 H 0.95805 0.38321 0.40164 0.0
H389 H 0.42316 0.37086 0.50689 0.0
Co390 Co 0.90173 0.91412 0.19315 0.0
C391 C 0.97752 0.89046 0.22855 0.0
Co392 Co 0.91466 0.98732 0.22686 0.0
C393 C 0.91824 0.86162 0.13838 0.0
C394 C 0.86036 0.79616 0.16173 0.0
N395 N 0.89624 0.85254 0.16375 0.0
N396 N 0.89774 0.81402 0.12025 0.0
C397 C 0.86016 0.77316 0.13532 0.0
H398 H 0.94378 0.90552 0.13331 0.0
H399 H 0.83104 0.77535 0.17801 0.0
C400 C 0.83955 1.01625 0.18944 0.0
N401 N 0.91894 0.04905 0.25505 0.0
C402 C 0.90949 0.04199 0.28107 0.0
C403 C 0.92527 0.11173 0.25407 0.0
N404 N 0.90802 0.0977 0.29633 0.0
C405 C 0.91803 0.14189 0.27958 0.0
C406 C 1.00989 1.00967 0.18477 0.0
O407 O 0.84718 0.9608 0.17868 0.0
O408 O 0.8593 1.03411 0.21196 0.0
O409 O 0.98818 1.03309 0.20788 0.0
O410 O 0.97841 0.96006 0.17429 0.0
O411 O 0.96902 0.94426 0.24054 0.0
H412 H 0.93148 0.13381 0.23597 0.0
H413 H 0.89956 0.99687 0.28872 0.0
O414 O 0.95459 0.87004 0.207 0.0
O415 O 0.82967 0.86678 0.2133 0.0
O416 O 0.84395 0.93637 0.2475 0.0
C417 C 0.81969 0.88121 0.23847 0.0
H418 H 0.82871 0.73267 0.1283 0.0
H419 H 0.91689 0.19181 0.2854 0.0
Co420 Co 0.28485 0.62672 0.9682 0.0
C421 C 0.16552 0.60597 0.95042 0.0
Co422 Co 0.25841 0.71641 0.95699 0.0
C423 C 0.38769 0.56446 0.9832 0.0
C424 C 0.29645 0.53016 1.00214 0.0
N425 N 0.32351 0.56245 0.98173 0.0
N426 N 0.4012 0.53851 1.00431 0.0
C427 C 0.34336 0.516 1.01593 0.0
H428 H 0.42403 0.59077 0.97088 0.0
H429 H 0.24577 0.52452 1.00884 0.0
C430 C 0.37588 0.73655 0.97119 0.0
N431 N 0.22892 0.78666 0.94626 0.0
C432 C 0.25256 0.82256 0.92636 0.0
C433 C 0.17498 0.81079 0.95744 0.0
N434 N 0.2154 0.86796 0.92499 0.0
C435 C 0.16656 0.86025 0.94446 0.0
C436 C 0.22744 0.70218 1.0113 0.0
O437 O 0.35998 0.67951 0.97478 0.0
O438 O 0.33669 0.76589 0.96289 0.0
O439 O 0.22501 0.73981 0.99431 0.0
O440 O 0.24911 0.65029 1.00339 0.0
O441 O 0.17971 0.66526 0.94988 0.0
H442 H 0.14264 0.79244 0.97361 0.0
H443 H 0.2949 0.81438 0.91262 0.0
O444 O 0.20398 0.57567 0.95982 0.0
O445 O 0.3205 0.60405 0.93268 0.0
O446 O 0.29377 0.69098 0.92144 0.0
C447 C 0.31904 0.6399 0.91499 0.0
H448 H 0.33518 0.49542 0.03445 0.0
H449 H 0.1263 0.88715 0.94835 0.0
Co450 Co 0.68388 0.13382 0.68714 0.0
C451 C 0.59047 0.1917 0.72008 0.0
Co452 Co 0.63094 0.07928 0.71815 0.0
C453 C 0.72034 0.16493 0.63429 0.0
C454 C 0.74269 0.24483 0.66243 0.0
N455 N 0.72315 0.18234 0.66056 0.0
N456 N 0.73425 0.21397 0.62008 0.0
C457 C 0.74989 0.26439 0.63744 0.0
H458 H 0.70595 0.1174 0.62566 0.0
H459 H 0.74812 0.27497 0.68081 0.0
C460 C 0.72453 1.01409 0.684 0.0
N461 N 0.58777 1.02857 0.7429 0.0
C462 C 0.5819 0.03822 0.7697 0.0
C463 C 0.56398 0.96777 0.73711 0.0
N464 N 0.55781 0.98524 0.78063 0.0
C465 C 0.54623 0.94088 0.76022 0.0
C466 C 0.57559 0.05801 0.6697 0.0
O467 O 0.73824 0.06615 0.6739 0.0
O468 O 0.68367 1.01277 0.70468 0.0
O469 O 0.56854 0.04273 0.69323 0.0
O470 O 0.62446 0.09502 0.66277 0.0
O471 O 0.58065 0.14146 0.73089 0.0
H472 H 0.5628 0.94325 0.71733 0.0
H473 H 0.59943 0.08151 0.78101 0.0
O474 O 0.63002 0.19596 0.69928 0.0
O475 O 0.7411 0.17921 0.71373 0.0
O476 O 0.68998 0.12315 0.74422 0.0
C477 C 0.72733 0.17297 0.7387 0.0
H478 H 0.76421 0.3118 0.63246 0.0
H479 H 0.52905 0.89189 0.76192 0.0
C480 C 0.47454 0.34544 0.0678 0.0
C481 C 0.46848 0.28391 0.05532 0.0
C482 C 0.58313 0.28407 0.04891 0.0
C483 C 0.58639 0.33708 0.06861 0.0
N484 N 0.53306 0.41614 0.09865 0.0
N485 N 0.51319 0.2011 1.02643 0.0
C486 C 0.53191 0.36866 0.07811 0.0
C487 C 0.5222 0.2561 0.04273 0.0
N488 N 0.42349 0.37853 0.07159 0.0
N489 N 0.63753 0.26065 0.03678 0.0
H490 H 0.46757 0.18254 1.02181 0.0
H491 H 0.54947 0.17477 1.01761 0.0
H492 H 0.68263 0.28193 0.04068 0.0
H493 H 0.63849 0.22222 1.02218 0.0
H494 H 0.42578 0.42568 0.07957 0.0
H495 H 0.3814 0.35953 0.06371 0.0
H496 H 0.49254 0.43651 0.10749 0.0
H497 H 0.57287 0.43087 0.10862 0.0
C498 C 0.54209 0.76018 0.29556 0.0
C499 C 0.51141 0.70499 0.30531 0.0
C500 C 0.41605 0.75349 0.32019 0.0
C501 C 0.45389 0.81338 0.3191 0.0
N502 N 0.55404 0.87328 0.30317 0.0
N503 N 0.41587 0.64113 0.31953 0.0
C504 C 0.5167 0.81706 0.30515 0.0
C505 C 0.44642 0.69876 0.31442 0.0
N506 N 0.59678 0.75749 0.27836 0.0
N507 N 0.35161 0.74889 0.32651 0.0
H508 H 0.43781 0.60053 0.31327 0.0
H509 H 0.37058 0.63367 0.33009 0.0
H510 H 0.32768 0.78797 0.33072 0.0
H511 H 0.32144 0.70671 0.32547 0.0
H512 H 0.6192 0.79524 0.2685 0.0
H513 H 0.61521 0.71478 0.27216 0.0
H514 H 0.60116 0.87667 0.29434 0.0
H515 H 0.54046 0.91647 0.31191 0.0
C516 C 0.04323 0.86894 0.5786 0.0
C517 C 0.09425 0.83117 0.57124 0.0
C518 C 0.02667 0.75478 0.54484 0.0
C519 C 0.97527 0.78631 0.55683 0.0
N520 N 0.93517 0.88329 0.57236 0.0
N521 N 0.13595 0.73899 0.54596 0.0
C522 C 0.98478 0.84817 0.56856 0.0
C523 C 0.08702 0.77471 0.55343 0.0
N524 N 0.04878 0.92057 0.59713 0.0
N525 N 1.0156 0.70431 0.5263 0.0
H526 H 0.18076 0.75175 0.55209 0.0
H527 H 0.1313 0.69481 0.53493 0.0
H528 H 0.96979 0.69055 0.52084 0.0
H529 H 0.05135 0.68044 0.51505 0.0
H530 H 1.01373 0.95024 0.60308 0.0
H531 H 0.0865 0.93053 0.60852 0.0
H532 H 0.93836 0.93018 0.58051 0.0
H533 H 0.89161 0.86516 0.56547 0.0
C534 C 0.0583 0.28658 0.79875 0.0
C535 C 0.02482 0.22811 0.80328 0.0
C536 C 0.92761 0.27373 0.81724 0.0
C537 C 0.96564 0.33379 0.82086 0.0
N538 N 0.06922 0.39697 0.81434 0.0
N539 N 0.92698 0.16042 0.80717 0.0
C540 C 0.03138 0.34083 0.81061 0.0
C541 C 0.95857 0.21997 0.80847 0.0
N542 N 0.1165 0.28891 0.78393 0.0
N543 N 0.86277 0.26782 0.8223 0.0
H544 H 0.95021 0.12172 0.79868 0.0
H545 H 0.87917 0.14899 0.81426 0.0
H546 H 0.83792 0.30484 0.83027 0.0
H547 H 0.83279 0.22698 0.81731 0.0
H548 H 0.14184 0.33047 0.77801 0.0
H549 H 0.13423 0.24738 0.77507 0.0
H550 H 0.11859 0.40158 0.80923 0.0
H551 H 0.0529 0.43775 0.82467 0.0
C552 C 0.50529 0.83361 1.00786 0.0
C553 C 0.55588 0.79819 0.99827 0.0
C554 C 0.48984 0.7266 0.97045 0.0
C555 C 0.43993 0.7653 0.97741 0.0
N556 N 0.40651 0.86473 0.99885 0.0
N557 N 0.58534 0.69616 0.98329 0.0
C558 C 0.44881 0.82143 0.99528 0.0
C559 C 0.5433 0.73867 0.98445 0.0
N560 N 0.51388 0.88098 0.02794 0.0
N561 N 0.48872 0.68254 0.94872 0.0
H562 H 0.62418 0.70643 0.99421 0.0
H563 H 0.57739 0.65005 0.97421 0.0
H564 H 0.45324 0.67854 0.93627 0.0
H565 H 0.52621 0.65604 0.94161 0.0
H566 H 0.4774 0.9062 0.03767 0.0
H567 H 0.55699 0.89018 0.03613 0.0
H568 H 0.41382 0.9083 1.01017 0.0
H569 H 0.36649 0.85955 0.98885 0.0
C570 C 0.49759 0.24103 0.74515 0.0
C571 C 0.56288 0.24718 0.73388 0.0
C572 C 0.57342 0.35952 0.7498 0.0
C573 C 0.50737 0.35343 0.75435 0.0
N574 N 0.41558 0.29365 0.7738 0.0
N575 N 0.66636 0.31268 0.72937 0.0
C576 C 0.47274 0.29535 0.75824 0.0
C577 C 0.60249 0.30638 0.73781 0.0
N578 N 0.45805 0.18601 0.74128 0.0
N579 N 0.6069 0.41645 0.75675 0.0
H580 H 0.69158 0.27511 0.72254 0.0
H581 H 0.69482 0.35574 0.72873 0.0
H582 H 0.58333 0.45483 0.76551 0.0
H583 H 0.65638 0.4243 0.75601 0.0
H584 H 0.40903 0.18243 0.74726 0.0
H585 H 0.47221 0.14534 0.73003 0.0
H586 H 0.38977 0.25213 0.77953 0.0
H587 H 0.39945 0.33542 0.78334 0.0
C588 C 0.05238 0.22553 0.48209 0.0
C589 C 0.05757 0.28444 0.49707 0.0
C590 C 0.94508 0.29165 0.49677 0.0
C591 C 0.94521 0.24193 0.47524 0.0
N592 N 1.00217 0.16359 0.44621 0.0
N593 N 1.01014 0.36743 0.52464 0.0
C594 C 0.99947 0.20842 0.46783 0.0
C595 C 1.00329 0.3142 0.50709 0.0
N596 N 0.10241 0.19104 0.47898 0.0
N597 N 0.88991 0.31535 0.50796 0.0
H598 H 0.05329 0.38213 0.53243 0.0
H599 H 0.97509 0.39725 0.53061 0.0
H600 H 0.84536 0.29859 0.50207 0.0
H601 H 0.8869 0.34781 0.52496 0.0
H602 H 0.10203 0.14621 0.46859 0.0
H603 H 0.14255 0.20682 0.48881 0.0
H604 H 0.04295 0.14223 0.43879 0.0
H605 H 0.96605 0.15197 0.43399 0.0
C606 C 0.11344 0.80389 0.23014 0.0
C607 C 0.07883 0.74987 0.24015 0.0
C608 C 0.99151 0.81128 0.25688 0.0
C609 C 0.01796 0.85275 0.23792 0.0
N610 N 0.10125 0.88068 0.20272 0.0
N611 N 0.99008 0.70759 0.27024 0.0
C612 C 0.07904 0.8485 0.22399 0.0
C613 C 0.01974 0.75532 0.2564 0.0
N614 N 0.17786 0.80935 0.22412 0.0
N615 N 0.93937 0.82473 0.2744 0.0
H616 H 1.01292 0.66989 0.27305 0.0
H617 H 0.94315 0.70614 0.27939 0.0
H618 H 0.9191 0.86619 0.2749 0.0
H619 H 0.91995 0.7979 0.28968 0.0
H620 H 0.20472 0.8502 0.21802 0.0
H621 H 0.20346 0.7747 0.22761 0.0
H622 H 0.14418 0.87363 0.19079 0.0
H623 H 0.07357 0.90849 0.1952 0.0
C624 C 0.51811 0.03749 0.05606 0.0
C625 C 0.46236 0.05218 0.04633 0.0
C626 C 0.52483 0.04262 1.00088 0.0
C627 C 0.58 1.02621 1.01027 0.0
N628 N 0.63307 1.03274 0.04936 0.0
N629 N 0.40972 0.04047 1.00675 0.0
C630 C 0.57758 1.0305 0.0386 0.0
C631 C 0.46505 0.04666 1.01798 0.0
N632 N 0.5129 1.02343 0.08157 0.0
N633 N 0.5306 0.06086 0.97603 0.0
H634 H 0.36485 1.03381 1.01772 0.0
H635 H 0.40831 1.03106 0.98628 0.0
H636 H 0.57459 0.06826 0.9644 0.0
H637 H 0.49407 0.07858 0.96888 0.0
H638 H 0.54909 1.00661 0.08928 0.0
H639 H 0.46934 1.01841 0.09364 0.0
H640 H 0.63612 0.04214 0.0697 0.0
H641 H 0.6776 1.03513 0.03795 0.0
C642 C 0.78251 0.72181 0.27131 0.0
C643 C 0.74039 0.73741 0.29479 0.0
C644 C 0.75108 0.8477 0.28182 0.0
C645 C 0.7904 0.83091 0.25755 0.0
N646 N 0.84358 0.74852 0.22987 0.0
N647 N 0.68924 0.82027 0.32329 0.0
C648 C 0.80537 0.76691 0.25251 0.0
C649 C 0.72708 0.80206 0.30043 0.0
N650 N 0.80631 0.66524 0.26815 0.0
N651 N 0.73206 0.9066 0.28614 0.0
H652 H 0.65896 0.78946 0.33452 0.0
H653 H 0.68721 0.86666 0.33159 0.0
H654 H 0.74097 0.9379 0.27191 0.0
H655 H 0.70362 0.92436 0.30289 0.0
H656 H 0.84253 0.65224 0.25342 0.0
H657 H 0.79507 0.63315 0.28206 0.0
H658 H 0.84486 0.70178 0.22178 0.0
H659 H 0.87431 0.77965 0.21894 0.0
C660 C 0.02846 1.03357 0.54135 0.0
C661 C 0.09148 1.03544 0.52727 0.0
C662 C 0.04313 1.02085 0.48481 0.0
C663 C 0.98004 1.01586 0.49883 0.0
N664 N 0.91302 1.01063 0.5404 0.0
N665 N 0.15813 1.02483 0.48544 0.0
C666 C 0.97312 1.0209 0.52714 0.0
C667 C 0.09827 1.02671 0.49893 0.0
N668 N 0.02142 0.04293 0.5685 0.0
N669 N 0.05064 1.02423 0.45804 0.0
H670 H 0.19915 1.03362 0.495 0.0
H671 H 0.16726 1.01135 0.46508 0.0
H672 H 1.01246 1.02452 0.44742 0.0
H673 H 0.0946 1.03297 0.44663 0.0
H674 H 0.97868 0.05066 0.58027 0.0
H675 H 0.05924 0.04469 0.57955 0.0
H676 H 0.90262 1.01093 0.56088 0.0
H677 H 0.87269 0.99745 0.53057 0.0
C678 C 0.81914 0.32577 0.77524 0.0
C679 C 0.77422 0.34743 0.79744 0.0
C680 C 0.69842 0.25311 0.78197 0.0
C681 C 0.74481 0.22952 0.76081 0.0
N682 N 0.85486 0.24028 0.74243 0.0
N683 N 0.67099 0.32444 0.82208 0.0
C684 C 0.80624 0.26572 0.75885 0.0
C685 C 0.71429 0.3085 0.80072 0.0
N686 N 0.87595 0.36168 0.76959 0.0
N687 N 0.63684 0.22517 0.78361 0.0
H688 H 0.67531 0.36793 0.83373 0.0
H689 H 0.63196 0.29371 0.82892 0.0
H690 H 0.62223 0.18382 0.7723 0.0
H691 H 0.59869 0.24542 0.79489 0.0
H692 H 0.90535 0.35508 0.75163 0.0
H693 H 0.89279 0.40006 0.7821 0.0
H694 H 0.90271 0.25862 0.74226 0.0
H695 H 0.84842 0.19645 0.73113 0.0
C696 C 0.2738 0.3538 0.78817 0.0
C697 C 0.28355 0.34198 0.75981 0.0
C698 C 0.26074 0.22698 0.76472 0.0
C699 C 0.25136 0.23863 0.7931 0.0
N700 N 0.27701 0.31532 0.83029 0.0
N701 N 0.25614 0.26576 0.72281 0.0
C702 C 0.26527 0.30277 0.80441 0.0
C703 C 0.26885 0.27803 0.74857 0.0
N704 N 0.26791 0.41366 0.79988 0.0
N705 N 0.26677 0.16726 0.75286 0.0
H706 H 0.25127 0.30124 0.71161 0.0
H707 H 0.24005 0.22099 0.71412 0.0
H708 H 0.26934 0.1304 0.76369 0.0
H709 H 0.27926 0.15648 0.73246 0.0
H710 H 0.25494 0.42472 0.82023 0.0
H711 H 0.266 0.45045 0.78891 0.0
H712 H 0.29237 0.36022 0.83906 0.0
H713 H 0.28218 0.28018 0.8416 0.0
C714 C 0.29161 0.83193 0.27229 0.0
C715 C 0.26248 0.83423 0.29945 0.0
C716 C 0.22547 0.71849 0.28854 0.0
C717 C 0.25484 0.71637 0.26141 0.0
N718 N 0.33785 0.76982 0.23269 0.0
N719 N 0.18174 0.78021 0.32889 0.0
C720 C 0.29457 0.77276 0.25502 0.0
C721 C 0.22361 0.77751 0.30612 0.0
N722 N 0.3107 0.88696 0.26164 0.0
N723 N 0.20547 0.66316 0.29884 0.0
H724 H 0.17481 0.82241 0.34082 0.0
H725 H 0.14777 0.7428 0.33385 0.0
H726 H 0.217 0.62032 0.28869 0.0
H727 H 0.18832 0.66044 0.31881 0.0
H728 H 0.3275 0.88888 0.24158 0.0
H729 H 0.29902 0.93 0.27152 0.0
H730 H 0.37202 0.80734 0.22803 0.0
H731 H 0.34554 0.72749 0.221 0.0
C732 C 0.02517 0.54362 0.49971 0.0
C733 C 0.07551 0.52012 0.51006 0.0
C734 C 1.00683 0.52946 0.55437 0.0
C735 C 0.9568 0.55375 0.54416 0.0
N736 N 0.91307 0.55951 0.50363 0.0
N737 N 0.11909 0.51533 0.55078 0.0
C738 C 0.96464 0.5539 0.51585 0.0
C739 C 0.0676 0.52017 0.53838 0.0
N740 N 0.03718 0.56242 0.47486 0.0
N741 N 0.99434 0.5087 0.57885 0.0
H742 H 0.16521 0.51568 0.54093 0.0
H743 H 0.11794 0.52113 0.57141 0.0
H744 H 0.94888 0.50569 0.58956 0.0
H745 H 0.0257 0.48502 0.58652 0.0
H746 H 1.00597 0.58581 0.46697 0.0
H747 H 0.08227 0.56384 0.46385 0.0
H748 H 0.9137 0.55383 0.48304 0.0
H749 H 0.8672 0.55995 0.51368 0.0
C750 C 0.55274 0.49748 0.02754 0.0
C751 C 0.57857 0.55663 0.04017 0.0
C752 C 0.48843 0.6046 0.02799 0.0
C753 C 0.46214 0.54517 1.01567 0.0
N754 N 0.46554 0.43391 1.00633 0.0
N755 N 0.57561 0.66776 0.04962 0.0
C756 C 0.49342 0.49138 1.0163 0.0
C757 C 0.54752 0.61052 0.0395 0.0
N758 N 0.58733 0.44781 1.02484 0.0
N759 N 0.45474 0.65476 0.02995 0.0
H760 H 0.61698 0.67264 0.05887 0.0
H761 H 0.56052 0.71052 0.0478 0.0
H762 H 0.41082 0.65147 1.02279 0.0
H763 H 0.46785 0.69886 0.03989 0.0
H764 H 0.57532 0.40451 1.014 0.0
H765 H 0.63141 0.45136 0.03187 0.0
H766 H 0.48031 0.39138 1.00877 0.0
H767 H 0.42484 0.42862 0.99664 0.0
C768 C 0.26176 0.33674 0.1638 0.0
C769 C 0.26495 0.32694 0.13543 0.0
C770 C 0.23082 0.43321 0.13775 0.0
C771 C 0.23751 0.44651 0.16549 0.0
N772 N 0.27096 0.4115 0.20355 0.0
N773 N 0.26219 0.37396 0.09532 0.0
C774 C 0.25624 0.39828 0.17807 0.0
C775 C 0.25212 0.37742 0.12242 0.0
N776 N 0.26075 0.28649 0.17749 0.0
N777 N 0.20042 0.47165 0.126 0.0
H778 H 0.27677 0.33492 0.083 0.0
H779 H 0.2616 0.41244 0.08512 0.0
H780 H 0.18106 0.51087 0.13624 0.0
H781 H 0.18784 0.4605 0.10679 0.0
H782 H 0.25275 0.28953 0.19817 0.0
H783 H 0.25987 0.24036 0.16822 0.0
H784 H 0.29104 0.38041 0.21287 0.0
H785 H 0.26964 0.45598 0.21432 0.0
C786 C 0.40104 0.49688 0.36959 0.0
C787 C 0.45512 0.52868 0.3816 0.0
C788 C 0.38755 0.52804 0.42537 0.0
C789 C 0.33566 0.49075 0.4139 0.0
N790 N 0.3043 0.4238 0.37468 0.0
N791 N 0.50208 0.55166 0.42256 0.0
C792 C 0.34534 0.47095 0.38585 0.0
C793 C 0.44881 0.53782 0.40995 0.0
N794 N 0.40144 0.49176 0.34267 0.0
N795 N 0.37861 0.55627 0.45095 0.0
H796 H 0.54779 0.55604 0.41222 0.0
H797 H 0.50064 0.54961 0.44288 0.0
H798 H 0.33411 0.55402 0.46249 0.0
H799 H 0.41387 0.58785 0.45945 0.0
H800 H 0.36062 0.47622 0.33338 0.0
H801 H 0.44072 0.50753 0.32978 0.0
H802 H 0.31264 0.40351 0.35502 0.0
H803 H 0.26651 0.39924 0.38564 0.0
C804 C 0.36082 0.68422 0.66695 0.0
C805 C 0.3195 0.66692 0.64718 0.0
C806 C 0.30169 0.55844 0.65906 0.0
C807 C 0.3469 0.57457 0.67766 0.0
N808 N 0.43421 0.65041 0.69217 0.0
N809 N 0.26085 0.58552 0.62049 0.0
C810 C 0.38064 0.63681 0.67963 0.0
C811 C 0.29366 0.60307 0.64192 0.0
N812 N 0.37929 0.74634 0.67453 0.0
N813 N 0.26358 0.50214 0.65875 0.0
H814 H 0.25478 0.61762 0.60779 0.0
H815 H 0.24543 0.53889 0.6139 0.0
H816 H 0.26507 0.46979 0.67195 0.0
H817 H 0.22591 0.49028 0.64734 0.0
H818 H 0.40306 0.76205 0.69113 0.0
H819 H 0.36632 0.78238 0.66557 0.0
H820 H 0.46354 0.69314 0.69183 0.0
H821 H 0.45444 0.61678 0.69972 0.0
C822 C 0.05644 0.50172 0.90206 0.0
C823 C 1.00503 0.53862 0.90403 0.0
C824 C 0.05041 0.60568 0.94183 0.0
C825 C 0.10682 0.57488 0.93728 0.0
N826 N 0.1661 0.49796 0.90908 0.0
N827 N 0.95875 0.63178 0.92384 0.0
C828 C 0.11024 0.52357 0.9165 0.0
C829 C 1.00363 0.5922 0.92345 0.0
N830 N 0.05392 0.4451 0.88648 0.0
N831 N 0.04061 0.64702 0.96429 0.0
H832 H 0.92528 0.62417 0.91032 0.0
H833 H 0.95865 0.67492 0.93571 0.0
H834 H 0.0722 0.65601 0.9786 0.0
H835 H 0.99822 0.66679 0.97014 0.0
H836 H 0.08591 0.41275 0.88647 0.0
H837 H 0.01655 0.4281 0.87531 0.0
H838 H 0.1738 0.46618 0.89204 0.0
H839 H 0.20691 0.51218 0.91842 0.0
C840 C 0.77317 0.63458 0.91821 0.0
C841 C 0.76936 0.61608 0.89053 0.0
C842 C 0.74393 0.72335 0.88736 0.0
C843 C 0.74149 0.73978 0.91548 0.0
N844 N 0.73674 0.70033 0.95801 0.0
N845 N 0.73517 0.64004 0.8505 0.0
C846 C 0.75104 0.69225 0.93096 0.0
C847 C 0.74978 0.65971 0.87571 0.0
N848 N 0.8014 0.59942 0.9324 0.0
N849 N 0.74433 0.76897 0.87132 0.0
H850 H 0.73671 0.59372 0.8417 0.0
H851 H 0.71473 0.6676 0.8396 0.0
H852 H 0.74391 0.81621 0.87859 0.0
H853 H 0.75255 0.76103 0.85063 0.0
H854 H 0.81205 0.61466 0.95169 0.0
H855 H 0.82121 0.55885 0.92413 0.0
H856 H 0.73613 0.66446 0.96979 0.0
H857 H 0.7181 0.73966 0.96851 0.0
C858 C 0.64794 0.51569 0.67792 0.0
C859 C 0.58644 0.53129 0.6753 0.0
C860 C 0.63723 0.59709 0.64069 0.0
C861 C 0.69838 0.57688 0.6409 0.0
N862 N 0.75627 0.50427 0.65691 0.0
N863 N 0.52253 0.57119 0.64758 0.0
C864 C 0.70225 0.53282 0.6589 0.0
C865 C 0.58116 0.56675 0.65455 0.0
N866 N 0.6545 0.48393 0.69848 0.0
N867 N 0.6325 0.64905 0.62913 0.0
H868 H 0.48034 0.54899 0.65681 0.0
H869 H 0.51665 0.59143 0.63083 0.0
H870 H 0.67255 0.67825 0.62255 0.0
H871 H 0.59001 0.66864 0.63025 0.0
H872 H 0.69858 0.47652 0.70329 0.0
H873 H 0.61569 0.46927 0.71195 0.0
H874 H 0.75986 0.46746 0.66759 0.0
H875 H 0.79507 0.51246 0.64245 0.0
C876 C 0.75552 0.4111 0.38373 0.0
C877 C 0.71535 0.40375 0.40814 0.0
C878 C 0.67846 0.50481 0.40591 0.0
C879 C 0.70737 0.50691 0.3791 0.0
N880 N 0.77651 0.45948 0.34255 0.0
N881 N 0.62473 0.4363 0.43767 0.0
C882 C 0.74625 0.45866 0.36786 0.0
C883 C 0.67194 0.44796 0.41739 0.0
N884 N 0.80489 0.37585 0.37648 0.0
N885 N 0.66201 0.5576 0.42165 0.0
H886 H 0.61717 0.3938 0.44585 0.0
H887 H 0.58934 0.46583 0.44398 0.0
H888 H 0.67586 0.60255 0.41642 0.0
H889 H 0.64423 0.55722 0.4417 0.0
H890 H 0.83974 0.38344 0.36042 0.0
H891 H 0.81429 0.34266 0.38793 0.0
H892 H 0.79887 0.42194 0.33219 0.0
H893 H 0.77811 0.49741 0.33177 0.0
C894 C 0.94632 0.55342 0.12417 0.0
C895 C 0.90662 0.49601 0.12834 0.0
C896 C 0.98014 0.47611 0.15863 0.0
C897 C 1.01393 0.53707 0.15778 0.0
N898 N 1.01361 0.64066 0.14488 0.0
N899 N 0.87496 0.4193 0.15981 0.0
C900 C 0.99279 0.57787 0.14196 0.0
C901 C 0.92034 0.462 0.14855 0.0
N902 N 0.94203 0.58401 0.10296 0.0
N903 N 1.00548 0.43052 0.16824 0.0
H904 H 0.82734 0.41446 0.15645 0.0
H905 H 0.88269 0.39643 0.17557 0.0
H906 H 0.052 0.43705 0.17318 0.0
H907 H 0.9834 0.38426 0.16774 0.0
H908 H 0.97369 0.62327 0.0982 0.0
H909 H 0.91203 0.56645 0.08856 0.0
H910 H 0.99396 0.67277 0.13592 0.0
H911 H 0.04436 0.66142 0.15861 0.0
C912 C 0.83339 0.89067 0.6462 0.0
C913 C 0.78886 0.83497 0.64362 0.0
C914 C 0.70379 0.89683 0.66629 0.0
C915 C 0.74807 0.95258 0.6701 0.0
N916 N 0.85824 0.99722 0.66822 0.0
N917 N 0.68858 0.78293 0.66146 0.0
C918 C 0.81391 0.94794 0.66126 0.0
C919 C 0.72606 0.83756 0.6566 0.0
N920 N 0.89442 0.88928 0.63403 0.0
N921 N 0.63967 0.90015 0.67064 0.0
H922 H 0.70665 0.73976 0.65757 0.0
H923 H 0.64389 0.7815 0.67281 0.0
H924 H 0.62041 0.94225 0.67592 0.0
H925 H 0.60592 0.86217 0.6657 0.0
H926 H 0.92753 0.92916 0.63303 0.0
H927 H 0.91105 0.84869 0.62361 0.0
H928 H 0.90726 0.99516 0.66512 0.0
H929 H 0.84587 0.03873 0.67944 0.0
C930 C 0.83973 0.99017 0.88223 0.0
C931 C 0.83231 1.00383 0.91075 0.0
C932 C 0.94655 0.04884 0.90658 0.0
C933 C 0.9513 0.04341 0.87825 0.0
N934 N 0.89299 1.02149 0.84009 0.0
N935 N 0.87767 0.06606 0.94808 0.0
C936 C 0.89515 1.01785 0.86638 0.0
C937 C 0.88546 0.03914 0.92227 0.0
N938 N 0.79641 0.94801 0.86981 0.0
N939 N 1.00068 0.06034 0.91882 0.0
H940 H 0.83319 0.06542 0.95958 0.0
H941 H 0.91373 0.09617 0.95672 0.0
H942 H 0.04633 0.06183 0.90828 0.0
H943 H 1.0 0.05982 0.93922 0.0
H944 H 0.8036 0.93184 0.84958 0.0
H945 H 0.75719 0.9235 0.87975 0.0
H946 H 0.85096 1.01032 0.83127 0.0
H947 H 0.93105 0.04171 0.82776 0.0
C948 C 0.8531 0.07297 0.14789 0.0
C949 C 0.82025 0.06388 0.17379 0.0
C950 C 0.75892 0.15167 0.17059 0.0
C951 C 0.79629 0.16331 0.14613 0.0
N952 N 0.88782 0.14463 0.1147 0.0
N953 N 0.74338 0.09817 0.21037 0.0
C954 C 0.84573 0.1265 0.13581 0.0
C955 C 0.77393 0.10479 0.1854 0.0
N956 N 0.89213 1.03114 0.13447 0.0
N957 N 0.70728 0.18345 0.17896 0.0
H958 H 0.74812 0.06101 0.22069 0.0
H959 H 0.71507 0.13066 0.22126 0.0
H960 H 0.69594 0.21783 0.16854 0.0
H961 H 0.6737 0.17334 0.19512 0.0
H962 H 0.90716 1.02941 0.11411 0.0
H963 H 0.90934 0.99776 0.14324 0.0
H964 H 0.92889 0.12355 0.10742 0.0
H965 H 0.8852 0.18525 0.10617 0.0
C966 C 0.60515 0.99972 0.4169 0.0
C967 C 0.61161 0.06066 0.4322 0.0
C968 C 0.51765 0.08472 0.41324 0.0
C969 C 0.50796 1.02303 0.39986 0.0
N970 N 0.53717 0.91784 0.39286 0.0
N971 N 0.55499 0.1485 0.45192 0.0
C972 C 0.54978 0.97931 0.40314 0.0
C973 C 0.56208 0.09925 0.4324 0.0
N974 N 0.65252 0.9618 0.41407 0.0
N975 N 0.48534 0.13039 0.40747 0.0
H976 H 0.58174 0.15691 0.46793 0.0
H977 H 0.51695 0.17515 0.45415 0.0
H978 H 0.45361 0.12203 0.39324 0.0
H979 H 0.49506 0.17759 0.41492 0.0
H980 H 0.65431 0.92186 0.4002 0.0
H981 H 0.69274 0.97142 0.42391 0.0
H982 H 0.56049 0.88214 0.39734 0.0
H983 H 0.50031 0.90164 0.38131 0.0
C984 C 0.29895 0.20314 0.42288 0.0
C985 C 0.24444 0.22973 0.41808 0.0
C986 C 0.22176 0.13395 0.38583 0.0
C987 C 0.27182 0.10523 0.39314 0.0
N988 N 0.34366 0.10752 0.4258 0.0
N989 N 0.14222 0.20531 0.40063 0.0
C990 C 0.30552 0.13815 0.41401 0.0
C991 C 0.20254 0.19104 0.40102 0.0
N992 N 0.34724 0.24029 0.4344 0.0
N993 N 0.19143 0.10638 0.36463 0.0
H994 H 0.12221 0.24078 0.4136 0.0
H995 H 0.10868 0.17616 0.39015 0.0
H996 H 0.20198 0.06352 0.35404 0.0
H997 H 0.15924 0.12836 0.3566 0.0
H998 H 0.38975 0.22383 0.43654 0.0
H999 H 0.34897 0.28898 0.43829 0.0
H1000 H 0.36432 0.12757 0.44279 0.0
H1001 H 0.34926 0.06026 0.42027 0.0
C1002 C 0.13216 1.03054 0.17658 0.0
C1003 C 0.07153 0.03927 0.17013 0.0
C1004 C 0.12725 0.0973 0.13332 0.0
C1005 C 0.18744 0.07819 0.13684 0.0
N1006 N 0.24194 1.0161 0.16028 0.0
N1007 N 1.0151 0.10413 0.14999 0.0
C1008 C 0.18844 0.04241 0.1582 0.0
C1009 C 0.06994 0.07828 0.15023 0.0
N1010 N 0.13713 1.01601 0.20127 0.0
N1011 N 0.12422 0.1349 0.11424 0.0
H1012 H 0.97552 0.09652 0.16416 0.0
H1013 H 1.01082 0.13872 0.1383 0.0
H1014 H 0.16333 0.16278 0.10578 0.0
H1015 H 0.08212 0.13915 0.10683 0.0
H1016 H 0.18086 1.01545 0.20813 0.0
H1017 H 0.09777 1.01118 0.21579 0.0
H1018 H 0.243 0.98494 0.17404 0.0
H1019 H 0.28256 1.01916 0.14635 0.0
C1020 C 0.24418 1.01454 0.88948 0.0
C1021 C 0.19708 0.99929 0.87158 0.0
C1022 C 0.17958 0.89096 0.88397 0.0
C1023 C 0.21832 0.90919 0.90456 0.0
N1024 N 0.28506 0.98914 0.92847 0.0
N1025 N 0.10912 0.92398 0.8572 0.0
C1026 C 0.25032 0.97124 0.90764 0.0
C1027 C 0.16254 0.9374 0.8699 0.0
N1028 N 0.28407 0.06961 0.88871 0.0
N1029 N 0.15737 0.82891 0.87838 0.0
H1030 H 0.08969 0.95707 0.84898 0.0
H1031 H 0.07896 0.88182 0.85782 0.0
H1032 H 0.16796 0.79429 0.88887 0.0
H1033 H 0.13418 0.81134 0.86178 0.0
H1034 H 0.32249 0.08128 0.89972 0.0
H1035 H 0.28255 0.10102 0.8751 0.0
H1036 H 0.30386 1.03545 0.93389 0.0
H1037 H 0.29175 0.95758 0.94129 0.0
C1038 C 0.53211 0.99175 0.62934 0.0
C1039 C 0.52462 0.03945 0.65126 0.0
C1040 C 0.41927 0.05262 0.63892 0.0
C1041 C 0.42484 1.00221 0.61794 0.0
N1042 N 0.49094 0.93205 0.58992 0.0
N1043 N 0.47064 0.12801 0.67148 0.0
C1044 C 0.48274 0.9742 0.61227 0.0
C1045 C 0.47095 0.07357 0.65441 0.0
N1046 N 0.58686 0.9636 0.62479 0.0
N1047 N 0.36331 0.07863 0.6451 0.0
H1048 H 0.50774 0.14525 0.68273 0.0
H1049 H 0.4371 0.15933 0.67264 0.0
H1050 H 0.32505 0.06678 0.63403 0.0
H1051 H 0.35271 0.10892 0.66232 0.0
H1052 H 0.59381 0.92386 0.61131 0.0
H1053 H 0.62613 0.97999 0.63496 0.0
H1054 H 0.5326 0.91178 0.5832 0.0
H1055 H 0.45673 0.92022 0.57675 0.0
C1056 C 0.24633 0.21001 0.97217 0.0
C1057 C 0.20239 0.21456 0.99563 0.0
C1058 C 0.12951 0.2604 0.97291 0.0
C1059 C 0.17228 0.25353 0.94923 0.0
N1060 N 0.27582 0.2348 0.9268 0.0
N1061 N 0.10897 0.25314 1.02053 0.0
C1062 C 0.23254 0.23295 0.94917 0.0
C1063 C 0.14622 0.24329 0.99671 0.0
N1064 N 0.2995 0.18083 0.97172 0.0
N1065 N 0.07183 0.28029 0.97204 0.0
H1066 H 0.12051 0.23985 0.03799 0.0
H1067 H 0.06933 0.27759 1.02344 0.0
H1068 H 0.05989 0.29429 0.9548 0.0
H1069 H 0.03531 0.28114 0.98783 0.0
H1070 H 0.33017 0.16937 0.95458 0.0
H1071 H 0.31151 0.16511 0.98856 0.0
H1072 H 0.32257 0.22488 0.92572 0.0
H1073 H 0.26618 0.25108 0.90966 0.0
C1074 C 0.70883 0.4982 0.18453 0.0
C1075 C 0.66794 0.45785 0.1682 0.0
C1076 C 0.59331 0.43488 0.20767 0.0
C1077 C 0.6384 0.46809 0.22395 0.0
N1078 N 0.74378 0.52207 0.22821 0.0
N1079 N 0.57397 0.3829 0.16391 0.0
C1080 C 0.69732 0.49773 0.21248 0.0
C1081 C 0.6107 0.42487 0.17967 0.0
N1082 N 0.75895 0.53652 0.17335 0.0
N1083 N 0.53361 0.41417 0.21906 0.0
H1084 H 0.58515 0.37478 0.14332 0.0
H1085 H 0.53455 0.35353 0.17132 0.0
H1086 H 0.51983 0.42157 0.23953 0.0
H1087 H 0.49636 0.39462 0.20819 0.0
H1088 H 0.78682 0.571 0.18441 0.0
H1089 H 0.76886 0.53825 0.15292 0.0
H1090 H 0.79013 0.53869 0.22073 0.0
H1091 H 0.7381 0.51975 0.24866 0.0
C1092 C 0.37357 0.88507 0.50185 0.0
C1093 C 0.33385 0.84361 0.51815 0.0
C1094 C 0.27985 0.795 0.48022 0.0
C1095 C 0.3182 0.83718 0.46374 0.0
N1096 N 0.41926 0.90252 0.45692 0.0
N1097 N 0.27704 0.7397 0.51847 0.0
C1098 C 0.37084 0.87628 0.47391 0.0
C1099 C 0.29632 0.79185 0.50589 0.0
N1100 N 0.41299 0.93334 0.5132 0.0
N1101 N 0.22525 0.76126 0.47245 0.0
H1102 H 0.29166 0.73532 0.5367 0.0
H1103 H 0.25301 0.69891 0.50933 0.0
H1104 H 0.20774 0.76662 0.45496 0.0
H1105 H 0.19379 0.73367 0.48497 0.0
H1106 H 0.43776 0.96931 0.5028 0.0
H1107 H 0.4186 0.93809 0.53337 0.0
H1108 H 0.46073 0.92801 0.46324 0.0
H1109 H 0.42146 0.89203 0.43632 0.0
C1110 C 0.02019 0.66126 0.71308 0.0
C1111 C 0.97274 0.63222 0.69703 0.0
C1112 C 0.91265 0.58457 0.73494 0.0
C1113 C 0.96308 0.60807 0.75031 0.0
N1114 N 0.07142 0.65652 0.75205 0.0
N1115 N 0.88517 0.55053 0.69063 0.0
C1116 C 0.01903 0.64277 0.73876 0.0
C1117 C 0.92241 0.5889 0.70732 0.0
N1118 N 0.06446 0.70824 0.70433 0.0
N1119 N 0.85422 0.56162 0.74681 0.0
H1120 H 0.89389 0.54959 0.67 0.0
H1121 H 0.85103 0.51465 0.69709 0.0
H1122 H 0.84321 0.56264 0.76736 0.0
H1123 H 0.81465 0.54878 0.73648 0.0
H1124 H 0.09653 0.73494 0.71629 0.0
H1125 H 0.06513 0.72449 0.686 0.0
H1126 H 0.11537 0.6771 0.74359 0.0
H1127 H 0.07262 0.64135 0.77047 0.0
C1128 C 0.93216 0.87126 0.08062 0.0
C1129 C 0.89921 0.81797 0.09186 0.0
C1130 C 0.83576 0.79563 0.05447 0.0
C1131 C 0.85724 0.85736 0.04773 0.0
N1132 N 0.92503 0.95536 0.0551 0.0
N1133 N 0.85489 0.71222 0.07865 0.0
C1134 C 0.90569 0.89538 0.06089 0.0
C1135 C 0.86023 0.7746 0.07585 0.0
N1136 N 0.99173 0.89447 0.08682 0.0
N1137 N 0.79286 0.75716 0.04031 0.0
H1138 H 0.88261 0.69561 0.09085 0.0
H1139 H 0.83115 0.67692 0.06641 0.0
H1140 H 0.77803 0.76913 1.02328 0.0
H1141 H 0.7699 0.71461 0.04614 0.0
H1142 H 0.02028 0.93043 0.07758 0.0
H1143 H 1.01495 0.87175 0.09876 0.0
H1144 H 0.95668 0.98661 0.0658 0.0
H1145 H 0.90476 0.97543 0.04136 0.0
C1146 C 0.40322 0.60214 0.87803 0.0
C1147 C 0.3412 0.62088 0.88642 0.0
C1148 C 0.32499 0.62157 0.83978 0.0
C1149 C 0.38837 0.60823 0.83183 0.0
N1150 N 0.49021 0.59086 0.84209 0.0
N1151 N 0.23655 0.62852 0.87501 0.0
C1152 C 0.42797 0.59949 0.85062 0.0
C1153 C 0.30025 0.62532 0.86717 0.0
N1154 N 0.4374 0.58405 0.89579 0.0
N1155 N 0.28922 0.63207 0.82099 0.0
H1156 H 0.2158 0.62687 0.89464 0.0
H1157 H 0.20274 0.62627 0.86197 0.0
H1158 H 0.30557 0.62725 0.8007 0.0
H1159 H 0.2452 0.64921 0.82538 0.0
H1160 H 0.47994 0.56446 0.89038 0.0
H1161 H 0.42091 0.58212 0.91577 0.0
H1162 H 0.52465 0.5918 0.85474 0.0
H1163 H 0.50879 0.58742 0.82201 0.0
C1164 C 0.68253 0.21888 0.57994 0.0
C1165 C 0.73687 0.21063 0.5917 0.0
C1166 C 0.79656 0.19124 0.54795 0.0
C1167 C 0.74069 0.19233 0.53556 0.0
N1168 N 0.62876 0.20388 0.54004 0.0
N1169 N 0.84225 0.18077 0.58758 0.0
C1170 C 0.68312 0.20599 0.55165 0.0
C1171 C 0.79276 0.19444 0.57585 0.0
N1172 N 0.63061 0.23873 0.59599 0.0
N1173 N 0.85464 0.19088 0.53313 0.0
H1174 H 0.84255 0.1861 0.60815 0.0
H1175 H 0.88085 0.15978 0.57703 0.0
H1176 H 0.85967 0.19097 0.51286 0.0
H1177 H 0.89792 0.19761 0.54101 0.0
H1178 H 0.59106 0.25103 0.58896 0.0
H1179 H 0.62906 0.24657 0.61666 0.0
H1180 H 0.58384 0.20764 0.55067 0.0
H1181 H 0.62798 0.19466 0.51952 0.0
C1182 C 0.07728 0.38378 0.33695 0.0
C1183 C 0.05075 0.42225 0.35914 0.0
C1184 C 0.02265 0.49165 0.32984 0.0
C1185 C 0.05586 0.45723 0.30801 0.0
N1186 N 0.12509 0.37794 0.29107 0.0
N1187 N 1.00631 0.51755 0.37772 0.0
C1188 C 0.08591 0.40507 0.3116 0.0
C1189 C 0.02521 0.47745 0.35591 0.0
N1190 N 0.09314 0.32649 0.34023 0.0
N1191 N 0.98764 0.53673 0.32546 0.0
H1192 H 1.00873 0.5089 0.3971 0.0
H1193 H 0.99316 0.56163 0.37654 0.0
H1194 H 0.98503 0.54775 0.30643 0.0
H1195 H 0.95726 0.55932 0.34034 0.0
H1196 H 0.1073 0.29361 0.32441 0.0
H1197 H 0.08612 0.30955 0.35872 0.0
H1198 H 0.15287 0.34334 0.2932 0.0
H1199 H 0.13475 0.39446 0.27251 0.0
C1200 C 0.71839 0.7818 0.4603 0.0
C1201 C 0.66301 0.74711 0.45087 0.0
C1202 C 0.65344 0.67914 0.48618 0.0
C1203 C 0.70479 0.71729 0.4971 0.0
N1204 N 0.78235 0.80925 0.49697 0.0
N1205 N 0.57245 0.66761 0.45683 0.0
C1206 C 0.73674 0.76969 0.48471 0.0
C1207 C 0.6289 0.69726 0.46443 0.0
N1208 N 0.75332 0.82593 0.44573 0.0
N1209 N 0.62929 0.62435 0.49643 0.0
H1210 H 0.55496 0.67453 0.4396 0.0
H1211 H 0.54059 0.6393 0.46885 0.0
H1212 H 0.6478 0.60946 0.51204 0.0
H1213 H 0.59536 0.59106 0.48802 0.0
H1214 H 0.7979 0.84838 0.44986 0.0
H1215 H 0.73891 0.83733 0.42847 0.0
H1216 H 0.80308 0.85184 0.49045 0.0
H1217 H 0.79672 0.80106 0.51474 0.0
C1218 C 0.22489 0.97012 0.68375 0.0
C1219 C 0.18685 0.98127 0.66443 0.0
C1220 C 0.10138 1.00621 0.70018 0.0
C1221 C 0.13635 0.9877 0.71871 0.0
N1222 N 0.23045 0.95141 0.72904 0.0
N1223 N 0.09198 1.02271 0.65587 0.0
C1224 C 0.19809 0.9699 0.71074 0.0
C1225 C 0.12662 1.00342 0.67297 0.0
N1226 N 0.28779 0.96254 0.67637 0.0
N1227 N 0.04298 1.02595 0.70855 0.0
H1228 H 0.1077 1.0258 0.6358 0.0
H1229 H 0.1077 1.0258 0.6358 0.0
H1230 H 0.02264 1.02806 0.72841 0.0
H1231 H 1.01524 0.03968 0.69557 0.0
H1232 H 0.32014 0.9609 0.68966 0.0
H1233 H 0.30962 0.96429 0.65697 0.0
H1234 H 0.27204 0.92996 0.72415 0.0
H1235 H 0.21364 0.95402 0.74926 0.0
C1236 C 0.78477 0.31217 0.97957 0.0
C1237 C 0.81664 0.35868 0.9637 0.0
C1238 C 0.86156 0.41634 1.00292 0.0
C1239 C 0.82821 0.37 1.01857 0.0
N1240 N 0.79292 0.25863 1.01713 0.0
N1241 N 0.90771 0.43816 0.9586 0.0
C1242 C 0.80112 0.31268 1.00548 0.0
C1243 C 0.86197 0.40607 0.97481 0.0
N1244 N 0.73672 0.26953 0.9707 0.0
N1245 N 0.89338 0.46951 1.01483 0.0
H1246 H 0.91401 0.42627 0.93803 0.0
H1247 H 0.94435 0.47038 0.96567 0.0
H1248 H 0.89937 0.47509 0.03498 0.0
H1249 H 0.91208 0.50815 1.00481 0.0
H1250 H 0.71043 0.23684 0.98244 0.0
H1251 H 0.71847 0.27149 0.953 0.0
H1252 H 0.77609 0.2152 1.00738 0.0
H1253 H 0.81155 0.25598 0.03466 0.0
C1254 C 0.3928 0.11282 0.24166 0.0
C1255 C 0.44667 0.08954 0.2483 0.0
C1256 C 0.50305 0.1022 0.20382 0.0
C1257 C 0.45152 0.13093 0.19814 0.0
N1258 N 0.35116 0.17187 0.21233 0.0
N1259 N 0.55393 0.06413 0.23727 0.0
C1260 C 0.39703 0.13797 0.21716 0.0
C1261 C 0.50205 0.08443 0.22971 0.0
N1262 N 0.33773 0.11083 0.25895 0.0
N1263 N 0.55223 0.09151 0.18423 0.0
H1264 H 0.55312 0.04929 0.25592 0.0
H1265 H 0.59824 0.06447 0.22574 0.0
H1266 H 0.55371 0.10481 0.16526 0.0
H1267 H 0.58935 0.06646 0.18612 0.0
H1268 H 0.29453 0.12089 0.25427 0.0
H1269 H 0.33398 0.09431 0.2774 0.0
H1270 H 0.31335 0.18425 0.22639 0.0
H1271 H 0.35358 0.19239 0.19486 0.0
C1272 C 0.42444 0.38034 0.58826 0.0
C1273 C 0.39673 0.32535 0.59975 0.0
C1274 C 0.32971 0.29824 0.56346 0.0
C1275 C 0.34827 0.3594 0.55566 0.0
N1276 N 0.40999 0.46086 0.562 0.0
N1277 N 0.35826 0.2175 0.58653 0.0
C1278 C 0.39491 0.40094 0.56846 0.0
C1279 C 0.35815 0.27963 0.58439 0.0
N1280 N 0.48267 0.40887 0.59433 0.0
N1281 N 0.28617 0.25756 0.5505 0.0
H1282 H 0.39224 0.20262 0.59631 0.0
H1283 H 0.3342 0.1811 0.57487 0.0
H1284 H 0.26771 0.26809 0.53403 0.0
H1285 H 0.2655 0.21506 0.55713 0.0
H1286 H 0.50794 0.44624 0.58494 0.0
H1287 H 0.5088 0.38946 0.60631 0.0
H1288 H 0.43965 0.49498 0.57244 0.0
H1289 H 0.38778 0.47782 0.54795 0.0
C1290 C 0.80639 0.08554 0.36174 0.0
C1291 C 0.8465 0.1235 0.37903 0.0
C1292 C 0.92932 0.1407 0.34172 0.0
C1293 C 0.88721 0.10704 0.32427 0.0
N1294 N 0.78098 0.06055 0.31658 0.0
N1295 N 0.94057 0.19754 0.38533 0.0
C1296 C 0.8244 0.0828 0.33396 0.0
C1297 C 0.90644 0.1543 0.369 0.0
N1298 N 0.75103 0.05246 0.37183 0.0
N1299 N 0.99156 0.15789 0.33224 0.0
H1300 H 0.92493 0.20901 0.40543 0.0
H1301 H 0.98157 0.22585 0.3785 0.0
H1302 H 1.00955 0.14776 0.31228 0.0
H1303 H 0.02633 0.17724 0.34442 0.0
H1304 H 0.72352 1.01863 0.36033 0.0
H1305 H 0.73504 0.0555 0.39209 0.0
H1306 H 0.73271 0.04774 0.32257 0.0
H1307 H 0.79167 0.0611 0.29608 0.0
C1308 C 0.16661 0.71469 0.0856 0.0
C1309 C 0.22639 0.72239 0.09573 0.0
C1310 C 0.27984 0.7421 0.05183 0.0
C1311 C 0.22214 0.72266 0.04057 0.0
N1312 N 0.10955 0.68814 0.04673 0.0
N1313 N 0.34102 0.73441 0.0874 0.0
C1314 C 0.1649 0.70856 0.05749 0.0
C1315 C 0.28338 0.73404 0.07856 0.0
N1316 N 0.11192 0.71555 0.10292 0.0
N1317 N 0.33109 0.7697 0.03693 0.0
H1318 H 0.34531 0.72597 0.10662 0.0
H1319 H 0.38413 0.73692 0.07494 0.0
H1320 H 0.3264 0.78066 1.01824 0.0
H1321 H 0.37345 0.7892 0.04439 0.0
H1322 H 0.06719 0.71584 0.09696 0.0
H1323 H 0.1127 0.72268 0.12347 0.0
H1324 H 0.06747 0.67087 0.05777 0.0
H1325 H 0.10703 0.68602 1.02637 0.0
C1326 C 0.49906 0.9235 0.84588 0.0
C1327 C 0.55121 0.94656 0.86033 0.0
C1328 C 0.60959 0.99102 0.82142 0.0
C1329 C 0.55484 0.97458 0.80793 0.0
N1330 N 0.44226 0.9387 0.80989 0.0
N1331 N 0.64621 1.02066 0.86437 0.0
C1332 C 0.49777 0.94494 0.82098 0.0
C1333 C 0.60352 0.98614 0.8489 0.0
N1334 N 0.45249 0.87915 0.85524 0.0
N1335 N 0.66811 1.00749 0.80789 0.0
H1336 H 0.64017 1.02243 0.88504 0.0
H1337 H 0.68272 0.05339 0.85697 0.0
H1338 H 0.67603 1.00578 0.78725 0.0
H1339 H 0.70995 1.01497 0.8169 0.0
H1340 H 0.41638 0.85688 0.84423 0.0
H1341 H 0.45368 0.86008 0.8728 0.0
H1342 H 0.39819 0.92203 0.81968 0.0
H1343 H 0.43947 0.95653 0.79218 0.0
loop_
_geom_bond_atom_site_label_1
_geom_bond_atom_site_label_2
_geom_bond_distance
_geom_bond_site_symmetry_2
_ccdc_geom_bond_type
Co0 N5 2.057 . S
Co0 O17 2.021 . S
Co0 O20 2.062 . S
Co0 O24 2.117 . S
Co0 O25 2.020 . S
C1 O21 1.259 . S
C1 O24 1.258 . S
Co2 N11 2.057 . S
Co2 O18 2.117 . S
Co2 O19 2.020 . S
Co2 O21 2.021 . S
Co2 O26 2.062 . S
C3 N5 1.316 . S
C3 N6 1.347 1_554 S
C3 H8 0.935 . S
C4 N5 1.375 . S
C4 C7 1.350 1_554 S
C4 H9 0.930 . S
N5 Co0 2.057 . S
N5 C3 1.316 . S
N5 C4 1.375 . S
N6 C3 1.347 1_556 S
N6 C7 1.373 . S
C7 C4 1.350 1_556 S
C7 N6 1.373 . S
C7 H28 0.931 . S
H8 C3 0.935 . S
H9 C4 0.930 . S
C10 O17 1.259 . S
C10 O18 1.258 . S
N11 Co2 2.057 . S
N11 C12 1.316 . S
N11 C13 1.375 . S
C12 N11 1.316 . S
C12 N14 1.347 . S
C12 H23 0.931 . S
C13 N11 1.375 . S
C13 C15 1.350 . S
C13 H22 0.930 . S
N14 C12 1.347 . S
N14 C15 1.373 . S
C15 C13 1.350 . S
C15 N14 1.373 . S
C15 H29 0.931 . S
C16 O19 1.256 . S
C16 O20 1.255 . S
O17 Co0 2.021 . S
O17 C10 1.259 . S
O18 Co2 2.117 . S
O18 C10 1.258 . S
O19 Co2 2.020 . S
O19 C16 1.256 . S
O20 Co0 2.062 . S
O20 C16 1.255 . S
O21 C1 1.259 . S
O21 Co2 2.021 . S
H22 C13 0.930 . S
H23 C12 0.931 . S
O24 Co0 2.117 . S
O24 C1 1.258 . S
O25 Co0 2.020 . S
O25 C27 1.256 . S
O26 Co2 2.062 . S
O26 C27 1.255 . S
C27 O25 1.256 . S
C27 O26 1.255 . S
H28 C7 0.931 . S
H29 C15 0.931 . S
Co30 N35 2.057 . S
Co30 O47 2.021 . S
Co30 O50 2.062 . S
Co30 O54 2.117 . S
Co30 O55 2.020 . S
C31 O51 1.259 . S
C31 O54 1.258 . S
Co32 N41 2.057 . S
Co32 O48 2.117 . S
Co32 O49 2.020 . S
Co32 O51 2.021 . S
Co32 O56 2.062 . S
C33 N35 1.316 . S
C33 N36 1.347 . S
C33 H38 0.931 . S
C34 N35 1.375 . S
C34 C37 1.350 . S
C34 H39 0.930 . S
N35 Co30 2.057 . S
N35 C33 1.316 . S
N35 C34 1.375 . S
N36 C33 1.347 . S
N36 C37 1.373 . S
C37 C34 1.350 . S
C37 N36 1.373 . S
C37 H58 0.931 . S
H38 C33 0.931 . S
H39 C34 0.930 . S
C40 O47 1.259 . S
C40 O48 1.258 . S
N41 Co32 2.057 . S
N41 C42 1.316 . S
N41 C43 1.375 . S
C42 N41 1.316 . S
C42 N44 1.347 . S
C42 H53 0.931 . S
C43 N41 1.375 . S
C43 C45 1.350 . S
C43 H52 0.930 . S
N44 C42 1.347 . S
N44 C45 1.373 . S
C45 C43 1.350 . S
C45 N44 1.373 . S
C45 H59 0.931 . S
C46 O49 1.256 . S
C46 O50 1.255 . S
O47 Co30 2.021 . S
O47 C40 1.259 . S
O48 Co32 2.117 . S
O48 C40 1.258 . S
O49 Co32 2.020 . S
O49 C46 1.256 . S
O50 Co30 2.062 . S
O50 C46 1.255 . S
O51 C31 1.259 . S
O51 Co32 2.021 . S
H52 C43 0.930 . S
H53 C42 0.931 . S
O54 Co30 2.117 . S
O54 C31 1.258 . S
O55 Co30 2.020 . S
O55 C57 1.256 . S
O56 Co32 2.062 . S
O56 C57 1.255 . S
C57 O55 1.256 . S
C57 O56 1.255 . S
H58 C37 0.931 . S
H59 C45 0.931 . S
Co60 N65 2.057 . S
Co60 O77 2.021 . S
Co60 O80 2.062 . S
Co60 O84 2.117 . S
Co60 O85 2.020 . S
C61 O81 1.259 . S
C61 O84 1.258 . S
Co62 N71 2.057 . S
Co62 O78 2.117 . S
Co62 O79 2.020 . S
Co62 O81 2.021 . S
Co62 O86 2.062 . S
C63 N65 1.316 . S
C63 N66 1.347 . S
C63 H68 0.931 . S
C64 N65 1.375 . S
C64 C67 1.350 . S
C64 H69 0.930 . S
N65 Co60 2.057 . S
N65 C63 1.316 . S
N65 C64 1.375 . S
N66 C63 1.347 . S
N66 C67 1.373 . S
C67 C64 1.350 . S
C67 N66 1.373 . S
C67 H88 0.931 . S
H68 C63 0.931 . S
H69 C64 0.930 . S
C70 O77 1.259 . S
C70 O78 1.258 . S
N71 Co62 2.057 . S
N71 C72 1.316 . S
N71 C73 1.375 1_565 S
C72 N71 1.316 . S
C72 N74 1.347 1_565 S
C72 H83 0.931 . S
C73 N71 1.375 1_545 S
C73 C75 1.350 . S
C73 H82 0.930 . S
N74 C72 1.347 1_545 S
N74 C75 1.373 . S
C75 C73 1.350 . S
C75 N74 1.373 . S
C75 H89 0.931 . S
C76 O79 1.256 . S
C76 O80 1.255 . S
O77 Co60 2.021 . S
O77 C70 1.259 . S
O78 Co62 2.117 . S
O78 C70 1.258 . S
O79 Co62 2.020 . S
O79 C76 1.256 . S
O80 Co60 2.062 . S
O80 C76 1.255 . S
O81 C61 1.259 . S
O81 Co62 2.021 . S
H82 C73 0.930 . S
H83 C72 0.931 . S
O84 Co60 2.117 . S
O84 C61 1.258 . S
O85 Co60 2.020 . S
O85 C87 1.256 . S
O86 Co62 2.062 . S
O86 C87 1.255 . S
C87 O85 1.256 . S
C87 O86 1.255 . S
H88 C67 0.931 . S
H89 C75 0.931 . S
Co90 N95 2.057 . S
Co90 O107 2.021 . S
Co90 O110 2.062 . S
Co90 O114 2.117 . S
Co90 O115 2.020 . S
C91 O111 1.259 . S
C91 O114 1.258 . S
Co92 N101 2.057 . S
Co92 O108 2.117 . S
Co92 O109 2.020 . S
Co92 O111 2.021 . S
Co92 O116 2.062 . S
C93 N95 1.316 . S
C93 N96 1.347 . S
C93 H98 0.931 . S
C94 N95 1.375 . S
C94 C97 1.350 . S
C94 H99 0.930 . S
N95 Co90 2.057 . S
N95 C93 1.316 . S
N95 C94 1.375 . S
N96 C93 1.347 . S
N96 C97 1.373 . S
C97 C94 1.350 . S
C97 N96 1.373 . S
C97 H118 0.931 . S
H98 C93 0.931 . S
H99 C94 0.930 . S
C100 O107 1.259 . S
C100 O108 1.258 . S
N101 Co92 2.057 . S
N101 C102 1.316 . S
N101 C103 1.375 . S
C102 N101 1.316 . S
C102 N104 1.347 . S
C102 H113 0.931 . S
C103 N101 1.375 . S
C103 C105 1.350 . S
C103 H112 0.930 . S
N104 C102 1.347 . S
N104 C105 1.373 . S
C105 C103 1.350 . S
C105 N104 1.373 . S
C105 H119 0.931 . S
C106 O109 1.256 . S
C106 O110 1.255 . S
O107 Co90 2.021 . S
O107 C100 1.259 . S
O108 Co92 2.117 . S
O108 C100 1.258 . S
O109 Co92 2.020 . S
O109 C106 1.256 . S
O110 Co90 2.062 . S
O110 C106 1.255 . S
O111 C91 1.259 . S
O111 Co92 2.021 . S
H112 C103 0.930 . S
H113 C102 0.931 . S
O114 Co90 2.117 . S
O114 C91 1.258 . S
O115 Co90 2.020 . S
O115 C117 1.256 . S
O116 Co92 2.062 . S
O116 C117 1.255 . S
C117 O115 1.256 . S
C117 O116 1.255 . S
H118 C97 0.931 . S
H119 C105 0.931 . S
Co120 N125 2.057 . S
Co120 O137 2.021 . S
Co120 O140 2.062 . S
Co120 O144 2.117 . S
Co120 O145 2.020 . S
C121 O141 1.259 . S
C121 O144 1.258 . S
Co122 N131 2.057 . S
Co122 O138 2.117 . S
Co122 O139 2.020 . S
Co122 O141 2.021 . S
Co122 O146 2.062 . S
C123 N125 1.316 . S
C123 N126 1.347 . S
C123 H128 0.931 . S
C124 N125 1.375 . S
C124 C127 1.350 . S
C124 H129 0.930 . S
N125 Co120 2.057 . S
N125 C123 1.316 . S
N125 C124 1.375 . S
N126 C123 1.347 . S
N126 C127 1.373 . S
C127 C124 1.350 . S
C127 N126 1.373 . S
C127 H148 0.931 . S
H128 C123 0.931 . S
H129 C124 0.930 . S
C130 O137 1.259 . S
C130 O138 1.258 . S
N131 Co122 2.057 . S
N131 C132 1.316 . S
N131 C133 1.375 . S
C132 N131 1.316 . S
C132 N134 1.347 1_556 S
C132 H143 0.935 . S
C133 N131 1.375 . S
C133 C135 1.350 1_556 S
C133 H142 0.930 . S
N134 C132 1.347 1_554 S
N134 C135 1.373 . S
C135 C133 1.350 1_554 S
C135 N134 1.373 . S
C135 H149 0.931 . S
C136 O139 1.256 . S
C136 O140 1.255 . S
O137 Co120 2.021 . S
O137 C130 1.259 . S
O138 Co122 2.117 . S
O138 C130 1.258 . S
O139 Co122 2.020 . S
O139 C136 1.256 . S
O140 Co120 2.062 . S
O140 C136 1.255 . S
O141 C121 1.259 . S
O141 Co122 2.021 . S
H142 C133 0.930 . S
H143 C132 0.935 . S
O144 Co120 2.117 . S
O144 C121 1.258 . S
O145 Co120 2.020 . S
O145 C147 1.256 . S
O146 Co122 2.062 . S
O146 C147 1.255 . S
C147 O145 1.256 . S
C147 O146 1.255 . S
H148 C127 0.931 . S
H149 C135 0.931 . S
Co150 N155 2.057 . S
Co150 O167 2.021 . S
Co150 O170 2.062 . S
Co150 O174 2.117 . S
Co150 O175 2.020 . S
C151 O171 1.259 . S
C151 O174 1.258 . S
Co152 N161 2.057 . S
Co152 O168 2.117 . S
Co152 O169 2.020 . S
Co152 O171 2.021 . S
Co152 O176 2.062 . S
C153 N155 1.316 . S
C153 N156 1.347 . S
C153 H158 0.931 . S
C154 N155 1.375 . S
C154 C157 1.350 . S
C154 H159 0.930 . S
N155 Co150 2.057 . S
N155 C153 1.316 . S
N155 C154 1.375 . S
N156 C153 1.347 . S
N156 C157 1.373 . S
C157 C154 1.350 . S
C157 N156 1.373 . S
C157 H178 0.931 . S
H158 C153 0.931 . S
H159 C154 0.930 . S
C160 O167 1.259 . S
C160 O168 1.258 . S
N161 Co152 2.057 . S
N161 C162 1.316 . S
N161 C163 1.375 . S
C162 N161 1.316 . S
C162 N164 1.347 . S
C162 H173 0.931 . S
C163 N161 1.375 . S
C163 C165 1.350 . S
C163 H172 0.930 . S
N164 C162 1.347 . S
N164 C165 1.373 . S
C165 C163 1.350 . S
C165 N164 1.373 . S
C165 H179 0.931 . S
C166 O169 1.256 . S
C166 O170 1.255 . S
O167 Co150 2.021 . S
O167 C160 1.259 . S
O168 Co152 2.117 . S
O168 C160 1.258 . S
O169 Co152 2.020 . S
O169 C166 1.256 . S
O170 Co150 2.062 . S
O170 C166 1.255 . S
O171 C151 1.259 . S
O171 Co152 2.021 . S
H172 C163 0.930 . S
H173 C162 0.931 . S
O174 Co150 2.117 . S
O174 C151 1.258 . S
O175 Co150 2.020 . S
O175 C177 1.256 . S
O176 Co152 2.062 . S
O176 C177 1.255 . S
C177 O175 1.256 . S
C177 O176 1.255 . S
H178 C157 0.931 . S
H179 C165 0.931 . S
Co180 N185 2.057 . S
Co180 O197 2.021 . S
Co180 O200 2.062 . S
Co180 O204 2.117 . S
Co180 O205 2.020 . S
C181 O201 1.259 . S
C181 O204 1.258 . S
Co182 N191 2.057 . S
Co182 O198 2.117 . S
Co182 O199 2.020 . S
Co182 O201 2.021 . S
Co182 O206 2.062 . S
C183 N185 1.316 . S
C183 N186 1.347 1_545 S
C183 H188 0.931 . S
C184 N185 1.375 1_565 S
C184 C187 1.350 . S
C184 H189 0.930 . S
N185 Co180 2.057 . S
N185 C183 1.316 . S
N185 C184 1.375 1_545 S
N186 C183 1.347 1_565 S
N186 C187 1.373 . S
C187 C184 1.350 . S
C187 N186 1.373 . S
C187 H208 0.931 . S
H188 C183 0.931 . S
H189 C184 0.930 . S
C190 O197 1.259 . S
C190 O198 1.258 . S
N191 Co182 2.057 . S
N191 C192 1.316 . S
N191 C193 1.375 . S
C192 N191 1.316 . S
C192 N194 1.347 . S
C192 H203 0.931 . S
C193 N191 1.375 . S
C193 C195 1.350 . S
C193 H202 0.930 . S
N194 C192 1.347 . S
N194 C195 1.373 . S
C195 C193 1.350 . S
C195 N194 1.373 . S
C195 H209 0.931 . S
C196 O199 1.256 . S
C196 O200 1.255 . S
O197 Co180 2.021 . S
O197 C190 1.259 . S
O198 Co182 2.117 . S
O198 C190 1.258 . S
O199 Co182 2.020 . S
O199 C196 1.256 . S
O200 Co180 2.062 . S
O200 C196 1.255 . S
O201 C181 1.259 . S
O201 Co182 2.021 . S
H202 C193 0.930 . S
H203 C192 0.931 . S
O204 Co180 2.117 . S
O204 C181 1.258 . S
O205 Co180 2.020 . S
O205 C207 1.256 . S
O206 Co182 2.062 . S
O206 C207 1.255 . S
C207 O205 1.256 . S
C207 O206 1.255 . S
H208 C187 0.931 . S
H209 C195 0.931 . S
Co210 N215 2.057 . S
Co210 O227 2.021 . S
Co210 O230 2.062 . S
Co210 O234 2.117 . S
Co210 O235 2.020 . S
C211 O231 1.259 . S
C211 O234 1.258 . S
Co212 N221 2.057 . S
Co212 O228 2.117 . S
Co212 O229 2.020 . S
Co212 O231 2.021 . S
Co212 O236 2.062 . S
C213 N215 1.316 . S
C213 N216 1.347 . S
C213 H218 0.931 . S
C214 N215 1.375 . S
C214 C217 1.350 . S
C214 H219 0.930 . S
N215 Co210 2.057 . S
N215 C213 1.316 . S
N215 C214 1.375 . S
N216 C213 1.347 . S
N216 C217 1.373 . S
C217 C214 1.350 . S
C217 N216 1.373 . S
C217 H238 0.931 . S
H218 C213 0.931 . S
H219 C214 0.930 . S
C220 O227 1.259 . S
C220 O228 1.258 . S
N221 Co212 2.057 . S
N221 C222 1.316 . S
N221 C223 1.375 . S
C222 N221 1.316 . S
C222 N224 1.347 . S
C222 H233 0.931 . S
C223 N221 1.375 . S
C223 C225 1.350 . S
C223 H232 0.930 . S
N224 C222 1.347 . S
N224 C225 1.373 . S
C225 C223 1.350 . S
C225 N224 1.373 . S
C225 H239 0.931 . S
C226 O229 1.256 . S
C226 O230 1.255 . S
O227 Co210 2.021 . S
O227 C220 1.259 . S
O228 Co212 2.117 . S
O228 C220 1.258 . S
O229 Co212 2.020 . S
O229 C226 1.256 . S
O230 Co210 2.062 . S
O230 C226 1.255 . S
O231 C211 1.259 . S
O231 Co212 2.021 . S
H232 C223 0.930 . S
H233 C222 0.931 . S
O234 Co210 2.117 . S
O234 C211 1.258 . S
O235 Co210 2.020 . S
O235 C237 1.256 . S
O236 Co212 2.062 . S
O236 C237 1.255 . S
C237 O235 1.256 . S
C237 O236 1.255 . S
H238 C217 0.931 . S
H239 C225 0.931 . S
Co240 N245 2.057 . S
Co240 O257 2.021 . S
Co240 O260 2.062 . S
Co240 O264 2.117 . S
Co240 O265 2.020 . S
C241 O261 1.259 . S
C241 O264 1.258 . S
Co242 N251 2.057 . S
Co242 O258 2.117 . S
Co242 O259 2.020 . S
Co242 O261 2.021 . S
Co242 O266 2.062 . S
C243 N245 1.316 . S
C243 N246 1.347 . S
C243 H248 0.931 . S
C244 N245 1.375 . S
C244 C247 1.350 . S
C244 H249 0.930 . S
N245 Co240 2.057 . S
N245 C243 1.316 . S
N245 C244 1.375 . S
N246 C243 1.347 . S
N246 C247 1.373 . S
C247 C244 1.350 . S
C247 N246 1.373 . S
C247 H268 0.931 . S
H248 C243 0.931 . S
H249 C244 0.930 . S
C250 O257 1.259 . S
C250 O258 1.258 . S
N251 Co242 2.057 . S
N251 C252 1.316 . S
N251 C253 1.375 . S
C252 N251 1.316 . S
C252 N254 1.347 . S
C252 H263 0.931 . S
C253 N251 1.375 . S
C253 C255 1.350 . S
C253 H262 0.930 . S
N254 C252 1.347 . S
N254 C255 1.373 . S
C255 C253 1.350 . S
C255 N254 1.373 . S
C255 H269 0.931 1_655 S
C256 O259 1.256 . S
C256 O260 1.255 . S
O257 Co240 2.021 . S
O257 C250 1.259 . S
O258 Co242 2.117 . S
O258 C250 1.258 . S
O259 Co242 2.020 . S
O259 C256 1.256 . S
O260 Co240 2.062 . S
O260 C256 1.255 . S
O261 C241 1.259 . S
O261 Co242 2.021 . S
H262 C253 0.930 . S
H263 C252 0.931 . S
O264 Co240 2.117 . S
O264 C241 1.258 . S
O265 Co240 2.020 . S
O265 C267 1.256 . S
O266 Co242 2.062 . S
O266 C267 1.255 . S
C267 O265 1.256 . S
C267 O266 1.255 . S
H268 C247 0.931 . S
H269 C255 0.931 1_455 S
Co270 N275 2.057 . S
Co270 O287 2.021 . S
Co270 O290 2.062 . S
Co270 O294 2.117 . S
Co270 O295 2.020 1_455 S
C271 O291 1.259 . S
C271 O294 1.258 . S
Co272 N281 2.057 . S
Co272 O288 2.117 . S
Co272 O289 2.020 . S
Co272 O291 2.021 . S
Co272 O296 2.062 . S
C273 N275 1.316 . S
C273 N276 1.347 1_545 S
C273 H278 0.931 . S
C274 N275 1.375 1_565 S
C274 C277 1.350 . S
C274 H279 0.930 . S
N275 Co270 2.057 . S
N275 C273 1.316 . S
N275 C274 1.375 1_545 S
N276 C273 1.347 1_565 S
N276 C277 1.373 . S
C277 C274 1.350 . S
C277 N276 1.373 . S
C277 H298 0.931 . S
H278 C273 0.931 . S
H279 C274 0.930 . S
C280 O287 1.259 . S
C280 O288 1.258 . S
N281 Co272 2.057 . S
N281 C282 1.316 . S
N281 C283 1.375 . S
C282 N281 1.316 . S
C282 N284 1.347 . S
C282 H293 0.931 . S
C283 N281 1.375 . S
C283 C285 1.350 . S
C283 H292 0.930 . S
N284 C282 1.347 . S
N284 C285 1.373 . S
C285 C283 1.350 . S
C285 N284 1.373 . S
C285 H299 0.931 . S
C286 O289 1.256 . S
C286 O290 1.255 . S
O287 Co270 2.021 . S
O287 C280 1.259 . S
O288 Co272 2.117 . S
O288 C280 1.258 . S
O289 Co272 2.020 . S
O289 C286 1.256 . S
O290 Co270 2.062 . S
O290 C286 1.255 . S
O291 C271 1.259 . S
O291 Co272 2.021 . S
H292 C283 0.930 . S
H293 C282 0.931 . S
O294 Co270 2.117 . S
O294 C271 1.258 . S
O295 Co270 2.020 1_655 S
O295 C297 1.256 . S
O296 Co272 2.062 . S
O296 C297 1.255 1_455 S
C297 O295 1.256 . S
C297 O296 1.255 1_655 S
H298 C277 0.931 . S
H299 C285 0.931 . S
Co300 N305 2.057 . S
Co300 O317 2.021 . S
Co300 O320 2.062 . S
Co300 O324 2.117 . S
Co300 O325 2.020 . S
C301 O321 1.259 . S
C301 O324 1.258 . S
Co302 N311 2.057 . S
Co302 O318 2.117 . S
Co302 O319 2.020 . S
Co302 O321 2.021 . S
Co302 O326 2.062 . S
C303 N305 1.316 . S
C303 N306 1.347 . S
C303 H308 0.931 . S
C304 N305 1.375 . S
C304 C307 1.350 . S
C304 H309 0.930 . S
N305 Co300 2.057 . S
N305 C303 1.316 . S
N305 C304 1.375 . S
N306 C303 1.347 . S
N306 C307 1.373 . S
C307 C304 1.350 . S
C307 N306 1.373 . S
C307 H328 0.931 . S
H308 C303 0.931 . S
H309 C304 0.930 . S
C310 O317 1.259 . S
C310 O318 1.258 . S
N311 Co302 2.057 . S
N311 C312 1.316 . S
N311 C313 1.375 . S
C312 N311 1.316 . S
C312 N314 1.347 . S
C312 H323 0.931 . S
C313 N311 1.375 . S
C313 C315 1.350 . S
C313 H322 0.930 . S
N314 C312 1.347 . S
N314 C315 1.373 . S
C315 C313 1.350 . S
C315 N314 1.373 . S
C315 H329 0.931 . S
C316 O319 1.256 . S
C316 O320 1.255 . S
O317 Co300 2.021 . S
O317 C310 1.259 . S
O318 Co302 2.117 . S
O318 C310 1.258 . S
O319 Co302 2.020 . S
O319 C316 1.256 . S
O320 Co300 2.062 . S
O320 C316 1.255 . S
O321 C301 1.259 . S
O321 Co302 2.021 . S
H322 C313 0.930 . S
H323 C312 0.931 . S
O324 Co300 2.117 . S
O324 C301 1.258 . S
O325 Co300 2.020 . S
O325 C327 1.256 . S
O326 Co302 2.062 . S
O326 C327 1.255 . S
C327 O325 1.256 . S
C327 O326 1.255 . S
H328 C307 0.931 . S
H329 C315 0.931 . S
Co330 N335 2.057 . S
Co330 O347 2.021 . S
Co330 O350 2.062 . S
Co330 O354 2.117 . S
Co330 O355 2.020 . S
C331 O351 1.259 . S
C331 O354 1.258 . S
Co332 N341 2.057 . S
Co332 O348 2.117 . S
Co332 O349 2.020 . S
Co332 O351 2.021 . S
Co332 O356 2.062 . S
C333 N335 1.316 . S
C333 N336 1.347 . S
C333 H338 0.931 . S
C334 N335 1.375 1_545 S
C334 C337 1.350 . S
C334 H339 0.930 . S
N335 Co330 2.057 . S
N335 C333 1.316 . S
N335 C334 1.375 1_565 S
N336 C333 1.347 . S
N336 C337 1.373 1_565 S
C337 C334 1.350 . S
C337 N336 1.373 1_545 S
C337 H358 0.931 . S
H338 C333 0.931 . S
H339 C334 0.930 . S
C340 O347 1.259 . S
C340 O348 1.258 . S
N341 Co332 2.057 . S
N341 C342 1.316 . S
N341 C343 1.375 . S
C342 N341 1.316 . S
C342 N344 1.347 . S
C342 H353 0.931 . S
C343 N341 1.375 . S
C343 C345 1.350 . S
C343 H352 0.930 . S
N344 C342 1.347 . S
N344 C345 1.373 . S
C345 C343 1.350 . S
C345 N344 1.373 . S
C345 H359 0.931 . S
C346 O349 1.256 . S
C346 O350 1.255 . S
O347 Co330 2.021 . S
O347 C340 1.259 . S
O348 Co332 2.117 . S
O348 C340 1.258 . S
O349 Co332 2.020 . S
O349 C346 1.256 . S
O350 Co330 2.062 . S
O350 C346 1.255 . S
O351 C331 1.259 . S
O351 Co332 2.021 . S
H352 C343 0.930 . S
H353 C342 0.931 . S
O354 Co330 2.117 . S
O354 C331 1.258 . S
O355 Co330 2.020 . S
O355 C357 1.256 . S
O356 Co332 2.062 . S
O356 C357 1.255 . S
C357 O355 1.256 . S
C357 O356 1.255 . S
H358 C337 0.931 . S
H359 C345 0.931 . S
Co360 N365 2.057 . S
Co360 O377 2.021 . S
Co360 O380 2.062 . S
Co360 O384 2.117 . S
Co360 O385 2.020 . S
C361 O381 1.259 . S
C361 O384 1.258 . S
Co362 N371 2.057 . S
Co362 O378 2.117 . S
Co362 O379 2.020 . S
Co362 O381 2.021 . S
Co362 O386 2.062 . S
C363 N365 1.316 . S
C363 N366 1.347 . S
C363 H368 0.931 . S
C364 N365 1.375 . S
C364 C367 1.350 . S
C364 H369 0.930 . S
N365 Co360 2.057 . S
N365 C363 1.316 . S
N365 C364 1.375 . S
N366 C363 1.347 . S
N366 C367 1.373 . S
C367 C364 1.350 . S
C367 N366 1.373 . S
C367 H388 0.931 1_455 S
H368 C363 0.931 . S
H369 C364 0.930 . S
C370 O377 1.259 . S
C370 O378 1.258 . S
N371 Co362 2.057 . S
N371 C372 1.316 . S
N371 C373 1.375 . S
C372 N371 1.316 . S
C372 N374 1.347 . S
C372 H383 0.931 . S
C373 N371 1.375 . S
C373 C375 1.350 . S
C373 H382 0.930 . S
N374 C372 1.347 . S
N374 C375 1.373 . S
C375 C373 1.350 . S
C375 N374 1.373 . S
C375 H389 0.931 . S
C376 O379 1.256 . S
C376 O380 1.255 . S
O377 Co360 2.021 . S
O377 C370 1.259 . S
O378 Co362 2.117 . S
O378 C370 1.258 . S
O379 Co362 2.020 . S
O379 C376 1.256 . S
O380 Co360 2.062 . S
O380 C376 1.255 . S
O381 C361 1.259 . S
O381 Co362 2.021 . S
H382 C373 0.930 . S
H383 C372 0.931 . S
O384 Co360 2.117 . S
O384 C361 1.258 . S
O385 Co360 2.020 . S
O385 C387 1.256 . S
O386 Co362 2.062 . S
O386 C387 1.255 . S
C387 O385 1.256 . S
C387 O386 1.255 . S
H388 C367 0.931 1_655 S
H389 C375 0.931 . S
Co390 N395 2.057 . S
Co390 O407 2.021 . S
Co390 O410 2.062 . S
Co390 O414 2.117 . S
Co390 O415 2.020 . S
C391 O411 1.259 . S
C391 O414 1.258 . S
Co392 N401 2.057 . S
Co392 O408 2.117 . S
Co392 O409 2.020 1_655 S
Co392 O411 2.021 . S
Co392 O416 2.062 . S
C393 N395 1.316 . S
C393 N396 1.347 . S
C393 H398 0.931 . S
C394 N395 1.375 . S
C394 C397 1.350 . S
C394 H399 0.930 . S
N395 Co390 2.057 . S
N395 C393 1.316 . S
N395 C394 1.375 . S
N396 C393 1.347 . S
N396 C397 1.373 . S
C397 C394 1.350 . S
C397 N396 1.373 . S
C397 H418 0.931 . S
H398 C393 0.931 . S
H399 C394 0.930 . S
C400 O407 1.259 . S
C400 O408 1.258 . S
N401 Co392 2.057 . S
N401 C402 1.316 . S
N401 C403 1.375 1_565 S
C402 N401 1.316 . S
C402 N404 1.347 1_565 S
C402 H413 0.931 . S
C403 N401 1.375 1_545 S
C403 C405 1.350 . S
C403 H412 0.930 . S
N404 C402 1.347 1_545 S
N404 C405 1.373 . S
C405 C403 1.350 . S
C405 N404 1.373 . S
C405 H419 0.931 . S
C406 O409 1.256 . S
C406 O410 1.255 1_455 S
O407 Co390 2.021 . S
O407 C400 1.259 . S
O408 Co392 2.117 . S
O408 C400 1.258 . S
O409 Co392 2.020 1_455 S
O409 C406 1.256 . S
O410 Co390 2.062 . S
O410 C406 1.255 1_655 S
O411 C391 1.259 . S
O411 Co392 2.021 . S
H412 C403 0.930 . S
H413 C402 0.931 . S
O414 Co390 2.117 . S
O414 C391 1.258 . S
O415 Co390 2.020 . S
O415 C417 1.256 . S
O416 Co392 2.062 . S
O416 C417 1.255 . S
C417 O415 1.256 . S
C417 O416 1.255 . S
H418 C397 0.931 . S
H419 C405 0.931 . S
Co420 N425 2.057 . S
Co420 O437 2.021 . S
Co420 O440 2.062 . S
Co420 O444 2.117 . S
Co420 O445 2.020 . S
C421 O441 1.259 . S
C421 O444 1.258 . S
Co422 N431 2.057 . S
Co422 O438 2.117 . S
Co422 O439 2.020 . S
Co422 O441 2.021 . S
Co422 O446 2.062 . S
C423 N425 1.316 . S
C423 N426 1.347 . S
C423 H428 0.931 . S
C424 N425 1.375 . S
C424 C427 1.350 . S
C424 H429 0.930 . S
N425 Co420 2.057 . S
N425 C423 1.316 . S
N425 C424 1.375 . S
N426 C423 1.347 . S
N426 C427 1.373 . S
C427 C424 1.350 . S
C427 N426 1.373 . S
C427 H448 0.931 . S
H428 C423 0.931 . S
H429 C424 0.930 . S
C430 O437 1.259 . S
C430 O438 1.258 . S
N431 Co422 2.057 . S
N431 C432 1.316 . S
N431 C433 1.375 . S
C432 N431 1.316 . S
C432 N434 1.347 . S
C432 H443 0.931 . S
C433 N431 1.375 . S
C433 C435 1.350 . S
C433 H442 0.930 . S
N434 C432 1.347 . S
N434 C435 1.373 . S
C435 C433 1.350 . S
C435 N434 1.373 . S
C435 H449 0.931 . S
C436 O439 1.256 . S
C436 O440 1.255 . S
O437 Co420 2.021 . S
O437 C430 1.259 . S
O438 Co422 2.117 . S
O438 C430 1.258 . S
O439 Co422 2.020 . S
O439 C436 1.256 . S
O440 Co420 2.062 . S
O440 C436 1.255 . S
O441 C421 1.259 . S
O441 Co422 2.021 . S
H442 C433 0.930 . S
H443 C432 0.931 . S
O444 Co420 2.117 . S
O444 C421 1.258 . S
O445 Co420 2.020 . S
O445 C447 1.256 . S
O446 Co422 2.062 . S
O446 C447 1.255 . S
C447 O445 1.256 . S
C447 O446 1.255 . S
H448 C427 0.931 . S
H449 C435 0.931 . S
Co450 N455 2.057 . S
Co450 O467 2.021 . S
Co450 O470 2.062 . S
Co450 O474 2.117 . S
Co450 O475 2.020 . S
C451 O471 1.259 . S
C451 O474 1.258 . S
Co452 N461 2.057 . S
Co452 O468 2.117 . S
Co452 O469 2.020 . S
Co452 O471 2.021 . S
Co452 O476 2.062 . S
C453 N455 1.316 . S
C453 N456 1.347 . S
C453 H458 0.931 . S
C454 N455 1.375 . S
C454 C457 1.350 . S
C454 H459 0.930 . S
N455 Co450 2.057 . S
N455 C453 1.316 . S
N455 C454 1.375 . S
N456 C453 1.347 . S
N456 C457 1.373 . S
C457 C454 1.350 . S
C457 N456 1.373 . S
C457 H478 0.931 . S
H458 C453 0.931 . S
H459 C454 0.930 . S
C460 O467 1.259 . S
C460 O468 1.258 . S
N461 Co452 2.057 . S
N461 C462 1.316 . S
N461 C463 1.375 1_545 S
C462 N461 1.316 . S
C462 N464 1.347 . S
C462 H473 0.931 . S
C463 N461 1.375 1_565 S
C463 C465 1.350 . S
C463 H472 0.930 . S
N464 C462 1.347 . S
N464 C465 1.373 1_545 S
C465 C463 1.350 . S
C465 N464 1.373 1_565 S
C465 H479 0.931 . S
C466 O469 1.256 . S
C466 O470 1.255 . S
O467 Co450 2.021 . S
O467 C460 1.259 . S
O468 Co452 2.117 . S
O468 C460 1.258 . S
O469 Co452 2.020 . S
O469 C466 1.256 . S
O470 Co450 2.062 . S
O470 C466 1.255 . S
O471 C451 1.259 . S
O471 Co452 2.021 . S
H472 C463 0.930 . S
H473 C462 0.931 . S
O474 Co450 2.117 . S
O474 C451 1.258 . S
O475 Co450 2.020 . S
O475 C477 1.256 . S
O476 Co452 2.062 . S
O476 C477 1.255 . S
C477 O475 1.256 . S
C477 O476 1.255 . S
H478 C457 0.931 . S
H479 C465 0.931 . S
C480 C481 1.363 . S
C480 C486 1.379 . S
C480 N488 1.356 . S
C481 C480 1.363 . S
C481 C487 1.363 . S
C482 C483 1.363 . S
C482 C487 1.379 . S
C482 N489 1.356 . S
C483 C482 1.363 . S
C483 C486 1.363 . S
N484 C486 1.356 . S
N484 H496 0.984 . S
N484 H497 0.985 . S
N485 C487 1.356 . S
N485 H490 0.984 . S
N485 H491 0.985 . S
C486 C480 1.379 . S
C486 C483 1.363 . S
C486 N484 1.356 . S
C487 C481 1.363 . S
C487 C482 1.379 . S
C487 N485 1.356 . S
N488 C480 1.356 . S
N488 H494 0.984 . S
N488 H495 0.984 . S
N489 C482 1.356 . S
N489 H492 0.984 . S
N489 H493 0.985 . S
H490 N485 0.984 . S
H491 N485 0.985 . S
H492 N489 0.984 . S
H493 N489 0.985 . S
H494 N488 0.984 . S
H495 N488 0.984 . S
H496 N484 0.984 . S
H497 N484 0.985 . S
C498 C499 1.363 . S
C498 C504 1.379 . S
C498 N506 1.356 . S
C499 C498 1.363 . S
C499 C505 1.363 . S
C500 C501 1.363 . S
C500 C505 1.379 . S
C500 N507 1.356 . S
C501 C500 1.363 . S
C501 C504 1.363 . S
N502 C504 1.356 . S
N502 H514 0.984 . S
N502 H515 0.985 . S
N503 C505 1.356 . S
N503 H508 0.984 . S
N503 H509 0.985 . S
C504 C498 1.379 . S
C504 C501 1.363 . S
C504 N502 1.356 . S
C505 C499 1.363 . S
C505 C500 1.379 . S
C505 N503 1.356 . S
N506 C498 1.356 . S
N506 H512 0.984 . S
N506 H513 0.984 . S
N507 C500 1.356 . S
N507 H510 0.984 . S
N507 H511 0.985 . S
H508 N503 0.984 . S
H509 N503 0.985 . S
H510 N507 0.984 . S
H511 N507 0.985 . S
H512 N506 0.984 . S
H513 N506 0.984 . S
H514 N502 0.984 . S
H515 N502 0.985 . S
C516 C517 1.363 . S
C516 C522 1.379 1_455 S
C516 N524 1.356 . S
C517 C516 1.363 . S
C517 C523 1.363 . S
C518 C519 1.363 . S
C518 C523 1.379 1_655 S
C518 N525 1.356 . S
C519 C518 1.363 . S
C519 C522 1.363 . S
N520 C522 1.356 . S
N520 H532 0.984 . S
N520 H533 0.985 . S
N521 C523 1.356 . S
N521 H526 0.984 . S
N521 H527 0.985 . S
C522 C516 1.379 1_655 S
C522 C519 1.363 . S
C522 N520 1.356 . S
C523 C517 1.363 . S
C523 C518 1.379 1_455 S
C523 N521 1.356 . S
N524 C516 1.356 . S
N524 H530 0.984 . S
N524 H531 0.984 . S
N525 C518 1.356 . S
N525 H528 0.984 . S
N525 H529 0.985 . S
H526 N521 0.984 . S
H527 N521 0.985 . S
H528 N525 0.984 . S
H529 N525 0.985 . S
H530 N524 0.984 . S
H531 N524 0.984 . S
H532 N520 0.984 . S
H533 N520 0.985 . S
C534 C535 1.363 . S
C534 C540 1.379 . S
C534 N542 1.356 . S
C535 C534 1.363 . S
C535 C541 1.363 1_455 S
C536 C537 1.363 . S
C536 C541 1.379 . S
C536 N543 1.356 . S
C537 C536 1.363 . S
C537 C540 1.363 1_655 S
N538 C540 1.356 . S
N538 H550 0.984 . S
N538 H551 0.985 . S
N539 C541 1.356 . S
N539 H544 0.984 . S
N539 H545 0.985 . S
C540 C534 1.379 . S
C540 C537 1.363 1_455 S
C540 N538 1.356 . S
C541 C535 1.363 1_655 S
C541 C536 1.379 . S
C541 N539 1.356 . S
N542 C534 1.356 . S
N542 H548 0.984 . S
N542 H549 0.984 . S
N543 C536 1.356 . S
N543 H546 0.984 . S
N543 H547 0.985 . S
H544 N539 0.984 . S
H545 N539 0.985 . S
H546 N543 0.984 . S
H547 N543 0.985 . S
H548 N542 0.984 . S
H549 N542 0.984 . S
H550 N538 0.984 . S
H551 N538 0.985 . S
C552 C553 1.363 . S
C552 C558 1.379 . S
C552 N560 1.356 . S
C553 C552 1.363 . S
C553 C559 1.363 . S
C554 C555 1.363 . S
C554 C559 1.379 . S
C554 N561 1.356 . S
C555 C554 1.363 . S
C555 C558 1.363 . S
N556 C558 1.356 . S
N556 H568 0.984 . S
N556 H569 0.985 . S
N557 C559 1.356 . S
N557 H562 0.984 . S
N557 H563 0.985 . S
C558 C552 1.379 . S
C558 C555 1.363 . S
C558 N556 1.356 . S
C559 C553 1.363 . S
C559 C554 1.379 . S
C559 N557 1.356 . S
N560 C552 1.356 . S
N560 H566 0.984 . S
N560 H567 0.984 . S
N561 C554 1.356 . S
N561 H564 0.984 . S
N561 H565 0.985 . S
H562 N557 0.984 . S
H563 N557 0.985 . S
H564 N561 0.984 . S
H565 N561 0.985 . S
H566 N560 0.984 . S
H567 N560 0.984 . S
H568 N556 0.984 . S
H569 N556 0.985 . S
C570 C571 1.363 . S
C570 C576 1.379 . S
C570 N578 1.356 . S
C571 C570 1.363 . S
C571 C577 1.363 . S
C572 C573 1.363 . S
C572 C577 1.379 . S
C572 N579 1.356 . S
C573 C572 1.363 . S
C573 C576 1.363 . S
N574 C576 1.356 . S
N574 H586 0.984 . S
N574 H587 0.985 . S
N575 C577 1.356 . S
N575 H580 0.984 . S
N575 H581 0.985 . S
C576 C570 1.379 . S
C576 C573 1.363 . S
C576 N574 1.356 . S
C577 C571 1.363 . S
C577 C572 1.379 . S
C577 N575 1.356 . S
N578 C570 1.356 . S
N578 H584 0.984 . S
N578 H585 0.984 . S
N579 C572 1.356 . S
N579 H582 0.984 . S
N579 H583 0.985 . S
H580 N575 0.984 . S
H581 N575 0.985 . S
H582 N579 0.984 . S
H583 N579 0.985 . S
H584 N578 0.984 . S
H585 N578 0.984 . S
H586 N574 0.984 . S
H587 N574 0.985 . S
C588 C589 1.363 . S
C588 C594 1.379 1_455 S
C588 N596 1.356 . S
C589 C588 1.363 . S
C589 C595 1.367 . S
C590 C591 1.363 . S
C590 C595 1.373 1_655 S
C590 N597 1.356 . S
C591 C590 1.363 . S
C591 C594 1.363 . S
N592 C594 1.356 . S
N592 H604 0.984 . S
N592 H605 0.985 . S
N593 C595 1.360 . S
N593 H598 0.984 . S
N593 H599 0.985 . S
C594 C588 1.379 1_655 S
C594 C591 1.363 . S
C594 N592 1.356 . S
C595 C589 1.367 . S
C595 C590 1.373 1_455 S
C595 N593 1.360 . S
N596 C588 1.356 . S
N596 H602 0.984 . S
N596 H603 0.984 . S
N597 C590 1.356 . S
N597 H600 0.984 . S
N597 H601 0.985 . S
H598 N593 0.984 . S
H599 N593 0.985 . S
H600 N597 0.984 . S
H601 N597 0.985 . S
H602 N596 0.984 . S
H603 N596 0.984 . S
H604 N592 0.984 . S
H605 N592 0.985 . S
C606 C607 1.363 . S
C606 C612 1.379 . S
C606 N614 1.356 . S
C607 C606 1.363 . S
C607 C613 1.363 1_455 S
C608 C609 1.363 . S
C608 C613 1.379 . S
C608 N615 1.356 . S
C609 C608 1.363 . S
C609 C612 1.363 1_655 S
N610 C612 1.356 . S
N610 H622 0.984 . S
N610 H623 0.985 . S
N611 C613 1.356 . S
N611 H616 0.984 . S
N611 H617 0.985 . S
C612 C606 1.379 . S
C612 C609 1.363 1_455 S
C612 N610 1.356 . S
C613 C607 1.363 1_655 S
C613 C608 1.379 . S
C613 N611 1.356 . S
N614 C606 1.356 . S
N614 H620 0.984 . S
N614 H621 0.984 . S
N615 C608 1.356 . S
N615 H618 0.984 . S
N615 H619 0.985 . S
H616 N611 0.984 . S
H617 N611 0.985 . S
H618 N615 0.984 . S
H619 N615 0.985 . S
H620 N614 0.984 . S
H621 N614 0.984 . S
H622 N610 0.984 . S
H623 N610 0.985 . S
C624 C625 1.363 1_565 S
C624 C630 1.379 . S
C624 N632 1.356 . S
C625 C624 1.363 1_545 S
C625 C631 1.363 1_554 S
C626 C627 1.363 1_545 S
C626 C631 1.379 . S
C626 N633 1.356 . S
C627 C626 1.363 1_565 S
C627 C630 1.363 1_556 S
N628 C630 1.356 1_556 S
N628 H640 0.984 1_556 S
N628 H641 0.985 . S
N629 C631 1.356 1_554 S
N629 H634 0.984 . S
N629 H635 0.985 1_554 S
C630 C624 1.379 . S
C630 C627 1.363 1_554 S
C630 N628 1.356 1_554 S
C631 C625 1.363 1_556 S
C631 C626 1.379 . S
C631 N629 1.356 1_556 S
N632 C624 1.356 . S
N632 H638 0.984 . S
N632 H639 0.984 . S
N633 C626 1.356 . S
N633 H636 0.984 . S
N633 H637 0.985 . S
H634 N629 0.984 . S
H635 N629 0.985 1_556 S
H636 N633 0.984 . S
H637 N633 0.985 . S
H638 N632 0.984 . S
H639 N632 0.984 . S
H640 N628 0.984 1_554 S
H641 N628 0.985 . S
C642 C643 1.363 . S
C642 C648 1.379 . S
C642 N650 1.356 . S
C643 C642 1.363 . S
C643 C649 1.363 . S
C644 C645 1.363 . S
C644 C649 1.379 . S
C644 N651 1.356 . S
C645 C644 1.363 . S
C645 C648 1.363 . S
N646 C648 1.356 . S
N646 H658 0.984 . S
N646 H659 0.985 . S
N647 C649 1.356 . S
N647 H652 0.984 . S
N647 H653 0.985 . S
C648 C642 1.379 . S
C648 C645 1.363 . S
C648 N646 1.356 . S
C649 C643 1.363 . S
C649 C644 1.379 . S
C649 N647 1.356 . S
N650 C642 1.356 . S
N650 H656 0.984 . S
N650 H657 0.984 . S
N651 C644 1.356 . S
N651 H654 0.984 . S
N651 H655 0.985 . S
H652 N647 0.984 . S
H653 N647 0.985 . S
H654 N651 0.984 . S
H655 N651 0.985 . S
H656 N650 0.984 . S
H657 N650 0.984 . S
H658 N646 0.984 . S
H659 N646 0.985 . S
C660 C661 1.363 1_665 S
C660 C666 1.379 . S
C660 N668 1.356 . S
C661 C660 1.363 1_445 S
C661 C667 1.363 . S
C662 C663 1.363 1_445 S
C662 C667 1.379 . S
C662 N669 1.356 . S
C663 C662 1.363 1_665 S
C663 C666 1.363 . S
N664 C666 1.356 . S
N664 H676 0.984 . S
N664 H677 0.985 . S
N665 C667 1.356 . S
N665 H670 0.984 . S
N665 H671 0.985 . S
C666 C660 1.379 . S
C666 C663 1.363 . S
C666 N664 1.356 . S
C667 C661 1.363 . S
C667 C662 1.379 . S
C667 N665 1.356 . S
N668 C660 1.356 . S
N668 H674 0.984 . S
N668 H675 0.984 1_655 S
N669 C662 1.356 . S
N669 H672 0.984 1_455 S
N669 H673 0.985 . S
H670 N665 0.984 . S
H671 N665 0.985 . S
H672 N669 0.984 1_655 S
H673 N669 0.985 . S
H674 N668 0.984 . S
H675 N668 0.984 1_455 S
H676 N664 0.984 . S
H677 N664 0.985 . S
C678 C679 1.363 . S
C678 C684 1.379 . S
C678 N686 1.356 . S
C679 C678 1.363 . S
C679 C685 1.363 . S
C680 C681 1.363 . S
C680 C685 1.379 . S
C680 N687 1.356 . S
C681 C680 1.363 . S
C681 C684 1.363 . S
N682 C684 1.356 . S
N682 H694 0.984 . S
N682 H695 0.985 . S
N683 C685 1.356 . S
N683 H688 0.984 . S
N683 H689 0.985 . S
C684 C678 1.379 . S
C684 C681 1.363 . S
C684 N682 1.356 . S
C685 C679 1.363 . S
C685 C680 1.379 . S
C685 N683 1.356 . S
N686 C678 1.356 . S
N686 H692 0.984 . S
N686 H693 0.984 . S
N687 C680 1.356 . S
N687 H690 0.984 . S
N687 H691 0.985 . S
H688 N683 0.984 . S
H689 N683 0.985 . S
H690 N687 0.984 . S
H691 N687 0.985 . S
H692 N686 0.984 . S
H693 N686 0.984 . S
H694 N682 0.984 . S
H695 N682 0.985 . S
C696 C697 1.363 . S
C696 C702 1.379 . S
C696 N704 1.356 . S
C697 C696 1.363 . S
C697 C703 1.363 . S
C698 C699 1.363 . S
C698 C703 1.379 . S
C698 N705 1.356 . S
C699 C698 1.363 . S
C699 C702 1.363 . S
N700 C702 1.356 . S
N700 H712 0.984 . S
N700 H713 0.985 . S
N701 C703 1.356 . S
N701 H706 0.984 . S
N701 H707 0.985 . S
C702 C696 1.379 . S
C702 C699 1.363 . S
C702 N700 1.356 . S
C703 C697 1.363 . S
C703 C698 1.379 . S
C703 N701 1.356 . S
N704 C696 1.356 . S
N704 H710 0.984 . S
N704 H711 0.984 . S
N705 C698 1.356 . S
N705 H708 0.984 . S
N705 H709 0.985 . S
H706 N701 0.984 . S
H707 N701 0.985 . S
H708 N705 0.984 . S
H709 N705 0.985 . S
H710 N704 0.984 . S
H711 N704 0.984 . S
H712 N700 0.984 . S
H713 N700 0.985 . S
C714 C715 1.363 . S
C714 C720 1.379 . S
C714 N722 1.356 . S
C715 C714 1.363 . S
C715 C721 1.363 . S
C716 C717 1.363 . S
C716 C721 1.379 . S
C716 N723 1.356 . S
C717 C716 1.363 . S
C717 C720 1.363 . S
N718 C720 1.356 . S
N718 H730 0.984 . S
N718 H731 0.985 . S
N719 C721 1.356 . S
N719 H724 0.984 . S
N719 H725 0.985 . S
C720 C714 1.379 . S
C720 C717 1.363 . S
C720 N718 1.356 . S
C721 C715 1.363 . S
C721 C716 1.379 . S
C721 N719 1.356 . S
N722 C714 1.356 . S
N722 H728 0.984 . S
N722 H729 0.984 . S
N723 C716 1.356 . S
N723 H726 0.984 . S
N723 H727 0.985 . S
H724 N719 0.984 . S
H725 N719 0.985 . S
H726 N723 0.984 . S
H727 N723 0.985 . S
H728 N722 0.984 . S
H729 N722 0.984 . S
H730 N718 0.984 . S
H731 N718 0.985 . S
C732 C733 1.363 1_655 S
C732 C738 1.379 . S
C732 N740 1.356 . S
C733 C732 1.363 1_455 S
C733 C739 1.363 . S
C734 C735 1.363 1_455 S
C734 C739 1.379 . S
C734 N741 1.356 . S
C735 C734 1.363 1_655 S
C735 C738 1.363 . S
N736 C738 1.356 . S
N736 H748 0.984 . S
N736 H749 0.985 . S
N737 C739 1.356 . S
N737 H742 0.984 . S
N737 H743 0.985 . S
C738 C732 1.379 . S
C738 C735 1.363 . S
C738 N736 1.356 . S
C739 C733 1.363 . S
C739 C734 1.379 . S
C739 N737 1.356 . S
N740 C732 1.356 . S
N740 H746 0.984 . S
N740 H747 0.984 1_655 S
N741 C734 1.356 . S
N741 H744 0.984 1_455 S
N741 H745 0.985 . S
H742 N737 0.984 . S
H743 N737 0.985 . S
H744 N741 0.984 1_655 S
H745 N741 0.985 . S
H746 N740 0.984 . S
H747 N740 0.984 1_455 S
H748 N736 0.984 . S
H749 N736 0.985 . S
C750 C751 1.363 . S
C750 C756 1.379 1_554 S
C750 N758 1.356 . S
C751 C750 1.363 . S
C751 C757 1.363 . S
C752 C753 1.363 . S
C752 C757 1.379 1_556 S
C752 N759 1.356 . S
C753 C752 1.363 . S
C753 C756 1.363 . S
N754 C756 1.356 . S
N754 H766 0.984 . S
N754 H767 0.985 . S
N755 C757 1.356 . S
N755 H760 0.984 . S
N755 H761 0.985 . S
C756 C750 1.379 1_556 S
C756 C753 1.363 . S
C756 N754 1.356 . S
C757 C751 1.363 . S
C757 C752 1.379 1_554 S
C757 N755 1.356 . S
N758 C750 1.356 . S
N758 H764 0.984 . S
N758 H765 0.984 . S
N759 C752 1.356 . S
N759 H762 0.984 . S
N759 H763 0.984 . S
H760 N755 0.984 . S
H761 N755 0.985 . S
H762 N759 0.984 . S
H763 N759 0.984 . S
H764 N758 0.984 . S
H765 N758 0.984 . S
H766 N754 0.984 . S
H767 N754 0.985 . S
C768 C769 1.363 . S
C768 C774 1.379 . S
C768 N776 1.356 . S
C769 C768 1.363 . S
C769 C775 1.363 . S
C770 C771 1.363 . S
C770 C775 1.379 . S
C770 N777 1.356 . S
C771 C770 1.363 . S
C771 C774 1.363 . S
N772 C774 1.356 . S
N772 H784 0.984 . S
N772 H785 0.985 . S
N773 C775 1.356 . S
N773 H778 0.984 . S
N773 H779 0.985 . S
C774 C768 1.379 . S
C774 C771 1.363 . S
C774 N772 1.356 . S
C775 C769 1.363 . S
C775 C770 1.379 . S
C775 N773 1.356 . S
N776 C768 1.356 . S
N776 H782 0.984 . S
N776 H783 0.984 . S
N777 C770 1.356 . S
N777 H780 0.984 . S
N777 H781 0.985 . S
H778 N773 0.984 . S
H779 N773 0.985 . S
H780 N777 0.984 . S
H781 N777 0.985 . S
H782 N776 0.984 . S
H783 N776 0.984 . S
H784 N772 0.984 . S
H785 N772 0.985 . S
C786 C787 1.363 . S
C786 C792 1.379 . S
C786 N794 1.356 . S
C787 C786 1.363 . S
C787 C793 1.363 . S
C788 C789 1.363 . S
C788 C793 1.379 . S
C788 N795 1.356 . S
C789 C788 1.363 . S
C789 C792 1.363 . S
N790 C792 1.356 . S
N790 H802 0.984 . S
N790 H803 0.985 . S
N791 C793 1.356 . S
N791 H796 0.984 . S
N791 H797 0.985 . S
C792 C786 1.379 . S
C792 C789 1.363 . S
C792 N790 1.356 . S
C793 C787 1.363 . S
C793 C788 1.379 . S
C793 N791 1.356 . S
N794 C786 1.356 . S
N794 H800 0.984 . S
N794 H801 0.984 . S
N795 C788 1.356 . S
N795 H798 0.984 . S
N795 H799 0.985 . S
H796 N791 0.984 . S
H797 N791 0.985 . S
H798 N795 0.984 . S
H799 N795 0.985 . S
H800 N794 0.984 . S
H801 N794 0.984 . S
H802 N790 0.984 . S
H803 N790 0.985 . S
C804 C805 1.363 . S
C804 C810 1.379 . S
C804 N812 1.356 . S
C805 C804 1.363 . S
C805 C811 1.363 . S
C806 C807 1.363 . S
C806 C811 1.379 . S
C806 N813 1.356 . S
C807 C806 1.363 . S
C807 C810 1.363 . S
N808 C810 1.356 . S
N808 H820 0.984 . S
N808 H821 0.985 . S
N809 C811 1.356 . S
N809 H814 0.984 . S
N809 H815 0.985 . S
C810 C804 1.379 . S
C810 C807 1.363 . S
C810 N808 1.356 . S
C811 C805 1.363 . S
C811 C806 1.379 . S
C811 N809 1.356 . S
N812 C804 1.356 . S
N812 H818 0.984 . S
N812 H819 0.984 . S
N813 C806 1.356 . S
N813 H816 0.984 . S
N813 H817 0.985 . S
H814 N809 0.984 . S
H815 N809 0.985 . S
H816 N813 0.984 . S
H817 N813 0.985 . S
H818 N812 0.984 . S
H819 N812 0.984 . S
H820 N808 0.984 . S
H821 N808 0.985 . S
C822 C823 1.363 . S
C822 C828 1.379 . S
C822 N830 1.356 . S
C823 C822 1.363 . S
C823 C829 1.363 . S
C824 C825 1.363 . S
C824 C829 1.379 . S
C824 N831 1.356 . S
C825 C824 1.363 . S
C825 C828 1.363 . S
N826 C828 1.356 . S
N826 H838 0.984 . S
N826 H839 0.985 . S
N827 C829 1.356 1_655 S
N827 H832 0.984 . S
N827 H833 0.985 . S
C828 C822 1.379 . S
C828 C825 1.363 . S
C828 N826 1.356 . S
C829 C823 1.363 . S
C829 C824 1.379 . S
C829 N827 1.356 1_455 S
N830 C822 1.356 . S
N830 H836 0.984 . S
N830 H837 0.984 . S
N831 C824 1.356 . S
N831 H834 0.984 . S
N831 H835 0.985 . S
H832 N827 0.984 . S
H833 N827 0.985 . S
H834 N831 0.984 . S
H835 N831 0.985 . S
H836 N830 0.984 . S
H837 N830 0.984 . S
H838 N826 0.984 . S
H839 N826 0.985 . S
C840 C841 1.363 . S
C840 C846 1.379 . S
C840 N848 1.356 . S
C841 C840 1.363 . S
C841 C847 1.363 . S
C842 C843 1.363 . S
C842 C847 1.379 . S
C842 N849 1.356 . S
C843 C842 1.363 . S
C843 C846 1.363 . S
N844 C846 1.356 . S
N844 H856 0.984 . S
N844 H857 0.985 . S
N845 C847 1.356 . S
N845 H850 0.984 . S
N845 H851 0.985 . S
C846 C840 1.379 . S
C846 C843 1.363 . S
C846 N844 1.356 . S
C847 C841 1.363 . S
C847 C842 1.379 . S
C847 N845 1.356 . S
N848 C840 1.356 . S
N848 H854 0.984 . S
N848 H855 0.984 . S
N849 C842 1.356 . S
N849 H852 0.984 . S
N849 H853 0.985 . S
H850 N845 0.984 . S
H851 N845 0.985 . S
H852 N849 0.984 . S
H853 N849 0.985 . S
H854 N848 0.984 . S
H855 N848 0.984 . S
H856 N844 0.984 . S
H857 N844 0.985 . S
C858 C859 1.363 . S
C858 C864 1.379 . S
C858 N866 1.356 . S
C859 C858 1.363 . S
C859 C865 1.363 . S
C860 C861 1.363 . S
C860 C865 1.379 . S
C860 N867 1.356 . S
C861 C860 1.363 . S
C861 C864 1.363 . S
N862 C864 1.356 . S
N862 H874 0.984 . S
N862 H875 0.985 . S
N863 C865 1.356 . S
N863 H868 0.984 . S
N863 H869 0.985 . S
C864 C858 1.379 . S
C864 C861 1.363 . S
C864 N862 1.356 . S
C865 C859 1.363 . S
C865 C860 1.379 . S
C865 N863 1.356 . S
N866 C858 1.356 . S
N866 H872 0.984 . S
N866 H873 0.984 . S
N867 C860 1.356 . S
N867 H870 0.984 . S
N867 H871 0.985 . S
H868 N863 0.984 . S
H869 N863 0.985 . S
H870 N867 0.984 . S
H871 N867 0.985 . S
H872 N866 0.984 . S
H873 N866 0.984 . S
H874 N862 0.984 . S
H875 N862 0.985 . S
C876 C877 1.363 . S
C876 C882 1.379 . S
C876 N884 1.356 . S
C877 C876 1.363 . S
C877 C883 1.363 . S
C878 C879 1.363 . S
C878 C883 1.379 . S
C878 N885 1.356 . S
C879 C878 1.363 . S
C879 C882 1.363 . S
N880 C882 1.356 . S
N880 H892 0.984 . S
N880 H893 0.985 . S
N881 C883 1.356 . S
N881 H886 0.984 . S
N881 H887 0.985 . S
C882 C876 1.379 . S
C882 C879 1.363 . S
C882 N880 1.356 . S
C883 C877 1.363 . S
C883 C878 1.379 . S
C883 N881 1.356 . S
N884 C876 1.356 . S
N884 H890 0.984 . S
N884 H891 0.984 . S
N885 C878 1.356 . S
N885 H888 0.984 . S
N885 H889 0.985 . S
H886 N881 0.984 . S
H887 N881 0.985 . S
H888 N885 0.984 . S
H889 N885 0.985 . S
H890 N884 0.984 . S
H891 N884 0.984 . S
H892 N880 0.984 . S
H893 N880 0.985 . S
C894 C895 1.363 . S
C894 C900 1.379 . S
C894 N902 1.356 . S
C895 C894 1.363 . S
C895 C901 1.363 . S
C896 C897 1.363 . S
C896 C901 1.379 . S
C896 N903 1.356 . S
C897 C896 1.363 . S
C897 C900 1.363 . S
N898 C900 1.356 1_455 S
N898 H910 0.984 . S
N898 H911 0.985 . S
N899 C901 1.356 . S
N899 H904 0.984 . S
N899 H905 0.985 . S
C900 C894 1.379 . S
C900 C897 1.363 . S
C900 N898 1.356 1_655 S
C901 C895 1.363 . S
C901 C896 1.379 . S
C901 N899 1.356 . S
N902 C894 1.356 . S
N902 H908 0.984 . S
N902 H909 0.984 . S
N903 C896 1.356 . S
N903 H906 0.984 . S
N903 H907 0.985 . S
H904 N899 0.984 . S
H905 N899 0.985 . S
H906 N903 0.984 . S
H907 N903 0.985 . S
H908 N902 0.984 . S
H909 N902 0.984 . S
H910 N898 0.984 . S
H911 N898 0.985 . S
C912 C913 1.363 . S
C912 C918 1.379 . S
C912 N920 1.356 . S
C913 C912 1.363 . S
C913 C919 1.363 . S
C914 C915 1.363 . S
C914 C919 1.379 . S
C914 N921 1.356 . S
C915 C914 1.363 . S
C915 C918 1.363 . S
N916 C918 1.356 . S
N916 H928 0.984 . S
N916 H929 0.985 1_565 S
N917 C919 1.356 . S
N917 H922 0.984 . S
N917 H923 0.985 . S
C918 C912 1.379 . S
C918 C915 1.363 . S
C918 N916 1.356 . S
C919 C913 1.363 . S
C919 C914 1.379 . S
C919 N917 1.356 . S
N920 C912 1.356 . S
N920 H926 0.984 . S
N920 H927 0.984 . S
N921 C914 1.356 . S
N921 H924 0.984 . S
N921 H925 0.985 . S
H922 N917 0.984 . S
H923 N917 0.985 . S
H924 N921 0.984 . S
H925 N921 0.985 . S
H926 N920 0.984 . S
H927 N920 0.984 . S
H928 N916 0.984 . S
H929 N916 0.985 1_545 S
C930 C931 1.363 . S
C930 C936 1.379 . S
C930 N938 1.356 . S
C931 C930 1.363 . S
C931 C937 1.363 . S
C932 C933 1.363 . S
C932 C937 1.379 . S
C932 N939 1.356 1_565 S
C933 C932 1.363 . S
C933 C936 1.363 . S
N934 C936 1.356 . S
N934 H946 0.984 . S
N934 H947 0.983 1_565 S
N935 C937 1.356 . S
N935 H940 0.984 . S
N935 H941 0.985 . S
C936 C930 1.379 . S
C936 C933 1.363 . S
C936 N934 1.356 . S
C937 C931 1.363 . S
C937 C932 1.379 . S
C937 N935 1.356 . S
N938 C930 1.356 . S
N938 H944 0.984 . S
N938 H945 0.984 . S
N939 C932 1.356 1_545 S
N939 H942 0.984 1_655 S
N939 H943 0.985 1_655 S
H940 N935 0.984 . S
H941 N935 0.985 . S
H942 N939 0.984 1_455 S
H943 N939 0.985 1_455 S
H944 N938 0.984 . S
H945 N938 0.984 . S
H946 N934 0.984 . S
H947 N934 0.983 1_545 S
C948 C949 1.363 . S
C948 C954 1.379 . S
C948 N956 1.356 . S
C949 C948 1.363 . S
C949 C955 1.363 . S
C950 C951 1.363 . S
C950 C955 1.379 . S
C950 N957 1.356 . S
C951 C950 1.363 . S
C951 C954 1.363 . S
N952 C954 1.356 . S
N952 H964 0.984 . S
N952 H965 0.985 . S
N953 C955 1.356 . S
N953 H958 0.984 . S
N953 H959 0.985 . S
C954 C948 1.379 . S
C954 C951 1.363 . S
C954 N952 1.356 . S
C955 C949 1.363 . S
C955 C950 1.379 . S
C955 N953 1.356 . S
N956 C948 1.356 . S
N956 H962 0.984 . S
N956 H963 0.984 . S
N957 C950 1.356 . S
N957 H960 0.984 . S
N957 H961 0.985 . S
H958 N953 0.984 . S
H959 N953 0.985 . S
H960 N957 0.984 . S
H961 N957 0.985 . S
H962 N956 0.984 . S
H963 N956 0.984 . S
H964 N952 0.984 . S
H965 N952 0.985 . S
C966 C967 1.363 . S
C966 C972 1.379 1_545 S
C966 N974 1.356 1_545 S
C967 C966 1.363 . S
C967 C973 1.363 . S
C968 C969 1.363 . S
C968 C973 1.379 . S
C968 N975 1.356 . S
C969 C968 1.363 . S
C969 C972 1.363 1_545 S
N970 C972 1.356 . S
N970 H982 0.984 . S
N970 H983 0.985 . S
N971 C973 1.356 . S
N971 H976 0.984 . S
N971 H977 0.985 . S
C972 C966 1.379 1_565 S
C972 C969 1.363 1_565 S
C972 N970 1.356 . S
C973 C967 1.363 . S
C973 C968 1.379 . S
C973 N971 1.356 . S
N974 C966 1.356 1_565 S
N974 H980 0.984 . S
N974 H981 0.984 1_565 S
N975 C968 1.356 . S
N975 H978 0.984 . S
N975 H979 0.985 . S
H976 N971 0.984 . S
H977 N971 0.985 . S
H978 N975 0.984 . S
H979 N975 0.985 . S
H980 N974 0.984 . S
H981 N974 0.984 1_545 S
H982 N970 0.984 . S
H983 N970 0.985 . S
C984 C985 1.363 . S
C984 C990 1.379 . S
C984 N992 1.356 . S
C985 C984 1.363 . S
C985 C991 1.363 . S
C986 C987 1.363 . S
C986 C991 1.379 . S
C986 N993 1.356 . S
C987 C986 1.363 . S
C987 C990 1.363 . S
N988 C990 1.356 . S
N988 H1000 0.984 . S
N988 H1001 0.985 . S
N989 C991 1.356 . S
N989 H994 0.984 . S
N989 H995 0.985 . S
C990 C984 1.379 . S
C990 C987 1.363 . S
C990 N988 1.356 . S
C991 C985 1.363 . S
C991 C986 1.379 . S
C991 N989 1.356 . S
N992 C984 1.356 . S
N992 H998 0.984 . S
N992 H999 0.984 . S
N993 C986 1.356 . S
N993 H996 0.984 . S
N993 H997 0.985 . S
H994 N989 0.984 . S
H995 N989 0.985 . S
H996 N993 0.984 . S
H997 N993 0.985 . S
H998 N992 0.984 . S
H999 N992 0.984 . S
H1000 N988 0.984 . S
H1001 N988 0.985 . S
C1002 C1003 1.363 1_565 S
C1002 C1008 1.379 1_565 S
C1002 N1010 1.356 . S
C1003 C1002 1.363 1_545 S
C1003 C1009 1.363 . S
C1004 C1005 1.363 . S
C1004 C1009 1.379 . S
C1004 N1011 1.356 . S
C1005 C1004 1.363 . S
C1005 C1008 1.363 . S
N1006 C1008 1.356 1_565 S
N1006 H1018 0.984 . S
N1006 H1019 0.985 1_565 S
N1007 C1009 1.356 . S
N1007 H1012 0.984 1_455 S
N1007 H1013 0.985 . S
C1008 C1002 1.379 1_545 S
C1008 C1005 1.363 . S
C1008 N1006 1.356 1_545 S
C1009 C1003 1.363 . S
C1009 C1004 1.379 . S
C1009 N1007 1.356 . S
N1010 C1002 1.356 . S
N1010 H1016 0.984 . S
N1010 H1017 0.984 . S
N1011 C1004 1.356 . S
N1011 H1014 0.984 . S
N1011 H1015 0.985 . S
H1012 N1007 0.984 1_655 S
H1013 N1007 0.985 . S
H1014 N1011 0.984 . S
H1015 N1011 0.985 . S
H1016 N1010 0.984 . S
H1017 N1010 0.984 . S
H1018 N1006 0.984 . S
H1019 N1006 0.985 1_545 S
C1020 C1021 1.363 . S
C1020 C1026 1.379 . S
C1020 N1028 1.356 1_565 S
C1021 C1020 1.363 . S
C1021 C1027 1.363 . S
C1022 C1023 1.363 . S
C1022 C1027 1.379 . S
C1022 N1029 1.356 . S
C1023 C1022 1.363 . S
C1023 C1026 1.363 . S
N1024 C1026 1.356 . S
N1024 H1036 0.984 . S
N1024 H1037 0.985 . S
N1025 C1027 1.356 . S
N1025 H1030 0.984 . S
N1025 H1031 0.985 . S
C1026 C1020 1.379 . S
C1026 C1023 1.363 . S
C1026 N1024 1.356 . S
C1027 C1021 1.363 . S
C1027 C1022 1.379 . S
C1027 N1025 1.356 . S
N1028 C1020 1.356 1_545 S
N1028 H1034 0.984 . S
N1028 H1035 0.984 . S
N1029 C1022 1.356 . S
N1029 H1032 0.984 . S
N1029 H1033 0.985 . S
H1030 N1025 0.984 . S
H1031 N1025 0.985 . S
H1032 N1029 0.984 . S
H1033 N1029 0.985 . S
H1034 N1028 0.984 . S
H1035 N1028 0.984 . S
H1036 N1024 0.984 . S
H1037 N1024 0.985 . S
C1038 C1039 1.363 . S
C1038 C1044 1.379 . S
C1038 N1046 1.356 . S
C1039 C1038 1.363 . S
C1039 C1045 1.363 1_565 S
C1040 C1041 1.363 . S
C1040 C1045 1.379 1_565 S
C1040 N1047 1.356 1_565 S
C1041 C1040 1.363 . S
C1041 C1044 1.363 . S
N1042 C1044 1.356 . S
N1042 H1054 0.984 . S
N1042 H1055 0.985 . S
N1043 C1045 1.356 . S
N1043 H1048 0.984 . S
N1043 H1049 0.985 . S
C1044 C1038 1.379 . S
C1044 C1041 1.363 . S
C1044 N1042 1.356 . S
C1045 C1039 1.363 1_545 S
C1045 C1040 1.379 1_545 S
C1045 N1043 1.356 . S
N1046 C1038 1.356 . S
N1046 H1052 0.984 . S
N1046 H1053 0.984 . S
N1047 C1040 1.356 1_545 S
N1047 H1050 0.984 1_545 S
N1047 H1051 0.985 . S
H1048 N1043 0.984 . S
H1049 N1043 0.985 . S
H1050 N1047 0.984 1_565 S
H1051 N1047 0.985 . S
H1052 N1046 0.984 . S
H1053 N1046 0.984 . S
H1054 N1042 0.984 . S
H1055 N1042 0.985 . S
C1056 C1057 1.363 . S
C1056 C1062 1.379 . S
C1056 N1064 1.356 . S
C1057 C1056 1.363 . S
C1057 C1063 1.363 . S
C1058 C1059 1.363 . S
C1058 C1063 1.379 . S
C1058 N1065 1.356 . S
C1059 C1058 1.363 . S
C1059 C1062 1.363 . S
N1060 C1062 1.356 . S
N1060 H1072 0.984 . S
N1060 H1073 0.985 . S
N1061 C1063 1.356 . S
N1061 H1066 0.984 . S
N1061 H1067 0.985 . S
C1062 C1056 1.379 . S
C1062 C1059 1.363 . S
C1062 N1060 1.356 . S
C1063 C1057 1.363 . S
C1063 C1058 1.379 . S
C1063 N1061 1.356 . S
N1064 C1056 1.356 . S
N1064 H1070 0.984 . S
N1064 H1071 0.984 . S
N1065 C1058 1.356 . S
N1065 H1068 0.984 . S
N1065 H1069 0.985 . S
H1066 N1061 0.984 . S
H1067 N1061 0.985 . S
H1068 N1065 0.984 . S
H1069 N1065 0.985 . S
H1070 N1064 0.984 . S
H1071 N1064 0.984 . S
H1072 N1060 0.984 . S
H1073 N1060 0.985 . S
C1074 C1075 1.363 . S
C1074 C1080 1.379 . S
C1074 N1082 1.356 . S
C1075 C1074 1.363 . S
C1075 C1081 1.363 . S
C1076 C1077 1.363 . S
C1076 C1081 1.379 . S
C1076 N1083 1.356 . S
C1077 C1076 1.363 . S
C1077 C1080 1.363 . S
N1078 C1080 1.356 . S
N1078 H1090 0.984 . S
N1078 H1091 0.985 . S
N1079 C1081 1.356 . S
N1079 H1084 0.984 . S
N1079 H1085 0.985 . S
C1080 C1074 1.379 . S
C1080 C1077 1.363 . S
C1080 N1078 1.356 . S
C1081 C1075 1.363 . S
C1081 C1076 1.379 . S
C1081 N1079 1.356 . S
N1082 C1074 1.356 . S
N1082 H1088 0.984 . S
N1082 H1089 0.984 . S
N1083 C1076 1.356 . S
N1083 H1086 0.984 . S
N1083 H1087 0.985 . S
H1084 N1079 0.984 . S
H1085 N1079 0.985 . S
H1086 N1083 0.984 . S
H1087 N1083 0.985 . S
H1088 N1082 0.984 . S
H1089 N1082 0.984 . S
H1090 N1078 0.984 . S
H1091 N1078 0.985 . S
C1092 C1093 1.363 . S
C1092 C1098 1.379 . S
C1092 N1100 1.356 . S
C1093 C1092 1.363 . S
C1093 C1099 1.363 . S
C1094 C1095 1.363 . S
C1094 C1099 1.379 . S
C1094 N1101 1.356 . S
C1095 C1094 1.363 . S
C1095 C1098 1.363 . S
N1096 C1098 1.356 . S
N1096 H1108 0.984 . S
N1096 H1109 0.985 . S
N1097 C1099 1.356 . S
N1097 H1102 0.984 . S
N1097 H1103 0.985 . S
C1098 C1092 1.379 . S
C1098 C1095 1.363 . S
C1098 N1096 1.356 . S
C1099 C1093 1.363 . S
C1099 C1094 1.379 . S
C1099 N1097 1.356 . S
N1100 C1092 1.356 . S
N1100 H1106 0.984 . S
N1100 H1107 0.984 . S
N1101 C1094 1.356 . S
N1101 H1104 0.984 . S
N1101 H1105 0.985 . S
H1102 N1097 0.984 . S
H1103 N1097 0.985 . S
H1104 N1101 0.984 . S
H1105 N1101 0.985 . S
H1106 N1100 0.984 . S
H1107 N1100 0.984 . S
H1108 N1096 0.984 . S
H1109 N1096 0.985 . S
C1110 C1111 1.363 . S
C1110 C1116 1.379 . S
C1110 N1118 1.356 . S
C1111 C1110 1.363 . S
C1111 C1117 1.363 . S
C1112 C1113 1.363 . S
C1112 C1117 1.379 . S
C1112 N1119 1.356 . S
C1113 C1112 1.363 . S
C1113 C1116 1.363 . S
N1114 C1116 1.356 1_455 S
N1114 H1126 0.984 . S
N1114 H1127 0.985 . S
N1115 C1117 1.356 . S
N1115 H1120 0.984 . S
N1115 H1121 0.985 . S
C1116 C1110 1.379 . S
C1116 C1113 1.363 . S
C1116 N1114 1.356 1_655 S
C1117 C1111 1.363 . S
C1117 C1112 1.379 . S
C1117 N1115 1.356 . S
N1118 C1110 1.356 . S
N1118 H1124 0.984 . S
N1118 H1125 0.984 . S
N1119 C1112 1.356 . S
N1119 H1122 0.984 . S
N1119 H1123 0.985 . S
H1120 N1115 0.984 . S
H1121 N1115 0.985 . S
H1122 N1119 0.984 . S
H1123 N1119 0.985 . S
H1124 N1118 0.984 . S
H1125 N1118 0.984 . S
H1126 N1114 0.984 . S
H1127 N1114 0.985 . S
C1128 C1129 1.363 . S
C1128 C1134 1.379 . S
C1128 N1136 1.356 . S
C1129 C1128 1.363 . S
C1129 C1135 1.363 . S
C1130 C1131 1.363 . S
C1130 C1135 1.379 . S
C1130 N1137 1.356 . S
C1131 C1130 1.363 . S
C1131 C1134 1.363 . S
N1132 C1134 1.356 . S
N1132 H1144 0.984 . S
N1132 H1145 0.985 . S
N1133 C1135 1.356 . S
N1133 H1138 0.984 . S
N1133 H1139 0.985 . S
C1134 C1128 1.379 . S
C1134 C1131 1.363 . S
C1134 N1132 1.356 . S
C1135 C1129 1.363 . S
C1135 C1130 1.379 . S
C1135 N1133 1.356 . S
N1136 C1128 1.356 . S
N1136 H1142 0.984 . S
N1136 H1143 0.984 . S
N1137 C1130 1.356 . S
N1137 H1140 0.984 . S
N1137 H1141 0.985 . S
H1138 N1133 0.984 . S
H1139 N1133 0.985 . S
H1140 N1137 0.984 . S
H1141 N1137 0.985 . S
H1142 N1136 0.984 . S
H1143 N1136 0.984 . S
H1144 N1132 0.984 . S
H1145 N1132 0.985 . S
C1146 C1147 1.363 . S
C1146 C1152 1.379 . S
C1146 N1154 1.356 . S
C1147 C1146 1.363 . S
C1147 C1153 1.363 . S
C1148 C1149 1.363 . S
C1148 C1153 1.379 . S
C1148 N1155 1.356 . S
C1149 C1148 1.363 . S
C1149 C1152 1.363 . S
N1150 C1152 1.356 . S
N1150 H1162 0.984 . S
N1150 H1163 0.985 . S
N1151 C1153 1.356 . S
N1151 H1156 0.984 . S
N1151 H1157 0.985 . S
C1152 C1146 1.379 . S
C1152 C1149 1.363 . S
C1152 N1150 1.356 . S
C1153 C1147 1.363 . S
C1153 C1148 1.379 . S
C1153 N1151 1.356 . S
N1154 C1146 1.356 . S
N1154 H1160 0.984 . S
N1154 H1161 0.984 . S
N1155 C1148 1.356 . S
N1155 H1158 0.984 . S
N1155 H1159 0.985 . S
H1156 N1151 0.984 . S
H1157 N1151 0.985 . S
H1158 N1155 0.984 . S
H1159 N1155 0.985 . S
H1160 N1154 0.984 . S
H1161 N1154 0.984 . S
H1162 N1150 0.984 . S
H1163 N1150 0.985 . S
C1164 C1165 1.363 . S
C1164 C1170 1.379 . S
C1164 N1172 1.356 . S
C1165 C1164 1.363 . S
C1165 C1171 1.363 . S
C1166 C1167 1.363 . S
C1166 C1171 1.379 . S
C1166 N1173 1.356 . S
C1167 C1166 1.363 . S
C1167 C1170 1.363 . S
N1168 C1170 1.356 . S
N1168 H1180 0.984 . S
N1168 H1181 0.985 . S
N1169 C1171 1.356 . S
N1169 H1174 0.984 . S
N1169 H1175 0.985 . S
C1170 C1164 1.379 . S
C1170 C1167 1.363 . S
C1170 N1168 1.356 . S
C1171 C1165 1.363 . S
C1171 C1166 1.379 . S
C1171 N1169 1.356 . S
N1172 C1164 1.356 . S
N1172 H1178 0.984 . S
N1172 H1179 0.984 . S
N1173 C1166 1.356 . S
N1173 H1176 0.984 . S
N1173 H1177 0.985 . S
H1174 N1169 0.984 . S
H1175 N1169 0.985 . S
H1176 N1173 0.984 . S
H1177 N1173 0.985 . S
H1178 N1172 0.984 . S
H1179 N1172 0.984 . S
H1180 N1168 0.984 . S
H1181 N1168 0.985 . S
C1182 C1183 1.363 . S
C1182 C1188 1.379 . S
C1182 N1190 1.356 . S
C1183 C1182 1.363 . S
C1183 C1189 1.363 . S
C1184 C1185 1.363 . S
C1184 C1189 1.379 . S
C1184 N1191 1.356 1_455 S
C1185 C1184 1.363 . S
C1185 C1188 1.363 . S
N1186 C1188 1.356 . S
N1186 H1198 0.984 . S
N1186 H1199 0.985 . S
N1187 C1189 1.356 . S
N1187 H1192 0.984 . S
N1187 H1193 0.985 . S
C1188 C1182 1.379 . S
C1188 C1185 1.363 . S
C1188 N1186 1.356 . S
C1189 C1183 1.363 . S
C1189 C1184 1.379 . S
C1189 N1187 1.356 . S
N1190 C1182 1.356 . S
N1190 H1196 0.984 . S
N1190 H1197 0.984 . S
N1191 C1184 1.356 1_655 S
N1191 H1194 0.984 . S
N1191 H1195 0.985 . S
H1192 N1187 0.984 . S
H1193 N1187 0.985 . S
H1194 N1191 0.984 . S
H1195 N1191 0.985 . S
H1196 N1190 0.984 . S
H1197 N1190 0.984 . S
H1198 N1186 0.984 . S
H1199 N1186 0.985 . S
C1200 C1201 1.363 . S
C1200 C1206 1.379 . S
C1200 N1208 1.356 . S
C1201 C1200 1.363 . S
C1201 C1207 1.363 . S
C1202 C1203 1.363 . S
C1202 C1207 1.379 . S
C1202 N1209 1.356 . S
C1203 C1202 1.363 . S
C1203 C1206 1.363 . S
N1204 C1206 1.356 . S
N1204 H1216 0.984 . S
N1204 H1217 0.985 . S
N1205 C1207 1.356 . S
N1205 H1210 0.984 . S
N1205 H1211 0.985 . S
C1206 C1200 1.379 . S
C1206 C1203 1.363 . S
C1206 N1204 1.356 . S
C1207 C1201 1.363 . S
C1207 C1202 1.379 . S
C1207 N1205 1.356 . S
N1208 C1200 1.356 . S
N1208 H1214 0.984 . S
N1208 H1215 0.984 . S
N1209 C1202 1.356 . S
N1209 H1212 0.984 . S
N1209 H1213 0.985 . S
H1210 N1205 0.984 . S
H1211 N1205 0.985 . S
H1212 N1209 0.984 . S
H1213 N1209 0.985 . S
H1214 N1208 0.984 . S
H1215 N1208 0.984 . S
H1216 N1204 0.984 . S
H1217 N1204 0.985 . S
C1218 C1219 1.363 . S
C1218 C1224 1.379 . S
C1218 N1226 1.356 . S
C1219 C1218 1.363 . S
C1219 C1225 1.363 . S
C1220 C1221 1.363 . S
C1220 C1225 1.379 . S
C1220 N1227 1.356 1_565 S
C1221 C1220 1.363 . S
C1221 C1224 1.363 . S
N1222 C1224 1.356 . S
N1222 H1234 0.984 . S
N1222 H1235 0.985 . S
N1223 C1225 1.356 . S
N1223 H1228 0.984 . S
N1223 H1229 0.985 . S
C1224 C1218 1.379 . S
C1224 C1221 1.363 . S
C1224 N1222 1.356 . S
C1225 C1219 1.363 . S
C1225 C1220 1.379 . S
C1225 N1223 1.356 . S
N1226 C1218 1.356 . S
N1226 H1232 0.984 . S
N1226 H1233 0.984 . S
N1227 C1220 1.356 1_545 S
N1227 H1230 0.984 . S
N1227 H1231 0.985 . S
H1228 N1223 0.984 . S
H1229 N1223 0.985 . S
H1230 N1227 0.984 . S
H1231 N1227 0.985 . S
H1232 N1226 0.984 . S
H1233 N1226 0.984 . S
H1234 N1222 0.984 . S
H1235 N1222 0.985 . S
C1236 C1237 1.363 . S
C1236 C1242 1.379 . S
C1236 N1244 1.356 . S
C1237 C1236 1.363 . S
C1237 C1243 1.363 . S
C1238 C1239 1.363 . S
C1238 C1243 1.379 1_554 S
C1238 N1245 1.356 . S
C1239 C1238 1.363 . S
C1239 C1242 1.363 1_554 S
N1240 C1242 1.344 1_554 S
N1240 H1252 0.976 1_554 S
N1240 H1253 1.006 . S
N1241 C1243 1.356 . S
N1241 H1246 0.984 . S
N1241 H1247 0.985 . S
C1242 C1236 1.379 . S
C1242 C1239 1.363 1_556 S
C1242 N1240 1.344 1_556 S
C1243 C1237 1.363 . S
C1243 C1238 1.379 1_556 S
C1243 N1241 1.356 . S
N1244 C1236 1.356 . S
N1244 H1250 0.984 . S
N1244 H1251 0.984 . S
N1245 C1238 1.356 . S
N1245 H1248 0.984 . S
N1245 H1249 0.985 . S
H1246 N1241 0.984 . S
H1247 N1241 0.985 . S
H1248 N1245 0.984 . S
H1249 N1245 0.985 . S
H1250 N1244 0.984 . S
H1251 N1244 0.984 . S
H1252 N1240 0.976 1_556 S
H1253 N1240 1.006 . S
C1254 C1255 1.363 . S
C1254 C1260 1.379 . S
C1254 N1262 1.356 1_545 S
C1255 C1254 1.363 . S
C1255 C1261 1.363 . S
C1256 C1257 1.363 . S
C1256 C1261 1.379 . S
C1256 N1263 1.356 . S
C1257 C1256 1.363 . S
C1257 C1260 1.363 . S
N1258 C1260 1.356 . S
N1258 H1270 0.984 . S
N1258 H1271 0.985 . S
N1259 C1261 1.356 . S
N1259 H1264 0.984 1_545 S
N1259 H1265 0.985 . S
C1260 C1254 1.379 . S
C1260 C1257 1.363 . S
C1260 N1258 1.356 . S
C1261 C1255 1.363 . S
C1261 C1256 1.379 . S
C1261 N1259 1.356 . S
N1262 C1254 1.356 1_565 S
N1262 H1268 0.984 . S
N1262 H1269 0.984 . S
N1263 C1256 1.356 . S
N1263 H1266 0.984 . S
N1263 H1267 0.985 . S
H1264 N1259 0.984 1_565 S
H1265 N1259 0.985 . S
H1266 N1263 0.984 . S
H1267 N1263 0.985 . S
H1268 N1262 0.984 . S
H1269 N1262 0.984 . S
H1270 N1258 0.984 . S
H1271 N1258 0.985 . S
C1272 C1273 1.363 . S
C1272 C1278 1.379 . S
C1272 N1280 1.356 . S
C1273 C1272 1.363 . S
C1273 C1279 1.363 . S
C1274 C1275 1.363 . S
C1274 C1279 1.379 . S
C1274 N1281 1.356 . S
C1275 C1274 1.363 . S
C1275 C1278 1.363 . S
N1276 C1278 1.356 . S
N1276 H1288 0.984 . S
N1276 H1289 0.985 . S
N1277 C1279 1.356 . S
N1277 H1282 0.984 . S
N1277 H1283 0.985 . S
C1278 C1272 1.379 . S
C1278 C1275 1.363 . S
C1278 N1276 1.356 . S
C1279 C1273 1.363 . S
C1279 C1274 1.379 . S
C1279 N1277 1.356 . S
N1280 C1272 1.356 . S
N1280 H1286 0.984 . S
N1280 H1287 0.984 . S
N1281 C1274 1.356 . S
N1281 H1284 0.984 . S
N1281 H1285 0.985 . S
H1282 N1277 0.984 . S
H1283 N1277 0.985 . S
H1284 N1281 0.984 . S
H1285 N1281 0.985 . S
H1286 N1280 0.984 . S
H1287 N1280 0.984 . S
H1288 N1276 0.984 . S
H1289 N1276 0.985 . S
C1290 C1291 1.363 . S
C1290 C1296 1.379 . S
C1290 N1298 1.356 . S
C1291 C1290 1.363 . S
C1291 C1297 1.363 . S
C1292 C1293 1.363 . S
C1292 C1297 1.379 . S
C1292 N1299 1.356 . S
C1293 C1292 1.363 . S
C1293 C1296 1.363 . S
N1294 C1296 1.356 1_565 S
N1294 H1306 0.984 . S
N1294 H1307 0.985 . S
N1295 C1297 1.356 . S
N1295 H1300 0.984 . S
N1295 H1301 0.985 . S
C1296 C1290 1.379 . S
C1296 C1293 1.363 . S
C1296 N1294 1.356 1_545 S
C1297 C1291 1.363 . S
C1297 C1292 1.379 . S
C1297 N1295 1.356 . S
N1298 C1290 1.356 . S
N1298 H1304 0.984 . S
N1298 H1305 0.984 . S
N1299 C1292 1.356 . S
N1299 H1302 0.984 . S
N1299 H1303 0.985 . S
H1300 N1295 0.984 . S
H1301 N1295 0.985 . S
H1302 N1299 0.984 . S
H1303 N1299 0.985 . S
H1304 N1298 0.984 . S
H1305 N1298 0.984 . S
H1306 N1294 0.984 . S
H1307 N1294 0.985 . S
C1308 C1309 1.363 . S
C1308 C1314 1.379 . S
C1308 N1316 1.356 . S
C1309 C1308 1.363 . S
C1309 C1315 1.363 . S
C1310 C1311 1.363 1_554 S
C1310 C1315 1.379 . S
C1310 N1317 1.356 1_554 S
C1311 C1310 1.363 1_556 S
C1311 C1314 1.363 1_556 S
N1312 C1314 1.356 1_556 S
N1312 H1324 0.984 . S
N1312 H1325 0.985 . S
N1313 C1315 1.356 . S
N1313 H1318 0.984 . S
N1313 H1319 0.985 . S
C1314 C1308 1.379 . S
C1314 C1311 1.363 1_554 S
C1314 N1312 1.356 1_554 S
C1315 C1309 1.363 . S
C1315 C1310 1.379 . S
C1315 N1313 1.356 . S
N1316 C1308 1.356 . S
N1316 H1322 0.984 . S
N1316 H1323 0.984 . S
N1317 C1310 1.356 1_556 S
N1317 H1320 0.984 . S
N1317 H1321 0.985 . S
H1318 N1313 0.984 . S
H1319 N1313 0.985 . S
H1320 N1317 0.984 . S
H1321 N1317 0.985 . S
H1322 N1316 0.984 . S
H1323 N1316 0.984 . S
H1324 N1312 0.984 . S
H1325 N1312 0.985 . S
C1326 C1327 1.363 . S
C1326 C1332 1.379 . S
C1326 N1334 1.356 . S
C1327 C1326 1.363 . S
C1327 C1333 1.363 . S
C1328 C1329 1.363 . S
C1328 C1333 1.379 . S
C1328 N1335 1.356 1_565 S
C1329 C1328 1.363 . S
C1329 C1332 1.363 . S
N1330 C1332 1.356 . S
N1330 H1342 0.984 . S
N1330 H1343 0.985 . S
N1331 C1333 1.356 . S
N1331 H1336 0.984 . S
N1331 H1337 0.985 . S
C1332 C1326 1.379 . S
C1332 C1329 1.363 . S
C1332 N1330 1.356 . S
C1333 C1327 1.363 . S
C1333 C1328 1.379 . S
C1333 N1331 1.356 . S
N1334 C1326 1.356 . S
N1334 H1340 0.984 . S
N1334 H1341 0.984 . S
N1335 C1328 1.356 1_545 S
N1335 H1338 0.984 . S
N1335 H1339 0.985 . S
H1336 N1331 0.984 . S
H1337 N1331 0.985 . S
H1338 N1335 0.984 . S
H1339 N1335 0.985 . S
H1340 N1334 0.984 . S
H1341 N1334 0.984 . S
H1342 N1330 0.984 . S
H1343 N1330 0.985 . S
C481 C10 0.518 . S
C483 C301 0.588 . S
C499 C40 0.535 . S
C501 C340 0.530 . S
C517 C61 0.588 . S
C519 C250 0.518 . S
C535 C280 0.535 . S
C537 C100 0.529 . S
C553 C121 0.518 . S
C555 C430 0.588 . S
C571 C451 0.530 . S
C573 C151 0.535 . S
C589 C361 0.518 . S
C591 C190 0.588 . S
C607 C211 0.529 . S
C609 C391 0.535 . S
C625 C16 2.474 . S
C627 C147 2.474 . S
C643 C46 2.175 . S
C645 C417 2.175 . S
C661 N74 1.968 . S
C663 N186 1.968 . S
C679 C106 2.719 . S
C681 C477 2.719 . S
C697 C177 2.175 . S
C699 C286 2.175 . S
C715 C346 2.719 . S
C717 C237 2.719 . S
C733 C387 2.474 . S
C735 C256 2.474 . S
C751 N314 1.968 . S
C753 N426 1.968 . S
C769 C27 1.959 . S
C771 C220 1.962 . S
C787 C57 1.847 . S
C789 C370 1.781 . S
C805 N66 1.360 . S
C807 C160 1.309 . S
C823 C117 1.791 1_455 S
C825 C421 1.747 . S
C841 C91 1.962 . S
C843 C136 1.959 . S
C859 C166 1.847 . S
C861 C241 1.781 . S
C877 N194 1.360 . S
C879 C31 1.309 . S
C895 C310 1.747 . S
C897 C226 1.791 1_655 S
C913 C267 1.959 . S
C915 C460 1.961 1_565 S
C931 C130 1.781 . S
C933 C297 1.847 1_565 S
C949 C400 1.309 1_545 S
C951 N306 1.360 . S
C967 C181 1.747 . S
C969 C357 1.791 1_545 S
C985 C376 1.959 . S
C987 C331 1.961 1_545 S
C1003 C406 1.847 1_545 S
C1005 C1 1.781 . S
C1021 C271 1.309 1_565 S
C1023 N434 1.360 . S
C1039 C466 1.791 1_565 S
C1041 C70 1.747 . S
C1057 N6 1.299 . S
C1059 N284 1.415 . S
C1075 C316 1.686 . S
C1077 N36 1.489 . S
C1093 C87 1.512 . S
C1095 N344 1.516 . S
C1111 N254 1.354 . S
C1113 N96 1.245 . S
C1129 N396 1.415 . S
C1131 N134 1.299 . S
C1147 C447 1.686 . S
C1149 N164 1.489 . S
C1165 N456 1.516 . S
C1167 C196 1.512 . S
C1183 N366 1.354 . S
C1185 N224 1.245 . S
C1201 N44 1.415 . S
C1203 N246 1.298 . S
C1219 C76 1.686 . S
C1221 N276 1.489 . S
C1237 N104 1.516 . S
C1239 C327 1.512 . S
C1255 N336 1.245 1_545 S
C1257 N14 1.354 . S
C1273 N156 1.415 . S
C1275 N374 1.298 . S
C1291 C207 1.686 . S
C1293 N404 1.489 . S
C1309 N216 1.516 . S
C1311 C436 1.512 . S
C1327 N126 1.354 . S
C1329 N464 1.245 1_565 S
