# Generated by pormake.
# Topology ukk, (4)-cn, num edge types: 1
# Building blocks:
#     Node 0, Type 0, BuildingBlock: CEKHIL_clean_sbu_0, # of connection points: 4
#     Node 1, Type 0, BuildingBlock: CEKHIL_clean_sbu_0, # of connection points: 4
#     Node 2, Type 0, BuildingBlock: CEKHIL_clean_sbu_0, # of connection points: 4
#     Node 3, Type 0, BuildingBlock: CEKHIL_clean_sbu_0, # of connection points: 4
#     Node 4, Type 0, BuildingBlock: CEKHIL_clean_sbu_0, # of connection points: 4
#     Node 5, Type 0, BuildingBlock: CEKHIL_clean_sbu_0, # of connection points: 4
#     Node 6, Type 0, BuildingBlock: CEKHIL_clean_sbu_0, # of connection points: 4
#     Node 7, Type 0, BuildingBlock: CEKHIL_clean_sbu_0, # of connection points: 4
#     Node 8, Type 0, BuildingBlock: CEKHIL_clean_sbu_0, # of connection points: 4
#     Node 9, Type 0, BuildingBlock: CEKHIL_clean_sbu_0, # of connection points: 4
#     Node 10, Type 0, BuildingBlock: CEKHIL_clean_sbu_0, # of connection points: 4
#     Node 11, Type 0, BuildingBlock: CEKHIL_clean_sbu_0, # of connection points: 4
#     Node 12, Type 0, BuildingBlock: CEKHIL_clean_sbu_0, # of connection points: 4
#     Node 13, Type 0, BuildingBlock: CEKHIL_clean_sbu_0, # of connection points: 4
#     Node 14, Type 0, BuildingBlock: CEKHIL_clean_sbu_0, # of connection points: 4
#     Node 15, Type 0, BuildingBlock: CEKHIL_clean_sbu_0, # of connection points: 4
#     Edge 16, Type (0, 0), BuildingBlock: TEMPAE_clean_linker_10, # of connection points: 2
#     Edge 17, Type (0, 0), BuildingBlock: TEMPAE_clean_linker_10, # of connection points: 2
#     Edge 18, Type (0, 0), BuildingBlock: TEMPAE_clean_linker_10, # of connection points: 2
#     Edge 19, Type (0, 0), BuildingBlock: TEMPAE_clean_linker_10, # of connection points: 2
#     Edge 20, Type (0, 0), BuildingBlock: TEMPAE_clean_linker_10, # of connection points: 2
#     Edge 21, Type (0, 0), BuildingBlock: TEMPAE_clean_linker_10, # of connection points: 2
#     Edge 22, Type (0, 0), BuildingBlock: TEMPAE_clean_linker_10, # of connection points: 2
#     Edge 23, Type (0, 0), BuildingBlock: TEMPAE_clean_linker_10, # of connection points: 2
#     Edge 24, Type (0, 0), BuildingBlock: TEMPAE_clean_linker_10, # of connection points: 2
#     Edge 25, Type (0, 0), BuildingBlock: TEMPAE_clean_linker_10, # of connection points: 2
#     Edge 26, Type (0, 0), BuildingBlock: TEMPAE_clean_linker_10, # of connection points: 2
#     Edge 27, Type (0, 0), BuildingBlock: TEMPAE_clean_linker_10, # of connection points: 2
#     Edge 28, Type (0, 0), BuildingBlock: TEMPAE_clean_linker_10, # of connection points: 2
#     Edge 29, Type (0, 0), BuildingBlock: TEMPAE_clean_linker_10, # of connection points: 2
#     Edge 30, Type (0, 0), BuildingBlock: TEMPAE_clean_linker_10, # of connection points: 2
#     Edge 31, Type (0, 0), BuildingBlock: TEMPAE_clean_linker_10, # of connection points: 2
#     Edge 32, Type (0, 0), BuildingBlock: TEMPAE_clean_linker_10, # of connection points: 2
#     Edge 33, Type (0, 0), BuildingBlock: TEMPAE_clean_linker_10, # of connection points: 2
#     Edge 34, Type (0, 0), BuildingBlock: TEMPAE_clean_linker_10, # of connection points: 2
#     Edge 35, Type (0, 0), BuildingBlock: TEMPAE_clean_linker_10, # of connection points: 2
#     Edge 36, Type (0, 0), BuildingBlock: TEMPAE_clean_linker_10, # of connection points: 2
#     Edge 37, Type (0, 0), BuildingBlock: TEMPAE_clean_linker_10, # of connection points: 2
#     Edge 38, Type (0, 0), BuildingBlock: TEMPAE_clean_linker_10, # of connection points: 2
#     Edge 39, Type (0, 0), BuildingBlock: TEMPAE_clean_linker_10, # of connection points: 2
#     Edge 40, Type (0, 0), BuildingBlock: TEMPAE_clean_linker_10, # of connection points: 2
#     Edge 41, Type (0, 0), BuildingBlock: TEMPAE_clean_linker_10, # of connection points: 2
#     Edge 42, Type (0, 0), BuildingBlock: TEMPAE_clean_linker_10, # of connection points: 2
#     Edge 43, Type (0, 0), BuildingBlock: TEMPAE_clean_linker_10, # of connection points: 2
#     Edge 44, Type (0, 0), BuildingBlock: TEMPAE_clean_linker_10, # of connection points: 2
#     Edge 45, Type (0, 0), BuildingBlock: TEMPAE_clean_linker_10, # of connection points: 2
#     Edge 46, Type (0, 0), BuildingBlock: TEMPAE_clean_linker_10, # of connection points: 2
#     Edge 47, Type (0, 0), BuildingBlock: TEMPAE_clean_linker_10, # of connection points: 2
# Relax obj value: 0.119
# Max RMSD: 0.294
# Mean RMSD: 0.294
data_MOF--net-ukk--node1-CEKHIL_clean_sbu_0--edge1-TEMPAE_clean_linker_10
_symmetry_space_group_name_H-M    P1
_symmetry_Int_Tables_number       1
_symmetry_cell_setting            triclinic
loop_
_symmetry_equiv_pos_as_xyz
'x, y, z'
_cell_length_a     54.400533
_cell_length_b     54.349403
_cell_length_c     16.304451
_cell_angle_alpha  89.909807
_cell_angle_beta   90.014286
_cell_angle_gamma 89.985194
loop_
_atom_site_label
_atom_site_type_symbol
_atom_site_fract_x
_atom_site_fract_y
_atom_site_fract_z
_atom_type_partial_charge
Co0 Co 0.34791 0.11681 0.16019 0.0
O1 O 0.31329 0.11135 0.14851 0.0
O2 O 0.33903 0.11809 0.04538 0.0
C3 C 0.35552 0.08601 0.24813 0.0
O4 O 0.38489 0.12209 0.14992 0.0
Co5 Co 0.36699 0.13355 0.32973 0.0
O6 O 0.39944 0.12978 0.27682 0.0
C7 C 0.34583 0.17049 0.21945 0.0
C8 C 0.31667 0.11391 0.07027 0.0
C9 C 0.40261 0.12633 0.20025 0.0
O10 O 0.34249 0.15335 0.1666 0.0
O11 O 0.35434 0.16639 0.29137 0.0
O12 O 0.35384 0.08184 0.17003 0.0
O13 O 0.34922 0.10783 0.27226 0.0
Co14 Co 0.1043 0.63951 0.87243 0.0
O15 O 0.10644 0.67445 0.88555 0.0
O16 O 0.10921 0.64717 0.98689 0.0
C17 C 0.0708 0.63934 0.7921 0.0
O18 O 0.10254 0.60206 0.88111 0.0
Co19 Co 0.11258 0.61709 0.70118 0.0
O20 O 0.09743 0.58778 0.75303 0.0
C21 C 0.15542 0.63311 0.79683 0.0
C22 C 0.1094 0.67003 0.96308 0.0
C23 C 0.09764 0.58457 0.83047 0.0
O24 O 0.14074 0.63809 0.85599 0.0
O25 O 0.14797 0.62537 0.72693 0.0
O26 O 0.06891 0.64106 0.87122 0.0
O27 O 0.09296 0.64051 0.76291 0.0
Co28 Co 0.65193 0.88464 0.14427 0.0
O29 O 0.68689 0.88168 0.14007 0.0
O30 O 0.66235 0.88109 0.03142 0.0
C31 C 0.65136 0.91685 0.23004 0.0
O32 O 0.61493 0.88806 0.12723 0.0
Co33 Co 0.62608 0.87437 0.30943 0.0
O34 O 0.59834 0.89116 0.25321 0.0
C35 C 0.64161 0.83271 0.20793 0.0
C36 C 0.68458 0.88044 0.06112 0.0
C37 C 0.59673 0.8926 0.17535 0.0
O38 O 0.64828 0.84812 0.15279 0.0
O39 O 0.63379 0.83914 0.27883 0.0
O40 O 0.65486 0.91988 0.15202 0.0
O41 O 0.65094 0.89423 0.25556 0.0
Co42 Co 0.88967 0.3507 0.85414 0.0
O43 O 0.88749 0.3155 0.85681 0.0
O44 O 0.88693 0.33958 0.9664 0.0
C45 C 0.92152 0.35279 0.76694 0.0
O46 O 0.89227 0.38776 0.87417 0.0
Co47 Co 0.87841 0.37822 0.69318 0.0
O48 O 0.89569 0.40538 0.74994 0.0
C49 C 0.8372 0.36074 0.79419 0.0
C50 C 0.88633 0.31746 0.93596 0.0
C51 C 0.89705 0.40636 0.82781 0.0
O52 O 0.85296 0.35307 0.84683 0.0
O53 O 0.84339 0.37065 0.72589 0.0
O54 O 0.92493 0.34876 0.84453 0.0
O55 O 0.89883 0.35283 0.74234 0.0
Co56 Co 0.35211 0.39554 0.09279 0.0
O57 O 0.31698 0.39589 0.10165 0.0
O58 O 0.3428 0.39051 0.20578 0.0
C59 C 0.35578 0.4293 0.01444 0.0
O60 O 0.38946 0.39462 0.10629 0.0
Co61 Co 0.37607 0.38614 0.92489 0.0
O62 O 0.40525 0.40027 0.98041 0.0
C63 C 0.35574 0.34428 0.01581 0.0
C64 C 0.32027 0.39198 0.17939 0.0
C65 C 0.4076 0.39941 0.05808 0.0
O66 O 0.35089 0.35916 0.07446 0.0
O67 O 0.36537 0.35118 0.94789 0.0
O68 O 0.35318 0.43097 0.09337 0.0
O69 O 0.35332 0.40739 0.9838 0.0
Co70 Co 0.38642 0.64974 0.87706 0.0
O71 O 0.3831 0.68492 0.87444 0.0
O72 O 0.38197 0.66065 0.76518 0.0
C73 C 0.41947 0.64842 0.95963 0.0
O74 O 0.38969 0.61271 0.85698 0.0
Co75 Co 0.3785 0.62188 0.04039 0.0
O76 O 0.39559 0.59521 0.98045 0.0
C77 C 0.33535 0.63813 0.94572 0.0
C78 C 0.38103 0.68276 0.79554 0.0
C79 C 0.39559 0.5942 0.90243 0.0
O80 O 0.34995 0.64633 0.8903 0.0
O81 O 0.34291 0.6284 0.01278 0.0
O82 O 0.42178 0.65265 0.88168 0.0
O83 O 0.39711 0.64782 0.98713 0.0
Co84 Co 0.63993 0.60516 0.10473 0.0
O85 O 0.67471 0.60508 0.1217 0.0
O86 O 0.64689 0.61048 0.21975 0.0
C87 C 0.63893 0.5714 0.02565 0.0
O88 O 0.60245 0.60527 0.10872 0.0
Co89 Co 0.61999 0.61374 0.92925 0.0
O90 O 0.58944 0.60038 0.97884 0.0
C91 C 0.63613 0.65614 0.02651 0.0
C92 C 0.6699 0.60858 0.19861 0.0
C93 C 0.58539 0.60099 0.05583 0.0
O94 O 0.64009 0.64162 0.08699 0.0
O95 O 0.62924 0.64885 0.95553 0.0
O96 O 0.63975 0.56962 0.10499 0.0
O97 O 0.64143 0.59341 0.99607 0.0
Co98 Co 0.60781 0.35086 0.88967 0.0
O99 O 0.60814 0.31564 0.887 0.0
O100 O 0.61359 0.33981 0.77873 0.0
C101 C 0.57371 0.35449 0.96622 0.0
O102 O 0.60756 0.38799 0.86969 0.0
Co103 Co 0.61569 0.37773 0.05346 0.0
O104 O 0.60003 0.40512 0.99235 0.0
C105 C 0.65883 0.35917 0.96471 0.0
C106 C 0.61191 0.31767 0.80878 0.0
C107 C 0.60141 0.40647 0.91451 0.0
O108 O 0.64418 0.35148 0.90878 0.0
O109 O 0.65129 0.36971 0.03029 0.0
O110 O 0.57238 0.35073 0.88777 0.0
O111 O 0.59558 0.35332 0.9979 0.0
Co112 Co 0.84943 0.60575 0.65377 0.0
O113 O 0.81429 0.6036 0.65003 0.0
O114 O 0.83824 0.61157 0.54303 0.0
C115 C 0.85548 0.57165 0.72864 0.0
O116 O 0.88651 0.60826 0.63476 0.0
Co117 Co 0.87526 0.61508 0.81829 0.0
O118 O 0.90379 0.6015 0.75782 0.0
C119 C 0.85307 0.65687 0.73219 0.0
C120 C 0.81621 0.60842 0.57239 0.0
C121 C 0.90521 0.60309 0.68005 0.0
O122 O 0.8471 0.64191 0.675 0.0
O123 O 0.8642 0.65005 0.79763 0.0
O124 O 0.85196 0.57041 0.64998 0.0
O125 O 0.85259 0.59321 0.76145 0.0
Co126 Co 0.60902 0.1392 0.34919 0.0
O127 O 0.60279 0.17347 0.36643 0.0
O128 O 0.61494 0.14723 0.46288 0.0
C129 C 0.57521 0.13131 0.27582 0.0
O130 O 0.61581 0.1023 0.35415 0.0
Co131 Co 0.6193 0.12022 0.17577 0.0
O132 O 0.60948 0.08851 0.22631 0.0
C133 C 0.6593 0.14389 0.26548 0.0
C134 C 0.60892 0.16958 0.44218 0.0
C135 C 0.61187 0.08472 0.30302 0.0
O136 O 0.64438 0.14656 0.32556 0.0
O137 O 0.65307 0.13406 0.19731 0.0
O138 O 0.57444 0.13198 0.35541 0.0
O139 O 0.59565 0.13835 0.24217 0.0
Co140 Co 0.14373 0.38954 0.64342 0.0
O141 O 0.17862 0.38931 0.62725 0.0
O142 O 0.15072 0.38768 0.52762 0.0
C143 C 0.14248 0.42088 0.73239 0.0
O144 O 0.1062 0.38991 0.63767 0.0
Co145 Co 0.12305 0.37568 0.81339 0.0
O146 O 0.09243 0.38991 0.76762 0.0
C147 C 0.14134 0.33652 0.70618 0.0
C148 C 0.1737 0.38786 0.5496 0.0
C149 C 0.08884 0.39223 0.69078 0.0
O150 O 0.14427 0.3528 0.65017 0.0
O151 O 0.13394 0.34171 0.77868 0.0
O152 O 0.14373 0.42484 0.65399 0.0
O153 O 0.14486 0.39815 0.7556 0.0
Co154 Co 0.39281 0.86048 0.33909 0.0
O155 O 0.39363 0.82605 0.36432 0.0
O156 O 0.38568 0.85565 0.45437 0.0
C157 C 0.42784 0.86178 0.26685 0.0
O158 O 0.39079 0.89809 0.3337 0.0
Co159 Co 0.38616 0.87567 0.15751 0.0
O160 O 0.39344 0.90883 0.20069 0.0
C161 C 0.34313 0.85946 0.25065 0.0
C162 C 0.38803 0.8323 0.43864 0.0
C163 C 0.39231 0.91444 0.27646 0.0
O164 O 0.35694 0.8576 0.31395 0.0
O165 O 0.35108 0.86571 0.17976 0.0
O166 O 0.42817 0.86256 0.34642 0.0
O167 O 0.40667 0.8573 0.23355 0.0
Co168 Co 0.86053 0.88186 0.59543 0.0
O169 O 0.82715 0.89027 0.6192 0.0
O170 O 0.85477 0.87832 0.71166 0.0
C171 C 0.86865 0.91383 0.51338 0.0
O172 O 0.89689 0.87306 0.59341 0.0
Co173 Co 0.87411 0.86712 0.42042 0.0
O174 O 0.9082 0.86998 0.46137 0.0
C175 C 0.85184 0.83002 0.52622 0.0
C176 C 0.83235 0.88504 0.6948 0.0
C177 C 0.91336 0.87053 0.53755 0.0
O178 O 0.85111 0.84643 0.58241 0.0
O179 O 0.85975 0.83448 0.45384 0.0
O180 O 0.8698 0.91599 0.59255 0.0
O181 O 0.85951 0.89341 0.4856 0.0
Co182 Co 0.88387 0.14253 0.40746 0.0
O183 O 0.89009 0.17624 0.37985 0.0
O184 O 0.8814 0.14676 0.29001 0.0
C185 C 0.91544 0.13731 0.49369 0.0
O186 O 0.87738 0.10562 0.41368 0.0
Co187 Co 0.86871 0.12975 0.584 0.0
O188 O 0.87345 0.09546 0.54672 0.0
C189 C 0.8314 0.14953 0.47305 0.0
C190 C 0.88631 0.16977 0.30444 0.0
C191 C 0.87504 0.08957 0.47129 0.0
O192 O 0.84781 0.14988 0.41668 0.0
O193 O 0.83596 0.14292 0.54684 0.0
O194 O 0.91855 0.13561 0.415 0.0
O195 O 0.8942 0.14531 0.51808 0.0
Co196 Co 0.14307 0.11184 0.5881 0.0
O197 O 0.17711 0.10603 0.61042 0.0
O198 O 0.14959 0.11717 0.70363 0.0
C199 C 0.13736 0.0779 0.5125 0.0
O200 O 0.106 0.11829 0.58645 0.0
Co201 Co 0.12775 0.12231 0.40979 0.0
O202 O 0.09424 0.11835 0.45421 0.0
C203 C 0.14809 0.1626 0.50727 0.0
C204 C 0.1722 0.11133 0.68605 0.0
C205 C 0.08926 0.11915 0.5305 0.0
O206 O 0.14995 0.14753 0.56743 0.0
O207 O 0.14026 0.15625 0.43638 0.0
O208 O 0.13666 0.07702 0.59199 0.0
O209 O 0.1442 0.09869 0.48068 0.0
Co210 Co 0.11467 0.85338 0.39911 0.0
O211 O 0.11552 0.81816 0.39552 0.0
O212 O 0.11433 0.84263 0.28629 0.0
C213 C 0.0853 0.85688 0.49409 0.0
O214 O 0.11314 0.89049 0.38032 0.0
Co215 Co 0.13072 0.87981 0.55765 0.0
O216 O 0.11338 0.90787 0.50539 0.0
C217 C 0.16861 0.86035 0.44699 0.0
C218 C 0.11517 0.82044 0.31637 0.0
C219 C 0.1102 0.90909 0.42806 0.0
O220 O 0.15144 0.85416 0.39721 0.0
O221 O 0.16435 0.86991 0.51732 0.0
O222 O 0.07967 0.85324 0.41776 0.0
O223 O 0.1084 0.85542 0.5128 0.0
C224 C 0.39284 0.94998 0.3768 0.0
C225 C 0.39032 0.94104 0.29646 0.0
C226 C 0.38944 0.9752 0.39422 0.0
C227 C 0.38302 0.9916 0.32998 0.0
C228 C 0.38071 0.9826 0.2489 0.0
C229 C 0.38459 0.95765 0.23326 0.0
C230 C 0.3928 0.98427 0.48086 0.0
C231 C 0.37357 -0.00078 0.17819 0.0
C232 C 0.34624 0.04981 0.33378 0.0
C233 C 0.3637 0.06629 0.30316 0.0
C234 C 0.35299 0.0257 0.35521 0.0
C235 C 0.37775 0.01812 0.34505 0.0
C236 C 0.3959 0.03587 0.32542 0.0
C237 C 0.38857 0.05976 0.30339 0.0
C238 C 0.33301 0.00752 0.37639 0.0
C239 C 0.42258 0.02883 0.31614 0.0
H240 H 0.39741 0.93732 0.42591 0.0
H241 H 0.38241 0.95107 0.17097 0.0
H242 H 0.40913 0.99646 0.48364 0.0
H243 H 0.37671 0.99535 0.5004 0.0
H244 H 0.39545 0.96892 0.52506 0.0
H245 H 0.37211 0.98913 0.11918 0.0
H246 H 0.35559 0.00807 0.19085 0.0
H247 H 0.38738 0.01406 0.17068 0.0
H248 H 0.32695 0.05487 0.33249 0.0
H249 H 0.40202 0.07253 0.27883 0.0
H250 H 0.33936 0.9942 0.4234 0.0
H251 H 0.32802 0.99697 0.32057 0.0
H252 H 0.31623 0.01693 0.39926 0.0
H253 H 0.42806 0.01518 0.36339 0.0
H254 H 0.43479 0.04516 0.32069 0.0
H255 H 0.42542 0.02032 0.25505 0.0
C256 C 0.04917 0.6237 0.66578 0.0
C257 C 0.04856 0.63577 0.7417 0.0
C258 C 0.02714 0.61712 0.62576 0.0
C259 C 0.00428 0.62278 0.66304 0.0
C260 C 0.00383 0.63661 0.73666 0.0
C261 C 0.02593 0.64286 0.77481 0.0
C262 C 0.02856 0.60293 0.54655 0.0
C263 C 0.97999 0.64348 0.77859 0.0
C264 C 0.93855 0.62171 0.59558 0.0
C265 C 0.93015 0.60236 0.64505 0.0
C266 C 0.96388 0.62663 0.58927 0.0
C267 C 0.98074 0.61191 0.63386 0.0
C268 C 0.97241 0.59001 0.67191 0.0
C269 C 0.94711 0.58562 0.67768 0.0
C270 C 0.9722 0.64943 0.54449 0.0
C271 C 0.9898 0.57321 0.71749 0.0
H272 H 0.06669 0.61833 0.63974 0.0
H273 H 0.02543 0.65263 0.83273 0.0
H274 H 0.02963 0.58298 0.56056 0.0
H275 H 0.01219 0.60613 0.50735 0.0
H276 H 0.04534 0.60797 0.5115 0.0
H277 H 0.98295 0.65535 0.83312 0.0
H278 H 0.96774 0.6534 0.73538 0.0
H279 H 0.97027 0.62658 0.79885 0.0
H280 H 0.92543 0.63455 0.56954 0.0
H281 H 0.94054 0.57036 0.71466 0.0
H282 H 0.99047 0.64655 0.51572 0.0
H283 H 0.9739 0.66482 0.58876 0.0
H284 H 0.95878 0.65491 0.49646 0.0
H285 H 0.00689 0.57028 0.68176 0.0
H286 H 0.9813 0.55505 0.73068 0.0
H287 H 0.99497 0.58185 0.7767 0.0
C288 C 0.66115 0.95987 0.2615 0.0
C289 C 0.64834 0.93852 0.28295 0.0
C290 C 0.65439 0.98274 0.2931 0.0
C291 C 0.63415 0.98428 0.34745 0.0
C292 C 0.62305 0.96238 0.37703 0.0
C293 C 0.63031 0.93954 0.34413 0.0
C294 C 0.66716 0.00546 0.26053 0.0
C295 C 0.6021 0.96306 0.43746 0.0
C296 C 0.62628 0.05137 0.39857 0.0
C297 C 0.61218 0.05883 0.33092 0.0
C298 C 0.63116 0.02627 0.41231 0.0
C299 C 0.6219 0.00857 0.3566 0.0
C300 C 0.60508 0.01593 0.29497 0.0
C301 C 0.60045 0.04098 0.28296 0.0
C302 C 0.64806 0.01899 0.4815 0.0
C303 C 0.59419 0.99769 0.23529 0.0
H304 H 0.67547 0.95892 0.2153 0.0
H305 H 0.62059 0.92294 0.36152 0.0
H306 H 0.65444 0.01575 0.21976 0.0
H307 H 0.67242 0.01784 0.31153 0.0
H308 H 0.68397 0.00089 0.22497 0.0
H309 H 0.60202 0.94625 0.47629 0.0
H310 H 0.60308 0.9795 0.47762 0.0
H311 H 0.58443 0.96364 0.40353 0.0
H312 H 0.63499 0.0651 0.43702 0.0
H313 H 0.58884 0.04667 0.23227 0.0
H314 H 0.66721 0.01792 0.45837 0.0
H315 H 0.64306 0.00066 0.50658 0.0
H316 H 0.64758 0.03275 0.5318 0.0
H317 H 0.60881 0.99085 0.19363 0.0
H318 H 0.57938 0.00598 0.1973 0.0
H319 H 0.58652 0.98161 0.26842 0.0
C320 C 0.05463 0.38251 0.59302 0.0
C321 C 0.06301 0.39455 0.66373 0.0
C322 C 0.02936 0.37822 0.58122 0.0
C323 C 0.01242 0.38601 0.64184 0.0
C324 C 0.02065 0.40114 0.70695 0.0
C325 C 0.04587 0.4052 0.71708 0.0
C326 C 0.02117 0.36311 0.50875 0.0
C327 C 0.00323 0.41046 0.77203 0.0
C328 C 0.94348 0.3767 0.65732 0.0
C329 C 0.9429 0.35721 0.71362 0.0
C330 C 0.96607 0.38514 0.62567 0.0
C331 C 0.9882 0.37356 0.65079 0.0
C332 C 0.98712 0.35201 0.69964 0.0
C333 C 0.9645 0.34425 0.7308 0.0
C334 C 0.96625 0.40768 0.57171 0.0
C335 C 0.01009 0.33859 0.72669 0.0
H336 H 0.06781 0.37454 0.55083 0.0
H337 H 0.05229 0.41512 0.77066 0.0
H338 H 0.02008 0.34346 0.527 0.0
H339 H 0.00269 0.36889 0.48727 0.0
H340 H 0.0344 0.36465 0.45709 0.0
H341 H 0.01193 0.42456 0.81185 0.0
H342 H 0.98656 0.41854 0.74362 0.0
H343 H 0.99728 0.39486 0.81133 0.0
H344 H 0.9267 0.38654 0.64302 0.0
H345 H 0.96391 0.32888 0.7733 0.0
H346 H 0.98224 0.40774 0.52944 0.0
H347 H 0.96736 0.42434 0.61075 0.0
H348 H 0.94906 0.40894 0.53513 0.0
H349 H 0.02218 0.33483 0.67345 0.0
H350 H 0.00585 0.32084 0.75748 0.0
H351 H 0.02055 0.35026 0.77029 0.0
C352 C 0.35516 0.47442 0.99844 0.0
C353 C 0.36144 0.45149 0.96569 0.0
C354 C 0.36281 0.49627 0.96129 0.0
C355 C 0.37738 0.49529 0.8893 0.0
C356 C 0.38265 0.47218 0.85298 0.0
C357 C 0.37453 0.45042 0.89172 0.0
C358 C 0.35629 0.52041 0.00203 0.0
C359 C 0.39791 0.47021 0.7761 0.0
C360 C 0.37919 0.56046 0.81566 0.0
C361 C 0.39782 0.56938 0.86695 0.0
C362 C 0.3744 0.53506 0.81125 0.0
C363 C 0.38863 0.5186 0.85921 0.0
C364 C 0.41007 0.52733 0.89889 0.0
C365 C 0.4143 0.55274 0.90292 0.0
C366 C 0.35199 0.52635 0.76534 0.0
C367 C 0.42635 0.51035 0.94808 0.0
H368 H 0.34469 0.47531 0.05496 0.0
H369 H 0.37939 0.43268 0.86616 0.0
H370 H 0.37325 0.52962 0.02404 0.0
H371 H 0.34725 0.53291 0.95746 0.0
H372 H 0.34376 0.51791 0.0552 0.0
H373 H 0.39356 0.4531 0.74187 0.0
H374 H 0.39509 0.48625 0.73497 0.0
H375 H 0.41764 0.46957 0.79314 0.0
H376 H 0.3665 0.5733 0.78727 0.0
H377 H 0.42897 0.55967 0.94159 0.0
H378 H 0.33629 0.52492 0.80855 0.0
H379 H 0.3551 0.50789 0.73831 0.0
H380 H 0.34683 0.53943 0.71578 0.0
H381 H 0.41733 0.50615 0.00756 0.0
H382 H 0.44453 0.51883 0.96093 0.0
H383 H 0.42923 0.49272 0.91533 0.0
C384 C 0.44083 0.62561 0.07351 0.0
C385 C 0.44141 0.64277 0.00928 0.0
C386 C 0.46286 0.6164 0.1072 0.0
C387 C 0.48569 0.6249 0.07623 0.0
C388 C 0.48608 0.64403 0.01711 0.0
C389 C 0.46396 0.65257 0.98415 0.0
C390 C 0.46154 0.59637 0.17111 0.0
C391 C 0.50992 0.65414 0.9833 0.0
C392 C 0.55105 0.61582 0.14486 0.0
C393 C 0.55939 0.60042 0.08181 0.0
C394 C 0.52594 0.62163 0.15174 0.0
C395 C 0.50911 0.61182 0.09412 0.0
C396 C 0.51709 0.5935 0.0385 0.0
C397 C 0.5422 0.58809 0.03282 0.0
C398 C 0.51796 0.64044 0.21417 0.0
C399 C 0.49969 0.58196 0.97747 0.0
H400 H 0.42336 0.61822 0.09379 0.0
H401 H 0.46438 0.66621 0.93554 0.0
H402 H 0.46177 0.5782 0.14019 0.0
H403 H 0.47741 0.59712 0.21376 0.0
H404 H 0.44425 0.59764 0.2071 0.0
H405 H 0.50696 0.67037 0.94296 0.0
H406 H 0.52236 0.65961 0.03396 0.0
H407 H 0.5194 0.6397 0.9471 0.0
H408 H 0.56426 0.62519 0.18363 0.0
H409 H 0.54858 0.57569 0.98529 0.0
H410 H 0.49929 0.63627 0.23779 0.0
H411 H 0.51736 0.65887 0.18483 0.0
H412 H 0.53101 0.6413 0.26653 0.0
H413 H 0.48221 0.57663 0.0076 0.0
H414 H 0.5078 0.56542 0.948 0.0
H415 H 0.49527 0.59555 0.92874 0.0
C416 C 0.58368 0.44832 0.91393 0.0
C417 C 0.60001 0.43138 0.87914 0.0
C418 C 0.58813 0.47364 0.90835 0.0
C419 C 0.60964 0.48198 0.86808 0.0
C420 C 0.62372 0.46518 0.82118 0.0
C421 C 0.61875 0.43986 0.82738 0.0
C422 C 0.57199 0.49098 0.95649 0.0
C423 C 0.64606 0.47353 0.77412 0.0
C424 C 0.62236 0.55021 0.90023 0.0
C425 C 0.63494 0.5493 0.97521 0.0
C426 C 0.6152 0.52834 0.86047 0.0
C427 C 0.62097 0.50533 0.89679 0.0
C428 C 0.63542 0.50457 0.96912 0.0
C429 C 0.64207 0.52654 0.00741 0.0
C430 C 0.60023 0.53008 0.78285 0.0
C431 C 0.64255 0.48054 0.00962 0.0
H432 H 0.56885 0.44171 0.95262 0.0
H433 H 0.63126 0.42676 0.79959 0.0
H434 H 0.58125 0.49574 0.01505 0.0
H435 H 0.5689 0.5083 0.92197 0.0
H436 H 0.55389 0.48258 0.9711 0.0
H437 H 0.65086 0.46028 0.72482 0.0
H438 H 0.64307 0.49198 0.7466 0.0
H439 H 0.66195 0.47484 0.81661 0.0
H440 H 0.61696 0.56786 0.87495 0.0
H441 H 0.65223 0.52586 0.06462 0.0
H442 H 0.58045 0.5311 0.79903 0.0
H443 H 0.603 0.51384 0.74277 0.0
H444 H 0.60492 0.547 0.74786 0.0
H445 H 0.62583 0.47094 0.03188 0.0
H446 H 0.65511 0.48326 0.0626 0.0
H447 H 0.65179 0.46829 0.9649 0.0
C448 C 0.44092 0.38257 0.14713 0.0
C449 C 0.43296 0.40015 0.09003 0.0
C450 C 0.46608 0.37705 0.15493 0.0
C451 C 0.4833 0.38942 0.10435 0.0
C452 C 0.47552 0.40983 0.0569 0.0
C453 C 0.45036 0.41482 0.04979 0.0
C454 C 0.4738 0.3559 0.20902 0.0
C455 C 0.49332 0.42415 0.00427 0.0
C456 C 0.55162 0.37509 0.08327 0.0
C457 C 0.55124 0.36026 0.01303 0.0
C458 C 0.5295 0.38369 0.11811 0.0
C459 C 0.50676 0.3771 0.08167 0.0
C460 C 0.50648 0.36055 0.0146 0.0
C461 C 0.52867 0.35246 0.98119 0.0
C462 C 0.53071 0.40093 0.19033 0.0
C463 C 0.48275 0.35257 0.97419 0.0
H464 H 0.4275 0.37136 0.17909 0.0
H465 H 0.44418 0.42881 0.00692 0.0
H466 H 0.47517 0.33893 0.1715 0.0
H467 H 0.49209 0.35937 0.2368 0.0
H468 H 0.4602 0.35257 0.25866 0.0
H469 H 0.48533 0.44188 0.98315 0.0
H470 H 0.51054 0.42798 0.03831 0.0
H471 H 0.49816 0.41308 0.94943 0.0
H472 H 0.56909 0.38103 0.10836 0.0
H473 H 0.52834 0.34059 0.92777 0.0
H474 H 0.5143 0.39916 0.23029 0.0
H475 H 0.53155 0.42016 0.16761 0.0
H476 H 0.54747 0.39751 0.22759 0.0
H477 H 0.46992 0.34491 0.0205 0.0
H478 H 0.48575 0.33844 0.92607 0.0
H479 H 0.47366 0.3687 0.94538 0.0
C480 C 0.9157 0.4478 0.82428 0.0
C481 C 0.89985 0.43114 0.86305 0.0
C482 C 0.91166 0.4732 0.82989 0.0
C483 C 0.89101 0.4819 0.87403 0.0
C484 C 0.87762 0.46537 0.9243 0.0
C485 C 0.88222 0.43997 0.91823 0.0
C486 C 0.92709 0.49025 0.77803 0.0
C487 C 0.85611 0.47405 0.97487 0.0
C488 C 0.87641 0.55015 0.84654 0.0
C489 C 0.86208 0.5493 0.77512 0.0
C490 C 0.88523 0.52828 0.88282 0.0
C491 C 0.87932 0.5053 0.8468 0.0
C492 C 0.86354 0.50453 0.77763 0.0
C493 C 0.8553 0.52649 0.74266 0.0
C494 C 0.90186 0.53002 0.95655 0.0
C495 C 0.85628 0.48052 0.7375 0.0
H496 H 0.92964 0.44091 0.7826 0.0
H497 H 0.87005 0.4271 0.9488 0.0
H498 H 0.91706 0.49459 0.72048 0.0
H499 H 0.93058 0.50781 0.81056 0.0
H500 H 0.94499 0.48175 0.76149 0.0
H501 H 0.8518 0.46085 0.02495 0.0
H502 H 0.8598 0.49242 0.0018 0.0
H503 H 0.83967 0.47567 0.93489 0.0
H504 H 0.88166 0.56782 0.87182 0.0
H505 H 0.84388 0.52579 0.68816 0.0
H506 H 0.92125 0.53067 0.93558 0.0
H507 H 0.89978 0.51388 0.9977 0.0
H508 H 0.89818 0.54706 0.99209 0.0
H509 H 0.8728 0.47137 0.71181 0.0
H510 H 0.8428 0.48317 0.68704 0.0
H511 H 0.84807 0.46788 0.7834 0.0
C512 C 0.53579 0.10907 0.26709 0.0
C513 C 0.55323 0.12414 0.22894 0.0
C514 C 0.51209 0.10671 0.23508 0.0
C515 C 0.50568 0.11993 0.16329 0.0
C516 C 0.52416 0.13256 0.11872 0.0
C517 C 0.5479 0.1346 0.15239 0.0
C518 C 0.4932 0.09247 0.2838 0.0
C519 C 0.51832 0.14589 0.03995 0.0
C520 C 0.43814 0.10984 0.11937 0.0
C521 C 0.42805 0.12795 0.17028 0.0
C522 C 0.46377 0.1084 0.10811 0.0
C523 C 0.47925 0.12538 0.14915 0.0
C524 C 0.4687 0.14527 0.19283 0.0
C525 C 0.44324 0.14622 0.20299 0.0
C526 C 0.4742 0.08747 0.05849 0.0
C527 C 0.48434 0.16411 0.23668 0.0
H528 H 0.54019 0.10038 0.32521 0.0
H529 H 0.56156 0.14594 0.12207 0.0
H530 H 0.48036 0.10552 0.31387 0.0
H531 H 0.48223 0.08044 0.24297 0.0
H532 H 0.50179 0.08086 0.33211 0.0
H533 H 0.53505 0.14828 0.00167 0.0
H534 H 0.50419 0.13588 0.00396 0.0
H535 H 0.51095 0.16442 0.05433 0.0
H536 H 0.42631 0.0958 0.09352 0.0
H537 H 0.43526 0.16051 0.24102 0.0
H538 H 0.47724 0.07137 0.09916 0.0
H539 H 0.49205 0.09249 0.03015 0.0
H540 H 0.4612 0.08179 0.00949 0.0
H541 H 0.49392 0.15524 0.28908 0.0
H542 H 0.47325 0.17968 0.26071 0.0
H543 H 0.49857 0.17161 0.19493 0.0
C544 C 0.11089 0.55081 0.92527 0.0
C545 C 0.09623 0.55885 0.85967 0.0
C546 C 0.11645 0.52568 0.93475 0.0
C547 C 0.10729 0.50858 0.87688 0.0
C548 C 0.08947 0.51629 0.81893 0.0
C549 C 0.08417 0.54139 0.81103 0.0
C550 C 0.13439 0.51795 0.00037 0.0
C551 C 0.07856 0.49861 0.75753 0.0
C552 C 0.14877 0.46431 0.76779 0.0
C553 C 0.13819 0.44168 0.7882 0.0
C554 C 0.1405 0.48614 0.80343 0.0
C555 C 0.12086 0.48533 0.86046 0.0
C556 C 0.11191 0.46224 0.88797 0.0
C557 C 0.1208 0.4405 0.85143 0.0
C558 C 0.15115 0.51021 0.77328 0.0
C559 C 0.09157 0.4604 0.95045 0.0
H560 H 0.11995 0.56421 0.96408 0.0
H561 H 0.07226 0.54752 0.76169 0.0
H562 H 0.13023 0.49913 0.02303 0.0
H563 H 0.15325 0.5178 0.97451 0.0
H564 H 0.13413 0.53095 0.05289 0.0
H565 H 0.06254 0.50669 0.72487 0.0
H566 H 0.09271 0.49368 0.71132 0.0
H567 H 0.07261 0.4814 0.78822 0.0
H568 H 0.16255 0.46509 0.71976 0.0
H569 H 0.1128 0.42293 0.86796 0.0
H570 H 0.15629 0.52209 0.82574 0.0
H571 H 0.13716 0.52021 0.73652 0.0
H572 H 0.16769 0.50746 0.73442 0.0
H573 H 0.09148 0.47638 0.9927 0.0
H574 H 0.09332 0.44321 0.98699 0.0
H575 H 0.07361 0.45978 0.91827 0.0
C576 C 0.47259 0.85632 0.25505 0.0
C577 C 0.45077 0.86504 0.22029 0.0
C578 C 0.49541 0.86233 0.22137 0.0
C579 C 0.49651 0.87793 0.15173 0.0
C580 C 0.47443 0.88552 0.11297 0.0
C581 C 0.45165 0.87882 0.14766 0.0
C582 C 0.51839 0.85323 0.26401 0.0
C583 C 0.47469 0.902 0.03853 0.0
C584 C 0.55549 0.91168 0.18081 0.0
C585 C 0.57178 0.89556 0.14177 0.0
C586 C 0.53003 0.90848 0.17381 0.0
C587 C 0.52083 0.88831 0.12826 0.0
C588 C 0.53712 0.87434 0.07907 0.0
C589 C 0.56259 0.87819 0.08625 0.0
C590 C 0.51329 0.92445 0.22483 0.0
C591 C 0.528 0.85316 0.02779 0.0
H592 H 0.47183 0.84536 0.31067 0.0
H593 H 0.4347 0.88558 0.12085 0.0
H594 H 0.53103 0.84455 0.21924 0.0
H595 H 0.5282 0.86898 0.29228 0.0
H596 H 0.51425 0.8396 0.31296 0.0
H597 H 0.45759 0.89989 0.00194 0.0
H598 H 0.47588 0.92145 0.05872 0.0
H599 H 0.49076 0.89818 0.99864 0.0
H600 H 0.56267 0.92536 0.2229 0.0
H601 H 0.5752 0.86575 0.05573 0.0
H602 H 0.50798 0.91433 0.28132 0.0
H603 H 0.49623 0.92894 0.19072 0.0
H604 H 0.52243 0.94187 0.24327 0.0
H605 H 0.5256 0.83675 0.06756 0.0
H606 H 0.54129 0.84842 0.97857 0.0
H607 H 0.50993 0.85748 -0.00035 0.0
C608 C 0.8562 0.94522 0.41048 0.0
C609 C 0.87425 0.93524 0.46179 0.0
C610 C 0.85745 0.97006 0.38642 0.0
C611 C 0.87724 0.9848 0.41439 0.0
C612 C 0.89722 0.97359 0.45573 0.0
C613 C 0.89531 0.94895 0.4799 0.0
C614 C 0.83609 0.98118 0.34053 0.0
C615 C 0.91903 0.98839 0.48463 0.0
C616 C 0.88337 0.05379 0.3772 0.0
C617 C 0.8737 0.06308 0.45074 0.0
C618 C 0.88372 0.02829 0.36188 0.0
C619 C 0.87414 0.0119 0.42147 0.0
C620 C 0.86329 0.02139 0.4938 0.0
C621 C 0.86328 0.04675 0.50748 0.0
C622 C 0.89537 0.01897 0.28395 0.0
C623 C 0.85255 0.00469 0.55888 0.0
H624 H 0.83989 0.93454 0.39664 0.0
H625 H 0.90935 0.94101 0.51915 0.0
H626 H 0.82356 0.99027 0.38484 0.0
H627 H 0.84247 0.99537 0.29639 0.0
H628 H 0.82547 0.96694 0.30692 0.0
H629 H 0.93481 0.97638 0.50115 0.0
H630 H 0.92502 0.0016 0.43675 0.0
H631 H 0.91374 -0.00087 0.53974 0.0
H632 H 0.89141 0.06633 0.33295 0.0
H633 H 0.85535 0.05379 0.56376 0.0
H634 H 0.88537 0.00277 0.25958 0.0
H635 H 0.91453 0.01316 0.29705 0.0
H636 H 0.89595 0.03348 0.23591 0.0
H637 H 0.83881 0.99208 0.53136 0.0
H638 H 0.84349 0.01512 0.60904 0.0
H639 H 0.86732 0.9932 0.58615 0.0
C640 C 0.94774 0.15047 0.59162 0.0
C641 C 0.93593 0.13155 0.54894 0.0
C642 C 0.97235 0.14776 0.61658 0.0
C643 C 0.98505 0.12568 0.59796 0.0
C644 C 0.97181 0.10535 0.56647 0.0
C645 C 0.94744 0.10868 0.54108 0.0
C646 C 0.9856 0.16965 0.65208 0.0
C647 C 0.98433 0.08121 0.54808 0.0
C648 C 0.0467 0.13133 0.49364 0.0
C649 C 0.06304 0.12232 0.55306 0.0
C650 C 0.02156 0.13338 0.50935 0.0
C651 C 0.01222 0.12618 0.58682 0.0
C652 C 0.02864 0.118 0.64868 0.0
C653 C 0.05397 0.11617 0.63105 0.0
C654 C 0.00491 0.14252 0.44142 0.0
C655 C 0.01949 0.11026 0.7321 0.0
H656 H 0.93877 0.16821 0.59738 0.0
H657 H 0.93812 0.09404 0.50827 0.0
H658 H -0.00058 0.1638 0.69822 0.0
H659 H 0.99546 0.17947 0.60222 0.0
H660 H 0.97257 0.18276 0.68108 0.0
H661 H 0.97082 0.06606 0.54031 0.0
H662 H 0.995 0.08299 0.49034 0.0
H663 H 0.99735 0.07619 0.59773 0.0
H664 H 0.05353 0.13664 0.43371 0.0
H665 H 0.0665 0.1093 0.67744 0.0
H666 H 0.99379 0.15832 0.46311 0.0
H667 H 0.992 0.12772 0.42302 0.0
H668 H 0.01532 0.14842 0.38618 0.0
H669 H 0.004 0.12201 0.75274 0.0
H670 H 0.03437 0.111 0.77872 0.0
H671 H 0.01272 0.09104 0.72884 0.0
C672 C 0.12234 0.94312 0.3344 0.0
C673 C 0.10617 0.93379 0.39361 0.0
C674 C 0.12517 0.96867 0.32452 0.0
C675 C 0.11145 0.98484 0.37495 0.0
C676 C 0.09224 0.9753 0.42421 0.0
C677 C 0.09007 0.9498 0.43391 0.0
C678 C 0.14517 0.97816 0.2689 0.0
C679 C 0.07644 0.99187 0.47646 0.0
C680 C 0.14409 0.0335 0.49719 0.0
C681 C 0.13421 0.05518 0.46497 0.0
C682 C 0.13826 0.01063 0.46366 0.0
C683 C 0.12171 0.00935 0.39664 0.0
C684 C 0.11299 0.03137 0.35995 0.0
C685 C 0.11947 0.05422 0.39463 0.0
C686 C 0.14851 0.98776 0.50421 0.0
C687 C 0.09558 0.03093 0.28804 0.0
H688 H 0.13469 0.93068 0.30271 0.0
H689 H 0.07729 0.94251 0.47881 0.0
H690 H 0.13989 0.99601 0.24083 0.0
H691 H 0.16215 0.98115 0.30534 0.0
H692 H 0.14944 0.96477 0.21946 0.0
H693 H 0.05959 0.9823 0.49805 0.0
H694 H 0.08709 0.99781 0.53104 0.0
H695 H 0.07099 0.0086 0.44194 0.0
H696 H 0.15578 0.03438 0.55104 0.0
H697 H 0.11182 0.0711 0.36989 0.0
H698 H 0.15694 0.97548 0.45783 0.0
H699 H 0.13343 0.97743 0.53448 0.0
H700 H 0.16262 0.99213 0.55125 0.0
H701 H 0.09875 0.01469 0.24828 0.0
H702 H 0.09737 0.04791 0.2505 0.0
H703 H 0.07642 0.03003 0.31112 0.0
C704 C 0.95585 0.85706 0.50587 0.0
C705 C 0.93947 0.86796 0.56113 0.0
C706 C 0.98105 0.85628 0.52193 0.0
C707 C 0.99025 0.86677 0.59532 0.0
C708 C 0.97371 0.87667 0.65367 0.0
C709 C 0.94839 0.87715 0.63584 0.0
C710 C 0.99789 0.84518 0.45806 0.0
C711 C 0.98267 0.88785 0.73283 0.0
C712 C 0.0557 0.84622 0.60344 0.0
C713 C 0.06601 0.86401 0.55186 0.0
C714 C 0.03132 0.84869 0.63071 0.0
C715 C 0.0173 0.86922 0.60448 0.0
C716 C 0.02912 0.88896 0.56375 0.0
C717 C 0.05333 0.88592 0.53677 0.0
C718 C 0.01961 0.82772 0.67701 0.0
C719 C 0.01514 0.91157 0.53687 0.0
H720 H 0.94902 0.84949 0.44876 0.0
H721 H 0.93576 0.88553 0.67896 0.0
H722 H 0.01017 0.85961 0.4327 0.0
H723 H 0.00966 0.8308 0.48618 0.0
H724 H 0.98759 0.83676 0.40638 0.0
H725 H 0.96815 0.88734 0.78073 0.0
H726 H -0.00074 0.87827 0.75633 0.0
H727 H 0.98757 0.90739 0.72193 0.0
H728 H 0.06557 0.82921 0.61469 0.0
H729 H 0.06134 0.89956 0.4963 0.0
H730 H 0.01002 0.81546 0.63302 0.0
H731 H 0.00579 0.8346 0.72147 0.0
H732 H 0.03359 0.81664 0.71031 0.0
H733 H 0.0041 0.90711 0.4816 0.0
H734 H 0.02774 0.92697 0.52125 0.0
H735 H 0.00232 0.91773 0.58553 0.0
C736 C 0.33017 0.31153 0.07936 0.0
C737 C 0.35055 0.31801 0.03119 0.0
C738 C 0.32671 0.28728 0.10634 0.0
C739 C 0.34437 0.26916 0.08628 0.0
C740 C 0.36447 0.27538 0.0348 0.0
C741 C 0.36718 0.29975 0.00704 0.0
C742 C 0.30472 0.28133 0.15931 0.0
C743 C 0.38382 0.25661 0.01279 0.0
C744 C 0.35341 0.21576 0.23404 0.0
C745 C 0.3424 0.19627 0.19137 0.0
C746 C 0.35384 0.23963 0.20098 0.0
C747 C 0.34275 0.24421 0.1238 0.0
C748 C 0.33058 0.2249 0.08225 0.0
C749 C 0.33063 0.20116 0.11633 0.0
C750 C 0.367 0.25976 0.24726 0.0
C751 C 0.31814 0.22915 0.00064 0.0
H752 H 0.3172 0.32565 0.09771 0.0
H753 H 0.38305 0.3048 0.97051 0.0
H754 H 0.29509 0.26481 0.13565 0.0
H755 H 0.31091 0.27705 0.22258 0.0
H756 H 0.29142 0.29683 0.16215 0.0
H757 H 0.39746 0.26396 0.96837 0.0
H758 H 0.3937 0.25074 0.06909 0.0
H759 H 0.37514 0.23999 0.9861 0.0
H760 H 0.36268 0.21219 0.2917 0.0
H761 H 0.32196 0.18627 0.08293 0.0
H762 H 0.35439 0.27546 0.25813 0.0
H763 H 0.38259 0.26675 0.21005 0.0
H764 H 0.37422 0.25333 0.30732 0.0
H765 H 0.30506 0.24476 0.00505 0.0
H766 H 0.30802 0.21263 0.97904 0.0
H767 H 0.33208 0.23414 0.95383 0.0
C768 C 0.19958 0.62263 0.76803 0.0
C769 C 0.18208 0.63582 0.81324 0.0
C770 C 0.22463 0.62343 0.78931 0.0
C771 C 0.23231 0.638 0.85665 0.0
C772 C 0.21483 0.65198 0.90069 0.0
C773 C 0.18996 0.65063 0.87872 0.0
C774 C 0.24278 0.60822 0.74109 0.0
C775 C 0.2223 0.66807 0.97194 0.0
C776 C 0.29238 0.62236 0.96442 0.0
C777 C 0.30866 0.63912 0.92798 0.0
C778 C 0.26748 0.62173 0.94151 0.0
C779 C 0.25861 0.6385 0.88176 0.0
C780 C 0.27482 0.6559 0.84654 0.0
C781 C 0.29965 0.65588 0.86964 0.0
C782 C 0.25075 0.60281 0.98008 0.0
C783 C 0.26599 0.6744 0.7839 0.0
H784 H 0.19362 0.61106 0.71771 0.0
H785 H 0.1766 0.6611 0.91356 0.0
H786 H 0.2575 0.62018 0.716 0.0
H787 H 0.25172 0.5946 0.78218 0.0
H788 H 0.23394 0.59823 0.68952 0.0
H789 H 0.20658 0.67861 0.99749 0.0
H790 H 0.23026 0.65655 0.02152 0.0
H791 H 0.23673 0.68125 0.9524 0.0
H792 H 0.29926 0.60922 0.00895 0.0
H793 H 0.31209 0.66901 0.84156 0.0
H794 H 0.24282 0.59083 0.93178 0.0
H795 H 0.23519 0.61207 0.01134 0.0
H796 H 0.26049 0.59104 0.0254 0.0
H797 H 0.25877 0.66471 0.72915 0.0
H798 H 0.28083 0.68713 0.76399 0.0
H799 H 0.25068 0.68544 0.80966 0.0
C800 C 0.6319 0.80071 0.10518 0.0
C801 C 0.64085 0.80663 0.18334 0.0
C802 C 0.63121 0.77633 0.07784 0.0
C803 C 0.64036 0.75741 0.12904 0.0
C804 C 0.64969 0.76329 0.20793 0.0
C805 C 0.64944 0.78789 0.23482 0.0
C806 C 0.62041 0.7708 0.99449 0.0
C807 C 0.66008 0.74362 0.26344 0.0
C808 C 0.6175 0.69249 0.09162 0.0
C809 C 0.6366 0.68253 0.04479 0.0
C810 C 0.61848 0.71687 0.11921 0.0
C811 C 0.63932 0.73143 0.10065 0.0
C812 C 0.65868 0.7214 0.05295 0.0
C813 C 0.65704 0.69695 0.02523 0.0
C814 C 0.59727 0.72697 0.16856 0.0
C815 C 0.68127 0.73632 0.03259 0.0
H816 H 0.62504 0.81525 0.06565 0.0
H817 H 0.65653 0.79255 0.29497 0.0
H818 H 0.63435 0.76174 0.95519 0.0
H819 H 0.60476 0.75785 0.00095 0.0
H820 H 0.61379 0.78765 0.9627 0.0
H821 H 0.66753 0.75133 0.3214 0.0
H822 H 0.6456 0.73001 0.27878 0.0
H823 H 0.67498 0.73355 0.23137 0.0
H824 H 0.60189 0.68101 0.10752 0.0
H825 H 0.67198 0.68891 0.99037 0.0
H826 H 0.5897 0.7436 0.13809 0.0
H827 H 0.60375 0.73262 0.23021 0.0
H828 H 0.58222 0.71334 0.17622 0.0
H829 H 0.676 0.75299 0.99739 0.0
H830 H 0.69484 0.72569 0.9961 0.0
H831 H 0.69023 0.74264 0.08997 0.0
C832 C 0.69384 0.34095 0.8865 0.0
C833 C 0.68556 0.35703 0.948 0.0
C834 C 0.71852 0.34063 0.86189 0.0
C835 C 0.73544 0.35686 0.89929 0.0
C836 C 0.72744 0.37262 0.96316 0.0
C837 C 0.70259 0.37244 0.98707 0.0
C838 C 0.72636 0.32329 0.79443 0.0
C839 C 0.74498 0.39018 0.00451 0.0
C840 C 0.80364 0.34301 0.88076 0.0
C841 C 0.81084 0.35881 0.81679 0.0
C842 C 0.77919 0.34211 0.90785 0.0
C843 C 0.76144 0.35752 0.87065 0.0
C844 C 0.76844 0.37328 0.80535 0.0
C845 C 0.79305 0.37364 0.77885 0.0
C846 C 0.77241 0.32478 0.97674 0.0
C847 C 0.75001 0.39002 0.76429 0.0
H848 H 0.68087 0.32883 0.85627 0.0
H849 H 0.69635 0.38503 0.03417 0.0
H850 H 0.73295 0.33399 0.74078 0.0
H851 H 0.74188 0.31165 0.81556 0.0
H852 H 0.71115 0.3111 0.77407 0.0
H853 H 0.73608 0.40067 0.05482 0.0
H854 H 0.7609 0.37997 0.03005 0.0
H855 H 0.75229 0.40343 0.95876 0.0
H856 H 0.8172 0.33135 0.91021 0.0
H857 H 0.79846 0.38601 0.72987 0.0
H858 H 0.75772 0.31202 0.9563 0.0
H859 H 0.76502 0.33536 0.02937 0.0
H860 H 0.78834 0.31373 0.9983 0.0
H861 H 0.7348 0.37899 0.73786 0.0
H862 H 0.75839 0.40124 0.71463 0.0
H863 H 0.7418 0.4026 0.8103 0.0
C864 C 0.82861 0.6899 0.66486 0.0
C865 C 0.84819 0.68322 0.71645 0.0
C866 C 0.82604 0.71407 0.636 0.0
C867 C 0.84369 0.73194 0.65823 0.0
C868 C 0.86278 0.72564 0.71373 0.0
C869 C 0.86469 0.70133 0.74279 0.0
C870 C 0.80513 0.72013 0.57847 0.0
C871 C 0.88202 0.7442 0.73862 0.0
C872 C 0.85705 0.78452 0.5109 0.0
C873 C 0.84612 0.80445 0.55128 0.0
C874 C 0.85591 0.76069 0.54422 0.0
C875 C 0.84323 0.75669 0.61903 0.0
C876 C 0.8309 0.77648 0.6574 0.0
C877 C 0.83259 0.80013 0.62329 0.0
C878 C 0.8693 0.74003 0.50144 0.0
C879 C 0.81676 0.7729 0.73623 0.0
H880 H 0.81569 0.67596 0.64478 0.0
H881 H 0.87995 0.6962 0.78204 0.0
H882 H 0.79551 0.73706 0.59887 0.0
H883 H 0.81248 0.72377 0.51617 0.0
H884 H 0.79153 0.70493 0.57433 0.0
H885 H 0.89468 0.73687 0.78624 0.0
H886 H 0.89302 0.74957 0.68415 0.0
H887 H 0.87315 0.76112 0.76246 0.0
H888 H 0.8677 0.78773 0.45572 0.0
H889 H 0.82395 0.81544 0.65469 0.0
H890 H 0.85657 0.7245 0.48961 0.0
H891 H 0.88422 0.733 0.54159 0.0
H892 H 0.87749 0.74596 0.44222 0.0
H893 H 0.80358 0.75745 0.72995 0.0
H894 H 0.80648 0.7897 0.7544 0.0
H895 H 0.82966 0.76803 0.78642 0.0
C896 C 0.80116 0.16928 0.3785 0.0
C897 C 0.80578 0.15462 0.44777 0.0
C898 C 0.77751 0.171 0.34471 0.0
C899 C 0.75809 0.15737 0.38026 0.0
C900 C 0.7624 0.1434 0.45236 0.0
C901 C 0.78618 0.14238 0.48574 0.0
C902 C 0.77353 0.18663 0.26922 0.0
C903 C 0.74218 0.12848 0.49182 0.0
C904 C 0.69072 0.16937 0.33671 0.0
C905 C 0.68522 0.15048 0.28103 0.0
C906 C 0.71472 0.17281 0.36586 0.0
C907 C 0.73354 0.15661 0.34012 0.0
C908 C 0.72836 0.13836 0.28049 0.0
C909 C 0.70424 0.13568 0.25093 0.0
C910 C 0.7196 0.19292 0.42755 0.0
C911 C 0.7479 0.1206 0.25201 0.0
H912 H 0.81623 0.17893 0.34938 0.0
H913 H 0.78969 0.13087 0.53882 0.0
H914 H 0.76929 0.17465 0.21605 0.0
H915 H 0.75758 0.19906 0.27812 0.0
H916 H 0.78994 0.19791 0.25397 0.0
H917 H 0.74833 0.11929 0.54917 0.0
H918 H 0.72624 0.14043 0.50626 0.0
H919 H 0.73569 0.11418 0.44836 0.0
H920 H 0.67602 0.18093 0.35981 0.0
H921 H 0.69999 0.12092 0.20858 0.0
H922 H 0.7363 0.20346 0.41041 0.0
H923 H 0.72301 0.18463 0.48873 0.0
H924 H 0.70389 0.20588 0.43284 0.0
H925 H 0.76439 0.13073 0.23061 0.0
H926 H 0.74133 0.10856 0.20156 0.0
H927 H 0.7537 0.10879 0.30416 0.0
C928 C 0.13284 0.29132 0.71718 0.0
C929 C 0.14629 0.31072 0.68287 0.0
C930 C 0.13535 0.26724 0.68685 0.0
C931 C 0.15206 0.26251 0.62196 0.0
C932 C 0.16659 0.28186 0.59014 0.0
C933 C 0.16335 0.30575 0.62043 0.0
C934 C 0.11941 0.24708 0.72194 0.0
C935 C 0.18504 0.27749 0.52251 0.0
C936 C 0.16845 0.19538 0.58959 0.0
C937 C 0.15249 0.18885 0.52557 0.0
C938 C 0.16934 0.21957 0.61921 0.0
C939 C 0.15352 0.23753 0.58509 0.0
C940 C 0.1382 0.23132 0.5179 0.0
C941 C 0.13805 0.20706 0.48834 0.0
C942 C 0.18642 0.22562 0.68935 0.0
C943 C 0.12093 0.24994 0.48026 0.0
H944 H 0.11956 0.29513 0.76507 0.0
H945 H 0.17401 0.32069 0.5943 0.0
H946 H 0.10715 0.23975 0.67336 0.0
H947 H 0.131 0.2316 0.74375 0.0
H948 H 0.10789 0.25361 0.77377 0.0
H949 H 0.19638 0.29406 0.50964 0.0
H950 H 0.19744 0.26204 0.53903 0.0
H951 H 0.17532 0.27221 0.46538 0.0
H952 H 0.1797 0.18133 0.61837 0.0
H953 H 0.12549 0.20203 0.43955 0.0
H954 H 0.17552 0.22954 0.7453 0.0
H955 H 0.19727 0.24238 0.67509 0.0
H956 H 0.19931 0.2103 0.70313 0.0
H957 H 0.10717 0.25577 0.52657 0.0
H958 H 0.11103 0.24249 0.42611 0.0
H959 H 0.13121 0.26661 0.46115 0.0
C960 C 0.1991 0.84418 0.34579 0.0
C961 C 0.1943 0.85727 0.41832 0.0
C962 C 0.2229 0.84269 0.31337 0.0
C963 C 0.24244 0.85463 0.35425 0.0
C964 C 0.23791 0.86736 0.42853 0.0
C965 C 0.21389 0.86847 0.45988 0.0
C966 C 0.22707 0.82866 0.23466 0.0
C967 C 0.25836 0.88029 0.47392 0.0
C968 C 0.30885 0.83693 0.31687 0.0
C969 C 0.31666 0.85576 0.26418 0.0
C970 C 0.28442 0.83566 0.3437 0.0
C971 C 0.26761 0.8541 0.31891 0.0
C972 C 0.2752 0.87266 0.26322 0.0
C973 C 0.29966 0.8731 0.23564 0.0
C974 C 0.27691 0.81521 0.40127 0.0
C975 C 0.25787 0.89283 0.23638 0.0
H976 H 0.18415 0.83526 0.31337 0.0
H977 H 0.21038 0.87864 0.51574 0.0
H978 H 0.2337 0.84139 0.18623 0.0
H979 H 0.24151 0.8145 0.24374 0.0
H980 H 0.21009 0.81948 0.2124 0.0
H981 H 0.25185 0.88911 0.53139 0.0
H982 H 0.27314 0.86702 0.4895 0.0
H983 H 0.2666 0.89464 0.43403 0.0
H984 H 0.3221 0.82355 0.33894 0.0
H985 H 0.30586 0.88788 0.196 0.0
H986 H 0.26009 0.80597 0.37828 0.0
H987 H 0.2725 0.82296 0.46241 0.0
H988 H 0.29162 0.80119 0.40889 0.0
H989 H 0.24083 0.8848 0.21033 0.0
H990 H 0.26627 0.9052 0.1899 0.0
H991 H 0.25243 0.90401 0.29031 0.0
C992 C 0.2111 0.09378 0.73894 0.0
C993 C 0.19192 0.11077 0.74771 0.0
C994 C 0.23115 0.09381 0.79273 0.0
C995 C 0.23238 0.11178 0.85525 0.0
C996 C 0.21296 0.12895 0.86468 0.0
C997 C 0.19269 0.12801 0.81129 0.0
C998 C 0.25111 0.07473 0.78218 0.0
C999 C 0.21393 0.14869 0.92963 0.0
C1000 C 0.2744 0.09991 0.03646 0.0
C1001 C 0.29563 0.1128 0.01352 0.0
C1002 C 0.25371 0.09934 0.98535 0.0
C1003 C 0.25408 0.11251 0.91047 0.0
C1004 C 0.27543 0.12572 0.88721 0.0
C1005 C 0.29614 0.12544 0.93868 0.0
C1006 C 0.23155 0.08448 0.01115 0.0
C1007 C 0.27632 0.14032 0.80839 0.0
H1008 H 0.21038 0.08037 0.68981 0.0
H1009 H 0.17796 0.14132 0.81722 0.0
H1010 H 0.26875 0.08386 0.76683 0.0
H1011 H 0.25391 0.06454 0.84047 0.0
H1012 H 0.24672 0.06129 0.73303 0.0
H1013 H 0.19743 0.16072 0.92853 0.0
H1014 H 0.21549 0.1402 0.9913 0.0
H1015 H 0.2305 0.16028 0.92044 0.0
H1016 H 0.27405 0.09003 0.09428 0.0
H1017 H 0.31247 0.13564 0.92142 0.0
H1018 H 0.22733 0.07044 0.96386 0.0
H1019 H 0.21523 0.0966 0.01631 0.0
H1020 H 0.23438 0.07501 0.07085 0.0
H1021 H 0.27393 0.12785 0.7552 0.0
H1022 H 0.29392 0.15043 0.80097 0.0
H1023 H 0.26096 0.15376 0.80679 0.0
C1024 C 0.13005 0.77822 0.28804 0.0
C1025 C 0.11596 0.79855 0.26391 0.0
C1026 C 0.13048 0.75674 0.24075 0.0
C1027 C 0.11572 0.75534 0.16947 0.0
C1028 C 0.10134 0.77584 0.14514 0.0
C1029 C 0.102 0.79745 0.19203 0.0
C1030 C 0.14675 0.73561 0.26686 0.0
C1031 C 0.08487 0.77475 0.07066 0.0
C1032 C 0.12913 0.70933 0.00128 0.0
C1033 C 0.11268 0.69042 0.02058 0.0
C1034 C 0.13106 0.73015 0.05132 0.0
C1035 C 0.11536 0.73245 0.1201 0.0
C1036 C 0.09886 0.71318 0.14023 0.0
C1037 C 0.09805 0.69209 0.0908 0.0
C1038 C 0.14956 0.74985 0.02981 0.0
C1039 C 0.08138 0.71531 0.2118 0.0
H1040 H 0.14099 0.77926 0.34354 0.0
H1041 H 0.09096 0.81318 0.17412 0.0
H1042 H 0.13539 0.71922 0.28107 0.0
H1043 H 0.15929 0.73048 0.21598 0.0
H1044 H 0.15798 0.74015 0.32171 0.0
H1045 H 0.07418 0.79197 0.06188 0.0
H1046 H 0.09601 0.77143 0.01482 0.0
H1047 H 0.07182 0.75915 0.07665 0.0
H1048 H 0.14048 0.7078 0.94682 0.0
H1049 H 0.08516 0.67745 0.10467 0.0
H1050 H 0.16097 0.75436 0.08416 0.0
H1051 H 0.13986 0.76692 0.01124 0.0
H1052 H 0.16189 0.74416 0.97894 0.0
H1053 H 0.09175 0.71848 0.26938 0.0
H1054 H 0.06986 0.69859 0.2195 0.0
H1055 H 0.06911 0.73139 0.20264 0.0
C1056 C 0.70527 0.87188 0.9271 0.0
C1057 C 0.7066 0.87973 0.00869 0.0
C1058 C 0.72638 0.87168 0.8775 0.0
C1059 C 0.74901 0.8801 0.91007 0.0
C1060 C 0.75037 0.88803 0.99244 0.0
C1061 C 0.72919 0.88748 0.04099 0.0
C1062 C 0.72444 0.86264 0.79022 0.0
C1063 C 0.77402 0.89772 0.0287 0.0
C1064 C 0.80923 0.86409 0.80564 0.0
C1065 C 0.81278 0.88485 0.75628 0.0
C1066 C 0.78828 0.86208 0.85534 0.0
C1067 C 0.77112 0.88168 0.85726 0.0
C1068 C 0.77521 0.90306 0.80949 0.0
C1069 C 0.79581 0.90416 0.7582 0.0
C1070 C 0.78411 0.83873 0.90368 0.0
C1071 C 0.75774 0.92466 0.81194 0.0
H1072 H 0.68783 0.86577 0.90229 0.0
H1073 H 0.73023 0.89376 0.10398 0.0
H1074 H 0.72834 0.87796 0.74711 0.0
H1075 H 0.73834 0.8481 0.77883 0.0
H1076 H 0.70592 0.85514 0.77609 0.0
H1077 H 0.77198 0.903 0.09414 0.0
H1078 H 0.78871 0.88364 0.02398 0.0
H1079 H 0.78025 0.91408 0.99358 0.0
H1080 H 0.82219 0.84896 0.80224 0.0
H1081 H 0.79865 0.92009 0.71918 0.0
H1082 H 0.76634 0.83032 0.88554 0.0
H1083 H 0.78295 0.84296 0.97009 0.0
H1084 H 0.79899 0.82503 0.89402 0.0
H1085 H 0.73938 0.91896 0.78931 0.0
H1086 H 0.76428 0.94035 0.77403 0.0
H1087 H 0.75539 0.93106 0.87606 0.0
C1088 C 0.90674 0.19543 0.19874 0.0
C1089 C 0.88536 0.18851 0.24019 0.0
C1090 C 0.90669 0.21589 0.14608 0.0
C1091 C 0.88477 0.22966 0.13583 0.0
C1092 C 0.86299 0.22223 0.17634 0.0
C1093 C 0.8636 0.2017 0.22836 0.0
C1094 C 0.93024 0.22326 0.1037 0.0
C1095 C 0.83927 0.2364 0.16682 0.0
C1096 C 0.88993 0.29669 0.0723 0.0
C1097 C 0.88504 0.29529 0.98812 0.0
C1098 C 0.89002 0.2754 0.12114 0.0
C1099 C 0.88478 0.25231 0.08489 0.0
C1100 C 0.87941 0.25089 0.00019 0.0
C1101 C 0.87974 0.27239 0.95271 0.0
C1102 C 0.89597 0.27757 0.21131 0.0
C1103 C 0.87342 0.22664 0.95968 0.0
H1104 H 0.92361 0.18528 0.20946 0.0
H1105 H 0.84723 0.19637 0.26179 0.0
H1106 H 0.92723 0.22472 0.03657 0.0
H1107 H 0.93614 0.24165 0.12559 0.0
H1108 H 0.94536 0.20994 0.11515 0.0
H1109 H 0.82377 0.22761 0.20014 0.0
H1110 H 0.84165 0.25537 0.19053 0.0
H1111 H 0.83432 0.23793 0.101 0.0
H1112 H 0.89415 0.31434 0.09974 0.0
H1113 H 0.87583 0.27125 0.88763 0.0
H1114 H 0.91231 0.26617 0.22617 0.0
H1115 H 0.88044 0.27046 0.24851 0.0
H1116 H 0.89974 0.29686 0.2299 0.0
H1117 H 0.88909 0.21375 0.96672 0.0
H1118 H 0.86932 0.22876 0.89329 0.0
H1119 H 0.8573 0.21807 0.99006 0.0
C1120 C 0.21096 0.36725 0.49699 0.0
C1121 C 0.19363 0.38613 0.48984 0.0
C1122 C 0.23131 0.36629 0.44445 0.0
C1123 C 0.23479 0.38531 0.38621 0.0
C1124 C 0.21712 0.40435 0.37862 0.0
C1125 C 0.19642 0.40427 0.42983 0.0
C1126 C 0.24921 0.34517 0.45213 0.0
C1127 C 0.22056 0.42527 0.31864 0.0
C1128 C 0.29985 0.39817 0.31434 0.0
C1129 C 0.2991 0.38901 0.2343 0.0
C1130 C 0.27897 0.39707 0.36471 0.0
C1131 C 0.25728 0.38576 0.33486 0.0
C1132 C 0.25687 0.37552 0.25516 0.0
C1133 C 0.2777 0.37768 0.2052 0.0
C1134 C 0.27988 0.40867 0.44874 0.0
C1135 C 0.23439 0.36249 0.22247 0.0
H1136 H 0.20855 0.35323 0.54374 0.0
H1137 H 0.18298 0.41896 0.42553 0.0
H1138 H 0.25261 0.33679 0.39114 0.0
H1139 H 0.2671 0.35203 0.47532 0.0
H1140 H 0.24246 0.33065 0.49454 0.0
H1141 H 0.20514 0.43866 0.32065 0.0
H1142 H 0.23792 0.43515 0.33255 0.0
H1143 H 0.22213 0.41804 0.25531 0.0
H1144 H 0.31644 0.40702 0.33636 0.0
H1145 H 0.27733 0.37033 0.14341 0.0
H1146 H 0.27568 0.39474 0.49647 0.0
H1147 H 0.26568 0.42327 0.45329 0.0
H1148 H 0.29812 0.41691 0.46239 0.0
H1149 H 0.22841 0.348 0.26614 0.0
H1150 H 0.23778 0.35388 0.16176 0.0
H1151 H 0.21899 0.37573 0.2162 0.0
C1152 C 0.36428 0.79657 0.48835 0.0
C1153 C 0.38353 0.81323 0.50034 0.0
C1154 C 0.36154 0.77603 0.53963 0.0
C1155 C 0.37906 0.7717 0.60221 0.0
C1156 C 0.39822 0.78893 0.6157 0.0
C1157 C 0.40004 0.80975 0.56494 0.0
C1158 C 0.34042 0.75856 0.52491 0.0
C1159 C 0.41753 0.78469 0.68073 0.0
C1160 C 0.367 0.72582 0.77327 0.0
C1161 C 0.3788 0.70476 0.7433 0.0
C1162 C 0.36621 0.74755 0.72683 0.0
C1163 C 0.37828 0.74841 0.65003 0.0
C1164 C 0.39008 0.72707 0.61929 0.0
C1165 C 0.38983 0.70533 0.66584 0.0
C1166 C 0.35269 0.76963 0.76023 0.0
C1167 C 0.40362 0.72741 0.53843 0.0
H1168 H 0.35163 0.79939 0.43777 0.0
H1169 H 0.4151 0.82259 0.57291 0.0
H1170 H 0.34753 0.74094 0.50016 0.0
H1171 H 0.33088 0.75435 0.58342 0.0
H1172 H 0.32682 0.76615 0.48075 0.0
H1173 H 0.4306 0.80032 0.68554 0.0
H1174 H 0.40875 0.7818 0.74136 0.0
H1175 H 0.42806 0.76776 0.66616 0.0
H1176 H 0.35832 0.72526 0.83312 0.0
H1177 H 0.39916 0.68907 0.64316 0.0
H1178 H 0.33915 0.77639 0.71449 0.0
H1179 H 0.36583 0.78483 0.77184 0.0
H1180 H 0.34286 0.76541 0.81829 0.0
H1181 H 0.39084 0.7324 0.48807 0.0
H1182 H 0.41215 0.70937 0.52389 0.0
H1183 H 0.41826 0.74162 0.53996 0.0
C1184 C 0.71011 0.5936 0.24789 0.0
C1185 C 0.69001 0.60935 0.25848 0.0
C1186 C 0.73009 0.59425 0.30179 0.0
C1187 C 0.73031 0.61171 0.36605 0.0
C1188 C 0.71009 0.62785 0.37667 0.0
C1189 C 0.68986 0.62617 0.32334 0.0
C1190 C 0.75091 0.57618 0.29005 0.0
C1191 C 0.71008 0.64715 0.44313 0.0
C1192 C 0.77276 0.59751 0.54376 0.0
C1193 C 0.79412 0.61014 0.52069 0.0
C1194 C 0.75162 0.59831 0.49485 0.0
C1195 C 0.7517 0.61263 0.42234 0.0
C1196 C 0.77295 0.62618 0.40035 0.0
C1197 C 0.79411 0.62447 0.4493 0.0
C1198 C 0.72956 0.58307 0.51911 0.0
C1199 C 0.77346 0.64214 0.32449 0.0
H1200 H 0.71004 0.5805 0.19778 0.0
H1201 H 0.67435 0.63849 0.3306 0.0
H1202 H 0.7682 0.58621 0.27668 0.0
H1203 H 0.75389 0.5655 0.34727 0.0
H1204 H 0.74733 0.56309 0.23916 0.0
H1205 H 0.69315 0.65858 0.44213 0.0
H1206 H 0.71169 0.6383 0.50422 0.0
H1207 H 0.72626 0.65939 0.43567 0.0
H1208 H 0.7728 0.58638 0.59902 0.0
H1209 H 0.81055 0.63451 0.43219 0.0
H1210 H 0.72604 0.56889 0.47161 0.0
H1211 H 0.71292 0.5948 0.5228 0.0
H1212 H 0.73216 0.57369 0.57908 0.0
H1213 H 0.77237 0.63042 0.26898 0.0
H1214 H 0.79045 0.65343 0.32069 0.0
H1215 H 0.75729 0.65459 0.3236 0.0
C1216 C 0.6282 0.19147 0.55994 0.0
C1217 C 0.60972 0.19014 0.50041 0.0
C1218 C 0.63026 0.21223 0.61062 0.0
C1219 C 0.61292 0.23156 0.6029 0.0
C1220 C 0.59389 0.22992 0.54398 0.0
C1221 C 0.59278 0.20938 0.49248 0.0
C1222 C 0.65117 0.2137 0.67129 0.0
C1223 C 0.57464 0.24981 0.53552 0.0
C1224 C 0.60189 0.27382 0.78331 0.0
C1225 C 0.61322 0.29558 0.75685 0.0
C1226 C 0.60193 0.25274 0.73415 0.0
C1227 C 0.61416 0.25329 0.65764 0.0
C1228 C 0.62631 0.275 0.63167 0.0
C1229 C 0.62538 0.29609 0.68124 0.0
C1230 C 0.58822 0.23015 0.76293 0.0
C1231 C 0.64001 0.27603 0.55124 0.0
H1232 H 0.64152 0.17669 0.56488 0.0
H1233 H 0.57849 0.20824 0.44626 0.0
H1234 H 0.66211 0.2306 0.65991 0.0
H1235 H 0.64384 0.21498 0.7346 0.0
H1236 H 0.66358 0.1975 0.6676 0.0
H1237 H 0.56065 0.24532 0.4882 0.0
H1238 H 0.56516 0.25259 0.59504 0.0
H1239 H 0.58348 0.26751 0.51881 0.0
H1240 H 0.59234 0.27347 0.84166 0.0
H1241 H 0.63433 0.31287 0.6612 0.0
H1242 H 0.60074 0.21406 0.76486 0.0
H1243 H 0.57328 0.22574 0.71895 0.0
H1244 H 0.58 0.23264 0.82474 0.0
H1245 H 0.65327 0.26055 0.54733 0.0
H1246 H 0.65017 0.2936 0.54325 0.0
H1247 H 0.62691 0.27399 0.49957 0.0
loop_
_geom_bond_atom_site_label_1
_geom_bond_atom_site_label_2
_geom_bond_distance
_geom_bond_site_symmetry_2
_ccdc_geom_bond_type
Co0 O1 2.216 . S
Co0 O2 2.093 . S
Co0 O4 2.004 . S
Co0 O10 2.021 . S
Co0 O12 2.137 . S
Co0 O13 2.244 . S
O1 Co0 2.216 . S
O1 C8 1.247 . S
O2 Co0 2.093 . S
O2 C8 1.262 . S
C3 O12 1.247 . S
C3 O13 1.272 . S
O4 Co0 2.004 . S
O4 C9 1.259 . S
Co5 O6 2.061 . S
Co5 O11 2.052 . S
Co5 O13 2.135 . S
O6 Co5 2.061 . S
O6 C9 1.235 . S
C7 O10 1.238 . S
C7 O11 1.241 . S
C8 O1 1.247 . S
C8 O2 1.262 . S
C9 O4 1.259 . S
C9 O6 1.235 . S
O10 Co0 2.021 . S
O10 C7 1.238 . S
O11 Co5 2.052 . S
O11 C7 1.241 . S
O12 Co0 2.137 . S
O12 C3 1.247 . S
O13 Co0 2.244 . S
O13 C3 1.272 . S
O13 Co5 2.135 . S
Co14 O15 2.216 . S
Co14 O16 2.092 . S
Co14 O18 2.004 . S
Co14 O24 2.021 . S
Co14 O26 2.137 . S
Co14 O27 2.244 . S
O15 Co14 2.216 . S
O15 C22 1.247 . S
O16 Co14 2.092 . S
O16 C22 1.262 . S
C17 O26 1.247 . S
C17 O27 1.272 . S
O18 Co14 2.004 . S
O18 C23 1.259 . S
Co19 O20 2.061 . S
Co19 O25 2.052 . S
Co19 O27 2.135 . S
O20 Co19 2.061 . S
O20 C23 1.235 . S
C21 O24 1.238 . S
C21 O25 1.241 . S
C22 O15 1.247 . S
C22 O16 1.262 . S
C23 O18 1.259 . S
C23 O20 1.235 . S
O24 Co14 2.021 . S
O24 C21 1.238 . S
O25 Co19 2.052 . S
O25 C21 1.241 . S
O26 Co14 2.137 . S
O26 C17 1.247 . S
O27 Co14 2.244 . S
O27 C17 1.272 . S
O27 Co19 2.135 . S
Co28 O29 2.216 . S
Co28 O30 2.092 . S
Co28 O32 2.004 . S
Co28 O38 2.021 . S
Co28 O40 2.137 . S
Co28 O41 2.244 . S
O29 Co28 2.216 . S
O29 C36 1.247 . S
O30 Co28 2.092 . S
O30 C36 1.262 . S
C31 O40 1.247 . S
C31 O41 1.272 . S
O32 Co28 2.004 . S
O32 C37 1.259 . S
Co33 O34 2.061 . S
Co33 O39 2.052 . S
Co33 O41 2.135 . S
O34 Co33 2.061 . S
O34 C37 1.235 . S
C35 O38 1.238 . S
C35 O39 1.241 . S
C36 O29 1.247 . S
C36 O30 1.262 . S
C37 O32 1.259 . S
C37 O34 1.235 . S
O38 Co28 2.021 . S
O38 C35 1.238 . S
O39 Co33 2.052 . S
O39 C35 1.241 . S
O40 Co28 2.137 . S
O40 C31 1.247 . S
O41 Co28 2.244 . S
O41 C31 1.272 . S
O41 Co33 2.135 . S
Co42 O43 2.216 . S
Co42 O44 2.094 . S
Co42 O46 2.004 . S
Co42 O52 2.021 . S
Co42 O54 2.137 . S
Co42 O55 2.244 . S
O43 Co42 2.216 . S
O43 C50 1.247 . S
O44 Co42 2.094 . S
O44 C50 1.262 . S
C45 O54 1.247 . S
C45 O55 1.272 . S
O46 Co42 2.004 . S
O46 C51 1.259 . S
Co47 O48 2.061 . S
Co47 O53 2.052 . S
Co47 O55 2.135 . S
O48 Co47 2.061 . S
O48 C51 1.235 . S
C49 O52 1.238 . S
C49 O53 1.241 . S
C50 O43 1.247 . S
C50 O44 1.262 . S
C51 O46 1.259 . S
C51 O48 1.235 . S
O52 Co42 2.021 . S
O52 C49 1.238 . S
O53 Co47 2.052 . S
O53 C49 1.241 . S
O54 Co42 2.137 . S
O54 C45 1.247 . S
O55 Co42 2.244 . S
O55 C45 1.272 . S
O55 Co47 2.135 . S
Co56 O57 2.216 . S
Co56 O58 2.091 . S
Co56 O60 2.004 . S
Co56 O66 2.021 . S
Co56 O68 2.137 . S
Co56 O69 2.244 1_554 S
O57 Co56 2.216 . S
O57 C64 1.247 . S
O58 Co56 2.091 . S
O58 C64 1.261 . S
C59 O68 1.247 . S
C59 O69 1.272 1_554 S
O60 Co56 2.004 . S
O60 C65 1.259 . S
Co61 O62 2.061 1_556 S
Co61 O67 2.052 . S
Co61 O69 2.135 . S
O62 Co61 2.061 1_554 S
O62 C65 1.235 . S
C63 O66 1.238 . S
C63 O67 1.241 1_554 S
C64 O57 1.247 . S
C64 O58 1.261 . S
C65 O60 1.259 . S
C65 O62 1.235 . S
O66 Co56 2.021 . S
O66 C63 1.238 . S
O67 Co61 2.052 . S
O67 C63 1.241 1_556 S
O68 Co56 2.137 . S
O68 C59 1.247 . S
O69 Co56 2.244 1_556 S
O69 C59 1.272 1_556 S
O69 Co61 2.135 . S
Co70 O71 2.216 . S
Co70 O72 2.091 . S
Co70 O74 2.004 . S
Co70 O80 2.021 . S
Co70 O82 2.137 . S
Co70 O83 2.244 1_556 S
O71 Co70 2.216 . S
O71 C78 1.247 . S
O72 Co70 2.091 . S
O72 C78 1.261 . S
C73 O82 1.247 . S
C73 O83 1.272 1_556 S
O74 Co70 2.004 . S
O74 C79 1.259 . S
Co75 O76 2.061 1_554 S
Co75 O81 2.052 . S
Co75 O83 2.135 . S
O76 Co75 2.061 1_556 S
O76 C79 1.235 . S
C77 O80 1.238 . S
C77 O81 1.241 1_556 S
C78 O71 1.247 . S
C78 O72 1.261 . S
C79 O74 1.259 . S
C79 O76 1.235 . S
O80 Co70 2.021 . S
O80 C77 1.238 . S
O81 Co75 2.052 . S
O81 C77 1.241 1_554 S
O82 Co70 2.137 . S
O82 C73 1.247 . S
O83 Co70 2.244 1_554 S
O83 C73 1.272 1_554 S
O83 Co75 2.135 . S
Co84 O85 2.216 . S
Co84 O86 2.091 . S
Co84 O88 2.004 . S
Co84 O94 2.021 . S
Co84 O96 2.137 . S
Co84 O97 2.244 1_554 S
O85 Co84 2.216 . S
O85 C92 1.247 . S
O86 Co84 2.091 . S
O86 C92 1.261 . S
C87 O96 1.247 . S
C87 O97 1.272 1_554 S
O88 Co84 2.004 . S
O88 C93 1.259 . S
Co89 O90 2.061 1_556 S
Co89 O95 2.052 . S
Co89 O97 2.135 . S
O90 Co89 2.061 1_554 S
O90 C93 1.235 . S
C91 O94 1.238 . S
C91 O95 1.241 1_554 S
C92 O85 1.247 . S
C92 O86 1.261 . S
C93 O88 1.259 . S
C93 O90 1.235 . S
O94 Co84 2.021 . S
O94 C91 1.238 . S
O95 Co89 2.052 . S
O95 C91 1.241 1_556 S
O96 Co84 2.137 . S
O96 C87 1.247 . S
O97 Co84 2.244 1_556 S
O97 C87 1.272 1_556 S
O97 Co89 2.135 . S
Co98 O99 2.216 . S
Co98 O100 2.091 . S
Co98 O102 2.004 . S
Co98 O108 2.021 . S
Co98 O110 2.137 . S
Co98 O111 2.244 1_556 S
O99 Co98 2.216 . S
O99 C106 1.247 . S
O100 Co98 2.091 . S
O100 C106 1.261 . S
C101 O110 1.247 . S
C101 O111 1.272 1_556 S
O102 Co98 2.004 . S
O102 C107 1.259 . S
Co103 O104 2.061 1_554 S
Co103 O109 2.052 . S
Co103 O111 2.135 . S
O104 Co103 2.061 1_556 S
O104 C107 1.235 . S
C105 O108 1.238 . S
C105 O109 1.241 1_556 S
C106 O99 1.247 . S
C106 O100 1.261 . S
C107 O102 1.259 . S
C107 O104 1.235 . S
O108 Co98 2.021 . S
O108 C105 1.238 . S
O109 Co103 2.052 . S
O109 C105 1.241 1_554 S
O110 Co98 2.137 . S
O110 C101 1.247 . S
O111 Co98 2.244 1_554 S
O111 C101 1.272 1_554 S
O111 Co103 2.135 . S
Co112 O113 2.216 . S
Co112 O114 2.091 . S
Co112 O116 2.004 . S
Co112 O122 2.021 . S
Co112 O124 2.137 . S
Co112 O125 2.244 . S
O113 Co112 2.216 . S
O113 C120 1.247 . S
O114 Co112 2.091 . S
O114 C120 1.261 . S
C115 O124 1.247 . S
C115 O125 1.272 . S
O116 Co112 2.004 . S
O116 C121 1.259 . S
Co117 O118 2.061 . S
Co117 O123 2.052 . S
Co117 O125 2.135 . S
O118 Co117 2.061 . S
O118 C121 1.235 . S
C119 O122 1.238 . S
C119 O123 1.241 . S
C120 O113 1.247 . S
C120 O114 1.261 . S
C121 O116 1.259 . S
C121 O118 1.235 . S
O122 Co112 2.021 . S
O122 C119 1.238 . S
O123 Co117 2.052 . S
O123 C119 1.241 . S
O124 Co112 2.137 . S
O124 C115 1.247 . S
O125 Co112 2.244 . S
O125 C115 1.272 . S
O125 Co117 2.135 . S
Co126 O127 2.216 . S
Co126 O128 2.091 . S
Co126 O130 2.004 . S
Co126 O136 2.021 . S
Co126 O138 2.137 . S
Co126 O139 2.244 . S
O127 Co126 2.216 . S
O127 C134 1.247 . S
O128 Co126 2.091 . S
O128 C134 1.261 . S
C129 O138 1.247 . S
C129 O139 1.272 . S
O130 Co126 2.004 . S
O130 C135 1.259 . S
Co131 O132 2.061 . S
Co131 O137 2.052 . S
Co131 O139 2.135 . S
O132 Co131 2.061 . S
O132 C135 1.235 . S
C133 O136 1.238 . S
C133 O137 1.241 . S
C134 O127 1.247 . S
C134 O128 1.261 . S
C135 O130 1.259 . S
C135 O132 1.235 . S
O136 Co126 2.021 . S
O136 C133 1.238 . S
O137 Co131 2.052 . S
O137 C133 1.241 . S
O138 Co126 2.137 . S
O138 C129 1.247 . S
O139 Co126 2.244 . S
O139 C129 1.272 . S
O139 Co131 2.135 . S
Co140 O141 2.216 . S
Co140 O142 2.091 . S
Co140 O144 2.004 . S
Co140 O150 2.021 . S
Co140 O152 2.137 . S
Co140 O153 2.244 . S
O141 Co140 2.216 . S
O141 C148 1.247 . S
O142 Co140 2.091 . S
O142 C148 1.261 . S
C143 O152 1.247 . S
C143 O153 1.272 . S
O144 Co140 2.004 . S
O144 C149 1.259 . S
Co145 O146 2.061 . S
Co145 O151 2.052 . S
Co145 O153 2.135 . S
O146 Co145 2.061 . S
O146 C149 1.235 . S
C147 O150 1.238 . S
C147 O151 1.241 . S
C148 O141 1.247 . S
C148 O142 1.261 . S
C149 O144 1.259 . S
C149 O146 1.235 . S
O150 Co140 2.021 . S
O150 C147 1.238 . S
O151 Co145 2.052 . S
O151 C147 1.241 . S
O152 Co140 2.137 . S
O152 C143 1.247 . S
O153 Co140 2.244 . S
O153 C143 1.272 . S
O153 Co145 2.135 . S
Co154 O155 2.216 . S
Co154 O156 2.091 . S
Co154 O158 2.004 . S
Co154 O164 2.021 . S
Co154 O166 2.137 . S
Co154 O167 2.244 . S
O155 Co154 2.216 . S
O155 C162 1.247 . S
O156 Co154 2.091 . S
O156 C162 1.261 . S
C157 O166 1.247 . S
C157 O167 1.272 . S
O158 Co154 2.004 . S
O158 C163 1.259 . S
Co159 O160 2.061 . S
Co159 O165 2.052 . S
Co159 O167 2.135 . S
O160 Co159 2.061 . S
O160 C163 1.235 . S
C161 O164 1.238 . S
C161 O165 1.241 . S
C162 O155 1.247 . S
C162 O156 1.261 . S
C163 O158 1.259 . S
C163 O160 1.235 . S
O164 Co154 2.021 . S
O164 C161 1.238 . S
O165 Co159 2.052 . S
O165 C161 1.241 . S
O166 Co154 2.137 . S
O166 C157 1.247 . S
O167 Co154 2.244 . S
O167 C157 1.272 . S
O167 Co159 2.135 . S
Co168 O169 2.216 . S
Co168 O170 2.091 . S
Co168 O172 2.004 . S
Co168 O178 2.021 . S
Co168 O180 2.137 . S
Co168 O181 2.244 . S
O169 Co168 2.216 . S
O169 C176 1.247 . S
O170 Co168 2.091 . S
O170 C176 1.261 . S
C171 O180 1.247 . S
C171 O181 1.272 . S
O172 Co168 2.004 . S
O172 C177 1.259 . S
Co173 O174 2.061 . S
Co173 O179 2.052 . S
Co173 O181 2.135 . S
O174 Co173 2.061 . S
O174 C177 1.235 . S
C175 O178 1.238 . S
C175 O179 1.241 . S
C176 O169 1.247 . S
C176 O170 1.261 . S
C177 O172 1.259 . S
C177 O174 1.235 . S
O178 Co168 2.021 . S
O178 C175 1.238 . S
O179 Co173 2.052 . S
O179 C175 1.241 . S
O180 Co168 2.137 . S
O180 C171 1.247 . S
O181 Co168 2.244 . S
O181 C171 1.272 . S
O181 Co173 2.135 . S
Co182 O183 2.216 . S
Co182 O184 2.091 . S
Co182 O186 2.004 . S
Co182 O192 2.021 . S
Co182 O194 2.137 . S
Co182 O195 2.244 . S
O183 Co182 2.216 . S
O183 C190 1.247 . S
O184 Co182 2.091 . S
O184 C190 1.261 . S
C185 O194 1.247 . S
C185 O195 1.272 . S
O186 Co182 2.004 . S
O186 C191 1.259 . S
Co187 O188 2.061 . S
Co187 O193 2.052 . S
Co187 O195 2.135 . S
O188 Co187 2.061 . S
O188 C191 1.235 . S
C189 O192 1.238 . S
C189 O193 1.241 . S
C190 O183 1.247 . S
C190 O184 1.261 . S
C191 O186 1.259 . S
C191 O188 1.235 . S
O192 Co182 2.021 . S
O192 C189 1.238 . S
O193 Co187 2.052 . S
O193 C189 1.241 . S
O194 Co182 2.137 . S
O194 C185 1.247 . S
O195 Co182 2.244 . S
O195 C185 1.272 . S
O195 Co187 2.135 . S
Co196 O197 2.216 . S
Co196 O198 2.091 . S
Co196 O200 2.004 . S
Co196 O206 2.021 . S
Co196 O208 2.137 . S
Co196 O209 2.244 . S
O197 Co196 2.216 . S
O197 C204 1.247 . S
O198 Co196 2.091 . S
O198 C204 1.261 . S
C199 O208 1.247 . S
C199 O209 1.272 . S
O200 Co196 2.004 . S
O200 C205 1.259 . S
Co201 O202 2.061 . S
Co201 O207 2.052 . S
Co201 O209 2.135 . S
O202 Co201 2.061 . S
O202 C205 1.235 . S
C203 O206 1.238 . S
C203 O207 1.241 . S
C204 O197 1.247 . S
C204 O198 1.261 . S
C205 O200 1.259 . S
C205 O202 1.235 . S
O206 Co196 2.021 . S
O206 C203 1.238 . S
O207 Co201 2.052 . S
O207 C203 1.241 . S
O208 Co196 2.137 . S
O208 C199 1.247 . S
O209 Co196 2.244 . S
O209 C199 1.272 . S
O209 Co201 2.135 . S
Co210 O211 2.216 . S
Co210 O212 2.091 . S
Co210 O214 2.004 . S
Co210 O220 2.021 . S
Co210 O222 2.137 . S
Co210 O223 2.244 . S
O211 Co210 2.216 . S
O211 C218 1.247 . S
O212 Co210 2.091 . S
O212 C218 1.261 . S
C213 O222 1.247 . S
C213 O223 1.272 . S
O214 Co210 2.004 . S
O214 C219 1.259 . S
Co215 O216 2.061 . S
Co215 O221 2.052 . S
Co215 O223 2.135 . S
O216 Co215 2.061 . S
O216 C219 1.235 . S
C217 O220 1.238 . S
C217 O221 1.241 . S
C218 O211 1.247 . S
C218 O212 1.261 . S
C219 O214 1.259 . S
C219 O216 1.235 . S
O220 Co210 2.021 . S
O220 C217 1.238 . S
O221 Co215 2.052 . S
O221 C217 1.241 . S
O222 Co210 2.137 . S
O222 C213 1.247 . S
O223 Co210 2.244 . S
O223 C213 1.272 . S
O223 Co215 2.135 . S
C224 C225 1.391 . S
C224 C226 1.394 . S
C224 H240 0.931 . S
C225 C224 1.391 . S
C225 C229 1.376 . S
C226 C224 1.394 . S
C226 C227 1.369 . S
C226 C230 1.557 . S
C227 C226 1.369 . S
C227 C228 1.410 . S
C227 C235 1.503 1_565 S
C228 C227 1.410 . S
C228 C229 1.392 . S
C228 C231 1.511 . S
C229 C225 1.376 . S
C229 C228 1.392 . S
C229 H241 0.929 . S
C230 C226 1.557 . S
C230 H242 0.930 1_565 S
C230 H243 0.953 1_565 S
C230 H244 0.975 . S
C231 C228 1.511 . S
C231 H245 0.961 . S
C231 H246 0.961 . S
C231 H247 0.961 . S
C232 C233 1.370 . S
C232 C234 1.363 . S
C232 H248 0.931 . S
C233 C232 1.370 . S
C233 C237 1.408 . S
C234 C232 1.363 . S
C234 C235 1.370 . S
C234 C238 1.524 . S
C235 C227 1.503 1_545 S
C235 C234 1.370 . S
C235 C236 1.403 . S
C236 C235 1.403 . S
C236 C237 1.404 . S
C236 C239 1.539 . S
C237 C233 1.408 . S
C237 C236 1.404 . S
C237 H249 0.930 . S
C238 C234 1.524 . S
C238 H250 0.956 . S
C238 H251 0.961 1_545 S
C238 H252 0.961 . S
C239 C236 1.539 . S
C239 H253 0.958 . S
C239 H254 0.961 . S
C239 H255 0.994 . S
H240 C224 0.931 . S
H241 C229 0.929 . S
H242 C230 0.930 1_545 S
H243 C230 0.953 1_545 S
H244 C230 0.975 . S
H245 C231 0.961 . S
H246 C231 0.961 . S
H247 C231 0.961 . S
H248 C232 0.931 . S
H249 C237 0.930 . S
H250 C238 0.956 . S
H251 C238 0.961 1_565 S
H252 C238 0.961 . S
H253 C239 0.958 . S
H254 C239 0.961 . S
H255 C239 0.994 . S
C256 C257 1.391 . S
C256 C258 1.394 . S
C256 H272 0.931 . S
C257 C256 1.391 . S
C257 C261 1.376 . S
C258 C256 1.394 . S
C258 C259 1.369 . S
C258 C262 1.531 . S
C259 C258 1.369 . S
C259 C260 1.410 . S
C259 C267 1.503 1_455 S
C260 C259 1.410 . S
C260 C261 1.392 . S
C260 C263 1.511 . S
C261 C257 1.376 . S
C261 C260 1.392 . S
C261 H273 0.929 . S
C262 C258 1.531 . S
C262 H274 0.960 . S
C262 H275 0.962 . S
C262 H276 0.960 . S
C263 C260 1.511 . S
C263 H277 0.961 . S
C263 H278 0.961 1_455 S
C263 H279 0.961 . S
C264 C265 1.370 . S
C264 C266 1.363 . S
C264 H280 0.931 . S
C265 C264 1.370 . S
C265 C269 1.408 . S
C266 C264 1.363 . S
C266 C267 1.370 . S
C266 C270 1.524 . S
C267 C259 1.503 1_655 S
C267 C266 1.370 . S
C267 C268 1.403 . S
C268 C267 1.403 . S
C268 C269 1.404 . S
C268 C271 1.539 . S
C269 C265 1.408 . S
C269 C268 1.404 . S
C269 H281 0.930 . S
C270 C266 1.524 . S
C270 H282 0.956 . S
C270 H283 0.961 . S
C270 H284 0.961 . S
C271 C268 1.539 . S
C271 H285 0.958 . S
C271 H286 0.961 . S
C271 H287 0.960 1_655 S
H272 C256 0.931 . S
H273 C261 0.929 . S
H274 C262 0.960 . S
H275 C262 0.962 . S
H276 C262 0.960 . S
H277 C263 0.961 . S
H278 C263 0.961 1_655 S
H279 C263 0.961 . S
H280 C264 0.931 . S
H281 C269 0.930 . S
H282 C270 0.956 . S
H283 C270 0.961 . S
H284 C270 0.961 . S
H285 C271 0.958 . S
H286 C271 0.961 . S
H287 C271 0.960 1_455 S
C288 C289 1.391 . S
C288 C290 1.394 . S
C288 H304 0.931 . S
C289 C288 1.391 . S
C289 C293 1.376 . S
C290 C288 1.394 . S
C290 C291 1.369 . S
C290 C294 1.531 . S
C291 C290 1.369 . S
C291 C292 1.410 . S
C291 C299 1.503 1_565 S
C292 C291 1.410 . S
C292 C293 1.392 . S
C292 C295 1.511 . S
C293 C289 1.376 . S
C293 C292 1.392 . S
C293 H305 0.929 . S
C294 C290 1.531 . S
C294 H306 0.960 1_565 S
C294 H307 0.962 1_565 S
C294 H308 0.960 . S
C295 C292 1.511 . S
C295 H309 0.961 . S
C295 H310 0.961 . S
C295 H311 0.961 . S
C296 C297 1.370 . S
C296 C298 1.363 . S
C296 H312 0.931 . S
C297 C296 1.370 . S
C297 C301 1.408 . S
C298 C296 1.363 . S
C298 C299 1.370 . S
C298 C302 1.524 . S
C299 C291 1.503 1_545 S
C299 C298 1.370 . S
C299 C300 1.403 . S
C300 C299 1.403 . S
C300 C301 1.404 . S
C300 C303 1.539 . S
C301 C297 1.408 . S
C301 C300 1.404 . S
C301 H313 0.930 . S
C302 C298 1.524 . S
C302 H314 0.956 . S
C302 H315 0.961 1_545 S
C302 H316 0.961 . S
C303 C300 1.539 . S
C303 H317 0.958 . S
C303 H318 0.961 . S
C303 H319 0.960 . S
H304 C288 0.931 . S
H305 C293 0.929 . S
H306 C294 0.960 1_545 S
H307 C294 0.962 1_545 S
H308 C294 0.960 . S
H309 C295 0.961 . S
H310 C295 0.961 . S
H311 C295 0.961 . S
H312 C296 0.931 . S
H313 C301 0.930 . S
H314 C302 0.956 . S
H315 C302 0.961 1_565 S
H316 C302 0.961 . S
H317 C303 0.958 . S
H318 C303 0.961 . S
H319 C303 0.960 . S
C320 C321 1.391 . S
C320 C322 1.394 . S
C320 H336 0.931 . S
C321 C320 1.391 . S
C321 C325 1.376 . S
C322 C320 1.394 . S
C322 C323 1.369 . S
C322 C326 1.531 . S
C323 C322 1.369 . S
C323 C324 1.410 . S
C323 C331 1.503 1_455 S
C324 C323 1.410 . S
C324 C325 1.392 . S
C324 C327 1.511 . S
C325 C321 1.376 . S
C325 C324 1.392 . S
C325 H337 0.929 . S
C326 C322 1.531 . S
C326 H338 0.960 1_455 S
C326 H339 0.962 1_455 S
C326 H340 0.960 . S
C327 C324 1.511 . S
C327 H341 0.961 . S
C327 H342 0.961 . S
C327 H343 0.961 . S
C328 C329 1.370 . S
C328 C330 1.363 . S
C328 H344 0.931 . S
C329 C328 1.370 . S
C329 C333 1.408 . S
C330 C328 1.363 . S
C330 C331 1.370 . S
C330 C334 1.524 . S
C331 C323 1.503 1_655 S
C331 C330 1.370 . S
C331 C332 1.403 . S
C332 C331 1.403 . S
C332 C333 1.404 . S
C332 C335 1.539 . S
C333 C329 1.408 . S
C333 C332 1.404 . S
C333 H345 0.930 . S
C334 C330 1.524 . S
C334 H346 0.956 . S
C334 H347 0.961 . S
C334 H348 0.961 . S
C335 C332 1.539 . S
C335 H349 0.958 . S
C335 H350 0.961 . S
C335 H351 0.960 1_655 S
H336 C320 0.931 . S
H337 C325 0.929 . S
H338 C326 0.960 1_655 S
H339 C326 0.962 1_655 S
H340 C326 0.960 . S
H341 C327 0.961 . S
H342 C327 0.961 . S
H343 C327 0.961 . S
H344 C328 0.931 . S
H345 C333 0.930 . S
H346 C334 0.956 . S
H347 C334 0.961 . S
H348 C334 0.961 . S
H349 C335 0.958 . S
H350 C335 0.961 . S
H351 C335 0.960 1_455 S
C352 C353 1.391 1_554 S
C352 C354 1.394 . S
C352 H368 0.931 . S
C353 C352 1.391 1_556 S
C353 C357 1.376 . S
C354 C352 1.394 . S
C354 C355 1.369 1_554 S
C354 C358 1.531 . S
C355 C354 1.369 1_556 S
C355 C356 1.410 . S
C355 C363 1.503 . S
C356 C355 1.410 . S
C356 C357 1.392 . S
C356 C359 1.511 . S
C357 C353 1.376 . S
C357 C356 1.392 . S
C357 H369 0.929 . S
C358 C354 1.531 . S
C358 H370 0.960 . S
C358 H371 0.962 . S
C358 H372 0.960 . S
C359 C356 1.511 . S
C359 H373 0.961 . S
C359 H374 0.961 . S
C359 H375 0.961 . S
C360 C361 1.370 . S
C360 C362 1.363 . S
C360 H376 0.931 . S
C361 C360 1.370 . S
C361 C365 1.408 . S
C362 C360 1.363 . S
C362 C363 1.370 . S
C362 C366 1.524 . S
C363 C355 1.503 . S
C363 C362 1.370 . S
C363 C364 1.403 . S
C364 C363 1.403 . S
C364 C365 1.404 . S
C364 C367 1.539 . S
C365 C361 1.408 . S
C365 C364 1.404 . S
C365 H377 0.930 . S
C366 C362 1.524 . S
C366 H378 0.956 . S
C366 H379 0.961 . S
C366 H380 0.961 . S
C367 C364 1.539 . S
C367 H381 0.958 1_556 S
C367 H382 0.961 . S
C367 H383 0.960 . S
H368 C352 0.931 . S
H369 C357 0.929 . S
H370 C358 0.960 . S
H371 C358 0.962 . S
H372 C358 0.960 . S
H373 C359 0.961 . S
H374 C359 0.961 . S
H375 C359 0.961 . S
H376 C360 0.931 . S
H377 C365 0.930 . S
H378 C366 0.956 . S
H379 C366 0.961 . S
H380 C366 0.961 . S
H381 C367 0.958 1_554 S
H382 C367 0.961 . S
H383 C367 0.960 . S
C384 C385 1.391 . S
C384 C386 1.394 . S
C384 H400 0.931 . S
C385 C384 1.391 . S
C385 C389 1.376 1_554 S
C386 C384 1.394 . S
C386 C387 1.369 . S
C386 C390 1.531 . S
C387 C386 1.369 . S
C387 C388 1.411 . S
C387 C395 1.503 . S
C388 C387 1.411 . S
C388 C389 1.391 1_554 S
C388 C391 1.510 1_554 S
C389 C385 1.376 1_556 S
C389 C388 1.391 1_556 S
C389 H401 0.929 . S
C390 C386 1.531 . S
C390 H402 0.960 . S
C390 H403 0.962 . S
C390 H404 0.960 . S
C391 C388 1.510 1_556 S
C391 H405 0.960 . S
C391 H406 0.961 1_556 S
C391 H407 0.961 . S
C392 C393 1.370 . S
C392 C394 1.363 . S
C392 H408 0.931 . S
C393 C392 1.370 . S
C393 C397 1.408 . S
C394 C392 1.363 . S
C394 C395 1.370 . S
C394 C398 1.524 . S
C395 C387 1.503 . S
C395 C394 1.370 . S
C395 C396 1.403 1_554 S
C396 C395 1.403 1_556 S
C396 C397 1.404 1_556 S
C396 C399 1.539 . S
C397 C393 1.408 . S
C397 C396 1.404 1_554 S
C397 H409 0.930 1_554 S
C398 C394 1.524 . S
C398 H410 0.956 . S
C398 H411 0.961 . S
C398 H412 0.961 . S
C399 C396 1.539 . S
C399 H413 0.958 . S
C399 H414 0.961 . S
C399 H415 0.960 . S
H400 C384 0.931 . S
H401 C389 0.929 . S
H402 C390 0.960 . S
H403 C390 0.962 . S
H404 C390 0.960 . S
H405 C391 0.960 . S
H406 C391 0.961 1_554 S
H407 C391 0.961 . S
H408 C392 0.931 . S
H409 C397 0.930 1_556 S
H410 C398 0.956 . S
H411 C398 0.961 . S
H412 C398 0.961 . S
H413 C399 0.958 . S
H414 C399 0.961 . S
H415 C399 0.960 . S
C416 C417 1.391 . S
C416 C418 1.394 . S
C416 H432 0.931 . S
C417 C416 1.391 . S
C417 C421 1.376 . S
C418 C416 1.394 . S
C418 C419 1.369 . S
C418 C422 1.531 1_556 S
C419 C418 1.369 . S
C419 C420 1.410 . S
C419 C427 1.503 . S
C420 C419 1.410 . S
C420 C421 1.392 . S
C420 C423 1.511 . S
C421 C417 1.376 . S
C421 C420 1.392 . S
C421 H433 0.929 . S
C422 C418 1.531 1_554 S
C422 H434 0.960 . S
C422 H435 0.962 1_554 S
C422 H436 0.960 . S
C423 C420 1.511 . S
C423 H437 0.961 . S
C423 H438 0.961 . S
C423 H439 0.961 . S
C424 C425 1.370 . S
C424 C426 1.363 . S
C424 H440 0.931 . S
C425 C424 1.370 . S
C425 C429 1.408 1_556 S
C426 C424 1.363 . S
C426 C427 1.370 . S
C426 C430 1.524 . S
C427 C419 1.503 . S
C427 C426 1.370 . S
C427 C428 1.403 1_556 S
C428 C427 1.403 1_554 S
C428 C429 1.404 . S
C428 C431 1.539 . S
C429 C425 1.408 1_554 S
C429 C428 1.404 . S
C429 H441 0.930 . S
C430 C426 1.524 . S
C430 H442 0.956 . S
C430 H443 0.961 . S
C430 H444 0.961 . S
C431 C428 1.539 . S
C431 H445 0.958 . S
C431 H446 0.961 . S
C431 H447 0.960 . S
H432 C416 0.931 . S
H433 C421 0.929 . S
H434 C422 0.960 . S
H435 C422 0.962 1_556 S
H436 C422 0.960 . S
H437 C423 0.961 . S
H438 C423 0.961 . S
H439 C423 0.961 . S
H440 C424 0.931 . S
H441 C429 0.930 . S
H442 C430 0.956 . S
H443 C430 0.961 . S
H444 C430 0.961 . S
H445 C431 0.958 . S
H446 C431 0.961 . S
H447 C431 0.960 . S
C448 C449 1.391 . S
C448 C450 1.394 . S
C448 H464 0.931 . S
C449 C448 1.391 . S
C449 C453 1.376 . S
C450 C448 1.394 . S
C450 C451 1.369 . S
C450 C454 1.531 . S
C451 C450 1.369 . S
C451 C452 1.405 1_554 S
C451 C459 1.503 . S
C452 C451 1.405 1_556 S
C452 C453 1.390 1_556 S
C452 C455 1.518 . S
C453 C449 1.376 . S
C453 C452 1.390 1_554 S
C453 H465 0.929 1_554 S
C454 C450 1.531 . S
C454 H466 0.960 . S
C454 H467 0.962 . S
C454 H468 0.960 . S
C455 C452 1.518 . S
C455 H469 0.961 . S
C455 H470 0.961 . S
C455 H471 0.961 . S
C456 C457 1.370 . S
C456 C458 1.363 . S
C456 H472 0.931 . S
C457 C456 1.370 . S
C457 C461 1.408 1_554 S
C458 C456 1.363 . S
C458 C459 1.370 . S
C458 C462 1.524 . S
C459 C451 1.503 . S
C459 C458 1.370 . S
C459 C460 1.403 1_554 S
C460 C459 1.403 1_556 S
C460 C461 1.404 . S
C460 C463 1.539 . S
C461 C457 1.408 1_556 S
C461 C460 1.404 . S
C461 H473 0.930 . S
C462 C458 1.524 . S
C462 H474 0.956 . S
C462 H475 0.961 . S
C462 H476 0.961 . S
C463 C460 1.539 . S
C463 H477 0.958 . S
C463 H478 0.961 . S
C463 H479 0.960 . S
H464 C448 0.931 . S
H465 C453 0.929 1_556 S
H466 C454 0.960 . S
H467 C454 0.962 . S
H468 C454 0.960 . S
H469 C455 0.961 . S
H470 C455 0.961 . S
H471 C455 0.961 . S
H472 C456 0.931 . S
H473 C461 0.930 . S
H474 C462 0.956 . S
H475 C462 0.961 . S
H476 C462 0.961 . S
H477 C463 0.958 . S
H478 C463 0.961 . S
H479 C463 0.960 . S
C480 C481 1.391 . S
C480 C482 1.394 . S
C480 H496 0.931 . S
C481 C480 1.391 . S
C481 C485 1.376 . S
C482 C480 1.394 . S
C482 C483 1.369 . S
C482 C486 1.531 . S
C483 C482 1.369 . S
C483 C484 1.410 . S
C483 C491 1.503 . S
C484 C483 1.410 . S
C484 C485 1.392 . S
C484 C487 1.511 . S
C485 C481 1.376 . S
C485 C484 1.392 . S
C485 H497 0.929 . S
C486 C482 1.531 . S
C486 H498 0.960 . S
C486 H499 0.962 . S
C486 H500 0.960 . S
C487 C484 1.511 . S
C487 H501 0.961 . S
C487 H502 0.961 . S
C487 H503 0.961 . S
C488 C489 1.370 . S
C488 C490 1.363 . S
C488 H504 0.931 . S
C489 C488 1.370 . S
C489 C493 1.408 . S
C490 C488 1.363 . S
C490 C491 1.370 . S
C490 C494 1.524 . S
C491 C483 1.503 . S
C491 C490 1.370 . S
C491 C492 1.403 . S
C492 C491 1.403 . S
C492 C493 1.404 . S
C492 C495 1.539 . S
C493 C489 1.408 . S
C493 C492 1.404 . S
C493 H505 0.930 . S
C494 C490 1.524 . S
C494 H506 0.956 . S
C494 H507 0.961 . S
C494 H508 0.961 . S
C495 C492 1.539 . S
C495 H509 0.958 . S
C495 H510 0.961 . S
C495 H511 0.960 . S
H496 C480 0.931 . S
H497 C485 0.929 . S
H498 C486 0.960 . S
H499 C486 0.962 . S
H500 C486 0.960 . S
H501 C487 0.961 . S
H502 C487 0.961 . S
H503 C487 0.961 . S
H504 C488 0.931 . S
H505 C493 0.930 . S
H506 C494 0.956 . S
H507 C494 0.961 . S
H508 C494 0.961 . S
H509 C495 0.958 . S
H510 C495 0.961 . S
H511 C495 0.960 . S
C512 C513 1.391 . S
C512 C514 1.394 . S
C512 H528 0.931 . S
C513 C512 1.391 . S
C513 C517 1.376 . S
C514 C512 1.394 . S
C514 C515 1.369 . S
C514 C518 1.531 . S
C515 C514 1.369 . S
C515 C516 1.410 . S
C515 C523 1.503 . S
C516 C515 1.410 . S
C516 C517 1.392 . S
C516 C519 1.511 . S
C517 C513 1.376 . S
C517 C516 1.392 . S
C517 H529 0.929 . S
C518 C514 1.531 . S
C518 H530 0.960 . S
C518 H531 0.962 . S
C518 H532 0.960 . S
C519 C516 1.511 . S
C519 H533 0.961 . S
C519 H534 0.961 . S
C519 H535 0.961 . S
C520 C521 1.370 . S
C520 C522 1.363 . S
C520 H536 0.931 . S
C521 C520 1.370 . S
C521 C525 1.408 . S
C522 C520 1.363 . S
C522 C523 1.370 . S
C522 C526 1.524 . S
C523 C515 1.503 . S
C523 C522 1.370 . S
C523 C524 1.403 . S
C524 C523 1.403 . S
C524 C525 1.404 . S
C524 C527 1.539 . S
C525 C521 1.408 . S
C525 C524 1.404 . S
C525 H537 0.930 . S
C526 C522 1.524 . S
C526 H538 0.956 . S
C526 H539 0.961 . S
C526 H540 0.961 . S
C527 C524 1.539 . S
C527 H541 0.958 . S
C527 H542 0.961 . S
C527 H543 0.960 . S
H528 C512 0.931 . S
H529 C517 0.929 . S
H530 C518 0.960 . S
H531 C518 0.962 . S
H532 C518 0.960 . S
H533 C519 0.961 . S
H534 C519 0.961 . S
H535 C519 0.961 . S
H536 C520 0.931 . S
H537 C525 0.930 . S
H538 C526 0.956 . S
H539 C526 0.961 . S
H540 C526 0.961 . S
H541 C527 0.958 . S
H542 C527 0.961 . S
H543 C527 0.960 . S
C544 C545 1.391 . S
C544 C546 1.394 . S
C544 H560 0.931 . S
C545 C544 1.391 . S
C545 C549 1.376 . S
C546 C544 1.394 . S
C546 C547 1.369 . S
C546 C550 1.531 . S
C547 C546 1.369 . S
C547 C548 1.410 . S
C547 C555 1.503 . S
C548 C547 1.410 . S
C548 C549 1.392 . S
C548 C551 1.511 . S
C549 C545 1.376 . S
C549 C548 1.392 . S
C549 H561 0.929 . S
C550 C546 1.531 . S
C550 H562 0.960 . S
C550 H563 0.962 . S
C550 H564 0.960 1_556 S
C551 C548 1.511 . S
C551 H565 0.961 . S
C551 H566 0.961 . S
C551 H567 0.961 . S
C552 C553 1.370 . S
C552 C554 1.363 . S
C552 H568 0.931 . S
C553 C552 1.370 . S
C553 C557 1.408 . S
C554 C552 1.363 . S
C554 C555 1.370 . S
C554 C558 1.524 . S
C555 C547 1.503 . S
C555 C554 1.370 . S
C555 C556 1.403 . S
C556 C555 1.403 . S
C556 C557 1.404 . S
C556 C559 1.539 . S
C557 C553 1.408 . S
C557 C556 1.404 . S
C557 H569 0.930 . S
C558 C554 1.524 . S
C558 H570 0.956 . S
C558 H571 0.961 . S
C558 H572 0.961 . S
C559 C556 1.539 . S
C559 H573 0.958 . S
C559 H574 0.961 . S
C559 H575 0.960 . S
H560 C544 0.931 . S
H561 C549 0.929 . S
H562 C550 0.960 . S
H563 C550 0.962 . S
H564 C550 0.960 1_554 S
H565 C551 0.961 . S
H566 C551 0.961 . S
H567 C551 0.961 . S
H568 C552 0.931 . S
H569 C557 0.930 . S
H570 C558 0.956 . S
H571 C558 0.961 . S
H572 C558 0.961 . S
H573 C559 0.958 . S
H574 C559 0.961 . S
H575 C559 0.960 . S
C576 C577 1.391 . S
C576 C578 1.394 . S
C576 H592 0.931 . S
C577 C576 1.391 . S
C577 C581 1.376 . S
C578 C576 1.394 . S
C578 C579 1.369 . S
C578 C582 1.531 . S
C579 C578 1.369 . S
C579 C580 1.410 . S
C579 C587 1.503 . S
C580 C579 1.410 . S
C580 C581 1.392 . S
C580 C583 1.511 . S
C581 C577 1.376 . S
C581 C580 1.392 . S
C581 H593 0.929 . S
C582 C578 1.531 . S
C582 H594 0.960 . S
C582 H595 0.962 . S
C582 H596 0.960 . S
C583 C580 1.511 . S
C583 H597 0.961 . S
C583 H598 0.961 . S
C583 H599 0.961 . S
C584 C585 1.370 . S
C584 C586 1.363 . S
C584 H600 0.931 . S
C585 C584 1.370 . S
C585 C589 1.408 . S
C586 C584 1.363 . S
C586 C587 1.370 . S
C586 C590 1.524 . S
C587 C579 1.503 . S
C587 C586 1.370 . S
C587 C588 1.403 . S
C588 C587 1.403 . S
C588 C589 1.404 . S
C588 C591 1.539 . S
C589 C585 1.408 . S
C589 C588 1.404 . S
C589 H601 0.930 . S
C590 C586 1.524 . S
C590 H602 0.956 . S
C590 H603 0.961 . S
C590 H604 0.961 . S
C591 C588 1.539 . S
C591 H605 0.958 . S
C591 H606 0.961 . S
C591 H607 0.960 . S
H592 C576 0.931 . S
H593 C581 0.929 . S
H594 C582 0.960 . S
H595 C582 0.962 . S
H596 C582 0.960 . S
H597 C583 0.961 . S
H598 C583 0.961 . S
H599 C583 0.961 . S
H600 C584 0.931 . S
H601 C589 0.930 . S
H602 C590 0.956 . S
H603 C590 0.961 . S
H604 C590 0.961 . S
H605 C591 0.958 . S
H606 C591 0.961 . S
H607 C591 0.960 . S
C608 C609 1.391 . S
C608 C610 1.394 . S
C608 H624 0.931 . S
C609 C608 1.391 . S
C609 C613 1.376 . S
C610 C608 1.394 . S
C610 C611 1.369 . S
C610 C614 1.531 . S
C611 C610 1.369 . S
C611 C612 1.410 . S
C611 C619 1.503 1_565 S
C612 C611 1.410 . S
C612 C613 1.392 . S
C612 C615 1.511 . S
C613 C609 1.376 . S
C613 C612 1.392 . S
C613 H625 0.929 . S
C614 C610 1.531 . S
C614 H626 0.960 1_565 S
C614 H627 0.962 . S
C614 H628 0.960 . S
C615 C612 1.511 . S
C615 H629 0.961 . S
C615 H630 0.938 1_565 S
C615 H631 0.961 . S
C616 C617 1.370 . S
C616 C618 1.363 . S
C616 H632 0.931 . S
C617 C616 1.370 . S
C617 C621 1.408 . S
C618 C616 1.363 . S
C618 C619 1.370 . S
C618 C622 1.501 1_545 S
C619 C611 1.503 1_545 S
C619 C618 1.370 . S
C619 C620 1.403 . S
C620 C619 1.403 . S
C620 C621 1.404 . S
C620 C623 1.539 . S
C621 C617 1.408 . S
C621 C620 1.404 . S
C621 H633 0.930 . S
C622 C618 1.501 1_565 S
C622 H634 0.972 . S
C622 H635 0.981 . S
C622 H636 0.948 1_565 S
C623 C620 1.539 . S
C623 H637 0.958 . S
C623 H638 0.961 . S
C623 H639 0.960 . S
H624 C608 0.931 . S
H625 C613 0.929 . S
H626 C614 0.960 1_545 S
H627 C614 0.962 . S
H628 C614 0.960 . S
H629 C615 0.961 . S
H630 C615 0.938 1_545 S
H631 C615 0.961 . S
H632 C616 0.931 . S
H633 C621 0.930 . S
H634 C622 0.972 . S
H635 C622 0.981 . S
H636 C622 0.948 1_545 S
H637 C623 0.958 . S
H638 C623 0.961 . S
H639 C623 0.960 . S
C640 C641 1.391 . S
C640 C642 1.394 . S
C640 H656 0.931 . S
C641 C640 1.391 . S
C641 C645 1.376 . S
C642 C640 1.394 . S
C642 C643 1.369 . S
C642 C646 1.531 . S
C643 C642 1.369 . S
C643 C644 1.410 . S
C643 C651 1.503 1_655 S
C644 C643 1.410 . S
C644 C645 1.392 . S
C644 C647 1.511 . S
C645 C641 1.376 . S
C645 C644 1.392 . S
C645 H657 0.929 . S
C646 C642 1.531 . S
C646 H658 0.960 1_655 S
C646 H659 0.962 . S
C646 H660 0.960 . S
C647 C644 1.511 . S
C647 H661 0.961 . S
C647 H662 0.961 . S
C647 H663 0.961 . S
C648 C649 1.370 . S
C648 C650 1.363 . S
C648 H664 0.931 . S
C649 C648 1.370 . S
C649 C653 1.408 . S
C650 C648 1.363 . S
C650 C651 1.370 . S
C650 C654 1.524 . S
C651 C643 1.503 1_455 S
C651 C650 1.370 . S
C651 C652 1.403 . S
C652 C651 1.403 . S
C652 C653 1.404 . S
C652 C655 1.539 . S
C653 C649 1.408 . S
C653 C652 1.404 . S
C653 H665 0.930 . S
C654 C650 1.524 . S
C654 H666 0.956 . S
C654 H667 0.961 . S
C654 H668 0.961 . S
C655 C652 1.539 . S
C655 H669 0.958 . S
C655 H670 0.961 . S
C655 H671 0.960 1_455 S
H656 C640 0.931 . S
H657 C645 0.929 . S
H658 C646 0.960 1_455 S
H659 C646 0.962 . S
H660 C646 0.960 . S
H661 C647 0.961 . S
H662 C647 0.961 . S
H663 C647 0.961 . S
H664 C648 0.931 . S
H665 C653 0.930 . S
H666 C654 0.956 . S
H667 C654 0.961 . S
H668 C654 0.961 . S
H669 C655 0.958 . S
H670 C655 0.961 . S
H671 C655 0.960 1_655 S
C672 C673 1.391 . S
C672 C674 1.394 . S
C672 H688 0.931 . S
C673 C672 1.391 . S
C673 C677 1.376 . S
C674 C672 1.394 . S
C674 C675 1.369 . S
C674 C678 1.531 . S
C675 C674 1.369 . S
C675 C676 1.410 . S
C675 C683 1.503 1_565 S
C676 C675 1.410 . S
C676 C677 1.392 . S
C676 C679 1.511 . S
C677 C673 1.376 . S
C677 C676 1.392 . S
C677 H689 0.929 . S
C678 C674 1.531 . S
C678 H690 0.960 1_565 S
C678 H691 0.962 . S
C678 H692 0.960 . S
C679 C676 1.511 . S
C679 H693 0.961 . S
C679 H694 0.961 1_565 S
C679 H695 0.961 . S
C680 C681 1.370 . S
C680 C682 1.363 . S
C680 H696 0.931 . S
C681 C680 1.370 . S
C681 C685 1.408 . S
C682 C680 1.363 . S
C682 C683 1.370 . S
C682 C686 1.523 . S
C683 C675 1.503 1_545 S
C683 C682 1.370 . S
C683 C684 1.403 . S
C684 C683 1.403 . S
C684 C685 1.404 . S
C684 C687 1.539 . S
C685 C681 1.408 . S
C685 C684 1.404 . S
C685 H697 0.930 . S
C686 C682 1.523 . S
C686 H698 0.957 1_545 S
C686 H699 0.961 1_545 S
C686 H700 0.960 . S
C687 C684 1.539 . S
C687 H701 0.958 . S
C687 H702 0.961 . S
C687 H703 0.960 . S
H688 C672 0.931 . S
H689 C677 0.929 . S
H690 C678 0.960 1_545 S
H691 C678 0.962 . S
H692 C678 0.960 . S
H693 C679 0.961 . S
H694 C679 0.961 1_545 S
H695 C679 0.961 . S
H696 C680 0.931 . S
H697 C685 0.930 . S
H698 C686 0.957 1_565 S
H699 C686 0.961 1_565 S
H700 C686 0.960 . S
H701 C687 0.958 . S
H702 C687 0.961 . S
H703 C687 0.960 . S
C704 C705 1.391 . S
C704 C706 1.394 . S
C704 H720 0.931 . S
C705 C704 1.391 . S
C705 C709 1.376 . S
C706 C704 1.394 . S
C706 C707 1.369 . S
C706 C710 1.531 . S
C707 C706 1.369 . S
C707 C708 1.410 . S
C707 C715 1.503 1_655 S
C708 C707 1.410 . S
C708 C709 1.392 . S
C708 C711 1.511 . S
C709 C705 1.376 . S
C709 C708 1.392 . S
C709 H721 0.929 . S
C710 C706 1.531 . S
C710 H722 0.960 . S
C710 H723 0.962 . S
C710 H724 0.960 . S
C711 C708 1.511 . S
C711 H725 0.961 . S
C711 H726 0.961 1_655 S
C711 H727 0.961 1_655 S
C712 C713 1.370 . S
C712 C714 1.363 . S
C712 H728 0.931 . S
C713 C712 1.370 . S
C713 C717 1.408 . S
C714 C712 1.363 . S
C714 C715 1.370 . S
C714 C718 1.524 . S
C715 C707 1.503 1_455 S
C715 C714 1.370 . S
C715 C716 1.403 . S
C716 C715 1.403 . S
C716 C717 1.404 . S
C716 C719 1.539 . S
C717 C713 1.408 . S
C717 C716 1.404 . S
C717 H729 0.930 . S
C718 C714 1.524 . S
C718 H730 0.942 1_455 S
C718 H731 0.961 . S
C718 H732 0.961 . S
C719 C716 1.539 . S
C719 H733 0.958 . S
C719 H734 0.961 . S
C719 H735 0.987 . S
H720 C704 0.931 . S
H721 C709 0.929 . S
H722 C710 0.960 . S
H723 C710 0.962 . S
H724 C710 0.960 . S
H725 C711 0.961 . S
H726 C711 0.961 1_455 S
H727 C711 0.961 1_455 S
H728 C712 0.931 . S
H729 C717 0.930 . S
H730 C718 0.942 1_655 S
H731 C718 0.961 . S
H732 C718 0.961 . S
H733 C719 0.958 . S
H734 C719 0.961 . S
H735 C719 0.987 . S
C736 C737 1.391 . S
C736 C738 1.394 . S
C736 H752 0.931 1_554 S
C737 C736 1.391 . S
C737 C741 1.376 . S
C738 C736 1.394 . S
C738 C739 1.369 . S
C738 C742 1.531 . S
C739 C738 1.369 . S
C739 C740 1.410 . S
C739 C747 1.503 . S
C740 C739 1.410 . S
C740 C741 1.392 . S
C740 C743 1.511 . S
C741 C737 1.376 . S
C741 C740 1.392 . S
C741 H753 0.929 . S
C742 C738 1.531 . S
C742 H754 0.960 . S
C742 H755 0.962 . S
C742 H756 0.960 1_554 S
C743 C740 1.511 . S
C743 H757 0.961 . S
C743 H758 0.961 . S
C743 H759 0.961 . S
C744 C745 1.370 . S
C744 C746 1.363 . S
C744 H760 0.931 . S
C745 C744 1.370 . S
C745 C749 1.408 . S
C746 C744 1.363 . S
C746 C747 1.370 . S
C746 C750 1.524 . S
C747 C739 1.503 . S
C747 C746 1.370 . S
C747 C748 1.403 . S
C748 C747 1.403 . S
C748 C749 1.404 . S
C748 C751 1.539 . S
C749 C745 1.408 . S
C749 C748 1.404 . S
C749 H761 0.930 . S
C750 C746 1.524 . S
C750 H762 0.956 . S
C750 H763 0.961 . S
C750 H764 0.961 . S
C751 C748 1.539 . S
C751 H765 0.958 1_554 S
C751 H766 0.961 1_554 S
C751 H767 0.960 . S
H752 C736 0.931 1_556 S
H753 C741 0.929 . S
H754 C742 0.960 . S
H755 C742 0.962 . S
H756 C742 0.960 1_556 S
H757 C743 0.961 . S
H758 C743 0.961 . S
H759 C743 0.961 . S
H760 C744 0.931 . S
H761 C749 0.930 . S
H762 C750 0.956 . S
H763 C750 0.961 . S
H764 C750 0.961 . S
H765 C751 0.958 1_556 S
H766 C751 0.961 1_556 S
H767 C751 0.960 . S
C768 C769 1.391 . S
C768 C770 1.394 . S
C768 H784 0.931 . S
C769 C768 1.391 . S
C769 C773 1.376 . S
C770 C768 1.394 . S
C770 C771 1.369 . S
C770 C774 1.531 . S
C771 C770 1.369 . S
C771 C772 1.410 . S
C771 C779 1.503 . S
C772 C771 1.410 . S
C772 C773 1.392 . S
C772 C775 1.511 1_556 S
C773 C769 1.376 . S
C773 C772 1.392 . S
C773 H785 0.929 . S
C774 C770 1.531 . S
C774 H786 0.960 . S
C774 H787 0.962 . S
C774 H788 0.960 . S
C775 C772 1.511 1_554 S
C775 H789 0.961 . S
C775 H790 0.961 . S
C775 H791 0.961 . S
C776 C777 1.370 . S
C776 C778 1.363 . S
C776 H792 0.931 . S
C777 C776 1.370 . S
C777 C781 1.408 . S
C778 C776 1.363 . S
C778 C779 1.370 . S
C778 C782 1.524 . S
C779 C771 1.503 . S
C779 C778 1.370 . S
C779 C780 1.403 . S
C780 C779 1.403 . S
C780 C781 1.404 . S
C780 C783 1.539 . S
C781 C777 1.408 . S
C781 C780 1.404 . S
C781 H793 0.930 . S
C782 C778 1.524 . S
C782 H794 0.956 . S
C782 H795 0.961 . S
C782 H796 0.961 . S
C783 C780 1.539 . S
C783 H797 0.958 . S
C783 H798 0.961 . S
C783 H799 0.960 . S
H784 C768 0.931 . S
H785 C773 0.929 . S
H786 C774 0.960 . S
H787 C774 0.962 . S
H788 C774 0.960 . S
H789 C775 0.961 . S
H790 C775 0.961 . S
H791 C775 0.961 . S
H792 C776 0.931 . S
H793 C781 0.930 . S
H794 C782 0.956 . S
H795 C782 0.961 . S
H796 C782 0.961 . S
H797 C783 0.958 . S
H798 C783 0.961 . S
H799 C783 0.960 . S
C800 C801 1.391 . S
C800 C802 1.394 . S
C800 H816 0.931 . S
C801 C800 1.391 . S
C801 C805 1.376 . S
C802 C800 1.394 . S
C802 C803 1.369 . S
C802 C806 1.531 . S
C803 C802 1.369 . S
C803 C804 1.410 . S
C803 C811 1.503 . S
C804 C803 1.410 . S
C804 C805 1.392 . S
C804 C807 1.511 . S
C805 C801 1.376 . S
C805 C804 1.392 . S
C805 H817 0.929 . S
C806 C802 1.531 . S
C806 H818 0.960 1_554 S
C806 H819 0.962 . S
C806 H820 0.960 1_554 S
C807 C804 1.511 . S
C807 H821 0.961 . S
C807 H822 0.961 . S
C807 H823 0.961 . S
C808 C809 1.370 . S
C808 C810 1.363 . S
C808 H824 0.931 . S
C809 C808 1.370 . S
C809 C813 1.408 . S
C810 C808 1.363 . S
C810 C811 1.370 . S
C810 C814 1.524 . S
C811 C803 1.503 . S
C811 C810 1.370 . S
C811 C812 1.403 . S
C812 C811 1.403 . S
C812 C813 1.404 . S
C812 C815 1.539 1_554 S
C813 C809 1.408 . S
C813 C812 1.404 . S
C813 H825 0.930 1_554 S
C814 C810 1.524 . S
C814 H826 0.956 . S
C814 H827 0.961 . S
C814 H828 0.961 . S
C815 C812 1.539 1_556 S
C815 H829 0.958 . S
C815 H830 0.961 . S
C815 H831 0.960 1_556 S
H816 C800 0.931 . S
H817 C805 0.929 . S
H818 C806 0.960 1_556 S
H819 C806 0.962 . S
H820 C806 0.960 1_556 S
H821 C807 0.961 . S
H822 C807 0.961 . S
H823 C807 0.961 . S
H824 C808 0.931 . S
H825 C813 0.930 1_556 S
H826 C814 0.956 . S
H827 C814 0.961 . S
H828 C814 0.961 . S
H829 C815 0.958 . S
H830 C815 0.961 . S
H831 C815 0.960 1_554 S
C832 C833 1.391 . S
C832 C834 1.394 . S
C832 H848 0.931 . S
C833 C832 1.391 . S
C833 C837 1.376 1_556 S
C834 C832 1.394 . S
C834 C835 1.369 . S
C834 C838 1.531 . S
C835 C834 1.369 . S
C835 C836 1.410 . S
C835 C843 1.503 . S
C836 C835 1.410 . S
C836 C837 1.392 1_556 S
C836 C839 1.511 1_556 S
C837 C833 1.376 1_554 S
C837 C836 1.392 1_554 S
C837 H849 0.929 . S
C838 C834 1.531 . S
C838 H850 0.960 . S
C838 H851 0.962 . S
C838 H852 0.960 . S
C839 C836 1.511 1_554 S
C839 H853 0.961 . S
C839 H854 0.961 . S
C839 H855 0.961 . S
C840 C841 1.370 . S
C840 C842 1.363 . S
C840 H856 0.931 . S
C841 C840 1.370 . S
C841 C845 1.408 . S
C842 C840 1.363 . S
C842 C843 1.370 . S
C842 C846 1.524 . S
C843 C835 1.503 . S
C843 C842 1.370 . S
C843 C844 1.403 . S
C844 C843 1.403 . S
C844 C845 1.404 . S
C844 C847 1.539 . S
C845 C841 1.408 . S
C845 C844 1.404 . S
C845 H857 0.930 . S
C846 C842 1.524 . S
C846 H858 0.956 . S
C846 H859 0.961 . S
C846 H860 0.961 . S
C847 C844 1.539 . S
C847 H861 0.958 . S
C847 H862 0.961 . S
C847 H863 0.960 . S
H848 C832 0.931 . S
H849 C837 0.929 . S
H850 C838 0.960 . S
H851 C838 0.962 . S
H852 C838 0.960 . S
H853 C839 0.961 . S
H854 C839 0.961 . S
H855 C839 0.961 . S
H856 C840 0.931 . S
H857 C845 0.930 . S
H858 C846 0.956 . S
H859 C846 0.961 . S
H860 C846 0.961 . S
H861 C847 0.958 . S
H862 C847 0.961 . S
H863 C847 0.960 . S
C864 C865 1.391 . S
C864 C866 1.394 . S
C864 H880 0.931 . S
C865 C864 1.391 . S
C865 C869 1.376 . S
C866 C864 1.394 . S
C866 C867 1.369 . S
C866 C870 1.531 . S
C867 C866 1.369 . S
C867 C868 1.410 . S
C867 C875 1.503 . S
C868 C867 1.410 . S
C868 C869 1.392 . S
C868 C871 1.511 . S
C869 C865 1.376 . S
C869 C868 1.392 . S
C869 H881 0.929 . S
C870 C866 1.531 . S
C870 H882 0.960 . S
C870 H883 0.962 . S
C870 H884 0.960 . S
C871 C868 1.511 . S
C871 H885 0.961 . S
C871 H886 0.961 . S
C871 H887 0.961 . S
C872 C873 1.370 . S
C872 C874 1.363 . S
C872 H888 0.931 . S
C873 C872 1.370 . S
C873 C877 1.408 . S
C874 C872 1.363 . S
C874 C875 1.370 . S
C874 C878 1.524 . S
C875 C867 1.503 . S
C875 C874 1.370 . S
C875 C876 1.403 . S
C876 C875 1.403 . S
C876 C877 1.404 . S
C876 C879 1.539 . S
C877 C873 1.408 . S
C877 C876 1.404 . S
C877 H889 0.930 . S
C878 C874 1.524 . S
C878 H890 0.956 . S
C878 H891 0.961 . S
C878 H892 0.961 . S
C879 C876 1.539 . S
C879 H893 0.958 . S
C879 H894 0.961 . S
C879 H895 0.960 . S
H880 C864 0.931 . S
H881 C869 0.929 . S
H882 C870 0.960 . S
H883 C870 0.962 . S
H884 C870 0.960 . S
H885 C871 0.961 . S
H886 C871 0.961 . S
H887 C871 0.961 . S
H888 C872 0.931 . S
H889 C877 0.930 . S
H890 C878 0.956 . S
H891 C878 0.961 . S
H892 C878 0.961 . S
H893 C879 0.958 . S
H894 C879 0.961 . S
H895 C879 0.960 . S
C896 C897 1.391 . S
C896 C898 1.394 . S
C896 H912 0.931 . S
C897 C896 1.391 . S
C897 C901 1.376 . S
C898 C896 1.394 . S
C898 C899 1.369 . S
C898 C902 1.531 . S
C899 C898 1.369 . S
C899 C900 1.410 . S
C899 C907 1.503 . S
C900 C899 1.410 . S
C900 C901 1.392 . S
C900 C903 1.511 . S
C901 C897 1.376 . S
C901 C900 1.392 . S
C901 H913 0.929 . S
C902 C898 1.531 . S
C902 H914 0.960 . S
C902 H915 0.962 . S
C902 H916 0.960 . S
C903 C900 1.511 . S
C903 H917 0.961 . S
C903 H918 0.961 . S
C903 H919 0.961 . S
C904 C905 1.370 . S
C904 C906 1.363 . S
C904 H920 0.931 . S
C905 C904 1.370 . S
C905 C909 1.408 . S
C906 C904 1.363 . S
C906 C907 1.370 . S
C906 C910 1.524 . S
C907 C899 1.503 . S
C907 C906 1.370 . S
C907 C908 1.403 . S
C908 C907 1.403 . S
C908 C909 1.404 . S
C908 C911 1.539 . S
C909 C905 1.408 . S
C909 C908 1.404 . S
C909 H921 0.930 . S
C910 C906 1.524 . S
C910 H922 0.956 . S
C910 H923 0.961 . S
C910 H924 0.961 . S
C911 C908 1.539 . S
C911 H925 0.958 . S
C911 H926 0.961 . S
C911 H927 0.960 . S
H912 C896 0.931 . S
H913 C901 0.929 . S
H914 C902 0.960 . S
H915 C902 0.962 . S
H916 C902 0.960 . S
H917 C903 0.961 . S
H918 C903 0.961 . S
H919 C903 0.961 . S
H920 C904 0.931 . S
H921 C909 0.930 . S
H922 C910 0.956 . S
H923 C910 0.961 . S
H924 C910 0.961 . S
H925 C911 0.958 . S
H926 C911 0.961 . S
H927 C911 0.960 . S
C928 C929 1.391 . S
C928 C930 1.394 . S
C928 H944 0.931 . S
C929 C928 1.391 . S
C929 C933 1.376 . S
C930 C928 1.394 . S
C930 C931 1.369 . S
C930 C934 1.531 . S
C931 C930 1.369 . S
C931 C932 1.410 . S
C931 C939 1.503 . S
C932 C931 1.410 . S
C932 C933 1.392 . S
C932 C935 1.511 . S
C933 C929 1.376 . S
C933 C932 1.392 . S
C933 H945 0.929 . S
C934 C930 1.531 . S
C934 H946 0.960 . S
C934 H947 0.962 . S
C934 H948 0.960 . S
C935 C932 1.511 . S
C935 H949 0.961 . S
C935 H950 0.961 . S
C935 H951 0.961 . S
C936 C937 1.370 . S
C936 C938 1.363 . S
C936 H952 0.931 . S
C937 C936 1.370 . S
C937 C941 1.408 . S
C938 C936 1.363 . S
C938 C939 1.370 . S
C938 C942 1.524 . S
C939 C931 1.503 . S
C939 C938 1.370 . S
C939 C940 1.403 . S
C940 C939 1.403 . S
C940 C941 1.404 . S
C940 C943 1.539 . S
C941 C937 1.408 . S
C941 C940 1.404 . S
C941 H953 0.930 . S
C942 C938 1.524 . S
C942 H954 0.956 . S
C942 H955 0.961 . S
C942 H956 0.961 . S
C943 C940 1.539 . S
C943 H957 0.958 . S
C943 H958 0.961 . S
C943 H959 0.960 . S
H944 C928 0.931 . S
H945 C933 0.929 . S
H946 C934 0.960 . S
H947 C934 0.962 . S
H948 C934 0.960 . S
H949 C935 0.961 . S
H950 C935 0.961 . S
H951 C935 0.961 . S
H952 C936 0.931 . S
H953 C941 0.930 . S
H954 C942 0.956 . S
H955 C942 0.961 . S
H956 C942 0.961 . S
H957 C943 0.958 . S
H958 C943 0.961 . S
H959 C943 0.960 . S
C960 C961 1.391 . S
C960 C962 1.394 . S
C960 H976 0.931 . S
C961 C960 1.391 . S
C961 C965 1.376 . S
C962 C960 1.394 . S
C962 C963 1.369 . S
C962 C966 1.531 . S
C963 C962 1.369 . S
C963 C964 1.410 . S
C963 C971 1.503 . S
C964 C963 1.410 . S
C964 C965 1.392 . S
C964 C967 1.511 . S
C965 C961 1.376 . S
C965 C964 1.392 . S
C965 H977 0.929 . S
C966 C962 1.531 . S
C966 H978 0.960 . S
C966 H979 0.962 . S
C966 H980 0.960 . S
C967 C964 1.511 . S
C967 H981 0.961 . S
C967 H982 0.961 . S
C967 H983 0.961 . S
C968 C969 1.370 . S
C968 C970 1.363 . S
C968 H984 0.931 . S
C969 C968 1.370 . S
C969 C973 1.408 . S
C970 C968 1.363 . S
C970 C971 1.370 . S
C970 C974 1.524 . S
C971 C963 1.503 . S
C971 C970 1.370 . S
C971 C972 1.403 . S
C972 C971 1.403 . S
C972 C973 1.404 . S
C972 C975 1.539 . S
C973 C969 1.408 . S
C973 C972 1.404 . S
C973 H985 0.930 . S
C974 C970 1.524 . S
C974 H986 0.956 . S
C974 H987 0.961 . S
C974 H988 0.961 . S
C975 C972 1.539 . S
C975 H989 0.958 . S
C975 H990 0.961 . S
C975 H991 0.960 . S
H976 C960 0.931 . S
H977 C965 0.929 . S
H978 C966 0.960 . S
H979 C966 0.962 . S
H980 C966 0.960 . S
H981 C967 0.961 . S
H982 C967 0.961 . S
H983 C967 0.961 . S
H984 C968 0.931 . S
H985 C973 0.930 . S
H986 C974 0.956 . S
H987 C974 0.961 . S
H988 C974 0.961 . S
H989 C975 0.958 . S
H990 C975 0.961 . S
H991 C975 0.960 . S
C992 C993 1.391 . S
C992 C994 1.394 . S
C992 H1008 0.931 . S
C993 C992 1.391 . S
C993 C997 1.376 . S
C994 C992 1.394 . S
C994 C995 1.369 . S
C994 C998 1.531 . S
C995 C994 1.369 . S
C995 C996 1.410 . S
C995 C1003 1.503 . S
C996 C995 1.410 . S
C996 C997 1.392 . S
C996 C999 1.511 . S
C997 C993 1.376 . S
C997 C996 1.392 . S
C997 H1009 0.929 . S
C998 C994 1.531 . S
C998 H1010 0.960 . S
C998 H1011 0.962 . S
C998 H1012 0.960 . S
C999 C996 1.511 . S
C999 H1013 0.961 . S
C999 H1014 0.961 . S
C999 H1015 0.961 . S
C1000 C1001 1.370 1_554 S
C1000 C1002 1.363 1_554 S
C1000 H1016 0.931 . S
C1001 C1000 1.370 1_556 S
C1001 C1005 1.408 . S
C1002 C1000 1.363 1_556 S
C1002 C1003 1.370 . S
C1002 C1006 1.524 1_556 S
C1003 C995 1.503 . S
C1003 C1002 1.370 . S
C1003 C1004 1.403 . S
C1004 C1003 1.403 . S
C1004 C1005 1.404 . S
C1004 C1007 1.539 . S
C1005 C1001 1.408 . S
C1005 C1004 1.404 . S
C1005 H1017 0.930 . S
C1006 C1002 1.524 1_554 S
C1006 H1018 0.956 1_554 S
C1006 H1019 0.961 . S
C1006 H1020 0.961 . S
C1007 C1004 1.539 . S
C1007 H1021 0.958 . S
C1007 H1022 0.961 . S
C1007 H1023 0.960 . S
H1008 C992 0.931 . S
H1009 C997 0.929 . S
H1010 C998 0.960 . S
H1011 C998 0.962 . S
H1012 C998 0.960 . S
H1013 C999 0.961 . S
H1014 C999 0.961 . S
H1015 C999 0.961 . S
H1016 C1000 0.931 . S
H1017 C1005 0.930 . S
H1018 C1006 0.956 1_556 S
H1019 C1006 0.961 . S
H1020 C1006 0.961 . S
H1021 C1007 0.958 . S
H1022 C1007 0.961 . S
H1023 C1007 0.960 . S
C1024 C1025 1.391 . S
C1024 C1026 1.394 . S
C1024 H1040 0.931 . S
C1025 C1024 1.391 . S
C1025 C1029 1.376 . S
C1026 C1024 1.394 . S
C1026 C1027 1.369 . S
C1026 C1030 1.531 . S
C1027 C1026 1.369 . S
C1027 C1028 1.410 . S
C1027 C1035 1.503 . S
C1028 C1027 1.410 . S
C1028 C1029 1.392 . S
C1028 C1031 1.511 . S
C1029 C1025 1.376 . S
C1029 C1028 1.392 . S
C1029 H1041 0.929 . S
C1030 C1026 1.531 . S
C1030 H1042 0.960 . S
C1030 H1043 0.962 . S
C1030 H1044 0.960 . S
C1031 C1028 1.511 . S
C1031 H1045 0.961 . S
C1031 H1046 0.961 . S
C1031 H1047 0.961 . S
C1032 C1033 1.370 . S
C1032 C1034 1.363 . S
C1032 H1048 0.931 1_554 S
C1033 C1032 1.370 . S
C1033 C1037 1.408 . S
C1034 C1032 1.363 . S
C1034 C1035 1.370 . S
C1034 C1038 1.524 . S
C1035 C1027 1.503 . S
C1035 C1034 1.370 . S
C1035 C1036 1.403 . S
C1036 C1035 1.403 . S
C1036 C1037 1.404 . S
C1036 C1039 1.539 . S
C1037 C1033 1.408 . S
C1037 C1036 1.404 . S
C1037 H1049 0.930 . S
C1038 C1034 1.524 . S
C1038 H1050 0.956 . S
C1038 H1051 0.961 . S
C1038 H1052 0.961 1_554 S
C1039 C1036 1.539 . S
C1039 H1053 0.958 . S
C1039 H1054 0.961 . S
C1039 H1055 0.960 . S
H1040 C1024 0.931 . S
H1041 C1029 0.929 . S
H1042 C1030 0.960 . S
H1043 C1030 0.962 . S
H1044 C1030 0.960 . S
H1045 C1031 0.961 . S
H1046 C1031 0.961 . S
H1047 C1031 0.961 . S
H1048 C1032 0.931 1_556 S
H1049 C1037 0.930 . S
H1050 C1038 0.956 . S
H1051 C1038 0.961 . S
H1052 C1038 0.961 1_556 S
H1053 C1039 0.958 . S
H1054 C1039 0.961 . S
H1055 C1039 0.960 . S
C1056 C1057 1.391 . S
C1056 C1058 1.394 . S
C1056 H1072 0.931 . S
C1057 C1056 1.391 . S
C1057 C1061 1.376 1_556 S
C1058 C1056 1.394 . S
C1058 C1059 1.369 . S
C1058 C1062 1.531 . S
C1059 C1058 1.369 . S
C1059 C1060 1.410 . S
C1059 C1067 1.503 . S
C1060 C1059 1.410 . S
C1060 C1061 1.392 1_556 S
C1060 C1063 1.511 1_556 S
C1061 C1057 1.376 1_554 S
C1061 C1060 1.392 1_554 S
C1061 H1073 0.929 . S
C1062 C1058 1.531 . S
C1062 H1074 0.960 . S
C1062 H1075 0.962 . S
C1062 H1076 0.960 . S
C1063 C1060 1.511 1_554 S
C1063 H1077 0.961 . S
C1063 H1078 0.961 . S
C1063 H1079 0.961 . S
C1064 C1065 1.370 . S
C1064 C1066 1.363 . S
C1064 H1080 0.931 . S
C1065 C1064 1.370 . S
C1065 C1069 1.408 . S
C1066 C1064 1.363 . S
C1066 C1067 1.370 . S
C1066 C1070 1.524 . S
C1067 C1059 1.503 . S
C1067 C1066 1.370 . S
C1067 C1068 1.403 . S
C1068 C1067 1.403 . S
C1068 C1069 1.404 . S
C1068 C1071 1.539 . S
C1069 C1065 1.408 . S
C1069 C1068 1.404 . S
C1069 H1081 0.930 . S
C1070 C1066 1.524 . S
C1070 H1082 0.956 . S
C1070 H1083 0.961 . S
C1070 H1084 0.961 . S
C1071 C1068 1.539 . S
C1071 H1085 0.958 . S
C1071 H1086 0.961 . S
C1071 H1087 0.960 . S
H1072 C1056 0.931 . S
H1073 C1061 0.929 . S
H1074 C1062 0.960 . S
H1075 C1062 0.962 . S
H1076 C1062 0.960 . S
H1077 C1063 0.961 . S
H1078 C1063 0.961 . S
H1079 C1063 0.961 . S
H1080 C1064 0.931 . S
H1081 C1069 0.930 . S
H1082 C1070 0.956 . S
H1083 C1070 0.961 . S
H1084 C1070 0.961 . S
H1085 C1071 0.958 . S
H1086 C1071 0.961 . S
H1087 C1071 0.960 . S
C1088 C1089 1.391 . S
C1088 C1090 1.394 . S
C1088 H1104 0.931 . S
C1089 C1088 1.391 . S
C1089 C1093 1.376 . S
C1090 C1088 1.394 . S
C1090 C1091 1.369 . S
C1090 C1094 1.531 . S
C1091 C1090 1.369 . S
C1091 C1092 1.410 . S
C1091 C1099 1.503 . S
C1092 C1091 1.410 . S
C1092 C1093 1.392 . S
C1092 C1095 1.511 . S
C1093 C1089 1.376 . S
C1093 C1092 1.392 . S
C1093 H1105 0.929 . S
C1094 C1090 1.531 . S
C1094 H1106 0.960 . S
C1094 H1107 0.962 . S
C1094 H1108 0.960 . S
C1095 C1092 1.511 . S
C1095 H1109 0.961 . S
C1095 H1110 0.961 . S
C1095 H1111 0.961 . S
C1096 C1097 1.370 . S
C1096 C1098 1.363 . S
C1096 H1112 0.931 . S
C1097 C1096 1.370 . S
C1097 C1101 1.408 1_554 S
C1098 C1096 1.363 . S
C1098 C1099 1.370 . S
C1098 C1102 1.524 . S
C1099 C1091 1.503 . S
C1099 C1098 1.370 . S
C1099 C1100 1.403 . S
C1100 C1099 1.403 . S
C1100 C1101 1.404 1_554 S
C1100 C1103 1.539 1_554 S
C1101 C1097 1.408 1_556 S
C1101 C1100 1.404 1_556 S
C1101 H1113 0.930 . S
C1102 C1098 1.524 . S
C1102 H1114 0.956 . S
C1102 H1115 0.961 . S
C1102 H1116 0.961 . S
C1103 C1100 1.539 1_556 S
C1103 H1117 0.958 . S
C1103 H1118 0.961 . S
C1103 H1119 0.960 . S
H1104 C1088 0.931 . S
H1105 C1093 0.929 . S
H1106 C1094 0.960 . S
H1107 C1094 0.962 . S
H1108 C1094 0.960 . S
H1109 C1095 0.961 . S
H1110 C1095 0.961 . S
H1111 C1095 0.961 . S
H1112 C1096 0.931 . S
H1113 C1101 0.930 . S
H1114 C1102 0.956 . S
H1115 C1102 0.961 . S
H1116 C1102 0.961 . S
H1117 C1103 0.958 . S
H1118 C1103 0.961 . S
H1119 C1103 0.960 . S
C1120 C1121 1.391 . S
C1120 C1122 1.394 . S
C1120 H1136 0.931 . S
C1121 C1120 1.391 . S
C1121 C1125 1.376 . S
C1122 C1120 1.394 . S
C1122 C1123 1.369 . S
C1122 C1126 1.531 . S
C1123 C1122 1.369 . S
C1123 C1124 1.410 . S
C1123 C1131 1.503 . S
C1124 C1123 1.410 . S
C1124 C1125 1.392 . S
C1124 C1127 1.511 . S
C1125 C1121 1.376 . S
C1125 C1124 1.392 . S
C1125 H1137 0.929 . S
C1126 C1122 1.531 . S
C1126 H1138 0.960 . S
C1126 H1139 0.962 . S
C1126 H1140 0.960 . S
C1127 C1124 1.511 . S
C1127 H1141 0.961 . S
C1127 H1142 0.961 . S
C1127 H1143 0.961 . S
C1128 C1129 1.370 . S
C1128 C1130 1.363 . S
C1128 H1144 0.931 . S
C1129 C1128 1.370 . S
C1129 C1133 1.408 . S
C1130 C1128 1.363 . S
C1130 C1131 1.370 . S
C1130 C1134 1.524 . S
C1131 C1123 1.503 . S
C1131 C1130 1.370 . S
C1131 C1132 1.403 . S
C1132 C1131 1.403 . S
C1132 C1133 1.404 . S
C1132 C1135 1.539 . S
C1133 C1129 1.408 . S
C1133 C1132 1.404 . S
C1133 H1145 0.930 . S
C1134 C1130 1.524 . S
C1134 H1146 0.956 . S
C1134 H1147 0.961 . S
C1134 H1148 0.961 . S
C1135 C1132 1.539 . S
C1135 H1149 0.958 . S
C1135 H1150 0.961 . S
C1135 H1151 0.960 . S
H1136 C1120 0.931 . S
H1137 C1125 0.929 . S
H1138 C1126 0.960 . S
H1139 C1126 0.962 . S
H1140 C1126 0.960 . S
H1141 C1127 0.961 . S
H1142 C1127 0.961 . S
H1143 C1127 0.961 . S
H1144 C1128 0.931 . S
H1145 C1133 0.930 . S
H1146 C1134 0.956 . S
H1147 C1134 0.961 . S
H1148 C1134 0.961 . S
H1149 C1135 0.958 . S
H1150 C1135 0.961 . S
H1151 C1135 0.960 . S
C1152 C1153 1.391 . S
C1152 C1154 1.394 . S
C1152 H1168 0.931 . S
C1153 C1152 1.391 . S
C1153 C1157 1.376 . S
C1154 C1152 1.394 . S
C1154 C1155 1.369 . S
C1154 C1158 1.531 . S
C1155 C1154 1.369 . S
C1155 C1156 1.410 . S
C1155 C1163 1.503 . S
C1156 C1155 1.410 . S
C1156 C1157 1.392 . S
C1156 C1159 1.511 . S
C1157 C1153 1.376 . S
C1157 C1156 1.392 . S
C1157 H1169 0.929 . S
C1158 C1154 1.531 . S
C1158 H1170 0.960 . S
C1158 H1171 0.962 . S
C1158 H1172 0.960 . S
C1159 C1156 1.511 . S
C1159 H1173 0.961 . S
C1159 H1174 0.961 . S
C1159 H1175 0.961 . S
C1160 C1161 1.370 . S
C1160 C1162 1.363 . S
C1160 H1176 0.931 . S
C1161 C1160 1.370 . S
C1161 C1165 1.408 . S
C1162 C1160 1.363 . S
C1162 C1163 1.370 . S
C1162 C1166 1.524 . S
C1163 C1155 1.503 . S
C1163 C1162 1.370 . S
C1163 C1164 1.403 . S
C1164 C1163 1.403 . S
C1164 C1165 1.404 . S
C1164 C1167 1.539 . S
C1165 C1161 1.408 . S
C1165 C1164 1.404 . S
C1165 H1177 0.930 . S
C1166 C1162 1.524 . S
C1166 H1178 0.956 . S
C1166 H1179 0.961 . S
C1166 H1180 0.961 . S
C1167 C1164 1.539 . S
C1167 H1181 0.958 . S
C1167 H1182 0.961 . S
C1167 H1183 0.960 . S
H1168 C1152 0.931 . S
H1169 C1157 0.929 . S
H1170 C1158 0.960 . S
H1171 C1158 0.962 . S
H1172 C1158 0.960 . S
H1173 C1159 0.961 . S
H1174 C1159 0.961 . S
H1175 C1159 0.961 . S
H1176 C1160 0.931 . S
H1177 C1165 0.930 . S
H1178 C1166 0.956 . S
H1179 C1166 0.961 . S
H1180 C1166 0.961 . S
H1181 C1167 0.958 . S
H1182 C1167 0.961 . S
H1183 C1167 0.960 . S
C1184 C1185 1.391 . S
C1184 C1186 1.394 . S
C1184 H1200 0.931 . S
C1185 C1184 1.391 . S
C1185 C1189 1.376 . S
C1186 C1184 1.394 . S
C1186 C1187 1.369 . S
C1186 C1190 1.531 . S
C1187 C1186 1.369 . S
C1187 C1188 1.410 . S
C1187 C1195 1.503 . S
C1188 C1187 1.410 . S
C1188 C1189 1.392 . S
C1188 C1191 1.511 . S
C1189 C1185 1.376 . S
C1189 C1188 1.392 . S
C1189 H1201 0.929 . S
C1190 C1186 1.531 . S
C1190 H1202 0.960 . S
C1190 H1203 0.962 . S
C1190 H1204 0.960 . S
C1191 C1188 1.511 . S
C1191 H1205 0.961 . S
C1191 H1206 0.961 . S
C1191 H1207 0.961 . S
C1192 C1193 1.370 . S
C1192 C1194 1.363 . S
C1192 H1208 0.931 . S
C1193 C1192 1.370 . S
C1193 C1197 1.408 . S
C1194 C1192 1.363 . S
C1194 C1195 1.370 . S
C1194 C1198 1.524 . S
C1195 C1187 1.503 . S
C1195 C1194 1.370 . S
C1195 C1196 1.403 . S
C1196 C1195 1.403 . S
C1196 C1197 1.404 . S
C1196 C1199 1.539 . S
C1197 C1193 1.408 . S
C1197 C1196 1.404 . S
C1197 H1209 0.930 . S
C1198 C1194 1.524 . S
C1198 H1210 0.956 . S
C1198 H1211 0.961 . S
C1198 H1212 0.961 . S
C1199 C1196 1.539 . S
C1199 H1213 0.958 . S
C1199 H1214 0.961 . S
C1199 H1215 0.960 . S
H1200 C1184 0.931 . S
H1201 C1189 0.929 . S
H1202 C1190 0.960 . S
H1203 C1190 0.962 . S
H1204 C1190 0.960 . S
H1205 C1191 0.961 . S
H1206 C1191 0.961 . S
H1207 C1191 0.961 . S
H1208 C1192 0.931 . S
H1209 C1197 0.930 . S
H1210 C1198 0.956 . S
H1211 C1198 0.961 . S
H1212 C1198 0.961 . S
H1213 C1199 0.958 . S
H1214 C1199 0.961 . S
H1215 C1199 0.960 . S
C1216 C1217 1.391 . S
C1216 C1218 1.394 . S
C1216 H1232 0.931 . S
C1217 C1216 1.391 . S
C1217 C1221 1.376 . S
C1218 C1216 1.394 . S
C1218 C1219 1.369 . S
C1218 C1222 1.531 . S
C1219 C1218 1.369 . S
C1219 C1220 1.410 . S
C1219 C1227 1.503 . S
C1220 C1219 1.410 . S
C1220 C1221 1.392 . S
C1220 C1223 1.511 . S
C1221 C1217 1.376 . S
C1221 C1220 1.392 . S
C1221 H1233 0.929 . S
C1222 C1218 1.531 . S
C1222 H1234 0.960 . S
C1222 H1235 0.962 . S
C1222 H1236 0.960 . S
C1223 C1220 1.511 . S
C1223 H1237 0.961 . S
C1223 H1238 0.961 . S
C1223 H1239 0.961 . S
C1224 C1225 1.370 . S
C1224 C1226 1.363 . S
C1224 H1240 0.931 . S
C1225 C1224 1.370 . S
C1225 C1229 1.408 . S
C1226 C1224 1.363 . S
C1226 C1227 1.370 . S
C1226 C1230 1.524 . S
C1227 C1219 1.503 . S
C1227 C1226 1.370 . S
C1227 C1228 1.403 . S
C1228 C1227 1.403 . S
C1228 C1229 1.404 . S
C1228 C1231 1.539 . S
C1229 C1225 1.408 . S
C1229 C1228 1.404 . S
C1229 H1241 0.930 . S
C1230 C1226 1.524 . S
C1230 H1242 0.956 . S
C1230 H1243 0.961 . S
C1230 H1244 0.961 . S
C1231 C1228 1.539 . S
C1231 H1245 0.958 . S
C1231 H1246 0.961 . S
C1231 H1247 0.960 . S
H1232 C1216 0.931 . S
H1233 C1221 0.929 . S
H1234 C1222 0.960 . S
H1235 C1222 0.962 . S
H1236 C1222 0.960 . S
H1237 C1223 0.961 . S
H1238 C1223 0.961 . S
H1239 C1223 0.961 . S
H1240 C1224 0.931 . S
H1241 C1229 0.930 . S
H1242 C1230 0.956 . S
H1243 C1230 0.961 . S
H1244 C1230 0.961 . S
H1245 C1231 0.958 . S
H1246 C1231 0.961 . S
H1247 C1231 0.960 . S
C225 C163 1.264 . S
C233 C3 1.250 . S
C257 C17 1.239 . S
C265 C121 1.273 . S
C289 C31 1.225 . S
C297 C135 1.266 . S
C321 C149 1.257 . S
C329 C45 1.268 . S
C353 C59 1.235 1_556 S
C361 C79 1.275 . S
C385 C73 1.227 1_554 S
C393 C93 1.260 . S
C417 C107 1.237 . S
C425 C87 1.256 1_556 S
C449 C65 1.242 . S
C457 C101 1.259 1_554 S
C481 C51 1.242 . S
C489 C115 1.265 . S
C513 C129 1.260 . S
C521 C9 1.264 . S
C545 C23 1.291 . S
C553 C143 1.260 . S
C577 C157 1.295 . S
C585 C37 1.280 . S
C609 C171 1.243 . S
C617 C191 1.259 . S
C641 C185 1.287 . S
C649 C205 1.286 . S
C673 C219 1.302 . S
C681 C199 1.270 . S
C705 C177 1.253 . S
C713 C213 1.250 . S
C737 C63 1.241 . S
C745 C7 1.227 . S
C769 C21 1.257 . S
C777 C77 1.253 . S
C801 C35 1.242 . S
C809 C91 1.253 . S
C833 C105 1.211 . S
C841 C49 1.228 . S
C865 C119 1.264 . S
C873 C175 1.234 . S
C897 C189 1.209 . S
C905 C133 1.229 . S
C929 C147 1.210 . S
C937 C203 1.231 . S
C961 C217 1.221 . S
C969 C161 1.226 . S
C993 C204 1.369 . S
C1001 C8 1.399 1_556 S
C1025 C218 1.373 . S
C1033 C22 1.397 1_554 S
C1057 C36 1.385 1_556 S
C1065 C176 1.395 . S
C1089 C190 1.405 . S
C1097 C50 1.385 1_554 S
C1121 C148 1.404 . S
C1129 C64 1.384 . S
C1153 C162 1.374 . S
C1161 C78 1.397 . S
C1185 C92 1.370 . S
C1193 C120 1.399 . S
C1217 C134 1.369 . S
C1225 C106 1.400 . S
