# Generated by pormake.
# Topology vbb, (4)-cn, num edge types: 1
# Building blocks:
#     Node 0, Type 0, BuildingBlock: KOZSID_clean_sbu_0, # of connection points: 4
#     Node 1, Type 0, BuildingBlock: KOZSID_clean_sbu_0, # of connection points: 4
#     Node 2, Type 0, BuildingBlock: KOZSID_clean_sbu_0, # of connection points: 4
#     Node 3, Type 0, BuildingBlock: KOZSID_clean_sbu_0, # of connection points: 4
#     Node 4, Type 0, BuildingBlock: KOZSID_clean_sbu_0, # of connection points: 4
#     Node 5, Type 0, BuildingBlock: KOZSID_clean_sbu_0, # of connection points: 4
#     Node 6, Type 0, BuildingBlock: KOZSID_clean_sbu_0, # of connection points: 4
#     Node 7, Type 0, BuildingBlock: KOZSID_clean_sbu_0, # of connection points: 4
#     Node 8, Type 0, BuildingBlock: KOZSID_clean_sbu_0, # of connection points: 4
#     Node 9, Type 0, BuildingBlock: KOZSID_clean_sbu_0, # of connection points: 4
#     Node 10, Type 0, BuildingBlock: KOZSID_clean_sbu_0, # of connection points: 4
#     Node 11, Type 0, BuildingBlock: KOZSID_clean_sbu_0, # of connection points: 4
#     Node 12, Type 0, BuildingBlock: KOZSID_clean_sbu_0, # of connection points: 4
#     Node 13, Type 0, BuildingBlock: KOZSID_clean_sbu_0, # of connection points: 4
#     Node 14, Type 0, BuildingBlock: KOZSID_clean_sbu_0, # of connection points: 4
#     Node 15, Type 0, BuildingBlock: KOZSID_clean_sbu_0, # of connection points: 4
#     Node 16, Type 0, BuildingBlock: KOZSID_clean_sbu_0, # of connection points: 4
#     Node 17, Type 0, BuildingBlock: KOZSID_clean_sbu_0, # of connection points: 4
#     Node 18, Type 0, BuildingBlock: KOZSID_clean_sbu_0, # of connection points: 4
#     Node 19, Type 0, BuildingBlock: KOZSID_clean_sbu_0, # of connection points: 4
#     Node 20, Type 0, BuildingBlock: KOZSID_clean_sbu_0, # of connection points: 4
#     Node 21, Type 0, BuildingBlock: KOZSID_clean_sbu_0, # of connection points: 4
#     Node 22, Type 0, BuildingBlock: KOZSID_clean_sbu_0, # of connection points: 4
#     Node 23, Type 0, BuildingBlock: KOZSID_clean_sbu_0, # of connection points: 4
#     Node 24, Type 0, BuildingBlock: KOZSID_clean_sbu_0, # of connection points: 4
#     Node 25, Type 0, BuildingBlock: KOZSID_clean_sbu_0, # of connection points: 4
#     Node 26, Type 0, BuildingBlock: KOZSID_clean_sbu_0, # of connection points: 4
#     Node 27, Type 0, BuildingBlock: KOZSID_clean_sbu_0, # of connection points: 4
#     Node 28, Type 0, BuildingBlock: KOZSID_clean_sbu_0, # of connection points: 4
#     Node 29, Type 0, BuildingBlock: KOZSID_clean_sbu_0, # of connection points: 4
#     Node 30, Type 0, BuildingBlock: KOZSID_clean_sbu_0, # of connection points: 4
#     Node 31, Type 0, BuildingBlock: KOZSID_clean_sbu_0, # of connection points: 4
#     Edge 32, Type (0, 0), BuildingBlock: UVAHIK_clean_linker_0, # of connection points: 2
#     Edge 33, Type (0, 0), BuildingBlock: UVAHIK_clean_linker_0, # of connection points: 2
#     Edge 34, Type (0, 0), BuildingBlock: UVAHIK_clean_linker_0, # of connection points: 2
#     Edge 35, Type (0, 0), BuildingBlock: UVAHIK_clean_linker_0, # of connection points: 2
#     Edge 36, Type (0, 0), BuildingBlock: UVAHIK_clean_linker_0, # of connection points: 2
#     Edge 37, Type (0, 0), BuildingBlock: UVAHIK_clean_linker_0, # of connection points: 2
#     Edge 38, Type (0, 0), BuildingBlock: UVAHIK_clean_linker_0, # of connection points: 2
#     Edge 39, Type (0, 0), BuildingBlock: UVAHIK_clean_linker_0, # of connection points: 2
#     Edge 40, Type (0, 0), BuildingBlock: UVAHIK_clean_linker_0, # of connection points: 2
#     Edge 41, Type (0, 0), BuildingBlock: UVAHIK_clean_linker_0, # of connection points: 2
#     Edge 42, Type (0, 0), BuildingBlock: UVAHIK_clean_linker_0, # of connection points: 2
#     Edge 43, Type (0, 0), BuildingBlock: UVAHIK_clean_linker_0, # of connection points: 2
#     Edge 44, Type (0, 0), BuildingBlock: UVAHIK_clean_linker_0, # of connection points: 2
#     Edge 45, Type (0, 0), BuildingBlock: UVAHIK_clean_linker_0, # of connection points: 2
#     Edge 46, Type (0, 0), BuildingBlock: UVAHIK_clean_linker_0, # of connection points: 2
#     Edge 47, Type (0, 0), BuildingBlock: UVAHIK_clean_linker_0, # of connection points: 2
#     Edge 48, Type (0, 0), BuildingBlock: UVAHIK_clean_linker_0, # of connection points: 2
#     Edge 49, Type (0, 0), BuildingBlock: UVAHIK_clean_linker_0, # of connection points: 2
#     Edge 50, Type (0, 0), BuildingBlock: UVAHIK_clean_linker_0, # of connection points: 2
#     Edge 51, Type (0, 0), BuildingBlock: UVAHIK_clean_linker_0, # of connection points: 2
#     Edge 52, Type (0, 0), BuildingBlock: UVAHIK_clean_linker_0, # of connection points: 2
#     Edge 53, Type (0, 0), BuildingBlock: UVAHIK_clean_linker_0, # of connection points: 2
#     Edge 54, Type (0, 0), BuildingBlock: UVAHIK_clean_linker_0, # of connection points: 2
#     Edge 55, Type (0, 0), BuildingBlock: UVAHIK_clean_linker_0, # of connection points: 2
#     Edge 56, Type (0, 0), BuildingBlock: UVAHIK_clean_linker_0, # of connection points: 2
#     Edge 57, Type (0, 0), BuildingBlock: UVAHIK_clean_linker_0, # of connection points: 2
#     Edge 58, Type (0, 0), BuildingBlock: UVAHIK_clean_linker_0, # of connection points: 2
#     Edge 59, Type (0, 0), BuildingBlock: UVAHIK_clean_linker_0, # of connection points: 2
#     Edge 60, Type (0, 0), BuildingBlock: UVAHIK_clean_linker_0, # of connection points: 2
#     Edge 61, Type (0, 0), BuildingBlock: UVAHIK_clean_linker_0, # of connection points: 2
#     Edge 62, Type (0, 0), BuildingBlock: UVAHIK_clean_linker_0, # of connection points: 2
#     Edge 63, Type (0, 0), BuildingBlock: UVAHIK_clean_linker_0, # of connection points: 2
#     Edge 64, Type (0, 0), BuildingBlock: UVAHIK_clean_linker_0, # of connection points: 2
#     Edge 65, Type (0, 0), BuildingBlock: UVAHIK_clean_linker_0, # of connection points: 2
#     Edge 66, Type (0, 0), BuildingBlock: UVAHIK_clean_linker_0, # of connection points: 2
#     Edge 67, Type (0, 0), BuildingBlock: UVAHIK_clean_linker_0, # of connection points: 2
#     Edge 68, Type (0, 0), BuildingBlock: UVAHIK_clean_linker_0, # of connection points: 2
#     Edge 69, Type (0, 0), BuildingBlock: UVAHIK_clean_linker_0, # of connection points: 2
#     Edge 70, Type (0, 0), BuildingBlock: UVAHIK_clean_linker_0, # of connection points: 2
#     Edge 71, Type (0, 0), BuildingBlock: UVAHIK_clean_linker_0, # of connection points: 2
#     Edge 72, Type (0, 0), BuildingBlock: UVAHIK_clean_linker_0, # of connection points: 2
#     Edge 73, Type (0, 0), BuildingBlock: UVAHIK_clean_linker_0, # of connection points: 2
#     Edge 74, Type (0, 0), BuildingBlock: UVAHIK_clean_linker_0, # of connection points: 2
#     Edge 75, Type (0, 0), BuildingBlock: UVAHIK_clean_linker_0, # of connection points: 2
#     Edge 76, Type (0, 0), BuildingBlock: UVAHIK_clean_linker_0, # of connection points: 2
#     Edge 77, Type (0, 0), BuildingBlock: UVAHIK_clean_linker_0, # of connection points: 2
#     Edge 78, Type (0, 0), BuildingBlock: UVAHIK_clean_linker_0, # of connection points: 2
#     Edge 79, Type (0, 0), BuildingBlock: UVAHIK_clean_linker_0, # of connection points: 2
#     Edge 80, Type (0, 0), BuildingBlock: UVAHIK_clean_linker_0, # of connection points: 2
#     Edge 81, Type (0, 0), BuildingBlock: UVAHIK_clean_linker_0, # of connection points: 2
#     Edge 82, Type (0, 0), BuildingBlock: UVAHIK_clean_linker_0, # of connection points: 2
#     Edge 83, Type (0, 0), BuildingBlock: UVAHIK_clean_linker_0, # of connection points: 2
#     Edge 84, Type (0, 0), BuildingBlock: UVAHIK_clean_linker_0, # of connection points: 2
#     Edge 85, Type (0, 0), BuildingBlock: UVAHIK_clean_linker_0, # of connection points: 2
#     Edge 86, Type (0, 0), BuildingBlock: UVAHIK_clean_linker_0, # of connection points: 2
#     Edge 87, Type (0, 0), BuildingBlock: UVAHIK_clean_linker_0, # of connection points: 2
#     Edge 88, Type (0, 0), BuildingBlock: UVAHIK_clean_linker_0, # of connection points: 2
#     Edge 89, Type (0, 0), BuildingBlock: UVAHIK_clean_linker_0, # of connection points: 2
#     Edge 90, Type (0, 0), BuildingBlock: UVAHIK_clean_linker_0, # of connection points: 2
#     Edge 91, Type (0, 0), BuildingBlock: UVAHIK_clean_linker_0, # of connection points: 2
#     Edge 92, Type (0, 0), BuildingBlock: UVAHIK_clean_linker_0, # of connection points: 2
#     Edge 93, Type (0, 0), BuildingBlock: UVAHIK_clean_linker_0, # of connection points: 2
#     Edge 94, Type (0, 0), BuildingBlock: UVAHIK_clean_linker_0, # of connection points: 2
#     Edge 95, Type (0, 0), BuildingBlock: UVAHIK_clean_linker_0, # of connection points: 2
# Relax obj value: 0.044
# Max RMSD: 0.154
# Mean RMSD: 0.152
data_MOF--net-vbb--node1-KOZSID_clean_sbu_0--edge1-UVAHIK_clean_linker_0
_symmetry_space_group_name_H-M    P1
_symmetry_Int_Tables_number       1
_symmetry_cell_setting            triclinic
loop_
_symmetry_equiv_pos_as_xyz
'x, y, z'
_cell_length_a     80.689698
_cell_length_b     51.479454
_cell_length_c     157.46027
_cell_angle_alpha  89.749029
_cell_angle_beta   89.992907
_cell_angle_gamma 89.998066
loop_
_atom_site_label
_atom_site_type_symbol
_atom_site_fract_x
_atom_site_fract_y
_atom_site_fract_z
_atom_type_partial_charge
C0 C 0.49353 0.0616 0.08439 0.0
C1 C 0.48352 0.08259 0.08645 0.0
C2 C 0.4741 0.08789 0.0794 0.0
C3 C 0.47884 0.06986 0.07347 0.0
N4 N 0.49063 0.05363 0.07637 0.0
Co5 Co 0.50092 0.0248 0.06999 0.0
N6 N 0.49435 0.04039 0.05898 0.0
C7 C 0.48234 0.05826 0.05784 0.0
C8 C 0.4801 0.06492 0.04948 0.0
C9 C 0.49127 0.05013 0.04508 0.0
C10 C 0.49977 0.0352 0.05103 0.0
N11 N 0.51111 0.9958 0.06359 0.0
C12 C 0.51508 0.99418 0.05524 0.0
C13 C 0.52178 0.97001 0.0534 0.0
C14 C 0.52168 0.95599 0.06085 0.0
C15 C 0.51501 0.97233 0.06682 0.0
N16 N 0.50736 0.00953 0.08108 0.0
C17 C 0.51162 0.98465 0.08251 0.0
C18 C 0.51601 0.98017 0.09083 0.0
C19 C 0.51435 0.00372 0.09484 0.0
C20 C 0.50897 0.02128 0.08873 0.0
N21 N 0.4799 0.0053 0.07036 0.0
C22 C 0.45183 0.97245 0.07117 0.0
C23 C 0.45687 0.9872 0.07822 0.0
C24 C 0.47091 0.00329 0.07771 0.0
C25 C 0.46105 0.97534 0.06365 0.0
C26 C 0.47474 0.99197 0.06335 0.0
N27 N 0.52208 0.04362 0.06963 0.0
C28 C 0.55179 0.04274 0.07119 0.0
C29 C 0.5529 0.06944 0.06949 0.0
C30 C 0.53807 0.08287 0.06775 0.0
C31 C 0.52283 0.0696 0.06781 0.0
C32 C 0.53641 0.03038 0.0713 0.0
H33 H 0.51165 0.08034 0.06646 0.0
H34 H 0.53617 0.00995 0.07276 0.0
H35 H 0.47468 0.01378 0.08331 0.0
H36 H 0.48143 0.99337 0.05745 0.0
C37 C 0.47509 0.07074 0.0648 0.0
C38 C 0.50489 0.0487 0.09032 0.0
C39 C 0.5114 0.01432 0.04883 0.0
C40 C 0.51456 0.96793 0.07564 0.0
H41 H 0.48309 0.09296 0.09241 0.0
H42 H 0.46544 0.10375 0.07857 0.0
H43 H 0.47161 0.07919 0.0469 0.0
H44 H 0.49268 0.04995 0.03824 0.0
H45 H 0.52612 0.96311 0.04731 0.0
H46 H 0.52638 0.93652 0.06183 0.0
H47 H 0.52071 0.9623 0.09356 0.0
H48 H 0.51695 0.00752 0.10146 0.0
H49 H 0.45011 0.98638 0.08415 0.0
H50 H 0.45813 0.9643 0.05801 0.0
H51 H 0.56275 0.03116 0.07236 0.0
H52 H 0.53815 0.10354 0.06646 0.0
C53 C 0.77606 0.19293 0.08448 0.0
C54 C 0.78598 0.17181 0.08658 0.0
C55 C 0.79549 0.16665 0.07956 0.0
C56 C 0.79088 0.18485 0.07361 0.0
N57 N 0.77906 0.20105 0.07646 0.0
Co58 Co 0.76881 0.22995 0.07001 0.0
N59 N 0.7756 0.2146 0.05904 0.0
C60 C 0.78766 0.19682 0.05797 0.0
C61 C 0.79002 0.1903 0.04962 0.0
C62 C 0.77887 0.20509 0.04516 0.0
C63 C 0.77026 0.21987 0.05108 0.0
N64 N 0.75866 0.259 0.06354 0.0
C65 C 0.75477 0.26071 0.05518 0.0
C66 C 0.74805 0.28488 0.05329 0.0
C67 C 0.74803 0.29879 0.06072 0.0
C68 C 0.75467 0.28241 0.06673 0.0
N69 N 0.76215 0.245 0.08105 0.0
C70 C 0.75789 0.26987 0.08244 0.0
C71 C 0.75358 0.27428 0.09076 0.0
C72 C 0.7553 0.25069 0.09482 0.0
C73 C 0.76057 0.23319 0.08872 0.0
N74 N 0.78977 0.24958 0.07045 0.0
C75 C 0.81714 0.28336 0.07143 0.0
C76 C 0.81236 0.26825 0.07846 0.0
C77 C 0.79859 0.25162 0.07785 0.0
C78 C 0.8084 0.28025 0.06383 0.0
C79 C 0.79498 0.26311 0.06344 0.0
N80 N 0.7477 0.21101 0.06956 0.0
C81 C 0.71791 0.21184 0.07067 0.0
C82 C 0.71697 0.18538 0.06874 0.0
C83 C 0.73184 0.17186 0.06733 0.0
C84 C 0.74707 0.18509 0.0677 0.0
C85 C 0.73329 0.22415 0.07111 0.0
H86 H 0.75832 0.17443 0.06645 0.0
H87 H 0.73346 0.24446 0.0727 0.0
H88 H 0.79477 0.241 0.08345 0.0
H89 H 0.78851 0.26151 0.05749 0.0
C90 C 0.79479 0.18418 0.06496 0.0
C91 C 0.7647 0.20582 0.09038 0.0
C92 C 0.75855 0.24065 0.04882 0.0
C93 C 0.75501 0.28669 0.07555 0.0
H94 H 0.78629 0.16125 0.09253 0.0
H95 H 0.80414 0.15077 0.07877 0.0
H96 H 0.79855 0.17609 0.04708 0.0
H97 H 0.77753 0.20534 0.03833 0.0
H98 H 0.74377 0.29182 0.04718 0.0
H99 H 0.74328 0.31823 0.06166 0.0
H100 H 0.74896 0.29215 0.09348 0.0
H101 H 0.75286 0.2468 0.10146 0.0
H102 H 0.8188 0.27001 0.08446 0.0
H103 H 0.81183 0.2912 0.05821 0.0
H104 H 0.70681 0.22298 0.07195 0.0
H105 H 0.73169 0.15137 0.0658 0.0
C106 C 0.49358 0.19224 0.17166 0.0
C107 C 0.4836 0.17121 0.16962 0.0
C108 C 0.47417 0.16595 0.17668 0.0
C109 C 0.47887 0.18405 0.18259 0.0
N110 N 0.49065 0.20028 0.17968 0.0
Co111 Co 0.50089 0.2292 0.18603 0.0
N112 N 0.49428 0.21371 0.19705 0.0
C113 C 0.48228 0.19583 0.1982 0.0
C114 C 0.48002 0.18925 0.20657 0.0
C115 C 0.49117 0.20409 0.21097 0.0
C116 C 0.49968 0.21898 0.205 0.0
N117 N 0.51101 0.25829 0.19241 0.0
C118 C 0.51496 0.26 0.20077 0.0
C119 C 0.52162 0.28421 0.20258 0.0
C120 C 0.52152 0.29816 0.19512 0.0
C121 C 0.51489 0.28175 0.18916 0.0
N122 N 0.50736 0.24437 0.17493 0.0
C123 C 0.51159 0.26926 0.17349 0.0
C124 C 0.51599 0.27367 0.16517 0.0
C125 C 0.51437 0.25008 0.16117 0.0
C126 C 0.509 0.23256 0.1673 0.0
N127 N 0.47985 0.24867 0.18562 0.0
C128 C 0.4524 0.2823 0.18462 0.0
C129 C 0.45714 0.26722 0.17762 0.0
C130 C 0.47095 0.25068 0.17823 0.0
C131 C 0.46122 0.27923 0.19221 0.0
C132 C 0.47468 0.26216 0.19261 0.0
N133 N 0.52207 0.21044 0.18644 0.0
C134 C 0.55178 0.21142 0.1849 0.0
C135 C 0.55293 0.18474 0.18664 0.0
C136 C 0.53812 0.17128 0.18839 0.0
C137 C 0.52286 0.18448 0.18829 0.0
C138 C 0.53638 0.22371 0.18476 0.0
H139 H 0.51168 0.17372 0.18965 0.0
H140 H 0.53612 0.24413 0.18328 0.0
H141 H 0.47474 0.2401 0.17266 0.0
H142 H 0.48122 0.26057 0.19855 0.0
C143 C 0.47508 0.18326 0.19125 0.0
C144 C 0.50493 0.20512 0.16573 0.0
C145 C 0.5113 0.2399 0.20719 0.0
C146 C 0.51448 0.28605 0.18034 0.0
H147 H 0.48319 0.16078 0.16367 0.0
H148 H 0.46551 0.15008 0.17751 0.0
H149 H 0.47155 0.17498 0.20916 0.0
H150 H 0.49257 0.20434 0.2178 0.0
H151 H 0.52593 0.29117 0.20867 0.0
H152 H 0.52621 0.31763 0.19412 0.0
H153 H 0.52068 0.29152 0.16242 0.0
H154 H 0.51699 0.24622 0.15456 0.0
H155 H 0.45062 0.26895 0.17164 0.0
H156 H 0.45783 0.29017 0.19781 0.0
H157 H 0.56273 0.22302 0.18372 0.0
H158 H 0.53823 0.15062 0.18971 0.0
C159 C 0.77618 0.06155 0.17175 0.0
C160 C 0.78614 0.08258 0.1696 0.0
C161 C 0.79572 0.08778 0.17659 0.0
C162 C 0.7911 0.06969 0.18258 0.0
N163 N 0.77923 0.05352 0.17978 0.0
Co164 Co 0.769 0.02473 0.18628 0.0
N165 N 0.77587 0.04021 0.19721 0.0
C166 C 0.78796 0.05796 0.19824 0.0
C167 C 0.79037 0.06459 0.20658 0.0
C168 C 0.77922 0.04991 0.21107 0.0
C169 C 0.77056 0.03507 0.20519 0.0
N170 N 0.75887 0.99578 0.1928 0.0
C171 C 0.75504 0.99419 0.20118 0.0
C172 C 0.74832 0.97006 0.20311 0.0
C173 C 0.74825 0.95604 0.19571 0.0
C174 C 0.75485 0.97233 0.18966 0.0
N175 N 0.76225 0.00956 0.17527 0.0
C176 C 0.75796 0.98469 0.17392 0.0
C177 C 0.75354 0.98021 0.16562 0.0
C178 C 0.75523 0.00375 0.16153 0.0
C179 C 0.76061 0.0213 0.16759 0.0
N180 N 0.78995 0.00504 0.18582 0.0
C181 C 0.81726 0.97113 0.18484 0.0
C182 C 0.81243 0.98614 0.1778 0.0
C183 C 0.79869 0.00284 0.17841 0.0
C184 C 0.8086 0.97443 0.19246 0.0
C185 C 0.7952 0.99162 0.19285 0.0
N186 N 0.7479 0.04371 0.18674 0.0
C187 C 0.71811 0.04289 0.18568 0.0
C188 C 0.71719 0.06939 0.18757 0.0
C189 C 0.73207 0.08291 0.18893 0.0
C190 C 0.74729 0.06966 0.18856 0.0
C191 C 0.73348 0.03056 0.18524 0.0
H192 H 0.75856 0.08033 0.18977 0.0
H193 H 0.73363 0.01023 0.18368 0.0
H194 H 0.79484 0.01338 0.1728 0.0
H195 H 0.78879 0.99335 0.19882 0.0
C196 C 0.79507 0.07047 0.19122 0.0
C197 C 0.76474 0.04866 0.1659 0.0
C198 C 0.75884 0.01435 0.2075 0.0
C199 C 0.75512 0.96795 0.18085 0.0
H200 H 0.78644 0.09304 0.16363 0.0
H201 H 0.80441 0.10362 0.17734 0.0
H202 H 0.79893 0.07881 0.20908 0.0
H203 H 0.77791 0.04976 0.21791 0.0
H204 H 0.74407 0.9632 0.20924 0.0
H205 H 0.74348 0.9366 0.1948 0.0
H206 H 0.74885 0.96233 0.16294 0.0
H207 H 0.75269 0.00758 0.1549 0.0
H208 H 0.81881 0.98425 0.17178 0.0
H209 H 0.81207 0.96359 0.1981 0.0
H210 H 0.70699 0.03174 0.18444 0.0
H211 H 0.73193 0.10342 0.19042 0.0
C212 C 0.50945 0.98346 0.91716 0.0
C213 C 0.50083 0.99874 0.91139 0.0
C214 C 0.49575 0.02034 0.91568 0.0
C215 C 0.50145 0.017 0.92382 0.0
N216 N 0.5102 0.99482 0.92494 0.0
Co217 Co 0.51909 0.98079 0.93597 0.0
N218 N 0.50948 0.01046 0.94259 0.0
C219 C 0.50177 0.03166 0.93936 0.0
C220 C 0.49659 0.0488 0.94545 0.0
C221 C 0.50126 0.03792 0.95301 0.0
C222 C 0.50906 0.01465 0.9511 0.0
N223 N 0.52735 0.96595 0.94697 0.0
C224 C 0.52483 0.97388 0.95507 0.0
C225 C 0.5326 0.95753 0.96088 0.0
C226 C 0.54009 0.93843 0.95631 0.0
C227 C 0.53653 0.94418 0.94801 0.0
N228 N 0.52908 0.95152 0.92936 0.0
C229 C 0.53913 0.93261 0.93237 0.0
C230 C 0.54399 0.91508 0.92634 0.0
C231 C 0.53636 0.92301 0.91905 0.0
C232 C 0.52718 0.94492 0.92109 0.0
N233 N 0.54004 1.00138 0.93461 0.0
C234 C 0.56847 0.03369 0.93466 0.0
C235 C 0.56947 0.0077 0.93723 0.0
C236 C 0.55519 0.99203 0.93719 0.0
C237 C 0.55329 0.04275 0.93166 0.0
C238 C 0.5395 0.02639 0.93157 0.0
N239 N 0.4982 0.96087 0.93736 0.0
C240 C 0.48321 0.92055 0.93943 0.0
C241 C 0.46802 0.9337 0.93907 0.0
C242 C 0.46827 0.96051 0.9378 0.0
C243 C 0.48329 0.97352 0.93693 0.0
C244 C 0.49812 0.9345 0.93865 0.0
H245 H 0.48248 0.99387 0.93585 0.0
H246 H 0.50945 0.92372 0.93909 0.0
H247 H 0.5567 0.97261 0.9394 0.0
H248 H 0.52854 0.03476 0.92909 0.0
C249 C 0.49809 0.03352 0.93067 0.0
C250 C 0.5161 0.95781 0.9151 0.0
C251 C 0.51539 0.99679 0.95758 0.0
C252 C 0.54186 0.92976 0.94106 0.0
H253 H 0.49817 0.99441 0.90481 0.0
H254 H 0.48831 0.03619 0.91323 0.0
H255 H 0.48977 0.0667 0.94452 0.0
H256 H 0.49892 0.04595 0.95924 0.0
H257 H 0.53289 0.95925 0.96773 0.0
H258 H 0.54729 0.9223 0.95874 0.0
H259 H 0.55149 0.89785 0.92723 0.0
H260 H 0.53701 0.91325 0.91298 0.0
H261 H 0.58107 0.99972 0.93951 0.0
H262 H 0.55202 0.06255 0.92938 0.0
H263 H 0.48359 0.89973 0.94043 0.0
H264 H 0.45685 0.97149 0.93732 0.0
C265 C 0.26253 0.7701 0.91723 0.0
C266 C 0.27109 0.75497 0.91144 0.0
C267 C 0.2765 0.73352 0.91578 0.0
C268 C 0.271 0.7368 0.92395 0.0
N269 N 0.26208 0.75879 0.92505 0.0
Co270 Co 0.25322 0.77259 0.93608 0.0
N271 N 0.26306 0.74294 0.94272 0.0
C272 C 0.27096 0.72197 0.93951 0.0
C273 C 0.27627 0.7048 0.94561 0.0
C274 C 0.27149 0.71543 0.95316 0.0
C275 C 0.2635 0.73858 0.95123 0.0
N276 N 0.24494 0.78714 0.94708 0.0
C277 C 0.24746 0.779 0.95518 0.0
C278 C 0.23962 0.79512 0.96099 0.0
C279 C 0.23208 0.81428 0.95642 0.0
C280 C 0.23568 0.80878 0.94812 0.0
N281 N 0.24301 0.80185 0.92945 0.0
C282 C 0.23308 0.8208 0.93249 0.0
C283 C 0.22816 0.83848 0.92648 0.0
C284 C 0.23557 0.83058 0.91915 0.0
C285 C 0.24464 0.80844 0.92115 0.0
N286 N 0.23237 0.75179 0.93477 0.0
C287 C 0.20372 0.71964 0.93414 0.0
C288 C 0.20278 0.7455 0.93689 0.0
C289 C 0.21712 0.76105 0.93716 0.0
C290 C 0.21924 0.71061 0.93157 0.0
C291 C 0.23307 0.72683 0.9318 0.0
N292 N 0.27403 0.79278 0.93737 0.0
C293 C 0.28894 0.83342 0.9388 0.0
C294 C 0.30417 0.82063 0.93784 0.0
C295 C 0.30395 0.79367 0.93699 0.0
C296 C 0.28898 0.78035 0.93675 0.0
C297 C 0.27406 0.81916 0.93856 0.0
H298 H 0.28988 0.75993 0.93596 0.0
H299 H 0.2627 0.82975 0.93924 0.0
H300 H 0.21553 0.78043 0.93938 0.0
H301 H 0.24422 0.71835 0.92964 0.0
C302 C 0.2746 0.72028 0.93081 0.0
C303 C 0.25538 0.79537 0.91508 0.0
C304 C 0.257 0.75614 0.95769 0.0
C305 C 0.23036 0.82339 0.94118 0.0
H306 H 0.27342 0.75927 0.90481 0.0
H307 H 0.28396 0.71778 0.91332 0.0
H308 H 0.28322 0.68705 0.9447 0.0
H309 H 0.27385 0.70731 0.9594 0.0
H310 H 0.23933 0.79323 0.96783 0.0
H311 H 0.22483 0.8303 0.95885 0.0
H312 H 0.22073 0.85575 0.92739 0.0
H313 H 0.23483 0.84053 0.9131 0.0
H314 H 0.19106 0.75385 0.93881 0.0
H315 H 0.221 0.69076 0.92952 0.0
H316 H 0.28846 0.8543 0.93954 0.0
H317 H 0.31536 0.78268 0.9365 0.0
C318 C 0.51143 0.77242 0.83841 0.0
C319 C 0.50577 0.75487 0.84445 0.0
C320 C 0.50446 0.73126 0.84045 0.0
C321 C 0.50933 0.73568 0.8322 0.0
N322 N 0.51356 0.76059 0.8308 0.0
Co323 Co 0.52066 0.77576 0.81978 0.0
N324 N 0.51122 0.74638 0.81326 0.0
C325 C 0.50728 0.72291 0.81649 0.0
C326 C 0.50124 0.70624 0.81045 0.0
C327 C 0.50161 0.72 0.80296 0.0
C328 C 0.50794 0.74438 0.80484 0.0
N329 N 0.52774 0.79138 0.80884 0.0
C330 C 0.52289 0.78592 0.80081 0.0
C331 C 0.53155 0.80108 0.79498 0.0
C332 C 0.54224 0.81627 0.79954 0.0
C333 C 0.53958 0.80961 0.80787 0.0
N334 N 0.53034 0.80486 0.82628 0.0
C335 C 0.54218 0.82126 0.82353 0.0
C336 C 0.54652 0.83936 0.82951 0.0
C337 C 0.53681 0.83394 0.83644 0.0
C338 C 0.52702 0.8128 0.83427 0.0
N339 N 0.54179 0.7567 0.82054 0.0
C340 C 0.56979 0.72423 0.82177 0.0
C341 C 0.56194 0.7286 0.81396 0.0
C342 C 0.54803 0.74472 0.81348 0.0
C343 C 0.56359 0.73718 0.82892 0.0
C344 C 0.54972 0.75352 0.82816 0.0
N345 N 0.49939 0.7941 0.81902 0.0
C346 C 0.48324 0.83294 0.81668 0.0
C347 C 0.46847 0.81901 0.81794 0.0
C348 C 0.46959 0.79249 0.81983 0.0
C349 C 0.48506 0.78053 0.82039 0.0
C350 C 0.49858 0.82007 0.81718 0.0
H351 H 0.48536 0.76018 0.82195 0.0
H352 H 0.50977 0.83106 0.81608 0.0
H353 H 0.54206 0.74679 0.80741 0.0
H354 H 0.54517 0.76309 0.83378 0.0
C355 C 0.50705 0.71876 0.82532 0.0
C356 C 0.51543 0.79984 0.84006 0.0
C357 C 0.51186 0.76442 0.79844 0.0
C358 C 0.54634 0.82223 0.81492 0.0
H359 H 0.5028 0.75873 0.85103 0.0
H360 H 0.49972 0.71336 0.84314 0.0
H361 H 0.49663 0.6867 0.8114 0.0
H362 H 0.49779 0.71283 0.79682 0.0
H363 H 0.53061 0.80073 0.78813 0.0
H364 H 0.55072 0.83074 0.79707 0.0
H365 H 0.55513 0.85535 0.82879 0.0
H366 H 0.5369 0.84434 0.8424 0.0
H367 H 0.56615 0.71891 0.80826 0.0
H368 H 0.56938 0.73468 0.83508 0.0
H369 H 0.48295 0.85349 0.81519 0.0
H370 H 0.45856 0.78103 0.821 0.0
C371 C 0.26217 0.98474 0.83895 0.0
C372 C 0.27055 1.00015 0.84473 0.0
C373 C 0.27582 0.02163 0.84036 0.0
C374 C 0.27043 0.0181 0.83219 0.0
N375 N 0.2617 0.99592 0.83111 0.0
Co376 Co 0.25318 0.98162 0.82008 0.0
N377 N 0.2631 0.01106 0.81339 0.0
C378 C 0.27089 0.0322 0.81656 0.0
C379 C 0.27626 0.04919 0.81042 0.0
C380 C 0.27163 0.0383 0.80288 0.0
C381 C 0.26366 0.01518 0.80486 0.0
N382 N 0.2452 0.96657 0.8091 0.0
C383 C 0.2478 0.97449 0.80098 0.0
C384 C 0.24011 0.95811 0.7952 0.0
C385 C 0.23256 0.93904 0.79981 0.0
C386 C 0.23601 0.94483 0.8081 0.0
N387 N 0.24293 0.95252 0.82676 0.0
C388 C 0.23305 0.93346 0.82376 0.0
C389 C 0.22805 0.91601 0.82983 0.0
C390 C 0.23543 0.92413 0.83714 0.0
C391 C 0.24459 0.9461 0.83507 0.0
N392 N 0.23221 0.00237 0.82115 0.0
C393 C 0.20361 0.03448 0.82099 0.0
C394 C 0.20266 0.00829 0.8187 0.0
C395 C 0.21702 0.99274 0.81878 0.0
C396 C 0.21888 0.0439 0.82371 0.0
C397 C 0.23274 0.02765 0.82387 0.0
N398 N 0.27412 0.9615 0.81901 0.0
C399 C 0.28918 0.9209 0.81773 0.0
C400 C 0.30441 0.93377 0.81865 0.0
C401 C 0.30407 0.96077 0.81945 0.0
C402 C 0.28904 0.97401 0.81965 0.0
C403 C 0.27425 0.93508 0.8179 0.0
H404 H 0.28985 0.99447 0.82042 0.0
H405 H 0.26292 0.9244 0.81722 0.0
H406 H 0.21553 0.97314 0.81677 0.0
H407 H 0.24376 0.03632 0.82614 0.0
C408 C 0.27421 0.03431 0.82527 0.0
C409 C 0.25548 0.95913 0.84107 0.0
C410 C 0.25722 0.99744 0.79843 0.0
C411 C 0.23055 0.93048 0.81507 0.0
H412 H 0.27295 0.99594 0.85136 0.0
H413 H 0.28321 0.03749 0.8428 0.0
H414 H 0.28312 0.06705 0.8113 0.0
H415 H 0.27406 0.04626 0.79663 0.0
H416 H 0.23988 0.95981 0.78835 0.0
H417 H 0.22537 0.92292 0.7974 0.0
H418 H 0.22063 0.89871 0.82897 0.0
H419 H 0.23464 0.91446 0.84325 0.0
H420 H 0.191 1.00002 0.81663 0.0
H421 H 0.22016 0.06387 0.82576 0.0
H422 H 0.28872 0.89999 0.81705 0.0
H423 H 0.31543 0.9719 0.81991 0.0
C424 C 0.49403 0.56049 0.58541 0.0
C425 C 0.48434 0.58134 0.58796 0.0
C426 C 0.47453 0.58781 0.58116 0.0
C427 C 0.47873 0.57056 0.57489 0.0
N428 N 0.49053 0.55365 0.57734 0.0
Co429 Co 0.5001 0.52548 0.57036 0.0
N430 N 0.49275 0.54254 0.55969 0.0
C431 C 0.48138 0.56162 0.55905 0.0
C432 C 0.47928 0.5704 0.55089 0.0
C433 C 0.48978 0.55567 0.54607 0.0
C434 C 0.49757 0.53834 0.55157 0.0
N435 N 0.50938 0.49698 0.56338 0.0
C436 C 0.51217 0.49584 0.55489 0.0
C437 C 0.51804 0.47148 0.55262 0.0
C438 C 0.51879 0.45693 0.55994 0.0
C439 C 0.51332 0.47309 0.56627 0.0
N440 N 0.50755 0.50896 0.58111 0.0
C441 C 0.51185 0.48393 0.58215 0.0
C442 C 0.51699 0.47851 0.59029 0.0
C443 C 0.51579 0.50161 0.59462 0.0
C444 C 0.50993 0.51985 0.58885 0.0
N445 N 0.47896 0.50619 0.57101 0.0
C446 C 0.4512 0.47299 0.57204 0.0
C447 C 0.45783 0.48461 0.57934 0.0
C448 C 0.4715 0.50142 0.57867 0.0
C449 C 0.45844 0.47916 0.56419 0.0
C450 C 0.47229 0.49553 0.56382 0.0
N451 N 0.52138 0.54403 0.56971 0.0
C452 C 0.55124 0.54248 0.5703 0.0
C453 C 0.5523 0.56931 0.56891 0.0
C454 C 0.53745 0.5833 0.568 0.0
C455 C 0.52213 0.57028 0.56835 0.0
C456 C 0.53578 0.53034 0.57073 0.0
H457 H 0.51092 0.58141 0.56753 0.0
H458 H 0.53555 0.50975 0.57193 0.0
H459 H 0.47631 0.51001 0.58441 0.0
H460 H 0.47787 0.49884 0.55771 0.0
C461 C 0.47471 0.57317 0.56631 0.0
C462 C 0.50593 0.54699 0.59089 0.0
C463 C 0.50785 0.51639 0.54875 0.0
C464 C 0.51385 0.46786 0.57504 0.0
H465 H 0.48446 0.591 0.59405 0.0
H466 H 0.46605 0.60405 0.58071 0.0
H467 H 0.47141 0.58612 0.54872 0.0
H468 H 0.49125 0.55724 0.53926 0.0
H469 H 0.52117 0.46477 0.54632 0.0
H470 H 0.52314 0.43714 0.56059 0.0
H471 H 0.52181 0.4603 0.59271 0.0
H472 H 0.51893 0.50468 0.60122 0.0
H473 H 0.4525 0.4807 0.58552 0.0
H474 H 0.45382 0.47059 0.55839 0.0
H475 H 0.56231 0.53088 0.57118 0.0
H476 H 0.53766 0.60407 0.56689 0.0
C477 C 0.77588 0.69337 0.58468 0.0
C478 C 0.78592 0.67245 0.58682 0.0
C479 C 0.79552 0.66737 0.57982 0.0
C480 C 0.79083 0.68545 0.57384 0.0
N481 N 0.77892 0.70151 0.57666 0.0
Co482 Co 0.7686 0.73029 0.5702 0.0
N483 N 0.77538 0.71486 0.55925 0.0
C484 C 0.78749 0.69714 0.55818 0.0
C485 C 0.78985 0.69056 0.54984 0.0
C486 C 0.77866 0.70524 0.54538 0.0
C487 C 0.77003 0.72004 0.55128 0.0
N488 N 0.75839 0.75925 0.56372 0.0
C489 C 0.75453 0.76091 0.55535 0.0
C490 C 0.74781 0.78506 0.55345 0.0
C491 C 0.74776 0.79901 0.56087 0.0
C492 C 0.75439 0.78267 0.5669 0.0
N493 N 0.76196 0.74537 0.58124 0.0
C494 C 0.7576 0.7702 0.58262 0.0
C495 C 0.75304 0.77449 0.59091 0.0
C496 C 0.75467 0.75086 0.59496 0.0
C497 C 0.7602 0.73345 0.58889 0.0
N498 N 0.78956 0.75006 0.5706 0.0
C499 C 0.81689 0.78406 0.57153 0.0
C500 C 0.81212 0.76902 0.57857 0.0
C501 C 0.79838 0.75229 0.578 0.0
C502 C 0.80813 0.78076 0.56393 0.0
C503 C 0.79474 0.76353 0.56357 0.0
N504 N 0.74748 0.71127 0.56981 0.0
C505 C 0.71775 0.71193 0.57133 0.0
C506 C 0.71669 0.68524 0.56967 0.0
C507 C 0.73156 0.67194 0.56795 0.0
C508 C 0.74679 0.6853 0.56803 0.0
C509 C 0.7331 0.72439 0.57144 0.0
H510 H 0.75801 0.67465 0.56671 0.0
H511 H 0.73327 0.74481 0.57286 0.0
H512 H 0.79459 0.74173 0.58361 0.0
H513 H 0.78827 0.7618 0.55762 0.0
C514 C 0.79471 0.68468 0.56519 0.0
C515 C 0.76428 0.706 0.59051 0.0
C516 C 0.75833 0.74083 0.549 0.0
C517 C 0.75471 0.78698 0.57571 0.0
H518 H 0.78625 0.66196 0.59279 0.0
H519 H 0.80424 0.65158 0.57906 0.0
H520 H 0.79843 0.6764 0.54731 0.0
H521 H 0.77732 0.70545 0.53854 0.0
H522 H 0.74354 0.79198 0.54733 0.0
H523 H 0.743 0.81845 0.5618 0.0
H524 H 0.74823 0.79227 0.5936 0.0
H525 H 0.75194 0.7469 0.60156 0.0
H526 H 0.81856 0.77089 0.58457 0.0
H527 H 0.81154 0.79161 0.55828 0.0
H528 H 0.70675 0.72342 0.57249 0.0
H529 H 0.73153 0.6513 0.56668 0.0
C530 C 0.49412 0.69194 0.67192 0.0
C531 C 0.48413 0.67083 0.66998 0.0
C532 C 0.47472 0.66587 0.67706 0.0
C533 C 0.47945 0.68422 0.68289 0.0
N534 N 0.49121 0.70034 0.6799 0.0
Co535 Co 0.50151 0.72948 0.68612 0.0
N536 N 0.49494 0.71444 0.69722 0.0
C537 C 0.48298 0.69654 0.69845 0.0
C538 C 0.48068 0.69034 0.70684 0.0
C539 C 0.49175 0.70548 0.71118 0.0
C540 C 0.50025 0.72016 0.70515 0.0
N541 N 0.51169 0.75883 0.69237 0.0
C542 C 0.51553 0.76102 0.70072 0.0
C543 C 0.52222 0.7853 0.7024 0.0
C544 C 0.52223 0.79882 0.69486 0.0
C545 C 0.51563 0.7821 0.68899 0.0
N546 N 0.50794 0.74417 0.67494 0.0
C547 C 0.51223 0.76896 0.67338 0.0
C548 C 0.51664 0.77298 0.66504 0.0
C549 C 0.51498 0.74922 0.66116 0.0
C550 C 0.50958 0.732 0.66736 0.0
N551 N 0.48047 0.74903 0.68566 0.0
C552 C 0.45297 0.78268 0.68461 0.0
C553 C 0.4577 0.76744 0.67765 0.0
C554 C 0.47153 0.75089 0.67828 0.0
C555 C 0.46184 0.77975 0.6922 0.0
C556 C 0.47532 0.76271 0.69262 0.0
N557 N 0.5227 0.71066 0.68658 0.0
C558 C 0.55241 0.71142 0.68493 0.0
C559 C 0.55354 0.68479 0.68676 0.0
C560 C 0.53872 0.67147 0.68861 0.0
C561 C 0.52347 0.68476 0.68852 0.0
C562 C 0.53702 0.7238 0.68481 0.0
H563 H 0.5123 0.67408 0.68995 0.0
H564 H 0.53678 0.74417 0.68326 0.0
H565 H 0.47529 0.74017 0.67273 0.0
H566 H 0.48187 0.76127 0.69856 0.0
C567 C 0.47573 0.68372 0.69156 0.0
C568 C 0.5055 0.7045 0.66593 0.0
C569 C 0.51168 0.74141 0.70727 0.0
C570 C 0.5152 0.78601 0.68015 0.0
H571 H 0.48372 0.66013 0.66408 0.0
H572 H 0.46609 0.65002 0.67798 0.0
H573 H 0.4722 0.67618 0.7095 0.0
H574 H 0.49305 0.70609 0.71801 0.0
H575 H 0.52645 0.79261 0.70846 0.0
H576 H 0.52692 0.81824 0.69376 0.0
H577 H 0.52137 0.79069 0.66221 0.0
H578 H 0.5176 0.74506 0.65457 0.0
H579 H 0.45116 0.76902 0.67166 0.0
H580 H 0.45846 0.79077 0.69778 0.0
H581 H 0.56336 0.72292 0.68366 0.0
H582 H 0.53881 0.65087 0.69001 0.0
C583 C 0.77595 0.56048 0.67092 0.0
C584 C 0.78551 0.58149 0.66833 0.0
C585 C 0.79535 0.58797 0.67509 0.0
C586 C 0.7913 0.57057 0.68139 0.0
N587 N 0.77957 0.55354 0.679 0.0
Co588 Co 0.77019 0.52514 0.68604 0.0
N589 N 0.77763 0.54208 0.69667 0.0
C590 C 0.78879 0.56147 0.69725 0.0
C591 C 0.79092 0.57018 0.70539 0.0
C592 C 0.78068 0.55507 0.71027 0.0
C593 C 0.77303 0.53756 0.70482 0.0
N594 N 0.76114 0.49637 0.69307 0.0
C595 C 0.75872 0.4948 0.70159 0.0
C596 C 0.75304 0.47028 0.70387 0.0
C597 C 0.75203 0.45606 0.69654 0.0
C598 C 0.75718 0.47255 0.69019 0.0
N599 N 0.76262 0.50879 0.67532 0.0
C600 C 0.75833 0.48378 0.67431 0.0
C601 C 0.75306 0.47851 0.66619 0.0
C602 C 0.75416 0.50171 0.66185 0.0
C603 C 0.76008 0.51984 0.66759 0.0
N604 N 0.79139 0.50606 0.68532 0.0
C605 C 0.81918 0.47303 0.68422 0.0
C606 C 0.81233 0.48449 0.67692 0.0
C607 C 0.79865 0.50126 0.67762 0.0
C608 C 0.81218 0.47926 0.69209 0.0
C609 C 0.7983 0.49552 0.6925 0.0
N610 N 0.74886 0.54352 0.68675 0.0
C611 C 0.719 0.54183 0.68625 0.0
C612 C 0.7179 0.56867 0.68754 0.0
C613 C 0.73273 0.58272 0.68838 0.0
C614 C 0.74806 0.56977 0.68803 0.0
C615 C 0.73448 0.52975 0.68583 0.0
H616 H 0.75926 0.58096 0.68879 0.0
H617 H 0.73474 0.50916 0.68469 0.0
H618 H 0.79369 0.50978 0.67189 0.0
H619 H 0.79288 0.49884 0.69864 0.0
C620 C 0.79533 0.5732 0.68996 0.0
C621 C 0.76399 0.54703 0.66552 0.0
C622 C 0.76332 0.51501 0.70774 0.0
C623 C 0.75648 0.46755 0.68143 0.0
H624 H 0.78526 0.59127 0.66223 0.0
H625 H 0.80373 0.60433 0.67551 0.0
H626 H 0.79866 0.58605 0.70751 0.0
H627 H 0.77934 0.55643 0.71709 0.0
H628 H 0.75024 0.46323 0.7102 0.0
H629 H 0.74778 0.43622 0.69591 0.0
H630 H 0.74824 0.46034 0.66381 0.0
H631 H 0.75091 0.50492 0.65527 0.0
H632 H 0.81748 0.48047 0.67072 0.0
H633 H 0.81702 0.47081 0.6979 0.0
H634 H 0.70794 0.53018 0.68543 0.0
H635 H 0.7325 0.6035 0.68941 0.0
C636 C 0.50878 0.483 0.41734 0.0
C637 C 0.49998 0.49804 0.41158 0.0
C638 C 0.49465 0.51948 0.41589 0.0
C639 C 0.50043 0.51628 0.42402 0.0
N640 N 0.50943 0.49435 0.42512 0.0
Co641 Co 0.5187 0.4807 0.43612 0.0
N642 N 0.50878 0.51007 0.44277 0.0
C643 C 0.50057 0.53086 0.43957 0.0
C644 C 0.49481 0.54745 0.44568 0.0
C645 C 0.49958 0.53662 0.45323 0.0
C646 C 0.50809 0.51397 0.4513 0.0
N647 N 0.52749 0.46634 0.44708 0.0
C648 C 0.52514 0.47438 0.45518 0.0
C649 C 0.53378 0.4589 0.46093 0.0
C650 C 0.54144 0.44005 0.45633 0.0
C651 C 0.53721 0.44515 0.44808 0.0
N652 N 0.52892 0.45164 0.42948 0.0
C653 C 0.5392 0.43299 0.43247 0.0
C654 C 0.54409 0.41547 0.42644 0.0
C655 C 0.53625 0.42312 0.41919 0.0
C656 C 0.52693 0.44489 0.42124 0.0
N657 N 0.53936 0.50197 0.43459 0.0
C658 C 0.56776 0.53475 0.43386 0.0
C659 C 0.56898 0.50871 0.43645 0.0
C660 C 0.55479 0.49286 0.43677 0.0
C661 C 0.55208 0.54363 0.43144 0.0
C662 C 0.53838 0.5271 0.43172 0.0
N663 N 0.49811 0.46009 0.43767 0.0
C664 C 0.48365 0.41932 0.43984 0.0
C665 C 0.4683 0.43203 0.43954 0.0
C666 C 0.46819 0.45881 0.43826 0.0
C667 C 0.48302 0.47225 0.43728 0.0
C668 C 0.49838 0.43374 0.439 0.0
H669 H 0.48191 0.49253 0.43615 0.0
H670 H 0.50987 0.42334 0.43942 0.0
H671 H 0.55665 0.47339 0.43886 0.0
H672 H 0.52709 0.5355 0.42968 0.0
C673 C 0.49681 0.53259 0.43089 0.0
C674 C 0.51573 0.45758 0.41526 0.0
C675 C 0.5148 0.49631 0.45776 0.0
C676 C 0.54236 0.43058 0.44113 0.0
H677 H 0.49736 0.49365 0.405 0.0
H678 H 0.487 0.5351 0.41346 0.0
H679 H 0.48746 0.56483 0.44478 0.0
H680 H 0.49674 0.54426 0.45945 0.0
H681 H 0.5345 0.46096 0.46776 0.0
H682 H 0.54918 0.42448 0.45872 0.0
H683 H 0.55182 0.39849 0.42731 0.0
H684 H 0.53691 0.41331 0.41313 0.0
H685 H 0.58082 0.50042 0.43821 0.0
H686 H 0.55011 0.56358 0.42949 0.0
H687 H 0.48428 0.39851 0.44084 0.0
H688 H 0.45661 0.46941 0.43784 0.0
C689 C 0.26114 0.26783 0.41691 0.0
C690 C 0.26854 0.25165 0.41101 0.0
C691 C 0.2738 0.23015 0.41538 0.0
C692 C 0.26932 0.23437 0.42366 0.0
N693 N 0.26126 0.25713 0.42482 0.0
Co694 Co 0.2534 0.27189 0.43589 0.0
N695 N 0.26442 0.2434 0.4426 0.0
C696 C 0.27309 0.22311 0.43943 0.0
C697 C 0.27996 0.20751 0.44556 0.0
C698 C 0.27552 0.21854 0.4531 0.0
C699 C 0.26602 0.24024 0.45114 0.0
N700 N 0.24533 0.28664 0.44689 0.0
C701 C 0.24795 0.27864 0.455 0.0
C702 C 0.23899 0.29352 0.46074 0.0
C703 C 0.23082 0.31195 0.45614 0.0
C704 C 0.23504 0.30713 0.44788 0.0
N705 N 0.24286 0.30083 0.42924 0.0
C706 C 0.23346 0.32038 0.43233 0.0
C707 C 0.22879 0.33828 0.42633 0.0
C708 C 0.23594 0.33003 0.41898 0.0
C709 C 0.24455 0.30742 0.42095 0.0
N710 N 0.23264 0.2505 0.43511 0.0
C711 C 0.2039 0.21871 0.43529 0.0
C712 C 0.20265 0.24576 0.43581 0.0
C713 C 0.21707 0.26116 0.43576 0.0
C714 C 0.21965 0.20804 0.43436 0.0
C715 C 0.23359 0.22404 0.43419 0.0
N716 N 0.27408 0.29264 0.43669 0.0
C717 C 0.28889 0.33273 0.43942 0.0
C718 C 0.30402 0.32105 0.43725 0.0
C719 C 0.30379 0.29487 0.435 0.0
C720 C 0.28892 0.2813 0.43472 0.0
C721 C 0.2741 0.31822 0.43909 0.0
H722 H 0.28979 0.26156 0.43286 0.0
H723 H 0.26279 0.32793 0.44074 0.0
H724 H 0.21526 0.28156 0.43633 0.0
H725 H 0.24497 0.21424 0.43336 0.0
C726 C 0.27476 0.21957 0.43063 0.0
C727 C 0.2548 0.29366 0.41481 0.0
C728 C 0.25893 0.25743 0.45758 0.0
C729 C 0.23013 0.32225 0.44097 0.0
H730 H 0.2704 0.25543 0.40431 0.0
H731 H 0.28088 0.21403 0.41288 0.0
H732 H 0.28749 0.19034 0.44466 0.0
H733 H 0.27902 0.2115 0.45933 0.0
H734 H 0.23843 0.29143 0.46758 0.0
H735 H 0.22289 0.3272 0.45854 0.0
H736 H 0.22155 0.35575 0.42726 0.0
H737 H 0.23525 0.33993 0.41292 0.0
H738 H 0.19066 0.25497 0.43648 0.0
H739 H 0.22126 0.18724 0.4337 0.0
H740 H 0.2884 0.35299 0.44122 0.0
H741 H 0.31513 0.28459 0.4335 0.0
C742 C 0.50969 0.27134 0.33884 0.0
C743 C 0.50128 0.25608 0.3447 0.0
C744 C 0.49591 0.2346 0.34044 0.0
C745 C 0.50129 0.23796 0.33224 0.0
N746 N 0.51008 0.26007 0.33105 0.0
Co747 Co 0.51878 0.27392 0.31996 0.0
N748 N 0.50899 0.24419 0.31343 0.0
C749 C 0.50119 0.22315 0.31672 0.0
C750 C 0.49587 0.20594 0.31069 0.0
C751 C 0.50055 0.21659 0.30309 0.0
C752 C 0.50848 0.2398 0.30493 0.0
N753 N 0.52693 0.2885 0.30889 0.0
C754 C 0.52437 0.28032 0.30082 0.0
C755 C 0.53211 0.29649 0.29495 0.0
C756 C 0.53961 0.31573 0.29944 0.0
C757 C 0.5361 0.31023 0.30776 0.0
N758 N 0.52894 0.30329 0.32648 0.0
C759 C 0.53874 0.32237 0.32335 0.0
C760 C 0.54362 0.34013 0.32929 0.0
C761 C 0.53634 0.33215 0.33666 0.0
C762 C 0.52739 0.30987 0.33477 0.0
N763 N 0.53971 0.25328 0.32126 0.0
C764 C 0.56816 0.22102 0.32118 0.0
C765 C 0.56917 0.24711 0.31872 0.0
C766 C 0.55488 0.26276 0.31877 0.0
C767 C 0.55295 0.21182 0.32409 0.0
C768 C 0.53915 0.22816 0.3242 0.0
N769 N 0.49789 0.29392 0.31862 0.0
C770 C 0.48291 0.33422 0.31645 0.0
C771 C 0.4677 0.32114 0.31696 0.0
C772 C 0.46795 0.2944 0.31836 0.0
C773 C 0.48297 0.28137 0.3192 0.0
C774 C 0.49781 0.32024 0.31721 0.0
H775 H 0.48213 0.26108 0.32037 0.0
H776 H 0.50914 0.33096 0.31665 0.0
H777 H 0.55639 0.28228 0.31664 0.0
H778 H 0.52815 0.2197 0.32661 0.0
C779 C 0.49769 0.22141 0.32543 0.0
C780 C 0.51683 0.29662 0.34093 0.0
C781 C 0.51487 0.25739 0.2984 0.0
C782 C 0.54138 0.32494 0.31465 0.0
H783 H 0.49905 0.26031 0.35133 0.0
H784 H 0.48857 0.21875 0.34296 0.0
H785 H 0.489 0.18812 0.31167 0.0
H786 H 0.49815 0.20844 0.29689 0.0
H787 H 0.53236 0.29458 0.2881 0.0
H788 H 0.54678 0.33182 0.29694 0.0
H789 H 0.55095 0.35749 0.3283 0.0
H790 H 0.5371 0.34214 0.34268 0.0
H791 H 0.58081 0.25518 0.31651 0.0
H792 H 0.55166 0.19195 0.32629 0.0
H793 H 0.4833 0.35499 0.31535 0.0
H794 H 0.45652 0.28349 0.31896 0.0
C795 C 0.26242 0.48415 0.3391 0.0
C796 C 0.2711 0.49909 0.34489 0.0
C797 C 0.27633 0.52076 0.34062 0.0
C798 C 0.27064 0.51778 0.33247 0.0
N799 N 0.26174 0.49579 0.33133 0.0
Co800 Co 0.25285 0.48222 0.32028 0.0
N801 N 0.26257 0.51204 0.3137 0.0
C802 C 0.2703 0.5331 0.31696 0.0
C803 C 0.27553 0.55044 0.31089 0.0
C804 C 0.27086 0.53984 0.30331 0.0
C805 C 0.26302 0.51653 0.3052 0.0
N806 N 0.24461 0.46777 0.30926 0.0
C807 C 0.24721 0.47595 0.30118 0.0
C808 C 0.23945 0.45983 0.29534 0.0
C809 C 0.23187 0.44064 0.29989 0.0
C810 C 0.23538 0.44611 0.30819 0.0
N811 N 0.24267 0.45285 0.32686 0.0
C812 C 0.23254 0.43418 0.32382 0.0
C813 C 0.22756 0.41652 0.32983 0.0
C814 C 0.23519 0.42411 0.33714 0.0
C815 C 0.24448 0.44599 0.33512 0.0
N816 N 0.23196 0.50294 0.32163 0.0
C817 C 0.20338 0.53532 0.32219 0.0
C818 C 0.2025 0.50972 0.31919 0.0
C819 C 0.21679 0.49406 0.31896 0.0
C820 C 0.21879 0.54392 0.32509 0.0
C821 C 0.23257 0.52759 0.32488 0.0
N822 N 0.27368 0.46214 0.31895 0.0
C823 C 0.28866 0.42156 0.31757 0.0
C824 C 0.30388 0.43446 0.31843 0.0
C825 C 0.30361 0.46145 0.3192 0.0
C826 C 0.28861 0.47469 0.31946 0.0
C827 C 0.27375 0.43573 0.31783 0.0
H828 H 0.28945 0.49515 0.3202 0.0
H829 H 0.2624 0.42507 0.31724 0.0
H830 H 0.21524 0.47492 0.31653 0.0
H831 H 0.24362 0.53577 0.32729 0.0
C832 C 0.27404 0.53456 0.32565 0.0
C833 C 0.25559 0.45856 0.34113 0.0
C834 C 0.25669 0.49892 0.2987 0.0
C835 C 0.2299 0.43159 0.31513 0.0
H836 H 0.27368 0.49448 0.35148 0.0
H837 H 0.28384 0.53643 0.34309 0.0
H838 H 0.28239 0.56825 0.31184 0.0
H839 H 0.27323 0.54807 0.29709 0.0
H840 H 0.2392 0.46177 0.28849 0.0
H841 H 0.22463 0.42465 0.29743 0.0
H842 H 0.21998 0.3994 0.32892 0.0
H843 H 0.23446 0.41415 0.34319 0.0
H844 H 0.19087 0.50166 0.31702 0.0
H845 H 0.2205 0.56355 0.32736 0.0
H846 H 0.28821 0.40064 0.3169 0.0
H847 H 0.31499 0.47252 0.3196 0.0
C848 C 0.99296 0.06405 0.584 0.0
C849 C 0.98356 0.0861 0.58563 0.0
C850 C 0.97459 0.09117 0.57843 0.0
C851 C 0.9791 0.07222 0.57278 0.0
N852 N 0.99039 0.05562 0.57598 0.0
Co853 Co 1.00081 0.02627 0.56987 0.0
N854 N 0.9947 0.04126 0.55869 0.0
C855 C 0.98291 0.05931 0.55731 0.0
C856 C 0.98102 0.06551 0.54889 0.0
C857 C 0.99221 0.05024 0.54469 0.0
C858 C 1.00037 0.03551 0.55083 0.0
N859 N 0.01111 0.99679 0.56374 0.0
C860 C 0.01534 0.99461 0.55543 0.0
C861 C 0.02193 0.97023 0.5538 0.0
C862 C 0.02153 0.95667 0.56133 0.0
C863 C 0.01478 0.97346 0.56714 0.0
N864 N 1.0068 0.01157 0.58111 0.0
C865 C 0.01084 0.98669 0.58271 0.0
C866 C 0.01456 0.98242 0.59112 0.0
C867 C 0.01269 0.00611 0.59502 0.0
C868 C 1.00795 0.02355 0.58874 0.0
N869 N 0.97967 0.00694 0.57016 0.0
C870 C 0.95155 0.97408 0.57092 0.0
C871 C 0.95638 0.98923 0.57793 0.0
C872 C 0.97044 0.00534 0.57744 0.0
C873 C 0.961 0.97663 0.56346 0.0
C874 C 0.97471 0.99325 0.56318 0.0
N875 N 0.0221 0.04487 0.56959 0.0
C876 C 0.05176 0.04376 0.57141 0.0
C877 C 0.0531 0.07031 0.56947 0.0
C878 C 0.03839 0.08376 0.5675 0.0
C879 C 0.02306 0.0707 0.56756 0.0
C880 C 0.0363 0.03161 0.57149 0.0
H881 H 0.01199 0.08148 0.56602 0.0
H882 H 0.03591 0.01128 0.57311 0.0
H883 H 0.97402 0.01613 0.583 0.0
H884 H 0.98159 0.99432 0.55734 0.0
C885 C 0.97567 0.07255 0.56409 0.0
C886 C 1.00355 0.05085 0.59027 0.0
C887 C 0.01197 0.01438 0.54887 0.0
C888 C 0.01396 0.96955 0.57598 0.0
H889 H 0.98325 0.09755 0.59137 0.0
H890 H 0.96646 0.10756 0.5773 0.0
H891 H 0.97279 0.07987 0.54614 0.0
H892 H 0.99388 0.04968 0.53788 0.0
H893 H 0.02638 0.96291 0.54779 0.0
H894 H 0.02606 0.93718 0.56247 0.0
H895 H 0.01884 0.96454 0.59402 0.0
H896 H 0.01456 0.01011 0.60169 0.0
H897 H 0.94944 0.98871 0.58381 0.0
H898 H 0.95825 0.96531 0.55787 0.0
H899 H 0.06263 0.03214 0.57277 0.0
H900 H 0.03861 0.10431 0.56602 0.0
C901 C 0.27583 0.19417 0.58546 0.0
C902 C 0.28544 0.17329 0.58812 0.0
C903 C 0.29536 0.16678 0.58139 0.0
C904 C 0.29129 0.18403 0.57505 0.0
N905 N 0.27948 0.20098 0.57738 0.0
Co906 Co 0.27003 0.22915 0.57028 0.0
N907 N 0.27752 0.21202 0.5597 0.0
C908 C 0.28884 0.19284 0.55916 0.0
C909 C 0.291 0.18396 0.55104 0.0
C910 C 0.2806 0.19872 0.54614 0.0
C911 C 0.27282 0.21619 0.55155 0.0
N912 N 0.26089 0.25766 0.56318 0.0
C913 C 0.25828 0.25882 0.55467 0.0
C914 C 0.25248 0.28321 0.55231 0.0
C915 C 0.2516 0.29774 0.55958 0.0
C916 C 0.25692 0.28156 0.56598 0.0
N917 N 0.26245 0.24573 0.58095 0.0
C918 C 0.25816 0.27077 0.5819 0.0
C919 C 0.25289 0.2762 0.59001 0.0
C920 C 0.25399 0.2531 0.5944 0.0
C921 C 0.25991 0.23485 0.58871 0.0
N922 N 0.29118 0.24838 0.57095 0.0
C923 C 0.31896 0.28153 0.57198 0.0
C924 C 0.31224 0.26985 0.57929 0.0
C925 C 0.29856 0.25309 0.57862 0.0
C926 C 0.3118 0.27543 0.56413 0.0
C927 C 0.29795 0.25907 0.56376 0.0
N928 N 0.24874 0.21065 0.56962 0.0
C929 C 0.21887 0.21226 0.57011 0.0
C930 C 0.2178 0.18541 0.56883 0.0
C931 C 0.23265 0.17138 0.56802 0.0
C932 C 0.24797 0.18438 0.56836 0.0
C933 C 0.23433 0.22437 0.57054 0.0
H934 H 0.25919 0.17322 0.56762 0.0
H935 H 0.23457 0.24497 0.57165 0.0
H936 H 0.29367 0.24449 0.58436 0.0
H937 H 0.29245 0.25578 0.55763 0.0
C938 C 0.29541 0.18132 0.56648 0.0
C939 C 0.26381 0.20768 0.59083 0.0
C940 C 0.26275 0.23831 0.5486 0.0
C941 C 0.25626 0.28682 0.57473 0.0
H942 H 0.28519 0.16364 0.59424 0.0
H943 H 0.30381 0.15049 0.58102 0.0
H944 H 0.29884 0.16816 0.54896 0.0
H945 H 0.27921 0.1971 0.53933 0.0
H946 H 0.24951 0.28994 0.54597 0.0
H947 H 0.24727 0.31755 0.56015 0.0
H948 H 0.24806 0.29443 0.59235 0.0
H949 H 0.25074 0.25003 0.60099 0.0
H950 H 0.3175 0.27368 0.58548 0.0
H951 H 0.31648 0.28404 0.55832 0.0
H952 H 0.2078 0.22389 0.57092 0.0
H953 H 0.23244 0.1506 0.567 0.0
C954 C 0.9931 0.19217 0.67212 0.0
C955 C 0.98365 0.17028 0.67034 0.0
C956 C 0.97437 0.16517 0.67744 0.0
C957 C 0.97875 0.18394 0.68317 0.0
N958 N 0.99026 0.20047 0.68013 0.0
Co959 Co 1.00045 0.22966 0.6864 0.0
N960 N 0.99384 0.21453 0.69749 0.0
C961 C 0.98198 0.1965 0.69872 0.0
C962 C 0.97982 0.1901 0.70711 0.0
C963 C 0.99091 0.20521 0.71143 0.0
C964 C 0.99928 0.22004 0.7054 0.0
N965 N 1.01039 0.25909 0.69269 0.0
C966 C 0.01425 0.26115 0.70104 0.0
C967 C 0.02079 0.28549 0.70278 0.0
C968 C 0.02071 0.29916 0.69527 0.0
C969 C 0.01422 0.28246 0.68936 0.0
N970 N 1.00712 0.2444 0.67526 0.0
C971 C 0.01133 0.26926 0.67374 0.0
C972 C 0.01549 0.27358 0.66538 0.0
C973 C 0.01372 0.24996 0.66144 0.0
C974 C 1.0086 0.23248 0.66763 0.0
N975 N 0.97937 0.24906 0.68584 0.0
C976 C 0.95152 0.28205 0.6848 0.0
C977 C 0.95742 0.26889 0.67762 0.0
C978 C 0.97117 0.25226 0.67829 0.0
C979 C 0.95956 0.27758 0.69256 0.0
C980 C 0.97343 0.26127 0.69293 0.0
N981 N 0.02168 0.21098 0.68696 0.0
C982 C 0.05148 0.21207 0.68581 0.0
C983 C 0.05254 0.18557 0.68776 0.0
C984 C 0.03772 0.17194 0.68923 0.0
C985 C 0.02243 0.18505 0.68887 0.0
C986 C 0.03605 0.22426 0.68538 0.0
H987 H 0.01124 0.17426 0.69016 0.0
H988 H 0.03579 0.24459 0.68375 0.0
H989 H 0.97543 0.2425 0.67265 0.0
H990 H 0.97963 0.25921 0.69895 0.0
C991 C 0.97497 0.18346 0.69183 0.0
C992 C 1.00401 0.20532 0.66599 0.0
C993 C 0.01083 0.24111 0.70751 0.0
C994 C 0.01399 0.28638 0.68052 0.0
H995 H 0.98351 0.15897 0.66457 0.0
H996 H 0.96612 0.14887 0.67845 0.0
H997 H 0.97148 0.17571 0.70975 0.0
H998 H 0.99237 0.20561 0.71826 0.0
H999 H 0.02506 0.29269 0.70885 0.0
H1000 H 0.02536 0.31862 0.6942 0.0
H1001 H 0.01992 0.29148 0.66255 0.0
H1002 H 0.01587 0.24604 0.65478 0.0
H1003 H 0.95147 0.27146 0.67151 0.0
H1004 H 0.95553 0.28738 0.69827 0.0
H1005 H 0.06253 0.22333 0.68449 0.0
H1006 H 0.03795 0.15144 0.6908 0.0
C1007 C 0.27587 0.06111 0.67154 0.0
C1008 C 0.28589 0.08206 0.66941 0.0
C1009 C 0.29547 0.08716 0.6764 0.0
C1010 C 0.29081 0.06905 0.68238 0.0
N1011 N 0.27892 0.05297 0.67955 0.0
Co1012 Co 0.26862 0.02414 0.686 0.0
N1013 N 0.27536 0.03958 0.69696 0.0
C1014 C 0.28745 0.05733 0.69803 0.0
C1015 C 0.28979 0.0639 0.70638 0.0
C1016 C 0.2786 0.04918 0.71083 0.0
C1017 C 0.27 0.03437 0.70493 0.0
N1018 N 0.25844 0.99514 0.69248 0.0
C1019 C 0.25455 0.99347 0.70084 0.0
C1020 C 0.24784 0.9693 0.70274 0.0
C1021 C 0.24784 0.95535 0.69532 0.0
C1022 C 0.25447 0.97171 0.68929 0.0
N1023 N 0.26202 0.00906 0.67496 0.0
C1024 C 0.2577 0.98422 0.67358 0.0
C1025 C 0.25315 0.97994 0.66528 0.0
C1026 C 0.25475 0.00358 0.66124 0.0
C1027 C 0.26025 0.02099 0.66732 0.0
N1028 N 0.28961 0.00448 0.68561 0.0
C1029 C 0.31766 0.97149 0.68483 0.0
C1030 C 0.31256 0.98627 0.67774 0.0
C1031 C 0.29853 0.00243 0.67825 0.0
C1032 C 0.30849 0.9744 0.69236 0.0
C1033 C 0.29483 0.99108 0.69264 0.0
N1034 N 0.24749 0.0431 0.68639 0.0
C1035 C 0.21775 0.04236 0.68495 0.0
C1036 C 0.21668 0.06906 0.68661 0.0
C1037 C 0.23156 0.0824 0.68826 0.0
C1038 C 0.24679 0.06907 0.68816 0.0
C1039 C 0.23311 0.02994 0.6848 0.0
H1040 H 0.25801 0.07976 0.68945 0.0
H1041 H 0.23329 0.00952 0.68338 0.0
H1042 H 0.29473 0.01295 0.67263 0.0
H1043 H 0.28818 0.99249 0.69855 0.0
C1044 C 0.29467 0.06982 0.69103 0.0
C1045 C 0.26429 0.04846 0.66571 0.0
C1046 C 0.25832 0.01355 0.70719 0.0
C1047 C 0.25481 0.96742 0.68048 0.0
H1048 H 0.2862 0.09257 0.66344 0.0
H1049 H 0.30418 0.10297 0.67717 0.0
H1050 H 0.29834 0.07809 0.70891 0.0
H1051 H 0.27725 0.04896 0.71767 0.0
H1052 H 0.24356 0.96236 0.70885 0.0
H1053 H 0.24309 0.93591 0.69438 0.0
H1054 H 0.24835 0.96215 0.66259 0.0
H1055 H 0.25201 0.00755 0.65464 0.0
H1056 H 0.31927 0.98544 0.6718 0.0
H1057 H 0.31145 0.96336 0.69801 0.0
H1058 H 0.20675 0.03082 0.68384 0.0
H1059 H 0.23154 0.10306 0.68952 0.0
C1060 C 1.01036 0.98096 0.41746 0.0
C1061 C 1.00194 0.99575 0.41147 0.0
C1062 C 0.99624 0.0173 0.41558 0.0
C1063 C 1.00147 0.01449 0.42382 0.0
N1064 N 0.01044 0.99265 0.42519 0.0
Co1065 Co 0.01924 0.97992 0.4364 0.0
N1066 N 1.00941 0.0102 0.44264 0.0
C1067 C 1.00166 0.03096 0.43915 0.0
C1068 C 0.9963 0.04868 0.44503 0.0
C1069 C 1.00088 0.03863 0.45272 0.0
C1070 C 1.00878 0.01525 0.4511 0.0
N1071 N 0.02737 0.96639 0.44762 0.0
C1072 C 0.02468 0.97516 0.4556 0.0
C1073 C 0.03237 0.95951 0.46164 0.0
C1074 C 0.03998 0.93997 0.45734 0.0
C1075 C 0.03655 0.94479 0.44897 0.0
N1076 N 0.02952 0.95006 0.43016 0.0
C1077 C 0.03927 0.93127 0.43352 0.0
C1078 C 0.04402 0.91273 0.42782 0.0
C1079 C 0.0368 0.91992 0.42037 0.0
C1080 C 0.0281 0.94273 0.42193 0.0
N1081 N 0.04011 1.00055 0.43487 0.0
C1082 C 0.06866 0.03288 0.43415 0.0
C1083 C 0.0695 0.00751 0.4374 0.0
C1084 C 0.05523 0.99182 0.43769 0.0
C1085 C 0.05334 0.04127 0.43105 0.0
C1086 C 0.03954 0.02496 0.43137 0.0
N1087 N 0.99839 0.95991 0.43794 0.0
C1088 C 0.98347 0.9196 0.44022 0.0
C1089 C 0.96824 0.93259 0.43969 0.0
C1090 C 0.96844 0.95933 0.43827 0.0
C1091 C 0.98343 0.97241 0.43738 0.0
C1092 C 0.99835 0.93363 0.43942 0.0
H1093 H 0.98255 0.99268 0.43618 0.0
H1094 H 1.00969 0.92295 0.44001 0.0
H1095 H 0.05674 0.97279 0.44028 0.0
H1096 H 0.02851 0.03294 0.42883 0.0
C1097 C 0.998 0.03175 0.43045 0.0
C1098 C 0.01804 0.95593 0.4155 0.0
C1099 C 0.01499 0.99809 0.4578 0.0
C1100 C 0.04187 0.92954 0.44223 0.0
H1101 H 1.00001 0.99128 0.40483 0.0
H1102 H 0.98895 0.03297 0.41291 0.0
H1103 H 0.9894 0.06637 0.44387 0.0
H1104 H 0.99839 0.04725 0.45885 0.0
H1105 H 0.03248 0.96193 0.46847 0.0
H1106 H 0.04712 0.92409 0.46 0.0
H1107 H 0.05118 0.89533 0.42905 0.0
H1108 H 0.03747 0.90894 0.41454 0.0
H1109 H 0.0811 0.99965 0.43972 0.0
H1110 H 0.05171 0.06072 0.42855 0.0
H1111 H 0.9839 0.89884 0.44135 0.0
H1112 H 0.95699 0.97018 0.43767 0.0
C1113 C 0.76215 0.76958 0.41727 0.0
C1114 C 0.77054 0.75422 0.41147 0.0
C1115 C 0.77567 0.73258 0.4158 0.0
C1116 C 0.77021 0.73598 0.42397 0.0
N1117 N 0.76156 0.75823 0.42508 0.0
Co1118 Co 0.75301 0.77237 0.43613 0.0
N1119 N 0.76271 0.74265 0.44277 0.0
C1120 C 0.77034 0.72143 0.43956 0.0
C1121 C 0.7756 0.70425 0.44567 0.0
C1122 C 0.77106 0.71512 0.45323 0.0
C1123 C 0.76326 0.73842 0.45129 0.0
N1124 N 0.74504 0.78729 0.44714 0.0
C1125 C 0.74763 0.77925 0.45524 0.0
C1126 C 0.74 0.79562 0.46105 0.0
C1127 C 0.73252 0.81482 0.45647 0.0
C1128 C 0.73593 0.80911 0.44817 0.0
N1129 N 0.74294 0.80172 0.4295 0.0
C1130 C 0.73307 0.82077 0.43252 0.0
C1131 C 0.72818 0.83838 0.42648 0.0
C1132 C 0.73559 0.83036 0.41916 0.0
C1133 C 0.74468 0.8083 0.42121 0.0
N1134 N 0.73196 0.75192 0.43497 0.0
C1135 C 0.70336 0.71997 0.43511 0.0
C1136 C 0.70249 0.74599 0.43759 0.0
C1137 C 0.71686 0.76148 0.43751 0.0
C1138 C 0.71851 0.71068 0.43218 0.0
C1139 C 0.73238 0.72686 0.43205 0.0
N1140 N 0.774 0.79217 0.43729 0.0
C1141 C 0.78921 0.8325 0.43878 0.0
C1142 C 0.80436 0.81945 0.43781 0.0
C1143 C 0.80392 0.79251 0.43688 0.0
C1144 C 0.78884 0.77947 0.43662 0.0
C1145 C 0.77423 0.81853 0.43851 0.0
H1146 H 0.78956 0.75904 0.43578 0.0
H1147 H 0.76295 0.82932 0.4392 0.0
H1148 H 0.71545 0.78095 0.43965 0.0
H1149 H 0.74331 0.7183 0.42963 0.0
C1150 C 0.77376 0.7195 0.43085 0.0
C1151 C 0.75555 0.79528 0.41519 0.0
C1152 C 0.757 0.75622 0.45775 0.0
C1153 C 0.73054 0.82362 0.44121 0.0
H1154 H 0.77301 0.75854 0.40486 0.0
H1155 H 0.78299 0.71668 0.41334 0.0
H1156 H 0.78235 0.68631 0.44476 0.0
H1157 H 0.77346 0.70704 0.45946 0.0
H1158 H 0.73979 0.79385 0.4679 0.0
H1159 H 0.7254 0.83099 0.4589 0.0
H1160 H 0.72079 0.85571 0.42737 0.0
H1161 H 0.73486 0.84016 0.41308 0.0
H1162 H 0.69091 0.75414 0.43982 0.0
H1163 H 0.71969 0.69085 0.42998 0.0
H1164 H 0.78887 0.85338 0.43955 0.0
H1165 H 0.81524 0.7813 0.43637 0.0
C1166 C 0.01073 0.77205 0.33855 0.0
C1167 C 1.00269 0.75672 0.34453 0.0
C1168 C 0.99705 0.73527 0.34035 0.0
C1169 C 1.00195 0.73866 0.33208 0.0
N1170 N 0.01064 0.7608 0.33075 0.0
Co1171 Co 0.01906 0.77427 0.31956 0.0
N1172 N 1.00914 0.74425 0.31321 0.0
C1173 C 1.00127 0.72345 0.31661 0.0
C1174 C 0.99582 0.70601 0.31068 0.0
C1175 C 1.00046 0.71627 0.30302 0.0
C1176 C 1.0085 0.73948 0.30473 0.0
N1177 N 0.02703 0.78833 0.30838 0.0
C1178 C 0.02448 0.77965 0.30037 0.0
C1179 C 0.03219 0.79546 0.29438 0.0
C1180 C 0.03966 0.81501 0.29874 0.0
C1181 C 0.03617 0.81 0.30709 0.0
N1182 N 0.02925 0.80405 0.32588 0.0
C1183 C 0.03864 0.82334 0.32256 0.0
C1184 C 0.04325 0.84181 0.32831 0.0
C1185 C 0.03628 0.83407 0.33577 0.0
C1186 C 0.02787 0.81102 0.33416 0.0
N1187 N 0.04004 0.75381 0.32085 0.0
C1188 C 0.0686 0.72184 0.32075 0.0
C1189 C 0.06957 0.74805 0.31843 0.0
C1190 C 0.05521 0.76357 0.31849 0.0
C1191 C 0.05337 0.71236 0.32353 0.0
C1192 C 0.03951 0.72855 0.32366 0.0
N1193 N 0.99809 0.79414 0.31822 0.0
C1194 C 0.983 0.8342 0.31577 0.0
C1195 C 0.96783 0.82117 0.31654 0.0
C1196 C 0.96813 0.79457 0.31821 0.0
C1197 C 0.98319 0.78164 0.31906 0.0
C1198 C 0.99793 0.82031 0.31654 0.0
H1199 H 0.9824 0.76148 0.32044 0.0
H1200 H 1.00921 0.83101 0.31576 0.0
H1201 H 0.05666 0.78324 0.31648 0.0
H1202 H 0.0285 0.71988 0.32595 0.0
C1203 C 0.99805 0.72197 0.32535 0.0
C1204 C 0.01813 0.79723 0.34058 0.0
C1205 C 0.01492 0.75666 0.29809 0.0
C1206 C 0.04127 0.82531 0.31385 0.0
H1207 H 1.00092 0.7608 0.35121 0.0
H1208 H 0.98992 0.71936 0.34299 0.0
H1209 H 0.98894 0.68826 0.31177 0.0
H1210 H 0.998 0.70784 0.29686 0.0
H1211 H 0.03239 0.79316 0.28755 0.0
H1212 H 0.04675 0.83101 0.29613 0.0
H1213 H 0.05018 0.85946 0.32714 0.0
H1214 H 0.03691 0.8448 0.34165 0.0
H1215 H 0.08122 0.75634 0.31634 0.0
H1216 H 0.05211 0.69236 0.32561 0.0
H1217 H 0.98333 0.85486 0.31446 0.0
H1218 H 0.95673 0.78371 0.31901 0.0
C1219 C 0.76247 0.98486 0.33917 0.0
C1220 C 0.77106 0.99995 0.34496 0.0
C1221 C 0.77643 0.02145 0.34064 0.0
C1222 C 0.77087 0.01825 0.33248 0.0
N1223 N 0.76196 0.99625 0.33137 0.0
Co1224 Co 0.75306 0.98254 0.32034 0.0
N1225 N 0.76282 0.01227 0.31372 0.0
C1226 C 0.77069 0.03327 0.31694 0.0
C1227 C 0.77595 0.0505 0.31084 0.0
C1228 C 0.77118 0.03989 0.30328 0.0
C1229 C 0.76325 0.01669 0.3052 0.0
N1230 N 0.74476 0.96805 0.30933 0.0
C1231 C 0.74727 0.97623 0.30124 0.0
C1232 C 0.73944 0.96012 0.29542 0.0
C1233 C 0.73192 0.94092 0.29999 0.0
C1234 C 0.73552 0.94638 0.30828 0.0
N1235 N 0.7429 0.95321 0.32695 0.0
C1236 C 0.73295 0.93429 0.32391 0.0
C1237 C 0.72806 0.91656 0.32992 0.0
C1238 C 0.73551 0.92439 0.33723 0.0
C1239 C 0.74457 0.94654 0.33524 0.0
N1240 N 0.73219 0.00328 0.32169 0.0
C1241 C 0.70353 0.03545 0.3223 0.0
C1242 C 0.70262 0.00964 0.31951 0.0
C1243 C 0.71695 0.99407 0.31924 0.0
C1244 C 0.71904 0.04441 0.32495 0.0
C1245 C 0.73286 0.02817 0.32472 0.0
N1246 N 0.77389 0.96241 0.319 0.0
C1247 C 0.78884 0.92183 0.31752 0.0
C1248 C 0.80408 0.93468 0.3184 0.0
C1249 C 0.80382 0.96164 0.31925 0.0
C1250 C 0.78883 0.9749 0.31956 0.0
C1251 C 0.77395 0.93603 0.31782 0.0
H1252 H 0.7897 0.99533 0.32035 0.0
H1253 H 0.76259 0.92539 0.31719 0.0
H1254 H 0.71538 0.97474 0.31699 0.0
H1255 H 0.74399 0.03659 0.32693 0.0
C1256 C 0.77438 0.03487 0.32562 0.0
C1257 C 0.75534 0.95957 0.34131 0.0
C1258 C 0.75679 0.99911 0.29873 0.0
C1259 C 0.73022 0.93174 0.31522 0.0
H1260 H 0.77343 0.99559 0.35158 0.0
H1261 H 0.78389 0.03719 0.3431 0.0
H1262 H 0.78287 0.06827 0.31176 0.0
H1263 H 0.77352 0.04805 0.29705 0.0
H1264 H 0.73914 0.96204 0.28858 0.0
H1265 H 0.72468 0.92489 0.29755 0.0
H1266 H 0.72064 0.89929 0.329 0.0
H1267 H 0.73481 0.91439 0.34328 0.0
H1268 H 0.69092 1.00132 0.31754 0.0
H1269 H 0.72078 0.06422 0.32704 0.0
H1270 H 0.78837 0.90094 0.31679 0.0
H1271 H 0.81521 0.9727 0.31967 0.0
C1272 C 0.99282 0.56306 0.08365 0.0
C1273 C 0.98333 0.58499 0.08531 0.0
C1274 C 0.97427 0.58996 0.07813 0.0
C1275 C 0.97881 0.57107 0.07247 0.0
N1276 N 0.99022 0.5546 0.07564 0.0
Co1277 Co 1.00067 0.52533 0.06951 0.0
N1278 N 0.99437 0.54021 0.05834 0.0
C1279 C 0.98247 0.5581 0.05699 0.0
C1280 C 0.98048 0.56426 0.04857 0.0
C1281 C 0.99172 0.54914 0.04435 0.0
C1282 C 1.00001 0.53453 0.05047 0.0
N1283 N 0.01101 0.49593 0.06336 0.0
C1284 C 0.01522 0.49382 0.05505 0.0
C1285 C 0.02193 0.46952 0.0534 0.0
C1286 C 0.02161 0.45594 0.06093 0.0
C1287 C 0.01481 0.47263 0.06675 0.0
N1288 N 1.00686 0.51071 0.08073 0.0
C1289 C 0.011 0.48586 0.08232 0.0
C1290 C 0.01479 0.48161 0.09073 0.0
C1291 C 0.01285 0.50528 0.09462 0.0
C1292 C 1.00801 0.52269 0.08835 0.0
N1293 N 0.97964 0.50586 0.06988 0.0
C1294 C 0.95157 0.47301 0.07071 0.0
C1295 C 0.95644 0.48819 0.07771 0.0
C1296 C 0.97048 0.50429 0.07717 0.0
C1297 C 0.96096 0.47548 0.06324 0.0
C1298 C 0.97464 0.49211 0.06292 0.0
N1299 N 0.02184 0.54411 0.06913 0.0
C1300 C 0.05159 0.54315 0.07052 0.0
C1301 C 0.05267 0.5695 0.06837 0.0
C1302 C 0.03789 0.58304 0.06672 0.0
C1303 C 0.02262 0.56993 0.06706 0.0
C1304 C 0.03616 0.53096 0.07092 0.0
H1305 H 0.01145 0.5806 0.06562 0.0
H1306 H 0.03588 0.51074 0.07268 0.0
H1307 H 0.97409 0.51512 0.08273 0.0
H1308 H 0.98148 0.49316 0.05705 0.0
C1309 C 0.97527 0.5713 0.06379 0.0
C1310 C 1.00347 0.54993 0.0899 0.0
C1311 C 0.01175 0.51359 0.0485 0.0
C1312 C 0.0141 0.46874 0.07559 0.0
H1313 H 0.983 0.59639 0.09106 0.0
H1314 H 0.96603 0.60623 0.07702 0.0
H1315 H 0.97217 0.57852 0.04583 0.0
H1316 H 0.99335 0.54859 0.03754 0.0
H1317 H 0.0264 0.46227 0.04738 0.0
H1318 H 0.02626 0.43651 0.06206 0.0
H1319 H 0.01914 0.46376 0.09362 0.0
H1320 H 0.01474 0.50927 0.1013 0.0
H1321 H 0.94953 0.48768 0.0836 0.0
H1322 H 0.95816 0.46411 0.05766 0.0
H1323 H 0.06262 0.53201 0.07198 0.0
H1324 H 0.03816 0.60344 0.06502 0.0
C1325 C 0.27585 0.69303 0.0847 0.0
C1326 C 0.28582 0.67205 0.08687 0.0
C1327 C 0.29542 0.66681 0.07989 0.0
C1328 C 0.29082 0.68485 0.07389 0.0
N1329 N 0.27894 0.70104 0.07667 0.0
Co1330 Co 0.26877 0.72985 0.07017 0.0
N1331 N 0.27561 0.71429 0.05924 0.0
C1332 C 0.28767 0.69648 0.05822 0.0
C1333 C 0.29008 0.68982 0.04988 0.0
C1334 C 0.27896 0.70455 0.04538 0.0
C1335 C 0.27032 0.71945 0.05125 0.0
N1336 N 0.25871 0.75884 0.06363 0.0
C1337 C 0.25489 0.76044 0.05526 0.0
C1338 C 0.24823 0.78461 0.05332 0.0
C1339 C 0.24818 0.79863 0.06072 0.0
C1340 C 0.25474 0.78231 0.06678 0.0
N1341 N 0.26207 0.74509 0.08117 0.0
C1342 C 0.25777 0.76996 0.08251 0.0
C1343 C 0.2532 0.7744 0.0908 0.0
C1344 C 0.25476 0.75083 0.09487 0.0
C1345 C 0.26027 0.73329 0.08884 0.0
N1346 N 0.28976 0.74942 0.07061 0.0
C1347 C 0.31716 0.78312 0.0716 0.0
C1348 C 0.31231 0.76811 0.07864 0.0
C1349 C 0.29852 0.75152 0.07803 0.0
C1350 C 0.30847 0.77996 0.06399 0.0
C1351 C 0.29504 0.76285 0.06359 0.0
N1352 N 0.24763 0.71099 0.06973 0.0
C1353 C 0.2179 0.71184 0.07113 0.0
C1354 C 0.21683 0.68512 0.06951 0.0
C1355 C 0.2317 0.67171 0.06789 0.0
C1356 C 0.24693 0.685 0.068 0.0
C1357 C 0.23326 0.72421 0.07128 0.0
H1358 H 0.25815 0.67426 0.06674 0.0
H1359 H 0.23346 0.74465 0.07267 0.0
H1360 H 0.29464 0.74099 0.08363 0.0
H1361 H 0.28861 0.76119 0.05762 0.0
C1362 C 0.29478 0.684 0.06525 0.0
C1363 C 0.26431 0.70587 0.09051 0.0
C1364 C 0.25868 0.74027 0.04894 0.0
C1365 C 0.25499 0.7867 0.07558 0.0
H1366 H 0.2861 0.66165 0.09286 0.0
H1367 H 0.30412 0.65096 0.07916 0.0
H1368 H 0.29863 0.67557 0.04738 0.0
H1369 H 0.27768 0.70471 0.03854 0.0
H1370 H 0.244 0.79148 0.04718 0.0
H1371 H 0.24345 0.8181 0.06162 0.0
H1372 H 0.24843 0.79225 0.09346 0.0
H1373 H 0.25201 0.74698 0.10148 0.0
H1374 H 0.31871 0.76991 0.08465 0.0
H1375 H 0.31196 0.79085 0.05836 0.0
H1376 H 0.2069 0.72341 0.0722 0.0
H1377 H 0.23166 0.65103 0.06667 0.0
C1378 C 0.99244 0.69059 0.17216 0.0
C1379 C 0.98297 0.66856 0.17061 0.0
C1380 C 0.97407 0.6637 0.17786 0.0
C1381 C 0.9787 0.68274 0.18344 0.0
N1382 N 0.98999 0.6992 0.18017 0.0
Co1383 Co 1.00057 0.7286 0.18618 0.0
N1384 N 0.99459 0.71386 0.19741 0.0
C1385 C 0.98275 0.69596 0.19888 0.0
C1386 C 0.981 0.68991 0.20732 0.0
C1387 C 0.99234 0.70513 0.21143 0.0
C1388 C 1.00044 0.71967 0.20522 0.0
N1389 N 0.01103 0.75812 0.19221 0.0
C1390 C 0.01546 0.76037 0.20048 0.0
C1391 C 0.02215 0.78473 0.20204 0.0
C1392 C 0.02161 0.7982 0.19449 0.0
C1393 C 0.01469 0.78139 0.18874 0.0
N1394 N 1.00642 0.74307 0.17489 0.0
C1395 C 0.01048 0.76791 0.17322 0.0
C1396 C 0.01409 0.772 0.16479 0.0
C1397 C 0.01212 0.74824 0.16095 0.0
C1398 C 1.00745 0.73093 0.16729 0.0
N1399 N 0.9795 0.748 0.18593 0.0
C1400 C 0.95144 0.7809 0.18523 0.0
C1401 C 0.9561 0.76556 0.17823 0.0
C1402 C 0.97014 0.74944 0.1787 0.0
C1403 C 0.96102 0.77855 0.19264 0.0
C1404 C 0.97469 0.76189 0.1929 0.0
N1405 N 0.02178 0.7099 0.18642 0.0
C1406 C 0.05142 0.71083 0.18455 0.0
C1407 C 0.05269 0.68434 0.18657 0.0
C1408 C 0.03797 0.67099 0.1886 0.0
C1409 C 0.02269 0.68412 0.18852 0.0
C1410 C 0.03599 0.72305 0.18444 0.0
H1411 H 0.0116 0.67345 0.19011 0.0
H1412 H 0.03563 0.74332 0.18276 0.0
H1413 H 0.97361 0.7385 0.17314 0.0
H1414 H 0.98169 0.76093 0.19872 0.0
C1415 C 0.97538 0.68263 0.19215 0.0
C1416 C 1.00298 0.70363 0.16583 0.0
C1417 C 0.0122 0.74068 0.20708 0.0
C1418 C 0.01373 0.78515 0.17991 0.0
H1419 H 0.98257 0.65699 0.1649 0.0
H1420 H 0.96592 0.64739 0.17905 0.0
H1421 H 0.97278 0.67567 0.21014 0.0
H1422 H 0.99415 0.70577 0.21823 0.0
H1423 H 0.02677 0.79209 0.20802 0.0
H1424 H 0.02618 0.81764 0.1933 0.0
H1425 H 0.01835 0.78981 0.16183 0.0
H1426 H 0.01389 0.74411 0.15428 0.0
H1427 H 0.94904 0.76595 0.17239 0.0
H1428 H 0.9584 0.79004 0.19822 0.0
H1429 H 0.0623 0.72237 0.18315 0.0
H1430 H 0.03817 0.65048 0.19013 0.0
C1431 C 0.27577 0.5607 0.17163 0.0
C1432 C 0.2858 0.58156 0.16941 0.0
C1433 C 0.29548 0.58678 0.17636 0.0
C1434 C 0.29086 0.56884 0.1824 0.0
N1435 N 0.27889 0.55274 0.17966 0.0
Co1436 Co 0.26867 0.52407 0.18621 0.0
N1437 N 0.27564 0.53968 0.1971 0.0
C1438 C 0.28777 0.55739 0.19809 0.0
C1439 C 0.29026 0.56411 0.20641 0.0
C1440 C 0.27912 0.54953 0.21094 0.0
C1441 C 0.27039 0.53465 0.2051 0.0
N1442 N 0.25855 0.49523 0.19279 0.0
C1443 C 0.25478 0.49376 0.20117 0.0
C1444 C 0.24805 0.46967 0.20315 0.0
C1445 C 0.2479 0.45557 0.19576 0.0
C1446 C 0.25448 0.47176 0.18968 0.0
N1447 N 0.26183 0.50879 0.17523 0.0
C1448 C 0.25745 0.48394 0.17392 0.0
C1449 C 0.2528 0.47947 0.16566 0.0
C1450 C 0.25441 0.50299 0.16155 0.0
C1451 C 0.26002 0.52053 0.16756 0.0
N1452 N 0.2896 0.50436 0.18575 0.0
C1453 C 0.31763 0.47145 0.18491 0.0
C1454 C 0.31241 0.48609 0.17781 0.0
C1455 C 0.29839 0.50222 0.17835 0.0
C1456 C 0.30859 0.47444 0.19247 0.0
C1457 C 0.29492 0.49109 0.19278 0.0
N1458 N 0.2476 0.54312 0.18668 0.0
C1459 C 0.21779 0.54239 0.18569 0.0
C1460 C 0.21693 0.56893 0.1875 0.0
C1461 C 0.23184 0.58244 0.18879 0.0
C1462 C 0.24704 0.56912 0.18843 0.0
C1463 C 0.23314 0.52998 0.18525 0.0
H1464 H 0.25833 0.57977 0.18959 0.0
H1465 H 0.23324 0.50962 0.18374 0.0
H1466 H 0.29449 0.51264 0.17273 0.0
H1467 H 0.28837 0.49258 0.19872 0.0
C1468 C 0.29489 0.56973 0.19103 0.0
C1469 C 0.26414 0.5479 0.16586 0.0
C1470 C 0.25868 0.51397 0.20746 0.0
C1471 C 0.25465 0.46729 0.18087 0.0
H1472 H 0.28608 0.5919 0.16341 0.0
H1473 H 0.30425 0.60254 0.17706 0.0
H1474 H 0.29888 0.5783 0.20888 0.0
H1475 H 0.27788 0.54945 0.21779 0.0
H1476 H 0.24384 0.4629 0.2093 0.0
H1477 H 0.24309 0.43613 0.19489 0.0
H1478 H 0.24795 0.46163 0.16302 0.0
H1479 H 0.25163 0.5068 0.15494 0.0
H1480 H 0.31903 0.48517 0.17185 0.0
H1481 H 0.31165 0.46348 0.19813 0.0
H1482 H 0.20665 0.53124 0.18451 0.0
H1483 H 0.23175 0.60299 0.19023 0.0
C1484 C 1.01016 0.48467 0.9169 0.0
C1485 C 1.00193 0.50009 0.91102 0.0
C1486 C 0.99657 0.52158 0.91529 0.0
C1487 C 1.00178 0.51804 0.92351 0.0
N1488 N 0.01046 0.49583 0.92471 0.0
Co1489 Co 0.01882 0.48162 0.93582 0.0
N1490 N 1.00893 0.51125 0.94236 0.0
C1491 C 1.00126 0.5324 0.93907 0.0
C1492 C 0.99589 0.54955 0.94512 0.0
C1493 C 1.00041 0.53874 0.95271 0.0
C1494 C 1.00831 0.51551 0.95086 0.0
N1495 N 0.02664 0.46668 0.9469 0.0
C1496 C 0.02399 0.47477 0.95497 0.0
C1497 C 0.03155 0.45841 0.96085 0.0
C1498 C 0.03906 0.43917 0.95636 0.0
C1499 C 0.03571 0.44485 0.94803 0.0
N1500 N 0.02907 0.45234 0.9293 0.0
C1501 C 0.03873 0.43312 0.93243 0.0
C1502 C 0.04369 0.41545 0.92647 0.0
C1503 C 0.03656 0.42363 0.91908 0.0
C1504 C 0.02762 0.44592 0.92099 0.0
N1505 N 0.03984 0.50214 0.93472 0.0
C1506 C 0.06838 0.53416 0.93501 0.0
C1507 C 0.06927 0.50802 0.93743 0.0
C1508 C 0.05493 0.49249 0.93727 0.0
C1509 C 0.05325 0.54354 0.93206 0.0
C1510 C 0.03941 0.52733 0.93185 0.0
N1511 N 0.99784 0.46172 0.93693 0.0
C1512 C 0.98267 0.42134 0.93852 0.0
C1513 C 0.96752 0.43431 0.9374 0.0
C1514 C 0.96793 0.46122 0.93634 0.0
C1515 C 0.98299 0.47433 0.93611 0.0
C1516 C 0.99763 0.43537 0.93827 0.0
H1517 H 0.98225 0.49474 0.93518 0.0
H1518 H 1.0089 0.42464 0.93908 0.0
H1519 H 0.05633 0.4729 0.93936 0.0
H1520 H 0.02849 0.53594 0.92941 0.0
C1521 C 0.99801 0.53442 0.93034 0.0
C1522 C 0.01713 0.45927 0.91483 0.0
C1523 C 0.01462 0.49783 0.95739 0.0
C1524 C 0.04114 0.43029 0.94114 0.0
H1525 H 0.99977 0.49595 0.90438 0.0
H1526 H 0.98931 0.53751 0.91276 0.0
H1527 H 0.98911 0.56746 0.94413 0.0
H1528 H 0.99796 0.54682 0.95892 0.0
H1529 H 0.03171 0.46022 0.9677 0.0
H1530 H 0.04614 0.423 0.95886 0.0
H1531 H 0.05093 0.398 0.92746 0.0
H1532 H 0.03738 0.41375 0.91304 0.0
H1533 H 0.08084 0.49981 0.93967 0.0
H1534 H 0.05207 0.56347 0.9299 0.0
H1535 H 0.98302 0.40048 0.9394 0.0
H1536 H 0.9566 0.47236 0.93571 0.0
C1537 C 0.76334 0.27012 0.91717 0.0
C1538 C 0.77223 0.25504 0.9115 0.0
C1539 C 0.7774 0.23355 0.91589 0.0
C1540 C 0.77145 0.23676 0.92398 0.0
N1541 N 0.76248 0.25874 0.92497 0.0
Co1542 Co 0.75316 0.27257 0.9359 0.0
N1543 N 0.76279 0.24305 0.94266 0.0
C1544 C 0.77078 0.22202 0.93954 0.0
C1545 C 0.77593 0.20497 0.94572 0.0
C1546 C 0.77096 0.21576 0.95322 0.0
C1547 C 0.76303 0.23887 0.95118 0.0
N1548 N 0.74446 0.28722 0.9468 0.0
C1549 C 0.74684 0.27933 0.95493 0.0
C1550 C 0.7388 0.29553 0.96065 0.0
C1551 C 0.73128 0.31448 0.95597 0.0
C1552 C 0.73509 0.30881 0.94771 0.0
N1553 N 0.74312 0.30167 0.92914 0.0
C1554 C 0.73284 0.32038 0.93203 0.0
C1555 C 0.72801 0.33782 0.92592 0.0
C1556 C 0.73589 0.33004 0.9187 0.0
C1557 C 0.74518 0.30829 0.92087 0.0
N1558 N 0.7324 0.25163 0.93441 0.0
C1559 C 0.70388 0.21917 0.93371 0.0
C1560 C 0.70282 0.24499 0.93647 0.0
C1561 C 0.71708 0.26068 0.93679 0.0
C1562 C 0.71945 0.21036 0.93111 0.0
C1563 C 0.73321 0.22673 0.93139 0.0
N1564 N 0.77386 0.29288 0.9374 0.0
C1565 C 0.78852 0.33353 0.93931 0.0
C1566 C 0.80381 0.32065 0.9391 0.0
C1567 C 0.80377 0.2938 0.938 0.0
C1568 C 0.78887 0.2805 0.93714 0.0
C1569 C 0.77372 0.31929 0.93854 0.0
H1570 H 0.78986 0.26013 0.93618 0.0
H1571 H 0.7623 0.32987 0.93886 0.0
H1572 H 0.71537 0.27998 0.93903 0.0
H1573 H 0.74441 0.21841 0.92922 0.0
C1574 C 0.77476 0.22028 0.93089 0.0
C1575 C 0.7565 0.2956 0.915 0.0
C1576 C 0.75642 0.25663 0.95756 0.0
C1577 C 0.72985 0.32316 0.94069 0.0
H1578 H 0.77501 0.25944 0.90492 0.0
H1579 H 0.78503 0.21786 0.91353 0.0
H1580 H 0.78293 0.18723 0.94489 0.0
H1581 H 0.77319 0.20778 0.95948 0.0
H1582 H 0.73837 0.29381 0.9675 0.0
H1583 H 0.7239 0.33049 0.95832 0.0
H1584 H 0.72034 0.35489 0.92671 0.0
H1585 H 0.73532 0.33978 0.91261 0.0
H1586 H 0.69107 0.25322 0.93839 0.0
H1587 H 0.7213 0.19056 0.92904 0.0
H1588 H 0.78797 0.35438 0.94017 0.0
H1589 H 0.81528 0.28301 0.93765 0.0
C1590 C 1.00845 0.27091 0.83904 0.0
C1591 C 0.99965 0.25591 0.84482 0.0
C1592 C 0.9943 0.23446 0.84053 0.0
C1593 C 1.00005 0.23762 0.83239 0.0
N1594 N 1.00908 0.25952 0.83127 0.0
Co1595 Co 0.01814 0.27328 0.82025 0.0
N1596 N 1.0083 0.24379 0.81364 0.0
C1597 C 1.00041 0.22276 0.81687 0.0
C1598 C 0.99515 0.20565 0.81079 0.0
C1599 C 0.99996 0.21639 0.80323 0.0
C1600 C 1.0079 0.23953 0.80513 0.0
N1601 N 0.02654 0.28792 0.80924 0.0
C1602 C 0.02395 0.28002 0.80115 0.0
C1603 C 0.03182 0.29624 0.79533 0.0
C1604 C 0.03945 0.3152 0.79989 0.0
C1605 C 0.03587 0.30952 0.80819 0.0
N1606 N 0.02844 0.30231 0.82684 0.0
C1607 C 0.0387 0.32093 0.82383 0.0
C1608 C 0.04377 0.33831 0.82986 0.0
C1609 C 0.03608 0.33058 0.83715 0.0
C1610 C 0.02665 0.30891 0.83511 0.0
N1611 N 0.03893 0.2522 0.82163 0.0
C1612 C 0.06741 0.21946 0.82219 0.0
C1613 C 0.06839 0.24519 0.81924 0.0
C1614 C 0.05416 0.26102 0.819 0.0
C1615 C 0.05192 0.21091 0.82504 0.0
C1616 C 0.03819 0.22741 0.82483 0.0
N1617 N 0.99739 0.29372 0.81885 0.0
C1618 C 0.98269 0.33451 0.81712 0.0
C1619 C 0.96737 0.32166 0.81736 0.0
C1620 C 0.96743 0.29474 0.81837 0.0
C1621 C 0.98236 0.28136 0.81914 0.0
C1622 C 0.9975 0.32018 0.81777 0.0
H1623 H 0.98137 0.26094 0.82005 0.0
H1624 H 1.00893 0.33076 0.81742 0.0
H1625 H 0.05582 0.28023 0.81661 0.0
H1626 H 0.02706 0.21927 0.8272 0.0
C1627 C 0.9966 0.2211 0.82555 0.0
C1628 C 0.01545 0.2963 0.8411 0.0
C1629 C 0.01438 0.25724 0.79866 0.0
C1630 C 0.04139 0.32376 0.81514 0.0
H1631 H 0.99708 0.26032 0.8514 0.0
H1632 H 0.9867 0.21882 0.84298 0.0
H1633 H 0.98818 0.1879 0.81172 0.0
H1634 H 0.99762 0.20835 0.797 0.0
H1635 H 0.03208 0.29451 0.78848 0.0
H1636 H 0.04678 0.33119 0.79745 0.0
H1637 H 0.05146 0.35534 0.82896 0.0
H1638 H 0.03686 0.34032 0.84322 0.0
H1639 H 0.08007 0.25327 0.81712 0.0
H1640 H 0.05011 0.19121 0.82728 0.0
H1641 H 0.98324 0.35539 0.81631 0.0
H1642 H 0.95592 0.28395 0.81874 0.0
C1643 C 0.76029 0.48369 0.8386 0.0
C1644 C 0.76598 0.50108 0.84464 0.0
C1645 C 0.76752 0.52471 0.84059 0.0
C1646 C 0.76275 0.52044 0.83232 0.0
N1647 N 0.75834 0.49563 0.83097 0.0
Co1648 Co 0.75137 0.48058 0.81996 0.0
N1649 N 0.76131 0.50963 0.81341 0.0
C1650 C 0.76557 0.53294 0.81659 0.0
C1651 C 0.77245 0.54905 0.81058 0.0
C1652 C 0.7723 0.5351 0.80316 0.0
C1653 C 0.76513 0.51122 0.80503 0.0
N1654 N 0.74432 0.46512 0.80905 0.0
C1655 C 0.74931 0.47051 0.80103 0.0
C1656 C 0.74021 0.45612 0.7952 0.0
C1657 C 0.72923 0.44135 0.79976 0.0
C1658 C 0.73209 0.44756 0.80809 0.0
N1659 N 0.74125 0.45179 0.82649 0.0
C1660 C 0.72923 0.43578 0.82376 0.0
C1661 C 0.72466 0.41773 0.82977 0.0
C1662 C 0.73443 0.42278 0.8367 0.0
C1663 C 0.74446 0.44366 0.83449 0.0
N1664 N 0.73044 0.50022 0.82053 0.0
C1665 C 0.703 0.53408 0.82151 0.0
C1666 C 0.70872 0.52054 0.82871 0.0
C1667 C 0.72232 0.5036 0.82807 0.0
C1668 C 0.71092 0.52912 0.81375 0.0
C1669 C 0.72456 0.51243 0.81341 0.0
N1670 N 0.77247 0.46169 0.81941 0.0
C1671 C 0.78839 0.42251 0.81737 0.0
C1672 C 0.80322 0.43588 0.81909 0.0
C1673 C 0.80218 0.4625 0.82083 0.0
C1674 C 0.78683 0.47487 0.821 0.0
C1675 C 0.77315 0.43578 0.81756 0.0
H1676 H 0.78666 0.49526 0.82245 0.0
H1677 H 0.76192 0.42511 0.81627 0.0
H1678 H 0.7266 0.49388 0.83375 0.0
H1679 H 0.7306 0.51004 0.80737 0.0
C1680 C 0.7655 0.5372 0.8254 0.0
C1681 C 0.75618 0.45628 0.84025 0.0
C1682 C 0.76102 0.49125 0.79866 0.0
C1683 C 0.72506 0.43511 0.81514 0.0
H1684 H 0.76885 0.4971 0.85122 0.0
H1685 H 0.77242 0.54247 0.84325 0.0
H1686 H 0.77758 0.56824 0.81152 0.0
H1687 H 0.7769 0.54185 0.79709 0.0
H1688 H 0.74102 0.45671 0.78834 0.0
H1689 H 0.72038 0.4275 0.7973 0.0
H1690 H 0.71586 0.40201 0.82907 0.0
H1691 H 0.73422 0.41231 0.84267 0.0
H1692 H 0.70314 0.52357 0.83488 0.0
H1693 H 0.70679 0.53828 0.80792 0.0
H1694 H 0.78849 0.40191 0.81603 0.0
H1695 H 0.8132 0.47396 0.82198 0.0
C1696 C 0.50069 0.0549 0.106 0.0
C1697 C 0.50888 0.06188 0.09847 0.0
C1698 C 0.50234 0.07014 0.11331 0.0
C1699 C 0.5129 0.13747 0.11985 0.0
H1700 H 0.51265 0.10754 0.14247 0.0
C1701 C 0.50068 0.19885 0.15005 0.0
C1702 C 0.50891 0.19192 0.15758 0.0
C1703 C 0.50232 0.1836 0.14274 0.0
C1704 C 0.51294 0.1163 0.13621 0.0
H1705 H 0.52519 0.09003 0.09262 0.0
H1706 H 0.5285 0.11635 0.10541 0.0
H1707 H 0.51306 0.07912 0.13015 0.0
H1708 H 0.52527 0.16382 0.16342 0.0
H1709 H 0.52856 0.13748 0.15063 0.0
H1710 H 0.51299 0.17465 0.12591 0.0
C1711 C 0.52067 0.09929 0.10571 0.0
C1712 C 0.51295 0.09993 0.12912 0.0
C1713 C 0.51898 0.08406 0.09841 0.0
C1714 C 0.51903 0.16976 0.15764 0.0
C1715 C 0.52071 0.15452 0.15034 0.0
C1716 C 0.51291 0.15384 0.12694 0.0
C1717 C 0.51213 0.09283 0.11324 0.0
C1718 C 0.51283 0.11025 0.12082 0.0
C1719 C 0.51214 0.16094 0.14282 0.0
C1720 C 0.51283 0.14352 0.13523 0.0
H1721 H 0.49245 0.0383 0.10613 0.0
H1722 H 0.49535 0.06472 0.11892 0.0
H1723 H 0.51257 0.14623 0.11359 0.0
H1724 H 0.49242 0.21543 0.14993 0.0
H1725 H 0.4953 0.18899 0.13715 0.0
C1726 C 0.77078 0.05556 0.15044 0.0
C1727 C 0.76115 0.06137 0.1576 0.0
C1728 C 0.76959 0.07083 0.14307 0.0
C1729 C 0.74362 0.11932 0.13177 0.0
H1730 H 0.7854 0.14097 0.12182 0.0
C1731 C 0.74953 0.17312 0.09924 0.0
C1732 C 0.76127 0.19317 0.0987 0.0
C1733 C 0.74822 0.15798 0.10664 0.0
C1734 C 0.77362 0.13526 0.12455 0.0
H1735 H 0.74268 0.08733 0.16274 0.0
H1736 H 0.74028 0.1138 0.1498 0.0
H1737 H 0.78534 0.11153 0.13401 0.0
H1738 H 0.7808 0.21331 0.10537 0.0
H1739 H 0.77855 0.18696 0.11833 0.0
H1740 H 0.73192 0.14313 0.12227 0.0
C1741 C 0.74864 0.09734 0.14982 0.0
C1742 C 0.77358 0.11811 0.13148 0.0
C1743 C 0.74996 0.0822 0.15721 0.0
C1744 C 0.77146 0.19824 0.10572 0.0
C1745 C 0.77028 0.18295 0.11308 0.0
C1746 C 0.74365 0.13627 0.12476 0.0
C1747 C 0.75872 0.09222 0.14272 0.0
C1748 C 0.75859 0.10993 0.13519 0.0
C1749 C 0.75885 0.16232 0.11358 0.0
C1750 C 0.75867 0.14455 0.1211 0.0
H1751 H 0.77974 0.03989 0.15067 0.0
H1752 H 0.77743 0.06621 0.1377 0.0
H1753 H 0.73186 0.11335 0.13446 0.0
H1754 H 0.74179 0.16858 0.09382 0.0
H1755 H 0.73941 0.14212 0.10677 0.0
C1756 C 0.50116 0.83513 0.84811 0.0
C1757 C 0.51123 0.81291 0.8482 0.0
C1758 C 0.4995 0.8505 0.85538 0.0
C1759 C 0.50748 0.85176 0.87878 0.0
H1760 H 0.50742 0.92638 0.87534 0.0
C1761 C 0.50186 0.92223 0.90714 0.0
C1762 C 0.51196 0.9444 0.907 0.0
C1763 C 0.50007 0.90686 0.89988 0.0
C1764 C 0.50752 0.90561 0.87644 0.0
H1765 H 0.52761 0.78939 0.85591 0.0
H1766 H 0.52477 0.81605 0.86865 0.0
H1767 H 0.50766 0.89761 0.86311 0.0
H1768 H 0.52804 0.96812 0.8992 0.0
H1769 H 0.52504 0.94135 0.88648 0.0
H1770 H 0.50799 0.85975 0.89211 0.0
C1771 C 0.51777 0.8214 0.86304 0.0
C1772 C 0.50742 0.88902 0.8694 0.0
C1773 C 0.51938 0.80601 0.85576 0.0
C1774 C 0.51992 0.95137 0.8994 0.0
C1775 C 0.51819 0.93596 0.89213 0.0
C1776 C 0.50761 0.86834 0.88582 0.0
C1777 C 0.50805 0.84417 0.86292 0.0
C1778 C 0.50748 0.86183 0.87046 0.0
C1779 C 0.50848 0.91318 0.8923 0.0
C1780 C 0.5077 0.89553 0.88476 0.0
H1781 H 0.49499 0.84106 0.8423 0.0
H1782 H 0.49172 0.8676 0.85505 0.0
H1783 H 0.50737 0.83098 0.87988 0.0
H1784 H 0.49575 0.91635 0.91297 0.0
H1785 H 0.49226 0.88978 0.90025 0.0
C1786 C 0.2503 0.95183 0.85661 0.0
C1787 C 0.25934 0.94589 0.84926 0.0
C1788 C 0.25154 0.936 0.86385 0.0
C1789 C 0.27665 0.88393 0.87416 0.0
H1790 H 0.23499 0.86611 0.88498 0.0
C1791 C 0.27176 0.82595 0.90594 0.0
C1792 C 0.25867 0.80818 0.90675 0.0
C1793 C 0.27307 0.8418 0.89871 0.0
C1794 C 0.24673 0.87069 0.882 0.0
H1795 H 0.27693 0.91928 0.84369 0.0
H1796 H 0.27932 0.89173 0.85636 0.0
H1797 H 0.23526 0.89681 0.87316 0.0
H1798 H 0.2369 0.79245 0.90065 0.0
H1799 H 0.23922 0.81986 0.88794 0.0
H1800 H 0.28807 0.85753 0.88297 0.0
C1801 C 0.27141 0.9087 0.85661 0.0
C1802 C 0.24692 0.88862 0.87529 0.0
C1803 C 0.27009 0.92446 0.84936 0.0
C1804 C 0.24722 0.80582 0.9001 0.0
C1805 C 0.24845 0.82175 0.89289 0.0
C1806 C 0.27648 0.8661 0.88092 0.0
C1807 C 0.26184 0.91388 0.86388 0.0
C1808 C 0.26186 0.89547 0.87126 0.0
C1809 C 0.26118 0.84038 0.89218 0.0
C1810 C 0.26149 0.85914 0.88491 0.0
H1811 H 0.24174 0.96804 0.85662 0.0
H1812 H 0.24415 0.94076 0.86937 0.0
H1813 H 0.2884 0.88883 0.87123 0.0
H1814 H 0.28055 0.82835 0.91108 0.0
H1815 H 0.28294 0.85603 0.89842 0.0
C1816 C 0.50257 0.55216 0.60666 0.0
C1817 C 0.51057 0.55933 0.59909 0.0
C1818 C 0.50429 0.56734 0.61399 0.0
C1819 C 0.51443 0.63497 0.62037 0.0
H1820 H 0.51385 0.60575 0.64309 0.0
C1821 C 0.50147 0.69741 0.65027 0.0
C1822 C 0.50956 0.69084 0.65786 0.0
C1823 C 0.50325 0.68183 0.64304 0.0
C1824 C 0.51423 0.61432 0.6368 0.0
H1825 H 0.52676 0.58763 0.59322 0.0
H1826 H 0.53025 0.61373 0.60604 0.0
H1827 H 0.51465 0.57695 0.63086 0.0
H1828 H 0.52582 0.66301 0.66392 0.0
H1829 H 0.52936 0.6361 0.65127 0.0
H1830 H 0.51422 0.67234 0.6263 0.0
C1831 C 0.52248 0.59662 0.60635 0.0
C1832 C 0.51447 0.59772 0.62976 0.0
C1833 C 0.52071 0.58148 0.59904 0.0
C1834 C 0.51967 0.66867 0.65808 0.0
C1835 C 0.5215 0.65311 0.65085 0.0
C1836 C 0.51422 0.65157 0.62741 0.0
C1837 C 0.51397 0.59014 0.61389 0.0
C1838 C 0.51448 0.60778 0.62144 0.0
C1839 C 0.51309 0.6592 0.64326 0.0
C1840 C 0.51401 0.64151 0.63573 0.0
H1841 H 0.4943 0.53559 0.60678 0.0
H1842 H 0.49735 0.56186 0.6196 0.0
H1843 H 0.51418 0.64355 0.61409 0.0
H1844 H 0.49321 0.71399 0.65002 0.0
H1845 H 0.49634 0.68699 0.63738 0.0
C1846 C 0.76718 0.55263 0.64974 0.0
C1847 C 0.75919 0.5595 0.65733 0.0
C1848 C 0.76535 0.56799 0.64243 0.0
C1849 C 0.75488 0.6357 0.63608 0.0
H1850 H 0.75561 0.60716 0.61336 0.0
C1851 C 0.7679 0.69896 0.60621 0.0
C1852 C 0.75995 0.69245 0.59858 0.0
C1853 C 0.76602 0.68328 0.61345 0.0
C1854 C 0.75518 0.61554 0.61965 0.0
H1855 H 0.7429 0.58742 0.66323 0.0
H1856 H 0.73919 0.61385 0.65042 0.0
H1857 H 0.75488 0.57799 0.62557 0.0
H1858 H 0.74382 0.66467 0.5925 0.0
H1859 H 0.74008 0.63761 0.60517 0.0
H1860 H 0.75496 0.67325 0.63017 0.0
C1861 C 0.74705 0.59683 0.65009 0.0
C1862 C 0.75498 0.59873 0.62668 0.0
C1863 C 0.74894 0.58151 0.6574 0.0
C1864 C 0.74985 0.67029 0.59836 0.0
C1865 C 0.74791 0.65463 0.60559 0.0
C1866 C 0.75504 0.65251 0.62905 0.0
C1867 C 0.75555 0.59068 0.64254 0.0
C1868 C 0.75494 0.60854 0.63501 0.0
C1869 C 0.75623 0.6606 0.61321 0.0
C1870 C 0.7553 0.6427 0.62073 0.0
H1871 H 0.77553 0.53616 0.64961 0.0
H1872 H 0.77229 0.56276 0.6368 0.0
H1873 H 0.7551 0.64409 0.64237 0.0
H1874 H 0.77615 0.71554 0.60646 0.0
H1875 H 0.77285 0.68835 0.61912 0.0
C1876 C 0.50181 0.42227 0.40703 0.0
C1877 C 0.51201 0.44436 0.40708 0.0
C1878 C 0.50064 0.40677 0.39976 0.0
C1879 C 0.52485 0.38922 0.38074 0.0
H1880 H 0.48422 0.35577 0.37347 0.0
C1881 C 0.52561 0.30751 0.35576 0.0
C1882 C 0.51373 0.30921 0.34928 0.0
C1883 C 0.52433 0.32315 0.36299 0.0
C1884 C 0.49567 0.36502 0.3754 0.0
H1885 H 0.52877 0.46792 0.39961 0.0
H1886 H 0.5266 0.4411 0.38682 0.0
H1887 H 0.4836 0.38645 0.38529 0.0
H1888 H 0.49103 0.32788 0.34529 0.0
H1889 H 0.48857 0.35506 0.35798 0.0
H1890 H 0.53691 0.36801 0.37084 0.0
C1891 C 0.51954 0.43561 0.39239 0.0
C1892 C 0.49533 0.38249 0.38221 0.0
C1893 C 0.52063 0.45117 0.39966 0.0
C1894 C 0.50018 0.32601 0.35029 0.0
C1895 C 0.49883 0.34157 0.35754 0.0
C1896 C 0.5252 0.37166 0.37397 0.0
C1897 C 0.50979 0.41288 0.3924 0.0
C1898 C 0.50993 0.39486 0.38497 0.0
C1899 C 0.51112 0.34082 0.3639 0.0
C1900 C 0.51063 0.35926 0.37121 0.0
H1901 H 0.4953 0.41641 0.41274 0.0
H1902 H 0.49316 0.38931 0.40004 0.0
H1903 H 0.53637 0.39807 0.38274 0.0
H1904 H 0.53625 0.29488 0.35505 0.0
H1905 H 0.53388 0.32176 0.36781 0.0
C1906 C 0.26994 0.42323 0.34924 0.0
C1907 C 0.25944 0.44496 0.34926 0.0
C1908 C 0.27122 0.40723 0.35643 0.0
C1909 C 0.24684 0.3873 0.37516 0.0
H1910 H 0.2878 0.35503 0.38261 0.0
C1911 C 0.24668 0.30413 0.39983 0.0
C1912 C 0.2582 0.30621 0.40646 0.0
C1913 C 0.24799 0.32006 0.39262 0.0
C1914 C 0.27626 0.36393 0.38063 0.0
H1915 H 0.24224 0.4674 0.35677 0.0
H1916 H 0.24457 0.4397 0.36943 0.0
H1917 H 0.28826 0.38658 0.37094 0.0
H1918 H 0.2803 0.32589 0.41075 0.0
H1919 H 0.28284 0.35354 0.3981 0.0
H1920 H 0.23484 0.36487 0.38485 0.0
C1921 C 0.2518 0.43488 0.36386 0.0
C1922 C 0.27651 0.3819 0.3739 0.0
C1923 C 0.25061 0.45094 0.35667 0.0
C1924 C 0.27145 0.32368 0.40563 0.0
C1925 C 0.27285 0.33952 0.3984 0.0
C1926 C 0.24658 0.36923 0.38183 0.0
C1927 C 0.26185 0.41248 0.36377 0.0
C1928 C 0.2618 0.39387 0.37109 0.0
C1929 C 0.26088 0.33841 0.3919 0.0
C1930 C 0.26127 0.35726 0.38465 0.0
H1931 H 0.27661 0.41802 0.34352 0.0
H1932 H 0.27893 0.39006 0.35609 0.0
H1933 H 0.23524 0.39583 0.37311 0.0
H1934 H 0.23623 0.29102 0.40041 0.0
H1935 H 0.23869 0.31842 0.3877 0.0
C1936 C 0.0214 0.07387 0.60093 0.0
C1937 C 1.00605 0.0629 0.59876 0.0
C1938 C 0.02297 0.08891 0.60831 0.0
C1939 C 0.9999 0.13426 0.62065 0.0
H1940 H 0.02828 0.12006 0.63996 0.0
C1941 C 0.99301 0.19162 0.65182 0.0
C1942 C 1.00643 0.19363 0.65743 0.0
C1943 C 0.99433 0.17691 0.64441 0.0
C1944 C 0.02053 0.12478 0.63457 0.0
H1945 H 0.98063 0.05753 0.60276 0.0
H1946 H 0.98321 0.08448 0.6155 0.0
H1947 H 0.02844 0.09071 0.6278 0.0
H1948 H 0.03211 0.18355 0.65947 0.0
H1949 H 0.03489 0.15908 0.64624 0.0
H1950 H 0.99235 0.16868 0.62708 0.0
C1951 C 0.99401 0.08142 0.61154 0.0
C1952 C 0.02056 0.10773 0.62763 0.0
C1953 C 0.99255 0.06597 0.60429 0.0
C1954 C 0.02157 0.18212 0.65523 0.0
C1955 C 0.02303 0.16777 0.64771 0.0
C1956 C 1.00014 0.15161 0.62747 0.0
C1957 C 1.00913 0.09347 0.61353 0.0
C1958 C 1.01001 0.11209 0.62069 0.0
C1959 C 1.00929 0.16433 0.64227 0.0
C1960 C 1.0102 0.14694 0.63464 0.0
H1961 H 0.03196 0.07171 0.59674 0.0
H1962 H 0.03475 0.09799 0.60972 0.0
H1963 H 0.99181 0.13822 0.61531 0.0
H1964 H 0.98119 0.20035 0.65341 0.0
H1965 H 0.98332 0.1746 0.64056 0.0
C1966 C 0.2669 0.20216 0.6066 0.0
C1967 C 0.25893 0.1953 0.59901 0.0
C1968 C 0.26505 0.18678 0.61391 0.0
C1969 C 0.25464 0.11903 0.62021 0.0
H1970 H 0.25538 0.1474 0.64295 0.0
C1971 C 0.26784 0.05561 0.65002 0.0
C1972 C 0.25991 0.06204 0.65765 0.0
C1973 C 0.26591 0.07134 0.64279 0.0
C1974 C 0.25494 0.13906 0.63665 0.0
H1975 H 0.24266 0.16739 0.59309 0.0
H1976 H 0.23891 0.14095 0.6059 0.0
H1977 H 0.25459 0.17666 0.63077 0.0
H1978 H 0.24374 0.08969 0.66377 0.0
H1979 H 0.23991 0.11682 0.65112 0.0
H1980 H 0.25477 0.08144 0.62609 0.0
C1981 C 0.24676 0.15796 0.60623 0.0
C1982 C 0.25471 0.15593 0.62964 0.0
C1983 C 0.24868 0.1733 0.59893 0.0
C1984 C 0.24975 0.08414 0.6579 0.0
C1985 C 0.24777 0.09984 0.65068 0.0
C1986 C 0.25483 0.10217 0.62722 0.0
C1987 C 0.25525 0.16409 0.61378 0.0
C1988 C 0.25466 0.14618 0.6213 0.0
C1989 C 0.25607 0.09396 0.64306 0.0
C1990 C 0.2551 0.11191 0.63555 0.0
H1991 H 0.27526 0.21862 0.60674 0.0
H1992 H 0.27198 0.19199 0.61954 0.0
H1993 H 0.25485 0.11068 0.61391 0.0
H1994 H 0.27613 0.03907 0.64975 0.0
H1995 H 0.27273 0.06634 0.6371 0.0
C1996 C 1.0008 0.81967 0.35162 0.0
C1997 C 0.01607 0.80906 0.34916 0.0
C1998 C 0.99954 0.83442 0.35907 0.0
C1999 C 0.02353 0.8539 0.37864 0.0
H2000 H 0.9933 0.91248 0.37841 0.0
C2001 C 0.0296 0.94034 0.40162 0.0
C2002 C 0.01588 0.9436 0.407 0.0
C2003 C 0.02848 0.92446 0.39445 0.0
C2004 C 1.00174 0.89612 0.37855 0.0
H2005 H 0.04177 0.80436 0.35268 0.0
H2006 H 0.03994 0.83085 0.36539 0.0
H2007 H 0.99353 0.88229 0.36648 0.0
H2008 H 0.98994 0.93458 0.4088 0.0
H2009 H 0.98773 0.90762 0.39597 0.0
H2010 H 0.03226 0.86877 0.39053 0.0
C2011 C 0.02871 0.8275 0.3618 0.0
C2012 C 1.00181 0.87858 0.37175 0.0
C2013 C 0.02986 0.81235 0.35447 0.0
C2014 C 1.00066 0.93235 0.40473 0.0
C2015 C 0.99943 0.91689 0.39743 0.0
C2016 C 0.02371 0.87176 0.38531 0.0
C2017 C 0.0136 0.83923 0.36416 0.0
C2018 C 0.01279 0.85722 0.37165 0.0
C2019 C 0.01348 0.91213 0.39239 0.0
C2020 C 0.01289 0.89311 0.38532 0.0
H2021 H 0.98998 0.81728 0.34763 0.0
H2022 H 0.98757 0.84239 0.36073 0.0
H2023 H 0.03186 0.83747 0.379 0.0
H2024 H 0.04144 0.94892 0.40323 0.0
H2025 H 0.03944 0.92129 0.39062 0.0
C2026 C 0.77015 0.83002 0.40692 0.0
C2027 C 0.75942 0.80857 0.407 0.0
C2028 C 0.77148 0.84582 0.39969 0.0
C2029 C 0.747 0.86594 0.38101 0.0
H2030 H 0.78813 0.89722 0.37336 0.0
C2031 C 0.74722 0.94897 0.35629 0.0
C2032 C 0.75866 0.9467 0.34963 0.0
C2033 C 0.74847 0.93298 0.36348 0.0
C2034 C 0.77654 0.8886 0.3754 0.0
H2035 H 0.74188 0.7864 0.39963 0.0
H2036 H 0.7443 0.81375 0.38689 0.0
H2037 H 0.78848 0.86583 0.38507 0.0
H2038 H 0.78056 0.92663 0.34527 0.0
H2039 H 0.78299 0.89884 0.3579 0.0
H2040 H 0.73506 0.8885 0.37134 0.0
C2041 C 0.75167 0.8185 0.39241 0.0
C2042 C 0.77673 0.87071 0.38215 0.0
C2043 C 0.75042 0.80264 0.39965 0.0
C2044 C 0.77178 0.92896 0.35041 0.0
C2045 C 0.77311 0.91305 0.35763 0.0
C2046 C 0.7468 0.88392 0.37432 0.0
C2047 C 0.76194 0.84065 0.3924 0.0
C2048 C 0.76195 0.85911 0.38504 0.0
C2049 C 0.76122 0.91438 0.36417 0.0
C2050 C 0.76156 0.89555 0.37142 0.0
H2051 H 0.77697 0.8352 0.4126 0.0
H2052 H 0.77937 0.86281 0.39995 0.0
H2053 H 0.73535 0.8577 0.38313 0.0
H2054 H 0.73689 0.96232 0.35575 0.0
H2055 H 0.73924 0.9348 0.36844 0.0
C2056 C 0.99179 0.68818 0.15189 0.0
C2057 C 1.00537 0.69143 0.15736 0.0
C2058 C 0.99321 0.67275 0.14463 0.0
C2059 C 0.02 0.64665 0.12851 0.0
H2060 H 0.99119 0.58639 0.12875 0.0
C2061 C 0.02094 0.5727 0.10078 0.0
C2062 C 1.00572 0.56172 0.09845 0.0
C2063 C 0.02236 0.5869 0.10834 0.0
C2064 C 0.99916 0.60328 0.12845 0.0
H2065 H 0.03137 0.68302 0.15924 0.0
H2066 H 0.03408 0.65677 0.14626 0.0
H2067 H 0.99068 0.61659 0.14059 0.0
H2068 H 0.98029 0.55573 0.10227 0.0
H2069 H 0.98236 0.58126 0.11517 0.0
H2070 H 0.0279 0.63439 0.1162 0.0
C2071 C 0.02227 0.66567 0.14773 0.0
C2072 C 0.99892 0.62048 0.13531 0.0
C2073 C 0.02074 0.68068 0.15511 0.0
C2074 C 0.99215 0.5641 0.10395 0.0
C2075 C 0.99344 0.57866 0.1114 0.0
C2076 C 0.01998 0.62976 0.12154 0.0
C2077 C 1.00837 0.66092 0.14257 0.0
C2078 C 1.00924 0.64241 0.13538 0.0
C2079 C 1.0085 0.59069 0.11368 0.0
C2080 C 1.00942 0.60787 0.12135 0.0
H2081 H 0.97986 0.69648 0.15347 0.0
H2082 H 0.98237 0.66958 0.14072 0.0
H2083 H 0.02805 0.66349 0.12842 0.0
H2084 H 0.0316 0.57093 0.09664 0.0
H2085 H 0.03429 0.59518 0.10992 0.0
C2086 C 0.26797 0.55428 0.15015 0.0
C2087 C 0.25991 0.56112 0.15771 0.0
C2088 C 0.26621 0.56968 0.14284 0.0
C2089 C 0.25565 0.6372 0.13636 0.0
H2090 H 0.25588 0.60796 0.11373 0.0
C2091 C 0.26821 0.69936 0.1062 0.0
C2092 C 0.26009 0.69263 0.09865 0.0
C2093 C 0.26642 0.68396 0.11351 0.0
C2094 C 0.25559 0.61653 0.11999 0.0
H2095 H 0.24369 0.58913 0.16362 0.0
H2096 H 0.24016 0.6157 0.15082 0.0
H2097 H 0.25541 0.57917 0.12603 0.0
H2098 H 0.24374 0.6648 0.09275 0.0
H2099 H 0.24016 0.63821 0.10554 0.0
H2100 H 0.25561 0.67457 0.13032 0.0
C2101 C 0.24799 0.59865 0.1505 0.0
C2102 C 0.25554 0.59995 0.12708 0.0
C2103 C 0.2498 0.58328 0.1578 0.0
C2104 C 0.2499 0.67057 0.09856 0.0
C2105 C 0.24805 0.65519 0.10586 0.0
C2106 C 0.25566 0.65379 0.12928 0.0
C2107 C 0.25643 0.59237 0.14295 0.0
C2108 C 0.25569 0.61002 0.13537 0.0
C2109 C 0.25654 0.66136 0.11341 0.0
C2110 C 0.25574 0.64372 0.12098 0.0
H2111 H 0.27622 0.53769 0.15 0.0
H2112 H 0.27313 0.56439 0.13721 0.0
H2113 H 0.25599 0.64578 0.14262 0.0
H2114 H 0.27652 0.71588 0.10635 0.0
H2115 H 0.27337 0.68917 0.11913 0.0
C2116 C 0.02038 0.30311 0.85667 0.0
C2117 C 0.01169 0.30966 0.84925 0.0
C2118 C 0.0193 0.31889 0.86388 0.0
C2119 C 0.9951 0.37217 0.87394 0.0
H2120 H 0.03682 0.3875 0.88505 0.0
C2121 C 1.00038 0.42957 0.90566 0.0
C2122 C 0.01384 0.44659 0.90652 0.0
C2123 C 0.99893 0.41382 0.89845 0.0
C2124 C 0.02507 0.38362 0.88199 0.0
H2125 H 0.99488 0.33732 0.84352 0.0
H2126 H 0.99276 0.3648 0.85614 0.0
H2127 H 0.03619 0.35699 0.87327 0.0
H2128 H 0.03612 0.46114 0.90056 0.0
H2129 H 0.03357 0.43393 0.88789 0.0
H2130 H 0.98403 0.39909 0.88263 0.0
C2131 C 1.00027 0.34739 0.85646 0.0
C2132 C 0.02467 0.3658 0.8753 0.0
C2133 C 1.00144 0.33168 0.84925 0.0
C2134 C 0.02553 0.44834 0.89995 0.0
C2135 C 0.02415 0.43252 0.89277 0.0
C2136 C 0.99548 0.38989 0.88068 0.0
C2137 C 1.00951 0.34156 0.86382 0.0
C2138 C 1.00969 0.35985 0.87117 0.0
C2139 C 0.01103 0.41462 0.89201 0.0
C2140 C 0.0105 0.39596 0.88477 0.0
H2141 H 0.02856 0.28642 0.85676 0.0
H2142 H 0.02642 0.31363 0.86946 0.0
H2143 H 0.98333 0.36797 0.87094 0.0
H2144 H 0.99138 0.42765 0.91073 0.0
H2145 H 0.98875 0.40016 0.89812 0.0
C2146 C 0.77089 0.33119 0.90703 0.0
C2147 C 0.76073 0.30909 0.90689 0.0
C2148 C 0.77266 0.34678 0.89978 0.0
C2149 C 0.76491 0.34898 0.87637 0.0
H2150 H 0.765 0.42346 0.87995 0.0
C2151 C 0.77061 0.42068 0.84815 0.0
C2152 C 0.76051 0.44285 0.84834 0.0
C2153 C 0.77244 0.40501 0.85539 0.0
C2154 C 0.76491 0.40273 0.87881 0.0
H2155 H 0.74456 0.28568 0.89912 0.0
H2156 H 0.74752 0.31286 0.88641 0.0
H2157 H 0.76462 0.39417 0.89212 0.0
H2158 H 0.74424 0.46598 0.85617 0.0
H2159 H 0.74735 0.43876 0.86884 0.0
H2160 H 0.76451 0.35755 0.86306 0.0
C2161 C 0.75443 0.31801 0.89204 0.0
C2162 C 0.76492 0.38585 0.88582 0.0
C2163 C 0.75272 0.30238 0.89931 0.0
C2164 C 0.75248 0.44939 0.85595 0.0
C2165 C 0.75425 0.43369 0.86319 0.0
C2166 C 0.76485 0.36586 0.86936 0.0
C2167 C 0.76417 0.34076 0.89222 0.0
C2168 C 0.76484 0.35871 0.88471 0.0
C2169 C 0.76402 0.41098 0.86297 0.0
C2170 C 0.76477 0.39301 0.87047 0.0
H2171 H 0.77702 0.33687 0.91286 0.0
H2172 H 0.78049 0.36382 0.90014 0.0
H2173 H 0.765 0.32825 0.87524 0.0
H2174 H 0.77669 0.41504 0.8423 0.0
H2175 H 0.78025 0.38797 0.85498 0.0
C2176 C 0.34648 0.79602 0.07533 0.0
C2177 C 0.33074 0.80272 0.0722 0.0
C2178 C 0.35937 0.81438 0.07547 0.0
C2179 C 0.37088 0.88038 0.06664 0.0
H2180 H 0.40672 0.87441 0.08287 0.0
C2181 C 0.42813 0.94781 0.06428 0.0
C2182 C 0.43739 0.95387 0.07161 0.0
C2183 C 0.41528 0.92951 0.06454 0.0
C2184 C 0.39673 0.87681 0.07835 0.0
H2185 H 0.31599 0.83422 0.0671 0.0
H2186 H 0.33791 0.86648 0.06777 0.0
H2187 H 0.3841 0.84351 0.08332 0.0
H2188 H 0.43975 0.94499 0.08505 0.0
H2189 H 0.4167 0.91487 0.08564 0.0
H2190 H 0.38282 0.91459 0.06203 0.0
C2191 C 0.34078 0.84685 0.06976 0.0
C2192 C 0.38378 0.85856 0.0785 0.0
C2193 C 0.32806 0.82836 0.06944 0.0
C2194 C 0.43294 0.94137 0.07926 0.0
C2195 C 0.41979 0.92348 0.07956 0.0
C2196 C 0.38359 0.89893 0.06662 0.0
C2197 C 0.35679 0.84017 0.07265 0.0
C2198 C 0.37063 0.8599 0.07261 0.0
C2199 C 0.41078 0.91702 0.07219 0.0
C2200 C 0.39687 0.89742 0.07242 0.0
H2201 H 0.34894 0.77635 0.07745 0.0
H2202 H 0.37145 0.80804 0.07762 0.0
H2203 H 0.36132 0.88212 0.06185 0.0
H2204 H 0.43071 0.95719 0.05827 0.0
H2205 H 0.40905 0.92502 0.05865 0.0
C2206 C 0.82799 0.32861 0.06923 0.0
C2207 C 0.8307 0.30301 0.07202 0.0
C2208 C 0.84069 0.34714 0.06952 0.0
C2209 C 0.88363 0.35913 0.07826 0.0
H2210 H 0.88271 0.41473 0.06164 0.0
C2211 C 0.93261 0.44223 0.07888 0.0
C2212 C 0.93714 0.45442 0.07118 0.0
C2213 C 0.91949 0.4243 0.07921 0.0
C2214 C 0.88346 0.39919 0.06627 0.0
H2215 H 0.84893 0.27674 0.0773 0.0
H2216 H 0.8714 0.30851 0.07743 0.0
H2217 H 0.86124 0.38219 0.06152 0.0
H2218 H 0.93067 0.45717 0.05781 0.0
H2219 H 0.90902 0.42496 0.05825 0.0
H2220 H 0.90653 0.37519 0.08262 0.0
C2221 C 0.85931 0.31478 0.07528 0.0
C2222 C 0.87077 0.3806 0.06632 0.0
C2223 C 0.84644 0.29638 0.07516 0.0
C2224 C 0.928 0.44803 0.06386 0.0
C2225 C 0.91517 0.42972 0.06415 0.0
C2226 C 0.89656 0.37742 0.07808 0.0
C2227 C 0.8567 0.34052 0.07242 0.0
C2228 C 0.87052 0.36028 0.07235 0.0
C2229 C 0.91059 0.41751 0.07183 0.0
C2230 C 0.89671 0.39788 0.07209 0.0
H2231 H 0.81591 0.33442 0.06689 0.0
H2232 H 0.8378 0.36674 0.06751 0.0
H2233 H 0.88395 0.3442 0.08312 0.0
H2234 H 0.93934 0.44612 0.08468 0.0
H2235 H 0.91632 0.4159 0.08531 0.0
C2236 C 0.42299 0.2951 0.181 0.0
C2237 C 0.43879 0.30187 0.18401 0.0
C2238 C 0.41009 0.31344 0.18085 0.0
C2239 C 0.39876 0.37963 0.1894 0.0
H2240 H 0.36255 0.37328 0.17342 0.0
C2241 C 0.34153 0.44703 0.19176 0.0
C2242 C 0.33208 0.45291 0.18446 0.0
C2243 C 0.35439 0.42876 0.19151 0.0
C2244 C 0.37265 0.37578 0.17786 0.0
H2245 H 0.45364 0.33348 0.18886 0.0
H2246 H 0.4317 0.36571 0.18816 0.0
H2247 H 0.38517 0.34239 0.173 0.0
H2248 H 0.32941 0.44376 0.17108 0.0
H2249 H 0.35247 0.41366 0.1705 0.0
H2250 H 0.38691 0.41394 0.1939 0.0
C2251 C 0.42879 0.34604 0.18629 0.0
C2252 C 0.3856 0.35754 0.17773 0.0
C2253 C 0.44153 0.32756 0.18663 0.0
C2254 C 0.33636 0.44027 0.17684 0.0
C2255 C 0.34952 0.4224 0.17655 0.0
C2256 C 0.38604 0.39817 0.1894 0.0
C2257 C 0.41273 0.33929 0.18352 0.0
C2258 C 0.39888 0.35901 0.18353 0.0
C2259 C 0.35871 0.41611 0.1839 0.0
C2260 C 0.37263 0.39652 0.18369 0.0
H2261 H 0.42049 0.27539 0.17899 0.0
H2262 H 0.39797 0.30706 0.1788 0.0
H2263 H 0.40842 0.38148 0.19412 0.0
H2264 H 0.33908 0.45653 0.19774 0.0
H2265 H 0.36076 0.4244 0.19739 0.0
C2266 C 0.84643 0.95784 0.18093 0.0
C2267 C 0.83079 0.95143 0.18425 0.0
C2268 C 0.85928 0.9394 0.1808 0.0
C2269 C 0.87099 0.87396 0.18998 0.0
H2270 H 0.90613 0.87845 0.1733 0.0
C2271 C 0.92815 0.80627 0.19219 0.0
C2272 C 0.93703 0.79956 0.18481 0.0
C2273 C 0.91534 0.82465 0.19194 0.0
C2274 C 0.89633 0.87647 0.17795 0.0
H2275 H 0.81615 0.9203 0.18968 0.0
H2276 H 0.838 0.8879 0.18904 0.0
H2277 H 0.88359 0.90951 0.17287 0.0
H2278 H 0.93878 0.80736 0.17127 0.0
H2279 H 0.91581 0.83765 0.17073 0.0
H2280 H 0.88304 0.84001 0.19472 0.0
C2281 C 0.84083 0.90739 0.1869 0.0
C2282 C 0.88343 0.89481 0.17781 0.0
C2283 C 0.82816 0.92597 0.1872 0.0
C2284 C 0.93226 0.8115 0.17711 0.0
C2285 C 0.91916 0.82948 0.17683 0.0
C2286 C 0.88365 0.85532 0.19 0.0
C2287 C 0.85674 0.9138 0.18381 0.0
C2288 C 0.87054 0.894 0.18385 0.0
C2289 C 0.91053 0.8366 0.18426 0.0
C2290 C 0.89667 0.8563 0.18404 0.0
H2291 H 0.84887 0.97736 0.17866 0.0
H2292 H 0.8713 0.94552 0.17849 0.0
H2293 H 0.86164 0.87265 0.19489 0.0
H2294 H 0.93099 0.79735 0.19825 0.0
H2295 H 0.90942 0.82967 0.19788 0.0
C2296 C 0.67637 0.20343 0.93966 0.0
C2297 C 0.68916 0.20126 0.93362 0.0
C2298 C 0.66316 0.18569 0.93982 0.0
C2299 C 0.64329 0.13243 0.92692 0.0
H2300 H 0.62254 0.11536 0.94844 0.0
C2301 C 0.59817 0.04525 0.93142 0.0
C2302 C 0.5829 0.05163 0.93516 0.0
C2303 C 0.61126 0.0632 0.93138 0.0
C2304 C 0.62822 0.11998 0.94238 0.0
H2305 H 0.69737 0.17877 0.92274 0.0
H2306 H 0.67536 0.14719 0.92341 0.0
H2307 H 0.64482 0.1473 0.948 0.0
H2308 H 0.56956 0.08138 0.94205 0.0
H2309 H 0.59255 0.11239 0.94218 0.0
H2310 H 0.62697 0.10422 0.92142 0.0
C2311 C 0.67514 0.16295 0.92793 0.0
C2312 C 0.64093 0.13853 0.94209 0.0
C2313 C 0.68811 0.18097 0.92766 0.0
C2314 C 0.58117 0.07598 0.93909 0.0
C2315 C 0.59434 0.09368 0.9392 0.0
C2316 C 0.63083 0.1135 0.92725 0.0
C2317 C 0.66243 0.16489 0.93402 0.0
C2318 C 0.64868 0.14518 0.93435 0.0
C2319 C 0.60946 0.08765 0.93524 0.0
C2320 C 0.62311 0.10713 0.93497 0.0
H2321 H 0.67668 0.21852 0.94442 0.0
H2322 H 0.65353 0.18838 0.94451 0.0
H2323 H 0.6485 0.13725 0.92078 0.0
H2324 H 0.59981 0.02669 0.92832 0.0
H2325 H 0.62281 0.05799 0.92832 0.0
C2326 C 0.18781 0.6817 0.92804 0.0
C2327 C 0.18893 0.70188 0.93404 0.0
C2328 C 0.17484 0.66369 0.92832 0.0
C2329 C 0.14086 0.63896 0.94255 0.0
H2330 H 0.12669 0.60492 0.92186 0.0
C2331 C 0.08121 0.57613 0.93965 0.0
C2332 C 0.08287 0.55196 0.9356 0.0
C2333 C 0.09438 0.59383 0.93978 0.0
C2334 C 0.13061 0.61412 0.9277 0.0
H2335 H 0.17655 0.71906 0.94489 0.0
H2336 H 0.15339 0.6889 0.94499 0.0
H2337 H 0.14812 0.6381 0.92121 0.0
H2338 H 0.09966 0.52731 0.92857 0.0
H2339 H 0.12266 0.55861 0.92861 0.0
H2340 H 0.12263 0.61554 0.94892 0.0
C2341 C 0.16297 0.68628 0.94027 0.0
C2342 C 0.14301 0.63314 0.92736 0.0
C2343 C 0.17619 0.70402 0.94011 0.0
C2344 C 0.09808 0.54573 0.93177 0.0
C2345 C 0.11117 0.56369 0.93175 0.0
C2346 C 0.1282 0.62031 0.94285 0.0
C2347 C 0.16219 0.66555 0.93445 0.0
C2348 C 0.14847 0.64579 0.93479 0.0
C2349 C 0.10942 0.58799 0.93572 0.0
C2350 C 0.12302 0.60755 0.93544 0.0
H2351 H 0.19703 0.67955 0.92311 0.0
H2352 H 0.17501 0.64799 0.92378 0.0
H2353 H 0.14481 0.64766 0.94845 0.0
H2354 H 0.06964 0.58141 0.94268 0.0
H2355 H 0.09263 0.61242 0.94285 0.0
C2356 C 0.58493 0.68725 0.82898 0.0
C2357 C 0.58404 0.70572 0.82238 0.0
C2358 C 0.59769 0.6687 0.82918 0.0
C2359 C 0.62976 0.63816 0.81516 0.0
H2360 H 0.64768 0.61267 0.83647 0.0
C2361 C 0.68928 0.5758 0.8167 0.0
C2362 C 0.68924 0.5537 0.82203 0.0
C2363 C 0.67635 0.59392 0.81697 0.0
C2364 C 0.64271 0.61942 0.83046 0.0
H2365 H 0.59631 0.71972 0.81101 0.0
H2366 H 0.61871 0.68811 0.81148 0.0
H2367 H 0.62577 0.64538 0.83657 0.0
H2368 H 0.67533 0.53395 0.83193 0.0
H2369 H 0.653 0.56598 0.83252 0.0
H2370 H 0.64697 0.6126 0.80907 0.0
C2371 C 0.6093 0.68724 0.81637 0.0
C2372 C 0.63007 0.63819 0.83051 0.0
C2373 C 0.59647 0.70556 0.81612 0.0
C2374 C 0.67598 0.55073 0.82778 0.0
C2375 C 0.66311 0.56909 0.82811 0.0
C2376 C 0.64249 0.61966 0.81512 0.0
C2377 C 0.61002 0.66825 0.82284 0.0
C2378 C 0.62343 0.64796 0.82285 0.0
C2379 C 0.66305 0.5908 0.82264 0.0
C2380 C 0.64919 0.61009 0.82276 0.0
H2381 H 0.57546 0.6866 0.83385 0.0
H2382 H 0.5976 0.6543 0.83421 0.0
H2383 H 0.62477 0.64454 0.80912 0.0
H2384 H 0.69942 0.57939 0.81235 0.0
H2385 H 0.67689 0.61065 0.81278 0.0
C2386 C 0.09473 0.20345 0.81606 0.0
C2387 C 0.08212 0.20141 0.82221 0.0
C2388 C 0.10795 0.18568 0.81587 0.0
C2389 C 0.12826 0.13252 0.82885 0.0
H2390 H 0.14876 0.11571 0.80731 0.0
C2391 C 0.17394 0.04587 0.82448 0.0
C2392 C 0.18902 0.05225 0.82052 0.0
C2393 C 0.16075 0.0637 0.82456 0.0
C2394 C 0.14317 0.12025 0.81338 0.0
H2395 H 0.07427 0.17904 0.83325 0.0
H2396 H 0.09627 0.14746 0.83255 0.0
H2397 H 0.12637 0.14744 0.80776 0.0
H2398 H 0.20189 0.08192 0.81328 0.0
H2399 H 0.17875 0.11266 0.81321 0.0
H2400 H 0.1448 0.10445 0.83437 0.0
C2401 C 0.09634 0.16314 0.82795 0.0
C2402 C 0.13037 0.13869 0.81367 0.0
C2403 C 0.08336 0.18117 0.82824 0.0
C2404 C 0.19044 0.07649 0.81642 0.0
C2405 C 0.17717 0.09405 0.81634 0.0
C2406 C 0.14081 0.1137 0.82852 0.0
C2407 C 0.10889 0.16497 0.82176 0.0
C2408 C 0.1227 0.14527 0.82142 0.0
C2409 C 0.16224 0.08804 0.82051 0.0
C2410 C 0.14848 0.10741 0.82079 0.0
H2411 H 0.09429 0.21847 0.81123 0.0
H2412 H 0.11743 0.18833 0.81109 0.0
H2413 H 0.12314 0.13726 0.835 0.0
H2414 H 0.17252 0.02742 0.82773 0.0
H2415 H 0.14937 0.05845 0.82778 0.0
C2416 C 0.42359 0.45582 0.56699 0.0
C2417 C 0.4372 0.45397 0.57256 0.0
C2418 C 0.41075 0.43742 0.56727 0.0
C2419 C 0.40173 0.36963 0.57304 0.0
H2420 H 0.35567 0.39118 0.57328 0.0
C2421 C 0.34648 0.29907 0.56687 0.0
C2422 C 0.33297 0.30054 0.57251 0.0
C2423 C 0.35932 0.31745 0.56715 0.0
C2424 C 0.36847 0.38484 0.57324 0.0
H2425 H 0.44801 0.43104 0.5827 0.0
H2426 H 0.42576 0.39858 0.58306 0.0
H2427 H 0.37769 0.424 0.57324 0.0
H2428 H 0.32238 0.32281 0.58281 0.0
H2429 H 0.34464 0.35519 0.58319 0.0
H2430 H 0.39252 0.33048 0.57286 0.0
C2431 C 0.42496 0.41447 0.57854 0.0
C2432 C 0.38108 0.40365 0.57316 0.0
C2433 C 0.43764 0.43318 0.57839 0.0
C2434 C 0.33266 0.32094 0.57843 0.0
C2435 C 0.34535 0.33962 0.5786 0.0
C2436 C 0.38912 0.35083 0.57294 0.0
C2437 C 0.41134 0.41635 0.57299 0.0
C2438 C 0.39789 0.3963 0.57309 0.0
C2439 C 0.35886 0.33813 0.57296 0.0
C2440 C 0.37231 0.35817 0.57308 0.0
H2441 H 0.42285 0.47159 0.56244 0.0
H2442 H 0.40051 0.43937 0.56287 0.0
H2443 H 0.41453 0.3633 0.57292 0.0
H2444 H 0.34714 0.28359 0.56224 0.0
H2445 H 0.36947 0.31579 0.56268 0.0
C2446 C 0.8279 0.8292 0.56907 0.0
C2447 C 0.83048 0.80376 0.57207 0.0
C2448 C 0.84061 0.84775 0.56935 0.0
C2449 C 0.88332 0.86027 0.57841 0.0
H2450 H 0.88287 0.91521 0.56155 0.0
C2451 C 0.93241 0.94336 0.57905 0.0
C2452 C 0.93709 0.95545 0.57135 0.0
C2453 C 0.91927 0.92542 0.57935 0.0
C2454 C 0.8835 0.89986 0.56625 0.0
H2455 H 0.84854 0.77788 0.57771 0.0
H2456 H 0.871 0.80964 0.57782 0.0
H2457 H 0.86141 0.88266 0.56141 0.0
H2458 H 0.93083 0.95794 0.55795 0.0
H2459 H 0.90919 0.92574 0.55835 0.0
H2460 H 0.90609 0.87652 0.58287 0.0
C2461 C 0.859 0.81578 0.5755 0.0
C2462 C 0.8708 0.88126 0.56629 0.0
C2463 C 0.84612 0.79737 0.5754 0.0
C2464 C 0.92807 0.94891 0.564 0.0
C2465 C 0.91522 0.93058 0.56426 0.0
C2466 C 0.89625 0.87857 0.57825 0.0
C2467 C 0.85652 0.84136 0.57245 0.0
C2468 C 0.87036 0.86115 0.5724 0.0
C2469 C 0.9105 0.91848 0.57194 0.0
C2470 C 0.89659 0.89881 0.57218 0.0
H2471 H 0.81591 0.83488 0.56659 0.0
H2472 H 0.8378 0.86721 0.56717 0.0
H2473 H 0.88351 0.84554 0.58333 0.0
H2474 H 0.93902 0.94735 0.58487 0.0
H2475 H 0.91601 0.91714 0.58545 0.0
C2476 C 0.4236 0.79551 0.68082 0.0
C2477 C 0.43929 0.80221 0.68399 0.0
C2478 C 0.41063 0.81377 0.68067 0.0
C2479 C 0.3988 0.87945 0.68952 0.0
H2480 H 0.36307 0.87373 0.67323 0.0
C2481 C 0.3414 0.94674 0.69175 0.0
C2482 C 0.33213 0.9529 0.68442 0.0
C2483 C 0.35428 0.92848 0.69152 0.0
C2484 C 0.37303 0.87606 0.67776 0.0
H2485 H 0.45386 0.8337 0.68915 0.0
H2486 H 0.43182 0.86576 0.68848 0.0
H2487 H 0.38577 0.84296 0.67282 0.0
H2488 H 0.32981 0.94419 0.67098 0.0
H2489 H 0.35289 0.91411 0.67045 0.0
H2490 H 0.38673 0.91347 0.69411 0.0
C2491 C 0.42904 0.84618 0.68646 0.0
C2492 C 0.38603 0.85788 0.67764 0.0
C2493 C 0.44183 0.82779 0.68678 0.0
C2494 C 0.33661 0.9405 0.67678 0.0
C2495 C 0.34979 0.92264 0.67651 0.0
C2496 C 0.38603 0.89793 0.68952 0.0
C2497 C 0.41308 0.83949 0.68352 0.0
C2498 C 0.39915 0.85913 0.68354 0.0
C2499 C 0.35881 0.91609 0.68389 0.0
C2500 C 0.37278 0.89653 0.6837 0.0
H2501 H 0.42121 0.7759 0.67867 0.0
H2502 H 0.3986 0.80741 0.67848 0.0
H2503 H 0.40831 0.88113 0.69432 0.0
H2504 H 0.33881 0.95603 0.69775 0.0
H2505 H 0.36051 0.92393 0.69742 0.0
C2506 C 0.84723 0.45668 0.68889 0.0
C2507 C 0.83316 0.45405 0.68369 0.0
C2508 C 0.86007 0.43829 0.68864 0.0
C2509 C 0.86861 0.36983 0.68409 0.0
H2510 H 0.91453 0.39114 0.68191 0.0
C2511 C 0.92462 0.30065 0.6903 0.0
C2512 C 0.93742 0.3009 0.68423 0.0
C2513 C 0.91173 0.31895 0.68996 0.0
C2514 C 0.90176 0.38486 0.6825 0.0
H2515 H 0.82148 0.42979 0.67422 0.0
H2516 H 0.84371 0.39725 0.67394 0.0
H2517 H 0.89251 0.42396 0.68185 0.0
H2518 H 0.94671 0.32087 0.67306 0.0
H2519 H 0.92436 0.35312 0.67255 0.0
H2520 H 0.87788 0.33078 0.68494 0.0
C2521 C 0.84489 0.41378 0.67813 0.0
C2522 C 0.88916 0.40368 0.68252 0.0
C2523 C 0.83222 0.4325 0.67825 0.0
C2524 C 0.93698 0.31996 0.67779 0.0
C2525 C 0.92425 0.33857 0.67755 0.0
C2526 C 0.88124 0.35105 0.68425 0.0
C2527 C 0.85898 0.41645 0.68332 0.0
C2528 C 0.87241 0.3964 0.68328 0.0
C2529 C 0.91145 0.33831 0.68362 0.0
C2530 C 0.89798 0.35831 0.68343 0.0
H2531 H 0.84832 0.47306 0.69315 0.0
H2532 H 0.8707 0.44084 0.69275 0.0
H2533 H 0.85585 0.36358 0.68475 0.0
H2534 H 0.92455 0.28621 0.69533 0.0
H2535 H 0.90214 0.31827 0.69477 0.0
C2536 C 0.59535 0.5502 0.43974 0.0
C2537 C 0.58242 0.55279 0.43379 0.0
C2538 C 0.60852 0.56801 0.43992 0.0
C2539 C 0.62808 0.62229 0.42723 0.0
H2540 H 0.64913 0.63785 0.44873 0.0
C2541 C 0.67361 0.70882 0.43183 0.0
C2542 C 0.68882 0.70221 0.43562 0.0
C2543 C 0.66045 0.69098 0.43176 0.0
C2544 C 0.64338 0.63366 0.44268 0.0
H2545 H 0.57389 0.57613 0.42311 0.0
H2546 H 0.59589 0.60776 0.42382 0.0
H2547 H 0.62685 0.60595 0.44823 0.0
H2548 H 0.70197 0.67215 0.44254 0.0
H2549 H 0.67889 0.64134 0.4426 0.0
H2550 H 0.64435 0.65084 0.42178 0.0
C2551 C 0.59623 0.59164 0.42824 0.0
C2552 C 0.63066 0.61513 0.44235 0.0
C2553 C 0.58328 0.57358 0.42795 0.0
C2554 C 0.69041 0.67774 0.43954 0.0
C2555 C 0.67718 0.66015 0.43961 0.0
C2556 C 0.64056 0.64118 0.42759 0.0
C2557 C 0.60908 0.58927 0.43424 0.0
C2558 C 0.62281 0.60902 0.43461 0.0
C2559 C 0.66212 0.6664 0.43562 0.0
C2560 C 0.64841 0.647 0.43531 0.0
H2561 H 0.59519 0.53472 0.44441 0.0
H2562 H 0.61826 0.56499 0.44454 0.0
H2563 H 0.62277 0.6179 0.42109 0.0
H2564 H 0.67206 0.72747 0.42872 0.0
H2565 H 0.64895 0.69638 0.42867 0.0
C2566 C 0.08512 0.06979 0.42765 0.0
C2567 C 0.08334 0.05084 0.43407 0.0
C2568 C 0.098 0.08798 0.42789 0.0
C2569 C 0.12962 0.11653 0.44261 0.0
H2570 H 0.14744 0.14482 0.42165 0.0
C2571 C 0.1894 0.17911 0.44095 0.0
C2572 C 0.18914 0.20133 0.43571 0.0
C2573 C 0.17616 0.16156 0.44096 0.0
C2574 C 0.14248 0.1373 0.42756 0.0
H2575 H 0.09438 0.03607 0.4457 0.0
H2576 H 0.11733 0.06668 0.44585 0.0
H2577 H 0.12601 0.11159 0.4211 0.0
H2578 H 0.17463 0.22267 0.42646 0.0
H2579 H 0.15147 0.19174 0.4264 0.0
H2580 H 0.14665 0.14176 0.44902 0.0
C2581 C 0.10837 0.06812 0.44075 0.0
C2582 C 0.1301 0.11822 0.42727 0.0
C2583 C 0.09529 0.05013 0.44059 0.0
C2584 C 0.17515 0.20582 0.43059 0.0
C2585 C 0.16197 0.188 0.43051 0.0
C2586 C 0.14219 0.13532 0.44289 0.0
C2587 C 0.10982 0.08759 0.43447 0.0
C2588 C 0.12339 0.10757 0.43479 0.0
C2589 C 0.16237 0.16557 0.43566 0.0
C2590 C 0.14873 0.14601 0.43537 0.0
H2591 H 0.07649 0.07079 0.4224 0.0
H2592 H 0.0984 0.10271 0.42297 0.0
H2593 H 0.12464 0.10938 0.44856 0.0
H2594 H 0.19997 0.17517 0.445 0.0
H2595 H 0.17692 0.14442 0.44496 0.0
C2596 C 0.67606 0.05112 0.31628 0.0
C2597 C 0.68875 0.05324 0.32238 0.0
C2598 C 0.66283 0.06886 0.31611 0.0
C2599 C 0.64275 0.12193 0.32901 0.0
H2600 H 0.62241 0.13945 0.30743 0.0
C2601 C 0.59781 0.20934 0.32451 0.0
C2602 C 0.58261 0.2031 0.32067 0.0
C2603 C 0.61089 0.19136 0.32456 0.0
C2604 C 0.62797 0.13471 0.31351 0.0
H2605 H 0.69674 0.07552 0.33334 0.0
H2606 H 0.67473 0.10707 0.33264 0.0
H2607 H 0.64463 0.1074 0.30792 0.0
H2608 H 0.56938 0.17358 0.31363 0.0
H2609 H 0.59235 0.14252 0.31352 0.0
H2610 H 0.62638 0.15013 0.33449 0.0
C2611 C 0.67459 0.09139 0.32809 0.0
C2612 C 0.64065 0.11609 0.31382 0.0
C2613 C 0.68757 0.07339 0.32838 0.0
C2614 C 0.58094 0.17887 0.31666 0.0
C2615 C 0.5941 0.16115 0.31657 0.0
C2616 C 0.63033 0.14093 0.32866 0.0
C2617 C 0.66199 0.08955 0.32194 0.0
C2618 C 0.64825 0.10929 0.32159 0.0
C2619 C 0.60914 0.16702 0.32062 0.0
C2620 C 0.62275 0.14746 0.32091 0.0
H2621 H 0.67646 0.03612 0.3115 0.0
H2622 H 0.65328 0.06624 0.31136 0.0
H2623 H 0.64784 0.117 0.33516 0.0
H2624 H 0.5994 0.22781 0.32768 0.0
H2625 H 0.62238 0.19646 0.32769 0.0
C2626 C 0.18727 0.573 0.32834 0.0
C2627 C 0.18867 0.55324 0.32221 0.0
C2628 C 0.17439 0.59115 0.32801 0.0
C2629 C 0.14128 0.61719 0.31348 0.0
H2630 H 0.1261 0.64998 0.33419 0.0
C2631 C 0.0816 0.68011 0.31601 0.0
C2632 C 0.0831 0.70404 0.32022 0.0
C2633 C 0.09474 0.66236 0.31594 0.0
C2634 C 0.13031 0.64114 0.32835 0.0
H2635 H 0.17685 0.537 0.31105 0.0
H2636 H 0.15381 0.56737 0.31084 0.0
H2637 H 0.1474 0.6166 0.33491 0.0
H2638 H 0.09957 0.7282 0.32762 0.0
H2639 H 0.12253 0.69679 0.32768 0.0
H2640 H 0.12345 0.64114 0.30702 0.0
C2641 C 0.16313 0.56956 0.31572 0.0
C2642 C 0.14264 0.622 0.32873 0.0
C2643 C 0.17627 0.55168 0.31594 0.0
C2644 C 0.09812 0.70998 0.32428 0.0
C2645 C 0.11118 0.69195 0.32436 0.0
C2646 C 0.12869 0.63594 0.31313 0.0
C2647 C 0.16209 0.58987 0.32169 0.0
C2648 C 0.14846 0.60979 0.32129 0.0
C2649 C 0.1096 0.6679 0.32022 0.0
C2650 C 0.12315 0.64825 0.32055 0.0
H2651 H 0.19621 0.57469 0.33343 0.0
H2652 H 0.17436 0.60652 0.33268 0.0
H2653 H 0.14553 0.60885 0.30757 0.0
H2654 H 0.07017 0.67506 0.31281 0.0
H2655 H 0.09312 0.64396 0.31274 0.0
C2656 C 0.50525 0.99084 0.03529 0.0
C2657 C 0.51456 0.00956 0.03965 0.0
C2658 C 0.5059 0.98938 0.02642 0.0
C2659 C 0.51559 0.02987 0.00753 0.0
H2660 H 0.51306 0.9642 0.99566 0.0
C2661 C 0.52291 0.02057 0.97091 0.0
C2662 C 0.51306 1.00205 0.96679 0.0
C2663 C 0.52273 0.02247 0.97979 0.0
C2664 C 0.51356 0.98275 0.99887 0.0
H2665 H 0.53188 0.0413 0.03825 0.0
H2666 H 0.53343 0.03843 0.02273 0.0
H2667 H 0.51459 0.96454 0.01111 0.0
H2668 H 0.49502 0.97148 0.96858 0.0
H2669 H 0.4944 0.975 0.98408 0.0
H2670 H 0.51461 0.04804 0.99526 0.0
C2671 C 0.5255 0.02498 0.02613 0.0
C2672 C 0.51447 0.98293 0.00775 0.0
C2673 C 0.52483 0.02642 0.03501 0.0
C2674 C 0.50261 0.98605 0.97164 0.0
C2675 C 0.50243 0.98788 0.98051 0.0
C2676 C 0.51471 0.02968 0.99864 0.0
C2677 C 0.51581 0.00674 0.0217 0.0
C2678 C 0.51545 0.0065 0.01221 0.0
C2679 C 0.51275 0.00574 0.98472 0.0
C2680 C 0.51361 0.00611 0.99419 0.0
H2681 H 0.4969 0.97811 0.03873 0.0
H2682 H 0.49807 0.97536 0.02326 0.0
H2683 H 0.51603 0.04842 0.01074 0.0
H2684 H 0.53125 0.03282 0.96728 0.0
H2685 H 0.53093 0.03629 0.98281 0.0
C2686 C 0.74525 0.22849 0.03503 0.0
C2687 C 0.75542 0.24544 0.03963 0.0
C2688 C 0.74471 0.22982 0.02614 0.0
C2689 C 0.75606 0.27152 0.00761 0.0
H2690 H 0.75654 0.2061 0.99549 0.0
C2691 C 0.76891 0.26766 0.97163 0.0
C2692 C 0.75861 0.25149 0.9668 0.0
C2693 C 0.76888 0.266 0.9805 0.0
C2694 C 0.75626 0.22455 0.99877 0.0
H2695 H 0.77303 0.27697 0.03866 0.0
H2696 H 0.7721 0.27953 0.02317 0.0
H2697 H 0.75468 0.20609 0.01095 0.0
H2698 H 0.7405 0.2206 0.96733 0.0
H2699 H 0.74047 0.21744 0.98287 0.0
H2700 H 0.75774 0.28997 0.99543 0.0
C2701 C 0.76424 0.26552 0.02637 0.0
C2702 C 0.75513 0.22456 0.00765 0.0
C2703 C 0.76475 0.26417 0.03524 0.0
C2704 C 0.74872 0.23297 0.97095 0.0
C2705 C 0.74871 0.23125 0.97984 0.0
C2706 C 0.75722 0.2715 0.99874 0.0
C2707 C 0.75446 0.24803 0.02168 0.0
C2708 C 0.75505 0.24806 0.01219 0.0
C2709 C 0.75851 0.24816 0.98473 0.0
C2710 C 0.7574 0.24802 0.9942 0.0
H2711 H 0.73818 0.2136 0.0383 0.0
H2712 H 0.73688 0.21627 0.02277 0.0
H2713 H 0.75578 0.28999 0.01087 0.0
H2714 H 0.77652 0.28223 0.96854 0.0
H2715 H 0.77679 0.27902 0.98405 0.0
C2716 C 0.52474 0.22791 0.221 0.0
C2717 C 0.51445 0.24472 0.21636 0.0
C2718 C 0.52537 0.22933 0.22988 0.0
C2719 C 0.51409 0.27119 0.24828 0.0
H2720 H 0.51427 0.20599 0.26071 0.0
C2721 C 0.50196 0.26781 0.28434 0.0
C2722 C 0.51248 0.25194 0.2892 0.0
C2723 C 0.50181 0.26596 0.27548 0.0
C2724 C 0.51437 0.22438 0.25735 0.0
H2725 H 0.49672 0.27608 0.21727 0.0
H2726 H 0.49781 0.27879 0.23274 0.0
H2727 H 0.51584 0.20574 0.24524 0.0
H2728 H 0.53079 0.22135 0.28873 0.0
H2729 H 0.53051 0.21783 0.2732 0.0
H2730 H 0.51252 0.28983 0.26038 0.0
C2731 C 0.50569 0.26483 0.22958 0.0
C2732 C 0.51533 0.22426 0.24846 0.0
C2733 C 0.50509 0.26338 0.22071 0.0
C2734 C 0.5224 0.23349 0.28509 0.0
C2735 C 0.52224 0.23156 0.27621 0.0
C2736 C 0.51309 0.27131 0.25715 0.0
C2737 C 0.51561 0.24749 0.23431 0.0
C2738 C 0.51517 0.24767 0.2438 0.0
C2739 C 0.51222 0.24821 0.27128 0.0
C2740 C 0.51315 0.24791 0.26181 0.0
H2741 H 0.53184 0.21307 0.21777 0.0
H2742 H 0.53331 0.21591 0.23329 0.0
H2743 H 0.51419 0.28962 0.24493 0.0
H2744 H 0.49432 0.28233 0.2874 0.0
H2745 H 0.49374 0.27877 0.27191 0.0
C2746 C 0.76514 0.99111 0.22111 0.0
C2747 C 0.75575 0.00971 0.2167 0.0
C2748 C 0.76467 0.98992 0.22999 0.0
C2749 C 0.75548 0.03114 0.24865 0.0
H2750 H 0.75847 0.96595 0.26096 0.0
C2751 C 0.74912 0.02289 0.28537 0.0
C2752 C 0.75913 0.00454 0.28952 0.0
C2753 C 0.74913 0.02464 0.27648 0.0
C2754 C 0.75785 0.98436 0.25763 0.0
H2755 H 0.73845 0.04149 0.21799 0.0
H2756 H 0.73721 0.03908 0.23353 0.0
H2757 H 0.75643 0.96567 0.24553 0.0
H2758 H 0.7773 0.97417 0.2878 0.0
H2759 H 0.77762 0.97743 0.27228 0.0
H2760 H 0.75683 0.04979 0.26078 0.0
C2761 C 0.74506 0.02552 0.23017 0.0
C2762 C 0.75663 0.98419 0.24876 0.0
C2763 C 0.74556 0.0267 0.22128 0.0
C2764 C 0.76961 0.98863 0.2847 0.0
C2765 C 0.7696 0.9903 0.27583 0.0
C2766 C 0.75664 0.0313 0.25753 0.0
C2767 C 0.75487 0.00744 0.23465 0.0
C2768 C 0.75549 0.00757 0.24414 0.0
C2769 C 0.75908 0.0079 0.27159 0.0
C2770 C 0.75793 0.00791 0.26213 0.0
H2771 H 0.77343 0.97829 0.21771 0.0
H2772 H 0.77258 0.97601 0.2332 0.0
H2773 H 0.75492 0.04956 0.24532 0.0
H2774 H 0.74076 0.03505 0.28898 0.0
H2775 H 0.74079 0.03827 0.27344 0.0
C2776 C 0.26974 0.76662 0.97175 0.0
C2777 C 0.25929 0.75071 0.96691 0.0
C2778 C 0.26971 0.7649 0.98062 0.0
C2779 C 0.25673 0.72373 0.99888 0.0
H2780 H 0.2565 0.78925 0.01094 0.0
C2781 C 0.24548 0.72804 0.03512 0.0
C2782 C 0.25567 0.74496 0.03973 0.0
C2783 C 0.24503 0.72929 0.02624 0.0
C2784 C 0.25671 0.77076 0.00769 0.0
H2785 H 0.24095 0.72015 0.96742 0.0
H2786 H 0.24093 0.71685 0.98296 0.0
H2787 H 0.25857 0.78911 0.99551 0.0
H2788 H 0.27339 0.77634 0.03877 0.0
H2789 H 0.27261 0.77875 0.02328 0.0
H2790 H 0.25497 0.70537 0.01107 0.0
C2791 C 0.24927 0.73052 0.97993 0.0
C2792 C 0.25794 0.77066 0.99883 0.0
C2793 C 0.24929 0.73231 0.97105 0.0
C2794 C 0.2651 0.76357 0.03535 0.0
C2795 C 0.26467 0.76484 0.02647 0.0
C2796 C 0.25553 0.72381 0.00776 0.0
C2797 C 0.25919 0.74724 0.98484 0.0
C2798 C 0.25803 0.74715 0.9943 0.0
C2799 C 0.25488 0.74738 0.02178 0.0
C2800 C 0.25554 0.74733 0.01229 0.0
H2801 H 0.27743 0.7811 0.96866 0.0
H2802 H 0.2777 0.77777 0.98418 0.0
H2803 H 0.25692 0.70526 0.99561 0.0
H2804 H 0.23834 0.71324 0.03839 0.0
H2805 H 0.23718 0.71578 0.02285 0.0
C2806 C 0.50482 0.76618 0.72048 0.0
C2807 C 0.51438 0.74709 0.71644 0.0
C2808 C 0.50497 0.76845 0.72933 0.0
C2809 C 0.51334 0.72941 0.74867 0.0
H2810 H 0.51061 0.79589 0.76005 0.0
C2811 C 0.51935 0.74025 0.78519 0.0
C2812 C 0.50958 0.75912 0.78922 0.0
C2813 C 0.51939 0.73812 0.77633 0.0
C2814 C 0.51114 0.77713 0.75698 0.0
H2815 H 0.53168 0.7156 0.7184 0.0
H2816 H 0.53232 0.71983 0.73389 0.0
H2817 H 0.51289 0.7945 0.74462 0.0
H2818 H 0.49219 0.79046 0.78721 0.0
H2819 H 0.49193 0.78652 0.77171 0.0
H2820 H 0.51159 0.71205 0.76103 0.0
C2821 C 0.52458 0.73296 0.73025 0.0
C2822 C 0.5125 0.77634 0.74811 0.0
C2823 C 0.52443 0.73073 0.72138 0.0
C2824 C 0.4996 0.77549 0.78424 0.0
C2825 C 0.49965 0.77343 0.77537 0.0
C2826 C 0.51199 0.73021 0.75754 0.0
C2827 C 0.5146 0.75152 0.73436 0.0
C2828 C 0.51362 0.75247 0.74383 0.0
C2829 C 0.50978 0.755 0.77129 0.0
C2830 C 0.51085 0.75408 0.76182 0.0
H2831 H 0.49664 0.77856 0.7168 0.0
H2832 H 0.49696 0.78272 0.73225 0.0
H2833 H 0.51385 0.71065 0.7456 0.0
H2834 H 0.52748 0.72787 0.7889 0.0
H2835 H 0.52752 0.72397 0.77343 0.0
C2836 C 0.26471 0.99011 0.72076 0.0
C2837 C 0.25526 0.00873 0.71639 0.0
C2838 C 0.26431 0.98881 0.72964 0.0
C2839 C 0.25521 0.02979 0.74837 0.0
H2840 H 0.25847 0.9645 0.7606 0.0
C2841 C 0.24928 0.02119 0.78509 0.0
C2842 C 0.25939 0.00287 0.7892 0.0
C2843 C 0.24918 0.02299 0.77621 0.0
C2844 C 0.25777 0.98294 0.75729 0.0
H2845 H 0.23792 0.04042 0.71776 0.0
H2846 H 0.23679 0.03781 0.7333 0.0
H2847 H 0.25627 0.96436 0.74518 0.0
H2848 H 0.27763 0.97264 0.7874 0.0
H2849 H 0.27773 0.97599 0.77188 0.0
H2850 H 0.25665 0.04834 0.76051 0.0
C2851 C 0.24465 0.02432 0.7299 0.0
C2852 C 0.25647 0.98285 0.74842 0.0
C2853 C 0.24507 0.02561 0.72102 0.0
C2854 C 0.26985 0.98706 0.78434 0.0
C2855 C 0.26972 0.98878 0.77547 0.0
C2856 C 0.25647 0.02987 0.75724 0.0
C2857 C 0.25452 0.00624 0.73435 0.0
C2858 C 0.25524 0.00627 0.74383 0.0
C2859 C 0.2591 0.00635 0.77128 0.0
C2860 C 0.25785 0.00645 0.76182 0.0
H2861 H 0.27301 0.97738 0.71732 0.0
H2862 H 0.27228 0.9749 0.73281 0.0
H2863 H 0.25459 0.04824 0.74506 0.0
H2864 H 0.24094 0.03328 0.78874 0.0
H2865 H 0.24076 0.03659 0.77321 0.0
C2866 C 0.51859 0.52218 0.47117 0.0
C2867 C 0.51179 0.50058 0.46701 0.0
C2868 C 0.51773 0.52414 0.48004 0.0
C2869 C 0.51721 0.48409 0.49902 0.0
H2870 H 0.49966 0.54407 0.51083 0.0
C2871 C 0.52447 0.51288 0.53526 0.0
C2872 C 0.50917 0.51116 0.53947 0.0
C2873 C 0.52526 0.51051 0.52639 0.0
C2874 C 0.50469 0.52731 0.50758 0.0
H2875 H 0.49856 0.4644 0.46877 0.0
H2876 H 0.49746 0.46745 0.4843 0.0
H2877 H 0.49959 0.54322 0.49522 0.0
H2878 H 0.48289 0.5042 0.53787 0.0
H2879 H 0.48421 0.50093 0.52234 0.0
H2880 H 0.52256 0.46843 0.51141 0.0
C2881 C 0.50328 0.48295 0.48071 0.0
C2882 C 0.50466 0.52683 0.49869 0.0
C2883 C 0.5038 0.4813 0.47185 0.0
C2884 C 0.4948 0.50593 0.53473 0.0
C2885 C 0.49553 0.50409 0.52589 0.0
C2886 C 0.51756 0.48482 0.50791 0.0
C2887 C 0.51043 0.50422 0.4849 0.0
C2888 C 0.51076 0.5051 0.49433 0.0
C2889 C 0.51072 0.5067 0.52164 0.0
C2890 C 0.51118 0.50635 0.51225 0.0
H2891 H 0.52504 0.53707 0.46759 0.0
H2892 H 0.52337 0.54069 0.48313 0.0
H2893 H 0.5221 0.46718 0.4958 0.0
H2894 H 0.5357 0.51673 0.53881 0.0
H2895 H 0.53711 0.51246 0.52322 0.0
C2896 C 0.74508 0.72869 0.53519 0.0
C2897 C 0.75527 0.74559 0.5398 0.0
C2898 C 0.74466 0.7299 0.5263 0.0
C2899 C 0.75657 0.77115 0.50774 0.0
H2900 H 0.75659 0.70555 0.49572 0.0
C2901 C 0.7698 0.76654 0.47181 0.0
C2902 C 0.75926 0.75076 0.46697 0.0
C2903 C 0.76973 0.76488 0.48068 0.0
C2904 C 0.75645 0.72404 0.49897 0.0
H2905 H 0.77303 0.77692 0.53884 0.0
H2906 H 0.77232 0.77925 0.52335 0.0
H2907 H 0.75455 0.70581 0.51117 0.0
H2908 H 0.74074 0.72047 0.46749 0.0
H2909 H 0.74066 0.71726 0.48303 0.0
H2910 H 0.7586 0.78937 0.49553 0.0
C2911 C 0.76435 0.76539 0.52654 0.0
C2912 C 0.75521 0.72422 0.50784 0.0
C2913 C 0.76473 0.76417 0.53541 0.0
C2914 C 0.74914 0.73253 0.47111 0.0
C2915 C 0.74909 0.73079 0.48 0.0
C2916 C 0.75786 0.77096 0.49887 0.0
C2917 C 0.75456 0.74792 0.52184 0.0
C2918 C 0.75528 0.74779 0.51236 0.0
C2919 C 0.75909 0.7474 0.4849 0.0
C2920 C 0.75788 0.74741 0.49437 0.0
H2921 H 0.73791 0.71392 0.53846 0.0
H2922 H 0.7368 0.7164 0.52292 0.0
H2923 H 0.75641 0.78968 0.51096 0.0
H2924 H 0.77758 0.78089 0.46872 0.0
H2925 H 0.77778 0.77765 0.48424 0.0
C2926 C 0.7723 0.47613 0.78469 0.0
C2927 C 0.76435 0.49553 0.78944 0.0
C2928 C 0.77277 0.47763 0.7758 0.0
C2929 C 0.77246 0.52039 0.75767 0.0
H2930 H 0.74979 0.46588 0.74527 0.0
C2931 C 0.77798 0.50449 0.72137 0.0
C2932 C 0.76303 0.50891 0.71701 0.0
C2933 C 0.77812 0.50184 0.7302 0.0
C2934 C 0.75616 0.48116 0.74867 0.0
H2935 H 0.75069 0.53169 0.78862 0.0
H2936 H 0.75252 0.53518 0.77312 0.0
H2937 H 0.75121 0.46395 0.76087 0.0
H2938 H 0.73643 0.512 0.71833 0.0
H2939 H 0.7366 0.50618 0.73388 0.0
H2940 H 0.77781 0.53722 0.74547 0.0
C2941 C 0.75825 0.51876 0.77629 0.0
C2942 C 0.75705 0.48001 0.75755 0.0
C2943 C 0.75739 0.51692 0.78515 0.0
C2944 C 0.74809 0.50884 0.72158 0.0
C2945 C 0.7482 0.50555 0.73043 0.0
C2946 C 0.77193 0.5212 0.74879 0.0
C2947 C 0.76561 0.49884 0.77153 0.0
C2948 C 0.76514 0.49968 0.76213 0.0
C2949 C 0.76327 0.50269 0.73482 0.0
C2950 C 0.7637 0.50168 0.74422 0.0
H2951 H 0.77748 0.45923 0.78784 0.0
H2952 H 0.77852 0.46205 0.77226 0.0
H2953 H 0.77874 0.53577 0.76107 0.0
H2954 H 0.78963 0.50405 0.71794 0.0
H2955 H 0.78986 0.49939 0.73345 0.0
C2956 C 0.25589 0.23113 0.47102 0.0
C2957 C 0.26208 0.25324 0.46683 0.0
C2958 C 0.25658 0.22926 0.47989 0.0
C2959 C 0.2542 0.26882 0.49861 0.0
H2960 H 0.27559 0.21278 0.51097 0.0
C2961 C 0.24678 0.24245 0.53492 0.0
C2962 C 0.2619 0.24371 0.53931 0.0
C2963 C 0.24644 0.24479 0.52604 0.0
C2964 C 0.26951 0.22844 0.50758 0.0
H2965 H 0.27418 0.29036 0.46855 0.0
H2966 H 0.27493 0.28746 0.4841 0.0
H2967 H 0.27628 0.21325 0.49537 0.0
H2968 H 0.28831 0.24996 0.53801 0.0
H2969 H 0.28779 0.25305 0.52247 0.0
H2970 H 0.24711 0.28366 0.51083 0.0
C2971 C 0.26973 0.2715 0.48051 0.0
C2972 C 0.26988 0.22868 0.49868 0.0
C2973 C 0.26941 0.27308 0.47165 0.0
C2974 C 0.27654 0.24854 0.53473 0.0
C2975 C 0.27626 0.25026 0.52588 0.0
C2976 C 0.25348 0.26823 0.5075 0.0
C2977 C 0.2631 0.24976 0.48472 0.0
C2978 C 0.26239 0.24903 0.49413 0.0
C2979 C 0.26125 0.24804 0.52145 0.0
C2980 C 0.26127 0.24817 0.51205 0.0
H2981 H 0.24997 0.21577 0.46744 0.0
H2982 H 0.25137 0.21233 0.48301 0.0
H2983 H 0.24825 0.28463 0.49522 0.0
H2984 H 0.23534 0.23892 0.53834 0.0
H2985 H 0.23472 0.24314 0.52273 0.0
C2986 C 0.26946 0.48866 0.28464 0.0
C2987 C 0.25901 0.5045 0.2895 0.0
C2988 C 0.26955 0.49066 0.27577 0.0
C2989 C 0.24291 0.51232 0.25793 0.0
H2990 H 0.28284 0.50235 0.24465 0.0
C2991 C 0.24565 0.52649 0.22129 0.0
C2992 C 0.25572 0.5094 0.21668 0.0
C2993 C 0.24536 0.52545 0.23019 0.0
C2994 C 0.27153 0.50484 0.24826 0.0
H2995 H 0.2408 0.53524 0.28904 0.0
H2996 H 0.24121 0.53938 0.27352 0.0
H2997 H 0.28455 0.50326 0.26009 0.0
H2998 H 0.27328 0.47778 0.21763 0.0
H2999 H 0.27251 0.47543 0.23315 0.0
H3000 H 0.22991 0.51398 0.24606 0.0
C3001 C 0.24917 0.52511 0.27652 0.0
C3002 C 0.27252 0.50543 0.25713 0.0
C3003 C 0.24908 0.52304 0.28539 0.0
C3004 C 0.26515 0.49079 0.22107 0.0
C3005 C 0.2649 0.48976 0.22994 0.0
C3006 C 0.24193 0.5118 0.24905 0.0
C3007 C 0.25915 0.50855 0.27157 0.0
C3008 C 0.25822 0.50906 0.2621 0.0
C3009 C 0.25528 0.50745 0.23463 0.0
C3010 C 0.25621 0.5079 0.2441 0.0
H3011 H 0.27702 0.47395 0.28769 0.0
H3012 H 0.27724 0.47737 0.2722 0.0
H3013 H 0.23158 0.51469 0.26153 0.0
H3014 H 0.23857 0.54136 0.21803 0.0
H3015 H 0.23795 0.53954 0.23358 0.0
C3016 C 1.00152 0.9883 0.47175 0.0
C3017 C 0.01226 0.00394 0.46694 0.0
C3018 C 1.00134 0.99001 0.48061 0.0
C3019 C 0.01454 0.03056 0.49888 0.0
H3020 H 0.014 0.96483 0.51101 0.0
C3021 C 1.00572 0.99065 0.53541 0.0
C3022 C 0.01532 0.00905 0.53975 0.0
C3023 C 1.00619 0.9893 0.52654 0.0
C3024 C 0.01401 0.98338 0.50774 0.0
H3025 H 0.03089 0.03405 0.46749 0.0
H3026 H 0.03053 0.03734 0.48301 0.0
H3027 H 0.01193 0.96531 0.49557 0.0
H3028 H 0.03306 0.0402 0.53831 0.0
H3029 H 0.03433 0.03747 0.52279 0.0
H3030 H 0.01653 0.04865 0.51106 0.0
C3031 C 0.02211 0.02391 0.47997 0.0
C3032 C 0.01278 0.98367 0.49888 0.0
C3033 C 0.02231 0.02213 0.47109 0.0
C3034 C 0.0258 0.02555 0.53509 0.0
C3035 C 0.02629 0.02421 0.52621 0.0
C3036 C 0.01574 0.03028 0.50776 0.0
C3037 C 0.01194 0.00737 0.48486 0.0
C3038 C 0.01298 0.00726 0.49432 0.0
C3039 C 0.01621 0.00647 0.5218 0.0
C3040 C 0.01548 0.00668 0.51232 0.0
H3041 H 0.99381 0.97395 0.46865 0.0
H3042 H 0.99314 0.9773 0.48415 0.0
H3043 H 0.01457 0.04909 0.4956 0.0
H3044 H 0.99721 0.97823 0.53887 0.0
H3045 H 0.99808 0.97565 0.52338 0.0
C3046 C 0.02461 0.22932 0.72124 0.0
C3047 C 0.01417 0.24604 0.71665 0.0
C3048 C 0.02535 0.2307 0.73012 0.0
C3049 C 0.01405 0.27214 0.74859 0.0
H3050 H 0.01419 0.20667 0.76088 0.0
C3051 C 1.00159 0.26793 0.78461 0.0
C3052 C 0.01208 0.25198 0.78945 0.0
C3053 C 1.00154 0.26628 0.77574 0.0
C3054 C 0.0143 0.22513 0.75756 0.0
H3055 H 0.99632 0.27721 0.71763 0.0
H3056 H 0.99762 0.27985 0.73311 0.0
H3057 H 0.01584 0.20675 0.74541 0.0
H3058 H 0.03044 0.22146 0.78896 0.0
H3059 H 0.03033 0.2183 0.77343 0.0
H3060 H 0.0124 0.29052 0.76073 0.0
C3061 C 1.00552 0.266 0.72991 0.0
C3062 C 0.01531 0.2252 0.74867 0.0
C3063 C 1.0048 0.2646 0.72104 0.0
C3064 C 0.02207 0.23365 0.78533 0.0
C3065 C 0.02201 0.23193 0.77645 0.0
C3066 C 0.013 0.27207 0.75747 0.0
C3067 C 0.01555 0.24871 0.73458 0.0
C3068 C 0.01515 0.24871 0.74407 0.0
C3069 C 0.01202 0.24866 0.77153 0.0
C3070 C 0.01304 0.24857 0.76207 0.0
H3071 H 0.03171 0.21456 0.71798 0.0
H3072 H 0.03337 0.21732 0.73349 0.0
H3073 H 0.01414 0.29062 0.74529 0.0
H3074 H 0.9939 0.28236 0.78768 0.0
H3075 H 0.99349 0.27914 0.77217 0.0
C3076 C 1.00633 0.76456 0.22055 0.0
C3077 C 0.01579 0.74607 0.21617 0.0
C3078 C 1.00695 0.76591 0.22941 0.0
C3079 C 0.01659 0.72476 0.24813 0.0
H3080 H 0.01275 0.78965 0.26036 0.0
C3081 C 0.02265 0.73279 0.28483 0.0
C3082 C 0.01243 0.75084 0.28894 0.0
C3083 C 0.02265 0.73105 0.27596 0.0
C3084 C 0.01361 0.77131 0.25704 0.0
H3085 H 0.03347 0.71481 0.21752 0.0
H3086 H 0.03502 0.71756 0.23303 0.0
H3087 H 0.01493 0.79025 0.24493 0.0
H3088 H 0.99387 0.78064 0.28714 0.0
H3089 H 0.99357 0.77737 0.27164 0.0
H3090 H 0.01532 0.70587 0.26027 0.0
C3091 C 0.02697 0.73087 0.22965 0.0
C3092 C 0.01491 0.77167 0.24818 0.0
C3093 C 0.02631 0.72953 0.22078 0.0
C3094 C 1.00172 0.76639 0.28408 0.0
C3095 C 1.00174 0.76473 0.27522 0.0
C3096 C 0.01534 0.72442 0.257 0.0
C3097 C 0.01699 0.74867 0.23411 0.0
C3098 C 0.01635 0.7484 0.24359 0.0
C3099 C 0.01251 0.74751 0.27103 0.0
C3100 C 0.01374 0.74768 0.26157 0.0
H3101 H 0.99777 0.77702 0.21713 0.0
H3102 H 0.99892 0.77961 0.2326 0.0
H3103 H 0.01737 0.70641 0.24482 0.0
H3104 H 0.0312 0.72094 0.28848 0.0
H3105 H 0.03118 0.71772 0.27295 0.0
C3106 C 1.00171 0.48772 0.97146 0.0
C3107 C 0.01232 0.50337 0.96658 0.0
C3108 C 1.00162 0.48962 0.98032 0.0
C3109 C 0.02842 0.51048 0.99814 0.0
H3110 H 0.98836 0.50133 0.01141 0.0
C3111 C 0.02546 0.52505 0.03471 0.0
C3112 C 0.01512 0.50834 0.03937 0.0
C3113 C 0.02592 0.52375 0.02583 0.0
C3114 C 0.99971 0.50358 0.0078 0.0
H3115 H 0.0308 0.5337 0.967 0.0
H3116 H 0.0304 0.53768 0.98251 0.0
H3117 H 0.9867 0.50239 0.99596 0.0
H3118 H 0.99733 0.47705 0.03851 0.0
H3119 H 0.99841 0.47422 0.02302 0.0
H3120 H 0.04139 0.51179 0.01002 0.0
C3121 C 0.02231 0.52362 0.97953 0.0
C3122 C 0.99875 0.50425 0.99893 0.0
C3123 C 0.0224 0.52165 0.97066 0.0
C3124 C 1.00566 0.48975 0.03505 0.0
C3125 C 1.00609 0.48846 0.02618 0.0
C3126 C 0.02937 0.50988 0.00702 0.0
C3127 C 0.01217 0.50723 0.98449 0.0
C3128 C 0.01309 0.50761 0.99397 0.0
C3129 C 0.01591 0.50587 0.02144 0.0
C3130 C 0.01503 0.50628 0.01197 0.0
H3131 H 0.99402 0.47321 0.96842 0.0
H3132 H 0.9938 0.47646 0.98391 0.0
H3133 H 0.03978 0.51264 0.99454 0.0
H3134 H 0.03255 0.53992 0.03793 0.0
H3135 H 0.0335 0.53762 0.02239 0.0
C3136 C 0.5821 0.07434 0.07509 0.0
C3137 C 0.56946 0.08275 0.06953 0.0
C3138 C 0.59792 0.08544 0.07481 0.0
C3139 C 0.62099 0.14395 0.0684 0.0
H3140 H 0.6591 0.09805 0.06836 0.0
C3141 C 0.68732 0.18436 0.06386 0.0
C3142 C 0.70048 0.17236 0.06822 0.0
C3143 C 0.67151 0.17315 0.06375 0.0
C3144 C 0.64867 0.11126 0.0685 0.0
H3145 H 0.56381 0.1102 0.05944 0.0
H3146 H 0.59132 0.1301 0.05917 0.0
H3147 H 0.63125 0.07981 0.0689 0.0
H3148 H 0.70732 0.13902 0.07587 0.0
H3149 H 0.67967 0.11972 0.07592 0.0
H3150 H 0.63826 0.17545 0.06827 0.0
C3151 C 0.58888 0.11466 0.06369 0.0
C3152 C 0.63265 0.10073 0.06877 0.0
C3153 C 0.57306 0.10329 0.06388 0.0
C3154 C 0.69749 0.14861 0.07238 0.0
C3155 C 0.68159 0.13753 0.07238 0.0
C3156 C 0.63701 0.15452 0.06825 0.0
C3157 C 0.60157 0.10561 0.06908 0.0
C3158 C 0.61861 0.11693 0.06871 0.0
C3159 C 0.66829 0.14973 0.06811 0.0
C3160 C 0.65114 0.13836 0.06828 0.0
H3161 H 0.5798 0.05914 0.07971 0.0
H3162 H 0.6073 0.07835 0.07917 0.0
H3163 H 0.61046 0.15698 0.06846 0.0
H3164 H 0.68926 0.2025 0.06049 0.0
H3165 H 0.66184 0.1829 0.0602 0.0
C3166 C 0.58216 0.1799 0.18107 0.0
C3167 C 0.56952 0.17151 0.18663 0.0
C3168 C 0.598 0.16888 0.18137 0.0
C3169 C 0.62117 0.11057 0.1879 0.0
H3170 H 0.6592 0.15661 0.18783 0.0
C3171 C 0.68756 0.07047 0.19249 0.0
C3172 C 0.70069 0.08241 0.18809 0.0
C3173 C 0.67174 0.08165 0.19259 0.0
C3174 C 0.64879 0.14336 0.18772 0.0
H3175 H 0.5639 0.14418 0.19676 0.0
H3176 H 0.59144 0.12442 0.19708 0.0
H3177 H 0.63132 0.17474 0.18727 0.0
H3178 H 0.70748 0.11562 0.18037 0.0
H3179 H 0.67981 0.13487 0.18031 0.0
H3180 H 0.63849 0.07914 0.18809 0.0
C3181 C 0.58899 0.13978 0.19253 0.0
C3182 C 0.63276 0.15382 0.18744 0.0
C3183 C 0.57315 0.15107 0.19231 0.0
C3184 C 0.69767 0.10608 0.18389 0.0
C3185 C 0.68175 0.11712 0.18389 0.0
C3186 C 0.63721 0.10006 0.18806 0.0
C3187 C 0.60168 0.14881 0.18714 0.0
C3188 C 0.61874 0.13757 0.18753 0.0
C3189 C 0.66848 0.10497 0.18818 0.0
C3190 C 0.65131 0.11628 0.188 0.0
H3191 H 0.57985 0.19502 0.17642 0.0
H3192 H 0.60738 0.17595 0.17701 0.0
H3193 H 0.61066 0.09749 0.18787 0.0
H3194 H 0.68953 0.05239 0.19589 0.0
H3195 H 0.66208 0.07194 0.19617 0.0
C3196 C 0.44836 0.89777 0.93508 0.0
C3197 C 0.45183 0.92007 0.93987 0.0
C3198 C 0.43242 0.88694 0.93511 0.0
C3199 C 0.38857 0.90429 0.93999 0.0
H3200 H 0.38157 0.83006 0.9382 0.0
C3201 C 0.32378 0.85503 0.94333 0.0
C3202 C 0.32036 0.83466 0.93767 0.0
C3203 C 0.33965 0.86618 0.94364 0.0
C3204 C 0.38331 0.85087 0.93864 0.0
H3205 H 0.44156 0.94765 0.9488 0.0
H3206 H 0.41399 0.92848 0.94904 0.0
H3207 H 0.40971 0.84704 0.93895 0.0
H3208 H 0.33066 0.81136 0.9275 0.0
H3209 H 0.35816 0.83053 0.9281 0.0
H3210 H 0.36209 0.90798 0.93977 0.0
C3211 C 0.42335 0.91975 0.94503 0.0
C3212 C 0.39948 0.86063 0.93905 0.0
C3213 C 0.43921 0.93066 0.94495 0.0
C3214 C 0.33296 0.82652 0.9321 0.0
C3215 C 0.34876 0.8375 0.93244 0.0
C3216 C 0.37239 0.8945 0.93965 0.0
C3217 C 0.41961 0.89804 0.93999 0.0
C3218 C 0.40235 0.8875 0.9397 0.0
C3219 C 0.35241 0.85715 0.9383 0.0
C3220 C 0.36957 0.86768 0.93891 0.0
H3221 H 0.45779 0.88935 0.93104 0.0
H3222 H 0.43001 0.87038 0.93108 0.0
H3223 H 0.39023 0.92513 0.94033 0.0
H3224 H 0.31441 0.86169 0.94774 0.0
H3225 H 0.34208 0.88128 0.94824 0.0
C3226 C 0.44867 0.85532 0.82147 0.0
C3227 C 0.45188 0.83168 0.81736 0.0
C3228 C 0.43269 0.86606 0.82143 0.0
C3229 C 0.38832 0.84814 0.81753 0.0
H3230 H 0.38206 0.92277 0.81756 0.0
C3231 C 0.32383 0.89843 0.8135 0.0
C3232 C 0.32067 0.91974 0.81883 0.0
C3233 C 0.33962 0.88691 0.81327 0.0
C3234 C 0.38359 0.90186 0.81761 0.0
H3235 H 0.44095 0.80135 0.80968 0.0
H3236 H 0.41333 0.82032 0.80937 0.0
H3237 H 0.41 0.90498 0.817 0.0
H3238 H 0.33152 0.9444 0.82851 0.0
H3239 H 0.35887 0.92474 0.82798 0.0
H3240 H 0.3618 0.84521 0.81799 0.0
C3241 C 0.42294 0.83026 0.81288 0.0
C3242 C 0.39966 0.89162 0.81732 0.0
C3243 C 0.43884 0.81942 0.81301 0.0
C3244 C 0.33355 0.92856 0.82413 0.0
C3245 C 0.34928 0.91725 0.82385 0.0
C3246 C 0.37224 0.85842 0.81772 0.0
C3247 C 0.41952 0.85358 0.81719 0.0
C3248 C 0.40231 0.86458 0.81733 0.0
C3249 C 0.35261 0.89652 0.81833 0.0
C3250 C 0.36967 0.88541 0.81784 0.0
H3251 H 0.4584 0.8651 0.82495 0.0
H3252 H 0.4306 0.88382 0.82492 0.0
H3253 H 0.38976 0.82724 0.8177 0.0
H3254 H 0.3143 0.89118 0.80929 0.0
H3255 H 0.34179 0.87098 0.80894 0.0
C3256 C 0.69652 0.65146 0.56407 0.0
C3257 C 0.70013 0.67185 0.56972 0.0
C3258 C 0.68068 0.64008 0.56389 0.0
C3259 C 0.63685 0.65372 0.56923 0.0
H3260 H 0.63124 0.57909 0.56811 0.0
C3261 C 0.57205 0.60543 0.57286 0.0
C3262 C 0.56889 0.58223 0.56847 0.0
C3263 C 0.58798 0.61645 0.57287 0.0
C3264 C 0.63248 0.60002 0.56828 0.0
H3265 H 0.6898 0.69513 0.57992 0.0
H3266 H 0.66233 0.67584 0.57942 0.0
H3267 H 0.65904 0.59756 0.5683 0.0
H3268 H 0.57991 0.55305 0.56035 0.0
H3269 H 0.60738 0.57253 0.56013 0.0
H3270 H 0.61039 0.6564 0.56904 0.0
C3271 C 0.67168 0.66891 0.57504 0.0
C3272 C 0.64851 0.61059 0.56842 0.0
C3273 C 0.6875 0.68005 0.5753 0.0
C3274 C 0.58195 0.57073 0.56391 0.0
C3275 C 0.5978 0.58188 0.56383 0.0
C3276 C 0.62083 0.64319 0.56899 0.0
C3277 C 0.66799 0.64892 0.5693 0.0
C3278 C 0.65092 0.63758 0.56894 0.0
C3279 C 0.60117 0.60477 0.56839 0.0
C3280 C 0.61834 0.61613 0.56855 0.0
H3281 H 0.70576 0.64471 0.55962 0.0
H3282 H 0.67825 0.6248 0.55935 0.0
H3283 H 0.63823 0.67463 0.56951 0.0
H3284 H 0.56233 0.61464 0.57651 0.0
H3285 H 0.59 0.63383 0.57657 0.0
C3286 C 0.57381 0.65114 0.69244 0.0
C3287 C 0.57012 0.67144 0.68671 0.0
C3288 C 0.58964 0.63974 0.69262 0.0
C3289 C 0.6334 0.65319 0.68707 0.0
H3290 H 0.63894 0.57856 0.68846 0.0
C3291 C 0.69812 0.60472 0.68348 0.0
C3292 C 0.7013 0.58156 0.68795 0.0
C3293 C 0.6822 0.61577 0.68345 0.0
C3294 C 0.63772 0.59948 0.68821 0.0
H3295 H 0.58031 0.69455 0.67637 0.0
H3296 H 0.60779 0.67525 0.67686 0.0
H3297 H 0.61116 0.5971 0.68829 0.0
H3298 H 0.69033 0.55245 0.69618 0.0
H3299 H 0.66287 0.57196 0.69639 0.0
H3300 H 0.65987 0.65579 0.68717 0.0
C3301 C 0.5985 0.66839 0.68131 0.0
C3302 C 0.6217 0.6101 0.68808 0.0
C3303 C 0.58268 0.67955 0.68106 0.0
C3304 C 0.68826 0.5701 0.69256 0.0
C3305 C 0.67243 0.58127 0.69263 0.0
C3306 C 0.64942 0.64261 0.6873 0.0
C3307 C 0.60226 0.64848 0.68712 0.0
C3308 C 0.61932 0.6371 0.68746 0.0
C3309 C 0.66904 0.60414 0.68799 0.0
C3310 C 0.65187 0.61555 0.68784 0.0
H3311 H 0.56463 0.64446 0.69696 0.0
H3312 H 0.59213 0.62453 0.69721 0.0
H3313 H 0.63204 0.6741 0.6867 0.0
H3314 H 0.70782 0.6139 0.67978 0.0
H3315 H 0.68016 0.63312 0.67969 0.0
C3316 C 0.44847 0.39688 0.43515 0.0
C3317 C 0.45228 0.41803 0.4404 0.0
C3318 C 0.43247 0.38622 0.43515 0.0
C3319 C 0.38895 0.4029 0.44125 0.0
H3320 H 0.3812 0.32992 0.43685 0.0
C3321 C 0.32413 0.35287 0.44386 0.0
C3322 C 0.32014 0.33533 0.43734 0.0
C3323 C 0.34005 0.36378 0.44435 0.0
C3324 C 0.38316 0.3504 0.43804 0.0
H3325 H 0.44266 0.44371 0.45007 0.0
H3326 H 0.41507 0.4246 0.45035 0.0
H3327 H 0.40952 0.34603 0.43783 0.0
H3328 H 0.32952 0.31709 0.42589 0.0
H3329 H 0.35715 0.33563 0.42687 0.0
H3330 H 0.36249 0.40701 0.4416 0.0
C3331 C 0.42413 0.41672 0.44599 0.0
C3332 C 0.39943 0.35969 0.43857 0.0
C3333 C 0.44002 0.42754 0.44591 0.0
C3334 C 0.33224 0.32993 0.43114 0.0
C3335 C 0.34811 0.34057 0.43168 0.0
C3336 C 0.37267 0.39352 0.44082 0.0
C3337 C 0.41997 0.39628 0.44048 0.0
C3338 C 0.40259 0.38613 0.44013 0.0
C3339 C 0.35233 0.35724 0.43837 0.0
C3340 C 0.36959 0.36721 0.43914 0.0
H3341 H 0.45762 0.38938 0.43077 0.0
H3342 H 0.42977 0.37072 0.43074 0.0
H3343 H 0.39078 0.42347 0.44229 0.0
H3344 H 0.31518 0.35737 0.44876 0.0
H3345 H 0.34294 0.3766 0.44958 0.0
C3346 C 0.43878 0.324 0.31122 0.0
C3347 C 0.45151 0.33479 0.31618 0.0
C3348 C 0.42293 0.33494 0.31117 0.0
C3349 C 0.39922 0.39441 0.31698 0.0
H3350 H 0.36179 0.3471 0.31667 0.0
C3351 C 0.3328 0.42895 0.32404 0.0
C3352 C 0.3201 0.42051 0.31858 0.0
C3353 C 0.3486 0.41796 0.32368 0.0
C3354 C 0.3721 0.36058 0.31667 0.0
H3355 H 0.45768 0.36592 0.32482 0.0
H3356 H 0.42992 0.38497 0.32483 0.0
H3357 H 0.38991 0.32987 0.31606 0.0
H3358 H 0.314 0.39299 0.30868 0.0
H3359 H 0.34166 0.3734 0.30815 0.0
H3360 H 0.38135 0.42506 0.31775 0.0
C3361 C 0.43223 0.36821 0.32087 0.0
C3362 C 0.38826 0.35073 0.3163 0.0
C3363 C 0.44817 0.35733 0.32087 0.0
C3364 C 0.32345 0.39988 0.313 0.0
C3365 C 0.33931 0.38872 0.31268 0.0
C3366 C 0.38307 0.40422 0.31741 0.0
C3367 C 0.41931 0.35691 0.31611 0.0
C3368 C 0.40207 0.3675 0.31645 0.0
C3369 C 0.35216 0.39802 0.31791 0.0
C3370 C 0.36931 0.38743 0.31728 0.0
H3371 H 0.44104 0.30681 0.30745 0.0
H3372 H 0.41349 0.32605 0.30725 0.0
H3373 H 0.40947 0.40798 0.31696 0.0
H3374 H 0.33059 0.44431 0.32858 0.0
H3375 H 0.35808 0.42515 0.32794 0.0
C3376 C 0.0736 0.10357 0.56375 0.0
C3377 C 0.06976 0.08342 0.56952 0.0
C3378 C 0.08947 0.11481 0.5636 0.0
C3379 C 0.13314 0.10117 0.56927 0.0
H3380 H 0.13886 0.17576 0.5678 0.0
C3381 C 0.19797 0.14938 0.57288 0.0
C3382 C 0.2012 0.17252 0.5684 0.0
C3383 C 0.18203 0.13838 0.57289 0.0
C3384 C 0.13759 0.15484 0.56806 0.0
H3385 H 0.07978 0.0604 0.57992 0.0
H3386 H 0.10734 0.0794 0.57945 0.0
H3387 H 0.11103 0.15737 0.56793 0.0
H3388 H 0.1903 0.20159 0.56013 0.0
H3389 H 0.16283 0.18216 0.5599 0.0
H3390 H 0.15961 0.09842 0.56922 0.0
C3391 C 0.09811 0.08627 0.57497 0.0
C3392 C 0.12155 0.14431 0.56818 0.0
C3393 C 0.08224 0.07528 0.57521 0.0
C3394 C 0.1882 0.18397 0.56376 0.0
C3395 C 0.17235 0.17285 0.56368 0.0
C3396 C 0.14919 0.11165 0.56906 0.0
C3397 C 0.102 0.10607 0.56914 0.0
C3398 C 0.1191 0.11734 0.56883 0.0
C3399 C 0.1689 0.15003 0.56833 0.0
C3400 C 0.15171 0.1387 0.56848 0.0
H3401 H 0.06449 0.11026 0.55919 0.0
H3402 H 0.09206 0.12993 0.55898 0.0
H3403 H 0.13173 0.08027 0.56967 0.0
H3404 H 0.20764 0.1402 0.5766 0.0
H3405 H 0.17995 0.12107 0.57667 0.0
C3406 C 0.18733 0.07401 0.68116 0.0
C3407 C 0.20011 0.08243 0.68661 0.0
C3408 C 0.17152 0.08517 0.68148 0.0
C3409 C 0.14864 0.1439 0.6878 0.0
H3410 H 0.11046 0.09819 0.68812 0.0
C3411 C 0.08237 0.18469 0.69243 0.0
C3412 C 0.0691 0.17261 0.68822 0.0
C3413 C 0.09819 0.17346 0.6925 0.0
C3414 C 0.1209 0.11136 0.6879 0.0
H3415 H 0.206 0.11001 0.69655 0.0
H3416 H 0.17854 0.13002 0.69689 0.0
H3417 H 0.13826 0.07982 0.68754 0.0
H3418 H 0.06209 0.13911 0.68078 0.0
H3419 H 0.08972 0.11979 0.68066 0.0
H3420 H 0.13143 0.17549 0.6879 0.0
C3421 C 0.18084 0.11451 0.69242 0.0
C3422 C 0.1369 0.10075 0.6876 0.0
C3423 C 0.19665 0.10307 0.69219 0.0
C3424 C 0.072 0.14878 0.68416 0.0
C3425 C 0.08791 0.13768 0.68412 0.0
C3426 C 0.13264 0.15455 0.68797 0.0
C3427 C 0.16801 0.10545 0.68715 0.0
C3428 C 0.15098 0.11687 0.68756 0.0
C3429 C 0.10132 0.14992 0.68825 0.0
C3430 C 0.11847 0.13847 0.68805 0.0
H3431 H 0.18949 0.05874 0.67659 0.0
H3432 H 0.16204 0.07806 0.67721 0.0
H3433 H 0.1592 0.15689 0.68765 0.0
H3434 H 0.08051 0.20289 0.69572 0.0
H3435 H 0.10794 0.18328 0.69594 0.0
C3436 C 0.94878 0.89637 0.43572 0.0
C3437 C 0.95208 0.91886 0.44045 0.0
C3438 C 0.93286 0.88545 0.43569 0.0
C3439 C 0.88885 0.90277 0.44026 0.0
H3440 H 0.88197 0.82849 0.43858 0.0
C3441 C 0.82403 0.85363 0.44339 0.0
C3442 C 0.82065 0.83322 0.43774 0.0
C3443 C 0.83992 0.86469 0.44376 0.0
C3444 C 0.88368 0.84931 0.43898 0.0
H3445 H 0.94154 0.94667 0.44921 0.0
H3446 H 0.91402 0.92733 0.44937 0.0
H3447 H 0.91008 0.84556 0.43944 0.0
H3448 H 0.83112 0.80968 0.42766 0.0
H3449 H 0.85866 0.82867 0.42839 0.0
H3450 H 0.86238 0.90639 0.4399 0.0
C3451 C 0.92349 0.91853 0.44545 0.0
C3452 C 0.89983 0.85913 0.43946 0.0
C3453 C 0.93932 0.92953 0.44541 0.0
C3454 C 0.83335 0.82487 0.43226 0.0
C3455 C 0.84918 0.83576 0.43267 0.0
C3456 C 0.87269 0.89292 0.43986 0.0
C3457 C 0.91991 0.89663 0.44045 0.0
C3458 C 0.90267 0.88602 0.44008 0.0
C3459 C 0.85276 0.85552 0.43851 0.0
C3460 C 0.86991 0.86608 0.43916 0.0
H3461 H 0.95832 0.88788 0.43177 0.0
H3462 H 0.93058 0.86876 0.4317 0.0
H3463 H 0.89048 0.92362 0.44057 0.0
H3464 H 0.8146 0.86044 0.44774 0.0
H3465 H 0.84228 0.87986 0.44835 0.0
C3466 C 0.94836 0.85755 0.32033 0.0
C3467 C 0.95161 0.83473 0.31577 0.0
C3468 C 0.93242 0.86842 0.32035 0.0
C3469 C 0.88834 0.85072 0.31606 0.0
H3470 H 0.8815 0.9251 0.3173 0.0
C3471 C 0.82354 0.90008 0.31288 0.0
C3472 C 0.82029 0.92069 0.31848 0.0
C3473 C 0.83939 0.88888 0.3125 0.0
C3474 C 0.88321 0.90425 0.31701 0.0
H3475 H 0.94097 0.80619 0.30729 0.0
H3476 H 0.91342 0.82544 0.3071 0.0
H3477 H 0.90959 0.90797 0.31642 0.0
H3478 H 0.83094 0.9444 0.32846 0.0
H3479 H 0.85841 0.92519 0.3277 0.0
H3480 H 0.86187 0.84716 0.31654 0.0
C3481 C 0.92293 0.83457 0.31091 0.0
C3482 C 0.89934 0.8944 0.31654 0.0
C3483 C 0.93878 0.82362 0.31096 0.0
C3484 C 0.83308 0.92906 0.3239 0.0
C3485 C 0.84886 0.91805 0.32348 0.0
C3486 C 0.8722 0.86061 0.31646 0.0
C3487 C 0.91941 0.85684 0.31573 0.0
C3488 C 0.90217 0.86747 0.31609 0.0
C3489 C 0.85231 0.89812 0.31769 0.0
C3490 C 0.86944 0.88748 0.317 0.0
H3491 H 0.95796 0.86639 0.32416 0.0
H3492 H 0.9302 0.8854 0.32421 0.0
H3493 H 0.88997 0.82985 0.31589 0.0
H3494 H 0.81404 0.89324 0.30858 0.0
H3495 H 0.84167 0.87356 0.30796 0.0
C3496 C 0.1875 0.68028 0.07496 0.0
C3497 C 0.20027 0.67181 0.06951 0.0
C3498 C 0.17168 0.66919 0.07464 0.0
C3499 C 0.14873 0.61061 0.06839 0.0
H3500 H 0.11068 0.65657 0.06782 0.0
C3501 C 0.08247 0.57014 0.06372 0.0
C3502 C 0.06921 0.58239 0.06789 0.0
C3503 C 0.0983 0.5813 0.06364 0.0
C3504 C 0.12109 0.64334 0.06811 0.0
H3505 H 0.20614 0.64421 0.05957 0.0
H3506 H 0.17864 0.62431 0.05923 0.0
H3507 H 0.13852 0.67478 0.06842 0.0
H3508 H 0.06221 0.61609 0.07523 0.0
H3509 H 0.08988 0.63528 0.07534 0.0
H3510 H 0.13145 0.57914 0.06835 0.0
C3511 C 0.18097 0.63981 0.0637 0.0
C3512 C 0.1371 0.65385 0.06841 0.0
C3513 C 0.19679 0.65118 0.06393 0.0
C3514 C 0.07213 0.60631 0.07189 0.0
C3515 C 0.08804 0.61733 0.07192 0.0
C3516 C 0.13271 0.60006 0.0682 0.0
C3517 C 0.16816 0.64894 0.06897 0.0
C3518 C 0.15113 0.63763 0.06855 0.0
C3519 C 0.10144 0.60491 0.06784 0.0
C3520 C 0.1186 0.61625 0.06804 0.0
H3521 H 0.18969 0.69554 0.07953 0.0
H3522 H 0.1622 0.67634 0.0789 0.0
H3523 H 0.15926 0.59757 0.06859 0.0
H3524 H 0.08059 0.55186 0.06048 0.0
H3525 H 0.10805 0.57136 0.06024 0.0
C3526 C 0.0731 0.65124 0.19243 0.0
C3527 C 0.06931 0.67119 0.18658 0.0
C3528 C 0.08895 0.63998 0.19264 0.0
C3529 C 0.13257 0.65354 0.18718 0.0
H3530 H 0.13826 0.57889 0.18834 0.0
C3531 C 0.1974 0.60547 0.1837 0.0
C3532 C 0.20046 0.58203 0.18802 0.0
C3533 C 0.1815 0.61655 0.18369 0.0
C3534 C 0.137 0.59982 0.18817 0.0
H3535 H 0.07937 0.69383 0.1761 0.0
H3536 H 0.10693 0.67484 0.17669 0.0
H3537 H 0.11044 0.59728 0.18813 0.0
H3538 H 0.1894 0.55245 0.19603 0.0
H3539 H 0.16198 0.57209 0.19631 0.0
H3540 H 0.15902 0.6563 0.18742 0.0
C3541 C 0.09767 0.66814 0.18117 0.0
C3542 C 0.12097 0.61034 0.18801 0.0
C3543 C 0.08181 0.67912 0.18087 0.0
C3544 C 0.18739 0.57036 0.19254 0.0
C3545 C 0.17159 0.58158 0.19264 0.0
C3546 C 0.1486 0.64306 0.18746 0.0
C3547 C 0.10149 0.64855 0.18709 0.0
C3548 C 0.11855 0.63732 0.18746 0.0
C3549 C 0.16828 0.60467 0.18811 0.0
C3550 C 0.15111 0.616 0.18792 0.0
H3551 H 0.06397 0.64473 0.197 0.0
H3552 H 0.09152 0.62501 0.19731 0.0
H3553 H 0.13114 0.67444 0.18686 0.0
H3554 H 0.20717 0.6148 0.18009 0.0
H3555 H 0.17952 0.6341 0.18001 0.0
C3556 C 0.8233 0.3567 0.9349 0.0
C3557 C 0.8199 0.33458 0.93986 0.0
C3558 C 0.83921 0.36771 0.93488 0.0
C3559 C 0.88307 0.35088 0.93995 0.0
H3560 H 0.88993 0.42507 0.93763 0.0
C3561 C 0.94776 0.40027 0.94308 0.0
C3562 C 0.95127 0.42047 0.93731 0.0
C3563 C 0.93188 0.38918 0.94342 0.0
C3564 C 0.88823 0.40426 0.93821 0.0
H3565 H 0.8302 0.30755 0.94903 0.0
H3566 H 0.85768 0.32702 0.94918 0.0
H3567 H 0.86181 0.40797 0.93845 0.0
H3568 H 0.94104 0.4436 0.92701 0.0
H3569 H 0.91351 0.42455 0.92767 0.0
H3570 H 0.90955 0.34731 0.93979 0.0
C3571 C 0.84832 0.33546 0.94509 0.0
C3572 C 0.87208 0.39444 0.93866 0.0
C3573 C 0.83251 0.32439 0.94505 0.0
C3574 C 0.9387 0.42857 0.93169 0.0
C3575 C 0.92288 0.41765 0.93207 0.0
C3576 C 0.89923 0.36074 0.93956 0.0
C3577 C 0.85202 0.35695 0.93987 0.0
C3578 C 0.86925 0.36759 0.93951 0.0
C3579 C 0.91917 0.39812 0.93802 0.0
C3580 C 0.90201 0.38754 0.93864 0.0
H3581 H 0.81388 0.36481 0.93077 0.0
H3582 H 0.84158 0.38409 0.93072 0.0
H3583 H 0.88144 0.33005 0.94043 0.0
H3584 H 0.95709 0.39366 0.94753 0.0
H3585 H 0.92941 0.3742 0.9481 0.0
C3586 C 0.94792 0.35762 0.82171 0.0
C3587 C 0.95125 0.3357 0.8167 0.0
C3588 C 0.93204 0.3688 0.82176 0.0
C3589 C 0.888 0.35302 0.8164 0.0
H3590 H 0.88151 0.42701 0.81933 0.0
C3591 C 0.8236 0.40329 0.81309 0.0
C3592 C 0.81977 0.42268 0.81905 0.0
C3593 C 0.83954 0.39236 0.81276 0.0
C3594 C 0.8831 0.40626 0.81858 0.0
H3595 H 0.9408 0.30923 0.80748 0.0
H3596 H 0.91342 0.32904 0.80736 0.0
H3597 H 0.90956 0.40955 0.8186 0.0
H3598 H 0.82967 0.44462 0.82966 0.0
H3599 H 0.85732 0.42596 0.82898 0.0
H3600 H 0.8615 0.34989 0.81627 0.0
C3601 C 0.92279 0.33717 0.81149 0.0
C3602 C 0.89923 0.3962 0.81817 0.0
C3603 C 0.93856 0.32589 0.8115 0.0
C3604 C 0.8322 0.43027 0.82482 0.0
C3605 C 0.84811 0.41953 0.82445 0.0
C3606 C 0.87189 0.36313 0.81672 0.0
C3607 C 0.91916 0.35849 0.81674 0.0
C3608 C 0.90194 0.3694 0.81709 0.0
C3609 C 0.85206 0.40064 0.81836 0.0
C3610 C 0.86922 0.38986 0.81785 0.0
H3611 H 0.95738 0.36546 0.82584 0.0
H3612 H 0.92976 0.385 0.82596 0.0
H3613 H 0.88949 0.33223 0.81574 0.0
H3614 H 0.81446 0.39708 0.80849 0.0
H3615 H 0.84218 0.37793 0.80796 0.0
loop_
_geom_bond_atom_site_label_1
_geom_bond_atom_site_label_2
_geom_bond_distance
_geom_bond_site_symmetry_2
_ccdc_geom_bond_type
C0 C1 1.443 . S
C0 N4 1.376 . S
C0 C38 1.389 . S
C1 C0 1.443 . S
C1 C2 1.340 . S
C1 H41 0.951 . S
C2 C1 1.340 . S
C2 C3 1.439 . S
C2 H42 0.950 . S
C3 C2 1.439 . S
C3 N4 1.374 . S
C3 C37 1.395 . S
N4 C0 1.376 . S
N4 C3 1.374 . S
N4 Co5 2.008 . S
Co5 N4 2.008 . S
Co5 N6 1.995 . S
Co5 N11 2.008 1_545 S
Co5 N16 1.995 . S
Co5 N21 2.282 1_545 S
Co5 N27 2.282 . S
N6 Co5 1.995 . S
N6 C7 1.376 . S
N6 C10 1.383 . S
C7 N6 1.376 . S
C7 C8 1.446 . S
C7 C37 1.391 . S
C8 C7 1.446 . S
C8 C9 1.339 . S
C8 H43 0.949 . S
C9 C8 1.339 . S
C9 C10 1.439 . S
C9 H44 0.950 . S
C10 N6 1.383 . S
C10 C9 1.439 . S
C10 C39 1.392 1_545 S
N11 Co5 2.008 1_565 S
N11 C12 1.376 . S
N11 C15 1.374 . S
C12 N11 1.376 . S
C12 C13 1.443 . S
C12 C39 1.389 . S
C13 C12 1.443 . S
C13 C14 1.340 . S
C13 H45 0.951 . S
C14 C13 1.340 . S
C14 C15 1.439 . S
C14 H46 0.950 . S
C15 N11 1.374 . S
C15 C14 1.439 . S
C15 C40 1.395 . S
N16 Co5 1.995 . S
N16 C17 1.376 1_545 S
N16 C20 1.383 . S
C17 N16 1.376 1_565 S
C17 C18 1.446 . S
C17 C40 1.391 . S
C18 C17 1.446 . S
C18 C19 1.339 . S
C18 H47 0.949 . S
C19 C18 1.339 . S
C19 C20 1.439 1_565 S
C19 H48 0.950 1_565 S
C20 N16 1.383 . S
C20 C19 1.439 1_545 S
C20 C38 1.392 . S
N21 Co5 2.282 1_565 S
N21 C24 1.332 . S
N21 C26 1.332 1_565 S
C22 C23 1.386 . S
C22 C25 1.388 . S
C23 C22 1.386 . S
C23 C24 1.382 . S
C23 H49 0.950 . S
C24 N21 1.332 . S
C24 C23 1.382 . S
C24 H35 0.952 . S
C25 C22 1.388 . S
C25 C26 1.382 1_565 S
C25 H50 0.950 . S
C26 N21 1.332 1_545 S
C26 C25 1.382 1_545 S
C26 H36 0.948 . S
N27 Co5 2.282 . S
N27 C31 1.332 . S
N27 C32 1.332 . S
C28 C29 1.388 . S
C28 C32 1.382 . S
C28 H51 0.950 . S
C29 C28 1.388 . S
C29 C30 1.386 . S
C30 C29 1.386 . S
C30 C31 1.382 . S
C30 H52 0.950 . S
C31 N27 1.332 . S
C31 C30 1.382 . S
C31 H33 0.952 . S
C32 N27 1.332 . S
C32 C28 1.382 . S
C32 H34 0.948 . S
H33 C31 0.952 . S
H34 C32 0.948 . S
H35 C24 0.952 . S
H36 C26 0.948 . S
C37 C3 1.395 . S
C37 C7 1.391 . S
C38 C0 1.389 . S
C38 C20 1.392 . S
C39 C10 1.392 1_565 S
C39 C12 1.389 . S
C40 C15 1.395 . S
C40 C17 1.391 . S
H41 C1 0.951 . S
H42 C2 0.950 . S
H43 C8 0.949 . S
H44 C9 0.950 . S
H45 C13 0.951 . S
H46 C14 0.950 . S
H47 C18 0.949 . S
H48 C19 0.950 1_545 S
H49 C23 0.950 . S
H50 C25 0.950 . S
H51 C28 0.950 . S
H52 C30 0.950 . S
C53 C54 1.443 . S
C53 N57 1.376 . S
C53 C91 1.389 . S
C54 C53 1.443 . S
C54 C55 1.340 . S
C54 H94 0.951 . S
C55 C54 1.340 . S
C55 C56 1.439 . S
C55 H95 0.950 . S
C56 C55 1.439 . S
C56 N57 1.374 . S
C56 C90 1.395 . S
N57 C53 1.376 . S
N57 C56 1.374 . S
N57 Co58 2.008 . S
Co58 N57 2.008 . S
Co58 N59 1.995 . S
Co58 N64 2.008 . S
Co58 N69 1.995 . S
Co58 N74 2.282 . S
Co58 N80 2.282 . S
N59 Co58 1.995 . S
N59 C60 1.376 . S
N59 C63 1.383 . S
C60 N59 1.376 . S
C60 C61 1.446 . S
C60 C90 1.391 . S
C61 C60 1.446 . S
C61 C62 1.339 . S
C61 H96 0.949 . S
C62 C61 1.339 . S
C62 C63 1.439 . S
C62 H97 0.950 . S
C63 N59 1.383 . S
C63 C62 1.439 . S
C63 C92 1.392 . S
N64 Co58 2.008 . S
N64 C65 1.376 . S
N64 C68 1.374 . S
C65 N64 1.376 . S
C65 C66 1.443 . S
C65 C92 1.389 . S
C66 C65 1.443 . S
C66 C67 1.340 . S
C66 H98 0.951 . S
C67 C66 1.340 . S
C67 C68 1.439 . S
C67 H99 0.950 . S
C68 N64 1.374 . S
C68 C67 1.439 . S
C68 C93 1.395 . S
N69 Co58 1.995 . S
N69 C70 1.376 . S
N69 C73 1.383 . S
C70 N69 1.376 . S
C70 C71 1.446 . S
C70 C93 1.391 . S
C71 C70 1.446 . S
C71 C72 1.339 . S
C71 H100 0.949 . S
C72 C71 1.339 . S
C72 C73 1.439 . S
C72 H101 0.950 . S
C73 N69 1.383 . S
C73 C72 1.439 . S
C73 C91 1.392 . S
N74 Co58 2.282 . S
N74 C77 1.332 . S
N74 C79 1.332 . S
C75 C76 1.386 . S
C75 C78 1.388 . S
C76 C75 1.386 . S
C76 C77 1.382 . S
C76 H102 0.950 . S
C77 N74 1.332 . S
C77 C76 1.382 . S
C77 H88 0.952 . S
C78 C75 1.388 . S
C78 C79 1.382 . S
C78 H103 0.950 . S
C79 N74 1.332 . S
C79 C78 1.382 . S
C79 H89 0.948 . S
N80 Co58 2.282 . S
N80 C84 1.332 . S
N80 C85 1.332 . S
C81 C82 1.388 . S
C81 C85 1.382 . S
C81 H104 0.950 . S
C82 C81 1.388 . S
C82 C83 1.386 . S
C83 C82 1.386 . S
C83 C84 1.382 . S
C83 H105 0.950 . S
C84 N80 1.332 . S
C84 C83 1.382 . S
C84 H86 0.952 . S
C85 N80 1.332 . S
C85 C81 1.382 . S
C85 H87 0.948 . S
H86 C84 0.952 . S
H87 C85 0.948 . S
H88 C77 0.952 . S
H89 C79 0.948 . S
C90 C56 1.395 . S
C90 C60 1.391 . S
C91 C53 1.389 . S
C91 C73 1.392 . S
C92 C63 1.392 . S
C92 C65 1.389 . S
C93 C68 1.395 . S
C93 C70 1.391 . S
H94 C54 0.951 . S
H95 C55 0.950 . S
H96 C61 0.949 . S
H97 C62 0.950 . S
H98 C66 0.951 . S
H99 C67 0.950 . S
H100 C71 0.949 . S
H101 C72 0.950 . S
H102 C76 0.950 . S
H103 C78 0.950 . S
H104 C81 0.950 . S
H105 C83 0.950 . S
C106 C107 1.443 . S
C106 N110 1.376 . S
C106 C144 1.389 . S
C107 C106 1.443 . S
C107 C108 1.340 . S
C107 H147 0.951 . S
C108 C107 1.340 . S
C108 C109 1.439 . S
C108 H148 0.950 . S
C109 C108 1.439 . S
C109 N110 1.374 . S
C109 C143 1.395 . S
N110 C106 1.376 . S
N110 C109 1.374 . S
N110 Co111 2.008 . S
Co111 N110 2.008 . S
Co111 N112 1.995 . S
Co111 N117 2.008 . S
Co111 N122 1.995 . S
Co111 N127 2.282 . S
Co111 N133 2.282 . S
N112 Co111 1.995 . S
N112 C113 1.376 . S
N112 C116 1.383 . S
C113 N112 1.376 . S
C113 C114 1.446 . S
C113 C143 1.391 . S
C114 C113 1.446 . S
C114 C115 1.339 . S
C114 H149 0.949 . S
C115 C114 1.339 . S
C115 C116 1.439 . S
C115 H150 0.950 . S
C116 N112 1.383 . S
C116 C115 1.439 . S
C116 C145 1.392 . S
N117 Co111 2.008 . S
N117 C118 1.376 . S
N117 C121 1.374 . S
C118 N117 1.376 . S
C118 C119 1.443 . S
C118 C145 1.389 . S
C119 C118 1.443 . S
C119 C120 1.340 . S
C119 H151 0.951 . S
C120 C119 1.340 . S
C120 C121 1.439 . S
C120 H152 0.950 . S
C121 N117 1.374 . S
C121 C120 1.439 . S
C121 C146 1.395 . S
N122 Co111 1.995 . S
N122 C123 1.376 . S
N122 C126 1.383 . S
C123 N122 1.376 . S
C123 C124 1.446 . S
C123 C146 1.391 . S
C124 C123 1.446 . S
C124 C125 1.339 . S
C124 H153 0.949 . S
C125 C124 1.339 . S
C125 C126 1.439 . S
C125 H154 0.950 . S
C126 N122 1.383 . S
C126 C125 1.439 . S
C126 C144 1.392 . S
N127 Co111 2.282 . S
N127 C130 1.332 . S
N127 C132 1.332 . S
C128 C129 1.386 . S
C128 C131 1.388 . S
C129 C128 1.386 . S
C129 C130 1.382 . S
C129 H155 0.950 . S
C130 N127 1.332 . S
C130 C129 1.382 . S
C130 H141 0.952 . S
C131 C128 1.388 . S
C131 C132 1.382 . S
C131 H156 0.950 . S
C132 N127 1.332 . S
C132 C131 1.382 . S
C132 H142 0.948 . S
N133 Co111 2.282 . S
N133 C137 1.332 . S
N133 C138 1.332 . S
C134 C135 1.388 . S
C134 C138 1.382 . S
C134 H157 0.950 . S
C135 C134 1.388 . S
C135 C136 1.386 . S
C136 C135 1.386 . S
C136 C137 1.382 . S
C136 H158 0.950 . S
C137 N133 1.332 . S
C137 C136 1.382 . S
C137 H139 0.952 . S
C138 N133 1.332 . S
C138 C134 1.382 . S
C138 H140 0.948 . S
H139 C137 0.952 . S
H140 C138 0.948 . S
H141 C130 0.952 . S
H142 C132 0.948 . S
C143 C109 1.395 . S
C143 C113 1.391 . S
C144 C106 1.389 . S
C144 C126 1.392 . S
C145 C116 1.392 . S
C145 C118 1.389 . S
C146 C121 1.395 . S
C146 C123 1.391 . S
H147 C107 0.951 . S
H148 C108 0.950 . S
H149 C114 0.949 . S
H150 C115 0.950 . S
H151 C119 0.951 . S
H152 C120 0.950 . S
H153 C124 0.949 . S
H154 C125 0.950 . S
H155 C129 0.950 . S
H156 C131 0.950 . S
H157 C134 0.950 . S
H158 C136 0.950 . S
C159 C160 1.443 . S
C159 N163 1.376 . S
C159 C197 1.389 . S
C160 C159 1.443 . S
C160 C161 1.340 . S
C160 H200 0.951 . S
C161 C160 1.340 . S
C161 C162 1.439 . S
C161 H201 0.950 . S
C162 C161 1.439 . S
C162 N163 1.374 . S
C162 C196 1.395 . S
N163 C159 1.376 . S
N163 C162 1.374 . S
N163 Co164 2.008 . S
Co164 N163 2.008 . S
Co164 N165 1.995 . S
Co164 N170 2.008 1_545 S
Co164 N175 1.995 . S
Co164 N180 2.282 1_545 S
Co164 N186 2.282 . S
N165 Co164 1.995 . S
N165 C166 1.376 . S
N165 C169 1.383 . S
C166 N165 1.376 . S
C166 C167 1.446 . S
C166 C196 1.391 . S
C167 C166 1.446 . S
C167 C168 1.339 . S
C167 H202 0.949 . S
C168 C167 1.339 . S
C168 C169 1.439 . S
C168 H203 0.950 . S
C169 N165 1.383 . S
C169 C168 1.439 . S
C169 C198 1.392 1_545 S
N170 Co164 2.008 1_565 S
N170 C171 1.376 . S
N170 C174 1.374 . S
C171 N170 1.376 . S
C171 C172 1.443 . S
C171 C198 1.389 . S
C172 C171 1.443 . S
C172 C173 1.340 . S
C172 H204 0.951 . S
C173 C172 1.340 . S
C173 C174 1.439 . S
C173 H205 0.950 . S
C174 N170 1.374 . S
C174 C173 1.439 . S
C174 C199 1.395 . S
N175 Co164 1.995 . S
N175 C176 1.376 1_545 S
N175 C179 1.383 . S
C176 N175 1.376 1_565 S
C176 C177 1.446 . S
C176 C199 1.391 . S
C177 C176 1.446 . S
C177 C178 1.339 . S
C177 H206 0.949 . S
C178 C177 1.339 . S
C178 C179 1.439 1_565 S
C178 H207 0.950 1_565 S
C179 N175 1.383 . S
C179 C178 1.439 1_545 S
C179 C197 1.392 . S
N180 Co164 2.282 1_565 S
N180 C183 1.332 . S
N180 C185 1.332 1_565 S
C181 C182 1.386 . S
C181 C184 1.388 . S
C182 C181 1.386 . S
C182 C183 1.382 . S
C182 H208 0.950 . S
C183 N180 1.332 . S
C183 C182 1.382 . S
C183 H194 0.952 . S
C184 C181 1.388 . S
C184 C185 1.382 1_565 S
C184 H209 0.950 . S
C185 N180 1.332 1_545 S
C185 C184 1.382 1_545 S
C185 H195 0.948 . S
N186 Co164 2.282 . S
N186 C190 1.332 . S
N186 C191 1.332 . S
C187 C188 1.388 . S
C187 C191 1.382 . S
C187 H210 0.950 . S
C188 C187 1.388 . S
C188 C189 1.386 . S
C189 C188 1.386 . S
C189 C190 1.382 . S
C189 H211 0.950 . S
C190 N186 1.332 . S
C190 C189 1.382 . S
C190 H192 0.952 . S
C191 N186 1.332 . S
C191 C187 1.382 . S
C191 H193 0.948 . S
H192 C190 0.952 . S
H193 C191 0.948 . S
H194 C183 0.952 . S
H195 C185 0.948 . S
C196 C162 1.395 . S
C196 C166 1.391 . S
C197 C159 1.389 . S
C197 C179 1.392 . S
C198 C169 1.392 1_565 S
C198 C171 1.389 . S
C199 C174 1.395 . S
C199 C176 1.391 . S
H200 C160 0.951 . S
H201 C161 0.950 . S
H202 C167 0.949 . S
H203 C168 0.950 . S
H204 C172 0.951 . S
H205 C173 0.950 . S
H206 C177 0.949 . S
H207 C178 0.950 1_545 S
H208 C182 0.950 . S
H209 C184 0.950 . S
H210 C187 0.950 . S
H211 C189 0.950 . S
C212 C213 1.443 . S
C212 N216 1.376 . S
C212 C250 1.389 . S
C213 C212 1.443 . S
C213 C214 1.340 1_565 S
C213 H253 0.951 . S
C214 C213 1.340 1_545 S
C214 C215 1.439 . S
C214 H254 0.950 . S
C215 C214 1.439 . S
C215 N216 1.374 1_545 S
C215 C249 1.395 . S
N216 C212 1.376 . S
N216 C215 1.374 1_565 S
N216 Co217 2.008 . S
Co217 N216 2.008 . S
Co217 N218 1.995 1_565 S
Co217 N223 2.008 . S
Co217 N228 1.995 . S
Co217 N233 2.282 1_565 S
Co217 N239 2.282 . S
N218 Co217 1.995 1_545 S
N218 C219 1.376 . S
N218 C222 1.383 . S
C219 N218 1.376 . S
C219 C220 1.446 . S
C219 C249 1.391 . S
C220 C219 1.446 . S
C220 C221 1.339 . S
C220 H255 0.949 . S
C221 C220 1.339 . S
C221 C222 1.439 . S
C221 H256 0.950 . S
C222 N218 1.383 . S
C222 C221 1.439 . S
C222 C251 1.392 . S
N223 Co217 2.008 . S
N223 C224 1.376 . S
N223 C227 1.374 . S
C224 N223 1.376 . S
C224 C225 1.443 . S
C224 C251 1.389 1_565 S
C225 C224 1.443 . S
C225 C226 1.340 . S
C225 H257 0.951 . S
C226 C225 1.340 . S
C226 C227 1.439 . S
C226 H258 0.950 . S
C227 N223 1.374 . S
C227 C226 1.439 . S
C227 C252 1.395 . S
N228 Co217 1.995 . S
N228 C229 1.376 . S
N228 C232 1.383 . S
C229 N228 1.376 . S
C229 C230 1.446 . S
C229 C252 1.391 . S
C230 C229 1.446 . S
C230 C231 1.339 . S
C230 H259 0.949 . S
C231 C230 1.339 . S
C231 C232 1.439 . S
C231 H260 0.950 . S
C232 N228 1.383 . S
C232 C231 1.439 . S
C232 C250 1.392 . S
N233 Co217 2.282 1_545 S
N233 C236 1.332 1_545 S
N233 C238 1.332 . S
C234 C235 1.386 . S
C234 C237 1.388 . S
C235 C234 1.386 . S
C235 C236 1.382 1_545 S
C235 H261 0.950 1_545 S
C236 N233 1.332 1_565 S
C236 C235 1.382 1_565 S
C236 H247 0.952 . S
C237 C234 1.388 . S
C237 C238 1.382 . S
C237 H262 0.950 . S
C238 N233 1.332 . S
C238 C237 1.382 . S
C238 H248 0.948 . S
N239 Co217 2.282 . S
N239 C243 1.332 . S
N239 C244 1.332 . S
C240 C241 1.388 . S
C240 C244 1.382 . S
C240 H263 0.950 . S
C241 C240 1.388 . S
C241 C242 1.386 . S
C242 C241 1.386 . S
C242 C243 1.382 . S
C242 H264 0.950 . S
C243 N239 1.332 . S
C243 C242 1.382 . S
C243 H245 0.952 . S
C244 N239 1.332 . S
C244 C240 1.382 . S
C244 H246 0.948 . S
H245 C243 0.952 . S
H246 C244 0.948 . S
H247 C236 0.952 . S
H248 C238 0.948 . S
C249 C215 1.395 . S
C249 C219 1.391 . S
C250 C212 1.389 . S
C250 C232 1.392 . S
C251 C222 1.392 . S
C251 C224 1.389 1_545 S
C252 C227 1.395 . S
C252 C229 1.391 . S
H253 C213 0.951 . S
H254 C214 0.950 . S
H255 C220 0.949 . S
H256 C221 0.950 . S
H257 C225 0.951 . S
H258 C226 0.950 . S
H259 C230 0.949 . S
H260 C231 0.950 . S
H261 C235 0.950 1_565 S
H262 C237 0.950 . S
H263 C240 0.950 . S
H264 C242 0.950 . S
C265 C266 1.443 . S
C265 N269 1.376 . S
C265 C303 1.389 . S
C266 C265 1.443 . S
C266 C267 1.340 . S
C266 H306 0.951 . S
C267 C266 1.340 . S
C267 C268 1.439 . S
C267 H307 0.950 . S
C268 C267 1.439 . S
C268 N269 1.374 . S
C268 C302 1.395 . S
N269 C265 1.376 . S
N269 C268 1.374 . S
N269 Co270 2.008 . S
Co270 N269 2.008 . S
Co270 N271 1.995 . S
Co270 N276 2.008 . S
Co270 N281 1.995 . S
Co270 N286 2.282 . S
Co270 N292 2.282 . S
N271 Co270 1.995 . S
N271 C272 1.376 . S
N271 C275 1.383 . S
C272 N271 1.376 . S
C272 C273 1.446 . S
C272 C302 1.391 . S
C273 C272 1.446 . S
C273 C274 1.339 . S
C273 H308 0.949 . S
C274 C273 1.339 . S
C274 C275 1.439 . S
C274 H309 0.950 . S
C275 N271 1.383 . S
C275 C274 1.439 . S
C275 C304 1.392 . S
N276 Co270 2.008 . S
N276 C277 1.376 . S
N276 C280 1.374 . S
C277 N276 1.376 . S
C277 C278 1.443 . S
C277 C304 1.389 . S
C278 C277 1.443 . S
C278 C279 1.340 . S
C278 H310 0.951 . S
C279 C278 1.340 . S
C279 C280 1.439 . S
C279 H311 0.950 . S
C280 N276 1.374 . S
C280 C279 1.439 . S
C280 C305 1.395 . S
N281 Co270 1.995 . S
N281 C282 1.376 . S
N281 C285 1.383 . S
C282 N281 1.376 . S
C282 C283 1.446 . S
C282 C305 1.391 . S
C283 C282 1.446 . S
C283 C284 1.339 . S
C283 H312 0.949 . S
C284 C283 1.339 . S
C284 C285 1.439 . S
C284 H313 0.950 . S
C285 N281 1.383 . S
C285 C284 1.439 . S
C285 C303 1.392 . S
N286 Co270 2.282 . S
N286 C289 1.332 . S
N286 C291 1.332 . S
C287 C288 1.386 . S
C287 C290 1.388 . S
C288 C287 1.386 . S
C288 C289 1.382 . S
C288 H314 0.950 . S
C289 N286 1.332 . S
C289 C288 1.382 . S
C289 H300 0.952 . S
C290 C287 1.388 . S
C290 C291 1.382 . S
C290 H315 0.950 . S
C291 N286 1.332 . S
C291 C290 1.382 . S
C291 H301 0.948 . S
N292 Co270 2.282 . S
N292 C296 1.332 . S
N292 C297 1.332 . S
C293 C294 1.388 . S
C293 C297 1.382 . S
C293 H316 0.950 . S
C294 C293 1.388 . S
C294 C295 1.386 . S
C295 C294 1.386 . S
C295 C296 1.382 . S
C295 H317 0.950 . S
C296 N292 1.332 . S
C296 C295 1.382 . S
C296 H298 0.952 . S
C297 N292 1.332 . S
C297 C293 1.382 . S
C297 H299 0.948 . S
H298 C296 0.952 . S
H299 C297 0.948 . S
H300 C289 0.952 . S
H301 C291 0.948 . S
C302 C268 1.395 . S
C302 C272 1.391 . S
C303 C265 1.389 . S
C303 C285 1.392 . S
C304 C275 1.392 . S
C304 C277 1.389 . S
C305 C280 1.395 . S
C305 C282 1.391 . S
H306 C266 0.951 . S
H307 C267 0.950 . S
H308 C273 0.949 . S
H309 C274 0.950 . S
H310 C278 0.951 . S
H311 C279 0.950 . S
H312 C283 0.949 . S
H313 C284 0.950 . S
H314 C288 0.950 . S
H315 C290 0.950 . S
H316 C293 0.950 . S
H317 C295 0.950 . S
C318 C319 1.443 . S
C318 N322 1.376 . S
C318 C356 1.389 . S
C319 C318 1.443 . S
C319 C320 1.340 . S
C319 H359 0.951 . S
C320 C319 1.340 . S
C320 C321 1.439 . S
C320 H360 0.950 . S
C321 C320 1.439 . S
C321 N322 1.374 . S
C321 C355 1.395 . S
N322 C318 1.376 . S
N322 C321 1.374 . S
N322 Co323 2.008 . S
Co323 N322 2.008 . S
Co323 N324 1.995 . S
Co323 N329 2.008 . S
Co323 N334 1.995 . S
Co323 N339 2.282 . S
Co323 N345 2.282 . S
N324 Co323 1.995 . S
N324 C325 1.376 . S
N324 C328 1.383 . S
C325 N324 1.376 . S
C325 C326 1.446 . S
C325 C355 1.391 . S
C326 C325 1.446 . S
C326 C327 1.339 . S
C326 H361 0.949 . S
C327 C326 1.339 . S
C327 C328 1.439 . S
C327 H362 0.950 . S
C328 N324 1.383 . S
C328 C327 1.439 . S
C328 C357 1.392 . S
N329 Co323 2.008 . S
N329 C330 1.376 . S
N329 C333 1.374 . S
C330 N329 1.376 . S
C330 C331 1.443 . S
C330 C357 1.389 . S
C331 C330 1.443 . S
C331 C332 1.340 . S
C331 H363 0.951 . S
C332 C331 1.340 . S
C332 C333 1.439 . S
C332 H364 0.950 . S
C333 N329 1.374 . S
C333 C332 1.439 . S
C333 C358 1.395 . S
N334 Co323 1.995 . S
N334 C335 1.376 . S
N334 C338 1.383 . S
C335 N334 1.376 . S
C335 C336 1.446 . S
C335 C358 1.391 . S
C336 C335 1.446 . S
C336 C337 1.339 . S
C336 H365 0.949 . S
C337 C336 1.339 . S
C337 C338 1.439 . S
C337 H366 0.950 . S
C338 N334 1.383 . S
C338 C337 1.439 . S
C338 C356 1.392 . S
N339 Co323 2.282 . S
N339 C342 1.332 . S
N339 C344 1.332 . S
C340 C341 1.386 . S
C340 C343 1.388 . S
C341 C340 1.386 . S
C341 C342 1.382 . S
C341 H367 0.950 . S
C342 N339 1.332 . S
C342 C341 1.382 . S
C342 H353 0.952 . S
C343 C340 1.388 . S
C343 C344 1.382 . S
C343 H368 0.950 . S
C344 N339 1.332 . S
C344 C343 1.382 . S
C344 H354 0.948 . S
N345 Co323 2.282 . S
N345 C349 1.332 . S
N345 C350 1.332 . S
C346 C347 1.388 . S
C346 C350 1.382 . S
C346 H369 0.950 . S
C347 C346 1.388 . S
C347 C348 1.386 . S
C348 C347 1.386 . S
C348 C349 1.382 . S
C348 H370 0.950 . S
C349 N345 1.332 . S
C349 C348 1.382 . S
C349 H351 0.952 . S
C350 N345 1.332 . S
C350 C346 1.382 . S
C350 H352 0.948 . S
H351 C349 0.952 . S
H352 C350 0.948 . S
H353 C342 0.952 . S
H354 C344 0.948 . S
C355 C321 1.395 . S
C355 C325 1.391 . S
C356 C318 1.389 . S
C356 C338 1.392 . S
C357 C328 1.392 . S
C357 C330 1.389 . S
C358 C333 1.395 . S
C358 C335 1.391 . S
H359 C319 0.951 . S
H360 C320 0.950 . S
H361 C326 0.949 . S
H362 C327 0.950 . S
H363 C331 0.951 . S
H364 C332 0.950 . S
H365 C336 0.949 . S
H366 C337 0.950 . S
H367 C341 0.950 . S
H368 C343 0.950 . S
H369 C346 0.950 . S
H370 C348 0.950 . S
C371 C372 1.443 . S
C371 N375 1.376 . S
C371 C409 1.389 . S
C372 C371 1.443 . S
C372 C373 1.340 1_565 S
C372 H412 0.951 . S
C373 C372 1.340 1_545 S
C373 C374 1.439 . S
C373 H413 0.950 . S
C374 C373 1.439 . S
C374 N375 1.374 1_545 S
C374 C408 1.395 . S
N375 C371 1.376 . S
N375 C374 1.374 1_565 S
N375 Co376 2.008 . S
Co376 N375 2.008 . S
Co376 N377 1.995 1_565 S
Co376 N382 2.008 . S
Co376 N387 1.995 . S
Co376 N392 2.282 1_565 S
Co376 N398 2.282 . S
N377 Co376 1.995 1_545 S
N377 C378 1.376 . S
N377 C381 1.383 . S
C378 N377 1.376 . S
C378 C379 1.446 . S
C378 C408 1.391 . S
C379 C378 1.446 . S
C379 C380 1.339 . S
C379 H414 0.949 . S
C380 C379 1.339 . S
C380 C381 1.439 . S
C380 H415 0.950 . S
C381 N377 1.383 . S
C381 C380 1.439 . S
C381 C410 1.392 . S
N382 Co376 2.008 . S
N382 C383 1.376 . S
N382 C386 1.374 . S
C383 N382 1.376 . S
C383 C384 1.443 . S
C383 C410 1.389 1_565 S
C384 C383 1.443 . S
C384 C385 1.340 . S
C384 H416 0.951 . S
C385 C384 1.340 . S
C385 C386 1.439 . S
C385 H417 0.950 . S
C386 N382 1.374 . S
C386 C385 1.439 . S
C386 C411 1.395 . S
N387 Co376 1.995 . S
N387 C388 1.376 . S
N387 C391 1.383 . S
C388 N387 1.376 . S
C388 C389 1.446 . S
C388 C411 1.391 . S
C389 C388 1.446 . S
C389 C390 1.339 . S
C389 H418 0.949 . S
C390 C389 1.339 . S
C390 C391 1.439 . S
C390 H419 0.950 . S
C391 N387 1.383 . S
C391 C390 1.439 . S
C391 C409 1.392 . S
N392 Co376 2.282 1_545 S
N392 C395 1.332 1_545 S
N392 C397 1.332 . S
C393 C394 1.386 . S
C393 C396 1.388 . S
C394 C393 1.386 . S
C394 C395 1.382 1_545 S
C394 H420 0.950 1_545 S
C395 N392 1.332 1_565 S
C395 C394 1.382 1_565 S
C395 H406 0.952 . S
C396 C393 1.388 . S
C396 C397 1.382 . S
C396 H421 0.950 . S
C397 N392 1.332 . S
C397 C396 1.382 . S
C397 H407 0.948 . S
N398 Co376 2.282 . S
N398 C402 1.332 . S
N398 C403 1.332 . S
C399 C400 1.388 . S
C399 C403 1.382 . S
C399 H422 0.950 . S
C400 C399 1.388 . S
C400 C401 1.386 . S
C401 C400 1.386 . S
C401 C402 1.382 . S
C401 H423 0.950 . S
C402 N398 1.332 . S
C402 C401 1.382 . S
C402 H404 0.952 . S
C403 N398 1.332 . S
C403 C399 1.382 . S
C403 H405 0.948 . S
H404 C402 0.952 . S
H405 C403 0.948 . S
H406 C395 0.952 . S
H407 C397 0.948 . S
C408 C374 1.395 . S
C408 C378 1.391 . S
C409 C371 1.389 . S
C409 C391 1.392 . S
C410 C381 1.392 . S
C410 C383 1.389 1_545 S
C411 C386 1.395 . S
C411 C388 1.391 . S
H412 C372 0.951 . S
H413 C373 0.950 . S
H414 C379 0.949 . S
H415 C380 0.950 . S
H416 C384 0.951 . S
H417 C385 0.950 . S
H418 C389 0.949 . S
H419 C390 0.950 . S
H420 C394 0.950 1_565 S
H421 C396 0.950 . S
H422 C399 0.950 . S
H423 C401 0.950 . S
C424 C425 1.443 . S
C424 N428 1.376 . S
C424 C462 1.389 . S
C425 C424 1.443 . S
C425 C426 1.340 . S
C425 H465 0.951 . S
C426 C425 1.340 . S
C426 C427 1.439 . S
C426 H466 0.950 . S
C427 C426 1.439 . S
C427 N428 1.374 . S
C427 C461 1.395 . S
N428 C424 1.376 . S
N428 C427 1.374 . S
N428 Co429 2.008 . S
Co429 N428 2.008 . S
Co429 N430 1.995 . S
Co429 N435 2.008 . S
Co429 N440 1.995 . S
Co429 N445 2.282 . S
Co429 N451 2.282 . S
N430 Co429 1.995 . S
N430 C431 1.376 . S
N430 C434 1.383 . S
C431 N430 1.376 . S
C431 C432 1.446 . S
C431 C461 1.391 . S
C432 C431 1.446 . S
C432 C433 1.339 . S
C432 H467 0.949 . S
C433 C432 1.339 . S
C433 C434 1.439 . S
C433 H468 0.950 . S
C434 N430 1.383 . S
C434 C433 1.439 . S
C434 C463 1.392 . S
N435 Co429 2.008 . S
N435 C436 1.376 . S
N435 C439 1.374 . S
C436 N435 1.376 . S
C436 C437 1.443 . S
C436 C463 1.389 . S
C437 C436 1.443 . S
C437 C438 1.340 . S
C437 H469 0.951 . S
C438 C437 1.340 . S
C438 C439 1.439 . S
C438 H470 0.950 . S
C439 N435 1.374 . S
C439 C438 1.439 . S
C439 C464 1.395 . S
N440 Co429 1.995 . S
N440 C441 1.376 . S
N440 C444 1.383 . S
C441 N440 1.376 . S
C441 C442 1.446 . S
C441 C464 1.391 . S
C442 C441 1.446 . S
C442 C443 1.339 . S
C442 H471 0.949 . S
C443 C442 1.339 . S
C443 C444 1.439 . S
C443 H472 0.950 . S
C444 N440 1.383 . S
C444 C443 1.439 . S
C444 C462 1.392 . S
N445 Co429 2.282 . S
N445 C448 1.332 . S
N445 C450 1.332 . S
C446 C447 1.386 . S
C446 C449 1.388 . S
C447 C446 1.386 . S
C447 C448 1.382 . S
C447 H473 0.950 . S
C448 N445 1.332 . S
C448 C447 1.382 . S
C448 H459 0.952 . S
C449 C446 1.388 . S
C449 C450 1.382 . S
C449 H474 0.950 . S
C450 N445 1.332 . S
C450 C449 1.382 . S
C450 H460 0.948 . S
N451 Co429 2.282 . S
N451 C455 1.332 . S
N451 C456 1.332 . S
C452 C453 1.388 . S
C452 C456 1.382 . S
C452 H475 0.950 . S
C453 C452 1.388 . S
C453 C454 1.386 . S
C454 C453 1.386 . S
C454 C455 1.382 . S
C454 H476 0.950 . S
C455 N451 1.332 . S
C455 C454 1.382 . S
C455 H457 0.952 . S
C456 N451 1.332 . S
C456 C452 1.382 . S
C456 H458 0.948 . S
H457 C455 0.952 . S
H458 C456 0.948 . S
H459 C448 0.952 . S
H460 C450 0.948 . S
C461 C427 1.395 . S
C461 C431 1.391 . S
C462 C424 1.389 . S
C462 C444 1.392 . S
C463 C434 1.392 . S
C463 C436 1.389 . S
C464 C439 1.395 . S
C464 C441 1.391 . S
H465 C425 0.951 . S
H466 C426 0.950 . S
H467 C432 0.949 . S
H468 C433 0.950 . S
H469 C437 0.951 . S
H470 C438 0.950 . S
H471 C442 0.949 . S
H472 C443 0.950 . S
H473 C447 0.950 . S
H474 C449 0.950 . S
H475 C452 0.950 . S
H476 C454 0.950 . S
C477 C478 1.443 . S
C477 N481 1.376 . S
C477 C515 1.389 . S
C478 C477 1.443 . S
C478 C479 1.340 . S
C478 H518 0.951 . S
C479 C478 1.340 . S
C479 C480 1.439 . S
C479 H519 0.950 . S
C480 C479 1.439 . S
C480 N481 1.374 . S
C480 C514 1.395 . S
N481 C477 1.376 . S
N481 C480 1.374 . S
N481 Co482 2.008 . S
Co482 N481 2.008 . S
Co482 N483 1.995 . S
Co482 N488 2.008 . S
Co482 N493 1.995 . S
Co482 N498 2.282 . S
Co482 N504 2.282 . S
N483 Co482 1.995 . S
N483 C484 1.376 . S
N483 C487 1.383 . S
C484 N483 1.376 . S
C484 C485 1.446 . S
C484 C514 1.391 . S
C485 C484 1.446 . S
C485 C486 1.339 . S
C485 H520 0.949 . S
C486 C485 1.339 . S
C486 C487 1.439 . S
C486 H521 0.950 . S
C487 N483 1.383 . S
C487 C486 1.439 . S
C487 C516 1.392 . S
N488 Co482 2.008 . S
N488 C489 1.376 . S
N488 C492 1.374 . S
C489 N488 1.376 . S
C489 C490 1.443 . S
C489 C516 1.389 . S
C490 C489 1.443 . S
C490 C491 1.340 . S
C490 H522 0.951 . S
C491 C490 1.340 . S
C491 C492 1.439 . S
C491 H523 0.950 . S
C492 N488 1.374 . S
C492 C491 1.439 . S
C492 C517 1.395 . S
N493 Co482 1.995 . S
N493 C494 1.376 . S
N493 C497 1.383 . S
C494 N493 1.376 . S
C494 C495 1.446 . S
C494 C517 1.391 . S
C495 C494 1.446 . S
C495 C496 1.339 . S
C495 H524 0.949 . S
C496 C495 1.339 . S
C496 C497 1.439 . S
C496 H525 0.950 . S
C497 N493 1.383 . S
C497 C496 1.439 . S
C497 C515 1.392 . S
N498 Co482 2.282 . S
N498 C501 1.332 . S
N498 C503 1.332 . S
C499 C500 1.386 . S
C499 C502 1.388 . S
C500 C499 1.386 . S
C500 C501 1.382 . S
C500 H526 0.950 . S
C501 N498 1.332 . S
C501 C500 1.382 . S
C501 H512 0.952 . S
C502 C499 1.388 . S
C502 C503 1.382 . S
C502 H527 0.950 . S
C503 N498 1.332 . S
C503 C502 1.382 . S
C503 H513 0.948 . S
N504 Co482 2.282 . S
N504 C508 1.332 . S
N504 C509 1.332 . S
C505 C506 1.388 . S
C505 C509 1.382 . S
C505 H528 0.950 . S
C506 C505 1.388 . S
C506 C507 1.386 . S
C507 C506 1.386 . S
C507 C508 1.382 . S
C507 H529 0.950 . S
C508 N504 1.332 . S
C508 C507 1.382 . S
C508 H510 0.952 . S
C509 N504 1.332 . S
C509 C505 1.382 . S
C509 H511 0.948 . S
H510 C508 0.952 . S
H511 C509 0.948 . S
H512 C501 0.952 . S
H513 C503 0.948 . S
C514 C480 1.395 . S
C514 C484 1.391 . S
C515 C477 1.389 . S
C515 C497 1.392 . S
C516 C487 1.392 . S
C516 C489 1.389 . S
C517 C492 1.395 . S
C517 C494 1.391 . S
H518 C478 0.951 . S
H519 C479 0.950 . S
H520 C485 0.949 . S
H521 C486 0.950 . S
H522 C490 0.951 . S
H523 C491 0.950 . S
H524 C495 0.949 . S
H525 C496 0.950 . S
H526 C500 0.950 . S
H527 C502 0.950 . S
H528 C505 0.950 . S
H529 C507 0.950 . S
C530 C531 1.443 . S
C530 N534 1.376 . S
C530 C568 1.389 . S
C531 C530 1.443 . S
C531 C532 1.340 . S
C531 H571 0.951 . S
C532 C531 1.340 . S
C532 C533 1.439 . S
C532 H572 0.950 . S
C533 C532 1.439 . S
C533 N534 1.374 . S
C533 C567 1.395 . S
N534 C530 1.376 . S
N534 C533 1.374 . S
N534 Co535 2.008 . S
Co535 N534 2.008 . S
Co535 N536 1.995 . S
Co535 N541 2.008 . S
Co535 N546 1.995 . S
Co535 N551 2.282 . S
Co535 N557 2.282 . S
N536 Co535 1.995 . S
N536 C537 1.376 . S
N536 C540 1.383 . S
C537 N536 1.376 . S
C537 C538 1.446 . S
C537 C567 1.391 . S
C538 C537 1.446 . S
C538 C539 1.339 . S
C538 H573 0.949 . S
C539 C538 1.339 . S
C539 C540 1.439 . S
C539 H574 0.950 . S
C540 N536 1.383 . S
C540 C539 1.439 . S
C540 C569 1.392 . S
N541 Co535 2.008 . S
N541 C542 1.376 . S
N541 C545 1.374 . S
C542 N541 1.376 . S
C542 C543 1.443 . S
C542 C569 1.389 . S
C543 C542 1.443 . S
C543 C544 1.340 . S
C543 H575 0.951 . S
C544 C543 1.340 . S
C544 C545 1.439 . S
C544 H576 0.950 . S
C545 N541 1.374 . S
C545 C544 1.439 . S
C545 C570 1.395 . S
N546 Co535 1.995 . S
N546 C547 1.376 . S
N546 C550 1.383 . S
C547 N546 1.376 . S
C547 C548 1.446 . S
C547 C570 1.391 . S
C548 C547 1.446 . S
C548 C549 1.339 . S
C548 H577 0.949 . S
C549 C548 1.339 . S
C549 C550 1.439 . S
C549 H578 0.950 . S
C550 N546 1.383 . S
C550 C549 1.439 . S
C550 C568 1.392 . S
N551 Co535 2.282 . S
N551 C554 1.332 . S
N551 C556 1.332 . S
C552 C553 1.386 . S
C552 C555 1.388 . S
C553 C552 1.386 . S
C553 C554 1.382 . S
C553 H579 0.950 . S
C554 N551 1.332 . S
C554 C553 1.382 . S
C554 H565 0.952 . S
C555 C552 1.388 . S
C555 C556 1.382 . S
C555 H580 0.950 . S
C556 N551 1.332 . S
C556 C555 1.382 . S
C556 H566 0.948 . S
N557 Co535 2.282 . S
N557 C561 1.332 . S
N557 C562 1.332 . S
C558 C559 1.388 . S
C558 C562 1.382 . S
C558 H581 0.950 . S
C559 C558 1.388 . S
C559 C560 1.386 . S
C560 C559 1.386 . S
C560 C561 1.382 . S
C560 H582 0.950 . S
C561 N557 1.332 . S
C561 C560 1.382 . S
C561 H563 0.952 . S
C562 N557 1.332 . S
C562 C558 1.382 . S
C562 H564 0.948 . S
H563 C561 0.952 . S
H564 C562 0.948 . S
H565 C554 0.952 . S
H566 C556 0.948 . S
C567 C533 1.395 . S
C567 C537 1.391 . S
C568 C530 1.389 . S
C568 C550 1.392 . S
C569 C540 1.392 . S
C569 C542 1.389 . S
C570 C545 1.395 . S
C570 C547 1.391 . S
H571 C531 0.951 . S
H572 C532 0.950 . S
H573 C538 0.949 . S
H574 C539 0.950 . S
H575 C543 0.951 . S
H576 C544 0.950 . S
H577 C548 0.949 . S
H578 C549 0.950 . S
H579 C553 0.950 . S
H580 C555 0.950 . S
H581 C558 0.950 . S
H582 C560 0.950 . S
C583 C584 1.443 . S
C583 N587 1.376 . S
C583 C621 1.389 . S
C584 C583 1.443 . S
C584 C585 1.340 . S
C584 H624 0.951 . S
C585 C584 1.340 . S
C585 C586 1.439 . S
C585 H625 0.950 . S
C586 C585 1.439 . S
C586 N587 1.374 . S
C586 C620 1.395 . S
N587 C583 1.376 . S
N587 C586 1.374 . S
N587 Co588 2.008 . S
Co588 N587 2.008 . S
Co588 N589 1.995 . S
Co588 N594 2.008 . S
Co588 N599 1.995 . S
Co588 N604 2.282 . S
Co588 N610 2.282 . S
N589 Co588 1.995 . S
N589 C590 1.376 . S
N589 C593 1.383 . S
C590 N589 1.376 . S
C590 C591 1.446 . S
C590 C620 1.391 . S
C591 C590 1.446 . S
C591 C592 1.339 . S
C591 H626 0.949 . S
C592 C591 1.339 . S
C592 C593 1.439 . S
C592 H627 0.950 . S
C593 N589 1.383 . S
C593 C592 1.439 . S
C593 C622 1.392 . S
N594 Co588 2.008 . S
N594 C595 1.376 . S
N594 C598 1.374 . S
C595 N594 1.376 . S
C595 C596 1.443 . S
C595 C622 1.389 . S
C596 C595 1.443 . S
C596 C597 1.340 . S
C596 H628 0.951 . S
C597 C596 1.340 . S
C597 C598 1.439 . S
C597 H629 0.950 . S
C598 N594 1.374 . S
C598 C597 1.439 . S
C598 C623 1.395 . S
N599 Co588 1.995 . S
N599 C600 1.376 . S
N599 C603 1.383 . S
C600 N599 1.376 . S
C600 C601 1.446 . S
C600 C623 1.391 . S
C601 C600 1.446 . S
C601 C602 1.339 . S
C601 H630 0.949 . S
C602 C601 1.339 . S
C602 C603 1.439 . S
C602 H631 0.950 . S
C603 N599 1.383 . S
C603 C602 1.439 . S
C603 C621 1.392 . S
N604 Co588 2.282 . S
N604 C607 1.332 . S
N604 C609 1.332 . S
C605 C606 1.386 . S
C605 C608 1.388 . S
C606 C605 1.386 . S
C606 C607 1.382 . S
C606 H632 0.950 . S
C607 N604 1.332 . S
C607 C606 1.382 . S
C607 H618 0.952 . S
C608 C605 1.388 . S
C608 C609 1.382 . S
C608 H633 0.950 . S
C609 N604 1.332 . S
C609 C608 1.382 . S
C609 H619 0.948 . S
N610 Co588 2.282 . S
N610 C614 1.332 . S
N610 C615 1.332 . S
C611 C612 1.388 . S
C611 C615 1.382 . S
C611 H634 0.950 . S
C612 C611 1.388 . S
C612 C613 1.386 . S
C613 C612 1.386 . S
C613 C614 1.382 . S
C613 H635 0.950 . S
C614 N610 1.332 . S
C614 C613 1.382 . S
C614 H616 0.952 . S
C615 N610 1.332 . S
C615 C611 1.382 . S
C615 H617 0.948 . S
H616 C614 0.952 . S
H617 C615 0.948 . S
H618 C607 0.952 . S
H619 C609 0.948 . S
C620 C586 1.395 . S
C620 C590 1.391 . S
C621 C583 1.389 . S
C621 C603 1.392 . S
C622 C593 1.392 . S
C622 C595 1.389 . S
C623 C598 1.395 . S
C623 C600 1.391 . S
H624 C584 0.951 . S
H625 C585 0.950 . S
H626 C591 0.949 . S
H627 C592 0.950 . S
H628 C596 0.951 . S
H629 C597 0.950 . S
H630 C601 0.949 . S
H631 C602 0.950 . S
H632 C606 0.950 . S
H633 C608 0.950 . S
H634 C611 0.950 . S
H635 C613 0.950 . S
C636 C637 1.443 . S
C636 N640 1.376 . S
C636 C674 1.389 . S
C637 C636 1.443 . S
C637 C638 1.340 . S
C637 H677 0.951 . S
C638 C637 1.340 . S
C638 C639 1.439 . S
C638 H678 0.950 . S
C639 C638 1.439 . S
C639 N640 1.374 . S
C639 C673 1.395 . S
N640 C636 1.376 . S
N640 C639 1.374 . S
N640 Co641 2.008 . S
Co641 N640 2.008 . S
Co641 N642 1.995 . S
Co641 N647 2.008 . S
Co641 N652 1.995 . S
Co641 N657 2.282 . S
Co641 N663 2.282 . S
N642 Co641 1.995 . S
N642 C643 1.376 . S
N642 C646 1.383 . S
C643 N642 1.376 . S
C643 C644 1.446 . S
C643 C673 1.391 . S
C644 C643 1.446 . S
C644 C645 1.339 . S
C644 H679 0.949 . S
C645 C644 1.339 . S
C645 C646 1.439 . S
C645 H680 0.950 . S
C646 N642 1.383 . S
C646 C645 1.439 . S
C646 C675 1.392 . S
N647 Co641 2.008 . S
N647 C648 1.376 . S
N647 C651 1.374 . S
C648 N647 1.376 . S
C648 C649 1.443 . S
C648 C675 1.389 . S
C649 C648 1.443 . S
C649 C650 1.340 . S
C649 H681 0.951 . S
C650 C649 1.340 . S
C650 C651 1.439 . S
C650 H682 0.950 . S
C651 N647 1.374 . S
C651 C650 1.439 . S
C651 C676 1.395 . S
N652 Co641 1.995 . S
N652 C653 1.376 . S
N652 C656 1.383 . S
C653 N652 1.376 . S
C653 C654 1.446 . S
C653 C676 1.391 . S
C654 C653 1.446 . S
C654 C655 1.339 . S
C654 H683 0.949 . S
C655 C654 1.339 . S
C655 C656 1.439 . S
C655 H684 0.950 . S
C656 N652 1.383 . S
C656 C655 1.439 . S
C656 C674 1.392 . S
N657 Co641 2.282 . S
N657 C660 1.332 . S
N657 C662 1.332 . S
C658 C659 1.386 . S
C658 C661 1.388 . S
C659 C658 1.386 . S
C659 C660 1.382 . S
C659 H685 0.950 . S
C660 N657 1.332 . S
C660 C659 1.382 . S
C660 H671 0.952 . S
C661 C658 1.388 . S
C661 C662 1.382 . S
C661 H686 0.950 . S
C662 N657 1.332 . S
C662 C661 1.382 . S
C662 H672 0.948 . S
N663 Co641 2.282 . S
N663 C667 1.332 . S
N663 C668 1.332 . S
C664 C665 1.388 . S
C664 C668 1.382 . S
C664 H687 0.950 . S
C665 C664 1.388 . S
C665 C666 1.386 . S
C666 C665 1.386 . S
C666 C667 1.382 . S
C666 H688 0.950 . S
C667 N663 1.332 . S
C667 C666 1.382 . S
C667 H669 0.952 . S
C668 N663 1.332 . S
C668 C664 1.382 . S
C668 H670 0.948 . S
H669 C667 0.952 . S
H670 C668 0.948 . S
H671 C660 0.952 . S
H672 C662 0.948 . S
C673 C639 1.395 . S
C673 C643 1.391 . S
C674 C636 1.389 . S
C674 C656 1.392 . S
C675 C646 1.392 . S
C675 C648 1.389 . S
C676 C651 1.395 . S
C676 C653 1.391 . S
H677 C637 0.951 . S
H678 C638 0.950 . S
H679 C644 0.949 . S
H680 C645 0.950 . S
H681 C649 0.951 . S
H682 C650 0.950 . S
H683 C654 0.949 . S
H684 C655 0.950 . S
H685 C659 0.950 . S
H686 C661 0.950 . S
H687 C664 0.950 . S
H688 C666 0.950 . S
C689 C690 1.443 . S
C689 N693 1.376 . S
C689 C727 1.389 . S
C690 C689 1.443 . S
C690 C691 1.340 . S
C690 H730 0.951 . S
C691 C690 1.340 . S
C691 C692 1.439 . S
C691 H731 0.950 . S
C692 C691 1.439 . S
C692 N693 1.374 . S
C692 C726 1.395 . S
N693 C689 1.376 . S
N693 C692 1.374 . S
N693 Co694 2.008 . S
Co694 N693 2.008 . S
Co694 N695 1.995 . S
Co694 N700 2.008 . S
Co694 N705 1.995 . S
Co694 N710 2.282 . S
Co694 N716 2.282 . S
N695 Co694 1.995 . S
N695 C696 1.376 . S
N695 C699 1.383 . S
C696 N695 1.376 . S
C696 C697 1.446 . S
C696 C726 1.391 . S
C697 C696 1.446 . S
C697 C698 1.339 . S
C697 H732 0.949 . S
C698 C697 1.339 . S
C698 C699 1.439 . S
C698 H733 0.950 . S
C699 N695 1.383 . S
C699 C698 1.439 . S
C699 C728 1.392 . S
N700 Co694 2.008 . S
N700 C701 1.376 . S
N700 C704 1.374 . S
C701 N700 1.376 . S
C701 C702 1.443 . S
C701 C728 1.389 . S
C702 C701 1.443 . S
C702 C703 1.340 . S
C702 H734 0.951 . S
C703 C702 1.340 . S
C703 C704 1.439 . S
C703 H735 0.950 . S
C704 N700 1.374 . S
C704 C703 1.439 . S
C704 C729 1.395 . S
N705 Co694 1.995 . S
N705 C706 1.376 . S
N705 C709 1.383 . S
C706 N705 1.376 . S
C706 C707 1.446 . S
C706 C729 1.391 . S
C707 C706 1.446 . S
C707 C708 1.339 . S
C707 H736 0.949 . S
C708 C707 1.339 . S
C708 C709 1.439 . S
C708 H737 0.950 . S
C709 N705 1.383 . S
C709 C708 1.439 . S
C709 C727 1.392 . S
N710 Co694 2.282 . S
N710 C713 1.332 . S
N710 C715 1.332 . S
C711 C712 1.386 . S
C711 C714 1.388 . S
C712 C711 1.386 . S
C712 C713 1.382 . S
C712 H738 0.950 . S
C713 N710 1.332 . S
C713 C712 1.382 . S
C713 H724 0.952 . S
C714 C711 1.388 . S
C714 C715 1.382 . S
C714 H739 0.950 . S
C715 N710 1.332 . S
C715 C714 1.382 . S
C715 H725 0.948 . S
N716 Co694 2.282 . S
N716 C720 1.332 . S
N716 C721 1.332 . S
C717 C718 1.388 . S
C717 C721 1.382 . S
C717 H740 0.950 . S
C718 C717 1.388 . S
C718 C719 1.386 . S
C719 C718 1.386 . S
C719 C720 1.382 . S
C719 H741 0.950 . S
C720 N716 1.332 . S
C720 C719 1.382 . S
C720 H722 0.952 . S
C721 N716 1.332 . S
C721 C717 1.382 . S
C721 H723 0.948 . S
H722 C720 0.952 . S
H723 C721 0.948 . S
H724 C713 0.952 . S
H725 C715 0.948 . S
C726 C692 1.395 . S
C726 C696 1.391 . S
C727 C689 1.389 . S
C727 C709 1.392 . S
C728 C699 1.392 . S
C728 C701 1.389 . S
C729 C704 1.395 . S
C729 C706 1.391 . S
H730 C690 0.951 . S
H731 C691 0.950 . S
H732 C697 0.949 . S
H733 C698 0.950 . S
H734 C702 0.951 . S
H735 C703 0.950 . S
H736 C707 0.949 . S
H737 C708 0.950 . S
H738 C712 0.950 . S
H739 C714 0.950 . S
H740 C717 0.950 . S
H741 C719 0.950 . S
C742 C743 1.443 . S
C742 N746 1.376 . S
C742 C780 1.389 . S
C743 C742 1.443 . S
C743 C744 1.340 . S
C743 H783 0.951 . S
C744 C743 1.340 . S
C744 C745 1.439 . S
C744 H784 0.950 . S
C745 C744 1.439 . S
C745 N746 1.374 . S
C745 C779 1.395 . S
N746 C742 1.376 . S
N746 C745 1.374 . S
N746 Co747 2.008 . S
Co747 N746 2.008 . S
Co747 N748 1.995 . S
Co747 N753 2.008 . S
Co747 N758 1.995 . S
Co747 N763 2.282 . S
Co747 N769 2.282 . S
N748 Co747 1.995 . S
N748 C749 1.376 . S
N748 C752 1.383 . S
C749 N748 1.376 . S
C749 C750 1.446 . S
C749 C779 1.391 . S
C750 C749 1.446 . S
C750 C751 1.339 . S
C750 H785 0.949 . S
C751 C750 1.339 . S
C751 C752 1.439 . S
C751 H786 0.950 . S
C752 N748 1.383 . S
C752 C751 1.439 . S
C752 C781 1.392 . S
N753 Co747 2.008 . S
N753 C754 1.376 . S
N753 C757 1.374 . S
C754 N753 1.376 . S
C754 C755 1.443 . S
C754 C781 1.389 . S
C755 C754 1.443 . S
C755 C756 1.340 . S
C755 H787 0.951 . S
C756 C755 1.340 . S
C756 C757 1.439 . S
C756 H788 0.950 . S
C757 N753 1.374 . S
C757 C756 1.439 . S
C757 C782 1.395 . S
N758 Co747 1.995 . S
N758 C759 1.376 . S
N758 C762 1.383 . S
C759 N758 1.376 . S
C759 C760 1.446 . S
C759 C782 1.391 . S
C760 C759 1.446 . S
C760 C761 1.339 . S
C760 H789 0.949 . S
C761 C760 1.339 . S
C761 C762 1.439 . S
C761 H790 0.950 . S
C762 N758 1.383 . S
C762 C761 1.439 . S
C762 C780 1.392 . S
N763 Co747 2.282 . S
N763 C766 1.332 . S
N763 C768 1.332 . S
C764 C765 1.386 . S
C764 C767 1.388 . S
C765 C764 1.386 . S
C765 C766 1.382 . S
C765 H791 0.950 . S
C766 N763 1.332 . S
C766 C765 1.382 . S
C766 H777 0.952 . S
C767 C764 1.388 . S
C767 C768 1.382 . S
C767 H792 0.950 . S
C768 N763 1.332 . S
C768 C767 1.382 . S
C768 H778 0.948 . S
N769 Co747 2.282 . S
N769 C773 1.332 . S
N769 C774 1.332 . S
C770 C771 1.388 . S
C770 C774 1.382 . S
C770 H793 0.950 . S
C771 C770 1.388 . S
C771 C772 1.386 . S
C772 C771 1.386 . S
C772 C773 1.382 . S
C772 H794 0.950 . S
C773 N769 1.332 . S
C773 C772 1.382 . S
C773 H775 0.952 . S
C774 N769 1.332 . S
C774 C770 1.382 . S
C774 H776 0.948 . S
H775 C773 0.952 . S
H776 C774 0.948 . S
H777 C766 0.952 . S
H778 C768 0.948 . S
C779 C745 1.395 . S
C779 C749 1.391 . S
C780 C742 1.389 . S
C780 C762 1.392 . S
C781 C752 1.392 . S
C781 C754 1.389 . S
C782 C757 1.395 . S
C782 C759 1.391 . S
H783 C743 0.951 . S
H784 C744 0.950 . S
H785 C750 0.949 . S
H786 C751 0.950 . S
H787 C755 0.951 . S
H788 C756 0.950 . S
H789 C760 0.949 . S
H790 C761 0.950 . S
H791 C765 0.950 . S
H792 C767 0.950 . S
H793 C770 0.950 . S
H794 C772 0.950 . S
C795 C796 1.443 . S
C795 N799 1.376 . S
C795 C833 1.389 . S
C796 C795 1.443 . S
C796 C797 1.340 . S
C796 H836 0.951 . S
C797 C796 1.340 . S
C797 C798 1.439 . S
C797 H837 0.950 . S
C798 C797 1.439 . S
C798 N799 1.374 . S
C798 C832 1.395 . S
N799 C795 1.376 . S
N799 C798 1.374 . S
N799 Co800 2.008 . S
Co800 N799 2.008 . S
Co800 N801 1.995 . S
Co800 N806 2.008 . S
Co800 N811 1.995 . S
Co800 N816 2.282 . S
Co800 N822 2.282 . S
N801 Co800 1.995 . S
N801 C802 1.376 . S
N801 C805 1.383 . S
C802 N801 1.376 . S
C802 C803 1.446 . S
C802 C832 1.391 . S
C803 C802 1.446 . S
C803 C804 1.339 . S
C803 H838 0.949 . S
C804 C803 1.339 . S
C804 C805 1.439 . S
C804 H839 0.950 . S
C805 N801 1.383 . S
C805 C804 1.439 . S
C805 C834 1.392 . S
N806 Co800 2.008 . S
N806 C807 1.376 . S
N806 C810 1.374 . S
C807 N806 1.376 . S
C807 C808 1.443 . S
C807 C834 1.389 . S
C808 C807 1.443 . S
C808 C809 1.340 . S
C808 H840 0.951 . S
C809 C808 1.340 . S
C809 C810 1.439 . S
C809 H841 0.950 . S
C810 N806 1.374 . S
C810 C809 1.439 . S
C810 C835 1.395 . S
N811 Co800 1.995 . S
N811 C812 1.376 . S
N811 C815 1.383 . S
C812 N811 1.376 . S
C812 C813 1.446 . S
C812 C835 1.391 . S
C813 C812 1.446 . S
C813 C814 1.339 . S
C813 H842 0.949 . S
C814 C813 1.339 . S
C814 C815 1.439 . S
C814 H843 0.950 . S
C815 N811 1.383 . S
C815 C814 1.439 . S
C815 C833 1.392 . S
N816 Co800 2.282 . S
N816 C819 1.332 . S
N816 C821 1.332 . S
C817 C818 1.386 . S
C817 C820 1.388 . S
C818 C817 1.386 . S
C818 C819 1.382 . S
C818 H844 0.950 . S
C819 N816 1.332 . S
C819 C818 1.382 . S
C819 H830 0.952 . S
C820 C817 1.388 . S
C820 C821 1.382 . S
C820 H845 0.950 . S
C821 N816 1.332 . S
C821 C820 1.382 . S
C821 H831 0.948 . S
N822 Co800 2.282 . S
N822 C826 1.332 . S
N822 C827 1.332 . S
C823 C824 1.388 . S
C823 C827 1.382 . S
C823 H846 0.950 . S
C824 C823 1.388 . S
C824 C825 1.386 . S
C825 C824 1.386 . S
C825 C826 1.382 . S
C825 H847 0.950 . S
C826 N822 1.332 . S
C826 C825 1.382 . S
C826 H828 0.952 . S
C827 N822 1.332 . S
C827 C823 1.382 . S
C827 H829 0.948 . S
H828 C826 0.952 . S
H829 C827 0.948 . S
H830 C819 0.952 . S
H831 C821 0.948 . S
C832 C798 1.395 . S
C832 C802 1.391 . S
C833 C795 1.389 . S
C833 C815 1.392 . S
C834 C805 1.392 . S
C834 C807 1.389 . S
C835 C810 1.395 . S
C835 C812 1.391 . S
H836 C796 0.951 . S
H837 C797 0.950 . S
H838 C803 0.949 . S
H839 C804 0.950 . S
H840 C808 0.951 . S
H841 C809 0.950 . S
H842 C813 0.949 . S
H843 C814 0.950 . S
H844 C818 0.950 . S
H845 C820 0.950 . S
H846 C823 0.950 . S
H847 C825 0.950 . S
C848 C849 1.443 . S
C848 N852 1.376 . S
C848 C886 1.389 1_655 S
C849 C848 1.443 . S
C849 C850 1.340 . S
C849 H889 0.951 . S
C850 C849 1.340 . S
C850 C851 1.439 . S
C850 H890 0.950 . S
C851 C850 1.439 . S
C851 N852 1.374 . S
C851 C885 1.395 . S
N852 C848 1.376 . S
N852 C851 1.374 . S
N852 Co853 2.008 . S
Co853 N852 2.008 . S
Co853 N854 1.995 . S
Co853 N859 2.008 1_645 S
Co853 N864 1.995 1_655 S
Co853 N869 2.282 1_545 S
Co853 N875 2.282 1_655 S
N854 Co853 1.995 . S
N854 C855 1.376 . S
N854 C858 1.383 . S
C855 N854 1.376 . S
C855 C856 1.446 . S
C855 C885 1.391 . S
C856 C855 1.446 . S
C856 C857 1.339 . S
C856 H891 0.949 . S
C857 C856 1.339 . S
C857 C858 1.439 . S
C857 H892 0.950 . S
C858 N854 1.383 . S
C858 C857 1.439 . S
C858 C887 1.392 1_545 S
N859 Co853 2.008 1_465 S
N859 C860 1.376 . S
N859 C863 1.374 . S
C860 N859 1.376 . S
C860 C861 1.443 . S
C860 C887 1.389 1_455 S
C861 C860 1.443 . S
C861 C862 1.340 . S
C861 H893 0.951 . S
C862 C861 1.340 . S
C862 C863 1.439 . S
C862 H894 0.950 . S
C863 N859 1.374 . S
C863 C862 1.439 . S
C863 C888 1.395 . S
N864 Co853 1.995 1_455 S
N864 C865 1.376 1_545 S
N864 C868 1.383 . S
C865 N864 1.376 1_565 S
C865 C866 1.446 . S
C865 C888 1.391 . S
C866 C865 1.446 . S
C866 C867 1.304 1_565 S
C866 H895 0.949 . S
C867 C866 1.304 1_545 S
C867 C868 1.462 . S
C867 H896 0.960 . S
C868 N864 1.383 . S
C868 C867 1.462 . S
C868 C886 1.392 . S
N869 Co853 2.282 1_565 S
N869 C872 1.332 . S
N869 C874 1.332 1_565 S
C870 C871 1.386 . S
C870 C873 1.388 . S
C871 C870 1.386 . S
C871 C872 1.382 . S
C871 H897 0.950 . S
C872 N869 1.332 . S
C872 C871 1.382 . S
C872 H883 0.952 . S
C873 C870 1.388 . S
C873 C874 1.382 1_565 S
C873 H898 0.963 . S
C874 N869 1.332 1_545 S
C874 C873 1.382 1_545 S
C874 H884 0.948 . S
N875 Co853 2.282 1_455 S
N875 C879 1.332 . S
N875 C880 1.332 . S
C876 C877 1.388 . S
C876 C880 1.382 . S
C876 H899 0.950 . S
C877 C876 1.388 . S
C877 C878 1.386 . S
C878 C877 1.386 . S
C878 C879 1.382 . S
C878 H900 0.950 . S
C879 N875 1.332 . S
C879 C878 1.382 . S
C879 H881 0.952 . S
C880 N875 1.332 . S
C880 C876 1.382 . S
C880 H882 0.948 . S
H881 C879 0.952 . S
H882 C880 0.948 . S
H883 C872 0.952 . S
H884 C874 0.948 . S
C885 C851 1.395 . S
C885 C855 1.391 . S
C886 C848 1.389 1_455 S
C886 C868 1.392 . S
C887 C858 1.392 1_565 S
C887 C860 1.389 1_655 S
C888 C863 1.395 . S
C888 C865 1.391 . S
H889 C849 0.951 . S
H890 C850 0.950 . S
H891 C856 0.949 . S
H892 C857 0.950 . S
H893 C861 0.951 . S
H894 C862 0.950 . S
H895 C866 0.949 . S
H896 C867 0.960 . S
H897 C871 0.950 . S
H898 C873 0.963 . S
H899 C876 0.950 . S
H900 C878 0.950 . S
C901 C902 1.443 . S
C901 N905 1.376 . S
C901 C939 1.389 . S
C902 C901 1.443 . S
C902 C903 1.340 . S
C902 H942 0.951 . S
C903 C902 1.340 . S
C903 C904 1.439 . S
C903 H943 0.950 . S
C904 C903 1.439 . S
C904 N905 1.374 . S
C904 C938 1.395 . S
N905 C901 1.376 . S
N905 C904 1.374 . S
N905 Co906 2.008 . S
Co906 N905 2.008 . S
Co906 N907 1.995 . S
Co906 N912 2.008 . S
Co906 N917 1.995 . S
Co906 N922 2.282 . S
Co906 N928 2.282 . S
N907 Co906 1.995 . S
N907 C908 1.376 . S
N907 C911 1.383 . S
C908 N907 1.376 . S
C908 C909 1.446 . S
C908 C938 1.391 . S
C909 C908 1.446 . S
C909 C910 1.339 . S
C909 H944 0.949 . S
C910 C909 1.339 . S
C910 C911 1.439 . S
C910 H945 0.950 . S
C911 N907 1.383 . S
C911 C910 1.439 . S
C911 C940 1.392 . S
N912 Co906 2.008 . S
N912 C913 1.376 . S
N912 C916 1.374 . S
C913 N912 1.376 . S
C913 C914 1.443 . S
C913 C940 1.389 . S
C914 C913 1.443 . S
C914 C915 1.340 . S
C914 H946 0.951 . S
C915 C914 1.340 . S
C915 C916 1.439 . S
C915 H947 0.950 . S
C916 N912 1.374 . S
C916 C915 1.439 . S
C916 C941 1.395 . S
N917 Co906 1.995 . S
N917 C918 1.376 . S
N917 C921 1.383 . S
C918 N917 1.376 . S
C918 C919 1.446 . S
C918 C941 1.391 . S
C919 C918 1.446 . S
C919 C920 1.339 . S
C919 H948 0.949 . S
C920 C919 1.339 . S
C920 C921 1.439 . S
C920 H949 0.950 . S
C921 N917 1.383 . S
C921 C920 1.439 . S
C921 C939 1.392 . S
N922 Co906 2.282 . S
N922 C925 1.332 . S
N922 C927 1.332 . S
C923 C924 1.386 . S
C923 C926 1.388 . S
C924 C923 1.386 . S
C924 C925 1.382 . S
C924 H950 0.950 . S
C925 N922 1.332 . S
C925 C924 1.382 . S
C925 H936 0.952 . S
C926 C923 1.388 . S
C926 C927 1.382 . S
C926 H951 0.950 . S
C927 N922 1.332 . S
C927 C926 1.382 . S
C927 H937 0.948 . S
N928 Co906 2.282 . S
N928 C932 1.332 . S
N928 C933 1.332 . S
C929 C930 1.388 . S
C929 C933 1.382 . S
C929 H952 0.950 . S
C930 C929 1.388 . S
C930 C931 1.386 . S
C931 C930 1.386 . S
C931 C932 1.382 . S
C931 H953 0.950 . S
C932 N928 1.332 . S
C932 C931 1.382 . S
C932 H934 0.952 . S
C933 N928 1.332 . S
C933 C929 1.382 . S
C933 H935 0.948 . S
H934 C932 0.952 . S
H935 C933 0.948 . S
H936 C925 0.952 . S
H937 C927 0.948 . S
C938 C904 1.395 . S
C938 C908 1.391 . S
C939 C901 1.389 . S
C939 C921 1.392 . S
C940 C911 1.392 . S
C940 C913 1.389 . S
C941 C916 1.395 . S
C941 C918 1.391 . S
H942 C902 0.951 . S
H943 C903 0.950 . S
H944 C909 0.949 . S
H945 C910 0.950 . S
H946 C914 0.951 . S
H947 C915 0.950 . S
H948 C919 0.949 . S
H949 C920 0.950 . S
H950 C924 0.950 . S
H951 C926 0.950 . S
H952 C929 0.950 . S
H953 C931 0.950 . S
C954 C955 1.443 . S
C954 N958 1.376 . S
C954 C992 1.389 1_655 S
C955 C954 1.443 . S
C955 C956 1.340 . S
C955 H995 0.951 . S
C956 C955 1.340 . S
C956 C957 1.439 . S
C956 H996 0.950 . S
C957 C956 1.439 . S
C957 N958 1.374 . S
C957 C991 1.395 . S
N958 C954 1.376 . S
N958 C957 1.374 . S
N958 Co959 2.008 . S
Co959 N958 2.008 . S
Co959 N960 1.995 . S
Co959 N965 2.008 1_655 S
Co959 N970 1.995 1_655 S
Co959 N975 2.282 . S
Co959 N981 2.282 1_655 S
N960 Co959 1.995 . S
N960 C961 1.376 . S
N960 C964 1.383 . S
C961 N960 1.376 . S
C961 C962 1.446 . S
C961 C991 1.391 . S
C962 C961 1.446 . S
C962 C963 1.339 . S
C962 H997 0.949 . S
C963 C962 1.339 . S
C963 C964 1.439 . S
C963 H998 0.950 . S
C964 N960 1.383 . S
C964 C963 1.439 . S
C964 C993 1.392 . S
N965 Co959 2.008 1_455 S
N965 C966 1.376 . S
N965 C969 1.374 . S
C966 N965 1.376 . S
C966 C967 1.443 . S
C966 C993 1.389 1_455 S
C967 C966 1.443 . S
C967 C968 1.340 . S
C967 H999 0.951 . S
C968 C967 1.340 . S
C968 C969 1.439 . S
C968 H1000 0.950 . S
C969 N965 1.374 . S
C969 C968 1.439 . S
C969 C994 1.395 . S
N970 Co959 1.995 1_455 S
N970 C971 1.376 . S
N970 C974 1.383 . S
C971 N970 1.376 . S
C971 C972 1.446 . S
C971 C994 1.391 . S
C972 C971 1.446 . S
C972 C973 1.339 . S
C972 H1001 0.949 . S
C973 C972 1.339 . S
C973 C974 1.439 . S
C973 H1002 0.950 . S
C974 N970 1.383 . S
C974 C973 1.439 . S
C974 C992 1.392 . S
N975 Co959 2.282 . S
N975 C978 1.332 . S
N975 C980 1.332 . S
C976 C977 1.386 . S
C976 C979 1.388 . S
C977 C976 1.386 . S
C977 C978 1.382 . S
C977 H1003 0.950 . S
C978 N975 1.332 . S
C978 C977 1.382 . S
C978 H989 0.952 . S
C979 C976 1.388 . S
C979 C980 1.382 . S
C979 H1004 0.950 . S
C980 N975 1.332 . S
C980 C979 1.382 . S
C980 H990 0.948 . S
N981 Co959 2.282 1_455 S
N981 C985 1.332 . S
N981 C986 1.332 . S
C982 C983 1.388 . S
C982 C986 1.382 . S
C982 H1005 0.950 . S
C983 C982 1.388 . S
C983 C984 1.386 . S
C984 C983 1.386 . S
C984 C985 1.382 . S
C984 H1006 0.950 . S
C985 N981 1.332 . S
C985 C984 1.382 . S
C985 H987 0.952 . S
C986 N981 1.332 . S
C986 C982 1.382 . S
C986 H988 0.948 . S
H987 C985 0.952 . S
H988 C986 0.948 . S
H989 C978 0.952 . S
H990 C980 0.948 . S
C991 C957 1.395 . S
C991 C961 1.391 . S
C992 C954 1.389 1_455 S
C992 C974 1.392 . S
C993 C964 1.392 . S
C993 C966 1.389 1_655 S
C994 C969 1.395 . S
C994 C971 1.391 . S
H995 C955 0.951 . S
H996 C956 0.950 . S
H997 C962 0.949 . S
H998 C963 0.950 . S
H999 C967 0.951 . S
H1000 C968 0.950 . S
H1001 C972 0.949 . S
H1002 C973 0.950 . S
H1003 C977 0.950 . S
H1004 C979 0.950 . S
H1005 C982 0.950 . S
H1006 C984 0.950 . S
C1007 C1008 1.443 . S
C1007 N1011 1.376 . S
C1007 C1045 1.389 . S
C1008 C1007 1.443 . S
C1008 C1009 1.340 . S
C1008 H1048 0.951 . S
C1009 C1008 1.340 . S
C1009 C1010 1.439 . S
C1009 H1049 0.950 . S
C1010 C1009 1.439 . S
C1010 N1011 1.374 . S
C1010 C1044 1.395 . S
N1011 C1007 1.376 . S
N1011 C1010 1.374 . S
N1011 Co1012 2.008 . S
Co1012 N1011 2.008 . S
Co1012 N1013 1.995 . S
Co1012 N1018 2.008 1_545 S
Co1012 N1023 1.995 . S
Co1012 N1028 2.282 1_545 S
Co1012 N1034 2.282 . S
N1013 Co1012 1.995 . S
N1013 C1014 1.376 . S
N1013 C1017 1.383 . S
C1014 N1013 1.376 . S
C1014 C1015 1.446 . S
C1014 C1044 1.391 . S
C1015 C1014 1.446 . S
C1015 C1016 1.339 . S
C1015 H1050 0.949 . S
C1016 C1015 1.339 . S
C1016 C1017 1.439 . S
C1016 H1051 0.950 . S
C1017 N1013 1.383 . S
C1017 C1016 1.439 . S
C1017 C1046 1.392 1_545 S
N1018 Co1012 2.008 1_565 S
N1018 C1019 1.376 . S
N1018 C1022 1.374 . S
C1019 N1018 1.376 . S
C1019 C1020 1.443 . S
C1019 C1046 1.389 . S
C1020 C1019 1.443 . S
C1020 C1021 1.340 . S
C1020 H1052 0.951 . S
C1021 C1020 1.340 . S
C1021 C1022 1.439 . S
C1021 H1053 0.950 . S
C1022 N1018 1.374 . S
C1022 C1021 1.439 . S
C1022 C1047 1.395 . S
N1023 Co1012 1.995 . S
N1023 C1024 1.376 1_545 S
N1023 C1027 1.383 . S
C1024 N1023 1.376 1_565 S
C1024 C1025 1.446 . S
C1024 C1047 1.391 . S
C1025 C1024 1.446 . S
C1025 C1026 1.339 . S
C1025 H1054 0.949 . S
C1026 C1025 1.339 . S
C1026 C1027 1.439 1_565 S
C1026 H1055 0.950 1_565 S
C1027 N1023 1.383 . S
C1027 C1026 1.439 1_545 S
C1027 C1045 1.392 . S
N1028 Co1012 2.282 1_565 S
N1028 C1031 1.332 . S
N1028 C1033 1.332 1_565 S
C1029 C1030 1.386 . S
C1029 C1032 1.388 . S
C1030 C1029 1.386 . S
C1030 C1031 1.382 . S
C1030 H1056 0.950 . S
C1031 N1028 1.332 . S
C1031 C1030 1.382 . S
C1031 H1042 0.952 . S
C1032 C1029 1.388 . S
C1032 C1033 1.382 1_565 S
C1032 H1057 0.950 . S
C1033 N1028 1.332 1_545 S
C1033 C1032 1.382 1_545 S
C1033 H1043 0.948 . S
N1034 Co1012 2.282 . S
N1034 C1038 1.332 . S
N1034 C1039 1.332 . S
C1035 C1036 1.388 . S
C1035 C1039 1.382 . S
C1035 H1058 0.950 . S
C1036 C1035 1.388 . S
C1036 C1037 1.386 . S
C1037 C1036 1.386 . S
C1037 C1038 1.382 . S
C1037 H1059 0.950 . S
C1038 N1034 1.332 . S
C1038 C1037 1.382 . S
C1038 H1040 0.952 . S
C1039 N1034 1.332 . S
C1039 C1035 1.382 . S
C1039 H1041 0.948 . S
H1040 C1038 0.952 . S
H1041 C1039 0.948 . S
H1042 C1031 0.952 . S
H1043 C1033 0.948 . S
C1044 C1010 1.395 . S
C1044 C1014 1.391 . S
C1045 C1007 1.389 . S
C1045 C1027 1.392 . S
C1046 C1017 1.392 1_565 S
C1046 C1019 1.389 . S
C1047 C1022 1.395 . S
C1047 C1024 1.391 . S
H1048 C1008 0.951 . S
H1049 C1009 0.950 . S
H1050 C1015 0.949 . S
H1051 C1016 0.950 . S
H1052 C1020 0.951 . S
H1053 C1021 0.950 . S
H1054 C1025 0.949 . S
H1055 C1026 0.950 1_545 S
H1056 C1030 0.950 . S
H1057 C1032 0.950 . S
H1058 C1035 0.950 . S
H1059 C1037 0.950 . S
C1060 C1061 1.443 . S
C1060 N1064 1.376 . S
C1060 C1098 1.389 . S
C1061 C1060 1.443 . S
C1061 C1062 1.340 1_565 S
C1061 H1101 0.951 . S
C1062 C1061 1.340 1_545 S
C1062 C1063 1.439 . S
C1062 H1102 0.950 . S
C1063 C1062 1.439 . S
C1063 N1064 1.374 1_545 S
C1063 C1097 1.395 . S
N1064 C1060 1.376 . S
N1064 C1063 1.374 1_565 S
N1064 Co1065 2.008 1_655 S
Co1065 N1064 2.008 1_455 S
Co1065 N1066 1.995 1_465 S
Co1065 N1071 2.008 . S
Co1065 N1076 1.995 . S
Co1065 N1081 2.282 1_565 S
Co1065 N1087 2.282 1_455 S
N1066 Co1065 1.995 1_645 S
N1066 C1067 1.376 . S
N1066 C1070 1.383 . S
C1067 N1066 1.376 . S
C1067 C1068 1.446 . S
C1067 C1097 1.391 . S
C1068 C1067 1.446 . S
C1068 C1069 1.339 . S
C1068 H1103 0.949 . S
C1069 C1068 1.339 . S
C1069 C1070 1.439 . S
C1069 H1104 0.950 . S
C1070 N1066 1.383 . S
C1070 C1069 1.439 . S
C1070 C1099 1.392 1_655 S
N1071 Co1065 2.008 . S
N1071 C1072 1.376 . S
N1071 C1075 1.374 . S
C1072 N1071 1.376 . S
C1072 C1073 1.443 . S
C1072 C1099 1.389 1_565 S
C1073 C1072 1.443 . S
C1073 C1074 1.340 . S
C1073 H1105 0.951 . S
C1074 C1073 1.340 . S
C1074 C1075 1.439 . S
C1074 H1106 0.950 . S
C1075 N1071 1.374 . S
C1075 C1074 1.439 . S
C1075 C1100 1.395 . S
N1076 Co1065 1.995 . S
N1076 C1077 1.376 . S
N1076 C1080 1.383 . S
C1077 N1076 1.376 . S
C1077 C1078 1.446 . S
C1077 C1100 1.391 . S
C1078 C1077 1.446 . S
C1078 C1079 1.339 . S
C1078 H1107 0.949 . S
C1079 C1078 1.339 . S
C1079 C1080 1.439 . S
C1079 H1108 0.950 . S
C1080 N1076 1.383 . S
C1080 C1079 1.439 . S
C1080 C1098 1.392 1_455 S
N1081 Co1065 2.282 1_545 S
N1081 C1084 1.332 1_545 S
N1081 C1086 1.332 . S
C1082 C1083 1.386 . S
C1082 C1085 1.388 . S
C1083 C1082 1.386 . S
C1083 C1084 1.382 1_545 S
C1083 H1109 0.950 1_545 S
C1084 N1081 1.332 1_565 S
C1084 C1083 1.382 1_565 S
C1084 H1095 0.952 . S
C1085 C1082 1.388 . S
C1085 C1086 1.382 . S
C1085 H1110 0.950 . S
C1086 N1081 1.332 . S
C1086 C1085 1.382 . S
C1086 H1096 0.948 . S
N1087 Co1065 2.282 1_655 S
N1087 C1091 1.332 . S
N1087 C1092 1.332 . S
C1088 C1089 1.388 . S
C1088 C1092 1.382 . S
C1088 H1111 0.950 . S
C1089 C1088 1.388 . S
C1089 C1090 1.386 . S
C1090 C1089 1.386 . S
C1090 C1091 1.382 . S
C1090 H1112 0.950 . S
C1091 N1087 1.332 . S
C1091 C1090 1.382 . S
C1091 H1093 0.952 . S
C1092 N1087 1.332 . S
C1092 C1088 1.382 . S
C1092 H1094 0.948 . S
H1093 C1091 0.952 . S
H1094 C1092 0.948 . S
H1095 C1084 0.952 . S
H1096 C1086 0.948 . S
C1097 C1063 1.395 . S
C1097 C1067 1.391 . S
C1098 C1060 1.389 . S
C1098 C1080 1.392 1_655 S
C1099 C1070 1.392 1_455 S
C1099 C1072 1.389 1_545 S
C1100 C1075 1.395 . S
C1100 C1077 1.391 . S
H1101 C1061 0.951 . S
H1102 C1062 0.950 . S
H1103 C1068 0.949 . S
H1104 C1069 0.950 . S
H1105 C1073 0.951 . S
H1106 C1074 0.950 . S
H1107 C1078 0.949 . S
H1108 C1079 0.950 . S
H1109 C1083 0.950 1_565 S
H1110 C1085 0.950 . S
H1111 C1088 0.950 . S
H1112 C1090 0.950 . S
C1113 C1114 1.443 . S
C1113 N1117 1.376 . S
C1113 C1151 1.389 . S
C1114 C1113 1.443 . S
C1114 C1115 1.340 . S
C1114 H1154 0.951 . S
C1115 C1114 1.340 . S
C1115 C1116 1.439 . S
C1115 H1155 0.950 . S
C1116 C1115 1.439 . S
C1116 N1117 1.374 . S
C1116 C1150 1.395 . S
N1117 C1113 1.376 . S
N1117 C1116 1.374 . S
N1117 Co1118 2.008 . S
Co1118 N1117 2.008 . S
Co1118 N1119 1.995 . S
Co1118 N1124 2.008 . S
Co1118 N1129 1.995 . S
Co1118 N1134 2.282 . S
Co1118 N1140 2.282 . S
N1119 Co1118 1.995 . S
N1119 C1120 1.376 . S
N1119 C1123 1.383 . S
C1120 N1119 1.376 . S
C1120 C1121 1.446 . S
C1120 C1150 1.391 . S
C1121 C1120 1.446 . S
C1121 C1122 1.339 . S
C1121 H1156 0.949 . S
C1122 C1121 1.339 . S
C1122 C1123 1.439 . S
C1122 H1157 0.950 . S
C1123 N1119 1.383 . S
C1123 C1122 1.439 . S
C1123 C1152 1.392 . S
N1124 Co1118 2.008 . S
N1124 C1125 1.376 . S
N1124 C1128 1.374 . S
C1125 N1124 1.376 . S
C1125 C1126 1.443 . S
C1125 C1152 1.389 . S
C1126 C1125 1.443 . S
C1126 C1127 1.340 . S
C1126 H1158 0.951 . S
C1127 C1126 1.340 . S
C1127 C1128 1.439 . S
C1127 H1159 0.950 . S
C1128 N1124 1.374 . S
C1128 C1127 1.439 . S
C1128 C1153 1.395 . S
N1129 Co1118 1.995 . S
N1129 C1130 1.376 . S
N1129 C1133 1.383 . S
C1130 N1129 1.376 . S
C1130 C1131 1.446 . S
C1130 C1153 1.391 . S
C1131 C1130 1.446 . S
C1131 C1132 1.339 . S
C1131 H1160 0.949 . S
C1132 C1131 1.339 . S
C1132 C1133 1.439 . S
C1132 H1161 0.950 . S
C1133 N1129 1.383 . S
C1133 C1132 1.439 . S
C1133 C1151 1.392 . S
N1134 Co1118 2.282 . S
N1134 C1137 1.332 . S
N1134 C1139 1.332 . S
C1135 C1136 1.386 . S
C1135 C1138 1.388 . S
C1136 C1135 1.386 . S
C1136 C1137 1.382 . S
C1136 H1162 0.950 . S
C1137 N1134 1.332 . S
C1137 C1136 1.382 . S
C1137 H1148 0.952 . S
C1138 C1135 1.388 . S
C1138 C1139 1.382 . S
C1138 H1163 0.950 . S
C1139 N1134 1.332 . S
C1139 C1138 1.382 . S
C1139 H1149 0.948 . S
N1140 Co1118 2.282 . S
N1140 C1144 1.332 . S
N1140 C1145 1.332 . S
C1141 C1142 1.388 . S
C1141 C1145 1.382 . S
C1141 H1164 0.950 . S
C1142 C1141 1.388 . S
C1142 C1143 1.386 . S
C1143 C1142 1.386 . S
C1143 C1144 1.382 . S
C1143 H1165 0.950 . S
C1144 N1140 1.332 . S
C1144 C1143 1.382 . S
C1144 H1146 0.952 . S
C1145 N1140 1.332 . S
C1145 C1141 1.382 . S
C1145 H1147 0.948 . S
H1146 C1144 0.952 . S
H1147 C1145 0.948 . S
H1148 C1137 0.952 . S
H1149 C1139 0.948 . S
C1150 C1116 1.395 . S
C1150 C1120 1.391 . S
C1151 C1113 1.389 . S
C1151 C1133 1.392 . S
C1152 C1123 1.392 . S
C1152 C1125 1.389 . S
C1153 C1128 1.395 . S
C1153 C1130 1.391 . S
H1154 C1114 0.951 . S
H1155 C1115 0.950 . S
H1156 C1121 0.949 . S
H1157 C1122 0.950 . S
H1158 C1126 0.951 . S
H1159 C1127 0.950 . S
H1160 C1131 0.949 . S
H1161 C1132 0.950 . S
H1162 C1136 0.950 . S
H1163 C1138 0.950 . S
H1164 C1141 0.950 . S
H1165 C1143 0.950 . S
C1166 C1167 1.443 . S
C1166 N1170 1.376 . S
C1166 C1204 1.389 . S
C1167 C1166 1.443 . S
C1167 C1168 1.340 . S
C1167 H1207 0.951 . S
C1168 C1167 1.340 . S
C1168 C1169 1.439 . S
C1168 H1208 0.950 . S
C1169 C1168 1.439 . S
C1169 N1170 1.374 . S
C1169 C1203 1.395 . S
N1170 C1166 1.376 . S
N1170 C1169 1.374 . S
N1170 Co1171 2.008 1_655 S
Co1171 N1170 2.008 1_455 S
Co1171 N1172 1.995 1_455 S
Co1171 N1177 2.008 . S
Co1171 N1182 1.995 . S
Co1171 N1187 2.282 . S
Co1171 N1193 2.282 1_455 S
N1172 Co1171 1.995 1_655 S
N1172 C1173 1.376 . S
N1172 C1176 1.383 . S
C1173 N1172 1.376 . S
C1173 C1174 1.446 . S
C1173 C1203 1.391 . S
C1174 C1173 1.446 . S
C1174 C1175 1.339 . S
C1174 H1209 0.949 . S
C1175 C1174 1.339 . S
C1175 C1176 1.439 . S
C1175 H1210 0.950 . S
C1176 N1172 1.383 . S
C1176 C1175 1.439 . S
C1176 C1205 1.392 1_655 S
N1177 Co1171 2.008 . S
N1177 C1178 1.376 . S
N1177 C1181 1.374 . S
C1178 N1177 1.376 . S
C1178 C1179 1.443 . S
C1178 C1205 1.389 . S
C1179 C1178 1.443 . S
C1179 C1180 1.340 . S
C1179 H1211 0.951 . S
C1180 C1179 1.340 . S
C1180 C1181 1.439 . S
C1180 H1212 0.950 . S
C1181 N1177 1.374 . S
C1181 C1180 1.439 . S
C1181 C1206 1.395 . S
N1182 Co1171 1.995 . S
N1182 C1183 1.376 . S
N1182 C1186 1.383 . S
C1183 N1182 1.376 . S
C1183 C1184 1.446 . S
C1183 C1206 1.391 . S
C1184 C1183 1.446 . S
C1184 C1185 1.339 . S
C1184 H1213 0.949 . S
C1185 C1184 1.339 . S
C1185 C1186 1.439 . S
C1185 H1214 0.950 . S
C1186 N1182 1.383 . S
C1186 C1185 1.439 . S
C1186 C1204 1.392 1_455 S
N1187 Co1171 2.282 . S
N1187 C1190 1.332 . S
N1187 C1192 1.332 . S
C1188 C1189 1.386 . S
C1188 C1191 1.388 . S
C1189 C1188 1.386 . S
C1189 C1190 1.382 . S
C1189 H1215 0.950 . S
C1190 N1187 1.332 . S
C1190 C1189 1.382 . S
C1190 H1201 0.952 . S
C1191 C1188 1.388 . S
C1191 C1192 1.382 . S
C1191 H1216 0.950 . S
C1192 N1187 1.332 . S
C1192 C1191 1.382 . S
C1192 H1202 0.948 . S
N1193 Co1171 2.282 1_655 S
N1193 C1197 1.332 . S
N1193 C1198 1.332 . S
C1194 C1195 1.388 . S
C1194 C1198 1.382 . S
C1194 H1217 0.950 . S
C1195 C1194 1.388 . S
C1195 C1196 1.386 . S
C1196 C1195 1.386 . S
C1196 C1197 1.382 . S
C1196 H1218 0.950 . S
C1197 N1193 1.332 . S
C1197 C1196 1.382 . S
C1197 H1199 0.952 . S
C1198 N1193 1.332 . S
C1198 C1194 1.382 . S
C1198 H1200 0.948 . S
H1199 C1197 0.952 . S
H1200 C1198 0.948 . S
H1201 C1190 0.952 . S
H1202 C1192 0.948 . S
C1203 C1169 1.395 . S
C1203 C1173 1.391 . S
C1204 C1166 1.389 . S
C1204 C1186 1.392 1_655 S
C1205 C1176 1.392 1_455 S
C1205 C1178 1.389 . S
C1206 C1181 1.395 . S
C1206 C1183 1.391 . S
H1207 C1167 0.951 . S
H1208 C1168 0.950 . S
H1209 C1174 0.949 . S
H1210 C1175 0.950 . S
H1211 C1179 0.951 . S
H1212 C1180 0.950 . S
H1213 C1184 0.949 . S
H1214 C1185 0.950 . S
H1215 C1189 0.950 . S
H1216 C1191 0.950 . S
H1217 C1194 0.950 . S
H1218 C1196 0.950 . S
C1219 C1220 1.443 . S
C1219 N1223 1.376 . S
C1219 C1257 1.389 . S
C1220 C1219 1.443 . S
C1220 C1221 1.340 1_565 S
C1220 H1260 0.951 . S
C1221 C1220 1.340 1_545 S
C1221 C1222 1.439 . S
C1221 H1261 0.950 . S
C1222 C1221 1.439 . S
C1222 N1223 1.374 1_545 S
C1222 C1256 1.395 . S
N1223 C1219 1.376 . S
N1223 C1222 1.374 1_565 S
N1223 Co1224 2.008 . S
Co1224 N1223 2.008 . S
Co1224 N1225 1.995 1_565 S
Co1224 N1230 2.008 . S
Co1224 N1235 1.995 . S
Co1224 N1240 2.282 1_565 S
Co1224 N1246 2.282 . S
N1225 Co1224 1.995 1_545 S
N1225 C1226 1.376 . S
N1225 C1229 1.383 . S
C1226 N1225 1.376 . S
C1226 C1227 1.446 . S
C1226 C1256 1.391 . S
C1227 C1226 1.446 . S
C1227 C1228 1.339 . S
C1227 H1262 0.949 . S
C1228 C1227 1.339 . S
C1228 C1229 1.439 . S
C1228 H1263 0.950 . S
C1229 N1225 1.383 . S
C1229 C1228 1.439 . S
C1229 C1258 1.392 . S
N1230 Co1224 2.008 . S
N1230 C1231 1.376 . S
N1230 C1234 1.374 . S
C1231 N1230 1.376 . S
C1231 C1232 1.443 . S
C1231 C1258 1.389 1_565 S
C1232 C1231 1.443 . S
C1232 C1233 1.340 . S
C1232 H1264 0.951 . S
C1233 C1232 1.340 . S
C1233 C1234 1.439 . S
C1233 H1265 0.950 . S
C1234 N1230 1.374 . S
C1234 C1233 1.439 . S
C1234 C1259 1.395 . S
N1235 Co1224 1.995 . S
N1235 C1236 1.376 . S
N1235 C1239 1.383 . S
C1236 N1235 1.376 . S
C1236 C1237 1.446 . S
C1236 C1259 1.391 . S
C1237 C1236 1.446 . S
C1237 C1238 1.339 . S
C1237 H1266 0.949 . S
C1238 C1237 1.339 . S
C1238 C1239 1.439 . S
C1238 H1267 0.950 . S
C1239 N1235 1.383 . S
C1239 C1238 1.439 . S
C1239 C1257 1.392 . S
N1240 Co1224 2.282 1_545 S
N1240 C1243 1.332 1_545 S
N1240 C1245 1.332 . S
C1241 C1242 1.386 . S
C1241 C1244 1.388 . S
C1242 C1241 1.386 . S
C1242 C1243 1.382 1_545 S
C1242 H1268 0.952 1_545 S
C1243 N1240 1.332 1_565 S
C1243 C1242 1.382 1_565 S
C1243 H1254 0.952 . S
C1244 C1241 1.388 . S
C1244 C1245 1.382 . S
C1244 H1269 0.950 . S
C1245 N1240 1.332 . S
C1245 C1244 1.382 . S
C1245 H1255 0.948 . S
N1246 Co1224 2.282 . S
N1246 C1250 1.332 . S
N1246 C1251 1.332 . S
C1247 C1248 1.388 . S
C1247 C1251 1.382 . S
C1247 H1270 0.950 . S
C1248 C1247 1.388 . S
C1248 C1249 1.386 . S
C1249 C1248 1.386 . S
C1249 C1250 1.382 . S
C1249 H1271 0.950 . S
C1250 N1246 1.332 . S
C1250 C1249 1.382 . S
C1250 H1252 0.952 . S
C1251 N1246 1.332 . S
C1251 C1247 1.382 . S
C1251 H1253 0.948 . S
H1252 C1250 0.952 . S
H1253 C1251 0.948 . S
H1254 C1243 0.952 . S
H1255 C1245 0.948 . S
C1256 C1222 1.395 . S
C1256 C1226 1.391 . S
C1257 C1219 1.389 . S
C1257 C1239 1.392 . S
C1258 C1229 1.392 . S
C1258 C1231 1.389 1_545 S
C1259 C1234 1.395 . S
C1259 C1236 1.391 . S
H1260 C1220 0.951 . S
H1261 C1221 0.950 . S
H1262 C1227 0.949 . S
H1263 C1228 0.950 . S
H1264 C1232 0.951 . S
H1265 C1233 0.950 . S
H1266 C1237 0.949 . S
H1267 C1238 0.950 . S
H1268 C1242 0.952 1_565 S
H1269 C1244 0.950 . S
H1270 C1247 0.950 . S
H1271 C1249 0.950 . S
C1272 C1273 1.443 . S
C1272 N1276 1.376 . S
C1272 C1310 1.389 1_655 S
C1273 C1272 1.443 . S
C1273 C1274 1.340 . S
C1273 H1313 0.951 . S
C1274 C1273 1.340 . S
C1274 C1275 1.439 . S
C1274 H1314 0.950 . S
C1275 C1274 1.439 . S
C1275 N1276 1.374 . S
C1275 C1309 1.395 . S
N1276 C1272 1.376 . S
N1276 C1275 1.374 . S
N1276 Co1277 2.008 . S
Co1277 N1276 2.008 . S
Co1277 N1278 1.995 . S
Co1277 N1283 2.008 1_655 S
Co1277 N1288 1.995 1_655 S
Co1277 N1293 2.282 . S
Co1277 N1299 2.282 1_655 S
N1278 Co1277 1.995 . S
N1278 C1279 1.376 . S
N1278 C1282 1.383 . S
C1279 N1278 1.376 . S
C1279 C1280 1.446 . S
C1279 C1309 1.391 . S
C1280 C1279 1.446 . S
C1280 C1281 1.339 . S
C1280 H1315 0.949 . S
C1281 C1280 1.339 . S
C1281 C1282 1.439 . S
C1281 H1316 0.950 . S
C1282 N1278 1.383 . S
C1282 C1281 1.439 . S
C1282 C1311 1.392 . S
N1283 Co1277 2.008 1_455 S
N1283 C1284 1.376 . S
N1283 C1287 1.374 . S
C1284 N1283 1.376 . S
C1284 C1285 1.443 . S
C1284 C1311 1.389 1_455 S
C1285 C1284 1.443 . S
C1285 C1286 1.340 . S
C1285 H1317 0.951 . S
C1286 C1285 1.340 . S
C1286 C1287 1.439 . S
C1286 H1318 0.950 . S
C1287 N1283 1.374 . S
C1287 C1286 1.439 . S
C1287 C1312 1.395 . S
N1288 Co1277 1.995 1_455 S
N1288 C1289 1.376 . S
N1288 C1292 1.383 . S
C1289 N1288 1.376 . S
C1289 C1290 1.446 . S
C1289 C1312 1.391 . S
C1290 C1289 1.446 . S
C1290 C1291 1.339 . S
C1290 H1319 0.949 . S
C1291 C1290 1.339 . S
C1291 C1292 1.439 . S
C1291 H1320 0.950 . S
C1292 N1288 1.383 . S
C1292 C1291 1.439 . S
C1292 C1310 1.392 . S
N1293 Co1277 2.282 . S
N1293 C1296 1.332 . S
N1293 C1298 1.332 . S
C1294 C1295 1.386 . S
C1294 C1297 1.388 . S
C1295 C1294 1.386 . S
C1295 C1296 1.382 . S
C1295 H1321 0.950 . S
C1296 N1293 1.332 . S
C1296 C1295 1.382 . S
C1296 H1307 0.952 . S
C1297 C1294 1.388 . S
C1297 C1298 1.382 . S
C1297 H1322 0.950 . S
C1298 N1293 1.332 . S
C1298 C1297 1.382 . S
C1298 H1308 0.948 . S
N1299 Co1277 2.282 1_455 S
N1299 C1303 1.332 . S
N1299 C1304 1.332 . S
C1300 C1301 1.388 . S
C1300 C1304 1.382 . S
C1300 H1323 0.950 . S
C1301 C1300 1.388 . S
C1301 C1302 1.386 . S
C1302 C1301 1.386 . S
C1302 C1303 1.382 . S
C1302 H1324 0.950 . S
C1303 N1299 1.332 . S
C1303 C1302 1.382 . S
C1303 H1305 0.952 . S
C1304 N1299 1.332 . S
C1304 C1300 1.382 . S
C1304 H1306 0.948 . S
H1305 C1303 0.952 . S
H1306 C1304 0.948 . S
H1307 C1296 0.952 . S
H1308 C1298 0.948 . S
C1309 C1275 1.395 . S
C1309 C1279 1.391 . S
C1310 C1272 1.389 1_455 S
C1310 C1292 1.392 . S
C1311 C1282 1.392 . S
C1311 C1284 1.389 1_655 S
C1312 C1287 1.395 . S
C1312 C1289 1.391 . S
H1313 C1273 0.951 . S
H1314 C1274 0.950 . S
H1315 C1280 0.949 . S
H1316 C1281 0.950 . S
H1317 C1285 0.951 . S
H1318 C1286 0.950 . S
H1319 C1290 0.949 . S
H1320 C1291 0.950 . S
H1321 C1295 0.950 . S
H1322 C1297 0.950 . S
H1323 C1300 0.950 . S
H1324 C1302 0.950 . S
C1325 C1326 1.443 . S
C1325 N1329 1.376 . S
C1325 C1363 1.389 . S
C1326 C1325 1.443 . S
C1326 C1327 1.340 . S
C1326 H1366 0.951 . S
C1327 C1326 1.340 . S
C1327 C1328 1.439 . S
C1327 H1367 0.950 . S
C1328 C1327 1.439 . S
C1328 N1329 1.374 . S
C1328 C1362 1.395 . S
N1329 C1325 1.376 . S
N1329 C1328 1.374 . S
N1329 Co1330 2.008 . S
Co1330 N1329 2.008 . S
Co1330 N1331 1.995 . S
Co1330 N1336 2.008 . S
Co1330 N1341 1.995 . S
Co1330 N1346 2.282 . S
Co1330 N1352 2.282 . S
N1331 Co1330 1.995 . S
N1331 C1332 1.376 . S
N1331 C1335 1.383 . S
C1332 N1331 1.376 . S
C1332 C1333 1.446 . S
C1332 C1362 1.391 . S
C1333 C1332 1.446 . S
C1333 C1334 1.339 . S
C1333 H1368 0.949 . S
C1334 C1333 1.339 . S
C1334 C1335 1.439 . S
C1334 H1369 0.950 . S
C1335 N1331 1.383 . S
C1335 C1334 1.439 . S
C1335 C1364 1.392 . S
N1336 Co1330 2.008 . S
N1336 C1337 1.376 . S
N1336 C1340 1.374 . S
C1337 N1336 1.376 . S
C1337 C1338 1.443 . S
C1337 C1364 1.389 . S
C1338 C1337 1.443 . S
C1338 C1339 1.340 . S
C1338 H1370 0.951 . S
C1339 C1338 1.340 . S
C1339 C1340 1.439 . S
C1339 H1371 0.950 . S
C1340 N1336 1.374 . S
C1340 C1339 1.439 . S
C1340 C1365 1.395 . S
N1341 Co1330 1.995 . S
N1341 C1342 1.376 . S
N1341 C1345 1.383 . S
C1342 N1341 1.376 . S
C1342 C1343 1.446 . S
C1342 C1365 1.391 . S
C1343 C1342 1.446 . S
C1343 C1344 1.339 . S
C1343 H1372 0.949 . S
C1344 C1343 1.339 . S
C1344 C1345 1.439 . S
C1344 H1373 0.950 . S
C1345 N1341 1.383 . S
C1345 C1344 1.439 . S
C1345 C1363 1.392 . S
N1346 Co1330 2.282 . S
N1346 C1349 1.332 . S
N1346 C1351 1.332 . S
C1347 C1348 1.386 . S
C1347 C1350 1.388 . S
C1348 C1347 1.386 . S
C1348 C1349 1.382 . S
C1348 H1374 0.950 . S
C1349 N1346 1.332 . S
C1349 C1348 1.382 . S
C1349 H1360 0.952 . S
C1350 C1347 1.388 . S
C1350 C1351 1.382 . S
C1350 H1375 0.950 . S
C1351 N1346 1.332 . S
C1351 C1350 1.382 . S
C1351 H1361 0.948 . S
N1352 Co1330 2.282 . S
N1352 C1356 1.332 . S
N1352 C1357 1.332 . S
C1353 C1354 1.388 . S
C1353 C1357 1.382 . S
C1353 H1376 0.950 . S
C1354 C1353 1.388 . S
C1354 C1355 1.386 . S
C1355 C1354 1.386 . S
C1355 C1356 1.382 . S
C1355 H1377 0.950 . S
C1356 N1352 1.332 . S
C1356 C1355 1.382 . S
C1356 H1358 0.952 . S
C1357 N1352 1.332 . S
C1357 C1353 1.382 . S
C1357 H1359 0.948 . S
H1358 C1356 0.952 . S
H1359 C1357 0.948 . S
H1360 C1349 0.952 . S
H1361 C1351 0.948 . S
C1362 C1328 1.395 . S
C1362 C1332 1.391 . S
C1363 C1325 1.389 . S
C1363 C1345 1.392 . S
C1364 C1335 1.392 . S
C1364 C1337 1.389 . S
C1365 C1340 1.395 . S
C1365 C1342 1.391 . S
H1366 C1326 0.951 . S
H1367 C1327 0.950 . S
H1368 C1333 0.949 . S
H1369 C1334 0.950 . S
H1370 C1338 0.951 . S
H1371 C1339 0.950 . S
H1372 C1343 0.949 . S
H1373 C1344 0.950 . S
H1374 C1348 0.950 . S
H1375 C1350 0.950 . S
H1376 C1353 0.950 . S
H1377 C1355 0.950 . S
C1378 C1379 1.443 . S
C1378 N1382 1.376 . S
C1378 C1416 1.389 1_655 S
C1379 C1378 1.443 . S
C1379 C1380 1.340 . S
C1379 H1419 0.951 . S
C1380 C1379 1.340 . S
C1380 C1381 1.439 . S
C1380 H1420 0.950 . S
C1381 C1380 1.439 . S
C1381 N1382 1.374 . S
C1381 C1415 1.395 . S
N1382 C1378 1.376 . S
N1382 C1381 1.374 . S
N1382 Co1383 2.008 . S
Co1383 N1382 2.008 . S
Co1383 N1384 1.995 . S
Co1383 N1389 2.008 1_655 S
Co1383 N1394 1.995 1_655 S
Co1383 N1399 2.282 . S
Co1383 N1405 2.282 1_655 S
N1384 Co1383 1.995 . S
N1384 C1385 1.376 . S
N1384 C1388 1.383 . S
C1385 N1384 1.376 . S
C1385 C1386 1.446 . S
C1385 C1415 1.391 . S
C1386 C1385 1.446 . S
C1386 C1387 1.339 . S
C1386 H1421 0.949 . S
C1387 C1386 1.339 . S
C1387 C1388 1.439 . S
C1387 H1422 0.950 . S
C1388 N1384 1.383 . S
C1388 C1387 1.439 . S
C1388 C1417 1.392 . S
N1389 Co1383 2.008 1_455 S
N1389 C1390 1.376 . S
N1389 C1393 1.374 . S
C1390 N1389 1.376 . S
C1390 C1391 1.443 . S
C1390 C1417 1.389 1_455 S
C1391 C1390 1.443 . S
C1391 C1392 1.340 . S
C1391 H1423 0.951 . S
C1392 C1391 1.340 . S
C1392 C1393 1.439 . S
C1392 H1424 0.950 . S
C1393 N1389 1.374 . S
C1393 C1392 1.439 . S
C1393 C1418 1.395 . S
N1394 Co1383 1.995 1_455 S
N1394 C1395 1.376 . S
N1394 C1398 1.383 . S
C1395 N1394 1.376 . S
C1395 C1396 1.446 . S
C1395 C1418 1.391 . S
C1396 C1395 1.446 . S
C1396 C1397 1.339 . S
C1396 H1425 0.949 . S
C1397 C1396 1.339 . S
C1397 C1398 1.439 . S
C1397 H1426 0.950 . S
C1398 N1394 1.383 . S
C1398 C1397 1.439 . S
C1398 C1416 1.392 . S
N1399 Co1383 2.282 . S
N1399 C1402 1.332 . S
N1399 C1404 1.332 . S
C1400 C1401 1.386 . S
C1400 C1403 1.388 . S
C1401 C1400 1.386 . S
C1401 C1402 1.382 . S
C1401 H1427 0.950 . S
C1402 N1399 1.332 . S
C1402 C1401 1.382 . S
C1402 H1413 0.952 . S
C1403 C1400 1.388 . S
C1403 C1404 1.382 . S
C1403 H1428 0.950 . S
C1404 N1399 1.332 . S
C1404 C1403 1.382 . S
C1404 H1414 0.948 . S
N1405 Co1383 2.282 1_455 S
N1405 C1409 1.332 . S
N1405 C1410 1.332 . S
C1406 C1407 1.388 . S
C1406 C1410 1.382 . S
C1406 H1429 0.950 . S
C1407 C1406 1.388 . S
C1407 C1408 1.386 . S
C1408 C1407 1.386 . S
C1408 C1409 1.382 . S
C1408 H1430 0.950 . S
C1409 N1405 1.332 . S
C1409 C1408 1.382 . S
C1409 H1411 0.952 . S
C1410 N1405 1.332 . S
C1410 C1406 1.382 . S
C1410 H1412 0.948 . S
H1411 C1409 0.952 . S
H1412 C1410 0.948 . S
H1413 C1402 0.952 . S
H1414 C1404 0.948 . S
C1415 C1381 1.395 . S
C1415 C1385 1.391 . S
C1416 C1378 1.389 1_455 S
C1416 C1398 1.392 . S
C1417 C1388 1.392 . S
C1417 C1390 1.389 1_655 S
C1418 C1393 1.395 . S
C1418 C1395 1.391 . S
H1419 C1379 0.951 . S
H1420 C1380 0.950 . S
H1421 C1386 0.949 . S
H1422 C1387 0.950 . S
H1423 C1391 0.951 . S
H1424 C1392 0.950 . S
H1425 C1396 0.949 . S
H1426 C1397 0.950 . S
H1427 C1401 0.950 . S
H1428 C1403 0.950 . S
H1429 C1406 0.950 . S
H1430 C1408 0.950 . S
C1431 C1432 1.443 . S
C1431 N1435 1.376 . S
C1431 C1469 1.389 . S
C1432 C1431 1.443 . S
C1432 C1433 1.340 . S
C1432 H1472 0.951 . S
C1433 C1432 1.340 . S
C1433 C1434 1.439 . S
C1433 H1473 0.950 . S
C1434 C1433 1.439 . S
C1434 N1435 1.374 . S
C1434 C1468 1.395 . S
N1435 C1431 1.376 . S
N1435 C1434 1.374 . S
N1435 Co1436 2.008 . S
Co1436 N1435 2.008 . S
Co1436 N1437 1.995 . S
Co1436 N1442 2.008 . S
Co1436 N1447 1.995 . S
Co1436 N1452 2.282 . S
Co1436 N1458 2.282 . S
N1437 Co1436 1.995 . S
N1437 C1438 1.376 . S
N1437 C1441 1.383 . S
C1438 N1437 1.376 . S
C1438 C1439 1.446 . S
C1438 C1468 1.391 . S
C1439 C1438 1.446 . S
C1439 C1440 1.339 . S
C1439 H1474 0.949 . S
C1440 C1439 1.339 . S
C1440 C1441 1.439 . S
C1440 H1475 0.950 . S
C1441 N1437 1.383 . S
C1441 C1440 1.439 . S
C1441 C1470 1.392 . S
N1442 Co1436 2.008 . S
N1442 C1443 1.376 . S
N1442 C1446 1.374 . S
C1443 N1442 1.376 . S
C1443 C1444 1.443 . S
C1443 C1470 1.389 . S
C1444 C1443 1.443 . S
C1444 C1445 1.340 . S
C1444 H1476 0.951 . S
C1445 C1444 1.340 . S
C1445 C1446 1.439 . S
C1445 H1477 0.950 . S
C1446 N1442 1.374 . S
C1446 C1445 1.439 . S
C1446 C1471 1.395 . S
N1447 Co1436 1.995 . S
N1447 C1448 1.376 . S
N1447 C1451 1.383 . S
C1448 N1447 1.376 . S
C1448 C1449 1.446 . S
C1448 C1471 1.391 . S
C1449 C1448 1.446 . S
C1449 C1450 1.339 . S
C1449 H1478 0.949 . S
C1450 C1449 1.339 . S
C1450 C1451 1.439 . S
C1450 H1479 0.950 . S
C1451 N1447 1.383 . S
C1451 C1450 1.439 . S
C1451 C1469 1.392 . S
N1452 Co1436 2.282 . S
N1452 C1455 1.332 . S
N1452 C1457 1.332 . S
C1453 C1454 1.386 . S
C1453 C1456 1.388 . S
C1454 C1453 1.386 . S
C1454 C1455 1.382 . S
C1454 H1480 0.950 . S
C1455 N1452 1.332 . S
C1455 C1454 1.382 . S
C1455 H1466 0.952 . S
C1456 C1453 1.388 . S
C1456 C1457 1.382 . S
C1456 H1481 0.950 . S
C1457 N1452 1.332 . S
C1457 C1456 1.382 . S
C1457 H1467 0.948 . S
N1458 Co1436 2.282 . S
N1458 C1462 1.332 . S
N1458 C1463 1.332 . S
C1459 C1460 1.388 . S
C1459 C1463 1.382 . S
C1459 H1482 0.950 . S
C1460 C1459 1.388 . S
C1460 C1461 1.386 . S
C1461 C1460 1.386 . S
C1461 C1462 1.382 . S
C1461 H1483 0.950 . S
C1462 N1458 1.332 . S
C1462 C1461 1.382 . S
C1462 H1464 0.952 . S
C1463 N1458 1.332 . S
C1463 C1459 1.382 . S
C1463 H1465 0.948 . S
H1464 C1462 0.952 . S
H1465 C1463 0.948 . S
H1466 C1455 0.952 . S
H1467 C1457 0.948 . S
C1468 C1434 1.395 . S
C1468 C1438 1.391 . S
C1469 C1431 1.389 . S
C1469 C1451 1.392 . S
C1470 C1441 1.392 . S
C1470 C1443 1.389 . S
C1471 C1446 1.395 . S
C1471 C1448 1.391 . S
H1472 C1432 0.951 . S
H1473 C1433 0.950 . S
H1474 C1439 0.949 . S
H1475 C1440 0.950 . S
H1476 C1444 0.951 . S
H1477 C1445 0.950 . S
H1478 C1449 0.949 . S
H1479 C1450 0.950 . S
H1480 C1454 0.950 . S
H1481 C1456 0.950 . S
H1482 C1459 0.950 . S
H1483 C1461 0.950 . S
C1484 C1485 1.443 . S
C1484 N1488 1.376 . S
C1484 C1522 1.389 . S
C1485 C1484 1.443 . S
C1485 C1486 1.340 . S
C1485 H1525 0.951 . S
C1486 C1485 1.340 . S
C1486 C1487 1.439 . S
C1486 H1526 0.950 . S
C1487 C1486 1.439 . S
C1487 N1488 1.374 . S
C1487 C1521 1.395 . S
N1488 C1484 1.376 . S
N1488 C1487 1.374 . S
N1488 Co1489 2.008 1_655 S
Co1489 N1488 2.008 1_455 S
Co1489 N1490 1.995 1_455 S
Co1489 N1495 2.008 . S
Co1489 N1500 1.995 . S
Co1489 N1505 2.282 . S
Co1489 N1511 2.282 1_455 S
N1490 Co1489 1.995 1_655 S
N1490 C1491 1.376 . S
N1490 C1494 1.383 . S
C1491 N1490 1.376 . S
C1491 C1492 1.446 . S
C1491 C1521 1.391 . S
C1492 C1491 1.446 . S
C1492 C1493 1.339 . S
C1492 H1527 0.949 . S
C1493 C1492 1.339 . S
C1493 C1494 1.439 . S
C1493 H1528 0.950 . S
C1494 N1490 1.383 . S
C1494 C1493 1.439 . S
C1494 C1523 1.392 1_655 S
N1495 Co1489 2.008 . S
N1495 C1496 1.376 . S
N1495 C1499 1.374 . S
C1496 N1495 1.376 . S
C1496 C1497 1.443 . S
C1496 C1523 1.389 . S
C1497 C1496 1.443 . S
C1497 C1498 1.340 . S
C1497 H1529 0.951 . S
C1498 C1497 1.340 . S
C1498 C1499 1.439 . S
C1498 H1530 0.950 . S
C1499 N1495 1.374 . S
C1499 C1498 1.439 . S
C1499 C1524 1.395 . S
N1500 Co1489 1.995 . S
N1500 C1501 1.376 . S
N1500 C1504 1.383 . S
C1501 N1500 1.376 . S
C1501 C1502 1.446 . S
C1501 C1524 1.391 . S
C1502 C1501 1.446 . S
C1502 C1503 1.339 . S
C1502 H1531 0.949 . S
C1503 C1502 1.339 . S
C1503 C1504 1.439 . S
C1503 H1532 0.950 . S
C1504 N1500 1.383 . S
C1504 C1503 1.439 . S
C1504 C1522 1.392 1_455 S
N1505 Co1489 2.282 . S
N1505 C1508 1.332 . S
N1505 C1510 1.332 . S
C1506 C1507 1.386 . S
C1506 C1509 1.388 . S
C1507 C1506 1.386 . S
C1507 C1508 1.382 . S
C1507 H1533 0.950 . S
C1508 N1505 1.332 . S
C1508 C1507 1.382 . S
C1508 H1519 0.952 . S
C1509 C1506 1.388 . S
C1509 C1510 1.382 . S
C1509 H1534 0.950 . S
C1510 N1505 1.332 . S
C1510 C1509 1.382 . S
C1510 H1520 0.948 . S
N1511 Co1489 2.282 1_655 S
N1511 C1515 1.332 . S
N1511 C1516 1.332 . S
C1512 C1513 1.388 . S
C1512 C1516 1.382 . S
C1512 H1535 0.950 . S
C1513 C1512 1.388 . S
C1513 C1514 1.386 . S
C1514 C1513 1.386 . S
C1514 C1515 1.382 . S
C1514 H1536 0.950 . S
C1515 N1511 1.332 . S
C1515 C1514 1.382 . S
C1515 H1517 0.952 . S
C1516 N1511 1.332 . S
C1516 C1512 1.382 . S
C1516 H1518 0.948 . S
H1517 C1515 0.952 . S
H1518 C1516 0.948 . S
H1519 C1508 0.952 . S
H1520 C1510 0.948 . S
C1521 C1487 1.395 . S
C1521 C1491 1.391 . S
C1522 C1484 1.389 . S
C1522 C1504 1.392 1_655 S
C1523 C1494 1.392 1_455 S
C1523 C1496 1.389 . S
C1524 C1499 1.395 . S
C1524 C1501 1.391 . S
H1525 C1485 0.951 . S
H1526 C1486 0.950 . S
H1527 C1492 0.949 . S
H1528 C1493 0.950 . S
H1529 C1497 0.951 . S
H1530 C1498 0.950 . S
H1531 C1502 0.949 . S
H1532 C1503 0.950 . S
H1533 C1507 0.950 . S
H1534 C1509 0.950 . S
H1535 C1512 0.950 . S
H1536 C1514 0.950 . S
C1537 C1538 1.443 . S
C1537 N1541 1.376 . S
C1537 C1575 1.389 . S
C1538 C1537 1.443 . S
C1538 C1539 1.340 . S
C1538 H1578 0.951 . S
C1539 C1538 1.340 . S
C1539 C1540 1.439 . S
C1539 H1579 0.950 . S
C1540 C1539 1.439 . S
C1540 N1541 1.374 . S
C1540 C1574 1.395 . S
N1541 C1537 1.376 . S
N1541 C1540 1.374 . S
N1541 Co1542 2.008 . S
Co1542 N1541 2.008 . S
Co1542 N1543 1.995 . S
Co1542 N1548 2.008 . S
Co1542 N1553 1.995 . S
Co1542 N1558 2.282 . S
Co1542 N1564 2.282 . S
N1543 Co1542 1.995 . S
N1543 C1544 1.376 . S
N1543 C1547 1.383 . S
C1544 N1543 1.376 . S
C1544 C1545 1.446 . S
C1544 C1574 1.391 . S
C1545 C1544 1.446 . S
C1545 C1546 1.339 . S
C1545 H1580 0.949 . S
C1546 C1545 1.339 . S
C1546 C1547 1.439 . S
C1546 H1581 0.950 . S
C1547 N1543 1.383 . S
C1547 C1546 1.439 . S
C1547 C1576 1.392 . S
N1548 Co1542 2.008 . S
N1548 C1549 1.376 . S
N1548 C1552 1.374 . S
C1549 N1548 1.376 . S
C1549 C1550 1.443 . S
C1549 C1576 1.389 . S
C1550 C1549 1.443 . S
C1550 C1551 1.340 . S
C1550 H1582 0.951 . S
C1551 C1550 1.340 . S
C1551 C1552 1.439 . S
C1551 H1583 0.950 . S
C1552 N1548 1.374 . S
C1552 C1551 1.439 . S
C1552 C1577 1.395 . S
N1553 Co1542 1.995 . S
N1553 C1554 1.376 . S
N1553 C1557 1.383 . S
C1554 N1553 1.376 . S
C1554 C1555 1.446 . S
C1554 C1577 1.391 . S
C1555 C1554 1.446 . S
C1555 C1556 1.339 . S
C1555 H1584 0.949 . S
C1556 C1555 1.339 . S
C1556 C1557 1.439 . S
C1556 H1585 0.950 . S
C1557 N1553 1.383 . S
C1557 C1556 1.439 . S
C1557 C1575 1.392 . S
N1558 Co1542 2.282 . S
N1558 C1561 1.332 . S
N1558 C1563 1.332 . S
C1559 C1560 1.386 . S
C1559 C1562 1.388 . S
C1560 C1559 1.386 . S
C1560 C1561 1.382 . S
C1560 H1586 0.950 . S
C1561 N1558 1.332 . S
C1561 C1560 1.382 . S
C1561 H1572 0.952 . S
C1562 C1559 1.388 . S
C1562 C1563 1.382 . S
C1562 H1587 0.950 . S
C1563 N1558 1.332 . S
C1563 C1562 1.382 . S
C1563 H1573 0.948 . S
N1564 Co1542 2.282 . S
N1564 C1568 1.332 . S
N1564 C1569 1.332 . S
C1565 C1566 1.388 . S
C1565 C1569 1.382 . S
C1565 H1588 0.950 . S
C1566 C1565 1.388 . S
C1566 C1567 1.386 . S
C1567 C1566 1.386 . S
C1567 C1568 1.382 . S
C1567 H1589 0.950 . S
C1568 N1564 1.332 . S
C1568 C1567 1.382 . S
C1568 H1570 0.952 . S
C1569 N1564 1.332 . S
C1569 C1565 1.382 . S
C1569 H1571 0.948 . S
H1570 C1568 0.952 . S
H1571 C1569 0.948 . S
H1572 C1561 0.952 . S
H1573 C1563 0.948 . S
C1574 C1540 1.395 . S
C1574 C1544 1.391 . S
C1575 C1537 1.389 . S
C1575 C1557 1.392 . S
C1576 C1547 1.392 . S
C1576 C1549 1.389 . S
C1577 C1552 1.395 . S
C1577 C1554 1.391 . S
H1578 C1538 0.951 . S
H1579 C1539 0.950 . S
H1580 C1545 0.949 . S
H1581 C1546 0.950 . S
H1582 C1550 0.951 . S
H1583 C1551 0.950 . S
H1584 C1555 0.949 . S
H1585 C1556 0.950 . S
H1586 C1560 0.950 . S
H1587 C1562 0.950 . S
H1588 C1565 0.950 . S
H1589 C1567 0.950 . S
C1590 C1591 1.443 . S
C1590 N1594 1.376 . S
C1590 C1628 1.389 . S
C1591 C1590 1.443 . S
C1591 C1592 1.340 . S
C1591 H1631 0.951 . S
C1592 C1591 1.340 . S
C1592 C1593 1.439 . S
C1592 H1632 0.950 . S
C1593 C1592 1.439 . S
C1593 N1594 1.374 . S
C1593 C1627 1.395 . S
N1594 C1590 1.376 . S
N1594 C1593 1.374 . S
N1594 Co1595 2.008 1_655 S
Co1595 N1594 2.008 1_455 S
Co1595 N1596 1.995 1_455 S
Co1595 N1601 2.008 . S
Co1595 N1606 1.995 . S
Co1595 N1611 2.282 . S
Co1595 N1617 2.282 1_455 S
N1596 Co1595 1.995 1_655 S
N1596 C1597 1.376 . S
N1596 C1600 1.383 . S
C1597 N1596 1.376 . S
C1597 C1598 1.446 . S
C1597 C1627 1.391 . S
C1598 C1597 1.446 . S
C1598 C1599 1.339 . S
C1598 H1633 0.949 . S
C1599 C1598 1.339 . S
C1599 C1600 1.439 . S
C1599 H1634 0.950 . S
C1600 N1596 1.383 . S
C1600 C1599 1.439 . S
C1600 C1629 1.392 1_655 S
N1601 Co1595 2.008 . S
N1601 C1602 1.376 . S
N1601 C1605 1.374 . S
C1602 N1601 1.376 . S
C1602 C1603 1.443 . S
C1602 C1629 1.389 . S
C1603 C1602 1.443 . S
C1603 C1604 1.340 . S
C1603 H1635 0.951 . S
C1604 C1603 1.340 . S
C1604 C1605 1.439 . S
C1604 H1636 0.950 . S
C1605 N1601 1.374 . S
C1605 C1604 1.439 . S
C1605 C1630 1.395 . S
N1606 Co1595 1.995 . S
N1606 C1607 1.376 . S
N1606 C1610 1.383 . S
C1607 N1606 1.376 . S
C1607 C1608 1.446 . S
C1607 C1630 1.391 . S
C1608 C1607 1.446 . S
C1608 C1609 1.339 . S
C1608 H1637 0.949 . S
C1609 C1608 1.339 . S
C1609 C1610 1.439 . S
C1609 H1638 0.950 . S
C1610 N1606 1.383 . S
C1610 C1609 1.439 . S
C1610 C1628 1.392 1_455 S
N1611 Co1595 2.282 . S
N1611 C1614 1.332 . S
N1611 C1616 1.332 . S
C1612 C1613 1.386 . S
C1612 C1615 1.388 . S
C1613 C1612 1.386 . S
C1613 C1614 1.382 . S
C1613 H1639 0.950 . S
C1614 N1611 1.332 . S
C1614 C1613 1.382 . S
C1614 H1625 0.952 . S
C1615 C1612 1.388 . S
C1615 C1616 1.382 . S
C1615 H1640 0.950 . S
C1616 N1611 1.332 . S
C1616 C1615 1.382 . S
C1616 H1626 0.948 . S
N1617 Co1595 2.282 1_655 S
N1617 C1621 1.332 . S
N1617 C1622 1.332 . S
C1618 C1619 1.388 . S
C1618 C1622 1.382 . S
C1618 H1641 0.950 . S
C1619 C1618 1.388 . S
C1619 C1620 1.386 . S
C1620 C1619 1.386 . S
C1620 C1621 1.382 . S
C1620 H1642 0.950 . S
C1621 N1617 1.332 . S
C1621 C1620 1.382 . S
C1621 H1623 0.952 . S
C1622 N1617 1.332 . S
C1622 C1618 1.382 . S
C1622 H1624 0.948 . S
H1623 C1621 0.952 . S
H1624 C1622 0.948 . S
H1625 C1614 0.952 . S
H1626 C1616 0.948 . S
C1627 C1593 1.395 . S
C1627 C1597 1.391 . S
C1628 C1590 1.389 . S
C1628 C1610 1.392 1_655 S
C1629 C1600 1.392 1_455 S
C1629 C1602 1.389 . S
C1630 C1605 1.395 . S
C1630 C1607 1.391 . S
H1631 C1591 0.951 . S
H1632 C1592 0.950 . S
H1633 C1598 0.949 . S
H1634 C1599 0.950 . S
H1635 C1603 0.951 . S
H1636 C1604 0.950 . S
H1637 C1608 0.949 . S
H1638 C1609 0.950 . S
H1639 C1613 0.950 . S
H1640 C1615 0.950 . S
H1641 C1618 0.950 . S
H1642 C1620 0.950 . S
C1643 C1644 1.443 . S
C1643 N1647 1.376 . S
C1643 C1681 1.389 . S
C1644 C1643 1.443 . S
C1644 C1645 1.340 . S
C1644 H1684 0.951 . S
C1645 C1644 1.340 . S
C1645 C1646 1.439 . S
C1645 H1685 0.950 . S
C1646 C1645 1.439 . S
C1646 N1647 1.374 . S
C1646 C1680 1.395 . S
N1647 C1643 1.376 . S
N1647 C1646 1.374 . S
N1647 Co1648 2.008 . S
Co1648 N1647 2.008 . S
Co1648 N1649 1.995 . S
Co1648 N1654 2.008 . S
Co1648 N1659 1.995 . S
Co1648 N1664 2.282 . S
Co1648 N1670 2.282 . S
N1649 Co1648 1.995 . S
N1649 C1650 1.376 . S
N1649 C1653 1.383 . S
C1650 N1649 1.376 . S
C1650 C1651 1.446 . S
C1650 C1680 1.391 . S
C1651 C1650 1.446 . S
C1651 C1652 1.339 . S
C1651 H1686 0.949 . S
C1652 C1651 1.339 . S
C1652 C1653 1.439 . S
C1652 H1687 0.950 . S
C1653 N1649 1.383 . S
C1653 C1652 1.439 . S
C1653 C1682 1.392 . S
N1654 Co1648 2.008 . S
N1654 C1655 1.376 . S
N1654 C1658 1.374 . S
C1655 N1654 1.376 . S
C1655 C1656 1.443 . S
C1655 C1682 1.389 . S
C1656 C1655 1.443 . S
C1656 C1657 1.340 . S
C1656 H1688 0.951 . S
C1657 C1656 1.340 . S
C1657 C1658 1.439 . S
C1657 H1689 0.950 . S
C1658 N1654 1.374 . S
C1658 C1657 1.439 . S
C1658 C1683 1.395 . S
N1659 Co1648 1.995 . S
N1659 C1660 1.376 . S
N1659 C1663 1.383 . S
C1660 N1659 1.376 . S
C1660 C1661 1.446 . S
C1660 C1683 1.391 . S
C1661 C1660 1.446 . S
C1661 C1662 1.339 . S
C1661 H1690 0.949 . S
C1662 C1661 1.339 . S
C1662 C1663 1.439 . S
C1662 H1691 0.950 . S
C1663 N1659 1.383 . S
C1663 C1662 1.439 . S
C1663 C1681 1.392 . S
N1664 Co1648 2.282 . S
N1664 C1667 1.332 . S
N1664 C1669 1.332 . S
C1665 C1666 1.386 . S
C1665 C1668 1.388 . S
C1666 C1665 1.386 . S
C1666 C1667 1.382 . S
C1666 H1692 0.950 . S
C1667 N1664 1.332 . S
C1667 C1666 1.382 . S
C1667 H1678 0.952 . S
C1668 C1665 1.388 . S
C1668 C1669 1.382 . S
C1668 H1693 0.950 . S
C1669 N1664 1.332 . S
C1669 C1668 1.382 . S
C1669 H1679 0.948 . S
N1670 Co1648 2.282 . S
N1670 C1674 1.332 . S
N1670 C1675 1.332 . S
C1671 C1672 1.388 . S
C1671 C1675 1.382 . S
C1671 H1694 0.950 . S
C1672 C1671 1.388 . S
C1672 C1673 1.386 . S
C1673 C1672 1.386 . S
C1673 C1674 1.382 . S
C1673 H1695 0.950 . S
C1674 N1670 1.332 . S
C1674 C1673 1.382 . S
C1674 H1676 0.952 . S
C1675 N1670 1.332 . S
C1675 C1671 1.382 . S
C1675 H1677 0.948 . S
H1676 C1674 0.952 . S
H1677 C1675 0.948 . S
H1678 C1667 0.952 . S
H1679 C1669 0.948 . S
C1680 C1646 1.395 . S
C1680 C1650 1.391 . S
C1681 C1643 1.389 . S
C1681 C1663 1.392 . S
C1682 C1653 1.392 . S
C1682 C1655 1.389 . S
C1683 C1658 1.395 . S
C1683 C1660 1.391 . S
H1684 C1644 0.951 . S
H1685 C1645 0.950 . S
H1686 C1651 0.949 . S
H1687 C1652 0.950 . S
H1688 C1656 0.951 . S
H1689 C1657 0.950 . S
H1690 C1661 0.949 . S
H1691 C1662 0.950 . S
H1692 C1666 0.950 . S
H1693 C1668 0.950 . S
H1694 C1671 0.950 . S
H1695 C1673 0.950 . S
C1696 C1697 1.349 . S
C1696 C1698 1.327 . S
C1696 H1721 0.950 . S
C1697 C1696 1.349 . S
C1697 C1713 1.349 . S
C1698 C1696 1.327 . S
C1698 C1717 1.429 . S
C1698 H1722 0.950 . S
C1699 C1716 1.574 . S
C1699 C1718 1.368 . S
C1699 H1723 0.949 . S
H1700 C1704 0.949 . S
C1701 C1702 1.349 . S
C1701 C1703 1.327 . S
C1701 H1724 0.950 . S
C1702 C1701 1.349 . S
C1702 C1714 1.349 . S
C1703 C1701 1.327 . S
C1703 C1719 1.429 . S
C1703 H1725 0.950 . S
C1704 H1700 0.949 . S
C1704 C1712 1.574 . S
C1704 C1720 1.368 . S
H1705 C1713 0.950 . S
H1706 C1711 0.950 . S
H1707 C1712 0.949 . S
H1708 C1714 0.950 . S
H1709 C1715 0.950 . S
H1710 C1716 0.949 . S
C1711 H1706 0.950 . S
C1711 C1713 1.327 . S
C1711 C1717 1.429 . S
C1712 C1704 1.574 . S
C1712 H1707 0.949 . S
C1712 C1718 1.368 . S
C1713 C1697 1.349 . S
C1713 H1705 0.950 . S
C1713 C1711 1.327 . S
C1714 C1702 1.349 . S
C1714 H1708 0.950 . S
C1714 C1715 1.327 . S
C1715 H1709 0.950 . S
C1715 C1714 1.327 . S
C1715 C1719 1.429 . S
C1716 C1699 1.574 . S
C1716 H1710 0.949 . S
C1716 C1720 1.368 . S
C1717 C1698 1.429 . S
C1717 C1711 1.429 . S
C1717 C1718 1.523 . S
C1718 C1699 1.368 . S
C1718 C1712 1.368 . S
C1718 C1717 1.523 . S
C1719 C1703 1.429 . S
C1719 C1715 1.429 . S
C1719 C1720 1.523 . S
C1720 C1704 1.368 . S
C1720 C1716 1.368 . S
C1720 C1719 1.523 . S
H1721 C1696 0.950 . S
H1722 C1698 0.950 . S
H1723 C1699 0.949 . S
H1724 C1701 0.950 . S
H1725 C1703 0.950 . S
C1726 C1727 1.349 . S
C1726 C1728 1.327 . S
C1726 H1751 0.950 . S
C1727 C1726 1.349 . S
C1727 C1743 1.349 . S
C1728 C1726 1.327 . S
C1728 C1747 1.429 . S
C1728 H1752 0.950 . S
C1729 C1746 1.574 . S
C1729 C1748 1.368 . S
C1729 H1753 0.949 . S
H1730 C1734 0.949 . S
C1731 C1732 1.349 . S
C1731 C1733 1.327 . S
C1731 H1754 0.950 . S
C1732 C1731 1.349 . S
C1732 C1744 1.349 . S
C1733 C1731 1.327 . S
C1733 C1749 1.429 . S
C1733 H1755 0.950 . S
C1734 H1730 0.949 . S
C1734 C1742 1.574 . S
C1734 C1750 1.368 . S
H1735 C1743 0.950 . S
H1736 C1741 0.950 . S
H1737 C1742 0.949 . S
H1738 C1744 0.950 . S
H1739 C1745 0.950 . S
H1740 C1746 0.949 . S
C1741 H1736 0.950 . S
C1741 C1743 1.327 . S
C1741 C1747 1.429 . S
C1742 C1734 1.574 . S
C1742 H1737 0.949 . S
C1742 C1748 1.368 . S
C1743 C1727 1.349 . S
C1743 H1735 0.950 . S
C1743 C1741 1.327 . S
C1744 C1732 1.349 . S
C1744 H1738 0.950 . S
C1744 C1745 1.327 . S
C1745 H1739 0.950 . S
C1745 C1744 1.327 . S
C1745 C1749 1.429 . S
C1746 C1729 1.574 . S
C1746 H1740 0.949 . S
C1746 C1750 1.368 . S
C1747 C1728 1.429 . S
C1747 C1741 1.429 . S
C1747 C1748 1.523 . S
C1748 C1729 1.368 . S
C1748 C1742 1.368 . S
C1748 C1747 1.523 . S
C1749 C1733 1.429 . S
C1749 C1745 1.429 . S
C1749 C1750 1.523 . S
C1750 C1734 1.368 . S
C1750 C1746 1.368 . S
C1750 C1749 1.523 . S
H1751 C1726 0.950 . S
H1752 C1728 0.950 . S
H1753 C1729 0.949 . S
H1754 C1731 0.950 . S
H1755 C1733 0.950 . S
C1756 C1757 1.349 . S
C1756 C1758 1.327 . S
C1756 H1781 0.950 . S
C1757 C1756 1.349 . S
C1757 C1773 1.349 . S
C1758 C1756 1.327 . S
C1758 C1777 1.429 . S
C1758 H1782 0.950 . S
C1759 C1776 1.574 . S
C1759 C1778 1.368 . S
C1759 H1783 0.949 . S
H1760 C1764 0.949 . S
C1761 C1762 1.349 . S
C1761 C1763 1.327 . S
C1761 H1784 0.950 . S
C1762 C1761 1.349 . S
C1762 C1774 1.349 . S
C1763 C1761 1.327 . S
C1763 C1779 1.429 . S
C1763 H1785 0.950 . S
C1764 H1760 0.949 . S
C1764 C1772 1.574 . S
C1764 C1780 1.368 . S
H1765 C1773 0.950 . S
H1766 C1771 0.950 . S
H1767 C1772 0.949 . S
H1768 C1774 0.950 . S
H1769 C1775 0.950 . S
H1770 C1776 0.949 . S
C1771 H1766 0.950 . S
C1771 C1773 1.327 . S
C1771 C1777 1.429 . S
C1772 C1764 1.574 . S
C1772 H1767 0.949 . S
C1772 C1778 1.368 . S
C1773 C1757 1.349 . S
C1773 H1765 0.950 . S
C1773 C1771 1.327 . S
C1774 C1762 1.349 . S
C1774 H1768 0.950 . S
C1774 C1775 1.327 . S
C1775 H1769 0.950 . S
C1775 C1774 1.327 . S
C1775 C1779 1.429 . S
C1776 C1759 1.574 . S
C1776 H1770 0.949 . S
C1776 C1780 1.368 . S
C1777 C1758 1.429 . S
C1777 C1771 1.429 . S
C1777 C1778 1.523 . S
C1778 C1759 1.368 . S
C1778 C1772 1.368 . S
C1778 C1777 1.523 . S
C1779 C1763 1.429 . S
C1779 C1775 1.429 . S
C1779 C1780 1.523 . S
C1780 C1764 1.368 . S
C1780 C1776 1.368 . S
C1780 C1779 1.523 . S
H1781 C1756 0.950 . S
H1782 C1758 0.950 . S
H1783 C1759 0.949 . S
H1784 C1761 0.950 . S
H1785 C1763 0.950 . S
C1786 C1787 1.349 . S
C1786 C1788 1.327 . S
C1786 H1811 0.950 . S
C1787 C1786 1.349 . S
C1787 C1803 1.349 . S
C1788 C1786 1.327 . S
C1788 C1807 1.429 . S
C1788 H1812 0.950 . S
C1789 C1806 1.574 . S
C1789 C1808 1.368 . S
C1789 H1813 0.949 . S
H1790 C1794 0.949 . S
C1791 C1792 1.349 . S
C1791 C1793 1.327 . S
C1791 H1814 0.950 . S
C1792 C1791 1.349 . S
C1792 C1804 1.349 . S
C1793 C1791 1.327 . S
C1793 C1809 1.429 . S
C1793 H1815 0.950 . S
C1794 H1790 0.949 . S
C1794 C1802 1.574 . S
C1794 C1810 1.368 . S
H1795 C1803 0.950 . S
H1796 C1801 0.950 . S
H1797 C1802 0.949 . S
H1798 C1804 0.950 . S
H1799 C1805 0.950 . S
H1800 C1806 0.949 . S
C1801 H1796 0.950 . S
C1801 C1803 1.327 . S
C1801 C1807 1.429 . S
C1802 C1794 1.574 . S
C1802 H1797 0.949 . S
C1802 C1808 1.368 . S
C1803 C1787 1.349 . S
C1803 H1795 0.950 . S
C1803 C1801 1.327 . S
C1804 C1792 1.349 . S
C1804 H1798 0.950 . S
C1804 C1805 1.327 . S
C1805 H1799 0.950 . S
C1805 C1804 1.327 . S
C1805 C1809 1.429 . S
C1806 C1789 1.574 . S
C1806 H1800 0.949 . S
C1806 C1810 1.368 . S
C1807 C1788 1.429 . S
C1807 C1801 1.429 . S
C1807 C1808 1.523 . S
C1808 C1789 1.368 . S
C1808 C1802 1.368 . S
C1808 C1807 1.523 . S
C1809 C1793 1.429 . S
C1809 C1805 1.429 . S
C1809 C1810 1.523 . S
C1810 C1794 1.368 . S
C1810 C1806 1.368 . S
C1810 C1809 1.523 . S
H1811 C1786 0.950 . S
H1812 C1788 0.950 . S
H1813 C1789 0.949 . S
H1814 C1791 0.950 . S
H1815 C1793 0.950 . S
C1816 C1817 1.349 . S
C1816 C1818 1.327 . S
C1816 H1841 0.950 . S
C1817 C1816 1.349 . S
C1817 C1833 1.349 . S
C1818 C1816 1.327 . S
C1818 C1837 1.429 . S
C1818 H1842 0.950 . S
C1819 C1836 1.574 . S
C1819 C1838 1.368 . S
C1819 H1843 0.949 . S
H1820 C1824 0.949 . S
C1821 C1822 1.349 . S
C1821 C1823 1.327 . S
C1821 H1844 0.950 . S
C1822 C1821 1.349 . S
C1822 C1834 1.349 . S
C1823 C1821 1.327 . S
C1823 C1839 1.429 . S
C1823 H1845 0.950 . S
C1824 H1820 0.949 . S
C1824 C1832 1.574 . S
C1824 C1840 1.368 . S
H1825 C1833 0.950 . S
H1826 C1831 0.950 . S
H1827 C1832 0.949 . S
H1828 C1834 0.950 . S
H1829 C1835 0.950 . S
H1830 C1836 0.949 . S
C1831 H1826 0.950 . S
C1831 C1833 1.327 . S
C1831 C1837 1.429 . S
C1832 C1824 1.574 . S
C1832 H1827 0.949 . S
C1832 C1838 1.368 . S
C1833 C1817 1.349 . S
C1833 H1825 0.950 . S
C1833 C1831 1.327 . S
C1834 C1822 1.349 . S
C1834 H1828 0.950 . S
C1834 C1835 1.327 . S
C1835 H1829 0.950 . S
C1835 C1834 1.327 . S
C1835 C1839 1.429 . S
C1836 C1819 1.574 . S
C1836 H1830 0.949 . S
C1836 C1840 1.368 . S
C1837 C1818 1.429 . S
C1837 C1831 1.429 . S
C1837 C1838 1.523 . S
C1838 C1819 1.368 . S
C1838 C1832 1.368 . S
C1838 C1837 1.523 . S
C1839 C1823 1.429 . S
C1839 C1835 1.429 . S
C1839 C1840 1.523 . S
C1840 C1824 1.368 . S
C1840 C1836 1.368 . S
C1840 C1839 1.523 . S
H1841 C1816 0.950 . S
H1842 C1818 0.950 . S
H1843 C1819 0.949 . S
H1844 C1821 0.950 . S
H1845 C1823 0.950 . S
C1846 C1847 1.349 . S
C1846 C1848 1.327 . S
C1846 H1871 0.950 . S
C1847 C1846 1.349 . S
C1847 C1863 1.349 . S
C1848 C1846 1.327 . S
C1848 C1867 1.429 . S
C1848 H1872 0.950 . S
C1849 C1866 1.574 . S
C1849 C1868 1.368 . S
C1849 H1873 0.949 . S
H1850 C1854 0.949 . S
C1851 C1852 1.349 . S
C1851 C1853 1.327 . S
C1851 H1874 0.950 . S
C1852 C1851 1.349 . S
C1852 C1864 1.349 . S
C1853 C1851 1.327 . S
C1853 C1869 1.429 . S
C1853 H1875 0.950 . S
C1854 H1850 0.949 . S
C1854 C1862 1.574 . S
C1854 C1870 1.368 . S
H1855 C1863 0.950 . S
H1856 C1861 0.950 . S
H1857 C1862 0.949 . S
H1858 C1864 0.950 . S
H1859 C1865 0.950 . S
H1860 C1866 0.949 . S
C1861 H1856 0.950 . S
C1861 C1863 1.327 . S
C1861 C1867 1.429 . S
C1862 C1854 1.574 . S
C1862 H1857 0.949 . S
C1862 C1868 1.368 . S
C1863 C1847 1.349 . S
C1863 H1855 0.950 . S
C1863 C1861 1.327 . S
C1864 C1852 1.349 . S
C1864 H1858 0.950 . S
C1864 C1865 1.327 . S
C1865 H1859 0.950 . S
C1865 C1864 1.327 . S
C1865 C1869 1.429 . S
C1866 C1849 1.574 . S
C1866 H1860 0.949 . S
C1866 C1870 1.368 . S
C1867 C1848 1.429 . S
C1867 C1861 1.429 . S
C1867 C1868 1.523 . S
C1868 C1849 1.368 . S
C1868 C1862 1.368 . S
C1868 C1867 1.523 . S
C1869 C1853 1.429 . S
C1869 C1865 1.429 . S
C1869 C1870 1.523 . S
C1870 C1854 1.368 . S
C1870 C1866 1.368 . S
C1870 C1869 1.523 . S
H1871 C1846 0.950 . S
H1872 C1848 0.950 . S
H1873 C1849 0.949 . S
H1874 C1851 0.950 . S
H1875 C1853 0.950 . S
C1876 C1877 1.349 . S
C1876 C1878 1.327 . S
C1876 H1901 0.950 . S
C1877 C1876 1.349 . S
C1877 C1893 1.349 . S
C1878 C1876 1.327 . S
C1878 C1897 1.429 . S
C1878 H1902 0.950 . S
C1879 C1896 1.574 . S
C1879 C1898 1.368 . S
C1879 H1903 0.949 . S
H1880 C1884 0.949 . S
C1881 C1882 1.349 . S
C1881 C1883 1.327 . S
C1881 H1904 0.950 . S
C1882 C1881 1.349 . S
C1882 C1894 1.349 . S
C1883 C1881 1.327 . S
C1883 C1899 1.429 . S
C1883 H1905 0.950 . S
C1884 H1880 0.949 . S
C1884 C1892 1.574 . S
C1884 C1900 1.368 . S
H1885 C1893 0.950 . S
H1886 C1891 0.950 . S
H1887 C1892 0.949 . S
H1888 C1894 0.950 . S
H1889 C1895 0.950 . S
H1890 C1896 0.949 . S
C1891 H1886 0.950 . S
C1891 C1893 1.327 . S
C1891 C1897 1.429 . S
C1892 C1884 1.574 . S
C1892 H1887 0.949 . S
C1892 C1898 1.368 . S
C1893 C1877 1.349 . S
C1893 H1885 0.950 . S
C1893 C1891 1.327 . S
C1894 C1882 1.349 . S
C1894 H1888 0.950 . S
C1894 C1895 1.327 . S
C1895 H1889 0.950 . S
C1895 C1894 1.327 . S
C1895 C1899 1.429 . S
C1896 C1879 1.574 . S
C1896 H1890 0.949 . S
C1896 C1900 1.368 . S
C1897 C1878 1.429 . S
C1897 C1891 1.429 . S
C1897 C1898 1.523 . S
C1898 C1879 1.368 . S
C1898 C1892 1.368 . S
C1898 C1897 1.523 . S
C1899 C1883 1.429 . S
C1899 C1895 1.429 . S
C1899 C1900 1.523 . S
C1900 C1884 1.368 . S
C1900 C1896 1.368 . S
C1900 C1899 1.523 . S
H1901 C1876 0.950 . S
H1902 C1878 0.950 . S
H1903 C1879 0.949 . S
H1904 C1881 0.950 . S
H1905 C1883 0.950 . S
C1906 C1907 1.349 . S
C1906 C1908 1.327 . S
C1906 H1931 0.950 . S
C1907 C1906 1.349 . S
C1907 C1923 1.349 . S
C1908 C1906 1.327 . S
C1908 C1927 1.429 . S
C1908 H1932 0.950 . S
C1909 C1926 1.574 . S
C1909 C1928 1.368 . S
C1909 H1933 0.949 . S
H1910 C1914 0.949 . S
C1911 C1912 1.349 . S
C1911 C1913 1.327 . S
C1911 H1934 0.950 . S
C1912 C1911 1.349 . S
C1912 C1924 1.349 . S
C1913 C1911 1.327 . S
C1913 C1929 1.429 . S
C1913 H1935 0.950 . S
C1914 H1910 0.949 . S
C1914 C1922 1.574 . S
C1914 C1930 1.368 . S
H1915 C1923 0.950 . S
H1916 C1921 0.950 . S
H1917 C1922 0.949 . S
H1918 C1924 0.950 . S
H1919 C1925 0.950 . S
H1920 C1926 0.949 . S
C1921 H1916 0.950 . S
C1921 C1923 1.327 . S
C1921 C1927 1.429 . S
C1922 C1914 1.574 . S
C1922 H1917 0.949 . S
C1922 C1928 1.368 . S
C1923 C1907 1.349 . S
C1923 H1915 0.950 . S
C1923 C1921 1.327 . S
C1924 C1912 1.349 . S
C1924 H1918 0.950 . S
C1924 C1925 1.327 . S
C1925 H1919 0.950 . S
C1925 C1924 1.327 . S
C1925 C1929 1.429 . S
C1926 C1909 1.574 . S
C1926 H1920 0.949 . S
C1926 C1930 1.368 . S
C1927 C1908 1.429 . S
C1927 C1921 1.429 . S
C1927 C1928 1.523 . S
C1928 C1909 1.368 . S
C1928 C1922 1.368 . S
C1928 C1927 1.523 . S
C1929 C1913 1.429 . S
C1929 C1925 1.429 . S
C1929 C1930 1.523 . S
C1930 C1914 1.368 . S
C1930 C1926 1.368 . S
C1930 C1929 1.523 . S
H1931 C1906 0.950 . S
H1932 C1908 0.950 . S
H1933 C1909 0.949 . S
H1934 C1911 0.950 . S
H1935 C1913 0.950 . S
C1936 C1937 1.349 . S
C1936 C1938 1.327 . S
C1936 H1961 0.950 . S
C1937 C1936 1.349 . S
C1937 C1953 1.349 1_455 S
C1938 C1936 1.327 . S
C1938 C1957 1.429 . S
C1938 H1962 0.950 . S
C1939 C1956 1.574 . S
C1939 C1958 1.368 1_655 S
C1939 H1963 0.949 . S
H1940 C1944 0.949 . S
C1941 C1942 1.349 1_655 S
C1941 C1943 1.327 . S
C1941 H1964 0.950 . S
C1942 C1941 1.349 1_455 S
C1942 C1954 1.349 . S
C1943 C1941 1.327 . S
C1943 C1959 1.429 1_655 S
C1943 H1965 0.950 . S
C1944 H1940 0.949 . S
C1944 C1952 1.574 . S
C1944 C1960 1.368 . S
H1945 C1953 0.950 . S
H1946 C1951 0.950 . S
H1947 C1952 0.949 . S
H1948 C1954 0.950 . S
H1949 C1955 0.950 . S
H1950 C1956 0.949 . S
C1951 H1946 0.950 . S
C1951 C1953 1.327 . S
C1951 C1957 1.429 1_655 S
C1952 C1944 1.574 . S
C1952 H1947 0.949 . S
C1952 C1958 1.368 . S
C1953 C1937 1.349 1_655 S
C1953 H1945 0.950 . S
C1953 C1951 1.327 . S
C1954 C1942 1.349 . S
C1954 H1948 0.950 . S
C1954 C1955 1.327 . S
C1955 H1949 0.950 . S
C1955 C1954 1.327 . S
C1955 C1959 1.429 . S
C1956 C1939 1.574 . S
C1956 H1950 0.949 . S
C1956 C1960 1.368 1_655 S
C1957 C1938 1.429 . S
C1957 C1951 1.429 1_455 S
C1957 C1958 1.523 . S
C1958 C1939 1.368 1_455 S
C1958 C1952 1.368 . S
C1958 C1957 1.523 . S
C1959 C1943 1.429 1_455 S
C1959 C1955 1.429 . S
C1959 C1960 1.523 . S
C1960 C1944 1.368 . S
C1960 C1956 1.368 1_455 S
C1960 C1959 1.523 . S
H1961 C1936 0.950 . S
H1962 C1938 0.950 . S
H1963 C1939 0.949 . S
H1964 C1941 0.950 . S
H1965 C1943 0.950 . S
C1966 C1967 1.349 . S
C1966 C1968 1.327 . S
C1966 H1991 0.950 . S
C1967 C1966 1.349 . S
C1967 C1983 1.349 . S
C1968 C1966 1.327 . S
C1968 C1987 1.429 . S
C1968 H1992 0.950 . S
C1969 C1986 1.574 . S
C1969 C1988 1.368 . S
C1969 H1993 0.949 . S
H1970 C1974 0.949 . S
C1971 C1972 1.349 . S
C1971 C1973 1.327 . S
C1971 H1994 0.950 . S
C1972 C1971 1.349 . S
C1972 C1984 1.349 . S
C1973 C1971 1.327 . S
C1973 C1989 1.429 . S
C1973 H1995 0.950 . S
C1974 H1970 0.949 . S
C1974 C1982 1.574 . S
C1974 C1990 1.368 . S
H1975 C1983 0.950 . S
H1976 C1981 0.950 . S
H1977 C1982 0.949 . S
H1978 C1984 0.950 . S
H1979 C1985 0.950 . S
H1980 C1986 0.949 . S
C1981 H1976 0.950 . S
C1981 C1983 1.327 . S
C1981 C1987 1.429 . S
C1982 C1974 1.574 . S
C1982 H1977 0.949 . S
C1982 C1988 1.368 . S
C1983 C1967 1.349 . S
C1983 H1975 0.950 . S
C1983 C1981 1.327 . S
C1984 C1972 1.349 . S
C1984 H1978 0.950 . S
C1984 C1985 1.327 . S
C1985 H1979 0.950 . S
C1985 C1984 1.327 . S
C1985 C1989 1.429 . S
C1986 C1969 1.574 . S
C1986 H1980 0.949 . S
C1986 C1990 1.368 . S
C1987 C1968 1.429 . S
C1987 C1981 1.429 . S
C1987 C1988 1.523 . S
C1988 C1969 1.368 . S
C1988 C1982 1.368 . S
C1988 C1987 1.523 . S
C1989 C1973 1.429 . S
C1989 C1985 1.429 . S
C1989 C1990 1.523 . S
C1990 C1974 1.368 . S
C1990 C1986 1.368 . S
C1990 C1989 1.523 . S
H1991 C1966 0.950 . S
H1992 C1968 0.950 . S
H1993 C1969 0.949 . S
H1994 C1971 0.950 . S
H1995 C1973 0.950 . S
C1996 C1997 1.349 . S
C1996 C1998 1.327 . S
C1996 H2021 0.950 . S
C1997 C1996 1.349 . S
C1997 C2013 1.349 1_655 S
C1998 C1996 1.327 . S
C1998 C2017 1.429 . S
C1998 H2022 0.950 . S
C1999 C2016 1.574 . S
C1999 C2018 1.368 1_455 S
C1999 H2023 0.949 . S
H2000 C2004 0.949 . S
C2001 C2002 1.349 1_455 S
C2001 C2003 1.327 . S
C2001 H2024 0.950 . S
C2002 C2001 1.349 1_655 S
C2002 C2014 1.349 . S
C2003 C2001 1.327 . S
C2003 C2019 1.429 1_455 S
C2003 H2025 0.950 . S
C2004 H2000 0.949 . S
C2004 C2012 1.574 . S
C2004 C2020 1.368 . S
H2005 C2013 0.950 . S
H2006 C2011 0.950 . S
H2007 C2012 0.949 . S
H2008 C2014 0.950 . S
H2009 C2015 0.950 . S
H2010 C2016 0.949 . S
C2011 H2006 0.950 . S
C2011 C2013 1.327 . S
C2011 C2017 1.429 1_455 S
C2012 C2004 1.574 . S
C2012 H2007 0.949 . S
C2012 C2018 1.368 . S
C2013 C1997 1.349 1_455 S
C2013 H2005 0.950 . S
C2013 C2011 1.327 . S
C2014 C2002 1.349 . S
C2014 H2008 0.950 . S
C2014 C2015 1.327 . S
C2015 H2009 0.950 . S
C2015 C2014 1.327 . S
C2015 C2019 1.429 . S
C2016 C1999 1.574 . S
C2016 H2010 0.949 . S
C2016 C2020 1.368 1_455 S
C2017 C1998 1.429 . S
C2017 C2011 1.429 1_655 S
C2017 C2018 1.523 . S
C2018 C1999 1.368 1_655 S
C2018 C2012 1.368 . S
C2018 C2017 1.523 . S
C2019 C2003 1.429 1_655 S
C2019 C2015 1.429 . S
C2019 C2020 1.523 . S
C2020 C2004 1.368 . S
C2020 C2016 1.368 1_655 S
C2020 C2019 1.523 . S
H2021 C1996 0.950 . S
H2022 C1998 0.950 . S
H2023 C1999 0.949 . S
H2024 C2001 0.950 . S
H2025 C2003 0.950 . S
C2026 C2027 1.349 . S
C2026 C2028 1.327 . S
C2026 H2051 0.950 . S
C2027 C2026 1.349 . S
C2027 C2043 1.349 . S
C2028 C2026 1.327 . S
C2028 C2047 1.429 . S
C2028 H2052 0.950 . S
C2029 C2046 1.574 . S
C2029 C2048 1.368 . S
C2029 H2053 0.949 . S
H2030 C2034 0.949 . S
C2031 C2032 1.349 . S
C2031 C2033 1.327 . S
C2031 H2054 0.950 . S
C2032 C2031 1.349 . S
C2032 C2044 1.349 . S
C2033 C2031 1.327 . S
C2033 C2049 1.429 . S
C2033 H2055 0.950 . S
C2034 H2030 0.949 . S
C2034 C2042 1.574 . S
C2034 C2050 1.368 . S
H2035 C2043 0.950 . S
H2036 C2041 0.950 . S
H2037 C2042 0.949 . S
H2038 C2044 0.950 . S
H2039 C2045 0.950 . S
H2040 C2046 0.949 . S
C2041 H2036 0.950 . S
C2041 C2043 1.327 . S
C2041 C2047 1.429 . S
C2042 C2034 1.574 . S
C2042 H2037 0.949 . S
C2042 C2048 1.368 . S
C2043 C2027 1.349 . S
C2043 H2035 0.950 . S
C2043 C2041 1.327 . S
C2044 C2032 1.349 . S
C2044 H2038 0.950 . S
C2044 C2045 1.327 . S
C2045 H2039 0.950 . S
C2045 C2044 1.327 . S
C2045 C2049 1.429 . S
C2046 C2029 1.574 . S
C2046 H2040 0.949 . S
C2046 C2050 1.368 . S
C2047 C2028 1.429 . S
C2047 C2041 1.429 . S
C2047 C2048 1.523 . S
C2048 C2029 1.368 . S
C2048 C2042 1.368 . S
C2048 C2047 1.523 . S
C2049 C2033 1.429 . S
C2049 C2045 1.429 . S
C2049 C2050 1.523 . S
C2050 C2034 1.368 . S
C2050 C2046 1.368 . S
C2050 C2049 1.523 . S
H2051 C2026 0.950 . S
H2052 C2028 0.950 . S
H2053 C2029 0.949 . S
H2054 C2031 0.950 . S
H2055 C2033 0.950 . S
C2056 C2057 1.349 1_655 S
C2056 C2058 1.327 . S
C2056 H2081 0.950 . S
C2057 C2056 1.349 1_455 S
C2057 C2073 1.349 . S
C2058 C2056 1.327 . S
C2058 C2077 1.429 1_655 S
C2058 H2082 0.950 . S
C2059 C2076 1.574 . S
C2059 C2078 1.368 . S
C2059 H2083 0.949 . S
H2060 C2064 0.949 . S
C2061 C2062 1.349 . S
C2061 C2063 1.327 . S
C2061 H2084 0.950 . S
C2062 C2061 1.349 . S
C2062 C2074 1.349 1_455 S
C2063 C2061 1.327 . S
C2063 C2079 1.429 . S
C2063 H2085 0.950 . S
C2064 H2060 0.949 . S
C2064 C2072 1.574 . S
C2064 C2080 1.368 1_655 S
H2065 C2073 0.950 . S
H2066 C2071 0.950 . S
H2067 C2072 0.949 . S
H2068 C2074 0.950 . S
H2069 C2075 0.950 . S
H2070 C2076 0.949 . S
C2071 H2066 0.950 . S
C2071 C2073 1.327 . S
C2071 C2077 1.429 . S
C2072 C2064 1.574 . S
C2072 H2067 0.949 . S
C2072 C2078 1.368 1_655 S
C2073 C2057 1.349 . S
C2073 H2065 0.950 . S
C2073 C2071 1.327 . S
C2074 C2062 1.349 1_655 S
C2074 H2068 0.950 . S
C2074 C2075 1.327 . S
C2075 H2069 0.950 . S
C2075 C2074 1.327 . S
C2075 C2079 1.429 1_655 S
C2076 C2059 1.574 . S
C2076 H2070 0.949 . S
C2076 C2080 1.368 . S
C2077 C2058 1.429 1_455 S
C2077 C2071 1.429 . S
C2077 C2078 1.523 . S
C2078 C2059 1.368 . S
C2078 C2072 1.368 1_455 S
C2078 C2077 1.523 . S
C2079 C2063 1.429 . S
C2079 C2075 1.429 1_455 S
C2079 C2080 1.523 . S
C2080 C2064 1.368 1_455 S
C2080 C2076 1.368 . S
C2080 C2079 1.523 . S
H2081 C2056 0.950 . S
H2082 C2058 0.950 . S
H2083 C2059 0.949 . S
H2084 C2061 0.950 . S
H2085 C2063 0.950 . S
C2086 C2087 1.349 . S
C2086 C2088 1.327 . S
C2086 H2111 0.950 . S
C2087 C2086 1.349 . S
C2087 C2103 1.349 . S
C2088 C2086 1.327 . S
C2088 C2107 1.429 . S
C2088 H2112 0.950 . S
C2089 C2106 1.574 . S
C2089 C2108 1.368 . S
C2089 H2113 0.949 . S
H2090 C2094 0.949 . S
C2091 C2092 1.349 . S
C2091 C2093 1.327 . S
C2091 H2114 0.950 . S
C2092 C2091 1.349 . S
C2092 C2104 1.349 . S
C2093 C2091 1.327 . S
C2093 C2109 1.429 . S
C2093 H2115 0.950 . S
C2094 H2090 0.949 . S
C2094 C2102 1.574 . S
C2094 C2110 1.368 . S
H2095 C2103 0.950 . S
H2096 C2101 0.950 . S
H2097 C2102 0.949 . S
H2098 C2104 0.950 . S
H2099 C2105 0.950 . S
H2100 C2106 0.949 . S
C2101 H2096 0.950 . S
C2101 C2103 1.327 . S
C2101 C2107 1.429 . S
C2102 C2094 1.574 . S
C2102 H2097 0.949 . S
C2102 C2108 1.368 . S
C2103 C2087 1.349 . S
C2103 H2095 0.950 . S
C2103 C2101 1.327 . S
C2104 C2092 1.349 . S
C2104 H2098 0.950 . S
C2104 C2105 1.327 . S
C2105 H2099 0.950 . S
C2105 C2104 1.327 . S
C2105 C2109 1.429 . S
C2106 C2089 1.574 . S
C2106 H2100 0.949 . S
C2106 C2110 1.368 . S
C2107 C2088 1.429 . S
C2107 C2101 1.429 . S
C2107 C2108 1.523 . S
C2108 C2089 1.368 . S
C2108 C2102 1.368 . S
C2108 C2107 1.523 . S
C2109 C2093 1.429 . S
C2109 C2105 1.429 . S
C2109 C2110 1.523 . S
C2110 C2094 1.368 . S
C2110 C2106 1.368 . S
C2110 C2109 1.523 . S
H2111 C2086 0.950 . S
H2112 C2088 0.950 . S
H2113 C2089 0.949 . S
H2114 C2091 0.950 . S
H2115 C2093 0.950 . S
C2116 C2117 1.349 1_455 S
C2116 C2118 1.327 . S
C2116 H2141 0.950 . S
C2117 C2116 1.349 1_655 S
C2117 C2133 1.349 . S
C2118 C2116 1.327 . S
C2118 C2137 1.429 1_455 S
C2118 H2142 0.950 . S
C2119 C2136 1.574 . S
C2119 C2138 1.368 . S
C2119 H2143 0.949 . S
H2120 C2124 0.949 . S
C2121 C2122 1.349 . S
C2121 C2123 1.327 . S
C2121 H2144 0.950 . S
C2122 C2121 1.349 . S
C2122 C2134 1.349 1_655 S
C2123 C2121 1.327 . S
C2123 C2139 1.429 . S
C2123 H2145 0.950 . S
C2124 H2120 0.949 . S
C2124 C2132 1.574 . S
C2124 C2140 1.368 1_455 S
H2125 C2133 0.950 . S
H2126 C2131 0.950 . S
H2127 C2132 0.949 . S
H2128 C2134 0.950 . S
H2129 C2135 0.950 . S
H2130 C2136 0.949 . S
C2131 H2126 0.950 . S
C2131 C2133 1.327 . S
C2131 C2137 1.429 . S
C2132 C2124 1.574 . S
C2132 H2127 0.949 . S
C2132 C2138 1.368 1_455 S
C2133 C2117 1.349 . S
C2133 H2125 0.950 . S
C2133 C2131 1.327 . S
C2134 C2122 1.349 1_455 S
C2134 H2128 0.950 . S
C2134 C2135 1.327 . S
C2135 H2129 0.950 . S
C2135 C2134 1.327 . S
C2135 C2139 1.429 1_455 S
C2136 C2119 1.574 . S
C2136 H2130 0.949 . S
C2136 C2140 1.368 . S
C2137 C2118 1.429 1_655 S
C2137 C2131 1.429 . S
C2137 C2138 1.523 . S
C2138 C2119 1.368 . S
C2138 C2132 1.368 1_655 S
C2138 C2137 1.523 . S
C2139 C2123 1.429 . S
C2139 C2135 1.429 1_655 S
C2139 C2140 1.523 . S
C2140 C2124 1.368 1_655 S
C2140 C2136 1.368 . S
C2140 C2139 1.523 . S
H2141 C2116 0.950 . S
H2142 C2118 0.950 . S
H2143 C2119 0.949 . S
H2144 C2121 0.950 . S
H2145 C2123 0.950 . S
C2146 C2147 1.349 . S
C2146 C2148 1.327 . S
C2146 H2171 0.950 . S
C2147 C2146 1.349 . S
C2147 C2163 1.349 . S
C2148 C2146 1.327 . S
C2148 C2167 1.429 . S
C2148 H2172 0.950 . S
C2149 C2166 1.574 . S
C2149 C2168 1.368 . S
C2149 H2173 0.949 . S
H2150 C2154 0.949 . S
C2151 C2152 1.349 . S
C2151 C2153 1.327 . S
C2151 H2174 0.950 . S
C2152 C2151 1.349 . S
C2152 C2164 1.349 . S
C2153 C2151 1.327 . S
C2153 C2169 1.429 . S
C2153 H2175 0.950 . S
C2154 H2150 0.949 . S
C2154 C2162 1.574 . S
C2154 C2170 1.368 . S
H2155 C2163 0.950 . S
H2156 C2161 0.950 . S
H2157 C2162 0.949 . S
H2158 C2164 0.950 . S
H2159 C2165 0.950 . S
H2160 C2166 0.949 . S
C2161 H2156 0.950 . S
C2161 C2163 1.327 . S
C2161 C2167 1.429 . S
C2162 C2154 1.574 . S
C2162 H2157 0.949 . S
C2162 C2168 1.368 . S
C2163 C2147 1.349 . S
C2163 H2155 0.950 . S
C2163 C2161 1.327 . S
C2164 C2152 1.349 . S
C2164 H2158 0.950 . S
C2164 C2165 1.327 . S
C2165 H2159 0.950 . S
C2165 C2164 1.327 . S
C2165 C2169 1.429 . S
C2166 C2149 1.574 . S
C2166 H2160 0.949 . S
C2166 C2170 1.368 . S
C2167 C2148 1.429 . S
C2167 C2161 1.429 . S
C2167 C2168 1.523 . S
C2168 C2149 1.368 . S
C2168 C2162 1.368 . S
C2168 C2167 1.523 . S
C2169 C2153 1.429 . S
C2169 C2165 1.429 . S
C2169 C2170 1.523 . S
C2170 C2154 1.368 . S
C2170 C2166 1.368 . S
C2170 C2169 1.523 . S
H2171 C2146 0.950 . S
H2172 C2148 0.950 . S
H2173 C2149 0.949 . S
H2174 C2151 0.950 . S
H2175 C2153 0.950 . S
C2176 C2177 1.349 . S
C2176 C2178 1.327 . S
C2176 H2201 0.950 . S
C2177 C2176 1.349 . S
C2177 C2193 1.349 . S
C2178 C2176 1.327 . S
C2178 C2197 1.429 . S
C2178 H2202 0.950 . S
C2179 C2196 1.574 . S
C2179 C2198 1.368 . S
C2179 H2203 0.949 . S
H2180 C2184 0.949 . S
C2181 C2182 1.349 . S
C2181 C2183 1.327 . S
C2181 H2204 0.950 . S
C2182 C2181 1.349 . S
C2182 C2194 1.349 . S
C2183 C2181 1.327 . S
C2183 C2199 1.429 . S
C2183 H2205 0.950 . S
C2184 H2180 0.949 . S
C2184 C2192 1.574 . S
C2184 C2200 1.368 . S
H2185 C2193 0.950 . S
H2186 C2191 0.950 . S
H2187 C2192 0.949 . S
H2188 C2194 0.950 . S
H2189 C2195 0.950 . S
H2190 C2196 0.949 . S
C2191 H2186 0.950 . S
C2191 C2193 1.327 . S
C2191 C2197 1.429 . S
C2192 C2184 1.574 . S
C2192 H2187 0.949 . S
C2192 C2198 1.368 . S
C2193 C2177 1.349 . S
C2193 H2185 0.950 . S
C2193 C2191 1.327 . S
C2194 C2182 1.349 . S
C2194 H2188 0.950 . S
C2194 C2195 1.327 . S
C2195 H2189 0.950 . S
C2195 C2194 1.327 . S
C2195 C2199 1.429 . S
C2196 C2179 1.574 . S
C2196 H2190 0.949 . S
C2196 C2200 1.368 . S
C2197 C2178 1.429 . S
C2197 C2191 1.429 . S
C2197 C2198 1.523 . S
C2198 C2179 1.368 . S
C2198 C2192 1.368 . S
C2198 C2197 1.523 . S
C2199 C2183 1.429 . S
C2199 C2195 1.429 . S
C2199 C2200 1.523 . S
C2200 C2184 1.368 . S
C2200 C2196 1.368 . S
C2200 C2199 1.523 . S
H2201 C2176 0.950 . S
H2202 C2178 0.950 . S
H2203 C2179 0.949 . S
H2204 C2181 0.950 . S
H2205 C2183 0.950 . S
C2206 C2207 1.349 . S
C2206 C2208 1.327 . S
C2206 H2231 0.950 . S
C2207 C2206 1.349 . S
C2207 C2223 1.349 . S
C2208 C2206 1.327 . S
C2208 C2227 1.429 . S
C2208 H2232 0.950 . S
C2209 C2226 1.574 . S
C2209 C2228 1.368 . S
C2209 H2233 0.949 . S
H2210 C2214 0.949 . S
C2211 C2212 1.349 . S
C2211 C2213 1.327 . S
C2211 H2234 0.950 . S
C2212 C2211 1.349 . S
C2212 C2224 1.349 . S
C2213 C2211 1.327 . S
C2213 C2229 1.429 . S
C2213 H2235 0.950 . S
C2214 H2210 0.949 . S
C2214 C2222 1.574 . S
C2214 C2230 1.368 . S
H2215 C2223 0.950 . S
H2216 C2221 0.950 . S
H2217 C2222 0.949 . S
H2218 C2224 0.950 . S
H2219 C2225 0.950 . S
H2220 C2226 0.949 . S
C2221 H2216 0.950 . S
C2221 C2223 1.327 . S
C2221 C2227 1.429 . S
C2222 C2214 1.574 . S
C2222 H2217 0.949 . S
C2222 C2228 1.368 . S
C2223 C2207 1.349 . S
C2223 H2215 0.950 . S
C2223 C2221 1.327 . S
C2224 C2212 1.349 . S
C2224 H2218 0.950 . S
C2224 C2225 1.327 . S
C2225 H2219 0.950 . S
C2225 C2224 1.327 . S
C2225 C2229 1.429 . S
C2226 C2209 1.574 . S
C2226 H2220 0.949 . S
C2226 C2230 1.368 . S
C2227 C2208 1.429 . S
C2227 C2221 1.429 . S
C2227 C2228 1.523 . S
C2228 C2209 1.368 . S
C2228 C2222 1.368 . S
C2228 C2227 1.523 . S
C2229 C2213 1.429 . S
C2229 C2225 1.429 . S
C2229 C2230 1.523 . S
C2230 C2214 1.368 . S
C2230 C2226 1.368 . S
C2230 C2229 1.523 . S
H2231 C2206 0.950 . S
H2232 C2208 0.950 . S
H2233 C2209 0.949 . S
H2234 C2211 0.950 . S
H2235 C2213 0.950 . S
C2236 C2237 1.349 . S
C2236 C2238 1.327 . S
C2236 H2261 0.950 . S
C2237 C2236 1.349 . S
C2237 C2253 1.349 . S
C2238 C2236 1.327 . S
C2238 C2257 1.429 . S
C2238 H2262 0.950 . S
C2239 C2256 1.574 . S
C2239 C2258 1.368 . S
C2239 H2263 0.949 . S
H2240 C2244 0.949 . S
C2241 C2242 1.349 . S
C2241 C2243 1.327 . S
C2241 H2264 0.950 . S
C2242 C2241 1.349 . S
C2242 C2254 1.349 . S
C2243 C2241 1.327 . S
C2243 C2259 1.429 . S
C2243 H2265 0.950 . S
C2244 H2240 0.949 . S
C2244 C2252 1.574 . S
C2244 C2260 1.368 . S
H2245 C2253 0.950 . S
H2246 C2251 0.950 . S
H2247 C2252 0.949 . S
H2248 C2254 0.950 . S
H2249 C2255 0.950 . S
H2250 C2256 0.949 . S
C2251 H2246 0.950 . S
C2251 C2253 1.327 . S
C2251 C2257 1.429 . S
C2252 C2244 1.574 . S
C2252 H2247 0.949 . S
C2252 C2258 1.368 . S
C2253 C2237 1.349 . S
C2253 H2245 0.950 . S
C2253 C2251 1.327 . S
C2254 C2242 1.349 . S
C2254 H2248 0.950 . S
C2254 C2255 1.327 . S
C2255 H2249 0.950 . S
C2255 C2254 1.327 . S
C2255 C2259 1.429 . S
C2256 C2239 1.574 . S
C2256 H2250 0.949 . S
C2256 C2260 1.368 . S
C2257 C2238 1.429 . S
C2257 C2251 1.429 . S
C2257 C2258 1.523 . S
C2258 C2239 1.368 . S
C2258 C2252 1.368 . S
C2258 C2257 1.523 . S
C2259 C2243 1.429 . S
C2259 C2255 1.429 . S
C2259 C2260 1.523 . S
C2260 C2244 1.368 . S
C2260 C2256 1.368 . S
C2260 C2259 1.523 . S
H2261 C2236 0.950 . S
H2262 C2238 0.950 . S
H2263 C2239 0.949 . S
H2264 C2241 0.950 . S
H2265 C2243 0.950 . S
C2266 C2267 1.349 . S
C2266 C2268 1.327 . S
C2266 H2291 0.950 . S
C2267 C2266 1.349 . S
C2267 C2283 1.349 . S
C2268 C2266 1.327 . S
C2268 C2287 1.429 . S
C2268 H2292 0.950 . S
C2269 C2286 1.574 . S
C2269 C2288 1.368 . S
C2269 H2293 0.949 . S
H2270 C2274 0.949 . S
C2271 C2272 1.349 . S
C2271 C2273 1.327 . S
C2271 H2294 0.950 . S
C2272 C2271 1.349 . S
C2272 C2284 1.349 . S
C2273 C2271 1.327 . S
C2273 C2289 1.429 . S
C2273 H2295 0.950 . S
C2274 H2270 0.949 . S
C2274 C2282 1.574 . S
C2274 C2290 1.368 . S
H2275 C2283 0.950 . S
H2276 C2281 0.950 . S
H2277 C2282 0.949 . S
H2278 C2284 0.950 . S
H2279 C2285 0.950 . S
H2280 C2286 0.949 . S
C2281 H2276 0.950 . S
C2281 C2283 1.327 . S
C2281 C2287 1.429 . S
C2282 C2274 1.574 . S
C2282 H2277 0.949 . S
C2282 C2288 1.368 . S
C2283 C2267 1.349 . S
C2283 H2275 0.950 . S
C2283 C2281 1.327 . S
C2284 C2272 1.349 . S
C2284 H2278 0.950 . S
C2284 C2285 1.327 . S
C2285 H2279 0.950 . S
C2285 C2284 1.327 . S
C2285 C2289 1.429 . S
C2286 C2269 1.574 . S
C2286 H2280 0.949 . S
C2286 C2290 1.368 . S
C2287 C2268 1.429 . S
C2287 C2281 1.429 . S
C2287 C2288 1.523 . S
C2288 C2269 1.368 . S
C2288 C2282 1.368 . S
C2288 C2287 1.523 . S
C2289 C2273 1.429 . S
C2289 C2285 1.429 . S
C2289 C2290 1.523 . S
C2290 C2274 1.368 . S
C2290 C2286 1.368 . S
C2290 C2289 1.523 . S
H2291 C2266 0.950 . S
H2292 C2268 0.950 . S
H2293 C2269 0.949 . S
H2294 C2271 0.950 . S
H2295 C2273 0.950 . S
C2296 C2297 1.349 . S
C2296 C2298 1.327 . S
C2296 H2321 0.950 . S
C2297 C2296 1.349 . S
C2297 C2313 1.349 . S
C2298 C2296 1.327 . S
C2298 C2317 1.429 . S
C2298 H2322 0.950 . S
C2299 C2316 1.574 . S
C2299 C2318 1.368 . S
C2299 H2323 0.949 . S
H2300 C2304 0.949 . S
C2301 C2302 1.349 . S
C2301 C2303 1.327 . S
C2301 H2324 0.950 . S
C2302 C2301 1.349 . S
C2302 C2314 1.349 . S
C2303 C2301 1.327 . S
C2303 C2319 1.429 . S
C2303 H2325 0.950 . S
C2304 H2300 0.949 . S
C2304 C2312 1.574 . S
C2304 C2320 1.368 . S
H2305 C2313 0.950 . S
H2306 C2311 0.950 . S
H2307 C2312 0.949 . S
H2308 C2314 0.950 . S
H2309 C2315 0.950 . S
H2310 C2316 0.949 . S
C2311 H2306 0.950 . S
C2311 C2313 1.327 . S
C2311 C2317 1.429 . S
C2312 C2304 1.574 . S
C2312 H2307 0.949 . S
C2312 C2318 1.368 . S
C2313 C2297 1.349 . S
C2313 H2305 0.950 . S
C2313 C2311 1.327 . S
C2314 C2302 1.349 . S
C2314 H2308 0.950 . S
C2314 C2315 1.327 . S
C2315 H2309 0.950 . S
C2315 C2314 1.327 . S
C2315 C2319 1.429 . S
C2316 C2299 1.574 . S
C2316 H2310 0.949 . S
C2316 C2320 1.368 . S
C2317 C2298 1.429 . S
C2317 C2311 1.429 . S
C2317 C2318 1.523 . S
C2318 C2299 1.368 . S
C2318 C2312 1.368 . S
C2318 C2317 1.523 . S
C2319 C2303 1.429 . S
C2319 C2315 1.429 . S
C2319 C2320 1.523 . S
C2320 C2304 1.368 . S
C2320 C2316 1.368 . S
C2320 C2319 1.523 . S
H2321 C2296 0.950 . S
H2322 C2298 0.950 . S
H2323 C2299 0.949 . S
H2324 C2301 0.950 . S
H2325 C2303 0.950 . S
C2326 C2327 1.349 . S
C2326 C2328 1.327 . S
C2326 H2351 0.950 . S
C2327 C2326 1.349 . S
C2327 C2343 1.349 . S
C2328 C2326 1.327 . S
C2328 C2347 1.429 . S
C2328 H2352 0.950 . S
C2329 C2346 1.574 . S
C2329 C2348 1.368 . S
C2329 H2353 0.949 . S
H2330 C2334 0.949 . S
C2331 C2332 1.349 . S
C2331 C2333 1.327 . S
C2331 H2354 0.950 . S
C2332 C2331 1.349 . S
C2332 C2344 1.349 . S
C2333 C2331 1.327 . S
C2333 C2349 1.429 . S
C2333 H2355 0.950 . S
C2334 H2330 0.949 . S
C2334 C2342 1.574 . S
C2334 C2350 1.368 . S
H2335 C2343 0.950 . S
H2336 C2341 0.950 . S
H2337 C2342 0.949 . S
H2338 C2344 0.950 . S
H2339 C2345 0.950 . S
H2340 C2346 0.949 . S
C2341 H2336 0.950 . S
C2341 C2343 1.327 . S
C2341 C2347 1.429 . S
C2342 C2334 1.574 . S
C2342 H2337 0.949 . S
C2342 C2348 1.368 . S
C2343 C2327 1.349 . S
C2343 H2335 0.950 . S
C2343 C2341 1.327 . S
C2344 C2332 1.349 . S
C2344 H2338 0.950 . S
C2344 C2345 1.327 . S
C2345 H2339 0.950 . S
C2345 C2344 1.327 . S
C2345 C2349 1.429 . S
C2346 C2329 1.574 . S
C2346 H2340 0.949 . S
C2346 C2350 1.368 . S
C2347 C2328 1.429 . S
C2347 C2341 1.429 . S
C2347 C2348 1.523 . S
C2348 C2329 1.368 . S
C2348 C2342 1.368 . S
C2348 C2347 1.523 . S
C2349 C2333 1.429 . S
C2349 C2345 1.429 . S
C2349 C2350 1.523 . S
C2350 C2334 1.368 . S
C2350 C2346 1.368 . S
C2350 C2349 1.523 . S
H2351 C2326 0.950 . S
H2352 C2328 0.950 . S
H2353 C2329 0.949 . S
H2354 C2331 0.950 . S
H2355 C2333 0.950 . S
C2356 C2357 1.349 . S
C2356 C2358 1.327 . S
C2356 H2381 0.950 . S
C2357 C2356 1.349 . S
C2357 C2373 1.349 . S
C2358 C2356 1.327 . S
C2358 C2377 1.429 . S
C2358 H2382 0.950 . S
C2359 C2376 1.574 . S
C2359 C2378 1.368 . S
C2359 H2383 0.949 . S
H2360 C2364 0.949 . S
C2361 C2362 1.349 . S
C2361 C2363 1.327 . S
C2361 H2384 0.950 . S
C2362 C2361 1.349 . S
C2362 C2374 1.349 . S
C2363 C2361 1.327 . S
C2363 C2379 1.429 . S
C2363 H2385 0.950 . S
C2364 H2360 0.949 . S
C2364 C2372 1.574 . S
C2364 C2380 1.368 . S
H2365 C2373 0.950 . S
H2366 C2371 0.950 . S
H2367 C2372 0.949 . S
H2368 C2374 0.950 . S
H2369 C2375 0.950 . S
H2370 C2376 0.949 . S
C2371 H2366 0.950 . S
C2371 C2373 1.327 . S
C2371 C2377 1.429 . S
C2372 C2364 1.574 . S
C2372 H2367 0.949 . S
C2372 C2378 1.368 . S
C2373 C2357 1.349 . S
C2373 H2365 0.950 . S
C2373 C2371 1.327 . S
C2374 C2362 1.349 . S
C2374 H2368 0.950 . S
C2374 C2375 1.327 . S
C2375 H2369 0.950 . S
C2375 C2374 1.327 . S
C2375 C2379 1.429 . S
C2376 C2359 1.574 . S
C2376 H2370 0.949 . S
C2376 C2380 1.368 . S
C2377 C2358 1.429 . S
C2377 C2371 1.429 . S
C2377 C2378 1.523 . S
C2378 C2359 1.368 . S
C2378 C2372 1.368 . S
C2378 C2377 1.523 . S
C2379 C2363 1.429 . S
C2379 C2375 1.429 . S
C2379 C2380 1.523 . S
C2380 C2364 1.368 . S
C2380 C2376 1.368 . S
C2380 C2379 1.523 . S
H2381 C2356 0.950 . S
H2382 C2358 0.950 . S
H2383 C2359 0.949 . S
H2384 C2361 0.950 . S
H2385 C2363 0.950 . S
C2386 C2387 1.349 . S
C2386 C2388 1.327 . S
C2386 H2411 0.950 . S
C2387 C2386 1.349 . S
C2387 C2403 1.349 . S
C2388 C2386 1.327 . S
C2388 C2407 1.429 . S
C2388 H2412 0.950 . S
C2389 C2406 1.574 . S
C2389 C2408 1.368 . S
C2389 H2413 0.949 . S
H2390 C2394 0.949 . S
C2391 C2392 1.349 . S
C2391 C2393 1.327 . S
C2391 H2414 0.950 . S
C2392 C2391 1.349 . S
C2392 C2404 1.349 . S
C2393 C2391 1.327 . S
C2393 C2409 1.429 . S
C2393 H2415 0.950 . S
C2394 H2390 0.949 . S
C2394 C2402 1.574 . S
C2394 C2410 1.368 . S
H2395 C2403 0.950 . S
H2396 C2401 0.950 . S
H2397 C2402 0.949 . S
H2398 C2404 0.950 . S
H2399 C2405 0.950 . S
H2400 C2406 0.949 . S
C2401 H2396 0.950 . S
C2401 C2403 1.327 . S
C2401 C2407 1.429 . S
C2402 C2394 1.574 . S
C2402 H2397 0.949 . S
C2402 C2408 1.368 . S
C2403 C2387 1.349 . S
C2403 H2395 0.950 . S
C2403 C2401 1.327 . S
C2404 C2392 1.349 . S
C2404 H2398 0.950 . S
C2404 C2405 1.327 . S
C2405 H2399 0.950 . S
C2405 C2404 1.327 . S
C2405 C2409 1.429 . S
C2406 C2389 1.574 . S
C2406 H2400 0.949 . S
C2406 C2410 1.368 . S
C2407 C2388 1.429 . S
C2407 C2401 1.429 . S
C2407 C2408 1.523 . S
C2408 C2389 1.368 . S
C2408 C2402 1.368 . S
C2408 C2407 1.523 . S
C2409 C2393 1.429 . S
C2409 C2405 1.429 . S
C2409 C2410 1.523 . S
C2410 C2394 1.368 . S
C2410 C2406 1.368 . S
C2410 C2409 1.523 . S
H2411 C2386 0.950 . S
H2412 C2388 0.950 . S
H2413 C2389 0.949 . S
H2414 C2391 0.950 . S
H2415 C2393 0.950 . S
C2416 C2417 1.349 . S
C2416 C2418 1.327 . S
C2416 H2441 0.950 . S
C2417 C2416 1.349 . S
C2417 C2433 1.349 . S
C2418 C2416 1.327 . S
C2418 C2437 1.429 . S
C2418 H2442 0.950 . S
C2419 C2436 1.574 . S
C2419 C2438 1.368 . S
C2419 H2443 0.949 . S
H2420 C2424 0.949 . S
C2421 C2422 1.349 . S
C2421 C2423 1.327 . S
C2421 H2444 0.950 . S
C2422 C2421 1.349 . S
C2422 C2434 1.349 . S
C2423 C2421 1.327 . S
C2423 C2439 1.429 . S
C2423 H2445 0.950 . S
C2424 H2420 0.949 . S
C2424 C2432 1.574 . S
C2424 C2440 1.368 . S
H2425 C2433 0.950 . S
H2426 C2431 0.950 . S
H2427 C2432 0.949 . S
H2428 C2434 0.950 . S
H2429 C2435 0.950 . S
H2430 C2436 0.949 . S
C2431 H2426 0.950 . S
C2431 C2433 1.327 . S
C2431 C2437 1.429 . S
C2432 C2424 1.574 . S
C2432 H2427 0.949 . S
C2432 C2438 1.368 . S
C2433 C2417 1.349 . S
C2433 H2425 0.950 . S
C2433 C2431 1.327 . S
C2434 C2422 1.349 . S
C2434 H2428 0.950 . S
C2434 C2435 1.327 . S
C2435 H2429 0.950 . S
C2435 C2434 1.327 . S
C2435 C2439 1.429 . S
C2436 C2419 1.574 . S
C2436 H2430 0.949 . S
C2436 C2440 1.368 . S
C2437 C2418 1.429 . S
C2437 C2431 1.429 . S
C2437 C2438 1.523 . S
C2438 C2419 1.368 . S
C2438 C2432 1.368 . S
C2438 C2437 1.523 . S
C2439 C2423 1.429 . S
C2439 C2435 1.429 . S
C2439 C2440 1.523 . S
C2440 C2424 1.368 . S
C2440 C2436 1.368 . S
C2440 C2439 1.523 . S
H2441 C2416 0.950 . S
H2442 C2418 0.950 . S
H2443 C2419 0.949 . S
H2444 C2421 0.950 . S
H2445 C2423 0.950 . S
C2446 C2447 1.349 . S
C2446 C2448 1.327 . S
C2446 H2471 0.950 . S
C2447 C2446 1.349 . S
C2447 C2463 1.349 . S
C2448 C2446 1.327 . S
C2448 C2467 1.429 . S
C2448 H2472 0.950 . S
C2449 C2466 1.574 . S
C2449 C2468 1.368 . S
C2449 H2473 0.949 . S
H2450 C2454 0.949 . S
C2451 C2452 1.349 . S
C2451 C2453 1.327 . S
C2451 H2474 0.950 . S
C2452 C2451 1.349 . S
C2452 C2464 1.349 . S
C2453 C2451 1.327 . S
C2453 C2469 1.429 . S
C2453 H2475 0.950 . S
C2454 H2450 0.949 . S
C2454 C2462 1.574 . S
C2454 C2470 1.368 . S
H2455 C2463 0.950 . S
H2456 C2461 0.950 . S
H2457 C2462 0.949 . S
H2458 C2464 0.950 . S
H2459 C2465 0.950 . S
H2460 C2466 0.949 . S
C2461 H2456 0.950 . S
C2461 C2463 1.327 . S
C2461 C2467 1.429 . S
C2462 C2454 1.574 . S
C2462 H2457 0.949 . S
C2462 C2468 1.368 . S
C2463 C2447 1.349 . S
C2463 H2455 0.950 . S
C2463 C2461 1.327 . S
C2464 C2452 1.349 . S
C2464 H2458 0.950 . S
C2464 C2465 1.327 . S
C2465 H2459 0.950 . S
C2465 C2464 1.327 . S
C2465 C2469 1.429 . S
C2466 C2449 1.574 . S
C2466 H2460 0.949 . S
C2466 C2470 1.368 . S
C2467 C2448 1.429 . S
C2467 C2461 1.429 . S
C2467 C2468 1.523 . S
C2468 C2449 1.368 . S
C2468 C2462 1.368 . S
C2468 C2467 1.523 . S
C2469 C2453 1.429 . S
C2469 C2465 1.429 . S
C2469 C2470 1.523 . S
C2470 C2454 1.368 . S
C2470 C2466 1.368 . S
C2470 C2469 1.523 . S
H2471 C2446 0.950 . S
H2472 C2448 0.950 . S
H2473 C2449 0.949 . S
H2474 C2451 0.950 . S
H2475 C2453 0.950 . S
C2476 C2477 1.349 . S
C2476 C2478 1.327 . S
C2476 H2501 0.950 . S
C2477 C2476 1.349 . S
C2477 C2493 1.349 . S
C2478 C2476 1.327 . S
C2478 C2497 1.429 . S
C2478 H2502 0.950 . S
C2479 C2496 1.574 . S
C2479 C2498 1.368 . S
C2479 H2503 0.949 . S
H2480 C2484 0.949 . S
C2481 C2482 1.349 . S
C2481 C2483 1.327 . S
C2481 H2504 0.950 . S
C2482 C2481 1.349 . S
C2482 C2494 1.349 . S
C2483 C2481 1.327 . S
C2483 C2499 1.429 . S
C2483 H2505 0.950 . S
C2484 H2480 0.949 . S
C2484 C2492 1.574 . S
C2484 C2500 1.368 . S
H2485 C2493 0.950 . S
H2486 C2491 0.950 . S
H2487 C2492 0.949 . S
H2488 C2494 0.950 . S
H2489 C2495 0.950 . S
H2490 C2496 0.949 . S
C2491 H2486 0.950 . S
C2491 C2493 1.327 . S
C2491 C2497 1.429 . S
C2492 C2484 1.574 . S
C2492 H2487 0.949 . S
C2492 C2498 1.368 . S
C2493 C2477 1.349 . S
C2493 H2485 0.950 . S
C2493 C2491 1.327 . S
C2494 C2482 1.349 . S
C2494 H2488 0.950 . S
C2494 C2495 1.327 . S
C2495 H2489 0.950 . S
C2495 C2494 1.327 . S
C2495 C2499 1.429 . S
C2496 C2479 1.574 . S
C2496 H2490 0.949 . S
C2496 C2500 1.368 . S
C2497 C2478 1.429 . S
C2497 C2491 1.429 . S
C2497 C2498 1.523 . S
C2498 C2479 1.368 . S
C2498 C2492 1.368 . S
C2498 C2497 1.523 . S
C2499 C2483 1.429 . S
C2499 C2495 1.429 . S
C2499 C2500 1.523 . S
C2500 C2484 1.368 . S
C2500 C2496 1.368 . S
C2500 C2499 1.523 . S
H2501 C2476 0.950 . S
H2502 C2478 0.950 . S
H2503 C2479 0.949 . S
H2504 C2481 0.950 . S
H2505 C2483 0.950 . S
C2506 C2507 1.349 . S
C2506 C2508 1.327 . S
C2506 H2531 0.950 . S
C2507 C2506 1.349 . S
C2507 C2523 1.349 . S
C2508 C2506 1.327 . S
C2508 C2527 1.429 . S
C2508 H2532 0.950 . S
C2509 C2526 1.574 . S
C2509 C2528 1.368 . S
C2509 H2533 0.949 . S
H2510 C2514 0.949 . S
C2511 C2512 1.349 . S
C2511 C2513 1.327 . S
C2511 H2534 0.950 . S
C2512 C2511 1.349 . S
C2512 C2524 1.349 . S
C2513 C2511 1.327 . S
C2513 C2529 1.429 . S
C2513 H2535 0.950 . S
C2514 H2510 0.949 . S
C2514 C2522 1.574 . S
C2514 C2530 1.368 . S
H2515 C2523 0.950 . S
H2516 C2521 0.950 . S
H2517 C2522 0.949 . S
H2518 C2524 0.950 . S
H2519 C2525 0.950 . S
H2520 C2526 0.949 . S
C2521 H2516 0.950 . S
C2521 C2523 1.327 . S
C2521 C2527 1.429 . S
C2522 C2514 1.574 . S
C2522 H2517 0.949 . S
C2522 C2528 1.368 . S
C2523 C2507 1.349 . S
C2523 H2515 0.950 . S
C2523 C2521 1.327 . S
C2524 C2512 1.349 . S
C2524 H2518 0.950 . S
C2524 C2525 1.327 . S
C2525 H2519 0.950 . S
C2525 C2524 1.327 . S
C2525 C2529 1.429 . S
C2526 C2509 1.574 . S
C2526 H2520 0.949 . S
C2526 C2530 1.368 . S
C2527 C2508 1.429 . S
C2527 C2521 1.429 . S
C2527 C2528 1.523 . S
C2528 C2509 1.368 . S
C2528 C2522 1.368 . S
C2528 C2527 1.523 . S
C2529 C2513 1.429 . S
C2529 C2525 1.429 . S
C2529 C2530 1.523 . S
C2530 C2514 1.368 . S
C2530 C2526 1.368 . S
C2530 C2529 1.523 . S
H2531 C2506 0.950 . S
H2532 C2508 0.950 . S
H2533 C2509 0.949 . S
H2534 C2511 0.950 . S
H2535 C2513 0.950 . S
C2536 C2537 1.349 . S
C2536 C2538 1.327 . S
C2536 H2561 0.950 . S
C2537 C2536 1.349 . S
C2537 C2553 1.349 . S
C2538 C2536 1.327 . S
C2538 C2557 1.429 . S
C2538 H2562 0.950 . S
C2539 C2556 1.574 . S
C2539 C2558 1.368 . S
C2539 H2563 0.949 . S
H2540 C2544 0.949 . S
C2541 C2542 1.349 . S
C2541 C2543 1.327 . S
C2541 H2564 0.950 . S
C2542 C2541 1.349 . S
C2542 C2554 1.349 . S
C2543 C2541 1.327 . S
C2543 C2559 1.429 . S
C2543 H2565 0.950 . S
C2544 H2540 0.949 . S
C2544 C2552 1.574 . S
C2544 C2560 1.368 . S
H2545 C2553 0.950 . S
H2546 C2551 0.950 . S
H2547 C2552 0.949 . S
H2548 C2554 0.950 . S
H2549 C2555 0.950 . S
H2550 C2556 0.949 . S
C2551 H2546 0.950 . S
C2551 C2553 1.327 . S
C2551 C2557 1.429 . S
C2552 C2544 1.574 . S
C2552 H2547 0.949 . S
C2552 C2558 1.368 . S
C2553 C2537 1.349 . S
C2553 H2545 0.950 . S
C2553 C2551 1.327 . S
C2554 C2542 1.349 . S
C2554 H2548 0.950 . S
C2554 C2555 1.327 . S
C2555 H2549 0.950 . S
C2555 C2554 1.327 . S
C2555 C2559 1.429 . S
C2556 C2539 1.574 . S
C2556 H2550 0.949 . S
C2556 C2560 1.368 . S
C2557 C2538 1.429 . S
C2557 C2551 1.429 . S
C2557 C2558 1.523 . S
C2558 C2539 1.368 . S
C2558 C2552 1.368 . S
C2558 C2557 1.523 . S
C2559 C2543 1.429 . S
C2559 C2555 1.429 . S
C2559 C2560 1.523 . S
C2560 C2544 1.368 . S
C2560 C2556 1.368 . S
C2560 C2559 1.523 . S
H2561 C2536 0.950 . S
H2562 C2538 0.950 . S
H2563 C2539 0.949 . S
H2564 C2541 0.950 . S
H2565 C2543 0.950 . S
C2566 C2567 1.349 . S
C2566 C2568 1.327 . S
C2566 H2591 0.950 . S
C2567 C2566 1.349 . S
C2567 C2583 1.349 . S
C2568 C2566 1.327 . S
C2568 C2587 1.429 . S
C2568 H2592 0.950 . S
C2569 C2586 1.574 . S
C2569 C2588 1.368 . S
C2569 H2593 0.949 . S
H2570 C2574 0.949 . S
C2571 C2572 1.349 . S
C2571 C2573 1.327 . S
C2571 H2594 0.950 . S
C2572 C2571 1.349 . S
C2572 C2584 1.349 . S
C2573 C2571 1.327 . S
C2573 C2589 1.429 . S
C2573 H2595 0.950 . S
C2574 H2570 0.949 . S
C2574 C2582 1.574 . S
C2574 C2590 1.368 . S
H2575 C2583 0.950 . S
H2576 C2581 0.950 . S
H2577 C2582 0.949 . S
H2578 C2584 0.950 . S
H2579 C2585 0.950 . S
H2580 C2586 0.949 . S
C2581 H2576 0.950 . S
C2581 C2583 1.327 . S
C2581 C2587 1.429 . S
C2582 C2574 1.574 . S
C2582 H2577 0.949 . S
C2582 C2588 1.368 . S
C2583 C2567 1.349 . S
C2583 H2575 0.950 . S
C2583 C2581 1.327 . S
C2584 C2572 1.349 . S
C2584 H2578 0.950 . S
C2584 C2585 1.327 . S
C2585 H2579 0.950 . S
C2585 C2584 1.327 . S
C2585 C2589 1.429 . S
C2586 C2569 1.574 . S
C2586 H2580 0.949 . S
C2586 C2590 1.368 . S
C2587 C2568 1.429 . S
C2587 C2581 1.429 . S
C2587 C2588 1.523 . S
C2588 C2569 1.368 . S
C2588 C2582 1.368 . S
C2588 C2587 1.523 . S
C2589 C2573 1.429 . S
C2589 C2585 1.429 . S
C2589 C2590 1.523 . S
C2590 C2574 1.368 . S
C2590 C2586 1.368 . S
C2590 C2589 1.523 . S
H2591 C2566 0.950 . S
H2592 C2568 0.950 . S
H2593 C2569 0.949 . S
H2594 C2571 0.950 . S
H2595 C2573 0.950 . S
C2596 C2597 1.349 . S
C2596 C2598 1.327 . S
C2596 H2621 0.950 . S
C2597 C2596 1.349 . S
C2597 C2613 1.349 . S
C2598 C2596 1.327 . S
C2598 C2617 1.429 . S
C2598 H2622 0.950 . S
C2599 C2616 1.574 . S
C2599 C2618 1.368 . S
C2599 H2623 0.949 . S
H2600 C2604 0.949 . S
C2601 C2602 1.349 . S
C2601 C2603 1.327 . S
C2601 H2624 0.950 . S
C2602 C2601 1.349 . S
C2602 C2614 1.349 . S
C2603 C2601 1.327 . S
C2603 C2619 1.429 . S
C2603 H2625 0.950 . S
C2604 H2600 0.949 . S
C2604 C2612 1.574 . S
C2604 C2620 1.368 . S
H2605 C2613 0.950 . S
H2606 C2611 0.950 . S
H2607 C2612 0.949 . S
H2608 C2614 0.950 . S
H2609 C2615 0.950 . S
H2610 C2616 0.949 . S
C2611 H2606 0.950 . S
C2611 C2613 1.327 . S
C2611 C2617 1.429 . S
C2612 C2604 1.574 . S
C2612 H2607 0.949 . S
C2612 C2618 1.368 . S
C2613 C2597 1.349 . S
C2613 H2605 0.950 . S
C2613 C2611 1.327 . S
C2614 C2602 1.349 . S
C2614 H2608 0.950 . S
C2614 C2615 1.327 . S
C2615 H2609 0.950 . S
C2615 C2614 1.327 . S
C2615 C2619 1.429 . S
C2616 C2599 1.574 . S
C2616 H2610 0.949 . S
C2616 C2620 1.368 . S
C2617 C2598 1.429 . S
C2617 C2611 1.429 . S
C2617 C2618 1.523 . S
C2618 C2599 1.368 . S
C2618 C2612 1.368 . S
C2618 C2617 1.523 . S
C2619 C2603 1.429 . S
C2619 C2615 1.429 . S
C2619 C2620 1.523 . S
C2620 C2604 1.368 . S
C2620 C2616 1.368 . S
C2620 C2619 1.523 . S
H2621 C2596 0.950 . S
H2622 C2598 0.950 . S
H2623 C2599 0.949 . S
H2624 C2601 0.950 . S
H2625 C2603 0.950 . S
C2626 C2627 1.349 . S
C2626 C2628 1.327 . S
C2626 H2651 0.950 . S
C2627 C2626 1.349 . S
C2627 C2643 1.349 . S
C2628 C2626 1.327 . S
C2628 C2647 1.429 . S
C2628 H2652 0.950 . S
C2629 C2646 1.574 . S
C2629 C2648 1.368 . S
C2629 H2653 0.949 . S
H2630 C2634 0.949 . S
C2631 C2632 1.349 . S
C2631 C2633 1.327 . S
C2631 H2654 0.950 . S
C2632 C2631 1.349 . S
C2632 C2644 1.349 . S
C2633 C2631 1.327 . S
C2633 C2649 1.429 . S
C2633 H2655 0.950 . S
C2634 H2630 0.949 . S
C2634 C2642 1.574 . S
C2634 C2650 1.368 . S
H2635 C2643 0.950 . S
H2636 C2641 0.950 . S
H2637 C2642 0.949 . S
H2638 C2644 0.950 . S
H2639 C2645 0.950 . S
H2640 C2646 0.949 . S
C2641 H2636 0.950 . S
C2641 C2643 1.327 . S
C2641 C2647 1.429 . S
C2642 C2634 1.574 . S
C2642 H2637 0.949 . S
C2642 C2648 1.368 . S
C2643 C2627 1.349 . S
C2643 H2635 0.950 . S
C2643 C2641 1.327 . S
C2644 C2632 1.349 . S
C2644 H2638 0.950 . S
C2644 C2645 1.327 . S
C2645 H2639 0.950 . S
C2645 C2644 1.327 . S
C2645 C2649 1.429 . S
C2646 C2629 1.574 . S
C2646 H2640 0.949 . S
C2646 C2650 1.368 . S
C2647 C2628 1.429 . S
C2647 C2641 1.429 . S
C2647 C2648 1.523 . S
C2648 C2629 1.368 . S
C2648 C2642 1.368 . S
C2648 C2647 1.523 . S
C2649 C2633 1.429 . S
C2649 C2645 1.429 . S
C2649 C2650 1.523 . S
C2650 C2634 1.368 . S
C2650 C2646 1.368 . S
C2650 C2649 1.523 . S
H2651 C2626 0.950 . S
H2652 C2628 0.950 . S
H2653 C2629 0.949 . S
H2654 C2631 0.950 . S
H2655 C2633 0.950 . S
C2656 C2657 1.349 . S
C2656 C2658 1.327 . S
C2656 H2681 0.950 . S
C2657 C2656 1.349 . S
C2657 C2673 1.349 1_565 S
C2658 C2656 1.327 . S
C2658 C2677 1.429 . S
C2658 H2682 0.950 . S
C2659 C2676 1.574 1_554 S
C2659 C2678 1.368 1_545 S
C2659 H2683 0.949 . S
H2660 C2664 0.949 . S
C2661 C2662 1.349 . S
C2661 C2663 1.327 . S
C2661 H2684 0.950 . S
C2662 C2661 1.349 . S
C2662 C2674 1.349 1_545 S
C2663 C2661 1.327 . S
C2663 C2679 1.429 . S
C2663 H2685 0.950 . S
C2664 H2660 0.949 . S
C2664 C2672 1.574 1_556 S
C2664 C2680 1.368 1_565 S
H2665 C2673 0.950 . S
H2666 C2671 0.950 . S
H2667 C2672 0.949 . S
H2668 C2674 0.950 . S
H2669 C2675 0.950 . S
H2670 C2676 0.949 . S
C2671 H2666 0.950 . S
C2671 C2673 1.327 . S
C2671 C2677 1.429 1_545 S
C2672 C2664 1.574 1_554 S
C2672 H2667 0.949 . S
C2672 C2678 1.368 . S
C2673 C2657 1.349 1_545 S
C2673 H2665 0.950 . S
C2673 C2671 1.327 . S
C2674 C2662 1.349 1_565 S
C2674 H2668 0.950 . S
C2674 C2675 1.327 . S
C2675 H2669 0.950 . S
C2675 C2674 1.327 . S
C2675 C2679 1.429 1_565 S
C2676 C2659 1.574 1_556 S
C2676 H2670 0.949 . S
C2676 C2680 1.368 . S
C2677 C2658 1.429 . S
C2677 C2671 1.429 1_565 S
C2677 C2678 1.523 . S
C2678 C2659 1.368 1_565 S
C2678 C2672 1.368 . S
C2678 C2677 1.523 . S
C2679 C2663 1.429 . S
C2679 C2675 1.429 1_545 S
C2679 C2680 1.523 . S
C2680 C2664 1.368 1_545 S
C2680 C2676 1.368 . S
C2680 C2679 1.523 . S
H2681 C2656 0.950 . S
H2682 C2658 0.950 . S
H2683 C2659 0.949 . S
H2684 C2661 0.950 . S
H2685 C2663 0.950 . S
C2686 C2687 1.349 . S
C2686 C2688 1.327 . S
C2686 H2711 0.950 . S
C2687 C2686 1.349 . S
C2687 C2703 1.349 . S
C2688 C2686 1.327 . S
C2688 C2707 1.429 . S
C2688 H2712 0.950 . S
C2689 C2706 1.574 1_554 S
C2689 C2708 1.368 . S
C2689 H2713 0.949 . S
H2690 C2694 0.949 . S
C2691 C2692 1.349 . S
C2691 C2693 1.327 . S
C2691 H2714 0.950 . S
C2692 C2691 1.349 . S
C2692 C2704 1.349 . S
C2693 C2691 1.327 . S
C2693 C2709 1.429 . S
C2693 H2715 0.950 . S
C2694 H2690 0.949 . S
C2694 C2702 1.574 1_556 S
C2694 C2710 1.368 . S
H2695 C2703 0.950 . S
H2696 C2701 0.950 . S
H2697 C2702 0.949 . S
H2698 C2704 0.950 . S
H2699 C2705 0.950 . S
H2700 C2706 0.949 . S
C2701 H2696 0.950 . S
C2701 C2703 1.327 . S
C2701 C2707 1.429 . S
C2702 C2694 1.574 1_554 S
C2702 H2697 0.949 . S
C2702 C2708 1.368 . S
C2703 C2687 1.349 . S
C2703 H2695 0.950 . S
C2703 C2701 1.327 . S
C2704 C2692 1.349 . S
C2704 H2698 0.950 . S
C2704 C2705 1.327 . S
C2705 H2699 0.950 . S
C2705 C2704 1.327 . S
C2705 C2709 1.429 . S
C2706 C2689 1.574 1_556 S
C2706 H2700 0.949 . S
C2706 C2710 1.368 . S
C2707 C2688 1.429 . S
C2707 C2701 1.429 . S
C2707 C2708 1.523 . S
C2708 C2689 1.368 . S
C2708 C2702 1.368 . S
C2708 C2707 1.523 . S
C2709 C2693 1.429 . S
C2709 C2705 1.429 . S
C2709 C2710 1.523 . S
C2710 C2694 1.368 . S
C2710 C2706 1.368 . S
C2710 C2709 1.523 . S
H2711 C2686 0.950 . S
H2712 C2688 0.950 . S
H2713 C2689 0.949 . S
H2714 C2691 0.950 . S
H2715 C2693 0.950 . S
C2716 C2717 1.349 . S
C2716 C2718 1.327 . S
C2716 H2741 0.950 . S
C2717 C2716 1.349 . S
C2717 C2733 1.349 . S
C2718 C2716 1.327 . S
C2718 C2737 1.429 . S
C2718 H2742 0.950 . S
C2719 C2736 1.574 . S
C2719 C2738 1.368 . S
C2719 H2743 0.949 . S
H2720 C2724 0.949 . S
C2721 C2722 1.349 . S
C2721 C2723 1.327 . S
C2721 H2744 0.950 . S
C2722 C2721 1.349 . S
C2722 C2734 1.349 . S
C2723 C2721 1.327 . S
C2723 C2739 1.429 . S
C2723 H2745 0.950 . S
C2724 H2720 0.949 . S
C2724 C2732 1.574 . S
C2724 C2740 1.368 . S
H2725 C2733 0.950 . S
H2726 C2731 0.950 . S
H2727 C2732 0.949 . S
H2728 C2734 0.950 . S
H2729 C2735 0.950 . S
H2730 C2736 0.949 . S
C2731 H2726 0.950 . S
C2731 C2733 1.327 . S
C2731 C2737 1.429 . S
C2732 C2724 1.574 . S
C2732 H2727 0.949 . S
C2732 C2738 1.368 . S
C2733 C2717 1.349 . S
C2733 H2725 0.950 . S
C2733 C2731 1.327 . S
C2734 C2722 1.349 . S
C2734 H2728 0.950 . S
C2734 C2735 1.327 . S
C2735 H2729 0.950 . S
C2735 C2734 1.327 . S
C2735 C2739 1.429 . S
C2736 C2719 1.574 . S
C2736 H2730 0.949 . S
C2736 C2740 1.368 . S
C2737 C2718 1.429 . S
C2737 C2731 1.429 . S
C2737 C2738 1.523 . S
C2738 C2719 1.368 . S
C2738 C2732 1.368 . S
C2738 C2737 1.523 . S
C2739 C2723 1.429 . S
C2739 C2735 1.429 . S
C2739 C2740 1.523 . S
C2740 C2724 1.368 . S
C2740 C2736 1.368 . S
C2740 C2739 1.523 . S
H2741 C2716 0.950 . S
H2742 C2718 0.950 . S
H2743 C2719 0.949 . S
H2744 C2721 0.950 . S
H2745 C2723 0.950 . S
C2746 C2747 1.349 . S
C2746 C2748 1.327 . S
C2746 H2771 0.950 . S
C2747 C2746 1.349 . S
C2747 C2763 1.349 1_565 S
C2748 C2746 1.327 . S
C2748 C2767 1.429 . S
C2748 H2772 0.950 . S
C2749 C2766 1.574 . S
C2749 C2768 1.338 1_545 S
C2749 H2773 0.949 . S
H2750 C2754 0.949 . S
C2751 C2752 1.349 . S
C2751 C2753 1.327 . S
C2751 H2774 0.950 . S
C2752 C2751 1.349 . S
C2752 C2764 1.349 1_545 S
C2753 C2751 1.327 . S
C2753 C2769 1.429 . S
C2753 H2775 0.950 . S
C2754 H2750 0.949 . S
C2754 C2762 1.574 . S
C2754 C2770 1.368 1_565 S
H2755 C2763 0.950 . S
H2756 C2761 0.950 . S
H2757 C2762 0.949 . S
H2758 C2764 0.950 . S
H2759 C2765 0.950 . S
H2760 C2766 0.949 . S
C2761 H2756 0.950 . S
C2761 C2763 1.327 . S
C2761 C2767 1.429 1_545 S
C2762 C2754 1.574 . S
C2762 H2757 0.949 . S
C2762 C2768 1.397 . S
C2763 C2747 1.349 1_545 S
C2763 H2755 0.950 . S
C2763 C2761 1.327 . S
C2764 C2752 1.349 1_565 S
C2764 H2758 0.950 . S
C2764 C2765 1.327 . S
C2765 H2759 0.950 . S
C2765 C2764 1.327 . S
C2765 C2769 1.429 1_565 S
C2766 C2749 1.574 . S
C2766 H2760 0.949 . S
C2766 C2770 1.368 . S
C2767 C2748 1.429 . S
C2767 C2761 1.429 1_565 S
C2767 C2768 1.527 . S
C2768 C2749 1.338 1_565 S
C2768 C2762 1.397 . S
C2768 C2767 1.527 . S
C2769 C2753 1.429 . S
C2769 C2765 1.429 1_545 S
C2769 C2770 1.523 . S
C2770 C2754 1.368 1_545 S
C2770 C2766 1.368 . S
C2770 C2769 1.523 . S
H2771 C2746 0.950 . S
H2772 C2748 0.950 . S
H2773 C2749 0.949 . S
H2774 C2751 0.950 . S
H2775 C2753 0.950 . S
C2776 C2777 1.349 . S
C2776 C2778 1.327 . S
C2776 H2801 0.950 . S
C2777 C2776 1.349 . S
C2777 C2793 1.349 . S
C2778 C2776 1.327 . S
C2778 C2797 1.429 . S
C2778 H2802 0.950 . S
C2779 C2796 1.574 1_556 S
C2779 C2798 1.368 . S
C2779 H2803 0.949 . S
H2780 C2784 0.949 . S
C2781 C2782 1.349 . S
C2781 C2783 1.327 . S
C2781 H2804 0.950 . S
C2782 C2781 1.349 . S
C2782 C2794 1.349 . S
C2783 C2781 1.327 . S
C2783 C2799 1.429 . S
C2783 H2805 0.950 . S
C2784 H2780 0.949 . S
C2784 C2792 1.574 1_554 S
C2784 C2800 1.368 . S
H2785 C2793 0.950 . S
H2786 C2791 0.950 . S
H2787 C2792 0.949 . S
H2788 C2794 0.950 . S
H2789 C2795 0.950 . S
H2790 C2796 0.949 . S
C2791 H2786 0.950 . S
C2791 C2793 1.327 . S
C2791 C2797 1.429 . S
C2792 C2784 1.574 1_556 S
C2792 H2787 0.949 . S
C2792 C2798 1.368 . S
C2793 C2777 1.349 . S
C2793 H2785 0.950 . S
C2793 C2791 1.327 . S
C2794 C2782 1.349 . S
C2794 H2788 0.950 . S
C2794 C2795 1.327 . S
C2795 H2789 0.950 . S
C2795 C2794 1.327 . S
C2795 C2799 1.429 . S
C2796 C2779 1.574 1_554 S
C2796 H2790 0.949 . S
C2796 C2800 1.368 . S
C2797 C2778 1.429 . S
C2797 C2791 1.429 . S
C2797 C2798 1.523 . S
C2798 C2779 1.368 . S
C2798 C2792 1.368 . S
C2798 C2797 1.523 . S
C2799 C2783 1.429 . S
C2799 C2795 1.429 . S
C2799 C2800 1.523 . S
C2800 C2784 1.368 . S
C2800 C2796 1.368 . S
C2800 C2799 1.523 . S
H2801 C2776 0.950 . S
H2802 C2778 0.950 . S
H2803 C2779 0.949 . S
H2804 C2781 0.950 . S
H2805 C2783 0.950 . S
C2806 C2807 1.349 . S
C2806 C2808 1.327 . S
C2806 H2831 0.950 . S
C2807 C2806 1.349 . S
C2807 C2823 1.349 . S
C2808 C2806 1.327 . S
C2808 C2827 1.429 . S
C2808 H2832 0.950 . S
C2809 C2826 1.574 . S
C2809 C2828 1.368 . S
C2809 H2833 0.949 . S
H2810 C2814 0.949 . S
C2811 C2812 1.349 . S
C2811 C2813 1.327 . S
C2811 H2834 0.950 . S
C2812 C2811 1.349 . S
C2812 C2824 1.349 . S
C2813 C2811 1.327 . S
C2813 C2829 1.429 . S
C2813 H2835 0.950 . S
C2814 H2810 0.949 . S
C2814 C2822 1.574 . S
C2814 C2830 1.368 . S
H2815 C2823 0.950 . S
H2816 C2821 0.950 . S
H2817 C2822 0.949 . S
H2818 C2824 0.950 . S
H2819 C2825 0.950 . S
H2820 C2826 0.949 . S
C2821 H2816 0.950 . S
C2821 C2823 1.327 . S
C2821 C2827 1.429 . S
C2822 C2814 1.574 . S
C2822 H2817 0.949 . S
C2822 C2828 1.368 . S
C2823 C2807 1.349 . S
C2823 H2815 0.950 . S
C2823 C2821 1.327 . S
C2824 C2812 1.349 . S
C2824 H2818 0.950 . S
C2824 C2825 1.327 . S
C2825 H2819 0.950 . S
C2825 C2824 1.327 . S
C2825 C2829 1.429 . S
C2826 C2809 1.574 . S
C2826 H2820 0.949 . S
C2826 C2830 1.368 . S
C2827 C2808 1.429 . S
C2827 C2821 1.429 . S
C2827 C2828 1.523 . S
C2828 C2809 1.368 . S
C2828 C2822 1.368 . S
C2828 C2827 1.523 . S
C2829 C2813 1.429 . S
C2829 C2825 1.429 . S
C2829 C2830 1.523 . S
C2830 C2814 1.368 . S
C2830 C2826 1.368 . S
C2830 C2829 1.523 . S
H2831 C2806 0.950 . S
H2832 C2808 0.950 . S
H2833 C2809 0.949 . S
H2834 C2811 0.950 . S
H2835 C2813 0.950 . S
C2836 C2837 1.349 . S
C2836 C2838 1.327 . S
C2836 H2861 0.950 . S
C2837 C2836 1.349 . S
C2837 C2853 1.349 1_565 S
C2838 C2836 1.327 . S
C2838 C2857 1.429 . S
C2838 H2862 0.950 . S
C2839 C2856 1.574 . S
C2839 C2858 1.368 1_545 S
C2839 H2863 0.949 . S
H2840 C2844 0.949 . S
C2841 C2842 1.349 . S
C2841 C2843 1.327 . S
C2841 H2864 0.950 . S
C2842 C2841 1.349 . S
C2842 C2854 1.349 1_545 S
C2843 C2841 1.327 . S
C2843 C2859 1.429 . S
C2843 H2865 0.950 . S
C2844 H2840 0.949 . S
C2844 C2852 1.574 . S
C2844 C2860 1.333 1_565 S
H2845 C2853 0.950 . S
H2846 C2851 0.950 . S
H2847 C2852 0.949 . S
H2848 C2854 0.950 . S
H2849 C2855 0.950 . S
H2850 C2856 0.949 . S
C2851 H2846 0.950 . S
C2851 C2853 1.327 . S
C2851 C2857 1.429 1_545 S
C2852 C2844 1.574 . S
C2852 H2847 0.949 . S
C2852 C2858 1.368 . S
C2853 C2837 1.349 1_545 S
C2853 H2845 0.950 . S
C2853 C2851 1.327 . S
C2854 C2842 1.349 1_565 S
C2854 H2848 0.950 . S
C2854 C2855 1.327 . S
C2855 H2849 0.950 . S
C2855 C2854 1.327 . S
C2855 C2859 1.429 1_565 S
C2856 C2839 1.574 . S
C2856 H2850 0.949 . S
C2856 C2860 1.402 . S
C2857 C2838 1.429 . S
C2857 C2851 1.429 1_565 S
C2857 C2858 1.523 . S
C2858 C2839 1.368 1_565 S
C2858 C2852 1.368 . S
C2858 C2857 1.523 . S
C2859 C2843 1.429 . S
C2859 C2855 1.429 1_545 S
C2859 C2860 1.527 . S
C2860 C2844 1.333 1_545 S
C2860 C2856 1.402 . S
C2860 C2859 1.527 . S
H2861 C2836 0.950 . S
H2862 C2838 0.950 . S
H2863 C2839 0.949 . S
H2864 C2841 0.950 . S
H2865 C2843 0.950 . S
C2866 C2867 1.349 . S
C2866 C2868 1.327 . S
C2866 H2891 0.950 . S
C2867 C2866 1.349 . S
C2867 C2883 1.349 . S
C2868 C2866 1.327 . S
C2868 C2887 1.429 . S
C2868 H2892 0.950 . S
C2869 C2886 1.574 . S
C2869 C2888 1.368 . S
C2869 H2893 0.949 . S
H2870 C2874 0.949 . S
C2871 C2872 1.349 . S
C2871 C2873 1.327 . S
C2871 H2894 0.950 . S
C2872 C2871 1.349 . S
C2872 C2884 1.349 . S
C2873 C2871 1.327 . S
C2873 C2889 1.429 . S
C2873 H2895 0.950 . S
C2874 H2870 0.949 . S
C2874 C2882 1.574 . S
C2874 C2890 1.368 . S
H2875 C2883 0.950 . S
H2876 C2881 0.950 . S
H2877 C2882 0.949 . S
H2878 C2884 0.950 . S
H2879 C2885 0.950 . S
H2880 C2886 0.949 . S
C2881 H2876 0.950 . S
C2881 C2883 1.327 . S
C2881 C2887 1.429 . S
C2882 C2874 1.574 . S
C2882 H2877 0.949 . S
C2882 C2888 1.368 . S
C2883 C2867 1.349 . S
C2883 H2875 0.950 . S
C2883 C2881 1.327 . S
C2884 C2872 1.349 . S
C2884 H2878 0.950 . S
C2884 C2885 1.327 . S
C2885 H2879 0.950 . S
C2885 C2884 1.327 . S
C2885 C2889 1.429 . S
C2886 C2869 1.574 . S
C2886 H2880 0.949 . S
C2886 C2890 1.368 . S
C2887 C2868 1.429 . S
C2887 C2881 1.429 . S
C2887 C2888 1.523 . S
C2888 C2869 1.368 . S
C2888 C2882 1.368 . S
C2888 C2887 1.523 . S
C2889 C2873 1.429 . S
C2889 C2885 1.429 . S
C2889 C2890 1.523 . S
C2890 C2874 1.368 . S
C2890 C2886 1.368 . S
C2890 C2889 1.523 . S
H2891 C2866 0.950 . S
H2892 C2868 0.950 . S
H2893 C2869 0.949 . S
H2894 C2871 0.950 . S
H2895 C2873 0.950 . S
C2896 C2897 1.349 . S
C2896 C2898 1.327 . S
C2896 H2921 0.950 . S
C2897 C2896 1.349 . S
C2897 C2913 1.349 . S
C2898 C2896 1.327 . S
C2898 C2917 1.429 . S
C2898 H2922 0.950 . S
C2899 C2916 1.574 . S
C2899 C2918 1.368 . S
C2899 H2923 0.949 . S
H2900 C2904 0.949 . S
C2901 C2902 1.349 . S
C2901 C2903 1.327 . S
C2901 H2924 0.950 . S
C2902 C2901 1.349 . S
C2902 C2914 1.349 . S
C2903 C2901 1.327 . S
C2903 C2919 1.429 . S
C2903 H2925 0.950 . S
C2904 H2900 0.949 . S
C2904 C2912 1.574 . S
C2904 C2920 1.368 . S
H2905 C2913 0.950 . S
H2906 C2911 0.950 . S
H2907 C2912 0.949 . S
H2908 C2914 0.950 . S
H2909 C2915 0.950 . S
H2910 C2916 0.949 . S
C2911 H2906 0.950 . S
C2911 C2913 1.327 . S
C2911 C2917 1.429 . S
C2912 C2904 1.574 . S
C2912 H2907 0.949 . S
C2912 C2918 1.368 . S
C2913 C2897 1.349 . S
C2913 H2905 0.950 . S
C2913 C2911 1.327 . S
C2914 C2902 1.349 . S
C2914 H2908 0.950 . S
C2914 C2915 1.327 . S
C2915 H2909 0.950 . S
C2915 C2914 1.327 . S
C2915 C2919 1.429 . S
C2916 C2899 1.574 . S
C2916 H2910 0.949 . S
C2916 C2920 1.368 . S
C2917 C2898 1.429 . S
C2917 C2911 1.429 . S
C2917 C2918 1.523 . S
C2918 C2899 1.368 . S
C2918 C2912 1.368 . S
C2918 C2917 1.523 . S
C2919 C2903 1.429 . S
C2919 C2915 1.429 . S
C2919 C2920 1.523 . S
C2920 C2904 1.368 . S
C2920 C2916 1.368 . S
C2920 C2919 1.523 . S
H2921 C2896 0.950 . S
H2922 C2898 0.950 . S
H2923 C2899 0.949 . S
H2924 C2901 0.950 . S
H2925 C2903 0.950 . S
C2926 C2927 1.349 . S
C2926 C2928 1.327 . S
C2926 H2951 0.950 . S
C2927 C2926 1.349 . S
C2927 C2943 1.349 . S
C2928 C2926 1.327 . S
C2928 C2947 1.429 . S
C2928 H2952 0.950 . S
C2929 C2946 1.574 . S
C2929 C2948 1.368 . S
C2929 H2953 0.949 . S
H2930 C2934 0.949 . S
C2931 C2932 1.349 . S
C2931 C2933 1.327 . S
C2931 H2954 0.950 . S
C2932 C2931 1.349 . S
C2932 C2944 1.349 . S
C2933 C2931 1.327 . S
C2933 C2949 1.429 . S
C2933 H2955 0.950 . S
C2934 H2930 0.949 . S
C2934 C2942 1.574 . S
C2934 C2950 1.368 . S
H2935 C2943 0.950 . S
H2936 C2941 0.950 . S
H2937 C2942 0.949 . S
H2938 C2944 0.950 . S
H2939 C2945 0.950 . S
H2940 C2946 0.949 . S
C2941 H2936 0.950 . S
C2941 C2943 1.327 . S
C2941 C2947 1.429 . S
C2942 C2934 1.574 . S
C2942 H2937 0.949 . S
C2942 C2948 1.368 . S
C2943 C2927 1.349 . S
C2943 H2935 0.950 . S
C2943 C2941 1.327 . S
C2944 C2932 1.349 . S
C2944 H2938 0.950 . S
C2944 C2945 1.327 . S
C2945 H2939 0.950 . S
C2945 C2944 1.327 . S
C2945 C2949 1.429 . S
C2946 C2929 1.574 . S
C2946 H2940 0.949 . S
C2946 C2950 1.368 . S
C2947 C2928 1.429 . S
C2947 C2941 1.429 . S
C2947 C2948 1.523 . S
C2948 C2929 1.368 . S
C2948 C2942 1.368 . S
C2948 C2947 1.523 . S
C2949 C2933 1.429 . S
C2949 C2945 1.429 . S
C2949 C2950 1.523 . S
C2950 C2934 1.368 . S
C2950 C2946 1.368 . S
C2950 C2949 1.523 . S
H2951 C2926 0.950 . S
H2952 C2928 0.950 . S
H2953 C2929 0.949 . S
H2954 C2931 0.950 . S
H2955 C2933 0.950 . S
C2956 C2957 1.349 . S
C2956 C2958 1.327 . S
C2956 H2981 0.950 . S
C2957 C2956 1.349 . S
C2957 C2973 1.349 . S
C2958 C2956 1.327 . S
C2958 C2977 1.429 . S
C2958 H2982 0.950 . S
C2959 C2976 1.574 . S
C2959 C2978 1.368 . S
C2959 H2983 0.949 . S
H2960 C2964 0.949 . S
C2961 C2962 1.349 . S
C2961 C2963 1.327 . S
C2961 H2984 0.950 . S
C2962 C2961 1.349 . S
C2962 C2974 1.349 . S
C2963 C2961 1.327 . S
C2963 C2979 1.429 . S
C2963 H2985 0.950 . S
C2964 H2960 0.949 . S
C2964 C2972 1.574 . S
C2964 C2980 1.368 . S
H2965 C2973 0.950 . S
H2966 C2971 0.950 . S
H2967 C2972 0.949 . S
H2968 C2974 0.950 . S
H2969 C2975 0.950 . S
H2970 C2976 0.949 . S
C2971 H2966 0.950 . S
C2971 C2973 1.327 . S
C2971 C2977 1.429 . S
C2972 C2964 1.574 . S
C2972 H2967 0.949 . S
C2972 C2978 1.368 . S
C2973 C2957 1.349 . S
C2973 H2965 0.950 . S
C2973 C2971 1.327 . S
C2974 C2962 1.349 . S
C2974 H2968 0.950 . S
C2974 C2975 1.327 . S
C2975 H2969 0.950 . S
C2975 C2974 1.327 . S
C2975 C2979 1.429 . S
C2976 C2959 1.574 . S
C2976 H2970 0.949 . S
C2976 C2980 1.368 . S
C2977 C2958 1.429 . S
C2977 C2971 1.429 . S
C2977 C2978 1.523 . S
C2978 C2959 1.368 . S
C2978 C2972 1.368 . S
C2978 C2977 1.523 . S
C2979 C2963 1.429 . S
C2979 C2975 1.429 . S
C2979 C2980 1.523 . S
C2980 C2964 1.368 . S
C2980 C2976 1.368 . S
C2980 C2979 1.523 . S
H2981 C2956 0.950 . S
H2982 C2958 0.950 . S
H2983 C2959 0.949 . S
H2984 C2961 0.950 . S
H2985 C2963 0.950 . S
C2986 C2987 1.349 . S
C2986 C2988 1.327 . S
C2986 H3011 0.950 . S
C2987 C2986 1.349 . S
C2987 C3003 1.349 . S
C2988 C2986 1.327 . S
C2988 C3007 1.429 . S
C2988 H3012 0.950 . S
C2989 C3006 1.574 . S
C2989 C3008 1.368 . S
C2989 H3013 0.949 . S
H2990 C2994 0.949 . S
C2991 C2992 1.349 . S
C2991 C2993 1.327 . S
C2991 H3014 0.950 . S
C2992 C2991 1.349 . S
C2992 C3004 1.349 . S
C2993 C2991 1.327 . S
C2993 C3009 1.429 . S
C2993 H3015 0.950 . S
C2994 H2990 0.949 . S
C2994 C3002 1.574 . S
C2994 C3010 1.368 . S
H2995 C3003 0.950 . S
H2996 C3001 0.950 . S
H2997 C3002 0.949 . S
H2998 C3004 0.950 . S
H2999 C3005 0.950 . S
H3000 C3006 0.949 . S
C3001 H2996 0.950 . S
C3001 C3003 1.327 . S
C3001 C3007 1.429 . S
C3002 C2994 1.574 . S
C3002 H2997 0.949 . S
C3002 C3008 1.368 . S
C3003 C2987 1.349 . S
C3003 H2995 0.950 . S
C3003 C3001 1.327 . S
C3004 C2992 1.349 . S
C3004 H2998 0.950 . S
C3004 C3005 1.327 . S
C3005 H2999 0.950 . S
C3005 C3004 1.327 . S
C3005 C3009 1.429 . S
C3006 C2989 1.574 . S
C3006 H3000 0.949 . S
C3006 C3010 1.368 . S
C3007 C2988 1.429 . S
C3007 C3001 1.429 . S
C3007 C3008 1.523 . S
C3008 C2989 1.368 . S
C3008 C3002 1.368 . S
C3008 C3007 1.523 . S
C3009 C2993 1.429 . S
C3009 C3005 1.429 . S
C3009 C3010 1.523 . S
C3010 C2994 1.368 . S
C3010 C3006 1.368 . S
C3010 C3009 1.523 . S
H3011 C2986 0.950 . S
H3012 C2988 0.950 . S
H3013 C2989 0.949 . S
H3014 C2991 0.950 . S
H3015 C2993 0.950 . S
C3016 C3017 1.349 1_565 S
C3016 C3018 1.327 . S
C3016 H3041 0.950 . S
C3017 C3016 1.349 1_545 S
C3017 C3033 1.349 1_455 S
C3018 C3016 1.327 . S
C3018 C3037 1.429 1_565 S
C3018 H3042 0.950 . S
C3019 C3036 1.574 . S
C3019 C3038 1.343 1_655 S
C3019 H3043 0.949 . S
H3020 C3024 0.949 . S
C3021 C3022 1.349 1_545 S
C3021 C3023 1.327 . S
C3021 H3044 0.950 . S
C3022 C3021 1.349 1_565 S
C3022 C3034 1.349 1_655 S
C3023 C3021 1.327 . S
C3023 C3039 1.429 1_545 S
C3023 H3045 0.950 . S
C3024 H3020 0.949 . S
C3024 C3032 1.574 . S
C3024 C3040 1.352 1_455 S
H3025 C3033 0.950 . S
H3026 C3031 0.950 . S
H3027 C3032 0.949 . S
H3028 C3034 0.950 . S
H3029 C3035 0.950 . S
H3030 C3036 0.949 . S
C3031 H3026 0.950 . S
C3031 C3033 1.327 . S
C3031 C3037 1.429 1_655 S
C3032 C3024 1.574 . S
C3032 H3027 0.949 . S
C3032 C3038 1.393 1_565 S
C3033 C3017 1.349 1_655 S
C3033 H3025 0.950 . S
C3033 C3031 1.327 . S
C3034 C3022 1.349 1_455 S
C3034 H3028 0.950 . S
C3034 C3035 1.327 . S
C3035 H3029 0.950 . S
C3035 C3034 1.327 . S
C3035 C3039 1.429 1_455 S
C3036 C3019 1.574 . S
C3036 H3030 0.949 . S
C3036 C3040 1.384 1_545 S
C3037 C3018 1.429 1_545 S
C3037 C3031 1.429 1_455 S
C3037 C3038 1.525 . S
C3038 C3019 1.343 1_455 S
C3038 C3032 1.393 1_545 S
C3038 C3037 1.525 . S
C3039 C3023 1.429 1_565 S
C3039 C3035 1.429 1_655 S
C3039 C3040 1.524 . S
C3040 C3024 1.352 1_655 S
C3040 C3036 1.384 1_565 S
C3040 C3039 1.524 . S
H3041 C3016 0.950 . S
H3042 C3018 0.950 . S
H3043 C3019 0.949 . S
H3044 C3021 0.950 . S
H3045 C3023 0.950 . S
C3046 C3047 1.349 1_455 S
C3046 C3048 1.327 . S
C3046 H3071 0.950 . S
C3047 C3046 1.349 1_655 S
C3047 C3063 1.349 . S
C3048 C3046 1.327 . S
C3048 C3067 1.429 1_455 S
C3048 H3072 0.950 . S
C3049 C3066 1.574 . S
C3049 C3068 1.393 . S
C3049 H3073 0.949 . S
H3050 C3054 0.949 . S
C3051 C3052 1.349 1_655 S
C3051 C3053 1.327 . S
C3051 H3074 0.950 . S
C3052 C3051 1.349 1_455 S
C3052 C3064 1.349 . S
C3053 C3051 1.327 . S
C3053 C3069 1.429 1_655 S
C3053 H3075 0.950 . S
C3054 H3050 0.949 . S
C3054 C3062 1.574 . S
C3054 C3070 1.384 . S
H3055 C3063 0.950 . S
H3056 C3061 0.950 . S
H3057 C3062 0.949 . S
H3058 C3064 0.950 . S
H3059 C3065 0.950 . S
H3060 C3066 0.949 . S
C3061 H3056 0.950 . S
C3061 C3063 1.327 . S
C3061 C3067 1.429 . S
C3062 C3054 1.574 . S
C3062 H3057 0.949 . S
C3062 C3068 1.344 1_455 S
C3063 C3047 1.349 . S
C3063 H3055 0.950 . S
C3063 C3061 1.327 . S
C3064 C3052 1.349 . S
C3064 H3058 0.950 . S
C3064 C3065 1.327 . S
C3065 H3059 0.950 . S
C3065 C3064 1.327 . S
C3065 C3069 1.429 . S
C3066 C3049 1.574 . S
C3066 H3060 0.949 . S
C3066 C3070 1.352 1_655 S
C3067 C3048 1.429 1_655 S
C3067 C3061 1.429 . S
C3067 C3068 1.525 . S
C3068 C3049 1.393 . S
C3068 C3062 1.344 1_655 S
C3068 C3067 1.525 . S
C3069 C3053 1.429 1_455 S
C3069 C3065 1.429 . S
C3069 C3070 1.524 . S
C3070 C3054 1.384 . S
C3070 C3066 1.352 1_455 S
C3070 C3069 1.524 . S
H3071 C3046 0.950 . S
H3072 C3048 0.950 . S
H3073 C3049 0.949 . S
H3074 C3051 0.950 . S
H3075 C3053 0.950 . S
C3076 C3077 1.349 . S
C3076 C3078 1.327 . S
C3076 H3101 0.950 . S
C3077 C3076 1.349 . S
C3077 C3093 1.349 1_655 S
C3078 C3076 1.327 . S
C3078 C3097 1.429 . S
C3078 H3102 0.950 . S
C3079 C3096 1.574 . S
C3079 C3098 1.343 1_455 S
C3079 H3103 0.949 . S
H3080 C3084 0.949 . S
C3081 C3082 1.349 . S
C3081 C3083 1.327 . S
C3081 H3104 0.950 . S
C3082 C3081 1.349 . S
C3082 C3094 1.349 1_455 S
C3083 C3081 1.327 . S
C3083 C3099 1.429 . S
C3083 H3105 0.950 . S
C3084 H3080 0.949 . S
C3084 C3092 1.574 . S
C3084 C3100 1.352 1_655 S
H3085 C3093 0.950 . S
H3086 C3091 0.950 . S
H3087 C3092 0.949 . S
H3088 C3094 0.950 . S
H3089 C3095 0.950 . S
H3090 C3096 0.949 . S
C3091 H3086 0.950 . S
C3091 C3093 1.327 . S
C3091 C3097 1.429 1_455 S
C3092 C3084 1.574 . S
C3092 H3087 0.949 . S
C3092 C3098 1.393 . S
C3093 C3077 1.349 1_455 S
C3093 H3085 0.950 . S
C3093 C3091 1.327 . S
C3094 C3082 1.349 1_655 S
C3094 H3088 0.950 . S
C3094 C3095 1.327 . S
C3095 H3089 0.950 . S
C3095 C3094 1.327 . S
C3095 C3099 1.429 1_655 S
C3096 C3079 1.574 . S
C3096 H3090 0.949 . S
C3096 C3100 1.384 . S
C3097 C3078 1.429 . S
C3097 C3091 1.429 1_655 S
C3097 C3098 1.525 . S
C3098 C3079 1.343 1_655 S
C3098 C3092 1.393 . S
C3098 C3097 1.525 . S
C3099 C3083 1.429 . S
C3099 C3095 1.429 1_455 S
C3099 C3100 1.524 . S
C3100 C3084 1.352 1_455 S
C3100 C3096 1.384 . S
C3100 C3099 1.524 . S
H3101 C3076 0.950 . S
H3102 C3078 0.950 . S
H3103 C3079 0.949 . S
H3104 C3081 0.950 . S
H3105 C3083 0.950 . S
C3106 C3107 1.349 1_655 S
C3106 C3108 1.327 . S
C3106 H3131 0.950 . S
C3107 C3106 1.349 1_455 S
C3107 C3123 1.349 . S
C3108 C3106 1.327 . S
C3108 C3127 1.429 1_655 S
C3108 H3132 0.950 . S
C3109 C3126 1.574 1_556 S
C3109 C3128 1.397 . S
C3109 H3133 0.949 . S
H3110 C3114 0.949 . S
C3111 C3112 1.349 1_455 S
C3111 C3113 1.327 . S
C3111 H3134 0.950 . S
C3112 C3111 1.349 1_655 S
C3112 C3124 1.349 . S
C3113 C3111 1.327 . S
C3113 C3129 1.429 1_455 S
C3113 H3135 0.950 . S
C3114 H3110 0.949 . S
C3114 C3122 1.574 1_554 S
C3114 C3130 1.387 . S
H3115 C3123 0.950 . S
H3116 C3121 0.950 . S
H3117 C3122 0.949 . S
H3118 C3124 0.950 . S
H3119 C3125 0.950 . S
H3120 C3126 0.949 . S
C3121 H3116 0.950 . S
C3121 C3123 1.327 . S
C3121 C3127 1.429 . S
C3122 C3114 1.574 1_556 S
C3122 H3117 0.949 . S
C3122 C3128 1.339 1_655 S
C3123 C3107 1.349 . S
C3123 H3115 0.950 . S
C3123 C3121 1.327 . S
C3124 C3112 1.349 . S
C3124 H3118 0.950 . S
C3124 C3125 1.327 . S
C3125 H3119 0.950 . S
C3125 C3124 1.327 . S
C3125 C3129 1.429 . S
C3126 C3109 1.574 1_554 S
C3126 H3120 0.949 . S
C3126 C3130 1.350 1_455 S
C3127 C3108 1.429 1_455 S
C3127 C3121 1.429 . S
C3127 C3128 1.525 . S
C3128 C3109 1.397 . S
C3128 C3122 1.339 1_455 S
C3128 C3127 1.525 . S
C3129 C3113 1.429 1_655 S
C3129 C3125 1.429 . S
C3129 C3130 1.524 . S
C3130 C3114 1.387 . S
C3130 C3126 1.350 1_655 S
C3130 C3129 1.524 . S
H3131 C3106 0.950 . S
H3132 C3108 0.950 . S
H3133 C3109 0.949 . S
H3134 C3111 0.950 . S
H3135 C3113 0.950 . S
C3136 C3137 1.349 . S
C3136 C3138 1.327 . S
C3136 H3161 0.950 . S
C3137 C3136 1.349 . S
C3137 C3153 1.349 . S
C3138 C3136 1.327 . S
C3138 C3157 1.429 . S
C3138 H3162 0.950 . S
C3139 C3156 1.574 . S
C3139 C3158 1.368 . S
C3139 H3163 0.949 . S
H3140 C3144 0.949 . S
C3141 C3142 1.349 . S
C3141 C3143 1.327 . S
C3141 H3164 0.950 . S
C3142 C3141 1.349 . S
C3142 C3154 1.349 . S
C3143 C3141 1.327 . S
C3143 C3159 1.429 . S
C3143 H3165 0.950 . S
C3144 H3140 0.949 . S
C3144 C3152 1.574 . S
C3144 C3160 1.368 . S
H3145 C3153 0.950 . S
H3146 C3151 0.950 . S
H3147 C3152 0.949 . S
H3148 C3154 0.950 . S
H3149 C3155 0.950 . S
H3150 C3156 0.949 . S
C3151 H3146 0.950 . S
C3151 C3153 1.327 . S
C3151 C3157 1.429 . S
C3152 C3144 1.574 . S
C3152 H3147 0.949 . S
C3152 C3158 1.368 . S
C3153 C3137 1.349 . S
C3153 H3145 0.950 . S
C3153 C3151 1.327 . S
C3154 C3142 1.349 . S
C3154 H3148 0.950 . S
C3154 C3155 1.327 . S
C3155 H3149 0.950 . S
C3155 C3154 1.327 . S
C3155 C3159 1.429 . S
C3156 C3139 1.574 . S
C3156 H3150 0.949 . S
C3156 C3160 1.368 . S
C3157 C3138 1.429 . S
C3157 C3151 1.429 . S
C3157 C3158 1.523 . S
C3158 C3139 1.368 . S
C3158 C3152 1.368 . S
C3158 C3157 1.523 . S
C3159 C3143 1.429 . S
C3159 C3155 1.429 . S
C3159 C3160 1.523 . S
C3160 C3144 1.368 . S
C3160 C3156 1.368 . S
C3160 C3159 1.523 . S
H3161 C3136 0.950 . S
H3162 C3138 0.950 . S
H3163 C3139 0.949 . S
H3164 C3141 0.950 . S
H3165 C3143 0.950 . S
C3166 C3167 1.349 . S
C3166 C3168 1.327 . S
C3166 H3191 0.950 . S
C3167 C3166 1.349 . S
C3167 C3183 1.349 . S
C3168 C3166 1.327 . S
C3168 C3187 1.429 . S
C3168 H3192 0.950 . S
C3169 C3186 1.574 . S
C3169 C3188 1.368 . S
C3169 H3193 0.949 . S
H3170 C3174 0.949 . S
C3171 C3172 1.349 . S
C3171 C3173 1.327 . S
C3171 H3194 0.950 . S
C3172 C3171 1.349 . S
C3172 C3184 1.349 . S
C3173 C3171 1.327 . S
C3173 C3189 1.429 . S
C3173 H3195 0.950 . S
C3174 H3170 0.949 . S
C3174 C3182 1.574 . S
C3174 C3190 1.368 . S
H3175 C3183 0.950 . S
H3176 C3181 0.950 . S
H3177 C3182 0.949 . S
H3178 C3184 0.950 . S
H3179 C3185 0.950 . S
H3180 C3186 0.949 . S
C3181 H3176 0.950 . S
C3181 C3183 1.327 . S
C3181 C3187 1.429 . S
C3182 C3174 1.574 . S
C3182 H3177 0.949 . S
C3182 C3188 1.368 . S
C3183 C3167 1.349 . S
C3183 H3175 0.950 . S
C3183 C3181 1.327 . S
C3184 C3172 1.349 . S
C3184 H3178 0.950 . S
C3184 C3185 1.327 . S
C3185 H3179 0.950 . S
C3185 C3184 1.327 . S
C3185 C3189 1.429 . S
C3186 C3169 1.574 . S
C3186 H3180 0.949 . S
C3186 C3190 1.368 . S
C3187 C3168 1.429 . S
C3187 C3181 1.429 . S
C3187 C3188 1.523 . S
C3188 C3169 1.368 . S
C3188 C3182 1.368 . S
C3188 C3187 1.523 . S
C3189 C3173 1.429 . S
C3189 C3185 1.429 . S
C3189 C3190 1.523 . S
C3190 C3174 1.368 . S
C3190 C3186 1.368 . S
C3190 C3189 1.523 . S
H3191 C3166 0.950 . S
H3192 C3168 0.950 . S
H3193 C3169 0.949 . S
H3194 C3171 0.950 . S
H3195 C3173 0.950 . S
C3196 C3197 1.349 . S
C3196 C3198 1.327 . S
C3196 H3221 0.950 . S
C3197 C3196 1.349 . S
C3197 C3213 1.349 . S
C3198 C3196 1.327 . S
C3198 C3217 1.429 . S
C3198 H3222 0.950 . S
C3199 C3216 1.574 . S
C3199 C3218 1.368 . S
C3199 H3223 0.949 . S
H3200 C3204 0.949 . S
C3201 C3202 1.349 . S
C3201 C3203 1.327 . S
C3201 H3224 0.950 . S
C3202 C3201 1.349 . S
C3202 C3214 1.349 . S
C3203 C3201 1.327 . S
C3203 C3219 1.429 . S
C3203 H3225 0.950 . S
C3204 H3200 0.949 . S
C3204 C3212 1.574 . S
C3204 C3220 1.368 . S
H3205 C3213 0.950 . S
H3206 C3211 0.950 . S
H3207 C3212 0.949 . S
H3208 C3214 0.950 . S
H3209 C3215 0.950 . S
H3210 C3216 0.949 . S
C3211 H3206 0.950 . S
C3211 C3213 1.327 . S
C3211 C3217 1.429 . S
C3212 C3204 1.574 . S
C3212 H3207 0.949 . S
C3212 C3218 1.368 . S
C3213 C3197 1.349 . S
C3213 H3205 0.950 . S
C3213 C3211 1.327 . S
C3214 C3202 1.349 . S
C3214 H3208 0.950 . S
C3214 C3215 1.327 . S
C3215 H3209 0.950 . S
C3215 C3214 1.327 . S
C3215 C3219 1.429 . S
C3216 C3199 1.574 . S
C3216 H3210 0.949 . S
C3216 C3220 1.368 . S
C3217 C3198 1.429 . S
C3217 C3211 1.429 . S
C3217 C3218 1.523 . S
C3218 C3199 1.368 . S
C3218 C3212 1.368 . S
C3218 C3217 1.523 . S
C3219 C3203 1.429 . S
C3219 C3215 1.429 . S
C3219 C3220 1.523 . S
C3220 C3204 1.368 . S
C3220 C3216 1.368 . S
C3220 C3219 1.523 . S
H3221 C3196 0.950 . S
H3222 C3198 0.950 . S
H3223 C3199 0.949 . S
H3224 C3201 0.950 . S
H3225 C3203 0.950 . S
C3226 C3227 1.349 . S
C3226 C3228 1.327 . S
C3226 H3251 0.950 . S
C3227 C3226 1.349 . S
C3227 C3243 1.349 . S
C3228 C3226 1.327 . S
C3228 C3247 1.429 . S
C3228 H3252 0.950 . S
C3229 C3246 1.574 . S
C3229 C3248 1.368 . S
C3229 H3253 0.949 . S
H3230 C3234 0.949 . S
C3231 C3232 1.349 . S
C3231 C3233 1.327 . S
C3231 H3254 0.950 . S
C3232 C3231 1.349 . S
C3232 C3244 1.349 . S
C3233 C3231 1.327 . S
C3233 C3249 1.429 . S
C3233 H3255 0.950 . S
C3234 H3230 0.949 . S
C3234 C3242 1.574 . S
C3234 C3250 1.368 . S
H3235 C3243 0.950 . S
H3236 C3241 0.950 . S
H3237 C3242 0.949 . S
H3238 C3244 0.950 . S
H3239 C3245 0.950 . S
H3240 C3246 0.949 . S
C3241 H3236 0.950 . S
C3241 C3243 1.327 . S
C3241 C3247 1.429 . S
C3242 C3234 1.574 . S
C3242 H3237 0.949 . S
C3242 C3248 1.368 . S
C3243 C3227 1.349 . S
C3243 H3235 0.950 . S
C3243 C3241 1.327 . S
C3244 C3232 1.349 . S
C3244 H3238 0.950 . S
C3244 C3245 1.327 . S
C3245 H3239 0.950 . S
C3245 C3244 1.327 . S
C3245 C3249 1.429 . S
C3246 C3229 1.574 . S
C3246 H3240 0.949 . S
C3246 C3250 1.368 . S
C3247 C3228 1.429 . S
C3247 C3241 1.429 . S
C3247 C3248 1.523 . S
C3248 C3229 1.368 . S
C3248 C3242 1.368 . S
C3248 C3247 1.523 . S
C3249 C3233 1.429 . S
C3249 C3245 1.429 . S
C3249 C3250 1.523 . S
C3250 C3234 1.368 . S
C3250 C3246 1.368 . S
C3250 C3249 1.523 . S
H3251 C3226 0.950 . S
H3252 C3228 0.950 . S
H3253 C3229 0.949 . S
H3254 C3231 0.950 . S
H3255 C3233 0.950 . S
C3256 C3257 1.349 . S
C3256 C3258 1.327 . S
C3256 H3281 0.950 . S
C3257 C3256 1.349 . S
C3257 C3273 1.349 . S
C3258 C3256 1.327 . S
C3258 C3277 1.429 . S
C3258 H3282 0.950 . S
C3259 C3276 1.574 . S
C3259 C3278 1.368 . S
C3259 H3283 0.949 . S
H3260 C3264 0.949 . S
C3261 C3262 1.349 . S
C3261 C3263 1.327 . S
C3261 H3284 0.950 . S
C3262 C3261 1.349 . S
C3262 C3274 1.349 . S
C3263 C3261 1.327 . S
C3263 C3279 1.429 . S
C3263 H3285 0.950 . S
C3264 H3260 0.949 . S
C3264 C3272 1.574 . S
C3264 C3280 1.368 . S
H3265 C3273 0.950 . S
H3266 C3271 0.950 . S
H3267 C3272 0.949 . S
H3268 C3274 0.950 . S
H3269 C3275 0.950 . S
H3270 C3276 0.949 . S
C3271 H3266 0.950 . S
C3271 C3273 1.327 . S
C3271 C3277 1.429 . S
C3272 C3264 1.574 . S
C3272 H3267 0.949 . S
C3272 C3278 1.368 . S
C3273 C3257 1.349 . S
C3273 H3265 0.950 . S
C3273 C3271 1.327 . S
C3274 C3262 1.349 . S
C3274 H3268 0.950 . S
C3274 C3275 1.327 . S
C3275 H3269 0.950 . S
C3275 C3274 1.327 . S
C3275 C3279 1.429 . S
C3276 C3259 1.574 . S
C3276 H3270 0.949 . S
C3276 C3280 1.368 . S
C3277 C3258 1.429 . S
C3277 C3271 1.429 . S
C3277 C3278 1.523 . S
C3278 C3259 1.368 . S
C3278 C3272 1.368 . S
C3278 C3277 1.523 . S
C3279 C3263 1.429 . S
C3279 C3275 1.429 . S
C3279 C3280 1.523 . S
C3280 C3264 1.368 . S
C3280 C3276 1.368 . S
C3280 C3279 1.523 . S
H3281 C3256 0.950 . S
H3282 C3258 0.950 . S
H3283 C3259 0.949 . S
H3284 C3261 0.950 . S
H3285 C3263 0.950 . S
C3286 C3287 1.349 . S
C3286 C3288 1.327 . S
C3286 H3311 0.950 . S
C3287 C3286 1.349 . S
C3287 C3303 1.349 . S
C3288 C3286 1.327 . S
C3288 C3307 1.429 . S
C3288 H3312 0.950 . S
C3289 C3306 1.574 . S
C3289 C3308 1.368 . S
C3289 H3313 0.949 . S
H3290 C3294 0.949 . S
C3291 C3292 1.349 . S
C3291 C3293 1.327 . S
C3291 H3314 0.950 . S
C3292 C3291 1.349 . S
C3292 C3304 1.349 . S
C3293 C3291 1.327 . S
C3293 C3309 1.429 . S
C3293 H3315 0.950 . S
C3294 H3290 0.949 . S
C3294 C3302 1.574 . S
C3294 C3310 1.368 . S
H3295 C3303 0.950 . S
H3296 C3301 0.950 . S
H3297 C3302 0.949 . S
H3298 C3304 0.950 . S
H3299 C3305 0.950 . S
H3300 C3306 0.949 . S
C3301 H3296 0.950 . S
C3301 C3303 1.327 . S
C3301 C3307 1.429 . S
C3302 C3294 1.574 . S
C3302 H3297 0.949 . S
C3302 C3308 1.368 . S
C3303 C3287 1.349 . S
C3303 H3295 0.950 . S
C3303 C3301 1.327 . S
C3304 C3292 1.349 . S
C3304 H3298 0.950 . S
C3304 C3305 1.327 . S
C3305 H3299 0.950 . S
C3305 C3304 1.327 . S
C3305 C3309 1.429 . S
C3306 C3289 1.574 . S
C3306 H3300 0.949 . S
C3306 C3310 1.368 . S
C3307 C3288 1.429 . S
C3307 C3301 1.429 . S
C3307 C3308 1.523 . S
C3308 C3289 1.368 . S
C3308 C3302 1.368 . S
C3308 C3307 1.523 . S
C3309 C3293 1.429 . S
C3309 C3305 1.429 . S
C3309 C3310 1.523 . S
C3310 C3294 1.368 . S
C3310 C3306 1.368 . S
C3310 C3309 1.523 . S
H3311 C3286 0.950 . S
H3312 C3288 0.950 . S
H3313 C3289 0.949 . S
H3314 C3291 0.950 . S
H3315 C3293 0.950 . S
C3316 C3317 1.349 . S
C3316 C3318 1.327 . S
C3316 H3341 0.950 . S
C3317 C3316 1.349 . S
C3317 C3333 1.349 . S
C3318 C3316 1.327 . S
C3318 C3337 1.429 . S
C3318 H3342 0.950 . S
C3319 C3336 1.574 . S
C3319 C3338 1.368 . S
C3319 H3343 0.949 . S
H3320 C3324 0.949 . S
C3321 C3322 1.349 . S
C3321 C3323 1.327 . S
C3321 H3344 0.950 . S
C3322 C3321 1.349 . S
C3322 C3334 1.349 . S
C3323 C3321 1.327 . S
C3323 C3339 1.429 . S
C3323 H3345 0.950 . S
C3324 H3320 0.949 . S
C3324 C3332 1.574 . S
C3324 C3340 1.368 . S
H3325 C3333 0.950 . S
H3326 C3331 0.950 . S
H3327 C3332 0.949 . S
H3328 C3334 0.950 . S
H3329 C3335 0.950 . S
H3330 C3336 0.949 . S
C3331 H3326 0.950 . S
C3331 C3333 1.327 . S
C3331 C3337 1.429 . S
C3332 C3324 1.574 . S
C3332 H3327 0.949 . S
C3332 C3338 1.368 . S
C3333 C3317 1.349 . S
C3333 H3325 0.950 . S
C3333 C3331 1.327 . S
C3334 C3322 1.349 . S
C3334 H3328 0.950 . S
C3334 C3335 1.327 . S
C3335 H3329 0.950 . S
C3335 C3334 1.327 . S
C3335 C3339 1.429 . S
C3336 C3319 1.574 . S
C3336 H3330 0.949 . S
C3336 C3340 1.368 . S
C3337 C3318 1.429 . S
C3337 C3331 1.429 . S
C3337 C3338 1.523 . S
C3338 C3319 1.368 . S
C3338 C3332 1.368 . S
C3338 C3337 1.523 . S
C3339 C3323 1.429 . S
C3339 C3335 1.429 . S
C3339 C3340 1.523 . S
C3340 C3324 1.368 . S
C3340 C3336 1.368 . S
C3340 C3339 1.523 . S
H3341 C3316 0.950 . S
H3342 C3318 0.950 . S
H3343 C3319 0.949 . S
H3344 C3321 0.950 . S
H3345 C3323 0.950 . S
C3346 C3347 1.349 . S
C3346 C3348 1.327 . S
C3346 H3371 0.950 . S
C3347 C3346 1.349 . S
C3347 C3363 1.349 . S
C3348 C3346 1.327 . S
C3348 C3367 1.429 . S
C3348 H3372 0.950 . S
C3349 C3366 1.574 . S
C3349 C3368 1.368 . S
C3349 H3373 0.949 . S
H3350 C3354 0.949 . S
C3351 C3352 1.349 . S
C3351 C3353 1.327 . S
C3351 H3374 0.950 . S
C3352 C3351 1.349 . S
C3352 C3364 1.349 . S
C3353 C3351 1.327 . S
C3353 C3369 1.429 . S
C3353 H3375 0.950 . S
C3354 H3350 0.949 . S
C3354 C3362 1.574 . S
C3354 C3370 1.368 . S
H3355 C3363 0.950 . S
H3356 C3361 0.950 . S
H3357 C3362 0.949 . S
H3358 C3364 0.950 . S
H3359 C3365 0.950 . S
H3360 C3366 0.949 . S
C3361 H3356 0.950 . S
C3361 C3363 1.327 . S
C3361 C3367 1.429 . S
C3362 C3354 1.574 . S
C3362 H3357 0.949 . S
C3362 C3368 1.368 . S
C3363 C3347 1.349 . S
C3363 H3355 0.950 . S
C3363 C3361 1.327 . S
C3364 C3352 1.349 . S
C3364 H3358 0.950 . S
C3364 C3365 1.327 . S
C3365 H3359 0.950 . S
C3365 C3364 1.327 . S
C3365 C3369 1.429 . S
C3366 C3349 1.574 . S
C3366 H3360 0.949 . S
C3366 C3370 1.368 . S
C3367 C3348 1.429 . S
C3367 C3361 1.429 . S
C3367 C3368 1.523 . S
C3368 C3349 1.368 . S
C3368 C3362 1.368 . S
C3368 C3367 1.523 . S
C3369 C3353 1.429 . S
C3369 C3365 1.429 . S
C3369 C3370 1.523 . S
C3370 C3354 1.368 . S
C3370 C3366 1.368 . S
C3370 C3369 1.523 . S
H3371 C3346 0.950 . S
H3372 C3348 0.950 . S
H3373 C3349 0.949 . S
H3374 C3351 0.950 . S
H3375 C3353 0.950 . S
C3376 C3377 1.349 . S
C3376 C3378 1.327 . S
C3376 H3401 0.950 . S
C3377 C3376 1.349 . S
C3377 C3393 1.349 . S
C3378 C3376 1.327 . S
C3378 C3397 1.429 . S
C3378 H3402 0.950 . S
C3379 C3396 1.574 . S
C3379 C3398 1.368 . S
C3379 H3403 0.949 . S
H3380 C3384 0.949 . S
C3381 C3382 1.349 . S
C3381 C3383 1.327 . S
C3381 H3404 0.950 . S
C3382 C3381 1.349 . S
C3382 C3394 1.349 . S
C3383 C3381 1.327 . S
C3383 C3399 1.429 . S
C3383 H3405 0.950 . S
C3384 H3380 0.949 . S
C3384 C3392 1.574 . S
C3384 C3400 1.368 . S
H3385 C3393 0.950 . S
H3386 C3391 0.950 . S
H3387 C3392 0.949 . S
H3388 C3394 0.950 . S
H3389 C3395 0.950 . S
H3390 C3396 0.949 . S
C3391 H3386 0.950 . S
C3391 C3393 1.327 . S
C3391 C3397 1.429 . S
C3392 C3384 1.574 . S
C3392 H3387 0.949 . S
C3392 C3398 1.368 . S
C3393 C3377 1.349 . S
C3393 H3385 0.950 . S
C3393 C3391 1.327 . S
C3394 C3382 1.349 . S
C3394 H3388 0.950 . S
C3394 C3395 1.327 . S
C3395 H3389 0.950 . S
C3395 C3394 1.327 . S
C3395 C3399 1.429 . S
C3396 C3379 1.574 . S
C3396 H3390 0.949 . S
C3396 C3400 1.368 . S
C3397 C3378 1.429 . S
C3397 C3391 1.429 . S
C3397 C3398 1.523 . S
C3398 C3379 1.368 . S
C3398 C3392 1.368 . S
C3398 C3397 1.523 . S
C3399 C3383 1.429 . S
C3399 C3395 1.429 . S
C3399 C3400 1.523 . S
C3400 C3384 1.368 . S
C3400 C3396 1.368 . S
C3400 C3399 1.523 . S
H3401 C3376 0.950 . S
H3402 C3378 0.950 . S
H3403 C3379 0.949 . S
H3404 C3381 0.950 . S
H3405 C3383 0.950 . S
C3406 C3407 1.349 . S
C3406 C3408 1.327 . S
C3406 H3431 0.950 . S
C3407 C3406 1.349 . S
C3407 C3423 1.349 . S
C3408 C3406 1.327 . S
C3408 C3427 1.429 . S
C3408 H3432 0.950 . S
C3409 C3426 1.574 . S
C3409 C3428 1.368 . S
C3409 H3433 0.949 . S
H3410 C3414 0.949 . S
C3411 C3412 1.349 . S
C3411 C3413 1.327 . S
C3411 H3434 0.950 . S
C3412 C3411 1.349 . S
C3412 C3424 1.349 . S
C3413 C3411 1.327 . S
C3413 C3429 1.429 . S
C3413 H3435 0.950 . S
C3414 H3410 0.949 . S
C3414 C3422 1.574 . S
C3414 C3430 1.368 . S
H3415 C3423 0.950 . S
H3416 C3421 0.950 . S
H3417 C3422 0.949 . S
H3418 C3424 0.950 . S
H3419 C3425 0.950 . S
H3420 C3426 0.949 . S
C3421 H3416 0.950 . S
C3421 C3423 1.327 . S
C3421 C3427 1.429 . S
C3422 C3414 1.574 . S
C3422 H3417 0.949 . S
C3422 C3428 1.368 . S
C3423 C3407 1.349 . S
C3423 H3415 0.950 . S
C3423 C3421 1.327 . S
C3424 C3412 1.349 . S
C3424 H3418 0.950 . S
C3424 C3425 1.327 . S
C3425 H3419 0.950 . S
C3425 C3424 1.327 . S
C3425 C3429 1.429 . S
C3426 C3409 1.574 . S
C3426 H3420 0.949 . S
C3426 C3430 1.368 . S
C3427 C3408 1.429 . S
C3427 C3421 1.429 . S
C3427 C3428 1.523 . S
C3428 C3409 1.368 . S
C3428 C3422 1.368 . S
C3428 C3427 1.523 . S
C3429 C3413 1.429 . S
C3429 C3425 1.429 . S
C3429 C3430 1.523 . S
C3430 C3414 1.368 . S
C3430 C3426 1.368 . S
C3430 C3429 1.523 . S
H3431 C3406 0.950 . S
H3432 C3408 0.950 . S
H3433 C3409 0.949 . S
H3434 C3411 0.950 . S
H3435 C3413 0.950 . S
C3436 C3437 1.349 . S
C3436 C3438 1.327 . S
C3436 H3461 0.950 . S
C3437 C3436 1.349 . S
C3437 C3453 1.349 . S
C3438 C3436 1.327 . S
C3438 C3457 1.429 . S
C3438 H3462 0.950 . S
C3439 C3456 1.574 . S
C3439 C3458 1.368 . S
C3439 H3463 0.949 . S
H3440 C3444 0.949 . S
C3441 C3442 1.349 . S
C3441 C3443 1.327 . S
C3441 H3464 0.950 . S
C3442 C3441 1.349 . S
C3442 C3454 1.349 . S
C3443 C3441 1.327 . S
C3443 C3459 1.429 . S
C3443 H3465 0.950 . S
C3444 H3440 0.949 . S
C3444 C3452 1.574 . S
C3444 C3460 1.368 . S
H3445 C3453 0.950 . S
H3446 C3451 0.950 . S
H3447 C3452 0.949 . S
H3448 C3454 0.950 . S
H3449 C3455 0.950 . S
H3450 C3456 0.949 . S
C3451 H3446 0.950 . S
C3451 C3453 1.327 . S
C3451 C3457 1.429 . S
C3452 C3444 1.574 . S
C3452 H3447 0.949 . S
C3452 C3458 1.368 . S
C3453 C3437 1.349 . S
C3453 H3445 0.950 . S
C3453 C3451 1.327 . S
C3454 C3442 1.349 . S
C3454 H3448 0.950 . S
C3454 C3455 1.327 . S
C3455 H3449 0.950 . S
C3455 C3454 1.327 . S
C3455 C3459 1.429 . S
C3456 C3439 1.574 . S
C3456 H3450 0.949 . S
C3456 C3460 1.368 . S
C3457 C3438 1.429 . S
C3457 C3451 1.429 . S
C3457 C3458 1.523 . S
C3458 C3439 1.368 . S
C3458 C3452 1.368 . S
C3458 C3457 1.523 . S
C3459 C3443 1.429 . S
C3459 C3455 1.429 . S
C3459 C3460 1.523 . S
C3460 C3444 1.368 . S
C3460 C3456 1.368 . S
C3460 C3459 1.523 . S
H3461 C3436 0.950 . S
H3462 C3438 0.950 . S
H3463 C3439 0.949 . S
H3464 C3441 0.950 . S
H3465 C3443 0.950 . S
C3466 C3467 1.349 . S
C3466 C3468 1.327 . S
C3466 H3491 0.950 . S
C3467 C3466 1.349 . S
C3467 C3483 1.349 . S
C3468 C3466 1.327 . S
C3468 C3487 1.429 . S
C3468 H3492 0.950 . S
C3469 C3486 1.574 . S
C3469 C3488 1.368 . S
C3469 H3493 0.949 . S
H3470 C3474 0.949 . S
C3471 C3472 1.349 . S
C3471 C3473 1.327 . S
C3471 H3494 0.950 . S
C3472 C3471 1.349 . S
C3472 C3484 1.349 . S
C3473 C3471 1.327 . S
C3473 C3489 1.429 . S
C3473 H3495 0.950 . S
C3474 H3470 0.949 . S
C3474 C3482 1.574 . S
C3474 C3490 1.368 . S
H3475 C3483 0.950 . S
H3476 C3481 0.950 . S
H3477 C3482 0.949 . S
H3478 C3484 0.950 . S
H3479 C3485 0.950 . S
H3480 C3486 0.949 . S
C3481 H3476 0.950 . S
C3481 C3483 1.327 . S
C3481 C3487 1.429 . S
C3482 C3474 1.574 . S
C3482 H3477 0.949 . S
C3482 C3488 1.368 . S
C3483 C3467 1.349 . S
C3483 H3475 0.950 . S
C3483 C3481 1.327 . S
C3484 C3472 1.349 . S
C3484 H3478 0.950 . S
C3484 C3485 1.327 . S
C3485 H3479 0.950 . S
C3485 C3484 1.327 . S
C3485 C3489 1.429 . S
C3486 C3469 1.574 . S
C3486 H3480 0.949 . S
C3486 C3490 1.368 . S
C3487 C3468 1.429 . S
C3487 C3481 1.429 . S
C3487 C3488 1.523 . S
C3488 C3469 1.368 . S
C3488 C3482 1.368 . S
C3488 C3487 1.523 . S
C3489 C3473 1.429 . S
C3489 C3485 1.429 . S
C3489 C3490 1.523 . S
C3490 C3474 1.368 . S
C3490 C3486 1.368 . S
C3490 C3489 1.523 . S
H3491 C3466 0.950 . S
H3492 C3468 0.950 . S
H3493 C3469 0.949 . S
H3494 C3471 0.950 . S
H3495 C3473 0.950 . S
C3496 C3497 1.349 . S
C3496 C3498 1.327 . S
C3496 H3521 0.950 . S
C3497 C3496 1.349 . S
C3497 C3513 1.349 . S
C3498 C3496 1.327 . S
C3498 C3517 1.429 . S
C3498 H3522 0.950 . S
C3499 C3516 1.574 . S
C3499 C3518 1.368 . S
C3499 H3523 0.949 . S
H3500 C3504 0.949 . S
C3501 C3502 1.349 . S
C3501 C3503 1.327 . S
C3501 H3524 0.950 . S
C3502 C3501 1.349 . S
C3502 C3514 1.349 . S
C3503 C3501 1.327 . S
C3503 C3519 1.429 . S
C3503 H3525 0.950 . S
C3504 H3500 0.949 . S
C3504 C3512 1.574 . S
C3504 C3520 1.368 . S
H3505 C3513 0.950 . S
H3506 C3511 0.950 . S
H3507 C3512 0.949 . S
H3508 C3514 0.950 . S
H3509 C3515 0.950 . S
H3510 C3516 0.949 . S
C3511 H3506 0.950 . S
C3511 C3513 1.327 . S
C3511 C3517 1.429 . S
C3512 C3504 1.574 . S
C3512 H3507 0.949 . S
C3512 C3518 1.368 . S
C3513 C3497 1.349 . S
C3513 H3505 0.950 . S
C3513 C3511 1.327 . S
C3514 C3502 1.349 . S
C3514 H3508 0.950 . S
C3514 C3515 1.327 . S
C3515 H3509 0.950 . S
C3515 C3514 1.327 . S
C3515 C3519 1.429 . S
C3516 C3499 1.574 . S
C3516 H3510 0.949 . S
C3516 C3520 1.368 . S
C3517 C3498 1.429 . S
C3517 C3511 1.429 . S
C3517 C3518 1.523 . S
C3518 C3499 1.368 . S
C3518 C3512 1.368 . S
C3518 C3517 1.523 . S
C3519 C3503 1.429 . S
C3519 C3515 1.429 . S
C3519 C3520 1.523 . S
C3520 C3504 1.368 . S
C3520 C3516 1.368 . S
C3520 C3519 1.523 . S
H3521 C3496 0.950 . S
H3522 C3498 0.950 . S
H3523 C3499 0.949 . S
H3524 C3501 0.950 . S
H3525 C3503 0.950 . S
C3526 C3527 1.349 . S
C3526 C3528 1.327 . S
C3526 H3551 0.950 . S
C3527 C3526 1.349 . S
C3527 C3543 1.349 . S
C3528 C3526 1.327 . S
C3528 C3547 1.429 . S
C3528 H3552 0.950 . S
C3529 C3546 1.574 . S
C3529 C3548 1.368 . S
C3529 H3553 0.949 . S
H3530 C3534 0.949 . S
C3531 C3532 1.349 . S
C3531 C3533 1.327 . S
C3531 H3554 0.950 . S
C3532 C3531 1.349 . S
C3532 C3544 1.349 . S
C3533 C3531 1.327 . S
C3533 C3549 1.429 . S
C3533 H3555 0.950 . S
C3534 H3530 0.949 . S
C3534 C3542 1.574 . S
C3534 C3550 1.368 . S
H3535 C3543 0.950 . S
H3536 C3541 0.950 . S
H3537 C3542 0.949 . S
H3538 C3544 0.950 . S
H3539 C3545 0.950 . S
H3540 C3546 0.949 . S
C3541 H3536 0.950 . S
C3541 C3543 1.327 . S
C3541 C3547 1.429 . S
C3542 C3534 1.574 . S
C3542 H3537 0.949 . S
C3542 C3548 1.368 . S
C3543 C3527 1.349 . S
C3543 H3535 0.950 . S
C3543 C3541 1.327 . S
C3544 C3532 1.349 . S
C3544 H3538 0.950 . S
C3544 C3545 1.327 . S
C3545 H3539 0.950 . S
C3545 C3544 1.327 . S
C3545 C3549 1.429 . S
C3546 C3529 1.574 . S
C3546 H3540 0.949 . S
C3546 C3550 1.368 . S
C3547 C3528 1.429 . S
C3547 C3541 1.429 . S
C3547 C3548 1.523 . S
C3548 C3529 1.368 . S
C3548 C3542 1.368 . S
C3548 C3547 1.523 . S
C3549 C3533 1.429 . S
C3549 C3545 1.429 . S
C3549 C3550 1.523 . S
C3550 C3534 1.368 . S
C3550 C3546 1.368 . S
C3550 C3549 1.523 . S
H3551 C3526 0.950 . S
H3552 C3528 0.950 . S
H3553 C3529 0.949 . S
H3554 C3531 0.950 . S
H3555 C3533 0.950 . S
C3556 C3557 1.349 . S
C3556 C3558 1.327 . S
C3556 H3581 0.950 . S
C3557 C3556 1.349 . S
C3557 C3573 1.349 . S
C3558 C3556 1.327 . S
C3558 C3577 1.429 . S
C3558 H3582 0.950 . S
C3559 C3576 1.574 . S
C3559 C3578 1.368 . S
C3559 H3583 0.949 . S
H3560 C3564 0.949 . S
C3561 C3562 1.349 . S
C3561 C3563 1.327 . S
C3561 H3584 0.950 . S
C3562 C3561 1.349 . S
C3562 C3574 1.349 . S
C3563 C3561 1.327 . S
C3563 C3579 1.429 . S
C3563 H3585 0.950 . S
C3564 H3560 0.949 . S
C3564 C3572 1.574 . S
C3564 C3580 1.368 . S
H3565 C3573 0.950 . S
H3566 C3571 0.950 . S
H3567 C3572 0.949 . S
H3568 C3574 0.950 . S
H3569 C3575 0.950 . S
H3570 C3576 0.949 . S
C3571 H3566 0.950 . S
C3571 C3573 1.327 . S
C3571 C3577 1.429 . S
C3572 C3564 1.574 . S
C3572 H3567 0.949 . S
C3572 C3578 1.368 . S
C3573 C3557 1.349 . S
C3573 H3565 0.950 . S
C3573 C3571 1.327 . S
C3574 C3562 1.349 . S
C3574 H3568 0.950 . S
C3574 C3575 1.327 . S
C3575 H3569 0.950 . S
C3575 C3574 1.327 . S
C3575 C3579 1.429 . S
C3576 C3559 1.574 . S
C3576 H3570 0.949 . S
C3576 C3580 1.368 . S
C3577 C3558 1.429 . S
C3577 C3571 1.429 . S
C3577 C3578 1.523 . S
C3578 C3559 1.368 . S
C3578 C3572 1.368 . S
C3578 C3577 1.523 . S
C3579 C3563 1.429 . S
C3579 C3575 1.429 . S
C3579 C3580 1.523 . S
C3580 C3564 1.368 . S
C3580 C3576 1.368 . S
C3580 C3579 1.523 . S
H3581 C3556 0.950 . S
H3582 C3558 0.950 . S
H3583 C3559 0.949 . S
H3584 C3561 0.950 . S
H3585 C3563 0.950 . S
C3586 C3587 1.349 . S
C3586 C3588 1.327 . S
C3586 H3611 0.950 . S
C3587 C3586 1.349 . S
C3587 C3603 1.349 . S
C3588 C3586 1.327 . S
C3588 C3607 1.429 . S
C3588 H3612 0.950 . S
C3589 C3606 1.574 . S
C3589 C3608 1.368 . S
C3589 H3613 0.949 . S
H3590 C3594 0.949 . S
C3591 C3592 1.349 . S
C3591 C3593 1.327 . S
C3591 H3614 0.950 . S
C3592 C3591 1.349 . S
C3592 C3604 1.349 . S
C3593 C3591 1.327 . S
C3593 C3609 1.429 . S
C3593 H3615 0.950 . S
C3594 H3590 0.949 . S
C3594 C3602 1.574 . S
C3594 C3610 1.368 . S
H3595 C3603 0.950 . S
H3596 C3601 0.950 . S
H3597 C3602 0.949 . S
H3598 C3604 0.950 . S
H3599 C3605 0.950 . S
H3600 C3606 0.949 . S
C3601 H3596 0.950 . S
C3601 C3603 1.327 . S
C3601 C3607 1.429 . S
C3602 C3594 1.574 . S
C3602 H3597 0.949 . S
C3602 C3608 1.368 . S
C3603 C3587 1.349 . S
C3603 H3595 0.950 . S
C3603 C3601 1.327 . S
C3604 C3592 1.349 . S
C3604 H3598 0.950 . S
C3604 C3605 1.327 . S
C3605 H3599 0.950 . S
C3605 C3604 1.327 . S
C3605 C3609 1.429 . S
C3606 C3589 1.574 . S
C3606 H3600 0.949 . S
C3606 C3610 1.368 . S
C3607 C3588 1.429 . S
C3607 C3601 1.429 . S
C3607 C3608 1.523 . S
C3608 C3589 1.368 . S
C3608 C3602 1.368 . S
C3608 C3607 1.523 . S
C3609 C3593 1.429 . S
C3609 C3605 1.429 . S
C3609 C3610 1.523 . S
C3610 C3594 1.368 . S
C3610 C3606 1.368 . S
C3610 C3609 1.523 . S
H3611 C3586 0.950 . S
H3612 C3588 0.950 . S
H3613 C3589 0.949 . S
H3614 C3591 0.950 . S
H3615 C3593 0.950 . S
C1697 C38 1.836 . S
C1702 C144 1.836 . S
C1727 C197 1.818 . S
C1732 C91 1.818 . S
C1757 C356 1.842 . S
C1762 C250 1.842 . S
C1787 C409 1.824 . S
C1792 C303 1.824 . S
C1817 C462 1.836 . S
C1822 C568 1.836 . S
C1847 C621 1.818 . S
C1852 C515 1.818 . S
C1877 C674 1.842 . S
C1882 C780 1.842 . S
C1907 C833 1.824 . S
C1912 C727 1.824 . S
C1937 C886 1.797 . S
C1942 C992 1.797 . S
C1967 C939 1.829 . S
C1972 C1045 1.829 . S
C1997 C1204 1.802 . S
C2002 C1098 1.802 . S
C2027 C1151 1.835 . S
C2032 C1257 1.835 . S
C2057 C1416 1.797 . S
C2062 C1310 1.797 . S
C2087 C1469 1.829 . S
C2092 C1363 1.829 . S
C2117 C1628 1.802 . S
C2122 C1522 1.802 . S
C2147 C1575 1.835 . S
C2152 C1681 1.835 . S
C2177 C1347 2.150 . S
C2182 C22 2.150 . S
C2207 C75 2.140 . S
C2212 C1294 2.133 . S
C2237 C128 2.150 . S
C2242 C1453 2.150 . S
C2267 C181 2.140 . S
C2272 C1400 2.133 . S
C2297 C1559 2.148 . S
C2302 C234 2.148 . S
C2327 C287 2.138 . S
C2332 C1506 2.131 . S
C2357 C340 2.148 . S
C2362 C1665 2.148 . S
C2387 C1612 2.138 . S
C2392 C393 2.131 . S
C2417 C446 2.150 . S
C2422 C923 2.150 . S
C2447 C499 2.140 . S
C2452 C870 2.133 . S
C2477 C552 2.150 . S
C2482 C1029 2.150 . S
C2507 C605 2.140 . S
C2512 C976 2.133 . S
C2537 C658 2.148 . S
C2542 C1135 2.148 . S
C2567 C1082 2.138 . S
C2572 C711 2.131 . S
C2597 C1241 2.148 . S
C2602 C764 2.148 . S
C2627 C817 2.138 . S
C2632 C1188 2.131 . S
C2657 C39 1.854 . S
C2662 C251 1.848 . S
C2687 C92 1.842 . S
C2692 C1576 1.834 . S
C2717 C145 1.854 . S
C2722 C781 1.848 . S
C2747 C198 1.842 . S
C2752 C1258 1.835 . S
C2777 C304 1.835 . S
C2782 C1364 1.841 . S
C2807 C569 1.854 . S
C2812 C357 1.848 . S
C2837 C1046 1.841 . S
C2842 C410 1.835 . S
C2867 C675 1.848 . S
C2872 C463 1.854 . S
C2897 C516 1.842 . S
C2902 C1152 1.835 . S
C2927 C1682 1.834 . S
C2932 C622 1.842 . S
C2957 C728 1.835 . S
C2962 C940 1.841 . S
C2987 C834 1.835 . S
C2992 C1470 1.841 . S
C3017 C1099 1.818 . S
C3022 C887 1.823 . S
C3047 C993 1.824 . S
C3052 C1629 1.818 . S
C3077 C1417 1.824 . S
C3082 C1205 1.818 . S
C3107 C1523 1.818 . S
C3112 C1311 1.824 . S
C3137 C29 0.925 . S
C3142 C82 0.925 . S
C3167 C135 0.925 . S
C3172 C188 0.925 . S
C3197 C241 0.926 . S
C3202 C294 0.926 . S
C3227 C347 0.926 . S
C3232 C400 0.926 . S
C3257 C506 0.925 . S
C3262 C453 0.925 . S
C3287 C559 0.925 . S
C3292 C612 0.925 . S
C3317 C665 0.926 . S
C3322 C718 0.926 . S
C3347 C771 0.926 . S
C3352 C824 0.926 . S
C3377 C877 0.943 . S
C3382 C930 0.950 . S
C3407 C1036 0.943 . S
C3412 C983 0.950 . S
C3437 C1089 0.943 . S
C3442 C1142 0.951 . S
C3467 C1195 0.943 . S
C3472 C1248 0.951 . S
C3497 C1354 0.943 . S
C3502 C1301 0.950 . S
C3527 C1407 0.943 . S
C3532 C1460 0.950 . S
C3557 C1566 0.944 . S
C3562 C1513 0.950 . S
C3587 C1619 0.943 . S
C3592 C1672 0.951 . S
