# Generated by pormake.
# Topology unh, (4)-cn, num edge types: 1
# Building blocks:
#     Node 0, Type 0, BuildingBlock: QUQFOY_clean_sbu_1, # of connection points: 4
#     Node 1, Type 0, BuildingBlock: QUQFOY_clean_sbu_1, # of connection points: 4
#     Node 2, Type 0, BuildingBlock: QUQFOY_clean_sbu_1, # of connection points: 4
#     Node 3, Type 0, BuildingBlock: QUQFOY_clean_sbu_1, # of connection points: 4
#     Node 4, Type 0, BuildingBlock: QUQFOY_clean_sbu_1, # of connection points: 4
#     Node 5, Type 0, BuildingBlock: QUQFOY_clean_sbu_1, # of connection points: 4
#     Edge 6, Type (0, 0), BuildingBlock: ZUJKAS_clean_linker_0, # of connection points: 2
#     Edge 7, Type (0, 0), BuildingBlock: ZUJKAS_clean_linker_0, # of connection points: 2
#     Edge 8, Type (0, 0), BuildingBlock: ZUJKAS_clean_linker_0, # of connection points: 2
#     Edge 9, Type (0, 0), BuildingBlock: ZUJKAS_clean_linker_0, # of connection points: 2
#     Edge 10, Type (0, 0), BuildingBlock: ZUJKAS_clean_linker_0, # of connection points: 2
#     Edge 11, Type (0, 0), BuildingBlock: ZUJKAS_clean_linker_0, # of connection points: 2
#     Edge 12, Type (0, 0), BuildingBlock: ZUJKAS_clean_linker_0, # of connection points: 2
#     Edge 13, Type (0, 0), BuildingBlock: ZUJKAS_clean_linker_0, # of connection points: 2
#     Edge 14, Type (0, 0), BuildingBlock: ZUJKAS_clean_linker_0, # of connection points: 2
#     Edge 15, Type (0, 0), BuildingBlock: ZUJKAS_clean_linker_0, # of connection points: 2
#     Edge 16, Type (0, 0), BuildingBlock: ZUJKAS_clean_linker_0, # of connection points: 2
#     Edge 17, Type (0, 0), BuildingBlock: ZUJKAS_clean_linker_0, # of connection points: 2
# Relax obj value: 0.055
# Max RMSD: 0.146
# Mean RMSD: 0.146
data_MOF--net-unh--node1-QUQFOY_clean_sbu_1--edge1-ZUJKAS_clean_linker_0
_symmetry_space_group_name_H-M    P1
_symmetry_Int_Tables_number       1
_symmetry_cell_setting            triclinic
loop_
_symmetry_equiv_pos_as_xyz
'x, y, z'
_cell_length_a     56.587291
_cell_length_b     56.609337
_cell_length_c     29.423459
_cell_angle_alpha  89.97519
_cell_angle_beta   90.048984
_cell_angle_gamma 119.98423
loop_
_atom_site_label
_atom_site_type_symbol
_atom_site_fract_x
_atom_site_fract_y
_atom_site_fract_z
_atom_type_partial_charge
O0 O 0.09119 0.56362 0.02856 0.0
Cd1 Cd 0.11851 0.58872 0.07687 0.0
Cd2 Cd 0.14512 0.56203 0.05295 0.0
O3 O 0.10956 0.5377 0.01689 0.0
O4 O 0.09864 0.59888 0.12188 0.0
O5 O 0.11493 0.57133 0.13724 0.0
C6 C 0.10129 0.58284 0.15005 0.0
C7 C 0.16469 0.54408 0.10187 0.0
C8 C 0.09056 0.54309 0.00974 0.0
C9 C 0.17259 0.62252 0.0333 0.0
O10 O 0.1722 0.60009 0.02733 0.0
O11 O 0.15346 0.62309 0.05499 0.0
O12 O 0.16671 0.54294 0.05835 0.0
O13 O 0.15034 0.55421 0.11751 0.0
O14 O 0.53119 0.08781 0.19862 0.0
Cd15 Cd 0.53337 0.11657 0.24416 0.0
Cd16 Cd 0.58582 0.14236 0.21809 0.0
O17 O 0.5753 0.10601 0.18591 0.0
O18 O 0.50151 0.0969 0.28577 0.0
O19 O 0.54443 0.11429 0.30788 0.0
C20 C 0.51875 0.10043 0.31748 0.0
C21 C 0.62238 0.16288 0.26861 0.0
C22 C 0.55094 0.08671 0.18021 0.0
C23 C 0.55272 0.16887 0.19428 0.0
O24 O 0.57452 0.16807 0.18762 0.0
O25 O 0.53382 0.15093 0.21898 0.0
O26 O 0.62633 0.16356 0.22532 0.0
O27 O 0.59757 0.14958 0.28327 0.0
O28 O 0.43788 0.52604 0.36607 0.0
Cd29 Cd 0.41134 0.52747 0.41258 0.0
Cd30 Cd 0.43721 0.58015 0.38909 0.0
O31 O 0.46372 0.57047 0.35702 0.0
O32 O 0.40073 0.49647 0.45553 0.0
O33 O 0.42566 0.53987 0.47541 0.0
C34 C 0.41466 0.51441 0.48621 0.0
C35 C 0.45311 0.61767 0.43758 0.0
C36 C 0.4589 0.54636 0.34923 0.0
C37 C 0.37773 0.54627 0.36407 0.0
O38 O 0.40018 0.56834 0.35819 0.0
O39 O 0.37694 0.52724 0.3882 0.0
O40 O 0.45601 0.62074 0.39412 0.0
O41 O 0.44197 0.5932 0.45366 0.0
O42 O 0.91032 0.44476 0.53 0.0
Cd43 Cd 0.8834 0.41565 0.5747 0.0
Cd44 Cd 0.85224 0.43768 0.55038 0.0
O45 O 0.88522 0.46303 0.51024 0.0
O46 O 0.90603 0.40716 0.61633 0.0
O47 O 0.88345 0.42772 0.63853 0.0
C48 C 0.90007 0.41904 0.6481 0.0
C49 C 0.83246 0.45465 0.60055 0.0
C50 C 0.90715 0.4621 0.50739 0.0
C51 C 0.83002 0.37785 0.53055 0.0
O52 O 0.82698 0.39858 0.52774 0.0
O53 O 0.85128 0.3798 0.54898 0.0
O54 O 0.82833 0.45403 0.55732 0.0
O55 O 0.84885 0.44666 0.61511 0.0
O56 O 0.47313 0.91329 0.69569 0.0
Cd57 Cd 0.47373 0.8855 0.74017 0.0
Cd58 Cd 0.41986 0.85729 0.71998 0.0
O59 O 0.4285 0.89297 0.68674 0.0
O60 O 0.50455 0.90623 0.78349 0.0
O61 O 0.46099 0.88532 0.80336 0.0
C62 C 0.4863 0.90063 0.81441 0.0
C63 C 0.38346 0.83592 0.77074 0.0
C64 C 0.45224 0.91302 0.67914 0.0
C65 C 0.4546 0.83274 0.6925 0.0
O66 O 0.43174 0.8319 0.68993 0.0
O67 O 0.47451 0.85217 0.71341 0.0
O68 O 0.37936 0.83493 0.72747 0.0
O69 O 0.40823 0.85001 0.78524 0.0
O70 O 0.55973 0.47062 0.86582 0.0
Cd71 Cd 0.58658 0.47003 0.91278 0.0
Cd72 Cd 0.56165 0.41733 0.88884 0.0
O73 O 0.53486 0.42617 0.85546 0.0
O74 O 0.59649 0.50097 0.95554 0.0
O75 O 0.5724 0.45753 0.9756 0.0
C76 C 0.58292 0.48295 0.98631 0.0
C77 C 0.54677 0.38028 0.93811 0.0
C78 C 0.53919 0.45016 0.84811 0.0
C79 C 0.62133 0.45236 0.86541 0.0
O80 O 0.59918 0.43005 0.85932 0.0
O81 O 0.62156 0.47124 0.88912 0.0
O82 O 0.54458 0.37689 0.89464 0.0
O83 O 0.55632 0.4047 0.95367 0.0
H84 H 0.04449 0.54589 0.99372 0.0
H85 H 0.00824 0.51954 0.93914 0.0
H86 H 0.04892 0.47556 0.89945 0.0
H87 H 0.08517 0.50154 0.95468 0.0
H88 H 0.01547 0.5196 0.84733 0.0
H89 H 0.97021 0.41423 0.9147 0.0
H90 H 0.99238 0.44391 0.94821 0.0
H91 H 0.0065 0.43114 0.90672 0.0
C92 C 0.04564 0.53041 0.97379 0.0
C93 C 0.06781 0.52589 0.9785 0.0
C94 C 0.02485 0.51533 0.94265 0.0
C95 C 0.0257 0.49537 0.91562 0.0
C96 C 0.04754 0.49045 0.92068 0.0
H97 H 0.93876 0.40672 0.67597 0.0
H98 H 0.96717 0.42332 0.74418 0.0
C99 C 0.06835 0.50546 0.95204 0.0
C100 C 0.0049 0.48145 0.87966 0.0
H101 H 0.95614 0.41904 0.84051 0.0
C102 C 0.00233 0.49763 0.84608 0.0
C103 C 0.98793 0.45277 0.87797 0.0
C104 C 0.98915 0.43446 0.91403 0.0
C105 C 0.98358 0.48594 0.81039 0.0
C106 C 0.96658 0.45727 0.80866 0.0
C107 C 0.96911 0.44102 0.84217 0.0
C108 C 0.94682 0.444 0.77117 0.0
C109 C 0.98264 0.50433 0.77413 0.0
C110 C 0.92529 0.44924 0.76476 0.0
C111 C 0.90905 0.43986 0.72577 0.0
C112 C 0.91403 0.42497 0.69266 0.0
C113 C 0.93448 0.41825 0.70071 0.0
C114 C 0.95072 0.42768 0.73968 0.0
H115 H 0.00104 0.52498 0.7749 0.0
H116 H 0.98088 0.49545 0.7398 0.0
H117 H 0.96451 0.50665 0.77971 0.0
H118 H 0.92168 0.46143 0.78913 0.0
H119 H 0.89335 0.44523 0.72076 0.0
H120 H 0.45269 0.89219 0.88671 0.0
H121 H 0.46409 0.9188 0.95691 0.0
H122 H 0.54814 0.96531 0.91467 0.0
H123 H 0.53706 0.93856 0.8446 0.0
H124 H 0.5405 0.95234 0.01025 0.0
H125 H 0.47957 0.99811 0.94748 0.0
H126 H 0.46147 0.96152 0.95038 0.0
H127 H 0.48933 0.97873 0.91123 0.0
C128 C 0.47371 0.90775 0.89267 0.0
C129 C 0.49392 0.91351 0.85982 0.0
C130 C 0.48015 0.92299 0.93273 0.0
C131 C 0.50683 0.94434 0.94046 0.0
C132 C 0.52739 0.94898 0.90917 0.0
H133 H 0.58691 0.08038 0.12634 0.0
H134 H 0.5764 0.04381 0.07186 0.0
C135 C 0.521 0.93369 0.86913 0.0
C136 C 0.51284 0.96326 0.9791 0.0
H137 H 0.49888 0.01127 0.0204 0.0
C138 C 0.53138 0.9652 0.01266 0.0
C139 C 0.50101 0.98009 0.98187 0.0
C140 C 0.48192 0.97979 0.94568 0.0
C141 C 0.53813 0.98336 0.04937 0.0
C142 C 0.52636 1.00026 0.05197 0.0
C143 C 0.50775 0.99817 0.01847 0.0
C144 C 0.53339 0.02085 0.08831 0.0
C145 C 0.55749 0.98403 0.08529 0.0
C146 C 0.5127 0.0202 0.11543 0.0
C147 C 0.51857 0.0412 0.1462 0.0
C148 C 0.54528 0.06337 0.15038 0.0
C149 C 0.56615 0.06358 0.1241 0.0
C150 C 0.56021 0.04257 0.09315 0.0
H151 H 0.55853 0.96495 0.08543 0.0
H152 H 0.57827 0.00126 0.07823 0.0
H153 H 0.55131 0.98708 0.11962 0.0
H154 H 0.49184 0.00368 0.11206 0.0
H155 H 0.50201 0.04032 0.16601 0.0
H156 H 0.50533 0.58477 0.30635 0.0
H157 H 0.53312 0.57691 0.25145 0.0
H158 H 0.48139 0.49004 0.26763 0.0
H159 H 0.45368 0.49761 0.32297 0.0
H160 H 0.53826 0.50785 0.26388 0.0
H161 H 0.50472 0.54941 0.12222 0.0
H162 H 0.5198 0.57179 0.16999 0.0
H163 H 0.48786 0.54066 0.17671 0.0
C164 C 0.49996 0.56398 0.29854 0.0
C165 C 0.47708 0.54182 0.31872 0.0
C166 C 0.51583 0.55954 0.26705 0.0
C167 C 0.50903 0.5329 0.25501 0.0
C168 C 0.4869 0.51076 0.27639 0.0
H169 H 0.55083 0.44983 0.05481 0.0
H170 H 0.53675 0.46351 0.12372 0.0
C171 C 0.47105 0.51516 0.30791 0.0
C172 C 0.52404 0.52795 0.21852 0.0
H173 H 0.5361 0.5351 0.10436 0.0
C174 C 0.53795 0.51391 0.22901 0.0
C175 C 0.52353 0.53588 0.17311 0.0
C176 C 0.50802 0.55008 0.15954 0.0
C177 C 0.55138 0.50755 0.19516 0.0
C178 C 0.55041 0.51503 0.14961 0.0
C179 C 0.53693 0.52951 0.13935 0.0
C180 C 0.56185 0.50686 0.11139 0.0
C181 C 0.56655 0.493 0.20849 0.0
C182 C 0.58068 0.52666 0.08155 0.0
C183 C 0.58857 0.5189 0.04188 0.0
C184 C 0.57766 0.49115 0.03121 0.0
C185 C 0.5597 0.47137 0.06212 0.0
C186 C 0.55175 0.47916 0.10172 0.0
H187 H 0.57248 0.49628 0.24494 0.0
H188 H 0.55312 0.47077 0.20308 0.0
H189 H 0.5852 0.49996 0.18757 0.0
H190 H 0.58862 0.54815 0.08826 0.0
H191 H 0.60247 0.53464 0.01882 0.0
H192 H 0.90182 0.4693 0.41775 0.0
H193 H 0.93849 0.49479 0.36305 0.0
H194 H 0.9974 0.52296 0.47232 0.0
H195 H 0.96087 0.49538 0.52625 0.0
H196 H 0.97311 0.54356 0.34692 0.0
H197 H 0.03238 0.4936 0.39436 0.0
H198 H 0.99911 0.48284 0.41752 0.0
H199 H 0.02892 0.51185 0.44114 0.0
C200 C 0.92264 0.48102 0.42988 0.0
C201 C 0.92873 0.48027 0.47584 0.0
C202 C 0.94361 0.49561 0.39872 0.0
C203 C 0.97096 0.51026 0.4132 0.0
C204 C 0.97672 0.51094 0.45984 0.0
H205 H 0.08939 0.6147 0.20441 0.0
H206 H 0.06103 0.60049 0.27302 0.0
C207 C 0.95585 0.49549 0.49074 0.0
C208 C 0.99321 0.5242 0.37917 0.0
H209 H 0.05316 0.53012 0.34234 0.0
C210 C 0.99056 0.5405 0.34583 0.0
C211 C 0.01593 0.52006 0.37731 0.0
C212 C 0.01913 0.50092 0.40919 0.0
C213 C 0.00933 0.552 0.31003 0.0
C214 C 0.03247 0.54854 0.30897 0.0
C215 C 0.0356 0.53301 0.34321 0.0
C216 C 0.05235 0.55861 0.2707 0.0
C217 C 0.00316 0.56639 0.27259 0.0
C218 C 0.05871 0.54051 0.24846 0.0
C219 C 0.07593 0.54899 0.21073 0.0
C220 C 0.08663 0.57555 0.19373 0.0
C221 C 0.08111 0.59401 0.21667 0.0
C222 C 0.06461 0.58577 0.25549 0.0
H223 H 0.98117 0.56016 0.2717 0.0
H224 H 0.01484 0.58872 0.27866 0.0
H225 H 0.00887 0.56209 0.23879 0.0
H226 H 0.04968 0.51949 0.25941 0.0
H227 H 0.07974 0.53431 0.19349 0.0
H228 H 0.54984 0.09943 0.38783 0.0
H229 H 0.53383 0.07096 0.456 0.0
H230 H 0.45043 0.04222 0.4164 0.0
H231 H 0.46621 0.07029 0.34775 0.0
H232 H 0.49851 0.06555 0.52962 0.0
H233 H 0.45614 0.97257 0.42141 0.0
H234 H 0.47902 0.00619 0.39944 0.0
H235 H 0.44376 0.99558 0.40924 0.0
C236 C 0.52809 0.08738 0.39393 0.0
C237 C 0.50928 0.08682 0.36207 0.0
C238 C 0.51898 0.07115 0.43294 0.0
C239 C 0.49096 0.05412 0.44072 0.0
C240 C 0.47215 0.05485 0.41052 0.0
H241 H 0.41301 0.91767 0.63162 0.0
H242 H 0.41991 0.95359 0.57783 0.0
C243 C 0.48122 0.07099 0.37142 0.0
C244 C 0.48163 0.03417 0.4785 0.0
H245 H 0.45131 0.96594 0.50035 0.0
C246 C 0.48801 0.04376 0.52333 0.0
C247 C 0.46792 0.00575 0.4701 0.0
C248 C 0.46145 0.99429 0.42248 0.0
C249 C 0.48127 0.02564 0.56005 0.0
C250 C 0.46825 0.99728 0.5515 0.0
C251 C 0.46119 0.98769 0.5068 0.0
C252 C 0.46361 0.97721 0.58773 0.0
C253 C 0.48819 0.03701 0.60763 0.0
C254 C 0.48588 0.97863 0.61115 0.0
C255 C 0.48204 0.95816 0.64176 0.0
C256 C 0.45584 0.93571 0.64936 0.0
C257 C 0.43345 0.93466 0.62661 0.0
C258 C 0.43734 0.95517 0.59589 0.0
H259 H 0.48998 0.05744 0.60973 0.0
H260 H 0.47255 0.02319 0.63235 0.0
H261 H 0.50813 0.03928 0.61767 0.0
H262 H 0.5064 0.9951 0.6046 0.0
H263 H 0.49975 0.95963 0.65862 0.0
H264 H 0.49349 0.41156 0.80358 0.0
H265 H 0.46558 0.41929 0.74859 0.0
H266 H 0.51589 0.50615 0.76723 0.0
H267 H 0.54365 0.4987 0.82267 0.0
H268 H 0.45944 0.48799 0.76294 0.0
H269 H 0.49342 0.44778 0.62008 0.0
H270 H 0.47829 0.42491 0.66723 0.0
H271 H 0.51014 0.45605 0.67472 0.0
C272 C 0.49853 0.43231 0.79624 0.0
C273 C 0.521 0.45452 0.81722 0.0
C274 C 0.4826 0.43668 0.76469 0.0
C275 C 0.48896 0.4633 0.75333 0.0
C276 C 0.51071 0.48544 0.77542 0.0
H277 H 0.44694 0.54722 0.55492 0.0
H278 H 0.4611 0.53319 0.62343 0.0
C279 C 0.5266 0.48112 0.80702 0.0
C280 C 0.47381 0.46829 0.71704 0.0
H281 H 0.46175 0.46184 0.60282 0.0
C282 C 0.45978 0.48216 0.72794 0.0
C283 C 0.47436 0.46068 0.67144 0.0
C284 C 0.49002 0.44674 0.65739 0.0
C285 C 0.44633 0.48869 0.69433 0.0
C286 C 0.44733 0.48153 0.64862 0.0
C287 C 0.46089 0.46719 0.63794 0.0
C288 C 0.43584 0.4899 0.61069 0.0
C289 C 0.4311 0.50311 0.70807 0.0
C290 C 0.41688 0.47026 0.58078 0.0
C291 C 0.4089 0.47822 0.54138 0.0
C292 C 0.41989 0.50602 0.53101 0.0
C293 C 0.43801 0.52565 0.562 0.0
C294 C 0.446 0.51766 0.60137 0.0
H295 H 0.42528 0.49971 0.74454 0.0
H296 H 0.44445 0.52537 0.70279 0.0
H297 H 0.41239 0.49615 0.68728 0.0
H298 H 0.40889 0.44874 0.58724 0.0
H299 H 0.39491 0.46258 0.51825 0.0
H300 H 0.16171 0.54017 0.19468 0.0
H301 H 0.19252 0.53426 0.24583 0.0
H302 H 0.23492 0.52634 0.13029 0.0
H303 H 0.20375 0.53136 0.07905 0.0
H304 H 0.23033 0.49194 0.19872 0.0
H305 H 0.26923 0.59682 0.26537 0.0
H306 H 0.23332 0.57439 0.27342 0.0
H307 H 0.24685 0.58391 0.21686 0.0
C308 C 0.17733 0.53674 0.18019 0.0
C309 C 0.1805 0.53655 0.13281 0.0
C310 C 0.19503 0.53354 0.20946 0.0
C311 C 0.21646 0.53057 0.19187 0.0
C312 C 0.21864 0.52879 0.14463 0.0
H313 H 0.37393 0.57955 0.30104 0.0
H314 H 0.33318 0.57347 0.26235 0.0
C315 C 0.2008 0.53168 0.11537 0.0
C316 C 0.23772 0.53108 0.22213 0.0
H317 H 0.28825 0.57175 0.29635 0.0
C318 C 0.2429 0.50929 0.22034 0.0
C319 C 0.25433 0.55393 0.24982 0.0
C320 C 0.2509 0.57872 0.25131 0.0
C321 C 0.26454 0.50992 0.24486 0.0
C322 C 0.28104 0.53272 0.27271 0.0
C323 C 0.27546 0.55422 0.27522 0.0
C324 C 0.3055 0.53582 0.29676 0.0
C325 C 0.27025 0.48675 0.23914 0.0
C326 C 0.30352 0.51678 0.32936 0.0
C327 C 0.32694 0.52008 0.35139 0.0
C328 C 0.35269 0.5427 0.34161 0.0
C329 C 0.35446 0.56192 0.30949 0.0
C330 C 0.33115 0.55848 0.28731 0.0
H331 H 0.25992 0.47421 0.20865 0.0
H332 H 0.2925 0.49452 0.23616 0.0
H333 H 0.2626 0.47326 0.26937 0.0
H334 H 0.28387 0.49947 0.33797 0.0
H335 H 0.32484 0.50501 0.37619 0.0
H336 H 0.62001 0.17388 0.35843 0.0
H337 H 0.65772 0.20617 0.40642 0.0
H338 H 0.71454 0.2199 0.29821 0.0
H339 H 0.6769 0.1882 0.24959 0.0
H340 H 0.70697 0.21184 0.43778 0.0
H341 H 0.72408 0.29534 0.31913 0.0
H342 H 0.69448 0.26174 0.31554 0.0
H343 H 0.72672 0.26802 0.29336 0.0
C344 C 0.64058 0.18347 0.34505 0.0
C345 C 0.64543 0.17882 0.29997 0.0
C346 C 0.66211 0.20188 0.37256 0.0
C347 C 0.68884 0.21585 0.35552 0.0
C348 C 0.69398 0.20979 0.31165 0.0
H349 H 0.83327 0.33191 0.51213 0.0
H350 H 0.79956 0.29084 0.47176 0.0
C351 C 0.67245 0.19159 0.28398 0.0
C352 C 0.71081 0.23831 0.38224 0.0
H353 H 0.75414 0.30714 0.38121 0.0
C354 C 0.71742 0.23268 0.42543 0.0
C355 C 0.7241 0.26553 0.36623 0.0
C356 C 0.71688 0.27316 0.32124 0.0
C357 C 0.73691 0.25363 0.45314 0.0
C358 C 0.75033 0.28077 0.43685 0.0
C359 C 0.74391 0.28628 0.3935 0.0
C360 C 0.76996 0.30421 0.46486 0.0
C361 C 0.74233 0.2467 0.50009 0.0
C362 C 0.76453 0.32532 0.47429 0.0
C363 C 0.78377 0.34881 0.49677 0.0
C364 C 0.80892 0.35175 0.51042 0.0
C365 C 0.81404 0.33021 0.50225 0.0
C366 C 0.79475 0.30668 0.47938 0.0
H367 H 0.72616 0.22613 0.51115 0.0
H368 H 0.76206 0.24696 0.50005 0.0
H369 H 0.74377 0.26197 0.52529 0.0
H370 H 0.74553 0.32383 0.46344 0.0
H371 H 0.77905 0.36488 0.50273 0.0
H372 H 0.50194 0.83153 0.67821 0.0
H373 H 0.50727 0.79704 0.63633 0.0
H374 H 0.4203 0.7507 0.6148 0.0
H375 H 0.41482 0.78514 0.65557 0.0
H376 H 0.48615 0.74169 0.64968 0.0
H377 H 0.44995 0.7607 0.4863 0.0
H378 H 0.45873 0.78345 0.53424 0.0
H379 H 0.42585 0.75293 0.53141 0.0
C380 C 0.48395 0.81396 0.66464 0.0
C381 C 0.45799 0.81126 0.66979 0.0
C382 C 0.48704 0.79428 0.64075 0.0
C383 C 0.46425 0.77162 0.62164 0.0
C384 C 0.43825 0.76839 0.62824 0.0
H385 H 0.43914 0.61717 0.52663 0.0
H386 H 0.4459 0.65605 0.57242 0.0
C387 C 0.43515 0.78806 0.65177 0.0
C388 C 0.46746 0.75136 0.59441 0.0
H389 H 0.45196 0.71964 0.49126 0.0
C390 C 0.47895 0.73702 0.61487 0.0
C391 C 0.45858 0.74569 0.54871 0.0
C392 C 0.44786 0.76171 0.5237 0.0
C393 C 0.48077 0.71636 0.59139 0.0
C394 C 0.47029 0.70954 0.54663 0.0
C395 C 0.45977 0.72464 0.5257 0.0
C396 C 0.46906 0.68632 0.52109 0.0
C397 C 0.49403 0.70221 0.6147 0.0
C398 C 0.47966 0.69027 0.47684 0.0
C399 C 0.47539 0.66802 0.45029 0.0
C400 C 0.46052 0.64135 0.46755 0.0
C401 C 0.45087 0.63749 0.51249 0.0
C402 C 0.45489 0.65975 0.53886 0.0
H403 H 0.50874 0.71544 0.64112 0.0
H404 H 0.47808 0.68354 0.63179 0.0
H405 H 0.50492 0.6962 0.59002 0.0
H406 H 0.4906 0.71057 0.46235 0.0
H407 H 0.48315 0.67167 0.41583 0.0
H408 H 0.67384 0.49451 0.87767 0.0
H409 H 0.71533 0.50055 0.8407 0.0
H410 H 0.66747 0.42554 0.76673 0.0
H411 H 0.62625 0.41899 0.80412 0.0
H412 H 0.7131 0.42893 0.80255 0.0
H413 H 0.73872 0.5246 0.71047 0.0
H414 H 0.73587 0.52594 0.77109 0.0
H415 H 0.70623 0.50389 0.73793 0.0
C416 C 0.67218 0.47931 0.85351 0.0
C417 C 0.6467 0.4563 0.84377 0.0
C418 C 0.69589 0.48289 0.83223 0.0
C419 C 0.69444 0.4637 0.80046 0.0
C420 C 0.66907 0.44064 0.79109 0.0
H421 H 0.79166 0.46531 0.58036 0.0
H422 H 0.76173 0.47085 0.63352 0.0
C423 C 0.64549 0.43694 0.81251 0.0
C424 C 0.71913 0.46714 0.77684 0.0
H425 H 0.76831 0.50705 0.70012 0.0
C426 C 0.72536 0.44613 0.78045 0.0
C427 C 0.73493 0.48953 0.74782 0.0
C428 C 0.72856 0.5122 0.74115 0.0
C429 C 0.74632 0.44635 0.75469 0.0
C430 C 0.76204 0.46865 0.72542 0.0
C431 C 0.75639 0.49012 0.72288 0.0
C432 C 0.78248 0.46866 0.69384 0.0
C433 C 0.7504 0.42198 0.75731 0.0
C434 C 0.80471 0.46655 0.71002 0.0
C435 C 0.82174 0.46307 0.67962 0.0
C436 C 0.81703 0.46204 0.63253 0.0
C437 C 0.7958 0.4659 0.61642 0.0
C438 C 0.77868 0.46912 0.64679 0.0
H439 H 0.73276 0.40413 0.77341 0.0
H440 H 0.75351 0.41591 0.72294 0.0
H441 H 0.76879 0.42731 0.77804 0.0
H442 H 0.80842 0.46682 0.74617 0.0
H443 H 0.83809 0.46041 0.69308 0.0
H444 H 0.38678 0.82442 0.85991 0.0
H445 H 0.3497 0.79162 0.90824 0.0
H446 H 0.2917 0.77793 0.80191 0.0
H447 H 0.32877 0.81004 0.75281 0.0
H448 H 0.30208 0.7858 0.94226 0.0
H449 H 0.28075 0.70234 0.82101 0.0
H450 H 0.3104 0.73582 0.81616 0.0
H451 H 0.27772 0.72969 0.79632 0.0
C452 C 0.36609 0.81468 0.847 0.0
C453 C 0.36073 0.81949 0.8023 0.0
C454 C 0.34491 0.79595 0.87469 0.0
C455 C 0.31803 0.78184 0.85827 0.0
C456 C 0.3124 0.78804 0.8148 0.0
H457 H 0.17452 0.67139 0.01941 0.0
H458 H 0.20987 0.71136 0.97923 0.0
C459 C 0.33359 0.80651 0.78689 0.0
C460 C 0.29631 0.75946 0.88548 0.0
H461 H 0.2509 0.69109 0.88351 0.0
C462 C 0.29083 0.76508 0.92948 0.0
C463 C 0.28202 0.73235 0.86899 0.0
C464 C 0.28815 0.72456 0.82324 0.0
C465 C 0.27136 0.74431 0.9574 0.0
C466 C 0.25662 0.71734 0.94041 0.0
C467 C 0.2621 0.7118 0.8964 0.0
C468 C 0.23604 0.69418 0.96789 0.0
C469 C 0.26735 0.75129 0.00519 0.0
C470 C 0.23882 0.67114 0.97451 0.0
C471 C 0.2185 0.64817 0.99673 0.0
C472 C 0.19496 0.64777 0.01304 0.0
C473 C 0.19251 0.67114 0.00754 0.0
C474 C 0.21278 0.69407 0.9848 0.0
H475 H 0.28507 0.77077 0.0169 0.0
H476 H 0.24902 0.75363 0.00617 0.0
H477 H 0.26418 0.73489 0.02935 0.0
H478 H 0.25659 0.67075 0.96175 0.0
H479 H 0.22111 0.63057 0.00058 0.0
H480 H 0.54597 0.37976 0.03122 0.0
H481 H 0.54164 0.34324 0.08133 0.0
H482 H 0.5308 0.29275 0.96457 0.0
H483 H 0.53426 0.32871 0.91445 0.0
H484 H 0.49773 0.26321 0.03421 0.0
H485 H 0.60405 0.32828 0.09573 0.0
H486 H 0.58207 0.34209 0.106 0.0
H487 H 0.59035 0.338 0.04861 0.0
C488 C 0.54229 0.36073 0.01628 0.0
C489 C 0.54075 0.35723 0.96884 0.0
C490 C 0.54001 0.33996 0.04494 0.0
C491 C 0.53657 0.31553 0.02663 0.0
C492 C 0.53361 0.31149 0.97944 0.0
H493 H 0.58547 0.20543 0.13018 0.0
H494 H 0.57955 0.24046 0.09241 0.0
C495 C 0.53563 0.3321 0.95082 0.0
C496 C 0.53747 0.29466 0.056 0.0
H497 H 0.57915 0.28424 0.12703 0.0
C498 C 0.51545 0.2678 0.05476 0.0
C499 C 0.56078 0.30065 0.08227 0.0
C500 C 0.58577 0.32873 0.08304 0.0
C501 C 0.51627 0.24667 0.07849 0.0
C502 C 0.5395 0.25273 0.10503 0.0
C503 C 0.56128 0.27968 0.10692 0.0
C504 C 0.5426 0.23123 0.12853 0.0
C505 C 0.49276 0.21792 0.07335 0.0
C506 C 0.52392 0.21449 0.16178 0.0
C507 C 0.52712 0.19417 0.18325 0.0
C508 C 0.54929 0.19052 0.17228 0.0
C509 C 0.56818 0.20767 0.13952 0.0
C510 C 0.56484 0.22775 0.11788 0.0
H511 H 0.47985 0.21582 0.04343 0.0
H512 H 0.5002 0.20321 0.06973 0.0
H513 H 0.47971 0.21231 0.10409 0.0
H514 H 0.50696 0.21721 0.17132 0.0
H515 H 0.51232 0.18146 0.20858 0.0
loop_
_geom_bond_atom_site_label_1
_geom_bond_atom_site_label_2
_geom_bond_distance
_geom_bond_site_symmetry_2
_ccdc_geom_bond_type
O0 Cd1 2.223 . S
O0 C8 1.315 . S
Cd1 O0 2.223 . S
Cd1 O4 2.297 . S
Cd1 O5 2.439 . S
Cd1 O11 2.240 . S
Cd2 O3 2.240 . S
Cd2 O10 2.223 . S
Cd2 O12 2.297 . S
Cd2 O13 2.439 . S
O3 Cd2 2.240 . S
O3 C8 1.279 . S
O4 Cd1 2.297 . S
O4 C6 1.247 . S
O5 Cd1 2.439 . S
O5 C6 1.208 . S
C6 O4 1.247 . S
C6 O5 1.208 . S
C7 O12 1.247 . S
C7 O13 1.208 . S
C8 O0 1.315 . S
C8 O3 1.279 . S
C9 O10 1.315 . S
C9 O11 1.279 . S
O10 Cd2 2.223 . S
O10 C9 1.315 . S
O11 Cd1 2.240 . S
O11 C9 1.279 . S
O12 Cd2 2.297 . S
O12 C7 1.247 . S
O13 Cd2 2.439 . S
O13 C7 1.208 . S
O14 Cd15 2.223 . S
O14 C22 1.315 . S
Cd15 O14 2.223 . S
Cd15 O18 2.297 . S
Cd15 O19 2.439 . S
Cd15 O25 2.240 . S
Cd16 O17 2.240 . S
Cd16 O24 2.223 . S
Cd16 O26 2.297 . S
Cd16 O27 2.439 . S
O17 Cd16 2.240 . S
O17 C22 1.279 . S
O18 Cd15 2.297 . S
O18 C20 1.247 . S
O19 Cd15 2.439 . S
O19 C20 1.208 . S
C20 O18 1.247 . S
C20 O19 1.208 . S
C21 O26 1.247 . S
C21 O27 1.208 . S
C22 O14 1.315 . S
C22 O17 1.279 . S
C23 O24 1.315 . S
C23 O25 1.279 . S
O24 Cd16 2.223 . S
O24 C23 1.315 . S
O25 Cd15 2.240 . S
O25 C23 1.279 . S
O26 Cd16 2.297 . S
O26 C21 1.247 . S
O27 Cd16 2.439 . S
O27 C21 1.208 . S
O28 Cd29 2.223 . S
O28 C36 1.315 . S
Cd29 O28 2.223 . S
Cd29 O32 2.297 . S
Cd29 O33 2.439 . S
Cd29 O39 2.240 . S
Cd30 O31 2.240 . S
Cd30 O38 2.223 . S
Cd30 O40 2.297 . S
Cd30 O41 2.439 . S
O31 Cd30 2.240 . S
O31 C36 1.279 . S
O32 Cd29 2.297 . S
O32 C34 1.247 . S
O33 Cd29 2.439 . S
O33 C34 1.208 . S
C34 O32 1.247 . S
C34 O33 1.208 . S
C35 O40 1.247 . S
C35 O41 1.208 . S
C36 O28 1.315 . S
C36 O31 1.279 . S
C37 O38 1.315 . S
C37 O39 1.279 . S
O38 Cd30 2.223 . S
O38 C37 1.315 . S
O39 Cd29 2.240 . S
O39 C37 1.279 . S
O40 Cd30 2.297 . S
O40 C35 1.247 . S
O41 Cd30 2.439 . S
O41 C35 1.208 . S
O42 Cd43 2.223 . S
O42 C50 1.315 . S
Cd43 O42 2.223 . S
Cd43 O46 2.297 . S
Cd43 O47 2.439 . S
Cd43 O53 2.240 . S
Cd44 O45 2.240 . S
Cd44 O52 2.223 . S
Cd44 O54 2.297 . S
Cd44 O55 2.439 . S
O45 Cd44 2.240 . S
O45 C50 1.279 . S
O46 Cd43 2.297 . S
O46 C48 1.247 . S
O47 Cd43 2.439 . S
O47 C48 1.208 . S
C48 O46 1.247 . S
C48 O47 1.208 . S
C49 O54 1.247 . S
C49 O55 1.208 . S
C50 O42 1.315 . S
C50 O45 1.279 . S
C51 O52 1.315 . S
C51 O53 1.279 . S
O52 Cd44 2.223 . S
O52 C51 1.315 . S
O53 Cd43 2.240 . S
O53 C51 1.279 . S
O54 Cd44 2.297 . S
O54 C49 1.247 . S
O55 Cd44 2.439 . S
O55 C49 1.208 . S
O56 Cd57 2.223 . S
O56 C64 1.315 . S
Cd57 O56 2.223 . S
Cd57 O60 2.297 . S
Cd57 O61 2.439 . S
Cd57 O67 2.240 . S
Cd58 O59 2.240 . S
Cd58 O66 2.223 . S
Cd58 O68 2.297 . S
Cd58 O69 2.439 . S
O59 Cd58 2.240 . S
O59 C64 1.279 . S
O60 Cd57 2.297 . S
O60 C62 1.247 . S
O61 Cd57 2.439 . S
O61 C62 1.208 . S
C62 O60 1.247 . S
C62 O61 1.208 . S
C63 O68 1.247 . S
C63 O69 1.208 . S
C64 O56 1.315 . S
C64 O59 1.279 . S
C65 O66 1.315 . S
C65 O67 1.279 . S
O66 Cd58 2.223 . S
O66 C65 1.315 . S
O67 Cd57 2.240 . S
O67 C65 1.279 . S
O68 Cd58 2.297 . S
O68 C63 1.247 . S
O69 Cd58 2.439 . S
O69 C63 1.208 . S
O70 Cd71 2.223 . S
O70 C78 1.315 . S
Cd71 O70 2.223 . S
Cd71 O74 2.297 . S
Cd71 O75 2.439 . S
Cd71 O81 2.240 . S
Cd72 O73 2.240 . S
Cd72 O80 2.223 . S
Cd72 O82 2.297 . S
Cd72 O83 2.439 . S
O73 Cd72 2.240 . S
O73 C78 1.279 . S
O74 Cd71 2.297 . S
O74 C76 1.247 . S
O75 Cd71 2.439 . S
O75 C76 1.208 . S
C76 O74 1.247 . S
C76 O75 1.208 . S
C77 O82 1.247 . S
C77 O83 1.208 . S
C78 O70 1.315 . S
C78 O73 1.279 . S
C79 O80 1.315 . S
C79 O81 1.279 . S
O80 Cd72 2.223 . S
O80 C79 1.315 . S
O81 Cd71 2.240 . S
O81 C79 1.279 . S
O82 Cd72 2.297 . S
O82 C77 1.247 . S
O83 Cd72 2.439 . S
O83 C77 1.208 . S
H84 C92 0.929 1_554 S
H85 C94 0.930 . S
H86 C96 0.930 . S
H87 C99 0.929 . S
H88 C102 0.930 . S
H89 C104 0.960 . S
H90 C104 0.960 . S
H91 C104 0.960 . S
C92 H84 0.929 1_556 S
C92 C93 1.377 . S
C92 C94 1.384 . S
C93 C92 1.377 . S
C93 C99 1.390 . S
C94 H85 0.930 . S
C94 C92 1.384 . S
C94 C95 1.372 . S
C95 C94 1.372 . S
C95 C96 1.400 . S
C95 C100 1.490 . S
C96 H86 0.930 . S
C96 C95 1.400 . S
C96 C99 1.386 . S
H97 C113 0.930 . S
H98 C114 0.931 . S
C99 H87 0.929 . S
C99 C93 1.390 . S
C99 C96 1.386 . S
C100 C95 1.490 . S
C100 C102 1.395 . S
C100 C103 1.403 . S
H101 C107 0.930 . S
C102 H88 0.930 . S
C102 C100 1.395 . S
C102 C105 1.403 1_455 S
C103 C100 1.403 . S
C103 C104 1.524 . S
C103 C107 1.400 . S
C104 H89 0.960 . S
C104 H90 0.960 . S
C104 H91 0.960 . S
C104 C103 1.524 . S
C105 C102 1.403 1_655 S
C105 C106 1.392 . S
C105 C109 1.495 . S
C106 C105 1.392 . S
C106 C107 1.385 1_655 S
C106 C108 1.478 . S
C107 H101 0.930 . S
C107 C103 1.400 . S
C107 C106 1.385 1_455 S
C108 C106 1.478 . S
C108 C110 1.381 . S
C108 C114 1.383 . S
C109 C105 1.495 . S
C109 H115 0.959 . S
C109 H116 0.961 . S
C109 H117 0.960 . S
C110 C108 1.381 . S
C110 C111 1.394 . S
C110 H118 0.930 . S
C111 C110 1.394 . S
C111 C112 1.383 . S
C111 H119 0.929 . S
C112 C111 1.383 . S
C112 C113 1.377 . S
C113 H97 0.930 . S
C113 C112 1.377 . S
C113 C114 1.379 . S
C114 H98 0.931 . S
C114 C108 1.383 . S
C114 C113 1.379 . S
H115 C109 0.959 . S
H116 C109 0.961 . S
H117 C109 0.960 . S
H118 C110 0.930 . S
H119 C111 0.929 . S
H120 C128 0.929 . S
H121 C130 0.930 . S
H122 C132 0.930 . S
H123 C135 0.929 . S
H124 C138 0.930 . S
H125 C140 0.960 1_554 S
H126 C140 0.960 1_565 S
H127 C140 0.960 . S
C128 H120 0.929 . S
C128 C129 1.377 . S
C128 C130 1.384 . S
C129 C128 1.377 . S
C129 C135 1.390 . S
C130 H121 0.930 . S
C130 C128 1.384 . S
C130 C131 1.372 . S
C131 C130 1.372 . S
C131 C132 1.400 . S
C131 C136 1.490 . S
C132 H122 0.930 . S
C132 C131 1.400 . S
C132 C135 1.386 . S
H133 C149 0.930 . S
H134 C150 0.931 . S
C135 H123 0.929 . S
C135 C129 1.390 . S
C135 C132 1.386 . S
C136 C131 1.490 . S
C136 C138 1.395 . S
C136 C139 1.403 1_565 S
H137 C143 0.930 . S
C138 H124 0.930 . S
C138 C136 1.395 . S
C138 C141 1.403 1_566 S
C139 C136 1.403 1_545 S
C139 C140 1.524 . S
C139 C143 1.400 1_556 S
C140 H125 0.960 1_556 S
C140 H126 0.960 1_545 S
C140 H127 0.960 . S
C140 C139 1.524 . S
C141 C138 1.403 1_544 S
C141 C142 1.392 . S
C141 C145 1.495 . S
C142 C141 1.392 . S
C142 C143 1.385 . S
C142 C144 1.478 . S
C143 H137 0.930 . S
C143 C139 1.400 1_554 S
C143 C142 1.385 . S
C144 C142 1.478 . S
C144 C146 1.381 . S
C144 C150 1.383 . S
C145 C141 1.495 . S
C145 H151 0.959 . S
C145 H152 0.961 . S
C145 H153 0.960 . S
C146 C144 1.381 . S
C146 C147 1.394 . S
C146 H154 0.930 . S
C147 C146 1.394 . S
C147 C148 1.383 . S
C147 H155 0.929 . S
C148 C147 1.383 . S
C148 C149 1.377 . S
C149 H133 0.930 . S
C149 C148 1.377 . S
C149 C150 1.379 . S
C150 H134 0.931 . S
C150 C144 1.383 . S
C150 C149 1.379 . S
H151 C145 0.959 . S
H152 C145 0.961 . S
H153 C145 0.960 . S
H154 C146 0.930 . S
H155 C147 0.929 . S
H156 C164 0.929 . S
H157 C166 0.930 . S
H158 C168 0.930 . S
H159 C171 0.929 . S
H160 C174 0.930 . S
H161 C176 0.960 . S
H162 C176 0.960 . S
H163 C176 0.960 . S
C164 H156 0.929 . S
C164 C165 1.377 . S
C164 C166 1.384 . S
C165 C164 1.377 . S
C165 C171 1.390 . S
C166 H157 0.930 . S
C166 C164 1.384 . S
C166 C167 1.372 . S
C167 C166 1.372 . S
C167 C168 1.400 . S
C167 C172 1.490 . S
C168 H158 0.930 . S
C168 C167 1.400 . S
C168 C171 1.386 . S
H169 C185 0.930 . S
H170 C186 0.931 . S
C171 H159 0.929 . S
C171 C165 1.390 . S
C171 C168 1.386 . S
C172 C167 1.490 . S
C172 C174 1.395 . S
C172 C175 1.403 . S
H173 C179 0.930 . S
C174 H160 0.930 . S
C174 C172 1.395 . S
C174 C177 1.403 . S
C175 C172 1.403 . S
C175 C176 1.524 . S
C175 C179 1.400 . S
C176 H161 0.960 . S
C176 H162 0.960 . S
C176 H163 0.960 . S
C176 C175 1.524 . S
C177 C174 1.403 . S
C177 C178 1.392 . S
C177 C181 1.495 . S
C178 C177 1.392 . S
C178 C179 1.385 . S
C178 C180 1.478 . S
C179 H173 0.930 . S
C179 C175 1.400 . S
C179 C178 1.385 . S
C180 C178 1.478 . S
C180 C182 1.381 . S
C180 C186 1.383 . S
C181 C177 1.495 . S
C181 H187 0.959 . S
C181 H188 0.961 . S
C181 H189 0.960 . S
C182 C180 1.381 . S
C182 C183 1.394 . S
C182 H190 0.930 . S
C183 C182 1.394 . S
C183 C184 1.383 . S
C183 H191 0.929 . S
C184 C183 1.383 . S
C184 C185 1.377 . S
C185 H169 0.930 . S
C185 C184 1.377 . S
C185 C186 1.379 . S
C186 H170 0.931 . S
C186 C180 1.383 . S
C186 C185 1.379 . S
H187 C181 0.959 . S
H188 C181 0.961 . S
H189 C181 0.960 . S
H190 C182 0.930 . S
H191 C183 0.929 . S
H192 C200 0.929 . S
H193 C202 0.930 . S
H194 C204 0.930 . S
H195 C207 0.929 . S
H196 C210 0.930 . S
H197 C212 0.960 1_455 S
H198 C212 0.960 . S
H199 C212 0.960 . S
C200 H192 0.929 . S
C200 C201 1.377 . S
C200 C202 1.384 . S
C201 C200 1.377 . S
C201 C207 1.390 . S
C202 H193 0.930 . S
C202 C200 1.384 . S
C202 C203 1.372 . S
C203 C202 1.372 . S
C203 C204 1.400 . S
C203 C208 1.490 . S
C204 H194 0.930 . S
C204 C203 1.400 . S
C204 C207 1.386 . S
H205 C221 0.930 . S
H206 C222 0.931 . S
C207 H195 0.929 . S
C207 C201 1.390 . S
C207 C204 1.386 . S
C208 C203 1.490 . S
C208 C210 1.395 . S
C208 C211 1.403 . S
H209 C215 0.930 . S
C210 H196 0.930 . S
C210 C208 1.395 . S
C210 C213 1.403 . S
C211 C208 1.403 . S
C211 C212 1.524 . S
C211 C215 1.400 1_655 S
C212 H197 0.960 1_655 S
C212 H198 0.960 . S
C212 H199 0.960 . S
C212 C211 1.524 . S
C213 C210 1.403 . S
C213 C214 1.392 1_655 S
C213 C217 1.495 . S
C214 C213 1.392 1_455 S
C214 C215 1.385 . S
C214 C216 1.478 . S
C215 H209 0.930 . S
C215 C211 1.400 1_455 S
C215 C214 1.385 . S
C216 C214 1.478 . S
C216 C218 1.381 . S
C216 C222 1.383 . S
C217 C213 1.495 . S
C217 H223 0.959 . S
C217 H224 0.961 . S
C217 H225 0.960 . S
C218 C216 1.381 . S
C218 C219 1.394 . S
C218 H226 0.930 1_455 S
C219 C218 1.394 . S
C219 C220 1.383 . S
C219 H227 0.929 . S
C220 C219 1.383 . S
C220 C221 1.377 . S
C221 H205 0.930 . S
C221 C220 1.377 . S
C221 C222 1.379 . S
C222 H206 0.931 . S
C222 C216 1.383 . S
C222 C221 1.379 . S
H223 C217 0.959 . S
H224 C217 0.961 . S
H225 C217 0.960 . S
H226 C218 0.930 1_655 S
H227 C219 0.929 . S
H228 C236 0.929 . S
H229 C238 0.930 . S
H230 C240 0.930 . S
H231 C243 0.929 . S
H232 C246 0.930 . S
H233 C248 0.960 . S
H234 C248 0.960 . S
H235 C248 0.960 . S
C236 H228 0.929 . S
C236 C237 1.377 . S
C236 C238 1.384 . S
C237 C236 1.377 . S
C237 C243 1.390 . S
C238 H229 0.930 . S
C238 C236 1.384 . S
C238 C239 1.372 . S
C239 C238 1.372 . S
C239 C240 1.400 . S
C239 C244 1.490 . S
C240 H230 0.930 . S
C240 C239 1.400 . S
C240 C243 1.386 . S
H241 C257 0.930 . S
H242 C258 0.931 . S
C243 H231 0.929 . S
C243 C237 1.390 . S
C243 C240 1.386 . S
C244 C239 1.490 . S
C244 C246 1.395 . S
C244 C247 1.403 1_545 S
H245 C251 0.930 . S
C246 H232 0.930 . S
C246 C244 1.395 . S
C246 C249 1.417 . S
C247 C244 1.403 1_565 S
C247 C248 1.524 . S
C247 C251 1.400 . S
C248 H233 0.960 . S
C248 H234 0.960 . S
C248 H235 0.960 . S
C248 C247 1.524 . S
C249 C246 1.417 . S
C249 C250 1.356 1_545 S
C249 C253 1.518 . S
C250 C249 1.356 1_565 S
C250 C251 1.385 . S
C250 C252 1.478 . S
C251 H245 0.930 . S
C251 C247 1.400 . S
C251 C250 1.385 . S
C252 C250 1.478 . S
C252 C254 1.381 . S
C252 C258 1.383 . S
C253 C249 1.518 . S
C253 H259 0.959 . S
C253 H260 0.961 . S
C253 H261 0.960 . S
C254 C252 1.381 . S
C254 C255 1.394 . S
C254 H262 0.930 . S
C255 C254 1.394 . S
C255 C256 1.383 . S
C255 H263 0.929 . S
C256 C255 1.383 . S
C256 C257 1.377 . S
C257 H241 0.930 . S
C257 C256 1.377 . S
C257 C258 1.379 . S
C258 H242 0.931 . S
C258 C252 1.383 . S
C258 C257 1.379 . S
H259 C253 0.959 . S
H260 C253 0.961 . S
H261 C253 0.960 . S
H262 C254 0.930 . S
H263 C255 0.929 . S
H264 C272 0.929 . S
H265 C274 0.930 . S
H266 C276 0.930 . S
H267 C279 0.929 . S
H268 C282 0.930 . S
H269 C284 0.960 . S
H270 C284 0.960 . S
H271 C284 0.960 . S
C272 H264 0.929 . S
C272 C273 1.377 . S
C272 C274 1.384 . S
C273 C272 1.377 . S
C273 C279 1.390 . S
C274 H265 0.930 . S
C274 C272 1.384 . S
C274 C275 1.372 . S
C275 C274 1.372 . S
C275 C276 1.400 . S
C275 C280 1.490 . S
C276 H266 0.930 . S
C276 C275 1.400 . S
C276 C279 1.386 . S
H277 C293 0.930 . S
H278 C294 0.931 . S
C279 H267 0.929 . S
C279 C273 1.390 . S
C279 C276 1.386 . S
C280 C275 1.490 . S
C280 C282 1.395 . S
C280 C283 1.403 . S
H281 C287 0.930 . S
C282 H268 0.930 . S
C282 C280 1.395 . S
C282 C285 1.403 . S
C283 C280 1.403 . S
C283 C284 1.524 . S
C283 C287 1.400 . S
C284 H269 0.960 . S
C284 H270 0.960 . S
C284 H271 0.960 . S
C284 C283 1.524 . S
C285 C282 1.403 . S
C285 C286 1.392 . S
C285 C289 1.495 . S
C286 C285 1.392 . S
C286 C287 1.385 . S
C286 C288 1.478 . S
C287 H281 0.930 . S
C287 C283 1.400 . S
C287 C286 1.385 . S
C288 C286 1.478 . S
C288 C290 1.381 . S
C288 C294 1.383 . S
C289 C285 1.495 . S
C289 H295 0.959 . S
C289 H296 0.961 . S
C289 H297 0.960 . S
C290 C288 1.381 . S
C290 C291 1.394 . S
C290 H298 0.930 . S
C291 C290 1.394 . S
C291 C292 1.383 . S
C291 H299 0.929 . S
C292 C291 1.383 . S
C292 C293 1.377 . S
C293 H277 0.930 . S
C293 C292 1.377 . S
C293 C294 1.379 . S
C294 H278 0.931 . S
C294 C288 1.383 . S
C294 C293 1.379 . S
H295 C289 0.959 . S
H296 C289 0.961 . S
H297 C289 0.960 . S
H298 C290 0.930 . S
H299 C291 0.929 . S
H300 C308 0.929 . S
H301 C310 0.930 . S
H302 C312 0.930 . S
H303 C315 0.929 . S
H304 C318 0.930 . S
H305 C320 0.960 . S
H306 C320 0.960 . S
H307 C320 0.960 . S
C308 H300 0.929 . S
C308 C309 1.377 . S
C308 C310 1.384 . S
C309 C308 1.377 . S
C309 C315 1.390 . S
C310 H301 0.930 . S
C310 C308 1.384 . S
C310 C311 1.372 . S
C311 C310 1.372 . S
C311 C312 1.400 . S
C311 C316 1.490 . S
C312 H302 0.930 . S
C312 C311 1.400 . S
C312 C315 1.386 . S
H313 C329 0.930 . S
H314 C330 0.931 . S
C315 H303 0.929 . S
C315 C309 1.390 . S
C315 C312 1.386 . S
C316 C311 1.490 . S
C316 C318 1.395 . S
C316 C319 1.403 . S
H317 C323 0.930 . S
C318 H304 0.930 . S
C318 C316 1.395 . S
C318 C321 1.403 . S
C319 C316 1.403 . S
C319 C320 1.524 . S
C319 C323 1.400 . S
C320 H305 0.960 . S
C320 H306 0.960 . S
C320 H307 0.960 . S
C320 C319 1.524 . S
C321 C318 1.403 . S
C321 C322 1.392 . S
C321 C325 1.495 . S
C322 C321 1.392 . S
C322 C323 1.385 . S
C322 C324 1.478 . S
C323 H317 0.930 . S
C323 C319 1.400 . S
C323 C322 1.385 . S
C324 C322 1.478 . S
C324 C326 1.381 . S
C324 C330 1.383 . S
C325 C321 1.495 . S
C325 H331 0.959 . S
C325 H332 0.961 . S
C325 H333 0.960 . S
C326 C324 1.381 . S
C326 C327 1.394 . S
C326 H334 0.930 . S
C327 C326 1.394 . S
C327 C328 1.383 . S
C327 H335 0.929 . S
C328 C327 1.383 . S
C328 C329 1.377 . S
C329 H313 0.930 . S
C329 C328 1.377 . S
C329 C330 1.379 . S
C330 H314 0.931 . S
C330 C324 1.383 . S
C330 C329 1.379 . S
H331 C325 0.959 . S
H332 C325 0.961 . S
H333 C325 0.960 . S
H334 C326 0.930 . S
H335 C327 0.929 . S
H336 C344 0.929 . S
H337 C346 0.930 . S
H338 C348 0.930 . S
H339 C351 0.929 . S
H340 C354 0.930 . S
H341 C356 0.960 . S
H342 C356 0.960 . S
H343 C356 0.960 . S
C344 H336 0.929 . S
C344 C345 1.377 . S
C344 C346 1.384 . S
C345 C344 1.377 . S
C345 C351 1.390 . S
C346 H337 0.930 . S
C346 C344 1.384 . S
C346 C347 1.372 . S
C347 C346 1.372 . S
C347 C348 1.400 . S
C347 C352 1.490 . S
C348 H338 0.930 . S
C348 C347 1.400 . S
C348 C351 1.386 . S
H349 C365 0.930 . S
H350 C366 0.931 . S
C351 H339 0.929 . S
C351 C345 1.390 . S
C351 C348 1.386 . S
C352 C347 1.490 . S
C352 C354 1.395 . S
C352 C355 1.403 . S
H353 C359 0.930 . S
C354 H340 0.930 . S
C354 C352 1.395 . S
C354 C357 1.403 . S
C355 C352 1.403 . S
C355 C356 1.524 . S
C355 C359 1.400 . S
C356 H341 0.960 . S
C356 H342 0.960 . S
C356 H343 0.960 . S
C356 C355 1.524 . S
C357 C354 1.403 . S
C357 C358 1.392 . S
C357 C361 1.495 . S
C358 C357 1.392 . S
C358 C359 1.385 . S
C358 C360 1.478 . S
C359 H353 0.930 . S
C359 C355 1.400 . S
C359 C358 1.385 . S
C360 C358 1.478 . S
C360 C362 1.381 . S
C360 C366 1.383 . S
C361 C357 1.495 . S
C361 H367 0.959 . S
C361 H368 0.961 . S
C361 H369 0.960 . S
C362 C360 1.381 . S
C362 C363 1.394 . S
C362 H370 0.930 . S
C363 C362 1.394 . S
C363 C364 1.383 . S
C363 H371 0.929 . S
C364 C363 1.383 . S
C364 C365 1.377 . S
C365 H349 0.930 . S
C365 C364 1.377 . S
C365 C366 1.379 . S
C366 H350 0.931 . S
C366 C360 1.383 . S
C366 C365 1.379 . S
H367 C361 0.959 . S
H368 C361 0.961 . S
H369 C361 0.960 . S
H370 C362 0.930 . S
H371 C363 0.929 . S
H372 C380 0.929 . S
H373 C382 0.930 . S
H374 C384 0.930 . S
H375 C387 0.929 . S
H376 C390 0.930 . S
H377 C392 0.960 . S
H378 C392 0.960 . S
H379 C392 0.960 . S
C380 H372 0.929 . S
C380 C381 1.377 . S
C380 C382 1.384 . S
C381 C380 1.377 . S
C381 C387 1.390 . S
C382 H373 0.930 . S
C382 C380 1.384 . S
C382 C383 1.372 . S
C383 C382 1.372 . S
C383 C384 1.400 . S
C383 C388 1.490 . S
C384 H374 0.930 . S
C384 C383 1.400 . S
C384 C387 1.386 . S
H385 C401 0.930 . S
H386 C402 0.931 . S
C387 H375 0.929 . S
C387 C381 1.390 . S
C387 C384 1.386 . S
C388 C383 1.490 . S
C388 C390 1.395 . S
C388 C391 1.403 . S
H389 C395 0.930 . S
C390 H376 0.930 . S
C390 C388 1.395 . S
C390 C393 1.403 . S
C391 C388 1.403 . S
C391 C392 1.524 . S
C391 C395 1.400 . S
C392 H377 0.960 . S
C392 H378 0.960 . S
C392 H379 0.960 . S
C392 C391 1.524 . S
C393 C390 1.403 . S
C393 C394 1.392 . S
C393 C397 1.495 . S
C394 C393 1.392 . S
C394 C395 1.385 . S
C394 C396 1.478 . S
C395 H389 0.930 . S
C395 C391 1.400 . S
C395 C394 1.385 . S
C396 C394 1.478 . S
C396 C398 1.381 . S
C396 C402 1.383 . S
C397 C393 1.495 . S
C397 H403 0.959 . S
C397 H404 0.961 . S
C397 H405 0.960 . S
C398 C396 1.381 . S
C398 C399 1.394 . S
C398 H406 0.930 . S
C399 C398 1.394 . S
C399 C400 1.383 . S
C399 H407 0.929 . S
C400 C399 1.383 . S
C400 C401 1.377 . S
C401 H385 0.930 . S
C401 C400 1.377 . S
C401 C402 1.379 . S
C402 H386 0.931 . S
C402 C396 1.383 . S
C402 C401 1.379 . S
H403 C397 0.959 . S
H404 C397 0.961 . S
H405 C397 0.960 . S
H406 C398 0.930 . S
H407 C399 0.929 . S
H408 C416 0.929 . S
H409 C418 0.930 . S
H410 C420 0.930 . S
H411 C423 0.929 . S
H412 C426 0.930 . S
H413 C428 0.960 . S
H414 C428 0.960 . S
H415 C428 0.960 . S
C416 H408 0.929 . S
C416 C417 1.377 . S
C416 C418 1.384 . S
C417 C416 1.377 . S
C417 C423 1.390 . S
C418 H409 0.930 . S
C418 C416 1.384 . S
C418 C419 1.372 . S
C419 C418 1.372 . S
C419 C420 1.400 . S
C419 C424 1.490 . S
C420 H410 0.930 . S
C420 C419 1.400 . S
C420 C423 1.386 . S
H421 C437 0.930 . S
H422 C438 0.931 . S
C423 H411 0.929 . S
C423 C417 1.390 . S
C423 C420 1.386 . S
C424 C419 1.490 . S
C424 C426 1.395 . S
C424 C427 1.403 . S
H425 C431 0.930 . S
C426 H412 0.930 . S
C426 C424 1.395 . S
C426 C429 1.403 . S
C427 C424 1.403 . S
C427 C428 1.524 . S
C427 C431 1.400 . S
C428 H413 0.960 . S
C428 H414 0.960 . S
C428 H415 0.960 . S
C428 C427 1.524 . S
C429 C426 1.403 . S
C429 C430 1.392 . S
C429 C433 1.495 . S
C430 C429 1.392 . S
C430 C431 1.385 . S
C430 C432 1.478 . S
C431 H425 0.930 . S
C431 C427 1.400 . S
C431 C430 1.385 . S
C432 C430 1.478 . S
C432 C434 1.381 . S
C432 C438 1.383 . S
C433 C429 1.495 . S
C433 H439 0.959 . S
C433 H440 0.961 . S
C433 H441 0.960 . S
C434 C432 1.381 . S
C434 C435 1.394 . S
C434 H442 0.930 . S
C435 C434 1.394 . S
C435 C436 1.383 . S
C435 H443 0.929 . S
C436 C435 1.383 . S
C436 C437 1.377 . S
C437 H421 0.930 . S
C437 C436 1.377 . S
C437 C438 1.379 . S
C438 H422 0.931 . S
C438 C432 1.383 . S
C438 C437 1.379 . S
H439 C433 0.959 . S
H440 C433 0.961 . S
H441 C433 0.960 . S
H442 C434 0.930 . S
H443 C435 0.929 . S
H444 C452 0.929 . S
H445 C454 0.930 . S
H446 C456 0.930 . S
H447 C459 0.929 . S
H448 C462 0.930 . S
H449 C464 0.960 . S
H450 C464 0.960 . S
H451 C464 0.960 . S
C452 H444 0.929 . S
C452 C453 1.377 . S
C452 C454 1.384 . S
C453 C452 1.377 . S
C453 C459 1.390 . S
C454 H445 0.930 . S
C454 C452 1.384 . S
C454 C455 1.372 . S
C455 C454 1.372 . S
C455 C456 1.400 . S
C455 C460 1.490 . S
C456 H446 0.930 . S
C456 C455 1.400 . S
C456 C459 1.386 . S
H457 C473 0.930 . S
H458 C474 0.931 . S
C459 H447 0.929 . S
C459 C453 1.390 . S
C459 C456 1.386 . S
C460 C455 1.490 . S
C460 C462 1.395 . S
C460 C463 1.403 . S
H461 C467 0.930 . S
C462 H448 0.930 . S
C462 C460 1.395 . S
C462 C465 1.403 . S
C463 C460 1.403 . S
C463 C464 1.524 . S
C463 C467 1.400 . S
C464 H449 0.960 . S
C464 H450 0.960 . S
C464 H451 0.960 . S
C464 C463 1.524 . S
C465 C462 1.403 . S
C465 C466 1.392 . S
C465 C469 1.495 . S
C466 C465 1.392 . S
C466 C467 1.385 . S
C466 C468 1.478 . S
C467 H461 0.930 . S
C467 C463 1.400 . S
C467 C466 1.385 . S
C468 C466 1.478 . S
C468 C470 1.381 . S
C468 C474 1.383 . S
C469 C465 1.495 . S
C469 H475 0.959 . S
C469 H476 0.961 1_556 S
C469 H477 0.960 . S
C470 C468 1.381 . S
C470 C471 1.394 . S
C470 H478 0.930 . S
C471 C470 1.394 . S
C471 C472 1.383 1_556 S
C471 H479 0.929 . S
C472 C471 1.383 1_554 S
C472 C473 1.377 . S
C473 H457 0.930 . S
C473 C472 1.377 . S
C473 C474 1.379 1_554 S
C474 H458 0.931 . S
C474 C468 1.383 . S
C474 C473 1.379 1_556 S
H475 C469 0.959 . S
H476 C469 0.961 1_554 S
H477 C469 0.960 . S
H478 C470 0.930 . S
H479 C471 0.929 . S
H480 C488 0.929 . S
H481 C490 0.930 . S
H482 C492 0.930 . S
H483 C495 0.929 . S
H484 C498 0.930 . S
H485 C500 0.960 . S
H486 C500 0.960 . S
H487 C500 0.960 . S
C488 H480 0.929 . S
C488 C489 1.377 1_554 S
C488 C490 1.384 . S
C489 C488 1.377 1_556 S
C489 C495 1.390 . S
C490 H481 0.930 . S
C490 C488 1.384 . S
C490 C491 1.372 . S
C491 C490 1.372 . S
C491 C492 1.400 1_554 S
C491 C496 1.490 . S
C492 H482 0.930 . S
C492 C491 1.400 1_556 S
C492 C495 1.386 . S
H493 C509 0.930 . S
H494 C510 0.931 . S
C495 H483 0.929 . S
C495 C489 1.390 . S
C495 C492 1.386 . S
C496 C491 1.490 . S
C496 C498 1.395 . S
C496 C499 1.403 . S
H497 C503 0.930 . S
C498 H484 0.930 . S
C498 C496 1.395 . S
C498 C501 1.403 . S
C499 C496 1.403 . S
C499 C500 1.524 . S
C499 C503 1.400 . S
C500 H485 0.960 . S
C500 H486 0.960 . S
C500 H487 0.960 . S
C500 C499 1.524 . S
C501 C498 1.403 . S
C501 C502 1.392 . S
C501 C505 1.495 . S
C502 C501 1.392 . S
C502 C503 1.385 . S
C502 C504 1.478 . S
C503 H497 0.930 . S
C503 C499 1.400 . S
C503 C502 1.385 . S
C504 C502 1.478 . S
C504 C506 1.381 . S
C504 C510 1.383 . S
C505 C501 1.495 . S
C505 H511 0.959 . S
C505 H512 0.961 . S
C505 H513 0.960 . S
C506 C504 1.381 . S
C506 C507 1.394 . S
C506 H514 0.930 . S
C507 C506 1.394 . S
C507 C508 1.383 . S
C507 H515 0.929 . S
C508 C507 1.383 . S
C508 C509 1.377 . S
C509 H493 0.930 . S
C509 C508 1.377 . S
C509 C510 1.379 . S
C510 H494 0.931 . S
C510 C504 1.383 . S
C510 C509 1.379 . S
H511 C505 0.959 . S
H512 C505 0.961 . S
H513 C505 0.960 . S
H514 C506 0.930 . S
H515 C507 0.929 . S
C93 C8 1.424 1_556 S
C112 C48 1.471 . S
C129 C62 1.461 . S
C148 C22 1.444 . S
C165 C36 1.426 . S
C184 C76 1.461 1_554 S
C201 C50 1.414 . S
C220 C6 1.440 . S
C237 C20 1.463 . S
C256 C64 1.426 . S
C273 C78 1.426 . S
C292 C34 1.459 . S
C309 C7 1.318 . S
C328 C37 1.318 . S
C345 C21 1.312 . S
C364 C51 1.297 . S
C381 C65 1.307 . S
C400 C35 1.325 . S
C417 C79 1.310 . S
C436 C49 1.302 . S
C453 C63 1.312 . S
C472 C9 1.295 . S
C489 C77 1.317 . S
C508 C23 1.322 . S
