# Generated by pormake.
# Topology snw, (6)-cn, num edge types: 1
# Building blocks:
#     Node 0, Type 0, BuildingBlock: OJICUG_clean_sbu_0, # of connection points: 6
#     Node 1, Type 0, BuildingBlock: OJICUG_clean_sbu_0, # of connection points: 6
#     Node 2, Type 0, BuildingBlock: OJICUG_clean_sbu_0, # of connection points: 6
#     Node 3, Type 0, BuildingBlock: OJICUG_clean_sbu_0, # of connection points: 6
#     Node 4, Type 0, BuildingBlock: OJICUG_clean_sbu_0, # of connection points: 6
#     Node 5, Type 0, BuildingBlock: OJICUG_clean_sbu_0, # of connection points: 6
#     Node 6, Type 0, BuildingBlock: OJICUG_clean_sbu_0, # of connection points: 6
#     Node 7, Type 0, BuildingBlock: OJICUG_clean_sbu_0, # of connection points: 6
#     Edge 8, Type (0, 0), BuildingBlock: EZIPEK_clean_linker_0, # of connection points: 2
#     Edge 9, Type (0, 0), BuildingBlock: EZIPEK_clean_linker_0, # of connection points: 2
#     Edge 10, Type (0, 0), BuildingBlock: EZIPEK_clean_linker_0, # of connection points: 2
#     Edge 11, Type (0, 0), BuildingBlock: EZIPEK_clean_linker_0, # of connection points: 2
#     Edge 12, Type (0, 0), BuildingBlock: EZIPEK_clean_linker_0, # of connection points: 2
#     Edge 13, Type (0, 0), BuildingBlock: EZIPEK_clean_linker_0, # of connection points: 2
#     Edge 14, Type (0, 0), BuildingBlock: EZIPEK_clean_linker_0, # of connection points: 2
#     Edge 15, Type (0, 0), BuildingBlock: EZIPEK_clean_linker_0, # of connection points: 2
#     Edge 16, Type (0, 0), BuildingBlock: EZIPEK_clean_linker_0, # of connection points: 2
#     Edge 17, Type (0, 0), BuildingBlock: EZIPEK_clean_linker_0, # of connection points: 2
#     Edge 18, Type (0, 0), BuildingBlock: EZIPEK_clean_linker_0, # of connection points: 2
#     Edge 19, Type (0, 0), BuildingBlock: EZIPEK_clean_linker_0, # of connection points: 2
#     Edge 20, Type (0, 0), BuildingBlock: EZIPEK_clean_linker_0, # of connection points: 2
#     Edge 21, Type (0, 0), BuildingBlock: EZIPEK_clean_linker_0, # of connection points: 2
#     Edge 22, Type (0, 0), BuildingBlock: EZIPEK_clean_linker_0, # of connection points: 2
#     Edge 23, Type (0, 0), BuildingBlock: EZIPEK_clean_linker_0, # of connection points: 2
#     Edge 24, Type (0, 0), BuildingBlock: EZIPEK_clean_linker_0, # of connection points: 2
#     Edge 25, Type (0, 0), BuildingBlock: EZIPEK_clean_linker_0, # of connection points: 2
#     Edge 26, Type (0, 0), BuildingBlock: EZIPEK_clean_linker_0, # of connection points: 2
#     Edge 27, Type (0, 0), BuildingBlock: EZIPEK_clean_linker_0, # of connection points: 2
#     Edge 28, Type (0, 0), BuildingBlock: EZIPEK_clean_linker_0, # of connection points: 2
#     Edge 29, Type (0, 0), BuildingBlock: EZIPEK_clean_linker_0, # of connection points: 2
#     Edge 30, Type (0, 0), BuildingBlock: EZIPEK_clean_linker_0, # of connection points: 2
#     Edge 31, Type (0, 0), BuildingBlock: EZIPEK_clean_linker_0, # of connection points: 2
# Relax obj value: 0.000
# Max RMSD: 0.008
# Mean RMSD: 0.008
data_MOF--net-snw--node1-OJICUG_clean_sbu_0--edge1-EZIPEK_clean_linker_0
_symmetry_space_group_name_H-M    P1
_symmetry_Int_Tables_number       1
_symmetry_cell_setting            triclinic
loop_
_symmetry_equiv_pos_as_xyz
'x, y, z'
_cell_length_a     16.434946
_cell_length_b     16.465757
_cell_length_c     56.251522
_cell_angle_alpha  89.880253
_cell_angle_beta   89.830121
_cell_angle_gamma 89.84363
loop_
_atom_site_label
_atom_site_type_symbol
_atom_site_fract_x
_atom_site_fract_y
_atom_site_fract_z
_atom_type_partial_charge
Sc0 Sc 0.11286 0.25269 0.05739 0.0
Sc1 Sc 0.89846 0.24734 0.05811 0.0
Sc2 Sc 0.00693 0.25429 0.11198 0.0
O3 O 0.00609 0.2515 0.07583 0.0
C4 C 0.1573 0.13632 0.10031 0.0
C5 C 0.00638 0.12693 0.02772 0.0
C6 C 0.86419 0.1291 0.10208 0.0
C7 C 0.00377 0.36772 0.02575 0.0
C8 C 0.14853 0.37788 0.09954 0.0
C9 C 0.85639 0.37039 0.09951 0.0
O10 O 0.16484 0.1583 0.07879 0.0
O11 O 0.93817 0.14903 0.03612 0.0
O12 O 0.92275 0.15487 0.11468 0.0
O13 O 0.07249 0.34688 0.03395 0.0
O14 O 0.09107 0.35416 0.113 0.0
O15 O 0.84775 0.34505 0.07838 0.0
O16 O 0.16533 0.34526 0.07966 0.0
O17 O 0.93685 0.33598 0.03218 0.0
O18 O 0.90879 0.34182 0.11389 0.0
O19 O 0.07354 0.16033 0.03297 0.0
O20 O 0.10531 0.16693 0.11454 0.0
O21 O 0.84618 0.15843 0.08185 0.0
Sc22 Sc -0.00144 0.84041 0.30745 0.0
Sc23 Sc 0.00622 0.62645 0.3106 0.0
Sc24 Sc 0.00156 0.74318 0.36297 0.0
O25 O 0.00188 0.73649 0.32695 0.0
C26 C 0.12144 0.88555 0.34964 0.0
C27 C 0.12755 0.73204 0.27915 0.0
C28 C 0.11872 0.59097 0.35494 0.0
C29 C 0.88721 0.72338 0.27608 0.0
C30 C 0.88099 0.88917 0.3491 0.0
C31 C 0.87807 0.59958 0.35339 0.0
O32 O 0.08521 0.90151 0.33018 0.0
O33 O 0.10154 0.66399 0.28668 0.0
O34 O 0.08758 0.64572 0.36792 0.0
O35 O 0.90942 0.79322 0.28309 0.0
O36 O 0.91541 0.84263 0.36407 0.0
O37 O 0.91085 0.57942 0.33362 0.0
O38 O 0.89979 0.89124 0.32726 0.0
O39 O 0.91735 0.65849 0.28439 0.0
O40 O 0.90073 0.66059 0.36553 0.0
O41 O 0.09763 0.80022 0.28524 0.0
O42 O 0.10319 0.82475 0.36253 0.0
O43 O 0.09778 0.57858 0.33365 0.0
Sc44 Sc 0.60223 0.72828 0.56118 0.0
Sc45 Sc 0.38727 0.73523 0.5578 0.0
Sc46 Sc 0.48371 0.73086 0.61343 0.0
O47 O 0.49118 0.7319 0.57743 0.0
C48 C 0.63043 0.60776 0.60471 0.0
C49 C 0.49743 0.60824 0.52949 0.0
C50 C 0.33506 0.61636 0.60015 0.0
C51 C 0.50457 0.84771 0.52707 0.0
C52 C 0.63388 0.84994 0.60401 0.0
C53 C 0.34274 0.8563 0.59947 0.0
O54 O 0.64865 0.63419 0.58416 0.0
O55 O 0.42821 0.63617 0.53567 0.0
O56 O 0.39451 0.63516 0.61342 0.0
O57 O 0.57048 0.82144 0.53599 0.0
O58 O 0.57503 0.82504 0.61688 0.0
O59 O 0.33758 0.83425 0.5779 0.0
O60 O 0.65121 0.82065 0.58376 0.0
O61 O 0.43481 0.82241 0.53316 0.0
O62 O 0.39062 0.82346 0.6144 0.0
O63 O 0.56472 0.63527 0.5371 0.0
O64 O 0.57266 0.63662 0.61707 0.0
O65 O 0.32307 0.65036 0.58018 0.0
Sc66 Sc 0.49156 0.35919 0.80692 0.0
Sc67 Sc 0.48825 0.14719 0.81307 0.0
Sc68 Sc 0.47389 0.27149 0.86362 0.0
O69 O 0.48506 0.25935 0.82789 0.0
C70 C 0.60007 0.40982 0.85186 0.0
C71 C 0.6165 0.24413 0.78107 0.0
C72 C 0.59614 0.11946 0.85828 0.0
C73 C 0.37606 0.24172 0.77723 0.0
C74 C 0.36096 0.41691 0.84436 0.0
C75 C 0.35579 0.12449 0.85441 0.0
O76 O 0.57187 0.42165 0.83108 0.0
O77 O 0.57922 0.17984 0.78712 0.0
O78 O 0.55739 0.17155 0.8707 0.0
O79 O 0.41117 0.3093 0.78062 0.0
O80 O 0.39024 0.37334 0.86102 0.0
O81 O 0.39797 0.09878 0.837 0.0
O82 O 0.38573 0.41269 0.82302 0.0
O83 O 0.39244 0.17736 0.78875 0.0
O84 O 0.36986 0.19167 0.86471 0.0
O85 O 0.59709 0.31442 0.78844 0.0
O86 O 0.57561 0.35337 0.86556 0.0
O87 O 0.58363 0.10805 0.83629 0.0
Sc88 Sc 0.97252 0.7692 0.87412 0.0
Sc89 Sc 0.09443 0.74983 0.9249 0.0
Sc90 Sc 0.88119 0.75348 0.93042 0.0
O91 O 0.98257 0.75717 0.90984 0.0
C92 C 0.82664 0.88308 0.89257 0.0
C93 C 0.1204 0.88463 0.88438 0.0
C94 C 0.00168 0.86514 0.96042 0.0
C95 C 0.1221 0.64423 0.87936 0.0
C96 C 0.8327 0.64429 0.88563 0.0
C97 C 0.99189 0.62569 0.9567 0.0
O98 O 0.8717 0.85395 0.87624 0.0
O99 O 0.14564 0.84061 0.90147 0.0
O100 O 0.93218 0.83451 0.95638 0.0
O101 O 0.07227 0.68566 0.86694 0.0
O102 O 0.8194 0.67298 0.90627 0.0
O103 O 0.05823 0.65882 0.95037 0.0
O104 O 0.88983 0.66824 0.87203 0.0
O105 O 0.13196 0.65436 0.9015 0.0
O106 O 0.92256 0.64881 0.94951 0.0
O107 O 0.05327 0.87204 0.87385 0.0
O108 O 0.8282 0.85803 0.91387 0.0
O109 O 0.06633 0.8447 0.94957 0.0
Sc110 Sc 0.50895 0.75657 0.12355 0.0
Sc111 Sc 0.50435 0.85477 0.17922 0.0
Sc112 Sc 0.50273 0.64232 0.17636 0.0
O113 O 0.50483 0.75131 0.15967 0.0
C114 C 0.38344 0.61044 0.13381 0.0
C115 C 0.38802 0.90104 0.1358 0.0
C116 C 0.38393 0.7473 0.20931 0.0
C117 C 0.63482 0.89574 0.13903 0.0
C118 C 0.62419 0.6071 0.13296 0.0
C119 C 0.62579 0.7397 0.20804 0.0
O120 O 0.41918 0.65995 0.11975 0.0
O121 O 0.41802 0.91416 0.15622 0.0
O122 O 0.41724 0.68105 0.20309 0.0
O123 O 0.60154 0.85098 0.12336 0.0
O124 O 0.58801 0.5871 0.15206 0.0
O125 O 0.59205 0.80807 0.20428 0.0
O126 O 0.60671 0.67022 0.12108 0.0
O127 O 0.60503 0.90268 0.1597 0.0
O128 O 0.60353 0.67404 0.19828 0.0
O129 O 0.41176 0.84438 0.12212 0.0
O130 O 0.4018 0.60294 0.15561 0.0
O131 O 0.40414 0.81607 0.20101 0.0
Sc132 Sc 0.49929 0.24324 0.37519 0.0
Sc133 Sc 0.61042 0.2347 0.42797 0.0
Sc134 Sc 0.39636 0.23052 0.42965 0.0
O135 O 0.5019 0.23588 0.411 0.0
C136 C 0.34839 0.35571 0.38998 0.0
C137 C 0.64148 0.36441 0.38651 0.0
C138 C 0.50507 0.34818 0.46125 0.0
C139 C 0.65056 0.12424 0.38435 0.0
C140 C 0.35916 0.11712 0.38466 0.0
C141 C 0.50665 0.10917 0.45883 0.0
O142 O 0.39609 0.32472 0.37465 0.0
O143 O 0.66459 0.32263 0.4043 0.0
O144 O 0.43855 0.31301 0.45637 0.0
O145 O 0.60233 0.16244 0.37064 0.0
O146 O 0.34031 0.14963 0.40445 0.0
O147 O 0.57233 0.14473 0.45321 0.0
O148 O 0.42181 0.13794 0.37281 0.0
O149 O 0.65606 0.13787 0.40646 0.0
O150 O 0.43772 0.12786 0.45013 0.0
O151 O 0.57579 0.34953 0.37549 0.0
O152 O 0.34536 0.33292 0.4115 0.0
O153 O 0.57253 0.3316 0.45118 0.0
Sc154 Sc 0.98147 0.22997 0.6253 0.0
Sc155 Sc 0.98437 0.33789 0.67918 0.0
Sc156 Sc -0.00264 0.12416 0.67972 0.0
O157 O 0.9882 0.23045 0.66142 0.0
C158 C 0.87067 0.07821 0.6392 0.0
C159 C 0.84827 0.36358 0.63972 0.0
C160 C 0.87727 0.22449 0.71279 0.0
C161 C 0.09528 0.38312 0.6344 0.0
C162 C 0.11082 0.08998 0.63461 0.0
C163 C 0.11763 0.23969 0.7084 0.0
O164 O 0.89125 0.1348 0.62497 0.0
O165 O 0.88015 0.37833 0.65975 0.0
O166 O 0.90489 0.15758 0.70503 0.0
O167 O 0.0735 0.32265 0.62197 0.0
O168 O 0.09002 0.07723 0.65609 0.0
O169 O 0.0877 0.30619 0.70083 0.0
O170 O 0.07748 0.1427 0.62135 0.0
O171 O 0.06526 0.39778 0.65478 0.0
O172 O 0.09129 0.1701 0.7025 0.0
O173 O 0.88251 0.3166 0.62483 0.0
O174 O 0.90312 0.0675 0.65941 0.0
O175 O 0.90118 0.29329 0.70549 0.0
C176 C 0.97501 0.51183 0.01519 0.0
C177 C 0.00149 0.4336 0.00807 0.0
C178 C 0.02643 0.4824 0.9675 0.0
C179 C -0.00483 0.55938 0.97428 0.0
N180 N 0.93333 0.64746 0.00355 0.0
N181 N 0.0467 0.34042 0.97775 0.0
C182 C 0.9674 0.57408 -0.00216 0.0
C183 C 0.02609 0.41781 0.98431 0.0
N184 N 0.96043 0.52724 0.03874 0.0
N185 N 0.05662 0.47144 0.94502 0.0
H186 H 0.05 0.29232 0.9898 0.0
H187 H 0.05631 0.32225 0.96027 0.0
H188 H 0.05329 0.51583 0.9318 0.0
H189 H 0.08856 0.42005 0.9396 0.0
H190 H 0.95008 0.58496 0.04562 0.0
H191 H 0.96453 0.48282 0.05194 0.0
H192 H 0.90303 0.65887 0.01947 0.0
H193 H 0.93111 0.69654 0.99184 0.0
C194 C 0.68613 0.68563 0.24526 0.0
C195 C 0.69392 0.73534 0.22491 0.0
C196 C 0.83277 0.771 0.23653 0.0
C197 C 0.8256 0.71871 0.25669 0.0
N198 N 0.75575 0.60132 0.2734 0.0
N199 N 0.77931 0.81128 0.19803 0.0
C200 C 0.75574 0.66826 0.25906 0.0
C201 C 0.76853 0.77444 0.21964 0.0
N202 N 0.61152 0.65675 0.25195 0.0
N203 N 0.9018 0.81579 0.23316 0.0
H204 H 0.73393 0.81396 0.18513 0.0
H205 H 0.83493 0.83342 0.192 0.0
H206 H 0.95494 0.80656 0.24287 0.0
H207 H 0.906 0.86338 0.221 0.0
H208 H 0.60143 0.6276 0.26817 0.0
H209 H 0.55828 0.66919 0.24254 0.0
H210 H 0.70885 0.55882 0.27318 0.0
H211 H 0.80553 0.58109 0.28303 0.0
C212 C 0.47692 0.46205 0.51949 0.0
C213 C 0.50037 0.54116 0.51226 0.0
C214 C 0.52039 0.49461 0.47138 0.0
C215 C 0.50247 0.41437 0.47885 0.0
N216 N 0.46827 0.31879 0.50988 0.0
N217 N 0.55741 0.63124 0.48265 0.0
C218 C 0.48145 0.39727 0.50287 0.0
C219 C 0.52626 0.55695 0.48861 0.0
N220 N 0.45062 0.44911 0.54228 0.0
N221 N 0.52713 0.51209 0.44765 0.0
H222 H 0.56084 0.67956 0.49454 0.0
H223 H 0.58591 0.64324 0.46647 0.0
H224 H 0.52081 0.46842 0.43438 0.0
H225 H 0.53123 0.5709 0.44093 0.0
H226 H 0.42323 0.39572 0.54809 0.0
H227 H 0.45297 0.49358 0.55544 0.0
H228 H 0.46257 0.30046 0.52751 0.0
H229 H 0.46689 0.27031 0.49804 0.0
C230 C 0.75862 0.20173 0.77048 0.0
C231 C 0.68324 0.23684 0.7636 0.0
C232 C 0.7317 0.24913 0.72258 0.0
C233 C 0.80981 0.22313 0.73006 0.0
N234 N 0.90148 0.18128 0.76115 0.0
N235 N 0.59931 0.30137 0.73379 0.0
C236 C 0.82434 0.20064 0.754 0.0
C237 C 0.67017 0.26288 0.73984 0.0
N238 N 0.7671 0.16898 0.79268 0.0
N239 N 0.71557 0.25742 0.69885 0.0
H240 H 0.55105 0.30967 0.74562 0.0
H241 H 0.59031 0.33012 0.7175 0.0
H242 H 0.75902 0.24661 0.68565 0.0
H243 H 0.65759 0.26786 0.69206 0.0
H244 H 0.81724 0.13467 0.79793 0.0
H245 H 0.72114 0.17125 0.80545 0.0
H246 H 0.91805 0.17376 0.77887 0.0
H247 H 0.95066 0.17792 0.74943 0.0
C248 C 0.23058 0.26311 0.76675 0.0
C249 C 0.31002 0.23943 0.75968 0.0
C250 C 0.26338 0.21503 0.71905 0.0
C251 C 0.18472 0.24278 0.72576 0.0
N252 N 0.09322 0.29947 0.75507 0.0
N253 N 0.40588 0.19895 0.72947 0.0
C254 C 0.1683 0.26892 0.74935 0.0
C255 C 0.3275 0.21682 0.73592 0.0
N256 N 0.21444 0.27753 0.79027 0.0
N257 N 0.27622 0.18624 0.69656 0.0
H258 H 0.45346 0.19569 0.74167 0.0
H259 H 0.42513 0.19123 0.71199 0.0
H260 H 0.232 0.18905 0.68337 0.0
H261 H 0.32889 0.15626 0.69117 0.0
H262 H 0.15634 0.28636 0.79719 0.0
H263 H 0.259 0.27527 0.80344 0.0
H264 H 0.07977 0.32807 0.77108 0.0
H265 H 0.04447 0.30052 0.74326 0.0
C266 C 0.24029 0.71516 0.22034 0.0
C267 C 0.31823 0.74355 0.22716 0.0
C268 C 0.27345 0.75446 0.26864 0.0
C269 C 0.19398 0.73217 0.2615 0.0
N270 N 0.09811 0.6973 0.23082 0.0
N271 N 0.40912 0.7967 0.25688 0.0
C272 C 0.17643 0.71366 0.23742 0.0
C273 C 0.33483 0.76527 0.25107 0.0
N274 N 0.22774 0.689 0.19756 0.0
N275 N 0.29065 0.76215 0.29231 0.0
H276 H 0.45688 0.802 0.24473 0.0
H277 H 0.42228 0.8222 0.27333 0.0
H278 H 0.24702 0.75395 0.30561 0.0
H279 H 0.34899 0.77037 0.29901 0.0
H280 H 0.17563 0.65864 0.19209 0.0
H281 H 0.2716 0.69358 0.18419 0.0
H282 H 0.07904 0.69311 0.21324 0.0
H283 H 0.05032 0.69231 0.24296 0.0
C284 C 0.5384 0.05561 0.4996 0.0
C285 C 0.51116 0.04131 0.476 0.0
C286 C 0.48394 0.89868 0.48557 0.0
C287 C 0.50877 0.91357 0.50933 0.0
N288 N 0.54818 0.00671 0.5402 0.0
N289 N 0.4785 0.94685 0.44483 0.0
C290 C 0.53396 0.99196 0.51662 0.0
C291 C 0.48907 0.9622 0.46852 0.0
N292 N 0.57019 0.12945 0.50564 0.0
N293 N 0.45354 0.82432 0.47948 0.0
H294 H 0.48506 0.99133 0.43174 0.0
H295 H 0.47074 0.88909 0.43774 0.0
H296 H 0.45179 0.77511 0.49114 0.0
H297 H 0.42505 0.8123 0.46338 0.0
H298 H 0.60038 0.14074 0.52151 0.0
H299 H 0.57209 0.17899 0.49416 0.0
H300 H 0.55684 0.06425 0.54734 0.0
H301 H 0.54504 0.96179 0.55324 0.0
C302 C 0.03828 0.98292 0.01725 0.0
C303 C 0.00717 0.06003 0.01044 0.0
C304 C 0.9809 0.01069 0.97019 0.0
C305 C 0.00618 0.93223 0.9775 0.0
N306 N 0.05274 0.83967 0.00779 0.0
N307 N 0.9407 0.14667 0.98168 0.0
C308 C 0.03367 0.91722 0.00097 0.0
C309 C 0.97605 0.07376 0.98725 0.0
N310 N 0.07208 0.97278 0.03927 0.0
N311 N 0.96402 0.02528 0.94673 0.0
H312 H 0.93876 0.19578 0.99333 0.0
H313 H 0.90841 0.15725 0.96608 0.0
H314 H 0.96604 0.98021 0.93373 0.0
H315 H 0.95423 0.08297 0.9397 0.0
H316 H 0.10386 0.92103 0.04448 0.0
H317 H 0.07215 0.01814 0.05219 0.0
H318 H 0.06438 0.8225 0.02527 0.0
H319 H 0.05246 0.79069 -0.00394 0.0
C320 C 0.24387 0.94329 0.12802 0.0
C321 C 0.32831 0.96002 0.12655 0.0
C322 C 0.30007 0.09413 0.1096 0.0
C323 C 0.21569 0.07544 0.1095 0.0
N324 N 0.10759 0.97825 0.11489 0.0
N325 N 0.43856 0.04456 0.11285 0.0
C326 C 0.18749 -0.00106 0.11777 0.0
C327 C 0.35692 0.03354 0.11645 0.0
N328 N 0.21773 0.8751 0.13963 0.0
N329 N 0.32576 0.17082 0.10399 0.0
H330 H 0.48245 0.00231 0.11809 0.0
H331 H 0.4627 0.09246 0.10302 0.0
H332 H 0.28664 0.21691 0.09841 0.0
H333 H 0.385 0.19102 0.10665 0.0
H334 H 0.15691 0.86359 0.14357 0.0
H335 H 0.25761 0.83235 0.14688 0.0
H336 H 0.08489 0.92038 0.11823 0.0
H337 H 0.06476 0.01717 0.10726 0.0
C338 C 0.19331 0.95826 0.38299 0.0
C339 C 0.18547 0.94218 0.35828 0.0
C340 C 0.28694 0.04742 0.35034 0.0
C341 C 0.30389 0.05336 0.37509 0.0
N342 N 0.28904 0.99006 0.41383 0.0
N343 N 0.24607 0.95616 0.31912 0.0
C344 C 0.26229 0.00098 0.39109 0.0
C345 C 0.23888 0.98182 0.3421 0.0
N346 N 0.13321 0.93798 0.39874 0.0
N347 N 0.31142 0.1062 0.33474 0.0
H348 H 0.21667 0.9048 0.31267 0.0
H349 H 0.28923 0.9801 0.30744 0.0
H350 H 0.33911 0.16005 0.33996 0.0
H351 H 0.29423 0.10607 0.3169 0.0
H352 H 0.13548 0.95432 0.41663 0.0
H353 H 0.07676 0.91563 0.39353 0.0
H354 H 0.26288 0.94774 0.42535 0.0
H355 H 0.34307 0.01507 0.42005 0.0
C356 C 0.2558 0.04971 0.6269 0.0
C357 C 0.17157 0.03531 0.62377 0.0
C358 C 0.20004 0.90328 0.60593 0.0
C359 C 0.28466 0.91839 0.60806 0.0
N360 N 0.39447 0.00946 0.61752 0.0
N361 N 0.06493 0.96099 0.60416 0.0
C362 C 0.3131 0.99261 0.6178 0.0
C363 C 0.14411 0.96601 0.61135 0.0
N364 N 0.28054 0.11839 0.63835 0.0
N365 N 0.17274 0.82757 0.6 0.0
H366 H 0.02232 0.00673 0.60736 0.0
H367 H 0.04359 0.91553 0.59295 0.0
H368 H 0.21145 0.77852 0.59676 0.0
H369 H 0.11161 0.81114 0.60074 0.0
H370 H 0.34004 0.12871 0.64382 0.0
H371 H 0.2402 0.16481 0.64295 0.0
H372 H 0.41912 0.06531 0.62217 0.0
H373 H 0.43764 0.96859 0.61111 0.0
C374 C 0.20939 0.00398 0.89388 0.0
C375 C 0.17251 0.95345 0.87657 0.0
C376 C 0.2369 0.0349 0.8454 0.0
C377 C 0.28711 0.07272 0.86261 0.0
N378 N 0.32916 0.08083 0.90385 0.0
N379 N 0.16507 0.91244 0.83525 0.0
C380 C 0.27532 0.05457 0.8871 0.0
C381 C 0.18941 0.96682 0.85209 0.0
N382 N 0.18039 0.00537 0.91666 0.0
N383 N 0.23319 0.06483 0.82276 0.0
H384 H 0.13512 0.85844 0.83927 0.0
H385 H 0.18302 0.91667 0.8175 0.0
H386 H 0.26359 0.11752 0.81755 0.0
H387 H 0.19237 0.04306 0.81014 0.0
H388 H 0.20112 0.04636 0.92937 0.0
H389 H 0.12922 0.97264 0.92199 0.0
H390 H 0.32663 0.06181 0.92153 0.0
H391 H 0.38112 0.11424 0.89985 0.0
C392 C 0.68289 0.93416 0.88914 0.0
C393 C 0.7678 0.94787 0.8863 0.0
C394 C 0.74018 0.07816 0.86679 0.0
C395 C 0.65557 0.0653 0.87008 0.0
N396 N 0.54609 0.9898 0.88816 0.0
N397 N 0.87777 0.04008 0.87778 0.0
C398 C 0.62693 -0.00375 0.88262 0.0
C399 C 0.79666 0.02211 0.87669 0.0
N400 N 0.65535 0.86014 0.89674 0.0
N401 N 0.76639 0.14312 0.85375 0.0
H402 H 0.92059 0.001 0.88535 0.0
H403 H 0.90177 0.09649 0.87324 0.0
H404 H 0.72662 0.18688 0.8471 0.0
H405 H 0.82643 0.15101 0.84828 0.0
H406 H 0.59448 0.84295 0.89624 0.0
H407 H 0.69367 0.81284 0.90189 0.0
H408 H 0.52273 0.94585 0.8996 0.0
H409 H 0.50269 0.0323 0.8828 0.0
C410 C 0.72964 0.04761 0.62486 0.0
C411 C 0.8081 0.01944 0.63148 0.0
C412 C 0.76744 0.8793 0.62292 0.0
C413 C 0.69204 0.90858 0.61415 0.0
N414 N 0.60576 0.02066 0.60303 0.0
N415 N 0.90568 0.90947 0.6344 0.0
C416 C 0.67415 0.9928 0.61414 0.0
C417 C 0.82794 0.93543 0.63007 0.0
N418 N 0.70711 0.1259 0.62967 0.0
N419 N 0.78095 0.79747 0.62462 0.0
H420 H 0.95203 0.94742 0.64022 0.0
H421 H 0.92645 0.85119 0.63053 0.0
H422 H 0.74041 0.75434 0.61817 0.0
H423 H 0.82965 0.77195 0.63381 0.0
H424 H 0.64812 0.14776 0.62739 0.0
H425 H 0.74543 0.1672 0.63808 0.0
H426 H 0.59353 0.08198 0.60016 0.0
H427 H 0.56461 0.98188 0.5948 0.0
C428 C 0.74439 0.92191 0.36666 0.0
C429 C 0.82061 0.94871 0.35777 0.0
C430 C 0.77952 0.09064 0.36316 0.0
C431 C 0.70644 0.06376 0.374 0.0
N432 N 0.62069 0.95545 0.38826 0.0
N433 N 0.91712 0.05686 0.35121 0.0
C434 C 0.68923 0.97974 0.3764 0.0
C435 C 0.83983 0.03269 0.35687 0.0
N436 N 0.72376 0.8417 0.36498 0.0
N437 N 0.79115 0.17159 0.35882 0.0
H438 H 0.9637 0.01629 0.34691 0.0
H439 H 0.93738 0.11644 0.35281 0.0
H440 H 0.74964 0.21634 0.36394 0.0
H441 H 0.83884 0.19408 0.34854 0.0
H442 H 0.66599 0.81943 0.36884 0.0
H443 H 0.7628 0.79775 0.35795 0.0
H444 H 0.60923 0.89549 0.39309 0.0
H445 H 0.57693 -0.0038 0.39453 0.0
C446 C 0.75542 0.92682 0.112 0.0
C447 C 0.70786 0.94634 0.13242 0.0
C448 C 0.76912 0.0815 0.13376 0.0
C449 C 0.81133 0.06524 0.11231 0.0
N450 N 0.84835 0.97259 0.08094 0.0
N451 N 0.71389 0.0226 0.16933 0.0
C452 C 0.80581 0.98766 0.10141 0.0
C453 C 0.72725 0.01788 0.14538 0.0
N454 N 0.75874 0.84805 0.1044 0.0
N455 N 0.76627 0.15859 0.14274 0.0
H456 H 0.70014 0.97224 0.17978 0.0
H457 H 0.73182 0.07221 0.17951 0.0
H458 H 0.79486 0.20797 0.13466 0.0
H459 H 0.72847 0.1748 0.15688 0.0
H460 H 0.7952 0.82752 0.09051 0.0
H461 H 0.73237 0.80059 0.11398 0.0
H462 H 0.84034 0.9213 0.07046 0.0
H463 H 0.89009 0.01347 0.07373 0.0
C464 C 0.74343 0.47186 0.64808 0.0
C465 C 0.77317 0.41038 0.63271 0.0
C466 C 0.68512 0.46539 0.60119 0.0
C467 C 0.67671 0.53818 0.61458 0.0
N468 N 0.70342 0.61185 0.65105 0.0
N469 N 0.74891 0.33325 0.59689 0.0
C470 C 0.70684 0.54165 0.63817 0.0
C471 C 0.73702 0.40233 0.60983 0.0
N472 N 0.74459 0.46134 0.67216 0.0
N473 N 0.63963 0.45467 0.58109 0.0
H474 H 0.76761 0.27881 0.60464 0.0
H475 H 0.73711 0.32888 0.57877 0.0
H476 H 0.59782 0.49757 0.57499 0.0
H477 H 0.63738 0.40078 0.57151 0.0
H478 H 0.71803 0.50253 0.68393 0.0
H479 H 0.76002 0.40604 0.68001 0.0
H480 H 0.73266 0.61818 0.66737 0.0
H481 H 0.67829 0.66574 0.64471 0.0
C482 C 0.69895 0.61007 0.86764 0.0
C483 C 0.77508 0.58358 0.87649 0.0
C484 C 0.73944 0.44264 0.86768 0.0
C485 C 0.66023 0.46862 0.86104 0.0
N486 N 0.55854 0.57459 0.86064 0.0
N487 N 0.86353 0.47461 0.88891 0.0
C488 C 0.63822 0.55177 0.86264 0.0
C489 C 0.79423 0.49972 0.87768 0.0
N490 N 0.68523 0.69077 0.86351 0.0
N491 N 0.76322 0.36437 0.86363 0.0
H492 H 0.90451 0.51509 0.89656 0.0
H493 H 0.87684 0.41387 0.8924 0.0
H494 H 0.72473 0.32162 0.85603 0.0
H495 H 0.82273 0.34388 0.86585 0.0
H496 H 0.63343 0.71266 0.85497 0.0
H497 H 0.7292 0.73513 0.86652 0.0
H498 H 0.53804 0.63352 0.86381 0.0
H499 H 0.51173 0.53267 0.85851 0.0
C500 C 0.76921 0.56526 0.12585 0.0
C501 C 0.68485 0.55013 0.12317 0.0
C502 C 0.71367 0.41516 0.10735 0.0
C503 C 0.79821 0.4323 0.10813 0.0
N504 N 0.90662 0.5288 0.11399 0.0
N505 N 0.57749 0.4707 0.1058 0.0
C506 C 0.82627 0.50886 0.11627 0.0
C507 C 0.65726 0.47802 0.11224 0.0
N508 N 0.79461 0.63243 0.13795 0.0
N509 N 0.68713 0.33799 0.10294 0.0
H510 H 0.5351 0.51722 0.10828 0.0
H511 H 0.5555 0.42242 0.09577 0.0
H512 H 0.72642 0.2892 0.09996 0.0
H513 H 0.62645 0.3207 0.10464 0.0
H514 H 0.85495 0.6423 0.14271 0.0
H515 H 0.75433 0.67581 0.1447 0.0
H516 H 0.92919 0.58667 0.11735 0.0
H517 H 0.9499 0.48942 0.10678 0.0
C518 C 0.80988 0.5219 0.38694 0.0
C519 C 0.81116 0.54806 0.36287 0.0
C520 C 0.70246 0.45255 0.35381 0.0
C521 C 0.69498 0.43218 0.37832 0.0
N522 N 0.72332 0.47474 0.41873 0.0
N523 N 0.73382 0.56181 0.3268 0.0
C524 C 0.74291 0.47534 0.39512 0.0
C525 C 0.74956 0.5209 0.34734 0.0
N526 N 0.87344 0.5374 0.40183 0.0
N527 N 0.6703 0.40477 0.33641 0.0
H528 H 0.76358 0.61578 0.32245 0.0
H529 H 0.68405 0.54775 0.31612 0.0
H530 H 0.64393 0.34841 0.33962 0.0
H531 H 0.68007 0.41651 0.31839 0.0
H532 H 0.87696 0.51267 0.41888 0.0
H533 H 0.92637 0.56694 0.39647 0.0
H534 H 0.75354 0.51049 0.43116 0.0
H535 H 0.67069 0.4475 0.4253 0.0
C536 C 0.20631 0.39665 0.38004 0.0
C537 C 0.28965 0.41773 0.38202 0.0
C538 C 0.26112 0.55385 0.36639 0.0
C539 C 0.17732 0.5339 0.3656 0.0
N540 N 0.06723 0.44304 0.3753 0.0
N541 N 0.39574 0.51848 0.38087 0.0
C542 C 0.14902 0.45728 0.37358 0.0
C543 C 0.317 0.49705 0.37627 0.0
N544 N 0.18252 0.3178 0.38329 0.0
N545 N 0.28731 0.62603 0.35708 0.0
H546 H 0.43828 0.47809 0.38798 0.0
H547 H 0.41751 0.57757 0.37937 0.0
H548 H 0.24759 0.66991 0.35035 0.0
H549 H 0.34838 0.64051 0.35464 0.0
H550 H 0.12435 0.29679 0.37944 0.0
H551 H 0.22265 0.27137 0.38801 0.0
H552 H 0.0426 0.39196 0.38352 0.0
H553 H 0.02336 0.48552 0.37023 0.0
C554 C 0.19861 0.52193 0.1018 0.0
C555 C 0.20534 0.43939 0.1088 0.0
C556 C 0.333 0.4681 0.12915 0.0
C557 C 0.32283 0.55235 0.12425 0.0
N558 N 0.23805 0.66134 0.10953 0.0
N559 N 0.26842 0.33733 0.13353 0.0
C560 C 0.25357 0.57999 0.11144 0.0
C561 C 0.26919 0.41362 0.12387 0.0
N562 N 0.13995 0.54466 0.08593 0.0
N563 N 0.40518 0.43908 0.13781 0.0
H564 H 0.22285 0.29506 0.13009 0.0
H565 H 0.30886 0.31856 0.14669 0.0
H566 H 0.45505 0.47582 0.14146 0.0
H567 H 0.41871 0.37735 0.13901 0.0
H568 H 0.1373 0.60208 0.07817 0.0
H569 H 0.09684 0.50417 0.07934 0.0
H570 H 0.18434 0.68489 0.10253 0.0
H571 H 0.27563 0.70554 0.11687 0.0
C572 C 0.24959 0.6158 0.85661 0.0
C573 C 0.17717 0.58634 0.86727 0.0
C574 C 0.22099 0.44564 0.86049 0.0
C575 C 0.29451 0.47505 0.85023 0.0
N576 N 0.37133 0.58752 0.8338 0.0
N577 N 0.08618 0.47643 0.87622 0.0
C578 C 0.30625 0.55991 0.84668 0.0
C579 C 0.16055 0.50199 0.86825 0.0
N580 N 0.26615 0.69724 0.85712 0.0
N581 N 0.20919 0.36372 0.8627 0.0
H582 H 0.04125 0.51675 0.88196 0.0
H583 H 0.06639 0.41653 0.87584 0.0
H584 H 0.24803 0.3208 0.85507 0.0
H585 H 0.16209 0.33753 0.8724 0.0
H586 H 0.32246 0.72197 0.85275 0.0
H587 H 0.22503 0.74053 0.86343 0.0
H588 H 0.37733 0.64733 0.82806 0.0
H589 H 0.41735 0.55027 0.82724 0.0
C590 C 0.21458 0.47603 0.64113 0.0
C591 C 0.15932 0.43901 0.62512 0.0
C592 C 0.23251 0.50418 0.59232 0.0
C593 C 0.27556 0.55404 0.60868 0.0
N594 N 0.28217 0.60169 0.64956 0.0
N595 N 0.10401 0.43882 0.58513 0.0
C596 C 0.2596 0.54425 0.63341 0.0
C597 C 0.16472 0.45883 0.60055 0.0
N598 N 0.22661 0.44528 0.66341 0.0
N599 N 0.25716 0.497 0.56922 0.0
H600 H 0.04927 0.4128 0.5905 0.0
H601 H 0.10399 0.4581 0.56745 0.0
H602 H 0.31042 0.5229 0.56269 0.0
H603 H 0.23019 0.45632 0.55746 0.0
H604 H 0.27051 0.4686 0.67487 0.0
H605 H 0.20128 0.39058 0.66911 0.0
H606 H 0.26642 0.59754 0.6675 0.0
H607 H 0.30533 0.65823 0.64475 0.0
loop_
_geom_bond_atom_site_label_1
_geom_bond_atom_site_label_2
_geom_bond_distance
_geom_bond_site_symmetry_2
_ccdc_geom_bond_type
Sc0 O3 2.025 . S
Sc0 O10 2.105 . S
Sc0 O13 2.105 . S
Sc0 O16 2.105 . S
Sc0 O19 2.105 . S
Sc1 O3 2.025 1_655 S
Sc1 O11 2.105 . S
Sc1 O15 2.105 . S
Sc1 O17 2.105 . S
Sc1 O21 2.105 . S
Sc2 O3 2.025 . S
Sc2 O12 2.105 1_455 S
Sc2 O14 2.105 . S
Sc2 O18 2.105 1_455 S
Sc2 O20 2.105 . S
O3 Sc0 2.025 . S
O3 Sc1 2.025 1_455 S
O3 Sc2 2.025 . S
C4 O10 1.268 . S
C4 O20 1.268 . S
C5 O11 1.268 1_455 S
C5 O19 1.268 . S
C6 O12 1.268 . S
C6 O21 1.268 . S
C7 O13 1.268 . S
C7 O17 1.268 1_455 S
C8 O14 1.268 . S
C8 O16 1.268 . S
C9 O15 1.268 . S
C9 O18 1.268 . S
O10 Sc0 2.105 . S
O10 C4 1.268 . S
O11 Sc1 2.105 . S
O11 C5 1.268 1_655 S
O12 Sc2 2.105 1_655 S
O12 C6 1.268 . S
O13 Sc0 2.105 . S
O13 C7 1.268 . S
O14 Sc2 2.105 . S
O14 C8 1.268 . S
O15 Sc1 2.105 . S
O15 C9 1.268 . S
O16 Sc0 2.105 . S
O16 C8 1.268 . S
O17 Sc1 2.105 . S
O17 C7 1.268 1_655 S
O18 Sc2 2.105 1_655 S
O18 C9 1.268 . S
O19 Sc0 2.105 . S
O19 C5 1.268 . S
O20 Sc2 2.105 . S
O20 C4 1.268 . S
O21 Sc1 2.105 . S
O21 C6 1.268 . S
Sc22 O25 2.025 . S
Sc22 O32 2.105 . S
Sc22 O35 2.105 1_455 S
Sc22 O38 2.105 1_455 S
Sc22 O41 2.105 . S
Sc23 O25 2.025 . S
Sc23 O33 2.105 . S
Sc23 O37 2.105 1_455 S
Sc23 O39 2.105 1_455 S
Sc23 O43 2.105 . S
Sc24 O25 2.025 . S
Sc24 O34 2.105 . S
Sc24 O36 2.105 1_455 S
Sc24 O40 2.105 1_455 S
Sc24 O42 2.105 . S
O25 Sc22 2.025 . S
O25 Sc23 2.025 . S
O25 Sc24 2.025 . S
C26 O32 1.268 . S
C26 O42 1.268 . S
C27 O33 1.268 . S
C27 O41 1.268 . S
C28 O34 1.268 . S
C28 O43 1.268 . S
C29 O35 1.268 . S
C29 O39 1.268 . S
C30 O36 1.268 . S
C30 O38 1.268 . S
C31 O37 1.268 . S
C31 O40 1.268 . S
O32 Sc22 2.105 . S
O32 C26 1.268 . S
O33 Sc23 2.105 . S
O33 C27 1.268 . S
O34 Sc24 2.105 . S
O34 C28 1.268 . S
O35 Sc22 2.105 1_655 S
O35 C29 1.268 . S
O36 Sc24 2.105 1_655 S
O36 C30 1.268 . S
O37 Sc23 2.105 1_655 S
O37 C31 1.268 . S
O38 Sc22 2.105 1_655 S
O38 C30 1.268 . S
O39 Sc23 2.105 1_655 S
O39 C29 1.268 . S
O40 Sc24 2.105 1_655 S
O40 C31 1.268 . S
O41 Sc22 2.105 . S
O41 C27 1.268 . S
O42 Sc24 2.105 . S
O42 C26 1.268 . S
O43 Sc23 2.105 . S
O43 C28 1.268 . S
Sc44 O47 2.025 . S
Sc44 O54 2.105 . S
Sc44 O57 2.105 . S
Sc44 O60 2.105 . S
Sc44 O63 2.105 . S
Sc45 O47 2.025 . S
Sc45 O55 2.105 . S
Sc45 O59 2.105 . S
Sc45 O61 2.105 . S
Sc45 O65 2.105 . S
Sc46 O47 2.025 . S
Sc46 O56 2.105 . S
Sc46 O58 2.105 . S
Sc46 O62 2.105 . S
Sc46 O64 2.105 . S
O47 Sc44 2.025 . S
O47 Sc45 2.025 . S
O47 Sc46 2.025 . S
C48 O54 1.268 . S
C48 O64 1.268 . S
C49 O55 1.268 . S
C49 O63 1.268 . S
C50 O56 1.268 . S
C50 O65 1.268 . S
C51 O57 1.268 . S
C51 O61 1.268 . S
C52 O58 1.268 . S
C52 O60 1.268 . S
C53 O59 1.268 . S
C53 O62 1.268 . S
O54 Sc44 2.105 . S
O54 C48 1.268 . S
O55 Sc45 2.105 . S
O55 C49 1.268 . S
O56 Sc46 2.105 . S
O56 C50 1.268 . S
O57 Sc44 2.105 . S
O57 C51 1.268 . S
O58 Sc46 2.105 . S
O58 C52 1.268 . S
O59 Sc45 2.105 . S
O59 C53 1.268 . S
O60 Sc44 2.105 . S
O60 C52 1.268 . S
O61 Sc45 2.105 . S
O61 C51 1.268 . S
O62 Sc46 2.105 . S
O62 C53 1.268 . S
O63 Sc44 2.105 . S
O63 C49 1.268 . S
O64 Sc46 2.105 . S
O64 C48 1.268 . S
O65 Sc45 2.105 . S
O65 C50 1.268 . S
Sc66 O69 2.025 . S
Sc66 O76 2.105 . S
Sc66 O79 2.105 . S
Sc66 O82 2.105 . S
Sc66 O85 2.105 . S
Sc67 O69 2.025 . S
Sc67 O77 2.105 . S
Sc67 O81 2.105 . S
Sc67 O83 2.105 . S
Sc67 O87 2.105 . S
Sc68 O69 2.025 . S
Sc68 O78 2.105 . S
Sc68 O80 2.105 . S
Sc68 O84 2.105 . S
Sc68 O86 2.105 . S
O69 Sc66 2.025 . S
O69 Sc67 2.025 . S
O69 Sc68 2.025 . S
C70 O76 1.268 . S
C70 O86 1.268 . S
C71 O77 1.268 . S
C71 O85 1.268 . S
C72 O78 1.268 . S
C72 O87 1.268 . S
C73 O79 1.268 . S
C73 O83 1.268 . S
C74 O80 1.268 . S
C74 O82 1.268 . S
C75 O81 1.268 . S
C75 O84 1.268 . S
O76 Sc66 2.105 . S
O76 C70 1.268 . S
O77 Sc67 2.105 . S
O77 C71 1.268 . S
O78 Sc68 2.105 . S
O78 C72 1.268 . S
O79 Sc66 2.105 . S
O79 C73 1.268 . S
O80 Sc68 2.105 . S
O80 C74 1.268 . S
O81 Sc67 2.105 . S
O81 C75 1.268 . S
O82 Sc66 2.105 . S
O82 C74 1.268 . S
O83 Sc67 2.105 . S
O83 C73 1.268 . S
O84 Sc68 2.105 . S
O84 C75 1.268 . S
O85 Sc66 2.105 . S
O85 C71 1.268 . S
O86 Sc68 2.105 . S
O86 C70 1.268 . S
O87 Sc67 2.105 . S
O87 C72 1.268 . S
Sc88 O91 2.025 . S
Sc88 O98 2.105 1_455 S
Sc88 O101 2.105 . S
Sc88 O104 2.105 1_455 S
Sc88 O107 2.105 . S
Sc89 O91 2.025 . S
Sc89 O99 2.105 . S
Sc89 O103 2.105 . S
Sc89 O105 2.105 . S
Sc89 O109 2.105 . S
Sc90 O91 2.025 1_655 S
Sc90 O100 2.105 . S
Sc90 O102 2.105 . S
Sc90 O106 2.105 . S
Sc90 O108 2.105 . S
O91 Sc88 2.025 . S
O91 Sc89 2.025 . S
O91 Sc90 2.025 1_455 S
C92 O98 1.268 . S
C92 O108 1.268 . S
C93 O99 1.268 . S
C93 O107 1.268 . S
C94 O100 1.268 1_455 S
C94 O109 1.268 . S
C95 O101 1.268 . S
C95 O105 1.268 . S
C96 O102 1.268 . S
C96 O104 1.268 . S
C97 O103 1.268 . S
C97 O106 1.268 1_455 S
O98 Sc88 2.105 1_655 S
O98 C92 1.268 . S
O99 Sc89 2.105 . S
O99 C93 1.268 . S
O100 Sc90 2.105 . S
O100 C94 1.268 1_655 S
O101 Sc88 2.105 . S
O101 C95 1.268 . S
O102 Sc90 2.105 . S
O102 C96 1.268 . S
O103 Sc89 2.105 . S
O103 C97 1.268 . S
O104 Sc88 2.105 1_655 S
O104 C96 1.268 . S
O105 Sc89 2.105 . S
O105 C95 1.268 . S
O106 Sc90 2.105 . S
O106 C97 1.268 1_655 S
O107 Sc88 2.105 . S
O107 C93 1.268 . S
O108 Sc90 2.105 . S
O108 C92 1.268 . S
O109 Sc89 2.105 . S
O109 C94 1.268 . S
Sc110 O113 2.025 . S
Sc110 O120 2.105 . S
Sc110 O123 2.105 . S
Sc110 O126 2.105 . S
Sc110 O129 2.105 . S
Sc111 O113 2.025 . S
Sc111 O121 2.105 . S
Sc111 O125 2.105 . S
Sc111 O127 2.105 . S
Sc111 O131 2.105 . S
Sc112 O113 2.025 . S
Sc112 O122 2.105 . S
Sc112 O124 2.105 . S
Sc112 O128 2.105 . S
Sc112 O130 2.105 . S
O113 Sc110 2.025 . S
O113 Sc111 2.025 . S
O113 Sc112 2.025 . S
C114 O120 1.268 . S
C114 O130 1.268 . S
C115 O121 1.268 . S
C115 O129 1.268 . S
C116 O122 1.268 . S
C116 O131 1.268 . S
C117 O123 1.268 . S
C117 O127 1.268 . S
C118 O124 1.268 . S
C118 O126 1.268 . S
C119 O125 1.268 . S
C119 O128 1.268 . S
O120 Sc110 2.105 . S
O120 C114 1.268 . S
O121 Sc111 2.105 . S
O121 C115 1.268 . S
O122 Sc112 2.105 . S
O122 C116 1.268 . S
O123 Sc110 2.105 . S
O123 C117 1.268 . S
O124 Sc112 2.105 . S
O124 C118 1.268 . S
O125 Sc111 2.105 . S
O125 C119 1.268 . S
O126 Sc110 2.105 . S
O126 C118 1.268 . S
O127 Sc111 2.105 . S
O127 C117 1.268 . S
O128 Sc112 2.105 . S
O128 C119 1.268 . S
O129 Sc110 2.105 . S
O129 C115 1.268 . S
O130 Sc112 2.105 . S
O130 C114 1.268 . S
O131 Sc111 2.105 . S
O131 C116 1.268 . S
Sc132 O135 2.025 . S
Sc132 O142 2.105 . S
Sc132 O145 2.105 . S
Sc132 O148 2.105 . S
Sc132 O151 2.105 . S
Sc133 O135 2.025 . S
Sc133 O143 2.105 . S
Sc133 O147 2.105 . S
Sc133 O149 2.105 . S
Sc133 O153 2.105 . S
Sc134 O135 2.025 . S
Sc134 O144 2.105 . S
Sc134 O146 2.105 . S
Sc134 O150 2.105 . S
Sc134 O152 2.105 . S
O135 Sc132 2.025 . S
O135 Sc133 2.025 . S
O135 Sc134 2.025 . S
C136 O142 1.268 . S
C136 O152 1.268 . S
C137 O143 1.268 . S
C137 O151 1.268 . S
C138 O144 1.268 . S
C138 O153 1.268 . S
C139 O145 1.268 . S
C139 O149 1.268 . S
C140 O146 1.268 . S
C140 O148 1.268 . S
C141 O147 1.268 . S
C141 O150 1.268 . S
O142 Sc132 2.105 . S
O142 C136 1.268 . S
O143 Sc133 2.105 . S
O143 C137 1.268 . S
O144 Sc134 2.105 . S
O144 C138 1.268 . S
O145 Sc132 2.105 . S
O145 C139 1.268 . S
O146 Sc134 2.105 . S
O146 C140 1.268 . S
O147 Sc133 2.105 . S
O147 C141 1.268 . S
O148 Sc132 2.105 . S
O148 C140 1.268 . S
O149 Sc133 2.105 . S
O149 C139 1.268 . S
O150 Sc134 2.105 . S
O150 C141 1.268 . S
O151 Sc132 2.105 . S
O151 C137 1.268 . S
O152 Sc134 2.105 . S
O152 C136 1.268 . S
O153 Sc133 2.105 . S
O153 C138 1.268 . S
Sc154 O157 2.025 . S
Sc154 O164 2.105 1_455 S
Sc154 O167 2.105 . S
Sc154 O170 2.105 . S
Sc154 O173 2.105 1_455 S
Sc155 O157 2.025 . S
Sc155 O165 2.105 1_455 S
Sc155 O169 2.105 . S
Sc155 O171 2.105 . S
Sc155 O175 2.105 1_455 S
Sc156 O157 2.025 . S
Sc156 O166 2.105 1_455 S
Sc156 O168 2.105 . S
Sc156 O172 2.105 . S
Sc156 O174 2.105 1_455 S
O157 Sc154 2.025 . S
O157 Sc155 2.025 . S
O157 Sc156 2.025 . S
C158 O164 1.268 . S
C158 O174 1.268 . S
C159 O165 1.268 . S
C159 O173 1.268 . S
C160 O166 1.268 . S
C160 O175 1.268 . S
C161 O167 1.268 . S
C161 O171 1.268 . S
C162 O168 1.268 . S
C162 O170 1.268 . S
C163 O169 1.268 . S
C163 O172 1.268 . S
O164 Sc154 2.105 1_655 S
O164 C158 1.268 . S
O165 Sc155 2.105 1_655 S
O165 C159 1.268 . S
O166 Sc156 2.105 1_655 S
O166 C160 1.268 . S
O167 Sc154 2.105 . S
O167 C161 1.268 . S
O168 Sc156 2.105 . S
O168 C162 1.268 . S
O169 Sc155 2.105 . S
O169 C163 1.268 . S
O170 Sc154 2.105 . S
O170 C162 1.268 . S
O171 Sc155 2.105 . S
O171 C161 1.268 . S
O172 Sc156 2.105 . S
O172 C163 1.268 . S
O173 Sc154 2.105 1_655 S
O173 C159 1.268 . S
O174 Sc156 2.105 1_655 S
O174 C158 1.268 . S
O175 Sc155 2.105 1_655 S
O175 C160 1.268 . S
C176 C177 1.363 1_655 S
C176 C182 1.379 . S
C176 N184 1.356 . S
C177 C176 1.363 1_455 S
C177 C183 1.363 1_554 S
C178 C179 1.363 . S
C178 C183 1.379 . S
C178 N185 1.356 . S
C179 C178 1.363 . S
C179 C182 1.363 1_456 S
N180 C182 1.356 1_556 S
N180 H192 0.984 1_556 S
N180 H193 0.985 . S
N181 C183 1.356 1_554 S
N181 H186 0.984 . S
N181 H187 0.985 1_554 S
C182 C176 1.379 . S
C182 C179 1.363 1_654 S
C182 N180 1.356 1_554 S
C183 C177 1.363 1_556 S
C183 C178 1.379 . S
C183 N181 1.356 1_556 S
N184 C176 1.356 . S
N184 H190 0.984 . S
N184 H191 0.984 . S
N185 C178 1.356 . S
N185 H188 0.984 . S
N185 H189 0.985 . S
H186 N181 0.984 . S
H187 N181 0.985 1_556 S
H188 N185 0.984 . S
H189 N185 0.985 . S
H190 N184 0.984 . S
H191 N184 0.984 . S
H192 N180 0.984 1_554 S
H193 N180 0.985 . S
C194 C195 1.363 . S
C194 C200 1.379 . S
C194 N202 1.356 . S
C195 C194 1.363 . S
C195 C201 1.363 . S
C196 C197 1.363 . S
C196 C201 1.379 . S
C196 N203 1.356 . S
C197 C196 1.363 . S
C197 C200 1.363 . S
N198 C200 1.356 . S
N198 H210 0.984 . S
N198 H211 0.985 . S
N199 C201 1.356 . S
N199 H204 0.984 . S
N199 H205 0.985 . S
C200 C194 1.379 . S
C200 C197 1.363 . S
C200 N198 1.356 . S
C201 C195 1.363 . S
C201 C196 1.379 . S
C201 N199 1.356 . S
N202 C194 1.356 . S
N202 H208 0.984 . S
N202 H209 0.984 . S
N203 C196 1.356 . S
N203 H206 0.984 . S
N203 H207 0.985 . S
H204 N199 0.984 . S
H205 N199 0.985 . S
H206 N203 0.984 . S
H207 N203 0.985 . S
H208 N202 0.984 . S
H209 N202 0.984 . S
H210 N198 0.984 . S
H211 N198 0.985 . S
C212 C213 1.363 . S
C212 C218 1.379 . S
C212 N220 1.356 . S
C213 C212 1.363 . S
C213 C219 1.363 . S
C214 C215 1.363 . S
C214 C219 1.379 . S
C214 N221 1.356 . S
C215 C214 1.363 . S
C215 C218 1.363 . S
N216 C218 1.356 . S
N216 H228 0.984 . S
N216 H229 0.985 . S
N217 C219 1.356 . S
N217 H222 0.984 . S
N217 H223 0.985 . S
C218 C212 1.379 . S
C218 C215 1.363 . S
C218 N216 1.356 . S
C219 C213 1.363 . S
C219 C214 1.379 . S
C219 N217 1.356 . S
N220 C212 1.356 . S
N220 H226 0.984 . S
N220 H227 0.984 . S
N221 C214 1.356 . S
N221 H224 0.984 . S
N221 H225 0.985 . S
H222 N217 0.984 . S
H223 N217 0.985 . S
H224 N221 0.984 . S
H225 N221 0.985 . S
H226 N220 0.984 . S
H227 N220 0.984 . S
H228 N216 0.984 . S
H229 N216 0.985 . S
C230 C231 1.363 . S
C230 C236 1.379 . S
C230 N238 1.356 . S
C231 C230 1.363 . S
C231 C237 1.363 . S
C232 C233 1.363 . S
C232 C237 1.379 . S
C232 N239 1.356 . S
C233 C232 1.363 . S
C233 C236 1.363 . S
N234 C236 1.356 . S
N234 H246 0.984 . S
N234 H247 0.985 . S
N235 C237 1.356 . S
N235 H240 0.984 . S
N235 H241 0.985 . S
C236 C230 1.379 . S
C236 C233 1.363 . S
C236 N234 1.356 . S
C237 C231 1.363 . S
C237 C232 1.379 . S
C237 N235 1.356 . S
N238 C230 1.356 . S
N238 H244 0.984 . S
N238 H245 0.984 . S
N239 C232 1.356 . S
N239 H242 0.984 . S
N239 H243 0.985 . S
H240 N235 0.984 . S
H241 N235 0.985 . S
H242 N239 0.984 . S
H243 N239 0.985 . S
H244 N238 0.984 . S
H245 N238 0.984 . S
H246 N234 0.984 . S
H247 N234 0.985 . S
C248 C249 1.363 . S
C248 C254 1.379 . S
C248 N256 1.356 . S
C249 C248 1.363 . S
C249 C255 1.363 . S
C250 C251 1.363 . S
C250 C255 1.379 . S
C250 N257 1.356 . S
C251 C250 1.363 . S
C251 C254 1.363 . S
N252 C254 1.356 . S
N252 H264 0.984 . S
N252 H265 0.985 . S
N253 C255 1.356 . S
N253 H258 0.984 . S
N253 H259 0.985 . S
C254 C248 1.379 . S
C254 C251 1.363 . S
C254 N252 1.356 . S
C255 C249 1.363 . S
C255 C250 1.379 . S
C255 N253 1.356 . S
N256 C248 1.356 . S
N256 H262 0.984 . S
N256 H263 0.984 . S
N257 C250 1.356 . S
N257 H260 0.984 . S
N257 H261 0.985 . S
H258 N253 0.984 . S
H259 N253 0.985 . S
H260 N257 0.984 . S
H261 N257 0.985 . S
H262 N256 0.984 . S
H263 N256 0.984 . S
H264 N252 0.984 . S
H265 N252 0.985 . S
C266 C267 1.363 . S
C266 C272 1.379 . S
C266 N274 1.356 . S
C267 C266 1.363 . S
C267 C273 1.363 . S
C268 C269 1.363 . S
C268 C273 1.379 . S
C268 N275 1.356 . S
C269 C268 1.363 . S
C269 C272 1.363 . S
N270 C272 1.356 . S
N270 H282 0.984 . S
N270 H283 0.985 . S
N271 C273 1.356 . S
N271 H276 0.984 . S
N271 H277 0.985 . S
C272 C266 1.379 . S
C272 C269 1.363 . S
C272 N270 1.356 . S
C273 C267 1.363 . S
C273 C268 1.379 . S
C273 N271 1.356 . S
N274 C266 1.356 . S
N274 H280 0.984 . S
N274 H281 0.984 . S
N275 C268 1.356 . S
N275 H278 0.984 . S
N275 H279 0.985 . S
H276 N271 0.984 . S
H277 N271 0.985 . S
H278 N275 0.984 . S
H279 N275 0.985 . S
H280 N274 0.984 . S
H281 N274 0.984 . S
H282 N270 0.984 . S
H283 N270 0.985 . S
C284 C285 1.363 . S
C284 C290 1.379 . S
C284 N292 1.356 . S
C285 C284 1.363 . S
C285 C291 1.363 1_545 S
C286 C287 1.363 . S
C286 C291 1.379 . S
C286 N293 1.356 . S
C287 C286 1.363 . S
C287 C290 1.363 1_565 S
N288 C290 1.356 . S
N288 H300 0.984 . S
N288 H301 0.985 1_545 S
N289 C291 1.356 . S
N289 H294 0.984 1_565 S
N289 H295 0.985 . S
C290 C284 1.379 . S
C290 C287 1.363 1_545 S
C290 N288 1.356 . S
C291 C285 1.363 1_565 S
C291 C286 1.379 . S
C291 N289 1.356 . S
N292 C284 1.356 . S
N292 H298 0.984 . S
N292 H299 0.984 . S
N293 C286 1.356 . S
N293 H296 0.984 . S
N293 H297 0.985 . S
H294 N289 0.984 1_545 S
H295 N289 0.985 . S
H296 N293 0.984 . S
H297 N293 0.985 . S
H298 N292 0.984 . S
H299 N292 0.984 . S
H300 N288 0.984 . S
H301 N288 0.985 1_565 S
C302 C303 1.363 1_565 S
C302 C308 1.403 . S
C302 N310 1.356 . S
C303 C302 1.363 1_545 S
C303 C309 1.338 1_454 S
C304 C305 1.363 1_645 S
C304 C309 1.403 . S
C304 N311 1.356 . S
C305 C304 1.363 1_465 S
C305 C308 1.338 1_556 S
N306 C308 1.349 1_556 S
N306 H318 0.984 1_556 S
N306 H319 0.985 . S
N307 C309 1.349 1_554 S
N307 H312 0.984 . S
N307 H313 0.985 1_554 S
C308 C302 1.403 . S
C308 C305 1.338 1_554 S
C308 N306 1.349 1_554 S
C309 C303 1.338 1_656 S
C309 C304 1.403 . S
C309 N307 1.349 1_556 S
N310 C302 1.356 . S
N310 H316 0.984 . S
N310 H317 0.984 1_565 S
N311 C304 1.356 . S
N311 H314 0.984 1_545 S
N311 H315 0.985 . S
H312 N307 0.984 . S
H313 N307 0.985 1_556 S
H314 N311 0.984 1_565 S
H315 N311 0.985 . S
H316 N310 0.984 . S
H317 N310 0.984 1_545 S
H318 N306 0.984 1_554 S
H319 N306 0.985 . S
C320 C321 1.363 . S
C320 C326 1.379 . S
C320 N328 1.356 . S
C321 C320 1.363 . S
C321 C327 1.363 1_565 S
C322 C323 1.363 . S
C322 C327 1.379 . S
C322 N329 1.356 . S
C323 C322 1.363 . S
C323 C326 1.363 1_545 S
N324 C326 1.356 1_545 S
N324 H336 0.984 1_545 S
N324 H337 0.985 . S
N325 C327 1.356 1_565 S
N325 H330 0.984 . S
N325 H331 0.985 1_565 S
C326 C320 1.379 . S
C326 C323 1.363 1_565 S
C326 N324 1.356 1_565 S
C327 C321 1.363 1_545 S
C327 C322 1.379 . S
C327 N325 1.356 1_545 S
N328 C320 1.356 . S
N328 H334 0.984 . S
N328 H335 0.984 . S
N329 C322 1.356 . S
N329 H332 0.984 . S
N329 H333 0.985 . S
H330 N325 0.984 . S
H331 N325 0.985 1_545 S
H332 N329 0.984 . S
H333 N329 0.985 . S
H334 N328 0.984 . S
H335 N328 0.984 . S
H336 N324 0.984 1_565 S
H337 N324 0.985 . S
C338 C339 1.363 . S
C338 C344 1.379 1_565 S
C338 N346 1.356 . S
C339 C338 1.363 . S
C339 C345 1.363 . S
C340 C341 1.363 . S
C340 C345 1.379 1_545 S
C340 N347 1.356 . S
C341 C340 1.363 . S
C341 C344 1.363 . S
N342 C344 1.356 . S
N342 H354 0.984 1_545 S
N342 H355 0.985 . S
N343 C345 1.356 . S
N343 H348 0.984 . S
N343 H349 0.985 . S
C344 C338 1.379 1_545 S
C344 C341 1.363 . S
C344 N342 1.356 . S
C345 C339 1.363 . S
C345 C340 1.379 1_565 S
C345 N343 1.356 . S
N346 C338 1.356 . S
N346 H352 0.984 . S
N346 H353 0.984 . S
N347 C340 1.356 . S
N347 H350 0.984 . S
N347 H351 0.985 . S
H348 N343 0.984 . S
H349 N343 0.985 . S
H350 N347 0.984 . S
H351 N347 0.985 . S
H352 N346 0.984 . S
H353 N346 0.984 . S
H354 N342 0.984 1_565 S
H355 N342 0.985 . S
C356 C357 1.363 . S
C356 C362 1.379 . S
C356 N364 1.356 . S
C357 C356 1.363 . S
C357 C363 1.363 . S
C358 C359 1.363 . S
C358 C363 1.379 1_565 S
C358 N365 1.356 . S
C359 C358 1.363 . S
C359 C362 1.363 1_565 S
N360 C362 1.356 1_565 S
N360 H372 0.984 1_565 S
N360 H373 0.985 . S
N361 C363 1.356 . S
N361 H366 0.984 . S
N361 H367 0.985 1_545 S
C362 C356 1.379 . S
C362 C359 1.363 1_545 S
C362 N360 1.356 1_545 S
C363 C357 1.363 . S
C363 C358 1.379 1_545 S
C363 N361 1.356 . S
N364 C356 1.356 . S
N364 H370 0.984 . S
N364 H371 0.984 . S
N365 C358 1.356 . S
N365 H368 0.984 . S
N365 H369 0.985 . S
H366 N361 0.984 . S
H367 N361 0.985 1_565 S
H368 N365 0.984 . S
H369 N365 0.985 . S
H370 N364 0.984 . S
H371 N364 0.984 . S
H372 N360 0.984 1_545 S
H373 N360 0.985 . S
C374 C375 1.363 . S
C374 C380 1.379 1_565 S
C374 N382 1.356 . S
C375 C374 1.363 . S
C375 C381 1.363 . S
C376 C377 1.363 . S
C376 C381 1.379 1_545 S
C376 N383 1.356 . S
C377 C376 1.363 . S
C377 C380 1.363 . S
N378 C380 1.356 . S
N378 H390 0.984 . S
N378 H391 0.985 . S
N379 C381 1.356 . S
N379 H384 0.984 . S
N379 H385 0.985 . S
C380 C374 1.379 1_545 S
C380 C377 1.363 . S
C380 N378 1.356 . S
C381 C375 1.363 . S
C381 C376 1.379 1_565 S
C381 N379 1.356 . S
N382 C374 1.356 . S
N382 H388 0.984 . S
N382 H389 0.984 . S
N383 C376 1.356 . S
N383 H386 0.984 . S
N383 H387 0.985 . S
H384 N379 0.984 . S
H385 N379 0.985 . S
H386 N383 0.984 . S
H387 N383 0.985 . S
H388 N382 0.984 . S
H389 N382 0.984 . S
H390 N378 0.984 . S
H391 N378 0.985 . S
C392 C393 1.363 . S
C392 C398 1.379 1_565 S
C392 N400 1.356 . S
C393 C392 1.363 . S
C393 C399 1.363 . S
C394 C395 1.363 . S
C394 C399 1.379 1_545 S
C394 N401 1.356 . S
C395 C394 1.363 . S
C395 C398 1.363 . S
N396 C398 1.356 . S
N396 H408 0.984 . S
N396 H409 0.985 . S
N397 C399 1.356 . S
N397 H402 0.984 . S
N397 H403 0.985 . S
C398 C392 1.379 1_545 S
C398 C395 1.363 . S
C398 N396 1.356 . S
C399 C393 1.363 . S
C399 C394 1.379 1_565 S
C399 N397 1.356 . S
N400 C392 1.356 . S
N400 H406 0.984 . S
N400 H407 0.984 . S
N401 C394 1.356 . S
N401 H404 0.984 . S
N401 H405 0.985 . S
H402 N397 0.984 . S
H403 N397 0.985 . S
H404 N401 0.984 . S
H405 N401 0.985 . S
H406 N400 0.984 . S
H407 N400 0.984 . S
H408 N396 0.984 . S
H409 N396 0.985 . S
C410 C411 1.363 . S
C410 C416 1.379 . S
C410 N418 1.356 . S
C411 C410 1.363 . S
C411 C417 1.363 1_545 S
C412 C413 1.363 . S
C412 C417 1.379 . S
C412 N419 1.356 . S
C413 C412 1.363 . S
C413 C416 1.363 1_565 S
N414 C416 1.356 1_565 S
N414 H426 0.984 1_565 S
N414 H427 0.985 . S
N415 C417 1.356 1_545 S
N415 H420 0.984 . S
N415 H421 0.985 1_545 S
C416 C410 1.379 . S
C416 C413 1.363 1_545 S
C416 N414 1.356 1_545 S
C417 C411 1.363 1_565 S
C417 C412 1.379 . S
C417 N415 1.356 1_565 S
N418 C410 1.356 . S
N418 H424 0.984 . S
N418 H425 0.984 . S
N419 C412 1.356 . S
N419 H422 0.984 . S
N419 H423 0.985 . S
H420 N415 0.984 . S
H421 N415 0.985 1_565 S
H422 N419 0.984 . S
H423 N419 0.985 . S
H424 N418 0.984 . S
H425 N418 0.984 . S
H426 N414 0.984 1_545 S
H427 N414 0.985 . S
C428 C429 1.363 . S
C428 C434 1.379 . S
C428 N436 1.356 . S
C429 C428 1.363 . S
C429 C435 1.363 1_565 S
C430 C431 1.363 . S
C430 C435 1.379 . S
C430 N437 1.356 . S
C431 C430 1.363 . S
C431 C434 1.363 1_545 S
N432 C434 1.356 . S
N432 H444 0.984 . S
N432 H445 0.985 1_565 S
N433 C435 1.356 . S
N433 H438 0.984 1_545 S
N433 H439 0.985 . S
C434 C428 1.379 . S
C434 C431 1.363 1_565 S
C434 N432 1.356 . S
C435 C429 1.363 1_545 S
C435 C430 1.379 . S
C435 N433 1.356 . S
N436 C428 1.356 . S
N436 H442 0.984 . S
N436 H443 0.984 . S
N437 C430 1.356 . S
N437 H440 0.984 . S
N437 H441 0.985 . S
H438 N433 0.984 1_565 S
H439 N433 0.985 . S
H440 N437 0.984 . S
H441 N437 0.985 . S
H442 N436 0.984 . S
H443 N436 0.984 . S
H444 N432 0.984 . S
H445 N432 0.985 1_545 S
C446 C447 1.363 . S
C446 C452 1.375 1_565 S
C446 N454 1.356 . S
C447 C446 1.363 . S
C447 C453 1.363 . S
C448 C449 1.363 . S
C448 C453 1.379 1_545 S
C448 N455 1.356 . S
C449 C448 1.363 . S
C449 C452 1.367 . S
N450 C452 1.358 . S
N450 H462 0.984 1_545 S
N450 H463 0.985 . S
N451 C453 1.356 . S
N451 H456 0.984 . S
N451 H457 0.985 1_565 S
C452 C446 1.375 1_545 S
C452 C449 1.367 . S
C452 N450 1.358 . S
C453 C447 1.363 . S
C453 C448 1.379 1_565 S
C453 N451 1.356 . S
N454 C446 1.356 . S
N454 H460 0.984 . S
N454 H461 0.984 . S
N455 C448 1.356 . S
N455 H458 0.984 . S
N455 H459 0.985 . S
H456 N451 0.984 . S
H457 N451 0.985 1_545 S
H458 N455 0.984 . S
H459 N455 0.985 . S
H460 N454 0.984 . S
H461 N454 0.984 . S
H462 N450 0.984 1_565 S
H463 N450 0.985 . S
C464 C465 1.363 . S
C464 C470 1.379 . S
C464 N472 1.356 . S
C465 C464 1.363 . S
C465 C471 1.363 . S
C466 C467 1.363 . S
C466 C471 1.379 . S
C466 N473 1.356 . S
C467 C466 1.363 . S
C467 C470 1.363 . S
N468 C470 1.356 . S
N468 H480 0.984 . S
N468 H481 0.985 . S
N469 C471 1.356 . S
N469 H474 0.984 . S
N469 H475 0.985 . S
C470 C464 1.379 . S
C470 C467 1.363 . S
C470 N468 1.356 . S
C471 C465 1.363 . S
C471 C466 1.379 . S
C471 N469 1.356 . S
N472 C464 1.356 . S
N472 H478 0.984 . S
N472 H479 0.984 . S
N473 C466 1.356 . S
N473 H476 0.984 . S
N473 H477 0.985 . S
H474 N469 0.984 . S
H475 N469 0.985 . S
H476 N473 0.984 . S
H477 N473 0.985 . S
H478 N472 0.984 . S
H479 N472 0.984 . S
H480 N468 0.984 . S
H481 N468 0.985 . S
C482 C483 1.363 . S
C482 C488 1.379 . S
C482 N490 1.356 . S
C483 C482 1.363 . S
C483 C489 1.363 . S
C484 C485 1.363 . S
C484 C489 1.379 . S
C484 N491 1.356 . S
C485 C484 1.363 . S
C485 C488 1.363 . S
N486 C488 1.356 . S
N486 H498 0.984 . S
N486 H499 0.985 . S
N487 C489 1.356 . S
N487 H492 0.984 . S
N487 H493 0.985 . S
C488 C482 1.379 . S
C488 C485 1.363 . S
C488 N486 1.356 . S
C489 C483 1.363 . S
C489 C484 1.379 . S
C489 N487 1.356 . S
N490 C482 1.356 . S
N490 H496 0.984 . S
N490 H497 0.984 . S
N491 C484 1.356 . S
N491 H494 0.984 . S
N491 H495 0.985 . S
H492 N487 0.984 . S
H493 N487 0.985 . S
H494 N491 0.984 . S
H495 N491 0.985 . S
H496 N490 0.984 . S
H497 N490 0.984 . S
H498 N486 0.984 . S
H499 N486 0.985 . S
C500 C501 1.363 . S
C500 C506 1.379 . S
C500 N508 1.356 . S
C501 C500 1.363 . S
C501 C507 1.363 . S
C502 C503 1.363 . S
C502 C507 1.379 . S
C502 N509 1.356 . S
C503 C502 1.363 . S
C503 C506 1.363 . S
N504 C506 1.356 . S
N504 H516 0.984 . S
N504 H517 0.985 . S
N505 C507 1.356 . S
N505 H510 0.984 . S
N505 H511 0.985 . S
C506 C500 1.379 . S
C506 C503 1.363 . S
C506 N504 1.356 . S
C507 C501 1.363 . S
C507 C502 1.379 . S
C507 N505 1.356 . S
N508 C500 1.356 . S
N508 H514 0.984 . S
N508 H515 0.984 . S
N509 C502 1.356 . S
N509 H512 0.984 . S
N509 H513 0.985 . S
H510 N505 0.984 . S
H511 N505 0.985 . S
H512 N509 0.984 . S
H513 N509 0.985 . S
H514 N508 0.984 . S
H515 N508 0.984 . S
H516 N504 0.984 . S
H517 N504 0.985 . S
C518 C519 1.363 . S
C518 C524 1.379 . S
C518 N526 1.356 . S
C519 C518 1.363 . S
C519 C525 1.363 . S
C520 C521 1.363 . S
C520 C525 1.379 . S
C520 N527 1.356 . S
C521 C520 1.363 . S
C521 C524 1.363 . S
N522 C524 1.356 . S
N522 H534 0.984 . S
N522 H535 0.985 . S
N523 C525 1.356 . S
N523 H528 0.984 . S
N523 H529 0.985 . S
C524 C518 1.379 . S
C524 C521 1.363 . S
C524 N522 1.356 . S
C525 C519 1.363 . S
C525 C520 1.379 . S
C525 N523 1.356 . S
N526 C518 1.356 . S
N526 H532 0.984 . S
N526 H533 0.984 . S
N527 C520 1.356 . S
N527 H530 0.984 . S
N527 H531 0.985 . S
H528 N523 0.984 . S
H529 N523 0.985 . S
H530 N527 0.984 . S
H531 N527 0.985 . S
H532 N526 0.984 . S
H533 N526 0.984 . S
H534 N522 0.984 . S
H535 N522 0.985 . S
C536 C537 1.363 . S
C536 C542 1.379 . S
C536 N544 1.356 . S
C537 C536 1.363 . S
C537 C543 1.363 . S
C538 C539 1.363 . S
C538 C543 1.379 . S
C538 N545 1.356 . S
C539 C538 1.363 . S
C539 C542 1.363 . S
N540 C542 1.356 . S
N540 H552 0.984 . S
N540 H553 0.985 . S
N541 C543 1.356 . S
N541 H546 0.984 . S
N541 H547 0.985 . S
C542 C536 1.379 . S
C542 C539 1.363 . S
C542 N540 1.356 . S
C543 C537 1.363 . S
C543 C538 1.379 . S
C543 N541 1.356 . S
N544 C536 1.356 . S
N544 H550 0.984 . S
N544 H551 0.984 . S
N545 C538 1.356 . S
N545 H548 0.984 . S
N545 H549 0.985 . S
H546 N541 0.984 . S
H547 N541 0.985 . S
H548 N545 0.984 . S
H549 N545 0.985 . S
H550 N544 0.984 . S
H551 N544 0.984 . S
H552 N540 0.984 . S
H553 N540 0.985 . S
C554 C555 1.363 . S
C554 C560 1.379 . S
C554 N562 1.356 . S
C555 C554 1.363 . S
C555 C561 1.363 . S
C556 C557 1.363 . S
C556 C561 1.379 . S
C556 N563 1.356 . S
C557 C556 1.363 . S
C557 C560 1.363 . S
N558 C560 1.356 . S
N558 H570 0.984 . S
N558 H571 0.985 . S
N559 C561 1.356 . S
N559 H564 0.984 . S
N559 H565 0.985 . S
C560 C554 1.379 . S
C560 C557 1.363 . S
C560 N558 1.356 . S
C561 C555 1.363 . S
C561 C556 1.379 . S
C561 N559 1.356 . S
N562 C554 1.356 . S
N562 H568 0.984 . S
N562 H569 0.984 . S
N563 C556 1.356 . S
N563 H566 0.984 . S
N563 H567 0.985 . S
H564 N559 0.984 . S
H565 N559 0.985 . S
H566 N563 0.984 . S
H567 N563 0.985 . S
H568 N562 0.984 . S
H569 N562 0.984 . S
H570 N558 0.984 . S
H571 N558 0.985 . S
C572 C573 1.363 . S
C572 C578 1.379 . S
C572 N580 1.356 . S
C573 C572 1.363 . S
C573 C579 1.363 . S
C574 C575 1.363 . S
C574 C579 1.379 . S
C574 N581 1.356 . S
C575 C574 1.363 . S
C575 C578 1.363 . S
N576 C578 1.356 . S
N576 H588 0.984 . S
N576 H589 0.985 . S
N577 C579 1.356 . S
N577 H582 0.984 . S
N577 H583 0.985 . S
C578 C572 1.379 . S
C578 C575 1.363 . S
C578 N576 1.356 . S
C579 C573 1.363 . S
C579 C574 1.379 . S
C579 N577 1.356 . S
N580 C572 1.356 . S
N580 H586 0.984 . S
N580 H587 0.984 . S
N581 C574 1.356 . S
N581 H584 0.984 . S
N581 H585 0.985 . S
H582 N577 0.984 . S
H583 N577 0.985 . S
H584 N581 0.984 . S
H585 N581 0.985 . S
H586 N580 0.984 . S
H587 N580 0.984 . S
H588 N576 0.984 . S
H589 N576 0.985 . S
C590 C591 1.363 . S
C590 C596 1.379 . S
C590 N598 1.356 . S
C591 C590 1.363 . S
C591 C597 1.363 . S
C592 C593 1.363 . S
C592 C597 1.379 . S
C592 N599 1.356 . S
C593 C592 1.363 . S
C593 C596 1.363 . S
N594 C596 1.356 . S
N594 H606 0.984 . S
N594 H607 0.985 . S
N595 C597 1.356 . S
N595 H600 0.984 . S
N595 H601 0.985 . S
C596 C590 1.379 . S
C596 C593 1.363 . S
C596 N594 1.356 . S
C597 C591 1.363 . S
C597 C592 1.379 . S
C597 N595 1.356 . S
N598 C590 1.356 . S
N598 H604 0.984 . S
N598 H605 0.984 . S
N599 C592 1.356 . S
N599 H602 0.984 . S
N599 H603 0.985 . S
H600 N595 0.984 . S
H601 N595 0.985 . S
H602 N599 0.984 . S
H603 N599 0.985 . S
H604 N598 0.984 . S
H605 N598 0.984 . S
H606 N594 0.984 . S
H607 N594 0.985 . S
C177 C7 1.467 . S
C179 C97 1.467 . S
C195 C119 1.467 . S
C197 C29 1.468 . S
C213 C49 1.467 . S
C215 C138 1.467 . S
C231 C71 1.467 . S
C233 C160 1.468 . S
C249 C73 1.467 . S
C251 C163 1.466 . S
C267 C116 1.467 . S
C269 C27 1.466 . S
C285 C141 1.467 . S
C287 C51 1.467 . S
C303 C5 1.467 . S
C305 C94 1.467 . S
C321 C115 1.494 . S
C323 C4 1.493 . S
C339 C26 1.494 . S
C341 C140 1.493 . S
C357 C162 1.494 . S
C359 C53 1.493 . S
C375 C93 1.494 . S
C377 C75 1.492 . S
C393 C92 1.494 . S
C395 C72 1.495 . S
C411 C158 1.494 . S
C413 C52 1.495 . S
C429 C30 1.494 . S
C431 C139 1.495 . S
C447 C117 1.494 . S
C449 C6 1.495 . S
C465 C159 1.494 . S
C467 C48 1.495 . S
C483 C96 1.494 . S
C485 C70 1.495 . S
C501 C118 1.494 . S
C503 C9 1.495 . S
C519 C31 1.494 . S
C521 C137 1.495 . S
C537 C136 1.494 . S
C539 C28 1.492 . S
C555 C8 1.494 . S
C557 C114 1.492 . S
C573 C95 1.494 . S
C575 C74 1.492 . S
C591 C161 1.494 . S
C593 C50 1.493 . S
