# Generated by pormake.
# Topology sxb, (6)-cn, num edge types: 1
# Building blocks:
#     Node 0, Type 0, BuildingBlock: KUMBUR_clean_sbu_1, # of connection points: 6
#     Node 1, Type 0, BuildingBlock: KUMBUR_clean_sbu_1, # of connection points: 6
#     Node 2, Type 0, BuildingBlock: KUMBUR_clean_sbu_1, # of connection points: 6
#     Node 3, Type 0, BuildingBlock: KUMBUR_clean_sbu_1, # of connection points: 6
#     Edge 4, Type (0, 0), BuildingBlock: KIFKEQ_clean_linker_1, # of connection points: 2
#     Edge 5, Type (0, 0), BuildingBlock: KIFKEQ_clean_linker_1, # of connection points: 2
#     Edge 6, Type (0, 0), BuildingBlock: KIFKEQ_clean_linker_1, # of connection points: 2
#     Edge 7, Type (0, 0), BuildingBlock: KIFKEQ_clean_linker_1, # of connection points: 2
#     Edge 8, Type (0, 0), BuildingBlock: KIFKEQ_clean_linker_1, # of connection points: 2
#     Edge 9, Type (0, 0), BuildingBlock: KIFKEQ_clean_linker_1, # of connection points: 2
#     Edge 10, Type (0, 0), BuildingBlock: KIFKEQ_clean_linker_1, # of connection points: 2
#     Edge 11, Type (0, 0), BuildingBlock: KIFKEQ_clean_linker_1, # of connection points: 2
#     Edge 12, Type (0, 0), BuildingBlock: KIFKEQ_clean_linker_1, # of connection points: 2
#     Edge 13, Type (0, 0), BuildingBlock: KIFKEQ_clean_linker_1, # of connection points: 2
#     Edge 14, Type (0, 0), BuildingBlock: KIFKEQ_clean_linker_1, # of connection points: 2
#     Edge 15, Type (0, 0), BuildingBlock: KIFKEQ_clean_linker_1, # of connection points: 2
# Relax obj value: 0.014
# Max RMSD: 0.057
# Mean RMSD: 0.057
data_MOF--net-sxb--node1-KUMBUR_clean_sbu_1--edge1-KIFKEQ_clean_linker_1
_symmetry_space_group_name_H-M    P1
_symmetry_Int_Tables_number       1
_symmetry_cell_setting            triclinic
loop_
_symmetry_equiv_pos_as_xyz
'x, y, z'
_cell_length_a     15.361007
_cell_length_b     47.954534
_cell_length_c     29.933849
_cell_angle_alpha  114.08545
_cell_angle_beta   89.90573
_cell_angle_gamma 90.113253
loop_
_atom_site_label
_atom_site_type_symbol
_atom_site_fract_x
_atom_site_fract_y
_atom_site_fract_z
_atom_type_partial_charge
Tb0 Tb 0.03532 0.96501 0.97329 0.0
C1 C 0.17128 0.09812 0.10208 0.0
N2 N 0.09406 0.08488 0.10443 0.0
C3 C 0.09642 0.10979 0.19208 0.0
C4 C 0.21482 0.11749 0.14492 0.0
C5 C 0.05519 0.09095 0.14856 0.0
C6 C 0.17676 0.123 0.1903 0.0
C7 C 0.28632 0.10569 0.0523 0.0
C8 C 0.20685 0.09226 0.05635 0.0
C9 C 0.33003 0.12498 0.09494 0.0
C10 C 0.2945 0.1308 0.1411 0.0
Tb11 Tb 0.03405 0.05578 0.03043 0.0
N12 N 0.16497 0.07234 0.01586 0.0
C13 C 0.31976 0.09907 0.0055 0.0
C14 C 0.19494 0.06692 0.97015 0.0
C15 C 0.27344 0.0798 0.96426 0.0
H16 H 0.99132 0.08205 0.15044 0.0
H17 H 0.29776 0.07508 0.92793 0.0
H18 H 0.07792 0.93827 0.85326 0.0
H19 H 0.76777 0.94839 0.07622 0.0
H20 H 0.15828 0.05296 0.93826 0.0
H21 H 0.38077 0.10892 1.0008 0.0
H22 H 0.91017 0.96871 0.06572 0.0
H23 H 0.06566 0.11443 0.22696 0.0
H24 H 0.39147 0.13543 0.09261 0.0
H25 H 0.32905 0.14572 0.17363 0.0
H26 H 1.00198 0.90666 0.77683 0.0
H27 H 0.20827 0.13773 0.2241 0.0
H28 H 0.68223 0.91591 0.00345 0.0
N29 N 0.97402 0.93651 0.89939 0.0
C30 C 0.89528 0.92419 0.90187 0.0
C31 C 0.97096 0.91164 0.81175 0.0
C32 C 0.85063 0.90536 0.85908 0.0
C33 C 1.01318 0.93002 0.85521 0.0
C34 C 0.88919 0.89936 0.81365 0.0
N35 N 0.90278 0.94965 0.98814 0.0
C36 C 0.87253 0.9553 0.03389 0.0
C37 C 0.7781 0.91809 0.95181 0.0
C38 C 0.85924 0.93048 0.94766 0.0
C39 C 0.74448 0.92499 0.99867 0.0
C40 C 0.79231 0.94347 0.03987 0.0
H41 H 0.85689 0.885 0.7799 0.0
H42 H 0.73396 0.87853 0.83053 0.0
H43 H 0.67061 0.88966 0.91163 0.0
O44 O 0.06669 0.9389 0.01272 0.0
O45 O 0.91104 0.98843 0.97168 0.0
O46 O 0.90911 0.03577 0.03706 0.0
O47 O 0.09071 0.9215 0.93533 0.0
O48 O 0.06928 0.99162 0.05035 0.0
O49 O 0.98483 0.03483 0.07799 0.0
O50 O 0.99738 0.08077 0.99006 0.0
O51 O 0.16046 0.03316 0.03064 0.0
O52 O 0.16207 0.98445 0.96802 0.0
O53 O 0.97815 0.09924 0.06796 0.0
O54 O 1.0023 0.02899 0.95315 0.0
O55 O 0.08634 0.98564 0.9257 0.0
C56 C 0.8689 0.01226 0.00359 0.0
C57 C 0.18004 0.90356 0.98181 0.0
C58 C 0.25945 0.86288 0.99301 0.0
C59 C 0.33629 0.88016 1.00002 0.0
C60 C 0.25699 0.92054 0.98937 0.0
C61 C 0.33494 0.90875 0.99802 0.0
C62 C 0.1813 0.87467 0.98338 0.0
C63 C 1.02429 0.0127 0.08504 0.0
C64 C 0.09737 0.91627 0.97451 0.0
C65 C 0.76935 0.89305 0.86302 0.0
C66 C 0.73327 0.89936 0.90923 0.0
C67 C 0.20223 1.0086 1.00025 0.0
C68 C 0.88476 0.11633 0.02205 0.0
C69 C 0.80396 0.15676 0.01095 0.0
C70 C 0.72724 0.13958 0.00513 0.0
C71 C 0.80776 0.09953 0.01621 0.0
C72 C 0.88276 0.14502 0.01981 0.0
C73 C 0.72924 0.11123 0.008 0.0
C74 C 0.04806 1.00801 0.91873 0.0
C75 C 0.9683 0.10374 0.0283 0.0
H76 H 0.39757 0.87149 0.00688 0.0
H77 H 0.25633 0.94298 0.98912 0.0
H78 H 0.39435 0.92191 0.00362 0.0
H79 H 0.12126 0.86181 0.97842 0.0
H80 H 0.66554 0.1482 0.99871 0.0
H81 H 0.80863 0.07734 0.01756 0.0
H82 H 0.9427 0.15781 0.02372 0.0
H83 H 0.66983 0.09819 0.00352 0.0
Tb84 Tb 0.0331 0.05536 0.52995 0.0
C85 C 0.17065 0.92267 0.40302 0.0
N86 N 0.09399 0.9359 0.3999 0.0
C87 C 0.10046 0.91159 0.31225 0.0
C88 C 0.21597 0.90364 0.36061 0.0
C89 C 0.05737 0.93007 0.35535 0.0
C90 C 0.1803 0.89843 0.31486 0.0
C91 C 0.28258 0.91474 0.45393 0.0
C92 C 0.2038 0.92819 0.44911 0.0
C93 C 0.32807 0.89581 0.41172 0.0
C94 C 0.29499 0.89034 0.36522 0.0
Tb95 Tb 1.03101 0.96456 0.47332 0.0
N96 N 0.16029 0.94779 0.48924 0.0
C97 C 0.3135 0.92096 0.50105 0.0
C98 C 0.18764 0.95273 0.53518 0.0
C99 C 0.26535 0.93981 0.54182 0.0
H100 H 0.99383 0.93887 0.35275 0.0
H101 H 0.28758 0.94416 0.57836 0.0
H102 H 0.0736 0.08235 0.65022 0.0
H103 H 0.76718 0.07109 0.42565 0.0
H104 H 0.14939 0.96622 0.56666 0.0
H105 H 0.37386 0.91107 0.50633 0.0
H106 H 0.90971 0.05135 0.43685 0.0
H107 H 0.07149 0.90715 0.27705 0.0
H108 H 0.38902 0.88536 0.41465 0.0
H109 H 0.33089 0.87568 0.33303 0.0
H110 H 0.99609 0.11372 0.72623 0.0
H111 H 0.21323 0.88397 0.28137 0.0
H112 H 0.68005 0.1032 0.498 0.0
N113 N 0.97044 0.08371 0.60354 0.0
C114 C 0.89163 0.09575 0.60064 0.0
C115 C 0.96569 0.10861 0.69115 0.0
C116 C 0.84608 0.11442 0.64319 0.0
C117 C 1.0088 0.09036 0.64792 0.0
C118 C 0.88383 0.12058 0.68882 0.0
N119 N 0.90081 0.07031 0.51437 0.0
C120 C 0.87137 0.06457 0.46849 0.0
C121 C 0.77516 0.10139 0.5501 0.0
C122 C 0.85639 0.08931 0.55464 0.0
C123 C 0.74235 0.09436 0.50308 0.0
C124 C 0.79108 0.07609 0.46212 0.0
H125 H 0.85082 0.13483 0.7224 0.0
H126 H 0.72861 0.1408 0.67115 0.0
H127 H 0.66666 0.1294 0.58974 0.0
O128 O 0.06572 0.08145 0.4905 0.0
O129 O 0.90916 0.03165 0.5319 0.0
O130 O 0.90703 0.98469 0.46586 0.0
O131 O 0.0867 0.09913 0.56814 0.0
O132 O 0.06823 0.02853 0.45311 0.0
O133 O 0.98285 0.98549 0.42559 0.0
O134 O 0.9846 0.9403 0.51339 0.0
O135 O 0.1584 0.98702 0.4742 0.0
O136 O 0.16017 0.03628 0.53543 0.0
O137 O 0.9812 0.92035 0.4348 0.0
O138 O 1.00073 0.99134 0.5509 0.0
O139 O 0.08398 0.03505 0.57787 0.0
C140 C 0.86679 1.008 0.49968 0.0
C141 C 0.17799 0.11729 0.52268 0.0
C142 C 0.25874 0.1579 0.51158 0.0
C143 C 0.33622 0.14163 0.5087 0.0
C144 C 0.25563 0.1013 0.51898 0.0
C145 C 0.33449 0.11355 0.51242 0.0
C146 C 0.17948 0.14563 0.5191 0.0
C147 C 1.0232 1.00748 0.41841 0.0
C148 C 0.09489 0.10428 0.52894 0.0
C149 C 0.7647 0.12641 0.63884 0.0
C150 C 0.72942 0.11995 0.59245 0.0
C151 C 0.2002 0.01178 0.504 0.0
C152 C 0.87785 0.90276 0.47521 0.0
C153 C 0.79283 0.86214 0.48403 0.0
C154 C 0.71689 0.87514 0.47432 0.0
C155 C 0.80145 0.91542 0.46614 0.0
C156 C 0.87357 0.87622 0.48424 0.0
C157 C 0.72135 0.90161 0.46566 0.0
C158 C 0.04597 0.0127 0.58515 0.0
C159 C 0.96273 0.91651 0.47426 0.0
H160 H 0.39839 0.1507 0.50377 0.0
H161 H 0.25488 0.07932 0.52088 0.0
H162 H 0.39441 0.10116 0.50993 0.0
H163 H 0.11897 0.15769 0.52106 0.0
H164 H 0.65386 0.86466 0.47281 0.0
H165 H 0.804 0.93577 0.45899 0.0
H166 H 0.933 0.86679 0.49184 0.0
H167 H 0.66249 0.91134 0.45824 0.0
Tb168 Tb 0.53279 0.46452 0.97198 0.0
C169 C 0.66945 0.59708 0.10396 0.0
N170 N 0.59152 0.58391 0.10518 0.0
C171 C 0.5916 0.60795 0.19294 0.0
C172 C 0.71227 0.6159 0.14745 0.0
C173 C 0.55103 0.58975 0.14881 0.0
C174 C 0.67281 0.62094 0.19229 0.0
C175 C 0.78557 0.60571 0.05585 0.0
C176 C 0.70589 0.59202 0.05876 0.0
C177 C 0.82884 0.6243 0.09911 0.0
C178 C 0.79242 0.62932 0.14477 0.0
Tb179 Tb 0.53314 0.55548 0.03027 0.0
N180 N 0.66417 0.57285 0.01758 0.0
C181 C 0.81938 0.60017 0.0095 0.0
C182 C 0.69428 0.56864 0.97239 0.0
C183 C 0.77305 0.5818 0.96761 0.0
H184 H 0.48637 0.58117 0.14983 0.0
H185 H 0.79756 0.57798 0.93167 0.0
H186 H 0.56878 0.4352 0.85158 0.0
H187 H 0.27101 0.4505 0.08118 0.0
H188 H 0.6576 0.55537 0.94011 0.0
H189 H 0.88054 0.61027 0.00566 0.0
H190 H 0.41428 0.46852 0.06735 0.0
H191 H 0.5596 0.61233 0.2274 0.0
H192 H 0.89046 0.63492 0.09766 0.0
H193 H 0.82645 0.64381 0.1778 0.0
H194 H 0.48657 0.40484 0.7767 0.0
H195 H 0.70373 0.63524 0.22656 0.0
H196 H 0.17852 0.41968 0.01052 0.0
N197 N 0.46591 0.43618 0.89973 0.0
C198 C 0.38634 0.42507 0.90407 0.0
C199 C 0.45715 0.4107 0.81228 0.0
C200 C 0.33814 0.40674 0.86238 0.0
C201 C 0.50283 0.42858 0.85474 0.0
C202 C 0.37415 0.39991 0.81608 0.0
N203 N 0.40066 0.45041 0.99011 0.0
C204 C 0.37363 0.45615 0.03645 0.0
C205 C 0.27153 0.42065 0.95672 0.0
C206 C 0.35331 0.43193 0.95069 0.0
C207 C 0.24113 0.4279 0.0043 0.0
C208 C 0.29287 0.44546 0.0443 0.0
H209 H 0.33915 0.38588 0.78312 0.0
H210 H 0.21797 0.38157 0.83661 0.0
H211 H 0.15973 0.39375 0.91913 0.0
O212 O 0.56973 0.43862 0.01118 0.0
O213 O 0.41035 0.48887 0.97022 0.0
O214 O 0.40842 0.53539 0.0372 0.0
O215 O 0.58151 0.42027 0.9329 0.0
O216 O 0.56927 0.49109 0.04863 0.0
O217 O 0.48423 0.53405 0.07722 0.0
O218 O 0.4884 0.57938 0.98943 0.0
O219 O 0.65986 0.53259 0.02793 0.0
O220 O 0.66045 0.48343 0.96617 0.0
O221 O 0.484 0.59983 0.06798 0.0
O222 O 0.50481 0.5289 0.95237 0.0
O223 O 0.58366 0.48427 0.92294 0.0
C224 C 0.36805 0.51232 0.0029 0.0
C225 C 0.67805 0.40152 0.97475 0.0
C226 C 0.75954 0.36009 0.98296 0.0
C227 C 0.83701 0.37321 0.9749 0.0
C228 C 0.75596 0.41437 0.96789 0.0
C229 C 0.83506 0.40024 0.96791 0.0
C230 C 0.6798 0.37462 0.98278 0.0
C231 C 0.52489 0.512 0.08387 0.0
C232 C 0.59439 0.41538 0.97198 0.0
C233 C 0.2561 0.39566 0.86823 0.0
C234 C 0.22295 0.40256 0.91525 0.0
C235 C 0.70099 0.50786 0.99759 0.0
C236 C 0.38255 0.61733 0.0268 0.0
C237 C 0.30071 0.65909 0.01983 0.0
C238 C 0.22369 0.64627 0.02909 0.0
C239 C 0.30513 0.60483 0.03521 0.0
C240 C 0.38031 0.6442 0.01868 0.0
C241 C 0.22604 0.61927 0.03627 0.0
C242 C 0.55162 0.50828 0.91787 0.0
C243 C 0.46664 0.60338 0.0282 0.0
H244 H 0.89943 0.36239 0.97318 0.0
H245 H 0.75517 0.43506 0.9619 0.0
H246 H 0.89505 0.41009 0.9619 0.0
H247 H 0.61905 0.36524 0.989 0.0
H248 H 0.1614 0.65733 0.03169 0.0
H249 H 0.30612 0.5842 0.04158 0.0
H250 H 0.44071 0.65333 0.01143 0.0
H251 H 0.16637 0.60972 0.04333 0.0
Tb252 Tb 0.54524 0.55771 0.52528 0.0
C253 C 0.69548 0.43404 0.41072 0.0
N254 N 0.61583 0.44499 0.40606 0.0
C255 C 0.63563 0.4252 0.31887 0.0
C256 C 0.74999 0.41963 0.36976 0.0
C257 C 0.58297 0.4384 0.36032 0.0
C258 C 0.7203 0.41638 0.32373 0.0
C259 C 0.79671 0.42069 0.46118 0.0
C260 C 0.71909 0.43459 0.45586 0.0
C261 C 0.85324 0.40783 0.42109 0.0
C262 C 0.83014 0.40743 0.37554 0.0
Tb263 Tb 0.53803 0.46615 0.47763 0.0
N264 N 0.66384 0.4477 0.49424 0.0
C265 C 0.81374 0.41933 0.50624 0.0
C266 C 0.67726 0.44488 0.53733 0.0
C267 C 0.75301 0.43103 0.54423 0.0
H268 H 0.51549 0.44254 0.35507 0.0
H269 H 0.76453 0.42943 0.57876 0.0
H270 H 0.48536 0.57463 0.64038 0.0
H271 H 0.41527 0.58954 0.38493 0.0
H272 H 0.62988 0.45371 0.56639 0.0
H273 H 0.87251 0.40867 0.5117 0.0
H274 H 0.52135 0.56604 0.42029 0.0
H275 H 0.60997 0.42103 0.28303 0.0
H276 H 0.91382 0.39736 0.42456 0.0
H277 H 0.87313 0.39651 0.34455 0.0
H278 H 0.37002 0.60426 0.69629 0.0
H279 H 0.76027 0.40549 0.29138 0.0
H280 H 0.2921 0.61924 0.43516 0.0
N281 N 0.43836 0.58241 0.57966 0.0
C282 C 0.38117 0.59821 0.56422 0.0
C283 C 0.37167 0.60241 0.65903 0.0
C284 C 0.31448 0.6158 0.59522 0.0
C285 C 0.43643 0.58513 0.62685 0.0
C286 C 0.30997 0.61764 0.64306 0.0
N287 N 0.45279 0.57829 0.48744 0.0
C288 C 0.46467 0.57685 0.44133 0.0
C289 C 0.32819 0.61099 0.4986 0.0
C290 C 0.38813 0.59581 0.51646 0.0
C291 C 0.33707 0.60804 0.45034 0.0
C292 C 0.40605 0.59109 0.42173 0.0
H293 H 0.25984 0.63102 0.6681 0.0
H294 H 0.20277 0.64452 0.60075 0.0
H295 H 0.21455 0.64025 0.51619 0.0
O296 O 0.58989 0.59751 0.5183 0.0
O297 O 0.41359 0.53736 0.52415 0.0
O298 O 0.40915 0.485 0.47377 0.0
O299 O 0.6249 0.58819 0.58141 0.0
O300 O 0.57763 0.52858 0.44939 0.0
O301 O 0.49065 0.48603 0.42765 0.0
O302 O 0.48026 0.4407 0.51304 0.0
O303 O 0.65933 0.49196 0.51045 0.0
O304 O 0.66004 0.53151 0.48667 0.0
O305 O 0.50431 0.42035 0.43594 0.0
O306 O 0.49797 0.49486 0.55241 0.0
O307 O 0.58062 0.53879 0.57846 0.0
C308 C 0.3708 0.51148 0.49959 0.0
C309 C 0.68019 0.63581 0.58024 0.0
C310 C 0.73551 0.68251 0.57548 0.0
C311 C 0.77755 0.68998 0.6206 0.0
C312 C 0.72279 0.64401 0.62526 0.0
C313 C 0.77091 0.67093 0.64525 0.0
C314 C 0.68572 0.65541 0.55556 0.0
C315 C 0.52831 0.50744 0.41761 0.0
C316 C 0.63026 0.60692 0.55989 0.0
C317 C 0.25462 0.63092 0.5775 0.0
C318 C 0.26136 0.62848 0.52933 0.0
C319 C 0.70231 0.51177 0.49862 0.0
C320 C 0.3919 0.39901 0.46518 0.0
C321 C 0.30975 0.35643 0.46935 0.0
C322 C 0.23862 0.36458 0.44753 0.0
C323 C 0.3208 0.40645 0.44299 0.0
C324 C 0.38637 0.37409 0.47834 0.0
C325 C 0.24419 0.38946 0.43472 0.0
C326 C 0.54365 0.51629 0.58621 0.0
C327 C 0.47369 0.41609 0.47305 0.0
H328 H 0.81495 0.71088 0.63722 0.0
H329 H 0.71901 0.62959 0.64518 0.0
H330 H 0.80333 0.67707 0.68005 0.0
H331 H 0.65283 0.64946 0.52085 0.0
H332 H 0.17916 0.35129 0.43914 0.0
H333 H 0.32498 0.42515 0.43164 0.0
H334 H 0.4419 0.3685 0.49545 0.0
H335 H 0.1893 0.39529 0.4176 0.0
H336 H 0.17264 0.67841 0.9752 0.0
H337 H 0.42154 0.70586 0.04727 0.0
H338 H 0.15929 0.72733 0.97035 0.0
H339 H 0.41234 0.75365 0.03781 0.0
H340 H 0.33494 0.84976 0.06428 0.0
H341 H 0.34506 0.80058 0.06935 0.0
H342 H 0.20172 0.75879 0.93364 0.0
H343 H 0.18827 0.80856 0.93031 0.0
C344 C 0.2249 0.69479 0.98989 0.0
C345 C 0.29739 0.68812 0.01251 0.0
C346 C 0.21795 0.72283 0.98623 0.0
C347 C 0.28431 0.74488 0.00398 0.0
C348 C 0.35862 0.73772 0.02478 0.0
C349 C 0.36474 0.70989 0.02939 0.0
C350 C 0.30558 0.83 0.0356 0.0
C351 C 0.26152 0.83293 0.9967 0.0
C352 C 0.31192 0.80166 0.03822 0.0
C353 C 0.27541 0.7753 0.00157 0.0
C354 C 0.22996 0.77844 0.96296 0.0
C355 C 0.2224 0.80698 0.96083 0.0
H356 H 0.64022 0.31281 0.95421 0.0
H357 H 0.88596 0.34149 0.02948 0.0
H358 H 0.64978 0.26512 0.96392 0.0
H359 H 0.90019 0.29266 0.03433 0.0
H360 H 0.87357 0.21129 0.07359 0.0
H361 H 0.85879 0.26094 0.0701 0.0
H362 H 0.71729 0.21848 0.93382 0.0
H363 H 0.7282 0.16943 0.93931 0.0
C364 C 0.69642 0.30907 0.97282 0.0
C365 C 0.76281 0.33114 0.9905 0.0
C366 C 0.70283 0.28128 0.97756 0.0
C367 C 0.77657 0.27448 0.99924 0.0
C368 C 0.84192 0.29685 0.01778 0.0
C369 C 0.83454 0.32485 0.01408 0.0
C370 C 0.83949 0.21272 0.04294 0.0
C371 C 0.80111 0.18661 0.00704 0.0
C372 C 0.83122 0.24118 0.04068 0.0
C373 C 0.78597 0.24411 0.00184 0.0
C374 C 0.75023 0.2176 0.96514 0.0
C375 C 0.75708 0.18932 0.96796 0.0
H376 H 0.17401 0.21152 0.56615 0.0
H377 H 0.34955 0.17062 0.44396 0.0
H378 H 0.18851 0.26057 0.56006 0.0
H379 H 0.36237 0.2191 0.43677 0.0
H380 H 0.43757 0.31431 0.46054 0.0
H381 H 0.42459 0.26778 0.47395 0.0
H382 H 0.15446 0.28863 0.51432 0.0
H383 H 0.16944 0.33623 0.5046 0.0
C384 C 0.21491 0.21295 0.53764 0.0
C385 C 0.26165 0.18731 0.50598 0.0
C386 C 0.22325 0.24107 0.53405 0.0
C387 C 0.27772 0.24408 0.49832 0.0
C388 C 0.32199 0.21806 0.46573 0.0
C389 C 0.31427 0.19013 0.46963 0.0
C390 C 0.37589 0.30935 0.47331 0.0
C391 C 0.30422 0.329 0.48091 0.0
C392 C 0.36796 0.28231 0.48023 0.0
C393 C 0.28794 0.27399 0.49444 0.0
C394 C 0.21724 0.29417 0.50359 0.0
C395 C 0.22549 0.32136 0.49727 0.0
H396 H 0.6687 0.84809 0.53712 0.0
H397 H 0.90366 0.81266 0.45383 0.0
H398 H 0.65405 0.80178 0.55089 0.0
H399 H 0.88922 0.76618 0.46797 0.0
H400 H 0.88472 0.70711 0.55836 0.0
H401 H 0.89933 0.74897 0.53274 0.0
H402 H 0.62124 0.74776 0.51043 0.0
H403 H 0.60664 0.70623 0.53771 0.0
C404 C 0.71678 0.83026 0.5212 0.0
C405 C 0.78681 0.83409 0.49388 0.0
C406 C 0.70819 0.80359 0.52901 0.0
C407 C 0.76968 0.77997 0.50999 0.0
C408 C 0.84071 0.78393 0.48331 0.0
C409 C 0.8492 0.81066 0.47536 0.0
C410 C 0.8268 0.71557 0.54743 0.0
C411 C 0.74443 0.70369 0.5507 0.0
C412 C 0.83522 0.73945 0.53239 0.0
C413 C 0.7614 0.75208 0.5201 0.0
C414 C 0.67933 0.73895 0.52055 0.0
C415 C 0.67095 0.71492 0.53557 0.0
H416 H 0.31506 0.96698 0.93579 0.0
H417 H 0.31174 0.05005 0.0673 0.0
H418 H 0.47166 0.96645 0.93812 0.0
H419 H 0.46751 0.05281 0.06573 0.0
H420 H 0.7569 0.04591 0.07708 0.0
H421 H 0.60027 0.04417 0.07763 0.0
H422 H 0.6039 0.97689 0.92714 0.0
H423 H 0.76056 0.97757 0.92883 0.0
C424 C 0.34786 0.9856 0.96484 0.0
C425 C 0.29967 1.00882 1.00097 0.0
C426 C 0.43921 0.98571 0.96582 0.0
C427 C 0.48637 1.0098 0.00184 0.0
C428 C 0.43702 0.03325 0.03756 0.0
C429 C 0.34585 0.03227 0.03781 0.0
C430 C 0.72384 0.03066 0.04422 0.0
C431 C 0.77179 0.01177 0.00305 0.0
C432 C 0.63256 0.02977 0.04411 0.0
C433 C 0.58535 1.01043 0.00229 0.0
C434 C 0.63462 0.99176 0.96089 0.0
C435 C 0.72592 0.99224 0.96149 0.0
H436 H 0.30955 0.97011 0.43721 0.0
H437 H 0.31345 0.05331 0.56853 0.0
H438 H 0.46554 0.96743 0.43854 0.0
H439 H 0.47025 0.05393 0.56573 0.0
H440 H 0.75875 0.04172 0.57529 0.0
H441 H 0.60185 0.04238 0.57723 0.0
H442 H 0.59757 0.97749 0.42528 0.0
H443 H 0.75447 0.97573 0.42535 0.0
C444 C 0.34375 0.98795 0.46655 0.0
C445 C 0.2977 0.01149 0.50333 0.0
C446 C 0.43495 0.98701 0.46664 0.0
C447 C 0.48438 1.01055 0.50212 0.0
C448 C 0.43746 0.03465 0.53819 0.0
C449 C 0.34609 0.03473 0.53937 0.0
C450 C 0.72395 0.02752 0.54237 0.0
C451 C 0.76965 1.00856 0.50029 0.0
C452 C 0.63264 0.02803 0.54314 0.0
C453 C 0.58328 1.00998 0.50142 0.0
C454 C 0.63023 0.9913 0.45902 0.0
C455 C 0.72153 0.9904 0.45869 0.0
H456 H 0.8099 0.54815 0.06649 0.0
H457 H 0.81461 0.4681 0.93046 0.0
H458 H 0.96564 0.55116 0.0657 0.0
H459 H 0.9712 0.4674 0.93345 0.0
H460 H 0.26049 0.47912 0.92673 0.0
H461 H 0.10389 0.47822 0.92449 0.0
H462 H 0.09843 0.54226 0.07703 0.0
H463 H 0.25512 0.54421 0.0772 0.0
C464 C 0.84432 0.53099 0.03629 0.0
C465 C 0.79848 0.50817 0.99822 0.0
C466 C 0.93551 0.5321 0.03641 0.0
C467 C 0.98529 0.5094 0.9997 0.0
C468 C 0.93847 0.48603 0.9622 0.0
C469 C 0.84707 0.48587 0.96091 0.0
C470 C 0.22546 0.49308 0.95971 0.0
C471 C 0.27088 0.51181 0.00206 0.0
C472 C 0.13416 0.49244 0.95878 0.0
C473 C 0.08434 0.51015 1.00057 0.0
C474 C 0.1311 0.52866 0.04319 0.0
C475 C 0.22242 0.52969 0.04369 0.0
H476 H 0.25896 0.5573 0.50301 0.0
H477 H 0.2583 0.46644 0.49785 0.0
H478 H 0.10107 0.55819 0.5048 0.0
H479 H 0.0994 0.46601 0.49603 0.0
H480 H 0.81339 0.48588 0.543 0.0
H481 H 0.97171 0.48488 0.5422 0.0
H482 H 0.97357 0.54021 0.45891 0.0
H483 H 0.81468 0.54035 0.45885 0.0
C484 C 0.22551 0.53752 0.50253 0.0
C485 C 0.27273 0.51193 0.50048 0.0
C486 C 0.13391 0.53771 0.50257 0.0
C487 C 0.0857 0.51211 0.50032 0.0
C488 C 0.13305 0.48641 0.49832 0.0
C489 C 0.2248 0.48639 0.49851 0.0
C490 C 0.84729 0.49713 0.52339 0.0
C491 C 0.80024 0.51231 0.49969 0.0
C492 C 0.93886 0.49679 0.5232 0.0
C493 C 0.98711 0.51226 0.50016 0.0
C494 C 0.93983 0.52813 0.47743 0.0
C495 C 0.8481 0.52813 0.47719 0.0
H496 H 0.89739 0.98526 0.34799 0.0
H497 H 0.14748 0.03046 0.37794 0.0
H498 H 0.89574 0.98721 0.26727 0.0
H499 H 0.1464 0.03179 0.29716 0.0
H500 H 0.89883 0.03529 0.15568 0.0
H501 H 0.89664 0.0334 0.23644 0.0
H502 H 0.14593 0.98812 0.20612 0.0
H503 H 0.14754 0.9894 0.12531 0.0
C504 C 0.95214 0.99538 0.33717 0.0
C505 C 1.02263 1.00766 0.36913 0.0
C506 C 0.95087 0.99668 0.29126 0.0
C507 C 1.02091 1.00969 0.2762 0.0
C508 C 0.09177 0.02158 0.30792 0.0
C509 C 0.0922 0.02088 0.35412 0.0
C510 C 0.95316 0.02502 0.16642 0.0
C511 C 1.0234 0.01253 0.13432 0.0
C512 C 0.95159 0.02376 0.21235 0.0
C513 C 1.02108 1.01057 0.2273 0.0
C514 C 0.09172 0.99847 0.19545 0.0
C515 C 0.09244 0.99914 0.14923 0.0
H516 H 0.17305 0.98526 0.84778 0.0
H517 H 0.92439 0.0312 0.87862 0.0
H518 H 0.17469 0.98723 0.76702 0.0
H519 H 0.92547 0.03255 0.79792 0.0
H520 H 0.17208 0.03542 0.65531 0.0
H521 H 0.17482 0.03358 0.73615 0.0
H522 H 0.9244 0.98881 0.7071 0.0
H523 H 0.92226 0.99003 0.62631 0.0
C524 C 0.11866 0.99556 0.83715 0.0
C525 C 0.04862 1.00806 0.86938 0.0
C526 C 0.11992 0.99687 0.79125 0.0
C527 C 0.05029 1.01011 0.77649 0.0
C528 C 0.97982 0.02219 0.80846 0.0
C529 C 0.9794 0.02146 0.85462 0.0
C530 C 0.11764 0.02529 0.66637 0.0
C531 C 0.04697 0.01288 0.63463 0.0
C532 C 0.11953 0.02404 0.71232 0.0
C533 C 0.0499 0.01098 0.7276 0.0
C534 C 0.97876 0.99904 0.69615 0.0
C535 C 0.97772 0.99968 0.64994 0.0
H536 H 0.66193 0.51888 0.36837 0.0
H537 H 0.39194 0.49157 0.35329 0.0
H538 H 0.65909 0.51959 0.28736 0.0
H539 H 0.38872 0.49248 0.27172 0.0
H540 H 0.40503 0.53697 0.15749 0.0
H541 H 0.40386 0.53405 0.23741 0.0
H542 H 0.64128 0.48147 0.19958 0.0
H543 H 0.64276 0.48441 0.12017 0.0
C544 C 0.60205 0.51287 0.34747 0.0
C545 C 0.52704 0.50521 0.36693 0.0
C546 C 0.6005 0.51319 0.30109 0.0
C547 C 0.5236 0.50622 0.27335 0.0
C548 C 0.44864 0.49821 0.29256 0.0
C549 C 0.45062 0.4974 0.33886 0.0
C550 C 0.45723 0.525 0.16648 0.0
C551 C 0.52437 0.51113 0.13275 0.0
C552 C 0.456 0.52304 0.21192 0.0
C553 C 0.52242 0.50749 0.22462 0.0
C554 C 0.58954 0.49375 0.19089 0.0
C555 C 0.5902 0.49538 0.14538 0.0
H556 H 0.48589 0.47157 0.61353 0.0
H557 H 0.617 0.5591 0.67024 0.0
H558 H 0.49621 0.46989 0.6936 0.0
H559 H 0.62255 0.55786 0.75123 0.0
H560 H 0.47731 0.55088 0.89085 0.0
H561 H 0.48304 0.55355 0.81133 0.0
H562 H 0.6412 0.47235 0.75484 0.0
H563 H 0.64186 0.47084 0.83551 0.0
C564 C 0.5167 0.49052 0.64294 0.0
C565 C 0.5503 0.51555 0.63525 0.0
C566 C 0.52265 0.48943 0.68875 0.0
C567 C 0.56014 0.51372 0.72826 0.0
C568 C 0.5933 0.53888 0.72109 0.0
C569 C 0.58977 0.53957 0.6748 0.0
C570 C 0.51413 0.53367 0.86183 0.0
C571 C 0.5571 0.51006 0.86949 0.0
C572 C 0.51734 0.53531 0.81632 0.0
C573 C 0.56194 0.51303 0.77716 0.0
C574 C 0.60568 0.48961 0.78457 0.0
C575 C 0.60486 0.48852 0.83059 0.0
loop_
_geom_bond_atom_site_label_1
_geom_bond_atom_site_label_2
_geom_bond_distance
_geom_bond_site_symmetry_2
_ccdc_geom_bond_type
Tb0 N29 2.617 . S
Tb0 N35 2.572 . S
Tb0 O44 2.465 1_655 S
Tb0 O45 2.387 . S
Tb0 O47 2.428 1_655 S
Tb0 O48 2.308 1_556 S
Tb0 O52 2.349 1_655 S
Tb0 O55 2.393 1_655 S
Tb0 C64 2.802 1_655 S
C1 N2 1.379 . S
C1 C4 1.416 . S
C1 C8 1.424 . S
N2 C1 1.379 . S
N2 C5 1.334 . S
N2 Tb11 2.617 . S
C3 C5 1.390 . S
C3 C6 1.339 . S
C3 H23 0.930 . S
C4 C1 1.416 . S
C4 C6 1.416 . S
C4 C10 1.448 . S
C5 N2 1.334 . S
C5 C3 1.390 . S
C5 H16 0.930 . S
C6 C3 1.339 . S
C6 C4 1.416 . S
C6 H27 0.930 . S
C7 C8 1.413 . S
C7 C9 1.427 . S
C7 C13 1.416 . S
C8 C1 1.424 . S
C8 C7 1.413 . S
C8 N12 1.361 . S
C9 C7 1.427 . S
C9 C10 1.328 . S
C9 H24 0.929 . S
C10 C4 1.448 . S
C10 C9 1.328 . S
C10 H25 0.930 . S
Tb11 N2 2.617 . S
Tb11 N12 2.572 . S
Tb11 O46 2.349 1_455 S
Tb11 O49 2.393 1_455 S
Tb11 O50 2.465 1_455 S
Tb11 O51 2.387 . S
Tb11 O53 2.428 1_455 S
Tb11 O54 2.308 1_554 S
Tb11 C75 2.802 1_455 S
N12 C8 1.361 . S
N12 Tb11 2.572 . S
N12 C14 1.340 1_554 S
C13 C7 1.416 . S
C13 C15 1.332 1_554 S
C13 H21 0.931 1_554 S
C14 N12 1.340 1_556 S
C14 C15 1.407 . S
C14 H20 0.930 . S
C15 C13 1.332 1_556 S
C15 C14 1.407 . S
C15 H17 0.929 . S
H16 C5 0.930 . S
H17 C15 0.929 . S
H18 C33 0.930 . S
H19 C40 0.929 . S
H20 C14 0.930 . S
H21 C13 0.931 1_556 S
H22 C36 0.930 . S
H23 C3 0.930 . S
H24 C9 0.929 . S
H25 C10 0.930 . S
H26 C31 0.930 . S
H27 C6 0.930 . S
H28 C39 0.923 1_554 S
N29 Tb0 2.617 . S
N29 C30 1.379 . S
N29 C33 1.334 . S
C30 N29 1.379 . S
C30 C32 1.416 . S
C30 C38 1.424 . S
C31 H26 0.930 . S
C31 C33 1.390 . S
C31 C34 1.339 . S
C32 C30 1.416 . S
C32 C34 1.416 . S
C32 C65 1.448 . S
C33 H18 0.930 . S
C33 N29 1.334 . S
C33 C31 1.390 . S
C34 C31 1.339 . S
C34 C32 1.416 . S
C34 H41 0.930 . S
N35 Tb0 2.572 . S
N35 C36 1.340 1_556 S
N35 C38 1.361 . S
C36 H22 0.930 . S
C36 N35 1.340 1_554 S
C36 C40 1.407 . S
C37 C38 1.413 . S
C37 C39 1.436 . S
C37 C66 1.427 . S
C38 C30 1.424 . S
C38 N35 1.361 . S
C38 C37 1.413 . S
C39 H28 0.923 1_556 S
C39 C37 1.436 . S
C39 C40 1.321 1_556 S
C40 H19 0.929 . S
C40 C36 1.407 . S
C40 C39 1.321 1_554 S
H41 C34 0.930 . S
H42 C65 0.930 . S
H43 C66 0.929 . S
O44 Tb0 2.465 1_455 S
O44 C64 1.264 . S
O45 Tb0 2.387 . S
O45 C56 1.264 1_565 S
O46 Tb11 2.349 1_655 S
O46 C56 1.243 1_554 S
O47 Tb0 2.428 1_455 S
O47 C64 1.256 . S
O48 Tb0 2.308 1_554 S
O48 C63 1.266 1_565 S
O49 Tb11 2.393 1_655 S
O49 C63 1.248 . S
O50 Tb11 2.465 1_655 S
O50 C75 1.264 . S
O51 Tb11 2.387 . S
O51 C67 1.264 1_545 S
O52 Tb0 2.349 1_455 S
O52 C67 1.243 1_556 S
O53 Tb11 2.428 1_655 S
O53 C75 1.256 . S
O54 Tb11 2.308 1_556 S
O54 C74 1.266 1_545 S
O55 Tb0 2.393 1_455 S
O55 C74 1.248 . S
C56 O45 1.264 1_545 S
C56 O46 1.243 1_556 S
C57 C60 1.399 . S
C57 C62 1.383 . S
C57 C64 1.496 . S
C58 C59 1.399 . S
C58 C62 1.389 . S
C59 C58 1.399 . S
C59 C61 1.380 . S
C59 H76 0.929 . S
C60 C57 1.399 . S
C60 C61 1.392 . S
C60 H77 0.929 . S
C61 C59 1.380 . S
C61 C60 1.392 . S
C61 H78 0.929 . S
C62 C57 1.383 . S
C62 C58 1.389 . S
C62 H79 0.931 1_556 S
C63 O48 1.266 1_545 S
C63 O49 1.248 . S
C64 Tb0 2.802 1_455 S
C64 O44 1.264 . S
C64 O47 1.256 . S
C64 C57 1.496 . S
C65 C32 1.448 . S
C65 H42 0.930 . S
C65 C66 1.328 . S
C66 C37 1.427 . S
C66 H43 0.929 . S
C66 C65 1.328 . S
C67 O51 1.264 1_565 S
C67 O52 1.243 1_554 S
C68 C71 1.399 . S
C68 C72 1.383 . S
C68 C75 1.496 . S
C69 C70 1.399 . S
C69 C72 1.389 . S
C70 C69 1.399 . S
C70 C73 1.380 . S
C70 H80 0.929 . S
C71 C68 1.399 . S
C71 C73 1.392 . S
C71 H81 0.929 . S
C72 C68 1.383 . S
C72 C69 1.389 . S
C72 H82 0.931 1_554 S
C73 C70 1.380 . S
C73 C71 1.392 . S
C73 H83 0.929 . S
C74 O54 1.266 1_565 S
C74 O55 1.248 . S
C75 Tb11 2.802 1_655 S
C75 O50 1.264 . S
C75 O53 1.256 . S
C75 C68 1.496 . S
H76 C59 0.929 . S
H77 C60 0.929 . S
H78 C61 0.929 . S
H79 C62 0.931 1_554 S
H80 C70 0.929 . S
H81 C71 0.929 . S
H82 C72 0.931 1_556 S
H83 C73 0.929 . S
Tb84 N113 2.617 . S
Tb84 N119 2.572 . S
Tb84 O128 2.465 1_655 S
Tb84 O129 2.387 . S
Tb84 O131 2.428 1_655 S
Tb84 O132 2.308 . S
Tb84 O136 2.349 1_655 S
Tb84 O139 2.393 1_655 S
Tb84 C148 2.802 1_655 S
C85 N86 1.379 . S
C85 C88 1.416 . S
C85 C92 1.424 . S
N86 C85 1.379 . S
N86 C89 1.334 . S
N86 Tb95 2.617 . S
C87 C89 1.390 . S
C87 C90 1.339 . S
C87 H107 0.930 . S
C88 C85 1.416 . S
C88 C90 1.416 . S
C88 C94 1.448 . S
C89 N86 1.334 . S
C89 C87 1.390 . S
C89 H100 0.930 . S
C90 C87 1.339 . S
C90 C88 1.416 . S
C90 H111 0.930 . S
C91 C92 1.413 . S
C91 C93 1.427 . S
C91 C97 1.416 . S
C92 C85 1.424 . S
C92 C91 1.413 . S
C92 N96 1.361 . S
C93 C91 1.427 . S
C93 C94 1.328 . S
C93 H108 0.929 . S
C94 C88 1.448 . S
C94 C93 1.328 . S
C94 H109 0.930 . S
Tb95 N86 2.617 . S
Tb95 N96 2.572 . S
Tb95 O130 2.349 1_455 S
Tb95 O133 2.393 1_455 S
Tb95 O134 2.465 1_455 S
Tb95 O135 2.387 . S
Tb95 O137 2.428 1_455 S
Tb95 O138 2.308 . S
Tb95 C159 2.802 1_455 S
N96 C92 1.361 . S
N96 Tb95 2.572 . S
N96 C98 1.340 . S
C97 C91 1.416 . S
C97 C99 1.332 . S
C97 H105 0.931 . S
C98 N96 1.340 . S
C98 C99 1.407 . S
C98 H104 0.930 . S
C99 C97 1.332 . S
C99 C98 1.407 . S
C99 H101 0.929 . S
H100 C89 0.930 . S
H101 C99 0.929 . S
H102 C117 0.930 . S
H103 C124 0.929 . S
H104 C98 0.930 . S
H105 C97 0.931 . S
H106 C120 0.930 . S
H107 C87 0.930 . S
H108 C93 0.929 . S
H109 C94 0.930 . S
H110 C115 0.930 . S
H111 C90 0.930 . S
H112 C123 0.931 . S
N113 Tb84 2.617 . S
N113 C114 1.379 . S
N113 C117 1.334 . S
C114 N113 1.379 . S
C114 C116 1.416 . S
C114 C122 1.424 . S
C115 H110 0.930 . S
C115 C117 1.390 . S
C115 C118 1.339 . S
C116 C114 1.416 . S
C116 C118 1.416 . S
C116 C149 1.448 . S
C117 H102 0.930 . S
C117 N113 1.334 . S
C117 C115 1.390 . S
C118 C115 1.339 . S
C118 C116 1.416 . S
C118 H125 0.930 . S
N119 Tb84 2.572 . S
N119 C120 1.340 . S
N119 C122 1.361 . S
C120 H106 0.930 . S
C120 N119 1.340 . S
C120 C124 1.407 . S
C121 C122 1.413 . S
C121 C123 1.416 . S
C121 C150 1.427 . S
C122 C114 1.424 . S
C122 N119 1.361 . S
C122 C121 1.413 . S
C123 H112 0.931 . S
C123 C121 1.416 . S
C123 C124 1.332 . S
C124 H103 0.929 . S
C124 C120 1.407 . S
C124 C123 1.332 . S
H125 C118 0.930 . S
H126 C149 0.930 . S
H127 C150 0.929 . S
O128 Tb84 2.465 1_455 S
O128 C148 1.264 . S
O129 Tb84 2.387 . S
O129 C140 1.264 1_545 S
O130 Tb95 2.349 1_655 S
O130 C140 1.243 . S
O131 Tb84 2.428 1_455 S
O131 C148 1.256 . S
O132 Tb84 2.308 . S
O132 C147 1.266 1_545 S
O133 Tb95 2.393 1_655 S
O133 C147 1.248 . S
O134 Tb95 2.465 1_655 S
O134 C159 1.264 . S
O135 Tb95 2.387 . S
O135 C151 1.264 1_565 S
O136 Tb84 2.349 1_455 S
O136 C151 1.243 . S
O137 Tb95 2.428 1_655 S
O137 C159 1.256 . S
O138 Tb95 2.308 . S
O138 C158 1.266 1_565 S
O139 Tb84 2.393 1_455 S
O139 C158 1.248 . S
C140 O129 1.264 1_565 S
C140 O130 1.243 . S
C141 C144 1.399 . S
C141 C146 1.383 . S
C141 C148 1.496 . S
C142 C143 1.399 . S
C142 C146 1.389 . S
C143 C142 1.399 . S
C143 C145 1.380 . S
C143 H160 0.929 . S
C144 C141 1.399 . S
C144 C145 1.392 . S
C144 H161 0.929 . S
C145 C143 1.380 . S
C145 C144 1.392 . S
C145 H162 0.929 . S
C146 C141 1.383 . S
C146 C142 1.389 . S
C146 H163 0.931 . S
C147 O132 1.266 1_565 S
C147 O133 1.248 . S
C148 Tb84 2.802 1_455 S
C148 O128 1.264 . S
C148 O131 1.256 . S
C148 C141 1.496 . S
C149 C116 1.448 . S
C149 H126 0.930 . S
C149 C150 1.328 . S
C150 C121 1.427 . S
C150 H127 0.929 . S
C150 C149 1.328 . S
C151 O135 1.264 1_545 S
C151 O136 1.243 . S
C152 C155 1.399 . S
C152 C156 1.383 . S
C152 C159 1.496 . S
C153 C154 1.399 . S
C153 C156 1.389 . S
C154 C153 1.399 . S
C154 C157 1.380 . S
C154 H164 0.929 . S
C155 C152 1.399 . S
C155 C157 1.392 . S
C155 H165 0.929 . S
C156 C152 1.383 . S
C156 C153 1.389 . S
C156 H166 0.931 . S
C157 C154 1.380 . S
C157 C155 1.392 . S
C157 H167 0.929 . S
C158 O138 1.266 1_545 S
C158 O139 1.248 . S
C159 Tb95 2.802 1_655 S
C159 O134 1.264 . S
C159 O137 1.256 . S
C159 C152 1.496 . S
H160 C143 0.929 . S
H161 C144 0.929 . S
H162 C145 0.929 . S
H163 C146 0.931 . S
H164 C154 0.929 . S
H165 C155 0.929 . S
H166 C156 0.931 . S
H167 C157 0.929 . S
Tb168 N197 2.617 . S
Tb168 N203 2.572 . S
Tb168 O212 2.465 . S
Tb168 O213 2.387 . S
Tb168 O215 2.428 . S
Tb168 O216 2.308 1_556 S
Tb168 O220 2.349 . S
Tb168 O223 2.393 . S
Tb168 C232 2.802 . S
C169 N170 1.379 . S
C169 C172 1.416 . S
C169 C176 1.424 . S
N170 C169 1.379 . S
N170 C173 1.334 . S
N170 Tb179 2.617 . S
C171 C173 1.390 . S
C171 C174 1.339 . S
C171 H191 0.930 . S
C172 C169 1.416 . S
C172 C174 1.416 . S
C172 C178 1.448 . S
C173 N170 1.334 . S
C173 C171 1.390 . S
C173 H184 0.930 . S
C174 C171 1.339 . S
C174 C172 1.416 . S
C174 H195 0.930 . S
C175 C176 1.413 . S
C175 C177 1.427 . S
C175 C181 1.416 . S
C176 C169 1.424 . S
C176 C175 1.413 . S
C176 N180 1.361 . S
C177 C175 1.427 . S
C177 C178 1.328 . S
C177 H192 0.929 . S
C178 C172 1.448 . S
C178 C177 1.328 . S
C178 H193 0.930 . S
Tb179 N170 2.617 . S
Tb179 N180 2.572 . S
Tb179 O214 2.349 . S
Tb179 O217 2.393 . S
Tb179 O218 2.465 . S
Tb179 O219 2.387 . S
Tb179 O221 2.428 . S
Tb179 O222 2.308 1_554 S
Tb179 C243 2.802 . S
N180 C176 1.361 . S
N180 Tb179 2.572 . S
N180 C182 1.340 1_554 S
C181 C175 1.416 . S
C181 C183 1.332 1_554 S
C181 H189 0.931 1_554 S
C182 N180 1.340 1_556 S
C182 C183 1.407 . S
C182 H188 0.930 . S
C183 C181 1.332 1_556 S
C183 C182 1.407 . S
C183 H185 0.929 . S
H184 C173 0.930 . S
H185 C183 0.929 . S
H186 C201 0.930 . S
H187 C208 0.929 . S
H188 C182 0.930 . S
H189 C181 0.931 1_556 S
H190 C204 0.930 . S
H191 C171 0.930 . S
H192 C177 0.929 . S
H193 C178 0.930 . S
H194 C199 0.930 . S
H195 C174 0.930 . S
H196 C207 0.923 1_554 S
N197 Tb168 2.617 . S
N197 C198 1.379 . S
N197 C201 1.334 . S
C198 N197 1.379 . S
C198 C200 1.416 . S
C198 C206 1.424 . S
C199 H194 0.930 . S
C199 C201 1.390 . S
C199 C202 1.339 . S
C200 C198 1.416 . S
C200 C202 1.416 . S
C200 C233 1.448 . S
C201 H186 0.930 . S
C201 N197 1.334 . S
C201 C199 1.390 . S
C202 C199 1.339 . S
C202 C200 1.416 . S
C202 H209 0.930 . S
N203 Tb168 2.572 . S
N203 C204 1.340 1_556 S
N203 C206 1.361 . S
C204 H190 0.930 . S
C204 N203 1.340 1_554 S
C204 C208 1.407 . S
C205 C206 1.413 . S
C205 C207 1.435 . S
C205 C234 1.427 . S
C206 C198 1.424 . S
C206 N203 1.361 . S
C206 C205 1.413 . S
C207 H196 0.923 1_556 S
C207 C205 1.435 . S
C207 C208 1.321 1_556 S
C208 H187 0.929 . S
C208 C204 1.407 . S
C208 C207 1.321 1_554 S
H209 C202 0.930 . S
H210 C233 0.930 . S
H211 C234 0.929 . S
O212 Tb168 2.465 . S
O212 C232 1.264 . S
O213 Tb168 2.387 . S
O213 C224 1.264 . S
O214 Tb179 2.349 . S
O214 C224 1.243 1_554 S
O215 Tb168 2.428 . S
O215 C232 1.256 . S
O216 Tb168 2.308 1_554 S
O216 C231 1.266 . S
O217 Tb179 2.393 . S
O217 C231 1.248 . S
O218 Tb179 2.465 . S
O218 C243 1.264 . S
O219 Tb179 2.387 . S
O219 C235 1.264 . S
O220 Tb168 2.349 . S
O220 C235 1.243 1_556 S
O221 Tb179 2.428 . S
O221 C243 1.256 . S
O222 Tb179 2.308 1_556 S
O222 C242 1.266 . S
O223 Tb168 2.393 . S
O223 C242 1.248 . S
C224 O213 1.264 . S
C224 O214 1.243 1_556 S
C225 C228 1.399 . S
C225 C230 1.383 . S
C225 C232 1.496 . S
C226 C227 1.399 . S
C226 C230 1.389 . S
C227 C226 1.399 . S
C227 C229 1.380 . S
C227 H244 0.929 . S
C228 C225 1.399 . S
C228 C229 1.392 . S
C228 H245 0.929 . S
C229 C227 1.380 . S
C229 C228 1.392 . S
C229 H246 0.929 . S
C230 C225 1.383 . S
C230 C226 1.389 . S
C230 H247 0.931 1_556 S
C231 O216 1.266 . S
C231 O217 1.248 . S
C232 Tb168 2.802 . S
C232 O212 1.264 . S
C232 O215 1.256 . S
C232 C225 1.496 . S
C233 C200 1.448 . S
C233 H210 0.930 . S
C233 C234 1.328 . S
C234 C205 1.427 . S
C234 H211 0.929 . S
C234 C233 1.328 . S
C235 O219 1.264 . S
C235 O220 1.243 1_554 S
C236 C239 1.399 . S
C236 C240 1.383 . S
C236 C243 1.496 . S
C237 C238 1.399 . S
C237 C240 1.389 . S
C238 C237 1.399 . S
C238 C241 1.380 . S
C238 H248 0.929 . S
C239 C236 1.399 . S
C239 C241 1.392 . S
C239 H249 0.929 . S
C240 C236 1.383 . S
C240 C237 1.389 . S
C240 H250 0.931 1_554 S
C241 C238 1.380 . S
C241 C239 1.392 . S
C241 H251 0.929 . S
C242 O222 1.266 . S
C242 O223 1.248 . S
C243 Tb179 2.802 . S
C243 O218 1.264 . S
C243 O221 1.256 . S
C243 C236 1.496 . S
H244 C227 0.929 . S
H245 C228 0.929 . S
H246 C229 0.929 . S
H247 C230 0.931 1_554 S
H248 C238 0.929 . S
H249 C239 0.929 . S
H250 C240 0.931 1_556 S
H251 C241 0.929 . S
Tb252 N281 2.617 . S
Tb252 N287 2.572 . S
Tb252 O296 2.465 . S
Tb252 O297 2.387 . S
Tb252 O299 2.428 . S
Tb252 O300 2.308 . S
Tb252 O304 2.349 . S
Tb252 O307 2.393 . S
Tb252 C316 2.802 . S
C253 N254 1.379 . S
C253 C256 1.416 . S
C253 C260 1.424 . S
N254 C253 1.379 . S
N254 C257 1.334 . S
N254 Tb263 2.617 . S
C255 C257 1.390 . S
C255 C258 1.339 . S
C255 H275 0.930 . S
C256 C253 1.416 . S
C256 C258 1.416 . S
C256 C262 1.448 . S
C257 N254 1.334 . S
C257 C255 1.390 . S
C257 H268 0.930 . S
C258 C255 1.339 . S
C258 C256 1.416 . S
C258 H279 0.930 . S
C259 C260 1.413 . S
C259 C261 1.427 . S
C259 C265 1.416 . S
C260 C253 1.424 . S
C260 C259 1.413 . S
C260 N264 1.361 . S
C261 C259 1.427 . S
C261 C262 1.328 . S
C261 H276 0.929 . S
C262 C256 1.448 . S
C262 C261 1.328 . S
C262 H277 0.930 . S
Tb263 N254 2.617 . S
Tb263 N264 2.572 . S
Tb263 O298 2.349 . S
Tb263 O301 2.393 . S
Tb263 O302 2.465 . S
Tb263 O303 2.387 . S
Tb263 O305 2.428 . S
Tb263 O306 2.308 . S
Tb263 C327 2.802 . S
N264 C260 1.361 . S
N264 Tb263 2.572 . S
N264 C266 1.340 . S
C265 C259 1.416 . S
C265 C267 1.332 . S
C265 H273 0.931 . S
C266 N264 1.340 . S
C266 C267 1.407 . S
C266 H272 0.930 . S
C267 C265 1.332 . S
C267 C266 1.407 . S
C267 H269 0.929 . S
H268 C257 0.930 . S
H269 C267 0.929 . S
H270 C285 0.930 . S
H271 C292 0.929 . S
H272 C266 0.930 . S
H273 C265 0.931 . S
H274 C288 0.930 . S
H275 C255 0.930 . S
H276 C261 0.929 . S
H277 C262 0.930 . S
H278 C283 0.930 . S
H279 C258 0.930 . S
H280 C291 0.931 . S
N281 Tb252 2.617 . S
N281 C282 1.379 . S
N281 C285 1.334 . S
C282 N281 1.379 . S
C282 C284 1.416 . S
C282 C290 1.424 . S
C283 H278 0.930 . S
C283 C285 1.390 . S
C283 C286 1.339 . S
C284 C282 1.416 . S
C284 C286 1.416 . S
C284 C317 1.448 . S
C285 H270 0.930 . S
C285 N281 1.334 . S
C285 C283 1.390 . S
C286 C283 1.339 . S
C286 C284 1.416 . S
C286 H293 0.930 . S
N287 Tb252 2.572 . S
N287 C288 1.340 . S
N287 C290 1.361 . S
C288 H274 0.930 . S
C288 N287 1.340 . S
C288 C292 1.407 . S
C289 C290 1.413 . S
C289 C291 1.416 . S
C289 C318 1.427 . S
C290 C282 1.424 . S
C290 N287 1.361 . S
C290 C289 1.413 . S
C291 H280 0.931 . S
C291 C289 1.416 . S
C291 C292 1.332 . S
C292 H271 0.929 . S
C292 C288 1.407 . S
C292 C291 1.332 . S
H293 C286 0.930 . S
H294 C317 0.930 . S
H295 C318 0.929 . S
O296 Tb252 2.465 . S
O296 C316 1.264 . S
O297 Tb252 2.387 . S
O297 C308 1.264 . S
O298 Tb263 2.349 . S
O298 C308 1.243 . S
O299 Tb252 2.428 . S
O299 C316 1.256 . S
O300 Tb252 2.308 . S
O300 C315 1.266 . S
O301 Tb263 2.393 . S
O301 C315 1.248 . S
O302 Tb263 2.465 . S
O302 C327 1.264 . S
O303 Tb263 2.387 . S
O303 C319 1.264 . S
O304 Tb252 2.349 . S
O304 C319 1.243 . S
O305 Tb263 2.428 . S
O305 C327 1.256 . S
O306 Tb263 2.308 . S
O306 C326 1.266 . S
O307 Tb252 2.393 . S
O307 C326 1.248 . S
C308 O297 1.264 . S
C308 O298 1.243 . S
C309 C312 1.399 . S
C309 C314 1.383 . S
C309 C316 1.496 . S
C310 C311 1.399 . S
C310 C314 1.389 . S
C311 C310 1.399 . S
C311 C313 1.380 . S
C311 H328 0.929 . S
C312 C309 1.399 . S
C312 C313 1.392 . S
C312 H329 0.929 . S
C313 C311 1.380 . S
C313 C312 1.392 . S
C313 H330 0.929 . S
C314 C309 1.383 . S
C314 C310 1.389 . S
C314 H331 0.931 . S
C315 O300 1.266 . S
C315 O301 1.248 . S
C316 Tb252 2.802 . S
C316 O296 1.264 . S
C316 O299 1.256 . S
C316 C309 1.496 . S
C317 C284 1.448 . S
C317 H294 0.930 . S
C317 C318 1.328 . S
C318 C289 1.427 . S
C318 H295 0.929 . S
C318 C317 1.328 . S
C319 O303 1.264 . S
C319 O304 1.243 . S
C320 C323 1.399 . S
C320 C324 1.383 . S
C320 C327 1.496 . S
C321 C322 1.399 . S
C321 C324 1.389 . S
C322 C321 1.399 . S
C322 C325 1.380 . S
C322 H332 0.929 . S
C323 C320 1.399 . S
C323 C325 1.392 . S
C323 H333 0.929 . S
C324 C320 1.383 . S
C324 C321 1.389 . S
C324 H334 0.931 . S
C325 C322 1.380 . S
C325 C323 1.392 . S
C325 H335 0.929 . S
C326 O306 1.266 . S
C326 O307 1.248 . S
C327 Tb263 2.802 . S
C327 O302 1.264 . S
C327 O305 1.256 . S
C327 C320 1.496 . S
H328 C311 0.929 . S
H329 C312 0.929 . S
H330 C313 0.929 . S
H331 C314 0.931 . S
H332 C322 0.929 . S
H333 C323 0.929 . S
H334 C324 0.931 . S
H335 C325 0.929 . S
H336 C344 0.950 . S
H337 C349 0.950 . S
H338 C346 0.950 . S
H339 C348 0.950 . S
H340 C350 0.950 . S
H341 C352 0.950 . S
H342 C354 0.950 . S
H343 C355 0.950 . S
C344 H336 0.950 . S
C344 C345 1.397 . S
C344 C346 1.391 . S
C345 C344 1.397 . S
C345 C349 1.387 1_556 S
C346 H338 0.950 . S
C346 C344 1.391 . S
C346 C347 1.396 1_556 S
C347 C346 1.396 1_554 S
C347 C348 1.407 . S
C347 C353 1.487 . S
C348 H339 0.950 . S
C348 C347 1.407 . S
C348 C349 1.391 . S
C349 H337 0.950 . S
C349 C345 1.387 1_554 S
C349 C348 1.391 . S
C350 H340 0.950 . S
C350 C351 1.386 . S
C350 C352 1.391 . S
C351 C350 1.386 . S
C351 C355 1.393 1_554 S
C352 H341 0.950 . S
C352 C350 1.391 . S
C352 C353 1.401 . S
C353 C347 1.487 . S
C353 C352 1.401 . S
C353 C354 1.397 1_554 S
C354 H342 0.950 . S
C354 C353 1.397 1_556 S
C354 C355 1.391 . S
C355 H343 0.950 . S
C355 C351 1.393 1_556 S
C355 C354 1.391 . S
H356 C364 0.950 . S
H357 C369 0.950 . S
H358 C366 0.950 . S
H359 C368 0.950 . S
H360 C370 0.950 . S
H361 C372 0.950 . S
H362 C374 0.950 . S
H363 C375 0.950 . S
C364 H356 0.950 . S
C364 C365 1.386 1_556 S
C364 C366 1.391 . S
C365 C364 1.386 1_554 S
C365 C369 1.393 . S
C366 H358 0.950 . S
C366 C364 1.391 . S
C366 C367 1.393 1_556 S
C367 C366 1.393 1_554 S
C367 C368 1.402 . S
C367 C373 1.493 . S
C368 H359 0.950 . S
C368 C367 1.402 . S
C368 C369 1.391 . S
C369 H357 0.950 . S
C369 C365 1.393 . S
C369 C368 1.391 . S
C370 H360 0.950 . S
C370 C371 1.386 1_554 S
C370 C372 1.391 . S
C371 C370 1.386 1_556 S
C371 C375 1.393 . S
C372 H361 0.950 . S
C372 C370 1.391 . S
C372 C373 1.403 . S
C373 C367 1.493 . S
C373 C372 1.403 . S
C373 C374 1.397 1_554 S
C374 H362 0.950 . S
C374 C373 1.397 1_556 S
C374 C375 1.391 . S
C375 H363 0.950 . S
C375 C371 1.393 . S
C375 C374 1.391 . S
H376 C384 0.950 . S
H377 C389 0.950 . S
H378 C386 0.950 . S
H379 C388 0.950 . S
H380 C390 0.950 . S
H381 C392 0.950 . S
H382 C394 0.950 . S
H383 C395 0.950 . S
C384 H376 0.950 . S
C384 C385 1.386 . S
C384 C386 1.391 . S
C385 C384 1.386 . S
C385 C389 1.393 . S
C386 H378 0.950 . S
C386 C384 1.391 . S
C386 C387 1.400 . S
C387 C386 1.400 . S
C387 C388 1.398 . S
C387 C393 1.491 . S
C388 H379 0.950 . S
C388 C387 1.398 . S
C388 C389 1.391 . S
C389 H377 0.950 . S
C389 C385 1.393 . S
C389 C388 1.391 . S
C390 H380 0.950 . S
C390 C391 1.386 . S
C390 C392 1.391 . S
C391 C390 1.386 . S
C391 C395 1.393 . S
C392 H381 0.950 . S
C392 C390 1.391 . S
C392 C393 1.400 . S
C393 C387 1.491 . S
C393 C392 1.400 . S
C393 C394 1.398 . S
C394 H382 0.950 . S
C394 C393 1.398 . S
C394 C395 1.391 . S
C395 H383 0.950 . S
C395 C391 1.393 . S
C395 C394 1.391 . S
H396 C404 0.950 . S
H397 C409 0.950 . S
H398 C406 0.950 . S
H399 C408 0.950 . S
H400 C410 0.950 . S
H401 C412 0.950 . S
H402 C414 0.950 . S
H403 C415 0.950 . S
C404 H396 0.950 . S
C404 C405 1.386 . S
C404 C406 1.391 . S
C405 C404 1.386 . S
C405 C409 1.393 . S
C406 H398 0.950 . S
C406 C404 1.391 . S
C406 C407 1.400 . S
C407 C406 1.400 . S
C407 C408 1.398 . S
C407 C413 1.491 . S
C408 H399 0.950 . S
C408 C407 1.398 . S
C408 C409 1.391 . S
C409 H397 0.950 . S
C409 C405 1.393 . S
C409 C408 1.391 . S
C410 H400 0.950 . S
C410 C411 1.386 . S
C410 C412 1.391 . S
C411 C410 1.386 . S
C411 C415 1.393 . S
C412 H401 0.950 . S
C412 C410 1.391 . S
C412 C413 1.400 . S
C413 C407 1.491 . S
C413 C412 1.400 . S
C413 C414 1.398 . S
C414 H402 0.950 . S
C414 C413 1.398 . S
C414 C415 1.391 . S
C415 H403 0.950 . S
C415 C411 1.393 . S
C415 C414 1.391 . S
H416 C424 0.950 . S
H417 C429 0.950 . S
H418 C426 0.950 . S
H419 C428 0.950 . S
H420 C430 0.950 . S
H421 C432 0.950 . S
H422 C434 0.950 . S
H423 C435 0.950 . S
C424 H416 0.950 . S
C424 C425 1.398 . S
C424 C426 1.391 . S
C425 C424 1.398 . S
C425 C429 1.381 1_566 S
C426 H418 0.950 . S
C426 C424 1.391 . S
C426 C427 1.401 . S
C427 C426 1.401 . S
C427 C428 1.398 1_566 S
C427 C433 1.490 1_566 S
C428 H419 0.950 . S
C428 C427 1.398 1_544 S
C428 C429 1.391 . S
C429 H417 0.950 . S
C429 C425 1.381 1_544 S
C429 C428 1.391 . S
C430 H420 0.950 . S
C430 C431 1.386 . S
C430 C432 1.391 . S
C431 C430 1.386 . S
C431 C435 1.393 1_544 S
C432 H421 0.950 . S
C432 C430 1.391 . S
C432 C433 1.421 . S
C433 C427 1.490 1_544 S
C433 C432 1.421 . S
C433 C434 1.378 1_544 S
C434 H422 0.950 . S
C434 C433 1.378 1_566 S
C434 C435 1.391 . S
C435 H423 0.950 . S
C435 C431 1.393 1_566 S
C435 C434 1.391 . S
H436 C444 0.950 . S
H437 C449 0.950 . S
H438 C446 0.950 . S
H439 C448 0.950 . S
H440 C450 0.950 . S
H441 C452 0.950 . S
H442 C454 0.950 . S
H443 C455 0.950 . S
C444 H436 0.950 . S
C444 C445 1.386 1_565 S
C444 C446 1.391 . S
C445 C444 1.386 1_545 S
C445 C449 1.393 . S
C446 H438 0.950 . S
C446 C444 1.391 . S
C446 C447 1.400 1_565 S
C447 C446 1.400 1_545 S
C447 C448 1.398 . S
C447 C453 1.488 1_545 S
C448 H439 0.950 . S
C448 C447 1.398 . S
C448 C449 1.391 . S
C449 H437 0.950 . S
C449 C445 1.393 . S
C449 C448 1.391 . S
C450 H440 0.950 . S
C450 C451 1.386 1_545 S
C450 C452 1.391 . S
C451 C450 1.386 1_565 S
C451 C455 1.393 . S
C452 H441 0.950 . S
C452 C450 1.391 . S
C452 C453 1.393 1_545 S
C453 C447 1.488 1_565 S
C453 C452 1.393 1_565 S
C453 C454 1.410 . S
C454 H442 0.950 . S
C454 C453 1.410 . S
C454 C455 1.391 . S
C455 H443 0.950 . S
C455 C451 1.393 . S
C455 C454 1.391 . S
H456 C464 0.950 . S
H457 C469 0.950 . S
H458 C466 0.950 . S
H459 C468 0.950 . S
H460 C470 0.950 . S
H461 C472 0.950 . S
H462 C474 0.950 . S
H463 C475 0.950 . S
C464 H456 0.950 . S
C464 C465 1.386 1_554 S
C464 C466 1.391 . S
C465 C464 1.386 1_556 S
C465 C469 1.393 . S
C466 H458 0.950 . S
C466 C464 1.391 . S
C466 C467 1.397 1_554 S
C467 C466 1.397 1_556 S
C467 C468 1.402 . S
C467 C473 1.491 1_656 S
C468 H459 0.950 . S
C468 C467 1.402 . S
C468 C469 1.391 . S
C469 H457 0.950 . S
C469 C465 1.393 . S
C469 C468 1.391 . S
C470 H460 0.950 . S
C470 C471 1.386 1_556 S
C470 C472 1.391 . S
C471 C470 1.386 1_554 S
C471 C475 1.393 . S
C472 H461 0.950 . S
C472 C470 1.391 . S
C472 C473 1.381 1_556 S
C473 C467 1.491 1_454 S
C473 C472 1.381 1_554 S
C473 C474 1.417 . S
C474 H462 0.950 . S
C474 C473 1.417 . S
C474 C475 1.391 . S
C475 H463 0.950 . S
C475 C471 1.393 . S
C475 C474 1.391 . S
H476 C484 0.950 . S
H477 C489 0.950 . S
H478 C486 0.950 . S
H479 C488 0.950 . S
H480 C490 0.950 . S
H481 C492 0.950 . S
H482 C494 0.950 . S
H483 C495 0.950 . S
C484 H476 0.950 . S
C484 C485 1.386 . S
C484 C486 1.391 . S
C485 C484 1.386 . S
C485 C489 1.393 . S
C486 H478 0.950 . S
C486 C484 1.391 . S
C486 C487 1.400 . S
C487 C486 1.400 . S
C487 C488 1.398 . S
C487 C493 1.491 1_455 S
C488 H479 0.950 . S
C488 C487 1.398 . S
C488 C489 1.391 . S
C489 H477 0.950 . S
C489 C485 1.393 . S
C489 C488 1.391 . S
C490 H480 0.950 . S
C490 C491 1.386 . S
C490 C492 1.391 . S
C491 C490 1.386 . S
C491 C495 1.393 . S
C492 H481 0.950 . S
C492 C490 1.391 . S
C492 C493 1.400 . S
C493 C487 1.491 1_655 S
C493 C492 1.400 . S
C493 C494 1.398 . S
C494 H482 0.950 . S
C494 C493 1.398 . S
C494 C495 1.391 . S
C495 H483 0.950 . S
C495 C491 1.393 . S
C495 C494 1.391 . S
H496 C504 0.950 . S
H497 C509 0.950 . S
H498 C506 0.950 . S
H499 C508 0.950 . S
H500 C510 0.950 . S
H501 C512 0.950 . S
H502 C514 0.950 . S
H503 C515 0.950 . S
C504 H496 0.950 . S
C504 C505 1.362 1_565 S
C504 C506 1.391 . S
C505 C504 1.362 1_545 S
C505 C509 1.436 1_655 S
C506 H498 0.950 . S
C506 C504 1.391 . S
C506 C507 1.380 1_565 S
C507 C506 1.380 1_545 S
C507 C508 1.409 1_655 S
C507 C513 1.499 1_655 S
C508 H499 0.950 . S
C508 C507 1.409 1_455 S
C508 C509 1.391 . S
C509 H497 0.950 . S
C509 C505 1.436 1_455 S
C509 C508 1.391 . S
C510 H500 0.950 . S
C510 C511 1.378 1_545 S
C510 C512 1.391 . S
C511 C510 1.378 1_565 S
C511 C515 1.406 1_455 S
C512 H501 0.950 . S
C512 C510 1.391 . S
C512 C513 1.401 . S
C513 C507 1.499 1_455 S
C513 C512 1.401 . S
C513 C514 1.398 1_445 S
C514 H502 0.950 . S
C514 C513 1.398 1_665 S
C514 C515 1.391 . S
C515 H503 0.950 . S
C515 C511 1.406 1_655 S
C515 C514 1.391 . S
H516 C524 0.950 . S
H517 C529 0.950 . S
H518 C526 0.950 . S
H519 C528 0.950 . S
H520 C530 0.950 . S
H521 C532 0.950 . S
H522 C534 0.950 . S
H523 C535 0.950 1_655 S
C524 H516 0.950 . S
C524 C525 1.363 1_565 S
C524 C526 1.391 . S
C525 C524 1.363 1_545 S
C525 C529 1.435 1_655 S
C526 H518 0.950 . S
C526 C524 1.391 . S
C526 C527 1.382 1_565 S
C527 C526 1.382 1_545 S
C527 C528 1.409 1_655 S
C527 C533 1.498 1_655 S
C528 H519 0.950 . S
C528 C527 1.409 1_455 S
C528 C529 1.391 . S
C529 H517 0.950 . S
C529 C525 1.435 1_455 S
C529 C528 1.391 . S
C530 H520 0.950 . S
C530 C531 1.379 1_545 S
C530 C532 1.391 . S
C531 C530 1.379 1_565 S
C531 C535 1.405 . S
C532 H521 0.950 . S
C532 C530 1.391 . S
C532 C533 1.401 . S
C533 C527 1.498 1_455 S
C533 C532 1.401 . S
C533 C534 1.398 1_545 S
C534 H522 0.950 . S
C534 C533 1.398 1_565 S
C534 C535 1.391 . S
C535 H523 0.950 1_455 S
C535 C531 1.405 . S
C535 C534 1.391 . S
H536 C544 0.950 . S
H537 C549 0.950 . S
H538 C546 0.950 . S
H539 C548 0.950 . S
H540 C550 0.950 . S
H541 C552 0.950 . S
H542 C554 0.950 . S
H543 C555 0.950 . S
C544 H536 0.950 . S
C544 C545 1.386 . S
C544 C546 1.391 . S
C545 C544 1.386 . S
C545 C549 1.393 . S
C546 H538 0.950 . S
C546 C544 1.391 . S
C546 C547 1.400 . S
C547 C546 1.400 . S
C547 C548 1.398 . S
C547 C553 1.491 . S
C548 H539 0.950 . S
C548 C547 1.398 . S
C548 C549 1.391 . S
C549 H537 0.950 . S
C549 C545 1.393 . S
C549 C548 1.391 . S
C550 H540 0.950 . S
C550 C551 1.386 . S
C550 C552 1.391 . S
C551 C550 1.386 . S
C551 C555 1.393 . S
C552 H541 0.950 . S
C552 C550 1.391 . S
C552 C553 1.400 . S
C553 C547 1.491 . S
C553 C552 1.400 . S
C553 C554 1.398 . S
C554 H542 0.950 . S
C554 C553 1.398 . S
C554 C555 1.391 . S
C555 H543 0.950 . S
C555 C551 1.393 . S
C555 C554 1.391 . S
H556 C564 0.950 . S
H557 C569 0.950 . S
H558 C566 0.950 . S
H559 C568 0.950 . S
H560 C570 0.950 . S
H561 C572 0.950 . S
H562 C574 0.950 . S
H563 C575 0.950 . S
C564 H556 0.950 . S
C564 C565 1.386 . S
C564 C566 1.391 . S
C565 C564 1.386 . S
C565 C569 1.393 . S
C566 H558 0.950 . S
C566 C564 1.391 . S
C566 C567 1.400 . S
C567 C566 1.400 . S
C567 C568 1.398 . S
C567 C573 1.491 . S
C568 H559 0.950 . S
C568 C567 1.398 . S
C568 C569 1.391 . S
C569 H557 0.950 . S
C569 C565 1.393 . S
C569 C568 1.391 . S
C570 H560 0.950 . S
C570 C571 1.386 . S
C570 C572 1.391 . S
C571 C570 1.386 . S
C571 C575 1.393 . S
C572 H561 0.950 . S
C572 C570 1.391 . S
C572 C573 1.400 . S
C573 C567 1.491 . S
C573 C572 1.400 . S
C573 C574 1.398 . S
C574 H562 0.950 . S
C574 C573 1.398 . S
C574 C575 1.391 . S
C575 H563 0.950 . S
C575 C571 1.393 . S
C575 C574 1.391 . S
C345 C237 1.385 1_556 S
C351 C58 1.394 1_554 S
C365 C226 1.401 1_554 S
C371 C69 1.401 1_556 S
C385 C142 1.396 . S
C391 C321 1.395 . S
C405 C153 1.384 . S
C411 C310 1.385 . S
C425 C67 1.965 1_556 S
C431 C56 1.967 1_554 S
C445 C151 1.967 . S
C451 C140 1.967 . S
C465 C235 1.969 1_556 S
C471 C224 1.969 1_554 S
C485 C308 1.970 . S
C491 C319 1.970 . S
C505 C147 1.451 1_545 S
C511 C63 1.478 1_465 S
C525 C74 1.462 1_645 S
C531 C158 1.468 1_565 S
C545 C315 1.471 . S
C551 C231 1.476 . S
C565 C326 1.475 . S
C571 C242 1.485 . S
