# Generated by pormake.
# Topology lcs, (4)-cn, num edge types: 1
# Building blocks:
#     Node 0, Type 0, BuildingBlock: ICAMEG_clean_sbu_1, # of connection points: 4
#     Node 1, Type 0, BuildingBlock: ICAMEG_clean_sbu_1, # of connection points: 4
#     Node 2, Type 0, BuildingBlock: ICAMEG_clean_sbu_1, # of connection points: 4
#     Node 3, Type 0, BuildingBlock: ICAMEG_clean_sbu_1, # of connection points: 4
#     Node 4, Type 0, BuildingBlock: ICAMEG_clean_sbu_1, # of connection points: 4
#     Node 5, Type 0, BuildingBlock: ICAMEG_clean_sbu_1, # of connection points: 4
#     Node 6, Type 0, BuildingBlock: ICAMEG_clean_sbu_1, # of connection points: 4
#     Node 7, Type 0, BuildingBlock: ICAMEG_clean_sbu_1, # of connection points: 4
#     Node 8, Type 0, BuildingBlock: ICAMEG_clean_sbu_1, # of connection points: 4
#     Node 9, Type 0, BuildingBlock: ICAMEG_clean_sbu_1, # of connection points: 4
#     Node 10, Type 0, BuildingBlock: ICAMEG_clean_sbu_1, # of connection points: 4
#     Node 11, Type 0, BuildingBlock: ICAMEG_clean_sbu_1, # of connection points: 4
#     Node 12, Type 0, BuildingBlock: ICAMEG_clean_sbu_1, # of connection points: 4
#     Node 13, Type 0, BuildingBlock: ICAMEG_clean_sbu_1, # of connection points: 4
#     Node 14, Type 0, BuildingBlock: ICAMEG_clean_sbu_1, # of connection points: 4
#     Node 15, Type 0, BuildingBlock: ICAMEG_clean_sbu_1, # of connection points: 4
#     Node 16, Type 0, BuildingBlock: ICAMEG_clean_sbu_1, # of connection points: 4
#     Node 17, Type 0, BuildingBlock: ICAMEG_clean_sbu_1, # of connection points: 4
#     Node 18, Type 0, BuildingBlock: ICAMEG_clean_sbu_1, # of connection points: 4
#     Node 19, Type 0, BuildingBlock: ICAMEG_clean_sbu_1, # of connection points: 4
#     Node 20, Type 0, BuildingBlock: ICAMEG_clean_sbu_1, # of connection points: 4
#     Node 21, Type 0, BuildingBlock: ICAMEG_clean_sbu_1, # of connection points: 4
#     Node 22, Type 0, BuildingBlock: ICAMEG_clean_sbu_1, # of connection points: 4
#     Node 23, Type 0, BuildingBlock: ICAMEG_clean_sbu_1, # of connection points: 4
#     Edge 24, Type (0, 0), BuildingBlock: XIVTED_clean_linker_0, # of connection points: 2
#     Edge 25, Type (0, 0), BuildingBlock: XIVTED_clean_linker_0, # of connection points: 2
#     Edge 26, Type (0, 0), BuildingBlock: XIVTED_clean_linker_0, # of connection points: 2
#     Edge 27, Type (0, 0), BuildingBlock: XIVTED_clean_linker_0, # of connection points: 2
#     Edge 28, Type (0, 0), BuildingBlock: XIVTED_clean_linker_0, # of connection points: 2
#     Edge 29, Type (0, 0), BuildingBlock: XIVTED_clean_linker_0, # of connection points: 2
#     Edge 30, Type (0, 0), BuildingBlock: XIVTED_clean_linker_0, # of connection points: 2
#     Edge 31, Type (0, 0), BuildingBlock: XIVTED_clean_linker_0, # of connection points: 2
#     Edge 32, Type (0, 0), BuildingBlock: XIVTED_clean_linker_0, # of connection points: 2
#     Edge 33, Type (0, 0), BuildingBlock: XIVTED_clean_linker_0, # of connection points: 2
#     Edge 34, Type (0, 0), BuildingBlock: XIVTED_clean_linker_0, # of connection points: 2
#     Edge 35, Type (0, 0), BuildingBlock: XIVTED_clean_linker_0, # of connection points: 2
#     Edge 36, Type (0, 0), BuildingBlock: XIVTED_clean_linker_0, # of connection points: 2
#     Edge 37, Type (0, 0), BuildingBlock: XIVTED_clean_linker_0, # of connection points: 2
#     Edge 38, Type (0, 0), BuildingBlock: XIVTED_clean_linker_0, # of connection points: 2
#     Edge 39, Type (0, 0), BuildingBlock: XIVTED_clean_linker_0, # of connection points: 2
#     Edge 40, Type (0, 0), BuildingBlock: XIVTED_clean_linker_0, # of connection points: 2
#     Edge 41, Type (0, 0), BuildingBlock: XIVTED_clean_linker_0, # of connection points: 2
#     Edge 42, Type (0, 0), BuildingBlock: XIVTED_clean_linker_0, # of connection points: 2
#     Edge 43, Type (0, 0), BuildingBlock: XIVTED_clean_linker_0, # of connection points: 2
#     Edge 44, Type (0, 0), BuildingBlock: XIVTED_clean_linker_0, # of connection points: 2
#     Edge 45, Type (0, 0), BuildingBlock: XIVTED_clean_linker_0, # of connection points: 2
#     Edge 46, Type (0, 0), BuildingBlock: XIVTED_clean_linker_0, # of connection points: 2
#     Edge 47, Type (0, 0), BuildingBlock: XIVTED_clean_linker_0, # of connection points: 2
#     Edge 48, Type (0, 0), BuildingBlock: XIVTED_clean_linker_0, # of connection points: 2
#     Edge 49, Type (0, 0), BuildingBlock: XIVTED_clean_linker_0, # of connection points: 2
#     Edge 50, Type (0, 0), BuildingBlock: XIVTED_clean_linker_0, # of connection points: 2
#     Edge 51, Type (0, 0), BuildingBlock: XIVTED_clean_linker_0, # of connection points: 2
#     Edge 52, Type (0, 0), BuildingBlock: XIVTED_clean_linker_0, # of connection points: 2
#     Edge 53, Type (0, 0), BuildingBlock: XIVTED_clean_linker_0, # of connection points: 2
#     Edge 54, Type (0, 0), BuildingBlock: XIVTED_clean_linker_0, # of connection points: 2
#     Edge 55, Type (0, 0), BuildingBlock: XIVTED_clean_linker_0, # of connection points: 2
#     Edge 56, Type (0, 0), BuildingBlock: XIVTED_clean_linker_0, # of connection points: 2
#     Edge 57, Type (0, 0), BuildingBlock: XIVTED_clean_linker_0, # of connection points: 2
#     Edge 58, Type (0, 0), BuildingBlock: XIVTED_clean_linker_0, # of connection points: 2
#     Edge 59, Type (0, 0), BuildingBlock: XIVTED_clean_linker_0, # of connection points: 2
#     Edge 60, Type (0, 0), BuildingBlock: XIVTED_clean_linker_0, # of connection points: 2
#     Edge 61, Type (0, 0), BuildingBlock: XIVTED_clean_linker_0, # of connection points: 2
#     Edge 62, Type (0, 0), BuildingBlock: XIVTED_clean_linker_0, # of connection points: 2
#     Edge 63, Type (0, 0), BuildingBlock: XIVTED_clean_linker_0, # of connection points: 2
#     Edge 64, Type (0, 0), BuildingBlock: XIVTED_clean_linker_0, # of connection points: 2
#     Edge 65, Type (0, 0), BuildingBlock: XIVTED_clean_linker_0, # of connection points: 2
#     Edge 66, Type (0, 0), BuildingBlock: XIVTED_clean_linker_0, # of connection points: 2
#     Edge 67, Type (0, 0), BuildingBlock: XIVTED_clean_linker_0, # of connection points: 2
#     Edge 68, Type (0, 0), BuildingBlock: XIVTED_clean_linker_0, # of connection points: 2
#     Edge 69, Type (0, 0), BuildingBlock: XIVTED_clean_linker_0, # of connection points: 2
#     Edge 70, Type (0, 0), BuildingBlock: XIVTED_clean_linker_0, # of connection points: 2
#     Edge 71, Type (0, 0), BuildingBlock: XIVTED_clean_linker_0, # of connection points: 2
# Relax obj value: 0.037
# Max RMSD: 0.108
# Mean RMSD: 0.107
data_MOF--net-lcs--node1-ICAMEG_clean_sbu_1--edge1-XIVTED_clean_linker_0
_symmetry_space_group_name_H-M    P1
_symmetry_Int_Tables_number       1
_symmetry_cell_setting            triclinic
loop_
_symmetry_equiv_pos_as_xyz
'x, y, z'
_cell_length_a     52.291163
_cell_length_b     52.281482
_cell_length_c     52.250803
_cell_angle_alpha  93.356148
_cell_angle_beta   93.339619
_cell_angle_gamma 93.408988
loop_
_atom_site_label
_atom_site_type_symbol
_atom_site_fract_x
_atom_site_fract_y
_atom_site_fract_z
_atom_type_partial_charge
Co0 Co 1.0068 0.24754 0.42083 0.0
Co1 Co 0.03538 0.25835 0.36493 0.0
O2 O 0.01705 0.27096 0.39455 0.0
C3 C 0.96101 0.27896 0.41235 0.0
O4 O 0.96563 0.28083 0.38809 0.0
C5 C 0.06065 0.31074 0.38083 0.0
O6 O 0.05341 0.30884 0.40427 0.0
O7 O 0.06267 0.24641 0.3888 0.0
O8 O 0.03776 0.2272 0.41632 0.0
H9 H 0.08303 0.19321 0.31537 0.0
H10 H 0.00952 0.30345 0.43489 0.0
O11 O 0.97551 0.26672 0.42701 0.0
H12 H 0.07085 0.26754 0.49625 0.0
H13 H 0.97149 0.22471 0.50482 0.0
H14 H 1.00497 0.19103 0.42409 0.0
H15 H 0.04584 0.23935 0.46323 0.0
H16 H 0.98546 0.25416 0.47246 0.0
O17 O 0.05546 0.29238 0.36386 0.0
H18 H 0.05928 0.20975 0.35161 0.0
H19 H 0.05148 0.28028 0.31635 0.0
H20 H 0.99138 0.16092 0.45602 0.0
H21 H 0.0338 0.33229 0.46795 0.0
H22 H 0.9745 0.17773 0.49674 0.0
H23 H 0.06484 0.31438 0.49885 0.0
O24 O 0.98691 0.225 0.39395 0.0
H25 H 0.97521 0.32258 0.33295 0.0
H26 H 1.00429 0.2352 0.31858 0.0
H27 H 0.97012 0.24995 0.28956 0.0
H28 H 0.95542 0.29398 0.29658 0.0
H29 H 0.00902 0.30688 0.36177 0.0
H30 H 0.07533 0.26459 0.27986 0.0
H31 H 0.09119 0.22072 0.27916 0.0
O32 O 0.01575 0.22383 0.36394 0.0
C33 C 0.05942 0.23129 0.40678 0.0
C34 C 0.07616 0.21234 0.31542 0.0
C35 C 0.07186 0.25241 0.29551 0.0
N36 N 0.05386 0.24588 0.33604 0.0
C37 C 0.06265 0.22178 0.33586 0.0
C38 C 0.05842 0.26121 0.31626 0.0
C39 C 0.08075 0.22779 0.29512 0.0
C40 C 0.02279 0.29547 0.44842 0.0
N41 N 0.0263 0.26976 0.44702 0.0
C42 C 0.03658 0.31191 0.46703 0.0
C43 C 0.05402 0.30186 0.48433 0.0
C44 C 0.05743 0.27559 0.48285 0.0
C45 C 0.04332 0.25974 0.46399 0.0
C46 C 0.97886 0.21716 0.48717 0.0
C47 C 0.99777 0.19851 0.44181 0.0
C48 C 0.98676 0.23374 0.46874 0.0
N49 N 0.9962 0.22435 0.44646 0.0
C50 C 0.99005 0.18136 0.4598 0.0
C51 C 0.98056 0.1908 0.48263 0.0
C52 C 0.99526 0.21507 0.37346 0.0
C53 C 0.98149 0.30337 0.32964 0.0
C54 C 0.99787 0.2543 0.32193 0.0
C55 C 0.97858 0.26259 0.30534 0.0
C56 C 0.97037 0.28731 0.30927 0.0
N57 N 0.00872 0.27017 0.34187 0.0
C58 C 1.00075 0.29442 0.34583 0.0
Co59 Co 0.01919 0.77753 0.60123 0.0
Co60 Co 0.03276 0.7554 0.66058 0.0
O61 O 0.00828 0.7616 0.63211 0.0
C62 C 0.9747 0.80687 0.61623 0.0
O63 O 0.9835 0.80679 0.64025 0.0
C64 C 1.00263 0.70494 0.65202 0.0
O65 O 0.00778 0.70426 0.62769 0.0
O66 O 0.0537 0.73544 0.63669 0.0
O67 O 0.05221 0.75964 0.60266 0.0
H68 H 0.12051 0.75028 0.70384 0.0
H69 H 0.96846 0.74908 0.60019 0.0
O70 O 0.98647 0.79583 0.59842 0.0
H71 H 0.01494 0.70529 0.53265 0.0
H72 H 1.00623 0.80879 0.51233 0.0
H73 H 0.06808 0.80222 0.58623 0.0
H74 H 0.03517 0.74311 0.55813 0.0
H75 H 0.99294 0.78792 0.55098 0.0
O76 O 0.01163 0.72354 0.66734 0.0
H77 H 0.08949 0.75889 0.66847 0.0
H78 H 0.02743 0.7369 0.71311 0.0
H79 H 0.08226 0.82306 0.54787 0.0
H80 H 0.94741 0.71143 0.57501 0.0
H81 H 0.05122 0.82644 0.51057 0.0
H82 H 0.97072 0.68924 0.54099 0.0
O83 O 0.03568 0.80733 0.62268 0.0
H84 H 0.95088 0.78002 0.69856 0.0
H85 H 0.04471 0.79774 0.70124 0.0
H86 H 0.019 0.82317 0.73017 0.0
H87 H 0.97174 0.81432 0.72901 0.0
H88 H 0.97726 0.7553 0.66966 0.0
H89 H 0.05778 0.72788 0.74888 0.0
H90 H 0.10469 0.73467 0.74441 0.0
O91 O 0.05418 0.78766 0.65528 0.0
C92 C 0.06185 0.74193 0.61528 0.0
C93 C 0.10011 0.74733 0.70605 0.0
C94 C 0.06491 0.73472 0.73132 0.0
N95 N 0.05668 0.74859 0.68879 0.0
C96 C 0.08245 0.75223 0.68612 0.0
C97 C 0.04781 0.73981 0.71097 0.0
C98 C 0.09122 0.73854 0.7288 0.0
C99 C 0.97863 0.73964 0.58528 0.0
N100 N 1.00295 0.74835 0.58056 0.0
C101 C 0.96665 0.71828 0.57114 0.0
C102 C 0.97976 0.70582 0.55208 0.0
C103 C 1.00458 0.71481 0.5474 0.0
C104 C 0.01595 0.7362 0.56194 0.0
C105 C 0.01995 0.80739 0.52844 0.0
C106 C 0.05451 0.80349 0.57001 0.0
C107 C 0.01252 0.79563 0.55039 0.0
N108 N 0.02979 0.79367 0.57075 0.0
C109 C 0.06263 0.81537 0.54837 0.0
C110 C 0.0452 0.81728 0.52746 0.0
C111 C 0.05109 0.80747 0.64252 0.0
C112 C 0.97146 0.78402 0.69929 0.0
C113 C 0.02413 0.79389 0.70045 0.0
C114 C 0.00969 0.80829 0.71697 0.0
C115 C 0.98317 0.80329 0.71634 0.0
N116 N 0.01251 0.77503 0.68374 0.0
C117 C 0.98652 0.77 0.68305 0.0
Co118 Co 0.50666 0.74729 0.92273 0.0
Co119 Co 0.53545 0.75866 0.86709 0.0
O120 O 0.51722 0.77104 0.89686 0.0
C121 C 0.46116 0.77923 0.91479 0.0
O122 O 0.46535 0.78066 0.89039 0.0
C123 C 0.55956 0.8119 0.88248 0.0
O124 O 0.54977 0.81154 0.90499 0.0
O125 O 0.56254 0.74609 0.8908 0.0
O126 O 0.53727 0.72649 0.91775 0.0
H127 H 0.58233 0.6935 0.81671 0.0
H128 H 0.51028 0.803 0.93786 0.0
O129 O 0.47575 0.76696 0.92935 0.0
H130 H 0.57112 0.76499 0.99815 0.0
H131 H 0.47112 0.72354 1.00633 0.0
H132 H 0.50393 0.69065 0.92497 0.0
H133 H 0.54556 0.73771 0.96479 0.0
H134 H 0.48552 0.75337 0.97449 0.0
O135 O 0.55604 0.79252 0.86642 0.0
H136 H 0.55874 0.70987 0.85312 0.0
H137 H 0.55193 0.78106 0.81885 0.0
H138 H 0.48991 0.66015 0.95638 0.0
H139 H 0.53515 0.83094 0.97125 0.0
H140 H 0.47336 0.67656 0.99741 0.0
H141 H 0.56594 0.81197 1.00162 0.0
O142 O 0.48643 0.72544 0.89552 0.0
H143 H 0.47539 0.82357 0.83616 0.0
H144 H 0.50457 0.73644 0.82028 0.0
H145 H 0.4706 0.75173 0.79141 0.0
H146 H 0.45586 0.79566 0.79918 0.0
H147 H 0.50897 0.80733 0.86481 0.0
H148 H 0.57564 0.76553 0.7822 0.0
H149 H 0.59093 0.72141 0.78092 0.0
O150 O 0.51541 0.72434 0.86564 0.0
C151 C 0.55903 0.73059 0.90841 0.0
C152 C 0.57571 0.71273 0.81702 0.0
C153 C 0.57199 0.75317 0.79767 0.0
N154 N 0.55382 0.74633 0.83806 0.0
C155 C 0.5623 0.72209 0.83756 0.0
C156 C 0.55863 0.76188 0.81852 0.0
C157 C 0.58055 0.72841 0.79695 0.0
C158 C 0.52349 0.79456 0.95112 0.0
N159 N 0.52655 0.76877 0.94923 0.0
C160 C 0.53759 0.8105 0.96993 0.0
C161 C 0.55488 0.79985 0.98694 0.0
C162 C 0.55783 0.7735 0.98498 0.0
C163 C 0.5434 0.75817 0.96593 0.0
C164 C 0.47833 0.71615 0.98854 0.0
C165 C 0.49687 0.69795 0.94283 0.0
C166 C 0.48647 0.73295 0.9704 0.0
N167 N 0.49571 0.72378 0.94794 0.0
C168 C 0.48891 0.68058 0.96052 0.0
C169 C 0.4796 0.6898 0.98353 0.0
C170 C 0.49477 0.71567 0.87494 0.0
C171 C 0.48173 0.80444 0.8325 0.0
C172 C 0.49818 0.75551 0.82393 0.0
C173 C 0.47898 0.7641 0.80744 0.0
C174 C 0.47074 0.78875 0.81179 0.0
N175 N 0.50894 0.77103 0.84418 0.0
C176 C 0.50089 0.79519 0.84858 0.0
Co177 Co 0.52027 0.2784 0.09925 0.0
Co178 Co 0.53311 0.25272 0.15758 0.0
O179 O 0.50905 0.26061 0.12916 0.0
C180 C 0.47629 0.30726 0.11626 0.0
O181 O 0.48513 0.30549 0.14006 0.0
C182 C 0.49465 0.20675 0.14927 0.0
O183 O 0.48466 0.21567 0.12827 0.0
O184 O 0.55483 0.23494 0.13291 0.0
O185 O 0.55301 0.26006 0.09958 0.0
H186 H 0.62071 0.24741 0.2011 0.0
H187 H 0.46826 0.25203 0.09474 0.0
O188 O 0.4879 0.29733 0.09772 0.0
H189 H 0.51557 0.20998 0.0268 0.0
H190 H 0.50809 0.31513 0.01271 0.0
H191 H 0.56955 0.30344 0.08569 0.0
H192 H 0.53647 0.24541 0.05517 0.0
H193 H 0.49434 0.29214 0.04996 0.0
O194 O 0.51361 0.21888 0.16201 0.0
H195 H 0.58974 0.25754 0.16628 0.0
H196 H 0.52774 0.23031 0.20846 0.0
H197 H 0.58417 0.32638 0.04873 0.0
H198 H 0.44648 0.21693 0.0665 0.0
H199 H 0.55333 0.33234 0.01189 0.0
H200 H 0.47021 0.19555 0.03232 0.0
O201 O 0.53704 0.30686 0.12216 0.0
H202 H 0.44985 0.2741 0.19517 0.0
H203 H 0.54376 0.29159 0.20156 0.0
H204 H 0.51734 0.31446 0.2318 0.0
H205 H 0.47002 0.30569 0.22882 0.0
H206 H 0.4769 0.25202 0.16508 0.0
H207 H 0.55805 0.21968 0.24362 0.0
H208 H 0.6049 0.22834 0.24012 0.0
O209 O 0.55366 0.28616 0.15498 0.0
C210 C 0.56282 0.24211 0.11171 0.0
C211 C 0.60033 0.24362 0.20289 0.0
C212 C 0.56517 0.22803 0.22674 0.0
N213 N 0.55696 0.24471 0.18541 0.0
C214 C 0.58271 0.24938 0.18327 0.0
C215 C 0.5481 0.23403 0.20673 0.0
C216 C 0.59145 0.2329 0.22476 0.0
C217 C 0.47866 0.24296 0.0798 0.0
N218 N 0.50366 0.25066 0.07677 0.0
C219 C 0.46625 0.22303 0.06392 0.0
C220 C 0.47959 0.21102 0.04476 0.0
C221 C 0.50505 0.21907 0.04169 0.0
C222 C 0.51684 0.23905 0.05794 0.0
C223 C 0.52172 0.3126 0.02862 0.0
C224 C 0.55606 0.30583 0.06966 0.0
C225 C 0.51404 0.29964 0.04978 0.0
N226 N 0.53119 0.29627 0.06988 0.0
C227 C 0.56443 0.31889 0.04882 0.0
C228 C 0.54711 0.32225 0.02817 0.0
C229 C 0.55145 0.30634 0.1426 0.0
C230 C 0.47047 0.27794 0.1968 0.0
C231 C 0.52319 0.28766 0.20005 0.0
C232 C 0.50832 0.30066 0.21729 0.0
C233 C 0.48178 0.29572 0.21562 0.0
N234 N 0.51199 0.27012 0.1817 0.0
C235 C 0.48595 0.26529 0.1799 0.0
Co236 Co 0.02451 0.74276 0.1155 0.0
Co237 Co 1.00115 0.75676 0.17426 0.0
O238 O 0.01775 0.76739 0.14366 0.0
C239 C 0.07501 0.77259 0.12526 0.0
O240 O 0.07498 0.76743 0.14956 0.0
C241 C 0.97192 0.80105 0.15839 0.0
O242 O 0.97244 0.7922 0.13442 0.0
O243 O 0.97178 0.73999 0.15241 0.0
O244 O 0.99197 0.72156 0.12011 0.0
H245 H 0.95445 0.69416 0.22725 0.0
H246 H 0.02522 0.79827 0.1063 0.0
O247 O 0.05674 0.76369 0.10948 0.0
H248 H 0.95849 0.75676 0.04438 0.0
H249 H 0.05401 0.71735 0.02807 0.0
H250 H 0.02071 0.686 0.10767 0.0
H251 H 0.98307 0.73096 0.07394 0.0
H252 H 0.04439 0.74785 0.06351 0.0
O253 O 0.98278 0.78943 0.1764 0.0
H254 H 0.97609 0.708 0.18922 0.0
H255 H 0.9898 0.78341 0.22403 0.0
H256 H 0.0299 0.65484 0.07263 0.0
H257 H 1.00135 0.82474 0.07681 0.0
H258 H 0.04667 0.67048 0.03247 0.0
H259 H 0.96763 0.804 0.04564 0.0
O260 O 0.04372 0.72165 0.13988 0.0
H261 H 0.06675 0.82882 0.20114 0.0
H262 H 0.03477 0.74117 0.21814 0.0
H263 H 0.07212 0.76165 0.24417 0.0
H264 H 0.08832 0.80581 0.23577 0.0
H265 H 0.02957 0.80751 0.17542 0.0
H266 H 0.96812 0.77045 0.26234 0.0
H267 H 0.95036 0.7255 0.26416 0.0
O268 O 0.019 0.72379 0.1735 0.0
C269 C 0.972 0.72448 0.13268 0.0
C270 C 0.96218 0.71378 0.22672 0.0
C271 C 0.96983 0.7566 0.24641 0.0
N272 N 0.98438 0.74642 0.2045 0.0
C273 C 0.97451 0.72171 0.20527 0.0
C274 C 0.98204 0.76384 0.22464 0.0
C275 C 0.95988 0.73138 0.24741 0.0
C276 C 0.01078 0.78905 0.0926 0.0
N277 N 1.0056 0.76308 0.09184 0.0
C278 C 0.99724 0.80417 0.07603 0.0
C279 C 0.97829 0.79252 0.05858 0.0
C280 C 0.97313 0.76602 0.05789 0.0
C281 C 0.98705 0.75152 0.07476 0.0
C282 C 0.04667 0.7103 0.04546 0.0
C283 C 0.02789 0.69296 0.0902 0.0
C284 C 0.04125 0.72748 0.06562 0.0
N285 N 0.03183 0.71871 0.08757 0.0
C286 C 0.03311 0.67522 0.07045 0.0
C287 C 0.04254 0.68401 0.04793 0.0
C288 C 0.0367 0.71375 0.16122 0.0
C289 C 0.05983 0.8096 0.20504 0.0
C290 C 0.04175 0.76036 0.21431 0.0
C291 C 0.06287 0.77188 0.22916 0.0
C292 C 0.07194 0.79666 0.22444 0.0
N293 N 0.02994 0.7732 0.19535 0.0
C294 C 0.03873 0.79748 0.1906 0.0
Co295 Co 0.51596 0.73799 0.41604 0.0
Co296 Co 0.51797 0.7702 0.36065 0.0
O297 O 0.4997 0.75773 0.38955 0.0
C298 C 0.46615 0.7089 0.40069 0.0
O299 O 0.46992 0.71324 0.37669 0.0
C300 C 0.50569 0.82505 0.36264 0.0
O301 O 0.53041 0.8313 0.36594 0.0
O302 O 0.5453 0.7877 0.38505 0.0
O303 O 0.54918 0.75896 0.41506 0.0
H304 H 0.59596 0.7891 0.31152 0.0
H305 H 0.46722 0.76222 0.42528 0.0
O306 O 0.48296 0.71676 0.41845 0.0
H307 H 0.52876 0.79862 0.49493 0.0
H308 H 0.51909 0.69187 0.49805 0.0
H309 H 0.56649 0.71567 0.4232 0.0
H310 H 0.54195 0.76681 0.46238 0.0
H311 H 0.49922 0.71742 0.46493 0.0
O312 O 0.4975 0.80154 0.36197 0.0
H313 H 0.57227 0.77286 0.34732 0.0
H314 H 0.5023 0.79534 0.31263 0.0
H315 H 0.58715 0.69028 0.45597 0.0
H316 H 0.45313 0.7938 0.45761 0.0
H317 H 0.56341 0.67822 0.49373 0.0
H318 H 0.48403 0.81225 0.49273 0.0
O319 O 0.52708 0.71296 0.38932 0.0
H320 H 0.4266 0.74624 0.32889 0.0
H321 H 0.51742 0.73569 0.31285 0.0
H322 H 0.48362 0.71324 0.28357 0.0
H323 H 0.43778 0.71855 0.29144 0.0
H324 H 0.46105 0.76788 0.35798 0.0
H325 H 0.52524 0.81191 0.27652 0.0
H326 H 0.57241 0.8088 0.27579 0.0
O327 O 0.53809 0.73866 0.35824 0.0
C328 C 0.55708 0.77917 0.40457 0.0
C329 C 0.5754 0.79054 0.3116 0.0
C330 C 0.53572 0.80335 0.29197 0.0
N331 N 0.53593 0.78308 0.33205 0.0
C332 C 0.56188 0.78136 0.33181 0.0
C333 C 0.52283 0.79395 0.31248 0.0
C334 C 0.56218 0.8016 0.29157 0.0
C335 C 0.48072 0.77004 0.4406 0.0
N336 N 0.50534 0.76257 0.442 0.0
C337 C 0.47266 0.78797 0.45881 0.0
C338 C 0.49001 0.79833 0.47849 0.0
C339 C 0.51511 0.7907 0.47974 0.0
C340 C 0.52249 0.77273 0.4612 0.0
C341 C 0.52964 0.69704 0.4817 0.0
C342 C 0.55608 0.7106 0.43964 0.0
C343 C 0.51847 0.71144 0.46285 0.0
N344 N 0.53175 0.71816 0.44222 0.0
C345 C 0.56786 0.69617 0.45811 0.0
C346 C 0.55451 0.68939 0.47927 0.0
C347 C 0.53802 0.71711 0.3686 0.0
C348 C 0.4465 0.74379 0.32523 0.0
C349 C 0.49758 0.73778 0.31664 0.0
C350 C 0.47849 0.72519 0.29987 0.0
C351 C 0.45278 0.72822 0.30426 0.0
N352 N 0.49129 0.75297 0.33722 0.0
C353 C 0.46611 0.7561 0.34158 0.0
Co354 Co 0.52332 0.24369 0.61447 0.0
Co355 Co 0.50133 0.25765 0.6739 0.0
O356 O 0.51716 0.26828 0.64289 0.0
C357 C 0.57359 0.27382 0.62353 0.0
O358 O 0.57357 0.26901 0.64792 0.0
C359 C 0.47165 0.30176 0.65848 0.0
O360 O 0.4717 0.29271 0.63453 0.0
O361 O 0.47157 0.24078 0.65271 0.0
O362 O 0.49094 0.22253 0.61973 0.0
H363 H 0.45618 0.19505 0.72805 0.0
H364 H 0.52387 0.29922 0.60538 0.0
O365 O 0.55538 0.26457 0.60785 0.0
H366 H 0.45585 0.25788 0.54479 0.0
H367 H 0.55094 0.21838 0.52627 0.0
H368 H 0.51938 0.18694 0.60657 0.0
H369 H 0.48103 0.23201 0.57376 0.0
H370 H 0.54205 0.24884 0.56202 0.0
O371 O 0.48288 0.29028 0.67638 0.0
H372 H 0.47687 0.20887 0.68948 0.0
H373 H 0.49098 0.28438 0.72394 0.0
H374 H 0.52785 0.15582 0.57122 0.0
H375 H 0.4994 0.32577 0.57646 0.0
H376 H 0.54374 0.1715 0.53071 0.0
H377 H 0.46503 0.30512 0.54596 0.0
O378 O 0.54302 0.22253 0.63838 0.0
H379 H 0.56704 0.32998 0.6994 0.0
H380 H 0.536 0.24222 0.71703 0.0
H381 H 0.57378 0.26285 0.74227 0.0
H382 H 0.58951 0.30707 0.73354 0.0
H383 H 0.52945 0.30852 0.67446 0.0
H384 H 0.47025 0.27144 0.7628 0.0
H385 H 0.45278 0.22646 0.76506 0.0
O386 O 0.51928 0.22472 0.67275 0.0
C387 C 0.47133 0.22537 0.63285 0.0
C388 C 0.4638 0.21468 0.72733 0.0
C389 C 0.47167 0.25757 0.74682 0.0
N390 N 0.48531 0.24733 0.70455 0.0
C391 C 0.47559 0.2226 0.70557 0.0
C392 C 0.48334 0.26479 0.72475 0.0
C393 C 0.46187 0.23232 0.74808 0.0
C394 C 0.50914 0.29004 0.59197 0.0
N395 N 0.50394 0.26408 0.59126 0.0
C396 C 0.49527 0.3052 0.57572 0.0
C397 C 0.47595 0.29361 0.55865 0.0
C398 C 0.47077 0.26711 0.558 0.0
C399 C 0.48503 0.25257 0.57454 0.0
C400 C 0.54398 0.21131 0.54381 0.0
C401 C 0.52617 0.19392 0.58895 0.0
C402 C 0.53897 0.22847 0.56415 0.0
N403 N 0.53004 0.21968 0.5863 0.0
C404 C 0.53099 0.1762 0.56902 0.0
C405 C 0.53993 0.18501 0.54631 0.0
C406 C 0.53661 0.21464 0.65993 0.0
C407 C 0.56033 0.31074 0.70344 0.0
C408 C 0.54277 0.26143 0.71306 0.0
C409 C 0.56414 0.27304 0.72746 0.0
C410 C 0.57294 0.29786 0.72257 0.0
N411 N 0.53048 0.27422 0.69437 0.0
C412 C 0.539 0.29854 0.68945 0.0
Co413 Co 0.01906 0.24374 0.91365 0.0
Co414 Co 0.02315 0.27182 0.85619 0.0
O415 O 1.00372 0.26214 0.8855 0.0
C416 C 0.96925 0.2128 0.90125 0.0
O417 O 0.97474 0.20975 0.8771 0.0
C418 C 0.9892 0.3161 0.86686 0.0
O419 O 0.98073 0.30622 0.88749 0.0
O420 O 0.05033 0.29008 0.8801 0.0
O421 O 0.05335 0.26235 0.9111 0.0
H422 H 0.10329 0.28226 0.80826 0.0
H423 H 0.97137 0.27018 0.92256 0.0
O424 O 0.98505 0.22517 0.91761 0.0
H425 H 0.03599 0.30996 0.98766 0.0
H426 H 0.0199 0.20446 0.99943 0.0
H427 H 0.06801 0.21884 0.92259 0.0
H428 H 0.04719 0.27528 0.95715 0.0
H429 H 1.00149 0.2284 0.96423 0.0
O430 O 1.00556 0.30487 0.85377 0.0
H431 H 0.07769 0.26969 0.8442 0.0
H432 H 0.01064 0.29556 0.80664 0.0
H433 H 0.08721 0.19495 0.95741 0.0
H434 H 0.95924 0.30456 0.95297 0.0
H435 H 0.06311 0.18763 0.99619 0.0
H436 H 0.9917 0.3248 0.98576 0.0
O437 O 0.02865 0.21604 0.88885 0.0
H438 H 0.93187 0.24545 0.82513 0.0
H439 H 0.02293 0.2361 0.80944 0.0
H440 H 0.98951 0.21239 0.78072 0.0
H441 H 0.94354 0.21707 0.7884 0.0
H442 H 0.96589 0.26847 0.85353 0.0
H443 H 0.03557 0.30865 0.77044 0.0
H444 H 0.08222 0.3019 0.77104 0.0
O445 O 0.0416 0.23923 0.85668 0.0
C446 C 0.06177 0.28199 0.90001 0.0
C447 C 0.08296 0.28522 0.80773 0.0
C448 C 0.04496 0.30007 0.78652 0.0
N449 N 0.04267 0.28169 0.82745 0.0
C450 C 0.06835 0.27807 0.828 0.0
C451 C 0.03096 0.29269 0.80713 0.0
C452 C 0.07113 0.29627 0.78687 0.0
C453 C 0.98559 0.27879 0.93684 0.0
N454 N 0.01002 0.27084 0.93789 0.0
C455 C 0.97861 0.2983 0.95398 0.0
C456 C 0.99684 0.30966 0.97235 0.0
C457 C 0.0217 0.30138 0.9734 0.0
C458 C 0.02797 0.28182 0.95594 0.0
C459 C 0.03061 0.20756 0.98265 0.0
C460 C 0.05745 0.21584 0.93945 0.0
C461 C 0.02026 0.22105 0.96262 0.0
N462 N 0.03373 0.22515 0.94143 0.0
C463 C 0.0684 0.20225 0.95908 0.0
C464 C 0.05485 0.19813 0.98082 0.0
C465 C 0.04018 0.21834 0.86817 0.0
C466 C 0.95183 0.24337 0.82148 0.0
C467 C 1.00304 0.2382 0.813 0.0
C468 C 0.98416 0.22476 0.79661 0.0
C469 C 0.95838 0.22741 0.80092 0.0
N470 N 0.9965 0.25398 0.83306 0.0
C471 C 0.97124 0.25653 0.83745 0.0
Co472 Co 0.3591 0.04196 0.259 0.0
Co473 Co 0.41484 0.01044 0.25703 0.0
O474 O 0.38586 0.02261 0.27534 0.0
C475 C 0.37401 0.07115 0.30891 0.0
O476 O 0.39806 0.0669 0.30543 0.0
C477 C 0.41336 0.95566 0.26961 0.0
O478 O 0.41 0.9493 0.24491 0.0
O479 O 0.39055 0.99259 0.22984 0.0
O480 O 0.36033 0.02102 0.22579 0.0
H481 H 0.46387 0.99179 0.17891 0.0
H482 H 0.35016 0.01769 0.30784 0.0
O483 O 0.35644 0.06319 0.29194 0.0
H484 H 0.28098 0.98033 0.24628 0.0
H485 H 0.27654 0.08696 0.25571 0.0
H486 H 0.35168 0.06417 0.20838 0.0
H487 H 0.31314 0.01251 0.23302 0.0
H488 H 0.30996 0.06186 0.27566 0.0
O489 O 0.41395 0.97919 0.27769 0.0
H490 H 0.42801 0.00774 0.20264 0.0
H491 H 0.46315 0.98593 0.27272 0.0
H492 H 0.31862 0.08913 0.18764 0.0
H493 H 0.31822 0.98573 0.322 0.0
H494 H 0.28071 0.10069 0.21135 0.0
H495 H 0.28334 0.9668 0.2911 0.0
O496 O 0.38552 0.06727 0.24783 0.0
H497 H 0.44693 0.03489 0.34827 0.0
H498 H 0.4621 0.04564 0.2572 0.0
H499 H 0.49135 0.06845 0.29082 0.0
H500 H 0.48392 0.06304 0.33676 0.0
H501 H 0.41784 0.01289 0.31401 0.0
H502 H 0.49932 0.96964 0.24974 0.0
H503 H 0.49985 0.97256 0.20249 0.0
O504 O 0.41678 0.0419 0.23669 0.0
C505 C 0.371 1.00091 0.21797 0.0
C506 C 0.46387 0.99044 0.1995 0.0
C507 C 0.48377 0.978 0.23925 0.0
N508 N 0.4435 0.99784 0.23903 0.0
C509 C 0.44363 0.99946 0.21304 0.0
C510 C 0.46322 0.98724 0.25215 0.0
C511 C 0.48405 0.97964 0.21274 0.0
C512 C 0.33494 0.00966 0.29434 0.0
N513 N 0.33345 0.01707 0.26968 0.0
C514 C 0.31695 0.99152 0.30244 0.0
C515 C 0.2974 0.98088 0.28509 0.0
C516 C 0.29607 0.98846 0.25994 0.0
C517 C 0.31439 1.00665 0.25252 0.0
C518 C 0.29296 0.08202 0.24517 0.0
C519 C 0.33518 0.06901 0.21878 0.0
C520 C 0.31197 0.06786 0.25639 0.0
N521 N 0.33268 0.06142 0.24313 0.0
C522 C 0.31655 0.0832 0.20695 0.0
C523 C 0.2953 0.0897 0.22028 0.0
C524 C 0.40618 0.06332 0.23674 0.0
C525 C 0.45039 0.03738 0.32832 0.0
C526 C 0.4585 0.04349 0.2771 0.0
C527 C 0.47525 0.0563 0.29608 0.0
C528 C 0.47111 0.05321 0.32185 0.0
N529 N 0.43817 0.02804 0.28357 0.0
C530 C 0.43405 0.02487 0.30881 0.0
Co531 Co 0.25202 0.16291 0.53611 0.0
Co532 Co 0.27474 0.10408 0.52109 0.0
O533 O 0.25846 0.13502 0.51109 0.0
C534 C 0.20179 0.15351 0.50602 0.0
O535 O 0.20197 0.12911 0.51069 0.0
C536 C 0.30389 0.12108 0.47725 0.0
O537 O 0.30349 0.14475 0.48696 0.0
O538 O 0.30426 0.12541 0.53825 0.0
O539 O 0.28456 0.15783 0.55706 0.0
H540 H 0.32072 0.0494 0.58248 0.0
H541 H 0.25115 0.17292 0.48074 0.0
O542 O 0.21982 0.16931 0.51542 0.0
H543 H 0.3185 0.23385 0.52274 0.0
H544 H 0.22319 0.25019 0.56285 0.0
H545 H 0.25601 0.16997 0.59295 0.0
H546 H 0.29381 0.20406 0.54825 0.0
H547 H 0.2325 0.21508 0.53183 0.0
O548 O 0.29314 0.10261 0.48836 0.0
H549 H 0.29947 0.08791 0.56948 0.0
H550 H 0.28582 0.05483 0.49336 0.0
H551 H 0.24714 0.20466 0.62463 0.0
H552 H 0.27512 0.20268 0.45457 0.0
H553 H 0.23061 0.24513 0.60963 0.0
H554 H 0.30916 0.23335 0.47555 0.0
O555 O 0.23271 0.13835 0.55694 0.0
H556 H 0.20917 0.07897 0.44854 0.0
H557 H 0.2407 0.0601 0.53579 0.0
H558 H 0.20322 0.03466 0.51481 0.0
H559 H 0.18724 0.04401 0.47085 0.0
H560 H 0.24648 0.10409 0.47034 0.0
H561 H 0.30711 0.01606 0.50547 0.0
H562 H 0.32464 0.01313 0.55035 0.0
O563 O 0.2568 0.10431 0.55408 0.0
C564 C 0.30432 0.14504 0.55393 0.0
C565 C 0.31308 0.05041 0.56289 0.0
C566 C 0.30547 0.03171 0.51966 0.0
N567 N 0.29122 0.07351 0.53076 0.0
C568 C 0.30097 0.07213 0.55544 0.0
C569 C 0.29348 0.05373 0.5129 0.0
C570 C 0.3153 0.03008 0.54484 0.0
C571 C 0.26572 0.18641 0.49007 0.0
N572 N 0.27103 0.18675 0.51602 0.0
C573 C 0.27932 0.20313 0.47512 0.0
C574 C 0.29845 0.2203 0.4869 0.0
C575 C 0.30373 0.22057 0.51337 0.0
C576 C 0.28975 0.20356 0.52771 0.0
C577 C 0.23043 0.23266 0.56963 0.0
C578 C 0.24895 0.18757 0.58627 0.0
C579 C 0.23568 0.21269 0.55215 0.0
N580 N 0.24496 0.19056 0.56057 0.0
C581 C 0.2439 0.20712 0.6043 0.0
C582 C 0.23461 0.22982 0.59587 0.0
C583 C 0.23933 0.11674 0.5644 0.0
C584 C 0.216 0.07466 0.46767 0.0
C585 C 0.23382 0.06434 0.51669 0.0
C586 C 0.21262 0.04983 0.50488 0.0
C587 C 0.20368 0.05508 0.48021 0.0
N588 N 0.24583 0.08348 0.50423 0.0
C589 C 0.23716 0.08875 0.48006 0.0
Co590 Co 0.17659 0.99969 0.75862 0.0
Co591 Co 0.118 0.02464 0.74579 0.0
O592 O 0.14647 0.01701 0.76991 0.0
C593 C 0.16046 0.97058 0.80297 0.0
O594 O 0.13651 0.97194 0.79444 0.0
C595 C 0.12505 0.07012 0.78506 0.0
O596 O 0.14546 0.06093 0.79596 0.0
O597 O 0.14249 0.0429 0.7242 0.0
O598 O 0.17585 0.01789 0.72576 0.0
H599 H 0.07462 0.02989 0.65806 0.0
H600 H 0.18087 0.02626 0.81054 0.0
O601 O 0.17863 0.98085 0.79109 0.0
H602 H 0.24798 0.06919 0.7628 0.0
H603 H 0.26374 0.96439 0.77056 0.0
H604 H 0.19022 0.97469 0.70933 0.0
H605 H 0.22012 0.03325 0.74214 0.0
H606 H 0.22625 0.98686 0.78439 0.0
O607 O 0.1131 0.05829 0.76544 0.0
H608 H 0.10948 0.02002 0.68909 0.0
H609 H 0.06685 0.04634 0.7511 0.0
H610 H 0.2274 0.95226 0.69464 0.0
H611 H 0.20857 0.06191 0.83208 0.0
H612 H 0.26451 0.94699 0.72536 0.0
H613 H 0.24234 0.08372 0.80813 0.0
O614 O 0.15399 0.97094 0.74195 0.0
H615 H 0.08035 1.00163 0.82872 0.0
H616 H 0.07447 0.98542 0.73461 0.0
H617 H 0.04432 0.96187 0.76062 0.0
H618 H 0.04703 0.97 0.80804 0.0
H619 H 0.11036 0.02438 0.8021 0.0
H620 H 0.03163 0.0567 0.72073 0.0
H621 H 0.03534 0.04836 0.67384 0.0
O622 O 0.12114 0.99141 0.72507 0.0
C623 C 0.1636 0.03576 0.71599 0.0
C624 C 0.07274 0.03353 0.67845 0.0
C625 C 0.04863 0.04861 0.71362 0.0
N626 N 0.09013 0.03242 0.72188 0.0
C627 C 0.09239 0.02792 0.69611 0.0
C628 C 0.06867 0.04277 0.73072 0.0
C629 C 0.05072 0.04392 0.68731 0.0
C630 C 0.19562 0.03554 0.80004 0.0
N631 N 0.19872 0.02778 0.77506 0.0
C632 C 0.2112 0.05577 0.81231 0.0
C633 C 0.23012 0.06802 0.79886 0.0
C634 C 0.23327 0.05991 0.77342 0.0
C635 C 0.21732 0.03963 0.76176 0.0
C636 C 0.24771 0.96661 0.75698 0.0
C637 C 0.20636 0.9726 0.72277 0.0
C638 C 0.22641 0.97928 0.76471 0.0
N639 N 0.20616 0.98227 0.74762 0.0
C640 C 0.22733 0.95983 0.71436 0.0
C641 C 0.24813 0.95686 0.73161 0.0
C642 C 0.13372 0.97137 0.72727 0.0
C643 C 0.07883 0.99808 0.80805 0.0
C644 C 0.07586 0.98909 0.75523 0.0
C645 C 0.05867 0.9757 0.76986 0.0
C646 C 0.06019 0.98028 0.79645 0.0
N647 N 0.09401 1.00669 0.76671 0.0
C648 C 0.09568 0.01113 0.7928 0.0
Co649 Co 0.27172 0.85492 0.03067 0.0
Co650 Co 0.24302 0.91039 0.01859 0.0
O651 O 0.26127 0.88053 1.00664 0.0
C652 C 0.31774 0.86355 0.9998 0.0
O653 O 0.314 0.88814 0.99983 0.0
C654 C 0.21832 0.89385 0.96596 0.0
O655 O 0.22699 0.87094 0.96736 0.0
O656 O 0.21587 0.88685 0.03134 0.0
O657 O 0.24084 0.85983 0.05118 0.0
H658 H 0.19584 0.96148 0.08297 0.0
H659 H 0.26867 0.83948 0.97499 0.0
O660 O 0.30278 0.84846 0.01114 0.0
H661 H 0.20765 0.77917 0.01287 0.0
H662 H 0.30745 0.77172 0.05512 0.0
H663 H 0.27392 0.8529 0.08735 0.0
H664 H 0.23285 0.81277 0.04016 0.0
H665 H 0.29319 0.80334 0.02501 0.0
O666 O 0.22264 0.91065 0.98462 0.0
H667 H 0.21944 0.92489 0.06712 0.0
H668 H 0.22678 0.95833 0.99554 0.0
H669 H 0.28779 0.82172 0.11812 0.0
H670 H 0.24418 0.80583 0.94705 0.0
H671 H 0.3047 0.78078 0.10204 0.0
H672 H 0.21329 0.77546 0.96595 0.0
O673 O 0.29173 0.88228 0.0526 0.0
H674 H 0.30335 0.94016 0.95337 0.0
H675 H 0.27398 0.9574 0.0403 0.0
H676 H 0.30817 0.98585 0.02468 0.0
H677 H 0.32302 0.97738 0.98086 0.0
H678 H 0.26952 0.91196 0.96992 0.0
H679 H 0.20307 0.99515 0.01054 0.0
H680 H 0.18751 0.99695 0.05459 0.0
O681 O 0.26288 0.91224 0.053 0.0
C682 C 0.21915 0.86922 0.04686 0.0
C683 C 0.20258 0.96095 0.06376 0.0
C684 C 0.2066 0.97983 0.0231 0.0
N685 N 0.22463 0.93953 0.0305 0.0
C686 C 0.216 0.94031 0.0547 0.0
C687 C 0.21996 0.95889 0.01469 0.0
C688 C 0.19789 0.98083 0.04782 0.0
C689 C 0.25544 0.82621 0.9834 0.0
N690 N 0.25211 0.82824 0.00916 0.0
C691 C 0.24154 0.80725 0.96746 0.0
C692 C 0.22419 0.79024 0.97807 0.0
C693 C 0.22098 0.79234 1.00438 0.0
C694 C 0.23521 0.81153 0.01973 0.0
C695 C 0.30008 0.78947 0.06236 0.0
C696 C 0.28114 0.83508 0.08019 0.0
C697 C 0.29203 0.80749 0.0454 0.0
N698 N 0.28259 0.8299 0.0544 0.0
C699 C 0.28902 0.81752 0.09771 0.0
C700 C 0.29853 0.79456 0.08868 0.0
C701 C 0.28338 0.90299 0.06201 0.0
C702 C 0.29698 0.94412 0.97246 0.0
C703 C 0.28043 0.95345 0.02129 0.0
C704 C 0.29974 0.96971 0.0125 0.0
C705 C 0.30804 0.96496 0.98791 0.0
N706 N 0.26962 0.93306 1.006 0.0
C707 C 0.2777 0.92829 0.98189 0.0
Co708 Co 0.25431 0.4203 1.00283 0.0
Co709 Co 0.2606 0.36368 0.03281 0.0
O710 O 0.27486 0.392 0.01359 0.0
C711 C 0.28783 0.40897 0.95826 0.0
O712 O 0.29724 0.3891 0.96878 0.0
C713 C 0.31101 0.37993 0.06088 0.0
O714 O 0.30739 0.40386 0.0562 0.0
O715 O 0.2488 0.38849 0.05933 0.0
O716 O 0.23631 0.42051 0.0357 0.0
H717 H 0.19286 0.31797 0.0807 0.0
H718 H 0.31156 0.42581 1.00398 0.0
O719 O 0.27128 0.42191 0.96936 0.0
H720 H 0.28635 0.49848 0.05921 0.0
H721 H 0.23877 0.50384 0.96276 0.0
H722 H 0.19941 0.43076 1.00513 0.0
H723 H 0.25356 0.46753 0.03762 0.0
H724 H 0.26499 0.46903 0.97696 0.0
O725 O 0.29412 0.36214 0.05333 0.0
H726 H 0.21113 0.35286 0.05625 0.0
H727 H 0.28036 0.31487 0.05065 0.0
H728 H 0.17253 0.46531 0.99146 0.0
H729 H 0.34492 0.45658 0.02465 0.0
H730 H 0.19221 0.50218 0.9701 0.0
H731 H 0.33246 0.49322 0.05266 0.0
O732 O 0.22757 0.39524 0.98566 0.0
H733 H 0.32488 0.32664 0.97554 0.0
H734 H 0.23595 0.31789 1.00194 0.0
H735 H 0.25013 0.28731 0.9688 0.0
H736 H 0.29493 0.29152 0.95544 0.0
H737 H 0.30977 0.35706 0.00834 0.0
H738 H 0.2629 0.27966 0.0752 0.0
H739 H 0.21881 0.28102 0.09032 0.0
O740 O 0.22673 0.3636 0.01281 0.0
C741 C 0.23725 0.40907 0.05662 0.0
C742 C 0.21207 0.31712 0.07416 0.0
C743 C 0.25139 0.29564 0.07109 0.0
N744 N 0.24672 0.33584 0.05188 0.0
C745 C 0.2225 0.33679 0.06025 0.0
C746 C 0.26119 0.31567 0.05725 0.0
C747 C 0.22665 0.29641 0.07957 0.0
C748 C 0.30583 0.44187 0.01568 0.0
N749 N 0.28049 0.44485 0.01936 0.0
C750 C 0.32489 0.45917 0.02756 0.0
C751 C 0.31789 0.47967 0.04333 0.0
C752 C 0.29204 0.48261 0.04704 0.0
C753 C 0.27353 0.46491 0.03487 0.0
C754 C 0.22998 0.4879 0.9721 0.0
C755 C 0.20815 0.44683 0.996 0.0
C756 C 0.24472 0.46809 0.98012 0.0
N757 N 0.23378 0.44796 0.99205 0.0
C758 C 0.19282 0.46629 0.98823 0.0
C759 C 0.20386 0.48696 0.97623 0.0
C760 C 0.21738 0.37462 0.99354 0.0
C761 C 0.30531 0.3246 0.9812 0.0
C762 C 0.25538 0.32006 0.99605 0.0
C763 C 0.26335 0.30257 0.97737 0.0
C764 C 0.28849 0.30492 0.96991 0.0
N765 N 0.27198 0.33937 1.007 0.0
C766 C 0.29667 0.34172 0.99984 0.0
Co767 Co 0.75516 0.17203 0.99866 0.0
Co768 Co 0.73975 0.11302 0.02001 0.0
O769 O 0.76495 0.14086 0.01434 0.0
C770 C 0.79869 0.15805 0.9669 0.0
O771 O 0.78649 0.1358 0.96004 0.0
C772 C 0.76964 0.12093 0.07046 0.0
O773 O 0.76482 0.14532 0.07093 0.0
O774 O 0.71923 0.13735 0.03998 0.0
O775 O 0.72152 0.17108 0.01542 0.0
H776 H 0.65096 0.07171 0.02406 0.0
H777 H 0.80498 0.1718 0.02869 0.0
O778 O 0.78881 0.17418 0.98203 0.0
H779 H 0.75857 0.24 0.07143 0.0
H780 H 0.7716 0.26101 0.96875 0.0
H781 H 0.70748 0.18851 0.9728 0.0
H782 H 0.73903 0.21517 0.0329 0.0
H783 H 0.78314 0.22175 0.98952 0.0
O784 O 0.76044 0.10558 0.05193 0.0
H785 H 0.68292 0.10646 0.01597 0.0
H786 H 0.74354 0.06024 0.03815 0.0
H787 H 0.69506 0.22749 0.95203 0.0
H788 H 0.82534 0.19635 0.06705 0.0
H789 H 0.72725 0.26409 0.94993 0.0
H790 H 0.80206 0.23068 0.08872 0.0
O791 O 0.73888 0.15116 0.96829 0.0
H792 H 0.821 0.07473 0.99411 0.0
H793 H 0.72704 0.07253 0.97771 0.0
H794 H 0.75226 0.04359 0.95171 0.0
H795 H 0.79959 0.04453 0.95989 0.0
H796 H 0.79508 0.10351 0.01952 0.0
H797 H 0.71223 0.02506 0.04667 0.0
H798 H 0.66557 0.03065 0.03952 0.0
O799 O 0.71888 0.11918 0.98769 0.0
C800 C 0.71149 0.1588 0.03317 0.0
C801 C 0.67124 0.06901 0.02717 0.0
C802 C 0.70563 0.04285 0.0399 0.0
N803 N 0.71506 0.08531 0.0264 0.0
C804 C 0.68942 0.0886 0.02256 0.0
C805 C 0.72326 0.06286 0.0351 0.0
C806 C 0.67945 0.04599 0.03587 0.0
C807 C 0.79482 0.18686 0.03789 0.0
N808 N 0.77089 0.1921 0.0285 0.0
C809 C 0.80641 0.20063 0.05966 0.0
C810 C 0.79332 0.21987 0.07183 0.0
C811 C 0.76891 0.2251 0.06215 0.0
C812 C 0.75792 0.21092 0.04036 0.0
C813 C 0.75739 0.24521 0.96959 0.0
C814 C 0.72155 0.20441 0.97207 0.0
C815 C 0.76383 0.22291 0.98127 0.0
N816 N 0.74593 0.20295 0.98254 0.0
C817 C 0.71442 0.22641 0.96024 0.0
C818 C 0.7325 0.24693 0.95904 0.0
C819 C 0.72279 0.1318 0.96792 0.0
C820 C 0.80038 0.07409 0.99042 0.0
C821 C 0.74764 0.07312 0.98135 0.0
C822 C 0.76181 0.05664 0.96659 0.0
C823 C 0.78836 0.05717 0.9712 0.0
N824 N 0.75956 0.08962 1.00021 0.0
C825 C 0.78559 0.09028 1.0048 0.0
Co826 Co 0.10022 0.51853 0.27488 0.0
Co827 Co 0.15903 0.5312 0.25012 0.0
O828 O 0.13037 0.50723 0.25763 0.0
C829 C 0.11645 0.47444 0.30416 0.0
O830 O 0.14035 0.48319 0.30281 0.0
C831 C 0.15165 0.49233 0.20434 0.0
O832 O 0.13106 0.48161 0.21343 0.0
O833 O 0.13478 0.55305 0.23196 0.0
O834 O 0.10102 0.55131 0.25653 0.0
H835 H 0.20309 0.6187 0.24532 0.0
H836 H 0.09598 0.46653 0.24853 0.0
O837 O 0.09819 0.48614 0.29386 0.0
H838 H 0.02899 0.514 0.20525 0.0
H839 H 0.013 0.50656 0.31015 0.0
H840 H 0.08646 0.56786 0.29963 0.0
H841 H 0.0568 0.53484 0.24114 0.0
H842 H 0.05056 0.49273 0.28779 0.0
O843 O 0.16384 0.51171 0.21635 0.0
H844 H 0.16798 0.58783 0.25502 0.0
H845 H 0.21018 0.52567 0.22842 0.0
H846 H 0.04919 0.58256 0.32195 0.0
H847 H 0.06832 0.44482 0.21295 0.0
H848 H 0.01212 0.55179 0.32733 0.0
H849 H 0.03461 0.46863 0.19096 0.0
O850 O 0.1227 0.53533 0.30366 0.0
H851 H 0.19594 0.44789 0.27259 0.0
H852 H 0.2025 0.54187 0.28947 0.0
H853 H 0.23235 0.51551 0.3129 0.0
H854 H 0.22928 0.46815 0.30443 0.0
H855 H 0.16624 0.47486 0.24996 0.0
H856 H 0.24564 0.55588 0.21823 0.0
H857 H 0.24227 0.60276 0.22679 0.0
O858 O 0.15598 0.55178 0.28344 0.0
C859 C 0.11356 0.56119 0.23887 0.0
C860 C 0.20482 0.59832 0.24158 0.0
C861 C 0.22869 0.56306 0.22634 0.0
N862 N 0.1871 0.55498 0.24248 0.0
C863 C 0.18503 0.58074 0.24709 0.0
C864 C 0.20851 0.54605 0.23209 0.0
C865 C 0.22679 0.58936 0.23116 0.0
C866 C 0.08125 0.47697 0.23918 0.0
N867 N 0.07816 0.50197 0.24681 0.0
C868 C 0.06569 0.4646 0.21898 0.0
C869 C 0.0468 0.47798 0.20663 0.0
C870 C 0.04367 0.50344 0.21461 0.0
C871 C 0.0596 0.51519 0.23486 0.0
C872 C 0.02901 0.52016 0.30788 0.0
C873 C 0.07033 0.55441 0.30176 0.0
C874 C 0.05035 0.51243 0.29527 0.0
N875 N 0.07058 0.52954 0.29222 0.0
C876 C 0.04931 0.56282 0.31448 0.0
C877 C 0.02853 0.54554 0.31751 0.0
C878 C 0.14316 0.54977 0.30338 0.0
C879 C 0.19761 0.46852 0.27629 0.0
C880 C 0.20097 0.52128 0.28566 0.0
C881 C 0.21798 0.50645 0.29898 0.0
C882 C 0.21627 0.47989 0.29421 0.0
N883 N 0.1828 0.51003 0.26795 0.0
C884 C 0.18095 0.48397 0.26331 0.0
Co885 Co 0.75214 0.91905 0.50121 0.0
Co886 Co 0.75793 0.86292 0.53216 0.0
O887 O 0.77248 0.89078 0.51248 0.0
C888 C 0.78583 0.90696 0.45694 0.0
O889 O 0.79485 0.88702 0.46767 0.0
C890 C 0.80897 0.87861 0.55957 0.0
O891 O 0.80624 0.90244 0.55396 0.0
O892 O 0.74645 0.88832 0.55835 0.0
O893 O 0.73399 0.91981 0.534 0.0
H894 H 0.68979 0.81885 0.58085 0.0
H895 H 0.8094 0.92433 0.50243 0.0
O896 O 0.76931 0.92014 0.46779 0.0
H897 H 0.78435 0.99778 0.5567 0.0
H898 H 0.73723 1.00214 0.46003 0.0
H899 H 0.69728 0.92984 0.50308 0.0
H900 H 0.7515 0.96669 0.53544 0.0
H901 H 0.7632 0.96737 0.47478 0.0
O902 O 0.79144 0.8612 0.55275 0.0
H903 H 0.70842 0.85311 0.55583 0.0
H904 H 0.77711 0.81413 0.55069 0.0
H905 H 0.67066 0.96436 0.48886 0.0
H906 H 0.84282 0.95526 0.52275 0.0
H907 H 0.69063 1.00084 0.46715 0.0
H908 H 0.83044 0.99228 0.55028 0.0
O909 O 0.7253 0.89392 0.48428 0.0
H910 H 0.82165 0.82429 0.47528 0.0
H911 H 0.73278 0.81693 0.502 0.0
H912 H 0.74657 0.78567 0.46928 0.0
H913 H 0.79134 0.78917 0.45576 0.0
H914 H 0.80694 0.85538 0.50767 0.0
H915 H 0.75929 0.77955 0.57581 0.0
H916 H 0.71528 0.78173 0.59099 0.0
O917 O 0.72404 0.86294 0.51216 0.0
C918 C 0.73493 0.90884 0.55519 0.0
C919 C 0.70896 0.81764 0.57429 0.0
C920 C 0.74797 0.79561 0.57148 0.0
N921 N 0.74375 0.83556 0.55167 0.0
C922 C 0.71959 0.83696 0.56006 0.0
C923 C 0.75798 0.81529 0.55731 0.0
C924 C 0.72328 0.79683 0.57999 0.0
C925 C 0.80371 0.94056 0.51392 0.0
N926 N 0.77838 0.94367 0.51753 0.0
C927 C 0.8228 0.95795 0.5256 0.0
C928 C 0.81585 0.97867 0.5411 0.0
C929 C 0.79001 0.98173 0.54474 0.0
C930 C 0.77146 0.96395 0.53277 0.0
C931 C 0.72832 0.98637 0.4695 0.0
C932 C 0.70615 0.94573 0.4938 0.0
C933 C 0.74291 0.96658 0.47784 0.0
N934 N 0.7318 0.94667 0.48996 0.0
C935 C 0.69096 0.96519 0.48572 0.0
C936 C 0.70217 0.98564 0.47352 0.0
C937 C 0.71482 0.87365 0.49263 0.0
C938 C 0.8021 0.82255 0.48101 0.0
C939 C 0.7522 0.81879 0.49604 0.0
C940 C 0.75995 0.80092 0.47759 0.0
C941 C 0.78507 0.80288 0.47004 0.0
N942 N 0.769 0.83808 0.50668 0.0
C943 C 0.79368 0.84005 0.49942 0.0
Co944 Co 0.85446 0.02856 0.26712 0.0
Co945 Co 0.90979 0.01711 0.23815 0.0
O946 O 0.88006 1.00474 0.25633 0.0
C947 C 0.86299 0.99756 0.31299 0.0
O948 O 0.88785 0.99958 0.31051 0.0
C949 C 0.8941 0.96409 0.21383 0.0
O950 O 0.87152 0.96465 0.22341 0.0
O951 O 0.88603 0.02975 0.21115 0.0
O952 O 0.85963 0.04974 0.23673 0.0
H953 H 0.96026 0.08231 0.1913 0.0
H954 H 0.83881 0.97292 0.26277 0.0
O955 O 0.84778 0.00817 0.29757 0.0
H956 H 0.77895 0.01231 0.20257 0.0
H957 H 0.77118 0.05235 0.30315 0.0
H958 H 0.8526 0.08523 0.27049 0.0
H959 H 0.81251 0.039 0.22847 0.0
H960 H 0.80277 0.02249 0.28834 0.0
O961 O 0.91035 0.9833 0.21753 0.0
H962 H 0.92383 0.06593 0.21488 0.0
H963 H 0.95791 0.99467 0.22159 0.0
H964 H 0.82145 0.11575 0.28492 0.0
H965 H 0.8052 0.94556 0.23757 0.0
H966 H 0.78039 0.09935 0.3014 0.0
H967 H 0.77506 0.96523 0.20709 0.0
O968 O 0.88185 0.05005 0.28757 0.0
H969 H 0.93986 0.9523 0.29875 0.0
H970 H 0.95684 0.03903 0.26886 0.0
H971 H 0.98542 0.02366 0.30305 0.0
H972 H 0.97708 0.97994 0.31816 0.0
H973 H 0.91156 0.96858 0.26489 0.0
H974 H 0.99457 0.01021 0.19788 0.0
H975 H 0.99596 0.05437 0.18266 0.0
O976 O 0.91136 0.05138 0.25824 0.0
C977 C 0.86854 0.04534 0.21479 0.0
C978 C 0.9599 0.06306 0.19789 0.0
C979 C 0.97914 0.02258 0.20155 0.0
N980 N 0.9388 0.02944 0.21975 0.0
C981 C 0.93935 0.05369 0.2113 0.0
C982 C 0.95828 0.01386 0.21491 0.0
C983 C 0.97992 0.04736 0.19303 0.0
C984 C 0.82566 0.98166 0.24969 0.0
N985 N 0.8278 1.00751 0.24698 0.0
C986 C 0.80672 0.96605 0.2354 0.0
C987 C 0.78983 0.97709 0.21829 0.0
C988 C 0.79203 1.0035 0.21571 0.0
C989 C 0.8112 0.01849 0.23032 0.0
C990 C 0.78899 0.05973 0.29599 0.0
C991 C 0.83473 0.07793 0.27753 0.0
C992 C 0.80699 0.04292 0.28764 0.0
N993 N 0.82947 0.05209 0.27844 0.0
C994 C 0.81719 0.09531 0.28572 0.0
C995 C 0.79416 0.0861 0.29499 0.0
C996 C 0.90234 0.05988 0.2791 0.0
C997 C 0.94378 0.97133 0.29224 0.0
C998 C 0.95299 0.02003 0.27537 0.0
C999 C 0.9693 0.0114 0.29471 0.0
C1000 C 0.96462 0.98687 0.30316 0.0
N1001 N 0.93262 1.00464 0.26467 0.0
C1002 C 0.92789 0.9806 0.27294 0.0
Co1003 Co 0.25453 0.6733 0.49963 0.0
Co1004 Co 0.23924 0.61472 0.52276 0.0
O1005 O 0.26439 0.6425 0.51627 0.0
C1006 C 0.29865 0.65619 0.47107 0.0
O1007 O 0.28891 0.63253 0.47156 0.0
C1008 C 0.2692 0.62417 0.57314 0.0
O1009 O 0.26461 0.64859 0.57292 0.0
O1010 O 0.21852 0.63946 0.54191 0.0
O1011 O 0.22137 0.67316 0.51733 0.0
H1012 H 0.15059 0.57333 0.52754 0.0
H1013 H 0.30499 0.67355 0.52844 0.0
O1014 O 0.28744 0.67471 0.48153 0.0
H1015 H 0.26012 0.74324 0.57064 0.0
H1016 H 0.27033 0.76109 0.46665 0.0
H1017 H 0.20634 0.6892 0.47434 0.0
H1018 H 0.23951 0.71752 0.53314 0.0
H1019 H 0.28231 0.7225 0.48837 0.0
O1020 O 0.2598 0.60838 0.55509 0.0
H1021 H 0.18244 0.60786 0.51859 0.0
H1022 H 0.24322 0.56263 0.54261 0.0
H1023 H 0.19347 0.72752 0.45265 0.0
H1024 H 0.32642 0.69895 0.56577 0.0
H1025 H 0.2256 0.76381 0.44871 0.0
H1026 H 0.30391 0.73404 0.58716 0.0
O1027 O 0.2377 0.65172 0.4701 0.0
H1028 H 0.32062 0.57455 0.50013 0.0
H1029 H 0.22706 0.57339 0.48114 0.0
H1030 H 0.2525 0.5434 0.45668 0.0
H1031 H 0.29963 0.54379 0.46617 0.0
H1032 H 0.29452 0.60451 0.52386 0.0
H1033 H 0.21202 0.52769 0.55199 0.0
H1034 H 0.16534 0.53288 0.54436 0.0
O1035 O 0.21843 0.6197 0.49005 0.0
C1036 C 0.2111 0.66101 0.53505 0.0
C1037 C 0.17088 0.5708 0.53087 0.0
C1038 C 0.20536 0.5452 0.54463 0.0
N1039 N 0.21466 0.58719 0.52989 0.0
C1040 C 0.18901 0.59027 0.52579 0.0
C1041 C 0.22293 0.56508 0.53934 0.0
C1042 C 0.17917 0.54812 0.54033 0.0
C1043 C 0.29518 0.68894 0.53752 0.0
N1044 N 0.27109 0.69412 0.52855 0.0
C1045 C 0.30736 0.70319 0.5587 0.0
C1046 C 0.29471 0.72285 0.57072 0.0
C1047 C 0.27013 0.72801 0.56146 0.0
C1048 C 0.25853 0.71334 0.54026 0.0
C1049 C 0.25615 0.74542 0.4683 0.0
C1050 C 0.22038 0.70498 0.47282 0.0
C1051 C 0.26283 0.72351 0.48053 0.0
N1052 N 0.24497 0.70372 0.48279 0.0
C1053 C 0.213 0.7266 0.46046 0.0
C1054 C 0.23104 0.74694 0.45824 0.0
C1055 C 0.22196 0.63214 0.47009 0.0
C1056 C 0.30009 0.57415 0.49586 0.0
C1057 C 0.24758 0.57385 0.48527 0.0
C1058 C 0.26187 0.55672 0.47142 0.0
C1059 C 0.28831 0.55693 0.47678 0.0
N1060 N 0.25928 0.59072 0.50394 0.0
C1061 C 0.28518 0.59099 0.50933 0.0
Co1062 Co 0.35489 0.52887 0.76752 0.0
Co1063 Co 0.41041 0.51813 0.73851 0.0
O1064 O 0.3808 0.50545 0.75666 0.0
C1065 C 0.36452 0.49849 0.8135 0.0
O1066 O 0.38932 0.50134 0.81087 0.0
C1067 C 0.39476 0.46539 0.71364 0.0
O1068 O 0.37189 0.46625 0.72254 0.0
O1069 O 0.38654 0.5307 0.71157 0.0
O1070 O 0.35953 0.55001 0.73701 0.0
H1071 H 0.46038 0.5838 0.69177 0.0
H1072 H 0.34005 0.47304 0.76353 0.0
O1073 O 0.34881 0.50847 0.79807 0.0
H1074 H 0.27924 0.51122 0.70335 0.0
H1075 H 0.27141 0.55131 0.80398 0.0
H1076 H 0.35205 0.58543 0.77069 0.0
H1077 H 0.31259 0.53848 0.72893 0.0
H1078 H 0.30345 0.52199 0.78909 0.0
O1079 O 0.4112 0.48438 0.71785 0.0
H1080 H 0.42407 0.56709 0.71533 0.0
H1081 H 0.45871 0.49612 0.72192 0.0
H1082 H 0.32045 0.61543 0.78519 0.0
H1083 H 0.30665 0.44512 0.73866 0.0
H1084 H 0.27977 0.5984 0.80199 0.0
H1085 H 0.27603 0.46418 0.70819 0.0
O1086 O 0.38202 0.55084 0.78779 0.0
H1087 H 0.441 0.45327 0.79877 0.0
H1088 H 0.45725 0.54033 0.76939 0.0
H1089 H 0.48591 0.52504 0.80356 0.0
H1090 H 0.47793 0.48116 0.81842 0.0
H1091 H 0.4126 0.46947 0.76492 0.0
H1092 H 0.49526 0.51198 0.69823 0.0
H1093 H 0.49631 0.55616 0.68308 0.0
O1094 O 0.41172 0.55234 0.75866 0.0
C1095 C 0.36878 0.54599 0.71517 0.0
C1096 C 0.46017 0.56454 0.69833 0.0
C1097 C 0.47973 0.52422 0.70193 0.0
N1098 N 0.43933 0.53073 0.72014 0.0
C1099 C 0.43969 0.55499 0.71173 0.0
C1100 C 0.45894 0.51532 0.71527 0.0
C1101 C 0.48031 0.54901 0.69344 0.0
C1102 C 0.32668 0.48151 0.75047 0.0
N1103 N 0.32844 0.50734 0.74758 0.0
C1104 C 0.30786 0.46559 0.73637 0.0
C1105 C 0.29071 0.47629 0.71925 0.0
C1106 C 0.29253 0.50267 0.71649 0.0
C1107 C 0.31159 0.51799 0.73092 0.0
C1108 C 0.28904 0.55896 0.79667 0.0
C1109 C 0.33435 0.57786 0.77786 0.0
C1110 C 0.30729 0.54246 0.78828 0.0
N1111 N 0.32955 0.55198 0.7789 0.0
C1112 C 0.31655 0.59495 0.7861 0.0
C1113 C 0.29374 0.58538 0.79554 0.0
C1114 C 0.40248 0.56082 0.7794 0.0
C1115 C 0.44475 0.47238 0.79238 0.0
C1116 C 0.45356 0.52126 0.7758 0.0
C1117 C 0.46991 0.51268 0.79512 0.0
C1118 C 0.46544 0.48806 0.80343 0.0
N1119 N 0.43334 0.50575 0.76498 0.0
C1120 C 0.42881 0.48161 0.77309 0.0
Co1121 Co 0.59883 0.01887 0.77411 0.0
Co1122 Co 0.65715 0.03113 0.74831 0.0
O1123 O 0.62861 1.00729 0.75642 0.0
C1124 C 0.61482 0.97452 0.80333 0.0
O1125 O 0.63883 0.98273 0.80166 0.0
C1126 C 0.64911 0.99179 0.70298 0.0
O1127 O 0.62855 0.9814 0.7124 0.0
O1128 O 0.63267 0.0529 0.73028 0.0
O1129 O 0.59965 0.05162 0.75577 0.0
H1130 H 0.70123 0.11844 0.74227 0.0
H1131 H 0.59377 0.96685 0.74783 0.0
O1132 O 0.59673 0.98654 0.79314 0.0
H1133 H 0.52667 0.01492 0.70549 0.0
H1134 H 0.51213 0.00782 0.81068 0.0
H1135 H 0.58593 0.06838 0.79916 0.0
H1136 H 0.55513 0.03555 0.74099 0.0
H1137 H 0.54917 0.99359 0.78771 0.0
O1138 O 0.6615 0.01127 0.71461 0.0
H1139 H 0.66623 0.08776 0.75266 0.0
H1140 H 0.70794 0.02529 0.72592 0.0
H1141 H 0.5492 0.08347 0.82209 0.0
H1142 H 0.56545 0.94534 0.71263 0.0
H1143 H 0.51195 0.05309 0.82796 0.0
H1144 H 0.53168 0.96945 0.69112 0.0
O1145 O 0.62187 0.0355 0.80253 0.0
H1146 H 0.69422 0.94798 0.7711 0.0
H1147 H 0.70119 0.04208 0.78698 0.0
H1148 H 0.73131 0.01589 0.81026 0.0
H1149 H 0.72805 0.96847 0.80229 0.0
H1150 H 0.66425 0.97479 0.74862 0.0
H1151 H 0.74328 0.0553 0.71504 0.0
H1152 H 0.7401 0.10224 0.72332 0.0
O1153 O 0.65459 0.05202 0.78156 0.0
C1154 C 0.61176 0.0613 0.73773 0.0
C1155 C 0.70287 0.09802 0.73865 0.0
C1156 C 0.72645 0.06259 0.72333 0.0
N1157 N 0.6851 0.05476 0.74008 0.0
C1158 C 0.68315 0.08056 0.74455 0.0
C1159 C 0.70635 0.04569 0.72947 0.0
C1160 C 0.72466 0.08892 0.72799 0.0
C1161 C 0.57902 0.97742 0.73867 0.0
N1162 N 0.57626 1.00248 0.74635 0.0
C1163 C 0.56309 0.96516 0.7187 0.0
C1164 C 0.54417 0.97871 0.70662 0.0
C1165 C 0.54137 1.00423 0.71464 0.0
C1166 C 0.55767 0.01587 0.73466 0.0
C1167 C 0.52822 0.02126 0.80819 0.0
C1168 C 0.56972 0.05508 0.80151 0.0
C1169 C 0.54927 0.0133 0.79524 0.0
N1170 N 0.5696 0.0302 0.79191 0.0
C1171 C 0.54901 0.06372 0.81457 0.0
C1172 C 0.52813 0.04666 0.81788 0.0
C1173 C 0.64223 0.05002 0.8018 0.0
C1174 C 0.69598 0.96864 0.77458 0.0
C1175 C 0.69956 0.02146 0.78338 0.0
C1176 C 0.71673 1.00673 0.79662 0.0
C1177 C 0.71491 0.98014 0.79213 0.0
N1178 N 0.68113 0.01009 0.76603 0.0
C1179 C 0.67916 0.984 0.76168 0.0
Co1180 Co 0.75388 0.6605 0.03408 0.0
Co1181 Co 0.77675 0.60179 0.0192 0.0
O1182 O 0.76041 0.63265 0.00901 0.0
C1183 C 0.7035 0.65185 1.00383 0.0
O1184 O 0.70309 0.62741 0.00846 0.0
C1185 C 0.80581 0.61816 0.97494 0.0
O1186 O 0.80539 0.64198 0.98422 0.0
O1187 O 0.80631 0.62329 0.03611 0.0
O1188 O 0.78621 0.65521 0.05529 0.0
H1189 H 0.82299 0.54772 0.08101 0.0
H1190 H 0.7536 0.67076 0.9788 0.0
O1191 O 0.72191 0.66724 0.01318 0.0
H1192 H 0.82078 0.73135 0.02162 0.0
H1193 H 0.72527 0.74783 0.06099 0.0
H1194 H 0.75738 0.66726 0.09094 0.0
H1195 H 0.79574 0.7015 0.04676 0.0
H1196 H 0.73469 0.71284 0.0299 0.0
O1197 O 0.79506 0.59994 0.98639 0.0
H1198 H 0.80168 0.58608 0.0677 0.0
H1199 H 0.78773 0.55227 0.99188 0.0
H1200 H 0.74839 0.70185 0.12269 0.0
H1201 H 0.77792 0.70059 0.95299 0.0
H1202 H 0.73222 0.74249 0.10776 0.0
H1203 H 0.81187 0.73109 0.97439 0.0
O1204 O 0.73427 0.63589 0.05461 0.0
H1205 H 0.71086 0.57616 0.94709 0.0
H1206 H 0.74286 0.55788 0.03436 0.0
H1207 H 0.7053 0.5323 0.01372 0.0
H1208 H 0.68909 0.54135 0.96974 0.0
H1209 H 0.74825 0.60142 0.96856 0.0
H1210 H 0.80907 0.51363 1.00431 0.0
H1211 H 0.82678 0.51115 0.04919 0.0
O1212 O 0.75891 0.60225 0.05228 0.0
C1213 C 0.80617 0.64275 0.05198 0.0
C1214 C 0.81527 0.54854 0.06141 0.0
C1215 C 0.80749 0.52942 0.01836 0.0
N1216 N 0.79329 0.57132 0.02911 0.0
C1217 C 0.80313 0.57018 0.05379 0.0
C1218 C 0.79547 0.55137 0.01143 0.0
C1219 C 0.81742 0.52803 0.04355 0.0
C1220 C 0.76814 0.68416 0.98831 0.0
N1221 N 0.7732 0.68437 0.01428 0.0
C1222 C 0.78194 0.70093 0.97356 0.0
C1223 C 0.80102 0.718 0.98558 0.0
C1224 C 0.80604 0.71814 0.01207 0.0
C1225 C 0.79187 0.7011 0.0262 0.0
C1226 C 0.73235 0.73023 0.06773 0.0
C1227 C 0.75047 0.68494 0.08429 0.0
C1228 C 0.73766 0.71032 0.05022 0.0
N1229 N 0.74675 0.68809 0.05859 0.0
C1230 C 0.74536 0.70443 0.10236 0.0
C1231 C 0.73626 0.72722 0.09397 0.0
C1232 C 0.74113 0.61445 0.06233 0.0
C1233 C 0.71779 0.57198 0.96622 0.0
C1234 C 0.73588 0.56199 0.01525 0.0
C1235 C 0.71464 0.5474 1.00364 0.0
C1236 C 0.70556 0.55248 0.97896 0.0
N1237 N 0.7478 0.58105 1.00261 0.0
C1238 C 0.739 0.58616 0.97843 0.0
Co1239 Co 0.86598 0.53643 0.75877 0.0
Co1240 Co 0.92205 0.50834 0.74843 0.0
O1241 O 0.89584 0.51879 0.7717 0.0
C1242 C 0.88176 0.56269 0.81073 0.0
O1243 O 0.90532 0.55591 0.80874 0.0
C1244 C 0.9132 0.46214 0.77885 0.0
O1245 O 0.88833 0.46445 0.77642 0.0
O1246 O 0.89529 0.48765 0.72639 0.0
O1247 O 0.86513 0.51625 0.72458 0.0
H1248 H 0.95705 0.49108 0.66198 0.0
H1249 H 0.86384 0.51044 0.80763 0.0
O1250 O 0.86474 0.55697 0.79252 0.0
H1251 H 0.79159 0.47003 0.75176 0.0
H1252 H 0.78037 0.57516 0.76447 0.0
H1253 H 0.85215 0.55929 0.70967 0.0
H1254 H 0.81979 0.50458 0.73639 0.0
H1255 H 0.81727 0.55217 0.78055 0.0
O1256 O 0.92857 0.4779 0.76883 0.0
H1257 H 0.9251 0.50509 0.69185 0.0
H1258 H 0.97392 0.4878 0.75554 0.0
H1259 H 0.8155 0.58217 0.69276 0.0
H1260 H 0.83589 0.4762 0.82389 0.0
H1261 H 0.77927 0.59024 0.72024 0.0
H1262 H 0.7995 0.45567 0.79585 0.0
O1263 O 0.8895 0.56373 0.74618 0.0
H1264 H 0.96945 0.53793 0.83239 0.0
H1265 H 0.96386 0.54758 0.73896 0.0
H1266 H 0.99675 0.57363 0.76637 0.0
H1267 H 0.99978 0.56883 0.81345 0.0
H1268 H 0.93649 0.5126 0.80433 0.0
H1269 H 1.00631 0.47341 0.72634 0.0
H1270 H 0.99801 0.47509 0.67919 0.0
O1271 O 0.91704 0.53867 0.7272 0.0
C1272 C 0.87476 0.49568 0.71623 0.0
C1273 C 0.96092 0.49031 0.68249 0.0
C1274 C 0.98855 0.48036 0.71861 0.0
N1275 N 0.94768 0.4974 0.72542 0.0
C1276 C 0.94292 0.49827 0.69951 0.0
C1277 C 0.9701 0.48848 0.73504 0.0
C1278 C 0.98389 0.48132 0.69216 0.0
C1279 C 0.84788 0.50184 0.79541 0.0
N1280 N 0.84339 0.50965 0.77115 0.0
C1281 C 0.83218 0.48235 0.80468 0.0
C1282 C 0.8118 0.47081 0.78892 0.0
C1283 C 0.80736 0.47884 0.76418 0.0
C1284 C 0.82346 0.49837 0.75555 0.0
C1285 C 0.79602 0.57173 0.7523 0.0
C1286 C 0.8364 0.56262 0.72171 0.0
C1287 C 0.81702 0.55878 0.76132 0.0
N1288 N 0.83679 0.55426 0.746 0.0
C1289 C 0.81573 0.57564 0.71204 0.0
C1290 C 0.79542 0.58018 0.72748 0.0
C1291 C 0.90736 0.56032 0.73094 0.0
C1292 C 0.96833 0.5402 0.81191 0.0
C1293 C 0.9648 0.54559 0.75946 0.0
C1294 C 0.98359 0.56029 0.77487 0.0
C1295 C 0.98531 0.55756 0.80127 0.0
N1296 N 0.94812 0.52868 0.77005 0.0
C1297 C 0.94977 0.52582 0.7959 0.0
Co1298 Co 0.77106 0.35221 0.5306 0.0
Co1299 Co 0.74434 0.40759 0.51554 0.0
O1300 O 0.76182 0.37691 0.50551 0.0
C1301 C 0.81798 0.3595 0.50124 0.0
O1302 O 0.81525 0.38432 0.50221 0.0
C1303 C 0.70277 0.40706 0.47384 0.0
O1304 O 0.68603 0.40808 0.49161 0.0
O1305 O 0.71611 0.38535 0.52851 0.0
O1306 O 0.7399 0.35853 0.55012 0.0
H1307 H 0.69525 0.46291 0.57458 0.0
H1308 H 0.76727 0.33646 0.47505 0.0
O1309 O 0.80225 0.34453 0.51179 0.0
H1310 H 0.70627 0.27694 0.51401 0.0
H1311 H 0.80492 0.26944 0.55871 0.0
H1312 H 0.77184 0.35204 0.58739 0.0
H1313 H 0.73206 0.31052 0.54086 0.0
H1314 H 0.79185 0.30025 0.5272 0.0
O1315 O 0.72652 0.40544 0.48022 0.0
H1316 H 0.71819 0.42481 0.56165 0.0
H1317 H 0.732 0.45546 0.48986 0.0
H1318 H 0.78449 0.3217 0.61954 0.0
H1319 H 0.74203 0.30298 0.4475 0.0
H1320 H 0.80117 0.28006 0.60525 0.0
H1321 H 0.71124 0.27295 0.46698 0.0
O1322 O 0.79099 0.37999 0.55206 0.0
H1323 H 0.80747 0.43268 0.45105 0.0
H1324 H 0.7766 0.45411 0.53659 0.0
H1325 H 0.81233 0.48056 0.52098 0.0
H1326 H 0.82793 0.46999 0.47786 0.0
H1327 H 0.77209 0.40644 0.46759 0.0
H1328 H 0.70915 0.49386 0.50199 0.0
H1329 H 0.69061 0.49777 0.54464 0.0
O1330 O 0.76272 0.41058 0.55075 0.0
C1331 C 0.71858 0.3683 0.54487 0.0
C1332 C 0.70325 0.46143 0.55595 0.0
C1333 C 0.71105 0.4788 0.51521 0.0
N1334 N 0.72644 0.43791 0.52505 0.0
C1335 C 0.71626 0.43991 0.54852 0.0
C1336 C 0.72396 0.45701 0.50845 0.0
C1337 C 0.70065 0.48098 0.53914 0.0
C1338 C 0.75404 0.32336 0.48368 0.0
N1339 N 0.75126 0.32537 0.50954 0.0
C1340 C 0.73975 0.30448 0.46798 0.0
C1341 C 0.72245 0.28765 0.47892 0.0
C1342 C 0.71965 0.28989 0.5053 0.0
C1343 C 0.73427 0.30899 0.5204 0.0
C1344 C 0.79764 0.28751 0.56518 0.0
C1345 C 0.77895 0.3339 0.58101 0.0
C1346 C 0.79028 0.30506 0.54743 0.0
N1347 N 0.78094 0.32786 0.55544 0.0
C1348 C 0.78614 0.31683 0.59931 0.0
C1349 C 0.79552 0.29347 0.59128 0.0
C1350 C 0.78276 0.40112 0.56066 0.0
C1351 C 0.80079 0.43754 0.46983 0.0
C1352 C 0.7834 0.44921 0.5179 0.0
C1353 C 0.80357 0.46435 0.50912 0.0
C1354 C 0.81229 0.45843 0.48491 0.0
N1355 N 0.77217 0.42875 0.503 0.0
C1356 C 0.78065 0.42283 0.47925 0.0
Co1357 Co 0.67425 0.50108 0.257 0.0
Co1358 Co 0.61584 0.52591 0.24339 0.0
O1359 O 0.64413 0.51858 0.26776 0.0
C1360 C 0.65732 0.47174 0.30083 0.0
O1361 O 0.63379 0.47116 0.29048 0.0
C1362 C 0.62417 0.57251 0.28083 0.0
O1363 O 0.64624 0.56472 0.2894 0.0
O1364 O 0.64048 0.54389 0.22175 0.0
O1365 O 0.67387 0.51887 0.22382 0.0
H1366 H 0.57287 0.5303 0.15535 0.0
H1367 H 0.67844 0.52811 0.30877 0.0
O1368 O 0.67567 0.48291 0.28989 0.0
H1369 H 0.746 0.57018 0.26095 0.0
H1370 H 0.76108 0.46551 0.27059 0.0
H1371 H 0.68843 0.47548 0.20821 0.0
H1372 H 0.71793 0.53434 0.24041 0.0
H1373 H 0.7235 0.48831 0.28361 0.0
O1374 O 0.61075 0.55964 0.26277 0.0
H1375 H 0.60764 0.52084 0.18668 0.0
H1376 H 0.56454 0.54741 0.24822 0.0
H1377 H 0.72573 0.45272 0.19431 0.0
H1378 H 0.70643 0.56358 0.3302 0.0
H1379 H 0.7624 0.44762 0.22562 0.0
H1380 H 0.74041 0.58498 0.3062 0.0
O1381 O 0.65174 0.47216 0.24044 0.0
H1382 H 0.57854 0.50422 0.32667 0.0
H1383 H 0.57246 0.4863 0.23274 0.0
H1384 H 0.54266 0.46294 0.25931 0.0
H1385 H 0.54552 0.4719 0.30663 0.0
H1386 H 0.60816 0.52688 0.29945 0.0
H1387 H 0.5294 0.55735 0.21755 0.0
H1388 H 0.5334 0.54868 0.17075 0.0
O1389 O 0.61909 0.49251 0.22302 0.0
C1390 C 0.66168 0.53667 0.21378 0.0
C1391 C 0.57087 0.53409 0.1757 0.0
C1392 C 0.54649 0.5493 0.21061 0.0
N1393 N 0.58806 0.53339 0.21925 0.0
C1394 C 0.59047 0.52871 0.19353 0.0
C1395 C 0.56648 0.54369 0.22788 0.0
C1396 C 0.54874 0.54443 0.18435 0.0
C1397 C 0.69332 0.53716 0.29826 0.0
N1398 N 0.69637 0.52926 0.2733 0.0
C1399 C 0.70905 0.55732 0.31047 0.0
C1400 C 0.72808 0.56934 0.29698 0.0
C1401 C 0.73119 0.56108 0.27158 0.0
C1402 C 0.7151 0.54088 0.25999 0.0
C1403 C 0.74524 0.46765 0.25676 0.0
C1404 C 0.70438 0.47346 0.2219 0.0
C1405 C 0.72389 0.4805 0.26403 0.0
N1406 N 0.70389 0.48339 0.24662 0.0
C1407 C 0.72542 0.4605 0.21394 0.0
C1408 C 0.74597 0.45763 0.23152 0.0
C1409 C 0.63156 0.47245 0.22562 0.0
C1410 C 0.57699 0.50027 0.30605 0.0
C1411 C 0.57387 0.49033 0.25332 0.0
C1412 C 0.5569 0.47705 0.26826 0.0
C1413 C 0.55851 0.4821 0.29481 0.0
N1414 N 0.59188 0.50825 0.26446 0.0
C1415 C 0.59361 0.51321 0.29049 0.0
H1416 H 0.14588 0.4332 0.30966 0.0
H1417 H 0.05308 0.35934 0.40012 0.0
H1418 H 0.07332 0.46191 0.32892 0.0
H1419 H 0.09343 0.31822 0.34268 0.0
H1420 H 0.06821 0.39998 0.38302 0.0
H1421 H 0.13436 0.39336 0.33037 0.0
C1422 C 0.12766 0.43121 0.31845 0.0
C1423 C 0.11046 0.45078 0.31749 0.0
C1424 C 0.07393 0.38202 0.3744 0.0
C1425 C 0.09752 0.40573 0.34156 0.0
C1426 C 0.06549 0.35888 0.38423 0.0
C1427 C 0.07201 0.3354 0.37277 0.0
C1428 C 0.08953 0.38167 0.3534 0.0
C1429 C 0.08791 0.33592 0.35201 0.0
C1430 C 0.1211 0.40851 0.33014 0.0
C1431 C 0.08705 0.4472 0.32908 0.0
N1432 N 0.09624 0.35869 0.34305 0.0
N1433 N 0.08133 0.42519 0.3408 0.0
H1434 H 0.96248 0.83007 0.5721 0.0
H1435 H 0.81615 0.84022 0.59194 0.0
H1436 H 0.93295 0.81278 0.64493 0.0
H1437 H 0.85755 0.89887 0.55335 0.0
H1438 H 0.85722 0.82482 0.60795 0.0
H1439 H 0.92258 0.85033 0.56062 0.0
C1440 C 0.94759 0.83056 0.58567 0.0
C1441 C 0.95098 0.81975 0.60951 0.0
C1442 C 0.85725 0.84124 0.59622 0.0
C1443 C 0.90526 0.84241 0.59628 0.0
C1444 C 0.8339 0.85 0.58706 0.0
C1445 C 0.83351 0.87093 0.57143 0.0
C1446 C 0.88034 0.85294 0.58899 0.0
C1447 C 0.85704 0.88283 0.56556 0.0
C1448 C 0.92496 0.84223 0.57917 0.0
C1449 C 0.93112 0.821 0.62642 0.0
N1450 N 0.87954 0.87339 0.57398 0.0
N1451 N 0.90891 0.83178 0.61932 0.0
H1452 H 0.44613 0.58781 0.76717 0.0
H1453 H 0.45035 0.68993 0.88818 0.0
H1454 H 0.38943 0.58633 0.82405 0.0
H1455 H 0.50684 0.68886 0.83108 0.0
H1456 H 0.4275 0.65231 0.86531 0.0
H1457 H 0.46818 0.62509 0.79058 0.0
C1458 C 0.43827 0.59526 0.78461 0.0
C1459 C 0.41584 0.58373 0.79363 0.0
C1460 C 0.44489 0.66036 0.85781 0.0
C1461 C 0.4412 0.62681 0.82068 0.0
C1462 C 0.45797 0.68186 0.87086 0.0
C1463 C 0.48058 0.69275 0.86156 0.0
C1464 C 0.45445 0.64962 0.83529 0.0
C1465 C 0.48949 0.68132 0.83902 0.0
C1466 C 0.45093 0.61665 0.79801 0.0
C1467 C 0.40666 0.59449 0.81636 0.0
N1468 N 0.47643 0.66047 0.82672 0.0
N1469 N 0.41937 0.61541 0.8291 0.0
H1470 H 0.58734 0.25417 0.06868 0.0
H1471 H 0.68459 0.14127 0.0735 0.0
H1472 H 0.58847 0.20102 0.12892 0.0
H1473 H 0.68804 0.20239 0.02142 0.0
H1474 H 0.64839 0.161 0.09321 0.0
H1475 H 0.62305 0.23353 0.05025 0.0
C1476 C 0.59504 0.23812 0.07809 0.0
C1477 C 0.58472 0.22939 0.10048 0.0
C1478 C 0.65716 0.17004 0.07749 0.0
C1479 C 0.62602 0.20544 0.07921 0.0
C1480 C 0.67782 0.15878 0.06619 0.0
C1481 C 0.68953 0.17012 0.04572 0.0
C1482 C 0.64804 0.19272 0.06815 0.0
C1483 C 0.67981 0.19284 0.03712 0.0
C1484 C 0.61556 0.22632 0.06752 0.0
C1485 C 0.59574 0.20846 0.11167 0.0
N1486 N 0.65973 0.20326 0.0483 0.0
N1487 N 0.61575 0.19718 0.10091 0.0
H1488 H 0.13218 0.58752 0.19875 0.0
H1489 H 0.02456 0.69019 0.20467 0.0
H1490 H 0.07071 0.58615 0.25049 0.0
H1491 H 0.07645 0.68616 0.1434 0.0
H1492 H 0.04351 0.6535 0.22276 0.0
H1493 H 0.11417 0.62466 0.17925 0.0
C1494 C 0.11492 0.59493 0.20601 0.0
C1495 C 0.10299 0.58353 0.22635 0.0
C1496 C 0.05082 0.66055 0.20535 0.0
C1497 C 0.0824 0.62618 0.20416 0.0
C1498 C 0.04 0.68166 0.19495 0.0
C1499 C 0.04884 0.69146 0.17235 0.0
C1500 C 0.07084 0.64893 0.19328 0.0
C1501 C 0.06898 0.67934 0.16082 0.0
C1502 C 0.10465 0.61614 0.19483 0.0
C1503 C 0.08066 0.59411 0.23489 0.0
N1504 N 0.07932 0.65874 0.17143 0.0
N1505 N 0.07122 0.61476 0.22384 0.0
H1506 H 0.5875 0.76593 0.44537 0.0
H1507 H 0.68848 0.88774 0.44863 0.0
H1508 H 0.58119 0.82463 0.3909 0.0
H1509 H 0.6867 0.83105 0.50552 0.0
H1510 H 0.65023 0.86526 0.42615 0.0
H1511 H 0.62512 0.78948 0.46607 0.0
C1512 C 0.59398 0.78381 0.43766 0.0
C1513 C 0.58086 0.7933 0.41634 0.0
C1514 C 0.65827 0.85784 0.44358 0.0
C1515 C 0.62451 0.82067 0.4403 0.0
C1516 C 0.6801 0.87067 0.45645 0.0
C1517 C 0.69105 0.86127 0.479 0.0
C1518 C 0.64738 0.83545 0.45329 0.0
C1519 C 0.67922 0.83906 0.48819 0.0
C1520 C 0.61559 0.79733 0.44961 0.0
C1521 C 0.59056 0.81657 0.40731 0.0
N1522 N 0.65821 0.82698 0.4753 0.0
N1523 N 0.61179 0.82949 0.41936 0.0
H1524 H 0.4494 0.31428 0.70306 0.0
H1525 H 0.43142 0.45911 0.67894 0.0
H1526 H 0.46368 0.34265 0.629 0.0
H1527 H 0.37796 0.41633 0.72257 0.0
H1528 H 0.4483 0.41855 0.66341 0.0
H1529 H 0.42811 0.35358 0.71423 0.0
C1530 C 0.44806 0.3288 0.68916 0.0
C1531 C 0.4583 0.32523 0.66506 0.0
C1532 C 0.43267 0.4181 0.67613 0.0
C1533 C 0.43437 0.37033 0.67791 0.0
C1534 C 0.42306 0.44116 0.68502 0.0
C1535 C 0.40318 0.44105 0.70197 0.0
C1536 C 0.42287 0.39484 0.68489 0.0
C1537 C 0.39314 0.41728 0.70935 0.0
C1538 C 0.43578 0.35111 0.69549 0.0
C1539 C 0.45592 0.34462 0.64773 0.0
N1540 N 0.40337 0.39514 0.7011 0.0
N1541 N 0.44451 0.36654 0.65462 0.0
H1542 H 0.93168 0.18013 0.87509 0.0
H1543 H 0.83297 0.19711 0.98502 0.0
H1544 H 0.94944 0.22357 0.94744 0.0
H1545 H 0.82233 0.13501 0.92647 0.0
H1546 H 0.87421 0.20941 0.96859 0.0
H1547 H 0.8901 0.16548 0.89075 0.0
C1548 C 0.92691 0.18655 0.89421 0.0
C1549 C 0.94414 0.2031 0.90995 0.0
C1550 C 0.86295 0.19303 0.95933 0.0
C1551 C 0.8967 0.18664 0.92781 0.0
C1552 C 0.8393 0.18601 0.96867 0.0
C1553 C 0.82411 0.16496 0.95713 0.0
C1554 C 0.87156 0.17913 0.93802 0.0
C1555 C 0.83346 0.15131 0.93602 0.0
C1556 C 0.90324 0.17813 0.90314 0.0
C1557 C 0.93691 0.21078 0.93458 0.0
N1558 N 0.85656 0.15872 0.92702 0.0
N1559 N 0.91379 0.20262 0.94262 0.0
H1560 H 0.3284 0.07827 0.46341 0.0
H1561 H 0.33414 0.10127 0.31751 0.0
H1562 H 0.30809 0.1512 0.43634 0.0
H1563 H 0.3962 0.06569 0.3568 0.0
H1564 H 0.31915 0.11588 0.35929 0.0
H1565 H 0.3483 0.06871 0.4228 0.0
C1566 C 0.32817 0.09226 0.44891 0.0
C1567 C 0.31663 0.11557 0.45318 0.0
C1568 C 0.33622 0.10514 0.35869 0.0
C1569 C 0.33882 0.10451 0.40669 0.0
C1570 C 0.34474 0.09679 0.33494 0.0
C1571 C 0.36651 0.0824 0.33377 0.0
C1572 C 0.34903 0.0983 0.38137 0.0
C1573 C 0.37949 0.07696 0.35691 0.0
C1574 C 0.33962 0.08686 0.42588 0.0
C1575 C 0.31691 0.13307 0.43381 0.0
N1576 N 0.37028 0.08452 0.37981 0.0
N1577 N 0.32748 0.12702 0.41118 0.0
H1578 H 0.20617 0.02343 0.69091 0.0
H1579 H 0.19997 0.13497 0.59216 0.0
H1580 H 0.14594 0.07649 0.68998 0.0
H1581 H 0.25054 0.07271 0.58743 0.0
H1582 H 0.18091 0.1158 0.62903 0.0
H1583 H 0.22377 0.04334 0.65435 0.0
C1584 C 0.19659 0.03932 0.68309 0.0
C1585 C 0.17444 0.04822 0.69371 0.0
C1586 C 0.19614 0.10637 0.61982 0.0
C1587 C 0.19476 0.07132 0.65141 0.0
C1588 C 0.20705 0.1173 0.59877 0.0
C1589 C 0.22695 0.1055 0.58652 0.0
C1590 C 0.20531 0.08358 0.62884 0.0
C1591 C 0.23529 0.08261 0.59608 0.0
C1592 C 0.20669 0.05069 0.66206 0.0
C1593 C 0.16302 0.06893 0.6825 0.0
N1594 N 0.22452 0.07253 0.61659 0.0
N1595 N 0.17333 0.07981 0.662 0.0
H1596 H 0.1313 0.9646 0.84445 0.0
H1597 H 0.22629 0.87538 0.91714 0.0
H1598 H 0.20384 0.94617 0.81508 0.0
H1599 H 0.18427 0.93096 0.95891 0.0
H1600 H 0.21056 0.89243 0.87673 0.0
H1601 H 0.14326 0.94379 0.88412 0.0
C1602 C 0.1496 0.95598 0.84626 0.0
C1603 C 0.16667 0.9572 0.82654 0.0
C1604 C 0.20461 0.90065 0.89477 0.0
C1605 C 0.18012 0.93303 0.87141 0.0
C1606 C 0.2134 0.89084 0.91779 0.0
C1607 C 0.20659 0.9018 0.9414 0.0
C1608 C 0.18841 0.92114 0.89535 0.0
C1609 C 0.19004 0.92202 0.94112 0.0
C1610 C 0.15642 0.94423 0.86887 0.0
C1611 C 0.1902 0.94582 0.8299 0.0
N1612 N 0.18142 0.93098 0.91845 0.0
N1613 N 0.19617 0.93406 0.85182 0.0
H1614 H 0.32729 0.88992 0.08892 0.0
H1615 H 0.33047 0.01395 0.18703 0.0
H1616 H 0.2715 0.9476 0.08742 0.0
H1617 H 0.38494 0.95543 0.19434 0.0
H1618 H 0.31016 0.99012 0.14931 0.0
H1619 H 0.3498 0.9136 0.1264 0.0
C1620 C 0.31977 0.90753 0.09638 0.0
C1621 C 0.29744 0.91676 0.08483 0.0
C1622 C 0.32656 0.9824 0.15908 0.0
C1623 C 0.32317 0.94393 0.1277 0.0
C1624 C 0.33826 0.99607 0.18074 0.0
C1625 C 0.35946 0.98669 0.19416 0.0
C1626 C 0.33597 0.95904 0.15046 0.0
C1627 C 0.36861 0.9634 0.18473 0.0
C1628 C 0.33265 0.92102 0.11779 0.0
C1629 C 0.28862 0.93967 0.09547 0.0
N1630 N 0.35678 0.95034 0.16349 0.0
N1631 N 0.30149 0.95239 0.11618 0.0
H1632 H 0.35894 0.40241 0.05585 0.0
H1633 H 0.43475 0.31082 0.14557 0.0
H1634 H 0.31941 0.3406 0.09175 0.0
H1635 H 0.46379 0.33352 0.07415 0.0
H1636 H 0.39449 0.33089 0.13445 0.0
H1637 H 0.40016 0.3866 0.0712 0.0
C1638 C 0.35895 0.38584 0.06737 0.0
C1639 C 0.3358 0.37275 0.07255 0.0
C1640 C 0.40982 0.33159 0.12138 0.0
C1641 C 0.38261 0.35491 0.09032 0.0
C1642 C 0.43275 0.32027 0.12772 0.0
C1643 C 0.45251 0.32043 0.11067 0.0
C1644 C 0.40701 0.34378 0.09823 0.0
C1645 C 0.44892 0.33283 0.08772 0.0
C1646 C 0.3824 0.37677 0.07593 0.0
C1647 C 0.33687 0.35118 0.0873 0.0
N1648 N 0.42667 0.34416 0.08223 0.0
N1649 N 0.35989 0.34298 0.09579 0.0
H1650 H 0.94907 0.81318 0.20269 0.0
H1651 H 0.93051 0.95807 0.17877 0.0
H1652 H 0.96412 0.84212 0.12904 0.0
H1653 H 0.8777 0.91491 0.22277 0.0
H1654 H 0.94758 0.91767 0.1631 0.0
H1655 H 0.92753 0.85232 0.21384 0.0
C1656 C 0.94784 0.82779 0.18887 0.0
C1657 C 0.95839 0.82443 0.1649 0.0
C1658 C 0.93204 0.9171 0.17594 0.0
C1659 C 0.93414 0.86935 0.17773 0.0
C1660 C 0.92233 0.94008 0.1849 0.0
C1661 C 0.90258 0.93982 0.20202 0.0
C1662 C 0.92248 0.89377 0.18475 0.0
C1663 C 0.89276 0.91598 0.20944 0.0
C1664 C 0.93542 0.85001 0.19519 0.0
C1665 C 0.95614 0.84393 0.14767 0.0
N1666 N 0.90309 0.89393 0.20109 0.0
N1667 N 0.94456 0.86576 0.15456 0.0
H1668 H 0.18812 0.70488 0.52331 0.0
H1669 H 0.08763 0.70122 0.63347 0.0
H1670 H 0.18396 0.6438 0.57539 0.0
H1671 H 0.08654 0.75315 0.57217 0.0
H1672 H 0.12399 0.68091 0.61464 0.0
H1673 H 0.15233 0.72382 0.54323 0.0
C1674 C 0.17974 0.69538 0.53898 0.0
C1675 C 0.18924 0.67259 0.54759 0.0
C1676 C 0.11571 0.69673 0.60536 0.0
C1677 C 0.14776 0.69449 0.57073 0.0
C1678 C 0.09495 0.70837 0.61611 0.0
C1679 C 0.08385 0.72899 0.60445 0.0
C1680 C 0.12557 0.70588 0.5829 0.0
C1681 C 0.09428 0.73736 0.58194 0.0
C1682 C 0.15916 0.70626 0.55037 0.0
C1683 C 0.17735 0.66135 0.56805 0.0
N1684 N 0.11445 0.72586 0.57204 0.0
N1685 N 0.15727 0.67242 0.57895 0.0
H1686 H 0.97933 0.70615 0.69747 0.0
H1687 H 0.93423 0.55791 0.68766 0.0
H1688 H 0.98813 0.65679 0.62982 0.0
H1689 H 0.90502 0.61219 0.74235 0.0
H1690 H 0.95511 0.59344 0.66691 0.0
H1691 H 0.95341 0.67173 0.715 0.0
C1692 C 0.9758 0.68806 0.68625 0.0
C1693 C 0.9861 0.6843 0.66216 0.0
C1694 C 0.94394 0.59763 0.68328 0.0
C1695 C 0.95642 0.64471 0.68229 0.0
C1696 C 0.93203 0.57734 0.69522 0.0
C1697 C 0.91789 0.58204 0.7169 0.0
C1698 C 0.94211 0.6229 0.69326 0.0
C1699 C 0.91566 0.60766 0.72569 0.0
C1700 C 0.96086 0.66846 0.69625 0.0
C1701 C 0.98064 0.66052 0.64846 0.0
N1702 N 0.9279 0.62711 0.71402 0.0
N1703 N 0.96638 0.64154 0.65883 0.0
H1704 H 0.1547 0.12965 0.4903 0.0
H1705 H 0.11109 0.24394 0.40493 0.0
H1706 H 0.20188 0.19917 0.48315 0.0
H1707 H 0.05768 0.18815 0.43386 0.0
H1708 H 0.14648 0.22354 0.42706 0.0
H1709 H 0.12059 0.14693 0.46337 0.0
C1710 C 0.15793 0.14846 0.483 0.0
C1711 C 0.18108 0.16306 0.48921 0.0
C1712 C 0.127 0.21571 0.42838 0.0
C1713 C 0.14234 0.18279 0.45818 0.0
C1714 C 0.10683 0.22724 0.41563 0.0
C1715 C 0.08137 0.21787 0.41767 0.0
C1716 C 0.12168 0.19445 0.44294 0.0
C1717 C 0.07698 0.1962 0.43192 0.0
C1718 C 0.13847 0.15833 0.46768 0.0
C1719 C 0.18424 0.18733 0.47911 0.0
N1720 N 0.09689 0.18527 0.44401 0.0
N1721 N 0.16513 0.1964 0.4641 0.0
H1722 H 0.59291 0.46586 0.1875 0.0
H1723 H 0.58855 0.31272 0.18229 0.0
H1724 H 0.64709 0.42365 0.23104 0.0
H1725 H 0.54656 0.35522 0.12712 0.0
H1726 H 0.6096 0.35305 0.20099 0.0
H1727 H 0.57509 0.42553 0.16582 0.0
C1728 C 0.60118 0.44815 0.19245 0.0
C1729 C 0.62154 0.44823 0.21123 0.0
C1730 C 0.59591 0.35353 0.18469 0.0
C1731 C 0.601 0.40183 0.1865 0.0
C1732 C 0.58382 0.33049 0.17399 0.0
C1733 C 0.56564 0.33049 0.15309 0.0
C1734 C 0.58963 0.37685 0.17464 0.0
C1735 C 0.56043 0.35419 0.14319 0.0
C1736 C 0.59098 0.4251 0.18 0.0
C1737 C 0.63142 0.42459 0.21672 0.0
N1738 N 0.5722 0.37639 0.15416 0.0
N1739 N 0.62094 0.40237 0.20456 0.0
H1740 H 0.34698 0.88459 0.96297 0.0
H1741 H 0.43952 0.76865 0.95927 0.0
H1742 H 0.33745 0.81726 1.00636 0.0
H1743 H 0.4337 0.81873 0.89667 0.0
H1744 H 0.40516 0.79 0.97935 0.0
H1745 H 0.38178 0.86445 0.9409 0.0
C1746 C 0.35224 0.86569 0.96792 0.0
C1747 C 0.33927 0.85259 0.98654 0.0
C1748 C 0.41127 0.79634 0.96118 0.0
C1749 C 0.3789 0.82966 0.96158 0.0
C1750 C 0.431 0.78419 0.9497 0.0
C1751 C 0.43953 0.79189 0.9262 0.0
C1752 C 0.39998 0.81667 0.94934 0.0
C1753 C 0.42758 0.8121 0.91471 0.0
C1754 C 0.37195 0.85418 0.95524 0.0
C1755 C 0.34677 0.82808 0.9921 0.0
N1756 N 0.40846 0.82395 0.92649 0.0
N1757 N 0.36609 0.81754 0.9798 0.0
H1758 H 0.96273 0.44859 0.78102 0.0
H1759 H 0.94398 0.33747 0.87844 0.0
H1760 H 0.88885 0.42807 0.80946 0.0
H1761 H 0.00891 0.34704 0.83177 0.0
H1762 H 0.9248 0.37371 0.85816 0.0
H1763 H 0.98112 0.41455 0.80425 0.0
C1764 C 0.9503 0.43694 0.79219 0.0
C1765 C 0.9241 0.4412 0.79315 0.0
C1766 C 0.94328 0.36787 0.8525 0.0
C1767 C 0.9453 0.40191 0.82006 0.0
C1768 C 0.95432 0.34734 0.86417 0.0
C1769 C 0.97807 0.33918 0.85676 0.0
C1770 C 0.95629 0.38046 0.83358 0.0
C1771 C 0.99052 0.35254 0.83803 0.0
C1772 C 0.96087 0.4174 0.80545 0.0
C1773 C 0.90909 0.42537 0.80804 0.0
N1774 N 0.97952 0.37245 0.82716 0.0
N1775 N 0.91992 0.40639 0.82097 0.0
H1776 H 0.31138 0.18247 0.59317 0.0
H1777 H 0.46419 0.18634 0.59525 0.0
H1778 H 0.35281 0.12888 0.54798 0.0
H1779 H 0.42296 0.23081 0.6496 0.0
H1780 H 0.42367 0.16458 0.57829 0.0
H1781 H 0.35194 0.19982 0.61459 0.0
C1782 C 0.32897 0.1742 0.58784 0.0
C1783 C 0.32862 0.15423 0.56857 0.0
C1784 C 0.42348 0.17895 0.59406 0.0
C1785 C 0.37528 0.17424 0.59304 0.0
C1786 C 0.44665 0.19145 0.60377 0.0
C1787 C 0.44705 0.21061 0.62384 0.0
C1788 C 0.40041 0.18574 0.60428 0.0
C1789 C 0.42364 0.21623 0.63411 0.0
C1790 C 0.35215 0.18413 0.60014 0.0
C1791 C 0.35209 0.14428 0.56265 0.0
N1792 N 0.40127 0.20402 0.62407 0.0
N1793 N 0.37446 0.15454 0.57467 0.0
H1794 H 0.55467 0.7144 0.31975 0.0
H1795 H 0.63238 0.59009 0.33119 0.0
H1796 H 0.553 0.67216 0.3883 0.0
H1797 H 0.59049 0.60507 0.26062 0.0
H1798 H 0.6116 0.62536 0.35327 0.0
H1799 H 0.57594 0.67948 0.29852 0.0
C1800 C 0.5586 0.69778 0.33036 0.0
C1801 C 0.5515 0.69611 0.35579 0.0
C1802 C 0.6071 0.62091 0.33294 0.0
C1803 C 0.57679 0.65642 0.33167 0.0
C1804 C 0.61906 0.601 0.32029 0.0
C1805 C 0.61318 0.59474 0.29402 0.0
C1806 C 0.58971 0.63507 0.31904 0.0
C1807 C 0.59555 0.60928 0.28088 0.0
C1808 C 0.57083 0.67789 0.31818 0.0
C1809 C 0.55778 0.67419 0.36861 0.0
N1810 N 0.5846 0.62893 0.29347 0.0
N1811 N 0.57026 0.65527 0.35648 0.0
H1812 H 0.12263 0.78685 0.14876 0.0
H1813 H 0.16752 0.87208 0.03469 0.0
H1814 H 0.07515 0.79615 0.07996 0.0
H1815 H 0.22055 0.84163 0.08977 0.0
H1816 H 0.13186 0.85061 0.05527 0.0
H1817 H 0.15731 0.81299 0.13133 0.0
C1818 C 0.11945 0.79447 0.13009 0.0
C1819 C 0.09603 0.78909 0.11573 0.0
C1820 C 0.15132 0.8488 0.06291 0.0
C1821 C 0.13546 0.8192 0.09582 0.0
C1822 C 0.17166 0.86116 0.05127 0.0
C1823 C 0.1971 0.85855 0.06039 0.0
C1824 C 0.15641 0.83399 0.08403 0.0
C1825 C 0.20128 0.84405 0.08192 0.0
C1826 C 0.13925 0.80934 0.12013 0.0
C1827 C 0.09296 0.79955 0.09162 0.0
N1828 N 0.18119 0.83232 0.09297 0.0
N1829 N 0.11241 0.81409 0.08246 0.0
H1830 H 0.71652 0.95681 0.55914 0.0
H1831 H 0.64389 0.94092 0.68644 0.0
H1832 H 0.72228 0.88805 0.60054 0.0
H1833 H 0.67982 0.01362 0.66861 0.0
H1834 H 0.66479 0.91992 0.65059 0.0
H1835 H 0.69539 0.97665 0.59485 0.0
C1836 C 0.71355 0.94586 0.57576 0.0
C1837 C 0.72173 0.92079 0.57691 0.0
C1838 C 0.66797 0.94047 0.65456 0.0
C1839 C 0.6966 0.94335 0.61763 0.0
C1840 C 0.65592 0.95249 0.67481 0.0
C1841 C 0.66007 0.97907 0.68042 0.0
C1842 C 0.68372 0.95524 0.63946 0.0
C1843 C 0.67609 0.9931 0.66493 0.0
C1844 C 0.70138 0.95726 0.59612 0.0
C1845 C 0.71663 0.90751 0.59889 0.0
N1846 N 0.68716 0.98105 0.64502 0.0
N1847 N 0.70422 0.91889 0.61834 0.0
H1848 H 0.81316 0.99432 0.32568 0.0
H1849 H 0.83209 0.89683 0.43687 0.0
H1850 H 0.88718 0.9667 0.3469 0.0
H1851 H 0.76515 0.94006 0.42446 0.0
H1852 H 0.85151 0.91755 0.40095 0.0
H1853 H 0.79442 0.97008 0.35886 0.0
C1854 C 0.82556 0.98314 0.33732 0.0
C1855 C 0.85189 0.98272 0.3335 0.0
C1856 C 0.83252 0.92232 0.40606 0.0
C1857 C 0.83028 0.9546 0.37183 0.0
C1858 C 0.82135 0.91038 0.4264 0.0
C1859 C 0.79698 0.91677 0.43372 0.0
C1860 C 0.81906 0.94051 0.39285 0.0
C1861 C 0.78402 0.93461 0.41962 0.0
C1862 C 0.81477 0.96926 0.35635 0.0
C1863 C 0.86683 0.96773 0.34927 0.0
N1864 N 0.79521 0.94581 0.39997 0.0
N1865 N 0.85581 0.95423 0.36778 0.0
H1866 H 0.79181 0.07487 0.06999 0.0
H1867 H 0.84233 0.08902 0.21691 0.0
H1868 H 0.78558 0.14412 0.1178 0.0
H1869 H 0.86889 0.03226 0.16303 0.0
H1870 H 0.82026 0.10873 0.18137 0.0
H1871 H 0.8185 0.05803 0.10425 0.0
C1872 C 0.79604 0.08657 0.08771 0.0
C1873 C 0.78627 0.11093 0.09107 0.0
C1874 C 0.83111 0.09212 0.17727 0.0
C1875 C 0.81685 0.09162 0.13046 0.0
C1876 C 0.84371 0.0808 0.19756 0.0
C1877 C 0.85746 0.05886 0.19297 0.0
C1878 C 0.83185 0.08125 0.15215 0.0
C1879 C 0.85861 0.04917 0.16746 0.0
C1880 C 0.81141 0.07696 0.10721 0.0
C1881 C 0.79262 0.12525 0.11438 0.0
N1882 N 0.84571 0.06025 0.14804 0.0
N1883 N 0.80732 0.11529 0.13327 0.0
H1884 H 0.68312 0.08588 0.80806 0.0
H1885 H 0.68137 0.09703 0.96095 0.0
H1886 H 0.62484 0.04793 0.85025 0.0
H1887 H 0.73171 0.1453 0.91893 0.0
H1888 H 0.66031 0.07928 0.92044 0.0
H1889 H 0.70106 0.1081 0.84814 0.0
C1890 C 0.67399 0.08227 0.82569 0.0
C1891 C 0.65247 0.06482 0.82571 0.0
C1892 C 0.67582 0.09389 0.92004 0.0
C1893 C 0.67307 0.09024 0.87176 0.0
C1894 C 0.68792 0.10407 0.94321 0.0
C1895 C 0.70847 0.12267 0.94342 0.0
C1896 C 0.68441 0.10212 0.89674 0.0
C1897 C 0.71595 0.13103 0.91974 0.0
C1898 C 0.68425 0.09504 0.84858 0.0
C1899 C 0.64147 0.0611 0.84921 0.0
N1900 N 0.70408 0.12053 0.89735 0.0
N1901 N 0.65199 0.07355 0.87126 0.0
H1902 H 0.55664 0.68703 0.93485 0.0
H1903 H 0.70447 0.69771 0.98132 0.0
H1904 H 0.61089 0.7425 0.90668 0.0
H1905 H 0.65561 0.62937 0.9887 0.0
H1906 H 0.67011 0.71525 0.95543 0.0
H1907 H 0.59215 0.66639 0.95583 0.0
C1908 C 0.57606 0.69479 0.9329 0.0
C1909 C 0.58076 0.71665 0.91902 0.0
C1910 C 0.66693 0.69636 0.96256 0.0
C1911 C 0.62157 0.69313 0.94336 0.0
C1912 C 0.6865 0.68634 0.97749 0.0
C1913 C 0.68287 0.66205 0.98738 0.0
C1914 C 0.64334 0.6822 0.95771 0.0
C1915 C 0.65924 0.64817 0.98153 0.0
C1916 C 0.59633 0.68292 0.94487 0.0
C1917 C 0.60635 0.7257 0.91712 0.0
N1918 N 0.64028 0.65855 0.96729 0.0
N1919 N 0.62578 0.71408 0.9294 0.0
H1920 H 0.09448 0.10381 0.76212 0.0
H1921 H 0.05214 0.1735 0.89027 0.0
H1922 H 0.12929 0.08743 0.83578 0.0
H1923 H 0.05809 0.2126 0.82011 0.0
H1924 H 0.07385 0.13754 0.87049 0.0
H1925 H 0.07407 0.13987 0.7829 0.0
C1926 C 0.0979 0.10788 0.78265 0.0
C1927 C 0.11378 0.09277 0.79722 0.0
C1928 C 0.07026 0.15406 0.85954 0.0
C1929 C 0.08997 0.13351 0.82115 0.0
C1930 C 0.05777 0.1745 0.87072 0.0
C1931 C 0.05295 0.19609 0.85678 0.0
C1932 C 0.07743 0.15498 0.83409 0.0
C1933 C 0.06099 0.19635 0.83156 0.0
C1934 C 0.08627 0.12843 0.79447 0.0
C1935 C 0.11743 0.0988 0.82381 0.0
N1936 N 0.07256 0.17605 0.82098 0.0
N1937 N 0.10539 0.11857 0.835 0.0
H1938 H 0.93432 0.31925 0.39498 0.0
H1939 H 0.8355 0.31191 0.50555 0.0
H1940 H 0.93784 0.26654 0.45547 0.0
H1941 H 0.84839 0.38115 0.46575 0.0
H1942 H 0.86938 0.2926 0.48265 0.0
H1943 H 0.8992 0.33989 0.41606 0.0
C1944 C 0.92762 0.31193 0.41253 0.0
C1945 C 0.93905 0.29119 0.42352 0.0
C1946 C 0.8649 0.31205 0.47892 0.0
C1947 C 0.89908 0.31448 0.44748 0.0
C1948 C 0.84547 0.3231 0.49197 0.0
C1949 C 0.83913 0.34825 0.48765 0.0
C1950 C 0.87805 0.32604 0.46111 0.0
C1951 C 0.85281 0.36177 0.4698 0.0
C1952 C 0.90775 0.32379 0.4246 0.0
C1953 C 0.92975 0.28256 0.44637 0.0
N1954 N 0.87161 0.35044 0.45704 0.0
N1955 N 0.91032 0.29415 0.45747 0.0
H1956 H 0.57114 0.96307 0.82754 0.0
H1957 H 0.59431 0.81773 0.84572 0.0
H1958 H 0.64369 0.933 0.81038 0.0
H1959 H 0.55088 0.86119 0.89876 0.0
H1960 H 0.60992 0.85801 0.82834 0.0
H1961 H 0.56004 0.92406 0.84937 0.0
C1962 C 0.58474 0.94825 0.82838 0.0
C1963 C 0.60838 0.95126 0.81713 0.0
C1964 C 0.59722 0.85869 0.84399 0.0
C1965 C 0.59559 0.90646 0.84172 0.0
C1966 C 0.58829 0.83576 0.85389 0.0
C1967 C 0.57134 0.83613 0.87379 0.0
C1968 C 0.58856 0.88208 0.85353 0.0
C1969 C 0.56407 0.86003 0.88357 0.0
C1970 C 0.57844 0.92609 0.84095 0.0
C1971 C 0.62532 0.93148 0.8189 0.0
N1972 N 0.57239 0.88202 0.87308 0.0
N1973 N 0.61846 0.90973 0.83066 0.0
H1974 H 0.95099 0.18939 0.38708 0.0
H1975 H 0.94615 0.08649 0.26668 0.0
H1976 H 1.00735 0.18777 0.32987 0.0
H1977 H 0.88964 0.08561 0.32378 0.0
H1978 H 0.96847 0.12373 0.2899 0.0
H1979 H 0.92809 0.1516 0.36458 0.0
C1980 C 0.95858 0.18115 0.36982 0.0
C1981 C 0.98115 0.19195 0.36036 0.0
C1982 C 0.95121 0.11543 0.29742 0.0
C1983 C 0.95496 0.14861 0.33451 0.0
C1984 C 0.93839 0.09406 0.28414 0.0
C1985 C 0.91592 0.08271 0.29326 0.0
C1986 C 0.9416 0.12576 0.32008 0.0
C1987 C 0.90689 0.09362 0.316 0.0
C1988 C 0.94547 0.15955 0.35699 0.0
C1989 C 0.99003 0.1803 0.33792 0.0
N1990 N 0.91975 0.11452 0.32861 0.0
N1991 N 0.97693 0.15936 0.32581 0.0
H1992 H 0.56945 0.08644 0.75064 0.0
H1993 H 0.57554 0.18691 0.64063 0.0
H1994 H 0.62934 0.08766 0.69709 0.0
H1995 H 0.52583 0.191 0.70373 0.0
H1996 H 0.59448 0.14954 0.6589 0.0
H1997 H 0.55206 0.12337 0.7314 0.0
C1998 C 0.579 0.0944 0.73477 0.0
C1999 C 0.60099 0.08374 0.72555 0.0
C2000 C 0.57947 0.15873 0.66871 0.0
C2001 C 0.58091 0.12653 0.70323 0.0
C2002 C 0.56863 0.18007 0.6583 0.0
C2003 C 0.549 0.19227 0.67059 0.0
C2004 C 0.57049 0.1494 0.69147 0.0
C2005 C 0.54086 0.1824 0.69345 0.0
C2006 C 0.56902 0.11564 0.72379 0.0
C2007 C 0.61236 0.09515 0.70488 0.0
N2008 N 0.55155 0.16163 0.70301 0.0
N2009 N 0.60218 0.11589 0.69439 0.0
H2010 H 0.1896 0.33161 1.00581 0.0
H2011 H 0.08534 0.32783 0.88681 0.0
H2012 H 0.19141 0.38873 0.94934 0.0
H2013 H 0.09269 0.26827 0.94019 0.0
H2014 H 0.12317 0.35138 0.90903 0.0
H2015 H 0.15269 0.30963 0.98214 0.0
C2016 C 0.18227 0.33963 0.98841 0.0
C2017 C 0.19391 0.36208 0.97956 0.0
C2018 C 0.11645 0.33311 0.91574 0.0
C2019 C 0.15112 0.33667 0.95207 0.0
C2020 C 0.09491 0.31961 0.90304 0.0
C2021 C 0.0856 0.29604 0.91167 0.0
C2022 C 0.12869 0.32296 0.93723 0.0
C2023 C 0.09887 0.28639 0.93283 0.0
C2024 C 0.16109 0.32696 0.97481 0.0
C2025 C 0.18316 0.37147 0.9569 0.0
N2026 N 0.11953 0.2999 0.94484 0.0
N2027 N 0.16238 0.3587 0.9439 0.0
H2028 H 0.41864 0.71407 0.37756 0.0
H2029 H 0.33956 0.62605 0.46784 0.0
H2030 H 0.45683 0.67895 0.44064 0.0
H2031 H 0.31284 0.69864 0.44604 0.0
H2032 H 0.38051 0.63664 0.44867 0.0
H2033 H 0.37701 0.69956 0.3931 0.0
C2034 C 0.41825 0.70288 0.39436 0.0
C2035 C 0.44114 0.69767 0.40787 0.0
C2036 C 0.36554 0.65009 0.44798 0.0
C2037 C 0.39385 0.68084 0.42539 0.0
C2038 C 0.34223 0.64406 0.45879 0.0
C2039 C 0.32291 0.66157 0.4586 0.0
C2040 C 0.36915 0.6734 0.43624 0.0
C2041 C 0.32735 0.68471 0.44674 0.0
C2042 C 0.39457 0.69481 0.40328 0.0
C2043 C 0.43958 0.68339 0.42973 0.0
N2044 N 0.34994 0.68988 0.43584 0.0
N2045 N 0.41632 0.67533 0.43776 0.0
H2046 H 0.90126 0.55537 0.8593 0.0
H2047 H 0.81151 0.6479 0.93388 0.0
H2048 H 0.84334 0.5951 0.81824 0.0
H2049 H 0.82972 0.57472 0.96184 0.0
H2050 H 0.83191 0.63643 0.89382 0.0
H2051 H 0.88418 0.57037 0.89999 0.0
C2052 C 0.88528 0.56763 0.85887 0.0
C2053 C 0.87368 0.57402 0.83539 0.0
C2054 C 0.8315 0.62302 0.90885 0.0
C2055 C 0.85435 0.59139 0.88172 0.0
C2056 C 0.82 0.62955 0.93167 0.0
C2057 C 0.81884 0.61216 0.9511 0.0
C2058 C 0.84258 0.59929 0.90584 0.0
C2059 C 0.83003 0.58859 0.94724 0.0
C2060 C 0.87546 0.57599 0.88203 0.0
C2061 C 0.85279 0.58971 0.83594 0.0
N2062 N 0.84162 0.58292 0.92514 0.0
N2063 N 0.84386 0.59799 0.85874 0.0
H2064 H 0.64399 0.57709 0.18742 0.0
H2065 H 0.75276 0.57073 0.08571 0.0
H2066 H 0.7045 0.52437 0.18898 0.0
H2067 H 0.70121 0.6322 0.08963 0.0
H2068 H 0.7332 0.55245 0.1221 0.0
H2069 H 0.66266 0.59648 0.15054 0.0
C2070 C 0.66117 0.56958 0.18009 0.0
C2071 C 0.67264 0.54901 0.19149 0.0
C2072 C 0.7261 0.56995 0.11508 0.0
C2073 C 0.69403 0.5711 0.14911 0.0
C2074 C 0.73727 0.58045 0.09415 0.0
C2075 C 0.7287 0.60316 0.08441 0.0
C2076 C 0.70601 0.58203 0.12657 0.0
C2077 C 0.70849 0.61469 0.0964 0.0
C2078 C 0.67183 0.5807 0.15903 0.0
C2079 C 0.6949 0.54016 0.18101 0.0
N2080 N 0.69782 0.60399 0.11681 0.0
N2081 N 0.70475 0.55118 0.16049 0.0
H2082 H 0.73346 0.41103 0.43336 0.0
H2083 H 0.62305 0.45334 0.33446 0.0
H2084 H 0.65467 0.41562 0.45282 0.0
H2085 H 0.70416 0.46278 0.32344 0.0
H2086 H 0.63312 0.43471 0.37563 0.0
H2087 H 0.72174 0.42455 0.39065 0.0
C2088 C 0.7136 0.41461 0.42862 0.0
C2089 C 0.69506 0.41229 0.44689 0.0
C2090 C 0.64867 0.4408 0.36413 0.0
C2091 C 0.68151 0.42805 0.39774 0.0
C2092 C 0.64295 0.45139 0.3406 0.0
C2093 C 0.66279 0.45974 0.32546 0.0
C2094 C 0.6744 0.43833 0.37247 0.0
C2095 C 0.68822 0.45677 0.33447 0.0
C2096 C 0.70695 0.42247 0.40418 0.0
C2097 C 0.66964 0.41721 0.43943 0.0
N2098 N 0.69325 0.44633 0.3573 0.0
N2099 N 0.66363 0.42497 0.41548 0.0
H2100 H 0.88848 0.45101 0.69144 0.0
H2101 H 0.77075 0.44613 0.58543 0.0
H2102 H 0.83142 0.50737 0.68833 0.0
H2103 H 0.82593 0.38792 0.58843 0.0
H2104 H 0.79327 0.46881 0.62294 0.0
H2105 H 0.86643 0.42774 0.65363 0.0
C2106 C 0.87134 0.45851 0.68288 0.0
C2107 C 0.86182 0.48122 0.69324 0.0
C2108 C 0.8005 0.45109 0.61543 0.0
C2109 C 0.83648 0.45462 0.64986 0.0
C2110 C 0.78762 0.43807 0.59392 0.0
C2111 C 0.79642 0.41502 0.58359 0.0
C2112 C 0.82243 0.44109 0.62688 0.0
C2113 C 0.81842 0.40562 0.59562 0.0
C2114 C 0.85875 0.44519 0.66127 0.0
C2115 C 0.83953 0.48997 0.68118 0.0
N2116 N 0.83065 0.41869 0.6166 0.0
N2117 N 0.82768 0.47668 0.66022 0.0
H2118 H 0.38588 0.10807 0.22215 0.0
H2119 H 0.5163 0.17315 0.1809 0.0
H2120 H 0.45466 0.06642 0.21923 0.0
H2121 H 0.44396 0.18973 0.14346 0.0
H2122 H 0.49437 0.13769 0.20138 0.0
H2123 H 0.40713 0.14232 0.1993 0.0
C2124 C 0.40545 0.10614 0.21691 0.0
C2125 C 0.41856 0.08437 0.22297 0.0
C2126 C 0.48337 0.14902 0.18854 0.0
C2127 C 0.44294 0.1236 0.19715 0.0
C2128 C 0.49583 0.16922 0.17689 0.0
C2129 C 0.48194 0.18425 0.16031 0.0
C2130 C 0.45672 0.14426 0.18418 0.0
C2131 C 0.45542 0.17842 0.15589 0.0
C2132 C 0.41746 0.12563 0.20376 0.0
C2133 C 0.44383 0.0829 0.21538 0.0
N2134 N 0.44358 0.15906 0.168 0.0
N2135 N 0.45527 0.10234 0.20316 0.0
H2136 H 0.0442 0.85625 0.62747 0.0
H2137 H 0.15096 0.92298 0.73042 0.0
H2138 H 0.09072 0.81437 0.67947 0.0
H2139 H 0.09379 0.96476 0.69041 0.0
H2140 H 0.13277 0.88329 0.7077 0.0
H2141 H 0.06595 0.8964 0.6461 0.0
C2142 C 0.05914 0.85544 0.64261 0.0
C2143 C 0.06551 0.83183 0.65198 0.0
C2144 C 0.12427 0.90116 0.70383 0.0
C2145 C 0.09045 0.87777 0.67341 0.0
C2146 C 0.13469 0.92389 0.71676 0.0
C2147 C 0.12383 0.94732 0.7125 0.0
C2148 C 0.1029 0.90179 0.68634 0.0
C2149 C 0.10275 0.94718 0.69448 0.0
C2150 C 0.07147 0.87839 0.65332 0.0
C2151 C 0.08501 0.83206 0.6717 0.0
N2152 N 0.09296 0.92479 0.68213 0.0
N2153 N 0.09671 0.85462 0.68176 0.0
H2154 H 0.45835 0.81648 0.33736 0.0
H2155 H 0.43891 0.96444 0.31683 0.0
H2156 H 0.51284 0.87759 0.36767 0.0
H2157 H 0.40807 0.90311 0.26283 0.0
H2158 H 0.45836 0.93274 0.34318 0.0
H2159 H 0.43223 0.84824 0.31775 0.0
C2160 C 0.46461 0.83661 0.34034 0.0
C2161 C 0.48794 0.84438 0.35411 0.0
C2162 C 0.44707 0.92624 0.32572 0.0
C2163 C 0.45802 0.88076 0.33168 0.0
C2164 C 0.43578 0.94428 0.31073 0.0
C2165 C 0.4219 0.93642 0.28747 0.0
C2166 C 0.44414 0.90012 0.31766 0.0
C2167 C 0.41872 0.91003 0.28052 0.0
C2168 C 0.44975 0.85468 0.32896 0.0
C2169 C 0.49509 0.87074 0.35711 0.0
N2170 N 0.4298 0.89281 0.29552 0.0
N2171 N 0.48022 0.888 0.34593 0.0
H2172 H 0.81261 0.67963 0.09174 0.0
H2173 H 0.9656 0.68575 0.09468 0.0
H2174 H 0.85501 0.6276 0.04578 0.0
H2175 H 0.9233 0.72936 0.14879 0.0
H2176 H 0.92542 0.66369 0.07716 0.0
H2177 H 0.85287 0.69738 0.11341 0.0
C2178 C 0.83036 0.67178 0.08628 0.0
C2179 C 0.83035 0.65213 0.06673 0.0
C2180 C 0.92493 0.67794 0.09299 0.0
C2181 C 0.8767 0.67262 0.09151 0.0
C2182 C 0.9479 0.69062 0.10302 0.0
C2183 C 0.9479 0.70961 0.12321 0.0
C2184 C 0.90165 0.68438 0.10301 0.0
C2185 C 0.92429 0.71492 0.13322 0.0
C2186 C 0.85338 0.68195 0.09873 0.0
C2187 C 0.85402 0.64273 0.06067 0.0
N2188 N 0.90213 0.70252 0.12289 0.0
N2189 N 0.87624 0.65321 0.07286 0.0
H2190 H 0.62041 0.28997 0.64766 0.0
H2191 H 0.6672 0.36993 0.5305 0.0
H2192 H 0.57424 0.29555 0.57722 0.0
H2193 H 0.71878 0.34423 0.58982 0.0
H2194 H 0.631 0.34925 0.55106 0.0
H2195 H 0.65496 0.31612 0.63013 0.0
C2196 C 0.61749 0.29677 0.62859 0.0
C2197 C 0.59449 0.29032 0.61382 0.0
C2198 C 0.65026 0.34835 0.55964 0.0
C2199 C 0.6338 0.32046 0.59375 0.0
C2200 C 0.67089 0.36028 0.548 0.0
C2201 C 0.69608 0.35867 0.55833 0.0
C2202 C 0.65486 0.33502 0.58191 0.0
C2203 C 0.69972 0.34578 0.58102 0.0
C2204 C 0.63721 0.31166 0.61857 0.0
C2205 C 0.59175 0.29979 0.58921 0.0
N2206 N 0.67939 0.33444 0.59198 0.0
N2207 N 0.61113 0.31434 0.57997 0.0
H2208 H 0.2247 0.38713 0.10137 0.0
H2209 H 0.18229 0.51522 0.17062 0.0
H2210 H 0.21897 0.45702 0.06184 0.0
H2211 H 0.14709 0.44169 0.18689 0.0
H2212 H 0.20262 0.49442 0.13448 0.0
H2213 H 0.20263 0.40696 0.13705 0.0
C2214 C 0.21902 0.40663 0.10021 0.0
C2215 C 0.22406 0.42049 0.0786 0.0
C2216 C 0.19034 0.48289 0.14591 0.0
C2217 C 0.19915 0.44324 0.1194 0.0
C2218 C 0.17876 0.49472 0.16651 0.0
C2219 C 0.16282 0.48018 0.18162 0.0
C2220 C 0.18653 0.45623 0.14079 0.0
C2221 C 0.15901 0.45363 0.17552 0.0
C2222 C 0.20633 0.41784 0.1205 0.0
C2223 C 0.21594 0.44564 0.07813 0.0
N2224 N 0.17102 0.44243 0.15572 0.0
N2225 N 0.20417 0.45626 0.09829 0.0
H2226 H 0.39018 0.46906 0.84769 0.0
H2227 H 0.26559 0.44087 0.92558 0.0
H2228 H 0.31485 0.49361 0.82652 0.0
H2229 H 0.33435 0.40037 0.93802 0.0
H2230 H 0.28447 0.46108 0.88979 0.0
H2231 H 0.37146 0.44473 0.88171 0.0
C2232 C 0.36978 0.46937 0.85017 0.0
C2233 C 0.35412 0.48353 0.83426 0.0
C2234 C 0.29544 0.44763 0.90014 0.0
C2235 C 0.33267 0.45581 0.87299 0.0
C2236 C 0.28464 0.43605 0.92063 0.0
C2237 C 0.29841 0.4189 0.93485 0.0
C2238 C 0.32043 0.44237 0.89387 0.0
C2239 C 0.32301 0.41338 0.92747 0.0
C2240 C 0.35911 0.45539 0.86949 0.0
C2241 C 0.32777 0.48309 0.83826 0.0
N2242 N 0.33338 0.4253 0.90761 0.0
N2243 N 0.31798 0.46961 0.85722 0.0
H2244 H 0.28483 0.64793 0.62034 0.0
H2245 H 0.37055 0.5338 0.66341 0.0
H2246 H 0.29206 0.57855 0.57302 0.0
H2247 H 0.34148 0.589 0.7173 0.0
H2248 H 0.34829 0.55433 0.62821 0.0
H2249 H 0.31176 0.63059 0.65446 0.0
C2250 C 0.29214 0.62914 0.61708 0.0
C2251 C 0.28597 0.61459 0.59388 0.0
C2252 C 0.34696 0.56201 0.64775 0.0
C2253 C 0.317 0.59482 0.63263 0.0
C2254 C 0.35979 0.5504 0.66782 0.0
C2255 C 0.35777 0.55957 0.69336 0.0
C2256 C 0.33231 0.58313 0.65323 0.0
C2257 C 0.34342 0.58112 0.69793 0.0
C2258 C 0.30746 0.61925 0.63655 0.0
C2259 C 0.29607 0.59035 0.59069 0.0
N2260 N 0.33124 0.59213 0.6781 0.0
N2261 N 0.31108 0.58127 0.6098 0.0
H2262 H 0.18333 0.58635 0.31018 0.0
H2263 H 0.18196 0.59556 0.46311 0.0
H2264 H 0.12569 0.54662 0.35174 0.0
H2265 H 0.22979 0.64641 0.42119 0.0
H2266 H 0.16122 0.57742 0.42251 0.0
H2267 H 0.20074 0.60843 0.3505 0.0
C2268 C 0.17422 0.58232 0.32773 0.0
C2269 C 0.15303 0.56444 0.32749 0.0
C2270 C 0.17611 0.59269 0.42218 0.0
C2271 C 0.17305 0.58968 0.37385 0.0
C2272 C 0.18801 0.60307 0.44539 0.0
C2273 C 0.20777 0.62253 0.44565 0.0
C2274 C 0.18412 0.60158 0.39891 0.0
C2275 C 0.21466 0.63147 0.42199 0.0
C2276 C 0.18418 0.59501 0.35076 0.0
C2277 C 0.14206 0.56017 0.35091 0.0
N2278 N 0.20302 0.62078 0.3996 0.0
N2279 N 0.1523 0.57254 0.37312 0.0
loop_
_geom_bond_atom_site_label_1
_geom_bond_atom_site_label_2
_geom_bond_distance
_geom_bond_site_symmetry_2
_ccdc_geom_bond_type
Co0 O2 2.143 . S
Co0 O8 2.074 1_655 S
Co0 O11 2.093 . S
Co0 O24 2.097 . S
Co0 N41 2.151 1_655 S
Co0 N49 2.214 . S
Co1 O2 2.160 1_455 S
Co1 O7 2.058 . S
Co1 O17 2.057 . S
Co1 O32 2.037 1_455 S
Co1 N36 2.145 . S
Co1 N57 2.257 1_455 S
O2 Co0 2.143 . S
O2 Co1 2.160 1_655 S
C3 O4 1.278 . S
C3 O11 1.224 . S
O4 C3 1.278 . S
C5 O6 1.245 . S
C5 O17 1.232 . S
O6 C5 1.245 . S
O7 Co1 2.058 . S
O7 C33 1.269 . S
O8 Co0 2.074 1_455 S
O8 C33 1.257 . S
H9 C34 0.930 . S
H10 C40 0.930 . S
O11 Co0 2.093 . S
O11 C3 1.224 . S
H12 C44 0.929 . S
H13 C46 0.930 . S
H14 C47 0.930 . S
H15 C45 0.929 . S
H16 C48 0.928 . S
O17 Co1 2.057 . S
O17 C5 1.232 . S
H18 C37 0.929 . S
H19 C38 0.929 . S
H20 C50 0.931 . S
H21 C42 0.929 . S
H22 C51 0.930 . S
H23 C43 0.931 . S
O24 Co0 2.097 . S
O24 C52 1.214 . S
H25 C53 0.929 . S
H26 C54 0.929 . S
H27 C55 0.930 . S
H28 C56 0.929 . S
H29 C58 0.930 . S
H30 C35 0.930 . S
H31 C39 0.930 . S
O32 Co1 2.037 1_655 S
O32 C52 1.234 . S
C33 O7 1.269 . S
C33 O8 1.257 . S
C34 H9 0.930 . S
C34 C37 1.388 . S
C34 C39 1.418 . S
C35 H30 0.930 . S
C35 C38 1.404 . S
C35 C39 1.353 . S
N36 Co1 2.145 . S
N36 C37 1.397 . S
N36 C38 1.334 . S
C37 H18 0.929 . S
C37 C34 1.388 . S
C37 N36 1.397 . S
C38 H19 0.929 . S
C38 C35 1.404 . S
C38 N36 1.334 . S
C39 H31 0.930 . S
C39 C34 1.418 . S
C39 C35 1.353 . S
C40 H10 0.930 . S
C40 N41 1.330 1_655 S
C40 C42 1.446 1_655 S
N41 Co0 2.151 1_455 S
N41 C40 1.330 1_455 S
N41 C45 1.418 . S
C42 H21 0.929 . S
C42 C40 1.446 1_455 S
C42 C43 1.332 . S
C43 H23 0.931 . S
C43 C42 1.332 . S
C43 C44 1.267 . S
C44 H12 0.929 . S
C44 C43 1.267 . S
C44 C45 1.251 . S
C45 H15 0.929 . S
C45 N41 1.418 . S
C45 C44 1.251 . S
C46 H13 0.930 . S
C46 C48 1.406 . S
C46 C51 1.261 . S
C47 H14 0.930 . S
C47 N49 1.325 . S
C47 C50 1.357 . S
C48 H16 0.928 . S
C48 C46 1.406 . S
C48 N49 1.261 . S
N49 Co0 2.214 . S
N49 C47 1.325 . S
N49 C48 1.261 . S
C50 H20 0.931 . S
C50 C47 1.357 . S
C50 C51 1.312 . S
C51 H22 0.930 . S
C51 C46 1.261 . S
C51 C50 1.312 . S
C52 O24 1.214 . S
C52 O32 1.234 . S
C53 H25 0.929 . S
C53 C56 1.391 . S
C53 C58 1.391 . S
C54 H26 0.929 . S
C54 C55 1.390 . S
C54 N57 1.391 . S
C55 H27 0.930 . S
C55 C54 1.390 . S
C55 C56 1.392 . S
C56 H28 0.929 . S
C56 C53 1.391 . S
C56 C55 1.392 . S
N57 Co1 2.257 1_655 S
N57 C54 1.391 . S
N57 C58 1.388 . S
C58 H29 0.930 . S
C58 C53 1.391 . S
C58 N57 1.388 . S
Co59 O61 2.143 1_455 S
Co59 O67 2.074 . S
Co59 O70 2.093 1_455 S
Co59 O83 2.097 . S
Co59 N100 2.151 1_455 S
Co59 N108 2.214 . S
Co60 O61 2.160 1_455 S
Co60 O66 2.058 . S
Co60 O76 2.057 1_455 S
Co60 O91 2.037 . S
Co60 N95 2.145 . S
Co60 N116 2.257 1_455 S
O61 Co59 2.143 1_655 S
O61 Co60 2.160 1_655 S
C62 O63 1.278 . S
C62 O70 1.224 . S
O63 C62 1.278 . S
C64 O65 1.245 . S
C64 O76 1.232 . S
O65 C64 1.245 . S
O66 Co60 2.058 . S
O66 C92 1.269 . S
O67 Co59 2.074 . S
O67 C92 1.257 . S
H68 C93 0.930 . S
H69 C99 0.930 . S
O70 Co59 2.093 1_655 S
O70 C62 1.224 . S
H71 C103 0.929 . S
H72 C105 0.930 . S
H73 C106 0.930 . S
H74 C104 0.929 . S
H75 C107 0.911 1_655 S
O76 Co60 2.057 1_655 S
O76 C64 1.232 . S
H77 C96 0.929 . S
H78 C97 0.929 . S
H79 C109 0.931 . S
H80 C101 0.929 . S
H81 C110 0.930 . S
H82 C102 0.931 . S
O83 Co59 2.097 . S
O83 C111 1.214 . S
H84 C112 0.929 . S
H85 C113 0.929 . S
H86 C114 0.930 . S
H87 C115 0.929 . S
H88 C117 0.930 . S
H89 C94 0.930 . S
H90 C98 0.930 . S
O91 Co60 2.037 . S
O91 C111 1.234 . S
C92 O66 1.269 . S
C92 O67 1.257 . S
C93 H68 0.930 . S
C93 C96 1.388 . S
C93 C98 1.418 . S
C94 H89 0.930 . S
C94 C97 1.404 . S
C94 C98 1.353 . S
N95 Co60 2.145 . S
N95 C96 1.397 . S
N95 C97 1.334 . S
C96 H77 0.929 . S
C96 C93 1.388 . S
C96 N95 1.397 . S
C97 H78 0.929 . S
C97 C94 1.404 . S
C97 N95 1.334 . S
C98 H90 0.930 . S
C98 C93 1.418 . S
C98 C94 1.353 . S
C99 H69 0.930 . S
C99 N100 1.330 . S
C99 C101 1.446 . S
N100 Co59 2.151 1_655 S
N100 C99 1.330 . S
N100 C104 1.418 1_655 S
C101 H80 0.929 . S
C101 C99 1.446 . S
C101 C102 1.332 . S
C102 H82 0.931 . S
C102 C101 1.332 . S
C102 C103 1.267 1_655 S
C103 H71 0.929 . S
C103 C102 1.267 1_455 S
C103 C104 1.251 . S
C104 H74 0.929 . S
C104 N100 1.418 1_455 S
C104 C103 1.251 . S
C105 H72 0.930 . S
C105 C107 1.406 . S
C105 C110 1.261 . S
C106 H73 0.930 . S
C106 N108 1.325 . S
C106 C109 1.357 . S
C107 H75 0.911 1_455 S
C107 C105 1.406 . S
C107 N108 1.261 . S
N108 Co59 2.214 . S
N108 C106 1.325 . S
N108 C107 1.261 . S
C109 H79 0.931 . S
C109 C106 1.357 . S
C109 C110 1.312 . S
C110 H81 0.930 . S
C110 C105 1.261 . S
C110 C109 1.312 . S
C111 O83 1.214 . S
C111 O91 1.234 . S
C112 H84 0.929 . S
C112 C115 1.391 . S
C112 C117 1.391 . S
C113 H85 0.929 . S
C113 C114 1.390 1_455 S
C113 N116 1.391 1_455 S
C114 H86 0.930 . S
C114 C113 1.390 1_655 S
C114 C115 1.392 . S
C115 H87 0.929 . S
C115 C112 1.391 . S
C115 C114 1.392 . S
N116 Co60 2.257 1_655 S
N116 C113 1.391 1_655 S
N116 C117 1.388 . S
C117 H88 0.930 . S
C117 C112 1.391 . S
C117 N116 1.388 . S
Co118 O120 2.143 . S
Co118 O126 2.074 . S
Co118 O129 2.093 . S
Co118 O142 2.097 . S
Co118 N159 2.151 . S
Co118 N167 2.214 . S
Co119 O120 2.160 . S
Co119 O125 2.058 . S
Co119 O135 2.057 . S
Co119 O150 2.037 . S
Co119 N154 2.145 . S
Co119 N175 2.257 . S
O120 Co118 2.143 . S
O120 Co119 2.160 . S
C121 O122 1.278 . S
C121 O129 1.224 . S
O122 C121 1.278 . S
C123 O124 1.245 . S
C123 O135 1.232 . S
O124 C123 1.245 . S
O125 Co119 2.058 . S
O125 C151 1.269 . S
O126 Co118 2.074 . S
O126 C151 1.257 . S
H127 C152 0.930 . S
H128 C158 0.930 . S
O129 Co118 2.093 . S
O129 C121 1.224 . S
H130 C162 0.929 . S
H131 C164 0.930 . S
H132 C165 0.930 . S
H133 C163 0.929 . S
H134 C166 0.928 . S
O135 Co119 2.057 . S
O135 C123 1.232 . S
H136 C155 0.929 . S
H137 C156 0.929 . S
H138 C168 0.931 . S
H139 C160 0.929 . S
H140 C169 0.930 . S
H141 C161 0.931 1_554 S
O142 Co118 2.097 . S
O142 C170 1.214 . S
H143 C171 0.929 . S
H144 C172 0.929 . S
H145 C173 0.930 . S
H146 C174 0.929 . S
H147 C176 0.930 . S
H148 C153 0.930 . S
H149 C157 0.930 . S
O150 Co119 2.037 . S
O150 C170 1.234 . S
C151 O125 1.269 . S
C151 O126 1.257 . S
C152 H127 0.930 . S
C152 C155 1.388 . S
C152 C157 1.418 . S
C153 H148 0.930 . S
C153 C156 1.404 . S
C153 C157 1.353 . S
N154 Co119 2.145 . S
N154 C155 1.397 . S
N154 C156 1.334 . S
C155 H136 0.929 . S
C155 C152 1.388 . S
C155 N154 1.397 . S
C156 H137 0.929 . S
C156 C153 1.404 . S
C156 N154 1.334 . S
C157 H149 0.930 . S
C157 C152 1.418 . S
C157 C153 1.353 . S
C158 H128 0.930 . S
C158 N159 1.330 . S
C158 C160 1.446 . S
N159 Co118 2.151 . S
N159 C158 1.330 . S
N159 C163 1.418 . S
C160 H139 0.929 . S
C160 C158 1.446 . S
C160 C161 1.332 . S
C161 H141 0.931 1_556 S
C161 C160 1.332 . S
C161 C162 1.267 . S
C162 H130 0.929 . S
C162 C161 1.267 . S
C162 C163 1.251 . S
C163 H133 0.929 . S
C163 N159 1.418 . S
C163 C162 1.251 . S
C164 H131 0.930 . S
C164 C166 1.406 . S
C164 C169 1.261 . S
C165 H132 0.930 . S
C165 N167 1.325 . S
C165 C168 1.357 . S
C166 H134 0.928 . S
C166 C164 1.406 . S
C166 N167 1.261 . S
N167 Co118 2.214 . S
N167 C165 1.325 . S
N167 C166 1.261 . S
C168 H138 0.931 . S
C168 C165 1.357 . S
C168 C169 1.312 . S
C169 H140 0.930 . S
C169 C164 1.261 . S
C169 C168 1.312 . S
C170 O142 1.214 . S
C170 O150 1.234 . S
C171 H143 0.929 . S
C171 C174 1.391 . S
C171 C176 1.391 . S
C172 H144 0.929 . S
C172 C173 1.390 . S
C172 N175 1.391 . S
C173 H145 0.930 . S
C173 C172 1.390 . S
C173 C174 1.392 . S
C174 H146 0.929 . S
C174 C171 1.391 . S
C174 C173 1.392 . S
N175 Co119 2.257 . S
N175 C172 1.391 . S
N175 C176 1.388 . S
C176 H147 0.930 . S
C176 C171 1.391 . S
C176 N175 1.388 . S
Co177 O179 2.143 . S
Co177 O185 2.074 . S
Co177 O188 2.093 . S
Co177 O201 2.097 . S
Co177 N218 2.151 . S
Co177 N226 2.214 . S
Co178 O179 2.160 . S
Co178 O184 2.058 . S
Co178 O194 2.057 . S
Co178 O209 2.037 . S
Co178 N213 2.145 . S
Co178 N234 2.257 . S
O179 Co177 2.143 . S
O179 Co178 2.160 . S
C180 O181 1.278 . S
C180 O188 1.224 . S
O181 C180 1.278 . S
C182 O183 1.245 . S
C182 O194 1.232 . S
O183 C182 1.245 . S
O184 Co178 2.058 . S
O184 C210 1.269 . S
O185 Co177 2.074 . S
O185 C210 1.257 . S
H186 C211 0.930 . S
H187 C217 0.930 . S
O188 Co177 2.093 . S
O188 C180 1.224 . S
H189 C221 0.929 . S
H190 C223 0.930 . S
H191 C224 0.930 . S
H192 C222 0.929 . S
H193 C225 0.928 . S
O194 Co178 2.057 . S
O194 C182 1.232 . S
H195 C214 0.929 . S
H196 C215 0.929 . S
H197 C227 0.931 . S
H198 C219 0.929 . S
H199 C228 0.930 . S
H200 C220 0.931 . S
O201 Co177 2.097 . S
O201 C229 1.214 . S
H202 C230 0.929 . S
H203 C231 0.929 . S
H204 C232 0.930 . S
H205 C233 0.929 . S
H206 C235 0.930 . S
H207 C212 0.930 . S
H208 C216 0.930 . S
O209 Co178 2.037 . S
O209 C229 1.234 . S
C210 O184 1.269 . S
C210 O185 1.257 . S
C211 H186 0.930 . S
C211 C214 1.388 . S
C211 C216 1.418 . S
C212 H207 0.930 . S
C212 C215 1.404 . S
C212 C216 1.353 . S
N213 Co178 2.145 . S
N213 C214 1.397 . S
N213 C215 1.334 . S
C214 H195 0.929 . S
C214 C211 1.388 . S
C214 N213 1.397 . S
C215 H196 0.929 . S
C215 C212 1.404 . S
C215 N213 1.334 . S
C216 H208 0.930 . S
C216 C211 1.418 . S
C216 C212 1.353 . S
C217 H187 0.930 . S
C217 N218 1.330 . S
C217 C219 1.446 . S
N218 Co177 2.151 . S
N218 C217 1.330 . S
N218 C222 1.418 . S
C219 H198 0.929 . S
C219 C217 1.446 . S
C219 C220 1.332 . S
C220 H200 0.931 . S
C220 C219 1.332 . S
C220 C221 1.267 . S
C221 H189 0.929 . S
C221 C220 1.267 . S
C221 C222 1.251 . S
C222 H192 0.929 . S
C222 N218 1.418 . S
C222 C221 1.251 . S
C223 H190 0.930 . S
C223 C225 1.406 . S
C223 C228 1.261 . S
C224 H191 0.930 . S
C224 N226 1.325 . S
C224 C227 1.357 . S
C225 H193 0.928 . S
C225 C223 1.406 . S
C225 N226 1.261 . S
N226 Co177 2.214 . S
N226 C224 1.325 . S
N226 C225 1.261 . S
C227 H197 0.931 . S
C227 C224 1.357 . S
C227 C228 1.312 . S
C228 H199 0.930 . S
C228 C223 1.261 . S
C228 C227 1.312 . S
C229 O201 1.214 . S
C229 O209 1.234 . S
C230 H202 0.929 . S
C230 C233 1.391 . S
C230 C235 1.391 . S
C231 H203 0.929 . S
C231 C232 1.390 . S
C231 N234 1.391 . S
C232 H204 0.930 . S
C232 C231 1.390 . S
C232 C233 1.392 . S
C233 H205 0.929 . S
C233 C230 1.391 . S
C233 C232 1.392 . S
N234 Co178 2.257 . S
N234 C231 1.391 . S
N234 C235 1.388 . S
C235 H206 0.930 . S
C235 C230 1.391 . S
C235 N234 1.388 . S
Co236 O238 2.143 . S
Co236 O244 2.074 1_455 S
Co236 O247 2.093 . S
Co236 O260 2.097 . S
Co236 N277 2.151 . S
Co236 N285 2.214 . S
Co237 O238 2.160 1_655 S
Co237 O243 2.058 . S
Co237 O253 2.057 . S
Co237 O268 2.037 1_655 S
Co237 N272 2.145 . S
Co237 N293 2.257 1_655 S
O238 Co236 2.143 . S
O238 Co237 2.160 1_455 S
C239 O240 1.278 . S
C239 O247 1.224 . S
O240 C239 1.278 . S
C241 O242 1.245 . S
C241 O253 1.232 . S
O242 C241 1.245 . S
O243 Co237 2.058 . S
O243 C269 1.269 . S
O244 Co236 2.074 1_655 S
O244 C269 1.257 . S
H245 C270 0.930 . S
H246 C276 0.930 . S
O247 Co236 2.093 . S
O247 C239 1.224 . S
H248 C280 0.929 . S
H249 C282 0.930 . S
H250 C283 0.930 . S
H251 C281 0.929 . S
H252 C284 0.928 . S
O253 Co237 2.057 . S
O253 C241 1.232 . S
H254 C273 0.929 . S
H255 C274 0.929 . S
H256 C286 0.931 . S
H257 C278 0.929 . S
H258 C287 0.930 . S
H259 C279 0.931 . S
O260 Co236 2.097 . S
O260 C288 1.214 . S
H261 C289 0.929 . S
H262 C290 0.929 . S
H263 C291 0.930 . S
H264 C292 0.929 . S
H265 C294 0.930 . S
H266 C271 0.930 . S
H267 C275 0.930 . S
O268 Co237 2.037 1_455 S
O268 C288 1.234 . S
C269 O243 1.269 . S
C269 O244 1.257 . S
C270 H245 0.930 . S
C270 C273 1.388 . S
C270 C275 1.418 . S
C271 H266 0.930 . S
C271 C274 1.404 . S
C271 C275 1.353 . S
N272 Co237 2.145 . S
N272 C273 1.397 . S
N272 C274 1.334 . S
C273 H254 0.929 . S
C273 C270 1.388 . S
C273 N272 1.397 . S
C274 H255 0.929 . S
C274 C271 1.404 . S
C274 N272 1.334 . S
C275 H267 0.930 . S
C275 C270 1.418 . S
C275 C271 1.353 . S
C276 H246 0.930 . S
C276 N277 1.330 . S
C276 C278 1.446 . S
N277 Co236 2.151 . S
N277 C276 1.330 . S
N277 C281 1.418 1_455 S
C278 H257 0.929 . S
C278 C276 1.446 . S
C278 C279 1.332 1_455 S
C279 H259 0.931 . S
C279 C278 1.332 1_655 S
C279 C280 1.267 . S
C280 H248 0.929 . S
C280 C279 1.267 . S
C280 C281 1.251 . S
C281 H251 0.929 . S
C281 N277 1.418 1_655 S
C281 C280 1.251 . S
C282 H249 0.930 . S
C282 C284 1.406 . S
C282 C287 1.261 . S
C283 H250 0.930 . S
C283 N285 1.325 . S
C283 C286 1.357 . S
C284 H252 0.928 . S
C284 C282 1.406 . S
C284 N285 1.261 . S
N285 Co236 2.214 . S
N285 C283 1.325 . S
N285 C284 1.261 . S
C286 H256 0.931 . S
C286 C283 1.357 . S
C286 C287 1.312 . S
C287 H258 0.930 . S
C287 C282 1.261 . S
C287 C286 1.312 . S
C288 O260 1.214 . S
C288 O268 1.234 . S
C289 H261 0.929 . S
C289 C292 1.391 . S
C289 C294 1.391 . S
C290 H262 0.929 . S
C290 C291 1.390 . S
C290 N293 1.391 . S
C291 H263 0.930 . S
C291 C290 1.390 . S
C291 C292 1.392 . S
C292 H264 0.929 . S
C292 C289 1.391 . S
C292 C291 1.392 . S
N293 Co237 2.257 1_455 S
N293 C290 1.391 . S
N293 C294 1.388 . S
C294 H265 0.930 . S
C294 C289 1.391 . S
C294 N293 1.388 . S
Co295 O297 2.143 . S
Co295 O303 2.074 . S
Co295 O306 2.093 . S
Co295 O319 2.097 . S
Co295 N336 2.151 . S
Co295 N344 2.214 . S
Co296 O297 2.160 . S
Co296 O302 2.058 . S
Co296 O312 2.057 . S
Co296 O327 2.037 . S
Co296 N331 2.145 . S
Co296 N352 2.257 . S
O297 Co295 2.143 . S
O297 Co296 2.160 . S
C298 O299 1.278 . S
C298 O306 1.224 . S
O299 C298 1.278 . S
C300 O301 1.245 . S
C300 O312 1.232 . S
O301 C300 1.245 . S
O302 Co296 2.058 . S
O302 C328 1.269 . S
O303 Co295 2.074 . S
O303 C328 1.257 . S
H304 C329 0.930 . S
H305 C335 0.930 . S
O306 Co295 2.093 . S
O306 C298 1.224 . S
H307 C339 0.929 . S
H308 C341 0.930 . S
H309 C342 0.930 . S
H310 C340 0.929 . S
H311 C343 0.928 . S
O312 Co296 2.057 . S
O312 C300 1.232 . S
H313 C332 0.929 . S
H314 C333 0.929 . S
H315 C345 0.931 . S
H316 C337 0.929 . S
H317 C346 0.930 . S
H318 C338 0.931 . S
O319 Co295 2.097 . S
O319 C347 1.214 . S
H320 C348 0.929 . S
H321 C349 0.929 . S
H322 C350 0.930 . S
H323 C351 0.929 . S
H324 C353 0.930 . S
H325 C330 0.930 . S
H326 C334 0.930 . S
O327 Co296 2.037 . S
O327 C347 1.234 . S
C328 O302 1.269 . S
C328 O303 1.257 . S
C329 H304 0.930 . S
C329 C332 1.388 . S
C329 C334 1.418 . S
C330 H325 0.930 . S
C330 C333 1.404 . S
C330 C334 1.353 . S
N331 Co296 2.145 . S
N331 C332 1.397 . S
N331 C333 1.334 . S
C332 H313 0.929 . S
C332 C329 1.388 . S
C332 N331 1.397 . S
C333 H314 0.929 . S
C333 C330 1.404 . S
C333 N331 1.334 . S
C334 H326 0.930 . S
C334 C329 1.418 . S
C334 C330 1.353 . S
C335 H305 0.930 . S
C335 N336 1.330 . S
C335 C337 1.446 . S
N336 Co295 2.151 . S
N336 C335 1.330 . S
N336 C340 1.418 . S
C337 H316 0.929 . S
C337 C335 1.446 . S
C337 C338 1.332 . S
C338 H318 0.931 . S
C338 C337 1.332 . S
C338 C339 1.267 . S
C339 H307 0.929 . S
C339 C338 1.267 . S
C339 C340 1.251 . S
C340 H310 0.929 . S
C340 N336 1.418 . S
C340 C339 1.251 . S
C341 H308 0.930 . S
C341 C343 1.406 . S
C341 C346 1.261 . S
C342 H309 0.930 . S
C342 N344 1.325 . S
C342 C345 1.357 . S
C343 H311 0.928 . S
C343 C341 1.406 . S
C343 N344 1.261 . S
N344 Co295 2.214 . S
N344 C342 1.325 . S
N344 C343 1.261 . S
C345 H315 0.931 . S
C345 C342 1.357 . S
C345 C346 1.312 . S
C346 H317 0.930 . S
C346 C341 1.261 . S
C346 C345 1.312 . S
C347 O319 1.214 . S
C347 O327 1.234 . S
C348 H320 0.929 . S
C348 C351 1.391 . S
C348 C353 1.391 . S
C349 H321 0.929 . S
C349 C350 1.390 . S
C349 N352 1.391 . S
C350 H322 0.930 . S
C350 C349 1.390 . S
C350 C351 1.392 . S
C351 H323 0.929 . S
C351 C348 1.391 . S
C351 C350 1.392 . S
N352 Co296 2.257 . S
N352 C349 1.391 . S
N352 C353 1.388 . S
C353 H324 0.930 . S
C353 C348 1.391 . S
C353 N352 1.388 . S
Co354 O356 2.143 . S
Co354 O362 2.074 . S
Co354 O365 2.093 . S
Co354 O378 2.097 . S
Co354 N395 2.151 . S
Co354 N403 2.214 . S
Co355 O356 2.160 . S
Co355 O361 2.058 . S
Co355 O371 2.057 . S
Co355 O386 2.037 . S
Co355 N390 2.145 . S
Co355 N411 2.257 . S
O356 Co354 2.143 . S
O356 Co355 2.160 . S
C357 O358 1.278 . S
C357 O365 1.224 . S
O358 C357 1.278 . S
C359 O360 1.245 . S
C359 O371 1.232 . S
O360 C359 1.245 . S
O361 Co355 2.058 . S
O361 C387 1.269 . S
O362 Co354 2.074 . S
O362 C387 1.257 . S
H363 C388 0.930 . S
H364 C394 0.930 . S
O365 Co354 2.093 . S
O365 C357 1.224 . S
H366 C398 0.929 . S
H367 C400 0.930 . S
H368 C401 0.930 . S
H369 C399 0.929 . S
H370 C402 0.928 . S
O371 Co355 2.057 . S
O371 C359 1.232 . S
H372 C391 0.929 . S
H373 C392 0.929 . S
H374 C404 0.931 . S
H375 C396 0.929 . S
H376 C405 0.930 . S
H377 C397 0.931 . S
O378 Co354 2.097 . S
O378 C406 1.214 . S
H379 C407 0.929 . S
H380 C408 0.929 . S
H381 C409 0.930 . S
H382 C410 0.929 . S
H383 C412 0.930 . S
H384 C389 0.930 . S
H385 C393 0.930 . S
O386 Co355 2.037 . S
O386 C406 1.234 . S
C387 O361 1.269 . S
C387 O362 1.257 . S
C388 H363 0.930 . S
C388 C391 1.388 . S
C388 C393 1.418 . S
C389 H384 0.930 . S
C389 C392 1.404 . S
C389 C393 1.353 . S
N390 Co355 2.145 . S
N390 C391 1.397 . S
N390 C392 1.334 . S
C391 H372 0.929 . S
C391 C388 1.388 . S
C391 N390 1.397 . S
C392 H373 0.929 . S
C392 C389 1.404 . S
C392 N390 1.334 . S
C393 H385 0.930 . S
C393 C388 1.418 . S
C393 C389 1.353 . S
C394 H364 0.930 . S
C394 N395 1.330 . S
C394 C396 1.446 . S
N395 Co354 2.151 . S
N395 C394 1.330 . S
N395 C399 1.418 . S
C396 H375 0.929 . S
C396 C394 1.446 . S
C396 C397 1.332 . S
C397 H377 0.931 . S
C397 C396 1.332 . S
C397 C398 1.267 . S
C398 H366 0.929 . S
C398 C397 1.267 . S
C398 C399 1.251 . S
C399 H369 0.929 . S
C399 N395 1.418 . S
C399 C398 1.251 . S
C400 H367 0.930 . S
C400 C402 1.406 . S
C400 C405 1.261 . S
C401 H368 0.930 . S
C401 N403 1.325 . S
C401 C404 1.357 . S
C402 H370 0.928 . S
C402 C400 1.406 . S
C402 N403 1.261 . S
N403 Co354 2.214 . S
N403 C401 1.325 . S
N403 C402 1.261 . S
C404 H374 0.931 . S
C404 C401 1.357 . S
C404 C405 1.312 . S
C405 H376 0.930 . S
C405 C400 1.261 . S
C405 C404 1.312 . S
C406 O378 1.214 . S
C406 O386 1.234 . S
C407 H379 0.929 . S
C407 C410 1.391 . S
C407 C412 1.391 . S
C408 H380 0.929 . S
C408 C409 1.390 . S
C408 N411 1.391 . S
C409 H381 0.930 . S
C409 C408 1.390 . S
C409 C410 1.392 . S
C410 H382 0.929 . S
C410 C407 1.391 . S
C410 C409 1.392 . S
N411 Co355 2.257 . S
N411 C408 1.391 . S
N411 C412 1.388 . S
C412 H383 0.930 . S
C412 C407 1.391 . S
C412 N411 1.388 . S
Co413 O415 2.143 1_455 S
Co413 O421 2.074 . S
Co413 O424 2.093 1_455 S
Co413 O437 2.097 . S
Co413 N454 2.163 . S
Co413 N462 2.214 . S
Co414 O415 2.160 1_455 S
Co414 O420 2.058 . S
Co414 O430 2.057 1_455 S
Co414 O445 2.037 . S
Co414 N449 2.145 . S
Co414 N470 2.257 1_455 S
O415 Co413 2.143 1_655 S
O415 Co414 2.160 1_655 S
C416 O417 1.278 . S
C416 O424 1.224 . S
O417 C416 1.278 . S
C418 O419 1.245 . S
C418 O430 1.232 . S
O419 C418 1.245 . S
O420 Co414 2.058 . S
O420 C446 1.269 . S
O421 Co413 2.074 . S
O421 C446 1.257 . S
H422 C447 0.930 . S
H423 C453 0.930 . S
O424 Co413 2.093 1_655 S
O424 C416 1.224 . S
H425 C457 0.929 . S
H426 C459 0.930 . S
H427 C460 0.930 . S
H428 C458 0.929 . S
H429 C461 0.928 . S
O430 Co414 2.057 1_655 S
O430 C418 1.232 . S
H431 C450 0.929 . S
H432 C451 0.929 . S
H433 C463 0.931 . S
H434 C455 0.929 . S
H435 C464 0.930 . S
H436 C456 0.931 . S
O437 Co413 2.097 . S
O437 C465 1.214 . S
H438 C466 0.929 . S
H439 C467 0.929 1_455 S
H440 C468 0.930 . S
H441 C469 0.929 . S
H442 C471 0.930 . S
H443 C448 0.930 . S
H444 C452 0.930 . S
O445 Co414 2.037 . S
O445 C465 1.234 . S
C446 O420 1.269 . S
C446 O421 1.257 . S
C447 H422 0.930 . S
C447 C450 1.388 . S
C447 C452 1.418 . S
C448 H443 0.930 . S
C448 C451 1.404 . S
C448 C452 1.353 . S
N449 Co414 2.145 . S
N449 C450 1.397 . S
N449 C451 1.334 . S
C450 H431 0.929 . S
C450 C447 1.388 . S
C450 N449 1.397 . S
C451 H432 0.929 . S
C451 C448 1.404 . S
C451 N449 1.334 . S
C452 H444 0.930 . S
C452 C447 1.418 . S
C452 C448 1.353 . S
C453 H423 0.930 . S
C453 N454 1.288 1_655 S
C453 C455 1.446 . S
N454 Co413 2.163 . S
N454 C453 1.288 1_455 S
N454 C458 1.445 . S
C455 H434 0.929 . S
C455 C453 1.446 . S
C455 C456 1.332 . S
C456 H436 0.931 . S
C456 C455 1.332 . S
C456 C457 1.267 1_655 S
C457 H425 0.929 . S
C457 C456 1.267 1_455 S
C457 C458 1.251 . S
C458 H428 0.929 . S
C458 N454 1.445 . S
C458 C457 1.251 . S
C459 H426 0.930 . S
C459 C461 1.406 . S
C459 C464 1.261 . S
C460 H427 0.930 . S
C460 N462 1.325 . S
C460 C463 1.357 . S
C461 H429 0.928 . S
C461 C459 1.406 . S
C461 N462 1.261 . S
N462 Co413 2.214 . S
N462 C460 1.325 . S
N462 C461 1.261 . S
C463 H433 0.931 . S
C463 C460 1.357 . S
C463 C464 1.312 . S
C464 H435 0.930 . S
C464 C459 1.261 . S
C464 C463 1.312 . S
C465 O437 1.214 . S
C465 O445 1.234 . S
C466 H438 0.929 . S
C466 C469 1.391 . S
C466 C471 1.391 . S
C467 H439 0.929 1_655 S
C467 C468 1.390 . S
C467 N470 1.391 . S
C468 H440 0.930 . S
C468 C467 1.390 . S
C468 C469 1.392 . S
C469 H441 0.929 . S
C469 C466 1.391 . S
C469 C468 1.392 . S
N470 Co414 2.257 1_655 S
N470 C467 1.391 . S
N470 C471 1.388 . S
C471 H442 0.930 . S
C471 C466 1.391 . S
C471 N470 1.388 . S
Co472 O474 2.143 1_545 S
Co472 O480 2.084 . S
Co472 O483 2.093 . S
Co472 O496 2.097 . S
Co472 N513 2.151 1_545 S
Co472 N521 2.214 . S
Co473 O474 2.160 . S
Co473 O479 2.058 . S
Co473 O489 2.057 . S
Co473 O504 2.037 1_565 S
Co473 N508 2.145 . S
Co473 N529 2.257 1_565 S
O474 Co472 2.143 1_565 S
O474 Co473 2.160 . S
C475 O476 1.278 . S
C475 O483 1.224 . S
O476 C475 1.278 . S
C477 O478 1.245 . S
C477 O489 1.232 . S
O478 C477 1.245 . S
O479 Co473 2.058 . S
O479 C505 1.269 . S
O480 Co472 2.084 . S
O480 C505 1.240 1_545 S
H481 C506 0.930 . S
H482 C512 0.930 . S
O483 Co472 2.093 . S
O483 C475 1.224 . S
H484 C516 0.929 . S
H485 C518 0.930 . S
H486 C519 0.930 . S
H487 C517 0.929 . S
H488 C520 0.928 . S
O489 Co473 2.057 . S
O489 C477 1.232 . S
H490 C509 0.929 1_545 S
H491 C510 0.929 . S
H492 C522 0.931 . S
H493 C514 0.929 . S
H494 C523 0.930 . S
H495 C515 0.931 . S
O496 Co472 2.097 . S
O496 C524 1.214 . S
H497 C525 0.929 . S
H498 C526 0.929 . S
H499 C527 0.930 . S
H500 C528 0.929 . S
H501 C530 0.930 1_565 S
H502 C507 0.930 . S
H503 C511 0.930 . S
O504 Co473 2.037 1_545 S
O504 C524 1.234 . S
C505 O479 1.269 . S
C505 O480 1.240 1_565 S
C506 H481 0.930 . S
C506 C509 1.388 . S
C506 C511 1.418 . S
C507 H502 0.930 . S
C507 C510 1.404 . S
C507 C511 1.353 . S
N508 Co473 2.145 . S
N508 C509 1.397 . S
N508 C510 1.334 . S
C509 H490 0.929 1_565 S
C509 C506 1.388 . S
C509 N508 1.397 . S
C510 H491 0.929 . S
C510 C507 1.404 . S
C510 N508 1.334 . S
C511 H503 0.930 . S
C511 C506 1.418 . S
C511 C507 1.353 . S
C512 H482 0.930 . S
C512 N513 1.330 . S
C512 C514 1.446 . S
N513 Co472 2.151 1_565 S
N513 C512 1.330 . S
N513 C517 1.418 . S
C514 H493 0.929 . S
C514 C512 1.446 . S
C514 C515 1.332 . S
C515 H495 0.931 . S
C515 C514 1.332 . S
C515 C516 1.267 . S
C516 H484 0.929 . S
C516 C515 1.267 . S
C516 C517 1.251 . S
C517 H487 0.929 . S
C517 N513 1.418 . S
C517 C516 1.251 . S
C518 H485 0.930 . S
C518 C520 1.406 . S
C518 C523 1.261 . S
C519 H486 0.930 . S
C519 N521 1.325 . S
C519 C522 1.357 . S
C520 H488 0.928 . S
C520 C518 1.406 . S
C520 N521 1.261 . S
N521 Co472 2.214 . S
N521 C519 1.325 . S
N521 C520 1.261 . S
C522 H492 0.931 . S
C522 C519 1.357 . S
C522 C523 1.312 . S
C523 H494 0.930 . S
C523 C518 1.261 . S
C523 C522 1.312 . S
C524 O496 1.214 . S
C524 O504 1.234 . S
C525 H497 0.929 . S
C525 C528 1.391 . S
C525 C530 1.391 . S
C526 H498 0.929 . S
C526 C527 1.390 . S
C526 N529 1.391 . S
C527 H499 0.930 . S
C527 C526 1.390 . S
C527 C528 1.392 . S
C528 H500 0.929 . S
C528 C525 1.391 . S
C528 C527 1.392 . S
N529 Co473 2.257 1_545 S
N529 C526 1.391 . S
N529 C530 1.388 . S
C530 H501 0.930 1_545 S
C530 C525 1.391 . S
C530 N529 1.388 . S
Co531 O533 2.143 . S
Co531 O539 2.074 . S
Co531 O542 2.093 . S
Co531 O555 2.097 . S
Co531 N572 2.151 . S
Co531 N580 2.214 . S
Co532 O533 2.160 . S
Co532 O538 2.058 . S
Co532 O548 2.057 . S
Co532 O563 2.037 . S
Co532 N567 2.145 . S
Co532 N588 2.257 . S
O533 Co531 2.143 . S
O533 Co532 2.160 . S
C534 O535 1.278 . S
C534 O542 1.224 . S
O535 C534 1.278 . S
C536 O537 1.245 . S
C536 O548 1.232 . S
O537 C536 1.245 . S
O538 Co532 2.058 . S
O538 C564 1.269 . S
O539 Co531 2.074 . S
O539 C564 1.257 . S
H540 C565 0.930 . S
H541 C571 0.930 . S
O542 Co531 2.093 . S
O542 C534 1.224 . S
H543 C575 0.929 . S
H544 C577 0.930 . S
H545 C578 0.930 . S
H546 C576 0.929 . S
H547 C579 0.928 . S
O548 Co532 2.057 . S
O548 C536 1.232 . S
H549 C568 0.929 . S
H550 C569 0.929 . S
H551 C581 0.931 . S
H552 C573 0.929 . S
H553 C582 0.930 . S
H554 C574 0.931 . S
O555 Co531 2.097 . S
O555 C583 1.214 . S
H556 C584 0.929 . S
H557 C585 0.929 . S
H558 C586 0.930 . S
H559 C587 0.929 . S
H560 C589 0.930 . S
H561 C566 0.930 . S
H562 C570 0.930 . S
O563 Co532 2.037 . S
O563 C583 1.234 . S
C564 O538 1.269 . S
C564 O539 1.257 . S
C565 H540 0.930 . S
C565 C568 1.388 . S
C565 C570 1.418 . S
C566 H561 0.930 . S
C566 C569 1.404 . S
C566 C570 1.353 . S
N567 Co532 2.145 . S
N567 C568 1.397 . S
N567 C569 1.334 . S
C568 H549 0.929 . S
C568 C565 1.388 . S
C568 N567 1.397 . S
C569 H550 0.929 . S
C569 C566 1.404 . S
C569 N567 1.334 . S
C570 H562 0.930 . S
C570 C565 1.418 . S
C570 C566 1.353 . S
C571 H541 0.930 . S
C571 N572 1.330 . S
C571 C573 1.446 . S
N572 Co531 2.151 . S
N572 C571 1.330 . S
N572 C576 1.418 . S
C573 H552 0.929 . S
C573 C571 1.446 . S
C573 C574 1.332 . S
C574 H554 0.931 . S
C574 C573 1.332 . S
C574 C575 1.267 . S
C575 H543 0.929 . S
C575 C574 1.267 . S
C575 C576 1.251 . S
C576 H546 0.929 . S
C576 N572 1.418 . S
C576 C575 1.251 . S
C577 H544 0.930 . S
C577 C579 1.406 . S
C577 C582 1.261 . S
C578 H545 0.930 . S
C578 N580 1.325 . S
C578 C581 1.357 . S
C579 H547 0.928 . S
C579 C577 1.406 . S
C579 N580 1.261 . S
N580 Co531 2.214 . S
N580 C578 1.325 . S
N580 C579 1.261 . S
C581 H551 0.931 . S
C581 C578 1.357 . S
C581 C582 1.312 . S
C582 H553 0.930 . S
C582 C577 1.261 . S
C582 C581 1.312 . S
C583 O555 1.214 . S
C583 O563 1.234 . S
C584 H556 0.929 . S
C584 C587 1.391 . S
C584 C589 1.391 . S
C585 H557 0.929 . S
C585 C586 1.390 . S
C585 N588 1.391 . S
C586 H558 0.930 . S
C586 C585 1.390 . S
C586 C587 1.392 . S
C587 H559 0.929 . S
C587 C584 1.391 . S
C587 C586 1.392 . S
N588 Co532 2.257 . S
N588 C585 1.391 . S
N588 C589 1.388 . S
C589 H560 0.930 . S
C589 C584 1.391 . S
C589 N588 1.388 . S
Co590 O592 2.143 1_565 S
Co590 O598 2.074 1_565 S
Co590 O601 2.093 . S
Co590 O614 2.097 . S
Co590 N631 2.151 1_565 S
Co590 N639 2.214 . S
Co591 O592 2.160 . S
Co591 O597 2.058 . S
Co591 O607 2.057 . S
Co591 O622 2.037 1_545 S
Co591 N626 2.145 . S
Co591 N647 2.257 . S
O592 Co590 2.143 1_545 S
O592 Co591 2.160 . S
C593 O594 1.278 . S
C593 O601 1.224 . S
O594 C593 1.278 . S
C595 O596 1.245 . S
C595 O607 1.232 . S
O596 C595 1.245 . S
O597 Co591 2.058 . S
O597 C623 1.269 . S
O598 Co590 2.074 1_545 S
O598 C623 1.257 . S
H599 C624 0.930 . S
H600 C630 0.930 . S
O601 Co590 2.093 . S
O601 C593 1.224 . S
H602 C634 0.929 . S
H603 C636 0.930 . S
H604 C637 0.930 . S
H605 C635 0.929 . S
H606 C638 0.928 . S
O607 Co591 2.057 . S
O607 C595 1.232 . S
H608 C627 0.929 . S
H609 C628 0.929 . S
H610 C640 0.931 . S
H611 C632 0.929 . S
H612 C641 0.930 . S
H613 C633 0.931 . S
O614 Co590 2.097 . S
O614 C642 1.214 . S
H615 C643 0.929 1_545 S
H616 C644 0.929 . S
H617 C645 0.930 . S
H618 C646 0.929 . S
H619 C648 0.930 . S
H620 C625 0.930 . S
H621 C629 0.930 . S
O622 Co591 2.037 1_565 S
O622 C642 1.234 . S
C623 O597 1.269 . S
C623 O598 1.257 . S
C624 H599 0.930 . S
C624 C627 1.388 . S
C624 C629 1.418 . S
C625 H620 0.930 . S
C625 C628 1.404 . S
C625 C629 1.353 . S
N626 Co591 2.145 . S
N626 C627 1.397 . S
N626 C628 1.334 . S
C627 H608 0.929 . S
C627 C624 1.388 . S
C627 N626 1.397 . S
C628 H609 0.929 . S
C628 C625 1.404 . S
C628 N626 1.334 . S
C629 H621 0.930 . S
C629 C624 1.418 . S
C629 C625 1.353 . S
C630 H600 0.930 . S
C630 N631 1.330 . S
C630 C632 1.446 . S
N631 Co590 2.151 1_545 S
N631 C630 1.330 . S
N631 C635 1.418 . S
C632 H611 0.929 . S
C632 C630 1.446 . S
C632 C633 1.332 . S
C633 H613 0.931 . S
C633 C632 1.332 . S
C633 C634 1.267 . S
C634 H602 0.929 . S
C634 C633 1.267 . S
C634 C635 1.251 . S
C635 H605 0.929 . S
C635 N631 1.418 . S
C635 C634 1.251 . S
C636 H603 0.930 . S
C636 C638 1.406 . S
C636 C641 1.261 . S
C637 H604 0.930 . S
C637 N639 1.325 . S
C637 C640 1.357 . S
C638 H606 0.928 . S
C638 C636 1.406 . S
C638 N639 1.261 . S
N639 Co590 2.214 . S
N639 C637 1.325 . S
N639 C638 1.261 . S
C640 H610 0.931 . S
C640 C637 1.357 . S
C640 C641 1.312 . S
C641 H612 0.930 . S
C641 C636 1.261 . S
C641 C640 1.312 . S
C642 O614 1.214 . S
C642 O622 1.234 . S
C643 H615 0.929 1_565 S
C643 C646 1.391 . S
C643 C648 1.391 1_565 S
C644 H616 0.929 . S
C644 C645 1.390 . S
C644 N647 1.391 1_565 S
C645 H617 0.930 . S
C645 C644 1.390 . S
C645 C646 1.392 . S
C646 H618 0.929 . S
C646 C643 1.391 . S
C646 C645 1.392 . S
N647 Co591 2.257 . S
N647 C644 1.391 1_545 S
N647 C648 1.388 . S
C648 H619 0.930 . S
C648 C643 1.391 1_545 S
C648 N647 1.388 . S
Co649 O651 2.143 1_554 S
Co649 O657 2.074 . S
Co649 O660 2.107 . S
Co649 O673 2.097 . S
Co649 N690 2.151 1_554 S
Co649 N698 2.214 . S
Co650 O651 2.160 1_554 S
Co650 O656 2.058 . S
Co650 O666 2.057 1_554 S
Co650 O681 2.037 . S
Co650 N685 2.145 . S
Co650 N706 2.257 1_554 S
O651 Co649 2.143 1_556 S
O651 Co650 2.160 1_556 S
C652 O653 1.278 . S
C652 O660 1.201 1_556 S
O653 C652 1.278 . S
C654 O655 1.245 . S
C654 O666 1.232 . S
O655 C654 1.245 . S
O656 Co650 2.058 . S
O656 C682 1.269 . S
O657 Co649 2.074 . S
O657 C682 1.257 . S
H658 C683 0.930 . S
H659 C689 0.930 . S
O660 Co649 2.107 . S
O660 C652 1.201 1_554 S
H661 C693 0.929 . S
H662 C695 0.930 . S
H663 C696 0.930 . S
H664 C694 0.945 . S
H665 C697 0.928 . S
O666 Co650 2.057 1_556 S
O666 C654 1.232 . S
H667 C686 0.929 . S
H668 C687 0.929 1_556 S
H669 C699 0.931 . S
H670 C691 0.929 . S
H671 C700 0.930 . S
H672 C692 0.931 . S
O673 Co649 2.097 . S
O673 C701 1.214 . S
H674 C702 0.929 . S
H675 C703 0.929 . S
H676 C704 0.930 . S
H677 C705 0.929 . S
H678 C707 0.930 . S
H679 C684 0.930 . S
H680 C688 0.930 . S
O681 Co650 2.037 . S
O681 C701 1.234 . S
C682 O656 1.269 . S
C682 O657 1.257 . S
C683 H658 0.930 . S
C683 C686 1.388 . S
C683 C688 1.418 . S
C684 H679 0.930 . S
C684 C687 1.404 . S
C684 C688 1.353 . S
N685 Co650 2.145 . S
N685 C686 1.397 . S
N685 C687 1.334 . S
C686 H667 0.929 . S
C686 C683 1.388 . S
C686 N685 1.397 . S
C687 H668 0.929 1_554 S
C687 C684 1.404 . S
C687 N685 1.334 . S
C688 H680 0.930 . S
C688 C683 1.418 . S
C688 C684 1.353 . S
C689 H659 0.930 . S
C689 N690 1.330 . S
C689 C691 1.446 . S
N690 Co649 2.151 1_556 S
N690 C689 1.330 . S
N690 C694 1.411 1_556 S
C691 H670 0.929 . S
C691 C689 1.446 . S
C691 C692 1.332 . S
C692 H672 0.931 . S
C692 C691 1.332 . S
C692 C693 1.267 . S
C693 H661 0.929 . S
C693 C692 1.267 . S
C693 C694 1.242 1_556 S
C694 H664 0.945 . S
C694 N690 1.411 1_554 S
C694 C693 1.242 1_554 S
C695 H662 0.930 . S
C695 C697 1.406 . S
C695 C700 1.261 . S
C696 H663 0.930 . S
C696 N698 1.325 . S
C696 C699 1.357 . S
C697 H665 0.928 . S
C697 C695 1.406 . S
C697 N698 1.261 . S
N698 Co649 2.214 . S
N698 C696 1.325 . S
N698 C697 1.261 . S
C699 H669 0.931 . S
C699 C696 1.357 . S
C699 C700 1.312 . S
C700 H671 0.930 . S
C700 C695 1.261 . S
C700 C699 1.312 . S
C701 O673 1.214 . S
C701 O681 1.234 . S
C702 H674 0.929 . S
C702 C705 1.391 . S
C702 C707 1.391 . S
C703 H675 0.929 . S
C703 C704 1.390 . S
C703 N706 1.391 1_554 S
C704 H676 0.930 . S
C704 C703 1.390 . S
C704 C705 1.392 1_554 S
C705 H677 0.929 . S
C705 C702 1.391 . S
C705 C704 1.392 1_556 S
N706 Co650 2.257 1_556 S
N706 C703 1.391 1_556 S
N706 C707 1.388 . S
C707 H678 0.930 . S
C707 C702 1.391 . S
C707 N706 1.388 . S
Co708 O710 2.143 . S
Co708 O716 2.074 1_556 S
Co708 O719 2.093 . S
Co708 O732 2.097 . S
Co708 N749 2.151 1_556 S
Co708 N757 2.214 . S
Co709 O710 2.160 1_554 S
Co709 O715 2.058 . S
Co709 O725 2.057 . S
Co709 O740 2.037 1_554 S
Co709 N744 2.145 . S
Co709 N765 2.257 1_554 S
O710 Co708 2.143 . S
O710 Co709 2.160 1_556 S
C711 O712 1.278 . S
C711 O719 1.224 . S
O712 C711 1.278 . S
C713 O714 1.245 . S
C713 O725 1.232 . S
O714 C713 1.245 . S
O715 Co709 2.058 . S
O715 C741 1.269 . S
O716 Co708 2.074 1_554 S
O716 C741 1.257 . S
H717 C742 0.930 . S
H718 C748 0.930 . S
O719 Co708 2.093 . S
O719 C711 1.224 . S
H720 C752 0.929 . S
H721 C754 0.930 . S
H722 C755 0.930 . S
H723 C753 0.929 . S
H724 C756 0.928 . S
O725 Co709 2.057 . S
O725 C713 1.232 . S
H726 C745 0.929 . S
H727 C746 0.929 . S
H728 C758 0.931 . S
H729 C750 0.929 . S
H730 C759 0.930 . S
H731 C751 0.931 . S
O732 Co708 2.097 . S
O732 C760 1.214 . S
H733 C761 0.929 . S
H734 C762 0.929 . S
H735 C763 0.930 . S
H736 C764 0.929 . S
H737 C766 0.930 . S
H738 C743 0.930 . S
H739 C747 0.930 . S
O740 Co709 2.037 1_556 S
O740 C760 1.234 . S
C741 O715 1.269 . S
C741 O716 1.257 . S
C742 H717 0.930 . S
C742 C745 1.388 . S
C742 C747 1.418 . S
C743 H738 0.930 . S
C743 C746 1.404 . S
C743 C747 1.353 . S
N744 Co709 2.145 . S
N744 C745 1.397 . S
N744 C746 1.334 . S
C745 H726 0.929 . S
C745 C742 1.388 . S
C745 N744 1.397 . S
C746 H727 0.929 . S
C746 C743 1.404 . S
C746 N744 1.334 . S
C747 H739 0.930 . S
C747 C742 1.418 . S
C747 C743 1.353 . S
C748 H718 0.930 . S
C748 N749 1.330 1_556 S
C748 C750 1.446 1_556 S
N749 Co708 2.151 1_554 S
N749 C748 1.330 1_554 S
N749 C753 1.418 . S
C750 H729 0.929 . S
C750 C748 1.446 1_554 S
C750 C751 1.332 . S
C751 H731 0.931 . S
C751 C750 1.332 . S
C751 C752 1.267 . S
C752 H720 0.929 . S
C752 C751 1.267 . S
C752 C753 1.251 . S
C753 H723 0.929 . S
C753 N749 1.418 . S
C753 C752 1.251 . S
C754 H721 0.930 . S
C754 C756 1.406 . S
C754 C759 1.261 . S
C755 H722 0.930 . S
C755 N757 1.325 . S
C755 C758 1.357 . S
C756 H724 0.928 . S
C756 C754 1.406 . S
C756 N757 1.261 . S
N757 Co708 2.214 . S
N757 C755 1.325 . S
N757 C756 1.261 . S
C758 H728 0.931 . S
C758 C755 1.357 . S
C758 C759 1.312 . S
C759 H730 0.930 . S
C759 C754 1.261 . S
C759 C758 1.312 . S
C760 O732 1.214 . S
C760 O740 1.234 . S
C761 H733 0.929 . S
C761 C764 1.391 . S
C761 C766 1.391 . S
C762 H734 0.929 . S
C762 C763 1.390 . S
C762 N765 1.391 . S
C763 H735 0.930 . S
C763 C762 1.390 . S
C763 C764 1.392 . S
C764 H736 0.929 . S
C764 C761 1.391 . S
C764 C763 1.392 . S
N765 Co709 2.257 1_556 S
N765 C762 1.391 . S
N765 C766 1.388 . S
C766 H737 0.930 . S
C766 C761 1.391 . S
C766 N765 1.388 . S
Co767 O769 2.143 1_556 S
Co767 O775 2.074 1_556 S
Co767 O778 2.093 . S
Co767 O791 2.097 . S
Co767 N808 2.151 1_556 S
Co767 N816 2.214 . S
Co768 O769 2.160 . S
Co768 O774 2.058 . S
Co768 O784 2.057 . S
Co768 O799 2.037 1_554 S
Co768 N803 2.145 . S
Co768 N824 2.257 . S
O769 Co767 2.143 1_554 S
O769 Co768 2.160 . S
C770 O771 1.278 . S
C770 O778 1.224 . S
O771 C770 1.278 . S
C772 O773 1.245 . S
C772 O784 1.232 . S
O773 C772 1.245 . S
O774 Co768 2.058 . S
O774 C800 1.269 . S
O775 Co767 2.074 1_554 S
O775 C800 1.257 . S
H776 C801 0.930 . S
H777 C807 0.930 . S
O778 Co767 2.093 . S
O778 C770 1.224 . S
H779 C811 0.929 . S
H780 C813 0.930 . S
H781 C814 0.930 . S
H782 C812 0.929 . S
H783 C815 0.928 . S
O784 Co768 2.057 . S
O784 C772 1.232 . S
H785 C804 0.929 . S
H786 C805 0.929 . S
H787 C817 0.931 . S
H788 C809 0.929 . S
H789 C818 0.930 . S
H790 C810 0.931 . S
O791 Co767 2.097 . S
O791 C819 1.214 . S
H792 C820 0.929 1_554 S
H793 C821 0.929 . S
H794 C822 0.930 . S
H795 C823 0.929 . S
H796 C825 0.930 . S
H797 C802 0.930 . S
H798 C806 0.930 . S
O799 Co768 2.037 1_556 S
O799 C819 1.234 . S
C800 O774 1.269 . S
C800 O775 1.257 . S
C801 H776 0.930 . S
C801 C804 1.388 . S
C801 C806 1.418 . S
C802 H797 0.930 . S
C802 C805 1.404 . S
C802 C806 1.353 . S
N803 Co768 2.145 . S
N803 C804 1.397 . S
N803 C805 1.334 . S
C804 H785 0.929 . S
C804 C801 1.388 . S
C804 N803 1.397 . S
C805 H786 0.929 . S
C805 C802 1.404 . S
C805 N803 1.334 . S
C806 H798 0.930 . S
C806 C801 1.418 . S
C806 C802 1.353 . S
C807 H777 0.930 . S
C807 N808 1.330 . S
C807 C809 1.446 . S
N808 Co767 2.151 1_554 S
N808 C807 1.330 . S
N808 C812 1.418 . S
C809 H788 0.929 . S
C809 C807 1.446 . S
C809 C810 1.332 . S
C810 H790 0.931 . S
C810 C809 1.332 . S
C810 C811 1.267 . S
C811 H779 0.929 . S
C811 C810 1.267 . S
C811 C812 1.251 . S
C812 H782 0.929 . S
C812 N808 1.418 . S
C812 C811 1.251 . S
C813 H780 0.930 . S
C813 C815 1.406 . S
C813 C818 1.261 . S
C814 H781 0.930 . S
C814 N816 1.325 . S
C814 C817 1.357 . S
C815 H783 0.928 . S
C815 C813 1.406 . S
C815 N816 1.261 . S
N816 Co767 2.214 . S
N816 C814 1.325 . S
N816 C815 1.261 . S
C817 H787 0.931 . S
C817 C814 1.357 . S
C817 C818 1.312 . S
C818 H789 0.930 . S
C818 C813 1.261 . S
C818 C817 1.312 . S
C819 O791 1.214 . S
C819 O799 1.234 . S
C820 H792 0.929 1_556 S
C820 C823 1.391 . S
C820 C825 1.391 1_556 S
C821 H793 0.929 . S
C821 C822 1.390 . S
C821 N824 1.391 1_556 S
C822 H794 0.930 . S
C822 C821 1.390 . S
C822 C823 1.392 . S
C823 H795 0.929 . S
C823 C820 1.391 . S
C823 C822 1.392 . S
N824 Co768 2.257 . S
N824 C821 1.391 1_554 S
N824 C825 1.388 . S
C825 H796 0.930 . S
C825 C820 1.391 1_554 S
C825 N824 1.388 . S
Co826 O828 2.143 . S
Co826 O834 2.074 . S
Co826 O837 2.093 . S
Co826 O850 2.097 . S
Co826 N867 2.151 . S
Co826 N875 2.214 . S
Co827 O828 2.160 . S
Co827 O833 2.058 . S
Co827 O843 2.057 . S
Co827 O858 2.037 . S
Co827 N862 2.145 . S
Co827 N883 2.257 . S
O828 Co826 2.143 . S
O828 Co827 2.160 . S
C829 O830 1.278 . S
C829 O837 1.224 . S
O830 C829 1.278 . S
C831 O832 1.245 . S
C831 O843 1.232 . S
O832 C831 1.245 . S
O833 Co827 2.058 . S
O833 C859 1.269 . S
O834 Co826 2.074 . S
O834 C859 1.257 . S
H835 C860 0.930 . S
H836 C866 0.930 . S
O837 Co826 2.093 . S
O837 C829 1.224 . S
H838 C870 0.929 . S
H839 C872 0.930 . S
H840 C873 0.930 . S
H841 C871 0.929 . S
H842 C874 0.928 . S
O843 Co827 2.057 . S
O843 C831 1.232 . S
H844 C863 0.929 . S
H845 C864 0.929 . S
H846 C876 0.931 . S
H847 C868 0.929 . S
H848 C877 0.930 . S
H849 C869 0.931 . S
O850 Co826 2.097 . S
O850 C878 1.214 . S
H851 C879 0.929 . S
H852 C880 0.929 . S
H853 C881 0.930 . S
H854 C882 0.929 . S
H855 C884 0.930 . S
H856 C861 0.930 . S
H857 C865 0.930 . S
O858 Co827 2.037 . S
O858 C878 1.234 . S
C859 O833 1.269 . S
C859 O834 1.257 . S
C860 H835 0.930 . S
C860 C863 1.388 . S
C860 C865 1.418 . S
C861 H856 0.930 . S
C861 C864 1.404 . S
C861 C865 1.353 . S
N862 Co827 2.145 . S
N862 C863 1.397 . S
N862 C864 1.334 . S
C863 H844 0.929 . S
C863 C860 1.388 . S
C863 N862 1.397 . S
C864 H845 0.929 . S
C864 C861 1.404 . S
C864 N862 1.334 . S
C865 H857 0.930 . S
C865 C860 1.418 . S
C865 C861 1.353 . S
C866 H836 0.930 . S
C866 N867 1.330 . S
C866 C868 1.446 . S
N867 Co826 2.151 . S
N867 C866 1.330 . S
N867 C871 1.418 . S
C868 H847 0.929 . S
C868 C866 1.446 . S
C868 C869 1.332 . S
C869 H849 0.931 . S
C869 C868 1.332 . S
C869 C870 1.267 . S
C870 H838 0.929 . S
C870 C869 1.267 . S
C870 C871 1.251 . S
C871 H841 0.929 . S
C871 N867 1.418 . S
C871 C870 1.251 . S
C872 H839 0.930 . S
C872 C874 1.406 . S
C872 C877 1.261 . S
C873 H840 0.930 . S
C873 N875 1.325 . S
C873 C876 1.357 . S
C874 H842 0.928 . S
C874 C872 1.406 . S
C874 N875 1.261 . S
N875 Co826 2.214 . S
N875 C873 1.325 . S
N875 C874 1.261 . S
C876 H846 0.931 . S
C876 C873 1.357 . S
C876 C877 1.312 . S
C877 H848 0.930 . S
C877 C872 1.261 . S
C877 C876 1.312 . S
C878 O850 1.214 . S
C878 O858 1.234 . S
C879 H851 0.929 . S
C879 C882 1.391 . S
C879 C884 1.391 . S
C880 H852 0.929 . S
C880 C881 1.390 . S
C880 N883 1.391 . S
C881 H853 0.930 . S
C881 C880 1.390 . S
C881 C882 1.392 . S
C882 H854 0.929 . S
C882 C879 1.391 . S
C882 C881 1.392 . S
N883 Co827 2.257 . S
N883 C880 1.391 . S
N883 C884 1.388 . S
C884 H855 0.930 . S
C884 C879 1.391 . S
C884 N883 1.388 . S
Co885 O887 2.143 . S
Co885 O893 2.074 . S
Co885 O896 2.093 . S
Co885 O909 2.097 . S
Co885 N926 2.151 . S
Co885 N934 2.214 . S
Co886 O887 2.160 . S
Co886 O892 2.058 . S
Co886 O902 2.057 . S
Co886 O917 2.037 . S
Co886 N921 2.145 . S
Co886 N942 2.257 . S
O887 Co885 2.143 . S
O887 Co886 2.160 . S
C888 O889 1.278 . S
C888 O896 1.224 . S
O889 C888 1.278 . S
C890 O891 1.245 . S
C890 O902 1.232 . S
O891 C890 1.245 . S
O892 Co886 2.058 . S
O892 C918 1.269 . S
O893 Co885 2.074 . S
O893 C918 1.257 . S
H894 C919 0.930 . S
H895 C925 0.930 . S
O896 Co885 2.093 . S
O896 C888 1.224 . S
H897 C929 0.929 . S
H898 C931 0.930 . S
H899 C932 0.930 . S
H900 C930 0.929 . S
H901 C933 0.928 . S
O902 Co886 2.057 . S
O902 C890 1.232 . S
H903 C922 0.929 . S
H904 C923 0.929 . S
H905 C935 0.931 . S
H906 C927 0.929 . S
H907 C936 0.930 . S
H908 C928 0.931 1_545 S
O909 Co885 2.097 . S
O909 C937 1.214 . S
H910 C938 0.929 . S
H911 C939 0.929 . S
H912 C940 0.930 . S
H913 C941 0.929 . S
H914 C943 0.930 . S
H915 C920 0.930 . S
H916 C924 0.930 . S
O917 Co886 2.037 . S
O917 C937 1.234 . S
C918 O892 1.269 . S
C918 O893 1.257 . S
C919 H894 0.930 . S
C919 C922 1.388 . S
C919 C924 1.418 . S
C920 H915 0.930 . S
C920 C923 1.404 . S
C920 C924 1.353 . S
N921 Co886 2.145 . S
N921 C922 1.397 . S
N921 C923 1.334 . S
C922 H903 0.929 . S
C922 C919 1.388 . S
C922 N921 1.397 . S
C923 H904 0.929 . S
C923 C920 1.404 . S
C923 N921 1.334 . S
C924 H916 0.930 . S
C924 C919 1.418 . S
C924 C920 1.353 . S
C925 H895 0.930 . S
C925 N926 1.330 . S
C925 C927 1.446 . S
N926 Co885 2.151 . S
N926 C925 1.330 . S
N926 C930 1.418 . S
C927 H906 0.929 . S
C927 C925 1.446 . S
C927 C928 1.332 . S
C928 H908 0.931 1_565 S
C928 C927 1.332 . S
C928 C929 1.267 . S
C929 H897 0.929 . S
C929 C928 1.267 . S
C929 C930 1.251 . S
C930 H900 0.929 . S
C930 N926 1.418 . S
C930 C929 1.251 . S
C931 H898 0.930 . S
C931 C933 1.406 . S
C931 C936 1.261 . S
C932 H899 0.930 . S
C932 N934 1.325 . S
C932 C935 1.357 . S
C933 H901 0.928 . S
C933 C931 1.406 . S
C933 N934 1.261 . S
N934 Co885 2.214 . S
N934 C932 1.325 . S
N934 C933 1.261 . S
C935 H905 0.931 . S
C935 C932 1.357 . S
C935 C936 1.312 . S
C936 H907 0.930 . S
C936 C931 1.261 . S
C936 C935 1.312 . S
C937 O909 1.214 . S
C937 O917 1.234 . S
C938 H910 0.929 . S
C938 C941 1.391 . S
C938 C943 1.391 . S
C939 H911 0.929 . S
C939 C940 1.390 . S
C939 N942 1.391 . S
C940 H912 0.930 . S
C940 C939 1.390 . S
C940 C941 1.392 . S
C941 H913 0.929 . S
C941 C938 1.391 . S
C941 C940 1.392 . S
N942 Co886 2.257 . S
N942 C939 1.391 . S
N942 C943 1.388 . S
C943 H914 0.930 . S
C943 C938 1.391 . S
C943 N942 1.388 . S
Co944 O946 2.143 1_545 S
Co944 O952 2.074 . S
Co944 O955 2.112 . S
Co944 O968 2.097 . S
Co944 N985 2.151 1_545 S
Co944 N993 2.214 . S
Co945 O946 2.160 1_545 S
Co945 O951 2.058 . S
Co945 O961 2.057 1_545 S
Co945 O976 2.037 . S
Co945 N980 2.145 . S
Co945 N1001 2.257 1_545 S
O946 Co944 2.143 1_565 S
O946 Co945 2.160 1_565 S
C947 O948 1.278 . S
C947 O955 1.193 1_565 S
O948 C947 1.278 . S
C949 O950 1.245 . S
C949 O961 1.232 . S
O950 C949 1.245 . S
O951 Co945 2.058 . S
O951 C977 1.269 . S
O952 Co944 2.074 . S
O952 C977 1.257 . S
H953 C978 0.930 . S
H954 C984 0.930 . S
O955 Co944 2.112 . S
O955 C947 1.193 1_545 S
H956 C988 0.929 . S
H957 C990 0.930 . S
H958 C991 0.930 . S
H959 C989 0.955 . S
H960 C992 0.928 . S
O961 Co945 2.057 1_565 S
O961 C949 1.232 . S
H962 C981 0.929 . S
H963 C982 0.929 1_565 S
H964 C994 0.931 . S
H965 C986 0.929 . S
H966 C995 0.930 . S
H967 C987 0.931 . S
O968 Co944 2.097 . S
O968 C996 1.214 . S
H969 C997 0.929 . S
H970 C998 0.929 . S
H971 C999 0.930 . S
H972 C1000 0.929 . S
H973 C1002 0.930 . S
H974 C979 0.930 . S
H975 C983 0.930 . S
O976 Co945 2.037 . S
O976 C996 1.234 . S
C977 O951 1.269 . S
C977 O952 1.257 . S
C978 H953 0.930 . S
C978 C981 1.388 . S
C978 C983 1.418 . S
C979 H974 0.930 . S
C979 C982 1.404 . S
C979 C983 1.353 . S
N980 Co945 2.145 . S
N980 C981 1.397 . S
N980 C982 1.334 . S
C981 H962 0.929 . S
C981 C978 1.388 . S
C981 N980 1.397 . S
C982 H963 0.929 1_545 S
C982 C979 1.404 . S
C982 N980 1.334 . S
C983 H975 0.930 . S
C983 C978 1.418 . S
C983 C979 1.353 . S
C984 H954 0.930 . S
C984 N985 1.330 . S
C984 C986 1.446 . S
N985 Co944 2.151 1_565 S
N985 C984 1.330 . S
N985 C989 1.407 1_565 S
C986 H965 0.929 . S
C986 C984 1.446 . S
C986 C987 1.332 . S
C987 H967 0.931 . S
C987 C986 1.332 . S
C987 C988 1.267 . S
C988 H956 0.929 . S
C988 C987 1.267 . S
C988 C989 1.237 1_565 S
C989 H959 0.955 . S
C989 N985 1.407 1_545 S
C989 C988 1.237 1_545 S
C990 H957 0.930 . S
C990 C992 1.406 . S
C990 C995 1.261 . S
C991 H958 0.930 . S
C991 N993 1.325 . S
C991 C994 1.357 . S
C992 H960 0.928 . S
C992 C990 1.406 . S
C992 N993 1.261 . S
N993 Co944 2.214 . S
N993 C991 1.325 . S
N993 C992 1.261 . S
C994 H964 0.931 . S
C994 C991 1.357 . S
C994 C995 1.312 . S
C995 H966 0.930 . S
C995 C990 1.261 . S
C995 C994 1.312 . S
C996 O968 1.214 . S
C996 O976 1.234 . S
C997 H969 0.929 . S
C997 C1000 1.391 . S
C997 C1002 1.391 . S
C998 H970 0.929 . S
C998 C999 1.390 . S
C998 N1001 1.391 1_545 S
C999 H971 0.930 . S
C999 C998 1.390 . S
C999 C1000 1.392 1_545 S
C1000 H972 0.929 . S
C1000 C997 1.391 . S
C1000 C999 1.392 1_565 S
N1001 Co945 2.257 1_565 S
N1001 C998 1.391 1_565 S
N1001 C1002 1.388 . S
C1002 H973 0.930 . S
C1002 C997 1.391 . S
C1002 N1001 1.388 . S
Co1003 O1005 2.143 . S
Co1003 O1011 2.074 . S
Co1003 O1014 2.093 . S
Co1003 O1027 2.097 . S
Co1003 N1044 2.151 . S
Co1003 N1052 2.214 . S
Co1004 O1005 2.160 . S
Co1004 O1010 2.058 . S
Co1004 O1020 2.057 . S
Co1004 O1035 2.037 . S
Co1004 N1039 2.145 . S
Co1004 N1060 2.257 . S
O1005 Co1003 2.143 . S
O1005 Co1004 2.160 . S
C1006 O1007 1.278 . S
C1006 O1014 1.224 . S
O1007 C1006 1.278 . S
C1008 O1009 1.245 . S
C1008 O1020 1.232 . S
O1009 C1008 1.245 . S
O1010 Co1004 2.058 . S
O1010 C1036 1.269 . S
O1011 Co1003 2.074 . S
O1011 C1036 1.257 . S
H1012 C1037 0.930 . S
H1013 C1043 0.930 . S
O1014 Co1003 2.093 . S
O1014 C1006 1.224 . S
H1015 C1047 0.929 . S
H1016 C1049 0.930 . S
H1017 C1050 0.930 . S
H1018 C1048 0.929 . S
H1019 C1051 0.928 . S
O1020 Co1004 2.057 . S
O1020 C1008 1.232 . S
H1021 C1040 0.929 . S
H1022 C1041 0.929 . S
H1023 C1053 0.931 . S
H1024 C1045 0.929 . S
H1025 C1054 0.930 . S
H1026 C1046 0.931 . S
O1027 Co1003 2.097 . S
O1027 C1055 1.214 . S
H1028 C1056 0.929 . S
H1029 C1057 0.929 . S
H1030 C1058 0.930 . S
H1031 C1059 0.929 . S
H1032 C1061 0.930 . S
H1033 C1038 0.930 . S
H1034 C1042 0.930 . S
O1035 Co1004 2.037 . S
O1035 C1055 1.234 . S
C1036 O1010 1.269 . S
C1036 O1011 1.257 . S
C1037 H1012 0.930 . S
C1037 C1040 1.388 . S
C1037 C1042 1.418 . S
C1038 H1033 0.930 . S
C1038 C1041 1.404 . S
C1038 C1042 1.353 . S
N1039 Co1004 2.145 . S
N1039 C1040 1.397 . S
N1039 C1041 1.334 . S
C1040 H1021 0.929 . S
C1040 C1037 1.388 . S
C1040 N1039 1.397 . S
C1041 H1022 0.929 . S
C1041 C1038 1.404 . S
C1041 N1039 1.334 . S
C1042 H1034 0.930 . S
C1042 C1037 1.418 . S
C1042 C1038 1.353 . S
C1043 H1013 0.930 . S
C1043 N1044 1.330 . S
C1043 C1045 1.446 . S
N1044 Co1003 2.151 . S
N1044 C1043 1.330 . S
N1044 C1048 1.418 . S
C1045 H1024 0.929 . S
C1045 C1043 1.446 . S
C1045 C1046 1.332 . S
C1046 H1026 0.931 . S
C1046 C1045 1.332 . S
C1046 C1047 1.267 . S
C1047 H1015 0.929 . S
C1047 C1046 1.267 . S
C1047 C1048 1.251 . S
C1048 H1018 0.929 . S
C1048 N1044 1.418 . S
C1048 C1047 1.251 . S
C1049 H1016 0.930 . S
C1049 C1051 1.406 . S
C1049 C1054 1.261 . S
C1050 H1017 0.930 . S
C1050 N1052 1.325 . S
C1050 C1053 1.357 . S
C1051 H1019 0.928 . S
C1051 C1049 1.406 . S
C1051 N1052 1.261 . S
N1052 Co1003 2.214 . S
N1052 C1050 1.325 . S
N1052 C1051 1.261 . S
C1053 H1023 0.931 . S
C1053 C1050 1.357 . S
C1053 C1054 1.312 . S
C1054 H1025 0.930 . S
C1054 C1049 1.261 . S
C1054 C1053 1.312 . S
C1055 O1027 1.214 . S
C1055 O1035 1.234 . S
C1056 H1028 0.929 . S
C1056 C1059 1.391 . S
C1056 C1061 1.391 . S
C1057 H1029 0.929 . S
C1057 C1058 1.390 . S
C1057 N1060 1.391 . S
C1058 H1030 0.930 . S
C1058 C1057 1.390 . S
C1058 C1059 1.392 . S
C1059 H1031 0.929 . S
C1059 C1056 1.391 . S
C1059 C1058 1.392 . S
N1060 Co1004 2.257 . S
N1060 C1057 1.391 . S
N1060 C1061 1.388 . S
C1061 H1032 0.930 . S
C1061 C1056 1.391 . S
C1061 N1060 1.388 . S
Co1062 O1064 2.143 . S
Co1062 O1070 2.074 . S
Co1062 O1073 2.093 . S
Co1062 O1086 2.097 . S
Co1062 N1103 2.151 . S
Co1062 N1111 2.214 . S
Co1063 O1064 2.160 . S
Co1063 O1069 2.058 . S
Co1063 O1079 2.057 . S
Co1063 O1094 2.037 . S
Co1063 N1098 2.145 . S
Co1063 N1119 2.257 . S
O1064 Co1062 2.143 . S
O1064 Co1063 2.160 . S
C1065 O1066 1.278 . S
C1065 O1073 1.224 . S
O1066 C1065 1.278 . S
C1067 O1068 1.245 . S
C1067 O1079 1.232 . S
O1068 C1067 1.245 . S
O1069 Co1063 2.058 . S
O1069 C1095 1.269 . S
O1070 Co1062 2.074 . S
O1070 C1095 1.257 . S
H1071 C1096 0.930 . S
H1072 C1102 0.930 . S
O1073 Co1062 2.093 . S
O1073 C1065 1.224 . S
H1074 C1106 0.929 . S
H1075 C1108 0.930 . S
H1076 C1109 0.930 . S
H1077 C1107 0.929 . S
H1078 C1110 0.928 . S
O1079 Co1063 2.057 . S
O1079 C1067 1.232 . S
H1080 C1099 0.929 . S
H1081 C1100 0.929 . S
H1082 C1112 0.931 . S
H1083 C1104 0.929 . S
H1084 C1113 0.930 . S
H1085 C1105 0.931 . S
O1086 Co1062 2.097 . S
O1086 C1114 1.214 . S
H1087 C1115 0.929 . S
H1088 C1116 0.929 . S
H1089 C1117 0.930 . S
H1090 C1118 0.929 . S
H1091 C1120 0.930 . S
H1092 C1097 0.930 . S
H1093 C1101 0.930 . S
O1094 Co1063 2.037 . S
O1094 C1114 1.234 . S
C1095 O1069 1.269 . S
C1095 O1070 1.257 . S
C1096 H1071 0.930 . S
C1096 C1099 1.388 . S
C1096 C1101 1.418 . S
C1097 H1092 0.930 . S
C1097 C1100 1.404 . S
C1097 C1101 1.353 . S
N1098 Co1063 2.145 . S
N1098 C1099 1.397 . S
N1098 C1100 1.334 . S
C1099 H1080 0.929 . S
C1099 C1096 1.388 . S
C1099 N1098 1.397 . S
C1100 H1081 0.929 . S
C1100 C1097 1.404 . S
C1100 N1098 1.334 . S
C1101 H1093 0.930 . S
C1101 C1096 1.418 . S
C1101 C1097 1.353 . S
C1102 H1072 0.930 . S
C1102 N1103 1.330 . S
C1102 C1104 1.446 . S
N1103 Co1062 2.151 . S
N1103 C1102 1.330 . S
N1103 C1107 1.418 . S
C1104 H1083 0.929 . S
C1104 C1102 1.446 . S
C1104 C1105 1.332 . S
C1105 H1085 0.931 . S
C1105 C1104 1.332 . S
C1105 C1106 1.267 . S
C1106 H1074 0.929 . S
C1106 C1105 1.267 . S
C1106 C1107 1.251 . S
C1107 H1077 0.929 . S
C1107 N1103 1.418 . S
C1107 C1106 1.251 . S
C1108 H1075 0.930 . S
C1108 C1110 1.406 . S
C1108 C1113 1.261 . S
C1109 H1076 0.930 . S
C1109 N1111 1.325 . S
C1109 C1112 1.357 . S
C1110 H1078 0.928 . S
C1110 C1108 1.406 . S
C1110 N1111 1.261 . S
N1111 Co1062 2.214 . S
N1111 C1109 1.325 . S
N1111 C1110 1.261 . S
C1112 H1082 0.931 . S
C1112 C1109 1.357 . S
C1112 C1113 1.312 . S
C1113 H1084 0.930 . S
C1113 C1108 1.261 . S
C1113 C1112 1.312 . S
C1114 O1086 1.214 . S
C1114 O1094 1.234 . S
C1115 H1087 0.929 . S
C1115 C1118 1.391 . S
C1115 C1120 1.391 . S
C1116 H1088 0.929 . S
C1116 C1117 1.390 . S
C1116 N1119 1.391 . S
C1117 H1089 0.930 . S
C1117 C1116 1.390 . S
C1117 C1118 1.392 . S
C1118 H1090 0.929 . S
C1118 C1115 1.391 . S
C1118 C1117 1.392 . S
N1119 Co1063 2.257 . S
N1119 C1116 1.391 . S
N1119 C1120 1.388 . S
C1120 H1091 0.930 . S
C1120 C1115 1.391 . S
C1120 N1119 1.388 . S
Co1121 O1123 2.143 1_545 S
Co1121 O1129 2.074 . S
Co1121 O1132 2.093 1_545 S
Co1121 O1145 2.097 . S
Co1121 N1162 2.151 1_545 S
Co1121 N1170 2.214 . S
Co1122 O1123 2.160 1_545 S
Co1122 O1128 2.058 . S
Co1122 O1138 2.057 1_545 S
Co1122 O1153 2.037 . S
Co1122 N1157 2.145 . S
Co1122 N1178 2.257 1_545 S
O1123 Co1121 2.143 1_565 S
O1123 Co1122 2.160 1_565 S
C1124 O1125 1.278 . S
C1124 O1132 1.224 . S
O1125 C1124 1.278 . S
C1126 O1127 1.245 . S
C1126 O1138 1.232 . S
O1127 C1126 1.245 . S
O1128 Co1122 2.058 . S
O1128 C1154 1.269 . S
O1129 Co1121 2.074 . S
O1129 C1154 1.257 . S
H1130 C1155 0.930 . S
H1131 C1161 0.930 . S
O1132 Co1121 2.093 1_565 S
O1132 C1124 1.224 . S
H1133 C1165 0.929 . S
H1134 C1167 0.930 . S
H1135 C1168 0.930 . S
H1136 C1166 0.929 . S
H1137 C1169 0.915 1_565 S
O1138 Co1122 2.057 1_565 S
O1138 C1126 1.232 . S
H1139 C1158 0.929 . S
H1140 C1159 0.929 . S
H1141 C1171 0.931 . S
H1142 C1163 0.929 . S
H1143 C1172 0.930 . S
H1144 C1164 0.931 . S
O1145 Co1121 2.097 . S
O1145 C1173 1.214 . S
H1146 C1174 0.929 . S
H1147 C1175 0.929 . S
H1148 C1176 0.930 . S
H1149 C1177 0.929 . S
H1150 C1179 0.930 . S
H1151 C1156 0.930 . S
H1152 C1160 0.930 . S
O1153 Co1122 2.037 . S
O1153 C1173 1.234 . S
C1154 O1128 1.269 . S
C1154 O1129 1.257 . S
C1155 H1130 0.930 . S
C1155 C1158 1.388 . S
C1155 C1160 1.418 . S
C1156 H1151 0.930 . S
C1156 C1159 1.404 . S
C1156 C1160 1.353 . S
N1157 Co1122 2.145 . S
N1157 C1158 1.397 . S
N1157 C1159 1.334 . S
C1158 H1139 0.929 . S
C1158 C1155 1.388 . S
C1158 N1157 1.397 . S
C1159 H1140 0.929 . S
C1159 C1156 1.404 . S
C1159 N1157 1.334 . S
C1160 H1152 0.930 . S
C1160 C1155 1.418 . S
C1160 C1156 1.353 . S
C1161 H1131 0.930 . S
C1161 N1162 1.330 . S
C1161 C1163 1.446 . S
N1162 Co1121 2.151 1_565 S
N1162 C1161 1.330 . S
N1162 C1166 1.418 1_565 S
C1163 H1142 0.929 . S
C1163 C1161 1.446 . S
C1163 C1164 1.332 . S
C1164 H1144 0.931 . S
C1164 C1163 1.332 . S
C1164 C1165 1.267 1_565 S
C1165 H1133 0.929 . S
C1165 C1164 1.267 1_545 S
C1165 C1166 1.251 . S
C1166 H1136 0.929 . S
C1166 N1162 1.418 1_545 S
C1166 C1165 1.251 . S
C1167 H1134 0.930 . S
C1167 C1169 1.406 . S
C1167 C1172 1.261 . S
C1168 H1135 0.930 . S
C1168 N1170 1.325 . S
C1168 C1171 1.357 . S
C1169 H1137 0.915 1_545 S
C1169 C1167 1.406 . S
C1169 N1170 1.261 . S
N1170 Co1121 2.214 . S
N1170 C1168 1.325 . S
N1170 C1169 1.261 . S
C1171 H1141 0.931 . S
C1171 C1168 1.357 . S
C1171 C1172 1.312 . S
C1172 H1143 0.930 . S
C1172 C1167 1.261 . S
C1172 C1171 1.312 . S
C1173 O1145 1.214 . S
C1173 O1153 1.234 . S
C1174 H1146 0.929 . S
C1174 C1177 1.391 . S
C1174 C1179 1.391 . S
C1175 H1147 0.929 . S
C1175 C1176 1.390 1_545 S
C1175 N1178 1.391 1_545 S
C1176 H1148 0.930 . S
C1176 C1175 1.390 1_565 S
C1176 C1177 1.392 . S
C1177 H1149 0.929 . S
C1177 C1174 1.391 . S
C1177 C1176 1.392 . S
N1178 Co1122 2.257 1_565 S
N1178 C1175 1.391 1_565 S
N1178 C1179 1.388 . S
C1179 H1150 0.930 . S
C1179 C1174 1.391 . S
C1179 N1178 1.388 . S
Co1180 O1182 2.143 1_554 S
Co1180 O1188 2.074 . S
Co1180 O1191 2.093 . S
Co1180 O1204 2.097 . S
Co1180 N1221 2.151 1_554 S
Co1180 N1229 2.214 . S
Co1181 O1182 2.160 1_554 S
Co1181 O1187 2.058 . S
Co1181 O1197 2.057 1_554 S
Co1181 O1212 2.037 . S
Co1181 N1216 2.145 . S
Co1181 N1237 2.257 1_554 S
O1182 Co1180 2.143 1_556 S
O1182 Co1181 2.160 1_556 S
C1183 O1184 1.278 . S
C1183 O1191 1.224 1_556 S
O1184 C1183 1.278 . S
C1185 O1186 1.245 . S
C1185 O1197 1.232 . S
O1186 C1185 1.245 . S
O1187 Co1181 2.058 . S
O1187 C1213 1.269 . S
O1188 Co1180 2.074 . S
O1188 C1213 1.257 . S
H1189 C1214 0.930 . S
H1190 C1220 0.930 . S
O1191 Co1180 2.093 . S
O1191 C1183 1.224 1_554 S
H1192 C1224 0.929 1_554 S
H1193 C1226 0.930 . S
H1194 C1227 0.930 . S
H1195 C1225 0.929 . S
H1196 C1228 0.928 . S
O1197 Co1181 2.057 1_556 S
O1197 C1185 1.232 . S
H1198 C1217 0.929 . S
H1199 C1218 0.929 1_556 S
H1200 C1230 0.931 . S
H1201 C1222 0.929 . S
H1202 C1231 0.930 . S
H1203 C1223 0.931 . S
O1204 Co1180 2.097 . S
O1204 C1232 1.214 . S
H1205 C1233 0.929 . S
H1206 C1234 0.929 . S
H1207 C1235 0.930 . S
H1208 C1236 0.929 . S
H1209 C1238 0.930 . S
H1210 C1215 0.930 1_556 S
H1211 C1219 0.930 . S
O1212 Co1181 2.037 . S
O1212 C1232 1.234 . S
C1213 O1187 1.269 . S
C1213 O1188 1.257 . S
C1214 H1189 0.930 . S
C1214 C1217 1.388 . S
C1214 C1219 1.418 . S
C1215 H1210 0.930 1_554 S
C1215 C1218 1.404 . S
C1215 C1219 1.353 . S
N1216 Co1181 2.145 . S
N1216 C1217 1.397 . S
N1216 C1218 1.334 . S
C1217 H1198 0.929 . S
C1217 C1214 1.388 . S
C1217 N1216 1.397 . S
C1218 H1199 0.929 1_554 S
C1218 C1215 1.404 . S
C1218 N1216 1.334 . S
C1219 H1211 0.930 . S
C1219 C1214 1.418 . S
C1219 C1215 1.353 . S
C1220 H1190 0.930 . S
C1220 N1221 1.329 . S
C1220 C1222 1.446 . S
N1221 Co1180 2.151 1_556 S
N1221 C1220 1.329 . S
N1221 C1225 1.418 1_556 S
C1222 H1201 0.929 . S
C1222 C1220 1.446 . S
C1222 C1223 1.332 . S
C1223 H1203 0.931 . S
C1223 C1222 1.332 . S
C1223 C1224 1.267 . S
C1224 H1192 0.929 1_556 S
C1224 C1223 1.267 . S
C1224 C1225 1.251 1_556 S
C1225 H1195 0.929 . S
C1225 N1221 1.418 1_554 S
C1225 C1224 1.251 1_554 S
C1226 H1193 0.930 . S
C1226 C1228 1.406 . S
C1226 C1231 1.261 . S
C1227 H1194 0.930 . S
C1227 N1229 1.325 . S
C1227 C1230 1.357 . S
C1228 H1196 0.928 . S
C1228 C1226 1.406 . S
C1228 N1229 1.261 . S
N1229 Co1180 2.214 . S
N1229 C1227 1.325 . S
N1229 C1228 1.261 . S
C1230 H1200 0.931 . S
C1230 C1227 1.357 . S
C1230 C1231 1.312 . S
C1231 H1202 0.930 . S
C1231 C1226 1.261 . S
C1231 C1230 1.312 . S
C1232 O1204 1.214 . S
C1232 O1212 1.234 . S
C1233 H1205 0.929 . S
C1233 C1236 1.391 . S
C1233 C1238 1.391 . S
C1234 H1206 0.929 . S
C1234 C1235 1.390 . S
C1234 N1237 1.391 1_554 S
C1235 H1207 0.930 . S
C1235 C1234 1.390 . S
C1235 C1236 1.392 1_554 S
C1236 H1208 0.929 . S
C1236 C1233 1.391 . S
C1236 C1235 1.392 1_556 S
N1237 Co1181 2.257 1_556 S
N1237 C1234 1.391 1_556 S
N1237 C1238 1.388 . S
C1238 H1209 0.930 . S
C1238 C1233 1.391 . S
C1238 N1237 1.388 . S
Co1239 O1241 2.143 . S
Co1239 O1247 2.074 . S
Co1239 O1250 2.093 . S
Co1239 O1263 2.097 . S
Co1239 N1280 2.151 . S
Co1239 N1288 2.214 . S
Co1240 O1241 2.160 . S
Co1240 O1246 2.058 . S
Co1240 O1256 2.057 . S
Co1240 O1271 2.037 . S
Co1240 N1275 2.145 . S
Co1240 N1296 2.257 . S
O1241 Co1239 2.143 . S
O1241 Co1240 2.160 . S
C1242 O1243 1.278 . S
C1242 O1250 1.224 . S
O1243 C1242 1.278 . S
C1244 O1245 1.245 . S
C1244 O1256 1.232 . S
O1245 C1244 1.245 . S
O1246 Co1240 2.058 . S
O1246 C1272 1.269 . S
O1247 Co1239 2.074 . S
O1247 C1272 1.257 . S
H1248 C1273 0.930 . S
H1249 C1279 0.930 . S
O1250 Co1239 2.093 . S
O1250 C1242 1.224 . S
H1251 C1283 0.929 . S
H1252 C1285 0.930 . S
H1253 C1286 0.930 . S
H1254 C1284 0.929 . S
H1255 C1287 0.928 . S
O1256 Co1240 2.057 . S
O1256 C1244 1.232 . S
H1257 C1276 0.929 . S
H1258 C1277 0.929 . S
H1259 C1289 0.931 . S
H1260 C1281 0.929 . S
H1261 C1290 0.930 . S
H1262 C1282 0.931 . S
O1263 Co1239 2.097 . S
O1263 C1291 1.214 . S
H1264 C1292 0.929 . S
H1265 C1293 0.929 . S
H1266 C1294 0.930 . S
H1267 C1295 0.929 . S
H1268 C1297 0.930 . S
H1269 C1274 0.930 . S
H1270 C1278 0.930 1_455 S
O1271 Co1240 2.037 . S
O1271 C1291 1.234 . S
C1272 O1246 1.269 . S
C1272 O1247 1.257 . S
C1273 H1248 0.930 . S
C1273 C1276 1.388 . S
C1273 C1278 1.418 . S
C1274 H1269 0.930 . S
C1274 C1277 1.404 . S
C1274 C1278 1.353 . S
N1275 Co1240 2.145 . S
N1275 C1276 1.397 . S
N1275 C1277 1.334 . S
C1276 H1257 0.929 . S
C1276 C1273 1.388 . S
C1276 N1275 1.397 . S
C1277 H1258 0.929 . S
C1277 C1274 1.404 . S
C1277 N1275 1.334 . S
C1278 H1270 0.930 1_655 S
C1278 C1273 1.418 . S
C1278 C1274 1.353 . S
C1279 H1249 0.930 . S
C1279 N1280 1.330 . S
C1279 C1281 1.446 . S
N1280 Co1239 2.151 . S
N1280 C1279 1.330 . S
N1280 C1284 1.418 . S
C1281 H1260 0.929 . S
C1281 C1279 1.446 . S
C1281 C1282 1.332 . S
C1282 H1262 0.931 . S
C1282 C1281 1.332 . S
C1282 C1283 1.267 . S
C1283 H1251 0.929 . S
C1283 C1282 1.267 . S
C1283 C1284 1.251 . S
C1284 H1254 0.929 . S
C1284 N1280 1.418 . S
C1284 C1283 1.251 . S
C1285 H1252 0.930 . S
C1285 C1287 1.406 . S
C1285 C1290 1.261 . S
C1286 H1253 0.930 . S
C1286 N1288 1.325 . S
C1286 C1289 1.357 . S
C1287 H1255 0.928 . S
C1287 C1285 1.406 . S
C1287 N1288 1.261 . S
N1288 Co1239 2.214 . S
N1288 C1286 1.325 . S
N1288 C1287 1.261 . S
C1289 H1259 0.931 . S
C1289 C1286 1.357 . S
C1289 C1290 1.312 . S
C1290 H1261 0.930 . S
C1290 C1285 1.261 . S
C1290 C1289 1.312 . S
C1291 O1263 1.214 . S
C1291 O1271 1.234 . S
C1292 H1264 0.929 . S
C1292 C1295 1.391 . S
C1292 C1297 1.391 . S
C1293 H1265 0.929 . S
C1293 C1294 1.390 . S
C1293 N1296 1.391 . S
C1294 H1266 0.930 . S
C1294 C1293 1.390 . S
C1294 C1295 1.392 . S
C1295 H1267 0.929 . S
C1295 C1292 1.391 . S
C1295 C1294 1.392 . S
N1296 Co1240 2.257 . S
N1296 C1293 1.391 . S
N1296 C1297 1.388 . S
C1297 H1268 0.930 . S
C1297 C1292 1.391 . S
C1297 N1296 1.388 . S
Co1298 O1300 2.143 . S
Co1298 O1306 2.074 . S
Co1298 O1309 2.093 . S
Co1298 O1322 2.097 . S
Co1298 N1339 2.151 . S
Co1298 N1347 2.214 . S
Co1299 O1300 2.160 . S
Co1299 O1305 2.058 . S
Co1299 O1315 2.057 . S
Co1299 O1330 2.037 . S
Co1299 N1334 2.145 . S
Co1299 N1355 2.257 . S
O1300 Co1298 2.143 . S
O1300 Co1299 2.160 . S
C1301 O1302 1.278 . S
C1301 O1309 1.224 . S
O1302 C1301 1.278 . S
C1303 O1304 1.245 . S
C1303 O1315 1.232 . S
O1304 C1303 1.245 . S
O1305 Co1299 2.058 . S
O1305 C1331 1.269 . S
O1306 Co1298 2.074 . S
O1306 C1331 1.257 . S
H1307 C1332 0.930 . S
H1308 C1338 0.930 . S
O1309 Co1298 2.093 . S
O1309 C1301 1.224 . S
H1310 C1342 0.929 . S
H1311 C1344 0.930 . S
H1312 C1345 0.930 . S
H1313 C1343 0.929 . S
H1314 C1346 0.928 . S
O1315 Co1299 2.057 . S
O1315 C1303 1.232 . S
H1316 C1335 0.929 . S
H1317 C1336 0.929 . S
H1318 C1348 0.931 . S
H1319 C1340 0.929 . S
H1320 C1349 0.930 . S
H1321 C1341 0.931 . S
O1322 Co1298 2.097 . S
O1322 C1350 1.214 . S
H1323 C1351 0.929 . S
H1324 C1352 0.929 . S
H1325 C1353 0.930 . S
H1326 C1354 0.929 . S
H1327 C1356 0.930 . S
H1328 C1333 0.930 . S
H1329 C1337 0.930 . S
O1330 Co1299 2.037 . S
O1330 C1350 1.234 . S
C1331 O1305 1.269 . S
C1331 O1306 1.257 . S
C1332 H1307 0.930 . S
C1332 C1335 1.388 . S
C1332 C1337 1.418 . S
C1333 H1328 0.930 . S
C1333 C1336 1.404 . S
C1333 C1337 1.353 . S
N1334 Co1299 2.145 . S
N1334 C1335 1.397 . S
N1334 C1336 1.334 . S
C1335 H1316 0.929 . S
C1335 C1332 1.388 . S
C1335 N1334 1.397 . S
C1336 H1317 0.929 . S
C1336 C1333 1.404 . S
C1336 N1334 1.334 . S
C1337 H1329 0.930 . S
C1337 C1332 1.418 . S
C1337 C1333 1.353 . S
C1338 H1308 0.930 . S
C1338 N1339 1.330 . S
C1338 C1340 1.446 . S
N1339 Co1298 2.151 . S
N1339 C1338 1.330 . S
N1339 C1343 1.418 . S
C1340 H1319 0.929 . S
C1340 C1338 1.446 . S
C1340 C1341 1.332 . S
C1341 H1321 0.931 . S
C1341 C1340 1.332 . S
C1341 C1342 1.267 . S
C1342 H1310 0.929 . S
C1342 C1341 1.267 . S
C1342 C1343 1.251 . S
C1343 H1313 0.929 . S
C1343 N1339 1.418 . S
C1343 C1342 1.251 . S
C1344 H1311 0.930 . S
C1344 C1346 1.406 . S
C1344 C1349 1.261 . S
C1345 H1312 0.930 . S
C1345 N1347 1.325 . S
C1345 C1348 1.357 . S
C1346 H1314 0.928 . S
C1346 C1344 1.406 . S
C1346 N1347 1.261 . S
N1347 Co1298 2.214 . S
N1347 C1345 1.325 . S
N1347 C1346 1.261 . S
C1348 H1318 0.931 . S
C1348 C1345 1.357 . S
C1348 C1349 1.312 . S
C1349 H1320 0.930 . S
C1349 C1344 1.261 . S
C1349 C1348 1.312 . S
C1350 O1322 1.214 . S
C1350 O1330 1.234 . S
C1351 H1323 0.929 . S
C1351 C1354 1.391 . S
C1351 C1356 1.391 . S
C1352 H1324 0.929 . S
C1352 C1353 1.390 . S
C1352 N1355 1.391 . S
C1353 H1325 0.930 . S
C1353 C1352 1.390 . S
C1353 C1354 1.392 . S
C1354 H1326 0.929 . S
C1354 C1351 1.391 . S
C1354 C1353 1.392 . S
N1355 Co1299 2.257 . S
N1355 C1352 1.391 . S
N1355 C1356 1.388 . S
C1356 H1327 0.930 . S
C1356 C1351 1.391 . S
C1356 N1355 1.388 . S
Co1357 O1359 2.143 . S
Co1357 O1365 2.074 . S
Co1357 O1368 2.093 . S
Co1357 O1381 2.097 . S
Co1357 N1398 2.151 . S
Co1357 N1406 2.214 . S
Co1358 O1359 2.160 . S
Co1358 O1364 2.058 . S
Co1358 O1374 2.057 . S
Co1358 O1389 2.037 . S
Co1358 N1393 2.145 . S
Co1358 N1414 2.257 . S
O1359 Co1357 2.143 . S
O1359 Co1358 2.160 . S
C1360 O1361 1.278 . S
C1360 O1368 1.224 . S
O1361 C1360 1.278 . S
C1362 O1363 1.245 . S
C1362 O1374 1.232 . S
O1363 C1362 1.245 . S
O1364 Co1358 2.058 . S
O1364 C1390 1.269 . S
O1365 Co1357 2.074 . S
O1365 C1390 1.257 . S
H1366 C1391 0.930 . S
H1367 C1397 0.930 . S
O1368 Co1357 2.093 . S
O1368 C1360 1.224 . S
H1369 C1401 0.929 . S
H1370 C1403 0.930 . S
H1371 C1404 0.930 . S
H1372 C1402 0.929 . S
H1373 C1405 0.928 . S
O1374 Co1358 2.057 . S
O1374 C1362 1.232 . S
H1375 C1394 0.929 . S
H1376 C1395 0.929 . S
H1377 C1407 0.931 . S
H1378 C1399 0.929 . S
H1379 C1408 0.930 . S
H1380 C1400 0.931 . S
O1381 Co1357 2.097 . S
O1381 C1409 1.214 . S
H1382 C1410 0.929 . S
H1383 C1411 0.929 . S
H1384 C1412 0.930 . S
H1385 C1413 0.929 . S
H1386 C1415 0.930 . S
H1387 C1392 0.930 . S
H1388 C1396 0.930 . S
O1389 Co1358 2.037 . S
O1389 C1409 1.234 . S
C1390 O1364 1.269 . S
C1390 O1365 1.257 . S
C1391 H1366 0.930 . S
C1391 C1394 1.388 . S
C1391 C1396 1.418 . S
C1392 H1387 0.930 . S
C1392 C1395 1.404 . S
C1392 C1396 1.353 . S
N1393 Co1358 2.145 . S
N1393 C1394 1.397 . S
N1393 C1395 1.334 . S
C1394 H1375 0.929 . S
C1394 C1391 1.388 . S
C1394 N1393 1.397 . S
C1395 H1376 0.929 . S
C1395 C1392 1.404 . S
C1395 N1393 1.334 . S
C1396 H1388 0.930 . S
C1396 C1391 1.418 . S
C1396 C1392 1.353 . S
C1397 H1367 0.930 . S
C1397 N1398 1.330 . S
C1397 C1399 1.446 . S
N1398 Co1357 2.151 . S
N1398 C1397 1.330 . S
N1398 C1402 1.418 . S
C1399 H1378 0.929 . S
C1399 C1397 1.446 . S
C1399 C1400 1.332 . S
C1400 H1380 0.931 . S
C1400 C1399 1.332 . S
C1400 C1401 1.267 . S
C1401 H1369 0.929 . S
C1401 C1400 1.267 . S
C1401 C1402 1.251 . S
C1402 H1372 0.929 . S
C1402 N1398 1.418 . S
C1402 C1401 1.251 . S
C1403 H1370 0.930 . S
C1403 C1405 1.406 . S
C1403 C1408 1.261 . S
C1404 H1371 0.930 . S
C1404 N1406 1.325 . S
C1404 C1407 1.357 . S
C1405 H1373 0.928 . S
C1405 C1403 1.406 . S
C1405 N1406 1.261 . S
N1406 Co1357 2.214 . S
N1406 C1404 1.325 . S
N1406 C1405 1.261 . S
C1407 H1377 0.931 . S
C1407 C1404 1.357 . S
C1407 C1408 1.312 . S
C1408 H1379 0.930 . S
C1408 C1403 1.261 . S
C1408 C1407 1.312 . S
C1409 O1381 1.214 . S
C1409 O1389 1.234 . S
C1410 H1382 0.929 . S
C1410 C1413 1.391 . S
C1410 C1415 1.391 . S
C1411 H1383 0.929 . S
C1411 C1412 1.390 . S
C1411 N1414 1.391 . S
C1412 H1384 0.930 . S
C1412 C1411 1.390 . S
C1412 C1413 1.392 . S
C1413 H1385 0.929 . S
C1413 C1410 1.391 . S
C1413 C1412 1.392 . S
N1414 Co1358 2.257 . S
N1414 C1411 1.391 . S
N1414 C1415 1.388 . S
C1415 H1386 0.930 . S
C1415 C1410 1.391 . S
C1415 N1414 1.388 . S
H1416 C1422 0.930 . S
H1417 C1426 0.930 . S
H1418 C1431 0.929 . S
H1419 C1429 0.929 . S
H1420 C1424 0.929 . S
H1421 C1430 0.929 . S
C1422 H1416 0.930 . S
C1422 C1423 1.367 . S
C1422 C1430 1.378 . S
C1423 C1422 1.367 . S
C1423 C1431 1.433 . S
C1424 H1420 0.929 . S
C1424 C1426 1.378 . S
C1424 C1428 1.350 . S
C1425 C1428 1.463 . S
C1425 C1430 1.350 . S
C1425 N1433 1.427 . S
C1426 H1417 0.930 . S
C1426 C1424 1.378 . S
C1426 C1427 1.367 . S
C1427 C1426 1.367 . S
C1427 C1429 1.433 . S
C1428 C1424 1.350 . S
C1428 C1425 1.463 . S
C1428 N1432 1.427 . S
C1429 H1419 0.929 . S
C1429 C1427 1.433 . S
C1429 N1432 1.384 . S
C1430 H1421 0.929 . S
C1430 C1422 1.378 . S
C1430 C1425 1.350 . S
C1431 H1418 0.929 . S
C1431 C1423 1.433 . S
C1431 N1433 1.384 . S
N1432 C1428 1.427 . S
N1432 C1429 1.384 . S
N1433 C1425 1.427 . S
N1433 C1431 1.384 . S
H1434 C1440 0.930 . S
H1435 C1444 0.930 . S
H1436 C1449 0.929 . S
H1437 C1447 0.929 . S
H1438 C1442 0.929 . S
H1439 C1448 0.929 . S
C1440 H1434 0.930 . S
C1440 C1441 1.367 . S
C1440 C1448 1.378 . S
C1441 C1440 1.367 . S
C1441 C1449 1.433 . S
C1442 H1438 0.929 . S
C1442 C1444 1.378 . S
C1442 C1446 1.350 . S
C1443 C1446 1.463 . S
C1443 C1448 1.350 . S
C1443 N1451 1.427 . S
C1444 H1435 0.930 . S
C1444 C1442 1.378 . S
C1444 C1445 1.367 . S
C1445 C1444 1.367 . S
C1445 C1447 1.433 . S
C1446 C1442 1.350 . S
C1446 C1443 1.463 . S
C1446 N1450 1.427 . S
C1447 H1437 0.929 . S
C1447 C1445 1.433 . S
C1447 N1450 1.384 . S
C1448 H1439 0.929 . S
C1448 C1440 1.378 . S
C1448 C1443 1.350 . S
C1449 H1436 0.929 . S
C1449 C1441 1.433 . S
C1449 N1451 1.384 . S
N1450 C1446 1.427 . S
N1450 C1447 1.384 . S
N1451 C1443 1.427 . S
N1451 C1449 1.384 . S
H1452 C1458 0.930 . S
H1453 C1462 0.930 . S
H1454 C1467 0.929 . S
H1455 C1465 0.929 . S
H1456 C1460 0.929 . S
H1457 C1466 0.929 . S
C1458 H1452 0.930 . S
C1458 C1459 1.367 . S
C1458 C1466 1.378 . S
C1459 C1458 1.367 . S
C1459 C1467 1.433 . S
C1460 H1456 0.929 . S
C1460 C1462 1.378 . S
C1460 C1464 1.350 . S
C1461 C1464 1.463 . S
C1461 C1466 1.350 . S
C1461 N1469 1.427 . S
C1462 H1453 0.930 . S
C1462 C1460 1.378 . S
C1462 C1463 1.367 . S
C1463 C1462 1.367 . S
C1463 C1465 1.433 . S
C1464 C1460 1.350 . S
C1464 C1461 1.463 . S
C1464 N1468 1.427 . S
C1465 H1455 0.929 . S
C1465 C1463 1.433 . S
C1465 N1468 1.384 . S
C1466 H1457 0.929 . S
C1466 C1458 1.378 . S
C1466 C1461 1.350 . S
C1467 H1454 0.929 . S
C1467 C1459 1.433 . S
C1467 N1469 1.384 . S
N1468 C1464 1.427 . S
N1468 C1465 1.384 . S
N1469 C1461 1.427 . S
N1469 C1467 1.384 . S
H1470 C1476 0.930 . S
H1471 C1480 0.930 . S
H1472 C1485 0.929 . S
H1473 C1483 0.929 . S
H1474 C1478 0.929 . S
H1475 C1484 0.929 . S
C1476 H1470 0.930 . S
C1476 C1477 1.367 . S
C1476 C1484 1.378 . S
C1477 C1476 1.367 . S
C1477 C1485 1.433 . S
C1478 H1474 0.929 . S
C1478 C1480 1.378 . S
C1478 C1482 1.350 . S
C1479 C1482 1.463 . S
C1479 C1484 1.350 . S
C1479 N1487 1.427 . S
C1480 H1471 0.930 . S
C1480 C1478 1.378 . S
C1480 C1481 1.367 . S
C1481 C1480 1.367 . S
C1481 C1483 1.433 . S
C1482 C1478 1.350 . S
C1482 C1479 1.463 . S
C1482 N1486 1.427 . S
C1483 H1473 0.929 . S
C1483 C1481 1.433 . S
C1483 N1486 1.384 . S
C1484 H1475 0.929 . S
C1484 C1476 1.378 . S
C1484 C1479 1.350 . S
C1485 H1472 0.929 . S
C1485 C1477 1.433 . S
C1485 N1487 1.384 . S
N1486 C1482 1.427 . S
N1486 C1483 1.384 . S
N1487 C1479 1.427 . S
N1487 C1485 1.384 . S
H1488 C1494 0.930 . S
H1489 C1498 0.930 . S
H1490 C1503 0.929 . S
H1491 C1501 0.929 . S
H1492 C1496 0.929 . S
H1493 C1502 0.929 . S
C1494 H1488 0.930 . S
C1494 C1495 1.367 . S
C1494 C1502 1.378 . S
C1495 C1494 1.367 . S
C1495 C1503 1.433 . S
C1496 H1492 0.929 . S
C1496 C1498 1.378 . S
C1496 C1500 1.350 . S
C1497 C1500 1.463 . S
C1497 C1502 1.350 . S
C1497 N1505 1.427 . S
C1498 H1489 0.930 . S
C1498 C1496 1.378 . S
C1498 C1499 1.367 . S
C1499 C1498 1.367 . S
C1499 C1501 1.433 . S
C1500 C1496 1.350 . S
C1500 C1497 1.463 . S
C1500 N1504 1.427 . S
C1501 H1491 0.929 . S
C1501 C1499 1.433 . S
C1501 N1504 1.384 . S
C1502 H1493 0.929 . S
C1502 C1494 1.378 . S
C1502 C1497 1.350 . S
C1503 H1490 0.929 . S
C1503 C1495 1.433 . S
C1503 N1505 1.384 . S
N1504 C1500 1.427 . S
N1504 C1501 1.384 . S
N1505 C1497 1.427 . S
N1505 C1503 1.384 . S
H1506 C1512 0.930 . S
H1507 C1516 0.930 . S
H1508 C1521 0.929 . S
H1509 C1519 0.929 . S
H1510 C1514 0.929 . S
H1511 C1520 0.929 . S
C1512 H1506 0.930 . S
C1512 C1513 1.367 . S
C1512 C1520 1.378 . S
C1513 C1512 1.367 . S
C1513 C1521 1.433 . S
C1514 H1510 0.929 . S
C1514 C1516 1.378 . S
C1514 C1518 1.350 . S
C1515 C1518 1.463 . S
C1515 C1520 1.350 . S
C1515 N1523 1.427 . S
C1516 H1507 0.930 . S
C1516 C1514 1.378 . S
C1516 C1517 1.367 . S
C1517 C1516 1.367 . S
C1517 C1519 1.433 . S
C1518 C1514 1.350 . S
C1518 C1515 1.463 . S
C1518 N1522 1.427 . S
C1519 H1509 0.929 . S
C1519 C1517 1.433 . S
C1519 N1522 1.384 . S
C1520 H1511 0.929 . S
C1520 C1512 1.378 . S
C1520 C1515 1.350 . S
C1521 H1508 0.929 . S
C1521 C1513 1.433 . S
C1521 N1523 1.384 . S
N1522 C1518 1.427 . S
N1522 C1519 1.384 . S
N1523 C1515 1.427 . S
N1523 C1521 1.384 . S
H1524 C1530 0.930 . S
H1525 C1534 0.930 . S
H1526 C1539 0.929 . S
H1527 C1537 0.929 . S
H1528 C1532 0.929 . S
H1529 C1538 0.929 . S
C1530 H1524 0.930 . S
C1530 C1531 1.367 . S
C1530 C1538 1.378 . S
C1531 C1530 1.367 . S
C1531 C1539 1.433 . S
C1532 H1528 0.929 . S
C1532 C1534 1.378 . S
C1532 C1536 1.350 . S
C1533 C1536 1.463 . S
C1533 C1538 1.350 . S
C1533 N1541 1.427 . S
C1534 H1525 0.930 . S
C1534 C1532 1.378 . S
C1534 C1535 1.367 . S
C1535 C1534 1.367 . S
C1535 C1537 1.433 . S
C1536 C1532 1.350 . S
C1536 C1533 1.463 . S
C1536 N1540 1.427 . S
C1537 H1527 0.929 . S
C1537 C1535 1.433 . S
C1537 N1540 1.384 . S
C1538 H1529 0.929 . S
C1538 C1530 1.378 . S
C1538 C1533 1.350 . S
C1539 H1526 0.929 . S
C1539 C1531 1.433 . S
C1539 N1541 1.384 . S
N1540 C1536 1.427 . S
N1540 C1537 1.384 . S
N1541 C1533 1.427 . S
N1541 C1539 1.384 . S
H1542 C1548 0.930 . S
H1543 C1552 0.930 . S
H1544 C1557 0.929 . S
H1545 C1555 0.929 . S
H1546 C1550 0.929 . S
H1547 C1556 0.929 . S
C1548 H1542 0.930 . S
C1548 C1549 1.367 . S
C1548 C1556 1.378 . S
C1549 C1548 1.367 . S
C1549 C1557 1.433 . S
C1550 H1546 0.929 . S
C1550 C1552 1.378 . S
C1550 C1554 1.350 . S
C1551 C1554 1.463 . S
C1551 C1556 1.350 . S
C1551 N1559 1.427 . S
C1552 H1543 0.930 . S
C1552 C1550 1.378 . S
C1552 C1553 1.367 . S
C1553 C1552 1.367 . S
C1553 C1555 1.433 . S
C1554 C1550 1.350 . S
C1554 C1551 1.463 . S
C1554 N1558 1.427 . S
C1555 H1545 0.929 . S
C1555 C1553 1.433 . S
C1555 N1558 1.384 . S
C1556 H1547 0.929 . S
C1556 C1548 1.378 . S
C1556 C1551 1.350 . S
C1557 H1544 0.929 . S
C1557 C1549 1.433 . S
C1557 N1559 1.384 . S
N1558 C1554 1.427 . S
N1558 C1555 1.384 . S
N1559 C1551 1.427 . S
N1559 C1557 1.384 . S
H1560 C1566 0.930 . S
H1561 C1570 0.930 . S
H1562 C1575 0.929 . S
H1563 C1573 0.929 . S
H1564 C1568 0.929 . S
H1565 C1574 0.929 . S
C1566 H1560 0.930 . S
C1566 C1567 1.367 . S
C1566 C1574 1.378 . S
C1567 C1566 1.367 . S
C1567 C1575 1.433 . S
C1568 H1564 0.929 . S
C1568 C1570 1.378 . S
C1568 C1572 1.350 . S
C1569 C1572 1.463 . S
C1569 C1574 1.350 . S
C1569 N1577 1.427 . S
C1570 H1561 0.930 . S
C1570 C1568 1.378 . S
C1570 C1571 1.367 . S
C1571 C1570 1.367 . S
C1571 C1573 1.433 . S
C1572 C1568 1.350 . S
C1572 C1569 1.463 . S
C1572 N1576 1.427 . S
C1573 H1563 0.929 . S
C1573 C1571 1.433 . S
C1573 N1576 1.384 . S
C1574 H1565 0.929 . S
C1574 C1566 1.378 . S
C1574 C1569 1.350 . S
C1575 H1562 0.929 . S
C1575 C1567 1.433 . S
C1575 N1577 1.384 . S
N1576 C1572 1.427 . S
N1576 C1573 1.384 . S
N1577 C1569 1.427 . S
N1577 C1575 1.384 . S
H1578 C1584 0.930 . S
H1579 C1588 0.930 . S
H1580 C1593 0.929 . S
H1581 C1591 0.929 . S
H1582 C1586 0.929 . S
H1583 C1592 0.929 . S
C1584 H1578 0.930 . S
C1584 C1585 1.367 . S
C1584 C1592 1.378 . S
C1585 C1584 1.367 . S
C1585 C1593 1.433 . S
C1586 H1582 0.929 . S
C1586 C1588 1.378 . S
C1586 C1590 1.350 . S
C1587 C1590 1.463 . S
C1587 C1592 1.350 . S
C1587 N1595 1.427 . S
C1588 H1579 0.930 . S
C1588 C1586 1.378 . S
C1588 C1589 1.367 . S
C1589 C1588 1.367 . S
C1589 C1591 1.433 . S
C1590 C1586 1.350 . S
C1590 C1587 1.463 . S
C1590 N1594 1.427 . S
C1591 H1581 0.929 . S
C1591 C1589 1.433 . S
C1591 N1594 1.384 . S
C1592 H1583 0.929 . S
C1592 C1584 1.378 . S
C1592 C1587 1.350 . S
C1593 H1580 0.929 . S
C1593 C1585 1.433 . S
C1593 N1595 1.384 . S
N1594 C1590 1.427 . S
N1594 C1591 1.384 . S
N1595 C1587 1.427 . S
N1595 C1593 1.384 . S
H1596 C1602 0.930 . S
H1597 C1606 0.930 . S
H1598 C1611 0.929 . S
H1599 C1609 0.929 . S
H1600 C1604 0.929 . S
H1601 C1610 0.929 . S
C1602 H1596 0.930 . S
C1602 C1603 1.367 . S
C1602 C1610 1.378 . S
C1603 C1602 1.367 . S
C1603 C1611 1.433 . S
C1604 H1600 0.929 . S
C1604 C1606 1.378 . S
C1604 C1608 1.350 . S
C1605 C1608 1.463 . S
C1605 C1610 1.350 . S
C1605 N1613 1.427 . S
C1606 H1597 0.930 . S
C1606 C1604 1.378 . S
C1606 C1607 1.367 . S
C1607 C1606 1.367 . S
C1607 C1609 1.433 . S
C1608 C1604 1.350 . S
C1608 C1605 1.463 . S
C1608 N1612 1.427 . S
C1609 H1599 0.929 . S
C1609 C1607 1.433 . S
C1609 N1612 1.384 . S
C1610 H1601 0.929 . S
C1610 C1602 1.378 . S
C1610 C1605 1.350 . S
C1611 H1598 0.929 . S
C1611 C1603 1.433 . S
C1611 N1613 1.384 . S
N1612 C1608 1.427 . S
N1612 C1609 1.384 . S
N1613 C1605 1.427 . S
N1613 C1611 1.384 . S
H1614 C1620 0.930 . S
H1615 C1624 0.897 1_545 S
H1616 C1629 0.929 . S
H1617 C1627 0.929 . S
H1618 C1622 0.929 . S
H1619 C1628 0.929 . S
C1620 H1614 0.930 . S
C1620 C1621 1.367 . S
C1620 C1628 1.378 . S
C1621 C1620 1.367 . S
C1621 C1629 1.433 . S
C1622 H1618 0.929 . S
C1622 C1624 1.378 . S
C1622 C1626 1.350 . S
C1623 C1626 1.463 . S
C1623 C1628 1.350 . S
C1623 N1631 1.427 . S
C1624 H1615 0.897 1_565 S
C1624 C1622 1.378 . S
C1624 C1625 1.367 . S
C1625 C1624 1.367 . S
C1625 C1627 1.433 . S
C1626 C1622 1.350 . S
C1626 C1623 1.463 . S
C1626 N1630 1.427 . S
C1627 H1617 0.929 . S
C1627 C1625 1.433 . S
C1627 N1630 1.384 . S
C1628 H1619 0.929 . S
C1628 C1620 1.378 . S
C1628 C1623 1.350 . S
C1629 H1616 0.929 . S
C1629 C1621 1.433 . S
C1629 N1631 1.384 . S
N1630 C1626 1.427 . S
N1630 C1627 1.384 . S
N1631 C1623 1.427 . S
N1631 C1629 1.384 . S
H1632 C1638 0.930 . S
H1633 C1642 0.930 . S
H1634 C1647 0.929 . S
H1635 C1645 0.929 . S
H1636 C1640 0.929 . S
H1637 C1646 0.929 . S
C1638 H1632 0.930 . S
C1638 C1639 1.367 . S
C1638 C1646 1.378 . S
C1639 C1638 1.367 . S
C1639 C1647 1.433 . S
C1640 H1636 0.929 . S
C1640 C1642 1.378 . S
C1640 C1644 1.350 . S
C1641 C1644 1.463 . S
C1641 C1646 1.350 . S
C1641 N1649 1.427 . S
C1642 H1633 0.930 . S
C1642 C1640 1.378 . S
C1642 C1643 1.367 . S
C1643 C1642 1.367 . S
C1643 C1645 1.433 . S
C1644 C1640 1.350 . S
C1644 C1641 1.463 . S
C1644 N1648 1.427 . S
C1645 H1635 0.929 . S
C1645 C1643 1.433 . S
C1645 N1648 1.384 . S
C1646 H1637 0.929 . S
C1646 C1638 1.378 . S
C1646 C1641 1.350 . S
C1647 H1634 0.929 . S
C1647 C1639 1.433 . S
C1647 N1649 1.384 . S
N1648 C1644 1.427 . S
N1648 C1645 1.384 . S
N1649 C1641 1.427 . S
N1649 C1647 1.384 . S
H1650 C1656 0.930 . S
H1651 C1660 0.930 . S
H1652 C1665 0.929 1_455 S
H1653 C1663 0.929 . S
H1654 C1658 0.929 . S
H1655 C1664 0.929 . S
C1656 H1650 0.930 . S
C1656 C1657 1.367 . S
C1656 C1664 1.378 . S
C1657 C1656 1.367 . S
C1657 C1665 1.433 . S
C1658 H1654 0.929 . S
C1658 C1660 1.378 . S
C1658 C1662 1.350 . S
C1659 C1662 1.463 . S
C1659 C1664 1.350 . S
C1659 N1667 1.427 . S
C1660 H1651 0.930 . S
C1660 C1658 1.378 . S
C1660 C1661 1.367 . S
C1661 C1660 1.367 . S
C1661 C1663 1.433 . S
C1662 C1658 1.350 . S
C1662 C1659 1.463 . S
C1662 N1666 1.427 . S
C1663 H1653 0.929 . S
C1663 C1661 1.433 . S
C1663 N1666 1.384 . S
C1664 H1655 0.929 . S
C1664 C1656 1.378 . S
C1664 C1659 1.350 . S
C1665 H1652 0.929 1_655 S
C1665 C1657 1.433 . S
C1665 N1667 1.384 . S
N1666 C1662 1.427 . S
N1666 C1663 1.384 . S
N1667 C1659 1.427 . S
N1667 C1665 1.384 . S
H1668 C1674 0.930 . S
H1669 C1678 0.930 . S
H1670 C1683 0.929 . S
H1671 C1681 0.929 . S
H1672 C1676 0.929 . S
H1673 C1682 0.929 . S
C1674 H1668 0.930 . S
C1674 C1675 1.367 . S
C1674 C1682 1.378 . S
C1675 C1674 1.367 . S
C1675 C1683 1.433 . S
C1676 H1672 0.929 . S
C1676 C1678 1.378 . S
C1676 C1680 1.350 . S
C1677 C1680 1.463 . S
C1677 C1682 1.350 . S
C1677 N1685 1.427 . S
C1678 H1669 0.930 . S
C1678 C1676 1.378 . S
C1678 C1679 1.367 . S
C1679 C1678 1.367 . S
C1679 C1681 1.433 . S
C1680 C1676 1.350 . S
C1680 C1677 1.463 . S
C1680 N1684 1.427 . S
C1681 H1671 0.929 . S
C1681 C1679 1.433 . S
C1681 N1684 1.384 . S
C1682 H1673 0.929 . S
C1682 C1674 1.378 . S
C1682 C1677 1.350 . S
C1683 H1670 0.929 . S
C1683 C1675 1.433 . S
C1683 N1685 1.384 . S
N1684 C1680 1.427 . S
N1684 C1681 1.384 . S
N1685 C1677 1.427 . S
N1685 C1683 1.384 . S
H1686 C1692 0.930 . S
H1687 C1696 0.930 . S
H1688 C1701 0.929 . S
H1689 C1699 0.929 . S
H1690 C1694 0.929 . S
H1691 C1700 0.929 . S
C1692 H1686 0.930 . S
C1692 C1693 1.367 . S
C1692 C1700 1.378 . S
C1693 C1692 1.367 . S
C1693 C1701 1.433 . S
C1694 H1690 0.929 . S
C1694 C1696 1.378 . S
C1694 C1698 1.350 . S
C1695 C1698 1.463 . S
C1695 C1700 1.350 . S
C1695 N1703 1.427 . S
C1696 H1687 0.930 . S
C1696 C1694 1.378 . S
C1696 C1697 1.367 . S
C1697 C1696 1.367 . S
C1697 C1699 1.433 . S
C1698 C1694 1.350 . S
C1698 C1695 1.463 . S
C1698 N1702 1.427 . S
C1699 H1689 0.929 . S
C1699 C1697 1.433 . S
C1699 N1702 1.384 . S
C1700 H1691 0.929 . S
C1700 C1692 1.378 . S
C1700 C1695 1.350 . S
C1701 H1688 0.929 . S
C1701 C1693 1.433 . S
C1701 N1703 1.384 . S
N1702 C1698 1.427 . S
N1702 C1699 1.384 . S
N1703 C1695 1.427 . S
N1703 C1701 1.384 . S
H1704 C1710 0.930 . S
H1705 C1714 0.930 . S
H1706 C1719 0.929 . S
H1707 C1717 0.929 . S
H1708 C1712 0.929 . S
H1709 C1718 0.929 . S
C1710 H1704 0.930 . S
C1710 C1711 1.367 . S
C1710 C1718 1.378 . S
C1711 C1710 1.367 . S
C1711 C1719 1.433 . S
C1712 H1708 0.929 . S
C1712 C1714 1.378 . S
C1712 C1716 1.350 . S
C1713 C1716 1.463 . S
C1713 C1718 1.350 . S
C1713 N1721 1.427 . S
C1714 H1705 0.930 . S
C1714 C1712 1.378 . S
C1714 C1715 1.367 . S
C1715 C1714 1.367 . S
C1715 C1717 1.433 . S
C1716 C1712 1.350 . S
C1716 C1713 1.463 . S
C1716 N1720 1.427 . S
C1717 H1707 0.929 . S
C1717 C1715 1.433 . S
C1717 N1720 1.384 . S
C1718 H1709 0.929 . S
C1718 C1710 1.378 . S
C1718 C1713 1.350 . S
C1719 H1706 0.929 . S
C1719 C1711 1.433 . S
C1719 N1721 1.384 . S
N1720 C1716 1.427 . S
N1720 C1717 1.384 . S
N1721 C1713 1.427 . S
N1721 C1719 1.384 . S
H1722 C1728 0.930 . S
H1723 C1732 0.930 . S
H1724 C1737 0.929 . S
H1725 C1735 0.929 . S
H1726 C1730 0.929 . S
H1727 C1736 0.929 . S
C1728 H1722 0.930 . S
C1728 C1729 1.367 . S
C1728 C1736 1.378 . S
C1729 C1728 1.367 . S
C1729 C1737 1.433 . S
C1730 H1726 0.929 . S
C1730 C1732 1.378 . S
C1730 C1734 1.350 . S
C1731 C1734 1.463 . S
C1731 C1736 1.350 . S
C1731 N1739 1.427 . S
C1732 H1723 0.930 . S
C1732 C1730 1.378 . S
C1732 C1733 1.367 . S
C1733 C1732 1.367 . S
C1733 C1735 1.433 . S
C1734 C1730 1.350 . S
C1734 C1731 1.463 . S
C1734 N1738 1.427 . S
C1735 H1725 0.929 . S
C1735 C1733 1.433 . S
C1735 N1738 1.384 . S
C1736 H1727 0.929 . S
C1736 C1728 1.378 . S
C1736 C1731 1.350 . S
C1737 H1724 0.929 . S
C1737 C1729 1.433 . S
C1737 N1739 1.384 . S
N1738 C1734 1.427 . S
N1738 C1735 1.384 . S
N1739 C1731 1.427 . S
N1739 C1737 1.384 . S
H1740 C1746 0.930 . S
H1741 C1750 0.930 . S
H1742 C1755 0.929 1_554 S
H1743 C1753 0.929 . S
H1744 C1748 0.929 . S
H1745 C1754 0.929 . S
C1746 H1740 0.930 . S
C1746 C1747 1.367 . S
C1746 C1754 1.378 . S
C1747 C1746 1.367 . S
C1747 C1755 1.433 . S
C1748 H1744 0.929 . S
C1748 C1750 1.378 . S
C1748 C1752 1.350 . S
C1749 C1752 1.463 . S
C1749 C1754 1.350 . S
C1749 N1757 1.427 . S
C1750 H1741 0.930 . S
C1750 C1748 1.378 . S
C1750 C1751 1.367 . S
C1751 C1750 1.367 . S
C1751 C1753 1.433 . S
C1752 C1748 1.350 . S
C1752 C1749 1.463 . S
C1752 N1756 1.427 . S
C1753 H1743 0.929 . S
C1753 C1751 1.433 . S
C1753 N1756 1.384 . S
C1754 H1745 0.929 . S
C1754 C1746 1.378 . S
C1754 C1749 1.350 . S
C1755 H1742 0.929 1_556 S
C1755 C1747 1.433 . S
C1755 N1757 1.384 . S
N1756 C1752 1.427 . S
N1756 C1753 1.384 . S
N1757 C1749 1.427 . S
N1757 C1755 1.384 . S
H1758 C1764 0.930 . S
H1759 C1768 0.930 . S
H1760 C1773 0.929 . S
H1761 C1771 0.929 1_455 S
H1762 C1766 0.929 . S
H1763 C1772 0.929 . S
C1764 H1758 0.930 . S
C1764 C1765 1.367 . S
C1764 C1772 1.378 . S
C1765 C1764 1.367 . S
C1765 C1773 1.433 . S
C1766 H1762 0.929 . S
C1766 C1768 1.378 . S
C1766 C1770 1.350 . S
C1767 C1770 1.463 . S
C1767 C1772 1.350 . S
C1767 N1775 1.427 . S
C1768 H1759 0.930 . S
C1768 C1766 1.378 . S
C1768 C1769 1.367 . S
C1769 C1768 1.367 . S
C1769 C1771 1.433 . S
C1770 C1766 1.350 . S
C1770 C1767 1.463 . S
C1770 N1774 1.427 . S
C1771 H1761 0.929 1_655 S
C1771 C1769 1.433 . S
C1771 N1774 1.384 . S
C1772 H1763 0.929 . S
C1772 C1764 1.378 . S
C1772 C1767 1.350 . S
C1773 H1760 0.929 . S
C1773 C1765 1.433 . S
C1773 N1775 1.384 . S
N1774 C1770 1.427 . S
N1774 C1771 1.384 . S
N1775 C1767 1.427 . S
N1775 C1773 1.384 . S
H1776 C1782 0.930 . S
H1777 C1786 0.930 . S
H1778 C1791 0.929 . S
H1779 C1789 0.929 . S
H1780 C1784 0.929 . S
H1781 C1790 0.929 . S
C1782 H1776 0.930 . S
C1782 C1783 1.367 . S
C1782 C1790 1.378 . S
C1783 C1782 1.367 . S
C1783 C1791 1.433 . S
C1784 H1780 0.929 . S
C1784 C1786 1.378 . S
C1784 C1788 1.350 . S
C1785 C1788 1.463 . S
C1785 C1790 1.350 . S
C1785 N1793 1.427 . S
C1786 H1777 0.930 . S
C1786 C1784 1.378 . S
C1786 C1787 1.367 . S
C1787 C1786 1.367 . S
C1787 C1789 1.433 . S
C1788 C1784 1.350 . S
C1788 C1785 1.463 . S
C1788 N1792 1.427 . S
C1789 H1779 0.929 . S
C1789 C1787 1.433 . S
C1789 N1792 1.384 . S
C1790 H1781 0.929 . S
C1790 C1782 1.378 . S
C1790 C1785 1.350 . S
C1791 H1778 0.929 . S
C1791 C1783 1.433 . S
C1791 N1793 1.384 . S
N1792 C1788 1.427 . S
N1792 C1789 1.384 . S
N1793 C1785 1.427 . S
N1793 C1791 1.384 . S
H1794 C1800 0.930 . S
H1795 C1804 0.930 . S
H1796 C1809 0.929 . S
H1797 C1807 0.929 . S
H1798 C1802 0.929 . S
H1799 C1808 0.929 . S
C1800 H1794 0.930 . S
C1800 C1801 1.367 . S
C1800 C1808 1.378 . S
C1801 C1800 1.367 . S
C1801 C1809 1.433 . S
C1802 H1798 0.929 . S
C1802 C1804 1.378 . S
C1802 C1806 1.350 . S
C1803 C1806 1.463 . S
C1803 C1808 1.350 . S
C1803 N1811 1.427 . S
C1804 H1795 0.930 . S
C1804 C1802 1.378 . S
C1804 C1805 1.367 . S
C1805 C1804 1.367 . S
C1805 C1807 1.433 . S
C1806 C1802 1.350 . S
C1806 C1803 1.463 . S
C1806 N1810 1.427 . S
C1807 H1797 0.929 . S
C1807 C1805 1.433 . S
C1807 N1810 1.384 . S
C1808 H1799 0.929 . S
C1808 C1800 1.378 . S
C1808 C1803 1.350 . S
C1809 H1796 0.929 . S
C1809 C1801 1.433 . S
C1809 N1811 1.384 . S
N1810 C1806 1.427 . S
N1810 C1807 1.384 . S
N1811 C1803 1.427 . S
N1811 C1809 1.384 . S
H1812 C1818 0.930 . S
H1813 C1822 0.930 . S
H1814 C1827 0.929 . S
H1815 C1825 0.929 . S
H1816 C1820 0.929 . S
H1817 C1826 0.929 . S
C1818 H1812 0.930 . S
C1818 C1819 1.367 . S
C1818 C1826 1.378 . S
C1819 C1818 1.367 . S
C1819 C1827 1.433 . S
C1820 H1816 0.929 . S
C1820 C1822 1.378 . S
C1820 C1824 1.350 . S
C1821 C1824 1.463 . S
C1821 C1826 1.350 . S
C1821 N1829 1.427 . S
C1822 H1813 0.930 . S
C1822 C1820 1.378 . S
C1822 C1823 1.367 . S
C1823 C1822 1.367 . S
C1823 C1825 1.433 . S
C1824 C1820 1.350 . S
C1824 C1821 1.463 . S
C1824 N1828 1.427 . S
C1825 H1815 0.929 . S
C1825 C1823 1.433 . S
C1825 N1828 1.384 . S
C1826 H1817 0.929 . S
C1826 C1818 1.378 . S
C1826 C1821 1.350 . S
C1827 H1814 0.929 . S
C1827 C1819 1.433 . S
C1827 N1829 1.384 . S
N1828 C1824 1.427 . S
N1828 C1825 1.384 . S
N1829 C1821 1.427 . S
N1829 C1827 1.384 . S
H1830 C1836 0.930 . S
H1831 C1840 0.930 . S
H1832 C1845 0.929 . S
H1833 C1843 0.929 . S
H1834 C1838 0.929 . S
H1835 C1844 0.929 . S
C1836 H1830 0.930 . S
C1836 C1837 1.367 . S
C1836 C1844 1.378 . S
C1837 C1836 1.367 . S
C1837 C1845 1.433 . S
C1838 H1834 0.929 . S
C1838 C1840 1.378 . S
C1838 C1842 1.350 . S
C1839 C1842 1.463 . S
C1839 C1844 1.350 . S
C1839 N1847 1.427 . S
C1840 H1831 0.930 . S
C1840 C1838 1.378 . S
C1840 C1841 1.367 . S
C1841 C1840 1.367 . S
C1841 C1843 1.433 . S
C1842 C1838 1.350 . S
C1842 C1839 1.463 . S
C1842 N1846 1.427 . S
C1843 H1833 0.929 . S
C1843 C1841 1.433 . S
C1843 N1846 1.384 . S
C1844 H1835 0.929 . S
C1844 C1836 1.378 . S
C1844 C1839 1.350 . S
C1845 H1832 0.929 . S
C1845 C1837 1.433 . S
C1845 N1847 1.384 . S
N1846 C1842 1.427 . S
N1846 C1843 1.384 . S
N1847 C1839 1.427 . S
N1847 C1845 1.384 . S
H1848 C1854 0.930 . S
H1849 C1858 0.930 . S
H1850 C1863 0.929 . S
H1851 C1861 0.929 . S
H1852 C1856 0.929 . S
H1853 C1862 0.929 . S
C1854 H1848 0.930 . S
C1854 C1855 1.367 . S
C1854 C1862 1.378 . S
C1855 C1854 1.367 . S
C1855 C1863 1.433 . S
C1856 H1852 0.929 . S
C1856 C1858 1.378 . S
C1856 C1860 1.350 . S
C1857 C1860 1.463 . S
C1857 C1862 1.350 . S
C1857 N1865 1.427 . S
C1858 H1849 0.930 . S
C1858 C1856 1.378 . S
C1858 C1859 1.367 . S
C1859 C1858 1.367 . S
C1859 C1861 1.433 . S
C1860 C1856 1.350 . S
C1860 C1857 1.463 . S
C1860 N1864 1.427 . S
C1861 H1851 0.929 . S
C1861 C1859 1.433 . S
C1861 N1864 1.384 . S
C1862 H1853 0.929 . S
C1862 C1854 1.378 . S
C1862 C1857 1.350 . S
C1863 H1850 0.929 . S
C1863 C1855 1.433 . S
C1863 N1865 1.384 . S
N1864 C1860 1.427 . S
N1864 C1861 1.384 . S
N1865 C1857 1.427 . S
N1865 C1863 1.384 . S
H1866 C1872 0.930 . S
H1867 C1876 0.930 . S
H1868 C1881 0.929 . S
H1869 C1879 0.929 . S
H1870 C1874 0.929 . S
H1871 C1880 0.929 . S
C1872 H1866 0.930 . S
C1872 C1873 1.367 . S
C1872 C1880 1.378 . S
C1873 C1872 1.367 . S
C1873 C1881 1.433 . S
C1874 H1870 0.929 . S
C1874 C1876 1.378 . S
C1874 C1878 1.350 . S
C1875 C1878 1.463 . S
C1875 C1880 1.350 . S
C1875 N1883 1.427 . S
C1876 H1867 0.930 . S
C1876 C1874 1.378 . S
C1876 C1877 1.367 . S
C1877 C1876 1.367 . S
C1877 C1879 1.433 . S
C1878 C1874 1.350 . S
C1878 C1875 1.463 . S
C1878 N1882 1.427 . S
C1879 H1869 0.929 . S
C1879 C1877 1.433 . S
C1879 N1882 1.384 . S
C1880 H1871 0.929 . S
C1880 C1872 1.378 . S
C1880 C1875 1.350 . S
C1881 H1868 0.929 . S
C1881 C1873 1.433 . S
C1881 N1883 1.384 . S
N1882 C1878 1.427 . S
N1882 C1879 1.384 . S
N1883 C1875 1.427 . S
N1883 C1881 1.384 . S
H1884 C1890 0.930 . S
H1885 C1894 0.930 . S
H1886 C1899 0.929 . S
H1887 C1897 0.929 . S
H1888 C1892 0.929 . S
H1889 C1898 0.929 . S
C1890 H1884 0.930 . S
C1890 C1891 1.367 . S
C1890 C1898 1.378 . S
C1891 C1890 1.367 . S
C1891 C1899 1.433 . S
C1892 H1888 0.929 . S
C1892 C1894 1.378 . S
C1892 C1896 1.350 . S
C1893 C1896 1.463 . S
C1893 C1898 1.350 . S
C1893 N1901 1.427 . S
C1894 H1885 0.930 . S
C1894 C1892 1.378 . S
C1894 C1895 1.367 . S
C1895 C1894 1.367 . S
C1895 C1897 1.433 . S
C1896 C1892 1.350 . S
C1896 C1893 1.463 . S
C1896 N1900 1.427 . S
C1897 H1887 0.929 . S
C1897 C1895 1.433 . S
C1897 N1900 1.384 . S
C1898 H1889 0.929 . S
C1898 C1890 1.378 . S
C1898 C1893 1.350 . S
C1899 H1886 0.929 . S
C1899 C1891 1.433 . S
C1899 N1901 1.384 . S
N1900 C1896 1.427 . S
N1900 C1897 1.384 . S
N1901 C1893 1.427 . S
N1901 C1899 1.384 . S
H1902 C1908 0.930 . S
H1903 C1912 0.930 . S
H1904 C1917 0.929 . S
H1905 C1915 0.929 . S
H1906 C1910 0.929 . S
H1907 C1916 0.929 . S
C1908 H1902 0.930 . S
C1908 C1909 1.367 . S
C1908 C1916 1.378 . S
C1909 C1908 1.367 . S
C1909 C1917 1.433 . S
C1910 H1906 0.929 . S
C1910 C1912 1.378 . S
C1910 C1914 1.350 . S
C1911 C1914 1.463 . S
C1911 C1916 1.350 . S
C1911 N1919 1.427 . S
C1912 H1903 0.930 . S
C1912 C1910 1.378 . S
C1912 C1913 1.367 . S
C1913 C1912 1.367 . S
C1913 C1915 1.433 . S
C1914 C1910 1.350 . S
C1914 C1911 1.463 . S
C1914 N1918 1.427 . S
C1915 H1905 0.929 . S
C1915 C1913 1.433 . S
C1915 N1918 1.384 . S
C1916 H1907 0.929 . S
C1916 C1908 1.378 . S
C1916 C1911 1.350 . S
C1917 H1904 0.929 . S
C1917 C1909 1.433 . S
C1917 N1919 1.384 . S
N1918 C1914 1.427 . S
N1918 C1915 1.384 . S
N1919 C1911 1.427 . S
N1919 C1917 1.384 . S
H1920 C1926 0.930 . S
H1921 C1930 0.930 . S
H1922 C1935 0.929 . S
H1923 C1933 0.929 . S
H1924 C1928 0.929 . S
H1925 C1934 0.929 . S
C1926 H1920 0.930 . S
C1926 C1927 1.367 . S
C1926 C1934 1.378 . S
C1927 C1926 1.367 . S
C1927 C1935 1.433 . S
C1928 H1924 0.929 . S
C1928 C1930 1.378 . S
C1928 C1932 1.350 . S
C1929 C1932 1.463 . S
C1929 C1934 1.350 . S
C1929 N1937 1.427 . S
C1930 H1921 0.930 . S
C1930 C1928 1.378 . S
C1930 C1931 1.367 . S
C1931 C1930 1.367 . S
C1931 C1933 1.433 . S
C1932 C1928 1.350 . S
C1932 C1929 1.463 . S
C1932 N1936 1.427 . S
C1933 H1923 0.929 . S
C1933 C1931 1.433 . S
C1933 N1936 1.384 . S
C1934 H1925 0.929 . S
C1934 C1926 1.378 . S
C1934 C1929 1.350 . S
C1935 H1922 0.929 . S
C1935 C1927 1.433 . S
C1935 N1937 1.384 . S
N1936 C1932 1.427 . S
N1936 C1933 1.384 . S
N1937 C1929 1.427 . S
N1937 C1935 1.384 . S
H1938 C1944 0.930 . S
H1939 C1948 0.930 . S
H1940 C1953 0.929 . S
H1941 C1951 0.929 . S
H1942 C1946 0.929 . S
H1943 C1952 0.929 . S
C1944 H1938 0.930 . S
C1944 C1945 1.367 . S
C1944 C1952 1.378 . S
C1945 C1944 1.367 . S
C1945 C1953 1.433 . S
C1946 H1942 0.929 . S
C1946 C1948 1.378 . S
C1946 C1950 1.350 . S
C1947 C1950 1.463 . S
C1947 C1952 1.350 . S
C1947 N1955 1.427 . S
C1948 H1939 0.930 . S
C1948 C1946 1.378 . S
C1948 C1949 1.367 . S
C1949 C1948 1.367 . S
C1949 C1951 1.433 . S
C1950 C1946 1.350 . S
C1950 C1947 1.463 . S
C1950 N1954 1.427 . S
C1951 H1941 0.929 . S
C1951 C1949 1.433 . S
C1951 N1954 1.384 . S
C1952 H1943 0.929 . S
C1952 C1944 1.378 . S
C1952 C1947 1.350 . S
C1953 H1940 0.929 . S
C1953 C1945 1.433 . S
C1953 N1955 1.384 . S
N1954 C1950 1.427 . S
N1954 C1951 1.384 . S
N1955 C1947 1.427 . S
N1955 C1953 1.384 . S
H1956 C1962 0.930 . S
H1957 C1966 0.930 . S
H1958 C1971 0.929 . S
H1959 C1969 0.929 . S
H1960 C1964 0.929 . S
H1961 C1970 0.929 . S
C1962 H1956 0.930 . S
C1962 C1963 1.367 . S
C1962 C1970 1.378 . S
C1963 C1962 1.367 . S
C1963 C1971 1.433 . S
C1964 H1960 0.929 . S
C1964 C1966 1.378 . S
C1964 C1968 1.350 . S
C1965 C1968 1.463 . S
C1965 C1970 1.350 . S
C1965 N1973 1.427 . S
C1966 H1957 0.930 . S
C1966 C1964 1.378 . S
C1966 C1967 1.367 . S
C1967 C1966 1.367 . S
C1967 C1969 1.433 . S
C1968 C1964 1.350 . S
C1968 C1965 1.463 . S
C1968 N1972 1.427 . S
C1969 H1959 0.929 . S
C1969 C1967 1.433 . S
C1969 N1972 1.384 . S
C1970 H1961 0.929 . S
C1970 C1962 1.378 . S
C1970 C1965 1.350 . S
C1971 H1958 0.929 . S
C1971 C1963 1.433 . S
C1971 N1973 1.384 . S
N1972 C1968 1.427 . S
N1972 C1969 1.384 . S
N1973 C1965 1.427 . S
N1973 C1971 1.384 . S
H1974 C1980 0.930 . S
H1975 C1984 0.930 . S
H1976 C1989 0.929 . S
H1977 C1987 0.929 . S
H1978 C1982 0.929 . S
H1979 C1988 0.929 . S
C1980 H1974 0.930 . S
C1980 C1981 1.367 . S
C1980 C1988 1.378 . S
C1981 C1980 1.367 . S
C1981 C1989 1.433 . S
C1982 H1978 0.929 . S
C1982 C1984 1.378 . S
C1982 C1986 1.350 . S
C1983 C1986 1.463 . S
C1983 C1988 1.350 . S
C1983 N1991 1.427 . S
C1984 H1975 0.930 . S
C1984 C1982 1.378 . S
C1984 C1985 1.367 . S
C1985 C1984 1.367 . S
C1985 C1987 1.433 . S
C1986 C1982 1.350 . S
C1986 C1983 1.463 . S
C1986 N1990 1.427 . S
C1987 H1977 0.929 . S
C1987 C1985 1.433 . S
C1987 N1990 1.384 . S
C1988 H1979 0.929 . S
C1988 C1980 1.378 . S
C1988 C1983 1.350 . S
C1989 H1976 0.929 . S
C1989 C1981 1.433 . S
C1989 N1991 1.384 . S
N1990 C1986 1.427 . S
N1990 C1987 1.384 . S
N1991 C1983 1.427 . S
N1991 C1989 1.384 . S
H1992 C1998 0.930 . S
H1993 C2002 0.930 . S
H1994 C2007 0.929 . S
H1995 C2005 0.929 . S
H1996 C2000 0.929 . S
H1997 C2006 0.929 . S
C1998 H1992 0.930 . S
C1998 C1999 1.367 . S
C1998 C2006 1.378 . S
C1999 C1998 1.367 . S
C1999 C2007 1.433 . S
C2000 H1996 0.929 . S
C2000 C2002 1.378 . S
C2000 C2004 1.350 . S
C2001 C2004 1.463 . S
C2001 C2006 1.350 . S
C2001 N2009 1.427 . S
C2002 H1993 0.930 . S
C2002 C2000 1.378 . S
C2002 C2003 1.367 . S
C2003 C2002 1.367 . S
C2003 C2005 1.433 . S
C2004 C2000 1.350 . S
C2004 C2001 1.463 . S
C2004 N2008 1.427 . S
C2005 H1995 0.929 . S
C2005 C2003 1.433 . S
C2005 N2008 1.384 . S
C2006 H1997 0.929 . S
C2006 C1998 1.378 . S
C2006 C2001 1.350 . S
C2007 H1994 0.929 . S
C2007 C1999 1.433 . S
C2007 N2009 1.384 . S
N2008 C2004 1.427 . S
N2008 C2005 1.384 . S
N2009 C2001 1.427 . S
N2009 C2007 1.384 . S
H2010 C2016 0.912 1_554 S
H2011 C2020 0.930 . S
H2012 C2025 0.929 . S
H2013 C2023 0.929 . S
H2014 C2018 0.929 . S
H2015 C2024 0.929 . S
C2016 H2010 0.912 1_556 S
C2016 C2017 1.367 . S
C2016 C2024 1.378 . S
C2017 C2016 1.367 . S
C2017 C2025 1.433 . S
C2018 H2014 0.929 . S
C2018 C2020 1.378 . S
C2018 C2022 1.350 . S
C2019 C2022 1.463 . S
C2019 C2024 1.350 . S
C2019 N2027 1.427 . S
C2020 H2011 0.930 . S
C2020 C2018 1.378 . S
C2020 C2021 1.367 . S
C2021 C2020 1.367 . S
C2021 C2023 1.433 . S
C2022 C2018 1.350 . S
C2022 C2019 1.463 . S
C2022 N2026 1.427 . S
C2023 H2013 0.929 . S
C2023 C2021 1.433 . S
C2023 N2026 1.384 . S
C2024 H2015 0.929 . S
C2024 C2016 1.378 . S
C2024 C2019 1.350 . S
C2025 H2012 0.929 . S
C2025 C2017 1.433 . S
C2025 N2027 1.384 . S
N2026 C2022 1.427 . S
N2026 C2023 1.384 . S
N2027 C2019 1.427 . S
N2027 C2025 1.384 . S
H2028 C2034 0.930 . S
H2029 C2038 0.930 . S
H2030 C2043 0.929 . S
H2031 C2041 0.929 . S
H2032 C2036 0.929 . S
H2033 C2042 0.929 . S
C2034 H2028 0.930 . S
C2034 C2035 1.367 . S
C2034 C2042 1.378 . S
C2035 C2034 1.367 . S
C2035 C2043 1.433 . S
C2036 H2032 0.929 . S
C2036 C2038 1.378 . S
C2036 C2040 1.350 . S
C2037 C2040 1.463 . S
C2037 C2042 1.350 . S
C2037 N2045 1.427 . S
C2038 H2029 0.930 . S
C2038 C2036 1.378 . S
C2038 C2039 1.367 . S
C2039 C2038 1.367 . S
C2039 C2041 1.433 . S
C2040 C2036 1.350 . S
C2040 C2037 1.463 . S
C2040 N2044 1.427 . S
C2041 H2031 0.929 . S
C2041 C2039 1.433 . S
C2041 N2044 1.384 . S
C2042 H2033 0.929 . S
C2042 C2034 1.378 . S
C2042 C2037 1.350 . S
C2043 H2030 0.929 . S
C2043 C2035 1.433 . S
C2043 N2045 1.384 . S
N2044 C2040 1.427 . S
N2044 C2041 1.384 . S
N2045 C2037 1.427 . S
N2045 C2043 1.384 . S
H2046 C2052 0.930 . S
H2047 C2056 0.930 . S
H2048 C2061 0.929 . S
H2049 C2059 0.929 . S
H2050 C2054 0.929 . S
H2051 C2060 0.929 . S
C2052 H2046 0.930 . S
C2052 C2053 1.367 . S
C2052 C2060 1.378 . S
C2053 C2052 1.367 . S
C2053 C2061 1.433 . S
C2054 H2050 0.929 . S
C2054 C2056 1.378 . S
C2054 C2058 1.350 . S
C2055 C2058 1.463 . S
C2055 C2060 1.350 . S
C2055 N2063 1.427 . S
C2056 H2047 0.930 . S
C2056 C2054 1.378 . S
C2056 C2057 1.367 . S
C2057 C2056 1.367 . S
C2057 C2059 1.433 . S
C2058 C2054 1.350 . S
C2058 C2055 1.463 . S
C2058 N2062 1.427 . S
C2059 H2049 0.929 . S
C2059 C2057 1.433 . S
C2059 N2062 1.384 . S
C2060 H2051 0.929 . S
C2060 C2052 1.378 . S
C2060 C2055 1.350 . S
C2061 H2048 0.929 . S
C2061 C2053 1.433 . S
C2061 N2063 1.384 . S
N2062 C2058 1.427 . S
N2062 C2059 1.384 . S
N2063 C2055 1.427 . S
N2063 C2061 1.384 . S
H2064 C2070 0.930 . S
H2065 C2074 0.930 . S
H2066 C2079 0.929 . S
H2067 C2077 0.929 . S
H2068 C2072 0.929 . S
H2069 C2078 0.929 . S
C2070 H2064 0.930 . S
C2070 C2071 1.367 . S
C2070 C2078 1.378 . S
C2071 C2070 1.367 . S
C2071 C2079 1.433 . S
C2072 H2068 0.929 . S
C2072 C2074 1.378 . S
C2072 C2076 1.350 . S
C2073 C2076 1.463 . S
C2073 C2078 1.350 . S
C2073 N2081 1.427 . S
C2074 H2065 0.930 . S
C2074 C2072 1.378 . S
C2074 C2075 1.367 . S
C2075 C2074 1.367 . S
C2075 C2077 1.433 . S
C2076 C2072 1.350 . S
C2076 C2073 1.463 . S
C2076 N2080 1.427 . S
C2077 H2067 0.929 . S
C2077 C2075 1.433 . S
C2077 N2080 1.384 . S
C2078 H2069 0.929 . S
C2078 C2070 1.378 . S
C2078 C2073 1.350 . S
C2079 H2066 0.929 . S
C2079 C2071 1.433 . S
C2079 N2081 1.384 . S
N2080 C2076 1.427 . S
N2080 C2077 1.384 . S
N2081 C2073 1.427 . S
N2081 C2079 1.384 . S
H2082 C2088 0.930 . S
H2083 C2092 0.930 . S
H2084 C2097 0.929 . S
H2085 C2095 0.929 . S
H2086 C2090 0.929 . S
H2087 C2096 0.929 . S
C2088 H2082 0.930 . S
C2088 C2089 1.367 . S
C2088 C2096 1.378 . S
C2089 C2088 1.367 . S
C2089 C2097 1.433 . S
C2090 H2086 0.929 . S
C2090 C2092 1.378 . S
C2090 C2094 1.350 . S
C2091 C2094 1.463 . S
C2091 C2096 1.350 . S
C2091 N2099 1.427 . S
C2092 H2083 0.930 . S
C2092 C2090 1.378 . S
C2092 C2093 1.367 . S
C2093 C2092 1.367 . S
C2093 C2095 1.433 . S
C2094 C2090 1.350 . S
C2094 C2091 1.463 . S
C2094 N2098 1.427 . S
C2095 H2085 0.929 . S
C2095 C2093 1.433 . S
C2095 N2098 1.384 . S
C2096 H2087 0.929 . S
C2096 C2088 1.378 . S
C2096 C2091 1.350 . S
C2097 H2084 0.929 . S
C2097 C2089 1.433 . S
C2097 N2099 1.384 . S
N2098 C2094 1.427 . S
N2098 C2095 1.384 . S
N2099 C2091 1.427 . S
N2099 C2097 1.384 . S
H2100 C2106 0.930 . S
H2101 C2110 0.930 . S
H2102 C2115 0.929 . S
H2103 C2113 0.929 . S
H2104 C2108 0.929 . S
H2105 C2114 0.929 . S
C2106 H2100 0.930 . S
C2106 C2107 1.367 . S
C2106 C2114 1.378 . S
C2107 C2106 1.367 . S
C2107 C2115 1.433 . S
C2108 H2104 0.929 . S
C2108 C2110 1.378 . S
C2108 C2112 1.350 . S
C2109 C2112 1.463 . S
C2109 C2114 1.350 . S
C2109 N2117 1.427 . S
C2110 H2101 0.930 . S
C2110 C2108 1.378 . S
C2110 C2111 1.367 . S
C2111 C2110 1.367 . S
C2111 C2113 1.433 . S
C2112 C2108 1.350 . S
C2112 C2109 1.463 . S
C2112 N2116 1.427 . S
C2113 H2103 0.929 . S
C2113 C2111 1.433 . S
C2113 N2116 1.384 . S
C2114 H2105 0.929 . S
C2114 C2106 1.378 . S
C2114 C2109 1.350 . S
C2115 H2102 0.929 . S
C2115 C2107 1.433 . S
C2115 N2117 1.384 . S
N2116 C2112 1.427 . S
N2116 C2113 1.384 . S
N2117 C2109 1.427 . S
N2117 C2115 1.384 . S
H2118 C2124 0.930 . S
H2119 C2128 0.930 . S
H2120 C2133 0.929 . S
H2121 C2131 0.929 . S
H2122 C2126 0.929 . S
H2123 C2132 0.929 . S
C2124 H2118 0.930 . S
C2124 C2125 1.367 . S
C2124 C2132 1.378 . S
C2125 C2124 1.367 . S
C2125 C2133 1.433 . S
C2126 H2122 0.929 . S
C2126 C2128 1.378 . S
C2126 C2130 1.350 . S
C2127 C2130 1.463 . S
C2127 C2132 1.350 . S
C2127 N2135 1.427 . S
C2128 H2119 0.930 . S
C2128 C2126 1.378 . S
C2128 C2129 1.367 . S
C2129 C2128 1.367 . S
C2129 C2131 1.433 . S
C2130 C2126 1.350 . S
C2130 C2127 1.463 . S
C2130 N2134 1.427 . S
C2131 H2121 0.929 . S
C2131 C2129 1.433 . S
C2131 N2134 1.384 . S
C2132 H2123 0.929 . S
C2132 C2124 1.378 . S
C2132 C2127 1.350 . S
C2133 H2120 0.929 . S
C2133 C2125 1.433 . S
C2133 N2135 1.384 . S
N2134 C2130 1.427 . S
N2134 C2131 1.384 . S
N2135 C2127 1.427 . S
N2135 C2133 1.384 . S
H2136 C2142 0.930 . S
H2137 C2146 0.930 . S
H2138 C2151 0.929 . S
H2139 C2149 0.929 . S
H2140 C2144 0.929 . S
H2141 C2150 0.929 . S
C2142 H2136 0.930 . S
C2142 C2143 1.367 . S
C2142 C2150 1.378 . S
C2143 C2142 1.367 . S
C2143 C2151 1.433 . S
C2144 H2140 0.929 . S
C2144 C2146 1.378 . S
C2144 C2148 1.350 . S
C2145 C2148 1.463 . S
C2145 C2150 1.350 . S
C2145 N2153 1.427 . S
C2146 H2137 0.930 . S
C2146 C2144 1.378 . S
C2146 C2147 1.367 . S
C2147 C2146 1.367 . S
C2147 C2149 1.433 . S
C2148 C2144 1.350 . S
C2148 C2145 1.463 . S
C2148 N2152 1.427 . S
C2149 H2139 0.929 . S
C2149 C2147 1.433 . S
C2149 N2152 1.384 . S
C2150 H2141 0.929 . S
C2150 C2142 1.378 . S
C2150 C2145 1.350 . S
C2151 H2138 0.929 . S
C2151 C2143 1.433 . S
C2151 N2153 1.384 . S
N2152 C2148 1.427 . S
N2152 C2149 1.384 . S
N2153 C2145 1.427 . S
N2153 C2151 1.384 . S
H2154 C2160 0.930 . S
H2155 C2164 0.930 . S
H2156 C2169 0.929 . S
H2157 C2167 0.929 . S
H2158 C2162 0.929 . S
H2159 C2168 0.929 . S
C2160 H2154 0.930 . S
C2160 C2161 1.367 . S
C2160 C2168 1.378 . S
C2161 C2160 1.367 . S
C2161 C2169 1.433 . S
C2162 H2158 0.929 . S
C2162 C2164 1.378 . S
C2162 C2166 1.350 . S
C2163 C2166 1.463 . S
C2163 C2168 1.350 . S
C2163 N2171 1.427 . S
C2164 H2155 0.930 . S
C2164 C2162 1.378 . S
C2164 C2165 1.367 . S
C2165 C2164 1.367 . S
C2165 C2167 1.433 . S
C2166 C2162 1.350 . S
C2166 C2163 1.463 . S
C2166 N2170 1.427 . S
C2167 H2157 0.929 . S
C2167 C2165 1.433 . S
C2167 N2170 1.384 . S
C2168 H2159 0.929 . S
C2168 C2160 1.378 . S
C2168 C2163 1.350 . S
C2169 H2156 0.929 . S
C2169 C2161 1.433 . S
C2169 N2171 1.384 . S
N2170 C2166 1.427 . S
N2170 C2167 1.384 . S
N2171 C2163 1.427 . S
N2171 C2169 1.384 . S
H2172 C2178 0.930 . S
H2173 C2182 0.930 . S
H2174 C2187 0.929 . S
H2175 C2185 0.929 . S
H2176 C2180 0.929 . S
H2177 C2186 0.929 . S
C2178 H2172 0.930 . S
C2178 C2179 1.367 . S
C2178 C2186 1.378 . S
C2179 C2178 1.367 . S
C2179 C2187 1.433 . S
C2180 H2176 0.929 . S
C2180 C2182 1.378 . S
C2180 C2184 1.350 . S
C2181 C2184 1.463 . S
C2181 C2186 1.350 . S
C2181 N2189 1.427 . S
C2182 H2173 0.930 . S
C2182 C2180 1.378 . S
C2182 C2183 1.367 . S
C2183 C2182 1.367 . S
C2183 C2185 1.433 . S
C2184 C2180 1.350 . S
C2184 C2181 1.463 . S
C2184 N2188 1.427 . S
C2185 H2175 0.929 . S
C2185 C2183 1.433 . S
C2185 N2188 1.384 . S
C2186 H2177 0.929 . S
C2186 C2178 1.378 . S
C2186 C2181 1.350 . S
C2187 H2174 0.929 . S
C2187 C2179 1.433 . S
C2187 N2189 1.384 . S
N2188 C2184 1.427 . S
N2188 C2185 1.384 . S
N2189 C2181 1.427 . S
N2189 C2187 1.384 . S
H2190 C2196 0.930 . S
H2191 C2200 0.930 . S
H2192 C2205 0.929 . S
H2193 C2203 0.929 . S
H2194 C2198 0.929 . S
H2195 C2204 0.929 . S
C2196 H2190 0.930 . S
C2196 C2197 1.367 . S
C2196 C2204 1.378 . S
C2197 C2196 1.367 . S
C2197 C2205 1.433 . S
C2198 H2194 0.929 . S
C2198 C2200 1.378 . S
C2198 C2202 1.350 . S
C2199 C2202 1.463 . S
C2199 C2204 1.350 . S
C2199 N2207 1.427 . S
C2200 H2191 0.930 . S
C2200 C2198 1.378 . S
C2200 C2201 1.367 . S
C2201 C2200 1.367 . S
C2201 C2203 1.433 . S
C2202 C2198 1.350 . S
C2202 C2199 1.463 . S
C2202 N2206 1.427 . S
C2203 H2193 0.929 . S
C2203 C2201 1.433 . S
C2203 N2206 1.384 . S
C2204 H2195 0.929 . S
C2204 C2196 1.378 . S
C2204 C2199 1.350 . S
C2205 H2192 0.929 . S
C2205 C2197 1.433 . S
C2205 N2207 1.384 . S
N2206 C2202 1.427 . S
N2206 C2203 1.384 . S
N2207 C2199 1.427 . S
N2207 C2205 1.384 . S
H2208 C2214 0.930 . S
H2209 C2218 0.930 . S
H2210 C2223 0.929 . S
H2211 C2221 0.929 . S
H2212 C2216 0.929 . S
H2213 C2222 0.929 . S
C2214 H2208 0.930 . S
C2214 C2215 1.367 . S
C2214 C2222 1.378 . S
C2215 C2214 1.367 . S
C2215 C2223 1.433 . S
C2216 H2212 0.929 . S
C2216 C2218 1.378 . S
C2216 C2220 1.350 . S
C2217 C2220 1.463 . S
C2217 C2222 1.350 . S
C2217 N2225 1.427 . S
C2218 H2209 0.930 . S
C2218 C2216 1.378 . S
C2218 C2219 1.367 . S
C2219 C2218 1.367 . S
C2219 C2221 1.433 . S
C2220 C2216 1.350 . S
C2220 C2217 1.463 . S
C2220 N2224 1.427 . S
C2221 H2211 0.929 . S
C2221 C2219 1.433 . S
C2221 N2224 1.384 . S
C2222 H2213 0.929 . S
C2222 C2214 1.378 . S
C2222 C2217 1.350 . S
C2223 H2210 0.929 . S
C2223 C2215 1.433 . S
C2223 N2225 1.384 . S
N2224 C2220 1.427 . S
N2224 C2221 1.384 . S
N2225 C2217 1.427 . S
N2225 C2223 1.384 . S
H2226 C2232 0.930 . S
H2227 C2236 0.930 . S
H2228 C2241 0.929 . S
H2229 C2239 0.929 . S
H2230 C2234 0.929 . S
H2231 C2240 0.929 . S
C2232 H2226 0.930 . S
C2232 C2233 1.367 . S
C2232 C2240 1.378 . S
C2233 C2232 1.367 . S
C2233 C2241 1.433 . S
C2234 H2230 0.929 . S
C2234 C2236 1.378 . S
C2234 C2238 1.350 . S
C2235 C2238 1.463 . S
C2235 C2240 1.350 . S
C2235 N2243 1.427 . S
C2236 H2227 0.930 . S
C2236 C2234 1.378 . S
C2236 C2237 1.367 . S
C2237 C2236 1.367 . S
C2237 C2239 1.433 . S
C2238 C2234 1.350 . S
C2238 C2235 1.463 . S
C2238 N2242 1.427 . S
C2239 H2229 0.929 . S
C2239 C2237 1.433 . S
C2239 N2242 1.384 . S
C2240 H2231 0.929 . S
C2240 C2232 1.378 . S
C2240 C2235 1.350 . S
C2241 H2228 0.929 . S
C2241 C2233 1.433 . S
C2241 N2243 1.384 . S
N2242 C2238 1.427 . S
N2242 C2239 1.384 . S
N2243 C2235 1.427 . S
N2243 C2241 1.384 . S
H2244 C2250 0.930 . S
H2245 C2254 0.930 . S
H2246 C2259 0.929 . S
H2247 C2257 0.929 . S
H2248 C2252 0.929 . S
H2249 C2258 0.929 . S
C2250 H2244 0.930 . S
C2250 C2251 1.367 . S
C2250 C2258 1.378 . S
C2251 C2250 1.367 . S
C2251 C2259 1.433 . S
C2252 H2248 0.929 . S
C2252 C2254 1.378 . S
C2252 C2256 1.350 . S
C2253 C2256 1.463 . S
C2253 C2258 1.350 . S
C2253 N2261 1.427 . S
C2254 H2245 0.930 . S
C2254 C2252 1.378 . S
C2254 C2255 1.367 . S
C2255 C2254 1.367 . S
C2255 C2257 1.433 . S
C2256 C2252 1.350 . S
C2256 C2253 1.463 . S
C2256 N2260 1.427 . S
C2257 H2247 0.929 . S
C2257 C2255 1.433 . S
C2257 N2260 1.384 . S
C2258 H2249 0.929 . S
C2258 C2250 1.378 . S
C2258 C2253 1.350 . S
C2259 H2246 0.929 . S
C2259 C2251 1.433 . S
C2259 N2261 1.384 . S
N2260 C2256 1.427 . S
N2260 C2257 1.384 . S
N2261 C2253 1.427 . S
N2261 C2259 1.384 . S
H2262 C2268 0.930 . S
H2263 C2272 0.930 . S
H2264 C2277 0.929 . S
H2265 C2275 0.929 . S
H2266 C2270 0.929 . S
H2267 C2276 0.929 . S
C2268 H2262 0.930 . S
C2268 C2269 1.367 . S
C2268 C2276 1.378 . S
C2269 C2268 1.367 . S
C2269 C2277 1.433 . S
C2270 H2266 0.929 . S
C2270 C2272 1.378 . S
C2270 C2274 1.350 . S
C2271 C2274 1.463 . S
C2271 C2276 1.350 . S
C2271 N2279 1.427 . S
C2272 H2263 0.930 . S
C2272 C2270 1.378 . S
C2272 C2273 1.367 . S
C2273 C2272 1.367 . S
C2273 C2275 1.433 . S
C2274 C2270 1.350 . S
C2274 C2271 1.463 . S
C2274 N2278 1.427 . S
C2275 H2265 0.929 . S
C2275 C2273 1.433 . S
C2275 N2278 1.384 . S
C2276 H2267 0.929 . S
C2276 C2268 1.378 . S
C2276 C2271 1.350 . S
C2277 H2264 0.929 . S
C2277 C2269 1.433 . S
C2277 N2279 1.384 . S
N2278 C2274 1.427 . S
N2278 C2275 1.384 . S
N2279 C2271 1.427 . S
N2279 C2277 1.384 . S
C1423 C829 1.386 . S
C1427 C5 1.396 . S
C1441 C62 1.374 . S
C1445 C890 1.390 . S
C1459 C1114 1.548 . S
C1463 C170 1.549 . S
C1477 C210 1.865 . S
C1481 C800 1.865 . S
C1495 C859 1.868 . S
C1499 C288 1.863 . S
C1513 C328 1.559 . S
C1517 C937 1.552 . S
C1531 C359 1.391 . S
C1535 C1067 1.392 . S
C1549 C416 1.390 . S
C1553 C770 1.383 . S
C1567 C536 1.389 . S
C1571 C475 1.386 . S
C1585 C623 1.865 . S
C1589 C583 1.858 . S
C1603 C593 1.385 . S
C1607 C654 1.395 . S
C1621 C701 1.551 . S
C1625 C505 1.557 . S
C1639 C713 1.391 . S
C1643 C180 1.379 . S
C1657 C241 1.388 . S
C1661 C949 1.390 . S
C1675 C1036 1.864 . S
C1679 C92 1.865 . S
C1693 C64 1.752 . S
C1697 C1291 1.751 . S
C1711 C534 1.755 . S
C1715 C33 1.758 . S
C1729 C1409 1.887 . S
C1733 C229 1.883 . S
C1747 C652 1.283 . S
C1751 C121 1.279 . S
C1765 C1244 1.278 . S
C1769 C418 1.278 . S
C1783 C564 1.892 . S
C1787 C387 1.893 . S
C1801 C347 1.751 . S
C1805 C1362 1.755 . S
C1819 C239 1.752 . S
C1823 C682 1.755 . S
C1837 C918 1.751 . S
C1841 C1126 1.753 . S
C1855 C947 1.276 . S
C1859 C888 1.281 . S
C1873 C772 1.753 . S
C1877 C977 1.753 . S
C1891 C1173 1.887 . S
C1895 C819 1.889 . S
C1909 C151 1.756 . S
C1913 C1183 1.754 . S
C1927 C595 1.754 . S
C1931 C465 1.754 . S
C1945 C3 1.283 . S
C1949 C1301 1.280 . S
C1963 C1124 1.378 . S
C1967 C123 1.394 . S
C1981 C52 1.552 . S
C1985 C996 1.552 . S
C1999 C1154 1.867 . S
C2003 C406 1.859 . S
C2017 C760 1.551 . S
C2021 C446 1.558 . S
C2035 C298 1.392 . S
C2039 C1006 1.384 . S
C2053 C1242 1.390 . S
C2057 C1185 1.392 . S
C2071 C1390 1.865 . S
C2075 C1232 1.857 . S
C2089 C1303 1.394 . S
C2093 C1360 1.380 . S
C2107 C1272 1.554 . S
C2111 C1350 1.545 . S
C2125 C524 1.752 . S
C2129 C182 1.753 . S
C2143 C111 1.883 . S
C2147 C642 1.884 . S
C2161 C300 1.278 . S
C2165 C477 1.278 . S
C2179 C1213 1.892 . S
C2183 C269 1.893 . S
C2197 C357 1.752 . S
C2201 C1331 1.755 . S
C2215 C741 1.754 . S
C2219 C831 1.753 . S
C2233 C1065 1.280 . S
C2237 C711 1.276 . S
C2251 C1008 1.755 . S
C2255 C1095 1.754 . S
C2269 C878 1.885 . S
C2273 C1055 1.889 . S
