# Generated by pormake.
# Topology wgt, (5)-cn, num edge types: 1
# Building blocks:
#     Node 0, Type 0, BuildingBlock: BEQFEK_clean_sbu_0, # of connection points: 5
#     Node 1, Type 0, BuildingBlock: BEQFEK_clean_sbu_0, # of connection points: 5
#     Node 2, Type 0, BuildingBlock: BEQFEK_clean_sbu_0, # of connection points: 5
#     Node 3, Type 0, BuildingBlock: BEQFEK_clean_sbu_0, # of connection points: 5
#     Node 4, Type 0, BuildingBlock: BEQFEK_clean_sbu_0, # of connection points: 5
#     Node 5, Type 0, BuildingBlock: BEQFEK_clean_sbu_0, # of connection points: 5
#     Node 6, Type 0, BuildingBlock: BEQFEK_clean_sbu_0, # of connection points: 5
#     Node 7, Type 0, BuildingBlock: BEQFEK_clean_sbu_0, # of connection points: 5
#     Node 8, Type 0, BuildingBlock: BEQFEK_clean_sbu_0, # of connection points: 5
#     Node 9, Type 0, BuildingBlock: BEQFEK_clean_sbu_0, # of connection points: 5
#     Node 10, Type 0, BuildingBlock: BEQFEK_clean_sbu_0, # of connection points: 5
#     Node 11, Type 0, BuildingBlock: BEQFEK_clean_sbu_0, # of connection points: 5
#     Node 12, Type 0, BuildingBlock: BEQFEK_clean_sbu_0, # of connection points: 5
#     Node 13, Type 0, BuildingBlock: BEQFEK_clean_sbu_0, # of connection points: 5
#     Node 14, Type 0, BuildingBlock: BEQFEK_clean_sbu_0, # of connection points: 5
#     Node 15, Type 0, BuildingBlock: BEQFEK_clean_sbu_0, # of connection points: 5
#     Edge 16, Type (0, 0), BuildingBlock: KIFKEQ_clean_linker_1, # of connection points: 2
#     Edge 17, Type (0, 0), BuildingBlock: KIFKEQ_clean_linker_1, # of connection points: 2
#     Edge 18, Type (0, 0), BuildingBlock: KIFKEQ_clean_linker_1, # of connection points: 2
#     Edge 19, Type (0, 0), BuildingBlock: KIFKEQ_clean_linker_1, # of connection points: 2
#     Edge 20, Type (0, 0), BuildingBlock: KIFKEQ_clean_linker_1, # of connection points: 2
#     Edge 21, Type (0, 0), BuildingBlock: KIFKEQ_clean_linker_1, # of connection points: 2
#     Edge 22, Type (0, 0), BuildingBlock: KIFKEQ_clean_linker_1, # of connection points: 2
#     Edge 23, Type (0, 0), BuildingBlock: KIFKEQ_clean_linker_1, # of connection points: 2
#     Edge 24, Type (0, 0), BuildingBlock: KIFKEQ_clean_linker_1, # of connection points: 2
#     Edge 25, Type (0, 0), BuildingBlock: KIFKEQ_clean_linker_1, # of connection points: 2
#     Edge 26, Type (0, 0), BuildingBlock: KIFKEQ_clean_linker_1, # of connection points: 2
#     Edge 27, Type (0, 0), BuildingBlock: KIFKEQ_clean_linker_1, # of connection points: 2
#     Edge 28, Type (0, 0), BuildingBlock: KIFKEQ_clean_linker_1, # of connection points: 2
#     Edge 29, Type (0, 0), BuildingBlock: KIFKEQ_clean_linker_1, # of connection points: 2
#     Edge 30, Type (0, 0), BuildingBlock: KIFKEQ_clean_linker_1, # of connection points: 2
#     Edge 31, Type (0, 0), BuildingBlock: KIFKEQ_clean_linker_1, # of connection points: 2
#     Edge 32, Type (0, 0), BuildingBlock: KIFKEQ_clean_linker_1, # of connection points: 2
#     Edge 33, Type (0, 0), BuildingBlock: KIFKEQ_clean_linker_1, # of connection points: 2
#     Edge 34, Type (0, 0), BuildingBlock: KIFKEQ_clean_linker_1, # of connection points: 2
#     Edge 35, Type (0, 0), BuildingBlock: KIFKEQ_clean_linker_1, # of connection points: 2
#     Edge 36, Type (0, 0), BuildingBlock: KIFKEQ_clean_linker_1, # of connection points: 2
#     Edge 37, Type (0, 0), BuildingBlock: KIFKEQ_clean_linker_1, # of connection points: 2
#     Edge 38, Type (0, 0), BuildingBlock: KIFKEQ_clean_linker_1, # of connection points: 2
#     Edge 39, Type (0, 0), BuildingBlock: KIFKEQ_clean_linker_1, # of connection points: 2
#     Edge 40, Type (0, 0), BuildingBlock: KIFKEQ_clean_linker_1, # of connection points: 2
#     Edge 41, Type (0, 0), BuildingBlock: KIFKEQ_clean_linker_1, # of connection points: 2
#     Edge 42, Type (0, 0), BuildingBlock: KIFKEQ_clean_linker_1, # of connection points: 2
#     Edge 43, Type (0, 0), BuildingBlock: KIFKEQ_clean_linker_1, # of connection points: 2
#     Edge 44, Type (0, 0), BuildingBlock: KIFKEQ_clean_linker_1, # of connection points: 2
#     Edge 45, Type (0, 0), BuildingBlock: KIFKEQ_clean_linker_1, # of connection points: 2
#     Edge 46, Type (0, 0), BuildingBlock: KIFKEQ_clean_linker_1, # of connection points: 2
#     Edge 47, Type (0, 0), BuildingBlock: KIFKEQ_clean_linker_1, # of connection points: 2
#     Edge 48, Type (0, 0), BuildingBlock: KIFKEQ_clean_linker_1, # of connection points: 2
#     Edge 49, Type (0, 0), BuildingBlock: KIFKEQ_clean_linker_1, # of connection points: 2
#     Edge 50, Type (0, 0), BuildingBlock: KIFKEQ_clean_linker_1, # of connection points: 2
#     Edge 51, Type (0, 0), BuildingBlock: KIFKEQ_clean_linker_1, # of connection points: 2
#     Edge 52, Type (0, 0), BuildingBlock: KIFKEQ_clean_linker_1, # of connection points: 2
#     Edge 53, Type (0, 0), BuildingBlock: KIFKEQ_clean_linker_1, # of connection points: 2
#     Edge 54, Type (0, 0), BuildingBlock: KIFKEQ_clean_linker_1, # of connection points: 2
#     Edge 55, Type (0, 0), BuildingBlock: KIFKEQ_clean_linker_1, # of connection points: 2
# Relax obj value: 0.130
# Max RMSD: 0.183
# Mean RMSD: 0.183
data_MOF--net-wgt--node1-BEQFEK_clean_sbu_0--edge1-KIFKEQ_clean_linker_1
_symmetry_space_group_name_H-M    P1
_symmetry_Int_Tables_number       1
_symmetry_cell_setting            triclinic
loop_
_symmetry_equiv_pos_as_xyz
'x, y, z'
_cell_length_a     29.674856
_cell_length_b     29.660136
_cell_length_c     77.383782
_cell_angle_alpha  89.996765
_cell_angle_beta   89.997517
_cell_angle_gamma 90.004407
loop_
_atom_site_label
_atom_site_type_symbol
_atom_site_fract_x
_atom_site_fract_y
_atom_site_fract_z
_atom_type_partial_charge
Co0 Co 0.17191 0.31699 0.02786 0.0
Co1 Co 0.17325 0.3196 0.98702 0.0
C2 C 0.12229 0.24863 0.00682 0.0
O3 O 0.13594 0.26352 0.02135 0.0
O4 O 0.13471 0.26688 0.99269 0.0
C5 C 0.18509 0.28145 0.06232 0.0
O6 O 0.17954 0.24193 0.05495 0.0
C7 C 0.18776 0.2912 0.95044 0.0
C8 C 0.18905 0.35762 0.93754 0.0
C9 C 0.19188 0.31175 0.93434 0.0
N10 N 0.18301 0.3236 0.96253 0.0
N11 N 0.18402 0.36314 0.95468 0.0
C12 C 0.18636 0.24169 0.95418 0.0
H13 H 0.17076 0.2349 0.96687 0.0
H14 H 0.22128 0.22836 0.95449 0.0
H15 H 0.16749 0.22362 0.94391 0.0
C16 C 0.27009 0.32259 0.02233 0.0
N17 N 0.22777 0.31969 0.01619 0.0
N18 N 0.22889 0.31936 0.9992 0.0
C19 C 0.27224 0.32128 0.99398 0.0
C20 C 0.29982 0.32347 0.00849 0.0
C21 C 0.28147 0.32741 0.0411 0.0
H22 H 0.25853 0.35228 0.04718 0.0
H23 H 0.27669 0.29445 0.04763 0.0
H24 H 0.3167 0.33884 0.04303 0.0
O25 O 0.13443 0.36968 0.02225 0.0
O26 O 0.13664 0.3731 0.99357 0.0
H27 H 0.27645 0.35005 0.96871 0.0
H28 H 0.32362 0.31409 0.97419 0.0
C29 C 0.28671 0.31871 0.97548 0.0
H30 H 0.26955 0.28997 0.96914 0.0
H31 H 0.18067 0.394 0.96103 0.0
O32 O 0.1822 0.31696 0.05319 0.0
C33 C 0.12278 0.38804 0.00807 0.0
Co34 Co 0.67682 0.67432 0.27711 0.0
Co35 Co 0.67951 0.67258 0.23634 0.0
C36 C 0.74764 0.62282 0.25713 0.0
O37 O 0.72958 0.63606 0.2712 0.0
O38 O 0.73273 0.63588 0.24253 0.0
C39 C 0.68062 0.6616 0.31476 0.0
O40 O 0.67865 0.61799 0.31187 0.0
C41 C 0.70684 0.68444 0.19952 0.0
C42 C 0.64002 0.68445 0.18692 0.0
C43 C 0.68573 0.68752 0.18352 0.0
N44 N 0.67488 0.68014 0.2118 0.0
N45 N 0.6351 0.68031 0.20412 0.0
C46 C 0.75647 0.68341 0.20297 0.0
H47 H 0.76382 0.66801 0.21566 0.0
H48 H 0.76967 0.71839 0.20309 0.0
H49 H 0.77422 0.66446 0.19264 0.0
C50 C 0.6728 0.77217 0.27023 0.0
N51 N 0.67573 0.7293 0.26465 0.0
N52 N 0.67842 0.72917 0.24769 0.0
C53 C 0.67802 0.77216 0.24195 0.0
C54 C 0.67449 0.8009 0.2561 0.0
C55 C 0.66629 0.78517 0.28875 0.0
H56 H 0.64124 0.76247 0.29486 0.0
H57 H 0.69883 0.7815 0.29566 0.0
H58 H 0.65435 0.82045 0.29003 0.0
O59 O 0.62272 0.63766 0.27209 0.0
O60 O 0.62715 0.63525 0.24342 0.0
H61 H 0.65305 0.77491 0.21608 0.0
H62 H 0.68898 0.82191 0.22181 0.0
C63 C 0.68353 0.78517 0.22339 0.0
H64 H 0.71278 0.76702 0.21788 0.0
H65 H 0.60449 0.67714 0.21065 0.0
O66 O 0.67999 0.68881 0.30208 0.0
C67 C 0.60834 0.62357 0.25754 0.0
Co68 Co 0.32684 0.18065 0.52827 0.0
Co69 Co 0.32232 0.18345 0.48753 0.0
C70 C 0.37631 0.25071 0.50748 0.0
O71 O 0.36506 0.23348 0.52196 0.0
O72 O 0.36096 0.23519 0.49332 0.0
C73 C 0.31367 0.21447 0.56292 0.0
O74 O 0.31546 0.25431 0.55553 0.0
C75 C 0.30937 0.21409 0.45122 0.0
C76 C 0.30837 0.14834 0.43782 0.0
C77 C 0.30724 0.19441 0.43493 0.0
N78 N 0.31181 0.18101 0.46313 0.0
N79 N 0.31063 0.14187 0.45499 0.0
C80 C 0.31167 0.26338 0.45528 0.0
H81 H 0.32145 0.26924 0.46887 0.0
H82 H 0.27795 0.27863 0.4533 0.0
H83 H 0.3358 0.28043 0.44648 0.0
C84 C 0.2276 0.17767 0.52349 0.0
N85 N 0.26975 0.18091 0.51714 0.0
N86 N 0.26774 0.18327 0.50018 0.0
C87 C 0.22422 0.18248 0.4952 0.0
C88 C 0.19724 0.17865 0.50982 0.0
C89 C 0.21696 0.17049 0.54221 0.0
H90 H 0.24075 0.14567 0.54781 0.0
H91 H 0.22099 0.20285 0.54923 0.0
H92 H 0.18206 0.15799 0.54406 0.0
O93 O 0.3614 0.12635 0.52176 0.0
O94 O 0.35902 0.12961 0.49309 0.0
H95 H 0.21674 0.15606 0.46968 0.0
H96 H 0.17255 0.19483 0.47593 0.0
C97 C 0.2091 0.18754 0.47685 0.0
H98 H 0.22794 0.21547 0.47068 0.0
H99 H 0.31285 0.11065 0.46115 0.0
O100 O 0.31845 0.17933 0.5537 0.0
C101 C 0.37243 0.11094 0.50699 0.0
Co102 Co 0.81618 0.82142 0.77669 0.0
Co103 Co 0.81699 0.82733 0.73598 0.0
C104 C 0.74635 0.87391 0.75703 0.0
O105 O 0.76317 0.85965 0.77117 0.0
O106 O 0.7629 0.86237 0.7425 0.0
C107 C 0.78278 0.80966 0.81166 0.0
O108 O 0.74436 0.82432 0.80538 0.0
C109 C 0.78847 0.81389 0.69969 0.0
C110 C 0.85151 0.83044 0.68587 0.0
C111 C 0.80703 0.818 0.68325 0.0
N112 N 0.82067 0.82335 0.71139 0.0
N113 N 0.85827 0.83298 0.70302 0.0
C114 C 0.74046 0.80403 0.70424 0.0
H115 H 0.73424 0.7673 0.703 0.0
H116 H 0.71736 0.82191 0.69528 0.0
H117 H 0.73315 0.81389 0.71775 0.0
C118 C 0.82024 0.72397 0.76833 0.0
N119 N 0.81768 0.7675 0.76346 0.0
N120 N 0.81941 0.76984 0.7465 0.0
C121 C 0.8242 0.72793 0.74003 0.0
C122 C 0.82477 0.69738 0.75364 0.0
C123 C 0.81601 0.70843 0.78666 0.0
H124 H 0.78707 0.72568 0.79286 0.0
H125 H 0.81069 0.67151 0.78757 0.0
H126 H 0.84697 0.71776 0.79386 0.0
O127 O 0.87013 0.85932 0.77208 0.0
O128 O 0.86833 0.8642 0.74345 0.0
H129 H 0.85564 0.74243 0.71572 0.0
H130 H 0.84533 0.68334 0.71937 0.0
C131 C 0.83165 0.71778 0.72129 0.0
H132 H 0.79919 0.72074 0.71429 0.0
H133 H 0.88843 0.84202 0.70903 0.0
O134 O 0.81677 0.80641 0.80173 0.0
C135 C 0.88575 0.87469 0.75792 0.0
Co136 Co 0.82009 0.31922 0.52664 0.0
Co137 Co 0.82771 0.31918 0.48597 0.0
C138 C 0.87491 0.25007 0.50781 0.0
O139 O 0.85945 0.26678 0.52179 0.0
O140 O 0.86387 0.26613 0.49313 0.0
C141 C 0.82873 0.31413 0.56422 0.0
O142 O 0.8722 0.30945 0.56154 0.0
C143 C 0.81638 0.28923 0.44967 0.0
C144 C 0.83254 0.35213 0.43568 0.0
C145 C 0.82091 0.30736 0.43316 0.0
N146 N 0.82485 0.32194 0.46129 0.0
N147 N 0.83425 0.35944 0.45281 0.0
C148 C 0.80703 0.24121 0.45439 0.0
H149 H 0.81681 0.23442 0.46796 0.0
H150 H 0.77042 0.23453 0.4531 0.0
H151 H 0.82533 0.21807 0.44557 0.0
C152 C 0.72322 0.32023 0.51769 0.0
N153 N 0.7669 0.31888 0.513 0.0
N154 N 0.76967 0.32054 0.49605 0.0
C155 C 0.72781 0.32433 0.48942 0.0
C156 C 0.6969 0.32429 0.50293 0.0
C157 C 0.70725 0.31495 0.53593 0.0
H158 H 0.72643 0.28753 0.54232 0.0
H159 H 0.67088 0.3066 0.53658 0.0
H160 H 0.71354 0.34676 0.54308 0.0
O161 O 0.85715 0.37399 0.52214 0.0
O162 O 0.86282 0.37175 0.49352 0.0
H163 H 0.74264 0.35533 0.46505 0.0
H164 H 0.68352 0.34479 0.46859 0.0
C165 C 0.71799 0.33135 0.47063 0.0
H166 H 0.72126 0.29874 0.46375 0.0
H167 H 0.84256 0.38993 0.45873 0.0
O168 O 0.80244 0.31878 0.55138 0.0
C169 C 0.87254 0.38972 0.50798 0.0
Co170 Co 0.69358 0.3235 0.77749 0.0
Co171 Co 0.68545 0.32527 0.73686 0.0
C172 C 0.75842 0.37549 0.7558 0.0
O173 O 0.74565 0.3612 0.77053 0.0
O174 O 0.73834 0.36344 0.74202 0.0
C175 C 0.6919 0.33563 0.81494 0.0
O176 O 0.67908 0.37725 0.81184 0.0
C177 C 0.71256 0.31362 0.70028 0.0
C178 C 0.64713 0.32164 0.68704 0.0
C179 C 0.69272 0.31526 0.68402 0.0
N180 N 0.68009 0.31872 0.7123 0.0
N181 N 0.64106 0.3231 0.70426 0.0
C182 C 0.76179 0.3101 0.7043 0.0
H183 H 0.7686 0.31786 0.71803 0.0
H184 H 0.77335 0.27515 0.70184 0.0
H185 H 0.78136 0.33309 0.69583 0.0
C186 C 0.68687 0.22573 0.77078 0.0
N187 N 0.68965 0.2685 0.76508 0.0
N188 N 0.68764 0.26865 0.7481 0.0
C189 C 0.68427 0.22576 0.74242 0.0
C190 C 0.68368 0.19705 0.75664 0.0
C191 C 0.68377 0.21306 0.78947 0.0
H192 H 0.65971 0.23578 0.79613 0.0
H193 H 0.71738 0.21717 0.79554 0.0
H194 H 0.67219 0.17781 0.79123 0.0
O195 O 0.63913 0.36057 0.77374 0.0
O196 O 0.63253 0.36031 0.74508 0.0
H197 H 0.65183 0.22565 0.71777 0.0
H198 H 0.68564 0.17591 0.72186 0.0
C199 C 0.68334 0.21288 0.72373 0.0
H200 H 0.7121 0.22896 0.71701 0.0
H201 H 0.61037 0.32835 0.71054 0.0
O202 O 0.69983 0.30927 0.80237 0.0
C203 C 0.61891 0.37277 0.75998 0.0
Co204 Co 0.67298 0.17907 0.02797 0.0
Co205 Co 0.67299 0.18706 0.98726 0.0
C206 C 0.62187 0.252 0.0091 0.0
O207 O 0.63461 0.2324 0.02293 0.0
O208 O 0.63549 0.23875 0.99436 0.0
C209 C 0.687 0.21169 0.06253 0.0
O210 O 0.68074 0.25138 0.05538 0.0
C211 C 0.68323 0.2199 0.95096 0.0
C212 C 0.69081 0.15483 0.93738 0.0
C213 C 0.68898 0.20095 0.93465 0.0
N214 N 0.68205 0.18636 0.96272 0.0
N215 N 0.68678 0.14767 0.95446 0.0
C216 C 0.67716 0.26879 0.95516 0.0
H217 H 0.65931 0.27326 0.96755 0.0
H218 H 0.71077 0.28489 0.95633 0.0
H219 H 0.65809 0.28613 0.94477 0.0
C220 C 0.77116 0.17565 0.0217 0.0
N221 N 0.72854 0.18013 0.01599 0.0
N222 N 0.72893 0.18504 0.99911 0.0
C223 C 0.77201 0.18487 0.99355 0.0
C224 C 0.80027 0.17865 0.00769 0.0
C225 C 0.78328 0.1654 0.04008 0.0
H226 H 0.75956 0.14009 0.04541 0.0
H227 H 0.78035 0.19665 0.04788 0.0
H228 H 0.81809 0.1521 0.04119 0.0
O229 O 0.63746 0.12575 0.02128 0.0
O230 O 0.63602 0.13302 0.9927 0.0
H231 H 0.77881 0.16209 0.96749 0.0
H232 H 0.82186 0.20166 0.97409 0.0
C233 C 0.78564 0.1929 0.97519 0.0
H234 H 0.76542 0.22087 0.96972 0.0
H235 H 0.68673 0.11621 0.9605 0.0
O236 O 0.68432 0.17648 0.05322 0.0
C237 C 0.62424 0.11256 0.00646 0.0
Co238 Co 0.82481 0.17256 0.2772 0.0
Co239 Co 0.81944 0.175 0.23644 0.0
C240 C 0.75284 0.12285 0.2572 0.0
O241 O 0.77152 0.13483 0.27132 0.0
O242 O 0.76705 0.13726 0.24268 0.0
C243 C 0.79157 0.18731 0.31179 0.0
O244 O 0.75176 0.1855 0.30439 0.0
C245 C 0.7894 0.18863 0.19999 0.0
C246 C 0.85545 0.19051 0.18683 0.0
C247 C 0.80951 0.19232 0.18381 0.0
N248 N 0.82215 0.18498 0.21198 0.0
N249 N 0.86146 0.18644 0.20398 0.0
C250 C 0.74002 0.18634 0.20384 0.0
H251 H 0.72585 0.22094 0.20374 0.0
H252 H 0.72231 0.16626 0.19382 0.0
H253 H 0.73374 0.17159 0.21673 0.0
C254 C 0.82798 0.27138 0.27181 0.0
N255 N 0.82462 0.22898 0.26571 0.0
N256 N 0.82105 0.2303 0.24877 0.0
C257 C 0.82121 0.2737 0.24357 0.0
C258 C 0.82577 0.30125 0.25801 0.0
C259 C 0.83588 0.28278 0.29041 0.0
H260 H 0.86078 0.2591 0.29604 0.0
H261 H 0.80376 0.27925 0.29762 0.0
H262 H 0.8486 0.31771 0.29196 0.0
O263 O 0.87823 0.13687 0.27064 0.0
O264 O 0.87262 0.13727 0.24202 0.0
H265 H 0.84515 0.28016 0.21765 0.0
H266 H 0.80721 0.32476 0.2242 0.0
C267 C 0.81444 0.28819 0.22522 0.0
H268 H 0.78587 0.26925 0.21956 0.0
H269 H 0.89251 0.18378 0.21023 0.0
O270 O 0.82668 0.18196 0.3026 0.0
C271 C 0.89212 0.12439 0.25583 0.0
Co272 Co 0.67415 0.8181 0.52737 0.0
Co273 Co 0.67672 0.81307 0.48667 0.0
C274 C 0.62476 0.74623 0.50754 0.0
O275 O 0.63688 0.76456 0.52169 0.0
O276 O 0.63874 0.76103 0.49306 0.0
C277 C 0.68871 0.78523 0.56192 0.0
O278 O 0.68743 0.74537 0.55453 0.0
C279 C 0.68931 0.78026 0.45063 0.0
C280 C 0.6888 0.84505 0.43655 0.0
C281 C 0.69078 0.79882 0.43413 0.0
N282 N 0.68643 0.81412 0.4622 0.0
N283 N 0.68668 0.85268 0.45366 0.0
C284 C 0.68816 0.73125 0.45522 0.0
H285 H 0.6782 0.72614 0.46883 0.0
H286 H 0.72232 0.71675 0.45353 0.0
H287 H 0.66469 0.71292 0.44653 0.0
C288 C 0.77272 0.82241 0.52211 0.0
N289 N 0.73051 0.8181 0.51595 0.0
N290 N 0.732 0.81481 0.49901 0.0
C291 C 0.77539 0.81612 0.49385 0.0
C292 C 0.80269 0.82113 0.50834 0.0
C293 C 0.78371 0.83096 0.54071 0.0
H294 H 0.75955 0.85561 0.54619 0.0
H295 H 0.7806 0.79895 0.54803 0.0
H296 H 0.81836 0.84434 0.54231 0.0
O297 O 0.63869 0.87147 0.52071 0.0
O298 O 0.63938 0.86684 0.49205 0.0
H299 H 0.78116 0.84157 0.46812 0.0
H300 H 0.82693 0.80475 0.47444 0.0
C301 C 0.79015 0.81074 0.47547 0.0
H302 H 0.7721 0.78188 0.46957 0.0
H303 H 0.684 0.88427 0.4595 0.0
O304 O 0.68321 0.82029 0.55271 0.0
C305 C 0.62659 0.88602 0.50595 0.0
Co306 Co 0.18606 0.17631 0.77793 0.0
Co307 Co 0.18471 0.1727 0.73714 0.0
C308 C 0.25486 0.12386 0.75791 0.0
O309 O 0.23869 0.13746 0.77226 0.0
O310 O 0.23803 0.13649 0.74355 0.0
C311 C 0.21837 0.18712 0.81322 0.0
O312 O 0.25722 0.1729 0.80717 0.0
C313 C 0.21379 0.18678 0.70085 0.0
C314 C 0.15032 0.17242 0.68698 0.0
C315 C 0.19514 0.18364 0.68439 0.0
N316 N 0.18132 0.1779 0.71253 0.0
N317 N 0.14348 0.16961 0.70412 0.0
C318 C 0.26205 0.19516 0.70544 0.0
H319 H 0.26907 0.18481 0.71892 0.0
H320 H 0.2693 0.23173 0.7043 0.0
H321 H 0.28464 0.17681 0.69642 0.0
C322 C 0.1843 0.27437 0.77024 0.0
N323 N 0.18555 0.231 0.76507 0.0
N324 N 0.18348 0.22956 0.74809 0.0
C325 C 0.1798 0.27187 0.74192 0.0
C326 C 0.18033 0.30178 0.75574 0.0
C327 C 0.18942 0.28893 0.78866 0.0
H328 H 0.21803 0.27061 0.79461 0.0
H329 H 0.19577 0.32564 0.78979 0.0
H330 H 0.15839 0.28011 0.79591 0.0
O331 O 0.13157 0.13946 0.77296 0.0
O332 O 0.1326 0.13655 0.74429 0.0
H333 H 0.1598 0.31794 0.72158 0.0
H334 H 0.20495 0.27957 0.71623 0.0
C335 C 0.17259 0.28308 0.72326 0.0
H336 H 0.14795 0.25932 0.71754 0.0
H337 H 0.11307 0.16122 0.71009 0.0
O338 O 0.18486 0.19035 0.80305 0.0
C339 C 0.11531 0.1254 0.75871 0.0
Co340 Co 0.81629 0.6816 0.02688 0.0
Co341 Co 0.81711 0.67965 0.98607 0.0
C342 C 0.86764 0.74992 0.0064 0.0
O343 O 0.85319 0.73489 0.02081 0.0
O344 O 0.85577 0.732 0.99214 0.0
C345 C 0.80314 0.71568 0.06165 0.0
O346 O 0.81036 0.75553 0.05478 0.0
C347 C 0.80564 0.70784 0.94929 0.0
C348 C 0.80266 0.64116 0.93662 0.0
C349 C 0.80161 0.687 0.93324 0.0
N350 N 0.80862 0.67562 0.96153 0.0
N351 N 0.80663 0.63593 0.95381 0.0
C352 C 0.8086 0.75737 0.95283 0.0
H353 H 0.77411 0.77177 0.95313 0.0
H354 H 0.82796 0.77461 0.94249 0.0
H355 H 0.82453 0.76398 0.96548 0.0
C356 C 0.71823 0.67779 0.02057 0.0
N357 N 0.76095 0.6798 0.01478 0.0
N358 N 0.76078 0.68049 0.99779 0.0
C359 C 0.71769 0.67979 0.99221 0.0
C360 C 0.68923 0.67796 0.00649 0.0
C361 C 0.70578 0.67301 0.03924 0.0
H362 H 0.72784 0.64755 0.04544 0.0
H363 H 0.71101 0.70575 0.04587 0.0
H364 H 0.67021 0.66236 0.04088 0.0
O365 O 0.85351 0.62862 0.02146 0.0
O366 O 0.85285 0.62572 0.99278 0.0
H367 H 0.71351 0.65182 0.96681 0.0
H368 H 0.66778 0.68982 0.97206 0.0
C369 C 0.70436 0.68346 0.97361 0.0
H370 H 0.72316 0.71151 0.96751 0.0
H371 H 0.80855 0.60514 0.9603 0.0
O372 O 0.80488 0.68082 0.05212 0.0
C373 C 0.86577 0.61038 0.00734 0.0
Co374 Co 0.32222 0.31143 0.27699 0.0
Co375 Co 0.31836 0.31407 0.23626 0.0
C376 C 0.25087 0.36333 0.25758 0.0
O377 O 0.26923 0.34974 0.27154 0.0
O378 O 0.26549 0.35068 0.24289 0.0
C379 C 0.31842 0.32454 0.31443 0.0
O380 O 0.31876 0.36804 0.31122 0.0
C381 C 0.28893 0.30314 0.19967 0.0
C382 C 0.35484 0.305 0.1864 0.0
C383 C 0.30897 0.30142 0.18343 0.0
N384 N 0.32165 0.30725 0.21165 0.0
N385 N 0.36089 0.30812 0.20358 0.0
C386 C 0.23954 0.30324 0.20361 0.0
H387 H 0.22658 0.2682 0.20309 0.0
H388 H 0.22101 0.32351 0.19386 0.0
H389 H 0.23288 0.31665 0.21668 0.0
C390 C 0.32579 0.21374 0.26983 0.0
N391 N 0.32282 0.25672 0.26438 0.0
N392 N 0.31976 0.25721 0.24743 0.0
C393 C 0.31994 0.21436 0.24156 0.0
C394 C 0.32374 0.1853 0.25561 0.0
C395 C 0.33274 0.20042 0.2883 0.0
H396 H 0.35826 0.22277 0.29432 0.0
H397 H 0.30051 0.20445 0.29539 0.0
H398 H 0.34432 0.16499 0.28947 0.0
O399 O 0.37609 0.3482 0.2718 0.0
O400 O 0.37107 0.35121 0.24314 0.0
H401 H 0.34411 0.21244 0.21557 0.0
H402 H 0.30861 0.16508 0.22127 0.0
C403 C 0.31393 0.20179 0.22298 0.0
H404 H 0.2844 0.21992 0.21767 0.0
H405 H 0.39188 0.3115 0.20982 0.0
O406 O 0.32002 0.29678 0.30194 0.0
C407 C 0.39017 0.36258 0.25724 0.0
Co408 Co 0.31705 0.82534 0.02748 0.0
Co409 Co 0.31486 0.82069 0.98676 0.0
C410 C 0.36684 0.75373 0.00675 0.0
O411 O 0.35504 0.77276 0.02082 0.0
O412 O 0.35212 0.76752 0.99223 0.0
C413 C 0.29013 0.78772 0.05949 0.0
O414 O 0.27771 0.75471 0.04921 0.0
C415 C 0.30498 0.79133 0.95046 0.0
C416 C 0.28789 0.85564 0.93762 0.0
C417 C 0.29482 0.81017 0.93447 0.0
N418 N 0.30425 0.82425 0.96242 0.0
N419 N 0.29417 0.86259 0.95463 0.0
C420 C 0.31168 0.74254 0.95465 0.0
H421 H 0.29916 0.73521 0.96786 0.0
H422 H 0.29389 0.7207 0.94521 0.0
H423 H 0.34823 0.73469 0.95422 0.0
C424 C 0.21804 0.83107 0.02186 0.0
N425 N 0.26052 0.82621 0.01597 0.0
N426 N 0.25949 0.82147 0.99907 0.0
C427 C 0.21622 0.82152 0.99374 0.0
C428 C 0.18846 0.8279 0.008 0.0
C429 C 0.20611 0.84252 0.04014 0.0
H430 H 0.23343 0.86253 0.04618 0.0
H431 H 0.20136 0.81095 0.0476 0.0
H432 H 0.17424 0.86205 0.04069 0.0
O433 O 0.35234 0.87939 0.0215 0.0
O434 O 0.35267 0.87371 0.99284 0.0
H435 H 0.20559 0.84455 0.96791 0.0
H436 H 0.16627 0.80172 0.9748 0.0
C437 C 0.20184 0.81304 0.97549 0.0
H438 H 0.22352 0.78678 0.96963 0.0
H439 H 0.29122 0.89349 0.96098 0.0
O440 O 0.3085 0.82251 0.05297 0.0
C441 C 0.36513 0.8933 0.00671 0.0
Co442 Co 0.17391 0.81426 0.27694 0.0
Co443 Co 0.17872 0.80993 0.23615 0.0
C444 C 0.24554 0.86316 0.25617 0.0
O445 O 0.2268 0.85186 0.27038 0.0
O446 O 0.23152 0.84794 0.24173 0.0
C447 C 0.20761 0.80411 0.3119 0.0
O448 O 0.24741 0.80948 0.30476 0.0
C449 C 0.20627 0.80308 0.19933 0.0
C450 C 0.14552 0.77188 0.18792 0.0
C451 C 0.18831 0.78722 0.18392 0.0
N452 N 0.17542 0.79728 0.21189 0.0
N453 N 0.13909 0.77899 0.20492 0.0
C454 C 0.25281 0.82075 0.20233 0.0
H455 H 0.26638 0.80697 0.2146 0.0
H456 H 0.27573 0.81179 0.19153 0.0
H457 H 0.25131 0.858 0.20352 0.0
C458 C 0.17097 0.71542 0.27239 0.0
N459 N 0.17415 0.75744 0.26591 0.0
N460 N 0.17819 0.75521 0.24901 0.0
C461 C 0.17897 0.71145 0.24424 0.0
C462 C 0.17394 0.68478 0.25888 0.0
C463 C 0.16255 0.70515 0.29106 0.0
H464 H 0.13712 0.72886 0.29632 0.0
H465 H 0.19433 0.7097 0.29841 0.0
H466 H 0.15027 0.67015 0.2929 0.0
O467 O 0.12022 0.8491 0.27027 0.0
O468 O 0.12543 0.8479 0.24162 0.0
H469 H 0.15536 0.69456 0.21899 0.0
H470 H 0.2022 0.66091 0.2262 0.0
C471 C 0.18762 0.69536 0.22621 0.0
H472 H 0.21123 0.71849 0.21954 0.0
H473 H 0.11008 0.77074 0.21185 0.0
O474 O 0.17258 0.80585 0.30245 0.0
C475 C 0.10606 0.86107 0.25543 0.0
Co476 Co 0.17709 0.68549 0.52906 0.0
Co477 Co 0.17392 0.68813 0.48813 0.0
C478 C 0.12573 0.75679 0.50925 0.0
O479 O 0.13907 0.73872 0.52332 0.0
O480 O 0.13836 0.74169 0.49462 0.0
C481 C 0.16703 0.69299 0.56694 0.0
O482 O 0.12361 0.69861 0.56442 0.0
C483 C 0.18395 0.71529 0.45112 0.0
C484 C 0.18137 0.64846 0.43856 0.0
C485 C 0.18502 0.69411 0.43507 0.0
N486 N 0.18009 0.68343 0.46347 0.0
N487 N 0.17878 0.64364 0.45581 0.0
C488 C 0.18431 0.76494 0.45458 0.0
H489 H 0.17065 0.77255 0.46754 0.0
H490 H 0.21953 0.77742 0.45407 0.0
H491 H 0.1645 0.78308 0.44459 0.0
C492 C 0.27426 0.67898 0.52151 0.0
N493 N 0.23136 0.6835 0.51617 0.0
N494 N 0.23069 0.68615 0.49921 0.0
C495 C 0.27336 0.68423 0.49322 0.0
C496 C 0.30244 0.67962 0.5072 0.0
C497 C 0.28762 0.6712 0.53991 0.0
H498 H 0.26466 0.6461 0.54585 0.0
H499 H 0.28457 0.70337 0.54713 0.0
H500 H 0.32268 0.65857 0.541 0.0
O501 O 0.13976 0.63181 0.52419 0.0
O502 O 0.13639 0.63623 0.49551 0.0
H503 H 0.27494 0.65817 0.4675 0.0
H504 H 0.32255 0.69371 0.4728 0.0
C505 C 0.28581 0.68884 0.47457 0.0
H506 H 0.26784 0.71809 0.46895 0.0
H507 H 0.17546 0.61309 0.46238 0.0
O508 O 0.19293 0.68731 0.55403 0.0
C509 C 0.1251 0.61753 0.50971 0.0
Co510 Co 0.31865 0.67636 0.77852 0.0
Co511 Co 0.3259 0.6725 0.73784 0.0
C512 C 0.25339 0.62314 0.75783 0.0
O513 O 0.26626 0.63815 0.77244 0.0
O514 O 0.27335 0.63453 0.74393 0.0
C515 C 0.28211 0.68917 0.8128 0.0
O516 O 0.24358 0.679 0.8054 0.0
C517 C 0.29438 0.68592 0.70199 0.0
C518 C 0.35608 0.67006 0.68724 0.0
C519 C 0.31102 0.68131 0.68527 0.0
N520 N 0.32809 0.67766 0.71321 0.0
N521 N 0.36493 0.66861 0.70428 0.0
C522 C 0.24673 0.69489 0.70731 0.0
H523 H 0.24162 0.68715 0.72117 0.0
H524 H 0.23902 0.7311 0.70532 0.0
H525 H 0.22313 0.67476 0.69928 0.0
C526 C 0.32062 0.77444 0.7708 0.0
N527 N 0.32031 0.73104 0.76566 0.0
N528 N 0.3246 0.72951 0.74875 0.0
C529 C 0.32877 0.77181 0.74261 0.0
C530 C 0.32631 0.80182 0.75637 0.0
C531 C 0.3131 0.78906 0.78909 0.0
H532 H 0.28365 0.77086 0.79446 0.0
H533 H 0.30671 0.82578 0.7901 0.0
H534 H 0.34306 0.78011 0.79696 0.0
O535 O 0.37302 0.63894 0.77396 0.0
O536 O 0.37945 0.63836 0.74533 0.0
H537 H 0.36306 0.75864 0.71876 0.0
H538 H 0.35184 0.81753 0.72265 0.0
C539 C 0.33828 0.78288 0.72409 0.0
H540 H 0.30667 0.77997 0.71653 0.0
H541 H 0.39586 0.66019 0.70982 0.0
O542 O 0.31783 0.68982 0.80371 0.0
C543 C 0.39322 0.6264 0.76023 0.0
H544 H 0.1554 0.34268 0.9045 0.0
H545 H 0.23855 0.23535 0.92461 0.0
H546 H 0.16194 0.31095 0.8756 0.0
H547 H 0.24348 0.2024 0.8958 0.0
H548 H 0.2838 0.1889 0.83821 0.0
H549 H 0.27734 0.21738 0.8677 0.0
H550 H 0.13659 0.24683 0.85895 0.0
H551 H 0.14324 0.21939 0.82943 0.0
C552 C 0.1747 0.31201 0.90279 0.0
C553 C 0.19558 0.29102 0.91695 0.0
C554 C 0.17813 0.29358 0.88623 0.0
C555 C 0.20281 0.25381 0.88339 0.0
C556 C 0.22421 0.23307 0.89754 0.0
C557 C 0.22073 0.25155 0.91413 0.0
C558 C 0.25144 0.20129 0.84261 0.0
C559 C 0.21411 0.20205 0.83143 0.0
C560 C 0.24767 0.21738 0.85955 0.0
C561 C 0.2065 0.23461 0.86568 0.0
C562 C 0.16899 0.23451 0.85457 0.0
C563 C 0.17275 0.21848 0.83766 0.0
H564 H 0.65639 0.64737 0.15417 0.0
H565 H 0.75925 0.73744 0.17328 0.0
H566 H 0.68713 0.65419 0.12508 0.0
H567 H 0.79096 0.7432 0.14424 0.0
H568 H 0.79646 0.7825 0.08599 0.0
H569 H 0.77033 0.77539 0.1158 0.0
H570 H 0.75426 0.63185 0.10869 0.0
H571 H 0.77968 0.63891 0.07892 0.0
C572 C 0.68587 0.66829 0.15217 0.0
C573 C 0.70594 0.6911 0.16608 0.0
C574 C 0.70368 0.67193 0.13554 0.0
C575 C 0.74176 0.6989 0.13238 0.0
C576 C 0.7616 0.72216 0.14627 0.0
C577 C 0.74386 0.71829 0.16296 0.0
C578 C 0.78758 0.7494 0.09082 0.0
C579 C 0.78996 0.71132 0.08004 0.0
C580 C 0.77285 0.7453 0.10793 0.0
C581 C 0.76 0.70309 0.11457 0.0
C582 C 0.76329 0.66494 0.10388 0.0
C583 C 0.77813 0.66898 0.08683 0.0
H584 H 0.31132 0.23705 0.32479 0.0
H585 H 0.31981 0.37289 0.34473 0.0
H586 H 0.30794 0.2078 0.354 0.0
H587 H 0.31745 0.34323 0.37423 0.0
H588 H 0.26415 0.27144 0.4237 0.0
H589 H 0.2673 0.30489 0.39489 0.0
H590 H 0.35718 0.1987 0.37837 0.0
H591 H 0.35386 0.16539 0.40705 0.0
C592 C 0.31272 0.26074 0.33541 0.0
C593 C 0.31608 0.30734 0.33238 0.0
C594 C 0.31103 0.24388 0.3522 0.0
C595 C 0.31287 0.27311 0.36647 0.0
C596 C 0.31566 0.31983 0.36351 0.0
C597 C 0.31725 0.3368 0.34661 0.0
C598 C 0.28527 0.2558 0.41403 0.0
C599 C 0.30922 0.21608 0.41772 0.0
C600 C 0.28692 0.27486 0.39748 0.0
C601 C 0.31238 0.25441 0.3843 0.0
C602 C 0.33662 0.21493 0.38812 0.0
C603 C 0.33482 0.19589 0.40458 0.0
H604 H 0.69681 0.86283 0.58064 0.0
H605 H 0.70705 0.71792 0.58511 0.0
H606 H 0.72092 0.87084 0.61054 0.0
H607 H 0.73201 0.72609 0.61501 0.0
H608 H 0.74236 0.75702 0.67285 0.0
H609 H 0.70871 0.7499 0.64418 0.0
H610 H 0.7917 0.85974 0.62596 0.0
H611 H 0.82403 0.86783 0.65469 0.0
C612 C 0.70398 0.83264 0.58802 0.0
C613 C 0.70027 0.78972 0.58045 0.0
C614 C 0.71804 0.83727 0.60514 0.0
C615 C 0.72874 0.79913 0.61511 0.0
C616 C 0.72366 0.75612 0.60772 0.0
C617 C 0.70961 0.75147 0.59055 0.0
C618 C 0.75255 0.78037 0.66286 0.0
C619 C 0.78518 0.81362 0.66613 0.0
C620 C 0.73378 0.77583 0.64635 0.0
C621 C 0.7473 0.80445 0.63282 0.0
C622 C 0.77992 0.83767 0.63616 0.0
C623 C 0.79874 0.84206 0.65259 0.0
H624 H 0.7616 0.2411 0.4227 0.0
H625 H 0.87095 0.32488 0.40469 0.0
H626 H 0.75553 0.20715 0.39404 0.0
H627 H 0.86391 0.29221 0.37597 0.0
H628 H 0.86896 0.19753 0.33051 0.0
H629 H 0.87641 0.22199 0.36041 0.0
H630 H 0.73152 0.22966 0.36487 0.0
H631 H 0.72395 0.20437 0.33499 0.0
C632 C 0.78488 0.2517 0.41275 0.0
C633 C 0.81738 0.28506 0.41607 0.0
C634 C 0.78093 0.23274 0.39624 0.0
C635 C 0.80941 0.24677 0.38274 0.0
C636 C 0.84195 0.28004 0.38613 0.0
C637 C 0.84574 0.29904 0.40257 0.0
C638 C 0.83864 0.20403 0.33789 0.0
C639 C 0.79585 0.19922 0.33032 0.0
C640 C 0.84293 0.2183 0.35502 0.0
C641 C 0.80458 0.22811 0.365 0.0
C642 C 0.76173 0.222 0.35759 0.0
C643 C 0.75742 0.20776 0.34043 0.0
H644 H 0.87451 0.30834 0.59497 0.0
H645 H 0.7403 0.31916 0.57371 0.0
H646 H 0.84288 0.30895 0.62414 0.0
H647 H 0.70885 0.31868 0.60265 0.0
H648 H 0.66985 0.36601 0.65626 0.0
H649 H 0.704 0.36636 0.62764 0.0
H650 H 0.79772 0.26325 0.6439 0.0
H651 H 0.76346 0.26304 0.67254 0.0
C652 C 0.83831 0.31066 0.5965 0.0
C653 C 0.80999 0.31389 0.58198 0.0
C654 C 0.82016 0.31076 0.61321 0.0
C655 C 0.77332 0.31409 0.61575 0.0
C656 C 0.74511 0.31691 0.6012 0.0
C657 C 0.76319 0.3169 0.58456 0.0
C658 C 0.69779 0.34345 0.65372 0.0
C659 C 0.71445 0.31511 0.66677 0.0
C660 C 0.71729 0.34352 0.6373 0.0
C661 C 0.75368 0.31485 0.63345 0.0
C662 C 0.77033 0.28639 0.64652 0.0
C663 C 0.75082 0.28643 0.66299 0.0
H664 H 0.65554 0.16812 0.90463 0.0
H665 H 0.72678 0.28274 0.9256 0.0
H666 H 0.65782 0.20233 0.87605 0.0
H667 H 0.72825 0.31742 0.89698 0.0
H668 H 0.67487 0.38078 0.84525 0.0
H669 H 0.67531 0.34976 0.87457 0.0
H670 H 0.71604 0.22036 0.85433 0.0
H671 H 0.71545 0.25093 0.82522 0.0
C672 C 0.67155 0.20072 0.90316 0.0
C673 C 0.69014 0.22307 0.91748 0.0
C674 C 0.67293 0.22027 0.88678 0.0
C675 C 0.69315 0.26261 0.88428 0.0
C676 C 0.71179 0.28509 0.89858 0.0
C677 C 0.71061 0.26534 0.91501 0.0
C678 C 0.68415 0.34579 0.84708 0.0
C679 C 0.69471 0.31825 0.83286 0.0
C680 C 0.68457 0.32811 0.86387 0.0
C681 C 0.69526 0.28252 0.86671 0.0
C682 C 0.70687 0.2554 0.85252 0.0
C683 C 0.7067 0.27304 0.83582 0.0
H684 H 0.83834 0.15128 0.15458 0.0
H685 H 0.73393 0.23939 0.1738 0.0
H686 H 0.80579 0.15542 0.12571 0.0
H687 H 0.7005 0.24252 0.14497 0.0
H688 H 0.69279 0.27941 0.08646 0.0
H689 H 0.7197 0.27402 0.1162 0.0
H690 H 0.73817 0.13052 0.10993 0.0
H691 H 0.71185 0.13586 0.08017 0.0
C692 C 0.80816 0.17121 0.15266 0.0
C693 C 0.78823 0.19433 0.16653 0.0
C694 C 0.7893 0.17328 0.13616 0.0
C695 C 0.75032 0.19895 0.13309 0.0
C696 C 0.73055 0.22244 0.14694 0.0
C697 C 0.74932 0.22012 0.16351 0.0
C698 C 0.70232 0.24666 0.09146 0.0
C699 C 0.70038 0.20811 0.08091 0.0
C700 C 0.71749 0.24356 0.10853 0.0
C701 C 0.73126 0.20188 0.11538 0.0
C702 C 0.72836 0.1632 0.10494 0.0
C703 C 0.71302 0.16625 0.08792 0.0
H704 H 0.67788 0.61487 0.34546 0.0
H705 H 0.68972 0.74938 0.32449 0.0
H706 H 0.68021 0.64613 0.37474 0.0
H707 H 0.69284 0.78017 0.35345 0.0
H708 H 0.64472 0.82599 0.40583 0.0
H709 H 0.64194 0.79085 0.37746 0.0
H710 H 0.73115 0.68553 0.39524 0.0
H711 H 0.734 0.72093 0.42372 0.0
C712 C 0.68117 0.65099 0.34706 0.0
C713 C 0.68324 0.67963 0.3326 0.0
C714 C 0.68272 0.66886 0.36382 0.0
C715 C 0.68628 0.71568 0.36642 0.0
C716 C 0.68914 0.74405 0.35193 0.0
C717 C 0.68757 0.72629 0.33527 0.0
C718 C 0.66374 0.79531 0.40371 0.0
C719 C 0.68908 0.77596 0.41712 0.0
C720 C 0.66223 0.77521 0.38743 0.0
C721 C 0.68642 0.73543 0.38407 0.0
C722 C 0.71158 0.71578 0.3975 0.0
C723 C 0.71303 0.73597 0.41386 0.0
H724 H 0.30354 0.13696 0.58157 0.0
H725 H 0.29751 0.28204 0.58627 0.0
H726 H 0.27943 0.12933 0.6115 0.0
H727 H 0.27261 0.27428 0.6162 0.0
H728 H 0.26172 0.24274 0.67408 0.0
H729 H 0.29538 0.24936 0.64538 0.0
H730 H 0.20901 0.14238 0.62699 0.0
H731 H 0.17658 0.13483 0.65571 0.0
C732 C 0.29732 0.16727 0.58901 0.0
C733 C 0.3022 0.21013 0.58148 0.0
C734 C 0.28326 0.16286 0.60615 0.0
C735 C 0.27374 0.20118 0.61619 0.0
C736 C 0.28001 0.2441 0.60885 0.0
C737 C 0.29404 0.24853 0.59167 0.0
C738 C 0.25075 0.21991 0.66404 0.0
C739 C 0.21711 0.18764 0.66727 0.0
C740 C 0.26955 0.22417 0.64751 0.0
C741 C 0.2551 0.19619 0.63392 0.0
C742 C 0.2215 0.16393 0.63722 0.0
C743 C 0.20264 0.15986 0.65366 0.0
H744 H 0.75752 0.76436 0.92298 0.0
H745 H 0.83861 0.65438 0.90376 0.0
H746 H 0.75457 0.79667 0.89402 0.0
H747 H 0.83407 0.68553 0.87471 0.0
H748 H 0.85659 0.77578 0.8283 0.0
H749 H 0.86157 0.74872 0.85793 0.0
H750 H 0.72121 0.7814 0.86585 0.0
H751 H 0.71642 0.80945 0.83626 0.0
C752 C 0.77531 0.74743 0.91266 0.0
C753 C 0.79929 0.70739 0.91577 0.0
C754 C 0.77297 0.76555 0.89598 0.0
C755 C 0.79436 0.74388 0.88205 0.0
C756 C 0.81791 0.70358 0.88518 0.0
C757 C 0.8202 0.6855 0.90182 0.0
C758 C 0.82682 0.77746 0.83637 0.0
C759 C 0.78606 0.7947 0.82988 0.0
C760 C 0.82962 0.76166 0.85334 0.0
C761 C 0.79173 0.76264 0.86425 0.0
C762 C 0.75115 0.78058 0.85786 0.0
C763 C 0.74834 0.79642 0.84086 0.0
H764 H 0.23561 0.25113 0.1733 0.0
H765 H 0.3354 0.3448 0.15434 0.0
H766 H 0.20186 0.24747 0.14455 0.0
H767 H 0.3026 0.34014 0.12552 0.0
H768 H 0.207 0.35739 0.08042 0.0
H769 H 0.23376 0.36255 0.1101 0.0
H770 H 0.2214 0.21814 0.11551 0.0
H771 H 0.194 0.21292 0.08582 0.0
C772 C 0.24988 0.2715 0.16309 0.0
C773 C 0.28756 0.29905 0.16617 0.0
C774 C 0.23096 0.26887 0.14655 0.0
C775 C 0.24935 0.29377 0.13279 0.0
C776 C 0.28715 0.32113 0.13591 0.0
C777 C 0.30616 0.32354 0.15238 0.0
C778 C 0.2096 0.32672 0.08796 0.0
C779 C 0.19852 0.28469 0.08071 0.0
C780 C 0.22521 0.32969 0.10495 0.0
C781 C 0.23 0.29073 0.11512 0.0
C782 C 0.21775 0.24881 0.10805 0.0
C783 C 0.20227 0.24581 0.091 0.0
H784 H 0.21119 0.69977 0.83502 0.0
H785 H 0.35634 0.70948 0.83227 0.0
H786 H 0.21342 0.72542 0.86496 0.0
H787 H 0.35842 0.73544 0.86216 0.0
H788 H 0.34812 0.74314 0.92102 0.0
H789 H 0.34386 0.70996 0.89217 0.0
H790 H 0.23148 0.79688 0.87998 0.0
H791 H 0.23512 0.82922 0.90895 0.0
C792 C 0.24359 0.70716 0.84081 0.0
C793 C 0.28358 0.7027 0.83122 0.0
C794 C 0.24482 0.72206 0.85794 0.0
C795 C 0.28608 0.73256 0.86591 0.0
C796 C 0.32614 0.72717 0.85645 0.0
C797 C 0.3249 0.71254 0.83928 0.0
C798 C 0.32187 0.75438 0.91233 0.0
C799 C 0.29141 0.78819 0.91735 0.0
C800 C 0.31982 0.73583 0.89572 0.0
C801 C 0.28723 0.75069 0.88381 0.0
C802 C 0.25656 0.78424 0.88893 0.0
C803 C 0.25883 0.80297 0.90546 0.0
H804 H 0.32945 0.83466 0.08594 0.0
H805 H 0.22476 0.73781 0.07497 0.0
H806 H 0.30967 0.83259 0.11653 0.0
H807 H 0.20299 0.73762 0.10518 0.0
H808 H 0.1916 0.71613 0.16203 0.0
H809 H 0.22075 0.71433 0.13263 0.0
H810 H 0.25679 0.85533 0.13682 0.0
H811 H 0.23004 0.85575 0.16665 0.0
C812 C 0.30203 0.81312 0.09008 0.0
C813 C 0.27883 0.78621 0.07809 0.0
C814 C 0.29039 0.81213 0.10762 0.0
C815 C 0.25465 0.78488 0.11352 0.0
C816 C 0.23143 0.75818 0.10137 0.0
C817 C 0.24369 0.75848 0.08394 0.0
C818 C 0.20633 0.74649 0.15666 0.0
C819 C 0.20891 0.78596 0.16656 0.0
C820 C 0.22267 0.7457 0.13973 0.0
C821 C 0.24078 0.78485 0.1321 0.0
C822 C 0.24385 0.82426 0.14222 0.0
C823 C 0.22839 0.82468 0.15932 0.0
H824 H 0.23445 0.76722 0.42389 0.0
H825 H 0.14185 0.6647 0.40635 0.0
H826 H 0.23838 0.79777 0.39461 0.0
H827 H 0.14679 0.69428 0.37704 0.0
H828 H 0.13109 0.78316 0.32987 0.0
H829 H 0.12482 0.76026 0.36001 0.0
H830 H 0.26868 0.77538 0.36617 0.0
H831 H 0.27498 0.79896 0.33603 0.0
C832 C 0.21432 0.75169 0.41388 0.0
C833 C 0.18709 0.7141 0.41752 0.0
C834 C 0.21711 0.76877 0.39704 0.0
C835 C 0.19269 0.74864 0.3835 0.0
C836 C 0.16546 0.71107 0.3872 0.0
C837 C 0.1629 0.6939 0.40397 0.0
C838 C 0.16139 0.78199 0.33766 0.0
C839 C 0.20358 0.79275 0.3305 0.0
C840 C 0.1578 0.76859 0.35493 0.0
C841 C 0.19627 0.76573 0.36547 0.0
C842 C 0.23833 0.77762 0.35844 0.0
C843 C 0.24196 0.79088 0.34113 0.0
H844 H 0.32629 0.62891 0.65724 0.0
H845 H 0.24194 0.73797 0.67513 0.0
H846 H 0.28944 0.63158 0.6292 0.0
H847 H 0.20487 0.74067 0.64697 0.0
H848 H 0.12252 0.70122 0.59799 0.0
H849 H 0.15513 0.69829 0.62704 0.0
H850 H 0.28764 0.68201 0.60479 0.0
H851 H 0.25532 0.68397 0.57607 0.0
C852 C 0.29977 0.65344 0.6552 0.0
C853 C 0.28672 0.68283 0.66852 0.0
C854 C 0.27871 0.65506 0.63909 0.0
C855 C 0.2443 0.68648 0.63579 0.0
C856 C 0.2308 0.71563 0.64917 0.0
C857 C 0.25192 0.71392 0.66536 0.0
C858 C 0.1586 0.69702 0.59933 0.0
C859 C 0.18623 0.69256 0.58465 0.0
C860 C 0.17729 0.69557 0.61597 0.0
C861 C 0.22396 0.68951 0.61825 0.0
C862 C 0.25148 0.68579 0.60354 0.0
C863 C 0.23289 0.68722 0.58701 0.0
H864 H 0.09766 0.44511 0.9819 0.0
H865 H 0.06766 0.41004 0.03487 0.0
H866 H 0.03471 0.49803 0.98187 0.0
H867 H 0.00378 0.46078 0.03459 0.0
H868 H 0.91883 0.58708 0.03459 0.0
H869 H 0.98249 0.53608 0.03469 0.0
H870 H 0.95499 0.50075 0.9815 0.0
H871 H 0.89226 0.55393 0.98117 0.0
C872 C 0.07776 0.44884 0.99354 0.0
C873 C 0.08786 0.42359 0.00841 0.0
C874 C 0.04131 0.47875 0.99347 0.0
C875 C 0.01382 0.48354 0.00819 0.0
C876 C 0.02451 0.45868 0.02311 0.0
C877 C 0.06125 0.42942 0.02326 0.0
C878 C 0.92593 0.56807 0.02295 0.0
C879 C 0.90038 0.57454 0.00787 0.0
C880 C 0.96255 0.53865 0.02302 0.0
C881 C 0.97417 0.51427 0.00808 0.0
C882 C 0.94767 0.51965 0.99313 0.0
C883 C 0.91135 0.54971 0.99299 0.0
H884 H 0.44712 0.38889 0.2833 0.0
H885 H 0.41166 0.41742 0.23025 0.0
H886 H 0.499 0.45268 0.28318 0.0
H887 H 0.46138 0.48214 0.23037 0.0
H888 H 0.55229 0.59611 0.28373 0.0
H889 H 0.50032 0.53238 0.28344 0.0
H890 H 0.53606 0.50532 0.23026 0.0
H891 H 0.58584 0.56996 0.23031 0.0
C892 C 0.45055 0.40863 0.2716 0.0
C893 C 0.42541 0.39788 0.25677 0.0
C894 C 0.47986 0.44558 0.27158 0.0
C895 C 0.48421 0.47298 0.25681 0.0
C896 C 0.45959 0.46157 0.24191 0.0
C897 C 0.4309 0.42433 0.24184 0.0
C898 C 0.54842 0.57692 0.27191 0.0
C899 C 0.57307 0.5883 0.25703 0.0
C900 C 0.51906 0.54 0.2718 0.0
C901 C 0.51416 0.51329 0.25687 0.0
C902 C 0.53828 0.52535 0.24192 0.0
C903 C 0.56702 0.56254 0.24196 0.0
H904 H 0.60303 0.94575 0.53127 0.0
H905 H 0.57209 0.9072 0.47874 0.0
H906 H 0.54066 -0.00095 0.53092 0.0
H907 H 0.50854 0.95884 0.47863 0.0
H908 H 0.4229 0.08667 0.47904 0.0
H909 H 0.486 0.03463 0.47834 0.0
H910 H 0.46111 -0.00042 0.53174 0.0
H911 H 0.39915 0.05337 0.53265 0.0
C912 C 0.58302 0.94882 0.51962 0.0
C913 C 0.59253 0.92228 0.50504 0.0
C914 C 0.54688 0.97897 0.51948 0.0
C915 C 0.51902 0.98283 0.50484 0.0
C916 C 0.52943 0.95718 0.49008 0.0
C917 C 0.56595 0.92749 0.49014 0.0
C918 C 0.4305 0.06745 0.49059 0.0
C919 C 0.4061 0.0743 0.50593 0.0
C920 C 0.46676 0.0375 0.49017 0.0
C921 C 0.47911 0.01319 0.50504 0.0
C922 C 0.45336 0.0186 0.52017 0.0
C923 C 0.41746 0.04904 0.52065 0.0
H924 H 0.06014 0.10023 0.78559 0.0
H925 H 0.08993 0.07179 0.732 0.0
H926 H 0.0047 0.03925 0.7857 0.0
H927 H 0.03696 0.01001 0.73235 0.0
H928 H 0.90821 0.9318 0.73192 0.0
H929 H 0.9606 0.99406 0.73269 0.0
H930 H 0.9972 0.95926 0.78512 0.0
H931 H 0.94232 0.89777 0.78463 0.0
C932 C 0.05478 0.08109 0.77385 0.0
C933 C 0.07912 0.09115 0.75875 0.0
C934 C 0.02341 0.04582 0.77395 0.0
C935 C 0.01627 0.0196 0.75903 0.0
C936 C 0.04068 0.02996 0.74398 0.0
C937 C 0.0713 0.06548 0.7438 0.0
C938 C 0.92766 0.93702 0.74359 0.0
C939 C 0.92129 0.90957 0.75819 0.0
C940 C 0.95793 0.97282 0.74402 0.0
C941 C 0.98346 0.9817 0.75894 0.0
C942 C 0.97762 0.95384 0.7735 0.0
C943 C 0.94659 0.91829 0.77317 0.0
H944 H 0.92633 0.41632 0.48145 0.0
H945 H 0.89739 0.44412 0.53516 0.0
H946 H 0.98837 0.46896 0.48223 0.0
H947 H 0.95864 0.49919 0.5357 0.0
H948 H 0.10058 0.55944 0.5357 0.0
H949 H 0.0385 0.50537 0.53545 0.0
H950 H 0.00616 0.54496 0.48311 0.0
H951 H 0.06912 0.59674 0.48307 0.0
C952 C 0.93257 0.43444 0.49337 0.0
C953 C 0.90671 0.42605 0.50825 0.0
C954 C 0.96825 0.46489 0.4938 0.0
C955 C 0.97866 0.48854 0.50902 0.0
C956 C 0.95211 0.48101 0.52383 0.0
C957 C 0.91666 0.44986 0.52348 0.0
C958 C 0.0805 0.55602 0.52408 0.0
C959 C 0.09008 0.58207 0.50936 0.0
C960 C 0.04457 0.52544 0.524 0.0
C961 C 0.01712 0.52076 0.50927 0.0
C962 C 0.02698 0.54683 0.49457 0.0
C963 C 0.06319 0.57672 0.49456 0.0
H964 H 0.55972 0.39808 0.73469 0.0
H965 H 0.59632 0.42491 0.78777 0.0
H966 H 0.50613 0.46016 0.73554 0.0
H967 H 0.54411 0.48806 0.78841 0.0
H968 H 0.41527 0.57345 0.78787 0.0
H969 H 0.46753 0.51028 0.78835 0.0
H970 H 0.50674 0.54016 0.73577 0.0
H971 H 0.45316 0.60223 0.73509 0.0
C972 C 0.55615 0.41707 0.74657 0.0
C973 C 0.58234 0.40655 0.76114 0.0
C974 C 0.52579 0.45303 0.747 0.0
C975 C 0.52127 0.47967 0.76195 0.0
C976 C 0.5464 0.46814 0.77671 0.0
C977 C 0.5764 0.43186 0.77634 0.0
C978 C 0.4355 0.56693 0.77649 0.0
C979 C 0.4299 0.59277 0.76141 0.0
C980 C 0.46551 0.53064 0.77676 0.0
C981 C 0.49097 0.51964 0.76202 0.0
C982 C 0.48681 0.54685 0.74721 0.0
C983 C 0.45646 0.58281 0.74688 0.0
H984 H 0.57021 0.09203 0.97903 0.0
H985 H 0.59927 0.05289 0.03166 0.0
H986 H 0.50579 0.04153 0.9787 0.0
H987 H 0.53585 0.00082 0.0311 0.0
H988 H 0.3924 0.95086 0.03231 0.0
H989 H 0.45593 0.00281 0.03158 0.0
H990 H 0.48185 0.96588 0.97845 0.0
H991 H 0.41734 0.91556 0.97896 0.0
C992 C 0.56348 0.07186 0.99041 0.0
C993 C 0.58979 0.07663 0.00541 0.0
C994 C 0.52645 0.04283 0.99022 0.0
C995 C 0.51517 0.01745 0.00495 0.0
C996 C 0.54278 0.02073 0.01968 0.0
C997 C 0.57951 0.05018 0.01994 0.0
C998 C 0.41128 0.95437 0.0204 0.0
C999 C 0.39978 0.92905 0.00571 0.0
C1000 C 0.44807 0.98375 0.02004 0.0
C1001 C 0.47453 0.98808 0.00503 0.0
C1002 C 0.46209 0.96378 0.99018 0.0
C1003 C 0.425 0.93484 0.99049 0.0
H1004 H 0.04733 0.88754 0.2807 0.0
H1005 H 0.08585 0.9147 0.22785 0.0
H1006 H 0.99667 0.95209 0.28012 0.0
H1007 H 0.03685 0.98029 0.2275 0.0
H1008 H 0.94978 0.09638 0.28126 0.0
H1009 H 0.00043 0.03182 0.28045 0.0
H1010 H 0.96214 0.00641 0.22742 0.0
H1011 H 0.91321 0.07198 0.22801 0.0
C1012 C 0.04475 0.90712 0.26892 0.0
C1013 C 0.07062 0.89598 0.25434 0.0
C1014 C 0.01614 0.9445 0.26865 0.0
C1015 C 0.01318 0.97196 0.25386 0.0
C1016 C 0.03791 0.95979 0.23907 0.0
C1017 C 0.06606 0.92208 0.23927 0.0
C1018 C 0.95277 0.07741 0.26935 0.0
C1019 C 0.92743 0.08933 0.25472 0.0
C1020 C 0.98137 0.04002 0.26894 0.0
C1021 C 0.98487 0.01335 0.25395 0.0
C1022 C 0.96066 0.02628 0.23914 0.0
C1023 C 0.93253 0.06398 0.23949 0.0
H1024 H 0.57764 0.28234 0.0379 0.0
H1025 H 0.57704 0.29168 0.98212 0.0
H1026 H 0.50099 0.31155 0.03866 0.0
H1027 H 0.50026 0.32027 0.98297 0.0
H1028 H 0.35886 0.37825 0.99116 0.0
H1029 H 0.44158 0.37612 0.99234 0.0
H1030 H 0.43449 0.2669 0.02919 0.0
H1031 H 0.35261 0.26861 0.02772 0.0
C1032 C 0.5618 0.2919 0.02583 0.0
C1033 C 0.58307 0.2834 0.00992 0.0
C1034 C 0.51774 0.30838 0.02628 0.0
C1035 C 0.49424 0.31688 0.01085 0.0
C1036 C 0.51741 0.31377 0.99507 0.0
C1037 C 0.5615 0.29725 0.99461 0.0
C1038 C 0.37526 0.35385 0.99946 0.0
C1039 C 0.34959 0.3235 0.00932 0.0
C1040 C 0.42241 0.35283 1.00023 0.0
C1041 C 0.44449 0.32178 0.01104 0.0
C1042 C 0.41853 0.292 0.02107 0.0
C1043 C 0.37165 0.29274 0.02016 0.0
H1044 H 0.72904 0.85274 0.27581 0.0
H1045 H 0.62441 0.86108 0.23724 0.0
H1046 H 0.73321 0.93458 0.27693 0.0
H1047 H 0.62904 0.94381 0.23809 0.0
H1048 H 0.7163 0.07824 0.22951 0.0
H1049 H 0.68692 0.00163 0.22978 0.0
H1050 H 0.68908 0.00198 0.28556 0.0
H1051 H 0.7191 0.07837 0.28539 0.0
C1052 C 0.70655 0.87225 0.26771 0.0
C1053 C 0.67639 0.85074 0.25647 0.0
C1054 C 0.70871 0.91913 0.26841 0.0
C1055 C 0.68098 0.9457 0.25777 0.0
C1056 C 0.65074 0.92418 0.24646 0.0
C1057 C 0.64829 0.87701 0.24589 0.0
C1058 C 0.70916 0.06264 0.24187 0.0
C1059 C 0.72131 0.08405 0.25743 0.0
C1060 C 0.69222 0.01864 0.242 0.0
C1061 C 0.68695 0.99539 0.25768 0.0
C1062 C 0.69395 0.01874 0.27326 0.0
C1063 C 0.71087 0.06267 0.27315 0.0
H1064 H 0.91631 0.21708 0.53682 0.0
H1065 H 0.92312 0.2137 0.48101 0.0
H1066 H 0.99283 0.18779 0.5384 0.0
H1067 H -0.00022 0.18508 0.48267 0.0
H1068 H 0.1391 0.12603 0.49123 0.0
H1069 H 0.05648 0.12826 0.4917 0.0
H1070 H 0.06141 0.23111 0.5312 0.0
H1071 H 0.14344 0.22917 0.5305 0.0
C1072 C 0.93349 0.20883 0.52488 0.0
C1073 C 0.9139 0.21889 0.50878 0.0
C1074 C 0.97753 0.19236 0.52581 0.0
C1075 C 0.00274 0.18537 0.51067 0.0
C1076 C 0.98133 0.19032 0.49458 0.0
C1077 C 0.93729 0.20685 0.49364 0.0
C1078 C 0.12229 0.14896 0.50001 0.0
C1079 C 0.14745 0.17765 0.51076 0.0
C1080 C 0.07514 0.15008 0.50034 0.0
C1081 C 0.0524 0.17961 0.51157 0.0
C1082 C 0.07781 0.20727 0.52266 0.0
C1083 C 0.1248 0.20637 0.52222 0.0
H1084 H 0.79417 0.42397 0.78265 0.0
H1085 H 0.79274 0.41584 0.72685 0.0
H1086 H 0.82284 0.50065 0.78086 0.0
H1087 H 0.82189 0.49246 0.72516 0.0
H1088 H 0.77582 0.64221 0.73298 0.0
H1089 H 0.77621 0.56015 0.73228 0.0
H1090 H 0.8796 0.55811 0.77159 0.0
H1091 H 0.87966 0.64084 0.77199 0.0
C1092 C 0.80156 0.43782 0.77001 0.0
C1093 C 0.7899 0.4142 0.75489 0.0
C1094 C 0.81809 0.48187 0.76899 0.0
C1095 C 0.82339 0.50294 0.75286 0.0
C1096 C 0.81703 0.47737 0.73777 0.0
C1097 C 0.80056 0.43336 0.73877 0.0
C1098 C 0.7993 0.62423 0.74119 0.0
C1099 C 0.82749 0.64768 0.7526 0.0
C1100 C 0.79973 0.57724 0.74075 0.0
C1101 C 0.82818 0.55264 0.75182 0.0
C1102 C 0.85726 0.57618 0.76296 0.0
C1103 C 0.85711 0.62336 0.76326 0.0
H1104 H 0.64014 0.37736 0.52187 0.0
H1105 H 0.64173 0.2761 0.48183 0.0
H1106 H 0.55757 0.37457 0.52245 0.0
H1107 H 0.55959 0.27419 0.48202 0.0
H1108 H 0.41341 0.28974 0.47879 0.0
H1109 H 0.48937 0.32015 0.4765 0.0
H1110 H 0.50397 0.31248 0.53192 0.0
H1111 H 0.428 0.282 0.53432 0.0
C1112 C 0.62274 0.3549 0.51308 0.0
C1113 C 0.64715 0.32658 0.50192 0.0
C1114 C 0.57563 0.3535 0.51335 0.0
C1115 C 0.55218 0.32431 0.50225 0.0
C1116 C 0.57669 0.29761 0.49053 0.0
C1117 C 0.62371 0.2986 0.49043 0.0
C1118 C 0.43217 0.29579 0.49057 0.0
C1119 C 0.41498 0.28228 0.50672 0.0
C1120 C 0.47581 0.31303 0.48921 0.0
C1121 C 0.50288 0.31761 0.50398 0.0
C1122 C 0.48388 0.30917 0.5203 0.0
C1123 C 0.44028 0.29163 0.52167 0.0
H1124 H 0.62546 0.14035 0.73968 0.0
H1125 H 0.73911 0.14164 0.77446 0.0
H1126 H 0.625 0.05744 0.74044 0.0
H1127 H 0.73776 0.05965 0.77571 0.0
H1128 H 0.71419 0.91811 0.78553 0.0
H1129 H 0.68713 0.99557 0.78603 0.0
H1130 H 0.68155 0.99651 0.73031 0.0
H1131 H 0.70846 0.91892 0.72968 0.0
C1132 C 0.65022 0.12286 0.74748 0.0
C1133 C 0.68242 0.14719 0.75699 0.0
C1134 C 0.64969 0.07563 0.74803 0.0
C1135 C 0.68082 0.05221 0.75836 0.0
C1136 C 0.71261 0.07679 0.76797 0.0
C1137 C 0.71356 0.12369 0.7672 0.0
C1138 C 0.70567 0.9341 0.77338 0.0
C1139 C 0.71487 0.91271 0.75755 0.0
C1140 C 0.6904 0.97861 0.77369 0.0
C1141 C 0.68355 0.00233 0.7582 0.0
C1142 C 0.68687 0.97909 0.74244 0.0
C1143 C 0.70239 0.93458 0.74211 0.0
H1144 H 0.07398 0.21936 0.97878 0.0
H1145 H 0.08185 0.20731 0.0344 0.0
H1146 H 0.99723 0.19053 0.97951 0.0
H1147 H 0.00524 0.178 0.035 0.0
H1148 H 0.85568 0.22492 0.02915 0.0
H1149 H 0.93768 0.22567 0.02939 0.0
H1150 H 0.93968 0.1314 0.98683 0.0
H1151 H 0.85696 0.13001 0.9869 0.0
C1152 C 0.06005 0.20903 0.9911 0.0
C1153 C 0.08364 0.21696 0.00659 0.0
C1154 C 0.01597 0.1924 0.9915 0.0
C1155 C 0.99485 0.18327 0.00736 0.0
C1156 C 0.02037 0.18588 0.02262 0.0
C1157 C 0.06441 0.20242 0.02224 0.0
C1158 C 0.87363 0.20367 0.02009 0.0
C1159 C 0.85011 0.17748 0.00801 0.0
C1160 C 0.9206 0.2039 0.02025 0.0
C1161 C 0.94516 0.17822 0.00823 0.0
C1162 C 0.92162 0.15152 0.99624 0.0
C1163 C 0.87443 0.15095 0.99621 0.0
H1164 H 0.77474 0.35384 0.27891 0.0
H1165 H 0.87547 0.36073 0.2388 0.0
H1166 H 0.77079 0.43578 0.27966 0.0
H1167 H 0.87121 0.44336 0.23932 0.0
H1168 H 0.78244 0.58092 0.28571 0.0
H1169 H 0.81306 0.50483 0.28675 0.0
H1170 H 0.81315 0.4995 0.23099 0.0
H1171 H 0.78325 0.5758 0.22986 0.0
C1172 C 0.79658 0.37305 0.27045 0.0
C1173 C 0.82528 0.3511 0.25877 0.0
C1174 C 0.79453 0.42 0.27091 0.0
C1175 C 0.82098 0.44614 0.25964 0.0
C1176 C 0.85034 0.42414 0.24812 0.0
C1177 C 0.85262 0.37698 0.24776 0.0
C1178 C 0.79034 0.56419 0.27364 0.0
C1179 C 0.77925 0.58412 0.25771 0.0
C1180 C 0.80759 0.5204 0.27426 0.0
C1181 C 0.81426 0.49573 0.25896 0.0
C1182 C 0.80818 0.51753 0.24301 0.0
C1183 C 0.79093 0.56137 0.24238 0.0
H1184 H 0.08001 0.79368 0.48193 0.0
H1185 H 0.08202 0.78969 0.53779 0.0
H1186 H 0.00275 0.82072 0.48264 0.0
H1187 H 0.00493 0.81767 0.53842 0.0
H1188 H 0.85694 0.77175 0.52913 0.0
H1189 H 0.93884 0.7723 0.53049 0.0
H1190 H 0.94289 0.87459 0.49075 0.0
H1191 H 0.86022 0.87417 0.48957 0.0
C1192 C 0.06466 0.80017 0.49439 0.0
C1193 C 0.08682 0.78814 0.5098 0.0
C1194 C 0.02025 0.81581 0.49477 0.0
C1195 C 0.99731 0.81997 0.51058 0.0
C1196 C 0.0214 0.81354 0.52603 0.0
C1197 C 0.06577 0.79784 0.52565 0.0
C1198 C 0.87533 0.79486 0.52089 0.0
C1199 C 0.85244 0.82278 0.50921 0.0
C1200 C 0.92225 0.79545 0.52174 0.0
C1201 C 0.94742 0.82388 0.51085 0.0
C1202 C 0.92443 0.85231 0.49928 0.0
C1203 C 0.87727 0.85188 0.49852 0.0
H1204 H 0.23074 0.35607 0.73526 0.0
H1205 H 0.12787 0.35948 0.77464 0.0
H1206 H 0.23258 0.43811 0.73479 0.0
H1207 H 0.13028 0.44221 0.77449 0.0
H1208 H 0.21868 0.57505 0.785 0.0
H1209 H 0.18895 0.49866 0.78349 0.0
H1210 H 0.18739 0.50649 0.72779 0.0
H1211 H 0.21753 0.58276 0.72919 0.0
C1212 C 0.20798 0.37451 0.74362 0.0
C1213 C 0.17932 0.35159 0.75502 0.0
C1214 C 0.20885 0.42149 0.74332 0.0
C1215 C 0.18129 0.44663 0.75453 0.0
C1216 C 0.15192 0.42369 0.76574 0.0
C1217 C 0.15074 0.37651 0.7659 0.0
C1218 C 0.21054 0.56118 0.77243 0.0
C1219 C 0.22171 0.58457 0.7572 0.0
C1220 C 0.19342 0.51732 0.77158 0.0
C1221 C 0.18705 0.49624 0.75551 0.0
C1222 C 0.19306 0.52159 0.74035 0.0
C1223 C 0.21011 0.5654 0.74118 0.0
H1224 H 0.63667 0.73316 0.02573 0.0
H1225 H 0.62967 0.62598 0.98812 0.0
H1226 H 0.55477 0.73666 0.02665 0.0
H1227 H 0.54696 0.63017 0.98869 0.0
H1228 H 0.41238 0.71765 0.97917 0.0
H1229 H 0.48921 0.68878 0.97971 0.0
H1230 H 0.48754 0.691 0.03548 0.0
H1231 H 0.4109 0.72022 0.03504 0.0
C1232 C 0.61747 0.70996 0.01781 0.0
C1233 C 0.63938 0.67928 0.00688 0.0
C1234 C 0.57057 0.71179 0.01838 0.0
C1235 C 0.54441 0.68326 0.0079 0.0
C1236 C 0.5663 0.65248 0.99693 0.0
C1237 C 0.61346 0.65029 0.99652 0.0
C1238 C 0.42773 0.71056 0.99158 0.0
C1239 C 0.40584 0.72247 0.00706 0.0
C1240 C 0.47184 0.69395 0.99186 0.0
C1241 C 0.49473 0.68886 0.00763 0.0
C1242 C 0.471 0.69567 0.02312 0.0
C1243 C 0.42694 0.71216 0.02285 0.0
H1244 H 0.26985 0.13295 0.27541 0.0
H1245 H 0.37315 0.12557 0.23628 0.0
H1246 H 0.26565 0.05107 0.27622 0.0
H1247 H 0.36837 0.04283 0.23679 0.0
H1248 H 0.28016 0.90863 0.2283 0.0
H1249 H 0.30947 0.98529 0.22859 0.0
H1250 H 0.31075 0.9835 0.28436 0.0
H1251 H 0.28093 0.90704 0.28417 0.0
C1252 C 0.29204 0.11365 0.26712 0.0
C1253 C 0.32184 0.13545 0.25581 0.0
C1254 C 0.28984 0.06675 0.26763 0.0
C1255 C 0.31714 0.04046 0.25673 0.0
C1256 C 0.34701 0.06225 0.24535 0.0
C1257 C 0.34954 0.10943 0.24498 0.0
C1258 C 0.28807 0.92391 0.24064 0.0
C1259 C 0.27697 0.90206 0.25622 0.0
C1260 C 0.30496 0.96794 0.24078 0.0
C1261 C 0.31117 0.99078 0.2565 0.0
C1262 C 0.30517 0.96704 0.27205 0.0
C1263 C 0.28834 0.92308 0.27192 0.0
H1264 H 0.91674 0.78008 0.97872 0.0
H1265 H 0.90693 0.79088 0.03432 0.0
H1266 H 0.99265 0.81084 0.97984 0.0
H1267 H 0.98266 0.82235 0.03533 0.0
H1268 H 0.13425 0.78249 0.03022 0.0
H1269 H 0.05239 0.77927 0.03042 0.0
H1270 H 0.04782 0.87072 0.98699 0.0
H1271 H 0.1304 0.87443 0.98703 0.0
C1272 C 0.93006 0.79047 0.99113 0.0
C1273 C 0.90614 0.7818 0.00648 0.0
C1274 C 0.97367 0.80825 0.99176 0.0
C1275 C 0.99407 0.81786 0.00773 0.0
C1276 C 0.96819 0.81415 0.02287 0.0
C1277 C 0.92462 0.79638 0.02226 0.0
C1278 C 0.11577 0.80272 0.02098 0.0
C1279 C 0.13859 0.82854 0.00858 0.0
C1280 C 0.06881 0.80103 0.02111 0.0
C1281 C 0.04354 0.82498 0.00877 0.0
C1282 C 0.06638 0.85175 0.9966 0.0
C1283 C 0.11353 0.85369 0.99656 0.0
H1284 H 0.22277 0.63204 0.2806 0.0
H1285 H 0.12509 0.6256 0.23939 0.0
H1286 H 0.22633 0.55008 0.28135 0.0
H1287 H 0.12856 0.54307 0.24004 0.0
H1288 H 0.21483 0.41091 0.23058 0.0
H1289 H 0.18515 0.48713 0.23201 0.0
H1290 H 0.18581 0.48056 0.28776 0.0
H1291 H 0.21652 0.40453 0.28641 0.0
C1292 C 0.2014 0.61293 0.27192 0.0
C1293 C 0.17376 0.63499 0.25992 0.0
C1294 C 0.20321 0.56595 0.2724 0.0
C1295 C 0.17748 0.53994 0.26082 0.0
C1296 C 0.14896 0.56213 0.24906 0.0
C1297 C 0.14709 0.60926 0.24863 0.0
C1298 C 0.20736 0.42507 0.24317 0.0
C1299 C 0.21927 0.40199 0.25839 0.0
C1300 C 0.1902 0.46889 0.24398 0.0
C1301 C 0.18433 0.49036 0.26001 0.0
C1302 C 0.19118 0.46532 0.27521 0.0
C1303 C 0.20844 0.42155 0.27442 0.0
H1304 H 0.58129 0.71103 0.53568 0.0
H1305 H 0.57954 0.71086 0.47979 0.0
H1306 H 0.50437 0.68254 0.53596 0.0
H1307 H 0.50241 0.68305 0.48018 0.0
H1308 H 0.35933 0.62677 0.48797 0.0
H1309 H 0.4422 0.62699 0.48856 0.0
H1310 H 0.43929 0.73107 0.52761 0.0
H1311 H 0.3574 0.73136 0.52671 0.0
C1312 C 0.56514 0.70359 0.52345 0.0
C1313 C 0.58611 0.71461 0.50772 0.0
C1314 C 0.52094 0.6875 0.52363 0.0
C1315 C 0.497 0.68199 0.5081 0.0
C1316 C 0.51991 0.6873 0.49236 0.0
C1317 C 0.56419 0.70337 0.49216 0.0
C1318 C 0.3767 0.64968 0.4966 0.0
C1319 C 0.35223 0.67905 0.50731 0.0
C1320 C 0.42391 0.64957 0.49704 0.0
C1321 C 0.44717 0.67845 0.50836 0.0
C1322 C 0.42239 0.70751 0.5191 0.0
C1323 C 0.37551 0.70793 0.51852 0.0
H1324 H 0.29462 0.08392 0.72992 0.0
H1325 H 0.28532 0.07476 0.78558 0.0
H1326 H 0.32411 0.00739 0.72884 0.0
H1327 H 0.31454 0.99813 0.78439 0.0
H1328 H 0.37645 0.85907 0.77635 0.0
H1329 H 0.3743 0.94178 0.7764 0.0
H1330 H 0.27782 0.93879 0.7346 0.0
H1331 H 0.27932 0.85668 0.73487 0.0
C1332 C 0.30014 0.0662 0.74197 0.0
C1333 C 0.28642 0.08511 0.7578 0.0
C1334 C 0.3168 0.02221 0.74132 0.0
C1335 C 0.32042 0.9964 0.75647 0.0
C1336 C 0.31193 0.01713 0.77247 0.0
C1337 C 0.29513 0.06115 0.77314 0.0
C1338 C 0.35489 0.87632 0.76719 0.0
C1339 C 0.32776 0.85167 0.75569 0.0
C1340 C 0.35387 0.9235 0.76715 0.0
C1341 C 0.32617 0.94677 0.75543 0.0
C1342 C 0.30023 0.92192 0.74357 0.0
C1343 C 0.30091 0.87489 0.74375 0.0
loop_
_geom_bond_atom_site_label_1
_geom_bond_atom_site_label_2
_geom_bond_distance
_geom_bond_site_symmetry_2
_ccdc_geom_bond_type
Co0 O3 1.970 . S
Co0 N17 1.989 . S
Co0 O25 1.967 . S
Co0 O32 1.920 . S
Co1 O4 1.966 . S
Co1 N10 2.022 . S
Co1 N18 1.993 . S
Co1 O26 1.941 . S
C2 O3 1.258 . S
C2 O4 1.263 1_554 S
O3 Co0 1.970 . S
O3 C2 1.258 . S
O4 Co1 1.966 . S
O4 C2 1.263 1_556 S
C5 O6 1.235 . S
C5 O32 1.289 . S
O6 C5 1.235 . S
C7 C9 1.400 . S
C7 N10 1.351 . S
C7 C12 1.501 . S
C8 C9 1.387 . S
C8 N11 1.341 . S
C9 C7 1.400 . S
C9 C8 1.387 . S
N10 Co1 2.022 . S
N10 C7 1.351 . S
N10 N11 1.365 . S
N11 C8 1.341 . S
N11 N10 1.365 . S
N11 H31 0.862 . S
C12 C7 1.501 . S
C12 H13 0.961 . S
C12 H14 0.961 . S
C12 H15 0.960 . S
H13 C12 0.961 . S
H14 C12 0.961 . S
H15 C12 0.960 . S
C16 N17 1.342 . S
C16 C20 1.401 . S
C16 C21 1.499 . S
N17 Co0 1.989 . S
N17 C16 1.342 . S
N17 N18 1.388 1_554 S
N18 Co1 1.993 . S
N18 N17 1.388 1_556 S
N18 C19 1.346 . S
C19 N18 1.346 . S
C19 C20 1.396 1_556 S
C19 C29 1.510 . S
C20 C16 1.401 . S
C20 C19 1.396 1_554 S
C21 C16 1.499 . S
C21 H22 0.959 . S
C21 H23 0.960 . S
C21 H24 0.961 . S
H22 C21 0.959 . S
H23 C21 0.960 . S
H24 C21 0.961 . S
O25 Co0 1.967 . S
O25 C33 1.258 . S
O26 Co1 1.941 . S
O26 C33 1.266 1_556 S
H27 C29 0.959 . S
H28 C29 0.961 . S
C29 C19 1.510 . S
C29 H27 0.959 . S
C29 H28 0.961 . S
C29 H30 0.960 . S
H30 C29 0.960 . S
H31 N11 0.862 . S
O32 Co0 1.920 . S
O32 C5 1.289 . S
C33 O25 1.258 . S
C33 O26 1.266 1_554 S
Co34 O37 1.970 . S
Co34 N51 1.989 . S
Co34 O59 1.967 . S
Co34 O66 1.920 . S
Co35 O38 1.966 . S
Co35 N44 2.022 . S
Co35 N52 1.993 . S
Co35 O60 1.941 . S
C36 O37 1.258 . S
C36 O38 1.263 . S
O37 Co34 1.970 . S
O37 C36 1.258 . S
O38 Co35 1.966 . S
O38 C36 1.263 . S
C39 O40 1.235 . S
C39 O66 1.289 . S
O40 C39 1.235 . S
C41 C43 1.400 . S
C41 N44 1.351 . S
C41 C46 1.501 . S
C42 C43 1.387 . S
C42 N45 1.341 . S
C43 C41 1.400 . S
C43 C42 1.387 . S
N44 Co35 2.022 . S
N44 C41 1.351 . S
N44 N45 1.365 . S
N45 C42 1.341 . S
N45 N44 1.365 . S
N45 H65 0.862 . S
C46 C41 1.501 . S
C46 H47 0.961 . S
C46 H48 0.961 . S
C46 H49 0.960 . S
H47 C46 0.961 . S
H48 C46 0.961 . S
H49 C46 0.960 . S
C50 N51 1.342 . S
C50 C54 1.401 . S
C50 C55 1.499 . S
N51 Co34 1.989 . S
N51 C50 1.342 . S
N51 N52 1.388 . S
N52 Co35 1.993 . S
N52 N51 1.388 . S
N52 C53 1.346 . S
C53 N52 1.346 . S
C53 C54 1.396 . S
C53 C63 1.510 . S
C54 C50 1.401 . S
C54 C53 1.396 . S
C55 C50 1.499 . S
C55 H56 0.959 . S
C55 H57 0.960 . S
C55 H58 0.961 . S
H56 C55 0.959 . S
H57 C55 0.960 . S
H58 C55 0.961 . S
O59 Co34 1.967 . S
O59 C67 1.258 . S
O60 Co35 1.941 . S
O60 C67 1.266 . S
H61 C63 0.959 . S
H62 C63 0.961 . S
C63 C53 1.510 . S
C63 H61 0.959 . S
C63 H62 0.961 . S
C63 H64 0.960 . S
H64 C63 0.960 . S
H65 N45 0.862 . S
O66 Co34 1.920 . S
O66 C39 1.289 . S
C67 O59 1.258 . S
C67 O60 1.266 . S
Co68 O71 1.970 . S
Co68 N85 1.989 . S
Co68 O93 1.967 . S
Co68 O100 1.920 . S
Co69 O72 1.966 . S
Co69 N78 2.022 . S
Co69 N86 1.993 . S
Co69 O94 1.941 . S
C70 O71 1.258 . S
C70 O72 1.263 . S
O71 Co68 1.970 . S
O71 C70 1.258 . S
O72 Co69 1.966 . S
O72 C70 1.263 . S
C73 O74 1.235 . S
C73 O100 1.289 . S
O74 C73 1.235 . S
C75 C77 1.400 . S
C75 N78 1.351 . S
C75 C80 1.501 . S
C76 C77 1.387 . S
C76 N79 1.341 . S
C77 C75 1.400 . S
C77 C76 1.387 . S
N78 Co69 2.022 . S
N78 C75 1.351 . S
N78 N79 1.365 . S
N79 C76 1.341 . S
N79 N78 1.365 . S
N79 H99 0.862 . S
C80 C75 1.501 . S
C80 H81 0.961 . S
C80 H82 0.961 . S
C80 H83 0.960 . S
H81 C80 0.961 . S
H82 C80 0.961 . S
H83 C80 0.960 . S
C84 N85 1.342 . S
C84 C88 1.401 . S
C84 C89 1.499 . S
N85 Co68 1.989 . S
N85 C84 1.342 . S
N85 N86 1.388 . S
N86 Co69 1.993 . S
N86 N85 1.388 . S
N86 C87 1.346 . S
C87 N86 1.346 . S
C87 C88 1.396 . S
C87 C97 1.510 . S
C88 C84 1.401 . S
C88 C87 1.396 . S
C89 C84 1.499 . S
C89 H90 0.959 . S
C89 H91 0.960 . S
C89 H92 0.961 . S
H90 C89 0.959 . S
H91 C89 0.960 . S
H92 C89 0.961 . S
O93 Co68 1.967 . S
O93 C101 1.258 . S
O94 Co69 1.941 . S
O94 C101 1.266 . S
H95 C97 0.959 . S
H96 C97 0.961 . S
C97 C87 1.510 . S
C97 H95 0.959 . S
C97 H96 0.961 . S
C97 H98 0.960 . S
H98 C97 0.960 . S
H99 N79 0.862 . S
O100 Co68 1.920 . S
O100 C73 1.289 . S
C101 O93 1.258 . S
C101 O94 1.266 . S
Co102 O105 1.970 . S
Co102 N119 1.989 . S
Co102 O127 1.967 . S
Co102 O134 1.920 . S
Co103 O106 1.966 . S
Co103 N112 2.022 . S
Co103 N120 1.993 . S
Co103 O128 1.941 . S
C104 O105 1.258 . S
C104 O106 1.263 . S
O105 Co102 1.970 . S
O105 C104 1.258 . S
O106 Co103 1.966 . S
O106 C104 1.263 . S
C107 O108 1.235 . S
C107 O134 1.289 . S
O108 C107 1.235 . S
C109 C111 1.400 . S
C109 N112 1.351 . S
C109 C114 1.501 . S
C110 C111 1.387 . S
C110 N113 1.341 . S
C111 C109 1.400 . S
C111 C110 1.387 . S
N112 Co103 2.022 . S
N112 C109 1.351 . S
N112 N113 1.365 . S
N113 C110 1.341 . S
N113 N112 1.365 . S
N113 H133 0.862 . S
C114 C109 1.501 . S
C114 H115 0.961 . S
C114 H116 0.961 . S
C114 H117 0.960 . S
H115 C114 0.961 . S
H116 C114 0.961 . S
H117 C114 0.960 . S
C118 N119 1.342 . S
C118 C122 1.401 . S
C118 C123 1.499 . S
N119 Co102 1.989 . S
N119 C118 1.342 . S
N119 N120 1.388 . S
N120 Co103 1.993 . S
N120 N119 1.388 . S
N120 C121 1.346 . S
C121 N120 1.346 . S
C121 C122 1.396 . S
C121 C131 1.510 . S
C122 C118 1.401 . S
C122 C121 1.396 . S
C123 C118 1.499 . S
C123 H124 0.959 . S
C123 H125 0.960 . S
C123 H126 0.961 . S
H124 C123 0.959 . S
H125 C123 0.960 . S
H126 C123 0.961 . S
O127 Co102 1.967 . S
O127 C135 1.258 . S
O128 Co103 1.941 . S
O128 C135 1.266 . S
H129 C131 0.959 . S
H130 C131 0.961 . S
C131 C121 1.510 . S
C131 H129 0.959 . S
C131 H130 0.961 . S
C131 H132 0.960 . S
H132 C131 0.960 . S
H133 N113 0.862 . S
O134 Co102 1.920 . S
O134 C107 1.289 . S
C135 O127 1.258 . S
C135 O128 1.266 . S
Co136 O139 1.970 . S
Co136 N153 1.989 . S
Co136 O161 1.967 . S
Co136 O168 1.920 . S
Co137 O140 1.966 . S
Co137 N146 2.022 . S
Co137 N154 1.993 . S
Co137 O162 1.941 . S
C138 O139 1.258 . S
C138 O140 1.263 . S
O139 Co136 1.970 . S
O139 C138 1.258 . S
O140 Co137 1.966 . S
O140 C138 1.263 . S
C141 O142 1.235 . S
C141 O168 1.289 . S
O142 C141 1.235 . S
C143 C145 1.400 . S
C143 N146 1.351 . S
C143 C148 1.501 . S
C144 C145 1.387 . S
C144 N147 1.341 . S
C145 C143 1.400 . S
C145 C144 1.387 . S
N146 Co137 2.022 . S
N146 C143 1.351 . S
N146 N147 1.365 . S
N147 C144 1.341 . S
N147 N146 1.365 . S
N147 H167 0.862 . S
C148 C143 1.501 . S
C148 H149 0.961 . S
C148 H150 0.961 . S
C148 H151 0.960 . S
H149 C148 0.961 . S
H150 C148 0.961 . S
H151 C148 0.960 . S
C152 N153 1.342 . S
C152 C156 1.401 . S
C152 C157 1.499 . S
N153 Co136 1.989 . S
N153 C152 1.342 . S
N153 N154 1.388 . S
N154 Co137 1.993 . S
N154 N153 1.388 . S
N154 C155 1.346 . S
C155 N154 1.346 . S
C155 C156 1.396 . S
C155 C165 1.510 . S
C156 C152 1.401 . S
C156 C155 1.396 . S
C157 C152 1.499 . S
C157 H158 0.959 . S
C157 H159 0.960 . S
C157 H160 0.961 . S
H158 C157 0.959 . S
H159 C157 0.960 . S
H160 C157 0.961 . S
O161 Co136 1.967 . S
O161 C169 1.258 . S
O162 Co137 1.941 . S
O162 C169 1.266 . S
H163 C165 0.959 . S
H164 C165 0.961 . S
C165 C155 1.510 . S
C165 H163 0.959 . S
C165 H164 0.961 . S
C165 H166 0.960 . S
H166 C165 0.960 . S
H167 N147 0.862 . S
O168 Co136 1.920 . S
O168 C141 1.289 . S
C169 O161 1.258 . S
C169 O162 1.266 . S
Co170 O173 1.970 . S
Co170 N187 1.989 . S
Co170 O195 1.967 . S
Co170 O202 1.920 . S
Co171 O174 1.966 . S
Co171 N180 2.022 . S
Co171 N188 1.993 . S
Co171 O196 1.941 . S
C172 O173 1.258 . S
C172 O174 1.263 . S
O173 Co170 1.970 . S
O173 C172 1.258 . S
O174 Co171 1.966 . S
O174 C172 1.263 . S
C175 O176 1.235 . S
C175 O202 1.289 . S
O176 C175 1.235 . S
C177 C179 1.400 . S
C177 N180 1.351 . S
C177 C182 1.501 . S
C178 C179 1.387 . S
C178 N181 1.341 . S
C179 C177 1.400 . S
C179 C178 1.387 . S
N180 Co171 2.022 . S
N180 C177 1.351 . S
N180 N181 1.365 . S
N181 C178 1.341 . S
N181 N180 1.365 . S
N181 H201 0.862 . S
C182 C177 1.501 . S
C182 H183 0.961 . S
C182 H184 0.961 . S
C182 H185 0.960 . S
H183 C182 0.961 . S
H184 C182 0.961 . S
H185 C182 0.960 . S
C186 N187 1.342 . S
C186 C190 1.401 . S
C186 C191 1.499 . S
N187 Co170 1.989 . S
N187 C186 1.342 . S
N187 N188 1.388 . S
N188 Co171 1.993 . S
N188 N187 1.388 . S
N188 C189 1.346 . S
C189 N188 1.346 . S
C189 C190 1.396 . S
C189 C199 1.510 . S
C190 C186 1.401 . S
C190 C189 1.396 . S
C191 C186 1.499 . S
C191 H192 0.959 . S
C191 H193 0.960 . S
C191 H194 0.961 . S
H192 C191 0.959 . S
H193 C191 0.960 . S
H194 C191 0.961 . S
O195 Co170 1.967 . S
O195 C203 1.258 . S
O196 Co171 1.941 . S
O196 C203 1.266 . S
H197 C199 0.959 . S
H198 C199 0.961 . S
C199 C189 1.510 . S
C199 H197 0.959 . S
C199 H198 0.961 . S
C199 H200 0.960 . S
H200 C199 0.960 . S
H201 N181 0.862 . S
O202 Co170 1.920 . S
O202 C175 1.289 . S
C203 O195 1.258 . S
C203 O196 1.266 . S
Co204 O207 1.970 . S
Co204 N221 1.989 . S
Co204 O229 1.967 . S
Co204 O236 1.920 . S
Co205 O208 1.966 . S
Co205 N214 2.022 . S
Co205 N222 1.993 . S
Co205 O230 1.941 . S
C206 O207 1.258 . S
C206 O208 1.263 1_554 S
O207 Co204 1.970 . S
O207 C206 1.258 . S
O208 Co205 1.966 . S
O208 C206 1.263 1_556 S
C209 O210 1.235 . S
C209 O236 1.289 . S
O210 C209 1.235 . S
C211 C213 1.400 . S
C211 N214 1.351 . S
C211 C216 1.501 . S
C212 C213 1.387 . S
C212 N215 1.341 . S
C213 C211 1.400 . S
C213 C212 1.387 . S
N214 Co205 2.022 . S
N214 C211 1.351 . S
N214 N215 1.365 . S
N215 C212 1.341 . S
N215 N214 1.365 . S
N215 H235 0.862 . S
C216 C211 1.501 . S
C216 H217 0.961 . S
C216 H218 0.961 . S
C216 H219 0.960 . S
H217 C216 0.961 . S
H218 C216 0.961 . S
H219 C216 0.960 . S
C220 N221 1.342 . S
C220 C224 1.401 . S
C220 C225 1.499 . S
N221 Co204 1.989 . S
N221 C220 1.342 . S
N221 N222 1.388 1_554 S
N222 Co205 1.993 . S
N222 N221 1.388 1_556 S
N222 C223 1.346 . S
C223 N222 1.346 . S
C223 C224 1.396 1_556 S
C223 C233 1.510 . S
C224 C220 1.401 . S
C224 C223 1.396 1_554 S
C225 C220 1.499 . S
C225 H226 0.959 . S
C225 H227 0.960 . S
C225 H228 0.961 . S
H226 C225 0.959 . S
H227 C225 0.960 . S
H228 C225 0.961 . S
O229 Co204 1.967 . S
O229 C237 1.258 . S
O230 Co205 1.941 . S
O230 C237 1.266 1_556 S
H231 C233 0.959 . S
H232 C233 0.961 . S
C233 C223 1.510 . S
C233 H231 0.959 . S
C233 H232 0.961 . S
C233 H234 0.960 . S
H234 C233 0.960 . S
H235 N215 0.862 . S
O236 Co204 1.920 . S
O236 C209 1.289 . S
C237 O229 1.258 . S
C237 O230 1.266 1_554 S
Co238 O241 1.970 . S
Co238 N255 1.989 . S
Co238 O263 1.967 . S
Co238 O270 1.920 . S
Co239 O242 1.966 . S
Co239 N248 2.022 . S
Co239 N256 1.993 . S
Co239 O264 1.941 . S
C240 O241 1.258 . S
C240 O242 1.263 . S
O241 Co238 1.970 . S
O241 C240 1.258 . S
O242 Co239 1.966 . S
O242 C240 1.263 . S
C243 O244 1.235 . S
C243 O270 1.289 . S
O244 C243 1.235 . S
C245 C247 1.400 . S
C245 N248 1.351 . S
C245 C250 1.501 . S
C246 C247 1.387 . S
C246 N249 1.341 . S
C247 C245 1.400 . S
C247 C246 1.387 . S
N248 Co239 2.022 . S
N248 C245 1.351 . S
N248 N249 1.365 . S
N249 C246 1.341 . S
N249 N248 1.365 . S
N249 H269 0.862 . S
C250 C245 1.501 . S
C250 H251 0.961 . S
C250 H252 0.961 . S
C250 H253 0.960 . S
H251 C250 0.961 . S
H252 C250 0.961 . S
H253 C250 0.960 . S
C254 N255 1.342 . S
C254 C258 1.401 . S
C254 C259 1.499 . S
N255 Co238 1.989 . S
N255 C254 1.342 . S
N255 N256 1.388 . S
N256 Co239 1.993 . S
N256 N255 1.388 . S
N256 C257 1.346 . S
C257 N256 1.346 . S
C257 C258 1.396 . S
C257 C267 1.510 . S
C258 C254 1.401 . S
C258 C257 1.396 . S
C259 C254 1.499 . S
C259 H260 0.959 . S
C259 H261 0.960 . S
C259 H262 0.961 . S
H260 C259 0.959 . S
H261 C259 0.960 . S
H262 C259 0.961 . S
O263 Co238 1.967 . S
O263 C271 1.258 . S
O264 Co239 1.941 . S
O264 C271 1.266 . S
H265 C267 0.959 . S
H266 C267 0.961 . S
C267 C257 1.510 . S
C267 H265 0.959 . S
C267 H266 0.961 . S
C267 H268 0.960 . S
H268 C267 0.960 . S
H269 N249 0.862 . S
O270 Co238 1.920 . S
O270 C243 1.289 . S
C271 O263 1.258 . S
C271 O264 1.266 . S
Co272 O275 1.970 . S
Co272 N289 1.989 . S
Co272 O297 1.967 . S
Co272 O304 1.920 . S
Co273 O276 1.966 . S
Co273 N282 2.022 . S
Co273 N290 1.993 . S
Co273 O298 1.941 . S
C274 O275 1.258 . S
C274 O276 1.263 . S
O275 Co272 1.970 . S
O275 C274 1.258 . S
O276 Co273 1.966 . S
O276 C274 1.263 . S
C277 O278 1.235 . S
C277 O304 1.289 . S
O278 C277 1.235 . S
C279 C281 1.400 . S
C279 N282 1.351 . S
C279 C284 1.501 . S
C280 C281 1.387 . S
C280 N283 1.341 . S
C281 C279 1.400 . S
C281 C280 1.387 . S
N282 Co273 2.022 . S
N282 C279 1.351 . S
N282 N283 1.365 . S
N283 C280 1.341 . S
N283 N282 1.365 . S
N283 H303 0.862 . S
C284 C279 1.501 . S
C284 H285 0.961 . S
C284 H286 0.961 . S
C284 H287 0.960 . S
H285 C284 0.961 . S
H286 C284 0.961 . S
H287 C284 0.960 . S
C288 N289 1.342 . S
C288 C292 1.401 . S
C288 C293 1.499 . S
N289 Co272 1.989 . S
N289 C288 1.342 . S
N289 N290 1.388 . S
N290 Co273 1.993 . S
N290 N289 1.388 . S
N290 C291 1.346 . S
C291 N290 1.346 . S
C291 C292 1.396 . S
C291 C301 1.510 . S
C292 C288 1.401 . S
C292 C291 1.396 . S
C293 C288 1.499 . S
C293 H294 0.959 . S
C293 H295 0.960 . S
C293 H296 0.961 . S
H294 C293 0.959 . S
H295 C293 0.960 . S
H296 C293 0.961 . S
O297 Co272 1.967 . S
O297 C305 1.258 . S
O298 Co273 1.941 . S
O298 C305 1.266 . S
H299 C301 0.959 . S
H300 C301 0.961 . S
C301 C291 1.510 . S
C301 H299 0.959 . S
C301 H300 0.961 . S
C301 H302 0.960 . S
H302 C301 0.960 . S
H303 N283 0.862 . S
O304 Co272 1.920 . S
O304 C277 1.289 . S
C305 O297 1.258 . S
C305 O298 1.266 . S
Co306 O309 1.970 . S
Co306 N323 1.989 . S
Co306 O331 1.967 . S
Co306 O338 1.920 . S
Co307 O310 1.966 . S
Co307 N316 2.022 . S
Co307 N324 1.993 . S
Co307 O332 1.941 . S
C308 O309 1.258 . S
C308 O310 1.263 . S
O309 Co306 1.970 . S
O309 C308 1.258 . S
O310 Co307 1.966 . S
O310 C308 1.263 . S
C311 O312 1.235 . S
C311 O338 1.289 . S
O312 C311 1.235 . S
C313 C315 1.400 . S
C313 N316 1.351 . S
C313 C318 1.501 . S
C314 C315 1.387 . S
C314 N317 1.341 . S
C315 C313 1.400 . S
C315 C314 1.387 . S
N316 Co307 2.022 . S
N316 C313 1.351 . S
N316 N317 1.365 . S
N317 C314 1.341 . S
N317 N316 1.365 . S
N317 H337 0.862 . S
C318 C313 1.501 . S
C318 H319 0.961 . S
C318 H320 0.961 . S
C318 H321 0.960 . S
H319 C318 0.961 . S
H320 C318 0.961 . S
H321 C318 0.960 . S
C322 N323 1.342 . S
C322 C326 1.401 . S
C322 C327 1.499 . S
N323 Co306 1.989 . S
N323 C322 1.342 . S
N323 N324 1.388 . S
N324 Co307 1.993 . S
N324 N323 1.388 . S
N324 C325 1.346 . S
C325 N324 1.346 . S
C325 C326 1.396 . S
C325 C335 1.510 . S
C326 C322 1.401 . S
C326 C325 1.396 . S
C327 C322 1.499 . S
C327 H328 0.959 . S
C327 H329 0.960 . S
C327 H330 0.961 . S
H328 C327 0.959 . S
H329 C327 0.960 . S
H330 C327 0.961 . S
O331 Co306 1.967 . S
O331 C339 1.258 . S
O332 Co307 1.941 . S
O332 C339 1.266 . S
H333 C335 0.959 . S
H334 C335 0.961 . S
C335 C325 1.510 . S
C335 H333 0.959 . S
C335 H334 0.961 . S
C335 H336 0.960 . S
H336 C335 0.960 . S
H337 N317 0.862 . S
O338 Co306 1.920 . S
O338 C311 1.289 . S
C339 O331 1.258 . S
C339 O332 1.266 . S
Co340 O343 1.970 . S
Co340 N357 1.989 . S
Co340 O365 1.967 . S
Co340 O372 1.920 . S
Co341 O344 1.966 . S
Co341 N350 2.022 . S
Co341 N358 1.993 . S
Co341 O366 1.941 . S
C342 O343 1.258 . S
C342 O344 1.263 1_554 S
O343 Co340 1.970 . S
O343 C342 1.258 . S
O344 Co341 1.966 . S
O344 C342 1.263 1_556 S
C345 O346 1.235 . S
C345 O372 1.289 . S
O346 C345 1.235 . S
C347 C349 1.400 . S
C347 N350 1.351 . S
C347 C352 1.501 . S
C348 C349 1.387 . S
C348 N351 1.341 . S
C349 C347 1.400 . S
C349 C348 1.387 . S
N350 Co341 2.022 . S
N350 C347 1.351 . S
N350 N351 1.365 . S
N351 C348 1.341 . S
N351 N350 1.365 . S
N351 H371 0.862 . S
C352 C347 1.501 . S
C352 H353 0.961 . S
C352 H354 0.961 . S
C352 H355 0.960 . S
H353 C352 0.961 . S
H354 C352 0.961 . S
H355 C352 0.960 . S
C356 N357 1.342 . S
C356 C360 1.401 . S
C356 C361 1.499 . S
N357 Co340 1.989 . S
N357 C356 1.342 . S
N357 N358 1.388 1_554 S
N358 Co341 1.993 . S
N358 N357 1.388 1_556 S
N358 C359 1.346 . S
C359 N358 1.346 . S
C359 C360 1.396 1_556 S
C359 C369 1.510 . S
C360 C356 1.401 . S
C360 C359 1.396 1_554 S
C361 C356 1.499 . S
C361 H362 0.959 . S
C361 H363 0.960 . S
C361 H364 0.961 . S
H362 C361 0.959 . S
H363 C361 0.960 . S
H364 C361 0.961 . S
O365 Co340 1.967 . S
O365 C373 1.258 . S
O366 Co341 1.941 . S
O366 C373 1.266 1_556 S
H367 C369 0.959 . S
H368 C369 0.961 . S
C369 C359 1.510 . S
C369 H367 0.959 . S
C369 H368 0.961 . S
C369 H370 0.960 . S
H370 C369 0.960 . S
H371 N351 0.862 . S
O372 Co340 1.920 . S
O372 C345 1.289 . S
C373 O365 1.258 . S
C373 O366 1.266 1_554 S
Co374 O377 1.970 . S
Co374 N391 1.989 . S
Co374 O399 1.967 . S
Co374 O406 1.920 . S
Co375 O378 1.966 . S
Co375 N384 2.022 . S
Co375 N392 1.993 . S
Co375 O400 1.941 . S
C376 O377 1.258 . S
C376 O378 1.263 . S
O377 Co374 1.970 . S
O377 C376 1.258 . S
O378 Co375 1.966 . S
O378 C376 1.263 . S
C379 O380 1.235 . S
C379 O406 1.289 . S
O380 C379 1.235 . S
C381 C383 1.400 . S
C381 N384 1.351 . S
C381 C386 1.501 . S
C382 C383 1.387 . S
C382 N385 1.341 . S
C383 C381 1.400 . S
C383 C382 1.387 . S
N384 Co375 2.022 . S
N384 C381 1.351 . S
N384 N385 1.365 . S
N385 C382 1.341 . S
N385 N384 1.365 . S
N385 H405 0.862 . S
C386 C381 1.501 . S
C386 H387 0.961 . S
C386 H388 0.961 . S
C386 H389 0.960 . S
H387 C386 0.961 . S
H388 C386 0.961 . S
H389 C386 0.960 . S
C390 N391 1.342 . S
C390 C394 1.401 . S
C390 C395 1.499 . S
N391 Co374 1.989 . S
N391 C390 1.342 . S
N391 N392 1.388 . S
N392 Co375 1.993 . S
N392 N391 1.388 . S
N392 C393 1.346 . S
C393 N392 1.346 . S
C393 C394 1.396 . S
C393 C403 1.510 . S
C394 C390 1.401 . S
C394 C393 1.396 . S
C395 C390 1.499 . S
C395 H396 0.959 . S
C395 H397 0.960 . S
C395 H398 0.961 . S
H396 C395 0.959 . S
H397 C395 0.960 . S
H398 C395 0.961 . S
O399 Co374 1.967 . S
O399 C407 1.258 . S
O400 Co375 1.941 . S
O400 C407 1.266 . S
H401 C403 0.959 . S
H402 C403 0.961 . S
C403 C393 1.510 . S
C403 H401 0.959 . S
C403 H402 0.961 . S
C403 H404 0.960 . S
H404 C403 0.960 . S
H405 N385 0.862 . S
O406 Co374 1.920 . S
O406 C379 1.289 . S
C407 O399 1.258 . S
C407 O400 1.266 . S
Co408 O411 1.970 . S
Co408 N425 1.989 . S
Co408 O433 1.967 . S
Co408 O440 1.920 . S
Co409 O412 1.966 . S
Co409 N418 2.022 . S
Co409 N426 1.993 . S
Co409 O434 1.941 . S
C410 O411 1.258 . S
C410 O412 1.263 1_554 S
O411 Co408 1.970 . S
O411 C410 1.258 . S
O412 Co409 1.966 . S
O412 C410 1.263 1_556 S
C413 O414 1.235 . S
C413 O440 1.289 . S
O414 C413 1.235 . S
C415 C417 1.400 . S
C415 N418 1.351 . S
C415 C420 1.501 . S
C416 C417 1.387 . S
C416 N419 1.341 . S
C417 C415 1.400 . S
C417 C416 1.387 . S
N418 Co409 2.022 . S
N418 C415 1.351 . S
N418 N419 1.365 . S
N419 C416 1.341 . S
N419 N418 1.365 . S
N419 H439 0.862 . S
C420 C415 1.501 . S
C420 H421 0.961 . S
C420 H422 0.961 . S
C420 H423 0.960 . S
H421 C420 0.961 . S
H422 C420 0.961 . S
H423 C420 0.960 . S
C424 N425 1.342 . S
C424 C428 1.401 . S
C424 C429 1.499 . S
N425 Co408 1.989 . S
N425 C424 1.342 . S
N425 N426 1.388 1_554 S
N426 Co409 1.993 . S
N426 N425 1.388 1_556 S
N426 C427 1.346 . S
C427 N426 1.346 . S
C427 C428 1.396 1_556 S
C427 C437 1.510 . S
C428 C424 1.401 . S
C428 C427 1.396 1_554 S
C429 C424 1.499 . S
C429 H430 0.959 . S
C429 H431 0.960 . S
C429 H432 0.961 . S
H430 C429 0.959 . S
H431 C429 0.960 . S
H432 C429 0.961 . S
O433 Co408 1.967 . S
O433 C441 1.258 . S
O434 Co409 1.941 . S
O434 C441 1.266 1_556 S
H435 C437 0.959 . S
H436 C437 0.961 . S
C437 C427 1.510 . S
C437 H435 0.959 . S
C437 H436 0.961 . S
C437 H438 0.960 . S
H438 C437 0.960 . S
H439 N419 0.862 . S
O440 Co408 1.920 . S
O440 C413 1.289 . S
C441 O433 1.258 . S
C441 O434 1.266 1_554 S
Co442 O445 1.970 . S
Co442 N459 1.989 . S
Co442 O467 1.967 . S
Co442 O474 1.920 . S
Co443 O446 1.966 . S
Co443 N452 2.022 . S
Co443 N460 1.993 . S
Co443 O468 1.941 . S
C444 O445 1.258 . S
C444 O446 1.263 . S
O445 Co442 1.970 . S
O445 C444 1.258 . S
O446 Co443 1.966 . S
O446 C444 1.263 . S
C447 O448 1.235 . S
C447 O474 1.289 . S
O448 C447 1.235 . S
C449 C451 1.400 . S
C449 N452 1.351 . S
C449 C454 1.501 . S
C450 C451 1.387 . S
C450 N453 1.341 . S
C451 C449 1.400 . S
C451 C450 1.387 . S
N452 Co443 2.022 . S
N452 C449 1.351 . S
N452 N453 1.365 . S
N453 C450 1.341 . S
N453 N452 1.365 . S
N453 H473 0.862 . S
C454 C449 1.501 . S
C454 H455 0.961 . S
C454 H456 0.961 . S
C454 H457 0.960 . S
H455 C454 0.961 . S
H456 C454 0.961 . S
H457 C454 0.960 . S
C458 N459 1.342 . S
C458 C462 1.401 . S
C458 C463 1.499 . S
N459 Co442 1.989 . S
N459 C458 1.342 . S
N459 N460 1.388 . S
N460 Co443 1.993 . S
N460 N459 1.388 . S
N460 C461 1.346 . S
C461 N460 1.346 . S
C461 C462 1.396 . S
C461 C471 1.510 . S
C462 C458 1.401 . S
C462 C461 1.396 . S
C463 C458 1.499 . S
C463 H464 0.959 . S
C463 H465 0.960 . S
C463 H466 0.961 . S
H464 C463 0.959 . S
H465 C463 0.960 . S
H466 C463 0.961 . S
O467 Co442 1.967 . S
O467 C475 1.258 . S
O468 Co443 1.941 . S
O468 C475 1.266 . S
H469 C471 0.959 . S
H470 C471 0.961 . S
C471 C461 1.510 . S
C471 H469 0.959 . S
C471 H470 0.961 . S
C471 H472 0.960 . S
H472 C471 0.960 . S
H473 N453 0.862 . S
O474 Co442 1.920 . S
O474 C447 1.289 . S
C475 O467 1.258 . S
C475 O468 1.266 . S
Co476 O479 1.970 . S
Co476 N493 1.989 . S
Co476 O501 1.967 . S
Co476 O508 1.920 . S
Co477 O480 1.966 . S
Co477 N486 2.022 . S
Co477 N494 1.993 . S
Co477 O502 1.941 . S
C478 O479 1.258 . S
C478 O480 1.263 . S
O479 Co476 1.970 . S
O479 C478 1.258 . S
O480 Co477 1.966 . S
O480 C478 1.263 . S
C481 O482 1.235 . S
C481 O508 1.289 . S
O482 C481 1.235 . S
C483 C485 1.400 . S
C483 N486 1.351 . S
C483 C488 1.501 . S
C484 C485 1.387 . S
C484 N487 1.341 . S
C485 C483 1.400 . S
C485 C484 1.387 . S
N486 Co477 2.022 . S
N486 C483 1.351 . S
N486 N487 1.365 . S
N487 C484 1.341 . S
N487 N486 1.365 . S
N487 H507 0.862 . S
C488 C483 1.501 . S
C488 H489 0.961 . S
C488 H490 0.961 . S
C488 H491 0.960 . S
H489 C488 0.961 . S
H490 C488 0.961 . S
H491 C488 0.960 . S
C492 N493 1.342 . S
C492 C496 1.401 . S
C492 C497 1.499 . S
N493 Co476 1.989 . S
N493 C492 1.342 . S
N493 N494 1.388 . S
N494 Co477 1.993 . S
N494 N493 1.388 . S
N494 C495 1.346 . S
C495 N494 1.346 . S
C495 C496 1.396 . S
C495 C505 1.510 . S
C496 C492 1.401 . S
C496 C495 1.396 . S
C497 C492 1.499 . S
C497 H498 0.959 . S
C497 H499 0.960 . S
C497 H500 0.961 . S
H498 C497 0.959 . S
H499 C497 0.960 . S
H500 C497 0.961 . S
O501 Co476 1.967 . S
O501 C509 1.258 . S
O502 Co477 1.941 . S
O502 C509 1.266 . S
H503 C505 0.959 . S
H504 C505 0.961 . S
C505 C495 1.510 . S
C505 H503 0.959 . S
C505 H504 0.961 . S
C505 H506 0.960 . S
H506 C505 0.960 . S
H507 N487 0.862 . S
O508 Co476 1.920 . S
O508 C481 1.289 . S
C509 O501 1.258 . S
C509 O502 1.266 . S
Co510 O513 1.970 . S
Co510 N527 1.989 . S
Co510 O535 1.967 . S
Co510 O542 1.920 . S
Co511 O514 1.966 . S
Co511 N520 2.022 . S
Co511 N528 1.993 . S
Co511 O536 1.941 . S
C512 O513 1.258 . S
C512 O514 1.263 . S
O513 Co510 1.970 . S
O513 C512 1.258 . S
O514 Co511 1.966 . S
O514 C512 1.263 . S
C515 O516 1.235 . S
C515 O542 1.289 . S
O516 C515 1.235 . S
C517 C519 1.400 . S
C517 N520 1.351 . S
C517 C522 1.501 . S
C518 C519 1.387 . S
C518 N521 1.341 . S
C519 C517 1.400 . S
C519 C518 1.387 . S
N520 Co511 2.022 . S
N520 C517 1.351 . S
N520 N521 1.365 . S
N521 C518 1.341 . S
N521 N520 1.365 . S
N521 H541 0.862 . S
C522 C517 1.501 . S
C522 H523 0.961 . S
C522 H524 0.961 . S
C522 H525 0.960 . S
H523 C522 0.961 . S
H524 C522 0.961 . S
H525 C522 0.960 . S
C526 N527 1.342 . S
C526 C530 1.401 . S
C526 C531 1.499 . S
N527 Co510 1.989 . S
N527 C526 1.342 . S
N527 N528 1.388 . S
N528 Co511 1.993 . S
N528 N527 1.388 . S
N528 C529 1.346 . S
C529 N528 1.346 . S
C529 C530 1.396 . S
C529 C539 1.510 . S
C530 C526 1.401 . S
C530 C529 1.396 . S
C531 C526 1.499 . S
C531 H532 0.959 . S
C531 H533 0.960 . S
C531 H534 0.961 . S
H532 C531 0.959 . S
H533 C531 0.960 . S
H534 C531 0.961 . S
O535 Co510 1.967 . S
O535 C543 1.258 . S
O536 Co511 1.941 . S
O536 C543 1.266 . S
H537 C539 0.959 . S
H538 C539 0.961 . S
C539 C529 1.510 . S
C539 H537 0.959 . S
C539 H538 0.961 . S
C539 H540 0.960 . S
H540 C539 0.960 . S
H541 N521 0.862 . S
O542 Co510 1.920 . S
O542 C515 1.289 . S
C543 O535 1.258 . S
C543 O536 1.266 . S
H544 C552 0.950 . S
H545 C557 0.950 . S
H546 C554 0.950 . S
H547 C556 0.950 . S
H548 C558 0.950 . S
H549 C560 0.950 . S
H550 C562 0.950 . S
H551 C563 0.950 . S
C552 H544 0.950 . S
C552 C553 1.386 . S
C552 C554 1.391 . S
C553 C552 1.386 . S
C553 C557 1.393 . S
C554 H546 0.950 . S
C554 C552 1.391 . S
C554 C555 1.400 . S
C555 C554 1.400 . S
C555 C556 1.398 . S
C555 C561 1.491 . S
C556 H547 0.950 . S
C556 C555 1.398 . S
C556 C557 1.391 . S
C557 H545 0.950 . S
C557 C553 1.393 . S
C557 C556 1.391 . S
C558 H548 0.950 . S
C558 C559 1.386 . S
C558 C560 1.391 . S
C559 C558 1.386 . S
C559 C563 1.393 . S
C560 H549 0.950 . S
C560 C558 1.391 . S
C560 C561 1.400 . S
C561 C555 1.491 . S
C561 C560 1.400 . S
C561 C562 1.398 . S
C562 H550 0.950 . S
C562 C561 1.398 . S
C562 C563 1.391 . S
C563 H551 0.950 . S
C563 C559 1.393 . S
C563 C562 1.391 . S
H564 C572 0.950 . S
H565 C577 0.950 . S
H566 C574 0.950 . S
H567 C576 0.950 . S
H568 C578 0.950 . S
H569 C580 0.950 . S
H570 C582 0.950 . S
H571 C583 0.950 . S
C572 H564 0.950 . S
C572 C573 1.386 . S
C572 C574 1.391 . S
C573 C572 1.386 . S
C573 C577 1.393 . S
C574 H566 0.950 . S
C574 C572 1.391 . S
C574 C575 1.400 . S
C575 C574 1.400 . S
C575 C576 1.398 . S
C575 C581 1.491 . S
C576 H567 0.950 . S
C576 C575 1.398 . S
C576 C577 1.391 . S
C577 H565 0.950 . S
C577 C573 1.393 . S
C577 C576 1.391 . S
C578 H568 0.950 . S
C578 C579 1.386 . S
C578 C580 1.391 . S
C579 C578 1.386 . S
C579 C583 1.393 . S
C580 H569 0.950 . S
C580 C578 1.391 . S
C580 C581 1.400 . S
C581 C575 1.491 . S
C581 C580 1.400 . S
C581 C582 1.398 . S
C582 H570 0.950 . S
C582 C581 1.398 . S
C582 C583 1.391 . S
C583 H571 0.950 . S
C583 C579 1.393 . S
C583 C582 1.391 . S
H584 C592 0.950 . S
H585 C597 0.950 . S
H586 C594 0.950 . S
H587 C596 0.950 . S
H588 C598 0.950 . S
H589 C600 0.950 . S
H590 C602 0.950 . S
H591 C603 0.950 . S
C592 H584 0.950 . S
C592 C593 1.386 . S
C592 C594 1.391 . S
C593 C592 1.386 . S
C593 C597 1.393 . S
C594 H586 0.950 . S
C594 C592 1.391 . S
C594 C595 1.400 . S
C595 C594 1.400 . S
C595 C596 1.398 . S
C595 C601 1.491 . S
C596 H587 0.950 . S
C596 C595 1.398 . S
C596 C597 1.391 . S
C597 H585 0.950 . S
C597 C593 1.393 . S
C597 C596 1.391 . S
C598 H588 0.950 . S
C598 C599 1.386 . S
C598 C600 1.391 . S
C599 C598 1.386 . S
C599 C603 1.393 . S
C600 H589 0.950 . S
C600 C598 1.391 . S
C600 C601 1.400 . S
C601 C595 1.491 . S
C601 C600 1.400 . S
C601 C602 1.398 . S
C602 H590 0.950 . S
C602 C601 1.398 . S
C602 C603 1.391 . S
C603 H591 0.950 . S
C603 C599 1.393 . S
C603 C602 1.391 . S
H604 C612 0.950 . S
H605 C617 0.950 . S
H606 C614 0.950 . S
H607 C616 0.950 . S
H608 C618 0.950 . S
H609 C620 0.950 . S
H610 C622 0.950 . S
H611 C623 0.950 . S
C612 H604 0.950 . S
C612 C613 1.386 . S
C612 C614 1.391 . S
C613 C612 1.386 . S
C613 C617 1.393 . S
C614 H606 0.950 . S
C614 C612 1.391 . S
C614 C615 1.400 . S
C615 C614 1.400 . S
C615 C616 1.398 . S
C615 C621 1.491 . S
C616 H607 0.950 . S
C616 C615 1.398 . S
C616 C617 1.391 . S
C617 H605 0.950 . S
C617 C613 1.393 . S
C617 C616 1.391 . S
C618 H608 0.950 . S
C618 C619 1.386 . S
C618 C620 1.391 . S
C619 C618 1.386 . S
C619 C623 1.393 . S
C620 H609 0.950 . S
C620 C618 1.391 . S
C620 C621 1.400 . S
C621 C615 1.491 . S
C621 C620 1.400 . S
C621 C622 1.398 . S
C622 H610 0.950 . S
C622 C621 1.398 . S
C622 C623 1.391 . S
C623 H611 0.950 . S
C623 C619 1.393 . S
C623 C622 1.391 . S
H624 C632 0.950 . S
H625 C637 0.950 . S
H626 C634 0.950 . S
H627 C636 0.950 . S
H628 C638 0.950 . S
H629 C640 0.950 . S
H630 C642 0.950 . S
H631 C643 0.950 . S
C632 H624 0.950 . S
C632 C633 1.386 . S
C632 C634 1.391 . S
C633 C632 1.386 . S
C633 C637 1.393 . S
C634 H626 0.950 . S
C634 C632 1.391 . S
C634 C635 1.400 . S
C635 C634 1.400 . S
C635 C636 1.398 . S
C635 C641 1.491 . S
C636 H627 0.950 . S
C636 C635 1.398 . S
C636 C637 1.391 . S
C637 H625 0.950 . S
C637 C633 1.393 . S
C637 C636 1.391 . S
C638 H628 0.950 . S
C638 C639 1.386 . S
C638 C640 1.391 . S
C639 C638 1.386 . S
C639 C643 1.393 . S
C640 H629 0.950 . S
C640 C638 1.391 . S
C640 C641 1.400 . S
C641 C635 1.491 . S
C641 C640 1.400 . S
C641 C642 1.398 . S
C642 H630 0.950 . S
C642 C641 1.398 . S
C642 C643 1.391 . S
C643 H631 0.950 . S
C643 C639 1.393 . S
C643 C642 1.391 . S
H644 C652 0.950 . S
H645 C657 0.950 . S
H646 C654 0.950 . S
H647 C656 0.950 . S
H648 C658 0.950 . S
H649 C660 0.950 . S
H650 C662 0.950 . S
H651 C663 0.950 . S
C652 H644 0.950 . S
C652 C653 1.386 . S
C652 C654 1.391 . S
C653 C652 1.386 . S
C653 C657 1.393 . S
C654 H646 0.950 . S
C654 C652 1.391 . S
C654 C655 1.400 . S
C655 C654 1.400 . S
C655 C656 1.398 . S
C655 C661 1.491 . S
C656 H647 0.950 . S
C656 C655 1.398 . S
C656 C657 1.391 . S
C657 H645 0.950 . S
C657 C653 1.393 . S
C657 C656 1.391 . S
C658 H648 0.950 . S
C658 C659 1.386 . S
C658 C660 1.391 . S
C659 C658 1.386 . S
C659 C663 1.393 . S
C660 H649 0.950 . S
C660 C658 1.391 . S
C660 C661 1.400 . S
C661 C655 1.491 . S
C661 C660 1.400 . S
C661 C662 1.398 . S
C662 H650 0.950 . S
C662 C661 1.398 . S
C662 C663 1.391 . S
C663 H651 0.950 . S
C663 C659 1.393 . S
C663 C662 1.391 . S
H664 C672 0.950 . S
H665 C677 0.950 . S
H666 C674 0.950 . S
H667 C676 0.950 . S
H668 C678 0.950 . S
H669 C680 0.950 . S
H670 C682 0.950 . S
H671 C683 0.950 . S
C672 H664 0.950 . S
C672 C673 1.386 . S
C672 C674 1.391 . S
C673 C672 1.386 . S
C673 C677 1.393 . S
C674 H666 0.950 . S
C674 C672 1.391 . S
C674 C675 1.400 . S
C675 C674 1.400 . S
C675 C676 1.398 . S
C675 C681 1.491 . S
C676 H667 0.950 . S
C676 C675 1.398 . S
C676 C677 1.391 . S
C677 H665 0.950 . S
C677 C673 1.393 . S
C677 C676 1.391 . S
C678 H668 0.950 . S
C678 C679 1.386 . S
C678 C680 1.391 . S
C679 C678 1.386 . S
C679 C683 1.393 . S
C680 H669 0.950 . S
C680 C678 1.391 . S
C680 C681 1.400 . S
C681 C675 1.491 . S
C681 C680 1.400 . S
C681 C682 1.398 . S
C682 H670 0.950 . S
C682 C681 1.398 . S
C682 C683 1.391 . S
C683 H671 0.950 . S
C683 C679 1.393 . S
C683 C682 1.391 . S
H684 C692 0.950 . S
H685 C697 0.950 . S
H686 C694 0.950 . S
H687 C696 0.950 . S
H688 C698 0.950 . S
H689 C700 0.950 . S
H690 C702 0.950 . S
H691 C703 0.950 . S
C692 H684 0.950 . S
C692 C693 1.386 . S
C692 C694 1.391 . S
C693 C692 1.386 . S
C693 C697 1.393 . S
C694 H686 0.950 . S
C694 C692 1.391 . S
C694 C695 1.400 . S
C695 C694 1.400 . S
C695 C696 1.398 . S
C695 C701 1.491 . S
C696 H687 0.950 . S
C696 C695 1.398 . S
C696 C697 1.391 . S
C697 H685 0.950 . S
C697 C693 1.393 . S
C697 C696 1.391 . S
C698 H688 0.950 . S
C698 C699 1.386 . S
C698 C700 1.391 . S
C699 C698 1.386 . S
C699 C703 1.393 . S
C700 H689 0.950 . S
C700 C698 1.391 . S
C700 C701 1.400 . S
C701 C695 1.491 . S
C701 C700 1.400 . S
C701 C702 1.398 . S
C702 H690 0.950 . S
C702 C701 1.398 . S
C702 C703 1.391 . S
C703 H691 0.950 . S
C703 C699 1.393 . S
C703 C702 1.391 . S
H704 C712 0.950 . S
H705 C717 0.950 . S
H706 C714 0.950 . S
H707 C716 0.950 . S
H708 C718 0.950 . S
H709 C720 0.950 . S
H710 C722 0.950 . S
H711 C723 0.950 . S
C712 H704 0.950 . S
C712 C713 1.386 . S
C712 C714 1.391 . S
C713 C712 1.386 . S
C713 C717 1.393 . S
C714 H706 0.950 . S
C714 C712 1.391 . S
C714 C715 1.400 . S
C715 C714 1.400 . S
C715 C716 1.398 . S
C715 C721 1.491 . S
C716 H707 0.950 . S
C716 C715 1.398 . S
C716 C717 1.391 . S
C717 H705 0.950 . S
C717 C713 1.393 . S
C717 C716 1.391 . S
C718 H708 0.950 . S
C718 C719 1.386 . S
C718 C720 1.391 . S
C719 C718 1.386 . S
C719 C723 1.393 . S
C720 H709 0.950 . S
C720 C718 1.391 . S
C720 C721 1.400 . S
C721 C715 1.491 . S
C721 C720 1.400 . S
C721 C722 1.398 . S
C722 H710 0.950 . S
C722 C721 1.398 . S
C722 C723 1.391 . S
C723 H711 0.950 . S
C723 C719 1.393 . S
C723 C722 1.391 . S
H724 C732 0.950 . S
H725 C737 0.950 . S
H726 C734 0.950 . S
H727 C736 0.950 . S
H728 C738 0.950 . S
H729 C740 0.950 . S
H730 C742 0.950 . S
H731 C743 0.950 . S
C732 H724 0.950 . S
C732 C733 1.386 . S
C732 C734 1.391 . S
C733 C732 1.386 . S
C733 C737 1.393 . S
C734 H726 0.950 . S
C734 C732 1.391 . S
C734 C735 1.400 . S
C735 C734 1.400 . S
C735 C736 1.398 . S
C735 C741 1.491 . S
C736 H727 0.950 . S
C736 C735 1.398 . S
C736 C737 1.391 . S
C737 H725 0.950 . S
C737 C733 1.393 . S
C737 C736 1.391 . S
C738 H728 0.950 . S
C738 C739 1.386 . S
C738 C740 1.391 . S
C739 C738 1.386 . S
C739 C743 1.393 . S
C740 H729 0.950 . S
C740 C738 1.391 . S
C740 C741 1.400 . S
C741 C735 1.491 . S
C741 C740 1.400 . S
C741 C742 1.398 . S
C742 H730 0.950 . S
C742 C741 1.398 . S
C742 C743 1.391 . S
C743 H731 0.950 . S
C743 C739 1.393 . S
C743 C742 1.391 . S
H744 C752 0.950 . S
H745 C757 0.950 . S
H746 C754 0.950 . S
H747 C756 0.950 . S
H748 C758 0.950 . S
H749 C760 0.950 . S
H750 C762 0.950 . S
H751 C763 0.950 . S
C752 H744 0.950 . S
C752 C753 1.386 . S
C752 C754 1.391 . S
C753 C752 1.386 . S
C753 C757 1.393 . S
C754 H746 0.950 . S
C754 C752 1.391 . S
C754 C755 1.400 . S
C755 C754 1.400 . S
C755 C756 1.398 . S
C755 C761 1.491 . S
C756 H747 0.950 . S
C756 C755 1.398 . S
C756 C757 1.391 . S
C757 H745 0.950 . S
C757 C753 1.393 . S
C757 C756 1.391 . S
C758 H748 0.950 . S
C758 C759 1.386 . S
C758 C760 1.391 . S
C759 C758 1.386 . S
C759 C763 1.393 . S
C760 H749 0.950 . S
C760 C758 1.391 . S
C760 C761 1.400 . S
C761 C755 1.491 . S
C761 C760 1.400 . S
C761 C762 1.398 . S
C762 H750 0.950 . S
C762 C761 1.398 . S
C762 C763 1.391 . S
C763 H751 0.950 . S
C763 C759 1.393 . S
C763 C762 1.391 . S
H764 C772 0.950 . S
H765 C777 0.950 . S
H766 C774 0.950 . S
H767 C776 0.950 . S
H768 C778 0.950 . S
H769 C780 0.950 . S
H770 C782 0.950 . S
H771 C783 0.950 . S
C772 H764 0.950 . S
C772 C773 1.386 . S
C772 C774 1.391 . S
C773 C772 1.386 . S
C773 C777 1.393 . S
C774 H766 0.950 . S
C774 C772 1.391 . S
C774 C775 1.400 . S
C775 C774 1.400 . S
C775 C776 1.398 . S
C775 C781 1.491 . S
C776 H767 0.950 . S
C776 C775 1.398 . S
C776 C777 1.391 . S
C777 H765 0.950 . S
C777 C773 1.393 . S
C777 C776 1.391 . S
C778 H768 0.950 . S
C778 C779 1.386 . S
C778 C780 1.391 . S
C779 C778 1.386 . S
C779 C783 1.393 . S
C780 H769 0.950 . S
C780 C778 1.391 . S
C780 C781 1.400 . S
C781 C775 1.491 . S
C781 C780 1.400 . S
C781 C782 1.398 . S
C782 H770 0.950 . S
C782 C781 1.398 . S
C782 C783 1.391 . S
C783 H771 0.950 . S
C783 C779 1.393 . S
C783 C782 1.391 . S
H784 C792 0.950 . S
H785 C797 0.950 . S
H786 C794 0.950 . S
H787 C796 0.950 . S
H788 C798 0.950 . S
H789 C800 0.950 . S
H790 C802 0.950 . S
H791 C803 0.950 . S
C792 H784 0.950 . S
C792 C793 1.386 . S
C792 C794 1.391 . S
C793 C792 1.386 . S
C793 C797 1.393 . S
C794 H786 0.950 . S
C794 C792 1.391 . S
C794 C795 1.400 . S
C795 C794 1.400 . S
C795 C796 1.398 . S
C795 C801 1.491 . S
C796 H787 0.950 . S
C796 C795 1.398 . S
C796 C797 1.391 . S
C797 H785 0.950 . S
C797 C793 1.393 . S
C797 C796 1.391 . S
C798 H788 0.950 . S
C798 C799 1.386 . S
C798 C800 1.391 . S
C799 C798 1.386 . S
C799 C803 1.393 . S
C800 H789 0.950 . S
C800 C798 1.391 . S
C800 C801 1.400 . S
C801 C795 1.491 . S
C801 C800 1.400 . S
C801 C802 1.398 . S
C802 H790 0.950 . S
C802 C801 1.398 . S
C802 C803 1.391 . S
C803 H791 0.950 . S
C803 C799 1.393 . S
C803 C802 1.391 . S
H804 C812 0.950 . S
H805 C817 0.950 . S
H806 C814 0.950 . S
H807 C816 0.950 . S
H808 C818 0.950 . S
H809 C820 0.950 . S
H810 C822 0.950 . S
H811 C823 0.950 . S
C812 H804 0.950 . S
C812 C813 1.386 . S
C812 C814 1.391 . S
C813 C812 1.386 . S
C813 C817 1.393 . S
C814 H806 0.950 . S
C814 C812 1.391 . S
C814 C815 1.400 . S
C815 C814 1.400 . S
C815 C816 1.398 . S
C815 C821 1.491 . S
C816 H807 0.950 . S
C816 C815 1.398 . S
C816 C817 1.391 . S
C817 H805 0.950 . S
C817 C813 1.393 . S
C817 C816 1.391 . S
C818 H808 0.950 . S
C818 C819 1.386 . S
C818 C820 1.391 . S
C819 C818 1.386 . S
C819 C823 1.393 . S
C820 H809 0.950 . S
C820 C818 1.391 . S
C820 C821 1.400 . S
C821 C815 1.491 . S
C821 C820 1.400 . S
C821 C822 1.398 . S
C822 H810 0.950 . S
C822 C821 1.398 . S
C822 C823 1.391 . S
C823 H811 0.950 . S
C823 C819 1.393 . S
C823 C822 1.391 . S
H824 C832 0.950 . S
H825 C837 0.950 . S
H826 C834 0.950 . S
H827 C836 0.950 . S
H828 C838 0.950 . S
H829 C840 0.950 . S
H830 C842 0.950 . S
H831 C843 0.950 . S
C832 H824 0.950 . S
C832 C833 1.386 . S
C832 C834 1.391 . S
C833 C832 1.386 . S
C833 C837 1.393 . S
C834 H826 0.950 . S
C834 C832 1.391 . S
C834 C835 1.400 . S
C835 C834 1.400 . S
C835 C836 1.398 . S
C835 C841 1.491 . S
C836 H827 0.950 . S
C836 C835 1.398 . S
C836 C837 1.391 . S
C837 H825 0.950 . S
C837 C833 1.393 . S
C837 C836 1.391 . S
C838 H828 0.950 . S
C838 C839 1.386 . S
C838 C840 1.391 . S
C839 C838 1.386 . S
C839 C843 1.393 . S
C840 H829 0.950 . S
C840 C838 1.391 . S
C840 C841 1.400 . S
C841 C835 1.491 . S
C841 C840 1.400 . S
C841 C842 1.398 . S
C842 H830 0.950 . S
C842 C841 1.398 . S
C842 C843 1.391 . S
C843 H831 0.950 . S
C843 C839 1.393 . S
C843 C842 1.391 . S
H844 C852 0.950 . S
H845 C857 0.950 . S
H846 C854 0.950 . S
H847 C856 0.950 . S
H848 C858 0.950 . S
H849 C860 0.950 . S
H850 C862 0.950 . S
H851 C863 0.950 . S
C852 H844 0.950 . S
C852 C853 1.386 . S
C852 C854 1.391 . S
C853 C852 1.386 . S
C853 C857 1.393 . S
C854 H846 0.950 . S
C854 C852 1.391 . S
C854 C855 1.400 . S
C855 C854 1.400 . S
C855 C856 1.398 . S
C855 C861 1.491 . S
C856 H847 0.950 . S
C856 C855 1.398 . S
C856 C857 1.391 . S
C857 H845 0.950 . S
C857 C853 1.393 . S
C857 C856 1.391 . S
C858 H848 0.950 . S
C858 C859 1.386 . S
C858 C860 1.391 . S
C859 C858 1.386 . S
C859 C863 1.393 . S
C860 H849 0.950 . S
C860 C858 1.391 . S
C860 C861 1.400 . S
C861 C855 1.491 . S
C861 C860 1.400 . S
C861 C862 1.398 . S
C862 H850 0.950 . S
C862 C861 1.398 . S
C862 C863 1.391 . S
C863 H851 0.950 . S
C863 C859 1.393 . S
C863 C862 1.391 . S
H864 C872 0.950 . S
H865 C877 0.950 . S
H866 C874 0.950 . S
H867 C876 0.950 1_655 S
H868 C878 0.950 . S
H869 C880 0.950 . S
H870 C882 0.950 1_455 S
H871 C883 0.950 . S
C872 H864 0.950 . S
C872 C873 1.386 1_556 S
C872 C874 1.391 . S
C873 C872 1.386 1_554 S
C873 C877 1.393 . S
C874 H866 0.950 . S
C874 C872 1.391 . S
C874 C875 1.400 1_556 S
C875 C874 1.400 1_554 S
C875 C876 1.398 . S
C875 C881 1.491 1_455 S
C876 H867 0.950 1_455 S
C876 C875 1.398 . S
C876 C877 1.391 . S
C877 H865 0.950 . S
C877 C873 1.393 . S
C877 C876 1.391 . S
C878 H868 0.950 . S
C878 C879 1.386 . S
C878 C880 1.391 . S
C879 C878 1.386 . S
C879 C883 1.393 1_554 S
C880 H869 0.950 . S
C880 C878 1.391 . S
C880 C881 1.400 . S
C881 C875 1.491 1_655 S
C881 C880 1.400 . S
C881 C882 1.398 1_554 S
C882 H870 0.950 1_655 S
C882 C881 1.398 1_556 S
C882 C883 1.391 . S
C883 H871 0.950 . S
C883 C879 1.393 1_556 S
C883 C882 1.391 . S
H884 C892 0.950 . S
H885 C897 0.950 . S
H886 C894 0.950 . S
H887 C896 0.950 . S
H888 C898 0.950 . S
H889 C900 0.950 . S
H890 C902 0.950 . S
H891 C903 0.950 . S
C892 H884 0.950 . S
C892 C893 1.386 . S
C892 C894 1.391 . S
C893 C892 1.386 . S
C893 C897 1.393 . S
C894 H886 0.950 . S
C894 C892 1.391 . S
C894 C895 1.400 . S
C895 C894 1.400 . S
C895 C896 1.398 . S
C895 C901 1.491 . S
C896 H887 0.950 . S
C896 C895 1.398 . S
C896 C897 1.391 . S
C897 H885 0.950 . S
C897 C893 1.393 . S
C897 C896 1.391 . S
C898 H888 0.950 . S
C898 C899 1.386 . S
C898 C900 1.391 . S
C899 C898 1.386 . S
C899 C903 1.393 . S
C900 H889 0.950 . S
C900 C898 1.391 . S
C900 C901 1.400 . S
C901 C895 1.491 . S
C901 C900 1.400 . S
C901 C902 1.398 . S
C902 H890 0.950 . S
C902 C901 1.398 . S
C902 C903 1.391 . S
C903 H891 0.950 . S
C903 C899 1.393 . S
C903 C902 1.391 . S
H904 C912 0.950 . S
H905 C917 0.950 . S
H906 C914 0.950 . S
H907 C916 0.950 . S
H908 C918 0.950 . S
H909 C920 0.950 . S
H910 C922 0.950 . S
H911 C923 0.950 . S
C912 H904 0.950 . S
C912 C913 1.386 . S
C912 C914 1.391 . S
C913 C912 1.386 . S
C913 C917 1.393 . S
C914 H906 0.950 . S
C914 C912 1.391 . S
C914 C915 1.400 . S
C915 C914 1.400 . S
C915 C916 1.398 . S
C915 C921 1.491 1_565 S
C916 H907 0.950 . S
C916 C915 1.398 . S
C916 C917 1.391 . S
C917 H905 0.950 . S
C917 C913 1.393 . S
C917 C916 1.391 . S
C918 H908 0.950 . S
C918 C919 1.386 . S
C918 C920 1.391 . S
C919 C918 1.386 . S
C919 C923 1.393 . S
C920 H909 0.950 . S
C920 C918 1.391 . S
C920 C921 1.400 . S
C921 C915 1.491 1_545 S
C921 C920 1.400 . S
C921 C922 1.398 . S
C922 H910 0.950 . S
C922 C921 1.398 . S
C922 C923 1.391 . S
C923 H911 0.950 . S
C923 C919 1.393 . S
C923 C922 1.391 . S
H924 C932 0.950 . S
H925 C937 0.950 . S
H926 C934 0.950 . S
H927 C936 0.950 . S
H928 C938 0.950 . S
H929 C940 0.950 . S
H930 C942 0.950 . S
H931 C943 0.950 . S
C932 H924 0.950 . S
C932 C933 1.386 . S
C932 C934 1.391 . S
C933 C932 1.386 . S
C933 C937 1.393 . S
C934 H926 0.950 . S
C934 C932 1.391 . S
C934 C935 1.400 . S
C935 C934 1.400 . S
C935 C936 1.398 . S
C935 C941 1.491 1_445 S
C936 H927 0.950 . S
C936 C935 1.398 . S
C936 C937 1.391 . S
C937 H925 0.950 . S
C937 C933 1.393 . S
C937 C936 1.391 . S
C938 H928 0.950 . S
C938 C939 1.386 . S
C938 C940 1.391 . S
C939 C938 1.386 . S
C939 C943 1.393 . S
C940 H929 0.950 . S
C940 C938 1.391 . S
C940 C941 1.400 . S
C941 C935 1.491 1_665 S
C941 C940 1.400 . S
C941 C942 1.398 . S
C942 H930 0.950 . S
C942 C941 1.398 . S
C942 C943 1.391 . S
C943 H931 0.950 . S
C943 C939 1.393 . S
C943 C942 1.391 . S
H944 C952 0.950 . S
H945 C957 0.950 . S
H946 C954 0.950 1_455 S
H947 C956 0.950 . S
H948 C958 0.950 . S
H949 C960 0.950 1_655 S
H950 C962 0.950 . S
H951 C963 0.950 . S
C952 H944 0.950 . S
C952 C953 1.386 . S
C952 C954 1.391 . S
C953 C952 1.386 . S
C953 C957 1.393 . S
C954 H946 0.950 1_655 S
C954 C952 1.391 . S
C954 C955 1.400 . S
C955 C954 1.400 . S
C955 C956 1.398 . S
C955 C961 1.491 1_655 S
C956 H947 0.950 . S
C956 C955 1.398 . S
C956 C957 1.391 . S
C957 H945 0.950 . S
C957 C953 1.393 . S
C957 C956 1.391 . S
C958 H948 0.950 . S
C958 C959 1.386 . S
C958 C960 1.391 . S
C959 C958 1.386 . S
C959 C963 1.393 . S
C960 H949 0.950 1_455 S
C960 C958 1.391 . S
C960 C961 1.400 . S
C961 C955 1.491 1_455 S
C961 C960 1.400 . S
C961 C962 1.398 . S
C962 H950 0.950 . S
C962 C961 1.398 . S
C962 C963 1.391 . S
C963 H951 0.950 . S
C963 C959 1.393 . S
C963 C962 1.391 . S
H964 C972 0.950 . S
H965 C977 0.950 . S
H966 C974 0.950 . S
H967 C976 0.950 . S
H968 C978 0.950 . S
H969 C980 0.950 . S
H970 C982 0.950 . S
H971 C983 0.950 . S
C972 H964 0.950 . S
C972 C973 1.386 . S
C972 C974 1.391 . S
C973 C972 1.386 . S
C973 C977 1.393 . S
C974 H966 0.950 . S
C974 C972 1.391 . S
C974 C975 1.400 . S
C975 C974 1.400 . S
C975 C976 1.398 . S
C975 C981 1.491 . S
C976 H967 0.950 . S
C976 C975 1.398 . S
C976 C977 1.391 . S
C977 H965 0.950 . S
C977 C973 1.393 . S
C977 C976 1.391 . S
C978 H968 0.950 . S
C978 C979 1.386 . S
C978 C980 1.391 . S
C979 C978 1.386 . S
C979 C983 1.393 . S
C980 H969 0.950 . S
C980 C978 1.391 . S
C980 C981 1.400 . S
C981 C975 1.491 . S
C981 C980 1.400 . S
C981 C982 1.398 . S
C982 H970 0.950 . S
C982 C981 1.398 . S
C982 C983 1.391 . S
C983 H971 0.950 . S
C983 C979 1.393 . S
C983 C982 1.391 . S
H984 C992 0.950 . S
H985 C997 0.950 . S
H986 C994 0.950 . S
H987 C996 0.950 . S
H988 C998 0.950 . S
H989 C1000 0.950 . S
H990 C1002 0.950 . S
H991 C1003 0.950 . S
C992 H984 0.950 . S
C992 C993 1.386 1_556 S
C992 C994 1.391 . S
C993 C992 1.386 1_554 S
C993 C997 1.393 . S
C994 H986 0.950 . S
C994 C992 1.391 . S
C994 C995 1.400 1_556 S
C995 C994 1.400 1_554 S
C995 C996 1.398 . S
C995 C1001 1.491 1_545 S
C996 H987 0.950 . S
C996 C995 1.398 . S
C996 C997 1.391 . S
C997 H985 0.950 . S
C997 C993 1.393 . S
C997 C996 1.391 . S
C998 H988 0.950 . S
C998 C999 1.386 . S
C998 C1000 1.391 . S
C999 C998 1.386 . S
C999 C1003 1.393 1_554 S
C1000 H989 0.950 . S
C1000 C998 1.391 . S
C1000 C1001 1.400 . S
C1001 C995 1.491 1_565 S
C1001 C1000 1.400 . S
C1001 C1002 1.398 1_554 S
C1002 H990 0.950 . S
C1002 C1001 1.398 1_556 S
C1002 C1003 1.391 . S
C1003 H991 0.950 . S
C1003 C999 1.393 1_556 S
C1003 C1002 1.391 . S
H1004 C1012 0.950 . S
H1005 C1017 0.950 . S
H1006 C1014 0.950 1_655 S
H1007 C1016 0.950 1_545 S
H1008 C1018 0.950 . S
H1009 C1020 0.950 1_455 S
H1010 C1022 0.950 1_565 S
H1011 C1023 0.950 . S
C1012 H1004 0.950 . S
C1012 C1013 1.386 . S
C1012 C1014 1.391 . S
C1013 C1012 1.386 . S
C1013 C1017 1.393 . S
C1014 H1006 0.950 1_455 S
C1014 C1012 1.391 . S
C1014 C1015 1.400 . S
C1015 C1014 1.400 . S
C1015 C1016 1.398 . S
C1015 C1021 1.491 1_465 S
C1016 H1007 0.950 1_565 S
C1016 C1015 1.398 . S
C1016 C1017 1.391 . S
C1017 H1005 0.950 . S
C1017 C1013 1.393 . S
C1017 C1016 1.391 . S
C1018 H1008 0.950 . S
C1018 C1019 1.386 . S
C1018 C1020 1.391 . S
C1019 C1018 1.386 . S
C1019 C1023 1.393 . S
C1020 H1009 0.950 1_655 S
C1020 C1018 1.391 . S
C1020 C1021 1.400 . S
C1021 C1015 1.491 1_645 S
C1021 C1020 1.400 . S
C1021 C1022 1.398 . S
C1022 H1010 0.950 1_545 S
C1022 C1021 1.398 . S
C1022 C1023 1.391 . S
C1023 H1011 0.950 . S
C1023 C1019 1.393 . S
C1023 C1022 1.391 . S
H1024 C1032 0.950 . S
H1025 C1037 0.973 . S
H1026 C1034 0.950 . S
H1027 C1036 0.950 . S
H1028 C1038 0.950 . S
H1029 C1040 0.950 . S
H1030 C1042 0.950 . S
H1031 C1043 0.950 . S
C1032 H1024 0.950 . S
C1032 C1033 1.386 . S
C1032 C1034 1.391 . S
C1033 C1032 1.386 . S
C1033 C1037 1.370 1_554 S
C1034 H1026 0.950 . S
C1034 C1032 1.391 . S
C1034 C1035 1.400 . S
C1035 C1034 1.400 . S
C1035 C1036 1.398 1_554 S
C1035 C1041 1.491 . S
C1036 H1027 0.950 . S
C1036 C1035 1.398 1_556 S
C1036 C1037 1.393 . S
C1037 H1025 0.973 . S
C1037 C1033 1.370 1_556 S
C1037 C1036 1.393 . S
C1038 H1028 0.950 . S
C1038 C1039 1.386 1_556 S
C1038 C1040 1.391 . S
C1039 C1038 1.386 1_554 S
C1039 C1043 1.393 . S
C1040 H1029 0.950 . S
C1040 C1038 1.391 . S
C1040 C1041 1.400 1_556 S
C1041 C1035 1.491 . S
C1041 C1040 1.400 1_554 S
C1041 C1042 1.398 . S
C1042 H1030 0.950 . S
C1042 C1041 1.398 . S
C1042 C1043 1.391 . S
C1043 H1031 0.950 . S
C1043 C1039 1.393 . S
C1043 C1042 1.391 . S
H1044 C1052 0.950 . S
H1045 C1057 0.950 . S
H1046 C1054 0.950 . S
H1047 C1056 0.950 . S
H1048 C1058 0.950 . S
H1049 C1060 0.950 . S
H1050 C1062 0.950 . S
H1051 C1063 0.949 . S
C1052 H1044 0.950 . S
C1052 C1053 1.386 . S
C1052 C1054 1.391 . S
C1053 C1052 1.386 . S
C1053 C1057 1.393 . S
C1054 H1046 0.950 . S
C1054 C1052 1.391 . S
C1054 C1055 1.400 . S
C1055 C1054 1.400 . S
C1055 C1056 1.398 . S
C1055 C1061 1.491 . S
C1056 H1047 0.950 . S
C1056 C1055 1.398 . S
C1056 C1057 1.391 . S
C1057 H1045 0.950 . S
C1057 C1053 1.393 . S
C1057 C1056 1.391 . S
C1058 H1048 0.950 . S
C1058 C1059 1.386 . S
C1058 C1060 1.391 1_545 S
C1059 C1058 1.386 . S
C1059 C1063 1.392 . S
C1060 H1049 0.950 . S
C1060 C1058 1.391 1_565 S
C1060 C1061 1.400 . S
C1061 C1055 1.491 . S
C1061 C1060 1.400 . S
C1061 C1062 1.398 . S
C1062 H1050 0.950 . S
C1062 C1061 1.398 . S
C1062 C1063 1.392 1_565 S
C1063 H1051 0.949 . S
C1063 C1059 1.392 . S
C1063 C1062 1.392 1_545 S
H1064 C1072 0.950 . S
H1065 C1077 0.950 . S
H1066 C1074 0.950 . S
H1067 C1076 0.950 . S
H1068 C1078 0.950 . S
H1069 C1080 0.950 . S
H1070 C1082 0.950 . S
H1071 C1083 0.950 . S
C1072 H1064 0.950 . S
C1072 C1073 1.386 . S
C1072 C1074 1.391 1_655 S
C1073 C1072 1.386 . S
C1073 C1077 1.393 . S
C1074 H1066 0.950 . S
C1074 C1072 1.391 1_455 S
C1074 C1075 1.400 . S
C1075 C1074 1.400 . S
C1075 C1076 1.398 . S
C1075 C1081 1.491 . S
C1076 H1067 0.950 . S
C1076 C1075 1.398 . S
C1076 C1077 1.391 1_455 S
C1077 H1065 0.950 . S
C1077 C1073 1.393 . S
C1077 C1076 1.391 1_655 S
C1078 H1068 0.950 . S
C1078 C1079 1.386 . S
C1078 C1080 1.391 . S
C1079 C1078 1.386 . S
C1079 C1083 1.393 . S
C1080 H1069 0.950 . S
C1080 C1078 1.391 . S
C1080 C1081 1.400 . S
C1081 C1075 1.491 . S
C1081 C1080 1.400 . S
C1081 C1082 1.398 . S
C1082 H1070 0.950 . S
C1082 C1081 1.398 . S
C1082 C1083 1.391 . S
C1083 H1071 0.950 . S
C1083 C1079 1.393 . S
C1083 C1082 1.391 . S
H1084 C1092 0.950 . S
H1085 C1097 0.950 . S
H1086 C1094 0.950 . S
H1087 C1096 0.950 . S
H1088 C1098 0.950 . S
H1089 C1100 0.950 . S
H1090 C1102 0.950 . S
H1091 C1103 0.950 . S
C1092 H1084 0.950 . S
C1092 C1093 1.386 . S
C1092 C1094 1.391 . S
C1093 C1092 1.386 . S
C1093 C1097 1.393 . S
C1094 H1086 0.950 . S
C1094 C1092 1.391 . S
C1094 C1095 1.400 . S
C1095 C1094 1.400 . S
C1095 C1096 1.398 . S
C1095 C1101 1.491 . S
C1096 H1087 0.950 . S
C1096 C1095 1.398 . S
C1096 C1097 1.391 . S
C1097 H1085 0.950 . S
C1097 C1093 1.393 . S
C1097 C1096 1.391 . S
C1098 H1088 0.950 . S
C1098 C1099 1.386 . S
C1098 C1100 1.391 . S
C1099 C1098 1.386 . S
C1099 C1103 1.393 . S
C1100 H1089 0.950 . S
C1100 C1098 1.391 . S
C1100 C1101 1.400 . S
C1101 C1095 1.491 . S
C1101 C1100 1.400 . S
C1101 C1102 1.398 . S
C1102 H1090 0.950 . S
C1102 C1101 1.398 . S
C1102 C1103 1.391 . S
C1103 H1091 0.950 . S
C1103 C1099 1.393 . S
C1103 C1102 1.391 . S
H1104 C1112 0.950 . S
H1105 C1117 0.950 . S
H1106 C1114 0.950 . S
H1107 C1116 0.950 . S
H1108 C1118 0.950 . S
H1109 C1120 0.950 . S
H1110 C1122 0.950 . S
H1111 C1123 0.950 . S
C1112 H1104 0.950 . S
C1112 C1113 1.386 . S
C1112 C1114 1.391 . S
C1113 C1112 1.386 . S
C1113 C1117 1.393 . S
C1114 H1106 0.950 . S
C1114 C1112 1.391 . S
C1114 C1115 1.400 . S
C1115 C1114 1.400 . S
C1115 C1116 1.398 . S
C1115 C1121 1.491 . S
C1116 H1107 0.950 . S
C1116 C1115 1.398 . S
C1116 C1117 1.391 . S
C1117 H1105 0.950 . S
C1117 C1113 1.393 . S
C1117 C1116 1.391 . S
C1118 H1108 0.950 . S
C1118 C1119 1.386 . S
C1118 C1120 1.391 . S
C1119 C1118 1.386 . S
C1119 C1123 1.393 . S
C1120 H1109 0.950 . S
C1120 C1118 1.391 . S
C1120 C1121 1.400 . S
C1121 C1115 1.491 . S
C1121 C1120 1.400 . S
C1121 C1122 1.398 . S
C1122 H1110 0.950 . S
C1122 C1121 1.398 . S
C1122 C1123 1.391 . S
C1123 H1111 0.950 . S
C1123 C1119 1.393 . S
C1123 C1122 1.391 . S
H1124 C1132 0.950 . S
H1125 C1137 0.950 . S
H1126 C1134 0.950 . S
H1127 C1136 0.950 . S
H1128 C1138 0.948 1_565 S
H1129 C1140 0.950 . S
H1130 C1142 0.950 . S
H1131 C1143 0.950 . S
C1132 H1124 0.950 . S
C1132 C1133 1.386 . S
C1132 C1134 1.391 . S
C1133 C1132 1.386 . S
C1133 C1137 1.393 . S
C1134 H1126 0.950 . S
C1134 C1132 1.391 . S
C1134 C1135 1.400 . S
C1135 C1134 1.400 . S
C1135 C1136 1.398 . S
C1135 C1141 1.491 . S
C1136 H1127 0.950 . S
C1136 C1135 1.398 . S
C1136 C1137 1.391 . S
C1137 H1125 0.950 . S
C1137 C1133 1.393 . S
C1137 C1136 1.391 . S
C1138 H1128 0.948 1_545 S
C1138 C1139 1.384 1_545 S
C1138 C1140 1.394 . S
C1139 C1138 1.384 1_565 S
C1139 C1143 1.393 . S
C1140 H1129 0.950 . S
C1140 C1138 1.394 . S
C1140 C1141 1.400 . S
C1141 C1135 1.491 . S
C1141 C1140 1.400 . S
C1141 C1142 1.398 . S
C1142 H1130 0.950 . S
C1142 C1141 1.398 . S
C1142 C1143 1.391 1_545 S
C1143 H1131 0.950 . S
C1143 C1139 1.393 . S
C1143 C1142 1.391 1_565 S
H1144 C1152 0.950 . S
H1145 C1157 0.954 . S
H1146 C1154 0.950 . S
H1147 C1156 0.950 . S
H1148 C1158 0.950 . S
H1149 C1160 0.950 . S
H1150 C1162 0.950 . S
H1151 C1163 0.950 . S
C1152 H1144 0.950 . S
C1152 C1153 1.386 1_556 S
C1152 C1154 1.391 1_455 S
C1153 C1152 1.386 1_554 S
C1153 C1157 1.398 . S
C1154 H1146 0.950 . S
C1154 C1152 1.391 1_655 S
C1154 C1155 1.400 1_556 S
C1155 C1154 1.400 1_554 S
C1155 C1156 1.398 . S
C1155 C1161 1.491 . S
C1156 H1147 0.950 . S
C1156 C1155 1.398 . S
C1156 C1157 1.382 1_655 S
C1157 H1145 0.954 . S
C1157 C1153 1.398 . S
C1157 C1156 1.382 1_455 S
C1158 H1148 0.950 . S
C1158 C1159 1.386 . S
C1158 C1160 1.391 . S
C1159 C1158 1.386 . S
C1159 C1163 1.393 1_554 S
C1160 H1149 0.950 . S
C1160 C1158 1.391 . S
C1160 C1161 1.400 . S
C1161 C1155 1.491 . S
C1161 C1160 1.400 . S
C1161 C1162 1.398 1_554 S
C1162 H1150 0.950 . S
C1162 C1161 1.398 1_556 S
C1162 C1163 1.391 . S
C1163 H1151 0.950 . S
C1163 C1159 1.393 1_556 S
C1163 C1162 1.391 . S
H1164 C1172 0.950 . S
H1165 C1177 0.950 . S
H1166 C1174 0.950 . S
H1167 C1176 0.950 . S
H1168 C1178 0.950 . S
H1169 C1180 0.950 . S
H1170 C1182 0.950 . S
H1171 C1183 0.950 . S
C1172 H1164 0.950 . S
C1172 C1173 1.386 . S
C1172 C1174 1.391 . S
C1173 C1172 1.386 . S
C1173 C1177 1.393 . S
C1174 H1166 0.950 . S
C1174 C1172 1.391 . S
C1174 C1175 1.400 . S
C1175 C1174 1.400 . S
C1175 C1176 1.398 . S
C1175 C1181 1.491 . S
C1176 H1167 0.950 . S
C1176 C1175 1.398 . S
C1176 C1177 1.391 . S
C1177 H1165 0.950 . S
C1177 C1173 1.393 . S
C1177 C1176 1.391 . S
C1178 H1168 0.950 . S
C1178 C1179 1.386 . S
C1178 C1180 1.391 . S
C1179 C1178 1.386 . S
C1179 C1183 1.393 . S
C1180 H1169 0.950 . S
C1180 C1178 1.391 . S
C1180 C1181 1.400 . S
C1181 C1175 1.491 . S
C1181 C1180 1.400 . S
C1181 C1182 1.398 . S
C1182 H1170 0.950 . S
C1182 C1181 1.398 . S
C1182 C1183 1.391 . S
C1183 H1171 0.950 . S
C1183 C1179 1.393 . S
C1183 C1182 1.391 . S
H1184 C1192 0.950 . S
H1185 C1197 0.950 . S
H1186 C1194 0.950 . S
H1187 C1196 0.950 . S
H1188 C1198 0.950 . S
H1189 C1200 0.950 . S
H1190 C1202 0.950 . S
H1191 C1203 0.950 . S
C1192 H1184 0.950 . S
C1192 C1193 1.386 . S
C1192 C1194 1.391 1_455 S
C1193 C1192 1.386 . S
C1193 C1197 1.393 . S
C1194 H1186 0.950 . S
C1194 C1192 1.391 1_655 S
C1194 C1195 1.400 . S
C1195 C1194 1.400 . S
C1195 C1196 1.398 . S
C1195 C1201 1.491 . S
C1196 H1187 0.950 . S
C1196 C1195 1.398 . S
C1196 C1197 1.391 1_655 S
C1197 H1185 0.950 . S
C1197 C1193 1.393 . S
C1197 C1196 1.391 1_455 S
C1198 H1188 0.950 . S
C1198 C1199 1.386 . S
C1198 C1200 1.391 . S
C1199 C1198 1.386 . S
C1199 C1203 1.393 . S
C1200 H1189 0.950 . S
C1200 C1198 1.391 . S
C1200 C1201 1.400 . S
C1201 C1195 1.491 . S
C1201 C1200 1.400 . S
C1201 C1202 1.398 . S
C1202 H1190 0.950 . S
C1202 C1201 1.398 . S
C1202 C1203 1.391 . S
C1203 H1191 0.950 . S
C1203 C1199 1.393 . S
C1203 C1202 1.391 . S
H1204 C1212 0.950 . S
H1205 C1217 0.950 . S
H1206 C1214 0.950 . S
H1207 C1216 0.950 . S
H1208 C1218 0.950 . S
H1209 C1220 0.950 . S
H1210 C1222 0.950 . S
H1211 C1223 0.950 . S
C1212 H1204 0.950 . S
C1212 C1213 1.386 . S
C1212 C1214 1.391 . S
C1213 C1212 1.386 . S
C1213 C1217 1.393 . S
C1214 H1206 0.950 . S
C1214 C1212 1.391 . S
C1214 C1215 1.400 . S
C1215 C1214 1.400 . S
C1215 C1216 1.398 . S
C1215 C1221 1.491 . S
C1216 H1207 0.950 . S
C1216 C1215 1.398 . S
C1216 C1217 1.391 . S
C1217 H1205 0.950 . S
C1217 C1213 1.393 . S
C1217 C1216 1.391 . S
C1218 H1208 0.950 . S
C1218 C1219 1.386 . S
C1218 C1220 1.391 . S
C1219 C1218 1.386 . S
C1219 C1223 1.393 . S
C1220 H1209 0.950 . S
C1220 C1218 1.391 . S
C1220 C1221 1.400 . S
C1221 C1215 1.491 . S
C1221 C1220 1.400 . S
C1221 C1222 1.398 . S
C1222 H1210 0.950 . S
C1222 C1221 1.398 . S
C1222 C1223 1.391 . S
C1223 H1211 0.950 . S
C1223 C1219 1.393 . S
C1223 C1222 1.391 . S
H1224 C1232 0.950 . S
H1225 C1237 0.950 . S
H1226 C1234 0.950 . S
H1227 C1236 0.950 . S
H1228 C1238 0.950 . S
H1229 C1240 0.950 . S
H1230 C1242 0.950 . S
H1231 C1243 0.950 . S
C1232 H1224 0.950 . S
C1232 C1233 1.386 . S
C1232 C1234 1.391 . S
C1233 C1232 1.386 . S
C1233 C1237 1.393 1_554 S
C1234 H1226 0.950 . S
C1234 C1232 1.391 . S
C1234 C1235 1.400 . S
C1235 C1234 1.400 . S
C1235 C1236 1.398 1_554 S
C1235 C1241 1.491 . S
C1236 H1227 0.950 . S
C1236 C1235 1.398 1_556 S
C1236 C1237 1.391 . S
C1237 H1225 0.950 . S
C1237 C1233 1.393 1_556 S
C1237 C1236 1.391 . S
C1238 H1228 0.950 . S
C1238 C1239 1.386 1_556 S
C1238 C1240 1.391 . S
C1239 C1238 1.386 1_554 S
C1239 C1243 1.393 . S
C1240 H1229 0.950 . S
C1240 C1238 1.391 . S
C1240 C1241 1.400 1_556 S
C1241 C1235 1.491 . S
C1241 C1240 1.400 1_554 S
C1241 C1242 1.398 . S
C1242 H1230 0.950 . S
C1242 C1241 1.398 . S
C1242 C1243 1.391 . S
C1243 H1231 0.950 . S
C1243 C1239 1.393 . S
C1243 C1242 1.391 . S
H1244 C1252 0.950 . S
H1245 C1257 0.950 . S
H1246 C1254 0.950 . S
H1247 C1256 0.950 . S
H1248 C1258 0.960 . S
H1249 C1260 0.950 . S
H1250 C1262 0.950 . S
H1251 C1263 0.950 . S
C1252 H1244 0.950 . S
C1252 C1253 1.386 . S
C1252 C1254 1.391 . S
C1253 C1252 1.386 . S
C1253 C1257 1.393 . S
C1254 H1246 0.950 . S
C1254 C1252 1.391 . S
C1254 C1255 1.400 . S
C1255 C1254 1.400 . S
C1255 C1256 1.398 . S
C1255 C1261 1.491 . S
C1256 H1247 0.950 . S
C1256 C1255 1.398 . S
C1256 C1257 1.391 . S
C1257 H1245 0.950 . S
C1257 C1253 1.393 . S
C1257 C1256 1.391 . S
C1258 H1248 0.960 . S
C1258 C1259 1.396 . S
C1258 C1260 1.371 1_565 S
C1259 C1258 1.396 . S
C1259 C1263 1.393 . S
C1260 H1249 0.950 . S
C1260 C1258 1.371 1_545 S
C1260 C1261 1.400 . S
C1261 C1255 1.491 . S
C1261 C1260 1.400 . S
C1261 C1262 1.398 . S
C1262 H1250 0.950 . S
C1262 C1261 1.398 . S
C1262 C1263 1.391 1_545 S
C1263 H1251 0.950 . S
C1263 C1259 1.393 . S
C1263 C1262 1.391 1_565 S
H1264 C1272 0.950 . S
H1265 C1277 0.942 1_655 S
H1266 C1274 0.950 . S
H1267 C1276 0.950 . S
H1268 C1278 0.950 . S
H1269 C1280 0.950 . S
H1270 C1282 0.950 . S
H1271 C1283 0.950 . S
C1272 H1264 0.950 . S
C1272 C1273 1.386 1_556 S
C1272 C1274 1.391 1_655 S
C1273 C1272 1.386 1_554 S
C1273 C1277 1.384 1_655 S
C1274 H1266 0.950 . S
C1274 C1272 1.391 1_455 S
C1274 C1275 1.400 1_556 S
C1275 C1274 1.400 1_554 S
C1275 C1276 1.398 . S
C1275 C1281 1.491 . S
C1276 H1267 0.950 . S
C1276 C1275 1.398 . S
C1276 C1277 1.407 . S
C1277 H1265 0.942 1_455 S
C1277 C1273 1.384 1_455 S
C1277 C1276 1.407 . S
C1278 H1268 0.950 . S
C1278 C1279 1.386 . S
C1278 C1280 1.391 . S
C1279 C1278 1.386 . S
C1279 C1283 1.393 1_554 S
C1280 H1269 0.950 . S
C1280 C1278 1.391 . S
C1280 C1281 1.400 . S
C1281 C1275 1.491 . S
C1281 C1280 1.400 . S
C1281 C1282 1.398 1_554 S
C1282 H1270 0.950 . S
C1282 C1281 1.398 1_556 S
C1282 C1283 1.391 . S
C1283 H1271 0.950 . S
C1283 C1279 1.393 1_556 S
C1283 C1282 1.391 . S
H1284 C1292 0.950 . S
H1285 C1297 0.950 . S
H1286 C1294 0.950 . S
H1287 C1296 0.950 . S
H1288 C1298 0.950 . S
H1289 C1300 0.950 . S
H1290 C1302 0.950 . S
H1291 C1303 0.950 . S
C1292 H1284 0.950 . S
C1292 C1293 1.386 . S
C1292 C1294 1.391 . S
C1293 C1292 1.386 . S
C1293 C1297 1.393 . S
C1294 H1286 0.950 . S
C1294 C1292 1.391 . S
C1294 C1295 1.400 . S
C1295 C1294 1.400 . S
C1295 C1296 1.398 . S
C1295 C1301 1.491 . S
C1296 H1287 0.950 . S
C1296 C1295 1.398 . S
C1296 C1297 1.391 . S
C1297 H1285 0.950 . S
C1297 C1293 1.393 . S
C1297 C1296 1.391 . S
C1298 H1288 0.950 . S
C1298 C1299 1.386 . S
C1298 C1300 1.391 . S
C1299 C1298 1.386 . S
C1299 C1303 1.393 . S
C1300 H1289 0.950 . S
C1300 C1298 1.391 . S
C1300 C1301 1.400 . S
C1301 C1295 1.491 . S
C1301 C1300 1.400 . S
C1301 C1302 1.398 . S
C1302 H1290 0.950 . S
C1302 C1301 1.398 . S
C1302 C1303 1.391 . S
C1303 H1291 0.950 . S
C1303 C1299 1.393 . S
C1303 C1302 1.391 . S
H1304 C1312 0.950 . S
H1305 C1317 0.950 . S
H1306 C1314 0.950 . S
H1307 C1316 0.950 . S
H1308 C1318 0.950 . S
H1309 C1320 0.950 . S
H1310 C1322 0.950 . S
H1311 C1323 0.950 . S
C1312 H1304 0.950 . S
C1312 C1313 1.386 . S
C1312 C1314 1.391 . S
C1313 C1312 1.386 . S
C1313 C1317 1.393 . S
C1314 H1306 0.950 . S
C1314 C1312 1.391 . S
C1314 C1315 1.400 . S
C1315 C1314 1.400 . S
C1315 C1316 1.398 . S
C1315 C1321 1.491 . S
C1316 H1307 0.950 . S
C1316 C1315 1.398 . S
C1316 C1317 1.391 . S
C1317 H1305 0.950 . S
C1317 C1313 1.393 . S
C1317 C1316 1.391 . S
C1318 H1308 0.950 . S
C1318 C1319 1.386 . S
C1318 C1320 1.391 . S
C1319 C1318 1.386 . S
C1319 C1323 1.393 . S
C1320 H1309 0.950 . S
C1320 C1318 1.391 . S
C1320 C1321 1.400 . S
C1321 C1315 1.491 . S
C1321 C1320 1.400 . S
C1321 C1322 1.398 . S
C1322 H1310 0.950 . S
C1322 C1321 1.398 . S
C1322 C1323 1.391 . S
C1323 H1311 0.950 . S
C1323 C1319 1.393 . S
C1323 C1322 1.391 . S
H1324 C1332 0.950 . S
H1325 C1337 0.939 1_545 S
H1326 C1334 0.950 . S
H1327 C1336 0.950 . S
H1328 C1338 0.950 . S
H1329 C1340 0.950 . S
H1330 C1342 0.950 . S
H1331 C1343 0.950 . S
C1332 H1324 0.950 . S
C1332 C1333 1.386 . S
C1332 C1334 1.391 1_545 S
C1333 C1332 1.386 . S
C1333 C1337 1.380 1_545 S
C1334 H1326 0.950 . S
C1334 C1332 1.391 1_565 S
C1334 C1335 1.400 . S
C1335 C1334 1.400 . S
C1335 C1336 1.398 . S
C1335 C1341 1.491 . S
C1336 H1327 0.950 . S
C1336 C1335 1.398 . S
C1336 C1337 1.415 . S
C1337 H1325 0.939 1_565 S
C1337 C1333 1.380 1_565 S
C1337 C1336 1.415 . S
C1338 H1328 0.950 . S
C1338 C1339 1.386 . S
C1338 C1340 1.391 . S
C1339 C1338 1.386 . S
C1339 C1343 1.393 . S
C1340 H1329 0.950 . S
C1340 C1338 1.391 . S
C1340 C1341 1.400 . S
C1341 C1335 1.491 . S
C1341 C1340 1.400 . S
C1341 C1342 1.398 . S
C1342 H1330 0.950 . S
C1342 C1341 1.398 . S
C1342 C1343 1.391 . S
C1343 H1331 0.950 . S
C1343 C1339 1.393 . S
C1343 C1342 1.391 . S
C553 C9 1.600 . S
C559 C311 1.681 . S
C573 C43 1.596 . S
C579 C345 1.684 . S
C593 C379 1.681 . S
C599 C77 1.600 . S
C613 C277 1.684 . S
C619 C111 1.596 . S
C633 C145 1.606 . S
C639 C243 1.682 . S
C653 C141 1.677 . S
C659 C179 1.610 . S
C673 C213 1.621 . S
C679 C175 1.676 . S
C693 C247 1.622 . S
C699 C209 1.675 . S
C713 C39 1.679 . S
C719 C281 1.614 . S
C733 C73 1.681 . S
C739 C315 1.607 . S
C753 C349 1.622 . S
C759 C107 1.675 . S
C773 C383 1.621 . S
C779 C5 1.674 . S
C793 C515 1.684 . S
C799 C417 1.596 . S
C813 C413 1.676 . S
C819 C451 1.613 . S
C833 C485 1.596 . S
C839 C447 1.684 . S
C853 C519 1.620 . S
C859 C481 1.676 . S
C873 C33 1.287 . S
C879 C373 1.288 . S
C893 C407 1.291 . S
C899 C67 1.292 . S
C913 C305 1.306 . S
C919 C101 1.306 . S
C933 C339 1.305 . S
C939 C135 1.305 . S
C953 C169 1.302 . S
C959 C509 1.303 . S
C973 C203 1.298 . S
C979 C543 1.297 . S
C993 C237 1.304 . S
C999 C441 1.305 . S
C1013 C475 1.295 . S
C1019 C271 1.294 . S
C1033 C206 0.965 . S
C1039 C20 0.976 . S
C1053 C54 0.976 . S
C1059 C240 0.968 . S
C1073 C138 0.968 . S
C1079 C88 0.977 . S
C1093 C172 0.960 . S
C1099 C122 0.971 . S
C1113 C156 0.971 . S
C1119 C70 0.944 . S
C1133 C190 0.975 . S
C1139 C104 0.968 . S
C1153 C2 0.967 . S
C1159 C224 0.977 . S
C1173 C258 0.967 . S
C1179 C36 0.950 . S
C1193 C478 0.937 . S
C1199 C292 0.965 . S
C1213 C326 0.967 . S
C1219 C512 0.934 . S
C1233 C360 0.977 . S
C1239 C410 0.968 . S
C1253 C394 0.975 . S
C1259 C444 0.960 . S
C1273 C342 0.969 . S
C1279 C428 0.975 . S
C1293 C462 0.965 . S
C1299 C376 0.931 . S
C1313 C274 0.937 . S
C1319 C496 0.964 . S
C1333 C308 0.966 . S
C1339 C530 0.973 . S
