# Generated by pormake.
# Topology uoo, (4)-cn, num edge types: 1
# Building blocks:
#     Node 0, Type 0, BuildingBlock: CEKHIL_clean_sbu_0, # of connection points: 4
#     Node 1, Type 0, BuildingBlock: CEKHIL_clean_sbu_0, # of connection points: 4
#     Node 2, Type 0, BuildingBlock: CEKHIL_clean_sbu_0, # of connection points: 4
#     Node 3, Type 0, BuildingBlock: CEKHIL_clean_sbu_0, # of connection points: 4
#     Node 4, Type 0, BuildingBlock: CEKHIL_clean_sbu_0, # of connection points: 4
#     Node 5, Type 0, BuildingBlock: CEKHIL_clean_sbu_0, # of connection points: 4
#     Edge 6, Type (0, 0), BuildingBlock: UVAHIK_clean_linker_0, # of connection points: 2
#     Edge 7, Type (0, 0), BuildingBlock: UVAHIK_clean_linker_0, # of connection points: 2
#     Edge 8, Type (0, 0), BuildingBlock: UVAHIK_clean_linker_0, # of connection points: 2
#     Edge 9, Type (0, 0), BuildingBlock: UVAHIK_clean_linker_0, # of connection points: 2
#     Edge 10, Type (0, 0), BuildingBlock: UVAHIK_clean_linker_0, # of connection points: 2
#     Edge 11, Type (0, 0), BuildingBlock: UVAHIK_clean_linker_0, # of connection points: 2
#     Edge 12, Type (0, 0), BuildingBlock: UVAHIK_clean_linker_0, # of connection points: 2
#     Edge 13, Type (0, 0), BuildingBlock: UVAHIK_clean_linker_0, # of connection points: 2
#     Edge 14, Type (0, 0), BuildingBlock: UVAHIK_clean_linker_0, # of connection points: 2
#     Edge 15, Type (0, 0), BuildingBlock: UVAHIK_clean_linker_0, # of connection points: 2
#     Edge 16, Type (0, 0), BuildingBlock: UVAHIK_clean_linker_0, # of connection points: 2
#     Edge 17, Type (0, 0), BuildingBlock: UVAHIK_clean_linker_0, # of connection points: 2
# Relax obj value: 0.247
# Max RMSD: 0.171
# Mean RMSD: 0.171
data_MOF--net-uoo--node1-CEKHIL_clean_sbu_0--edge1-UVAHIK_clean_linker_0
_symmetry_space_group_name_H-M    P1
_symmetry_Int_Tables_number       1
_symmetry_cell_setting            triclinic
loop_
_symmetry_equiv_pos_as_xyz
'x, y, z'
_cell_length_a     31.370851
_cell_length_b     31.377412
_cell_length_c     50.790445
_cell_angle_alpha  89.818995
_cell_angle_beta   90.131676
_cell_angle_gamma 120.00038
loop_
_atom_site_label
_atom_site_type_symbol
_atom_site_fract_x
_atom_site_fract_y
_atom_site_fract_z
_atom_type_partial_charge
Co0 Co 0.13498 0.29663 0.98334 0.0
O1 O 0.07115 0.29184 0.98598 0.0
O2 O 0.14312 0.35845 -0.00578 0.0
C3 C 0.12466 0.25965 0.9443 0.0
O4 O 0.2074 0.3191 0.9817 0.0
Co5 Co 0.15306 0.2086 0.98236 0.0
O6 O 0.22305 0.2578 0.97463 0.0
C7 C 0.12096 0.23379 0.03137 0.0
C8 C 0.09562 0.33799 -0.00714 0.0
C9 C 0.23723 0.30339 0.97687 0.0
O10 O 0.13003 0.27492 0.021 0.0
O11 O 0.12355 0.20019 0.01846 0.0
O12 O 0.13561 0.30543 0.9455 0.0
O13 O 0.11552 0.23642 0.96652 0.0
Co14 Co 0.83507 0.13945 0.31578 0.0
O15 O 0.77603 0.07516 0.31687 0.0
O16 O 0.78055 0.14636 0.32609 0.0
C17 C 0.86483 0.13228 0.27704 0.0
O18 O 0.88418 0.21214 0.31567 0.0
Co19 Co 0.94184 0.15997 0.31679 0.0
O20 O 0.96177 0.22972 0.30897 0.0
C21 C 0.88128 0.1241 0.36467 0.0
C22 C 0.75375 0.09903 0.32385 0.0
C23 C 0.92963 0.24294 0.31123 0.0
O24 O 0.84905 0.13197 0.35353 0.0
O25 O 0.91966 0.12963 0.35275 0.0
O26 O 0.82934 0.14233 0.27792 0.0
O27 O 0.87794 0.12222 0.29935 0.0
Co28 Co 0.68961 0.83859 0.65121 0.0
O29 O 0.68926 0.77738 0.64565 0.0
O30 O 0.62764 0.78477 0.66188 0.0
C31 C 0.72155 0.87341 0.61219 0.0
O32 O 0.67209 0.89098 0.65879 0.0
Co33 Co 0.78063 0.94203 0.65343 0.0
O34 O 0.73377 0.96732 0.65128 0.0
C35 C 0.75883 0.8735 0.69797 0.0
C36 C 0.64437 0.75632 0.65464 0.0
C37 C 0.68874 0.9373 0.65639 0.0
O38 O 0.7171 0.84365 0.68746 0.0
O39 O 0.79086 0.91351 0.68685 0.0
O40 O 0.67501 0.84117 0.61438 0.0
O41 O 0.74816 0.88108 0.63309 0.0
Co42 Co 0.84382 0.6891 -0.01081 0.0
O43 O 0.90611 0.69031 -0.01116 0.0
O44 O 0.83535 0.62907 0.00366 0.0
C45 C 0.84696 0.71679 0.94812 0.0
O46 O 0.77256 0.67061 -0.00806 0.0
Co47 Co 0.83022 0.77933 0.98393 0.0
O48 O 0.75881 0.73094 0.97918 0.0
C49 C 0.87076 0.76345 0.03296 0.0
C50 C 0.88179 0.64639 -0.00092 0.0
C51 C 0.74324 0.68643 0.9859 0.0
O52 O 0.85899 0.72014 0.02493 0.0
O53 O 0.8661 0.7946 0.01868 0.0
O54 O 0.83343 0.67083 0.9523 0.0
O55 O 0.86194 0.74531 0.96849 0.0
Co56 Co 0.14992 0.8518 0.3188 0.0
O57 O 0.21016 0.91473 0.32075 0.0
O58 O 0.20228 0.84222 0.33067 0.0
C59 C 0.12508 0.86208 0.27906 0.0
O60 O 0.09858 0.77989 0.31832 0.0
Co61 Co 0.04469 0.83529 0.31626 0.0
O62 O 0.02239 0.76462 0.30954 0.0
C63 C 0.1014 0.86899 0.36562 0.0
C64 C 0.23063 0.88939 0.3283 0.0
C65 C 0.05311 0.74995 0.31342 0.0
O66 O 0.13335 0.85921 0.35596 0.0
O67 O 0.06545 0.86614 0.3522 0.0
O68 O 0.15855 0.84937 0.28118 0.0
O69 O 0.11045 0.87195 0.30084 0.0
Co70 Co 0.29168 0.15028 0.65205 0.0
O71 O 0.28531 0.20865 0.65138 0.0
O72 O 0.3522 0.20586 0.66268 0.0
C73 C 0.25685 0.11928 0.61298 0.0
O74 O 0.31633 0.10208 0.6539 0.0
Co75 Co 0.20677 0.04304 0.65307 0.0
O76 O 0.25772 0.02374 0.6478 0.0
C77 C 0.22851 0.10431 0.70044 0.0
C78 C 0.33119 0.23193 0.65893 0.0
C79 C 0.30272 0.0566 0.65054 0.0
O80 O 0.2684 0.13727 0.68948 0.0
O81 O 0.19686 0.06517 0.68858 0.0
O82 O 0.30224 0.15493 0.61437 0.0
O83 O 0.23256 0.1063 0.63492 0.0
C84 C 0.24531 0.16098 0.73834 0.0
C85 C 0.21814 0.11357 0.72758 0.0
C86 C 0.23417 0.17117 0.76323 0.0
C87 C 0.134 0.12566 0.81237 0.0
H88 H 0.23838 0.22485 0.85561 0.0
C89 C 0.11115 0.18698 0.91772 0.0
C90 C 0.13026 0.23802 0.91977 0.0
C91 C 0.1194 0.16698 0.89504 0.0
C92 C 0.20894 0.19705 0.84371 0.0
H93 H 0.15861 0.03925 0.7349 0.0
H94 H 0.14001 0.05676 0.77889 0.0
H95 H 0.25916 0.19673 0.81557 0.0
H96 H 0.17236 0.30811 0.89973 0.0
H97 H 0.18772 0.27321 0.86041 0.0
H98 H 0.084 0.12587 0.84113 0.0
C99 C 0.16928 0.08634 0.76773 0.0
C100 C 0.22072 0.18109 0.82072 0.0
C101 C 0.18011 0.07622 0.74259 0.0
C102 C 0.15708 0.26863 0.89866 0.0
C103 C 0.16609 0.24878 0.87626 0.0
C104 C 0.12229 0.14111 0.8357 0.0
C105 C 0.19598 0.13409 0.77826 0.0
C106 C 0.18338 0.14624 0.80434 0.0
C107 C 0.14771 0.19791 0.87438 0.0
C108 C 0.15968 0.17782 0.85114 0.0
H109 H 0.27451 0.19083 0.72724 0.0
H110 H 0.25481 0.20864 0.77034 0.0
H111 H 0.10427 0.0991 0.80017 0.0
H112 H 0.09028 0.16259 0.93374 0.0
H113 H 0.10496 0.12763 0.89395 0.0
C114 C 0.93689 0.13769 0.25292 0.0
C115 C 0.8923 0.13807 0.25252 0.0
C116 C 0.9645 0.14681 0.22989 0.0
C117 C 0.98144 0.2058 0.1648 0.0
H118 H 0.05185 0.13713 0.14795 0.0
C119 C 0.08084 0.1759 0.06924 0.0
C120 C 0.10417 0.22407 0.05907 0.0
C121 C 0.05975 0.16595 0.09432 0.0
C122 C 0.03223 0.15648 0.15233 0.0
H123 H 0.84054 0.14611 0.2276 0.0
H124 H 0.88795 0.1608 0.18739 0.0
H125 H 0.00252 0.1159 0.18806 0.0
H126 H 0.12653 0.30005 0.06796 0.0
H127 H 0.09094 0.28286 0.11188 0.0
H128 H 0.00934 0.24506 0.12876 0.0
C129 C 0.90238 0.15483 0.20556 0.0
C130 C 0.00436 0.14466 0.17544 0.0
C131 C 0.87503 0.14609 0.22856 0.0
C132 C 0.10824 0.2624 0.07506 0.0
C133 C 0.08758 0.25252 0.10019 0.0
C134 C 0.009 0.21741 0.14172 0.0
C135 C 0.94787 0.1562 0.20602 0.0
C136 C 0.97834 0.16896 0.18181 0.0
C137 C 0.06189 0.204 0.10984 0.0
C138 C 0.03462 0.19283 0.13513 0.0
H139 H 0.95111 0.13162 0.27113 0.0
H140 H -0.00046 0.14794 0.23097 0.0
H141 H 0.96258 0.22586 0.16931 0.0
H142 H 0.07701 0.14551 0.05744 0.0
H143 H 0.03991 0.12811 0.10104 0.0
C144 C 0.82395 0.08546 0.40255 0.0
C145 C 0.87142 0.10458 0.3919 0.0
C146 C 0.81252 0.06228 0.42704 0.0
C147 C 0.85983 0.05137 0.48998 0.0
H148 H 0.74618 0.9197 0.49032 0.0
C149 C 0.79349 0.92985 0.5841 0.0
C150 C 0.74233 0.90101 0.58755 0.0
C151 C 0.8129 0.95503 0.56042 0.0
C152 C 0.77762 0.95663 0.49069 0.0
H153 H 0.94472 0.11631 0.39924 0.0
H154 H 0.92459 0.07636 0.44261 0.0
H155 H 0.77396 0.96505 0.44908 0.0
H156 H 0.67133 0.8768 0.56934 0.0
H157 H 0.70484 0.92174 0.52853 0.0
H158 H 0.86242 0.0438 0.53179 0.0
C159 C 0.8964 0.07911 0.43165 0.0
C160 C 0.79365 0.9824 0.46704 0.0
C161 C 0.90778 0.10178 0.40686 0.0
C162 C 0.71094 0.89836 0.56714 0.0
C163 C 0.73024 0.92387 0.54364 0.0
C164 C 0.84335 0.02578 0.51383 0.0
C165 C 0.84836 0.05823 0.4416 0.0
C166 C 0.83437 0.0302 0.46653 0.0
C167 C 0.78145 0.95215 0.53985 0.0
C168 C 0.80148 0.97839 0.51449 0.0
H169 H 0.79498 0.08686 0.39163 0.0
H170 H 0.77533 0.04686 0.43448 0.0
H171 H 0.89131 0.0883 0.49 0.0
H172 H 0.81856 0.93243 0.59953 0.0
H173 H 0.85249 0.97606 0.5581 0.0
C174 C 0.8643 0.78538 0.91702 0.0
C175 C 0.84209 0.7347 0.92206 0.0
C176 C 0.85909 0.80238 0.89245 0.0
C177 C 0.82149 0.76169 0.82329 0.0
H178 H 0.8047 0.87598 0.82022 0.0
C179 C 0.74429 0.81098 0.73264 0.0
C180 C 0.77065 0.86001 0.72379 0.0
C181 C 0.75611 0.79752 0.75657 0.0
C182 C 0.80984 0.84432 0.8208 0.0
H183 H 0.79678 0.66197 0.90552 0.0
H184 H 0.78615 0.69139 0.86299 0.0
H185 H 0.81922 0.84859 0.86257 0.0
H186 H 0.82967 0.93347 0.7333 0.0
H187 H 0.84964 0.90984 0.77554 0.0
H188 H 0.81023 0.7566 0.78154 0.0
C189 C 0.80883 0.71823 0.87766 0.0
C190 C 0.81835 0.82867 0.84502 0.0
C191 C 0.81461 0.70128 0.90211 0.0
C192 C 0.80875 0.89539 0.73956 0.0
C193 C 0.82008 0.88199 0.76374 0.0
C194 C 0.81232 0.77697 0.79915 0.0
C195 C 0.83098 0.76901 0.8725 0.0
C196 C 0.82393 0.78692 0.8466 0.0
C197 C 0.79407 0.83285 0.77233 0.0
C198 C 0.80609 0.8182 0.79773 0.0
H199 H 0.88598 0.81197 0.93203 0.0
H200 H 0.87738 0.8417 0.88907 0.0
H201 H 0.8267 0.73008 0.82362 0.0
H202 H 0.71488 0.78275 0.72092 0.0
H203 H 0.7352 0.75947 0.7629 0.0
C204 C 0.05926 0.86427 0.25218 0.0
C205 C 0.10249 0.86142 0.25348 0.0
C206 C 0.03612 0.86007 0.22799 0.0
C207 C 0.02661 0.80719 0.16231 0.0
H208 H 0.95672 0.87622 0.14447 0.0
C209 C 0.91865 0.8279 0.06707 0.0
C210 C 0.89266 0.77813 0.05953 0.0
C211 C 0.94379 0.84165 0.09113 0.0
C212 C 0.97641 0.85697 0.14911 0.0
H213 H 0.15701 0.85479 0.23048 0.0
H214 H 0.11738 0.84858 0.18828 0.0
H215 H 0.0053 0.89702 0.18503 0.0
H216 H 0.8701 0.70358 0.07209 0.0
H217 H 0.91292 0.72742 0.11399 0.0
H218 H -0.00132 0.76773 0.1264 0.0
C219 C 0.1005 0.85268 0.20594 0.0
C220 C 0.00383 0.86855 0.17242 0.0
C221 C 0.12332 0.85641 0.2301 0.0
C222 C 0.89036 0.74232 0.07707 0.0
C223 C 0.91514 0.75599 0.10106 0.0
C224 C -0.00057 0.79577 0.1391 0.0
C225 C 0.05603 0.8533 0.20466 0.0
C226 C 0.02894 0.84347 0.17935 0.0
C227 C 0.9432 0.80584 0.10807 0.0
C228 C 0.97346 0.81998 0.13238 0.0
H229 H 0.04245 0.86823 0.26991 0.0
H230 H 0.0017 0.86026 0.22773 0.0
H231 H 0.0449 0.78666 0.16715 0.0
H232 H 0.92114 0.8564 0.05401 0.0
H233 H 0.9652 0.88037 0.09597 0.0
C234 C 0.26216 0.11056 0.56454 0.0
C235 C 0.23576 0.09288 0.58812 0.0
C236 C 0.24355 0.08474 0.54111 0.0
C237 C 0.13029 0.98802 0.50904 0.0
H238 H 0.22435 0.97923 0.46328 0.0
C239 C 0.14085 0.88081 0.40981 0.0
C240 C 0.10836 0.88665 0.39311 0.0
C241 C 0.15186 0.90201 0.43477 0.0
C242 C 0.19741 0.98074 0.47595 0.0
H243 H 0.16869 0.03487 0.60565 0.0
H244 H 0.13651 0.98906 0.56471 0.0
H245 H 0.25227 0.02431 0.5043 0.0
H246 H 0.06032 0.91767 0.38998 0.0
H247 H 0.08043 0.95569 0.43344 0.0
H248 H 0.07522 0.94331 0.48076 0.0
C249 C 0.1713 0.02328 0.56427 0.0
C250 C 0.21359 0.00731 0.49931 0.0
C251 C 0.18984 0.04935 0.58774 0.0
C252 C 0.08546 0.91243 0.40239 0.0
C253 C 0.09686 0.93408 0.42734 0.0
C254 C 0.114 0.96119 0.48562 0.0
C255 C 0.19827 0.04041 0.54075 0.0
C256 C 0.18034 0.01154 0.51607 0.0
C257 C 0.13107 0.93004 0.44356 0.0
C258 C 0.14745 0.9573 0.46881 0.0
H259 H 0.29744 0.14428 0.56418 0.0
H260 H 0.26478 0.0995 0.52324 0.0
H261 H 0.10381 0.99089 0.52144 0.0
H262 H 0.15862 0.8606 0.40342 0.0
H263 H 0.17742 0.89715 0.44703 0.0
C264 C 0.32701 0.33005 0.98058 0.0
C265 C 0.28978 0.34071 0.97418 0.0
C266 C 0.37635 0.36761 0.98065 0.0
C267 C 0.46181 0.49257 0.95612 0.0
H268 H 0.53559 0.50423 0.01963 0.0
C269 C 0.65484 0.66114 0.97596 0.0
C270 C 0.68986 0.65013 0.98623 0.0
C271 C 0.60506 0.62463 0.9747 0.0
C272 C 0.51572 0.50127 0.00164 0.0
H273 H 0.27499 0.39813 0.9613 0.0
H274 H 0.36077 0.46313 0.96115 0.0
H275 H 0.4521 0.43535 0.01483 0.0
H276 H 0.69964 0.59229 0.00384 0.0
H277 H 0.61415 0.52939 0.00121 0.0
H278 H 0.52568 0.55814 0.94274 0.0
C279 C 0.35202 0.42609 0.96631 0.0
C280 C 0.46796 0.46171 -0.00112 0.0
C281 C 0.30289 0.38889 0.96659 0.0
C282 C 0.67388 0.60232 -0.00424 0.0
C283 C 0.62455 0.56611 -0.00554 0.0
C284 C 0.50983 0.53199 0.95876 0.0
C285 C 0.38915 0.4161 0.97387 0.0
C286 C 0.44059 0.4569 0.97609 0.0
C287 C 0.58952 0.57657 0.98376 0.0
C288 C 0.53742 0.53665 0.98151 0.0
H289 H 0.31791 0.29325 0.98649 0.0
H290 H 0.40446 0.35893 0.98634 0.0
H291 H 0.44145 0.48962 0.9383 0.0
H292 H 0.66594 0.69757 0.96844 0.0
H293 H 0.57881 0.63396 0.96659 0.0
C294 C -0.00732 0.3332 0.31201 0.0
C295 C 0.94375 0.29532 0.30877 0.0
C296 C 0.00426 0.38247 0.31129 0.0
C297 C 0.95792 0.46417 0.28911 0.0
H298 H 0.04023 0.54917 0.34519 0.0
C299 C 0.98861 0.66067 0.30685 0.0
C300 C 0.0374 0.69691 0.31248 0.0
C301 C 0.97536 0.61086 0.30607 0.0
C302 C 0.01751 0.52602 0.32926 0.0
H303 H 0.86901 0.27941 0.30109 0.0
H304 H 0.8893 0.36481 0.29985 0.0
H305 H 0.02352 0.46466 0.34289 0.0
H306 H 0.11051 0.70894 0.32145 0.0
H307 H 0.08757 0.6233 0.31977 0.0
H308 H 0.9522 0.52578 0.2754 0.0
C309 C 0.91867 0.35667 0.30297 0.0
C310 C 0.00814 0.47771 0.32791 0.0
C311 C 0.90706 0.30768 0.30392 0.0
C312 C 0.07245 0.68225 0.31719 0.0
C313 C 0.05929 0.63291 0.31642 0.0
C314 C 0.96749 0.51267 0.2904 0.0
C315 C 0.96721 0.39457 0.30699 0.0
C316 C 0.97842 0.44634 0.30778 0.0
C317 C 0.01065 0.59657 0.31101 0.0
C318 C -0.00232 0.5442 0.3104 0.0
H319 H 0.02171 0.32481 0.31572 0.0
H320 H 0.04213 0.4111 0.31421 0.0
H321 H 0.93503 0.44079 0.2733 0.0
H322 H 0.96077 0.67071 0.30309 0.0
H323 H 0.93747 0.58354 0.30195 0.0
C324 C 0.39069 0.08034 0.64504 0.0
C325 C 0.34179 0.04338 0.64993 0.0
C326 C 0.42878 0.06974 0.64575 0.0
C327 C 0.46326 0.98538 0.6751 0.0
H328 H 0.56487 0.03522 0.62146 0.0
C329 C 0.60456 0.9213 0.66716 0.0
C330 C 0.65288 0.95465 0.65894 0.0
C331 C 0.56863 0.93488 0.66742 0.0
C332 C 0.5373 0.02181 0.63685 0.0
H333 H 0.29442 0.966 0.65886 0.0
H334 H 0.36163 0.9474 0.66033 0.0
H335 H 0.49629 0.05081 0.61774 0.0
H336 H 0.70164 0.02922 0.64543 0.0
H337 H 0.63851 0.05342 0.6463 0.0
H338 H 0.50433 0.95686 0.69443 0.0
C339 C 0.37012 0.98467 0.65603 0.0
C340 C 0.49784 0.0304 0.6346 0.0
C341 C 0.33169 -0.00481 0.65503 0.0
C342 C 0.66478 0.00266 0.65183 0.0
C343 C 0.62855 0.01636 0.65213 0.0
C344 C 0.50287 0.97712 0.67747 0.0
C345 C 0.41904 0.022 0.65154 0.0
C346 C 0.46027 0.01195 0.6536 0.0
C347 C 0.5799 0.9823 0.65962 0.0
C348 C 0.54012 -0.0052 0.65824 0.0
H349 H 0.39975 0.11782 0.64083 0.0
H350 H 0.46611 0.09929 0.64242 0.0
H351 H 0.43531 0.97161 0.69031 0.0
H352 H 0.59391 0.884 0.67287 0.0
H353 H 0.53149 0.90745 0.67291 0.0
C354 C 0.33898 0.31565 0.65736 0.0
C355 C 0.36004 0.28588 0.66173 0.0
C356 C 0.36841 0.367 0.65807 0.0
C357 C 0.49449 0.46313 0.64612 0.0
H358 H 0.46426 0.54822 0.68745 0.0
C359 C 0.63205 0.671 0.65522 0.0
C360 C 0.61245 0.70251 0.65601 0.0
C361 C 0.60087 0.62002 0.65683 0.0
C362 C 0.47292 0.52508 0.67546 0.0
H363 H 0.42791 0.28641 0.67121 0.0
H364 H 0.47878 0.3754 0.67209 0.0
H365 H 0.40826 0.45937 0.68828 0.0
H366 H 0.54509 0.70574 0.65854 0.0
H367 H 0.49086 0.61735 0.66024 0.0
H368 H 0.55824 0.52829 0.63264 0.0
C369 C 0.43981 0.35922 0.66799 0.0
C370 C 0.44086 0.47426 0.67604 0.0
C371 C 0.41052 0.30824 0.66757 0.0
C372 C 0.5613 0.68231 0.65816 0.0
C373 C 0.53018 0.63155 0.65934 0.0
C374 C 0.52615 0.5139 0.64522 0.0
C375 C 0.41925 0.38904 0.66283 0.0
C376 C 0.45164 0.44292 0.66152 0.0
C377 C 0.54949 0.59969 0.65882 0.0
C378 C 0.51593 0.54555 0.65998 0.0
H379 H 0.30016 0.29937 0.65288 0.0
H380 H 0.35184 0.38946 0.65404 0.0
H381 H 0.50325 0.4396 0.63452 0.0
H382 H 0.67141 0.68573 0.65373 0.0
H383 H 0.61712 0.59664 0.65678 0.0
C384 C 0.87464 0.56634 0.01163 0.0
C385 C 0.90449 0.61577 0.00405 0.0
C386 C 0.89448 0.53553 0.01424 0.0
C387 C 0.00801 0.532 0.02385 0.0
H388 H 0.94148 0.41068 0.98387 0.0
C389 C 0.10038 0.41854 0.00019 0.0
C390 C 0.07152 0.36714 -0.00187 0.0
C391 C 0.07847 0.44718 0.00407 0.0
C392 C 0.96 0.4438 -0.00438 0.0
H393 H 0.97892 0.67231 -0.00565 0.0
H394 H 0.01391 0.61819 -0.00076 0.0
H395 H 0.90693 0.46492 0.98539 0.0
H396 H -0.00284 0.30514 -0.00069 0.0
H397 H 0.9586 0.35518 0.0069 0.0
H398 H 0.06084 0.51085 0.03436 0.0
C399 C 0.97507 0.6035 0.00304 0.0
C400 C 0.94032 0.475 -0.00366 0.0
C401 C 0.95505 0.63434 0.00014 0.0
C402 C 0.02023 0.34474 0.00064 0.0
C403 C -0.00178 0.37346 0.00486 0.0
C404 C 0.02738 0.50046 0.02344 0.0
C405 C 0.94467 0.5536 0.00959 0.0
C406 C 0.9645 0.51966 0.01015 0.0
C407 C 0.02711 0.42512 0.00634 0.0
C408 C 0.00407 0.45636 0.00893 0.0
H409 H 0.83554 0.55093 0.01491 0.0
H410 H 0.87043 0.49733 0.01959 0.0
H411 H 0.02695 0.56598 0.0349 0.0
H412 H 0.14004 0.43697 -0.00181 0.0
H413 H 0.10188 0.4868 0.00453 0.0
C414 C 0.67908 0.10413 0.33396 0.0
C415 C 0.70019 0.07487 0.32823 0.0
C416 C 0.62838 0.08308 0.33643 0.0
C417 C 0.51398 0.97051 0.35021 0.0
H418 H 0.45543 0.03117 0.30793 0.0
C419 C 0.30472 0.88137 0.33546 0.0
C420 C 0.2841 0.91186 0.33244 0.0
C421 C 0.35551 0.90152 0.33726 0.0
C422 C 0.47115 0.01433 0.32027 0.0
H423 H 0.68487 0.0003 0.32162 0.0
H424 H 0.59522 0.96306 0.32624 0.0
H425 H 0.54396 0.0642 0.30664 0.0
H426 H 0.30022 0.98741 0.33004 0.0
H427 H 0.38929 0.02302 0.33406 0.0
H428 H 0.44135 0.92116 0.36428 0.0
C429 C 0.61845 0.00245 0.32866 0.0
C430 C 0.52183 0.03303 0.31935 0.0
C431 C 0.66954 0.0237 0.32594 0.0
C432 C 0.31519 0.96307 0.33217 0.0
C433 C 0.36617 0.98335 0.33429 0.0
C434 C 0.46322 0.9521 0.35141 0.0
C435 C 0.59754 0.03224 0.33343 0.0
C436 C 0.54366 0.01126 0.33425 0.0
C437 C 0.38696 0.95273 0.3364 0.0
C438 C 0.44117 0.97369 0.33635 0.0
H439 H 0.70163 0.14366 0.33605 0.0
H440 H 0.61317 0.1067 0.34048 0.0
H441 H 0.53014 0.95349 0.36209 0.0
H442 H 0.28174 0.84167 0.33563 0.0
H443 H 0.37009 0.87674 0.33841 0.0
loop_
_geom_bond_atom_site_label_1
_geom_bond_atom_site_label_2
_geom_bond_distance
_geom_bond_site_symmetry_2
_ccdc_geom_bond_type
Co0 O1 2.216 . S
Co0 O2 2.091 . S
Co0 O4 2.004 1_556 S
Co0 O10 2.021 1_556 S
Co0 O12 2.137 . S
Co0 O13 2.244 . S
O1 Co0 2.216 . S
O1 C8 1.247 . S
O2 Co0 2.091 . S
O2 C8 1.261 . S
C3 O12 1.247 . S
C3 O13 1.272 . S
O4 Co0 2.004 1_554 S
O4 C9 1.259 . S
Co5 O6 2.061 . S
Co5 O11 2.052 . S
Co5 O13 2.135 1_554 S
O6 Co5 2.061 . S
O6 C9 1.235 . S
C7 O10 1.238 . S
C7 O11 1.241 . S
C8 O1 1.247 . S
C8 O2 1.261 . S
C9 O4 1.259 . S
C9 O6 1.235 . S
O10 Co0 2.021 1_554 S
O10 C7 1.238 . S
O11 Co5 2.052 . S
O11 C7 1.241 . S
O12 Co0 2.137 . S
O12 C3 1.247 . S
O13 Co0 2.244 . S
O13 C3 1.272 . S
O13 Co5 2.135 1_556 S
Co14 O15 2.216 . S
Co14 O16 2.091 . S
Co14 O18 2.004 . S
Co14 O24 2.021 . S
Co14 O26 2.137 . S
Co14 O27 2.244 . S
O15 Co14 2.216 . S
O15 C22 1.247 . S
O16 Co14 2.091 . S
O16 C22 1.261 . S
C17 O26 1.247 . S
C17 O27 1.272 . S
O18 Co14 2.004 . S
O18 C23 1.259 . S
Co19 O20 2.061 . S
Co19 O25 2.052 . S
Co19 O27 2.135 . S
O20 Co19 2.061 . S
O20 C23 1.235 . S
C21 O24 1.238 . S
C21 O25 1.241 . S
C22 O15 1.247 . S
C22 O16 1.261 . S
C23 O18 1.259 . S
C23 O20 1.235 . S
O24 Co14 2.021 . S
O24 C21 1.238 . S
O25 Co19 2.052 . S
O25 C21 1.241 . S
O26 Co14 2.137 . S
O26 C17 1.247 . S
O27 Co14 2.244 . S
O27 C17 1.272 . S
O27 Co19 2.135 . S
Co28 O29 2.216 . S
Co28 O30 2.091 . S
Co28 O32 2.004 . S
Co28 O38 2.021 . S
Co28 O40 2.137 . S
Co28 O41 2.244 . S
O29 Co28 2.216 . S
O29 C36 1.247 . S
O30 Co28 2.091 . S
O30 C36 1.261 . S
C31 O40 1.247 . S
C31 O41 1.272 . S
O32 Co28 2.004 . S
O32 C37 1.259 . S
Co33 O34 2.061 . S
Co33 O39 2.052 . S
Co33 O41 2.135 . S
O34 Co33 2.061 . S
O34 C37 1.235 . S
C35 O38 1.238 . S
C35 O39 1.241 . S
C36 O29 1.247 . S
C36 O30 1.261 . S
C37 O32 1.259 . S
C37 O34 1.235 . S
O38 Co28 2.021 . S
O38 C35 1.238 . S
O39 Co33 2.052 . S
O39 C35 1.241 . S
O40 Co28 2.137 . S
O40 C31 1.247 . S
O41 Co28 2.244 . S
O41 C31 1.272 . S
O41 Co33 2.135 . S
Co42 O43 2.216 . S
Co42 O44 2.091 . S
Co42 O46 2.004 1_556 S
Co42 O52 2.021 1_556 S
Co42 O54 2.137 . S
Co42 O55 2.244 . S
O43 Co42 2.216 . S
O43 C50 1.247 . S
O44 Co42 2.091 . S
O44 C50 1.261 . S
C45 O54 1.247 . S
C45 O55 1.272 . S
O46 Co42 2.004 1_554 S
O46 C51 1.259 . S
Co47 O48 2.061 . S
Co47 O53 2.052 . S
Co47 O55 2.135 1_554 S
O48 Co47 2.061 . S
O48 C51 1.235 . S
C49 O52 1.238 . S
C49 O53 1.241 . S
C50 O43 1.247 . S
C50 O44 1.261 . S
C51 O46 1.259 . S
C51 O48 1.235 . S
O52 Co42 2.021 1_554 S
O52 C49 1.238 . S
O53 Co47 2.052 . S
O53 C49 1.241 . S
O54 Co42 2.137 . S
O54 C45 1.247 . S
O55 Co42 2.244 . S
O55 C45 1.272 . S
O55 Co47 2.135 1_556 S
Co56 O57 2.216 . S
Co56 O58 2.091 . S
Co56 O60 2.004 . S
Co56 O66 2.021 . S
Co56 O68 2.137 . S
Co56 O69 2.244 . S
O57 Co56 2.216 . S
O57 C64 1.247 . S
O58 Co56 2.091 . S
O58 C64 1.261 . S
C59 O68 1.247 . S
C59 O69 1.272 . S
O60 Co56 2.004 . S
O60 C65 1.259 . S
Co61 O62 2.061 . S
Co61 O67 2.052 . S
Co61 O69 2.135 . S
O62 Co61 2.061 . S
O62 C65 1.235 . S
C63 O66 1.238 . S
C63 O67 1.241 . S
C64 O57 1.247 . S
C64 O58 1.261 . S
C65 O60 1.259 . S
C65 O62 1.235 . S
O66 Co56 2.021 . S
O66 C63 1.238 . S
O67 Co61 2.052 . S
O67 C63 1.241 . S
O68 Co56 2.137 . S
O68 C59 1.247 . S
O69 Co56 2.244 . S
O69 C59 1.272 . S
O69 Co61 2.135 . S
Co70 O71 2.216 . S
Co70 O72 2.091 . S
Co70 O74 2.004 . S
Co70 O80 2.021 . S
Co70 O82 2.137 . S
Co70 O83 2.244 . S
O71 Co70 2.216 . S
O71 C78 1.247 . S
O72 Co70 2.091 . S
O72 C78 1.261 . S
C73 O82 1.247 . S
C73 O83 1.272 . S
O74 Co70 2.004 . S
O74 C79 1.259 . S
Co75 O76 2.061 . S
Co75 O81 2.052 . S
Co75 O83 2.135 . S
O76 Co75 2.061 . S
O76 C79 1.235 . S
C77 O80 1.238 . S
C77 O81 1.241 . S
C78 O71 1.247 . S
C78 O72 1.261 . S
C79 O74 1.259 . S
C79 O76 1.235 . S
O80 Co70 2.021 . S
O80 C77 1.238 . S
O81 Co75 2.052 . S
O81 C77 1.241 . S
O82 Co70 2.137 . S
O82 C73 1.247 . S
O83 Co70 2.244 . S
O83 C73 1.272 . S
O83 Co75 2.135 . S
C84 C85 1.349 . S
C84 C86 1.327 . S
C84 H109 0.950 . S
C85 C84 1.349 . S
C85 C101 1.349 . S
C86 C84 1.327 . S
C86 C105 1.429 . S
C86 H110 0.950 . S
C87 C104 1.574 . S
C87 C106 1.368 . S
C87 H111 0.949 . S
H88 C92 0.949 . S
C89 C90 1.349 . S
C89 C91 1.327 . S
C89 H112 0.950 . S
C90 C89 1.349 . S
C90 C102 1.349 . S
C91 C89 1.327 . S
C91 C107 1.429 . S
C91 H113 0.950 . S
C92 H88 0.949 . S
C92 C100 1.574 . S
C92 C108 1.368 . S
H93 C101 0.950 . S
H94 C99 0.950 . S
H95 C100 0.949 . S
H96 C102 0.950 . S
H97 C103 0.950 . S
H98 C104 0.949 . S
C99 H94 0.950 . S
C99 C101 1.327 . S
C99 C105 1.429 . S
C100 C92 1.574 . S
C100 H95 0.949 . S
C100 C106 1.368 . S
C101 C85 1.349 . S
C101 H93 0.950 . S
C101 C99 1.327 . S
C102 C90 1.349 . S
C102 H96 0.950 . S
C102 C103 1.327 . S
C103 H97 0.950 . S
C103 C102 1.327 . S
C103 C107 1.429 . S
C104 C87 1.574 . S
C104 H98 0.949 . S
C104 C108 1.368 . S
C105 C86 1.429 . S
C105 C99 1.429 . S
C105 C106 1.523 . S
C106 C87 1.368 . S
C106 C100 1.368 . S
C106 C105 1.523 . S
C107 C91 1.429 . S
C107 C103 1.429 . S
C107 C108 1.523 . S
C108 C92 1.368 . S
C108 C104 1.368 . S
C108 C107 1.523 . S
H109 C84 0.950 . S
H110 C86 0.950 . S
H111 C87 0.949 . S
H112 C89 0.950 . S
H113 C91 0.950 . S
C114 C115 1.349 . S
C114 C116 1.327 . S
C114 H139 0.950 . S
C115 C114 1.349 . S
C115 C131 1.349 . S
C116 C114 1.327 . S
C116 C135 1.429 . S
C116 H140 0.950 1_655 S
C117 C134 1.574 . S
C117 C136 1.368 . S
C117 H141 0.949 . S
H118 C122 0.949 . S
C119 C120 1.349 . S
C119 C121 1.327 . S
C119 H142 0.950 . S
C120 C119 1.349 . S
C120 C132 1.349 . S
C121 C119 1.327 . S
C121 C137 1.429 . S
C121 H143 0.950 1_455 S
C122 H118 0.949 . S
C122 C130 1.574 . S
C122 C138 1.368 . S
H123 C131 0.950 . S
H124 C129 0.950 . S
H125 C130 0.949 . S
H126 C132 0.950 . S
H127 C133 0.950 . S
H128 C134 0.949 . S
C129 H124 0.950 . S
C129 C131 1.327 . S
C129 C135 1.429 . S
C130 C122 1.574 . S
C130 H125 0.949 . S
C130 C136 1.368 1_455 S
C131 C115 1.349 . S
C131 H123 0.950 . S
C131 C129 1.327 . S
C132 C120 1.349 . S
C132 H126 0.950 . S
C132 C133 1.327 . S
C133 H127 0.950 . S
C133 C132 1.327 . S
C133 C137 1.429 . S
C134 C117 1.574 . S
C134 H128 0.949 . S
C134 C138 1.368 1_655 S
C135 C116 1.429 . S
C135 C129 1.429 . S
C135 C136 1.523 . S
C136 C117 1.368 . S
C136 C130 1.368 1_655 S
C136 C135 1.523 . S
C137 C121 1.429 . S
C137 C133 1.429 . S
C137 C138 1.523 . S
C138 C122 1.368 . S
C138 C134 1.368 1_455 S
C138 C137 1.523 . S
H139 C114 0.950 . S
H140 C116 0.950 1_455 S
H141 C117 0.949 . S
H142 C119 0.950 . S
H143 C121 0.950 1_655 S
C144 C145 1.349 . S
C144 C146 1.327 . S
C144 H169 0.950 . S
C145 C144 1.349 . S
C145 C161 1.349 . S
C146 C144 1.327 . S
C146 C165 1.429 . S
C146 H170 0.950 . S
C147 C164 1.574 . S
C147 C166 1.368 . S
C147 H171 0.949 . S
H148 C152 0.949 . S
C149 C150 1.349 . S
C149 C151 1.327 . S
C149 H172 0.950 . S
C150 C149 1.349 . S
C150 C162 1.349 . S
C151 C149 1.327 . S
C151 C167 1.429 . S
C151 H173 0.950 . S
C152 H148 0.949 . S
C152 C160 1.574 1_565 S
C152 C168 1.368 . S
H153 C161 0.950 . S
H154 C159 0.950 . S
H155 C160 0.944 . S
H156 C162 0.950 . S
H157 C163 0.950 . S
H158 C164 0.949 . S
C159 H154 0.950 . S
C159 C161 1.327 . S
C159 C165 1.429 . S
C160 C152 1.574 1_545 S
C160 H155 0.944 . S
C160 C166 1.368 . S
C161 C145 1.349 . S
C161 H153 0.950 . S
C161 C159 1.327 . S
C162 C150 1.349 . S
C162 H156 0.950 . S
C162 C163 1.327 . S
C163 H157 0.950 . S
C163 C162 1.327 . S
C163 C167 1.429 . S
C164 C147 1.574 . S
C164 H158 0.949 . S
C164 C168 1.368 1_545 S
C165 C146 1.429 . S
C165 C159 1.429 . S
C165 C166 1.523 . S
C166 C147 1.368 . S
C166 C160 1.368 . S
C166 C165 1.523 . S
C167 C151 1.429 . S
C167 C163 1.429 . S
C167 C168 1.523 . S
C168 C152 1.368 . S
C168 C164 1.368 1_565 S
C168 C167 1.523 . S
H169 C144 0.950 . S
H170 C146 0.950 . S
H171 C147 0.949 . S
H172 C149 0.950 . S
H173 C151 0.950 . S
C174 C175 1.349 . S
C174 C176 1.327 . S
C174 H199 0.950 . S
C175 C174 1.349 . S
C175 C191 1.349 . S
C176 C174 1.327 . S
C176 C195 1.429 . S
C176 H200 0.950 . S
C177 C194 1.574 . S
C177 C196 1.368 . S
C177 H201 0.949 . S
H178 C182 0.949 . S
C179 C180 1.349 . S
C179 C181 1.327 . S
C179 H202 0.950 . S
C180 C179 1.349 . S
C180 C192 1.349 . S
C181 C179 1.327 . S
C181 C197 1.429 . S
C181 H203 0.950 . S
C182 H178 0.949 . S
C182 C190 1.574 . S
C182 C198 1.368 . S
H183 C191 0.950 . S
H184 C189 0.950 . S
H185 C190 0.949 . S
H186 C192 0.950 . S
H187 C193 0.950 . S
H188 C194 0.949 . S
C189 H184 0.950 . S
C189 C191 1.327 . S
C189 C195 1.429 . S
C190 C182 1.574 . S
C190 H185 0.949 . S
C190 C196 1.368 . S
C191 C175 1.349 . S
C191 H183 0.950 . S
C191 C189 1.327 . S
C192 C180 1.349 . S
C192 H186 0.950 . S
C192 C193 1.327 . S
C193 H187 0.950 . S
C193 C192 1.327 . S
C193 C197 1.429 . S
C194 C177 1.574 . S
C194 H188 0.949 . S
C194 C198 1.368 . S
C195 C176 1.429 . S
C195 C189 1.429 . S
C195 C196 1.523 . S
C196 C177 1.368 . S
C196 C190 1.368 . S
C196 C195 1.523 . S
C197 C181 1.429 . S
C197 C193 1.429 . S
C197 C198 1.523 . S
C198 C182 1.368 . S
C198 C194 1.368 . S
C198 C197 1.523 . S
H199 C174 0.950 . S
H200 C176 0.950 . S
H201 C177 0.949 . S
H202 C179 0.950 . S
H203 C181 0.950 . S
C204 C205 1.349 . S
C204 C206 1.327 . S
C204 H229 0.950 . S
C205 C204 1.349 . S
C205 C221 1.349 . S
C206 C204 1.327 . S
C206 C225 1.429 . S
C206 H230 0.950 1_455 S
C207 C224 1.574 . S
C207 C226 1.368 . S
C207 H231 0.949 . S
H208 C212 0.949 . S
C209 C210 1.349 . S
C209 C211 1.327 . S
C209 H232 0.950 . S
C210 C209 1.349 . S
C210 C222 1.349 . S
C211 C209 1.327 . S
C211 C227 1.429 . S
C211 H233 0.950 1_655 S
C212 H208 0.949 . S
C212 C220 1.574 . S
C212 C228 1.368 . S
H213 C221 0.950 . S
H214 C219 0.950 . S
H215 C220 0.949 . S
H216 C222 0.950 . S
H217 C223 0.950 . S
H218 C224 0.949 . S
C219 H214 0.950 . S
C219 C221 1.327 . S
C219 C225 1.429 . S
C220 C212 1.574 . S
C220 H215 0.949 . S
C220 C226 1.368 1_655 S
C221 C205 1.349 . S
C221 H213 0.950 . S
C221 C219 1.327 . S
C222 C210 1.349 . S
C222 H216 0.950 . S
C222 C223 1.327 . S
C223 H217 0.950 . S
C223 C222 1.327 . S
C223 C227 1.429 . S
C224 C207 1.574 . S
C224 H218 0.949 . S
C224 C228 1.368 1_455 S
C225 C206 1.429 . S
C225 C219 1.429 . S
C225 C226 1.523 . S
C226 C207 1.368 . S
C226 C220 1.368 1_455 S
C226 C225 1.523 . S
C227 C211 1.429 . S
C227 C223 1.429 . S
C227 C228 1.523 . S
C228 C212 1.368 . S
C228 C224 1.368 1_655 S
C228 C227 1.523 . S
H229 C204 0.950 . S
H230 C206 0.950 1_655 S
H231 C207 0.949 . S
H232 C209 0.950 . S
H233 C211 0.950 1_455 S
C234 C235 1.349 . S
C234 C236 1.327 . S
C234 H259 0.950 . S
C235 C234 1.349 . S
C235 C251 1.349 . S
C236 C234 1.327 . S
C236 C255 1.429 . S
C236 H260 0.950 . S
C237 C254 1.574 . S
C237 C256 1.368 1_565 S
C237 H261 0.949 . S
H238 C242 0.949 . S
C239 C240 1.349 . S
C239 C241 1.327 . S
C239 H262 0.950 . S
C240 C239 1.349 . S
C240 C252 1.349 . S
C241 C239 1.327 . S
C241 C257 1.429 . S
C241 H263 0.950 . S
C242 H238 0.949 . S
C242 C250 1.574 . S
C242 C258 1.368 1_545 S
H243 C251 0.950 . S
H244 C249 0.950 1_565 S
H245 C250 0.949 . S
H246 C252 0.950 . S
H247 C253 0.950 1_545 S
H248 C254 0.949 . S
C249 H244 0.950 1_545 S
C249 C251 1.327 . S
C249 C255 1.429 . S
C250 C242 1.574 . S
C250 H245 0.949 . S
C250 C256 1.368 . S
C251 C235 1.349 . S
C251 H243 0.950 . S
C251 C249 1.327 . S
C252 C240 1.349 . S
C252 H246 0.950 . S
C252 C253 1.327 . S
C253 H247 0.950 1_565 S
C253 C252 1.327 . S
C253 C257 1.429 . S
C254 C237 1.574 . S
C254 H248 0.949 . S
C254 C258 1.368 . S
C255 C236 1.429 . S
C255 C249 1.429 . S
C255 C256 1.523 . S
C256 C237 1.368 1_545 S
C256 C250 1.368 . S
C256 C255 1.523 . S
C257 C241 1.429 . S
C257 C253 1.429 . S
C257 C258 1.523 . S
C258 C242 1.368 1_565 S
C258 C254 1.368 . S
C258 C257 1.523 . S
H259 C234 0.950 . S
H260 C236 0.950 . S
H261 C237 0.949 . S
H262 C239 0.950 . S
H263 C241 0.950 . S
C264 C265 1.349 . S
C264 C266 1.327 . S
C264 H289 0.950 . S
C265 C264 1.349 . S
C265 C281 1.349 1_554 S
C266 C264 1.327 . S
C266 C285 1.429 . S
C266 H290 0.950 . S
C267 C284 1.574 . S
C267 C286 1.368 1_556 S
C267 H291 0.949 . S
H268 C272 0.949 . S
C269 C270 1.349 1_556 S
C269 C271 1.327 . S
C269 H292 0.950 . S
C270 C269 1.349 1_554 S
C270 C282 1.349 . S
C271 C269 1.327 . S
C271 C287 1.429 1_556 S
C271 H293 0.950 . S
C272 H268 0.949 . S
C272 C280 1.574 . S
C272 C288 1.368 . S
H273 C281 0.950 . S
H274 C279 0.950 . S
H275 C280 0.949 . S
H276 C282 0.950 . S
H277 C283 0.950 . S
H278 C284 0.949 . S
C279 H274 0.950 . S
C279 C281 1.327 . S
C279 C285 1.429 1_556 S
C280 C272 1.574 . S
C280 H275 0.949 . S
C280 C286 1.368 . S
C281 C265 1.349 1_556 S
C281 H273 0.950 . S
C281 C279 1.327 . S
C282 C270 1.349 . S
C282 H276 0.950 . S
C282 C283 1.327 . S
C283 H277 0.950 . S
C283 C282 1.327 . S
C283 C287 1.429 . S
C284 C267 1.574 . S
C284 H278 0.949 . S
C284 C288 1.368 1_556 S
C285 C266 1.429 . S
C285 C279 1.429 1_554 S
C285 C286 1.523 . S
C286 C267 1.368 1_554 S
C286 C280 1.368 . S
C286 C285 1.523 . S
C287 C271 1.429 1_554 S
C287 C283 1.429 . S
C287 C288 1.523 . S
C288 C272 1.368 . S
C288 C284 1.368 1_554 S
C288 C287 1.523 . S
H289 C264 0.950 . S
H290 C266 0.950 . S
H291 C267 0.949 . S
H292 C269 0.950 . S
H293 C271 0.950 . S
C294 C295 1.349 . S
C294 C296 1.327 . S
C294 H319 0.950 . S
C295 C294 1.349 . S
C295 C311 1.349 . S
C296 C294 1.327 . S
C296 C315 1.429 . S
C296 H320 0.950 1_655 S
C297 C314 1.574 . S
C297 C316 1.368 . S
C297 H321 0.949 . S
H298 C302 0.949 . S
C299 C300 1.349 . S
C299 C301 1.327 . S
C299 H322 0.950 . S
C300 C299 1.349 . S
C300 C312 1.349 . S
C301 C299 1.327 . S
C301 C317 1.429 . S
C301 H323 0.950 1_455 S
C302 H298 0.949 . S
C302 C310 1.574 . S
C302 C318 1.368 . S
H303 C311 0.950 . S
H304 C309 0.950 . S
H305 C310 0.949 . S
H306 C312 0.950 . S
H307 C313 0.950 . S
H308 C314 0.949 . S
C309 H304 0.950 . S
C309 C311 1.327 . S
C309 C315 1.429 . S
C310 C302 1.574 . S
C310 H305 0.949 . S
C310 C316 1.368 1_455 S
C311 C295 1.349 . S
C311 H303 0.950 . S
C311 C309 1.327 . S
C312 C300 1.349 . S
C312 H306 0.950 . S
C312 C313 1.327 . S
C313 H307 0.950 . S
C313 C312 1.327 . S
C313 C317 1.429 . S
C314 C297 1.574 . S
C314 H308 0.949 . S
C314 C318 1.368 1_655 S
C315 C296 1.429 . S
C315 C309 1.429 . S
C315 C316 1.523 . S
C316 C297 1.368 . S
C316 C310 1.368 1_655 S
C316 C315 1.523 . S
C317 C301 1.429 . S
C317 C313 1.429 . S
C317 C318 1.523 . S
C318 C302 1.368 . S
C318 C314 1.368 1_455 S
C318 C317 1.523 . S
H319 C294 0.950 . S
H320 C296 0.950 1_455 S
H321 C297 0.949 . S
H322 C299 0.950 . S
H323 C301 0.950 1_655 S
C324 C325 1.349 . S
C324 C326 1.327 . S
C324 H349 0.950 . S
C325 C324 1.349 . S
C325 C341 1.349 . S
C326 C324 1.327 . S
C326 C345 1.429 . S
C326 H350 0.950 . S
C327 C344 1.574 . S
C327 C346 1.368 1_565 S
C327 H351 0.949 . S
H328 C332 0.949 . S
C329 C330 1.349 . S
C329 C331 1.327 . S
C329 H352 0.950 . S
C330 C329 1.349 . S
C330 C342 1.349 . S
C331 C329 1.327 . S
C331 C347 1.429 . S
C331 H353 0.950 . S
C332 H328 0.949 . S
C332 C340 1.574 . S
C332 C348 1.368 1_545 S
H333 C341 0.950 . S
H334 C339 0.950 1_565 S
H335 C340 0.949 . S
H336 C342 0.950 . S
H337 C343 0.950 1_545 S
H338 C344 0.949 . S
C339 H334 0.950 1_545 S
C339 C341 1.327 . S
C339 C345 1.429 . S
C340 C332 1.574 . S
C340 H335 0.949 . S
C340 C346 1.368 . S
C341 C325 1.349 . S
C341 H333 0.950 . S
C341 C339 1.327 . S
C342 C330 1.349 . S
C342 H336 0.950 . S
C342 C343 1.327 . S
C343 H337 0.950 1_565 S
C343 C342 1.327 . S
C343 C347 1.429 . S
C344 C327 1.574 . S
C344 H338 0.949 . S
C344 C348 1.368 . S
C345 C326 1.429 . S
C345 C339 1.429 . S
C345 C346 1.523 . S
C346 C327 1.368 1_545 S
C346 C340 1.368 . S
C346 C345 1.523 . S
C347 C331 1.429 . S
C347 C343 1.429 . S
C347 C348 1.523 . S
C348 C332 1.368 1_565 S
C348 C344 1.368 . S
C348 C347 1.523 . S
H349 C324 0.950 . S
H350 C326 0.950 . S
H351 C327 0.949 . S
H352 C329 0.950 . S
H353 C331 0.950 . S
C354 C355 1.349 . S
C354 C356 1.327 . S
C354 H379 0.950 . S
C355 C354 1.349 . S
C355 C371 1.349 . S
C356 C354 1.327 . S
C356 C375 1.429 . S
C356 H380 0.950 . S
C357 C374 1.574 . S
C357 C376 1.368 . S
C357 H381 0.949 . S
H358 C362 0.949 . S
C359 C360 1.349 . S
C359 C361 1.327 . S
C359 H382 0.950 . S
C360 C359 1.349 . S
C360 C372 1.349 . S
C361 C359 1.327 . S
C361 C377 1.429 . S
C361 H383 0.950 . S
C362 H358 0.949 . S
C362 C370 1.574 . S
C362 C378 1.368 . S
H363 C371 0.950 . S
H364 C369 0.950 . S
H365 C370 0.949 . S
H366 C372 0.950 . S
H367 C373 0.950 . S
H368 C374 0.949 . S
C369 H364 0.950 . S
C369 C371 1.327 . S
C369 C375 1.429 . S
C370 C362 1.574 . S
C370 H365 0.949 . S
C370 C376 1.368 . S
C371 C355 1.349 . S
C371 H363 0.950 . S
C371 C369 1.327 . S
C372 C360 1.349 . S
C372 H366 0.950 . S
C372 C373 1.327 . S
C373 H367 0.950 . S
C373 C372 1.327 . S
C373 C377 1.429 . S
C374 C357 1.574 . S
C374 H368 0.949 . S
C374 C378 1.368 . S
C375 C356 1.429 . S
C375 C369 1.429 . S
C375 C376 1.523 . S
C376 C357 1.368 . S
C376 C370 1.368 . S
C376 C375 1.523 . S
C377 C361 1.429 . S
C377 C373 1.429 . S
C377 C378 1.523 . S
C378 C362 1.368 . S
C378 C374 1.368 . S
C378 C377 1.523 . S
H379 C354 0.950 . S
H380 C356 0.950 . S
H381 C357 0.949 . S
H382 C359 0.950 . S
H383 C361 0.950 . S
C384 C385 1.349 1_554 S
C384 C386 1.327 . S
C384 H409 0.950 . S
C385 C384 1.349 1_556 S
C385 C401 1.349 . S
C386 C384 1.327 . S
C386 C405 1.429 1_554 S
C386 H410 0.950 . S
C387 C404 1.574 . S
C387 C406 1.368 1_455 S
C387 H411 0.949 . S
H388 C392 0.949 . S
C389 C390 1.349 . S
C389 C391 1.327 . S
C389 H412 0.950 . S
C390 C389 1.349 . S
C390 C402 1.349 1_556 S
C391 C389 1.327 . S
C391 C407 1.429 . S
C391 H413 0.950 . S
C392 H388 0.949 . S
C392 C400 1.574 . S
C392 C408 1.368 1_654 S
H393 C401 0.950 . S
H394 C399 0.950 1_455 S
H395 C400 0.949 . S
H396 C402 0.950 . S
H397 C403 0.950 1_655 S
H398 C404 0.949 . S
C399 H394 0.950 1_655 S
C399 C401 1.327 . S
C399 C405 1.429 . S
C400 C392 1.574 . S
C400 H395 0.949 . S
C400 C406 1.368 1_554 S
C401 C385 1.349 . S
C401 H393 0.950 . S
C401 C399 1.327 . S
C402 C390 1.349 1_554 S
C402 H396 0.950 . S
C402 C403 1.327 . S
C403 H397 0.950 1_455 S
C403 C402 1.327 . S
C403 C407 1.429 1_554 S
C404 C387 1.574 . S
C404 H398 0.949 . S
C404 C408 1.368 . S
C405 C386 1.429 1_556 S
C405 C399 1.429 . S
C405 C406 1.523 . S
C406 C387 1.368 1_655 S
C406 C400 1.368 1_556 S
C406 C405 1.523 . S
C407 C391 1.429 . S
C407 C403 1.429 1_556 S
C407 C408 1.523 . S
C408 C392 1.368 1_456 S
C408 C404 1.368 . S
C408 C407 1.523 . S
H409 C384 0.950 . S
H410 C386 0.950 . S
H411 C387 0.949 . S
H412 C389 0.950 . S
H413 C391 0.950 . S
C414 C415 1.349 . S
C414 C416 1.327 . S
C414 H439 0.950 . S
C415 C414 1.349 . S
C415 C431 1.349 . S
C416 C414 1.327 . S
C416 C435 1.429 . S
C416 H440 0.950 . S
C417 C434 1.574 . S
C417 C436 1.368 1_565 S
C417 H441 0.949 . S
H418 C422 0.949 . S
C419 C420 1.349 . S
C419 C421 1.327 . S
C419 H442 0.950 . S
C420 C419 1.349 . S
C420 C432 1.349 . S
C421 C419 1.327 . S
C421 C437 1.429 . S
C421 H443 0.950 . S
C422 H418 0.949 . S
C422 C430 1.574 . S
C422 C438 1.368 1_545 S
H423 C431 0.950 . S
H424 C429 0.950 1_565 S
H425 C430 0.949 . S
H426 C432 0.950 . S
H427 C433 0.950 1_545 S
H428 C434 0.949 . S
C429 H424 0.950 1_545 S
C429 C431 1.327 . S
C429 C435 1.429 . S
C430 C422 1.574 . S
C430 H425 0.949 . S
C430 C436 1.368 . S
C431 C415 1.349 . S
C431 H423 0.950 . S
C431 C429 1.327 . S
C432 C420 1.349 . S
C432 H426 0.950 . S
C432 C433 1.327 . S
C433 H427 0.950 1_565 S
C433 C432 1.327 . S
C433 C437 1.429 . S
C434 C417 1.574 . S
C434 H428 0.949 . S
C434 C438 1.368 . S
C435 C416 1.429 . S
C435 C429 1.429 . S
C435 C436 1.523 . S
C436 C417 1.368 1_545 S
C436 C430 1.368 . S
C436 C435 1.523 . S
C437 C421 1.429 . S
C437 C433 1.429 . S
C437 C438 1.523 . S
C438 C422 1.368 1_565 S
C438 C434 1.368 . S
C438 C437 1.523 . S
H439 C414 0.950 . S
H440 C416 0.950 . S
H441 C417 0.949 . S
H442 C419 0.950 . S
H443 C421 0.950 . S
C85 C77 1.156 . S
C90 C3 1.141 . S
C115 C17 1.141 . S
C120 C7 1.156 . S
C145 C21 1.156 . S
C150 C31 1.141 . S
C175 C45 1.141 . S
C180 C35 1.156 . S
C205 C59 1.141 . S
C210 C49 1.156 . S
C235 C73 1.141 . S
C240 C63 1.156 . S
C265 C9 1.393 . S
C270 C51 1.393 . S
C295 C23 1.393 . S
C300 C65 1.393 . S
C325 C79 1.393 . S
C330 C37 1.393 . S
C355 C78 1.319 . S
C360 C36 1.319 . S
C385 C50 1.319 . S
C390 C8 1.319 . S
C415 C22 1.319 . S
C420 C64 1.319 . S
