# Generated by pormake.
# Topology dft, (4)-cn, num edge types: 1
# Building blocks:
#     Node 0, Type 0, BuildingBlock: GALJAG_clean_sbu_0, # of connection points: 4
#     Node 1, Type 0, BuildingBlock: GALJAG_clean_sbu_0, # of connection points: 4
#     Node 2, Type 0, BuildingBlock: GALJAG_clean_sbu_0, # of connection points: 4
#     Node 3, Type 0, BuildingBlock: GALJAG_clean_sbu_0, # of connection points: 4
#     Node 4, Type 0, BuildingBlock: GALJAG_clean_sbu_0, # of connection points: 4
#     Node 5, Type 0, BuildingBlock: GALJAG_clean_sbu_0, # of connection points: 4
#     Node 6, Type 0, BuildingBlock: GALJAG_clean_sbu_0, # of connection points: 4
#     Node 7, Type 0, BuildingBlock: GALJAG_clean_sbu_0, # of connection points: 4
#     Edge 8, Type (0, 0), BuildingBlock: TEMPAE_clean_linker_10, # of connection points: 2
#     Edge 9, Type (0, 0), BuildingBlock: TEMPAE_clean_linker_10, # of connection points: 2
#     Edge 10, Type (0, 0), BuildingBlock: TEMPAE_clean_linker_10, # of connection points: 2
#     Edge 11, Type (0, 0), BuildingBlock: TEMPAE_clean_linker_10, # of connection points: 2
#     Edge 12, Type (0, 0), BuildingBlock: TEMPAE_clean_linker_10, # of connection points: 2
#     Edge 13, Type (0, 0), BuildingBlock: TEMPAE_clean_linker_10, # of connection points: 2
#     Edge 14, Type (0, 0), BuildingBlock: TEMPAE_clean_linker_10, # of connection points: 2
#     Edge 15, Type (0, 0), BuildingBlock: TEMPAE_clean_linker_10, # of connection points: 2
#     Edge 16, Type (0, 0), BuildingBlock: TEMPAE_clean_linker_10, # of connection points: 2
#     Edge 17, Type (0, 0), BuildingBlock: TEMPAE_clean_linker_10, # of connection points: 2
#     Edge 18, Type (0, 0), BuildingBlock: TEMPAE_clean_linker_10, # of connection points: 2
#     Edge 19, Type (0, 0), BuildingBlock: TEMPAE_clean_linker_10, # of connection points: 2
#     Edge 20, Type (0, 0), BuildingBlock: TEMPAE_clean_linker_10, # of connection points: 2
#     Edge 21, Type (0, 0), BuildingBlock: TEMPAE_clean_linker_10, # of connection points: 2
#     Edge 22, Type (0, 0), BuildingBlock: TEMPAE_clean_linker_10, # of connection points: 2
#     Edge 23, Type (0, 0), BuildingBlock: TEMPAE_clean_linker_10, # of connection points: 2
# Relax obj value: 0.096
# Max RMSD: 0.146
# Mean RMSD: 0.146
data_MOF--net-dft--node1-GALJAG_clean_sbu_0--edge1-TEMPAE_clean_linker_10
_symmetry_space_group_name_H-M    P1
_symmetry_Int_Tables_number       1
_symmetry_cell_setting            triclinic
loop_
_symmetry_equiv_pos_as_xyz
'x, y, z'
_cell_length_a     33.999287
_cell_length_b     34.049844
_cell_length_c     45.651502
_cell_angle_alpha  89.976305
_cell_angle_beta   90.048101
_cell_angle_gamma 90.036834
loop_
_atom_site_label
_atom_site_type_symbol
_atom_site_fract_x
_atom_site_fract_y
_atom_site_fract_z
_atom_type_partial_charge
In0 In 0.31359 0.03571 0.16527 0.0
O1 O 0.37086 0.06478 0.17951 0.0
O2 O 0.37428 0.00877 0.15917 0.0
C3 C 0.27818 0.09405 0.19518 0.0
C4 C 0.30323 0.03662 0.10667 0.0
C5 C 0.27848 0.97299 0.18991 0.0
O6 O 0.3014 0.06995 0.20706 0.0
O7 O 0.27345 0.08928 0.16798 0.0
O8 O 0.31522 0.97807 0.19107 0.0
O9 O 0.2599 -0.00069 0.1763 0.0
C10 C 0.39248 0.03721 0.17058 0.0
O11 O 0.29214 0.00858 0.12266 0.0
O12 O 0.31921 0.06468 0.12026 0.0
In13 In 0.04753 0.31588 0.66967 0.0
O14 O 0.02464 0.37294 0.68888 0.0
O15 O 0.0794 0.37458 0.66646 0.0
C16 C 0.98709 0.27118 0.68891 0.0
C17 C 0.04338 0.30938 0.6107 0.0
C18 C 0.10907 0.28952 0.7011 0.0
O19 O 0.98506 0.30807 0.68733 0.0
O20 O 0.01914 0.25689 0.68014 0.0
O21 O 0.10858 0.28938 0.67348 0.0
O22 O 0.07881 0.30392 0.71293 0.0
C23 C 0.05332 0.39337 0.68023 0.0
O24 O 0.06603 0.2887 0.62614 0.0
O25 O 0.02231 0.33298 0.62501 0.0
In26 In 0.76643 0.04001 0.16356 0.0
O27 O 0.70855 0.02078 0.18427 0.0
O28 O 0.70694 0.06758 0.15352 0.0
C29 C 0.79695 0.97854 0.19309 0.0
C30 C 0.77667 0.0347 0.10517 0.0
C31 C 0.80597 0.10184 0.18578 0.0
O32 O 0.78024 0.00699 0.20561 0.0
O33 O 0.79747 0.98057 0.16548 0.0
O34 O 0.82272 0.07199 0.17533 0.0
O35 O 0.76889 0.1009 0.18476 0.0
C36 C 0.68791 0.04537 0.17047 0.0
O37 O 0.79332 0.06055 0.12058 0.0
O38 O 0.75535 0.011 0.1193 0.0
In39 In 0.0287 0.76455 0.66315 0.0
O40 O 0.00181 0.75677 0.61811 0.0
O41 O 0.0541 0.79086 0.62114 0.0
C42 C 0.96138 0.79014 0.68788 0.0
C43 C 0.03749 0.68661 0.67132 0.0
C44 C 0.08876 0.8053 0.68689 0.0
O45 O 0.97571 0.80492 0.66497 0.0
O46 O 0.98065 0.7617 0.6982 0.0
O47 O 0.094 0.77315 0.67368 0.0
O48 O 0.05357 0.81689 0.68761 0.0
C49 C 0.02752 0.77676 0.60493 0.0
O50 O 0.04602 0.71127 0.69093 0.0
O51 O 0.02457 0.70132 0.64791 0.0
In52 In 0.31172 0.03091 0.82829 0.0
O53 O 0.32594 0.00392 0.87284 0.0
O54 O 0.28135 0.04739 0.87105 0.0
C55 C 0.27343 0.09399 0.80695 0.0
C56 C 0.38991 0.03676 0.82027 0.0
C57 C 0.28159 0.97078 0.79716 0.0
O58 O 0.31018 0.09383 0.81076 0.0
O59 O 0.25625 0.06264 0.81413 0.0
O60 O 0.29817 -6e-05 0.7854 0.0
O61 O 0.28112 0.97139 0.82483 0.0
C62 C 0.30134 0.02439 0.88672 0.0
O63 O 0.36975 0.00942 0.8092 0.0
O64 O 0.37054 0.06126 0.8351 0.0
In65 In 0.03724 0.31245 0.33124 0.0
O66 O 0.05888 0.37032 0.3124 0.0
O67 O 0.00564 0.37107 0.33671 0.0
C68 C 0.09645 0.26785 0.30995 0.0
C69 C 0.04259 0.3066 0.39017 0.0
C70 C 0.97595 0.28431 0.30027 0.0
O71 O 0.09797 0.30481 0.31056 0.0
O72 O 0.06559 0.25341 0.32076 0.0
O73 O 0.98079 0.27734 0.32715 0.0
O74 O 0.00181 0.30615 0.28897 0.0
C75 C 0.03075 0.39038 0.32234 0.0
O76 O 0.01378 0.29365 0.37577 0.0
O77 O 0.06913 0.32232 0.37485 0.0
In78 In 0.76396 0.03759 0.8267 0.0
O79 O 0.78914 0.01442 0.86949 0.0
O80 O 0.75516 0.06673 0.87119 0.0
C81 C 0.79735 0.97312 0.80326 0.0
C82 C 0.68517 0.03708 0.82124 0.0
C83 C 0.79918 0.09677 0.79737 0.0
O84 O 0.81676 -0.00043 0.81607 0.0
O85 O 0.76075 0.97894 0.8024 0.0
O86 O 0.80173 0.09298 0.8248 0.0
O87 O 0.77815 0.07126 0.78489 0.0
C88 C 0.77465 0.04128 0.8851 0.0
O89 O 0.70653 0.06213 0.80853 0.0
O90 O 0.70358 0.01233 0.83655 0.0
In91 In 0.0427 0.76368 0.32757 0.0
O92 O 0.06942 0.76271 0.37299 0.0
O93 O 0.01131 0.78505 0.36896 0.0
C94 C 0.10946 0.78968 0.30227 0.0
C95 C 0.03776 0.68491 0.32201 0.0
C96 C 0.98443 0.80533 0.30231 0.0
O97 O 0.0961 0.80341 0.32585 0.0
O98 O 0.0894 0.76209 0.29143 0.0
O99 O 0.97865 0.7717 0.3132 0.0
O100 O 0.0192 0.81784 0.30464 0.0
C101 C 0.03982 0.77705 0.38565 0.0
O102 O 0.0248 0.70795 0.30264 0.0
O103 O 0.05324 0.70163 0.34372 0.0
C104 C 0.27836 0.00518 0.06094 0.0
C105 C 0.29934 0.03564 0.07449 0.0
C106 C 0.27615 0.00255 0.03034 0.0
C107 C 0.2957 0.03087 0.01295 0.0
C108 C 0.31639 0.06207 0.02652 0.0
C109 C 0.31781 0.06418 0.05718 0.0
C110 C 0.25348 0.96912 0.01662 0.0
C111 C 0.33779 0.09268 0.00865 0.0
C112 C 0.32621 0.0036 0.93572 0.0
C113 C 0.2981 0.02358 0.91894 0.0
C114 C 0.32547 0.00534 0.9664 0.0
C115 C 0.29563 0.02723 0.98055 0.0
C116 C 0.26645 0.04647 0.96372 0.0
C117 C 0.26817 0.04459 0.93305 0.0
C118 C 0.35721 0.98462 0.98364 0.0
C119 C 0.23391 0.06965 0.97808 0.0
H120 H 0.26391 0.98313 0.07427 0.0
H121 H 0.33411 0.08772 0.0676 0.0
H122 H 0.23121 0.98073 0.0011 0.0
H123 H 0.27376 0.9502 0.00387 0.0
H124 H 0.23832 0.95067 0.03322 0.0
H125 H 0.35171 0.11557 0.02256 0.0
H126 H 0.36098 0.07843 0.99528 0.0
H127 H 0.31711 0.10717 0.99326 0.0
H128 H 0.34947 0.98744 0.92487 0.0
H129 H 0.24631 0.05998 0.92012 0.0
H130 H 0.34382 0.96388 -0.00048 0.0
H131 H 0.37439 0.00639 -0.00356 0.0
H132 H 0.37775 0.96805 0.96933 0.0
H133 H 0.21806 0.051 0.99414 0.0
H134 H 0.21236 0.08117 0.96192 0.0
H135 H 0.24659 0.09478 0.99034 0.0
C136 C 0.02099 0.33447 0.5621 0.0
C137 C 0.04273 0.30718 0.57841 0.0
C138 C 0.0214 0.33372 0.53139 0.0
C139 C 0.04384 0.30477 0.5167 0.0
C140 C 0.06545 0.27683 0.53307 0.0
C141 C 0.06477 0.27847 0.56377 0.0
C142 C -0.00186 0.36413 0.51464 0.0
C143 C 0.08941 0.24533 0.51815 0.0
C144 C 0.01588 0.28308 0.43791 0.0
C145 C 0.04421 0.30467 0.42245 0.0
C146 C 0.01588 0.28225 0.46861 0.0
C147 C 0.04467 0.30384 0.48418 0.0
C148 C 0.07365 0.32531 0.46868 0.0
C149 C 0.07319 0.3253 0.43794 0.0
C150 C 0.98478 0.25868 0.48439 0.0
C151 C 0.10466 0.34889 0.48458 0.0
H152 H 0.00403 0.35679 0.57335 0.0
H153 H 0.08158 0.25729 0.57632 0.0
H154 H 0.01811 0.38139 0.50036 0.0
H155 H 0.97636 0.34949 0.5002 0.0
H156 H 0.98229 0.38468 0.52937 0.0
H157 H 0.104 0.2254 0.53407 0.0
H158 H 0.07027 0.22755 0.5036 0.0
H159 H 0.11232 0.25902 0.50418 0.0
H160 H 0.99351 0.26695 0.42599 0.0
H161 H 0.09507 0.34209 0.42605 0.0
H162 H 0.96621 0.27851 0.49781 0.0
H163 H -0.00119 0.23744 0.49958 0.0
H164 H 0.96546 0.24226 0.46904 0.0
H165 H 0.09041 0.37185 0.49815 0.0
H166 H 0.12557 0.36332 0.46929 0.0
H167 H 0.12151 0.32962 0.49963 0.0
C168 C 0.80366 0.01493 0.9313 0.0
C169 C 0.77858 0.04167 0.91728 0.0
C170 C 0.80602 0.01341 0.96195 0.0
C171 C 0.7824 0.03896 0.97888 0.0
C172 C 0.75751 0.06647 0.96482 0.0
C173 C 0.75606 0.06763 0.93414 0.0
C174 C 0.83325 0.98404 0.97621 0.0
C175 C 0.73171 0.09402 0.98219 0.0
C176 C 0.75536 0.00947 0.0564 0.0
C177 C 0.78007 0.0338 0.07297 0.0
C178 C 0.75621 0.01049 0.0257 0.0
C179 C 0.7827 0.03615 0.01133 0.0
C180 C 0.80852 0.05995 0.02796 0.0
C181 C 0.80674 0.05864 0.05864 0.0
C182 C 0.72806 0.98485 0.00866 0.0
C183 C 0.83747 0.08731 0.01336 0.0
H184 H 0.82124 -0.0051 0.91831 0.0
H185 H 0.73657 0.08827 0.92336 0.0
H186 H 0.85341 -0.00082 0.99164 0.0
H187 H 0.81587 0.9626 0.98915 0.0
H188 H 0.85112 0.96767 0.95991 0.0
H189 H 0.71469 0.11427 0.96792 0.0
H190 H 0.71074 0.07682 0.9957 0.0
H191 H 0.74989 0.11176 -0.00257 0.0
H192 H 0.73464 0.99031 0.06742 0.0
H193 H 0.82599 0.0774 0.07141 0.0
H194 H 0.74454 0.96591 0.99318 0.0
H195 H 0.70803 0.00351 0.99544 0.0
H196 H 0.71002 0.96581 0.02315 0.0
H197 H 0.85605 0.07079 -0.00234 0.0
H198 H 0.85692 0.10229 0.02942 0.0
H199 H 0.82138 0.10998 0.00067 0.0
C200 C 0.06598 0.76285 0.43534 0.0
C201 C 0.03831 0.78206 0.41767 0.0
C202 C 0.06384 0.76502 0.46591 0.0
C203 C 0.03374 0.7876 0.47908 0.0
C204 C 0.00654 0.80825 0.46134 0.0
C205 C 0.00888 0.80487 0.43074 0.0
C206 C 0.09298 0.74202 0.4841 0.0
C207 C 0.97458 0.83324 0.47468 0.0
C208 C 0.00456 0.75628 0.55556 0.0
C209 C 0.02724 0.78161 0.57287 0.0
C210 C 0.00573 0.75856 0.52495 0.0
C211 C 0.02953 0.78743 0.51141 0.0
C212 C 0.05129 0.81414 0.52881 0.0
C213 C 0.05025 0.8106 0.55944 0.0
C214 C 0.98267 0.72908 0.50712 0.0
C215 C 0.07633 0.8458 0.51509 0.0
H216 H 0.08871 0.74508 0.42527 0.0
H217 H 0.98764 0.81997 0.41706 0.0
H218 H 0.10856 0.76184 0.4995 0.0
H219 H 0.07717 0.71982 0.49746 0.0
H220 H 0.11518 0.72667 0.47042 0.0
H221 H 0.95796 0.85004 0.45788 0.0
H222 H 0.95362 0.81433 0.48684 0.0
H223 H 0.98743 0.8542 0.49065 0.0
H224 H 0.98681 0.73376 0.56593 0.0
H225 H 0.06754 0.83042 0.57285 0.0
H226 H 0.0032 0.7108 0.49406 0.0
H227 H 0.96302 0.74443 0.49146 0.0
H228 H 0.96455 0.70937 0.52104 0.0
H229 H 0.10123 0.83223 0.50313 0.0
H230 H 0.0884 0.86647 0.53164 0.0
H231 H 0.05885 0.86273 0.49888 0.0
C232 C 0.45853 0.01039 0.15808 0.0
C233 C 0.43574 0.03855 0.17261 0.0
C234 C 0.4997 0.01213 0.15882 0.0
C235 C 0.51841 0.04252 0.17476 0.0
C236 C 0.49554 0.07063 0.18993 0.0
C237 C 0.45439 0.06844 0.18853 0.0
C238 C 0.52316 0.98185 0.14214 0.0
C239 C 0.51455 0.10316 0.20741 0.0
C240 C 0.62531 0.0252 0.19466 0.0
C241 C 0.6447 0.04669 0.17282 0.0
C242 C 0.58411 0.02449 0.19609 0.0
C243 C 0.56196 0.0453 0.17491 0.0
C244 C 0.58143 0.06758 0.15312 0.0
C245 C 0.62263 0.06822 0.15246 0.0
C246 C 0.5643 0.00087 0.21988 0.0
C247 C 0.55875 0.08983 0.12999 0.0
H248 H 0.44418 0.9873 0.14569 0.0
H249 H 0.43681 0.09018 0.19988 0.0
H250 H 0.54162 -0.00343 0.12537 0.0
H251 H 0.54332 0.96612 0.15724 0.0
H252 H 0.50408 0.95992 0.13105 0.0
H253 H 0.49257 0.12176 0.21887 0.0
H254 H 0.53494 0.09059 0.22392 0.0
H255 H 0.53227 0.12214 0.19271 0.0
H256 H 0.64234 0.00869 0.21052 0.0
H257 H 0.63757 0.08477 0.13549 0.0
H258 H 0.54726 0.97646 0.20997 0.0
H259 H 0.54318 0.01956 0.23206 0.0
H260 H 0.58574 0.9883 0.23568 0.0
H261 H 0.54109 0.06899 0.1167 0.0
H262 H 0.57834 0.10664 0.11509 0.0
H263 H 0.5379 0.11056 0.14045 0.0
C264 C 0.02259 0.45618 0.69624 0.0
C265 C 0.05474 0.43634 0.68404 0.0
C266 C 0.02151 0.4973 0.697 0.0
C267 C 0.05345 0.51894 0.68541 0.0
C268 C 0.08689 0.49904 0.67447 0.0
C269 C 0.08709 0.45787 0.67383 0.0
C270 C 0.9853 0.51753 0.70876 0.0
C271 C 0.12163 0.5212 0.66215 0.0
C272 C 0.0299 0.61837 0.65287 0.0
C273 C 0.04206 0.64388 0.67518 0.0
C274 C 0.03364 0.57766 0.65596 0.0
C275 C 0.05011 0.56211 0.68198 0.0
C276 C 0.0627 0.58769 0.70455 0.0
C277 C 0.05843 0.62841 0.70091 0.0
C278 C 0.01972 0.55128 0.63144 0.0
C279 C 0.08055 0.57203 0.7325 0.0
H280 H -0.00242 0.43961 0.70426 0.0
H281 H 0.11212 0.4426 0.66456 0.0
H282 H 0.99364 0.54046 0.72487 0.0
H283 H 0.96959 0.5324 0.69056 0.0
H284 H 0.96469 0.49663 0.71943 0.0
H285 H 0.14694 0.50157 0.65748 0.0
H286 H 0.11289 0.53598 0.64148 0.0
H287 H 0.1313 0.54438 0.67764 0.0
H288 H 0.01722 0.63022 0.63294 0.0
H289 H 0.06793 0.64811 0.71816 0.0
H290 H -0.00347 0.53113 0.6396 0.0
H291 H 0.04441 0.53284 0.62351 0.0
H292 H 0.00771 0.56813 0.6126 0.0
H293 H 0.05912 0.55275 0.74386 0.0
H294 H 0.08949 0.59589 0.7477 0.0
H295 H 0.10673 0.55385 0.72738 0.0
C296 C 0.61952 0.01369 0.83786 0.0
C297 C 0.64195 0.03708 0.81893 0.0
C298 C 0.57837 0.01418 0.83665 0.0
C299 C 0.5593 0.03826 0.81573 0.0
C300 C 0.5818 0.0614 0.79618 0.0
C301 C 0.62297 0.06074 0.79816 0.0
C302 C 0.55529 0.98942 0.85807 0.0
C303 C 0.56239 0.08703 0.77338 0.0
C304 C 0.45312 0.0121 0.79953 0.0
C305 C 0.43303 0.03892 0.81734 0.0
C306 C 0.49431 0.01234 0.79804 0.0
C307 C 0.51573 0.03985 0.81496 0.0
C308 C 0.49553 0.06761 0.83242 0.0
C309 C 0.45435 0.06691 0.8333 0.0
C310 C 0.51493 0.98256 0.77897 0.0
C311 C 0.51744 0.09723 0.85089 0.0
H312 H 0.63414 -0.00455 0.854 0.0
H313 H 0.64031 0.07871 0.7834 0.0
H314 H 0.53626 0.00854 0.8717 0.0
H315 H 0.53572 0.9689 0.84607 0.0
H316 H 0.57465 0.97207 0.8728 0.0
H317 H 0.58415 0.10208 0.75911 0.0
H318 H 0.5426 0.06908 0.75942 0.0
H319 H 0.54396 0.10961 0.78423 0.0
H320 H 0.43668 0.99053 0.78706 0.0
H321 H 0.43889 0.08771 0.84708 0.0
H322 H 0.53226 0.96218 0.79287 0.0
H323 H 0.53588 -0.00251 0.76403 0.0
H324 H 0.49396 0.96503 0.76563 0.0
H325 H 0.53535 0.08173 0.86762 0.0
H326 H 0.4973 0.11789 0.86225 0.0
H327 H 0.53799 0.11446 0.83707 0.0
C328 C 0.05877 0.45346 0.30412 0.0
C329 C 0.02848 0.43334 0.31856 0.0
C330 C 0.05871 0.49454 0.30235 0.0
C331 C 0.02754 0.5159 0.31528 0.0
C332 C -0.00392 0.49566 0.32888 0.0
C333 C -0.00303 0.45453 0.33041 0.0
C334 C 0.0928 0.51514 0.28773 0.0
C335 C 0.96228 0.51749 0.34281 0.0
C336 C 0.05085 0.61838 0.34221 0.0
C337 C 0.03494 0.64178 0.3199 0.0
C338 C 0.04846 0.57739 0.34095 0.0
C339 C 0.02962 0.55936 0.3168 0.0
C340 C 0.01336 0.58279 0.2942 0.0
C341 C 0.01627 0.62386 0.29601 0.0
C342 C 0.06624 0.55337 0.36545 0.0
C343 C 0.993 0.56445 0.26818 0.0
H344 H 0.08313 0.43715 0.29483 0.0
H345 H 0.97339 0.43904 0.34146 0.0
H346 H 0.08191 0.53643 0.27121 0.0
H347 H 0.10968 0.53202 0.30431 0.0
H348 H 0.11312 0.49424 0.27679 0.0
H349 H 0.93853 0.4974 0.35021 0.0
H350 H 0.9731 0.5343 0.36201 0.0
H351 H 0.94967 0.53897 0.32713 0.0
H352 H 0.0653 0.63212 0.36075 0.0
H353 H 0.00386 0.64191 0.27876 0.0
H354 H 0.08918 0.53351 0.35657 0.0
H355 H 0.04334 0.53465 0.37568 0.0
H356 H 0.07972 0.572 0.38273 0.0
H357 H 0.01373 0.54501 0.25631 0.0
H358 H 0.98153 0.58681 0.25265 0.0
H359 H 0.96815 0.54589 0.2757 0.0
C360 C 0.16089 0.26093 0.28414 0.0
C361 C 0.12688 0.24354 0.29571 0.0
C362 C 0.18845 0.23853 0.26851 0.0
C363 C 0.18159 0.19793 0.26424 0.0
C364 C 0.14777 0.18008 0.27649 0.0
C365 C 0.12088 0.2031 0.29218 0.0
C366 C 0.22439 0.25846 0.256 0.0
C367 C 0.13938 0.13687 0.27233 0.0
C368 C 0.22594 0.14525 0.19898 0.0
C369 C 0.25607 0.12351 0.21224 0.0
C370 C 0.20214 0.17048 0.21555 0.0
C371 C 0.20888 0.1742 0.24604 0.0
C372 C 0.24025 0.15348 0.25932 0.0
C373 C 0.2634 0.12823 0.24226 0.0
C374 C 0.16886 0.192 0.20063 0.0
C375 C 0.24854 0.15701 0.29172 0.0
H376 H 0.16566 0.29219 0.28687 0.0
H377 H 0.09461 0.18954 0.30105 0.0
H378 H 0.25141 0.24289 0.26312 0.0
H379 H 0.22346 0.25715 0.23173 0.0
H380 H 0.22659 0.28972 0.26277 0.0
H381 H 0.1124 0.12729 0.28405 0.0
H382 H 0.1357 0.13039 0.24866 0.0
H383 H 0.16455 0.11912 0.28031 0.0
H384 H 0.22016 0.14167 0.17578 0.0
H385 H 0.28678 0.11158 0.25258 0.0
H386 H 0.17087 0.22394 0.20516 0.0
H387 H 0.14031 0.18162 0.2095 0.0
H388 H 0.16884 0.18752 0.17652 0.0
H389 H 0.25133 0.18835 0.29802 0.0
H390 H 0.27586 0.14137 0.29822 0.0
H391 H 0.22361 0.14457 0.30435 0.0
C392 C 0.92013 0.26383 0.71085 0.0
C393 C 0.95575 0.24685 0.70202 0.0
C394 C 0.89143 0.24147 0.72537 0.0
C395 C 0.8988 0.20136 0.73138 0.0
C396 C 0.93436 0.18389 0.7219 0.0
C397 C 0.96234 0.20683 0.70722 0.0
C398 C 0.85366 0.26094 0.73488 0.0
C399 C 0.94337 0.14123 0.72802 0.0
C400 C 0.84917 0.15035 0.79526 0.0
C401 C 0.82156 0.12664 0.78088 0.0
C402 C 0.87367 0.17584 0.77945 0.0
C403 C 0.8702 0.17779 0.74857 0.0
C404 C 0.84118 0.15518 0.73407 0.0
C405 C 0.81727 0.12972 0.75041 0.0
C406 C 0.90436 0.19942 0.79568 0.0
C407 C 0.83639 0.15678 0.70121 0.0
H408 H 0.9149 0.29477 0.7068 0.0
H409 H 0.98987 0.19359 0.70048 0.0
H410 H 0.82798 0.24412 0.72663 0.0
H411 H 0.85182 0.26105 0.75914 0.0
H412 H 0.85141 0.2917 0.72693 0.0
H413 H 0.97188 0.13187 0.71842 0.0
H414 H 0.94441 0.13617 0.75202 0.0
H415 H 0.91973 0.12226 0.71904 0.0
H416 H 0.85257 0.14807 0.81881 0.0
H417 H 0.79582 0.11155 0.73921 0.0
H418 H 0.90196 0.23097 0.78989 0.0
H419 H 0.93416 0.18951 0.78909 0.0
H420 H 0.90164 0.19639 0.81983 0.0
H421 H 0.83363 0.18767 0.69376 0.0
H422 H 0.81022 0.14009 0.6936 0.0
H423 H 0.86289 0.14431 0.69053 0.0
C424 C 0.91541 0.81288 0.2839 0.0
C425 C 0.95344 0.82816 0.28735 0.0
C426 C 0.8863 0.83422 0.26892 0.0
C427 C 0.89558 0.87161 0.25722 0.0
C428 C 0.93388 0.8872 0.26084 0.0
C429 C 0.96232 0.86529 0.27585 0.0
C430 C 0.84575 0.81675 0.26547 0.0
C431 C 0.94492 0.92702 0.24874 0.0
C432 C 0.83893 0.9184 0.19482 0.0
C433 C 0.81761 0.94747 0.20962 0.0
C434 C 0.8629 0.89196 0.21023 0.0
C435 C 0.86556 0.89481 0.24112 0.0
C436 C 0.84242 0.92272 0.25626 0.0
C437 C 0.81868 0.94873 0.24031 0.0
C438 C 0.887 0.86245 0.19333 0.0
C439 C 0.84441 0.9266 0.28918 0.0
H440 H 0.90847 0.78415 0.29273 0.0
H441 H 0.99168 0.87724 0.27844 0.0
H442 H 0.82346 0.83666 0.27515 0.0
H443 H 0.83855 0.81365 0.24187 0.0
H444 H 0.84317 0.78749 0.27607 0.0
H445 H 0.97596 0.93496 0.25358 0.0
H446 H 0.94065 0.92741 0.22464 0.0
H447 H 0.92549 0.94994 0.25814 0.0
H448 H 0.83805 0.91721 0.1711 0.0
H449 H 0.80209 0.97105 0.25187 0.0
H450 H 0.88377 0.83274 0.20302 0.0
H451 H 0.91859 0.87049 0.19468 0.0
H452 H 0.87842 0.86114 0.16987 0.0
H453 H 0.84083 0.89749 0.29977 0.0
H454 H 0.82154 0.94679 0.29783 0.0
H455 H 0.87372 0.9381 0.2956 0.0
C456 C 0.11277 0.86345 0.71462 0.0
C457 C 0.12082 0.82728 0.7013 0.0
C458 C 0.14221 0.88427 0.72944 0.0
C459 C 0.18065 0.86847 0.73105 0.0
C460 C 0.18913 0.83213 0.7174 0.0
C461 C 0.15904 0.81192 0.7026 0.0
C462 C 0.13203 0.92307 0.74359 0.0
C463 C 0.22979 0.81445 0.71873 0.0
C464 C 0.25837 0.94427 0.74927 0.0
C465 C 0.26073 0.94067 0.77982 0.0
C466 C 0.23399 0.91942 0.73281 0.0
C467 C 0.2116 0.89026 0.74729 0.0
C468 C 0.21573 0.88493 0.7779 0.0
C469 C 0.24024 0.9103 0.79384 0.0
C470 C 0.2304 0.926 0.7002 0.0
C471 C 0.19253 0.85394 0.79408 0.0
H472 H 0.08328 0.87547 0.71365 0.0
H473 H 0.16533 0.78391 0.69237 0.0
H474 H 0.13743 0.92145 0.76753 0.0
H475 H 0.15117 0.94665 0.73473 0.0
H476 H 0.10085 0.9315 0.73994 0.0
H477 H 0.23175 0.78632 0.70649 0.0
H478 H 0.25163 0.83529 0.70954 0.0
H479 H 0.23816 0.80902 0.74187 0.0
H480 H 0.2743 0.96761 0.7383 0.0
H481 H 0.24215 0.90727 0.81744 0.0
H482 H 0.2009 0.93819 0.69515 0.0
H483 H 0.23315 0.8978 0.68823 0.0
H484 H 0.25301 0.94672 0.69184 0.0
H485 H 0.16092 0.86203 0.79411 0.0
H486 H 0.20242 0.8506 0.81714 0.0
H487 H 0.19515 0.82515 0.78289 0.0
C488 C 0.85758 0.93692 0.7886 0.0
C489 C 0.81648 0.93942 0.7889 0.0
C490 C 0.87669 0.90745 0.77273 0.0
C491 C 0.8541 0.87963 0.75696 0.0
C492 C 0.81254 0.88078 0.75834 0.0
C493 C 0.79414 0.9109 0.77424 0.0
C494 C 0.92113 0.90726 0.77176 0.0
C495 C 0.78759 0.85125 0.74212 0.0
C496 C 0.91023 0.84195 0.69165 0.0
C497 C 0.92787 0.8082 0.70328 0.0
C498 C 0.88368 0.86405 0.70825 0.0
C499 C 0.87446 0.85189 0.73708 0.0
C500 C 0.88956 0.81602 0.74799 0.0
C501 C 0.91631 0.79458 0.73094 0.0
C502 C 0.8681 0.90209 0.69578 0.0
C503 C 0.87978 0.80178 0.77844 0.0
H504 H 0.87495 0.95879 0.80003 0.0
H505 H 0.76231 0.91263 0.7746 0.0
H506 H 0.93254 0.87796 0.77813 0.0
H507 H 0.93123 0.91319 0.74907 0.0
H508 H 0.93428 0.92966 0.78651 0.0
H509 H 0.75618 0.85279 0.74872 0.0
H510 H 0.78951 0.85689 0.71823 0.0
H511 H 0.79853 0.82101 0.74603 0.0
H512 H 0.91878 0.85237 0.67012 0.0
H513 H 0.92963 0.76826 0.73989 0.0
H514 H 0.88191 0.9272 0.70739 0.0
H515 H 0.83588 0.90427 0.69913 0.0
H516 H 0.8744 0.90504 0.672 0.0
H517 H 0.89606 0.81969 0.79474 0.0
H518 H 0.88797 0.77049 0.78162 0.0
H519 H 0.84793 0.80528 0.78302 0.0
C520 C 0.27961 0.90994 0.21813 0.0
C521 C 0.25825 0.93998 0.2044 0.0
C522 C 0.2602 0.8799 0.23349 0.0
C523 C 0.21865 0.88043 0.23537 0.0
C524 C 0.19701 0.91009 0.22079 0.0
C525 C 0.21709 0.93937 0.20536 0.0
C526 C 0.28411 0.84837 0.24842 0.0
C527 C 0.15264 0.91183 0.22243 0.0
C528 C 0.15345 0.79602 0.25868 0.0
C529 C 0.14303 0.80793 0.28701 0.0
C530 C 0.18066 0.81773 0.24217 0.0
C531 C 0.19743 0.85212 0.25434 0.0
C532 C 0.18921 0.86249 0.28371 0.0
C533 C 0.16215 0.84016 0.29973 0.0
C534 C 0.18924 0.80545 0.21106 0.0
C535 C 0.20651 0.89894 0.2975 0.0
H536 H 0.31147 0.91022 0.21723 0.0
H537 H 0.20046 0.96249 0.19471 0.0
H538 H 0.28208 0.85195 0.27252 0.0
H539 H 0.27227 0.81887 0.24303 0.0
H540 H 0.31562 0.84952 0.24205 0.0
H541 H 0.14022 0.9359 0.20884 0.0
H542 H 0.13971 0.88362 0.21501 0.0
H543 H 0.14336 0.91643 0.24547 0.0
H544 H 0.13895 0.77089 0.24886 0.0
H545 H 0.15449 0.84923 0.32176 0.0
H546 H 0.22115 0.80779 0.20632 0.0
H547 H 0.17364 0.82536 0.19572 0.0
H548 H 0.17946 0.77489 0.20663 0.0
H549 H 0.23873 0.90017 0.29385 0.0
H550 H 0.20079 0.90035 0.32144 0.0
H551 H 0.19347 0.92536 0.28709 0.0
C552 C 0.16863 0.24723 0.70364 0.0
C553 C 0.14024 0.26985 0.71811 0.0
C554 C 0.19408 0.22269 0.71936 0.0
C555 C 0.19127 0.22116 0.75027 0.0
C556 C 0.16479 0.24628 0.76511 0.0
C557 C 0.13933 0.27021 0.7488 0.0
C558 C 0.22181 0.1962 0.70273 0.0
C559 C 0.16149 0.24596 0.79808 0.0
C560 C 0.21336 0.12241 0.78441 0.0
C561 C 0.25218 0.12744 0.79397 0.0
C562 C 0.19313 0.15297 0.77053 0.0
C563 C 0.21201 0.18965 0.76653 0.0
C564 C 0.25083 0.19532 0.7769 0.0
C565 C 0.27066 0.16393 0.79032 0.0
C566 C 0.15186 0.14562 0.75947 0.0
C567 C 0.27154 0.23427 0.77344 0.0
H568 H 0.16956 0.24701 0.6799 0.0
H569 H 0.11764 0.28797 0.76006 0.0
H570 H 0.25179 0.19754 0.71227 0.0
H571 H 0.21153 0.16535 0.70452 0.0
H572 H 0.22357 0.20407 0.67915 0.0
H573 H 0.14423 0.27132 0.80637 0.0
H574 H 0.14671 0.21853 0.80523 0.0
H575 H 0.19108 0.24649 0.80834 0.0
H576 H 0.19903 0.0942 0.78714 0.0
H577 H 0.30064 0.1679 0.79787 0.0
H578 H 0.15084 0.14973 0.73536 0.0
H579 H 0.13121 0.16711 0.76928 0.0
H580 H 0.14129 0.11554 0.76466 0.0
H581 H 0.27599 0.24069 0.74985 0.0
H582 H 0.30062 0.2347 0.78455 0.0
H583 H 0.25314 0.25825 0.78253 0.0
C584 C 0.94072 0.27307 0.25296 0.0
C585 C 0.94473 0.26519 0.28295 0.0
C586 C 0.91461 0.25119 0.2356 0.0
C587 C 0.8925 0.22055 0.24858 0.0
C588 C 0.89488 0.214 0.27914 0.0
C589 C 0.92086 0.23656 0.29599 0.0
C590 C 0.91234 0.25941 0.20315 0.0
C591 C 0.87191 0.18147 0.29378 0.0
C592 C 0.80911 0.16803 0.20947 0.0
C593 C 0.82823 0.13406 0.1996 0.0
C594 C 0.82995 0.19745 0.22447 0.0
C595 C 0.8706 0.19231 0.22997 0.0
C596 C 0.89018 0.15855 0.21931 0.0
C597 C 0.86878 0.12996 0.2041 0.0
C598 C 0.80832 0.23339 0.23514 0.0
C599 C 0.93347 0.15185 0.22493 0.0
H600 H 0.95892 0.29543 0.24285 0.0
H601 H 0.92372 0.23051 0.31921 0.0
H602 H 0.927 0.23536 0.19095 0.0
H603 H 0.88125 0.26041 0.19578 0.0
H604 H 0.92685 0.28757 0.19725 0.0
H605 H 0.87436 0.18252 0.31804 0.0
H606 H 0.84038 0.18318 0.28769 0.0
H607 H 0.88306 0.1526 0.28615 0.0
H608 H 0.77777 0.17137 0.20586 0.0
H609 H 0.88369 0.10375 0.19648 0.0
H610 H 0.82423 0.26043 0.22852 0.0
H611 H 0.80707 0.23315 0.25942 0.0
H612 H 0.77779 0.23482 0.22652 0.0
H613 H 0.95088 0.17718 0.21685 0.0
H614 H 0.94453 0.12475 0.21418 0.0
H615 H 0.93882 0.14939 0.24885 0.0
loop_
_geom_bond_atom_site_label_1
_geom_bond_atom_site_label_2
_geom_bond_distance
_geom_bond_site_symmetry_2
_ccdc_geom_bond_type
In0 O1 2.294 . S
In0 O2 2.326 1_545 S
In0 O6 2.266 . S
In0 O7 2.326 . S
In0 O8 2.266 1_545 S
In0 O9 2.326 . S
In0 O11 2.294 . S
In0 O12 2.326 . S
O1 In0 2.294 . S
O1 C10 1.240 . S
O2 In0 2.326 1_565 S
O2 C10 1.252 1_565 S
C3 O6 1.252 . S
C3 O7 1.260 . S
C4 O11 1.240 . S
C4 O12 1.252 . S
C5 O8 1.252 . S
C5 O9 1.260 1_565 S
O6 In0 2.266 . S
O6 C3 1.252 . S
O7 In0 2.326 . S
O7 C3 1.260 . S
O8 In0 2.266 1_565 S
O8 C5 1.252 . S
O9 In0 2.326 . S
O9 C5 1.260 1_545 S
C10 O1 1.240 . S
C10 O2 1.252 1_545 S
O11 In0 2.294 . S
O11 C4 1.240 . S
O12 In0 2.326 . S
O12 C4 1.252 . S
In13 O14 2.294 . S
In13 O15 2.326 . S
In13 O19 2.266 . S
In13 O20 2.326 . S
In13 O21 2.266 . S
In13 O22 2.326 . S
In13 O24 2.294 . S
In13 O25 2.326 . S
O14 In13 2.294 . S
O14 C23 1.240 . S
O15 In13 2.326 . S
O15 C23 1.252 . S
C16 O19 1.252 . S
C16 O20 1.260 . S
C17 O24 1.240 . S
C17 O25 1.252 . S
C18 O21 1.252 . S
C18 O22 1.260 . S
O19 In13 2.266 . S
O19 C16 1.252 . S
O20 In13 2.326 . S
O20 C16 1.260 . S
O21 In13 2.266 . S
O21 C18 1.252 . S
O22 In13 2.326 . S
O22 C18 1.260 . S
C23 O14 1.240 . S
C23 O15 1.252 . S
O24 In13 2.294 . S
O24 C17 1.240 . S
O25 In13 2.326 . S
O25 C17 1.252 . S
In26 O27 2.294 . S
In26 O28 2.326 . S
In26 O32 2.266 . S
In26 O33 2.326 . S
In26 O34 2.266 . S
In26 O35 2.326 . S
In26 O37 2.294 . S
In26 O38 2.326 . S
O27 In26 2.294 . S
O27 C36 1.240 . S
O28 In26 2.326 . S
O28 C36 1.252 . S
C29 O32 1.252 . S
C29 O33 1.260 . S
C30 O37 1.240 . S
C30 O38 1.252 . S
C31 O34 1.252 . S
C31 O35 1.260 . S
O32 In26 2.266 . S
O32 C29 1.252 . S
O33 In26 2.326 . S
O33 C29 1.260 . S
O34 In26 2.266 . S
O34 C31 1.252 . S
O35 In26 2.326 . S
O35 C31 1.260 . S
C36 O27 1.240 . S
C36 O28 1.252 . S
O37 In26 2.294 . S
O37 C30 1.240 . S
O38 In26 2.326 . S
O38 C30 1.252 . S
In39 O40 2.294 . S
In39 O41 2.326 . S
In39 O45 2.266 1_455 S
In39 O46 2.326 . S
In39 O47 2.266 . S
In39 O48 2.326 . S
In39 O50 2.294 . S
In39 O51 2.326 1_455 S
O40 In39 2.294 . S
O40 C49 1.240 . S
O41 In39 2.326 . S
O41 C49 1.252 . S
C42 O45 1.252 . S
C42 O46 1.260 1_655 S
C43 O50 1.240 . S
C43 O51 1.252 1_455 S
C44 O47 1.252 . S
C44 O48 1.260 . S
O45 In39 2.266 1_655 S
O45 C42 1.252 . S
O46 In39 2.326 . S
O46 C42 1.260 1_455 S
O47 In39 2.266 . S
O47 C44 1.252 . S
O48 In39 2.326 . S
O48 C44 1.260 . S
C49 O40 1.240 . S
C49 O41 1.252 . S
O50 In39 2.294 . S
O50 C43 1.240 . S
O51 In39 2.326 1_655 S
O51 C43 1.252 1_655 S
In52 O53 2.294 . S
In52 O54 2.326 . S
In52 O58 2.266 . S
In52 O59 2.326 . S
In52 O60 2.266 . S
In52 O61 2.326 . S
In52 O63 2.294 . S
In52 O64 2.326 . S
O53 In52 2.294 . S
O53 C62 1.240 . S
O54 In52 2.326 . S
O54 C62 1.252 . S
C55 O58 1.252 . S
C55 O59 1.260 . S
C56 O63 1.240 . S
C56 O64 1.252 . S
C57 O60 1.252 . S
C57 O61 1.260 . S
O58 In52 2.266 . S
O58 C55 1.252 . S
O59 In52 2.326 . S
O59 C55 1.260 . S
O60 In52 2.266 . S
O60 C57 1.252 . S
O61 In52 2.326 . S
O61 C57 1.260 . S
C62 O53 1.240 . S
C62 O54 1.252 . S
O63 In52 2.294 . S
O63 C56 1.240 . S
O64 In52 2.326 . S
O64 C56 1.252 . S
In65 O66 2.294 . S
In65 O67 2.326 1_455 S
In65 O71 2.266 . S
In65 O72 2.326 . S
In65 O73 2.266 1_455 S
In65 O74 2.326 . S
In65 O76 2.294 . S
In65 O77 2.326 . S
O66 In65 2.294 . S
O66 C75 1.240 . S
O67 In65 2.326 1_655 S
O67 C75 1.252 1_655 S
C68 O71 1.252 . S
C68 O72 1.260 . S
C69 O76 1.240 . S
C69 O77 1.252 . S
C70 O73 1.252 . S
C70 O74 1.260 1_655 S
O71 In65 2.266 . S
O71 C68 1.252 . S
O72 In65 2.326 . S
O72 C68 1.260 . S
O73 In65 2.266 1_655 S
O73 C70 1.252 . S
O74 In65 2.326 . S
O74 C70 1.260 1_455 S
C75 O66 1.240 . S
C75 O67 1.252 1_455 S
O76 In65 2.294 . S
O76 C69 1.240 . S
O77 In65 2.326 . S
O77 C69 1.252 . S
In78 O79 2.294 . S
In78 O80 2.326 . S
In78 O84 2.266 1_545 S
In78 O85 2.326 . S
In78 O86 2.266 . S
In78 O87 2.326 . S
In78 O89 2.294 . S
In78 O90 2.326 1_545 S
O79 In78 2.294 . S
O79 C88 1.240 . S
O80 In78 2.326 . S
O80 C88 1.252 . S
C81 O84 1.252 . S
C81 O85 1.260 1_565 S
C82 O89 1.240 . S
C82 O90 1.252 1_545 S
C83 O86 1.252 . S
C83 O87 1.260 . S
O84 In78 2.266 1_565 S
O84 C81 1.252 . S
O85 In78 2.326 . S
O85 C81 1.260 1_545 S
O86 In78 2.266 . S
O86 C83 1.252 . S
O87 In78 2.326 . S
O87 C83 1.260 . S
C88 O79 1.240 . S
C88 O80 1.252 . S
O89 In78 2.294 . S
O89 C82 1.240 . S
O90 In78 2.326 1_565 S
O90 C82 1.252 1_565 S
In91 O92 2.294 . S
In91 O93 2.326 . S
In91 O97 2.266 . S
In91 O98 2.326 . S
In91 O99 2.266 . S
In91 O100 2.326 . S
In91 O102 2.294 . S
In91 O103 2.326 . S
O92 In91 2.294 . S
O92 C101 1.240 . S
O93 In91 2.326 . S
O93 C101 1.252 . S
C94 O97 1.252 . S
C94 O98 1.260 . S
C95 O102 1.240 . S
C95 O103 1.252 . S
C96 O99 1.252 . S
C96 O100 1.260 . S
O97 In91 2.266 . S
O97 C94 1.252 . S
O98 In91 2.326 . S
O98 C94 1.260 . S
O99 In91 2.266 . S
O99 C96 1.252 . S
O100 In91 2.326 . S
O100 C96 1.260 . S
C101 O92 1.240 . S
C101 O93 1.252 . S
O102 In91 2.294 . S
O102 C95 1.240 . S
O103 In91 2.326 . S
O103 C95 1.252 . S
C104 C105 1.391 . S
C104 C106 1.394 . S
C104 H120 0.935 . S
C105 C104 1.391 . S
C105 C109 1.376 . S
C106 C104 1.394 . S
C106 C107 1.369 . S
C106 C110 1.531 1_545 S
C107 C106 1.369 . S
C107 C108 1.410 . S
C107 C115 1.503 1_554 S
C108 C107 1.410 . S
C108 C109 1.392 . S
C108 C111 1.511 . S
C109 C105 1.376 . S
C109 C108 1.392 . S
C109 H121 0.929 . S
C110 C106 1.531 1_565 S
C110 H122 0.960 1_554 S
C110 H123 0.976 . S
C110 H124 0.960 . S
C111 C108 1.511 . S
C111 H125 0.961 . S
C111 H126 0.961 1_554 S
C111 H127 0.961 . S
C112 C113 1.370 . S
C112 C114 1.363 . S
C112 H128 0.931 . S
C113 C112 1.370 . S
C113 C117 1.408 . S
C114 C112 1.363 . S
C114 C115 1.370 . S
C114 C118 1.524 . S
C115 C107 1.503 1_556 S
C115 C114 1.370 . S
C115 C116 1.403 . S
C116 C115 1.403 . S
C116 C117 1.404 . S
C116 C119 1.539 1_545 S
C117 C113 1.408 . S
C117 C116 1.404 . S
C117 H129 0.930 1_545 S
C118 C114 1.524 . S
C118 H130 0.956 . S
C118 H131 0.942 1_556 S
C118 H132 0.961 . S
C119 C116 1.539 1_565 S
C119 H133 0.958 . S
C119 H134 0.961 . S
C119 H135 0.950 1_556 S
H120 C104 0.935 . S
H121 C109 0.929 . S
H122 C110 0.960 1_556 S
H123 C110 0.976 . S
H124 C110 0.960 . S
H125 C111 0.961 . S
H126 C111 0.961 1_556 S
H127 C111 0.961 . S
H128 C112 0.931 . S
H129 C117 0.930 1_565 S
H130 C118 0.956 . S
H131 C118 0.942 1_554 S
H132 C118 0.961 . S
H133 C119 0.958 . S
H134 C119 0.961 . S
H135 C119 0.950 1_554 S
C136 C137 1.391 . S
C136 C138 1.394 . S
C136 H152 0.931 1_455 S
C137 C136 1.391 . S
C137 C141 1.376 . S
C138 C136 1.394 . S
C138 C139 1.369 . S
C138 C142 1.531 1_455 S
C139 C138 1.369 . S
C139 C140 1.410 . S
C139 C147 1.503 . S
C140 C139 1.410 . S
C140 C141 1.392 . S
C140 C143 1.511 . S
C141 C137 1.376 . S
C141 C140 1.392 . S
C141 H153 0.929 . S
C142 C138 1.531 1_655 S
C142 H154 0.960 . S
C142 H155 0.962 . S
C142 H156 0.960 . S
C143 C140 1.511 . S
C143 H157 0.961 . S
C143 H158 0.961 . S
C143 H159 0.961 . S
C144 C145 1.370 . S
C144 C146 1.363 . S
C144 H160 0.931 . S
C145 C144 1.370 . S
C145 C149 1.408 . S
C146 C144 1.363 . S
C146 C147 1.370 . S
C146 C150 1.524 . S
C147 C139 1.503 . S
C147 C146 1.370 . S
C147 C148 1.403 . S
C148 C147 1.403 . S
C148 C149 1.404 . S
C148 C151 1.539 . S
C149 C145 1.408 . S
C149 C148 1.404 . S
C149 H161 0.930 . S
C150 C146 1.524 . S
C150 H162 0.956 1_455 S
C150 H163 0.961 . S
C150 H164 0.961 . S
C151 C148 1.539 . S
C151 H165 0.958 . S
C151 H166 0.961 . S
C151 H167 0.960 . S
H152 C136 0.931 1_655 S
H153 C141 0.929 . S
H154 C142 0.960 . S
H155 C142 0.962 . S
H156 C142 0.960 . S
H157 C143 0.961 . S
H158 C143 0.961 . S
H159 C143 0.961 . S
H160 C144 0.931 . S
H161 C149 0.930 . S
H162 C150 0.956 1_655 S
H163 C150 0.961 . S
H164 C150 0.961 . S
H165 C151 0.958 . S
H166 C151 0.961 . S
H167 C151 0.960 . S
C168 C169 1.391 . S
C168 C170 1.394 . S
C168 H184 0.931 1_545 S
C169 C168 1.391 . S
C169 C173 1.376 . S
C170 C168 1.394 . S
C170 C171 1.369 . S
C170 C174 1.531 1_545 S
C171 C170 1.369 . S
C171 C172 1.410 . S
C171 C179 1.503 1_556 S
C172 C171 1.410 . S
C172 C173 1.392 . S
C172 C175 1.511 . S
C173 C169 1.376 . S
C173 C172 1.392 . S
C173 H185 0.929 . S
C174 C170 1.531 1_565 S
C174 H186 0.960 1_556 S
C174 H187 0.962 . S
C174 H188 0.960 . S
C175 C172 1.511 . S
C175 H189 0.961 . S
C175 H190 0.961 1_556 S
C175 H191 0.961 . S
C176 C177 1.370 . S
C176 C178 1.363 . S
C176 H192 0.931 . S
C177 C176 1.370 . S
C177 C181 1.408 . S
C178 C176 1.363 . S
C178 C179 1.370 . S
C178 C182 1.524 . S
C179 C171 1.503 1_554 S
C179 C178 1.370 . S
C179 C180 1.403 . S
C180 C179 1.403 . S
C180 C181 1.404 . S
C180 C183 1.539 . S
C181 C177 1.408 . S
C181 C180 1.404 . S
C181 H193 0.930 . S
C182 C178 1.524 . S
C182 H194 0.975 . S
C182 H195 0.961 1_554 S
C182 H196 0.961 . S
C183 C180 1.539 . S
C183 H197 0.958 . S
C183 H198 0.961 . S
C183 H199 0.984 . S
H184 C168 0.931 1_565 S
H185 C173 0.929 . S
H186 C174 0.960 1_554 S
H187 C174 0.962 . S
H188 C174 0.960 . S
H189 C175 0.961 . S
H190 C175 0.961 1_554 S
H191 C175 0.961 . S
H192 C176 0.931 . S
H193 C181 0.930 . S
H194 C182 0.975 . S
H195 C182 0.961 1_556 S
H196 C182 0.961 . S
H197 C183 0.958 . S
H198 C183 0.961 . S
H199 C183 0.984 . S
C200 C201 1.391 . S
C200 C202 1.394 . S
C200 H216 0.931 . S
C201 C200 1.391 . S
C201 C205 1.376 . S
C202 C200 1.394 . S
C202 C203 1.369 . S
C202 C206 1.531 . S
C203 C202 1.369 . S
C203 C204 1.410 . S
C203 C211 1.503 . S
C204 C203 1.410 . S
C204 C205 1.392 . S
C204 C207 1.511 1_455 S
C205 C201 1.376 . S
C205 C204 1.392 . S
C205 H217 0.929 1_455 S
C206 C202 1.531 . S
C206 H218 0.960 . S
C206 H219 0.962 . S
C206 H220 0.960 . S
C207 C204 1.511 1_655 S
C207 H221 0.961 . S
C207 H222 0.961 . S
C207 H223 0.953 1_655 S
C208 C209 1.370 . S
C208 C210 1.363 . S
C208 H224 0.931 . S
C209 C208 1.370 . S
C209 C213 1.408 . S
C210 C208 1.363 . S
C210 C211 1.370 . S
C210 C214 1.541 . S
C211 C203 1.503 . S
C211 C210 1.370 . S
C211 C212 1.403 . S
C212 C211 1.403 . S
C212 C213 1.404 . S
C212 C215 1.539 . S
C213 C209 1.408 . S
C213 C212 1.404 . S
C213 H225 0.930 . S
C214 C210 1.541 . S
C214 H226 0.975 . S
C214 H227 0.943 1_455 S
C214 H228 0.944 1_455 S
C215 C212 1.539 . S
C215 H229 0.958 . S
C215 H230 0.961 . S
C215 H231 0.960 . S
H216 C200 0.931 . S
H217 C205 0.929 1_655 S
H218 C206 0.960 . S
H219 C206 0.962 . S
H220 C206 0.960 . S
H221 C207 0.961 . S
H222 C207 0.961 . S
H223 C207 0.953 1_455 S
H224 C208 0.931 . S
H225 C213 0.930 . S
H226 C214 0.975 . S
H227 C214 0.943 1_655 S
H228 C214 0.944 1_655 S
H229 C215 0.958 . S
H230 C215 0.961 . S
H231 C215 0.960 . S
C232 C233 1.391 1_565 S
C232 C234 1.394 1_565 S
C232 H248 0.931 . S
C233 C232 1.391 1_545 S
C233 C237 1.376 . S
C234 C232 1.394 1_545 S
C234 C235 1.369 . S
C234 C238 1.531 1_545 S
C235 C234 1.369 . S
C235 C236 1.410 . S
C235 C243 1.503 . S
C236 C235 1.410 . S
C236 C237 1.392 . S
C236 C239 1.511 . S
C237 C233 1.376 . S
C237 C236 1.392 . S
C237 H249 0.929 . S
C238 C234 1.531 1_565 S
C238 H250 0.960 . S
C238 H251 0.962 . S
C238 H252 0.960 . S
C239 C236 1.511 . S
C239 H253 0.961 . S
C239 H254 0.961 . S
C239 H255 0.961 . S
C240 C241 1.370 . S
C240 C242 1.363 . S
C240 H256 0.931 . S
C241 C240 1.370 . S
C241 C245 1.408 . S
C242 C240 1.363 . S
C242 C243 1.370 . S
C242 C246 1.524 . S
C243 C235 1.503 . S
C243 C242 1.370 . S
C243 C244 1.403 . S
C244 C243 1.403 . S
C244 C245 1.404 . S
C244 C247 1.539 . S
C245 C241 1.408 . S
C245 C244 1.404 . S
C245 H257 0.930 . S
C246 C242 1.524 . S
C246 H258 0.956 1_545 S
C246 H259 0.961 . S
C246 H260 0.961 . S
C247 C244 1.539 . S
C247 H261 0.958 . S
C247 H262 0.961 . S
C247 H263 0.960 . S
H248 C232 0.931 . S
H249 C237 0.929 . S
H250 C238 0.960 . S
H251 C238 0.962 . S
H252 C238 0.960 . S
H253 C239 0.961 . S
H254 C239 0.961 . S
H255 C239 0.961 . S
H256 C240 0.931 . S
H257 C245 0.930 . S
H258 C246 0.956 1_565 S
H259 C246 0.961 . S
H260 C246 0.961 . S
H261 C247 0.958 . S
H262 C247 0.961 . S
H263 C247 0.960 . S
C264 C265 1.391 . S
C264 C266 1.394 . S
C264 H280 0.931 . S
C265 C264 1.391 . S
C265 C269 1.376 . S
C266 C264 1.394 . S
C266 C267 1.369 . S
C266 C270 1.531 1_455 S
C267 C266 1.369 . S
C267 C268 1.410 . S
C267 C275 1.503 . S
C268 C267 1.410 . S
C268 C269 1.392 . S
C268 C271 1.511 . S
C269 C265 1.376 . S
C269 C268 1.392 . S
C269 H281 0.929 . S
C270 C266 1.531 1_655 S
C270 H282 0.960 . S
C270 H283 0.962 . S
C270 H284 0.960 . S
C271 C268 1.511 . S
C271 H285 0.961 . S
C271 H286 0.961 . S
C271 H287 0.961 . S
C272 C273 1.370 . S
C272 C274 1.363 . S
C272 H288 0.931 . S
C273 C272 1.370 . S
C273 C277 1.408 . S
C274 C272 1.363 . S
C274 C275 1.370 . S
C274 C278 1.524 . S
C275 C267 1.503 . S
C275 C274 1.370 . S
C275 C276 1.403 . S
C276 C275 1.403 . S
C276 C277 1.404 . S
C276 C279 1.539 . S
C277 C273 1.408 . S
C277 C276 1.404 . S
C277 H289 0.930 . S
C278 C274 1.524 . S
C278 H290 0.956 . S
C278 H291 0.961 . S
C278 H292 0.961 . S
C279 C276 1.539 . S
C279 H293 0.958 . S
C279 H294 0.961 . S
C279 H295 0.960 . S
H280 C264 0.931 . S
H281 C269 0.929 . S
H282 C270 0.960 . S
H283 C270 0.962 . S
H284 C270 0.960 . S
H285 C271 0.961 . S
H286 C271 0.961 . S
H287 C271 0.961 . S
H288 C272 0.931 . S
H289 C277 0.930 . S
H290 C278 0.956 . S
H291 C278 0.961 . S
H292 C278 0.961 . S
H293 C279 0.958 . S
H294 C279 0.961 . S
H295 C279 0.960 . S
C296 C297 1.391 . S
C296 C298 1.394 . S
C296 H312 0.931 . S
C297 C296 1.391 . S
C297 C301 1.376 . S
C298 C296 1.394 . S
C298 C299 1.369 . S
C298 C302 1.531 . S
C299 C298 1.369 . S
C299 C300 1.410 . S
C299 C307 1.503 . S
C300 C299 1.410 . S
C300 C301 1.392 . S
C300 C303 1.511 . S
C301 C297 1.376 . S
C301 C300 1.392 . S
C301 H313 0.929 . S
C302 C298 1.531 . S
C302 H314 0.960 . S
C302 H315 0.962 . S
C302 H316 0.960 . S
C303 C300 1.511 . S
C303 H317 0.961 . S
C303 H318 0.961 . S
C303 H319 0.961 . S
C304 C305 1.370 . S
C304 C306 1.363 . S
C304 H320 0.931 . S
C305 C304 1.370 . S
C305 C309 1.408 . S
C306 C304 1.363 . S
C306 C307 1.370 . S
C306 C310 1.524 1_545 S
C307 C299 1.503 . S
C307 C306 1.370 . S
C307 C308 1.403 . S
C308 C307 1.403 . S
C308 C309 1.404 . S
C308 C311 1.539 . S
C309 C305 1.408 . S
C309 C308 1.404 . S
C309 H321 0.930 . S
C310 C306 1.524 1_565 S
C310 H322 0.956 . S
C310 H323 0.961 . S
C310 H324 0.961 . S
C311 C308 1.539 . S
C311 H325 0.958 . S
C311 H326 0.961 . S
C311 H327 0.960 . S
H312 C296 0.931 . S
H313 C301 0.929 . S
H314 C302 0.960 . S
H315 C302 0.962 . S
H316 C302 0.960 . S
H317 C303 0.961 . S
H318 C303 0.961 . S
H319 C303 0.961 . S
H320 C304 0.931 . S
H321 C309 0.930 . S
H322 C310 0.956 . S
H323 C310 0.961 . S
H324 C310 0.961 . S
H325 C311 0.958 . S
H326 C311 0.961 . S
H327 C311 0.960 . S
C328 C329 1.391 . S
C328 C330 1.394 . S
C328 H344 0.931 . S
C329 C328 1.391 . S
C329 C333 1.376 . S
C330 C328 1.394 . S
C330 C331 1.369 . S
C330 C334 1.531 . S
C331 C330 1.369 . S
C331 C332 1.410 . S
C331 C339 1.503 . S
C332 C331 1.410 . S
C332 C333 1.392 . S
C332 C335 1.511 1_455 S
C333 C329 1.376 . S
C333 C332 1.392 . S
C333 H345 0.929 1_455 S
C334 C330 1.531 . S
C334 H346 0.960 . S
C334 H347 0.962 . S
C334 H348 0.960 . S
C335 C332 1.511 1_655 S
C335 H349 0.961 . S
C335 H350 0.961 1_655 S
C335 H351 0.961 . S
C336 C337 1.370 . S
C336 C338 1.363 . S
C336 H352 0.931 . S
C337 C336 1.370 . S
C337 C341 1.408 . S
C338 C336 1.363 . S
C338 C339 1.370 . S
C338 C342 1.524 . S
C339 C331 1.503 . S
C339 C338 1.370 . S
C339 C340 1.403 . S
C340 C339 1.403 . S
C340 C341 1.404 . S
C340 C343 1.539 1_455 S
C341 C337 1.408 . S
C341 C340 1.404 . S
C341 H353 0.930 . S
C342 C338 1.524 . S
C342 H354 0.956 . S
C342 H355 0.961 . S
C342 H356 0.961 . S
C343 C340 1.539 1_655 S
C343 H357 0.958 . S
C343 H358 0.961 . S
C343 H359 0.960 . S
H344 C328 0.931 . S
H345 C333 0.929 1_655 S
H346 C334 0.960 . S
H347 C334 0.962 . S
H348 C334 0.960 . S
H349 C335 0.961 . S
H350 C335 0.961 1_455 S
H351 C335 0.961 . S
H352 C336 0.931 . S
H353 C341 0.930 . S
H354 C342 0.956 . S
H355 C342 0.961 . S
H356 C342 0.961 . S
H357 C343 0.958 . S
H358 C343 0.961 . S
H359 C343 0.960 . S
C360 C361 1.391 . S
C360 C362 1.394 . S
C360 H376 0.931 . S
C361 C360 1.391 . S
C361 C365 1.376 . S
C362 C360 1.394 . S
C362 C363 1.369 . S
C362 C366 1.531 . S
C363 C362 1.369 . S
C363 C364 1.410 . S
C363 C371 1.503 . S
C364 C363 1.410 . S
C364 C365 1.392 . S
C364 C367 1.511 . S
C365 C361 1.376 . S
C365 C364 1.392 . S
C365 H377 0.929 . S
C366 C362 1.531 . S
C366 H378 0.960 . S
C366 H379 0.962 . S
C366 H380 0.960 . S
C367 C364 1.511 . S
C367 H381 0.961 . S
C367 H382 0.961 . S
C367 H383 0.961 . S
C368 C369 1.370 . S
C368 C370 1.363 . S
C368 H384 0.931 . S
C369 C368 1.370 . S
C369 C373 1.408 . S
C370 C368 1.363 . S
C370 C371 1.370 . S
C370 C374 1.524 . S
C371 C363 1.503 . S
C371 C370 1.370 . S
C371 C372 1.403 . S
C372 C371 1.403 . S
C372 C373 1.404 . S
C372 C375 1.539 . S
C373 C369 1.408 . S
C373 C372 1.404 . S
C373 H385 0.930 . S
C374 C370 1.524 . S
C374 H386 0.956 . S
C374 H387 0.961 . S
C374 H388 0.961 . S
C375 C372 1.539 . S
C375 H389 0.958 . S
C375 H390 0.961 . S
C375 H391 0.960 . S
H376 C360 0.931 . S
H377 C365 0.929 . S
H378 C366 0.960 . S
H379 C366 0.962 . S
H380 C366 0.960 . S
H381 C367 0.961 . S
H382 C367 0.961 . S
H383 C367 0.961 . S
H384 C368 0.931 . S
H385 C373 0.930 . S
H386 C374 0.956 . S
H387 C374 0.961 . S
H388 C374 0.961 . S
H389 C375 0.958 . S
H390 C375 0.961 . S
H391 C375 0.960 . S
C392 C393 1.391 . S
C392 C394 1.394 . S
C392 H408 0.931 . S
C393 C392 1.391 . S
C393 C397 1.376 . S
C394 C392 1.394 . S
C394 C395 1.369 . S
C394 C398 1.531 . S
C395 C394 1.369 . S
C395 C396 1.410 . S
C395 C403 1.503 . S
C396 C395 1.410 . S
C396 C397 1.392 . S
C396 C399 1.511 . S
C397 C393 1.376 . S
C397 C396 1.392 . S
C397 H409 0.929 1_655 S
C398 C394 1.531 . S
C398 H410 0.960 . S
C398 H411 0.962 . S
C398 H412 0.960 . S
C399 C396 1.511 . S
C399 H413 0.961 1_655 S
C399 H414 0.961 . S
C399 H415 0.961 . S
C400 C401 1.370 . S
C400 C402 1.363 . S
C400 H416 0.931 . S
C401 C400 1.370 . S
C401 C405 1.408 . S
C402 C400 1.363 . S
C402 C403 1.370 . S
C402 C406 1.524 . S
C403 C395 1.503 . S
C403 C402 1.370 . S
C403 C404 1.403 . S
C404 C403 1.403 . S
C404 C405 1.404 . S
C404 C407 1.539 . S
C405 C401 1.408 . S
C405 C404 1.404 . S
C405 H417 0.930 . S
C406 C402 1.524 . S
C406 H418 0.956 . S
C406 H419 0.961 . S
C406 H420 0.961 . S
C407 C404 1.539 . S
C407 H421 0.958 . S
C407 H422 0.961 . S
C407 H423 0.960 . S
H408 C392 0.931 . S
H409 C397 0.929 1_455 S
H410 C398 0.960 . S
H411 C398 0.962 . S
H412 C398 0.960 . S
H413 C399 0.961 1_455 S
H414 C399 0.961 . S
H415 C399 0.961 . S
H416 C400 0.931 . S
H417 C405 0.930 . S
H418 C406 0.956 . S
H419 C406 0.961 . S
H420 C406 0.961 . S
H421 C407 0.958 . S
H422 C407 0.961 . S
H423 C407 0.960 . S
C424 C425 1.391 . S
C424 C426 1.394 . S
C424 H440 0.931 . S
C425 C424 1.391 . S
C425 C429 1.376 . S
C426 C424 1.394 . S
C426 C427 1.369 . S
C426 C430 1.531 . S
C427 C426 1.369 . S
C427 C428 1.410 . S
C427 C435 1.503 . S
C428 C427 1.410 . S
C428 C429 1.392 . S
C428 C431 1.511 . S
C429 C425 1.376 . S
C429 C428 1.392 . S
C429 H441 0.929 1_655 S
C430 C426 1.531 . S
C430 H442 0.960 . S
C430 H443 0.962 . S
C430 H444 0.960 . S
C431 C428 1.511 . S
C431 H445 0.961 1_655 S
C431 H446 0.961 . S
C431 H447 0.961 . S
C432 C433 1.370 . S
C432 C434 1.363 . S
C432 H448 0.931 . S
C433 C432 1.370 . S
C433 C437 1.408 . S
C434 C432 1.363 . S
C434 C435 1.370 . S
C434 C438 1.524 . S
C435 C427 1.503 . S
C435 C434 1.370 . S
C435 C436 1.403 . S
C436 C435 1.403 . S
C436 C437 1.404 . S
C436 C439 1.539 . S
C437 C433 1.408 . S
C437 C436 1.404 . S
C437 H449 0.930 . S
C438 C434 1.524 . S
C438 H450 0.956 . S
C438 H451 0.961 . S
C438 H452 0.961 . S
C439 C436 1.539 . S
C439 H453 0.958 . S
C439 H454 0.961 . S
C439 H455 0.960 . S
H440 C424 0.931 . S
H441 C429 0.929 1_455 S
H442 C430 0.960 . S
H443 C430 0.962 . S
H444 C430 0.960 . S
H445 C431 0.961 1_455 S
H446 C431 0.961 . S
H447 C431 0.961 . S
H448 C432 0.931 . S
H449 C437 0.930 . S
H450 C438 0.956 . S
H451 C438 0.961 . S
H452 C438 0.961 . S
H453 C439 0.958 . S
H454 C439 0.961 . S
H455 C439 0.960 . S
C456 C457 1.391 . S
C456 C458 1.394 . S
C456 H472 0.931 . S
C457 C456 1.391 . S
C457 C461 1.376 . S
C458 C456 1.394 . S
C458 C459 1.369 . S
C458 C462 1.531 . S
C459 C458 1.369 . S
C459 C460 1.410 . S
C459 C467 1.503 . S
C460 C459 1.410 . S
C460 C461 1.392 . S
C460 C463 1.511 . S
C461 C457 1.376 . S
C461 C460 1.392 . S
C461 H473 0.929 . S
C462 C458 1.531 . S
C462 H474 0.960 . S
C462 H475 0.962 . S
C462 H476 0.960 . S
C463 C460 1.511 . S
C463 H477 0.961 . S
C463 H478 0.961 . S
C463 H479 0.961 . S
C464 C465 1.370 . S
C464 C466 1.363 . S
C464 H480 0.931 . S
C465 C464 1.370 . S
C465 C469 1.408 . S
C466 C464 1.363 . S
C466 C467 1.370 . S
C466 C470 1.524 . S
C467 C459 1.503 . S
C467 C466 1.370 . S
C467 C468 1.403 . S
C468 C467 1.403 . S
C468 C469 1.404 . S
C468 C471 1.539 . S
C469 C465 1.408 . S
C469 C468 1.404 . S
C469 H481 0.930 . S
C470 C466 1.524 . S
C470 H482 0.956 . S
C470 H483 0.961 . S
C470 H484 0.961 . S
C471 C468 1.539 . S
C471 H485 0.958 . S
C471 H486 0.961 . S
C471 H487 0.960 . S
H472 C456 0.931 . S
H473 C461 0.929 . S
H474 C462 0.960 . S
H475 C462 0.962 . S
H476 C462 0.960 . S
H477 C463 0.961 . S
H478 C463 0.961 . S
H479 C463 0.961 . S
H480 C464 0.931 . S
H481 C469 0.930 . S
H482 C470 0.956 . S
H483 C470 0.961 . S
H484 C470 0.961 . S
H485 C471 0.958 . S
H486 C471 0.961 . S
H487 C471 0.960 . S
C488 C489 1.391 . S
C488 C490 1.394 . S
C488 H504 0.931 . S
C489 C488 1.391 . S
C489 C493 1.376 . S
C490 C488 1.394 . S
C490 C491 1.369 . S
C490 C494 1.531 . S
C491 C490 1.369 . S
C491 C492 1.410 . S
C491 C499 1.503 . S
C492 C491 1.410 . S
C492 C493 1.392 . S
C492 C495 1.511 . S
C493 C489 1.376 . S
C493 C492 1.392 . S
C493 H505 0.929 . S
C494 C490 1.531 . S
C494 H506 0.960 . S
C494 H507 0.962 . S
C494 H508 0.960 . S
C495 C492 1.511 . S
C495 H509 0.961 . S
C495 H510 0.961 . S
C495 H511 0.961 . S
C496 C497 1.370 . S
C496 C498 1.363 . S
C496 H512 0.931 . S
C497 C496 1.370 . S
C497 C501 1.408 . S
C498 C496 1.363 . S
C498 C499 1.370 . S
C498 C502 1.524 . S
C499 C491 1.503 . S
C499 C498 1.370 . S
C499 C500 1.403 . S
C500 C499 1.403 . S
C500 C501 1.404 . S
C500 C503 1.539 . S
C501 C497 1.408 . S
C501 C500 1.404 . S
C501 H513 0.930 . S
C502 C498 1.524 . S
C502 H514 0.956 . S
C502 H515 0.961 . S
C502 H516 0.961 . S
C503 C500 1.539 . S
C503 H517 0.958 . S
C503 H518 0.961 . S
C503 H519 0.960 . S
H504 C488 0.931 . S
H505 C493 0.929 . S
H506 C494 0.960 . S
H507 C494 0.962 . S
H508 C494 0.960 . S
H509 C495 0.961 . S
H510 C495 0.961 . S
H511 C495 0.961 . S
H512 C496 0.931 . S
H513 C501 0.930 . S
H514 C502 0.956 . S
H515 C502 0.961 . S
H516 C502 0.961 . S
H517 C503 0.958 . S
H518 C503 0.961 . S
H519 C503 0.960 . S
C520 C521 1.391 . S
C520 C522 1.394 . S
C520 H536 0.931 . S
C521 C520 1.391 . S
C521 C525 1.376 . S
C522 C520 1.394 . S
C522 C523 1.369 . S
C522 C526 1.531 . S
C523 C522 1.369 . S
C523 C524 1.410 . S
C523 C531 1.503 . S
C524 C523 1.410 . S
C524 C525 1.392 . S
C524 C527 1.511 . S
C525 C521 1.376 . S
C525 C524 1.392 . S
C525 H537 0.929 . S
C526 C522 1.531 . S
C526 H538 0.960 . S
C526 H539 0.962 . S
C526 H540 0.960 . S
C527 C524 1.511 . S
C527 H541 0.961 . S
C527 H542 0.961 . S
C527 H543 0.961 . S
C528 C529 1.370 . S
C528 C530 1.363 . S
C528 H544 0.931 . S
C529 C528 1.370 . S
C529 C533 1.408 . S
C530 C528 1.363 . S
C530 C531 1.370 . S
C530 C534 1.524 . S
C531 C523 1.503 . S
C531 C530 1.370 . S
C531 C532 1.403 . S
C532 C531 1.403 . S
C532 C533 1.404 . S
C532 C535 1.539 . S
C533 C529 1.408 . S
C533 C532 1.404 . S
C533 H545 0.930 . S
C534 C530 1.524 . S
C534 H546 0.956 . S
C534 H547 0.961 . S
C534 H548 0.961 . S
C535 C532 1.539 . S
C535 H549 0.958 . S
C535 H550 0.961 . S
C535 H551 0.960 . S
H536 C520 0.931 . S
H537 C525 0.929 . S
H538 C526 0.960 . S
H539 C526 0.962 . S
H540 C526 0.960 . S
H541 C527 0.961 . S
H542 C527 0.961 . S
H543 C527 0.961 . S
H544 C528 0.931 . S
H545 C533 0.930 . S
H546 C534 0.956 . S
H547 C534 0.961 . S
H548 C534 0.961 . S
H549 C535 0.958 . S
H550 C535 0.961 . S
H551 C535 0.960 . S
C552 C553 1.391 . S
C552 C554 1.394 . S
C552 H568 0.931 . S
C553 C552 1.391 . S
C553 C557 1.376 . S
C554 C552 1.394 . S
C554 C555 1.369 . S
C554 C558 1.531 . S
C555 C554 1.369 . S
C555 C556 1.410 . S
C555 C563 1.503 . S
C556 C555 1.410 . S
C556 C557 1.392 . S
C556 C559 1.511 . S
C557 C553 1.376 . S
C557 C556 1.392 . S
C557 H569 0.929 . S
C558 C554 1.531 . S
C558 H570 0.960 . S
C558 H571 0.962 . S
C558 H572 0.960 . S
C559 C556 1.511 . S
C559 H573 0.961 . S
C559 H574 0.961 . S
C559 H575 0.961 . S
C560 C561 1.370 . S
C560 C562 1.363 . S
C560 H576 0.931 . S
C561 C560 1.370 . S
C561 C565 1.408 . S
C562 C560 1.363 . S
C562 C563 1.370 . S
C562 C566 1.524 . S
C563 C555 1.503 . S
C563 C562 1.370 . S
C563 C564 1.403 . S
C564 C563 1.403 . S
C564 C565 1.404 . S
C564 C567 1.539 . S
C565 C561 1.408 . S
C565 C564 1.404 . S
C565 H577 0.930 . S
C566 C562 1.524 . S
C566 H578 0.956 . S
C566 H579 0.961 . S
C566 H580 0.961 . S
C567 C564 1.539 . S
C567 H581 0.958 . S
C567 H582 0.961 . S
C567 H583 0.960 . S
H568 C552 0.931 . S
H569 C557 0.929 . S
H570 C558 0.960 . S
H571 C558 0.962 . S
H572 C558 0.960 . S
H573 C559 0.961 . S
H574 C559 0.961 . S
H575 C559 0.961 . S
H576 C560 0.931 . S
H577 C565 0.930 . S
H578 C566 0.956 . S
H579 C566 0.961 . S
H580 C566 0.961 . S
H581 C567 0.958 . S
H582 C567 0.961 . S
H583 C567 0.960 . S
C584 C585 1.391 . S
C584 C586 1.394 . S
C584 H600 0.931 . S
C585 C584 1.391 . S
C585 C589 1.376 . S
C586 C584 1.394 . S
C586 C587 1.369 . S
C586 C590 1.531 . S
C587 C586 1.369 . S
C587 C588 1.410 . S
C587 C595 1.503 . S
C588 C587 1.410 . S
C588 C589 1.392 . S
C588 C591 1.511 . S
C589 C585 1.376 . S
C589 C588 1.392 . S
C589 H601 0.929 . S
C590 C586 1.531 . S
C590 H602 0.960 . S
C590 H603 0.962 . S
C590 H604 0.960 . S
C591 C588 1.511 . S
C591 H605 0.961 . S
C591 H606 0.961 . S
C591 H607 0.961 . S
C592 C593 1.370 . S
C592 C594 1.363 . S
C592 H608 0.931 . S
C593 C592 1.370 . S
C593 C597 1.408 . S
C594 C592 1.363 . S
C594 C595 1.370 . S
C594 C598 1.524 . S
C595 C587 1.503 . S
C595 C594 1.370 . S
C595 C596 1.403 . S
C596 C595 1.403 . S
C596 C597 1.404 . S
C596 C599 1.539 . S
C597 C593 1.408 . S
C597 C596 1.404 . S
C597 H609 0.930 . S
C598 C594 1.524 . S
C598 H610 0.956 . S
C598 H611 0.961 . S
C598 H612 0.961 . S
C599 C596 1.539 . S
C599 H613 0.958 . S
C599 H614 0.961 . S
C599 H615 0.960 . S
H600 C584 0.931 . S
H601 C589 0.929 . S
H602 C590 0.960 . S
H603 C590 0.962 . S
H604 C590 0.960 . S
H605 C591 0.961 . S
H606 C591 0.961 . S
H607 C591 0.961 . S
H608 C592 0.931 . S
H609 C597 0.930 . S
H610 C598 0.956 . S
H611 C598 0.961 . S
H612 C598 0.961 . S
H613 C599 0.958 . S
H614 C599 0.961 . S
H615 C599 0.960 . S
C105 C4 1.601 . S
C113 C62 1.616 . S
C137 C17 1.605 . S
C145 C69 1.616 . S
C169 C88 1.610 . S
C177 C30 1.612 . S
C201 C101 1.603 . S
C209 C49 1.615 . S
C233 C10 1.396 . S
C241 C36 1.414 . S
C265 C23 1.418 . S
C273 C43 1.410 . S
C297 C82 1.387 . S
C305 C56 1.419 . S
C329 C75 1.427 . S
C337 C95 1.405 . S
C361 C68 1.652 . S
C369 C3 1.644 . S
C393 C16 1.648 1_655 S
C401 C83 1.645 . S
C425 C96 1.652 1_655 S
C433 C29 1.643 1_565 S
C457 C44 1.635 . S
C465 C57 1.651 1_565 S
C489 C81 1.206 . S
C497 C42 1.212 . S
C521 C5 1.222 . S
C529 C94 1.200 . S
C553 C18 1.220 . S
C561 C55 1.206 . S
C585 C70 1.185 . S
C593 C31 1.197 . S
