# Generated by pormake.
# Topology uoz, (4)-cn, num edge types: 1
# Building blocks:
#     Node 0, Type 0, BuildingBlock: GALJAG_clean_sbu_0, # of connection points: 4
#     Node 1, Type 0, BuildingBlock: GALJAG_clean_sbu_0, # of connection points: 4
#     Node 2, Type 0, BuildingBlock: GALJAG_clean_sbu_0, # of connection points: 4
#     Node 3, Type 0, BuildingBlock: GALJAG_clean_sbu_0, # of connection points: 4
#     Node 4, Type 0, BuildingBlock: GALJAG_clean_sbu_0, # of connection points: 4
#     Node 5, Type 0, BuildingBlock: GALJAG_clean_sbu_0, # of connection points: 4
#     Node 6, Type 0, BuildingBlock: GALJAG_clean_sbu_0, # of connection points: 4
#     Node 7, Type 0, BuildingBlock: GALJAG_clean_sbu_0, # of connection points: 4
#     Node 8, Type 0, BuildingBlock: GALJAG_clean_sbu_0, # of connection points: 4
#     Node 9, Type 0, BuildingBlock: GALJAG_clean_sbu_0, # of connection points: 4
#     Node 10, Type 0, BuildingBlock: GALJAG_clean_sbu_0, # of connection points: 4
#     Node 11, Type 0, BuildingBlock: GALJAG_clean_sbu_0, # of connection points: 4
#     Node 12, Type 0, BuildingBlock: GALJAG_clean_sbu_0, # of connection points: 4
#     Node 13, Type 0, BuildingBlock: GALJAG_clean_sbu_0, # of connection points: 4
#     Node 14, Type 0, BuildingBlock: GALJAG_clean_sbu_0, # of connection points: 4
#     Node 15, Type 0, BuildingBlock: GALJAG_clean_sbu_0, # of connection points: 4
#     Edge 16, Type (0, 0), BuildingBlock: EZIPEK_clean_linker_0, # of connection points: 2
#     Edge 17, Type (0, 0), BuildingBlock: EZIPEK_clean_linker_0, # of connection points: 2
#     Edge 18, Type (0, 0), BuildingBlock: EZIPEK_clean_linker_0, # of connection points: 2
#     Edge 19, Type (0, 0), BuildingBlock: EZIPEK_clean_linker_0, # of connection points: 2
#     Edge 20, Type (0, 0), BuildingBlock: EZIPEK_clean_linker_0, # of connection points: 2
#     Edge 21, Type (0, 0), BuildingBlock: EZIPEK_clean_linker_0, # of connection points: 2
#     Edge 22, Type (0, 0), BuildingBlock: EZIPEK_clean_linker_0, # of connection points: 2
#     Edge 23, Type (0, 0), BuildingBlock: EZIPEK_clean_linker_0, # of connection points: 2
#     Edge 24, Type (0, 0), BuildingBlock: EZIPEK_clean_linker_0, # of connection points: 2
#     Edge 25, Type (0, 0), BuildingBlock: EZIPEK_clean_linker_0, # of connection points: 2
#     Edge 26, Type (0, 0), BuildingBlock: EZIPEK_clean_linker_0, # of connection points: 2
#     Edge 27, Type (0, 0), BuildingBlock: EZIPEK_clean_linker_0, # of connection points: 2
#     Edge 28, Type (0, 0), BuildingBlock: EZIPEK_clean_linker_0, # of connection points: 2
#     Edge 29, Type (0, 0), BuildingBlock: EZIPEK_clean_linker_0, # of connection points: 2
#     Edge 30, Type (0, 0), BuildingBlock: EZIPEK_clean_linker_0, # of connection points: 2
#     Edge 31, Type (0, 0), BuildingBlock: EZIPEK_clean_linker_0, # of connection points: 2
#     Edge 32, Type (0, 0), BuildingBlock: EZIPEK_clean_linker_0, # of connection points: 2
#     Edge 33, Type (0, 0), BuildingBlock: EZIPEK_clean_linker_0, # of connection points: 2
#     Edge 34, Type (0, 0), BuildingBlock: EZIPEK_clean_linker_0, # of connection points: 2
#     Edge 35, Type (0, 0), BuildingBlock: EZIPEK_clean_linker_0, # of connection points: 2
#     Edge 36, Type (0, 0), BuildingBlock: EZIPEK_clean_linker_0, # of connection points: 2
#     Edge 37, Type (0, 0), BuildingBlock: EZIPEK_clean_linker_0, # of connection points: 2
#     Edge 38, Type (0, 0), BuildingBlock: EZIPEK_clean_linker_0, # of connection points: 2
#     Edge 39, Type (0, 0), BuildingBlock: EZIPEK_clean_linker_0, # of connection points: 2
#     Edge 40, Type (0, 0), BuildingBlock: EZIPEK_clean_linker_0, # of connection points: 2
#     Edge 41, Type (0, 0), BuildingBlock: EZIPEK_clean_linker_0, # of connection points: 2
#     Edge 42, Type (0, 0), BuildingBlock: EZIPEK_clean_linker_0, # of connection points: 2
#     Edge 43, Type (0, 0), BuildingBlock: EZIPEK_clean_linker_0, # of connection points: 2
#     Edge 44, Type (0, 0), BuildingBlock: EZIPEK_clean_linker_0, # of connection points: 2
#     Edge 45, Type (0, 0), BuildingBlock: EZIPEK_clean_linker_0, # of connection points: 2
#     Edge 46, Type (0, 0), BuildingBlock: EZIPEK_clean_linker_0, # of connection points: 2
#     Edge 47, Type (0, 0), BuildingBlock: EZIPEK_clean_linker_0, # of connection points: 2
# Relax obj value: 0.135
# Max RMSD: 0.159
# Mean RMSD: 0.159
data_MOF--net-uoz--node1-GALJAG_clean_sbu_0--edge1-EZIPEK_clean_linker_0
_symmetry_space_group_name_H-M    P1
_symmetry_Int_Tables_number       1
_symmetry_cell_setting            triclinic
loop_
_symmetry_equiv_pos_as_xyz
'x, y, z'
_cell_length_a     46.924795
_cell_length_b     46.893942
_cell_length_c     13.9621
_cell_angle_alpha  90.009625
_cell_angle_beta   90.000418
_cell_angle_gamma 89.982832
loop_
_atom_site_label
_atom_site_type_symbol
_atom_site_fract_x
_atom_site_fract_y
_atom_site_fract_z
_atom_type_partial_charge
In0 In 0.00091 0.58785 0.26222 0.0
O1 O 0.99612 0.55718 0.14057 0.0
O2 O 0.03547 0.55693 0.21968 0.0
C3 C 0.95545 0.62048 0.21855 0.0
C4 C 0.99364 0.55124 0.41092 0.0
C5 C 0.04079 0.62689 0.21691 0.0
O6 O 0.96412 0.60056 0.16542 0.0
O7 O 0.96814 0.62253 0.29814 0.0
O8 O 0.03097 0.62502 0.30134 0.0
O9 O 0.03133 0.60873 0.15896 0.0
C10 C 0.02057 0.54641 0.15311 0.0
O11 O 0.01106 0.57186 0.41502 0.0
O12 O 0.97804 0.55127 0.33741 0.0
In13 In 0.65992 0.74932 0.52388 0.0
O14 O 0.69051 0.72971 0.4197 0.0
O15 O 0.69156 0.77503 0.43965 0.0
C16 C 0.62513 0.70517 0.48724 0.0
C17 C 0.69618 0.74853 0.67592 0.0
C18 C 0.62339 0.79033 0.46933 0.0
O19 O 0.64922 0.70806 0.44848 0.0
O20 O 0.61934 0.72339 0.55142 0.0
O21 O 0.62546 0.78293 0.55647 0.0
O22 O 0.63977 0.77756 0.41232 0.0
C23 C 0.70201 0.75329 0.39995 0.0
O24 O 0.68818 0.77121 0.63581 0.0
O25 O 0.6827 0.72665 0.64925 0.0
In26 In 0.50121 0.40908 0.78574 0.0
O27 O 0.51517 0.44052 0.67411 0.0
O28 O 0.47106 0.43973 0.71358 0.0
C29 C 0.54608 0.37494 0.74918 0.0
C30 C 0.50288 0.44527 0.93807 0.0
C31 C 0.46092 0.3715 0.7342 0.0
O32 O 0.54195 0.39833 0.70718 0.0
O33 O 0.52895 0.36973 0.81701 0.0
O34 O 0.46777 0.37492 0.8213 0.0
O35 O 0.474 0.38697 0.67507 0.0
C36 C 0.49058 0.45096 0.66446 0.0
O37 O 0.48186 0.42915 0.92227 0.0
O38 O 0.52419 0.44028 0.8859 0.0
In39 In 0.84147 0.25373 0.03728 0.0
O40 O 0.80925 0.26663 0.92685 0.0
O41 O 0.81124 0.22265 0.9678 0.0
C42 C 0.8734 0.30027 0.00232 0.0
C43 C 0.80516 0.25502 0.18937 0.0
C44 C 0.88027 0.21411 0.98594 0.0
O45 O 0.85212 0.29347 0.95254 0.0
O46 O 0.87794 0.2845 0.07439 0.0
O47 O 0.87632 0.2207 0.07305 0.0
O48 O 0.86471 0.22721 0.9271 0.0
C49 C 0.79941 0.24175 0.91838 0.0
O50 O 0.82199 0.23444 0.17497 0.0
O51 O 0.80931 0.27613 0.13543 0.0
In52 In 0.9997 0.41283 0.80131 0.0
O53 O 0.00782 0.42809 0.64616 0.0
O54 O 0.97816 0.45107 0.73104 0.0
C55 C 0.03927 0.37319 0.84373 0.0
C56 C 0.02172 0.4528 0.91185 0.0
C57 C 0.95296 0.38207 0.84468 0.0
O58 O 0.03299 0.379 0.75753 0.0
O59 O 0.02587 0.38727 0.9058 0.0
O60 O 0.96059 0.40358 0.89213 0.0
O61 O 0.96762 0.37717 0.7704 0.0
C62 C 0.99212 0.44995 0.65409 0.0
O63 O 0.99728 0.44239 0.92644 0.0
O64 O 0.0356 0.44257 0.84248 0.0
In65 In 0.84165 0.74789 0.03415 0.0
O66 O 0.81157 0.72748 0.13861 0.0
O67 O 0.81014 0.77292 0.12053 0.0
C68 C 0.87651 0.7033 0.06583 0.0
C69 C 0.80376 0.74817 0.88624 0.0
C70 C 0.87816 0.78972 0.08468 0.0
O71 O 0.85755 0.71113 0.12381 0.0
O72 O 0.87761 0.71732 0.98837 0.0
O73 O 0.87926 0.77817 0.00267 0.0
O74 O 0.85834 0.78099 0.13774 0.0
C75 C 0.79999 0.75094 0.15981 0.0
O76 O 0.81865 0.76973 0.90706 0.0
O77 O 0.81074 0.72589 0.93071 0.0
In78 In 0.49847 0.58939 0.30097 0.0
O79 O 0.51262 0.55928 0.41582 0.0
O80 O 0.46861 0.5589 0.37468 0.0
C81 C 0.5431 0.62299 0.34318 0.0
C82 C 0.50207 0.55211 0.15237 0.0
C83 C 0.45866 0.62833 0.34543 0.0
O84 O 0.53879 0.59932 0.38353 0.0
O85 O 0.52622 0.62872 0.27502 0.0
O86 O 0.46774 0.62576 0.26023 0.0
O87 O 0.46907 0.61113 0.40509 0.0
C88 C 0.48822 0.54831 0.42509 0.0
O89 O 0.47886 0.56325 0.17837 0.0
O90 O 0.52377 0.56304 0.19089 0.0
In91 In 0.66159 0.24896 0.55447 0.0
O92 O 0.68793 0.22969 0.43177 0.0
O93 O 0.68769 0.27462 0.44447 0.0
C94 C 0.62313 0.20856 0.5973 0.0
C95 C 0.70254 0.23829 0.6786 0.0
C96 C 0.6277 0.29331 0.598 0.0
O97 O 0.62651 0.21712 0.51177 0.0
O98 O 0.63925 0.21993 0.6584 0.0
O99 O 0.65167 0.28937 0.63663 0.0
O100 O 0.62178 0.27624 0.5305 0.0
C101 C 0.6988 0.25302 0.40575 0.0
O102 O 0.69166 0.26275 0.66983 0.0
O103 O 0.69199 0.21883 0.62755 0.0
In104 In 0.33906 0.25091 0.54903 0.0
O105 O 0.31921 0.26829 0.40923 0.0
O106 O 0.3068 0.22712 0.45497 0.0
C107 C 0.37752 0.29149 0.59215 0.0
C108 C 0.29769 0.26301 0.67077 0.0
C109 C 0.37225 0.20558 0.58872 0.0
O110 O 0.37378 0.28317 0.50669 0.0
O111 O 0.36166 0.27988 0.65351 0.0
O112 O 0.35033 0.21179 0.63609 0.0
O113 O 0.37687 0.22122 0.51651 0.0
C114 C 0.30245 0.2475 0.39812 0.0
O115 O 0.30864 0.23852 0.66558 0.0
O116 O 0.30797 0.28177 0.61617 0.0
In117 In 0.1613 0.75234 0.05814 0.0
O118 O 0.18786 0.7333 0.93606 0.0
O119 O 0.18962 0.77805 0.9547 0.0
C120 C 0.12261 0.71138 0.09213 0.0
C121 C 0.20163 0.74072 0.18376 0.0
C122 C 0.12734 0.79693 0.09739 0.0
O123 O 0.12837 0.71929 0.00739 0.0
O124 O 0.13623 0.72406 0.15709 0.0
O125 O 0.1484 0.79019 0.14858 0.0
O126 O 0.12413 0.7822 0.02197 0.0
C127 C 0.19991 0.75638 0.91374 0.0
O128 O 0.19199 0.76561 0.17259 0.0
O129 O 0.19022 0.72144 0.13415 0.0
In130 In 0.15937 0.25122 0.03166 0.0
O131 O 0.18513 0.27059 0.15512 0.0
O132 O 0.18491 0.22565 0.14347 0.0
C133 C 0.12032 0.2909 0.98708 0.0
C134 C 0.20096 0.26318 0.9113 0.0
C135 C 0.12673 0.20617 0.98576 0.0
O136 O 0.12282 0.2817 0.07218 0.0
O137 O 0.13754 0.28053 0.92741 0.0
O138 O 0.15068 0.21081 0.94768 0.0
O139 O 0.12024 0.22292 0.05359 0.0
C140 C 0.19597 0.24733 0.18191 0.0
O141 O 0.18985 0.2387 0.91557 0.0
O142 O 0.19035 0.28199 0.96494 0.0
In143 In 0.34119 0.75225 0.54082 0.0
O144 O 0.32161 0.73398 0.6796 0.0
O145 O 0.31034 0.77607 0.63994 0.0
C146 C 0.37925 0.71146 0.49451 0.0
C147 C 0.29824 0.7411 0.42467 0.0
C148 C 0.37385 0.79757 0.49723 0.0
O149 O 0.3755 0.71913 0.5807 0.0
O150 O 0.36373 0.724 0.4342 0.0
O151 O 0.35297 0.78974 0.44729 0.0
O152 O 0.37765 0.7835 0.5737 0.0
C153 C 0.30566 0.7552 0.69448 0.0
O154 O 0.30833 0.76584 0.43385 0.0
O155 O 0.31023 0.72166 0.47219 0.0
In156 In 0.49807 0.09122 0.78298 0.0
O157 O 0.51643 0.06925 0.91785 0.0
O158 O 0.47372 0.06004 0.87948 0.0
C159 C 0.53976 0.12812 0.73747 0.0
C160 C 0.50543 0.04797 0.66507 0.0
C161 C 0.45375 0.12571 0.74433 0.0
O162 O 0.52919 0.12751 0.82099 0.0
O163 O 0.53004 0.10992 0.6801 0.0
O164 O 0.46332 0.10762 0.68605 0.0
O165 O 0.46556 0.12566 0.82598 0.0
C166 C 0.49467 0.05393 0.93204 0.0
O167 O 0.48196 0.06103 0.67141 0.0
O168 O 0.52562 0.0578 0.71467 0.0
In169 In 0.99939 0.91188 0.27163 0.0
O170 O 0.98019 0.9335 0.40574 0.0
O171 O 0.02283 0.94347 0.36935 0.0
C172 C 0.9589 0.87344 0.22549 0.0
C173 C 0.98955 0.95363 0.14879 0.0
C174 C 0.04477 0.87798 0.24102 0.0
O175 O 0.96505 0.87895 0.31198 0.0
O176 O 0.97283 0.88745 0.16439 0.0
O177 O 0.03847 0.89871 0.18789 0.0
O178 O 0.02912 0.875 0.31429 0.0
C179 C 0.00157 0.94922 0.42094 0.0
O180 O 0.01402 0.94309 0.16017 0.0
O181 O 0.96973 0.94254 0.19693 0.0
In182 In 0.49977 0.90961 0.29452 0.0
O183 O 0.51716 0.93612 0.16972 0.0
O184 O 0.47252 0.93727 0.19364 0.0
C185 C 0.54343 0.87304 0.32252 0.0
C186 C 0.50763 0.94866 0.42931 0.0
C187 C 0.45357 0.87755 0.33084 0.0
O188 O 0.53138 0.87516 0.24167 0.0
O189 O 0.53451 0.89013 0.38492 0.0
O190 O 0.45807 0.90114 0.37106 0.0
O191 O 0.47113 0.87103 0.26556 0.0
C192 C 0.49358 0.94765 0.14939 0.0
O193 O 0.49577 0.92512 0.44673 0.0
O194 O 0.51683 0.95178 0.34531 0.0
In195 In 0.99969 0.09263 0.78733 0.0
O196 O 0.01335 0.06192 0.90111 0.0
O197 O 0.96938 0.06226 0.85981 0.0
C198 C 0.045 0.12518 0.83164 0.0
C199 C 0.00262 0.05584 0.63698 0.0
C200 C 0.96037 0.13202 0.83335 0.0
O201 O 0.04032 0.10127 0.86989 0.0
O202 O 0.02813 0.13172 0.76427 0.0
O203 O 0.96946 0.12961 0.74809 0.0
O204 O 0.97057 0.11449 0.89237 0.0
C205 C 0.98881 0.05124 0.90992 0.0
O206 O 0.97959 0.06716 0.66385 0.0
O207 O 0.02451 0.06637 0.67557 0.0
C208 C 0.07345 0.68986 0.08351 0.0
C209 C 0.102 0.68852 0.11642 0.0
C210 C 0.08958 0.64871 0.223 0.0
C211 C 0.06153 0.64878 0.18531 0.0
N212 N 0.02836 0.66563 0.06483 0.0
N213 N 0.13884 0.66236 0.19897 0.0
C214 C 0.05399 0.6681 0.11073 0.0
C215 C 0.1105 0.66678 0.18131 0.0
N216 N 0.06436 0.71264 0.03056 0.0
N217 N 0.09644 0.63112 0.2976 0.0
H218 H 0.1549 0.6741 0.16567 0.0
H219 H 0.14662 0.64514 0.23811 0.0
H220 H 0.0824 0.61614 0.3261 0.0
H221 H 0.11549 0.63266 0.33551 0.0
H222 H 0.04297 0.71656 0.0155 0.0
H223 H 0.07774 0.72906 0.00829 0.0
H224 H 0.02337 0.67679 0.00254 0.0
H225 H 0.01273 0.65098 0.08419 0.0
C226 C 0.55936 0.82187 0.33964 0.0
C227 C 0.56544 0.85149 0.34739 0.0
C228 C 0.60776 0.84085 0.4449 0.0
C229 C 0.60244 0.81133 0.43329 0.0
N230 N 0.57579 0.77318 0.35967 0.0
N231 N 0.59833 0.88893 0.389 0.0
C232 C 0.5791 0.8017 0.37718 0.0
C233 C 0.5905 0.86089 0.39495 0.0
N234 N 0.53403 0.81294 0.30163 0.0
N235 N 0.62921 0.84973 0.50407 0.0
H236 H 0.58671 0.90393 0.34997 0.0
H237 H 0.61765 0.89682 0.41426 0.0
H238 H 0.64283 0.83564 0.53936 0.0
H239 H 0.63223 0.87091 0.52398 0.0
H240 H 0.52669 0.79204 0.30622 0.0
H241 H 0.51922 0.82664 0.27069 0.0
H242 H 0.56166 0.76504 0.30906 0.0
H243 H 0.5883 0.75753 0.39207 0.0
C244 C 0.4487 0.32474 0.65933 0.0
C245 C 0.43943 0.35067 0.70141 0.0
C246 C 0.38966 0.3385 0.66693 0.0
C247 C 0.39896 0.31306 0.62107 0.0
N248 N 0.43718 0.28323 0.5629 0.0
N249 N 0.40218 0.38454 0.73483 0.0
C250 C 0.42848 0.30663 0.61362 0.0
C251 C 0.41018 0.35815 0.7027 0.0
N252 N 0.47679 0.31709 0.66602 0.0
N253 N 0.36113 0.3438 0.67655 0.0
H254 H 0.41653 0.39913 0.76406 0.0
H255 H 0.38172 0.39281 0.72743 0.0
H256 H 0.34546 0.33142 0.6437 0.0
H257 H 0.35279 0.35977 0.72004 0.0
H258 H 0.48469 0.29722 0.6462 0.0
H259 H 0.49215 0.32994 0.6985 0.0
H260 H 0.45834 0.27895 0.54592 0.0
H261 H 0.42312 0.26875 0.53182 0.0
C262 C 0.93051 0.19516 0.97267 0.0
C263 C 0.90098 0.19225 0.95254 0.0
C264 C 0.91126 0.15293 0.84096 0.0
C265 C 0.94046 0.15457 0.8659 0.0
N266 N 0.97824 0.17555 0.95948 0.0
N267 N 0.86261 0.16493 0.88327 0.0
C268 C 0.95015 0.17518 0.93314 0.0
C269 C 0.89119 0.17027 0.89051 0.0
N270 N 0.94 0.21772 0.0259 0.0
N271 N 0.90266 0.1347 0.7702 0.0
H272 H 0.84732 0.17622 0.92208 0.0
H273 H 0.85409 0.14755 0.84682 0.0
H274 H 0.91657 0.12089 0.73493 0.0
H275 H 0.88224 0.13477 0.74107 0.0
H276 H 0.96138 0.22327 0.03247 0.0
H277 H 0.92646 0.23219 0.05947 0.0
H278 H 0.98607 0.18711 0.01742 0.0
H279 H 0.99378 0.16326 0.92554 0.0
C280 C 0.05764 0.32275 0.85087 0.0
C281 C 0.06113 0.35207 0.87311 0.0
C282 C 0.10057 0.3405 0.98237 0.0
C283 C 0.09825 0.31144 0.95574 0.0
N284 N 0.07638 0.27458 0.86013 0.0
N285 N 0.08898 0.38964 0.94473 0.0
C286 C 0.07734 0.30251 0.88836 0.0
C287 C 0.08339 0.36114 0.93505 0.0
N288 N 0.03474 0.31405 0.79775 0.0
N289 N 0.11926 0.34838 0.05271 0.0
H290 H 0.07759 0.40532 0.90816 0.0
H291 H 0.10654 0.39774 0.98119 0.0
H292 H 0.13304 0.33407 0.08619 0.0
H293 H 0.1197 0.36864 0.08316 0.0
H294 H 0.02882 0.29281 0.78942 0.0
H295 H 0.0204 0.32816 0.76614 0.0
H296 H 0.06449 0.2673 0.80216 0.0
H297 H 0.08851 0.2586 0.89244 0.0
C298 C 0.91676 0.86013 0.12443 0.0
C299 C 0.93704 0.85228 0.19542 0.0
C300 C 0.91704 0.80393 0.19878 0.0
C301 C 0.89916 0.81093 0.11986 0.0
N302 N 0.88393 0.84482 0.00051 0.0
N303 N 0.95954 0.81525 0.2892 0.0
C304 C 0.89978 0.83872 0.08007 0.0
C305 C 0.93791 0.82384 0.23026 0.0
N306 N 0.91259 0.8883 0.10322 0.0
N307 N 0.91407 0.7783 0.2444 0.0
H308 H 0.97534 0.82887 0.31461 0.0
H309 H 0.96333 0.79397 0.30649 0.0
H310 H 0.90027 0.76231 0.22129 0.0
H311 H 0.9239 0.77358 0.30938 0.0
H312 H 0.89629 0.89564 0.05901 0.0
H313 H 0.92342 0.90473 0.13797 0.0
H314 H 0.88608 0.86365 0.96166 0.0
H315 H 0.87001 0.83025 0.96902 0.0
C316 C 0.38972 0.66689 0.40278 0.0
C317 C 0.39971 0.68908 0.46358 0.0
C318 C 0.44878 0.67179 0.44374 0.0
C319 C 0.43887 0.65101 0.3775 0.0
N320 N 0.40082 0.63079 0.28388 0.0
N321 N 0.43894 0.71429 0.53695 0.0
C322 C 0.40961 0.6493 0.35354 0.0
C323 C 0.42928 0.69183 0.48355 0.0
N324 N 0.36109 0.66167 0.39643 0.0
N325 N 0.47698 0.67227 0.46871 0.0
H326 H 0.42552 0.72859 0.57181 0.0
H327 H 0.46033 0.71983 0.54306 0.0
H328 H 0.49242 0.66008 0.43386 0.0
H329 H 0.48507 0.68388 0.52612 0.0
H330 H 0.35241 0.64422 0.36083 0.0
H331 H 0.34595 0.67315 0.43526 0.0
H332 H 0.38031 0.63073 0.25539 0.0
H333 H 0.41463 0.61684 0.24882 0.0
C334 C 0.61067 0.16312 0.6812 0.0
C335 C 0.60166 0.18713 0.62695 0.0
C336 C 0.55198 0.17176 0.64279 0.0
C337 C 0.56081 0.14949 0.70508 0.0
N338 N 0.59794 0.12567 0.79333 0.0
N339 N 0.56343 0.21734 0.57103 0.0
C340 C 0.58999 0.14578 0.72763 0.0
C341 C 0.57223 0.19224 0.61123 0.0
N342 N 0.63897 0.15618 0.6847 0.0
N343 N 0.52427 0.17317 0.61275 0.0
H344 H 0.57746 0.23312 0.54782 0.0
H345 H 0.54217 0.22366 0.56828 0.0
H346 H 0.50851 0.15921 0.63655 0.0
H347 H 0.51733 0.18688 0.55889 0.0
H348 H 0.64669 0.13744 0.7151 0.0
H349 H 0.65462 0.16779 0.64873 0.0
H350 H 0.61852 0.12397 0.82054 0.0
H351 H 0.58342 0.11202 0.82644 0.0
C352 C 0.9039 0.36981 0.90536 0.0
C353 C 0.93224 0.36131 0.88421 0.0
C354 C 0.92147 0.31275 0.93724 0.0
C355 C 0.89405 0.32177 0.96726 0.0
N356 N 0.86008 0.35958 0.99164 0.0
N357 N 0.96997 0.32671 0.90493 0.0
C358 C 0.88549 0.35056 0.95462 0.0
C359 C 0.94162 0.33335 0.90716 0.0
N360 N 0.89435 0.39589 0.87569 0.0
N361 N 0.92792 0.28436 0.93236 0.0
H362 H 0.98571 0.34151 0.88791 0.0
H363 H 0.97809 0.30746 0.93034 0.0
H364 H 0.91335 0.26841 0.94933 0.0
H365 H 0.94662 0.27663 0.90153 0.0
H366 H 0.87314 0.40228 0.88029 0.0
H367 H 0.90725 0.41035 0.839 0.0
H368 H 0.85379 0.38087 0.99324 0.0
H369 H 0.84623 0.34599 0.02821 0.0
C370 C 0.40616 0.13625 0.67162 0.0
C371 C 0.43169 0.14651 0.71413 0.0
C372 C 0.41716 0.19566 0.67914 0.0
C373 C 0.39339 0.18515 0.62704 0.0
N374 N 0.36631 0.1457 0.56513 0.0
N375 N 0.46362 0.18586 0.74634 0.0
C376 C 0.38815 0.15548 0.62098 0.0
C377 C 0.43773 0.1762 0.71527 0.0
N378 N 0.39869 0.10826 0.68273 0.0
N379 N 0.41961 0.22422 0.69711 0.0
H380 H 0.47931 0.17267 0.77497 0.0
H381 H 0.47053 0.20678 0.73673 0.0
H382 H 0.40515 0.23926 0.67153 0.0
H383 H 0.43458 0.2328 0.74406 0.0
H384 H 0.37912 0.09995 0.66141 0.0
H385 H 0.41099 0.09382 0.72179 0.0
H386 H 0.36311 0.12423 0.54943 0.0
H387 H 0.35262 0.15931 0.52794 0.0
C388 C 0.58243 0.65858 0.31595 0.0
C389 C 0.56442 0.6437 0.38018 0.0
C390 C 0.58856 0.66672 0.51587 0.0
C391 C 0.60412 0.68402 0.45125 0.0
N392 N 0.60972 0.70145 0.28892 0.0
N393 N 0.54554 0.63956 0.54131 0.0
C394 C 0.59939 0.68139 0.35091 0.0
C395 C 0.56612 0.64935 0.48031 0.0
N396 N 0.58418 0.65045 0.22215 0.0
N397 N 0.59569 0.66607 0.61073 0.0
H398 H 0.52769 0.62819 0.51873 0.0
H399 H 0.54445 0.64559 0.61306 0.0
H400 H 0.61249 0.67787 0.6393 0.0
H401 H 0.58682 0.6516 0.6589 0.0
H402 H 0.59912 0.65891 0.17481 0.0
H403 H 0.5729 0.63318 0.19426 0.0
H404 H 0.60443 0.70183 0.21643 0.0
H405 H 0.62073 0.71958 0.31107 0.0
C406 C 0.07805 0.80862 0.15446 0.0
C407 C 0.10603 0.81791 0.13167 0.0
C408 C 0.09503 0.86526 0.19711 0.0
C409 C 0.06629 0.85673 0.21034 0.0
N410 N 0.02904 0.8222 0.18167 0.0
N411 N 0.14042 0.85588 0.11968 0.0
C412 C 0.05738 0.82891 0.18373 0.0
C413 C 0.11436 0.84648 0.15003 0.0
N414 N 0.07147 0.78022 0.15256 0.0
N415 N 0.10396 0.89101 0.23179 0.0
H416 H 0.15495 0.84274 0.08428 0.0
H417 H 0.14669 0.87716 0.12208 0.0
H418 H 0.09034 0.90512 0.26712 0.0
H419 H 0.12521 0.89735 0.23311 0.0
H420 H 0.05231 0.77205 0.17836 0.0
H421 H 0.08616 0.76447 0.13437 0.0
H422 H 0.02123 0.80326 0.1528 0.0
H423 H 0.01306 0.83663 0.19997 0.0
C424 C 0.90733 0.63324 0.15303 0.0
C425 C 0.93486 0.64206 0.18293 0.0
C426 C 0.92488 0.69087 0.1279 0.0
C427 C 0.89787 0.68168 0.09435 0.0
N428 N 0.86452 0.64403 0.06169 0.0
N429 N 0.97144 0.67835 0.1896 0.0
C430 C 0.88943 0.65279 0.10313 0.0
C431 C 0.94404 0.67067 0.16833 0.0
N432 N 0.89792 0.6065 0.17602 0.0
N433 N 0.93185 0.71918 0.12393 0.0
H434 H 0.98601 0.66484 0.22271 0.0
H435 H 0.98061 0.69759 0.16889 0.0
H436 H 0.91937 0.73432 0.0889 0.0
H437 H 0.9492 0.72809 0.15939 0.0
H438 H 0.87715 0.59948 0.16487 0.0
H439 H 0.91032 0.59189 0.21396 0.0
H440 H 0.8582 0.62281 0.05704 0.0
H441 H 0.85111 0.65791 0.02448 0.0
C442 C 0.08466 0.16075 0.80824 0.0
C443 C 0.06657 0.14531 0.87075 0.0
C444 C 0.09111 0.16659 0.00876 0.0
C445 C 0.10651 0.18474 0.94636 0.0
N446 N 0.11188 0.2039 0.78604 0.0
N447 N 0.04779 0.13973 0.03153 0.0
C448 C 0.10171 0.18316 0.84575 0.0
C449 C 0.06846 0.14985 0.97145 0.0
N450 N 0.0863 0.1536 0.71354 0.0
N451 N 0.09851 0.16462 0.10317 0.0
H452 H 0.02966 0.12905 0.00777 0.0
H453 H 0.04695 0.14494 0.10404 0.0
H454 H 0.1156 0.17578 0.13272 0.0
H455 H 0.08963 0.1496 0.14939 0.0
H456 H 0.10126 0.16249 0.66713 0.0
H457 H 0.07491 0.13669 0.68377 0.0
H458 H 0.10649 0.20501 0.71372 0.0
H459 H 0.12282 0.22186 0.81006 0.0
C460 C 0.60248 0.31641 0.73752 0.0
C461 C 0.60689 0.31431 0.63675 0.0
C462 C 0.56797 0.34816 0.61156 0.0
C463 C 0.56686 0.35374 0.71174 0.0
N464 N 0.58723 0.34654 0.86861 0.0
N465 N 0.59737 0.33303 0.47882 0.0
C466 C 0.58533 0.33885 0.77446 0.0
C467 C 0.59067 0.3316 0.57392 0.0
N468 N 0.61313 0.2961 0.79797 0.0
N469 N 0.54654 0.35723 0.55258 0.0
H470 H 0.61455 0.32213 0.44881 0.0
H471 H 0.58776 0.34747 0.43211 0.0
H472 H 0.52829 0.36751 0.57745 0.0
H473 H 0.54524 0.35137 0.48069 0.0
H474 H 0.60821 0.29543 0.87072 0.0
H475 H 0.62392 0.27799 0.7743 0.0
H476 H 0.60251 0.33812 0.91487 0.0
H477 H 0.57557 0.36333 0.89801 0.0
C478 C 0.42291 0.81013 0.44051 0.0
C479 C 0.3945 0.8187 0.4597 0.0
C480 C 0.40374 0.86462 0.3811 0.0
C481 C 0.43286 0.857 0.37134 0.0
N482 N 0.47142 0.8256 0.41751 0.0
N483 N 0.35868 0.85553 0.461 0.0
C484 C 0.44285 0.83063 0.4083 0.0
C485 C 0.3851 0.8464 0.43353 0.0
N486 N 0.43062 0.78212 0.4478 0.0
N487 N 0.39376 0.88878 0.3379 0.0
H488 H 0.34469 0.84282 0.50039 0.0
H489 H 0.35162 0.87643 0.45234 0.0
H490 H 0.4068 0.90239 0.29826 0.0
H491 H 0.37222 0.89405 0.33424 0.0
H492 H 0.45038 0.77446 0.42535 0.0
H493 H 0.41625 0.76609 0.46577 0.0
H494 H 0.47959 0.80775 0.45254 0.0
H495 H 0.48692 0.84066 0.40031 0.0
C496 C 0.03207 0.495 0.13247 0.0
C497 C 0.03059 0.52287 0.09364 0.0
C498 C 0.03241 0.50433 0.93116 0.0
C499 C 0.03215 0.47643 0.97001 0.0
N500 N 0.04116 0.44489 0.10211 0.0
N501 N 0.03861 0.55483 0.96161 0.0
C502 C 0.03545 0.47172 0.06921 0.0
C503 C 0.0341 0.52776 0.99452 0.0
N504 N 0.02798 0.49064 0.22825 0.0
N505 N 0.02876 0.50846 0.83506 0.0
H506 H 0.04002 0.57233 0.00758 0.0
H507 H 0.04367 0.55952 0.89073 0.0
H508 H 0.02766 0.49171 0.7863 0.0
H509 H 0.0252 0.52836 0.80421 0.0
H510 H 0.02559 0.47055 0.25893 0.0
H511 H 0.02509 0.50728 0.27661 0.0
H512 H 0.04602 0.44037 0.17328 0.0
H513 H 0.04374 0.42758 0.05581 0.0
C514 C 0.7771 0.765 0.31252 0.0
C515 C 0.77488 0.75242 0.22069 0.0
C516 C 0.7238 0.74534 0.24131 0.0
C517 C 0.72662 0.75501 0.33674 0.0
N518 N 0.75577 0.77128 0.46872 0.0
N519 N 0.74737 0.72845 0.09827 0.0
C520 C 0.75314 0.76441 0.37385 0.0
C521 C 0.74859 0.74189 0.18517 0.0
N522 N 0.8021 0.77739 0.34105 0.0
N523 N 0.6973 0.74061 0.2035 0.0
H524 H 0.76474 0.72678 0.05217 0.0
H525 H 0.72955 0.71739 0.07389 0.0
H526 H 0.67855 0.74344 0.24255 0.0
H527 H 0.69362 0.73644 0.13132 0.0
H528 H 0.80399 0.78994 0.40223 0.0
H529 H 0.82075 0.77665 0.30049 0.0
H530 H 0.77524 0.77474 0.50249 0.0
H531 H 0.73867 0.77151 0.5163 0.0
C532 C 0.47444 0.49769 0.45312 0.0
C533 C 0.48342 0.52444 0.48993 0.0
C534 C 0.49519 0.50313 0.64354 0.0
C535 C 0.48577 0.4765 0.60753 0.0
N536 N 0.4607 0.44902 0.48839 0.0
N537 N 0.49457 0.55442 0.62496 0.0
C538 C 0.47326 0.47402 0.51581 0.0
C539 C 0.49132 0.52773 0.58694 0.0
N540 N 0.46899 0.49442 0.35749 0.0
N541 N 0.50863 0.50477 0.73028 0.0
H542 H 0.4913 0.57297 0.5851 0.0
H543 H 0.49765 0.55823 0.69771 0.0
H544 H 0.51139 0.48724 0.77513 0.0
H545 H 0.51874 0.5231 0.75515 0.0
H546 H 0.46588 0.47466 0.32506 0.0
H547 H 0.46966 0.51114 0.30846 0.0
H548 H 0.44868 0.44691 0.42609 0.0
H549 H 0.46032 0.43091 0.53178 0.0
C550 C 0.77664 0.2235 0.77057 0.0
C551 C 0.77394 0.23614 0.86204 0.0
C552 C 0.72271 0.24102 0.84087 0.0
C553 C 0.72624 0.23326 0.74386 0.0
N554 N 0.75655 0.21911 0.61186 0.0
N555 N 0.74528 0.25881 0.98418 0.0
C556 C 0.75308 0.22448 0.70747 0.0
C557 C 0.74718 0.24524 0.89772 0.0
N558 N 0.80177 0.21108 0.7437 0.0
N559 N 0.69596 0.24393 0.8785 0.0
H560 H 0.76274 0.26192 0.02901 0.0
H561 H 0.72679 0.26868 0.00873 0.0
H562 H 0.67753 0.24042 0.83832 0.0
H563 H 0.69203 0.24694 0.95123 0.0
H564 H 0.80405 0.19902 0.68153 0.0
H565 H 0.81979 0.21084 0.78747 0.0
H566 H 0.77637 0.21613 0.57985 0.0
H567 H 0.73991 0.21972 0.56253 0.0
C568 C 0.22106 0.26409 0.74866 0.0
C569 C 0.22481 0.26906 0.84757 0.0
C570 C 0.27549 0.27803 0.82346 0.0
C571 C 0.27238 0.26816 0.72842 0.0
N572 N 0.24317 0.24909 0.60109 0.0
N573 N 0.25542 0.27894 0.983 0.0
C574 C 0.24539 0.26071 0.69057 0.0
C575 C 0.25189 0.27606 0.88623 0.0
N576 N 0.19423 0.26286 0.71056 0.0
N577 N 0.30099 0.28891 0.85354 0.0
H578 H 0.23865 0.27774 0.03175 0.0
H579 H 0.27527 0.28053 0.01587 0.0
H580 H 0.31883 0.29012 0.80904 0.0
H581 H 0.3038 0.29888 0.91953 0.0
H582 H 0.19026 0.26199 0.63722 0.0
H583 H 0.1759 0.26565 0.75187 0.0
H584 H 0.22437 0.24052 0.57386 0.0
H585 H 0.26068 0.246 0.5565 0.0
C586 C 0.24617 0.74646 0.40359 0.0
C587 C 0.27256 0.73602 0.36882 0.0
C588 C 0.25145 0.72485 0.21422 0.0
C589 C 0.22499 0.73499 0.2497 0.0
N590 N 0.19498 0.74743 0.38329 0.0
N591 N 0.2994 0.70932 0.25186 0.0
C592 C 0.22164 0.74318 0.34635 0.0
C593 C 0.27482 0.72294 0.27788 0.0
N594 N 0.24473 0.76039 0.4895 0.0
N595 N 0.25484 0.71906 0.11885 0.0
H596 H 0.31734 0.7084 0.29586 0.0
H597 H 0.30121 0.69697 0.19016 0.0
H598 H 0.23833 0.72037 0.06912 0.0
H599 H 0.27455 0.71504 0.08735 0.0
H600 H 0.22667 0.7712 0.51322 0.0
H601 H 0.26222 0.76281 0.53473 0.0
H602 H 0.19107 0.75081 0.45584 0.0
H603 H 0.17649 0.74466 0.34279 0.0
C604 C 0.48395 0.97886 0.55301 0.0
C605 C 0.50856 0.972 0.49878 0.0
C606 C 0.53155 0.01583 0.55164 0.0
C607 C 0.50792 0.02116 0.61221 0.0
N608 N 0.46715 0.00179 0.69631 0.0
N609 N 0.55874 0.97962 0.46906 0.0
C610 C 0.48586 0.00077 0.62136 0.0
C611 C 0.53339 0.9891 0.50523 0.0
N612 N 0.45824 0.96618 0.53549 0.0
N613 N 0.55138 0.03652 0.53426 0.0
H614 H 0.56114 0.95944 0.43857 0.0
H615 H 0.57791 0.99042 0.47931 0.0
H616 H 0.55022 0.05695 0.56337 0.0
H617 H 0.56743 0.03426 0.48318 0.0
H618 H 0.43947 0.97279 0.56881 0.0
H619 H 0.45474 0.95175 0.48011 0.0
H620 H 0.45218 0.9858 0.70897 0.0
H621 H 0.46896 0.01648 0.75202 0.0
C622 C 0.97408 0.00083 0.93772 0.0
C623 C 0.98363 0.02737 0.97455 0.0
C624 C 0.99528 0.00572 0.1277 0.0
C625 C 0.98523 0.97929 0.09183 0.0
N626 N 0.95945 0.95239 0.97286 0.0
N627 N 0.99545 0.05703 0.10975 0.0
C628 C 0.97253 0.97713 0.00029 0.0
C629 C 0.99172 0.03043 0.07144 0.0
N630 N 0.96844 0.99772 0.84215 0.0
N631 N 0.00899 0.00708 0.21399 0.0
H632 H 0.9924 0.07567 0.07023 0.0
H633 H 0.99867 0.06069 0.18253 0.0
H634 H 0.01151 0.98951 0.25878 0.0
H635 H 0.01957 0.02519 0.23846 0.0
H636 H 0.96488 0.97806 0.80965 0.0
H637 H 0.96941 0.01447 0.79325 0.0
H638 H 0.94728 0.95057 0.9108 0.0
H639 H 0.95886 0.93423 0.01597 0.0
C640 C 0.01934 0.48787 0.56247 0.0
C641 C 0.99292 0.47481 0.58683 0.0
C642 C 0.96759 0.51512 0.51229 0.0
C643 C 0.99383 0.52641 0.47848 0.0
N644 N 0.04458 0.51947 0.4555 0.0
N645 N 0.94185 0.47358 0.56914 0.0
C646 C 0.01969 0.51174 0.49931 0.0
C647 C 0.96703 0.4878 0.55724 0.0
N648 N 0.0442 0.47858 0.60297 0.0
N649 N 0.94326 0.53099 0.50464 0.0
H650 H 0.94069 0.45323 0.59904 0.0
H651 H 0.9226 0.48063 0.54052 0.0
H652 H 0.94301 0.55145 0.47533 0.0
H653 H 0.92402 0.52517 0.5363 0.0
H654 H 0.06335 0.48968 0.597 0.0
H655 H 0.04544 0.4616 0.65073 0.0
H656 H 0.06307 0.50719 0.459 0.0
H657 H 0.04634 0.53633 0.40747 0.0
C658 C 0.75325 0.76597 0.86353 0.0
C659 C 0.77682 0.74966 0.82884 0.0
C660 C 0.7469 0.73135 0.69747 0.0
C661 C 0.72318 0.74724 0.73302 0.0
N662 N 0.70408 0.78151 0.84394 0.0
N663 N 0.79527 0.71419 0.72084 0.0
C664 C 0.72652 0.76505 0.81445 0.0
C665 C 0.77331 0.73157 0.74826 0.0
N666 N 0.75583 0.78085 0.94739 0.0
N667 N 0.74499 0.71775 0.61093 0.0
H668 H 0.81565 0.71547 0.75039 0.0
H669 H 0.79304 0.69742 0.67256 0.0
H670 H 0.72655 0.71713 0.56969 0.0
H671 H 0.76237 0.70915 0.57481 0.0
H672 H 0.73885 0.78993 0.98423 0.0
H673 H 0.77485 0.78282 0.98481 0.0
H674 H 0.7057 0.79799 0.89346 0.0
H675 H 0.68359 0.77947 0.81577 0.0
C676 C 0.4872 0.52225 0.01063 0.0
C677 C 0.50304 0.52486 0.09657 0.0
C678 C 0.51908 0.47499 0.07878 0.0
C679 C 0.50112 0.47166 0.99795 0.0
N680 N 0.46381 0.49107 0.89731 0.0
N681 N 0.52826 0.50097 0.22514 0.0
C682 C 0.48374 0.49491 0.96748 0.0
C683 C 0.51756 0.50054 0.13406 0.0
N684 N 0.47653 0.54614 0.96744 0.0
N685 N 0.53752 0.45368 0.1035 0.0
H686 H 0.52649 0.5184 0.27089 0.0
H687 H 0.53615 0.4829 0.2595 0.0
H688 H 0.53797 0.43397 0.06886 0.0
H689 H 0.55358 0.45626 0.15432 0.0
H690 H 0.46764 0.54608 0.89908 0.0
H691 H 0.47925 0.56657 0.99554 0.0
H692 H 0.44851 0.50632 0.88006 0.0
H693 H 0.46092 0.47191 0.86116 0.0
C694 C 0.77552 0.27095 0.33064 0.0
C695 C 0.77901 0.25287 0.25016 0.0
C696 C 0.72873 0.23819 0.26403 0.0
C697 C 0.72597 0.25422 0.34958 0.0
N698 N 0.74973 0.27982 0.47757 0.0
N699 N 0.7602 0.21479 0.15159 0.0
C700 C 0.75013 0.2691 0.38649 0.0
C701 C 0.75606 0.23498 0.22077 0.0
N702 N 0.79653 0.28982 0.35448 0.0
N703 N 0.70498 0.22708 0.22131 0.0
H704 H 0.77945 0.21196 0.11597 0.0
H705 H 0.74516 0.19922 0.13496 0.0
H706 H 0.68454 0.22964 0.24941 0.0
H707 H 0.70514 0.21797 0.15326 0.0
H708 H 0.79377 0.3059 0.40514 0.0
H709 H 0.81612 0.29056 0.31922 0.0
H710 H 0.76773 0.28803 0.51138 0.0
H711 H 0.73246 0.2777 0.52381 0.0
C712 C 0.25372 0.26782 0.36185 0.0
C713 C 0.27623 0.24876 0.33731 0.0
C714 C 0.2469 0.23017 0.20558 0.0
C715 C 0.22306 0.24632 0.23872 0.0
N716 N 0.20277 0.27631 0.36109 0.0
N717 N 0.29264 0.20889 0.24341 0.0
C718 C 0.22625 0.26406 0.32023 0.0
C719 C 0.27219 0.22887 0.26208 0.0
N720 N 0.25831 0.28959 0.42508 0.0
N721 N 0.24645 0.21776 0.11694 0.0
H722 H 0.31225 0.20842 0.27863 0.0
H723 H 0.28933 0.19171 0.19734 0.0
H724 H 0.22951 0.21967 0.06928 0.0
H725 H 0.26431 0.20836 0.08581 0.0
H726 H 0.2436 0.30586 0.43684 0.0
H727 H 0.27753 0.29282 0.46044 0.0
H728 H 0.20331 0.2869 0.42668 0.0
H729 H 0.18218 0.27321 0.33496 0.0
C730 C 0.27699 0.77198 0.83695 0.0
C731 C 0.27961 0.75397 0.75592 0.0
C732 C 0.22888 0.74124 0.77049 0.0
C733 C 0.22693 0.757 0.85685 0.0
N734 N 0.25195 0.78125 0.9851 0.0
N735 N 0.2592 0.71668 0.65749 0.0
C736 C 0.25171 0.77086 0.8936 0.0
C737 C 0.25597 0.737 0.72679 0.0
N738 N 0.29872 0.79004 0.86059 0.0
N739 N 0.20463 0.73141 0.72739 0.0
H740 H 0.27826 0.71307 0.62156 0.0
H741 H 0.2435 0.70174 0.64112 0.0
H742 H 0.18433 0.73492 0.75542 0.0
H743 H 0.20439 0.72255 0.65895 0.0
H744 H 0.29668 0.80604 0.91194 0.0
H745 H 0.31819 0.79023 0.8245 0.0
H746 H 0.27034 0.78872 0.01855 0.0
H747 H 0.23476 0.77955 0.03184 0.0
C748 C 0.5059 0.97591 0.00193 0.0
C749 C 0.49197 0.97453 0.09179 0.0
C750 C 0.47839 0.02517 0.07515 0.0
C751 C 0.49512 0.02728 0.99093 0.0
N752 N 0.52891 0.00531 0.88274 0.0
N753 N 0.4701 1.00003 0.22384 0.0
C754 C 0.51015 0.00286 0.95706 0.0
C755 C 0.47939 0.99968 0.13101 0.0
N756 N 0.51417 0.95128 0.95747 0.0
N757 N 0.46162 0.04757 0.10239 0.0
H758 H 0.47126 0.98252 0.26947 0.0
H759 H 0.46381 0.01858 0.259 0.0
H760 H 0.46155 0.06709 0.06652 0.0
H761 H 0.44639 0.04609 0.15646 0.0
H762 H 0.5216 0.95056 0.88722 0.0
H763 H 0.51078 0.93114 0.98712 0.0
H764 H 0.54256 0.98898 0.86153 0.0
H765 H 0.53299 0.02448 0.84824 0.0
C766 C 0.01727 0.00405 0.61748 0.0
C767 C 0.00317 0.02868 0.58046 0.0
C768 C 0.98355 0.99931 0.45028 0.0
C769 C 0.00047 0.9757 0.48059 0.0
N770 N 0.03645 0.95691 0.58623 0.0
N771 N 0.97703 0.05064 0.45179 0.0
C772 C 0.0184 0.97859 0.5617 0.0
C773 C 0.98735 0.0265 0.49431 0.0
N774 N 0.02792 0.00414 0.70865 0.0
N775 N 0.96377 0.99594 0.37938 0.0
H776 H 0.97998 0.07095 0.48064 0.0
H777 H 0.96818 0.05091 0.38339 0.0
H778 H 0.96081 0.97696 0.34222 0.0
H779 H 0.94872 0.01145 0.36214 0.0
H780 H 0.03546 0.98588 0.74273 0.0
H781 H 0.02643 0.02152 0.75473 0.0
H782 H 0.05251 0.95913 0.63723 0.0
H783 H 0.03659 0.93725 0.55126 0.0
loop_
_geom_bond_atom_site_label_1
_geom_bond_atom_site_label_2
_geom_bond_distance
_geom_bond_site_symmetry_2
_ccdc_geom_bond_type
In0 O1 2.294 1_455 S
In0 O2 2.326 . S
In0 O6 2.266 1_455 S
In0 O7 2.326 1_455 S
In0 O8 2.266 . S
In0 O9 2.326 . S
In0 O11 2.294 . S
In0 O12 2.326 1_455 S
O1 In0 2.294 1_655 S
O1 C10 1.240 1_655 S
O2 In0 2.326 . S
O2 C10 1.252 . S
C3 O6 1.252 . S
C3 O7 1.260 . S
C4 O11 1.240 1_655 S
C4 O12 1.252 . S
C5 O8 1.252 . S
C5 O9 1.260 . S
O6 In0 2.266 1_655 S
O6 C3 1.252 . S
O7 In0 2.326 1_655 S
O7 C3 1.260 . S
O8 In0 2.266 . S
O8 C5 1.252 . S
O9 In0 2.326 . S
O9 C5 1.260 . S
C10 O1 1.240 1_455 S
C10 O2 1.252 . S
O11 In0 2.294 . S
O11 C4 1.240 1_455 S
O12 In0 2.326 1_655 S
O12 C4 1.252 . S
In13 O14 2.294 . S
In13 O15 2.326 . S
In13 O19 2.266 . S
In13 O20 2.326 . S
In13 O21 2.266 . S
In13 O22 2.326 . S
In13 O24 2.294 . S
In13 O25 2.326 . S
O14 In13 2.294 . S
O14 C23 1.240 . S
O15 In13 2.326 . S
O15 C23 1.252 . S
C16 O19 1.252 . S
C16 O20 1.260 . S
C17 O24 1.240 . S
C17 O25 1.252 . S
C18 O21 1.252 . S
C18 O22 1.260 . S
O19 In13 2.266 . S
O19 C16 1.252 . S
O20 In13 2.326 . S
O20 C16 1.260 . S
O21 In13 2.266 . S
O21 C18 1.252 . S
O22 In13 2.326 . S
O22 C18 1.260 . S
C23 O14 1.240 . S
C23 O15 1.252 . S
O24 In13 2.294 . S
O24 C17 1.240 . S
O25 In13 2.326 . S
O25 C17 1.252 . S
In26 O27 2.294 . S
In26 O28 2.326 . S
In26 O32 2.266 . S
In26 O33 2.326 . S
In26 O34 2.266 . S
In26 O35 2.326 . S
In26 O37 2.294 . S
In26 O38 2.326 . S
O27 In26 2.294 . S
O27 C36 1.240 . S
O28 In26 2.326 . S
O28 C36 1.252 . S
C29 O32 1.252 . S
C29 O33 1.260 . S
C30 O37 1.240 . S
C30 O38 1.252 . S
C31 O34 1.252 . S
C31 O35 1.260 . S
O32 In26 2.266 . S
O32 C29 1.252 . S
O33 In26 2.326 . S
O33 C29 1.260 . S
O34 In26 2.266 . S
O34 C31 1.252 . S
O35 In26 2.326 . S
O35 C31 1.260 . S
C36 O27 1.240 . S
C36 O28 1.252 . S
O37 In26 2.294 . S
O37 C30 1.240 . S
O38 In26 2.326 . S
O38 C30 1.252 . S
In39 O40 2.293 1_554 S
In39 O41 2.326 1_554 S
In39 O45 2.266 1_554 S
In39 O46 2.326 . S
In39 O47 2.266 . S
In39 O48 2.325 1_554 S
In39 O50 2.295 . S
In39 O51 2.327 . S
O40 In39 2.293 1_556 S
O40 C49 1.240 . S
O41 In39 2.326 1_556 S
O41 C49 1.252 . S
C42 O45 1.252 1_554 S
C42 O46 1.260 . S
C43 O50 1.240 . S
C43 O51 1.252 . S
C44 O47 1.252 1_556 S
C44 O48 1.260 . S
O45 In39 2.266 1_556 S
O45 C42 1.252 1_556 S
O46 In39 2.326 . S
O46 C42 1.260 . S
O47 In39 2.266 . S
O47 C44 1.252 1_554 S
O48 In39 2.325 1_556 S
O48 C44 1.260 . S
C49 O40 1.240 . S
C49 O41 1.252 . S
O50 In39 2.295 . S
O50 C43 1.240 . S
O51 In39 2.327 . S
O51 C43 1.252 . S
In52 O53 2.294 . S
In52 O54 2.326 1_455 S
In52 O58 2.266 . S
In52 O59 2.326 . S
In52 O60 2.266 1_455 S
In52 O61 2.326 1_455 S
In52 O63 2.294 1_455 S
In52 O64 2.326 . S
O53 In52 2.294 . S
O53 C62 1.240 1_455 S
O54 In52 2.326 1_655 S
O54 C62 1.252 . S
C55 O58 1.252 . S
C55 O59 1.260 . S
C56 O63 1.240 1_455 S
C56 O64 1.252 . S
C57 O60 1.252 . S
C57 O61 1.260 . S
O58 In52 2.266 . S
O58 C55 1.252 . S
O59 In52 2.326 . S
O59 C55 1.260 . S
O60 In52 2.266 1_655 S
O60 C57 1.252 . S
O61 In52 2.326 1_655 S
O61 C57 1.260 . S
C62 O53 1.240 1_655 S
C62 O54 1.252 . S
O63 In52 2.294 1_655 S
O63 C56 1.240 1_655 S
O64 In52 2.326 . S
O64 C56 1.252 . S
In65 O66 2.294 . S
In65 O67 2.326 . S
In65 O71 2.266 . S
In65 O72 2.326 . S
In65 O73 2.266 . S
In65 O74 2.326 . S
In65 O76 2.294 1_554 S
In65 O77 2.326 . S
O66 In65 2.294 . S
O66 C75 1.240 . S
O67 In65 2.326 . S
O67 C75 1.252 . S
C68 O71 1.252 . S
C68 O72 1.260 . S
C69 O76 1.240 . S
C69 O77 1.252 1_556 S
C70 O73 1.252 . S
C70 O74 1.260 . S
O71 In65 2.266 . S
O71 C68 1.252 . S
O72 In65 2.326 . S
O72 C68 1.260 . S
O73 In65 2.266 . S
O73 C70 1.252 . S
O74 In65 2.326 . S
O74 C70 1.260 . S
C75 O66 1.240 . S
C75 O67 1.252 . S
O76 In65 2.294 1_556 S
O76 C69 1.240 . S
O77 In65 2.326 . S
O77 C69 1.252 1_554 S
In78 O79 2.294 . S
In78 O80 2.326 . S
In78 O84 2.266 . S
In78 O85 2.326 . S
In78 O86 2.266 . S
In78 O87 2.326 . S
In78 O89 2.294 . S
In78 O90 2.326 . S
O79 In78 2.294 . S
O79 C88 1.240 . S
O80 In78 2.326 . S
O80 C88 1.252 . S
C81 O84 1.252 . S
C81 O85 1.260 . S
C82 O89 1.240 . S
C82 O90 1.252 . S
C83 O86 1.252 . S
C83 O87 1.260 . S
O84 In78 2.266 . S
O84 C81 1.252 . S
O85 In78 2.326 . S
O85 C81 1.260 . S
O86 In78 2.266 . S
O86 C83 1.252 . S
O87 In78 2.326 . S
O87 C83 1.260 . S
C88 O79 1.240 . S
C88 O80 1.252 . S
O89 In78 2.294 . S
O89 C82 1.240 . S
O90 In78 2.326 . S
O90 C82 1.252 . S
In91 O92 2.294 . S
In91 O93 2.326 . S
In91 O97 2.266 . S
In91 O98 2.326 . S
In91 O99 2.266 . S
In91 O100 2.326 . S
In91 O102 2.294 . S
In91 O103 2.326 . S
O92 In91 2.294 . S
O92 C101 1.240 . S
O93 In91 2.326 . S
O93 C101 1.252 . S
C94 O97 1.252 . S
C94 O98 1.260 . S
C95 O102 1.240 . S
C95 O103 1.252 . S
C96 O99 1.252 . S
C96 O100 1.260 . S
O97 In91 2.266 . S
O97 C94 1.252 . S
O98 In91 2.326 . S
O98 C94 1.260 . S
O99 In91 2.266 . S
O99 C96 1.252 . S
O100 In91 2.326 . S
O100 C96 1.260 . S
C101 O92 1.240 . S
C101 O93 1.252 . S
O102 In91 2.294 . S
O102 C95 1.240 . S
O103 In91 2.326 . S
O103 C95 1.252 . S
In104 O105 2.294 . S
In104 O106 2.326 . S
In104 O110 2.266 . S
In104 O111 2.326 . S
In104 O112 2.266 . S
In104 O113 2.326 . S
In104 O115 2.294 . S
In104 O116 2.326 . S
O105 In104 2.294 . S
O105 C114 1.240 . S
O106 In104 2.326 . S
O106 C114 1.252 . S
C107 O110 1.252 . S
C107 O111 1.260 . S
C108 O115 1.240 . S
C108 O116 1.252 . S
C109 O112 1.252 . S
C109 O113 1.260 . S
O110 In104 2.266 . S
O110 C107 1.252 . S
O111 In104 2.326 . S
O111 C107 1.260 . S
O112 In104 2.266 . S
O112 C109 1.252 . S
O113 In104 2.326 . S
O113 C109 1.260 . S
C114 O105 1.240 . S
C114 O106 1.252 . S
O115 In104 2.294 . S
O115 C108 1.240 . S
O116 In104 2.326 . S
O116 C108 1.252 . S
In117 O118 2.294 1_554 S
In117 O119 2.326 . S
In117 O123 2.266 . S
In117 O124 2.326 . S
In117 O125 2.266 . S
In117 O126 2.326 . S
In117 O128 2.294 . S
In117 O129 2.326 . S
O118 In117 2.294 1_556 S
O118 C127 1.240 . S
O119 In117 2.326 . S
O119 C127 1.252 1_554 S
C120 O123 1.252 . S
C120 O124 1.260 . S
C121 O128 1.240 . S
C121 O129 1.252 . S
C122 O125 1.252 . S
C122 O126 1.260 . S
O123 In117 2.266 . S
O123 C120 1.252 . S
O124 In117 2.326 . S
O124 C120 1.260 . S
O125 In117 2.266 . S
O125 C122 1.252 . S
O126 In117 2.326 . S
O126 C122 1.260 . S
C127 O118 1.240 . S
C127 O119 1.252 1_556 S
O128 In117 2.294 . S
O128 C121 1.240 . S
O129 In117 2.326 . S
O129 C121 1.252 . S
In130 O131 2.295 . S
In130 O132 2.327 . S
In130 O136 2.266 . S
In130 O137 2.325 1_554 S
In130 O138 2.266 1_554 S
In130 O139 2.326 . S
In130 O141 2.293 1_554 S
In130 O142 2.326 1_554 S
O131 In130 2.295 . S
O131 C140 1.240 . S
O132 In130 2.327 . S
O132 C140 1.252 . S
C133 O136 1.252 1_556 S
C133 O137 1.260 . S
C134 O141 1.240 . S
C134 O142 1.252 . S
C135 O138 1.252 1_554 S
C135 O139 1.260 . S
O136 In130 2.266 . S
O136 C133 1.252 1_554 S
O137 In130 2.325 1_556 S
O137 C133 1.260 . S
O138 In130 2.266 1_556 S
O138 C135 1.252 1_556 S
O139 In130 2.326 . S
O139 C135 1.260 . S
C140 O131 1.240 . S
C140 O132 1.252 . S
O141 In130 2.293 1_556 S
O141 C134 1.240 . S
O142 In130 2.326 1_556 S
O142 C134 1.252 . S
In143 O144 2.294 . S
In143 O145 2.326 . S
In143 O149 2.266 . S
In143 O150 2.326 . S
In143 O151 2.266 . S
In143 O152 2.326 . S
In143 O154 2.294 . S
In143 O155 2.326 . S
O144 In143 2.294 . S
O144 C153 1.240 . S
O145 In143 2.326 . S
O145 C153 1.252 . S
C146 O149 1.252 . S
C146 O150 1.260 . S
C147 O154 1.240 . S
C147 O155 1.252 . S
C148 O151 1.252 . S
C148 O152 1.260 . S
O149 In143 2.266 . S
O149 C146 1.252 . S
O150 In143 2.326 . S
O150 C146 1.260 . S
O151 In143 2.266 . S
O151 C148 1.252 . S
O152 In143 2.326 . S
O152 C148 1.260 . S
C153 O144 1.240 . S
C153 O145 1.252 . S
O154 In143 2.294 . S
O154 C147 1.240 . S
O155 In143 2.326 . S
O155 C147 1.252 . S
In156 O157 2.294 . S
In156 O158 2.326 . S
In156 O162 2.266 . S
In156 O163 2.326 . S
In156 O164 2.266 . S
In156 O165 2.326 . S
In156 O167 2.294 . S
In156 O168 2.326 . S
O157 In156 2.294 . S
O157 C166 1.240 . S
O158 In156 2.326 . S
O158 C166 1.252 . S
C159 O162 1.252 . S
C159 O163 1.260 . S
C160 O167 1.240 . S
C160 O168 1.252 . S
C161 O164 1.252 . S
C161 O165 1.260 . S
O162 In156 2.266 . S
O162 C159 1.252 . S
O163 In156 2.326 . S
O163 C159 1.260 . S
O164 In156 2.266 . S
O164 C161 1.252 . S
O165 In156 2.326 . S
O165 C161 1.260 . S
C166 O157 1.240 . S
C166 O158 1.252 . S
O167 In156 2.294 . S
O167 C160 1.240 . S
O168 In156 2.326 . S
O168 C160 1.252 . S
In169 O170 2.294 1_455 S
In169 O171 2.326 . S
In169 O175 2.266 1_455 S
In169 O176 2.326 1_455 S
In169 O177 2.266 . S
In169 O178 2.326 . S
In169 O180 2.294 . S
In169 O181 2.326 1_455 S
O170 In169 2.294 1_655 S
O170 C179 1.240 1_655 S
O171 In169 2.326 . S
O171 C179 1.252 . S
C172 O175 1.252 . S
C172 O176 1.260 . S
C173 O180 1.240 1_655 S
C173 O181 1.252 . S
C174 O177 1.252 . S
C174 O178 1.260 . S
O175 In169 2.266 1_655 S
O175 C172 1.252 . S
O176 In169 2.326 1_655 S
O176 C172 1.260 . S
O177 In169 2.266 . S
O177 C174 1.252 . S
O178 In169 2.326 . S
O178 C174 1.260 . S
C179 O170 1.240 1_455 S
C179 O171 1.252 . S
O180 In169 2.294 . S
O180 C173 1.240 1_455 S
O181 In169 2.326 1_655 S
O181 C173 1.252 . S
In182 O183 2.294 . S
In182 O184 2.326 . S
In182 O188 2.266 . S
In182 O189 2.326 . S
In182 O190 2.266 . S
In182 O191 2.326 . S
In182 O193 2.294 . S
In182 O194 2.326 . S
O183 In182 2.294 . S
O183 C192 1.240 . S
O184 In182 2.326 . S
O184 C192 1.252 . S
C185 O188 1.252 . S
C185 O189 1.260 . S
C186 O193 1.240 . S
C186 O194 1.252 . S
C187 O190 1.252 . S
C187 O191 1.260 . S
O188 In182 2.266 . S
O188 C185 1.252 . S
O189 In182 2.326 . S
O189 C185 1.260 . S
O190 In182 2.266 . S
O190 C187 1.252 . S
O191 In182 2.326 . S
O191 C187 1.260 . S
C192 O183 1.240 . S
C192 O184 1.252 . S
O193 In182 2.294 . S
O193 C186 1.240 . S
O194 In182 2.326 . S
O194 C186 1.252 . S
In195 O196 2.294 . S
In195 O197 2.326 1_455 S
In195 O201 2.266 . S
In195 O202 2.326 . S
In195 O203 2.266 1_455 S
In195 O204 2.326 1_455 S
In195 O206 2.294 1_455 S
In195 O207 2.326 . S
O196 In195 2.294 . S
O196 C205 1.240 1_455 S
O197 In195 2.326 1_655 S
O197 C205 1.252 . S
C198 O201 1.252 . S
C198 O202 1.260 . S
C199 O206 1.240 1_455 S
C199 O207 1.252 . S
C200 O203 1.252 . S
C200 O204 1.260 . S
O201 In195 2.266 . S
O201 C198 1.252 . S
O202 In195 2.326 . S
O202 C198 1.260 . S
O203 In195 2.266 1_655 S
O203 C200 1.252 . S
O204 In195 2.326 1_655 S
O204 C200 1.260 . S
C205 O196 1.240 1_655 S
C205 O197 1.252 . S
O206 In195 2.294 1_655 S
O206 C199 1.240 1_655 S
O207 In195 2.326 . S
O207 C199 1.252 . S
C208 C209 1.363 . S
C208 C214 1.379 . S
C208 N216 1.356 . S
C209 C208 1.363 . S
C209 C215 1.363 . S
C210 C211 1.363 . S
C210 C215 1.379 . S
C210 N217 1.356 . S
C211 C210 1.363 . S
C211 C214 1.363 . S
N212 C214 1.356 . S
N212 H224 0.984 1_554 S
N212 H225 0.985 . S
N213 C215 1.356 . S
N213 H218 0.984 . S
N213 H219 0.985 . S
C214 C208 1.379 . S
C214 C211 1.363 . S
C214 N212 1.356 . S
C215 C209 1.363 . S
C215 C210 1.379 . S
C215 N213 1.356 . S
N216 C208 1.356 . S
N216 H222 0.984 1_554 S
N216 H223 0.984 . S
N217 C210 1.356 . S
N217 H220 0.984 . S
N217 H221 0.985 . S
H218 N213 0.984 . S
H219 N213 0.985 . S
H220 N217 0.984 . S
H221 N217 0.985 . S
H222 N216 0.984 1_556 S
H223 N216 0.984 . S
H224 N212 0.984 1_556 S
H225 N212 0.985 . S
C226 C227 1.363 . S
C226 C232 1.379 . S
C226 N234 1.356 . S
C227 C226 1.363 . S
C227 C233 1.363 . S
C228 C229 1.363 . S
C228 C233 1.379 . S
C228 N235 1.356 . S
C229 C228 1.363 . S
C229 C232 1.363 . S
N230 C232 1.356 . S
N230 H242 0.984 . S
N230 H243 0.985 . S
N231 C233 1.356 . S
N231 H236 0.984 . S
N231 H237 0.985 . S
C232 C226 1.379 . S
C232 C229 1.363 . S
C232 N230 1.356 . S
C233 C227 1.363 . S
C233 C228 1.379 . S
C233 N231 1.356 . S
N234 C226 1.356 . S
N234 H240 0.984 . S
N234 H241 0.984 . S
N235 C228 1.356 . S
N235 H238 0.984 . S
N235 H239 0.985 . S
H236 N231 0.984 . S
H237 N231 0.985 . S
H238 N235 0.984 . S
H239 N235 0.985 . S
H240 N234 0.984 . S
H241 N234 0.984 . S
H242 N230 0.984 . S
H243 N230 0.985 . S
C244 C245 1.363 . S
C244 C250 1.379 . S
C244 N252 1.356 . S
C245 C244 1.363 . S
C245 C251 1.363 . S
C246 C247 1.363 . S
C246 C251 1.379 . S
C246 N253 1.356 . S
C247 C246 1.363 . S
C247 C250 1.363 . S
N248 C250 1.356 . S
N248 H260 0.984 . S
N248 H261 0.985 . S
N249 C251 1.356 . S
N249 H254 0.984 . S
N249 H255 0.985 . S
C250 C244 1.379 . S
C250 C247 1.363 . S
C250 N248 1.356 . S
C251 C245 1.363 . S
C251 C246 1.379 . S
C251 N249 1.356 . S
N252 C244 1.356 . S
N252 H258 0.984 . S
N252 H259 0.984 . S
N253 C246 1.356 . S
N253 H256 0.984 . S
N253 H257 0.985 . S
H254 N249 0.984 . S
H255 N249 0.985 . S
H256 N253 0.984 . S
H257 N253 0.985 . S
H258 N252 0.984 . S
H259 N252 0.984 . S
H260 N248 0.984 . S
H261 N248 0.985 . S
C262 C263 1.363 . S
C262 C268 1.379 . S
C262 N270 1.356 1_556 S
C263 C262 1.363 . S
C263 C269 1.363 . S
C264 C265 1.363 . S
C264 C269 1.379 . S
C264 N271 1.356 . S
C265 C264 1.363 . S
C265 C268 1.363 . S
N266 C268 1.356 1_554 S
N266 H278 0.984 . S
N266 H279 0.985 . S
N267 C269 1.356 . S
N267 H272 0.984 . S
N267 H273 0.985 . S
C268 C262 1.379 . S
C268 C265 1.363 . S
C268 N266 1.356 1_556 S
C269 C263 1.363 . S
C269 C264 1.379 . S
C269 N267 1.356 . S
N270 C262 1.356 1_554 S
N270 H276 0.984 . S
N270 H277 0.984 . S
N271 C264 1.356 . S
N271 H274 0.984 . S
N271 H275 0.985 . S
H272 N267 0.984 . S
H273 N267 0.985 . S
H274 N271 0.984 . S
H275 N271 0.985 . S
H276 N270 0.984 . S
H277 N270 0.984 . S
H278 N266 0.984 . S
H279 N266 0.985 . S
C280 C281 1.363 . S
C280 C286 1.379 . S
C280 N288 1.356 . S
C281 C280 1.363 . S
C281 C287 1.363 . S
C282 C283 1.363 . S
C282 C287 1.379 . S
C282 N289 1.356 1_556 S
C283 C282 1.363 . S
C283 C286 1.363 . S
N284 C286 1.356 . S
N284 H296 0.984 . S
N284 H297 0.985 . S
N285 C287 1.356 1_554 S
N285 H290 0.984 1_554 S
N285 H291 0.985 . S
C286 C280 1.379 . S
C286 C283 1.363 . S
C286 N284 1.356 . S
C287 C281 1.363 . S
C287 C282 1.379 . S
C287 N285 1.356 1_556 S
N288 C280 1.356 . S
N288 H294 0.984 . S
N288 H295 0.984 . S
N289 C282 1.356 1_554 S
N289 H292 0.984 . S
N289 H293 0.985 . S
H290 N285 0.984 1_556 S
H291 N285 0.985 . S
H292 N289 0.984 . S
H293 N289 0.985 . S
H294 N288 0.984 . S
H295 N288 0.984 . S
H296 N284 0.984 . S
H297 N284 0.985 . S
C298 C299 1.363 . S
C298 C304 1.379 . S
C298 N306 1.356 . S
C299 C298 1.363 . S
C299 C305 1.363 . S
C300 C301 1.363 . S
C300 C305 1.379 . S
C300 N307 1.356 . S
C301 C300 1.363 . S
C301 C304 1.363 . S
N302 C304 1.356 . S
N302 H314 0.984 1_554 S
N302 H315 0.985 . S
N303 C305 1.356 . S
N303 H308 0.984 . S
N303 H309 0.985 . S
C304 C298 1.379 . S
C304 C301 1.363 . S
C304 N302 1.356 . S
C305 C299 1.363 . S
C305 C300 1.379 . S
C305 N303 1.356 . S
N306 C298 1.356 . S
N306 H312 0.984 . S
N306 H313 0.984 . S
N307 C300 1.356 . S
N307 H310 0.984 . S
N307 H311 0.985 . S
H308 N303 0.984 . S
H309 N303 0.985 . S
H310 N307 0.984 . S
H311 N307 0.985 . S
H312 N306 0.984 . S
H313 N306 0.984 . S
H314 N302 0.984 1_556 S
H315 N302 0.985 . S
C316 C317 1.363 . S
C316 C322 1.379 . S
C316 N324 1.356 . S
C317 C316 1.363 . S
C317 C323 1.363 . S
C318 C319 1.363 . S
C318 C323 1.379 . S
C318 N325 1.356 . S
C319 C318 1.363 . S
C319 C322 1.363 . S
N320 C322 1.356 . S
N320 H332 0.984 . S
N320 H333 0.985 . S
N321 C323 1.356 . S
N321 H326 0.984 . S
N321 H327 0.985 . S
C322 C316 1.379 . S
C322 C319 1.363 . S
C322 N320 1.356 . S
C323 C317 1.363 . S
C323 C318 1.379 . S
C323 N321 1.356 . S
N324 C316 1.356 . S
N324 H330 0.984 . S
N324 H331 0.984 . S
N325 C318 1.356 . S
N325 H328 0.984 . S
N325 H329 0.985 . S
H326 N321 0.984 . S
H327 N321 0.985 . S
H328 N325 0.984 . S
H329 N325 0.985 . S
H330 N324 0.984 . S
H331 N324 0.984 . S
H332 N320 0.984 . S
H333 N320 0.985 . S
C334 C335 1.363 . S
C334 C340 1.379 . S
C334 N342 1.356 . S
C335 C334 1.363 . S
C335 C341 1.363 . S
C336 C337 1.363 . S
C336 C341 1.379 . S
C336 N343 1.356 . S
C337 C336 1.363 . S
C337 C340 1.363 . S
N338 C340 1.356 . S
N338 H350 0.984 . S
N338 H351 0.985 . S
N339 C341 1.356 . S
N339 H344 0.984 . S
N339 H345 0.985 . S
C340 C334 1.379 . S
C340 C337 1.363 . S
C340 N338 1.356 . S
C341 C335 1.363 . S
C341 C336 1.379 . S
C341 N339 1.356 . S
N342 C334 1.356 . S
N342 H348 0.984 . S
N342 H349 0.984 . S
N343 C336 1.356 . S
N343 H346 0.984 . S
N343 H347 0.985 . S
H344 N339 0.984 . S
H345 N339 0.985 . S
H346 N343 0.984 . S
H347 N343 0.985 . S
H348 N342 0.984 . S
H349 N342 0.984 . S
H350 N338 0.984 . S
H351 N338 0.985 . S
C352 C353 1.363 . S
C352 C358 1.379 1_556 S
C352 N360 1.356 . S
C353 C352 1.363 . S
C353 C359 1.363 . S
C354 C355 1.363 . S
C354 C359 1.379 . S
C354 N361 1.356 . S
C355 C354 1.363 . S
C355 C358 1.363 1_556 S
N356 C358 1.356 . S
N356 H368 0.984 . S
N356 H369 0.985 . S
N357 C359 1.356 . S
N357 H362 0.984 . S
N357 H363 0.985 . S
C358 C352 1.379 1_554 S
C358 C355 1.363 1_554 S
C358 N356 1.356 . S
C359 C353 1.363 . S
C359 C354 1.379 . S
C359 N357 1.356 . S
N360 C352 1.356 . S
N360 H366 0.984 1_556 S
N360 H367 0.984 . S
N361 C354 1.356 . S
N361 H364 0.984 . S
N361 H365 0.985 . S
H362 N357 0.984 . S
H363 N357 0.985 . S
H364 N361 0.984 . S
H365 N361 0.985 . S
H366 N360 0.984 1_554 S
H367 N360 0.984 . S
H368 N356 0.984 . S
H369 N356 0.985 . S
C370 C371 1.363 . S
C370 C376 1.379 . S
C370 N378 1.356 . S
C371 C370 1.363 . S
C371 C377 1.363 . S
C372 C373 1.363 . S
C372 C377 1.379 . S
C372 N379 1.356 . S
C373 C372 1.363 . S
C373 C376 1.363 . S
N374 C376 1.356 . S
N374 H386 0.984 . S
N374 H387 0.985 . S
N375 C377 1.356 . S
N375 H380 0.984 . S
N375 H381 0.985 . S
C376 C370 1.379 . S
C376 C373 1.363 . S
C376 N374 1.356 . S
C377 C371 1.363 . S
C377 C372 1.379 . S
C377 N375 1.356 . S
N378 C370 1.356 . S
N378 H384 0.984 . S
N378 H385 0.984 . S
N379 C372 1.356 . S
N379 H382 0.984 . S
N379 H383 0.985 . S
H380 N375 0.984 . S
H381 N375 0.985 . S
H382 N379 0.984 . S
H383 N379 0.985 . S
H384 N378 0.984 . S
H385 N378 0.984 . S
H386 N374 0.984 . S
H387 N374 0.985 . S
C388 C389 1.363 . S
C388 C394 1.379 . S
C388 N396 1.356 . S
C389 C388 1.363 . S
C389 C395 1.363 . S
C390 C391 1.363 . S
C390 C395 1.379 . S
C390 N397 1.356 . S
C391 C390 1.363 . S
C391 C394 1.363 . S
N392 C394 1.356 . S
N392 H404 0.984 . S
N392 H405 0.985 . S
N393 C395 1.356 . S
N393 H398 0.984 . S
N393 H399 0.985 . S
C394 C388 1.379 . S
C394 C391 1.363 . S
C394 N392 1.356 . S
C395 C389 1.363 . S
C395 C390 1.379 . S
C395 N393 1.356 . S
N396 C388 1.356 . S
N396 H402 0.984 . S
N396 H403 0.984 . S
N397 C390 1.356 . S
N397 H400 0.984 . S
N397 H401 0.985 . S
H398 N393 0.984 . S
H399 N393 0.985 . S
H400 N397 0.984 . S
H401 N397 0.985 . S
H402 N396 0.984 . S
H403 N396 0.984 . S
H404 N392 0.984 . S
H405 N392 0.985 . S
C406 C407 1.363 . S
C406 C412 1.379 . S
C406 N414 1.356 1_554 S
C407 C406 1.363 . S
C407 C413 1.363 . S
C408 C409 1.363 . S
C408 C413 1.379 . S
C408 N415 1.356 . S
C409 C408 1.363 . S
C409 C412 1.363 . S
N410 C412 1.356 . S
N410 H422 0.984 . S
N410 H423 0.985 . S
N411 C413 1.356 . S
N411 H416 0.984 . S
N411 H417 0.985 . S
C412 C406 1.379 . S
C412 C409 1.363 . S
C412 N410 1.356 . S
C413 C407 1.363 . S
C413 C408 1.379 . S
C413 N411 1.356 . S
N414 C406 1.356 1_556 S
N414 H420 0.984 . S
N414 H421 0.984 . S
N415 C408 1.356 . S
N415 H418 0.984 . S
N415 H419 0.985 . S
H416 N411 0.984 . S
H417 N411 0.985 . S
H418 N415 0.984 . S
H419 N415 0.985 . S
H420 N414 0.984 . S
H421 N414 0.984 . S
H422 N410 0.984 . S
H423 N410 0.985 . S
C424 C425 1.363 . S
C424 C430 1.379 . S
C424 N432 1.356 . S
C425 C424 1.363 . S
C425 C431 1.363 . S
C426 C427 1.363 . S
C426 C431 1.379 . S
C426 N433 1.356 . S
C427 C426 1.363 . S
C427 C430 1.363 . S
N428 C430 1.356 1_556 S
N428 H440 0.984 . S
N428 H441 0.985 . S
N429 C431 1.356 . S
N429 H434 0.984 . S
N429 H435 0.985 . S
C430 C424 1.379 . S
C430 C427 1.363 . S
C430 N428 1.356 1_554 S
C431 C425 1.363 . S
C431 C426 1.379 . S
C431 N429 1.356 . S
N432 C424 1.356 . S
N432 H438 0.984 . S
N432 H439 0.984 . S
N433 C426 1.356 . S
N433 H436 0.984 . S
N433 H437 0.985 . S
H434 N429 0.984 . S
H435 N429 0.985 . S
H436 N433 0.984 . S
H437 N433 0.985 . S
H438 N432 0.984 . S
H439 N432 0.984 . S
H440 N428 0.984 . S
H441 N428 0.985 . S
C442 C443 1.363 . S
C442 C448 1.379 . S
C442 N450 1.356 . S
C443 C442 1.363 . S
C443 C449 1.363 . S
C444 C445 1.363 1_554 S
C444 C449 1.379 1_554 S
C444 N451 1.356 . S
C445 C444 1.363 1_556 S
C445 C448 1.363 . S
N446 C448 1.356 . S
N446 H458 0.984 . S
N446 H459 0.985 . S
N447 C449 1.356 . S
N447 H452 0.984 . S
N447 H453 0.985 1_556 S
C448 C442 1.379 . S
C448 C445 1.363 . S
C448 N446 1.356 . S
C449 C443 1.363 . S
C449 C444 1.379 1_556 S
C449 N447 1.356 . S
N450 C442 1.356 . S
N450 H456 0.984 . S
N450 H457 0.984 . S
N451 C444 1.356 . S
N451 H454 0.984 . S
N451 H455 0.985 . S
H452 N447 0.984 . S
H453 N447 0.985 1_554 S
H454 N451 0.984 . S
H455 N451 0.985 . S
H456 N450 0.984 . S
H457 N450 0.984 . S
H458 N446 0.984 . S
H459 N446 0.985 . S
C460 C461 1.363 . S
C460 C466 1.379 . S
C460 N468 1.356 . S
C461 C460 1.363 . S
C461 C467 1.363 . S
C462 C463 1.363 . S
C462 C467 1.379 . S
C462 N469 1.356 . S
C463 C462 1.363 . S
C463 C466 1.363 . S
N464 C466 1.356 . S
N464 H476 0.984 . S
N464 H477 0.985 . S
N465 C467 1.356 . S
N465 H470 0.984 . S
N465 H471 0.985 . S
C466 C460 1.379 . S
C466 C463 1.363 . S
C466 N464 1.356 . S
C467 C461 1.363 . S
C467 C462 1.379 . S
C467 N465 1.356 . S
N468 C460 1.356 . S
N468 H474 0.984 . S
N468 H475 0.984 . S
N469 C462 1.356 . S
N469 H472 0.984 . S
N469 H473 0.985 . S
H470 N465 0.984 . S
H471 N465 0.985 . S
H472 N469 0.984 . S
H473 N469 0.985 . S
H474 N468 0.984 . S
H475 N468 0.984 . S
H476 N464 0.984 . S
H477 N464 0.985 . S
C478 C479 1.363 . S
C478 C484 1.379 . S
C478 N486 1.356 . S
C479 C478 1.363 . S
C479 C485 1.363 . S
C480 C481 1.363 . S
C480 C485 1.379 . S
C480 N487 1.356 . S
C481 C480 1.363 . S
C481 C484 1.363 . S
N482 C484 1.356 . S
N482 H494 0.984 . S
N482 H495 0.985 . S
N483 C485 1.356 . S
N483 H488 0.984 . S
N483 H489 0.985 . S
C484 C478 1.379 . S
C484 C481 1.363 . S
C484 N482 1.356 . S
C485 C479 1.363 . S
C485 C480 1.379 . S
C485 N483 1.356 . S
N486 C478 1.356 . S
N486 H492 0.984 . S
N486 H493 0.984 . S
N487 C480 1.356 . S
N487 H490 0.984 . S
N487 H491 0.985 . S
H488 N483 0.984 . S
H489 N483 0.985 . S
H490 N487 0.984 . S
H491 N487 0.985 . S
H492 N486 0.984 . S
H493 N486 0.984 . S
H494 N482 0.984 . S
H495 N482 0.985 . S
C496 C497 1.363 . S
C496 C502 1.379 . S
C496 N504 1.356 . S
C497 C496 1.363 . S
C497 C503 1.363 1_455 S
C498 C499 1.363 1_655 S
C498 C503 1.379 1_556 S
C498 N505 1.356 . S
C499 C498 1.363 1_455 S
C499 C502 1.363 1_556 S
N500 C502 1.356 . S
N500 H512 0.984 . S
N500 H513 0.985 1_554 S
N501 C503 1.356 . S
N501 H506 0.984 . S
N501 H507 0.985 . S
C502 C496 1.379 . S
C502 C499 1.363 1_554 S
C502 N500 1.356 . S
C503 C497 1.363 1_655 S
C503 C498 1.379 1_554 S
C503 N501 1.356 . S
N504 C496 1.356 . S
N504 H510 0.984 . S
N504 H511 0.984 . S
N505 C498 1.356 . S
N505 H508 0.984 . S
N505 H509 0.985 . S
H506 N501 0.984 . S
H507 N501 0.985 . S
H508 N505 0.984 . S
H509 N505 0.985 . S
H510 N504 0.984 . S
H511 N504 0.984 . S
H512 N500 0.984 . S
H513 N500 0.985 1_556 S
C514 C515 1.363 . S
C514 C520 1.379 . S
C514 N522 1.356 . S
C515 C514 1.363 . S
C515 C521 1.363 . S
C516 C517 1.363 . S
C516 C521 1.379 . S
C516 N523 1.356 . S
C517 C516 1.363 . S
C517 C520 1.363 . S
N518 C520 1.356 . S
N518 H530 0.984 . S
N518 H531 0.985 . S
N519 C521 1.356 . S
N519 H524 0.984 . S
N519 H525 0.985 . S
C520 C514 1.379 . S
C520 C517 1.363 . S
C520 N518 1.356 . S
C521 C515 1.363 . S
C521 C516 1.379 . S
C521 N519 1.356 . S
N522 C514 1.356 . S
N522 H528 0.984 . S
N522 H529 0.984 . S
N523 C516 1.356 . S
N523 H526 0.984 . S
N523 H527 0.985 . S
H524 N519 0.984 . S
H525 N519 0.985 . S
H526 N523 0.984 . S
H527 N523 0.985 . S
H528 N522 0.984 . S
H529 N522 0.984 . S
H530 N518 0.984 . S
H531 N518 0.985 . S
C532 C533 1.363 . S
C532 C538 1.379 . S
C532 N540 1.356 . S
C533 C532 1.363 . S
C533 C539 1.363 . S
C534 C535 1.363 . S
C534 C539 1.379 . S
C534 N541 1.356 . S
C535 C534 1.363 . S
C535 C538 1.363 . S
N536 C538 1.356 . S
N536 H548 0.984 . S
N536 H549 0.985 . S
N537 C539 1.356 . S
N537 H542 0.984 . S
N537 H543 0.985 . S
C538 C532 1.379 . S
C538 C535 1.363 . S
C538 N536 1.356 . S
C539 C533 1.363 . S
C539 C534 1.379 . S
C539 N537 1.356 . S
N540 C532 1.356 . S
N540 H546 0.984 . S
N540 H547 0.984 . S
N541 C534 1.356 . S
N541 H544 0.984 . S
N541 H545 0.985 . S
H542 N537 0.984 . S
H543 N537 0.985 . S
H544 N541 0.984 . S
H545 N541 0.985 . S
H546 N540 0.984 . S
H547 N540 0.984 . S
H548 N536 0.984 . S
H549 N536 0.985 . S
C550 C551 1.363 . S
C550 C556 1.379 . S
C550 N558 1.356 . S
C551 C550 1.363 . S
C551 C557 1.363 . S
C552 C553 1.363 . S
C552 C557 1.379 . S
C552 N559 1.356 . S
C553 C552 1.363 . S
C553 C556 1.363 . S
N554 C556 1.356 . S
N554 H566 0.984 . S
N554 H567 0.985 . S
N555 C557 1.356 . S
N555 H560 0.984 . S
N555 H561 0.985 . S
C556 C550 1.379 . S
C556 C553 1.363 . S
C556 N554 1.356 . S
C557 C551 1.363 . S
C557 C552 1.379 . S
C557 N555 1.356 . S
N558 C550 1.356 . S
N558 H564 0.984 . S
N558 H565 0.984 . S
N559 C552 1.356 . S
N559 H562 0.984 . S
N559 H563 0.985 . S
H560 N555 0.984 . S
H561 N555 0.985 . S
H562 N559 0.984 . S
H563 N559 0.985 . S
H564 N558 0.984 . S
H565 N558 0.984 . S
H566 N554 0.984 . S
H567 N554 0.985 . S
C568 C569 1.363 . S
C568 C574 1.379 . S
C568 N576 1.356 . S
C569 C568 1.363 . S
C569 C575 1.363 . S
C570 C571 1.363 . S
C570 C575 1.379 . S
C570 N577 1.356 . S
C571 C570 1.363 . S
C571 C574 1.363 . S
N572 C574 1.356 . S
N572 H584 0.984 . S
N572 H585 0.985 . S
N573 C575 1.356 . S
N573 H578 0.984 . S
N573 H579 0.985 . S
C574 C568 1.379 . S
C574 C571 1.363 . S
C574 N572 1.356 . S
C575 C569 1.363 . S
C575 C570 1.379 . S
C575 N573 1.356 . S
N576 C568 1.356 . S
N576 H582 0.984 . S
N576 H583 0.984 . S
N577 C570 1.356 . S
N577 H580 0.984 . S
N577 H581 0.985 . S
H578 N573 0.984 . S
H579 N573 0.985 . S
H580 N577 0.984 . S
H581 N577 0.985 . S
H582 N576 0.984 . S
H583 N576 0.984 . S
H584 N572 0.984 . S
H585 N572 0.985 . S
C586 C587 1.363 . S
C586 C592 1.379 . S
C586 N594 1.356 . S
C587 C586 1.363 . S
C587 C593 1.363 . S
C588 C589 1.363 . S
C588 C593 1.379 . S
C588 N595 1.356 . S
C589 C588 1.363 . S
C589 C592 1.363 . S
N590 C592 1.356 . S
N590 H602 0.984 . S
N590 H603 0.985 . S
N591 C593 1.356 . S
N591 H596 0.984 . S
N591 H597 0.985 . S
C592 C586 1.379 . S
C592 C589 1.363 . S
C592 N590 1.356 . S
C593 C587 1.363 . S
C593 C588 1.379 . S
C593 N591 1.356 . S
N594 C586 1.356 . S
N594 H600 0.984 . S
N594 H601 0.984 . S
N595 C588 1.356 . S
N595 H598 0.984 . S
N595 H599 0.985 . S
H596 N591 0.984 . S
H597 N591 0.985 . S
H598 N595 0.984 . S
H599 N595 0.985 . S
H600 N594 0.984 . S
H601 N594 0.984 . S
H602 N590 0.984 . S
H603 N590 0.985 . S
C604 C605 1.363 . S
C604 C610 1.379 1_565 S
C604 N612 1.356 . S
C605 C604 1.363 . S
C605 C611 1.363 . S
C606 C607 1.363 . S
C606 C611 1.379 1_545 S
C606 N613 1.356 . S
C607 C606 1.363 . S
C607 C610 1.363 . S
N608 C610 1.356 . S
N608 H620 0.984 . S
N608 H621 0.985 . S
N609 C611 1.356 . S
N609 H614 0.984 . S
N609 H615 0.985 . S
C610 C604 1.379 1_545 S
C610 C607 1.363 . S
C610 N608 1.356 . S
C611 C605 1.363 . S
C611 C606 1.379 1_565 S
C611 N609 1.356 . S
N612 C604 1.356 . S
N612 H618 0.984 . S
N612 H619 0.984 . S
N613 C606 1.356 . S
N613 H616 0.984 . S
N613 H617 0.985 . S
H614 N609 0.984 . S
H615 N609 0.985 . S
H616 N613 0.984 . S
H617 N613 0.985 . S
H618 N612 0.984 . S
H619 N612 0.984 . S
H620 N608 0.984 . S
H621 N608 0.985 . S
C622 C623 1.366 1_565 S
C622 C628 1.376 1_556 S
C622 N630 1.357 1_565 S
C623 C622 1.366 1_545 S
C623 C629 1.363 1_656 S
C624 C625 1.366 1_445 S
C624 C629 1.376 . S
C624 N631 1.357 1_545 S
C625 C624 1.366 1_665 S
C625 C628 1.363 . S
N626 C628 1.356 . S
N626 H638 0.984 1_554 S
N626 H639 0.985 . S
N627 C629 1.356 . S
N627 H632 0.984 . S
N627 H633 0.985 . S
C628 C622 1.376 1_554 S
C628 C625 1.363 . S
C628 N626 1.356 . S
C629 C623 1.363 1_454 S
C629 C624 1.376 . S
C629 N627 1.356 . S
N630 C622 1.357 1_545 S
N630 H636 0.984 1_545 S
N630 H637 0.984 . S
N631 C624 1.357 1_565 S
N631 H634 0.984 . S
N631 H635 0.985 1_565 S
H632 N627 0.984 . S
H633 N627 0.985 . S
H634 N631 0.984 . S
H635 N631 0.985 1_545 S
H636 N630 0.984 1_565 S
H637 N630 0.984 . S
H638 N626 0.984 1_556 S
H639 N626 0.985 . S
C640 C641 1.363 1_455 S
C640 C646 1.379 . S
C640 N648 1.356 . S
C641 C640 1.363 1_655 S
C641 C647 1.363 . S
C642 C643 1.363 . S
C642 C647 1.379 . S
C642 N649 1.356 . S
C643 C642 1.363 . S
C643 C646 1.363 1_655 S
N644 C646 1.356 . S
N644 H656 0.984 . S
N644 H657 0.985 . S
N645 C647 1.356 . S
N645 H650 0.984 . S
N645 H651 0.985 . S
C646 C640 1.379 . S
C646 C643 1.363 1_455 S
C646 N644 1.356 . S
C647 C641 1.363 . S
C647 C642 1.379 . S
C647 N645 1.356 . S
N648 C640 1.356 . S
N648 H654 0.984 . S
N648 H655 0.984 . S
N649 C642 1.356 . S
N649 H652 0.984 . S
N649 H653 0.985 . S
H650 N645 0.984 . S
H651 N645 0.985 . S
H652 N649 0.984 . S
H653 N649 0.985 . S
H654 N648 0.984 . S
H655 N648 0.984 . S
H656 N644 0.984 . S
H657 N644 0.985 . S
C658 C659 1.363 . S
C658 C664 1.379 . S
C658 N666 1.356 . S
C659 C658 1.363 . S
C659 C665 1.363 . S
C660 C661 1.363 . S
C660 C665 1.379 . S
C660 N667 1.356 . S
C661 C660 1.363 . S
C661 C664 1.363 . S
N662 C664 1.356 . S
N662 H674 0.984 . S
N662 H675 0.985 . S
N663 C665 1.356 . S
N663 H668 0.984 . S
N663 H669 0.985 . S
C664 C658 1.379 . S
C664 C661 1.363 . S
C664 N662 1.356 . S
C665 C659 1.363 . S
C665 C660 1.379 . S
C665 N663 1.356 . S
N666 C658 1.356 . S
N666 H672 0.984 . S
N666 H673 0.984 . S
N667 C660 1.356 . S
N667 H670 0.984 . S
N667 H671 0.985 . S
H668 N663 0.984 . S
H669 N663 0.985 . S
H670 N667 0.984 . S
H671 N667 0.985 . S
H672 N666 0.984 . S
H673 N666 0.984 . S
H674 N662 0.984 . S
H675 N662 0.985 . S
C676 C677 1.363 . S
C676 C682 1.379 1_554 S
C676 N684 1.356 . S
C677 C676 1.363 . S
C677 C683 1.363 . S
C678 C679 1.363 1_554 S
C678 C683 1.379 . S
C678 N685 1.356 . S
C679 C678 1.363 1_556 S
C679 C682 1.363 . S
N680 C682 1.356 . S
N680 H692 0.984 . S
N680 H693 0.985 . S
N681 C683 1.356 . S
N681 H686 0.984 . S
N681 H687 0.985 . S
C682 C676 1.379 1_556 S
C682 C679 1.363 . S
C682 N680 1.356 . S
C683 C677 1.363 . S
C683 C678 1.379 . S
C683 N681 1.356 . S
N684 C676 1.356 . S
N684 H690 0.984 . S
N684 H691 0.984 . S
N685 C678 1.356 . S
N685 H688 0.984 1_554 S
N685 H689 0.985 . S
H686 N681 0.984 . S
H687 N681 0.985 . S
H688 N685 0.984 1_556 S
H689 N685 0.985 . S
H690 N684 0.984 . S
H691 N684 0.984 . S
H692 N680 0.984 . S
H693 N680 0.985 . S
C694 C695 1.363 . S
C694 C700 1.379 . S
C694 N702 1.356 . S
C695 C694 1.363 . S
C695 C701 1.363 . S
C696 C697 1.363 . S
C696 C701 1.379 . S
C696 N703 1.356 . S
C697 C696 1.363 . S
C697 C700 1.363 . S
N698 C700 1.356 . S
N698 H710 0.984 . S
N698 H711 0.985 . S
N699 C701 1.356 . S
N699 H704 0.984 . S
N699 H705 0.985 . S
C700 C694 1.379 . S
C700 C697 1.363 . S
C700 N698 1.356 . S
C701 C695 1.363 . S
C701 C696 1.379 . S
C701 N699 1.356 . S
N702 C694 1.356 . S
N702 H708 0.984 . S
N702 H709 0.984 . S
N703 C696 1.356 . S
N703 H706 0.984 . S
N703 H707 0.985 . S
H704 N699 0.984 . S
H705 N699 0.985 . S
H706 N703 0.984 . S
H707 N703 0.985 . S
H708 N702 0.984 . S
H709 N702 0.984 . S
H710 N698 0.984 . S
H711 N698 0.985 . S
C712 C713 1.363 . S
C712 C718 1.379 . S
C712 N720 1.356 . S
C713 C712 1.363 . S
C713 C719 1.363 . S
C714 C715 1.363 . S
C714 C719 1.379 . S
C714 N721 1.356 . S
C715 C714 1.363 . S
C715 C718 1.363 . S
N716 C718 1.356 . S
N716 H728 0.984 . S
N716 H729 0.985 . S
N717 C719 1.356 . S
N717 H722 0.984 . S
N717 H723 0.985 . S
C718 C712 1.379 . S
C718 C715 1.363 . S
C718 N716 1.356 . S
C719 C713 1.363 . S
C719 C714 1.379 . S
C719 N717 1.356 . S
N720 C712 1.356 . S
N720 H726 0.984 . S
N720 H727 0.984 . S
N721 C714 1.356 . S
N721 H724 0.984 . S
N721 H725 0.985 . S
H722 N717 0.984 . S
H723 N717 0.985 . S
H724 N721 0.984 . S
H725 N721 0.985 . S
H726 N720 0.984 . S
H727 N720 0.984 . S
H728 N716 0.984 . S
H729 N716 0.985 . S
C730 C731 1.363 . S
C730 C736 1.379 . S
C730 N738 1.356 . S
C731 C730 1.363 . S
C731 C737 1.363 . S
C732 C733 1.363 . S
C732 C737 1.379 . S
C732 N739 1.356 . S
C733 C732 1.363 . S
C733 C736 1.363 . S
N734 C736 1.356 . S
N734 H746 0.984 . S
N734 H747 0.985 . S
N735 C737 1.356 . S
N735 H740 0.984 . S
N735 H741 0.985 . S
C736 C730 1.379 . S
C736 C733 1.363 . S
C736 N734 1.356 . S
C737 C731 1.363 . S
C737 C732 1.379 . S
C737 N735 1.356 . S
N738 C730 1.356 . S
N738 H744 0.984 . S
N738 H745 0.984 . S
N739 C732 1.356 . S
N739 H742 0.984 . S
N739 H743 0.985 . S
H740 N735 0.984 . S
H741 N735 0.985 . S
H742 N739 0.984 . S
H743 N739 0.985 . S
H744 N738 0.984 . S
H745 N738 0.984 . S
H746 N734 0.984 . S
H747 N734 0.985 . S
C748 C749 1.363 . S
C748 C754 1.377 1_564 S
C748 N756 1.356 . S
C749 C748 1.363 . S
C749 C755 1.366 . S
C750 C751 1.363 1_554 S
C750 C755 1.376 1_545 S
C750 N757 1.356 . S
C751 C750 1.363 1_556 S
C751 C754 1.365 . S
N752 C754 1.357 . S
N752 H764 0.984 1_545 S
N752 H765 0.985 . S
N753 C755 1.357 . S
N753 H758 0.984 . S
N753 H759 0.985 1_565 S
C754 C748 1.377 1_546 S
C754 C751 1.365 . S
C754 N752 1.357 . S
C755 C749 1.366 . S
C755 C750 1.376 1_565 S
C755 N753 1.357 . S
N756 C748 1.356 . S
N756 H762 0.984 1_554 S
N756 H763 0.984 . S
N757 C750 1.356 . S
N757 H760 0.984 . S
N757 H761 0.985 . S
H758 N753 0.984 . S
H759 N753 0.985 1_545 S
H760 N757 0.984 . S
H761 N757 0.985 . S
H762 N756 0.984 1_556 S
H763 N756 0.984 . S
H764 N752 0.984 1_565 S
H765 N752 0.985 . S
C766 C767 1.363 . S
C766 C772 1.379 1_545 S
C766 N774 1.356 . S
C767 C766 1.363 . S
C767 C773 1.363 1_455 S
C768 C769 1.363 1_655 S
C768 C773 1.379 1_565 S
C768 N775 1.356 . S
C769 C768 1.363 1_455 S
C769 C772 1.363 . S
N770 C772 1.356 . S
N770 H782 0.984 . S
N770 H783 0.985 . S
N771 C773 1.356 . S
N771 H776 0.984 . S
N771 H777 0.985 . S
C772 C766 1.379 1_565 S
C772 C769 1.363 . S
C772 N770 1.356 . S
C773 C767 1.363 1_655 S
C773 C768 1.379 1_545 S
C773 N771 1.356 . S
N774 C766 1.356 . S
N774 H780 0.984 . S
N774 H781 0.984 . S
N775 C768 1.356 . S
N775 H778 0.984 . S
N775 H779 0.985 . S
H776 N771 0.984 . S
H777 N771 0.985 . S
H778 N775 0.984 . S
H779 N775 0.985 . S
H780 N774 0.984 . S
H781 N774 0.984 . S
H782 N770 0.984 . S
H783 N770 0.985 . S
C209 C120 1.498 . S
C211 C5 1.495 . S
C227 C185 1.498 . S
C229 C18 1.498 . S
C245 C31 1.498 . S
C247 C107 1.498 . S
C263 C44 1.498 . S
C265 C200 1.502 . S
C281 C55 1.498 . S
C283 C133 1.496 . S
C299 C172 1.498 . S
C301 C70 1.502 . S
C317 C146 1.498 . S
C319 C83 1.498 . S
C335 C94 1.498 . S
C337 C159 1.498 . S
C353 C57 1.666 . S
C355 C42 1.670 1_556 S
C371 C161 1.666 . S
C373 C109 1.666 . S
C389 C81 1.666 . S
C391 C16 1.666 . S
C407 C122 1.666 . S
C409 C174 1.663 . S
C425 C3 1.666 . S
C427 C68 1.669 . S
C443 C198 1.666 . S
C445 C135 1.663 1_556 S
C461 C96 1.666 . S
C463 C29 1.666 . S
C479 C148 1.666 . S
C481 C187 1.666 . S
C497 C10 0.961 . S
C499 C56 0.961 . S
C515 C75 0.961 . S
C517 C23 0.961 . S
C533 C88 0.961 . S
C535 C36 0.961 . S
C551 C49 0.961 . S
C553 C95 0.962 . S
C569 C134 0.961 . S
C571 C108 0.962 . S
C587 C147 0.961 . S
C589 C121 0.961 . S
C605 C186 0.961 . S
C607 C160 0.961 . S
C623 C205 0.961 . S
C625 C173 0.961 . S
C641 C62 1.740 . S
C643 C4 1.740 . S
C659 C69 1.740 . S
C661 C17 1.740 . S
C677 C82 1.740 . S
C679 C30 1.740 . S
C695 C43 1.740 . S
C697 C101 1.739 . S
C713 C114 1.740 . S
C715 C140 1.739 . S
C731 C153 1.740 . S
C733 C127 1.740 . S
C749 C192 1.740 . S
C751 C166 1.740 . S
C767 C199 1.740 . S
C769 C179 1.740 . S
