# Generated by pormake.
# Topology lcy-e, (6)-cn, num edge types: 1
# Building blocks:
#     Node 0, Type 0, BuildingBlock: BETFEN_clean_sbu_0, # of connection points: 6
#     Node 1, Type 0, BuildingBlock: BETFEN_clean_sbu_0, # of connection points: 6
#     Node 2, Type 0, BuildingBlock: BETFEN_clean_sbu_0, # of connection points: 6
#     Node 3, Type 0, BuildingBlock: BETFEN_clean_sbu_0, # of connection points: 6
#     Node 4, Type 0, BuildingBlock: BETFEN_clean_sbu_0, # of connection points: 6
#     Node 5, Type 0, BuildingBlock: BETFEN_clean_sbu_0, # of connection points: 6
#     Node 6, Type 0, BuildingBlock: BETFEN_clean_sbu_0, # of connection points: 6
#     Node 7, Type 0, BuildingBlock: BETFEN_clean_sbu_0, # of connection points: 6
#     Node 8, Type 0, BuildingBlock: BETFEN_clean_sbu_0, # of connection points: 6
#     Node 9, Type 0, BuildingBlock: BETFEN_clean_sbu_0, # of connection points: 6
#     Node 10, Type 0, BuildingBlock: BETFEN_clean_sbu_0, # of connection points: 6
#     Node 11, Type 0, BuildingBlock: BETFEN_clean_sbu_0, # of connection points: 6
#     Edge 12, Type (0, 0), BuildingBlock: XIVTED_clean_linker_0, # of connection points: 2
#     Edge 13, Type (0, 0), BuildingBlock: XIVTED_clean_linker_0, # of connection points: 2
#     Edge 14, Type (0, 0), BuildingBlock: XIVTED_clean_linker_0, # of connection points: 2
#     Edge 15, Type (0, 0), BuildingBlock: XIVTED_clean_linker_0, # of connection points: 2
#     Edge 16, Type (0, 0), BuildingBlock: XIVTED_clean_linker_0, # of connection points: 2
#     Edge 17, Type (0, 0), BuildingBlock: XIVTED_clean_linker_0, # of connection points: 2
#     Edge 18, Type (0, 0), BuildingBlock: XIVTED_clean_linker_0, # of connection points: 2
#     Edge 19, Type (0, 0), BuildingBlock: XIVTED_clean_linker_0, # of connection points: 2
#     Edge 20, Type (0, 0), BuildingBlock: XIVTED_clean_linker_0, # of connection points: 2
#     Edge 21, Type (0, 0), BuildingBlock: XIVTED_clean_linker_0, # of connection points: 2
#     Edge 22, Type (0, 0), BuildingBlock: XIVTED_clean_linker_0, # of connection points: 2
#     Edge 23, Type (0, 0), BuildingBlock: XIVTED_clean_linker_0, # of connection points: 2
#     Edge 24, Type (0, 0), BuildingBlock: XIVTED_clean_linker_0, # of connection points: 2
#     Edge 25, Type (0, 0), BuildingBlock: XIVTED_clean_linker_0, # of connection points: 2
#     Edge 26, Type (0, 0), BuildingBlock: XIVTED_clean_linker_0, # of connection points: 2
#     Edge 27, Type (0, 0), BuildingBlock: XIVTED_clean_linker_0, # of connection points: 2
#     Edge 28, Type (0, 0), BuildingBlock: XIVTED_clean_linker_0, # of connection points: 2
#     Edge 29, Type (0, 0), BuildingBlock: XIVTED_clean_linker_0, # of connection points: 2
#     Edge 30, Type (0, 0), BuildingBlock: XIVTED_clean_linker_0, # of connection points: 2
#     Edge 31, Type (0, 0), BuildingBlock: XIVTED_clean_linker_0, # of connection points: 2
#     Edge 32, Type (0, 0), BuildingBlock: XIVTED_clean_linker_0, # of connection points: 2
#     Edge 33, Type (0, 0), BuildingBlock: XIVTED_clean_linker_0, # of connection points: 2
#     Edge 34, Type (0, 0), BuildingBlock: XIVTED_clean_linker_0, # of connection points: 2
#     Edge 35, Type (0, 0), BuildingBlock: XIVTED_clean_linker_0, # of connection points: 2
#     Edge 36, Type (0, 0), BuildingBlock: XIVTED_clean_linker_0, # of connection points: 2
#     Edge 37, Type (0, 0), BuildingBlock: XIVTED_clean_linker_0, # of connection points: 2
#     Edge 38, Type (0, 0), BuildingBlock: XIVTED_clean_linker_0, # of connection points: 2
#     Edge 39, Type (0, 0), BuildingBlock: XIVTED_clean_linker_0, # of connection points: 2
#     Edge 40, Type (0, 0), BuildingBlock: XIVTED_clean_linker_0, # of connection points: 2
#     Edge 41, Type (0, 0), BuildingBlock: XIVTED_clean_linker_0, # of connection points: 2
#     Edge 42, Type (0, 0), BuildingBlock: XIVTED_clean_linker_0, # of connection points: 2
#     Edge 43, Type (0, 0), BuildingBlock: XIVTED_clean_linker_0, # of connection points: 2
#     Edge 44, Type (0, 0), BuildingBlock: XIVTED_clean_linker_0, # of connection points: 2
#     Edge 45, Type (0, 0), BuildingBlock: XIVTED_clean_linker_0, # of connection points: 2
#     Edge 46, Type (0, 0), BuildingBlock: XIVTED_clean_linker_0, # of connection points: 2
#     Edge 47, Type (0, 0), BuildingBlock: XIVTED_clean_linker_0, # of connection points: 2
# Relax obj value: 0.212
# Max RMSD: 0.305
# Mean RMSD: 0.293
data_MOF--net-lcy-e--node1-BETFEN_clean_sbu_0--edge1-XIVTED_clean_linker_0
_symmetry_space_group_name_H-M    P1
_symmetry_Int_Tables_number       1
_symmetry_cell_setting            triclinic
loop_
_symmetry_equiv_pos_as_xyz
'x, y, z'
_cell_length_a     44.892161
_cell_length_b     43.843508
_cell_length_c     45.878251
_cell_angle_alpha  90.030808
_cell_angle_beta   88.579532
_cell_angle_gamma 88.553481
loop_
_atom_site_label
_atom_site_type_symbol
_atom_site_fract_x
_atom_site_fract_y
_atom_site_fract_z
_atom_type_partial_charge
Pr0 Pr 0.11746 0.2325 0.51224 0.0
Pr1 Pr 0.11231 0.27796 0.45642 0.0
C2 C 0.10941 0.2049 0.56401 0.0
C3 C 0.10545 0.17339 0.57357 0.0
C4 C 0.09586 0.15138 0.5539 0.0
C5 C 0.08958 0.12203 0.56358 0.0
C6 C 0.09311 0.1142 0.59299 0.0
C7 C 0.10373 0.13604 0.61239 0.0
C8 C 0.10976 0.1655 0.60273 0.0
C9 C 0.16194 0.2172 0.47026 0.0
C10 C 0.07092 0.21452 0.4606 0.0
C11 C 0.11147 0.30141 0.40208 0.0
C12 C 0.12568 0.3196 0.37856 0.0
C13 C 0.11555 0.34963 0.37345 0.0
C14 C 0.12483 0.36524 0.34841 0.0
C15 C 0.14429 0.35113 0.32769 0.0
C16 C 0.15562 0.32163 0.3335 0.0
C17 C 0.14632 0.30597 0.35861 0.0
C18 C 0.07931 0.29469 0.50676 0.0
C19 C 0.15547 0.29682 0.50772 0.0
O20 O 0.08762 0.21647 0.54886 0.0
O21 O 0.13583 0.21162 0.55354 0.0
O22 O 0.14235 0.2381 0.4688 0.0
O23 O 0.15789 0.20185 0.49417 0.0
O24 O 0.07738 0.24041 0.44726 0.0
O25 O 0.08373 0.20549 0.4849 0.0
O26 O 0.12299 0.27447 0.40814 0.0
O27 O 0.0994 0.31552 0.42481 0.0
O28 O 0.08322 0.26802 0.49676 0.0
O29 O 0.09102 0.3146 0.48904 0.0
O30 O 0.13983 0.27846 0.52487 0.0
O31 O 0.1542 0.29575 0.47897 0.0
H32 H 0.0926 0.15711 0.53121 0.0
H33 H 0.08173 0.10553 0.54815 0.0
H34 H 0.10638 0.13066 0.63524 0.0
H35 H 0.11711 0.1823 0.61814 0.0
H36 H 0.09948 0.36072 0.38822 0.0
H37 H 0.11611 0.38817 0.3449 0.0
H38 H 0.17051 0.31003 0.31795 0.0
H39 H 0.15435 0.28272 0.3617 0.0
Pr40 Pr 0.96724 0.88546 0.7222 0.0
Pr41 Pr 0.02316 0.89481 0.75934 0.0
C42 C 0.91555 0.88295 0.69365 0.0
C43 C 0.90547 0.89334 0.66452 0.0
C44 C 0.91203 0.87586 0.63935 0.0
C45 C 0.90323 0.88612 0.61191 0.0
C46 C 0.88749 0.91408 0.60883 0.0
C47 C 0.88085 0.93152 0.63403 0.0
C48 C 0.88964 0.92124 0.66152 0.0
C49 C 0.01605 0.84705 0.70855 0.0
C50 C 0.01734 0.93151 0.69599 0.0
C51 C 0.07872 0.89669 0.78038 0.0
C52 C 0.10103 0.88074 0.79866 0.0
C53 C 0.10473 0.8898 0.8277 0.0
C54 C 0.12802 0.87746 0.84401 0.0
C55 C 0.14838 0.85592 0.83162 0.0
C56 C 0.14415 0.84618 0.80284 0.0
C57 C 0.12082 0.8585 0.78652 0.0
C58 C 0.97436 0.9334 0.77336 0.0
C59 C 0.97239 0.85359 0.78843 0.0
O60 O 0.92095 0.90417 0.71269 0.0
O61 O 0.93493 0.86017 0.69432 0.0
O62 O 1.00695 0.85359 0.73408 0.0
O63 O 0.99963 0.86016 0.68907 0.0
O64 O 0.03498 0.92069 0.71627 0.0
O65 O 0.989 0.92443 0.69514 0.0
O66 O 0.07269 0.8846 0.75517 0.0
O67 O 0.05549 0.90989 0.79336 0.0
O68 O 0.98315 0.92612 0.74793 0.0
O69 O 0.99271 0.92276 0.79258 0.0
O70 O 0.95413 0.86479 0.76852 0.0
O71 O 1.00148 0.85663 0.78627 0.0
H72 H 0.92416 0.85427 0.64073 0.0
H73 H 0.90907 0.8722 0.59302 0.0
H74 H 0.86838 0.95291 0.63261 0.0
H75 H 0.88404 0.9352 0.68046 0.0
H76 H 0.09006 0.90705 0.83766 0.0
H77 H 0.13028 0.88514 0.86627 0.0
H78 H 0.15956 0.82989 0.79247 0.0
H79 H 0.11887 0.85124 0.76409 0.0
Pr80 Pr 0.37468 0.74177 0.97545 0.0
Pr81 Pr 0.35756 0.79441 0.01371 0.0
C82 C 0.38823 0.6893 0.94699 0.0
C83 C 0.3797 0.67828 0.91833 0.0
C84 C 0.36352 0.69767 0.89989 0.0
C85 C 0.35432 0.6872 0.87295 0.0
C86 C 0.36119 0.65715 0.86398 0.0
C87 C 0.37772 0.63786 0.88245 0.0
C88 C 0.38686 0.64837 0.90951 0.0
C89 C 0.40737 0.79402 0.96374 0.0
C90 C 0.32312 0.78708 0.9504 0.0
C91 C 0.34606 0.8497 0.03776 0.0
C92 C 0.36059 0.87334 0.05453 0.0
C93 C 0.34327 0.89765 0.06602 0.0
C94 C 0.35652 0.92063 0.08185 0.0
C95 C 0.38739 0.91967 0.08652 0.0
C96 C 0.40476 0.89524 0.07476 0.0
C97 C 0.39142 0.87218 0.0589 0.0
C98 C 0.32489 0.74207 0.02544 0.0
C99 C 0.40347 0.74713 0.04105 0.0
O100 O 0.36646 0.69201 0.96628 0.0
O101 O 0.40567 0.71268 0.9467 0.0
O102 O 0.40177 0.78377 0.98896 0.0
O103 O 0.39512 0.77785 0.94381 0.0
O104 O 0.33145 0.80575 0.97106 0.0
O105 O 0.334 0.75893 0.94869 0.0
O106 O 0.35555 0.84582 1.01081 0.0
O107 O 0.34066 0.82412 0.05129 0.0
O108 O 0.33116 0.75217 1.00039 0.0
O109 O 0.33395 0.76017 0.04559 0.0
O110 O 0.39274 0.72826 0.02171 0.0
O111 O 0.39873 0.77672 0.03871 0.0
H112 H 0.35788 0.7209 0.9064 0.0
H113 H 0.34198 0.70271 0.85907 0.0
H114 H 0.38306 0.61449 0.87624 0.0
H115 H 0.39922 0.63312 0.92362 0.0
H116 H 0.31946 0.89894 0.06266 0.0
H117 H 0.34257 0.93936 0.09015 0.0
H118 H 0.42853 0.89371 0.07818 0.0
H119 H 0.40509 0.85348 0.0501 0.0
Pr120 Pr 0.52357 0.14506 0.21232 0.0
Pr121 Pr 0.46661 0.13571 0.25764 0.0
C122 C 0.57512 0.13513 0.18251 0.0
C123 C 0.58466 0.12895 0.15201 0.0
C124 C 0.57168 0.14463 0.12863 0.0
C125 C 0.58015 0.13726 0.09983 0.0
C126 C 0.60146 0.11384 0.09389 0.0
C127 C 0.61427 0.09815 0.1174 0.0
C128 C 0.60599 0.10569 0.14614 0.0
C129 C 0.47537 0.18259 0.19598 0.0
C130 C 0.47177 0.0929 0.19886 0.0
C131 C 0.41673 0.13857 0.29156 0.0
C132 C 0.39372 0.15629 0.30862 0.0
C133 C 0.39551 0.15833 0.33908 0.0
C134 C 0.37132 0.16971 0.35594 0.0
C135 C 0.34463 0.17913 0.34278 0.0
C136 C 0.34345 0.1787 0.31218 0.0
C137 C 0.36767 0.16732 0.2953 0.0
C138 C 0.51806 0.09886 0.26459 0.0
C139 C 0.5172 0.18599 0.27353 0.0
O140 O 0.56035 0.11327 0.19538 0.0
O141 O 0.56464 0.16267 0.18892 0.0
O142 O 0.47588 0.16411 0.21698 0.0
O143 O 0.50093 0.18162 0.18202 0.0
O144 O 0.45381 0.1048 0.21926 0.0
O145 O 0.49936 0.1021 0.1942 0.0
O146 O 0.41655 0.14002 0.26302 0.0
O147 O 0.44345 0.13465 0.30211 0.0
O148 O 0.51637 0.12635 0.25774 0.0
O149 O 0.49156 0.0887 0.27049 0.0
O150 O 0.5359 0.17305 0.25399 0.0
O151 O 0.48832 0.18036 0.27436 0.0
H152 H 0.55482 0.16236 0.13257 0.0
H153 H 0.56971 0.1496 0.08221 0.0
H154 H 0.63104 0.08031 0.1136 0.0
H155 H 0.61612 0.09318 0.16385 0.0
H156 H 0.41512 0.14986 0.35008 0.0
H157 H 0.3732 0.17022 0.37942 0.0
H158 H 0.32321 0.18554 0.30132 0.0
H159 H 0.36538 0.1658 0.2719 0.0
Pr160 Pr 0.6325 0.24149 0.52738 0.0
Pr161 Pr 0.63651 0.30303 0.48718 0.0
C162 C 0.64304 0.18699 0.5527 0.0
C163 C 0.64772 0.17606 0.58259 0.0
C164 C 0.64302 0.14544 0.58958 0.0
C165 C 0.64894 0.13452 0.61755 0.0
C166 C 0.65984 0.15406 0.63897 0.0
C167 C 0.66413 0.18488 0.63195 0.0
C168 C 0.65799 0.19581 0.60405 0.0
C169 C 0.58692 0.28369 0.54358 0.0
C170 C 0.676 0.2972 0.54859 0.0
C171 C 0.63566 0.36031 0.46583 0.0
C172 C 0.61937 0.38358 0.44871 0.0
C173 C 0.63417 0.39739 0.42511 0.0
C174 C 0.62095 0.42198 0.41055 0.0
C175 C 0.5926 0.4335 0.41935 0.0
C176 C 0.57724 0.41891 0.4423 0.0
C177 C 0.59053 0.39422 0.45692 0.0
C178 C 0.67186 0.25247 0.46969 0.0
C179 C 0.59487 0.24952 0.46584 0.0
O180 O 0.66401 0.20402 0.54178 0.0
O181 O 0.61617 0.19694 0.54659 0.0
O182 O 0.60674 0.28659 0.52405 0.0
O183 O 0.59096 0.25775 0.55673 0.0
O184 O 0.6694 0.31253 0.52465 0.0
O185 O 0.66453 0.27046 0.55519 0.0
O186 O 0.62494 0.35323 0.4917 0.0
O187 O 0.64838 0.3372 0.45187 0.0
O188 O 0.66681 0.26139 0.4955 0.0
O189 O 0.6598 0.27136 0.45123 0.0
O190 O 0.6111 0.23044 0.48193 0.0
O191 O 0.59499 0.27939 0.46971 0.0
H192 H 0.63519 0.12986 0.57327 0.0
H193 H 0.64567 0.11061 0.6222 0.0
H194 H 0.67212 0.20057 0.64806 0.0
H195 H 0.66163 0.21961 0.59911 0.0
H196 H 0.65642 0.38967 0.4184 0.0
H197 H 0.63316 0.43227 0.3926 0.0
H198 H 0.55544 0.42729 0.44968 0.0
H199 H 0.57858 0.38405 0.47511 0.0
Pr200 Pr 0.97256 0.39933 0.73028 0.0
Pr201 Pr 0.01765 0.37655 0.7706 0.0
C202 C 0.932 0.40858 0.6886 0.0
C203 C 0.90322 0.39695 0.67937 0.0
C204 C 0.88122 0.41762 0.66992 0.0
C205 C 0.85438 0.40714 0.65945 0.0
C206 C 0.84907 0.37567 0.65798 0.0
C207 C 0.87087 0.35501 0.66832 0.0
C208 C 0.89767 0.36555 0.679 0.0
C209 C 0.97247 0.43446 0.7808 0.0
C210 C 0.95632 0.34043 0.77349 0.0
C211 C 0.06088 0.36745 0.80999 0.0
C212 C 0.07136 0.38106 0.83706 0.0
C213 C 0.09761 0.36956 0.84922 0.0
C214 C 0.10792 0.38181 0.87509 0.0
C215 C 0.09212 0.40585 0.8894 0.0
C216 C 0.06596 0.41769 0.87684 0.0
C217 C 0.05564 0.40535 0.85086 0.0
C218 C 0.0218 0.34979 0.7142 0.0
C219 C 0.03443 0.43541 0.73225 0.0
O220 O 0.95533 0.39033 0.68538 0.0
O221 O 0.93188 0.42434 0.71278 0.0
O222 O 0.97436 0.40546 0.78086 0.0
O223 O 0.9705 0.44548 0.75466 0.0
O224 O 0.97844 0.34905 0.78946 0.0
O225 O 0.95163 0.35334 0.74792 0.0
O226 O 0.03522 0.35415 0.81147 0.0
O227 O 0.06451 0.38341 0.78625 0.0
O228 O 0.01779 0.37724 0.72056 0.0
O229 O 0.02468 0.3339 0.73787 0.0
O230 O 0.0151 0.42494 0.71371 0.0
O231 O 0.03374 0.42566 0.75937 0.0
H232 H 0.88499 0.44194 0.67026 0.0
H233 H 0.83788 0.42375 0.65227 0.0
H234 H 0.86768 0.33064 0.66732 0.0
H235 H 0.91425 0.34913 0.68642 0.0
H236 H 0.11015 0.351 0.83872 0.0
H237 H 0.12843 0.37252 0.8838 0.0
H238 H 0.05318 0.43605 0.88736 0.0
H239 H 0.03532 0.41458 0.84165 0.0
Pr240 Pr 0.85703 0.76597 0.03863 0.0
Pr241 Pr 0.8454 0.71408 0.99554 0.0
C242 C 0.86409 0.8166 0.07105 0.0
C243 C 0.85514 0.82764 0.10054 0.0
C244 C 0.8585 0.80929 0.12546 0.0
C245 C 0.84831 0.81985 0.1529 0.0
C246 C 0.83421 0.84875 0.15583 0.0
C247 C 0.83128 0.86712 0.13087 0.0
C248 C 0.84168 0.8567 0.10359 0.0
C249 C 0.88931 0.7119 0.04891 0.0
C250 C 0.80375 0.71957 0.05699 0.0
C251 C 0.84018 0.65923 0.96944 0.0
C252 C 0.85773 0.63545 0.95349 0.0
C253 C 0.84348 0.60941 0.94375 0.0
C254 C 0.85961 0.58635 0.92873 0.0
C255 C 0.89042 0.58886 0.9231 0.0
C256 C 0.90467 0.61504 0.93314 0.0
C257 C 0.88847 0.63811 0.94823 0.0
C258 C 0.81369 0.7685 0.98439 0.0
C259 C 0.89268 0.76229 0.97357 0.0
O260 O 0.84254 0.81374 0.05271 0.0
O261 O 0.88412 0.79446 0.06903 0.0
O262 O 0.88555 0.7237 0.02413 0.0
O263 O 0.87556 0.7278 0.06926 0.0
O264 O 0.8136 0.7024 0.035 0.0
O265 O 0.81479 0.7466 0.06209 0.0
O266 O 0.8458 0.66251 0.9971 0.0
O267 O 0.83546 0.68521 0.95607 0.0
O268 O 0.8181 0.75721 1.00921 0.0
O269 O 0.8232 0.75003 0.96386 0.0
O270 O 0.88125 0.78051 0.99427 0.0
O271 O 0.88789 0.73283 0.97382 0.0
H272 H 0.86858 0.78663 0.1237 0.0
H273 H 0.85074 0.80511 0.17167 0.0
H274 H 0.82094 0.88967 0.13243 0.0
H275 H 0.83884 0.87125 0.08472 0.0
H276 H 0.81975 0.60695 0.94765 0.0
H277 H 0.84775 0.56686 0.92097 0.0
H278 H 0.92839 0.61764 0.9295 0.0
H279 H 0.8999 0.65799 0.95579 0.0
Pr280 Pr 0.5041 0.63813 0.2488 0.0
Pr281 Pr 0.46262 0.65735 0.29715 0.0
C282 C 0.53423 0.62298 0.19917 0.0
C283 C 0.56175 0.63309 0.18442 0.0
C284 C 0.58128 0.61144 0.17134 0.0
C285 C 0.60816 0.62043 0.15839 0.0
C286 C 0.61599 0.65134 0.15816 0.0
C287 C 0.59624 0.673 0.17131 0.0
C288 C 0.56945 0.66394 0.18443 0.0
C289 C 0.51696 0.60983 0.30171 0.0
C290 C 0.52598 0.69462 0.28738 0.0
C291 C 0.43606 0.67399 0.34819 0.0
C292 C 0.42132 0.66055 0.37381 0.0
C293 C 0.39951 0.67776 0.38926 0.0
C294 C 0.38626 0.66611 0.41459 0.0
C295 C 0.39472 0.63705 0.42498 0.0
C296 C 0.41627 0.61962 0.40906 0.0
C297 C 0.42943 0.63126 0.38362 0.0
C298 C 0.451 0.68561 0.24395 0.0
C299 C 0.43894 0.60375 0.25864 0.0
O300 O 0.51162 0.64239 0.20007 0.0
O301 O 0.53774 0.6083 0.22365 0.0
O302 O 0.49103 0.61307 0.29181 0.0
O303 O 0.53679 0.62209 0.28464 0.0
O304 O 0.50473 0.68611 0.3057 0.0
O305 O 0.5292 0.68207 0.26138 0.0
O306 O 0.46469 0.66831 0.345 0.0
O307 O 0.42183 0.6733 0.32369 0.0
O308 O 0.47631 0.68188 0.25468 0.0
O309 O 0.43022 0.67575 0.26136 0.0
O310 O 0.45913 0.61303 0.23932 0.0
O311 O 0.43954 0.61269 0.28594 0.0
H312 H 0.57589 0.58749 0.17143 0.0
H313 H 0.62301 0.60304 0.14898 0.0
H314 H 0.60131 0.69701 0.17124 0.0
H315 H 0.55484 0.68106 0.19469 0.0
H316 H 0.39293 0.70036 0.38187 0.0
H317 H 0.36929 0.67987 0.42596 0.0
H318 H 0.42345 0.59727 0.41657 0.0
H319 H 0.44623 0.6176 0.37188 0.0
Pr320 Pr 0.20267 0.53258 0.12371 0.0
Pr321 Pr 0.2486 0.47626 0.10771 0.0
C322 C 0.1736 0.5867 0.12111 0.0
C323 C 0.14295 0.59736 0.11524 0.0
C324 C 0.11821 0.58078 0.12487 0.0
C325 C 0.08939 0.59011 0.11725 0.0
C326 C 0.08485 0.61592 0.09955 0.0
C327 C 0.10971 0.63253 0.09015 0.0
C328 C 0.13846 0.62334 0.09797 0.0
C329 C 0.18414 0.48022 0.15306 0.0
C330 C 0.18896 0.48453 0.06849 0.0
C331 C 0.28437 0.42602 0.10565 0.0
C332 C 0.3007 0.40327 0.12348 0.0
C333 C 0.32889 0.40955 0.13437 0.0
C334 C 0.34604 0.38649 0.14735 0.0
C335 C 0.33546 0.35663 0.14967 0.0
C336 C 0.30664 0.35076 0.14022 0.0
C337 C 0.28951 0.3738 0.12712 0.0
C338 C 0.2579 0.53268 0.08026 0.0
C339 C 0.2614 0.51909 0.16498 0.0
O340 O 0.1883 0.57455 0.09874 0.0
O341 O 0.17797 0.57219 0.14575 0.0
O342 O 0.20632 0.48217 0.13585 0.0
O343 O 0.16969 0.50625 0.15466 0.0
O344 O 0.20965 0.46529 0.07779 0.0
O345 O 0.18461 0.51218 0.0798 0.0
O346 O 0.25522 0.42499 0.10577 0.0
O347 O 0.29443 0.45381 0.10411 0.0
O348 O 0.25015 0.5279 0.10617 0.0
O349 O 0.26286 0.50689 0.06663 0.0
O350 O 0.24241 0.54035 0.1554 0.0
O351 O 0.26286 0.49119 0.154 0.0
H352 H 0.12117 0.56035 0.13786 0.0
H353 H 0.07071 0.5767 0.12461 0.0
H354 H 0.10691 0.65272 0.0768 0.0
H355 H 0.15728 0.6363 0.09015 0.0
H356 H 0.33822 0.43197 0.13194 0.0
H357 H 0.36804 0.39181 0.15477 0.0
H358 H 0.29796 0.32795 0.14144 0.0
H359 H 0.26797 0.36818 0.11874 0.0
Pr360 Pr 0.76459 0.03989 0.88211 0.0
Pr361 Pr 0.70919 0.99559 0.86777 0.0
C362 C 0.81731 0.06752 0.87628 0.0
C363 C 0.82854 0.09783 0.86808 0.0
C364 C 0.85748 0.10572 0.87538 0.0
C365 C 0.86926 0.13342 0.86596 0.0
C366 C 0.85236 0.15389 0.84893 0.0
C367 C 0.82316 0.14599 0.84193 0.0
C368 C 0.81136 0.11829 0.85145 0.0
C369 C 0.71305 0.06099 0.91218 0.0
C370 C 0.71749 0.0567 0.82797 0.0
C371 C 0.66031 0.96114 0.86576 0.0
C372 C 0.63402 0.94864 0.88142 0.0
C373 C 0.60541 0.95882 0.87361 0.0
C374 C 0.58002 0.94501 0.88515 0.0
C375 C 0.58254 0.92045 0.90471 0.0
C376 C 0.61117 0.91097 0.91345 0.0
C377 C 0.63668 0.92484 0.90183 0.0
C378 C 0.76434 0.98453 0.83874 0.0
C379 C 0.7515 0.97871 0.92312 0.0
O380 O 0.80519 0.05218 0.85529 0.0
O381 O 0.8031 0.0651 0.90154 0.0
O382 O 0.71509 0.03837 0.8952 0.0
O383 O 0.73854 0.07428 0.9134 0.0
O384 O 0.69826 0.03712 0.83856 0.0
O385 O 0.74459 0.05924 0.8384 0.0
O386 O 0.66001 0.99045 0.86024 0.0
O387 O 0.68695 0.94976 0.87092 0.0
O388 O 0.75949 0.99206 0.86466 0.0
O389 O 0.73925 0.98046 0.82583 0.0
O390 O 0.7725 0.99684 0.91247 0.0
O391 O 0.72365 0.98088 0.91437 0.0
H392 H 0.87121 0.09016 0.88795 0.0
H393 H 0.89194 0.13843 0.87147 0.0
H394 H 0.80935 0.16128 0.82919 0.0
H395 H 0.78895 0.11265 0.84551 0.0
H396 H 0.60264 0.97698 0.85781 0.0
H397 H 0.55835 0.95325 0.8783 0.0
H398 H 0.61393 0.89199 0.92832 0.0
H399 H 0.65843 0.91632 0.90819 0.0
Pr400 Pr 0.77728 0.0227 0.36229 0.0
Pr401 Pr 0.73563 0.97867 0.38864 0.0
C402 C 0.81589 0.06712 0.34921 0.0
C403 C 0.84308 0.0801 0.36082 0.0
C404 C 0.86422 0.09226 0.34144 0.0
C405 C 0.89011 0.10499 0.35188 0.0
C406 C 0.89532 0.10594 0.382 0.0
C407 C 0.87422 0.09321 0.40137 0.0
C408 C 0.84835 0.08034 0.39086 0.0
C409 C 0.77593 0.96942 0.32988 0.0
C410 C 0.79795 0.98191 0.42057 0.0
C411 C 0.6959 0.93562 0.40279 0.0
C412 C 0.6785 0.91256 0.38822 0.0
C413 C 0.6607 0.89333 0.4051 0.0
C414 C 0.64416 0.87096 0.3918 0.0
C415 C 0.64508 0.86747 0.36128 0.0
C416 C 0.66323 0.88671 0.34438 0.0
C417 C 0.67981 0.90916 0.35778 0.0
C418 C 0.73214 0.03786 0.41315 0.0
C419 C 0.71289 0.0158 0.33194 0.0
O420 O 0.79111 0.07187 0.36432 0.0
O421 O 0.81854 0.03954 0.33852 0.0
O422 O 0.77673 0.96973 0.35756 0.0
O423 O 0.77646 0.99654 0.3187 0.0
O424 O 0.77647 0.96349 0.41452 0.0
O425 O 0.80076 0.00805 0.40649 0.0
O426 O 0.7247 0.93074 0.40265 0.0
O427 O 0.68834 0.96408 0.39798 0.0
O428 O 0.73364 0.03091 0.38678 0.0
O429 O 0.73218 0.01339 0.42911 0.0
O430 O 0.73296 0.03618 0.33847 0.0
O431 O 0.71405 0.98846 0.34375 0.0
H432 H 0.86067 0.09198 0.31816 0.0
H433 H 0.9061 0.114 0.33628 0.0
H434 H 0.87736 0.09377 0.42469 0.0
H435 H 0.83238 0.07081 0.40619 0.0
H436 H 0.65967 0.89554 0.42864 0.0
H437 H 0.63086 0.85616 0.40548 0.0
H438 H 0.66425 0.8847 0.32085 0.0
H439 H 0.6936 0.92387 0.34446 0.0
Pr440 Pr 0.23354 0.5467 0.63587 0.0
Pr441 Pr 0.28997 0.50519 0.63759 0.0
C442 C 0.17895 0.57364 0.63523 0.0
C443 C 0.16518 0.60335 0.64306 0.0
C444 C 0.13898 0.61299 0.62953 0.0
C445 C 0.12575 0.64135 0.6364 0.0
C446 C 0.13852 0.66056 0.65698 0.0
C447 C 0.16483 0.65075 0.67056 0.0
C448 C 0.17814 0.62241 0.66355 0.0
C449 C 0.28079 0.56542 0.60046 0.0
C450 C 0.28323 0.56623 0.68202 0.0
C451 C 0.34586 0.48116 0.63642 0.0
C452 C 0.36801 0.4623 0.61971 0.0
C453 C 0.36202 0.43239 0.61101 0.0
C454 C 0.38462 0.41385 0.5983 0.0
C455 C 0.4136 0.42485 0.594 0.0
C456 C 0.41911 0.45523 0.60158 0.0
C457 C 0.39656 0.4737 0.61438 0.0
C458 C 0.24177 0.48665 0.67248 0.0
C459 C 0.23949 0.4833 0.5955 0.0
O460 O 0.18827 0.5567 0.6568 0.0
O461 O 0.19734 0.57337 0.61269 0.0
O462 O 0.27251 0.53827 0.60303 0.0
O463 O 0.26412 0.58419 0.61603 0.0
O464 O 0.30089 0.54567 0.66884 0.0
O465 O 0.25493 0.56981 0.67549 0.0
O466 O 0.33929 0.50839 0.62641 0.0
O467 O 0.32308 0.46759 0.64861 0.0
O468 O 0.25085 0.51344 0.66986 0.0
O469 O 0.25906 0.46759 0.65784 0.0
O470 O 0.22158 0.5012 0.61171 0.0
O471 O 0.26867 0.48499 0.59673 0.0
H472 H 0.12872 0.59855 0.61365 0.0
H473 H 0.10529 0.64806 0.62585 0.0
H474 H 0.17533 0.66516 0.68628 0.0
H475 H 0.19856 0.61541 0.67404 0.0
H476 H 0.34015 0.42305 0.61469 0.0
H477 H 0.37956 0.39068 0.59232 0.0
H478 H 0.44121 0.46433 0.59886 0.0
H479 H 0.40172 0.49665 0.62104 0.0
H480 H 0.14494 0.3209 0.56182 0.0
H481 H 0.26626 0.44884 0.55194 0.0
H482 H 0.19933 0.33216 0.48378 0.0
H483 H 0.1843 0.45937 0.60263 0.0
H484 H 0.24691 0.4026 0.52988 0.0
H485 H 0.16521 0.36747 0.58156 0.0
C486 C 0.16152 0.33289 0.54901 0.0
C487 C 0.17052 0.32264 0.52111 0.0
C488 C 0.23316 0.41527 0.54565 0.0
C489 C 0.19357 0.37602 0.54355 0.0
C490 C 0.24411 0.44161 0.5582 0.0
C491 C 0.22686 0.45792 0.57917 0.0
C492 C 0.2051 0.40491 0.55466 0.0
C493 C 0.19833 0.44757 0.5865 0.0
C494 C 0.1728 0.35964 0.56017 0.0
C495 C 0.19178 0.33934 0.50537 0.0
N496 N 0.18849 0.42148 0.57453 0.0
N497 N 0.20272 0.36525 0.51686 0.0
H498 H 0.8148 0.9851 0.86918 0.0
H499 H 0.93089 0.95592 0.73716 0.0
H500 H 0.78404 0.97175 0.78182 0.0
H501 H 0.94856 0.937 0.8274 0.0
H502 H 0.87871 0.96916 0.75103 0.0
H503 H 0.86554 0.97567 0.85206 0.0
C504 C 0.8187 0.9802 0.84625 0.0
C505 C 0.79501 0.97907 0.82692 0.0
C506 C 0.8941 0.9621 0.76769 0.0
C507 C 0.85377 0.96806 0.80703 0.0
C508 C 0.92377 0.95449 0.75982 0.0
C509 C 0.94388 0.94479 0.7811 0.0
C510 C 0.88487 0.96063 0.79712 0.0
C511 C 0.93384 0.94422 0.81024 0.0
C512 C 0.84784 0.97472 0.8365 0.0
C513 C 0.80167 0.97267 0.79745 0.0
N514 N 0.90513 0.95198 0.81733 0.0
N515 N 0.83058 0.96738 0.78831 0.0
H516 H 0.30966 0.6979 0.98618 0.0
H517 H 0.25171 0.58525 0.11076 0.0
H518 H 0.3113 0.71722 0.07829 0.0
H519 H 0.27968 0.5511 0.02594 0.0
H520 H 0.2657 0.63615 0.09606 0.0
H521 H 0.29189 0.64644 0.99747 0.0
C522 C 0.30622 0.69135 1.00873 0.0
C523 C 0.31217 0.71177 0.03136 0.0
C524 C 0.26879 0.61764 0.08054 0.0
C525 C 0.29143 0.65338 0.04432 0.0
C526 C 0.26069 0.58846 0.08888 0.0
C527 C 0.26471 0.56373 0.06961 0.0
C528 C 0.28098 0.62254 0.05257 0.0
C529 C 0.27632 0.56951 0.04149 0.0
C530 C 0.29612 0.66202 0.01513 0.0
C531 C 0.30704 0.70225 0.06016 0.0
N532 N 0.28414 0.5984 0.03378 0.0
N533 N 0.29693 0.67386 0.06578 0.0
H534 H 0.57252 0.12182 0.25399 0.0
H535 H 0.66429 0.98138 0.32098 0.0
H536 H 0.53011 0.04079 0.28606 0.0
H537 H 0.70004 0.07062 0.30559 0.0
H538 H 0.61711 0.9989 0.30056 0.0
H539 H 0.6208 0.09934 0.26497 0.0
C540 C 0.57334 0.09907 0.26314 0.0
C541 C 0.54713 0.08319 0.26924 0.0
C542 C 0.63538 0.01452 0.30138 0.0
C543 C 0.60286 0.05731 0.28226 0.0
C544 C 0.66245 0.00454 0.31288 0.0
C545 C 0.68621 0.02467 0.31523 0.0
C546 C 0.63205 0.04478 0.29193 0.0
C547 C 0.68239 0.05434 0.30435 0.0
C548 C 0.60105 0.08628 0.2695 0.0
C549 C 0.54976 0.05381 0.28109 0.0
N550 N 0.65578 0.06352 0.29335 0.0
N551 N 0.57721 0.04183 0.28743 0.0
H552 H 0.70415 0.21261 0.50328 0.0
H553 H 0.72211 0.0866 0.37847 0.0
H554 H 0.66704 0.22237 0.41799 0.0
H555 H 0.72681 0.06181 0.46929 0.0
H556 H 0.70929 0.13874 0.39249 0.0
H557 H 0.71928 0.15967 0.49123 0.0
C558 C 0.69891 0.20348 0.48216 0.0
C559 C 0.68364 0.2216 0.46189 0.0
C560 C 0.71308 0.12201 0.40944 0.0
C561 C 0.70185 0.16169 0.44756 0.0
C562 C 0.72052 0.09212 0.40149 0.0
C563 C 0.72537 0.06964 0.42278 0.0
C564 C 0.71072 0.12994 0.43901 0.0
C565 C 0.7231 0.07839 0.45221 0.0
C566 C 0.70773 0.1734 0.47525 0.0
C567 C 0.67864 0.2092 0.43433 0.0
N568 N 0.71596 0.10796 0.45951 0.0
N569 N 0.6877 0.18006 0.428 0.0
H570 H 0.07156 0.47115 0.76305 0.0
H571 H 0.20752 0.43999 0.65458 0.0
H572 H 0.05991 0.43267 0.67764 0.0
H573 H 0.20592 0.51873 0.71103 0.0
H574 H 0.15484 0.43218 0.66705 0.0
H575 H 0.12199 0.48597 0.74793 0.0
C576 C 0.07937 0.46644 0.74093 0.0
C577 C 0.06153 0.45071 0.72155 0.0
C578 C 0.16606 0.45114 0.67671 0.0
C579 C 0.11936 0.46648 0.7046 0.0
C580 C 0.19615 0.45539 0.66988 0.0
C581 C 0.211 0.47994 0.68194 0.0
C582 C 0.15098 0.47115 0.69627 0.0
C583 C 0.19518 0.49946 0.70139 0.0
C584 C 0.10814 0.47476 0.73239 0.0
C585 C 0.07281 0.44493 0.69322 0.0
N586 N 0.16603 0.4945 0.70819 0.0
N587 N 0.10124 0.45228 0.68577 0.0
H588 H 0.80698 0.96072 0.94265 0.0
H589 H 0.76281 0.78734 0.95785 0.0
H590 H 0.71566 0.93219 0.94057 0.0
H591 H 0.84104 0.82145 0.99787 0.0
H592 H 0.7465 0.84018 0.94769 0.0
H593 H 0.82143 0.90993 0.96084 0.0
C594 C 0.78988 0.94411 0.94654 0.0
C595 C 0.76006 0.95089 0.93988 0.0
C596 C 0.76709 0.83608 0.95902 0.0
C597 C 0.77662 0.89247 0.95982 0.0
C598 C 0.77639 0.80599 0.96471 0.0
C599 C 0.80301 0.80013 0.97918 0.0
C600 C 0.78501 0.8604 0.96717 0.0
C601 C 0.82006 0.825 0.98731 0.0
C602 C 0.79818 0.91506 0.95677 0.0
C603 C 0.73895 0.92819 0.94522 0.0
N604 N 0.81095 0.85404 0.98098 0.0
N605 N 0.7477 0.89996 0.95438 0.0
H606 H 0.38288 0.60578 0.28268 0.0
H607 H 0.31413 0.48853 0.17328 0.0
H608 H 0.43509 0.56507 0.21192 0.0
H609 H 0.26452 0.56987 0.20025 0.0
H610 H 0.35728 0.50666 0.1988 0.0
H611 H 0.33813 0.58302 0.26331 0.0
C612 C 0.38504 0.59157 0.26338 0.0
C613 C 0.41275 0.58718 0.24887 0.0
C614 C 0.3368 0.52029 0.19939 0.0
C615 C 0.3618 0.56102 0.22699 0.0
C616 C 0.312 0.50992 0.18507 0.0
C617 C 0.28556 0.5278 0.18451 0.0
C618 C 0.33505 0.54839 0.21386 0.0
C619 C 0.28444 0.55543 0.20004 0.0
C620 C 0.35947 0.57887 0.25229 0.0
C621 C 0.41416 0.56898 0.22373 0.0
N622 N 0.3089 0.56491 0.21415 0.0
N623 N 0.38901 0.55638 0.21364 0.0
H624 H 0.4888 0.22542 0.31211 0.0
H625 H 0.60984 0.19851 0.43382 0.0
H626 H 0.5731 0.17849 0.29495 0.0
H627 H 0.54838 0.2758 0.43687 0.0
H628 H 0.59162 0.18542 0.38559 0.0
H629 H 0.50655 0.24064 0.35998 0.0
C630 C 0.51124 0.21884 0.31816 0.0
C631 C 0.52955 0.20081 0.29941 0.0
C632 C 0.58201 0.20512 0.39695 0.0
C633 C 0.54948 0.21716 0.35445 0.0
C634 C 0.5921 0.21236 0.42462 0.0
C635 C 0.58057 0.23826 0.43937 0.0
C636 C 0.55991 0.22362 0.38418 0.0
C637 C 0.55789 0.25565 0.4262 0.0
C638 C 0.52125 0.22735 0.34553 0.0
C639 C 0.55833 0.19268 0.30851 0.0
N640 N 0.54825 0.24799 0.39937 0.0
N641 N 0.56724 0.20053 0.33555 0.0
H642 H 0.04851 0.25837 0.54523 0.0
H643 H 0.02917 0.38634 0.6673 0.0
H644 H 0.08594 0.34757 0.53715 0.0
H645 H 0.03114 0.29122 0.69136 0.0
H646 H 0.04246 0.37232 0.61742 0.0
H647 H 0.0352 0.26956 0.5966 0.0
C648 C 0.05426 0.28012 0.55437 0.0
C649 C 0.06898 0.30178 0.53708 0.0
C650 C 0.04008 0.35442 0.63352 0.0
C651 C 0.05275 0.31519 0.59532 0.0
C652 C 0.03241 0.36238 0.66214 0.0
C653 C 0.02927 0.33994 0.68379 0.0
C654 C 0.04421 0.32364 0.62593 0.0
C655 C 0.03352 0.30926 0.67545 0.0
C656 C 0.04648 0.28654 0.58358 0.0
C657 C 0.07466 0.33016 0.54962 0.0
N658 N 0.04065 0.30195 0.64706 0.0
N659 N 0.06648 0.33604 0.57787 0.0
H660 H 0.99422 0.86004 0.84245 0.0
H661 H 0.89571 0.73691 0.9195 0.0
H662 H 0.92318 0.81799 0.79665 0.0
H663 H 0.91993 0.81758 0.96651 0.0
H664 H 0.9139 0.75998 0.87426 0.0
H665 H 0.97493 0.83867 0.88822 0.0
C666 C 0.97464 0.8461 0.84203 0.0
C667 C 0.96036 0.84048 0.81574 0.0
C668 C 0.91531 0.77253 0.89451 0.0
C669 C 0.93854 0.81584 0.8679 0.0
C670 C 0.90529 0.75931 0.92043 0.0
C671 C 0.90654 0.77529 0.94693 0.0
C672 C 0.92735 0.80163 0.8951 0.0
C673 C 0.9187 0.80445 0.9466 0.0
C674 C 0.96359 0.83419 0.86816 0.0
C675 C 0.93483 0.82274 0.81647 0.0
N676 N 0.92895 0.81663 0.92106 0.0
N677 N 0.92492 0.81063 0.84217 0.0
H678 H 0.48807 0.71774 0.20795 0.0
H679 H 0.39294 0.69215 0.06642 0.0
H680 H 0.40361 0.67292 0.21054 0.0
H681 H 0.44117 0.775 0.0782 0.0
H682 H 0.40666 0.67596 0.11548 0.0
H683 H 0.48001 0.73105 0.15657 0.0
C684 C 0.46784 0.7108 0.19769 0.0
C685 C 0.44626 0.69459 0.21346 0.0
C686 C 0.41453 0.69749 0.1071 0.0
C687 C 0.43746 0.7088 0.15494 0.0
C688 C 0.40701 0.7066 0.07905 0.0
C689 C 0.41594 0.73498 0.06829 0.0
C690 C 0.43157 0.7166 0.12426 0.0
C691 C 0.43378 0.75299 0.08577 0.0
C692 C 0.46332 0.71833 0.1685 0.0
C693 C 0.42058 0.68582 0.1992 0.0
N694 N 0.44105 0.7435 0.11297 0.0
N695 N 0.41697 0.69285 0.17065 0.0
H696 H 0.19781 0.35337 0.29667 0.0
H697 H 0.13093 0.46786 0.17811 0.0
H698 H 0.10558 0.38314 0.29362 0.0
H699 H 0.2225 0.43577 0.17417 0.0
H700 H 0.12102 0.43275 0.218 0.0
H701 H 0.20741 0.37977 0.25025 0.0
C702 C 0.17957 0.36531 0.28622 0.0
C703 C 0.15092 0.36643 0.29936 0.0
C704 C 0.14325 0.43296 0.20832 0.0
C705 C 0.16173 0.39652 0.24629 0.0
C706 C 0.14887 0.45294 0.18541 0.0
C707 C 0.17755 0.45471 0.17294 0.0
C708 C 0.16664 0.41486 0.21936 0.0
C709 C 0.20001 0.43492 0.18318 0.0
C710 C 0.18507 0.38037 0.25974 0.0
C711 C 0.12817 0.38226 0.28479 0.0
N712 N 0.19419 0.41605 0.20617 0.0
N713 N 0.1341 0.3967 0.25923 0.0
H714 H 0.86551 0.87938 0.56495 0.0
H715 H 0.82987 0.01887 0.45688 0.0
H716 H 0.88606 0.97241 0.5858 0.0
H717 H 0.80927 0.92485 0.44084 0.0
H718 H 0.8547 0.00293 0.50196 0.0
H719 H 0.84853 0.89616 0.51755 0.0
C720 C 0.86677 0.90335 0.55949 0.0
C721 C 0.87736 0.92443 0.57956 0.0
C722 C 0.84497 0.98583 0.48835 0.0
C723 C 0.85732 0.9441 0.52494 0.0
C724 C 0.83102 0.99489 0.46254 0.0
C725 C 0.81725 0.9732 0.44519 0.0
C726 C 0.84522 0.95488 0.49665 0.0
C727 C 0.81924 0.94246 0.45367 0.0
C728 C 0.85686 0.913 0.53236 0.0
C729 C 0.87775 0.95534 0.57124 0.0
N730 N 0.83272 0.93432 0.47873 0.0
N731 N 0.86783 0.96426 0.54462 0.0
H732 H 0.25365 0.60733 0.71831 0.0
H733 H 0.39208 0.62204 0.82354 0.0
H734 H 0.34034 0.56508 0.70133 0.0
H735 H 0.30654 0.66675 0.83992 0.0
H736 H 0.37399 0.60287 0.7774 0.0
H737 H 0.27331 0.632 0.76134 0.0
C738 C 0.27686 0.60345 0.72344 0.0
C739 C 0.29528 0.58387 0.70631 0.0
C740 C 0.35919 0.61698 0.79102 0.0
C741 C 0.31784 0.61183 0.7556 0.0
C742 C 0.36946 0.62775 0.81744 0.0
C743 C 0.35076 0.6459 0.83564 0.0
C744 C 0.32993 0.62427 0.78277 0.0
C745 C 0.3218 0.65304 0.82643 0.0
C746 C 0.28806 0.61749 0.74806 0.0
C747 C 0.32521 0.57978 0.71399 0.0
N748 N 0.31223 0.64208 0.8007 0.0
N749 N 0.33547 0.59345 0.73816 0.0
H750 H 0.6141 0.15336 0.04932 0.0
H751 H 0.67189 0.02302 0.93736 0.0
H752 H 0.61086 0.05725 0.06895 0.0
H753 H 0.69844 0.11676 0.93372 0.0
H754 H 0.63839 0.03598 0.97918 0.0
H755 H 0.63407 0.14078 1.00061 0.0
C756 C 0.61718 0.12959 0.04325 0.0
C757 C 0.6111 0.10634 0.06338 0.0
C758 C 0.65115 0.05377 0.96881 0.0
C759 C 0.63411 0.09176 1.00761 0.0
C760 C 0.66998 0.04645 0.94483 0.0
C761 C 0.68794 0.06889 0.9323 0.0
C762 C 0.65013 0.08376 0.97984 0.0
C763 C 0.68502 0.09881 0.94294 0.0
C764 C 0.62872 0.12243 0.01548 0.0
C765 C 0.61576 0.07591 0.0543 0.0
N766 N 0.66666 0.10534 0.96617 0.0
N767 N 0.62714 0.06949 0.02714 0.0
H768 H 0.62746 0.11533 0.67331 0.0
H769 H 0.75058 0.09766 0.79592 0.0
H770 H 0.70885 0.16565 0.67149 0.0
H771 H 0.66388 0.05714 0.80102 0.0
H772 H 0.73589 0.12383 0.75106 0.0
H773 H 0.64073 0.0943 0.72062 0.0
C774 C 0.64816 0.12192 0.68287 0.0
C775 C 0.66713 0.14216 0.66834 0.0
C776 C 0.72007 0.10935 0.76217 0.0
C777 C 0.68251 0.11823 0.7227 0.0
C778 C 0.72843 0.09442 0.7878 0.0
C779 C 0.70856 0.07494 0.80223 0.0
C780 C 0.69171 0.10463 0.75086 0.0
C781 C 0.68011 0.07171 0.79066 0.0
C782 C 0.65568 0.11005 0.70999 0.0
C783 C 0.69347 0.15028 0.68202 0.0
N784 N 0.67267 0.0862 0.76565 0.0
N785 N 0.70049 0.13813 0.70834 0.0
H786 H 0.15346 0.51901 0.03185 0.0
H787 H 0.1149 0.37347 0.93496 0.0
H788 H 0.18303 0.42643 0.04899 0.0
H789 H 0.09368 0.46567 0.9082 0.0
H790 H 0.13539 0.39312 0.97959 0.0
H791 H 0.12682 0.50056 0.98928 0.0
C792 C 0.15417 0.49486 0.02685 0.0
C793 C 0.17074 0.47431 0.04392 0.0
C794 C 0.12623 0.40916 0.96405 0.0
C795 C 0.14039 0.45312 0.99545 0.0
C796 C 0.11464 0.39791 0.93841 0.0
C797 C 0.10291 0.41793 0.91752 0.0
C798 C 0.12621 0.44077 0.96909 0.0
C799 C 0.10246 0.44938 0.9237 0.0
C800 C 0.13906 0.48437 1.00252 0.0
C801 C 0.17088 0.44325 0.03638 0.0
N802 N 0.11414 0.45987 0.94885 0.0
N803 N 0.15607 0.43371 0.01279 0.0
H804 H 0.81627 0.92103 0.33207 0.0
H805 H 0.78027 0.87683 0.16743 0.0
H806 H 0.74309 0.95817 0.28331 0.0
H807 H 0.86019 0.84566 0.20969 0.0
H808 H 0.76201 0.89901 0.21337 0.0
H809 H 0.82801 0.8852 0.29164 0.0
C810 C 0.80209 0.92085 0.31331 0.0
C811 C 0.77867 0.94239 0.31087 0.0
C812 C 0.78348 0.88718 0.21277 0.0
C813 C 0.79214 0.90228 0.26463 0.0
C814 C 0.79399 0.87463 0.18644 0.0
C815 C 0.82204 0.85983 0.18454 0.0
C816 C 0.80118 0.88524 0.23759 0.0
C817 C 0.83848 0.85699 0.21015 0.0
C818 C 0.80897 0.90072 0.29013 0.0
C819 C 0.76133 0.94182 0.28594 0.0
N820 N 0.82799 0.86993 0.23555 0.0
N821 N 0.76853 0.92234 0.26375 0.0
H822 H 0.29938 0.62313 0.58972 0.0
H823 H 0.37754 0.57862 0.43708 0.0
H824 H 0.30955 0.5304 0.55881 0.0
H825 H 0.38105 0.66836 0.47548 0.0
H826 H 0.35361 0.56019 0.48186 0.0
H827 H 0.33031 0.64 0.54849 0.0
C828 C 0.30835 0.60632 0.57435 0.0
C829 C 0.30173 0.57542 0.57743 0.0
C830 C 0.35978 0.58387 0.48054 0.0
C831 C 0.33686 0.59448 0.53016 0.0
C832 C 0.37355 0.5944 0.455 0.0
C833 C 0.38113 0.62516 0.45239 0.0
C834 C 0.35338 0.60429 0.50359 0.0
C835 C 0.37505 0.64462 0.47625 0.0
C836 C 0.326 0.61593 0.55083 0.0
C837 C 0.31401 0.5545 0.55706 0.0
N838 N 0.36138 0.6339 0.50075 0.0
N839 N 0.33077 0.56446 0.53409 0.0
H840 H 0.20202 0.17025 0.47156 0.0
H841 H 0.30169 0.22453 0.33473 0.0
H842 H 0.17958 0.25091 0.42217 0.0
H843 H 0.32501 0.15008 0.39201 0.0
H844 H 0.25596 0.23401 0.36426 0.0
H845 H 0.24583 0.16162 0.44017 0.0
C846 C 0.20624 0.18609 0.45391 0.0
C847 C 0.18711 0.21131 0.44945 0.0
C848 C 0.27121 0.21571 0.37037 0.0
C849 C 0.2377 0.20171 0.41331 0.0
C850 C 0.29727 0.21023 0.3535 0.0
C851 C 0.31743 0.18659 0.36098 0.0
C852 C 0.26514 0.19725 0.39473 0.0
C853 C 0.31055 0.16892 0.38564 0.0
C854 C 0.23138 0.1812 0.436 0.0
C855 C 0.19371 0.23108 0.42623 0.0
N856 N 0.28507 0.17456 0.40148 0.0
N857 N 0.21857 0.22592 0.40901 0.0
H858 H 0.12375 0.07595 0.6292 0.0
H859 H 0.98778 0.9649 0.65443 0.0
H860 H 0.04226 0.08387 0.58155 0.0
H861 H 0.07479 0.94997 0.69082 0.0
H862 H 0.00785 0.00661 0.6251 0.0
H863 H 0.10677 0.02801 0.65008 0.0
C864 C 0.10234 0.06745 0.62305 0.0
C865 C 0.0843 0.0839 0.6038 0.0
C866 C 0.02258 0.99394 0.63929 0.0
C867 C 0.06461 0.02919 0.6276 0.0
C868 C 0.01114 0.97013 0.65602 0.0
C869 C 0.02951 0.95419 0.67542 0.0
C870 C 0.0525 1.0019 0.64216 0.0
C871 C 0.05965 0.96186 0.67647 0.0
C872 C 0.09269 0.04004 0.63483 0.0
C873 C 0.05691 0.07175 0.59622 0.0
N874 N 0.0701 0.98534 0.66032 0.0
N875 N 0.04773 0.04526 0.60839 0.0
H876 H 0.17378 0.79799 0.83327 0.0
H877 H 0.29869 0.8445 0.94567 0.0
H878 H 0.1835 0.88886 0.86743 0.0
H879 H 0.29318 0.75373 0.90999 0.0
H880 H 0.25712 0.86095 0.91598 0.0
H881 H 0.21773 0.78114 0.86015 0.0
C882 C 0.18516 0.81443 0.84633 0.0
C883 C 0.17472 0.84489 0.84818 0.0
C884 C 0.26501 0.83745 0.91448 0.0
C885 C 0.225 0.82568 0.87911 0.0
C886 C 0.28886 0.828 0.93145 0.0
C887 C 0.29945 0.79761 0.93048 0.0
C888 C 0.25138 0.81639 0.89635 0.0
C889 C 0.28577 0.77738 0.91148 0.0
C890 C 0.2102 0.80475 0.86174 0.0
C891 C 0.19027 0.86505 0.86571 0.0
N892 N 0.26233 0.78709 0.89529 0.0
N893 N 0.21452 0.85509 0.88044 0.0
H894 H 0.49975 0.06188 0.15308 0.0
H895 H 0.36545 0.94672 0.13653 0.0
H896 H 0.41803 0.06548 0.20488 0.0
H897 H 0.4406 0.94817 0.07604 0.0
H898 H 0.38654 0.98855 0.16338 0.0
H899 H 0.4804 0.01879 0.12583 0.0
C900 C 0.47777 0.05372 0.15871 0.0
C901 C 0.46052 0.06742 0.18133 0.0
C902 C 0.39849 0.97979 0.14424 0.0
C903 C 0.43841 0.01809 0.1504 0.0
C904 C 0.38637 0.95594 0.1288 0.0
C905 C 0.4011 0.94409 0.10379 0.0
C906 C 0.42566 0.99202 0.13474 0.0
C907 C 0.42855 0.9565 0.09528 0.0
C908 C 0.46677 0.02912 0.14315 0.0
C909 C 0.43221 0.05581 0.18764 0.0
N910 N 0.43991 0.97989 0.11067 0.0
N911 N 0.42213 0.03187 0.17233 0.0
H912 H 0.8147 0.32683 0.67419 0.0
H913 H 0.70178 0.35275 0.54374 0.0
H914 H 0.8209 0.39883 0.61029 0.0
H915 H 0.70224 0.27137 0.59681 0.0
H916 H 0.74192 0.37243 0.57217 0.0
H917 H 0.7707 0.30825 0.64975 0.0
C918 C 0.80687 0.33875 0.65507 0.0
C919 C 0.8216 0.36453 0.64437 0.0
C920 C 0.73324 0.3503 0.57773 0.0
C921 C 0.77107 0.34357 0.61658 0.0
C922 C 0.71019 0.33899 0.56149 0.0
C923 C 0.69869 0.31015 0.56766 0.0
C924 C 0.74509 0.33275 0.60044 0.0
C925 C 0.71047 0.29365 0.59117 0.0
C926 C 0.78167 0.32819 0.64124 0.0
C927 C 0.81011 0.37925 0.61974 0.0
N928 N 0.73317 0.30512 0.60663 0.0
N929 N 0.78564 0.36855 0.60673 0.0
H930 H 0.94742 0.41995 0.83468 0.0
H931 H 0.93421 0.59656 0.88114 0.0
H932 H 0.98345 0.49438 0.78485 0.0
H933 H 0.88489 0.5263 0.92533 0.0
H934 H 0.95896 0.55758 0.85064 0.0
H935 H 0.93088 0.45666 0.87294 0.0
C936 C 0.95234 0.44387 0.83209 0.0
C937 C 0.96655 0.45426 0.80652 0.0
C938 C 0.94285 0.55059 0.86712 0.0
C939 C 0.94774 0.49617 0.8498 0.0
C940 C 0.92882 0.5729 0.88474 0.0
C941 C 0.90721 0.56486 0.9058 0.0
C942 C 0.93533 0.51982 0.87041 0.0
C943 C 0.90099 0.53369 0.90905 0.0
C944 C 0.94274 0.46482 0.85376 0.0
C945 C 0.97227 0.48547 0.80411 0.0
N946 N 0.91484 0.51235 0.89146 0.0
N947 N 0.96275 0.50526 0.82531 0.0
H948 H 0.77541 0.74742 0.10431 0.0
H949 H 0.64311 0.62891 0.10809 0.0
H950 H 0.77306 0.66725 0.04972 0.0
H951 H 0.65405 0.69568 0.17599 0.0
H952 H 0.68995 0.64441 0.08551 0.0
H953 H 0.73035 0.73046 0.13025 0.0
C954 C 0.7656 0.72619 0.0979 0.0
C955 C 0.77802 0.70884 0.07468 0.0
C956 C 0.68219 0.65562 0.10541 0.0
C957 C 0.72641 0.68952 0.10404 0.0
C958 C 0.65544 0.64666 0.11844 0.0
C959 C 0.64453 0.66088 0.14412 0.0
C960 C 0.69821 0.6792 0.11792 0.0
C961 C 0.66131 0.68431 0.15602 0.0
C962 C 0.73989 0.71655 0.1127 0.0
C963 C 0.76433 0.6815 0.06738 0.0
N964 N 0.68727 0.69279 0.14279 0.0
N965 N 0.73923 0.67284 0.08185 0.0
H966 H 0.62172 0.48528 0.40404 0.0
H967 H 0.48173 0.56736 0.32895 0.0
H968 H 0.53467 0.44576 0.40317 0.0
H969 H 0.57152 0.60013 0.32464 0.0
H970 H 0.49865 0.52568 0.36085 0.0
H971 H 0.60185 0.53011 0.37923 0.0
C972 C 0.5984 0.48595 0.39849 0.0
C973 C 0.57998 0.46143 0.40532 0.0
C974 C 0.51455 0.54217 0.3531 0.0
C975 C 0.55681 0.5132 0.37708 0.0
C976 C 0.50489 0.566 0.33503 0.0
C977 C 0.52535 0.58701 0.32393 0.0
C978 C 0.54482 0.53952 0.36016 0.0
C979 C 0.55506 0.58427 0.33249 0.0
C980 C 0.58699 0.51172 0.38447 0.0
C981 C 0.54971 0.4641 0.39831 0.0
N982 N 0.5639 0.5609 0.3499 0.0
N983 N 0.5391 0.48942 0.38437 0.0
H984 H 0.39347 0.34663 0.13317 0.0
H985 H 0.42244 0.19545 0.2265 0.0
H986 H 0.32319 0.30827 0.18635 0.0
H987 H 0.47527 0.22257 0.1515 0.0
H988 H 0.38691 0.23795 0.21661 0.0
H989 H 0.4259 0.30354 0.14533 0.0
C990 C 0.38496 0.32931 0.14777 0.0
C991 C 0.3556 0.33118 0.15887 0.0
C992 C 0.40622 0.23432 0.2023 0.0
C993 C 0.39265 0.28117 0.17255 0.0
C994 C 0.42638 0.21011 0.20787 0.0
C995 C 0.45184 0.20564 0.18984 0.0
C996 C 0.41198 0.25412 0.1788 0.0
C997 C 0.45604 0.22527 0.16608 0.0
C998 C 0.40341 0.30447 0.15446 0.0
C999 C 0.34566 0.30761 0.17721 0.0
N1000 N 0.4365 0.24867 0.16141 0.0
N1001 N 0.3642 0.28353 0.18357 0.0
H1002 H 0.91342 0.30849 0.74469 0.0
H1003 H 0.88813 0.19273 0.87834 0.0
H1004 H 0.95702 0.31389 0.82727 0.0
H1005 H 0.84638 0.18193 0.79537 0.0
H1006 H 0.91117 0.23899 0.86022 0.0
H1007 H 0.88605 0.26424 0.76309 0.0
C1008 C 0.9171 0.30058 0.7667 0.0
C1009 C 0.93773 0.31494 0.78435 0.0
C1010 C 0.89692 0.2266 0.84592 0.0
C1011 C 0.90656 0.2643 0.80552 0.0
C1012 C 0.88384 0.19999 0.85625 0.0
C1013 C 0.86539 0.1831 0.83836 0.0
C1014 C 0.89168 0.23666 0.81736 0.0
C1015 C 0.86024 0.19423 0.81008 0.0
C1016 C 0.90153 0.27526 0.77717 0.0
C1017 C 0.94156 0.30358 0.8127 0.0
N1018 N 0.87341 0.22018 0.80042 0.0
N1019 N 0.92627 0.27903 0.82228 0.0
H1020 H 0.06671 0.63422 0.04561 0.0
H1021 H 0.90412 0.6877 0.10153 0.0
H1022 H 0.03362 0.61934 0.13341 0.0
H1023 H 0.93238 0.68908 1.01099 0.0
H1024 H 0.95021 0.65991 0.11318 0.0
H1025 H 0.01703 0.65246 0.03209 0.0
C1026 C 0.04896 0.63479 0.06205 0.0
C1027 C 0.05439 0.62551 0.09076 0.0
C1028 C 0.94621 0.66596 0.0907 0.0
C1029 C 0.99736 0.64624 0.0754 0.0
C1030 C 0.91987 0.68177 0.08404 0.0
C1031 C 0.91461 0.69098 0.05532 0.0
C1032 C 0.9676 0.65957 0.06851 0.0
C1033 C 0.93567 0.68258 0.03347 0.0
C1034 C 0.02055 0.645 0.05427 0.0
C1035 C 0.03042 0.6262 0.11102 0.0
N1036 N 0.96143 0.66769 0.04058 0.0
N1037 N 1.00304 0.63666 0.10302 0.0
H1038 H 0.58783 0.85279 0.37522 0.0
H1039 H 0.57572 0.71771 0.25912 0.0
H1040 H 0.66068 0.82862 0.31578 0.0
H1041 H 0.51884 0.72997 0.33579 0.0
H1042 H 0.6049 0.76137 0.27482 0.0
H1043 H 0.5593 0.81148 0.35555 0.0
C1044 C 0.59788 0.8387 0.35805 0.0
C1045 C 0.62689 0.84386 0.3475 0.0
C1046 C 0.58602 0.75432 0.2881 0.0
C1047 C 0.59412 0.79646 0.32457 0.0
C1048 C 0.5694 0.72946 0.27919 0.0
C1049 C 0.54483 0.72008 0.29618 0.0
C1050 C 0.57766 0.76997 0.31391 0.0
C1051 C 0.53761 0.73617 0.32196 0.0
C1052 C 0.58153 0.81513 0.34674 0.0
C1053 C 0.63838 0.82541 0.32457 0.0
N1054 N 0.55383 0.76027 0.32991 0.0
N1055 N 0.62201 0.80234 0.31394 0.0
H1056 H 0.5439 0.27744 0.58529 0.0
H1057 H 0.45948 0.43665 0.55486 0.0
H1058 H 0.5727 0.33849 0.51714 0.0
H1059 H 0.42485 0.36596 0.61063 0.0
H1060 H 0.50208 0.40281 0.54162 0.0
H1061 H 0.50142 0.31151 0.5961 0.0
C1062 C 0.54132 0.29816 0.57264 0.0
C1063 C 0.56191 0.30525 0.55037 0.0
C1064 C 0.48502 0.39469 0.55659 0.0
C1065 C 0.51308 0.3445 0.56258 0.0
C1066 C 0.46077 0.414 0.56423 0.0
C1067 C 0.43849 0.40412 0.58386 0.0
C1068 C 0.48716 0.36542 0.56892 0.0
C1069 C 0.4412 0.37446 0.59513 0.0
C1070 C 0.51696 0.31758 0.57876 0.0
C1071 C 0.55742 0.33235 0.53463 0.0
N1072 N 0.46511 0.35631 0.58763 0.0
N1073 N 0.53346 0.35109 0.54108 0.0
H1074 H 0.11458 0.70259 0.61962 0.0
H1075 H 0.04879 0.81232 0.74639 0.0
H1076 H 0.12986 0.68691 0.71095 0.0
H1077 H 0.03392 0.82648 0.65479 0.0
H1078 H 0.08218 0.76888 0.73397 0.0
H1079 H 0.08825 0.75035 0.63214 0.0
C1080 C 0.11238 0.70921 0.64234 0.0
C1081 C 0.12418 0.69057 0.66429 0.0
C1082 C 0.07176 0.78162 0.71659 0.0
C1083 C 0.09416 0.74541 0.67884 0.0
C1084 C 0.05275 0.8064 0.72367 0.0
C1085 C 0.03836 0.82272 0.70157 0.0
C1086 C 0.07632 0.77316 0.68722 0.0
C1087 C 0.04438 0.81431 0.6725 0.0
C1088 C 0.09748 0.73658 0.64948 0.0
C1089 C 0.12121 0.70063 0.69331 0.0
N1090 N 0.06273 0.78999 0.66619 0.0
N1091 N 0.10628 0.72726 0.69978 0.0
H1092 H 0.44616 0.82048 1.00115 0.0
H1093 H 0.5353 0.90456 0.87191 0.0
H1094 H 0.4228 0.8171 0.9106 0.0
H1095 H 0.56808 0.89791 0.95936 0.0
H1096 H 0.49138 0.87673 0.88727 0.0
H1097 H 0.48815 0.85305 0.98786 0.0
C1098 C 0.44972 0.82681 0.97853 0.0
C1099 C 0.43111 0.81592 0.95689 0.0
C1100 C 0.50807 0.8814 0.90319 0.0
C1101 C 0.47899 0.85304 0.94156 0.0
C1102 C 0.53314 0.89753 0.89447 0.0
C1103 C 0.55546 0.90379 0.91438 0.0
C1104 C 0.50504 0.87132 0.93214 0.0
C1105 C 0.55158 0.89342 0.9432 0.0
C1106 C 0.47373 0.84527 0.97095 0.0
C1107 C 0.43668 0.82483 0.92795 0.0
N1108 N 0.52686 0.87772 0.95123 0.0
N1109 N 0.46011 0.84274 0.92115 0.0
H1110 H 0.92118 0.15801 0.36181 0.0
H1111 H 0.0468 0.16175 0.48252 0.0
H1112 H 0.93085 0.08828 0.42757 0.0
H1113 H 0.04019 0.22513 0.41076 0.0
H1114 H 1.00494 0.13395 0.46306 0.0
H1115 H 0.96516 0.18243 0.37983 0.0
C1116 C 0.93269 0.14762 0.37989 0.0
C1117 C 0.92227 0.12089 0.39304 0.0
C1118 C 0.01281 0.15387 0.45155 0.0
C1119 C 0.97267 0.14922 0.41426 0.0
C1120 C 0.03674 0.16973 0.46261 0.0
C1121 C 0.04702 0.19597 0.44837 0.0
C1122 C 0.99903 0.16436 0.42614 0.0
C1123 C 0.03305 0.20518 0.42265 0.0
C1124 C 0.95778 0.16172 0.39032 0.0
C1125 C 0.93784 0.10901 0.41691 0.0
N1126 N 0.00977 0.18951 0.4125 0.0
N1127 N 0.96224 0.12327 0.42677 0.0
loop_
_geom_bond_atom_site_label_1
_geom_bond_atom_site_label_2
_geom_bond_distance
_geom_bond_site_symmetry_2
_ccdc_geom_bond_type
Pr0 C2 2.880 . S
Pr0 O20 2.562 . S
Pr0 O21 2.490 . S
Pr0 O22 2.695 . S
Pr0 O23 2.512 . S
Pr0 O25 2.437 . S
Pr0 O28 2.436 . S
Pr0 O30 2.438 . S
Pr1 C11 2.880 . S
Pr1 O22 2.436 . S
Pr1 O24 2.438 . S
Pr1 O26 2.562 . S
Pr1 O27 2.490 . S
Pr1 O28 2.695 . S
Pr1 O29 2.512 . S
Pr1 O31 2.437 . S
C2 Pr0 2.880 . S
C2 C3 1.491 . S
C2 O20 1.254 . S
C2 O21 1.225 . S
C3 C2 1.491 . S
C3 C4 1.392 . S
C3 C8 1.356 . S
C4 C3 1.392 . S
C4 C5 1.368 . S
C4 H32 0.929 . S
C5 C4 1.368 . S
C5 C6 1.386 . S
C5 H33 0.929 . S
C6 C5 1.386 . S
C6 C7 1.373 . S
C7 C6 1.373 . S
C7 C8 1.409 . S
C7 H34 0.931 . S
C8 C3 1.356 . S
C8 C7 1.409 . S
C8 H35 0.930 . S
C9 O22 1.270 . S
C9 O23 1.248 . S
C10 O24 1.267 . S
C10 O25 1.278 . S
C11 Pr1 2.880 . S
C11 C12 1.491 . S
C11 O26 1.254 . S
C11 O27 1.225 . S
C12 C11 1.491 . S
C12 C13 1.392 . S
C12 C17 1.356 . S
C13 C12 1.392 . S
C13 C14 1.368 . S
C13 H36 0.929 . S
C14 C13 1.368 . S
C14 C15 1.386 . S
C14 H37 0.929 . S
C15 C14 1.386 . S
C15 C16 1.373 . S
C16 C15 1.373 . S
C16 C17 1.409 . S
C16 H38 0.931 . S
C17 C12 1.356 . S
C17 C16 1.409 . S
C17 H39 0.930 . S
C18 O28 1.270 . S
C18 O29 1.248 . S
C19 O30 1.267 . S
C19 O31 1.278 . S
O20 Pr0 2.562 . S
O20 C2 1.254 . S
O21 Pr0 2.490 . S
O21 C2 1.225 . S
O22 Pr0 2.695 . S
O22 Pr1 2.436 . S
O22 C9 1.270 . S
O23 Pr0 2.512 . S
O23 C9 1.248 . S
O24 Pr1 2.438 . S
O24 C10 1.267 . S
O25 Pr0 2.437 . S
O25 C10 1.278 . S
O26 Pr1 2.562 . S
O26 C11 1.254 . S
O27 Pr1 2.490 . S
O27 C11 1.225 . S
O28 Pr0 2.436 . S
O28 Pr1 2.695 . S
O28 C18 1.270 . S
O29 Pr1 2.512 . S
O29 C18 1.248 . S
O30 Pr0 2.438 . S
O30 C19 1.267 . S
O31 Pr1 2.437 . S
O31 C19 1.278 . S
H32 C4 0.929 . S
H33 C5 0.929 . S
H34 C7 0.931 . S
H35 C8 0.930 . S
H36 C13 0.929 . S
H37 C14 0.929 . S
H38 C16 0.931 . S
H39 C17 0.930 . S
Pr40 C42 2.880 . S
Pr40 O60 2.562 . S
Pr40 O61 2.490 . S
Pr40 O62 2.695 1_655 S
Pr40 O63 2.512 1_655 S
Pr40 O65 2.437 1_655 S
Pr40 O68 2.436 . S
Pr40 O70 2.438 . S
Pr41 C51 2.880 . S
Pr41 O62 2.436 . S
Pr41 O64 2.438 . S
Pr41 O66 2.562 . S
Pr41 O67 2.490 . S
Pr41 O68 2.695 1_455 S
Pr41 O69 2.512 1_455 S
Pr41 O71 2.437 1_455 S
C42 Pr40 2.880 . S
C42 C43 1.491 . S
C42 O60 1.254 . S
C42 O61 1.225 . S
C43 C42 1.491 . S
C43 C44 1.392 . S
C43 C48 1.356 . S
C44 C43 1.392 . S
C44 C45 1.368 . S
C44 H72 0.929 . S
C45 C44 1.368 . S
C45 C46 1.386 . S
C45 H73 0.929 . S
C46 C45 1.386 . S
C46 C47 1.373 . S
C47 C46 1.373 . S
C47 C48 1.409 . S
C47 H74 0.931 . S
C48 C43 1.356 . S
C48 C47 1.409 . S
C48 H75 0.930 . S
C49 O62 1.270 . S
C49 O63 1.248 . S
C50 O64 1.267 . S
C50 O65 1.278 . S
C51 Pr41 2.880 . S
C51 C52 1.491 . S
C51 O66 1.254 . S
C51 O67 1.225 . S
C52 C51 1.491 . S
C52 C53 1.392 . S
C52 C57 1.356 . S
C53 C52 1.392 . S
C53 C54 1.368 . S
C53 H76 0.929 . S
C54 C53 1.368 . S
C54 C55 1.386 . S
C54 H77 0.929 . S
C55 C54 1.386 . S
C55 C56 1.373 . S
C56 C55 1.373 . S
C56 C57 1.409 . S
C56 H78 0.931 . S
C57 C52 1.356 . S
C57 C56 1.409 . S
C57 H79 0.930 . S
C58 O68 1.270 . S
C58 O69 1.248 . S
C59 O70 1.267 . S
C59 O71 1.278 . S
O60 Pr40 2.562 . S
O60 C42 1.254 . S
O61 Pr40 2.490 . S
O61 C42 1.225 . S
O62 Pr40 2.695 1_455 S
O62 Pr41 2.436 . S
O62 C49 1.270 . S
O63 Pr40 2.512 1_455 S
O63 C49 1.248 . S
O64 Pr41 2.438 . S
O64 C50 1.267 . S
O65 Pr40 2.437 1_455 S
O65 C50 1.278 . S
O66 Pr41 2.562 . S
O66 C51 1.254 . S
O67 Pr41 2.490 . S
O67 C51 1.225 . S
O68 Pr40 2.436 . S
O68 Pr41 2.695 1_655 S
O68 C58 1.270 . S
O69 Pr41 2.512 1_655 S
O69 C58 1.248 . S
O70 Pr40 2.438 . S
O70 C59 1.267 . S
O71 Pr41 2.437 1_655 S
O71 C59 1.278 . S
H72 C44 0.929 . S
H73 C45 0.929 . S
H74 C47 0.931 . S
H75 C48 0.930 . S
H76 C53 0.929 . S
H77 C54 0.929 . S
H78 C56 0.931 . S
H79 C57 0.930 . S
Pr80 C82 2.880 . S
Pr80 O100 2.562 . S
Pr80 O101 2.490 . S
Pr80 O102 2.695 . S
Pr80 O103 2.512 . S
Pr80 O105 2.437 . S
Pr80 O108 2.436 1_556 S
Pr80 O110 2.438 1_556 S
Pr81 C91 2.880 . S
Pr81 O102 2.436 1_554 S
Pr81 O104 2.438 1_554 S
Pr81 O106 2.562 . S
Pr81 O107 2.490 . S
Pr81 O108 2.695 . S
Pr81 O109 2.512 . S
Pr81 O111 2.437 . S
C82 Pr80 2.880 . S
C82 C83 1.491 . S
C82 O100 1.254 . S
C82 O101 1.225 . S
C83 C82 1.491 . S
C83 C84 1.392 . S
C83 C88 1.356 . S
C84 C83 1.392 . S
C84 C85 1.368 . S
C84 H112 0.929 . S
C85 C84 1.368 . S
C85 C86 1.386 . S
C85 H113 0.929 . S
C86 C85 1.386 . S
C86 C87 1.373 . S
C87 C86 1.373 . S
C87 C88 1.409 . S
C87 H114 0.931 . S
C88 C83 1.356 . S
C88 C87 1.409 . S
C88 H115 0.930 . S
C89 O102 1.270 . S
C89 O103 1.248 . S
C90 O104 1.267 . S
C90 O105 1.278 . S
C91 Pr81 2.880 . S
C91 C92 1.491 . S
C91 O106 1.254 . S
C91 O107 1.225 . S
C92 C91 1.491 . S
C92 C93 1.392 . S
C92 C97 1.356 . S
C93 C92 1.392 . S
C93 C94 1.368 . S
C93 H116 0.929 . S
C94 C93 1.368 . S
C94 C95 1.386 . S
C94 H117 0.929 . S
C95 C94 1.386 . S
C95 C96 1.373 . S
C96 C95 1.373 . S
C96 C97 1.409 . S
C96 H118 0.931 . S
C97 C92 1.356 . S
C97 C96 1.409 . S
C97 H119 0.930 . S
C98 O108 1.270 . S
C98 O109 1.248 . S
C99 O110 1.267 . S
C99 O111 1.278 . S
O100 Pr80 2.562 . S
O100 C82 1.254 . S
O101 Pr80 2.490 . S
O101 C82 1.225 . S
O102 Pr80 2.695 . S
O102 Pr81 2.436 1_556 S
O102 C89 1.270 . S
O103 Pr80 2.512 . S
O103 C89 1.248 . S
O104 Pr81 2.438 1_556 S
O104 C90 1.267 . S
O105 Pr80 2.437 . S
O105 C90 1.278 . S
O106 Pr81 2.562 . S
O106 C91 1.254 . S
O107 Pr81 2.490 . S
O107 C91 1.225 . S
O108 Pr80 2.436 1_554 S
O108 Pr81 2.695 . S
O108 C98 1.270 . S
O109 Pr81 2.512 . S
O109 C98 1.248 . S
O110 Pr80 2.438 1_554 S
O110 C99 1.267 . S
O111 Pr81 2.437 . S
O111 C99 1.278 . S
H112 C84 0.929 . S
H113 C85 0.929 . S
H114 C87 0.931 . S
H115 C88 0.930 . S
H116 C93 0.929 . S
H117 C94 0.929 . S
H118 C96 0.931 . S
H119 C97 0.930 . S
Pr120 C122 2.880 . S
Pr120 O140 2.562 . S
Pr120 O141 2.490 . S
Pr120 O142 2.695 . S
Pr120 O143 2.512 . S
Pr120 O145 2.437 . S
Pr120 O148 2.436 . S
Pr120 O150 2.438 . S
Pr121 C131 2.880 . S
Pr121 O142 2.436 . S
Pr121 O144 2.438 . S
Pr121 O146 2.562 . S
Pr121 O147 2.490 . S
Pr121 O148 2.695 . S
Pr121 O149 2.512 . S
Pr121 O151 2.437 . S
C122 Pr120 2.880 . S
C122 C123 1.491 . S
C122 O140 1.254 . S
C122 O141 1.225 . S
C123 C122 1.491 . S
C123 C124 1.392 . S
C123 C128 1.356 . S
C124 C123 1.392 . S
C124 C125 1.368 . S
C124 H152 0.929 . S
C125 C124 1.368 . S
C125 C126 1.386 . S
C125 H153 0.929 . S
C126 C125 1.386 . S
C126 C127 1.373 . S
C127 C126 1.373 . S
C127 C128 1.409 . S
C127 H154 0.931 . S
C128 C123 1.356 . S
C128 C127 1.409 . S
C128 H155 0.930 . S
C129 O142 1.270 . S
C129 O143 1.248 . S
C130 O144 1.267 . S
C130 O145 1.278 . S
C131 Pr121 2.880 . S
C131 C132 1.491 . S
C131 O146 1.254 . S
C131 O147 1.225 . S
C132 C131 1.491 . S
C132 C133 1.392 . S
C132 C137 1.356 . S
C133 C132 1.392 . S
C133 C134 1.368 . S
C133 H156 0.929 . S
C134 C133 1.368 . S
C134 C135 1.386 . S
C134 H157 0.929 . S
C135 C134 1.386 . S
C135 C136 1.373 . S
C136 C135 1.373 . S
C136 C137 1.409 . S
C136 H158 0.931 . S
C137 C132 1.356 . S
C137 C136 1.409 . S
C137 H159 0.930 . S
C138 O148 1.270 . S
C138 O149 1.248 . S
C139 O150 1.267 . S
C139 O151 1.278 . S
O140 Pr120 2.562 . S
O140 C122 1.254 . S
O141 Pr120 2.490 . S
O141 C122 1.225 . S
O142 Pr120 2.695 . S
O142 Pr121 2.436 . S
O142 C129 1.270 . S
O143 Pr120 2.512 . S
O143 C129 1.248 . S
O144 Pr121 2.438 . S
O144 C130 1.267 . S
O145 Pr120 2.437 . S
O145 C130 1.278 . S
O146 Pr121 2.562 . S
O146 C131 1.254 . S
O147 Pr121 2.490 . S
O147 C131 1.225 . S
O148 Pr120 2.436 . S
O148 Pr121 2.695 . S
O148 C138 1.270 . S
O149 Pr121 2.512 . S
O149 C138 1.248 . S
O150 Pr120 2.438 . S
O150 C139 1.267 . S
O151 Pr121 2.437 . S
O151 C139 1.278 . S
H152 C124 0.929 . S
H153 C125 0.929 . S
H154 C127 0.931 . S
H155 C128 0.930 . S
H156 C133 0.929 . S
H157 C134 0.929 . S
H158 C136 0.931 . S
H159 C137 0.930 . S
Pr160 C162 2.880 . S
Pr160 O180 2.562 . S
Pr160 O181 2.490 . S
Pr160 O182 2.695 . S
Pr160 O183 2.512 . S
Pr160 O185 2.437 . S
Pr160 O188 2.436 . S
Pr160 O190 2.438 . S
Pr161 C171 2.880 . S
Pr161 O182 2.436 . S
Pr161 O184 2.438 . S
Pr161 O186 2.562 . S
Pr161 O187 2.490 . S
Pr161 O188 2.695 . S
Pr161 O189 2.512 . S
Pr161 O191 2.437 . S
C162 Pr160 2.880 . S
C162 C163 1.491 . S
C162 O180 1.254 . S
C162 O181 1.225 . S
C163 C162 1.491 . S
C163 C164 1.392 . S
C163 C168 1.356 . S
C164 C163 1.392 . S
C164 C165 1.368 . S
C164 H192 0.929 . S
C165 C164 1.368 . S
C165 C166 1.386 . S
C165 H193 0.929 . S
C166 C165 1.386 . S
C166 C167 1.373 . S
C167 C166 1.373 . S
C167 C168 1.409 . S
C167 H194 0.931 . S
C168 C163 1.356 . S
C168 C167 1.409 . S
C168 H195 0.930 . S
C169 O182 1.270 . S
C169 O183 1.248 . S
C170 O184 1.267 . S
C170 O185 1.278 . S
C171 Pr161 2.880 . S
C171 C172 1.491 . S
C171 O186 1.254 . S
C171 O187 1.225 . S
C172 C171 1.491 . S
C172 C173 1.392 . S
C172 C177 1.356 . S
C173 C172 1.392 . S
C173 C174 1.368 . S
C173 H196 0.929 . S
C174 C173 1.368 . S
C174 C175 1.386 . S
C174 H197 0.929 . S
C175 C174 1.386 . S
C175 C176 1.373 . S
C176 C175 1.373 . S
C176 C177 1.409 . S
C176 H198 0.931 . S
C177 C172 1.356 . S
C177 C176 1.409 . S
C177 H199 0.930 . S
C178 O188 1.270 . S
C178 O189 1.248 . S
C179 O190 1.267 . S
C179 O191 1.278 . S
O180 Pr160 2.562 . S
O180 C162 1.254 . S
O181 Pr160 2.490 . S
O181 C162 1.225 . S
O182 Pr160 2.695 . S
O182 Pr161 2.436 . S
O182 C169 1.270 . S
O183 Pr160 2.512 . S
O183 C169 1.248 . S
O184 Pr161 2.438 . S
O184 C170 1.267 . S
O185 Pr160 2.437 . S
O185 C170 1.278 . S
O186 Pr161 2.562 . S
O186 C171 1.254 . S
O187 Pr161 2.490 . S
O187 C171 1.225 . S
O188 Pr160 2.436 . S
O188 Pr161 2.695 . S
O188 C178 1.270 . S
O189 Pr161 2.512 . S
O189 C178 1.248 . S
O190 Pr160 2.438 . S
O190 C179 1.267 . S
O191 Pr161 2.437 . S
O191 C179 1.278 . S
H192 C164 0.929 . S
H193 C165 0.929 . S
H194 C167 0.931 . S
H195 C168 0.930 . S
H196 C173 0.929 . S
H197 C174 0.929 . S
H198 C176 0.931 . S
H199 C177 0.930 . S
Pr200 C202 2.880 . S
Pr200 O220 2.562 . S
Pr200 O221 2.490 . S
Pr200 O222 2.695 . S
Pr200 O223 2.512 . S
Pr200 O225 2.437 . S
Pr200 O228 2.436 . S
Pr200 O230 2.438 . S
Pr201 C211 2.880 . S
Pr201 O222 2.436 1_455 S
Pr201 O224 2.438 1_455 S
Pr201 O226 2.562 . S
Pr201 O227 2.490 . S
Pr201 O228 2.695 1_455 S
Pr201 O229 2.512 . S
Pr201 O231 2.437 . S
C202 Pr200 2.880 . S
C202 C203 1.491 . S
C202 O220 1.254 . S
C202 O221 1.225 . S
C203 C202 1.491 . S
C203 C204 1.392 . S
C203 C208 1.356 . S
C204 C203 1.392 . S
C204 C205 1.368 . S
C204 H232 0.929 . S
C205 C204 1.368 . S
C205 C206 1.386 . S
C205 H233 0.929 . S
C206 C205 1.386 . S
C206 C207 1.373 . S
C207 C206 1.373 . S
C207 C208 1.409 . S
C207 H234 0.931 . S
C208 C203 1.356 . S
C208 C207 1.409 . S
C208 H235 0.930 . S
C209 O222 1.270 . S
C209 O223 1.248 . S
C210 O224 1.267 . S
C210 O225 1.278 . S
C211 Pr201 2.880 . S
C211 C212 1.491 . S
C211 O226 1.254 . S
C211 O227 1.225 . S
C212 C211 1.491 . S
C212 C213 1.392 . S
C212 C217 1.356 . S
C213 C212 1.392 . S
C213 C214 1.368 . S
C213 H236 0.929 . S
C214 C213 1.368 . S
C214 C215 1.386 . S
C214 H237 0.929 . S
C215 C214 1.386 . S
C215 C216 1.373 . S
C216 C215 1.373 . S
C216 C217 1.409 . S
C216 H238 0.931 . S
C217 C212 1.356 . S
C217 C216 1.409 . S
C217 H239 0.930 . S
C218 O228 1.270 1_455 S
C218 O229 1.248 . S
C219 O230 1.267 1_455 S
C219 O231 1.278 . S
O220 Pr200 2.562 . S
O220 C202 1.254 . S
O221 Pr200 2.490 . S
O221 C202 1.225 . S
O222 Pr200 2.695 . S
O222 Pr201 2.436 1_655 S
O222 C209 1.270 . S
O223 Pr200 2.512 . S
O223 C209 1.248 . S
O224 Pr201 2.438 1_655 S
O224 C210 1.267 . S
O225 Pr200 2.437 . S
O225 C210 1.278 . S
O226 Pr201 2.562 . S
O226 C211 1.254 . S
O227 Pr201 2.490 . S
O227 C211 1.225 . S
O228 Pr200 2.436 . S
O228 Pr201 2.695 1_655 S
O228 C218 1.270 1_655 S
O229 Pr201 2.512 . S
O229 C218 1.248 . S
O230 Pr200 2.438 . S
O230 C219 1.267 1_655 S
O231 Pr201 2.437 . S
O231 C219 1.278 . S
H232 C204 0.929 . S
H233 C205 0.929 . S
H234 C207 0.931 . S
H235 C208 0.930 . S
H236 C213 0.929 . S
H237 C214 0.929 . S
H238 C216 0.931 . S
H239 C217 0.930 . S
Pr240 C242 2.880 . S
Pr240 O260 2.562 . S
Pr240 O261 2.490 . S
Pr240 O262 2.695 . S
Pr240 O263 2.512 . S
Pr240 O265 2.437 . S
Pr240 O268 2.436 1_554 S
Pr240 O270 2.438 1_554 S
Pr241 C251 2.880 . S
Pr241 O262 2.436 1_556 S
Pr241 O264 2.438 1_556 S
Pr241 O266 2.562 . S
Pr241 O267 2.490 . S
Pr241 O268 2.695 . S
Pr241 O269 2.512 . S
Pr241 O271 2.437 . S
C242 Pr240 2.880 . S
C242 C243 1.491 . S
C242 O260 1.254 . S
C242 O261 1.225 . S
C243 C242 1.491 . S
C243 C244 1.392 . S
C243 C248 1.356 . S
C244 C243 1.392 . S
C244 C245 1.368 . S
C244 H272 0.929 . S
C245 C244 1.368 . S
C245 C246 1.386 . S
C245 H273 0.929 . S
C246 C245 1.386 . S
C246 C247 1.373 . S
C247 C246 1.373 . S
C247 C248 1.409 . S
C247 H274 0.931 . S
C248 C243 1.356 . S
C248 C247 1.409 . S
C248 H275 0.930 . S
C249 O262 1.270 . S
C249 O263 1.248 . S
C250 O264 1.267 . S
C250 O265 1.278 . S
C251 Pr241 2.880 . S
C251 C252 1.491 . S
C251 O266 1.254 . S
C251 O267 1.225 . S
C252 C251 1.491 . S
C252 C253 1.392 . S
C252 C257 1.356 . S
C253 C252 1.392 . S
C253 C254 1.368 . S
C253 H276 0.929 . S
C254 C253 1.368 . S
C254 C255 1.386 . S
C254 H277 0.929 . S
C255 C254 1.386 . S
C255 C256 1.373 . S
C256 C255 1.373 . S
C256 C257 1.409 . S
C256 H278 0.931 . S
C257 C252 1.356 . S
C257 C256 1.409 . S
C257 H279 0.930 . S
C258 O268 1.270 . S
C258 O269 1.248 . S
C259 O270 1.267 . S
C259 O271 1.278 . S
O260 Pr240 2.562 . S
O260 C242 1.254 . S
O261 Pr240 2.490 . S
O261 C242 1.225 . S
O262 Pr240 2.695 . S
O262 Pr241 2.436 1_554 S
O262 C249 1.270 . S
O263 Pr240 2.512 . S
O263 C249 1.248 . S
O264 Pr241 2.438 1_554 S
O264 C250 1.267 . S
O265 Pr240 2.437 . S
O265 C250 1.278 . S
O266 Pr241 2.562 . S
O266 C251 1.254 . S
O267 Pr241 2.490 . S
O267 C251 1.225 . S
O268 Pr240 2.436 1_556 S
O268 Pr241 2.695 . S
O268 C258 1.270 . S
O269 Pr241 2.512 . S
O269 C258 1.248 . S
O270 Pr240 2.438 1_556 S
O270 C259 1.267 . S
O271 Pr241 2.437 . S
O271 C259 1.278 . S
H272 C244 0.929 . S
H273 C245 0.929 . S
H274 C247 0.931 . S
H275 C248 0.930 . S
H276 C253 0.929 . S
H277 C254 0.929 . S
H278 C256 0.931 . S
H279 C257 0.930 . S
Pr280 C282 2.880 . S
Pr280 O300 2.562 . S
Pr280 O301 2.490 . S
Pr280 O302 2.695 . S
Pr280 O303 2.512 . S
Pr280 O305 2.437 . S
Pr280 O308 2.436 . S
Pr280 O310 2.438 . S
Pr281 C291 2.880 . S
Pr281 O302 2.436 . S
Pr281 O304 2.438 . S
Pr281 O306 2.562 . S
Pr281 O307 2.490 . S
Pr281 O308 2.695 . S
Pr281 O309 2.512 . S
Pr281 O311 2.437 . S
C282 Pr280 2.880 . S
C282 C283 1.491 . S
C282 O300 1.254 . S
C282 O301 1.225 . S
C283 C282 1.491 . S
C283 C284 1.392 . S
C283 C288 1.356 . S
C284 C283 1.392 . S
C284 C285 1.368 . S
C284 H312 0.929 . S
C285 C284 1.368 . S
C285 C286 1.386 . S
C285 H313 0.929 . S
C286 C285 1.386 . S
C286 C287 1.373 . S
C287 C286 1.373 . S
C287 C288 1.409 . S
C287 H314 0.931 . S
C288 C283 1.356 . S
C288 C287 1.409 . S
C288 H315 0.930 . S
C289 O302 1.270 . S
C289 O303 1.248 . S
C290 O304 1.267 . S
C290 O305 1.278 . S
C291 Pr281 2.880 . S
C291 C292 1.491 . S
C291 O306 1.254 . S
C291 O307 1.225 . S
C292 C291 1.491 . S
C292 C293 1.392 . S
C292 C297 1.356 . S
C293 C292 1.392 . S
C293 C294 1.368 . S
C293 H316 0.929 . S
C294 C293 1.368 . S
C294 C295 1.386 . S
C294 H317 0.929 . S
C295 C294 1.386 . S
C295 C296 1.373 . S
C296 C295 1.373 . S
C296 C297 1.409 . S
C296 H318 0.931 . S
C297 C292 1.356 . S
C297 C296 1.409 . S
C297 H319 0.930 . S
C298 O308 1.270 . S
C298 O309 1.248 . S
C299 O310 1.267 . S
C299 O311 1.278 . S
O300 Pr280 2.562 . S
O300 C282 1.254 . S
O301 Pr280 2.490 . S
O301 C282 1.225 . S
O302 Pr280 2.695 . S
O302 Pr281 2.436 . S
O302 C289 1.270 . S
O303 Pr280 2.512 . S
O303 C289 1.248 . S
O304 Pr281 2.438 . S
O304 C290 1.267 . S
O305 Pr280 2.437 . S
O305 C290 1.278 . S
O306 Pr281 2.562 . S
O306 C291 1.254 . S
O307 Pr281 2.490 . S
O307 C291 1.225 . S
O308 Pr280 2.436 . S
O308 Pr281 2.695 . S
O308 C298 1.270 . S
O309 Pr281 2.512 . S
O309 C298 1.248 . S
O310 Pr280 2.438 . S
O310 C299 1.267 . S
O311 Pr281 2.437 . S
O311 C299 1.278 . S
H312 C284 0.929 . S
H313 C285 0.929 . S
H314 C287 0.931 . S
H315 C288 0.930 . S
H316 C293 0.929 . S
H317 C294 0.929 . S
H318 C296 0.931 . S
H319 C297 0.930 . S
Pr320 C322 2.880 . S
Pr320 O340 2.562 . S
Pr320 O341 2.490 . S
Pr320 O342 2.695 . S
Pr320 O343 2.512 . S
Pr320 O345 2.437 . S
Pr320 O348 2.436 . S
Pr320 O350 2.438 . S
Pr321 C331 2.880 . S
Pr321 O342 2.436 . S
Pr321 O344 2.438 . S
Pr321 O346 2.562 . S
Pr321 O347 2.490 . S
Pr321 O348 2.695 . S
Pr321 O349 2.512 . S
Pr321 O351 2.437 . S
C322 Pr320 2.880 . S
C322 C323 1.491 . S
C322 O340 1.254 . S
C322 O341 1.225 . S
C323 C322 1.491 . S
C323 C324 1.392 . S
C323 C328 1.356 . S
C324 C323 1.392 . S
C324 C325 1.368 . S
C324 H352 0.929 . S
C325 C324 1.368 . S
C325 C326 1.386 . S
C325 H353 0.929 . S
C326 C325 1.386 . S
C326 C327 1.373 . S
C327 C326 1.373 . S
C327 C328 1.409 . S
C327 H354 0.931 . S
C328 C323 1.356 . S
C328 C327 1.409 . S
C328 H355 0.930 . S
C329 O342 1.270 . S
C329 O343 1.248 . S
C330 O344 1.267 . S
C330 O345 1.278 . S
C331 Pr321 2.880 . S
C331 C332 1.491 . S
C331 O346 1.254 . S
C331 O347 1.225 . S
C332 C331 1.491 . S
C332 C333 1.392 . S
C332 C337 1.356 . S
C333 C332 1.392 . S
C333 C334 1.368 . S
C333 H356 0.929 . S
C334 C333 1.368 . S
C334 C335 1.386 . S
C334 H357 0.929 . S
C335 C334 1.386 . S
C335 C336 1.373 . S
C336 C335 1.373 . S
C336 C337 1.409 . S
C336 H358 0.931 . S
C337 C332 1.356 . S
C337 C336 1.409 . S
C337 H359 0.930 . S
C338 O348 1.270 . S
C338 O349 1.248 . S
C339 O350 1.267 . S
C339 O351 1.278 . S
O340 Pr320 2.562 . S
O340 C322 1.254 . S
O341 Pr320 2.490 . S
O341 C322 1.225 . S
O342 Pr320 2.695 . S
O342 Pr321 2.436 . S
O342 C329 1.270 . S
O343 Pr320 2.512 . S
O343 C329 1.248 . S
O344 Pr321 2.438 . S
O344 C330 1.267 . S
O345 Pr320 2.437 . S
O345 C330 1.278 . S
O346 Pr321 2.562 . S
O346 C331 1.254 . S
O347 Pr321 2.490 . S
O347 C331 1.225 . S
O348 Pr320 2.436 . S
O348 Pr321 2.695 . S
O348 C338 1.270 . S
O349 Pr321 2.512 . S
O349 C338 1.248 . S
O350 Pr320 2.438 . S
O350 C339 1.267 . S
O351 Pr321 2.437 . S
O351 C339 1.278 . S
H352 C324 0.929 . S
H353 C325 0.929 . S
H354 C327 0.931 . S
H355 C328 0.930 . S
H356 C333 0.929 . S
H357 C334 0.929 . S
H358 C336 0.931 . S
H359 C337 0.930 . S
Pr360 C362 2.880 . S
Pr360 O380 2.562 . S
Pr360 O381 2.490 . S
Pr360 O382 2.695 . S
Pr360 O383 2.512 . S
Pr360 O385 2.437 . S
Pr360 O388 2.436 1_545 S
Pr360 O390 2.438 1_545 S
Pr361 C371 2.880 . S
Pr361 O382 2.436 1_565 S
Pr361 O384 2.438 1_565 S
Pr361 O386 2.562 . S
Pr361 O387 2.490 . S
Pr361 O388 2.695 . S
Pr361 O389 2.512 . S
Pr361 O391 2.437 . S
C362 Pr360 2.880 . S
C362 C363 1.491 . S
C362 O380 1.254 . S
C362 O381 1.225 . S
C363 C362 1.491 . S
C363 C364 1.392 . S
C363 C368 1.356 . S
C364 C363 1.392 . S
C364 C365 1.368 . S
C364 H392 0.929 . S
C365 C364 1.368 . S
C365 C366 1.386 . S
C365 H393 0.929 . S
C366 C365 1.386 . S
C366 C367 1.373 . S
C367 C366 1.373 . S
C367 C368 1.409 . S
C367 H394 0.931 . S
C368 C363 1.356 . S
C368 C367 1.409 . S
C368 H395 0.930 . S
C369 O382 1.270 . S
C369 O383 1.248 . S
C370 O384 1.267 . S
C370 O385 1.278 . S
C371 Pr361 2.880 . S
C371 C372 1.491 . S
C371 O386 1.254 . S
C371 O387 1.225 . S
C372 C371 1.491 . S
C372 C373 1.392 . S
C372 C377 1.356 . S
C373 C372 1.392 . S
C373 C374 1.368 . S
C373 H396 0.929 . S
C374 C373 1.368 . S
C374 C375 1.386 . S
C374 H397 0.929 . S
C375 C374 1.386 . S
C375 C376 1.373 . S
C376 C375 1.373 . S
C376 C377 1.409 . S
C376 H398 0.931 . S
C377 C372 1.356 . S
C377 C376 1.409 . S
C377 H399 0.930 . S
C378 O388 1.270 . S
C378 O389 1.248 . S
C379 O390 1.267 . S
C379 O391 1.278 . S
O380 Pr360 2.562 . S
O380 C362 1.254 . S
O381 Pr360 2.490 . S
O381 C362 1.225 . S
O382 Pr360 2.695 . S
O382 Pr361 2.436 1_545 S
O382 C369 1.270 . S
O383 Pr360 2.512 . S
O383 C369 1.248 . S
O384 Pr361 2.438 1_545 S
O384 C370 1.267 . S
O385 Pr360 2.437 . S
O385 C370 1.278 . S
O386 Pr361 2.562 . S
O386 C371 1.254 . S
O387 Pr361 2.490 . S
O387 C371 1.225 . S
O388 Pr360 2.436 1_565 S
O388 Pr361 2.695 . S
O388 C378 1.270 . S
O389 Pr361 2.512 . S
O389 C378 1.248 . S
O390 Pr360 2.438 1_565 S
O390 C379 1.267 . S
O391 Pr361 2.437 . S
O391 C379 1.278 . S
H392 C364 0.929 . S
H393 C365 0.929 . S
H394 C367 0.931 . S
H395 C368 0.930 . S
H396 C373 0.929 . S
H397 C374 0.929 . S
H398 C376 0.931 . S
H399 C377 0.930 . S
Pr400 C402 2.880 . S
Pr400 O420 2.562 . S
Pr400 O421 2.490 . S
Pr400 O422 2.695 1_545 S
Pr400 O423 2.512 1_545 S
Pr400 O425 2.437 1_545 S
Pr400 O428 2.436 . S
Pr400 O430 2.438 . S
Pr401 C411 2.880 . S
Pr401 O422 2.436 . S
Pr401 O424 2.438 . S
Pr401 O426 2.562 . S
Pr401 O427 2.490 . S
Pr401 O428 2.695 1_565 S
Pr401 O429 2.512 1_565 S
Pr401 O431 2.437 1_565 S
C402 Pr400 2.880 . S
C402 C403 1.491 . S
C402 O420 1.254 . S
C402 O421 1.225 . S
C403 C402 1.491 . S
C403 C404 1.392 . S
C403 C408 1.356 . S
C404 C403 1.392 . S
C404 C405 1.368 . S
C404 H432 0.929 . S
C405 C404 1.368 . S
C405 C406 1.386 . S
C405 H433 0.929 . S
C406 C405 1.386 . S
C406 C407 1.373 . S
C407 C406 1.373 . S
C407 C408 1.409 . S
C407 H434 0.931 . S
C408 C403 1.356 . S
C408 C407 1.409 . S
C408 H435 0.930 . S
C409 O422 1.270 . S
C409 O423 1.248 . S
C410 O424 1.267 . S
C410 O425 1.278 . S
C411 Pr401 2.880 . S
C411 C412 1.491 . S
C411 O426 1.254 . S
C411 O427 1.225 . S
C412 C411 1.491 . S
C412 C413 1.392 . S
C412 C417 1.356 . S
C413 C412 1.392 . S
C413 C414 1.368 . S
C413 H436 0.929 . S
C414 C413 1.368 . S
C414 C415 1.386 . S
C414 H437 0.929 . S
C415 C414 1.386 . S
C415 C416 1.373 . S
C416 C415 1.373 . S
C416 C417 1.409 . S
C416 H438 0.931 . S
C417 C412 1.356 . S
C417 C416 1.409 . S
C417 H439 0.930 . S
C418 O428 1.270 . S
C418 O429 1.248 . S
C419 O430 1.267 . S
C419 O431 1.278 . S
O420 Pr400 2.562 . S
O420 C402 1.254 . S
O421 Pr400 2.490 . S
O421 C402 1.225 . S
O422 Pr400 2.695 1_565 S
O422 Pr401 2.436 . S
O422 C409 1.270 . S
O423 Pr400 2.512 1_565 S
O423 C409 1.248 . S
O424 Pr401 2.438 . S
O424 C410 1.267 . S
O425 Pr400 2.437 1_565 S
O425 C410 1.278 . S
O426 Pr401 2.562 . S
O426 C411 1.254 . S
O427 Pr401 2.490 . S
O427 C411 1.225 . S
O428 Pr400 2.436 . S
O428 Pr401 2.695 1_545 S
O428 C418 1.270 . S
O429 Pr401 2.512 1_545 S
O429 C418 1.248 . S
O430 Pr400 2.438 . S
O430 C419 1.267 . S
O431 Pr401 2.437 1_545 S
O431 C419 1.278 . S
H432 C404 0.929 . S
H433 C405 0.929 . S
H434 C407 0.931 . S
H435 C408 0.930 . S
H436 C413 0.929 . S
H437 C414 0.929 . S
H438 C416 0.931 . S
H439 C417 0.930 . S
Pr440 C442 2.880 . S
Pr440 O460 2.562 . S
Pr440 O461 2.490 . S
Pr440 O462 2.695 . S
Pr440 O463 2.512 . S
Pr440 O465 2.437 . S
Pr440 O468 2.436 . S
Pr440 O470 2.438 . S
Pr441 C451 2.880 . S
Pr441 O462 2.436 . S
Pr441 O464 2.438 . S
Pr441 O466 2.562 . S
Pr441 O467 2.490 . S
Pr441 O468 2.695 . S
Pr441 O469 2.512 . S
Pr441 O471 2.437 . S
C442 Pr440 2.880 . S
C442 C443 1.491 . S
C442 O460 1.254 . S
C442 O461 1.225 . S
C443 C442 1.491 . S
C443 C444 1.392 . S
C443 C448 1.356 . S
C444 C443 1.392 . S
C444 C445 1.368 . S
C444 H472 0.929 . S
C445 C444 1.368 . S
C445 C446 1.386 . S
C445 H473 0.929 . S
C446 C445 1.386 . S
C446 C447 1.373 . S
C447 C446 1.373 . S
C447 C448 1.409 . S
C447 H474 0.931 . S
C448 C443 1.356 . S
C448 C447 1.409 . S
C448 H475 0.930 . S
C449 O462 1.270 . S
C449 O463 1.248 . S
C450 O464 1.267 . S
C450 O465 1.278 . S
C451 Pr441 2.880 . S
C451 C452 1.491 . S
C451 O466 1.254 . S
C451 O467 1.225 . S
C452 C451 1.491 . S
C452 C453 1.392 . S
C452 C457 1.356 . S
C453 C452 1.392 . S
C453 C454 1.368 . S
C453 H476 0.929 . S
C454 C453 1.368 . S
C454 C455 1.386 . S
C454 H477 0.929 . S
C455 C454 1.386 . S
C455 C456 1.373 . S
C456 C455 1.373 . S
C456 C457 1.409 . S
C456 H478 0.931 . S
C457 C452 1.356 . S
C457 C456 1.409 . S
C457 H479 0.930 . S
C458 O468 1.270 . S
C458 O469 1.248 . S
C459 O470 1.267 . S
C459 O471 1.278 . S
O460 Pr440 2.562 . S
O460 C442 1.254 . S
O461 Pr440 2.490 . S
O461 C442 1.225 . S
O462 Pr440 2.695 . S
O462 Pr441 2.436 . S
O462 C449 1.270 . S
O463 Pr440 2.512 . S
O463 C449 1.248 . S
O464 Pr441 2.438 . S
O464 C450 1.267 . S
O465 Pr440 2.437 . S
O465 C450 1.278 . S
O466 Pr441 2.562 . S
O466 C451 1.254 . S
O467 Pr441 2.490 . S
O467 C451 1.225 . S
O468 Pr440 2.436 . S
O468 Pr441 2.695 . S
O468 C458 1.270 . S
O469 Pr441 2.512 . S
O469 C458 1.248 . S
O470 Pr440 2.438 . S
O470 C459 1.267 . S
O471 Pr441 2.437 . S
O471 C459 1.278 . S
H472 C444 0.929 . S
H473 C445 0.929 . S
H474 C447 0.931 . S
H475 C448 0.930 . S
H476 C453 0.929 . S
H477 C454 0.929 . S
H478 C456 0.931 . S
H479 C457 0.930 . S
H480 C486 0.930 . S
H481 C490 0.930 . S
H482 C495 0.929 . S
H483 C493 0.929 . S
H484 C488 0.929 . S
H485 C494 0.929 . S
C486 H480 0.930 . S
C486 C487 1.367 . S
C486 C494 1.378 . S
C487 C486 1.367 . S
C487 C495 1.433 . S
C488 H484 0.929 . S
C488 C490 1.378 . S
C488 C492 1.350 . S
C489 C492 1.463 . S
C489 C494 1.350 . S
C489 N497 1.427 . S
C490 H481 0.930 . S
C490 C488 1.378 . S
C490 C491 1.367 . S
C491 C490 1.367 . S
C491 C493 1.433 . S
C492 C488 1.350 . S
C492 C489 1.463 . S
C492 N496 1.427 . S
C493 H483 0.929 . S
C493 C491 1.433 . S
C493 N496 1.384 . S
C494 H485 0.929 . S
C494 C486 1.378 . S
C494 C489 1.350 . S
C495 H482 0.929 . S
C495 C487 1.433 . S
C495 N497 1.384 . S
N496 C492 1.427 . S
N496 C493 1.384 . S
N497 C489 1.427 . S
N497 C495 1.384 . S
H498 C504 0.930 . S
H499 C508 0.930 . S
H500 C513 0.929 . S
H501 C511 0.929 . S
H502 C506 0.929 . S
H503 C512 0.929 . S
C504 H498 0.930 . S
C504 C505 1.367 . S
C504 C512 1.378 . S
C505 C504 1.367 . S
C505 C513 1.433 . S
C506 H502 0.929 . S
C506 C508 1.378 . S
C506 C510 1.350 . S
C507 C510 1.463 . S
C507 C512 1.350 . S
C507 N515 1.427 . S
C508 H499 0.930 . S
C508 C506 1.378 . S
C508 C509 1.367 . S
C509 C508 1.367 . S
C509 C511 1.433 . S
C510 C506 1.350 . S
C510 C507 1.463 . S
C510 N514 1.427 . S
C511 H501 0.929 . S
C511 C509 1.433 . S
C511 N514 1.384 . S
C512 H503 0.929 . S
C512 C504 1.378 . S
C512 C507 1.350 . S
C513 H500 0.929 . S
C513 C505 1.433 . S
C513 N515 1.384 . S
N514 C510 1.427 . S
N514 C511 1.384 . S
N515 C507 1.427 . S
N515 C513 1.384 . S
H516 C522 0.930 . S
H517 C526 0.930 . S
H518 C531 0.929 . S
H519 C529 0.929 . S
H520 C524 0.929 . S
H521 C530 0.929 . S
C522 H516 0.930 . S
C522 C523 1.367 . S
C522 C530 1.378 . S
C523 C522 1.367 . S
C523 C531 1.433 . S
C524 H520 0.929 . S
C524 C526 1.378 . S
C524 C528 1.350 . S
C525 C528 1.463 . S
C525 C530 1.350 . S
C525 N533 1.427 . S
C526 H517 0.930 . S
C526 C524 1.378 . S
C526 C527 1.367 . S
C527 C526 1.367 . S
C527 C529 1.433 . S
C528 C524 1.350 . S
C528 C525 1.463 . S
C528 N532 1.427 . S
C529 H519 0.929 . S
C529 C527 1.433 . S
C529 N532 1.384 . S
C530 H521 0.929 . S
C530 C522 1.378 . S
C530 C525 1.350 . S
C531 H518 0.929 . S
C531 C523 1.433 . S
C531 N533 1.384 . S
N532 C528 1.427 . S
N532 C529 1.384 . S
N533 C525 1.427 . S
N533 C531 1.384 . S
H534 C540 0.930 . S
H535 C544 0.930 1_565 S
H536 C549 0.929 . S
H537 C547 0.929 . S
H538 C542 0.929 . S
H539 C548 0.929 . S
C540 H534 0.930 . S
C540 C541 1.367 . S
C540 C548 1.378 . S
C541 C540 1.367 . S
C541 C549 1.433 . S
C542 H538 0.929 . S
C542 C544 1.378 . S
C542 C546 1.350 . S
C543 C546 1.463 . S
C543 C548 1.350 . S
C543 N551 1.427 . S
C544 H535 0.930 1_545 S
C544 C542 1.378 . S
C544 C545 1.367 . S
C545 C544 1.367 . S
C545 C547 1.433 . S
C546 C542 1.350 . S
C546 C543 1.463 . S
C546 N550 1.427 . S
C547 H537 0.929 . S
C547 C545 1.433 . S
C547 N550 1.384 . S
C548 H539 0.929 . S
C548 C540 1.378 . S
C548 C543 1.350 . S
C549 H536 0.929 . S
C549 C541 1.433 . S
C549 N551 1.384 . S
N550 C546 1.427 . S
N550 C547 1.384 . S
N551 C543 1.427 . S
N551 C549 1.384 . S
H552 C558 0.930 . S
H553 C562 0.930 . S
H554 C567 0.929 . S
H555 C565 0.929 . S
H556 C560 0.929 . S
H557 C566 0.929 . S
C558 H552 0.930 . S
C558 C559 1.367 . S
C558 C566 1.378 . S
C559 C558 1.367 . S
C559 C567 1.433 . S
C560 H556 0.929 . S
C560 C562 1.378 . S
C560 C564 1.350 . S
C561 C564 1.463 . S
C561 C566 1.350 . S
C561 N569 1.427 . S
C562 H553 0.930 . S
C562 C560 1.378 . S
C562 C563 1.367 . S
C563 C562 1.367 . S
C563 C565 1.433 . S
C564 C560 1.350 . S
C564 C561 1.463 . S
C564 N568 1.427 . S
C565 H555 0.929 . S
C565 C563 1.433 . S
C565 N568 1.384 . S
C566 H557 0.929 . S
C566 C558 1.378 . S
C566 C561 1.350 . S
C567 H554 0.929 . S
C567 C559 1.433 . S
C567 N569 1.384 . S
N568 C564 1.427 . S
N568 C565 1.384 . S
N569 C561 1.427 . S
N569 C567 1.384 . S
H570 C576 0.930 . S
H571 C580 0.930 . S
H572 C585 0.929 . S
H573 C583 0.929 . S
H574 C578 0.929 . S
H575 C584 0.929 . S
C576 H570 0.930 . S
C576 C577 1.367 . S
C576 C584 1.378 . S
C577 C576 1.367 . S
C577 C585 1.433 . S
C578 H574 0.929 . S
C578 C580 1.378 . S
C578 C582 1.350 . S
C579 C582 1.463 . S
C579 C584 1.350 . S
C579 N587 1.427 . S
C580 H571 0.930 . S
C580 C578 1.378 . S
C580 C581 1.367 . S
C581 C580 1.367 . S
C581 C583 1.433 . S
C582 C578 1.350 . S
C582 C579 1.463 . S
C582 N586 1.427 . S
C583 H573 0.929 . S
C583 C581 1.433 . S
C583 N586 1.384 . S
C584 H575 0.929 . S
C584 C576 1.378 . S
C584 C579 1.350 . S
C585 H572 0.929 . S
C585 C577 1.433 . S
C585 N587 1.384 . S
N586 C582 1.427 . S
N586 C583 1.384 . S
N587 C579 1.427 . S
N587 C585 1.384 . S
H588 C594 0.930 . S
H589 C598 0.930 . S
H590 C603 0.929 . S
H591 C601 0.929 . S
H592 C596 0.929 . S
H593 C602 0.929 . S
C594 H588 0.930 . S
C594 C595 1.367 . S
C594 C602 1.378 . S
C595 C594 1.367 . S
C595 C603 1.433 . S
C596 H592 0.929 . S
C596 C598 1.378 . S
C596 C600 1.350 . S
C597 C600 1.463 . S
C597 C602 1.350 . S
C597 N605 1.427 . S
C598 H589 0.930 . S
C598 C596 1.378 . S
C598 C599 1.367 . S
C599 C598 1.367 . S
C599 C601 1.433 . S
C600 C596 1.350 . S
C600 C597 1.463 . S
C600 N604 1.427 . S
C601 H591 0.929 . S
C601 C599 1.433 . S
C601 N604 1.384 . S
C602 H593 0.929 . S
C602 C594 1.378 . S
C602 C597 1.350 . S
C603 H590 0.929 . S
C603 C595 1.433 . S
C603 N605 1.384 . S
N604 C600 1.427 . S
N604 C601 1.384 . S
N605 C597 1.427 . S
N605 C603 1.384 . S
H606 C612 0.930 . S
H607 C616 0.930 . S
H608 C621 0.929 . S
H609 C619 0.929 . S
H610 C614 0.929 . S
H611 C620 0.929 . S
C612 H606 0.930 . S
C612 C613 1.367 . S
C612 C620 1.378 . S
C613 C612 1.367 . S
C613 C621 1.433 . S
C614 H610 0.929 . S
C614 C616 1.378 . S
C614 C618 1.350 . S
C615 C618 1.463 . S
C615 C620 1.350 . S
C615 N623 1.427 . S
C616 H607 0.930 . S
C616 C614 1.378 . S
C616 C617 1.367 . S
C617 C616 1.367 . S
C617 C619 1.433 . S
C618 C614 1.350 . S
C618 C615 1.463 . S
C618 N622 1.427 . S
C619 H609 0.929 . S
C619 C617 1.433 . S
C619 N622 1.384 . S
C620 H611 0.929 . S
C620 C612 1.378 . S
C620 C615 1.350 . S
C621 H608 0.929 . S
C621 C613 1.433 . S
C621 N623 1.384 . S
N622 C618 1.427 . S
N622 C619 1.384 . S
N623 C615 1.427 . S
N623 C621 1.384 . S
H624 C630 0.930 . S
H625 C634 0.930 . S
H626 C639 0.929 . S
H627 C637 0.929 . S
H628 C632 0.929 . S
H629 C638 0.929 . S
C630 H624 0.930 . S
C630 C631 1.367 . S
C630 C638 1.378 . S
C631 C630 1.367 . S
C631 C639 1.433 . S
C632 H628 0.929 . S
C632 C634 1.378 . S
C632 C636 1.350 . S
C633 C636 1.463 . S
C633 C638 1.350 . S
C633 N641 1.427 . S
C634 H625 0.930 . S
C634 C632 1.378 . S
C634 C635 1.367 . S
C635 C634 1.367 . S
C635 C637 1.433 . S
C636 C632 1.350 . S
C636 C633 1.463 . S
C636 N640 1.427 . S
C637 H627 0.929 . S
C637 C635 1.433 . S
C637 N640 1.384 . S
C638 H629 0.929 . S
C638 C630 1.378 . S
C638 C633 1.350 . S
C639 H626 0.929 . S
C639 C631 1.433 . S
C639 N641 1.384 . S
N640 C636 1.427 . S
N640 C637 1.384 . S
N641 C633 1.427 . S
N641 C639 1.384 . S
H642 C648 0.930 . S
H643 C652 0.930 . S
H644 C657 0.929 . S
H645 C655 0.929 . S
H646 C650 0.929 . S
H647 C656 0.929 . S
C648 H642 0.930 . S
C648 C649 1.367 . S
C648 C656 1.378 . S
C649 C648 1.367 . S
C649 C657 1.433 . S
C650 H646 0.929 . S
C650 C652 1.378 . S
C650 C654 1.350 . S
C651 C654 1.463 . S
C651 C656 1.350 . S
C651 N659 1.427 . S
C652 H643 0.930 . S
C652 C650 1.378 . S
C652 C653 1.367 . S
C653 C652 1.367 . S
C653 C655 1.433 . S
C654 C650 1.350 . S
C654 C651 1.463 . S
C654 N658 1.427 . S
C655 H645 0.929 . S
C655 C653 1.433 . S
C655 N658 1.384 . S
C656 H647 0.929 . S
C656 C648 1.378 . S
C656 C651 1.350 . S
C657 H644 0.929 . S
C657 C649 1.433 . S
C657 N659 1.384 . S
N658 C654 1.427 . S
N658 C655 1.384 . S
N659 C651 1.427 . S
N659 C657 1.384 . S
H660 C666 0.930 . S
H661 C670 0.930 . S
H662 C675 0.929 . S
H663 C673 0.929 . S
H664 C668 0.929 . S
H665 C674 0.929 . S
C666 H660 0.930 . S
C666 C667 1.367 . S
C666 C674 1.378 . S
C667 C666 1.367 . S
C667 C675 1.433 . S
C668 H664 0.929 . S
C668 C670 1.378 . S
C668 C672 1.350 . S
C669 C672 1.463 . S
C669 C674 1.350 . S
C669 N677 1.427 . S
C670 H661 0.930 . S
C670 C668 1.378 . S
C670 C671 1.367 . S
C671 C670 1.367 . S
C671 C673 1.433 . S
C672 C668 1.350 . S
C672 C669 1.463 . S
C672 N676 1.427 . S
C673 H663 0.929 . S
C673 C671 1.433 . S
C673 N676 1.384 . S
C674 H665 0.929 . S
C674 C666 1.378 . S
C674 C669 1.350 . S
C675 H662 0.929 . S
C675 C667 1.433 . S
C675 N677 1.384 . S
N676 C672 1.427 . S
N676 C673 1.384 . S
N677 C669 1.427 . S
N677 C675 1.384 . S
H678 C684 0.930 . S
H679 C688 0.930 . S
H680 C693 0.929 . S
H681 C691 0.929 . S
H682 C686 0.929 . S
H683 C692 0.929 . S
C684 H678 0.930 . S
C684 C685 1.367 . S
C684 C692 1.378 . S
C685 C684 1.367 . S
C685 C693 1.433 . S
C686 H682 0.929 . S
C686 C688 1.378 . S
C686 C690 1.350 . S
C687 C690 1.463 . S
C687 C692 1.350 . S
C687 N695 1.427 . S
C688 H679 0.930 . S
C688 C686 1.378 . S
C688 C689 1.367 . S
C689 C688 1.367 . S
C689 C691 1.433 . S
C690 C686 1.350 . S
C690 C687 1.463 . S
C690 N694 1.427 . S
C691 H681 0.929 . S
C691 C689 1.433 . S
C691 N694 1.384 . S
C692 H683 0.929 . S
C692 C684 1.378 . S
C692 C687 1.350 . S
C693 H680 0.929 . S
C693 C685 1.433 . S
C693 N695 1.384 . S
N694 C690 1.427 . S
N694 C691 1.384 . S
N695 C687 1.427 . S
N695 C693 1.384 . S
H696 C702 0.930 . S
H697 C706 0.930 . S
H698 C711 0.929 . S
H699 C709 0.929 . S
H700 C704 0.929 . S
H701 C710 0.929 . S
C702 H696 0.930 . S
C702 C703 1.367 . S
C702 C710 1.378 . S
C703 C702 1.367 . S
C703 C711 1.433 . S
C704 H700 0.929 . S
C704 C706 1.378 . S
C704 C708 1.350 . S
C705 C708 1.463 . S
C705 C710 1.350 . S
C705 N713 1.427 . S
C706 H697 0.930 . S
C706 C704 1.378 . S
C706 C707 1.367 . S
C707 C706 1.367 . S
C707 C709 1.433 . S
C708 C704 1.350 . S
C708 C705 1.463 . S
C708 N712 1.427 . S
C709 H699 0.929 . S
C709 C707 1.433 . S
C709 N712 1.384 . S
C710 H701 0.929 . S
C710 C702 1.378 . S
C710 C705 1.350 . S
C711 H698 0.929 . S
C711 C703 1.433 . S
C711 N713 1.384 . S
N712 C708 1.427 . S
N712 C709 1.384 . S
N713 C705 1.427 . S
N713 C711 1.384 . S
H714 C720 0.930 . S
H715 C724 0.930 . S
H716 C729 0.929 . S
H717 C727 0.929 . S
H718 C722 0.929 . S
H719 C728 0.929 . S
C720 H714 0.930 . S
C720 C721 1.367 . S
C720 C728 1.378 . S
C721 C720 1.367 . S
C721 C729 1.433 . S
C722 H718 0.929 . S
C722 C724 1.378 . S
C722 C726 1.350 . S
C723 C726 1.463 . S
C723 C728 1.350 . S
C723 N731 1.427 . S
C724 H715 0.930 . S
C724 C722 1.378 . S
C724 C725 1.367 . S
C725 C724 1.367 . S
C725 C727 1.433 . S
C726 C722 1.350 . S
C726 C723 1.463 . S
C726 N730 1.427 . S
C727 H717 0.929 . S
C727 C725 1.433 . S
C727 N730 1.384 . S
C728 H719 0.929 . S
C728 C720 1.378 . S
C728 C723 1.350 . S
C729 H716 0.929 . S
C729 C721 1.433 . S
C729 N731 1.384 . S
N730 C726 1.427 . S
N730 C727 1.384 . S
N731 C723 1.427 . S
N731 C729 1.384 . S
H732 C738 0.930 . S
H733 C742 0.930 . S
H734 C747 0.929 . S
H735 C745 0.929 . S
H736 C740 0.929 . S
H737 C746 0.929 . S
C738 H732 0.930 . S
C738 C739 1.367 . S
C738 C746 1.378 . S
C739 C738 1.367 . S
C739 C747 1.433 . S
C740 H736 0.929 . S
C740 C742 1.378 . S
C740 C744 1.350 . S
C741 C744 1.463 . S
C741 C746 1.350 . S
C741 N749 1.427 . S
C742 H733 0.930 . S
C742 C740 1.378 . S
C742 C743 1.367 . S
C743 C742 1.367 . S
C743 C745 1.433 . S
C744 C740 1.350 . S
C744 C741 1.463 . S
C744 N748 1.427 . S
C745 H735 0.929 . S
C745 C743 1.433 . S
C745 N748 1.384 . S
C746 H737 0.929 . S
C746 C738 1.378 . S
C746 C741 1.350 . S
C747 H734 0.929 . S
C747 C739 1.433 . S
C747 N749 1.384 . S
N748 C744 1.427 . S
N748 C745 1.384 . S
N749 C741 1.427 . S
N749 C747 1.384 . S
H750 C756 0.930 . S
H751 C760 0.930 . S
H752 C765 0.929 . S
H753 C763 0.929 . S
H754 C758 0.929 . S
H755 C764 0.929 1_556 S
C756 H750 0.930 . S
C756 C757 1.367 . S
C756 C764 1.378 . S
C757 C756 1.367 . S
C757 C765 1.433 . S
C758 H754 0.929 . S
C758 C760 1.378 . S
C758 C762 1.350 . S
C759 C762 1.463 . S
C759 C764 1.350 1_556 S
C759 N767 1.427 1_556 S
C760 H751 0.930 . S
C760 C758 1.378 . S
C760 C761 1.367 . S
C761 C760 1.367 . S
C761 C763 1.433 . S
C762 C758 1.350 . S
C762 C759 1.463 . S
C762 N766 1.427 . S
C763 H753 0.929 . S
C763 C761 1.433 . S
C763 N766 1.384 . S
C764 H755 0.929 1_554 S
C764 C756 1.378 . S
C764 C759 1.350 1_554 S
C765 H752 0.929 . S
C765 C757 1.433 . S
C765 N767 1.384 . S
N766 C762 1.427 . S
N766 C763 1.384 . S
N767 C759 1.427 1_554 S
N767 C765 1.384 . S
H768 C774 0.930 . S
H769 C778 0.930 . S
H770 C783 0.929 . S
H771 C781 0.929 . S
H772 C776 0.929 . S
H773 C782 0.929 . S
C774 H768 0.930 . S
C774 C775 1.367 . S
C774 C782 1.378 . S
C775 C774 1.367 . S
C775 C783 1.433 . S
C776 H772 0.929 . S
C776 C778 1.378 . S
C776 C780 1.350 . S
C777 C780 1.463 . S
C777 C782 1.350 . S
C777 N785 1.427 . S
C778 H769 0.930 . S
C778 C776 1.378 . S
C778 C779 1.367 . S
C779 C778 1.367 . S
C779 C781 1.433 . S
C780 C776 1.350 . S
C780 C777 1.463 . S
C780 N784 1.427 . S
C781 H771 0.929 . S
C781 C779 1.433 . S
C781 N784 1.384 . S
C782 H773 0.929 . S
C782 C774 1.378 . S
C782 C777 1.350 . S
C783 H770 0.929 . S
C783 C775 1.433 . S
C783 N785 1.384 . S
N784 C780 1.427 . S
N784 C781 1.384 . S
N785 C777 1.427 . S
N785 C783 1.384 . S
H786 C792 0.930 . S
H787 C796 0.930 . S
H788 C801 0.929 . S
H789 C799 0.929 . S
H790 C794 0.929 . S
H791 C800 0.929 . S
C792 H786 0.930 . S
C792 C793 1.367 . S
C792 C800 1.378 1_554 S
C793 C792 1.367 . S
C793 C801 1.433 . S
C794 H790 0.929 . S
C794 C796 1.378 . S
C794 C798 1.350 . S
C795 C798 1.463 . S
C795 C800 1.350 . S
C795 N803 1.427 . S
C796 H787 0.930 . S
C796 C794 1.378 . S
C796 C797 1.367 . S
C797 C796 1.367 . S
C797 C799 1.433 . S
C798 C794 1.350 . S
C798 C795 1.463 . S
C798 N802 1.427 . S
C799 H789 0.929 . S
C799 C797 1.433 . S
C799 N802 1.384 . S
C800 H791 0.929 . S
C800 C792 1.378 1_556 S
C800 C795 1.350 . S
C801 H788 0.929 . S
C801 C793 1.433 . S
C801 N803 1.384 1_554 S
N802 C798 1.427 . S
N802 C799 1.384 . S
N803 C795 1.427 . S
N803 C801 1.384 1_556 S
H804 C810 0.930 . S
H805 C814 0.930 . S
H806 C819 0.929 . S
H807 C817 0.929 . S
H808 C812 0.929 . S
H809 C818 0.929 . S
C810 H804 0.930 . S
C810 C811 1.367 . S
C810 C818 1.378 . S
C811 C810 1.367 . S
C811 C819 1.433 . S
C812 H808 0.929 . S
C812 C814 1.378 . S
C812 C816 1.350 . S
C813 C816 1.463 . S
C813 C818 1.350 . S
C813 N821 1.427 . S
C814 H805 0.930 . S
C814 C812 1.378 . S
C814 C815 1.367 . S
C815 C814 1.367 . S
C815 C817 1.433 . S
C816 C812 1.350 . S
C816 C813 1.463 . S
C816 N820 1.427 . S
C817 H807 0.929 . S
C817 C815 1.433 . S
C817 N820 1.384 . S
C818 H809 0.929 . S
C818 C810 1.378 . S
C818 C813 1.350 . S
C819 H806 0.929 . S
C819 C811 1.433 . S
C819 N821 1.384 . S
N820 C816 1.427 . S
N820 C817 1.384 . S
N821 C813 1.427 . S
N821 C819 1.384 . S
H822 C828 0.930 . S
H823 C832 0.930 . S
H824 C837 0.929 . S
H825 C835 0.929 . S
H826 C830 0.929 . S
H827 C836 0.929 . S
C828 H822 0.930 . S
C828 C829 1.367 . S
C828 C836 1.378 . S
C829 C828 1.367 . S
C829 C837 1.433 . S
C830 H826 0.929 . S
C830 C832 1.378 . S
C830 C834 1.350 . S
C831 C834 1.463 . S
C831 C836 1.350 . S
C831 N839 1.427 . S
C832 H823 0.930 . S
C832 C830 1.378 . S
C832 C833 1.367 . S
C833 C832 1.367 . S
C833 C835 1.433 . S
C834 C830 1.350 . S
C834 C831 1.463 . S
C834 N838 1.427 . S
C835 H825 0.929 . S
C835 C833 1.433 . S
C835 N838 1.384 . S
C836 H827 0.929 . S
C836 C828 1.378 . S
C836 C831 1.350 . S
C837 H824 0.929 . S
C837 C829 1.433 . S
C837 N839 1.384 . S
N838 C834 1.427 . S
N838 C835 1.384 . S
N839 C831 1.427 . S
N839 C837 1.384 . S
H840 C846 0.930 . S
H841 C850 0.930 . S
H842 C855 0.929 . S
H843 C853 0.929 . S
H844 C848 0.929 . S
H845 C854 0.929 . S
C846 H840 0.930 . S
C846 C847 1.367 . S
C846 C854 1.378 . S
C847 C846 1.367 . S
C847 C855 1.433 . S
C848 H844 0.929 . S
C848 C850 1.378 . S
C848 C852 1.350 . S
C849 C852 1.463 . S
C849 C854 1.350 . S
C849 N857 1.427 . S
C850 H841 0.930 . S
C850 C848 1.378 . S
C850 C851 1.367 . S
C851 C850 1.367 . S
C851 C853 1.433 . S
C852 C848 1.350 . S
C852 C849 1.463 . S
C852 N856 1.427 . S
C853 H843 0.929 . S
C853 C851 1.433 . S
C853 N856 1.384 . S
C854 H845 0.929 . S
C854 C846 1.378 . S
C854 C849 1.350 . S
C855 H842 0.929 . S
C855 C847 1.433 . S
C855 N857 1.384 . S
N856 C852 1.427 . S
N856 C853 1.384 . S
N857 C849 1.427 . S
N857 C855 1.384 . S
H858 C864 0.930 . S
H859 C868 0.930 . S
H860 C873 0.929 . S
H861 C871 0.929 . S
H862 C866 0.929 . S
H863 C872 0.929 . S
C864 H858 0.930 . S
C864 C865 1.367 . S
C864 C872 1.378 . S
C865 C864 1.367 . S
C865 C873 1.433 . S
C866 H862 0.929 . S
C866 C868 1.378 . S
C866 C870 1.350 . S
C867 C870 1.463 1_545 S
C867 C872 1.350 . S
C867 N875 1.427 . S
C868 H859 0.930 . S
C868 C866 1.378 . S
C868 C869 1.367 . S
C869 C868 1.367 . S
C869 C871 1.433 . S
C870 C866 1.350 . S
C870 C867 1.463 1_565 S
C870 N874 1.427 . S
C871 H861 0.929 . S
C871 C869 1.433 . S
C871 N874 1.384 . S
C872 H863 0.929 . S
C872 C864 1.378 . S
C872 C867 1.350 . S
C873 H860 0.929 . S
C873 C865 1.433 . S
C873 N875 1.384 . S
N874 C870 1.427 . S
N874 C871 1.384 . S
N875 C867 1.427 . S
N875 C873 1.384 . S
H876 C882 0.930 . S
H877 C886 0.930 . S
H878 C891 0.929 . S
H879 C889 0.929 . S
H880 C884 0.929 . S
H881 C890 0.929 . S
C882 H876 0.930 . S
C882 C883 1.367 . S
C882 C890 1.378 . S
C883 C882 1.367 . S
C883 C891 1.433 . S
C884 H880 0.929 . S
C884 C886 1.378 . S
C884 C888 1.350 . S
C885 C888 1.463 . S
C885 C890 1.350 . S
C885 N893 1.427 . S
C886 H877 0.930 . S
C886 C884 1.378 . S
C886 C887 1.367 . S
C887 C886 1.367 . S
C887 C889 1.433 . S
C888 C884 1.350 . S
C888 C885 1.463 . S
C888 N892 1.427 . S
C889 H879 0.929 . S
C889 C887 1.433 . S
C889 N892 1.384 . S
C890 H881 0.929 . S
C890 C882 1.378 . S
C890 C885 1.350 . S
C891 H878 0.929 . S
C891 C883 1.433 . S
C891 N893 1.384 . S
N892 C888 1.427 . S
N892 C889 1.384 . S
N893 C885 1.427 . S
N893 C891 1.384 . S
H894 C900 0.930 . S
H895 C904 0.930 . S
H896 C909 0.929 . S
H897 C907 0.929 . S
H898 C902 0.929 . S
H899 C908 0.929 1_565 S
C900 H894 0.930 . S
C900 C901 1.367 . S
C900 C908 1.378 . S
C901 C900 1.367 . S
C901 C909 1.433 . S
C902 H898 0.929 . S
C902 C904 1.378 . S
C902 C906 1.350 . S
C903 C906 1.463 . S
C903 C908 1.350 1_565 S
C903 N911 1.427 1_565 S
C904 H895 0.930 . S
C904 C902 1.378 . S
C904 C905 1.367 . S
C905 C904 1.367 . S
C905 C907 1.433 . S
C906 C902 1.350 . S
C906 C903 1.463 . S
C906 N910 1.427 . S
C907 H897 0.929 . S
C907 C905 1.433 . S
C907 N910 1.384 . S
C908 H899 0.929 1_545 S
C908 C900 1.378 . S
C908 C903 1.350 1_545 S
C909 H896 0.929 . S
C909 C901 1.433 . S
C909 N911 1.384 . S
N910 C906 1.427 . S
N910 C907 1.384 . S
N911 C903 1.427 1_545 S
N911 C909 1.384 . S
H912 C918 0.930 . S
H913 C922 0.930 . S
H914 C927 0.929 . S
H915 C925 0.929 . S
H916 C920 0.929 . S
H917 C926 0.929 . S
C918 H912 0.930 . S
C918 C919 1.367 . S
C918 C926 1.378 . S
C919 C918 1.367 . S
C919 C927 1.433 . S
C920 H916 0.929 . S
C920 C922 1.378 . S
C920 C924 1.350 . S
C921 C924 1.463 . S
C921 C926 1.350 . S
C921 N929 1.427 . S
C922 H913 0.930 . S
C922 C920 1.378 . S
C922 C923 1.367 . S
C923 C922 1.367 . S
C923 C925 1.433 . S
C924 C920 1.350 . S
C924 C921 1.463 . S
C924 N928 1.427 . S
C925 H915 0.929 . S
C925 C923 1.433 . S
C925 N928 1.384 . S
C926 H917 0.929 . S
C926 C918 1.378 . S
C926 C921 1.350 . S
C927 H914 0.929 . S
C927 C919 1.433 . S
C927 N929 1.384 . S
N928 C924 1.427 . S
N928 C925 1.384 . S
N929 C921 1.427 . S
N929 C927 1.384 . S
H930 C936 0.930 . S
H931 C940 0.930 . S
H932 C945 0.929 . S
H933 C943 0.929 . S
H934 C938 0.929 . S
H935 C944 0.929 . S
C936 H930 0.930 . S
C936 C937 1.367 . S
C936 C944 1.378 . S
C937 C936 1.367 . S
C937 C945 1.433 . S
C938 H934 0.929 . S
C938 C940 1.378 . S
C938 C942 1.350 . S
C939 C942 1.463 . S
C939 C944 1.350 . S
C939 N947 1.427 . S
C940 H931 0.930 . S
C940 C938 1.378 . S
C940 C941 1.367 . S
C941 C940 1.367 . S
C941 C943 1.433 . S
C942 C938 1.350 . S
C942 C939 1.463 . S
C942 N946 1.427 . S
C943 H933 0.929 . S
C943 C941 1.433 . S
C943 N946 1.384 . S
C944 H935 0.929 . S
C944 C936 1.378 . S
C944 C939 1.350 . S
C945 H932 0.929 . S
C945 C937 1.433 . S
C945 N947 1.384 . S
N946 C942 1.427 . S
N946 C943 1.384 . S
N947 C939 1.427 . S
N947 C945 1.384 . S
H948 C954 0.930 . S
H949 C958 0.930 . S
H950 C963 0.929 . S
H951 C961 0.929 . S
H952 C956 0.929 . S
H953 C962 0.929 . S
C954 H948 0.930 . S
C954 C955 1.367 . S
C954 C962 1.378 . S
C955 C954 1.367 . S
C955 C963 1.433 . S
C956 H952 0.929 . S
C956 C958 1.378 . S
C956 C960 1.350 . S
C957 C960 1.463 . S
C957 C962 1.350 . S
C957 N965 1.427 . S
C958 H949 0.930 . S
C958 C956 1.378 . S
C958 C959 1.367 . S
C959 C958 1.367 . S
C959 C961 1.433 . S
C960 C956 1.350 . S
C960 C957 1.463 . S
C960 N964 1.427 . S
C961 H951 0.929 . S
C961 C959 1.433 . S
C961 N964 1.384 . S
C962 H953 0.929 . S
C962 C954 1.378 . S
C962 C957 1.350 . S
C963 H950 0.929 . S
C963 C955 1.433 . S
C963 N965 1.384 . S
N964 C960 1.427 . S
N964 C961 1.384 . S
N965 C957 1.427 . S
N965 C963 1.384 . S
H966 C972 0.930 . S
H967 C976 0.930 . S
H968 C981 0.929 . S
H969 C979 0.929 . S
H970 C974 0.929 . S
H971 C980 0.929 . S
C972 H966 0.930 . S
C972 C973 1.367 . S
C972 C980 1.378 . S
C973 C972 1.367 . S
C973 C981 1.433 . S
C974 H970 0.929 . S
C974 C976 1.378 . S
C974 C978 1.350 . S
C975 C978 1.463 . S
C975 C980 1.350 . S
C975 N983 1.427 . S
C976 H967 0.930 . S
C976 C974 1.378 . S
C976 C977 1.367 . S
C977 C976 1.367 . S
C977 C979 1.433 . S
C978 C974 1.350 . S
C978 C975 1.463 . S
C978 N982 1.427 . S
C979 H969 0.929 . S
C979 C977 1.433 . S
C979 N982 1.384 . S
C980 H971 0.929 . S
C980 C972 1.378 . S
C980 C975 1.350 . S
C981 H968 0.929 . S
C981 C973 1.433 . S
C981 N983 1.384 . S
N982 C978 1.427 . S
N982 C979 1.384 . S
N983 C975 1.427 . S
N983 C981 1.384 . S
H984 C990 0.930 . S
H985 C994 0.930 . S
H986 C999 0.929 . S
H987 C997 0.929 . S
H988 C992 0.929 . S
H989 C998 0.929 . S
C990 H984 0.930 . S
C990 C991 1.367 . S
C990 C998 1.378 . S
C991 C990 1.367 . S
C991 C999 1.433 . S
C992 H988 0.929 . S
C992 C994 1.378 . S
C992 C996 1.350 . S
C993 C996 1.463 . S
C993 C998 1.350 . S
C993 N1001 1.427 . S
C994 H985 0.930 . S
C994 C992 1.378 . S
C994 C995 1.367 . S
C995 C994 1.367 . S
C995 C997 1.433 . S
C996 C992 1.350 . S
C996 C993 1.463 . S
C996 N1000 1.427 . S
C997 H987 0.929 . S
C997 C995 1.433 . S
C997 N1000 1.384 . S
C998 H989 0.929 . S
C998 C990 1.378 . S
C998 C993 1.350 . S
C999 H986 0.929 . S
C999 C991 1.433 . S
C999 N1001 1.384 . S
N1000 C996 1.427 . S
N1000 C997 1.384 . S
N1001 C993 1.427 . S
N1001 C999 1.384 . S
H1002 C1008 0.930 . S
H1003 C1012 0.930 . S
H1004 C1017 0.929 . S
H1005 C1015 0.929 . S
H1006 C1010 0.929 . S
H1007 C1016 0.929 . S
C1008 H1002 0.930 . S
C1008 C1009 1.367 . S
C1008 C1016 1.378 . S
C1009 C1008 1.367 . S
C1009 C1017 1.433 . S
C1010 H1006 0.929 . S
C1010 C1012 1.378 . S
C1010 C1014 1.350 . S
C1011 C1014 1.463 . S
C1011 C1016 1.350 . S
C1011 N1019 1.427 . S
C1012 H1003 0.930 . S
C1012 C1010 1.378 . S
C1012 C1013 1.367 . S
C1013 C1012 1.367 . S
C1013 C1015 1.433 . S
C1014 C1010 1.350 . S
C1014 C1011 1.463 . S
C1014 N1018 1.427 . S
C1015 H1005 0.929 . S
C1015 C1013 1.433 . S
C1015 N1018 1.384 . S
C1016 H1007 0.929 . S
C1016 C1008 1.378 . S
C1016 C1011 1.350 . S
C1017 H1004 0.929 . S
C1017 C1009 1.433 . S
C1017 N1019 1.384 . S
N1018 C1014 1.427 . S
N1018 C1015 1.384 . S
N1019 C1011 1.427 . S
N1019 C1017 1.384 . S
H1020 C1026 0.930 . S
H1021 C1030 0.930 . S
H1022 C1035 0.929 . S
H1023 C1033 0.929 . S
H1024 C1028 0.929 . S
H1025 C1034 0.929 1_655 S
C1026 H1020 0.930 . S
C1026 C1027 1.367 . S
C1026 C1034 1.378 . S
C1027 C1026 1.367 . S
C1027 C1035 1.433 . S
C1028 H1024 0.929 . S
C1028 C1030 1.378 . S
C1028 C1032 1.350 . S
C1029 C1032 1.463 . S
C1029 C1034 1.350 1_655 S
C1029 N1037 1.427 1_655 S
C1030 H1021 0.930 . S
C1030 C1028 1.378 . S
C1030 C1031 1.367 . S
C1031 C1030 1.367 . S
C1031 C1033 1.433 . S
C1032 C1028 1.350 . S
C1032 C1029 1.463 . S
C1032 N1036 1.427 . S
C1033 H1023 0.929 . S
C1033 C1031 1.433 . S
C1033 N1036 1.384 . S
C1034 H1025 0.929 1_455 S
C1034 C1026 1.378 . S
C1034 C1029 1.350 1_455 S
C1035 H1022 0.929 . S
C1035 C1027 1.433 . S
C1035 N1037 1.384 . S
N1036 C1032 1.427 . S
N1036 C1033 1.384 . S
N1037 C1029 1.427 1_455 S
N1037 C1035 1.384 . S
H1038 C1044 0.930 . S
H1039 C1048 0.930 . S
H1040 C1053 0.929 . S
H1041 C1051 0.929 . S
H1042 C1046 0.929 . S
H1043 C1052 0.929 . S
C1044 H1038 0.930 . S
C1044 C1045 1.367 . S
C1044 C1052 1.378 . S
C1045 C1044 1.367 . S
C1045 C1053 1.433 . S
C1046 H1042 0.929 . S
C1046 C1048 1.378 . S
C1046 C1050 1.350 . S
C1047 C1050 1.463 . S
C1047 C1052 1.350 . S
C1047 N1055 1.427 . S
C1048 H1039 0.930 . S
C1048 C1046 1.378 . S
C1048 C1049 1.367 . S
C1049 C1048 1.367 . S
C1049 C1051 1.433 . S
C1050 C1046 1.350 . S
C1050 C1047 1.463 . S
C1050 N1054 1.427 . S
C1051 H1041 0.929 . S
C1051 C1049 1.433 . S
C1051 N1054 1.384 . S
C1052 H1043 0.929 . S
C1052 C1044 1.378 . S
C1052 C1047 1.350 . S
C1053 H1040 0.929 . S
C1053 C1045 1.433 . S
C1053 N1055 1.384 . S
N1054 C1050 1.427 . S
N1054 C1051 1.384 . S
N1055 C1047 1.427 . S
N1055 C1053 1.384 . S
H1056 C1062 0.930 . S
H1057 C1066 0.930 . S
H1058 C1071 0.929 . S
H1059 C1069 0.929 . S
H1060 C1064 0.929 . S
H1061 C1070 0.929 . S
C1062 H1056 0.930 . S
C1062 C1063 1.367 . S
C1062 C1070 1.378 . S
C1063 C1062 1.367 . S
C1063 C1071 1.433 . S
C1064 H1060 0.929 . S
C1064 C1066 1.378 . S
C1064 C1068 1.350 . S
C1065 C1068 1.463 . S
C1065 C1070 1.350 . S
C1065 N1073 1.427 . S
C1066 H1057 0.930 . S
C1066 C1064 1.378 . S
C1066 C1067 1.367 . S
C1067 C1066 1.367 . S
C1067 C1069 1.433 . S
C1068 C1064 1.350 . S
C1068 C1065 1.463 . S
C1068 N1072 1.427 . S
C1069 H1059 0.929 . S
C1069 C1067 1.433 . S
C1069 N1072 1.384 . S
C1070 H1061 0.929 . S
C1070 C1062 1.378 . S
C1070 C1065 1.350 . S
C1071 H1058 0.929 . S
C1071 C1063 1.433 . S
C1071 N1073 1.384 . S
N1072 C1068 1.427 . S
N1072 C1069 1.384 . S
N1073 C1065 1.427 . S
N1073 C1071 1.384 . S
H1074 C1080 0.930 . S
H1075 C1084 0.930 . S
H1076 C1089 0.929 . S
H1077 C1087 0.929 . S
H1078 C1082 0.929 . S
H1079 C1088 0.929 . S
C1080 H1074 0.930 . S
C1080 C1081 1.367 . S
C1080 C1088 1.378 . S
C1081 C1080 1.367 . S
C1081 C1089 1.433 . S
C1082 H1078 0.929 . S
C1082 C1084 1.378 . S
C1082 C1086 1.350 . S
C1083 C1086 1.463 . S
C1083 C1088 1.350 . S
C1083 N1091 1.427 . S
C1084 H1075 0.930 . S
C1084 C1082 1.378 . S
C1084 C1085 1.367 . S
C1085 C1084 1.367 . S
C1085 C1087 1.433 . S
C1086 C1082 1.350 . S
C1086 C1083 1.463 . S
C1086 N1090 1.427 . S
C1087 H1077 0.929 . S
C1087 C1085 1.433 . S
C1087 N1090 1.384 . S
C1088 H1079 0.929 . S
C1088 C1080 1.378 . S
C1088 C1083 1.350 . S
C1089 H1076 0.929 . S
C1089 C1081 1.433 . S
C1089 N1091 1.384 . S
N1090 C1086 1.427 . S
N1090 C1087 1.384 . S
N1091 C1083 1.427 . S
N1091 C1089 1.384 . S
H1092 C1098 0.930 . S
H1093 C1102 0.930 . S
H1094 C1107 0.929 . S
H1095 C1105 0.929 . S
H1096 C1100 0.929 . S
H1097 C1106 0.929 . S
C1098 H1092 0.930 . S
C1098 C1099 1.367 . S
C1098 C1106 1.378 . S
C1099 C1098 1.367 . S
C1099 C1107 1.433 . S
C1100 H1096 0.929 . S
C1100 C1102 1.378 . S
C1100 C1104 1.350 . S
C1101 C1104 1.463 . S
C1101 C1106 1.350 . S
C1101 N1109 1.427 . S
C1102 H1093 0.930 . S
C1102 C1100 1.378 . S
C1102 C1103 1.367 . S
C1103 C1102 1.367 . S
C1103 C1105 1.433 . S
C1104 C1100 1.350 . S
C1104 C1101 1.463 . S
C1104 N1108 1.427 . S
C1105 H1095 0.929 . S
C1105 C1103 1.433 . S
C1105 N1108 1.384 . S
C1106 H1097 0.929 . S
C1106 C1098 1.378 . S
C1106 C1101 1.350 . S
C1107 H1094 0.929 . S
C1107 C1099 1.433 . S
C1107 N1109 1.384 . S
N1108 C1104 1.427 . S
N1108 C1105 1.384 . S
N1109 C1101 1.427 . S
N1109 C1107 1.384 . S
H1110 C1116 0.930 . S
H1111 C1120 0.930 . S
H1112 C1125 0.929 . S
H1113 C1123 0.929 . S
H1114 C1118 0.929 . S
H1115 C1124 0.929 . S
C1116 H1110 0.930 . S
C1116 C1117 1.367 . S
C1116 C1124 1.378 . S
C1117 C1116 1.367 . S
C1117 C1125 1.433 . S
C1118 H1114 0.929 . S
C1118 C1120 1.378 . S
C1118 C1122 1.350 . S
C1119 C1122 1.463 1_655 S
C1119 C1124 1.350 . S
C1119 N1127 1.427 . S
C1120 H1111 0.930 . S
C1120 C1118 1.378 . S
C1120 C1121 1.367 . S
C1121 C1120 1.367 . S
C1121 C1123 1.433 . S
C1122 C1118 1.350 . S
C1122 C1119 1.463 1_455 S
C1122 N1126 1.427 . S
C1123 H1113 0.929 . S
C1123 C1121 1.433 . S
C1123 N1126 1.384 . S
C1124 H1115 0.929 . S
C1124 C1116 1.378 . S
C1124 C1119 1.350 . S
C1125 H1112 0.929 . S
C1125 C1117 1.433 . S
C1125 N1127 1.384 . S
N1126 C1122 1.427 . S
N1126 C1123 1.384 . S
N1127 C1119 1.427 . S
N1127 C1125 1.384 . S
C487 C19 1.343 . S
C491 C459 1.353 . S
C505 C378 2.059 . S
C509 C58 2.065 . S
C523 C98 1.291 . S
C527 C338 1.294 . S
C541 C138 1.651 . S
C545 C419 1.568 . S
C559 C178 1.820 . S
C563 C418 1.811 . S
C577 C219 1.592 . S
C581 C458 1.692 . S
C595 C379 1.675 . S
C599 C258 1.738 . S
C613 C299 1.330 . S
C617 C339 1.329 . S
C631 C139 1.431 . S
C635 C179 1.410 . S
C649 C18 1.904 . S
C653 C218 1.899 . S
C667 C59 1.858 . S
C671 C259 1.876 . S
C685 C298 1.670 . S
C689 C99 1.579 . S
C703 C15 1.919 . S
C707 C329 1.885 . S
C721 C46 1.534 . S
C725 C410 1.513 . S
C739 C450 1.799 . S
C743 C86 1.831 . S
C757 C126 1.722 . S
C761 C369 1.627 . S
C775 C166 1.370 . S
C779 C370 1.355 . S
C793 C330 2.721 . S
C797 C215 2.624 . S
C811 C409 1.334 . S
C815 C246 1.390 . S
C829 C449 1.620 . S
C833 C295 1.669 . S
C847 C9 1.769 . S
C851 C135 1.800 . S
C865 C6 1.509 . S
C869 C50 1.481 . S
C883 C55 2.000 . S
C887 C90 2.073 . S
C901 C130 2.089 . S
C905 C95 2.032 . S
C919 C206 1.698 . S
C923 C170 1.667 . S
C937 C209 1.281 . S
C941 C255 1.326 . S
C955 C250 1.493 . S
C959 C286 1.498 . S
C973 C175 2.023 . S
C977 C289 1.960 . S
C991 C335 1.881 . S
C995 C129 1.852 . S
C1009 C210 1.752 . S
C1013 C366 1.763 . S
C1027 C326 1.227 . S
C1031 C249 1.154 . S
C1045 C415 1.518 . S
C1049 C290 1.568 . S
C1063 C169 1.578 . S
C1067 C455 1.618 . S
C1081 C446 0.642 . S
C1085 C49 0.643 . S
C1099 C89 1.830 . S
C1103 C375 1.880 . S
C1117 C406 1.592 . S
C1121 C10 1.569 . S
