# Generated by pormake.
# Topology lcy-a, (4)-cn, num edge types: 1
# Building blocks:
#     Node 0, Type 0, BuildingBlock: CEKHIL_clean_sbu_0, # of connection points: 4
#     Node 1, Type 0, BuildingBlock: CEKHIL_clean_sbu_0, # of connection points: 4
#     Node 2, Type 0, BuildingBlock: CEKHIL_clean_sbu_0, # of connection points: 4
#     Node 3, Type 0, BuildingBlock: CEKHIL_clean_sbu_0, # of connection points: 4
#     Node 4, Type 0, BuildingBlock: CEKHIL_clean_sbu_0, # of connection points: 4
#     Node 5, Type 0, BuildingBlock: CEKHIL_clean_sbu_0, # of connection points: 4
#     Node 6, Type 0, BuildingBlock: CEKHIL_clean_sbu_0, # of connection points: 4
#     Node 7, Type 0, BuildingBlock: CEKHIL_clean_sbu_0, # of connection points: 4
#     Node 8, Type 0, BuildingBlock: CEKHIL_clean_sbu_0, # of connection points: 4
#     Node 9, Type 0, BuildingBlock: CEKHIL_clean_sbu_0, # of connection points: 4
#     Node 10, Type 0, BuildingBlock: CEKHIL_clean_sbu_0, # of connection points: 4
#     Node 11, Type 0, BuildingBlock: CEKHIL_clean_sbu_0, # of connection points: 4
#     Node 12, Type 0, BuildingBlock: CEKHIL_clean_sbu_0, # of connection points: 4
#     Node 13, Type 0, BuildingBlock: CEKHIL_clean_sbu_0, # of connection points: 4
#     Node 14, Type 0, BuildingBlock: CEKHIL_clean_sbu_0, # of connection points: 4
#     Node 15, Type 0, BuildingBlock: CEKHIL_clean_sbu_0, # of connection points: 4
#     Node 16, Type 0, BuildingBlock: CEKHIL_clean_sbu_0, # of connection points: 4
#     Node 17, Type 0, BuildingBlock: CEKHIL_clean_sbu_0, # of connection points: 4
#     Node 18, Type 0, BuildingBlock: CEKHIL_clean_sbu_0, # of connection points: 4
#     Node 19, Type 0, BuildingBlock: CEKHIL_clean_sbu_0, # of connection points: 4
#     Node 20, Type 0, BuildingBlock: CEKHIL_clean_sbu_0, # of connection points: 4
#     Node 21, Type 0, BuildingBlock: CEKHIL_clean_sbu_0, # of connection points: 4
#     Node 22, Type 0, BuildingBlock: CEKHIL_clean_sbu_0, # of connection points: 4
#     Node 23, Type 0, BuildingBlock: CEKHIL_clean_sbu_0, # of connection points: 4
#     Edge 24, Type (0, 0), BuildingBlock: EZIPEK_clean_linker_0, # of connection points: 2
#     Edge 25, Type (0, 0), BuildingBlock: EZIPEK_clean_linker_0, # of connection points: 2
#     Edge 26, Type (0, 0), BuildingBlock: EZIPEK_clean_linker_0, # of connection points: 2
#     Edge 27, Type (0, 0), BuildingBlock: EZIPEK_clean_linker_0, # of connection points: 2
#     Edge 28, Type (0, 0), BuildingBlock: EZIPEK_clean_linker_0, # of connection points: 2
#     Edge 29, Type (0, 0), BuildingBlock: EZIPEK_clean_linker_0, # of connection points: 2
#     Edge 30, Type (0, 0), BuildingBlock: EZIPEK_clean_linker_0, # of connection points: 2
#     Edge 31, Type (0, 0), BuildingBlock: EZIPEK_clean_linker_0, # of connection points: 2
#     Edge 32, Type (0, 0), BuildingBlock: EZIPEK_clean_linker_0, # of connection points: 2
#     Edge 33, Type (0, 0), BuildingBlock: EZIPEK_clean_linker_0, # of connection points: 2
#     Edge 34, Type (0, 0), BuildingBlock: EZIPEK_clean_linker_0, # of connection points: 2
#     Edge 35, Type (0, 0), BuildingBlock: EZIPEK_clean_linker_0, # of connection points: 2
#     Edge 36, Type (0, 0), BuildingBlock: EZIPEK_clean_linker_0, # of connection points: 2
#     Edge 37, Type (0, 0), BuildingBlock: EZIPEK_clean_linker_0, # of connection points: 2
#     Edge 38, Type (0, 0), BuildingBlock: EZIPEK_clean_linker_0, # of connection points: 2
#     Edge 39, Type (0, 0), BuildingBlock: EZIPEK_clean_linker_0, # of connection points: 2
#     Edge 40, Type (0, 0), BuildingBlock: EZIPEK_clean_linker_0, # of connection points: 2
#     Edge 41, Type (0, 0), BuildingBlock: EZIPEK_clean_linker_0, # of connection points: 2
#     Edge 42, Type (0, 0), BuildingBlock: EZIPEK_clean_linker_0, # of connection points: 2
#     Edge 43, Type (0, 0), BuildingBlock: EZIPEK_clean_linker_0, # of connection points: 2
#     Edge 44, Type (0, 0), BuildingBlock: EZIPEK_clean_linker_0, # of connection points: 2
#     Edge 45, Type (0, 0), BuildingBlock: EZIPEK_clean_linker_0, # of connection points: 2
#     Edge 46, Type (0, 0), BuildingBlock: EZIPEK_clean_linker_0, # of connection points: 2
#     Edge 47, Type (0, 0), BuildingBlock: EZIPEK_clean_linker_0, # of connection points: 2
#     Edge 48, Type (0, 0), BuildingBlock: EZIPEK_clean_linker_0, # of connection points: 2
#     Edge 49, Type (0, 0), BuildingBlock: EZIPEK_clean_linker_0, # of connection points: 2
#     Edge 50, Type (0, 0), BuildingBlock: EZIPEK_clean_linker_0, # of connection points: 2
#     Edge 51, Type (0, 0), BuildingBlock: EZIPEK_clean_linker_0, # of connection points: 2
#     Edge 52, Type (0, 0), BuildingBlock: EZIPEK_clean_linker_0, # of connection points: 2
#     Edge 53, Type (0, 0), BuildingBlock: EZIPEK_clean_linker_0, # of connection points: 2
#     Edge 54, Type (0, 0), BuildingBlock: EZIPEK_clean_linker_0, # of connection points: 2
#     Edge 55, Type (0, 0), BuildingBlock: EZIPEK_clean_linker_0, # of connection points: 2
#     Edge 56, Type (0, 0), BuildingBlock: EZIPEK_clean_linker_0, # of connection points: 2
#     Edge 57, Type (0, 0), BuildingBlock: EZIPEK_clean_linker_0, # of connection points: 2
#     Edge 58, Type (0, 0), BuildingBlock: EZIPEK_clean_linker_0, # of connection points: 2
#     Edge 59, Type (0, 0), BuildingBlock: EZIPEK_clean_linker_0, # of connection points: 2
#     Edge 60, Type (0, 0), BuildingBlock: EZIPEK_clean_linker_0, # of connection points: 2
#     Edge 61, Type (0, 0), BuildingBlock: EZIPEK_clean_linker_0, # of connection points: 2
#     Edge 62, Type (0, 0), BuildingBlock: EZIPEK_clean_linker_0, # of connection points: 2
#     Edge 63, Type (0, 0), BuildingBlock: EZIPEK_clean_linker_0, # of connection points: 2
#     Edge 64, Type (0, 0), BuildingBlock: EZIPEK_clean_linker_0, # of connection points: 2
#     Edge 65, Type (0, 0), BuildingBlock: EZIPEK_clean_linker_0, # of connection points: 2
#     Edge 66, Type (0, 0), BuildingBlock: EZIPEK_clean_linker_0, # of connection points: 2
#     Edge 67, Type (0, 0), BuildingBlock: EZIPEK_clean_linker_0, # of connection points: 2
#     Edge 68, Type (0, 0), BuildingBlock: EZIPEK_clean_linker_0, # of connection points: 2
#     Edge 69, Type (0, 0), BuildingBlock: EZIPEK_clean_linker_0, # of connection points: 2
#     Edge 70, Type (0, 0), BuildingBlock: EZIPEK_clean_linker_0, # of connection points: 2
#     Edge 71, Type (0, 0), BuildingBlock: EZIPEK_clean_linker_0, # of connection points: 2
# Relax obj value: 0.419
# Max RMSD: 0.181
# Mean RMSD: 0.181
data_MOF--net-lcy-a--node1-CEKHIL_clean_sbu_0--edge1-EZIPEK_clean_linker_0
_symmetry_space_group_name_H-M    P1
_symmetry_Int_Tables_number       1
_symmetry_cell_setting            triclinic
loop_
_symmetry_equiv_pos_as_xyz
'x, y, z'
_cell_length_a     41.212864
_cell_length_b     41.205149
_cell_length_c     41.296174
_cell_angle_alpha  89.722177
_cell_angle_beta   89.915847
_cell_angle_gamma 90.233782
loop_
_atom_site_label
_atom_site_type_symbol
_atom_site_fract_x
_atom_site_fract_y
_atom_site_fract_z
_atom_type_partial_charge
Co0 Co 0.25974 0.25337 0.43759 0.0
O1 O 0.25666 0.21733 0.4674 0.0
O2 O 0.21508 0.24283 0.44422 0.0
C3 C 0.29967 0.23351 0.40581 0.0
O4 O 0.25245 0.28974 0.40536 0.0
Co5 Co 0.32249 0.29507 0.43023 0.0
O6 O 0.29919 0.31554 0.39334 0.0
C7 C 0.27874 0.30509 0.48608 0.0
C8 C 0.22549 0.22029 0.46357 0.0
C9 C 0.26896 0.31063 0.3891 0.0
O10 O 0.25799 0.28501 0.47445 0.0
O11 O 0.30673 0.31024 0.47352 0.0
O12 O 0.26974 0.22432 0.40184 0.0
O13 O 0.30449 0.25164 0.43075 0.0
Co14 Co 0.95639 0.92999 0.63054 0.0
O15 O 0.97898 0.91108 0.66653 0.0
O16 O 0.9542 0.88355 0.62739 0.0
C17 C -0.00533 0.96766 0.61819 0.0
O18 O 0.93224 0.94028 0.58905 0.0
Co19 Co 0.93536 0.00258 0.6297 0.0
O20 O 0.92643 -0.0057 0.58322 0.0
C21 C 0.89858 0.95422 0.6685 0.0
C22 C 0.97125 0.88333 0.65382 0.0
C23 C 0.92442 0.96545 0.57244 0.0
O24 O 0.91485 0.93063 0.65638 0.0
O25 O 0.90491 0.98418 0.66297 0.0
O26 O -0.00254 0.93801 0.60799 0.0
O27 O 0.97039 0.9725 0.63724 0.0
Co28 Co 0.22979 0.73569 0.93195 0.0
O29 O 0.23493 0.76961 0.96357 0.0
O30 O 0.27496 0.74302 0.93907 0.0
C31 C 0.19121 0.75993 0.90147 0.0
O32 O 0.23532 0.70104 0.89789 0.0
Co33 Co 0.16508 0.69817 0.92127 0.0
O34 O 0.18745 0.67948 0.88302 0.0
C35 C 0.20702 0.68217 0.97725 0.0
C36 C 0.26587 0.76491 0.95959 0.0
C37 C 0.21803 0.68271 0.87977 0.0
O38 O 0.22919 0.70183 0.96729 0.0
O39 O 0.17918 0.67937 0.96381 0.0
O40 O 0.22165 0.76753 0.8977 0.0
O41 O 0.18527 0.74043 0.92528 0.0
Co42 Co 0.51526 0.04962 0.14025 0.0
O43 O 0.48939 0.07151 0.17196 0.0
O44 O 0.51699 0.09551 0.13201 0.0
C45 C 0.47936 0.00969 0.12846 0.0
O46 O 0.54319 0.03564 0.10254 0.0
Co47 Co 0.53788 0.97818 0.15061 0.0
O48 O 0.55365 0.98206 0.10525 0.0
C49 C 0.57131 0.03181 0.18441 0.0
C50 C 0.49807 0.098 0.15705 0.0
C51 C 0.555 0.00944 0.09082 0.0
O52 O 0.55473 0.05296 0.16869 0.0
O53 O 0.56611 0.00121 0.18266 0.0
O54 O 0.47667 0.0383 0.11537 0.0
O55 O 0.50149 0.00759 0.15041 0.0
Co56 Co 0.74378 0.23478 0.55738 0.0
O57 O 0.73702 0.26956 0.52682 0.0
O58 O 0.69828 0.23943 0.54982 0.0
C59 C 0.78035 0.26109 0.58858 0.0
O60 O 0.73988 0.19851 0.5905 0.0
Co61 Co 0.81045 0.20175 0.56906 0.0
O62 O 0.78871 0.18062 0.60668 0.0
C63 C 0.77197 0.18646 0.5104 0.0
C64 C 0.70634 0.2629 0.53032 0.0
C65 C 0.75791 0.18125 0.60901 0.0
O66 O 0.74747 0.20261 0.52087 0.0
O67 O 0.79952 0.1857 0.52467 0.0
O68 O 0.74946 0.26597 0.59265 0.0
O69 O 0.78773 0.24251 0.5647 0.0
Co70 Co 0.02769 0.42095 0.85216 0.0
O71 O 0.00458 0.40134 0.817 0.0
O72 O 0.03342 0.37469 0.85401 0.0
C73 C 0.98738 0.45481 0.86721 0.0
O74 O 0.0535 0.432 0.89245 0.0
Co75 Co 0.0431 0.49503 0.85395 0.0
O76 O 0.05723 0.48609 0.89905 0.0
C77 C 0.08108 0.45127 0.81171 0.0
C78 C 0.01491 0.37391 0.82859 0.0
C79 C 0.06163 0.45711 0.90888 0.0
O80 O 0.06757 0.42592 0.82415 0.0
O81 O 0.07256 0.48035 0.81833 0.0
O82 O 0.98736 0.42481 0.87707 0.0
O83 O 0.01019 0.4623 0.84714 0.0
Co84 Co 0.74159 0.75026 0.0598 0.0
O85 O 0.74936 0.71259 0.03363 0.0
O86 O 0.78736 0.74543 0.05359 0.0
C87 C 0.70474 0.72743 0.09361 0.0
O88 O 0.74373 0.79001 0.08842 0.0
Co89 Co 0.67371 0.78271 0.06404 0.0
O90 O 0.69384 0.80956 0.09857 0.0
C91 C 0.71471 0.79234 0.0059 0.0
C92 C 0.77988 0.72002 0.03664 0.0
C93 C 0.72445 0.80956 0.10288 0.0
O94 O 0.73878 0.77843 0.0199 0.0
O95 O 0.68624 0.79357 0.01833 0.0
O96 O 0.73561 0.7232 0.09841 0.0
O97 O 0.69762 0.74257 0.06718 0.0
Co98 Co 0.46572 0.56316 0.34854 0.0
O99 O 0.4888 0.5865 0.31542 0.0
O100 O 0.46009 0.60888 0.35518 0.0
C101 C 0.50575 0.52765 0.36041 0.0
O102 O 0.43994 0.54799 0.38751 0.0
Co103 Co 0.45003 0.48929 0.34343 0.0
O104 O 0.4349 0.49359 0.38891 0.0
C105 C 0.41131 0.53743 0.30663 0.0
C106 C 0.47852 0.61244 0.32988 0.0
C107 C 0.43097 0.52152 0.40136 0.0
O108 O 0.42565 0.56131 0.32064 0.0
O109 O 0.41964 0.50775 0.31042 0.0
O110 O 0.50592 0.55657 0.37283 0.0
O111 O 0.4831 0.52244 0.33957 0.0
Co112 Co 0.42916 0.25299 0.24633 0.0
O113 O 0.45446 0.24388 0.20822 0.0
O114 O 0.43319 0.20705 0.24184 0.0
C115 C 0.39642 0.291 0.2242 0.0
O116 O 0.40097 0.2519 0.28644 0.0
Co117 Co 0.42767 0.32088 0.27881 0.0
O118 O 0.39259 0.30192 0.30626 0.0
C119 C 0.48468 0.27824 0.28717 0.0
C120 C 0.45007 0.21355 0.21605 0.0
C121 C 0.38731 0.27143 0.30624 0.0
O122 O 0.46959 0.25453 0.27371 0.0
O123 O 0.47323 0.30707 0.28848 0.0
O124 O 0.39043 0.26028 0.22012 0.0
O125 O 0.42341 0.29723 0.2387 0.0
Co126 Co 0.06296 0.13728 0.5191 0.0
O127 O 0.08794 0.16954 0.49652 0.0
O128 O 0.10818 0.13081 0.52832 0.0
C129 C 0.03004 0.12403 0.4774 0.0
O130 O 0.04565 0.09917 0.54512 0.0
Co131 Co 0.98856 0.1445 0.52968 0.0
O132 O 0.99101 0.09902 0.54585 0.0
C133 C 0.03475 0.18436 0.56731 0.0
C134 C 0.11306 0.15563 0.50941 0.0
C135 C 0.01827 0.08594 0.55211 0.0
O136 O 0.05861 0.16701 0.55745 0.0
O137 O 0.00581 0.18117 0.55647 0.0
O138 O 0.05884 0.11143 0.47966 0.0
O139 O 0.0237 0.14589 0.49867 0.0
Co140 Co 0.05107 0.73776 0.75101 0.0
O141 O 0.02176 0.74331 0.71513 0.0
O142 O 0.04267 0.78303 0.74509 0.0
C143 C 0.08445 0.7016 0.727 0.0
O144 O 0.08263 0.74265 0.78825 0.0
Co145 Co 0.06138 0.67142 0.7857 0.0
O146 O 0.09737 0.6941 0.8084 0.0
C147 C 0.00196 0.70961 0.79803 0.0
C148 C 0.02433 0.77415 0.72118 0.0
C149 C 0.09996 0.72488 0.80697 0.0
O150 O 0.0134 0.73391 0.78201 0.0
O151 O 0.01607 0.68202 0.79967 0.0
O152 O 0.08779 0.73252 0.72141 0.0
O153 O 0.05966 0.69387 0.74453 0.0
Co154 Co 0.42988 0.84 0.02326 0.0
O155 O 0.40619 0.80779 -0.00049 0.0
O156 O 0.38431 0.84607 0.03047 0.0
C157 C 0.46455 0.85419 0.98304 0.0
O158 O 0.44529 0.87791 0.05006 0.0
Co159 Co 0.50383 0.83428 0.03716 0.0
O160 O 0.4997 0.87908 0.05444 0.0
C161 C 0.45663 0.79418 0.07395 0.0
C162 C 0.38041 0.82163 0.01112 0.0
C163 C 0.47179 0.89138 0.05921 0.0
O164 O 0.43276 0.81023 0.06199 0.0
O165 O 0.48605 0.79804 0.06455 0.0
O166 O 0.43549 0.86628 0.98407 0.0
O167 O 0.4703 0.83219 0.00456 0.0
Co168 Co 0.93205 0.23551 0.72624 0.0
O169 O 0.96402 0.23708 0.76023 0.0
O170 O 0.94027 0.27982 0.73722 0.0
C171 C 0.90125 0.19527 0.74782 0.0
O172 O 0.89758 0.24441 0.6924 0.0
Co173 Co 0.91994 0.1741 0.68424 0.0
O174 O 0.88122 0.19811 0.66871 0.0
C175 C 0.97775 0.21548 0.67271 0.0
C176 C 0.96065 0.26839 0.75826 0.0
C177 C 0.87849 0.22844 0.67379 0.0
O178 O 0.96739 0.23706 0.69251 0.0
O179 O 0.96383 0.18802 0.66835 0.0
O180 O 0.89785 0.22503 0.75754 0.0
O181 O 0.92465 0.19088 0.72761 0.0
Co182 Co 0.93345 0.62992 0.96313 0.0
O183 O 0.91626 0.66499 0.98811 0.0
O184 O 0.88687 0.62726 0.96301 0.0
C185 C 0.97214 0.61548 -0.00086 0.0
O186 O 0.94224 0.5894 0.93681 0.0
Co187 Co 0.00524 0.62994 0.93919 0.0
O188 O -0.00398 0.5838 0.92893 0.0
C189 C 0.95614 0.67054 0.90611 0.0
C190 C 0.88799 0.65294 0.98112 0.0
C191 C 0.96702 0.5731 0.9275 0.0
O192 O 0.93301 0.65775 0.92282 0.0
O193 O 0.98622 0.66464 0.91097 0.0
O194 O 0.94246 0.6053 0.00267 0.0
O195 O 0.97648 0.63571 0.97562 0.0
Co196 Co 0.55862 0.75839 0.23663 0.0
O197 O 0.52731 0.75533 0.27125 0.0
O198 O 0.55287 0.71382 0.24818 0.0
C199 C 0.58815 0.79998 0.25676 0.0
O200 O 0.59265 0.7511 0.20202 0.0
Co201 Co 0.56633 0.81998 0.19342 0.0
O202 O 0.60509 0.79752 0.17585 0.0
C203 C 0.51144 0.7748 0.1828 0.0
C204 C 0.53204 0.72422 0.26926 0.0
C205 C 0.60972 0.76753 0.18174 0.0
O206 O 0.52287 0.75469 0.20367 0.0
O207 O 0.52369 0.80291 0.17734 0.0
O208 O 0.59292 0.77048 0.26694 0.0
O209 O 0.56393 0.80337 0.23728 0.0
Co210 Co 0.55167 0.34898 0.4544 0.0
O211 O 0.56926 0.31347 0.47888 0.0
O212 O 0.59819 0.35197 0.45398 0.0
C213 C 0.51298 0.36264 0.49087 0.0
O214 O 0.5429 0.38998 0.42867 0.0
Co215 Co 0.48001 0.34968 0.43057 0.0
O216 O 0.48932 0.39589 0.42012 0.0
C217 C 0.5292 0.31032 0.39632 0.0
C218 C 0.59739 0.32597 0.47185 0.0
C219 C 0.51838 0.40647 0.41908 0.0
O220 O 0.55219 0.32218 0.41369 0.0
O221 O 0.4991 0.31624 0.40112 0.0
O222 O 0.54269 0.37268 0.49425 0.0
O223 O 0.50852 0.34294 0.46709 0.0
Co224 Co 0.25176 0.43399 0.25796 0.0
O225 O 0.21629 0.46409 0.25366 0.0
O226 O 0.24326 0.44094 0.2131 0.0
C227 C 0.22949 0.40234 0.297 0.0
O228 O 0.28775 0.40141 0.25153 0.0
Co229 Co 0.29103 0.42443 0.32142 0.0
O230 O 0.31108 0.38713 0.29862 0.0
C231 C 0.30288 0.48203 0.27984 0.0
C232 C 0.22053 0.46032 0.22268 0.0
C233 C 0.30728 0.38394 0.26821 0.0
O234 O 0.28387 0.47098 0.25783 0.0
O235 O 0.30667 0.46848 0.30754 0.0
O236 O 0.22163 0.39825 0.26681 0.0
O237 O 0.24816 0.4269 0.30247 0.0
Co238 Co 0.7495 0.05437 0.73743 0.0
O239 O 0.71324 0.02641 0.74733 0.0
O240 O 0.74723 0.04799 0.78326 0.0
C241 C 0.7237 0.08718 0.7018 0.0
O242 O 0.78797 0.08506 0.73777 0.0
Co243 Co 0.77901 0.06105 0.66844 0.0
O244 O 0.80417 0.09773 0.68723 0.0
C245 C 0.79141 0.00222 0.70786 0.0
C246 C 0.72207 0.02995 0.77734 0.0
C247 C 0.80539 0.10151 0.7178 0.0
O248 O 0.77882 0.01562 0.73293 0.0
O249 O 0.79088 0.01521 0.67961 0.0
O250 O 0.72073 0.09173 0.73281 0.0
O251 O 0.73963 0.06152 0.69396 0.0
Co252 Co 0.14164 0.51436 0.05802 0.0
O253 O 0.17467 0.49298 0.08274 0.0
O254 O 0.13458 0.52273 0.10313 0.0
C255 C 0.12967 0.47248 0.02475 0.0
O256 O 0.10272 0.53889 0.04139 0.0
Co257 Co 0.14762 0.52622 0.98368 0.0
O258 O 0.10177 0.54064 0.98693 0.0
C259 C 0.18237 0.56903 0.02964 0.0
C260 C 0.15999 0.50484 0.1079 0.0
C261 C 0.08901 0.54604 0.01448 0.0
O262 O 0.16932 0.55461 0.05409 0.0
O263 O 0.17874 0.55964 0.00035 0.0
O264 O 0.11737 0.47377 0.05372 0.0
O265 O 0.15085 0.49475 0.01838 0.0
Co266 Co 0.73545 0.94319 0.22737 0.0
O267 O 0.77124 0.97313 0.23136 0.0
O268 O 0.74362 0.95074 0.27224 0.0
C269 C 0.75756 0.91065 0.18933 0.0
O270 O 0.69879 0.91094 0.23366 0.0
Co271 Co 0.69715 0.93486 0.16313 0.0
O272 O 0.67559 0.89811 0.1861 0.0
C273 C 0.6855 0.99203 0.20452 0.0
C274 C 0.76668 0.96992 0.26238 0.0
C275 C 0.67889 0.89431 0.21655 0.0
O276 O 0.70382 0.98019 0.22666 0.0
O277 O 0.68198 0.97898 0.17664 0.0
O278 O 0.76504 0.9072 0.21972 0.0
O279 O 0.73963 0.9355 0.18304 0.0
Co280 Co 0.34691 0.46886 0.55438 0.0
O281 O 0.31512 0.49347 0.57743 0.0
O282 O 0.35343 0.46296 0.60014 0.0
C283 C 0.36108 0.50783 0.51824 0.0
O284 O 0.38429 0.44122 0.53878 0.0
Co285 Co 0.33757 0.45293 0.48132 0.0
O286 O 0.38261 0.43611 0.48449 0.0
C287 C 0.29969 0.41748 0.531 0.0
C288 C 0.32882 0.48229 0.60346 0.0
C289 C 0.39638 0.43175 0.51178 0.0
O290 O 0.31693 0.43024 0.55348 0.0
O291 O 0.30217 0.42578 0.50115 0.0
O292 O 0.37343 0.50761 0.54719 0.0
O293 O 0.33848 0.48659 0.5137 0.0
Co294 Co 0.23385 0.5597 0.74928 0.0
O295 O 0.26972 0.53018 0.74504 0.0
O296 O 0.24174 0.55204 0.70433 0.0
C297 C 0.25659 0.59209 0.78703 0.0
O298 O 0.19704 0.59171 0.74323 0.0
Co299 Co 0.19635 0.56924 0.81399 0.0
O300 O 0.17582 0.60641 0.79117 0.0
C301 C 0.18493 0.51067 0.77427 0.0
C302 C 0.26502 0.53327 0.71406 0.0
C303 C 0.17826 0.60935 0.76055 0.0
O304 O 0.20238 0.52212 0.75102 0.0
O305 O 0.18202 0.52442 0.80185 0.0
O306 O 0.26361 0.59609 0.75655 0.0
O307 O 0.23845 0.56733 0.79342 0.0
Co308 Co 0.63885 0.9569 0.93596 0.0
O309 O 0.67353 0.98235 0.91779 0.0
O310 O 0.63587 0.95584 0.88959 0.0
C311 C 0.62412 -0.00661 0.97403 0.0
O312 O 0.59878 0.92982 0.94546 0.0
Co313 Co 0.639 0.93385 0.00795 0.0
O314 O 0.59336 0.92111 -0.00094 0.0
C315 C 0.67957 0.90042 0.95919 0.0
C316 C 0.66129 0.97457 0.8899 0.0
C317 C 0.58279 0.91951 0.97015 0.0
O318 O 0.66698 0.91699 0.93598 0.0
O319 O 0.67358 0.90548 0.98918 0.0
O320 O 0.61389 -0.00382 0.94441 0.0
O321 O 0.64454 0.97021 0.97871 0.0
Co322 Co 0.85427 0.03005 0.42089 0.0
O323 O 0.81914 0.00861 0.39926 0.0
O324 O 0.85794 0.03776 0.37514 0.0
C325 C 0.86694 0.9879 0.45369 0.0
O326 O 0.89504 0.0543 0.43394 0.0
Co327 Co 0.85512 0.04226 0.4952 0.0
O328 O 0.90129 0.05437 0.48804 0.0
C329 C 0.81436 0.0828 0.45196 0.0
C330 C 0.83213 0.01976 0.37274 0.0
C331 C 0.91165 0.06012 0.45952 0.0
O332 O 0.82703 0.07027 0.42643 0.0
O333 O 0.82037 0.07294 0.48078 0.0
O334 O 0.87794 0.98898 0.42418 0.0
O335 O 0.84743 0.01099 0.46131 0.0
C336 C 0.16676 0.15195 0.48172 0.0
C337 C 0.14583 0.16849 0.5033 0.0
C338 C 0.18419 0.21375 0.50669 0.0
C339 C 0.20213 0.19974 0.48114 0.0
N340 N 0.21224 0.15576 0.44438 0.0
N341 N 0.1343 0.21398 0.53792 0.0
C342 C 0.19434 0.16855 0.46909 0.0
C343 C 0.15465 0.19894 0.51657 0.0
N344 N 0.15991 0.1207 0.47297 0.0
N345 N 0.19575 0.24103 0.52156 0.0
H346 H 0.11351 0.20285 0.54726 0.0
H347 H 0.1372 0.23786 0.54551 0.0
H348 H 0.21767 0.25196 0.51496 0.0
H349 H 0.18536 0.25121 0.5421 0.0
H350 H 0.17567 0.1062 0.45974 0.0
H351 H 0.13929 0.10827 0.48093 0.0
H352 H 0.20574 0.13497 0.43171 0.0
H353 H 0.23324 0.16688 0.43545 0.0
C354 C 0.96949 0.84422 0.70012 0.0
C355 C 0.98167 0.85271 0.66904 0.0
C356 C 0.01939 0.80694 0.6705 0.0
C357 C 0.00733 0.79865 0.70163 0.0
N358 N 0.96715 0.8043 0.74354 0.0
N359 N 0.01405 0.83993 0.62203 0.0
C360 C 0.98119 0.8158 0.7157 0.0
C361 C 0.00511 0.83315 0.65327 0.0
N362 N 0.94704 0.86361 0.71485 0.0
N363 N 0.0457 0.79092 0.65828 0.0
H364 H 0.00591 0.86018 0.60925 0.0
H365 H 0.02803 0.82449 0.6079 0.0
H366 H 0.05632 0.77109 0.66987 0.0
H367 H 0.05833 0.79824 0.63766 0.0
H368 H 0.94013 0.8612 0.73898 0.0
H369 H 0.9361 0.88326 0.70326 0.0
H370 H 0.9461 0.81376 0.75366 0.0
H371 H 0.97508 0.78333 0.75531 0.0
C372 C 0.30699 0.76676 0.00324 0.0
C373 C 0.29041 0.78299 0.97796 0.0
C374 C 0.32866 0.82842 0.98059 0.0
C375 C 0.34786 0.80994 0.00237 0.0
N376 N 0.35601 0.76225 0.03539 0.0
N377 N 0.28417 0.82874 0.94207 0.0
C378 C 0.33708 0.77939 0.01421 0.0
C379 C 0.30051 0.814 0.96689 0.0
N380 N 0.29356 0.73953 0.01688 0.0
N381 N 0.33763 0.85947 0.9727 0.0
H382 H 0.26276 0.81933 0.93239 0.0
H383 H 0.2924 0.8494 0.93 0.0
H384 H 0.35893 0.8703 0.98099 0.0
H385 H 0.32304 0.8754 0.95965 0.0
H386 H 0.30287 0.72783 0.03721 0.0
H387 H 0.27125 0.73013 0.00948 0.0
H388 H 0.35158 0.73825 0.04202 0.0
H389 H 0.37723 0.77166 0.04547 0.0
C390 C 0.5086 0.15061 0.18498 0.0
C391 C 0.48682 0.12979 0.1684 0.0
C392 C 0.44153 0.16614 0.17983 0.0
C393 C 0.46329 0.18698 0.19645 0.0
N394 N 0.51791 0.2028 0.21037 0.0
N395 N 0.43463 0.12004 0.14408 0.0
C396 C 0.49704 0.18053 0.19734 0.0
C397 C 0.45384 0.13827 0.16403 0.0
N398 N 0.53983 0.1409 0.19045 0.0
N399 N 0.40903 0.17279 0.17972 0.0
H400 H 0.44301 0.09946 0.13211 0.0
H401 H 0.41124 0.12656 0.13724 0.0
H402 H 0.39941 0.19421 0.189 0.0
H403 H 0.39136 0.15661 0.17173 0.0
H404 H 0.55592 0.15301 0.2056 0.0
H405 H 0.54923 0.11929 0.18146 0.0
H406 H 0.54305 0.20121 0.20867 0.0
H407 H 0.5102 0.22432 0.22104 0.0
C408 C 0.67518 0.27778 0.4806 0.0
C409 C 0.68107 0.28213 0.51414 0.0
C410 C 0.63527 0.31949 0.51812 0.0
C411 C 0.62725 0.31231 0.48558 0.0
N412 N 0.63757 0.28401 0.43575 0.0
N413 N 0.66694 0.30574 0.5656 0.0
C414 C 0.64685 0.29154 0.46662 0.0
C415 C 0.66123 0.30271 0.53311 0.0
N416 N 0.69658 0.26038 0.4623 0.0
N417 N 0.61854 0.34301 0.53434 0.0
H418 H 0.68711 0.29572 0.57707 0.0
H419 H 0.65098 0.31684 0.5816 0.0
H420 H 0.59923 0.3557 0.52411 0.0
H421 H 0.62525 0.3519 0.55692 0.0
H422 H 0.69554 0.25892 0.43717 0.0
H423 H 0.7169 0.24894 0.47204 0.0
H424 H 0.64863 0.26631 0.42173 0.0
H425 H 0.61734 0.29429 0.42459 0.0
C426 C 0.96905 0.29628 0.81107 0.0
C427 C 0.97931 0.29068 0.77883 0.0
C428 C 0.01677 0.33676 0.78116 0.0
C429 C 0.00575 0.34312 0.81306 0.0
N430 N 0.97657 0.32615 0.86102 0.0
N431 N 0.01749 0.29971 0.73559 0.0
C432 C 0.98376 0.32174 0.829 0.0
C433 C 0.00469 0.30912 0.76463 0.0
N434 N 0.94397 0.27845 0.82379 0.0
N435 N 0.03827 0.35757 0.76655 0.0
H436 H 0.00925 0.27928 0.72319 0.0
H437 H 0.03791 0.31027 0.725 0.0
H438 H 0.04939 0.37674 0.77873 0.0
H439 H 0.04427 0.35677 0.74208 0.0
H440 H 0.93247 0.28378 0.84556 0.0
H441 H 0.93336 0.25896 0.81168 0.0
H442 H 0.96351 0.30951 0.87495 0.0
H443 H 0.98543 0.34554 0.87453 0.0
C444 C 0.80977 0.7007 0.98775 0.0
C445 C 0.80545 0.70015 0.02186 0.0
C446 C 0.852 0.66398 0.02809 0.0
C447 C 0.85834 0.66736 -0.0055 0.0
N448 N 0.84556 0.6902 0.94226 0.0
N449 N 0.8224 0.68282 0.07509 0.0
C450 C 0.83763 0.68575 0.97417 0.0
C451 C 0.82654 0.68217 0.04221 0.0
N452 N 0.78739 0.71575 0.96845 0.0
N453 N 0.86973 0.64254 0.04618 0.0
H454 H 0.80264 0.69389 0.08627 0.0
H455 H 0.83927 0.6738 0.09151 0.0
H456 H 0.8885 0.6287 0.03652 0.0
H457 H 0.8643 0.63635 0.07005 0.0
H458 H 0.78713 0.71399 0.94332 0.0
H459 H 0.76763 0.72851 0.97758 0.0
H460 H 0.83372 0.70634 0.9269 0.0
H461 H 0.86553 0.67919 0.93139 0.0
C462 C 0.52753 0.68919 0.31832 0.0
C463 C 0.51375 0.70087 0.28916 0.0
C464 C 0.47345 0.65722 0.28949 0.0
C465 C 0.48797 0.6448 0.31804 0.0
N466 N 0.52375 0.65167 0.36369 0.0
N467 N 0.46969 0.70182 0.25101 0.0
C468 C 0.51327 0.66186 0.33393 0.0
C469 C 0.4853 0.68676 0.2761 0.0
N470 N 0.55507 0.70344 0.33017 0.0
N471 N 0.44904 0.64023 0.27479 0.0
H472 H 0.47784 0.72367 0.24101 0.0
H473 H 0.44735 0.69438 0.24192 0.0
H474 H 0.43865 0.61939 0.28493 0.0
H475 H 0.43994 0.64581 0.25196 0.0
H476 H 0.56875 0.69392 0.34909 0.0
H477 H 0.56513 0.72445 0.32004 0.0
H478 H 0.53995 0.66469 0.37797 0.0
H479 H 0.5145 0.6311 0.37533 0.0
C480 C 0.17023 0.46468 0.18967 0.0
C481 C 0.20084 0.47752 0.19857 0.0
C482 C 0.20204 0.51227 0.15051 0.0
C483 C 0.17212 0.49834 0.14074 0.0
N484 N 0.12414 0.46686 0.15322 0.0
N485 N 0.24215 0.51851 0.19311 0.0
C486 C 0.15487 0.47655 0.16124 0.0
C487 C 0.21552 0.50305 0.18075 0.0
N488 N 0.15688 0.43986 0.2074 0.0
N489 N 0.21782 0.53368 0.13048 0.0
H490 H 0.25208 0.51236 0.21554 0.0
H491 H 0.25274 0.53908 0.18279 0.0
H492 H 0.20766 0.54251 0.10908 0.0
H493 H 0.24142 0.54182 0.13425 0.0
H494 H 0.13668 0.42654 0.2002 0.0
H495 H 0.16699 0.43153 0.22904 0.0
H496 H 0.10902 0.45365 0.16864 0.0
H497 H 0.11271 0.47383 0.13181 0.0
C498 C 0.69254 0.9677 0.83854 0.0
C499 C 0.67481 0.988 0.85972 0.0
C500 C 0.68659 0.03542 0.8258 0.0
C501 C 0.70376 0.01505 0.80418 0.0
N502 N 0.71978 0.96166 0.78676 0.0
N503 N 0.64949 0.03932 0.87121 0.0
C504 C 0.70551 0.98105 0.80944 0.0
C505 C 0.6703 0.02138 0.85273 0.0
N506 N 0.69824 0.9361 0.84707 0.0
N507 N 0.68621 0.06827 0.82074 0.0
H508 H 0.63709 0.02981 0.89117 0.0
H509 H 0.64236 0.06285 0.86544 0.0
H510 H 0.69566 0.0793 0.79998 0.0
H511 H 0.67794 0.08486 0.83774 0.0
H512 H 0.71396 0.92088 0.83464 0.0
H513 H 0.68882 0.92546 0.86805 0.0
H514 H 0.71882 0.93641 0.78737 0.0
H515 H 0.73099 0.97073 0.76593 0.0
C516 C 0.81802 0.97619 0.29364 0.0
C517 C 0.78652 0.98754 0.28606 0.0
C518 C 0.787 0.02364 0.33285 0.0
C519 C 0.81812 0.01162 0.34106 0.0
N520 N 0.86628 0.98167 0.32673 0.0
N521 N 0.74419 0.02698 0.29265 0.0
C522 C 0.83476 0.98979 0.32041 0.0
C523 C 0.772 0.01289 0.3039 0.0
N524 N 0.83101 0.95111 0.27641 0.0
N525 N 0.77163 0.04482 0.3531 0.0
H526 H 0.73315 0.0199 0.27108 0.0
H527 H 0.73362 0.04741 0.30288 0.0
H528 H 0.7828 0.0549 0.37338 0.0
H529 H 0.74742 0.05145 0.3507 0.0
H530 H 0.85201 0.93885 0.28305 0.0
H531 H 0.81981 0.94123 0.25605 0.0
H532 H 0.88085 0.96877 0.31077 0.0
H533 H 0.87884 0.98963 0.3471 0.0
C534 C 0.31573 0.52788 0.68145 0.0
C535 C 0.28476 0.51566 0.69034 0.0
C536 C 0.28532 0.47767 0.64513 0.0
C537 C 0.31581 0.4906 0.63552 0.0
N538 N 0.36342 0.52259 0.64729 0.0
N539 N 0.24354 0.47435 0.68654 0.0
C540 C 0.33226 0.5138 0.65479 0.0
C541 C 0.27066 0.48901 0.67401 0.0
N542 N 0.32842 0.554 0.69742 0.0
N543 N 0.27009 0.45517 0.62616 0.0
H544 H 0.23255 0.48205 0.70792 0.0
H545 H 0.23353 0.453 0.67755 0.0
H546 H 0.28104 0.44477 0.60596 0.0
H547 H 0.24616 0.44772 0.62949 0.0
H548 H 0.349 0.56665 0.68985 0.0
H549 H 0.31736 0.56421 0.71768 0.0
H550 H 0.37792 0.537 0.66204 0.0
H551 H 0.3758 0.51353 0.62725 0.0
C552 C 0.29492 0.36149 0.55328 0.0
C553 C 0.27976 0.38817 0.53801 0.0
C554 C 0.24585 0.35081 0.50711 0.0
C555 C 0.26943 0.32659 0.51306 0.0
N556 N 0.31112 0.30518 0.54743 0.0
N557 N 0.23372 0.4086 0.50927 0.0
C558 C 0.29172 0.33051 0.53877 0.0
C559 C 0.2521 0.38271 0.51852 0.0
N560 N 0.31259 0.366 0.58078 0.0
N561 N 0.21876 0.34359 0.48957 0.0
H562 H 0.23799 0.43171 0.51872 0.0
H563 H 0.21504 0.40745 0.4924 0.0
H564 H 0.21341 0.32002 0.48221 0.0
H565 H 0.2002 0.36 0.485 0.0
H566 H 0.32326 0.34712 0.59372 0.0
H567 H 0.31312 0.38827 0.59268 0.0
H568 H 0.33053 0.30725 0.56341 0.0
H569 H 0.30788 0.2821 0.53755 0.0
C570 C 0.84051 0.93804 0.6731 0.0
C571 C 0.86962 0.94762 0.68864 0.0
C572 C 0.83846 0.97301 0.73198 0.0
C573 C 0.81129 0.97243 0.71116 0.0
N574 N 0.78156 0.94352 0.67089 0.0
N575 N 0.89693 0.966 0.73642 0.0
C576 C 0.81067 0.95048 0.685 0.0
C577 C 0.86861 0.96166 0.71986 0.0
N578 N 0.84189 0.9196 0.64577 0.0
N579 N 0.83533 0.98489 0.76259 0.0
H580 H 0.91882 0.95655 0.72793 0.0
H581 H 0.89889 0.97898 0.75788 0.0
H582 H 0.8128 0.99117 0.77216 0.0
H583 H 0.85403 0.98532 0.77948 0.0
H584 H 0.82192 0.91367 0.63161 0.0
H585 H 0.86353 0.90957 0.63748 0.0
H586 H 0.77845 0.92753 0.65173 0.0
H587 H 0.75996 0.95295 0.68014 0.0
C588 C 0.19059 0.65851 0.02976 0.0
C589 C 0.21363 0.65965 0.00441 0.0
C590 C 0.2293 0.60391 0.01668 0.0
C591 C 0.19987 0.60017 0.0339 0.0
N592 N 0.15626 0.6248 0.06394 0.0
N593 N 0.25996 0.63601 0.97781 0.0
C594 C 0.1823 0.62799 0.04369 0.0
C595 C 0.23542 0.6335 -7e-05 0.0
N596 N 0.17607 0.68662 0.03927 0.0
N597 N 0.25018 0.57834 0.01531 0.0
H598 H 0.26594 0.65777 0.9663 0.0
H599 H 0.27408 0.61651 0.97042 0.0
H600 H 0.24518 0.55661 0.02751 0.0
H601 H 0.27312 0.57953 0.00477 0.0
H602 H 0.16032 0.68829 0.0589 0.0
H603 H 0.18232 0.70894 0.02881 0.0
H604 H 0.13972 0.64327 0.06841 0.0
H605 H 0.15109 0.60337 0.07639 0.0
C606 C 0.62666 0.05566 0.1833 0.0
C607 C 0.60115 0.04175 0.20173 0.0
C608 C 0.64091 0.01617 0.23726 0.0
C609 C 0.66389 0.01971 0.21194 0.0
N610 N 0.68283 0.05015 0.16604 0.0
N611 N 0.58355 0.017 0.25133 0.0
C612 C 0.65832 0.04276 0.18709 0.0
C613 C 0.60837 0.02551 0.23107 0.0
N614 N 0.6203 0.07994 0.1617 0.0
N615 N 0.64996 0.0032 0.2663 0.0
H616 H 0.55986 0.02487 0.24706 0.0
H617 H 0.58619 0.0019 0.27143 0.0
H618 H 0.67408 -0.00196 0.2717 0.0
H619 H 0.63445 0.00104 0.28611 0.0
H620 H 0.63812 0.09187 0.14824 0.0
H621 H 0.59745 0.0905 0.15991 0.0
H622 H 0.67984 0.06389 0.14505 0.0
H623 H 0.70637 0.04156 0.16973 0.0
C624 C 0.75142 0.13623 0.48356 0.0
C625 C 0.76901 0.16576 0.48139 0.0
C626 C 0.8064 0.14211 0.44219 0.0
C627 C 0.7928 0.11131 0.44948 0.0
N628 N 0.74589 0.08048 0.46489 0.0
N629 N 0.80329 0.20062 0.44976 0.0
C630 C 0.76261 0.10912 0.46564 0.0
C631 C 0.79285 0.16998 0.45707 0.0
N632 N 0.72606 0.13342 0.50471 0.0
N633 N 0.8337 0.14428 0.42353 0.0
H634 H 0.79328 0.22091 0.46105 0.0
H635 H 0.8194 0.20605 0.43105 0.0
H636 H 0.84317 0.1244 0.41128 0.0
H637 H 0.84721 0.16548 0.42057 0.0
H638 H 0.71477 0.11151 0.51049 0.0
H639 H 0.71659 0.15327 0.517 0.0
H640 H 0.72276 0.0773 0.47459 0.0
H641 H 0.7545 0.06064 0.45181 0.0
C642 C 0.16831 0.45612 0.7926 0.0
C643 C 0.16495 0.48123 0.76944 0.0
C644 C 0.10863 0.46528 0.76065 0.0
C645 C 0.1097 0.4482 0.79035 0.0
N646 N 0.14106 0.41977 0.83046 0.0
N647 N 0.13479 0.50501 0.72552 0.0
C648 C 0.13998 0.4402 0.80438 0.0
C649 C 0.13628 0.4835 0.75072 0.0
N650 N 0.19851 0.44912 0.80414 0.0
N651 N 0.08045 0.4652 0.74335 0.0
H652 H 0.15518 0.5175 0.71709 0.0
H653 H 0.11357 0.5107 0.71317 0.0
H654 H 0.06025 0.45188 0.7512 0.0
H655 H 0.07789 0.47584 0.7206 0.0
H656 H 0.20344 0.43018 0.82011 0.0
H657 H 0.21909 0.46119 0.79535 0.0
H658 H 0.16174 0.41571 0.84428 0.0
H659 H 0.12076 0.4068 0.83837 0.0
C660 C 0.73042 0.86991 0.96811 0.0
C661 C 0.70017 0.87204 0.95208 0.0
C662 C 0.69454 0.81316 0.95346 0.0
C663 C 0.71995 0.81239 0.97641 0.0
N664 N 0.77168 0.83479 0.99137 0.0
N665 N 0.66075 0.84602 0.91789 0.0
C666 C 0.74151 0.83902 0.97855 0.0
C667 C 0.68506 0.84357 0.94016 0.0
N668 N 0.74693 0.89774 0.97525 0.0
N669 N 0.67828 0.78506 0.94688 0.0
H670 H 0.65424 0.86817 0.90755 0.0
H671 H 0.64876 0.82624 0.90784 0.0
H672 H 0.68606 0.76287 0.9564 0.0
H673 H 0.65767 0.78354 0.93245 0.0
H674 H 0.76733 0.89858 0.99005 0.0
H675 H 0.73928 0.92029 0.96654 0.0
H676 H 0.78907 0.85312 -0.00737 0.0
H677 H 0.7804 0.81183 -0.00259 0.0
C678 C 0.35014 0.50791 0.25158 0.0
C679 C 0.32355 0.51073 0.27321 0.0
C680 C 0.3527 0.55149 0.30468 0.0
C681 C 0.38125 0.54269 0.2878 0.0
N682 N 0.40503 0.52564 0.23799 0.0
N683 N 0.29435 0.54357 0.31087 0.0
C684 C 0.37886 0.52583 0.25824 0.0
C685 C 0.32305 0.53594 0.2963 0.0
N686 N 0.34894 0.48615 0.22678 0.0
N687 N 0.35461 0.57239 0.33014 0.0
H688 H 0.27274 0.53192 0.30447 0.0
H689 H 0.29144 0.56259 0.32706 0.0
H690 H 0.37561 0.58559 0.33514 0.0
H691 H 0.3356 0.57691 0.34607 0.0
H692 H 0.36886 0.48004 0.21259 0.0
H693 H 0.32777 0.4738 0.22055 0.0
H694 H 0.40494 0.51524 0.21507 0.0
H695 H 0.42614 0.53855 0.24363 0.0
C696 C 0.54941 0.30659 0.33965 0.0
C697 C 0.5368 0.29064 0.36746 0.0
C698 C 0.5113 0.2499 0.333 0.0
C699 C 0.51403 0.27214 0.30703 0.0
N700 N 0.54489 0.31402 0.28111 0.0
N701 N 0.51309 0.243 0.39148 0.0
C702 C 0.53716 0.29749 0.30879 0.0
C703 C 0.5209 0.2603 0.36429 0.0
N704 N 0.57116 0.33139 0.34314 0.0
N705 N 0.49878 0.21971 0.32772 0.0
H706 H 0.52119 0.25013 0.41434 0.0
H707 H 0.49835 0.22243 0.39149 0.0
H708 H 0.49346 0.21159 0.30444 0.0
H709 H 0.49713 0.20181 0.34552 0.0
H710 H 0.58129 0.34437 0.32397 0.0
H711 H 0.58076 0.33765 0.3656 0.0
H712 H 0.55997 0.33429 0.28009 0.0
H713 H 0.53588 0.30658 0.25868 0.0
C714 C 0.01935 0.23459 0.59582 0.0
C715 C 0.03867 0.20634 0.59543 0.0
C716 C 0.03248 0.20012 0.65367 0.0
C717 C 0.00633 0.22225 0.65213 0.0
N718 N 0.98112 0.26786 0.62588 0.0
N719 N 0.07708 0.17423 0.62513 0.0
C720 C 0.00254 0.24271 0.62474 0.0
C721 C 0.05011 0.1933 0.62494 0.0
N722 N 0.01602 0.25196 0.56781 0.0
N723 N 0.03856 0.18423 0.68209 0.0
H724 H 0.09121 0.17105 0.60443 0.0
H725 H 0.08738 0.16465 0.64605 0.0
H726 H 0.02637 0.19019 0.70344 0.0
H727 H 0.05493 0.16521 0.68446 0.0
H728 H 0.00234 0.273 0.5655 0.0
H729 H 0.02878 0.24557 0.54691 0.0
H730 H 0.97539 0.28263 0.60626 0.0
H731 H 0.96945 0.27448 0.64724 0.0
C732 C 0.96465 0.72222 0.87657 0.0
C733 C 0.94884 0.69169 0.87806 0.0
C734 C 0.95023 0.68769 0.81924 0.0
C735 C 0.97301 0.71345 0.81896 0.0
N736 N 0.98928 0.76409 0.84266 0.0
N737 N 0.91539 0.6521 0.85141 0.0
C738 C 0.97551 0.73411 0.84607 0.0
C739 C 0.93716 0.67707 0.84939 0.0
N740 N 0.9712 0.73819 0.90471 0.0
N741 N 0.94349 0.67229 0.79084 0.0
H742 H 0.90528 0.64473 0.8734 0.0
H743 H 0.90563 0.64019 0.83151 0.0
H744 H 0.95281 0.68086 0.76884 0.0
H745 H 0.92896 0.6517 0.78883 0.0
H746 H 0.98558 0.75893 0.90622 0.0
H747 H 0.96219 0.72985 0.92693 0.0
H748 H 0.99111 0.78087 0.86132 0.0
H749 H -0.00402 0.77335 0.82008 0.0
C750 C 0.45666 0.78602 0.16081 0.0
C751 C 0.48387 0.76518 0.16203 0.0
C752 C 0.47269 0.74694 0.10704 0.0
C753 C 0.45206 0.77399 0.10345 0.0
N754 N 0.41129 0.80641 0.12907 0.0
N755 N 0.51153 0.71832 0.141 0.0
C756 C 0.43926 0.78901 0.1313 0.0
C757 C 0.48918 0.74236 0.13695 0.0
N758 N 0.44918 0.80432 0.18724 0.0
N759 N 0.47771 0.72749 0.08088 0.0
H760 H 0.52302 0.71408 0.16306 0.0
H761 H 0.51811 0.70192 0.12314 0.0
H762 H 0.46521 0.73144 0.05921 0.0
H763 H 0.49266 0.70724 0.08075 0.0
H764 H 0.4319 0.82266 0.18721 0.0
H765 H 0.46113 0.80114 0.20932 0.0
H766 H 0.39994 0.81725 0.14875 0.0
H767 H 0.39761 0.80689 0.10784 0.0
C768 C 0.24365 0.36431 0.37763 0.0
C769 C 0.25116 0.33246 0.36711 0.0
C770 C 0.22596 0.34362 0.31461 0.0
C771 C 0.22561 0.37696 0.32255 0.0
N772 N 0.21947 0.41654 0.3644 0.0
N773 N 0.24835 0.29058 0.3266 0.0
C774 C 0.22976 0.38648 0.35518 0.0
C775 C 0.24145 0.32153 0.33606 0.0
N776 N 0.25081 0.37345 0.40864 0.0
N777 N 0.21009 0.33297 0.28768 0.0
H778 H 0.25893 0.27357 0.34204 0.0
H779 H 0.2454 0.28239 0.30296 0.0
H780 H 0.1955 0.34823 0.27381 0.0
H781 H 0.20777 0.30857 0.28165 0.0
H782 H 0.24887 0.39704 0.41722 0.0
H783 H 0.25964 0.35731 0.42604 0.0
H784 H 0.22008 0.42514 0.38802 0.0
H785 H 0.20743 0.432 0.34833 0.0
C786 C 0.9135 0.95968 0.48144 0.0
C787 C 0.88004 0.96678 0.47982 0.0
C788 C 0.8749 0.95975 0.53843 0.0
C789 C 0.90923 0.96062 0.54056 0.0
N790 N 0.96177 0.95835 0.51499 0.0
N791 N 0.82746 0.95871 0.50335 0.0
C792 C 0.92875 0.95899 0.51228 0.0
C793 C 0.86023 0.96174 0.50741 0.0
N794 N 0.9301 0.95224 0.45388 0.0
N795 N 0.8566 0.95876 0.56609 0.0
H796 H 0.81696 0.95884 0.48034 0.0
H797 H 0.81117 0.95335 0.52189 0.0
H798 H 0.86679 0.95627 0.58908 0.0
H799 H 0.83151 0.96126 0.56662 0.0
H800 H 0.95423 0.94485 0.45369 0.0
H801 H 0.91851 0.94962 0.43163 0.0
H802 H 0.97748 0.96118 0.4954 0.0
H803 H 0.97344 0.95641 0.53729 0.0
C804 C 0.25741 0.60774 0.84491 0.0
C805 C 0.26078 0.61751 0.81218 0.0
C806 C 0.24452 0.67264 0.82602 0.0
C807 C 0.23521 0.66119 0.85716 0.0
N808 N 0.23518 0.61913 0.89807 0.0
N809 N 0.27449 0.6618 0.77656 0.0
C810 C 0.24295 0.62923 0.86739 0.0
C811 C 0.25963 0.65087 0.80409 0.0
N812 N 0.26894 0.57808 0.85419 0.0
N813 N 0.23775 0.70384 0.81708 0.0
H814 H 0.2888 0.64676 0.76227 0.0
H815 H 0.27623 0.68621 0.77016 0.0
H816 H 0.22775 0.72056 0.83306 0.0
H817 H 0.24042 0.71264 0.79356 0.0
H818 H 0.26947 0.5698 0.87802 0.0
H819 H 0.28109 0.563 0.83797 0.0
H820 H 0.23695 0.59521 0.90602 0.0
H821 H 0.22544 0.63455 0.91549 0.0
C822 C 0.55709 0.01545 0.03053 0.0
C823 C 0.57357 0.0119 0.06042 0.0
C824 C 0.62576 0.01027 0.03216 0.0
C825 C 0.60875 0.00979 0.00226 0.0
N826 N 0.5618 0.02992 0.97387 0.0
N827 N 0.62334 0.01453 0.09093 0.0
C828 C 0.57544 0.01803 0.00156 0.0
C829 C 0.60797 0.01212 0.06165 0.0
N830 N 0.52395 0.01531 0.02971 0.0
N831 N 0.65889 0.0091 0.03195 0.0
H832 H 0.61083 0.01615 0.11285 0.0
H833 H 0.6483 0.01672 0.0938 0.0
H834 H 0.67227 0.01206 0.01064 0.0
H835 H 0.67319 0.00571 0.0524 0.0
H836 H 0.51069 0.01395 0.00829 0.0
H837 H 0.5097 0.01431 0.05057 0.0
H838 H 0.53798 0.03816 0.97264 0.0
H839 H 0.57557 0.03605 0.95357 0.0
C840 C 0.73349 0.16903 0.66347 0.0
C841 C 0.74175 0.15867 0.63178 0.0
C842 C 0.72077 0.10441 0.64401 0.0
C843 C 0.71872 0.11316 0.67705 0.0
N844 N 0.70573 0.1562 0.71389 0.0
N845 N 0.74112 0.11757 0.59035 0.0
C846 C 0.71967 0.14633 0.68562 0.0
C847 C 0.73415 0.12678 0.62137 0.0
N848 N 0.73994 0.20018 0.67261 0.0
N849 N 0.7088 0.075 0.63451 0.0
H850 H 0.75013 0.13363 0.57288 0.0
H851 H 0.73956 0.09376 0.58222 0.0
H852 H 0.69708 0.05939 0.65079 0.0
H853 H 0.70726 0.06758 0.61052 0.0
H854 H 0.73823 0.20831 0.69637 0.0
H855 H 0.74866 0.21758 0.65639 0.0
H856 H 0.70395 0.18039 0.7208 0.0
H857 H 0.69204 0.14048 0.72835 0.0
C858 C 0.08105 0.44617 -0.00179 0.0
C859 C 0.11441 0.45434 -0.00247 0.0
C860 C 0.11429 0.45306 0.9383 0.0
C861 C 0.07989 0.45211 0.93918 0.0
N862 N 0.03 0.4456 0.96903 0.0
N863 N 0.16468 0.44961 0.96869 0.0
C864 C 0.06309 0.44743 0.96886 0.0
C865 C 0.13169 0.45258 0.96794 0.0
N866 N 0.06712 0.43563 0.02637 0.0
N867 N 0.13008 0.45599 0.90926 0.0
H868 H 0.17727 0.44735 0.99052 0.0
H869 H 0.17908 0.44609 0.94831 0.0
H870 H 0.11804 0.45537 0.88706 0.0
H871 H 0.15485 0.46038 0.90698 0.0
H872 H 0.04322 0.42754 0.0281 0.0
H873 H 0.08081 0.43077 0.04702 0.0
H874 H 0.01603 0.44632 0.99003 0.0
H875 H 0.01642 0.44502 0.94778 0.0
C876 C 0.75458 0.89155 0.132 0.0
C877 C 0.76091 0.88419 0.16495 0.0
C878 C 0.75042 0.82668 0.15496 0.0
C879 C 0.73895 0.83484 0.12358 0.0
N880 N 0.73214 0.87404 0.08057 0.0
N881 N 0.78175 0.84363 0.20155 0.0
C882 C 0.74204 0.86697 0.11142 0.0
C883 C 0.764 0.85135 0.17473 0.0
N884 N 0.76237 0.92167 0.1203 0.0
N885 N 0.74712 0.79565 0.16632 0.0
H886 H 0.79581 0.86074 0.21369 0.0
H887 H 0.78654 0.8199 0.20881 0.0
H888 H 0.73835 0.77678 0.15205 0.0
H889 H 0.75103 0.78907 0.19037 0.0
H890 H 0.76055 0.92848 0.09608 0.0
H891 H 0.7742 0.93891 0.13455 0.0
H892 H 0.7302 0.89749 0.07136 0.0
H893 H 0.72442 0.85633 0.0643 0.0
C894 C 0.3602 0.52419 0.45999 0.0
C895 C 0.37708 0.52369 0.48984 0.0
C896 C 0.42882 0.52929 0.46143 0.0
C897 C 0.41239 0.52415 0.43172 0.0
N898 N 0.36256 0.51916 0.40148 0.0
N899 N 0.42413 0.54353 0.51812 0.0
C900 C 0.378 0.52281 0.43056 0.0
C901 C 0.4105 0.53169 0.49047 0.0
N902 N 0.32723 0.52757 0.46017 0.0
N903 N 0.46194 0.53057 0.462 0.0
H904 H 0.41024 0.54966 0.53827 0.0
H905 H 0.44803 0.55166 0.51958 0.0
H906 H 0.47596 0.52989 0.441 0.0
H907 H 0.47551 0.53019 0.48325 0.0
H908 H 0.31316 0.53032 0.43945 0.0
H909 H 0.31431 0.53119 0.48162 0.0
H910 H 0.33786 0.51443 0.39915 0.0
H911 H 0.37478 0.51937 0.37933 0.0
C912 C 0.35724 0.24013 0.38763 0.0
C913 C 0.32473 0.23209 0.3797 0.0
C914 C 0.3352 0.24457 0.32272 0.0
C915 C 0.36609 0.25713 0.33139 0.0
N916 N 0.40815 0.26521 0.37117 0.0
N917 N 0.28983 0.21036 0.33828 0.0
C918 C 0.37777 0.2541 0.36358 0.0
C919 C 0.31565 0.22934 0.34676 0.0
N920 N 0.36868 0.23251 0.41776 0.0
N921 N 0.32401 0.24837 0.29181 0.0
H922 H 0.27808 0.1952 0.35484 0.0
H923 H 0.28327 0.20577 0.3144 0.0
H924 H 0.33796 0.25871 0.27338 0.0
H925 H 0.30015 0.2435 0.28503 0.0
H926 H 0.39264 0.2356 0.42502 0.0
H927 H 0.35464 0.21964 0.43456 0.0
H928 H 0.4169 0.26713 0.39469 0.0
H929 H 0.42447 0.274 0.35386 0.0
C930 C 0.024 -0.00415 0.57181 0.0
C931 C 0.01247 -0.00396 0.60414 0.0
C932 C 0.01333 0.05552 0.60431 0.0
C933 C 0.01865 0.05509 0.57038 0.0
N934 N 0.0299 0.02564 0.52137 0.0
N935 N 0.01138 0.02471 0.65459 0.0
C936 C 0.02473 0.02549 0.55405 0.0
C937 C 0.01184 0.02562 0.6215 0.0
N938 N 0.03621 0.96801 0.55889 0.0
N939 N 0.00866 0.08443 0.61977 0.0
H940 H 0.0128 0.00288 0.66745 0.0
H941 H 0.01316 0.04511 0.66924 0.0
H942 H 0.01113 0.10687 0.6082 0.0
H943 H 0.0009 0.08635 0.64367 0.0
H944 H 0.04683 0.96681 0.53605 0.0
H945 H 0.04004 0.94718 0.57271 0.0
H946 H 0.0302 0.00473 0.50732 0.0
H947 H 0.03194 0.04701 0.50792 0.0
C948 C 0.17446 0.76589 0.84284 0.0
C949 C 0.16598 0.76462 0.87603 0.0
C950 C 0.11098 0.74682 0.86211 0.0
C951 C 0.12179 0.74135 0.82997 0.0
N952 N 0.1628 0.74684 0.78859 0.0
N953 N 0.12333 0.76884 0.91529 0.0
C954 C 0.1531 0.75173 0.81983 0.0
C955 C 0.13313 0.75984 0.88502 0.0
N956 N 0.20177 0.78213 0.83325 0.0
N957 N 0.08002 0.7384 0.87086 0.0
H958 H 0.13914 0.78025 0.93141 0.0
H959 H 0.09942 0.76804 0.92336 0.0
H960 H 0.06282 0.73005 0.85432 0.0
H961 H 0.07148 0.73848 0.89457 0.0
H962 H 0.2083 0.78559 0.80911 0.0
H963 H 0.21548 0.79603 0.84924 0.0
H964 H 0.18658 0.75011 0.78065 0.0
H965 H 0.14727 0.73765 0.77094 0.0
C966 C 0.46977 0.94969 0.13005 0.0
C967 C 0.46612 0.97958 0.11334 0.0
C968 C 0.46047 0.95089 0.06203 0.0
C969 C 0.46913 0.92161 0.07796 0.0
N970 N 0.48009 0.89178 0.12716 0.0
N971 N 0.44064 0.00581 0.06783 0.0
C972 C 0.47287 0.92052 0.11211 0.0
C973 C 0.45617 0.97949 0.08055 0.0
N974 N 0.46828 0.94935 0.16312 0.0
N975 N 0.45767 0.95167 0.02907 0.0
H976 H 0.43313 0.02515 0.08214 0.0
H977 H 0.43094 0.00641 0.04457 0.0
H978 H 0.46006 0.93104 0.0148 0.0
H979 H 0.45541 0.97306 0.01574 0.0
H980 H 0.4686 0.92836 0.17722 0.0
H981 H 0.46301 0.97022 0.17633 0.0
H982 H 0.48673 0.88984 0.15138 0.0
H983 H 0.48097 0.86967 0.11498 0.0
C984 C 0.83829 0.26923 0.60223 0.0
C985 C 0.80571 0.26865 0.61304 0.0
C986 C 0.82308 0.25259 0.66719 0.0
C987 C 0.85456 0.24672 0.65455 0.0
N988 N 0.89417 0.25341 0.61198 0.0
N989 N 0.7705 0.27767 0.65847 0.0
C990 C 0.863 0.25699 0.62279 0.0
C991 C 0.79901 0.26603 0.6465 0.0
N992 N 0.84505 0.28178 0.57228 0.0
N993 N 0.81593 0.24399 0.69837 0.0
H994 H 0.75414 0.29036 0.644 0.0
H995 H 0.76493 0.2783 0.68306 0.0
H996 H 0.83349 0.23537 0.71437 0.0
H997 H 0.79253 0.24401 0.70789 0.0
H998 H 0.86832 0.28478 0.56294 0.0
H999 H 0.82691 0.29192 0.55782 0.0
H1000 H 0.90147 0.25741 0.58818 0.0
H1001 H 0.91296 0.24541 0.62688 0.0
C1002 C 0.96123 0.48208 0.91526 0.0
C1003 C 0.96747 0.48114 0.88159 0.0
C1004 C 0.96022 0.53996 0.87764 0.0
C1005 C 0.96161 0.54144 0.9119 0.0
N1006 N 0.96057 0.51481 0.96394 0.0
N1007 N 0.95848 0.50582 0.82972 0.0
C1008 C 0.96062 0.51271 0.93095 0.0
C1009 C 0.96213 0.50919 0.86242 0.0
N1010 N 0.95444 0.45409 0.93175 0.0
N1011 N 0.95874 0.56805 0.85991 0.0
H1012 H 0.95832 0.48302 0.81878 0.0
H1013 H 0.95284 0.5247 0.81394 0.0
H1014 H 0.95605 0.59081 0.87054 0.0
H1015 H 0.96096 0.56917 0.83484 0.0
H1016 H 0.94774 0.4534 0.95606 0.0
H1017 H 0.95146 0.43193 0.9201 0.0
H1018 H 0.96414 0.49502 0.97927 0.0
H1019 H 0.95833 0.53688 0.97594 0.0
C1020 C 0.6648 0.74328 0.1732 0.0
C1021 C 0.6331 0.74974 0.16151 0.0
C1022 C 0.64667 0.72466 0.10973 0.0
C1023 C 0.67959 0.72399 0.11937 0.0
N1024 N 0.71583 0.71549 0.1642 0.0
N1025 N 0.59212 0.74401 0.12022 0.0
C1026 C 0.68756 0.72796 0.15243 0.0
C1027 C 0.62331 0.73907 0.13039 0.0
N1028 N 0.67344 0.75299 0.20357 0.0
N1029 N 0.63804 0.71051 0.08113 0.0
H1030 H 0.57411 0.7535 0.13518 0.0
H1031 H 0.5842 0.74004 0.09666 0.0
H1032 H 0.65492 0.69823 0.06687 0.0
H1033 H 0.61425 0.70799 0.07313 0.0
H1034 H 0.69719 0.75265 0.2121 0.0
H1035 H 0.6569 0.76312 0.21969 0.0
H1036 H 0.72221 0.7159 0.18858 0.0
H1037 H 0.73084 0.70081 0.15025 0.0
C1038 C 0.52976 0.49729 0.40779 0.0
C1039 C 0.52368 0.49951 0.37417 0.0
C1040 C 0.52608 0.44037 0.36948 0.0
C1041 C 0.52445 0.43826 0.40373 0.0
N1042 N 0.5267 0.46377 0.45611 0.0
N1043 N 0.53076 0.47536 0.32199 0.0
C1044 C 0.52749 0.46643 0.42314 0.0
C1045 C 0.52672 0.47154 0.35463 0.0
N1046 N 0.53921 0.52418 0.42452 0.0
N1047 N 0.52556 0.41264 0.35138 0.0
H1048 H 0.53295 0.49834 0.31139 0.0
H1049 H 0.53475 0.45645 0.30591 0.0
H1050 H 0.5263 0.38948 0.3617 0.0
H1051 H 0.52356 0.41224 0.32629 0.0
H1052 H 0.54592 0.5237 0.44881 0.0
H1053 H 0.5445 0.54611 0.41298 0.0
H1054 H 0.52467 0.48359 0.47152 0.0
H1055 H 0.52632 0.44141 0.46804 0.0
C1056 C 0.38097 0.34936 0.22576 0.0
C1057 C 0.37102 0.31662 0.22243 0.0
C1058 C 0.31666 0.3303 0.24142 0.0
C1059 C 0.32845 0.36138 0.25046 0.0
N1060 N 0.37054 0.40225 0.24912 0.0
N1061 N 0.32603 0.28144 0.21021 0.0
C1062 C 0.36012 0.37166 0.2415 0.0
C1063 C 0.33772 0.30861 0.22503 0.0
N1064 N 0.4099 0.359 0.21262 0.0
N1065 N 0.28583 0.32117 0.24959 0.0
H1066 H 0.34031 0.2676 0.19471 0.0
H1067 H 0.30155 0.27516 0.20957 0.0
H1068 H 0.26951 0.33699 0.26047 0.0
H1069 H 0.27706 0.29756 0.24732 0.0
H1070 H 0.41807 0.38292 0.21202 0.0
H1071 H 0.42421 0.34316 0.19911 0.0
H1072 H 0.39442 0.41014 0.24651 0.0
H1073 H 0.35549 0.4196 0.2596 0.0
C1074 C 0.86241 0.11451 0.7336 0.0
C1075 C 0.82952 0.1242 0.73141 0.0
C1076 C 0.84305 0.17664 0.75595 0.0
C1077 C 0.87636 0.16921 0.75223 0.0
N1078 N 0.91671 0.12739 0.7526 0.0
N1079 N 0.78764 0.16371 0.741 0.0
C1080 C 0.88572 0.13683 0.74569 0.0
C1081 C 0.81948 0.1549 0.74319 0.0
N1082 N 0.87142 0.08438 0.72316 0.0
N1083 N 0.83396 0.20313 0.77344 0.0
H1084 H 0.76961 0.14788 0.73301 0.0
H1085 H 0.77939 0.18718 0.74516 0.0
H1086 H 0.85051 0.21687 0.78665 0.0
H1087 H 0.80995 0.20878 0.77873 0.0
H1088 H 0.89541 0.07708 0.72053 0.0
H1089 H 0.85476 0.06687 0.71557 0.0
H1090 H 0.92501 0.10366 0.75071 0.0
H1091 H 0.93328 0.14299 0.76372 0.0
C1092 C 3e-05 0.56725 0.02499 0.0
C1093 C 0.00077 0.60013 0.01489 0.0
C1094 C 0.0601 0.59895 0.01233 0.0
C1095 C 0.05871 0.56472 0.01602 0.0
N1096 N 0.0282 0.51573 0.02652 0.0
N1097 N 0.03096 0.65004 0.01439 0.0
C1098 C 0.02895 0.54872 0.02301 0.0
C1099 C 0.03081 0.61689 0.01332 0.0
N1100 N 0.97251 0.55448 0.03844 0.0
N1101 N 0.08928 0.61403 0.00693 0.0
H1102 H 0.00966 0.66328 0.01764 0.0
H1103 H 0.05187 0.66422 0.01557 0.0
H1104 H 0.1114 0.60181 0.00742 0.0
H1105 H 0.09171 0.63836 0.00049 0.0
H1106 H 0.97108 0.53115 0.04813 0.0
H1107 H 0.9525 0.56871 0.04417 0.0
H1108 H 0.00683 0.50222 0.02771 0.0
H1109 H 0.04911 0.50159 0.02612 0.0
C1110 C 0.62411 0.88147 0.23915 0.0
C1111 C 0.6567 0.8719 0.23366 0.0
C1112 C 0.64616 0.81984 0.26061 0.0
C1113 C 0.61255 0.82664 0.25944 0.0
N1114 N 0.57127 0.86739 0.26175 0.0
N1115 N 0.69963 0.83269 0.23951 0.0
C1116 C 0.60208 0.85876 0.25313 0.0
C1117 C 0.66816 0.84147 0.24498 0.0
N1118 N 0.61423 0.91187 0.2301 0.0
N1119 N 0.65713 0.79394 0.2781 0.0
H1120 H 0.71658 0.84824 0.22879 0.0
H1121 H 0.70837 0.80935 0.24361 0.0
H1122 H 0.6419 0.78021 0.293 0.0
H1123 H 0.68163 0.78891 0.28152 0.0
H1124 H 0.59023 0.91955 0.23037 0.0
H1125 H 0.63016 0.92957 0.22127 0.0
H1126 H 0.56192 0.89069 0.25959 0.0
H1127 H 0.55584 0.85137 0.27406 0.0
C1128 C 0.45665 0.42843 0.51875 0.0
C1129 C 0.42658 0.4127 0.51276 0.0
C1130 C 0.45442 0.36073 0.5066 0.0
C1131 C 0.48454 0.37746 0.50758 0.0
N1132 N 0.51351 0.4221 0.53187 0.0
N1133 N 0.39563 0.36377 0.50368 0.0
C1134 C 0.4856 0.40984 0.51893 0.0
C1135 C 0.42506 0.37866 0.5079 0.0
N1136 N 0.4577 0.46131 0.52281 0.0
N1137 N 0.45429 0.32756 0.50624 0.0
H1138 H 0.37359 0.37584 0.50636 0.0
H1139 H 0.39282 0.33982 0.49633 0.0
H1140 H 0.47565 0.31416 0.50815 0.0
H1141 H 0.43345 0.3133 0.50755 0.0
H1142 H 0.47919 0.47469 0.52298 0.0
H1143 H 0.4369 0.47557 0.52379 0.0
H1144 H 0.5151 0.44495 0.5424 0.0
H1145 H 0.53369 0.40772 0.53657 0.0
C1146 C 0.12416 0.62119 0.73629 0.0
C1147 C 0.15606 0.6318 0.74373 0.0
C1148 C 0.14366 0.68602 0.72249 0.0
C1149 C 0.11047 0.67714 0.72173 0.0
N1150 N 0.072 0.63443 0.71229 0.0
N1151 N 0.19759 0.67307 0.74206 0.0
C1152 C 0.10167 0.64393 0.72362 0.0
C1153 C 0.16641 0.66376 0.73577 0.0
N1154 N 0.11511 0.58983 0.74273 0.0
N1155 N 0.15355 0.71466 0.70891 0.0
H1156 H 0.2151 0.65679 0.75017 0.0
H1157 H 0.20569 0.69701 0.74074 0.0
H1158 H 0.1379 0.7293 0.69556 0.0
H1159 H 0.17774 0.72179 0.70703 0.0
H1160 H 0.09134 0.58137 0.74129 0.0
H1161 H 0.13135 0.57228 0.75097 0.0
H1162 H 0.06439 0.61039 0.71073 0.0
H1163 H 0.05619 0.65083 0.70123 0.0
C1164 C 0.52128 0.85154 0.96254 0.0
C1165 C 0.49227 0.86958 0.96548 0.0
C1166 C 0.5227 0.92033 0.96108 0.0
C1167 C 0.55186 0.90244 0.96444 0.0
N1168 N 0.58021 0.85136 0.96446 0.0
N1169 N 0.46501 0.91861 0.94948 0.0
C1170 C 0.55159 0.86804 0.96333 0.0
C1171 C 0.49271 0.90333 0.95908 0.0
N1172 N 0.51932 0.81875 0.95816 0.0
N1173 N 0.52362 0.95346 0.96127 0.0
H1174 H 0.44383 0.90583 0.94414 0.0
H1175 H 0.46415 0.94292 0.9426 0.0
H1176 H 0.54533 0.96653 0.96136 0.0
H1177 H 0.50302 0.96789 0.96303 0.0
H1178 H 0.53917 0.80384 0.95394 0.0
H1179 H 0.49701 0.80693 0.95566 0.0
H1180 H 0.5818 0.82631 0.96717 0.0
H1181 H 0.60283 0.86283 0.96374 0.0
C1182 C 0.94365 0.11148 0.45538 0.0
C1183 C 0.943 0.07707 0.45565 0.0
C1184 C 0.00231 0.07575 0.45183 0.0
C1185 C 0.00285 0.1093 0.45875 0.0
N1186 N 0.97646 0.16049 0.45103 0.0
N1187 N 0.97079 0.02592 0.45164 0.0
C1188 C 0.97411 0.12767 0.45526 0.0
C1189 C 0.97209 0.05901 0.45259 0.0
N1190 N 0.91525 0.12849 0.45693 0.0
N1191 N 0.03022 0.06048 0.44287 0.0
H1192 H 0.9489 0.01326 0.45061 0.0
H1193 H 0.99111 0.01111 0.45343 0.0
H1194 H 0.05168 0.07323 0.43846 0.0
H1195 H 0.03119 0.03632 0.43571 0.0
H1196 H 0.91404 0.15345 0.46039 0.0
H1197 H 0.89248 0.11735 0.45621 0.0
H1198 H 0.95684 0.17553 0.44615 0.0
H1199 H -0.00106 0.17215 0.44913 0.0
loop_
_geom_bond_atom_site_label_1
_geom_bond_atom_site_label_2
_geom_bond_distance
_geom_bond_site_symmetry_2
_ccdc_geom_bond_type
Co0 O1 2.216 . S
Co0 O2 2.091 . S
Co0 O4 2.004 . S
Co0 O10 2.021 . S
Co0 O12 2.137 . S
Co0 O13 2.244 . S
O1 Co0 2.216 . S
O1 C8 1.247 . S
O2 Co0 2.091 . S
O2 C8 1.261 . S
C3 O12 1.247 . S
C3 O13 1.272 . S
O4 Co0 2.004 . S
O4 C9 1.259 . S
Co5 O6 2.061 . S
Co5 O11 2.052 . S
Co5 O13 2.135 . S
O6 Co5 2.061 . S
O6 C9 1.235 . S
C7 O10 1.238 . S
C7 O11 1.241 . S
C8 O1 1.247 . S
C8 O2 1.261 . S
C9 O4 1.259 . S
C9 O6 1.235 . S
O10 Co0 2.021 . S
O10 C7 1.238 . S
O11 Co5 2.052 . S
O11 C7 1.241 . S
O12 Co0 2.137 . S
O12 C3 1.247 . S
O13 Co0 2.244 . S
O13 C3 1.272 . S
O13 Co5 2.135 . S
Co14 O15 2.216 . S
Co14 O16 2.091 . S
Co14 O18 2.004 . S
Co14 O24 2.021 . S
Co14 O26 2.137 . S
Co14 O27 2.244 . S
O15 Co14 2.216 . S
O15 C22 1.247 . S
O16 Co14 2.091 . S
O16 C22 1.261 . S
C17 O26 1.247 . S
C17 O27 1.272 . S
O18 Co14 2.004 . S
O18 C23 1.259 . S
Co19 O20 2.061 1_545 S
Co19 O25 2.052 1_545 S
Co19 O27 2.135 1_545 S
O20 Co19 2.061 1_565 S
O20 C23 1.235 . S
C21 O24 1.238 . S
C21 O25 1.241 . S
C22 O15 1.247 . S
C22 O16 1.261 . S
C23 O18 1.259 . S
C23 O20 1.235 . S
O24 Co14 2.021 . S
O24 C21 1.238 . S
O25 Co19 2.052 1_565 S
O25 C21 1.241 . S
O26 Co14 2.137 . S
O26 C17 1.247 . S
O27 Co14 2.244 . S
O27 C17 1.272 . S
O27 Co19 2.135 1_565 S
Co28 O29 2.216 . S
Co28 O30 2.091 . S
Co28 O32 2.004 . S
Co28 O38 2.021 . S
Co28 O40 2.137 . S
Co28 O41 2.244 . S
O29 Co28 2.216 . S
O29 C36 1.247 . S
O30 Co28 2.091 . S
O30 C36 1.261 . S
C31 O40 1.247 . S
C31 O41 1.272 . S
O32 Co28 2.004 . S
O32 C37 1.259 . S
Co33 O34 2.061 . S
Co33 O39 2.052 . S
Co33 O41 2.135 . S
O34 Co33 2.061 . S
O34 C37 1.235 . S
C35 O38 1.238 . S
C35 O39 1.241 . S
C36 O29 1.247 . S
C36 O30 1.261 . S
C37 O32 1.259 . S
C37 O34 1.235 . S
O38 Co28 2.021 . S
O38 C35 1.238 . S
O39 Co33 2.052 . S
O39 C35 1.241 . S
O40 Co28 2.137 . S
O40 C31 1.247 . S
O41 Co28 2.244 . S
O41 C31 1.272 . S
O41 Co33 2.135 . S
Co42 O43 2.216 . S
Co42 O44 2.091 . S
Co42 O46 2.004 . S
Co42 O52 2.021 . S
Co42 O54 2.137 . S
Co42 O55 2.244 . S
O43 Co42 2.216 . S
O43 C50 1.247 . S
O44 Co42 2.091 . S
O44 C50 1.261 . S
C45 O54 1.247 . S
C45 O55 1.272 . S
O46 Co42 2.004 . S
O46 C51 1.259 . S
Co47 O48 2.061 1_565 S
Co47 O53 2.052 1_565 S
Co47 O55 2.135 1_565 S
O48 Co47 2.061 1_545 S
O48 C51 1.235 . S
C49 O52 1.238 . S
C49 O53 1.241 . S
C50 O43 1.247 . S
C50 O44 1.261 . S
C51 O46 1.259 . S
C51 O48 1.235 . S
O52 Co42 2.021 . S
O52 C49 1.238 . S
O53 Co47 2.052 1_545 S
O53 C49 1.241 . S
O54 Co42 2.137 . S
O54 C45 1.247 . S
O55 Co42 2.244 . S
O55 C45 1.272 . S
O55 Co47 2.135 1_545 S
Co56 O57 2.216 . S
Co56 O58 2.091 . S
Co56 O60 2.004 . S
Co56 O66 2.021 . S
Co56 O68 2.137 . S
Co56 O69 2.244 . S
O57 Co56 2.216 . S
O57 C64 1.247 . S
O58 Co56 2.091 . S
O58 C64 1.261 . S
C59 O68 1.247 . S
C59 O69 1.272 . S
O60 Co56 2.004 . S
O60 C65 1.259 . S
Co61 O62 2.061 . S
Co61 O67 2.052 . S
Co61 O69 2.135 . S
O62 Co61 2.061 . S
O62 C65 1.235 . S
C63 O66 1.238 . S
C63 O67 1.241 . S
C64 O57 1.247 . S
C64 O58 1.261 . S
C65 O60 1.259 . S
C65 O62 1.235 . S
O66 Co56 2.021 . S
O66 C63 1.238 . S
O67 Co61 2.052 . S
O67 C63 1.241 . S
O68 Co56 2.137 . S
O68 C59 1.247 . S
O69 Co56 2.244 . S
O69 C59 1.272 . S
O69 Co61 2.135 . S
Co70 O71 2.216 . S
Co70 O72 2.091 . S
Co70 O74 2.004 . S
Co70 O80 2.021 . S
Co70 O82 2.137 . S
Co70 O83 2.244 . S
O71 Co70 2.216 . S
O71 C78 1.247 . S
O72 Co70 2.091 . S
O72 C78 1.261 . S
C73 O82 1.247 . S
C73 O83 1.272 . S
O74 Co70 2.004 . S
O74 C79 1.259 . S
Co75 O76 2.061 . S
Co75 O81 2.052 . S
Co75 O83 2.135 . S
O76 Co75 2.061 . S
O76 C79 1.235 . S
C77 O80 1.238 . S
C77 O81 1.241 . S
C78 O71 1.247 . S
C78 O72 1.261 . S
C79 O74 1.259 . S
C79 O76 1.235 . S
O80 Co70 2.021 . S
O80 C77 1.238 . S
O81 Co75 2.052 . S
O81 C77 1.241 . S
O82 Co70 2.137 . S
O82 C73 1.247 . S
O83 Co70 2.244 . S
O83 C73 1.272 . S
O83 Co75 2.135 . S
Co84 O85 2.216 . S
Co84 O86 2.091 . S
Co84 O88 2.004 . S
Co84 O94 2.021 . S
Co84 O96 2.137 . S
Co84 O97 2.244 . S
O85 Co84 2.216 . S
O85 C92 1.247 . S
O86 Co84 2.091 . S
O86 C92 1.261 . S
C87 O96 1.247 . S
C87 O97 1.272 . S
O88 Co84 2.004 . S
O88 C93 1.259 . S
Co89 O90 2.061 . S
Co89 O95 2.052 . S
Co89 O97 2.135 . S
O90 Co89 2.061 . S
O90 C93 1.235 . S
C91 O94 1.238 . S
C91 O95 1.241 . S
C92 O85 1.247 . S
C92 O86 1.261 . S
C93 O88 1.259 . S
C93 O90 1.235 . S
O94 Co84 2.021 . S
O94 C91 1.238 . S
O95 Co89 2.052 . S
O95 C91 1.241 . S
O96 Co84 2.137 . S
O96 C87 1.247 . S
O97 Co84 2.244 . S
O97 C87 1.272 . S
O97 Co89 2.135 . S
Co98 O99 2.216 . S
Co98 O100 2.091 . S
Co98 O102 2.004 . S
Co98 O108 2.021 . S
Co98 O110 2.137 . S
Co98 O111 2.244 . S
O99 Co98 2.216 . S
O99 C106 1.247 . S
O100 Co98 2.091 . S
O100 C106 1.261 . S
C101 O110 1.247 . S
C101 O111 1.272 . S
O102 Co98 2.004 . S
O102 C107 1.259 . S
Co103 O104 2.061 . S
Co103 O109 2.052 . S
Co103 O111 2.135 . S
O104 Co103 2.061 . S
O104 C107 1.235 . S
C105 O108 1.238 . S
C105 O109 1.241 . S
C106 O99 1.247 . S
C106 O100 1.261 . S
C107 O102 1.259 . S
C107 O104 1.235 . S
O108 Co98 2.021 . S
O108 C105 1.238 . S
O109 Co103 2.052 . S
O109 C105 1.241 . S
O110 Co98 2.137 . S
O110 C101 1.247 . S
O111 Co98 2.244 . S
O111 C101 1.272 . S
O111 Co103 2.135 . S
Co112 O113 2.216 . S
Co112 O114 2.091 . S
Co112 O116 2.004 . S
Co112 O122 2.021 . S
Co112 O124 2.137 . S
Co112 O125 2.244 . S
O113 Co112 2.216 . S
O113 C120 1.247 . S
O114 Co112 2.091 . S
O114 C120 1.261 . S
C115 O124 1.247 . S
C115 O125 1.272 . S
O116 Co112 2.004 . S
O116 C121 1.259 . S
Co117 O118 2.061 . S
Co117 O123 2.052 . S
Co117 O125 2.135 . S
O118 Co117 2.061 . S
O118 C121 1.235 . S
C119 O122 1.238 . S
C119 O123 1.241 . S
C120 O113 1.247 . S
C120 O114 1.261 . S
C121 O116 1.259 . S
C121 O118 1.235 . S
O122 Co112 2.021 . S
O122 C119 1.238 . S
O123 Co117 2.052 . S
O123 C119 1.241 . S
O124 Co112 2.137 . S
O124 C115 1.247 . S
O125 Co112 2.244 . S
O125 C115 1.272 . S
O125 Co117 2.135 . S
Co126 O127 2.216 . S
Co126 O128 2.091 . S
Co126 O130 2.004 . S
Co126 O136 2.021 . S
Co126 O138 2.137 . S
Co126 O139 2.244 . S
O127 Co126 2.216 . S
O127 C134 1.247 . S
O128 Co126 2.091 . S
O128 C134 1.261 . S
C129 O138 1.247 . S
C129 O139 1.272 . S
O130 Co126 2.004 . S
O130 C135 1.259 . S
Co131 O132 2.061 1_655 S
Co131 O137 2.052 1_655 S
Co131 O139 2.135 1_655 S
O132 Co131 2.061 1_455 S
O132 C135 1.235 . S
C133 O136 1.238 . S
C133 O137 1.241 . S
C134 O127 1.247 . S
C134 O128 1.261 . S
C135 O130 1.259 . S
C135 O132 1.235 . S
O136 Co126 2.021 . S
O136 C133 1.238 . S
O137 Co131 2.052 1_455 S
O137 C133 1.241 . S
O138 Co126 2.137 . S
O138 C129 1.247 . S
O139 Co126 2.244 . S
O139 C129 1.272 . S
O139 Co131 2.135 1_455 S
Co140 O141 2.216 . S
Co140 O142 2.091 . S
Co140 O144 2.004 . S
Co140 O150 2.021 . S
Co140 O152 2.137 . S
Co140 O153 2.244 . S
O141 Co140 2.216 . S
O141 C148 1.247 . S
O142 Co140 2.091 . S
O142 C148 1.261 . S
C143 O152 1.247 . S
C143 O153 1.272 . S
O144 Co140 2.004 . S
O144 C149 1.259 . S
Co145 O146 2.061 . S
Co145 O151 2.052 . S
Co145 O153 2.135 . S
O146 Co145 2.061 . S
O146 C149 1.235 . S
C147 O150 1.238 . S
C147 O151 1.241 . S
C148 O141 1.247 . S
C148 O142 1.261 . S
C149 O144 1.259 . S
C149 O146 1.235 . S
O150 Co140 2.021 . S
O150 C147 1.238 . S
O151 Co145 2.052 . S
O151 C147 1.241 . S
O152 Co140 2.137 . S
O152 C143 1.247 . S
O153 Co140 2.244 . S
O153 C143 1.272 . S
O153 Co145 2.135 . S
Co154 O155 2.216 . S
Co154 O156 2.091 . S
Co154 O158 2.004 . S
Co154 O164 2.021 . S
Co154 O166 2.137 . S
Co154 O167 2.244 . S
O155 Co154 2.216 . S
O155 C162 1.247 . S
O156 Co154 2.091 . S
O156 C162 1.261 . S
C157 O166 1.247 . S
C157 O167 1.272 . S
O158 Co154 2.004 . S
O158 C163 1.259 . S
Co159 O160 2.061 . S
Co159 O165 2.052 . S
Co159 O167 2.135 . S
O160 Co159 2.061 . S
O160 C163 1.235 . S
C161 O164 1.238 . S
C161 O165 1.241 . S
C162 O155 1.247 . S
C162 O156 1.261 . S
C163 O158 1.259 . S
C163 O160 1.235 . S
O164 Co154 2.021 . S
O164 C161 1.238 . S
O165 Co159 2.052 . S
O165 C161 1.241 . S
O166 Co154 2.137 . S
O166 C157 1.247 . S
O167 Co154 2.244 . S
O167 C157 1.272 . S
O167 Co159 2.135 . S
Co168 O169 2.216 . S
Co168 O170 2.091 . S
Co168 O172 2.004 . S
Co168 O178 2.021 . S
Co168 O180 2.137 . S
Co168 O181 2.244 . S
O169 Co168 2.216 . S
O169 C176 1.247 . S
O170 Co168 2.091 . S
O170 C176 1.261 . S
C171 O180 1.247 . S
C171 O181 1.272 . S
O172 Co168 2.004 . S
O172 C177 1.259 . S
Co173 O174 2.061 . S
Co173 O179 2.052 . S
Co173 O181 2.135 . S
O174 Co173 2.061 . S
O174 C177 1.235 . S
C175 O178 1.238 . S
C175 O179 1.241 . S
C176 O169 1.247 . S
C176 O170 1.261 . S
C177 O172 1.259 . S
C177 O174 1.235 . S
O178 Co168 2.021 . S
O178 C175 1.238 . S
O179 Co173 2.052 . S
O179 C175 1.241 . S
O180 Co168 2.137 . S
O180 C171 1.247 . S
O181 Co168 2.244 . S
O181 C171 1.272 . S
O181 Co173 2.135 . S
Co182 O183 2.216 . S
Co182 O184 2.091 . S
Co182 O186 2.004 . S
Co182 O192 2.021 . S
Co182 O194 2.137 . S
Co182 O195 2.244 . S
O183 Co182 2.216 . S
O183 C190 1.247 . S
O184 Co182 2.091 . S
O184 C190 1.261 . S
C185 O194 1.247 . S
C185 O195 1.272 . S
O186 Co182 2.004 . S
O186 C191 1.259 . S
Co187 O188 2.061 1_455 S
Co187 O193 2.052 1_455 S
Co187 O195 2.135 1_455 S
O188 Co187 2.061 1_655 S
O188 C191 1.235 . S
C189 O192 1.238 . S
C189 O193 1.241 . S
C190 O183 1.247 . S
C190 O184 1.261 . S
C191 O186 1.259 . S
C191 O188 1.235 . S
O192 Co182 2.021 . S
O192 C189 1.238 . S
O193 Co187 2.052 1_655 S
O193 C189 1.241 . S
O194 Co182 2.137 . S
O194 C185 1.247 . S
O195 Co182 2.244 . S
O195 C185 1.272 . S
O195 Co187 2.135 1_655 S
Co196 O197 2.216 . S
Co196 O198 2.091 . S
Co196 O200 2.004 . S
Co196 O206 2.021 . S
Co196 O208 2.137 . S
Co196 O209 2.244 . S
O197 Co196 2.216 . S
O197 C204 1.247 . S
O198 Co196 2.091 . S
O198 C204 1.261 . S
C199 O208 1.247 . S
C199 O209 1.272 . S
O200 Co196 2.004 . S
O200 C205 1.259 . S
Co201 O202 2.061 . S
Co201 O207 2.052 . S
Co201 O209 2.135 . S
O202 Co201 2.061 . S
O202 C205 1.235 . S
C203 O206 1.238 . S
C203 O207 1.241 . S
C204 O197 1.247 . S
C204 O198 1.261 . S
C205 O200 1.259 . S
C205 O202 1.235 . S
O206 Co196 2.021 . S
O206 C203 1.238 . S
O207 Co201 2.052 . S
O207 C203 1.241 . S
O208 Co196 2.137 . S
O208 C199 1.247 . S
O209 Co196 2.244 . S
O209 C199 1.272 . S
O209 Co201 2.135 . S
Co210 O211 2.216 . S
Co210 O212 2.091 . S
Co210 O214 2.004 . S
Co210 O220 2.021 . S
Co210 O222 2.137 . S
Co210 O223 2.244 . S
O211 Co210 2.216 . S
O211 C218 1.247 . S
O212 Co210 2.091 . S
O212 C218 1.261 . S
C213 O222 1.247 . S
C213 O223 1.272 . S
O214 Co210 2.004 . S
O214 C219 1.259 . S
Co215 O216 2.061 . S
Co215 O221 2.052 . S
Co215 O223 2.135 . S
O216 Co215 2.061 . S
O216 C219 1.235 . S
C217 O220 1.238 . S
C217 O221 1.241 . S
C218 O211 1.247 . S
C218 O212 1.261 . S
C219 O214 1.259 . S
C219 O216 1.235 . S
O220 Co210 2.021 . S
O220 C217 1.238 . S
O221 Co215 2.052 . S
O221 C217 1.241 . S
O222 Co210 2.137 . S
O222 C213 1.247 . S
O223 Co210 2.244 . S
O223 C213 1.272 . S
O223 Co215 2.135 . S
Co224 O225 2.216 . S
Co224 O226 2.091 . S
Co224 O228 2.004 . S
Co224 O234 2.021 . S
Co224 O236 2.137 . S
Co224 O237 2.244 . S
O225 Co224 2.216 . S
O225 C232 1.247 . S
O226 Co224 2.091 . S
O226 C232 1.261 . S
C227 O236 1.247 . S
C227 O237 1.272 . S
O228 Co224 2.004 . S
O228 C233 1.259 . S
Co229 O230 2.061 . S
Co229 O235 2.052 . S
Co229 O237 2.135 . S
O230 Co229 2.061 . S
O230 C233 1.235 . S
C231 O234 1.238 . S
C231 O235 1.241 . S
C232 O225 1.247 . S
C232 O226 1.261 . S
C233 O228 1.259 . S
C233 O230 1.235 . S
O234 Co224 2.021 . S
O234 C231 1.238 . S
O235 Co229 2.052 . S
O235 C231 1.241 . S
O236 Co224 2.137 . S
O236 C227 1.247 . S
O237 Co224 2.244 . S
O237 C227 1.272 . S
O237 Co229 2.135 . S
Co238 O239 2.216 . S
Co238 O240 2.091 . S
Co238 O242 2.004 . S
Co238 O248 2.021 . S
Co238 O250 2.137 . S
Co238 O251 2.244 . S
O239 Co238 2.216 . S
O239 C246 1.247 . S
O240 Co238 2.091 . S
O240 C246 1.261 . S
C241 O250 1.247 . S
C241 O251 1.272 . S
O242 Co238 2.004 . S
O242 C247 1.259 . S
Co243 O244 2.061 . S
Co243 O249 2.052 . S
Co243 O251 2.135 . S
O244 Co243 2.061 . S
O244 C247 1.235 . S
C245 O248 1.238 . S
C245 O249 1.241 . S
C246 O239 1.247 . S
C246 O240 1.261 . S
C247 O242 1.259 . S
C247 O244 1.235 . S
O248 Co238 2.021 . S
O248 C245 1.238 . S
O249 Co243 2.052 . S
O249 C245 1.241 . S
O250 Co238 2.137 . S
O250 C241 1.247 . S
O251 Co238 2.244 . S
O251 C241 1.272 . S
O251 Co243 2.135 . S
Co252 O253 2.216 . S
Co252 O254 2.091 . S
Co252 O256 2.004 . S
Co252 O262 2.021 . S
Co252 O264 2.137 . S
Co252 O265 2.244 . S
O253 Co252 2.216 . S
O253 C260 1.247 . S
O254 Co252 2.091 . S
O254 C260 1.261 . S
C255 O264 1.247 . S
C255 O265 1.272 . S
O256 Co252 2.004 . S
O256 C261 1.259 . S
Co257 O258 2.061 1_556 S
Co257 O263 2.052 1_556 S
Co257 O265 2.135 1_556 S
O258 Co257 2.061 1_554 S
O258 C261 1.235 . S
C259 O262 1.238 . S
C259 O263 1.241 . S
C260 O253 1.247 . S
C260 O254 1.261 . S
C261 O256 1.259 . S
C261 O258 1.235 . S
O262 Co252 2.021 . S
O262 C259 1.238 . S
O263 Co257 2.052 1_554 S
O263 C259 1.241 . S
O264 Co252 2.137 . S
O264 C255 1.247 . S
O265 Co252 2.244 . S
O265 C255 1.272 . S
O265 Co257 2.135 1_554 S
Co266 O267 2.216 . S
Co266 O268 2.091 . S
Co266 O270 2.004 . S
Co266 O276 2.021 . S
Co266 O278 2.137 . S
Co266 O279 2.244 . S
O267 Co266 2.216 . S
O267 C274 1.247 . S
O268 Co266 2.091 . S
O268 C274 1.261 . S
C269 O278 1.247 . S
C269 O279 1.272 . S
O270 Co266 2.004 . S
O270 C275 1.259 . S
Co271 O272 2.061 . S
Co271 O277 2.052 . S
Co271 O279 2.135 . S
O272 Co271 2.061 . S
O272 C275 1.235 . S
C273 O276 1.238 . S
C273 O277 1.241 . S
C274 O267 1.247 . S
C274 O268 1.261 . S
C275 O270 1.259 . S
C275 O272 1.235 . S
O276 Co266 2.021 . S
O276 C273 1.238 . S
O277 Co271 2.052 . S
O277 C273 1.241 . S
O278 Co266 2.137 . S
O278 C269 1.247 . S
O279 Co266 2.244 . S
O279 C269 1.272 . S
O279 Co271 2.135 . S
Co280 O281 2.216 . S
Co280 O282 2.091 . S
Co280 O284 2.004 . S
Co280 O290 2.021 . S
Co280 O292 2.137 . S
Co280 O293 2.244 . S
O281 Co280 2.216 . S
O281 C288 1.247 . S
O282 Co280 2.091 . S
O282 C288 1.261 . S
C283 O292 1.247 . S
C283 O293 1.272 . S
O284 Co280 2.004 . S
O284 C289 1.259 . S
Co285 O286 2.061 . S
Co285 O291 2.052 . S
Co285 O293 2.135 . S
O286 Co285 2.061 . S
O286 C289 1.235 . S
C287 O290 1.238 . S
C287 O291 1.241 . S
C288 O281 1.247 . S
C288 O282 1.261 . S
C289 O284 1.259 . S
C289 O286 1.235 . S
O290 Co280 2.021 . S
O290 C287 1.238 . S
O291 Co285 2.052 . S
O291 C287 1.241 . S
O292 Co280 2.137 . S
O292 C283 1.247 . S
O293 Co280 2.244 . S
O293 C283 1.272 . S
O293 Co285 2.135 . S
Co294 O295 2.216 . S
Co294 O296 2.091 . S
Co294 O298 2.004 . S
Co294 O304 2.021 . S
Co294 O306 2.137 . S
Co294 O307 2.244 . S
O295 Co294 2.216 . S
O295 C302 1.247 . S
O296 Co294 2.091 . S
O296 C302 1.261 . S
C297 O306 1.247 . S
C297 O307 1.272 . S
O298 Co294 2.004 . S
O298 C303 1.259 . S
Co299 O300 2.061 . S
Co299 O305 2.052 . S
Co299 O307 2.135 . S
O300 Co299 2.061 . S
O300 C303 1.235 . S
C301 O304 1.238 . S
C301 O305 1.241 . S
C302 O295 1.247 . S
C302 O296 1.261 . S
C303 O298 1.259 . S
C303 O300 1.235 . S
O304 Co294 2.021 . S
O304 C301 1.238 . S
O305 Co299 2.052 . S
O305 C301 1.241 . S
O306 Co294 2.137 . S
O306 C297 1.247 . S
O307 Co294 2.244 . S
O307 C297 1.272 . S
O307 Co299 2.135 . S
Co308 O309 2.216 . S
Co308 O310 2.091 . S
Co308 O312 2.004 . S
Co308 O318 2.021 . S
Co308 O320 2.137 . S
Co308 O321 2.244 . S
O309 Co308 2.216 . S
O309 C316 1.247 . S
O310 Co308 2.091 . S
O310 C316 1.261 . S
C311 O320 1.247 . S
C311 O321 1.272 . S
O312 Co308 2.004 . S
O312 C317 1.259 . S
Co313 O314 2.061 1_554 S
Co313 O319 2.052 1_554 S
Co313 O321 2.135 1_554 S
O314 Co313 2.061 1_556 S
O314 C317 1.235 . S
C315 O318 1.238 . S
C315 O319 1.241 . S
C316 O309 1.247 . S
C316 O310 1.261 . S
C317 O312 1.259 . S
C317 O314 1.235 . S
O318 Co308 2.021 . S
O318 C315 1.238 . S
O319 Co313 2.052 1_556 S
O319 C315 1.241 . S
O320 Co308 2.137 . S
O320 C311 1.247 . S
O321 Co308 2.244 . S
O321 C311 1.272 . S
O321 Co313 2.135 1_556 S
Co322 O323 2.216 . S
Co322 O324 2.091 . S
Co322 O326 2.004 . S
Co322 O332 2.021 . S
Co322 O334 2.137 . S
Co322 O335 2.244 . S
O323 Co322 2.216 . S
O323 C330 1.247 . S
O324 Co322 2.091 . S
O324 C330 1.261 . S
C325 O334 1.247 . S
C325 O335 1.272 . S
O326 Co322 2.004 . S
O326 C331 1.259 . S
Co327 O328 2.061 . S
Co327 O333 2.052 . S
Co327 O335 2.135 . S
O328 Co327 2.061 . S
O328 C331 1.235 . S
C329 O332 1.238 . S
C329 O333 1.241 . S
C330 O323 1.247 . S
C330 O324 1.261 . S
C331 O326 1.259 . S
C331 O328 1.235 . S
O332 Co322 2.021 . S
O332 C329 1.238 . S
O333 Co327 2.052 . S
O333 C329 1.241 . S
O334 Co322 2.137 . S
O334 C325 1.247 . S
O335 Co322 2.244 . S
O335 C325 1.272 . S
O335 Co327 2.135 . S
C336 C337 1.363 . S
C336 C342 1.379 . S
C336 N344 1.356 . S
C337 C336 1.363 . S
C337 C343 1.363 . S
C338 C339 1.363 . S
C338 C343 1.379 . S
C338 N345 1.356 . S
C339 C338 1.363 . S
C339 C342 1.363 . S
N340 C342 1.356 . S
N340 H352 0.984 . S
N340 H353 0.985 . S
N341 C343 1.356 . S
N341 H346 0.984 . S
N341 H347 0.985 . S
C342 C336 1.379 . S
C342 C339 1.363 . S
C342 N340 1.356 . S
C343 C337 1.363 . S
C343 C338 1.379 . S
C343 N341 1.356 . S
N344 C336 1.356 . S
N344 H350 0.984 . S
N344 H351 0.984 . S
N345 C338 1.356 . S
N345 H348 0.984 . S
N345 H349 0.985 . S
H346 N341 0.984 . S
H347 N341 0.985 . S
H348 N345 0.984 . S
H349 N345 0.985 . S
H350 N344 0.984 . S
H351 N344 0.984 . S
H352 N340 0.984 . S
H353 N340 0.985 . S
C354 C355 1.363 . S
C354 C360 1.379 . S
C354 N362 1.356 1_455 S
C355 C354 1.363 . S
C355 C361 1.363 . S
C356 C357 1.363 . S
C356 C361 1.379 . S
C356 N363 1.356 . S
C357 C356 1.363 . S
C357 C360 1.363 . S
N358 C360 1.356 . S
N358 H370 0.984 . S
N358 H371 0.985 . S
N359 C361 1.356 . S
N359 H364 0.984 1_455 S
N359 H365 0.985 . S
C360 C354 1.379 . S
C360 C357 1.363 . S
C360 N358 1.356 . S
C361 C355 1.363 . S
C361 C356 1.379 . S
C361 N359 1.356 . S
N362 C354 1.356 1_655 S
N362 H368 0.984 . S
N362 H369 0.984 . S
N363 C356 1.356 . S
N363 H366 0.984 . S
N363 H367 0.985 . S
H364 N359 0.984 1_655 S
H365 N359 0.985 . S
H366 N363 0.984 . S
H367 N363 0.985 . S
H368 N362 0.984 . S
H369 N362 0.984 . S
H370 N358 0.984 . S
H371 N358 0.985 . S
C372 C373 1.363 . S
C372 C378 1.379 1_556 S
C372 N380 1.356 . S
C373 C372 1.363 . S
C373 C379 1.363 . S
C374 C375 1.363 . S
C374 C379 1.379 . S
C374 N381 1.356 . S
C375 C374 1.363 . S
C375 C378 1.363 1_556 S
N376 C378 1.356 . S
N376 H388 0.984 . S
N376 H389 0.985 . S
N377 C379 1.356 . S
N377 H382 0.984 . S
N377 H383 0.985 . S
C378 C372 1.379 1_554 S
C378 C375 1.363 1_554 S
C378 N376 1.356 . S
C379 C373 1.363 . S
C379 C374 1.379 . S
C379 N377 1.356 . S
N380 C372 1.356 . S
N380 H386 0.984 1_556 S
N380 H387 0.984 . S
N381 C374 1.356 . S
N381 H384 0.984 . S
N381 H385 0.985 . S
H382 N377 0.984 . S
H383 N377 0.985 . S
H384 N381 0.984 . S
H385 N381 0.985 . S
H386 N380 0.984 1_554 S
H387 N380 0.984 . S
H388 N376 0.984 . S
H389 N376 0.985 . S
C390 C391 1.363 . S
C390 C396 1.379 . S
C390 N398 1.356 . S
C391 C390 1.363 . S
C391 C397 1.363 . S
C392 C393 1.363 . S
C392 C397 1.379 . S
C392 N399 1.356 . S
C393 C392 1.363 . S
C393 C396 1.363 . S
N394 C396 1.356 . S
N394 H406 0.984 . S
N394 H407 0.985 . S
N395 C397 1.356 . S
N395 H400 0.984 . S
N395 H401 0.985 . S
C396 C390 1.379 . S
C396 C393 1.363 . S
C396 N394 1.356 . S
C397 C391 1.363 . S
C397 C392 1.379 . S
C397 N395 1.356 . S
N398 C390 1.356 . S
N398 H404 0.984 . S
N398 H405 0.984 . S
N399 C392 1.356 . S
N399 H402 0.984 . S
N399 H403 0.985 . S
H400 N395 0.984 . S
H401 N395 0.985 . S
H402 N399 0.984 . S
H403 N399 0.985 . S
H404 N398 0.984 . S
H405 N398 0.984 . S
H406 N394 0.984 . S
H407 N394 0.985 . S
C408 C409 1.363 . S
C408 C414 1.379 . S
C408 N416 1.356 . S
C409 C408 1.363 . S
C409 C415 1.363 . S
C410 C411 1.363 . S
C410 C415 1.379 . S
C410 N417 1.356 . S
C411 C410 1.363 . S
C411 C414 1.363 . S
N412 C414 1.356 . S
N412 H424 0.984 . S
N412 H425 0.985 . S
N413 C415 1.356 . S
N413 H418 0.984 . S
N413 H419 0.985 . S
C414 C408 1.379 . S
C414 C411 1.363 . S
C414 N412 1.356 . S
C415 C409 1.363 . S
C415 C410 1.379 . S
C415 N413 1.356 . S
N416 C408 1.356 . S
N416 H422 0.984 . S
N416 H423 0.984 . S
N417 C410 1.356 . S
N417 H420 0.984 . S
N417 H421 0.985 . S
H418 N413 0.984 . S
H419 N413 0.985 . S
H420 N417 0.984 . S
H421 N417 0.985 . S
H422 N416 0.984 . S
H423 N416 0.984 . S
H424 N412 0.984 . S
H425 N412 0.985 . S
C426 C427 1.363 . S
C426 C432 1.379 . S
C426 N434 1.356 . S
C427 C426 1.363 . S
C427 C433 1.363 . S
C428 C429 1.363 . S
C428 C433 1.379 . S
C428 N435 1.356 1_655 S
C429 C428 1.363 . S
C429 C432 1.363 . S
N430 C432 1.356 . S
N430 H442 0.984 . S
N430 H443 0.985 1_655 S
N431 C433 1.356 . S
N431 H436 0.984 . S
N431 H437 0.985 . S
C432 C426 1.379 . S
C432 C429 1.363 . S
C432 N430 1.356 . S
C433 C427 1.363 . S
C433 C428 1.379 . S
C433 N431 1.356 . S
N434 C426 1.356 . S
N434 H440 0.984 . S
N434 H441 0.984 . S
N435 C428 1.356 1_455 S
N435 H438 0.984 . S
N435 H439 0.985 . S
H436 N431 0.984 . S
H437 N431 0.985 . S
H438 N435 0.984 . S
H439 N435 0.985 . S
H440 N434 0.984 . S
H441 N434 0.984 . S
H442 N430 0.984 . S
H443 N430 0.985 1_455 S
C444 C445 1.363 . S
C444 C450 1.379 . S
C444 N452 1.356 . S
C445 C444 1.363 . S
C445 C451 1.363 . S
C446 C447 1.363 . S
C446 C451 1.379 . S
C446 N453 1.356 . S
C447 C446 1.363 . S
C447 C450 1.363 . S
N448 C450 1.356 1_556 S
N448 H460 0.984 . S
N448 H461 0.985 . S
N449 C451 1.356 . S
N449 H454 0.984 . S
N449 H455 0.985 . S
C450 C444 1.379 . S
C450 C447 1.363 . S
C450 N448 1.356 1_554 S
C451 C445 1.363 . S
C451 C446 1.379 . S
C451 N449 1.356 . S
N452 C444 1.356 . S
N452 H458 0.984 . S
N452 H459 0.984 . S
N453 C446 1.356 . S
N453 H456 0.984 1_554 S
N453 H457 0.985 . S
H454 N449 0.984 . S
H455 N449 0.985 . S
H456 N453 0.984 1_556 S
H457 N453 0.985 . S
H458 N452 0.984 . S
H459 N452 0.984 . S
H460 N448 0.984 . S
H461 N448 0.985 . S
C462 C463 1.363 . S
C462 C468 1.379 . S
C462 N470 1.356 . S
C463 C462 1.363 . S
C463 C469 1.363 . S
C464 C465 1.363 . S
C464 C469 1.379 . S
C464 N471 1.356 . S
C465 C464 1.363 . S
C465 C468 1.363 . S
N466 C468 1.356 . S
N466 H478 0.984 . S
N466 H479 0.985 . S
N467 C469 1.356 . S
N467 H472 0.984 . S
N467 H473 0.985 . S
C468 C462 1.379 . S
C468 C465 1.363 . S
C468 N466 1.356 . S
C469 C463 1.363 . S
C469 C464 1.379 . S
C469 N467 1.356 . S
N470 C462 1.356 . S
N470 H476 0.984 . S
N470 H477 0.984 . S
N471 C464 1.356 . S
N471 H474 0.984 . S
N471 H475 0.985 . S
H472 N467 0.984 . S
H473 N467 0.985 . S
H474 N471 0.984 . S
H475 N471 0.985 . S
H476 N470 0.984 . S
H477 N470 0.984 . S
H478 N466 0.984 . S
H479 N466 0.985 . S
C480 C481 1.363 . S
C480 C486 1.379 . S
C480 N488 1.356 . S
C481 C480 1.363 . S
C481 C487 1.363 . S
C482 C483 1.363 . S
C482 C487 1.379 . S
C482 N489 1.356 . S
C483 C482 1.363 . S
C483 C486 1.363 . S
N484 C486 1.356 . S
N484 H496 0.984 . S
N484 H497 0.985 . S
N485 C487 1.356 . S
N485 H490 0.984 . S
N485 H491 0.985 . S
C486 C480 1.379 . S
C486 C483 1.363 . S
C486 N484 1.356 . S
C487 C481 1.363 . S
C487 C482 1.379 . S
C487 N485 1.356 . S
N488 C480 1.356 . S
N488 H494 0.984 . S
N488 H495 0.984 . S
N489 C482 1.356 . S
N489 H492 0.984 . S
N489 H493 0.985 . S
H490 N485 0.984 . S
H491 N485 0.985 . S
H492 N489 0.984 . S
H493 N489 0.985 . S
H494 N488 0.984 . S
H495 N488 0.984 . S
H496 N484 0.984 . S
H497 N484 0.985 . S
C498 C499 1.363 . S
C498 C504 1.379 . S
C498 N506 1.356 1_545 S
C499 C498 1.363 . S
C499 C505 1.363 . S
C500 C501 1.363 . S
C500 C505 1.379 . S
C500 N507 1.356 . S
C501 C500 1.363 . S
C501 C504 1.363 . S
N502 C504 1.356 . S
N502 H514 0.984 . S
N502 H515 0.985 . S
N503 C505 1.356 . S
N503 H508 0.984 1_545 S
N503 H509 0.985 . S
C504 C498 1.379 . S
C504 C501 1.363 . S
C504 N502 1.356 . S
C505 C499 1.363 . S
C505 C500 1.379 . S
C505 N503 1.356 . S
N506 C498 1.356 1_565 S
N506 H512 0.984 . S
N506 H513 0.984 . S
N507 C500 1.356 . S
N507 H510 0.984 . S
N507 H511 0.985 . S
H508 N503 0.984 1_565 S
H509 N503 0.985 . S
H510 N507 0.984 . S
H511 N507 0.985 . S
H512 N506 0.984 . S
H513 N506 0.984 . S
H514 N502 0.984 . S
H515 N502 0.985 . S
C516 C517 1.363 . S
C516 C522 1.379 . S
C516 N524 1.356 . S
C517 C516 1.363 . S
C517 C523 1.363 . S
C518 C519 1.363 . S
C518 C523 1.379 . S
C518 N525 1.356 1_565 S
C519 C518 1.363 . S
C519 C522 1.363 . S
N520 C522 1.356 . S
N520 H532 0.984 . S
N520 H533 0.985 1_565 S
N521 C523 1.356 . S
N521 H526 0.984 . S
N521 H527 0.985 . S
C522 C516 1.379 . S
C522 C519 1.363 . S
C522 N520 1.356 . S
C523 C517 1.363 . S
C523 C518 1.379 . S
C523 N521 1.356 . S
N524 C516 1.356 . S
N524 H530 0.984 . S
N524 H531 0.984 . S
N525 C518 1.356 1_545 S
N525 H528 0.984 . S
N525 H529 0.985 . S
H526 N521 0.984 . S
H527 N521 0.985 . S
H528 N525 0.984 . S
H529 N525 0.985 . S
H530 N524 0.984 . S
H531 N524 0.984 . S
H532 N520 0.984 . S
H533 N520 0.985 1_545 S
C534 C535 1.363 . S
C534 C540 1.379 . S
C534 N542 1.356 . S
C535 C534 1.363 . S
C535 C541 1.363 . S
C536 C537 1.363 . S
C536 C541 1.379 . S
C536 N543 1.356 . S
C537 C536 1.363 . S
C537 C540 1.363 . S
N538 C540 1.356 . S
N538 H550 0.984 . S
N538 H551 0.985 . S
N539 C541 1.356 . S
N539 H544 0.984 . S
N539 H545 0.985 . S
C540 C534 1.379 . S
C540 C537 1.363 . S
C540 N538 1.356 . S
C541 C535 1.363 . S
C541 C536 1.379 . S
C541 N539 1.356 . S
N542 C534 1.356 . S
N542 H548 0.984 . S
N542 H549 0.984 . S
N543 C536 1.356 . S
N543 H546 0.984 . S
N543 H547 0.985 . S
H544 N539 0.984 . S
H545 N539 0.985 . S
H546 N543 0.984 . S
H547 N543 0.985 . S
H548 N542 0.984 . S
H549 N542 0.984 . S
H550 N538 0.984 . S
H551 N538 0.985 . S
C552 C553 1.363 . S
C552 C558 1.379 . S
C552 N560 1.356 . S
C553 C552 1.363 . S
C553 C559 1.363 . S
C554 C555 1.363 . S
C554 C559 1.379 . S
C554 N561 1.356 . S
C555 C554 1.363 . S
C555 C558 1.363 . S
N556 C558 1.356 . S
N556 H568 0.984 . S
N556 H569 0.985 . S
N557 C559 1.356 . S
N557 H562 0.984 . S
N557 H563 0.985 . S
C558 C552 1.379 . S
C558 C555 1.363 . S
C558 N556 1.356 . S
C559 C553 1.363 . S
C559 C554 1.379 . S
C559 N557 1.356 . S
N560 C552 1.356 . S
N560 H566 0.984 . S
N560 H567 0.984 . S
N561 C554 1.356 . S
N561 H564 0.984 . S
N561 H565 0.985 . S
H562 N557 0.984 . S
H563 N557 0.985 . S
H564 N561 0.984 . S
H565 N561 0.985 . S
H566 N560 0.984 . S
H567 N560 0.984 . S
H568 N556 0.984 . S
H569 N556 0.985 . S
C570 C571 1.363 . S
C570 C576 1.379 1_565 S
C570 N578 1.356 . S
C571 C570 1.363 . S
C571 C577 1.360 1_565 S
C572 C573 1.363 . S
C572 C577 1.383 . S
C572 N579 1.356 . S
C573 C572 1.363 . S
C573 C576 1.363 . S
N574 C576 1.356 . S
N574 H586 0.984 . S
N574 H587 0.985 . S
N575 C577 1.354 1_565 S
N575 H580 0.984 . S
N575 H581 0.985 . S
C576 C570 1.379 1_545 S
C576 C573 1.363 . S
C576 N574 1.356 . S
C577 C571 1.360 1_545 S
C577 C572 1.383 . S
C577 N575 1.354 1_545 S
N578 C570 1.356 . S
N578 H584 0.984 . S
N578 H585 0.984 . S
N579 C572 1.356 . S
N579 H582 0.984 . S
N579 H583 0.985 . S
H580 N575 0.984 . S
H581 N575 0.985 . S
H582 N579 0.984 . S
H583 N579 0.985 . S
H584 N578 0.984 . S
H585 N578 0.984 . S
H586 N574 0.984 . S
H587 N574 0.985 . S
C588 C589 1.363 1_554 S
C588 C594 1.379 . S
C588 N596 1.357 . S
C589 C588 1.363 1_556 S
C589 C595 1.363 . S
C590 C591 1.363 1_556 S
C590 C595 1.379 . S
C590 N597 1.356 . S
C591 C590 1.363 1_554 S
C591 C594 1.363 . S
N592 C594 1.356 . S
N592 H604 0.984 . S
N592 H605 0.985 . S
N593 C595 1.356 . S
N593 H598 0.984 . S
N593 H599 0.985 . S
C594 C588 1.379 . S
C594 C591 1.363 . S
C594 N592 1.356 . S
C595 C589 1.363 . S
C595 C590 1.379 . S
C595 N593 1.356 . S
N596 C588 1.357 . S
N596 H602 1.015 . S
N596 H603 0.954 1_554 S
N597 C590 1.356 . S
N597 H600 0.984 1_556 S
N597 H601 0.985 . S
H598 N593 0.984 . S
H599 N593 0.985 . S
H600 N597 0.984 1_554 S
H601 N597 0.985 . S
H602 N596 1.015 . S
H603 N596 0.954 1_556 S
H604 N592 0.984 . S
H605 N592 0.985 . S
C606 C607 1.363 . S
C606 C612 1.379 . S
C606 N614 1.356 . S
C607 C606 1.363 . S
C607 C613 1.363 1_545 S
C608 C609 1.363 . S
C608 C613 1.379 . S
C608 N615 1.356 . S
C609 C608 1.363 . S
C609 C612 1.363 1_565 S
N610 C612 1.356 . S
N610 H622 0.984 . S
N610 H623 0.985 1_545 S
N611 C613 1.356 . S
N611 H616 0.984 1_565 S
N611 H617 0.985 . S
C612 C606 1.379 . S
C612 C609 1.363 1_545 S
C612 N610 1.356 . S
C613 C607 1.363 1_565 S
C613 C608 1.379 . S
C613 N611 1.356 . S
N614 C606 1.356 . S
N614 H620 0.984 . S
N614 H621 0.984 . S
N615 C608 1.356 . S
N615 H618 0.984 . S
N615 H619 0.985 . S
H616 N611 0.984 1_545 S
H617 N611 0.985 . S
H618 N615 0.984 . S
H619 N615 0.985 . S
H620 N614 0.984 . S
H621 N614 0.984 . S
H622 N610 0.984 . S
H623 N610 0.985 1_565 S
C624 C625 1.363 . S
C624 C630 1.379 . S
C624 N632 1.356 . S
C625 C624 1.363 . S
C625 C631 1.363 . S
C626 C627 1.363 . S
C626 C631 1.379 . S
C626 N633 1.356 . S
C627 C626 1.363 . S
C627 C630 1.363 . S
N628 C630 1.356 . S
N628 H640 0.984 . S
N628 H641 0.985 . S
N629 C631 1.356 . S
N629 H634 0.984 . S
N629 H635 0.985 . S
C630 C624 1.379 . S
C630 C627 1.363 . S
C630 N628 1.356 . S
C631 C625 1.363 . S
C631 C626 1.379 . S
C631 N629 1.356 . S
N632 C624 1.356 . S
N632 H638 0.984 . S
N632 H639 0.984 . S
N633 C626 1.356 . S
N633 H636 0.984 . S
N633 H637 0.985 . S
H634 N629 0.984 . S
H635 N629 0.985 . S
H636 N633 0.984 . S
H637 N633 0.985 . S
H638 N632 0.984 . S
H639 N632 0.984 . S
H640 N628 0.984 . S
H641 N628 0.985 . S
C642 C643 1.363 . S
C642 C648 1.379 . S
C642 N650 1.356 . S
C643 C642 1.363 . S
C643 C649 1.363 . S
C644 C645 1.363 . S
C644 C649 1.379 . S
C644 N651 1.356 . S
C645 C644 1.363 . S
C645 C648 1.363 . S
N646 C648 1.356 . S
N646 H658 0.984 . S
N646 H659 0.985 . S
N647 C649 1.356 . S
N647 H652 0.984 . S
N647 H653 0.985 . S
C648 C642 1.379 . S
C648 C645 1.363 . S
C648 N646 1.356 . S
C649 C643 1.363 . S
C649 C644 1.379 . S
C649 N647 1.356 . S
N650 C642 1.356 . S
N650 H656 0.984 . S
N650 H657 0.984 . S
N651 C644 1.356 . S
N651 H654 0.984 . S
N651 H655 0.985 . S
H652 N647 0.984 . S
H653 N647 0.985 . S
H654 N651 0.984 . S
H655 N651 0.985 . S
H656 N650 0.984 . S
H657 N650 0.984 . S
H658 N646 0.984 . S
H659 N646 0.985 . S
C660 C661 1.363 . S
C660 C666 1.379 1_556 S
C660 N668 1.356 . S
C661 C660 1.363 . S
C661 C667 1.363 1_556 S
C662 C663 1.363 . S
C662 C667 1.379 . S
C662 N669 1.356 . S
C663 C662 1.363 . S
C663 C666 1.363 . S
N664 C666 1.356 . S
N664 H676 0.984 . S
N664 H677 0.985 . S
N665 C667 1.356 1_556 S
N665 H670 0.984 . S
N665 H671 0.985 1_556 S
C666 C660 1.379 1_554 S
C666 C663 1.363 . S
C666 N664 1.356 . S
C667 C661 1.363 1_554 S
C667 C662 1.379 . S
C667 N665 1.356 1_554 S
N668 C660 1.356 . S
N668 H674 0.984 . S
N668 H675 0.984 . S
N669 C662 1.356 . S
N669 H672 0.984 . S
N669 H673 0.985 . S
H670 N665 0.984 . S
H671 N665 0.985 1_554 S
H672 N669 0.984 . S
H673 N669 0.985 . S
H674 N668 0.984 . S
H675 N668 0.984 . S
H676 N664 0.984 . S
H677 N664 0.985 . S
C678 C679 1.363 . S
C678 C684 1.379 . S
C678 N686 1.356 . S
C679 C678 1.363 . S
C679 C685 1.363 . S
C680 C681 1.363 . S
C680 C685 1.379 . S
C680 N687 1.356 . S
C681 C680 1.363 . S
C681 C684 1.363 . S
N682 C684 1.356 . S
N682 H694 0.984 . S
N682 H695 0.985 . S
N683 C685 1.356 . S
N683 H688 0.984 . S
N683 H689 0.985 . S
C684 C678 1.379 . S
C684 C681 1.363 . S
C684 N682 1.356 . S
C685 C679 1.363 . S
C685 C680 1.379 . S
C685 N683 1.356 . S
N686 C678 1.356 . S
N686 H692 0.984 . S
N686 H693 0.984 . S
N687 C680 1.356 . S
N687 H690 0.984 . S
N687 H691 0.985 . S
H688 N683 0.984 . S
H689 N683 0.985 . S
H690 N687 0.984 . S
H691 N687 0.985 . S
H692 N686 0.984 . S
H693 N686 0.984 . S
H694 N682 0.984 . S
H695 N682 0.985 . S
C696 C697 1.363 . S
C696 C702 1.379 . S
C696 N704 1.356 . S
C697 C696 1.363 . S
C697 C703 1.363 . S
C698 C699 1.363 . S
C698 C703 1.379 . S
C698 N705 1.356 . S
C699 C698 1.363 . S
C699 C702 1.363 . S
N700 C702 1.356 . S
N700 H712 0.984 . S
N700 H713 0.985 . S
N701 C703 1.356 . S
N701 H706 0.984 . S
N701 H707 0.985 . S
C702 C696 1.379 . S
C702 C699 1.363 . S
C702 N700 1.356 . S
C703 C697 1.363 . S
C703 C698 1.379 . S
C703 N701 1.356 . S
N704 C696 1.356 . S
N704 H710 0.984 . S
N704 H711 0.984 . S
N705 C698 1.356 . S
N705 H708 0.984 . S
N705 H709 0.985 . S
H706 N701 0.984 . S
H707 N701 0.985 . S
H708 N705 0.984 . S
H709 N705 0.985 . S
H710 N704 0.984 . S
H711 N704 0.984 . S
H712 N700 0.984 . S
H713 N700 0.985 . S
C714 C715 1.363 . S
C714 C720 1.379 1_455 S
C714 N722 1.356 . S
C715 C714 1.363 . S
C715 C721 1.363 1_455 S
C716 C717 1.363 . S
C716 C721 1.379 . S
C716 N723 1.356 . S
C717 C716 1.363 . S
C717 C720 1.363 . S
N718 C720 1.356 . S
N718 H730 0.984 1_655 S
N718 H731 0.985 . S
N719 C721 1.356 . S
N719 H724 0.984 1_655 S
N719 H725 0.985 . S
C720 C714 1.379 1_655 S
C720 C717 1.363 . S
C720 N718 1.356 . S
C721 C715 1.363 1_655 S
C721 C716 1.379 . S
C721 N719 1.356 . S
N722 C714 1.356 . S
N722 H728 0.984 . S
N722 H729 0.984 . S
N723 C716 1.356 . S
N723 H726 0.984 . S
N723 H727 0.985 . S
H724 N719 0.984 1_455 S
H725 N719 0.985 . S
H726 N723 0.984 . S
H727 N723 0.985 . S
H728 N722 0.984 . S
H729 N722 0.984 . S
H730 N718 0.984 1_455 S
H731 N718 0.985 . S
C732 C733 1.363 . S
C732 C738 1.379 1_655 S
C732 N740 1.356 . S
C733 C732 1.363 . S
C733 C739 1.363 1_655 S
C734 C735 1.363 . S
C734 C739 1.379 . S
C734 N741 1.356 . S
C735 C734 1.363 . S
C735 C738 1.363 . S
N736 C738 1.356 . S
N736 H748 0.984 . S
N736 H749 0.985 . S
N737 C739 1.356 1_655 S
N737 H742 0.984 . S
N737 H743 0.976 1_655 S
C738 C732 1.379 1_455 S
C738 C735 1.363 . S
C738 N736 1.356 . S
C739 C733 1.363 1_455 S
C739 C734 1.379 . S
C739 N737 1.356 1_455 S
N740 C732 1.356 . S
N740 H746 0.984 . S
N740 H747 0.984 . S
N741 C734 1.356 . S
N741 H744 0.984 . S
N741 H745 0.985 . S
H742 N737 0.984 . S
H743 N737 0.976 1_455 S
H744 N741 0.984 . S
H745 N741 0.985 . S
H746 N740 0.984 . S
H747 N740 0.984 . S
H748 N736 0.984 . S
H749 N736 0.985 . S
C750 C751 1.363 . S
C750 C756 1.379 . S
C750 N758 1.356 . S
C751 C750 1.363 . S
C751 C757 1.363 . S
C752 C753 1.363 . S
C752 C757 1.379 . S
C752 N759 1.356 . S
C753 C752 1.363 . S
C753 C756 1.363 . S
N754 C756 1.356 . S
N754 H766 0.984 . S
N754 H767 0.985 . S
N755 C757 1.356 . S
N755 H760 0.984 . S
N755 H761 0.985 . S
C756 C750 1.379 . S
C756 C753 1.363 . S
C756 N754 1.356 . S
C757 C751 1.363 . S
C757 C752 1.379 . S
C757 N755 1.356 . S
N758 C750 1.356 . S
N758 H764 0.984 . S
N758 H765 0.984 . S
N759 C752 1.356 . S
N759 H762 0.984 . S
N759 H763 0.985 . S
H760 N755 0.984 . S
H761 N755 0.985 . S
H762 N759 0.984 . S
H763 N759 0.985 . S
H764 N758 0.984 . S
H765 N758 0.984 . S
H766 N754 0.984 . S
H767 N754 0.985 . S
C768 C769 1.363 . S
C768 C774 1.379 . S
C768 N776 1.356 . S
C769 C768 1.363 . S
C769 C775 1.363 . S
C770 C771 1.363 . S
C770 C775 1.379 . S
C770 N777 1.356 . S
C771 C770 1.363 . S
C771 C774 1.363 . S
N772 C774 1.356 . S
N772 H784 0.984 . S
N772 H785 0.985 . S
N773 C775 1.356 . S
N773 H778 0.984 . S
N773 H779 0.985 . S
C774 C768 1.379 . S
C774 C771 1.363 . S
C774 N772 1.356 . S
C775 C769 1.363 . S
C775 C770 1.379 . S
C775 N773 1.356 . S
N776 C768 1.356 . S
N776 H782 0.984 . S
N776 H783 0.984 . S
N777 C770 1.356 . S
N777 H780 0.984 . S
N777 H781 0.985 . S
H778 N773 0.984 . S
H779 N773 0.985 . S
H780 N777 0.984 . S
H781 N777 0.985 . S
H782 N776 0.984 . S
H783 N776 0.984 . S
H784 N772 0.984 . S
H785 N772 0.985 . S
C786 C787 1.363 . S
C786 C792 1.379 . S
C786 N794 1.356 . S
C787 C786 1.363 . S
C787 C793 1.363 . S
C788 C789 1.363 . S
C788 C793 1.379 . S
C788 N795 1.356 . S
C789 C788 1.363 . S
C789 C792 1.363 . S
N790 C792 1.356 . S
N790 H802 0.984 . S
N790 H803 0.985 . S
N791 C793 1.356 . S
N791 H796 0.984 . S
N791 H797 0.985 . S
C792 C786 1.379 . S
C792 C789 1.363 . S
C792 N790 1.356 . S
C793 C787 1.363 . S
C793 C788 1.379 . S
C793 N791 1.356 . S
N794 C786 1.356 . S
N794 H800 0.984 . S
N794 H801 0.984 1_565 S
N795 C788 1.356 . S
N795 H798 0.984 . S
N795 H799 0.985 . S
H796 N791 0.984 . S
H797 N791 0.985 . S
H798 N795 0.984 . S
H799 N795 0.985 . S
H800 N794 0.984 . S
H801 N794 0.984 1_545 S
H802 N790 0.984 . S
H803 N790 0.985 . S
C804 C805 1.363 . S
C804 C810 1.379 . S
C804 N812 1.356 . S
C805 C804 1.363 . S
C805 C811 1.363 . S
C806 C807 1.363 . S
C806 C811 1.379 . S
C806 N813 1.356 . S
C807 C806 1.363 . S
C807 C810 1.363 . S
N808 C810 1.356 . S
N808 H820 0.984 . S
N808 H821 0.985 . S
N809 C811 1.356 . S
N809 H814 0.984 . S
N809 H815 0.985 . S
C810 C804 1.379 . S
C810 C807 1.363 . S
C810 N808 1.356 . S
C811 C805 1.363 . S
C811 C806 1.379 . S
C811 N809 1.356 . S
N812 C804 1.356 . S
N812 H818 0.984 . S
N812 H819 0.984 . S
N813 C806 1.356 . S
N813 H816 0.984 . S
N813 H817 0.985 . S
H814 N809 0.984 . S
H815 N809 0.985 . S
H816 N813 0.984 . S
H817 N813 0.985 . S
H818 N812 0.984 . S
H819 N812 0.984 . S
H820 N808 0.984 . S
H821 N808 0.985 . S
C822 C823 1.363 . S
C822 C828 1.379 . S
C822 N830 1.356 . S
C823 C822 1.363 . S
C823 C829 1.363 . S
C824 C825 1.363 . S
C824 C829 1.379 . S
C824 N831 1.356 1_554 S
C825 C824 1.363 . S
C825 C828 1.363 . S
N826 C828 1.356 1_565 S
N826 H838 0.984 . S
N826 H839 0.985 1_554 S
N827 C829 1.356 . S
N827 H832 0.984 . S
N827 H833 0.985 . S
C828 C822 1.379 . S
C828 C825 1.363 . S
C828 N826 1.356 1_545 S
C829 C823 1.363 . S
C829 C824 1.379 . S
C829 N827 1.356 . S
N830 C822 1.356 . S
N830 H836 0.984 1_545 S
N830 H837 0.984 . S
N831 C824 1.356 1_556 S
N831 H834 0.984 . S
N831 H835 0.985 . S
H832 N827 0.984 . S
H833 N827 0.985 . S
H834 N831 0.984 . S
H835 N831 0.985 . S
H836 N830 0.984 1_565 S
H837 N830 0.984 . S
H838 N826 0.984 . S
H839 N826 0.985 1_556 S
C840 C841 1.363 . S
C840 C846 1.379 . S
C840 N848 1.356 . S
C841 C840 1.363 . S
C841 C847 1.363 . S
C842 C843 1.363 . S
C842 C847 1.379 . S
C842 N849 1.356 . S
C843 C842 1.363 . S
C843 C846 1.363 . S
N844 C846 1.356 . S
N844 H856 0.984 . S
N844 H857 0.985 . S
N845 C847 1.356 . S
N845 H850 0.984 . S
N845 H851 0.985 . S
C846 C840 1.379 . S
C846 C843 1.363 . S
C846 N844 1.356 . S
C847 C841 1.363 . S
C847 C842 1.379 . S
C847 N845 1.356 . S
N848 C840 1.356 . S
N848 H854 0.984 . S
N848 H855 0.984 . S
N849 C842 1.356 . S
N849 H852 0.984 . S
N849 H853 0.985 . S
H850 N845 0.984 . S
H851 N845 0.985 . S
H852 N849 0.984 . S
H853 N849 0.985 . S
H854 N848 0.984 . S
H855 N848 0.984 . S
H856 N844 0.984 . S
H857 N844 0.985 . S
C858 C859 1.363 . S
C858 C864 1.379 . S
C858 N866 1.356 . S
C859 C858 1.363 . S
C859 C865 1.363 . S
C860 C861 1.363 . S
C860 C865 1.379 . S
C860 N867 1.356 . S
C861 C860 1.363 . S
C861 C864 1.363 . S
N862 C864 1.356 . S
N862 H874 0.984 . S
N862 H875 0.985 . S
N863 C865 1.356 1_554 S
N863 H868 0.984 . S
N863 H869 0.985 . S
C864 C858 1.379 . S
C864 C861 1.363 . S
C864 N862 1.356 . S
C865 C859 1.363 . S
C865 C860 1.379 . S
C865 N863 1.356 1_556 S
N866 C858 1.356 . S
N866 H872 0.984 . S
N866 H873 0.984 1_556 S
N867 C860 1.356 . S
N867 H870 0.984 . S
N867 H871 0.985 . S
H868 N863 0.984 . S
H869 N863 0.985 . S
H870 N867 0.984 . S
H871 N867 0.985 . S
H872 N866 0.984 . S
H873 N866 0.984 1_554 S
H874 N862 0.984 . S
H875 N862 0.985 . S
C876 C877 1.363 . S
C876 C882 1.379 . S
C876 N884 1.356 . S
C877 C876 1.363 . S
C877 C883 1.363 . S
C878 C879 1.363 . S
C878 C883 1.379 . S
C878 N885 1.356 . S
C879 C878 1.363 . S
C879 C882 1.363 . S
N880 C882 1.356 . S
N880 H892 0.984 . S
N880 H893 0.985 . S
N881 C883 1.356 . S
N881 H886 0.984 . S
N881 H887 0.985 . S
C882 C876 1.379 . S
C882 C879 1.363 . S
C882 N880 1.356 . S
C883 C877 1.363 . S
C883 C878 1.379 . S
C883 N881 1.356 . S
N884 C876 1.356 . S
N884 H890 0.984 . S
N884 H891 0.984 . S
N885 C878 1.356 . S
N885 H888 0.984 . S
N885 H889 0.985 . S
H886 N881 0.984 . S
H887 N881 0.985 . S
H888 N885 0.984 . S
H889 N885 0.985 . S
H890 N884 0.984 . S
H891 N884 0.984 . S
H892 N880 0.984 . S
H893 N880 0.985 . S
C894 C895 1.363 . S
C894 C900 1.379 . S
C894 N902 1.356 . S
C895 C894 1.363 . S
C895 C901 1.363 . S
C896 C897 1.363 . S
C896 C901 1.379 . S
C896 N903 1.356 . S
C897 C896 1.363 . S
C897 C900 1.363 . S
N898 C900 1.356 . S
N898 H910 0.984 . S
N898 H911 0.985 . S
N899 C901 1.356 . S
N899 H904 0.984 . S
N899 H905 0.985 . S
C900 C894 1.379 . S
C900 C897 1.363 . S
C900 N898 1.356 . S
C901 C895 1.363 . S
C901 C896 1.379 . S
C901 N899 1.356 . S
N902 C894 1.356 . S
N902 H908 0.984 . S
N902 H909 0.984 . S
N903 C896 1.356 . S
N903 H906 0.984 . S
N903 H907 0.985 . S
H904 N899 0.984 . S
H905 N899 0.985 . S
H906 N903 0.984 . S
H907 N903 0.985 . S
H908 N902 0.984 . S
H909 N902 0.984 . S
H910 N898 0.984 . S
H911 N898 0.985 . S
C912 C913 1.363 . S
C912 C918 1.379 . S
C912 N920 1.356 . S
C913 C912 1.363 . S
C913 C919 1.363 . S
C914 C915 1.363 . S
C914 C919 1.379 . S
C914 N921 1.356 . S
C915 C914 1.363 . S
C915 C918 1.363 . S
N916 C918 1.356 . S
N916 H928 0.984 . S
N916 H929 0.985 . S
N917 C919 1.356 . S
N917 H922 0.984 . S
N917 H923 0.985 . S
C918 C912 1.379 . S
C918 C915 1.363 . S
C918 N916 1.356 . S
C919 C913 1.363 . S
C919 C914 1.379 . S
C919 N917 1.356 . S
N920 C912 1.356 . S
N920 H926 0.984 . S
N920 H927 0.984 . S
N921 C914 1.356 . S
N921 H924 0.984 . S
N921 H925 0.985 . S
H922 N917 0.984 . S
H923 N917 0.985 . S
H924 N921 0.984 . S
H925 N921 0.985 . S
H926 N920 0.984 . S
H927 N920 0.984 . S
H928 N916 0.984 . S
H929 N916 0.985 . S
C930 C931 1.363 . S
C930 C936 1.379 . S
C930 N938 1.356 1_545 S
C931 C930 1.363 . S
C931 C937 1.363 . S
C932 C933 1.363 . S
C932 C937 1.379 . S
C932 N939 1.356 . S
C933 C932 1.363 . S
C933 C936 1.363 . S
N934 C936 1.356 . S
N934 H946 0.984 . S
N934 H947 0.985 . S
N935 C937 1.356 1_655 S
N935 H940 0.984 1_545 S
N935 H941 0.985 . S
C936 C930 1.379 . S
C936 C933 1.363 . S
C936 N934 1.356 . S
C937 C931 1.363 . S
C937 C932 1.379 . S
C937 N935 1.356 1_455 S
N938 C930 1.356 1_565 S
N938 H944 0.984 . S
N938 H945 0.984 . S
N939 C932 1.356 . S
N939 H942 0.984 . S
N939 H943 0.985 . S
H940 N935 0.984 1_565 S
H941 N935 0.985 . S
H942 N939 0.984 . S
H943 N939 0.985 . S
H944 N938 0.984 . S
H945 N938 0.984 . S
H946 N934 0.984 . S
H947 N934 0.985 . S
C948 C949 1.363 . S
C948 C954 1.379 . S
C948 N956 1.356 . S
C949 C948 1.363 . S
C949 C955 1.363 . S
C950 C951 1.363 . S
C950 C955 1.379 . S
C950 N957 1.356 . S
C951 C950 1.363 . S
C951 C954 1.363 . S
N952 C954 1.356 . S
N952 H964 0.984 . S
N952 H965 0.985 . S
N953 C955 1.356 . S
N953 H958 0.984 . S
N953 H959 0.985 . S
C954 C948 1.379 . S
C954 C951 1.363 . S
C954 N952 1.356 . S
C955 C949 1.363 . S
C955 C950 1.379 . S
C955 N953 1.356 . S
N956 C948 1.356 . S
N956 H962 0.984 . S
N956 H963 0.984 . S
N957 C950 1.356 . S
N957 H960 0.984 . S
N957 H961 0.985 . S
H958 N953 0.984 . S
H959 N953 0.985 . S
H960 N957 0.984 . S
H961 N957 0.985 . S
H962 N956 0.984 . S
H963 N956 0.984 . S
H964 N952 0.984 . S
H965 N952 0.985 . S
C966 C967 1.363 . S
C966 C972 1.379 . S
C966 N974 1.356 . S
C967 C966 1.363 . S
C967 C973 1.363 . S
C968 C969 1.363 . S
C968 C973 1.379 . S
C968 N975 1.356 . S
C969 C968 1.363 . S
C969 C972 1.363 . S
N970 C972 1.356 . S
N970 H982 0.984 . S
N970 H983 0.985 . S
N971 C973 1.356 1_545 S
N971 H976 0.984 . S
N971 H977 0.985 . S
C972 C966 1.379 . S
C972 C969 1.363 . S
C972 N970 1.356 . S
C973 C967 1.363 . S
C973 C968 1.379 . S
C973 N971 1.356 1_565 S
N974 C966 1.356 . S
N974 H980 0.984 . S
N974 H981 0.984 1_565 S
N975 C968 1.356 . S
N975 H978 0.984 . S
N975 H979 0.985 . S
H976 N971 0.984 . S
H977 N971 0.985 . S
H978 N975 0.984 . S
H979 N975 0.985 . S
H980 N974 0.984 . S
H981 N974 0.984 1_545 S
H982 N970 0.984 . S
H983 N970 0.985 . S
C984 C985 1.363 . S
C984 C990 1.379 . S
C984 N992 1.356 . S
C985 C984 1.363 . S
C985 C991 1.363 . S
C986 C987 1.363 . S
C986 C991 1.379 . S
C986 N993 1.356 . S
C987 C986 1.363 . S
C987 C990 1.363 . S
N988 C990 1.356 . S
N988 H1000 0.984 . S
N988 H1001 0.985 . S
N989 C991 1.356 . S
N989 H994 0.984 . S
N989 H995 0.985 . S
C990 C984 1.379 . S
C990 C987 1.363 . S
C990 N988 1.356 . S
C991 C985 1.363 . S
C991 C986 1.379 . S
C991 N989 1.356 . S
N992 C984 1.356 . S
N992 H998 0.984 . S
N992 H999 0.984 . S
N993 C986 1.356 . S
N993 H996 0.984 . S
N993 H997 0.985 . S
H994 N989 0.984 . S
H995 N989 0.985 . S
H996 N993 0.984 . S
H997 N993 0.985 . S
H998 N992 0.984 . S
H999 N992 0.984 . S
H1000 N988 0.984 . S
H1001 N988 0.985 . S
C1002 C1003 1.363 . S
C1002 C1008 1.379 . S
C1002 N1010 1.356 . S
C1003 C1002 1.363 . S
C1003 C1009 1.363 . S
C1004 C1005 1.363 . S
C1004 C1009 1.379 . S
C1004 N1011 1.356 . S
C1005 C1004 1.363 . S
C1005 C1008 1.363 . S
N1006 C1008 1.356 . S
N1006 H1018 0.984 . S
N1006 H1019 0.985 . S
N1007 C1009 1.356 1_455 S
N1007 H1012 0.984 . S
N1007 H1013 0.985 . S
C1008 C1002 1.379 . S
C1008 C1005 1.363 . S
C1008 N1006 1.356 . S
C1009 C1003 1.363 . S
C1009 C1004 1.379 . S
C1009 N1007 1.356 1_655 S
N1010 C1002 1.356 . S
N1010 H1016 0.984 . S
N1010 H1017 0.984 . S
N1011 C1004 1.356 . S
N1011 H1014 0.984 . S
N1011 H1015 1.002 . S
H1012 N1007 0.984 . S
H1013 N1007 0.985 . S
H1014 N1011 0.984 . S
H1015 N1011 1.002 . S
H1016 N1010 0.984 . S
H1017 N1010 0.984 . S
H1018 N1006 0.984 . S
H1019 N1006 0.985 . S
C1020 C1021 1.363 . S
C1020 C1026 1.379 . S
C1020 N1028 1.356 . S
C1021 C1020 1.363 . S
C1021 C1027 1.363 . S
C1022 C1023 1.363 . S
C1022 C1027 1.379 . S
C1022 N1029 1.356 . S
C1023 C1022 1.363 . S
C1023 C1026 1.363 . S
N1024 C1026 1.356 . S
N1024 H1036 0.984 . S
N1024 H1037 0.985 . S
N1025 C1027 1.356 . S
N1025 H1030 0.984 . S
N1025 H1031 0.985 . S
C1026 C1020 1.379 . S
C1026 C1023 1.363 . S
C1026 N1024 1.356 . S
C1027 C1021 1.363 . S
C1027 C1022 1.379 . S
C1027 N1025 1.356 . S
N1028 C1020 1.356 . S
N1028 H1034 0.984 . S
N1028 H1035 0.984 . S
N1029 C1022 1.356 . S
N1029 H1032 0.984 . S
N1029 H1033 0.985 . S
H1030 N1025 0.984 . S
H1031 N1025 0.985 . S
H1032 N1029 0.984 . S
H1033 N1029 0.985 . S
H1034 N1028 0.984 . S
H1035 N1028 0.984 . S
H1036 N1024 0.984 . S
H1037 N1024 0.985 . S
C1038 C1039 1.363 . S
C1038 C1044 1.379 . S
C1038 N1046 1.356 . S
C1039 C1038 1.363 . S
C1039 C1045 1.363 . S
C1040 C1041 1.363 . S
C1040 C1045 1.379 . S
C1040 N1047 1.356 . S
C1041 C1040 1.363 . S
C1041 C1044 1.363 . S
N1042 C1044 1.356 . S
N1042 H1054 0.984 . S
N1042 H1055 0.985 . S
N1043 C1045 1.356 . S
N1043 H1048 0.984 . S
N1043 H1049 0.985 . S
C1044 C1038 1.379 . S
C1044 C1041 1.363 . S
C1044 N1042 1.356 . S
C1045 C1039 1.363 . S
C1045 C1040 1.379 . S
C1045 N1043 1.356 . S
N1046 C1038 1.356 . S
N1046 H1052 0.984 . S
N1046 H1053 0.984 . S
N1047 C1040 1.356 . S
N1047 H1050 0.984 . S
N1047 H1051 0.985 . S
H1048 N1043 0.984 . S
H1049 N1043 0.985 . S
H1050 N1047 0.984 . S
H1051 N1047 0.985 . S
H1052 N1046 0.984 . S
H1053 N1046 0.984 . S
H1054 N1042 0.984 . S
H1055 N1042 0.985 . S
C1056 C1057 1.363 . S
C1056 C1062 1.379 . S
C1056 N1064 1.356 . S
C1057 C1056 1.363 . S
C1057 C1063 1.363 . S
C1058 C1059 1.363 . S
C1058 C1063 1.379 . S
C1058 N1065 1.356 . S
C1059 C1058 1.363 . S
C1059 C1062 1.363 . S
N1060 C1062 1.356 . S
N1060 H1072 0.984 . S
N1060 H1073 0.985 . S
N1061 C1063 1.356 . S
N1061 H1066 0.984 . S
N1061 H1067 0.985 . S
C1062 C1056 1.379 . S
C1062 C1059 1.363 . S
C1062 N1060 1.356 . S
C1063 C1057 1.363 . S
C1063 C1058 1.379 . S
C1063 N1061 1.356 . S
N1064 C1056 1.356 . S
N1064 H1070 0.984 . S
N1064 H1071 0.984 . S
N1065 C1058 1.356 . S
N1065 H1068 0.984 . S
N1065 H1069 0.985 . S
H1066 N1061 0.984 . S
H1067 N1061 0.985 . S
H1068 N1065 0.984 . S
H1069 N1065 0.985 . S
H1070 N1064 0.984 . S
H1071 N1064 0.984 . S
H1072 N1060 0.984 . S
H1073 N1060 0.985 . S
C1074 C1075 1.363 . S
C1074 C1080 1.379 . S
C1074 N1082 1.356 . S
C1075 C1074 1.363 . S
C1075 C1081 1.363 . S
C1076 C1077 1.363 . S
C1076 C1081 1.379 . S
C1076 N1083 1.356 . S
C1077 C1076 1.363 . S
C1077 C1080 1.363 . S
N1078 C1080 1.356 . S
N1078 H1090 0.984 . S
N1078 H1091 0.985 . S
N1079 C1081 1.356 . S
N1079 H1084 0.984 . S
N1079 H1085 0.985 . S
C1080 C1074 1.379 . S
C1080 C1077 1.363 . S
C1080 N1078 1.356 . S
C1081 C1075 1.363 . S
C1081 C1076 1.379 . S
C1081 N1079 1.356 . S
N1082 C1074 1.356 . S
N1082 H1088 0.984 . S
N1082 H1089 0.984 . S
N1083 C1076 1.356 . S
N1083 H1086 0.984 . S
N1083 H1087 0.985 . S
H1084 N1079 0.984 . S
H1085 N1079 0.985 . S
H1086 N1083 0.984 . S
H1087 N1083 0.985 . S
H1088 N1082 0.984 . S
H1089 N1082 0.984 . S
H1090 N1078 0.984 . S
H1091 N1078 0.985 . S
C1092 C1093 1.363 . S
C1092 C1098 1.379 . S
C1092 N1100 1.356 1_455 S
C1093 C1092 1.363 . S
C1093 C1099 1.363 . S
C1094 C1095 1.363 . S
C1094 C1099 1.379 . S
C1094 N1101 1.356 . S
C1095 C1094 1.363 . S
C1095 C1098 1.363 . S
N1096 C1098 1.356 . S
N1096 H1108 0.984 . S
N1096 H1109 0.985 . S
N1097 C1099 1.356 1_556 S
N1097 H1102 0.953 1_455 S
N1097 H1103 0.985 . S
C1098 C1092 1.379 . S
C1098 C1095 1.363 . S
C1098 N1096 1.356 . S
C1099 C1093 1.363 . S
C1099 C1094 1.379 . S
C1099 N1097 1.356 1_554 S
N1100 C1092 1.356 1_655 S
N1100 H1106 0.984 . S
N1100 H1107 0.984 . S
N1101 C1094 1.356 . S
N1101 H1104 0.984 . S
N1101 H1105 0.985 1_554 S
H1102 N1097 0.953 1_655 S
H1103 N1097 0.985 . S
H1104 N1101 0.984 . S
H1105 N1101 0.985 1_556 S
H1106 N1100 0.984 . S
H1107 N1100 0.984 . S
H1108 N1096 0.984 . S
H1109 N1096 0.985 . S
C1110 C1111 1.363 . S
C1110 C1116 1.379 . S
C1110 N1118 1.356 . S
C1111 C1110 1.363 . S
C1111 C1117 1.363 . S
C1112 C1113 1.363 . S
C1112 C1117 1.379 . S
C1112 N1119 1.356 . S
C1113 C1112 1.363 . S
C1113 C1116 1.363 . S
N1114 C1116 1.356 . S
N1114 H1126 0.984 . S
N1114 H1127 0.985 . S
N1115 C1117 1.356 . S
N1115 H1120 0.984 . S
N1115 H1121 0.985 . S
C1116 C1110 1.379 . S
C1116 C1113 1.363 . S
C1116 N1114 1.356 . S
C1117 C1111 1.363 . S
C1117 C1112 1.379 . S
C1117 N1115 1.356 . S
N1118 C1110 1.356 . S
N1118 H1124 0.984 . S
N1118 H1125 0.984 . S
N1119 C1112 1.356 . S
N1119 H1122 0.984 . S
N1119 H1123 0.985 . S
H1120 N1115 0.984 . S
H1121 N1115 0.985 . S
H1122 N1119 0.984 . S
H1123 N1119 0.985 . S
H1124 N1118 0.984 . S
H1125 N1118 0.984 . S
H1126 N1114 0.984 . S
H1127 N1114 0.985 . S
C1128 C1129 1.363 . S
C1128 C1134 1.379 . S
C1128 N1136 1.356 . S
C1129 C1128 1.363 . S
C1129 C1135 1.363 . S
C1130 C1131 1.363 . S
C1130 C1135 1.379 . S
C1130 N1137 1.356 . S
C1131 C1130 1.363 . S
C1131 C1134 1.363 . S
N1132 C1134 1.356 . S
N1132 H1144 0.984 . S
N1132 H1145 0.985 . S
N1133 C1135 1.356 . S
N1133 H1138 0.984 . S
N1133 H1139 0.985 . S
C1134 C1128 1.379 . S
C1134 C1131 1.363 . S
C1134 N1132 1.356 . S
C1135 C1129 1.363 . S
C1135 C1130 1.379 . S
C1135 N1133 1.356 . S
N1136 C1128 1.356 . S
N1136 H1142 0.984 . S
N1136 H1143 0.984 . S
N1137 C1130 1.356 . S
N1137 H1140 0.984 . S
N1137 H1141 0.985 . S
H1138 N1133 0.984 . S
H1139 N1133 0.985 . S
H1140 N1137 0.984 . S
H1141 N1137 0.985 . S
H1142 N1136 0.984 . S
H1143 N1136 0.984 . S
H1144 N1132 0.984 . S
H1145 N1132 0.985 . S
C1146 C1147 1.363 . S
C1146 C1152 1.379 . S
C1146 N1154 1.356 . S
C1147 C1146 1.363 . S
C1147 C1153 1.363 . S
C1148 C1149 1.363 . S
C1148 C1153 1.379 . S
C1148 N1155 1.356 . S
C1149 C1148 1.363 . S
C1149 C1152 1.363 . S
N1150 C1152 1.356 . S
N1150 H1162 0.984 . S
N1150 H1163 0.985 . S
N1151 C1153 1.356 . S
N1151 H1156 0.984 . S
N1151 H1157 0.985 . S
C1152 C1146 1.379 . S
C1152 C1149 1.363 . S
C1152 N1150 1.356 . S
C1153 C1147 1.363 . S
C1153 C1148 1.379 . S
C1153 N1151 1.356 . S
N1154 C1146 1.356 . S
N1154 H1160 0.984 . S
N1154 H1161 0.984 . S
N1155 C1148 1.356 . S
N1155 H1158 0.984 . S
N1155 H1159 0.985 . S
H1156 N1151 0.984 . S
H1157 N1151 0.985 . S
H1158 N1155 0.984 . S
H1159 N1155 0.985 . S
H1160 N1154 0.984 . S
H1161 N1154 0.984 . S
H1162 N1150 0.984 . S
H1163 N1150 0.985 . S
C1164 C1165 1.363 . S
C1164 C1170 1.379 . S
C1164 N1172 1.356 1_556 S
C1165 C1164 1.363 . S
C1165 C1171 1.363 . S
C1166 C1167 1.363 . S
C1166 C1171 1.379 . S
C1166 N1173 1.356 . S
C1167 C1166 1.363 . S
C1167 C1170 1.363 . S
N1168 C1170 1.356 . S
N1168 H1180 0.984 . S
N1168 H1181 0.985 . S
N1169 C1171 1.356 . S
N1169 H1174 0.984 . S
N1169 H1175 0.985 . S
C1170 C1164 1.379 . S
C1170 C1167 1.363 . S
C1170 N1168 1.356 . S
C1171 C1165 1.363 . S
C1171 C1166 1.379 . S
C1171 N1169 1.356 . S
N1172 C1164 1.356 1_554 S
N1172 H1178 0.984 . S
N1172 H1179 0.984 . S
N1173 C1166 1.356 . S
N1173 H1176 0.984 . S
N1173 H1177 0.985 . S
H1174 N1169 0.984 . S
H1175 N1169 0.985 . S
H1176 N1173 0.984 . S
H1177 N1173 0.985 . S
H1178 N1172 0.984 . S
H1179 N1172 0.984 . S
H1180 N1168 0.984 . S
H1181 N1168 0.985 . S
C1182 C1183 1.363 . S
C1182 C1188 1.379 . S
C1182 N1190 1.356 . S
C1183 C1182 1.363 . S
C1183 C1189 1.363 . S
C1184 C1185 1.363 . S
C1184 C1189 1.379 . S
C1184 N1191 1.356 . S
C1185 C1184 1.363 . S
C1185 C1188 1.363 . S
N1186 C1188 1.356 1_455 S
N1186 H1198 0.984 . S
N1186 H1199 0.985 . S
N1187 C1189 1.356 . S
N1187 H1192 0.984 . S
N1187 H1193 0.985 . S
C1188 C1182 1.379 . S
C1188 C1185 1.363 . S
C1188 N1186 1.356 1_655 S
C1189 C1183 1.363 . S
C1189 C1184 1.379 . S
C1189 N1187 1.356 . S
N1190 C1182 1.356 . S
N1190 H1196 0.984 . S
N1190 H1197 0.984 . S
N1191 C1184 1.356 . S
N1191 H1194 0.984 1_655 S
N1191 H1195 0.985 . S
H1192 N1187 0.984 . S
H1193 N1187 0.985 . S
H1194 N1191 0.984 1_455 S
H1195 N1191 0.985 . S
H1196 N1190 0.984 . S
H1197 N1190 0.984 . S
H1198 N1186 0.984 . S
H1199 N1186 0.985 . S
C337 C134 1.359 . S
C339 C8 1.359 . S
C355 C22 1.359 1_455 S
C357 C148 1.359 . S
C373 C36 1.359 . S
C375 C162 1.359 1_556 S
C391 C50 1.359 . S
C393 C120 1.359 . S
C409 C64 1.359 . S
C411 C218 1.359 . S
C427 C176 1.359 . S
C429 C78 1.359 1_655 S
C445 C92 1.359 . S
C447 C190 1.359 1_554 S
C463 C204 1.359 . S
C465 C106 1.359 . S
C481 C232 1.359 . S
C483 C260 1.359 . S
C499 C316 1.359 1_545 S
C501 C246 1.359 . S
C517 C274 1.359 . S
C519 C330 1.359 1_565 S
C535 C302 1.359 . S
C537 C288 1.359 . S
C553 C287 1.716 . S
C555 C7 1.716 . S
C571 C21 1.716 . S
C573 C245 1.716 . S
C589 C35 1.716 . S
C591 C259 1.716 . S
C607 C49 1.716 . S
C609 C273 1.716 . S
C625 C63 1.716 . S
C627 C329 1.716 . S
C643 C301 1.716 . S
C645 C77 1.716 . S
C661 C315 1.716 . S
C663 C91 1.716 . S
C679 C231 1.716 . S
C681 C105 1.716 . S
C697 C217 1.716 . S
C699 C119 1.716 . S
C715 C133 1.716 . S
C717 C175 1.716 . S
C733 C189 1.716 . S
C735 C147 1.716 . S
C751 C203 1.716 . S
C753 C161 1.716 . S
C769 C9 1.229 . S
C771 C227 1.370 . S
C787 C325 1.370 1_565 S
C789 C23 1.229 . S
C805 C297 1.370 . S
C807 C37 1.229 . S
C823 C51 1.229 . S
C825 C311 1.370 1_544 S
C841 C65 1.229 . S
C843 C241 1.370 . S
C859 C255 1.370 1_556 S
C861 C79 1.229 . S
C877 C269 1.370 . S
C879 C93 1.229 . S
C895 C283 1.370 . S
C897 C107 1.229 . S
C913 C3 1.370 . S
C915 C121 1.229 . S
C931 C17 1.370 1_445 S
C933 C135 1.229 . S
C949 C31 1.370 . S
C951 C149 1.229 . S
C967 C45 1.370 1_565 S
C969 C163 1.229 . S
C985 C59 1.370 . S
C987 C177 1.229 . S
C1003 C73 1.370 1_655 S
C1005 C191 1.229 . S
C1021 C205 1.229 . S
C1023 C87 1.370 . S
C1039 C101 1.370 . S
C1041 C219 1.229 . S
C1057 C115 1.370 . S
C1059 C233 1.229 . S
C1075 C247 1.229 . S
C1077 C171 1.370 . S
C1093 C185 1.370 1_454 S
C1095 C261 1.229 . S
C1111 C275 1.229 . S
C1113 C199 1.370 . S
C1129 C289 1.229 . S
C1131 C213 1.370 . S
C1147 C303 1.229 . S
C1149 C143 1.370 . S
C1165 C157 1.370 1_556 S
C1167 C317 1.229 . S
C1183 C331 1.229 . S
C1185 C129 1.370 1_655 S
