# Generated by pormake.
# Topology ecf, (8)-cn, num edge types: 1
# Building blocks:
#     Node 0, Type 0, BuildingBlock: LIZSOE_clean_sbu_0, # of connection points: 8
#     Node 1, Type 0, BuildingBlock: LIZSOE_clean_sbu_0, # of connection points: 8
#     Node 2, Type 0, BuildingBlock: LIZSOE_clean_sbu_0, # of connection points: 8
#     Node 3, Type 0, BuildingBlock: LIZSOE_clean_sbu_0, # of connection points: 8
#     Node 4, Type 0, BuildingBlock: LIZSOE_clean_sbu_0, # of connection points: 8
#     Node 5, Type 0, BuildingBlock: LIZSOE_clean_sbu_0, # of connection points: 8
#     Edge 6, Type (0, 0), None
#     Edge 7, Type (0, 0), None
#     Edge 8, Type (0, 0), None
#     Edge 9, Type (0, 0), None
#     Edge 10, Type (0, 0), None
#     Edge 11, Type (0, 0), None
#     Edge 12, Type (0, 0), None
#     Edge 13, Type (0, 0), None
#     Edge 14, Type (0, 0), None
#     Edge 15, Type (0, 0), None
#     Edge 16, Type (0, 0), None
#     Edge 17, Type (0, 0), None
#     Edge 18, Type (0, 0), None
#     Edge 19, Type (0, 0), None
#     Edge 20, Type (0, 0), None
#     Edge 21, Type (0, 0), None
#     Edge 22, Type (0, 0), None
#     Edge 23, Type (0, 0), None
#     Edge 24, Type (0, 0), None
#     Edge 25, Type (0, 0), None
#     Edge 26, Type (0, 0), None
#     Edge 27, Type (0, 0), None
#     Edge 28, Type (0, 0), None
#     Edge 29, Type (0, 0), None
# Relax obj value: 0.330
# Max RMSD: 0.227
# Mean RMSD: 0.222
data_MOF--net-ecf--node1-LIZSOE_clean_sbu_0--edge1-none
_symmetry_space_group_name_H-M    P1
_symmetry_Int_Tables_number       1
_symmetry_cell_setting            triclinic
loop_
_symmetry_equiv_pos_as_xyz
'x, y, z'
_cell_length_a     20.876044
_cell_length_b     20.854465
_cell_length_c     9.2720749
_cell_angle_alpha  89.920828
_cell_angle_beta   89.914975
_cell_angle_gamma 120.03903
loop_
_atom_site_label
_atom_site_type_symbol
_atom_site_fract_x
_atom_site_fract_y
_atom_site_fract_z
_atom_type_partial_charge
Co0 Co 1.00748 0.23045 0.37549 0.0
N1 N 0.95704 0.1292 0.3871 0.0
C2 C 0.97606 0.10279 0.50053 0.0
N3 N 0.90649 1.00598 0.37248 0.0
C4 C 0.91204 0.06825 0.31219 0.0
C5 C 0.94678 1.02965 0.49277 0.0
Co6 Co 0.33601 0.47592 0.21215 0.0
N7 N 0.42386 0.54817 0.29312 0.0
N8 N 0.5249 0.65747 0.34343 0.0
C9 C 0.53598 0.60213 0.388 0.0
C10 C 0.47456 0.53582 0.35748 0.0
C11 C 0.4554 0.62271 0.28785 0.0
Co12 Co 0.15443 0.3579 0.24527 0.0
C13 C 0.31123 0.39348 0.0616 0.0
H14 H 0.46992 0.4822 0.37199 0.0
O15 O 1.05604 0.32354 0.38543 0.0
O16 O 0.16875 0.45775 0.25471 0.0
O17 O 0.07896 0.33808 0.07621 0.0
O18 O 0.14979 0.26296 0.22439 0.0
O19 O 0.09162 0.22703 0.42416 0.0
O20 O 0.28331 0.50939 0.33745 0.0
O21 O 0.2544 0.40059 0.11809 0.0
O22 O 0.33551 0.40842 0.35432 0.0
O23 O 1.00928 0.22722 0.16439 0.0
O24 O 0.93226 0.23954 0.32341 0.0
O25 O 0.2208 0.36898 0.42948 0.0
O26 O 0.37845 0.44333 0.09353 0.0
C27 C 1.01463 0.2776 0.07792 0.0
C28 C 0.42207 0.65997 0.20521 0.0
H29 H 0.36767 0.61915 0.15932 0.0
H30 H 0.41525 0.69796 0.27888 0.0
H31 H 0.45983 0.69225 0.11582 0.0
C32 C 0.22573 0.51287 0.30531 0.0
C33 C 0.13689 0.22621 0.33783 0.0
H34 H 1.01256 0.13538 0.58279 0.0
H35 H 0.8604 0.12096 0.20416 0.0
H36 H 0.81019 1.02287 0.21855 0.0
H37 H 0.89008 0.07016 0.09538 0.0
C38 C 0.86498 0.07048 0.19903 0.0
C39 C 0.98091 0.28657 0.41063 0.0
C40 C 0.28528 0.37291 0.4453 0.0
H41 H 0.95381 0.99684 0.57367 0.0
H42 H 0.58772 0.60911 0.42889 0.0
Co43 Co 0.87552 1.00218 0.77253 0.0
N44 N 0.86502 0.91575 0.80994 0.0
C45 C 0.83065 0.85598 0.728 0.0
N46 N 0.91921 0.84996 0.84684 0.0
C47 C 0.90924 0.90378 0.89669 0.0
C48 C 0.86256 0.81492 0.75337 0.0
Co49 Co 0.86153 0.30552 0.7758 0.0
N50 N 0.90907 0.41125 0.80036 0.0
N51 N 0.91482 0.5217 0.84035 0.0
C52 C 0.95863 0.52893 0.72732 0.0
C53 C 0.95435 0.46185 0.70232 0.0
C54 C 0.89006 0.45134 0.88871 0.0
Co55 Co 0.83729 0.13206 0.75892 0.0
C56 C 0.75768 0.21429 0.85111 0.0
H57 H 0.97734 0.45006 0.60849 0.0
O58 O 0.89372 0.08828 0.75054 0.0
O59 O 0.90263 0.19141 0.93724 0.0
O60 O 0.76357 0.05141 0.90852 0.0
O61 O 0.77182 0.05342 0.59173 0.0
O62 O 0.79572 0.9622 0.65163 0.0
O63 O 0.93678 0.30883 0.91715 0.0
O64 O 0.79615 0.2002 0.75777 0.0
O65 O 0.92882 0.31904 0.61529 0.0
O66 O 0.81204 0.97774 0.92611 0.0
O67 O 0.9558 0.05105 0.87502 0.0
O68 O 0.90718 0.20284 0.59947 0.0
O69 O 0.79096 0.2793 0.91306 0.0
C70 C 0.76246 0.99187 0.96013 0.0
C71 C 0.8526 0.42366 1.03152 0.0
H72 H 0.8704 0.38681 0.08188 0.0
H73 H 0.86582 0.47053 0.10537 0.0
H74 H 0.79237 0.39217 1.01541 0.0
C75 C 0.94649 0.25901 0.97563 0.0
C76 C 0.7619 0.98536 0.57369 0.0
H77 H 0.78315 0.84096 0.66053 0.0
H78 H 0.99974 0.986 0.99774 0.0
H79 H 0.95938 0.91638 0.11217 0.0
H80 H 0.92324 0.97886 0.07299 0.0
C81 C 0.94655 0.9462 1.03029 0.0
C82 C 0.95031 0.10525 0.82855 0.0
C83 C 0.94113 0.27133 0.55492 0.0
H84 H 0.82541 0.75764 0.75504 0.0
H85 H 0.98375 0.576 0.65468 0.0
Co86 Co 0.86684 0.79932 0.37787 0.0
N87 N 0.96678 0.84939 0.38817 0.0
C88 C 0.993 0.89414 0.50247 0.0
N89 N 0.08948 0.92067 0.37416 0.0
C90 C 1.02744 0.8646 0.31345 0.0
C91 C 0.0661 0.93718 0.49519 0.0
Co92 Co 0.61795 0.87924 0.20633 0.0
N93 N 0.54572 0.89541 0.28557 0.0
N94 N 0.43708 0.88804 0.32901 0.0
C95 C 0.48796 0.94151 0.41315 0.0
C96 C 0.55414 0.94514 0.38854 0.0
C97 C 0.47377 0.86255 0.24867 0.0
Co98 Co 0.73913 0.81731 0.25184 0.0
C99 C 0.70496 0.93898 0.06886 0.0
H100 H 0.60541 0.98498 0.43883 0.0
O101 O 0.77471 0.75486 0.39152 0.0
O102 O 0.64276 0.73167 0.28101 0.0
O103 O 0.75723 0.7598 0.08339 0.0
O104 O 0.83286 0.90875 0.22324 0.0
O105 O 0.87075 0.8877 0.42167 0.0
O106 O 0.57148 0.7824 0.30455 0.0
O107 O 0.69461 0.87241 0.11878 0.0
O108 O 0.6816 0.93954 0.36226 0.0
O109 O 0.86901 0.802 0.16629 0.0
O110 O 0.85781 0.71453 0.32888 0.0
O111 O 0.72926 0.87189 0.43443 0.0
O112 O 0.65827 0.95972 0.106 0.0
C113 C 0.81794 0.75643 0.082 0.0
C114 C 0.44623 0.82353 0.10723 0.0
H115 H 0.48734 0.81124 1.05795 0.0
H116 H 0.39188 0.77239 0.12097 0.0
H117 H 0.43756 0.86012 1.03249 0.0
C118 C 0.58154 0.72668 0.3125 0.0
C119 C 0.87073 0.93342 0.3351 0.0
H120 H 0.96036 0.89842 0.58456 0.0
H121 H 0.97501 0.75926 0.20881 0.0
H122 H 0.07292 0.80766 0.22211 0.0
H123 H 1.02505 0.83896 0.09749 0.0
C124 C 1.0252 0.81447 0.20201 0.0
C125 C 0.80969 0.71476 0.41488 0.0
C126 C 0.72111 0.92946 0.45064 0.0
H127 H 0.09904 0.97644 0.57653 0.0
H128 H 0.47827 0.97722 0.48364 0.0
Co129 Co 0.09281 0.89099 0.77394 0.0
N130 N 0.17916 0.96715 0.81196 0.0
C131 C 0.23849 0.99295 0.72822 0.0
N132 N 0.24387 0.08765 0.84586 0.0
C133 C 0.19056 1.02375 0.8973 0.0
C134 C 0.2789 0.06619 0.7518 0.0
Co135 Co 0.78849 0.57494 0.77865 0.0
N136 N 0.68267 0.51732 0.80207 0.0
N137 N 0.5719 0.41237 0.839 0.0
C138 C 0.5656 0.44987 0.7266 0.0
C139 C 0.63288 0.51282 0.70345 0.0
C140 C 0.64186 0.45756 0.88891 0.0
Co141 Co 0.96276 0.72308 0.76134 0.0
C142 C 0.87908 0.56161 0.85447 0.0
H143 H 0.64541 0.54825 0.61025 0.0
O144 O 1.00689 0.82327 0.75133 0.0
O145 O 0.90327 0.72974 0.93956 0.0
O146 O 1.04219 0.72883 0.91204 0.0
O147 O 1.04203 0.73574 0.59409 0.0
O148 O 0.13305 0.8511 0.65282 0.0
O149 O 0.78566 0.6469 0.92127 0.0
O150 O 0.89351 0.61421 0.76109 0.0
O151 O 0.77615 0.62975 0.61913 0.0
O152 O 0.11626 0.85102 0.92735 0.0
O153 O 1.04375 0.92223 0.87629 0.0
O154 O 0.8929 0.72309 0.60209 0.0
O155 O 0.81369 0.52941 0.91537 0.0
C156 C 0.10151 0.78722 0.96348 0.0
C157 C 0.66852 0.44665 1.03164 0.0
H158 H 0.70494 0.50098 0.08339 0.0
H159 H 0.62122 0.41233 0.10447 0.0
H160 H 0.70026 0.41818 1.01504 0.0
C161 C 0.83583 0.70639 0.97911 0.0
C162 C 0.11026 0.79388 0.57557 0.0
H163 H 0.25365 0.96063 0.6604 0.0
H164 H 0.10814 1.03239 0.9961 0.0
H165 H 0.17715 0.06188 0.11178 0.0
H166 H 0.11478 0.96318 0.07405 0.0
C167 C 0.14764 1.01899 1.03026 0.0
C168 C 0.98968 0.86298 0.82872 0.0
C169 C 0.8245 0.68941 0.55824 0.0
H170 H 0.33622 0.08705 0.75183 0.0
H171 H 0.51915 0.42849 0.65303 0.0
Co172 Co 0.21957 0.76033 0.20277 0.0
N173 N 0.21429 0.67653 0.28624 0.0
C174 C 0.24312 0.68048 0.41906 0.0
N175 N 0.22465 0.5763 0.32671 0.0
C176 C 0.20164 0.61094 0.23352 0.0
C177 C 0.25215 0.62062 0.44167 0.0
Co178 Co 0.29453 0.08812 0.37588 0.0
N179 N 0.24393 0.13785 0.38634 0.0
N180 N 0.17289 0.18983 0.37513 0.0
C181 C 0.15643 0.14945 0.4957 0.0
C182 C 0.19935 0.11911 0.50138 0.0
C183 C 0.22867 0.18365 0.31272 0.0
Co184 Co 0.277 0.94225 0.25075 0.0
C185 C 0.37996 0.11548 0.41147 0.0
H186 H 0.19583 0.08248 0.58372 0.0
O187 O 0.22105 0.84133 0.11788 0.0
O188 O 0.33403 1.0175 0.08159 0.0
O189 O 0.36476 0.93558 0.28213 0.0
O190 O 0.22191 0.87678 0.43288 0.0
O191 O 0.16008 0.75923 0.36766 0.0
O192 O 0.29217 0.08755 0.16437 0.0
O193 O 0.33901 0.04047 0.38915 0.0
O194 O 0.20719 1.00381 0.42035 0.0
O195 O 0.31556 0.81426 0.28273 0.0
O196 O 0.13587 0.71637 0.11188 0.0
O197 O 0.18571 0.94389 0.22284 0.0
O198 O 0.37904 0.164 0.32712 0.0
C199 C 0.36975 0.87874 0.30164 0.0
C200 C 0.27858 0.23154 0.20013 0.0
H201 H 0.25755 0.20405 0.09604 0.0
H202 H 0.2803 0.28429 0.21105 0.0
H203 H 0.33537 0.24129 0.21409 0.0
C204 C 0.33762 0.08168 0.07997 0.0
C205 C 0.16672 0.80955 0.45193 0.0
H206 H 0.26147 0.72691 0.49179 0.0
H207 H 0.11809 0.54559 0.07974 0.0
H208 H 0.20849 0.56088 1.03477 0.0
H209 H 0.18786 0.63494 1.01278 0.0
C210 C 0.17806 0.58708 0.0809 0.0
C211 C 0.15463 0.78348 0.07264 0.0
C212 C 0.16155 0.95751 0.3351 0.0
H213 H 0.2766 0.61017 0.53528 0.0
H214 H 0.1177 0.14335 0.57827 0.0
Co215 Co 0.20318 0.22053 0.77407 0.0
N216 N 0.1279 0.23158 0.81362 0.0
C217 C 0.10266 0.26601 0.73115 0.0
N218 N 1.00763 0.17568 0.84684 0.0
C219 C 0.07114 0.18586 0.89825 0.0
C220 C 1.02938 0.23273 0.75369 0.0
Co221 Co 0.51922 0.23315 0.77452 0.0
N222 N 0.57717 0.18504 0.79789 0.0
N223 N 0.68206 0.1793 0.83563 0.0
C224 C 0.64553 0.13632 0.722 0.0
C225 C 0.58265 0.1406 0.69838 0.0
C226 C 0.63638 0.2036 0.88553 0.0
Co227 Co 0.37073 0.25848 0.7583 0.0
C228 C 0.5319 0.33656 0.85134 0.0
H229 H 0.54792 0.11829 0.60448 0.0
O230 O 0.27053 0.20197 0.75006 0.0
O231 O 0.3646 0.19367 0.93787 0.0
O232 O 0.36497 0.33348 0.90526 0.0
O233 O 0.35728 0.32281 0.58961 0.0
O234 O 0.24247 0.29994 0.65008 0.0
O235 O 0.44649 0.1578 0.91644 0.0
O236 O 0.47979 0.29894 0.75703 0.0
O237 O 0.46537 0.1667 0.61407 0.0
O238 O 0.24307 0.28429 0.9258 0.0
O239 O 0.17246 0.14081 0.87893 0.0
O240 O 0.37097 0.18846 0.60077 0.0
O241 O 0.56371 0.30301 0.91198 0.0
C242 C 0.30677 0.33469 0.95698 0.0
C243 C 0.6462 0.24032 1.02884 0.0
H244 H 0.59155 0.22208 0.07967 0.0
H245 H 0.67996 0.22691 0.10195 0.0
H246 H 0.67472 0.30066 1.01321 0.0
C247 C 0.3875 0.14911 0.97596 0.0
C248 C 0.29918 0.33255 0.57058 0.0
H249 H 0.1352 0.31377 0.66361 0.0
H250 H 0.06197 0.09498 1.00365 0.0
H251 H 1.03302 0.13651 0.11456 0.0
H252 H 0.13164 0.17242 0.07638 0.0
C253 C 0.07574 0.14869 1.03317 0.0
C254 C 0.23115 0.14539 0.82891 0.0
C255 C 0.40529 0.15479 0.55499 0.0
H256 H 1.00737 0.26808 0.75111 0.0
H257 H 0.66747 0.11172 0.64835 0.0
loop_
_geom_bond_atom_site_label_1
_geom_bond_atom_site_label_2
_geom_bond_distance
_geom_bond_site_symmetry_2
_ccdc_geom_bond_type
Co0 N1 2.034 . S
Co0 O15 2.262 1_655 S
Co0 O19 1.958 1_655 S
Co0 O23 1.950 . S
Co0 O24 2.057 . S
N1 Co0 2.034 . S
N1 C2 1.366 . S
N1 C4 1.332 . S
C2 N1 1.366 . S
C2 C5 1.377 1_545 S
C2 H34 0.931 1_545 S
N3 C4 1.346 1_565 S
N3 C5 1.337 . S
C4 N1 1.332 . S
C4 N3 1.346 1_545 S
C4 C38 1.361 . S
C5 C2 1.377 1_565 S
C5 N3 1.337 . S
C5 H41 0.930 . S
Co6 N7 2.034 . S
Co6 O20 1.950 . S
Co6 O21 2.262 . S
Co6 O22 1.958 . S
Co6 O26 2.057 . S
N7 Co6 2.034 . S
N7 C10 1.366 . S
N7 C11 1.332 . S
N8 C9 1.337 . S
N8 C11 1.346 . S
C9 N8 1.337 . S
C9 C10 1.377 . S
C9 H42 0.930 . S
C10 N7 1.366 . S
C10 C9 1.377 . S
C10 H14 0.931 . S
C11 N7 1.332 . S
C11 N8 1.346 . S
C11 C28 1.361 . S
Co12 O15 2.097 . S
Co12 O16 2.065 . S
Co12 O17 2.065 . S
Co12 O18 2.042 . S
Co12 O21 2.097 . S
Co12 O25 2.042 . S
C13 O21 1.253 . S
C13 O26 1.263 . S
H14 C10 0.931 . S
O15 Co0 2.262 1_455 S
O15 Co12 2.097 . S
O15 C39 1.253 1_455 S
O16 Co12 2.065 . S
O16 C32 1.221 . S
O17 Co12 2.065 . S
O17 C27 1.221 . S
O18 Co12 2.042 . S
O18 C33 1.237 . S
O19 Co0 1.958 1_455 S
O19 C33 1.278 . S
O20 Co6 1.950 . S
O20 C32 1.277 . S
O21 Co6 2.262 . S
O21 Co12 2.097 . S
O21 C13 1.253 . S
O22 Co6 1.958 . S
O22 C40 1.278 . S
O23 Co0 1.950 . S
O23 C27 1.277 1_655 S
O24 Co0 2.057 . S
O24 C39 1.263 . S
O25 Co12 2.042 . S
O25 C40 1.237 . S
O26 Co6 2.057 . S
O26 C13 1.263 . S
C27 O17 1.221 . S
C27 O23 1.277 1_455 S
C28 C11 1.361 . S
C28 H29 0.960 . S
C28 H30 0.961 . S
C28 H31 0.961 . S
H29 C28 0.960 . S
H30 C28 0.961 . S
H31 C28 0.961 . S
C32 O16 1.221 . S
C32 O20 1.277 . S
C33 O18 1.237 . S
C33 O19 1.278 . S
H34 C2 0.931 1_565 S
H35 C38 0.961 . S
H36 C38 0.961 . S
H37 C38 0.960 . S
C38 C4 1.361 . S
C38 H35 0.961 . S
C38 H36 0.961 . S
C38 H37 0.960 . S
C39 O15 1.253 1_655 S
C39 O24 1.263 . S
C40 O22 1.278 . S
C40 O25 1.237 . S
H41 C5 0.930 . S
H42 C9 0.930 . S
Co43 N44 2.034 . S
Co43 O58 2.262 1_565 S
Co43 O62 1.958 . S
Co43 O66 1.950 . S
Co43 O67 2.057 1_565 S
N44 Co43 2.034 . S
N44 C45 1.366 . S
N44 C47 1.332 . S
C45 N44 1.366 . S
C45 C48 1.377 . S
C45 H77 0.931 . S
N46 C47 1.346 . S
N46 C48 1.337 . S
C47 N44 1.332 . S
C47 N46 1.346 . S
C47 C81 1.361 . S
C48 C45 1.377 . S
C48 N46 1.337 . S
C48 H84 0.930 . S
Co49 N50 2.034 . S
Co49 O63 1.950 . S
Co49 O64 2.262 . S
Co49 O65 1.958 . S
Co49 O69 2.057 . S
N50 Co49 2.034 . S
N50 C53 1.366 . S
N50 C54 1.332 . S
N51 C52 1.337 . S
N51 C54 1.346 . S
C52 N51 1.337 . S
C52 C53 1.377 . S
C52 H85 0.930 . S
C53 N50 1.366 . S
C53 C52 1.377 . S
C53 H57 0.931 . S
C54 N50 1.332 . S
C54 N51 1.346 . S
C54 C71 1.361 . S
Co55 O58 2.097 . S
Co55 O59 2.065 . S
Co55 O60 2.065 . S
Co55 O61 2.042 . S
Co55 O64 2.097 . S
Co55 O68 2.042 . S
C56 O64 1.253 . S
C56 O69 1.263 . S
H57 C53 0.931 . S
O58 Co43 2.262 1_545 S
O58 Co55 2.097 . S
O58 C82 1.253 . S
O59 Co55 2.065 . S
O59 C75 1.221 . S
O60 Co55 2.065 . S
O60 C70 1.221 . S
O61 Co55 2.042 . S
O61 C76 1.237 . S
O62 Co43 1.958 . S
O62 C76 1.278 1_565 S
O63 Co49 1.950 . S
O63 C75 1.277 . S
O64 Co49 2.262 . S
O64 Co55 2.097 . S
O64 C56 1.253 . S
O65 Co49 1.958 . S
O65 C83 1.278 . S
O66 Co43 1.950 . S
O66 C70 1.277 1_565 S
O67 Co43 2.057 1_545 S
O67 C82 1.263 . S
O68 Co55 2.042 . S
O68 C83 1.237 . S
O69 Co49 2.057 . S
O69 C56 1.263 . S
C70 O60 1.221 . S
C70 O66 1.277 1_545 S
C71 C54 1.361 . S
C71 H72 0.960 . S
C71 H73 0.961 1_556 S
C71 H74 0.961 . S
H72 C71 0.960 . S
H73 C71 0.961 1_554 S
H74 C71 0.961 . S
C75 O59 1.221 . S
C75 O63 1.277 . S
C76 O61 1.237 . S
C76 O62 1.278 1_545 S
H77 C45 0.931 . S
H78 C81 0.961 . S
H79 C81 0.961 1_554 S
H80 C81 0.960 . S
C81 C47 1.361 . S
C81 H78 0.961 . S
C81 H79 0.961 1_556 S
C81 H80 0.960 . S
C82 O58 1.253 . S
C82 O67 1.263 . S
C83 O65 1.278 . S
C83 O68 1.237 . S
H84 C48 0.930 . S
H85 C52 0.930 . S
Co86 N87 2.034 . S
Co86 O101 2.262 . S
Co86 O105 1.958 . S
Co86 O109 1.950 . S
Co86 O110 2.057 . S
N87 Co86 2.034 . S
N87 C88 1.366 . S
N87 C90 1.332 . S
C88 N87 1.366 . S
C88 C91 1.377 1_655 S
C88 H120 0.931 1_655 S
N89 C90 1.346 1_455 S
N89 C91 1.337 . S
C90 N87 1.332 . S
C90 N89 1.346 1_655 S
C90 C124 1.361 . S
C91 C88 1.377 1_455 S
C91 N89 1.337 . S
C91 H127 0.930 . S
Co92 N93 2.034 . S
Co92 O106 1.950 . S
Co92 O107 2.262 . S
Co92 O108 1.958 . S
Co92 O112 2.057 . S
N93 Co92 2.034 . S
N93 C96 1.366 . S
N93 C97 1.332 . S
N94 C95 1.337 . S
N94 C97 1.346 . S
C95 N94 1.337 . S
C95 C96 1.377 . S
C95 H128 0.930 . S
C96 N93 1.366 . S
C96 C95 1.377 . S
C96 H100 0.931 . S
C97 N93 1.332 . S
C97 N94 1.346 . S
C97 C114 1.361 . S
Co98 O101 2.097 . S
Co98 O102 2.065 . S
Co98 O103 2.065 . S
Co98 O104 2.042 . S
Co98 O107 2.097 . S
Co98 O111 2.042 . S
C99 O107 1.253 . S
C99 O112 1.263 . S
H100 C96 0.931 . S
O101 Co86 2.262 . S
O101 Co98 2.097 . S
O101 C125 1.253 . S
O102 Co98 2.065 . S
O102 C118 1.221 . S
O103 Co98 2.065 . S
O103 C113 1.221 . S
O104 Co98 2.042 . S
O104 C119 1.237 . S
O105 Co86 1.958 . S
O105 C119 1.278 . S
O106 Co92 1.950 . S
O106 C118 1.277 . S
O107 Co92 2.262 . S
O107 Co98 2.097 . S
O107 C99 1.253 . S
O108 Co92 1.958 . S
O108 C126 1.278 . S
O109 Co86 1.950 . S
O109 C113 1.277 . S
O110 Co86 2.057 . S
O110 C125 1.263 . S
O111 Co98 2.042 . S
O111 C126 1.237 . S
O112 Co92 2.057 . S
O112 C99 1.263 . S
C113 O103 1.221 . S
C113 O109 1.277 . S
C114 C97 1.361 . S
C114 H115 0.960 . S
C114 H116 0.961 . S
C114 H117 0.961 . S
H115 C114 0.960 . S
H116 C114 0.961 . S
H117 C114 0.961 . S
C118 O102 1.221 . S
C118 O106 1.277 . S
C119 O104 1.237 . S
C119 O105 1.278 . S
H120 C88 0.931 1_455 S
H121 C124 0.961 . S
H122 C124 0.961 . S
H123 C124 0.960 . S
C124 C90 1.361 . S
C124 H121 0.961 . S
C124 H122 0.961 . S
C124 H123 0.960 . S
C125 O101 1.253 . S
C125 O110 1.263 . S
C126 O108 1.278 . S
C126 O111 1.237 . S
H127 C91 0.930 . S
H128 C95 0.930 . S
Co129 N130 2.034 . S
Co129 O144 2.262 1_455 S
Co129 O148 1.958 . S
Co129 O152 1.950 . S
Co129 O153 2.057 1_455 S
N130 Co129 2.034 . S
N130 C131 1.366 . S
N130 C133 1.332 . S
C131 N130 1.366 . S
C131 C134 1.377 . S
C131 H163 0.931 . S
N132 C133 1.346 1_545 S
N132 C134 1.337 1_545 S
C133 N130 1.332 . S
C133 N132 1.346 1_565 S
C133 C167 1.361 . S
C134 C131 1.377 . S
C134 N132 1.337 1_565 S
C134 H170 0.930 1_565 S
Co135 N136 2.034 . S
Co135 O149 1.950 . S
Co135 O150 2.262 . S
Co135 O151 1.958 . S
Co135 O155 2.057 . S
N136 Co135 2.034 . S
N136 C139 1.366 . S
N136 C140 1.332 . S
N137 C138 1.337 . S
N137 C140 1.346 . S
C138 N137 1.337 . S
C138 C139 1.377 . S
C138 H171 0.930 . S
C139 N136 1.366 . S
C139 C138 1.377 . S
C139 H143 0.931 . S
C140 N136 1.332 . S
C140 N137 1.346 . S
C140 C157 1.361 . S
Co141 O144 2.097 . S
Co141 O145 2.065 . S
Co141 O146 2.065 . S
Co141 O147 2.042 . S
Co141 O150 2.097 . S
Co141 O154 2.042 . S
C142 O150 1.253 . S
C142 O155 1.263 . S
H143 C139 0.931 . S
O144 Co129 2.262 1_655 S
O144 Co141 2.097 . S
O144 C168 1.253 . S
O145 Co141 2.065 . S
O145 C161 1.221 . S
O146 Co141 2.065 . S
O146 C156 1.221 . S
O147 Co141 2.042 . S
O147 C162 1.237 . S
O148 Co129 1.958 . S
O148 C162 1.278 1_455 S
O149 Co135 1.950 . S
O149 C161 1.277 . S
O150 Co135 2.262 . S
O150 Co141 2.097 . S
O150 C142 1.253 . S
O151 Co135 1.958 . S
O151 C169 1.278 . S
O152 Co129 1.950 . S
O152 C156 1.277 1_455 S
O153 Co129 2.057 1_655 S
O153 C168 1.263 . S
O154 Co141 2.042 . S
O154 C169 1.237 . S
O155 Co135 2.057 . S
O155 C142 1.263 . S
C156 O146 1.221 . S
C156 O152 1.277 1_655 S
C157 C140 1.361 . S
C157 H158 0.960 . S
C157 H159 0.961 1_556 S
C157 H160 0.961 . S
H158 C157 0.960 . S
H159 C157 0.961 1_554 S
H160 C157 0.961 . S
C161 O145 1.221 . S
C161 O149 1.277 . S
C162 O147 1.237 . S
C162 O148 1.278 1_655 S
H163 C131 0.931 . S
H164 C167 0.961 1_545 S
H165 C167 0.961 1_554 S
H166 C167 0.960 . S
C167 C133 1.361 . S
C167 H164 0.961 1_565 S
C167 H165 0.961 1_556 S
C167 H166 0.960 . S
C168 O144 1.253 . S
C168 O153 1.263 . S
C169 O151 1.278 . S
C169 O154 1.237 . S
H170 C134 0.930 1_545 S
H171 C138 0.930 . S
Co172 N173 2.034 . S
Co172 O187 2.262 . S
Co172 O191 1.958 . S
Co172 O195 1.950 . S
Co172 O196 2.057 . S
N173 Co172 2.034 . S
N173 C174 1.366 . S
N173 C176 1.332 . S
C174 N173 1.366 . S
C174 C177 1.377 . S
C174 H206 0.931 . S
N175 C176 1.346 . S
N175 C177 1.337 . S
C176 N173 1.332 . S
C176 N175 1.346 . S
C176 C210 1.361 . S
C177 C174 1.377 . S
C177 N175 1.337 . S
C177 H213 0.930 . S
Co178 N179 2.034 . S
Co178 O192 1.950 . S
Co178 O193 2.262 1_545 S
Co178 O194 1.958 1_545 S
Co178 O198 2.057 . S
N179 Co178 2.034 . S
N179 C182 1.366 . S
N179 C183 1.332 . S
N180 C181 1.337 . S
N180 C183 1.346 . S
C181 N180 1.337 . S
C181 C182 1.377 . S
C181 H214 0.930 . S
C182 N179 1.366 . S
C182 C181 1.377 . S
C182 H186 0.931 . S
C183 N179 1.332 . S
C183 N180 1.346 . S
C183 C200 1.361 . S
Co184 O187 2.097 . S
Co184 O188 2.065 . S
Co184 O189 2.065 . S
Co184 O190 2.042 . S
Co184 O193 2.097 . S
Co184 O197 2.042 . S
C185 O193 1.253 1_545 S
C185 O198 1.263 . S
H186 C182 0.931 . S
O187 Co172 2.262 . S
O187 Co184 2.097 . S
O187 C211 1.253 . S
O188 Co184 2.065 . S
O188 C204 1.221 . S
O189 Co184 2.065 . S
O189 C199 1.221 . S
O190 Co184 2.042 . S
O190 C205 1.237 . S
O191 Co172 1.958 . S
O191 C205 1.278 . S
O192 Co178 1.950 . S
O192 C204 1.277 1_545 S
O193 Co178 2.262 1_565 S
O193 Co184 2.097 . S
O193 C185 1.253 1_565 S
O194 Co178 1.958 1_565 S
O194 C212 1.278 . S
O195 Co172 1.950 . S
O195 C199 1.277 . S
O196 Co172 2.057 . S
O196 C211 1.263 . S
O197 Co184 2.042 . S
O197 C212 1.237 . S
O198 Co178 2.057 . S
O198 C185 1.263 . S
C199 O189 1.221 . S
C199 O195 1.277 . S
C200 C183 1.361 . S
C200 H201 0.960 . S
C200 H202 0.961 . S
C200 H203 0.961 . S
H201 C200 0.960 . S
H202 C200 0.961 . S
H203 C200 0.961 . S
C204 O188 1.221 . S
C204 O192 1.277 1_565 S
C205 O190 1.237 . S
C205 O191 1.278 . S
H206 C174 0.931 . S
H207 C210 0.961 . S
H208 C210 0.961 . S
H209 C210 0.960 . S
C210 C176 1.361 . S
C210 H207 0.961 . S
C210 H208 0.961 . S
C210 H209 0.960 . S
C211 O187 1.253 . S
C211 O196 1.263 . S
C212 O194 1.278 . S
C212 O197 1.237 . S
H213 C177 0.930 . S
H214 C181 0.930 . S
Co215 N216 2.034 . S
Co215 O230 2.262 . S
Co215 O234 1.958 . S
Co215 O238 1.950 . S
Co215 O239 2.057 . S
N216 Co215 2.034 . S
N216 C217 1.366 . S
N216 C219 1.332 . S
C217 N216 1.366 . S
C217 C220 1.377 . S
C217 H249 0.931 . S
N218 C219 1.346 1_655 S
N218 C220 1.337 1_655 S
C219 N216 1.332 . S
C219 N218 1.346 1_455 S
C219 C253 1.361 . S
C220 C217 1.377 . S
C220 N218 1.337 1_455 S
C220 H256 0.930 1_455 S
Co221 N222 2.034 . S
Co221 O235 1.950 . S
Co221 O236 2.262 . S
Co221 O237 1.958 . S
Co221 O241 2.057 . S
N222 Co221 2.034 . S
N222 C225 1.366 . S
N222 C226 1.332 . S
N223 C224 1.337 . S
N223 C226 1.346 . S
C224 N223 1.337 . S
C224 C225 1.377 . S
C224 H257 0.930 . S
C225 N222 1.366 . S
C225 C224 1.377 . S
C225 H229 0.931 . S
C226 N222 1.332 . S
C226 N223 1.346 . S
C226 C243 1.361 . S
Co227 O230 2.097 . S
Co227 O231 2.065 . S
Co227 O232 2.065 . S
Co227 O233 2.042 . S
Co227 O236 2.097 . S
Co227 O240 2.042 . S
C228 O236 1.253 . S
C228 O241 1.263 . S
H229 C225 0.931 . S
O230 Co215 2.262 . S
O230 Co227 2.097 . S
O230 C254 1.253 . S
O231 Co227 2.065 . S
O231 C247 1.221 . S
O232 Co227 2.065 . S
O232 C242 1.221 . S
O233 Co227 2.042 . S
O233 C248 1.237 . S
O234 Co215 1.958 . S
O234 C248 1.278 . S
O235 Co221 1.950 . S
O235 C247 1.277 . S
O236 Co221 2.262 . S
O236 Co227 2.097 . S
O236 C228 1.253 . S
O237 Co221 1.958 . S
O237 C255 1.278 . S
O238 Co215 1.950 . S
O238 C242 1.277 . S
O239 Co215 2.057 . S
O239 C254 1.263 . S
O240 Co227 2.042 . S
O240 C255 1.237 . S
O241 Co221 2.057 . S
O241 C228 1.263 . S
C242 O232 1.221 . S
C242 O238 1.277 . S
C243 C226 1.361 . S
C243 H244 0.960 . S
C243 H245 0.961 1_556 S
C243 H246 0.961 . S
H244 C243 0.960 . S
H245 C243 0.961 1_554 S
H246 C243 0.961 . S
C247 O231 1.221 . S
C247 O235 1.277 . S
C248 O233 1.237 . S
C248 O234 1.278 . S
H249 C217 0.931 . S
H250 C253 0.961 1_655 S
H251 C253 0.961 1_554 S
H252 C253 0.960 . S
C253 C219 1.361 . S
C253 H250 0.961 1_455 S
C253 H251 0.961 1_556 S
C253 H252 0.960 . S
C254 O230 1.253 . S
C254 O239 1.263 . S
C255 O237 1.278 . S
C255 O240 1.237 . S
H256 C220 0.930 1_655 S
H257 C224 0.930 . S
C32 N175 1.364 . S
N223 C56 1.356 . S
N8 C118 1.364 . S
N51 C142 1.356 . S
C199 N94 1.364 . S
C228 N137 1.356 . S
C33 N180 2.447 . S
C82 N218 2.787 . S
N3 C119 2.448 . S
N46 C168 2.786 . S
N89 C212 2.448 . S
C254 N132 2.787 . S
C13 C242 3.010 1_554 S
C83 C39 2.671 . S
C99 C70 3.010 1_564 S
C169 C125 2.671 . S
C156 C211 3.010 1_656 S
C255 C185 2.671 . S
C161 C113 3.003 1_556 S
C205 C162 2.664 1_455 S
C247 C204 3.003 1_546 S
C248 C40 2.664 . S
C27 C75 3.003 1_454 S
C76 C126 2.664 1_545 S
