# Generated by pormake.
# Topology nfa, (4)-cn, num edge types: 1
# Building blocks:
#     Node 0, Type 0, BuildingBlock: NAWXER_clean_sbu_0, # of connection points: 4
#     Node 1, Type 0, BuildingBlock: NAWXER_clean_sbu_0, # of connection points: 4
#     Node 2, Type 0, BuildingBlock: NAWXER_clean_sbu_0, # of connection points: 4
#     Node 3, Type 0, BuildingBlock: NAWXER_clean_sbu_0, # of connection points: 4
#     Node 4, Type 0, BuildingBlock: NAWXER_clean_sbu_0, # of connection points: 4
#     Node 5, Type 0, BuildingBlock: NAWXER_clean_sbu_0, # of connection points: 4
#     Node 6, Type 0, BuildingBlock: NAWXER_clean_sbu_0, # of connection points: 4
#     Node 7, Type 0, BuildingBlock: NAWXER_clean_sbu_0, # of connection points: 4
#     Node 8, Type 0, BuildingBlock: NAWXER_clean_sbu_0, # of connection points: 4
#     Node 9, Type 0, BuildingBlock: NAWXER_clean_sbu_0, # of connection points: 4
#     Node 10, Type 0, BuildingBlock: NAWXER_clean_sbu_0, # of connection points: 4
#     Node 11, Type 0, BuildingBlock: NAWXER_clean_sbu_0, # of connection points: 4
#     Node 12, Type 0, BuildingBlock: NAWXER_clean_sbu_0, # of connection points: 4
#     Node 13, Type 0, BuildingBlock: NAWXER_clean_sbu_0, # of connection points: 4
#     Node 14, Type 0, BuildingBlock: NAWXER_clean_sbu_0, # of connection points: 4
#     Node 15, Type 0, BuildingBlock: NAWXER_clean_sbu_0, # of connection points: 4
#     Node 16, Type 0, BuildingBlock: NAWXER_clean_sbu_0, # of connection points: 4
#     Node 17, Type 0, BuildingBlock: NAWXER_clean_sbu_0, # of connection points: 4
#     Node 18, Type 0, BuildingBlock: NAWXER_clean_sbu_0, # of connection points: 4
#     Node 19, Type 0, BuildingBlock: NAWXER_clean_sbu_0, # of connection points: 4
#     Node 20, Type 0, BuildingBlock: NAWXER_clean_sbu_0, # of connection points: 4
#     Node 21, Type 0, BuildingBlock: NAWXER_clean_sbu_0, # of connection points: 4
#     Node 22, Type 0, BuildingBlock: NAWXER_clean_sbu_0, # of connection points: 4
#     Node 23, Type 0, BuildingBlock: NAWXER_clean_sbu_0, # of connection points: 4
#     Edge 24, Type (0, 0), BuildingBlock: XUDNAN_clean_linker_2, # of connection points: 2
#     Edge 25, Type (0, 0), BuildingBlock: XUDNAN_clean_linker_2, # of connection points: 2
#     Edge 26, Type (0, 0), BuildingBlock: XUDNAN_clean_linker_2, # of connection points: 2
#     Edge 27, Type (0, 0), BuildingBlock: XUDNAN_clean_linker_2, # of connection points: 2
#     Edge 28, Type (0, 0), BuildingBlock: XUDNAN_clean_linker_2, # of connection points: 2
#     Edge 29, Type (0, 0), BuildingBlock: XUDNAN_clean_linker_2, # of connection points: 2
#     Edge 30, Type (0, 0), BuildingBlock: XUDNAN_clean_linker_2, # of connection points: 2
#     Edge 31, Type (0, 0), BuildingBlock: XUDNAN_clean_linker_2, # of connection points: 2
#     Edge 32, Type (0, 0), BuildingBlock: XUDNAN_clean_linker_2, # of connection points: 2
#     Edge 33, Type (0, 0), BuildingBlock: XUDNAN_clean_linker_2, # of connection points: 2
#     Edge 34, Type (0, 0), BuildingBlock: XUDNAN_clean_linker_2, # of connection points: 2
#     Edge 35, Type (0, 0), BuildingBlock: XUDNAN_clean_linker_2, # of connection points: 2
#     Edge 36, Type (0, 0), BuildingBlock: XUDNAN_clean_linker_2, # of connection points: 2
#     Edge 37, Type (0, 0), BuildingBlock: XUDNAN_clean_linker_2, # of connection points: 2
#     Edge 38, Type (0, 0), BuildingBlock: XUDNAN_clean_linker_2, # of connection points: 2
#     Edge 39, Type (0, 0), BuildingBlock: XUDNAN_clean_linker_2, # of connection points: 2
#     Edge 40, Type (0, 0), BuildingBlock: XUDNAN_clean_linker_2, # of connection points: 2
#     Edge 41, Type (0, 0), BuildingBlock: XUDNAN_clean_linker_2, # of connection points: 2
#     Edge 42, Type (0, 0), BuildingBlock: XUDNAN_clean_linker_2, # of connection points: 2
#     Edge 43, Type (0, 0), BuildingBlock: XUDNAN_clean_linker_2, # of connection points: 2
#     Edge 44, Type (0, 0), BuildingBlock: XUDNAN_clean_linker_2, # of connection points: 2
#     Edge 45, Type (0, 0), BuildingBlock: XUDNAN_clean_linker_2, # of connection points: 2
#     Edge 46, Type (0, 0), BuildingBlock: XUDNAN_clean_linker_2, # of connection points: 2
#     Edge 47, Type (0, 0), BuildingBlock: XUDNAN_clean_linker_2, # of connection points: 2
#     Edge 48, Type (0, 0), BuildingBlock: XUDNAN_clean_linker_2, # of connection points: 2
#     Edge 49, Type (0, 0), BuildingBlock: XUDNAN_clean_linker_2, # of connection points: 2
#     Edge 50, Type (0, 0), BuildingBlock: XUDNAN_clean_linker_2, # of connection points: 2
#     Edge 51, Type (0, 0), BuildingBlock: XUDNAN_clean_linker_2, # of connection points: 2
#     Edge 52, Type (0, 0), BuildingBlock: XUDNAN_clean_linker_2, # of connection points: 2
#     Edge 53, Type (0, 0), BuildingBlock: XUDNAN_clean_linker_2, # of connection points: 2
#     Edge 54, Type (0, 0), BuildingBlock: XUDNAN_clean_linker_2, # of connection points: 2
#     Edge 55, Type (0, 0), BuildingBlock: XUDNAN_clean_linker_2, # of connection points: 2
#     Edge 56, Type (0, 0), BuildingBlock: XUDNAN_clean_linker_2, # of connection points: 2
#     Edge 57, Type (0, 0), BuildingBlock: XUDNAN_clean_linker_2, # of connection points: 2
#     Edge 58, Type (0, 0), BuildingBlock: XUDNAN_clean_linker_2, # of connection points: 2
#     Edge 59, Type (0, 0), BuildingBlock: XUDNAN_clean_linker_2, # of connection points: 2
#     Edge 60, Type (0, 0), BuildingBlock: XUDNAN_clean_linker_2, # of connection points: 2
#     Edge 61, Type (0, 0), BuildingBlock: XUDNAN_clean_linker_2, # of connection points: 2
#     Edge 62, Type (0, 0), BuildingBlock: XUDNAN_clean_linker_2, # of connection points: 2
#     Edge 63, Type (0, 0), BuildingBlock: XUDNAN_clean_linker_2, # of connection points: 2
#     Edge 64, Type (0, 0), BuildingBlock: XUDNAN_clean_linker_2, # of connection points: 2
#     Edge 65, Type (0, 0), BuildingBlock: XUDNAN_clean_linker_2, # of connection points: 2
#     Edge 66, Type (0, 0), BuildingBlock: XUDNAN_clean_linker_2, # of connection points: 2
#     Edge 67, Type (0, 0), BuildingBlock: XUDNAN_clean_linker_2, # of connection points: 2
#     Edge 68, Type (0, 0), BuildingBlock: XUDNAN_clean_linker_2, # of connection points: 2
#     Edge 69, Type (0, 0), BuildingBlock: XUDNAN_clean_linker_2, # of connection points: 2
#     Edge 70, Type (0, 0), BuildingBlock: XUDNAN_clean_linker_2, # of connection points: 2
#     Edge 71, Type (0, 0), BuildingBlock: XUDNAN_clean_linker_2, # of connection points: 2
# Relax obj value: 0.171
# Max RMSD: 0.184
# Mean RMSD: 0.184
data_MOF--net-nfa--node1-NAWXER_clean_sbu_0--edge1-XUDNAN_clean_linker_2
_symmetry_space_group_name_H-M    P1
_symmetry_Int_Tables_number       1
_symmetry_cell_setting            triclinic
loop_
_symmetry_equiv_pos_as_xyz
'x, y, z'
_cell_length_a     40.150983
_cell_length_b     39.945982
_cell_length_c     39.852489
_cell_angle_alpha  90.109913
_cell_angle_beta   90.039371
_cell_angle_gamma 90.122246
loop_
_atom_site_label
_atom_site_type_symbol
_atom_site_fract_x
_atom_site_fract_y
_atom_site_fract_z
_atom_type_partial_charge
C0 C 0.15329 0.36065 0.41131 0.0
C1 C 0.12837 0.43516 0.31678 0.0
O2 O 0.13084 0.38236 0.41837 0.0
Zn3 Zn 0.10536 0.42239 0.39298 0.0
O4 O 0.16703 0.36108 0.38255 0.0
Zn5 Zn 0.14158 0.39696 0.36304 0.0
O6 O 0.15955 0.44069 0.38816 0.0
O7 O 0.11809 0.46311 0.41673 0.0
O8 O 0.14892 0.41093 0.3164 0.0
O9 O 0.11094 0.44046 0.34313 0.0
O10 O 0.0594 0.40658 0.39309 0.0
O11 O 0.0929 0.37481 0.36286 0.0
C12 C 0.14819 0.46422 0.40674 0.0
C13 C 0.06401 0.38057 0.37522 0.0
C14 C 0.91277 0.87637 0.61921 0.0
C15 C 0.8185 0.93873 0.6628 0.0
O16 O 0.91487 0.90758 0.61198 0.0
Zn17 Zn 0.88442 0.95155 0.61848 0.0
O18 O 0.886 0.86514 0.63192 0.0
Zn19 Zn 0.86388 0.90743 0.63876 0.0
O20 O 0.84284 0.92183 0.59137 0.0
O21 O 0.86988 0.96653 0.57417 0.0
O22 O 0.82415 0.90753 0.66543 0.0
O23 O 0.83913 0.95753 0.647 0.0
O24 O 0.91557 0.97875 0.64336 0.0
O25 O 0.89919 0.93343 0.67051 0.0
C26 C 0.8466 0.94535 0.56986 0.0
C27 C 0.91744 0.9598 0.66894 0.0
C28 C 0.33409 0.69907 0.8612 0.0
C29 C 0.35687 0.61922 0.77052 0.0
O30 O 0.34283 0.6702 0.87192 0.0
Zn31 Zn 0.35443 0.62216 0.85162 0.0
O32 O 0.32771 0.70268 0.83016 0.0
Zn33 Zn 0.34091 0.65795 0.81489 0.0
O34 O 0.30181 0.62303 0.82742 0.0
O35 O 0.32151 0.59158 0.86817 0.0
O36 O 0.34609 0.649 0.76728 0.0
O37 O 0.36081 0.60696 0.80001 0.0
O38 O 0.39909 0.61815 0.86867 0.0
O39 O 0.39226 0.65775 0.83048 0.0
C40 C 0.2981 0.59861 0.84799 0.0
C41 C 0.41096 0.64196 0.85117 0.0
C42 C 0.61183 0.092 0.16383 0.0
C43 C 0.67494 0.10527 0.05928 0.0
O44 O 0.63443 0.11462 0.1654 0.0
Zn45 Zn 0.67199 0.13596 0.1337 0.0
O46 O 0.60895 0.0741 0.13753 0.0
Zn47 Zn 0.64248 0.09766 0.11109 0.0
O48 O 0.68841 0.08104 0.13289 0.0
O49 O 0.71386 0.12482 0.15524 0.0
O50 O 0.64953 0.08678 0.06396 0.0
O51 O 0.68495 0.12477 0.08277 0.0
O52 O 0.65594 0.18175 0.13384 0.0
O53 O 0.62054 0.14654 0.11019 0.0
C54 C 0.71353 0.09373 0.1482 0.0
C55 C 0.62762 0.17606 0.12061 0.0
C56 C 0.16694 0.53749 0.0577 0.0
C57 C 0.08758 0.62893 0.07242 0.0
O58 O 0.18049 0.56502 0.06713 0.0
Zn59 Zn 0.16618 0.61527 0.07801 0.0
O60 O 0.13661 0.53747 0.0484 0.0
Zn61 Zn 0.12683 0.58394 0.05981 0.0
O62 O 0.14861 0.61539 0.02194 0.0
O63 O 0.18868 0.64427 0.04664 0.0
O64 O 0.08116 0.59985 0.06094 0.0
O65 O 0.11765 0.6371 0.07938 0.0
O66 O 0.17815 0.61584 0.12551 0.0
O67 O 0.13654 0.58168 0.11254 0.0
C68 C 0.17157 0.63773 0.0206 0.0
C69 C 0.15651 0.59419 0.13421 0.0
C70 C 0.61053 0.90217 0.31218 0.0
C71 C 0.65353 0.93765 0.42297 0.0
O72 O 0.62881 0.88077 0.32736 0.0
Zn73 Zn 0.65444 0.87448 0.37332 0.0
O74 O 0.6055 0.93062 0.32574 0.0
Zn75 Zn 0.62975 0.92232 0.36789 0.0
O76 O 0.68046 0.92191 0.35385 0.0
O77 O 0.70193 0.87187 0.36231 0.0
O78 O 0.63544 0.9557 0.40388 0.0
O79 O 0.65982 0.9074 0.41464 0.0
O80 O 0.62962 0.83699 0.39168 0.0
O81 O 0.60014 0.88373 0.38995 0.0
C82 C 0.70581 0.90262 0.35471 0.0
C83 C 0.60246 0.85252 0.39691 0.0
C84 C 0.27091 0.39591 0.64229 0.0
C85 C 0.37194 0.33039 0.6369 0.0
O86 O 0.28068 0.37295 0.6619 0.0
Zn87 Zn 0.32113 0.36173 0.63865 0.0
O88 O 0.28667 0.40109 0.61478 0.0
Zn89 Zn 0.33162 0.38328 0.5916 0.0
O90 O 0.31983 0.35931 0.55101 0.0
O91 O 0.30895 0.32991 0.59642 0.0
O92 O 0.36811 0.34868 0.61078 0.0
O93 O 0.3516 0.33263 0.66123 0.0
O94 O 0.34739 0.40862 0.64002 0.0
O95 O 0.35596 0.42521 0.58794 0.0
C96 C 0.31158 0.33162 0.56439 0.0
C97 C 0.35856 0.43045 0.61932 0.0
C98 C 0.84634 0.09144 0.88285 0.0
C99 C 0.93705 0.06761 0.80199 0.0
O100 O 0.84276 0.10361 0.85337 0.0
Zn101 Zn 0.86735 0.10625 0.80628 0.0
O102 O 0.87311 0.0759 0.8902 0.0
Zn103 Zn 0.89392 0.0779 0.84516 0.0
O104 O 0.90752 0.1288 0.84107 0.0
O105 O 0.87845 0.1537 0.80103 0.0
O106 O 0.93637 0.05632 0.83192 0.0
O107 O 0.9127 0.08509 0.79121 0.0
O108 O 0.835 0.08248 0.77813 0.0
O109 O 0.85794 0.05083 0.81733 0.0
C110 C 0.90091 0.15473 0.8236 0.0
C111 C 0.83724 0.05448 0.79321 0.0
C112 C 0.43281 0.13692 0.32575 0.0
C113 C 0.31759 0.16251 0.35975 0.0
O114 O 0.41998 0.1165 0.34684 0.0
Zn115 Zn 0.3751 0.10875 0.37352 0.0
O116 O 0.41679 0.16322 0.31773 0.0
Zn117 Zn 0.37546 0.15371 0.34248 0.0
O118 O 0.38558 0.16273 0.3936 0.0
O119 O 0.38345 0.11541 0.4218 0.0
O120 O 0.33492 0.18146 0.34074 0.0
O121 O 0.33021 0.1356 0.37135 0.0
O122 O 0.36115 0.06619 0.35369 0.0
O123 O 0.35933 0.10896 0.3185 0.0
C124 C 0.38585 0.14724 0.42164 0.0
C125 C 0.35511 0.07775 0.3245 0.0
C126 C 0.14444 0.18669 0.58558 0.0
C127 C 0.20077 0.11635 0.66934 0.0
O128 O 0.15562 0.19685 0.61378 0.0
Zn129 Zn 0.17103 0.15291 0.62926 0.0
O130 O 0.1429 0.15518 0.57964 0.0
Zn131 Zn 0.16131 0.10927 0.5999 0.0
O132 O 0.12253 0.08206 0.60929 0.0
O133 O 0.12678 0.12594 0.64293 0.0
O134 O 0.18955 0.10011 0.64401 0.0
O135 O 0.19722 0.14799 0.6704 0.0
O136 O 0.20513 0.14433 0.5886 0.0
O137 O 0.19027 0.09783 0.56263 0.0
C138 C 0.11178 0.09898 0.63403 0.0
C139 C 0.20845 0.12397 0.56393 0.0
C140 C 0.18642 0.93739 0.82988 0.0
C141 C 0.15083 0.82531 0.86409 0.0
O142 O 0.19746 0.90923 0.81999 0.0
Zn143 Zn 0.16679 0.88138 0.84459 0.0
O144 O 0.16253 0.93833 0.85132 0.0
Zn145 Zn 0.13103 0.90225 0.8773 0.0
O146 O 0.1404 0.91098 0.92399 0.0
O147 O 0.18224 0.88804 0.89626 0.0
O148 O 0.13448 0.84856 0.87887 0.0
O149 O 0.17016 0.83278 0.84 0.0
O150 O 0.12114 0.89555 0.8208 0.0
O151 O 0.08664 0.91206 0.86048 0.0
C152 C 0.16953 0.89849 0.92393 0.0
C153 C 0.0927 0.90704 0.82964 0.0
C154 C 0.37932 0.92872 0.13334 0.0
C155 C 0.4038 0.85338 0.03987 0.0
O156 O 0.37748 0.89771 0.14142 0.0
Zn157 Zn 0.38522 0.84968 0.11817 0.0
O158 O 0.38863 0.93707 0.10398 0.0
Zn159 Zn 0.39683 0.89235 0.08785 0.0
O160 O 0.34701 0.87468 0.08574 0.0
O161 O 0.33978 0.8314 0.11962 0.0
O162 O 0.40938 0.88473 0.04107 0.0
O163 O 0.39635 0.83788 0.06697 0.0
O164 O 0.42089 0.83061 0.14488 0.0
O165 O 0.43686 0.8771 0.1197 0.0
C166 C 0.32831 0.85188 0.09804 0.0
C167 C 0.44269 0.85327 0.14033 0.0
C168 C 0.41183 0.28676 0.1298 0.0
C169 C 0.32051 0.36806 0.14022 0.0
O170 O 0.41804 0.31533 0.11681 0.0
Zn171 Zn 0.39528 0.36289 0.11176 0.0
O172 O 0.38371 0.28132 0.14351 0.0
Zn173 Zn 0.36476 0.32578 0.1365 0.0
O174 O 0.35751 0.3294 0.08366 0.0
O175 O 0.38989 0.36933 0.0634 0.0
O176 O 0.31954 0.33793 0.15068 0.0
O177 O 0.34732 0.37936 0.12701 0.0
O178 O 0.42614 0.38952 0.13898 0.0
O179 O 0.39613 0.35419 0.1691 0.0
C180 C 0.36743 0.3472 0.05895 0.0
C181 C 0.41871 0.37677 0.16726 0.0
C182 C 0.91433 0.87961 0.22541 0.0
C183 C 0.86357 0.80918 0.13734 0.0
O184 O 0.92703 0.88402 0.1963 0.0
Zn185 Zn 0.91855 0.86778 0.14609 0.0
O186 O 0.8903 0.85914 0.22907 0.0
Zn187 Zn 0.88576 0.84538 0.18214 0.0
O188 O 0.9301 0.81787 0.17078 0.0
O189 O 0.95997 0.84569 0.13352 0.0
O190 O 0.85402 0.81054 0.16783 0.0
O191 O 0.8853 0.83028 0.12688 0.0
O192 O 0.90488 0.90923 0.12466 0.0
O193 O 0.86732 0.8903 0.1603 0.0
C194 C 0.9551 0.81934 0.15084 0.0
C195 C 0.87706 0.91268 0.1395 0.0
C196 C 0.04824 0.61971 0.67675 0.0
C197 C 0.12931 0.6469 0.58928 0.0
O198 O 0.07344 0.6365 0.68696 0.0
Zn199 Zn 0.11836 0.65729 0.66827 0.0
O200 O 0.04599 0.61067 0.64618 0.0
Zn201 Zn 0.08707 0.63205 0.63103 0.0
O202 O 0.12424 0.60213 0.6531 0.0
O203 O 0.15232 0.63048 0.69156 0.0
O204 O 0.10182 0.63172 0.58432 0.0
O205 O 0.13718 0.65722 0.61862 0.0
O206 O 0.11089 0.70531 0.67601 0.0
O207 O 0.0757 0.68301 0.63951 0.0
C208 C 0.1474 0.60353 0.67508 0.0
C209 C 0.08578 0.70816 0.65665 0.0
C210 C 0.64525 0.82105 0.93576 0.0
C211 C 0.59509 0.91373 0.87587 0.0
O212 O 0.63873 0.85024 0.94656 0.0
Zn213 Zn 0.62375 0.86911 0.90474 0.0
O214 O 0.64497 0.81559 0.90401 0.0
Zn215 Zn 0.63116 0.84364 0.85949 0.0
O216 O 0.67076 0.85112 0.83337 0.0
O217 O 0.66746 0.88446 0.87728 0.0
O218 O 0.6054 0.89105 0.85559 0.0
O219 O 0.59958 0.91059 0.90722 0.0
O220 O 0.58559 0.83302 0.89082 0.0
O221 O 0.59934 0.81327 0.84081 0.0
C222 C 0.68199 0.87581 0.84993 0.0
C223 C 0.5801 0.81309 0.86611 0.0
C224 C 0.94268 0.07504 0.37106 0.0
C225 C 0.92012 0.14872 0.46715 0.0
O226 O 0.96059 0.079 0.39712 0.0
Zn227 Zn 0.93203 0.11191 0.41886 0.0
O228 O 0.91735 0.09401 0.36647 0.0
Zn229 Zn 0.89085 0.13252 0.39365 0.0
O230 O 0.89542 0.17241 0.36672 0.0
O231 O 0.94212 0.15785 0.39189 0.0
O232 O 0.89954 0.15323 0.44296 0.0
O233 O 0.94162 0.12551 0.4648 0.0
O234 O 0.88668 0.08246 0.42181 0.0
O235 O 0.84771 0.11101 0.3955 0.0
C236 C 0.92571 0.17858 0.3737 0.0
C237 C 0.85679 0.08451 0.41057 0.0
C238 C 0.6222 0.07915 0.65178 0.0
C239 C 0.51801 0.13928 0.65664 0.0
O240 O 0.62415 0.10416 0.6719 0.0
Zn241 Zn 0.59167 0.14323 0.6887 0.0
O242 O 0.59602 0.07474 0.6345 0.0
Zn243 Zn 0.57022 0.11063 0.65284 0.0
O244 O 0.58931 0.15659 0.6322 0.0
O245 O 0.61113 0.18526 0.67408 0.0
O246 O 0.52492 0.11394 0.63861 0.0
O247 O 0.54007 0.15177 0.67636 0.0
O248 O 0.58991 0.13326 0.73618 0.0
O249 O 0.56456 0.09562 0.70432 0.0
C250 C 0.60333 0.18332 0.64322 0.0
C251 C 0.57342 0.10619 0.73336 0.0
C252 C 0.16388 0.34931 0.92715 0.0
C253 C 0.05636 0.38691 0.88185 0.0
O254 O 0.1599 0.34216 0.89599 0.0
Zn255 Zn 0.12329 0.35 0.8574 0.0
O256 O 0.14064 0.36391 0.94315 0.0
Zn257 Zn 0.10959 0.36929 0.90619 0.0
O258 O 0.09167 0.32032 0.89467 0.0
O259 O 0.10826 0.30509 0.84414 0.0
O260 O 0.06652 0.39203 0.91172 0.0
O261 O 0.07539 0.37259 0.86053 0.0
O262 O 0.14646 0.38007 0.82633 0.0
O263 O 0.13677 0.40286 0.87592 0.0
C264 C 0.09102 0.29927 0.87035 0.0
C265 C 0.14941 0.40459 0.84657 0.0
C266 C 0.33482 0.67284 0.46294 0.0
C267 C 0.42433 0.63926 0.38615 0.0
O268 O 0.33283 0.68525 0.43342 0.0
Zn269 Zn 0.35723 0.68231 0.38623 0.0
O270 O 0.35899 0.6536 0.4704 0.0
Zn271 Zn 0.37968 0.65386 0.426 0.0
O272 O 0.39751 0.70401 0.42079 0.0
O273 O 0.37164 0.72806 0.37815 0.0
O274 O 0.42103 0.63002 0.41653 0.0
O275 O 0.40167 0.65711 0.37246 0.0
O276 O 0.32163 0.66191 0.36015 0.0
O277 O 0.34128 0.6282 0.39922 0.0
C278 C 0.39322 0.72924 0.40153 0.0
C279 C 0.3202 0.63423 0.37587 0.0
C280 C 0.86504 0.63615 0.96504 0.0
C281 C 0.81588 0.58893 0.86197 0.0
O282 O 0.86255 0.65696 0.9408 0.0
Zn283 Zn 0.8425 0.65934 0.89143 0.0
O284 O 0.85728 0.60556 0.96027 0.0
Zn285 Zn 0.84106 0.61077 0.91409 0.0
O286 O 0.88387 0.62057 0.88357 0.0
O287 O 0.88015 0.67204 0.86384 0.0
O288 O 0.82145 0.57355 0.88936 0.0
O289 O 0.82143 0.62055 0.86042 0.0
O290 O 0.80721 0.69142 0.90187 0.0
O291 O 0.80049 0.6423 0.92616 0.0
C292 C 0.89534 0.64413 0.86501 0.0
C293 C 0.79141 0.67271 0.92225 0.0
C294 C 0.60637 0.66901 0.12316 0.0
C295 C 0.65596 0.5921 0.20485 0.0
O296 O 0.62332 0.68358 0.14623 0.0
Zn297 Zn 0.65364 0.67082 0.18838 0.0
O298 O 0.60104 0.63761 0.12504 0.0
Zn299 Zn 0.62897 0.62955 0.16413 0.0
O300 O 0.60216 0.65071 0.20515 0.0
O301 O 0.63202 0.69199 0.22671 0.0
O302 O 0.63719 0.58433 0.18029 0.0
O303 O 0.66415 0.62283 0.20931 0.0
O304 O 0.6961 0.68743 0.16995 0.0
O305 O 0.67465 0.64489 0.14198 0.0
C306 C 0.60612 0.67356 0.22741 0.0
C307 C 0.69684 0.6678 0.1447 0.0
C308 C 0.58356 0.3514 0.46534 0.0
C309 C 0.63356 0.42639 0.38245 0.0
O310 O 0.59449 0.336 0.43934 0.0
Zn311 Zn 0.61922 0.34781 0.39308 0.0
O312 O 0.58312 0.38326 0.46554 0.0
Zn313 Zn 0.6059 0.39003 0.42309 0.0
O314 O 0.57043 0.37755 0.38473 0.0
O315 O 0.58923 0.33335 0.35741 0.0
O316 O 0.6201 0.43441 0.41018 0.0
O317 O 0.63493 0.39554 0.37361 0.0
O318 O 0.66075 0.32371 0.40267 0.0
O319 O 0.65195 0.36715 0.4358 0.0
C320 C 0.56732 0.35604 0.36098 0.0
C321 C 0.66963 0.34191 0.42742 0.0
C322 C 0.88025 0.35792 0.72553 0.0
C323 C 0.79973 0.34295 0.63306 0.0
O324 O 0.88629 0.37505 0.69909 0.0
Zn325 Zn 0.86661 0.38312 0.65005 0.0
O326 O 0.85678 0.33636 0.7254 0.0
Zn327 Zn 0.83979 0.34702 0.68034 0.0
O328 O 0.87604 0.32555 0.64808 0.0
O329 O 0.90004 0.36563 0.61864 0.0
O330 O 0.79892 0.3273 0.66088 0.0
O331 O 0.82301 0.36411 0.62763 0.0
O332 O 0.85632 0.43079 0.6546 0.0
O333 O 0.82746 0.3986 0.68907 0.0
C334 C 0.89669 0.33468 0.62545 0.0
C335 C 0.83577 0.42785 0.67882 0.0
H336 H 0.14217 0.35833 0.47961 0.0
H337 H 0.17569 0.29845 0.39513 0.0
H338 H 0.17556 0.24823 0.4309 0.0
H339 H 0.19248 0.3123 0.54325 0.0
H340 H 0.16089 0.31641 0.57509 0.0
H341 H 0.16529 0.34815 0.54332 0.0
H342 H 0.10312 0.34052 0.52761 0.0
H343 H 0.09868 0.30825 0.55881 0.0
H344 H 0.08805 0.29964 0.51569 0.0
H345 H 0.16473 0.20404 0.47251 0.0
H346 H 0.15525 0.16836 0.52121 0.0
H347 H 0.13426 0.25603 0.58248 0.0
C348 C 0.15014 0.33474 0.46889 0.0
C349 C 0.15894 0.3323 0.43452 0.0
C350 C 0.16916 0.30102 0.42137 0.0
C351 C 0.16888 0.27229 0.44144 0.0
C352 C 0.15902 0.27533 0.47481 0.0
C353 C 0.15082 0.30582 0.48885 0.0
C354 C 0.14172 0.30184 0.52571 0.0
C355 C 0.16658 0.3208 0.54817 0.0
C356 C 0.10576 0.31324 0.53233 0.0
C357 C 0.14517 0.26419 0.52983 0.0
C358 C 0.1547 0.2496 0.49984 0.0
C359 C 0.15774 0.21519 0.49625 0.0
C360 C 0.15186 0.19509 0.52422 0.0
C361 C 0.14382 0.20925 0.55596 0.0
C362 C 0.14025 0.24441 0.55868 0.0
H363 H 0.92061 0.9346 0.73276 0.0
H364 H 0.97665 0.99215 0.6597 0.0
H365 H 0.02721 0.98597 0.69423 0.0
H366 H 0.96496 0.96768 0.80852 0.0
H367 H 0.96314 0.92776 0.82935 0.0
H368 H 0.93063 0.93969 0.80056 0.0
H369 H 0.94053 0.88526 0.76683 0.0
H370 H 0.97352 0.87339 0.79496 0.0
H371 H 0.98148 0.87647 0.75056 0.0
H372 H 0.07303 0.96473 0.73063 0.0
H373 H 0.10999 0.9408 0.77376 0.0
H374 H 0.02416 0.90136 0.82674 0.0
C375 C 0.94327 0.94691 0.72465 0.0
C376 C 0.94472 0.96386 0.69354 0.0
C377 C 0.97486 0.97934 0.68356 0.0
C378 C 0.0038 0.97572 0.70289 0.0
C379 C 0.00191 0.95742 0.73257 0.0
C380 C 0.97223 0.94423 0.74406 0.0
C381 C 0.97729 0.92486 0.77639 0.0
C382 C 0.95787 0.94097 0.80543 0.0
C383 C 0.96763 0.88781 0.77189 0.0
C384 C 0.01458 0.92882 0.781 0.0
C385 C 0.02828 0.94712 0.75499 0.0
C386 C 0.06254 0.9513 0.75167 0.0
C387 C 0.08332 0.93728 0.77605 0.0
C388 C 0.06982 0.91956 0.80362 0.0
C389 C 0.03499 0.91534 0.80618 0.0
H390 H 0.39556 0.78616 0.02968 0.0
H391 H 0.39734 0.88101 0.97685 0.0
H392 H 0.37617 0.8527 0.92575 0.0
H393 H 0.42088 0.73418 0.95846 0.0
H394 H 0.39439 0.70004 0.97125 0.0
H395 H 0.4116 0.72797 1.00228 0.0
H396 H 0.3519 0.73998 0.02413 0.0
H397 H 0.33456 0.71271 0.99259 0.0
H398 H 0.32082 0.75551 0.99552 0.0
H399 H 0.35134 0.81348 0.88094 0.0
H400 H 0.33281 0.76626 0.84504 0.0
H401 H 0.34683 0.69822 0.92859 0.0
C402 C 0.39225 0.80097 0.00719 0.0
C403 C 0.39839 0.83586 0.00733 0.0
C404 C 0.39336 0.85419 0.97732 0.0
C405 C 0.38094 0.83837 0.94825 0.0
C406 C 0.37386 0.80415 0.9495 0.0
C407 C 0.37996 0.78563 0.97809 0.0
C408 C 0.37041 0.74927 0.97323 0.0
C409 C 0.40115 0.72653 0.97649 0.0
C410 C 0.34279 0.73878 0.99783 0.0
C411 C 0.35767 0.75013 0.9375 0.0
C412 C 0.35964 0.78197 0.92416 0.0
C413 C 0.34978 0.78846 0.8912 0.0
C414 C 0.33897 0.76151 0.87105 0.0
C415 C 0.33816 0.72844 0.88391 0.0
C416 C 0.34685 0.72313 0.9179 0.0
H417 H 0.47137 0.17283 0.2802 0.0
H418 H 0.46206 0.07556 0.32799 0.0
H419 H 0.50626 0.0534 0.29183 0.0
H420 H 0.48616 0.14356 0.19803 0.0
H421 H 0.51735 0.17407 0.18712 0.0
H422 H 0.48582 0.18433 0.21753 0.0
H423 H 0.53046 0.19939 0.26138 0.0
H424 H 0.56283 0.18998 0.23155 0.0
H425 H 0.56239 0.16946 0.27175 0.0
H426 H 0.54745 0.03955 0.24636 0.0
H427 H 0.58936 0.03827 0.20047 0.0
H428 H 0.576 0.14486 0.18569 0.0
C429 C 0.47906 0.14708 0.28348 0.0
C430 C 0.46305 0.12609 0.30709 0.0
C431 C 0.47387 0.0924 0.31034 0.0
C432 C 0.49892 0.07937 0.28972 0.0
C433 C 0.51358 0.10037 0.2662 0.0
C434 C 0.50465 0.13371 0.26344 0.0
C435 C 0.52485 0.15086 0.23628 0.0
C436 C 0.50218 0.16398 0.20809 0.0
C437 C 0.54641 0.1791 0.25114 0.0
C438 C 0.54612 0.12188 0.22417 0.0
C439 C 0.53885 0.09281 0.24135 0.0
C440 C 0.55387 0.0623 0.23313 0.0
C441 C 0.57745 0.06169 0.20704 0.0
C442 C 0.58613 0.09151 0.19018 0.0
C443 C 0.57016 0.12185 0.1988 0.0
H444 H 0.14751 0.81257 0.93055 0.0
H445 H 0.16054 0.76339 0.83442 0.0
H446 H 0.16797 0.70896 0.86373 0.0
H447 H 0.21118 0.7665 0.97202 0.0
H448 H 0.18986 0.76671 0.01178 0.0
H449 H 0.18323 0.80027 0.98242 0.0
H450 H 0.11942 0.78813 0.98425 0.0
H451 H 0.12645 0.75441 0.01328 0.0
H452 H 0.10451 0.7466 0.97458 0.0
H453 H 0.1718 0.65927 0.90513 0.0
H454 H 0.17594 0.62071 0.95389 0.0
H455 H 0.1674 0.70514 0.02161 0.0
C456 C 0.15113 0.79023 0.91552 0.0
C457 C 0.15252 0.79195 0.88014 0.0
C458 C 0.1588 0.76243 0.86152 0.0
C459 C 0.16311 0.73151 0.87798 0.0
C460 C 0.16189 0.73082 0.91305 0.0
C461 C 0.15638 0.75961 0.9315 0.0
C462 C 0.1585 0.7531 0.96883 0.0
C463 C 0.18739 0.77287 0.98472 0.0
C464 C 0.12524 0.76102 0.98624 0.0
C465 C 0.16559 0.71595 0.96873 0.0
C466 C 0.16705 0.7033 0.93642 0.0
C467 C 0.1713 0.66909 0.93045 0.0
C468 C 0.17378 0.6474 0.95818 0.0
C469 C 0.17305 0.6602 0.9913 0.0
C470 C 0.16923 0.69491 0.99648 0.0
H471 H 0.56727 0.93838 0.27148 0.0
H472 H 0.61126 0.83992 0.28437 0.0
H473 H 0.5756 0.81765 0.23964 0.0
H474 H 0.48523 0.91168 0.25676 0.0
H475 H 0.47603 0.94207 0.22471 0.0
H476 H 0.50672 0.95136 0.25631 0.0
H477 H 0.55026 0.9632 0.20985 0.0
H478 H 0.51952 0.95384 0.17818 0.0
H479 H 0.55857 0.93165 0.17855 0.0
H480 H 0.53019 0.80372 0.19931 0.0
H481 H 0.48182 0.80112 0.16071 0.0
H482 H 0.46996 0.90864 0.16946 0.0
C483 C 0.56993 0.91236 0.26435 0.0
C484 C 0.59222 0.89105 0.28163 0.0
C485 C 0.59459 0.85698 0.27163 0.0
C486 C 0.57433 0.84392 0.24619 0.0
C487 C 0.55209 0.86526 0.2303 0.0
C488 C 0.55014 0.89889 0.23844 0.0
C489 C 0.52346 0.91603 0.21767 0.0
C490 C 0.49626 0.93116 0.24023 0.0
C491 C 0.53888 0.94276 0.1947 0.0
C492 C 0.51021 0.88655 0.1975 0.0
C493 C 0.52699 0.85746 0.20534 0.0
C494 C 0.51736 0.82644 0.19227 0.0
C495 C 0.48987 0.82513 0.1705 0.0
C496 C 0.4728 0.8547 0.16158 0.0
C497 C 0.48332 0.88578 0.17508 0.0
H498 H 0.34421 0.32187 0.50494 0.0
H499 H 0.2891 0.26905 0.58206 0.0
H500 H 0.3061 0.21499 0.55703 0.0
H501 H 0.32842 0.26547 0.43609 0.0
H502 H 0.36992 0.26921 0.41931 0.0
H503 H 0.3518 0.30349 0.44223 0.0
H504 H 0.40183 0.30399 0.48292 0.0
H505 H 0.42048 0.26954 0.46064 0.0
H506 H 0.41284 0.26632 0.5051 0.0
H507 H 0.33001 0.166 0.5226 0.0
H508 H 0.35559 0.12801 0.48072 0.0
H509 H 0.39798 0.21385 0.42964 0.0
C510 C 0.33466 0.29902 0.51594 0.0
C511 C 0.31463 0.29986 0.54509 0.0
C512 C 0.30391 0.26915 0.55936 0.0
C513 C 0.31376 0.23828 0.54551 0.0
C514 C 0.33447 0.23841 0.51742 0.0
C515 C 0.34463 0.26807 0.50277 0.0
C516 C 0.36809 0.26171 0.47377 0.0
C517 C 0.3537 0.27577 0.4409 0.0
C518 C 0.40286 0.27626 0.48106 0.0
C519 C 0.36882 0.22381 0.47363 0.0
C520 C 0.34951 0.21067 0.49908 0.0
C521 C 0.34553 0.1761 0.50285 0.0
C522 C 0.36057 0.15461 0.4792 0.0
C523 C 0.37934 0.16777 0.45212 0.0
C524 C 0.3843 0.20282 0.45029 0.0
H525 H 0.05189 0.12632 0.65077 0.0
H526 H 0.11638 0.04181 0.67011 0.0
H527 H 0.07942 0.02375 0.71652 0.0
H528 H 0.03148 0.1448 0.73415 0.0
H529 H 0.98851 0.15504 0.72619 0.0
H530 H 0.01914 0.16073 0.69374 0.0
H531 H 0.98542 0.12273 0.65327 0.0
H532 H 0.95409 0.11761 0.68518 0.0
H533 H 0.97337 0.08133 0.66661 0.0
H534 H 0.03755 0.01909 0.76542 0.0
H535 H 0.98978 0.02247 0.80503 0.0
H536 H 0.95174 0.10739 0.74927 0.0
C537 C 0.05758 0.10349 0.6642 0.0
C538 C 0.08643 0.08503 0.65667 0.0
C539 C 0.09377 0.05571 0.67513 0.0
C540 C 0.07311 0.04545 0.70167 0.0
C541 C 0.04488 0.06442 0.70885 0.0
C542 C 0.03675 0.09238 0.69005 0.0
C543 C 0.00503 0.10838 0.7025 0.0
C544 C 0.01144 0.14436 0.71488 0.0
C545 C 0.97787 0.10744 0.67527 0.0
C546 C 0.9967 0.08528 0.73131 0.0
C547 C 0.02011 0.06039 0.73518 0.0
C548 C 0.01839 0.03771 0.76185 0.0
C549 C 0.99133 0.03987 0.78432 0.0
C550 C 0.96643 0.06444 0.7797 0.0
C551 C 0.96968 0.08753 0.75302 0.0
H552 H 0.23246 0.53052 0.07365 0.0
H553 H 0.14121 0.47337 0.06175 0.0
H554 H 0.16871 0.42418 0.08754 0.0
H555 H 0.28986 0.4634 0.05649 0.0
H556 H 0.31943 0.47837 0.08708 0.0
H557 H 0.29224 0.50741 0.06624 0.0
H558 H 0.27177 0.52843 0.12436 0.0
H559 H 0.29812 0.49862 0.14535 0.0
H560 H 0.254 0.49899 0.15353 0.0
H561 H 0.20734 0.38124 0.11646 0.0
H562 H 0.25479 0.34755 0.13752 0.0
H563 H 0.3182 0.43537 0.13251 0.0
C564 C 0.21829 0.50753 0.07581 0.0
C565 C 0.18468 0.50585 0.06546 0.0
C566 C 0.16714 0.47521 0.06904 0.0
C567 C 0.18241 0.44728 0.08415 0.0
C568 C 0.21515 0.45048 0.0956 0.0
C569 C 0.23295 0.47975 0.09096 0.0
C570 C 0.26779 0.47717 0.10497 0.0
C571 C 0.29386 0.48184 0.07704 0.0
C572 C 0.27322 0.5023 0.13376 0.0
C573 C 0.26723 0.44164 0.11784 0.0
C574 C 0.23661 0.42658 0.11273 0.0
C575 C 0.23123 0.393 0.12096 0.0
C576 C 0.25825 0.37409 0.13322 0.0
C577 C 0.29015 0.38887 0.13696 0.0
C578 C 0.29407 0.42337 0.13031 0.0
H579 H 0.79454 0.03872 0.8413 0.0
H580 H 0.82406 0.01087 0.74071 0.0
H581 H 0.78706 0.96069 0.74403 0.0
H582 H 0.79494 0.95899 0.87498 0.0
H583 H 0.75972 0.96553 0.90224 0.0
H584 H 0.78549 1.00041 0.89028 0.0
H585 H 0.7342 0.03132 0.86819 0.0
H586 H 0.70716 0.99683 0.87859 0.0
H587 H 0.70863 0.0126 0.83622 0.0
H588 H 0.74954 0.91148 0.76113 0.0
H589 H 0.71237 0.87013 0.78828 0.0
H590 H 0.70916 0.93215 0.87779 0.0
C591 C 0.79219 0.02278 0.81945 0.0
C592 C 0.81115 0.02892 0.79042 0.0
C593 C 0.8088 0.0069 0.76275 0.0
C594 C 0.78811 0.97838 0.76456 0.0
C595 C 0.77021 0.97268 0.79413 0.0
C596 C 0.77191 0.99461 0.8209 0.0
C597 C 0.75192 0.98253 0.85059 0.0
C598 C 0.77437 0.9765 0.88131 0.0
C599 C 0.72377 0.00724 0.85889 0.0
C600 C 0.73862 0.95001 0.83659 0.0
C601 C 0.74946 0.94457 0.80408 0.0
C602 C 0.74081 0.91564 0.78648 0.0
C603 C 0.71992 0.89216 0.80225 0.0
C604 C 0.70794 0.89778 0.83527 0.0
C605 C 0.71794 0.92694 0.85263 0.0
H606 H 0.80352 0.07237 0.36923 0.0
H607 H 0.86492 0.02599 0.44569 0.0
H608 H 0.83737 0.97163 0.43469 0.0
H609 H 0.72876 0.02569 0.38605 0.0
H610 H 0.71697 0.02264 0.34251 0.0
H611 H 0.74112 0.05782 0.35696 0.0
H612 H 0.78688 0.04496 0.31276 0.0
H613 H 0.76239 0.01009 0.29794 0.0
H614 H 0.80475 0.00364 0.31111 0.0
H615 H 0.80282 0.9218 0.41457 0.0
H616 H 0.75966 0.88337 0.39242 0.0
H617 H 0.72362 0.96221 0.32732 0.0
C618 C 0.81073 0.051 0.38422 0.0
C619 C 0.83617 0.05364 0.40863 0.0
C620 C 0.84529 0.02473 0.42708 0.0
C621 C 0.83 0.99365 0.42078 0.0
C622 C 0.80581 0.99174 0.39573 0.0
C623 C 0.79606 0.01976 0.37797 0.0
C624 C 0.76947 0.0112 0.3524 0.0
C625 C 0.73716 0.03045 0.35994 0.0
C626 C 0.78162 0.0179 0.31644 0.0
C627 C 0.76551 0.97404 0.35871 0.0
C628 C 0.78686 0.96311 0.38356 0.0
C629 C 0.78627 0.93002 0.39481 0.0
C630 C 0.76201 0.90813 0.38164 0.0
C631 C 0.73855 0.91955 0.35769 0.0
C632 C 0.7416 0.95249 0.34506 0.0
H633 H 0.71619 0.02696 0.16183 0.0
H634 H 0.77833 0.11328 0.1409 0.0
H635 H 0.82731 0.07617 0.13482 0.0
H636 H 0.78007 0.98087 0.21051 0.0
H637 H 0.76595 0.94098 0.19471 0.0
H638 H 0.73689 0.97494 0.19954 0.0
H639 H 0.72032 0.96865 0.13694 0.0
H640 H 0.74993 0.93529 0.13166 0.0
H641 H 0.75201 0.97168 0.10505 0.0
H642 H 0.86806 0.02839 0.12478 0.0
H643 H 0.89934 0.9751 0.12142 0.0
H644 H 0.81072 0.92086 0.15193 0.0
C645 C 0.74031 0.0381 0.15687 0.0
C646 C 0.74363 0.07295 0.15212 0.0
C647 C 0.77544 0.08667 0.14527 0.0
C648 C 0.80329 0.06575 0.1414 0.0
C649 C 0.79893 0.03129 0.14511 0.0
C650 C 0.7684 0.01769 0.15363 0.0
C651 C 0.77023 0.97995 0.15633 0.0
C652 C 0.76286 0.96852 0.19241 0.0
C653 C 0.74673 0.96291 0.13098 0.0
C654 C 0.80636 0.9743 0.1472 0.0
C655 C 0.82249 0.00413 0.14049 0.0
C656 C 0.85576 0.00493 0.1304 0.0
C657 C 0.87323 0.97453 0.1282 0.0
C658 C 0.85747 0.94387 0.13641 0.0
C659 C 0.82348 0.9439 0.14558 0.0
H660 H 0.16924 0.56478 0.62449 0.0
H661 H 0.17373 0.57543 0.73267 0.0
H662 H 0.20322 0.52068 0.73621 0.0
H663 H 0.15371 0.47824 0.62024 0.0
H664 H 0.17999 0.47104 0.5843 0.0
H665 H 0.16063 0.51124 0.59022 0.0
H666 H 0.21809 0.54055 0.58776 0.0
H667 H 0.23776 0.50064 0.58111 0.0
H668 H 0.25098 0.52704 0.61538 0.0
H669 H 0.22685 0.46194 0.72774 0.0
H670 H 0.25455 0.41059 0.70735 0.0
H671 H 0.23604 0.44094 0.60455 0.0
C672 C 0.17655 0.55568 0.64901 0.0
C673 C 0.16898 0.57394 0.67838 0.0
C674 C 0.17937 0.56168 0.70993 0.0
C675 C 0.19564 0.53054 0.71219 0.0
C676 C 0.2014 0.51245 0.68271 0.0
C677 C 0.19297 0.52512 0.65165 0.0
C678 C 0.20303 0.50178 0.62354 0.0
C679 C 0.17251 0.48988 0.6034 0.0
C680 C 0.22902 0.51849 0.60061 0.0
C681 C 0.21803 0.47349 0.64357 0.0
C682 C 0.21647 0.47982 0.67768 0.0
C683 C 0.22844 0.45692 0.70109 0.0
C684 C 0.24373 0.42758 0.68925 0.0
C685 C 0.24732 0.42167 0.65432 0.0
C686 C 0.23349 0.44463 0.63136 0.0
H687 H 0.21548 0.46936 0.41494 0.0
H688 H 0.12611 0.5284 0.40113 0.0
H689 H 0.1607 0.57819 0.38862 0.0
H690 H 0.26496 0.5383 0.45482 0.0
H691 H 0.30292 0.52395 0.43549 0.0
H692 H 0.27069 0.49438 0.44611 0.0
H693 H 0.27041 0.47365 0.38441 0.0
H694 H 0.30172 0.50397 0.37329 0.0
H695 H 0.26259 0.5031 0.3511 0.0
H696 H 0.20539 0.61932 0.36994 0.0
H697 H 0.25656 0.65237 0.35974 0.0
H698 H 0.31658 0.5672 0.38922 0.0
C699 C 0.20326 0.49309 0.41046 0.0
C700 C 0.16816 0.49519 0.40935 0.0
C701 C 0.15296 0.52646 0.40283 0.0
C702 C 0.17242 0.55473 0.39521 0.0
C703 C 0.207 0.55141 0.39492 0.0
C704 C 0.22229 0.52167 0.40357 0.0
C705 C 0.25986 0.5247 0.40168 0.0
C706 C 0.27553 0.52007 0.4366 0.0
C707 C 0.27448 0.49988 0.3761 0.0
C708 C 0.26335 0.56046 0.38964 0.0
C709 C 0.2326 0.57535 0.38547 0.0
C710 C 0.2296 0.60802 0.37355 0.0
C711 C 0.25881 0.62644 0.3673 0.0
C712 C 0.29055 0.61229 0.37345 0.0
C713 C 0.29268 0.57862 0.38406 0.0
H714 H 0.2814 0.54621 0.88899 0.0
H715 H 0.25052 0.59795 0.7985 0.0
H716 H 0.20883 0.55372 0.78759 0.0
H717 H 0.27682 0.46485 0.85727 0.0
H718 H 0.26068 0.44622 0.8951 0.0
H719 H 0.28604 0.48334 0.89754 0.0
H720 H 0.23942 0.51426 0.93005 0.0
H721 H 0.21427 0.47692 0.92835 0.0
H722 H 0.19801 0.51589 0.9126 0.0
H723 H 0.17437 0.49979 0.78344 0.0
H724 H 0.1453 0.44536 0.79115 0.0
H725 H 0.19775 0.4311 0.88506 0.0
C726 C 0.26548 0.54862 0.86718 0.0
C727 C 0.2693 0.57558 0.84461 0.0
C728 C 0.248 0.57764 0.81629 0.0
C729 C 0.22443 0.55243 0.80967 0.0
C730 C 0.22233 0.52544 0.83168 0.0
C731 C 0.24182 0.52382 0.86028 0.0
C732 C 0.23506 0.49214 0.87988 0.0
C733 C 0.26652 0.47037 0.88258 0.0
C734 C 0.22082 0.5003 0.91477 0.0
C735 C 0.20918 0.4759 0.85756 0.0
C736 C 0.20223 0.49523 0.82971 0.0
C737 C 0.17971 0.48452 0.80513 0.0
C738 C 0.16346 0.45357 0.80953 0.0
C739 C 0.1695 0.4343 0.83857 0.0
C740 C 0.19278 0.44554 0.86261 0.0
H741 H 0.64767 0.82243 0.00471 0.0
H742 H 0.63809 0.75464 0.91997 0.0
H743 H 0.62232 0.70898 0.95842 0.0
H744 H 0.68166 0.75892 0.06313 0.0
H745 H 0.66031 0.77723 0.09841 0.0
H746 H 0.67336 0.80326 0.06399 0.0
H747 H 0.61247 0.82414 0.05766 0.0
H748 H 0.59904 0.79721 0.09122 0.0
H749 H 0.57957 0.79415 0.05056 0.0
H750 H 0.60295 0.67158 0.00634 0.0
H751 H 0.59265 0.64315 0.06047 0.0
H752 H 0.61388 0.73608 0.113 0.0
C753 C 0.64311 0.79779 0.99427 0.0
C754 C 0.64424 0.79224 0.95926 0.0
C755 C 0.63781 0.75957 0.9467 0.0
C756 C 0.6284 0.73349 0.96833 0.0
C757 C 0.62584 0.74031 1.00252 0.0
C758 C 0.63392 0.77142 0.01549 0.0
C759 C 0.62955 0.77223 0.05319 0.0
C760 C 0.66321 0.77826 0.07071 0.0
C761 C 0.60361 0.7985 0.06376 0.0
C762 C 0.61692 0.73704 0.05931 0.0
C763 C 0.61483 0.71895 0.02984 0.0
C764 C 0.60456 0.68553 0.02959 0.0
C765 C 0.59828 0.66968 0.06046 0.0
C766 C 0.60219 0.68734 0.09109 0.0
C767 C 0.6103 0.72183 0.09012 0.0
H768 H 0.56836 0.34202 0.29335 0.0
H769 H 0.50561 0.38171 0.37246 0.0
H770 H 0.46218 0.39516 0.33066 0.0
H771 H 0.54726 0.40523 0.2327 0.0
H772 H 0.54817 0.37718 0.19723 0.0
H773 H 0.57393 0.36899 0.23333 0.0
H774 H 0.54771 0.30987 0.23952 0.0
H775 H 0.52268 0.31776 0.20291 0.0
H776 H 0.50303 0.30578 0.24176 0.0
H777 H 0.42481 0.40259 0.28067 0.0
H778 H 0.39586 0.40268 0.22577 0.0
H779 H 0.48416 0.36262 0.1782 0.0
C780 C 0.5452 0.35295 0.30189 0.0
C781 C 0.54009 0.36034 0.33624 0.0
C782 C 0.50988 0.37557 0.34633 0.0
C783 C 0.48515 0.38344 0.32275 0.0
C784 C 0.4912 0.37651 0.28901 0.0
C785 C 0.52047 0.36163 0.27853 0.0
C786 C 0.52099 0.35767 0.24063 0.0
C787 C 0.54927 0.37851 0.22506 0.0
C788 C 0.52375 0.32057 0.23064 0.0
C789 C 0.48714 0.37193 0.23155 0.0
C790 C 0.4704 0.38271 0.25988 0.0
C791 C 0.43788 0.39481 0.25824 0.0
C792 C 0.42171 0.39505 0.227 0.0
C793 C 0.43826 0.38391 0.19776 0.0
C794 C 0.47154 0.37269 0.20001 0.0
H795 H 0.88674 0.32394 0.55881 0.0
H796 H 0.93657 0.28383 0.64621 0.0
H797 H 0.95044 0.23235 0.61441 0.0
H798 H 0.8476 0.24964 0.53697 0.0
H799 H 0.85032 0.25506 0.49217 0.0
H800 H 0.84953 0.29111 0.5193 0.0
H801 H 0.90502 0.3124 0.4939 0.0
H802 H 0.90567 0.27676 0.46612 0.0
H803 H 0.94074 0.28514 0.49313 0.0
H804 H 0.9551 0.18336 0.57406 0.0
H805 H 0.95037 0.14121 0.52864 0.0
H806 H 0.89336 0.21178 0.46928 0.0
C807 C 0.90191 0.30492 0.57064 0.0
C808 C 0.91183 0.30828 0.60449 0.0
C809 C 0.9298 0.28207 0.61994 0.0
C810 C 0.93754 0.25269 0.60213 0.0
C811 C 0.92651 0.24963 0.56905 0.0
C812 C 0.90914 0.27511 0.55341 0.0
C813 C 0.89717 0.26426 0.51893 0.0
C814 C 0.85889 0.26507 0.51674 0.0
C815 C 0.91311 0.28593 0.49139 0.0
C816 C 0.91017 0.22865 0.51776 0.0
C817 C 0.92738 0.22079 0.5467 0.0
C818 C 0.94172 0.18931 0.55126 0.0
C819 C 0.93879 0.16545 0.5254 0.0
C820 C 0.92118 0.17295 0.49554 0.0
C821 C 0.90656 0.20499 0.49196 0.0
H822 H 0.91763 0.68192 0.81165 0.0
H823 H 0.93297 0.5873 0.86287 0.0
H824 H 0.97004 0.5688 0.81731 0.0
H825 H 0.91505 0.64884 0.72936 0.0
H826 H 0.93749 0.68262 0.70977 0.0
H827 H 0.91328 0.6904 0.74701 0.0
H828 H 0.9646 0.71447 0.77793 0.0
H829 H 0.98902 0.70835 0.74056 0.0
H830 H 0.00245 0.69033 0.7797 0.0
H831 H 0.00385 0.5594 0.76514 0.0
H832 H 0.0384 0.56354 0.71372 0.0
H833 H 0.0014 0.66378 0.69665 0.0
C834 C 0.92935 0.65761 0.81368 0.0
C835 C 0.92235 0.63613 0.84095 0.0
C836 C 0.93793 0.60431 0.84233 0.0
C837 C 0.95887 0.59341 0.81642 0.0
C838 C 0.96416 0.61463 0.78929 0.0
C839 C 0.95041 0.64632 0.78801 0.0
C840 C 0.96036 0.66425 0.75607 0.0
C841 C 0.92972 0.67199 0.73428 0.0
C842 C 0.9803 0.69623 0.76405 0.0
C843 C 0.98204 0.6378 0.73981 0.0
C844 C 0.98354 0.60916 0.75914 0.0
C845 C 0.0027 0.5816 0.74966 0.0
C846 C 0.02188 0.58392 0.7203 0.0
C847 C 0.02156 0.61351 0.70098 0.0
C848 C 0.00105 0.6405 0.71056 0.0
H849 H 0.57871 0.28337 0.47207 0.0
H850 H 0.58187 0.37541 0.53002 0.0
H851 H 0.58929 0.34245 0.58194 0.0
H852 H 0.53446 0.2325 0.53494 0.0
H853 H 0.55803 0.19556 0.52454 0.0
H854 H 0.55003 0.22668 0.49291 0.0
H855 H 0.61353 0.23116 0.48183 0.0
H856 H 0.62184 0.20081 0.5141 0.0
H857 H 0.64115 0.24155 0.51598 0.0
H858 H 0.60233 0.29915 0.6269 0.0
H859 H 0.61037 0.24902 0.66227 0.0
H860 H 0.59771 0.18562 0.57462 0.0
C861 C 0.57999 0.29665 0.49575 0.0
C862 C 0.57947 0.33206 0.49689 0.0
C863 C 0.5817 0.34834 0.52845 0.0
C864 C 0.58632 0.32981 0.55808 0.0
C865 C 0.58834 0.29501 0.55577 0.0
C866 C 0.58447 0.27859 0.52548 0.0
C867 C 0.58818 0.24107 0.52956 0.0
C868 C 0.55574 0.22288 0.51993 0.0
C869 C 0.61794 0.22789 0.50915 0.0
C870 C 0.59487 0.23886 0.56688 0.0
C871 C 0.59527 0.27025 0.58154 0.0
C872 C 0.60172 0.27446 0.61569 0.0
C873 C 0.60662 0.24581 0.63554 0.0
C874 C 0.60473 0.21332 0.62128 0.0
C875 C 0.59937 0.21005 0.58634 0.0
H876 H 0.01369 0.33721 0.86854 0.0
H877 H 0.02232 0.44509 0.8693 0.0
H878 H 0.96985 0.44915 0.83661 0.0
H879 H 0.9922 0.3291 0.78816 0.0
H880 H 0.96349 0.2947 0.79322 0.0
H881 H 0.99631 0.30111 0.82324 0.0
H882 H 0.95202 0.30331 0.87119 0.0
H883 H 0.91991 0.29622 0.84032 0.0
H884 H 0.91772 0.33208 0.86777 0.0
H885 H 0.92533 0.44065 0.79368 0.0
H886 H 0.89067 0.42117 0.74649 0.0
H887 H 0.90973 0.31805 0.77381 0.0
C888 C 0.00339 0.36168 0.8634 0.0
C889 C 0.02125 0.3909 0.87218 0.0
C890 C 0.00828 0.42257 0.86372 0.0
C891 C 0.97861 0.42498 0.84503 0.0
C892 C 0.96229 0.39547 0.83542 0.0
C893 C 0.97393 0.36438 0.84491 0.0
C894 C 0.95481 0.33642 0.82763 0.0
C895 C 0.97813 0.31403 0.80684 0.0
C896 C 0.93492 0.31579 0.85325 0.0
C897 C 0.93191 0.35646 0.80521 0.0
C898 C 0.93626 0.39051 0.81054 0.0
C899 C 0.92112 0.41413 0.78999 0.0
C900 C 0.90168 0.40278 0.76308 0.0
C901 C 0.89739 0.3681 0.75677 0.0
C902 C 0.91195 0.34464 0.77866 0.0
H903 H 0.90225 0.68979 0.9832 0.0
H904 H 0.83104 0.61813 0.02195 0.0
H905 H 0.82175 0.65444 0.0716 0.0
H906 H 0.93633 0.71822 0.06571 0.0
H907 H 0.94014 0.76067 0.05102 0.0
H908 H 0.94472 0.72631 0.02206 0.0
H909 H 0.89841 0.75166 0.98459 0.0
H910 H 0.89282 0.78571 0.0136 0.0
H911 H 0.85787 0.75959 1.0023 0.0
H912 H 0.8172 0.7029 0.11531 0.0
H913 H 0.82071 0.75543 0.14876 0.0
H914 H 0.89224 0.7948 0.07732 0.0
C915 C 0.8859 0.68095 1.00293 0.0
C916 C 0.86806 0.65072 0.99913 0.0
C917 C 0.8459 0.64061 0.0249 0.0
C918 C 0.84012 0.66136 0.05298 0.0
C919 C 0.85698 0.69194 0.05506 0.0
C920 C 0.87991 0.70126 0.03088 0.0
C921 C 0.89315 0.73615 0.03713 0.0
C922 C 0.9308 0.73529 0.04442 0.0
C923 C 0.88506 0.75964 0.00766 0.0
C924 C 0.87358 0.74552 0.06809 0.0
C925 C 0.85309 0.71978 0.07855 0.0
C926 C 0.83321 0.72315 0.10719 0.0
C927 C 0.83509 0.7532 0.1259 0.0
C928 C 0.85637 0.77963 0.1156 0.0
C929 C 0.87524 0.77555 0.08589 0.0
H930 H 0.43421 0.63541 0.31867 0.0
H931 H 0.48686 0.64049 0.41353 0.0
H932 H 0.53936 0.65253 0.38324 0.0
H933 H 0.5025 0.59621 0.27014 0.0
H934 H 0.49204 0.61962 0.23299 0.0
H935 H 0.45999 0.60852 0.26255 0.0
H936 H 0.44382 0.67119 0.26715 0.0
H937 H 0.47661 0.68266 0.23858 0.0
H938 H 0.47486 0.7014 0.27973 0.0
H939 H 0.58449 0.67174 0.34228 0.0
H940 H 0.62119 0.6835 0.29365 0.0
H941 H 0.53911 0.66277 0.226 0.0
C942 C 0.45702 0.63789 0.333 0.0
C943 C 0.45657 0.6366 0.36842 0.0
C944 C 0.48679 0.6406 0.38635 0.0
C945 C 0.51663 0.64791 0.36936 0.0
C946 C 0.51584 0.65064 0.33446 0.0
C947 C 0.48698 0.64474 0.31646 0.0
C948 C 0.49249 0.64944 0.27919 0.0
C949 C 0.48641 0.61648 0.2601 0.0
C950 C 0.47064 0.67786 0.26537 0.0
C951 C 0.52891 0.65917 0.27893 0.0
C952 C 0.54185 0.66045 0.31106 0.0
C953 C 0.57472 0.67028 0.31701 0.0
C954 C 0.59524 0.67739 0.2893 0.0
C955 C 0.5829 0.67412 0.25616 0.0
C956 C 0.54915 0.66551 0.25109 0.0
H957 H 0.80339 0.00361 0.67753 0.0
H958 H 0.75939 0.90516 0.66463 0.0
H959 H 0.70349 0.93062 0.66261 0.0
H960 H 0.73303 0.03803 0.73014 0.0
H961 H 0.73682 0.07901 0.71161 0.0
H962 H 0.77317 0.05318 0.71668 0.0
H963 H 0.78622 0.05809 0.6536 0.0
H964 H 0.75007 0.08387 0.64752 0.0
H965 H 0.75509 0.04611 0.62321 0.0
H966 H 0.6547 0.96742 0.65012 0.0
H967 H 0.61362 0.0124 0.6409 0.0
H968 H 0.68842 0.08674 0.66651 0.0
C969 C 0.78185 0.98734 0.6756 0.0
C970 C 0.78559 0.95247 0.67131 0.0
C971 C 0.75699 0.9319 0.66844 0.0
C972 C 0.72517 0.94616 0.667 0.0
C973 C 0.72248 0.98085 0.66946 0.0
C974 C 0.74991 1.00109 0.675 0.0
C975 C 0.74035 0.03773 0.67555 0.0
C976 C 0.74616 0.05286 0.71059 0.0
C977 C 0.75905 0.05759 0.64834 0.0
C978 C 0.7036 0.03503 0.6676 0.0
C979 C 0.69384 1.00201 0.66402 0.0
C980 C 0.6618 0.99333 0.65375 0.0
C981 C 0.63881 0.01905 0.64808 0.0
C982 C 0.64792 0.05296 0.65306 0.0
C983 C 0.68078 0.06098 0.66279 0.0
H984 H 0.19307 0.54339 0.16015 0.0
H985 H 0.11251 0.61193 0.182 0.0
H986 H 0.09686 0.57791 0.23131 0.0
H987 H 0.15064 0.47073 0.1774 0.0
H988 H 0.18442 0.44837 0.19693 0.0
H989 H 0.19312 0.48057 0.16665 0.0
H990 H 0.23012 0.51239 0.20982 0.0
H991 H 0.22246 0.47931 0.23953 0.0
H992 H 0.21346 0.52211 0.25064 0.0
H993 H 0.08521 0.53332 0.2724 0.0
H994 H 0.0829 0.48487 0.31002 0.0
H995 H 0.17167 0.44402 0.26302 0.0
C996 C 0.17329 0.55204 0.17649 0.0
C997 C 0.15466 0.58088 0.16834 0.0
C998 C 0.1277 0.5906 0.18881 0.0
C999 C 0.11844 0.5712 0.21653 0.0
C1000 C 0.1364 0.54212 0.22319 0.0
C1001 C 0.16375 0.53287 0.20433 0.0
C1002 C 0.17747 0.49939 0.21594 0.0
C1003 C 0.17633 0.47323 0.18754 0.0
C1004 C 0.21298 0.50355 0.22981 0.0
C1005 C 0.15298 0.49091 0.2437 0.0
C1006 C 0.12953 0.51598 0.24722 0.0
C1007 C 0.10374 0.51379 0.27032 0.0
C1008 C 0.10257 0.48595 0.29146 0.0
C1009 C 0.1272 0.46058 0.28969 0.0
C1010 C 0.15238 0.46283 0.26493 0.0
H1011 H 0.79166 0.9065 0.55822 0.0
H1012 H 0.84124 0.9967 0.52366 0.0
H1013 H 0.79304 0.00886 0.48676 0.0
H1014 H 0.75484 0.88341 0.47908 0.0
H1015 H 0.71754 0.8676 0.49864 0.0
H1016 H 0.7564 0.86679 0.52109 0.0
H1017 H 0.72861 0.89994 0.56969 0.0
H1018 H 0.68999 0.90184 0.54674 0.0
H1019 H 0.70965 0.93987 0.5611 0.0
H1020 H 0.73822 0.01048 0.45303 0.0
H1021 H 0.68625 0.99776 0.4218 0.0
H1022 H 0.67333 0.90759 0.48045 0.0
C1023 C 0.79275 0.92865 0.54263 0.0
C1024 C 0.82045 0.95055 0.54386 0.0
C1025 C 0.82049 0.97935 0.52306 0.0
C1026 C 0.79306 0.98662 0.50222 0.0
C1027 C 0.76573 0.96493 0.50248 0.0
C1028 C 0.76569 0.93632 0.52192 0.0
C1029 C 0.73379 0.91658 0.51755 0.0
C1030 C 0.74108 0.88154 0.50323 0.0
C1031 C 0.71437 0.91445 0.55074 0.0
C1032 C 0.7158 0.93829 0.49233 0.0
C1033 C 0.73436 0.96628 0.48405 0.0
C1034 C 0.72334 0.98889 0.45975 0.0
C1035 C 0.69348 0.98179 0.44247 0.0
C1036 C 0.67534 0.95211 0.44923 0.0
C1037 C 0.68613 0.93095 0.47542 0.0
H1038 H 0.3761 0.55396 0.77099 0.0
H1039 H 0.35158 0.63518 0.70324 0.0
H1040 H 0.35838 0.59668 0.65487 0.0
H1041 H 0.43667 0.51052 0.71669 0.0
H1042 H 0.42218 0.46994 0.73003 0.0
H1043 H 0.42019 0.50508 0.7584 0.0
H1044 H 0.35679 0.49511 0.76646 0.0
H1045 H 0.35869 0.45992 0.73843 0.0
H1046 H 0.33005 0.49359 0.73013 0.0
H1047 H 0.36208 0.54702 0.61448 0.0
H1048 H 0.3583 0.49136 0.58722 0.0
H1049 H 0.38 0.44395 0.68249 0.0
C1050 C 0.37285 0.56402 0.74599 0.0
C1051 C 0.36352 0.5977 0.74093 0.0
C1052 C 0.35895 0.60952 0.70774 0.0
C1053 C 0.3629 0.58785 0.68012 0.0
C1054 C 0.37161 0.55457 0.68616 0.0
C1055 C 0.37651 0.54284 0.71839 0.0
C1056 C 0.3823 0.50548 0.71885 0.0
C1057 C 0.41743 0.49729 0.73175 0.0
C1058 C 0.35535 0.48749 0.73968 0.0
C1059 C 0.37897 0.49766 0.68191 0.0
C1060 C 0.37339 0.52625 0.66323 0.0
C1061 C 0.36701 0.52458 0.62882 0.0
C1062 C 0.36512 0.49287 0.61347 0.0
C1063 C 0.36911 0.46336 0.63271 0.0
C1064 C 0.37724 0.46606 0.66705 0.0
H1065 H 0.84419 0.09318 0.9529 0.0
H1066 H 0.78176 0.09247 0.86389 0.0
H1067 H 0.73167 0.09305 0.89907 0.0
H1068 H 0.7898 0.04356 0.00706 0.0
H1069 H 0.79734 0.06884 0.04381 0.0
H1070 H 0.82895 0.06523 0.01194 0.0
H1071 H 0.83078 0.12981 0.00629 0.0
H1072 H 0.79919 0.13354 0.03813 0.0
H1073 H 0.79287 0.15229 0.99752 0.0
H1074 H 0.68775 0.09224 0.94338 0.0
H1075 H 0.65309 0.09707 0.99465 0.0
H1076 H 0.74268 0.10523 0.05498 0.0
C1077 C 0.81996 0.09284 0.94096 0.0
C1078 C 0.81702 0.09218 0.90558 0.0
C1079 C 0.78481 0.09256 0.89089 0.0
C1080 C 0.75606 0.09285 0.91066 0.0
C1081 C 0.75965 0.09361 0.94531 0.0
C1082 C 0.7907 0.0942 0.96046 0.0
C1083 C 0.78719 0.09768 0.99826 0.0
C1084 C 0.80168 0.067 0.01633 0.0
C1085 C 0.80347 0.13028 0.01077 0.0
C1086 C 0.7495 0.09895 1.0017 0.0
C1087 C 0.73411 0.09586 0.97088 0.0
C1088 C 0.69947 0.09506 0.96769 0.0
C1089 C 0.67998 0.09778 0.99683 0.0
C1090 C 0.69521 0.1021 0.02851 0.0
C1091 C 0.73041 0.10264 0.03089 0.0
H1092 H 0.26206 0.12688 0.37222 0.0
H1093 H 0.31054 0.22147 0.39268 0.0
H1094 H 0.28317 0.22375 0.44802 0.0
H1095 H 0.18298 0.1415 0.42729 0.0
H1096 H 0.18395 0.09808 0.43947 0.0
H1097 H 0.1971 0.11017 0.39796 0.0
H1098 H 0.253 0.07982 0.40859 0.0
H1099 H 0.24121 0.06943 0.45076 0.0
H1100 H 0.27891 0.09285 0.44325 0.0
H1101 H 0.26348 0.20835 0.50528 0.0
H1102 H 0.24463 0.18176 0.55764 0.0
H1103 H 0.21067 0.09522 0.50092 0.0
C1104 C 0.26461 0.14939 0.38724 0.0
C1105 C 0.288 0.17423 0.37803 0.0
C1106 C 0.29203 0.20269 0.3988 0.0
C1107 C 0.27707 0.2038 0.43066 0.0
C1108 C 0.25754 0.17667 0.44076 0.0
C1109 C 0.25027 0.15048 0.41922 0.0
C1110 C 0.233 0.12206 0.4376 0.0
C1111 C 0.19712 0.11771 0.42483 0.0
C1112 C 0.25273 0.08913 0.43487 0.0
C1113 C 0.2335 0.13542 0.47313 0.0
C1114 C 0.24731 0.16712 0.47432 0.0
C1115 C 0.25225 0.18375 0.50461 0.0
C1116 C 0.24178 0.16815 0.53429 0.0
C1117 C 0.22627 0.13614 0.53362 0.0
C1118 C 0.22265 0.11948 0.5025 0.0
H1119 H 0.2188 0.05062 0.67141 0.0
H1120 H 0.20382 0.13744 0.73506 0.0
H1121 H 0.20633 0.10108 0.78517 0.0
H1122 H 0.16652 0.99894 0.71311 0.0
H1123 H 0.19051 0.96117 0.70812 0.0
H1124 H 0.19455 0.99439 0.67808 0.0
H1125 H 0.25825 0.9969 0.6884 0.0
H1126 H 0.25456 0.96322 0.71823 0.0
H1127 H 0.27383 1.00216 0.73053 0.0
H1128 H 0.19862 0.05379 0.82687 0.0
H1129 H 0.18691 1.00068 0.85662 0.0
H1130 H 0.20922 0.94515 0.76591 0.0
C1131 C 0.21739 0.06225 0.69594 0.0
C1132 C 0.21138 0.09698 0.69926 0.0
C1133 C 0.20899 0.11104 0.73183 0.0
C1134 C 0.21019 0.09049 0.76046 0.0
C1135 C 0.21436 0.05604 0.75614 0.0
C1136 C 0.21865 0.04216 0.72464 0.0
C1137 C 0.21942 0.00427 0.72622 0.0
C1138 C 0.19107 0.98881 0.70515 0.0
C1139 C 0.25356 0.99085 0.7152 0.0
C1140 C 0.21379 0.99882 0.76336 0.0
C1141 C 0.21097 0.02894 0.78029 0.0
C1142 C 0.2018 0.03011 0.81405 0.0
C1143 C 0.1951 0.99984 0.83074 0.0
C1144 C 0.19792 0.96878 0.81379 0.0
C1145 C 0.20801 0.96841 0.77985 0.0
H1146 H 0.32168 0.83706 0.03367 0.0
H1147 H 0.26476 0.8599 0.12292 0.0
H1148 H 0.21483 0.87052 0.08753 0.0
H1149 H 0.29195 0.9041 0.9897 0.0
H1150 H 0.29333 0.88378 0.94928 0.0
H1151 H 0.32113 0.87077 0.98209 0.0
H1152 H 0.30016 0.81085 0.97492 0.0
H1153 H 0.27002 0.82244 0.94358 0.0
H1154 H 0.25692 0.80106 0.98118 0.0
H1155 H 0.17455 0.88799 0.04096 0.0
H1156 H 0.14624 0.90556 0.98864 0.0
H1157 H 0.23253 0.87427 0.93111 0.0
C1158 C 0.29817 0.84256 0.04584 0.0
C1159 C 0.29647 0.84667 0.08089 0.0
C1160 C 0.26598 0.85548 0.09613 0.0
C1161 C 0.23775 0.86196 0.07614 0.0
C1162 C 0.2409 0.85975 0.04124 0.0
C1163 C 0.27042 0.84992 0.02635 0.0
C1164 C 0.26947 0.85391 0.98868 0.0
C1165 C 0.29549 0.87967 0.97676 0.0
C1166 C 0.27436 0.82005 0.97101 0.0
C1167 C 0.23458 0.8672 0.98439 0.0
C1168 C 0.21844 0.87064 0.01484 0.0
C1169 C 0.18681 0.88489 0.01698 0.0
C1170 C 0.17109 0.89519 0.98718 0.0
C1171 C 0.18717 0.89137 0.95575 0.0
C1172 C 0.21941 0.8774 0.95465 0.0
H1173 H 0.37061 0.01115 0.31524 0.0
H1174 H 0.32244 0.09609 0.26807 0.0
H1175 H 0.32035 0.06556 0.2145 0.0
H1176 H 0.42252 0.99096 0.24988 0.0
H1177 H 0.41932 0.94612 0.25383 0.0
H1178 H 0.41271 0.97239 0.28988 0.0
H1179 H 0.35455 0.94534 0.29876 0.0
H1180 H 0.36141 0.91887 0.26275 0.0
H1181 H 0.32494 0.94502 0.26473 0.0
H1182 H 0.33253 0.03089 0.16436 0.0
H1183 H 0.3503 0.98936 0.12185 0.0
H1184 H 0.38778 0.92534 0.2011 0.0
C1185 C 0.35841 0.02269 0.29398 0.0
C1186 C 0.34667 0.05594 0.29579 0.0
C1187 C 0.33163 0.07062 0.2672 0.0
C1188 C 0.33035 0.05352 0.23662 0.0
C1189 C 0.34378 0.02153 0.23508 0.0
C1190 C 0.35678 0.00582 0.26309 0.0
C1191 C 0.37131 0.97203 0.2539 0.0
C1192 C 0.40868 0.97033 0.26237 0.0
C1193 C 0.35188 0.94363 0.27105 0.0
C1194 C 0.36557 0.97197 0.21629 0.0
C1195 C 0.3497 1.0008 0.20597 0.0
C1196 C 0.34422 0.00779 0.17213 0.0
C1197 C 0.35466 0.9843 0.14818 0.0
C1198 C 0.37001 0.95417 0.15833 0.0
C1199 C 0.3755 0.94799 0.19279 0.0
H1200 H 0.57671 0.18946 0.07676 0.0
H1201 H 0.61442 0.21334 0.17594 0.0
H1202 H 0.56071 0.23988 0.19028 0.0
H1203 H 0.52946 0.26888 0.0672 0.0
H1204 H 0.49662 0.24861 0.04386 0.0
H1205 H 0.53855 0.23285 0.0415 0.0
H1206 H 0.51689 0.17447 0.05969 0.0
H1207 H 0.47509 0.19036 0.06331 0.0
H1208 H 0.49458 0.17034 0.09872 0.0
H1209 H 0.50046 0.25601 0.19642 0.0
H1210 H 0.4434 0.27798 0.18861 0.0
H1211 H 0.44643 0.24945 0.08373 0.0
C1212 C 0.57395 0.20125 0.1011 0.0
C1213 C 0.59979 0.19972 0.12514 0.0
C1214 C 0.59521 0.21493 0.15692 0.0
C1215 C 0.5646 0.22952 0.16548 0.0
C1216 C 0.53909 0.22925 0.14174 0.0
C1217 C 0.54386 0.2168 0.10973 0.0
C1218 C 0.5128 0.22109 0.08848 0.0
C1219 C 0.51977 0.24424 0.05849 0.0
C1220 C 0.49904 0.18703 0.07687 0.0
C1221 C 0.48968 0.23745 0.11369 0.0
C1222 C 0.50507 0.24096 0.14454 0.0
C1223 C 0.48837 0.25406 0.17222 0.0
C1224 C 0.45578 0.26583 0.16774 0.0
C1225 C 0.44046 0.2647 0.13578 0.0
C1226 C 0.45742 0.24988 0.10855 0.0
H1227 H 0.9578 0.17134 0.79059 0.0
H1228 H 0.89315 0.20066 0.87245 0.0
H1229 H 0.93729 0.23784 0.89457 0.0
H1230 H 0.03099 0.16802 0.83976 0.0
H1231 H 0.05867 0.18328 0.80763 0.0
H1232 H 0.02111 0.16126 0.79617 0.0
H1233 H 0.00268 0.21119 0.75959 0.0
H1234 H 0.0405 0.23295 0.77054 0.0
H1235 H 0.00078 0.2524 0.77761 0.0
H1236 H 0.98994 0.26358 0.91265 0.0
H1237 H 0.04372 0.29158 0.91833 0.0
H1238 H 0.07495 0.25082 0.82208 0.0
C1239 C 0.9525 0.18703 0.81214 0.0
C1240 C 0.92177 0.18429 0.82931 0.0
C1241 C 0.91613 0.20348 0.8585 0.0
C1242 C 0.94124 0.22415 0.87147 0.0
C1243 C 0.9718 0.22515 0.85491 0.0
C1244 C 0.97735 0.20802 0.82533 0.0
C1245 C 0.0131 0.21276 0.81349 0.0
C1246 C 0.03208 0.17935 0.81431 0.0
C1247 C 0.01431 0.22829 0.77826 0.0
C1248 C 0.02618 0.23653 0.84033 0.0
C1249 C 0.00222 0.24181 0.86467 0.0
C1250 C 0.00865 0.26041 0.89338 0.0
C1251 C 0.03961 0.27603 0.89642 0.0
C1252 C 0.06359 0.27418 0.87028 0.0
C1253 C 0.05714 0.25309 0.84233 0.0
H1254 H 0.09112 0.69705 0.06962 0.0
H1255 H 0.02453 0.61498 0.09399 0.0
H1256 H 0.98353 0.65546 0.11637 0.0
H1257 H 0.07709 0.7466 0.13946 0.0
H1258 H 0.0772 0.78633 0.11807 0.0
H1259 H 0.10021 0.75163 0.101 0.0
H1260 H 0.06834 0.75648 0.04466 0.0
H1261 H 0.04591 0.79186 0.06123 0.0
H1262 H 0.02345 0.75633 0.04474 0.0
H1263 H 0.95391 0.70338 0.14262 0.0
H1264 H 0.93175 0.75679 0.16286 0.0
H1265 H 0.01544 0.80944 0.11806 0.0
C1266 C 0.06759 0.68772 0.07908 0.0
C1267 C 0.06087 0.65295 0.08026 0.0
C1268 C 0.02992 0.64153 0.09267 0.0
C1269 C 0.00665 0.6643 0.10559 0.0
C1270 C 0.01455 0.69834 0.10517 0.0
C1271 C 0.04381 0.71014 0.09137 0.0
C1272 C 0.04614 0.748 0.09411 0.0
C1273 C 0.07699 0.75875 0.11437 0.0
C1274 C 0.04594 0.76412 0.0591 0.0
C1275 C 0.01425 0.75552 0.11298 0.0
C1276 C 0.99659 0.72639 0.11915 0.0
C1277 C 0.96727 0.72638 0.13757 0.0
C1278 C 0.95514 0.75698 0.14933 0.0
C1279 C 0.97201 0.78749 0.14234 0.0
C1280 C 0.00208 0.78663 0.12395 0.0
H1281 H 0.44542 0.73674 0.35979 0.0
H1282 H 0.39951 0.77805 0.4489 0.0
H1283 H 0.44925 0.81383 0.45838 0.0
H1284 H 0.52473 0.72897 0.39374 0.0
H1285 H 0.54732 0.73965 0.35614 0.0
H1286 H 0.50645 0.72133 0.3531 0.0
H1287 H 0.48563 0.77081 0.31749 0.0
H1288 H 0.5266 0.78917 0.31937 0.0
H1289 H 0.49093 0.81299 0.3328 0.0
H1290 H 0.50467 0.84384 0.45859 0.0
H1291 H 0.56142 0.86651 0.4492 0.0
H1292 H 0.57322 0.80103 0.36331 0.0
C1293 C 0.44541 0.75442 0.38045 0.0
C1294 C 0.41831 0.75593 0.40292 0.0
C1295 C 0.41967 0.77768 0.43086 0.0
C1296 C 0.4479 0.79775 0.43655 0.0
C1297 C 0.4747 0.79507 0.41441 0.0
C1298 C 0.47364 0.77406 0.38681 0.0
C1299 C 0.50656 0.77403 0.36819 0.0
C1300 C 0.5222 0.73891 0.36782 0.0
C1301 C 0.50216 0.78757 0.33235 0.0
C1302 C 0.52647 0.79806 0.38982 0.0
C1303 C 0.5075 0.81023 0.4161 0.0
C1304 C 0.51988 0.83419 0.43837 0.0
C1305 C 0.55214 0.84671 0.43307 0.0
C1306 C 0.57185 0.8346 0.40632 0.0
C1307 C 0.55904 0.80964 0.38476 0.0
H1308 H 0.01891 0.71268 0.65742 0.0
H1309 H 0.10836 0.77296 0.64933 0.0
H1310 H 0.07364 0.82278 0.63613 0.0
H1311 H 0.97369 0.74823 0.59158 0.0
H1312 H 0.93398 0.74693 0.61264 0.0
H1313 H 0.96566 0.71684 0.62303 0.0
H1314 H 0.96316 0.73421 0.68564 0.0
H1315 H 0.93064 0.76353 0.67566 0.0
H1316 H 0.96775 0.77767 0.69693 0.0
H1317 H 0.02843 0.86455 0.61942 0.0
H1318 H 0.97715 0.897 0.60936 0.0
H1319 H 0.91763 0.80871 0.63069 0.0
C1320 C 0.03115 0.73653 0.65337 0.0
C1321 C 0.0662 0.73922 0.65432 0.0
C1322 C 0.08148 0.77066 0.64901 0.0
C1323 C 0.06197 0.79888 0.64122 0.0
C1324 C 0.02737 0.79508 0.63943 0.0
C1325 C 0.01214 0.7648 0.64616 0.0
C1326 C 0.97463 0.76712 0.6433 0.0
C1327 C 0.96122 0.74337 0.61601 0.0
C1328 C 0.95806 0.76025 0.67741 0.0
C1329 C 0.97093 0.80336 0.63312 0.0
C1330 C 0.00159 0.81905 0.63078 0.0
C1331 C 0.00434 0.85253 0.62141 0.0
C1332 C 0.975 0.87066 0.61541 0.0
C1333 C 0.94325 0.85541 0.61906 0.0
C1334 C 0.94143 0.82111 0.62746 0.0
H1335 H 0.07197 0.31321 0.37186 0.0
H1336 H 0.99635 0.39047 0.37014 0.0
H1337 H 0.95266 0.34682 0.36356 0.0
H1338 H 0.03371 0.25481 0.31339 0.0
H1339 H 0.04588 0.21855 0.33726 0.0
H1340 H 0.07105 0.25593 0.33853 0.0
H1341 H 0.06629 0.25755 0.40338 0.0
H1342 H 0.04138 0.22007 0.40233 0.0
H1343 H 0.02564 0.25719 0.42257 0.0
H1344 H 0.91744 0.29396 0.35753 0.0
H1345 H 0.89302 0.23718 0.36056 0.0
H1346 H 0.99197 0.19501 0.3707 0.0
C1347 C 0.04624 0.32099 0.36953 0.0
C1348 C 0.03747 0.3552 0.37086 0.0
C1349 C 0.00351 0.36438 0.36888 0.0
C1350 C 0.97864 0.33978 0.36497 0.0
C1351 C 0.98818 0.30617 0.36368 0.0
C1352 C 0.02118 0.29681 0.36646 0.0
C1353 C 0.02483 0.2591 0.36753 0.0
C1354 C 0.04507 0.24636 0.33738 0.0
C1355 C 0.04044 0.24783 0.40094 0.0
C1356 C 0.98869 0.24853 0.36497 0.0
C1357 C 0.96795 0.27598 0.36212 0.0
C1358 C 0.93348 0.27234 0.35971 0.0
C1359 C 0.91985 0.23994 0.36121 0.0
C1360 C 0.94059 0.21162 0.36571 0.0
C1361 C 0.97548 0.21611 0.36705 0.0
H1362 H 0.452 0.67334 0.8074 0.0
H1363 H 0.44185 0.64544 0.91196 0.0
H1364 H 0.48693 0.68493 0.92698 0.0
H1365 H 0.54532 0.68842 0.80951 0.0
H1366 H 0.54131 0.72299 0.7808 0.0
H1367 H 0.51306 0.68797 0.77802 0.0
H1368 H 0.46342 0.72897 0.78315 0.0
H1369 H 0.49134 0.76399 0.7872 0.0
H1370 H 0.46066 0.75611 0.81925 0.0
H1371 H 0.52424 0.73493 0.93159 0.0
H1372 H 0.55951 0.78507 0.92462 0.0
H1373 H 0.54686 0.77907 0.81661 0.0
C1374 C 0.46039 0.67446 0.83322 0.0
C1375 C 0.44384 0.65626 0.85852 0.0
C1376 C 0.45478 0.65872 0.89218 0.0
C1377 C 0.48011 0.68131 0.90095 0.0
C1378 C 0.49452 0.7005 0.8756 0.0
C1379 C 0.48581 0.69653 0.84226 0.0
C1380 C 0.50329 0.7218 0.82015 0.0
C1381 C 0.52717 0.70425 0.79568 0.0
C1382 C 0.47817 0.74402 0.80135 0.0
C1383 C 0.52211 0.74155 0.84639 0.0
C1384 C 0.51665 0.72893 0.87822 0.0
C1385 C 0.52928 0.7446 0.90675 0.0
C1386 C 0.54883 0.77334 0.90255 0.0
C1387 C 0.55571 0.7859 0.87005 0.0
C1388 C 0.54206 0.76984 0.84169 0.0
H1389 H 0.63283 0.9665 0.85828 0.0
H1390 H 0.53103 0.93075 0.86067 0.0
H1391 H 0.51258 0.98202 0.83083 0.0
H1392 H 0.61544 0.05766 0.86672 0.0
H1393 H 0.64834 0.06807 0.83778 0.0
H1394 H 0.65157 0.03119 0.86356 0.0
H1395 H 0.65933 0.99409 0.80914 0.0
H1396 H 0.65736 0.03209 0.78503 0.0
H1397 H 0.62927 0.998 0.77594 0.0
H1398 H 0.50716 0.03227 0.79344 0.0
H1399 H 0.5148 0.07803 0.75231 0.0
H1400 H 0.61979 0.08262 0.77668 0.0
C1401 C 0.60653 0.97014 0.85335 0.0
C1402 C 0.58307 0.94543 0.86213 0.0
C1403 C 0.54906 0.94999 0.8545 0.0
C1404 C 0.53848 0.97894 0.83765 0.0
C1405 C 0.56233 1.00287 0.82885 0.0
C1406 C 0.59566 0.9988 0.83659 0.0
C1407 C 0.61679 0.02633 0.8215 0.0
C1408 C 0.63406 0.04705 0.84903 0.0
C1409 C 0.64219 0.01179 0.79644 0.0
C1410 C 0.59027 0.04647 0.80369 0.0
C1411 C 0.559 0.03249 0.80816 0.0
C1412 C 0.53128 0.04406 0.79059 0.0
C1413 C 0.53578 0.07003 0.76738 0.0
C1414 C 0.56759 0.08442 0.76242 0.0
C1415 C 0.59496 0.07302 0.78132 0.0
H1416 H 0.19704 0.39002 0.97142 0.0
H1417 H 0.20559 0.2965 0.9168 0.0
H1418 H 0.26245 0.28867 0.93957 0.0
H1419 H 0.28304 0.41595 0.9572 0.0
H1420 H 0.28736 0.43543 0.99779 0.0
H1421 H 0.24718 0.43376 0.97766 0.0
H1422 H 0.22203 0.40438 0.02949 0.0
H1423 H 0.26196 0.40614 0.04992 0.0
H1424 H 0.24094 0.36655 0.0451 0.0
H1425 H 0.31639 0.28886 0.97238 0.0
H1426 H 0.36286 0.29727 0.01252 0.0
H1427 H 0.32187 0.3933 0.04093 0.0
C1428 C 0.21079 0.36772 0.96461 0.0
C1429 C 0.19676 0.34348 0.94289 0.0
C1430 C 0.21581 0.31512 0.93372 0.0
C1431 C 0.24817 0.31061 0.94635 0.0
C1432 C 0.2615 0.33516 0.96738 0.0
C1433 C 0.24348 0.36329 0.97624 0.0
C1434 C 0.26364 0.38604 0.99901 0.0
C1435 C 0.27072 0.41979 0.98189 0.0
C1436 C 0.24604 0.39103 0.03288 0.0
C1437 C 0.29527 0.36566 1.0028 0.0
C1438 C 0.29364 0.33646 0.98417 0.0
C1439 C 0.3184 0.31205 0.98632 0.0
C1440 C 0.34486 0.31711 0.0089 0.0
C1441 C 0.34668 0.34658 0.02849 0.0
C1442 C 0.32196 0.37141 0.0248 0.0
H1443 H 0.89318 0.04023 0.34024 0.0
H1444 H 1.00015 0.04067 0.35529 0.0
H1445 H 0.00445 0.98786 0.32254 0.0
H1446 H 0.88275 0.95097 0.35013 0.0
H1447 H 0.84961 0.94893 0.31962 0.0
H1448 H 0.85645 0.98676 0.34334 0.0
H1449 H 0.86164 0.02024 0.28746 0.0
H1450 H 0.85475 0.98212 0.26429 0.0
H1451 H 0.89154 0.00687 0.25654 0.0
H1452 H 0.99669 0.93682 0.28467 0.0
H1453 H 0.97765 0.89119 0.24698 0.0
H1454 H 0.87527 0.92132 0.26236 0.0
C1455 C 0.91763 0.02953 0.33621 0.0
C1456 C 0.94651 0.04492 0.34963 0.0
C1457 C 0.97784 0.02951 0.34481 0.0
C1458 C 0.98043 0.99948 0.32639 0.0
C1459 C 0.95135 0.98482 0.31377 0.0
C1460 C 0.92053 0.99928 0.31874 0.0
C1461 C 0.89291 0.97826 0.30348 0.0
C1462 C 0.86902 0.96543 0.33076 0.0
C1463 C 0.87411 0.99804 0.27633 0.0
C1464 C 0.91298 0.94993 0.28838 0.0
C1465 C 0.94669 0.95423 0.29442 0.0
C1466 C 0.97035 0.93282 0.28046 0.0
C1467 C 0.95935 0.90689 0.25926 0.0
C1468 C 0.92501 0.90211 0.25283 0.0
C1469 C 0.90156 0.92357 0.26808 0.0
H1470 H 0.18255 0.60813 0.57401 0.0
H1471 H 0.13234 0.70034 0.54798 0.0
H1472 H 0.18152 0.71819 0.51503 0.0
H1473 H 0.26146 0.6418 0.58624 0.0
H1474 H 0.28446 0.60761 0.56801 0.0
H1475 H 0.24417 0.60013 0.58638 0.0
H1476 H 0.22293 0.57418 0.53047 0.0
H1477 H 0.26358 0.58072 0.51252 0.0
H1478 H 0.22727 0.59757 0.49207 0.0
H1479 H 0.23737 0.72825 0.48996 0.0
H1480 H 0.29373 0.72639 0.46561 0.0
H1481 H 0.30854 0.6274 0.50762 0.0
C1482 C 0.18153 0.63138 0.56009 0.0
C1483 C 0.15349 0.65254 0.5624 0.0
C1484 C 0.15328 0.68348 0.54537 0.0
C1485 C 0.18123 0.69393 0.52706 0.0
C1486 C 0.20904 0.67308 0.52622 0.0
C1487 C 0.20919 0.64208 0.54155 0.0
C1488 C 0.24265 0.62493 0.53735 0.0
C1489 C 0.25914 0.61823 0.57153 0.0
C1490 C 0.23888 0.59244 0.51688 0.0
C1491 C 0.26149 0.65146 0.51783 0.0
C1492 C 0.24159 0.67904 0.51189 0.0
C1493 C 0.25313 0.70673 0.49423 0.0
C1494 C 0.28529 0.70557 0.48079 0.0
C1495 C 0.30562 0.67694 0.48504 0.0
C1496 C 0.29388 0.64993 0.50465 0.0
H1497 H 0.6981 0.6317 0.08706 0.0
H1498 H 0.73947 0.72156 0.13226 0.0
H1499 H 0.76306 0.73759 0.07686 0.0
H1500 H 0.76337 0.6138 0.02962 0.0
H1501 H 0.73484 0.59965 0.99763 0.0
H1502 H 0.72376 0.59584 0.04114 0.0
H1503 H 0.66933 0.62984 0.02967 0.0
H1504 H 0.68101 0.6336 0.98619 0.0
H1505 H 0.67266 0.67062 0.0106 0.0
H1506 H 0.78291 0.74211 0.01463 0.0
H1507 H 0.80035 0.732 0.95586 0.0
H1508 H 0.7399 0.6422 0.95306 0.0
C1509 C 0.71255 0.65458 0.08579 0.0
C1510 C 0.71715 0.67516 0.11434 0.0
C1511 C 0.73598 0.70505 0.11097 0.0
C1512 C 0.74909 0.71455 0.07947 0.0
C1513 C 0.74268 0.69415 0.0516 0.0
C1514 C 0.7249 0.66472 0.05479 0.0
C1515 C 0.72063 0.64702 0.02157 0.0
C1516 C 0.73662 0.61203 0.02255 0.0
C1517 C 0.6837 0.64514 0.01144 0.0
C1518 C 0.73952 0.67052 0.9989 0.0
C1519 C 0.75202 0.69776 0.01638 0.0
C1520 C 0.77258 0.72124 1.0007 0.0
C1521 C 0.78189 0.71565 0.96702 0.0
C1522 C 0.77076 0.68672 0.94957 0.0
C1523 C 0.74797 0.66503 0.96538 0.0
H1524 H 0.6232 0.42903 0.31504 0.0
H1525 H 0.66885 0.48296 0.39764 0.0
H1526 H 0.68648 0.52768 0.35841 0.0
H1527 H 0.68191 0.45333 0.24817 0.0
H1528 H 0.64935 0.45838 0.21744 0.0
H1529 H 0.64453 0.42837 0.25082 0.0
H1530 H 0.5891 0.45626 0.26841 0.0
H1531 H 0.59356 0.48618 0.23504 0.0
H1532 H 0.58844 0.50046 0.27766 0.0
H1533 H 0.69691 0.56722 0.3111 0.0
H1534 H 0.69276 0.6032 0.26134 0.0
H1535 H 0.63613 0.52588 0.20978 0.0
C1536 C 0.63759 0.44995 0.32462 0.0
C1537 C 0.64535 0.45243 0.35913 0.0
C1538 C 0.66304 0.48061 0.37119 0.0
C1539 C 0.67329 0.50593 0.34907 0.0
C1540 C 0.6651 0.50287 0.31515 0.0
C1541 C 0.64719 0.47585 0.30304 0.0
C1542 C 0.63811 0.48057 0.26638 0.0
C1543 C 0.65446 0.45355 0.24441 0.0
C1544 C 0.60005 0.4809 0.26162 0.0
C1545 C 0.65329 0.51475 0.25986 0.0
C1546 C 0.66941 0.5267 0.28814 0.0
C1547 C 0.68446 0.55809 0.28878 0.0
C1548 C 0.682 0.57834 0.26025 0.0
C1549 C 0.66408 0.56747 0.2315 0.0
C1550 C 0.6503 0.53483 0.23113 0.0
H1551 H 0.78317 0.38452 0.58215 0.0
H1552 H 0.76561 0.28417 0.61947 0.0
H1553 H 0.73531 0.27023 0.56679 0.0
H1554 H 0.70387 0.39495 0.54156 0.0
H1555 H 0.72156 0.41892 0.50767 0.0
H1556 H 0.74088 0.41968 0.54839 0.0
H1557 H 0.79652 0.40109 0.52107 0.0
H1558 H 0.777 0.39915 0.4804 0.0
H1559 H 0.79785 0.36285 0.49702 0.0
H1560 H 0.70782 0.2678 0.50802 0.0
H1561 H 0.67864 0.27975 0.45449 0.0
H1562 H 0.71532 0.38169 0.45749 0.0
C1563 C 0.77267 0.35965 0.5795 0.0
C1564 C 0.77668 0.33543 0.60494 0.0
C1565 C 0.76247 0.30324 0.60046 0.0
C1566 C 0.74564 0.29502 0.57044 0.0
C1567 C 0.74322 0.31932 0.54533 0.0
C1568 C 0.75589 0.35118 0.55 0.0
C1569 C 0.74935 0.37336 0.52005 0.0
C1570 C 0.72761 0.40349 0.53002 0.0
C1571 C 0.78214 0.38477 0.50368 0.0
C1572 C 0.73069 0.34924 0.49763 0.0
C1573 C 0.72774 0.31798 0.51223 0.0
C1574 C 0.71031 0.29211 0.49634 0.0
C1575 C 0.69426 0.29893 0.46564 0.0
C1576 C 0.69548 0.33141 0.4515 0.0
C1577 C 0.71477 0.35642 0.4673 0.0
H1578 H 0.8096 0.52062 0.85307 0.0
H1579 H 0.80896 0.6147 0.79873 0.0
H1580 H 0.80933 0.58387 0.74515 0.0
H1581 H 0.86508 0.47902 0.80091 0.0
H1582 H 0.84481 0.43881 0.80338 0.0
H1583 H 0.84069 0.46823 0.8373 0.0
H1584 H 0.7763 0.46485 0.83206 0.0
H1585 H 0.78049 0.43537 0.79804 0.0
H1586 H 0.75686 0.47323 0.79217 0.0
H1587 H 0.81886 0.54273 0.69739 0.0
H1588 H 0.83051 0.49428 0.66004 0.0
H1589 H 0.82111 0.42759 0.74527 0.0
C1590 C 0.80847 0.53476 0.82995 0.0
C1591 C 0.80909 0.57017 0.83034 0.0
C1592 C 0.80825 0.5876 0.79932 0.0
C1593 C 0.80857 0.57029 0.76862 0.0
C1594 C 0.80922 0.53544 0.76913 0.0
C1595 C 0.8085 0.51785 0.79902 0.0
C1596 C 0.81101 0.48053 0.79274 0.0
C1597 C 0.84225 0.46581 0.80958 0.0
C1598 C 0.77927 0.46243 0.80444 0.0
C1599 C 0.81403 0.47996 0.75483 0.0
C1600 C 0.81313 0.51183 0.74156 0.0
C1601 C 0.81871 0.51757 0.7074 0.0
C1602 C 0.82537 0.48998 0.68636 0.0
C1603 C 0.82589 0.45712 0.69951 0.0
C1604 C 0.81977 0.45228 0.73415 0.0
H1605 H 0.48704 0.18163 0.70003 0.0
H1606 H 0.48243 0.14231 0.59857 0.0
H1607 H 0.44277 0.18679 0.58316 0.0
H1608 H 0.39719 0.20973 0.7038 0.0
H1609 H 0.40837 0.246 0.72836 0.0
H1610 H 0.4319 0.20785 0.73245 0.0
H1611 H 0.48582 0.24094 0.71908 0.0
H1612 H 0.46247 0.27894 0.7137 0.0
H1613 H 0.48874 0.2639 0.68028 0.0
H1614 H 0.41363 0.24104 0.57607 0.0
H1615 H 0.38559 0.29553 0.58042 0.0
H1616 H 0.40565 0.29821 0.68748 0.0
C1617 C 0.4766 0.18162 0.67496 0.0
C1618 C 0.4876 0.15862 0.65047 0.0
C1619 C 0.47388 0.15947 0.61778 0.0
C1620 C 0.45162 0.18481 0.60873 0.0
C1621 C 0.44289 0.2084 0.63294 0.0
C1622 C 0.45398 0.2064 0.6657 0.0
C1623 C 0.44207 0.23585 0.68641 0.0
C1624 C 0.41847 0.22416 0.71441 0.0
C1625 C 0.47154 0.25608 0.70069 0.0
C1626 C 0.42367 0.25541 0.65983 0.0
C1627 C 0.42475 0.23924 0.62912 0.0
C1628 C 0.41195 0.25359 0.60011 0.0
C1629 C 0.39655 0.28479 0.60279 0.0
C1630 C 0.39365 0.30101 0.63433 0.0
C1631 C 0.40755 0.28623 0.66315 0.0
loop_
_geom_bond_atom_site_label_1
_geom_bond_atom_site_label_2
_geom_bond_distance
_geom_bond_site_symmetry_2
_ccdc_geom_bond_type
C0 O2 1.247 . S
C0 O4 1.258 . S
C1 O8 1.247 . S
C1 O9 1.258 . S
O2 C0 1.247 . S
O2 Zn3 2.028 . S
Zn3 O2 2.028 . S
Zn3 O7 2.035 . S
Zn3 O9 2.035 . S
Zn3 O10 2.028 . S
O4 C0 1.258 . S
O4 Zn5 2.035 . S
Zn5 O4 2.035 . S
Zn5 O6 2.028 . S
Zn5 O8 2.028 . S
Zn5 O11 2.035 . S
O6 Zn5 2.028 . S
O6 C12 1.247 . S
O7 Zn3 2.035 . S
O7 C12 1.258 . S
O8 C1 1.247 . S
O8 Zn5 2.028 . S
O9 C1 1.258 . S
O9 Zn3 2.035 . S
O10 Zn3 2.028 . S
O10 C13 1.247 . S
O11 Zn5 2.035 . S
O11 C13 1.258 . S
C12 O6 1.247 . S
C12 O7 1.258 . S
C13 O10 1.247 . S
C13 O11 1.258 . S
C14 O16 1.247 . S
C14 O18 1.258 . S
C15 O22 1.247 . S
C15 O23 1.258 . S
O16 C14 1.247 . S
O16 Zn17 2.028 . S
Zn17 O16 2.028 . S
Zn17 O21 2.035 . S
Zn17 O23 2.035 . S
Zn17 O24 2.028 . S
O18 C14 1.258 . S
O18 Zn19 2.035 . S
Zn19 O18 2.035 . S
Zn19 O20 2.028 . S
Zn19 O22 2.028 . S
Zn19 O25 2.035 . S
O20 Zn19 2.028 . S
O20 C26 1.247 . S
O21 Zn17 2.035 . S
O21 C26 1.258 . S
O22 C15 1.247 . S
O22 Zn19 2.028 . S
O23 C15 1.258 . S
O23 Zn17 2.035 . S
O24 Zn17 2.028 . S
O24 C27 1.247 . S
O25 Zn19 2.035 . S
O25 C27 1.258 . S
C26 O20 1.247 . S
C26 O21 1.258 . S
C27 O24 1.247 . S
C27 O25 1.258 . S
C28 O30 1.247 . S
C28 O32 1.258 . S
C29 O36 1.247 . S
C29 O37 1.258 . S
O30 C28 1.247 . S
O30 Zn31 2.028 . S
Zn31 O30 2.028 . S
Zn31 O35 2.035 . S
Zn31 O37 2.035 . S
Zn31 O38 2.028 . S
O32 C28 1.258 . S
O32 Zn33 2.035 . S
Zn33 O32 2.035 . S
Zn33 O34 2.028 . S
Zn33 O36 2.028 . S
Zn33 O39 2.035 . S
O34 Zn33 2.028 . S
O34 C40 1.247 . S
O35 Zn31 2.035 . S
O35 C40 1.258 . S
O36 C29 1.247 . S
O36 Zn33 2.028 . S
O37 C29 1.258 . S
O37 Zn31 2.035 . S
O38 Zn31 2.028 . S
O38 C41 1.247 . S
O39 Zn33 2.035 . S
O39 C41 1.258 . S
C40 O34 1.247 . S
C40 O35 1.258 . S
C41 O38 1.247 . S
C41 O39 1.258 . S
C42 O44 1.247 . S
C42 O46 1.258 . S
C43 O50 1.247 . S
C43 O51 1.258 . S
O44 C42 1.247 . S
O44 Zn45 2.028 . S
Zn45 O44 2.028 . S
Zn45 O49 2.035 . S
Zn45 O51 2.035 . S
Zn45 O52 2.028 . S
O46 C42 1.258 . S
O46 Zn47 2.035 . S
Zn47 O46 2.035 . S
Zn47 O48 2.028 . S
Zn47 O50 2.028 . S
Zn47 O53 2.035 . S
O48 Zn47 2.028 . S
O48 C54 1.247 . S
O49 Zn45 2.035 . S
O49 C54 1.258 . S
O50 C43 1.247 . S
O50 Zn47 2.028 . S
O51 C43 1.258 . S
O51 Zn45 2.035 . S
O52 Zn45 2.028 . S
O52 C55 1.247 . S
O53 Zn47 2.035 . S
O53 C55 1.258 . S
C54 O48 1.247 . S
C54 O49 1.258 . S
C55 O52 1.247 . S
C55 O53 1.258 . S
C56 O58 1.247 . S
C56 O60 1.258 . S
C57 O64 1.247 . S
C57 O65 1.258 . S
O58 C56 1.247 . S
O58 Zn59 2.028 . S
Zn59 O58 2.028 . S
Zn59 O63 2.035 . S
Zn59 O65 2.035 . S
Zn59 O66 2.028 . S
O60 C56 1.258 . S
O60 Zn61 2.035 . S
Zn61 O60 2.035 . S
Zn61 O62 2.028 . S
Zn61 O64 2.028 . S
Zn61 O67 2.035 . S
O62 Zn61 2.028 . S
O62 C68 1.247 . S
O63 Zn59 2.035 . S
O63 C68 1.258 . S
O64 C57 1.247 . S
O64 Zn61 2.028 . S
O65 C57 1.258 . S
O65 Zn59 2.035 . S
O66 Zn59 2.028 . S
O66 C69 1.247 . S
O67 Zn61 2.035 . S
O67 C69 1.258 . S
C68 O62 1.247 . S
C68 O63 1.258 . S
C69 O66 1.247 . S
C69 O67 1.258 . S
C70 O72 1.247 . S
C70 O74 1.258 . S
C71 O78 1.247 . S
C71 O79 1.258 . S
O72 C70 1.247 . S
O72 Zn73 2.028 . S
Zn73 O72 2.028 . S
Zn73 O77 2.035 . S
Zn73 O79 2.035 . S
Zn73 O80 2.028 . S
O74 C70 1.258 . S
O74 Zn75 2.035 . S
Zn75 O74 2.035 . S
Zn75 O76 2.028 . S
Zn75 O78 2.028 . S
Zn75 O81 2.035 . S
O76 Zn75 2.028 . S
O76 C82 1.247 . S
O77 Zn73 2.035 . S
O77 C82 1.258 . S
O78 C71 1.247 . S
O78 Zn75 2.028 . S
O79 C71 1.258 . S
O79 Zn73 2.035 . S
O80 Zn73 2.028 . S
O80 C83 1.247 . S
O81 Zn75 2.035 . S
O81 C83 1.258 . S
C82 O76 1.247 . S
C82 O77 1.258 . S
C83 O80 1.247 . S
C83 O81 1.258 . S
C84 O86 1.247 . S
C84 O88 1.258 . S
C85 O92 1.247 . S
C85 O93 1.258 . S
O86 C84 1.247 . S
O86 Zn87 2.028 . S
Zn87 O86 2.028 . S
Zn87 O91 2.035 . S
Zn87 O93 2.035 . S
Zn87 O94 2.028 . S
O88 C84 1.258 . S
O88 Zn89 2.035 . S
Zn89 O88 2.035 . S
Zn89 O90 2.028 . S
Zn89 O92 2.028 . S
Zn89 O95 2.035 . S
O90 Zn89 2.028 . S
O90 C96 1.247 . S
O91 Zn87 2.035 . S
O91 C96 1.258 . S
O92 C85 1.247 . S
O92 Zn89 2.028 . S
O93 C85 1.258 . S
O93 Zn87 2.035 . S
O94 Zn87 2.028 . S
O94 C97 1.247 . S
O95 Zn89 2.035 . S
O95 C97 1.258 . S
C96 O90 1.247 . S
C96 O91 1.258 . S
C97 O94 1.247 . S
C97 O95 1.258 . S
C98 O100 1.247 . S
C98 O102 1.258 . S
C99 O106 1.247 . S
C99 O107 1.258 . S
O100 C98 1.247 . S
O100 Zn101 2.028 . S
Zn101 O100 2.028 . S
Zn101 O105 2.035 . S
Zn101 O107 2.035 . S
Zn101 O108 2.028 . S
O102 C98 1.258 . S
O102 Zn103 2.035 . S
Zn103 O102 2.035 . S
Zn103 O104 2.028 . S
Zn103 O106 2.028 . S
Zn103 O109 2.035 . S
O104 Zn103 2.028 . S
O104 C110 1.247 . S
O105 Zn101 2.035 . S
O105 C110 1.258 . S
O106 C99 1.247 . S
O106 Zn103 2.028 . S
O107 C99 1.258 . S
O107 Zn101 2.035 . S
O108 Zn101 2.028 . S
O108 C111 1.247 . S
O109 Zn103 2.035 . S
O109 C111 1.258 . S
C110 O104 1.247 . S
C110 O105 1.258 . S
C111 O108 1.247 . S
C111 O109 1.258 . S
C112 O114 1.247 . S
C112 O116 1.258 . S
C113 O120 1.247 . S
C113 O121 1.258 . S
O114 C112 1.247 . S
O114 Zn115 2.028 . S
Zn115 O114 2.028 . S
Zn115 O119 2.035 . S
Zn115 O121 2.035 . S
Zn115 O122 2.028 . S
O116 C112 1.258 . S
O116 Zn117 2.035 . S
Zn117 O116 2.035 . S
Zn117 O118 2.028 . S
Zn117 O120 2.028 . S
Zn117 O123 2.035 . S
O118 Zn117 2.028 . S
O118 C124 1.247 . S
O119 Zn115 2.035 . S
O119 C124 1.258 . S
O120 C113 1.247 . S
O120 Zn117 2.028 . S
O121 C113 1.258 . S
O121 Zn115 2.035 . S
O122 Zn115 2.028 . S
O122 C125 1.247 . S
O123 Zn117 2.035 . S
O123 C125 1.258 . S
C124 O118 1.247 . S
C124 O119 1.258 . S
C125 O122 1.247 . S
C125 O123 1.258 . S
C126 O128 1.247 . S
C126 O130 1.258 . S
C127 O134 1.247 . S
C127 O135 1.258 . S
O128 C126 1.247 . S
O128 Zn129 2.028 . S
Zn129 O128 2.028 . S
Zn129 O133 2.035 . S
Zn129 O135 2.035 . S
Zn129 O136 2.028 . S
O130 C126 1.258 . S
O130 Zn131 2.035 . S
Zn131 O130 2.035 . S
Zn131 O132 2.028 . S
Zn131 O134 2.028 . S
Zn131 O137 2.035 . S
O132 Zn131 2.028 . S
O132 C138 1.247 . S
O133 Zn129 2.035 . S
O133 C138 1.258 . S
O134 C127 1.247 . S
O134 Zn131 2.028 . S
O135 C127 1.258 . S
O135 Zn129 2.035 . S
O136 Zn129 2.028 . S
O136 C139 1.247 . S
O137 Zn131 2.035 . S
O137 C139 1.258 . S
C138 O132 1.247 . S
C138 O133 1.258 . S
C139 O136 1.247 . S
C139 O137 1.258 . S
C140 O142 1.247 . S
C140 O144 1.258 . S
C141 O148 1.247 . S
C141 O149 1.258 . S
O142 C140 1.247 . S
O142 Zn143 2.028 . S
Zn143 O142 2.028 . S
Zn143 O147 2.035 . S
Zn143 O149 2.035 . S
Zn143 O150 2.028 . S
O144 C140 1.258 . S
O144 Zn145 2.035 . S
Zn145 O144 2.035 . S
Zn145 O146 2.028 . S
Zn145 O148 2.028 . S
Zn145 O151 2.035 . S
O146 Zn145 2.028 . S
O146 C152 1.247 . S
O147 Zn143 2.035 . S
O147 C152 1.258 . S
O148 C141 1.247 . S
O148 Zn145 2.028 . S
O149 C141 1.258 . S
O149 Zn143 2.035 . S
O150 Zn143 2.028 . S
O150 C153 1.247 . S
O151 Zn145 2.035 . S
O151 C153 1.258 . S
C152 O146 1.247 . S
C152 O147 1.258 . S
C153 O150 1.247 . S
C153 O151 1.258 . S
C154 O156 1.247 . S
C154 O158 1.258 . S
C155 O162 1.247 . S
C155 O163 1.258 . S
O156 C154 1.247 . S
O156 Zn157 2.028 . S
Zn157 O156 2.028 . S
Zn157 O161 2.035 . S
Zn157 O163 2.035 . S
Zn157 O164 2.028 . S
O158 C154 1.258 . S
O158 Zn159 2.035 . S
Zn159 O158 2.035 . S
Zn159 O160 2.028 . S
Zn159 O162 2.028 . S
Zn159 O165 2.035 . S
O160 Zn159 2.028 . S
O160 C166 1.247 . S
O161 Zn157 2.035 . S
O161 C166 1.258 . S
O162 C155 1.247 . S
O162 Zn159 2.028 . S
O163 C155 1.258 . S
O163 Zn157 2.035 . S
O164 Zn157 2.028 . S
O164 C167 1.247 . S
O165 Zn159 2.035 . S
O165 C167 1.258 . S
C166 O160 1.247 . S
C166 O161 1.258 . S
C167 O164 1.247 . S
C167 O165 1.258 . S
C168 O170 1.247 . S
C168 O172 1.258 . S
C169 O176 1.247 . S
C169 O177 1.258 . S
O170 C168 1.247 . S
O170 Zn171 2.028 . S
Zn171 O170 2.028 . S
Zn171 O175 2.035 . S
Zn171 O177 2.035 . S
Zn171 O178 2.028 . S
O172 C168 1.258 . S
O172 Zn173 2.035 . S
Zn173 O172 2.035 . S
Zn173 O174 2.028 . S
Zn173 O176 2.028 . S
Zn173 O179 2.035 . S
O174 Zn173 2.028 . S
O174 C180 1.247 . S
O175 Zn171 2.035 . S
O175 C180 1.258 . S
O176 C169 1.247 . S
O176 Zn173 2.028 . S
O177 C169 1.258 . S
O177 Zn171 2.035 . S
O178 Zn171 2.028 . S
O178 C181 1.247 . S
O179 Zn173 2.035 . S
O179 C181 1.258 . S
C180 O174 1.247 . S
C180 O175 1.258 . S
C181 O178 1.247 . S
C181 O179 1.258 . S
C182 O184 1.247 . S
C182 O186 1.258 . S
C183 O190 1.247 . S
C183 O191 1.258 . S
O184 C182 1.247 . S
O184 Zn185 2.028 . S
Zn185 O184 2.028 . S
Zn185 O189 2.035 . S
Zn185 O191 2.035 . S
Zn185 O192 2.028 . S
O186 C182 1.258 . S
O186 Zn187 2.035 . S
Zn187 O186 2.035 . S
Zn187 O188 2.028 . S
Zn187 O190 2.028 . S
Zn187 O193 2.035 . S
O188 Zn187 2.028 . S
O188 C194 1.247 . S
O189 Zn185 2.035 . S
O189 C194 1.258 . S
O190 C183 1.247 . S
O190 Zn187 2.028 . S
O191 C183 1.258 . S
O191 Zn185 2.035 . S
O192 Zn185 2.028 . S
O192 C195 1.247 . S
O193 Zn187 2.035 . S
O193 C195 1.258 . S
C194 O188 1.247 . S
C194 O189 1.258 . S
C195 O192 1.247 . S
C195 O193 1.258 . S
C196 O198 1.247 . S
C196 O200 1.258 . S
C197 O204 1.247 . S
C197 O205 1.258 . S
O198 C196 1.247 . S
O198 Zn199 2.028 . S
Zn199 O198 2.028 . S
Zn199 O203 2.035 . S
Zn199 O205 2.035 . S
Zn199 O206 2.028 . S
O200 C196 1.258 . S
O200 Zn201 2.035 . S
Zn201 O200 2.035 . S
Zn201 O202 2.028 . S
Zn201 O204 2.028 . S
Zn201 O207 2.035 . S
O202 Zn201 2.028 . S
O202 C208 1.247 . S
O203 Zn199 2.035 . S
O203 C208 1.258 . S
O204 C197 1.247 . S
O204 Zn201 2.028 . S
O205 C197 1.258 . S
O205 Zn199 2.035 . S
O206 Zn199 2.028 . S
O206 C209 1.247 . S
O207 Zn201 2.035 . S
O207 C209 1.258 . S
C208 O202 1.247 . S
C208 O203 1.258 . S
C209 O206 1.247 . S
C209 O207 1.258 . S
C210 O212 1.247 . S
C210 O214 1.258 . S
C211 O218 1.247 . S
C211 O219 1.258 . S
O212 C210 1.247 . S
O212 Zn213 2.028 . S
Zn213 O212 2.028 . S
Zn213 O217 2.035 . S
Zn213 O219 2.035 . S
Zn213 O220 2.028 . S
O214 C210 1.258 . S
O214 Zn215 2.035 . S
Zn215 O214 2.035 . S
Zn215 O216 2.028 . S
Zn215 O218 2.028 . S
Zn215 O221 2.035 . S
O216 Zn215 2.028 . S
O216 C222 1.247 . S
O217 Zn213 2.035 . S
O217 C222 1.258 . S
O218 C211 1.247 . S
O218 Zn215 2.028 . S
O219 C211 1.258 . S
O219 Zn213 2.035 . S
O220 Zn213 2.028 . S
O220 C223 1.247 . S
O221 Zn215 2.035 . S
O221 C223 1.258 . S
C222 O216 1.247 . S
C222 O217 1.258 . S
C223 O220 1.247 . S
C223 O221 1.258 . S
C224 O226 1.247 . S
C224 O228 1.258 . S
C225 O232 1.247 . S
C225 O233 1.258 . S
O226 C224 1.247 . S
O226 Zn227 2.028 . S
Zn227 O226 2.028 . S
Zn227 O231 2.035 . S
Zn227 O233 2.035 . S
Zn227 O234 2.028 . S
O228 C224 1.258 . S
O228 Zn229 2.035 . S
Zn229 O228 2.035 . S
Zn229 O230 2.028 . S
Zn229 O232 2.028 . S
Zn229 O235 2.035 . S
O230 Zn229 2.028 . S
O230 C236 1.247 . S
O231 Zn227 2.035 . S
O231 C236 1.258 . S
O232 C225 1.247 . S
O232 Zn229 2.028 . S
O233 C225 1.258 . S
O233 Zn227 2.035 . S
O234 Zn227 2.028 . S
O234 C237 1.247 . S
O235 Zn229 2.035 . S
O235 C237 1.258 . S
C236 O230 1.247 . S
C236 O231 1.258 . S
C237 O234 1.247 . S
C237 O235 1.258 . S
C238 O240 1.247 . S
C238 O242 1.258 . S
C239 O246 1.247 . S
C239 O247 1.258 . S
O240 C238 1.247 . S
O240 Zn241 2.028 . S
Zn241 O240 2.028 . S
Zn241 O245 2.035 . S
Zn241 O247 2.035 . S
Zn241 O248 2.028 . S
O242 C238 1.258 . S
O242 Zn243 2.035 . S
Zn243 O242 2.035 . S
Zn243 O244 2.028 . S
Zn243 O246 2.028 . S
Zn243 O249 2.035 . S
O244 Zn243 2.028 . S
O244 C250 1.247 . S
O245 Zn241 2.035 . S
O245 C250 1.258 . S
O246 C239 1.247 . S
O246 Zn243 2.028 . S
O247 C239 1.258 . S
O247 Zn241 2.035 . S
O248 Zn241 2.028 . S
O248 C251 1.247 . S
O249 Zn243 2.035 . S
O249 C251 1.258 . S
C250 O244 1.247 . S
C250 O245 1.258 . S
C251 O248 1.247 . S
C251 O249 1.258 . S
C252 O254 1.247 . S
C252 O256 1.258 . S
C253 O260 1.247 . S
C253 O261 1.258 . S
O254 C252 1.247 . S
O254 Zn255 2.028 . S
Zn255 O254 2.028 . S
Zn255 O259 2.035 . S
Zn255 O261 2.035 . S
Zn255 O262 2.028 . S
O256 C252 1.258 . S
O256 Zn257 2.035 . S
Zn257 O256 2.035 . S
Zn257 O258 2.028 . S
Zn257 O260 2.028 . S
Zn257 O263 2.035 . S
O258 Zn257 2.028 . S
O258 C264 1.247 . S
O259 Zn255 2.035 . S
O259 C264 1.258 . S
O260 C253 1.247 . S
O260 Zn257 2.028 . S
O261 C253 1.258 . S
O261 Zn255 2.035 . S
O262 Zn255 2.028 . S
O262 C265 1.247 . S
O263 Zn257 2.035 . S
O263 C265 1.258 . S
C264 O258 1.247 . S
C264 O259 1.258 . S
C265 O262 1.247 . S
C265 O263 1.258 . S
C266 O268 1.247 . S
C266 O270 1.258 . S
C267 O274 1.247 . S
C267 O275 1.258 . S
O268 C266 1.247 . S
O268 Zn269 2.028 . S
Zn269 O268 2.028 . S
Zn269 O273 2.035 . S
Zn269 O275 2.035 . S
Zn269 O276 2.028 . S
O270 C266 1.258 . S
O270 Zn271 2.035 . S
Zn271 O270 2.035 . S
Zn271 O272 2.028 . S
Zn271 O274 2.028 . S
Zn271 O277 2.035 . S
O272 Zn271 2.028 . S
O272 C278 1.247 . S
O273 Zn269 2.035 . S
O273 C278 1.258 . S
O274 C267 1.247 . S
O274 Zn271 2.028 . S
O275 C267 1.258 . S
O275 Zn269 2.035 . S
O276 Zn269 2.028 . S
O276 C279 1.247 . S
O277 Zn271 2.035 . S
O277 C279 1.258 . S
C278 O272 1.247 . S
C278 O273 1.258 . S
C279 O276 1.247 . S
C279 O277 1.258 . S
C280 O282 1.247 . S
C280 O284 1.258 . S
C281 O288 1.247 . S
C281 O289 1.258 . S
O282 C280 1.247 . S
O282 Zn283 2.028 . S
Zn283 O282 2.028 . S
Zn283 O287 2.035 . S
Zn283 O289 2.035 . S
Zn283 O290 2.028 . S
O284 C280 1.258 . S
O284 Zn285 2.035 . S
Zn285 O284 2.035 . S
Zn285 O286 2.028 . S
Zn285 O288 2.028 . S
Zn285 O291 2.035 . S
O286 Zn285 2.028 . S
O286 C292 1.247 . S
O287 Zn283 2.035 . S
O287 C292 1.258 . S
O288 C281 1.247 . S
O288 Zn285 2.028 . S
O289 C281 1.258 . S
O289 Zn283 2.035 . S
O290 Zn283 2.028 . S
O290 C293 1.247 . S
O291 Zn285 2.035 . S
O291 C293 1.258 . S
C292 O286 1.247 . S
C292 O287 1.258 . S
C293 O290 1.247 . S
C293 O291 1.258 . S
C294 O296 1.247 . S
C294 O298 1.258 . S
C295 O302 1.247 . S
C295 O303 1.258 . S
O296 C294 1.247 . S
O296 Zn297 2.028 . S
Zn297 O296 2.028 . S
Zn297 O301 2.035 . S
Zn297 O303 2.035 . S
Zn297 O304 2.028 . S
O298 C294 1.258 . S
O298 Zn299 2.035 . S
Zn299 O298 2.035 . S
Zn299 O300 2.028 . S
Zn299 O302 2.028 . S
Zn299 O305 2.035 . S
O300 Zn299 2.028 . S
O300 C306 1.247 . S
O301 Zn297 2.035 . S
O301 C306 1.258 . S
O302 C295 1.247 . S
O302 Zn299 2.028 . S
O303 C295 1.258 . S
O303 Zn297 2.035 . S
O304 Zn297 2.028 . S
O304 C307 1.247 . S
O305 Zn299 2.035 . S
O305 C307 1.258 . S
C306 O300 1.247 . S
C306 O301 1.258 . S
C307 O304 1.247 . S
C307 O305 1.258 . S
C308 O310 1.247 . S
C308 O312 1.258 . S
C309 O316 1.247 . S
C309 O317 1.258 . S
O310 C308 1.247 . S
O310 Zn311 2.028 . S
Zn311 O310 2.028 . S
Zn311 O315 2.035 . S
Zn311 O317 2.035 . S
Zn311 O318 2.028 . S
O312 C308 1.258 . S
O312 Zn313 2.035 . S
Zn313 O312 2.035 . S
Zn313 O314 2.028 . S
Zn313 O316 2.028 . S
Zn313 O319 2.035 . S
O314 Zn313 2.028 . S
O314 C320 1.247 . S
O315 Zn311 2.035 . S
O315 C320 1.258 . S
O316 C309 1.247 . S
O316 Zn313 2.028 . S
O317 C309 1.258 . S
O317 Zn311 2.035 . S
O318 Zn311 2.028 . S
O318 C321 1.247 . S
O319 Zn313 2.035 . S
O319 C321 1.258 . S
C320 O314 1.247 . S
C320 O315 1.258 . S
C321 O318 1.247 . S
C321 O319 1.258 . S
C322 O324 1.247 . S
C322 O326 1.258 . S
C323 O330 1.247 . S
C323 O331 1.258 . S
O324 C322 1.247 . S
O324 Zn325 2.028 . S
Zn325 O324 2.028 . S
Zn325 O329 2.035 . S
Zn325 O331 2.035 . S
Zn325 O332 2.028 . S
O326 C322 1.258 . S
O326 Zn327 2.035 . S
Zn327 O326 2.035 . S
Zn327 O328 2.028 . S
Zn327 O330 2.028 . S
Zn327 O333 2.035 . S
O328 Zn327 2.028 . S
O328 C334 1.247 . S
O329 Zn325 2.035 . S
O329 C334 1.258 . S
O330 C323 1.247 . S
O330 Zn327 2.028 . S
O331 C323 1.258 . S
O331 Zn325 2.035 . S
O332 Zn325 2.028 . S
O332 C335 1.247 . S
O333 Zn327 2.035 . S
O333 C335 1.258 . S
C334 O328 1.247 . S
C334 O329 1.258 . S
C335 O332 1.247 . S
C335 O333 1.258 . S
H336 C348 0.930 . S
H337 C350 0.930 . S
H338 C351 0.930 . S
H339 C355 0.959 . S
H340 C355 0.959 . S
H341 C355 0.961 . S
H342 C356 0.960 . S
H343 C356 0.961 . S
H344 C356 0.959 . S
H345 C359 0.929 . S
H346 C360 0.931 . S
H347 C362 0.930 . S
C348 H336 0.930 . S
C348 C349 1.399 . S
C348 C353 1.399 . S
C349 C348 1.399 . S
C349 C350 1.376 . S
C350 H337 0.930 . S
C350 C349 1.376 . S
C350 C351 1.388 . S
C351 H338 0.930 . S
C351 C350 1.388 . S
C351 C352 1.390 . S
C352 C351 1.390 . S
C352 C353 1.394 . S
C352 C358 1.465 . S
C353 C348 1.399 . S
C353 C352 1.394 . S
C353 C354 1.516 . S
C354 C353 1.516 . S
C354 C355 1.502 . S
C354 C356 1.561 . S
C354 C357 1.526 . S
C355 H339 0.959 . S
C355 H340 0.959 . S
C355 H341 0.961 . S
C355 C354 1.502 . S
C356 H342 0.960 . S
C356 H343 0.961 . S
C356 H344 0.959 . S
C356 C354 1.561 . S
C357 C354 1.526 . S
C357 C358 1.396 . S
C357 C362 1.390 . S
C358 C352 1.465 . S
C358 C357 1.396 . S
C358 C359 1.399 . S
C359 H345 0.929 . S
C359 C358 1.399 . S
C359 C360 1.385 . S
C360 H346 0.931 . S
C360 C359 1.385 . S
C360 C361 1.389 . S
C361 C360 1.389 . S
C361 C362 1.387 . S
C362 H347 0.930 . S
C362 C357 1.390 . S
C362 C361 1.387 . S
H363 C375 0.930 . S
H364 C377 0.930 . S
H365 C378 0.930 . S
H366 C382 0.959 . S
H367 C382 0.959 . S
H368 C382 0.961 . S
H369 C383 0.960 1_655 S
H370 C383 0.961 . S
H371 C383 0.959 . S
H372 C386 0.929 . S
H373 C387 0.931 . S
H374 C389 0.930 . S
C375 H363 0.930 . S
C375 C376 1.399 . S
C375 C380 1.399 . S
C376 C375 1.399 . S
C376 C377 1.376 . S
C377 H364 0.930 . S
C377 C376 1.376 . S
C377 C378 1.388 . S
C378 H365 0.930 . S
C378 C377 1.388 . S
C378 C379 1.390 . S
C379 C378 1.390 . S
C379 C380 1.394 . S
C379 C385 1.465 1_655 S
C380 C375 1.399 . S
C380 C379 1.394 . S
C380 C381 1.516 . S
C381 C380 1.516 . S
C381 C382 1.502 . S
C381 C383 1.561 1_655 S
C381 C384 1.526 1_655 S
C382 H366 0.959 . S
C382 H367 0.959 . S
C382 H368 0.961 . S
C382 C381 1.502 . S
C383 H369 0.960 1_455 S
C383 H370 0.961 . S
C383 H371 0.959 . S
C383 C381 1.561 1_455 S
C384 C381 1.526 1_455 S
C384 C385 1.396 . S
C384 C389 1.390 . S
C385 C379 1.465 1_455 S
C385 C384 1.396 . S
C385 C386 1.399 . S
C386 H372 0.929 . S
C386 C385 1.399 . S
C386 C387 1.385 . S
C387 H373 0.931 . S
C387 C386 1.385 . S
C387 C388 1.389 . S
C388 C387 1.389 . S
C388 C389 1.387 . S
C389 H374 0.930 . S
C389 C384 1.390 . S
C389 C388 1.387 . S
H390 C402 0.930 . S
H391 C404 0.930 . S
H392 C405 0.930 1_556 S
H393 C409 0.959 1_556 S
H394 C409 0.959 . S
H395 C409 0.961 . S
H396 C410 0.960 . S
H397 C410 0.961 . S
H398 C410 0.959 . S
H399 C413 0.929 . S
H400 C414 0.931 . S
H401 C416 0.930 . S
C402 H390 0.930 . S
C402 C403 1.399 . S
C402 C407 1.399 . S
C403 C402 1.399 . S
C403 C404 1.376 . S
C404 H391 0.930 . S
C404 C403 1.376 . S
C404 C405 1.388 . S
C405 H392 0.930 1_554 S
C405 C404 1.388 . S
C405 C406 1.390 . S
C406 C405 1.390 . S
C406 C407 1.394 . S
C406 C412 1.465 1_554 S
C407 C402 1.399 . S
C407 C406 1.394 . S
C407 C408 1.516 . S
C408 C407 1.516 . S
C408 C409 1.502 . S
C408 C410 1.561 . S
C408 C411 1.526 1_554 S
C409 H393 0.959 1_554 S
C409 H394 0.959 . S
C409 H395 0.961 . S
C409 C408 1.502 . S
C410 H396 0.960 . S
C410 H397 0.961 . S
C410 H398 0.959 . S
C410 C408 1.561 . S
C411 C408 1.526 1_556 S
C411 C412 1.396 . S
C411 C416 1.390 . S
C412 C406 1.465 1_556 S
C412 C411 1.396 . S
C412 C413 1.399 . S
C413 H399 0.929 . S
C413 C412 1.399 . S
C413 C414 1.385 . S
C414 H400 0.931 . S
C414 C413 1.385 . S
C414 C415 1.389 . S
C415 C414 1.389 . S
C415 C416 1.387 . S
C416 H401 0.930 . S
C416 C411 1.390 . S
C416 C415 1.387 . S
H417 C429 0.930 . S
H418 C431 0.930 . S
H419 C432 0.930 . S
H420 C436 0.959 . S
H421 C436 0.959 . S
H422 C436 0.961 . S
H423 C437 0.960 . S
H424 C437 0.961 . S
H425 C437 0.959 . S
H426 C440 0.929 . S
H427 C441 0.931 . S
H428 C443 0.930 . S
C429 H417 0.930 . S
C429 C430 1.399 . S
C429 C434 1.399 . S
C430 C429 1.399 . S
C430 C431 1.376 . S
C431 H418 0.930 . S
C431 C430 1.376 . S
C431 C432 1.388 . S
C432 H419 0.930 . S
C432 C431 1.388 . S
C432 C433 1.390 . S
C433 C432 1.390 . S
C433 C434 1.394 . S
C433 C439 1.465 . S
C434 C429 1.399 . S
C434 C433 1.394 . S
C434 C435 1.516 . S
C435 C434 1.516 . S
C435 C436 1.502 . S
C435 C437 1.561 . S
C435 C438 1.526 . S
C436 H420 0.959 . S
C436 H421 0.959 . S
C436 H422 0.961 . S
C436 C435 1.502 . S
C437 H423 0.960 . S
C437 H424 0.961 . S
C437 H425 0.959 . S
C437 C435 1.561 . S
C438 C435 1.526 . S
C438 C439 1.396 . S
C438 C443 1.390 . S
C439 C433 1.465 . S
C439 C438 1.396 . S
C439 C440 1.399 . S
C440 H426 0.929 . S
C440 C439 1.399 . S
C440 C441 1.385 . S
C441 H427 0.931 . S
C441 C440 1.385 . S
C441 C442 1.389 . S
C442 C441 1.389 . S
C442 C443 1.387 . S
C443 H428 0.930 . S
C443 C438 1.390 . S
C443 C442 1.387 . S
H444 C456 0.930 . S
H445 C458 0.930 . S
H446 C459 0.930 . S
H447 C463 0.959 . S
H448 C463 0.959 . S
H449 C463 0.961 . S
H450 C464 0.960 . S
H451 C464 0.961 . S
H452 C464 0.959 . S
H453 C467 0.929 1_556 S
H454 C468 0.931 . S
H455 C470 0.930 . S
C456 H444 0.930 . S
C456 C457 1.399 . S
C456 C461 1.399 . S
C457 C456 1.399 . S
C457 C458 1.376 . S
C458 H445 0.930 . S
C458 C457 1.376 . S
C458 C459 1.388 . S
C459 H446 0.930 . S
C459 C458 1.388 . S
C459 C460 1.390 . S
C460 C459 1.390 . S
C460 C461 1.394 . S
C460 C466 1.465 1_556 S
C461 C456 1.399 . S
C461 C460 1.394 . S
C461 C462 1.516 1_556 S
C462 C461 1.516 1_554 S
C462 C463 1.502 . S
C462 C464 1.561 . S
C462 C465 1.526 . S
C463 H447 0.959 . S
C463 H448 0.959 . S
C463 H449 0.961 . S
C463 C462 1.502 . S
C464 H450 0.960 . S
C464 H451 0.961 . S
C464 H452 0.959 . S
C464 C462 1.561 . S
C465 C462 1.526 . S
C465 C466 1.396 . S
C465 C470 1.390 . S
C466 C460 1.465 1_554 S
C466 C465 1.396 . S
C466 C467 1.399 . S
C467 H453 0.929 1_554 S
C467 C466 1.399 . S
C467 C468 1.385 . S
C468 H454 0.931 . S
C468 C467 1.385 . S
C468 C469 1.389 . S
C469 C468 1.389 . S
C469 C470 1.387 . S
C470 H455 0.930 . S
C470 C465 1.390 . S
C470 C469 1.387 . S
H471 C483 0.930 . S
H472 C485 0.930 . S
H473 C486 0.930 . S
H474 C490 0.959 . S
H475 C490 0.959 . S
H476 C490 0.961 . S
H477 C491 0.960 . S
H478 C491 0.961 . S
H479 C491 0.959 . S
H480 C494 0.929 . S
H481 C495 0.931 . S
H482 C497 0.930 . S
C483 H471 0.930 . S
C483 C484 1.399 . S
C483 C488 1.399 . S
C484 C483 1.399 . S
C484 C485 1.376 . S
C485 H472 0.930 . S
C485 C484 1.376 . S
C485 C486 1.388 . S
C486 H473 0.930 . S
C486 C485 1.388 . S
C486 C487 1.390 . S
C487 C486 1.390 . S
C487 C488 1.394 . S
C487 C493 1.465 . S
C488 C483 1.399 . S
C488 C487 1.394 . S
C488 C489 1.516 . S
C489 C488 1.516 . S
C489 C490 1.502 . S
C489 C491 1.561 . S
C489 C492 1.526 . S
C490 H474 0.959 . S
C490 H475 0.959 . S
C490 H476 0.961 . S
C490 C489 1.502 . S
C491 H477 0.960 . S
C491 H478 0.961 . S
C491 H479 0.959 . S
C491 C489 1.561 . S
C492 C489 1.526 . S
C492 C493 1.396 . S
C492 C497 1.390 . S
C493 C487 1.465 . S
C493 C492 1.396 . S
C493 C494 1.399 . S
C494 H480 0.929 . S
C494 C493 1.399 . S
C494 C495 1.385 . S
C495 H481 0.931 . S
C495 C494 1.385 . S
C495 C496 1.389 . S
C496 C495 1.389 . S
C496 C497 1.387 . S
C497 H482 0.930 . S
C497 C492 1.390 . S
C497 C496 1.387 . S
H498 C510 0.930 . S
H499 C512 0.930 . S
H500 C513 0.930 . S
H501 C517 0.959 . S
H502 C517 0.959 . S
H503 C517 0.961 . S
H504 C518 0.960 . S
H505 C518 0.961 . S
H506 C518 0.959 . S
H507 C521 0.929 . S
H508 C522 0.931 . S
H509 C524 0.930 . S
C510 H498 0.930 . S
C510 C511 1.399 . S
C510 C515 1.399 . S
C511 C510 1.399 . S
C511 C512 1.376 . S
C512 H499 0.930 . S
C512 C511 1.376 . S
C512 C513 1.388 . S
C513 H500 0.930 . S
C513 C512 1.388 . S
C513 C514 1.390 . S
C514 C513 1.390 . S
C514 C515 1.394 . S
C514 C520 1.465 . S
C515 C510 1.399 . S
C515 C514 1.394 . S
C515 C516 1.516 . S
C516 C515 1.516 . S
C516 C517 1.502 . S
C516 C518 1.561 . S
C516 C519 1.526 . S
C517 H501 0.959 . S
C517 H502 0.959 . S
C517 H503 0.961 . S
C517 C516 1.502 . S
C518 H504 0.960 . S
C518 H505 0.961 . S
C518 H506 0.959 . S
C518 C516 1.561 . S
C519 C516 1.526 . S
C519 C520 1.396 . S
C519 C524 1.390 . S
C520 C514 1.465 . S
C520 C519 1.396 . S
C520 C521 1.399 . S
C521 H507 0.929 . S
C521 C520 1.399 . S
C521 C522 1.385 . S
C522 H508 0.931 . S
C522 C521 1.385 . S
C522 C523 1.389 . S
C523 C522 1.389 . S
C523 C524 1.387 . S
C524 H509 0.930 . S
C524 C519 1.390 . S
C524 C523 1.387 . S
H525 C537 0.930 . S
H526 C539 0.930 . S
H527 C540 0.930 . S
H528 C544 0.959 . S
H529 C544 0.959 . S
H530 C544 0.961 . S
H531 C545 0.960 1_455 S
H532 C545 0.961 . S
H533 C545 0.959 . S
H534 C548 0.929 . S
H535 C549 0.931 . S
H536 C551 0.930 . S
C537 H525 0.930 . S
C537 C538 1.399 . S
C537 C542 1.399 . S
C538 C537 1.399 . S
C538 C539 1.376 . S
C539 H526 0.930 . S
C539 C538 1.376 . S
C539 C540 1.388 . S
C540 H527 0.930 . S
C540 C539 1.388 . S
C540 C541 1.390 . S
C541 C540 1.390 . S
C541 C542 1.394 . S
C541 C547 1.465 1_455 S
C542 C537 1.399 . S
C542 C541 1.394 . S
C542 C543 1.516 . S
C543 C542 1.516 . S
C543 C544 1.502 . S
C543 C545 1.561 1_455 S
C543 C546 1.526 1_455 S
C544 H528 0.959 . S
C544 H529 0.959 . S
C544 H530 0.961 . S
C544 C543 1.502 . S
C545 H531 0.960 1_655 S
C545 H532 0.961 . S
C545 H533 0.959 . S
C545 C543 1.561 1_655 S
C546 C543 1.526 1_655 S
C546 C547 1.396 . S
C546 C551 1.390 . S
C547 C541 1.465 1_655 S
C547 C546 1.396 . S
C547 C548 1.399 . S
C548 H534 0.929 . S
C548 C547 1.399 . S
C548 C549 1.385 . S
C549 H535 0.931 . S
C549 C548 1.385 . S
C549 C550 1.389 . S
C550 C549 1.389 . S
C550 C551 1.387 . S
C551 H536 0.930 . S
C551 C546 1.390 . S
C551 C550 1.387 . S
H552 C564 0.930 . S
H553 C566 0.930 . S
H554 C567 0.930 . S
H555 C571 0.959 . S
H556 C571 0.959 . S
H557 C571 0.961 . S
H558 C572 0.960 . S
H559 C572 0.961 . S
H560 C572 0.959 . S
H561 C575 0.929 . S
H562 C576 0.931 . S
H563 C578 0.930 . S
C564 H552 0.930 . S
C564 C565 1.399 . S
C564 C569 1.399 . S
C565 C564 1.399 . S
C565 C566 1.376 . S
C566 H553 0.930 . S
C566 C565 1.376 . S
C566 C567 1.388 . S
C567 H554 0.930 . S
C567 C566 1.388 . S
C567 C568 1.390 . S
C568 C567 1.390 . S
C568 C569 1.394 . S
C568 C574 1.465 . S
C569 C564 1.399 . S
C569 C568 1.394 . S
C569 C570 1.516 . S
C570 C569 1.516 . S
C570 C571 1.502 . S
C570 C572 1.561 . S
C570 C573 1.526 . S
C571 H555 0.959 . S
C571 H556 0.959 . S
C571 H557 0.961 . S
C571 C570 1.502 . S
C572 H558 0.960 . S
C572 H559 0.961 . S
C572 H560 0.959 . S
C572 C570 1.561 . S
C573 C570 1.526 . S
C573 C574 1.396 . S
C573 C578 1.390 . S
C574 C568 1.465 . S
C574 C573 1.396 . S
C574 C575 1.399 . S
C575 H561 0.929 . S
C575 C574 1.399 . S
C575 C576 1.385 . S
C576 H562 0.931 . S
C576 C575 1.385 . S
C576 C577 1.389 . S
C577 C576 1.389 . S
C577 C578 1.387 . S
C578 H563 0.930 . S
C578 C573 1.390 . S
C578 C577 1.387 . S
H579 C591 0.930 . S
H580 C593 0.930 . S
H581 C594 0.930 . S
H582 C598 0.959 . S
H583 C598 0.959 . S
H584 C598 0.961 . S
H585 C599 0.960 . S
H586 C599 0.961 . S
H587 C599 0.959 . S
H588 C602 0.929 . S
H589 C603 0.931 . S
H590 C605 0.930 . S
C591 H579 0.930 . S
C591 C592 1.399 . S
C591 C596 1.399 . S
C592 C591 1.399 . S
C592 C593 1.376 . S
C593 H580 0.930 . S
C593 C592 1.376 . S
C593 C594 1.388 . S
C594 H581 0.930 . S
C594 C593 1.388 . S
C594 C595 1.390 . S
C595 C594 1.390 . S
C595 C596 1.394 . S
C595 C601 1.465 1_545 S
C596 C591 1.399 . S
C596 C595 1.394 . S
C596 C597 1.522 . S
C597 C596 1.522 . S
C597 C598 1.496 1_545 S
C597 C599 1.568 . S
C597 C600 1.520 1_545 S
C598 H582 0.959 . S
C598 H583 0.959 . S
C598 H584 0.961 . S
C598 C597 1.496 1_565 S
C599 H585 0.960 . S
C599 H586 0.961 . S
C599 H587 0.959 . S
C599 C597 1.568 . S
C600 C597 1.520 1_565 S
C600 C601 1.396 . S
C600 C605 1.390 . S
C601 C595 1.465 1_565 S
C601 C600 1.396 . S
C601 C602 1.399 . S
C602 H588 0.929 . S
C602 C601 1.399 . S
C602 C603 1.385 . S
C603 H589 0.931 . S
C603 C602 1.385 . S
C603 C604 1.389 . S
C604 C603 1.389 . S
C604 C605 1.387 . S
C605 H590 0.930 . S
C605 C600 1.390 . S
C605 C604 1.387 . S
H606 C618 0.930 . S
H607 C620 0.930 . S
H608 C621 0.930 . S
H609 C625 0.959 . S
H610 C625 0.959 . S
H611 C625 0.961 . S
H612 C626 0.960 . S
H613 C626 0.961 . S
H614 C626 0.959 . S
H615 C629 0.929 . S
H616 C630 0.931 . S
H617 C632 0.930 . S
C618 H606 0.930 . S
C618 C619 1.399 . S
C618 C623 1.399 . S
C619 C618 1.399 . S
C619 C620 1.376 . S
C620 H607 0.930 . S
C620 C619 1.376 . S
C620 C621 1.388 . S
C621 H608 0.930 . S
C621 C620 1.388 . S
C621 C622 1.390 . S
C622 C621 1.390 . S
C622 C623 1.394 . S
C622 C628 1.465 1_545 S
C623 C618 1.399 . S
C623 C622 1.394 . S
C623 C624 1.516 . S
C624 C623 1.516 . S
C624 C625 1.502 . S
C624 C626 1.561 1_545 S
C624 C627 1.526 1_545 S
C625 H609 0.959 . S
C625 H610 0.959 . S
C625 H611 0.961 . S
C625 C624 1.502 . S
C626 H612 0.960 . S
C626 H613 0.961 . S
C626 H614 0.959 . S
C626 C624 1.561 1_565 S
C627 C624 1.526 1_565 S
C627 C628 1.396 . S
C627 C632 1.390 . S
C628 C622 1.465 1_565 S
C628 C627 1.396 . S
C628 C629 1.399 . S
C629 H615 0.929 . S
C629 C628 1.399 . S
C629 C630 1.385 . S
C630 H616 0.931 . S
C630 C629 1.385 . S
C630 C631 1.389 . S
C631 C630 1.389 . S
C631 C632 1.387 . S
C632 H617 0.930 . S
C632 C627 1.390 . S
C632 C631 1.387 . S
H633 C645 0.930 . S
H634 C647 0.930 . S
H635 C648 0.930 . S
H636 C652 0.959 . S
H637 C652 0.959 . S
H638 C652 0.961 . S
H639 C653 0.960 . S
H640 C653 0.961 . S
H641 C653 0.959 . S
H642 C656 0.929 . S
H643 C657 0.931 . S
H644 C659 0.930 . S
C645 H633 0.930 . S
C645 C646 1.399 . S
C645 C650 1.399 . S
C646 C645 1.399 . S
C646 C647 1.376 . S
C647 H634 0.930 . S
C647 C646 1.376 . S
C647 C648 1.388 . S
C648 H635 0.930 . S
C648 C647 1.388 . S
C648 C649 1.390 . S
C649 C648 1.390 . S
C649 C650 1.394 . S
C649 C655 1.465 1_545 S
C650 C645 1.399 . S
C650 C649 1.394 . S
C650 C651 1.516 . S
C651 C650 1.516 . S
C651 C652 1.502 . S
C651 C653 1.561 1_545 S
C651 C654 1.526 1_545 S
C652 H636 0.959 . S
C652 H637 0.959 . S
C652 H638 0.961 . S
C652 C651 1.502 . S
C653 H639 0.960 . S
C653 H640 0.961 . S
C653 H641 0.959 . S
C653 C651 1.561 1_565 S
C654 C651 1.526 1_565 S
C654 C655 1.396 . S
C654 C659 1.390 . S
C655 C649 1.465 1_565 S
C655 C654 1.396 . S
C655 C656 1.399 . S
C656 H642 0.929 . S
C656 C655 1.399 . S
C656 C657 1.385 . S
C657 H643 0.931 . S
C657 C656 1.385 . S
C657 C658 1.389 . S
C658 C657 1.389 . S
C658 C659 1.387 . S
C659 H644 0.930 . S
C659 C654 1.390 . S
C659 C658 1.387 . S
H660 C672 0.930 . S
H661 C674 0.930 . S
H662 C675 0.930 . S
H663 C679 0.959 . S
H664 C679 0.959 . S
H665 C679 0.961 . S
H666 C680 0.960 . S
H667 C680 0.961 . S
H668 C680 0.959 . S
H669 C683 0.929 . S
H670 C684 0.931 . S
H671 C686 0.930 . S
C672 H660 0.930 . S
C672 C673 1.399 . S
C672 C677 1.399 . S
C673 C672 1.399 . S
C673 C674 1.376 . S
C674 H661 0.930 . S
C674 C673 1.376 . S
C674 C675 1.388 . S
C675 H662 0.930 . S
C675 C674 1.388 . S
C675 C676 1.390 . S
C676 C675 1.390 . S
C676 C677 1.394 . S
C676 C682 1.465 . S
C677 C672 1.399 . S
C677 C676 1.394 . S
C677 C678 1.516 . S
C678 C677 1.516 . S
C678 C679 1.502 . S
C678 C680 1.561 . S
C678 C681 1.526 . S
C679 H663 0.959 . S
C679 H664 0.959 . S
C679 H665 0.961 . S
C679 C678 1.502 . S
C680 H666 0.960 . S
C680 H667 0.961 . S
C680 H668 0.959 . S
C680 C678 1.561 . S
C681 C678 1.526 . S
C681 C682 1.396 . S
C681 C686 1.390 . S
C682 C676 1.465 . S
C682 C681 1.396 . S
C682 C683 1.399 . S
C683 H669 0.929 . S
C683 C682 1.399 . S
C683 C684 1.385 . S
C684 H670 0.931 . S
C684 C683 1.385 . S
C684 C685 1.389 . S
C685 C684 1.389 . S
C685 C686 1.387 . S
C686 H671 0.930 . S
C686 C681 1.390 . S
C686 C685 1.387 . S
H687 C699 0.930 . S
H688 C701 0.930 . S
H689 C702 0.930 . S
H690 C706 0.959 . S
H691 C706 0.959 . S
H692 C706 0.961 . S
H693 C707 0.960 . S
H694 C707 0.961 . S
H695 C707 0.959 . S
H696 C710 0.929 . S
H697 C711 0.931 . S
H698 C713 0.930 . S
C699 H687 0.930 . S
C699 C700 1.399 . S
C699 C704 1.399 . S
C700 C699 1.399 . S
C700 C701 1.376 . S
C701 H688 0.930 . S
C701 C700 1.376 . S
C701 C702 1.388 . S
C702 H689 0.930 . S
C702 C701 1.388 . S
C702 C703 1.390 . S
C703 C702 1.390 . S
C703 C704 1.394 . S
C703 C709 1.465 . S
C704 C699 1.399 . S
C704 C703 1.394 . S
C704 C705 1.516 . S
C705 C704 1.516 . S
C705 C706 1.502 . S
C705 C707 1.561 . S
C705 C708 1.526 . S
C706 H690 0.959 . S
C706 H691 0.959 . S
C706 H692 0.961 . S
C706 C705 1.502 . S
C707 H693 0.960 . S
C707 H694 0.961 . S
C707 H695 0.959 . S
C707 C705 1.561 . S
C708 C705 1.526 . S
C708 C709 1.396 . S
C708 C713 1.390 . S
C709 C703 1.465 . S
C709 C708 1.396 . S
C709 C710 1.399 . S
C710 H696 0.929 . S
C710 C709 1.399 . S
C710 C711 1.385 . S
C711 H697 0.931 . S
C711 C710 1.385 . S
C711 C712 1.389 . S
C712 C711 1.389 . S
C712 C713 1.387 . S
C713 H698 0.930 . S
C713 C708 1.390 . S
C713 C712 1.387 . S
H714 C726 0.930 . S
H715 C728 0.930 . S
H716 C729 0.930 . S
H717 C733 0.959 . S
H718 C733 0.959 . S
H719 C733 0.961 . S
H720 C734 0.960 . S
H721 C734 0.961 . S
H722 C734 0.959 . S
H723 C737 0.929 . S
H724 C738 0.931 . S
H725 C740 0.930 . S
C726 H714 0.930 . S
C726 C727 1.399 . S
C726 C731 1.399 . S
C727 C726 1.399 . S
C727 C728 1.376 . S
C728 H715 0.930 . S
C728 C727 1.376 . S
C728 C729 1.388 . S
C729 H716 0.930 . S
C729 C728 1.388 . S
C729 C730 1.390 . S
C730 C729 1.390 . S
C730 C731 1.394 . S
C730 C736 1.465 . S
C731 C726 1.399 . S
C731 C730 1.394 . S
C731 C732 1.516 . S
C732 C731 1.516 . S
C732 C733 1.502 . S
C732 C734 1.561 . S
C732 C735 1.526 . S
C733 H717 0.959 . S
C733 H718 0.959 . S
C733 H719 0.961 . S
C733 C732 1.502 . S
C734 H720 0.960 . S
C734 H721 0.961 . S
C734 H722 0.959 . S
C734 C732 1.561 . S
C735 C732 1.526 . S
C735 C736 1.396 . S
C735 C740 1.390 . S
C736 C730 1.465 . S
C736 C735 1.396 . S
C736 C737 1.399 . S
C737 H723 0.929 . S
C737 C736 1.399 . S
C737 C738 1.385 . S
C738 H724 0.931 . S
C738 C737 1.385 . S
C738 C739 1.389 . S
C739 C738 1.389 . S
C739 C740 1.387 . S
C740 H725 0.930 . S
C740 C735 1.390 . S
C740 C739 1.387 . S
H741 C753 0.930 . S
H742 C755 0.930 . S
H743 C756 0.930 . S
H744 C760 0.959 . S
H745 C760 0.959 . S
H746 C760 0.961 . S
H747 C761 0.960 . S
H748 C761 0.961 . S
H749 C761 0.959 . S
H750 C764 0.929 1_556 S
H751 C765 0.931 . S
H752 C767 0.930 . S
C753 H741 0.930 . S
C753 C754 1.399 . S
C753 C758 1.399 . S
C754 C753 1.399 . S
C754 C755 1.376 . S
C755 H742 0.930 . S
C755 C754 1.376 . S
C755 C756 1.388 . S
C756 H743 0.930 . S
C756 C755 1.388 . S
C756 C757 1.390 . S
C757 C756 1.390 . S
C757 C758 1.394 . S
C757 C763 1.465 1_556 S
C758 C753 1.399 . S
C758 C757 1.394 . S
C758 C759 1.516 1_556 S
C759 C758 1.516 1_554 S
C759 C760 1.502 . S
C759 C761 1.561 . S
C759 C762 1.526 . S
C760 H744 0.959 . S
C760 H745 0.959 . S
C760 H746 0.961 . S
C760 C759 1.502 . S
C761 H747 0.960 . S
C761 H748 0.961 . S
C761 H749 0.959 . S
C761 C759 1.561 . S
C762 C759 1.526 . S
C762 C763 1.396 . S
C762 C767 1.390 . S
C763 C757 1.465 1_554 S
C763 C762 1.396 . S
C763 C764 1.399 . S
C764 H750 0.929 1_554 S
C764 C763 1.399 . S
C764 C765 1.385 . S
C765 H751 0.931 . S
C765 C764 1.385 . S
C765 C766 1.389 . S
C766 C765 1.389 . S
C766 C767 1.387 . S
C767 H752 0.930 . S
C767 C762 1.390 . S
C767 C766 1.387 . S
H768 C780 0.930 . S
H769 C782 0.930 . S
H770 C783 0.930 . S
H771 C787 0.959 . S
H772 C787 0.959 . S
H773 C787 0.961 . S
H774 C788 0.960 . S
H775 C788 0.961 . S
H776 C788 0.959 . S
H777 C791 0.929 . S
H778 C792 0.931 . S
H779 C794 0.930 . S
C780 H768 0.930 . S
C780 C781 1.399 . S
C780 C785 1.399 . S
C781 C780 1.399 . S
C781 C782 1.376 . S
C782 H769 0.930 . S
C782 C781 1.376 . S
C782 C783 1.388 . S
C783 H770 0.930 . S
C783 C782 1.388 . S
C783 C784 1.390 . S
C784 C783 1.390 . S
C784 C785 1.394 . S
C784 C790 1.465 . S
C785 C780 1.399 . S
C785 C784 1.394 . S
C785 C786 1.516 . S
C786 C785 1.516 . S
C786 C787 1.502 . S
C786 C788 1.561 . S
C786 C789 1.526 . S
C787 H771 0.959 . S
C787 H772 0.959 . S
C787 H773 0.961 . S
C787 C786 1.502 . S
C788 H774 0.960 . S
C788 H775 0.961 . S
C788 H776 0.959 . S
C788 C786 1.561 . S
C789 C786 1.526 . S
C789 C790 1.396 . S
C789 C794 1.390 . S
C790 C784 1.465 . S
C790 C789 1.396 . S
C790 C791 1.399 . S
C791 H777 0.929 . S
C791 C790 1.399 . S
C791 C792 1.385 . S
C792 H778 0.931 . S
C792 C791 1.385 . S
C792 C793 1.389 . S
C793 C792 1.389 . S
C793 C794 1.387 . S
C794 H779 0.930 . S
C794 C789 1.390 . S
C794 C793 1.387 . S
H795 C807 0.930 . S
H796 C809 0.930 . S
H797 C810 0.930 . S
H798 C814 0.959 . S
H799 C814 0.959 . S
H800 C814 0.961 . S
H801 C815 0.960 . S
H802 C815 0.961 . S
H803 C815 0.959 . S
H804 C818 0.929 . S
H805 C819 0.931 . S
H806 C821 0.930 . S
C807 H795 0.930 . S
C807 C808 1.399 . S
C807 C812 1.399 . S
C808 C807 1.399 . S
C808 C809 1.376 . S
C809 H796 0.930 . S
C809 C808 1.376 . S
C809 C810 1.388 . S
C810 H797 0.930 . S
C810 C809 1.388 . S
C810 C811 1.390 . S
C811 C810 1.390 . S
C811 C812 1.394 . S
C811 C817 1.465 . S
C812 C807 1.399 . S
C812 C811 1.394 . S
C812 C813 1.516 . S
C813 C812 1.516 . S
C813 C814 1.502 . S
C813 C815 1.561 . S
C813 C816 1.526 . S
C814 H798 0.959 . S
C814 H799 0.959 . S
C814 H800 0.961 . S
C814 C813 1.502 . S
C815 H801 0.960 . S
C815 H802 0.961 . S
C815 H803 0.959 . S
C815 C813 1.561 . S
C816 C813 1.526 . S
C816 C817 1.396 . S
C816 C821 1.390 . S
C817 C811 1.465 . S
C817 C816 1.396 . S
C817 C818 1.399 . S
C818 H804 0.929 . S
C818 C817 1.399 . S
C818 C819 1.385 . S
C819 H805 0.931 . S
C819 C818 1.385 . S
C819 C820 1.389 . S
C820 C819 1.389 . S
C820 C821 1.387 . S
C821 H806 0.930 . S
C821 C816 1.390 . S
C821 C820 1.387 . S
H822 C834 0.930 . S
H823 C836 0.930 . S
H824 C837 0.930 . S
H825 C841 0.959 . S
H826 C841 0.959 . S
H827 C841 0.961 . S
H828 C842 0.960 . S
H829 C842 0.961 . S
H830 C842 0.959 . S
H831 C845 0.929 . S
H832 C846 0.931 . S
H833 C848 0.930 . S
C834 H822 0.930 . S
C834 C835 1.399 . S
C834 C839 1.399 . S
C835 C834 1.399 . S
C835 C836 1.376 . S
C836 H823 0.930 . S
C836 C835 1.376 . S
C836 C837 1.388 . S
C837 H824 0.930 . S
C837 C836 1.388 . S
C837 C838 1.390 . S
C838 C837 1.390 . S
C838 C839 1.394 . S
C838 C844 1.465 1_655 S
C839 C834 1.399 . S
C839 C838 1.394 . S
C839 C840 1.516 1_655 S
C840 C839 1.516 1_455 S
C840 C841 1.502 1_455 S
C840 C842 1.561 . S
C840 C843 1.526 . S
C841 H825 0.959 . S
C841 H826 0.959 . S
C841 H827 0.961 . S
C841 C840 1.502 1_655 S
C842 H828 0.960 . S
C842 H829 0.961 . S
C842 H830 0.959 . S
C842 C840 1.561 . S
C843 C840 1.526 . S
C843 C844 1.396 . S
C843 C848 1.390 . S
C844 C838 1.465 1_455 S
C844 C843 1.396 . S
C844 C845 1.399 . S
C845 H831 0.929 . S
C845 C844 1.399 . S
C845 C846 1.385 . S
C846 H832 0.931 . S
C846 C845 1.385 . S
C846 C847 1.389 . S
C847 C846 1.389 . S
C847 C848 1.387 . S
C848 H833 0.930 . S
C848 C843 1.390 . S
C848 C847 1.387 . S
H849 C861 0.930 . S
H850 C863 0.930 . S
H851 C864 0.930 . S
H852 C868 0.959 . S
H853 C868 0.959 . S
H854 C868 0.961 . S
H855 C869 0.960 . S
H856 C869 0.961 . S
H857 C869 0.959 . S
H858 C872 0.929 . S
H859 C873 0.931 . S
H860 C875 0.930 . S
C861 H849 0.930 . S
C861 C862 1.399 . S
C861 C866 1.399 . S
C862 C861 1.399 . S
C862 C863 1.376 . S
C863 H850 0.930 . S
C863 C862 1.376 . S
C863 C864 1.388 . S
C864 H851 0.930 . S
C864 C863 1.388 . S
C864 C865 1.390 . S
C865 C864 1.390 . S
C865 C866 1.394 . S
C865 C871 1.465 . S
C866 C861 1.399 . S
C866 C865 1.394 . S
C866 C867 1.516 . S
C867 C866 1.516 . S
C867 C868 1.502 . S
C867 C869 1.561 . S
C867 C870 1.526 . S
C868 H852 0.959 . S
C868 H853 0.959 . S
C868 H854 0.961 . S
C868 C867 1.502 . S
C869 H855 0.960 . S
C869 H856 0.961 . S
C869 H857 0.959 . S
C869 C867 1.561 . S
C870 C867 1.526 . S
C870 C871 1.396 . S
C870 C875 1.390 . S
C871 C865 1.465 . S
C871 C870 1.396 . S
C871 C872 1.399 . S
C872 H858 0.929 . S
C872 C871 1.399 . S
C872 C873 1.385 . S
C873 H859 0.931 . S
C873 C872 1.385 . S
C873 C874 1.389 . S
C874 C873 1.389 . S
C874 C875 1.387 . S
C875 H860 0.930 . S
C875 C870 1.390 . S
C875 C874 1.387 . S
H876 C888 0.930 . S
H877 C890 0.930 . S
H878 C891 0.930 . S
H879 C895 0.959 . S
H880 C895 0.959 . S
H881 C895 0.961 . S
H882 C896 0.960 . S
H883 C896 0.961 . S
H884 C896 0.959 . S
H885 C899 0.929 1_455 S
H886 C900 0.931 . S
H887 C902 0.930 . S
C888 H876 0.930 . S
C888 C889 1.399 . S
C888 C893 1.399 . S
C889 C888 1.399 . S
C889 C890 1.376 . S
C890 H877 0.930 . S
C890 C889 1.376 . S
C890 C891 1.388 . S
C891 H878 0.930 . S
C891 C890 1.388 . S
C891 C892 1.390 . S
C892 C891 1.390 . S
C892 C893 1.394 . S
C892 C898 1.465 1_455 S
C893 C888 1.399 . S
C893 C892 1.394 . S
C893 C894 1.516 1_455 S
C894 C893 1.516 1_655 S
C894 C895 1.502 . S
C894 C896 1.561 . S
C894 C897 1.526 . S
C895 H879 0.959 . S
C895 H880 0.959 . S
C895 H881 0.961 . S
C895 C894 1.502 . S
C896 H882 0.960 . S
C896 H883 0.961 . S
C896 H884 0.959 . S
C896 C894 1.561 . S
C897 C894 1.526 . S
C897 C898 1.396 . S
C897 C902 1.390 . S
C898 C892 1.465 1_655 S
C898 C897 1.396 . S
C898 C899 1.399 . S
C899 H885 0.929 1_655 S
C899 C898 1.399 . S
C899 C900 1.385 . S
C900 H886 0.931 . S
C900 C899 1.385 . S
C900 C901 1.389 . S
C901 C900 1.389 . S
C901 C902 1.387 . S
C902 H887 0.930 . S
C902 C897 1.390 . S
C902 C901 1.387 . S
H903 C915 0.930 . S
H904 C917 0.930 . S
H905 C918 0.930 . S
H906 C922 0.959 . S
H907 C922 0.959 . S
H908 C922 0.961 . S
H909 C923 0.971 . S
H910 C923 0.943 1_554 S
H911 C923 0.973 . S
H912 C926 0.929 1_556 S
H913 C927 0.931 . S
H914 C929 0.930 . S
C915 H903 0.930 . S
C915 C916 1.399 . S
C915 C920 1.399 . S
C916 C915 1.399 . S
C916 C917 1.376 . S
C917 H904 0.930 . S
C917 C916 1.376 . S
C917 C918 1.388 . S
C918 H905 0.930 . S
C918 C917 1.388 . S
C918 C919 1.390 . S
C919 C918 1.390 . S
C919 C920 1.394 . S
C919 C925 1.465 1_556 S
C920 C915 1.399 . S
C920 C919 1.394 . S
C920 C921 1.516 1_556 S
C921 C920 1.516 1_554 S
C921 C922 1.502 . S
C921 C923 1.554 1_554 S
C921 C924 1.526 . S
C922 H906 0.959 . S
C922 H907 0.959 . S
C922 H908 0.961 . S
C922 C921 1.502 . S
C923 H909 0.971 . S
C923 H910 0.943 1_556 S
C923 H911 0.973 . S
C923 C921 1.554 1_556 S
C924 C921 1.526 . S
C924 C925 1.396 . S
C924 C929 1.390 . S
C925 C919 1.465 1_554 S
C925 C924 1.396 . S
C925 C926 1.399 . S
C926 H912 0.929 1_554 S
C926 C925 1.399 . S
C926 C927 1.385 . S
C927 H913 0.931 . S
C927 C926 1.385 . S
C927 C928 1.389 . S
C928 C927 1.389 . S
C928 C929 1.387 . S
C929 H914 0.930 . S
C929 C924 1.390 . S
C929 C928 1.387 . S
H930 C942 0.930 . S
H931 C944 0.930 . S
H932 C945 0.930 . S
H933 C949 0.959 . S
H934 C949 0.959 . S
H935 C949 0.961 . S
H936 C950 0.960 . S
H937 C950 0.961 . S
H938 C950 0.959 . S
H939 C953 0.929 . S
H940 C954 0.931 . S
H941 C956 0.930 . S
C942 H930 0.930 . S
C942 C943 1.399 . S
C942 C947 1.399 . S
C943 C942 1.399 . S
C943 C944 1.376 . S
C944 H931 0.930 . S
C944 C943 1.376 . S
C944 C945 1.388 . S
C945 H932 0.930 . S
C945 C944 1.388 . S
C945 C946 1.390 . S
C946 C945 1.390 . S
C946 C947 1.394 . S
C946 C952 1.465 . S
C947 C942 1.399 . S
C947 C946 1.394 . S
C947 C948 1.516 . S
C948 C947 1.516 . S
C948 C949 1.502 . S
C948 C950 1.561 . S
C948 C951 1.526 . S
C949 H933 0.959 . S
C949 H934 0.959 . S
C949 H935 0.961 . S
C949 C948 1.502 . S
C950 H936 0.960 . S
C950 H937 0.961 . S
C950 H938 0.959 . S
C950 C948 1.561 . S
C951 C948 1.526 . S
C951 C952 1.396 . S
C951 C956 1.390 . S
C952 C946 1.465 . S
C952 C951 1.396 . S
C952 C953 1.399 . S
C953 H939 0.929 . S
C953 C952 1.399 . S
C953 C954 1.385 . S
C954 H940 0.931 . S
C954 C953 1.385 . S
C954 C955 1.389 . S
C955 C954 1.389 . S
C955 C956 1.387 . S
C956 H941 0.930 . S
C956 C951 1.390 . S
C956 C955 1.387 . S
H957 C969 0.930 . S
H958 C971 0.930 . S
H959 C972 0.930 . S
H960 C976 0.959 . S
H961 C976 0.959 . S
H962 C976 0.961 . S
H963 C977 0.960 . S
H964 C977 0.961 . S
H965 C977 0.959 . S
H966 C980 0.929 . S
H967 C981 0.931 . S
H968 C983 0.930 . S
C969 H957 0.930 . S
C969 C970 1.399 . S
C969 C974 1.399 . S
C970 C969 1.399 . S
C970 C971 1.376 . S
C971 H958 0.930 . S
C971 C970 1.376 . S
C971 C972 1.388 . S
C972 H959 0.930 . S
C972 C971 1.388 . S
C972 C973 1.390 . S
C973 C972 1.390 . S
C973 C974 1.394 . S
C973 C979 1.465 1_565 S
C974 C969 1.399 . S
C974 C973 1.394 . S
C974 C975 1.507 1_565 S
C975 C974 1.507 1_545 S
C975 C976 1.492 1_545 S
C975 C977 1.571 . S
C975 C978 1.535 . S
C976 H960 0.959 . S
C976 H961 0.959 . S
C976 H962 0.961 . S
C976 C975 1.492 1_565 S
C977 H963 0.960 . S
C977 H964 0.961 . S
C977 H965 0.959 . S
C977 C975 1.571 . S
C978 C975 1.535 . S
C978 C979 1.396 . S
C978 C983 1.390 . S
C979 C973 1.465 1_545 S
C979 C978 1.396 . S
C979 C980 1.399 . S
C980 H966 0.929 . S
C980 C979 1.399 . S
C980 C981 1.385 . S
C981 H967 0.931 . S
C981 C980 1.385 . S
C981 C982 1.389 . S
C982 C981 1.389 . S
C982 C983 1.387 . S
C983 H968 0.930 . S
C983 C978 1.390 . S
C983 C982 1.387 . S
H984 C996 0.930 . S
H985 C998 0.930 . S
H986 C999 0.930 . S
H987 C1003 0.959 . S
H988 C1003 0.959 . S
H989 C1003 0.961 . S
H990 C1004 0.960 . S
H991 C1004 0.961 . S
H992 C1004 0.959 . S
H993 C1007 0.929 . S
H994 C1008 0.931 . S
H995 C1010 0.930 . S
C996 H984 0.930 . S
C996 C997 1.399 . S
C996 C1001 1.399 . S
C997 C996 1.399 . S
C997 C998 1.376 . S
C998 H985 0.930 . S
C998 C997 1.376 . S
C998 C999 1.388 . S
C999 H986 0.930 . S
C999 C998 1.388 . S
C999 C1000 1.390 . S
C1000 C999 1.390 . S
C1000 C1001 1.394 . S
C1000 C1006 1.465 . S
C1001 C996 1.399 . S
C1001 C1000 1.394 . S
C1001 C1002 1.516 . S
C1002 C1001 1.516 . S
C1002 C1003 1.502 . S
C1002 C1004 1.561 . S
C1002 C1005 1.526 . S
C1003 H987 0.959 . S
C1003 H988 0.959 . S
C1003 H989 0.961 . S
C1003 C1002 1.502 . S
C1004 H990 0.960 . S
C1004 H991 0.961 . S
C1004 H992 0.959 . S
C1004 C1002 1.561 . S
C1005 C1002 1.526 . S
C1005 C1006 1.396 . S
C1005 C1010 1.390 . S
C1006 C1000 1.465 . S
C1006 C1005 1.396 . S
C1006 C1007 1.399 . S
C1007 H993 0.929 . S
C1007 C1006 1.399 . S
C1007 C1008 1.385 . S
C1008 H994 0.931 . S
C1008 C1007 1.385 . S
C1008 C1009 1.389 . S
C1009 C1008 1.389 . S
C1009 C1010 1.387 . S
C1010 H995 0.930 . S
C1010 C1005 1.390 . S
C1010 C1009 1.387 . S
H1011 C1023 0.930 . S
H1012 C1025 0.930 . S
H1013 C1026 0.930 . S
H1014 C1030 0.959 . S
H1015 C1030 0.959 . S
H1016 C1030 0.961 . S
H1017 C1031 0.960 . S
H1018 C1031 0.961 . S
H1019 C1031 0.959 . S
H1020 C1034 0.929 . S
H1021 C1035 0.931 . S
H1022 C1037 0.930 . S
C1023 H1011 0.930 . S
C1023 C1024 1.399 . S
C1023 C1028 1.399 . S
C1024 C1023 1.399 . S
C1024 C1025 1.376 . S
C1025 H1012 0.930 . S
C1025 C1024 1.376 . S
C1025 C1026 1.388 . S
C1026 H1013 0.930 . S
C1026 C1025 1.388 . S
C1026 C1027 1.390 . S
C1027 C1026 1.390 . S
C1027 C1028 1.394 . S
C1027 C1033 1.465 . S
C1028 C1023 1.399 . S
C1028 C1027 1.394 . S
C1028 C1029 1.516 . S
C1029 C1028 1.516 . S
C1029 C1030 1.502 . S
C1029 C1031 1.561 . S
C1029 C1032 1.526 . S
C1030 H1014 0.959 . S
C1030 H1015 0.959 . S
C1030 H1016 0.961 . S
C1030 C1029 1.502 . S
C1031 H1017 0.960 . S
C1031 H1018 0.961 . S
C1031 H1019 0.959 . S
C1031 C1029 1.561 . S
C1032 C1029 1.526 . S
C1032 C1033 1.396 . S
C1032 C1037 1.390 . S
C1033 C1027 1.465 . S
C1033 C1032 1.396 . S
C1033 C1034 1.399 . S
C1034 H1020 0.929 . S
C1034 C1033 1.399 . S
C1034 C1035 1.385 . S
C1035 H1021 0.931 . S
C1035 C1034 1.385 . S
C1035 C1036 1.389 . S
C1036 C1035 1.389 . S
C1036 C1037 1.387 . S
C1037 H1022 0.930 . S
C1037 C1032 1.390 . S
C1037 C1036 1.387 . S
H1038 C1050 0.930 . S
H1039 C1052 0.930 . S
H1040 C1053 0.930 . S
H1041 C1057 0.959 . S
H1042 C1057 0.959 . S
H1043 C1057 0.961 . S
H1044 C1058 0.960 . S
H1045 C1058 0.961 . S
H1046 C1058 0.959 . S
H1047 C1061 0.929 . S
H1048 C1062 0.931 . S
H1049 C1064 0.930 . S
C1050 H1038 0.930 . S
C1050 C1051 1.399 . S
C1050 C1055 1.399 . S
C1051 C1050 1.399 . S
C1051 C1052 1.376 . S
C1052 H1039 0.930 . S
C1052 C1051 1.376 . S
C1052 C1053 1.388 . S
C1053 H1040 0.930 . S
C1053 C1052 1.388 . S
C1053 C1054 1.390 . S
C1054 C1053 1.390 . S
C1054 C1055 1.394 . S
C1054 C1060 1.465 . S
C1055 C1050 1.399 . S
C1055 C1054 1.394 . S
C1055 C1056 1.516 . S
C1056 C1055 1.516 . S
C1056 C1057 1.502 . S
C1056 C1058 1.561 . S
C1056 C1059 1.526 . S
C1057 H1041 0.959 . S
C1057 H1042 0.959 . S
C1057 H1043 0.961 . S
C1057 C1056 1.502 . S
C1058 H1044 0.960 . S
C1058 H1045 0.961 . S
C1058 H1046 0.959 . S
C1058 C1056 1.561 . S
C1059 C1056 1.526 . S
C1059 C1060 1.396 . S
C1059 C1064 1.390 . S
C1060 C1054 1.465 . S
C1060 C1059 1.396 . S
C1060 C1061 1.399 . S
C1061 H1047 0.929 . S
C1061 C1060 1.399 . S
C1061 C1062 1.385 . S
C1062 H1048 0.931 . S
C1062 C1061 1.385 . S
C1062 C1063 1.389 . S
C1063 C1062 1.389 . S
C1063 C1064 1.387 . S
C1064 H1049 0.930 . S
C1064 C1059 1.390 . S
C1064 C1063 1.387 . S
H1065 C1077 0.930 . S
H1066 C1079 0.930 . S
H1067 C1080 0.930 . S
H1068 C1084 0.959 . S
H1069 C1084 0.959 . S
H1070 C1084 0.961 . S
H1071 C1085 0.960 . S
H1072 C1085 0.961 . S
H1073 C1085 0.977 . S
H1074 C1088 0.929 . S
H1075 C1089 0.931 . S
H1076 C1091 0.930 . S
C1077 H1065 0.930 . S
C1077 C1078 1.399 . S
C1077 C1082 1.399 . S
C1078 C1077 1.399 . S
C1078 C1079 1.376 . S
C1079 H1066 0.930 . S
C1079 C1078 1.376 . S
C1079 C1080 1.388 . S
C1080 H1067 0.930 . S
C1080 C1079 1.388 . S
C1080 C1081 1.390 . S
C1081 C1080 1.390 . S
C1081 C1082 1.394 . S
C1081 C1087 1.465 . S
C1082 C1077 1.399 . S
C1082 C1081 1.394 . S
C1082 C1083 1.516 1_556 S
C1083 C1082 1.516 1_554 S
C1083 C1084 1.502 . S
C1083 C1085 1.561 . S
C1083 C1086 1.526 . S
C1084 H1068 0.959 . S
C1084 H1069 0.959 . S
C1084 H1070 0.961 . S
C1084 C1083 1.502 . S
C1085 H1071 0.960 . S
C1085 H1072 0.961 . S
C1085 H1073 0.977 . S
C1085 C1083 1.561 . S
C1086 C1083 1.526 . S
C1086 C1087 1.396 1_554 S
C1086 C1091 1.390 . S
C1087 C1081 1.465 . S
C1087 C1086 1.396 1_556 S
C1087 C1088 1.399 . S
C1088 H1074 0.929 . S
C1088 C1087 1.399 . S
C1088 C1089 1.385 1_556 S
C1089 H1075 0.931 . S
C1089 C1088 1.385 1_554 S
C1089 C1090 1.389 . S
C1090 C1089 1.389 . S
C1090 C1091 1.387 . S
C1091 H1076 0.930 . S
C1091 C1086 1.390 . S
C1091 C1090 1.387 . S
H1092 C1104 0.930 . S
H1093 C1106 0.930 . S
H1094 C1107 0.930 . S
H1095 C1111 0.959 . S
H1096 C1111 0.959 . S
H1097 C1111 0.961 . S
H1098 C1112 0.960 . S
H1099 C1112 0.961 . S
H1100 C1112 0.959 . S
H1101 C1115 0.929 . S
H1102 C1116 0.931 . S
H1103 C1118 0.930 . S
C1104 H1092 0.930 . S
C1104 C1105 1.399 . S
C1104 C1109 1.399 . S
C1105 C1104 1.399 . S
C1105 C1106 1.376 . S
C1106 H1093 0.930 . S
C1106 C1105 1.376 . S
C1106 C1107 1.388 . S
C1107 H1094 0.930 . S
C1107 C1106 1.388 . S
C1107 C1108 1.390 . S
C1108 C1107 1.390 . S
C1108 C1109 1.394 . S
C1108 C1114 1.465 . S
C1109 C1104 1.399 . S
C1109 C1108 1.394 . S
C1109 C1110 1.516 . S
C1110 C1109 1.516 . S
C1110 C1111 1.502 . S
C1110 C1112 1.561 . S
C1110 C1113 1.526 . S
C1111 H1095 0.959 . S
C1111 H1096 0.959 . S
C1111 H1097 0.961 . S
C1111 C1110 1.502 . S
C1112 H1098 0.960 . S
C1112 H1099 0.961 . S
C1112 H1100 0.959 . S
C1112 C1110 1.561 . S
C1113 C1110 1.526 . S
C1113 C1114 1.396 . S
C1113 C1118 1.390 . S
C1114 C1108 1.465 . S
C1114 C1113 1.396 . S
C1114 C1115 1.399 . S
C1115 H1101 0.929 . S
C1115 C1114 1.399 . S
C1115 C1116 1.385 . S
C1116 H1102 0.931 . S
C1116 C1115 1.385 . S
C1116 C1117 1.389 . S
C1117 C1116 1.389 . S
C1117 C1118 1.387 . S
C1118 H1103 0.930 . S
C1118 C1113 1.390 . S
C1118 C1117 1.387 . S
H1119 C1131 0.930 . S
H1120 C1133 0.930 . S
H1121 C1134 0.930 . S
H1122 C1138 0.959 1_545 S
H1123 C1138 0.959 . S
H1124 C1138 0.961 . S
H1125 C1139 0.960 . S
H1126 C1139 0.961 . S
H1127 C1139 0.959 . S
H1128 C1142 0.929 1_545 S
H1129 C1143 0.931 . S
H1130 C1145 0.930 . S
C1131 H1119 0.930 . S
C1131 C1132 1.399 . S
C1131 C1136 1.399 . S
C1132 C1131 1.399 . S
C1132 C1133 1.376 . S
C1133 H1120 0.930 . S
C1133 C1132 1.376 . S
C1133 C1134 1.388 . S
C1134 H1121 0.930 . S
C1134 C1133 1.388 . S
C1134 C1135 1.390 . S
C1135 C1134 1.390 . S
C1135 C1136 1.394 . S
C1135 C1141 1.465 1_545 S
C1136 C1131 1.399 . S
C1136 C1135 1.394 . S
C1136 C1137 1.516 1_545 S
C1137 C1136 1.516 1_565 S
C1137 C1138 1.502 . S
C1137 C1139 1.561 . S
C1137 C1140 1.526 . S
C1138 H1122 0.959 1_565 S
C1138 H1123 0.959 . S
C1138 H1124 0.961 . S
C1138 C1137 1.502 . S
C1139 H1125 0.960 . S
C1139 H1126 0.961 . S
C1139 H1127 0.959 . S
C1139 C1137 1.561 . S
C1140 C1137 1.526 . S
C1140 C1141 1.396 . S
C1140 C1145 1.390 . S
C1141 C1135 1.465 1_565 S
C1141 C1140 1.396 . S
C1141 C1142 1.399 . S
C1142 H1128 0.929 1_565 S
C1142 C1141 1.399 . S
C1142 C1143 1.385 . S
C1143 H1129 0.931 . S
C1143 C1142 1.385 . S
C1143 C1144 1.389 . S
C1144 C1143 1.389 . S
C1144 C1145 1.387 . S
C1145 H1130 0.930 . S
C1145 C1140 1.390 . S
C1145 C1144 1.387 . S
H1146 C1158 0.930 . S
H1147 C1160 0.930 . S
H1148 C1161 0.930 . S
H1149 C1165 0.959 . S
H1150 C1165 0.959 . S
H1151 C1165 0.961 . S
H1152 C1166 0.960 . S
H1153 C1166 0.961 . S
H1154 C1166 0.959 . S
H1155 C1169 0.929 . S
H1156 C1170 0.931 . S
H1157 C1172 0.930 . S
C1158 H1146 0.930 . S
C1158 C1159 1.399 . S
C1158 C1163 1.399 . S
C1159 C1158 1.399 . S
C1159 C1160 1.376 . S
C1160 H1147 0.930 . S
C1160 C1159 1.376 . S
C1160 C1161 1.388 . S
C1161 H1148 0.930 . S
C1161 C1160 1.388 . S
C1161 C1162 1.390 . S
C1162 C1161 1.390 . S
C1162 C1163 1.394 . S
C1162 C1168 1.465 1_554 S
C1163 C1158 1.399 . S
C1163 C1162 1.394 . S
C1163 C1164 1.509 1_554 S
C1164 C1163 1.509 1_556 S
C1164 C1165 1.507 . S
C1164 C1166 1.556 1_556 S
C1164 C1167 1.533 . S
C1165 H1149 0.959 . S
C1165 H1150 0.959 . S
C1165 H1151 0.961 . S
C1165 C1164 1.507 . S
C1166 H1152 0.960 . S
C1166 H1153 0.961 . S
C1166 H1154 0.959 . S
C1166 C1164 1.556 1_554 S
C1167 C1164 1.533 . S
C1167 C1168 1.396 . S
C1167 C1172 1.390 . S
C1168 C1162 1.465 1_556 S
C1168 C1167 1.396 . S
C1168 C1169 1.399 . S
C1169 H1155 0.929 . S
C1169 C1168 1.399 . S
C1169 C1170 1.385 . S
C1170 H1156 0.931 . S
C1170 C1169 1.385 . S
C1170 C1171 1.389 . S
C1171 C1170 1.389 . S
C1171 C1172 1.387 . S
C1172 H1157 0.930 . S
C1172 C1167 1.390 . S
C1172 C1171 1.387 . S
H1173 C1185 0.930 . S
H1174 C1187 0.930 . S
H1175 C1188 0.930 . S
H1176 C1192 0.959 . S
H1177 C1192 0.959 . S
H1178 C1192 0.961 . S
H1179 C1193 0.960 . S
H1180 C1193 0.961 . S
H1181 C1193 0.959 . S
H1182 C1196 0.929 . S
H1183 C1197 0.931 . S
H1184 C1199 0.930 . S
C1185 H1173 0.930 . S
C1185 C1186 1.399 . S
C1185 C1190 1.399 . S
C1186 C1185 1.399 . S
C1186 C1187 1.376 . S
C1187 H1174 0.930 . S
C1187 C1186 1.376 . S
C1187 C1188 1.388 . S
C1188 H1175 0.930 . S
C1188 C1187 1.388 . S
C1188 C1189 1.390 . S
C1189 C1188 1.390 . S
C1189 C1190 1.394 . S
C1189 C1195 1.465 . S
C1190 C1185 1.399 . S
C1190 C1189 1.394 . S
C1190 C1191 1.516 1_545 S
C1191 C1190 1.516 1_565 S
C1191 C1192 1.502 . S
C1191 C1193 1.561 . S
C1191 C1194 1.526 . S
C1192 H1176 0.959 . S
C1192 H1177 0.959 . S
C1192 H1178 0.961 . S
C1192 C1191 1.502 . S
C1193 H1179 0.960 . S
C1193 H1180 0.961 . S
C1193 H1181 0.959 . S
C1193 C1191 1.561 . S
C1194 C1191 1.526 . S
C1194 C1195 1.396 1_565 S
C1194 C1199 1.390 . S
C1195 C1189 1.465 . S
C1195 C1194 1.396 1_545 S
C1195 C1196 1.399 . S
C1196 H1182 0.929 . S
C1196 C1195 1.399 . S
C1196 C1197 1.385 1_545 S
C1197 H1183 0.931 . S
C1197 C1196 1.385 1_565 S
C1197 C1198 1.389 . S
C1198 C1197 1.389 . S
C1198 C1199 1.387 . S
C1199 H1184 0.930 . S
C1199 C1194 1.390 . S
C1199 C1198 1.387 . S
H1200 C1212 0.930 . S
H1201 C1214 0.930 . S
H1202 C1215 0.930 . S
H1203 C1219 0.959 . S
H1204 C1219 0.959 . S
H1205 C1219 0.961 . S
H1206 C1220 0.960 . S
H1207 C1220 0.961 . S
H1208 C1220 0.959 . S
H1209 C1223 0.929 . S
H1210 C1224 0.931 . S
H1211 C1226 0.930 . S
C1212 H1200 0.930 . S
C1212 C1213 1.399 . S
C1212 C1217 1.399 . S
C1213 C1212 1.399 . S
C1213 C1214 1.376 . S
C1214 H1201 0.930 . S
C1214 C1213 1.376 . S
C1214 C1215 1.388 . S
C1215 H1202 0.930 . S
C1215 C1214 1.388 . S
C1215 C1216 1.390 . S
C1216 C1215 1.390 . S
C1216 C1217 1.394 . S
C1216 C1222 1.465 . S
C1217 C1212 1.399 . S
C1217 C1216 1.394 . S
C1217 C1218 1.516 . S
C1218 C1217 1.516 . S
C1218 C1219 1.502 . S
C1218 C1220 1.561 . S
C1218 C1221 1.526 . S
C1219 H1203 0.959 . S
C1219 H1204 0.959 . S
C1219 H1205 0.961 . S
C1219 C1218 1.502 . S
C1220 H1206 0.960 . S
C1220 H1207 0.961 . S
C1220 H1208 0.959 . S
C1220 C1218 1.561 . S
C1221 C1218 1.526 . S
C1221 C1222 1.396 . S
C1221 C1226 1.390 . S
C1222 C1216 1.465 . S
C1222 C1221 1.396 . S
C1222 C1223 1.399 . S
C1223 H1209 0.929 . S
C1223 C1222 1.399 . S
C1223 C1224 1.385 . S
C1224 H1210 0.931 . S
C1224 C1223 1.385 . S
C1224 C1225 1.389 . S
C1225 C1224 1.389 . S
C1225 C1226 1.387 . S
C1226 H1211 0.930 . S
C1226 C1221 1.390 . S
C1226 C1225 1.387 . S
H1227 C1239 0.930 . S
H1228 C1241 0.930 . S
H1229 C1242 0.930 . S
H1230 C1246 0.959 . S
H1231 C1246 0.959 . S
H1232 C1246 0.961 . S
H1233 C1247 0.960 . S
H1234 C1247 0.961 1_455 S
H1235 C1247 0.959 . S
H1236 C1250 0.929 . S
H1237 C1251 0.931 . S
H1238 C1253 0.930 . S
C1239 H1227 0.930 . S
C1239 C1240 1.399 . S
C1239 C1244 1.399 . S
C1240 C1239 1.399 . S
C1240 C1241 1.376 . S
C1241 H1228 0.930 . S
C1241 C1240 1.376 . S
C1241 C1242 1.388 . S
C1242 H1229 0.930 . S
C1242 C1241 1.388 . S
C1242 C1243 1.390 . S
C1243 C1242 1.390 . S
C1243 C1244 1.394 . S
C1243 C1249 1.465 1_655 S
C1244 C1239 1.399 . S
C1244 C1243 1.394 . S
C1244 C1245 1.516 1_655 S
C1245 C1244 1.516 1_455 S
C1245 C1246 1.502 . S
C1245 C1247 1.561 1_455 S
C1245 C1248 1.526 . S
C1246 H1230 0.959 . S
C1246 H1231 0.959 . S
C1246 H1232 0.961 . S
C1246 C1245 1.502 . S
C1247 H1233 0.960 . S
C1247 H1234 0.961 1_655 S
C1247 H1235 0.959 . S
C1247 C1245 1.561 1_655 S
C1248 C1245 1.526 . S
C1248 C1249 1.396 . S
C1248 C1253 1.390 . S
C1249 C1243 1.465 1_455 S
C1249 C1248 1.396 . S
C1249 C1250 1.399 . S
C1250 H1236 0.929 . S
C1250 C1249 1.399 . S
C1250 C1251 1.385 . S
C1251 H1237 0.931 . S
C1251 C1250 1.385 . S
C1251 C1252 1.389 . S
C1252 C1251 1.389 . S
C1252 C1253 1.387 . S
C1253 H1238 0.930 . S
C1253 C1248 1.390 . S
C1253 C1252 1.387 . S
H1254 C1266 0.930 . S
H1255 C1268 0.930 . S
H1256 C1269 0.930 . S
H1257 C1273 0.959 . S
H1258 C1273 0.959 . S
H1259 C1273 0.961 . S
H1260 C1274 0.960 . S
H1261 C1274 0.961 . S
H1262 C1274 0.959 . S
H1263 C1277 0.929 . S
H1264 C1278 0.931 . S
H1265 C1280 0.930 . S
C1266 H1254 0.930 . S
C1266 C1267 1.399 . S
C1266 C1271 1.399 . S
C1267 C1266 1.399 . S
C1267 C1268 1.376 . S
C1268 H1255 0.930 . S
C1268 C1267 1.376 . S
C1268 C1269 1.388 . S
C1269 H1256 0.930 . S
C1269 C1268 1.388 . S
C1269 C1270 1.390 . S
C1270 C1269 1.390 . S
C1270 C1271 1.394 . S
C1270 C1276 1.465 1_455 S
C1271 C1266 1.399 . S
C1271 C1270 1.394 . S
C1271 C1272 1.516 . S
C1272 C1271 1.516 . S
C1272 C1273 1.502 . S
C1272 C1274 1.561 1_455 S
C1272 C1275 1.526 1_455 S
C1273 H1257 0.959 . S
C1273 H1258 0.959 . S
C1273 H1259 0.961 . S
C1273 C1272 1.502 . S
C1274 H1260 0.960 . S
C1274 H1261 0.961 . S
C1274 H1262 0.959 . S
C1274 C1272 1.561 1_655 S
C1275 C1272 1.526 1_655 S
C1275 C1276 1.396 . S
C1275 C1280 1.390 . S
C1276 C1270 1.465 1_655 S
C1276 C1275 1.396 . S
C1276 C1277 1.399 . S
C1277 H1263 0.929 . S
C1277 C1276 1.399 . S
C1277 C1278 1.385 . S
C1278 H1264 0.931 . S
C1278 C1277 1.385 . S
C1278 C1279 1.389 . S
C1279 C1278 1.389 . S
C1279 C1280 1.387 . S
C1280 H1265 0.930 . S
C1280 C1275 1.390 . S
C1280 C1279 1.387 . S
H1281 C1293 0.930 . S
H1282 C1295 0.930 . S
H1283 C1296 0.930 . S
H1284 C1300 0.959 . S
H1285 C1300 0.959 . S
H1286 C1300 0.961 . S
H1287 C1301 0.960 . S
H1288 C1301 0.961 . S
H1289 C1301 0.959 . S
H1290 C1304 0.929 . S
H1291 C1305 0.931 . S
H1292 C1307 0.930 . S
C1293 H1281 0.930 . S
C1293 C1294 1.399 . S
C1293 C1298 1.399 . S
C1294 C1293 1.399 . S
C1294 C1295 1.376 . S
C1295 H1282 0.930 . S
C1295 C1294 1.376 . S
C1295 C1296 1.388 . S
C1296 H1283 0.930 . S
C1296 C1295 1.388 . S
C1296 C1297 1.390 . S
C1297 C1296 1.390 . S
C1297 C1298 1.394 . S
C1297 C1303 1.465 . S
C1298 C1293 1.399 . S
C1298 C1297 1.394 . S
C1298 C1299 1.516 . S
C1299 C1298 1.516 . S
C1299 C1300 1.502 . S
C1299 C1301 1.561 . S
C1299 C1302 1.526 . S
C1300 H1284 0.959 . S
C1300 H1285 0.959 . S
C1300 H1286 0.961 . S
C1300 C1299 1.502 . S
C1301 H1287 0.960 . S
C1301 H1288 0.961 . S
C1301 H1289 0.959 . S
C1301 C1299 1.561 . S
C1302 C1299 1.526 . S
C1302 C1303 1.396 . S
C1302 C1307 1.390 . S
C1303 C1297 1.465 . S
C1303 C1302 1.396 . S
C1303 C1304 1.399 . S
C1304 H1290 0.929 . S
C1304 C1303 1.399 . S
C1304 C1305 1.385 . S
C1305 H1291 0.931 . S
C1305 C1304 1.385 . S
C1305 C1306 1.389 . S
C1306 C1305 1.389 . S
C1306 C1307 1.387 . S
C1307 H1292 0.930 . S
C1307 C1302 1.390 . S
C1307 C1306 1.387 . S
H1308 C1320 0.930 . S
H1309 C1322 0.930 . S
H1310 C1323 0.930 . S
H1311 C1327 0.959 . S
H1312 C1327 0.959 . S
H1313 C1327 0.961 . S
H1314 C1328 0.960 . S
H1315 C1328 0.961 1_655 S
H1316 C1328 0.959 . S
H1317 C1331 0.929 . S
H1318 C1332 0.931 . S
H1319 C1334 0.930 . S
C1320 H1308 0.930 . S
C1320 C1321 1.399 . S
C1320 C1325 1.399 . S
C1321 C1320 1.399 . S
C1321 C1322 1.376 . S
C1322 H1309 0.930 . S
C1322 C1321 1.376 . S
C1322 C1323 1.388 . S
C1323 H1310 0.930 . S
C1323 C1322 1.388 . S
C1323 C1324 1.390 . S
C1324 C1323 1.390 . S
C1324 C1325 1.394 . S
C1324 C1330 1.465 1_455 S
C1325 C1320 1.399 . S
C1325 C1324 1.394 . S
C1325 C1326 1.516 1_455 S
C1326 C1325 1.516 1_655 S
C1326 C1327 1.502 . S
C1326 C1328 1.561 1_655 S
C1326 C1329 1.526 . S
C1327 H1311 0.959 . S
C1327 H1312 0.959 . S
C1327 H1313 0.961 . S
C1327 C1326 1.502 . S
C1328 H1314 0.960 . S
C1328 H1315 0.961 1_455 S
C1328 H1316 0.959 . S
C1328 C1326 1.561 1_455 S
C1329 C1326 1.526 . S
C1329 C1330 1.396 . S
C1329 C1334 1.390 . S
C1330 C1324 1.465 1_655 S
C1330 C1329 1.396 . S
C1330 C1331 1.399 . S
C1331 H1317 0.929 . S
C1331 C1330 1.399 . S
C1331 C1332 1.385 . S
C1332 H1318 0.931 . S
C1332 C1331 1.385 . S
C1332 C1333 1.389 . S
C1333 C1332 1.389 . S
C1333 C1334 1.387 . S
C1334 H1319 0.930 . S
C1334 C1329 1.390 . S
C1334 C1333 1.387 . S
H1335 C1347 0.930 . S
H1336 C1349 0.930 . S
H1337 C1350 0.930 . S
H1338 C1354 0.959 . S
H1339 C1354 0.959 . S
H1340 C1354 0.961 . S
H1341 C1355 0.961 . S
H1342 C1355 0.960 1_655 S
H1343 C1355 0.960 . S
H1344 C1358 0.929 1_455 S
H1345 C1359 0.931 . S
H1346 C1361 0.930 . S
C1347 H1335 0.930 . S
C1347 C1348 1.399 . S
C1347 C1352 1.399 . S
C1348 C1347 1.399 . S
C1348 C1349 1.376 . S
C1349 H1336 0.930 . S
C1349 C1348 1.376 . S
C1349 C1350 1.388 . S
C1350 H1337 0.930 . S
C1350 C1349 1.388 . S
C1350 C1351 1.390 . S
C1351 C1350 1.390 . S
C1351 C1352 1.394 . S
C1351 C1357 1.448 1_455 S
C1352 C1347 1.399 . S
C1352 C1351 1.394 . S
C1352 C1353 1.516 1_455 S
C1353 C1352 1.516 1_655 S
C1353 C1354 1.502 . S
C1353 C1355 1.561 1_655 S
C1353 C1356 1.526 . S
C1354 H1338 0.959 . S
C1354 H1339 0.959 . S
C1354 H1340 0.961 . S
C1354 C1353 1.502 . S
C1355 H1341 0.961 . S
C1355 H1342 0.960 1_455 S
C1355 H1343 0.960 . S
C1355 C1353 1.561 1_455 S
C1356 C1353 1.526 . S
C1356 C1357 1.415 . S
C1356 C1361 1.390 . S
C1357 C1351 1.448 1_655 S
C1357 C1356 1.415 . S
C1357 C1358 1.400 . S
C1358 H1344 0.929 1_655 S
C1358 C1357 1.400 . S
C1358 C1359 1.385 . S
C1359 H1345 0.931 . S
C1359 C1358 1.385 . S
C1359 C1360 1.389 . S
C1360 C1359 1.389 . S
C1360 C1361 1.387 . S
C1361 H1346 0.930 . S
C1361 C1356 1.390 . S
C1361 C1360 1.387 . S
H1362 C1374 0.930 . S
H1363 C1376 0.930 . S
H1364 C1377 0.930 . S
H1365 C1381 0.959 . S
H1366 C1381 0.959 . S
H1367 C1381 0.961 . S
H1368 C1382 0.960 . S
H1369 C1382 0.961 . S
H1370 C1382 0.959 . S
H1371 C1385 0.929 . S
H1372 C1386 0.931 . S
H1373 C1388 0.930 . S
C1374 H1362 0.930 . S
C1374 C1375 1.399 . S
C1374 C1379 1.399 . S
C1375 C1374 1.399 . S
C1375 C1376 1.376 . S
C1376 H1363 0.930 . S
C1376 C1375 1.376 . S
C1376 C1377 1.388 . S
C1377 H1364 0.930 . S
C1377 C1376 1.388 . S
C1377 C1378 1.390 . S
C1378 C1377 1.390 . S
C1378 C1379 1.394 . S
C1378 C1384 1.465 . S
C1379 C1374 1.399 . S
C1379 C1378 1.394 . S
C1379 C1380 1.516 . S
C1380 C1379 1.516 . S
C1380 C1381 1.502 . S
C1380 C1382 1.561 . S
C1380 C1383 1.526 . S
C1381 H1365 0.959 . S
C1381 H1366 0.959 . S
C1381 H1367 0.961 . S
C1381 C1380 1.502 . S
C1382 H1368 0.960 . S
C1382 H1369 0.961 . S
C1382 H1370 0.959 . S
C1382 C1380 1.561 . S
C1383 C1380 1.526 . S
C1383 C1384 1.396 . S
C1383 C1388 1.390 . S
C1384 C1378 1.465 . S
C1384 C1383 1.396 . S
C1384 C1385 1.399 . S
C1385 H1371 0.929 . S
C1385 C1384 1.399 . S
C1385 C1386 1.385 . S
C1386 H1372 0.931 . S
C1386 C1385 1.385 . S
C1386 C1387 1.389 . S
C1387 C1386 1.389 . S
C1387 C1388 1.387 . S
C1388 H1373 0.930 . S
C1388 C1383 1.390 . S
C1388 C1387 1.387 . S
H1389 C1401 0.930 . S
H1390 C1403 0.930 . S
H1391 C1404 0.930 . S
H1392 C1408 0.959 . S
H1393 C1408 0.959 . S
H1394 C1408 0.961 . S
H1395 C1409 0.960 . S
H1396 C1409 0.961 . S
H1397 C1409 0.959 . S
H1398 C1412 0.929 . S
H1399 C1413 0.931 . S
H1400 C1415 0.930 . S
C1401 H1389 0.930 . S
C1401 C1402 1.399 . S
C1401 C1406 1.399 . S
C1402 C1401 1.399 . S
C1402 C1403 1.376 . S
C1403 H1390 0.930 . S
C1403 C1402 1.376 . S
C1403 C1404 1.388 . S
C1404 H1391 0.930 . S
C1404 C1403 1.388 . S
C1404 C1405 1.390 . S
C1405 C1404 1.390 . S
C1405 C1406 1.394 . S
C1405 C1411 1.465 1_565 S
C1406 C1401 1.399 . S
C1406 C1405 1.394 . S
C1406 C1407 1.516 1_565 S
C1407 C1406 1.516 1_545 S
C1407 C1408 1.502 . S
C1407 C1409 1.561 . S
C1407 C1410 1.526 . S
C1408 H1392 0.959 . S
C1408 H1393 0.959 . S
C1408 H1394 0.961 . S
C1408 C1407 1.502 . S
C1409 H1395 0.960 . S
C1409 H1396 0.961 . S
C1409 H1397 0.959 . S
C1409 C1407 1.561 . S
C1410 C1407 1.526 . S
C1410 C1411 1.396 . S
C1410 C1415 1.390 . S
C1411 C1405 1.465 1_545 S
C1411 C1410 1.396 . S
C1411 C1412 1.399 . S
C1412 H1398 0.929 . S
C1412 C1411 1.399 . S
C1412 C1413 1.385 . S
C1413 H1399 0.931 . S
C1413 C1412 1.385 . S
C1413 C1414 1.389 . S
C1414 C1413 1.389 . S
C1414 C1415 1.387 . S
C1415 H1400 0.930 . S
C1415 C1410 1.390 . S
C1415 C1414 1.387 . S
H1416 C1428 0.930 . S
H1417 C1430 0.930 . S
H1418 C1431 0.930 . S
H1419 C1435 0.959 . S
H1420 C1435 0.959 . S
H1421 C1435 0.961 . S
H1422 C1436 0.960 . S
H1423 C1436 0.961 . S
H1424 C1436 0.959 . S
H1425 C1439 0.929 . S
H1426 C1440 0.931 . S
H1427 C1442 0.930 . S
C1428 H1416 0.930 . S
C1428 C1429 1.399 . S
C1428 C1433 1.399 . S
C1429 C1428 1.399 . S
C1429 C1430 1.376 . S
C1430 H1417 0.930 . S
C1430 C1429 1.376 . S
C1430 C1431 1.388 1_556 S
C1431 H1418 0.930 . S
C1431 C1430 1.388 1_554 S
C1431 C1432 1.390 . S
C1432 C1431 1.390 . S
C1432 C1433 1.394 1_554 S
C1432 C1438 1.465 . S
C1433 C1428 1.399 . S
C1433 C1432 1.394 1_556 S
C1433 C1434 1.516 . S
C1434 C1433 1.516 . S
C1434 C1435 1.502 . S
C1434 C1436 1.561 . S
C1434 C1437 1.526 1_556 S
C1435 H1419 0.959 . S
C1435 H1420 0.959 . S
C1435 H1421 0.961 . S
C1435 C1434 1.502 . S
C1436 H1422 0.960 . S
C1436 H1423 0.961 . S
C1436 H1424 0.959 . S
C1436 C1434 1.561 . S
C1437 C1434 1.526 1_554 S
C1437 C1438 1.396 . S
C1437 C1442 1.390 . S
C1438 C1432 1.465 . S
C1438 C1437 1.396 . S
C1438 C1439 1.399 . S
C1439 H1425 0.929 . S
C1439 C1438 1.399 . S
C1439 C1440 1.385 . S
C1440 H1426 0.931 . S
C1440 C1439 1.385 . S
C1440 C1441 1.389 . S
C1441 C1440 1.389 . S
C1441 C1442 1.387 . S
C1442 H1427 0.930 . S
C1442 C1437 1.390 . S
C1442 C1441 1.387 . S
H1443 C1455 0.930 . S
H1444 C1457 0.930 . S
H1445 C1458 0.930 . S
H1446 C1462 0.959 . S
H1447 C1462 0.959 . S
H1448 C1462 0.961 . S
H1449 C1463 0.960 . S
H1450 C1463 0.961 . S
H1451 C1463 0.959 . S
H1452 C1466 0.929 1_545 S
H1453 C1467 0.931 . S
H1454 C1469 0.930 . S
C1455 H1443 0.930 . S
C1455 C1456 1.399 . S
C1455 C1460 1.399 . S
C1456 C1455 1.399 . S
C1456 C1457 1.376 . S
C1457 H1444 0.930 . S
C1457 C1456 1.376 . S
C1457 C1458 1.388 . S
C1458 H1445 0.930 . S
C1458 C1457 1.388 . S
C1458 C1459 1.390 . S
C1459 C1458 1.390 . S
C1459 C1460 1.394 . S
C1459 C1465 1.465 1_545 S
C1460 C1455 1.399 . S
C1460 C1459 1.394 . S
C1460 C1461 1.516 1_545 S
C1461 C1460 1.516 1_565 S
C1461 C1462 1.502 . S
C1461 C1463 1.561 . S
C1461 C1464 1.526 . S
C1462 H1446 0.959 . S
C1462 H1447 0.959 . S
C1462 H1448 0.961 . S
C1462 C1461 1.502 . S
C1463 H1449 0.960 . S
C1463 H1450 0.961 . S
C1463 H1451 0.959 . S
C1463 C1461 1.561 . S
C1464 C1461 1.526 . S
C1464 C1465 1.396 . S
C1464 C1469 1.390 . S
C1465 C1459 1.465 1_565 S
C1465 C1464 1.396 . S
C1465 C1466 1.399 . S
C1466 H1452 0.929 1_565 S
C1466 C1465 1.399 . S
C1466 C1467 1.385 . S
C1467 H1453 0.931 . S
C1467 C1466 1.385 . S
C1467 C1468 1.389 . S
C1468 C1467 1.389 . S
C1468 C1469 1.387 . S
C1469 H1454 0.930 . S
C1469 C1464 1.390 . S
C1469 C1468 1.387 . S
H1470 C1482 0.930 . S
H1471 C1484 0.930 . S
H1472 C1485 0.930 . S
H1473 C1489 0.959 . S
H1474 C1489 0.959 . S
H1475 C1489 0.961 . S
H1476 C1490 0.960 . S
H1477 C1490 0.961 . S
H1478 C1490 0.959 . S
H1479 C1493 0.929 . S
H1480 C1494 0.931 . S
H1481 C1496 0.930 . S
C1482 H1470 0.930 . S
C1482 C1483 1.399 . S
C1482 C1487 1.399 . S
C1483 C1482 1.399 . S
C1483 C1484 1.376 . S
C1484 H1471 0.930 . S
C1484 C1483 1.376 . S
C1484 C1485 1.388 . S
C1485 H1472 0.930 . S
C1485 C1484 1.388 . S
C1485 C1486 1.390 . S
C1486 C1485 1.390 . S
C1486 C1487 1.394 . S
C1486 C1492 1.465 . S
C1487 C1482 1.399 . S
C1487 C1486 1.394 . S
C1487 C1488 1.516 . S
C1488 C1487 1.516 . S
C1488 C1489 1.502 . S
C1488 C1490 1.561 . S
C1488 C1491 1.526 . S
C1489 H1473 0.959 . S
C1489 H1474 0.959 . S
C1489 H1475 0.961 . S
C1489 C1488 1.502 . S
C1490 H1476 0.960 . S
C1490 H1477 0.961 . S
C1490 H1478 0.959 . S
C1490 C1488 1.561 . S
C1491 C1488 1.526 . S
C1491 C1492 1.396 . S
C1491 C1496 1.390 . S
C1492 C1486 1.465 . S
C1492 C1491 1.396 . S
C1492 C1493 1.399 . S
C1493 H1479 0.929 . S
C1493 C1492 1.399 . S
C1493 C1494 1.385 . S
C1494 H1480 0.931 . S
C1494 C1493 1.385 . S
C1494 C1495 1.389 . S
C1495 C1494 1.389 . S
C1495 C1496 1.387 . S
C1496 H1481 0.930 . S
C1496 C1491 1.390 . S
C1496 C1495 1.387 . S
H1497 C1509 0.930 . S
H1498 C1511 0.930 . S
H1499 C1512 0.930 . S
H1500 C1516 0.959 . S
H1501 C1516 0.959 . S
H1502 C1516 0.961 . S
H1503 C1517 0.960 1_554 S
H1504 C1517 0.961 . S
H1505 C1517 0.959 . S
H1506 C1520 0.929 . S
H1507 C1521 0.931 . S
H1508 C1523 0.930 . S
C1509 H1497 0.930 . S
C1509 C1510 1.399 . S
C1509 C1514 1.399 . S
C1510 C1509 1.399 . S
C1510 C1511 1.376 . S
C1511 H1498 0.930 . S
C1511 C1510 1.376 . S
C1511 C1512 1.388 . S
C1512 H1499 0.930 . S
C1512 C1511 1.388 . S
C1512 C1513 1.390 . S
C1513 C1512 1.390 . S
C1513 C1514 1.394 . S
C1513 C1519 1.465 1_554 S
C1514 C1509 1.399 . S
C1514 C1513 1.394 . S
C1514 C1515 1.516 . S
C1515 C1514 1.516 . S
C1515 C1516 1.502 . S
C1515 C1517 1.561 1_554 S
C1515 C1518 1.526 1_554 S
C1516 H1500 0.959 . S
C1516 H1501 0.959 . S
C1516 H1502 0.961 . S
C1516 C1515 1.502 . S
C1517 H1503 0.960 1_556 S
C1517 H1504 0.961 . S
C1517 H1505 0.959 . S
C1517 C1515 1.561 1_556 S
C1518 C1515 1.526 1_556 S
C1518 C1519 1.396 . S
C1518 C1523 1.390 . S
C1519 C1513 1.465 1_556 S
C1519 C1518 1.396 . S
C1519 C1520 1.399 . S
C1520 H1506 0.929 . S
C1520 C1519 1.399 . S
C1520 C1521 1.385 . S
C1521 H1507 0.931 . S
C1521 C1520 1.385 . S
C1521 C1522 1.389 . S
C1522 C1521 1.389 . S
C1522 C1523 1.387 . S
C1523 H1508 0.930 . S
C1523 C1518 1.390 . S
C1523 C1522 1.387 . S
H1524 C1536 0.930 . S
H1525 C1538 0.930 . S
H1526 C1539 0.930 . S
H1527 C1543 0.959 . S
H1528 C1543 0.959 . S
H1529 C1543 0.961 . S
H1530 C1544 0.960 . S
H1531 C1544 0.961 . S
H1532 C1544 0.959 . S
H1533 C1547 0.929 . S
H1534 C1548 0.931 . S
H1535 C1550 0.930 . S
C1536 H1524 0.930 . S
C1536 C1537 1.399 . S
C1536 C1541 1.399 . S
C1537 C1536 1.399 . S
C1537 C1538 1.376 . S
C1538 H1525 0.930 . S
C1538 C1537 1.376 . S
C1538 C1539 1.388 . S
C1539 H1526 0.930 . S
C1539 C1538 1.388 . S
C1539 C1540 1.390 . S
C1540 C1539 1.390 . S
C1540 C1541 1.394 . S
C1540 C1546 1.465 . S
C1541 C1536 1.399 . S
C1541 C1540 1.394 . S
C1541 C1542 1.516 . S
C1542 C1541 1.516 . S
C1542 C1543 1.502 . S
C1542 C1544 1.561 . S
C1542 C1545 1.526 . S
C1543 H1527 0.959 . S
C1543 H1528 0.959 . S
C1543 H1529 0.961 . S
C1543 C1542 1.502 . S
C1544 H1530 0.960 . S
C1544 H1531 0.961 . S
C1544 H1532 0.959 . S
C1544 C1542 1.561 . S
C1545 C1542 1.526 . S
C1545 C1546 1.396 . S
C1545 C1550 1.390 . S
C1546 C1540 1.465 . S
C1546 C1545 1.396 . S
C1546 C1547 1.399 . S
C1547 H1533 0.929 . S
C1547 C1546 1.399 . S
C1547 C1548 1.385 . S
C1548 H1534 0.931 . S
C1548 C1547 1.385 . S
C1548 C1549 1.389 . S
C1549 C1548 1.389 . S
C1549 C1550 1.387 . S
C1550 H1535 0.930 . S
C1550 C1545 1.390 . S
C1550 C1549 1.387 . S
H1551 C1563 0.930 . S
H1552 C1565 0.930 . S
H1553 C1566 0.930 . S
H1554 C1570 0.959 . S
H1555 C1570 0.959 . S
H1556 C1570 0.961 . S
H1557 C1571 0.960 . S
H1558 C1571 0.961 . S
H1559 C1571 0.959 . S
H1560 C1574 0.929 . S
H1561 C1575 0.931 . S
H1562 C1577 0.930 . S
C1563 H1551 0.930 . S
C1563 C1564 1.399 . S
C1563 C1568 1.399 . S
C1564 C1563 1.399 . S
C1564 C1565 1.376 . S
C1565 H1552 0.930 . S
C1565 C1564 1.376 . S
C1565 C1566 1.388 . S
C1566 H1553 0.930 . S
C1566 C1565 1.388 . S
C1566 C1567 1.390 . S
C1567 C1566 1.390 . S
C1567 C1568 1.394 . S
C1567 C1573 1.465 . S
C1568 C1563 1.399 . S
C1568 C1567 1.394 . S
C1568 C1569 1.516 . S
C1569 C1568 1.516 . S
C1569 C1570 1.502 . S
C1569 C1571 1.561 . S
C1569 C1572 1.526 . S
C1570 H1554 0.959 . S
C1570 H1555 0.959 . S
C1570 H1556 0.961 . S
C1570 C1569 1.502 . S
C1571 H1557 0.960 . S
C1571 H1558 0.961 . S
C1571 H1559 0.959 . S
C1571 C1569 1.561 . S
C1572 C1569 1.526 . S
C1572 C1573 1.396 . S
C1572 C1577 1.390 . S
C1573 C1567 1.465 . S
C1573 C1572 1.396 . S
C1573 C1574 1.399 . S
C1574 H1560 0.929 . S
C1574 C1573 1.399 . S
C1574 C1575 1.385 . S
C1575 H1561 0.931 . S
C1575 C1574 1.385 . S
C1575 C1576 1.389 . S
C1576 C1575 1.389 . S
C1576 C1577 1.387 . S
C1577 H1562 0.930 . S
C1577 C1572 1.390 . S
C1577 C1576 1.387 . S
H1578 C1590 0.930 . S
H1579 C1592 0.930 . S
H1580 C1593 0.930 . S
H1581 C1597 0.959 . S
H1582 C1597 0.959 . S
H1583 C1597 0.961 . S
H1584 C1598 0.960 . S
H1585 C1598 0.961 . S
H1586 C1598 0.959 . S
H1587 C1601 0.929 . S
H1588 C1602 0.931 . S
H1589 C1604 0.930 . S
C1590 H1578 0.930 . S
C1590 C1591 1.399 . S
C1590 C1595 1.399 . S
C1591 C1590 1.399 . S
C1591 C1592 1.376 . S
C1592 H1579 0.930 . S
C1592 C1591 1.376 . S
C1592 C1593 1.388 . S
C1593 H1580 0.930 . S
C1593 C1592 1.388 . S
C1593 C1594 1.390 . S
C1594 C1593 1.390 . S
C1594 C1595 1.394 . S
C1594 C1600 1.465 . S
C1595 C1590 1.399 . S
C1595 C1594 1.394 . S
C1595 C1596 1.516 . S
C1596 C1595 1.516 . S
C1596 C1597 1.502 . S
C1596 C1598 1.561 . S
C1596 C1599 1.526 . S
C1597 H1581 0.959 . S
C1597 H1582 0.959 . S
C1597 H1583 0.961 . S
C1597 C1596 1.502 . S
C1598 H1584 0.960 . S
C1598 H1585 0.961 . S
C1598 H1586 0.959 . S
C1598 C1596 1.561 . S
C1599 C1596 1.526 . S
C1599 C1600 1.396 . S
C1599 C1604 1.390 . S
C1600 C1594 1.465 . S
C1600 C1599 1.396 . S
C1600 C1601 1.399 . S
C1601 H1587 0.929 . S
C1601 C1600 1.399 . S
C1601 C1602 1.385 . S
C1602 H1588 0.931 . S
C1602 C1601 1.385 . S
C1602 C1603 1.389 . S
C1603 C1602 1.389 . S
C1603 C1604 1.387 . S
C1604 H1589 0.930 . S
C1604 C1599 1.390 . S
C1604 C1603 1.387 . S
H1605 C1617 0.930 . S
H1606 C1619 0.930 . S
H1607 C1620 0.930 . S
H1608 C1624 0.959 . S
H1609 C1624 0.959 . S
H1610 C1624 0.961 . S
H1611 C1625 0.960 . S
H1612 C1625 0.961 . S
H1613 C1625 0.959 . S
H1614 C1628 0.929 . S
H1615 C1629 0.931 . S
H1616 C1631 0.930 . S
C1617 H1605 0.930 . S
C1617 C1618 1.399 . S
C1617 C1622 1.399 . S
C1618 C1617 1.399 . S
C1618 C1619 1.376 . S
C1619 H1606 0.930 . S
C1619 C1618 1.376 . S
C1619 C1620 1.388 . S
C1620 H1607 0.930 . S
C1620 C1619 1.388 . S
C1620 C1621 1.390 . S
C1621 C1620 1.390 . S
C1621 C1622 1.394 . S
C1621 C1627 1.465 . S
C1622 C1617 1.399 . S
C1622 C1621 1.394 . S
C1622 C1623 1.516 . S
C1623 C1622 1.516 . S
C1623 C1624 1.502 . S
C1623 C1625 1.561 . S
C1623 C1626 1.526 . S
C1624 H1608 0.959 . S
C1624 H1609 0.959 . S
C1624 H1610 0.961 . S
C1624 C1623 1.502 . S
C1625 H1611 0.960 . S
C1625 H1612 0.961 . S
C1625 H1613 0.959 . S
C1625 C1623 1.561 . S
C1626 C1623 1.526 . S
C1626 C1627 1.396 . S
C1626 C1631 1.390 . S
C1627 C1621 1.465 . S
C1627 C1626 1.396 . S
C1627 C1628 1.399 . S
C1628 H1614 0.929 . S
C1628 C1627 1.399 . S
C1628 C1629 1.385 . S
C1629 H1615 0.931 . S
C1629 C1628 1.385 . S
C1629 C1630 1.389 . S
C1630 C1629 1.389 . S
C1630 C1631 1.387 . S
C1631 H1616 0.930 . S
C1631 C1626 1.390 . S
C1631 C1630 1.387 . S
C349 C0 1.435 . S
C361 C126 1.447 . S
C376 C27 1.450 . S
C388 C153 1.434 . S
C403 C155 1.433 . S
C415 C28 1.453 . S
C430 C112 1.438 . S
C442 C42 1.456 . S
C457 C141 1.455 . S
C469 C68 1.439 . S
C484 C70 1.440 . S
C496 C167 1.455 . S
C511 C96 1.438 . S
C523 C124 1.442 . S
C538 C138 1.439 . S
C550 C99 1.455 . S
C565 C56 1.451 . S
C577 C169 1.434 . S
C592 C111 1.452 . S
C604 C222 1.433 . S
C619 C237 1.452 . S
C631 C82 1.433 . S
C646 C54 1.437 . S
C658 C195 1.456 . S
C673 C208 1.453 . S
C685 C84 1.433 . S
C700 C12 1.450 . S
C712 C279 1.434 . S
C727 C40 1.451 . S
C739 C265 1.447 . S
C754 C210 1.433 . S
C766 C294 1.453 . S
C781 C320 1.438 . S
C793 C181 1.456 . S
C808 C334 1.450 . S
C820 C225 1.448 . S
C835 C292 1.436 . S
C847 C196 1.456 . S
C862 C308 1.442 . S
C874 C250 1.454 . S
C889 C253 1.455 . S
C901 C322 1.440 . S
C916 C280 1.440 . S
C928 C183 1.455 . S
C943 C267 1.450 . S
C955 C306 1.433 . S
C970 C15 1.437 . S
C982 C238 1.456 . S
C997 C69 0.930 . S
C1009 C1 0.959 . S
C1024 C26 0.910 . S
C1036 C71 0.932 . S
C1051 C29 0.909 . S
C1063 C97 0.941 . S
C1078 C98 0.909 . S
C1090 C43 0.947 . S
C1105 C113 0.909 . S
C1117 C139 0.938 . S
C1132 C127 0.946 . S
C1144 C140 0.953 . S
C1159 C166 0.956 . S
C1171 C152 0.940 . S
C1186 C125 0.926 . S
C1198 C154 0.960 . S
C1213 C55 0.910 . S
C1225 C168 0.933 . S
C1240 C110 0.958 . S
C1252 C264 0.935 . S
C1267 C57 0.957 . S
C1279 C194 0.939 . S
C1294 C278 0.958 . S
C1306 C83 0.937 . S
C1321 C209 0.959 . S
C1333 C14 0.932 . S
C1348 C13 0.909 . S
C1360 C236 0.941 . S
C1375 C41 0.911 . S
C1387 C223 0.932 . S
C1402 C211 0.929 . S
C1414 C251 0.912 . S
C1429 C252 0.954 . S
C1441 C180 0.913 . S
C1456 C224 0.940 . S
C1468 C182 0.909 . S
C1483 C197 0.957 . S
C1495 C266 0.918 . S
C1510 C307 0.910 . S
C1522 C293 0.934 . S
C1537 C309 0.959 . S
C1549 C295 0.933 . S
C1564 C323 0.910 . S
C1576 C321 0.934 . S
C1591 C281 0.942 . S
C1603 C335 0.956 . S
C1618 C239 0.910 . S
C1630 C85 0.935 . S
