# Generated by pormake.
# Topology wkj, (6)-cn, num edge types: 1
# Building blocks:
#     Node 0, Type 0, BuildingBlock: VOLQOD_clean_sbu_1, # of connection points: 6
#     Node 1, Type 0, BuildingBlock: VOLQOD_clean_sbu_1, # of connection points: 6
#     Node 2, Type 0, BuildingBlock: VOLQOD_clean_sbu_1, # of connection points: 6
#     Node 3, Type 0, BuildingBlock: VOLQOD_clean_sbu_1, # of connection points: 6
#     Node 4, Type 0, BuildingBlock: VOLQOD_clean_sbu_1, # of connection points: 6
#     Node 5, Type 0, BuildingBlock: VOLQOD_clean_sbu_1, # of connection points: 6
#     Node 6, Type 0, BuildingBlock: VOLQOD_clean_sbu_1, # of connection points: 6
#     Node 7, Type 0, BuildingBlock: VOLQOD_clean_sbu_1, # of connection points: 6
#     Node 8, Type 0, BuildingBlock: VOLQOD_clean_sbu_1, # of connection points: 6
#     Node 9, Type 0, BuildingBlock: VOLQOD_clean_sbu_1, # of connection points: 6
#     Node 10, Type 0, BuildingBlock: VOLQOD_clean_sbu_1, # of connection points: 6
#     Node 11, Type 0, BuildingBlock: VOLQOD_clean_sbu_1, # of connection points: 6
#     Edge 12, Type (0, 0), BuildingBlock: ZUJKAS_clean_linker_0, # of connection points: 2
#     Edge 13, Type (0, 0), BuildingBlock: ZUJKAS_clean_linker_0, # of connection points: 2
#     Edge 14, Type (0, 0), BuildingBlock: ZUJKAS_clean_linker_0, # of connection points: 2
#     Edge 15, Type (0, 0), BuildingBlock: ZUJKAS_clean_linker_0, # of connection points: 2
#     Edge 16, Type (0, 0), BuildingBlock: ZUJKAS_clean_linker_0, # of connection points: 2
#     Edge 17, Type (0, 0), BuildingBlock: ZUJKAS_clean_linker_0, # of connection points: 2
#     Edge 18, Type (0, 0), BuildingBlock: ZUJKAS_clean_linker_0, # of connection points: 2
#     Edge 19, Type (0, 0), BuildingBlock: ZUJKAS_clean_linker_0, # of connection points: 2
#     Edge 20, Type (0, 0), BuildingBlock: ZUJKAS_clean_linker_0, # of connection points: 2
#     Edge 21, Type (0, 0), BuildingBlock: ZUJKAS_clean_linker_0, # of connection points: 2
#     Edge 22, Type (0, 0), BuildingBlock: ZUJKAS_clean_linker_0, # of connection points: 2
#     Edge 23, Type (0, 0), BuildingBlock: ZUJKAS_clean_linker_0, # of connection points: 2
#     Edge 24, Type (0, 0), BuildingBlock: ZUJKAS_clean_linker_0, # of connection points: 2
#     Edge 25, Type (0, 0), BuildingBlock: ZUJKAS_clean_linker_0, # of connection points: 2
#     Edge 26, Type (0, 0), BuildingBlock: ZUJKAS_clean_linker_0, # of connection points: 2
#     Edge 27, Type (0, 0), BuildingBlock: ZUJKAS_clean_linker_0, # of connection points: 2
#     Edge 28, Type (0, 0), BuildingBlock: ZUJKAS_clean_linker_0, # of connection points: 2
#     Edge 29, Type (0, 0), BuildingBlock: ZUJKAS_clean_linker_0, # of connection points: 2
#     Edge 30, Type (0, 0), BuildingBlock: ZUJKAS_clean_linker_0, # of connection points: 2
#     Edge 31, Type (0, 0), BuildingBlock: ZUJKAS_clean_linker_0, # of connection points: 2
#     Edge 32, Type (0, 0), BuildingBlock: ZUJKAS_clean_linker_0, # of connection points: 2
#     Edge 33, Type (0, 0), BuildingBlock: ZUJKAS_clean_linker_0, # of connection points: 2
#     Edge 34, Type (0, 0), BuildingBlock: ZUJKAS_clean_linker_0, # of connection points: 2
#     Edge 35, Type (0, 0), BuildingBlock: ZUJKAS_clean_linker_0, # of connection points: 2
#     Edge 36, Type (0, 0), BuildingBlock: ZUJKAS_clean_linker_0, # of connection points: 2
#     Edge 37, Type (0, 0), BuildingBlock: ZUJKAS_clean_linker_0, # of connection points: 2
#     Edge 38, Type (0, 0), BuildingBlock: ZUJKAS_clean_linker_0, # of connection points: 2
#     Edge 39, Type (0, 0), BuildingBlock: ZUJKAS_clean_linker_0, # of connection points: 2
#     Edge 40, Type (0, 0), BuildingBlock: ZUJKAS_clean_linker_0, # of connection points: 2
#     Edge 41, Type (0, 0), BuildingBlock: ZUJKAS_clean_linker_0, # of connection points: 2
#     Edge 42, Type (0, 0), BuildingBlock: ZUJKAS_clean_linker_0, # of connection points: 2
#     Edge 43, Type (0, 0), BuildingBlock: ZUJKAS_clean_linker_0, # of connection points: 2
#     Edge 44, Type (0, 0), BuildingBlock: ZUJKAS_clean_linker_0, # of connection points: 2
#     Edge 45, Type (0, 0), BuildingBlock: ZUJKAS_clean_linker_0, # of connection points: 2
#     Edge 46, Type (0, 0), BuildingBlock: ZUJKAS_clean_linker_0, # of connection points: 2
#     Edge 47, Type (0, 0), BuildingBlock: ZUJKAS_clean_linker_0, # of connection points: 2
# Relax obj value: 0.767
# Max RMSD: 0.281
# Mean RMSD: 0.281
data_MOF--net-wkj--node1-VOLQOD_clean_sbu_1--edge1-ZUJKAS_clean_linker_0
_symmetry_space_group_name_H-M    P1
_symmetry_Int_Tables_number       1
_symmetry_cell_setting            triclinic
loop_
_symmetry_equiv_pos_as_xyz
'x, y, z'
_cell_length_a     70.963532
_cell_length_b     70.999335
_cell_length_c     31.061038
_cell_angle_alpha  89.936337
_cell_angle_beta   90.040338
_cell_angle_gamma 119.89326
loop_
_atom_site_label
_atom_site_type_symbol
_atom_site_fract_x
_atom_site_fract_y
_atom_site_fract_z
_atom_type_partial_charge
O0 O 0.4149 0.04578 0.32562 0.0
Zn1 Zn 0.42634 0.05749 0.26724 0.0
O2 O 0.44073 0.08861 0.26781 0.0
Zn3 Zn 0.47151 0.1009 0.2603 0.0
Zn4 Zn 0.43605 0.09914 0.32211 0.0
Zn5 Zn 0.43136 0.09742 0.21739 0.0
O6 O 0.48411 0.12651 0.22057 0.0
O7 O 0.45641 0.11274 0.17508 0.0
O8 O 0.44618 0.04768 0.24259 0.0
O9 O 0.47648 0.07896 0.23026 0.0
O10 O 0.48737 0.10923 0.31665 0.0
O11 O 0.46369 0.11224 0.35858 0.0
O12 O 0.42671 0.12158 0.3088 0.0
O13 O 0.40086 0.04459 0.22727 0.0
O14 O 0.42214 0.11803 0.23739 0.0
O15 O 0.4063 0.07246 0.18661 0.0
C16 C 0.40939 0.05349 0.35713 0.0
C17 C 0.47648 0.12554 0.18308 0.0
C18 C 0.48229 0.11394 0.35277 0.0
C19 C 0.46512 0.05844 0.22628 0.0
C20 C 0.42124 0.12644 0.27298 0.0
C21 C 0.39556 0.05228 0.19552 0.0
O22 O 0.41434 0.07345 0.3584 0.0
O23 O 0.3378 0.36213 0.61139 0.0
Zn24 Zn 0.34014 0.37334 0.55164 0.0
O25 O 0.33306 0.39642 0.55083 0.0
Zn26 Zn 0.35916 0.42447 0.54463 0.0
Zn27 Zn 0.31831 0.3959 0.60412 0.0
Zn28 Zn 0.31518 0.39134 0.50051 0.0
O29 O 0.35617 0.44205 0.49764 0.0
O30 O 0.32621 0.41831 0.46371 0.0
O31 O 0.37078 0.38489 0.53278 0.0
O32 O 0.38402 0.42044 0.52719 0.0
O33 O 0.36611 0.44211 0.59869 0.0
O34 O 0.33515 0.42479 0.63515 0.0
O35 O 0.28822 0.39111 0.58908 0.0
O36 O 0.32386 0.34976 0.50799 0.0
O37 O 0.28534 0.38377 0.51876 0.0
O38 O 0.31597 0.36884 0.46256 0.0
C39 C 0.32917 0.36371 0.64613 0.0
C40 C 0.34256 0.43733 0.46719 0.0
C41 C 0.35436 0.44083 0.63075 0.0
C42 C 0.38614 0.40375 0.52333 0.0
C43 C 0.27741 0.38609 0.55386 0.0
C44 C 0.31898 0.35291 0.47022 0.0
O45 O 0.31921 0.37454 0.64752 0.0
O46 O 0.96058 0.38337 0.94829 0.0
Zn47 Zn 0.94546 0.37897 0.89157 0.0
O48 O 0.91657 0.35452 0.8941 0.0
Zn49 Zn 0.8956 0.36398 0.88801 0.0
Zn50 Zn 0.91158 0.33997 0.94909 0.0
Zn51 Zn 0.91212 0.33625 0.8448 0.0
O52 O 0.871 0.34457 0.8494 0.0
O53 O 0.89099 0.33839 0.80309 0.0
O54 O 0.94498 0.40523 0.8689 0.0
O55 O 0.90975 0.39232 0.85724 0.0
O56 O 0.88464 0.36747 0.94523 0.0
O57 O 0.89348 0.34802 0.98796 0.0
O58 O 0.89624 0.3073 0.93805 0.0
O59 O 0.96322 0.37395 0.84826 0.0
O60 O 0.89884 0.30601 0.86653 0.0
O61 O 0.9401 0.34404 0.81326 0.0
C62 C 0.95748 0.37017 0.97899 0.0
C63 C 0.87418 0.33991 0.81155 0.0
C64 C 0.88471 0.35976 0.98221 0.0
C65 C 0.92946 0.40717 0.8531 0.0
C66 C 0.89311 0.29664 0.90305 0.0
C67 C 0.95924 0.35993 0.81905 0.0
O68 O 0.94024 0.35157 0.98116 0.0
O69 O 0.58407 0.93845 0.31881 0.0
Zn70 Zn 0.5746 0.9259 0.26015 0.0
O71 O 0.55705 0.8952 0.26355 0.0
Zn72 Zn 0.52647 0.88593 0.25818 0.0
Zn73 Zn 0.56245 0.88618 0.3188 0.0
Zn74 Zn 0.56466 0.88396 0.21437 0.0
O75 O 0.51148 0.86077 0.21756 0.0
O76 O 0.53904 0.86894 0.17319 0.0
O77 O 0.55785 0.93738 0.22929 0.0
O78 O 0.52368 0.90999 0.23006 0.0
O79 O 0.51112 0.87756 0.31545 0.0
O80 O 0.53614 0.87663 0.35725 0.0
O81 O 0.56726 0.86054 0.30861 0.0
O82 O 0.60117 0.93541 0.22412 0.0
O83 O 0.57079 0.86149 0.23703 0.0
O84 O 0.59075 0.90687 0.18171 0.0
C85 C 0.59033 0.93145 0.35037 0.0
C86 C 0.51875 0.85861 0.18158 0.0
C87 C 0.51729 0.87429 0.35181 0.0
C88 C 0.53792 0.92922 0.21914 0.0
C89 C 0.57068 0.85326 0.27359 0.0
C90 C 0.60426 0.92649 0.19151 0.0
O91 O 0.58658 0.91187 0.35147 0.0
O92 O 0.61236 0.57991 0.61437 0.0
Zn93 Zn 0.61446 0.56878 0.55564 0.0
O94 O 0.64205 0.57047 0.55024 0.0
Zn95 Zn 0.64016 0.54261 0.54398 0.0
Zn96 Zn 0.65863 0.58327 0.6011 0.0
Zn97 Zn 0.65612 0.58599 0.499 0.0
O98 O 0.65725 0.5412 0.49371 0.0
O99 O 0.65251 0.56416 0.45309 0.0
O100 O 0.59066 0.53802 0.54296 0.0
O101 O 0.60963 0.52144 0.52954 0.0
O102 O 0.64579 0.53159 0.59925 0.0
O103 O 0.65304 0.55897 0.64329 0.0
O104 O 0.69037 0.59923 0.58256 0.0
O105 O 0.61208 0.58878 0.51234 0.0
O106 O 0.68779 0.60344 0.51197 0.0
O107 O 0.64334 0.60395 0.47664 0.0
C108 C 0.62735 0.59509 0.63674 0.0
C109 C 0.65595 0.54823 0.45673 0.0
C110 C 0.64885 0.53949 0.63705 0.0
C111 C 0.59168 0.5213 0.53127 0.0
C112 C 0.69917 0.60611 0.54564 0.0
C113 C 0.62485 0.60215 0.48423 0.0
O114 O 0.64744 0.60137 0.63045 0.0
O115 O 0.02071 0.6362 0.9546 0.0
Zn116 Zn 0.03227 0.64056 0.89516 0.0
O117 O 0.06309 0.65427 0.89462 0.0
Zn118 Zn 0.07236 0.6332 0.88787 0.0
Zn119 Zn 0.0738 0.66951 0.94844 0.0
Zn120 Zn 0.07114 0.67181 0.84319 0.0
O121 O 0.09704 0.64393 0.84596 0.0
O122 O 0.08998 0.66498 0.80379 0.0
O123 O 0.02066 0.61306 0.86235 0.0
O124 O 0.04816 0.60647 0.85966 0.0
O125 O 0.0829 0.62753 0.94411 0.0
O126 O 0.09088 0.65768 0.98018 0.0
O127 O 0.09277 0.70165 0.93439 0.0
O128 O 0.02106 0.65724 0.86317 0.0
O129 O 0.08879 0.70242 0.86306 0.0
O130 O 0.04476 0.66804 0.80988 0.0
C131 C 0.02874 0.64776 0.98815 0.0
C132 C 0.10036 0.65498 0.81169 0.0
C133 C 0.09138 0.64 0.97652 0.0
C134 C 0.02881 0.60161 0.84984 0.0
C135 C 0.09652 0.71204 0.89881 0.0
C136 C 0.02629 0.66378 0.82465 0.0
O137 O 0.04858 0.66298 0.98928 0.0
O138 O 0.89908 0.54614 0.38269 0.0
Zn139 Zn 0.88774 0.53048 0.43795 0.0
O140 O 0.86097 0.50349 0.43177 0.0
Zn141 Zn 0.86617 0.47946 0.43473 0.0
Zn142 Zn 0.84874 0.50392 0.3759 0.0
Zn143 Zn 0.84319 0.50141 0.48102 0.0
O144 O 0.84488 0.4561 0.47325 0.0
O145 O 0.8318 0.47274 0.51351 0.0
O146 O 0.90989 0.52484 0.46396 0.0
O147 O 0.89515 0.48891 0.46306 0.0
O148 O 0.86303 0.46628 0.37617 0.0
O149 O 0.84252 0.47693 0.34103 0.0
O150 O 0.82304 0.50868 0.38667 0.0
O151 O 0.8852 0.5504 0.47925 0.0
O152 O 0.8191 0.50532 0.45814 0.0
O153 O 0.85996 0.52648 0.52297 0.0
C154 C 0.89033 0.54407 0.34603 0.0
C155 C 0.83343 0.45605 0.50473 0.0
C156 C 0.85162 0.46527 0.34352 0.0
C157 C 0.91054 0.50774 0.47306 0.0
C158 C 0.81339 0.50881 0.42138 0.0
C159 C 0.87524 0.54575 0.51507 0.0
O160 O 0.87087 0.52902 0.33895 0.0
O161 O 0.37345 0.91982 0.74608 0.0
Zn162 Zn 0.37372 0.90681 0.80282 0.0
O163 O 0.36379 0.87625 0.80003 0.0
Zn164 Zn 0.38774 0.87076 0.80475 0.0
Zn165 Zn 0.34906 0.86597 0.74536 0.0
Zn166 Zn 0.34598 0.8628 0.85021 0.0
O167 O 0.38104 0.84554 0.8434 0.0
O168 O 0.35862 0.84869 0.88864 0.0
O169 O 0.40302 0.92182 0.82911 0.0
O170 O 0.41241 0.89632 0.8353 0.0
O171 O 0.39567 0.86456 0.74625 0.0
O172 O 0.36572 0.85574 0.70806 0.0
O173 O 0.31757 0.84341 0.7569 0.0
O174 O 0.35536 0.91292 0.84254 0.0
O175 O 0.31678 0.8408 0.82866 0.0
O176 O 0.34153 0.88425 0.88576 0.0
C177 C 0.36161 0.91106 0.71319 0.0
C178 C 0.37119 0.84128 0.87935 0.0
C179 C 0.38455 0.85769 0.7117 0.0
C180 C 0.41593 0.9155 0.84221 0.0
C181 C 0.30743 0.83518 0.79209 0.0
C182 C 0.34483 0.90311 0.87618 0.0
O183 O 0.34988 0.89047 0.71016 0.0
O184 O 0.47161 0.38782 0.01456 0.0
Zn185 Zn 0.48843 0.39163 0.06991 0.0
O186 O 0.5048 0.37659 0.0665 0.0
Zn187 Zn 0.5358 0.39607 0.06402 0.0
Zn188 Zn 0.49559 0.35796 0.01648 0.0
Zn189 Zn 0.5013 0.3616 0.11958 0.0
O190 O 0.55315 0.39036 0.10813 0.0
O191 O 0.52747 0.37809 0.15767 0.0
O192 O 0.50903 0.42284 0.08602 0.0
O193 O 0.54145 0.42527 0.08112 0.0
O194 O 0.54728 0.39775 0.0049 0.0
O195 O 0.51903 0.37181 0.96927 0.0
O196 O 0.4891 0.3276 0.03519 0.0
O197 O 0.46571 0.37866 0.11712 0.0
O198 O 0.49691 0.33259 0.10543 0.0
O199 O 0.47497 0.35726 0.15209 0.0
C200 C 0.46268 0.37099 0.99055 0.0
C201 C 0.5475 0.38743 0.14753 0.0
C202 C 0.53869 0.38748 0.97028 0.0
C203 C 0.52968 0.43359 0.08996 0.0
C204 C 0.49132 0.32072 0.07189 0.0
C205 C 0.4625 0.3652 0.14728 0.0
O206 O 0.4684 0.35656 0.99182 0.0
O207 O 0.09152 0.47745 0.36127 0.0
Zn208 Zn 0.10158 0.49276 0.4174 0.0
O209 O 0.13239 0.51298 0.41806 0.0
Zn210 Zn 0.13763 0.54236 0.42334 0.0
Zn211 Zn 0.14517 0.50983 0.36495 0.0
Zn212 Zn 0.14459 0.5083 0.46975 0.0
O213 O 0.16063 0.56033 0.46679 0.0
O214 O 0.15337 0.53325 0.51152 0.0
O215 O 0.08511 0.5075 0.43354 0.0
O216 O 0.11092 0.54134 0.44779 0.0
O217 O 0.14478 0.55679 0.3655 0.0
O218 O 0.15457 0.53665 0.32691 0.0
O219 O 0.16914 0.50292 0.38077 0.0
O220 O 0.09335 0.46989 0.46226 0.0
O221 O 0.16974 0.50499 0.4526 0.0
O222 O 0.12335 0.48049 0.50054 0.0
C223 C 0.10159 0.47504 0.32983 0.0
C224 C 0.16088 0.55345 0.50451 0.0
C225 C 0.15181 0.55306 0.33062 0.0
C226 C 0.0911 0.52638 0.44815 0.0
C227 C 0.17707 0.50208 0.41731 0.0
C228 C 0.10339 0.46708 0.49325 0.0
O229 O 0.12231 0.48535 0.32805 0.0
O230 O 0.62041 0.05835 0.74314 0.0
Zn231 Zn 0.62079 0.0704 0.80161 0.0
O232 O 0.63279 0.10125 0.79999 0.0
Zn233 Zn 0.6103 0.10848 0.80623 0.0
Zn234 Zn 0.64775 0.11214 0.74591 0.0
Zn235 Zn 0.65021 0.11341 0.85054 0.0
O236 O 0.61944 0.13465 0.84349 0.0
O237 O 0.63638 0.12534 0.89144 0.0
O238 O 0.59176 0.05679 0.82988 0.0
O239 O 0.58573 0.08439 0.83933 0.0
O240 O 0.60142 0.11389 0.74842 0.0
O241 O 0.63053 0.1221 0.70825 0.0
O242 O 0.67898 0.13574 0.75869 0.0
O243 O 0.63829 0.06236 0.84028 0.0
O244 O 0.67879 0.13697 0.83059 0.0
O245 O 0.65557 0.0915 0.8817 0.0
C246 C 0.63411 0.06713 0.71269 0.0
C247 C 0.62626 0.13537 0.88163 0.0
C248 C 0.61176 0.12027 0.71293 0.0
C249 C 0.58066 0.0647 0.84576 0.0
C250 C 0.68844 0.14379 0.79459 0.0
C251 C 0.65049 0.07206 0.87231 0.0
O252 O 0.64763 0.08751 0.71215 0.0
O253 O 0.54151 0.65198 0.01826 0.0
Zn254 Zn 0.52517 0.64067 0.07348 0.0
O255 O 0.4941 0.62609 0.06457 0.0
Zn256 Zn 0.48162 0.59505 0.06314 0.0
Zn257 Zn 0.48887 0.63657 0.01076 0.0
Zn258 Zn 0.48252 0.63331 0.1135 0.0
O259 O 0.45683 0.58048 0.10508 0.0
O260 O 0.45613 0.6076 0.13878 0.0
O261 O 0.53286 0.61909 0.09411 0.0
O262 O 0.50392 0.58684 0.08144 0.0
O263 O 0.46866 0.58384 0.00484 0.0
O264 O 0.46554 0.61109 0.97669 0.0
O265 O 0.48193 0.66058 0.02438 0.0
O266 O 0.53571 0.66238 0.12171 0.0
O267 O 0.47558 0.65581 0.09505 0.0
O268 O 0.50546 0.64575 0.1601 0.0
C269 C 0.53537 0.65334 0.98045 0.0
C270 C 0.44838 0.58735 0.13256 0.0
C271 C 0.46135 0.59135 0.97597 0.0
C272 C 0.52338 0.59851 0.09492 0.0
C273 C 0.47651 0.66557 0.06001 0.0
C274 C 0.52598 0.65832 0.15786 0.0
O275 O 0.51576 0.64836 0.97285 0.0
H276 H 0.44584 0.16659 0.30708 0.0
H277 H 0.45029 0.19961 0.27332 0.0
H278 H 0.39369 0.16123 0.19464 0.0
H279 H 0.38964 0.12816 0.22756 0.0
H280 H 0.42994 0.18234 0.14744 0.0
H281 H 0.42652 0.2404 0.26099 0.0
H282 H 0.4432 0.23003 0.28144 0.0
H283 H 0.41458 0.21181 0.2732 0.0
C284 C 0.43359 0.16531 0.28454 0.0
C285 C 0.4175 0.14493 0.26963 0.0
C286 C 0.43617 0.18421 0.26505 0.0
C287 C 0.42241 0.18286 0.23115 0.0
C288 C 0.40453 0.16262 0.22059 0.0
H289 H 0.45506 0.28582 0.03929 0.0
H290 H 0.43621 0.24966 0.07274 0.0
C291 C 0.40211 0.14375 0.23966 0.0
C292 C 0.42943 0.20137 0.20112 0.0
H293 H 0.44888 0.25596 0.19744 0.0
C294 C 0.43359 0.19835 0.15811 0.0
C295 C 0.43431 0.22223 0.2151 0.0
C296 C 0.4292 0.22626 0.26012 0.0
C297 C 0.44362 0.21588 0.12942 0.0
C298 C 0.44953 0.23687 0.14415 0.0
C299 C 0.44448 0.23978 0.18647 0.0
C300 C 0.46224 0.25636 0.11737 0.0
C301 C 0.44889 0.21213 0.08431 0.0
C302 C 0.48344 0.27149 0.13001 0.0
C303 C 0.49419 0.29196 0.11096 0.0
C304 C 0.48386 0.2976 0.07903 0.0
C305 C 0.46349 0.28171 0.06336 0.0
C306 C 0.45264 0.26117 0.08271 0.0
H307 H 0.44524 0.19514 0.0793 0.0
H308 H 0.43923 0.21566 0.06092 0.0
H309 H 0.46635 0.22333 0.07722 0.0
H310 H 0.49113 0.26796 0.15654 0.0
H311 H 0.50986 0.30398 0.12366 0.0
H312 H 0.24635 0.37014 0.49113 0.0
H313 H 0.22613 0.38774 0.46709 0.0
H314 H 0.24567 0.4273 0.58149 0.0
H315 H 0.26609 0.40992 0.60576 0.0
H316 H 0.19461 0.40035 0.50272 0.0
H317 H 0.27877 0.46833 0.47524 0.0
H318 H 0.27275 0.44084 0.48531 0.0
H319 H 0.27279 0.45742 0.52895 0.0
C320 C 0.24557 0.3819 0.51215 0.0
C321 C 0.25826 0.38901 0.54985 0.0
C322 C 0.23406 0.392 0.49824 0.0
C323 C 0.23502 0.40921 0.52195 0.0
C324 C 0.2451 0.41424 0.56248 0.0
H325 H 0.20733 0.51122 0.47935 0.0
H326 H 0.22303 0.4887 0.49922 0.0
C327 C 0.25658 0.4041 0.57652 0.0
C328 C 0.22868 0.42401 0.50132 0.0
H329 H 0.25015 0.47513 0.45947 0.0
C330 C 0.20669 0.41667 0.49311 0.0
C331 C 0.24461 0.44516 0.48826 0.0
C332 C 0.26858 0.45345 0.49448 0.0
C333 C 0.2001 0.43031 0.47358 0.0
C334 C 0.21602 0.45162 0.4612 0.0
C335 C 0.23804 0.45876 0.46874 0.0
C336 C 0.20997 0.46736 0.4442 0.0
C337 C 0.17613 0.42211 0.46773 0.0
C338 C 0.19866 0.46367 0.40516 0.0
C339 C 0.18982 0.47671 0.39344 0.0
C340 C 0.19213 0.49348 0.42083 0.0
C341 C 0.20524 0.49835 0.45772 0.0
C342 C 0.21412 0.48543 0.46923 0.0
H343 H 0.16594 0.40691 0.48609 0.0
H344 H 0.17198 0.43456 0.47821 0.0
H345 H 0.17191 0.41872 0.43312 0.0
H346 H 0.19569 0.45002 0.38498 0.0
H347 H 0.17968 0.4725 0.36498 0.0
H348 H 0.89549 0.26777 0.84923 0.0
H349 H 0.86425 0.23326 0.82712 0.0
H350 H 0.82639 0.23826 0.93037 0.0
H351 H 0.85769 0.27249 0.95322 0.0
H352 H 0.81339 0.19431 0.90465 0.0
H353 H 0.82156 0.24872 0.76744 0.0
H354 H 0.84401 0.24429 0.77726 0.0
H355 H 0.83745 0.25894 0.8159 0.0
C356 C 0.88081 0.26093 0.8685 0.0
C357 C 0.87876 0.27294 0.90232 0.0
C358 C 0.86298 0.24131 0.85567 0.0
C359 C 0.84291 0.23372 0.87623 0.0
C360 C 0.84176 0.24404 0.91386 0.0
H361 H 0.70975 0.1735 0.85684 0.0
H362 H 0.74878 0.19314 0.86996 0.0
C363 C 0.85969 0.26356 0.92706 0.0
C364 C 0.82255 0.21817 0.85436 0.0
H365 H 0.78915 0.21567 0.77255 0.0
C366 C 0.80825 0.19871 0.87524 0.0
C367 C 0.81592 0.22406 0.81596 0.0
C368 C 0.83041 0.24518 0.79282 0.0
C369 C 0.78706 0.18547 0.85989 0.0
C370 C 0.78004 0.19211 0.82322 0.0
C371 C 0.79473 0.21075 0.80063 0.0
C372 C 0.75681 0.18178 0.81203 0.0
C373 C 0.77199 0.16497 0.88411 0.0
C374 C 0.74868 0.17007 0.77364 0.0
C375 C 0.72625 0.15891 0.76576 0.0
C376 C 0.71191 0.15947 0.79627 0.0
C377 C 0.72041 0.1726 0.83299 0.0
C378 C 0.74265 0.18366 0.84074 0.0
H379 H 0.78118 0.15892 0.90307 0.0
H380 H 0.76203 0.16841 0.90686 0.0
H381 H 0.7608 0.15198 0.86175 0.0
H382 H 0.75954 0.16881 0.75083 0.0
H383 H 0.7201 0.14882 0.73733 0.0
H384 H 0.45057 0.67399 0.11091 0.0
H385 H 0.46428 0.70834 0.14922 0.0
H386 H 0.5187 0.73829 0.06196 0.0
H387 H 0.50487 0.70409 0.02327 0.0
H388 H 0.50386 0.71898 0.18671 0.0
H389 H 0.51027 0.78925 0.09618 0.0
H390 H 0.49115 0.76145 0.08185 0.0
H391 H 0.51916 0.77359 0.0658 0.0
C392 C 0.46465 0.68829 0.09817 0.0
C393 C 0.47694 0.68636 0.06479 0.0
C394 C 0.47259 0.70785 0.12036 0.0
C395 C 0.49272 0.72567 0.10897 0.0
C396 C 0.50308 0.72474 0.07118 0.0
H397 H 0.59324 0.83979 0.22441 0.0
H398 H 0.57522 0.80426 0.1897 0.0
C399 C 0.49505 0.70517 0.0488 0.0
C400 C 0.5052 0.74265 0.14129 0.0
H401 H 0.53425 0.79738 0.15638 0.0
C402 C 0.51027 0.73614 0.18038 0.0
C403 C 0.51371 0.76494 0.13267 0.0
C404 C 0.50815 0.77276 0.09201 0.0
C405 C 0.52414 0.75141 0.21065 0.0
C406 C 0.53304 0.77368 0.20153 0.0
C407 C 0.52764 0.7802 0.16286 0.0
C408 C 0.54734 0.7908 0.23204 0.0
C409 C 0.52963 0.74372 0.25156 0.0
C410 C 0.53858 0.79411 0.26987 0.0
C411 C 0.5491 0.81433 0.29026 0.0
C412 C 0.56806 0.83142 0.2721 0.0
C413 C 0.57858 0.82685 0.23885 0.0
C414 C 0.56816 0.80664 0.21865 0.0
H415 H 0.52504 0.72632 0.24977 0.0
H416 H 0.54728 0.75358 0.25861 0.0
H417 H 0.52069 0.74574 0.27883 0.0
H418 H 0.52249 0.78207 0.28061 0.0
H419 H 0.5406 0.81746 0.31575 0.0
H420 H 0.72333 0.59452 0.59577 0.0
H421 H 0.75046 0.58657 0.56724 0.0
H422 H 0.75299 0.61987 0.44929 0.0
H423 H 0.7255 0.62762 0.47747 0.0
H424 H 0.73755 0.57706 0.4368 0.0
H425 H 0.8129 0.60999 0.53275 0.0
H426 H 0.7894 0.59788 0.56683 0.0
H427 H 0.79514 0.62139 0.53502 0.0
C428 C 0.73051 0.60127 0.56475 0.0
C429 C 0.72182 0.61118 0.53841 0.0
C430 C 0.74609 0.59665 0.54834 0.0
C431 C 0.75352 0.60233 0.50582 0.0
C432 C 0.74731 0.61516 0.48203 0.0
H433 H 0.81133 0.53649 0.3625 0.0
H434 H 0.79606 0.56025 0.37581 0.0
C435 C 0.73167 0.61968 0.49833 0.0
C436 C 0.76342 0.59088 0.48371 0.0
H437 H 0.80182 0.57578 0.49577 0.0
C438 C 0.75198 0.57723 0.44893 0.0
C439 C 0.7821 0.59097 0.49971 0.0
C440 C 0.7957 0.60603 0.53537 0.0
C441 C 0.75797 0.56274 0.43154 0.0
C442 C 0.77583 0.56196 0.44933 0.0
C443 C 0.78797 0.57635 0.48252 0.0
C444 C 0.78127 0.54523 0.4365 0.0
C445 C 0.74451 0.54747 0.39601 0.0
C446 C 0.777 0.52834 0.46519 0.0
C447 C 0.78549 0.51468 0.45759 0.0
C448 C 0.79859 0.51783 0.4213 0.0
C449 C 0.80117 0.53353 0.39056 0.0
C450 C 0.79264 0.54725 0.39827 0.0
H451 H 0.73048 0.54951 0.38691 0.0
H452 H 0.75483 0.5504 0.36714 0.0
H453 H 0.73833 0.5304 0.4063 0.0
H454 H 0.7681 0.52648 0.49471 0.0
H455 H 0.78314 0.50269 0.48177 0.0
H456 H 0.28237 0.80558 0.85228 0.0
H457 H 0.24359 0.79129 0.86385 0.0
H458 H 0.23983 0.82131 0.74584 0.0
H459 H 0.27879 0.83561 0.73373 0.0
H460 H 0.22702 0.8218 0.8706 0.0
H461 H 0.18605 0.75823 0.74439 0.0
H462 H 0.21339 0.76676 0.76209 0.0
H463 H 0.20825 0.78436 0.72884 0.0
C464 C 0.27317 0.80861 0.82812 0.0
C465 C 0.28358 0.82176 0.79221 0.0
C466 C 0.25109 0.80059 0.83494 0.0
C467 C 0.23904 0.80553 0.80597 0.0
C468 C 0.24894 0.81733 0.76845 0.0
H469 H 0.10039 0.74195 0.83944 0.0
H470 H 0.13476 0.77334 0.81762 0.0
C471 C 0.27112 0.82531 0.76143 0.0
C472 C 0.21654 0.79944 0.81722 0.0
H473 H 0.16401 0.76171 0.79599 0.0
C474 C 0.21314 0.80891 0.85392 0.0
C475 C 0.19861 0.78295 0.79491 0.0
C476 C 0.20157 0.77233 0.75542 0.0
C477 C 0.19222 0.80133 0.8705 0.0
C478 C 0.17441 0.78367 0.85012 0.0
C479 C 0.17771 0.77532 0.81158 0.0
C480 C 0.153 0.77111 0.87125 0.0
C481 C 0.18948 0.8118 0.91041 0.0
C482 C 0.15156 0.76058 0.91047 0.0
C483 C 0.13188 0.74274 0.92324 0.0
C484 C 0.11359 0.73504 0.89642 0.0
C485 C 0.11438 0.74742 0.86039 0.0
C486 C 0.13399 0.76535 0.84785 0.0
H487 H 0.20207 0.82927 0.91196 0.0
H488 H 0.17316 0.81031 0.91169 0.0
H489 H 0.1915 0.80373 0.93926 0.0
H490 H 0.16605 0.76453 0.92879 0.0
H491 H 0.13174 0.7335 0.95114 0.0
H492 H 0.61375 0.1188 0.9619 0.0
H493 H 0.59185 0.12623 0.01192 0.0
H494 H 0.59827 0.17824 0.92986 0.0
H495 H 0.61894 0.16968 0.87797 0.0
H496 H 0.59486 0.15677 0.05952 0.0
H497 H 0.53436 0.14321 0.93236 0.0
H498 H 0.55688 0.13878 0.92308 0.0
H499 H 0.5608 0.16588 0.92173 0.0
C500 C 0.61087 0.13211 0.95491 0.0
C501 C 0.6179 0.14357 0.91595 0.0
C502 C 0.59825 0.13632 0.98349 0.0
C503 C 0.59277 0.15237 0.97412 0.0
C504 C 0.60151 0.1652 0.93704 0.0
H505 H 0.51498 0.16394 0.18309 0.0
H506 H 0.54408 0.17584 0.12953 0.0
C507 C 0.61359 0.16053 0.90772 0.0
C508 C 0.57688 0.15449 0.00208 0.0
H509 H 0.52716 0.15119 0.00155 0.0
C510 C 0.5801 0.15566 0.04682 0.0
C511 C 0.55747 0.15284 0.98555 0.0
C512 C 0.55202 0.14989 0.93813 0.0
C513 C 0.5641 0.15407 0.07554 0.0
C514 C 0.54474 0.15255 0.05901 0.0
C515 C 0.54203 0.15253 0.01422 0.0
C516 C 0.52608 0.14828 0.08728 0.0
C517 C 0.56759 0.15253 0.1231 0.0
C518 C 0.50558 0.13003 0.0794 0.0
C519 C 0.48866 0.1238 0.10892 0.0
C520 C 0.49206 0.13547 0.14733 0.0
C521 C 0.51202 0.15459 0.15382 0.0
C522 C 0.52875 0.1612 0.12355 0.0
H523 H 0.58044 0.14826 0.12922 0.0
H524 H 0.57283 0.16848 0.13847 0.0
H525 H 0.55241 0.14011 0.13893 0.0
H526 H 0.50297 0.11982 0.05157 0.0
H527 H 0.47351 0.10889 0.10324 0.0
H528 H 0.42577 0.54314 0.12463 0.0
H529 H 0.40061 0.5168 0.17655 0.0
H530 H 0.40601 0.56902 0.2561 0.0
H531 H 0.43095 0.59552 0.20402 0.0
H532 H 0.41391 0.51564 0.25816 0.0
H533 H 0.34102 0.52521 0.2629 0.0
H534 H 0.36023 0.53522 0.21889 0.0
H535 H 0.36617 0.55037 0.26821 0.0
C536 C 0.42126 0.54905 0.15267 0.0
C537 C 0.43055 0.57146 0.16035 0.0
C538 C 0.40682 0.53395 0.18227 0.0
C539 C 0.40132 0.54093 0.22004 0.0
C540 C 0.40968 0.56325 0.22677 0.0
H541 H 0.37432 0.48 0.46702 0.0
H542 H 0.38594 0.50524 0.40644 0.0
C543 C 0.42407 0.57839 0.19706 0.0
C544 C 0.38946 0.52514 0.25487 0.0
H545 H 0.34555 0.50598 0.32201 0.0
C546 C 0.39883 0.51336 0.27173 0.0
C547 C 0.36978 0.52218 0.27251 0.0
C548 C 0.35857 0.53376 0.25446 0.0
C549 C 0.38939 0.49912 0.30645 0.0
C550 C 0.3702 0.49679 0.32517 0.0
C551 C 0.3604 0.50804 0.30771 0.0
C552 C 0.36064 0.48296 0.36353 0.0
C553 C 0.40011 0.48679 0.32322 0.0
C554 C 0.34203 0.46242 0.35977 0.0
C555 C 0.33531 0.44786 0.3944 0.0
C556 C 0.34717 0.4537 0.43316 0.0
C557 C 0.36495 0.47488 0.43752 0.0
C558 C 0.3716 0.48936 0.403 0.0
H559 H 0.41225 0.48714 0.30017 0.0
H560 H 0.4086 0.49424 0.35387 0.0
H561 H 0.38779 0.4696 0.3299 0.0
H562 H 0.33341 0.45725 0.32943 0.0
H563 H 0.3215 0.43172 0.39002 0.0
H564 H 0.83682 0.34204 0.81789 0.0
H565 H 0.82123 0.35448 0.76231 0.0
H566 H 0.86617 0.35419 0.66936 0.0
H567 H 0.88204 0.3419 0.72483 0.0
H568 H 0.86933 0.39492 0.68293 0.0
H569 H 0.7838 0.33117 0.65204 0.0
H570 H 0.79124 0.33679 0.70785 0.0
H571 H 0.80366 0.3252 0.675 0.0
C572 C 0.84296 0.34392 0.78532 0.0
C573 C 0.86091 0.34124 0.776 0.0
C574 C 0.83392 0.35094 0.75349 0.0
C575 C 0.84254 0.35526 0.71173 0.0
C576 C 0.85925 0.35089 0.70144 0.0
H577 H 0.82427 0.41471 0.48767 0.0
H578 H 0.82207 0.38808 0.54029 0.0
C579 C 0.86827 0.3438 0.73321 0.0
C580 C 0.83675 0.36764 0.68121 0.0
H581 H 0.79498 0.36652 0.62411 0.0
C582 C 0.8531 0.38865 0.66992 0.0
C583 C 0.81552 0.35948 0.6646 0.0
C584 C 0.79753 0.33685 0.67513 0.0
C585 C 0.84881 0.40177 0.64259 0.0
C586 C 0.82755 0.39376 0.62634 0.0
C587 C 0.81117 0.37268 0.63721 0.0
C588 C 0.82286 0.40685 0.59568 0.0
C589 C 0.86715 0.42408 0.63075 0.0
C590 C 0.82282 0.42565 0.60953 0.0
C591 C 0.82395 0.4409 0.57948 0.0
C592 C 0.8254 0.43761 0.53525 0.0
C593 C 0.82334 0.41778 0.52155 0.0
C594 C 0.82203 0.4025 0.55154 0.0
H595 H 0.88322 0.42669 0.64147 0.0
H596 H 0.86765 0.42654 0.59536 0.0
H597 H 0.86438 0.4366 0.64612 0.0
H598 H 0.82347 0.42924 0.64357 0.0
H599 H 0.8256 0.45604 0.59107 0.0
H600 H 0.38123 0.80897 0.871 0.0
H601 H 0.39991 0.7985 0.92404 0.0
H602 H 0.39842 0.84383 0.01471 0.0
H603 H 0.37826 0.85277 0.96332 0.0
H604 H 0.4371 0.82041 0.95049 0.0
H605 H 0.3886 0.7992 0.09788 0.0
H606 H 0.37764 0.80159 0.04711 0.0
H607 H 0.39266 0.82507 0.0813 0.0
C608 C 0.38413 0.81595 0.90299 0.0
C609 C 0.37808 0.83146 0.91332 0.0
C610 C 0.39495 0.8101 0.93322 0.0
C611 C 0.40047 0.82011 0.97392 0.0
C612 C 0.39372 0.83511 0.98449 0.0
H613 H 0.52057 0.87125 0.09877 0.0
H614 H 0.49102 0.8565 0.04672 0.0
C615 C 0.38226 0.84037 0.95486 0.0
C616 C 0.41574 0.81739 0.00287 0.0
H617 H 0.42838 0.81807 0.10894 0.0
C618 C 0.43485 0.81928 0.98511 0.0
C619 C 0.41281 0.81512 0.04807 0.0
C620 C 0.39165 0.80985 0.06944 0.0
C621 C 0.45169 0.82082 0.0113 0.0
C622 C 0.45001 0.82181 0.05658 0.0
C623 C 0.43017 0.818 0.07429 0.0
C624 C 0.46905 0.82883 0.08584 0.0
C625 C 0.47109 0.82152 0.98982 0.0
C626 C 0.46673 0.81856 0.12584 0.0
C627 C 0.4834 0.82761 0.15645 0.0
C628 C 0.50294 0.84672 0.14715 0.0
C629 C 0.50584 0.85623 0.10634 0.0
C630 C 0.48892 0.84764 0.07635 0.0
H631 H 0.46599 0.81105 0.96069 0.0
H632 H 0.48248 0.83836 0.97902 0.0
H633 H 0.47979 0.81605 0.01173 0.0
H634 H 0.45166 0.80406 0.13417 0.0
H635 H 0.48078 0.82007 0.18788 0.0
H636 H 0.54063 0.39349 0.23152 0.0
H637 H 0.56682 0.42034 0.28086 0.0
H638 H 0.6184 0.43541 0.19002 0.0
H639 H 0.592 0.40911 0.13931 0.0
H640 H 0.60235 0.42838 0.32195 0.0
H641 H 0.62273 0.49366 0.20145 0.0
H642 H 0.601 0.46623 0.19344 0.0
H643 H 0.62875 0.47309 0.18444 0.0
C644 C 0.55759 0.40217 0.22218 0.0
C645 C 0.56412 0.39939 0.18106 0.0
C646 C 0.57259 0.4176 0.25052 0.0
C647 C 0.5945 0.43041 0.23865 0.0
C648 C 0.60146 0.42625 0.1993 0.0
H649 H 0.67311 0.52157 0.44449 0.0
H650 H 0.66338 0.49436 0.38759 0.0
C651 C 0.58637 0.411 0.17054 0.0
C652 C 0.60936 0.44896 0.26646 0.0
H653 H 0.63972 0.50436 0.26885 0.0
C654 C 0.61072 0.445 0.31032 0.0
C655 C 0.61999 0.47068 0.25129 0.0
C656 C 0.61794 0.47628 0.20522 0.0
C657 C 0.6215 0.46209 0.33979 0.0
C658 C 0.63223 0.48383 0.32463 0.0
C659 C 0.63171 0.48773 0.28041 0.0
C660 C 0.64164 0.50272 0.35454 0.0
C661 C 0.61995 0.45659 0.38713 0.0
C662 C 0.63422 0.51772 0.35282 0.0
C663 C 0.6404 0.53376 0.38428 0.0
C664 C 0.65384 0.53489 0.41857 0.0
C665 C 0.6625 0.52088 0.41869 0.0
C666 C 0.65674 0.50516 0.38648 0.0
H667 H 0.60671 0.43976 0.39384 0.0
H668 H 0.63544 0.45786 0.39794 0.0
H669 H 0.61693 0.46793 0.40662 0.0
H670 H 0.62269 0.51634 0.3284 0.0
H671 H 0.6334 0.54427 0.38334 0.0
H672 H 0.14068 0.66008 0.82269 0.0
H673 H 0.16142 0.65182 0.77056 0.0
H674 H 0.11073 0.63526 0.67635 0.0
H675 H 0.09113 0.64538 0.72721 0.0
H676 H 0.15298 0.61651 0.74149 0.0
H677 H 0.15928 0.66398 0.59733 0.0
H678 H 0.15049 0.66918 0.64816 0.0
H679 H 0.13118 0.64884 0.61177 0.0
C680 C 0.13447 0.65545 0.79024 0.0
C681 C 0.11453 0.65365 0.77862 0.0
C682 C 0.14623 0.65058 0.76051 0.0
C683 C 0.13792 0.64313 0.71898 0.0
C684 C 0.11809 0.64176 0.70731 0.0
H685 H 0.14247 0.5426 0.58373 0.0
H686 H 0.14171 0.56691 0.63761 0.0
C687 C 0.10675 0.6474 0.73654 0.0
C688 C 0.14846 0.63432 0.68993 0.0
H689 H 0.15796 0.62932 0.58405 0.0
C690 C 0.15453 0.61979 0.70719 0.0
C691 C 0.15127 0.63887 0.64522 0.0
C692 C 0.14794 0.65629 0.6248 0.0
C693 C 0.16189 0.60872 0.68084 0.0
C694 C 0.16202 0.61121 0.63558 0.0
C695 C 0.15741 0.62685 0.61859 0.0
C696 C 0.16493 0.59658 0.60521 0.0
C697 C 0.16937 0.59447 0.70215 0.0
C698 C 0.17798 0.6049 0.56823 0.0
C699 C 0.17784 0.59087 0.53638 0.0
C700 C 0.16498 0.56824 0.54129 0.0
C701 C 0.15296 0.55994 0.57938 0.0
C702 C 0.15261 0.57392 0.61051 0.0
H703 H 0.17729 0.60146 0.73354 0.0
H704 H 0.15508 0.57828 0.70888 0.0
H705 H 0.18104 0.59238 0.68172 0.0
H706 H 0.18763 0.62227 0.56316 0.0
H707 H 0.18713 0.59772 0.50719 0.0
H708 H 0.33965 0.93787 0.85864 0.0
H709 H 0.33724 0.96235 0.91071 0.0
H710 H 0.33456 0.92071 0.0145 0.0
H711 H 0.3365 0.89582 0.9625 0.0
H712 H 0.30874 0.94188 0.0278 0.0
H713 H 0.39428 -0.00147 0.97878 0.0
H714 H 0.37465 0.98928 0.93601 0.0
H715 H 0.3801 0.97026 0.96365 0.0
C716 C 0.33803 0.93364 0.89248 0.0
C717 C 0.33868 0.91514 0.90658 0.0
C718 C 0.33664 0.94764 0.92214 0.0
C719 C 0.33619 0.94354 0.96639 0.0
C720 C 0.33496 0.92416 0.98042 0.0
H721 H 0.36996 0.0083 0.20406 0.0
H722 H 0.35006 0.98247 0.14708 0.0
C723 C 0.33611 0.90998 0.95068 0.0
C724 C 0.3401 0.96073 0.99787 0.0
H725 H 0.3797 0.01035 0.03275 0.0
C726 C 0.32415 0.95697 0.02872 0.0
C727 C 0.36025 0.98035 0.99897 0.0
C728 C 0.37841 0.98488 0.96788 0.0
C729 C 0.32798 0.97231 0.0611 0.0
C730 C 0.34836 0.99166 0.06281 0.0
C731 C 0.36398 0.99563 0.0311 0.0
C732 C 0.35517 0.00692 0.09963 0.0
C733 C 0.31029 0.96757 0.09335 0.0
C734 C 0.36423 0.02931 0.09235 0.0
C735 C 0.37592 0.04423 0.12485 0.0
C736 C 0.37888 0.03696 0.16509 0.0
C737 C 0.36815 0.01449 0.17338 0.0
C738 C 0.35652 -0.00038 0.14087 0.0
H739 H 0.29395 0.95668 0.07947 0.0
H740 H 0.31235 0.9592 0.12162 0.0
H741 H 0.31098 0.98274 0.10462 0.0
H742 H 0.36344 0.03528 0.06067 0.0
H743 H 0.38386 0.06141 0.11742 0.0
H744 H 0.45296 0.33981 0.21935 0.0
H745 H 0.42365 0.33047 0.27104 0.0
H746 H 0.40137 0.36691 0.19672 0.0
H747 H 0.43062 0.37634 0.14464 0.0
H748 H 0.41756 0.36122 0.31862 0.0
H749 H 0.34529 0.30802 0.21904 0.0
H750 H 0.37242 0.31399 0.20498 0.0
H751 H 0.36405 0.33365 0.19486 0.0
C752 C 0.44174 0.34571 0.21368 0.0
C753 C 0.44419 0.35887 0.17777 0.0
C754 C 0.42498 0.34032 0.24329 0.0
C755 C 0.41017 0.34774 0.23739 0.0
C756 C 0.41238 0.36067 0.20142 0.0
H757 H 0.31515 0.35895 0.38425 0.0
H758 H 0.33509 0.35329 0.32662 0.0
C759 C 0.42922 0.36618 0.17186 0.0
C760 C 0.39339 0.34325 0.27047 0.0
H761 H 0.3386 0.31969 0.28635 0.0
C762 C 0.40029 0.3519 0.3118 0.0
C763 C 0.37089 0.3312 0.26128 0.0
C764 C 0.36263 0.321 0.21775 0.0
C765 C 0.38533 0.34951 0.34386 0.0
C766 C 0.36278 0.33758 0.33463 0.0
C767 C 0.35585 0.32862 0.29345 0.0
C768 C 0.34643 0.33595 0.36642 0.0
C769 C 0.39389 0.36064 0.38669 0.0
C770 C 0.34478 0.32657 0.40704 0.0
C771 C 0.3334 0.3298 0.44025 0.0
C772 C 0.32346 0.34247 0.43327 0.0
C773 C 0.32282 0.34937 0.39103 0.0
C774 C 0.33429 0.3462 0.35794 0.0
H775 H 0.41146 0.37297 0.38521 0.0
H776 H 0.38483 0.36877 0.39766 0.0
H777 H 0.39176 0.34836 0.41122 0.0
H778 H 0.35358 0.31807 0.41388 0.0
H779 H 0.33404 0.324 0.47218 0.0
H780 H 0.06107 0.45012 0.51408 0.0
H781 H 0.04049 0.42294 0.56836 0.0
H782 H 0.09594 0.41488 0.59345 0.0
H783 H 0.11727 0.44358 0.54077 0.0
H784 H 0.02703 0.3825 0.57894 0.0
H785 H 0.08523 0.42654 0.71193 0.0
H786 H 0.0884 0.43837 0.65931 0.0
H787 H 0.09562 0.41772 0.66855 0.0
C788 C 0.0689 0.44253 0.53102 0.0
C789 C 0.09083 0.4491 0.52356 0.0
C790 C 0.05708 0.42688 0.56203 0.0
C791 C 0.06669 0.41701 0.58575 0.0
C792 C 0.08832 0.4227 0.57669 0.0
H793 H 0.96325 0.3304 0.76791 0.0
H794 H 0.99153 0.33845 0.71376 0.0
C795 C 0.10045 0.43896 0.54639 0.0
C796 C 0.05394 0.40179 0.6211 0.0
H797 H 0.05177 0.39711 0.73059 0.0
C798 C 0.03249 0.38552 0.61214 0.0
C799 C 0.0612 0.40549 0.66439 0.0
C800 C 0.08379 0.42304 0.67685 0.0
C801 C 0.01741 0.37471 0.64521 0.0
C802 C 0.02434 0.3794 0.68861 0.0
C803 C 0.04643 0.39374 0.69734 0.0
C804 C 0.00866 0.37321 0.7249 0.0
C805 C 0.99389 0.35994 0.63312 0.0
C806 C 0.00957 0.38978 0.75099 0.0
C807 C 0.99402 0.38514 0.78267 0.0
C808 C 0.97683 0.36383 0.78863 0.0
C809 C 0.97619 0.34702 0.76362 0.0
C810 C 0.99224 0.35164 0.73246 0.0
H811 H 0.99078 0.36135 0.59853 0.0
H812 H 0.98942 0.34282 0.63932 0.0
H813 H 0.98306 0.36371 0.65255 0.0
H814 H 0.02196 0.40658 0.74589 0.0
H815 H 0.99497 0.3985 0.80123 0.0
H816 H 0.60701 0.91908 0.10602 0.0
H817 H 0.62825 0.9466 0.05228 0.0
H818 H 0.66157 0.99338 0.15305 0.0
H819 H 0.63998 0.96605 0.20704 0.0
H820 H 0.63893 0.00493 0.1016 0.0
H821 H 0.68793 0.9819 0.99953 0.0
H822 H 0.66058 0.95994 0.00552 0.0
H823 H 0.67802 0.97003 0.05199 0.0
C824 C 0.61947 0.93496 0.11688 0.0
C825 C 0.62153 0.94051 0.16075 0.0
C826 C 0.63174 0.95069 0.08601 0.0
C827 C 0.64653 0.97209 0.09859 0.0
C828 C 0.65025 0.97698 0.14262 0.0
H829 H 0.67766 0.08712 0.94235 0.0
H830 H 0.68281 0.06527 0.99712 0.0
C831 C 0.63786 0.96134 0.17345 0.0
C832 C 0.65421 0.98995 0.06663 0.0
H833 H 0.67677 0.0059 0.96675 0.0
C834 C 0.64773 0.0055 0.07263 0.0
C835 C 0.66543 0.9905 0.02864 0.0
C836 C 0.67357 0.9748 0.02122 0.0
C837 C 0.65096 0.02074 0.04068 0.0
C838 C 0.66146 0.02081 0.00192 0.0
C839 C 0.66881 0.00588 0.99658 0.0
C840 C 0.66255 0.03459 0.9651 0.0
C841 C 0.64174 0.03564 0.04762 0.0
C842 C 0.6506 0.0247 0.92775 0.0
C843 C 0.6478 0.03712 0.89623 0.0
C844 C 0.65683 0.05968 0.90161 0.0
C845 C 0.67021 0.06975 0.93751 0.0
C846 C 0.67315 0.0573 0.96888 0.0
H847 H 0.63044 0.03054 0.07549 0.0
H848 H 0.65522 0.05235 0.05397 0.0
H849 H 0.63287 0.03614 0.01855 0.0
H850 H 0.64234 0.0072 0.92414 0.0
H851 H 0.63755 0.02883 0.86883 0.0
H852 H 0.64588 0.62993 0.41693 0.0
H853 H 0.63137 0.64693 0.36878 0.0
H854 H 0.57242 0.6197 0.44364 0.0
H855 H 0.58663 0.60251 0.49171 0.0
H856 H 0.56606 0.60958 0.35609 0.0
H857 H 0.61995 0.69829 0.37998 0.0
H858 H 0.63378 0.68329 0.37035 0.0
H859 H 0.61806 0.67837 0.41861 0.0
C860 C 0.62998 0.62786 0.42366 0.0
C861 C 0.61737 0.6147 0.45807 0.0
C862 C 0.62178 0.63774 0.39624 0.0
C863 C 0.6009 0.63475 0.40288 0.0
C864 C 0.58862 0.62231 0.43809 0.0
H865 H 0.51138 0.65266 0.24107 0.0
H866 H 0.53068 0.65078 0.30465 0.0
C867 C 0.59678 0.61245 0.46549 0.0
C868 C 0.59082 0.64237 0.3705 0.0
H869 H 0.59578 0.68743 0.31993 0.0
C870 C 0.57241 0.62662 0.34855 0.0
C871 C 0.59932 0.66459 0.36039 0.0
C872 C 0.61877 0.68218 0.38376 0.0
C873 C 0.56247 0.6324 0.31619 0.0
C874 C 0.57085 0.65462 0.30617 0.0
C875 C 0.58927 0.67045 0.32807 0.0
C876 C 0.56107 0.66125 0.27136 0.0
C877 C 0.54349 0.61459 0.29197 0.0
C878 C 0.57227 0.66929 0.23246 0.0
C879 C 0.56134 0.67057 0.19605 0.0
C880 C 0.53899 0.66367 0.19801 0.0
C881 C 0.5285 0.65785 0.23825 0.0
C882 C 0.53948 0.65669 0.27464 0.0
H883 H 0.542 0.59843 0.29738 0.0
H884 H 0.52822 0.61374 0.30304 0.0
H885 H 0.54511 0.61799 0.25684 0.0
H886 H 0.58898 0.67301 0.22938 0.0
H887 H 0.56999 0.67524 0.1657 0.0
H888 H 0.02827 0.66878 0.73685 0.0
H889 H -0.00283 0.65488 0.68786 0.0
H890 H 0.95377 0.63878 0.79592 0.0
H891 H 0.98461 0.65286 0.84521 0.0
H892 H 0.95451 0.60322 0.73162 0.0
H893 H 0.94288 0.66888 0.66117 0.0
H894 H 0.97012 0.67382 0.67005 0.0
H895 H 0.9531 0.67055 0.71525 0.0
C896 C 0.01223 0.66308 0.7502 0.0
C897 C 0.00893 0.66161 0.79502 0.0
C898 C 0.99448 0.65516 0.72212 0.0
C899 C 0.97327 0.6458 0.73845 0.0
C900 C 0.97007 0.64607 0.78284 0.0
H901 H 0.86229 0.54177 0.5998 0.0
H902 H 0.88203 0.56716 0.65839 0.0
C903 C 0.98777 0.6541 0.81091 0.0
C904 C 0.95466 0.6321 0.7103 0.0
H905 H 0.92208 0.63366 0.63136 0.0
C906 C 0.94712 0.60973 0.71006 0.0
C907 C 0.94537 0.64086 0.6823 0.0
C908 C 0.95312 0.66484 0.68199 0.0
C909 C 0.93111 0.59587 0.68096 0.0
C910 C 0.92186 0.60458 0.65229 0.0
C911 C 0.92897 0.62696 0.65366 0.0
C912 C 0.90704 0.59126 0.61715 0.0
C913 C 0.92532 0.57231 0.6795 0.0
C914 C 0.91359 0.59713 0.57435 0.0
C915 C 0.90217 0.58292 0.54089 0.0
C916 C 0.88402 0.56239 0.54952 0.0
C917 C 0.87636 0.5573 0.59209 0.0
C918 C 0.88772 0.57173 0.62564 0.0
H919 H 0.93732 0.56946 0.6971 0.0
H920 H 0.90921 0.56213 0.69477 0.0
H921 H 0.92441 0.56677 0.64575 0.0
H922 H 0.92832 0.61218 0.56693 0.0
H923 H 0.9084 0.58757 0.50847 0.0
H924 H 0.49859 0.07653 0.16859 0.0
H925 H 0.51261 0.05781 0.12429 0.0
H926 H 0.4644 0.99643 0.1782 0.0
H927 H 0.44992 0.01486 0.22138 0.0
H928 H 0.53061 0.03763 0.15939 0.0
H929 H 0.46491 0.97666 0.05834 0.0
H930 H 0.46561 0.00132 0.07593 0.0
H931 H 0.45438 0.97759 0.11005 0.0
C932 C 0.49082 0.05899 0.1706 0.0
C933 C 0.47339 0.04715 0.19905 0.0
C934 C 0.49864 0.04832 0.14473 0.0
C935 C 0.48921 0.02567 0.14699 0.0
C936 C 0.4714 0.01382 0.17448 0.0
H937 H 0.49943 0.92891 0.21929 0.0
H938 H 0.49064 0.95308 0.1789 0.0
C939 C 0.46343 0.02442 0.19995 0.0
C940 C 0.50055 0.01481 0.12881 0.0
H941 H 0.48827 0.96454 0.0939 0.0
C942 C 0.52176 0.02202 0.14341 0.0
C943 C 0.48925 0.99479 0.1068 0.0
C944 C 0.46738 0.98731 0.08642 0.0
C945 C 0.53036 0.00808 0.14385 0.0
C946 C 0.51745 0.98661 0.12825 0.0
C947 C 0.49785 0.9808 0.10692 0.0
C948 C 0.52114 0.96908 0.14396 0.0
C949 C 0.55189 0.0156 0.16615 0.0
C950 C 0.54084 0.96955 0.13657 0.0
C951 C 0.54619 0.95634 0.1609 0.0
C952 C 0.53157 0.942 0.19176 0.0
C953 C 0.51105 0.94008 0.19615 0.0
C954 C 0.50596 0.9537 0.17269 0.0
H955 H 0.55888 0.0323 0.17937 0.0
H956 H 0.54994 0.00446 0.19305 0.0
H957 H 0.56375 0.01559 0.14293 0.0
H958 H 0.55251 0.98089 0.11374 0.0
H959 H 0.56189 0.95758 0.15606 0.0
H960 H 0.42025 0.44044 0.49072 0.0
H961 H 0.45497 0.44551 0.46691 0.0
H962 H 0.4333 0.37792 0.49179 0.0
H963 H 0.39814 0.37263 0.51615 0.0
H964 H 0.47012 0.40522 0.53475 0.0
H965 H 0.48176 0.43151 0.3662 0.0
H966 H 0.46911 0.44448 0.39362 0.0
H967 H 0.45501 0.41522 0.38951 0.0
C968 C 0.42266 0.42653 0.49061 0.0
C969 C 0.4066 0.40625 0.5061 0.0
C970 C 0.44241 0.42934 0.47614 0.0
C971 C 0.44653 0.41195 0.47664 0.0
C972 C 0.43026 0.39143 0.4905 0.0
H973 H 0.58796 0.48249 0.50748 0.0
H974 H 0.55505 0.44953 0.48461 0.0
C975 C 0.41032 0.38853 0.50483 0.0
C976 C 0.46917 0.4169 0.47114 0.0
H977 H 0.51338 0.45433 0.41566 0.0
C978 C 0.4797 0.41504 0.50778 0.0
C979 C 0.48163 0.42927 0.43564 0.0
C980 C 0.47118 0.42998 0.39388 0.0
C981 C 0.50216 0.4284 0.51284 0.0
C982 C 0.51399 0.44366 0.48035 0.0
C983 C 0.50404 0.44288 0.4409 0.0
C984 C 0.53429 0.46355 0.49106 0.0
C985 C 0.51261 0.42823 0.55504 0.0
C986 C 0.53326 0.48215 0.5022 0.0
C987 C 0.55186 0.50092 0.51558 0.0
C988 C 0.57182 0.50136 0.51791 0.0
C989 C 0.57279 0.48266 0.50621 0.0
C990 C 0.55411 0.46385 0.49293 0.0
H991 H 0.50166 0.41405 0.57535 0.0
H992 H 0.52784 0.42787 0.54909 0.0
H993 H 0.51691 0.44333 0.57315 0.0
H994 H 0.51792 0.482 0.50117 0.0
H995 H 0.55057 0.51503 0.5241 0.0
H996 H 0.96794 0.44507 0.8475 0.0
H997 H 0.97646 0.47628 0.80214 0.0
H998 H 0.91154 0.44296 0.74948 0.0
H999 H 0.90264 0.41166 0.7958 0.0
H1000 H 0.97406 0.48228 0.70984 0.0
H1001 H 0.91606 0.49738 0.80456 0.0
H1002 H 0.92283 0.47756 0.82398 0.0
H1003 H 0.90694 0.47231 0.77583 0.0
C1004 C 0.95546 0.44433 0.82631 0.0
C1005 C 0.93451 0.42614 0.82594 0.0
C1006 C 0.96042 0.46205 0.79994 0.0
C1007 C 0.94461 0.46187 0.77245 0.0
C1008 C 0.92388 0.44343 0.77071 0.0
H1009 H 0.99474 0.59567 0.79974 0.0
H1010 H 0.97261 0.56507 0.7523 0.0
C1011 C 0.91881 0.42571 0.7975 0.0
C1012 C 0.94963 0.48237 0.75099 0.0
H1013 H 0.94859 0.52749 0.78299 0.0
C1014 C 0.96799 0.49215 0.72416 0.0
C1015 C 0.94111 0.49505 0.76789 0.0
C1016 C 0.92061 0.48516 0.79458 0.0
C1017 C 0.98041 0.51482 0.72107 0.0
C1018 C 0.97438 0.52755 0.74614 0.0
C1019 C 0.95366 0.51767 0.76506 0.0
C1020 C 0.99088 0.54865 0.7643 0.0
C1021 C 0.00102 0.52484 0.69488 0.0
C1022 C 0.00874 0.54979 0.7864 0.0
C1023 C 0.02138 0.5672 0.81359 0.0
C1024 C 0.01611 0.58356 0.81991 0.0
C1025 C -0.00114 0.58296 0.79632 0.0
C1026 C 0.98642 0.5657 0.76861 0.0
H1027 H -0.00153 0.51564 0.6645 0.0
H1028 H 0.00664 0.54212 0.68709 0.0
H1029 H 0.01396 0.52389 0.71314 0.0
H1030 H 0.01209 0.5365 0.78504 0.0
H1031 H 0.03468 0.56736 0.83106 0.0
H1032 H 0.09762 0.54945 0.52232 0.0
H1033 H 0.06912 0.54665 0.5714 0.0
H1034 H 0.02035 0.50677 0.47804 0.0
H1035 H 0.04844 0.50892 0.43009 0.0
H1036 H 0.03761 0.55697 0.56832 0.0
H1037 H -0.00271 0.46897 0.5833 0.0
H1038 H 0.02509 0.48472 0.56474 0.0
H1039 H 0.0027 0.47446 0.52706 0.0
C1040 C 0.08079 0.54046 0.51214 0.0
C1041 C 0.07508 0.52929 0.4726 0.0
C1042 C 0.06459 0.53863 0.5404 0.0
C1043 C 0.04263 0.52565 0.52919 0.0
C1044 C 0.03717 0.51599 0.48825 0.0
H1045 H 0.95228 0.5394 0.46528 0.0
H1046 H 0.98314 0.54437 0.50735 0.0
C1047 C 0.0532 0.51755 0.46047 0.0
C1048 C 0.02488 0.52265 0.55822 0.0
H1049 H 0.97192 0.48382 0.56661 0.0
C1050 C 0.02336 0.54091 0.56986 0.0
C1051 C 0.00666 0.50174 0.56418 0.0
C1052 C 0.0082 0.48141 0.55971 0.0
C1053 C 0.00295 0.53884 0.57753 0.0
C1054 C 0.98411 0.51844 0.57034 0.0
C1055 C 0.9862 0.4998 0.56926 0.0
C1056 C 0.96447 0.51698 0.55016 0.0
C1057 C 0.00167 0.5588 0.58884 0.0
C1058 C 0.94361 0.49928 0.55826 0.0
C1059 C 0.92603 0.49577 0.53229 0.0
C1060 C 0.92902 0.51015 0.49849 0.0
C1061 C 0.94963 0.52809 0.49118 0.0
C1062 C 0.9672 0.53125 0.51616 0.0
H1063 H 0.01324 0.56773 0.61531 0.0
H1064 H 0.00668 0.56992 0.56072 0.0
H1065 H 0.98505 0.55468 0.59907 0.0
H1066 H 0.94103 0.48787 0.58386 0.0
H1067 H 0.91008 0.48204 0.53898 0.0
H1068 H 0.42807 0.9049 0.91771 0.0
H1069 H 0.45206 0.93044 0.97293 0.0
H1070 H 0.46639 0.98391 0.88715 0.0
H1071 H 0.44183 0.95873 0.83374 0.0
H1072 H 0.49197 0.95675 0.98017 0.0
H1073 H 0.45906 0.01043 0.9921 0.0
H1074 H 0.44271 0.98326 0.97086 0.0
H1075 H 0.45828 0.00612 0.93531 0.0
C1076 C 0.4366 0.92216 0.91082 0.0
C1077 C 0.43333 0.92999 0.87155 0.0
C1078 C 0.44996 0.93671 0.94259 0.0
C1079 C 0.46022 0.95921 0.93525 0.0
C1080 C 0.45771 0.96676 0.89493 0.0
H1081 H 0.558 0.02084 0.85103 0.0
H1082 H 0.53225 -0.00128 0.90578 0.0
C1083 C 0.44413 0.95236 0.86379 0.0
C1084 C 0.4759 0.97517 0.96632 0.0
H1085 H 0.5002 0.03004 0.96731 0.0
C1086 C 0.49346 0.97271 0.97954 0.0
C1087 C 0.47767 0.99582 0.97063 0.0
C1088 C 0.45818 -0.00114 0.96705 0.0
C1089 C 0.51405 0.99111 0.98444 0.0
C1090 C 0.51679 0.01153 0.97236 0.0
C1091 C 0.49845 0.01415 0.97256 0.0
C1092 C 0.53482 0.02583 0.94304 0.0
C1093 C 0.53316 0.98826 0.99532 0.0
C1094 C 0.54408 0.04853 0.94372 0.0
C1095 C 0.55838 0.06127 0.91104 0.0
C1096 C 0.56363 0.05147 0.87726 0.0
C1097 C 0.5543 0.02885 0.87663 0.0
C1098 C 0.53994 0.0162 0.90877 0.0
H1099 H 0.52939 0.97793 0.0245 0.0
H1100 H 0.53615 0.97968 0.96865 0.0
H1101 H 0.5481 0.00409 0.00124 0.0
H1102 H 0.54005 0.05635 0.96915 0.0
H1103 H 0.56567 0.07877 0.9127 0.0
H1104 H 0.56456 0.61864 0.12847 0.0
H1105 H 0.58397 0.60139 0.15944 0.0
H1106 H 0.52813 0.53832 0.13591 0.0
H1107 H 0.50859 0.55522 0.10511 0.0
H1108 H 0.55193 0.54681 0.22369 0.0
H1109 H 0.60361 0.5661 0.07736 0.0
H1110 H 0.60093 0.5866 0.10662 0.0
H1111 H 0.57915 0.56775 0.0728 0.0
C1112 C 0.55637 0.60107 0.13001 0.0
C1113 C 0.53509 0.58822 0.11381 0.0
C1114 C 0.56747 0.59134 0.14801 0.0
C1115 C 0.55738 0.5687 0.15012 0.0
C1116 C 0.53603 0.5559 0.13492 0.0
H1117 H 0.51022 0.45606 0.11824 0.0
H1118 H 0.52745 0.49158 0.15217 0.0
C1119 C 0.52497 0.56555 0.11692 0.0
C1120 C 0.56915 0.55755 0.16349 0.0
H1121 H 0.58933 0.53069 0.10696 0.0
C1122 C 0.56118 0.54387 0.1995 0.0
C1123 C 0.58197 0.55431 0.13292 0.0
C1124 C 0.5921 0.56951 0.09528 0.0
C1125 C 0.56176 0.52447 0.20067 0.0
C1126 C 0.57007 0.51886 0.16467 0.0
C1127 C 0.5823 0.53477 0.13388 0.0
C1128 C 0.56 0.49606 0.15065 0.0
C1129 C 0.55078 0.50881 0.23725 0.0
C1130 C 0.57267 0.48709 0.13722 0.0
C1131 C 0.56284 0.46684 0.11702 0.0
C1132 C 0.54022 0.45541 0.10948 0.0
C1133 C 0.52764 0.46444 0.12331 0.0
C1134 C 0.53744 0.48457 0.14355 0.0
H1135 H 0.554 0.51774 0.2682 0.0
H1136 H 0.53293 0.5 0.23203 0.0
H1137 H 0.5564 0.49678 0.2397 0.0
H1138 H 0.59014 0.49594 0.14157 0.0
H1139 H 0.573 0.46022 0.10713 0.0
H1140 H 0.34312 0.89864 0.63318 0.0
H1141 H 0.34614 0.92228 0.57294 0.0
H1142 H 0.38398 0.97873 0.65194 0.0
H1143 H 0.38106 0.95536 0.71236 0.0
H1144 H 0.34942 0.97896 0.59691 0.0
H1145 H 0.40657 0.95967 0.51096 0.0
H1146 H 0.38147 0.93693 0.52925 0.0
H1147 H 0.40107 0.95475 0.56784 0.0
C1148 C 0.35192 0.91607 0.63791 0.0
C1149 C 0.36203 0.9251 0.67748 0.0
C1150 C 0.35363 0.92953 0.60346 0.0
C1151 C 0.36541 0.95219 0.60807 0.0
C1152 C 0.37482 0.96125 0.64787 0.0
H1153 H 0.40947 0.06451 0.44171 0.0
H1154 H 0.39602 0.03964 0.50332 0.0
C1155 C 0.37322 0.94785 0.68226 0.0
C1156 C 0.36913 0.96652 0.57069 0.0
H1157 H 0.39683 0.9829 0.4759 0.0
C1158 C 0.3597 0.97982 0.57027 0.0
C1159 C 0.38262 0.96759 0.53629 0.0
C1160 C 0.39369 0.95412 0.53596 0.0
C1161 C 0.36321 0.99404 0.53579 0.0
C1162 C 0.37689 0.99525 0.5015 0.0
C1163 C 0.38625 0.98187 0.50209 0.0
C1164 C 0.38214 0.01037 0.46467 0.0
C1165 C 0.352 0.00734 0.53607 0.0
C1166 C 0.37871 0.00221 0.42255 0.0
C1167 C 0.38669 0.01634 0.38752 0.0
C1168 C 0.39815 0.03894 0.39386 0.0
C1169 C 0.40054 0.04716 0.43587 0.0
C1170 C 0.39277 0.03296 0.47108 0.0
H1171 H 0.33744 -0.0 0.55724 0.0
H1172 H 0.36339 0.02382 0.54856 0.0
H1173 H 0.34694 0.00904 0.50312 0.0
H1174 H 0.37054 0.98486 0.41684 0.0
H1175 H 0.38445 0.00953 0.35548 0.0
H1176 H 0.46121 0.40094 0.93783 0.0
H1177 H 0.43257 0.39508 0.88669 0.0
H1178 H 0.39484 0.32835 0.92865 0.0
H1179 H 0.4244 0.33382 0.97693 0.0
H1180 H 0.391 0.3275 0.85046 0.0
H1181 H 0.37773 0.39428 0.89987 0.0
H1182 H 0.40563 0.4056 0.88493 0.0
H1183 H 0.39499 0.3873 0.93034 0.0
C1184 C 0.44672 0.38508 0.93613 0.0
C1185 C 0.44496 0.36783 0.96121 0.0
C1186 C 0.43017 0.38177 0.9073 0.0
C1187 C 0.41106 0.3614 0.90439 0.0
C1188 C 0.40927 0.34425 0.9301 0.0
H1189 H 0.31437 0.3632 0.72866 0.0
H1190 H 0.32949 0.35801 0.79573 0.0
C1191 C 0.42616 0.34736 0.95777 0.0
C1192 C 0.39369 0.35758 0.87251 0.0
H1193 H 0.36672 0.38115 0.82675 0.0
C1194 C 0.38543 0.33909 0.84601 0.0
C1195 C 0.3856 0.37211 0.86708 0.0
C1196 C 0.39128 0.39075 0.89751 0.0
C1197 C 0.37044 0.33543 0.81302 0.0
C1198 C 0.36441 0.35133 0.80435 0.0
C1199 C 0.3716 0.36911 0.83245 0.0
C1200 C 0.35255 0.35096 0.76433 0.0
C1201 C 0.36124 0.31445 0.78808 0.0
C1202 C 0.35993 0.34819 0.72421 0.0
C1203 C 0.35088 0.35046 0.68608 0.0
C1204 C 0.33469 0.35641 0.68675 0.0
C1205 C 0.32672 0.35851 0.72688 0.0
C1206 C 0.3355 0.3557 0.76528 0.0
H1207 H 0.35938 0.30099 0.80922 0.0
H1208 H 0.34517 0.30981 0.77374 0.0
H1209 H 0.3727 0.31623 0.76201 0.0
H1210 H 0.37354 0.34536 0.72207 0.0
H1211 H 0.35769 0.34894 0.65597 0.0
H1212 H -0.00049 0.40339 0.97655 0.0
H1213 H 0.02559 0.41739 0.03592 0.0
H1214 H 0.97888 0.36745 0.11947 0.0
H1215 H 0.95263 0.35309 0.06009 0.0
H1216 H -1e-05 0.41768 0.1413 0.0
H1217 H 0.05698 0.38697 0.10707 0.0
H1218 H 0.04729 0.39637 0.0629 0.0
H1219 H 0.02871 0.37212 0.09118 0.0
C1220 C 0.99484 0.39516 0.00737 0.0
C1221 C 0.97394 0.37718 0.01368 0.0
C1222 C 0.00982 0.40313 0.04112 0.0
C1223 C 0.00414 0.39334 0.08179 0.0
C1224 C 0.98355 0.37506 0.08806 0.0
H1225 H 0.06002 0.44142 0.33336 0.0
H1226 H 0.037 0.42016 0.27347 0.0
C1227 C 0.9686 0.3669 0.05414 0.0
C1228 C 0.01888 0.40363 0.11867 0.0
H1229 H 0.06589 0.41153 0.16507 0.0
C1230 C 0.01432 0.41624 0.1468 0.0
C1231 C 0.03769 0.40196 0.12496 0.0
C1232 C 0.04309 0.38858 0.09515 0.0
C1233 C 0.02827 0.4275 0.18107 0.0
C1234 C 0.04693 0.4255 0.18816 0.0
C1235 C 0.05152 0.41291 0.15978 0.0
C1236 C 0.06177 0.43648 0.22485 0.0
C1237 C 0.0232 0.44196 0.20852 0.0
C1238 C 0.08375 0.45181 0.21773 0.0
C1239 C 0.09713 0.46377 0.25215 0.0
C1240 C 0.08864 0.46063 0.2941 0.0
C1241 C 0.06694 0.44447 0.3013 0.0
C1242 C 0.05372 0.43236 0.26709 0.0
H1243 H 0.01238 0.44665 0.19146 0.0
H1244 H 0.01469 0.43308 0.23818 0.0
H1245 H 0.03827 0.45699 0.21804 0.0
H1246 H 0.09033 0.45511 0.18538 0.0
H1247 H 0.11379 0.47609 0.24566 0.0
H1248 H 0.60012 0.02913 0.68431 0.0
H1249 H 0.59973 0.00645 0.62512 0.0
H1250 H 0.66805 0.05048 0.60311 0.0
H1251 H 0.66816 0.07396 0.66098 0.0
H1252 H 0.64922 0.04031 0.53087 0.0
H1253 H 0.61893 0.96326 0.61849 0.0
H1254 H 0.60004 0.97274 0.62573 0.0
H1255 H 0.62741 0.98856 0.64615 0.0
C1256 C 0.6151 0.0339 0.66704 0.0
C1257 C 0.63419 0.05327 0.67732 0.0
C1258 C 0.61493 0.02077 0.63348 0.0
C1259 C 0.63402 0.02632 0.61036 0.0
C1260 C 0.65315 0.0457 0.62067 0.0
H1261 H 0.61419 0.92747 0.41615 0.0
H1262 H 0.62994 0.95158 0.47856 0.0
C1263 C 0.6532 0.05914 0.65366 0.0
C1264 C 0.63343 0.0127 0.57346 0.0
H1265 H 0.61151 0.95995 0.54122 0.0
C1266 C 0.64137 0.02276 0.53343 0.0
C1267 C 0.62389 0.98983 0.57665 0.0
C1268 C 0.61736 0.97806 0.61926 0.0
C1269 C 0.63857 0.01052 0.49613 0.0
C1270 C 0.62663 0.98755 0.49853 0.0
C1271 C 0.62019 0.97754 0.53902 0.0
C1272 C 0.6188 0.97375 0.45934 0.0
C1273 C 0.64825 0.02243 0.45451 0.0
C1274 C 0.60719 0.97804 0.42802 0.0
C1275 C 0.59858 0.9646 0.39224 0.0
C1276 C 0.60082 0.94613 0.3874 0.0
C1277 C 0.61226 0.94163 0.41892 0.0
C1278 C 0.62125 0.95538 0.45455 0.0
H1279 H 0.66353 0.03794 0.46064 0.0
H1280 H 0.65181 0.01252 0.43188 0.0
H1281 H 0.63669 0.02657 0.43896 0.0
H1282 H 0.60425 0.99152 0.4317 0.0
H1283 H 0.58955 0.96838 0.36901 0.0
H1284 H 0.53445 0.66768 0.89855 0.0
H1285 H 0.55464 0.6662 0.8358 0.0
H1286 H 0.58795 0.64265 0.91676 0.0
H1287 H 0.56922 0.64568 0.97943 0.0
H1288 H 0.61404 0.66555 0.85798 0.0
H1289 H 0.53549 0.61038 0.77798 0.0
H1290 H 0.53974 0.63716 0.78656 0.0
H1291 H 0.53683 0.62008 0.83198 0.0
C1292 C 0.5465 0.66272 0.90297 0.0
C1293 C 0.55009 0.65662 0.94388 0.0
C1294 C 0.55783 0.66159 0.86701 0.0
C1295 C 0.57224 0.65347 0.87109 0.0
C1296 C 0.57684 0.6488 0.91244 0.0
H1297 H 0.59267 0.57517 0.69007 0.0
H1298 H 0.58129 0.59165 0.74566 0.0
C1299 C 0.56607 0.65056 0.94843 0.0
C1300 C 0.58145 0.64825 0.83277 0.0
H1301 H 0.56717 0.61785 0.74086 0.0
C1302 C 0.60378 0.65513 0.83231 0.0
C1303 C 0.56807 0.63445 0.79937 0.0
C1304 C 0.54369 0.62491 0.79909 0.0
C1305 C 0.61291 0.64789 0.80075 0.0
C1306 C 0.59954 0.63426 0.76719 0.0
C1307 C 0.57745 0.62825 0.76653 0.0
C1308 C 0.60747 0.62453 0.7343 0.0
C1309 C 0.63645 0.65398 0.80535 0.0
C1310 C 0.62613 0.63737 0.70938 0.0
C1311 C 0.63308 0.62777 0.67849 0.0
C1312 C 0.62102 0.6053 0.67088 0.0
C1313 C 0.60223 0.59255 0.69524 0.0
C1314 C 0.59568 0.602 0.72692 0.0
H1315 H 0.64237 0.65886 0.83886 0.0
H1316 H 0.63898 0.6403 0.79616 0.0
H1317 H 0.64657 0.66802 0.7841 0.0
H1318 H 0.63516 0.65483 0.71326 0.0
H1319 H 0.64747 0.63799 0.65962 0.0
H1320 H 0.9849 0.62095 0.99242 0.0
H1321 H 0.96204 0.60903 0.05625 0.0
H1322 H 0.01741 0.65038 0.13534 0.0
H1323 H 0.04071 0.66233 0.0712 0.0
H1324 H 0.99453 0.60753 0.16321 0.0
H1325 H 0.9377 0.63823 0.13306 0.0
H1326 H 0.93974 0.62345 0.08819 0.0
H1327 H 0.96316 0.64847 0.10465 0.0
C1328 C 0.99227 0.6278 0.02324 0.0
C1329 C 0.0147 0.64256 0.02669 0.0
C1330 C 0.97907 0.62109 0.05971 0.0
C1331 C 0.98794 0.62906 0.10045 0.0
C1332 C 0.01022 0.6442 0.10407 0.0
H1333 H 0.92992 0.58083 0.35293 0.0
H1334 H 0.95358 0.60332 0.29489 0.0
C1335 C 0.0235 0.65102 0.06742 0.0
C1336 C 0.97424 0.6198 0.13928 0.0
H1337 H 0.92621 0.6094 0.18493 0.0
C1338 C 0.97979 0.60824 0.16841 0.0
C1339 C 0.95491 0.6206 0.1457 0.0
C1340 C 0.94861 0.63354 0.11645 0.0
C1341 C 0.96608 0.59671 0.20286 0.0
C1342 C 0.9465 0.5971 0.20873 0.0
C1343 C 0.94118 0.60907 0.1802 0.0
C1344 C 0.93122 0.58478 0.24394 0.0
C1345 C 0.97226 0.5835 0.23167 0.0
C1346 C 0.91039 0.56743 0.23456 0.0
C1347 C 0.89667 0.55455 0.26776 0.0
C1348 C 0.90362 0.55884 0.31087 0.0
C1349 C 0.92414 0.57686 0.32009 0.0
C1350 C 0.93774 0.58974 0.28696 0.0
H1351 H 0.98502 0.58087 0.21694 0.0
H1352 H 0.97869 0.59225 0.26253 0.0
H1353 H 0.95789 0.56743 0.23898 0.0
H1354 H 0.90503 0.56344 0.20147 0.0
H1355 H 0.88096 0.54084 0.25957 0.0
H1356 H 0.4754 0.11937 0.43773 0.0
H1357 H 0.49946 0.12494 0.49879 0.0
H1358 H 0.54773 0.12653 0.41232 0.0
H1359 H 0.52397 0.12118 0.35114 0.0
H1360 H 0.51424 0.09628 0.52098 0.0
H1361 H 0.58384 0.17886 0.4906 0.0
H1362 H 0.55772 0.1689 0.46499 0.0
H1363 H 0.57641 0.16075 0.44543 0.0
C1364 C 0.49129 0.12131 0.43156 0.0
C1365 C 0.4977 0.1198 0.38942 0.0
C1366 C 0.50501 0.12445 0.46654 0.0
C1367 C 0.52549 0.12638 0.4601 0.0
C1368 C 0.53219 0.12551 0.41803 0.0
H1369 H 0.62372 0.1258 0.62755 0.0
H1370 H 0.60325 0.12833 0.56628 0.0
C1371 C 0.51848 0.1223 0.38306 0.0
C1372 C 0.53903 0.12739 0.4975 0.0
H1373 H 0.5889 0.15783 0.54439 0.0
C1374 C 0.53049 0.10982 0.52632 0.0
C1375 C 0.56032 0.14496 0.50411 0.0
C1376 C 0.5701 0.16454 0.47489 0.0
C1377 C 0.54275 0.10915 0.56115 0.0
C1378 C 0.56401 0.12678 0.56799 0.0
C1379 C 0.5726 0.14436 0.53915 0.0
C1380 C 0.5774 0.12716 0.60515 0.0
C1381 C 0.53301 0.08928 0.58967 0.0
C1382 C 0.57004 0.12639 0.64735 0.0
C1383 C 0.58159 0.12485 0.68231 0.0
C1384 C 0.60094 0.12428 0.6759 0.0
C1385 C 0.60888 0.12616 0.63367 0.0
C1386 C 0.5972 0.12759 0.59861 0.0
H1387 H 0.51935 0.07506 0.57354 0.0
H1388 H 0.54542 0.08489 0.59919 0.0
H1389 H 0.52656 0.09271 0.61936 0.0
H1390 H 0.55508 0.12657 0.65324 0.0
H1391 H 0.5751 0.1237 0.71436 0.0
H1392 H 0.39282 0.4793 0.62824 0.0
H1393 H 0.4093 0.50627 0.68541 0.0
H1394 H 0.35381 0.46814 0.76674 0.0
H1395 H 0.33694 0.44116 0.70941 0.0
H1396 H 0.36876 0.51294 0.77064 0.0
H1397 H 0.43608 0.49527 0.79232 0.0
H1398 H 0.43342 0.50268 0.73832 0.0
H1399 H 0.41207 0.47796 0.76132 0.0
C1400 C 0.38402 0.47665 0.65817 0.0
C1401 C 0.36363 0.45792 0.66436 0.0
C1402 C 0.39352 0.49207 0.69087 0.0
C1403 C 0.38296 0.48899 0.73057 0.0
C1404 C 0.36227 0.47076 0.73638 0.0
H1405 H 0.44398 0.54742 0.97153 0.0
H1406 H 0.4238 0.52329 0.91229 0.0
C1407 C 0.35267 0.45534 0.70358 0.0
C1408 C 0.39385 0.50438 0.76652 0.0
H1409 H 0.43866 0.5251 0.83117 0.0
C1410 C 0.38404 0.51563 0.78397 0.0
C1411 C 0.41363 0.50761 0.78416 0.0
C1412 C 0.42435 0.49511 0.76841 0.0
C1413 C 0.39361 0.53019 0.81842 0.0
C1414 C 0.41367 0.5338 0.83531 0.0
C1415 C 0.42338 0.52245 0.81795 0.0
C1416 C 0.42459 0.54859 0.87213 0.0
C1417 C 0.38193 0.54117 0.83709 0.0
C1418 C 0.43166 0.57089 0.8694 0.0
C1419 C 0.44318 0.58482 0.9035 0.0
C1420 C 0.44804 0.57669 0.94067 0.0
C1421 C 0.44066 0.55429 0.94336 0.0
C1422 C 0.42908 0.54043 0.9095 0.0
H1423 H 0.36448 0.53266 0.8279 0.0
H1424 H 0.38315 0.54187 0.87276 0.0
H1425 H 0.38954 0.55806 0.82472 0.0
H1426 H 0.42876 0.57761 0.84052 0.0
H1427 H 0.44874 0.60199 0.90028 0.0
H1428 H 0.86488 0.38444 0.98195 0.0
H1429 H 0.85553 0.39928 0.04403 0.0
H1430 H 0.87605 0.36508 0.12955 0.0
H1431 H 0.88572 0.3503 0.06767 0.0
H1432 H 0.82761 0.37991 0.11654 0.0
H1433 H 0.91446 0.42949 0.16339 0.0
H1434 H 0.90606 0.41651 0.11151 0.0
H1435 H 0.90475 0.40091 0.15816 0.0
C1436 C 0.8672 0.37984 0.01392 0.0
C1437 C 0.87629 0.36632 0.01973 0.0
C1438 C 0.8618 0.38834 0.04939 0.0
C1439 C 0.86545 0.3836 0.09137 0.0
C1440 C 0.87347 0.36925 0.09738 0.0
H1441 H 0.86297 0.43377 0.34328 0.0
H1442 H 0.86405 0.4128 0.28221 0.0
C1443 C 0.87887 0.36072 0.06193 0.0
C1444 C 0.86194 0.39455 0.12869 0.0
H1445 H 0.88869 0.43014 0.2104 0.0
C1446 C 0.84093 0.3909 0.13712 0.0
C1447 C 0.87939 0.40903 0.15524 0.0
C1448 C 0.90248 0.41443 0.14654 0.0
C1449 C 0.83683 0.40095 0.17209 0.0
C1450 C 0.85429 0.41532 0.19879 0.0
C1451 C 0.8753 0.41905 0.19008 0.0
C1452 C 0.85134 0.42659 0.23632 0.0
C1453 C 0.81381 0.39572 0.1807 0.0
C1454 C 0.84355 0.44119 0.23107 0.0
C1455 C 0.84279 0.45321 0.26617 0.0
C1456 C 0.85006 0.45102 0.30706 0.0
C1457 C 0.85733 0.43598 0.31228 0.0
C1458 C 0.85796 0.42394 0.27735 0.0
H1459 H 0.80179 0.38038 0.16471 0.0
H1460 H 0.81036 0.39425 0.21578 0.0
H1461 H 0.81151 0.40904 0.1679 0.0
H1462 H 0.83876 0.44385 0.19956 0.0
H1463 H 0.83726 0.46475 0.26092 0.0
H1464 H 0.52522 0.89749 0.42512 0.0
H1465 H 0.50055 0.89018 0.48571 0.0
H1466 H 0.4525 0.83103 0.42403 0.0
H1467 H 0.47661 0.83956 0.3616 0.0
H1468 H 0.4325 0.84769 0.45594 0.0
H1469 H 0.48778 0.85232 0.58485 0.0
H1470 H 0.50028 0.87763 0.55656 0.0
H1471 H 0.49472 0.853 0.5289 0.0
C1472 C 0.50941 0.88289 0.42481 0.0
C1473 C 0.50277 0.86897 0.38915 0.0
C1474 C 0.49538 0.87854 0.45966 0.0
C1475 C 0.47481 0.85963 0.46045 0.0
C1476 C 0.46828 0.84565 0.4246 0.0
H1477 H 0.40632 0.83513 0.70741 0.0
H1478 H 0.42539 0.83148 0.64501 0.0
C1479 C 0.48204 0.85044 0.389 0.0
C1480 C 0.45973 0.85516 0.49748 0.0
H1481 H 0.45822 0.85787 0.60701 0.0
C1482 C 0.43808 0.84954 0.489 0.0
C1483 C 0.46656 0.85687 0.54091 0.0
C1484 C 0.48853 0.86001 0.55324 0.0
C1485 C 0.42346 0.84649 0.52237 0.0
C1486 C 0.43099 0.85048 0.56552 0.0
C1487 C 0.45237 0.8552 0.57408 0.0
C1488 C 0.4174 0.85062 0.6021 0.0
C1489 C 0.40005 0.83861 0.51067 0.0
C1490 C 0.40624 0.86232 0.59906 0.0
C1491 C 0.39459 0.86356 0.63414 0.0
C1492 C 0.39466 0.854 0.67363 0.0
C1493 C 0.40594 0.84252 0.67712 0.0
C1494 C 0.41692 0.84056 0.6415 0.0
H1495 H 0.39526 0.82814 0.48157 0.0
H1496 H 0.38881 0.82922 0.53726 0.0
H1497 H 0.39805 0.85277 0.50293 0.0
H1498 H 0.40704 0.87109 0.57 0.0
H1499 H 0.3864 0.87293 0.63103 0.0
H1500 H 0.63487 0.5427 0.71712 0.0
H1501 H 0.61964 0.51457 0.77238 0.0
H1502 H 0.63617 0.47408 0.69617 0.0
H1503 H 0.65044 0.50181 0.63971 0.0
H1504 H 0.59667 0.45109 0.72128 0.0
H1505 H 0.64417 0.49499 0.86447 0.0
H1506 H 0.6316 0.50909 0.84123 0.0
H1507 H 0.65175 0.50623 0.81105 0.0
C1508 C 0.63581 0.52806 0.71261 0.0
C1509 C 0.64397 0.52455 0.67408 0.0
C1510 C 0.62711 0.51194 0.74439 0.0
C1511 C 0.62696 0.49219 0.73894 0.0
C1512 C 0.63605 0.48911 0.70128 0.0
H1513 H 0.58197 0.40349 0.95839 0.0
H1514 H 0.60409 0.42584 0.89833 0.0
C1515 C 0.64435 0.50505 0.66911 0.0
C1516 C 0.61568 0.47414 0.77065 0.0
H1517 H 0.60974 0.46281 0.87822 0.0
C1518 C 0.5998 0.45359 0.75558 0.0
C1519 C 0.61989 0.47711 0.81542 0.0
C1520 C 0.63796 0.49799 0.83388 0.0
C1521 C 0.58758 0.43625 0.78395 0.0
C1522 C 0.59068 0.43971 0.82891 0.0
C1523 C 0.60706 0.46006 0.84386 0.0
C1524 C 0.57686 0.42289 0.86131 0.0
C1525 C 0.5717 0.41439 0.76518 0.0
C1526 C 0.55404 0.41294 0.86002 0.0
C1527 C 0.54131 0.39953 0.89379 0.0
C1528 C 0.55121 0.39636 0.9301 0.0
C1529 C 0.57391 0.40554 0.93061 0.0
C1530 C 0.58657 0.41848 0.89643 0.0
H1531 H 0.57698 0.4123 0.73273 0.0
H1532 H 0.56983 0.40088 0.7861 0.0
H1533 H 0.55561 0.41325 0.76147 0.0
H1534 H 0.54607 0.4165 0.83414 0.0
H1535 H 0.52389 0.39307 0.89303 0.0
H1536 H 0.15224 0.54292 0.24555 0.0
H1537 H 0.14711 0.56098 0.18327 0.0
H1538 H 0.14977 0.61094 0.26615 0.0
H1539 H 0.15441 0.59276 0.32861 0.0
H1540 H 0.11348 0.59252 0.21801 0.0
H1541 H 0.1844 0.61468 0.11229 0.0
H1542 H 0.1705 0.58661 0.12792 0.0
H1543 H 0.18387 0.60734 0.16814 0.0
C1544 C 0.15239 0.5581 0.2504 0.0
C1545 C 0.15365 0.56632 0.29216 0.0
C1546 C 0.14949 0.56846 0.21466 0.0
C1547 C 0.14815 0.58742 0.2199 0.0
C1548 C 0.15073 0.59633 0.26126 0.0
H1549 H 0.10829 0.66055 0.05342 0.0
H1550 H 0.12329 0.64882 0.11173 0.0
C1551 C 0.15344 0.58592 0.29697 0.0
C1552 C 0.14156 0.59652 0.18347 0.0
H1553 H 0.15429 0.61589 0.08048 0.0
C1554 C 0.12257 0.59786 0.18814 0.0
C1555 C 0.15329 0.60331 0.14431 0.0
C1556 C 0.17426 0.60313 0.13791 0.0
C1557 C 0.11477 0.6054 0.15462 0.0
C1558 C 0.1264 0.61206 0.11541 0.0
C1559 C 0.14542 0.61079 0.11062 0.0
C1560 C 0.11872 0.61999 0.07888 0.0
C1561 C 0.0938 0.60563 0.16103 0.0
C1562 C 0.11171 0.60798 0.0406 0.0
C1563 C 0.10311 0.61462 0.00714 0.0
C1564 C 0.10149 0.63352 0.0112 0.0
C1565 C 0.10916 0.64586 0.04919 0.0
C1566 C 0.1177 0.63916 0.08266 0.0
H1567 H 0.08446 0.59562 0.1891 0.0
H1568 H 0.09754 0.62257 0.16679 0.0
H1569 H 0.08339 0.59952 0.1319 0.0
H1570 H 0.11241 0.59316 0.037 0.0
H1571 H 0.09749 0.60477 0.97832 0.0
loop_
_geom_bond_atom_site_label_1
_geom_bond_atom_site_label_2
_geom_bond_distance
_geom_bond_site_symmetry_2
_ccdc_geom_bond_type
O0 Zn1 1.953 . S
O0 C16 1.225 . S
Zn1 O0 1.953 . S
Zn1 O2 1.949 . S
Zn1 O8 1.919 . S
Zn1 O13 1.924 . S
O2 Zn1 1.949 . S
O2 Zn3 1.923 . S
O2 Zn4 1.950 . S
O2 Zn5 1.945 . S
Zn3 O2 1.923 . S
Zn3 O6 1.933 . S
Zn3 O9 1.941 . S
Zn3 O10 1.965 . S
Zn4 O2 1.950 . S
Zn4 O11 1.938 . S
Zn4 O12 1.906 . S
Zn4 O22 1.953 . S
Zn5 O2 1.945 . S
Zn5 O7 1.932 . S
Zn5 O14 1.977 . S
Zn5 O15 1.910 . S
O6 Zn3 1.933 . S
O6 C17 1.226 . S
O7 Zn5 1.932 . S
O7 C17 1.307 . S
O8 Zn1 1.919 . S
O8 C19 1.253 . S
O9 Zn3 1.941 . S
O9 C19 1.283 . S
O10 Zn3 1.965 . S
O10 C18 1.303 . S
O11 Zn4 1.938 . S
O11 C18 1.247 . S
O12 Zn4 1.906 . S
O12 C20 1.304 . S
O13 Zn1 1.924 . S
O13 C21 1.311 . S
O14 Zn5 1.977 . S
O14 C20 1.272 . S
O15 Zn5 1.910 . S
O15 C21 1.231 . S
C16 O0 1.225 . S
C16 O22 1.298 . S
C17 O6 1.226 . S
C17 O7 1.307 . S
C18 O10 1.303 . S
C18 O11 1.247 . S
C19 O8 1.253 . S
C19 O9 1.283 . S
C20 O12 1.304 . S
C20 O14 1.272 . S
C21 O13 1.311 . S
C21 O15 1.231 . S
O22 Zn4 1.953 . S
O22 C16 1.298 . S
O23 Zn24 1.953 . S
O23 C39 1.225 . S
Zn24 O23 1.953 . S
Zn24 O25 1.949 . S
Zn24 O31 1.919 . S
Zn24 O36 1.924 . S
O25 Zn24 1.949 . S
O25 Zn26 1.923 . S
O25 Zn27 1.950 . S
O25 Zn28 1.945 . S
Zn26 O25 1.923 . S
Zn26 O29 1.933 . S
Zn26 O32 1.941 . S
Zn26 O33 1.965 . S
Zn27 O25 1.950 . S
Zn27 O34 1.938 . S
Zn27 O35 1.906 . S
Zn27 O45 1.953 . S
Zn28 O25 1.945 . S
Zn28 O30 1.932 . S
Zn28 O37 1.977 . S
Zn28 O38 1.910 . S
O29 Zn26 1.933 . S
O29 C40 1.226 . S
O30 Zn28 1.932 . S
O30 C40 1.307 . S
O31 Zn24 1.919 . S
O31 C42 1.253 . S
O32 Zn26 1.941 . S
O32 C42 1.283 . S
O33 Zn26 1.965 . S
O33 C41 1.303 . S
O34 Zn27 1.938 . S
O34 C41 1.247 . S
O35 Zn27 1.906 . S
O35 C43 1.304 . S
O36 Zn24 1.924 . S
O36 C44 1.311 . S
O37 Zn28 1.977 . S
O37 C43 1.272 . S
O38 Zn28 1.910 . S
O38 C44 1.231 . S
C39 O23 1.225 . S
C39 O45 1.298 . S
C40 O29 1.226 . S
C40 O30 1.307 . S
C41 O33 1.303 . S
C41 O34 1.247 . S
C42 O31 1.253 . S
C42 O32 1.283 . S
C43 O35 1.304 . S
C43 O37 1.272 . S
C44 O36 1.311 . S
C44 O38 1.231 . S
O45 Zn27 1.953 . S
O45 C39 1.298 . S
O46 Zn47 1.953 . S
O46 C62 1.225 . S
Zn47 O46 1.953 . S
Zn47 O48 1.949 . S
Zn47 O54 1.919 . S
Zn47 O59 1.924 . S
O48 Zn47 1.949 . S
O48 Zn49 1.923 . S
O48 Zn50 1.950 . S
O48 Zn51 1.945 . S
Zn49 O48 1.923 . S
Zn49 O52 1.933 . S
Zn49 O55 1.941 . S
Zn49 O56 1.965 . S
Zn50 O48 1.950 . S
Zn50 O57 1.938 . S
Zn50 O58 1.906 . S
Zn50 O68 1.953 . S
Zn51 O48 1.945 . S
Zn51 O53 1.932 . S
Zn51 O60 1.977 . S
Zn51 O61 1.910 . S
O52 Zn49 1.933 . S
O52 C63 1.226 . S
O53 Zn51 1.932 . S
O53 C63 1.307 . S
O54 Zn47 1.919 . S
O54 C65 1.253 . S
O55 Zn49 1.941 . S
O55 C65 1.283 . S
O56 Zn49 1.965 . S
O56 C64 1.303 . S
O57 Zn50 1.938 . S
O57 C64 1.247 . S
O58 Zn50 1.906 . S
O58 C66 1.304 . S
O59 Zn47 1.924 . S
O59 C67 1.311 . S
O60 Zn51 1.977 . S
O60 C66 1.272 . S
O61 Zn51 1.910 . S
O61 C67 1.231 . S
C62 O46 1.225 . S
C62 O68 1.298 . S
C63 O52 1.226 . S
C63 O53 1.307 . S
C64 O56 1.303 . S
C64 O57 1.247 . S
C65 O54 1.253 . S
C65 O55 1.283 . S
C66 O58 1.304 . S
C66 O60 1.272 . S
C67 O59 1.311 . S
C67 O61 1.231 . S
O68 Zn50 1.953 . S
O68 C62 1.298 . S
O69 Zn70 1.953 . S
O69 C85 1.225 . S
Zn70 O69 1.953 . S
Zn70 O71 1.949 . S
Zn70 O77 1.919 . S
Zn70 O82 1.924 . S
O71 Zn70 1.949 . S
O71 Zn72 1.923 . S
O71 Zn73 1.950 . S
O71 Zn74 1.945 . S
Zn72 O71 1.923 . S
Zn72 O75 1.933 . S
Zn72 O78 1.941 . S
Zn72 O79 1.965 . S
Zn73 O71 1.950 . S
Zn73 O80 1.938 . S
Zn73 O81 1.906 . S
Zn73 O91 1.953 . S
Zn74 O71 1.945 . S
Zn74 O76 1.932 . S
Zn74 O83 1.977 . S
Zn74 O84 1.910 . S
O75 Zn72 1.933 . S
O75 C86 1.226 . S
O76 Zn74 1.932 . S
O76 C86 1.307 . S
O77 Zn70 1.919 . S
O77 C88 1.253 . S
O78 Zn72 1.941 . S
O78 C88 1.283 . S
O79 Zn72 1.965 . S
O79 C87 1.303 . S
O80 Zn73 1.938 . S
O80 C87 1.247 . S
O81 Zn73 1.906 . S
O81 C89 1.304 . S
O82 Zn70 1.924 . S
O82 C90 1.311 . S
O83 Zn74 1.977 . S
O83 C89 1.272 . S
O84 Zn74 1.910 . S
O84 C90 1.231 . S
C85 O69 1.225 . S
C85 O91 1.298 . S
C86 O75 1.226 . S
C86 O76 1.307 . S
C87 O79 1.303 . S
C87 O80 1.247 . S
C88 O77 1.253 . S
C88 O78 1.283 . S
C89 O81 1.304 . S
C89 O83 1.272 . S
C90 O82 1.311 . S
C90 O84 1.231 . S
O91 Zn73 1.953 . S
O91 C85 1.298 . S
O92 Zn93 1.953 . S
O92 C108 1.225 . S
Zn93 O92 1.953 . S
Zn93 O94 1.949 . S
Zn93 O100 1.919 . S
Zn93 O105 1.924 . S
O94 Zn93 1.949 . S
O94 Zn95 1.923 . S
O94 Zn96 1.950 . S
O94 Zn97 1.945 . S
Zn95 O94 1.923 . S
Zn95 O98 1.933 . S
Zn95 O101 1.941 . S
Zn95 O102 1.965 . S
Zn96 O94 1.950 . S
Zn96 O103 1.938 . S
Zn96 O104 1.906 . S
Zn96 O114 1.953 . S
Zn97 O94 1.945 . S
Zn97 O99 1.932 . S
Zn97 O106 1.977 . S
Zn97 O107 1.910 . S
O98 Zn95 1.933 . S
O98 C109 1.226 . S
O99 Zn97 1.932 . S
O99 C109 1.307 . S
O100 Zn93 1.919 . S
O100 C111 1.253 . S
O101 Zn95 1.941 . S
O101 C111 1.283 . S
O102 Zn95 1.965 . S
O102 C110 1.303 . S
O103 Zn96 1.938 . S
O103 C110 1.247 . S
O104 Zn96 1.906 . S
O104 C112 1.304 . S
O105 Zn93 1.924 . S
O105 C113 1.311 . S
O106 Zn97 1.977 . S
O106 C112 1.272 . S
O107 Zn97 1.910 . S
O107 C113 1.231 . S
C108 O92 1.225 . S
C108 O114 1.298 . S
C109 O98 1.226 . S
C109 O99 1.307 . S
C110 O102 1.303 . S
C110 O103 1.247 . S
C111 O100 1.253 . S
C111 O101 1.283 . S
C112 O104 1.304 . S
C112 O106 1.272 . S
C113 O105 1.311 . S
C113 O107 1.231 . S
O114 Zn96 1.953 . S
O114 C108 1.298 . S
O115 Zn116 1.953 . S
O115 C131 1.225 . S
Zn116 O115 1.953 . S
Zn116 O117 1.949 . S
Zn116 O123 1.919 . S
Zn116 O128 1.924 . S
O117 Zn116 1.949 . S
O117 Zn118 1.923 . S
O117 Zn119 1.950 . S
O117 Zn120 1.945 . S
Zn118 O117 1.923 . S
Zn118 O121 1.933 . S
Zn118 O124 1.941 . S
Zn118 O125 1.965 . S
Zn119 O117 1.950 . S
Zn119 O126 1.938 . S
Zn119 O127 1.906 . S
Zn119 O137 1.953 . S
Zn120 O117 1.945 . S
Zn120 O122 1.932 . S
Zn120 O129 1.977 . S
Zn120 O130 1.910 . S
O121 Zn118 1.933 . S
O121 C132 1.226 . S
O122 Zn120 1.932 . S
O122 C132 1.307 . S
O123 Zn116 1.919 . S
O123 C134 1.253 . S
O124 Zn118 1.941 . S
O124 C134 1.283 . S
O125 Zn118 1.965 . S
O125 C133 1.303 . S
O126 Zn119 1.938 . S
O126 C133 1.247 . S
O127 Zn119 1.906 . S
O127 C135 1.304 . S
O128 Zn116 1.924 . S
O128 C136 1.311 . S
O129 Zn120 1.977 . S
O129 C135 1.272 . S
O130 Zn120 1.910 . S
O130 C136 1.231 . S
C131 O115 1.225 . S
C131 O137 1.298 . S
C132 O121 1.226 . S
C132 O122 1.307 . S
C133 O125 1.303 . S
C133 O126 1.247 . S
C134 O123 1.253 . S
C134 O124 1.283 . S
C135 O127 1.304 . S
C135 O129 1.272 . S
C136 O128 1.311 . S
C136 O130 1.231 . S
O137 Zn119 1.953 . S
O137 C131 1.298 . S
O138 Zn139 1.953 . S
O138 C154 1.225 . S
Zn139 O138 1.953 . S
Zn139 O140 1.949 . S
Zn139 O146 1.919 . S
Zn139 O151 1.924 . S
O140 Zn139 1.949 . S
O140 Zn141 1.923 . S
O140 Zn142 1.950 . S
O140 Zn143 1.945 . S
Zn141 O140 1.923 . S
Zn141 O144 1.933 . S
Zn141 O147 1.941 . S
Zn141 O148 1.965 . S
Zn142 O140 1.950 . S
Zn142 O149 1.938 . S
Zn142 O150 1.906 . S
Zn142 O160 1.953 . S
Zn143 O140 1.945 . S
Zn143 O145 1.932 . S
Zn143 O152 1.977 . S
Zn143 O153 1.910 . S
O144 Zn141 1.933 . S
O144 C155 1.226 . S
O145 Zn143 1.932 . S
O145 C155 1.307 . S
O146 Zn139 1.919 . S
O146 C157 1.253 . S
O147 Zn141 1.941 . S
O147 C157 1.283 . S
O148 Zn141 1.965 . S
O148 C156 1.303 . S
O149 Zn142 1.938 . S
O149 C156 1.247 . S
O150 Zn142 1.906 . S
O150 C158 1.304 . S
O151 Zn139 1.924 . S
O151 C159 1.311 . S
O152 Zn143 1.977 . S
O152 C158 1.272 . S
O153 Zn143 1.910 . S
O153 C159 1.231 . S
C154 O138 1.225 . S
C154 O160 1.298 . S
C155 O144 1.226 . S
C155 O145 1.307 . S
C156 O148 1.303 . S
C156 O149 1.247 . S
C157 O146 1.253 . S
C157 O147 1.283 . S
C158 O150 1.304 . S
C158 O152 1.272 . S
C159 O151 1.311 . S
C159 O153 1.231 . S
O160 Zn142 1.953 . S
O160 C154 1.298 . S
O161 Zn162 1.953 . S
O161 C177 1.225 . S
Zn162 O161 1.953 . S
Zn162 O163 1.949 . S
Zn162 O169 1.919 . S
Zn162 O174 1.924 . S
O163 Zn162 1.949 . S
O163 Zn164 1.923 . S
O163 Zn165 1.950 . S
O163 Zn166 1.945 . S
Zn164 O163 1.923 . S
Zn164 O167 1.933 . S
Zn164 O170 1.941 . S
Zn164 O171 1.965 . S
Zn165 O163 1.950 . S
Zn165 O172 1.938 . S
Zn165 O173 1.906 . S
Zn165 O183 1.953 . S
Zn166 O163 1.945 . S
Zn166 O168 1.932 . S
Zn166 O175 1.977 . S
Zn166 O176 1.910 . S
O167 Zn164 1.933 . S
O167 C178 1.226 . S
O168 Zn166 1.932 . S
O168 C178 1.307 . S
O169 Zn162 1.919 . S
O169 C180 1.253 . S
O170 Zn164 1.941 . S
O170 C180 1.283 . S
O171 Zn164 1.965 . S
O171 C179 1.303 . S
O172 Zn165 1.938 . S
O172 C179 1.247 . S
O173 Zn165 1.906 . S
O173 C181 1.304 . S
O174 Zn162 1.924 . S
O174 C182 1.311 . S
O175 Zn166 1.977 . S
O175 C181 1.272 . S
O176 Zn166 1.910 . S
O176 C182 1.231 . S
C177 O161 1.225 . S
C177 O183 1.298 . S
C178 O167 1.226 . S
C178 O168 1.307 . S
C179 O171 1.303 . S
C179 O172 1.247 . S
C180 O169 1.253 . S
C180 O170 1.283 . S
C181 O173 1.304 . S
C181 O175 1.272 . S
C182 O174 1.311 . S
C182 O176 1.231 . S
O183 Zn165 1.953 . S
O183 C177 1.298 . S
O184 Zn185 1.953 . S
O184 C200 1.225 . S
Zn185 O184 1.953 . S
Zn185 O186 1.949 . S
Zn185 O192 1.919 . S
Zn185 O197 1.924 . S
O186 Zn185 1.949 . S
O186 Zn187 1.923 . S
O186 Zn188 1.950 . S
O186 Zn189 1.945 . S
Zn187 O186 1.923 . S
Zn187 O190 1.933 . S
Zn187 O193 1.941 . S
Zn187 O194 1.965 . S
Zn188 O186 1.950 . S
Zn188 O195 1.938 . S
Zn188 O196 1.906 . S
Zn188 O206 1.953 . S
Zn189 O186 1.945 . S
Zn189 O191 1.932 . S
Zn189 O198 1.977 . S
Zn189 O199 1.910 . S
O190 Zn187 1.933 . S
O190 C201 1.226 . S
O191 Zn189 1.932 . S
O191 C201 1.307 . S
O192 Zn185 1.919 . S
O192 C203 1.253 . S
O193 Zn187 1.941 . S
O193 C203 1.283 . S
O194 Zn187 1.965 . S
O194 C202 1.303 . S
O195 Zn188 1.938 . S
O195 C202 1.247 . S
O196 Zn188 1.906 . S
O196 C204 1.304 . S
O197 Zn185 1.924 . S
O197 C205 1.311 . S
O198 Zn189 1.977 . S
O198 C204 1.272 . S
O199 Zn189 1.910 . S
O199 C205 1.231 . S
C200 O184 1.225 . S
C200 O206 1.298 . S
C201 O190 1.226 . S
C201 O191 1.307 . S
C202 O194 1.303 . S
C202 O195 1.247 . S
C203 O192 1.253 . S
C203 O193 1.283 . S
C204 O196 1.304 . S
C204 O198 1.272 . S
C205 O197 1.311 . S
C205 O199 1.231 . S
O206 Zn188 1.953 . S
O206 C200 1.298 . S
O207 Zn208 1.953 . S
O207 C223 1.225 . S
Zn208 O207 1.953 . S
Zn208 O209 1.949 . S
Zn208 O215 1.919 . S
Zn208 O220 1.924 . S
O209 Zn208 1.949 . S
O209 Zn210 1.923 . S
O209 Zn211 1.950 . S
O209 Zn212 1.945 . S
Zn210 O209 1.923 . S
Zn210 O213 1.933 . S
Zn210 O216 1.941 . S
Zn210 O217 1.965 . S
Zn211 O209 1.950 . S
Zn211 O218 1.938 . S
Zn211 O219 1.906 . S
Zn211 O229 1.953 . S
Zn212 O209 1.945 . S
Zn212 O214 1.932 . S
Zn212 O221 1.977 . S
Zn212 O222 1.910 . S
O213 Zn210 1.933 . S
O213 C224 1.226 . S
O214 Zn212 1.932 . S
O214 C224 1.307 . S
O215 Zn208 1.919 . S
O215 C226 1.253 . S
O216 Zn210 1.941 . S
O216 C226 1.283 . S
O217 Zn210 1.965 . S
O217 C225 1.303 . S
O218 Zn211 1.938 . S
O218 C225 1.247 . S
O219 Zn211 1.906 . S
O219 C227 1.304 . S
O220 Zn208 1.924 . S
O220 C228 1.311 . S
O221 Zn212 1.977 . S
O221 C227 1.272 . S
O222 Zn212 1.910 . S
O222 C228 1.231 . S
C223 O207 1.225 . S
C223 O229 1.298 . S
C224 O213 1.226 . S
C224 O214 1.307 . S
C225 O217 1.303 . S
C225 O218 1.247 . S
C226 O215 1.253 . S
C226 O216 1.283 . S
C227 O219 1.304 . S
C227 O221 1.272 . S
C228 O220 1.311 . S
C228 O222 1.231 . S
O229 Zn211 1.953 . S
O229 C223 1.298 . S
O230 Zn231 1.953 . S
O230 C246 1.225 . S
Zn231 O230 1.953 . S
Zn231 O232 1.949 . S
Zn231 O238 1.919 . S
Zn231 O243 1.924 . S
O232 Zn231 1.949 . S
O232 Zn233 1.923 . S
O232 Zn234 1.950 . S
O232 Zn235 1.945 . S
Zn233 O232 1.923 . S
Zn233 O236 1.933 . S
Zn233 O239 1.941 . S
Zn233 O240 1.965 . S
Zn234 O232 1.950 . S
Zn234 O241 1.938 . S
Zn234 O242 1.906 . S
Zn234 O252 1.953 . S
Zn235 O232 1.945 . S
Zn235 O237 1.932 . S
Zn235 O244 1.977 . S
Zn235 O245 1.910 . S
O236 Zn233 1.933 . S
O236 C247 1.226 . S
O237 Zn235 1.932 . S
O237 C247 1.307 . S
O238 Zn231 1.919 . S
O238 C249 1.253 . S
O239 Zn233 1.941 . S
O239 C249 1.283 . S
O240 Zn233 1.965 . S
O240 C248 1.303 . S
O241 Zn234 1.938 . S
O241 C248 1.247 . S
O242 Zn234 1.906 . S
O242 C250 1.304 . S
O243 Zn231 1.924 . S
O243 C251 1.311 . S
O244 Zn235 1.977 . S
O244 C250 1.272 . S
O245 Zn235 1.910 . S
O245 C251 1.231 . S
C246 O230 1.225 . S
C246 O252 1.298 . S
C247 O236 1.226 . S
C247 O237 1.307 . S
C248 O240 1.303 . S
C248 O241 1.247 . S
C249 O238 1.253 . S
C249 O239 1.283 . S
C250 O242 1.304 . S
C250 O244 1.272 . S
C251 O243 1.311 . S
C251 O245 1.231 . S
O252 Zn234 1.953 . S
O252 C246 1.298 . S
O253 Zn254 1.953 . S
O253 C269 1.225 . S
Zn254 O253 1.953 . S
Zn254 O255 1.949 . S
Zn254 O261 1.919 . S
Zn254 O266 1.924 . S
O255 Zn254 1.949 . S
O255 Zn256 1.923 . S
O255 Zn257 1.950 . S
O255 Zn258 1.945 . S
Zn256 O255 1.923 . S
Zn256 O259 1.933 . S
Zn256 O262 1.941 . S
Zn256 O263 1.965 . S
Zn257 O255 1.950 . S
Zn257 O264 1.938 . S
Zn257 O265 1.906 . S
Zn257 O275 1.953 . S
Zn258 O255 1.945 . S
Zn258 O260 1.932 . S
Zn258 O267 1.977 . S
Zn258 O268 1.910 . S
O259 Zn256 1.933 . S
O259 C270 1.226 . S
O260 Zn258 1.932 . S
O260 C270 1.307 . S
O261 Zn254 1.919 . S
O261 C272 1.253 . S
O262 Zn256 1.941 . S
O262 C272 1.283 . S
O263 Zn256 1.965 . S
O263 C271 1.303 . S
O264 Zn257 1.938 . S
O264 C271 1.247 . S
O265 Zn257 1.906 . S
O265 C273 1.304 . S
O266 Zn254 1.924 . S
O266 C274 1.311 . S
O267 Zn258 1.977 . S
O267 C273 1.272 . S
O268 Zn258 1.910 . S
O268 C274 1.231 . S
C269 O253 1.225 . S
C269 O275 1.298 . S
C270 O259 1.226 . S
C270 O260 1.307 . S
C271 O263 1.303 . S
C271 O264 1.247 . S
C272 O261 1.253 . S
C272 O262 1.283 . S
C273 O265 1.304 . S
C273 O267 1.272 . S
C274 O266 1.311 . S
C274 O268 1.231 . S
O275 Zn257 1.953 . S
O275 C269 1.298 . S
H276 C284 0.929 . S
H277 C286 0.930 . S
H278 C288 0.930 . S
H279 C291 0.929 . S
H280 C294 0.930 . S
H281 C296 0.960 . S
H282 C296 0.960 . S
H283 C296 0.960 . S
C284 H276 0.929 . S
C284 C285 1.377 . S
C284 C286 1.384 . S
C285 C284 1.377 . S
C285 C291 1.390 . S
C286 H277 0.930 . S
C286 C284 1.384 . S
C286 C287 1.372 . S
C287 C286 1.372 . S
C287 C288 1.400 . S
C287 C292 1.490 . S
C288 H278 0.930 . S
C288 C287 1.400 . S
C288 C291 1.386 . S
H289 C305 0.930 . S
H290 C306 0.931 . S
C291 H279 0.929 . S
C291 C285 1.390 . S
C291 C288 1.386 . S
C292 C287 1.490 . S
C292 C294 1.395 . S
C292 C295 1.403 . S
H293 C299 0.930 . S
C294 H280 0.930 . S
C294 C292 1.395 . S
C294 C297 1.403 . S
C295 C292 1.403 . S
C295 C296 1.524 . S
C295 C299 1.400 . S
C296 H281 0.960 . S
C296 H282 0.960 . S
C296 H283 0.960 . S
C296 C295 1.524 . S
C297 C294 1.403 . S
C297 C298 1.392 . S
C297 C301 1.495 . S
C298 C297 1.392 . S
C298 C299 1.385 . S
C298 C300 1.478 . S
C299 H293 0.930 . S
C299 C295 1.400 . S
C299 C298 1.385 . S
C300 C298 1.478 . S
C300 C302 1.381 . S
C300 C306 1.383 . S
C301 C297 1.495 . S
C301 H307 0.959 . S
C301 H308 0.961 . S
C301 H309 0.960 . S
C302 C300 1.381 . S
C302 C303 1.394 . S
C302 H310 0.930 . S
C303 C302 1.394 . S
C303 C304 1.383 . S
C303 H311 0.929 . S
C304 C303 1.383 . S
C304 C305 1.377 . S
C305 H289 0.930 . S
C305 C304 1.377 . S
C305 C306 1.379 . S
C306 H290 0.931 . S
C306 C300 1.383 . S
C306 C305 1.379 . S
H307 C301 0.959 . S
H308 C301 0.961 . S
H309 C301 0.960 . S
H310 C302 0.930 . S
H311 C303 0.929 . S
H312 C320 0.929 . S
H313 C322 0.930 . S
H314 C324 0.930 . S
H315 C327 0.929 . S
H316 C330 0.930 . S
H317 C332 0.960 . S
H318 C332 0.960 . S
H319 C332 0.960 . S
C320 H312 0.929 . S
C320 C321 1.377 . S
C320 C322 1.384 . S
C321 C320 1.377 . S
C321 C327 1.390 . S
C322 H313 0.930 . S
C322 C320 1.384 . S
C322 C323 1.372 . S
C323 C322 1.372 . S
C323 C324 1.400 . S
C323 C328 1.490 . S
C324 H314 0.930 . S
C324 C323 1.400 . S
C324 C327 1.386 . S
H325 C341 0.930 . S
H326 C342 0.931 . S
C327 H315 0.929 . S
C327 C321 1.390 . S
C327 C324 1.386 . S
C328 C323 1.490 . S
C328 C330 1.395 . S
C328 C331 1.403 . S
H329 C335 0.930 . S
C330 H316 0.930 . S
C330 C328 1.395 . S
C330 C333 1.403 . S
C331 C328 1.403 . S
C331 C332 1.524 . S
C331 C335 1.400 . S
C332 H317 0.960 . S
C332 H318 0.960 . S
C332 H319 0.960 . S
C332 C331 1.524 . S
C333 C330 1.403 . S
C333 C334 1.392 . S
C333 C337 1.495 . S
C334 C333 1.392 . S
C334 C335 1.385 . S
C334 C336 1.478 . S
C335 H329 0.930 . S
C335 C331 1.400 . S
C335 C334 1.385 . S
C336 C334 1.478 . S
C336 C338 1.381 . S
C336 C342 1.383 . S
C337 C333 1.495 . S
C337 H343 0.959 . S
C337 H344 0.961 . S
C337 H345 0.960 . S
C338 C336 1.381 . S
C338 C339 1.394 . S
C338 H346 0.930 . S
C339 C338 1.394 . S
C339 C340 1.383 . S
C339 H347 0.929 . S
C340 C339 1.383 . S
C340 C341 1.377 . S
C341 H325 0.930 . S
C341 C340 1.377 . S
C341 C342 1.379 . S
C342 H326 0.931 . S
C342 C336 1.383 . S
C342 C341 1.379 . S
H343 C337 0.959 . S
H344 C337 0.961 . S
H345 C337 0.960 . S
H346 C338 0.930 . S
H347 C339 0.929 . S
H348 C356 0.929 . S
H349 C358 0.930 . S
H350 C360 0.930 . S
H351 C363 0.929 . S
H352 C366 0.930 . S
H353 C368 0.960 . S
H354 C368 0.960 . S
H355 C368 0.960 . S
C356 H348 0.929 . S
C356 C357 1.377 . S
C356 C358 1.384 . S
C357 C356 1.377 . S
C357 C363 1.390 . S
C358 H349 0.930 . S
C358 C356 1.384 . S
C358 C359 1.372 . S
C359 C358 1.372 . S
C359 C360 1.400 . S
C359 C364 1.490 . S
C360 H350 0.930 . S
C360 C359 1.400 . S
C360 C363 1.386 . S
H361 C377 0.930 . S
H362 C378 0.931 . S
C363 H351 0.929 . S
C363 C357 1.390 . S
C363 C360 1.386 . S
C364 C359 1.490 . S
C364 C366 1.395 . S
C364 C367 1.403 . S
H365 C371 0.930 . S
C366 H352 0.930 . S
C366 C364 1.395 . S
C366 C369 1.403 . S
C367 C364 1.403 . S
C367 C368 1.524 . S
C367 C371 1.400 . S
C368 H353 0.960 . S
C368 H354 0.960 . S
C368 H355 0.960 . S
C368 C367 1.524 . S
C369 C366 1.403 . S
C369 C370 1.392 . S
C369 C373 1.495 . S
C370 C369 1.392 . S
C370 C371 1.385 . S
C370 C372 1.478 . S
C371 H365 0.930 . S
C371 C367 1.400 . S
C371 C370 1.385 . S
C372 C370 1.478 . S
C372 C374 1.381 . S
C372 C378 1.383 . S
C373 C369 1.495 . S
C373 H379 0.959 . S
C373 H380 0.961 . S
C373 H381 0.960 . S
C374 C372 1.381 . S
C374 C375 1.394 . S
C374 H382 0.930 . S
C375 C374 1.394 . S
C375 C376 1.383 . S
C375 H383 0.929 . S
C376 C375 1.383 . S
C376 C377 1.377 . S
C377 H361 0.930 . S
C377 C376 1.377 . S
C377 C378 1.379 . S
C378 H362 0.931 . S
C378 C372 1.383 . S
C378 C377 1.379 . S
H379 C373 0.959 . S
H380 C373 0.961 . S
H381 C373 0.960 . S
H382 C374 0.930 . S
H383 C375 0.929 . S
H384 C392 0.929 . S
H385 C394 0.930 . S
H386 C396 0.930 . S
H387 C399 0.929 . S
H388 C402 0.930 . S
H389 C404 0.960 . S
H390 C404 0.960 . S
H391 C404 0.960 . S
C392 H384 0.929 . S
C392 C393 1.377 . S
C392 C394 1.384 . S
C393 C392 1.377 . S
C393 C399 1.390 . S
C394 H385 0.930 . S
C394 C392 1.384 . S
C394 C395 1.372 . S
C395 C394 1.372 . S
C395 C396 1.400 . S
C395 C400 1.490 . S
C396 H386 0.930 . S
C396 C395 1.400 . S
C396 C399 1.386 . S
H397 C413 0.930 . S
H398 C414 0.931 . S
C399 H387 0.929 . S
C399 C393 1.390 . S
C399 C396 1.386 . S
C400 C395 1.490 . S
C400 C402 1.395 . S
C400 C403 1.403 . S
H401 C407 0.930 . S
C402 H388 0.930 . S
C402 C400 1.395 . S
C402 C405 1.403 . S
C403 C400 1.403 . S
C403 C404 1.524 . S
C403 C407 1.400 . S
C404 H389 0.960 . S
C404 H390 0.960 . S
C404 H391 0.960 . S
C404 C403 1.524 . S
C405 C402 1.403 . S
C405 C406 1.392 . S
C405 C409 1.495 . S
C406 C405 1.392 . S
C406 C407 1.385 . S
C406 C408 1.478 . S
C407 H401 0.930 . S
C407 C403 1.400 . S
C407 C406 1.385 . S
C408 C406 1.478 . S
C408 C410 1.381 . S
C408 C414 1.383 . S
C409 C405 1.495 . S
C409 H415 0.959 . S
C409 H416 0.961 . S
C409 H417 0.960 . S
C410 C408 1.381 . S
C410 C411 1.394 . S
C410 H418 0.930 . S
C411 C410 1.394 . S
C411 C412 1.383 . S
C411 H419 0.929 . S
C412 C411 1.383 . S
C412 C413 1.377 . S
C413 H397 0.930 . S
C413 C412 1.377 . S
C413 C414 1.379 . S
C414 H398 0.931 . S
C414 C408 1.383 . S
C414 C413 1.379 . S
H415 C409 0.959 . S
H416 C409 0.961 . S
H417 C409 0.960 . S
H418 C410 0.930 . S
H419 C411 0.929 . S
H420 C428 0.929 . S
H421 C430 0.930 . S
H422 C432 0.930 . S
H423 C435 0.929 . S
H424 C438 0.930 . S
H425 C440 0.960 . S
H426 C440 0.960 . S
H427 C440 0.960 . S
C428 H420 0.929 . S
C428 C429 1.377 . S
C428 C430 1.384 . S
C429 C428 1.377 . S
C429 C435 1.390 . S
C430 H421 0.930 . S
C430 C428 1.384 . S
C430 C431 1.372 . S
C431 C430 1.372 . S
C431 C432 1.400 . S
C431 C436 1.490 . S
C432 H422 0.930 . S
C432 C431 1.400 . S
C432 C435 1.386 . S
H433 C449 0.930 . S
H434 C450 0.931 . S
C435 H423 0.929 . S
C435 C429 1.390 . S
C435 C432 1.386 . S
C436 C431 1.490 . S
C436 C438 1.395 . S
C436 C439 1.403 . S
H437 C443 0.930 . S
C438 H424 0.930 . S
C438 C436 1.395 . S
C438 C441 1.403 . S
C439 C436 1.403 . S
C439 C440 1.524 . S
C439 C443 1.400 . S
C440 H425 0.960 . S
C440 H426 0.960 . S
C440 H427 0.960 . S
C440 C439 1.524 . S
C441 C438 1.403 . S
C441 C442 1.392 . S
C441 C445 1.495 . S
C442 C441 1.392 . S
C442 C443 1.385 . S
C442 C444 1.478 . S
C443 H437 0.930 . S
C443 C439 1.400 . S
C443 C442 1.385 . S
C444 C442 1.478 . S
C444 C446 1.381 . S
C444 C450 1.383 . S
C445 C441 1.495 . S
C445 H451 0.959 . S
C445 H452 0.961 . S
C445 H453 0.960 . S
C446 C444 1.381 . S
C446 C447 1.394 . S
C446 H454 0.930 . S
C447 C446 1.394 . S
C447 C448 1.383 . S
C447 H455 0.929 . S
C448 C447 1.383 . S
C448 C449 1.377 . S
C449 H433 0.930 . S
C449 C448 1.377 . S
C449 C450 1.379 . S
C450 H434 0.931 . S
C450 C444 1.383 . S
C450 C449 1.379 . S
H451 C445 0.959 . S
H452 C445 0.961 . S
H453 C445 0.960 . S
H454 C446 0.930 . S
H455 C447 0.929 . S
H456 C464 0.929 . S
H457 C466 0.930 . S
H458 C468 0.930 . S
H459 C471 0.929 . S
H460 C474 0.930 . S
H461 C476 0.960 . S
H462 C476 0.960 . S
H463 C476 0.960 . S
C464 H456 0.929 . S
C464 C465 1.377 . S
C464 C466 1.384 . S
C465 C464 1.377 . S
C465 C471 1.390 . S
C466 H457 0.930 . S
C466 C464 1.384 . S
C466 C467 1.372 . S
C467 C466 1.372 . S
C467 C468 1.400 . S
C467 C472 1.490 . S
C468 H458 0.930 . S
C468 C467 1.400 . S
C468 C471 1.386 . S
H469 C485 0.930 . S
H470 C486 0.931 . S
C471 H459 0.929 . S
C471 C465 1.390 . S
C471 C468 1.386 . S
C472 C467 1.490 . S
C472 C474 1.395 . S
C472 C475 1.403 . S
H473 C479 0.930 . S
C474 H460 0.930 . S
C474 C472 1.395 . S
C474 C477 1.403 . S
C475 C472 1.403 . S
C475 C476 1.524 . S
C475 C479 1.400 . S
C476 H461 0.960 . S
C476 H462 0.960 . S
C476 H463 0.960 . S
C476 C475 1.524 . S
C477 C474 1.403 . S
C477 C478 1.392 . S
C477 C481 1.495 . S
C478 C477 1.392 . S
C478 C479 1.385 . S
C478 C480 1.478 . S
C479 H473 0.930 . S
C479 C475 1.400 . S
C479 C478 1.385 . S
C480 C478 1.478 . S
C480 C482 1.381 . S
C480 C486 1.383 . S
C481 C477 1.495 . S
C481 H487 0.959 . S
C481 H488 0.961 . S
C481 H489 0.960 . S
C482 C480 1.381 . S
C482 C483 1.394 . S
C482 H490 0.930 . S
C483 C482 1.394 . S
C483 C484 1.383 . S
C483 H491 0.929 . S
C484 C483 1.383 . S
C484 C485 1.377 . S
C485 H469 0.930 . S
C485 C484 1.377 . S
C485 C486 1.379 . S
C486 H470 0.931 . S
C486 C480 1.383 . S
C486 C485 1.379 . S
H487 C481 0.959 . S
H488 C481 0.961 . S
H489 C481 0.960 . S
H490 C482 0.930 . S
H491 C483 0.929 . S
H492 C500 0.929 . S
H493 C502 0.930 . S
H494 C504 0.930 . S
H495 C507 0.929 . S
H496 C510 0.930 . S
H497 C512 0.960 . S
H498 C512 0.960 . S
H499 C512 0.960 . S
C500 H492 0.929 . S
C500 C501 1.377 . S
C500 C502 1.384 . S
C501 C500 1.377 . S
C501 C507 1.390 . S
C502 H493 0.930 . S
C502 C500 1.384 . S
C502 C503 1.372 . S
C503 C502 1.372 . S
C503 C504 1.400 . S
C503 C508 1.490 . S
C504 H494 0.930 . S
C504 C503 1.400 . S
C504 C507 1.386 . S
H505 C521 0.930 . S
H506 C522 0.931 . S
C507 H495 0.929 . S
C507 C501 1.390 . S
C507 C504 1.386 . S
C508 C503 1.490 . S
C508 C510 1.395 1_556 S
C508 C511 1.403 . S
H509 C515 0.932 . S
C510 H496 0.930 . S
C510 C508 1.395 1_554 S
C510 C513 1.403 . S
C511 C508 1.403 . S
C511 C512 1.524 . S
C511 C515 1.418 . S
C512 H497 0.960 . S
C512 H498 0.960 . S
C512 H499 0.960 . S
C512 C511 1.524 . S
C513 C510 1.403 . S
C513 C514 1.392 . S
C513 C517 1.495 . S
C514 C513 1.392 . S
C514 C515 1.365 1_554 S
C514 C516 1.478 . S
C515 H509 0.932 . S
C515 C511 1.418 . S
C515 C514 1.365 1_556 S
C516 C514 1.478 . S
C516 C518 1.381 . S
C516 C522 1.383 . S
C517 C513 1.495 . S
C517 H523 0.959 . S
C517 H524 0.961 . S
C517 H525 0.960 . S
C518 C516 1.381 . S
C518 C519 1.394 . S
C518 H526 0.930 . S
C519 C518 1.394 . S
C519 C520 1.383 . S
C519 H527 0.929 . S
C520 C519 1.383 . S
C520 C521 1.377 . S
C521 H505 0.930 . S
C521 C520 1.377 . S
C521 C522 1.379 . S
C522 H506 0.931 . S
C522 C516 1.383 . S
C522 C521 1.379 . S
H523 C517 0.959 . S
H524 C517 0.961 . S
H525 C517 0.960 . S
H526 C518 0.930 . S
H527 C519 0.929 . S
H528 C536 0.929 . S
H529 C538 0.930 . S
H530 C540 0.930 . S
H531 C543 0.929 . S
H532 C546 0.930 . S
H533 C548 0.960 . S
H534 C548 0.960 . S
H535 C548 0.960 . S
C536 H528 0.929 . S
C536 C537 1.377 . S
C536 C538 1.384 . S
C537 C536 1.377 . S
C537 C543 1.390 . S
C538 H529 0.930 . S
C538 C536 1.384 . S
C538 C539 1.372 . S
C539 C538 1.372 . S
C539 C540 1.400 . S
C539 C544 1.490 . S
C540 H530 0.930 . S
C540 C539 1.400 . S
C540 C543 1.386 . S
H541 C557 0.930 . S
H542 C558 0.931 . S
C543 H531 0.929 . S
C543 C537 1.390 . S
C543 C540 1.386 . S
C544 C539 1.490 . S
C544 C546 1.395 . S
C544 C547 1.403 . S
H545 C551 0.930 . S
C546 H532 0.930 . S
C546 C544 1.395 . S
C546 C549 1.403 . S
C547 C544 1.403 . S
C547 C548 1.524 . S
C547 C551 1.400 . S
C548 H533 0.960 . S
C548 H534 0.960 . S
C548 H535 0.960 . S
C548 C547 1.524 . S
C549 C546 1.403 . S
C549 C550 1.392 . S
C549 C553 1.495 . S
C550 C549 1.392 . S
C550 C551 1.385 . S
C550 C552 1.478 . S
C551 H545 0.930 . S
C551 C547 1.400 . S
C551 C550 1.385 . S
C552 C550 1.478 . S
C552 C554 1.381 . S
C552 C558 1.383 . S
C553 C549 1.495 . S
C553 H559 0.959 . S
C553 H560 0.961 . S
C553 H561 0.960 . S
C554 C552 1.381 . S
C554 C555 1.394 . S
C554 H562 0.930 . S
C555 C554 1.394 . S
C555 C556 1.383 . S
C555 H563 0.929 . S
C556 C555 1.383 . S
C556 C557 1.377 . S
C557 H541 0.930 . S
C557 C556 1.377 . S
C557 C558 1.379 . S
C558 H542 0.931 . S
C558 C552 1.383 . S
C558 C557 1.379 . S
H559 C553 0.959 . S
H560 C553 0.961 . S
H561 C553 0.960 . S
H562 C554 0.930 . S
H563 C555 0.929 . S
H564 C572 0.929 . S
H565 C574 0.930 . S
H566 C576 0.930 . S
H567 C579 0.929 . S
H568 C582 0.930 . S
H569 C584 0.960 . S
H570 C584 0.960 . S
H571 C584 0.960 . S
C572 H564 0.929 . S
C572 C573 1.377 . S
C572 C574 1.384 . S
C573 C572 1.377 . S
C573 C579 1.390 . S
C574 H565 0.930 . S
C574 C572 1.384 . S
C574 C575 1.372 . S
C575 C574 1.372 . S
C575 C576 1.400 . S
C575 C580 1.490 . S
C576 H566 0.930 . S
C576 C575 1.400 . S
C576 C579 1.386 . S
H577 C593 0.930 . S
H578 C594 0.931 . S
C579 H567 0.929 . S
C579 C573 1.390 . S
C579 C576 1.386 . S
C580 C575 1.490 . S
C580 C582 1.395 . S
C580 C583 1.403 . S
H581 C587 0.930 . S
C582 H568 0.930 . S
C582 C580 1.395 . S
C582 C585 1.403 . S
C583 C580 1.403 . S
C583 C584 1.524 . S
C583 C587 1.400 . S
C584 H569 0.960 . S
C584 H570 0.960 . S
C584 H571 0.960 . S
C584 C583 1.524 . S
C585 C582 1.403 . S
C585 C586 1.392 . S
C585 C589 1.495 . S
C586 C585 1.392 . S
C586 C587 1.385 . S
C586 C588 1.478 . S
C587 H581 0.930 . S
C587 C583 1.400 . S
C587 C586 1.385 . S
C588 C586 1.478 . S
C588 C590 1.381 . S
C588 C594 1.383 . S
C589 C585 1.495 . S
C589 H595 0.959 . S
C589 H596 0.961 . S
C589 H597 0.960 . S
C590 C588 1.381 . S
C590 C591 1.394 . S
C590 H598 0.930 . S
C591 C590 1.394 . S
C591 C592 1.383 . S
C591 H599 0.929 . S
C592 C591 1.383 . S
C592 C593 1.377 . S
C593 H577 0.930 . S
C593 C592 1.377 . S
C593 C594 1.379 . S
C594 H578 0.931 . S
C594 C588 1.383 . S
C594 C593 1.379 . S
H595 C589 0.959 . S
H596 C589 0.961 . S
H597 C589 0.960 . S
H598 C590 0.930 . S
H599 C591 0.929 . S
H600 C608 0.929 . S
H601 C610 0.930 . S
H602 C612 0.930 . S
H603 C615 0.929 . S
H604 C618 0.930 . S
H605 C620 0.960 . S
H606 C620 0.960 . S
H607 C620 0.960 . S
C608 H600 0.929 . S
C608 C609 1.377 . S
C608 C610 1.384 . S
C609 C608 1.377 . S
C609 C615 1.390 . S
C610 H601 0.930 . S
C610 C608 1.384 . S
C610 C611 1.372 . S
C611 C610 1.372 . S
C611 C612 1.400 . S
C611 C616 1.490 . S
C612 H602 0.930 . S
C612 C611 1.400 . S
C612 C615 1.386 . S
H613 C629 0.930 . S
H614 C630 0.931 . S
C615 H603 0.929 . S
C615 C609 1.390 . S
C615 C612 1.386 . S
C616 C611 1.490 . S
C616 C618 1.395 . S
C616 C619 1.403 1_556 S
H617 C623 0.930 . S
C618 H604 0.930 . S
C618 C616 1.395 . S
C618 C621 1.403 . S
C619 C616 1.403 1_554 S
C619 C620 1.524 . S
C619 C623 1.400 . S
C620 H605 0.960 . S
C620 H606 0.960 . S
C620 H607 0.960 . S
C620 C619 1.524 . S
C621 C618 1.403 . S
C621 C622 1.392 1_556 S
C621 C625 1.495 . S
C622 C621 1.392 1_554 S
C622 C623 1.385 . S
C622 C624 1.478 . S
C623 H617 0.930 . S
C623 C619 1.400 . S
C623 C622 1.385 . S
C624 C622 1.478 . S
C624 C626 1.381 . S
C624 C630 1.383 . S
C625 C621 1.495 . S
C625 H631 0.959 . S
C625 H632 0.961 . S
C625 H633 0.960 . S
C626 C624 1.381 . S
C626 C627 1.394 . S
C626 H634 0.930 . S
C627 C626 1.394 . S
C627 C628 1.383 . S
C627 H635 0.929 . S
C628 C627 1.383 . S
C628 C629 1.377 . S
C629 H613 0.930 . S
C629 C628 1.377 . S
C629 C630 1.379 . S
C630 H614 0.931 . S
C630 C624 1.383 . S
C630 C629 1.379 . S
H631 C625 0.959 . S
H632 C625 0.961 . S
H633 C625 0.960 . S
H634 C626 0.930 . S
H635 C627 0.929 . S
H636 C644 0.929 . S
H637 C646 0.930 . S
H638 C648 0.930 . S
H639 C651 0.929 . S
H640 C654 0.930 . S
H641 C656 0.960 . S
H642 C656 0.960 . S
H643 C656 0.960 . S
C644 H636 0.929 . S
C644 C645 1.377 . S
C644 C646 1.384 . S
C645 C644 1.377 . S
C645 C651 1.390 . S
C646 H637 0.930 . S
C646 C644 1.384 . S
C646 C647 1.372 . S
C647 C646 1.372 . S
C647 C648 1.400 . S
C647 C652 1.490 . S
C648 H638 0.930 . S
C648 C647 1.400 . S
C648 C651 1.386 . S
H649 C665 0.930 . S
H650 C666 0.931 . S
C651 H639 0.929 . S
C651 C645 1.390 . S
C651 C648 1.386 . S
C652 C647 1.490 . S
C652 C654 1.395 . S
C652 C655 1.403 . S
H653 C659 0.930 . S
C654 H640 0.930 . S
C654 C652 1.395 . S
C654 C657 1.403 . S
C655 C652 1.403 . S
C655 C656 1.524 . S
C655 C659 1.400 . S
C656 H641 0.960 . S
C656 H642 0.960 . S
C656 H643 0.960 . S
C656 C655 1.524 . S
C657 C654 1.403 . S
C657 C658 1.392 . S
C657 C661 1.495 . S
C658 C657 1.392 . S
C658 C659 1.385 . S
C658 C660 1.478 . S
C659 H653 0.930 . S
C659 C655 1.400 . S
C659 C658 1.385 . S
C660 C658 1.478 . S
C660 C662 1.381 . S
C660 C666 1.383 . S
C661 C657 1.495 . S
C661 H667 0.959 . S
C661 H668 0.961 . S
C661 H669 0.960 . S
C662 C660 1.381 . S
C662 C663 1.394 . S
C662 H670 0.930 . S
C663 C662 1.394 . S
C663 C664 1.383 . S
C663 H671 0.929 . S
C664 C663 1.383 . S
C664 C665 1.377 . S
C665 H649 0.930 . S
C665 C664 1.377 . S
C665 C666 1.379 . S
C666 H650 0.931 . S
C666 C660 1.383 . S
C666 C665 1.379 . S
H667 C661 0.959 . S
H668 C661 0.961 . S
H669 C661 0.960 . S
H670 C662 0.930 . S
H671 C663 0.929 . S
H672 C680 0.929 . S
H673 C682 0.930 . S
H674 C684 0.930 . S
H675 C687 0.929 . S
H676 C690 0.930 . S
H677 C692 0.960 . S
H678 C692 0.960 . S
H679 C692 0.960 . S
C680 H672 0.929 . S
C680 C681 1.377 . S
C680 C682 1.384 . S
C681 C680 1.377 . S
C681 C687 1.390 . S
C682 H673 0.930 . S
C682 C680 1.384 . S
C682 C683 1.372 . S
C683 C682 1.372 . S
C683 C684 1.400 . S
C683 C688 1.490 . S
C684 H674 0.930 . S
C684 C683 1.400 . S
C684 C687 1.386 . S
H685 C701 0.930 . S
H686 C702 0.931 . S
C687 H675 0.929 . S
C687 C681 1.390 . S
C687 C684 1.386 . S
C688 C683 1.490 . S
C688 C690 1.395 . S
C688 C691 1.403 . S
H689 C695 0.930 . S
C690 H676 0.930 . S
C690 C688 1.395 . S
C690 C693 1.403 . S
C691 C688 1.403 . S
C691 C692 1.524 . S
C691 C695 1.400 . S
C692 H677 0.960 . S
C692 H678 0.960 . S
C692 H679 0.960 . S
C692 C691 1.524 . S
C693 C690 1.403 . S
C693 C694 1.392 . S
C693 C697 1.495 . S
C694 C693 1.392 . S
C694 C695 1.385 . S
C694 C696 1.478 . S
C695 H689 0.930 . S
C695 C691 1.400 . S
C695 C694 1.385 . S
C696 C694 1.478 . S
C696 C698 1.381 . S
C696 C702 1.383 . S
C697 C693 1.495 . S
C697 H703 0.959 . S
C697 H704 0.961 . S
C697 H705 0.960 . S
C698 C696 1.381 . S
C698 C699 1.394 . S
C698 H706 0.930 . S
C699 C698 1.394 . S
C699 C700 1.383 . S
C699 H707 0.929 . S
C700 C699 1.383 . S
C700 C701 1.377 . S
C701 H685 0.930 . S
C701 C700 1.377 . S
C701 C702 1.379 . S
C702 H686 0.931 . S
C702 C696 1.383 . S
C702 C701 1.379 . S
H703 C697 0.959 . S
H704 C697 0.961 . S
H705 C697 0.960 . S
H706 C698 0.930 . S
H707 C699 0.929 . S
H708 C716 0.929 . S
H709 C718 0.930 . S
H710 C720 0.930 . S
H711 C723 0.929 . S
H712 C726 0.930 . S
H713 C728 0.960 . S
H714 C728 0.960 . S
H715 C728 0.960 1_565 S
C716 H708 0.929 . S
C716 C717 1.377 . S
C716 C718 1.384 . S
C717 C716 1.377 . S
C717 C723 1.390 . S
C718 H709 0.930 . S
C718 C716 1.384 . S
C718 C719 1.372 . S
C719 C718 1.372 . S
C719 C720 1.400 . S
C719 C724 1.490 . S
C720 H710 0.930 . S
C720 C719 1.400 . S
C720 C723 1.386 . S
H721 C737 0.930 . S
H722 C738 0.931 . S
C723 H711 0.929 . S
C723 C717 1.390 . S
C723 C720 1.386 . S
C724 C719 1.490 . S
C724 C726 1.395 . S
C724 C727 1.402 1_565 S
H725 C731 0.930 . S
C726 H712 0.930 . S
C726 C724 1.395 . S
C726 C729 1.392 1_566 S
C727 C724 1.402 1_545 S
C727 C728 1.522 . S
C727 C731 1.402 1_556 S
C728 H713 0.960 . S
C728 H714 0.960 . S
C728 H715 0.960 1_545 S
C728 C727 1.522 . S
C729 C726 1.392 1_544 S
C729 C730 1.394 . S
C729 C733 1.505 1_545 S
C730 C729 1.394 . S
C730 C731 1.385 . S
C730 C732 1.478 . S
C731 H725 0.930 . S
C731 C727 1.402 1_554 S
C731 C730 1.385 . S
C732 C730 1.478 . S
C732 C734 1.381 . S
C732 C738 1.383 . S
C733 C729 1.505 1_565 S
C733 H739 0.959 . S
C733 H740 0.961 . S
C733 H741 0.960 1_565 S
C734 C732 1.381 . S
C734 C735 1.394 . S
C734 H742 0.930 . S
C735 C734 1.394 . S
C735 C736 1.383 . S
C735 H743 0.929 . S
C736 C735 1.383 . S
C736 C737 1.377 . S
C737 H721 0.930 . S
C737 C736 1.377 . S
C737 C738 1.379 . S
C738 H722 0.931 . S
C738 C732 1.383 . S
C738 C737 1.379 . S
H739 C733 0.959 . S
H740 C733 0.961 . S
H741 C733 0.960 1_545 S
H742 C734 0.930 . S
H743 C735 0.929 . S
H744 C752 0.929 . S
H745 C754 0.930 . S
H746 C756 0.930 . S
H747 C759 0.929 . S
H748 C762 0.930 . S
H749 C764 0.960 . S
H750 C764 0.960 . S
H751 C764 0.960 . S
C752 H744 0.929 . S
C752 C753 1.377 . S
C752 C754 1.384 . S
C753 C752 1.377 . S
C753 C759 1.390 . S
C754 H745 0.930 . S
C754 C752 1.384 . S
C754 C755 1.372 . S
C755 C754 1.372 . S
C755 C756 1.400 . S
C755 C760 1.490 . S
C756 H746 0.930 . S
C756 C755 1.400 . S
C756 C759 1.386 . S
H757 C773 0.930 . S
H758 C774 0.931 . S
C759 H747 0.929 . S
C759 C753 1.390 . S
C759 C756 1.386 . S
C760 C755 1.490 . S
C760 C762 1.395 . S
C760 C763 1.403 . S
H761 C767 0.930 . S
C762 H748 0.930 . S
C762 C760 1.395 . S
C762 C765 1.403 . S
C763 C760 1.403 . S
C763 C764 1.524 . S
C763 C767 1.400 . S
C764 H749 0.960 . S
C764 H750 0.960 . S
C764 H751 0.960 . S
C764 C763 1.524 . S
C765 C762 1.403 . S
C765 C766 1.392 . S
C765 C769 1.495 . S
C766 C765 1.392 . S
C766 C767 1.385 . S
C766 C768 1.478 . S
C767 H761 0.930 . S
C767 C763 1.400 . S
C767 C766 1.385 . S
C768 C766 1.478 . S
C768 C770 1.381 . S
C768 C774 1.383 . S
C769 C765 1.495 . S
C769 H775 0.959 . S
C769 H776 0.961 . S
C769 H777 0.960 . S
C770 C768 1.381 . S
C770 C771 1.394 . S
C770 H778 0.930 . S
C771 C770 1.394 . S
C771 C772 1.383 . S
C771 H779 0.929 . S
C772 C771 1.383 . S
C772 C773 1.377 . S
C773 H757 0.930 . S
C773 C772 1.377 . S
C773 C774 1.379 . S
C774 H758 0.931 . S
C774 C768 1.383 . S
C774 C773 1.379 . S
H775 C769 0.959 . S
H776 C769 0.961 . S
H777 C769 0.960 . S
H778 C770 0.930 . S
H779 C771 0.929 . S
H780 C788 0.929 . S
H781 C790 0.930 . S
H782 C792 0.930 . S
H783 C795 0.929 . S
H784 C798 0.930 . S
H785 C800 0.960 . S
H786 C800 0.960 . S
H787 C800 0.960 . S
C788 H780 0.929 . S
C788 C789 1.377 . S
C788 C790 1.384 . S
C789 C788 1.377 . S
C789 C795 1.390 . S
C790 H781 0.930 . S
C790 C788 1.384 . S
C790 C791 1.372 . S
C791 C790 1.372 . S
C791 C792 1.400 . S
C791 C796 1.490 . S
C792 H782 0.930 . S
C792 C791 1.400 . S
C792 C795 1.386 . S
H793 C809 0.930 . S
H794 C810 0.931 . S
C795 H783 0.929 . S
C795 C789 1.390 . S
C795 C792 1.386 . S
C796 C791 1.490 . S
C796 C798 1.395 1_455 S
C796 C799 1.403 . S
H797 C803 0.930 . S
C798 H784 0.930 . S
C798 C796 1.395 1_655 S
C798 C801 1.403 . S
C799 C796 1.403 . S
C799 C800 1.524 . S
C799 C803 1.400 . S
C800 H785 0.960 . S
C800 H786 0.960 . S
C800 H787 0.960 . S
C800 C799 1.524 . S
C801 C798 1.403 . S
C801 C802 1.392 . S
C801 C805 1.495 . S
C802 C801 1.392 . S
C802 C803 1.385 1_655 S
C802 C804 1.478 . S
C803 H797 0.930 . S
C803 C799 1.400 . S
C803 C802 1.385 1_455 S
C804 C802 1.478 . S
C804 C806 1.381 . S
C804 C810 1.383 . S
C805 C801 1.495 . S
C805 H811 0.959 . S
C805 H812 0.961 . S
C805 H813 0.960 . S
C806 C804 1.381 . S
C806 C807 1.394 . S
C806 H814 0.930 . S
C807 C806 1.394 . S
C807 C808 1.383 . S
C807 H815 0.929 . S
C808 C807 1.383 . S
C808 C809 1.377 . S
C809 H793 0.930 . S
C809 C808 1.377 . S
C809 C810 1.379 . S
C810 H794 0.931 . S
C810 C804 1.383 . S
C810 C809 1.379 . S
H811 C805 0.959 . S
H812 C805 0.961 . S
H813 C805 0.960 . S
H814 C806 0.930 . S
H815 C807 0.929 . S
H816 C824 0.929 . S
H817 C826 0.930 . S
H818 C828 0.930 . S
H819 C831 0.929 . S
H820 C834 0.930 . S
H821 C836 0.960 . S
H822 C836 0.960 . S
H823 C836 0.960 . S
C824 H816 0.929 . S
C824 C825 1.377 . S
C824 C826 1.384 . S
C825 C824 1.377 . S
C825 C831 1.390 . S
C826 H817 0.930 . S
C826 C824 1.384 . S
C826 C827 1.372 . S
C827 C826 1.372 . S
C827 C828 1.400 . S
C827 C832 1.490 . S
C828 H818 0.930 . S
C828 C827 1.400 . S
C828 C831 1.386 . S
H829 C845 0.930 . S
H830 C846 0.931 . S
C831 H819 0.929 . S
C831 C825 1.390 . S
C831 C828 1.386 . S
C832 C827 1.490 . S
C832 C834 1.395 . S
C832 C835 1.403 . S
H833 C839 0.930 . S
C834 H820 0.930 . S
C834 C832 1.395 . S
C834 C837 1.403 1_564 S
C835 C832 1.403 . S
C835 C836 1.524 . S
C835 C839 1.400 1_564 S
C836 H821 0.960 . S
C836 H822 0.960 . S
C836 H823 0.960 . S
C836 C835 1.524 . S
C837 C834 1.403 1_546 S
C837 C838 1.392 . S
C837 C841 1.495 . S
C838 C837 1.392 . S
C838 C839 1.385 . S
C838 C840 1.478 . S
C839 H833 0.930 . S
C839 C835 1.400 1_546 S
C839 C838 1.385 . S
C840 C838 1.478 . S
C840 C842 1.381 . S
C840 C846 1.383 . S
C841 C837 1.495 . S
C841 H847 0.959 . S
C841 H848 0.961 . S
C841 H849 0.960 . S
C842 C840 1.381 . S
C842 C843 1.394 . S
C842 H850 0.930 . S
C843 C842 1.394 . S
C843 C844 1.383 . S
C843 H851 0.929 . S
C844 C843 1.383 . S
C844 C845 1.377 . S
C845 H829 0.930 . S
C845 C844 1.377 . S
C845 C846 1.379 . S
C846 H830 0.931 . S
C846 C840 1.383 . S
C846 C845 1.379 . S
H847 C841 0.959 . S
H848 C841 0.961 . S
H849 C841 0.960 . S
H850 C842 0.930 . S
H851 C843 0.929 . S
H852 C860 0.929 . S
H853 C862 0.930 . S
H854 C864 0.930 . S
H855 C867 0.929 . S
H856 C870 0.930 . S
H857 C872 0.960 . S
H858 C872 0.960 . S
H859 C872 0.960 . S
C860 H852 0.929 . S
C860 C861 1.377 . S
C860 C862 1.384 . S
C861 C860 1.377 . S
C861 C867 1.390 . S
C862 H853 0.930 . S
C862 C860 1.384 . S
C862 C863 1.372 . S
C863 C862 1.372 . S
C863 C864 1.400 . S
C863 C868 1.490 . S
C864 H854 0.930 . S
C864 C863 1.400 . S
C864 C867 1.386 . S
H865 C881 0.930 . S
H866 C882 0.931 . S
C867 H855 0.929 . S
C867 C861 1.390 . S
C867 C864 1.386 . S
C868 C863 1.490 . S
C868 C870 1.395 . S
C868 C871 1.403 . S
H869 C875 0.930 . S
C870 H856 0.930 . S
C870 C868 1.395 . S
C870 C873 1.403 . S
C871 C868 1.403 . S
C871 C872 1.524 . S
C871 C875 1.400 . S
C872 H857 0.960 . S
C872 H858 0.960 . S
C872 H859 0.960 . S
C872 C871 1.524 . S
C873 C870 1.403 . S
C873 C874 1.392 . S
C873 C877 1.495 . S
C874 C873 1.392 . S
C874 C875 1.385 . S
C874 C876 1.478 . S
C875 H869 0.930 . S
C875 C871 1.400 . S
C875 C874 1.385 . S
C876 C874 1.478 . S
C876 C878 1.381 . S
C876 C882 1.383 . S
C877 C873 1.495 . S
C877 H883 0.959 . S
C877 H884 0.961 . S
C877 H885 0.960 . S
C878 C876 1.381 . S
C878 C879 1.394 . S
C878 H886 0.930 . S
C879 C878 1.394 . S
C879 C880 1.383 . S
C879 H887 0.929 . S
C880 C879 1.383 . S
C880 C881 1.377 . S
C881 H865 0.930 . S
C881 C880 1.377 . S
C881 C882 1.379 . S
C882 H866 0.931 . S
C882 C876 1.383 . S
C882 C881 1.379 . S
H883 C877 0.959 . S
H884 C877 0.961 . S
H885 C877 0.960 . S
H886 C878 0.930 . S
H887 C879 0.929 . S
H888 C896 0.929 . S
H889 C898 0.930 . S
H890 C900 0.930 . S
H891 C903 0.929 . S
H892 C906 0.930 . S
H893 C908 0.960 . S
H894 C908 0.960 . S
H895 C908 0.960 . S
C896 H888 0.929 . S
C896 C897 1.377 . S
C896 C898 1.384 . S
C897 C896 1.377 . S
C897 C903 1.390 . S
C898 H889 0.930 . S
C898 C896 1.384 . S
C898 C899 1.372 . S
C899 C898 1.372 . S
C899 C900 1.400 . S
C899 C904 1.490 . S
C900 H890 0.930 . S
C900 C899 1.400 . S
C900 C903 1.386 . S
H901 C917 0.930 . S
H902 C918 0.931 . S
C903 H891 0.929 . S
C903 C897 1.390 . S
C903 C900 1.386 . S
C904 C899 1.490 . S
C904 C906 1.395 1_455 S
C904 C907 1.403 . S
H905 C911 0.930 . S
C906 H892 0.930 . S
C906 C904 1.395 1_655 S
C906 C909 1.403 . S
C907 C904 1.403 . S
C907 C908 1.524 . S
C907 C911 1.400 . S
C908 H893 0.960 . S
C908 H894 0.960 . S
C908 H895 0.960 . S
C908 C907 1.524 . S
C909 C906 1.403 . S
C909 C910 1.392 . S
C909 C913 1.495 . S
C910 C909 1.392 . S
C910 C911 1.385 1_655 S
C910 C912 1.478 . S
C911 H905 0.930 . S
C911 C907 1.400 . S
C911 C910 1.385 1_455 S
C912 C910 1.478 . S
C912 C914 1.381 . S
C912 C918 1.383 . S
C913 C909 1.495 . S
C913 H919 0.959 . S
C913 H920 0.961 . S
C913 H921 0.960 . S
C914 C912 1.381 . S
C914 C915 1.394 . S
C914 H922 0.930 . S
C915 C914 1.394 . S
C915 C916 1.383 . S
C915 H923 0.929 . S
C916 C915 1.383 . S
C916 C917 1.377 . S
C917 H901 0.930 . S
C917 C916 1.377 . S
C917 C918 1.379 . S
C918 H902 0.931 . S
C918 C912 1.383 . S
C918 C917 1.379 . S
H919 C913 0.959 . S
H920 C913 0.961 . S
H921 C913 0.960 . S
H922 C914 0.930 . S
H923 C915 0.929 . S
H924 C932 0.929 . S
H925 C934 0.930 . S
H926 C936 0.930 . S
H927 C939 0.929 . S
H928 C942 0.930 . S
H929 C944 0.960 . S
H930 C944 0.960 1_545 S
H931 C944 0.960 . S
C932 H924 0.929 . S
C932 C933 1.377 . S
C932 C934 1.384 . S
C933 C932 1.377 . S
C933 C939 1.390 . S
C934 H925 0.930 . S
C934 C932 1.384 . S
C934 C935 1.372 . S
C935 C934 1.372 . S
C935 C936 1.400 . S
C935 C940 1.490 . S
C936 H926 0.930 . S
C936 C935 1.400 . S
C936 C939 1.386 . S
H937 C953 0.930 . S
H938 C954 0.931 . S
C939 H927 0.929 . S
C939 C933 1.390 . S
C939 C936 1.386 . S
C940 C935 1.490 . S
C940 C942 1.395 . S
C940 C943 1.403 1_545 S
H941 C947 0.930 . S
C942 H928 0.930 . S
C942 C940 1.395 . S
C942 C945 1.403 . S
C943 C940 1.403 1_565 S
C943 C944 1.524 . S
C943 C947 1.400 . S
C944 H929 0.960 . S
C944 H930 0.960 1_565 S
C944 H931 0.960 . S
C944 C943 1.524 . S
C945 C942 1.403 . S
C945 C946 1.392 1_545 S
C945 C949 1.495 . S
C946 C945 1.392 1_565 S
C946 C947 1.385 . S
C946 C948 1.478 . S
C947 H941 0.930 . S
C947 C943 1.400 . S
C947 C946 1.385 . S
C948 C946 1.478 . S
C948 C950 1.381 . S
C948 C954 1.383 . S
C949 C945 1.495 . S
C949 H955 0.959 . S
C949 H956 0.983 . S
C949 H957 0.960 . S
C950 C948 1.381 . S
C950 C951 1.394 . S
C950 H958 0.930 . S
C951 C950 1.394 . S
C951 C952 1.383 . S
C951 H959 0.929 . S
C952 C951 1.383 . S
C952 C953 1.377 . S
C953 H937 0.930 . S
C953 C952 1.377 . S
C953 C954 1.379 . S
C954 H938 0.931 . S
C954 C948 1.383 . S
C954 C953 1.379 . S
H955 C949 0.959 . S
H956 C949 0.983 . S
H957 C949 0.960 . S
H958 C950 0.930 . S
H959 C951 0.929 . S
H960 C968 0.929 . S
H961 C970 0.930 . S
H962 C972 0.930 . S
H963 C975 0.929 . S
H964 C978 0.930 . S
H965 C980 0.960 . S
H966 C980 0.960 . S
H967 C980 0.960 . S
C968 H960 0.929 . S
C968 C969 1.377 . S
C968 C970 1.384 . S
C969 C968 1.377 . S
C969 C975 1.390 . S
C970 H961 0.930 . S
C970 C968 1.384 . S
C970 C971 1.372 . S
C971 C970 1.372 . S
C971 C972 1.400 . S
C971 C976 1.490 . S
C972 H962 0.930 . S
C972 C971 1.400 . S
C972 C975 1.386 . S
H973 C989 0.930 . S
H974 C990 0.931 . S
C975 H963 0.929 . S
C975 C969 1.390 . S
C975 C972 1.386 . S
C976 C971 1.490 . S
C976 C978 1.395 . S
C976 C979 1.403 . S
H977 C983 0.930 . S
C978 H964 0.930 . S
C978 C976 1.395 . S
C978 C981 1.403 . S
C979 C976 1.403 . S
C979 C980 1.524 . S
C979 C983 1.400 . S
C980 H965 0.960 . S
C980 H966 0.960 . S
C980 H967 0.960 . S
C980 C979 1.524 . S
C981 C978 1.403 . S
C981 C982 1.392 . S
C981 C985 1.495 . S
C982 C981 1.392 . S
C982 C983 1.385 . S
C982 C984 1.478 . S
C983 H977 0.930 . S
C983 C979 1.400 . S
C983 C982 1.385 . S
C984 C982 1.478 . S
C984 C986 1.381 . S
C984 C990 1.383 . S
C985 C981 1.495 . S
C985 H991 0.959 . S
C985 H992 0.961 . S
C985 H993 0.960 . S
C986 C984 1.381 . S
C986 C987 1.394 . S
C986 H994 0.930 . S
C987 C986 1.394 . S
C987 C988 1.383 . S
C987 H995 0.929 . S
C988 C987 1.383 . S
C988 C989 1.377 . S
C989 H973 0.930 . S
C989 C988 1.377 . S
C989 C990 1.379 . S
C990 H974 0.931 . S
C990 C984 1.383 . S
C990 C989 1.379 . S
H991 C985 0.959 . S
H992 C985 0.961 . S
H993 C985 0.960 . S
H994 C986 0.930 . S
H995 C987 0.929 . S
H996 C1004 0.929 . S
H997 C1006 0.930 . S
H998 C1008 0.930 . S
H999 C1011 0.929 . S
H1000 C1014 0.917 . S
H1001 C1016 0.960 . S
H1002 C1016 0.960 . S
H1003 C1016 0.960 . S
C1004 H996 0.929 . S
C1004 C1005 1.377 . S
C1004 C1006 1.384 . S
C1005 C1004 1.377 . S
C1005 C1011 1.390 . S
C1006 H997 0.930 . S
C1006 C1004 1.384 . S
C1006 C1007 1.372 . S
C1007 C1006 1.372 . S
C1007 C1008 1.400 . S
C1007 C1012 1.490 . S
C1008 H998 0.930 . S
C1008 C1007 1.400 . S
C1008 C1011 1.386 . S
H1009 C1025 0.930 . S
H1010 C1026 0.931 . S
C1011 H999 0.929 . S
C1011 C1005 1.390 . S
C1011 C1008 1.386 . S
C1012 C1007 1.490 . S
C1012 C1014 1.429 . S
C1012 C1015 1.403 . S
H1013 C1019 0.930 . S
C1014 H1000 0.917 . S
C1014 C1012 1.429 . S
C1014 C1017 1.386 1_655 S
C1015 C1012 1.403 . S
C1015 C1016 1.524 . S
C1015 C1019 1.400 1_655 S
C1016 H1001 0.960 . S
C1016 H1002 0.960 . S
C1016 H1003 0.960 . S
C1016 C1015 1.524 . S
C1017 C1014 1.386 1_455 S
C1017 C1018 1.392 . S
C1017 C1021 1.495 . S
C1018 C1017 1.392 . S
C1018 C1019 1.385 . S
C1018 C1020 1.478 . S
C1019 H1013 0.930 . S
C1019 C1015 1.400 1_455 S
C1019 C1018 1.385 . S
C1020 C1018 1.478 . S
C1020 C1022 1.381 . S
C1020 C1026 1.383 . S
C1021 C1017 1.495 . S
C1021 H1027 0.959 . S
C1021 H1028 0.961 . S
C1021 H1029 0.960 . S
C1022 C1020 1.381 . S
C1022 C1023 1.394 . S
C1022 H1030 0.930 . S
C1023 C1022 1.394 . S
C1023 C1024 1.383 . S
C1023 H1031 0.929 . S
C1024 C1023 1.383 . S
C1024 C1025 1.377 . S
C1025 H1009 0.930 . S
C1025 C1024 1.377 . S
C1025 C1026 1.379 . S
C1026 H1010 0.931 . S
C1026 C1020 1.383 . S
C1026 C1025 1.379 . S
H1027 C1021 0.959 . S
H1028 C1021 0.961 . S
H1029 C1021 0.960 . S
H1030 C1022 0.930 . S
H1031 C1023 0.929 . S
H1032 C1040 0.929 . S
H1033 C1042 0.930 . S
H1034 C1044 0.930 . S
H1035 C1047 0.929 . S
H1036 C1050 0.930 . S
H1037 C1052 0.960 . S
H1038 C1052 0.960 . S
H1039 C1052 0.960 . S
C1040 H1032 0.929 . S
C1040 C1041 1.377 . S
C1040 C1042 1.384 . S
C1041 C1040 1.377 . S
C1041 C1047 1.390 . S
C1042 H1033 0.930 . S
C1042 C1040 1.384 . S
C1042 C1043 1.372 . S
C1043 C1042 1.372 . S
C1043 C1044 1.400 . S
C1043 C1048 1.490 . S
C1044 H1034 0.930 . S
C1044 C1043 1.400 . S
C1044 C1047 1.386 . S
H1045 C1061 0.930 . S
H1046 C1062 0.931 . S
C1047 H1035 0.929 . S
C1047 C1041 1.390 . S
C1047 C1044 1.386 . S
C1048 C1043 1.490 . S
C1048 C1050 1.395 . S
C1048 C1051 1.403 1_455 S
H1049 C1055 0.930 . S
C1050 H1036 0.930 . S
C1050 C1048 1.395 . S
C1050 C1053 1.403 . S
C1051 C1048 1.403 1_655 S
C1051 C1052 1.524 . S
C1051 C1055 1.400 . S
C1052 H1037 0.960 . S
C1052 H1038 0.960 . S
C1052 H1039 0.960 . S
C1052 C1051 1.524 . S
C1053 C1050 1.403 . S
C1053 C1054 1.392 1_455 S
C1053 C1057 1.495 . S
C1054 C1053 1.392 1_655 S
C1054 C1055 1.385 . S
C1054 C1056 1.478 . S
C1055 H1049 0.930 . S
C1055 C1051 1.400 . S
C1055 C1054 1.385 . S
C1056 C1054 1.478 . S
C1056 C1058 1.381 . S
C1056 C1062 1.383 . S
C1057 C1053 1.495 . S
C1057 H1063 0.959 . S
C1057 H1064 0.961 . S
C1057 H1065 0.960 . S
C1058 C1056 1.381 . S
C1058 C1059 1.394 . S
C1058 H1066 0.930 . S
C1059 C1058 1.394 . S
C1059 C1060 1.383 . S
C1059 H1067 0.929 . S
C1060 C1059 1.383 . S
C1060 C1061 1.377 . S
C1061 H1045 0.930 . S
C1061 C1060 1.377 . S
C1061 C1062 1.379 . S
C1062 H1046 0.931 . S
C1062 C1056 1.383 . S
C1062 C1061 1.379 . S
H1063 C1057 0.959 . S
H1064 C1057 0.961 . S
H1065 C1057 0.960 . S
H1066 C1058 0.930 . S
H1067 C1059 0.929 . S
H1068 C1076 0.929 . S
H1069 C1078 0.930 . S
H1070 C1080 0.930 . S
H1071 C1083 0.929 . S
H1072 C1086 0.930 . S
H1073 C1088 0.960 . S
H1074 C1088 0.960 . S
H1075 C1088 0.960 . S
C1076 H1068 0.929 . S
C1076 C1077 1.377 . S
C1076 C1078 1.384 . S
C1077 C1076 1.377 . S
C1077 C1083 1.390 . S
C1078 H1069 0.930 . S
C1078 C1076 1.384 . S
C1078 C1079 1.372 . S
C1079 C1078 1.372 . S
C1079 C1080 1.400 . S
C1079 C1084 1.490 . S
C1080 H1070 0.930 . S
C1080 C1079 1.400 . S
C1080 C1083 1.386 . S
H1081 C1097 0.930 . S
H1082 C1098 0.931 . S
C1083 H1071 0.929 . S
C1083 C1077 1.390 . S
C1083 C1080 1.386 . S
C1084 C1079 1.490 . S
C1084 C1086 1.395 . S
C1084 C1087 1.403 . S
H1085 C1091 0.930 . S
C1086 H1072 0.930 . S
C1086 C1084 1.395 . S
C1086 C1089 1.403 1_565 S
C1087 C1084 1.403 . S
C1087 C1088 1.524 . S
C1087 C1091 1.400 1_565 S
C1088 H1073 0.960 . S
C1088 H1074 0.960 . S
C1088 H1075 0.960 . S
C1088 C1087 1.524 . S
C1089 C1086 1.403 1_545 S
C1089 C1090 1.392 . S
C1089 C1093 1.495 . S
C1090 C1089 1.392 . S
C1090 C1091 1.385 . S
C1090 C1092 1.478 . S
C1091 H1085 0.930 . S
C1091 C1087 1.400 1_545 S
C1091 C1090 1.385 . S
C1092 C1090 1.478 . S
C1092 C1094 1.381 . S
C1092 C1098 1.383 . S
C1093 C1089 1.495 . S
C1093 H1099 0.959 . S
C1093 H1100 0.961 . S
C1093 H1101 0.960 . S
C1094 C1092 1.381 . S
C1094 C1095 1.394 . S
C1094 H1102 0.930 . S
C1095 C1094 1.394 . S
C1095 C1096 1.383 . S
C1095 H1103 0.929 . S
C1096 C1095 1.383 . S
C1096 C1097 1.377 . S
C1097 H1081 0.930 . S
C1097 C1096 1.377 . S
C1097 C1098 1.379 . S
C1098 H1082 0.931 . S
C1098 C1092 1.383 . S
C1098 C1097 1.379 . S
H1099 C1093 0.959 . S
H1100 C1093 0.961 . S
H1101 C1093 0.960 . S
H1102 C1094 0.930 . S
H1103 C1095 0.929 . S
H1104 C1112 0.929 . S
H1105 C1114 0.930 . S
H1106 C1116 0.930 . S
H1107 C1119 0.929 . S
H1108 C1122 0.930 . S
H1109 C1124 0.960 . S
H1110 C1124 0.960 . S
H1111 C1124 0.960 . S
C1112 H1104 0.929 . S
C1112 C1113 1.377 . S
C1112 C1114 1.384 . S
C1113 C1112 1.377 . S
C1113 C1119 1.390 . S
C1114 H1105 0.930 . S
C1114 C1112 1.384 . S
C1114 C1115 1.372 . S
C1115 C1114 1.372 . S
C1115 C1116 1.400 . S
C1115 C1120 1.490 . S
C1116 H1106 0.930 . S
C1116 C1115 1.400 . S
C1116 C1119 1.386 . S
H1117 C1133 0.930 . S
H1118 C1134 0.931 . S
C1119 H1107 0.929 . S
C1119 C1113 1.390 . S
C1119 C1116 1.386 . S
C1120 C1115 1.490 . S
C1120 C1122 1.395 . S
C1120 C1123 1.403 . S
H1121 C1127 0.930 . S
C1122 H1108 0.930 . S
C1122 C1120 1.395 . S
C1122 C1125 1.403 . S
C1123 C1120 1.403 . S
C1123 C1124 1.524 . S
C1123 C1127 1.400 . S
C1124 H1109 0.960 . S
C1124 H1110 0.960 . S
C1124 H1111 0.960 . S
C1124 C1123 1.524 . S
C1125 C1122 1.403 . S
C1125 C1126 1.392 . S
C1125 C1129 1.495 . S
C1126 C1125 1.392 . S
C1126 C1127 1.385 . S
C1126 C1128 1.478 . S
C1127 H1121 0.930 . S
C1127 C1123 1.400 . S
C1127 C1126 1.385 . S
C1128 C1126 1.478 . S
C1128 C1130 1.381 . S
C1128 C1134 1.383 . S
C1129 C1125 1.495 . S
C1129 H1135 0.959 . S
C1129 H1136 0.961 . S
C1129 H1137 0.960 . S
C1130 C1128 1.381 . S
C1130 C1131 1.394 . S
C1130 H1138 0.930 . S
C1131 C1130 1.394 . S
C1131 C1132 1.383 . S
C1131 H1139 0.929 . S
C1132 C1131 1.383 . S
C1132 C1133 1.377 . S
C1133 H1117 0.930 . S
C1133 C1132 1.377 . S
C1133 C1134 1.379 . S
C1134 H1118 0.931 . S
C1134 C1128 1.383 . S
C1134 C1133 1.379 . S
H1135 C1129 0.959 . S
H1136 C1129 0.961 . S
H1137 C1129 0.960 . S
H1138 C1130 0.930 . S
H1139 C1131 0.929 . S
H1140 C1148 0.929 . S
H1141 C1150 0.930 . S
H1142 C1152 0.930 . S
H1143 C1155 0.929 . S
H1144 C1158 0.930 . S
H1145 C1160 0.960 . S
H1146 C1160 0.960 . S
H1147 C1160 0.960 . S
C1148 H1140 0.929 . S
C1148 C1149 1.377 . S
C1148 C1150 1.384 . S
C1149 C1148 1.377 . S
C1149 C1155 1.390 . S
C1150 H1141 0.930 . S
C1150 C1148 1.384 . S
C1150 C1151 1.372 . S
C1151 C1150 1.372 . S
C1151 C1152 1.400 . S
C1151 C1156 1.490 . S
C1152 H1142 0.930 . S
C1152 C1151 1.400 . S
C1152 C1155 1.386 . S
H1153 C1169 0.930 . S
H1154 C1170 0.931 . S
C1155 H1143 0.929 . S
C1155 C1149 1.390 . S
C1155 C1152 1.386 . S
C1156 C1151 1.490 . S
C1156 C1158 1.395 . S
C1156 C1159 1.403 . S
H1157 C1163 0.930 . S
C1158 H1144 0.930 . S
C1158 C1156 1.395 . S
C1158 C1161 1.403 1_565 S
C1159 C1156 1.403 . S
C1159 C1160 1.524 . S
C1159 C1163 1.400 1_565 S
C1160 H1145 0.960 . S
C1160 H1146 0.960 . S
C1160 H1147 0.960 . S
C1160 C1159 1.524 . S
C1161 C1158 1.403 1_545 S
C1161 C1162 1.392 . S
C1161 C1165 1.495 . S
C1162 C1161 1.392 . S
C1162 C1163 1.385 . S
C1162 C1164 1.478 . S
C1163 H1157 0.930 . S
C1163 C1159 1.400 1_545 S
C1163 C1162 1.385 . S
C1164 C1162 1.478 . S
C1164 C1166 1.381 . S
C1164 C1170 1.383 . S
C1165 C1161 1.495 . S
C1165 H1171 0.959 . S
C1165 H1172 0.961 . S
C1165 H1173 0.960 . S
C1166 C1164 1.381 . S
C1166 C1167 1.394 . S
C1166 H1174 0.930 . S
C1167 C1166 1.394 . S
C1167 C1168 1.383 . S
C1167 H1175 0.929 . S
C1168 C1167 1.383 . S
C1168 C1169 1.377 . S
C1169 H1153 0.930 . S
C1169 C1168 1.377 . S
C1169 C1170 1.379 . S
C1170 H1154 0.931 . S
C1170 C1164 1.383 . S
C1170 C1169 1.379 . S
H1171 C1165 0.959 . S
H1172 C1165 0.961 . S
H1173 C1165 0.960 . S
H1174 C1166 0.930 . S
H1175 C1167 0.929 . S
H1176 C1184 0.929 . S
H1177 C1186 0.930 . S
H1178 C1188 0.930 . S
H1179 C1191 0.929 . S
H1180 C1194 0.930 . S
H1181 C1196 0.960 . S
H1182 C1196 0.960 . S
H1183 C1196 0.960 . S
C1184 H1176 0.929 . S
C1184 C1185 1.377 . S
C1184 C1186 1.384 . S
C1185 C1184 1.377 . S
C1185 C1191 1.390 . S
C1186 H1177 0.930 . S
C1186 C1184 1.384 . S
C1186 C1187 1.372 . S
C1187 C1186 1.372 . S
C1187 C1188 1.400 . S
C1187 C1192 1.490 . S
C1188 H1178 0.930 . S
C1188 C1187 1.400 . S
C1188 C1191 1.386 . S
H1189 C1205 0.930 . S
H1190 C1206 0.931 . S
C1191 H1179 0.929 . S
C1191 C1185 1.390 . S
C1191 C1188 1.386 . S
C1192 C1187 1.490 . S
C1192 C1194 1.395 . S
C1192 C1195 1.403 . S
H1193 C1199 0.930 . S
C1194 H1180 0.930 . S
C1194 C1192 1.395 . S
C1194 C1197 1.403 . S
C1195 C1192 1.403 . S
C1195 C1196 1.524 . S
C1195 C1199 1.400 . S
C1196 H1181 0.960 . S
C1196 H1182 0.960 . S
C1196 H1183 0.960 . S
C1196 C1195 1.524 . S
C1197 C1194 1.403 . S
C1197 C1198 1.392 . S
C1197 C1201 1.495 . S
C1198 C1197 1.392 . S
C1198 C1199 1.385 . S
C1198 C1200 1.478 . S
C1199 H1193 0.930 . S
C1199 C1195 1.400 . S
C1199 C1198 1.385 . S
C1200 C1198 1.478 . S
C1200 C1202 1.381 . S
C1200 C1206 1.383 . S
C1201 C1197 1.495 . S
C1201 H1207 0.959 . S
C1201 H1208 0.961 . S
C1201 H1209 0.960 . S
C1202 C1200 1.381 . S
C1202 C1203 1.394 . S
C1202 H1210 0.930 . S
C1203 C1202 1.394 . S
C1203 C1204 1.383 . S
C1203 H1211 0.929 . S
C1204 C1203 1.383 . S
C1204 C1205 1.377 . S
C1205 H1189 0.930 . S
C1205 C1204 1.377 . S
C1205 C1206 1.379 . S
C1206 H1190 0.931 . S
C1206 C1200 1.383 . S
C1206 C1205 1.379 . S
H1207 C1201 0.959 . S
H1208 C1201 0.961 . S
H1209 C1201 0.960 . S
H1210 C1202 0.930 . S
H1211 C1203 0.929 . S
H1212 C1220 0.929 . S
H1213 C1222 0.930 . S
H1214 C1224 0.930 . S
H1215 C1227 0.929 . S
H1216 C1230 0.930 . S
H1217 C1232 0.960 . S
H1218 C1232 0.960 . S
H1219 C1232 0.960 1_655 S
C1220 H1212 0.929 . S
C1220 C1221 1.377 . S
C1220 C1222 1.384 . S
C1221 C1220 1.377 . S
C1221 C1227 1.390 . S
C1222 H1213 0.930 . S
C1222 C1220 1.384 . S
C1222 C1223 1.372 . S
C1223 C1222 1.372 . S
C1223 C1224 1.400 . S
C1223 C1228 1.490 . S
C1224 H1214 0.930 . S
C1224 C1223 1.400 . S
C1224 C1227 1.386 . S
H1225 C1241 0.930 . S
H1226 C1242 0.931 . S
C1227 H1215 0.929 . S
C1227 C1221 1.390 . S
C1227 C1224 1.386 . S
C1228 C1223 1.490 . S
C1228 C1230 1.395 . S
C1228 C1231 1.388 1_655 S
H1229 C1235 0.930 . S
C1230 H1216 0.930 . S
C1230 C1228 1.395 . S
C1230 C1233 1.403 . S
C1231 C1228 1.388 1_455 S
C1231 C1232 1.532 . S
C1231 C1235 1.407 . S
C1232 H1217 0.960 . S
C1232 H1218 0.960 . S
C1232 H1219 0.960 1_455 S
C1232 C1231 1.532 . S
C1233 C1230 1.403 . S
C1233 C1234 1.393 1_655 S
C1233 C1237 1.495 . S
C1234 C1233 1.393 1_455 S
C1234 C1235 1.385 . S
C1234 C1236 1.478 . S
C1235 H1229 0.930 . S
C1235 C1231 1.407 . S
C1235 C1234 1.385 . S
C1236 C1234 1.478 . S
C1236 C1238 1.381 . S
C1236 C1242 1.383 . S
C1237 C1233 1.495 . S
C1237 H1243 0.959 . S
C1237 H1244 0.961 . S
C1237 H1245 0.960 1_655 S
C1238 C1236 1.381 . S
C1238 C1239 1.394 . S
C1238 H1246 0.930 . S
C1239 C1238 1.394 . S
C1239 C1240 1.383 . S
C1239 H1247 0.929 . S
C1240 C1239 1.383 . S
C1240 C1241 1.377 . S
C1241 H1225 0.930 . S
C1241 C1240 1.377 . S
C1241 C1242 1.379 . S
C1242 H1226 0.931 . S
C1242 C1236 1.383 . S
C1242 C1241 1.379 . S
H1243 C1237 0.959 . S
H1244 C1237 0.961 . S
H1245 C1237 0.960 1_455 S
H1246 C1238 0.930 . S
H1247 C1239 0.929 . S
H1248 C1256 0.929 . S
H1249 C1258 0.930 . S
H1250 C1260 0.930 . S
H1251 C1263 0.929 . S
H1252 C1266 0.930 . S
H1253 C1268 0.960 . S
H1254 C1268 0.960 . S
H1255 C1268 0.960 . S
C1256 H1248 0.929 . S
C1256 C1257 1.377 . S
C1256 C1258 1.384 . S
C1257 C1256 1.377 . S
C1257 C1263 1.390 . S
C1258 H1249 0.930 . S
C1258 C1256 1.384 . S
C1258 C1259 1.372 . S
C1259 C1258 1.372 . S
C1259 C1260 1.400 . S
C1259 C1264 1.490 . S
C1260 H1250 0.930 . S
C1260 C1259 1.400 . S
C1260 C1263 1.386 . S
H1261 C1277 0.930 . S
H1262 C1278 0.931 . S
C1263 H1251 0.929 . S
C1263 C1257 1.390 . S
C1263 C1260 1.386 . S
C1264 C1259 1.490 . S
C1264 C1266 1.395 . S
C1264 C1267 1.403 1_545 S
H1265 C1271 0.930 . S
C1266 H1252 0.930 . S
C1266 C1264 1.395 . S
C1266 C1269 1.403 . S
C1267 C1264 1.403 1_565 S
C1267 C1268 1.524 . S
C1267 C1271 1.400 . S
C1268 H1253 0.960 . S
C1268 H1254 0.960 . S
C1268 H1255 0.960 . S
C1268 C1267 1.524 . S
C1269 C1266 1.403 . S
C1269 C1270 1.392 1_545 S
C1269 C1273 1.495 . S
C1270 C1269 1.392 1_565 S
C1270 C1271 1.385 . S
C1270 C1272 1.478 . S
C1271 H1265 0.930 . S
C1271 C1267 1.400 . S
C1271 C1270 1.385 . S
C1272 C1270 1.478 . S
C1272 C1274 1.381 . S
C1272 C1278 1.383 . S
C1273 C1269 1.495 . S
C1273 H1279 0.959 . S
C1273 H1280 0.961 . S
C1273 H1281 0.960 . S
C1274 C1272 1.381 . S
C1274 C1275 1.394 . S
C1274 H1282 0.930 . S
C1275 C1274 1.394 . S
C1275 C1276 1.383 . S
C1275 H1283 0.929 . S
C1276 C1275 1.383 . S
C1276 C1277 1.377 . S
C1277 H1261 0.930 . S
C1277 C1276 1.377 . S
C1277 C1278 1.379 . S
C1278 H1262 0.931 . S
C1278 C1272 1.383 . S
C1278 C1277 1.379 . S
H1279 C1273 0.959 . S
H1280 C1273 0.961 . S
H1281 C1273 0.960 . S
H1282 C1274 0.930 . S
H1283 C1275 0.929 . S
H1284 C1292 0.929 . S
H1285 C1294 0.930 . S
H1286 C1296 0.930 . S
H1287 C1299 0.929 . S
H1288 C1302 0.930 . S
H1289 C1304 0.960 . S
H1290 C1304 0.960 . S
H1291 C1304 0.960 . S
C1292 H1284 0.929 . S
C1292 C1293 1.377 . S
C1292 C1294 1.384 . S
C1293 C1292 1.377 . S
C1293 C1299 1.390 . S
C1294 H1285 0.930 . S
C1294 C1292 1.384 . S
C1294 C1295 1.372 . S
C1295 C1294 1.372 . S
C1295 C1296 1.400 . S
C1295 C1300 1.490 . S
C1296 H1286 0.930 . S
C1296 C1295 1.400 . S
C1296 C1299 1.386 . S
H1297 C1313 0.930 . S
H1298 C1314 0.931 . S
C1299 H1287 0.929 . S
C1299 C1293 1.390 . S
C1299 C1296 1.386 . S
C1300 C1295 1.490 . S
C1300 C1302 1.395 . S
C1300 C1303 1.403 . S
H1301 C1307 0.930 . S
C1302 H1288 0.930 . S
C1302 C1300 1.395 . S
C1302 C1305 1.403 . S
C1303 C1300 1.403 . S
C1303 C1304 1.524 . S
C1303 C1307 1.400 . S
C1304 H1289 0.960 . S
C1304 H1290 0.960 . S
C1304 H1291 0.960 . S
C1304 C1303 1.524 . S
C1305 C1302 1.403 . S
C1305 C1306 1.392 . S
C1305 C1309 1.495 . S
C1306 C1305 1.392 . S
C1306 C1307 1.385 . S
C1306 C1308 1.478 . S
C1307 H1301 0.930 . S
C1307 C1303 1.400 . S
C1307 C1306 1.385 . S
C1308 C1306 1.478 . S
C1308 C1310 1.381 . S
C1308 C1314 1.383 . S
C1309 C1305 1.495 . S
C1309 H1315 0.959 . S
C1309 H1316 0.961 . S
C1309 H1317 0.960 . S
C1310 C1308 1.381 . S
C1310 C1311 1.394 . S
C1310 H1318 0.930 . S
C1311 C1310 1.394 . S
C1311 C1312 1.383 . S
C1311 H1319 0.929 . S
C1312 C1311 1.383 . S
C1312 C1313 1.377 . S
C1313 H1297 0.930 . S
C1313 C1312 1.377 . S
C1313 C1314 1.379 . S
C1314 H1298 0.931 . S
C1314 C1308 1.383 . S
C1314 C1313 1.379 . S
H1315 C1309 0.959 . S
H1316 C1309 0.961 . S
H1317 C1309 0.960 . S
H1318 C1310 0.930 . S
H1319 C1311 0.929 . S
H1320 C1328 0.929 1_556 S
H1321 C1330 0.930 . S
H1322 C1332 0.930 . S
H1323 C1335 0.929 . S
H1324 C1338 0.930 . S
H1325 C1340 0.960 1_655 S
H1326 C1340 0.947 1_655 S
H1327 C1340 0.960 . S
C1328 H1320 0.929 1_554 S
C1328 C1329 1.377 . S
C1328 C1330 1.384 . S
C1329 C1328 1.377 . S
C1329 C1335 1.390 . S
C1330 H1321 0.930 . S
C1330 C1328 1.384 . S
C1330 C1331 1.372 . S
C1331 C1330 1.372 . S
C1331 C1332 1.400 . S
C1331 C1336 1.490 . S
C1332 H1322 0.930 . S
C1332 C1331 1.400 . S
C1332 C1335 1.386 . S
H1333 C1349 0.930 . S
H1334 C1350 0.931 . S
C1335 H1323 0.929 . S
C1335 C1329 1.390 . S
C1335 C1332 1.386 . S
C1336 C1331 1.490 . S
C1336 C1338 1.395 . S
C1336 C1339 1.403 . S
H1337 C1343 0.930 . S
C1338 H1324 0.930 . S
C1338 C1336 1.395 . S
C1338 C1341 1.403 1_455 S
C1339 C1336 1.403 . S
C1339 C1340 1.524 . S
C1339 C1343 1.400 1_455 S
C1340 H1325 0.960 1_455 S
C1340 H1326 0.947 1_455 S
C1340 H1327 0.960 . S
C1340 C1339 1.524 . S
C1341 C1338 1.403 1_655 S
C1341 C1342 1.392 . S
C1341 C1345 1.495 . S
C1342 C1341 1.392 . S
C1342 C1343 1.385 . S
C1342 C1344 1.478 . S
C1343 H1337 0.930 . S
C1343 C1339 1.400 1_655 S
C1343 C1342 1.385 . S
C1344 C1342 1.478 . S
C1344 C1346 1.381 . S
C1344 C1350 1.383 . S
C1345 C1341 1.495 . S
C1345 H1351 0.959 1_655 S
C1345 H1352 0.961 . S
C1345 H1353 0.960 . S
C1346 C1344 1.381 . S
C1346 C1347 1.394 . S
C1346 H1354 0.930 . S
C1347 C1346 1.394 . S
C1347 C1348 1.383 . S
C1347 H1355 0.929 . S
C1348 C1347 1.383 . S
C1348 C1349 1.377 . S
C1349 H1333 0.930 . S
C1349 C1348 1.377 . S
C1349 C1350 1.379 . S
C1350 H1334 0.931 . S
C1350 C1344 1.383 . S
C1350 C1349 1.379 . S
H1351 C1345 0.959 1_455 S
H1352 C1345 0.961 . S
H1353 C1345 0.960 . S
H1354 C1346 0.930 . S
H1355 C1347 0.929 . S
H1356 C1364 0.929 . S
H1357 C1366 0.930 . S
H1358 C1368 0.930 . S
H1359 C1371 0.929 . S
H1360 C1374 0.930 . S
H1361 C1376 0.960 . S
H1362 C1376 0.960 . S
H1363 C1376 0.960 . S
C1364 H1356 0.929 . S
C1364 C1365 1.377 . S
C1364 C1366 1.384 . S
C1365 C1364 1.377 . S
C1365 C1371 1.390 . S
C1366 H1357 0.930 . S
C1366 C1364 1.384 . S
C1366 C1367 1.372 . S
C1367 C1366 1.372 . S
C1367 C1368 1.400 . S
C1367 C1372 1.490 . S
C1368 H1358 0.930 . S
C1368 C1367 1.400 . S
C1368 C1371 1.386 . S
H1369 C1385 0.930 . S
H1370 C1386 0.931 . S
C1371 H1359 0.929 . S
C1371 C1365 1.390 . S
C1371 C1368 1.386 . S
C1372 C1367 1.490 . S
C1372 C1374 1.395 . S
C1372 C1375 1.403 . S
H1373 C1379 0.930 . S
C1374 H1360 0.930 . S
C1374 C1372 1.395 . S
C1374 C1377 1.403 . S
C1375 C1372 1.403 . S
C1375 C1376 1.524 . S
C1375 C1379 1.400 . S
C1376 H1361 0.960 . S
C1376 H1362 0.960 . S
C1376 H1363 0.960 . S
C1376 C1375 1.524 . S
C1377 C1374 1.403 . S
C1377 C1378 1.392 . S
C1377 C1381 1.495 . S
C1378 C1377 1.392 . S
C1378 C1379 1.385 . S
C1378 C1380 1.478 . S
C1379 H1373 0.930 . S
C1379 C1375 1.400 . S
C1379 C1378 1.385 . S
C1380 C1378 1.478 . S
C1380 C1382 1.381 . S
C1380 C1386 1.383 . S
C1381 C1377 1.495 . S
C1381 H1387 0.959 . S
C1381 H1388 0.961 . S
C1381 H1389 0.960 . S
C1382 C1380 1.381 . S
C1382 C1383 1.394 . S
C1382 H1390 0.930 . S
C1383 C1382 1.394 . S
C1383 C1384 1.383 . S
C1383 H1391 0.929 . S
C1384 C1383 1.383 . S
C1384 C1385 1.377 . S
C1385 H1369 0.930 . S
C1385 C1384 1.377 . S
C1385 C1386 1.379 . S
C1386 H1370 0.931 . S
C1386 C1380 1.383 . S
C1386 C1385 1.379 . S
H1387 C1381 0.959 . S
H1388 C1381 0.961 . S
H1389 C1381 0.960 . S
H1390 C1382 0.930 . S
H1391 C1383 0.929 . S
H1392 C1400 0.929 . S
H1393 C1402 0.930 . S
H1394 C1404 0.930 . S
H1395 C1407 0.929 . S
H1396 C1410 0.930 . S
H1397 C1412 0.960 . S
H1398 C1412 0.960 . S
H1399 C1412 0.960 . S
C1400 H1392 0.929 . S
C1400 C1401 1.377 . S
C1400 C1402 1.384 . S
C1401 C1400 1.377 . S
C1401 C1407 1.390 . S
C1402 H1393 0.930 . S
C1402 C1400 1.384 . S
C1402 C1403 1.372 . S
C1403 C1402 1.372 . S
C1403 C1404 1.400 . S
C1403 C1408 1.490 . S
C1404 H1394 0.930 . S
C1404 C1403 1.400 . S
C1404 C1407 1.386 . S
H1405 C1421 0.930 . S
H1406 C1422 0.931 . S
C1407 H1395 0.929 . S
C1407 C1401 1.390 . S
C1407 C1404 1.386 . S
C1408 C1403 1.490 . S
C1408 C1410 1.395 . S
C1408 C1411 1.403 . S
H1409 C1415 0.930 . S
C1410 H1396 0.930 . S
C1410 C1408 1.395 . S
C1410 C1413 1.403 . S
C1411 C1408 1.403 . S
C1411 C1412 1.524 . S
C1411 C1415 1.400 . S
C1412 H1397 0.960 . S
C1412 H1398 0.960 . S
C1412 H1399 0.960 . S
C1412 C1411 1.524 . S
C1413 C1410 1.403 . S
C1413 C1414 1.392 . S
C1413 C1417 1.495 . S
C1414 C1413 1.392 . S
C1414 C1415 1.385 . S
C1414 C1416 1.478 . S
C1415 H1409 0.930 . S
C1415 C1411 1.400 . S
C1415 C1414 1.385 . S
C1416 C1414 1.478 . S
C1416 C1418 1.381 . S
C1416 C1422 1.383 . S
C1417 C1413 1.495 . S
C1417 H1423 0.959 . S
C1417 H1424 0.961 . S
C1417 H1425 0.960 . S
C1418 C1416 1.381 . S
C1418 C1419 1.394 . S
C1418 H1426 0.930 . S
C1419 C1418 1.394 . S
C1419 C1420 1.383 . S
C1419 H1427 0.929 . S
C1420 C1419 1.383 . S
C1420 C1421 1.377 . S
C1421 H1405 0.930 . S
C1421 C1420 1.377 . S
C1421 C1422 1.379 . S
C1422 H1406 0.931 . S
C1422 C1416 1.383 . S
C1422 C1421 1.379 . S
H1423 C1417 0.959 . S
H1424 C1417 0.961 . S
H1425 C1417 0.960 . S
H1426 C1418 0.930 . S
H1427 C1419 0.929 . S
H1428 C1436 0.929 . S
H1429 C1438 0.930 . S
H1430 C1440 0.930 . S
H1431 C1443 0.929 . S
H1432 C1446 0.930 . S
H1433 C1448 0.960 . S
H1434 C1448 0.960 . S
H1435 C1448 0.960 . S
C1436 H1428 0.929 . S
C1436 C1437 1.377 . S
C1436 C1438 1.384 . S
C1437 C1436 1.377 . S
C1437 C1443 1.390 . S
C1438 H1429 0.930 . S
C1438 C1436 1.384 . S
C1438 C1439 1.372 . S
C1439 C1438 1.372 . S
C1439 C1440 1.400 . S
C1439 C1444 1.490 . S
C1440 H1430 0.930 . S
C1440 C1439 1.400 . S
C1440 C1443 1.386 . S
H1441 C1457 0.930 . S
H1442 C1458 0.931 . S
C1443 H1431 0.929 . S
C1443 C1437 1.390 . S
C1443 C1440 1.386 . S
C1444 C1439 1.490 . S
C1444 C1446 1.395 . S
C1444 C1447 1.403 . S
H1445 C1451 0.930 . S
C1446 H1432 0.930 . S
C1446 C1444 1.395 . S
C1446 C1449 1.403 . S
C1447 C1444 1.403 . S
C1447 C1448 1.524 . S
C1447 C1451 1.400 . S
C1448 H1433 0.960 . S
C1448 H1434 0.960 . S
C1448 H1435 0.960 . S
C1448 C1447 1.524 . S
C1449 C1446 1.403 . S
C1449 C1450 1.392 . S
C1449 C1453 1.495 . S
C1450 C1449 1.392 . S
C1450 C1451 1.385 . S
C1450 C1452 1.478 . S
C1451 H1445 0.930 . S
C1451 C1447 1.400 . S
C1451 C1450 1.385 . S
C1452 C1450 1.478 . S
C1452 C1454 1.381 . S
C1452 C1458 1.383 . S
C1453 C1449 1.495 . S
C1453 H1459 0.959 . S
C1453 H1460 0.961 . S
C1453 H1461 0.960 . S
C1454 C1452 1.381 . S
C1454 C1455 1.394 . S
C1454 H1462 0.930 . S
C1455 C1454 1.394 . S
C1455 C1456 1.383 . S
C1455 H1463 0.929 . S
C1456 C1455 1.383 . S
C1456 C1457 1.377 . S
C1457 H1441 0.930 . S
C1457 C1456 1.377 . S
C1457 C1458 1.379 . S
C1458 H1442 0.931 . S
C1458 C1452 1.383 . S
C1458 C1457 1.379 . S
H1459 C1453 0.959 . S
H1460 C1453 0.961 . S
H1461 C1453 0.960 . S
H1462 C1454 0.930 . S
H1463 C1455 0.929 . S
H1464 C1472 0.929 . S
H1465 C1474 0.930 . S
H1466 C1476 0.930 . S
H1467 C1479 0.929 . S
H1468 C1482 0.930 . S
H1469 C1484 0.960 . S
H1470 C1484 0.960 . S
H1471 C1484 0.960 . S
C1472 H1464 0.929 . S
C1472 C1473 1.377 . S
C1472 C1474 1.384 . S
C1473 C1472 1.377 . S
C1473 C1479 1.390 . S
C1474 H1465 0.930 . S
C1474 C1472 1.384 . S
C1474 C1475 1.372 . S
C1475 C1474 1.372 . S
C1475 C1476 1.400 . S
C1475 C1480 1.490 . S
C1476 H1466 0.930 . S
C1476 C1475 1.400 . S
C1476 C1479 1.386 . S
H1477 C1493 0.930 . S
H1478 C1494 0.931 . S
C1479 H1467 0.929 . S
C1479 C1473 1.390 . S
C1479 C1476 1.386 . S
C1480 C1475 1.490 . S
C1480 C1482 1.395 . S
C1480 C1483 1.403 . S
H1481 C1487 0.930 . S
C1482 H1468 0.930 . S
C1482 C1480 1.395 . S
C1482 C1485 1.403 . S
C1483 C1480 1.403 . S
C1483 C1484 1.524 . S
C1483 C1487 1.400 . S
C1484 H1469 0.960 . S
C1484 H1470 0.960 . S
C1484 H1471 0.960 . S
C1484 C1483 1.524 . S
C1485 C1482 1.403 . S
C1485 C1486 1.392 . S
C1485 C1489 1.495 . S
C1486 C1485 1.392 . S
C1486 C1487 1.385 . S
C1486 C1488 1.478 . S
C1487 H1481 0.930 . S
C1487 C1483 1.400 . S
C1487 C1486 1.385 . S
C1488 C1486 1.478 . S
C1488 C1490 1.381 . S
C1488 C1494 1.383 . S
C1489 C1485 1.495 . S
C1489 H1495 0.959 . S
C1489 H1496 0.961 . S
C1489 H1497 0.960 . S
C1490 C1488 1.381 . S
C1490 C1491 1.394 . S
C1490 H1498 0.930 . S
C1491 C1490 1.394 . S
C1491 C1492 1.383 . S
C1491 H1499 0.929 . S
C1492 C1491 1.383 . S
C1492 C1493 1.377 . S
C1493 H1477 0.930 . S
C1493 C1492 1.377 . S
C1493 C1494 1.379 . S
C1494 H1478 0.931 . S
C1494 C1488 1.383 . S
C1494 C1493 1.379 . S
H1495 C1489 0.959 . S
H1496 C1489 0.961 . S
H1497 C1489 0.960 . S
H1498 C1490 0.930 . S
H1499 C1491 0.929 . S
H1500 C1508 0.929 . S
H1501 C1510 0.930 . S
H1502 C1512 0.930 . S
H1503 C1515 0.929 . S
H1504 C1518 0.930 . S
H1505 C1520 0.960 . S
H1506 C1520 0.960 . S
H1507 C1520 0.960 . S
C1508 H1500 0.929 . S
C1508 C1509 1.377 . S
C1508 C1510 1.384 . S
C1509 C1508 1.377 . S
C1509 C1515 1.390 . S
C1510 H1501 0.930 . S
C1510 C1508 1.384 . S
C1510 C1511 1.372 . S
C1511 C1510 1.372 . S
C1511 C1512 1.400 . S
C1511 C1516 1.490 . S
C1512 H1502 0.930 . S
C1512 C1511 1.400 . S
C1512 C1515 1.386 . S
H1513 C1529 0.930 . S
H1514 C1530 0.931 . S
C1515 H1503 0.929 . S
C1515 C1509 1.390 . S
C1515 C1512 1.386 . S
C1516 C1511 1.490 . S
C1516 C1518 1.395 . S
C1516 C1519 1.403 . S
H1517 C1523 0.930 . S
C1518 H1504 0.930 . S
C1518 C1516 1.395 . S
C1518 C1521 1.403 . S
C1519 C1516 1.403 . S
C1519 C1520 1.524 . S
C1519 C1523 1.400 . S
C1520 H1505 0.960 . S
C1520 H1506 0.960 . S
C1520 H1507 0.960 . S
C1520 C1519 1.524 . S
C1521 C1518 1.403 . S
C1521 C1522 1.392 . S
C1521 C1525 1.495 . S
C1522 C1521 1.392 . S
C1522 C1523 1.385 . S
C1522 C1524 1.478 . S
C1523 H1517 0.930 . S
C1523 C1519 1.400 . S
C1523 C1522 1.385 . S
C1524 C1522 1.478 . S
C1524 C1526 1.381 . S
C1524 C1530 1.383 . S
C1525 C1521 1.495 . S
C1525 H1531 0.959 . S
C1525 H1532 0.961 . S
C1525 H1533 0.960 . S
C1526 C1524 1.381 . S
C1526 C1527 1.394 . S
C1526 H1534 0.930 . S
C1527 C1526 1.394 . S
C1527 C1528 1.383 . S
C1527 H1535 0.929 . S
C1528 C1527 1.383 . S
C1528 C1529 1.377 . S
C1529 H1513 0.930 . S
C1529 C1528 1.377 . S
C1529 C1530 1.379 . S
C1530 H1514 0.931 . S
C1530 C1524 1.383 . S
C1530 C1529 1.379 . S
H1531 C1525 0.959 . S
H1532 C1525 0.961 . S
H1533 C1525 0.960 . S
H1534 C1526 0.930 . S
H1535 C1527 0.929 . S
H1536 C1544 0.929 . S
H1537 C1546 0.930 . S
H1538 C1548 0.930 . S
H1539 C1551 0.929 . S
H1540 C1554 0.930 . S
H1541 C1556 0.960 . S
H1542 C1556 0.960 . S
H1543 C1556 0.960 . S
C1544 H1536 0.929 . S
C1544 C1545 1.377 . S
C1544 C1546 1.384 . S
C1545 C1544 1.377 . S
C1545 C1551 1.390 . S
C1546 H1537 0.930 . S
C1546 C1544 1.384 . S
C1546 C1547 1.372 . S
C1547 C1546 1.372 . S
C1547 C1548 1.400 . S
C1547 C1552 1.490 . S
C1548 H1538 0.930 . S
C1548 C1547 1.400 . S
C1548 C1551 1.386 . S
H1549 C1565 0.930 . S
H1550 C1566 0.931 . S
C1551 H1539 0.929 . S
C1551 C1545 1.390 . S
C1551 C1548 1.386 . S
C1552 C1547 1.490 . S
C1552 C1554 1.395 . S
C1552 C1555 1.403 . S
H1553 C1559 0.930 . S
C1554 H1540 0.930 . S
C1554 C1552 1.395 . S
C1554 C1557 1.403 . S
C1555 C1552 1.403 . S
C1555 C1556 1.524 . S
C1555 C1559 1.400 . S
C1556 H1541 0.960 . S
C1556 H1542 0.960 . S
C1556 H1543 0.960 . S
C1556 C1555 1.524 . S
C1557 C1554 1.403 . S
C1557 C1558 1.392 . S
C1557 C1561 1.495 . S
C1558 C1557 1.392 . S
C1558 C1559 1.385 . S
C1558 C1560 1.478 . S
C1559 H1553 0.930 . S
C1559 C1555 1.400 . S
C1559 C1558 1.385 . S
C1560 C1558 1.478 . S
C1560 C1562 1.381 . S
C1560 C1566 1.383 . S
C1561 C1557 1.495 . S
C1561 H1567 0.959 . S
C1561 H1568 0.961 . S
C1561 H1569 0.960 . S
C1562 C1560 1.381 . S
C1562 C1563 1.394 . S
C1562 H1570 0.930 . S
C1563 C1562 1.394 . S
C1563 C1564 1.383 . S
C1563 H1571 0.929 1_554 S
C1564 C1563 1.383 . S
C1564 C1565 1.377 . S
C1565 H1549 0.930 . S
C1565 C1564 1.377 . S
C1565 C1566 1.379 . S
C1566 H1550 0.931 . S
C1566 C1560 1.383 . S
C1566 C1565 1.379 . S
H1567 C1561 0.959 . S
H1568 C1561 0.961 . S
H1569 C1561 0.960 . S
H1570 C1562 0.930 . S
H1571 C1563 0.929 1_556 S
C285 C20 0.624 . S
C304 C204 0.629 . S
C321 C43 0.614 . S
C340 C227 0.591 . S
C357 C66 0.612 . S
C376 C250 0.605 . S
C393 C273 0.624 . S
C412 C89 0.641 . S
C429 C112 0.619 . S
C448 C158 0.642 . S
C465 C181 0.622 . S
C484 C135 0.615 . S
C501 C247 0.876 . S
C520 C17 0.869 . S
C537 C270 0.882 . S
C556 C40 0.848 . S
C573 C63 0.878 . S
C592 C155 0.854 . S
C609 C178 0.887 . S
C628 C86 0.897 . S
C645 C201 0.875 . S
C664 C109 0.882 . S
C681 C132 0.888 . S
C700 C224 0.895 . S
C717 C182 1.121 . S
C736 C21 1.170 . S
C753 C205 1.126 . S
C772 C44 1.077 . S
C789 C228 1.111 . S
C808 C67 1.069 . S
C825 C90 1.119 . S
C844 C251 1.061 . S
C861 C113 1.127 . S
C880 C274 1.087 . S
C897 C136 1.107 . S
C916 C159 1.113 . S
C933 C19 0.720 . S
C952 C88 0.684 . S
C969 C42 0.715 . S
C988 C111 0.696 . S
C1005 C65 0.702 . S
C1024 C134 0.765 . S
C1041 C226 0.716 . S
C1060 C157 0.707 . S
C1077 C180 0.704 . S
C1096 C249 0.759 . S
C1113 C272 0.710 . S
C1132 C203 0.735 . S
C1149 C177 1.332 . S
C1168 C16 1.361 . S
C1185 C200 1.327 1_556 S
C1204 C39 1.303 . S
C1221 C62 1.330 1_554 S
C1240 C223 1.297 . S
C1257 C246 1.326 . S
C1276 C85 1.311 . S
C1293 C269 1.336 1_556 S
C1312 C108 1.351 . S
C1329 C131 1.331 1_554 S
C1348 C154 1.295 . S
C1365 C18 1.443 . S
C1384 C248 1.435 . S
C1401 C41 1.437 . S
C1420 C271 1.433 1_556 S
C1437 C64 1.443 1_554 S
C1456 C156 1.448 . S
C1473 C87 1.442 . S
C1492 C179 1.453 . S
C1509 C110 1.440 . S
C1528 C202 1.453 1_556 S
C1545 C225 1.443 . S
C1564 C133 1.436 1_554 S
