# Generated by pormake.
# Topology fcu, (12)-cn, num edge types: 1
# Building blocks:
#     Node 0, Type 0, BuildingBlock: ENOWUB_clean_sbu_0, # of connection points: 12
#     Node 1, Type 0, BuildingBlock: ENOWUB_clean_sbu_0, # of connection points: 12
#     Node 2, Type 0, BuildingBlock: ENOWUB_clean_sbu_0, # of connection points: 12
#     Node 3, Type 0, BuildingBlock: ENOWUB_clean_sbu_0, # of connection points: 12
#     Edge 4, Type (0, 0), BuildingBlock: CIFDUS_clean_linker_0, # of connection points: 2
#     Edge 5, Type (0, 0), BuildingBlock: CIFDUS_clean_linker_0, # of connection points: 2
#     Edge 6, Type (0, 0), BuildingBlock: CIFDUS_clean_linker_0, # of connection points: 2
#     Edge 7, Type (0, 0), BuildingBlock: CIFDUS_clean_linker_0, # of connection points: 2
#     Edge 8, Type (0, 0), BuildingBlock: CIFDUS_clean_linker_0, # of connection points: 2
#     Edge 9, Type (0, 0), BuildingBlock: CIFDUS_clean_linker_0, # of connection points: 2
#     Edge 10, Type (0, 0), BuildingBlock: CIFDUS_clean_linker_0, # of connection points: 2
#     Edge 11, Type (0, 0), BuildingBlock: CIFDUS_clean_linker_0, # of connection points: 2
#     Edge 12, Type (0, 0), BuildingBlock: CIFDUS_clean_linker_0, # of connection points: 2
#     Edge 13, Type (0, 0), BuildingBlock: CIFDUS_clean_linker_0, # of connection points: 2
#     Edge 14, Type (0, 0), BuildingBlock: CIFDUS_clean_linker_0, # of connection points: 2
#     Edge 15, Type (0, 0), BuildingBlock: CIFDUS_clean_linker_0, # of connection points: 2
#     Edge 16, Type (0, 0), BuildingBlock: CIFDUS_clean_linker_0, # of connection points: 2
#     Edge 17, Type (0, 0), BuildingBlock: CIFDUS_clean_linker_0, # of connection points: 2
#     Edge 18, Type (0, 0), BuildingBlock: CIFDUS_clean_linker_0, # of connection points: 2
#     Edge 19, Type (0, 0), BuildingBlock: CIFDUS_clean_linker_0, # of connection points: 2
#     Edge 20, Type (0, 0), BuildingBlock: CIFDUS_clean_linker_0, # of connection points: 2
#     Edge 21, Type (0, 0), BuildingBlock: CIFDUS_clean_linker_0, # of connection points: 2
#     Edge 22, Type (0, 0), BuildingBlock: CIFDUS_clean_linker_0, # of connection points: 2
#     Edge 23, Type (0, 0), BuildingBlock: CIFDUS_clean_linker_0, # of connection points: 2
#     Edge 24, Type (0, 0), BuildingBlock: CIFDUS_clean_linker_0, # of connection points: 2
#     Edge 25, Type (0, 0), BuildingBlock: CIFDUS_clean_linker_0, # of connection points: 2
#     Edge 26, Type (0, 0), BuildingBlock: CIFDUS_clean_linker_0, # of connection points: 2
#     Edge 27, Type (0, 0), BuildingBlock: CIFDUS_clean_linker_0, # of connection points: 2
# Relax obj value: 0.000
# Max RMSD: 0.000
# Mean RMSD: 0.000
data_MOF--net-fcu--node1-ENOWUB_clean_sbu_0--edge1-CIFDUS_clean_linker_0
_symmetry_space_group_name_H-M    P1
_symmetry_Int_Tables_number       1
_symmetry_cell_setting            triclinic
loop_
_symmetry_equiv_pos_as_xyz
'x, y, z'
_cell_length_a     24.384826
_cell_length_b     24.499627
_cell_length_c     24.449193
_cell_angle_alpha  89.634588
_cell_angle_beta   90.13542
_cell_angle_gamma 90.940231
loop_
_atom_site_label
_atom_site_type_symbol
_atom_site_fract_x
_atom_site_fract_y
_atom_site_fract_z
_atom_type_partial_charge
O0 O 0.14062 0.89483 -0.00692 0.0
O1 O 0.03369 0.92593 0.04144 0.0
O2 O 0.053 0.04713 0.94641 0.0
O3 O 0.05179 0.93784 0.93173 0.0
O4 O 0.03789 0.03381 0.05608 0.0
Zr5 Zr 0.09854 0.98449 0.00098 0.0
Zr6 Zr 0.97196 0.97474 0.09492 0.0
Zr7 Zr 0.98637 0.88044 0.97214 0.0
O8 O 0.92578 0.03566 0.03829 0.0
O9 O 0.93973 0.94074 0.91559 0.0
O10 O 0.9246 0.92881 0.02503 0.0
Zr11 Zr -0.00937 0.09369 -0.00087 0.0
Zr12 Zr 0.0047 0.00115 0.87883 0.0
Zr13 Zr 0.87862 -0.00971 0.96818 0.0
O14 O 0.94205 0.05094 0.9289 0.0
O15 O 0.83715 0.08021 0.97301 0.0
O16 O 0.83286 0.90154 0.95792 0.0
O17 O 0.14367 0.07273 0.01612 0.0
O18 O 0.00965 0.15131 0.92189 0.0
O19 O 0.97215 0.82381 0.05257 0.0
O20 O 0.00019 0.84795 0.8795 0.0
O21 O 0.96733 0.12935 0.08634 0.0
O22 O 0.8754 0.96951 0.12253 0.0
O23 O 0.09755 0.01206 0.84865 0.0
O24 O 0.92701 0.00579 0.81896 0.0
O25 O 0.05476 0.96369 0.15153 0.0
O26 O 0.90686 0.14258 0.98668 0.0
O27 O 0.07087 0.83223 0.98068 0.0
O28 O 0.89954 0.83663 0.95443 0.0
O29 O 0.07672 0.1372 0.02132 0.0
O30 O 0.12848 0.96658 0.093 0.0
O31 O 0.85002 0.00076 0.87282 0.0
O32 O 0.82018 0.98307 0.04748 0.0
O33 O 0.1565 0.00025 0.92087 0.0
C34 C 0.12167 0.84557 0.98713 0.0
O35 O 0.9599 0.05869 0.14788 0.0
O36 O 0.96217 0.88079 0.12576 0.0
C37 C 0.85619 0.12939 0.97906 0.0
C38 C 0.84942 0.85196 0.95297 0.0
C39 C 0.12691 0.12203 0.02279 0.0
C40 C 0.01657 0.14203 0.8708 0.0
C41 C 0.96403 0.83308 0.10374 0.0
C42 C 0.00862 0.86995 0.83205 0.0
C43 C 0.95765 0.10975 0.13414 0.0
C44 C 0.82808 0.97472 0.09897 0.0
C45 C 0.14564 0.01096 0.87019 0.0
C46 C 0.87487 0.00484 0.82623 0.0
C47 C 0.10661 0.96035 0.14056 0.0
O48 O 0.01198 0.92153 0.82221 0.0
O49 O 0.01472 0.09466 0.84816 0.0
O50 O 0.13693 0.39335 0.47099 0.0
O51 O 0.04705 0.43133 0.5382 0.0
O52 O 0.03533 0.53788 0.42601 0.0
O53 O 0.0338 0.42856 0.42823 0.0
O54 O 0.05067 0.54118 0.53602 0.0
Zr55 Zr 0.09643 0.48416 0.4758 0.0
Zr56 Zr 0.00105 0.48735 0.5981 0.0
Zr57 Zr 0.98307 0.37786 0.49214 0.0
O58 O 0.94069 0.54303 0.55079 0.0
O59 O 0.92245 0.42985 0.44152 0.0
O60 O 0.93653 0.43097 0.55482 0.0
Zr61 Zr -0.01098 0.59444 0.4866 0.0
Zr62 Zr 0.97269 0.48201 0.3782 0.0
Zr63 Zr 0.87983 0.48706 0.50362 0.0
O64 O 0.9271 0.53919 0.43903 0.0
O65 O 0.83589 0.5731 0.50925 0.0
O66 O 0.83092 0.40221 0.51302 0.0
O67 O 0.14276 0.57325 0.47405 0.0
O68 O 0.97235 0.6366 0.3987 0.0
O69 O 0.00133 0.33406 0.57805 0.0
O70 O 0.97379 0.32903 0.40876 0.0
O71 O 0.00613 0.64107 0.57298 0.0
O72 O 0.92055 0.49447 0.65558 0.0
O73 O 0.05603 0.48931 0.32268 0.0
O74 O 0.87667 0.48153 0.34853 0.0
O75 O 0.09384 0.47906 0.63024 0.0
O76 O 0.90192 0.63995 0.49992 0.0
O77 O 0.0671 0.33005 0.47977 0.0
O78 O 0.89363 0.33455 0.5022 0.0
O79 O 0.07637 0.63855 0.47158 0.0
O80 O 0.15322 0.47806 0.55758 0.0
O81 O 0.822 0.49102 0.42424 0.0
O82 O 0.84792 0.49693 0.59597 0.0
O83 O 0.12848 0.49104 0.38296 0.0
C84 C 0.11776 0.34378 0.47331 0.0
O85 O 0.01656 0.57525 0.639 0.0
O86 O 0.00949 0.40019 0.64349 0.0
C87 C 0.85198 0.62318 0.50744 0.0
C88 C 0.84463 0.352 0.50964 0.0
C89 C 0.12652 0.62314 0.47075 0.0
C90 C 0.96382 0.62048 0.34927 0.0
C91 C 0.0103 0.35033 0.62718 0.0
C92 C 0.97017 0.341 0.35778 0.0
C93 C 0.01589 0.62524 0.62255 0.0
C94 C 0.8692 0.49912 0.64413 0.0
C95 C 0.1077 0.49321 0.33452 0.0
C96 C 0.82981 0.48713 0.37248 0.0
C97 C 0.14193 0.47553 0.60909 0.0
O98 O 0.96852 0.39003 0.33751 0.0
O99 O 0.96316 0.57031 0.33317 0.0
O100 O 0.6287 0.97272 0.38141 0.0
O101 O 0.53452 0.03739 0.41717 0.0
O102 O 0.55704 0.94256 0.54268 0.0
O103 O 0.53889 0.92842 0.43326 0.0
O104 O 0.551 0.05277 0.52704 0.0
Zr105 Zr 0.59818 -0.00718 0.47232 0.0
Zr106 Zr 0.48626 0.09616 0.47318 0.0
Zr107 Zr 0.47273 0.97289 0.38109 0.0
O108 O 0.44144 0.04907 0.54399 0.0
O109 O 0.42963 0.92466 0.45169 0.0
O110 O 0.42425 0.0333 0.4357 0.0
Zr111 Zr 0.5064 0.00254 0.5951 0.0
Zr112 Zr 0.49619 0.87974 0.50342 0.0
Zr113 Zr 0.38103 0.98496 0.50674 0.0
O114 O 0.44579 0.93813 0.55872 0.0
O115 O 0.35238 -0.00838 0.60189 0.0
O116 O 0.32126 0.9772 0.42835 0.0
O117 O 0.65629 0.01391 0.55133 0.0
O118 O 0.52049 0.92299 0.65214 0.0
O119 O 0.46365 0.05263 0.32363 0.0
O120 O 0.46643 0.87933 0.35135 0.0
O121 O 0.50766 0.0958 0.62615 0.0
O122 O 0.40015 0.13931 0.48657 0.0
O123 O 0.5874 0.84098 0.49585 0.0
O124 O 0.41127 0.83118 0.52072 0.0
O125 O 0.57196 0.14328 0.45368 0.0
O126 O 0.42919 0.00017 0.6558 0.0
O127 O 0.55462 0.96333 0.32389 0.0
O128 O 0.37616 0.96604 0.35319 0.0
O129 O 0.59834 0.02082 0.62456 0.0
O130 O 0.63883 0.07902 0.447 0.0
O131 O 0.34175 0.89334 0.51744 0.0
O132 O 0.3349 0.07336 0.50574 0.0
O133 O 0.64907 0.91074 0.47972 0.0
C134 C 0.60667 0.96329 0.33448 0.0
O135 O 0.49971 0.15376 0.55281 0.0
O136 O 0.46789 0.12671 0.38043 0.0
C137 C 0.37713 -0.00391 0.64849 0.0
C138 C 0.32888 0.9699 0.37682 0.0
C139 C 0.64586 0.02361 0.60212 0.0
C140 C 0.52032 0.87123 0.64317 0.0
C141 C 0.46203 0.10422 0.3331 0.0
C142 C 0.47261 0.8316 0.37271 0.0
C143 C 0.50604 0.14376 0.60432 0.0
C144 C 0.3511 0.12349 0.49837 0.0
C145 C 0.63638 0.86027 0.48753 0.0
C146 C 0.36041 0.84438 0.52198 0.0
C147 C 0.62154 0.12823 0.4449 0.0
O148 O 0.48409 0.82207 0.42344 0.0
O149 O 0.51246 0.84853 0.59625 0.0
O150 O 0.63824 0.39446 0.01401 0.0
O151 O 0.53096 0.43104 0.05382 0.0
O152 O 0.55671 0.54128 0.94507 0.0
O153 O 0.55339 0.43058 0.94471 0.0
O154 O 0.53547 0.5415 0.05415 0.0
Zr155 Zr 0.59738 0.48474 0.00992 0.0
Zr156 Zr 0.46776 0.48736 0.09607 0.0
Zr157 Zr 0.48561 0.37859 -0.01162 0.0
O158 O 0.42511 0.5429 0.03139 0.0
O159 O 0.44365 0.43295 0.92251 0.0
O160 O 0.42212 0.43355 0.03144 0.0
Zr161 Zr 0.49257 0.59551 -0.01182 0.0
Zr162 Zr 0.51146 0.48719 0.88093 0.0
Zr163 Zr 0.3807 0.48893 0.96579 0.0
O164 O 0.44716 0.5433 0.9222 0.0
O165 O 0.34017 0.57936 0.95846 0.0
O166 O 0.33373 0.40021 0.96141 0.0
O167 O 0.644 0.57344 0.01743 0.0
O168 O 0.51497 0.64098 0.90219 0.0
O169 O 0.46321 0.3338 0.07456 0.0
O170 O 0.5041 0.33382 0.90244 0.0
O171 O 0.4744 0.64038 0.07424 0.0
O172 O 0.37093 0.49062 0.11971 0.0
O173 O 0.6081 0.48777 0.85739 0.0
O174 O 0.43566 0.48923 0.81703 0.0
O175 O 0.54584 0.47664 0.15821 0.0
O176 O 0.4092 0.64315 0.96906 0.0
O177 O 0.56888 0.33062 0.00684 0.0
O178 O 0.39941 0.33448 0.9687 0.0
O179 O 0.57869 0.63942 0.00853 0.0
O180 O 0.62262 0.47426 0.10402 0.0
O181 O 0.3575 0.48652 0.86928 0.0
O182 O 0.31762 0.48812 0.04215 0.0
O183 O 0.66108 0.48389 0.93495 0.0
C184 C 0.61951 0.34478 0.01313 0.0
O185 O 0.46355 0.57492 0.14087 0.0
O186 O 0.45032 0.39997 0.13881 0.0
C187 C 0.35887 0.62906 0.96053 0.0
C188 C 0.34983 0.3502 0.96208 0.0
C189 C 0.62803 0.62351 0.01645 0.0
C190 C 0.5257 0.62493 0.85322 0.0
C191 C 0.4514 0.3499 0.12325 0.0
C192 C 0.51465 0.34955 0.85307 0.0
C193 C 0.46594 0.62489 0.1241 0.0
C194 C 0.32428 0.48973 0.09443 0.0
C195 C 0.65453 0.4862 0.88282 0.0
C196 C 0.38321 0.48735 0.82313 0.0
C197 C 0.5979 0.4714 0.15032 0.0
O198 O 0.51853 0.39957 0.83672 0.0
O199 O 0.52612 0.57485 0.83758 0.0
H200 H -0.0045 0.11659 0.23789 0.0
H201 H 0.89217 0.19644 0.11975 0.0
H202 H 0.88691 0.2768 0.1779 0.0
H203 H 0.91814 0.32746 0.25942 0.0
H204 H 0.02205 0.24659 0.37654 0.0
H205 H 0.02132 0.16445 0.32177 0.0
C206 C 0.9707 0.15103 0.2258 0.0
C207 C 0.94445 0.15094 0.17502 0.0
C208 C 0.96912 0.19767 0.25859 0.0
C209 C 0.91291 0.19599 0.15903 0.0
C210 C 0.91023 0.24209 0.19191 0.0
C211 C 0.94082 0.29194 0.27249 0.0
C212 C 0.97063 0.29335 0.32146 0.0
C213 C 0.9396 0.24411 0.24106 0.0
C214 C -0.00093 0.24665 0.33867 0.0
C215 C -0.00152 0.19942 0.30759 0.0
H216 H 0.81585 0.92104 0.19532 0.0
H217 H 0.72918 0.02189 0.07967 0.0
H218 H 0.64905 0.02176 0.13942 0.0
H219 H 0.60666 -0.00044 0.22881 0.0
H220 H 0.69505 0.89972 0.34391 0.0
H221 H 0.77079 0.89199 0.27985 0.0
C222 C 0.77937 0.94286 0.18317 0.0
C223 C 0.7787 0.97197 0.13366 0.0
C224 C 0.73353 0.94258 0.21754 0.0
C225 C 0.73076 -0.00079 0.11782 0.0
C226 C 0.68491 -0.00076 0.15194 0.0
C227 C 0.64199 0.97514 0.23905 0.0
C228 C 0.64574 0.9507 0.2909 0.0
C229 C 0.68613 0.97182 0.20239 0.0
C230 C 0.69176 0.91938 0.30422 0.0
C231 C 0.73514 0.91508 0.26779 0.0
H232 H 0.9326 0.83306 0.20984 0.0
H233 H 0.98374 0.72576 0.08063 0.0
H234 H 0.98397 0.64904 0.14471 0.0
H235 H 0.97707 0.61431 0.23902 0.0
H236 H 0.9287 0.7234 0.3678 0.0
H237 H 0.9201 0.79757 0.30194 0.0
C238 C 0.94361 0.79292 0.19544 0.0
C239 C 0.95885 0.78544 0.14069 0.0
C240 C 0.94456 0.74932 0.23248 0.0
C241 C 0.97206 0.73283 0.12267 0.0
C242 C 0.9724 0.68891 0.1593 0.0
C243 C 0.96408 0.65416 0.25251 0.0
C244 C 0.95437 0.66354 0.30824 0.0
C245 C 0.95985 0.69697 0.21455 0.0
C246 C 0.93744 0.71536 0.3252 0.0
C247 C 0.93231 0.75779 0.28761 0.0
H248 H 0.31575 0.91613 0.28124 0.0
H249 H 0.2305 0.0179 0.39537 0.0
H250 H 0.15032 0.01892 0.33526 0.0
H251 H 0.10755 -0.00262 0.24586 0.0
H252 H 0.19426 0.89556 0.13284 0.0
H253 H 0.26998 0.88724 0.19717 0.0
C254 C 0.27954 0.93836 0.293 0.0
C255 C 0.27931 0.96743 0.34215 0.0
C256 C 0.23361 0.93862 0.25848 0.0
C257 C 0.23172 -0.00478 0.3575 0.0
C258 C 0.18584 -0.00408 0.32315 0.0
C259 C 0.1425 0.97246 0.23608 0.0
C260 C 0.14577 0.94776 0.18461 0.0
C261 C 0.18664 0.96854 0.27301 0.0
C262 C 0.19131 0.91563 0.1721 0.0
C263 C 0.23471 0.91092 0.20871 0.0
H264 H 0.04265 0.76593 0.83438 0.0
H265 H 0.98603 0.89193 0.7248 0.0
H266 H 0.98745 0.82808 0.64847 0.0
H267 H -0.00189 0.73462 0.61482 0.0
H268 H 0.05491 0.60943 0.72581 0.0
H269 H 0.06037 0.67517 0.79948 0.0
C270 C 0.03075 0.77943 0.79375 0.0
C271 C 0.01359 0.83311 0.78525 0.0
C272 C 0.03155 0.74273 0.75034 0.0
C273 C -0.00067 0.85057 0.73228 0.0
C274 C -4e-05 0.81411 0.68869 0.0
C275 C 0.01229 0.72186 0.65492 0.0
C276 C 0.0251 0.66699 0.66487 0.0
C277 C 0.01507 0.75981 0.6975 0.0
C278 C 0.04381 0.65123 0.71707 0.0
C279 C 0.04706 0.68876 0.75937 0.0
H280 H 0.24658 0.96534 0.86774 0.0
H281 H 0.14414 0.08347 0.78718 0.0
H282 H 0.20833 0.09058 0.71143 0.0
H283 H 0.28782 0.05581 0.66344 0.0
H284 H 0.39283 0.93994 0.74314 0.0
H285 H 0.33339 0.93891 0.82394 0.0
C286 C 0.23925 -0.00651 0.83418 0.0
C287 C 0.19055 0.02297 0.8322 0.0
C288 C 0.27602 -0.00312 0.79023 0.0
C289 C 0.18114 0.05957 0.78876 0.0
C290 C 0.2176 0.06359 0.74542 0.0
C291 C 0.29751 0.03052 0.69868 0.0
C292 C 0.34335 -0.0028 0.69756 0.0
C293 C 0.264 0.03096 0.74482 0.0
C294 C 0.35697 0.96549 0.74351 0.0
C295 C 0.32321 0.96498 0.78953 0.0
H296 H 0.00374 0.35864 0.73699 0.0
H297 H 0.04722 0.24835 0.60732 0.0
H298 H 0.06081 0.17549 0.67372 0.0
H299 H 0.05027 0.14102 0.76611 0.0
H300 H 0.00164 0.24943 0.8955 0.0
H301 H 0.00176 0.32591 0.83138 0.0
C302 C 0.01672 0.31883 0.72336 0.0
C303 C 0.02305 0.30829 0.66753 0.0
C304 C 0.02355 0.27698 0.76143 0.0
C305 C 0.04059 0.25685 0.65022 0.0
C306 C 0.0487 0.21531 0.68803 0.0
C307 C 0.03998 0.1814 0.78046 0.0
C308 C 0.02456 0.18938 0.83489 0.0
C309 C 0.03853 0.22456 0.7434 0.0
C310 C 0.01295 0.24217 0.85338 0.0
C311 C 0.01278 0.28586 0.81682 0.0
H312 H 0.74781 0.98117 0.60418 0.0
H313 H 0.64296 0.09571 0.68472 0.0
H314 H 0.70639 0.10165 0.7616 0.0
H315 H 0.78534 0.06545 0.81084 0.0
H316 H 0.89161 0.9521 0.7309 0.0
H317 H 0.8339 0.95407 0.64891 0.0
C318 C 0.73991 0.00855 0.63787 0.0
C319 C 0.69081 0.03724 0.63955 0.0
C320 C 0.77595 0.01089 0.68253 0.0
C321 C 0.68049 0.07264 0.68327 0.0
C322 C 0.71643 0.07584 0.72731 0.0
C323 C 0.79568 0.04138 0.7753 0.0
C324 C 0.84145 0.0079 0.77674 0.0
C325 C 0.76303 0.04342 0.72835 0.0
C326 C 0.85585 0.97779 0.73037 0.0
C327 C 0.82308 0.97899 0.68361 0.0
H328 H 0.25744 0.34428 0.02153 0.0
H329 H 0.35362 0.25673 0.90434 0.0
H330 H 0.29576 0.17525 0.91741 0.0
H331 H 0.21929 0.12877 0.96367 0.0
H332 H 0.12282 0.21592 0.08102 0.0
H333 H 0.18061 0.29753 0.06798 0.0
C334 C 0.26464 0.30768 -0.00202 0.0
C335 C 0.30869 0.30627 0.96141 0.0
C336 C 0.23253 0.26066 0.00714 0.0
C337 C 0.31914 0.25846 0.93214 0.0
C338 C 0.28665 0.21187 0.94009 0.0
C339 C 0.21189 0.16524 0.98734 0.0
C340 C 0.16775 0.16643 0.02384 0.0
C341 C 0.24391 0.21225 0.97823 0.0
C342 C 0.15726 0.21424 0.05319 0.0
C343 C 0.18975 0.26094 0.04527 0.0
H344 H 0.25098 0.6257 0.98634 0.0
H345 H 0.37986 0.73382 0.9279 0.0
H346 H 0.3184 0.8112 0.93269 0.0
H347 H 0.22866 0.84863 0.95609 0.0
H348 H 0.10042 0.74002 0.01521 0.0
H349 H 0.16121 0.66261 0.00805 0.0
C350 C 0.26532 0.66603 0.97383 0.0
C351 C 0.31971 0.67403 0.95681 0.0
C352 C 0.23018 0.71047 0.9776 0.0
C353 C 0.33805 0.72668 0.94141 0.0
C354 C 0.30307 0.771 0.9443 0.0
C355 C 0.21432 0.80809 0.96786 0.0
C356 C 0.16034 0.80009 0.98622 0.0
C357 C 0.24929 0.76351 0.96315 0.0
C358 C 0.14189 0.74722 0.00069 0.0
C359 C 0.17651 0.70285 -0.00346 0.0
H360 H 0.72617 0.34856 0.98273 0.0
H361 H 0.60023 0.24008 0.04672 0.0
H362 H 0.66172 0.16296 0.03946 0.0
H363 H 0.7505 0.12598 0.01282 0.0
H364 H 0.87625 0.23465 0.94889 0.0
H365 H 0.81526 0.31197 0.95762 0.0
C366 C 0.7125 0.3082 -0.00412 0.0
C367 C 0.6589 0.3 0.01523 0.0
C368 C 0.74764 0.26393 -0.00924 0.0
C369 C 0.6414 0.24735 0.03146 0.0
C370 C 0.67638 0.20319 0.02714 0.0
C371 C 0.76419 0.16649 0.0002 0.0
C372 C 0.81745 0.17465 0.97996 0.0
C373 C 0.72929 0.21089 0.00609 0.0
C374 C 0.83524 0.22746 0.96464 0.0
C375 C 0.80055 0.2717 0.96977 0.0
H376 H 0.7583 0.84509 0.01424 0.0
H377 H 0.85243 0.75842 0.89465 0.0
H378 H 0.79529 0.67662 0.90874 0.0
H379 H 0.71965 0.6296 0.95645 0.0
H380 H 0.62491 0.7165 0.07522 0.0
H381 H 0.68255 0.79817 0.06175 0.0
C382 C 0.76528 0.80864 -0.00961 0.0
C383 C 0.80861 0.8076 0.95295 0.0
C384 C 0.73356 0.7615 1e-05 0.0
C385 C 0.81861 0.75992 0.92325 0.0
C386 C 0.78651 0.71311 0.93176 0.0
C387 C 0.71279 0.66607 0.98031 0.0
C388 C 0.66929 0.66725 0.01748 0.0
C389 C 0.74455 0.71319 0.97075 0.0
C390 C 0.65911 0.71493 0.04707 0.0
C391 C 0.69143 0.76164 0.03884 0.0
H392 H 0.66708 0.5438 0.7908 0.0
H393 H 0.75212 0.43549 0.90045 0.0
H394 H 0.83084 0.43452 0.83812 0.0
H395 H 0.87061 0.45768 0.74763 0.0
H396 H 0.78238 0.56485 0.63919 0.0
H397 H 0.70974 0.57375 0.70627 0.0
C398 C 0.70296 0.52009 0.80104 0.0
C399 C 0.70383 0.48888 0.84905 0.0
C400 C 0.74725 0.51959 0.76532 0.0
C401 C 0.75083 0.4595 0.8631 0.0
C402 C 0.79559 0.45885 0.82756 0.0
C403 C 0.83585 0.48358 0.73939 0.0
C404 C 0.83086 0.50967 0.68848 0.0
C405 C 0.79365 0.48776 0.77788 0.0
C406 C 0.78606 0.54344 0.67785 0.0
C407 C 0.74467 0.54864 0.7161 0.0
H408 H 0.2472 0.51481 0.60605 0.0
H409 H 0.1352 0.41247 0.6991 0.0
H410 H 0.20267 0.40357 0.77176 0.0
H411 H 0.28882 0.43187 0.81274 0.0
H412 H 0.40223 0.53527 0.72318 0.0
H413 H 0.33915 0.53643 0.64475 0.0
C414 C 0.23823 0.48996 0.64192 0.0
C415 C 0.18629 0.46523 0.64802 0.0
C416 C 0.277 0.4857 0.68418 0.0
C417 C 0.17473 0.43285 0.69433 0.0
C418 C 0.21318 0.42762 0.73579 0.0
C419 C 0.29978 0.45455 0.77596 0.0
C420 C 0.34915 0.48435 0.77378 0.0
C421 C 0.2636 0.45522 0.73184 0.0
C422 C 0.36392 0.51235 0.72558 0.0
C423 C 0.32791 0.51313 0.68096 0.0
H424 H 0.10583 0.45578 0.22901 0.0
H425 H 0.19884 0.55586 0.34196 0.0
H426 H 0.27236 0.5664 0.27584 0.0
H427 H 0.31394 0.54121 0.18998 0.0
H428 H 0.2241 0.44111 0.07511 0.0
H429 H 0.14546 0.43686 0.13756 0.0
C430 C 0.14189 0.48044 0.23855 0.0
C431 C 0.14749 0.50406 0.29052 0.0
C432 C 0.18473 0.48594 0.20036 0.0
C433 C 0.19422 0.53623 0.30257 0.0
C434 C 0.23626 0.54245 0.26483 0.0
C435 C 0.27704 0.51861 0.17853 0.0
C436 C 0.27488 0.49087 0.12871 0.0
C437 C 0.2326 0.51629 0.21435 0.0
C438 C 0.22654 0.46272 0.11359 0.0
C439 C 0.18175 0.46013 0.14929 0.0
H440 H 0.6103 0.52798 0.24458 0.0
H441 H 0.66738 0.38824 0.15631 0.0
H442 H 0.74532 0.38007 0.21831 0.0
H443 H 0.80265 0.41904 0.29086 0.0
H444 H 0.74608 0.55774 0.38095 0.0
H445 H 0.66285 0.56069 0.3248 0.0
C446 C 0.63895 0.49486 0.24034 0.0
C447 C 0.63373 0.45884 0.19641 0.0
C448 C 0.68447 0.49128 0.27529 0.0
C449 C 0.67113 0.41632 0.19027 0.0
C450 C 0.71586 0.41196 0.2252 0.0
C451 C 0.77201 0.44987 0.29785 0.0
C452 C 0.78046 0.48882 0.3386 0.0
C453 C 0.72405 0.45048 0.26646 0.0
C454 C 0.74022 0.52781 0.34891 0.0
C455 C 0.69268 0.52935 0.31714 0.0
H456 H 0.26235 0.84202 0.4717 0.0
H457 H 0.37125 0.74411 0.56941 0.0
H458 H 0.31009 0.66476 0.55844 0.0
H459 H 0.22575 0.62357 0.52054 0.0
H460 H 0.11819 0.72215 0.42186 0.0
H461 H 0.17961 0.80086 0.4327 0.0
C462 C 0.27216 0.80357 0.49142 0.0
C463 C 0.32059 0.79888 0.52189 0.0
C464 C 0.23779 0.75809 0.48375 0.0
C465 C 0.33374 0.74856 0.54607 0.0
C466 C 0.29911 0.7032 0.53949 0.0
C467 C 0.21642 0.66205 0.50065 0.0
C468 C 0.16784 0.66725 0.4704 0.0
C469 C 0.25131 0.70739 0.50792 0.0
C470 C 0.15552 0.71742 0.44544 0.0
C471 C 0.19033 0.76245 0.45187 0.0
H472 H 0.22271 0.34282 0.50971 0.0
H473 H 0.09749 0.24181 0.43471 0.0
H474 H 0.157 0.16306 0.43918 0.0
H475 H 0.24511 0.12262 0.46455 0.0
H476 H 0.36977 0.22358 0.54072 0.0
H477 H 0.30974 0.3021 0.53692 0.0
C478 C 0.20888 0.30374 0.49367 0.0
C479 C 0.1562 0.29824 0.47128 0.0
C480 C 0.24281 0.25829 0.49761 0.0
C481 C 0.13817 0.2471 0.45173 0.0
C482 C 0.17198 0.20193 0.45462 0.0
C483 C 0.25854 0.16162 0.48109 0.0
C484 C 0.31142 0.16754 0.50281 0.0
C485 C 0.22424 0.20691 0.47789 0.0
C486 C 0.32901 0.21835 0.52354 0.0
C487 C 0.29493 0.2633 0.52117 0.0
H488 H 0.85357 0.72745 0.47014 0.0
H489 H 0.75269 0.60831 0.55571 0.0
H490 H 0.677 0.67148 0.55751 0.0
H491 H 0.63815 0.75887 0.53162 0.0
H492 H 0.73783 0.87741 0.44374 0.0
H493 H 0.81509 0.81585 0.44569 0.0
C494 C 0.81528 0.71571 0.48981 0.0
C495 C 0.80874 0.66357 0.51283 0.0
C496 C 0.77143 0.7517 0.48967 0.0
C497 C 0.75871 0.64842 0.53767 0.0
C498 C 0.71527 0.68434 0.53856 0.0
C499 C 0.67666 0.77108 0.51265 0.0
C500 C 0.68222 0.82232 0.48752 0.0
C501 C 0.72093 0.73571 0.51393 0.0
C502 C 0.73258 0.83802 0.4636 0.0
C503 C 0.77684 0.80296 0.46467 0.0
H504 H 0.62354 0.22094 0.50133 0.0
H505 H 0.71528 0.12733 0.3851 0.0
H506 H 0.79517 0.18764 0.398 0.0
H507 H 0.83954 0.26343 0.44624 0.0
H508 H 0.7481 0.35537 0.56415 0.0
H509 H 0.66711 0.29761 0.54803 0.0
C510 C 0.66056 0.21475 0.47773 0.0
C511 C 0.6639 0.17058 0.44199 0.0
C512 C 0.70651 0.24781 0.48711 0.0
C513 C 0.71221 0.16173 0.41251 0.0
C514 C 0.75784 0.1956 0.42037 0.0
C515 C 0.80214 0.27001 0.46911 0.0
C516 C 0.79948 0.31263 0.50679 0.0
C517 C 0.75578 0.23777 0.45866 0.0
C518 C 0.75071 0.32213 0.53529 0.0
C519 C 0.70448 0.28966 0.52571 0.0
H520 H 0.50043 0.35893 0.74334 0.0
H521 H 0.54376 0.24419 0.87064 0.0
H522 H 0.54864 0.17143 0.80347 0.0
H523 H 0.53564 0.13967 0.71073 0.0
H524 H 0.48841 0.25237 0.58296 0.0
H525 H 0.49094 0.32726 0.64859 0.0
C526 C 0.51152 0.31812 0.75626 0.0
C527 C 0.52132 0.30678 0.81185 0.0
C528 C 0.51338 0.27629 0.71763 0.0
C529 C 0.53538 0.25373 0.82813 0.0
C530 C 0.5383 0.21217 0.78981 0.0
C531 C 0.52583 0.18054 0.69692 0.0
C532 C 0.51112 0.19023 0.64212 0.0
C533 C 0.52643 0.22287 0.73475 0.0
C534 C 0.49961 0.24371 0.62498 0.0
C535 C 0.50091 0.2865 0.66248 0.0
H536 H 0.55663 0.76786 0.64178 0.0
H537 H 0.49989 0.89293 0.75062 0.0
H538 H 0.50135 0.82836 0.82712 0.0
H539 H 0.51022 0.73443 0.86061 0.0
H540 H 0.56569 0.60954 0.75045 0.0
H541 H 0.57339 0.67642 0.67692 0.0
C542 C 0.54486 0.78109 0.68231 0.0
C543 C 0.5274 0.83468 0.69047 0.0
C544 C 0.54521 0.74382 0.72574 0.0
C545 C 0.51339 0.8517 0.74335 0.0
C546 C 0.51395 0.81479 0.78702 0.0
C547 C 0.52462 0.7219 0.82075 0.0
C548 C 0.5363 0.66686 0.81088 0.0
C549 C 0.52852 0.76042 0.77834 0.0
C550 C 0.55538 0.65147 0.75901 0.0
C551 C 0.55992 0.68965 0.71686 0.0
H552 H 0.48022 0.61602 0.23405 0.0
H553 H 0.43724 0.73038 0.10623 0.0
H554 H 0.43177 0.80321 0.17317 0.0
H555 H 0.44382 0.83518 0.26587 0.0
H556 H 0.49036 0.72294 0.39436 0.0
H557 H 0.48893 0.64799 0.32882 0.0
C558 C 0.46915 0.65677 0.22093 0.0
C559 C 0.45957 0.6679 0.16523 0.0
C560 C 0.46682 0.69869 0.25949 0.0
C561 C 0.44548 0.72091 0.14878 0.0
C562 C 0.44218 0.76254 0.187 0.0
C563 C 0.45357 0.7944 0.27996 0.0
C564 C 0.46779 0.78493 0.33496 0.0
C565 C 0.45362 0.75199 0.24218 0.0
C566 C 0.47954 0.73152 0.35222 0.0
C567 C 0.47886 0.68867 0.31477 0.0
H568 H 0.42449 0.20712 0.33488 0.0
H569 H 0.48237 0.08295 0.22555 0.0
H570 H 0.47872 0.14725 0.14901 0.0
H571 H 0.46768 0.24072 0.11556 0.0
H572 H 0.41149 0.36494 0.22614 0.0
H573 H 0.40565 0.29808 0.29984 0.0
C574 C 0.43611 0.19403 0.29427 0.0
C575 C 0.45454 0.14081 0.28597 0.0
C576 C 0.43447 0.23112 0.25079 0.0
C577 C 0.46827 0.12394 0.23296 0.0
C578 C 0.46638 0.16066 0.18925 0.0
C579 C 0.45346 0.25311 0.15554 0.0
C580 C 0.44105 0.30794 0.1655 0.0
C581 C 0.45079 0.21469 0.19803 0.0
C582 C 0.42224 0.32314 0.2175 0.0
C583 C 0.41882 0.28499 0.25975 0.0
loop_
_geom_bond_atom_site_label_1
_geom_bond_atom_site_label_2
_geom_bond_distance
_geom_bond_site_symmetry_2
_ccdc_geom_bond_type
O0 Zr5 2.207 1_565 S
O0 C34 1.295 . S
O1 Zr5 2.133 1_565 S
O1 Zr6 2.133 1_565 S
O1 Zr7 2.133 . S
O2 Zr5 2.133 1_556 S
O2 Zr11 2.133 1_556 S
O2 Zr12 2.133 . S
O3 Zr5 2.133 1_566 S
O3 Zr7 2.133 1_556 S
O3 Zr12 2.133 1_565 S
O4 Zr5 2.133 . S
O4 Zr6 2.133 . S
O4 Zr11 2.133 . S
Zr5 O0 2.207 1_545 S
Zr5 O1 2.133 1_545 S
Zr5 O2 2.133 1_554 S
Zr5 O3 2.133 1_544 S
Zr5 O4 2.133 . S
Zr5 O17 2.207 . S
Zr5 O30 2.207 . S
Zr5 O33 2.207 1_554 S
Zr6 O1 2.133 1_545 S
Zr6 O4 2.133 . S
Zr6 O8 2.133 1_455 S
Zr6 O10 2.133 1_445 S
Zr6 O22 2.207 1_455 S
Zr6 O25 2.207 . S
Zr6 O35 2.207 . S
Zr6 O36 2.207 1_545 S
Zr7 O1 2.133 . S
Zr7 O3 2.133 1_554 S
Zr7 O9 2.133 1_454 S
Zr7 O10 2.133 1_455 S
Zr7 O19 2.207 . S
Zr7 O20 2.207 1_554 S
Zr7 O27 2.207 . S
Zr7 O28 2.207 1_455 S
O8 Zr6 2.133 1_655 S
O8 Zr11 2.133 1_655 S
O8 Zr13 2.133 . S
O9 Zr7 2.133 1_656 S
O9 Zr12 2.133 1_665 S
O9 Zr13 2.133 1_566 S
O10 Zr6 2.133 1_665 S
O10 Zr7 2.133 1_655 S
O10 Zr13 2.133 1_565 S
Zr11 O2 2.133 1_554 S
Zr11 O4 2.133 . S
Zr11 O8 2.133 1_455 S
Zr11 O14 2.133 1_454 S
Zr11 O18 2.207 1_554 S
Zr11 O21 2.207 . S
Zr11 O26 2.207 1_455 S
Zr11 O29 2.207 . S
Zr12 O2 2.133 . S
Zr12 O3 2.133 1_545 S
Zr12 O9 2.133 1_445 S
Zr12 O14 2.133 1_455 S
Zr12 O23 2.207 . S
Zr12 O24 2.207 1_455 S
Zr12 O48 2.207 1_545 S
Zr12 O49 2.207 . S
Zr13 O8 2.133 . S
Zr13 O9 2.133 1_544 S
Zr13 O10 2.133 1_545 S
Zr13 O14 2.133 1_554 S
Zr13 O15 2.207 . S
Zr13 O16 2.207 1_545 S
Zr13 O31 2.207 1_554 S
Zr13 O32 2.207 . S
O14 Zr11 2.133 1_656 S
O14 Zr12 2.133 1_655 S
O14 Zr13 2.133 1_556 S
O15 Zr13 2.207 . S
O15 C37 1.295 . S
O16 Zr13 2.207 1_565 S
O16 C38 1.295 . S
O17 Zr5 2.207 . S
O17 C39 1.295 . S
O18 Zr11 2.207 1_556 S
O18 C40 1.295 . S
O19 Zr7 2.207 . S
O19 C41 1.295 . S
O20 Zr7 2.207 1_556 S
O20 C42 1.295 . S
O21 Zr11 2.207 . S
O21 C43 1.295 . S
O22 Zr6 2.207 1_655 S
O22 C44 1.295 . S
O23 Zr12 2.207 . S
O23 C45 1.295 . S
O24 Zr12 2.207 1_655 S
O24 C46 1.295 . S
O25 Zr6 2.207 . S
O25 C47 1.295 . S
O26 Zr11 2.207 1_655 S
O26 C37 1.295 . S
O27 Zr7 2.207 . S
O27 C34 1.295 . S
O28 Zr7 2.207 1_655 S
O28 C38 1.295 . S
O29 Zr11 2.207 . S
O29 C39 1.295 . S
O30 Zr5 2.207 . S
O30 C47 1.295 . S
O31 Zr13 2.207 1_556 S
O31 C46 1.295 . S
O32 Zr13 2.207 . S
O32 C44 1.295 . S
O33 Zr5 2.207 1_556 S
O33 C45 1.295 . S
C34 O0 1.295 . S
C34 O27 1.295 . S
O35 Zr6 2.207 . S
O35 C43 1.295 . S
O36 Zr6 2.207 1_565 S
O36 C41 1.295 . S
C37 O15 1.295 . S
C37 O26 1.295 . S
C38 O16 1.295 . S
C38 O28 1.295 . S
C39 O17 1.295 . S
C39 O29 1.295 . S
C40 O18 1.295 . S
C40 O49 1.295 . S
C41 O19 1.295 . S
C41 O36 1.295 . S
C42 O20 1.295 . S
C42 O48 1.295 . S
C43 O21 1.295 . S
C43 O35 1.295 . S
C44 O22 1.295 . S
C44 O32 1.295 . S
C45 O23 1.295 . S
C45 O33 1.295 . S
C46 O24 1.295 . S
C46 O31 1.295 . S
C47 O25 1.295 . S
C47 O30 1.295 . S
O48 Zr12 2.207 1_565 S
O48 C42 1.295 . S
O49 Zr12 2.207 . S
O49 C40 1.295 . S
O50 Zr55 2.207 . S
O50 C84 1.295 . S
O51 Zr55 2.133 . S
O51 Zr56 2.133 . S
O51 Zr57 2.133 . S
O52 Zr55 2.133 . S
O52 Zr61 2.133 . S
O52 Zr62 2.133 . S
O53 Zr55 2.133 . S
O53 Zr57 2.133 . S
O53 Zr62 2.133 . S
O54 Zr55 2.133 . S
O54 Zr56 2.133 . S
O54 Zr61 2.133 . S
Zr55 O50 2.207 . S
Zr55 O51 2.133 . S
Zr55 O52 2.133 . S
Zr55 O53 2.133 . S
Zr55 O54 2.133 . S
Zr55 O67 2.207 . S
Zr55 O80 2.207 . S
Zr55 O83 2.207 . S
Zr56 O51 2.133 . S
Zr56 O54 2.133 . S
Zr56 O58 2.133 1_455 S
Zr56 O60 2.133 1_455 S
Zr56 O72 2.207 1_455 S
Zr56 O75 2.207 . S
Zr56 O85 2.207 . S
Zr56 O86 2.207 . S
Zr57 O51 2.133 . S
Zr57 O53 2.133 . S
Zr57 O59 2.133 1_455 S
Zr57 O60 2.133 1_455 S
Zr57 O69 2.207 . S
Zr57 O70 2.207 . S
Zr57 O77 2.207 . S
Zr57 O78 2.207 1_455 S
O58 Zr56 2.133 1_655 S
O58 Zr61 2.133 1_655 S
O58 Zr63 2.133 . S
O59 Zr57 2.133 1_655 S
O59 Zr62 2.133 1_655 S
O59 Zr63 2.133 . S
O60 Zr56 2.133 1_655 S
O60 Zr57 2.133 1_655 S
O60 Zr63 2.133 . S
Zr61 O52 2.133 . S
Zr61 O54 2.133 . S
Zr61 O58 2.133 1_455 S
Zr61 O64 2.133 1_455 S
Zr61 O68 2.207 . S
Zr61 O71 2.207 . S
Zr61 O76 2.207 1_455 S
Zr61 O79 2.207 . S
Zr62 O52 2.133 . S
Zr62 O53 2.133 . S
Zr62 O59 2.133 1_455 S
Zr62 O64 2.133 1_455 S
Zr62 O73 2.207 . S
Zr62 O74 2.207 1_455 S
Zr62 O98 2.207 . S
Zr62 O99 2.207 . S
Zr63 O58 2.133 . S
Zr63 O59 2.133 . S
Zr63 O60 2.133 . S
Zr63 O64 2.133 . S
Zr63 O65 2.207 . S
Zr63 O66 2.207 . S
Zr63 O81 2.207 . S
Zr63 O82 2.207 . S
O64 Zr61 2.133 1_655 S
O64 Zr62 2.133 1_655 S
O64 Zr63 2.133 . S
O65 Zr63 2.207 . S
O65 C87 1.295 . S
O66 Zr63 2.207 . S
O66 C88 1.295 . S
O67 Zr55 2.207 . S
O67 C89 1.295 . S
O68 Zr61 2.207 . S
O68 C90 1.295 . S
O69 Zr57 2.207 . S
O69 C91 1.295 . S
O70 Zr57 2.207 . S
O70 C92 1.295 . S
O71 Zr61 2.207 . S
O71 C93 1.295 . S
O72 Zr56 2.207 1_655 S
O72 C94 1.295 . S
O73 Zr62 2.207 . S
O73 C95 1.295 . S
O74 Zr62 2.207 1_655 S
O74 C96 1.295 . S
O75 Zr56 2.207 . S
O75 C97 1.295 . S
O76 Zr61 2.207 1_655 S
O76 C87 1.295 . S
O77 Zr57 2.207 . S
O77 C84 1.295 . S
O78 Zr57 2.207 1_655 S
O78 C88 1.295 . S
O79 Zr61 2.207 . S
O79 C89 1.295 . S
O80 Zr55 2.207 . S
O80 C97 1.295 . S
O81 Zr63 2.207 . S
O81 C96 1.295 . S
O82 Zr63 2.207 . S
O82 C94 1.295 . S
O83 Zr55 2.207 . S
O83 C95 1.295 . S
C84 O50 1.295 . S
C84 O77 1.295 . S
O85 Zr56 2.207 . S
O85 C93 1.295 . S
O86 Zr56 2.207 . S
O86 C91 1.295 . S
C87 O65 1.295 . S
C87 O76 1.295 . S
C88 O66 1.295 . S
C88 O78 1.295 . S
C89 O67 1.295 . S
C89 O79 1.295 . S
C90 O68 1.295 . S
C90 O99 1.295 . S
C91 O69 1.295 . S
C91 O86 1.295 . S
C92 O70 1.295 . S
C92 O98 1.295 . S
C93 O71 1.295 . S
C93 O85 1.295 . S
C94 O72 1.295 . S
C94 O82 1.295 . S
C95 O73 1.295 . S
C95 O83 1.295 . S
C96 O74 1.295 . S
C96 O81 1.295 . S
C97 O75 1.295 . S
C97 O80 1.295 . S
O98 Zr62 2.207 . S
O98 C92 1.295 . S
O99 Zr62 2.207 . S
O99 C90 1.295 . S
O100 Zr105 2.207 . S
O100 C134 1.295 . S
O101 Zr105 2.133 . S
O101 Zr106 2.133 . S
O101 Zr107 2.133 . S
O102 Zr105 2.133 1_565 S
O102 Zr111 2.133 1_565 S
O102 Zr112 2.133 . S
O103 Zr105 2.133 1_565 S
O103 Zr107 2.133 1_565 S
O103 Zr112 2.133 . S
O104 Zr105 2.133 . S
O104 Zr106 2.133 . S
O104 Zr111 2.133 . S
Zr105 O100 2.207 . S
Zr105 O101 2.133 . S
Zr105 O102 2.133 1_545 S
Zr105 O103 2.133 1_545 S
Zr105 O104 2.133 . S
Zr105 O117 2.207 . S
Zr105 O130 2.207 . S
Zr105 O133 2.207 1_545 S
Zr106 O101 2.133 . S
Zr106 O104 2.133 . S
Zr106 O108 2.133 . S
Zr106 O110 2.133 . S
Zr106 O122 2.207 . S
Zr106 O125 2.207 . S
Zr106 O135 2.207 . S
Zr106 O136 2.207 . S
Zr107 O101 2.133 . S
Zr107 O103 2.133 1_545 S
Zr107 O109 2.133 1_545 S
Zr107 O110 2.133 . S
Zr107 O119 2.207 . S
Zr107 O120 2.207 1_545 S
Zr107 O127 2.207 . S
Zr107 O128 2.207 . S
O108 Zr106 2.133 . S
O108 Zr111 2.133 . S
O108 Zr113 2.133 . S
O109 Zr107 2.133 1_565 S
O109 Zr112 2.133 . S
O109 Zr113 2.133 1_565 S
O110 Zr106 2.133 . S
O110 Zr107 2.133 . S
O110 Zr113 2.133 . S
Zr111 O102 2.133 1_545 S
Zr111 O104 2.133 . S
Zr111 O108 2.133 . S
Zr111 O114 2.133 1_545 S
Zr111 O118 2.207 1_545 S
Zr111 O121 2.207 . S
Zr111 O126 2.207 . S
Zr111 O129 2.207 . S
Zr112 O102 2.133 . S
Zr112 O103 2.133 . S
Zr112 O109 2.133 . S
Zr112 O114 2.133 . S
Zr112 O123 2.207 . S
Zr112 O124 2.207 . S
Zr112 O148 2.207 . S
Zr112 O149 2.207 . S
Zr113 O108 2.133 . S
Zr113 O109 2.133 1_545 S
Zr113 O110 2.133 . S
Zr113 O114 2.133 1_545 S
Zr113 O115 2.207 . S
Zr113 O116 2.207 . S
Zr113 O131 2.207 1_545 S
Zr113 O132 2.207 . S
O114 Zr111 2.133 1_565 S
O114 Zr112 2.133 . S
O114 Zr113 2.133 1_565 S
O115 Zr113 2.207 . S
O115 C137 1.295 . S
O116 Zr113 2.207 . S
O116 C138 1.295 . S
O117 Zr105 2.207 . S
O117 C139 1.295 . S
O118 Zr111 2.207 1_565 S
O118 C140 1.295 . S
O119 Zr107 2.207 . S
O119 C141 1.295 . S
O120 Zr107 2.207 1_565 S
O120 C142 1.295 . S
O121 Zr111 2.207 . S
O121 C143 1.295 . S
O122 Zr106 2.207 . S
O122 C144 1.295 . S
O123 Zr112 2.207 . S
O123 C145 1.295 . S
O124 Zr112 2.207 . S
O124 C146 1.295 . S
O125 Zr106 2.207 . S
O125 C147 1.295 . S
O126 Zr111 2.207 . S
O126 C137 1.295 . S
O127 Zr107 2.207 . S
O127 C134 1.295 . S
O128 Zr107 2.207 . S
O128 C138 1.295 . S
O129 Zr111 2.207 . S
O129 C139 1.295 . S
O130 Zr105 2.207 . S
O130 C147 1.295 . S
O131 Zr113 2.207 1_565 S
O131 C146 1.295 . S
O132 Zr113 2.207 . S
O132 C144 1.295 . S
O133 Zr105 2.207 1_565 S
O133 C145 1.295 . S
C134 O100 1.295 . S
C134 O127 1.295 . S
O135 Zr106 2.207 . S
O135 C143 1.295 . S
O136 Zr106 2.207 . S
O136 C141 1.295 . S
C137 O115 1.295 . S
C137 O126 1.295 . S
C138 O116 1.295 . S
C138 O128 1.295 . S
C139 O117 1.295 . S
C139 O129 1.295 . S
C140 O118 1.295 . S
C140 O149 1.295 . S
C141 O119 1.295 . S
C141 O136 1.295 . S
C142 O120 1.295 . S
C142 O148 1.295 . S
C143 O121 1.295 . S
C143 O135 1.295 . S
C144 O122 1.295 . S
C144 O132 1.295 . S
C145 O123 1.295 . S
C145 O133 1.295 . S
C146 O124 1.295 . S
C146 O131 1.295 . S
C147 O125 1.295 . S
C147 O130 1.295 . S
O148 Zr112 2.207 . S
O148 C142 1.295 . S
O149 Zr112 2.207 . S
O149 C140 1.295 . S
O150 Zr155 2.207 . S
O150 C184 1.295 . S
O151 Zr155 2.133 . S
O151 Zr156 2.133 . S
O151 Zr157 2.133 . S
O152 Zr155 2.133 1_556 S
O152 Zr161 2.133 1_556 S
O152 Zr162 2.133 . S
O153 Zr155 2.133 1_556 S
O153 Zr157 2.133 1_556 S
O153 Zr162 2.133 . S
O154 Zr155 2.133 . S
O154 Zr156 2.133 . S
O154 Zr161 2.133 . S
Zr155 O150 2.207 . S
Zr155 O151 2.133 . S
Zr155 O152 2.133 1_554 S
Zr155 O153 2.133 1_554 S
Zr155 O154 2.133 . S
Zr155 O167 2.207 . S
Zr155 O180 2.207 . S
Zr155 O183 2.207 1_554 S
Zr156 O151 2.133 . S
Zr156 O154 2.133 . S
Zr156 O158 2.133 . S
Zr156 O160 2.133 . S
Zr156 O172 2.207 . S
Zr156 O175 2.207 . S
Zr156 O185 2.207 . S
Zr156 O186 2.207 . S
Zr157 O151 2.133 . S
Zr157 O153 2.133 1_554 S
Zr157 O159 2.133 1_554 S
Zr157 O160 2.133 . S
Zr157 O169 2.207 . S
Zr157 O170 2.207 1_554 S
Zr157 O177 2.207 . S
Zr157 O178 2.207 . S
O158 Zr156 2.133 . S
O158 Zr161 2.133 . S
O158 Zr163 2.133 . S
O159 Zr157 2.133 1_556 S
O159 Zr162 2.133 . S
O159 Zr163 2.133 1_556 S
O160 Zr156 2.133 . S
O160 Zr157 2.133 . S
O160 Zr163 2.133 . S
Zr161 O152 2.133 1_554 S
Zr161 O154 2.133 . S
Zr161 O158 2.133 . S
Zr161 O164 2.133 1_554 S
Zr161 O168 2.207 1_554 S
Zr161 O171 2.207 . S
Zr161 O176 2.207 . S
Zr161 O179 2.207 . S
Zr162 O152 2.133 . S
Zr162 O153 2.133 . S
Zr162 O159 2.133 . S
Zr162 O164 2.133 . S
Zr162 O173 2.207 . S
Zr162 O174 2.207 . S
Zr162 O198 2.207 . S
Zr162 O199 2.207 . S
Zr163 O158 2.133 . S
Zr163 O159 2.133 1_554 S
Zr163 O160 2.133 . S
Zr163 O164 2.133 1_554 S
Zr163 O165 2.207 . S
Zr163 O166 2.207 . S
Zr163 O181 2.207 1_554 S
Zr163 O182 2.207 . S
O164 Zr161 2.133 1_556 S
O164 Zr162 2.133 . S
O164 Zr163 2.133 1_556 S
O165 Zr163 2.207 . S
O165 C187 1.295 . S
O166 Zr163 2.207 . S
O166 C188 1.295 . S
O167 Zr155 2.207 . S
O167 C189 1.295 . S
O168 Zr161 2.207 1_556 S
O168 C190 1.295 . S
O169 Zr157 2.207 . S
O169 C191 1.295 . S
O170 Zr157 2.207 1_556 S
O170 C192 1.295 . S
O171 Zr161 2.207 . S
O171 C193 1.295 . S
O172 Zr156 2.207 . S
O172 C194 1.295 . S
O173 Zr162 2.207 . S
O173 C195 1.295 . S
O174 Zr162 2.207 . S
O174 C196 1.295 . S
O175 Zr156 2.207 . S
O175 C197 1.295 . S
O176 Zr161 2.207 . S
O176 C187 1.295 . S
O177 Zr157 2.207 . S
O177 C184 1.295 . S
O178 Zr157 2.207 . S
O178 C188 1.295 . S
O179 Zr161 2.207 . S
O179 C189 1.295 . S
O180 Zr155 2.207 . S
O180 C197 1.295 . S
O181 Zr163 2.207 1_556 S
O181 C196 1.295 . S
O182 Zr163 2.207 . S
O182 C194 1.295 . S
O183 Zr155 2.207 1_556 S
O183 C195 1.295 . S
C184 O150 1.295 . S
C184 O177 1.295 . S
O185 Zr156 2.207 . S
O185 C193 1.295 . S
O186 Zr156 2.207 . S
O186 C191 1.295 . S
C187 O165 1.295 . S
C187 O176 1.295 . S
C188 O166 1.295 . S
C188 O178 1.295 . S
C189 O167 1.295 . S
C189 O179 1.295 . S
C190 O168 1.295 . S
C190 O199 1.295 . S
C191 O169 1.295 . S
C191 O186 1.295 . S
C192 O170 1.295 . S
C192 O198 1.295 . S
C193 O171 1.295 . S
C193 O185 1.295 . S
C194 O172 1.295 . S
C194 O182 1.295 . S
C195 O173 1.295 . S
C195 O183 1.295 . S
C196 O174 1.295 . S
C196 O181 1.295 . S
C197 O175 1.295 . S
C197 O180 1.295 . S
O198 Zr162 2.207 . S
O198 C192 1.295 . S
O199 Zr162 2.207 . S
O199 C190 1.295 . S
H200 C206 0.930 . S
H201 C209 0.930 . S
H202 C210 0.930 . S
H203 C211 0.930 . S
H204 C214 0.930 . S
H205 C215 0.930 . S
C206 H200 0.930 . S
C206 C207 1.355 1_455 S
C206 C208 1.415 . S
C207 C206 1.355 1_655 S
C207 C209 1.419 . S
C208 C206 1.415 . S
C208 C213 1.425 1_455 S
C208 C215 1.409 . S
C209 H201 0.930 . S
C209 C207 1.419 . S
C209 C210 1.362 . S
C210 H202 0.930 . S
C210 C209 1.362 . S
C210 C213 1.409 . S
C211 H203 0.930 . S
C211 C212 1.355 1_655 S
C211 C213 1.415 . S
C212 C211 1.355 1_455 S
C212 C214 1.419 . S
C213 C208 1.425 1_655 S
C213 C210 1.409 . S
C213 C211 1.415 . S
C214 H204 0.930 . S
C214 C212 1.419 . S
C214 C215 1.362 . S
C215 H205 0.930 . S
C215 C208 1.409 . S
C215 C214 1.362 . S
H216 C222 0.930 . S
H217 C225 0.930 1_565 S
H218 C226 0.930 . S
H219 C227 0.930 . S
H220 C230 0.930 1_545 S
H221 C231 0.930 . S
C222 H216 0.930 . S
C222 C223 1.355 . S
C222 C224 1.415 . S
C223 C222 1.355 . S
C223 C225 1.419 . S
C224 C222 1.415 . S
C224 C229 1.425 1_545 S
C224 C231 1.409 . S
C225 H217 0.930 1_545 S
C225 C223 1.419 . S
C225 C226 1.362 1_545 S
C226 H218 0.930 . S
C226 C225 1.362 1_565 S
C226 C229 1.409 . S
C227 H219 0.930 . S
C227 C228 1.355 . S
C227 C229 1.415 . S
C228 C227 1.355 . S
C228 C230 1.419 . S
C229 C224 1.425 1_565 S
C229 C226 1.409 . S
C229 C227 1.415 . S
C230 H220 0.930 1_565 S
C230 C228 1.419 . S
C230 C231 1.362 1_565 S
C231 H221 0.930 . S
C231 C224 1.409 . S
C231 C230 1.362 1_545 S
H232 C238 0.930 . S
H233 C241 0.930 . S
H234 C242 0.930 . S
H235 C243 0.930 . S
H236 C246 0.930 . S
H237 C247 0.930 . S
C238 H232 0.930 . S
C238 C239 1.355 1_655 S
C238 C240 1.415 . S
C239 C238 1.355 1_455 S
C239 C241 1.419 . S
C240 C238 1.415 . S
C240 C245 1.425 1_655 S
C240 C247 1.409 . S
C241 H233 0.930 . S
C241 C239 1.419 . S
C241 C242 1.362 . S
C242 H234 0.930 . S
C242 C241 1.362 . S
C242 C245 1.409 . S
C243 H235 0.930 . S
C243 C244 1.355 1_455 S
C243 C245 1.415 . S
C244 C243 1.355 1_655 S
C244 C246 1.419 . S
C245 C240 1.425 1_455 S
C245 C242 1.409 . S
C245 C243 1.415 . S
C246 H236 0.930 . S
C246 C244 1.419 . S
C246 C247 1.362 . S
C247 H237 0.930 . S
C247 C240 1.409 . S
C247 C246 1.362 . S
H248 C254 0.930 . S
H249 C257 0.930 . S
H250 C258 0.930 . S
H251 C259 0.930 . S
H252 C262 0.930 . S
H253 C263 0.930 . S
C254 H248 0.930 . S
C254 C255 1.355 1_565 S
C254 C256 1.415 . S
C255 C254 1.355 1_545 S
C255 C257 1.419 . S
C256 C254 1.415 . S
C256 C261 1.425 1_565 S
C256 C263 1.409 . S
C257 H249 0.930 . S
C257 C255 1.419 . S
C257 C258 1.362 . S
C258 H250 0.930 . S
C258 C257 1.362 . S
C258 C261 1.409 . S
C259 H251 0.930 . S
C259 C260 1.355 1_545 S
C259 C261 1.415 . S
C260 C259 1.355 1_565 S
C260 C262 1.419 . S
C261 C256 1.425 1_545 S
C261 C258 1.409 . S
C261 C259 1.415 . S
C262 H252 0.930 . S
C262 C260 1.419 . S
C262 C263 1.362 . S
C263 H253 0.930 . S
C263 C256 1.409 . S
C263 C262 1.362 . S
H264 C270 0.930 . S
H265 C273 0.930 . S
H266 C274 0.930 . S
H267 C275 0.930 . S
H268 C278 0.930 . S
H269 C279 0.930 . S
C270 H264 0.930 . S
C270 C271 1.355 1_655 S
C270 C272 1.415 . S
C271 C270 1.355 1_455 S
C271 C273 1.419 . S
C272 C270 1.415 . S
C272 C277 1.425 1_655 S
C272 C279 1.409 . S
C273 H265 0.930 . S
C273 C271 1.419 . S
C273 C274 1.362 . S
C274 H266 0.930 . S
C274 C273 1.362 . S
C274 C277 1.409 . S
C275 H267 0.930 . S
C275 C276 1.355 1_455 S
C275 C277 1.415 . S
C276 C275 1.355 1_655 S
C276 C278 1.419 . S
C277 C272 1.425 1_455 S
C277 C274 1.409 . S
C277 C275 1.415 . S
C278 H268 0.930 . S
C278 C276 1.419 . S
C278 C279 1.362 . S
C279 H269 0.930 . S
C279 C272 1.409 . S
C279 C278 1.362 . S
H280 C286 0.930 . S
H281 C289 0.930 . S
H282 C290 0.930 . S
H283 C291 0.930 . S
H284 C294 0.930 . S
H285 C295 0.930 . S
C286 H280 0.930 . S
C286 C287 1.357 . S
C286 C288 1.415 . S
C287 C286 1.357 . S
C287 C289 1.416 1_565 S
C288 C286 1.415 . S
C288 C293 1.425 1_565 S
C288 C295 1.409 . S
C289 H281 0.930 . S
C289 C287 1.416 1_545 S
C289 C290 1.362 . S
C290 H282 0.930 . S
C290 C289 1.362 . S
C290 C293 1.409 . S
C291 H283 0.930 . S
C291 C292 1.355 . S
C291 C293 1.415 . S
C292 C291 1.355 . S
C292 C294 1.419 1_545 S
C293 C288 1.425 1_545 S
C293 C290 1.409 . S
C293 C291 1.415 . S
C294 H284 0.930 . S
C294 C292 1.419 1_565 S
C294 C295 1.362 . S
C295 H285 0.930 . S
C295 C288 1.409 . S
C295 C294 1.362 . S
H296 C302 0.930 . S
H297 C305 0.930 . S
H298 C306 0.930 . S
H299 C307 0.930 . S
H300 C310 0.930 . S
H301 C311 0.930 . S
C302 H296 0.930 . S
C302 C303 1.355 1_655 S
C302 C304 1.415 . S
C303 C302 1.355 1_455 S
C303 C305 1.419 . S
C304 C302 1.415 . S
C304 C309 1.425 1_655 S
C304 C311 1.409 . S
C305 H297 0.930 . S
C305 C303 1.419 . S
C305 C306 1.362 . S
C306 H298 0.930 . S
C306 C305 1.362 . S
C306 C309 1.409 . S
C307 H299 0.930 . S
C307 C308 1.355 1_455 S
C307 C309 1.415 . S
C308 C307 1.355 1_655 S
C308 C310 1.419 . S
C309 C304 1.425 1_455 S
C309 C306 1.409 . S
C309 C307 1.415 . S
C310 H300 0.930 . S
C310 C308 1.419 . S
C310 C311 1.362 . S
C311 H301 0.930 . S
C311 C304 1.409 . S
C311 C310 1.362 . S
H312 C318 0.930 . S
H313 C321 0.930 . S
H314 C322 0.930 . S
H315 C323 0.930 . S
H316 C326 0.930 . S
H317 C327 0.930 . S
C318 H312 0.930 . S
C318 C319 1.351 1_565 S
C318 C320 1.415 . S
C319 C318 1.351 1_545 S
C319 C321 1.423 . S
C320 C318 1.415 . S
C320 C325 1.425 1_565 S
C320 C327 1.409 . S
C321 H313 0.930 . S
C321 C319 1.423 . S
C321 C322 1.362 . S
C322 H314 0.930 . S
C322 C321 1.362 . S
C322 C325 1.409 . S
C323 H315 0.930 . S
C323 C324 1.353 1_545 S
C323 C325 1.415 . S
C324 C323 1.353 1_565 S
C324 C326 1.422 . S
C325 C320 1.425 1_545 S
C325 C322 1.409 . S
C325 C323 1.415 . S
C326 H316 0.930 . S
C326 C324 1.422 . S
C326 C327 1.362 . S
C327 H317 0.930 . S
C327 C320 1.409 . S
C327 C326 1.362 . S
H328 C334 0.930 . S
H329 C337 0.930 . S
H330 C338 0.930 . S
H331 C339 0.930 . S
H332 C342 0.930 . S
H333 C343 0.930 . S
C334 H328 0.930 . S
C334 C335 1.355 . S
C334 C336 1.415 . S
C335 C334 1.355 . S
C335 C337 1.419 1_554 S
C336 C334 1.415 . S
C336 C341 1.425 1_554 S
C336 C343 1.409 . S
C337 H329 0.930 . S
C337 C335 1.419 1_556 S
C337 C338 1.362 . S
C338 H330 0.930 . S
C338 C337 1.362 . S
C338 C341 1.409 . S
C339 H331 0.930 . S
C339 C340 1.355 . S
C339 C341 1.415 . S
C340 C339 1.355 . S
C340 C342 1.419 1_556 S
C341 C336 1.425 1_556 S
C341 C338 1.409 . S
C341 C339 1.415 . S
C342 H332 0.930 . S
C342 C340 1.419 1_554 S
C342 C343 1.362 . S
C343 H333 0.930 . S
C343 C336 1.409 . S
C343 C342 1.362 . S
H344 C350 0.930 . S
H345 C353 0.930 . S
H346 C354 0.930 . S
H347 C355 0.930 . S
H348 C358 0.930 . S
H349 C359 0.930 . S
C350 H344 0.930 . S
C350 C351 1.355 1_554 S
C350 C352 1.415 . S
C351 C350 1.355 1_556 S
C351 C353 1.419 . S
C352 C350 1.415 . S
C352 C357 1.425 1_554 S
C352 C359 1.409 . S
C353 H345 0.930 . S
C353 C351 1.419 . S
C353 C354 1.362 . S
C354 H346 0.930 . S
C354 C353 1.362 . S
C354 C357 1.409 . S
C355 H347 0.930 . S
C355 C356 1.355 1_556 S
C355 C357 1.415 . S
C356 C355 1.355 1_554 S
C356 C358 1.419 . S
C357 C352 1.425 1_556 S
C357 C354 1.409 . S
C357 C355 1.415 . S
C358 H348 0.930 . S
C358 C356 1.419 . S
C358 C359 1.362 . S
C359 H349 0.930 . S
C359 C352 1.409 . S
C359 C358 1.362 . S
H360 C366 0.930 . S
H361 C369 0.930 . S
H362 C370 0.930 . S
H363 C371 0.930 . S
H364 C374 0.930 . S
H365 C375 0.930 . S
C366 H360 0.930 . S
C366 C367 1.355 1_554 S
C366 C368 1.415 . S
C367 C366 1.355 1_556 S
C367 C369 1.419 . S
C368 C366 1.415 . S
C368 C373 1.425 1_554 S
C368 C375 1.409 . S
C369 H361 0.930 . S
C369 C367 1.419 . S
C369 C370 1.362 . S
C370 H362 0.930 . S
C370 C369 1.362 . S
C370 C373 1.409 . S
C371 H363 0.930 . S
C371 C372 1.355 1_556 S
C371 C373 1.415 . S
C372 C371 1.355 1_554 S
C372 C374 1.419 . S
C373 C368 1.425 1_556 S
C373 C370 1.409 . S
C373 C371 1.415 . S
C374 H364 0.930 . S
C374 C372 1.419 . S
C374 C375 1.362 . S
C375 H365 0.930 . S
C375 C368 1.409 . S
C375 C374 1.362 . S
H376 C382 0.930 . S
H377 C385 0.930 . S
H378 C386 0.930 . S
H379 C387 0.930 . S
H380 C390 0.930 . S
H381 C391 0.930 . S
C382 H376 0.930 . S
C382 C383 1.355 . S
C382 C384 1.415 . S
C383 C382 1.355 . S
C383 C385 1.419 1_554 S
C384 C382 1.415 . S
C384 C389 1.425 1_554 S
C384 C391 1.409 . S
C385 H377 0.930 . S
C385 C383 1.419 1_556 S
C385 C386 1.362 . S
C386 H378 0.930 . S
C386 C385 1.362 . S
C386 C389 1.409 . S
C387 H379 0.930 . S
C387 C388 1.357 . S
C387 C389 1.415 . S
C388 C387 1.357 . S
C388 C390 1.416 1_556 S
C389 C384 1.425 1_556 S
C389 C386 1.409 . S
C389 C387 1.415 . S
C390 H380 0.930 . S
C390 C388 1.416 1_554 S
C390 C391 1.362 . S
C391 H381 0.930 . S
C391 C384 1.409 . S
C391 C390 1.362 . S
H392 C398 0.930 . S
H393 C401 0.930 . S
H394 C402 0.930 . S
H395 C403 0.930 . S
H396 C406 0.930 . S
H397 C407 0.930 . S
C398 H392 0.930 . S
C398 C399 1.355 . S
C398 C400 1.415 . S
C399 C398 1.355 . S
C399 C401 1.419 . S
C400 C398 1.415 . S
C400 C405 1.425 . S
C400 C407 1.409 . S
C401 H393 0.930 . S
C401 C399 1.419 . S
C401 C402 1.362 . S
C402 H394 0.930 . S
C402 C401 1.362 . S
C402 C405 1.409 . S
C403 H395 0.930 . S
C403 C404 1.355 . S
C403 C405 1.415 . S
C404 C403 1.355 . S
C404 C406 1.419 . S
C405 C400 1.425 . S
C405 C402 1.409 . S
C405 C403 1.415 . S
C406 H396 0.930 . S
C406 C404 1.419 . S
C406 C407 1.362 . S
C407 H397 0.930 . S
C407 C400 1.409 . S
C407 C406 1.362 . S
H408 C414 0.930 . S
H409 C417 0.930 . S
H410 C418 0.930 . S
H411 C419 0.930 . S
H412 C422 0.930 . S
H413 C423 0.930 . S
C414 H408 0.930 . S
C414 C415 1.355 . S
C414 C416 1.415 . S
C415 C414 1.355 . S
C415 C417 1.419 . S
C416 C414 1.415 . S
C416 C421 1.425 . S
C416 C423 1.409 . S
C417 H409 0.930 . S
C417 C415 1.419 . S
C417 C418 1.362 . S
C418 H410 0.930 . S
C418 C417 1.362 . S
C418 C421 1.409 . S
C419 H411 0.930 . S
C419 C420 1.355 . S
C419 C421 1.415 . S
C420 C419 1.355 . S
C420 C422 1.419 . S
C421 C416 1.425 . S
C421 C418 1.409 . S
C421 C419 1.415 . S
C422 H412 0.930 . S
C422 C420 1.419 . S
C422 C423 1.362 . S
C423 H413 0.930 . S
C423 C416 1.409 . S
C423 C422 1.362 . S
H424 C430 0.930 . S
H425 C433 0.930 . S
H426 C434 0.930 . S
H427 C435 0.930 . S
H428 C438 0.930 . S
H429 C439 0.930 . S
C430 H424 0.930 . S
C430 C431 1.355 . S
C430 C432 1.415 . S
C431 C430 1.355 . S
C431 C433 1.419 . S
C432 C430 1.415 . S
C432 C437 1.425 . S
C432 C439 1.409 . S
C433 H425 0.930 . S
C433 C431 1.419 . S
C433 C434 1.362 . S
C434 H426 0.930 . S
C434 C433 1.362 . S
C434 C437 1.409 . S
C435 H427 0.930 . S
C435 C436 1.355 . S
C435 C437 1.415 . S
C436 C435 1.355 . S
C436 C438 1.419 . S
C437 C432 1.425 . S
C437 C434 1.409 . S
C437 C435 1.415 . S
C438 H428 0.930 . S
C438 C436 1.419 . S
C438 C439 1.362 . S
C439 H429 0.930 . S
C439 C432 1.409 . S
C439 C438 1.362 . S
H440 C446 0.930 . S
H441 C449 0.930 . S
H442 C450 0.930 . S
H443 C451 0.930 . S
H444 C454 0.930 . S
H445 C455 0.930 . S
C446 H440 0.930 . S
C446 C447 1.355 . S
C446 C448 1.415 . S
C447 C446 1.355 . S
C447 C449 1.419 . S
C448 C446 1.415 . S
C448 C453 1.425 . S
C448 C455 1.409 . S
C449 H441 0.930 . S
C449 C447 1.419 . S
C449 C450 1.362 . S
C450 H442 0.930 . S
C450 C449 1.362 . S
C450 C453 1.409 . S
C451 H443 0.930 . S
C451 C452 1.355 . S
C451 C453 1.415 . S
C452 C451 1.355 . S
C452 C454 1.419 . S
C453 C448 1.425 . S
C453 C450 1.409 . S
C453 C451 1.415 . S
C454 H444 0.930 . S
C454 C452 1.419 . S
C454 C455 1.362 . S
C455 H445 0.930 . S
C455 C448 1.409 . S
C455 C454 1.362 . S
H456 C462 0.930 . S
H457 C465 0.930 . S
H458 C466 0.930 . S
H459 C467 0.930 . S
H460 C470 0.930 . S
H461 C471 0.930 . S
C462 H456 0.930 . S
C462 C463 1.355 . S
C462 C464 1.415 . S
C463 C462 1.355 . S
C463 C465 1.419 . S
C464 C462 1.415 . S
C464 C469 1.425 . S
C464 C471 1.409 . S
C465 H457 0.930 . S
C465 C463 1.419 . S
C465 C466 1.362 . S
C466 H458 0.930 . S
C466 C465 1.362 . S
C466 C469 1.409 . S
C467 H459 0.930 . S
C467 C468 1.355 . S
C467 C469 1.415 . S
C468 C467 1.355 . S
C468 C470 1.419 . S
C469 C464 1.425 . S
C469 C466 1.409 . S
C469 C467 1.415 . S
C470 H460 0.930 . S
C470 C468 1.419 . S
C470 C471 1.362 . S
C471 H461 0.930 . S
C471 C464 1.409 . S
C471 C470 1.362 . S
H472 C478 0.930 . S
H473 C481 0.930 . S
H474 C482 0.930 . S
H475 C483 0.930 . S
H476 C486 0.930 . S
H477 C487 0.930 . S
C478 H472 0.930 . S
C478 C479 1.355 . S
C478 C480 1.415 . S
C479 C478 1.355 . S
C479 C481 1.419 . S
C480 C478 1.415 . S
C480 C485 1.425 . S
C480 C487 1.409 . S
C481 H473 0.930 . S
C481 C479 1.419 . S
C481 C482 1.362 . S
C482 H474 0.930 . S
C482 C481 1.362 . S
C482 C485 1.409 . S
C483 H475 0.930 . S
C483 C484 1.355 . S
C483 C485 1.415 . S
C484 C483 1.355 . S
C484 C486 1.419 . S
C485 C480 1.425 . S
C485 C482 1.409 . S
C485 C483 1.415 . S
C486 H476 0.930 . S
C486 C484 1.419 . S
C486 C487 1.362 . S
C487 H477 0.930 . S
C487 C480 1.409 . S
C487 C486 1.362 . S
H488 C494 0.930 . S
H489 C497 0.930 . S
H490 C498 0.930 . S
H491 C499 0.930 . S
H492 C502 0.930 . S
H493 C503 0.930 . S
C494 H488 0.930 . S
C494 C495 1.355 . S
C494 C496 1.415 . S
C495 C494 1.355 . S
C495 C497 1.419 . S
C496 C494 1.415 . S
C496 C501 1.425 . S
C496 C503 1.409 . S
C497 H489 0.930 . S
C497 C495 1.419 . S
C497 C498 1.362 . S
C498 H490 0.930 . S
C498 C497 1.362 . S
C498 C501 1.409 . S
C499 H491 0.930 . S
C499 C500 1.355 . S
C499 C501 1.415 . S
C500 C499 1.355 . S
C500 C502 1.419 . S
C501 C496 1.425 . S
C501 C498 1.409 . S
C501 C499 1.415 . S
C502 H492 0.930 . S
C502 C500 1.419 . S
C502 C503 1.362 . S
C503 H493 0.930 . S
C503 C496 1.409 . S
C503 C502 1.362 . S
H504 C510 0.930 . S
H505 C513 0.930 . S
H506 C514 0.930 . S
H507 C515 0.930 . S
H508 C518 0.930 . S
H509 C519 0.930 . S
C510 H504 0.930 . S
C510 C511 1.355 . S
C510 C512 1.415 . S
C511 C510 1.355 . S
C511 C513 1.419 . S
C512 C510 1.415 . S
C512 C517 1.425 . S
C512 C519 1.409 . S
C513 H505 0.930 . S
C513 C511 1.419 . S
C513 C514 1.362 . S
C514 H506 0.930 . S
C514 C513 1.362 . S
C514 C517 1.409 . S
C515 H507 0.930 . S
C515 C516 1.355 . S
C515 C517 1.415 . S
C516 C515 1.355 . S
C516 C518 1.419 . S
C517 C512 1.425 . S
C517 C514 1.409 . S
C517 C515 1.415 . S
C518 H508 0.930 . S
C518 C516 1.419 . S
C518 C519 1.362 . S
C519 H509 0.930 . S
C519 C512 1.409 . S
C519 C518 1.362 . S
H520 C526 0.930 . S
H521 C529 0.930 . S
H522 C530 0.930 . S
H523 C531 0.930 . S
H524 C534 0.930 . S
H525 C535 0.930 . S
C526 H520 0.930 . S
C526 C527 1.355 . S
C526 C528 1.415 . S
C527 C526 1.355 . S
C527 C529 1.419 . S
C528 C526 1.415 . S
C528 C533 1.425 . S
C528 C535 1.409 . S
C529 H521 0.930 . S
C529 C527 1.419 . S
C529 C530 1.362 . S
C530 H522 0.930 . S
C530 C529 1.362 . S
C530 C533 1.409 . S
C531 H523 0.930 . S
C531 C532 1.355 . S
C531 C533 1.415 . S
C532 C531 1.355 . S
C532 C534 1.419 . S
C533 C528 1.425 . S
C533 C530 1.409 . S
C533 C531 1.415 . S
C534 H524 0.930 . S
C534 C532 1.419 . S
C534 C535 1.362 . S
C535 H525 0.930 . S
C535 C528 1.409 . S
C535 C534 1.362 . S
H536 C542 0.930 . S
H537 C545 0.930 . S
H538 C546 0.930 . S
H539 C547 0.930 . S
H540 C550 0.930 . S
H541 C551 0.930 . S
C542 H536 0.930 . S
C542 C543 1.355 . S
C542 C544 1.415 . S
C543 C542 1.355 . S
C543 C545 1.419 . S
C544 C542 1.415 . S
C544 C549 1.425 . S
C544 C551 1.409 . S
C545 H537 0.930 . S
C545 C543 1.419 . S
C545 C546 1.362 . S
C546 H538 0.930 . S
C546 C545 1.362 . S
C546 C549 1.409 . S
C547 H539 0.930 . S
C547 C548 1.355 . S
C547 C549 1.415 . S
C548 C547 1.355 . S
C548 C550 1.419 . S
C549 C544 1.425 . S
C549 C546 1.409 . S
C549 C547 1.415 . S
C550 H540 0.930 . S
C550 C548 1.419 . S
C550 C551 1.362 . S
C551 H541 0.930 . S
C551 C544 1.409 . S
C551 C550 1.362 . S
H552 C558 0.930 . S
H553 C561 0.930 . S
H554 C562 0.930 . S
H555 C563 0.930 . S
H556 C566 0.930 . S
H557 C567 0.930 . S
C558 H552 0.930 . S
C558 C559 1.355 . S
C558 C560 1.415 . S
C559 C558 1.355 . S
C559 C561 1.419 . S
C560 C558 1.415 . S
C560 C565 1.425 . S
C560 C567 1.409 . S
C561 H553 0.930 . S
C561 C559 1.419 . S
C561 C562 1.362 . S
C562 H554 0.930 . S
C562 C561 1.362 . S
C562 C565 1.409 . S
C563 H555 0.930 . S
C563 C564 1.355 . S
C563 C565 1.415 . S
C564 C563 1.355 . S
C564 C566 1.419 . S
C565 C560 1.425 . S
C565 C562 1.409 . S
C565 C563 1.415 . S
C566 H556 0.930 . S
C566 C564 1.419 . S
C566 C567 1.362 . S
C567 H557 0.930 . S
C567 C560 1.409 . S
C567 C566 1.362 . S
H568 C574 0.930 . S
H569 C577 0.930 . S
H570 C578 0.930 . S
H571 C579 0.930 . S
H572 C582 0.930 . S
H573 C583 0.930 . S
C574 H568 0.930 . S
C574 C575 1.355 . S
C574 C576 1.415 . S
C575 C574 1.355 . S
C575 C577 1.419 . S
C576 C574 1.415 . S
C576 C581 1.425 . S
C576 C583 1.409 . S
C577 H569 0.930 . S
C577 C575 1.419 . S
C577 C578 1.362 . S
C578 H570 0.930 . S
C578 C577 1.362 . S
C578 C581 1.409 . S
C579 H571 0.930 . S
C579 C580 1.355 . S
C579 C581 1.415 . S
C580 C579 1.355 . S
C580 C582 1.419 . S
C581 C576 1.425 . S
C581 C578 1.409 . S
C581 C579 1.415 . S
C582 H572 0.930 . S
C582 C580 1.419 . S
C582 C583 1.362 . S
C583 H573 0.930 . S
C583 C576 1.409 . S
C583 C582 1.362 . S
C207 C43 1.494 1_655 S
C212 C92 1.490 . S
C223 C44 1.494 . S
C228 C134 1.494 1_565 S
C239 C41 1.494 . S
C244 C90 1.494 1_655 S
C255 C138 1.494 . S
C260 C47 1.490 1_565 S
C271 C42 1.494 . S
C276 C93 1.497 1_655 S
C287 C45 1.494 1_565 S
C292 C137 1.494 . S
C303 C91 1.494 . S
C308 C40 1.494 1_655 S
C319 C139 1.494 . S
C324 C46 1.497 1_565 S
C335 C188 1.494 . S
C340 C39 1.490 1_556 S
C351 C187 1.494 1_556 S
C356 C34 1.494 . S
C367 C184 1.494 1_556 S
C372 C37 1.494 . S
C383 C38 1.494 . S
C388 C189 1.497 1_556 S
C399 C195 1.494 . S
C404 C94 1.497 . S
C415 C97 1.494 . S
C420 C196 1.494 . S
C431 C95 1.494 . S
C436 C194 1.490 . S
C447 C197 1.494 . S
C452 C96 1.494 . S
C463 C146 1.494 . S
C468 C89 1.494 . S
C479 C84 1.494 . S
C484 C144 1.490 . S
C495 C87 1.494 . S
C500 C145 1.497 . S
C511 C147 1.494 . S
C516 C88 1.494 . S
C527 C192 1.494 . S
C532 C143 1.494 . S
C543 C140 1.494 . S
C548 C190 1.497 . S
C559 C193 1.494 . S
C564 C142 1.494 . S
C575 C141 1.494 . S
C580 C191 1.490 . S
