# Generated by pormake.
# Topology flu-e, (6)-cn, num edge types: 1
# Building blocks:
#     Node 0, Type 0, BuildingBlock: IZENUY_clean_sbu_0, # of connection points: 6
#     Node 1, Type 0, BuildingBlock: IZENUY_clean_sbu_0, # of connection points: 6
#     Node 2, Type 0, BuildingBlock: IZENUY_clean_sbu_0, # of connection points: 6
#     Node 3, Type 0, BuildingBlock: IZENUY_clean_sbu_0, # of connection points: 6
#     Node 4, Type 0, BuildingBlock: IZENUY_clean_sbu_0, # of connection points: 6
#     Node 5, Type 0, BuildingBlock: IZENUY_clean_sbu_0, # of connection points: 6
#     Node 6, Type 0, BuildingBlock: IZENUY_clean_sbu_0, # of connection points: 6
#     Node 7, Type 0, BuildingBlock: IZENUY_clean_sbu_0, # of connection points: 6
#     Node 8, Type 0, BuildingBlock: IZENUY_clean_sbu_0, # of connection points: 6
#     Node 9, Type 0, BuildingBlock: IZENUY_clean_sbu_0, # of connection points: 6
#     Node 10, Type 0, BuildingBlock: IZENUY_clean_sbu_0, # of connection points: 6
#     Node 11, Type 0, BuildingBlock: IZENUY_clean_sbu_0, # of connection points: 6
#     Node 12, Type 0, BuildingBlock: IZENUY_clean_sbu_0, # of connection points: 6
#     Node 13, Type 0, BuildingBlock: IZENUY_clean_sbu_0, # of connection points: 6
#     Node 14, Type 0, BuildingBlock: IZENUY_clean_sbu_0, # of connection points: 6
#     Node 15, Type 0, BuildingBlock: IZENUY_clean_sbu_0, # of connection points: 6
#     Node 16, Type 0, BuildingBlock: IZENUY_clean_sbu_0, # of connection points: 6
#     Node 17, Type 0, BuildingBlock: IZENUY_clean_sbu_0, # of connection points: 6
#     Node 18, Type 0, BuildingBlock: IZENUY_clean_sbu_0, # of connection points: 6
#     Node 19, Type 0, BuildingBlock: IZENUY_clean_sbu_0, # of connection points: 6
#     Node 20, Type 0, BuildingBlock: IZENUY_clean_sbu_0, # of connection points: 6
#     Node 21, Type 0, BuildingBlock: IZENUY_clean_sbu_0, # of connection points: 6
#     Node 22, Type 0, BuildingBlock: IZENUY_clean_sbu_0, # of connection points: 6
#     Node 23, Type 0, BuildingBlock: IZENUY_clean_sbu_0, # of connection points: 6
#     Node 24, Type 0, BuildingBlock: IZENUY_clean_sbu_0, # of connection points: 6
#     Node 25, Type 0, BuildingBlock: IZENUY_clean_sbu_0, # of connection points: 6
#     Node 26, Type 0, BuildingBlock: IZENUY_clean_sbu_0, # of connection points: 6
#     Node 27, Type 0, BuildingBlock: IZENUY_clean_sbu_0, # of connection points: 6
#     Node 28, Type 0, BuildingBlock: IZENUY_clean_sbu_0, # of connection points: 6
#     Node 29, Type 0, BuildingBlock: IZENUY_clean_sbu_0, # of connection points: 6
#     Node 30, Type 0, BuildingBlock: IZENUY_clean_sbu_0, # of connection points: 6
#     Node 31, Type 0, BuildingBlock: IZENUY_clean_sbu_0, # of connection points: 6
#     Edge 32, Type (0, 0), BuildingBlock: KIFKEQ_clean_linker_1, # of connection points: 2
#     Edge 33, Type (0, 0), BuildingBlock: KIFKEQ_clean_linker_1, # of connection points: 2
#     Edge 34, Type (0, 0), BuildingBlock: KIFKEQ_clean_linker_1, # of connection points: 2
#     Edge 35, Type (0, 0), BuildingBlock: KIFKEQ_clean_linker_1, # of connection points: 2
#     Edge 36, Type (0, 0), BuildingBlock: KIFKEQ_clean_linker_1, # of connection points: 2
#     Edge 37, Type (0, 0), BuildingBlock: KIFKEQ_clean_linker_1, # of connection points: 2
#     Edge 38, Type (0, 0), BuildingBlock: KIFKEQ_clean_linker_1, # of connection points: 2
#     Edge 39, Type (0, 0), BuildingBlock: KIFKEQ_clean_linker_1, # of connection points: 2
#     Edge 40, Type (0, 0), BuildingBlock: KIFKEQ_clean_linker_1, # of connection points: 2
#     Edge 41, Type (0, 0), BuildingBlock: KIFKEQ_clean_linker_1, # of connection points: 2
#     Edge 42, Type (0, 0), BuildingBlock: KIFKEQ_clean_linker_1, # of connection points: 2
#     Edge 43, Type (0, 0), BuildingBlock: KIFKEQ_clean_linker_1, # of connection points: 2
#     Edge 44, Type (0, 0), BuildingBlock: KIFKEQ_clean_linker_1, # of connection points: 2
#     Edge 45, Type (0, 0), BuildingBlock: KIFKEQ_clean_linker_1, # of connection points: 2
#     Edge 46, Type (0, 0), BuildingBlock: KIFKEQ_clean_linker_1, # of connection points: 2
#     Edge 47, Type (0, 0), BuildingBlock: KIFKEQ_clean_linker_1, # of connection points: 2
#     Edge 48, Type (0, 0), BuildingBlock: KIFKEQ_clean_linker_1, # of connection points: 2
#     Edge 49, Type (0, 0), BuildingBlock: KIFKEQ_clean_linker_1, # of connection points: 2
#     Edge 50, Type (0, 0), BuildingBlock: KIFKEQ_clean_linker_1, # of connection points: 2
#     Edge 51, Type (0, 0), BuildingBlock: KIFKEQ_clean_linker_1, # of connection points: 2
#     Edge 52, Type (0, 0), BuildingBlock: KIFKEQ_clean_linker_1, # of connection points: 2
#     Edge 53, Type (0, 0), BuildingBlock: KIFKEQ_clean_linker_1, # of connection points: 2
#     Edge 54, Type (0, 0), BuildingBlock: KIFKEQ_clean_linker_1, # of connection points: 2
#     Edge 55, Type (0, 0), BuildingBlock: KIFKEQ_clean_linker_1, # of connection points: 2
#     Edge 56, Type (0, 0), BuildingBlock: KIFKEQ_clean_linker_1, # of connection points: 2
#     Edge 57, Type (0, 0), BuildingBlock: KIFKEQ_clean_linker_1, # of connection points: 2
#     Edge 58, Type (0, 0), BuildingBlock: KIFKEQ_clean_linker_1, # of connection points: 2
#     Edge 59, Type (0, 0), BuildingBlock: KIFKEQ_clean_linker_1, # of connection points: 2
#     Edge 60, Type (0, 0), BuildingBlock: KIFKEQ_clean_linker_1, # of connection points: 2
#     Edge 61, Type (0, 0), BuildingBlock: KIFKEQ_clean_linker_1, # of connection points: 2
#     Edge 62, Type (0, 0), BuildingBlock: KIFKEQ_clean_linker_1, # of connection points: 2
#     Edge 63, Type (0, 0), BuildingBlock: KIFKEQ_clean_linker_1, # of connection points: 2
#     Edge 64, Type (0, 0), BuildingBlock: KIFKEQ_clean_linker_1, # of connection points: 2
#     Edge 65, Type (0, 0), BuildingBlock: KIFKEQ_clean_linker_1, # of connection points: 2
#     Edge 66, Type (0, 0), BuildingBlock: KIFKEQ_clean_linker_1, # of connection points: 2
#     Edge 67, Type (0, 0), BuildingBlock: KIFKEQ_clean_linker_1, # of connection points: 2
#     Edge 68, Type (0, 0), BuildingBlock: KIFKEQ_clean_linker_1, # of connection points: 2
#     Edge 69, Type (0, 0), BuildingBlock: KIFKEQ_clean_linker_1, # of connection points: 2
#     Edge 70, Type (0, 0), BuildingBlock: KIFKEQ_clean_linker_1, # of connection points: 2
#     Edge 71, Type (0, 0), BuildingBlock: KIFKEQ_clean_linker_1, # of connection points: 2
#     Edge 72, Type (0, 0), BuildingBlock: KIFKEQ_clean_linker_1, # of connection points: 2
#     Edge 73, Type (0, 0), BuildingBlock: KIFKEQ_clean_linker_1, # of connection points: 2
#     Edge 74, Type (0, 0), BuildingBlock: KIFKEQ_clean_linker_1, # of connection points: 2
#     Edge 75, Type (0, 0), BuildingBlock: KIFKEQ_clean_linker_1, # of connection points: 2
#     Edge 76, Type (0, 0), BuildingBlock: KIFKEQ_clean_linker_1, # of connection points: 2
#     Edge 77, Type (0, 0), BuildingBlock: KIFKEQ_clean_linker_1, # of connection points: 2
#     Edge 78, Type (0, 0), BuildingBlock: KIFKEQ_clean_linker_1, # of connection points: 2
#     Edge 79, Type (0, 0), BuildingBlock: KIFKEQ_clean_linker_1, # of connection points: 2
#     Edge 80, Type (0, 0), BuildingBlock: KIFKEQ_clean_linker_1, # of connection points: 2
#     Edge 81, Type (0, 0), BuildingBlock: KIFKEQ_clean_linker_1, # of connection points: 2
#     Edge 82, Type (0, 0), BuildingBlock: KIFKEQ_clean_linker_1, # of connection points: 2
#     Edge 83, Type (0, 0), BuildingBlock: KIFKEQ_clean_linker_1, # of connection points: 2
#     Edge 84, Type (0, 0), BuildingBlock: KIFKEQ_clean_linker_1, # of connection points: 2
#     Edge 85, Type (0, 0), BuildingBlock: KIFKEQ_clean_linker_1, # of connection points: 2
#     Edge 86, Type (0, 0), BuildingBlock: KIFKEQ_clean_linker_1, # of connection points: 2
#     Edge 87, Type (0, 0), BuildingBlock: KIFKEQ_clean_linker_1, # of connection points: 2
#     Edge 88, Type (0, 0), BuildingBlock: KIFKEQ_clean_linker_1, # of connection points: 2
#     Edge 89, Type (0, 0), BuildingBlock: KIFKEQ_clean_linker_1, # of connection points: 2
#     Edge 90, Type (0, 0), BuildingBlock: KIFKEQ_clean_linker_1, # of connection points: 2
#     Edge 91, Type (0, 0), BuildingBlock: KIFKEQ_clean_linker_1, # of connection points: 2
#     Edge 92, Type (0, 0), BuildingBlock: KIFKEQ_clean_linker_1, # of connection points: 2
#     Edge 93, Type (0, 0), BuildingBlock: KIFKEQ_clean_linker_1, # of connection points: 2
#     Edge 94, Type (0, 0), BuildingBlock: KIFKEQ_clean_linker_1, # of connection points: 2
#     Edge 95, Type (0, 0), BuildingBlock: KIFKEQ_clean_linker_1, # of connection points: 2
#     Edge 96, Type (0, 0), BuildingBlock: KIFKEQ_clean_linker_1, # of connection points: 2
#     Edge 97, Type (0, 0), BuildingBlock: KIFKEQ_clean_linker_1, # of connection points: 2
#     Edge 98, Type (0, 0), BuildingBlock: KIFKEQ_clean_linker_1, # of connection points: 2
#     Edge 99, Type (0, 0), BuildingBlock: KIFKEQ_clean_linker_1, # of connection points: 2
#     Edge 100, Type (0, 0), BuildingBlock: KIFKEQ_clean_linker_1, # of connection points: 2
#     Edge 101, Type (0, 0), BuildingBlock: KIFKEQ_clean_linker_1, # of connection points: 2
#     Edge 102, Type (0, 0), BuildingBlock: KIFKEQ_clean_linker_1, # of connection points: 2
#     Edge 103, Type (0, 0), BuildingBlock: KIFKEQ_clean_linker_1, # of connection points: 2
#     Edge 104, Type (0, 0), BuildingBlock: KIFKEQ_clean_linker_1, # of connection points: 2
#     Edge 105, Type (0, 0), BuildingBlock: KIFKEQ_clean_linker_1, # of connection points: 2
#     Edge 106, Type (0, 0), BuildingBlock: KIFKEQ_clean_linker_1, # of connection points: 2
#     Edge 107, Type (0, 0), BuildingBlock: KIFKEQ_clean_linker_1, # of connection points: 2
#     Edge 108, Type (0, 0), BuildingBlock: KIFKEQ_clean_linker_1, # of connection points: 2
#     Edge 109, Type (0, 0), BuildingBlock: KIFKEQ_clean_linker_1, # of connection points: 2
#     Edge 110, Type (0, 0), BuildingBlock: KIFKEQ_clean_linker_1, # of connection points: 2
#     Edge 111, Type (0, 0), BuildingBlock: KIFKEQ_clean_linker_1, # of connection points: 2
#     Edge 112, Type (0, 0), BuildingBlock: KIFKEQ_clean_linker_1, # of connection points: 2
#     Edge 113, Type (0, 0), BuildingBlock: KIFKEQ_clean_linker_1, # of connection points: 2
#     Edge 114, Type (0, 0), BuildingBlock: KIFKEQ_clean_linker_1, # of connection points: 2
#     Edge 115, Type (0, 0), BuildingBlock: KIFKEQ_clean_linker_1, # of connection points: 2
#     Edge 116, Type (0, 0), BuildingBlock: KIFKEQ_clean_linker_1, # of connection points: 2
#     Edge 117, Type (0, 0), BuildingBlock: KIFKEQ_clean_linker_1, # of connection points: 2
#     Edge 118, Type (0, 0), BuildingBlock: KIFKEQ_clean_linker_1, # of connection points: 2
#     Edge 119, Type (0, 0), BuildingBlock: KIFKEQ_clean_linker_1, # of connection points: 2
#     Edge 120, Type (0, 0), BuildingBlock: KIFKEQ_clean_linker_1, # of connection points: 2
#     Edge 121, Type (0, 0), BuildingBlock: KIFKEQ_clean_linker_1, # of connection points: 2
#     Edge 122, Type (0, 0), BuildingBlock: KIFKEQ_clean_linker_1, # of connection points: 2
#     Edge 123, Type (0, 0), BuildingBlock: KIFKEQ_clean_linker_1, # of connection points: 2
#     Edge 124, Type (0, 0), BuildingBlock: KIFKEQ_clean_linker_1, # of connection points: 2
#     Edge 125, Type (0, 0), BuildingBlock: KIFKEQ_clean_linker_1, # of connection points: 2
#     Edge 126, Type (0, 0), BuildingBlock: KIFKEQ_clean_linker_1, # of connection points: 2
#     Edge 127, Type (0, 0), BuildingBlock: KIFKEQ_clean_linker_1, # of connection points: 2
# Relax obj value: 0.166
# Max RMSD: 0.166
# Mean RMSD: 0.166
data_MOF--net-flu-e--node1-IZENUY_clean_sbu_0--edge1-KIFKEQ_clean_linker_1
_symmetry_space_group_name_H-M    P1
_symmetry_Int_Tables_number       1
_symmetry_cell_setting            triclinic
loop_
_symmetry_equiv_pos_as_xyz
'x, y, z'
_cell_length_a     54.346548
_cell_length_b     54.348888
_cell_length_c     54.343698
_cell_angle_alpha  90.00542
_cell_angle_beta   90.004984
_cell_angle_gamma 89.99503
loop_
_atom_site_label
_atom_site_type_symbol
_atom_site_fract_x
_atom_site_fract_y
_atom_site_fract_z
_atom_type_partial_charge
Fe0 Fe 0.13876 0.17976 0.36976 0.0
Fe1 Fe 0.18031 0.14153 0.37198 0.0
O2 O 0.15335 0.15316 0.35783 0.0
Fe3 Fe 0.14119 0.13828 0.33152 0.0
O4 O 0.1452 0.16571 0.31312 0.0
O5 O 0.12836 0.19124 0.33957 0.0
O6 O 0.16618 0.19814 0.36537 0.0
C7 C 0.18712 0.19307 0.37392 0.0
C8 C 0.09846 0.1521 0.35835 0.0
O9 O 0.1919 0.1717 0.38189 0.0
C10 C 0.15383 0.09836 0.35905 0.0
O11 O 0.14668 0.17309 0.402 0.0
O12 O 0.16433 0.13668 0.40085 0.0
O13 O 0.10892 0.14586 0.33845 0.0
O14 O 0.11028 0.16324 0.37491 0.0
C15 C 0.19252 0.13677 0.32345 0.0
O16 O 0.17375 0.10919 0.36451 0.0
O17 O 0.13668 0.1098 0.34837 0.0
C18 C 0.15313 0.15331 0.41258 0.0
O19 O 0.19799 0.14584 0.34408 0.0
O20 O 0.17121 0.12815 0.31957 0.0
C21 C 0.13654 0.1866 0.31822 0.0
Fe22 Fe 0.87031 0.17993 0.37263 0.0
Fe23 Fe 0.87263 0.14023 0.33251 0.0
O24 O 0.85819 0.15297 0.35882 0.0
Fe25 Fe 0.83135 0.13909 0.37107 0.0
O26 O 0.81363 0.16679 0.36597 0.0
O27 O 0.84029 0.19212 0.38262 0.0
O28 O 0.86617 0.1974 0.34453 0.0
C29 C 0.87481 0.19154 0.32381 0.0
C30 C 0.85823 0.15358 0.41361 0.0
O31 O 0.8828 0.16997 0.31993 0.0
C32 C 0.85847 0.09823 0.36038 0.0
O33 O 0.90256 0.17281 0.36512 0.0
O34 O 0.90125 0.13577 0.34898 0.0
O35 O 0.83825 0.14749 0.40317 0.0
O36 O 0.87506 0.1642 0.40165 0.0
C37 C 0.82404 0.13581 0.31973 0.0
O38 O 0.86502 0.10819 0.34032 0.0
O39 O 0.84718 0.11033 0.37665 0.0
C40 C 0.91306 0.15274 0.35951 0.0
O41 O 0.84501 0.14402 0.31423 0.0
O42 O 0.81955 0.12826 0.3413 0.0
C43 C 0.81894 0.18771 0.37438 0.0
Fe44 Fe 0.83198 0.87085 0.37412 0.0
Fe45 Fe 0.86951 0.8719 0.33184 0.0
O46 O 0.85797 0.8582 0.35911 0.0
Fe47 Fe 0.87226 0.83149 0.37114 0.0
O48 O 0.84428 0.81375 0.3675 0.0
O49 O 0.81978 0.84102 0.38458 0.0
O50 O 0.8131 0.86685 0.34696 0.0
C51 C 0.81799 0.87515 0.32588 0.0
C52 C 0.85973 0.85858 0.41404 0.0
O53 O 0.83944 0.88257 0.32067 0.0
C54 C 0.91265 0.85813 0.358 0.0
O55 O 0.83948 0.90289 0.36622 0.0
O56 O 0.87529 0.90082 0.34731 0.0
O57 O 0.86515 0.83854 0.40345 0.0
O58 O 0.84906 0.87555 0.40239 0.0
C59 C 0.87318 0.82322 0.31982 0.0
O60 O 0.90176 0.86369 0.33811 0.0
O61 O 0.90117 0.84769 0.37529 0.0
C62 C 0.8593 0.91289 0.35904 0.0
O63 O 0.86429 0.84394 0.3144 0.0
O64 O 0.88187 0.81928 0.34108 0.0
C65 C 0.82362 0.81952 0.37636 0.0
Fe66 Fe 0.14107 0.87257 0.33198 0.0
Fe67 Fe 0.17989 0.87011 0.37296 0.0
O68 O 0.15309 0.85812 0.3587 0.0
Fe69 Fe 0.13861 0.83153 0.3709 0.0
O70 O 0.12878 0.81939 0.34083 0.0
O71 O 0.145 0.84491 0.31394 0.0
O72 O 0.1712 0.88259 0.32005 0.0
C73 C 0.19254 0.87431 0.32448 0.0
C74 C 0.09821 0.8588 0.35871 0.0
O75 O 0.19774 0.86556 0.34528 0.0
C76 C 0.15255 0.85874 0.4135 0.0
O77 O 0.1364 0.90126 0.34818 0.0
O78 O 0.17305 0.90237 0.36525 0.0
O79 O 0.10988 0.84772 0.3754 0.0
O80 O 0.10877 0.86515 0.33891 0.0
C81 C 0.18707 0.81863 0.37567 0.0
O82 O 0.16385 0.87518 0.40167 0.0
O83 O 0.14598 0.83887 0.40315 0.0
C84 C 0.15314 0.91293 0.35919 0.0
O85 O 0.19174 0.84015 0.38326 0.0
O86 O 0.1662 0.81333 0.36714 0.0
C87 C 0.13647 0.82403 0.3193 0.0
Fe88 Fe 0.14057 0.832 0.64171 0.0
Fe89 Fe 0.1809 0.87141 0.63954 0.0
O90 O 0.15431 0.85902 0.65376 0.0
Fe91 Fe 0.14171 0.87336 0.68018 0.0
O92 O 0.14583 0.84573 0.69847 0.0
O93 O 0.12987 0.8203 0.6715 0.0
O94 O 0.1685 0.81448 0.64667 0.0
C95 C 0.18929 0.82011 0.63805 0.0
C96 C 0.09963 0.85901 0.65252 0.0
O97 O 0.19326 0.84149 0.62966 0.0
C98 C 0.15358 0.91394 0.65297 0.0
O99 O 0.14881 0.83865 0.60962 0.0
O100 O 0.16467 0.87582 0.61064 0.0
O101 O 0.1097 0.86547 0.67257 0.0
O102 O 0.1117 0.84774 0.63619 0.0
C103 C 0.19308 0.87604 0.68827 0.0
O104 O 0.17358 0.90357 0.64699 0.0
O105 O 0.13687 0.90204 0.66382 0.0
C106 C 0.15431 0.85863 0.59895 0.0
O107 O 0.19881 0.86761 0.66742 0.0
O108 O 0.17148 0.88374 0.69248 0.0
C109 C 0.13749 0.82478 0.69303 0.0
Fe110 Fe 0.14003 0.14217 0.67958 0.0
Fe111 Fe 0.18082 0.1399 0.64057 0.0
O112 O 0.15419 0.15417 0.65278 0.0
Fe113 Fe 0.14195 0.18071 0.63839 0.0
O114 O 0.1465 0.19883 0.66595 0.0
O115 O 0.12982 0.17224 0.6914 0.0
O116 O 0.16786 0.14649 0.69746 0.0
C117 C 0.18866 0.13783 0.69197 0.0
C118 C 0.09933 0.15391 0.65262 0.0
O119 O 0.19288 0.12976 0.67052 0.0
C120 C 0.1536 0.15338 0.59797 0.0
O121 O 0.14776 0.10993 0.67266 0.0
O122 O 0.16456 0.11114 0.63587 0.0
O123 O 0.10979 0.17382 0.64642 0.0
O124 O 0.11122 0.1372 0.6635 0.0
C125 C 0.19325 0.18851 0.6361 0.0
O126 O 0.17366 0.14754 0.60837 0.0
O127 O 0.13687 0.16426 0.60983 0.0
C128 C 0.1537 0.09939 0.6527 0.0
O129 O 0.1988 0.16769 0.64471 0.0
O130 O 0.17183 0.19259 0.62788 0.0
C131 C 0.13795 0.19362 0.68685 0.0
Fe132 Fe 0.87125 0.13912 0.68079 0.0
Fe133 Fe 0.87284 0.18028 0.64219 0.0
O134 O 0.85898 0.15328 0.65411 0.0
Fe135 Fe 0.83263 0.14071 0.63963 0.0
O136 O 0.81441 0.14437 0.66732 0.0
O137 O 0.84148 0.12816 0.69251 0.0
O138 O 0.86616 0.16664 0.69879 0.0
C139 C 0.87457 0.1876 0.69364 0.0
C140 C 0.86049 0.09853 0.65334 0.0
O141 O 0.88283 0.19219 0.67233 0.0
C142 C 0.85957 0.15345 0.59922 0.0
O143 O 0.90334 0.14758 0.67401 0.0
O144 O 0.90183 0.16451 0.63731 0.0
O145 O 0.84038 0.1086 0.64708 0.0
O146 O 0.87685 0.11057 0.66458 0.0
C147 C 0.82404 0.19204 0.63779 0.0
O148 O 0.8653 0.1734 0.60988 0.0
O149 O 0.84903 0.13641 0.61093 0.0
C150 C 0.91377 0.15374 0.65406 0.0
O151 O 0.84478 0.19779 0.64645 0.0
O152 O 0.8201 0.17053 0.62966 0.0
C153 C 0.81992 0.13587 0.68818 0.0
Fe154 Fe 0.87153 0.87231 0.68084 0.0
Fe155 Fe 0.83242 0.87067 0.64019 0.0
O156 O 0.8593 0.85842 0.654 0.0
Fe157 Fe 0.87372 0.83211 0.64127 0.0
O158 O 0.88389 0.81958 0.67103 0.0
O159 O 0.86732 0.84429 0.6984 0.0
O160 O 0.84161 0.88237 0.69301 0.0
C161 C 0.82023 0.8741 0.68887 0.0
C162 C 0.91421 0.85901 0.65377 0.0
O163 O 0.8147 0.86565 0.66799 0.0
C164 C 0.85963 0.85999 0.59931 0.0
O165 O 0.87631 0.90128 0.66489 0.0
O166 O 0.83928 0.90268 0.64864 0.0
O167 O 0.90241 0.84857 0.63673 0.0
O168 O 0.90368 0.86462 0.67379 0.0
C169 C 0.82513 0.81935 0.63683 0.0
O170 O 0.8483 0.87627 0.6114 0.0
O171 O 0.86601 0.8399 0.6093 0.0
C172 C 0.8593 0.91316 0.65442 0.0
O173 O 0.82064 0.84094 0.62933 0.0
O174 O 0.84608 0.81383 0.64511 0.0
C175 C 0.87582 0.82351 0.69255 0.0
Fe176 Fe 0.37184 0.13945 0.18057 0.0
Fe177 Fe 0.37382 0.1808 0.14208 0.0
O178 O 0.35946 0.15413 0.15419 0.0
Fe179 Fe 0.3326 0.14217 0.14006 0.0
O180 O 0.3149 0.14631 0.16799 0.0
O181 O 0.34192 0.12921 0.19266 0.0
O182 O 0.36794 0.16692 0.19896 0.0
C183 C 0.37635 0.18787 0.19368 0.0
C184 C 0.35954 0.09928 0.15308 0.0
O185 O 0.384 0.19261 0.17215 0.0
C186 C 0.35961 0.15407 0.09936 0.0
O187 O 0.40399 0.14716 0.1735 0.0
O188 O 0.4025 0.16452 0.13705 0.0
O189 O 0.33952 0.10988 0.14749 0.0
O190 O 0.37646 0.11094 0.16388 0.0
C191 C 0.32533 0.19371 0.13786 0.0
O192 O 0.36601 0.17389 0.10987 0.0
O193 O 0.34853 0.13742 0.11116 0.0
C194 C 0.41438 0.15343 0.1536 0.0
O195 O 0.34626 0.19897 0.14632 0.0
O196 O 0.32063 0.17222 0.13016 0.0
C197 C 0.32048 0.13745 0.18867 0.0
Fe198 Fe 0.87374 0.37075 0.18156 0.0
Fe199 Fe 0.83244 0.37242 0.14311 0.0
O200 O 0.85953 0.35858 0.15486 0.0
Fe201 Fe 0.87208 0.33237 0.14013 0.0
O202 O 0.86861 0.31392 0.16772 0.0
O203 O 0.88455 0.34091 0.19321 0.0
O204 O 0.84616 0.36577 0.19961 0.0
C205 C 0.82526 0.37437 0.19448 0.0
C206 C 0.91433 0.35999 0.15397 0.0
O207 O 0.82075 0.38262 0.17318 0.0
C208 C 0.85888 0.35939 0.09997 0.0
O209 O 0.86539 0.40287 0.1747 0.0
O210 O 0.84824 0.40135 0.13806 0.0
O211 O 0.90418 0.34002 0.14746 0.0
O212 O 0.90237 0.37627 0.1654 0.0
C213 C 0.82076 0.3237 0.1387 0.0
O214 O 0.83896 0.36474 0.11083 0.0
O215 O 0.87619 0.34905 0.11147 0.0
C216 C 0.85915 0.41327 0.15474 0.0
O217 O 0.81502 0.34435 0.14759 0.0
O218 O 0.84218 0.31992 0.13028 0.0
C219 C 0.87701 0.31934 0.18865 0.0
Fe220 Fe 0.68083 0.87333 0.14222 0.0
Fe221 Fe 0.63909 0.87154 0.18031 0.0
O222 O 0.65374 0.85933 0.15384 0.0
Fe223 Fe 0.64158 0.83288 0.13907 0.0
O224 O 0.67172 0.82068 0.1293 0.0
O225 O 0.69832 0.84543 0.14692 0.0
O226 O 0.69237 0.88346 0.17235 0.0
C227 C 0.68741 0.8758 0.19377 0.0
C228 C 0.65446 0.86019 0.09901 0.0
O229 O 0.66642 0.8674 0.1988 0.0
C230 C 0.59885 0.85995 0.15257 0.0
O231 O 0.66512 0.90224 0.13705 0.0
O232 O 0.64685 0.90371 0.17319 0.0
O233 O 0.63739 0.84949 0.1105 0.0
O234 O 0.67439 0.86571 0.10982 0.0
C235 C 0.63642 0.81995 0.18751 0.0
O236 O 0.61058 0.87644 0.16386 0.0
O237 O 0.60928 0.84008 0.1462 0.0
C238 C 0.65365 0.91407 0.1534 0.0
O239 O 0.62885 0.84152 0.19218 0.0
O240 O 0.64501 0.81457 0.16665 0.0
C241 C 0.69299 0.82474 0.13797 0.0
Fe242 Fe 0.13942 0.64175 0.17963 0.0
Fe243 Fe 0.1805 0.63984 0.14085 0.0
O244 O 0.15367 0.65388 0.15294 0.0
Fe245 Fe 0.14135 0.68038 0.13852 0.0
O246 O 0.14568 0.69852 0.16611 0.0
O247 O 0.12918 0.67179 0.19155 0.0
O248 O 0.16718 0.64601 0.19768 0.0
C249 C 0.18808 0.63755 0.19222 0.0
C250 C 0.09878 0.65344 0.15252 0.0
O251 O 0.19244 0.62964 0.17076 0.0
C252 C 0.15335 0.65302 0.0982 0.0
O253 O 0.14715 0.60957 0.17249 0.0
O254 O 0.16461 0.61097 0.13596 0.0
O255 O 0.10919 0.67339 0.1464 0.0
O256 O 0.11068 0.63679 0.16345 0.0
C257 C 0.19258 0.68851 0.13653 0.0
O258 O 0.17347 0.64753 0.10866 0.0
O259 O 0.13649 0.66384 0.10994 0.0
C260 C 0.15345 0.59917 0.15256 0.0
O261 O 0.19821 0.66776 0.14522 0.0
O262 O 0.1712 0.6924 0.12812 0.0
C263 C 0.13718 0.69322 0.18702 0.0
Fe264 Fe 0.33167 0.8709 0.873 0.0
Fe265 Fe 0.37135 0.87236 0.83285 0.0
O266 O 0.35847 0.85827 0.85932 0.0
Fe267 Fe 0.37219 0.83141 0.87191 0.0
O268 O 0.34431 0.8137 0.86746 0.0
O269 O 0.31903 0.84125 0.88294 0.0
O270 O 0.31416 0.86684 0.84493 0.0
C271 C 0.32011 0.87516 0.82413 0.0
C272 C 0.35801 0.85882 0.91414 0.0
O273 O 0.34177 0.88281 0.82016 0.0
C274 C 0.41327 0.85817 0.86074 0.0
O275 O 0.33924 0.90292 0.86535 0.0
O276 O 0.37618 0.90116 0.84904 0.0
O277 O 0.36403 0.83876 0.90388 0.0
O278 O 0.34739 0.87559 0.90209 0.0
C279 C 0.37533 0.8236 0.82054 0.0
O280 O 0.40327 0.86442 0.84062 0.0
O281 O 0.40113 0.84715 0.87716 0.0
C282 C 0.35939 0.91316 0.85967 0.0
O283 O 0.36725 0.84459 0.81485 0.0
O284 O 0.38272 0.81916 0.84219 0.0
C285 C 0.32333 0.81969 0.87528 0.0
Fe286 Fe 0.14131 0.37301 0.83152 0.0
Fe287 Fe 0.17983 0.37111 0.87295 0.0
O288 O 0.15345 0.35877 0.85825 0.0
Fe289 Fe 0.13934 0.33191 0.8702 0.0
O290 O 0.12918 0.32002 0.84017 0.0
O291 O 0.14568 0.34542 0.81348 0.0
O292 O 0.17132 0.38327 0.81965 0.0
C293 C 0.19291 0.37587 0.8245 0.0
C294 C 0.0987 0.3589 0.85852 0.0
O295 O 0.1982 0.36748 0.84545 0.0
C296 C 0.15263 0.35858 0.91318 0.0
O297 O 0.13622 0.40171 0.84758 0.0
O298 O 0.17247 0.40332 0.86551 0.0
O299 O 0.11058 0.34794 0.87518 0.0
O300 O 0.1091 0.36513 0.83856 0.0
C301 C 0.18788 0.31967 0.87449 0.0
O302 O 0.16325 0.37555 0.9015 0.0
O303 O 0.147 0.3386 0.90253 0.0
C304 C 0.1526 0.4136 0.85889 0.0
O305 O 0.19206 0.34103 0.88293 0.0
O306 O 0.16714 0.31428 0.8657 0.0
C307 C 0.13711 0.32457 0.81874 0.0
Fe308 Fe 0.6405 0.1399 0.83089 0.0
Fe309 Fe 0.63861 0.18032 0.8703 0.0
O310 O 0.65288 0.15381 0.85771 0.0
Fe311 Fe 0.67961 0.14143 0.87168 0.0
O312 O 0.69744 0.14559 0.8438 0.0
O313 O 0.67025 0.12953 0.81866 0.0
O314 O 0.64489 0.16784 0.81328 0.0
C315 C 0.63636 0.18862 0.81903 0.0
C316 C 0.65211 0.09906 0.85775 0.0
O317 O 0.62824 0.19259 0.84051 0.0
C318 C 0.65282 0.15313 0.91263 0.0
O319 O 0.60838 0.14776 0.83811 0.0
O320 O 0.60997 0.16392 0.87513 0.0
O321 O 0.67213 0.10932 0.864 0.0
O322 O 0.63553 0.11099 0.8467 0.0
C323 C 0.68722 0.19297 0.87442 0.0
O324 O 0.64653 0.17307 0.90234 0.0
O325 O 0.66372 0.13654 0.90062 0.0
C326 C 0.59805 0.15332 0.85827 0.0
O327 O 0.66622 0.19847 0.86624 0.0
O328 O 0.69191 0.17133 0.88176 0.0
C329 C 0.69181 0.1372 0.82293 0.0
Fe330 Fe 0.87178 0.68017 0.87083 0.0
Fe331 Fe 0.87106 0.63909 0.83204 0.0
O332 O 0.85821 0.65321 0.85846 0.0
Fe333 Fe 0.83153 0.64063 0.87236 0.0
O334 O 0.81899 0.67042 0.88239 0.0
O335 O 0.84382 0.69764 0.86586 0.0
O336 O 0.88257 0.69218 0.84115 0.0
C337 C 0.87512 0.68776 0.81954 0.0
C338 C 0.85774 0.65311 0.91328 0.0
O339 O 0.86694 0.66681 0.81392 0.0
C340 C 0.85915 0.59831 0.85889 0.0
O341 O 0.90071 0.66452 0.87638 0.0
O342 O 0.90298 0.64706 0.83989 0.0
O343 O 0.8475 0.63602 0.90134 0.0
O344 O 0.86339 0.67317 0.90282 0.0
C345 C 0.81977 0.63629 0.82352 0.0
O346 O 0.87591 0.61034 0.84826 0.0
O347 O 0.83903 0.60856 0.86472 0.0
C348 C 0.91291 0.65342 0.86003 0.0
O349 O 0.84142 0.62865 0.81945 0.0
O350 O 0.81387 0.64461 0.84436 0.0
C351 C 0.82298 0.69189 0.87426 0.0
Fe352 Fe 0.18072 0.37377 0.14114 0.0
Fe353 Fe 0.14048 0.37063 0.1805 0.0
O354 O 0.15454 0.35888 0.15355 0.0
Fe355 Fe 0.14265 0.33213 0.1392 0.0
O356 O 0.17279 0.32074 0.12861 0.0
O357 O 0.19924 0.34642 0.1452 0.0
O358 O 0.19283 0.38411 0.17103 0.0
C359 C 0.1891 0.37559 0.1924 0.0
C360 C 0.15367 0.35959 0.09865 0.0
O361 O 0.16851 0.36656 0.19806 0.0
C362 C 0.09979 0.35841 0.15371 0.0
O363 O 0.16378 0.40217 0.13656 0.0
O364 O 0.14776 0.40297 0.17368 0.0
O365 O 0.13721 0.34847 0.11064 0.0
O366 O 0.1736 0.36597 0.10897 0.0
C367 C 0.1388 0.31906 0.18764 0.0
O368 O 0.11148 0.37525 0.16461 0.0
O369 O 0.11046 0.33864 0.14737 0.0
C370 C 0.15316 0.41371 0.15368 0.0
O371 O 0.13081 0.34044 0.19237 0.0
O372 O 0.14734 0.31394 0.1667 0.0
C373 C 0.19418 0.32549 0.13662 0.0
Fe374 Fe 0.18015 0.6415 0.87191 0.0
Fe375 Fe 0.14084 0.64005 0.83147 0.0
O376 O 0.15329 0.65391 0.85823 0.0
Fe377 Fe 0.13903 0.6803 0.87109 0.0
O378 O 0.16666 0.69857 0.86721 0.0
O379 O 0.19227 0.67116 0.88239 0.0
O380 O 0.19778 0.64625 0.84401 0.0
C381 C 0.1921 0.6379 0.82314 0.0
C382 C 0.15333 0.65257 0.91303 0.0
O383 O 0.17062 0.62986 0.81905 0.0
C384 C 0.09837 0.65351 0.85882 0.0
O385 O 0.17305 0.60954 0.86366 0.0
O386 O 0.13604 0.61101 0.84738 0.0
O387 O 0.147 0.67263 0.90298 0.0
O388 O 0.16434 0.63613 0.90085 0.0
C389 C 0.13667 0.6889 0.81984 0.0
O390 O 0.10877 0.64786 0.83874 0.0
O391 O 0.11031 0.66389 0.87581 0.0
C392 C 0.15304 0.59909 0.85782 0.0
O393 O 0.14505 0.66808 0.81393 0.0
O394 O 0.12869 0.69283 0.8414 0.0
C395 C 0.1877 0.69275 0.87501 0.0
Fe396 Fe 0.37021 0.18008 0.87296 0.0
Fe397 Fe 0.37203 0.14085 0.83239 0.0
O398 O 0.35794 0.15325 0.85906 0.0
Fe399 Fe 0.33144 0.13896 0.87159 0.0
O400 O 0.31326 0.16656 0.8675 0.0
O401 O 0.34033 0.1922 0.88317 0.0
O402 O 0.36582 0.19779 0.84506 0.0
C403 C 0.37437 0.19213 0.82426 0.0
C404 C 0.35868 0.15327 0.91392 0.0
O405 O 0.38235 0.17064 0.82017 0.0
C406 C 0.35859 0.0984 0.85967 0.0
O407 O 0.40234 0.17288 0.86513 0.0
O408 O 0.40083 0.13601 0.84853 0.0
O409 O 0.33874 0.14689 0.90365 0.0
O410 O 0.37524 0.16421 0.90188 0.0
C411 C 0.32335 0.13662 0.82022 0.0
O412 O 0.36424 0.10875 0.83956 0.0
O413 O 0.34784 0.11029 0.87645 0.0
C414 C 0.41273 0.15282 0.85926 0.0
O415 O 0.34419 0.1451 0.81457 0.0
O416 O 0.31922 0.12862 0.84174 0.0
C417 C 0.31874 0.18755 0.8757 0.0
Fe418 Fe 0.87321 0.36988 0.8329 0.0
Fe419 Fe 0.87047 0.33137 0.87412 0.0
O420 O 0.85869 0.35809 0.85957 0.0
Fe421 Fe 0.83215 0.37285 0.87141 0.0
O422 O 0.82052 0.383 0.84119 0.0
O423 O 0.84563 0.36549 0.81485 0.0
O424 O 0.88333 0.33977 0.82127 0.0
C425 C 0.87515 0.31842 0.82573 0.0
C426 C 0.85975 0.41294 0.85939 0.0
O427 O 0.86634 0.31321 0.84652 0.0
C428 C 0.85866 0.35893 0.91437 0.0
O429 O 0.90176 0.37473 0.84932 0.0
O430 O 0.90282 0.33814 0.86658 0.0
O431 O 0.84874 0.40136 0.8762 0.0
O432 O 0.86563 0.40224 0.8395 0.0
C433 C 0.8189 0.32445 0.87587 0.0
O434 O 0.87527 0.34765 0.90275 0.0
O435 O 0.83887 0.36531 0.90376 0.0
C436 C 0.91342 0.35801 0.86041 0.0
O437 O 0.84021 0.3198 0.88416 0.0
O438 O 0.81388 0.34534 0.86716 0.0
C439 C 0.82488 0.37444 0.81994 0.0
Fe440 Fe 0.64124 0.87264 0.83213 0.0
Fe441 Fe 0.68047 0.871 0.87264 0.0
O442 O 0.65362 0.85871 0.85886 0.0
Fe443 Fe 0.63938 0.83229 0.87155 0.0
O444 O 0.62898 0.81988 0.84182 0.0
O445 O 0.64542 0.84468 0.81448 0.0
O446 O 0.67109 0.88276 0.81982 0.0
C447 C 0.69252 0.87456 0.82392 0.0
C448 C 0.59873 0.85911 0.85944 0.0
O449 O 0.69814 0.86616 0.84479 0.0
C450 C 0.65369 0.85991 0.91365 0.0
O451 O 0.63646 0.90159 0.84813 0.0
O452 O 0.6735 0.90304 0.86433 0.0
O453 O 0.61067 0.84866 0.87639 0.0
O454 O 0.60914 0.86486 0.83939 0.0
C455 C 0.688 0.81967 0.87562 0.0
O456 O 0.66456 0.87643 0.90146 0.0
O457 O 0.64741 0.83984 0.90354 0.0
C458 C 0.65348 0.91351 0.85852 0.0
O459 O 0.69241 0.84122 0.88331 0.0
O460 O 0.66705 0.81414 0.86737 0.0
C461 C 0.63697 0.82388 0.82028 0.0
Fe462 Fe 0.87087 0.63944 0.18019 0.0
Fe463 Fe 0.87279 0.67979 0.14073 0.0
O464 O 0.85839 0.65346 0.1535 0.0
Fe465 Fe 0.83133 0.64127 0.13991 0.0
O466 O 0.81394 0.64597 0.16794 0.0
O467 O 0.84112 0.62926 0.19262 0.0
O468 O 0.86679 0.66736 0.19788 0.0
C469 C 0.87519 0.68818 0.19207 0.0
C470 C 0.85858 0.59871 0.1536 0.0
O471 O 0.88311 0.69224 0.1705 0.0
C472 C 0.85808 0.6522 0.09873 0.0
O473 O 0.903 0.64711 0.17293 0.0
O474 O 0.90141 0.66331 0.13598 0.0
O475 O 0.83848 0.60913 0.14788 0.0
O476 O 0.87553 0.6106 0.16412 0.0
C477 C 0.82419 0.69278 0.1367 0.0
O478 O 0.86489 0.67213 0.10877 0.0
O479 O 0.84677 0.63596 0.11085 0.0
C480 C 0.91336 0.65276 0.15283 0.0
O481 O 0.84529 0.69816 0.14465 0.0
O482 O 0.81926 0.67114 0.12959 0.0
C483 C 0.81967 0.63743 0.1887 0.0
Fe484 Fe 0.37312 0.87164 0.18057 0.0
Fe485 Fe 0.33168 0.8731 0.14211 0.0
O486 O 0.3585 0.8591 0.15426 0.0
Fe487 Fe 0.3706 0.83228 0.14021 0.0
O488 O 0.36622 0.81462 0.16814 0.0
O489 O 0.38323 0.84173 0.19284 0.0
O490 O 0.34563 0.86787 0.199 0.0
C491 C 0.32461 0.87607 0.19362 0.0
C492 C 0.41341 0.85906 0.15344 0.0
O493 O 0.31979 0.88342 0.17204 0.0
C494 C 0.35873 0.85922 0.09953 0.0
O495 O 0.36541 0.9037 0.17321 0.0
O496 O 0.34763 0.90196 0.13692 0.0
O497 O 0.40277 0.83906 0.148 0.0
O498 O 0.40173 0.87617 0.16391 0.0
C499 C 0.31933 0.82445 0.13808 0.0
O500 O 0.33872 0.86516 0.10998 0.0
O501 O 0.37552 0.84834 0.11136 0.0
C502 C 0.35885 0.91396 0.15333 0.0
O503 O 0.31382 0.84527 0.14666 0.0
O504 O 0.34073 0.82032 0.12991 0.0
C505 C 0.37487 0.82031 0.18891 0.0
Fe506 Fe 0.6405 0.14265 0.1798 0.0
Fe507 Fe 0.68089 0.13973 0.14051 0.0
O508 O 0.65447 0.15432 0.15278 0.0
Fe509 Fe 0.64224 0.18078 0.13825 0.0
O510 O 0.64691 0.19915 0.16568 0.0
O511 O 0.63022 0.17279 0.19131 0.0
O512 O 0.66845 0.14726 0.1974 0.0
C513 C 0.68915 0.13836 0.19185 0.0
C514 C 0.59973 0.15401 0.15279 0.0
O515 O 0.69307 0.12986 0.17049 0.0
C516 C 0.65358 0.15305 0.09794 0.0
O517 O 0.64829 0.11037 0.17332 0.0
O518 O 0.66435 0.11105 0.1362 0.0
O519 O 0.61012 0.17392 0.14645 0.0
O520 O 0.61164 0.13744 0.16388 0.0
C521 C 0.6936 0.18823 0.13559 0.0
O522 O 0.67362 0.14711 0.1083 0.0
O523 O 0.63699 0.16416 0.1098 0.0
C524 C 0.65383 0.09954 0.15341 0.0
O525 O 0.69908 0.16741 0.14423 0.0
O526 O 0.67213 0.19247 0.12757 0.0
C527 C 0.63831 0.19413 0.1866 0.0
Fe528 Fe 0.37128 0.6399 0.68051 0.0
Fe529 Fe 0.37316 0.68038 0.64123 0.0
O530 O 0.35903 0.65378 0.65369 0.0
Fe531 Fe 0.33245 0.64129 0.63955 0.0
O532 O 0.31442 0.64568 0.66726 0.0
O533 O 0.34144 0.62947 0.69252 0.0
O534 O 0.36673 0.66779 0.69821 0.0
C535 C 0.37523 0.68862 0.69256 0.0
C536 C 0.35977 0.59897 0.65373 0.0
O537 O 0.38334 0.69269 0.67108 0.0
C538 C 0.35947 0.65297 0.59883 0.0
O539 O 0.40337 0.64794 0.6735 0.0
O540 O 0.40198 0.66419 0.63649 0.0
O541 O 0.33974 0.60924 0.6476 0.0
O542 O 0.37643 0.61102 0.66455 0.0
C543 C 0.32449 0.6926 0.63694 0.0
O544 O 0.36541 0.67304 0.60913 0.0
O545 O 0.34869 0.63626 0.61082 0.0
C546 C 0.41386 0.65373 0.65348 0.0
O547 O 0.34535 0.69826 0.64535 0.0
O548 O 0.32029 0.67107 0.62908 0.0
C549 C 0.31995 0.63735 0.68819 0.0
Fe550 Fe 0.68149 0.37131 0.63931 0.0
Fe551 Fe 0.64254 0.37304 0.68023 0.0
O552 O 0.65473 0.35906 0.6534 0.0
Fe553 Fe 0.64034 0.33263 0.64085 0.0
O554 O 0.66802 0.31444 0.64486 0.0
O555 O 0.69334 0.34145 0.62871 0.0
O556 O 0.69943 0.36671 0.66697 0.0
C557 C 0.694 0.37506 0.68791 0.0
C558 C 0.6542 0.36016 0.59865 0.0
O559 O 0.67252 0.38292 0.69243 0.0
C560 C 0.59986 0.35977 0.65303 0.0
O561 O 0.67461 0.40339 0.64752 0.0
O562 O 0.63783 0.40201 0.6643 0.0
O563 O 0.64805 0.3401 0.60881 0.0
O564 O 0.66541 0.37661 0.61058 0.0
C565 C 0.63797 0.32433 0.69215 0.0
O566 O 0.61033 0.36555 0.67306 0.0
O567 O 0.61166 0.34902 0.63618 0.0
C568 C 0.65469 0.41387 0.65363 0.0
O569 O 0.64659 0.34507 0.6979 0.0
O570 O 0.63005 0.3203 0.67061 0.0
C571 C 0.68893 0.31991 0.63646 0.0
Fe572 Fe 0.33134 0.37309 0.37138 0.0
Fe573 Fe 0.37266 0.3706 0.33303 0.0
O574 O 0.35802 0.35862 0.35954 0.0
Fe575 Fe 0.36973 0.3319 0.37404 0.0
O576 O 0.33942 0.32034 0.38402 0.0
O577 O 0.31326 0.34561 0.36645 0.0
O578 O 0.31998 0.38379 0.3414 0.0
C579 C 0.32427 0.37565 0.32 0.0
C580 C 0.35759 0.35907 0.41435 0.0
O581 O 0.34502 0.36675 0.31473 0.0
C582 C 0.41286 0.35827 0.36045 0.0
O583 O 0.34777 0.40156 0.37672 0.0
O584 O 0.36533 0.40289 0.34023 0.0
O585 O 0.37454 0.34828 0.40272 0.0
O586 O 0.33771 0.36495 0.40363 0.0
C587 C 0.37432 0.31909 0.32556 0.0
O588 O 0.40126 0.37511 0.3495 0.0
O589 O 0.40213 0.33846 0.36654 0.0
C590 C 0.35915 0.41327 0.36022 0.0
O591 O 0.38261 0.34044 0.32113 0.0
O592 O 0.36546 0.31389 0.34635 0.0
C593 C 0.31826 0.32478 0.37528 0.0
Fe594 Fe 0.67958 0.64118 0.3724 0.0
Fe595 Fe 0.64085 0.63958 0.33134 0.0
O596 O 0.65305 0.65365 0.35812 0.0
Fe597 Fe 0.63896 0.68044 0.37029 0.0
O598 O 0.66691 0.69824 0.36633 0.0
O599 O 0.69187 0.67097 0.38265 0.0
O600 O 0.69765 0.64526 0.34468 0.0
C601 C 0.69215 0.63674 0.32384 0.0
C602 C 0.6525 0.6532 0.41294 0.0
O603 O 0.67066 0.62888 0.31954 0.0
C604 C 0.5982 0.65377 0.35808 0.0
O605 O 0.67206 0.6091 0.36472 0.0
O606 O 0.63549 0.61088 0.34742 0.0
O607 O 0.64637 0.67317 0.40253 0.0
O608 O 0.66343 0.63649 0.40114 0.0
C609 C 0.63723 0.68818 0.31884 0.0
O610 O 0.60871 0.64778 0.33813 0.0
O611 O 0.61006 0.66447 0.37492 0.0
C612 C 0.65197 0.59893 0.35858 0.0
O613 O 0.64571 0.66727 0.31352 0.0
O614 O 0.62903 0.69261 0.34022 0.0
C615 C 0.68771 0.69255 0.37489 0.0
Fe616 Fe 0.36992 0.68013 0.3728 0.0
Fe617 Fe 0.37211 0.64142 0.33176 0.0
O618 O 0.35797 0.65336 0.35856 0.0
Fe619 Fe 0.33163 0.63869 0.37087 0.0
O620 O 0.31327 0.66613 0.36667 0.0
O621 O 0.33981 0.69175 0.3832 0.0
O622 O 0.36537 0.69816 0.34507 0.0
C623 C 0.374 0.6928 0.32422 0.0
C624 C 0.35858 0.6528 0.41341 0.0
O625 O 0.3822 0.67142 0.31993 0.0
C626 C 0.35904 0.59856 0.35861 0.0
O627 O 0.40214 0.67333 0.36488 0.0
O628 O 0.40094 0.63663 0.34785 0.0
O629 O 0.33866 0.64652 0.40303 0.0
O630 O 0.37511 0.66393 0.40151 0.0
C631 C 0.32351 0.63685 0.31959 0.0
O632 O 0.3645 0.60918 0.33858 0.0
O633 O 0.34838 0.6102 0.37564 0.0
C634 C 0.41271 0.65343 0.35876 0.0
O635 O 0.34422 0.64569 0.31401 0.0
O636 O 0.31964 0.62835 0.34095 0.0
C637 C 0.31841 0.68705 0.37523 0.0
Fe638 Fe 0.63902 0.33175 0.37044 0.0
Fe639 Fe 0.64103 0.37325 0.3321 0.0
O640 O 0.65325 0.35858 0.35855 0.0
Fe641 Fe 0.67985 0.37064 0.37308 0.0
O642 O 0.69182 0.34058 0.38309 0.0
O643 O 0.66671 0.31385 0.36611 0.0
O644 O 0.6289 0.32002 0.34033 0.0
C645 C 0.63655 0.32487 0.31885 0.0
C646 C 0.65262 0.35838 0.41336 0.0
O647 O 0.64498 0.34583 0.31369 0.0
C648 C 0.65319 0.41352 0.35951 0.0
O649 O 0.61026 0.34783 0.37547 0.0
O650 O 0.6088 0.36559 0.33915 0.0
O651 O 0.66338 0.37531 0.40171 0.0
O652 O 0.64675 0.33847 0.40271 0.0
C653 C 0.69263 0.37538 0.3247 0.0
O654 O 0.63632 0.40184 0.34869 0.0
O655 O 0.67304 0.40288 0.3655 0.0
C656 C 0.59837 0.35899 0.35896 0.0
O657 O 0.67114 0.38328 0.32013 0.0
O658 O 0.69794 0.36667 0.34551 0.0
C659 C 0.68748 0.31918 0.37491 0.0
Fe660 Fe 0.37401 0.37084 0.68125 0.0
Fe661 Fe 0.33297 0.37282 0.64253 0.0
O662 O 0.35971 0.35862 0.65463 0.0
Fe663 Fe 0.37195 0.33194 0.64041 0.0
O664 O 0.3677 0.31403 0.6682 0.0
O665 O 0.3845 0.34096 0.69313 0.0
O666 O 0.34638 0.36631 0.69929 0.0
C667 C 0.32548 0.37485 0.694 0.0
C668 C 0.4145 0.35918 0.65397 0.0
O669 O 0.32099 0.38293 0.67259 0.0
C670 C 0.36004 0.35907 0.59987 0.0
O671 O 0.36603 0.403 0.67439 0.0
O672 O 0.34908 0.40164 0.63772 0.0
O673 O 0.40412 0.3391 0.64814 0.0
O674 O 0.40263 0.3759 0.66487 0.0
C675 C 0.32058 0.32412 0.6381 0.0
O676 O 0.34011 0.36525 0.61032 0.0
O677 O 0.37674 0.34801 0.61162 0.0
C678 C 0.35996 0.41349 0.65445 0.0
O679 O 0.31503 0.34497 0.64666 0.0
O680 O 0.34207 0.31989 0.63017 0.0
C681 C 0.37631 0.31955 0.68901 0.0
Fe682 Fe 0.64122 0.64008 0.67998 0.0
Fe683 Fe 0.68026 0.64135 0.63909 0.0
O684 O 0.65388 0.65412 0.6534 0.0
Fe685 Fe 0.64042 0.68127 0.6413 0.0
O686 O 0.62992 0.69321 0.6711 0.0
O687 O 0.64578 0.66775 0.69807 0.0
O688 O 0.67087 0.62936 0.69221 0.0
C689 C 0.69258 0.6366 0.68782 0.0
C690 C 0.59926 0.6547 0.65233 0.0
O691 O 0.69833 0.64484 0.66691 0.0
C692 C 0.65379 0.65444 0.59851 0.0
O693 O 0.63596 0.61133 0.66393 0.0
O694 O 0.67241 0.60933 0.64646 0.0
O695 O 0.61136 0.66582 0.63592 0.0
O696 O 0.6093 0.64831 0.67242 0.0
C697 C 0.6893 0.69255 0.6376 0.0
O698 O 0.66392 0.63716 0.61023 0.0
O699 O 0.64849 0.67449 0.60917 0.0
C700 C 0.65235 0.59926 0.65279 0.0
O701 O 0.69302 0.6711 0.62924 0.0
O702 O 0.66856 0.69846 0.64614 0.0
C703 C 0.63757 0.68873 0.69262 0.0
H704 H 0.13275 0.32463 0.23721 0.0
H705 H 0.14081 0.26928 0.18075 0.0
H706 H 0.13152 0.29259 0.26851 0.0
H707 H 0.13844 0.23715 0.21183 0.0
H708 H 0.16162 0.18737 0.27482 0.0
H709 H 0.16149 0.21927 0.24352 0.0
H710 H 0.10811 0.26049 0.28577 0.0
H711 H 0.10915 0.22895 0.31767 0.0
C712 C 0.13391 0.30558 0.23146 0.0
C713 C 0.13693 0.2995 0.20651 0.0
C714 C 0.13306 0.28716 0.2494 0.0
C715 C 0.1349 0.26218 0.2428 0.0
C716 C 0.13746 0.25616 0.21773 0.0
C717 C 0.13866 0.27459 0.19984 0.0
C718 C 0.14975 0.20318 0.27737 0.0
C719 C 0.13536 0.2056 0.29872 0.0
C720 C 0.14956 0.22147 0.25932 0.0
C721 C 0.13472 0.24253 0.26197 0.0
C722 C 0.12008 0.24476 0.28323 0.0
C723 C 0.12052 0.22659 0.30147 0.0
H724 H 0.73619 0.1214 0.18611 0.0
H725 H 0.6866 0.15182 0.24038 0.0
H726 H 0.76874 0.11958 0.21689 0.0
H727 H 0.71933 0.15028 0.27105 0.0
H728 H 0.77634 0.12075 0.32538 0.0
H729 H 0.74379 0.12035 0.29454 0.0
H730 H 0.79478 0.14817 0.24029 0.0
H731 H 0.82747 0.1483 0.27101 0.0
C732 C 0.73219 0.12765 0.20461 0.0
C733 C 0.70873 0.13669 0.21078 0.0
C734 C 0.75092 0.12675 0.2222 0.0
C735 C 0.74663 0.13479 0.2464 0.0
C736 C 0.72313 0.14365 0.25264 0.0
C737 C 0.70441 0.14464 0.23502 0.0
C738 C 0.78069 0.12662 0.30684 0.0
C739 C 0.80457 0.13448 0.30068 0.0
C740 C 0.76197 0.12655 0.28921 0.0
C741 C 0.76668 0.13427 0.26499 0.0
C742 C 0.79062 0.14184 0.25873 0.0
C743 C 0.80934 0.14199 0.27638 0.0
H744 H 0.85951 0.82593 0.27133 0.0
H745 H 0.89022 0.77621 0.32531 0.0
H746 H 0.861 0.79331 0.24053 0.0
H747 H 0.89199 0.74378 0.29442 0.0
H748 H 0.89016 0.73592 0.18601 0.0
H749 H 0.89074 0.76865 0.21674 0.0
H750 H 0.86308 0.71793 0.27131 0.0
H751 H 0.86278 0.68514 0.24078 0.0
C752 C 0.86673 0.80812 0.27661 0.0
C753 C 0.87476 0.80372 0.30081 0.0
C754 C 0.8677 0.78946 0.25891 0.0
C755 C 0.8766 0.76595 0.26504 0.0
C756 C 0.88477 0.76161 0.28919 0.0
C757 C 0.88389 0.78027 0.30685 0.0
C758 C 0.88436 0.73169 0.2046 0.0
C759 C 0.87651 0.70785 0.21092 0.0
C760 C 0.88453 0.7505 0.22216 0.0
C761 C 0.87694 0.74589 0.24645 0.0
C762 C 0.86934 0.72201 0.25283 0.0
C763 C 0.86907 0.70323 0.23528 0.0
H764 H 0.19287 0.90216 0.28244 0.0
H765 H 0.23624 0.84976 0.32357 0.0
H766 H 0.22511 0.90436 0.25131 0.0
H767 H 0.26791 0.85109 0.29208 0.0
H768 H 0.33093 0.87411 0.2435 0.0
H769 H 0.29934 0.87545 0.27521 0.0
H770 H 0.24332 0.88174 0.21904 0.0
H771 H 0.27506 0.88149 0.18745 0.0
C772 C 0.20923 0.89102 0.28476 0.0
C773 C 0.21204 0.87589 0.30553 0.0
C774 C 0.22768 0.89216 0.26684 0.0
C775 C 0.24922 0.87793 0.26911 0.0
C776 C 0.25189 0.86273 0.28989 0.0
C777 C 0.23362 0.86184 0.30793 0.0
C778 C 0.31187 0.87595 0.23795 0.0
C779 C 0.30551 0.87775 0.21296 0.0
C780 C 0.2937 0.87654 0.25614 0.0
C781 C 0.26867 0.87856 0.24977 0.0
C782 C 0.26238 0.88058 0.22473 0.0
C783 C 0.28059 0.88032 0.20656 0.0
H784 H 0.12096 0.77765 0.6874 0.0
H785 H 0.15058 0.82768 0.74171 0.0
H786 H 0.11968 0.74507 0.71809 0.0
H787 H 0.14956 0.79486 0.77236 0.0
H788 H 0.14962 0.68651 0.77121 0.0
H789 H 0.14906 0.71962 0.741 0.0
H790 H 0.12029 0.76939 0.79589 0.0
H791 H 0.12113 0.73638 0.82626 0.0
C792 C 0.12713 0.78175 0.70591 0.0
C793 C 0.13584 0.80534 0.71208 0.0
C794 C 0.12654 0.763 0.72345 0.0
C795 C 0.13459 0.76734 0.74763 0.0
C796 C 0.14298 0.791 0.75394 0.0
C797 C 0.14366 0.80978 0.73635 0.0
C798 C 0.14304 0.70446 0.77684 0.0
C799 C 0.13534 0.70873 0.80117 0.0
C800 C 0.14263 0.72342 0.75948 0.0
C801 C 0.13461 0.74713 0.76604 0.0
C802 C 0.12682 0.75139 0.79033 0.0
C803 C 0.12714 0.73241 0.80768 0.0
H804 H 0.1856 0.15071 0.74065 0.0
H805 H 0.23594 0.12144 0.68645 0.0
H806 H 0.21817 0.14944 0.7715 0.0
H807 H 0.26834 0.11989 0.71741 0.0
H808 H 0.32641 0.14946 0.77159 0.0
H809 H 0.29373 0.14886 0.7409 0.0
H810 H 0.24323 0.12007 0.79509 0.0
H811 H 0.27581 0.12096 0.82595 0.0
C812 C 0.20353 0.14382 0.73534 0.0
C813 C 0.20811 0.13615 0.71105 0.0
C814 C 0.22217 0.14299 0.75307 0.0
C815 C 0.24585 0.13458 0.7469 0.0
C816 C 0.25038 0.12673 0.72268 0.0
C817 C 0.23173 0.12748 0.70497 0.0
C818 C 0.30839 0.14286 0.77697 0.0
C819 C 0.30378 0.1352 0.80126 0.0
C820 C 0.28967 0.14242 0.75932 0.0
C821 C 0.26588 0.13441 0.76555 0.0
C822 C 0.2613 0.1266 0.78978 0.0
C823 C 0.28003 0.12695 0.80742 0.0
H824 H 0.8727 0.26859 0.83198 0.0
H825 H 0.88097 0.32463 0.77625 0.0
H826 H 0.8742 0.23689 0.80039 0.0
H827 H 0.88134 0.29306 0.74447 0.0
H828 H 0.90233 0.22965 0.6943 0.0
H829 H 0.90408 0.2608 0.72654 0.0
H830 H 0.85031 0.22 0.76868 0.0
H831 H 0.84945 0.18846 0.73701 0.0
C832 C 0.87475 0.27413 0.81294 0.0
C833 C 0.87678 0.29911 0.80662 0.0
C834 C 0.87543 0.25596 0.79477 0.0
C835 C 0.87776 0.26233 0.76977 0.0
C836 C 0.87995 0.28737 0.76351 0.0
C837 C 0.87962 0.30552 0.78173 0.0
C838 C 0.89098 0.22733 0.71052 0.0
C839 C 0.87586 0.20653 0.71316 0.0
C840 C 0.89185 0.24527 0.72896 0.0
C841 C 0.87735 0.24299 0.75031 0.0
C842 C 0.86214 0.22219 0.7528 0.0
C843 C 0.86153 0.20412 0.73454 0.0
H844 H 0.7717 0.86073 0.68595 0.0
H845 H 0.82587 0.8902 0.73622 0.0
H846 H 0.74099 0.86159 0.71865 0.0
H847 H 0.79505 0.89133 0.76875 0.0
H848 H 0.7411 0.86147 0.82687 0.0
H849 H 0.77172 0.86206 0.79411 0.0
H850 H 0.71744 0.891 0.74377 0.0
H851 H 0.68668 0.89014 0.7764 0.0
C852 C 0.77703 0.86757 0.7039 0.0
C853 C 0.80126 0.87544 0.70842 0.0
C854 C 0.75939 0.86816 0.72261 0.0
C855 C 0.76559 0.87652 0.7463 0.0
C856 C 0.78977 0.88452 0.75078 0.0
C857 C 0.80738 0.88402 0.73206 0.0
C858 C 0.73569 0.86808 0.80886 0.0
C859 C 0.71142 0.87581 0.80431 0.0
C860 C 0.75329 0.86851 0.79011 0.0
C861 C 0.74701 0.87658 0.76635 0.0
C862 C 0.72279 0.88443 0.76182 0.0
C863 C 0.70521 0.88409 0.78058 0.0
H864 H 0.27181 0.15017 0.1857 0.0
H865 H 0.32623 0.12119 0.23598 0.0
H866 H 0.24108 0.14898 0.21834 0.0
H867 H 0.29536 0.11975 0.2685 0.0
H868 H 0.24105 0.15 0.32638 0.0
H869 H 0.27177 0.14913 0.29371 0.0
H870 H 0.21774 0.1194 0.24357 0.0
H871 H 0.18688 0.12051 0.27612 0.0
C872 C 0.27719 0.14336 0.20364 0.0
C873 C 0.3015 0.13574 0.20819 0.0
C874 C 0.25953 0.14257 0.22232 0.0
C875 C 0.26578 0.13427 0.24601 0.0
C876 C 0.29003 0.12649 0.25051 0.0
C877 C 0.30768 0.12717 0.23181 0.0
C878 C 0.23573 0.14314 0.30843 0.0
C879 C 0.21149 0.13527 0.30391 0.0
C880 C 0.25338 0.14255 0.28974 0.0
C881 C 0.24719 0.13419 0.26605 0.0
C882 C 0.22301 0.12617 0.26156 0.0
C883 C 0.20538 0.12666 0.28028 0.0
H884 H 0.86217 0.24027 0.32628 0.0
H885 H 0.89112 0.18537 0.27653 0.0
H886 H 0.86371 0.27077 0.29345 0.0
H887 H 0.89296 0.21602 0.24382 0.0
H888 H 0.86427 0.27064 0.18528 0.0
H889 H 0.86463 0.23985 0.21793 0.0
H890 H 0.89341 0.29385 0.26864 0.0
H891 H 0.89277 0.32474 0.23617 0.0
C892 C 0.86904 0.23472 0.30841 0.0
C893 C 0.87658 0.21035 0.3041 0.0
C894 C 0.87003 0.25226 0.28961 0.0
C895 C 0.87849 0.24584 0.26602 0.0
C896 C 0.88611 0.2215 0.26172 0.0
C897 C 0.88521 0.20397 0.28054 0.0
C898 C 0.87084 0.27593 0.20334 0.0
C899 C 0.87852 0.30019 0.20806 0.0
C900 C 0.87113 0.25824 0.22204 0.0
C901 C 0.879 0.26441 0.24591 0.0
C902 C 0.88695 0.28858 0.25054 0.0
C903 C 0.88674 0.30624 0.23185 0.0
H904 H 0.73704 0.88103 0.1884 0.0
H905 H 0.68017 0.87413 0.2435 0.0
H906 H 0.76819 0.88158 0.22058 0.0
H907 H 0.71117 0.87582 0.27578 0.0
H908 H 0.77398 0.85103 0.32549 0.0
H909 H 0.74246 0.85201 0.29373 0.0
H910 H 0.78552 0.90487 0.25269 0.0
H911 H 0.81753 0.90298 0.28399 0.0
C912 C 0.73118 0.88002 0.20743 0.0
C913 C 0.70616 0.87753 0.21341 0.0
C914 C 0.74904 0.88046 0.22593 0.0
C915 C 0.74227 0.87875 0.25087 0.0
C916 C 0.71715 0.87671 0.2568 0.0
C917 C 0.69933 0.87592 0.23829 0.0
C918 C 0.77664 0.86296 0.30974 0.0
C919 C 0.79825 0.87691 0.30724 0.0
C920 C 0.75849 0.86364 0.29155 0.0
C921 C 0.76136 0.87853 0.27055 0.0
C922 C 0.78284 0.89283 0.26833 0.0
C923 C 0.80114 0.89189 0.28637 0.0
H924 H 0.13096 0.77437 0.32512 0.0
H925 H 0.13813 0.8307 0.26952 0.0
H926 H 0.13052 0.7429 0.29318 0.0
H927 H 0.13656 0.79946 0.23754 0.0
H928 H 0.1616 0.73702 0.18809 0.0
H929 H 0.16063 0.76829 0.22004 0.0
H930 H 0.10783 0.72496 0.26085 0.0
H931 H 0.10969 0.69314 0.22929 0.0
C932 C 0.13206 0.78005 0.30604 0.0
C933 C 0.13465 0.80502 0.29987 0.0
C934 C 0.13169 0.76201 0.28768 0.0
C935 C 0.13359 0.76853 0.26268 0.0
C936 C 0.13559 0.79362 0.25656 0.0
C937 C 0.13631 0.8116 0.27492 0.0
C938 C 0.14969 0.73421 0.20384 0.0
C939 C 0.13568 0.71261 0.20612 0.0
C940 C 0.14902 0.75224 0.22214 0.0
C941 C 0.13406 0.7493 0.24309 0.0
C942 C 0.11986 0.72774 0.24522 0.0
C943 C 0.12079 0.70954 0.22703 0.0
H944 H 0.1872 0.89206 0.73566 0.0
H945 H 0.24178 0.86324 0.68546 0.0
H946 H 0.21786 0.8931 0.76836 0.0
H947 H 0.27231 0.86398 0.71832 0.0
H948 H 0.27138 0.86253 0.82659 0.0
H949 H 0.24098 0.86375 0.79365 0.0
H950 H 0.29582 0.89276 0.74398 0.0
H951 H 0.32637 0.89126 0.7768 0.0
C952 C 0.20574 0.88603 0.73154 0.0
C953 C 0.21201 0.87762 0.70788 0.0
C954 C 0.22328 0.88647 0.75036 0.0
C955 C 0.24751 0.87858 0.74598 0.0
C956 C 0.25387 0.87047 0.72224 0.0
C957 C 0.23632 0.86994 0.70343 0.0
C958 C 0.27696 0.86931 0.80869 0.0
C959 C 0.30134 0.87685 0.80439 0.0
C960 C 0.25948 0.8701 0.78983 0.0
C961 C 0.26597 0.87837 0.76618 0.0
C962 C 0.2903 0.88605 0.76191 0.0
C963 C 0.30777 0.88534 0.78079 0.0
H964 H 0.13151 0.27498 0.82462 0.0
H965 H 0.13914 0.33122 0.76899 0.0
H966 H 0.13113 0.24347 0.79274 0.0
H967 H 0.13764 0.29992 0.73703 0.0
H968 H 0.16272 0.23719 0.68795 0.0
H969 H 0.16175 0.26855 0.7198 0.0
H970 H 0.10831 0.22574 0.76034 0.0
H971 H 0.11016 0.19382 0.72888 0.0
C972 C 0.13272 0.28063 0.80554 0.0
C973 C 0.13539 0.30557 0.79933 0.0
C974 C 0.13238 0.26257 0.78722 0.0
C975 C 0.13441 0.26906 0.76222 0.0
C976 C 0.13655 0.29412 0.75606 0.0
C977 C 0.13723 0.31213 0.77439 0.0
C978 C 0.15067 0.23452 0.70362 0.0
C979 C 0.13648 0.21304 0.70587 0.0
C980 C 0.15 0.2526 0.72186 0.0
C981 C 0.13487 0.24981 0.74269 0.0
C982 C 0.12048 0.22838 0.74479 0.0
C983 C 0.1214 0.21013 0.72666 0.0
H984 H 0.82553 0.12005 0.73566 0.0
H985 H 0.77125 0.14859 0.68498 0.0
H986 H 0.79467 0.11919 0.76819 0.0
H987 H 0.74053 0.14802 0.71765 0.0
H988 H 0.68609 0.12086 0.77565 0.0
H989 H 0.71694 0.11925 0.74317 0.0
H990 H 0.77126 0.14861 0.79321 0.0
H991 H 0.74052 0.14994 0.82587 0.0
C992 C 0.807 0.12604 0.7314 0.0
C993 C 0.80087 0.13432 0.70765 0.0
C994 C 0.78936 0.12571 0.75012 0.0
C995 C 0.76515 0.13357 0.74553 0.0
C996 C 0.75894 0.14156 0.72171 0.0
C997 C 0.77659 0.14198 0.70301 0.0
C998 C 0.70464 0.12685 0.77981 0.0
C999 C 0.71082 0.13547 0.80343 0.0
C1000 C 0.72229 0.12607 0.76112 0.0
C1001 C 0.74655 0.13383 0.76558 0.0
C1002 C 0.7528 0.14221 0.78925 0.0
C1003 C 0.73514 0.14307 0.80795 0.0
H1004 H 0.86249 0.68482 0.77077 0.0
H1005 H 0.89126 0.73505 0.82536 0.0
H1006 H 0.86353 0.71764 0.74015 0.0
H1007 H 0.89258 0.76765 0.79466 0.0
H1008 H 0.86267 0.82595 0.74113 0.0
H1009 H 0.86335 0.79294 0.77145 0.0
H1010 H 0.89267 0.74321 0.71681 0.0
H1011 H 0.89171 0.77611 0.68633 0.0
C1012 C 0.86924 0.70277 0.7762 0.0
C1013 C 0.87681 0.70727 0.80054 0.0
C1014 C 0.86992 0.72155 0.75862 0.0
C1015 C 0.8781 0.74526 0.76499 0.0
C1016 C 0.8859 0.74967 0.78925 0.0
C1017 C 0.88529 0.73091 0.8068 0.0
C1018 C 0.8694 0.80803 0.73558 0.0
C1019 C 0.87721 0.80373 0.71129 0.0
C1020 C 0.86988 0.78912 0.75301 0.0
C1021 C 0.87809 0.76545 0.74654 0.0
C1022 C 0.88601 0.76118 0.7223 0.0
C1023 C 0.88561 0.7801 0.70488 0.0
H1024 H 0.33205 0.2435 0.13962 0.0
H1025 H 0.27577 0.18791 0.132 0.0
H1026 H 0.30081 0.27549 0.13745 0.0
H1027 H 0.24433 0.21981 0.13096 0.0
H1028 H 0.19472 0.28326 0.10909 0.0
H1029 H 0.22677 0.25189 0.10769 0.0
H1030 H 0.26923 0.29314 0.16088 0.0
H1031 H 0.23777 0.32488 0.16138 0.0
C1032 C 0.31296 0.23811 0.13759 0.0
C1033 C 0.30639 0.21317 0.13594 0.0
C1034 C 0.29499 0.25647 0.13651 0.0
C1035 C 0.26993 0.25033 0.13415 0.0
C1036 C 0.26342 0.22533 0.13235 0.0
C1037 C 0.28145 0.20698 0.13308 0.0
C1038 C 0.21099 0.28566 0.12035 0.0
C1039 C 0.21375 0.30661 0.13524 0.0
C1040 C 0.22932 0.26759 0.1197 0.0
C1041 C 0.25068 0.26988 0.13418 0.0
C1042 C 0.25334 0.2909 0.14907 0.0
C1043 C 0.2352 0.30909 0.14947 0.0
H1044 H 0.23615 0.68587 0.86584 0.0
H1045 H 0.18339 0.74153 0.88622 0.0
H1046 H 0.26871 0.71646 0.86565 0.0
H1047 H 0.21618 0.77204 0.88814 0.0
H1048 H 0.27482 0.8269 0.86642 0.0
H1049 H 0.24212 0.7964 0.86613 0.0
H1050 H 0.29457 0.7405 0.88798 0.0
H1051 H 0.32744 0.77089 0.88617 0.0
C1052 C 0.23168 0.70467 0.87075 0.0
C1053 C 0.20734 0.7114 0.87607 0.0
C1054 C 0.25039 0.72227 0.87086 0.0
C1055 C 0.24536 0.74694 0.87701 0.0
C1056 C 0.22089 0.75346 0.88275 0.0
C1057 C 0.20204 0.73596 0.8819 0.0
C1058 C 0.27923 0.80804 0.87116 0.0
C1059 C 0.30357 0.80118 0.87631 0.0
C1060 C 0.26045 0.7905 0.87121 0.0
C1061 C 0.26544 0.76575 0.87711 0.0
C1062 C 0.2899 0.75912 0.88274 0.0
C1063 C 0.3088 0.77657 0.88195 0.0
H1064 H 0.26886 0.18146 0.87366 0.0
H1065 H 0.32512 0.23708 0.88135 0.0
H1066 H 0.23728 0.21316 0.87513 0.0
H1067 H 0.29362 0.26895 0.88174 0.0
H1068 H 0.23002 0.31943 0.90231 0.0
H1069 H 0.26127 0.28724 0.90434 0.0
H1070 H 0.22066 0.24467 0.85076 0.0
H1071 H 0.18909 0.27623 0.84959 0.0
C1072 C 0.27448 0.20049 0.87558 0.0
C1073 C 0.29949 0.20674 0.87741 0.0
C1074 C 0.25637 0.21872 0.87626 0.0
C1075 C 0.26282 0.24372 0.87839 0.0
C1076 C 0.28788 0.24991 0.88046 0.0
C1077 C 0.30598 0.23163 0.88012 0.0
C1078 C 0.22776 0.30312 0.89107 0.0
C1079 C 0.207 0.30032 0.87592 0.0
C1080 C 0.24575 0.28471 0.8921 0.0
C1081 C 0.24353 0.26323 0.87777 0.0
C1082 C 0.22279 0.26062 0.8625 0.0
C1083 C 0.20471 0.27884 0.8617 0.0
H1084 H 0.68081 0.24283 0.87285 0.0
H1085 H 0.73681 0.1869 0.88015 0.0
H1086 H 0.71222 0.27464 0.87496 0.0
H1087 H 0.76843 0.21865 0.88117 0.0
H1088 H 0.81836 0.282 0.90312 0.0
H1089 H 0.78628 0.25066 0.9044 0.0
H1090 H 0.74382 0.29218 0.85145 0.0
H1091 H 0.77532 0.32387 0.85104 0.0
C1092 C 0.69987 0.23732 0.87481 0.0
C1093 C 0.7063 0.21233 0.87637 0.0
C1094 C 0.71795 0.25558 0.87585 0.0
C1095 C 0.74299 0.24932 0.8781 0.0
C1096 C 0.74936 0.22426 0.87984 0.0
C1097 C 0.73123 0.20601 0.87913 0.0
C1098 C 0.80209 0.28447 0.89188 0.0
C1099 C 0.79934 0.3055 0.8771 0.0
C1100 C 0.78374 0.2664 0.89247 0.0
C1101 C 0.76235 0.26879 0.87804 0.0
C1102 C 0.75972 0.28987 0.86322 0.0
C1103 C 0.77789 0.30804 0.86288 0.0
H1104 H 0.7355 0.82524 0.89132 0.0
H1105 H 0.68475 0.77104 0.86273 0.0
H1106 H 0.76801 0.79437 0.89207 0.0
H1107 H 0.71742 0.7403 0.8632 0.0
H1108 H 0.77568 0.68596 0.89046 0.0
H1109 H 0.74306 0.7167 0.89198 0.0
H1110 H 0.79288 0.77109 0.86241 0.0
H1111 H 0.82565 0.74049 0.86118 0.0
C1112 C 0.73123 0.80673 0.88528 0.0
C1113 C 0.70747 0.80062 0.87703 0.0
C1114 C 0.74993 0.78909 0.88555 0.0
C1115 C 0.74532 0.76491 0.87764 0.0
C1116 C 0.72149 0.7587 0.86968 0.0
C1117 C 0.70279 0.77636 0.86933 0.0
C1118 C 0.77975 0.7045 0.88439 0.0
C1119 C 0.80333 0.71075 0.87577 0.0
C1120 C 0.76099 0.72207 0.88512 0.0
C1121 C 0.76537 0.74632 0.87731 0.0
C1122 C 0.789 0.75264 0.86886 0.0
C1123 C 0.80775 0.73505 0.86805 0.0
H1124 H 0.83069 0.74263 0.13866 0.0
H1125 H 0.77455 0.68686 0.13122 0.0
H1126 H 0.79928 0.77449 0.13729 0.0
H1127 H 0.74296 0.71865 0.13092 0.0
H1128 H 0.69299 0.78256 0.11027 0.0
H1129 H 0.72493 0.75108 0.10829 0.0
H1130 H 0.76793 0.79157 0.16161 0.0
H1131 H 0.73657 0.82338 0.16275 0.0
C1132 C 0.81161 0.73716 0.1368 0.0
C1133 C 0.80514 0.7122 0.13501 0.0
C1134 C 0.79353 0.75545 0.1362 0.0
C1135 C 0.76847 0.74923 0.13416 0.0
C1136 C 0.76205 0.72422 0.13213 0.0
C1137 C 0.78017 0.70594 0.13242 0.0
C1138 C 0.70933 0.78475 0.12147 0.0
C1139 C 0.71229 0.80554 0.13655 0.0
C1140 C 0.72761 0.76662 0.12046 0.0
C1141 C 0.74913 0.76871 0.13475 0.0
C1142 C 0.75192 0.7895 0.14993 0.0
C1143 C 0.73383 0.80773 0.1507 0.0
H1144 H 0.18641 0.73601 0.12105 0.0
H1145 H 0.24112 0.68593 0.14983 0.0
H1146 H 0.21686 0.76894 0.12054 0.0
H1147 H 0.27143 0.71898 0.14957 0.0
H1148 H 0.27069 0.82711 0.15129 0.0
H1149 H 0.24015 0.79421 0.15018 0.0
H1150 H 0.2946 0.74458 0.12037 0.0
H1151 H 0.32521 0.77726 0.12173 0.0
C1152 C 0.20494 0.73197 0.12718 0.0
C1153 C 0.21134 0.70827 0.13538 0.0
C1154 C 0.22234 0.75092 0.12705 0.0
C1155 C 0.24655 0.74658 0.13503 0.0
C1156 C 0.25301 0.72284 0.14303 0.0
C1157 C 0.23559 0.70391 0.14326 0.0
C1158 C 0.27613 0.80922 0.14438 0.0
C1159 C 0.30041 0.80487 0.13655 0.0
C1160 C 0.25859 0.7904 0.14366 0.0
C1161 C 0.26497 0.76678 0.13522 0.0
C1162 C 0.28919 0.76249 0.12725 0.0
C1163 C 0.30668 0.7813 0.12788 0.0
H1164 H 0.74219 0.18512 0.14862 0.0
H1165 H 0.68789 0.23576 0.12005 0.0
H1166 H 0.77275 0.21794 0.14857 0.0
H1167 H 0.71859 0.26845 0.11973 0.0
H1168 H 0.77209 0.32606 0.15163 0.0
H1169 H 0.74161 0.29319 0.14988 0.0
H1170 H 0.79633 0.24391 0.11999 0.0
H1171 H 0.82693 0.27662 0.122 0.0
C1172 C 0.73681 0.20317 0.14211 0.0
C1173 C 0.71257 0.20777 0.13429 0.0
C1174 C 0.75437 0.22196 0.14199 0.0
C1175 C 0.74808 0.2458 0.13417 0.0
C1176 C 0.72393 0.25035 0.12613 0.0
C1177 C 0.70639 0.23154 0.12615 0.0
C1178 C 0.77762 0.30825 0.14459 0.0
C1179 C 0.80197 0.30402 0.13692 0.0
C1180 C 0.76011 0.28945 0.14348 0.0
C1181 C 0.76655 0.26595 0.13478 0.0
C1182 C 0.79085 0.26174 0.12702 0.0
C1183 C 0.80835 0.28056 0.12803 0.0
H1184 H 0.68669 0.62042 0.73514 0.0
H1185 H 0.74138 0.64902 0.68495 0.0
H1186 H 0.71738 0.61903 0.76778 0.0
H1187 H 0.77196 0.64794 0.71777 0.0
H1188 H 0.82593 0.62031 0.77613 0.0
H1189 H 0.79536 0.61905 0.74333 0.0
H1190 H 0.74065 0.64805 0.79315 0.0
H1191 H 0.77106 0.649 0.82608 0.0
C1192 C 0.70527 0.62633 0.73101 0.0
C1193 C 0.71155 0.63479 0.70737 0.0
C1194 C 0.72282 0.62569 0.7498 0.0
C1195 C 0.74711 0.63343 0.7454 0.0
C1196 C 0.75349 0.64157 0.72169 0.0
C1197 C 0.73592 0.64229 0.7029 0.0
C1198 C 0.80734 0.62627 0.78017 0.0
C1199 C 0.80096 0.63468 0.8038 0.0
C1200 C 0.78987 0.6257 0.76129 0.0
C1201 C 0.76557 0.63346 0.7656 0.0
C1202 C 0.75912 0.64164 0.78929 0.0
C1203 C 0.77661 0.64228 0.80816 0.0
H1204 H 0.18729 0.38132 0.77481 0.0
H1205 H 0.24268 0.37434 0.83139 0.0
H1206 H 0.21933 0.3817 0.74347 0.0
H1207 H 0.27478 0.37582 0.80024 0.0
H1208 H 0.32437 0.35055 0.7379 0.0
H1209 H 0.2924 0.35167 0.76915 0.0
H1210 H 0.25168 0.40437 0.7256 0.0
H1211 H 0.28326 0.40237 0.69382 0.0
C1212 C 0.20635 0.38026 0.78058 0.0
C1213 C 0.21243 0.37774 0.80558 0.0
C1214 C 0.22477 0.38059 0.7626 0.0
C1215 C 0.24975 0.37871 0.76922 0.0
C1216 C 0.25578 0.37678 0.79434 0.0
C1217 C 0.23736 0.37612 0.81226 0.0
C1218 C 0.30864 0.36247 0.73504 0.0
C1219 C 0.30639 0.3764 0.71338 0.0
C1220 C 0.29032 0.36323 0.75306 0.0
C1221 C 0.26939 0.37819 0.75005 0.0
C1222 C 0.2673 0.39233 0.72844 0.0
C1223 C 0.2855 0.39132 0.71026 0.0
H1224 H 0.27614 0.62087 0.32555 0.0
H1225 H 0.3261 0.6503 0.27109 0.0
H1226 H 0.24333 0.62005 0.29496 0.0
H1227 H 0.29317 0.64974 0.24066 0.0
H1228 H 0.23544 0.62161 0.18651 0.0
H1229 H 0.26799 0.6204 0.21727 0.0
H1230 H 0.2178 0.6494 0.27165 0.0
H1231 H 0.18504 0.65035 0.24095 0.0
C1232 C 0.28017 0.62708 0.30705 0.0
C1233 C 0.30381 0.63555 0.30077 0.0
C1234 C 0.2613 0.62677 0.28957 0.0
C1235 C 0.26563 0.63484 0.26539 0.0
C1236 C 0.28931 0.64311 0.25905 0.0
C1237 C 0.30817 0.64352 0.27654 0.0
C1238 C 0.23125 0.62761 0.20505 0.0
C1239 C 0.20757 0.63603 0.21125 0.0
C1240 C 0.24999 0.62706 0.22264 0.0
C1241 C 0.2455 0.63486 0.24688 0.0
C1242 C 0.22177 0.64301 0.25319 0.0
C1243 C 0.20302 0.64365 0.23556 0.0
H1244 H 0.68703 0.38124 0.27505 0.0
H1245 H 0.74232 0.3734 0.33161 0.0
H1246 H 0.71912 0.38153 0.24373 0.0
H1247 H 0.77445 0.37481 0.30054 0.0
H1248 H 0.82392 0.3496 0.23811 0.0
H1249 H 0.79185 0.35063 0.26929 0.0
H1250 H 0.75173 0.4042 0.22623 0.0
H1251 H 0.78337 0.40227 0.19454 0.0
C1252 C 0.70607 0.37997 0.28081 0.0
C1253 C 0.71212 0.37724 0.30579 0.0
C1254 C 0.72452 0.38025 0.26286 0.0
C1255 C 0.74947 0.3781 0.26952 0.0
C1256 C 0.75546 0.37597 0.29461 0.0
C1257 C 0.73702 0.37535 0.31249 0.0
C1258 C 0.8083 0.36167 0.23536 0.0
C1259 C 0.80621 0.37587 0.21387 0.0
C1260 C 0.78993 0.36239 0.25332 0.0
C1261 C 0.76914 0.37757 0.2504 0.0
C1262 C 0.76723 0.39198 0.22897 0.0
C1263 C 0.78546 0.39102 0.21085 0.0
H1264 H 0.24064 0.6512 0.82592 0.0
H1265 H 0.1863 0.62177 0.7758 0.0
H1266 H 0.27127 0.65024 0.79317 0.0
H1267 H 0.21707 0.62054 0.74319 0.0
H1268 H 0.27129 0.65022 0.685 0.0
H1269 H 0.24055 0.64959 0.71767 0.0
H1270 H 0.29472 0.62075 0.76819 0.0
H1271 H 0.32557 0.62166 0.73568 0.0
C1272 C 0.23525 0.64434 0.80799 0.0
C1273 C 0.211 0.6365 0.80353 0.0
C1274 C 0.25286 0.6437 0.78925 0.0
C1275 C 0.24661 0.6353 0.76558 0.0
C1276 C 0.2224 0.62736 0.76115 0.0
C1277 C 0.20481 0.62792 0.7799 0.0
C1278 C 0.27664 0.64361 0.70303 0.0
C1279 C 0.30092 0.63595 0.70768 0.0
C1280 C 0.25898 0.64316 0.72173 0.0
C1281 C 0.2652 0.63514 0.74553 0.0
C1282 C 0.28941 0.6273 0.75013 0.0
C1283 C 0.30705 0.62767 0.73142 0.0
H1284 H 0.78293 0.40243 0.8193 0.0
H1285 H 0.82379 0.34922 0.77665 0.0
H1286 H 0.75169 0.40419 0.78712 0.0
H1287 H 0.7922 0.35012 0.74507 0.0
H1288 H 0.74383 0.37264 0.68174 0.0
H1289 H 0.77549 0.37419 0.71335 0.0
H1290 H 0.71929 0.38138 0.76923 0.0
H1291 H 0.68772 0.38091 0.73742 0.0
C1292 C 0.78518 0.39103 0.8031 0.0
C1293 C 0.80591 0.37581 0.80046 0.0
C1294 C 0.76719 0.39191 0.7847 0.0
C1295 C 0.76936 0.37733 0.76339 0.0
C1296 C 0.79009 0.36202 0.76091 0.0
C1297 C 0.80819 0.36139 0.77912 0.0
C1298 C 0.73825 0.37469 0.70077 0.0
C1299 C 0.71327 0.37668 0.70708 0.0
C1300 C 0.75641 0.37541 0.71895 0.0
C1301 C 0.75002 0.37776 0.74394 0.0
C1302 C 0.72499 0.37995 0.75019 0.0
C1303 C 0.70684 0.37956 0.73195 0.0
H1304 H 0.27702 0.392 0.32545 0.0
H1305 H 0.32743 0.3627 0.27133 0.0
H1306 H 0.24456 0.39316 0.29458 0.0
H1307 H 0.29477 0.36361 0.24053 0.0
H1308 H 0.23645 0.39166 0.1863 0.0
H1309 H 0.26925 0.39284 0.21692 0.0
H1310 H 0.21945 0.36349 0.27145 0.0
H1311 H 0.18655 0.36255 0.24099 0.0
C1312 C 0.28124 0.3859 0.30695 0.0
C1313 C 0.30488 0.3773 0.30088 0.0
C1314 C 0.26255 0.38641 0.2893 0.0
C1315 C 0.26706 0.37841 0.26513 0.0
C1316 C 0.29078 0.37015 0.25893 0.0
C1317 C 0.30947 0.36953 0.27662 0.0
C1318 C 0.23242 0.3856 0.20486 0.0
C1319 C 0.20881 0.37711 0.2112 0.0
C1320 C 0.25129 0.38612 0.22235 0.0
C1321 C 0.24695 0.37826 0.2466 0.0
C1322 C 0.2233 0.36997 0.253 0.0
C1323 C 0.20447 0.36934 0.23549 0.0
H1324 H 0.68651 0.62078 0.27645 0.0
H1325 H 0.74079 0.64962 0.32697 0.0
H1326 H 0.71733 0.61982 0.24391 0.0
H1327 H 0.7715 0.64893 0.29426 0.0
H1328 H 0.82568 0.62124 0.236 0.0
H1329 H 0.79501 0.61988 0.26869 0.0
H1330 H 0.74057 0.64948 0.21892 0.0
H1331 H 0.7711 0.65057 0.18609 0.0
C1332 C 0.70503 0.62683 0.28066 0.0
C1333 C 0.71118 0.63522 0.30436 0.0
C1334 C 0.72265 0.62643 0.26195 0.0
C1335 C 0.74684 0.63435 0.26649 0.0
C1336 C 0.75308 0.64245 0.29025 0.0
C1337 C 0.73545 0.64293 0.30897 0.0
C1338 C 0.80714 0.62734 0.23196 0.0
C1339 C 0.80085 0.63594 0.20837 0.0
C1340 C 0.78961 0.6267 0.25076 0.0
C1341 C 0.76537 0.63457 0.2464 0.0
C1342 C 0.75902 0.64299 0.22278 0.0
C1343 C 0.77656 0.64371 0.20399 0.0
H1344 H 0.32756 0.74128 0.64959 0.0
H1345 H 0.27692 0.68672 0.62151 0.0
H1346 H 0.29478 0.77188 0.64908 0.0
H1347 H 0.24428 0.71746 0.62072 0.0
H1348 H 0.18666 0.77161 0.65154 0.0
H1349 H 0.21943 0.74098 0.65036 0.0
H1350 H 0.26907 0.79514 0.62005 0.0
H1351 H 0.23647 0.82588 0.62151 0.0
C1352 C 0.30951 0.73585 0.6431 0.0
C1353 C 0.30491 0.71153 0.63554 0.0
C1354 C 0.29075 0.75343 0.64272 0.0
C1355 C 0.26693 0.74709 0.63487 0.0
C1356 C 0.26236 0.72285 0.62713 0.0
C1357 C 0.28114 0.70527 0.62742 0.0
C1358 C 0.20452 0.77698 0.64452 0.0
C1359 C 0.2089 0.80121 0.63658 0.0
C1360 C 0.22327 0.75938 0.64374 0.0
C1361 C 0.24684 0.76563 0.63511 0.0
C1362 C 0.25118 0.78982 0.62705 0.0
C1363 C 0.23243 0.80739 0.62775 0.0
H1364 H 0.27525 0.32374 0.34956 0.0
H1365 H 0.3173 0.28283 0.40319 0.0
H1366 H 0.24374 0.29204 0.34992 0.0
H1367 H 0.28522 0.2515 0.40442 0.0
H1368 H 0.23659 0.18731 0.38022 0.0
H1369 H 0.26805 0.21917 0.38113 0.0
H1370 H 0.21173 0.27485 0.37331 0.0
H1371 H 0.18045 0.24287 0.3713 0.0
C1372 C 0.2776 0.30811 0.36171 0.0
C1373 C 0.29876 0.30582 0.37638 0.0
C1374 C 0.25943 0.28995 0.36203 0.0
C1375 C 0.2618 0.26916 0.37727 0.0
C1376 C 0.28291 0.26703 0.39215 0.0
C1377 C 0.30125 0.28507 0.39159 0.0
C1378 C 0.23094 0.20638 0.37882 0.0
C1379 C 0.20604 0.21257 0.37566 0.0
C1380 C 0.24898 0.22469 0.37947 0.0
C1381 C 0.24252 0.24967 0.37728 0.0
C1382 C 0.2175 0.25582 0.37457 0.0
C1383 C 0.1995 0.23748 0.37358 0.0
H1384 H 0.23666 0.82455 0.38123 0.0
H1385 H 0.18045 0.76883 0.37403 0.0
H1386 H 0.26819 0.79271 0.38182 0.0
H1387 H 0.21179 0.73691 0.37573 0.0
H1388 H 0.27464 0.68781 0.35077 0.0
H1389 H 0.24314 0.71952 0.35174 0.0
H1390 H 0.28607 0.76052 0.40474 0.0
H1391 H 0.31812 0.72919 0.40288 0.0
C1392 C 0.23102 0.80546 0.38017 0.0
C1393 C 0.20607 0.79921 0.37755 0.0
C1394 C 0.2491 0.78716 0.38063 0.0
C1395 C 0.24263 0.76214 0.37877 0.0
C1396 C 0.21757 0.75595 0.3767 0.0
C1397 C 0.19954 0.77426 0.3759 0.0
C1398 C 0.2773 0.70354 0.36272 0.0
C1399 C 0.29887 0.70596 0.37678 0.0
C1400 C 0.25915 0.72171 0.3634 0.0
C1401 C 0.26192 0.74264 0.3784 0.0
C1402 C 0.28343 0.74489 0.39267 0.0
C1403 C 0.30176 0.72684 0.39174 0.0
H1404 H 0.73496 0.68655 0.39117 0.0
H1405 H 0.685 0.74137 0.36242 0.0
H1406 H 0.76762 0.7172 0.39285 0.0
H1407 H 0.71784 0.77193 0.36381 0.0
H1408 H 0.7762 0.82566 0.39229 0.0
H1409 H 0.7433 0.79516 0.39315 0.0
H1410 H 0.79313 0.74057 0.36395 0.0
H1411 H 0.82613 0.7709 0.36337 0.0
C1412 C 0.73089 0.70515 0.38528 0.0
C1413 C 0.7073 0.71148 0.3767 0.0
C1414 C 0.74969 0.72268 0.38609 0.0
C1415 C 0.74536 0.74699 0.37842 0.0
C1416 C 0.7217 0.75342 0.37013 0.0
C1417 C 0.7029 0.73586 0.36923 0.0
C1418 C 0.78021 0.80711 0.38622 0.0
C1419 C 0.80387 0.80074 0.37786 0.0
C1420 C 0.76129 0.78968 0.38654 0.0
C1421 C 0.76558 0.76544 0.3786 0.0
C1422 C 0.78929 0.759 0.37049 0.0
C1423 C 0.80819 0.77644 0.37007 0.0
H1424 H 0.68117 0.2694 0.37244 0.0
H1425 H 0.73698 0.32532 0.38106 0.0
H1426 H 0.71265 0.23764 0.37397 0.0
H1427 H 0.7687 0.29364 0.38145 0.0
H1428 H 0.81861 0.22977 0.40217 0.0
H1429 H 0.78661 0.26117 0.40394 0.0
H1430 H 0.74423 0.22076 0.35003 0.0
H1431 H 0.77565 0.18898 0.34917 0.0
C1432 C 0.70021 0.27491 0.37457 0.0
C1433 C 0.70659 0.29987 0.37666 0.0
C1434 C 0.71833 0.2567 0.37526 0.0
C1435 C 0.74334 0.26299 0.37766 0.0
C1436 C 0.74965 0.288 0.37997 0.0
C1437 C 0.73147 0.30622 0.37963 0.0
C1438 C 0.80239 0.22759 0.3908 0.0
C1439 C 0.7996 0.20683 0.37564 0.0
C1440 C 0.78408 0.24567 0.39168 0.0
C1441 C 0.76272 0.24357 0.37717 0.0
C1442 C 0.7601 0.22282 0.3619 0.0
C1443 C 0.77822 0.20461 0.36128 0.0
H1444 H 0.82669 0.24074 0.65052 0.0
H1445 H 0.77668 0.18601 0.62169 0.0
H1446 H 0.7939 0.27131 0.64924 0.0
H1447 H 0.74401 0.21672 0.62013 0.0
H1448 H 0.68572 0.27125 0.64934 0.0
H1449 H 0.71837 0.24048 0.64878 0.0
H1450 H 0.76888 0.2945 0.61971 0.0
H1451 H 0.73639 0.32538 0.62055 0.0
C1452 C 0.80877 0.23525 0.64373 0.0
C1453 C 0.80437 0.2109 0.63616 0.0
C1454 C 0.79 0.25282 0.64289 0.0
C1455 C 0.76634 0.24646 0.63456 0.0
C1456 C 0.76196 0.22215 0.62688 0.0
C1457 C 0.78075 0.20459 0.62763 0.0
C1458 C 0.70374 0.27656 0.64268 0.0
C1459 C 0.70839 0.30082 0.63496 0.0
C1460 C 0.72244 0.25887 0.64227 0.0
C1461 C 0.74625 0.26504 0.63423 0.0
C1462 C 0.75082 0.28922 0.62628 0.0
C1463 C 0.73213 0.30689 0.62661 0.0
H1464 H 0.32646 0.27684 0.62193 0.0
H1465 H 0.27181 0.32691 0.65083 0.0
H1466 H 0.29577 0.24422 0.6204 0.0
H1467 H 0.2412 0.29409 0.64957 0.0
H1468 H 0.18738 0.23604 0.62054 0.0
H1469 H 0.21797 0.26883 0.62007 0.0
H1470 H 0.27227 0.21865 0.6492 0.0
H1471 H 0.24181 0.18572 0.64941 0.0
C1472 C 0.30789 0.28094 0.6279 0.0
C1473 C 0.30161 0.30456 0.63644 0.0
C1474 C 0.29034 0.26216 0.62717 0.0
C1475 C 0.26606 0.26653 0.6349 0.0
C1476 C 0.25968 0.2902 0.64321 0.0
C1477 C 0.27727 0.30899 0.64403 0.0
C1478 C 0.20588 0.23192 0.62669 0.0
C1479 C 0.21214 0.20818 0.63491 0.0
C1480 C 0.22337 0.25079 0.62659 0.0
C1481 C 0.24755 0.24637 0.63462 0.0
C1482 C 0.25388 0.22259 0.64262 0.0
C1483 C 0.23637 0.20373 0.64282 0.0
H1484 H 0.82822 0.77065 0.64962 0.0
H1485 H 0.77777 0.82504 0.62087 0.0
H1486 H 0.7954 0.74004 0.64904 0.0
H1487 H 0.74515 0.79434 0.62001 0.0
H1488 H 0.73659 0.68614 0.62153 0.0
H1489 H 0.76954 0.71655 0.62018 0.0
H1490 H 0.72018 0.77136 0.6498 0.0
H1491 H 0.68711 0.7411 0.65086 0.0
C1492 C 0.81022 0.77604 0.64297 0.0
C1493 C 0.80566 0.80032 0.63527 0.0
C1494 C 0.79144 0.75846 0.64255 0.0
C1495 C 0.76766 0.76478 0.63453 0.0
C1496 C 0.76319 0.78897 0.62658 0.0
C1497 C 0.78196 0.80652 0.62692 0.0
C1498 C 0.7327 0.7047 0.62763 0.0
C1499 C 0.70915 0.71119 0.63621 0.0
C1500 C 0.75165 0.72208 0.62701 0.0
C1501 C 0.74747 0.74636 0.63487 0.0
C1502 C 0.7239 0.75289 0.64331 0.0
C1503 C 0.70498 0.7355 0.64402 0.0
H1504 H 0.64949 0.18596 0.77046 0.0
H1505 H 0.62045 0.23601 0.82507 0.0
H1506 H 0.64894 0.2189 0.74005 0.0
H1507 H 0.61963 0.26883 0.7945 0.0
H1508 H 0.62152 0.27716 0.68608 0.0
H1509 H 0.61986 0.24447 0.71669 0.0
H1510 H 0.6493 0.29407 0.77138 0.0
H1511 H 0.65069 0.32694 0.74087 0.0
C1512 C 0.64279 0.20392 0.77595 0.0
C1513 C 0.63497 0.20831 0.80022 0.0
C1514 C 0.64238 0.22277 0.75847 0.0
C1515 C 0.63424 0.24648 0.76487 0.0
C1516 C 0.62625 0.25083 0.78908 0.0
C1517 C 0.62657 0.23196 0.80654 0.0
C1518 C 0.6275 0.28118 0.70466 0.0
C1519 C 0.63618 0.30472 0.71101 0.0
C1520 C 0.62669 0.26237 0.72216 0.0
C1521 C 0.63448 0.26666 0.74644 0.0
C1522 C 0.64289 0.29026 0.75289 0.0
C1523 C 0.64379 0.30907 0.73536 0.0
H1524 H 0.39104 0.77609 0.82625 0.0
H1525 H 0.3629 0.82677 0.77176 0.0
H1526 H 0.39219 0.74359 0.79539 0.0
H1527 H 0.36377 0.79411 0.74102 0.0
H1528 H 0.39146 0.73595 0.68683 0.0
H1529 H 0.39271 0.76854 0.71762 0.0
H1530 H 0.363 0.71856 0.77179 0.0
H1531 H 0.36204 0.68583 0.74114 0.0
C1532 C 0.38517 0.78035 0.80768 0.0
C1533 C 0.37693 0.8041 0.8015 0.0
C1534 C 0.38568 0.76165 0.79003 0.0
C1535 C 0.37803 0.76623 0.76576 0.0
C1536 C 0.37007 0.79004 0.75949 0.0
C1537 C 0.36948 0.80874 0.77716 0.0
C1538 C 0.38532 0.73184 0.70534 0.0
C1539 C 0.37672 0.70822 0.7115 0.0
C1540 C 0.38589 0.75059 0.72294 0.0
C1541 C 0.37794 0.74616 0.74715 0.0
C1542 C 0.36955 0.72249 0.75338 0.0
C1543 C 0.3689 0.70376 0.73576 0.0
H1544 H 0.60972 0.73044 0.31879 0.0
H1545 H 0.66184 0.68925 0.27514 0.0
H1546 H 0.60778 0.76186 0.28683 0.0
H1547 H 0.66079 0.72104 0.24373 0.0
H1548 H 0.63818 0.77012 0.18102 0.0
H1549 H 0.63667 0.73827 0.21243 0.0
H1550 H 0.63032 0.79416 0.26872 0.0
H1551 H 0.63071 0.82593 0.23711 0.0
C1552 C 0.62086 0.72816 0.30242 0.0
C1553 C 0.63583 0.70729 0.29946 0.0
C1554 C 0.61988 0.74626 0.28413 0.0
C1555 C 0.63409 0.74407 0.26258 0.0
C1556 C 0.64915 0.72318 0.25976 0.0
C1557 C 0.64988 0.70497 0.27788 0.0
C1558 C 0.63629 0.77559 0.2001 0.0
C1559 C 0.63453 0.80056 0.20656 0.0
C1560 C 0.63561 0.75732 0.21817 0.0
C1561 C 0.63355 0.76355 0.24323 0.0
C1562 C 0.63154 0.78857 0.24964 0.0
C1563 C 0.63187 0.80684 0.23151 0.0
H1564 H 0.34965 0.27543 0.32423 0.0
H1565 H 0.40244 0.31888 0.28371 0.0
H1566 H 0.351 0.24401 0.29245 0.0
H1567 H 0.40466 0.28691 0.25232 0.0
H1568 H 0.38221 0.23747 0.18788 0.0
H1569 H 0.38234 0.269 0.21972 0.0
H1570 H 0.3752 0.21262 0.27542 0.0
H1571 H 0.37397 0.18128 0.24348 0.0
C1572 C 0.36182 0.27812 0.30867 0.0
C1573 C 0.37597 0.29965 0.30653 0.0
C1574 C 0.36272 0.25999 0.29046 0.0
C1575 C 0.37803 0.26276 0.26976 0.0
C1576 C 0.39236 0.28426 0.26776 0.0
C1577 C 0.39122 0.30255 0.28585 0.0
C1578 C 0.38082 0.23182 0.20694 0.0
C1579 C 0.37803 0.20688 0.21313 0.0
C1580 C 0.38101 0.24991 0.22526 0.0
C1581 C 0.37871 0.24346 0.25025 0.0
C1582 C 0.3765 0.2184 0.25639 0.0
C1583 C 0.37597 0.20036 0.23807 0.0
H1584 H 0.36151 0.24081 0.82699 0.0
H1585 H 0.39072 0.18621 0.77704 0.0
H1586 H 0.36287 0.27142 0.79421 0.0
H1587 H 0.39235 0.21693 0.74443 0.0
H1588 H 0.36306 0.27102 0.68605 0.0
H1589 H 0.36339 0.24045 0.71887 0.0
H1590 H 0.39263 0.2946 0.76916 0.0
H1591 H 0.39204 0.32531 0.73648 0.0
C1592 C 0.3684 0.23537 0.8091 0.0
C1593 C 0.37605 0.21104 0.80468 0.0
C1594 C 0.36927 0.25295 0.79034 0.0
C1595 C 0.37771 0.24659 0.76672 0.0
C1596 C 0.3855 0.22233 0.76235 0.0
C1597 C 0.38471 0.20477 0.78111 0.0
C1598 C 0.3697 0.2764 0.70406 0.0
C1599 C 0.37758 0.30062 0.70859 0.0
C1600 C 0.36998 0.25883 0.72285 0.0
C1601 C 0.37803 0.26511 0.74662 0.0
C1602 C 0.38607 0.28927 0.75111 0.0
C1603 C 0.38589 0.30681 0.73232 0.0
H1604 H 0.62122 0.7764 0.82634 0.0
H1605 H 0.64997 0.82655 0.77169 0.0
H1606 H 0.62028 0.74363 0.7957 0.0
H1607 H 0.64932 0.79368 0.74123 0.0
H1608 H 0.6214 0.73603 0.6871 0.0
H1609 H 0.62009 0.76846 0.71798 0.0
H1610 H 0.64944 0.71822 0.77212 0.0
H1611 H 0.65046 0.68557 0.74131 0.0
C1612 C 0.62726 0.78048 0.80779 0.0
C1613 C 0.63557 0.80417 0.80147 0.0
C1614 C 0.62688 0.76163 0.79028 0.0
C1615 C 0.63473 0.76604 0.76604 0.0
C1616 C 0.64285 0.78976 0.75967 0.0
C1617 C 0.64331 0.80859 0.77718 0.0
C1618 C 0.62745 0.73181 0.70562 0.0
C1619 C 0.636 0.70815 0.71172 0.0
C1620 C 0.62684 0.75047 0.72328 0.0
C1621 C 0.63472 0.74595 0.74748 0.0
C1622 C 0.64298 0.72222 0.7537 0.0
C1623 C 0.64367 0.70354 0.736 0.0
H1624 H 0.63085 0.27524 0.32435 0.0
H1625 H 0.63884 0.33181 0.2691 0.0
H1626 H 0.6307 0.24393 0.2923 0.0
H1627 H 0.63757 0.30068 0.23695 0.0
H1628 H 0.66282 0.23793 0.18764 0.0
H1629 H 0.66159 0.26935 0.21949 0.0
H1630 H 0.60814 0.22635 0.2598 0.0
H1631 H 0.61026 0.19443 0.22841 0.0
C1632 C 0.63218 0.28101 0.30532 0.0
C1633 C 0.63489 0.306 0.29928 0.0
C1634 C 0.63198 0.26306 0.28688 0.0
C1635 C 0.63417 0.26968 0.26193 0.0
C1636 C 0.63635 0.29478 0.25594 0.0
C1637 C 0.63689 0.31269 0.27438 0.0
C1638 C 0.65073 0.23524 0.20326 0.0
C1639 C 0.63664 0.21369 0.20549 0.0
C1640 C 0.6499 0.25335 0.2215 0.0
C1641 C 0.63471 0.25051 0.2423 0.0
C1642 C 0.62037 0.22903 0.24431 0.0
C1643 C 0.62145 0.21078 0.22621 0.0
H1644 H 0.39052 0.82634 0.23642 0.0
H1645 H 0.3617 0.77175 0.18622 0.0
H1646 H 0.39129 0.79573 0.26922 0.0
H1647 H 0.36221 0.7413 0.21912 0.0
H1648 H 0.39024 0.68724 0.27694 0.0
H1649 H 0.39152 0.71806 0.24446 0.0
H1650 H 0.36189 0.7722 0.29453 0.0
H1651 H 0.36087 0.74144 0.32724 0.0
C1652 C 0.38443 0.80781 0.23233 0.0
C1653 C 0.37614 0.8015 0.20863 0.0
C1654 C 0.38471 0.79032 0.25119 0.0
C1655 C 0.3768 0.76609 0.24678 0.0
C1656 C 0.36871 0.75973 0.22304 0.0
C1657 C 0.36833 0.77723 0.2042 0.0
C1658 C 0.38412 0.70574 0.28112 0.0
C1659 C 0.3755 0.71186 0.30475 0.0
C1660 C 0.3847 0.72337 0.26242 0.0
C1661 C 0.37675 0.74756 0.26689 0.0
C1662 C 0.3684 0.75378 0.29058 0.0
C1663 C 0.36772 0.73612 0.30929 0.0
H1664 H 0.17917 0.94273 0.39011 0.0
H1665 H 0.12204 0.94414 0.33488 0.0
H1666 H 0.17739 0.9874 0.39312 0.0
H1667 H 0.12104 0.98883 0.33694 0.0
H1668 H 0.11276 0.06916 0.35624 0.0
H1669 H 0.11073 0.0244 0.35931 0.0
H1670 H 0.18949 0.02181 0.37041 0.0
H1671 H 0.19126 0.06632 0.36848 0.0
C1672 C 0.16626 0.95261 0.37858 0.0
C1673 C 0.15088 0.93991 0.36215 0.0
C1674 C 0.16532 0.97826 0.38017 0.0
C1675 C 0.14926 0.99189 0.36508 0.0
C1676 C 0.13341 0.97905 0.34911 0.0
C1677 C 0.13409 0.95337 0.3478 0.0
C1678 C 0.12958 0.05898 0.35955 0.0
C1679 C 0.15216 0.07132 0.36207 0.0
C1680 C 0.12846 0.03329 0.36117 0.0
C1681 C 0.14996 0.01934 0.36504 0.0
C1682 C 0.17245 0.03182 0.3679 0.0
C1683 C 0.17351 0.05745 0.36661 0.0
H1684 H 0.94243 0.11371 0.34684 0.0
H1685 H 0.94507 0.18663 0.37853 0.0
H1686 H 0.98719 0.1113 0.34881 0.0
H1687 H 0.98976 0.18435 0.38004 0.0
H1688 H 0.06916 0.16597 0.39702 0.0
H1689 H 0.02441 0.16395 0.39963 0.0
H1690 H 0.02173 0.13028 0.32767 0.0
H1691 H 0.06642 0.13184 0.32521 0.0
C1692 C 0.95252 0.12919 0.35433 0.0
C1693 C 0.94012 0.15045 0.36236 0.0
C1694 C 0.9782 0.12784 0.35533 0.0
C1695 C 0.99209 0.14768 0.36444 0.0
C1696 C 0.97964 0.16862 0.37316 0.0
C1697 C 0.95398 0.16999 0.37214 0.0
C1698 C 0.05906 0.15794 0.38183 0.0
C1699 C 0.07142 0.14923 0.36082 0.0
C1700 C 0.03338 0.1569 0.38328 0.0
C1701 C 0.01946 0.14709 0.3638 0.0
C1702 C 0.03188 0.13771 0.34313 0.0
C1703 C 0.05753 0.13875 0.34166 0.0
H1704 H 0.82729 0.06683 0.38386 0.0
H1705 H 0.89522 0.06903 0.34289 0.0
H1706 H 0.8291 0.0222 0.3848 0.0
H1707 H 0.89829 0.02438 0.34533 0.0
H1708 H 0.88166 0.94436 0.32713 0.0
H1709 H 0.88279 0.98899 0.32906 0.0
H1710 H 0.84573 0.98665 0.39957 0.0
H1711 H 0.84306 0.94202 0.39643 0.0
C1712 C 0.84295 0.0577 0.37556 0.0
C1713 C 0.86104 0.07133 0.36318 0.0
C1714 C 0.84414 0.03202 0.37622 0.0
C1715 C 0.86382 0.01932 0.36506 0.0
C1716 C 0.88247 0.03323 0.35357 0.0
C1717 C 0.88089 0.05889 0.35234 0.0
C1718 C 0.87392 0.95346 0.34309 0.0
C1719 C 0.86215 0.93979 0.36156 0.0
C1720 C 0.87469 0.97913 0.34435 0.0
C1721 C 0.86427 0.99179 0.36446 0.0
C1722 C 0.85338 0.97783 0.38344 0.0
C1723 C 0.85202 0.95219 0.38181 0.0
H1724 H 0.94467 0.86709 0.32042 0.0
H1725 H 0.94194 0.85534 0.399 0.0
H1726 H 0.98921 0.86906 0.32214 0.0
H1727 H 0.98669 0.85842 0.40097 0.0
H1728 H 0.0671 0.83443 0.38987 0.0
H1729 H 0.02239 0.83616 0.39077 0.0
H1730 H 0.02351 0.89209 0.33417 0.0
H1731 H 0.0682 0.88943 0.33252 0.0
C1732 C 0.95358 0.86531 0.33817 0.0
C1733 C 0.93973 0.86092 0.35956 0.0
C1734 C 0.97921 0.86663 0.3392 0.0
C1735 C 0.99172 0.86394 0.36171 0.0
C1736 C 0.97779 0.86016 0.38323 0.0
C1737 C 0.9521 0.85852 0.38215 0.0
C1738 C 0.0578 0.84723 0.37774 0.0
C1739 C 0.07119 0.86162 0.36094 0.0
C1740 C 0.0321 0.84835 0.37836 0.0
C1741 C 0.01917 0.86414 0.36241 0.0
C1742 C 0.03272 0.87927 0.34632 0.0
C1743 C 0.05839 0.87788 0.34546 0.0
H1744 H 0.16662 0.06971 0.61394 0.0
H1745 H 0.13393 0.06768 0.68642 0.0
H1746 H 0.16414 0.02497 0.61163 0.0
H1747 H 0.13196 0.02302 0.6843 0.0
H1748 H 0.18684 0.94573 0.63265 0.0
H1749 H 0.18462 0.99037 0.63078 0.0
H1750 H 0.11252 0.98828 0.66419 0.0
H1751 H 0.11493 0.94351 0.66656 0.0
C1752 C 0.15882 0.05977 0.62934 0.0
C1753 C 0.15066 0.07234 0.65045 0.0
C1754 C 0.15751 0.03409 0.62807 0.0
C1755 C 0.14799 0.02036 0.64784 0.0
C1756 C 0.13915 0.03299 0.66861 0.0
C1757 C 0.14045 0.05864 0.66989 0.0
C1758 C 0.17041 0.95472 0.63945 0.0
C1759 C 0.15116 0.94098 0.64996 0.0
C1760 C 0.16907 0.98037 0.63822 0.0
C1761 C 0.14843 0.99296 0.64742 0.0
C1762 C 0.12884 0.97919 0.65726 0.0
C1763 C 0.13017 0.9535 0.6585 0.0
H1764 H 0.94313 0.16709 0.61522 0.0
H1765 H 0.94585 0.13432 0.68765 0.0
H1766 H 0.98788 0.16489 0.61262 0.0
H1767 H 0.99051 0.13263 0.68522 0.0
H1768 H 0.06978 0.1154 0.66654 0.0
H1769 H 0.02499 0.11315 0.66471 0.0
H1770 H 0.02272 0.18532 0.63147 0.0
H1771 H 0.0674 0.18738 0.63279 0.0
C1772 C 0.95323 0.15935 0.63056 0.0
C1773 C 0.94085 0.15105 0.65172 0.0
C1774 C 0.97891 0.1582 0.62911 0.0
C1775 C 0.99283 0.1487 0.64876 0.0
C1776 C 0.98039 0.13979 0.66962 0.0
C1777 C 0.95474 0.14093 0.67108 0.0
C1778 C 0.05975 0.1307 0.65864 0.0
C1779 C 0.07223 0.15165 0.64998 0.0
C1780 C 0.03404 0.12946 0.65772 0.0
C1781 C 0.02022 0.14911 0.64808 0.0
C1782 C 0.03276 0.16973 0.63877 0.0
C1783 C 0.05843 0.17097 0.63968 0.0
H1784 H 0.89127 0.06771 0.67863 0.0
H1785 H 0.83591 0.06845 0.62162 0.0
H1786 H 0.89243 0.02296 0.677 0.0
H1787 H 0.83785 0.02378 0.61909 0.0
H1788 H 0.82242 0.9456 0.6444 0.0
H1789 H 0.82468 0.99005 0.64229 0.0
H1790 H 0.9031 0.98679 0.65536 0.0
H1791 H 0.90058 0.94203 0.65855 0.0
C1792 C 0.87969 0.05832 0.6654 0.0
C1793 C 0.86328 0.0716 0.65045 0.0
C1794 C 0.88044 0.03261 0.66436 0.0
C1795 C 0.86504 0.0196 0.6481 0.0
C1796 C 0.84952 0.03306 0.63231 0.0
C1797 C 0.8485 0.05871 0.63362 0.0
C1798 C 0.84021 0.95429 0.64669 0.0
C1799 C 0.86131 0.94022 0.65174 0.0
C1800 C 0.84155 0.97989 0.64529 0.0
C1801 C 0.8641 0.99217 0.64855 0.0
C1802 C 0.88535 0.97804 0.65311 0.0
C1803 C 0.88394 0.95236 0.65481 0.0
H1804 H 0.94308 0.85467 0.61253 0.0
H1805 H 0.94667 0.86932 0.69059 0.0
H1806 H 0.98785 0.85748 0.61002 0.0
H1807 H 0.99116 0.87107 0.68835 0.0
H1808 H 0.06976 0.89107 0.67686 0.0
H1809 H 0.02512 0.89387 0.67497 0.0
H1810 H 0.02382 0.8355 0.6209 0.0
H1811 H 0.06859 0.83356 0.62203 0.0
C1812 C 0.95341 0.85847 0.62914 0.0
C1813 C 0.94128 0.86175 0.65175 0.0
C1814 C 0.97911 0.85994 0.62775 0.0
C1815 C 0.99326 0.86449 0.64898 0.0
C1816 C 0.98098 0.86804 0.67149 0.0
C1817 C 0.95537 0.86686 0.67283 0.0
C1818 C 0.05993 0.879 0.66441 0.0
C1819 C 0.07269 0.86195 0.64976 0.0
C1820 C 0.03429 0.88048 0.66342 0.0
C1821 C 0.0207 0.86467 0.64804 0.0
C1822 C 0.03358 0.84816 0.63278 0.0
C1823 C 0.05929 0.84694 0.63351 0.0
H1824 H 0.34653 0.1152 0.06993 0.0
H1825 H 0.37918 0.18768 0.0674 0.0
H1826 H 0.34874 0.11271 0.02519 0.0
H1827 H 0.38086 0.18538 0.02274 0.0
H1828 H 0.39742 0.16724 0.94319 0.0
H1829 H 0.40007 0.16517 0.98797 0.0
H1830 H 0.32805 0.13164 0.99066 0.0
H1831 H 0.32559 0.13318 0.94603 0.0
C1832 C 0.35426 0.13057 0.05987 0.0
C1833 C 0.36249 0.15173 0.0723 0.0
C1834 C 0.35541 0.12918 0.0342 0.0
C1835 C 0.36484 0.1489 0.02033 0.0
C1836 C 0.37375 0.16973 0.03282 0.0
C1837 C 0.37261 0.17112 0.05847 0.0
C1838 C 0.38224 0.15922 0.95332 0.0
C1839 C 0.36121 0.15054 0.94097 0.0
C1840 C 0.38371 0.15816 0.97901 0.0
C1841 C 0.36423 0.14836 0.99294 0.0
C1842 C 0.34353 0.13904 0.98053 0.0
C1843 C 0.34205 0.14009 0.95489 0.0
H1844 H 0.83275 0.38992 0.94427 0.0
H1845 H 0.88976 0.33457 0.94555 0.0
H1846 H 0.8347 0.39298 0.98894 0.0
H1847 H 0.89095 0.3367 0.99023 0.0
H1848 H 0.89977 0.35629 0.07049 0.0
H1849 H 0.90152 0.35914 0.0257 0.0
H1850 H 0.82278 0.37041 0.02354 0.0
H1851 H 0.82128 0.36868 0.06807 0.0
C1852 C 0.84567 0.37837 0.95412 0.0
C1853 C 0.86097 0.3619 0.94137 0.0
C1854 C 0.84671 0.37999 0.97978 0.0
C1855 C 0.86281 0.3649 0.99337 0.0
C1856 C 0.87856 0.34888 0.98049 0.0
C1857 C 0.87777 0.34752 0.95481 0.0
C1858 C 0.88289 0.35959 0.0604 0.0
C1859 C 0.86039 0.36221 0.07288 0.0
C1860 C 0.88385 0.36108 0.03469 0.0
C1861 C 0.86228 0.36495 0.02084 0.0
C1862 C 0.83987 0.3679 0.03346 0.0
C1863 C 0.83897 0.36672 0.0591 0.0
H1864 H 0.63256 0.82755 0.94577 0.0
H1865 H 0.66911 0.89814 0.9429 0.0
H1866 H 0.63126 0.83 0.9904 0.0
H1867 H 0.66734 0.90078 0.98771 0.0
H1868 H 0.68909 0.87845 0.06728 0.0
H1869 H 0.68694 0.8805 0.02257 0.0
H1870 H 0.6129 0.85168 0.02473 0.0
H1871 H 0.61517 0.84914 0.06943 0.0
C1872 C 0.64008 0.84374 0.95462 0.0
C1873 C 0.65112 0.86255 0.9407 0.0
C1874 C 0.63918 0.84522 0.98026 0.0
C1875 C 0.64926 0.86556 0.99266 0.0
C1876 C 0.65971 0.8847 0.97873 0.0
C1877 C 0.66059 0.88324 0.95304 0.0
C1878 C 0.67227 0.87271 0.05827 0.0
C1879 C 0.6524 0.86338 0.07198 0.0
C1880 C 0.67098 0.87404 0.0326 0.0
C1881 C 0.6498 0.86612 0.02004 0.0
C1882 C 0.62964 0.85755 0.03381 0.0
C1883 C 0.63091 0.85621 0.05946 0.0
H1884 H 0.11404 0.66453 0.06868 0.0
H1885 H 0.18735 0.63374 0.06653 0.0
H1886 H 0.11156 0.66152 0.02397 0.0
H1887 H 0.18506 0.63129 0.02192 0.0
H1888 H 0.16798 0.61407 0.94237 0.0
H1889 H 0.16553 0.61135 0.98715 0.0
H1890 H 0.13011 0.68249 0.98949 0.0
H1891 H 0.13201 0.68498 0.94493 0.0
C1892 C 0.12959 0.65703 0.05872 0.0
C1893 C 0.15098 0.6496 0.07122 0.0
C1894 C 0.1282 0.65541 0.03307 0.0
C1895 C 0.14817 0.64631 0.01932 0.0
C1896 C 0.16923 0.63813 0.03191 0.0
C1897 C 0.17061 0.63972 0.05753 0.0
C1898 C 0.15945 0.62901 0.95243 0.0
C1899 C 0.15038 0.64983 0.94002 0.0
C1900 C 0.15816 0.62751 0.97811 0.0
C1901 C 0.14772 0.64675 0.99195 0.0
C1902 C 0.13799 0.66719 0.97945 0.0
C1903 C 0.13926 0.66869 0.95384 0.0
H1904 H 0.34462 0.89765 0.94358 0.0
H1905 H 0.37805 0.82551 0.94604 0.0
H1906 H 0.34723 0.90027 0.98834 0.0
H1907 H 0.38013 0.82794 0.99063 0.0
H1908 H 0.39739 0.84598 0.06982 0.0
H1909 H 0.3996 0.8484 0.02504 0.0
H1910 H 0.32718 0.88115 0.02323 0.0
H1911 H 0.32516 0.87926 0.06788 0.0
C1912 C 0.3526 0.8824 0.95362 0.0
C1913 C 0.36095 0.8613 0.94118 0.0
C1914 C 0.35399 0.88385 0.9793 0.0
C1915 C 0.36379 0.86427 0.99312 0.0
C1916 C 0.37276 0.84349 0.98059 0.0
C1917 C 0.37138 0.84204 0.95497 0.0
C1918 C 0.38203 0.8539 0.05989 0.0
C1919 C 0.36101 0.86223 0.07248 0.0
C1920 C 0.38325 0.85517 0.0342 0.0
C1921 C 0.36351 0.86483 0.02051 0.0
C1922 C 0.34284 0.87386 0.03317 0.0
C1923 C 0.34162 0.8726 0.05882 0.0
H1924 H 0.11524 0.34485 0.0694 0.0
H1925 H 0.18642 0.38023 0.0665 0.0
H1926 H 0.1126 0.34662 0.02462 0.0
H1927 H 0.18395 0.38154 0.02183 0.0
H1928 H 0.16466 0.39772 0.94262 0.0
H1929 H 0.16256 0.40011 0.98735 0.0
H1930 H 0.13242 0.3266 0.98986 0.0
H1931 H 0.13405 0.32436 0.94514 0.0
C1932 C 0.13027 0.35311 0.05926 0.0
C1933 C 0.15112 0.36225 0.07159 0.0
C1934 C 0.12881 0.354 0.03357 0.0
C1935 C 0.14811 0.3641 0.01961 0.0
C1936 C 0.16862 0.37388 0.032 0.0
C1937 C 0.1701 0.37298 0.05765 0.0
C1938 C 0.1574 0.38213 0.95267 0.0
C1939 C 0.14971 0.36076 0.94025 0.0
C1940 C 0.15631 0.38346 0.97835 0.0
C1941 C 0.14748 0.36349 0.99223 0.0
C1942 C 0.13909 0.34243 0.97975 0.0
C1943 C 0.14018 0.34108 0.95408 0.0
H1944 H 0.68692 0.13298 0.06605 0.0
H1945 H 0.61455 0.1659 0.06859 0.0
H1946 H 0.68448 0.13097 0.02143 0.0
H1947 H 0.61191 0.16335 0.02385 0.0
H1948 H 0.6665 0.11435 0.94197 0.0
H1949 H 0.66422 0.11172 0.98674 0.0
H1950 H 0.63093 0.18387 0.98925 0.0
H1951 H 0.63268 0.1863 0.94463 0.0
C1952 C 0.67034 0.13952 0.05713 0.0
C1953 C 0.65104 0.14984 0.07095 0.0
C1954 C 0.66888 0.1382 0.0315 0.0
C1955 C 0.64805 0.1471 0.01901 0.0
C1956 C 0.62839 0.15668 0.03287 0.0
C1957 C 0.62985 0.15802 0.05853 0.0
C1958 C 0.6585 0.12956 0.95206 0.0
C1959 C 0.64996 0.15061 0.93967 0.0
C1960 C 0.6573 0.1281 0.97774 0.0
C1961 C 0.64751 0.14764 0.99162 0.0
C1962 C 0.63831 0.16835 0.97916 0.0
C1963 C 0.63949 0.16981 0.95352 0.0
H1964 H 0.85301 0.61194 0.94222 0.0
H1965 H 0.868 0.68994 0.94572 0.0
H1966 H 0.85581 0.60948 0.98701 0.0
H1967 H 0.86976 0.68775 0.9902 0.0
H1968 H 0.89018 0.67625 0.06866 0.0
H1969 H 0.89276 0.67423 0.02401 0.0
H1970 H 0.83398 0.62061 0.02308 0.0
H1971 H 0.83225 0.62186 0.06787 0.0
C1972 C 0.85686 0.62855 0.95253 0.0
C1973 C 0.86027 0.65112 0.94037 0.0
C1974 C 0.85833 0.62719 0.97824 0.0
C1975 C 0.86303 0.64841 0.99235 0.0
C1976 C 0.86664 0.67089 0.98005 0.0
C1977 C 0.86544 0.67219 0.95444 0.0
C1978 C 0.87796 0.66386 0.05891 0.0
C1979 C 0.86086 0.64939 0.07178 0.0
C1980 C 0.87932 0.6628 0.03327 0.0
C1981 C 0.86333 0.64752 0.01978 0.0
C1982 C 0.84677 0.63241 0.03277 0.0
C1983 C 0.84567 0.63322 0.05848 0.0
H1984 H 0.06733 0.32162 0.14313 0.0
H1985 H 0.07091 0.39953 0.1585 0.0
H1986 H 0.02281 0.32389 0.14142 0.0
H1987 H 0.02616 0.40209 0.15572 0.0
H1988 H 0.94551 0.39024 0.1795 0.0
H1989 H 0.99027 0.39118 0.17756 0.0
H1990 H 0.98873 0.33743 0.11889 0.0
H1991 H 0.94408 0.33571 0.12171 0.0
C1992 C 0.05862 0.33936 0.14576 0.0
C1993 C 0.07271 0.36038 0.15107 0.0
C1994 C 0.033 0.34071 0.1446 0.0
C1995 C 0.02072 0.3632 0.14837 0.0
C1996 C 0.03489 0.38437 0.15311 0.0
C1997 C 0.06057 0.38295 0.15457 0.0
C1998 C 0.95475 0.3788 0.16604 0.0
C1999 C 0.94127 0.36269 0.15095 0.0
C2000 C 0.98046 0.37941 0.16482 0.0
C2001 C 0.99328 0.36419 0.14823 0.0
C2002 C 0.97962 0.34895 0.13235 0.0
C2003 C 0.95397 0.34807 0.13383 0.0
H2004 H 0.06955 0.65823 0.9001 0.0
H2005 H 0.06582 0.64305 0.82214 0.0
H2006 H 0.02476 0.65546 0.90269 0.0
H2007 H 0.02136 0.64134 0.82445 0.0
H2008 H 0.94288 0.62126 0.83598 0.0
H2009 H 0.98752 0.61853 0.83798 0.0
H2010 H 0.98863 0.67721 0.89173 0.0
H2011 H 0.94384 0.67906 0.89051 0.0
C2012 C 0.05918 0.65432 0.88352 0.0
C2013 C 0.07129 0.65086 0.86092 0.0
C2014 C 0.03348 0.65288 0.88496 0.0
C2015 C 0.0193 0.64815 0.86379 0.0
C2016 C 0.03155 0.64448 0.84128 0.0
C2017 C 0.05716 0.64564 0.8399 0.0
C2018 C 0.95267 0.63342 0.8484 0.0
C2019 C 0.93985 0.65052 0.86292 0.0
C2020 C 0.97831 0.63198 0.84945 0.0
C2021 C 0.99185 0.64791 0.86474 0.0
C2022 C 0.97891 0.66446 0.87991 0.0
C2023 C 0.95319 0.66563 0.87912 0.0
H2024 H 0.39814 0.9427 0.84624 0.0
H2025 H 0.32618 0.9449 0.88007 0.0
H2026 H 0.40057 0.98748 0.84876 0.0
H2027 H 0.32841 0.9895 0.88207 0.0
H2028 H 0.37865 0.06668 0.82619 0.0
H2029 H 0.38098 0.02208 0.82855 0.0
H2030 H 0.34879 0.02416 0.90121 0.0
H2031 H 0.34593 0.06889 0.89866 0.0
C2032 C 0.38289 0.95268 0.85431 0.0
C2033 C 0.36187 0.94017 0.86276 0.0
C2034 C 0.38424 0.97837 0.85565 0.0
C2035 C 0.36463 0.99212 0.8655 0.0
C2036 C 0.34398 0.97952 0.87464 0.0
C2037 C 0.34263 0.95389 0.87331 0.0
C2038 C 0.3722 0.05769 0.84277 0.0
C2039 C 0.36185 0.07141 0.86213 0.0
C2040 C 0.37373 0.03207 0.84419 0.0
C2041 C 0.36499 0.0195 0.86503 0.0
C2042 C 0.35536 0.03325 0.88474 0.0
C2043 C 0.35382 0.05891 0.88332 0.0
H2044 H 0.06964 0.34533 0.89745 0.0
H2045 H 0.06645 0.37853 0.82522 0.0
H2046 H 0.02491 0.34724 0.90024 0.0
H2047 H 0.02178 0.37998 0.82787 0.0
H2048 H 0.94274 0.39689 0.84737 0.0
H2049 H 0.98747 0.3993 0.84913 0.0
H2050 H 0.99016 0.32654 0.88101 0.0
H2051 H 0.94545 0.32426 0.87971 0.0
C2052 C 0.05944 0.35313 0.8822 0.0
C2053 C 0.07167 0.36162 0.86102 0.0
C2054 C 0.03378 0.3541 0.88376 0.0
C2055 C 0.01975 0.36363 0.86423 0.0
C2056 C 0.03203 0.37277 0.84337 0.0
C2057 C 0.05767 0.37179 0.84179 0.0
C2058 C 0.95283 0.38148 0.85496 0.0
C2059 C 0.94047 0.36029 0.86322 0.0
C2060 C 0.9785 0.38282 0.85584 0.0
C2061 C 0.99241 0.36305 0.86505 0.0
C2062 C 0.98001 0.3422 0.87403 0.0
C2063 C 0.95434 0.34084 0.87315 0.0
H2064 H 0.6904 0.94601 0.86831 0.0
H2065 H 0.61227 0.94244 0.85406 0.0
H2066 H 0.68825 0.99049 0.8698 0.0
H2067 H 0.60984 0.98724 0.85663 0.0
H2068 H 0.62152 0.06789 0.83262 0.0
H2069 H 0.62049 0.02314 0.83463 0.0
H2070 H 0.67521 0.02462 0.8924 0.0
H2071 H 0.67701 0.06926 0.88948 0.0
C2072 C 0.67264 0.95471 0.86587 0.0
C2073 C 0.65152 0.94062 0.86096 0.0
C2074 C 0.67135 0.98034 0.86691 0.0
C2075 C 0.64884 0.99264 0.86343 0.0
C2076 C 0.62757 0.97849 0.85903 0.0
C2077 C 0.62892 0.95278 0.8577 0.0
C2078 C 0.63318 0.05864 0.84588 0.0
C2079 C 0.64956 0.0721 0.86069 0.0
C2080 C 0.6325 0.03293 0.84715 0.0
C2081 C 0.64795 0.02009 0.86351 0.0
C2082 C 0.6635 0.03374 0.87911 0.0
C2083 C 0.66444 0.05939 0.87757 0.0
H2084 H 0.9453 0.63313 0.18638 0.0
H2085 H 0.94279 0.66588 0.11393 0.0
H2086 H 0.98995 0.63145 0.18411 0.0
H2087 H 0.98756 0.6637 0.11149 0.0
H2088 H 0.06683 0.68675 0.13246 0.0
H2089 H 0.02217 0.68436 0.13067 0.0
H2090 H 0.02462 0.61213 0.16375 0.0
H2091 H 0.06938 0.61469 0.16604 0.0
C2092 C 0.95423 0.63971 0.16983 0.0
C2093 C 0.94041 0.64985 0.15043 0.0
C2094 C 0.97988 0.63859 0.16846 0.0
C2095 C 0.99239 0.64753 0.14766 0.0
C2096 C 0.97853 0.65699 0.12794 0.0
C2097 C 0.95284 0.65811 0.12929 0.0
C2098 C 0.0579 0.67026 0.13921 0.0
C2099 C 0.07174 0.65101 0.14961 0.0
C2100 C 0.03226 0.66883 0.13802 0.0
C2101 C 0.01977 0.6481 0.14715 0.0
C2102 C 0.03364 0.62852 0.15688 0.0
C2103 C 0.05932 0.62995 0.15808 0.0
H2104 H 0.3444 0.94336 0.11485 0.0
H2105 H 0.37997 0.94586 0.18596 0.0
H2106 H 0.34688 0.98811 0.11214 0.0
H2107 H 0.38193 0.99045 0.18347 0.0
H2108 H 0.39857 0.06957 0.16501 0.0
H2109 H 0.40074 0.02483 0.16244 0.0
H2110 H 0.32738 0.02303 0.13184 0.0
H2111 H 0.32539 0.06769 0.13388 0.0
C2112 C 0.35284 0.9534 0.12985 0.0
C2113 C 0.36182 0.94097 0.1507 0.0
C2114 C 0.35415 0.97908 0.12835 0.0
C2115 C 0.3645 0.99291 0.14764 0.0
C2116 C 0.37411 0.9804 0.16814 0.0
C2117 C 0.37282 0.95478 0.16964 0.0
C2118 C 0.38298 0.05966 0.15753 0.0
C2119 C 0.36172 0.07226 0.14985 0.0
C2120 C 0.38418 0.03398 0.15616 0.0
C2121 C 0.36417 0.0203 0.14709 0.0
C2122 C 0.34324 0.03297 0.13868 0.0
C2123 C 0.34204 0.05862 0.14002 0.0
H2124 H 0.6788 0.94508 0.12273 0.0
H2125 H 0.62209 0.94407 0.17839 0.0
H2126 H 0.67685 0.9898 0.12148 0.0
H2127 H 0.61926 0.98872 0.17638 0.0
H2128 H 0.64384 0.06755 0.19075 0.0
H2129 H 0.64199 0.02303 0.18904 0.0
H2130 H 0.65463 0.02544 0.11051 0.0
H2131 H 0.65755 0.07021 0.11248 0.0
C2132 C 0.66559 0.9544 0.13439 0.0
C2133 C 0.65079 0.94104 0.15086 0.0
C2134 C 0.66436 0.98009 0.13358 0.0
C2135 C 0.64803 0.99303 0.14898 0.0
C2136 C 0.63249 0.9795 0.16468 0.0
C2137 C 0.63399 0.95386 0.16574 0.0
C2138 C 0.64607 0.05864 0.17306 0.0
C2139 C 0.65098 0.07247 0.15176 0.0
C2140 C 0.64483 0.03301 0.17203 0.0
C2141 C 0.64812 0.02047 0.14962 0.0
C2142 C 0.65241 0.03438 0.12817 0.0
C2143 C 0.65395 0.06007 0.12926 0.0
H2144 H 0.11189 0.56997 0.8535 0.0
H2145 H 0.19001 0.56684 0.86795 0.0
H2146 H 0.10964 0.52518 0.85668 0.0
H2147 H 0.18803 0.52241 0.87003 0.0
H2148 H 0.17731 0.44383 0.89047 0.0
H2149 H 0.17516 0.4885 0.89302 0.0
H2150 H 0.12055 0.4891 0.83514 0.0
H2151 H 0.1219 0.44438 0.83351 0.0
C2152 C 0.12857 0.55974 0.8573 0.0
C2153 C 0.15111 0.57201 0.86046 0.0
C2154 C 0.12733 0.53404 0.859 0.0
C2155 C 0.14865 0.52003 0.86364 0.0
C2156 C 0.1711 0.53245 0.86698 0.0
C2157 C 0.17228 0.55805 0.86559 0.0
C2158 C 0.16469 0.45352 0.87847 0.0
C2159 C 0.14993 0.44058 0.86167 0.0
C2160 C 0.16354 0.47918 0.87979 0.0
C2161 C 0.14791 0.49258 0.86405 0.0
C2162 C 0.1326 0.4795 0.84777 0.0
C2163 C 0.13348 0.45381 0.84672 0.0
H2164 H 0.82607 0.56633 0.87918 0.0
H2165 H 0.89792 0.56897 0.84514 0.0
H2166 H 0.82856 0.52171 0.88102 0.0
H2167 H 0.90058 0.5242 0.84747 0.0
H2168 H 0.8793 0.44457 0.82543 0.0
H2169 H 0.88115 0.48926 0.82742 0.0
H2170 H 0.8495 0.48741 0.90032 0.0
H2171 H 0.84716 0.44266 0.89817 0.0
C2172 C 0.84254 0.55743 0.87233 0.0
C2173 C 0.8617 0.57128 0.86181 0.0
C2174 C 0.84403 0.5318 0.87355 0.0
C2175 C 0.86474 0.51934 0.86432 0.0
C2176 C 0.88422 0.53321 0.85443 0.0
C2177 C 0.88274 0.55889 0.85322 0.0
C2178 C 0.8729 0.45364 0.84198 0.0
C2179 C 0.86285 0.43998 0.86153 0.0
C2180 C 0.87412 0.4793 0.84318 0.0
C2181 C 0.86536 0.49196 0.86398 0.0
C2182 C 0.85605 0.47826 0.88387 0.0
C2183 C 0.85482 0.45258 0.88267 0.0
H2184 H 0.15662 0.44276 0.11253 0.0
H2185 H 0.14322 0.44595 0.19083 0.0
H2186 H 0.15377 0.48752 0.11028 0.0
H2187 H 0.14146 0.49047 0.18885 0.0
H2188 H 0.12194 0.56946 0.17789 0.0
H2189 H 0.1189 0.52481 0.17615 0.0
H2190 H 0.1761 0.52316 0.12085 0.0
H2191 H 0.17824 0.56789 0.12183 0.0
C2192 C 0.15308 0.45301 0.12926 0.0
C2193 C 0.15019 0.44076 0.15186 0.0
C2194 C 0.1516 0.4787 0.12801 0.0
C2195 C 0.14745 0.49276 0.14939 0.0
C2196 C 0.1442 0.48037 0.17189 0.0
C2197 C 0.14538 0.45474 0.17307 0.0
C2198 C 0.1337 0.55955 0.16521 0.0
C2199 C 0.15045 0.5722 0.15014 0.0
C2200 C 0.13209 0.5339 0.16431 0.0
C2201 C 0.14746 0.52021 0.14858 0.0
C2202 C 0.16373 0.53299 0.13298 0.0
C2203 C 0.16508 0.55869 0.13364 0.0
H2204 H 0.84531 0.44262 0.11606 0.0
H2205 H 0.87908 0.44532 0.18804 0.0
H2206 H 0.84739 0.48737 0.11348 0.0
H2207 H 0.88068 0.48999 0.18563 0.0
H2208 H 0.89745 0.56927 0.16668 0.0
H2209 H 0.89982 0.5245 0.1647 0.0
H2210 H 0.82702 0.52206 0.13288 0.0
H2211 H 0.8248 0.56673 0.13437 0.0
C2212 C 0.85326 0.45271 0.1313 0.0
C2213 C 0.86186 0.44034 0.15235 0.0
C2214 C 0.85433 0.47839 0.12986 0.0
C2215 C 0.86408 0.49229 0.1494 0.0
C2216 C 0.87331 0.47986 0.17012 0.0
C2217 C 0.87223 0.45421 0.17157 0.0
C2218 C 0.88203 0.55921 0.15906 0.0
C2219 C 0.86086 0.57164 0.15086 0.0
C2220 C 0.88334 0.53352 0.15805 0.0
C2221 C 0.86356 0.51966 0.14877 0.0
C2222 C 0.84271 0.53215 0.1399 0.0
C2223 C 0.84138 0.5578 0.14091 0.0
H2224 H 0.34607 0.61413 0.56942 0.0
H2225 H 0.37936 0.68632 0.56687 0.0
H2226 H 0.34826 0.61163 0.52464 0.0
H2227 H 0.38102 0.68402 0.52224 0.0
H2228 H 0.39743 0.66619 0.44278 0.0
H2229 H 0.40009 0.66375 0.48752 0.0
H2230 H 0.32781 0.63076 0.49001 0.0
H2231 H 0.32535 0.63266 0.44538 0.0
C2232 C 0.35395 0.62942 0.55935 0.0
C2233 C 0.36236 0.6505 0.57178 0.0
C2234 C 0.35509 0.62804 0.53366 0.0
C2235 C 0.36469 0.64768 0.5198 0.0
C2236 C 0.37377 0.66842 0.5323 0.0
C2237 C 0.37265 0.66981 0.55795 0.0
C2238 C 0.38219 0.65821 0.45285 0.0
C2239 C 0.36109 0.6498 0.44044 0.0
C2240 C 0.38367 0.65693 0.47853 0.0
C2241 C 0.36411 0.64719 0.4924 0.0
C2242 C 0.34334 0.63811 0.47993 0.0
C2243 C 0.34187 0.63937 0.45428 0.0
H2244 H 0.85555 0.89987 0.44279 0.0
H2245 H 0.87058 0.82189 0.44651 0.0
H2246 H 0.85846 0.90251 0.48754 0.0
H2247 H 0.87246 0.82426 0.491 0.0
H2248 H 0.89209 0.83599 0.56964 0.0
H2249 H 0.89511 0.83789 0.52501 0.0
H2250 H 0.83634 0.89152 0.5234 0.0
H2251 H 0.83417 0.89038 0.56817 0.0
C2252 C 0.85947 0.8833 0.45315 0.0
C2253 C 0.86279 0.86067 0.44106 0.0
C2254 C 0.861 0.88477 0.47883 0.0
C2255 C 0.86566 0.8636 0.49302 0.0
C2256 C 0.86932 0.84107 0.48079 0.0
C2257 C 0.86808 0.83967 0.45517 0.0
C2258 C 0.87998 0.84836 0.55975 0.0
C2259 C 0.86275 0.86287 0.57241 0.0
C2260 C 0.8816 0.84935 0.53412 0.0
C2261 C 0.86573 0.86459 0.52045 0.0
C2262 C 0.84905 0.87975 0.53324 0.0
C2263 C 0.8477 0.87901 0.55894 0.0
H2264 H 0.62184 0.33567 0.56927 0.0
H2265 H 0.67927 0.39054 0.56723 0.0
H2266 H 0.61852 0.33735 0.52466 0.0
H2267 H 0.67683 0.39145 0.52247 0.0
H2268 H 0.65687 0.39963 0.4421 0.0
H2269 H 0.65436 0.40223 0.48685 0.0
H2270 H 0.64091 0.32389 0.49041 0.0
H2271 H 0.64237 0.32156 0.44588 0.0
C2272 C 0.63378 0.34809 0.55925 0.0
C2273 C 0.65095 0.36281 0.57175 0.0
C2274 C 0.63201 0.34895 0.53363 0.0
C2275 C 0.64764 0.36428 0.51981 0.0
C2276 C 0.66428 0.37961 0.53243 0.0
C2277 C 0.6658 0.37901 0.55813 0.0
C2278 C 0.65317 0.38303 0.45248 0.0
C2279 C 0.64987 0.36039 0.44041 0.0
C2280 C 0.65187 0.38448 0.47816 0.0
C2281 C 0.64749 0.36327 0.49238 0.0
C2282 C 0.64384 0.34072 0.48017 0.0
C2283 C 0.64485 0.33934 0.45455 0.0
H2284 H 0.11471 0.16646 0.56853 0.0
H2285 H 0.1871 0.13357 0.56609 0.0
H2286 H 0.11222 0.16413 0.52377 0.0
H2287 H 0.18479 0.13175 0.52144 0.0
H2288 H 0.16667 0.11471 0.44215 0.0
H2289 H 0.1644 0.11234 0.4869 0.0
H2290 H 0.13132 0.1846 0.48905 0.0
H2291 H 0.13308 0.18678 0.44438 0.0
C2292 C 0.13005 0.15864 0.55849 0.0
C2293 C 0.15119 0.15038 0.57094 0.0
C2294 C 0.12866 0.15742 0.53281 0.0
C2295 C 0.14835 0.14788 0.51898 0.0
C2296 C 0.16916 0.13895 0.5315 0.0
C2297 C 0.17055 0.14016 0.55714 0.0
C2298 C 0.15872 0.13002 0.45214 0.0
C2299 C 0.15024 0.15103 0.43963 0.0
C2300 C 0.15753 0.1287 0.47782 0.0
C2301 C 0.14782 0.14834 0.4916 0.0
C2302 C 0.13867 0.16901 0.47903 0.0
C2303 C 0.13984 0.17033 0.45338 0.0
H2304 H 0.3906 0.33422 0.56846 0.0
H2305 H 0.33446 0.39044 0.57022 0.0
H2306 H 0.39116 0.3361 0.52372 0.0
H2307 H 0.33578 0.39323 0.52554 0.0
H2308 H 0.32057 0.36878 0.44683 0.0
H2309 H 0.32285 0.37053 0.49136 0.0
H2310 H 0.40139 0.35825 0.4879 0.0
H2311 H 0.39885 0.35539 0.44316 0.0
C2312 C 0.37869 0.34732 0.5593 0.0
C2313 C 0.36229 0.362 0.57287 0.0
C2314 C 0.3791 0.34852 0.53358 0.0
C2315 C 0.36335 0.36468 0.52084 0.0
C2316 C 0.34773 0.38011 0.53459 0.0
C2317 C 0.34707 0.37865 0.56025 0.0
C2318 C 0.33838 0.3666 0.45552 0.0
C2319 C 0.35951 0.36183 0.44141 0.0
C2320 C 0.33973 0.36778 0.48115 0.0
C2321 C 0.36232 0.36457 0.4934 0.0
C2322 C 0.3836 0.36039 0.4792 0.0
C2323 C 0.38218 0.3589 0.45352 0.0
H2324 H 0.12159 0.83332 0.44381 0.0
H2325 H 0.17736 0.88993 0.44423 0.0
H2326 H 0.11916 0.83538 0.4885 0.0
H2327 H 0.17585 0.89122 0.48894 0.0
H2328 H 0.15749 0.89971 0.5697 0.0
H2329 H 0.15406 0.90176 0.52494 0.0
H2330 H 0.14253 0.82307 0.52244 0.0
H2331 H 0.14485 0.82128 0.5669 0.0
C2332 C 0.13336 0.84619 0.45347 0.0
C2333 C 0.14979 0.86131 0.44048 0.0
C2334 C 0.13209 0.84729 0.47913 0.0
C2335 C 0.14753 0.86325 0.49249 0.0
C2336 C 0.16345 0.87891 0.47937 0.0
C2337 C 0.16444 0.87807 0.45368 0.0
C2338 C 0.15404 0.88292 0.55954 0.0
C2339 C 0.15148 0.86035 0.57189 0.0
C2340 C 0.1522 0.88405 0.53385 0.0
C2341 C 0.14801 0.86258 0.51993 0.0
C2342 C 0.14523 0.84009 0.53243 0.0
C2343 C 0.14677 0.83902 0.55803 0.0
H2344 H 0.62185 0.67922 0.44305 0.0
H2345 H 0.67694 0.62194 0.44394 0.0
H2346 H 0.61935 0.67755 0.48775 0.0
H2347 H 0.67537 0.62103 0.48868 0.0
H2348 H 0.65665 0.61323 0.56944 0.0
H2349 H 0.65341 0.61099 0.52468 0.0
H2350 H 0.64263 0.68978 0.52176 0.0
H2351 H 0.64475 0.69176 0.56625 0.0
C2352 C 0.63346 0.66628 0.45282 0.0
C2353 C 0.64971 0.65085 0.43995 0.0
C2354 C 0.63216 0.66542 0.47849 0.0
C2355 C 0.64739 0.64937 0.492 0.0
C2356 C 0.66313 0.63342 0.47901 0.0
C2357 C 0.66415 0.63404 0.45329 0.0
C2358 C 0.6534 0.63001 0.55919 0.0
C2359 C 0.65098 0.65266 0.57144 0.0
C2360 C 0.65168 0.62877 0.5335 0.0
C2361 C 0.64777 0.65021 0.51945 0.0
C2362 C 0.64513 0.67278 0.53184 0.0
C2363 C 0.64654 0.67396 0.55746 0.0
H2364 H 0.84649 0.11482 0.56948 0.0
H2365 H 0.87877 0.18748 0.56746 0.0
H2366 H 0.8483 0.11282 0.5247 0.0
H2367 H 0.88012 0.18563 0.52273 0.0
H2368 H 0.89684 0.16751 0.44301 0.0
H2369 H 0.89941 0.16545 0.48777 0.0
H2370 H 0.82725 0.13222 0.49037 0.0
H2371 H 0.82484 0.13383 0.44569 0.0
C2372 C 0.85407 0.13033 0.55953 0.0
C2373 C 0.86232 0.1514 0.57212 0.0
C2374 C 0.85498 0.12923 0.53383 0.0
C2375 C 0.86421 0.14912 0.52008 0.0
C2376 C 0.87314 0.16986 0.53272 0.0
C2377 C 0.87221 0.17098 0.5584 0.0
C2378 C 0.88159 0.15959 0.4531 0.0
C2379 C 0.86056 0.15098 0.4407 0.0
C2380 C 0.88302 0.15853 0.47879 0.0
C2381 C 0.8635 0.14878 0.49269 0.0
C2382 C 0.84276 0.13959 0.48025 0.0
C2383 C 0.84131 0.14067 0.45459 0.0
H2384 H 0.35564 0.56973 0.39991 0.0
H2385 H 0.36911 0.56619 0.32163 0.0
H2386 H 0.35879 0.525 0.4024 0.0
H2387 H 0.37116 0.52171 0.32385 0.0
H2388 H 0.39088 0.4429 0.33505 0.0
H2389 H 0.39393 0.48756 0.33677 0.0
H2390 H 0.33658 0.48925 0.39191 0.0
H2391 H 0.33443 0.44455 0.39096 0.0
C2392 C 0.35925 0.55941 0.38324 0.0
C2393 C 0.36207 0.57154 0.36058 0.0
C2394 C 0.36092 0.53374 0.38462 0.0
C2395 C 0.36518 0.5196 0.36332 0.0
C2396 C 0.36834 0.53188 0.34075 0.0
C2397 C 0.36698 0.55748 0.33943 0.0
C2398 C 0.37911 0.45283 0.3477 0.0
C2399 C 0.36229 0.44021 0.36272 0.0
C2400 C 0.38073 0.47847 0.3486 0.0
C2401 C 0.36528 0.49217 0.36425 0.0
C2402 C 0.349 0.47941 0.37983 0.0
C2403 C 0.34765 0.45373 0.3792 0.0
H2404 H 0.67661 0.56929 0.39064 0.0
H2405 H 0.62143 0.56769 0.33348 0.0
H2406 H 0.67476 0.52467 0.39377 0.0
H2407 H 0.62036 0.52295 0.3357 0.0
H2408 H 0.61202 0.44243 0.35515 0.0
H2409 H 0.60958 0.4872 0.35781 0.0
H2410 H 0.68792 0.49042 0.3714 0.0
H2411 H 0.69007 0.44591 0.36984 0.0
C2412 C 0.66409 0.55936 0.37871 0.0
C2413 C 0.64932 0.572 0.36168 0.0
C2414 C 0.66313 0.53373 0.38037 0.0
C2415 C 0.64766 0.52002 0.36475 0.0
C2416 C 0.6323 0.53279 0.34824 0.0
C2417 C 0.633 0.55849 0.34685 0.0
C2418 C 0.62865 0.45275 0.35892 0.0
C2419 C 0.65123 0.44058 0.36226 0.0
C2420 C 0.62729 0.47845 0.3603 0.0
C2421 C 0.64855 0.49258 0.36479 0.0
C2422 C 0.67104 0.48027 0.36842 0.0
C2423 C 0.67232 0.45464 0.36735 0.0
H2424 H 0.32666 0.567 0.63346 0.0
H2425 H 0.39836 0.56952 0.66783 0.0
H2426 H 0.32894 0.52237 0.63189 0.0
H2427 H 0.40084 0.52473 0.66573 0.0
H2428 H 0.34708 0.44297 0.61554 0.0
H2429 H 0.3495 0.48771 0.61305 0.0
H2430 H 0.3814 0.49003 0.68583 0.0
H2431 H 0.37951 0.44538 0.68813 0.0
C2432 C 0.34306 0.55807 0.64044 0.0
C2433 C 0.36223 0.5719 0.65098 0.0
C2434 C 0.34444 0.53242 0.63936 0.0
C2435 C 0.36504 0.51991 0.64876 0.0
C2436 C 0.38454 0.53377 0.65866 0.0
C2437 C 0.38317 0.55946 0.65973 0.0
C2438 C 0.3548 0.453 0.63093 0.0
C2439 C 0.36291 0.44054 0.65212 0.0
C2440 C 0.35608 0.47868 0.62955 0.0
C2441 C 0.36551 0.49251 0.6493 0.0
C2442 C 0.37429 0.47998 0.67016 0.0
C2443 C 0.37303 0.45433 0.67155 0.0
H2444 H 0.69131 0.44653 0.64322 0.0
H2445 H 0.61334 0.44251 0.65817 0.0
H2446 H 0.68877 0.49099 0.64125 0.0
H2447 H 0.61051 0.48725 0.65513 0.0
H2448 H 0.62197 0.56824 0.67835 0.0
H2449 H 0.62113 0.52346 0.67672 0.0
H2450 H 0.67511 0.5247 0.61827 0.0
H2451 H 0.67674 0.56937 0.62079 0.0
C2452 C 0.67351 0.45513 0.64572 0.0
C2453 C 0.65254 0.44093 0.65095 0.0
C2454 C 0.672 0.48073 0.6444 0.0
C2455 C 0.6494 0.49288 0.64794 0.0
C2456 C 0.6283 0.47861 0.65268 0.0
C2457 C 0.62987 0.45294 0.65428 0.0
C2458 C 0.63348 0.55893 0.66501 0.0
C2459 C 0.64964 0.57232 0.6499 0.0
C2460 C 0.63292 0.5332 0.66397 0.0
C2461 C 0.64827 0.5203 0.64755 0.0
C2462 C 0.66352 0.53388 0.63161 0.0
C2463 C 0.66434 0.55954 0.63292 0.0
H2464 H 0.44454 0.18619 0.87939 0.0
H2465 H 0.44227 0.1142 0.84561 0.0
H2466 H 0.4892 0.18404 0.88103 0.0
H2467 H 0.48705 0.11188 0.84774 0.0
H2468 H 0.56611 0.13366 0.82473 0.0
H2469 H 0.52148 0.1316 0.82723 0.0
H2470 H 0.52398 0.16346 0.90002 0.0
H2471 H 0.56871 0.16603 0.89736 0.0
C2472 C 0.45353 0.16976 0.87256 0.0
C2473 C 0.43977 0.15047 0.86214 0.0
C2474 C 0.47918 0.16846 0.87367 0.0
C2475 C 0.49174 0.14783 0.86442 0.0
C2476 C 0.47796 0.12819 0.85469 0.0
C2477 C 0.45227 0.12948 0.85359 0.0
C2478 C 0.5572 0.14009 0.84137 0.0
C2479 C 0.57103 0.15024 0.86075 0.0
C2480 C 0.53157 0.13873 0.84286 0.0
C2481 C 0.51911 0.14745 0.86379 0.0
C2482 C 0.53298 0.15692 0.88349 0.0
C2483 C 0.55865 0.15828 0.882 0.0
H2484 H 0.56993 0.85422 0.9007 0.0
H2485 H 0.56614 0.86951 0.82277 0.0
H2486 H 0.52513 0.85672 0.90328 0.0
H2487 H 0.52167 0.87095 0.82507 0.0
H2488 H 0.44303 0.89045 0.83663 0.0
H2489 H 0.48765 0.89345 0.83859 0.0
H2490 H 0.48917 0.83477 0.89232 0.0
H2491 H 0.44438 0.83266 0.89114 0.0
C2492 C 0.55955 0.85809 0.88413 0.0
C2493 C 0.57165 0.86166 0.86154 0.0
C2494 C 0.53384 0.85938 0.88556 0.0
C2495 C 0.51963 0.86404 0.86439 0.0
C2496 C 0.53187 0.86785 0.8419 0.0
C2497 C 0.55749 0.86684 0.84053 0.0
C2498 C 0.4529 0.87835 0.84903 0.0
C2499 C 0.4402 0.86118 0.86356 0.0
C2500 C 0.47853 0.87994 0.85005 0.0
C2501 C 0.49219 0.8641 0.86534 0.0
C2502 C 0.47936 0.84746 0.8805 0.0
C2503 C 0.45364 0.84614 0.87975 0.0
H2504 H 0.44636 0.13348 0.18694 0.0
H2505 H 0.44372 0.16675 0.11473 0.0
H2506 H 0.49099 0.13175 0.18454 0.0
H2507 H 0.48846 0.16449 0.11214 0.0
H2508 H 0.56772 0.18735 0.13292 0.0
H2509 H 0.52308 0.18496 0.13125 0.0
H2510 H 0.52563 0.11263 0.16412 0.0
H2511 H 0.57039 0.11521 0.16632 0.0
C2512 C 0.45526 0.14017 0.17041 0.0
C2513 C 0.44141 0.15048 0.15113 0.0
C2514 C 0.4809 0.13901 0.16897 0.0
C2515 C 0.49336 0.14807 0.14819 0.0
C2516 C 0.47947 0.15769 0.12857 0.0
C2517 C 0.4538 0.15887 0.13001 0.0
C2518 C 0.55883 0.17084 0.13966 0.0
C2519 C 0.57268 0.15158 0.14998 0.0
C2520 C 0.53318 0.16941 0.13853 0.0
C2521 C 0.52073 0.14864 0.14763 0.0
C2522 C 0.53462 0.12905 0.15728 0.0
C2523 C 0.5603 0.13048 0.15843 0.0
H2524 H 0.56781 0.89096 0.17722 0.0
H2525 H 0.56888 0.83449 0.1213 0.0
H2526 H 0.52311 0.89205 0.17537 0.0
H2527 H 0.5242 0.83637 0.11852 0.0
H2528 H 0.44561 0.82189 0.14366 0.0
H2529 H 0.49008 0.82387 0.14149 0.0
H2530 H 0.48723 0.9025 0.15342 0.0
H2531 H 0.44248 0.90025 0.15671 0.0
C2532 C 0.5585 0.87909 0.16418 0.0
C2533 C 0.57187 0.86243 0.1496 0.0
C2534 C 0.53281 0.87982 0.163 0.0
C2535 C 0.51987 0.86415 0.14694 0.0
C2536 C 0.53341 0.84828 0.13156 0.0
C2537 C 0.55907 0.8473 0.13302 0.0
C2538 C 0.45441 0.83966 0.14568 0.0
C2539 C 0.44046 0.8609 0.15049 0.0
C2540 C 0.48002 0.84084 0.14424 0.0
C2541 C 0.49243 0.86336 0.14722 0.0
C2542 C 0.4784 0.88475 0.15143 0.0
C2543 C 0.45272 0.88351 0.15318 0.0
H2544 H 0.44634 0.32584 0.63382 0.0
H2545 H 0.44395 0.39806 0.66706 0.0
H2546 H 0.49096 0.32827 0.63167 0.0
H2547 H 0.48868 0.40068 0.66441 0.0
H2548 H 0.56817 0.37972 0.68664 0.0
H2549 H 0.52351 0.38148 0.68461 0.0
H2550 H 0.5254 0.34884 0.61215 0.0
H2551 H 0.57018 0.34658 0.61435 0.0
C2552 C 0.45529 0.34237 0.64042 0.0
C2553 C 0.44151 0.36165 0.65084 0.0
C2554 C 0.48092 0.34384 0.63901 0.0
C2555 C 0.49345 0.36463 0.64795 0.0
C2556 C 0.47963 0.38424 0.65769 0.0
C2557 C 0.45397 0.38278 0.6591 0.0
C2558 C 0.55913 0.37306 0.67017 0.0
C2559 C 0.57281 0.36278 0.65076 0.0
C2560 C 0.53347 0.37424 0.66894 0.0
C2561 C 0.52083 0.36521 0.64826 0.0
C2562 C 0.53455 0.35563 0.6285 0.0
C2563 C 0.56024 0.35445 0.62972 0.0
H2564 H 0.44241 0.61497 0.34503 0.0
H2565 H 0.44444 0.68701 0.37872 0.0
H2566 H 0.48719 0.61283 0.34708 0.0
H2567 H 0.48913 0.68503 0.38027 0.0
H2568 H 0.56869 0.66691 0.39688 0.0
H2569 H 0.52394 0.6646 0.39932 0.0
H2570 H 0.52165 0.63248 0.32663 0.0
H2571 H 0.56631 0.63431 0.32436 0.0
C2572 C 0.45236 0.63031 0.35297 0.0
C2573 C 0.43979 0.65125 0.36154 0.0
C2574 C 0.47806 0.62913 0.35402 0.0
C2575 C 0.49179 0.64882 0.3637 0.0
C2576 C 0.47915 0.66942 0.37294 0.0
C2577 C 0.45349 0.67061 0.37189 0.0
C2578 C 0.55867 0.65918 0.38149 0.0
C2579 C 0.57114 0.65096 0.36034 0.0
C2580 C 0.53299 0.65796 0.38284 0.0
C2581 C 0.51917 0.64847 0.36312 0.0
C2582 C 0.5317 0.63964 0.34228 0.0
C2583 C 0.55735 0.64085 0.34091 0.0
H2584 H 0.56913 0.34459 0.39749 0.0
H2585 H 0.56619 0.37928 0.32596 0.0
H2586 H 0.52438 0.3464 0.40015 0.0
H2587 H 0.52151 0.38062 0.32846 0.0
H2588 H 0.44236 0.39719 0.34789 0.0
H2589 H 0.4871 0.39945 0.34974 0.0
H2590 H 0.48954 0.32626 0.38065 0.0
H2591 H 0.44481 0.32414 0.37927 0.0
C2592 C 0.55898 0.35269 0.38237 0.0
C2593 C 0.5713 0.36164 0.36143 0.0
C2594 C 0.5333 0.3536 0.38385 0.0
C2595 C 0.51932 0.36353 0.36447 0.0
C2596 C 0.53169 0.37309 0.34385 0.0
C2597 C 0.55735 0.37218 0.34236 0.0
C2598 C 0.4524 0.38164 0.35527 0.0
C2599 C 0.43995 0.3604 0.36326 0.0
C2600 C 0.47808 0.3829 0.35621 0.0
C2601 C 0.49195 0.36298 0.36518 0.0
C2602 C 0.47945 0.34204 0.37386 0.0
C2603 C 0.45377 0.34077 0.37293 0.0
H2604 H 0.44271 0.65854 0.61228 0.0
H2605 H 0.44636 0.64348 0.69027 0.0
H2606 H 0.4875 0.65606 0.60978 0.0
H2607 H 0.49085 0.64206 0.68804 0.0
H2608 H 0.5695 0.62245 0.67648 0.0
H2609 H 0.52489 0.61947 0.67453 0.0
H2610 H 0.52337 0.67818 0.62083 0.0
H2611 H 0.56815 0.68028 0.62201 0.0
C2612 C 0.45306 0.65473 0.62888 0.0
C2613 C 0.44094 0.65122 0.65146 0.0
C2614 C 0.47877 0.65345 0.62749 0.0
C2615 C 0.49293 0.64886 0.6487 0.0
C2616 C 0.48067 0.64511 0.67119 0.0
C2617 C 0.45505 0.6461 0.67252 0.0
C2618 C 0.55963 0.63457 0.6641 0.0
C2619 C 0.57233 0.65175 0.64957 0.0
C2620 C 0.53401 0.63298 0.66307 0.0
C2621 C 0.52036 0.64883 0.64779 0.0
C2622 C 0.53318 0.66548 0.63264 0.0
C2623 C 0.55889 0.6668 0.6334 0.0
loop_
_geom_bond_atom_site_label_1
_geom_bond_atom_site_label_2
_geom_bond_distance
_geom_bond_site_symmetry_2
_ccdc_geom_bond_type
Fe0 O2 1.918 . S
Fe0 O5 1.997 . S
Fe0 O6 2.002 . S
Fe0 O11 1.976 . S
Fe0 O14 1.996 . S
Fe1 O2 1.918 . S
Fe1 O9 1.997 . S
Fe1 O12 1.996 . S
Fe1 O16 1.976 . S
Fe1 O19 2.002 . S
O2 Fe0 1.918 . S
O2 Fe1 1.918 . S
O2 Fe3 1.918 . S
Fe3 O2 1.918 . S
Fe3 O4 2.002 . S
Fe3 O13 1.976 . S
Fe3 O17 1.996 . S
Fe3 O20 1.997 . S
O4 Fe3 2.002 . S
O4 C21 1.295 . S
O5 Fe0 1.997 . S
O5 C21 1.235 . S
O6 Fe0 2.002 . S
O6 C7 1.295 . S
C7 O6 1.295 . S
C7 O9 1.235 . S
C8 O13 1.287 . S
C8 O14 1.255 . S
O9 Fe1 1.997 . S
O9 C7 1.235 . S
C10 O16 1.287 . S
C10 O17 1.255 . S
O11 Fe0 1.976 . S
O11 C18 1.287 . S
O12 Fe1 1.996 . S
O12 C18 1.255 . S
O13 Fe3 1.976 . S
O13 C8 1.287 . S
O14 Fe0 1.996 . S
O14 C8 1.255 . S
C15 O19 1.295 . S
C15 O20 1.235 . S
O16 Fe1 1.976 . S
O16 C10 1.287 . S
O17 Fe3 1.996 . S
O17 C10 1.255 . S
C18 O11 1.287 . S
C18 O12 1.255 . S
O19 Fe1 2.002 . S
O19 C15 1.295 . S
O20 Fe3 1.997 . S
O20 C15 1.235 . S
C21 O4 1.295 . S
C21 O5 1.235 . S
Fe22 O24 1.918 . S
Fe22 O27 1.997 . S
Fe22 O28 2.002 . S
Fe22 O33 1.976 . S
Fe22 O36 1.996 . S
Fe23 O24 1.918 . S
Fe23 O31 1.997 . S
Fe23 O34 1.996 . S
Fe23 O38 1.976 . S
Fe23 O41 2.002 . S
O24 Fe22 1.918 . S
O24 Fe23 1.918 . S
O24 Fe25 1.918 . S
Fe25 O24 1.918 . S
Fe25 O26 2.002 . S
Fe25 O35 1.976 . S
Fe25 O39 1.996 . S
Fe25 O42 1.997 . S
O26 Fe25 2.002 . S
O26 C43 1.295 . S
O27 Fe22 1.997 . S
O27 C43 1.235 . S
O28 Fe22 2.002 . S
O28 C29 1.295 . S
C29 O28 1.295 . S
C29 O31 1.235 . S
C30 O35 1.287 . S
C30 O36 1.255 . S
O31 Fe23 1.997 . S
O31 C29 1.235 . S
C32 O38 1.287 . S
C32 O39 1.255 . S
O33 Fe22 1.976 . S
O33 C40 1.287 . S
O34 Fe23 1.996 . S
O34 C40 1.255 . S
O35 Fe25 1.976 . S
O35 C30 1.287 . S
O36 Fe22 1.996 . S
O36 C30 1.255 . S
C37 O41 1.295 . S
C37 O42 1.235 . S
O38 Fe23 1.976 . S
O38 C32 1.287 . S
O39 Fe25 1.996 . S
O39 C32 1.255 . S
C40 O33 1.287 . S
C40 O34 1.255 . S
O41 Fe23 2.002 . S
O41 C37 1.295 . S
O42 Fe25 1.997 . S
O42 C37 1.235 . S
C43 O26 1.295 . S
C43 O27 1.235 . S
Fe44 O46 1.918 . S
Fe44 O49 1.997 . S
Fe44 O50 2.002 . S
Fe44 O55 1.976 . S
Fe44 O58 1.996 . S
Fe45 O46 1.918 . S
Fe45 O53 1.997 . S
Fe45 O56 1.996 . S
Fe45 O60 1.976 . S
Fe45 O63 2.002 . S
O46 Fe44 1.918 . S
O46 Fe45 1.918 . S
O46 Fe47 1.918 . S
Fe47 O46 1.918 . S
Fe47 O48 2.002 . S
Fe47 O57 1.976 . S
Fe47 O61 1.996 . S
Fe47 O64 1.997 . S
O48 Fe47 2.002 . S
O48 C65 1.295 . S
O49 Fe44 1.997 . S
O49 C65 1.235 . S
O50 Fe44 2.002 . S
O50 C51 1.295 . S
C51 O50 1.295 . S
C51 O53 1.235 . S
C52 O57 1.287 . S
C52 O58 1.255 . S
O53 Fe45 1.997 . S
O53 C51 1.235 . S
C54 O60 1.287 . S
C54 O61 1.255 . S
O55 Fe44 1.976 . S
O55 C62 1.287 . S
O56 Fe45 1.996 . S
O56 C62 1.255 . S
O57 Fe47 1.976 . S
O57 C52 1.287 . S
O58 Fe44 1.996 . S
O58 C52 1.255 . S
C59 O63 1.295 . S
C59 O64 1.235 . S
O60 Fe45 1.976 . S
O60 C54 1.287 . S
O61 Fe47 1.996 . S
O61 C54 1.255 . S
C62 O55 1.287 . S
C62 O56 1.255 . S
O63 Fe45 2.002 . S
O63 C59 1.295 . S
O64 Fe47 1.997 . S
O64 C59 1.235 . S
C65 O48 1.295 . S
C65 O49 1.235 . S
Fe66 O68 1.918 . S
Fe66 O71 1.997 . S
Fe66 O72 2.002 . S
Fe66 O77 1.976 . S
Fe66 O80 1.996 . S
Fe67 O68 1.918 . S
Fe67 O75 1.997 . S
Fe67 O78 1.996 . S
Fe67 O82 1.976 . S
Fe67 O85 2.002 . S
O68 Fe66 1.918 . S
O68 Fe67 1.918 . S
O68 Fe69 1.918 . S
Fe69 O68 1.918 . S
Fe69 O70 2.002 . S
Fe69 O79 1.976 . S
Fe69 O83 1.996 . S
Fe69 O86 1.997 . S
O70 Fe69 2.002 . S
O70 C87 1.295 . S
O71 Fe66 1.997 . S
O71 C87 1.235 . S
O72 Fe66 2.002 . S
O72 C73 1.295 . S
C73 O72 1.295 . S
C73 O75 1.235 . S
C74 O79 1.287 . S
C74 O80 1.255 . S
O75 Fe67 1.997 . S
O75 C73 1.235 . S
C76 O82 1.287 . S
C76 O83 1.255 . S
O77 Fe66 1.976 . S
O77 C84 1.287 . S
O78 Fe67 1.996 . S
O78 C84 1.255 . S
O79 Fe69 1.976 . S
O79 C74 1.287 . S
O80 Fe66 1.996 . S
O80 C74 1.255 . S
C81 O85 1.295 . S
C81 O86 1.235 . S
O82 Fe67 1.976 . S
O82 C76 1.287 . S
O83 Fe69 1.996 . S
O83 C76 1.255 . S
C84 O77 1.287 . S
C84 O78 1.255 . S
O85 Fe67 2.002 . S
O85 C81 1.295 . S
O86 Fe69 1.997 . S
O86 C81 1.235 . S
C87 O70 1.295 . S
C87 O71 1.235 . S
Fe88 O90 1.918 . S
Fe88 O93 1.997 . S
Fe88 O94 2.002 . S
Fe88 O99 1.976 . S
Fe88 O102 1.996 . S
Fe89 O90 1.918 . S
Fe89 O97 1.997 . S
Fe89 O100 1.996 . S
Fe89 O104 1.976 . S
Fe89 O107 2.002 . S
O90 Fe88 1.918 . S
O90 Fe89 1.918 . S
O90 Fe91 1.918 . S
Fe91 O90 1.918 . S
Fe91 O92 2.002 . S
Fe91 O101 1.976 . S
Fe91 O105 1.996 . S
Fe91 O108 1.997 . S
O92 Fe91 2.002 . S
O92 C109 1.295 . S
O93 Fe88 1.997 . S
O93 C109 1.235 . S
O94 Fe88 2.002 . S
O94 C95 1.295 . S
C95 O94 1.295 . S
C95 O97 1.235 . S
C96 O101 1.287 . S
C96 O102 1.255 . S
O97 Fe89 1.997 . S
O97 C95 1.235 . S
C98 O104 1.287 . S
C98 O105 1.255 . S
O99 Fe88 1.976 . S
O99 C106 1.287 . S
O100 Fe89 1.996 . S
O100 C106 1.255 . S
O101 Fe91 1.976 . S
O101 C96 1.287 . S
O102 Fe88 1.996 . S
O102 C96 1.255 . S
C103 O107 1.295 . S
C103 O108 1.235 . S
O104 Fe89 1.976 . S
O104 C98 1.287 . S
O105 Fe91 1.996 . S
O105 C98 1.255 . S
C106 O99 1.287 . S
C106 O100 1.255 . S
O107 Fe89 2.002 . S
O107 C103 1.295 . S
O108 Fe91 1.997 . S
O108 C103 1.235 . S
C109 O92 1.295 . S
C109 O93 1.235 . S
Fe110 O112 1.918 . S
Fe110 O115 1.997 . S
Fe110 O116 2.002 . S
Fe110 O121 1.976 . S
Fe110 O124 1.996 . S
Fe111 O112 1.918 . S
Fe111 O119 1.997 . S
Fe111 O122 1.996 . S
Fe111 O126 1.976 . S
Fe111 O129 2.002 . S
O112 Fe110 1.918 . S
O112 Fe111 1.918 . S
O112 Fe113 1.918 . S
Fe113 O112 1.918 . S
Fe113 O114 2.002 . S
Fe113 O123 1.976 . S
Fe113 O127 1.996 . S
Fe113 O130 1.997 . S
O114 Fe113 2.002 . S
O114 C131 1.295 . S
O115 Fe110 1.997 . S
O115 C131 1.235 . S
O116 Fe110 2.002 . S
O116 C117 1.295 . S
C117 O116 1.295 . S
C117 O119 1.235 . S
C118 O123 1.287 . S
C118 O124 1.255 . S
O119 Fe111 1.997 . S
O119 C117 1.235 . S
C120 O126 1.287 . S
C120 O127 1.255 . S
O121 Fe110 1.976 . S
O121 C128 1.287 . S
O122 Fe111 1.996 . S
O122 C128 1.255 . S
O123 Fe113 1.976 . S
O123 C118 1.287 . S
O124 Fe110 1.996 . S
O124 C118 1.255 . S
C125 O129 1.295 . S
C125 O130 1.235 . S
O126 Fe111 1.976 . S
O126 C120 1.287 . S
O127 Fe113 1.996 . S
O127 C120 1.255 . S
C128 O121 1.287 . S
C128 O122 1.255 . S
O129 Fe111 2.002 . S
O129 C125 1.295 . S
O130 Fe113 1.997 . S
O130 C125 1.235 . S
C131 O114 1.295 . S
C131 O115 1.235 . S
Fe132 O134 1.918 . S
Fe132 O137 1.997 . S
Fe132 O138 2.002 . S
Fe132 O143 1.976 . S
Fe132 O146 1.996 . S
Fe133 O134 1.918 . S
Fe133 O141 1.997 . S
Fe133 O144 1.996 . S
Fe133 O148 1.976 . S
Fe133 O151 2.002 . S
O134 Fe132 1.918 . S
O134 Fe133 1.918 . S
O134 Fe135 1.918 . S
Fe135 O134 1.918 . S
Fe135 O136 2.002 . S
Fe135 O145 1.976 . S
Fe135 O149 1.996 . S
Fe135 O152 1.997 . S
O136 Fe135 2.002 . S
O136 C153 1.295 . S
O137 Fe132 1.997 . S
O137 C153 1.235 . S
O138 Fe132 2.002 . S
O138 C139 1.295 . S
C139 O138 1.295 . S
C139 O141 1.235 . S
C140 O145 1.287 . S
C140 O146 1.255 . S
O141 Fe133 1.997 . S
O141 C139 1.235 . S
C142 O148 1.287 . S
C142 O149 1.255 . S
O143 Fe132 1.976 . S
O143 C150 1.287 . S
O144 Fe133 1.996 . S
O144 C150 1.255 . S
O145 Fe135 1.976 . S
O145 C140 1.287 . S
O146 Fe132 1.996 . S
O146 C140 1.255 . S
C147 O151 1.295 . S
C147 O152 1.235 . S
O148 Fe133 1.976 . S
O148 C142 1.287 . S
O149 Fe135 1.996 . S
O149 C142 1.255 . S
C150 O143 1.287 . S
C150 O144 1.255 . S
O151 Fe133 2.002 . S
O151 C147 1.295 . S
O152 Fe135 1.997 . S
O152 C147 1.235 . S
C153 O136 1.295 . S
C153 O137 1.235 . S
Fe154 O156 1.918 . S
Fe154 O159 1.997 . S
Fe154 O160 2.002 . S
Fe154 O165 1.976 . S
Fe154 O168 1.996 . S
Fe155 O156 1.918 . S
Fe155 O163 1.997 . S
Fe155 O166 1.996 . S
Fe155 O170 1.976 . S
Fe155 O173 2.002 . S
O156 Fe154 1.918 . S
O156 Fe155 1.918 . S
O156 Fe157 1.918 . S
Fe157 O156 1.918 . S
Fe157 O158 2.002 . S
Fe157 O167 1.976 . S
Fe157 O171 1.996 . S
Fe157 O174 1.997 . S
O158 Fe157 2.002 . S
O158 C175 1.295 . S
O159 Fe154 1.997 . S
O159 C175 1.235 . S
O160 Fe154 2.002 . S
O160 C161 1.295 . S
C161 O160 1.295 . S
C161 O163 1.235 . S
C162 O167 1.287 . S
C162 O168 1.255 . S
O163 Fe155 1.997 . S
O163 C161 1.235 . S
C164 O170 1.287 . S
C164 O171 1.255 . S
O165 Fe154 1.976 . S
O165 C172 1.287 . S
O166 Fe155 1.996 . S
O166 C172 1.255 . S
O167 Fe157 1.976 . S
O167 C162 1.287 . S
O168 Fe154 1.996 . S
O168 C162 1.255 . S
C169 O173 1.295 . S
C169 O174 1.235 . S
O170 Fe155 1.976 . S
O170 C164 1.287 . S
O171 Fe157 1.996 . S
O171 C164 1.255 . S
C172 O165 1.287 . S
C172 O166 1.255 . S
O173 Fe155 2.002 . S
O173 C169 1.295 . S
O174 Fe157 1.997 . S
O174 C169 1.235 . S
C175 O158 1.295 . S
C175 O159 1.235 . S
Fe176 O178 1.918 . S
Fe176 O181 1.997 . S
Fe176 O182 2.002 . S
Fe176 O187 1.976 . S
Fe176 O190 1.996 . S
Fe177 O178 1.918 . S
Fe177 O185 1.997 . S
Fe177 O188 1.996 . S
Fe177 O192 1.976 . S
Fe177 O195 2.002 . S
O178 Fe176 1.918 . S
O178 Fe177 1.918 . S
O178 Fe179 1.918 . S
Fe179 O178 1.918 . S
Fe179 O180 2.002 . S
Fe179 O189 1.976 . S
Fe179 O193 1.996 . S
Fe179 O196 1.997 . S
O180 Fe179 2.002 . S
O180 C197 1.295 . S
O181 Fe176 1.997 . S
O181 C197 1.235 . S
O182 Fe176 2.002 . S
O182 C183 1.295 . S
C183 O182 1.295 . S
C183 O185 1.235 . S
C184 O189 1.287 . S
C184 O190 1.255 . S
O185 Fe177 1.997 . S
O185 C183 1.235 . S
C186 O192 1.287 . S
C186 O193 1.255 . S
O187 Fe176 1.976 . S
O187 C194 1.287 . S
O188 Fe177 1.996 . S
O188 C194 1.255 . S
O189 Fe179 1.976 . S
O189 C184 1.287 . S
O190 Fe176 1.996 . S
O190 C184 1.255 . S
C191 O195 1.295 . S
C191 O196 1.235 . S
O192 Fe177 1.976 . S
O192 C186 1.287 . S
O193 Fe179 1.996 . S
O193 C186 1.255 . S
C194 O187 1.287 . S
C194 O188 1.255 . S
O195 Fe177 2.002 . S
O195 C191 1.295 . S
O196 Fe179 1.997 . S
O196 C191 1.235 . S
C197 O180 1.295 . S
C197 O181 1.235 . S
Fe198 O200 1.918 . S
Fe198 O203 1.997 . S
Fe198 O204 2.002 . S
Fe198 O209 1.976 . S
Fe198 O212 1.996 . S
Fe199 O200 1.918 . S
Fe199 O207 1.997 . S
Fe199 O210 1.996 . S
Fe199 O214 1.976 . S
Fe199 O217 2.002 . S
O200 Fe198 1.918 . S
O200 Fe199 1.918 . S
O200 Fe201 1.918 . S
Fe201 O200 1.918 . S
Fe201 O202 2.002 . S
Fe201 O211 1.976 . S
Fe201 O215 1.996 . S
Fe201 O218 1.997 . S
O202 Fe201 2.002 . S
O202 C219 1.295 . S
O203 Fe198 1.997 . S
O203 C219 1.235 . S
O204 Fe198 2.002 . S
O204 C205 1.295 . S
C205 O204 1.295 . S
C205 O207 1.235 . S
C206 O211 1.287 . S
C206 O212 1.255 . S
O207 Fe199 1.997 . S
O207 C205 1.235 . S
C208 O214 1.287 . S
C208 O215 1.255 . S
O209 Fe198 1.976 . S
O209 C216 1.287 . S
O210 Fe199 1.996 . S
O210 C216 1.255 . S
O211 Fe201 1.976 . S
O211 C206 1.287 . S
O212 Fe198 1.996 . S
O212 C206 1.255 . S
C213 O217 1.295 . S
C213 O218 1.235 . S
O214 Fe199 1.976 . S
O214 C208 1.287 . S
O215 Fe201 1.996 . S
O215 C208 1.255 . S
C216 O209 1.287 . S
C216 O210 1.255 . S
O217 Fe199 2.002 . S
O217 C213 1.295 . S
O218 Fe201 1.997 . S
O218 C213 1.235 . S
C219 O202 1.295 . S
C219 O203 1.235 . S
Fe220 O222 1.918 . S
Fe220 O225 1.997 . S
Fe220 O226 2.002 . S
Fe220 O231 1.976 . S
Fe220 O234 1.996 . S
Fe221 O222 1.918 . S
Fe221 O229 1.997 . S
Fe221 O232 1.996 . S
Fe221 O236 1.976 . S
Fe221 O239 2.002 . S
O222 Fe220 1.918 . S
O222 Fe221 1.918 . S
O222 Fe223 1.918 . S
Fe223 O222 1.918 . S
Fe223 O224 2.002 . S
Fe223 O233 1.976 . S
Fe223 O237 1.996 . S
Fe223 O240 1.997 . S
O224 Fe223 2.002 . S
O224 C241 1.295 . S
O225 Fe220 1.997 . S
O225 C241 1.235 . S
O226 Fe220 2.002 . S
O226 C227 1.295 . S
C227 O226 1.295 . S
C227 O229 1.235 . S
C228 O233 1.287 . S
C228 O234 1.255 . S
O229 Fe221 1.997 . S
O229 C227 1.235 . S
C230 O236 1.287 . S
C230 O237 1.255 . S
O231 Fe220 1.976 . S
O231 C238 1.287 . S
O232 Fe221 1.996 . S
O232 C238 1.255 . S
O233 Fe223 1.976 . S
O233 C228 1.287 . S
O234 Fe220 1.996 . S
O234 C228 1.255 . S
C235 O239 1.295 . S
C235 O240 1.235 . S
O236 Fe221 1.976 . S
O236 C230 1.287 . S
O237 Fe223 1.996 . S
O237 C230 1.255 . S
C238 O231 1.287 . S
C238 O232 1.255 . S
O239 Fe221 2.002 . S
O239 C235 1.295 . S
O240 Fe223 1.997 . S
O240 C235 1.235 . S
C241 O224 1.295 . S
C241 O225 1.235 . S
Fe242 O244 1.918 . S
Fe242 O247 1.997 . S
Fe242 O248 2.002 . S
Fe242 O253 1.976 . S
Fe242 O256 1.996 . S
Fe243 O244 1.918 . S
Fe243 O251 1.997 . S
Fe243 O254 1.996 . S
Fe243 O258 1.976 . S
Fe243 O261 2.002 . S
O244 Fe242 1.918 . S
O244 Fe243 1.918 . S
O244 Fe245 1.918 . S
Fe245 O244 1.918 . S
Fe245 O246 2.002 . S
Fe245 O255 1.976 . S
Fe245 O259 1.996 . S
Fe245 O262 1.997 . S
O246 Fe245 2.002 . S
O246 C263 1.295 . S
O247 Fe242 1.997 . S
O247 C263 1.235 . S
O248 Fe242 2.002 . S
O248 C249 1.295 . S
C249 O248 1.295 . S
C249 O251 1.235 . S
C250 O255 1.287 . S
C250 O256 1.255 . S
O251 Fe243 1.997 . S
O251 C249 1.235 . S
C252 O258 1.287 . S
C252 O259 1.255 . S
O253 Fe242 1.976 . S
O253 C260 1.287 . S
O254 Fe243 1.996 . S
O254 C260 1.255 . S
O255 Fe245 1.976 . S
O255 C250 1.287 . S
O256 Fe242 1.996 . S
O256 C250 1.255 . S
C257 O261 1.295 . S
C257 O262 1.235 . S
O258 Fe243 1.976 . S
O258 C252 1.287 . S
O259 Fe245 1.996 . S
O259 C252 1.255 . S
C260 O253 1.287 . S
C260 O254 1.255 . S
O261 Fe243 2.002 . S
O261 C257 1.295 . S
O262 Fe245 1.997 . S
O262 C257 1.235 . S
C263 O246 1.295 . S
C263 O247 1.235 . S
Fe264 O266 1.918 . S
Fe264 O269 1.997 . S
Fe264 O270 2.002 . S
Fe264 O275 1.976 . S
Fe264 O278 1.996 . S
Fe265 O266 1.918 . S
Fe265 O273 1.997 . S
Fe265 O276 1.996 . S
Fe265 O280 1.976 . S
Fe265 O283 2.002 . S
O266 Fe264 1.918 . S
O266 Fe265 1.918 . S
O266 Fe267 1.918 . S
Fe267 O266 1.918 . S
Fe267 O268 2.002 . S
Fe267 O277 1.976 . S
Fe267 O281 1.996 . S
Fe267 O284 1.997 . S
O268 Fe267 2.002 . S
O268 C285 1.295 . S
O269 Fe264 1.997 . S
O269 C285 1.235 . S
O270 Fe264 2.002 . S
O270 C271 1.295 . S
C271 O270 1.295 . S
C271 O273 1.235 . S
C272 O277 1.287 . S
C272 O278 1.255 . S
O273 Fe265 1.997 . S
O273 C271 1.235 . S
C274 O280 1.287 . S
C274 O281 1.255 . S
O275 Fe264 1.976 . S
O275 C282 1.287 . S
O276 Fe265 1.996 . S
O276 C282 1.255 . S
O277 Fe267 1.976 . S
O277 C272 1.287 . S
O278 Fe264 1.996 . S
O278 C272 1.255 . S
C279 O283 1.295 . S
C279 O284 1.235 . S
O280 Fe265 1.976 . S
O280 C274 1.287 . S
O281 Fe267 1.996 . S
O281 C274 1.255 . S
C282 O275 1.287 . S
C282 O276 1.255 . S
O283 Fe265 2.002 . S
O283 C279 1.295 . S
O284 Fe267 1.997 . S
O284 C279 1.235 . S
C285 O268 1.295 . S
C285 O269 1.235 . S
Fe286 O288 1.918 . S
Fe286 O291 1.997 . S
Fe286 O292 2.002 . S
Fe286 O297 1.976 . S
Fe286 O300 1.996 . S
Fe287 O288 1.918 . S
Fe287 O295 1.997 . S
Fe287 O298 1.996 . S
Fe287 O302 1.976 . S
Fe287 O305 2.002 . S
O288 Fe286 1.918 . S
O288 Fe287 1.918 . S
O288 Fe289 1.918 . S
Fe289 O288 1.918 . S
Fe289 O290 2.002 . S
Fe289 O299 1.976 . S
Fe289 O303 1.996 . S
Fe289 O306 1.997 . S
O290 Fe289 2.002 . S
O290 C307 1.295 . S
O291 Fe286 1.997 . S
O291 C307 1.235 . S
O292 Fe286 2.002 . S
O292 C293 1.295 . S
C293 O292 1.295 . S
C293 O295 1.235 . S
C294 O299 1.287 . S
C294 O300 1.255 . S
O295 Fe287 1.997 . S
O295 C293 1.235 . S
C296 O302 1.287 . S
C296 O303 1.255 . S
O297 Fe286 1.976 . S
O297 C304 1.287 . S
O298 Fe287 1.996 . S
O298 C304 1.255 . S
O299 Fe289 1.976 . S
O299 C294 1.287 . S
O300 Fe286 1.996 . S
O300 C294 1.255 . S
C301 O305 1.295 . S
C301 O306 1.235 . S
O302 Fe287 1.976 . S
O302 C296 1.287 . S
O303 Fe289 1.996 . S
O303 C296 1.255 . S
C304 O297 1.287 . S
C304 O298 1.255 . S
O305 Fe287 2.002 . S
O305 C301 1.295 . S
O306 Fe289 1.997 . S
O306 C301 1.235 . S
C307 O290 1.295 . S
C307 O291 1.235 . S
Fe308 O310 1.918 . S
Fe308 O313 1.997 . S
Fe308 O314 2.002 . S
Fe308 O319 1.976 . S
Fe308 O322 1.996 . S
Fe309 O310 1.918 . S
Fe309 O317 1.997 . S
Fe309 O320 1.996 . S
Fe309 O324 1.976 . S
Fe309 O327 2.002 . S
O310 Fe308 1.918 . S
O310 Fe309 1.918 . S
O310 Fe311 1.918 . S
Fe311 O310 1.918 . S
Fe311 O312 2.002 . S
Fe311 O321 1.976 . S
Fe311 O325 1.996 . S
Fe311 O328 1.997 . S
O312 Fe311 2.002 . S
O312 C329 1.295 . S
O313 Fe308 1.997 . S
O313 C329 1.235 . S
O314 Fe308 2.002 . S
O314 C315 1.295 . S
C315 O314 1.295 . S
C315 O317 1.235 . S
C316 O321 1.287 . S
C316 O322 1.255 . S
O317 Fe309 1.997 . S
O317 C315 1.235 . S
C318 O324 1.287 . S
C318 O325 1.255 . S
O319 Fe308 1.976 . S
O319 C326 1.287 . S
O320 Fe309 1.996 . S
O320 C326 1.255 . S
O321 Fe311 1.976 . S
O321 C316 1.287 . S
O322 Fe308 1.996 . S
O322 C316 1.255 . S
C323 O327 1.295 . S
C323 O328 1.235 . S
O324 Fe309 1.976 . S
O324 C318 1.287 . S
O325 Fe311 1.996 . S
O325 C318 1.255 . S
C326 O319 1.287 . S
C326 O320 1.255 . S
O327 Fe309 2.002 . S
O327 C323 1.295 . S
O328 Fe311 1.997 . S
O328 C323 1.235 . S
C329 O312 1.295 . S
C329 O313 1.235 . S
Fe330 O332 1.918 . S
Fe330 O335 1.997 . S
Fe330 O336 2.002 . S
Fe330 O341 1.976 . S
Fe330 O344 1.996 . S
Fe331 O332 1.918 . S
Fe331 O339 1.997 . S
Fe331 O342 1.996 . S
Fe331 O346 1.976 . S
Fe331 O349 2.002 . S
O332 Fe330 1.918 . S
O332 Fe331 1.918 . S
O332 Fe333 1.918 . S
Fe333 O332 1.918 . S
Fe333 O334 2.002 . S
Fe333 O343 1.976 . S
Fe333 O347 1.996 . S
Fe333 O350 1.997 . S
O334 Fe333 2.002 . S
O334 C351 1.295 . S
O335 Fe330 1.997 . S
O335 C351 1.235 . S
O336 Fe330 2.002 . S
O336 C337 1.295 . S
C337 O336 1.295 . S
C337 O339 1.235 . S
C338 O343 1.287 . S
C338 O344 1.255 . S
O339 Fe331 1.997 . S
O339 C337 1.235 . S
C340 O346 1.287 . S
C340 O347 1.255 . S
O341 Fe330 1.976 . S
O341 C348 1.287 . S
O342 Fe331 1.996 . S
O342 C348 1.255 . S
O343 Fe333 1.976 . S
O343 C338 1.287 . S
O344 Fe330 1.996 . S
O344 C338 1.255 . S
C345 O349 1.295 . S
C345 O350 1.235 . S
O346 Fe331 1.976 . S
O346 C340 1.287 . S
O347 Fe333 1.996 . S
O347 C340 1.255 . S
C348 O341 1.287 . S
C348 O342 1.255 . S
O349 Fe331 2.002 . S
O349 C345 1.295 . S
O350 Fe333 1.997 . S
O350 C345 1.235 . S
C351 O334 1.295 . S
C351 O335 1.235 . S
Fe352 O354 1.918 . S
Fe352 O357 1.997 . S
Fe352 O358 2.002 . S
Fe352 O363 1.976 . S
Fe352 O366 1.996 . S
Fe353 O354 1.918 . S
Fe353 O361 1.997 . S
Fe353 O364 1.996 . S
Fe353 O368 1.976 . S
Fe353 O371 2.002 . S
O354 Fe352 1.918 . S
O354 Fe353 1.918 . S
O354 Fe355 1.918 . S
Fe355 O354 1.918 . S
Fe355 O356 2.002 . S
Fe355 O365 1.976 . S
Fe355 O369 1.996 . S
Fe355 O372 1.997 . S
O356 Fe355 2.002 . S
O356 C373 1.295 . S
O357 Fe352 1.997 . S
O357 C373 1.235 . S
O358 Fe352 2.002 . S
O358 C359 1.295 . S
C359 O358 1.295 . S
C359 O361 1.235 . S
C360 O365 1.287 . S
C360 O366 1.255 . S
O361 Fe353 1.997 . S
O361 C359 1.235 . S
C362 O368 1.287 . S
C362 O369 1.255 . S
O363 Fe352 1.976 . S
O363 C370 1.287 . S
O364 Fe353 1.996 . S
O364 C370 1.255 . S
O365 Fe355 1.976 . S
O365 C360 1.287 . S
O366 Fe352 1.996 . S
O366 C360 1.255 . S
C367 O371 1.295 . S
C367 O372 1.235 . S
O368 Fe353 1.976 . S
O368 C362 1.287 . S
O369 Fe355 1.996 . S
O369 C362 1.255 . S
C370 O363 1.287 . S
C370 O364 1.255 . S
O371 Fe353 2.002 . S
O371 C367 1.295 . S
O372 Fe355 1.997 . S
O372 C367 1.235 . S
C373 O356 1.295 . S
C373 O357 1.235 . S
Fe374 O376 1.918 . S
Fe374 O379 1.997 . S
Fe374 O380 2.002 . S
Fe374 O385 1.976 . S
Fe374 O388 1.996 . S
Fe375 O376 1.918 . S
Fe375 O383 1.997 . S
Fe375 O386 1.996 . S
Fe375 O390 1.976 . S
Fe375 O393 2.002 . S
O376 Fe374 1.918 . S
O376 Fe375 1.918 . S
O376 Fe377 1.918 . S
Fe377 O376 1.918 . S
Fe377 O378 2.002 . S
Fe377 O387 1.976 . S
Fe377 O391 1.996 . S
Fe377 O394 1.997 . S
O378 Fe377 2.002 . S
O378 C395 1.295 . S
O379 Fe374 1.997 . S
O379 C395 1.235 . S
O380 Fe374 2.002 . S
O380 C381 1.295 . S
C381 O380 1.295 . S
C381 O383 1.235 . S
C382 O387 1.287 . S
C382 O388 1.255 . S
O383 Fe375 1.997 . S
O383 C381 1.235 . S
C384 O390 1.287 . S
C384 O391 1.255 . S
O385 Fe374 1.976 . S
O385 C392 1.287 . S
O386 Fe375 1.996 . S
O386 C392 1.255 . S
O387 Fe377 1.976 . S
O387 C382 1.287 . S
O388 Fe374 1.996 . S
O388 C382 1.255 . S
C389 O393 1.295 . S
C389 O394 1.235 . S
O390 Fe375 1.976 . S
O390 C384 1.287 . S
O391 Fe377 1.996 . S
O391 C384 1.255 . S
C392 O385 1.287 . S
C392 O386 1.255 . S
O393 Fe375 2.002 . S
O393 C389 1.295 . S
O394 Fe377 1.997 . S
O394 C389 1.235 . S
C395 O378 1.295 . S
C395 O379 1.235 . S
Fe396 O398 1.918 . S
Fe396 O401 1.997 . S
Fe396 O402 2.002 . S
Fe396 O407 1.976 . S
Fe396 O410 1.996 . S
Fe397 O398 1.918 . S
Fe397 O405 1.997 . S
Fe397 O408 1.996 . S
Fe397 O412 1.976 . S
Fe397 O415 2.002 . S
O398 Fe396 1.918 . S
O398 Fe397 1.918 . S
O398 Fe399 1.918 . S
Fe399 O398 1.918 . S
Fe399 O400 2.002 . S
Fe399 O409 1.976 . S
Fe399 O413 1.996 . S
Fe399 O416 1.997 . S
O400 Fe399 2.002 . S
O400 C417 1.295 . S
O401 Fe396 1.997 . S
O401 C417 1.235 . S
O402 Fe396 2.002 . S
O402 C403 1.295 . S
C403 O402 1.295 . S
C403 O405 1.235 . S
C404 O409 1.287 . S
C404 O410 1.255 . S
O405 Fe397 1.997 . S
O405 C403 1.235 . S
C406 O412 1.287 . S
C406 O413 1.255 . S
O407 Fe396 1.976 . S
O407 C414 1.287 . S
O408 Fe397 1.996 . S
O408 C414 1.255 . S
O409 Fe399 1.976 . S
O409 C404 1.287 . S
O410 Fe396 1.996 . S
O410 C404 1.255 . S
C411 O415 1.295 . S
C411 O416 1.235 . S
O412 Fe397 1.976 . S
O412 C406 1.287 . S
O413 Fe399 1.996 . S
O413 C406 1.255 . S
C414 O407 1.287 . S
C414 O408 1.255 . S
O415 Fe397 2.002 . S
O415 C411 1.295 . S
O416 Fe399 1.997 . S
O416 C411 1.235 . S
C417 O400 1.295 . S
C417 O401 1.235 . S
Fe418 O420 1.918 . S
Fe418 O423 1.997 . S
Fe418 O424 2.002 . S
Fe418 O429 1.976 . S
Fe418 O432 1.996 . S
Fe419 O420 1.918 . S
Fe419 O427 1.997 . S
Fe419 O430 1.996 . S
Fe419 O434 1.976 . S
Fe419 O437 2.002 . S
O420 Fe418 1.918 . S
O420 Fe419 1.918 . S
O420 Fe421 1.918 . S
Fe421 O420 1.918 . S
Fe421 O422 2.002 . S
Fe421 O431 1.976 . S
Fe421 O435 1.996 . S
Fe421 O438 1.997 . S
O422 Fe421 2.002 . S
O422 C439 1.295 . S
O423 Fe418 1.997 . S
O423 C439 1.235 . S
O424 Fe418 2.002 . S
O424 C425 1.295 . S
C425 O424 1.295 . S
C425 O427 1.235 . S
C426 O431 1.287 . S
C426 O432 1.255 . S
O427 Fe419 1.997 . S
O427 C425 1.235 . S
C428 O434 1.287 . S
C428 O435 1.255 . S
O429 Fe418 1.976 . S
O429 C436 1.287 . S
O430 Fe419 1.996 . S
O430 C436 1.255 . S
O431 Fe421 1.976 . S
O431 C426 1.287 . S
O432 Fe418 1.996 . S
O432 C426 1.255 . S
C433 O437 1.295 . S
C433 O438 1.235 . S
O434 Fe419 1.976 . S
O434 C428 1.287 . S
O435 Fe421 1.996 . S
O435 C428 1.255 . S
C436 O429 1.287 . S
C436 O430 1.255 . S
O437 Fe419 2.002 . S
O437 C433 1.295 . S
O438 Fe421 1.997 . S
O438 C433 1.235 . S
C439 O422 1.295 . S
C439 O423 1.235 . S
Fe440 O442 1.918 . S
Fe440 O445 1.997 . S
Fe440 O446 2.002 . S
Fe440 O451 1.976 . S
Fe440 O454 1.996 . S
Fe441 O442 1.918 . S
Fe441 O449 1.997 . S
Fe441 O452 1.996 . S
Fe441 O456 1.976 . S
Fe441 O459 2.002 . S
O442 Fe440 1.918 . S
O442 Fe441 1.918 . S
O442 Fe443 1.918 . S
Fe443 O442 1.918 . S
Fe443 O444 2.002 . S
Fe443 O453 1.976 . S
Fe443 O457 1.996 . S
Fe443 O460 1.997 . S
O444 Fe443 2.002 . S
O444 C461 1.295 . S
O445 Fe440 1.997 . S
O445 C461 1.235 . S
O446 Fe440 2.002 . S
O446 C447 1.295 . S
C447 O446 1.295 . S
C447 O449 1.235 . S
C448 O453 1.287 . S
C448 O454 1.255 . S
O449 Fe441 1.997 . S
O449 C447 1.235 . S
C450 O456 1.287 . S
C450 O457 1.255 . S
O451 Fe440 1.976 . S
O451 C458 1.287 . S
O452 Fe441 1.996 . S
O452 C458 1.255 . S
O453 Fe443 1.976 . S
O453 C448 1.287 . S
O454 Fe440 1.996 . S
O454 C448 1.255 . S
C455 O459 1.295 . S
C455 O460 1.235 . S
O456 Fe441 1.976 . S
O456 C450 1.287 . S
O457 Fe443 1.996 . S
O457 C450 1.255 . S
C458 O451 1.287 . S
C458 O452 1.255 . S
O459 Fe441 2.002 . S
O459 C455 1.295 . S
O460 Fe443 1.997 . S
O460 C455 1.235 . S
C461 O444 1.295 . S
C461 O445 1.235 . S
Fe462 O464 1.918 . S
Fe462 O467 1.997 . S
Fe462 O468 2.002 . S
Fe462 O473 1.976 . S
Fe462 O476 1.996 . S
Fe463 O464 1.918 . S
Fe463 O471 1.997 . S
Fe463 O474 1.996 . S
Fe463 O478 1.976 . S
Fe463 O481 2.002 . S
O464 Fe462 1.918 . S
O464 Fe463 1.918 . S
O464 Fe465 1.918 . S
Fe465 O464 1.918 . S
Fe465 O466 2.002 . S
Fe465 O475 1.976 . S
Fe465 O479 1.996 . S
Fe465 O482 1.997 . S
O466 Fe465 2.002 . S
O466 C483 1.295 . S
O467 Fe462 1.997 . S
O467 C483 1.235 . S
O468 Fe462 2.002 . S
O468 C469 1.295 . S
C469 O468 1.295 . S
C469 O471 1.235 . S
C470 O475 1.287 . S
C470 O476 1.255 . S
O471 Fe463 1.997 . S
O471 C469 1.235 . S
C472 O478 1.287 . S
C472 O479 1.255 . S
O473 Fe462 1.976 . S
O473 C480 1.287 . S
O474 Fe463 1.996 . S
O474 C480 1.255 . S
O475 Fe465 1.976 . S
O475 C470 1.287 . S
O476 Fe462 1.996 . S
O476 C470 1.255 . S
C477 O481 1.295 . S
C477 O482 1.235 . S
O478 Fe463 1.976 . S
O478 C472 1.287 . S
O479 Fe465 1.996 . S
O479 C472 1.255 . S
C480 O473 1.287 . S
C480 O474 1.255 . S
O481 Fe463 2.002 . S
O481 C477 1.295 . S
O482 Fe465 1.997 . S
O482 C477 1.235 . S
C483 O466 1.295 . S
C483 O467 1.235 . S
Fe484 O486 1.918 . S
Fe484 O489 1.997 . S
Fe484 O490 2.002 . S
Fe484 O495 1.976 . S
Fe484 O498 1.996 . S
Fe485 O486 1.918 . S
Fe485 O493 1.997 . S
Fe485 O496 1.996 . S
Fe485 O500 1.976 . S
Fe485 O503 2.002 . S
O486 Fe484 1.918 . S
O486 Fe485 1.918 . S
O486 Fe487 1.918 . S
Fe487 O486 1.918 . S
Fe487 O488 2.002 . S
Fe487 O497 1.976 . S
Fe487 O501 1.996 . S
Fe487 O504 1.997 . S
O488 Fe487 2.002 . S
O488 C505 1.295 . S
O489 Fe484 1.997 . S
O489 C505 1.235 . S
O490 Fe484 2.002 . S
O490 C491 1.295 . S
C491 O490 1.295 . S
C491 O493 1.235 . S
C492 O497 1.287 . S
C492 O498 1.255 . S
O493 Fe485 1.997 . S
O493 C491 1.235 . S
C494 O500 1.287 . S
C494 O501 1.255 . S
O495 Fe484 1.976 . S
O495 C502 1.287 . S
O496 Fe485 1.996 . S
O496 C502 1.255 . S
O497 Fe487 1.976 . S
O497 C492 1.287 . S
O498 Fe484 1.996 . S
O498 C492 1.255 . S
C499 O503 1.295 . S
C499 O504 1.235 . S
O500 Fe485 1.976 . S
O500 C494 1.287 . S
O501 Fe487 1.996 . S
O501 C494 1.255 . S
C502 O495 1.287 . S
C502 O496 1.255 . S
O503 Fe485 2.002 . S
O503 C499 1.295 . S
O504 Fe487 1.997 . S
O504 C499 1.235 . S
C505 O488 1.295 . S
C505 O489 1.235 . S
Fe506 O508 1.918 . S
Fe506 O511 1.997 . S
Fe506 O512 2.002 . S
Fe506 O517 1.976 . S
Fe506 O520 1.996 . S
Fe507 O508 1.918 . S
Fe507 O515 1.997 . S
Fe507 O518 1.996 . S
Fe507 O522 1.976 . S
Fe507 O525 2.002 . S
O508 Fe506 1.918 . S
O508 Fe507 1.918 . S
O508 Fe509 1.918 . S
Fe509 O508 1.918 . S
Fe509 O510 2.002 . S
Fe509 O519 1.976 . S
Fe509 O523 1.996 . S
Fe509 O526 1.997 . S
O510 Fe509 2.002 . S
O510 C527 1.295 . S
O511 Fe506 1.997 . S
O511 C527 1.235 . S
O512 Fe506 2.002 . S
O512 C513 1.295 . S
C513 O512 1.295 . S
C513 O515 1.235 . S
C514 O519 1.287 . S
C514 O520 1.255 . S
O515 Fe507 1.997 . S
O515 C513 1.235 . S
C516 O522 1.287 . S
C516 O523 1.255 . S
O517 Fe506 1.976 . S
O517 C524 1.287 . S
O518 Fe507 1.996 . S
O518 C524 1.255 . S
O519 Fe509 1.976 . S
O519 C514 1.287 . S
O520 Fe506 1.996 . S
O520 C514 1.255 . S
C521 O525 1.295 . S
C521 O526 1.235 . S
O522 Fe507 1.976 . S
O522 C516 1.287 . S
O523 Fe509 1.996 . S
O523 C516 1.255 . S
C524 O517 1.287 . S
C524 O518 1.255 . S
O525 Fe507 2.002 . S
O525 C521 1.295 . S
O526 Fe509 1.997 . S
O526 C521 1.235 . S
C527 O510 1.295 . S
C527 O511 1.235 . S
Fe528 O530 1.918 . S
Fe528 O533 1.997 . S
Fe528 O534 2.002 . S
Fe528 O539 1.976 . S
Fe528 O542 1.996 . S
Fe529 O530 1.918 . S
Fe529 O537 1.997 . S
Fe529 O540 1.996 . S
Fe529 O544 1.976 . S
Fe529 O547 2.002 . S
O530 Fe528 1.918 . S
O530 Fe529 1.918 . S
O530 Fe531 1.918 . S
Fe531 O530 1.918 . S
Fe531 O532 2.002 . S
Fe531 O541 1.976 . S
Fe531 O545 1.996 . S
Fe531 O548 1.997 . S
O532 Fe531 2.002 . S
O532 C549 1.295 . S
O533 Fe528 1.997 . S
O533 C549 1.235 . S
O534 Fe528 2.002 . S
O534 C535 1.295 . S
C535 O534 1.295 . S
C535 O537 1.235 . S
C536 O541 1.287 . S
C536 O542 1.255 . S
O537 Fe529 1.997 . S
O537 C535 1.235 . S
C538 O544 1.287 . S
C538 O545 1.255 . S
O539 Fe528 1.976 . S
O539 C546 1.287 . S
O540 Fe529 1.996 . S
O540 C546 1.255 . S
O541 Fe531 1.976 . S
O541 C536 1.287 . S
O542 Fe528 1.996 . S
O542 C536 1.255 . S
C543 O547 1.295 . S
C543 O548 1.235 . S
O544 Fe529 1.976 . S
O544 C538 1.287 . S
O545 Fe531 1.996 . S
O545 C538 1.255 . S
C546 O539 1.287 . S
C546 O540 1.255 . S
O547 Fe529 2.002 . S
O547 C543 1.295 . S
O548 Fe531 1.997 . S
O548 C543 1.235 . S
C549 O532 1.295 . S
C549 O533 1.235 . S
Fe550 O552 1.918 . S
Fe550 O555 1.997 . S
Fe550 O556 2.002 . S
Fe550 O561 1.976 . S
Fe550 O564 1.996 . S
Fe551 O552 1.918 . S
Fe551 O559 1.997 . S
Fe551 O562 1.996 . S
Fe551 O566 1.976 . S
Fe551 O569 2.002 . S
O552 Fe550 1.918 . S
O552 Fe551 1.918 . S
O552 Fe553 1.918 . S
Fe553 O552 1.918 . S
Fe553 O554 2.002 . S
Fe553 O563 1.976 . S
Fe553 O567 1.996 . S
Fe553 O570 1.997 . S
O554 Fe553 2.002 . S
O554 C571 1.295 . S
O555 Fe550 1.997 . S
O555 C571 1.235 . S
O556 Fe550 2.002 . S
O556 C557 1.295 . S
C557 O556 1.295 . S
C557 O559 1.235 . S
C558 O563 1.287 . S
C558 O564 1.255 . S
O559 Fe551 1.997 . S
O559 C557 1.235 . S
C560 O566 1.287 . S
C560 O567 1.255 . S
O561 Fe550 1.976 . S
O561 C568 1.287 . S
O562 Fe551 1.996 . S
O562 C568 1.255 . S
O563 Fe553 1.976 . S
O563 C558 1.287 . S
O564 Fe550 1.996 . S
O564 C558 1.255 . S
C565 O569 1.295 . S
C565 O570 1.235 . S
O566 Fe551 1.976 . S
O566 C560 1.287 . S
O567 Fe553 1.996 . S
O567 C560 1.255 . S
C568 O561 1.287 . S
C568 O562 1.255 . S
O569 Fe551 2.002 . S
O569 C565 1.295 . S
O570 Fe553 1.997 . S
O570 C565 1.235 . S
C571 O554 1.295 . S
C571 O555 1.235 . S
Fe572 O574 1.918 . S
Fe572 O577 1.997 . S
Fe572 O578 2.002 . S
Fe572 O583 1.976 . S
Fe572 O586 1.996 . S
Fe573 O574 1.918 . S
Fe573 O581 1.997 . S
Fe573 O584 1.996 . S
Fe573 O588 1.976 . S
Fe573 O591 2.002 . S
O574 Fe572 1.918 . S
O574 Fe573 1.918 . S
O574 Fe575 1.918 . S
Fe575 O574 1.918 . S
Fe575 O576 2.002 . S
Fe575 O585 1.976 . S
Fe575 O589 1.996 . S
Fe575 O592 1.997 . S
O576 Fe575 2.002 . S
O576 C593 1.295 . S
O577 Fe572 1.997 . S
O577 C593 1.235 . S
O578 Fe572 2.002 . S
O578 C579 1.295 . S
C579 O578 1.295 . S
C579 O581 1.235 . S
C580 O585 1.287 . S
C580 O586 1.255 . S
O581 Fe573 1.997 . S
O581 C579 1.235 . S
C582 O588 1.287 . S
C582 O589 1.255 . S
O583 Fe572 1.976 . S
O583 C590 1.287 . S
O584 Fe573 1.996 . S
O584 C590 1.255 . S
O585 Fe575 1.976 . S
O585 C580 1.287 . S
O586 Fe572 1.996 . S
O586 C580 1.255 . S
C587 O591 1.295 . S
C587 O592 1.235 . S
O588 Fe573 1.976 . S
O588 C582 1.287 . S
O589 Fe575 1.996 . S
O589 C582 1.255 . S
C590 O583 1.287 . S
C590 O584 1.255 . S
O591 Fe573 2.002 . S
O591 C587 1.295 . S
O592 Fe575 1.997 . S
O592 C587 1.235 . S
C593 O576 1.295 . S
C593 O577 1.235 . S
Fe594 O596 1.918 . S
Fe594 O599 1.997 . S
Fe594 O600 2.002 . S
Fe594 O605 1.976 . S
Fe594 O608 1.996 . S
Fe595 O596 1.918 . S
Fe595 O603 1.997 . S
Fe595 O606 1.996 . S
Fe595 O610 1.976 . S
Fe595 O613 2.002 . S
O596 Fe594 1.918 . S
O596 Fe595 1.918 . S
O596 Fe597 1.918 . S
Fe597 O596 1.918 . S
Fe597 O598 2.002 . S
Fe597 O607 1.976 . S
Fe597 O611 1.996 . S
Fe597 O614 1.997 . S
O598 Fe597 2.002 . S
O598 C615 1.295 . S
O599 Fe594 1.997 . S
O599 C615 1.235 . S
O600 Fe594 2.002 . S
O600 C601 1.295 . S
C601 O600 1.295 . S
C601 O603 1.235 . S
C602 O607 1.287 . S
C602 O608 1.255 . S
O603 Fe595 1.997 . S
O603 C601 1.235 . S
C604 O610 1.287 . S
C604 O611 1.255 . S
O605 Fe594 1.976 . S
O605 C612 1.287 . S
O606 Fe595 1.996 . S
O606 C612 1.255 . S
O607 Fe597 1.976 . S
O607 C602 1.287 . S
O608 Fe594 1.996 . S
O608 C602 1.255 . S
C609 O613 1.295 . S
C609 O614 1.235 . S
O610 Fe595 1.976 . S
O610 C604 1.287 . S
O611 Fe597 1.996 . S
O611 C604 1.255 . S
C612 O605 1.287 . S
C612 O606 1.255 . S
O613 Fe595 2.002 . S
O613 C609 1.295 . S
O614 Fe597 1.997 . S
O614 C609 1.235 . S
C615 O598 1.295 . S
C615 O599 1.235 . S
Fe616 O618 1.918 . S
Fe616 O621 1.997 . S
Fe616 O622 2.002 . S
Fe616 O627 1.976 . S
Fe616 O630 1.996 . S
Fe617 O618 1.918 . S
Fe617 O625 1.997 . S
Fe617 O628 1.996 . S
Fe617 O632 1.976 . S
Fe617 O635 2.002 . S
O618 Fe616 1.918 . S
O618 Fe617 1.918 . S
O618 Fe619 1.918 . S
Fe619 O618 1.918 . S
Fe619 O620 2.002 . S
Fe619 O629 1.976 . S
Fe619 O633 1.996 . S
Fe619 O636 1.997 . S
O620 Fe619 2.002 . S
O620 C637 1.295 . S
O621 Fe616 1.997 . S
O621 C637 1.235 . S
O622 Fe616 2.002 . S
O622 C623 1.295 . S
C623 O622 1.295 . S
C623 O625 1.235 . S
C624 O629 1.287 . S
C624 O630 1.255 . S
O625 Fe617 1.997 . S
O625 C623 1.235 . S
C626 O632 1.287 . S
C626 O633 1.255 . S
O627 Fe616 1.976 . S
O627 C634 1.287 . S
O628 Fe617 1.996 . S
O628 C634 1.255 . S
O629 Fe619 1.976 . S
O629 C624 1.287 . S
O630 Fe616 1.996 . S
O630 C624 1.255 . S
C631 O635 1.295 . S
C631 O636 1.235 . S
O632 Fe617 1.976 . S
O632 C626 1.287 . S
O633 Fe619 1.996 . S
O633 C626 1.255 . S
C634 O627 1.287 . S
C634 O628 1.255 . S
O635 Fe617 2.002 . S
O635 C631 1.295 . S
O636 Fe619 1.997 . S
O636 C631 1.235 . S
C637 O620 1.295 . S
C637 O621 1.235 . S
Fe638 O640 1.918 . S
Fe638 O643 1.997 . S
Fe638 O644 2.002 . S
Fe638 O649 1.976 . S
Fe638 O652 1.996 . S
Fe639 O640 1.918 . S
Fe639 O647 1.997 . S
Fe639 O650 1.996 . S
Fe639 O654 1.976 . S
Fe639 O657 2.002 . S
O640 Fe638 1.918 . S
O640 Fe639 1.918 . S
O640 Fe641 1.918 . S
Fe641 O640 1.918 . S
Fe641 O642 2.002 . S
Fe641 O651 1.976 . S
Fe641 O655 1.996 . S
Fe641 O658 1.997 . S
O642 Fe641 2.002 . S
O642 C659 1.295 . S
O643 Fe638 1.997 . S
O643 C659 1.235 . S
O644 Fe638 2.002 . S
O644 C645 1.295 . S
C645 O644 1.295 . S
C645 O647 1.235 . S
C646 O651 1.287 . S
C646 O652 1.255 . S
O647 Fe639 1.997 . S
O647 C645 1.235 . S
C648 O654 1.287 . S
C648 O655 1.255 . S
O649 Fe638 1.976 . S
O649 C656 1.287 . S
O650 Fe639 1.996 . S
O650 C656 1.255 . S
O651 Fe641 1.976 . S
O651 C646 1.287 . S
O652 Fe638 1.996 . S
O652 C646 1.255 . S
C653 O657 1.295 . S
C653 O658 1.235 . S
O654 Fe639 1.976 . S
O654 C648 1.287 . S
O655 Fe641 1.996 . S
O655 C648 1.255 . S
C656 O649 1.287 . S
C656 O650 1.255 . S
O657 Fe639 2.002 . S
O657 C653 1.295 . S
O658 Fe641 1.997 . S
O658 C653 1.235 . S
C659 O642 1.295 . S
C659 O643 1.235 . S
Fe660 O662 1.918 . S
Fe660 O665 1.997 . S
Fe660 O666 2.002 . S
Fe660 O671 1.976 . S
Fe660 O674 1.996 . S
Fe661 O662 1.918 . S
Fe661 O669 1.997 . S
Fe661 O672 1.996 . S
Fe661 O676 1.976 . S
Fe661 O679 2.002 . S
O662 Fe660 1.918 . S
O662 Fe661 1.918 . S
O662 Fe663 1.918 . S
Fe663 O662 1.918 . S
Fe663 O664 2.002 . S
Fe663 O673 1.976 . S
Fe663 O677 1.996 . S
Fe663 O680 1.997 . S
O664 Fe663 2.002 . S
O664 C681 1.295 . S
O665 Fe660 1.997 . S
O665 C681 1.235 . S
O666 Fe660 2.002 . S
O666 C667 1.295 . S
C667 O666 1.295 . S
C667 O669 1.235 . S
C668 O673 1.287 . S
C668 O674 1.255 . S
O669 Fe661 1.997 . S
O669 C667 1.235 . S
C670 O676 1.287 . S
C670 O677 1.255 . S
O671 Fe660 1.976 . S
O671 C678 1.287 . S
O672 Fe661 1.996 . S
O672 C678 1.255 . S
O673 Fe663 1.976 . S
O673 C668 1.287 . S
O674 Fe660 1.996 . S
O674 C668 1.255 . S
C675 O679 1.295 . S
C675 O680 1.235 . S
O676 Fe661 1.976 . S
O676 C670 1.287 . S
O677 Fe663 1.996 . S
O677 C670 1.255 . S
C678 O671 1.287 . S
C678 O672 1.255 . S
O679 Fe661 2.002 . S
O679 C675 1.295 . S
O680 Fe663 1.997 . S
O680 C675 1.235 . S
C681 O664 1.295 . S
C681 O665 1.235 . S
Fe682 O684 1.918 . S
Fe682 O687 1.997 . S
Fe682 O688 2.002 . S
Fe682 O693 1.976 . S
Fe682 O696 1.996 . S
Fe683 O684 1.918 . S
Fe683 O691 1.997 . S
Fe683 O694 1.996 . S
Fe683 O698 1.976 . S
Fe683 O701 2.002 . S
O684 Fe682 1.918 . S
O684 Fe683 1.918 . S
O684 Fe685 1.918 . S
Fe685 O684 1.918 . S
Fe685 O686 2.002 . S
Fe685 O695 1.976 . S
Fe685 O699 1.996 . S
Fe685 O702 1.997 . S
O686 Fe685 2.002 . S
O686 C703 1.295 . S
O687 Fe682 1.997 . S
O687 C703 1.235 . S
O688 Fe682 2.002 . S
O688 C689 1.295 . S
C689 O688 1.295 . S
C689 O691 1.235 . S
C690 O695 1.287 . S
C690 O696 1.255 . S
O691 Fe683 1.997 . S
O691 C689 1.235 . S
C692 O698 1.287 . S
C692 O699 1.255 . S
O693 Fe682 1.976 . S
O693 C700 1.287 . S
O694 Fe683 1.996 . S
O694 C700 1.255 . S
O695 Fe685 1.976 . S
O695 C690 1.287 . S
O696 Fe682 1.996 . S
O696 C690 1.255 . S
C697 O701 1.295 . S
C697 O702 1.235 . S
O698 Fe683 1.976 . S
O698 C692 1.287 . S
O699 Fe685 1.996 . S
O699 C692 1.255 . S
C700 O693 1.287 . S
C700 O694 1.255 . S
O701 Fe683 2.002 . S
O701 C697 1.295 . S
O702 Fe685 1.997 . S
O702 C697 1.235 . S
C703 O686 1.295 . S
C703 O687 1.235 . S
H704 C712 0.950 . S
H705 C717 0.950 . S
H706 C714 0.950 . S
H707 C716 0.950 . S
H708 C718 0.950 . S
H709 C720 0.950 . S
H710 C722 0.950 . S
H711 C723 0.950 . S
C712 H704 0.950 . S
C712 C713 1.386 . S
C712 C714 1.391 . S
C713 C712 1.386 . S
C713 C717 1.393 . S
C714 H706 0.950 . S
C714 C712 1.391 . S
C714 C715 1.400 . S
C715 C714 1.400 . S
C715 C716 1.398 . S
C715 C721 1.491 . S
C716 H707 0.950 . S
C716 C715 1.398 . S
C716 C717 1.391 . S
C717 H705 0.950 . S
C717 C713 1.393 . S
C717 C716 1.391 . S
C718 H708 0.950 . S
C718 C719 1.386 . S
C718 C720 1.391 . S
C719 C718 1.386 . S
C719 C723 1.393 . S
C720 H709 0.950 . S
C720 C718 1.391 . S
C720 C721 1.400 . S
C721 C715 1.491 . S
C721 C720 1.400 . S
C721 C722 1.398 . S
C722 H710 0.950 . S
C722 C721 1.398 . S
C722 C723 1.391 . S
C723 H711 0.950 . S
C723 C719 1.393 . S
C723 C722 1.391 . S
H724 C732 0.950 . S
H725 C737 0.950 . S
H726 C734 0.950 . S
H727 C736 0.950 . S
H728 C738 0.950 . S
H729 C740 0.950 . S
H730 C742 0.950 . S
H731 C743 0.950 . S
C732 H724 0.950 . S
C732 C733 1.386 . S
C732 C734 1.391 . S
C733 C732 1.386 . S
C733 C737 1.393 . S
C734 H726 0.950 . S
C734 C732 1.391 . S
C734 C735 1.400 . S
C735 C734 1.400 . S
C735 C736 1.398 . S
C735 C741 1.491 . S
C736 H727 0.950 . S
C736 C735 1.398 . S
C736 C737 1.391 . S
C737 H725 0.950 . S
C737 C733 1.393 . S
C737 C736 1.391 . S
C738 H728 0.950 . S
C738 C739 1.386 . S
C738 C740 1.391 . S
C739 C738 1.386 . S
C739 C743 1.393 . S
C740 H729 0.950 . S
C740 C738 1.391 . S
C740 C741 1.400 . S
C741 C735 1.491 . S
C741 C740 1.400 . S
C741 C742 1.398 . S
C742 H730 0.950 . S
C742 C741 1.398 . S
C742 C743 1.391 . S
C743 H731 0.950 . S
C743 C739 1.393 . S
C743 C742 1.391 . S
H744 C752 0.950 . S
H745 C757 0.950 . S
H746 C754 0.950 . S
H747 C756 0.950 . S
H748 C758 0.950 . S
H749 C760 0.950 . S
H750 C762 0.950 . S
H751 C763 0.950 . S
C752 H744 0.950 . S
C752 C753 1.386 . S
C752 C754 1.391 . S
C753 C752 1.386 . S
C753 C757 1.393 . S
C754 H746 0.950 . S
C754 C752 1.391 . S
C754 C755 1.400 . S
C755 C754 1.400 . S
C755 C756 1.398 . S
C755 C761 1.491 . S
C756 H747 0.950 . S
C756 C755 1.398 . S
C756 C757 1.391 . S
C757 H745 0.950 . S
C757 C753 1.393 . S
C757 C756 1.391 . S
C758 H748 0.950 . S
C758 C759 1.386 . S
C758 C760 1.391 . S
C759 C758 1.386 . S
C759 C763 1.393 . S
C760 H749 0.950 . S
C760 C758 1.391 . S
C760 C761 1.400 . S
C761 C755 1.491 . S
C761 C760 1.400 . S
C761 C762 1.398 . S
C762 H750 0.950 . S
C762 C761 1.398 . S
C762 C763 1.391 . S
C763 H751 0.950 . S
C763 C759 1.393 . S
C763 C762 1.391 . S
H764 C772 0.950 . S
H765 C777 0.950 . S
H766 C774 0.950 . S
H767 C776 0.950 . S
H768 C778 0.950 . S
H769 C780 0.950 . S
H770 C782 0.950 . S
H771 C783 0.950 . S
C772 H764 0.950 . S
C772 C773 1.386 . S
C772 C774 1.391 . S
C773 C772 1.386 . S
C773 C777 1.393 . S
C774 H766 0.950 . S
C774 C772 1.391 . S
C774 C775 1.400 . S
C775 C774 1.400 . S
C775 C776 1.398 . S
C775 C781 1.491 . S
C776 H767 0.950 . S
C776 C775 1.398 . S
C776 C777 1.391 . S
C777 H765 0.950 . S
C777 C773 1.393 . S
C777 C776 1.391 . S
C778 H768 0.950 . S
C778 C779 1.386 . S
C778 C780 1.391 . S
C779 C778 1.386 . S
C779 C783 1.393 . S
C780 H769 0.950 . S
C780 C778 1.391 . S
C780 C781 1.400 . S
C781 C775 1.491 . S
C781 C780 1.400 . S
C781 C782 1.398 . S
C782 H770 0.950 . S
C782 C781 1.398 . S
C782 C783 1.391 . S
C783 H771 0.950 . S
C783 C779 1.393 . S
C783 C782 1.391 . S
H784 C792 0.950 . S
H785 C797 0.950 . S
H786 C794 0.950 . S
H787 C796 0.950 . S
H788 C798 0.950 . S
H789 C800 0.950 . S
H790 C802 0.950 . S
H791 C803 0.950 . S
C792 H784 0.950 . S
C792 C793 1.386 . S
C792 C794 1.391 . S
C793 C792 1.386 . S
C793 C797 1.393 . S
C794 H786 0.950 . S
C794 C792 1.391 . S
C794 C795 1.400 . S
C795 C794 1.400 . S
C795 C796 1.398 . S
C795 C801 1.491 . S
C796 H787 0.950 . S
C796 C795 1.398 . S
C796 C797 1.391 . S
C797 H785 0.950 . S
C797 C793 1.393 . S
C797 C796 1.391 . S
C798 H788 0.950 . S
C798 C799 1.386 . S
C798 C800 1.391 . S
C799 C798 1.386 . S
C799 C803 1.393 . S
C800 H789 0.950 . S
C800 C798 1.391 . S
C800 C801 1.400 . S
C801 C795 1.491 . S
C801 C800 1.400 . S
C801 C802 1.398 . S
C802 H790 0.950 . S
C802 C801 1.398 . S
C802 C803 1.391 . S
C803 H791 0.950 . S
C803 C799 1.393 . S
C803 C802 1.391 . S
H804 C812 0.950 . S
H805 C817 0.950 . S
H806 C814 0.950 . S
H807 C816 0.950 . S
H808 C818 0.950 . S
H809 C820 0.950 . S
H810 C822 0.950 . S
H811 C823 0.950 . S
C812 H804 0.950 . S
C812 C813 1.386 . S
C812 C814 1.391 . S
C813 C812 1.386 . S
C813 C817 1.393 . S
C814 H806 0.950 . S
C814 C812 1.391 . S
C814 C815 1.400 . S
C815 C814 1.400 . S
C815 C816 1.398 . S
C815 C821 1.491 . S
C816 H807 0.950 . S
C816 C815 1.398 . S
C816 C817 1.391 . S
C817 H805 0.950 . S
C817 C813 1.393 . S
C817 C816 1.391 . S
C818 H808 0.950 . S
C818 C819 1.386 . S
C818 C820 1.391 . S
C819 C818 1.386 . S
C819 C823 1.393 . S
C820 H809 0.950 . S
C820 C818 1.391 . S
C820 C821 1.400 . S
C821 C815 1.491 . S
C821 C820 1.400 . S
C821 C822 1.398 . S
C822 H810 0.950 . S
C822 C821 1.398 . S
C822 C823 1.391 . S
C823 H811 0.950 . S
C823 C819 1.393 . S
C823 C822 1.391 . S
H824 C832 0.950 . S
H825 C837 0.950 . S
H826 C834 0.950 . S
H827 C836 0.950 . S
H828 C838 0.950 . S
H829 C840 0.950 . S
H830 C842 0.950 . S
H831 C843 0.950 . S
C832 H824 0.950 . S
C832 C833 1.386 . S
C832 C834 1.391 . S
C833 C832 1.386 . S
C833 C837 1.393 . S
C834 H826 0.950 . S
C834 C832 1.391 . S
C834 C835 1.400 . S
C835 C834 1.400 . S
C835 C836 1.398 . S
C835 C841 1.491 . S
C836 H827 0.950 . S
C836 C835 1.398 . S
C836 C837 1.391 . S
C837 H825 0.950 . S
C837 C833 1.393 . S
C837 C836 1.391 . S
C838 H828 0.950 . S
C838 C839 1.386 . S
C838 C840 1.391 . S
C839 C838 1.386 . S
C839 C843 1.393 . S
C840 H829 0.950 . S
C840 C838 1.391 . S
C840 C841 1.400 . S
C841 C835 1.491 . S
C841 C840 1.400 . S
C841 C842 1.398 . S
C842 H830 0.950 . S
C842 C841 1.398 . S
C842 C843 1.391 . S
C843 H831 0.950 . S
C843 C839 1.393 . S
C843 C842 1.391 . S
H844 C852 0.950 . S
H845 C857 0.950 . S
H846 C854 0.950 . S
H847 C856 0.950 . S
H848 C858 0.950 . S
H849 C860 0.950 . S
H850 C862 0.950 . S
H851 C863 0.950 . S
C852 H844 0.950 . S
C852 C853 1.386 . S
C852 C854 1.391 . S
C853 C852 1.386 . S
C853 C857 1.393 . S
C854 H846 0.950 . S
C854 C852 1.391 . S
C854 C855 1.400 . S
C855 C854 1.400 . S
C855 C856 1.398 . S
C855 C861 1.491 . S
C856 H847 0.950 . S
C856 C855 1.398 . S
C856 C857 1.391 . S
C857 H845 0.950 . S
C857 C853 1.393 . S
C857 C856 1.391 . S
C858 H848 0.950 . S
C858 C859 1.386 . S
C858 C860 1.391 . S
C859 C858 1.386 . S
C859 C863 1.393 . S
C860 H849 0.950 . S
C860 C858 1.391 . S
C860 C861 1.400 . S
C861 C855 1.491 . S
C861 C860 1.400 . S
C861 C862 1.398 . S
C862 H850 0.950 . S
C862 C861 1.398 . S
C862 C863 1.391 . S
C863 H851 0.950 . S
C863 C859 1.393 . S
C863 C862 1.391 . S
H864 C872 0.950 . S
H865 C877 0.950 . S
H866 C874 0.950 . S
H867 C876 0.950 . S
H868 C878 0.950 . S
H869 C880 0.950 . S
H870 C882 0.950 . S
H871 C883 0.950 . S
C872 H864 0.950 . S
C872 C873 1.386 . S
C872 C874 1.391 . S
C873 C872 1.386 . S
C873 C877 1.393 . S
C874 H866 0.950 . S
C874 C872 1.391 . S
C874 C875 1.400 . S
C875 C874 1.400 . S
C875 C876 1.398 . S
C875 C881 1.491 . S
C876 H867 0.950 . S
C876 C875 1.398 . S
C876 C877 1.391 . S
C877 H865 0.950 . S
C877 C873 1.393 . S
C877 C876 1.391 . S
C878 H868 0.950 . S
C878 C879 1.386 . S
C878 C880 1.391 . S
C879 C878 1.386 . S
C879 C883 1.393 . S
C880 H869 0.950 . S
C880 C878 1.391 . S
C880 C881 1.400 . S
C881 C875 1.491 . S
C881 C880 1.400 . S
C881 C882 1.398 . S
C882 H870 0.950 . S
C882 C881 1.398 . S
C882 C883 1.391 . S
C883 H871 0.950 . S
C883 C879 1.393 . S
C883 C882 1.391 . S
H884 C892 0.950 . S
H885 C897 0.950 . S
H886 C894 0.950 . S
H887 C896 0.950 . S
H888 C898 0.950 . S
H889 C900 0.950 . S
H890 C902 0.950 . S
H891 C903 0.950 . S
C892 H884 0.950 . S
C892 C893 1.386 . S
C892 C894 1.391 . S
C893 C892 1.386 . S
C893 C897 1.393 . S
C894 H886 0.950 . S
C894 C892 1.391 . S
C894 C895 1.400 . S
C895 C894 1.400 . S
C895 C896 1.398 . S
C895 C901 1.491 . S
C896 H887 0.950 . S
C896 C895 1.398 . S
C896 C897 1.391 . S
C897 H885 0.950 . S
C897 C893 1.393 . S
C897 C896 1.391 . S
C898 H888 0.950 . S
C898 C899 1.386 . S
C898 C900 1.391 . S
C899 C898 1.386 . S
C899 C903 1.393 . S
C900 H889 0.950 . S
C900 C898 1.391 . S
C900 C901 1.400 . S
C901 C895 1.491 . S
C901 C900 1.400 . S
C901 C902 1.398 . S
C902 H890 0.950 . S
C902 C901 1.398 . S
C902 C903 1.391 . S
C903 H891 0.950 . S
C903 C899 1.393 . S
C903 C902 1.391 . S
H904 C912 0.950 . S
H905 C917 0.950 . S
H906 C914 0.950 . S
H907 C916 0.950 . S
H908 C918 0.950 . S
H909 C920 0.950 . S
H910 C922 0.950 . S
H911 C923 0.950 . S
C912 H904 0.950 . S
C912 C913 1.386 . S
C912 C914 1.391 . S
C913 C912 1.386 . S
C913 C917 1.393 . S
C914 H906 0.950 . S
C914 C912 1.391 . S
C914 C915 1.400 . S
C915 C914 1.400 . S
C915 C916 1.398 . S
C915 C921 1.491 . S
C916 H907 0.950 . S
C916 C915 1.398 . S
C916 C917 1.391 . S
C917 H905 0.950 . S
C917 C913 1.393 . S
C917 C916 1.391 . S
C918 H908 0.950 . S
C918 C919 1.386 . S
C918 C920 1.391 . S
C919 C918 1.386 . S
C919 C923 1.393 . S
C920 H909 0.950 . S
C920 C918 1.391 . S
C920 C921 1.400 . S
C921 C915 1.491 . S
C921 C920 1.400 . S
C921 C922 1.398 . S
C922 H910 0.950 . S
C922 C921 1.398 . S
C922 C923 1.391 . S
C923 H911 0.950 . S
C923 C919 1.393 . S
C923 C922 1.391 . S
H924 C932 0.950 . S
H925 C937 0.950 . S
H926 C934 0.950 . S
H927 C936 0.950 . S
H928 C938 0.950 . S
H929 C940 0.950 . S
H930 C942 0.950 . S
H931 C943 0.950 . S
C932 H924 0.950 . S
C932 C933 1.386 . S
C932 C934 1.391 . S
C933 C932 1.386 . S
C933 C937 1.393 . S
C934 H926 0.950 . S
C934 C932 1.391 . S
C934 C935 1.400 . S
C935 C934 1.400 . S
C935 C936 1.398 . S
C935 C941 1.491 . S
C936 H927 0.950 . S
C936 C935 1.398 . S
C936 C937 1.391 . S
C937 H925 0.950 . S
C937 C933 1.393 . S
C937 C936 1.391 . S
C938 H928 0.950 . S
C938 C939 1.386 . S
C938 C940 1.391 . S
C939 C938 1.386 . S
C939 C943 1.393 . S
C940 H929 0.950 . S
C940 C938 1.391 . S
C940 C941 1.400 . S
C941 C935 1.491 . S
C941 C940 1.400 . S
C941 C942 1.398 . S
C942 H930 0.950 . S
C942 C941 1.398 . S
C942 C943 1.391 . S
C943 H931 0.950 . S
C943 C939 1.393 . S
C943 C942 1.391 . S
H944 C952 0.950 . S
H945 C957 0.950 . S
H946 C954 0.950 . S
H947 C956 0.950 . S
H948 C958 0.950 . S
H949 C960 0.950 . S
H950 C962 0.950 . S
H951 C963 0.950 . S
C952 H944 0.950 . S
C952 C953 1.386 . S
C952 C954 1.391 . S
C953 C952 1.386 . S
C953 C957 1.393 . S
C954 H946 0.950 . S
C954 C952 1.391 . S
C954 C955 1.400 . S
C955 C954 1.400 . S
C955 C956 1.398 . S
C955 C961 1.491 . S
C956 H947 0.950 . S
C956 C955 1.398 . S
C956 C957 1.391 . S
C957 H945 0.950 . S
C957 C953 1.393 . S
C957 C956 1.391 . S
C958 H948 0.950 . S
C958 C959 1.386 . S
C958 C960 1.391 . S
C959 C958 1.386 . S
C959 C963 1.393 . S
C960 H949 0.950 . S
C960 C958 1.391 . S
C960 C961 1.400 . S
C961 C955 1.491 . S
C961 C960 1.400 . S
C961 C962 1.398 . S
C962 H950 0.950 . S
C962 C961 1.398 . S
C962 C963 1.391 . S
C963 H951 0.950 . S
C963 C959 1.393 . S
C963 C962 1.391 . S
H964 C972 0.950 . S
H965 C977 0.950 . S
H966 C974 0.950 . S
H967 C976 0.950 . S
H968 C978 0.950 . S
H969 C980 0.950 . S
H970 C982 0.950 . S
H971 C983 0.950 . S
C972 H964 0.950 . S
C972 C973 1.386 . S
C972 C974 1.391 . S
C973 C972 1.386 . S
C973 C977 1.393 . S
C974 H966 0.950 . S
C974 C972 1.391 . S
C974 C975 1.400 . S
C975 C974 1.400 . S
C975 C976 1.398 . S
C975 C981 1.491 . S
C976 H967 0.950 . S
C976 C975 1.398 . S
C976 C977 1.391 . S
C977 H965 0.950 . S
C977 C973 1.393 . S
C977 C976 1.391 . S
C978 H968 0.950 . S
C978 C979 1.386 . S
C978 C980 1.391 . S
C979 C978 1.386 . S
C979 C983 1.393 . S
C980 H969 0.950 . S
C980 C978 1.391 . S
C980 C981 1.400 . S
C981 C975 1.491 . S
C981 C980 1.400 . S
C981 C982 1.398 . S
C982 H970 0.950 . S
C982 C981 1.398 . S
C982 C983 1.391 . S
C983 H971 0.950 . S
C983 C979 1.393 . S
C983 C982 1.391 . S
H984 C992 0.950 . S
H985 C997 0.950 . S
H986 C994 0.950 . S
H987 C996 0.950 . S
H988 C998 0.950 . S
H989 C1000 0.950 . S
H990 C1002 0.950 . S
H991 C1003 0.950 . S
C992 H984 0.950 . S
C992 C993 1.386 . S
C992 C994 1.391 . S
C993 C992 1.386 . S
C993 C997 1.393 . S
C994 H986 0.950 . S
C994 C992 1.391 . S
C994 C995 1.400 . S
C995 C994 1.400 . S
C995 C996 1.398 . S
C995 C1001 1.491 . S
C996 H987 0.950 . S
C996 C995 1.398 . S
C996 C997 1.391 . S
C997 H985 0.950 . S
C997 C993 1.393 . S
C997 C996 1.391 . S
C998 H988 0.950 . S
C998 C999 1.386 . S
C998 C1000 1.391 . S
C999 C998 1.386 . S
C999 C1003 1.393 . S
C1000 H989 0.950 . S
C1000 C998 1.391 . S
C1000 C1001 1.400 . S
C1001 C995 1.491 . S
C1001 C1000 1.400 . S
C1001 C1002 1.398 . S
C1002 H990 0.950 . S
C1002 C1001 1.398 . S
C1002 C1003 1.391 . S
C1003 H991 0.950 . S
C1003 C999 1.393 . S
C1003 C1002 1.391 . S
H1004 C1012 0.950 . S
H1005 C1017 0.950 . S
H1006 C1014 0.950 . S
H1007 C1016 0.950 . S
H1008 C1018 0.950 . S
H1009 C1020 0.950 . S
H1010 C1022 0.950 . S
H1011 C1023 0.950 . S
C1012 H1004 0.950 . S
C1012 C1013 1.386 . S
C1012 C1014 1.391 . S
C1013 C1012 1.386 . S
C1013 C1017 1.393 . S
C1014 H1006 0.950 . S
C1014 C1012 1.391 . S
C1014 C1015 1.400 . S
C1015 C1014 1.400 . S
C1015 C1016 1.398 . S
C1015 C1021 1.491 . S
C1016 H1007 0.950 . S
C1016 C1015 1.398 . S
C1016 C1017 1.391 . S
C1017 H1005 0.950 . S
C1017 C1013 1.393 . S
C1017 C1016 1.391 . S
C1018 H1008 0.950 . S
C1018 C1019 1.386 . S
C1018 C1020 1.391 . S
C1019 C1018 1.386 . S
C1019 C1023 1.393 . S
C1020 H1009 0.950 . S
C1020 C1018 1.391 . S
C1020 C1021 1.400 . S
C1021 C1015 1.491 . S
C1021 C1020 1.400 . S
C1021 C1022 1.398 . S
C1022 H1010 0.950 . S
C1022 C1021 1.398 . S
C1022 C1023 1.391 . S
C1023 H1011 0.950 . S
C1023 C1019 1.393 . S
C1023 C1022 1.391 . S
H1024 C1032 0.950 . S
H1025 C1037 0.950 . S
H1026 C1034 0.950 . S
H1027 C1036 0.950 . S
H1028 C1038 0.950 . S
H1029 C1040 0.950 . S
H1030 C1042 0.950 . S
H1031 C1043 0.950 . S
C1032 H1024 0.950 . S
C1032 C1033 1.386 . S
C1032 C1034 1.391 . S
C1033 C1032 1.386 . S
C1033 C1037 1.393 . S
C1034 H1026 0.950 . S
C1034 C1032 1.391 . S
C1034 C1035 1.400 . S
C1035 C1034 1.400 . S
C1035 C1036 1.398 . S
C1035 C1041 1.491 . S
C1036 H1027 0.950 . S
C1036 C1035 1.398 . S
C1036 C1037 1.391 . S
C1037 H1025 0.950 . S
C1037 C1033 1.393 . S
C1037 C1036 1.391 . S
C1038 H1028 0.950 . S
C1038 C1039 1.386 . S
C1038 C1040 1.391 . S
C1039 C1038 1.386 . S
C1039 C1043 1.393 . S
C1040 H1029 0.950 . S
C1040 C1038 1.391 . S
C1040 C1041 1.400 . S
C1041 C1035 1.491 . S
C1041 C1040 1.400 . S
C1041 C1042 1.398 . S
C1042 H1030 0.950 . S
C1042 C1041 1.398 . S
C1042 C1043 1.391 . S
C1043 H1031 0.950 . S
C1043 C1039 1.393 . S
C1043 C1042 1.391 . S
H1044 C1052 0.950 . S
H1045 C1057 0.950 . S
H1046 C1054 0.950 . S
H1047 C1056 0.950 . S
H1048 C1058 0.950 . S
H1049 C1060 0.950 . S
H1050 C1062 0.950 . S
H1051 C1063 0.950 . S
C1052 H1044 0.950 . S
C1052 C1053 1.386 . S
C1052 C1054 1.391 . S
C1053 C1052 1.386 . S
C1053 C1057 1.393 . S
C1054 H1046 0.950 . S
C1054 C1052 1.391 . S
C1054 C1055 1.400 . S
C1055 C1054 1.400 . S
C1055 C1056 1.398 . S
C1055 C1061 1.491 . S
C1056 H1047 0.950 . S
C1056 C1055 1.398 . S
C1056 C1057 1.391 . S
C1057 H1045 0.950 . S
C1057 C1053 1.393 . S
C1057 C1056 1.391 . S
C1058 H1048 0.950 . S
C1058 C1059 1.386 . S
C1058 C1060 1.391 . S
C1059 C1058 1.386 . S
C1059 C1063 1.393 . S
C1060 H1049 0.950 . S
C1060 C1058 1.391 . S
C1060 C1061 1.400 . S
C1061 C1055 1.491 . S
C1061 C1060 1.400 . S
C1061 C1062 1.398 . S
C1062 H1050 0.950 . S
C1062 C1061 1.398 . S
C1062 C1063 1.391 . S
C1063 H1051 0.950 . S
C1063 C1059 1.393 . S
C1063 C1062 1.391 . S
H1064 C1072 0.950 . S
H1065 C1077 0.950 . S
H1066 C1074 0.950 . S
H1067 C1076 0.950 . S
H1068 C1078 0.950 . S
H1069 C1080 0.950 . S
H1070 C1082 0.950 . S
H1071 C1083 0.950 . S
C1072 H1064 0.950 . S
C1072 C1073 1.386 . S
C1072 C1074 1.391 . S
C1073 C1072 1.386 . S
C1073 C1077 1.393 . S
C1074 H1066 0.950 . S
C1074 C1072 1.391 . S
C1074 C1075 1.400 . S
C1075 C1074 1.400 . S
C1075 C1076 1.398 . S
C1075 C1081 1.491 . S
C1076 H1067 0.950 . S
C1076 C1075 1.398 . S
C1076 C1077 1.391 . S
C1077 H1065 0.950 . S
C1077 C1073 1.393 . S
C1077 C1076 1.391 . S
C1078 H1068 0.950 . S
C1078 C1079 1.386 . S
C1078 C1080 1.391 . S
C1079 C1078 1.386 . S
C1079 C1083 1.393 . S
C1080 H1069 0.950 . S
C1080 C1078 1.391 . S
C1080 C1081 1.400 . S
C1081 C1075 1.491 . S
C1081 C1080 1.400 . S
C1081 C1082 1.398 . S
C1082 H1070 0.950 . S
C1082 C1081 1.398 . S
C1082 C1083 1.391 . S
C1083 H1071 0.950 . S
C1083 C1079 1.393 . S
C1083 C1082 1.391 . S
H1084 C1092 0.950 . S
H1085 C1097 0.950 . S
H1086 C1094 0.950 . S
H1087 C1096 0.950 . S
H1088 C1098 0.950 . S
H1089 C1100 0.950 . S
H1090 C1102 0.950 . S
H1091 C1103 0.950 . S
C1092 H1084 0.950 . S
C1092 C1093 1.386 . S
C1092 C1094 1.391 . S
C1093 C1092 1.386 . S
C1093 C1097 1.393 . S
C1094 H1086 0.950 . S
C1094 C1092 1.391 . S
C1094 C1095 1.400 . S
C1095 C1094 1.400 . S
C1095 C1096 1.398 . S
C1095 C1101 1.491 . S
C1096 H1087 0.950 . S
C1096 C1095 1.398 . S
C1096 C1097 1.391 . S
C1097 H1085 0.950 . S
C1097 C1093 1.393 . S
C1097 C1096 1.391 . S
C1098 H1088 0.950 . S
C1098 C1099 1.386 . S
C1098 C1100 1.391 . S
C1099 C1098 1.386 . S
C1099 C1103 1.393 . S
C1100 H1089 0.950 . S
C1100 C1098 1.391 . S
C1100 C1101 1.400 . S
C1101 C1095 1.491 . S
C1101 C1100 1.400 . S
C1101 C1102 1.398 . S
C1102 H1090 0.950 . S
C1102 C1101 1.398 . S
C1102 C1103 1.391 . S
C1103 H1091 0.950 . S
C1103 C1099 1.393 . S
C1103 C1102 1.391 . S
H1104 C1112 0.950 . S
H1105 C1117 0.950 . S
H1106 C1114 0.950 . S
H1107 C1116 0.950 . S
H1108 C1118 0.950 . S
H1109 C1120 0.950 . S
H1110 C1122 0.950 . S
H1111 C1123 0.950 . S
C1112 H1104 0.950 . S
C1112 C1113 1.386 . S
C1112 C1114 1.391 . S
C1113 C1112 1.386 . S
C1113 C1117 1.393 . S
C1114 H1106 0.950 . S
C1114 C1112 1.391 . S
C1114 C1115 1.400 . S
C1115 C1114 1.400 . S
C1115 C1116 1.398 . S
C1115 C1121 1.491 . S
C1116 H1107 0.950 . S
C1116 C1115 1.398 . S
C1116 C1117 1.391 . S
C1117 H1105 0.950 . S
C1117 C1113 1.393 . S
C1117 C1116 1.391 . S
C1118 H1108 0.950 . S
C1118 C1119 1.386 . S
C1118 C1120 1.391 . S
C1119 C1118 1.386 . S
C1119 C1123 1.393 . S
C1120 H1109 0.950 . S
C1120 C1118 1.391 . S
C1120 C1121 1.400 . S
C1121 C1115 1.491 . S
C1121 C1120 1.400 . S
C1121 C1122 1.398 . S
C1122 H1110 0.950 . S
C1122 C1121 1.398 . S
C1122 C1123 1.391 . S
C1123 H1111 0.950 . S
C1123 C1119 1.393 . S
C1123 C1122 1.391 . S
H1124 C1132 0.950 . S
H1125 C1137 0.950 . S
H1126 C1134 0.950 . S
H1127 C1136 0.950 . S
H1128 C1138 0.950 . S
H1129 C1140 0.950 . S
H1130 C1142 0.950 . S
H1131 C1143 0.950 . S
C1132 H1124 0.950 . S
C1132 C1133 1.386 . S
C1132 C1134 1.391 . S
C1133 C1132 1.386 . S
C1133 C1137 1.393 . S
C1134 H1126 0.950 . S
C1134 C1132 1.391 . S
C1134 C1135 1.400 . S
C1135 C1134 1.400 . S
C1135 C1136 1.398 . S
C1135 C1141 1.491 . S
C1136 H1127 0.950 . S
C1136 C1135 1.398 . S
C1136 C1137 1.391 . S
C1137 H1125 0.950 . S
C1137 C1133 1.393 . S
C1137 C1136 1.391 . S
C1138 H1128 0.950 . S
C1138 C1139 1.386 . S
C1138 C1140 1.391 . S
C1139 C1138 1.386 . S
C1139 C1143 1.393 . S
C1140 H1129 0.950 . S
C1140 C1138 1.391 . S
C1140 C1141 1.400 . S
C1141 C1135 1.491 . S
C1141 C1140 1.400 . S
C1141 C1142 1.398 . S
C1142 H1130 0.950 . S
C1142 C1141 1.398 . S
C1142 C1143 1.391 . S
C1143 H1131 0.950 . S
C1143 C1139 1.393 . S
C1143 C1142 1.391 . S
H1144 C1152 0.950 . S
H1145 C1157 0.950 . S
H1146 C1154 0.950 . S
H1147 C1156 0.950 . S
H1148 C1158 0.950 . S
H1149 C1160 0.950 . S
H1150 C1162 0.950 . S
H1151 C1163 0.950 . S
C1152 H1144 0.950 . S
C1152 C1153 1.386 . S
C1152 C1154 1.391 . S
C1153 C1152 1.386 . S
C1153 C1157 1.393 . S
C1154 H1146 0.950 . S
C1154 C1152 1.391 . S
C1154 C1155 1.400 . S
C1155 C1154 1.400 . S
C1155 C1156 1.398 . S
C1155 C1161 1.491 . S
C1156 H1147 0.950 . S
C1156 C1155 1.398 . S
C1156 C1157 1.391 . S
C1157 H1145 0.950 . S
C1157 C1153 1.393 . S
C1157 C1156 1.391 . S
C1158 H1148 0.950 . S
C1158 C1159 1.386 . S
C1158 C1160 1.391 . S
C1159 C1158 1.386 . S
C1159 C1163 1.393 . S
C1160 H1149 0.950 . S
C1160 C1158 1.391 . S
C1160 C1161 1.400 . S
C1161 C1155 1.491 . S
C1161 C1160 1.400 . S
C1161 C1162 1.398 . S
C1162 H1150 0.950 . S
C1162 C1161 1.398 . S
C1162 C1163 1.391 . S
C1163 H1151 0.950 . S
C1163 C1159 1.393 . S
C1163 C1162 1.391 . S
H1164 C1172 0.950 . S
H1165 C1177 0.950 . S
H1166 C1174 0.950 . S
H1167 C1176 0.950 . S
H1168 C1178 0.950 . S
H1169 C1180 0.950 . S
H1170 C1182 0.950 . S
H1171 C1183 0.950 . S
C1172 H1164 0.950 . S
C1172 C1173 1.386 . S
C1172 C1174 1.391 . S
C1173 C1172 1.386 . S
C1173 C1177 1.393 . S
C1174 H1166 0.950 . S
C1174 C1172 1.391 . S
C1174 C1175 1.400 . S
C1175 C1174 1.400 . S
C1175 C1176 1.398 . S
C1175 C1181 1.491 . S
C1176 H1167 0.950 . S
C1176 C1175 1.398 . S
C1176 C1177 1.391 . S
C1177 H1165 0.950 . S
C1177 C1173 1.393 . S
C1177 C1176 1.391 . S
C1178 H1168 0.950 . S
C1178 C1179 1.386 . S
C1178 C1180 1.391 . S
C1179 C1178 1.386 . S
C1179 C1183 1.393 . S
C1180 H1169 0.950 . S
C1180 C1178 1.391 . S
C1180 C1181 1.400 . S
C1181 C1175 1.491 . S
C1181 C1180 1.400 . S
C1181 C1182 1.398 . S
C1182 H1170 0.950 . S
C1182 C1181 1.398 . S
C1182 C1183 1.391 . S
C1183 H1171 0.950 . S
C1183 C1179 1.393 . S
C1183 C1182 1.391 . S
H1184 C1192 0.950 . S
H1185 C1197 0.950 . S
H1186 C1194 0.950 . S
H1187 C1196 0.950 . S
H1188 C1198 0.950 . S
H1189 C1200 0.950 . S
H1190 C1202 0.950 . S
H1191 C1203 0.950 . S
C1192 H1184 0.950 . S
C1192 C1193 1.386 . S
C1192 C1194 1.391 . S
C1193 C1192 1.386 . S
C1193 C1197 1.393 . S
C1194 H1186 0.950 . S
C1194 C1192 1.391 . S
C1194 C1195 1.400 . S
C1195 C1194 1.400 . S
C1195 C1196 1.398 . S
C1195 C1201 1.491 . S
C1196 H1187 0.950 . S
C1196 C1195 1.398 . S
C1196 C1197 1.391 . S
C1197 H1185 0.950 . S
C1197 C1193 1.393 . S
C1197 C1196 1.391 . S
C1198 H1188 0.950 . S
C1198 C1199 1.386 . S
C1198 C1200 1.391 . S
C1199 C1198 1.386 . S
C1199 C1203 1.393 . S
C1200 H1189 0.950 . S
C1200 C1198 1.391 . S
C1200 C1201 1.400 . S
C1201 C1195 1.491 . S
C1201 C1200 1.400 . S
C1201 C1202 1.398 . S
C1202 H1190 0.950 . S
C1202 C1201 1.398 . S
C1202 C1203 1.391 . S
C1203 H1191 0.950 . S
C1203 C1199 1.393 . S
C1203 C1202 1.391 . S
H1204 C1212 0.950 . S
H1205 C1217 0.950 . S
H1206 C1214 0.950 . S
H1207 C1216 0.950 . S
H1208 C1218 0.950 . S
H1209 C1220 0.950 . S
H1210 C1222 0.950 . S
H1211 C1223 0.950 . S
C1212 H1204 0.950 . S
C1212 C1213 1.386 . S
C1212 C1214 1.391 . S
C1213 C1212 1.386 . S
C1213 C1217 1.393 . S
C1214 H1206 0.950 . S
C1214 C1212 1.391 . S
C1214 C1215 1.400 . S
C1215 C1214 1.400 . S
C1215 C1216 1.398 . S
C1215 C1221 1.491 . S
C1216 H1207 0.950 . S
C1216 C1215 1.398 . S
C1216 C1217 1.391 . S
C1217 H1205 0.950 . S
C1217 C1213 1.393 . S
C1217 C1216 1.391 . S
C1218 H1208 0.950 . S
C1218 C1219 1.386 . S
C1218 C1220 1.391 . S
C1219 C1218 1.386 . S
C1219 C1223 1.393 . S
C1220 H1209 0.950 . S
C1220 C1218 1.391 . S
C1220 C1221 1.400 . S
C1221 C1215 1.491 . S
C1221 C1220 1.400 . S
C1221 C1222 1.398 . S
C1222 H1210 0.950 . S
C1222 C1221 1.398 . S
C1222 C1223 1.391 . S
C1223 H1211 0.950 . S
C1223 C1219 1.393 . S
C1223 C1222 1.391 . S
H1224 C1232 0.950 . S
H1225 C1237 0.950 . S
H1226 C1234 0.950 . S
H1227 C1236 0.950 . S
H1228 C1238 0.950 . S
H1229 C1240 0.950 . S
H1230 C1242 0.950 . S
H1231 C1243 0.950 . S
C1232 H1224 0.950 . S
C1232 C1233 1.386 . S
C1232 C1234 1.391 . S
C1233 C1232 1.386 . S
C1233 C1237 1.393 . S
C1234 H1226 0.950 . S
C1234 C1232 1.391 . S
C1234 C1235 1.400 . S
C1235 C1234 1.400 . S
C1235 C1236 1.398 . S
C1235 C1241 1.491 . S
C1236 H1227 0.950 . S
C1236 C1235 1.398 . S
C1236 C1237 1.391 . S
C1237 H1225 0.950 . S
C1237 C1233 1.393 . S
C1237 C1236 1.391 . S
C1238 H1228 0.950 . S
C1238 C1239 1.386 . S
C1238 C1240 1.391 . S
C1239 C1238 1.386 . S
C1239 C1243 1.393 . S
C1240 H1229 0.950 . S
C1240 C1238 1.391 . S
C1240 C1241 1.400 . S
C1241 C1235 1.491 . S
C1241 C1240 1.400 . S
C1241 C1242 1.398 . S
C1242 H1230 0.950 . S
C1242 C1241 1.398 . S
C1242 C1243 1.391 . S
C1243 H1231 0.950 . S
C1243 C1239 1.393 . S
C1243 C1242 1.391 . S
H1244 C1252 0.950 . S
H1245 C1257 0.950 . S
H1246 C1254 0.950 . S
H1247 C1256 0.950 . S
H1248 C1258 0.950 . S
H1249 C1260 0.950 . S
H1250 C1262 0.950 . S
H1251 C1263 0.950 . S
C1252 H1244 0.950 . S
C1252 C1253 1.386 . S
C1252 C1254 1.391 . S
C1253 C1252 1.386 . S
C1253 C1257 1.393 . S
C1254 H1246 0.950 . S
C1254 C1252 1.391 . S
C1254 C1255 1.400 . S
C1255 C1254 1.400 . S
C1255 C1256 1.398 . S
C1255 C1261 1.491 . S
C1256 H1247 0.950 . S
C1256 C1255 1.398 . S
C1256 C1257 1.391 . S
C1257 H1245 0.950 . S
C1257 C1253 1.393 . S
C1257 C1256 1.391 . S
C1258 H1248 0.950 . S
C1258 C1259 1.386 . S
C1258 C1260 1.391 . S
C1259 C1258 1.386 . S
C1259 C1263 1.393 . S
C1260 H1249 0.950 . S
C1260 C1258 1.391 . S
C1260 C1261 1.400 . S
C1261 C1255 1.491 . S
C1261 C1260 1.400 . S
C1261 C1262 1.398 . S
C1262 H1250 0.950 . S
C1262 C1261 1.398 . S
C1262 C1263 1.391 . S
C1263 H1251 0.950 . S
C1263 C1259 1.393 . S
C1263 C1262 1.391 . S
H1264 C1272 0.950 . S
H1265 C1277 0.950 . S
H1266 C1274 0.950 . S
H1267 C1276 0.950 . S
H1268 C1278 0.950 . S
H1269 C1280 0.950 . S
H1270 C1282 0.950 . S
H1271 C1283 0.950 . S
C1272 H1264 0.950 . S
C1272 C1273 1.386 . S
C1272 C1274 1.391 . S
C1273 C1272 1.386 . S
C1273 C1277 1.393 . S
C1274 H1266 0.950 . S
C1274 C1272 1.391 . S
C1274 C1275 1.400 . S
C1275 C1274 1.400 . S
C1275 C1276 1.398 . S
C1275 C1281 1.491 . S
C1276 H1267 0.950 . S
C1276 C1275 1.398 . S
C1276 C1277 1.391 . S
C1277 H1265 0.950 . S
C1277 C1273 1.393 . S
C1277 C1276 1.391 . S
C1278 H1268 0.950 . S
C1278 C1279 1.386 . S
C1278 C1280 1.391 . S
C1279 C1278 1.386 . S
C1279 C1283 1.393 . S
C1280 H1269 0.950 . S
C1280 C1278 1.391 . S
C1280 C1281 1.400 . S
C1281 C1275 1.491 . S
C1281 C1280 1.400 . S
C1281 C1282 1.398 . S
C1282 H1270 0.950 . S
C1282 C1281 1.398 . S
C1282 C1283 1.391 . S
C1283 H1271 0.950 . S
C1283 C1279 1.393 . S
C1283 C1282 1.391 . S
H1284 C1292 0.950 . S
H1285 C1297 0.950 . S
H1286 C1294 0.950 . S
H1287 C1296 0.950 . S
H1288 C1298 0.950 . S
H1289 C1300 0.950 . S
H1290 C1302 0.950 . S
H1291 C1303 0.950 . S
C1292 H1284 0.950 . S
C1292 C1293 1.386 . S
C1292 C1294 1.391 . S
C1293 C1292 1.386 . S
C1293 C1297 1.393 . S
C1294 H1286 0.950 . S
C1294 C1292 1.391 . S
C1294 C1295 1.400 . S
C1295 C1294 1.400 . S
C1295 C1296 1.398 . S
C1295 C1301 1.491 . S
C1296 H1287 0.950 . S
C1296 C1295 1.398 . S
C1296 C1297 1.391 . S
C1297 H1285 0.950 . S
C1297 C1293 1.393 . S
C1297 C1296 1.391 . S
C1298 H1288 0.950 . S
C1298 C1299 1.386 . S
C1298 C1300 1.391 . S
C1299 C1298 1.386 . S
C1299 C1303 1.393 . S
C1300 H1289 0.950 . S
C1300 C1298 1.391 . S
C1300 C1301 1.400 . S
C1301 C1295 1.491 . S
C1301 C1300 1.400 . S
C1301 C1302 1.398 . S
C1302 H1290 0.950 . S
C1302 C1301 1.398 . S
C1302 C1303 1.391 . S
C1303 H1291 0.950 . S
C1303 C1299 1.393 . S
C1303 C1302 1.391 . S
H1304 C1312 0.950 . S
H1305 C1317 0.950 . S
H1306 C1314 0.950 . S
H1307 C1316 0.950 . S
H1308 C1318 0.950 . S
H1309 C1320 0.950 . S
H1310 C1322 0.950 . S
H1311 C1323 0.950 . S
C1312 H1304 0.950 . S
C1312 C1313 1.386 . S
C1312 C1314 1.391 . S
C1313 C1312 1.386 . S
C1313 C1317 1.393 . S
C1314 H1306 0.950 . S
C1314 C1312 1.391 . S
C1314 C1315 1.400 . S
C1315 C1314 1.400 . S
C1315 C1316 1.398 . S
C1315 C1321 1.491 . S
C1316 H1307 0.950 . S
C1316 C1315 1.398 . S
C1316 C1317 1.391 . S
C1317 H1305 0.950 . S
C1317 C1313 1.393 . S
C1317 C1316 1.391 . S
C1318 H1308 0.950 . S
C1318 C1319 1.386 . S
C1318 C1320 1.391 . S
C1319 C1318 1.386 . S
C1319 C1323 1.393 . S
C1320 H1309 0.950 . S
C1320 C1318 1.391 . S
C1320 C1321 1.400 . S
C1321 C1315 1.491 . S
C1321 C1320 1.400 . S
C1321 C1322 1.398 . S
C1322 H1310 0.950 . S
C1322 C1321 1.398 . S
C1322 C1323 1.391 . S
C1323 H1311 0.950 . S
C1323 C1319 1.393 . S
C1323 C1322 1.391 . S
H1324 C1332 0.950 . S
H1325 C1337 0.950 . S
H1326 C1334 0.950 . S
H1327 C1336 0.950 . S
H1328 C1338 0.950 . S
H1329 C1340 0.950 . S
H1330 C1342 0.950 . S
H1331 C1343 0.950 . S
C1332 H1324 0.950 . S
C1332 C1333 1.386 . S
C1332 C1334 1.391 . S
C1333 C1332 1.386 . S
C1333 C1337 1.393 . S
C1334 H1326 0.950 . S
C1334 C1332 1.391 . S
C1334 C1335 1.400 . S
C1335 C1334 1.400 . S
C1335 C1336 1.398 . S
C1335 C1341 1.491 . S
C1336 H1327 0.950 . S
C1336 C1335 1.398 . S
C1336 C1337 1.391 . S
C1337 H1325 0.950 . S
C1337 C1333 1.393 . S
C1337 C1336 1.391 . S
C1338 H1328 0.950 . S
C1338 C1339 1.386 . S
C1338 C1340 1.391 . S
C1339 C1338 1.386 . S
C1339 C1343 1.393 . S
C1340 H1329 0.950 . S
C1340 C1338 1.391 . S
C1340 C1341 1.400 . S
C1341 C1335 1.491 . S
C1341 C1340 1.400 . S
C1341 C1342 1.398 . S
C1342 H1330 0.950 . S
C1342 C1341 1.398 . S
C1342 C1343 1.391 . S
C1343 H1331 0.950 . S
C1343 C1339 1.393 . S
C1343 C1342 1.391 . S
H1344 C1352 0.950 . S
H1345 C1357 0.950 . S
H1346 C1354 0.950 . S
H1347 C1356 0.950 . S
H1348 C1358 0.950 . S
H1349 C1360 0.950 . S
H1350 C1362 0.950 . S
H1351 C1363 0.950 . S
C1352 H1344 0.950 . S
C1352 C1353 1.386 . S
C1352 C1354 1.391 . S
C1353 C1352 1.386 . S
C1353 C1357 1.393 . S
C1354 H1346 0.950 . S
C1354 C1352 1.391 . S
C1354 C1355 1.400 . S
C1355 C1354 1.400 . S
C1355 C1356 1.398 . S
C1355 C1361 1.491 . S
C1356 H1347 0.950 . S
C1356 C1355 1.398 . S
C1356 C1357 1.391 . S
C1357 H1345 0.950 . S
C1357 C1353 1.393 . S
C1357 C1356 1.391 . S
C1358 H1348 0.950 . S
C1358 C1359 1.386 . S
C1358 C1360 1.391 . S
C1359 C1358 1.386 . S
C1359 C1363 1.393 . S
C1360 H1349 0.950 . S
C1360 C1358 1.391 . S
C1360 C1361 1.400 . S
C1361 C1355 1.491 . S
C1361 C1360 1.400 . S
C1361 C1362 1.398 . S
C1362 H1350 0.950 . S
C1362 C1361 1.398 . S
C1362 C1363 1.391 . S
C1363 H1351 0.950 . S
C1363 C1359 1.393 . S
C1363 C1362 1.391 . S
H1364 C1372 0.950 . S
H1365 C1377 0.950 . S
H1366 C1374 0.950 . S
H1367 C1376 0.950 . S
H1368 C1378 0.950 . S
H1369 C1380 0.950 . S
H1370 C1382 0.950 . S
H1371 C1383 0.950 . S
C1372 H1364 0.950 . S
C1372 C1373 1.386 . S
C1372 C1374 1.391 . S
C1373 C1372 1.386 . S
C1373 C1377 1.393 . S
C1374 H1366 0.950 . S
C1374 C1372 1.391 . S
C1374 C1375 1.400 . S
C1375 C1374 1.400 . S
C1375 C1376 1.398 . S
C1375 C1381 1.491 . S
C1376 H1367 0.950 . S
C1376 C1375 1.398 . S
C1376 C1377 1.391 . S
C1377 H1365 0.950 . S
C1377 C1373 1.393 . S
C1377 C1376 1.391 . S
C1378 H1368 0.950 . S
C1378 C1379 1.386 . S
C1378 C1380 1.391 . S
C1379 C1378 1.386 . S
C1379 C1383 1.393 . S
C1380 H1369 0.950 . S
C1380 C1378 1.391 . S
C1380 C1381 1.400 . S
C1381 C1375 1.491 . S
C1381 C1380 1.400 . S
C1381 C1382 1.398 . S
C1382 H1370 0.950 . S
C1382 C1381 1.398 . S
C1382 C1383 1.391 . S
C1383 H1371 0.950 . S
C1383 C1379 1.393 . S
C1383 C1382 1.391 . S
H1384 C1392 0.950 . S
H1385 C1397 0.950 . S
H1386 C1394 0.950 . S
H1387 C1396 0.950 . S
H1388 C1398 0.950 . S
H1389 C1400 0.950 . S
H1390 C1402 0.950 . S
H1391 C1403 0.950 . S
C1392 H1384 0.950 . S
C1392 C1393 1.386 . S
C1392 C1394 1.391 . S
C1393 C1392 1.386 . S
C1393 C1397 1.393 . S
C1394 H1386 0.950 . S
C1394 C1392 1.391 . S
C1394 C1395 1.400 . S
C1395 C1394 1.400 . S
C1395 C1396 1.398 . S
C1395 C1401 1.491 . S
C1396 H1387 0.950 . S
C1396 C1395 1.398 . S
C1396 C1397 1.391 . S
C1397 H1385 0.950 . S
C1397 C1393 1.393 . S
C1397 C1396 1.391 . S
C1398 H1388 0.950 . S
C1398 C1399 1.386 . S
C1398 C1400 1.391 . S
C1399 C1398 1.386 . S
C1399 C1403 1.393 . S
C1400 H1389 0.950 . S
C1400 C1398 1.391 . S
C1400 C1401 1.400 . S
C1401 C1395 1.491 . S
C1401 C1400 1.400 . S
C1401 C1402 1.398 . S
C1402 H1390 0.950 . S
C1402 C1401 1.398 . S
C1402 C1403 1.391 . S
C1403 H1391 0.950 . S
C1403 C1399 1.393 . S
C1403 C1402 1.391 . S
H1404 C1412 0.950 . S
H1405 C1417 0.950 . S
H1406 C1414 0.950 . S
H1407 C1416 0.950 . S
H1408 C1418 0.950 . S
H1409 C1420 0.950 . S
H1410 C1422 0.950 . S
H1411 C1423 0.950 . S
C1412 H1404 0.950 . S
C1412 C1413 1.386 . S
C1412 C1414 1.391 . S
C1413 C1412 1.386 . S
C1413 C1417 1.393 . S
C1414 H1406 0.950 . S
C1414 C1412 1.391 . S
C1414 C1415 1.400 . S
C1415 C1414 1.400 . S
C1415 C1416 1.398 . S
C1415 C1421 1.491 . S
C1416 H1407 0.950 . S
C1416 C1415 1.398 . S
C1416 C1417 1.391 . S
C1417 H1405 0.950 . S
C1417 C1413 1.393 . S
C1417 C1416 1.391 . S
C1418 H1408 0.950 . S
C1418 C1419 1.386 . S
C1418 C1420 1.391 . S
C1419 C1418 1.386 . S
C1419 C1423 1.393 . S
C1420 H1409 0.950 . S
C1420 C1418 1.391 . S
C1420 C1421 1.400 . S
C1421 C1415 1.491 . S
C1421 C1420 1.400 . S
C1421 C1422 1.398 . S
C1422 H1410 0.950 . S
C1422 C1421 1.398 . S
C1422 C1423 1.391 . S
C1423 H1411 0.950 . S
C1423 C1419 1.393 . S
C1423 C1422 1.391 . S
H1424 C1432 0.950 . S
H1425 C1437 0.950 . S
H1426 C1434 0.950 . S
H1427 C1436 0.950 . S
H1428 C1438 0.950 . S
H1429 C1440 0.950 . S
H1430 C1442 0.950 . S
H1431 C1443 0.950 . S
C1432 H1424 0.950 . S
C1432 C1433 1.386 . S
C1432 C1434 1.391 . S
C1433 C1432 1.386 . S
C1433 C1437 1.393 . S
C1434 H1426 0.950 . S
C1434 C1432 1.391 . S
C1434 C1435 1.400 . S
C1435 C1434 1.400 . S
C1435 C1436 1.398 . S
C1435 C1441 1.491 . S
C1436 H1427 0.950 . S
C1436 C1435 1.398 . S
C1436 C1437 1.391 . S
C1437 H1425 0.950 . S
C1437 C1433 1.393 . S
C1437 C1436 1.391 . S
C1438 H1428 0.950 . S
C1438 C1439 1.386 . S
C1438 C1440 1.391 . S
C1439 C1438 1.386 . S
C1439 C1443 1.393 . S
C1440 H1429 0.950 . S
C1440 C1438 1.391 . S
C1440 C1441 1.400 . S
C1441 C1435 1.491 . S
C1441 C1440 1.400 . S
C1441 C1442 1.398 . S
C1442 H1430 0.950 . S
C1442 C1441 1.398 . S
C1442 C1443 1.391 . S
C1443 H1431 0.950 . S
C1443 C1439 1.393 . S
C1443 C1442 1.391 . S
H1444 C1452 0.950 . S
H1445 C1457 0.950 . S
H1446 C1454 0.950 . S
H1447 C1456 0.950 . S
H1448 C1458 0.950 . S
H1449 C1460 0.950 . S
H1450 C1462 0.950 . S
H1451 C1463 0.950 . S
C1452 H1444 0.950 . S
C1452 C1453 1.386 . S
C1452 C1454 1.391 . S
C1453 C1452 1.386 . S
C1453 C1457 1.393 . S
C1454 H1446 0.950 . S
C1454 C1452 1.391 . S
C1454 C1455 1.400 . S
C1455 C1454 1.400 . S
C1455 C1456 1.398 . S
C1455 C1461 1.491 . S
C1456 H1447 0.950 . S
C1456 C1455 1.398 . S
C1456 C1457 1.391 . S
C1457 H1445 0.950 . S
C1457 C1453 1.393 . S
C1457 C1456 1.391 . S
C1458 H1448 0.950 . S
C1458 C1459 1.386 . S
C1458 C1460 1.391 . S
C1459 C1458 1.386 . S
C1459 C1463 1.393 . S
C1460 H1449 0.950 . S
C1460 C1458 1.391 . S
C1460 C1461 1.400 . S
C1461 C1455 1.491 . S
C1461 C1460 1.400 . S
C1461 C1462 1.398 . S
C1462 H1450 0.950 . S
C1462 C1461 1.398 . S
C1462 C1463 1.391 . S
C1463 H1451 0.950 . S
C1463 C1459 1.393 . S
C1463 C1462 1.391 . S
H1464 C1472 0.950 . S
H1465 C1477 0.950 . S
H1466 C1474 0.950 . S
H1467 C1476 0.950 . S
H1468 C1478 0.950 . S
H1469 C1480 0.950 . S
H1470 C1482 0.950 . S
H1471 C1483 0.950 . S
C1472 H1464 0.950 . S
C1472 C1473 1.386 . S
C1472 C1474 1.391 . S
C1473 C1472 1.386 . S
C1473 C1477 1.393 . S
C1474 H1466 0.950 . S
C1474 C1472 1.391 . S
C1474 C1475 1.400 . S
C1475 C1474 1.400 . S
C1475 C1476 1.398 . S
C1475 C1481 1.491 . S
C1476 H1467 0.950 . S
C1476 C1475 1.398 . S
C1476 C1477 1.391 . S
C1477 H1465 0.950 . S
C1477 C1473 1.393 . S
C1477 C1476 1.391 . S
C1478 H1468 0.950 . S
C1478 C1479 1.386 . S
C1478 C1480 1.391 . S
C1479 C1478 1.386 . S
C1479 C1483 1.393 . S
C1480 H1469 0.950 . S
C1480 C1478 1.391 . S
C1480 C1481 1.400 . S
C1481 C1475 1.491 . S
C1481 C1480 1.400 . S
C1481 C1482 1.398 . S
C1482 H1470 0.950 . S
C1482 C1481 1.398 . S
C1482 C1483 1.391 . S
C1483 H1471 0.950 . S
C1483 C1479 1.393 . S
C1483 C1482 1.391 . S
H1484 C1492 0.950 . S
H1485 C1497 0.950 . S
H1486 C1494 0.950 . S
H1487 C1496 0.950 . S
H1488 C1498 0.950 . S
H1489 C1500 0.950 . S
H1490 C1502 0.950 . S
H1491 C1503 0.950 . S
C1492 H1484 0.950 . S
C1492 C1493 1.386 . S
C1492 C1494 1.391 . S
C1493 C1492 1.386 . S
C1493 C1497 1.393 . S
C1494 H1486 0.950 . S
C1494 C1492 1.391 . S
C1494 C1495 1.400 . S
C1495 C1494 1.400 . S
C1495 C1496 1.398 . S
C1495 C1501 1.491 . S
C1496 H1487 0.950 . S
C1496 C1495 1.398 . S
C1496 C1497 1.391 . S
C1497 H1485 0.950 . S
C1497 C1493 1.393 . S
C1497 C1496 1.391 . S
C1498 H1488 0.950 . S
C1498 C1499 1.386 . S
C1498 C1500 1.391 . S
C1499 C1498 1.386 . S
C1499 C1503 1.393 . S
C1500 H1489 0.950 . S
C1500 C1498 1.391 . S
C1500 C1501 1.400 . S
C1501 C1495 1.491 . S
C1501 C1500 1.400 . S
C1501 C1502 1.398 . S
C1502 H1490 0.950 . S
C1502 C1501 1.398 . S
C1502 C1503 1.391 . S
C1503 H1491 0.950 . S
C1503 C1499 1.393 . S
C1503 C1502 1.391 . S
H1504 C1512 0.950 . S
H1505 C1517 0.950 . S
H1506 C1514 0.950 . S
H1507 C1516 0.950 . S
H1508 C1518 0.950 . S
H1509 C1520 0.950 . S
H1510 C1522 0.950 . S
H1511 C1523 0.950 . S
C1512 H1504 0.950 . S
C1512 C1513 1.386 . S
C1512 C1514 1.391 . S
C1513 C1512 1.386 . S
C1513 C1517 1.393 . S
C1514 H1506 0.950 . S
C1514 C1512 1.391 . S
C1514 C1515 1.400 . S
C1515 C1514 1.400 . S
C1515 C1516 1.398 . S
C1515 C1521 1.491 . S
C1516 H1507 0.950 . S
C1516 C1515 1.398 . S
C1516 C1517 1.391 . S
C1517 H1505 0.950 . S
C1517 C1513 1.393 . S
C1517 C1516 1.391 . S
C1518 H1508 0.950 . S
C1518 C1519 1.386 . S
C1518 C1520 1.391 . S
C1519 C1518 1.386 . S
C1519 C1523 1.393 . S
C1520 H1509 0.950 . S
C1520 C1518 1.391 . S
C1520 C1521 1.400 . S
C1521 C1515 1.491 . S
C1521 C1520 1.400 . S
C1521 C1522 1.398 . S
C1522 H1510 0.950 . S
C1522 C1521 1.398 . S
C1522 C1523 1.391 . S
C1523 H1511 0.950 . S
C1523 C1519 1.393 . S
C1523 C1522 1.391 . S
H1524 C1532 0.950 . S
H1525 C1537 0.950 . S
H1526 C1534 0.950 . S
H1527 C1536 0.950 . S
H1528 C1538 0.950 . S
H1529 C1540 0.950 . S
H1530 C1542 0.950 . S
H1531 C1543 0.950 . S
C1532 H1524 0.950 . S
C1532 C1533 1.386 . S
C1532 C1534 1.391 . S
C1533 C1532 1.386 . S
C1533 C1537 1.393 . S
C1534 H1526 0.950 . S
C1534 C1532 1.391 . S
C1534 C1535 1.400 . S
C1535 C1534 1.400 . S
C1535 C1536 1.398 . S
C1535 C1541 1.491 . S
C1536 H1527 0.950 . S
C1536 C1535 1.398 . S
C1536 C1537 1.391 . S
C1537 H1525 0.950 . S
C1537 C1533 1.393 . S
C1537 C1536 1.391 . S
C1538 H1528 0.950 . S
C1538 C1539 1.386 . S
C1538 C1540 1.391 . S
C1539 C1538 1.386 . S
C1539 C1543 1.393 . S
C1540 H1529 0.950 . S
C1540 C1538 1.391 . S
C1540 C1541 1.400 . S
C1541 C1535 1.491 . S
C1541 C1540 1.400 . S
C1541 C1542 1.398 . S
C1542 H1530 0.950 . S
C1542 C1541 1.398 . S
C1542 C1543 1.391 . S
C1543 H1531 0.950 . S
C1543 C1539 1.393 . S
C1543 C1542 1.391 . S
H1544 C1552 0.950 . S
H1545 C1557 0.950 . S
H1546 C1554 0.950 . S
H1547 C1556 0.950 . S
H1548 C1558 0.950 . S
H1549 C1560 0.950 . S
H1550 C1562 0.950 . S
H1551 C1563 0.950 . S
C1552 H1544 0.950 . S
C1552 C1553 1.386 . S
C1552 C1554 1.391 . S
C1553 C1552 1.386 . S
C1553 C1557 1.393 . S
C1554 H1546 0.950 . S
C1554 C1552 1.391 . S
C1554 C1555 1.400 . S
C1555 C1554 1.400 . S
C1555 C1556 1.398 . S
C1555 C1561 1.491 . S
C1556 H1547 0.950 . S
C1556 C1555 1.398 . S
C1556 C1557 1.391 . S
C1557 H1545 0.950 . S
C1557 C1553 1.393 . S
C1557 C1556 1.391 . S
C1558 H1548 0.950 . S
C1558 C1559 1.386 . S
C1558 C1560 1.391 . S
C1559 C1558 1.386 . S
C1559 C1563 1.393 . S
C1560 H1549 0.950 . S
C1560 C1558 1.391 . S
C1560 C1561 1.400 . S
C1561 C1555 1.491 . S
C1561 C1560 1.400 . S
C1561 C1562 1.398 . S
C1562 H1550 0.950 . S
C1562 C1561 1.398 . S
C1562 C1563 1.391 . S
C1563 H1551 0.950 . S
C1563 C1559 1.393 . S
C1563 C1562 1.391 . S
H1564 C1572 0.950 . S
H1565 C1577 0.950 . S
H1566 C1574 0.950 . S
H1567 C1576 0.950 . S
H1568 C1578 0.950 . S
H1569 C1580 0.950 . S
H1570 C1582 0.950 . S
H1571 C1583 0.950 . S
C1572 H1564 0.950 . S
C1572 C1573 1.386 . S
C1572 C1574 1.391 . S
C1573 C1572 1.386 . S
C1573 C1577 1.393 . S
C1574 H1566 0.950 . S
C1574 C1572 1.391 . S
C1574 C1575 1.400 . S
C1575 C1574 1.400 . S
C1575 C1576 1.398 . S
C1575 C1581 1.491 . S
C1576 H1567 0.950 . S
C1576 C1575 1.398 . S
C1576 C1577 1.391 . S
C1577 H1565 0.950 . S
C1577 C1573 1.393 . S
C1577 C1576 1.391 . S
C1578 H1568 0.950 . S
C1578 C1579 1.386 . S
C1578 C1580 1.391 . S
C1579 C1578 1.386 . S
C1579 C1583 1.393 . S
C1580 H1569 0.950 . S
C1580 C1578 1.391 . S
C1580 C1581 1.400 . S
C1581 C1575 1.491 . S
C1581 C1580 1.400 . S
C1581 C1582 1.398 . S
C1582 H1570 0.950 . S
C1582 C1581 1.398 . S
C1582 C1583 1.391 . S
C1583 H1571 0.950 . S
C1583 C1579 1.393 . S
C1583 C1582 1.391 . S
H1584 C1592 0.950 . S
H1585 C1597 0.950 . S
H1586 C1594 0.950 . S
H1587 C1596 0.950 . S
H1588 C1598 0.950 . S
H1589 C1600 0.950 . S
H1590 C1602 0.950 . S
H1591 C1603 0.950 . S
C1592 H1584 0.950 . S
C1592 C1593 1.386 . S
C1592 C1594 1.391 . S
C1593 C1592 1.386 . S
C1593 C1597 1.393 . S
C1594 H1586 0.950 . S
C1594 C1592 1.391 . S
C1594 C1595 1.400 . S
C1595 C1594 1.400 . S
C1595 C1596 1.398 . S
C1595 C1601 1.491 . S
C1596 H1587 0.950 . S
C1596 C1595 1.398 . S
C1596 C1597 1.391 . S
C1597 H1585 0.950 . S
C1597 C1593 1.393 . S
C1597 C1596 1.391 . S
C1598 H1588 0.950 . S
C1598 C1599 1.386 . S
C1598 C1600 1.391 . S
C1599 C1598 1.386 . S
C1599 C1603 1.393 . S
C1600 H1589 0.950 . S
C1600 C1598 1.391 . S
C1600 C1601 1.400 . S
C1601 C1595 1.491 . S
C1601 C1600 1.400 . S
C1601 C1602 1.398 . S
C1602 H1590 0.950 . S
C1602 C1601 1.398 . S
C1602 C1603 1.391 . S
C1603 H1591 0.950 . S
C1603 C1599 1.393 . S
C1603 C1602 1.391 . S
H1604 C1612 0.950 . S
H1605 C1617 0.950 . S
H1606 C1614 0.950 . S
H1607 C1616 0.950 . S
H1608 C1618 0.950 . S
H1609 C1620 0.950 . S
H1610 C1622 0.950 . S
H1611 C1623 0.950 . S
C1612 H1604 0.950 . S
C1612 C1613 1.386 . S
C1612 C1614 1.391 . S
C1613 C1612 1.386 . S
C1613 C1617 1.393 . S
C1614 H1606 0.950 . S
C1614 C1612 1.391 . S
C1614 C1615 1.400 . S
C1615 C1614 1.400 . S
C1615 C1616 1.398 . S
C1615 C1621 1.491 . S
C1616 H1607 0.950 . S
C1616 C1615 1.398 . S
C1616 C1617 1.391 . S
C1617 H1605 0.950 . S
C1617 C1613 1.393 . S
C1617 C1616 1.391 . S
C1618 H1608 0.950 . S
C1618 C1619 1.386 . S
C1618 C1620 1.391 . S
C1619 C1618 1.386 . S
C1619 C1623 1.393 . S
C1620 H1609 0.950 . S
C1620 C1618 1.391 . S
C1620 C1621 1.400 . S
C1621 C1615 1.491 . S
C1621 C1620 1.400 . S
C1621 C1622 1.398 . S
C1622 H1610 0.950 . S
C1622 C1621 1.398 . S
C1622 C1623 1.391 . S
C1623 H1611 0.950 . S
C1623 C1619 1.393 . S
C1623 C1622 1.391 . S
H1624 C1632 0.950 . S
H1625 C1637 0.950 . S
H1626 C1634 0.950 . S
H1627 C1636 0.950 . S
H1628 C1638 0.950 . S
H1629 C1640 0.950 . S
H1630 C1642 0.950 . S
H1631 C1643 0.950 . S
C1632 H1624 0.950 . S
C1632 C1633 1.386 . S
C1632 C1634 1.391 . S
C1633 C1632 1.386 . S
C1633 C1637 1.393 . S
C1634 H1626 0.950 . S
C1634 C1632 1.391 . S
C1634 C1635 1.400 . S
C1635 C1634 1.400 . S
C1635 C1636 1.398 . S
C1635 C1641 1.491 . S
C1636 H1627 0.950 . S
C1636 C1635 1.398 . S
C1636 C1637 1.391 . S
C1637 H1625 0.950 . S
C1637 C1633 1.393 . S
C1637 C1636 1.391 . S
C1638 H1628 0.950 . S
C1638 C1639 1.386 . S
C1638 C1640 1.391 . S
C1639 C1638 1.386 . S
C1639 C1643 1.393 . S
C1640 H1629 0.950 . S
C1640 C1638 1.391 . S
C1640 C1641 1.400 . S
C1641 C1635 1.491 . S
C1641 C1640 1.400 . S
C1641 C1642 1.398 . S
C1642 H1630 0.950 . S
C1642 C1641 1.398 . S
C1642 C1643 1.391 . S
C1643 H1631 0.950 . S
C1643 C1639 1.393 . S
C1643 C1642 1.391 . S
H1644 C1652 0.950 . S
H1645 C1657 0.950 . S
H1646 C1654 0.950 . S
H1647 C1656 0.950 . S
H1648 C1658 0.950 . S
H1649 C1660 0.950 . S
H1650 C1662 0.950 . S
H1651 C1663 0.950 . S
C1652 H1644 0.950 . S
C1652 C1653 1.386 . S
C1652 C1654 1.391 . S
C1653 C1652 1.386 . S
C1653 C1657 1.393 . S
C1654 H1646 0.950 . S
C1654 C1652 1.391 . S
C1654 C1655 1.400 . S
C1655 C1654 1.400 . S
C1655 C1656 1.398 . S
C1655 C1661 1.491 . S
C1656 H1647 0.950 . S
C1656 C1655 1.398 . S
C1656 C1657 1.391 . S
C1657 H1645 0.950 . S
C1657 C1653 1.393 . S
C1657 C1656 1.391 . S
C1658 H1648 0.950 . S
C1658 C1659 1.386 . S
C1658 C1660 1.391 . S
C1659 C1658 1.386 . S
C1659 C1663 1.393 . S
C1660 H1649 0.950 . S
C1660 C1658 1.391 . S
C1660 C1661 1.400 . S
C1661 C1655 1.491 . S
C1661 C1660 1.400 . S
C1661 C1662 1.398 . S
C1662 H1650 0.950 . S
C1662 C1661 1.398 . S
C1662 C1663 1.391 . S
C1663 H1651 0.950 . S
C1663 C1659 1.393 . S
C1663 C1662 1.391 . S
H1664 C1672 0.950 . S
H1665 C1677 0.950 . S
H1666 C1674 0.950 . S
H1667 C1676 0.950 . S
H1668 C1678 0.950 . S
H1669 C1680 0.950 . S
H1670 C1682 0.950 . S
H1671 C1683 0.950 . S
C1672 H1664 0.950 . S
C1672 C1673 1.386 . S
C1672 C1674 1.391 . S
C1673 C1672 1.386 . S
C1673 C1677 1.393 . S
C1674 H1666 0.950 . S
C1674 C1672 1.391 . S
C1674 C1675 1.400 . S
C1675 C1674 1.400 . S
C1675 C1676 1.398 . S
C1675 C1681 1.491 1_565 S
C1676 H1667 0.950 . S
C1676 C1675 1.398 . S
C1676 C1677 1.391 . S
C1677 H1665 0.950 . S
C1677 C1673 1.393 . S
C1677 C1676 1.391 . S
C1678 H1668 0.950 . S
C1678 C1679 1.386 . S
C1678 C1680 1.391 . S
C1679 C1678 1.386 . S
C1679 C1683 1.393 . S
C1680 H1669 0.950 . S
C1680 C1678 1.391 . S
C1680 C1681 1.400 . S
C1681 C1675 1.491 1_545 S
C1681 C1680 1.400 . S
C1681 C1682 1.398 . S
C1682 H1670 0.950 . S
C1682 C1681 1.398 . S
C1682 C1683 1.391 . S
C1683 H1671 0.950 . S
C1683 C1679 1.393 . S
C1683 C1682 1.391 . S
H1684 C1692 0.950 . S
H1685 C1697 0.950 . S
H1686 C1694 0.950 . S
H1687 C1696 0.950 . S
H1688 C1698 0.950 . S
H1689 C1700 0.950 . S
H1690 C1702 0.950 . S
H1691 C1703 0.950 . S
C1692 H1684 0.950 . S
C1692 C1693 1.386 . S
C1692 C1694 1.391 . S
C1693 C1692 1.386 . S
C1693 C1697 1.393 . S
C1694 H1686 0.950 . S
C1694 C1692 1.391 . S
C1694 C1695 1.400 . S
C1695 C1694 1.400 . S
C1695 C1696 1.398 . S
C1695 C1701 1.491 1_655 S
C1696 H1687 0.950 . S
C1696 C1695 1.398 . S
C1696 C1697 1.391 . S
C1697 H1685 0.950 . S
C1697 C1693 1.393 . S
C1697 C1696 1.391 . S
C1698 H1688 0.950 . S
C1698 C1699 1.386 . S
C1698 C1700 1.391 . S
C1699 C1698 1.386 . S
C1699 C1703 1.393 . S
C1700 H1689 0.950 . S
C1700 C1698 1.391 . S
C1700 C1701 1.400 . S
C1701 C1695 1.491 1_455 S
C1701 C1700 1.400 . S
C1701 C1702 1.398 . S
C1702 H1690 0.950 . S
C1702 C1701 1.398 . S
C1702 C1703 1.391 . S
C1703 H1691 0.950 . S
C1703 C1699 1.393 . S
C1703 C1702 1.391 . S
H1704 C1712 0.950 . S
H1705 C1717 0.950 . S
H1706 C1714 0.950 . S
H1707 C1716 0.950 . S
H1708 C1718 0.950 . S
H1709 C1720 0.950 . S
H1710 C1722 0.950 . S
H1711 C1723 0.950 . S
C1712 H1704 0.950 . S
C1712 C1713 1.386 . S
C1712 C1714 1.391 . S
C1713 C1712 1.386 . S
C1713 C1717 1.393 . S
C1714 H1706 0.950 . S
C1714 C1712 1.391 . S
C1714 C1715 1.400 . S
C1715 C1714 1.400 . S
C1715 C1716 1.398 . S
C1715 C1721 1.491 1_545 S
C1716 H1707 0.950 . S
C1716 C1715 1.398 . S
C1716 C1717 1.391 . S
C1717 H1705 0.950 . S
C1717 C1713 1.393 . S
C1717 C1716 1.391 . S
C1718 H1708 0.950 . S
C1718 C1719 1.386 . S
C1718 C1720 1.391 . S
C1719 C1718 1.386 . S
C1719 C1723 1.393 . S
C1720 H1709 0.950 . S
C1720 C1718 1.391 . S
C1720 C1721 1.400 . S
C1721 C1715 1.491 1_565 S
C1721 C1720 1.400 . S
C1721 C1722 1.398 . S
C1722 H1710 0.950 . S
C1722 C1721 1.398 . S
C1722 C1723 1.391 . S
C1723 H1711 0.950 . S
C1723 C1719 1.393 . S
C1723 C1722 1.391 . S
H1724 C1732 0.950 . S
H1725 C1737 0.950 . S
H1726 C1734 0.950 . S
H1727 C1736 0.950 . S
H1728 C1738 0.950 . S
H1729 C1740 0.950 . S
H1730 C1742 0.950 . S
H1731 C1743 0.950 . S
C1732 H1724 0.950 . S
C1732 C1733 1.386 . S
C1732 C1734 1.391 . S
C1733 C1732 1.386 . S
C1733 C1737 1.393 . S
C1734 H1726 0.950 . S
C1734 C1732 1.391 . S
C1734 C1735 1.400 . S
C1735 C1734 1.400 . S
C1735 C1736 1.398 . S
C1735 C1741 1.491 1_655 S
C1736 H1727 0.950 . S
C1736 C1735 1.398 . S
C1736 C1737 1.391 . S
C1737 H1725 0.950 . S
C1737 C1733 1.393 . S
C1737 C1736 1.391 . S
C1738 H1728 0.950 . S
C1738 C1739 1.386 . S
C1738 C1740 1.391 . S
C1739 C1738 1.386 . S
C1739 C1743 1.393 . S
C1740 H1729 0.950 . S
C1740 C1738 1.391 . S
C1740 C1741 1.400 . S
C1741 C1735 1.491 1_455 S
C1741 C1740 1.400 . S
C1741 C1742 1.398 . S
C1742 H1730 0.950 . S
C1742 C1741 1.398 . S
C1742 C1743 1.391 . S
C1743 H1731 0.950 . S
C1743 C1739 1.393 . S
C1743 C1742 1.391 . S
H1744 C1752 0.950 . S
H1745 C1757 0.950 . S
H1746 C1754 0.950 . S
H1747 C1756 0.950 . S
H1748 C1758 0.950 . S
H1749 C1760 0.950 . S
H1750 C1762 0.950 . S
H1751 C1763 0.950 . S
C1752 H1744 0.950 . S
C1752 C1753 1.386 . S
C1752 C1754 1.391 . S
C1753 C1752 1.386 . S
C1753 C1757 1.393 . S
C1754 H1746 0.950 . S
C1754 C1752 1.391 . S
C1754 C1755 1.400 . S
C1755 C1754 1.400 . S
C1755 C1756 1.398 . S
C1755 C1761 1.491 1_545 S
C1756 H1747 0.950 . S
C1756 C1755 1.398 . S
C1756 C1757 1.391 . S
C1757 H1745 0.950 . S
C1757 C1753 1.393 . S
C1757 C1756 1.391 . S
C1758 H1748 0.950 . S
C1758 C1759 1.386 . S
C1758 C1760 1.391 . S
C1759 C1758 1.386 . S
C1759 C1763 1.393 . S
C1760 H1749 0.950 . S
C1760 C1758 1.391 . S
C1760 C1761 1.400 . S
C1761 C1755 1.491 1_565 S
C1761 C1760 1.400 . S
C1761 C1762 1.398 . S
C1762 H1750 0.950 . S
C1762 C1761 1.398 . S
C1762 C1763 1.391 . S
C1763 H1751 0.950 . S
C1763 C1759 1.393 . S
C1763 C1762 1.391 . S
H1764 C1772 0.950 . S
H1765 C1777 0.950 . S
H1766 C1774 0.950 . S
H1767 C1776 0.950 . S
H1768 C1778 0.950 . S
H1769 C1780 0.950 . S
H1770 C1782 0.950 . S
H1771 C1783 0.950 . S
C1772 H1764 0.950 . S
C1772 C1773 1.386 . S
C1772 C1774 1.391 . S
C1773 C1772 1.386 . S
C1773 C1777 1.393 . S
C1774 H1766 0.950 . S
C1774 C1772 1.391 . S
C1774 C1775 1.400 . S
C1775 C1774 1.400 . S
C1775 C1776 1.398 . S
C1775 C1781 1.491 1_655 S
C1776 H1767 0.950 . S
C1776 C1775 1.398 . S
C1776 C1777 1.391 . S
C1777 H1765 0.950 . S
C1777 C1773 1.393 . S
C1777 C1776 1.391 . S
C1778 H1768 0.950 . S
C1778 C1779 1.386 . S
C1778 C1780 1.391 . S
C1779 C1778 1.386 . S
C1779 C1783 1.393 . S
C1780 H1769 0.950 . S
C1780 C1778 1.391 . S
C1780 C1781 1.400 . S
C1781 C1775 1.491 1_455 S
C1781 C1780 1.400 . S
C1781 C1782 1.398 . S
C1782 H1770 0.950 . S
C1782 C1781 1.398 . S
C1782 C1783 1.391 . S
C1783 H1771 0.950 . S
C1783 C1779 1.393 . S
C1783 C1782 1.391 . S
H1784 C1792 0.950 . S
H1785 C1797 0.950 . S
H1786 C1794 0.950 . S
H1787 C1796 0.950 . S
H1788 C1798 0.950 . S
H1789 C1800 0.950 . S
H1790 C1802 0.950 . S
H1791 C1803 0.950 . S
C1792 H1784 0.950 . S
C1792 C1793 1.386 . S
C1792 C1794 1.391 . S
C1793 C1792 1.386 . S
C1793 C1797 1.393 . S
C1794 H1786 0.950 . S
C1794 C1792 1.391 . S
C1794 C1795 1.400 . S
C1795 C1794 1.400 . S
C1795 C1796 1.398 . S
C1795 C1801 1.491 1_545 S
C1796 H1787 0.950 . S
C1796 C1795 1.398 . S
C1796 C1797 1.391 . S
C1797 H1785 0.950 . S
C1797 C1793 1.393 . S
C1797 C1796 1.391 . S
C1798 H1788 0.950 . S
C1798 C1799 1.386 . S
C1798 C1800 1.391 . S
C1799 C1798 1.386 . S
C1799 C1803 1.393 . S
C1800 H1789 0.950 . S
C1800 C1798 1.391 . S
C1800 C1801 1.400 . S
C1801 C1795 1.491 1_565 S
C1801 C1800 1.400 . S
C1801 C1802 1.398 . S
C1802 H1790 0.950 . S
C1802 C1801 1.398 . S
C1802 C1803 1.391 . S
C1803 H1791 0.950 . S
C1803 C1799 1.393 . S
C1803 C1802 1.391 . S
H1804 C1812 0.950 . S
H1805 C1817 0.950 . S
H1806 C1814 0.950 . S
H1807 C1816 0.950 . S
H1808 C1818 0.950 . S
H1809 C1820 0.950 . S
H1810 C1822 0.950 . S
H1811 C1823 0.950 . S
C1812 H1804 0.950 . S
C1812 C1813 1.386 . S
C1812 C1814 1.391 . S
C1813 C1812 1.386 . S
C1813 C1817 1.393 . S
C1814 H1806 0.950 . S
C1814 C1812 1.391 . S
C1814 C1815 1.400 . S
C1815 C1814 1.400 . S
C1815 C1816 1.398 . S
C1815 C1821 1.491 1_655 S
C1816 H1807 0.950 . S
C1816 C1815 1.398 . S
C1816 C1817 1.391 . S
C1817 H1805 0.950 . S
C1817 C1813 1.393 . S
C1817 C1816 1.391 . S
C1818 H1808 0.950 . S
C1818 C1819 1.386 . S
C1818 C1820 1.391 . S
C1819 C1818 1.386 . S
C1819 C1823 1.393 . S
C1820 H1809 0.950 . S
C1820 C1818 1.391 . S
C1820 C1821 1.400 . S
C1821 C1815 1.491 1_455 S
C1821 C1820 1.400 . S
C1821 C1822 1.398 . S
C1822 H1810 0.950 . S
C1822 C1821 1.398 . S
C1822 C1823 1.391 . S
C1823 H1811 0.950 . S
C1823 C1819 1.393 . S
C1823 C1822 1.391 . S
H1824 C1832 0.950 . S
H1825 C1837 0.950 . S
H1826 C1834 0.950 . S
H1827 C1836 0.950 . S
H1828 C1838 0.950 . S
H1829 C1840 0.950 . S
H1830 C1842 0.950 . S
H1831 C1843 0.950 . S
C1832 H1824 0.950 . S
C1832 C1833 1.386 . S
C1832 C1834 1.391 . S
C1833 C1832 1.386 . S
C1833 C1837 1.393 . S
C1834 H1826 0.950 . S
C1834 C1832 1.391 . S
C1834 C1835 1.400 . S
C1835 C1834 1.400 . S
C1835 C1836 1.398 . S
C1835 C1841 1.491 1_554 S
C1836 H1827 0.950 . S
C1836 C1835 1.398 . S
C1836 C1837 1.391 . S
C1837 H1825 0.950 . S
C1837 C1833 1.393 . S
C1837 C1836 1.391 . S
C1838 H1828 0.950 . S
C1838 C1839 1.386 . S
C1838 C1840 1.391 . S
C1839 C1838 1.386 . S
C1839 C1843 1.393 . S
C1840 H1829 0.950 . S
C1840 C1838 1.391 . S
C1840 C1841 1.400 . S
C1841 C1835 1.491 1_556 S
C1841 C1840 1.400 . S
C1841 C1842 1.398 . S
C1842 H1830 0.950 . S
C1842 C1841 1.398 . S
C1842 C1843 1.391 . S
C1843 H1831 0.950 . S
C1843 C1839 1.393 . S
C1843 C1842 1.391 . S
H1844 C1852 0.950 . S
H1845 C1857 0.950 . S
H1846 C1854 0.950 . S
H1847 C1856 0.950 . S
H1848 C1858 0.950 . S
H1849 C1860 0.950 . S
H1850 C1862 0.950 . S
H1851 C1863 0.950 . S
C1852 H1844 0.950 . S
C1852 C1853 1.386 . S
C1852 C1854 1.391 . S
C1853 C1852 1.386 . S
C1853 C1857 1.393 . S
C1854 H1846 0.950 . S
C1854 C1852 1.391 . S
C1854 C1855 1.400 . S
C1855 C1854 1.400 . S
C1855 C1856 1.398 . S
C1855 C1861 1.491 1_556 S
C1856 H1847 0.950 . S
C1856 C1855 1.398 . S
C1856 C1857 1.391 . S
C1857 H1845 0.950 . S
C1857 C1853 1.393 . S
C1857 C1856 1.391 . S
C1858 H1848 0.950 . S
C1858 C1859 1.386 . S
C1858 C1860 1.391 . S
C1859 C1858 1.386 . S
C1859 C1863 1.393 . S
C1860 H1849 0.950 . S
C1860 C1858 1.391 . S
C1860 C1861 1.400 . S
C1861 C1855 1.491 1_554 S
C1861 C1860 1.400 . S
C1861 C1862 1.398 . S
C1862 H1850 0.950 . S
C1862 C1861 1.398 . S
C1862 C1863 1.391 . S
C1863 H1851 0.950 . S
C1863 C1859 1.393 . S
C1863 C1862 1.391 . S
H1864 C1872 0.950 . S
H1865 C1877 0.950 . S
H1866 C1874 0.950 . S
H1867 C1876 0.950 . S
H1868 C1878 0.950 . S
H1869 C1880 0.950 . S
H1870 C1882 0.950 . S
H1871 C1883 0.950 . S
C1872 H1864 0.950 . S
C1872 C1873 1.386 . S
C1872 C1874 1.391 . S
C1873 C1872 1.386 . S
C1873 C1877 1.393 . S
C1874 H1866 0.950 . S
C1874 C1872 1.391 . S
C1874 C1875 1.400 . S
C1875 C1874 1.400 . S
C1875 C1876 1.398 . S
C1875 C1881 1.491 1_556 S
C1876 H1867 0.950 . S
C1876 C1875 1.398 . S
C1876 C1877 1.391 . S
C1877 H1865 0.950 . S
C1877 C1873 1.393 . S
C1877 C1876 1.391 . S
C1878 H1868 0.950 . S
C1878 C1879 1.386 . S
C1878 C1880 1.391 . S
C1879 C1878 1.386 . S
C1879 C1883 1.393 . S
C1880 H1869 0.950 . S
C1880 C1878 1.391 . S
C1880 C1881 1.400 . S
C1881 C1875 1.491 1_554 S
C1881 C1880 1.400 . S
C1881 C1882 1.398 . S
C1882 H1870 0.950 . S
C1882 C1881 1.398 . S
C1882 C1883 1.391 . S
C1883 H1871 0.950 . S
C1883 C1879 1.393 . S
C1883 C1882 1.391 . S
H1884 C1892 0.950 . S
H1885 C1897 0.950 . S
H1886 C1894 0.950 . S
H1887 C1896 0.950 . S
H1888 C1898 0.950 . S
H1889 C1900 0.950 . S
H1890 C1902 0.950 . S
H1891 C1903 0.950 . S
C1892 H1884 0.950 . S
C1892 C1893 1.386 . S
C1892 C1894 1.391 . S
C1893 C1892 1.386 . S
C1893 C1897 1.393 . S
C1894 H1886 0.950 . S
C1894 C1892 1.391 . S
C1894 C1895 1.400 . S
C1895 C1894 1.400 . S
C1895 C1896 1.398 . S
C1895 C1901 1.491 1_554 S
C1896 H1887 0.950 . S
C1896 C1895 1.398 . S
C1896 C1897 1.391 . S
C1897 H1885 0.950 . S
C1897 C1893 1.393 . S
C1897 C1896 1.391 . S
C1898 H1888 0.950 . S
C1898 C1899 1.386 . S
C1898 C1900 1.391 . S
C1899 C1898 1.386 . S
C1899 C1903 1.393 . S
C1900 H1889 0.950 . S
C1900 C1898 1.391 . S
C1900 C1901 1.400 . S
C1901 C1895 1.491 1_556 S
C1901 C1900 1.400 . S
C1901 C1902 1.398 . S
C1902 H1890 0.950 . S
C1902 C1901 1.398 . S
C1902 C1903 1.391 . S
C1903 H1891 0.950 . S
C1903 C1899 1.393 . S
C1903 C1902 1.391 . S
H1904 C1912 0.950 . S
H1905 C1917 0.950 . S
H1906 C1914 0.950 . S
H1907 C1916 0.950 . S
H1908 C1918 0.950 . S
H1909 C1920 0.950 . S
H1910 C1922 0.950 . S
H1911 C1923 0.950 . S
C1912 H1904 0.950 . S
C1912 C1913 1.386 . S
C1912 C1914 1.391 . S
C1913 C1912 1.386 . S
C1913 C1917 1.393 . S
C1914 H1906 0.950 . S
C1914 C1912 1.391 . S
C1914 C1915 1.400 . S
C1915 C1914 1.400 . S
C1915 C1916 1.398 . S
C1915 C1921 1.491 1_556 S
C1916 H1907 0.950 . S
C1916 C1915 1.398 . S
C1916 C1917 1.391 . S
C1917 H1905 0.950 . S
C1917 C1913 1.393 . S
C1917 C1916 1.391 . S
C1918 H1908 0.950 . S
C1918 C1919 1.386 . S
C1918 C1920 1.391 . S
C1919 C1918 1.386 . S
C1919 C1923 1.393 . S
C1920 H1909 0.950 . S
C1920 C1918 1.391 . S
C1920 C1921 1.400 . S
C1921 C1915 1.491 1_554 S
C1921 C1920 1.400 . S
C1921 C1922 1.398 . S
C1922 H1910 0.950 . S
C1922 C1921 1.398 . S
C1922 C1923 1.391 . S
C1923 H1911 0.950 . S
C1923 C1919 1.393 . S
C1923 C1922 1.391 . S
H1924 C1932 0.950 . S
H1925 C1937 0.950 . S
H1926 C1934 0.950 . S
H1927 C1936 0.950 . S
H1928 C1938 0.950 . S
H1929 C1940 0.950 . S
H1930 C1942 0.950 . S
H1931 C1943 0.950 . S
C1932 H1924 0.950 . S
C1932 C1933 1.386 . S
C1932 C1934 1.391 . S
C1933 C1932 1.386 . S
C1933 C1937 1.393 . S
C1934 H1926 0.950 . S
C1934 C1932 1.391 . S
C1934 C1935 1.400 . S
C1935 C1934 1.400 . S
C1935 C1936 1.398 . S
C1935 C1941 1.491 1_554 S
C1936 H1927 0.950 . S
C1936 C1935 1.398 . S
C1936 C1937 1.391 . S
C1937 H1925 0.950 . S
C1937 C1933 1.393 . S
C1937 C1936 1.391 . S
C1938 H1928 0.950 . S
C1938 C1939 1.386 . S
C1938 C1940 1.391 . S
C1939 C1938 1.386 . S
C1939 C1943 1.393 . S
C1940 H1929 0.950 . S
C1940 C1938 1.391 . S
C1940 C1941 1.400 . S
C1941 C1935 1.491 1_556 S
C1941 C1940 1.400 . S
C1941 C1942 1.398 . S
C1942 H1930 0.950 . S
C1942 C1941 1.398 . S
C1942 C1943 1.391 . S
C1943 H1931 0.950 . S
C1943 C1939 1.393 . S
C1943 C1942 1.391 . S
H1944 C1952 0.950 . S
H1945 C1957 0.950 . S
H1946 C1954 0.950 . S
H1947 C1956 0.950 . S
H1948 C1958 0.950 . S
H1949 C1960 0.950 . S
H1950 C1962 0.950 . S
H1951 C1963 0.950 . S
C1952 H1944 0.950 . S
C1952 C1953 1.386 . S
C1952 C1954 1.391 . S
C1953 C1952 1.386 . S
C1953 C1957 1.393 . S
C1954 H1946 0.950 . S
C1954 C1952 1.391 . S
C1954 C1955 1.400 . S
C1955 C1954 1.400 . S
C1955 C1956 1.398 . S
C1955 C1961 1.491 1_554 S
C1956 H1947 0.950 . S
C1956 C1955 1.398 . S
C1956 C1957 1.391 . S
C1957 H1945 0.950 . S
C1957 C1953 1.393 . S
C1957 C1956 1.391 . S
C1958 H1948 0.950 . S
C1958 C1959 1.386 . S
C1958 C1960 1.391 . S
C1959 C1958 1.386 . S
C1959 C1963 1.393 . S
C1960 H1949 0.950 . S
C1960 C1958 1.391 . S
C1960 C1961 1.400 . S
C1961 C1955 1.491 1_556 S
C1961 C1960 1.400 . S
C1961 C1962 1.398 . S
C1962 H1950 0.950 . S
C1962 C1961 1.398 . S
C1962 C1963 1.391 . S
C1963 H1951 0.950 . S
C1963 C1959 1.393 . S
C1963 C1962 1.391 . S
H1964 C1972 0.950 . S
H1965 C1977 0.950 . S
H1966 C1974 0.950 . S
H1967 C1976 0.950 . S
H1968 C1978 0.950 . S
H1969 C1980 0.950 . S
H1970 C1982 0.950 . S
H1971 C1983 0.950 . S
C1972 H1964 0.950 . S
C1972 C1973 1.386 . S
C1972 C1974 1.391 . S
C1973 C1972 1.386 . S
C1973 C1977 1.393 . S
C1974 H1966 0.950 . S
C1974 C1972 1.391 . S
C1974 C1975 1.400 . S
C1975 C1974 1.400 . S
C1975 C1976 1.398 . S
C1975 C1981 1.491 1_556 S
C1976 H1967 0.950 . S
C1976 C1975 1.398 . S
C1976 C1977 1.391 . S
C1977 H1965 0.950 . S
C1977 C1973 1.393 . S
C1977 C1976 1.391 . S
C1978 H1968 0.950 . S
C1978 C1979 1.386 . S
C1978 C1980 1.391 . S
C1979 C1978 1.386 . S
C1979 C1983 1.393 . S
C1980 H1969 0.950 . S
C1980 C1978 1.391 . S
C1980 C1981 1.400 . S
C1981 C1975 1.491 1_554 S
C1981 C1980 1.400 . S
C1981 C1982 1.398 . S
C1982 H1970 0.950 . S
C1982 C1981 1.398 . S
C1982 C1983 1.391 . S
C1983 H1971 0.950 . S
C1983 C1979 1.393 . S
C1983 C1982 1.391 . S
H1984 C1992 0.950 . S
H1985 C1997 0.950 . S
H1986 C1994 0.950 . S
H1987 C1996 0.950 . S
H1988 C1998 0.950 . S
H1989 C2000 0.950 . S
H1990 C2002 0.950 . S
H1991 C2003 0.950 . S
C1992 H1984 0.950 . S
C1992 C1993 1.386 . S
C1992 C1994 1.391 . S
C1993 C1992 1.386 . S
C1993 C1997 1.393 . S
C1994 H1986 0.950 . S
C1994 C1992 1.391 . S
C1994 C1995 1.400 . S
C1995 C1994 1.400 . S
C1995 C1996 1.398 . S
C1995 C2001 1.491 1_455 S
C1996 H1987 0.950 . S
C1996 C1995 1.398 . S
C1996 C1997 1.391 . S
C1997 H1985 0.950 . S
C1997 C1993 1.393 . S
C1997 C1996 1.391 . S
C1998 H1988 0.950 . S
C1998 C1999 1.386 . S
C1998 C2000 1.391 . S
C1999 C1998 1.386 . S
C1999 C2003 1.393 . S
C2000 H1989 0.950 . S
C2000 C1998 1.391 . S
C2000 C2001 1.400 . S
C2001 C1995 1.491 1_655 S
C2001 C2000 1.400 . S
C2001 C2002 1.398 . S
C2002 H1990 0.950 . S
C2002 C2001 1.398 . S
C2002 C2003 1.391 . S
C2003 H1991 0.950 . S
C2003 C1999 1.393 . S
C2003 C2002 1.391 . S
H2004 C2012 0.950 . S
H2005 C2017 0.950 . S
H2006 C2014 0.950 . S
H2007 C2016 0.950 . S
H2008 C2018 0.950 . S
H2009 C2020 0.950 . S
H2010 C2022 0.950 . S
H2011 C2023 0.950 . S
C2012 H2004 0.950 . S
C2012 C2013 1.386 . S
C2012 C2014 1.391 . S
C2013 C2012 1.386 . S
C2013 C2017 1.393 . S
C2014 H2006 0.950 . S
C2014 C2012 1.391 . S
C2014 C2015 1.400 . S
C2015 C2014 1.400 . S
C2015 C2016 1.398 . S
C2015 C2021 1.491 1_455 S
C2016 H2007 0.950 . S
C2016 C2015 1.398 . S
C2016 C2017 1.391 . S
C2017 H2005 0.950 . S
C2017 C2013 1.393 . S
C2017 C2016 1.391 . S
C2018 H2008 0.950 . S
C2018 C2019 1.386 . S
C2018 C2020 1.391 . S
C2019 C2018 1.386 . S
C2019 C2023 1.393 . S
C2020 H2009 0.950 . S
C2020 C2018 1.391 . S
C2020 C2021 1.400 . S
C2021 C2015 1.491 1_655 S
C2021 C2020 1.400 . S
C2021 C2022 1.398 . S
C2022 H2010 0.950 . S
C2022 C2021 1.398 . S
C2022 C2023 1.391 . S
C2023 H2011 0.950 . S
C2023 C2019 1.393 . S
C2023 C2022 1.391 . S
H2024 C2032 0.950 . S
H2025 C2037 0.950 . S
H2026 C2034 0.950 . S
H2027 C2036 0.950 . S
H2028 C2038 0.950 . S
H2029 C2040 0.950 . S
H2030 C2042 0.950 . S
H2031 C2043 0.950 . S
C2032 H2024 0.950 . S
C2032 C2033 1.386 . S
C2032 C2034 1.391 . S
C2033 C2032 1.386 . S
C2033 C2037 1.393 . S
C2034 H2026 0.950 . S
C2034 C2032 1.391 . S
C2034 C2035 1.400 . S
C2035 C2034 1.400 . S
C2035 C2036 1.398 . S
C2035 C2041 1.491 1_565 S
C2036 H2027 0.950 . S
C2036 C2035 1.398 . S
C2036 C2037 1.391 . S
C2037 H2025 0.950 . S
C2037 C2033 1.393 . S
C2037 C2036 1.391 . S
C2038 H2028 0.950 . S
C2038 C2039 1.386 . S
C2038 C2040 1.391 . S
C2039 C2038 1.386 . S
C2039 C2043 1.393 . S
C2040 H2029 0.950 . S
C2040 C2038 1.391 . S
C2040 C2041 1.400 . S
C2041 C2035 1.491 1_545 S
C2041 C2040 1.400 . S
C2041 C2042 1.398 . S
C2042 H2030 0.950 . S
C2042 C2041 1.398 . S
C2042 C2043 1.391 . S
C2043 H2031 0.950 . S
C2043 C2039 1.393 . S
C2043 C2042 1.391 . S
H2044 C2052 0.950 . S
H2045 C2057 0.950 . S
H2046 C2054 0.950 . S
H2047 C2056 0.950 . S
H2048 C2058 0.950 . S
H2049 C2060 0.950 . S
H2050 C2062 0.950 . S
H2051 C2063 0.950 . S
C2052 H2044 0.950 . S
C2052 C2053 1.386 . S
C2052 C2054 1.391 . S
C2053 C2052 1.386 . S
C2053 C2057 1.393 . S
C2054 H2046 0.950 . S
C2054 C2052 1.391 . S
C2054 C2055 1.400 . S
C2055 C2054 1.400 . S
C2055 C2056 1.398 . S
C2055 C2061 1.491 1_455 S
C2056 H2047 0.950 . S
C2056 C2055 1.398 . S
C2056 C2057 1.391 . S
C2057 H2045 0.950 . S
C2057 C2053 1.393 . S
C2057 C2056 1.391 . S
C2058 H2048 0.950 . S
C2058 C2059 1.386 . S
C2058 C2060 1.391 . S
C2059 C2058 1.386 . S
C2059 C2063 1.393 . S
C2060 H2049 0.950 . S
C2060 C2058 1.391 . S
C2060 C2061 1.400 . S
C2061 C2055 1.491 1_655 S
C2061 C2060 1.400 . S
C2061 C2062 1.398 . S
C2062 H2050 0.950 . S
C2062 C2061 1.398 . S
C2062 C2063 1.391 . S
C2063 H2051 0.950 . S
C2063 C2059 1.393 . S
C2063 C2062 1.391 . S
H2064 C2072 0.950 . S
H2065 C2077 0.950 . S
H2066 C2074 0.950 . S
H2067 C2076 0.950 . S
H2068 C2078 0.950 . S
H2069 C2080 0.950 . S
H2070 C2082 0.950 . S
H2071 C2083 0.950 . S
C2072 H2064 0.950 . S
C2072 C2073 1.386 . S
C2072 C2074 1.391 . S
C2073 C2072 1.386 . S
C2073 C2077 1.393 . S
C2074 H2066 0.950 . S
C2074 C2072 1.391 . S
C2074 C2075 1.400 . S
C2075 C2074 1.400 . S
C2075 C2076 1.398 . S
C2075 C2081 1.491 1_565 S
C2076 H2067 0.950 . S
C2076 C2075 1.398 . S
C2076 C2077 1.391 . S
C2077 H2065 0.950 . S
C2077 C2073 1.393 . S
C2077 C2076 1.391 . S
C2078 H2068 0.950 . S
C2078 C2079 1.386 . S
C2078 C2080 1.391 . S
C2079 C2078 1.386 . S
C2079 C2083 1.393 . S
C2080 H2069 0.950 . S
C2080 C2078 1.391 . S
C2080 C2081 1.400 . S
C2081 C2075 1.491 1_545 S
C2081 C2080 1.400 . S
C2081 C2082 1.398 . S
C2082 H2070 0.950 . S
C2082 C2081 1.398 . S
C2082 C2083 1.391 . S
C2083 H2071 0.950 . S
C2083 C2079 1.393 . S
C2083 C2082 1.391 . S
H2084 C2092 0.950 . S
H2085 C2097 0.950 . S
H2086 C2094 0.950 . S
H2087 C2096 0.950 . S
H2088 C2098 0.950 . S
H2089 C2100 0.950 . S
H2090 C2102 0.950 . S
H2091 C2103 0.950 . S
C2092 H2084 0.950 . S
C2092 C2093 1.386 . S
C2092 C2094 1.391 . S
C2093 C2092 1.386 . S
C2093 C2097 1.393 . S
C2094 H2086 0.950 . S
C2094 C2092 1.391 . S
C2094 C2095 1.400 . S
C2095 C2094 1.400 . S
C2095 C2096 1.398 . S
C2095 C2101 1.491 1_655 S
C2096 H2087 0.950 . S
C2096 C2095 1.398 . S
C2096 C2097 1.391 . S
C2097 H2085 0.950 . S
C2097 C2093 1.393 . S
C2097 C2096 1.391 . S
C2098 H2088 0.950 . S
C2098 C2099 1.386 . S
C2098 C2100 1.391 . S
C2099 C2098 1.386 . S
C2099 C2103 1.393 . S
C2100 H2089 0.950 . S
C2100 C2098 1.391 . S
C2100 C2101 1.400 . S
C2101 C2095 1.491 1_455 S
C2101 C2100 1.400 . S
C2101 C2102 1.398 . S
C2102 H2090 0.950 . S
C2102 C2101 1.398 . S
C2102 C2103 1.391 . S
C2103 H2091 0.950 . S
C2103 C2099 1.393 . S
C2103 C2102 1.391 . S
H2104 C2112 0.950 . S
H2105 C2117 0.950 . S
H2106 C2114 0.950 . S
H2107 C2116 0.950 . S
H2108 C2118 0.950 . S
H2109 C2120 0.950 . S
H2110 C2122 0.950 . S
H2111 C2123 0.950 . S
C2112 H2104 0.950 . S
C2112 C2113 1.386 . S
C2112 C2114 1.391 . S
C2113 C2112 1.386 . S
C2113 C2117 1.393 . S
C2114 H2106 0.950 . S
C2114 C2112 1.391 . S
C2114 C2115 1.400 . S
C2115 C2114 1.400 . S
C2115 C2116 1.398 . S
C2115 C2121 1.491 1_565 S
C2116 H2107 0.950 . S
C2116 C2115 1.398 . S
C2116 C2117 1.391 . S
C2117 H2105 0.950 . S
C2117 C2113 1.393 . S
C2117 C2116 1.391 . S
C2118 H2108 0.950 . S
C2118 C2119 1.386 . S
C2118 C2120 1.391 . S
C2119 C2118 1.386 . S
C2119 C2123 1.393 . S
C2120 H2109 0.950 . S
C2120 C2118 1.391 . S
C2120 C2121 1.400 . S
C2121 C2115 1.491 1_545 S
C2121 C2120 1.400 . S
C2121 C2122 1.398 . S
C2122 H2110 0.950 . S
C2122 C2121 1.398 . S
C2122 C2123 1.391 . S
C2123 H2111 0.950 . S
C2123 C2119 1.393 . S
C2123 C2122 1.391 . S
H2124 C2132 0.950 . S
H2125 C2137 0.950 . S
H2126 C2134 0.950 . S
H2127 C2136 0.950 . S
H2128 C2138 0.950 . S
H2129 C2140 0.950 . S
H2130 C2142 0.950 . S
H2131 C2143 0.950 . S
C2132 H2124 0.950 . S
C2132 C2133 1.386 . S
C2132 C2134 1.391 . S
C2133 C2132 1.386 . S
C2133 C2137 1.393 . S
C2134 H2126 0.950 . S
C2134 C2132 1.391 . S
C2134 C2135 1.400 . S
C2135 C2134 1.400 . S
C2135 C2136 1.398 . S
C2135 C2141 1.491 1_565 S
C2136 H2127 0.950 . S
C2136 C2135 1.398 . S
C2136 C2137 1.391 . S
C2137 H2125 0.950 . S
C2137 C2133 1.393 . S
C2137 C2136 1.391 . S
C2138 H2128 0.950 . S
C2138 C2139 1.386 . S
C2138 C2140 1.391 . S
C2139 C2138 1.386 . S
C2139 C2143 1.393 . S
C2140 H2129 0.950 . S
C2140 C2138 1.391 . S
C2140 C2141 1.400 . S
C2141 C2135 1.491 1_545 S
C2141 C2140 1.400 . S
C2141 C2142 1.398 . S
C2142 H2130 0.950 . S
C2142 C2141 1.398 . S
C2142 C2143 1.391 . S
C2143 H2131 0.950 . S
C2143 C2139 1.393 . S
C2143 C2142 1.391 . S
H2144 C2152 0.950 . S
H2145 C2157 0.950 . S
H2146 C2154 0.950 . S
H2147 C2156 0.950 . S
H2148 C2158 0.950 . S
H2149 C2160 0.950 . S
H2150 C2162 0.950 . S
H2151 C2163 0.950 . S
C2152 H2144 0.950 . S
C2152 C2153 1.386 . S
C2152 C2154 1.391 . S
C2153 C2152 1.386 . S
C2153 C2157 1.393 . S
C2154 H2146 0.950 . S
C2154 C2152 1.391 . S
C2154 C2155 1.400 . S
C2155 C2154 1.400 . S
C2155 C2156 1.398 . S
C2155 C2161 1.491 . S
C2156 H2147 0.950 . S
C2156 C2155 1.398 . S
C2156 C2157 1.391 . S
C2157 H2145 0.950 . S
C2157 C2153 1.393 . S
C2157 C2156 1.391 . S
C2158 H2148 0.950 . S
C2158 C2159 1.386 . S
C2158 C2160 1.391 . S
C2159 C2158 1.386 . S
C2159 C2163 1.393 . S
C2160 H2149 0.950 . S
C2160 C2158 1.391 . S
C2160 C2161 1.400 . S
C2161 C2155 1.491 . S
C2161 C2160 1.400 . S
C2161 C2162 1.398 . S
C2162 H2150 0.950 . S
C2162 C2161 1.398 . S
C2162 C2163 1.391 . S
C2163 H2151 0.950 . S
C2163 C2159 1.393 . S
C2163 C2162 1.391 . S
H2164 C2172 0.950 . S
H2165 C2177 0.950 . S
H2166 C2174 0.950 . S
H2167 C2176 0.950 . S
H2168 C2178 0.950 . S
H2169 C2180 0.950 . S
H2170 C2182 0.950 . S
H2171 C2183 0.950 . S
C2172 H2164 0.950 . S
C2172 C2173 1.386 . S
C2172 C2174 1.391 . S
C2173 C2172 1.386 . S
C2173 C2177 1.393 . S
C2174 H2166 0.950 . S
C2174 C2172 1.391 . S
C2174 C2175 1.400 . S
C2175 C2174 1.400 . S
C2175 C2176 1.398 . S
C2175 C2181 1.491 . S
C2176 H2167 0.950 . S
C2176 C2175 1.398 . S
C2176 C2177 1.391 . S
C2177 H2165 0.950 . S
C2177 C2173 1.393 . S
C2177 C2176 1.391 . S
C2178 H2168 0.950 . S
C2178 C2179 1.386 . S
C2178 C2180 1.391 . S
C2179 C2178 1.386 . S
C2179 C2183 1.393 . S
C2180 H2169 0.950 . S
C2180 C2178 1.391 . S
C2180 C2181 1.400 . S
C2181 C2175 1.491 . S
C2181 C2180 1.400 . S
C2181 C2182 1.398 . S
C2182 H2170 0.950 . S
C2182 C2181 1.398 . S
C2182 C2183 1.391 . S
C2183 H2171 0.950 . S
C2183 C2179 1.393 . S
C2183 C2182 1.391 . S
H2184 C2192 0.950 . S
H2185 C2197 0.950 . S
H2186 C2194 0.950 . S
H2187 C2196 0.950 . S
H2188 C2198 0.950 . S
H2189 C2200 0.950 . S
H2190 C2202 0.950 . S
H2191 C2203 0.950 . S
C2192 H2184 0.950 . S
C2192 C2193 1.386 . S
C2192 C2194 1.391 . S
C2193 C2192 1.386 . S
C2193 C2197 1.393 . S
C2194 H2186 0.950 . S
C2194 C2192 1.391 . S
C2194 C2195 1.400 . S
C2195 C2194 1.400 . S
C2195 C2196 1.398 . S
C2195 C2201 1.491 . S
C2196 H2187 0.950 . S
C2196 C2195 1.398 . S
C2196 C2197 1.391 . S
C2197 H2185 0.950 . S
C2197 C2193 1.393 . S
C2197 C2196 1.391 . S
C2198 H2188 0.950 . S
C2198 C2199 1.386 . S
C2198 C2200 1.391 . S
C2199 C2198 1.386 . S
C2199 C2203 1.393 . S
C2200 H2189 0.950 . S
C2200 C2198 1.391 . S
C2200 C2201 1.400 . S
C2201 C2195 1.491 . S
C2201 C2200 1.400 . S
C2201 C2202 1.398 . S
C2202 H2190 0.950 . S
C2202 C2201 1.398 . S
C2202 C2203 1.391 . S
C2203 H2191 0.950 . S
C2203 C2199 1.393 . S
C2203 C2202 1.391 . S
H2204 C2212 0.950 . S
H2205 C2217 0.950 . S
H2206 C2214 0.950 . S
H2207 C2216 0.950 . S
H2208 C2218 0.950 . S
H2209 C2220 0.950 . S
H2210 C2222 0.950 . S
H2211 C2223 0.950 . S
C2212 H2204 0.950 . S
C2212 C2213 1.386 . S
C2212 C2214 1.391 . S
C2213 C2212 1.386 . S
C2213 C2217 1.393 . S
C2214 H2206 0.950 . S
C2214 C2212 1.391 . S
C2214 C2215 1.400 . S
C2215 C2214 1.400 . S
C2215 C2216 1.398 . S
C2215 C2221 1.491 . S
C2216 H2207 0.950 . S
C2216 C2215 1.398 . S
C2216 C2217 1.391 . S
C2217 H2205 0.950 . S
C2217 C2213 1.393 . S
C2217 C2216 1.391 . S
C2218 H2208 0.950 . S
C2218 C2219 1.386 . S
C2218 C2220 1.391 . S
C2219 C2218 1.386 . S
C2219 C2223 1.393 . S
C2220 H2209 0.950 . S
C2220 C2218 1.391 . S
C2220 C2221 1.400 . S
C2221 C2215 1.491 . S
C2221 C2220 1.400 . S
C2221 C2222 1.398 . S
C2222 H2210 0.950 . S
C2222 C2221 1.398 . S
C2222 C2223 1.391 . S
C2223 H2211 0.950 . S
C2223 C2219 1.393 . S
C2223 C2222 1.391 . S
H2224 C2232 0.950 . S
H2225 C2237 0.950 . S
H2226 C2234 0.950 . S
H2227 C2236 0.950 . S
H2228 C2238 0.950 . S
H2229 C2240 0.950 . S
H2230 C2242 0.950 . S
H2231 C2243 0.950 . S
C2232 H2224 0.950 . S
C2232 C2233 1.386 . S
C2232 C2234 1.391 . S
C2233 C2232 1.386 . S
C2233 C2237 1.393 . S
C2234 H2226 0.950 . S
C2234 C2232 1.391 . S
C2234 C2235 1.400 . S
C2235 C2234 1.400 . S
C2235 C2236 1.398 . S
C2235 C2241 1.491 . S
C2236 H2227 0.950 . S
C2236 C2235 1.398 . S
C2236 C2237 1.391 . S
C2237 H2225 0.950 . S
C2237 C2233 1.393 . S
C2237 C2236 1.391 . S
C2238 H2228 0.950 . S
C2238 C2239 1.386 . S
C2238 C2240 1.391 . S
C2239 C2238 1.386 . S
C2239 C2243 1.393 . S
C2240 H2229 0.950 . S
C2240 C2238 1.391 . S
C2240 C2241 1.400 . S
C2241 C2235 1.491 . S
C2241 C2240 1.400 . S
C2241 C2242 1.398 . S
C2242 H2230 0.950 . S
C2242 C2241 1.398 . S
C2242 C2243 1.391 . S
C2243 H2231 0.950 . S
C2243 C2239 1.393 . S
C2243 C2242 1.391 . S
H2244 C2252 0.950 . S
H2245 C2257 0.950 . S
H2246 C2254 0.950 . S
H2247 C2256 0.950 . S
H2248 C2258 0.950 . S
H2249 C2260 0.950 . S
H2250 C2262 0.950 . S
H2251 C2263 0.950 . S
C2252 H2244 0.950 . S
C2252 C2253 1.386 . S
C2252 C2254 1.391 . S
C2253 C2252 1.386 . S
C2253 C2257 1.393 . S
C2254 H2246 0.950 . S
C2254 C2252 1.391 . S
C2254 C2255 1.400 . S
C2255 C2254 1.400 . S
C2255 C2256 1.398 . S
C2255 C2261 1.491 . S
C2256 H2247 0.950 . S
C2256 C2255 1.398 . S
C2256 C2257 1.391 . S
C2257 H2245 0.950 . S
C2257 C2253 1.393 . S
C2257 C2256 1.391 . S
C2258 H2248 0.950 . S
C2258 C2259 1.386 . S
C2258 C2260 1.391 . S
C2259 C2258 1.386 . S
C2259 C2263 1.393 . S
C2260 H2249 0.950 . S
C2260 C2258 1.391 . S
C2260 C2261 1.400 . S
C2261 C2255 1.491 . S
C2261 C2260 1.400 . S
C2261 C2262 1.398 . S
C2262 H2250 0.950 . S
C2262 C2261 1.398 . S
C2262 C2263 1.391 . S
C2263 H2251 0.950 . S
C2263 C2259 1.393 . S
C2263 C2262 1.391 . S
H2264 C2272 0.950 . S
H2265 C2277 0.950 . S
H2266 C2274 0.950 . S
H2267 C2276 0.950 . S
H2268 C2278 0.950 . S
H2269 C2280 0.950 . S
H2270 C2282 0.950 . S
H2271 C2283 0.950 . S
C2272 H2264 0.950 . S
C2272 C2273 1.386 . S
C2272 C2274 1.391 . S
C2273 C2272 1.386 . S
C2273 C2277 1.393 . S
C2274 H2266 0.950 . S
C2274 C2272 1.391 . S
C2274 C2275 1.400 . S
C2275 C2274 1.400 . S
C2275 C2276 1.398 . S
C2275 C2281 1.491 . S
C2276 H2267 0.950 . S
C2276 C2275 1.398 . S
C2276 C2277 1.391 . S
C2277 H2265 0.950 . S
C2277 C2273 1.393 . S
C2277 C2276 1.391 . S
C2278 H2268 0.950 . S
C2278 C2279 1.386 . S
C2278 C2280 1.391 . S
C2279 C2278 1.386 . S
C2279 C2283 1.393 . S
C2280 H2269 0.950 . S
C2280 C2278 1.391 . S
C2280 C2281 1.400 . S
C2281 C2275 1.491 . S
C2281 C2280 1.400 . S
C2281 C2282 1.398 . S
C2282 H2270 0.950 . S
C2282 C2281 1.398 . S
C2282 C2283 1.391 . S
C2283 H2271 0.950 . S
C2283 C2279 1.393 . S
C2283 C2282 1.391 . S
H2284 C2292 0.950 . S
H2285 C2297 0.950 . S
H2286 C2294 0.950 . S
H2287 C2296 0.950 . S
H2288 C2298 0.950 . S
H2289 C2300 0.950 . S
H2290 C2302 0.950 . S
H2291 C2303 0.950 . S
C2292 H2284 0.950 . S
C2292 C2293 1.386 . S
C2292 C2294 1.391 . S
C2293 C2292 1.386 . S
C2293 C2297 1.393 . S
C2294 H2286 0.950 . S
C2294 C2292 1.391 . S
C2294 C2295 1.400 . S
C2295 C2294 1.400 . S
C2295 C2296 1.398 . S
C2295 C2301 1.491 . S
C2296 H2287 0.950 . S
C2296 C2295 1.398 . S
C2296 C2297 1.391 . S
C2297 H2285 0.950 . S
C2297 C2293 1.393 . S
C2297 C2296 1.391 . S
C2298 H2288 0.950 . S
C2298 C2299 1.386 . S
C2298 C2300 1.391 . S
C2299 C2298 1.386 . S
C2299 C2303 1.393 . S
C2300 H2289 0.950 . S
C2300 C2298 1.391 . S
C2300 C2301 1.400 . S
C2301 C2295 1.491 . S
C2301 C2300 1.400 . S
C2301 C2302 1.398 . S
C2302 H2290 0.950 . S
C2302 C2301 1.398 . S
C2302 C2303 1.391 . S
C2303 H2291 0.950 . S
C2303 C2299 1.393 . S
C2303 C2302 1.391 . S
H2304 C2312 0.950 . S
H2305 C2317 0.950 . S
H2306 C2314 0.950 . S
H2307 C2316 0.950 . S
H2308 C2318 0.950 . S
H2309 C2320 0.950 . S
H2310 C2322 0.950 . S
H2311 C2323 0.950 . S
C2312 H2304 0.950 . S
C2312 C2313 1.386 . S
C2312 C2314 1.391 . S
C2313 C2312 1.386 . S
C2313 C2317 1.393 . S
C2314 H2306 0.950 . S
C2314 C2312 1.391 . S
C2314 C2315 1.400 . S
C2315 C2314 1.400 . S
C2315 C2316 1.398 . S
C2315 C2321 1.491 . S
C2316 H2307 0.950 . S
C2316 C2315 1.398 . S
C2316 C2317 1.391 . S
C2317 H2305 0.950 . S
C2317 C2313 1.393 . S
C2317 C2316 1.391 . S
C2318 H2308 0.950 . S
C2318 C2319 1.386 . S
C2318 C2320 1.391 . S
C2319 C2318 1.386 . S
C2319 C2323 1.393 . S
C2320 H2309 0.950 . S
C2320 C2318 1.391 . S
C2320 C2321 1.400 . S
C2321 C2315 1.491 . S
C2321 C2320 1.400 . S
C2321 C2322 1.398 . S
C2322 H2310 0.950 . S
C2322 C2321 1.398 . S
C2322 C2323 1.391 . S
C2323 H2311 0.950 . S
C2323 C2319 1.393 . S
C2323 C2322 1.391 . S
H2324 C2332 0.950 . S
H2325 C2337 0.950 . S
H2326 C2334 0.950 . S
H2327 C2336 0.950 . S
H2328 C2338 0.950 . S
H2329 C2340 0.950 . S
H2330 C2342 0.950 . S
H2331 C2343 0.950 . S
C2332 H2324 0.950 . S
C2332 C2333 1.386 . S
C2332 C2334 1.391 . S
C2333 C2332 1.386 . S
C2333 C2337 1.393 . S
C2334 H2326 0.950 . S
C2334 C2332 1.391 . S
C2334 C2335 1.400 . S
C2335 C2334 1.400 . S
C2335 C2336 1.398 . S
C2335 C2341 1.491 . S
C2336 H2327 0.950 . S
C2336 C2335 1.398 . S
C2336 C2337 1.391 . S
C2337 H2325 0.950 . S
C2337 C2333 1.393 . S
C2337 C2336 1.391 . S
C2338 H2328 0.950 . S
C2338 C2339 1.386 . S
C2338 C2340 1.391 . S
C2339 C2338 1.386 . S
C2339 C2343 1.393 . S
C2340 H2329 0.950 . S
C2340 C2338 1.391 . S
C2340 C2341 1.400 . S
C2341 C2335 1.491 . S
C2341 C2340 1.400 . S
C2341 C2342 1.398 . S
C2342 H2330 0.950 . S
C2342 C2341 1.398 . S
C2342 C2343 1.391 . S
C2343 H2331 0.950 . S
C2343 C2339 1.393 . S
C2343 C2342 1.391 . S
H2344 C2352 0.950 . S
H2345 C2357 0.950 . S
H2346 C2354 0.950 . S
H2347 C2356 0.950 . S
H2348 C2358 0.950 . S
H2349 C2360 0.950 . S
H2350 C2362 0.950 . S
H2351 C2363 0.950 . S
C2352 H2344 0.950 . S
C2352 C2353 1.386 . S
C2352 C2354 1.391 . S
C2353 C2352 1.386 . S
C2353 C2357 1.393 . S
C2354 H2346 0.950 . S
C2354 C2352 1.391 . S
C2354 C2355 1.400 . S
C2355 C2354 1.400 . S
C2355 C2356 1.398 . S
C2355 C2361 1.491 . S
C2356 H2347 0.950 . S
C2356 C2355 1.398 . S
C2356 C2357 1.391 . S
C2357 H2345 0.950 . S
C2357 C2353 1.393 . S
C2357 C2356 1.391 . S
C2358 H2348 0.950 . S
C2358 C2359 1.386 . S
C2358 C2360 1.391 . S
C2359 C2358 1.386 . S
C2359 C2363 1.393 . S
C2360 H2349 0.950 . S
C2360 C2358 1.391 . S
C2360 C2361 1.400 . S
C2361 C2355 1.491 . S
C2361 C2360 1.400 . S
C2361 C2362 1.398 . S
C2362 H2350 0.950 . S
C2362 C2361 1.398 . S
C2362 C2363 1.391 . S
C2363 H2351 0.950 . S
C2363 C2359 1.393 . S
C2363 C2362 1.391 . S
H2364 C2372 0.950 . S
H2365 C2377 0.950 . S
H2366 C2374 0.950 . S
H2367 C2376 0.950 . S
H2368 C2378 0.950 . S
H2369 C2380 0.950 . S
H2370 C2382 0.950 . S
H2371 C2383 0.950 . S
C2372 H2364 0.950 . S
C2372 C2373 1.386 . S
C2372 C2374 1.391 . S
C2373 C2372 1.386 . S
C2373 C2377 1.393 . S
C2374 H2366 0.950 . S
C2374 C2372 1.391 . S
C2374 C2375 1.400 . S
C2375 C2374 1.400 . S
C2375 C2376 1.398 . S
C2375 C2381 1.491 . S
C2376 H2367 0.950 . S
C2376 C2375 1.398 . S
C2376 C2377 1.391 . S
C2377 H2365 0.950 . S
C2377 C2373 1.393 . S
C2377 C2376 1.391 . S
C2378 H2368 0.950 . S
C2378 C2379 1.386 . S
C2378 C2380 1.391 . S
C2379 C2378 1.386 . S
C2379 C2383 1.393 . S
C2380 H2369 0.950 . S
C2380 C2378 1.391 . S
C2380 C2381 1.400 . S
C2381 C2375 1.491 . S
C2381 C2380 1.400 . S
C2381 C2382 1.398 . S
C2382 H2370 0.950 . S
C2382 C2381 1.398 . S
C2382 C2383 1.391 . S
C2383 H2371 0.950 . S
C2383 C2379 1.393 . S
C2383 C2382 1.391 . S
H2384 C2392 0.950 . S
H2385 C2397 0.950 . S
H2386 C2394 0.950 . S
H2387 C2396 0.950 . S
H2388 C2398 0.950 . S
H2389 C2400 0.950 . S
H2390 C2402 0.950 . S
H2391 C2403 0.950 . S
C2392 H2384 0.950 . S
C2392 C2393 1.386 . S
C2392 C2394 1.391 . S
C2393 C2392 1.386 . S
C2393 C2397 1.393 . S
C2394 H2386 0.950 . S
C2394 C2392 1.391 . S
C2394 C2395 1.400 . S
C2395 C2394 1.400 . S
C2395 C2396 1.398 . S
C2395 C2401 1.491 . S
C2396 H2387 0.950 . S
C2396 C2395 1.398 . S
C2396 C2397 1.391 . S
C2397 H2385 0.950 . S
C2397 C2393 1.393 . S
C2397 C2396 1.391 . S
C2398 H2388 0.950 . S
C2398 C2399 1.386 . S
C2398 C2400 1.391 . S
C2399 C2398 1.386 . S
C2399 C2403 1.393 . S
C2400 H2389 0.950 . S
C2400 C2398 1.391 . S
C2400 C2401 1.400 . S
C2401 C2395 1.491 . S
C2401 C2400 1.400 . S
C2401 C2402 1.398 . S
C2402 H2390 0.950 . S
C2402 C2401 1.398 . S
C2402 C2403 1.391 . S
C2403 H2391 0.950 . S
C2403 C2399 1.393 . S
C2403 C2402 1.391 . S
H2404 C2412 0.950 . S
H2405 C2417 0.950 . S
H2406 C2414 0.950 . S
H2407 C2416 0.950 . S
H2408 C2418 0.950 . S
H2409 C2420 0.950 . S
H2410 C2422 0.950 . S
H2411 C2423 0.950 . S
C2412 H2404 0.950 . S
C2412 C2413 1.386 . S
C2412 C2414 1.391 . S
C2413 C2412 1.386 . S
C2413 C2417 1.393 . S
C2414 H2406 0.950 . S
C2414 C2412 1.391 . S
C2414 C2415 1.400 . S
C2415 C2414 1.400 . S
C2415 C2416 1.398 . S
C2415 C2421 1.491 . S
C2416 H2407 0.950 . S
C2416 C2415 1.398 . S
C2416 C2417 1.391 . S
C2417 H2405 0.950 . S
C2417 C2413 1.393 . S
C2417 C2416 1.391 . S
C2418 H2408 0.950 . S
C2418 C2419 1.386 . S
C2418 C2420 1.391 . S
C2419 C2418 1.386 . S
C2419 C2423 1.393 . S
C2420 H2409 0.950 . S
C2420 C2418 1.391 . S
C2420 C2421 1.400 . S
C2421 C2415 1.491 . S
C2421 C2420 1.400 . S
C2421 C2422 1.398 . S
C2422 H2410 0.950 . S
C2422 C2421 1.398 . S
C2422 C2423 1.391 . S
C2423 H2411 0.950 . S
C2423 C2419 1.393 . S
C2423 C2422 1.391 . S
H2424 C2432 0.950 . S
H2425 C2437 0.950 . S
H2426 C2434 0.950 . S
H2427 C2436 0.950 . S
H2428 C2438 0.950 . S
H2429 C2440 0.950 . S
H2430 C2442 0.950 . S
H2431 C2443 0.950 . S
C2432 H2424 0.950 . S
C2432 C2433 1.386 . S
C2432 C2434 1.391 . S
C2433 C2432 1.386 . S
C2433 C2437 1.393 . S
C2434 H2426 0.950 . S
C2434 C2432 1.391 . S
C2434 C2435 1.400 . S
C2435 C2434 1.400 . S
C2435 C2436 1.398 . S
C2435 C2441 1.491 . S
C2436 H2427 0.950 . S
C2436 C2435 1.398 . S
C2436 C2437 1.391 . S
C2437 H2425 0.950 . S
C2437 C2433 1.393 . S
C2437 C2436 1.391 . S
C2438 H2428 0.950 . S
C2438 C2439 1.386 . S
C2438 C2440 1.391 . S
C2439 C2438 1.386 . S
C2439 C2443 1.393 . S
C2440 H2429 0.950 . S
C2440 C2438 1.391 . S
C2440 C2441 1.400 . S
C2441 C2435 1.491 . S
C2441 C2440 1.400 . S
C2441 C2442 1.398 . S
C2442 H2430 0.950 . S
C2442 C2441 1.398 . S
C2442 C2443 1.391 . S
C2443 H2431 0.950 . S
C2443 C2439 1.393 . S
C2443 C2442 1.391 . S
H2444 C2452 0.950 . S
H2445 C2457 0.950 . S
H2446 C2454 0.950 . S
H2447 C2456 0.950 . S
H2448 C2458 0.950 . S
H2449 C2460 0.950 . S
H2450 C2462 0.950 . S
H2451 C2463 0.950 . S
C2452 H2444 0.950 . S
C2452 C2453 1.386 . S
C2452 C2454 1.391 . S
C2453 C2452 1.386 . S
C2453 C2457 1.393 . S
C2454 H2446 0.950 . S
C2454 C2452 1.391 . S
C2454 C2455 1.400 . S
C2455 C2454 1.400 . S
C2455 C2456 1.398 . S
C2455 C2461 1.491 . S
C2456 H2447 0.950 . S
C2456 C2455 1.398 . S
C2456 C2457 1.391 . S
C2457 H2445 0.950 . S
C2457 C2453 1.393 . S
C2457 C2456 1.391 . S
C2458 H2448 0.950 . S
C2458 C2459 1.386 . S
C2458 C2460 1.391 . S
C2459 C2458 1.386 . S
C2459 C2463 1.393 . S
C2460 H2449 0.950 . S
C2460 C2458 1.391 . S
C2460 C2461 1.400 . S
C2461 C2455 1.491 . S
C2461 C2460 1.400 . S
C2461 C2462 1.398 . S
C2462 H2450 0.950 . S
C2462 C2461 1.398 . S
C2462 C2463 1.391 . S
C2463 H2451 0.950 . S
C2463 C2459 1.393 . S
C2463 C2462 1.391 . S
H2464 C2472 0.950 . S
H2465 C2477 0.950 . S
H2466 C2474 0.950 . S
H2467 C2476 0.950 . S
H2468 C2478 0.950 . S
H2469 C2480 0.950 . S
H2470 C2482 0.950 . S
H2471 C2483 0.950 . S
C2472 H2464 0.950 . S
C2472 C2473 1.386 . S
C2472 C2474 1.391 . S
C2473 C2472 1.386 . S
C2473 C2477 1.393 . S
C2474 H2466 0.950 . S
C2474 C2472 1.391 . S
C2474 C2475 1.400 . S
C2475 C2474 1.400 . S
C2475 C2476 1.398 . S
C2475 C2481 1.491 . S
C2476 H2467 0.950 . S
C2476 C2475 1.398 . S
C2476 C2477 1.391 . S
C2477 H2465 0.950 . S
C2477 C2473 1.393 . S
C2477 C2476 1.391 . S
C2478 H2468 0.950 . S
C2478 C2479 1.386 . S
C2478 C2480 1.391 . S
C2479 C2478 1.386 . S
C2479 C2483 1.393 . S
C2480 H2469 0.950 . S
C2480 C2478 1.391 . S
C2480 C2481 1.400 . S
C2481 C2475 1.491 . S
C2481 C2480 1.400 . S
C2481 C2482 1.398 . S
C2482 H2470 0.950 . S
C2482 C2481 1.398 . S
C2482 C2483 1.391 . S
C2483 H2471 0.950 . S
C2483 C2479 1.393 . S
C2483 C2482 1.391 . S
H2484 C2492 0.950 . S
H2485 C2497 0.950 . S
H2486 C2494 0.950 . S
H2487 C2496 0.950 . S
H2488 C2498 0.950 . S
H2489 C2500 0.950 . S
H2490 C2502 0.950 . S
H2491 C2503 0.950 . S
C2492 H2484 0.950 . S
C2492 C2493 1.386 . S
C2492 C2494 1.391 . S
C2493 C2492 1.386 . S
C2493 C2497 1.393 . S
C2494 H2486 0.950 . S
C2494 C2492 1.391 . S
C2494 C2495 1.400 . S
C2495 C2494 1.400 . S
C2495 C2496 1.398 . S
C2495 C2501 1.491 . S
C2496 H2487 0.950 . S
C2496 C2495 1.398 . S
C2496 C2497 1.391 . S
C2497 H2485 0.950 . S
C2497 C2493 1.393 . S
C2497 C2496 1.391 . S
C2498 H2488 0.950 . S
C2498 C2499 1.386 . S
C2498 C2500 1.391 . S
C2499 C2498 1.386 . S
C2499 C2503 1.393 . S
C2500 H2489 0.950 . S
C2500 C2498 1.391 . S
C2500 C2501 1.400 . S
C2501 C2495 1.491 . S
C2501 C2500 1.400 . S
C2501 C2502 1.398 . S
C2502 H2490 0.950 . S
C2502 C2501 1.398 . S
C2502 C2503 1.391 . S
C2503 H2491 0.950 . S
C2503 C2499 1.393 . S
C2503 C2502 1.391 . S
H2504 C2512 0.950 . S
H2505 C2517 0.950 . S
H2506 C2514 0.950 . S
H2507 C2516 0.950 . S
H2508 C2518 0.950 . S
H2509 C2520 0.950 . S
H2510 C2522 0.950 . S
H2511 C2523 0.950 . S
C2512 H2504 0.950 . S
C2512 C2513 1.386 . S
C2512 C2514 1.391 . S
C2513 C2512 1.386 . S
C2513 C2517 1.393 . S
C2514 H2506 0.950 . S
C2514 C2512 1.391 . S
C2514 C2515 1.400 . S
C2515 C2514 1.400 . S
C2515 C2516 1.398 . S
C2515 C2521 1.491 . S
C2516 H2507 0.950 . S
C2516 C2515 1.398 . S
C2516 C2517 1.391 . S
C2517 H2505 0.950 . S
C2517 C2513 1.393 . S
C2517 C2516 1.391 . S
C2518 H2508 0.950 . S
C2518 C2519 1.386 . S
C2518 C2520 1.391 . S
C2519 C2518 1.386 . S
C2519 C2523 1.393 . S
C2520 H2509 0.950 . S
C2520 C2518 1.391 . S
C2520 C2521 1.400 . S
C2521 C2515 1.491 . S
C2521 C2520 1.400 . S
C2521 C2522 1.398 . S
C2522 H2510 0.950 . S
C2522 C2521 1.398 . S
C2522 C2523 1.391 . S
C2523 H2511 0.950 . S
C2523 C2519 1.393 . S
C2523 C2522 1.391 . S
H2524 C2532 0.950 . S
H2525 C2537 0.950 . S
H2526 C2534 0.950 . S
H2527 C2536 0.950 . S
H2528 C2538 0.950 . S
H2529 C2540 0.950 . S
H2530 C2542 0.950 . S
H2531 C2543 0.950 . S
C2532 H2524 0.950 . S
C2532 C2533 1.386 . S
C2532 C2534 1.391 . S
C2533 C2532 1.386 . S
C2533 C2537 1.393 . S
C2534 H2526 0.950 . S
C2534 C2532 1.391 . S
C2534 C2535 1.400 . S
C2535 C2534 1.400 . S
C2535 C2536 1.398 . S
C2535 C2541 1.491 . S
C2536 H2527 0.950 . S
C2536 C2535 1.398 . S
C2536 C2537 1.391 . S
C2537 H2525 0.950 . S
C2537 C2533 1.393 . S
C2537 C2536 1.391 . S
C2538 H2528 0.950 . S
C2538 C2539 1.386 . S
C2538 C2540 1.391 . S
C2539 C2538 1.386 . S
C2539 C2543 1.393 . S
C2540 H2529 0.950 . S
C2540 C2538 1.391 . S
C2540 C2541 1.400 . S
C2541 C2535 1.491 . S
C2541 C2540 1.400 . S
C2541 C2542 1.398 . S
C2542 H2530 0.950 . S
C2542 C2541 1.398 . S
C2542 C2543 1.391 . S
C2543 H2531 0.950 . S
C2543 C2539 1.393 . S
C2543 C2542 1.391 . S
H2544 C2552 0.950 . S
H2545 C2557 0.950 . S
H2546 C2554 0.950 . S
H2547 C2556 0.950 . S
H2548 C2558 0.950 . S
H2549 C2560 0.950 . S
H2550 C2562 0.950 . S
H2551 C2563 0.950 . S
C2552 H2544 0.950 . S
C2552 C2553 1.386 . S
C2552 C2554 1.391 . S
C2553 C2552 1.386 . S
C2553 C2557 1.393 . S
C2554 H2546 0.950 . S
C2554 C2552 1.391 . S
C2554 C2555 1.400 . S
C2555 C2554 1.400 . S
C2555 C2556 1.398 . S
C2555 C2561 1.491 . S
C2556 H2547 0.950 . S
C2556 C2555 1.398 . S
C2556 C2557 1.391 . S
C2557 H2545 0.950 . S
C2557 C2553 1.393 . S
C2557 C2556 1.391 . S
C2558 H2548 0.950 . S
C2558 C2559 1.386 . S
C2558 C2560 1.391 . S
C2559 C2558 1.386 . S
C2559 C2563 1.393 . S
C2560 H2549 0.950 . S
C2560 C2558 1.391 . S
C2560 C2561 1.400 . S
C2561 C2555 1.491 . S
C2561 C2560 1.400 . S
C2561 C2562 1.398 . S
C2562 H2550 0.950 . S
C2562 C2561 1.398 . S
C2562 C2563 1.391 . S
C2563 H2551 0.950 . S
C2563 C2559 1.393 . S
C2563 C2562 1.391 . S
H2564 C2572 0.950 . S
H2565 C2577 0.950 . S
H2566 C2574 0.950 . S
H2567 C2576 0.950 . S
H2568 C2578 0.950 . S
H2569 C2580 0.950 . S
H2570 C2582 0.950 . S
H2571 C2583 0.950 . S
C2572 H2564 0.950 . S
C2572 C2573 1.386 . S
C2572 C2574 1.391 . S
C2573 C2572 1.386 . S
C2573 C2577 1.393 . S
C2574 H2566 0.950 . S
C2574 C2572 1.391 . S
C2574 C2575 1.400 . S
C2575 C2574 1.400 . S
C2575 C2576 1.398 . S
C2575 C2581 1.491 . S
C2576 H2567 0.950 . S
C2576 C2575 1.398 . S
C2576 C2577 1.391 . S
C2577 H2565 0.950 . S
C2577 C2573 1.393 . S
C2577 C2576 1.391 . S
C2578 H2568 0.950 . S
C2578 C2579 1.386 . S
C2578 C2580 1.391 . S
C2579 C2578 1.386 . S
C2579 C2583 1.393 . S
C2580 H2569 0.950 . S
C2580 C2578 1.391 . S
C2580 C2581 1.400 . S
C2581 C2575 1.491 . S
C2581 C2580 1.400 . S
C2581 C2582 1.398 . S
C2582 H2570 0.950 . S
C2582 C2581 1.398 . S
C2582 C2583 1.391 . S
C2583 H2571 0.950 . S
C2583 C2579 1.393 . S
C2583 C2582 1.391 . S
H2584 C2592 0.950 . S
H2585 C2597 0.950 . S
H2586 C2594 0.950 . S
H2587 C2596 0.950 . S
H2588 C2598 0.950 . S
H2589 C2600 0.950 . S
H2590 C2602 0.950 . S
H2591 C2603 0.950 . S
C2592 H2584 0.950 . S
C2592 C2593 1.386 . S
C2592 C2594 1.391 . S
C2593 C2592 1.386 . S
C2593 C2597 1.393 . S
C2594 H2586 0.950 . S
C2594 C2592 1.391 . S
C2594 C2595 1.400 . S
C2595 C2594 1.400 . S
C2595 C2596 1.398 . S
C2595 C2601 1.491 . S
C2596 H2587 0.950 . S
C2596 C2595 1.398 . S
C2596 C2597 1.391 . S
C2597 H2585 0.950 . S
C2597 C2593 1.393 . S
C2597 C2596 1.391 . S
C2598 H2588 0.950 . S
C2598 C2599 1.386 . S
C2598 C2600 1.391 . S
C2599 C2598 1.386 . S
C2599 C2603 1.393 . S
C2600 H2589 0.950 . S
C2600 C2598 1.391 . S
C2600 C2601 1.400 . S
C2601 C2595 1.491 . S
C2601 C2600 1.400 . S
C2601 C2602 1.398 . S
C2602 H2590 0.950 . S
C2602 C2601 1.398 . S
C2602 C2603 1.391 . S
C2603 H2591 0.950 . S
C2603 C2599 1.393 . S
C2603 C2602 1.391 . S
H2604 C2612 0.950 . S
H2605 C2617 0.950 . S
H2606 C2614 0.950 . S
H2607 C2616 0.950 . S
H2608 C2618 0.950 . S
H2609 C2620 0.950 . S
H2610 C2622 0.950 . S
H2611 C2623 0.950 . S
C2612 H2604 0.950 . S
C2612 C2613 1.386 . S
C2612 C2614 1.391 . S
C2613 C2612 1.386 . S
C2613 C2617 1.393 . S
C2614 H2606 0.950 . S
C2614 C2612 1.391 . S
C2614 C2615 1.400 . S
C2615 C2614 1.400 . S
C2615 C2616 1.398 . S
C2615 C2621 1.491 . S
C2616 H2607 0.950 . S
C2616 C2615 1.398 . S
C2616 C2617 1.391 . S
C2617 H2605 0.950 . S
C2617 C2613 1.393 . S
C2617 C2616 1.391 . S
C2618 H2608 0.950 . S
C2618 C2619 1.386 . S
C2618 C2620 1.391 . S
C2619 C2618 1.386 . S
C2619 C2623 1.393 . S
C2620 H2609 0.950 . S
C2620 C2618 1.391 . S
C2620 C2621 1.400 . S
C2621 C2615 1.491 . S
C2621 C2620 1.400 . S
C2621 C2622 1.398 . S
C2622 H2610 0.950 . S
C2622 C2621 1.398 . S
C2622 C2623 1.391 . S
C2623 H2611 0.950 . S
C2623 C2619 1.393 . S
C2623 C2622 1.391 . S
C713 C367 1.014 . S
C719 C21 1.012 . S
C733 C513 1.012 . S
C739 C37 1.014 . S
C753 C59 1.011 . S
C759 C469 1.012 . S
C773 C73 1.014 . S
C779 C491 1.012 . S
C793 C109 1.014 . S
C799 C389 1.013 . S
C813 C117 1.014 . S
C819 C411 1.012 . S
C833 C425 1.011 . S
C839 C139 1.012 . S
C853 C161 1.011 . S
C859 C447 1.013 . S
C873 C197 1.014 . S
C879 C15 1.011 . S
C893 C29 1.013 . S
C899 C219 1.011 . S
C913 C227 1.014 . S
C919 C51 1.012 . S
C933 C87 1.015 . S
C939 C263 1.012 . S
C953 C103 1.014 . S
C959 C271 1.013 . S
C973 C307 1.014 . S
C979 C131 1.013 . S
C993 C153 1.011 . S
C999 C329 1.013 . S
C1013 C337 1.011 . S
C1019 C175 1.013 . S
C1033 C191 1.014 . S
C1039 C373 1.011 . S
C1053 C395 1.011 . S
C1059 C285 1.013 . S
C1073 C417 1.012 . S
C1079 C301 1.012 . S
C1093 C323 1.013 . S
C1099 C433 1.011 . S
C1113 C455 1.014 . S
C1119 C351 1.011 . S
C1133 C477 1.012 . S
C1139 C241 1.011 . S
C1153 C257 1.014 . S
C1159 C499 1.013 . S
C1173 C521 1.014 . S
C1179 C213 1.011 . S
C1193 C689 1.014 . S
C1199 C345 1.012 . S
C1213 C293 1.014 . S
C1219 C667 1.011 . S
C1233 C631 1.011 . S
C1239 C249 1.014 . S
C1253 C653 1.014 . S
C1259 C205 1.012 . S
C1273 C381 1.014 . S
C1279 C549 1.012 . S
C1293 C439 1.013 . S
C1299 C557 1.014 . S
C1313 C579 1.015 . S
C1319 C359 1.011 . S
C1333 C601 1.011 . S
C1339 C483 1.015 . S
C1353 C543 1.014 . S
C1359 C95 1.012 . S
C1373 C593 1.011 . S
C1379 C7 1.012 . S
C1393 C81 1.014 . S
C1399 C637 1.013 . S
C1413 C615 1.011 . S
C1419 C65 1.013 . S
C1433 C659 1.011 . S
C1439 C43 1.012 . S
C1453 C147 1.014 . S
C1459 C571 1.012 . S
C1473 C675 1.011 . S
C1479 C125 1.013 . S
C1493 C169 1.011 . S
C1499 C697 1.012 . S
C1513 C315 1.011 . S
C1519 C565 1.012 . S
C1533 C279 1.011 . S
C1539 C535 1.013 . S
C1553 C609 1.011 . S
C1559 C235 1.014 . S
C1573 C587 1.011 . S
C1579 C183 1.013 . S
C1593 C403 1.014 . S
C1599 C681 1.012 . S
C1613 C461 1.014 . S
C1619 C703 1.011 . S
C1633 C645 1.014 . S
C1639 C527 1.011 . S
C1653 C505 1.011 . S
C1659 C623 1.013 . S
C1673 C84 1.570 . S
C1679 C10 1.576 . S
C1693 C40 1.569 . S
C1699 C8 1.576 . S
C1713 C32 1.570 . S
C1719 C62 1.574 . S
C1733 C54 1.576 . S
C1739 C74 1.569 . S
C1753 C128 1.572 . S
C1759 C98 1.572 . S
C1773 C150 1.570 . S
C1779 C118 1.576 . S
C1793 C140 1.571 . S
C1799 C172 1.573 . S
C1813 C162 1.573 . S
C1819 C96 1.571 . S
C1833 C186 1.570 . S
C1839 C404 1.574 . S
C1853 C428 1.570 . S
C1859 C208 1.576 . S
C1873 C450 1.571 . S
C1879 C228 1.575 . S
C1893 C252 1.570 . S
C1899 C382 1.576 . S
C1913 C272 1.570 . S
C1919 C494 1.576 . S
C1933 C360 1.575 . S
C1939 C296 1.569 . S
C1953 C516 1.574 . S
C1959 C318 1.572 . S
C1973 C338 1.573 . S
C1979 C472 1.571 . S
C1993 C362 1.570 . S
C1999 C206 1.576 . S
C2013 C384 1.570 . S
C2019 C348 1.576 . S
C2033 C282 1.572 . S
C2039 C406 1.572 . S
C2053 C294 1.575 . S
C2059 C436 1.569 . S
C2073 C458 1.571 . S
C2079 C316 1.575 . S
C2093 C480 1.575 . S
C2099 C250 1.570 . S
C2113 C502 1.570 . S
C2119 C184 1.575 . S
C2133 C238 1.576 . S
C2139 C524 1.569 . S
C2153 C392 1.569 . S
C2159 C304 1.575 . S
C2173 C340 1.570 . S
C2179 C426 1.576 . S
C2193 C370 1.575 . S
C2199 C260 1.569 . S
C2213 C216 1.569 . S
C2219 C470 1.576 . S
C2233 C538 1.569 . S
C2239 C624 1.575 . S
C2253 C52 1.569 . S
C2259 C164 1.576 . S
C2273 C558 1.575 . S
C2279 C646 1.571 . S
C2293 C120 1.569 . S
C2299 C18 1.576 . S
C2313 C670 1.570 . S
C2319 C580 1.574 . S
C2333 C76 1.574 . S
C2339 C106 1.572 . S
C2353 C602 1.575 . S
C2359 C692 1.572 . S
C2373 C142 1.569 . S
C2379 C30 1.576 . S
C2393 C626 1.569 . S
C2399 C590 1.575 . S
C2413 C612 1.576 . S
C2419 C648 1.569 . S
C2433 C536 1.573 . S
C2439 C678 1.573 . S
C2453 C568 1.576 . S
C2459 C700 1.569 . S
C2473 C414 1.576 . S
C2479 C326 1.570 . S
C2493 C448 1.574 . S
C2499 C274 1.570 . S
C2513 C194 1.576 . S
C2519 C514 1.570 . S
C2533 C230 1.574 . S
C2539 C492 1.570 . S
C2553 C668 1.576 . S
C2559 C560 1.570 . S
C2573 C634 1.571 . S
C2579 C604 1.576 . S
C2593 C656 1.576 . S
C2599 C582 1.569 . S
C2613 C546 1.569 . S
C2619 C690 1.575 . S
