# Generated by pormake.
# Topology wnr, (7)-cn, num edge types: 1
# Building blocks:
#     Node 0, Type 0, BuildingBlock: NUHQUE_clean_sbu_2, # of connection points: 7
#     Node 1, Type 0, BuildingBlock: NUHQUE_clean_sbu_2, # of connection points: 7
#     Node 2, Type 0, BuildingBlock: NUHQUE_clean_sbu_2, # of connection points: 7
#     Node 3, Type 0, BuildingBlock: NUHQUE_clean_sbu_2, # of connection points: 7
#     Node 4, Type 0, BuildingBlock: NUHQUE_clean_sbu_2, # of connection points: 7
#     Node 5, Type 0, BuildingBlock: NUHQUE_clean_sbu_2, # of connection points: 7
#     Edge 6, Type (0, 0), BuildingBlock: EZIPEK_clean_linker_0, # of connection points: 2
#     Edge 7, Type (0, 0), BuildingBlock: EZIPEK_clean_linker_0, # of connection points: 2
#     Edge 8, Type (0, 0), BuildingBlock: EZIPEK_clean_linker_0, # of connection points: 2
#     Edge 9, Type (0, 0), BuildingBlock: EZIPEK_clean_linker_0, # of connection points: 2
#     Edge 10, Type (0, 0), BuildingBlock: EZIPEK_clean_linker_0, # of connection points: 2
#     Edge 11, Type (0, 0), BuildingBlock: EZIPEK_clean_linker_0, # of connection points: 2
#     Edge 12, Type (0, 0), BuildingBlock: EZIPEK_clean_linker_0, # of connection points: 2
#     Edge 13, Type (0, 0), BuildingBlock: EZIPEK_clean_linker_0, # of connection points: 2
#     Edge 14, Type (0, 0), BuildingBlock: EZIPEK_clean_linker_0, # of connection points: 2
#     Edge 15, Type (0, 0), BuildingBlock: EZIPEK_clean_linker_0, # of connection points: 2
#     Edge 16, Type (0, 0), BuildingBlock: EZIPEK_clean_linker_0, # of connection points: 2
#     Edge 17, Type (0, 0), BuildingBlock: EZIPEK_clean_linker_0, # of connection points: 2
#     Edge 18, Type (0, 0), BuildingBlock: EZIPEK_clean_linker_0, # of connection points: 2
#     Edge 19, Type (0, 0), BuildingBlock: EZIPEK_clean_linker_0, # of connection points: 2
#     Edge 20, Type (0, 0), BuildingBlock: EZIPEK_clean_linker_0, # of connection points: 2
#     Edge 21, Type (0, 0), BuildingBlock: EZIPEK_clean_linker_0, # of connection points: 2
#     Edge 22, Type (0, 0), BuildingBlock: EZIPEK_clean_linker_0, # of connection points: 2
#     Edge 23, Type (0, 0), BuildingBlock: EZIPEK_clean_linker_0, # of connection points: 2
#     Edge 24, Type (0, 0), BuildingBlock: EZIPEK_clean_linker_0, # of connection points: 2
#     Edge 25, Type (0, 0), BuildingBlock: EZIPEK_clean_linker_0, # of connection points: 2
#     Edge 26, Type (0, 0), BuildingBlock: EZIPEK_clean_linker_0, # of connection points: 2
# Relax obj value: 0.193
# Max RMSD: 0.215
# Mean RMSD: 0.215
data_MOF--net-wnr--node1-NUHQUE_clean_sbu_2--edge1-EZIPEK_clean_linker_0
_symmetry_space_group_name_H-M    P1
_symmetry_Int_Tables_number       1
_symmetry_cell_setting            triclinic
loop_
_symmetry_equiv_pos_as_xyz
'x, y, z'
_cell_length_a     35.407457
_cell_length_b     35.523346
_cell_length_c     14.217342
_cell_angle_alpha  89.678933
_cell_angle_beta   90.365302
_cell_angle_gamma 119.93751
loop_
_atom_site_label
_atom_site_type_symbol
_atom_site_fract_x
_atom_site_fract_y
_atom_site_fract_z
_atom_type_partial_charge
O0 O 0.29298 0.47166 0.8246 0.0
Tb1 Tb 0.32281 0.49981 0.95893 0.0
Eu2 Eu 0.26585 0.42995 0.15363 0.0
C3 C 0.31712 0.46736 0.76042 0.0
O4 O 0.35681 0.47627 0.78237 0.0
C5 C 0.34306 0.42466 0.0383 0.0
O6 O 0.2635 0.42114 0.31033 0.0
C7 C 0.18797 0.38132 0.08598 0.0
C8 C 0.29628 0.4497 0.36106 0.0
O9 O 0.32979 0.48214 0.31936 0.0
C10 C 0.27214 0.51886 0.11104 0.0
C11 C 0.14289 0.37381 0.09025 0.0
C12 C 0.11963 0.36738 1.00573 0.0
C13 C 0.07518 0.35463 1.00716 0.0
C14 C 0.05402 0.34908 0.09286 0.0
C15 C 0.07634 0.35472 0.1776 0.0
C16 C 0.12094 0.36754 0.17662 0.0
O17 O 0.34966 0.45624 0.97912 0.0
O18 O 0.31477 0.41108 0.10776 0.0
O19 O 0.35976 0.5546 0.86381 0.0
O20 O 0.3822 0.55932 1.00417 0.0
C21 C 0.38975 0.57935 0.92334 0.0
O22 O 0.28235 0.49909 0.17562 0.0
O23 O 0.27116 0.50831 0.02223 0.0
O24 O 0.20287 0.37131 0.16134 0.0
O25 O 0.21769 0.4164 0.04231 0.0
H26 H 0.13546 0.37019 0.93892 0.0
H27 H 1.01933 0.33781 0.0936 0.0
H28 H 0.13774 0.37074 0.24263 0.0
O29 O 0.55869 0.81314 0.49241 0.0
Tb30 Tb 0.53331 0.81889 0.62784 0.0
Eu31 Eu 0.60512 0.8357 0.82913 0.0
C32 C 0.59105 0.84661 0.44983 0.0
O33 O 0.61489 0.88284 0.49625 0.0
C34 C 0.60593 0.91533 0.70793 0.0
O35 O 0.61637 0.84242 0.98645 0.0
C36 C 0.65311 0.80711 0.75646 0.0
C37 C 0.58646 0.8416 0.04228 0.0
O38 O 0.55104 0.83877 1.00531 0.0
C39 C 0.51491 0.75213 0.79103 0.0
C40 C 0.66129 0.77009 0.76162 0.0
C41 C 0.66783 0.7535 0.67758 0.0
C42 C 0.68094 0.72215 0.67999 0.0
C43 C 0.68675 0.7067 0.76618 0.0
C44 C 0.68093 0.72314 0.85041 0.0
C45 C 0.66773 0.75453 0.84846 0.0
O46 O 0.57427 0.88938 0.64979 0.0
O47 O 0.62088 0.90201 0.77823 0.0
O48 O 0.48103 0.80378 0.52641 0.0
O49 O 0.47071 0.8129 0.66937 0.0
C50 C 0.45335 0.80392 0.58549 0.0
O51 O 0.53641 0.7828 0.85281 0.0
O52 O 0.52272 0.75962 0.70026 0.0
O53 O 0.66494 0.83307 0.82966 0.0
O54 O 0.61646 0.8004 0.71729 0.0
H55 H 0.66476 0.76636 0.6104 0.0
H56 H 0.69827 0.68355 0.76768 0.0
H57 H 0.66434 0.76794 0.91406 0.0
O58 O 0.2135 0.74029 0.16724 0.0
Tb59 Tb 0.20987 0.70769 0.30022 0.0
Eu60 Eu 0.19669 0.76516 0.50092 0.0
C61 C 0.17821 0.73346 0.12134 0.0
O62 O 0.1405 0.7148 0.16458 0.0
C63 C 0.11494 0.68598 0.38449 0.0
O64 O 0.18802 0.76763 0.65793 0.0
C65 C 0.22728 0.84282 0.43157 0.0
C66 C 0.18972 0.73898 0.71423 0.0
O67 O 0.19485 0.7079 0.67796 0.0
C68 C 0.27846 0.75558 0.46016 0.0
C69 C 0.265 0.88768 0.43534 0.0
C70 C 0.28144 0.91047 0.35047 0.0
C71 C 0.31287 0.95484 0.35125 0.0
C72 C 0.3286 0.97638 0.43668 0.0
C73 C 0.31237 0.95452 0.52175 0.0
C74 C 0.28088 0.90998 0.52138 0.0
O75 O 0.13988 0.6767 0.33169 0.0
O76 O 0.12958 0.71737 0.4475 0.0
O77 O 0.22219 0.67184 0.19191 0.0
O78 O 0.2188 0.65189 0.33377 0.0
C79 C 0.22483 0.64408 0.24725 0.0
O80 O 0.24864 0.74743 0.52348 0.0
O81 O 0.27017 0.75615 0.36982 0.0
O82 O 0.20219 0.82864 0.50617 0.0
O83 O 0.23242 0.81266 0.38991 0.0
H84 H 0.26825 0.89436 0.28386 0.0
H85 H 0.35175 1.01099 0.43687 0.0
H86 H 0.26752 0.89353 0.58757 0.0
O87 O 0.48823 0.2797 0.21014 0.0
Tb88 Tb 0.50998 0.30763 0.07083 0.0
Eu89 Eu 0.44243 0.25313 0.86946 0.0
C90 C 0.45393 0.27732 0.25123 0.0
O91 O 0.42687 0.28518 0.20302 0.0
C92 C 0.43674 0.32971 0.98552 0.0
O93 O 0.43261 0.24846 0.71245 0.0
C94 C 0.39269 0.17644 0.94066 0.0
C95 C 0.46174 0.27873 0.65749 0.0
O96 O 0.49592 0.31219 0.69505 0.0
C97 C 0.53035 0.25765 0.91864 0.0
C98 C 0.38515 0.13146 0.93708 0.0
C99 C 0.37884 0.10844 0.02177 0.0
C100 C 0.36646 0.06421 0.02057 0.0
C101 C 0.36111 0.04306 0.93493 0.0
C102 C 0.36664 0.06516 0.85008 0.0
C103 C 0.37914 0.10951 0.85085 0.0
O104 O 0.46556 0.33352 0.05002 0.0
O105 O 0.42559 0.30388 0.91188 0.0
O106 O 0.56435 0.34762 0.16487 0.0
O107 O 0.56965 0.3656 0.02114 0.0
C108 C 0.58941 0.37572 0.10262 0.0
O109 O 0.51162 0.26843 0.85251 0.0
O110 O 0.51894 0.25644 1.00705 0.0
O111 O 0.3827 0.19098 0.86478 0.0
O112 O 0.42809 0.20617 0.98352 0.0
H113 H 0.38157 0.12429 0.08847 0.0
H114 H 0.35013 1.00856 0.93431 0.0
H115 H 0.38235 0.12613 0.7847 0.0
O116 O 0.75485 0.20294 0.85645 0.0
Tb117 Tb 0.72031 0.19758 0.72512 0.0
Eu118 Eu 0.77633 0.18467 0.52251 0.0
C119 C 0.75085 0.1686 0.90121 0.0
O120 O 0.73472 0.13134 0.85706 0.0
C121 C 0.69819 0.1028 0.63999 0.0
O122 O 0.78093 0.17741 0.36571 0.0
C123 C 0.85342 0.21454 0.59574 0.0
C124 C 0.75225 0.1785 0.30815 0.0
O125 O 0.72006 0.18232 0.34299 0.0
C126 C 0.76588 0.26605 0.562 0.0
C127 C 0.89844 0.25203 0.59196 0.0
C128 C 0.9213 0.26854 0.6768 0.0
C129 C 0.96575 0.30004 0.67599 0.0
C130 C 0.98729 0.31574 0.59059 0.0
C131 C 0.96533 0.29947 0.50551 0.0
C132 C 0.9207 0.26792 0.50589 0.0
O133 O 0.69104 0.12761 0.6979 0.0
O134 O 0.72727 0.11745 0.57184 0.0
O135 O 0.68599 0.21087 0.83553 0.0
O136 O 0.66115 0.20166 0.69662 0.0
C137 C 0.65555 0.21009 0.78292 0.0
O138 O 0.75894 0.23665 0.49867 0.0
O139 O 0.7662 0.25818 0.65267 0.0
O140 O 0.83955 0.18907 0.52175 0.0
O141 O 0.82306 0.22021 0.63519 0.0
H142 H 0.90519 0.25542 0.74342 0.0
H143 H 1.02197 0.33899 0.59041 0.0
H144 H 0.90413 0.25459 0.4397 0.0
O145 O 0.8226 0.54494 0.53192 0.0
Tb146 Tb 0.8298 0.52063 0.39642 0.0
Eu147 Eu 0.84729 0.59103 0.19406 0.0
C148 C 0.85448 0.57972 0.57201 0.0
O149 O 0.88901 0.60622 0.52289 0.0
C150 C 0.92683 0.59218 0.31627 0.0
O151 O 0.8521 0.60306 0.037 0.0
C152 C 0.82025 0.63913 0.2723 0.0
C153 C 0.85281 0.57454 0.97946 0.0
O154 O 0.85255 0.54012 0.01449 0.0
C155 C 0.76294 0.50167 0.232 0.0
C156 C 0.7835 0.64788 0.26841 0.0
C157 C 0.76719 0.65431 0.35304 0.0
C158 C 0.73589 0.66758 0.35168 0.0
C159 C 0.72022 0.67368 0.26599 0.0
C160 C 0.73637 0.66795 0.18123 0.0
C161 C 0.7677 0.65458 0.18212 0.0
O162 O 0.90061 0.56303 0.37843 0.0
O163 O 0.91361 0.60462 0.24145 0.0
O164 O 0.81498 0.46872 0.49789 0.0
O165 O 0.8238 0.45813 0.35511 0.0
C166 C 0.81497 0.44092 0.4391 0.0
O167 O 0.79372 0.52284 0.17017 0.0
O168 O 0.77041 0.5098 0.32277 0.0
O169 O 0.8464 0.65151 0.1993 0.0
O170 O 0.81278 0.60186 0.3086 0.0
H171 H 0.78019 0.65093 0.41982 0.0
H172 H 0.69709 0.68529 0.2653 0.0
H173 H 0.78084 0.65119 0.11611 0.0
C174 C 0.03297 0.29895 0.88426 0.0
C175 C 0.04866 0.34146 0.91993 0.0
C176 C 1.0047 0.35423 0.80403 0.0
C177 C 0.9919 0.31314 0.76372 0.0
N178 N 0.99909 0.24914 0.75457 0.0
N179 N 0.05431 0.41175 0.90891 0.0
C180 C 1.00744 0.28619 0.80088 0.0
C181 C 0.03587 0.36978 0.87839 0.0
N182 N 0.04122 0.27023 0.93189 0.0
N183 N 0.9863 0.37785 0.77228 0.0
H184 H 0.07704 0.42395 0.96366 0.0
H185 H 0.04978 0.43541 0.87576 0.0
H186 H 0.96355 0.36735 0.71753 0.0
H187 H 0.99085 0.40607 0.80445 0.0
H188 H 1.02624 0.2373 0.91577 0.0
H189 H 0.06052 0.27842 0.99236 0.0
H190 H 1.01398 0.23106 0.77177 0.0
H191 H 0.97982 0.23807 0.69412 0.0
C192 C 0.6816 0.65222 0.47944 0.0
C193 C 0.72282 0.68051 0.439 0.0
C194 C 0.73684 0.73575 0.55765 0.0
C195 C 0.69418 0.70893 0.59331 0.0
N196 N 0.62375 0.64427 0.5831 0.0
N197 N 0.78699 0.75157 0.42878 0.0
C198 C 0.66588 0.66782 0.55273 0.0
C199 C 0.74976 0.72294 0.47518 0.0
N200 N 0.65804 0.61024 0.44883 0.0
N201 N 0.76554 0.77276 0.60448 0.0
H202 H 0.79825 0.7433 0.36917 0.0
H203 H 0.80506 0.78448 0.44506 0.0
H204 H 0.7572 0.7839 0.66418 0.0
H205 H 0.79858 0.79074 0.58854 0.0
H206 H 0.62974 0.58662 0.48123 0.0
H207 H 0.6687 0.598 0.39497 0.0
H208 H 0.6001 0.61604 0.55054 0.0
H209 H 0.61141 0.65481 0.637 0.0
C210 C 0.36682 0.99388 0.22271 0.0
C211 C 0.32568 0.98096 0.26358 0.0
C212 C 0.31102 0.02202 0.1441 0.0
C213 C 0.3536 0.03784 0.10791 0.0
N214 N 0.42423 0.04364 0.11782 0.0
N215 N 0.2614 0.98794 0.27404 0.0
C216 C 0.38218 0.0251 0.1487 0.0
C217 C 0.29849 0.99643 0.22723 0.0
N218 N 0.39065 0.97554 0.25359 0.0
N219 N 0.282 0.03018 0.09712 0.0
H220 H 0.25045 0.96857 0.33424 0.0
H221 H 0.24318 1.00276 0.25751 0.0
H222 H 0.29 0.04946 0.03681 0.0
H223 H 0.249 1.01513 0.11358 0.0
H224 H 0.4189 0.98021 0.22095 0.0
H225 H 0.38028 0.95274 0.30801 0.0
H226 H 0.44807 0.03911 0.15042 0.0
H227 H 0.43631 0.06645 0.06341 0.0
C228 C 0.27934 0.59324 0.10797 0.0
C229 C 0.25713 0.5496 0.14056 0.0
C230 C 0.21048 0.56672 0.23912 0.0
C231 C 0.23659 0.61135 0.21512 0.0
N232 N 0.30192 0.66807 0.14269 0.0
N233 N 0.20088 0.49408 0.2375 0.0
C234 C 0.27249 0.62482 0.1535 0.0
C235 C 0.22268 0.53622 0.2069 0.0
N236 N 0.30687 0.60492 0.03296 0.0
N237 N 0.17268 0.55307 0.28803 0.0
H238 H 0.20476 0.46954 0.20729 0.0
H239 H 0.17987 0.48356 0.29482 0.0
H240 H 0.16237 0.5742 0.31158 0.0
H241 H 0.14964 0.52055 0.29894 0.0
H242 H 0.31909 0.6348 0.99893 0.0
H243 H 0.31479 0.58387 0.99936 0.0
H244 H 0.33121 0.67958 0.10664 0.0
H245 H 0.29973 0.69242 0.17859 0.0
C246 C 0.45512 0.62855 0.82483 0.0
C247 C 0.42643 0.62342 0.89956 0.0
C248 C 0.45339 0.70171 0.89714 0.0
C249 C 0.48419 0.7075 0.8267 0.0
N250 N 0.52215 0.67719 0.74351 0.0
N251 N 0.40848 0.65701 0.02525 0.0
C252 C 0.48725 0.67112 0.79577 0.0
C253 C 0.42898 0.66061 0.94196 0.0
N254 N 0.45206 0.59278 0.78208 0.0
N255 N 0.44551 0.7347 0.91789 0.0
H256 H 0.39148 0.62775 0.06166 0.0
H257 H 0.41246 0.68381 0.06308 0.0
H258 H 0.46074 0.76458 0.88316 0.0
H259 H 0.42034 0.7307 0.96191 0.0
H260 H 0.46818 0.59439 0.71983 0.0
H261 H 0.43179 0.56123 0.80655 0.0
H262 H 0.52826 0.65219 0.72705 0.0
H263 H 0.54765 0.70781 0.72515 0.0
C264 C 0.3723 0.75317 0.5889 0.0
C265 C 0.40831 0.79331 0.55978 0.0
C266 C 0.35869 0.81064 0.4724 0.0
C267 C 0.32337 0.76856 0.49309 0.0
N268 N 0.29738 0.69727 0.55977 0.0
N269 N 0.437 0.85875 0.46654 0.0
C270 C 0.33034 0.73924 0.54895 0.0
C271 C 0.40184 0.82152 0.49909 0.0
N272 N 0.37819 0.72817 0.65432 0.0
N273 N 0.35079 0.84103 0.43167 0.0
H274 H 0.46883 0.86937 0.48914 0.0
H275 H 0.43494 0.87782 0.41309 0.0
H276 H 0.31967 0.8347 0.41283 0.0
H277 H 0.3744 0.87363 0.42433 0.0
H278 H 0.35259 0.70115 0.68646 0.0
H279 H 0.40861 0.73617 0.68209 0.0
H280 H 0.30156 0.67296 0.59069 0.0
H281 H 0.26647 0.68555 0.53028 0.0
C282 C 0.60484 0.2649 0.92175 0.0
C283 C 0.56085 0.2421 0.89087 0.0
C284 C 0.57756 0.19444 0.79544 0.0
C285 C 0.62257 0.22135 0.81651 0.0
N286 N 0.67965 0.28839 0.88279 0.0
N287 N 0.50464 0.18481 0.79705 0.0
C288 C 0.63635 0.2581 0.87553 0.0
C289 C 0.54707 0.20689 0.82674 0.0
N290 N 0.61691 0.29307 0.99555 0.0
N291 N 0.56358 0.15582 0.75016 0.0
H292 H 0.48032 0.18951 0.82601 0.0
H293 H 0.49377 0.16289 0.74139 0.0
H294 H 0.58466 0.14515 0.72803 0.0
H295 H 0.53087 0.13253 0.74158 0.0
H296 H 0.64737 0.30617 0.02795 0.0
H297 H 0.59559 0.30042 0.03007 0.0
H298 H 0.69103 0.31797 0.91716 0.0
H299 H 0.70386 0.28654 0.84524 0.0
C300 C 0.82067 0.3381 0.49171 0.0
C301 C 0.77841 0.31066 0.52914 0.0
C302 C 0.7598 0.36802 0.50411 0.0
C303 C 0.80163 0.39513 0.46403 0.0
N304 N 0.87004 0.40466 0.4084 0.0
N305 N 0.70532 0.29601 0.55679 0.0
C306 C 0.83142 0.37962 0.45389 0.0
C307 C 0.74737 0.32476 0.53184 0.0
N308 N 0.85104 0.32503 0.49573 0.0
N309 N 0.73171 0.3836 0.51521 0.0
H310 H 0.69508 0.2641 0.57677 0.0
H311 H 0.67969 0.30232 0.55087 0.0
H312 H 0.73713 0.41293 0.48643 0.0
H313 H 0.70364 0.36831 0.55594 0.0
H314 H 0.88377 0.3449 0.47922 0.0
H315 H 0.84419 0.29483 0.52208 0.0
H316 H 0.8912 0.39368 0.38927 0.0
H317 H 0.88 0.43598 0.3842 0.0
C318 C 0.63896 0.4422 0.19769 0.0
C319 C 0.63366 0.41285 0.1244 0.0
C320 C 0.71226 0.43988 0.12675 0.0
C321 C 0.71814 0.47099 0.1963 0.0
N322 N 0.68797 0.50958 0.27727 0.0
N323 N 0.6673 0.39426 0.99966 0.0
C324 C 0.68172 0.47438 0.2263 0.0
C325 C 0.67096 0.41521 0.08229 0.0
N326 N 0.60314 0.43975 0.23945 0.0
N327 N 0.74536 0.43196 0.10659 0.0
H328 H 0.63796 0.37697 0.96335 0.0
H329 H 0.69417 0.39813 0.96199 0.0
H330 H 0.77543 0.44743 0.14099 0.0
H331 H 0.7413 0.40657 0.06344 0.0
H332 H 0.60481 0.45635 0.30094 0.0
H333 H 0.57147 0.41961 0.21486 0.0
H334 H 0.66299 0.51592 0.29297 0.0
H335 H 0.71875 0.53504 0.29527 0.0
C336 C 1.00615 0.35438 0.37912 0.0
C337 C 0.9915 0.31243 0.41777 0.0
C338 C 0.0333 0.29851 0.29982 0.0
C339 C 0.05055 0.34164 0.26578 0.0
N340 N 0.05861 0.41278 0.27961 0.0
N341 N 0.9967 0.24726 0.42628 0.0
C342 C 0.03846 0.37024 0.30746 0.0
C343 C 1.00655 0.28517 0.38116 0.0
N344 N 0.9884 0.37856 0.40979 0.0
N345 N 0.0413 0.26979 0.25255 0.0
H346 H 0.97657 0.23577 0.48511 0.0
H347 H 1.01109 0.22874 0.40986 0.0
H348 H 0.06178 0.27848 0.19432 0.0
H349 H 1.02524 0.2366 0.26683 0.0
H350 H 0.99433 0.40755 0.37847 0.0
H351 H 0.9648 0.3678 0.46234 0.0
H352 H 0.05454 0.43648 0.31311 0.0
H353 H 0.08239 0.42524 0.22734 0.0
C354 C 0.68196 0.65312 0.05244 0.0
C355 C 0.72339 0.68112 0.09299 0.0
C356 C 0.73674 0.73708 0.97519 0.0
C357 C 0.69398 0.71042 0.93918 0.0
N358 N 0.62362 0.64575 0.94941 0.0
N359 N 0.78748 0.75217 0.10381 0.0
C360 C 0.66589 0.66913 0.97963 0.0
C361 C 0.75007 0.72379 0.0573 0.0
N362 N 0.65852 0.61097 0.08249 0.0
N363 N 0.76522 0.7744 0.9289 0.0
H364 H 0.79909 0.74352 0.16289 0.0
H365 H 0.80541 0.78519 0.0881 0.0
H366 H 0.75656 0.78597 0.8698 0.0
H367 H 0.79833 0.79231 0.94483 0.0
H368 H 0.63003 0.58755 0.05006 0.0
H369 H 0.66948 0.5984 0.13578 0.0
H370 H 0.60012 0.61735 0.9817 0.0
H371 H 0.61101 0.6567 0.89616 0.0
C372 C 0.38289 0.02791 0.72009 0.0
C373 C 0.3538 0.0394 0.76187 0.0
C374 C 0.29743 0.9952 0.64609 0.0
C375 C 0.32516 0.98067 0.60948 0.0
N376 N 0.392 0.97853 0.61752 0.0
N377 N 0.28135 0.02927 0.77488 0.0
C378 C 0.36733 0.99576 0.64824 0.0
C379 C 0.31049 0.02177 0.72764 0.0
N380 N 0.42557 0.04844 0.74809 0.0
N381 N 0.25933 0.98505 0.60074 0.0
H382 H 0.28982 0.0496 0.83325 0.0
H383 H 0.24806 1.01293 0.76042 0.0
H384 H 0.24806 0.9651 0.54166 0.0
H385 H 0.24045 0.99906 0.61721 0.0
H386 H 0.4496 0.04482 0.71453 0.0
H387 H 0.4378 0.07207 0.8006 0.0
H388 H 0.42127 0.9849 0.64872 0.0
H389 H 0.38139 0.95489 0.56514 0.0
C390 C 0.34437 0.35545 1.00775 0.0
C391 C 0.36768 0.40106 0.02303 0.0
C392 C 0.43673 0.40074 1.00454 0.0
C393 C 0.41333 0.35461 0.9994 0.0
N394 N 0.34498 0.28768 0.01673 0.0
N395 N 0.43641 0.46629 0.05085 0.0
C396 C 0.36716 0.33187 1.00667 0.0
C397 C 0.41403 0.42354 0.0253 0.0
N398 N 0.30054 0.33473 0.99023 0.0
N399 N 0.48042 0.42295 0.98618 0.0
H400 H 0.42104 0.48392 0.0675 0.0
H401 H 0.46985 0.48322 0.06364 0.0
H402 H 0.49803 0.40752 0.96986 0.0
H403 H 0.49839 0.45659 0.97885 0.0
H404 H 0.28274 0.30246 0.96873 0.0
H405 H 0.28271 0.35085 0.98755 0.0
H406 H 0.31189 0.26991 0.03251 0.0
H407 H 0.36035 0.26914 0.01905 0.0
C408 C 0.60525 0.98607 0.68464 0.0
C409 C 0.6287 0.96323 0.68895 0.0
C410 C 0.69733 0.03243 0.67172 0.0
C411 C 0.67379 0.05472 0.65696 0.0
N412 N 0.6045 0.05107 0.63354 0.0
N413 N 0.69647 0.96407 0.66267 0.0
C414 C 0.62744 0.03106 0.65913 0.0
C415 C 0.67458 0.98626 0.67567 0.0
N416 N 0.56215 0.96534 0.7084 0.0
N417 N 0.74137 0.05531 0.68654 0.0
H418 H 0.68105 0.93024 0.66124 0.0
H419 H 0.72913 0.97919 0.64304 0.0
H420 H 0.7593 0.08915 0.68833 0.0
H421 H 0.75932 0.04068 0.70731 0.0
H422 H 0.54447 0.98135 0.71616 0.0
H423 H 0.54502 0.9328 0.72888 0.0
H424 H 0.5708 0.03449 0.62436 0.0
H425 H 0.61948 0.08357 0.61287 0.0
C426 C 0.99822 0.66146 0.34039 0.0
C427 C 0.97489 0.61536 0.33558 0.0
C428 C 0.04278 0.61501 0.37367 0.0
C429 C 0.06672 0.66114 0.36731 0.0
N430 N 0.06766 0.72723 0.32159 0.0
N431 N 0.97653 0.54829 0.33305 0.0
C432 C 0.04454 0.68407 0.34423 0.0
C433 C 0.99759 0.59207 0.34841 0.0
N434 N 0.97617 0.68387 0.34555 0.0
N435 N 0.06271 0.59314 0.40713 0.0
H436 H 0.94383 0.53054 0.31312 0.0
H437 H 0.99239 0.53027 0.3317 0.0
H438 H 0.09536 0.60877 0.42779 0.0
H439 H 0.04596 0.56005 0.42257 0.0
H440 H 0.99155 0.71711 0.3589 0.0
H441 H 0.94225 0.66872 0.34703 0.0
H442 H 0.0531 0.7443 0.29476 0.0
H443 H 0.10161 0.74488 0.31965 0.0
C444 C 0.30118 0.41927 0.51723 0.0
C445 C 0.29347 0.44876 0.46454 0.0
C446 C 0.29468 0.48699 0.60806 0.0
C447 C 0.30255 0.45757 0.66132 0.0
N448 N 0.3028 0.39 0.67103 0.0
N449 N 0.2711 0.50259 0.45964 0.0
C450 C 0.30241 0.4218 0.6171 0.0
C451 C 0.28631 0.47997 0.51011 0.0
N452 N 0.30914 0.39017 0.47167 0.0
N453 N 0.29809 0.52326 0.64924 0.0
H454 H 0.26476 0.49823 0.38754 0.0
H455 H 0.26085 0.52249 0.49042 0.0
H456 H 0.30391 0.52995 0.72069 0.0
H457 H 0.29831 0.54854 0.61134 0.0
H458 H 0.32004 0.37124 0.50542 0.0
H459 H 0.30731 0.38672 0.39868 0.0
H460 H 0.29882 0.36109 0.64383 0.0
H461 H 0.30308 0.39079 0.74443 0.0
C462 C 0.584 0.87561 0.29339 0.0
C463 C 0.59324 0.84687 0.34545 0.0
C464 C 0.59841 0.81402 0.19794 0.0
C465 C 0.59257 0.84515 0.14617 0.0
N466 N 0.59089 0.91219 0.1451 0.0
N467 N 0.61646 0.79368 0.34803 0.0
C468 C 0.58876 0.87797 0.19415 0.0
C469 C 0.60268 0.81755 0.29787 0.0
N470 N 0.56822 0.89896 0.33783 0.0
N471 N 0.59757 0.77979 0.15251 0.0
H472 H 0.61961 0.79537 0.42115 0.0
H473 H 0.62823 0.77512 0.31686 0.0
H474 H 0.59393 0.77561 0.07986 0.0
H475 H 0.59687 0.75361 0.18741 0.0
H476 H 0.55643 0.91662 0.30178 0.0
H477 H 0.56258 0.89724 0.41003 0.0
H478 H 0.5927 0.93928 0.17754 0.0
H479 H 0.59559 0.91574 0.07251 0.0
C480 C 0.21264 0.77731 0.87163 0.0
C481 C 0.18418 0.74005 0.81772 0.0
C482 C 0.1538 0.69847 0.96272 0.0
C483 C 0.17941 0.73652 0.01687 0.0
N484 N 0.22767 0.81396 0.02254 0.0
N485 N 0.11987 0.66907 0.81235 0.0
C486 C 0.20717 0.77656 0.97115 0.0
C487 C 0.15233 0.70186 0.86348 0.0
N488 N 0.24629 0.81253 0.82883 0.0
N489 N 0.13296 0.65852 1.00503 0.0
H490 H 0.11684 0.67088 0.73965 0.0
H491 H 0.09336 0.64235 0.84323 0.0
H492 H 0.1349 0.6538 0.07692 0.0
H493 H 0.11773 0.62955 0.9673 0.0
H494 H 0.27081 0.83861 0.86577 0.0
H495 H 0.25191 0.81423 0.75665 0.0
H496 H 0.24475 0.84474 0.99228 0.0
H497 H 0.22435 0.81446 0.09534 0.0
C498 C 0.45567 0.31105 0.50534 0.0
C499 C 0.45573 0.27612 0.55394 0.0
C500 C 0.44639 0.23836 0.40396 0.0
C501 C 0.45192 0.27571 0.35528 0.0
N502 N 0.4703 0.35104 0.35941 0.0
N503 N 0.45694 0.20875 0.54942 0.0
C504 C 0.45865 0.31296 0.4058 0.0
C505 C 0.45228 0.24011 0.50338 0.0
N506 N 0.45142 0.3418 0.55409 0.0
N507 N 0.43479 0.20104 0.35529 0.0
H508 H 0.46206 0.20915 0.62179 0.0
H509 H 0.45943 0.18428 0.51503 0.0
H510 H 0.43041 0.19886 0.28245 0.0
H511 H 0.42585 0.1714 0.38765 0.0
H512 H 0.44668 0.36548 0.52152 0.0
H513 H 0.44806 0.34097 0.62704 0.0
H514 H 0.48047 0.38039 0.39389 0.0
H515 H 0.47399 0.35451 0.28664 0.0
C516 C 0.79198 0.20301 0.15262 0.0
C517 C 0.7545 0.17354 0.20481 0.0
C518 C 0.71463 0.14253 0.05803 0.0
C519 C 0.75302 0.16935 1.0057 0.0
N520 N 0.83021 0.21994 1.00332 0.0
N521 N 0.68444 0.10789 0.20726 0.0
C522 C 0.79237 0.19804 0.05313 0.0
C523 C 0.71717 0.14102 0.15745 0.0
N524 N 0.82624 0.23709 0.19703 0.0
N525 N 0.67508 0.12044 0.01371 0.0
H526 H 0.68567 0.10486 0.2801 0.0
H527 H 0.65849 0.08099 0.17538 0.0
H528 H 0.67093 0.12207 0.94144 0.0
H529 H 0.64567 0.10426 0.04992 0.0
H530 H 0.8523 0.26221 0.16133 0.0
H531 H 0.82705 0.24234 0.26925 0.0
H532 H 0.86074 0.23787 0.03483 0.0
H533 H 0.83146 0.2171 0.93054 0.0
C534 C 0.8241 0.58782 0.72567 0.0
C535 C 0.85595 0.58267 0.67641 0.0
C536 C 0.89039 0.58196 0.8263 0.0
C537 C 0.85543 0.58129 0.87576 0.0
N538 N 0.786 0.57875 0.87278 0.0
N539 N 0.9148 0.56663 0.68063 0.0
C540 C 0.8216 0.58334 0.82564 0.0
C541 C 0.88806 0.5778 0.72684 0.0
N542 N 0.79678 0.59774 0.67699 0.0
N543 N 0.92646 0.58768 0.87427 0.0
H544 H 0.91358 0.5618 0.60818 0.0
H545 H 0.93532 0.55788 0.71525 0.0
H546 H 0.92976 0.59176 0.94706 0.0
H547 H 0.95485 0.59292 0.84111 0.0
H548 H 0.77586 0.60634 0.70927 0.0
H549 H 0.79773 0.60101 0.60391 0.0
H550 H 0.75815 0.57512 0.83925 0.0
H551 H 0.78275 0.57515 0.9456 0.0
loop_
_geom_bond_atom_site_label_1
_geom_bond_atom_site_label_2
_geom_bond_distance
_geom_bond_site_symmetry_2
_ccdc_geom_bond_type
O0 Tb1 2.292 . S
O0 C3 1.255 . S
Tb1 O0 2.292 . S
Tb1 O17 2.326 . S
Tb1 O19 2.500 . S
Tb1 O20 2.473 1_556 S
Tb1 O23 2.324 1_556 S
Eu2 O6 2.292 . S
Eu2 C7 2.852 . S
Eu2 O18 2.324 . S
Eu2 O22 2.326 . S
Eu2 O24 2.500 . S
Eu2 O25 2.473 . S
C3 O0 1.255 . S
C3 O4 1.247 . S
O4 C3 1.247 . S
C5 O17 1.242 1_554 S
C5 O18 1.258 . S
O6 Eu2 2.292 . S
O6 C8 1.255 . S
C7 Eu2 2.852 . S
C7 C11 1.503 . S
C7 O24 1.273 . S
C7 O25 1.257 . S
C8 O6 1.255 . S
C8 O9 1.247 . S
O9 C8 1.247 . S
C10 O22 1.242 . S
C10 O23 1.258 . S
C11 C7 1.503 . S
C11 C12 1.379 . S
C11 C16 1.392 . S
C12 C11 1.379 . S
C12 C13 1.404 . S
C12 H26 0.929 . S
C13 C12 1.404 . S
C13 C14 1.389 . S
C14 C13 1.389 . S
C14 C15 1.399 . S
C14 H27 0.931 . S
C15 C14 1.399 . S
C15 C16 1.390 . S
C16 C11 1.392 . S
C16 C15 1.390 . S
C16 H28 0.929 . S
O17 Tb1 2.326 . S
O17 C5 1.242 1_556 S
O18 Eu2 2.324 . S
O18 C5 1.258 . S
O19 Tb1 2.500 . S
O19 C21 1.273 . S
O20 Tb1 2.473 1_554 S
O20 C21 1.257 1_554 S
C21 O19 1.273 . S
C21 O20 1.257 1_556 S
O22 Eu2 2.326 . S
O22 C10 1.242 . S
O23 Tb1 2.324 1_554 S
O23 C10 1.258 . S
O24 Eu2 2.500 . S
O24 C7 1.273 . S
O25 Eu2 2.473 . S
O25 C7 1.257 . S
H26 C12 0.929 . S
H27 C14 0.931 . S
H28 C16 0.929 . S
O29 Tb30 2.292 . S
O29 C32 1.255 . S
Tb30 O29 2.292 . S
Tb30 O46 2.326 . S
Tb30 O48 2.500 . S
Tb30 O49 2.473 . S
Tb30 O52 2.324 . S
Eu31 O35 2.292 1_556 S
Eu31 C36 2.852 . S
Eu31 O47 2.324 . S
Eu31 O51 2.326 . S
Eu31 O53 2.500 . S
Eu31 O54 2.473 . S
C32 O29 1.255 . S
C32 O33 1.247 . S
O33 C32 1.247 . S
C34 O46 1.242 . S
C34 O47 1.258 . S
O35 Eu31 2.292 1_554 S
O35 C37 1.255 . S
C36 Eu31 2.852 . S
C36 C40 1.503 . S
C36 O53 1.273 . S
C36 O54 1.257 . S
C37 O35 1.255 . S
C37 O38 1.247 . S
O38 C37 1.247 . S
C39 O51 1.242 . S
C39 O52 1.258 . S
C40 C36 1.503 . S
C40 C41 1.379 . S
C40 C45 1.392 . S
C41 C40 1.379 . S
C41 C42 1.404 . S
C41 H55 0.929 . S
C42 C41 1.404 . S
C42 C43 1.389 . S
C43 C42 1.389 . S
C43 C44 1.399 . S
C43 H56 0.931 . S
C44 C43 1.399 . S
C44 C45 1.390 . S
C45 C40 1.392 . S
C45 C44 1.390 . S
C45 H57 0.929 . S
O46 Tb30 2.326 . S
O46 C34 1.242 . S
O47 Eu31 2.324 . S
O47 C34 1.258 . S
O48 Tb30 2.500 . S
O48 C50 1.273 . S
O49 Tb30 2.473 . S
O49 C50 1.257 . S
C50 O48 1.273 . S
C50 O49 1.257 . S
O51 Eu31 2.326 . S
O51 C39 1.242 . S
O52 Tb30 2.324 . S
O52 C39 1.258 . S
O53 Eu31 2.500 . S
O53 C36 1.273 . S
O54 Eu31 2.473 . S
O54 C36 1.257 . S
H55 C41 0.929 . S
H56 C43 0.931 . S
H57 C45 0.929 . S
O58 Tb59 2.292 . S
O58 C61 1.255 . S
Tb59 O58 2.292 . S
Tb59 O75 2.326 . S
Tb59 O77 2.500 . S
Tb59 O78 2.473 . S
Tb59 O81 2.324 . S
Eu60 O64 2.292 . S
Eu60 C65 2.852 . S
Eu60 O76 2.324 . S
Eu60 O80 2.326 . S
Eu60 O82 2.500 . S
Eu60 O83 2.473 . S
C61 O58 1.255 . S
C61 O62 1.247 . S
O62 C61 1.247 . S
C63 O75 1.242 . S
C63 O76 1.258 . S
O64 Eu60 2.292 . S
O64 C66 1.255 . S
C65 Eu60 2.852 . S
C65 C69 1.503 . S
C65 O82 1.273 . S
C65 O83 1.257 . S
C66 O64 1.255 . S
C66 O67 1.247 . S
O67 C66 1.247 . S
C68 O80 1.242 . S
C68 O81 1.258 . S
C69 C65 1.503 . S
C69 C70 1.379 . S
C69 C74 1.392 . S
C70 C69 1.379 . S
C70 C71 1.404 . S
C70 H84 0.929 . S
C71 C70 1.404 . S
C71 C72 1.389 . S
C72 C71 1.389 . S
C72 C73 1.399 . S
C72 H85 0.931 . S
C73 C72 1.399 . S
C73 C74 1.390 . S
C74 C69 1.392 . S
C74 C73 1.390 . S
C74 H86 0.929 . S
O75 Tb59 2.326 . S
O75 C63 1.242 . S
O76 Eu60 2.324 . S
O76 C63 1.258 . S
O77 Tb59 2.500 . S
O77 C79 1.273 . S
O78 Tb59 2.473 . S
O78 C79 1.257 . S
C79 O77 1.273 . S
C79 O78 1.257 . S
O80 Eu60 2.326 . S
O80 C68 1.242 . S
O81 Tb59 2.324 . S
O81 C68 1.258 . S
O82 Eu60 2.500 . S
O82 C65 1.273 . S
O83 Eu60 2.473 . S
O83 C65 1.257 . S
H84 C70 0.929 . S
H85 C72 0.931 . S
H86 C74 0.929 . S
O87 Tb88 2.292 . S
O87 C90 1.255 . S
Tb88 O87 2.292 . S
Tb88 O104 2.326 . S
Tb88 O106 2.500 . S
Tb88 O107 2.473 1_554 S
Tb88 O110 2.324 1_554 S
Eu89 O93 2.292 . S
Eu89 C94 2.852 . S
Eu89 O105 2.324 . S
Eu89 O109 2.326 . S
Eu89 O111 2.500 . S
Eu89 O112 2.473 . S
C90 O87 1.255 . S
C90 O91 1.247 . S
O91 C90 1.247 . S
C92 O104 1.242 1_556 S
C92 O105 1.258 . S
O93 Eu89 2.292 . S
O93 C95 1.255 . S
C94 Eu89 2.852 . S
C94 C98 1.503 . S
C94 O111 1.273 . S
C94 O112 1.257 . S
C95 O93 1.255 . S
C95 O96 1.247 . S
O96 C95 1.247 . S
C97 O109 1.242 . S
C97 O110 1.258 . S
C98 C94 1.503 . S
C98 C99 1.379 . S
C98 C103 1.392 . S
C99 C98 1.379 . S
C99 C100 1.404 . S
C99 H113 0.929 . S
C100 C99 1.404 . S
C100 C101 1.389 . S
C101 C100 1.389 . S
C101 C102 1.399 . S
C101 H114 0.931 . S
C102 C101 1.399 . S
C102 C103 1.390 . S
C103 C98 1.392 . S
C103 C102 1.390 . S
C103 H115 0.929 . S
O104 Tb88 2.326 . S
O104 C92 1.242 1_554 S
O105 Eu89 2.324 . S
O105 C92 1.258 . S
O106 Tb88 2.500 . S
O106 C108 1.273 . S
O107 Tb88 2.473 1_556 S
O107 C108 1.257 1_556 S
C108 O106 1.273 . S
C108 O107 1.257 1_554 S
O109 Eu89 2.326 . S
O109 C97 1.242 . S
O110 Tb88 2.324 1_556 S
O110 C97 1.258 . S
O111 Eu89 2.500 . S
O111 C94 1.273 . S
O112 Eu89 2.473 . S
O112 C94 1.257 . S
H113 C99 0.929 . S
H114 C101 0.931 . S
H115 C103 0.929 . S
O116 Tb117 2.292 . S
O116 C119 1.255 . S
Tb117 O116 2.292 . S
Tb117 O133 2.326 . S
Tb117 O135 2.500 . S
Tb117 O136 2.473 . S
Tb117 O139 2.324 . S
Eu118 O122 2.292 . S
Eu118 C123 2.852 . S
Eu118 O134 2.324 . S
Eu118 O138 2.326 . S
Eu118 O140 2.500 . S
Eu118 O141 2.473 . S
C119 O116 1.255 . S
C119 O120 1.247 . S
O120 C119 1.247 . S
C121 O133 1.242 . S
C121 O134 1.258 . S
O122 Eu118 2.292 . S
O122 C124 1.255 . S
C123 Eu118 2.852 . S
C123 C127 1.503 . S
C123 O140 1.273 . S
C123 O141 1.257 . S
C124 O122 1.255 . S
C124 O125 1.247 . S
O125 C124 1.247 . S
C126 O138 1.242 . S
C126 O139 1.258 . S
C127 C123 1.503 . S
C127 C128 1.379 . S
C127 C132 1.392 . S
C128 C127 1.379 . S
C128 C129 1.404 . S
C128 H142 0.929 . S
C129 C128 1.404 . S
C129 C130 1.389 . S
C130 C129 1.389 . S
C130 C131 1.399 . S
C130 H143 0.931 . S
C131 C130 1.399 . S
C131 C132 1.390 . S
C132 C127 1.392 . S
C132 C131 1.390 . S
C132 H144 0.929 . S
O133 Tb117 2.326 . S
O133 C121 1.242 . S
O134 Eu118 2.324 . S
O134 C121 1.258 . S
O135 Tb117 2.500 . S
O135 C137 1.273 . S
O136 Tb117 2.473 . S
O136 C137 1.257 . S
C137 O135 1.273 . S
C137 O136 1.257 . S
O138 Eu118 2.326 . S
O138 C126 1.242 . S
O139 Tb117 2.324 . S
O139 C126 1.258 . S
O140 Eu118 2.500 . S
O140 C123 1.273 . S
O141 Eu118 2.473 . S
O141 C123 1.257 . S
H142 C128 0.929 . S
H143 C130 0.931 . S
H144 C132 0.929 . S
O145 Tb146 2.292 . S
O145 C148 1.255 . S
Tb146 O145 2.292 . S
Tb146 O162 2.326 . S
Tb146 O164 2.500 . S
Tb146 O165 2.473 . S
Tb146 O168 2.324 . S
Eu147 O151 2.292 1_554 S
Eu147 C152 2.852 . S
Eu147 O163 2.324 . S
Eu147 O167 2.326 . S
Eu147 O169 2.500 . S
Eu147 O170 2.473 . S
C148 O145 1.255 . S
C148 O149 1.247 . S
O149 C148 1.247 . S
C150 O162 1.242 . S
C150 O163 1.258 . S
O151 Eu147 2.292 1_556 S
O151 C153 1.255 . S
C152 Eu147 2.852 . S
C152 C156 1.503 . S
C152 O169 1.273 . S
C152 O170 1.257 . S
C153 O151 1.255 . S
C153 O154 1.247 . S
O154 C153 1.247 . S
C155 O167 1.242 . S
C155 O168 1.258 . S
C156 C152 1.503 . S
C156 C157 1.379 . S
C156 C161 1.392 . S
C157 C156 1.379 . S
C157 C158 1.404 . S
C157 H171 0.929 . S
C158 C157 1.404 . S
C158 C159 1.389 . S
C159 C158 1.389 . S
C159 C160 1.399 . S
C159 H172 0.931 . S
C160 C159 1.399 . S
C160 C161 1.390 . S
C161 C156 1.392 . S
C161 C160 1.390 . S
C161 H173 0.929 . S
O162 Tb146 2.326 . S
O162 C150 1.242 . S
O163 Eu147 2.324 . S
O163 C150 1.258 . S
O164 Tb146 2.500 . S
O164 C166 1.273 . S
O165 Tb146 2.473 . S
O165 C166 1.257 . S
C166 O164 1.273 . S
C166 O165 1.257 . S
O167 Eu147 2.326 . S
O167 C155 1.242 . S
O168 Tb146 2.324 . S
O168 C155 1.258 . S
O169 Eu147 2.500 . S
O169 C152 1.273 . S
O170 Eu147 2.473 . S
O170 C152 1.257 . S
H171 C157 0.929 . S
H172 C159 0.931 . S
H173 C161 0.929 . S
C174 C175 1.363 . S
C174 C180 1.379 1_455 S
C174 N182 1.356 . S
C175 C174 1.363 . S
C175 C181 1.363 . S
C176 C177 1.363 . S
C176 C181 1.379 1_655 S
C176 N183 1.356 . S
C177 C176 1.363 . S
C177 C180 1.363 . S
N178 C180 1.356 . S
N178 H190 0.984 . S
N178 H191 0.985 . S
N179 C181 1.356 . S
N179 H184 0.984 . S
N179 H185 0.985 . S
C180 C174 1.379 1_655 S
C180 C177 1.363 . S
C180 N178 1.356 . S
C181 C175 1.363 . S
C181 C176 1.379 1_455 S
C181 N179 1.356 . S
N182 C174 1.356 . S
N182 H188 0.984 . S
N182 H189 0.984 . S
N183 C176 1.356 . S
N183 H186 0.984 . S
N183 H187 0.985 . S
H184 N179 0.984 . S
H185 N179 0.985 . S
H186 N183 0.984 . S
H187 N183 0.985 . S
H188 N182 0.984 . S
H189 N182 0.984 . S
H190 N178 0.984 . S
H191 N178 0.985 . S
C192 C193 1.363 . S
C192 C198 1.379 . S
C192 N200 1.356 . S
C193 C192 1.363 . S
C193 C199 1.363 . S
C194 C195 1.363 . S
C194 C199 1.379 . S
C194 N201 1.356 . S
C195 C194 1.363 . S
C195 C198 1.363 . S
N196 C198 1.356 . S
N196 H208 0.984 . S
N196 H209 0.985 . S
N197 C199 1.356 . S
N197 H202 0.984 . S
N197 H203 0.985 . S
C198 C192 1.379 . S
C198 C195 1.363 . S
C198 N196 1.356 . S
C199 C193 1.363 . S
C199 C194 1.379 . S
C199 N197 1.356 . S
N200 C192 1.356 . S
N200 H206 0.984 . S
N200 H207 0.984 . S
N201 C194 1.356 . S
N201 H204 0.984 . S
N201 H205 0.985 . S
H202 N197 0.984 . S
H203 N197 0.985 . S
H204 N201 0.984 . S
H205 N201 0.985 . S
H206 N200 0.984 . S
H207 N200 0.984 . S
H208 N196 0.984 . S
H209 N196 0.985 . S
C210 C211 1.363 . S
C210 C216 1.379 . S
C210 N218 1.356 . S
C211 C210 1.363 . S
C211 C217 1.363 . S
C212 C213 1.363 . S
C212 C217 1.379 1_545 S
C212 N219 1.356 . S
C213 C212 1.363 . S
C213 C216 1.363 1_545 S
N214 C216 1.356 . S
N214 H226 0.984 1_554 S
N214 H227 0.985 1_564 S
N215 C217 1.356 . S
N215 H220 0.984 . S
N215 H221 0.985 1_565 S
C216 C210 1.379 . S
C216 C213 1.363 1_565 S
C216 N214 1.356 . S
C217 C211 1.363 . S
C217 C212 1.379 1_565 S
C217 N215 1.356 . S
N218 C210 1.356 . S
N218 H224 0.984 . S
N218 H225 0.984 . S
N219 C212 1.356 . S
N219 H222 0.984 . S
N219 H223 0.985 . S
H220 N215 0.984 . S
H221 N215 0.985 1_545 S
H222 N219 0.984 . S
H223 N219 0.985 . S
H224 N218 0.984 . S
H225 N218 0.984 . S
H226 N214 0.984 1_556 S
H227 N214 0.985 1_546 S
C228 C229 1.363 . S
C228 C234 1.379 . S
C228 N236 1.356 . S
C229 C228 1.363 . S
C229 C235 1.363 . S
C230 C231 1.363 . S
C230 C235 1.379 . S
C230 N237 1.356 . S
C231 C230 1.363 . S
C231 C234 1.363 . S
N232 C234 1.356 . S
N232 H244 0.984 . S
N232 H245 0.985 . S
N233 C235 1.356 . S
N233 H238 0.984 . S
N233 H239 0.985 . S
C234 C228 1.379 . S
C234 C231 1.363 . S
C234 N232 1.356 . S
C235 C229 1.363 . S
C235 C230 1.379 . S
C235 N233 1.356 . S
N236 C228 1.356 . S
N236 H242 0.984 . S
N236 H243 0.984 . S
N237 C230 1.356 . S
N237 H240 0.984 . S
N237 H241 0.985 . S
H238 N233 0.984 . S
H239 N233 0.985 . S
H240 N237 0.984 . S
H241 N237 0.985 . S
H242 N236 0.984 . S
H243 N236 0.984 . S
H244 N232 0.984 . S
H245 N232 0.985 . S
C246 C247 1.363 . S
C246 C252 1.379 . S
C246 N254 1.356 . S
C247 C246 1.363 . S
C247 C253 1.363 . S
C248 C249 1.363 . S
C248 C253 1.379 . S
C248 N255 1.356 . S
C249 C248 1.363 . S
C249 C252 1.363 . S
N250 C252 1.356 . S
N250 H262 0.984 . S
N250 H263 0.985 . S
N251 C253 1.356 1_554 S
N251 H256 0.984 . S
N251 H257 0.985 . S
C252 C246 1.379 . S
C252 C249 1.363 . S
C252 N250 1.356 . S
C253 C247 1.363 . S
C253 C248 1.379 . S
C253 N251 1.356 1_556 S
N254 C246 1.356 . S
N254 H260 0.984 . S
N254 H261 0.984 . S
N255 C248 1.356 . S
N255 H258 0.984 . S
N255 H259 0.985 1_556 S
H256 N251 0.984 . S
H257 N251 0.985 . S
H258 N255 0.984 . S
H259 N255 0.985 1_554 S
H260 N254 0.984 . S
H261 N254 0.984 . S
H262 N250 0.984 . S
H263 N250 0.985 . S
C264 C265 1.363 . S
C264 C270 1.379 . S
C264 N272 1.356 . S
C265 C264 1.363 . S
C265 C271 1.363 . S
C266 C267 1.363 . S
C266 C271 1.379 . S
C266 N273 1.356 . S
C267 C266 1.363 . S
C267 C270 1.363 . S
N268 C270 1.356 . S
N268 H280 0.984 . S
N268 H281 0.985 . S
N269 C271 1.356 . S
N269 H274 0.984 . S
N269 H275 0.985 . S
C270 C264 1.379 . S
C270 C267 1.363 . S
C270 N268 1.356 . S
C271 C265 1.363 . S
C271 C266 1.379 . S
C271 N269 1.356 . S
N272 C264 1.356 . S
N272 H278 0.984 . S
N272 H279 0.984 . S
N273 C266 1.356 . S
N273 H276 0.984 . S
N273 H277 0.985 . S
H274 N269 0.984 . S
H275 N269 0.985 . S
H276 N273 0.984 . S
H277 N273 0.985 . S
H278 N272 0.984 . S
H279 N272 0.984 . S
H280 N268 0.984 . S
H281 N268 0.985 . S
C282 C283 1.363 . S
C282 C288 1.379 . S
C282 N290 1.356 . S
C283 C282 1.363 . S
C283 C289 1.363 . S
C284 C285 1.363 . S
C284 C289 1.379 . S
C284 N291 1.356 . S
C285 C284 1.363 . S
C285 C288 1.363 . S
N286 C288 1.356 . S
N286 H298 0.984 . S
N286 H299 0.985 . S
N287 C289 1.356 . S
N287 H292 0.984 . S
N287 H293 0.985 . S
C288 C282 1.379 . S
C288 C285 1.363 . S
C288 N286 1.356 . S
C289 C283 1.363 . S
C289 C284 1.379 . S
C289 N287 1.356 . S
N290 C282 1.356 . S
N290 H296 0.984 . S
N290 H297 0.984 . S
N291 C284 1.356 . S
N291 H294 0.984 . S
N291 H295 0.985 . S
H292 N287 0.984 . S
H293 N287 0.985 . S
H294 N291 0.984 . S
H295 N291 0.985 . S
H296 N290 0.984 . S
H297 N290 0.984 . S
H298 N286 0.984 . S
H299 N286 0.985 . S
C300 C301 1.363 . S
C300 C306 1.379 . S
C300 N308 1.356 . S
C301 C300 1.363 . S
C301 C307 1.363 . S
C302 C303 1.363 . S
C302 C307 1.379 . S
C302 N309 1.356 . S
C303 C302 1.363 . S
C303 C306 1.363 . S
N304 C306 1.356 . S
N304 H316 0.984 . S
N304 H317 0.985 . S
N305 C307 1.356 . S
N305 H310 0.984 . S
N305 H311 0.985 . S
C306 C300 1.379 . S
C306 C303 1.363 . S
C306 N304 1.356 . S
C307 C301 1.363 . S
C307 C302 1.379 . S
C307 N305 1.356 . S
N308 C300 1.356 . S
N308 H314 0.984 . S
N308 H315 0.984 . S
N309 C302 1.356 . S
N309 H312 0.984 . S
N309 H313 0.985 . S
H310 N305 0.984 . S
H311 N305 0.985 . S
H312 N309 0.984 . S
H313 N309 0.985 . S
H314 N308 0.984 . S
H315 N308 0.984 . S
H316 N304 0.984 . S
H317 N304 0.985 . S
C318 C319 1.363 . S
C318 C324 1.379 . S
C318 N326 1.356 . S
C319 C318 1.363 . S
C319 C325 1.363 1_554 S
C320 C321 1.363 . S
C320 C325 1.379 1_554 S
C320 N327 1.356 . S
C321 C320 1.363 . S
C321 C324 1.363 . S
N322 C324 1.356 . S
N322 H334 0.984 . S
N322 H335 0.985 . S
N323 C325 1.356 . S
N323 H328 0.984 . S
N323 H329 0.985 . S
C324 C318 1.379 . S
C324 C321 1.363 . S
C324 N322 1.356 . S
C325 C319 1.363 1_556 S
C325 C320 1.379 1_556 S
C325 N323 1.356 . S
N326 C318 1.356 . S
N326 H332 0.984 . S
N326 H333 0.984 . S
N327 C320 1.356 . S
N327 H330 0.984 . S
N327 H331 0.985 1_554 S
H328 N323 0.984 . S
H329 N323 0.985 . S
H330 N327 0.984 . S
H331 N327 0.985 1_556 S
H332 N326 0.984 . S
H333 N326 0.984 . S
H334 N322 0.984 . S
H335 N322 0.985 . S
C336 C337 1.363 . S
C336 C342 1.379 1_655 S
C336 N344 1.356 . S
C337 C336 1.363 . S
C337 C343 1.363 . S
C338 C339 1.363 . S
C338 C343 1.379 1_455 S
C338 N345 1.356 . S
C339 C338 1.363 . S
C339 C342 1.363 . S
N340 C342 1.356 . S
N340 H352 0.984 . S
N340 H353 0.985 . S
N341 C343 1.356 . S
N341 H346 0.984 . S
N341 H347 0.985 . S
C342 C336 1.379 1_455 S
C342 C339 1.363 . S
C342 N340 1.356 . S
C343 C337 1.363 . S
C343 C338 1.379 1_655 S
C343 N341 1.356 . S
N344 C336 1.356 . S
N344 H350 0.984 . S
N344 H351 0.984 . S
N345 C338 1.356 . S
N345 H348 0.984 . S
N345 H349 0.985 . S
H346 N341 0.984 . S
H347 N341 0.985 . S
H348 N345 0.984 . S
H349 N345 0.985 . S
H350 N344 0.984 . S
H351 N344 0.984 . S
H352 N340 0.984 . S
H353 N340 0.985 . S
C354 C355 1.363 1_556 S
C354 C360 1.379 . S
C354 N362 1.356 1_556 S
C355 C354 1.363 1_554 S
C355 C361 1.363 . S
C356 C357 1.363 1_554 S
C356 C361 1.379 . S
C356 N363 1.356 1_554 S
C357 C356 1.363 1_556 S
C357 C360 1.363 . S
N358 C360 1.356 . S
N358 H370 0.984 . S
N358 H371 0.985 . S
N359 C361 1.356 . S
N359 H364 0.984 . S
N359 H365 0.985 . S
C360 C354 1.379 . S
C360 C357 1.363 . S
C360 N358 1.356 . S
C361 C355 1.363 . S
C361 C356 1.379 . S
C361 N359 1.356 . S
N362 C354 1.356 1_554 S
N362 H368 0.984 1_554 S
N362 H369 0.984 . S
N363 C356 1.356 1_556 S
N363 H366 0.984 . S
N363 H367 0.985 1_556 S
H364 N359 0.984 . S
H365 N359 0.985 . S
H366 N363 0.984 . S
H367 N363 0.985 1_554 S
H368 N362 0.984 1_556 S
H369 N362 0.984 . S
H370 N358 0.984 . S
H371 N358 0.985 . S
C372 C373 1.363 1_565 S
C372 C378 1.379 . S
C372 N380 1.356 . S
C373 C372 1.363 1_545 S
C373 C379 1.363 . S
C374 C375 1.367 . S
C374 C379 1.376 1_565 S
C374 N381 1.356 . S
C375 C374 1.367 . S
C375 C378 1.363 . S
N376 C378 1.356 . S
N376 H388 0.984 . S
N376 H389 0.985 . S
N377 C379 1.356 . S
N377 H382 0.984 . S
N377 H383 0.985 . S
C378 C372 1.379 . S
C378 C375 1.363 . S
C378 N376 1.356 . S
C379 C373 1.363 . S
C379 C374 1.376 1_545 S
C379 N377 1.356 . S
N380 C372 1.356 . S
N380 H386 0.984 . S
N380 H387 0.984 1_565 S
N381 C374 1.356 . S
N381 H384 0.984 . S
N381 H385 0.985 1_565 S
H382 N377 0.984 . S
H383 N377 0.985 . S
H384 N381 0.984 . S
H385 N381 0.985 1_545 S
H386 N380 0.984 . S
H387 N380 0.984 1_545 S
H388 N376 0.984 . S
H389 N376 0.985 . S
C390 C391 1.363 . S
C390 C396 1.379 . S
C390 N398 1.356 . S
C391 C390 1.363 . S
C391 C397 1.363 1_556 S
C392 C393 1.363 . S
C392 C397 1.379 . S
C392 N399 1.356 . S
C393 C392 1.363 . S
C393 C396 1.363 1_554 S
N394 C396 1.356 . S
N394 H406 0.984 . S
N394 H407 0.985 . S
N395 C397 1.356 . S
N395 H400 0.984 . S
N395 H401 0.985 . S
C396 C390 1.379 . S
C396 C393 1.363 1_556 S
C396 N394 1.356 . S
C397 C391 1.363 1_554 S
C397 C392 1.379 . S
C397 N395 1.356 . S
N398 C390 1.356 . S
N398 H404 0.984 . S
N398 H405 0.984 . S
N399 C392 1.356 . S
N399 H402 0.984 . S
N399 H403 0.985 . S
H400 N395 0.984 . S
H401 N395 0.985 . S
H402 N399 0.984 . S
H403 N399 0.985 . S
H404 N398 0.984 . S
H405 N398 0.984 . S
H406 N394 0.984 . S
H407 N394 0.985 . S
C408 C409 1.363 . S
C408 C414 1.379 1_565 S
C408 N416 1.356 . S
C409 C408 1.363 . S
C409 C415 1.363 . S
C410 C411 1.363 . S
C410 C415 1.379 1_545 S
C410 N417 1.356 . S
C411 C410 1.363 . S
C411 C414 1.363 . S
N412 C414 1.356 . S
N412 H424 0.984 . S
N412 H425 0.985 . S
N413 C415 1.356 . S
N413 H418 0.984 . S
N413 H419 0.985 . S
C414 C408 1.379 1_545 S
C414 C411 1.363 . S
C414 N412 1.356 . S
C415 C409 1.363 . S
C415 C410 1.379 1_565 S
C415 N413 1.356 . S
N416 C408 1.356 . S
N416 H422 0.984 . S
N416 H423 0.984 . S
N417 C410 1.356 . S
N417 H420 0.984 . S
N417 H421 0.985 . S
H418 N413 0.984 . S
H419 N413 0.985 . S
H420 N417 0.984 . S
H421 N417 0.985 . S
H422 N416 0.984 . S
H423 N416 0.984 . S
H424 N412 0.984 . S
H425 N412 0.985 . S
C426 C427 1.363 . S
C426 C432 1.379 1_655 S
C426 N434 1.356 . S
C427 C426 1.363 . S
C427 C433 1.363 . S
C428 C429 1.363 . S
C428 C433 1.379 1_455 S
C428 N435 1.356 . S
C429 C428 1.363 . S
C429 C432 1.363 . S
N430 C432 1.356 . S
N430 H442 0.984 . S
N430 H443 0.985 . S
N431 C433 1.356 . S
N431 H436 0.984 . S
N431 H437 0.985 . S
C432 C426 1.379 1_455 S
C432 C429 1.363 . S
C432 N430 1.356 . S
C433 C427 1.363 . S
C433 C428 1.379 1_655 S
C433 N431 1.356 . S
N434 C426 1.356 . S
N434 H440 0.984 . S
N434 H441 0.984 . S
N435 C428 1.356 . S
N435 H438 0.984 . S
N435 H439 0.985 . S
H436 N431 0.984 . S
H437 N431 0.985 . S
H438 N435 0.984 . S
H439 N435 0.985 . S
H440 N434 0.984 . S
H441 N434 0.984 . S
H442 N430 0.984 . S
H443 N430 0.985 . S
C444 C445 1.363 . S
C444 C450 1.379 . S
C444 N452 1.356 . S
C445 C444 1.363 . S
C445 C451 1.363 . S
C446 C447 1.363 . S
C446 C451 1.379 . S
C446 N453 1.356 . S
C447 C446 1.363 . S
C447 C450 1.363 . S
N448 C450 1.356 . S
N448 H460 0.984 . S
N448 H461 0.985 . S
N449 C451 1.356 . S
N449 H454 0.984 . S
N449 H455 0.985 . S
C450 C444 1.379 . S
C450 C447 1.363 . S
C450 N448 1.356 . S
C451 C445 1.363 . S
C451 C446 1.379 . S
C451 N449 1.356 . S
N452 C444 1.356 . S
N452 H458 0.984 . S
N452 H459 0.984 . S
N453 C446 1.356 . S
N453 H456 0.984 . S
N453 H457 0.985 . S
H454 N449 0.984 . S
H455 N449 0.985 . S
H456 N453 0.984 . S
H457 N453 0.985 . S
H458 N452 0.984 . S
H459 N452 0.984 . S
H460 N448 0.984 . S
H461 N448 0.985 . S
C462 C463 1.363 . S
C462 C468 1.379 . S
C462 N470 1.356 . S
C463 C462 1.363 . S
C463 C469 1.363 . S
C464 C465 1.363 . S
C464 C469 1.379 . S
C464 N471 1.356 . S
C465 C464 1.363 . S
C465 C468 1.363 . S
N466 C468 1.356 . S
N466 H478 0.984 . S
N466 H479 0.985 . S
N467 C469 1.356 . S
N467 H472 0.984 . S
N467 H473 0.985 . S
C468 C462 1.379 . S
C468 C465 1.363 . S
C468 N466 1.356 . S
C469 C463 1.363 . S
C469 C464 1.379 . S
C469 N467 1.356 . S
N470 C462 1.356 . S
N470 H476 0.984 . S
N470 H477 0.984 . S
N471 C464 1.356 . S
N471 H474 0.984 . S
N471 H475 0.985 . S
H472 N467 0.984 . S
H473 N467 0.985 . S
H474 N471 0.984 . S
H475 N471 0.985 . S
H476 N470 0.984 . S
H477 N470 0.984 . S
H478 N466 0.984 . S
H479 N466 0.985 . S
C480 C481 1.363 . S
C480 C486 1.379 . S
C480 N488 1.356 . S
C481 C480 1.363 . S
C481 C487 1.363 . S
C482 C483 1.363 1_556 S
C482 C487 1.379 . S
C482 N489 1.356 . S
C483 C482 1.363 1_554 S
C483 C486 1.363 1_554 S
N484 C486 1.356 1_554 S
N484 H496 0.984 . S
N484 H497 0.985 . S
N485 C487 1.356 . S
N485 H490 0.984 . S
N485 H491 0.985 . S
C486 C480 1.379 . S
C486 C483 1.363 1_556 S
C486 N484 1.356 1_556 S
C487 C481 1.363 . S
C487 C482 1.379 . S
C487 N485 1.356 . S
N488 C480 1.356 . S
N488 H494 0.984 . S
N488 H495 0.984 . S
N489 C482 1.356 . S
N489 H492 0.984 1_556 S
N489 H493 0.985 . S
H490 N485 0.984 . S
H491 N485 0.985 . S
H492 N489 0.984 1_554 S
H493 N489 0.985 . S
H494 N488 0.984 . S
H495 N488 0.984 . S
H496 N484 0.984 . S
H497 N484 0.985 . S
C498 C499 1.363 . S
C498 C504 1.379 . S
C498 N506 1.356 . S
C499 C498 1.363 . S
C499 C505 1.363 . S
C500 C501 1.363 . S
C500 C505 1.379 . S
C500 N507 1.356 . S
C501 C500 1.363 . S
C501 C504 1.363 . S
N502 C504 1.356 . S
N502 H514 0.984 . S
N502 H515 0.985 . S
N503 C505 1.356 . S
N503 H508 0.984 . S
N503 H509 0.985 . S
C504 C498 1.379 . S
C504 C501 1.363 . S
C504 N502 1.356 . S
C505 C499 1.363 . S
C505 C500 1.379 . S
C505 N503 1.356 . S
N506 C498 1.356 . S
N506 H512 0.984 . S
N506 H513 0.984 . S
N507 C500 1.356 . S
N507 H510 0.984 . S
N507 H511 0.985 . S
H508 N503 0.984 . S
H509 N503 0.985 . S
H510 N507 0.984 . S
H511 N507 0.985 . S
H512 N506 0.984 . S
H513 N506 0.984 . S
H514 N502 0.984 . S
H515 N502 0.985 . S
C516 C517 1.363 . S
C516 C522 1.379 . S
C516 N524 1.356 . S
C517 C516 1.363 . S
C517 C523 1.363 . S
C518 C519 1.363 1_554 S
C518 C523 1.379 . S
C518 N525 1.356 . S
C519 C518 1.363 1_556 S
C519 C522 1.363 1_556 S
N520 C522 1.356 1_556 S
N520 H532 0.984 . S
N520 H533 0.985 . S
N521 C523 1.356 . S
N521 H526 0.984 . S
N521 H527 0.985 . S
C522 C516 1.379 . S
C522 C519 1.363 1_554 S
C522 N520 1.356 1_554 S
C523 C517 1.363 . S
C523 C518 1.379 . S
C523 N521 1.356 . S
N524 C516 1.356 . S
N524 H530 0.984 . S
N524 H531 0.984 . S
N525 C518 1.356 . S
N525 H528 0.984 1_554 S
N525 H529 0.985 . S
H526 N521 0.984 . S
H527 N521 0.985 . S
H528 N525 0.984 1_556 S
H529 N525 0.985 . S
H530 N524 0.984 . S
H531 N524 0.984 . S
H532 N520 0.984 . S
H533 N520 0.985 . S
C534 C535 1.363 . S
C534 C540 1.379 . S
C534 N542 1.356 . S
C535 C534 1.363 . S
C535 C541 1.363 . S
C536 C537 1.363 . S
C536 C541 1.379 . S
C536 N543 1.356 . S
C537 C536 1.363 . S
C537 C540 1.363 . S
N538 C540 1.356 . S
N538 H550 0.984 . S
N538 H551 0.985 . S
N539 C541 1.356 . S
N539 H544 0.984 . S
N539 H545 0.985 . S
C540 C534 1.379 . S
C540 C537 1.363 . S
C540 N538 1.356 . S
C541 C535 1.363 . S
C541 C536 1.379 . S
C541 N539 1.356 . S
N542 C534 1.356 . S
N542 H548 0.984 . S
N542 H549 0.984 . S
N543 C536 1.356 . S
N543 H546 0.984 . S
N543 H547 0.985 . S
H544 N539 0.984 . S
H545 N539 0.985 . S
H546 N543 0.984 . S
H547 N543 0.985 . S
H548 N542 0.984 . S
H549 N542 0.984 . S
H550 N538 0.984 . S
H551 N538 0.985 . S
C175 C13 2.362 1_556 S
C177 C129 2.362 . S
C193 C158 2.361 . S
C195 C42 2.361 . S
C211 C71 2.362 . S
C213 C100 2.362 1_554 S
C229 C10 2.149 . S
C231 C79 1.712 . S
C247 C21 1.712 . S
C249 C39 2.149 . S
C265 C50 1.712 . S
C267 C68 2.149 . S
C283 C97 2.149 . S
C285 C137 1.712 . S
C301 C126 2.149 . S
C303 C166 1.712 . S
C319 C108 1.712 . S
C321 C155 2.149 . S
C337 C131 1.420 . S
C339 C15 1.420 . S
C355 C160 1.420 . S
C357 C44 1.420 . S
C373 C102 1.420 . S
C375 C73 1.420 . S
C391 C5 2.554 1_556 S
C393 C92 2.554 1_554 S
C409 C34 2.554 . S
C411 C121 2.554 . S
C427 C150 2.554 . S
C429 C63 2.554 . S
C445 C8 1.242 . S
C447 C3 1.242 . S
C463 C32 1.242 . S
C465 C37 1.242 . S
C481 C66 1.242 . S
C483 C61 1.242 . S
C499 C95 1.242 . S
C501 C90 1.242 . S
C517 C124 1.242 . S
C519 C119 1.242 . S
C535 C148 1.242 . S
C537 C153 1.242 . S
