# Generated by pormake.
# Topology tzs, (4)-cn, num edge types: 1
# Building blocks:
#     Node 0, Type 0, BuildingBlock: GALJAG_clean_sbu_0, # of connection points: 4
#     Node 1, Type 0, BuildingBlock: GALJAG_clean_sbu_0, # of connection points: 4
#     Node 2, Type 0, BuildingBlock: GALJAG_clean_sbu_0, # of connection points: 4
#     Node 3, Type 0, BuildingBlock: GALJAG_clean_sbu_0, # of connection points: 4
#     Node 4, Type 0, BuildingBlock: GALJAG_clean_sbu_0, # of connection points: 4
#     Node 5, Type 0, BuildingBlock: GALJAG_clean_sbu_0, # of connection points: 4
#     Node 6, Type 0, BuildingBlock: GALJAG_clean_sbu_0, # of connection points: 4
#     Node 7, Type 0, BuildingBlock: GALJAG_clean_sbu_0, # of connection points: 4
#     Node 8, Type 0, BuildingBlock: GALJAG_clean_sbu_0, # of connection points: 4
#     Node 9, Type 0, BuildingBlock: GALJAG_clean_sbu_0, # of connection points: 4
#     Node 10, Type 0, BuildingBlock: GALJAG_clean_sbu_0, # of connection points: 4
#     Node 11, Type 0, BuildingBlock: GALJAG_clean_sbu_0, # of connection points: 4
#     Node 12, Type 0, BuildingBlock: GALJAG_clean_sbu_0, # of connection points: 4
#     Node 13, Type 0, BuildingBlock: GALJAG_clean_sbu_0, # of connection points: 4
#     Node 14, Type 0, BuildingBlock: GALJAG_clean_sbu_0, # of connection points: 4
#     Node 15, Type 0, BuildingBlock: GALJAG_clean_sbu_0, # of connection points: 4
#     Edge 16, Type (0, 0), BuildingBlock: KIFKEQ_clean_linker_1, # of connection points: 2
#     Edge 17, Type (0, 0), BuildingBlock: KIFKEQ_clean_linker_1, # of connection points: 2
#     Edge 18, Type (0, 0), BuildingBlock: KIFKEQ_clean_linker_1, # of connection points: 2
#     Edge 19, Type (0, 0), BuildingBlock: KIFKEQ_clean_linker_1, # of connection points: 2
#     Edge 20, Type (0, 0), BuildingBlock: KIFKEQ_clean_linker_1, # of connection points: 2
#     Edge 21, Type (0, 0), BuildingBlock: KIFKEQ_clean_linker_1, # of connection points: 2
#     Edge 22, Type (0, 0), BuildingBlock: KIFKEQ_clean_linker_1, # of connection points: 2
#     Edge 23, Type (0, 0), BuildingBlock: KIFKEQ_clean_linker_1, # of connection points: 2
#     Edge 24, Type (0, 0), BuildingBlock: KIFKEQ_clean_linker_1, # of connection points: 2
#     Edge 25, Type (0, 0), BuildingBlock: KIFKEQ_clean_linker_1, # of connection points: 2
#     Edge 26, Type (0, 0), BuildingBlock: KIFKEQ_clean_linker_1, # of connection points: 2
#     Edge 27, Type (0, 0), BuildingBlock: KIFKEQ_clean_linker_1, # of connection points: 2
#     Edge 28, Type (0, 0), BuildingBlock: KIFKEQ_clean_linker_1, # of connection points: 2
#     Edge 29, Type (0, 0), BuildingBlock: KIFKEQ_clean_linker_1, # of connection points: 2
#     Edge 30, Type (0, 0), BuildingBlock: KIFKEQ_clean_linker_1, # of connection points: 2
#     Edge 31, Type (0, 0), BuildingBlock: KIFKEQ_clean_linker_1, # of connection points: 2
#     Edge 32, Type (0, 0), BuildingBlock: KIFKEQ_clean_linker_1, # of connection points: 2
#     Edge 33, Type (0, 0), BuildingBlock: KIFKEQ_clean_linker_1, # of connection points: 2
#     Edge 34, Type (0, 0), BuildingBlock: KIFKEQ_clean_linker_1, # of connection points: 2
#     Edge 35, Type (0, 0), BuildingBlock: KIFKEQ_clean_linker_1, # of connection points: 2
#     Edge 36, Type (0, 0), BuildingBlock: KIFKEQ_clean_linker_1, # of connection points: 2
#     Edge 37, Type (0, 0), BuildingBlock: KIFKEQ_clean_linker_1, # of connection points: 2
#     Edge 38, Type (0, 0), BuildingBlock: KIFKEQ_clean_linker_1, # of connection points: 2
#     Edge 39, Type (0, 0), BuildingBlock: KIFKEQ_clean_linker_1, # of connection points: 2
#     Edge 40, Type (0, 0), BuildingBlock: KIFKEQ_clean_linker_1, # of connection points: 2
#     Edge 41, Type (0, 0), BuildingBlock: KIFKEQ_clean_linker_1, # of connection points: 2
#     Edge 42, Type (0, 0), BuildingBlock: KIFKEQ_clean_linker_1, # of connection points: 2
#     Edge 43, Type (0, 0), BuildingBlock: KIFKEQ_clean_linker_1, # of connection points: 2
#     Edge 44, Type (0, 0), BuildingBlock: KIFKEQ_clean_linker_1, # of connection points: 2
#     Edge 45, Type (0, 0), BuildingBlock: KIFKEQ_clean_linker_1, # of connection points: 2
#     Edge 46, Type (0, 0), BuildingBlock: KIFKEQ_clean_linker_1, # of connection points: 2
#     Edge 47, Type (0, 0), BuildingBlock: KIFKEQ_clean_linker_1, # of connection points: 2
# Relax obj value: 0.153
# Max RMSD: 0.154
# Mean RMSD: 0.154
data_MOF--net-tzs--node1-GALJAG_clean_sbu_0--edge1-KIFKEQ_clean_linker_1
_symmetry_space_group_name_H-M    P1
_symmetry_Int_Tables_number       1
_symmetry_cell_setting            triclinic
loop_
_symmetry_equiv_pos_as_xyz
'x, y, z'
_cell_length_a     49.724039
_cell_length_b     49.718857
_cell_length_c     41.043824
_cell_angle_alpha  90.018171
_cell_angle_beta   90.006469
_cell_angle_gamma 89.968477
loop_
_atom_site_label
_atom_site_type_symbol
_atom_site_fract_x
_atom_site_fract_y
_atom_site_fract_z
_atom_type_partial_charge
In0 In 0.13895 0.34676 0.18626 0.0
O1 O 0.1655 0.32863 0.22644 0.0
O2 O 0.16543 0.30954 0.18033 0.0
C3 C 0.14421 0.39835 0.20646 0.0
C4 C 0.14459 0.34786 0.12089 0.0
C5 C 0.08902 0.33243 0.20567 0.0
O6 O 0.16427 0.38329 0.20172 0.0
O7 O 0.12184 0.38752 0.20061 0.0
O8 O 0.09431 0.34018 0.17715 0.0
O9 O 0.1091 0.33122 0.22442 0.0
C10 C 0.17448 0.30981 0.20897 0.0
O11 O 0.1299 0.33103 0.13545 0.0
O12 O 0.15665 0.36423 0.13935 0.0
In13 In 0.64742 0.14442 0.19148 0.0
O14 O 0.66211 0.12861 0.14229 0.0
O15 O 0.64224 0.16634 0.14291 0.0
C16 C 0.6554 0.09337 0.21152 0.0
C17 C 0.68321 0.18138 0.21275 0.0
C18 C 0.5973 0.15199 0.21555 0.0
O19 O 0.63995 0.09934 0.1882 0.0
O20 O 0.66689 0.11318 0.22479 0.0
O21 O 0.61773 0.1498 0.23353 0.0
O22 O 0.60214 0.15056 0.18545 0.0
C23 C 0.65366 0.14844 0.12614 0.0
O24 O 0.65858 0.18651 0.20902 0.0
O25 O 0.68984 0.15758 0.20583 0.0
In26 In 0.85504 0.64649 0.18659 0.0
O27 O 0.86995 0.66513 0.13889 0.0
O28 O 0.8358 0.63951 0.13702 0.0
C29 C 0.90771 0.65261 0.2011 0.0
C30 C 0.81865 0.68189 0.21049 0.0
C31 C 0.84309 0.59711 0.21052 0.0
O32 O 0.89818 0.63129 0.18912 0.0
O33 O 0.89068 0.67109 0.20565 0.0
O34 O 0.84239 0.61802 0.22788 0.0
O35 O 0.84943 0.6012 0.18124 0.0
C36 C 0.85214 0.65409 0.12155 0.0
O37 O 0.81493 0.66866 0.18471 0.0
O38 O 0.84075 0.67723 0.22449 0.0
In39 In 0.35409 0.85243 0.18779 0.0
O40 O 0.33485 0.86698 0.14018 0.0
O41 O 0.36098 0.8333 0.1381 0.0
C42 C 0.347 0.90503 0.20178 0.0
C43 C 0.32013 0.81531 0.21304 0.0
C44 C 0.40415 0.84226 0.21066 0.0
O45 O 0.32836 0.88795 0.20474 0.0
O46 O 0.36901 0.89557 0.19164 0.0
O47 O 0.38389 0.84315 0.22914 0.0
O48 O 0.39904 0.84622 0.181 0.0
C49 C 0.34604 0.84936 0.12273 0.0
O50 O 0.33494 0.81079 0.18877 0.0
O51 O 0.32262 0.83852 0.22503 0.0
In52 In 0.14725 0.64138 0.30705 0.0
O53 O 0.13178 0.65298 0.35726 0.0
O54 O 0.16957 0.63327 0.35494 0.0
C55 C 0.09899 0.65258 0.27989 0.0
C56 C 0.18383 0.67863 0.28813 0.0
C57 C 0.151 0.58911 0.28924 0.0
O58 O 0.10352 0.65471 0.31 0.0
O59 O 0.11902 0.64527 0.26316 0.0
O60 O 0.16278 0.60774 0.27406 0.0
O61 O 0.13755 0.59679 0.31357 0.0
C62 C 0.15168 0.64378 0.37263 0.0
O63 O 0.1896 0.65421 0.2923 0.0
O64 O 0.1595 0.68435 0.29325 0.0
In65 In 0.35342 0.14386 0.30782 0.0
O66 O 0.3519 0.12567 0.3585 0.0
O67 O 0.35644 0.16808 0.35519 0.0
C68 C 0.34108 0.09675 0.27814 0.0
C69 C 0.31451 0.17761 0.28629 0.0
C70 C 0.40623 0.15194 0.29556 0.0
O71 O 0.33318 0.10254 0.30644 0.0
O72 O 0.3545 0.115 0.26444 0.0
O73 O 0.38833 0.16852 0.28709 0.0
O74 O 0.39753 0.13167 0.31066 0.0
C75 C 0.35435 0.14771 0.37339 0.0
O76 O 0.33724 0.17581 0.27289 0.0
O77 O 0.31127 0.16226 0.3104 0.0
In78 In 0.85158 0.35684 0.31459 0.0
O79 O 0.87221 0.36103 0.36402 0.0
O80 O 0.83153 0.34825 0.36364 0.0
C81 C 0.89981 0.34444 0.28836 0.0
C82 C 0.81597 0.3201 0.29238 0.0
C83 C 0.84054 0.4082 0.29699 0.0
O84 O 0.8906 0.33249 0.31309 0.0
O85 O 0.88456 0.36232 0.27673 0.0
O86 O 0.83351 0.38821 0.28011 0.0
O87 O 0.85276 0.40228 0.3229 0.0
C88 C 0.85198 0.35395 0.38041 0.0
O89 O 0.80884 0.34126 0.30699 0.0
O90 O 0.84103 0.31747 0.28893 0.0
In91 In 0.64602 0.85321 0.31286 0.0
O92 O 0.63136 0.86836 0.3622 0.0
O93 O 0.65952 0.83622 0.36192 0.0
C94 C 0.66049 0.90292 0.29261 0.0
C95 C 0.68244 0.81686 0.29154 0.0
C96 C 0.59566 0.84418 0.28993 0.0
O97 O 0.65529 0.89762 0.32198 0.0
O98 O 0.65917 0.883 0.27365 0.0
O99 O 0.60439 0.83309 0.31543 0.0
O100 O 0.61238 0.85923 0.27591 0.0
C101 C 0.64525 0.85203 0.37864 0.0
O102 O 0.65742 0.81276 0.29032 0.0
O103 O 0.68908 0.83929 0.30344 0.0
In104 In 0.85539 0.65137 0.81065 0.0
O105 O 0.83987 0.63807 0.86024 0.0
O106 O 0.86578 0.67195 0.85899 0.0
C107 C 0.84636 0.60123 0.78775 0.0
C108 C 0.81779 0.6868 0.78923 0.0
C109 C 0.90718 0.65702 0.79181 0.0
O110 O 0.84287 0.60767 0.81717 0.0
O111 O 0.8542 0.62019 0.76962 0.0
O112 O 0.88783 0.66748 0.77649 0.0
O113 O 0.90043 0.64379 0.81671 0.0
C114 C 0.85201 0.65603 0.87613 0.0
O115 O 0.84018 0.694 0.80053 0.0
O116 O 0.81428 0.66173 0.78862 0.0
In117 In 0.34893 0.85662 0.81215 0.0
O118 O 0.3082 0.84479 0.79066 0.0
O119 O 0.33547 0.81345 0.80251 0.0
C120 C 0.34168 0.90687 0.78846 0.0
C121 C 0.34445 0.85173 0.87748 0.0
C122 C 0.40009 0.84864 0.79227 0.0
O123 O 0.34351 0.88648 0.7703 0.0
O124 O 0.34299 0.90185 0.81853 0.0
O125 O 0.39395 0.86423 0.81533 0.0
O126 O 0.38036 0.83696 0.77907 0.0
C127 C 0.31271 0.81983 0.79141 0.0
O128 O 0.36436 0.84302 0.86167 0.0
O129 O 0.32652 0.86276 0.86032 0.0
In130 In 0.1505 0.3555 0.80963 0.0
O131 O 0.15389 0.375 0.85985 0.0
O132 O 0.15099 0.33252 0.85798 0.0
C133 C 0.16202 0.4018 0.77832 0.0
C134 C 0.18773 0.31987 0.78834 0.0
C135 C 0.09769 0.34994 0.7952 0.0
O136 O 0.17035 0.39675 0.80672 0.0
O137 O 0.14856 0.38314 0.76532 0.0
O138 O 0.11573 0.33606 0.78164 0.0
O139 O 0.10623 0.36629 0.81627 0.0
C140 C 0.15301 0.35324 0.8755 0.0
O141 O 0.16363 0.31349 0.79386 0.0
O142 O 0.19315 0.34426 0.79358 0.0
In143 In 0.64993 0.14742 0.8151 0.0
O144 O 0.69269 0.16095 0.80264 0.0
O145 O 0.66111 0.18861 0.79407 0.0
C146 C 0.6535 0.09502 0.79809 0.0
C147 C 0.65487 0.15134 0.8806 0.0
C148 C 0.60083 0.15687 0.78952 0.0
O149 O 0.66746 0.11307 0.78466 0.0
O150 O 0.63803 0.10337 0.82025 0.0
O151 O 0.60608 0.16003 0.81935 0.0
O152 O 0.62053 0.14939 0.77232 0.0
C153 C 0.68599 0.18399 0.79282 0.0
O154 O 0.63769 0.16444 0.86456 0.0
O155 O 0.66983 0.13642 0.86361 0.0
In156 In 0.85587 0.35847 0.69171 0.0
O157 O 0.83418 0.36244 0.64284 0.0
O158 O 0.87441 0.34824 0.64236 0.0
C159 C 0.84429 0.4085 0.71305 0.0
C160 C 0.82067 0.32136 0.71443 0.0
C161 C 0.90693 0.35335 0.71353 0.0
O162 O 0.84257 0.40186 0.68344 0.0
O163 O 0.85118 0.3897 0.73199 0.0
O164 O 0.88911 0.33593 0.71933 0.0
O165 O 0.89905 0.37295 0.69657 0.0
C166 C 0.85382 0.35437 0.62605 0.0
O167 O 0.84071 0.31528 0.69714 0.0
O168 O 0.81846 0.34611 0.72049 0.0
In169 In 0.64045 0.8545 0.69003 0.0
O170 O 0.68393 0.84036 0.69587 0.0
O171 O 0.65324 0.8163 0.7168 0.0
C172 C 0.646 0.90509 0.71348 0.0
C173 C 0.64365 0.85291 0.62424 0.0
C174 C 0.59096 0.84203 0.71224 0.0
O175 O 0.66429 0.88764 0.71628 0.0
O176 O 0.62528 0.89707 0.69877 0.0
O177 O 0.59644 0.8434 0.68226 0.0
O178 O 0.61063 0.84628 0.73101 0.0
C179 C 0.67804 0.81946 0.71173 0.0
O180 O 0.63837 0.83243 0.64115 0.0
O181 O 0.64745 0.87409 0.64047 0.0
In182 In 0.14697 0.64443 0.68323 0.0
O183 O 0.16568 0.62996 0.63537 0.0
O184 O 0.1389 0.6632 0.63359 0.0
C185 C 0.15482 0.59199 0.69749 0.0
C186 C 0.18079 0.68178 0.70823 0.0
C187 C 0.09718 0.65443 0.7071 0.0
O188 O 0.13245 0.60129 0.68839 0.0
O189 O 0.17348 0.60915 0.69927 0.0
O190 O 0.11794 0.65511 0.72474 0.0
O191 O 0.10162 0.64913 0.67757 0.0
C192 C 0.15386 0.64725 0.61803 0.0
O193 O 0.16736 0.68552 0.68261 0.0
O194 O 0.17712 0.6592 0.72147 0.0
In195 In 0.35959 0.1481 0.68453 0.0
O196 O 0.36845 0.16859 0.6358 0.0
O197 O 0.34455 0.1332 0.63532 0.0
C198 C 0.4101 0.15596 0.70691 0.0
C199 C 0.32374 0.18513 0.70621 0.0
C200 C 0.35147 0.09687 0.70432 0.0
O201 O 0.40385 0.15888 0.67733 0.0
O202 O 0.39082 0.14942 0.72524 0.0
O203 O 0.33915 0.11657 0.7167 0.0
O204 O 0.36774 0.10302 0.68196 0.0
C205 C 0.35552 0.15169 0.61904 0.0
O206 O 0.31703 0.16505 0.68937 0.0
O207 O 0.34854 0.18662 0.71218 0.0
H208 H 0.31524 0.20873 0.23162 0.0
H209 H 0.26658 0.18929 0.31554 0.0
H210 H 0.28096 0.24049 0.21327 0.0
H211 H 0.23224 0.22105 0.29712 0.0
H212 H 0.19349 0.30335 0.27097 0.0
H213 H 0.22712 0.27096 0.28987 0.0
H214 H 0.23386 0.23916 0.19228 0.0
H215 H 0.20038 0.27149 0.1734 0.0
C216 C 0.29719 0.21121 0.24609 0.0
C217 C 0.29356 0.19652 0.27498 0.0
C218 C 0.27752 0.22929 0.23551 0.0
C219 C 0.25392 0.23324 0.25375 0.0
C220 C 0.25034 0.2186 0.28272 0.0
C221 C 0.26991 0.20032 0.29315 0.0
C222 C 0.20213 0.28938 0.25362 0.0
C223 C 0.19435 0.28996 0.22072 0.0
C224 C 0.22126 0.27078 0.26445 0.0
C225 C 0.23315 0.25258 0.24253 0.0
C226 C 0.22527 0.25313 0.20966 0.0
C227 C 0.20599 0.27155 0.1989 0.0
H228 H 0.82599 0.27691 0.25328 0.0
H229 H 0.76215 0.31773 0.30473 0.0
H230 H 0.79393 0.24369 0.23338 0.0
H231 H 0.7302 0.28397 0.28597 0.0
H232 H 0.675 0.2352 0.2204 0.0
H233 H 0.70718 0.26885 0.23882 0.0
H234 H 0.76731 0.20675 0.25069 0.0
H235 H 0.73534 0.17333 0.23101 0.0
C236 C 0.80511 0.27866 0.2605 0.0
C237 C 0.79654 0.29992 0.2805 0.0
C238 C 0.78674 0.25951 0.24929 0.0
C239 C 0.75943 0.26106 0.25809 0.0
C240 C 0.75096 0.28236 0.27823 0.0
C241 C 0.76929 0.30164 0.28918 0.0
C242 C 0.69511 0.22878 0.22692 0.0
C243 C 0.70269 0.20167 0.22425 0.0
C244 C 0.71353 0.24804 0.23769 0.0
C245 C 0.73988 0.24056 0.24635 0.0
C246 C 0.74736 0.21334 0.24375 0.0
C247 C 0.72899 0.19413 0.23267 0.0
H248 H 0.82147 0.71201 0.26614 0.0
H249 H 0.77086 0.69591 0.18286 0.0
H250 H 0.78841 0.74432 0.28641 0.0
H251 H 0.73813 0.72852 0.20269 0.0
H252 H 0.6728 0.76749 0.26494 0.0
H253 H 0.70572 0.73453 0.24626 0.0
H254 H 0.77011 0.78847 0.2732 0.0
H255 H 0.73715 0.82121 0.29245 0.0
C256 C 0.80332 0.71543 0.25214 0.0
C257 C 0.79872 0.70141 0.22296 0.0
C258 C 0.78445 0.73404 0.26364 0.0
C259 C 0.76061 0.739 0.24617 0.0
C260 C 0.75608 0.72491 0.21698 0.0
C261 C 0.77491 0.70632 0.20552 0.0
C262 C 0.69399 0.77228 0.2669 0.0
C263 C 0.7024 0.79693 0.28013 0.0
C264 C 0.71286 0.75346 0.25604 0.0
C265 C 0.74056 0.75887 0.25819 0.0
C266 C 0.74895 0.78353 0.27157 0.0
C267 C 0.73006 0.80236 0.2824 0.0
H268 H 0.31285 0.76402 0.19162 0.0
H269 H 0.2838 0.82129 0.26254 0.0
H270 H 0.28002 0.73122 0.21061 0.0
H271 H 0.25107 0.78825 0.28191 0.0
H272 H 0.17645 0.7326 0.27929 0.0
H273 H 0.20989 0.76576 0.26228 0.0
H274 H 0.27029 0.70334 0.25826 0.0
H275 H 0.23683 0.67021 0.27478 0.0
C276 C 0.29956 0.76953 0.21143 0.0
C277 C 0.30088 0.79521 0.2256 0.0
C278 C 0.28083 0.75069 0.22242 0.0
C279 C 0.26295 0.75713 0.24778 0.0
C280 C 0.26439 0.78279 0.26209 0.0
C281 C 0.28322 0.80164 0.25116 0.0
C282 C 0.19688 0.72601 0.27477 0.0
C283 C 0.20402 0.69881 0.27822 0.0
C284 C 0.21606 0.74501 0.26525 0.0
C285 C 0.24273 0.73716 0.25889 0.0
C286 C 0.24984 0.70997 0.26258 0.0
C287 C 0.2307 0.69101 0.27217 0.0
H288 H 0.66995 0.7735 0.74668 0.0
H289 H 0.73235 0.82172 0.70264 0.0
H290 H 0.70374 0.74151 0.7656 0.0
H291 H 0.76612 0.78947 0.72098 0.0
H292 H 0.82102 0.74154 0.78924 0.0
H293 H 0.78715 0.77364 0.77085 0.0
H294 H 0.73469 0.70789 0.74439 0.0
H295 H 0.7684 0.67581 0.76342 0.0
C296 C 0.69089 0.77721 0.74096 0.0
C297 C 0.69852 0.80012 0.72322 0.0
C298 C 0.71023 0.7588 0.75163 0.0
C299 C 0.73763 0.76291 0.74478 0.0
C300 C 0.74523 0.78588 0.72703 0.0
C301 C 0.72588 0.80429 0.71638 0.0
C302 C 0.80224 0.73396 0.7795 0.0
C303 C 0.79734 0.70618 0.77778 0.0
C304 C 0.7829 0.75234 0.76879 0.0
C305 C 0.75822 0.74334 0.75612 0.0
C306 C 0.75335 0.7155 0.7544 0.0
C307 C 0.77271 0.69712 0.76512 0.0
H308 H 0.21185 0.67837 0.76301 0.0
H309 H 0.19211 0.73115 0.68292 0.0
H310 H 0.24318 0.71195 0.78413 0.0
H311 H 0.22375 0.76445 0.70359 0.0
H312 H 0.2623 0.82886 0.76747 0.0
H313 H 0.22981 0.79557 0.74857 0.0
H314 H 0.28633 0.73201 0.77033 0.0
H315 H 0.31858 0.76529 0.78984 0.0
C316 C 0.21424 0.69713 0.74991 0.0
C317 C 0.19954 0.70214 0.72133 0.0
C318 C 0.23229 0.71629 0.76189 0.0
C319 C 0.23599 0.74088 0.74554 0.0
C320 C 0.22112 0.74589 0.71703 0.0
C321 C 0.2031 0.72674 0.70507 0.0
C322 C 0.26774 0.80777 0.76826 0.0
C323 C 0.29298 0.79967 0.78009 0.0
C324 C 0.24919 0.7887 0.75728 0.0
C325 C 0.25549 0.76112 0.75788 0.0
C326 C 0.28071 0.75306 0.76992 0.0
C327 C 0.29925 0.77213 0.78091 0.0
H328 H 0.18131 0.26587 0.78007 0.0
H329 H 0.23962 0.32969 0.77009 0.0
H330 H 0.21442 0.23345 0.76073 0.0
H331 H 0.2726 0.29739 0.7498 0.0
H332 H 0.3329 0.22773 0.74673 0.0
H333 H 0.30017 0.26025 0.76707 0.0
H334 H 0.2376 0.22056 0.712 0.0
H335 H 0.27017 0.18766 0.6925 0.0
C336 C 0.20119 0.27298 0.77357 0.0
C337 C 0.20789 0.3003 0.77658 0.0
C338 C 0.22013 0.25443 0.76229 0.0
C339 C 0.24618 0.2628 0.75358 0.0
C340 C 0.25286 0.29018 0.75669 0.0
C341 C 0.23392 0.30872 0.76813 0.0
C342 C 0.31214 0.22599 0.73901 0.0
C343 C 0.30407 0.20513 0.7181 0.0
C344 C 0.2934 0.24471 0.7505 0.0
C345 C 0.26621 0.24303 0.74121 0.0
C346 C 0.25826 0.22222 0.72009 0.0
C347 C 0.27696 0.20345 0.70873 0.0
H348 H 0.67599 0.23448 0.76971 0.0
H349 H 0.74052 0.17866 0.78953 0.0
H350 H 0.70859 0.26756 0.75055 0.0
H351 H 0.77319 0.2119 0.77103 0.0
H352 H 0.82089 0.26728 0.70309 0.0
H353 H 0.7882 0.23406 0.7216 0.0
H354 H 0.74392 0.2966 0.77135 0.0
H355 H 0.77633 0.32988 0.75224 0.0
C356 C 0.69715 0.22932 0.77006 0.0
C357 C 0.70571 0.20399 0.7811 0.0
C358 C 0.71585 0.24833 0.75927 0.0
C359 C 0.74352 0.24241 0.75931 0.0
C360 C 0.75202 0.217 0.77029 0.0
C361 C 0.73332 0.198 0.78106 0.0
C362 C 0.80418 0.27391 0.718 0.0
C363 C 0.80115 0.30117 0.72621 0.0
C364 C 0.78552 0.25486 0.72876 0.0
C365 C 0.76343 0.26266 0.74796 0.0
C366 C 0.76049 0.28996 0.75623 0.0
C367 C 0.77915 0.30901 0.74546 0.0
H368 H 0.15299 0.3087 0.91433 0.0
H369 H 0.15426 0.39551 0.91781 0.0
H370 H 0.15266 0.30709 0.97375 0.0
H371 H 0.15325 0.39397 0.97718 0.0
H372 H 0.17597 0.38104 0.08382 0.0
H373 H 0.17973 0.38187 0.02447 0.0
H374 H 0.12218 0.31698 0.01788 0.0
H375 H 0.11896 0.31576 0.07705 0.0
C376 C 0.15319 0.32743 0.92781 0.0
C377 C 0.1536 0.35222 0.91146 0.0
C378 C 0.15284 0.32653 0.96185 0.0
C379 C 0.15282 0.35041 0.98024 0.0
C380 C 0.1536 0.3752 0.96379 0.0
C381 C 0.15401 0.37609 0.92977 0.0
C382 C 0.16422 0.36692 0.06964 0.0
C383 C 0.14718 0.34834 0.08505 0.0
C384 C 0.16626 0.36747 0.03565 0.0
C385 C 0.15126 0.34948 0.0164 0.0
C386 C 0.13433 0.33084 0.03195 0.0
C387 C 0.13234 0.33025 0.06587 0.0
H388 H 0.69296 0.12878 0.91999 0.0
H389 H 0.62047 0.17661 0.92219 0.0
H390 H 0.69475 0.1296 0.9794 0.0
H391 H 0.62161 0.17665 0.98147 0.0
H392 H 0.64219 0.19133 0.0871 0.0
H393 H 0.64465 0.19354 0.02783 0.0
H394 H 0.67199 0.11099 0.02511 0.0
H395 H 0.67047 0.10922 0.0844 0.0
C396 C 0.67741 0.13945 0.9332 0.0
C397 C 0.65657 0.15261 0.91649 0.0
C398 C 0.67831 0.13978 0.96725 0.0
C399 C 0.65827 0.15312 0.98532 0.0
C400 C 0.63762 0.16654 0.96843 0.0
C401 C 0.63685 0.16638 0.93442 0.0
C402 C 0.6489 0.17374 0.07379 0.0
C403 C 0.65609 0.15009 0.09034 0.0
C404 C 0.65015 0.17493 0.03981 0.0
C405 C 0.65839 0.1524 0.02159 0.0
C406 C 0.66593 0.12886 0.0383 0.0
C407 C 0.6649 0.12777 0.0723 0.0
H408 H 0.82992 0.61963 0.91762 0.0
H409 H 0.87159 0.69579 0.91559 0.0
H410 H 0.82945 0.62084 0.9768 0.0
H411 H 0.87022 0.69764 0.97504 0.0
H412 H 0.89037 0.67526 0.08129 0.0
H413 H 0.88959 0.67707 0.02189 0.0
H414 H 0.80981 0.64249 0.02207 0.0
H415 H 0.81118 0.63968 0.08126 0.0
C416 C 0.8387 0.63682 0.92987 0.0
C417 C 0.85082 0.6576 0.91201 0.0
C418 C 0.83827 0.63763 0.96385 0.0
C419 C 0.8497 0.6594 0.98081 0.0
C420 C 0.86155 0.68038 0.96283 0.0
C421 C 0.8622 0.67943 0.92877 0.0
C422 C 0.87264 0.6682 0.06856 0.0
C423 C 0.85093 0.65714 0.08582 0.0
C424 C 0.8721 0.66937 0.03452 0.0
C425 C 0.8497 0.65975 0.01708 0.0
C426 C 0.82764 0.64952 0.03459 0.0
C427 C 0.82833 0.64807 0.06854 0.0
H428 H 0.36352 0.80995 0.08191 0.0
H429 H 0.32168 0.88608 0.08296 0.0
H430 H 0.3609 0.80894 0.02269 0.0
H431 H 0.31981 0.8856 0.02352 0.0
H432 H 0.30254 0.86627 0.91691 0.0
H433 H 0.30066 0.8641 0.97635 0.0
H434 H 0.38138 0.83177 0.9781 0.0
H435 H 0.38285 0.83317 0.91893 0.0
C436 C 0.35374 0.82648 0.06944 0.0
C437 C 0.34293 0.84816 0.087 0.0
C438 C 0.35238 0.82599 0.03548 0.0
C439 C 0.34038 0.84732 0.01828 0.0
C440 C 0.32895 0.86871 0.03597 0.0
C441 C 0.33014 0.86908 0.07002 0.0
C442 C 0.31978 0.85855 0.93008 0.0
C443 C 0.34283 0.84986 0.91332 0.0
C444 C 0.31877 0.85745 0.96411 0.0
C445 C 0.34085 0.84773 0.98205 0.0
C446 C 0.36381 0.83891 0.96512 0.0
C447 C 0.36474 0.83987 0.93116 0.0
H448 H 0.13528 0.68608 0.57707 0.0
H449 H 0.17782 0.61034 0.57818 0.0
H450 H 0.13681 0.68643 0.51777 0.0
H451 H 0.17858 0.61014 0.51871 0.0
H452 H 0.19398 0.62889 0.41131 0.0
H453 H 0.19666 0.63116 0.47072 0.0
H454 H 0.1158 0.66305 0.47403 0.0
H455 H 0.11353 0.66156 0.4149 0.0
C456 C 0.14497 0.6695 0.56459 0.0
C457 C 0.15631 0.64812 0.5822 0.0
C458 C 0.1457 0.66959 0.53059 0.0
C459 C 0.15756 0.64817 0.5134 0.0
C460 C 0.16952 0.62709 0.53113 0.0
C461 C 0.16897 0.62712 0.5652 0.0
C462 C 0.17686 0.63647 0.42482 0.0
C463 C 0.15357 0.64508 0.4085 0.0
C464 C 0.17833 0.63764 0.45884 0.0
C465 C 0.15648 0.64736 0.47719 0.0
C466 C 0.13321 0.65594 0.46071 0.0
C467 C 0.13182 0.6549 0.42678 0.0
H468 H 0.32575 0.11985 0.57894 0.0
H469 H 0.38205 0.18596 0.5781 0.0
H470 H 0.32465 0.12016 0.51964 0.0
H471 H 0.3816 0.1858 0.51859 0.0
H472 H 0.35513 0.19287 0.41158 0.0
H473 H 0.35425 0.19505 0.47109 0.0
H474 H 0.35374 0.10819 0.47549 0.0
H475 H 0.35385 0.10609 0.41631 0.0
C476 C 0.33792 0.13444 0.56605 0.0
C477 C 0.35407 0.1528 0.58313 0.0
C478 C 0.33743 0.13452 0.53204 0.0
C479 C 0.35324 0.15284 0.51431 0.0
C480 C 0.369 0.17159 0.53147 0.0
C481 C 0.36937 0.1716 0.56555 0.0
C482 C 0.35482 0.17429 0.42535 0.0
C483 C 0.35447 0.14932 0.40933 0.0
C484 C 0.35444 0.17552 0.45942 0.0
C485 C 0.35377 0.1518 0.4781 0.0
C486 C 0.3537 0.12687 0.46191 0.0
C487 C 0.35397 0.12565 0.42796 0.0
H488 H 0.8111 0.33863 0.42072 0.0
H489 H 0.89325 0.36683 0.42121 0.0
H490 H 0.81132 0.33731 0.48018 0.0
H491 H 0.89332 0.36609 0.48058 0.0
H492 H 0.89329 0.33647 0.58536 0.0
H493 H 0.89257 0.335 0.52597 0.0
H494 H 0.81214 0.36799 0.52625 0.0
H495 H 0.81267 0.36887 0.58569 0.0
C496 C 0.82918 0.34459 0.43355 0.0
C497 C 0.85216 0.35283 0.41635 0.0
C498 C 0.82926 0.34398 0.4676 0.0
C499 C 0.85233 0.35161 0.48514 0.0
C500 C 0.87535 0.35972 0.46784 0.0
C501 C 0.87526 0.3603 0.43381 0.0
C502 C 0.87542 0.34329 0.57272 0.0
C503 C 0.85305 0.35283 0.59013 0.0
C504 C 0.87507 0.34261 0.53869 0.0
C505 C 0.85234 0.35148 0.52135 0.0
C506 C 0.82984 0.36071 0.53886 0.0
C507 C 0.83019 0.36136 0.5729 0.0
H508 H 0.63788 0.80943 0.58416 0.0
H509 H 0.65169 0.89521 0.58319 0.0
H510 H 0.63836 0.80891 0.52461 0.0
H511 H 0.6524 0.89464 0.52375 0.0
H512 H 0.62004 0.88722 0.41938 0.0
H513 H 0.62001 0.88705 0.47884 0.0
H514 H 0.67017 0.81608 0.47861 0.0
H515 H 0.67005 0.81615 0.41906 0.0
C516 C 0.64113 0.82813 0.57122 0.0
C517 C 0.64469 0.85237 0.58829 0.0
C518 C 0.64153 0.82781 0.53716 0.0
C519 C 0.64533 0.85175 0.51953 0.0
C520 C 0.64908 0.87593 0.53666 0.0
C521 C 0.64882 0.87623 0.57069 0.0
C522 C 0.63102 0.87157 0.43203 0.0
C523 C 0.64506 0.85171 0.41461 0.0
C524 C 0.63114 0.87156 0.46606 0.0
C525 C 0.64515 0.85159 0.48338 0.0
C526 C 0.65901 0.83159 0.46593 0.0
C527 C 0.65904 0.83171 0.43187 0.0
H528 H 0.18086 0.56746 0.23988 0.0
H529 H 0.12315 0.54674 0.31441 0.0
H530 H 0.18038 0.52099 0.22035 0.0
H531 H 0.12277 0.50033 0.295 0.0
H532 H 0.10332 0.4316 0.2241 0.0
H533 H 0.10635 0.47735 0.24502 0.0
H534 H 0.19293 0.47405 0.23754 0.0
H535 H 0.1899 0.42805 0.21639 0.0
C536 C 0.16824 0.55293 0.25222 0.0
C537 C 0.15195 0.56074 0.27857 0.0
C538 C 0.16806 0.52632 0.24115 0.0
C539 C 0.15143 0.50707 0.25604 0.0
C540 C 0.13554 0.51481 0.28277 0.0
C541 C 0.13586 0.54134 0.29399 0.0
C542 C 0.12302 0.44061 0.22688 0.0
C543 C 0.14638 0.42625 0.21862 0.0
C544 C 0.12475 0.46676 0.23907 0.0
C545 C 0.14988 0.47923 0.2431 0.0
C546 C 0.17328 0.46498 0.23453 0.0
C547 C 0.17156 0.43866 0.22254 0.0
H548 H 0.55103 0.16094 0.18152 0.0
H549 H 0.58148 0.14983 0.27917 0.0
H550 H 0.50528 0.16353 0.20288 0.0
H551 H 0.53569 0.15255 0.30055 0.0
H552 H 0.44833 0.12097 0.31547 0.0
H553 H 0.49501 0.12351 0.29749 0.0
H554 H 0.47556 0.1922 0.23754 0.0
H555 H 0.42872 0.18959 0.25546 0.0
C556 C 0.54796 0.15927 0.20757 0.0
C557 C 0.5698 0.15507 0.22867 0.0
C558 C 0.52178 0.16092 0.21982 0.0
C559 C 0.5169 0.15821 0.25339 0.0
C560 C 0.53882 0.15446 0.27454 0.0
C561 C 0.56503 0.15302 0.26231 0.0
C562 C 0.45407 0.13678 0.2987 0.0
C563 C 0.43488 0.15502 0.28677 0.0
C564 C 0.48084 0.13831 0.28853 0.0
C565 C 0.48893 0.158 0.26602 0.0
C566 C 0.46984 0.17664 0.25465 0.0
C567 C 0.44309 0.17524 0.26505 0.0
H568 H 0.84583 0.54966 0.17763 0.0
H569 H 0.83008 0.58293 0.27296 0.0
H570 H 0.84188 0.50442 0.19968 0.0
H571 H 0.82544 0.53751 0.29502 0.0
H572 H 0.85752 0.45398 0.3272 0.0
H573 H 0.85477 0.49995 0.30689 0.0
H574 H 0.81128 0.47186 0.2223 0.0
H575 H 0.81467 0.42575 0.2423 0.0
C576 C 0.84115 0.54729 0.20324 0.0
C577 C 0.83841 0.56983 0.22361 0.0
C578 C 0.83869 0.52133 0.21587 0.0
C579 C 0.83337 0.5173 0.24916 0.0
C580 C 0.8299 0.53991 0.26936 0.0
C581 C 0.83241 0.56592 0.25671 0.0
C582 C 0.84714 0.45767 0.30443 0.0
C583 C 0.83648 0.43626 0.28621 0.0
C584 C 0.84541 0.48405 0.29287 0.0
C585 C 0.83292 0.48961 0.26287 0.0
C586 C 0.82141 0.46823 0.24524 0.0
C587 C 0.82321 0.44184 0.25677 0.0
H588 H 0.55523 0.81366 0.31622 0.0
H589 H 0.57315 0.86773 0.2368 0.0
H590 H 0.50872 0.81005 0.29707 0.0
H591 H 0.52687 0.86466 0.21818 0.0
H592 H 0.44949 0.83646 0.17435 0.0
H593 H 0.49576 0.83379 0.19339 0.0
H594 H 0.4681 0.83769 0.29308 0.0
H595 H 0.42156 0.83969 0.27391 0.0
C596 C 0.54925 0.82468 0.29465 0.0
C597 C 0.56782 0.84091 0.27796 0.0
C598 C 0.52261 0.82276 0.2838 0.0
C599 C 0.51408 0.837 0.25603 0.0
C600 C 0.53282 0.85303 0.23929 0.0
C601 C 0.55935 0.85492 0.25009 0.0
C602 C 0.45325 0.83649 0.20035 0.0
C603 C 0.43193 0.83848 0.22264 0.0
C604 C 0.47979 0.83512 0.21126 0.0
C605 C 0.48568 0.83585 0.24475 0.0
C606 C 0.46426 0.83689 0.26713 0.0
C607 C 0.43762 0.83816 0.25617 0.0
H608 H 0.82582 0.55866 0.82129 0.0
H609 H 0.85852 0.58099 0.72766 0.0
H610 H 0.82176 0.51219 0.80302 0.0
H611 H 0.85528 0.53436 0.70963 0.0
H612 H 0.82784 0.45184 0.67736 0.0
H613 H 0.82511 0.49864 0.69503 0.0
H614 H 0.85086 0.47514 0.79152 0.0
H615 H 0.85276 0.42838 0.77406 0.0
C616 C 0.83211 0.55362 0.79676 0.0
C617 C 0.84258 0.57342 0.77593 0.0
C618 C 0.82993 0.52695 0.78635 0.0
C619 C 0.83835 0.51945 0.75492 0.0
C620 C 0.84827 0.53945 0.73385 0.0
C621 C 0.8503 0.56616 0.74422 0.0
C622 C 0.8326 0.45668 0.70243 0.0
C623 C 0.84055 0.43647 0.72432 0.0
C624 C 0.83123 0.48352 0.71251 0.0
C625 C 0.83791 0.49073 0.74466 0.0
C626 C 0.84522 0.47033 0.76671 0.0
C627 C 0.84645 0.4435 0.75667 0.0
H628 H 0.54496 0.83731 0.67648 0.0
H629 H 0.57443 0.83847 0.77546 0.0
H630 H 0.49884 0.83634 0.69659 0.0
H631 H 0.52832 0.83683 0.79565 0.0
H632 H 0.44494 0.87286 0.81636 0.0
H633 H 0.49109 0.86797 0.79754 0.0
H634 H 0.46502 0.81034 0.72529 0.0
H635 H 0.41859 0.81575 0.74375 0.0
C636 C 0.54158 0.83689 0.70254 0.0
C637 C 0.56328 0.83817 0.7244 0.0
C638 C 0.51514 0.83621 0.71409 0.0
C639 C 0.50987 0.83674 0.74774 0.0
C640 C 0.53168 0.83689 0.76958 0.0
C641 C 0.5581 0.83764 0.75803 0.0
C642 C 0.44907 0.85906 0.79654 0.0
C643 C 0.42815 0.84476 0.78144 0.0
C644 C 0.47556 0.85609 0.78591 0.0
C645 C 0.48179 0.8387 0.75996 0.0
C646 C 0.46087 0.82411 0.74512 0.0
C647 C 0.43431 0.82712 0.75576 0.0
H648 H 0.18777 0.44573 0.80309 0.0
H649 H 0.14389 0.41796 0.71872 0.0
H650 H 0.18849 0.49114 0.78064 0.0
H651 H 0.14503 0.46328 0.69596 0.0
H652 H 0.11769 0.55198 0.69357 0.0
H653 H 0.12261 0.50526 0.71013 0.0
H654 H 0.20528 0.52029 0.73695 0.0
H655 H 0.20018 0.56738 0.72076 0.0
C656 C 0.1787 0.44924 0.77947 0.0
C657 C 0.16557 0.42836 0.76278 0.0
C658 C 0.17923 0.47524 0.76653 0.0
C659 C 0.1666 0.48087 0.73665 0.0
C660 C 0.15454 0.45967 0.71929 0.0
C661 C 0.15404 0.43369 0.73223 0.0
C662 C 0.13697 0.5453 0.7028 0.0
C663 C 0.15851 0.56336 0.706 0.0
C664 C 0.13987 0.51845 0.71207 0.0
C665 C 0.16437 0.50902 0.72479 0.0
C666 C 0.18609 0.52701 0.7275 0.0
C667 C 0.1832 0.55391 0.71812 0.0
H668 H 0.4543 0.17225 0.6727 0.0
H669 H 0.42879 0.14618 0.76817 0.0
H670 H 0.5006 0.17543 0.69212 0.0
H671 H 0.47507 0.14856 0.78737 0.0
H672 H 0.55666 0.17635 0.82097 0.0
H673 H 0.5107 0.17896 0.80058 0.0
H674 H 0.53686 0.14636 0.70821 0.0
H675 H 0.58298 0.14456 0.72837 0.0
C676 C 0.4586 0.16723 0.69784 0.0
C677 C 0.43795 0.15895 0.71892 0.0
C678 C 0.48515 0.16889 0.70893 0.0
C679 C 0.49162 0.1622 0.7413 0.0
C680 C 0.4708 0.15427 0.76244 0.0
C681 C 0.44427 0.15273 0.75139 0.0
C682 C 0.55261 0.16999 0.7962 0.0
C683 C 0.57339 0.16017 0.77629 0.0
C684 C 0.52624 0.1713 0.78458 0.0
C685 C 0.52 0.16266 0.75283 0.0
C686 C 0.54096 0.15348 0.73265 0.0
C687 C 0.56739 0.15231 0.74424 0.0
H688 H 0.68917 0.07089 0.75665 0.0
H689 H 0.61922 0.05501 0.81601 0.0
H690 H 0.68852 0.02429 0.73731 0.0
H691 H 0.61852 0.00861 0.79654 0.0
H692 H 0.60612 0.94215 0.71923 0.0
H693 H 0.60924 0.98761 0.74119 0.0
H694 H 0.69397 0.97597 0.75937 0.0
H695 H 0.69085 0.93016 0.7375 0.0
C696 C 0.67379 0.05741 0.7657 0.0
C697 C 0.65419 0.06658 0.78773 0.0
C698 C 0.6735 0.03075 0.75475 0.0
C699 C 0.65339 0.01293 0.76533 0.0
C700 C 0.63409 0.02201 0.78777 0.0
C701 C 0.63457 0.04852 0.799 0.0
C702 C 0.62543 0.94925 0.72792 0.0
C703 C 0.64825 0.93262 0.72669 0.0
C704 C 0.62716 0.97522 0.74065 0.0
C705 C 0.65182 0.98524 0.75208 0.0
C706 C 0.67475 0.96874 0.75058 0.0
C707 C 0.67294 0.94256 0.73821 0.0
H708 H 0.95179 0.63487 0.81978 0.0
H709 H 0.92624 0.68437 0.73903 0.0
H710 H 0.99802 0.63663 0.79997 0.0
H711 H 0.97254 0.6866 0.71955 0.0
H712 H 0.05015 0.65335 0.67319 0.0
H713 H 0.0046 0.65603 0.69468 0.0
H714 H 0.0364 0.6665 0.79185 0.0
H715 H 0.08212 0.66329 0.7703 0.0
C716 C 0.95611 0.64634 0.79798 0.0
C717 C 0.93539 0.65935 0.78085 0.0
C718 C 0.98262 0.64751 0.78674 0.0
C719 C 0.98897 0.6617 0.75812 0.0
C720 C 0.96827 0.67518 0.74141 0.0
C721 C 0.94177 0.67401 0.75265 0.0
C722 C 0.04743 0.65642 0.69911 0.0
C723 C 0.0697 0.65803 0.72008 0.0
C724 C 0.02131 0.65812 0.71142 0.0
C725 C 0.01684 0.66145 0.745 0.0
C726 C 0.03916 0.6636 0.76591 0.0
C727 C 0.06533 0.66193 0.75356 0.0
H728 H 0.31836 0.0788 0.75272 0.0
H729 H 0.37613 0.05176 0.68126 0.0
H730 H 0.31324 0.03265 0.77219 0.0
H731 H 0.37143 0.00581 0.70105 0.0
H732 H 0.34003 0.9226 0.72478 0.0
H733 H 0.33994 0.96846 0.70354 0.0
H734 H 0.3397 0.99947 0.8019 0.0
H735 H 0.33926 0.95365 0.82307 0.0
C736 C 0.32992 0.06299 0.74116 0.0
C737 C 0.34768 0.06889 0.71552 0.0
C738 C 0.32709 0.03659 0.7524 0.0
C739 C 0.34194 0.01554 0.7382 0.0
C740 C 0.35941 0.02146 0.71224 0.0
C741 C 0.36225 0.04784 0.70104 0.0
C742 C 0.3397 0.93923 0.74183 0.0
C743 C 0.33974 0.93455 0.77558 0.0
C744 C 0.33982 0.9655 0.72968 0.0
C745 C 0.33997 0.98764 0.75102 0.0
C746 C 0.33929 0.98289 0.78478 0.0
C747 C 0.33919 0.95663 0.79693 0.0
H748 H 0.05758 0.38454 0.81198 0.0
H749 H 0.07328 0.31216 0.75688 0.0
H750 H 0.01098 0.38419 0.79319 0.0
H751 H 0.02644 0.31171 0.73835 0.0
H752 H 0.93191 0.30977 0.74093 0.0
H753 H 0.97794 0.3075 0.76232 0.0
H754 H 0.99012 0.39075 0.7364 0.0
H755 H 0.94448 0.39298 0.71478 0.0
C756 C 0.051 0.36841 0.79613 0.0
C757 C 0.06907 0.34844 0.78577 0.0
C758 C 0.02438 0.36829 0.78528 0.0
C759 C 0.0152 0.348 0.76422 0.0
C760 C 0.03301 0.3275 0.75471 0.0
C761 C 0.05978 0.32783 0.7652 0.0
C762 C 0.94448 0.32753 0.7398 0.0
C763 C 0.93466 0.35155 0.72621 0.0
C764 C 0.97078 0.3262 0.75191 0.0
C765 C 0.98746 0.349 0.75114 0.0
C766 C 0.97757 0.37297 0.73761 0.0
C767 C 0.95151 0.37419 0.72508 0.0
H768 H 0.31595 0.05326 0.30495 0.0
H769 H 0.35822 0.07934 0.21864 0.0
H770 H 0.31505 0.00736 0.28395 0.0
H771 H 0.3569 0.03355 0.19734 0.0
H772 H 0.38416 0.94491 0.19611 0.0
H773 H 0.37962 0.99188 0.21192 0.0
H774 H 0.29755 0.9773 0.24164 0.0
H775 H 0.30228 0.93 0.22624 0.0
C776 C 0.32462 0.04927 0.28123 0.0
C777 C 0.33734 0.06984 0.26356 0.0
C778 C 0.32401 0.02298 0.26912 0.0
C779 C 0.33613 0.01675 0.2391 0.0
C780 C 0.34779 0.03761 0.2208 0.0
C781 C 0.34839 0.06388 0.2329 0.0
C782 C 0.36509 0.95175 0.20585 0.0
C783 C 0.34361 0.93376 0.21005 0.0
C784 C 0.36242 0.97873 0.21469 0.0
C785 C 0.33819 0.98837 0.22796 0.0
C786 C 0.31655 0.97043 0.23175 0.0
C787 C 0.31922 0.9434 0.22282 0.0
H788 H 0.9236 0.36855 0.23634 0.0
H789 H 0.9368 0.30769 0.3097 0.0
H790 H 0.96889 0.3615 0.21569 0.0
H791 H 0.98215 0.30014 0.28852 0.0
H792 H 0.0714 0.32442 0.26798 0.0
H793 H 0.02488 0.32393 0.28696 0.0
H794 H 0.99721 0.32987 0.1874 0.0
H795 H 0.04366 0.33107 0.16859 0.0
C796 C 0.9361 0.35341 0.24781 0.0
C797 C 0.9267 0.33874 0.2747 0.0
C798 C 0.96202 0.34922 0.23582 0.0
C799 C 0.97916 0.33019 0.25039 0.0
C800 C 0.96955 0.31513 0.27695 0.0
C801 C 0.94355 0.31935 0.28898 0.0
C802 C 0.05535 0.3252 0.25016 0.0
C803 C 0.06114 0.32806 0.21685 0.0
C804 C 0.02868 0.32482 0.26101 0.0
C805 C 0.00731 0.32719 0.23872 0.0
C806 C 0.0132 0.32858 0.20526 0.0
C807 C 0.03981 0.32909 0.19446 0.0
H808 H 0.66186 0.94911 0.32852 0.0
H809 H 0.66888 0.9193 0.23002 0.0
H810 H 0.66353 0.99521 0.30826 0.0
H811 H 0.671 0.96539 0.20978 0.0
H812 H 0.63342 0.04794 0.18575 0.0
H813 H 0.63833 0.00189 0.2051 0.0
H814 H 0.69148 0.02933 0.28148 0.0
H815 H 0.6862 0.0756 0.26234 0.0
C816 C 0.66422 0.95242 0.30259 0.0
C817 C 0.66503 0.93062 0.28083 0.0
C818 C 0.66529 0.97883 0.29099 0.0
C819 C 0.66715 0.98396 0.25737 0.0
C820 C 0.66911 0.9621 0.23577 0.0
C821 C 0.66809 0.9357 0.24738 0.0
C822 C 0.64625 0.04413 0.20658 0.0
C823 C 0.65934 0.06537 0.22261 0.0
C824 C 0.64924 0.01771 0.21753 0.0
C825 C 0.66536 0.01193 0.24479 0.0
C826 C 0.67873 0.03317 0.26059 0.0
C827 C 0.67579 0.05963 0.24956 0.0
H828 H 0.05409 0.67068 0.31099 0.0
H829 H 0.08264 0.64315 0.21734 0.0
H830 H 0.00842 0.67319 0.28955 0.0
H831 H 0.03688 0.64589 0.19577 0.0
H832 H 0.9481 0.61711 0.1885 0.0
H833 H 0.99503 0.62009 0.20528 0.0
H834 H 0.97928 0.69715 0.25003 0.0
H835 H 0.93213 0.69407 0.23338 0.0
C836 C 0.05065 0.6655 0.28569 0.0
C837 C 0.07191 0.65657 0.26588 0.0
C838 C 0.02451 0.66708 0.27336 0.0
C839 C 0.01903 0.65963 0.24101 0.0
C840 C 0.04044 0.65147 0.22091 0.0
C841 C 0.06665 0.65004 0.2332 0.0
C842 C 0.95469 0.63478 0.20172 0.0
C843 C 0.93643 0.65531 0.20976 0.0
C844 C 0.98162 0.63657 0.21113 0.0
C845 C 0.99087 0.65886 0.22897 0.0
C846 C 0.97269 0.67963 0.23654 0.0
C847 C 0.94575 0.67792 0.22691 0.0
loop_
_geom_bond_atom_site_label_1
_geom_bond_atom_site_label_2
_geom_bond_distance
_geom_bond_site_symmetry_2
_ccdc_geom_bond_type
In0 O1 2.294 . S
In0 O2 2.326 . S
In0 O6 2.266 . S
In0 O7 2.326 . S
In0 O8 2.266 . S
In0 O9 2.326 . S
In0 O11 2.294 . S
In0 O12 2.326 . S
O1 In0 2.294 . S
O1 C10 1.240 . S
O2 In0 2.326 . S
O2 C10 1.252 . S
C3 O6 1.252 . S
C3 O7 1.260 . S
C4 O11 1.240 . S
C4 O12 1.252 . S
C5 O8 1.252 . S
C5 O9 1.260 . S
O6 In0 2.266 . S
O6 C3 1.252 . S
O7 In0 2.326 . S
O7 C3 1.260 . S
O8 In0 2.266 . S
O8 C5 1.252 . S
O9 In0 2.326 . S
O9 C5 1.260 . S
C10 O1 1.240 . S
C10 O2 1.252 . S
O11 In0 2.294 . S
O11 C4 1.240 . S
O12 In0 2.326 . S
O12 C4 1.252 . S
In13 O14 2.294 . S
In13 O15 2.326 . S
In13 O19 2.266 . S
In13 O20 2.326 . S
In13 O21 2.266 . S
In13 O22 2.326 . S
In13 O24 2.294 . S
In13 O25 2.326 . S
O14 In13 2.294 . S
O14 C23 1.240 . S
O15 In13 2.326 . S
O15 C23 1.252 . S
C16 O19 1.252 . S
C16 O20 1.260 . S
C17 O24 1.240 . S
C17 O25 1.252 . S
C18 O21 1.252 . S
C18 O22 1.260 . S
O19 In13 2.266 . S
O19 C16 1.252 . S
O20 In13 2.326 . S
O20 C16 1.260 . S
O21 In13 2.266 . S
O21 C18 1.252 . S
O22 In13 2.326 . S
O22 C18 1.260 . S
C23 O14 1.240 . S
C23 O15 1.252 . S
O24 In13 2.294 . S
O24 C17 1.240 . S
O25 In13 2.326 . S
O25 C17 1.252 . S
In26 O27 2.294 . S
In26 O28 2.326 . S
In26 O32 2.266 . S
In26 O33 2.326 . S
In26 O34 2.266 . S
In26 O35 2.326 . S
In26 O37 2.294 . S
In26 O38 2.326 . S
O27 In26 2.294 . S
O27 C36 1.240 . S
O28 In26 2.326 . S
O28 C36 1.252 . S
C29 O32 1.252 . S
C29 O33 1.260 . S
C30 O37 1.240 . S
C30 O38 1.252 . S
C31 O34 1.252 . S
C31 O35 1.260 . S
O32 In26 2.266 . S
O32 C29 1.252 . S
O33 In26 2.326 . S
O33 C29 1.260 . S
O34 In26 2.266 . S
O34 C31 1.252 . S
O35 In26 2.326 . S
O35 C31 1.260 . S
C36 O27 1.240 . S
C36 O28 1.252 . S
O37 In26 2.294 . S
O37 C30 1.240 . S
O38 In26 2.326 . S
O38 C30 1.252 . S
In39 O40 2.294 . S
In39 O41 2.326 . S
In39 O45 2.266 . S
In39 O46 2.326 . S
In39 O47 2.266 . S
In39 O48 2.326 . S
In39 O50 2.294 . S
In39 O51 2.326 . S
O40 In39 2.294 . S
O40 C49 1.240 . S
O41 In39 2.326 . S
O41 C49 1.252 . S
C42 O45 1.252 . S
C42 O46 1.260 . S
C43 O50 1.240 . S
C43 O51 1.252 . S
C44 O47 1.252 . S
C44 O48 1.260 . S
O45 In39 2.266 . S
O45 C42 1.252 . S
O46 In39 2.326 . S
O46 C42 1.260 . S
O47 In39 2.266 . S
O47 C44 1.252 . S
O48 In39 2.326 . S
O48 C44 1.260 . S
C49 O40 1.240 . S
C49 O41 1.252 . S
O50 In39 2.294 . S
O50 C43 1.240 . S
O51 In39 2.326 . S
O51 C43 1.252 . S
In52 O53 2.294 . S
In52 O54 2.326 . S
In52 O58 2.266 . S
In52 O59 2.326 . S
In52 O60 2.266 . S
In52 O61 2.326 . S
In52 O63 2.294 . S
In52 O64 2.326 . S
O53 In52 2.294 . S
O53 C62 1.240 . S
O54 In52 2.326 . S
O54 C62 1.252 . S
C55 O58 1.252 . S
C55 O59 1.260 . S
C56 O63 1.240 . S
C56 O64 1.252 . S
C57 O60 1.252 . S
C57 O61 1.260 . S
O58 In52 2.266 . S
O58 C55 1.252 . S
O59 In52 2.326 . S
O59 C55 1.260 . S
O60 In52 2.266 . S
O60 C57 1.252 . S
O61 In52 2.326 . S
O61 C57 1.260 . S
C62 O53 1.240 . S
C62 O54 1.252 . S
O63 In52 2.294 . S
O63 C56 1.240 . S
O64 In52 2.326 . S
O64 C56 1.252 . S
In65 O66 2.294 . S
In65 O67 2.326 . S
In65 O71 2.266 . S
In65 O72 2.326 . S
In65 O73 2.266 . S
In65 O74 2.326 . S
In65 O76 2.294 . S
In65 O77 2.326 . S
O66 In65 2.294 . S
O66 C75 1.240 . S
O67 In65 2.326 . S
O67 C75 1.252 . S
C68 O71 1.252 . S
C68 O72 1.260 . S
C69 O76 1.240 . S
C69 O77 1.252 . S
C70 O73 1.252 . S
C70 O74 1.260 . S
O71 In65 2.266 . S
O71 C68 1.252 . S
O72 In65 2.326 . S
O72 C68 1.260 . S
O73 In65 2.266 . S
O73 C70 1.252 . S
O74 In65 2.326 . S
O74 C70 1.260 . S
C75 O66 1.240 . S
C75 O67 1.252 . S
O76 In65 2.294 . S
O76 C69 1.240 . S
O77 In65 2.326 . S
O77 C69 1.252 . S
In78 O79 2.294 . S
In78 O80 2.326 . S
In78 O84 2.266 . S
In78 O85 2.326 . S
In78 O86 2.266 . S
In78 O87 2.326 . S
In78 O89 2.294 . S
In78 O90 2.326 . S
O79 In78 2.294 . S
O79 C88 1.240 . S
O80 In78 2.326 . S
O80 C88 1.252 . S
C81 O84 1.252 . S
C81 O85 1.260 . S
C82 O89 1.240 . S
C82 O90 1.252 . S
C83 O86 1.252 . S
C83 O87 1.260 . S
O84 In78 2.266 . S
O84 C81 1.252 . S
O85 In78 2.326 . S
O85 C81 1.260 . S
O86 In78 2.266 . S
O86 C83 1.252 . S
O87 In78 2.326 . S
O87 C83 1.260 . S
C88 O79 1.240 . S
C88 O80 1.252 . S
O89 In78 2.294 . S
O89 C82 1.240 . S
O90 In78 2.326 . S
O90 C82 1.252 . S
In91 O92 2.294 . S
In91 O93 2.326 . S
In91 O97 2.266 . S
In91 O98 2.326 . S
In91 O99 2.266 . S
In91 O100 2.326 . S
In91 O102 2.294 . S
In91 O103 2.326 . S
O92 In91 2.294 . S
O92 C101 1.240 . S
O93 In91 2.326 . S
O93 C101 1.252 . S
C94 O97 1.252 . S
C94 O98 1.260 . S
C95 O102 1.240 . S
C95 O103 1.252 . S
C96 O99 1.252 . S
C96 O100 1.260 . S
O97 In91 2.266 . S
O97 C94 1.252 . S
O98 In91 2.326 . S
O98 C94 1.260 . S
O99 In91 2.266 . S
O99 C96 1.252 . S
O100 In91 2.326 . S
O100 C96 1.260 . S
C101 O92 1.240 . S
C101 O93 1.252 . S
O102 In91 2.294 . S
O102 C95 1.240 . S
O103 In91 2.326 . S
O103 C95 1.252 . S
In104 O105 2.294 . S
In104 O106 2.326 . S
In104 O110 2.266 . S
In104 O111 2.326 . S
In104 O112 2.266 . S
In104 O113 2.326 . S
In104 O115 2.294 . S
In104 O116 2.326 . S
O105 In104 2.294 . S
O105 C114 1.240 . S
O106 In104 2.326 . S
O106 C114 1.252 . S
C107 O110 1.252 . S
C107 O111 1.260 . S
C108 O115 1.240 . S
C108 O116 1.252 . S
C109 O112 1.252 . S
C109 O113 1.260 . S
O110 In104 2.266 . S
O110 C107 1.252 . S
O111 In104 2.326 . S
O111 C107 1.260 . S
O112 In104 2.266 . S
O112 C109 1.252 . S
O113 In104 2.326 . S
O113 C109 1.260 . S
C114 O105 1.240 . S
C114 O106 1.252 . S
O115 In104 2.294 . S
O115 C108 1.240 . S
O116 In104 2.326 . S
O116 C108 1.252 . S
In117 O118 2.294 . S
In117 O119 2.326 . S
In117 O123 2.266 . S
In117 O124 2.326 . S
In117 O125 2.266 . S
In117 O126 2.326 . S
In117 O128 2.294 . S
In117 O129 2.326 . S
O118 In117 2.294 . S
O118 C127 1.240 . S
O119 In117 2.326 . S
O119 C127 1.252 . S
C120 O123 1.252 . S
C120 O124 1.260 . S
C121 O128 1.240 . S
C121 O129 1.252 . S
C122 O125 1.252 . S
C122 O126 1.260 . S
O123 In117 2.266 . S
O123 C120 1.252 . S
O124 In117 2.326 . S
O124 C120 1.260 . S
O125 In117 2.266 . S
O125 C122 1.252 . S
O126 In117 2.326 . S
O126 C122 1.260 . S
C127 O118 1.240 . S
C127 O119 1.252 . S
O128 In117 2.294 . S
O128 C121 1.240 . S
O129 In117 2.326 . S
O129 C121 1.252 . S
In130 O131 2.294 . S
In130 O132 2.326 . S
In130 O136 2.266 . S
In130 O137 2.326 . S
In130 O138 2.266 . S
In130 O139 2.326 . S
In130 O141 2.294 . S
In130 O142 2.326 . S
O131 In130 2.294 . S
O131 C140 1.240 . S
O132 In130 2.326 . S
O132 C140 1.252 . S
C133 O136 1.252 . S
C133 O137 1.260 . S
C134 O141 1.240 . S
C134 O142 1.252 . S
C135 O138 1.252 . S
C135 O139 1.260 . S
O136 In130 2.266 . S
O136 C133 1.252 . S
O137 In130 2.326 . S
O137 C133 1.260 . S
O138 In130 2.266 . S
O138 C135 1.252 . S
O139 In130 2.326 . S
O139 C135 1.260 . S
C140 O131 1.240 . S
C140 O132 1.252 . S
O141 In130 2.294 . S
O141 C134 1.240 . S
O142 In130 2.326 . S
O142 C134 1.252 . S
In143 O144 2.294 . S
In143 O145 2.326 . S
In143 O149 2.266 . S
In143 O150 2.326 . S
In143 O151 2.266 . S
In143 O152 2.326 . S
In143 O154 2.294 . S
In143 O155 2.326 . S
O144 In143 2.294 . S
O144 C153 1.240 . S
O145 In143 2.326 . S
O145 C153 1.252 . S
C146 O149 1.252 . S
C146 O150 1.260 . S
C147 O154 1.240 . S
C147 O155 1.252 . S
C148 O151 1.252 . S
C148 O152 1.260 . S
O149 In143 2.266 . S
O149 C146 1.252 . S
O150 In143 2.326 . S
O150 C146 1.260 . S
O151 In143 2.266 . S
O151 C148 1.252 . S
O152 In143 2.326 . S
O152 C148 1.260 . S
C153 O144 1.240 . S
C153 O145 1.252 . S
O154 In143 2.294 . S
O154 C147 1.240 . S
O155 In143 2.326 . S
O155 C147 1.252 . S
In156 O157 2.294 . S
In156 O158 2.326 . S
In156 O162 2.266 . S
In156 O163 2.326 . S
In156 O164 2.266 . S
In156 O165 2.326 . S
In156 O167 2.294 . S
In156 O168 2.326 . S
O157 In156 2.294 . S
O157 C166 1.240 . S
O158 In156 2.326 . S
O158 C166 1.252 . S
C159 O162 1.252 . S
C159 O163 1.260 . S
C160 O167 1.240 . S
C160 O168 1.252 . S
C161 O164 1.252 . S
C161 O165 1.260 . S
O162 In156 2.266 . S
O162 C159 1.252 . S
O163 In156 2.326 . S
O163 C159 1.260 . S
O164 In156 2.266 . S
O164 C161 1.252 . S
O165 In156 2.326 . S
O165 C161 1.260 . S
C166 O157 1.240 . S
C166 O158 1.252 . S
O167 In156 2.294 . S
O167 C160 1.240 . S
O168 In156 2.326 . S
O168 C160 1.252 . S
In169 O170 2.294 . S
In169 O171 2.326 . S
In169 O175 2.266 . S
In169 O176 2.326 . S
In169 O177 2.266 . S
In169 O178 2.326 . S
In169 O180 2.294 . S
In169 O181 2.326 . S
O170 In169 2.294 . S
O170 C179 1.240 . S
O171 In169 2.326 . S
O171 C179 1.252 . S
C172 O175 1.252 . S
C172 O176 1.260 . S
C173 O180 1.240 . S
C173 O181 1.252 . S
C174 O177 1.252 . S
C174 O178 1.260 . S
O175 In169 2.266 . S
O175 C172 1.252 . S
O176 In169 2.326 . S
O176 C172 1.260 . S
O177 In169 2.266 . S
O177 C174 1.252 . S
O178 In169 2.326 . S
O178 C174 1.260 . S
C179 O170 1.240 . S
C179 O171 1.252 . S
O180 In169 2.294 . S
O180 C173 1.240 . S
O181 In169 2.326 . S
O181 C173 1.252 . S
In182 O183 2.294 . S
In182 O184 2.326 . S
In182 O188 2.266 . S
In182 O189 2.326 . S
In182 O190 2.266 . S
In182 O191 2.326 . S
In182 O193 2.294 . S
In182 O194 2.326 . S
O183 In182 2.294 . S
O183 C192 1.240 . S
O184 In182 2.326 . S
O184 C192 1.252 . S
C185 O188 1.252 . S
C185 O189 1.260 . S
C186 O193 1.240 . S
C186 O194 1.252 . S
C187 O190 1.252 . S
C187 O191 1.260 . S
O188 In182 2.266 . S
O188 C185 1.252 . S
O189 In182 2.326 . S
O189 C185 1.260 . S
O190 In182 2.266 . S
O190 C187 1.252 . S
O191 In182 2.326 . S
O191 C187 1.260 . S
C192 O183 1.240 . S
C192 O184 1.252 . S
O193 In182 2.294 . S
O193 C186 1.240 . S
O194 In182 2.326 . S
O194 C186 1.252 . S
In195 O196 2.294 . S
In195 O197 2.326 . S
In195 O201 2.266 . S
In195 O202 2.326 . S
In195 O203 2.266 . S
In195 O204 2.326 . S
In195 O206 2.294 . S
In195 O207 2.326 . S
O196 In195 2.294 . S
O196 C205 1.240 . S
O197 In195 2.326 . S
O197 C205 1.252 . S
C198 O201 1.252 . S
C198 O202 1.260 . S
C199 O206 1.240 . S
C199 O207 1.252 . S
C200 O203 1.252 . S
C200 O204 1.260 . S
O201 In195 2.266 . S
O201 C198 1.252 . S
O202 In195 2.326 . S
O202 C198 1.260 . S
O203 In195 2.266 . S
O203 C200 1.252 . S
O204 In195 2.326 . S
O204 C200 1.260 . S
C205 O196 1.240 . S
C205 O197 1.252 . S
O206 In195 2.294 . S
O206 C199 1.240 . S
O207 In195 2.326 . S
O207 C199 1.252 . S
H208 C216 0.950 . S
H209 C221 0.950 . S
H210 C218 0.950 . S
H211 C220 0.950 . S
H212 C222 0.950 . S
H213 C224 0.950 . S
H214 C226 0.950 . S
H215 C227 0.950 . S
C216 H208 0.950 . S
C216 C217 1.386 . S
C216 C218 1.391 . S
C217 C216 1.386 . S
C217 C221 1.393 . S
C218 H210 0.950 . S
C218 C216 1.391 . S
C218 C219 1.400 . S
C219 C218 1.400 . S
C219 C220 1.398 . S
C219 C225 1.491 . S
C220 H211 0.950 . S
C220 C219 1.398 . S
C220 C221 1.391 . S
C221 H209 0.950 . S
C221 C217 1.393 . S
C221 C220 1.391 . S
C222 H212 0.950 . S
C222 C223 1.386 . S
C222 C224 1.391 . S
C223 C222 1.386 . S
C223 C227 1.393 . S
C224 H213 0.950 . S
C224 C222 1.391 . S
C224 C225 1.400 . S
C225 C219 1.491 . S
C225 C224 1.400 . S
C225 C226 1.398 . S
C226 H214 0.950 . S
C226 C225 1.398 . S
C226 C227 1.391 . S
C227 H215 0.950 . S
C227 C223 1.393 . S
C227 C226 1.391 . S
H228 C236 0.950 . S
H229 C241 0.950 . S
H230 C238 0.950 . S
H231 C240 0.950 . S
H232 C242 0.950 . S
H233 C244 0.950 . S
H234 C246 0.950 . S
H235 C247 0.950 . S
C236 H228 0.950 . S
C236 C237 1.386 . S
C236 C238 1.391 . S
C237 C236 1.386 . S
C237 C241 1.393 . S
C238 H230 0.950 . S
C238 C236 1.391 . S
C238 C239 1.400 . S
C239 C238 1.400 . S
C239 C240 1.398 . S
C239 C245 1.491 . S
C240 H231 0.950 . S
C240 C239 1.398 . S
C240 C241 1.391 . S
C241 H229 0.950 . S
C241 C237 1.393 . S
C241 C240 1.391 . S
C242 H232 0.950 . S
C242 C243 1.386 . S
C242 C244 1.391 . S
C243 C242 1.386 . S
C243 C247 1.393 . S
C244 H233 0.950 . S
C244 C242 1.391 . S
C244 C245 1.400 . S
C245 C239 1.491 . S
C245 C244 1.400 . S
C245 C246 1.398 . S
C246 H234 0.950 . S
C246 C245 1.398 . S
C246 C247 1.391 . S
C247 H235 0.950 . S
C247 C243 1.393 . S
C247 C246 1.391 . S
H248 C256 0.950 . S
H249 C261 0.950 . S
H250 C258 0.950 . S
H251 C260 0.950 . S
H252 C262 0.950 . S
H253 C264 0.950 . S
H254 C266 0.950 . S
H255 C267 0.950 . S
C256 H248 0.950 . S
C256 C257 1.386 . S
C256 C258 1.391 . S
C257 C256 1.386 . S
C257 C261 1.393 . S
C258 H250 0.950 . S
C258 C256 1.391 . S
C258 C259 1.400 . S
C259 C258 1.400 . S
C259 C260 1.398 . S
C259 C265 1.491 . S
C260 H251 0.950 . S
C260 C259 1.398 . S
C260 C261 1.391 . S
C261 H249 0.950 . S
C261 C257 1.393 . S
C261 C260 1.391 . S
C262 H252 0.950 . S
C262 C263 1.386 . S
C262 C264 1.391 . S
C263 C262 1.386 . S
C263 C267 1.393 . S
C264 H253 0.950 . S
C264 C262 1.391 . S
C264 C265 1.400 . S
C265 C259 1.491 . S
C265 C264 1.400 . S
C265 C266 1.398 . S
C266 H254 0.950 . S
C266 C265 1.398 . S
C266 C267 1.391 . S
C267 H255 0.950 . S
C267 C263 1.393 . S
C267 C266 1.391 . S
H268 C276 0.950 . S
H269 C281 0.950 . S
H270 C278 0.950 . S
H271 C280 0.950 . S
H272 C282 0.950 . S
H273 C284 0.950 . S
H274 C286 0.950 . S
H275 C287 0.950 . S
C276 H268 0.950 . S
C276 C277 1.386 . S
C276 C278 1.391 . S
C277 C276 1.386 . S
C277 C281 1.393 . S
C278 H270 0.950 . S
C278 C276 1.391 . S
C278 C279 1.400 . S
C279 C278 1.400 . S
C279 C280 1.398 . S
C279 C285 1.491 . S
C280 H271 0.950 . S
C280 C279 1.398 . S
C280 C281 1.391 . S
C281 H269 0.950 . S
C281 C277 1.393 . S
C281 C280 1.391 . S
C282 H272 0.950 . S
C282 C283 1.386 . S
C282 C284 1.391 . S
C283 C282 1.386 . S
C283 C287 1.393 . S
C284 H273 0.950 . S
C284 C282 1.391 . S
C284 C285 1.400 . S
C285 C279 1.491 . S
C285 C284 1.400 . S
C285 C286 1.398 . S
C286 H274 0.950 . S
C286 C285 1.398 . S
C286 C287 1.391 . S
C287 H275 0.950 . S
C287 C283 1.393 . S
C287 C286 1.391 . S
H288 C296 0.950 . S
H289 C301 0.950 . S
H290 C298 0.950 . S
H291 C300 0.950 . S
H292 C302 0.950 . S
H293 C304 0.950 . S
H294 C306 0.950 . S
H295 C307 0.950 . S
C296 H288 0.950 . S
C296 C297 1.386 . S
C296 C298 1.391 . S
C297 C296 1.386 . S
C297 C301 1.393 . S
C298 H290 0.950 . S
C298 C296 1.391 . S
C298 C299 1.400 . S
C299 C298 1.400 . S
C299 C300 1.398 . S
C299 C305 1.491 . S
C300 H291 0.950 . S
C300 C299 1.398 . S
C300 C301 1.391 . S
C301 H289 0.950 . S
C301 C297 1.393 . S
C301 C300 1.391 . S
C302 H292 0.950 . S
C302 C303 1.386 . S
C302 C304 1.391 . S
C303 C302 1.386 . S
C303 C307 1.393 . S
C304 H293 0.950 . S
C304 C302 1.391 . S
C304 C305 1.400 . S
C305 C299 1.491 . S
C305 C304 1.400 . S
C305 C306 1.398 . S
C306 H294 0.950 . S
C306 C305 1.398 . S
C306 C307 1.391 . S
C307 H295 0.950 . S
C307 C303 1.393 . S
C307 C306 1.391 . S
H308 C316 0.950 . S
H309 C321 0.950 . S
H310 C318 0.950 . S
H311 C320 0.950 . S
H312 C322 0.950 . S
H313 C324 0.950 . S
H314 C326 0.950 . S
H315 C327 0.950 . S
C316 H308 0.950 . S
C316 C317 1.386 . S
C316 C318 1.391 . S
C317 C316 1.386 . S
C317 C321 1.393 . S
C318 H310 0.950 . S
C318 C316 1.391 . S
C318 C319 1.400 . S
C319 C318 1.400 . S
C319 C320 1.398 . S
C319 C325 1.491 . S
C320 H311 0.950 . S
C320 C319 1.398 . S
C320 C321 1.391 . S
C321 H309 0.950 . S
C321 C317 1.393 . S
C321 C320 1.391 . S
C322 H312 0.950 . S
C322 C323 1.386 . S
C322 C324 1.391 . S
C323 C322 1.386 . S
C323 C327 1.393 . S
C324 H313 0.950 . S
C324 C322 1.391 . S
C324 C325 1.400 . S
C325 C319 1.491 . S
C325 C324 1.400 . S
C325 C326 1.398 . S
C326 H314 0.950 . S
C326 C325 1.398 . S
C326 C327 1.391 . S
C327 H315 0.950 . S
C327 C323 1.393 . S
C327 C326 1.391 . S
H328 C336 0.950 . S
H329 C341 0.950 . S
H330 C338 0.950 . S
H331 C340 0.950 . S
H332 C342 0.950 . S
H333 C344 0.950 . S
H334 C346 0.950 . S
H335 C347 0.950 . S
C336 H328 0.950 . S
C336 C337 1.386 . S
C336 C338 1.391 . S
C337 C336 1.386 . S
C337 C341 1.393 . S
C338 H330 0.950 . S
C338 C336 1.391 . S
C338 C339 1.400 . S
C339 C338 1.400 . S
C339 C340 1.398 . S
C339 C345 1.491 . S
C340 H331 0.950 . S
C340 C339 1.398 . S
C340 C341 1.391 . S
C341 H329 0.950 . S
C341 C337 1.393 . S
C341 C340 1.391 . S
C342 H332 0.950 . S
C342 C343 1.386 . S
C342 C344 1.391 . S
C343 C342 1.386 . S
C343 C347 1.393 . S
C344 H333 0.950 . S
C344 C342 1.391 . S
C344 C345 1.400 . S
C345 C339 1.491 . S
C345 C344 1.400 . S
C345 C346 1.398 . S
C346 H334 0.950 . S
C346 C345 1.398 . S
C346 C347 1.391 . S
C347 H335 0.950 . S
C347 C343 1.393 . S
C347 C346 1.391 . S
H348 C356 0.950 . S
H349 C361 0.950 . S
H350 C358 0.950 . S
H351 C360 0.950 . S
H352 C362 0.950 . S
H353 C364 0.950 . S
H354 C366 0.950 . S
H355 C367 0.950 . S
C356 H348 0.950 . S
C356 C357 1.386 . S
C356 C358 1.391 . S
C357 C356 1.386 . S
C357 C361 1.393 . S
C358 H350 0.950 . S
C358 C356 1.391 . S
C358 C359 1.400 . S
C359 C358 1.400 . S
C359 C360 1.398 . S
C359 C365 1.491 . S
C360 H351 0.950 . S
C360 C359 1.398 . S
C360 C361 1.391 . S
C361 H349 0.950 . S
C361 C357 1.393 . S
C361 C360 1.391 . S
C362 H352 0.950 . S
C362 C363 1.386 . S
C362 C364 1.391 . S
C363 C362 1.386 . S
C363 C367 1.393 . S
C364 H353 0.950 . S
C364 C362 1.391 . S
C364 C365 1.400 . S
C365 C359 1.491 . S
C365 C364 1.400 . S
C365 C366 1.398 . S
C366 H354 0.950 . S
C366 C365 1.398 . S
C366 C367 1.391 . S
C367 H355 0.950 . S
C367 C363 1.393 . S
C367 C366 1.391 . S
H368 C376 0.950 . S
H369 C381 0.950 . S
H370 C378 0.950 . S
H371 C380 0.950 . S
H372 C382 0.950 . S
H373 C384 0.950 . S
H374 C386 0.950 . S
H375 C387 0.950 . S
C376 H368 0.950 . S
C376 C377 1.386 . S
C376 C378 1.391 . S
C377 C376 1.386 . S
C377 C381 1.393 . S
C378 H370 0.950 . S
C378 C376 1.391 . S
C378 C379 1.400 . S
C379 C378 1.400 . S
C379 C380 1.398 . S
C379 C385 1.491 1_556 S
C380 H371 0.950 . S
C380 C379 1.398 . S
C380 C381 1.391 . S
C381 H369 0.950 . S
C381 C377 1.393 . S
C381 C380 1.391 . S
C382 H372 0.950 . S
C382 C383 1.386 . S
C382 C384 1.391 . S
C383 C382 1.386 . S
C383 C387 1.393 . S
C384 H373 0.950 . S
C384 C382 1.391 . S
C384 C385 1.400 . S
C385 C379 1.491 1_554 S
C385 C384 1.400 . S
C385 C386 1.398 . S
C386 H374 0.950 . S
C386 C385 1.398 . S
C386 C387 1.391 . S
C387 H375 0.950 . S
C387 C383 1.393 . S
C387 C386 1.391 . S
H388 C396 0.950 . S
H389 C401 0.950 . S
H390 C398 0.950 . S
H391 C400 0.950 . S
H392 C402 0.950 . S
H393 C404 0.950 . S
H394 C406 0.950 . S
H395 C407 0.950 . S
C396 H388 0.950 . S
C396 C397 1.386 . S
C396 C398 1.391 . S
C397 C396 1.386 . S
C397 C401 1.393 . S
C398 H390 0.950 . S
C398 C396 1.391 . S
C398 C399 1.400 . S
C399 C398 1.400 . S
C399 C400 1.398 . S
C399 C405 1.491 1_556 S
C400 H391 0.950 . S
C400 C399 1.398 . S
C400 C401 1.391 . S
C401 H389 0.950 . S
C401 C397 1.393 . S
C401 C400 1.391 . S
C402 H392 0.950 . S
C402 C403 1.386 . S
C402 C404 1.391 . S
C403 C402 1.386 . S
C403 C407 1.393 . S
C404 H393 0.950 . S
C404 C402 1.391 . S
C404 C405 1.400 . S
C405 C399 1.491 1_554 S
C405 C404 1.400 . S
C405 C406 1.398 . S
C406 H394 0.950 . S
C406 C405 1.398 . S
C406 C407 1.391 . S
C407 H395 0.950 . S
C407 C403 1.393 . S
C407 C406 1.391 . S
H408 C416 0.950 . S
H409 C421 0.950 . S
H410 C418 0.950 . S
H411 C420 0.950 . S
H412 C422 0.950 . S
H413 C424 0.950 . S
H414 C426 0.950 . S
H415 C427 0.950 . S
C416 H408 0.950 . S
C416 C417 1.386 . S
C416 C418 1.391 . S
C417 C416 1.386 . S
C417 C421 1.393 . S
C418 H410 0.950 . S
C418 C416 1.391 . S
C418 C419 1.400 . S
C419 C418 1.400 . S
C419 C420 1.398 . S
C419 C425 1.491 1_556 S
C420 H411 0.950 . S
C420 C419 1.398 . S
C420 C421 1.391 . S
C421 H409 0.950 . S
C421 C417 1.393 . S
C421 C420 1.391 . S
C422 H412 0.950 . S
C422 C423 1.386 . S
C422 C424 1.391 . S
C423 C422 1.386 . S
C423 C427 1.393 . S
C424 H413 0.950 . S
C424 C422 1.391 . S
C424 C425 1.400 . S
C425 C419 1.491 1_554 S
C425 C424 1.400 . S
C425 C426 1.398 . S
C426 H414 0.950 . S
C426 C425 1.398 . S
C426 C427 1.391 . S
C427 H415 0.950 . S
C427 C423 1.393 . S
C427 C426 1.391 . S
H428 C436 0.950 . S
H429 C441 0.950 . S
H430 C438 0.950 . S
H431 C440 0.950 . S
H432 C442 0.950 . S
H433 C444 0.950 . S
H434 C446 0.950 . S
H435 C447 0.950 . S
C436 H428 0.950 . S
C436 C437 1.386 . S
C436 C438 1.391 . S
C437 C436 1.386 . S
C437 C441 1.393 . S
C438 H430 0.950 . S
C438 C436 1.391 . S
C438 C439 1.400 . S
C439 C438 1.400 . S
C439 C440 1.398 . S
C439 C445 1.491 1_554 S
C440 H431 0.950 . S
C440 C439 1.398 . S
C440 C441 1.391 . S
C441 H429 0.950 . S
C441 C437 1.393 . S
C441 C440 1.391 . S
C442 H432 0.950 . S
C442 C443 1.386 . S
C442 C444 1.391 . S
C443 C442 1.386 . S
C443 C447 1.393 . S
C444 H433 0.950 . S
C444 C442 1.391 . S
C444 C445 1.400 . S
C445 C439 1.491 1_556 S
C445 C444 1.400 . S
C445 C446 1.398 . S
C446 H434 0.950 . S
C446 C445 1.398 . S
C446 C447 1.391 . S
C447 H435 0.950 . S
C447 C443 1.393 . S
C447 C446 1.391 . S
H448 C456 0.950 . S
H449 C461 0.950 . S
H450 C458 0.950 . S
H451 C460 0.950 . S
H452 C462 0.950 . S
H453 C464 0.950 . S
H454 C466 0.950 . S
H455 C467 0.950 . S
C456 H448 0.950 . S
C456 C457 1.386 . S
C456 C458 1.391 . S
C457 C456 1.386 . S
C457 C461 1.393 . S
C458 H450 0.950 . S
C458 C456 1.391 . S
C458 C459 1.400 . S
C459 C458 1.400 . S
C459 C460 1.398 . S
C459 C465 1.491 . S
C460 H451 0.950 . S
C460 C459 1.398 . S
C460 C461 1.391 . S
C461 H449 0.950 . S
C461 C457 1.393 . S
C461 C460 1.391 . S
C462 H452 0.950 . S
C462 C463 1.386 . S
C462 C464 1.391 . S
C463 C462 1.386 . S
C463 C467 1.393 . S
C464 H453 0.950 . S
C464 C462 1.391 . S
C464 C465 1.400 . S
C465 C459 1.491 . S
C465 C464 1.400 . S
C465 C466 1.398 . S
C466 H454 0.950 . S
C466 C465 1.398 . S
C466 C467 1.391 . S
C467 H455 0.950 . S
C467 C463 1.393 . S
C467 C466 1.391 . S
H468 C476 0.950 . S
H469 C481 0.950 . S
H470 C478 0.950 . S
H471 C480 0.950 . S
H472 C482 0.950 . S
H473 C484 0.950 . S
H474 C486 0.950 . S
H475 C487 0.950 . S
C476 H468 0.950 . S
C476 C477 1.386 . S
C476 C478 1.391 . S
C477 C476 1.386 . S
C477 C481 1.393 . S
C478 H470 0.950 . S
C478 C476 1.391 . S
C478 C479 1.400 . S
C479 C478 1.400 . S
C479 C480 1.398 . S
C479 C485 1.491 . S
C480 H471 0.950 . S
C480 C479 1.398 . S
C480 C481 1.391 . S
C481 H469 0.950 . S
C481 C477 1.393 . S
C481 C480 1.391 . S
C482 H472 0.950 . S
C482 C483 1.386 . S
C482 C484 1.391 . S
C483 C482 1.386 . S
C483 C487 1.393 . S
C484 H473 0.950 . S
C484 C482 1.391 . S
C484 C485 1.400 . S
C485 C479 1.491 . S
C485 C484 1.400 . S
C485 C486 1.398 . S
C486 H474 0.950 . S
C486 C485 1.398 . S
C486 C487 1.391 . S
C487 H475 0.950 . S
C487 C483 1.393 . S
C487 C486 1.391 . S
H488 C496 0.950 . S
H489 C501 0.950 . S
H490 C498 0.950 . S
H491 C500 0.950 . S
H492 C502 0.950 . S
H493 C504 0.950 . S
H494 C506 0.950 . S
H495 C507 0.950 . S
C496 H488 0.950 . S
C496 C497 1.386 . S
C496 C498 1.391 . S
C497 C496 1.386 . S
C497 C501 1.393 . S
C498 H490 0.950 . S
C498 C496 1.391 . S
C498 C499 1.400 . S
C499 C498 1.400 . S
C499 C500 1.398 . S
C499 C505 1.491 . S
C500 H491 0.950 . S
C500 C499 1.398 . S
C500 C501 1.391 . S
C501 H489 0.950 . S
C501 C497 1.393 . S
C501 C500 1.391 . S
C502 H492 0.950 . S
C502 C503 1.386 . S
C502 C504 1.391 . S
C503 C502 1.386 . S
C503 C507 1.393 . S
C504 H493 0.950 . S
C504 C502 1.391 . S
C504 C505 1.400 . S
C505 C499 1.491 . S
C505 C504 1.400 . S
C505 C506 1.398 . S
C506 H494 0.950 . S
C506 C505 1.398 . S
C506 C507 1.391 . S
C507 H495 0.950 . S
C507 C503 1.393 . S
C507 C506 1.391 . S
H508 C516 0.950 . S
H509 C521 0.950 . S
H510 C518 0.950 . S
H511 C520 0.950 . S
H512 C522 0.950 . S
H513 C524 0.950 . S
H514 C526 0.950 . S
H515 C527 0.950 . S
C516 H508 0.950 . S
C516 C517 1.386 . S
C516 C518 1.391 . S
C517 C516 1.386 . S
C517 C521 1.393 . S
C518 H510 0.950 . S
C518 C516 1.391 . S
C518 C519 1.400 . S
C519 C518 1.400 . S
C519 C520 1.398 . S
C519 C525 1.491 . S
C520 H511 0.950 . S
C520 C519 1.398 . S
C520 C521 1.391 . S
C521 H509 0.950 . S
C521 C517 1.393 . S
C521 C520 1.391 . S
C522 H512 0.950 . S
C522 C523 1.386 . S
C522 C524 1.391 . S
C523 C522 1.386 . S
C523 C527 1.393 . S
C524 H513 0.950 . S
C524 C522 1.391 . S
C524 C525 1.400 . S
C525 C519 1.491 . S
C525 C524 1.400 . S
C525 C526 1.398 . S
C526 H514 0.950 . S
C526 C525 1.398 . S
C526 C527 1.391 . S
C527 H515 0.950 . S
C527 C523 1.393 . S
C527 C526 1.391 . S
H528 C536 0.950 . S
H529 C541 0.950 . S
H530 C538 0.950 . S
H531 C540 0.950 . S
H532 C542 0.950 . S
H533 C544 0.950 . S
H534 C546 0.950 . S
H535 C547 0.950 . S
C536 H528 0.950 . S
C536 C537 1.386 . S
C536 C538 1.391 . S
C537 C536 1.386 . S
C537 C541 1.393 . S
C538 H530 0.950 . S
C538 C536 1.391 . S
C538 C539 1.400 . S
C539 C538 1.400 . S
C539 C540 1.398 . S
C539 C545 1.491 . S
C540 H531 0.950 . S
C540 C539 1.398 . S
C540 C541 1.391 . S
C541 H529 0.950 . S
C541 C537 1.393 . S
C541 C540 1.391 . S
C542 H532 0.950 . S
C542 C543 1.386 . S
C542 C544 1.391 . S
C543 C542 1.386 . S
C543 C547 1.393 . S
C544 H533 0.950 . S
C544 C542 1.391 . S
C544 C545 1.400 . S
C545 C539 1.491 . S
C545 C544 1.400 . S
C545 C546 1.398 . S
C546 H534 0.950 . S
C546 C545 1.398 . S
C546 C547 1.391 . S
C547 H535 0.950 . S
C547 C543 1.393 . S
C547 C546 1.391 . S
H548 C556 0.950 . S
H549 C561 0.950 . S
H550 C558 0.950 . S
H551 C560 0.950 . S
H552 C562 0.950 . S
H553 C564 0.950 . S
H554 C566 0.950 . S
H555 C567 0.950 . S
C556 H548 0.950 . S
C556 C557 1.386 . S
C556 C558 1.391 . S
C557 C556 1.386 . S
C557 C561 1.393 . S
C558 H550 0.950 . S
C558 C556 1.391 . S
C558 C559 1.400 . S
C559 C558 1.400 . S
C559 C560 1.398 . S
C559 C565 1.491 . S
C560 H551 0.950 . S
C560 C559 1.398 . S
C560 C561 1.391 . S
C561 H549 0.950 . S
C561 C557 1.393 . S
C561 C560 1.391 . S
C562 H552 0.950 . S
C562 C563 1.386 . S
C562 C564 1.391 . S
C563 C562 1.386 . S
C563 C567 1.393 . S
C564 H553 0.950 . S
C564 C562 1.391 . S
C564 C565 1.400 . S
C565 C559 1.491 . S
C565 C564 1.400 . S
C565 C566 1.398 . S
C566 H554 0.950 . S
C566 C565 1.398 . S
C566 C567 1.391 . S
C567 H555 0.950 . S
C567 C563 1.393 . S
C567 C566 1.391 . S
H568 C576 0.950 . S
H569 C581 0.950 . S
H570 C578 0.950 . S
H571 C580 0.950 . S
H572 C582 0.950 . S
H573 C584 0.950 . S
H574 C586 0.950 . S
H575 C587 0.950 . S
C576 H568 0.950 . S
C576 C577 1.386 . S
C576 C578 1.391 . S
C577 C576 1.386 . S
C577 C581 1.393 . S
C578 H570 0.950 . S
C578 C576 1.391 . S
C578 C579 1.400 . S
C579 C578 1.400 . S
C579 C580 1.398 . S
C579 C585 1.491 . S
C580 H571 0.950 . S
C580 C579 1.398 . S
C580 C581 1.391 . S
C581 H569 0.950 . S
C581 C577 1.393 . S
C581 C580 1.391 . S
C582 H572 0.950 . S
C582 C583 1.386 . S
C582 C584 1.391 . S
C583 C582 1.386 . S
C583 C587 1.393 . S
C584 H573 0.950 . S
C584 C582 1.391 . S
C584 C585 1.400 . S
C585 C579 1.491 . S
C585 C584 1.400 . S
C585 C586 1.398 . S
C586 H574 0.950 . S
C586 C585 1.398 . S
C586 C587 1.391 . S
C587 H575 0.950 . S
C587 C583 1.393 . S
C587 C586 1.391 . S
H588 C596 0.950 . S
H589 C601 0.950 . S
H590 C598 0.950 . S
H591 C600 0.950 . S
H592 C602 0.950 . S
H593 C604 0.950 . S
H594 C606 0.950 . S
H595 C607 0.950 . S
C596 H588 0.950 . S
C596 C597 1.386 . S
C596 C598 1.391 . S
C597 C596 1.386 . S
C597 C601 1.393 . S
C598 H590 0.950 . S
C598 C596 1.391 . S
C598 C599 1.400 . S
C599 C598 1.400 . S
C599 C600 1.398 . S
C599 C605 1.491 . S
C600 H591 0.950 . S
C600 C599 1.398 . S
C600 C601 1.391 . S
C601 H589 0.950 . S
C601 C597 1.393 . S
C601 C600 1.391 . S
C602 H592 0.950 . S
C602 C603 1.386 . S
C602 C604 1.391 . S
C603 C602 1.386 . S
C603 C607 1.393 . S
C604 H593 0.950 . S
C604 C602 1.391 . S
C604 C605 1.400 . S
C605 C599 1.491 . S
C605 C604 1.400 . S
C605 C606 1.398 . S
C606 H594 0.950 . S
C606 C605 1.398 . S
C606 C607 1.391 . S
C607 H595 0.950 . S
C607 C603 1.393 . S
C607 C606 1.391 . S
H608 C616 0.950 . S
H609 C621 0.950 . S
H610 C618 0.950 . S
H611 C620 0.950 . S
H612 C622 0.950 . S
H613 C624 0.950 . S
H614 C626 0.950 . S
H615 C627 0.950 . S
C616 H608 0.950 . S
C616 C617 1.386 . S
C616 C618 1.391 . S
C617 C616 1.386 . S
C617 C621 1.393 . S
C618 H610 0.950 . S
C618 C616 1.391 . S
C618 C619 1.400 . S
C619 C618 1.400 . S
C619 C620 1.398 . S
C619 C625 1.491 . S
C620 H611 0.950 . S
C620 C619 1.398 . S
C620 C621 1.391 . S
C621 H609 0.950 . S
C621 C617 1.393 . S
C621 C620 1.391 . S
C622 H612 0.950 . S
C622 C623 1.386 . S
C622 C624 1.391 . S
C623 C622 1.386 . S
C623 C627 1.393 . S
C624 H613 0.950 . S
C624 C622 1.391 . S
C624 C625 1.400 . S
C625 C619 1.491 . S
C625 C624 1.400 . S
C625 C626 1.398 . S
C626 H614 0.950 . S
C626 C625 1.398 . S
C626 C627 1.391 . S
C627 H615 0.950 . S
C627 C623 1.393 . S
C627 C626 1.391 . S
H628 C636 0.950 . S
H629 C641 0.950 . S
H630 C638 0.950 . S
H631 C640 0.950 . S
H632 C642 0.950 . S
H633 C644 0.950 . S
H634 C646 0.950 . S
H635 C647 0.950 . S
C636 H628 0.950 . S
C636 C637 1.386 . S
C636 C638 1.391 . S
C637 C636 1.386 . S
C637 C641 1.393 . S
C638 H630 0.950 . S
C638 C636 1.391 . S
C638 C639 1.400 . S
C639 C638 1.400 . S
C639 C640 1.398 . S
C639 C645 1.491 . S
C640 H631 0.950 . S
C640 C639 1.398 . S
C640 C641 1.391 . S
C641 H629 0.950 . S
C641 C637 1.393 . S
C641 C640 1.391 . S
C642 H632 0.950 . S
C642 C643 1.386 . S
C642 C644 1.391 . S
C643 C642 1.386 . S
C643 C647 1.393 . S
C644 H633 0.950 . S
C644 C642 1.391 . S
C644 C645 1.400 . S
C645 C639 1.491 . S
C645 C644 1.400 . S
C645 C646 1.398 . S
C646 H634 0.950 . S
C646 C645 1.398 . S
C646 C647 1.391 . S
C647 H635 0.950 . S
C647 C643 1.393 . S
C647 C646 1.391 . S
H648 C656 0.950 . S
H649 C661 0.950 . S
H650 C658 0.950 . S
H651 C660 0.950 . S
H652 C662 0.950 . S
H653 C664 0.950 . S
H654 C666 0.950 . S
H655 C667 0.950 . S
C656 H648 0.950 . S
C656 C657 1.386 . S
C656 C658 1.391 . S
C657 C656 1.386 . S
C657 C661 1.393 . S
C658 H650 0.950 . S
C658 C656 1.391 . S
C658 C659 1.400 . S
C659 C658 1.400 . S
C659 C660 1.398 . S
C659 C665 1.491 . S
C660 H651 0.950 . S
C660 C659 1.398 . S
C660 C661 1.391 . S
C661 H649 0.950 . S
C661 C657 1.393 . S
C661 C660 1.391 . S
C662 H652 0.950 . S
C662 C663 1.386 . S
C662 C664 1.391 . S
C663 C662 1.386 . S
C663 C667 1.393 . S
C664 H653 0.950 . S
C664 C662 1.391 . S
C664 C665 1.400 . S
C665 C659 1.491 . S
C665 C664 1.400 . S
C665 C666 1.398 . S
C666 H654 0.950 . S
C666 C665 1.398 . S
C666 C667 1.391 . S
C667 H655 0.950 . S
C667 C663 1.393 . S
C667 C666 1.391 . S
H668 C676 0.950 . S
H669 C681 0.950 . S
H670 C678 0.950 . S
H671 C680 0.950 . S
H672 C682 0.950 . S
H673 C684 0.950 . S
H674 C686 0.950 . S
H675 C687 0.950 . S
C676 H668 0.950 . S
C676 C677 1.386 . S
C676 C678 1.391 . S
C677 C676 1.386 . S
C677 C681 1.393 . S
C678 H670 0.950 . S
C678 C676 1.391 . S
C678 C679 1.400 . S
C679 C678 1.400 . S
C679 C680 1.398 . S
C679 C685 1.491 . S
C680 H671 0.950 . S
C680 C679 1.398 . S
C680 C681 1.391 . S
C681 H669 0.950 . S
C681 C677 1.393 . S
C681 C680 1.391 . S
C682 H672 0.950 . S
C682 C683 1.386 . S
C682 C684 1.391 . S
C683 C682 1.386 . S
C683 C687 1.393 . S
C684 H673 0.950 . S
C684 C682 1.391 . S
C684 C685 1.400 . S
C685 C679 1.491 . S
C685 C684 1.400 . S
C685 C686 1.398 . S
C686 H674 0.950 . S
C686 C685 1.398 . S
C686 C687 1.391 . S
C687 H675 0.950 . S
C687 C683 1.393 . S
C687 C686 1.391 . S
H688 C696 0.950 . S
H689 C701 0.950 . S
H690 C698 0.950 . S
H691 C700 0.950 . S
H692 C702 0.950 . S
H693 C704 0.950 . S
H694 C706 0.950 . S
H695 C707 0.950 . S
C696 H688 0.950 . S
C696 C697 1.386 . S
C696 C698 1.391 . S
C697 C696 1.386 . S
C697 C701 1.393 . S
C698 H690 0.950 . S
C698 C696 1.391 . S
C698 C699 1.400 . S
C699 C698 1.400 . S
C699 C700 1.398 . S
C699 C705 1.491 1_545 S
C700 H691 0.950 . S
C700 C699 1.398 . S
C700 C701 1.391 . S
C701 H689 0.950 . S
C701 C697 1.393 . S
C701 C700 1.391 . S
C702 H692 0.950 . S
C702 C703 1.386 . S
C702 C704 1.391 . S
C703 C702 1.386 . S
C703 C707 1.393 . S
C704 H693 0.950 . S
C704 C702 1.391 . S
C704 C705 1.400 . S
C705 C699 1.491 1_565 S
C705 C704 1.400 . S
C705 C706 1.398 . S
C706 H694 0.950 . S
C706 C705 1.398 . S
C706 C707 1.391 . S
C707 H695 0.950 . S
C707 C703 1.393 . S
C707 C706 1.391 . S
H708 C716 0.950 . S
H709 C721 0.950 . S
H710 C718 0.950 . S
H711 C720 0.950 . S
H712 C722 0.950 . S
H713 C724 0.950 . S
H714 C726 0.950 . S
H715 C727 0.950 . S
C716 H708 0.950 . S
C716 C717 1.386 . S
C716 C718 1.391 . S
C717 C716 1.386 . S
C717 C721 1.393 . S
C718 H710 0.950 . S
C718 C716 1.391 . S
C718 C719 1.400 . S
C719 C718 1.400 . S
C719 C720 1.398 . S
C719 C725 1.491 1_655 S
C720 H711 0.950 . S
C720 C719 1.398 . S
C720 C721 1.391 . S
C721 H709 0.950 . S
C721 C717 1.393 . S
C721 C720 1.391 . S
C722 H712 0.950 . S
C722 C723 1.386 . S
C722 C724 1.391 . S
C723 C722 1.386 . S
C723 C727 1.393 . S
C724 H713 0.950 . S
C724 C722 1.391 . S
C724 C725 1.400 . S
C725 C719 1.491 1_455 S
C725 C724 1.400 . S
C725 C726 1.398 . S
C726 H714 0.950 . S
C726 C725 1.398 . S
C726 C727 1.391 . S
C727 H715 0.950 . S
C727 C723 1.393 . S
C727 C726 1.391 . S
H728 C736 0.950 . S
H729 C741 0.950 . S
H730 C738 0.950 . S
H731 C740 0.950 . S
H732 C742 0.950 . S
H733 C744 0.950 . S
H734 C746 0.950 . S
H735 C747 0.950 . S
C736 H728 0.950 . S
C736 C737 1.386 . S
C736 C738 1.391 . S
C737 C736 1.386 . S
C737 C741 1.393 . S
C738 H730 0.950 . S
C738 C736 1.391 . S
C738 C739 1.400 . S
C739 C738 1.400 . S
C739 C740 1.398 . S
C739 C745 1.491 1_545 S
C740 H731 0.950 . S
C740 C739 1.398 . S
C740 C741 1.391 . S
C741 H729 0.950 . S
C741 C737 1.393 . S
C741 C740 1.391 . S
C742 H732 0.950 . S
C742 C743 1.386 . S
C742 C744 1.391 . S
C743 C742 1.386 . S
C743 C747 1.393 . S
C744 H733 0.950 . S
C744 C742 1.391 . S
C744 C745 1.400 . S
C745 C739 1.491 1_565 S
C745 C744 1.400 . S
C745 C746 1.398 . S
C746 H734 0.950 . S
C746 C745 1.398 . S
C746 C747 1.391 . S
C747 H735 0.950 . S
C747 C743 1.393 . S
C747 C746 1.391 . S
H748 C756 0.950 . S
H749 C761 0.950 . S
H750 C758 0.950 . S
H751 C760 0.950 . S
H752 C762 0.950 . S
H753 C764 0.950 . S
H754 C766 0.950 . S
H755 C767 0.950 . S
C756 H748 0.950 . S
C756 C757 1.386 . S
C756 C758 1.391 . S
C757 C756 1.386 . S
C757 C761 1.393 . S
C758 H750 0.950 . S
C758 C756 1.391 . S
C758 C759 1.400 . S
C759 C758 1.400 . S
C759 C760 1.398 . S
C759 C765 1.491 1_455 S
C760 H751 0.950 . S
C760 C759 1.398 . S
C760 C761 1.391 . S
C761 H749 0.950 . S
C761 C757 1.393 . S
C761 C760 1.391 . S
C762 H752 0.950 . S
C762 C763 1.386 . S
C762 C764 1.391 . S
C763 C762 1.386 . S
C763 C767 1.393 . S
C764 H753 0.950 . S
C764 C762 1.391 . S
C764 C765 1.400 . S
C765 C759 1.491 1_655 S
C765 C764 1.400 . S
C765 C766 1.398 . S
C766 H754 0.950 . S
C766 C765 1.398 . S
C766 C767 1.391 . S
C767 H755 0.950 . S
C767 C763 1.393 . S
C767 C766 1.391 . S
H768 C776 0.950 . S
H769 C781 0.950 . S
H770 C778 0.950 . S
H771 C780 0.950 . S
H772 C782 0.950 . S
H773 C784 0.950 . S
H774 C786 0.950 . S
H775 C787 0.950 . S
C776 H768 0.950 . S
C776 C777 1.386 . S
C776 C778 1.391 . S
C777 C776 1.386 . S
C777 C781 1.393 . S
C778 H770 0.950 . S
C778 C776 1.391 . S
C778 C779 1.400 . S
C779 C778 1.400 . S
C779 C780 1.398 . S
C779 C785 1.491 1_545 S
C780 H771 0.950 . S
C780 C779 1.398 . S
C780 C781 1.391 . S
C781 H769 0.950 . S
C781 C777 1.393 . S
C781 C780 1.391 . S
C782 H772 0.950 . S
C782 C783 1.386 . S
C782 C784 1.391 . S
C783 C782 1.386 . S
C783 C787 1.393 . S
C784 H773 0.950 . S
C784 C782 1.391 . S
C784 C785 1.400 . S
C785 C779 1.491 1_565 S
C785 C784 1.400 . S
C785 C786 1.398 . S
C786 H774 0.950 . S
C786 C785 1.398 . S
C786 C787 1.391 . S
C787 H775 0.950 . S
C787 C783 1.393 . S
C787 C786 1.391 . S
H788 C796 0.950 . S
H789 C801 0.950 . S
H790 C798 0.950 . S
H791 C800 0.950 . S
H792 C802 0.950 . S
H793 C804 0.950 . S
H794 C806 0.950 . S
H795 C807 0.950 . S
C796 H788 0.950 . S
C796 C797 1.386 . S
C796 C798 1.391 . S
C797 C796 1.386 . S
C797 C801 1.393 . S
C798 H790 0.950 . S
C798 C796 1.391 . S
C798 C799 1.400 . S
C799 C798 1.400 . S
C799 C800 1.398 . S
C799 C805 1.491 1_655 S
C800 H791 0.950 . S
C800 C799 1.398 . S
C800 C801 1.391 . S
C801 H789 0.950 . S
C801 C797 1.393 . S
C801 C800 1.391 . S
C802 H792 0.950 . S
C802 C803 1.386 . S
C802 C804 1.391 . S
C803 C802 1.386 . S
C803 C807 1.393 . S
C804 H793 0.950 . S
C804 C802 1.391 . S
C804 C805 1.400 . S
C805 C799 1.491 1_455 S
C805 C804 1.400 . S
C805 C806 1.398 . S
C806 H794 0.950 . S
C806 C805 1.398 . S
C806 C807 1.391 . S
C807 H795 0.950 . S
C807 C803 1.393 . S
C807 C806 1.391 . S
H808 C816 0.950 . S
H809 C821 0.950 . S
H810 C818 0.950 . S
H811 C820 0.950 . S
H812 C822 0.950 . S
H813 C824 0.950 . S
H814 C826 0.950 . S
H815 C827 0.950 . S
C816 H808 0.950 . S
C816 C817 1.386 . S
C816 C818 1.391 . S
C817 C816 1.386 . S
C817 C821 1.393 . S
C818 H810 0.950 . S
C818 C816 1.391 . S
C818 C819 1.400 . S
C819 C818 1.400 . S
C819 C820 1.398 . S
C819 C825 1.491 1_565 S
C820 H811 0.950 . S
C820 C819 1.398 . S
C820 C821 1.391 . S
C821 H809 0.950 . S
C821 C817 1.393 . S
C821 C820 1.391 . S
C822 H812 0.950 . S
C822 C823 1.386 . S
C822 C824 1.391 . S
C823 C822 1.386 . S
C823 C827 1.393 . S
C824 H813 0.950 . S
C824 C822 1.391 . S
C824 C825 1.400 . S
C825 C819 1.491 1_545 S
C825 C824 1.400 . S
C825 C826 1.398 . S
C826 H814 0.950 . S
C826 C825 1.398 . S
C826 C827 1.391 . S
C827 H815 0.950 . S
C827 C823 1.393 . S
C827 C826 1.391 . S
H828 C836 0.950 . S
H829 C841 0.950 . S
H830 C838 0.950 . S
H831 C840 0.950 . S
H832 C842 0.950 . S
H833 C844 0.950 . S
H834 C846 0.950 . S
H835 C847 0.950 . S
C836 H828 0.950 . S
C836 C837 1.386 . S
C836 C838 1.391 . S
C837 C836 1.386 . S
C837 C841 1.393 . S
C838 H830 0.950 . S
C838 C836 1.391 . S
C838 C839 1.400 . S
C839 C838 1.400 . S
C839 C840 1.398 . S
C839 C845 1.491 1_455 S
C840 H831 0.950 . S
C840 C839 1.398 . S
C840 C841 1.391 . S
C841 H829 0.950 . S
C841 C837 1.393 . S
C841 C840 1.391 . S
C842 H832 0.950 . S
C842 C843 1.386 . S
C842 C844 1.391 . S
C843 C842 1.386 . S
C843 C847 1.393 . S
C844 H833 0.950 . S
C844 C842 1.391 . S
C844 C845 1.400 . S
C845 C839 1.491 1_655 S
C845 C844 1.400 . S
C845 C846 1.398 . S
C846 H834 0.950 . S
C846 C845 1.398 . S
C846 C847 1.391 . S
C847 H835 0.950 . S
C847 C843 1.393 . S
C847 C846 1.391 . S
C217 C69 1.598 . S
C223 C10 1.592 . S
C237 C82 1.596 . S
C243 C17 1.599 . S
C257 C30 1.599 . S
C263 C95 1.594 . S
C277 C43 1.591 . S
C283 C56 1.589 . S
C297 C179 1.599 . S
C303 C108 1.593 . S
C317 C186 1.598 . S
C323 C127 1.598 . S
C337 C134 1.589 . S
C343 C199 1.590 . S
C357 C153 1.597 . S
C363 C160 1.599 . S
C377 C140 1.628 . S
C383 C4 1.622 . S
C397 C147 1.628 . S
C403 C23 1.622 . S
C417 C114 1.623 . S
C423 C36 1.631 . S
C437 C49 1.633 . S
C443 C121 1.627 . S
C457 C192 1.630 . S
C463 C62 1.622 . S
C477 C205 1.633 . S
C483 C75 1.625 . S
C497 C88 1.632 . S
C503 C166 1.624 . S
C517 C173 1.623 . S
C523 C101 1.631 . S
C537 C57 1.927 . S
C543 C3 1.927 . S
C557 C18 1.926 . S
C563 C70 1.926 . S
C577 C31 1.925 . S
C583 C83 1.926 . S
C597 C96 1.927 . S
C603 C44 1.927 . S
C617 C107 1.127 . S
C623 C159 1.118 . S
C637 C174 1.134 . S
C643 C122 1.131 . S
C657 C133 1.134 . S
C663 C185 1.130 . S
C677 C198 1.133 . S
C683 C148 1.124 . S
C697 C146 1.927 . S
C703 C172 1.927 . S
C717 C109 1.925 . S
C723 C187 1.926 . S
C737 C200 1.927 . S
C743 C120 1.927 . S
C757 C135 1.925 . S
C763 C161 1.925 . S
C777 C68 1.133 . S
C783 C42 1.133 . S
C797 C81 1.114 . S
C803 C5 1.123 . S
C817 C94 1.134 . S
C823 C16 1.128 . S
C837 C55 1.134 . S
C843 C29 1.128 . S
