# Generated by pormake.
# Topology swi, (7)-cn, num edge types: 1
# Building blocks:
#     Node 0, Type 0, BuildingBlock: HICVOG_clean_sbu_0, # of connection points: 7
#     Node 1, Type 0, BuildingBlock: HICVOG_clean_sbu_0, # of connection points: 7
#     Node 2, Type 0, BuildingBlock: HICVOG_clean_sbu_0, # of connection points: 7
#     Node 3, Type 0, BuildingBlock: HICVOG_clean_sbu_0, # of connection points: 7
#     Node 4, Type 0, BuildingBlock: HICVOG_clean_sbu_0, # of connection points: 7
#     Node 5, Type 0, BuildingBlock: HICVOG_clean_sbu_0, # of connection points: 7
#     Node 6, Type 0, BuildingBlock: HICVOG_clean_sbu_0, # of connection points: 7
#     Node 7, Type 0, BuildingBlock: HICVOG_clean_sbu_0, # of connection points: 7
#     Node 8, Type 0, BuildingBlock: HICVOG_clean_sbu_0, # of connection points: 7
#     Node 9, Type 0, BuildingBlock: HICVOG_clean_sbu_0, # of connection points: 7
#     Node 10, Type 0, BuildingBlock: HICVOG_clean_sbu_0, # of connection points: 7
#     Node 11, Type 0, BuildingBlock: HICVOG_clean_sbu_0, # of connection points: 7
#     Edge 12, Type (0, 0), BuildingBlock: XUDNAN_clean_linker_2, # of connection points: 2
#     Edge 13, Type (0, 0), BuildingBlock: XUDNAN_clean_linker_2, # of connection points: 2
#     Edge 14, Type (0, 0), BuildingBlock: XUDNAN_clean_linker_2, # of connection points: 2
#     Edge 15, Type (0, 0), BuildingBlock: XUDNAN_clean_linker_2, # of connection points: 2
#     Edge 16, Type (0, 0), BuildingBlock: XUDNAN_clean_linker_2, # of connection points: 2
#     Edge 17, Type (0, 0), BuildingBlock: XUDNAN_clean_linker_2, # of connection points: 2
#     Edge 18, Type (0, 0), BuildingBlock: XUDNAN_clean_linker_2, # of connection points: 2
#     Edge 19, Type (0, 0), BuildingBlock: XUDNAN_clean_linker_2, # of connection points: 2
#     Edge 20, Type (0, 0), BuildingBlock: XUDNAN_clean_linker_2, # of connection points: 2
#     Edge 21, Type (0, 0), BuildingBlock: XUDNAN_clean_linker_2, # of connection points: 2
#     Edge 22, Type (0, 0), BuildingBlock: XUDNAN_clean_linker_2, # of connection points: 2
#     Edge 23, Type (0, 0), BuildingBlock: XUDNAN_clean_linker_2, # of connection points: 2
#     Edge 24, Type (0, 0), BuildingBlock: XUDNAN_clean_linker_2, # of connection points: 2
#     Edge 25, Type (0, 0), BuildingBlock: XUDNAN_clean_linker_2, # of connection points: 2
#     Edge 26, Type (0, 0), BuildingBlock: XUDNAN_clean_linker_2, # of connection points: 2
#     Edge 27, Type (0, 0), BuildingBlock: XUDNAN_clean_linker_2, # of connection points: 2
#     Edge 28, Type (0, 0), BuildingBlock: XUDNAN_clean_linker_2, # of connection points: 2
#     Edge 29, Type (0, 0), BuildingBlock: XUDNAN_clean_linker_2, # of connection points: 2
#     Edge 30, Type (0, 0), BuildingBlock: XUDNAN_clean_linker_2, # of connection points: 2
#     Edge 31, Type (0, 0), BuildingBlock: XUDNAN_clean_linker_2, # of connection points: 2
#     Edge 32, Type (0, 0), BuildingBlock: XUDNAN_clean_linker_2, # of connection points: 2
#     Edge 33, Type (0, 0), BuildingBlock: XUDNAN_clean_linker_2, # of connection points: 2
#     Edge 34, Type (0, 0), BuildingBlock: XUDNAN_clean_linker_2, # of connection points: 2
#     Edge 35, Type (0, 0), BuildingBlock: XUDNAN_clean_linker_2, # of connection points: 2
#     Edge 36, Type (0, 0), BuildingBlock: XUDNAN_clean_linker_2, # of connection points: 2
#     Edge 37, Type (0, 0), BuildingBlock: XUDNAN_clean_linker_2, # of connection points: 2
#     Edge 38, Type (0, 0), BuildingBlock: XUDNAN_clean_linker_2, # of connection points: 2
#     Edge 39, Type (0, 0), BuildingBlock: XUDNAN_clean_linker_2, # of connection points: 2
#     Edge 40, Type (0, 0), BuildingBlock: XUDNAN_clean_linker_2, # of connection points: 2
#     Edge 41, Type (0, 0), BuildingBlock: XUDNAN_clean_linker_2, # of connection points: 2
#     Edge 42, Type (0, 0), BuildingBlock: XUDNAN_clean_linker_2, # of connection points: 2
#     Edge 43, Type (0, 0), BuildingBlock: XUDNAN_clean_linker_2, # of connection points: 2
#     Edge 44, Type (0, 0), BuildingBlock: XUDNAN_clean_linker_2, # of connection points: 2
#     Edge 45, Type (0, 0), BuildingBlock: XUDNAN_clean_linker_2, # of connection points: 2
#     Edge 46, Type (0, 0), BuildingBlock: XUDNAN_clean_linker_2, # of connection points: 2
#     Edge 47, Type (0, 0), BuildingBlock: XUDNAN_clean_linker_2, # of connection points: 2
#     Edge 48, Type (0, 0), BuildingBlock: XUDNAN_clean_linker_2, # of connection points: 2
#     Edge 49, Type (0, 0), BuildingBlock: XUDNAN_clean_linker_2, # of connection points: 2
#     Edge 50, Type (0, 0), BuildingBlock: XUDNAN_clean_linker_2, # of connection points: 2
#     Edge 51, Type (0, 0), BuildingBlock: XUDNAN_clean_linker_2, # of connection points: 2
#     Edge 52, Type (0, 0), BuildingBlock: XUDNAN_clean_linker_2, # of connection points: 2
#     Edge 53, Type (0, 0), BuildingBlock: XUDNAN_clean_linker_2, # of connection points: 2
# Relax obj value: 0.315
# Max RMSD: 0.249
# Mean RMSD: 0.249
data_MOF--net-swi--node1-HICVOG_clean_sbu_0--edge1-XUDNAN_clean_linker_2
_symmetry_space_group_name_H-M    P1
_symmetry_Int_Tables_number       1
_symmetry_cell_setting            triclinic
loop_
_symmetry_equiv_pos_as_xyz
'x, y, z'
_cell_length_a     40.365367
_cell_length_b     40.356226
_cell_length_c     39.434941
_cell_angle_alpha  89.993311
_cell_angle_beta   89.994507
_cell_angle_gamma 119.97385
loop_
_atom_site_label
_atom_site_type_symbol
_atom_site_fract_x
_atom_site_fract_y
_atom_site_fract_z
_atom_type_partial_charge
Zn0 Zn 0.42326 0.11646 0.95061 0.0
C1 C 0.49896 0.13964 0.02725 0.0
N2 N 0.50524 0.11359 1.01218 0.0
C3 C 0.47827 0.09883 0.98802 0.0
N4 N 0.45638 0.11579 0.98761 0.0
N5 N 0.46827 0.13948 1.01396 0.0
C6 C 0.48501 0.24209 0.0698 0.0
O7 O 0.44981 0.2351 0.07418 0.0
O8 O 0.38122 0.06202 0.94102 0.0
Zn9 Zn 0.44749 0.16677 0.03858 0.0
N10 N 0.45401 0.13993 0.90955 0.0
C11 C 0.51599 0.171 0.88477 0.0
C12 C 0.49204 0.15261 0.91205 0.0
C13 C 0.43913 0.14668 0.88085 0.0
N14 N 0.50132 0.17754 0.85635 0.0
C15 C 0.46358 0.16653 0.85315 0.0
O16 O 0.4131 0.17748 1.01067 0.0
C17 C 0.39573 0.17045 0.98245 0.0
O18 O 0.39817 0.14874 0.96029 0.0
H19 H 0.50397 0.14944 0.93539 0.0
H20 H 0.40904 0.13763 0.88036 0.0
C21 C 0.42839 0.15356 0.11103 0.0
C22 C 0.40729 0.13138 0.13908 0.0
C23 C 0.37098 0.07922 0.10191 0.0
C24 C 0.3915 0.10153 0.07424 0.0
N25 N 0.42001 0.13807 0.07917 0.0
N26 N 0.37932 0.09457 0.13351 0.0
H27 H 0.45151 0.18245 0.1147 0.0
C28 C 0.3682 0.04025 0.96673 0.0
O29 O 0.38271 0.05412 0.99663 0.0
O30 O 0.49061 0.21745 0.05478 0.0
H31 H 0.38481 0.08993 0.04895 0.0
H32 H 0.54627 0.18088 0.88641 0.0
H33 H 0.3484 0.04995 0.09828 0.0
Zn34 Zn 0.28639 0.45325 0.05278 0.0
C35 C 0.38581 0.47467 1.00863 0.0
N36 N 0.39816 0.49727 0.03614 0.0
C37 C 0.36658 0.49495 0.0493 0.0
N38 N 0.33562 0.46915 0.03214 0.0
N39 N 0.34709 0.45768 1.00522 0.0
C40 C 0.31526 0.36175 0.97748 0.0
O41 O 0.30697 0.36788 1.00821 0.0
O42 O 0.28253 0.49915 0.06421 0.0
Zn43 Zn 0.31353 0.43038 0.96595 0.0
N44 N 0.28243 0.42695 0.09532 0.0
C45 C 0.29369 0.38194 0.1245 0.0
C46 C 0.29307 0.39992 0.09455 0.0
C47 C 0.27177 0.43648 0.12503 0.0
N48 N 0.28399 0.39197 0.15414 0.0
C49 C 0.27282 0.41869 0.15546 0.0
O50 O 0.25602 0.40967 0.97256 0.0
C51 C 0.23152 0.40728 0.99429 0.0
O52 O 0.24145 0.42183 0.02363 0.0
H53 H 0.30166 0.39296 0.07088 0.0
H54 H 0.26401 0.45856 0.12516 0.0
C55 C 0.30362 0.45208 0.8985 0.0
C56 C 0.31214 0.4769 0.87041 0.0
C57 C 0.36699 0.52403 0.90004 0.0
C58 C 0.35809 0.49957 0.92766 0.0
N59 N 0.32692 0.46396 0.92635 0.0
N60 N 0.34395 0.51223 0.87237 0.0
H61 H 0.27836 0.42406 0.89897 0.0
C62 C 0.2863 0.52165 0.04024 0.0
O63 O 0.29341 0.51429 1.00947 0.0
O64 O 0.3197 0.38525 0.95406 0.0
H65 H 0.3756 0.50922 0.95014 0.0
H66 H 0.3024 0.36057 0.1243 0.0
H67 H 0.39179 0.55244 0.90073 0.0
Zn68 Zn 0.88094 0.30411 0.96978 0.0
C69 C 0.87194 0.36069 0.05245 0.0
N70 N 0.89675 0.39178 0.03515 0.0
C71 C 0.90428 0.37728 1.00756 0.0
N72 N 0.88431 0.33839 1.00731 0.0
N73 N 0.86484 0.32831 0.03631 0.0
C74 C 0.76413 0.26453 0.0322 0.0
O75 O 0.78361 0.27164 1.00383 0.0
O76 O 0.93519 0.31949 0.95623 0.0
Zn77 Zn 0.83435 0.27881 0.0579 0.0
N78 N 0.85322 0.30891 0.93099 0.0
C79 C 0.8182 0.33666 0.90805 0.0
C80 C 0.83965 0.3335 0.93413 0.0
C81 C 0.84532 0.28644 0.90276 0.0
N82 N 0.81035 0.31444 0.88006 0.0
C83 C 0.82298 0.28902 0.87629 0.0
O84 O 0.83165 0.23419 0.03346 0.0
C85 C 0.83778 0.22366 1.00496 0.0
O86 O 0.8541 0.24695 0.98061 0.0
H87 H 0.84476 0.34999 0.95702 0.0
H88 H 0.85532 0.26612 0.90168 0.0
C89 C 0.8299 0.26528 0.13138 0.0
C90 C 0.84567 0.26393 0.16299 0.0
C91 C 0.90719 0.29251 0.13743 0.0
C92 C 0.89146 0.29349 0.10627 0.0
N93 N 0.85323 0.27967 0.10368 0.0
N94 N 0.88403 0.27757 0.16484 0.0
H95 H 0.79944 0.25393 0.12857 0.0
C96 C 0.95773 0.32367 0.98048 0.0
O97 O 0.94454 0.31781 1.01168 0.0
O98 O 0.78051 0.26677 0.06024 0.0
H99 H 0.90946 0.30458 0.08405 0.0
H100 H 0.80731 0.35622 0.91023 0.0
H101 H 0.93757 0.30315 0.13977 0.0
Zn102 Zn 0.55802 0.83931 0.06455 0.0
C103 C 0.53357 0.91438 1.01785 0.0
N104 N 0.51161 0.9053 0.04574 0.0
C105 C 0.51691 0.87889 0.06121 0.0
N106 N 0.54268 0.87333 0.04435 0.0
N107 N 0.55242 0.89423 1.01612 0.0
C108 C 0.65719 0.95019 0.99127 0.0
O109 O 0.65375 0.92423 1.01329 0.0
O110 O 0.51185 0.78993 0.07725 0.0
Zn111 Zn 0.58216 0.8897 0.97778 0.0
N112 N 0.58683 0.86025 0.10623 0.0
C113 C 0.64438 0.90577 0.13344 0.0
C114 C 0.62156 0.89255 0.10447 0.0
C115 C 0.57361 0.84088 0.13607 0.0
N116 N 0.63164 0.886 0.16297 0.0
C117 C 0.59667 0.85386 0.16531 0.0
O118 O 0.60029 0.8504 0.98335 0.0
C119 C 0.60118 0.82725 1.00485 0.0
O120 O 0.58708 0.82351 0.03429 0.0
H121 H 0.63171 0.9074 0.08058 0.0
H122 H 0.54613 0.81485 0.13672 0.0
C123 C 0.56413 0.86225 0.90841 0.0
C124 C 0.53924 0.84389 0.88082 0.0
C125 C 0.48975 0.84721 0.91058 0.0
C126 C 0.51395 0.86389 0.93817 0.0
N127 N 0.55085 0.87184 0.93653 0.0
N128 N 0.50276 0.83732 0.8829 0.0
H129 H 0.59295 0.86689 0.90843 0.0
C130 C 0.49527 0.76693 0.053 0.0
O131 O 0.50732 0.77817 0.02188 0.0
O132 O 0.62954 0.94202 0.9711 0.0
H133 H 0.50272 0.86888 0.96113 0.0
H134 H 0.67227 0.93125 0.13235 0.0
H135 H 0.46038 0.8409 0.91161 0.0
Zn136 Zn 0.69718 0.57294 0.98097 0.0
C137 C 0.63636 0.50158 0.05902 0.0
N138 N 0.60643 0.49699 0.04075 0.0
C139 C 0.62257 0.52201 1.01529 0.0
N140 N 0.6614 0.54115 1.01733 0.0
N141 N 0.66978 0.52899 0.04574 0.0
C142 C 0.74868 0.49849 0.06427 0.0
O143 O 0.75189 0.50732 0.03192 0.0
O144 O 0.68272 0.61285 0.96694 0.0
Zn145 Zn 0.71811 0.55021 0.07118 0.0
N146 N 0.69276 0.53961 0.94269 0.0
C147 C 0.66632 0.47536 0.92357 0.0
C148 C 0.66979 0.50149 0.94819 0.0
C149 C 0.71367 0.55263 0.91341 0.0
N150 N 0.68705 0.48815 0.89468 0.0
C151 C 0.71109 0.52604 0.88857 0.0
O152 O 0.7637 0.59076 0.04683 0.0
C153 C 0.77603 0.60787 1.01871 0.0
O154 O 0.75409 0.60209 0.99346 0.0
H155 H 0.65486 0.49121 0.97192 0.0
H156 H 0.73299 0.58298 0.91024 0.0
C157 C 0.73788 0.57147 0.13999 0.0
C158 C 0.73528 0.58369 0.1729 0.0
C159 C 0.68456 0.59286 0.15368 0.0
C160 C 0.68749 0.58084 0.12114 0.0
N161 N 0.71401 0.57029 0.11497 0.0
N162 N 0.70829 0.59389 0.17868 0.0
H163 H 0.75799 0.56198 0.13427 0.0
C164 C 0.6754 0.62947 0.99084 0.0
O165 O 0.67757 0.62003 0.02232 0.0
O166 O 0.73341 0.51148 0.08437 0.0
H167 H 0.66852 0.57947 0.10112 0.0
H168 H 0.64792 0.44499 0.92767 0.0
H169 H 0.66343 0.60115 0.15908 0.0
Zn170 Zn 0.17034 0.72135 0.06272 0.0
C171 C 0.10126 0.61821 1.01774 0.0
N172 N 0.11987 0.60904 0.04081 0.0
C173 C 0.14597 0.64265 0.05365 0.0
N174 N 0.14226 0.67132 0.04045 0.0
N175 N 0.11593 0.65693 1.01603 0.0
C176 C 0.0493 0.69696 1.00345 0.0
O177 O 0.07577 0.71685 0.02609 0.0
O178 O 0.22291 0.73252 0.07721 0.0
Zn179 Zn 0.11141 0.68927 0.97964 0.0
N180 N 0.14691 0.72306 0.10571 0.0
C181 C 0.09328 0.70233 0.14231 0.0
C182 C 0.10854 0.70214 0.11055 0.0
C183 C 0.17068 0.74435 0.13146 0.0
N184 N 0.117 0.72338 0.16799 0.0
C185 C 0.15558 0.74479 0.16369 0.0
O186 O 0.14801 0.74679 0.98462 0.0
C187 C 0.17185 0.77274 1.00436 0.0
O188 O 0.17983 0.76483 0.03326 0.0
H189 H 0.09005 0.68509 0.09006 0.0
H190 H 0.20114 0.75996 0.12693 0.0
C191 C 0.13843 0.70681 0.9096 0.0
C192 C 0.15428 0.70198 0.87926 0.0
C193 C 0.14336 0.64197 0.89975 0.0
C194 C 0.12892 0.64744 0.92995 0.0
N195 N 0.12632 0.67944 0.93451 0.0
N196 N 0.15598 0.66934 0.87545 0.0
H197 H 0.13749 0.73278 0.91406 0.0
C198 C 0.252 0.74975 0.05819 0.0
O199 O 0.24791 0.75868 0.02703 0.0
O200 O 0.0575 0.68138 0.97932 0.0
H201 H 0.12124 0.62684 0.94991 0.0
H202 H 0.06277 0.68564 0.1466 0.0
H203 H 0.14555 0.61658 0.89601 0.0
Zn204 Zn 0.82965 0.54679 0.48457 0.0
C205 C 0.89087 0.50641 0.53257 0.0
N206 N 0.87397 0.48022 0.50794 0.0
C207 C 0.84901 0.48888 0.49422 0.0
N208 N 0.85186 0.52035 0.50862 0.0
N209 N 0.87629 0.53044 0.53434 0.0
C210 C 0.94304 0.63015 0.55611 0.0
O211 O 0.9239 0.62396 0.52773 0.0
O212 O 0.77935 0.5081 0.46431 0.0
Zn213 Zn 0.87539 0.56185 0.57286 0.0
N214 N 0.86136 0.57451 0.44575 0.0
C215 C 0.92333 0.60975 0.42143 0.0
C216 C 0.89988 0.59136 0.44909 0.0
C217 C 0.8451 0.57434 0.41528 0.0
N218 N 0.90725 0.60943 0.39113 0.0
C219 C 0.86863 0.59202 0.38679 0.0
O220 O 0.84037 0.58403 0.56608 0.0
C221 C 0.82138 0.59111 0.54437 0.0
O222 O 0.81819 0.58014 0.51374 0.0
H223 H 0.91219 0.58965 0.47283 0.0
H224 H 0.81429 0.55932 0.41316 0.0
C225 C 0.84719 0.54534 0.64247 0.0
C226 C 0.8308 0.5218 0.67141 0.0
C227 C 0.8341 0.4716 0.64262 0.0
C228 C 0.84926 0.49458 0.61415 0.0
N229 N 0.85617 0.53115 0.61456 0.0
N230 N 0.82521 0.4856 0.6702 0.0
H231 H 0.8523 0.57425 0.64151 0.0
C232 C 0.74923 0.49459 0.48213 0.0
O233 O 0.75148 0.50574 0.51376 0.0
O234 O 0.92775 0.60708 0.58069 0.0
H235 H 0.85462 0.48283 0.59174 0.0
H236 H 0.95409 0.62346 0.42377 0.0
H237 H 0.82871 0.4425 0.64262 0.0
Zn238 Zn 0.28896 0.8835 0.56912 0.0
C239 C 0.35272 0.86875 0.49889 0.0
N240 N 0.33693 0.88371 0.52423 0.0
C241 C 0.36362 0.9134 0.54726 0.0
N242 N 0.32895 0.88927 0.53635 0.0
N243 N 0.32324 0.86791 0.51154 0.0
C244 C 0.28034 0.77029 0.48999 0.0
O245 O 0.2832 0.78051 0.52196 0.0
O246 O 0.29512 0.93632 0.57575 0.0
Zn247 Zn 0.27757 0.83872 0.4828 0.0
N248 N 0.29136 0.85725 0.61066 0.0
C249 C 0.3029 0.807 0.62652 0.0
C250 C 0.30199 0.83132 0.60221 0.0
C251 C 0.27768 0.85719 0.64258 0.0
N252 N 0.29012 0.80728 0.65813 0.0
C253 C 0.27663 0.83093 0.66729 0.0
O254 O 0.22578 0.81962 0.50466 0.0
C255 C 0.21311 0.82539 0.53222 0.0
O256 O 0.23543 0.84823 0.55452 0.0
H257 H 0.30784 0.82826 0.57619 0.0
H258 H 0.26679 0.87622 0.64818 0.0
C259 C 0.26854 0.8494 0.41079 0.0
C260 C 0.27378 0.87161 0.38147 0.0
C261 C 0.30235 0.92767 0.41572 0.0
C262 C 0.29752 0.90566 0.44446 0.0
N263 N 0.28095 0.86709 0.44156 0.0
N264 N 0.29072 0.91027 0.3851 0.0
H265 H 0.25592 0.81867 0.40908 0.0
C266 C 0.28191 0.94556 0.55039 0.0
O267 O 0.26594 0.92068 0.52569 0.0
O268 O 0.27804 0.79156 0.46755 0.0
H269 H 0.30731 0.91919 0.46892 0.0
H270 H 0.31208 0.78681 0.61996 0.0
H271 H 0.31568 0.95844 0.41764 0.0
Zn272 Zn 0.44075 0.27145 0.46231 0.0
C273 C 0.46333 0.37072 0.50576 0.0
N274 N 0.49327 0.3833 0.48453 0.0
C275 C 0.48991 0.35103 0.47201 0.0
N276 N 0.45938 0.31999 0.48474 0.0
N277 N 0.44298 0.33185 0.50705 0.0
C278 C 0.34408 0.29961 0.52613 0.0
O279 O 0.34962 0.28119 0.5013 0.0
O280 O 0.48443 0.26245 0.45749 0.0
Zn281 Zn 0.41025 0.29979 0.54445 0.0
N282 N 0.42469 0.27404 0.41614 0.0
C283 C 0.40224 0.30232 0.37604 0.0
C284 C 0.41178 0.2986 0.40927 0.0
C285 C 0.4283 0.2528 0.391 0.0
N286 N 0.4058 0.28118 0.351 0.0
C287 C 0.41842 0.25615 0.35728 0.0
O288 O 0.38423 0.2421 0.53643 0.0
C289 C 0.38082 0.21732 0.51459 0.0
O290 O 0.39933 0.22631 0.48686 0.0
H291 H 0.40938 0.31549 0.4294 0.0
H292 H 0.43954 0.23423 0.39729 0.0
C293 C 0.42879 0.28423 0.61284 0.0
C294 C 0.45362 0.29098 0.64066 0.0
C295 C 0.50068 0.34791 0.61367 0.0
C296 C 0.47651 0.34068 0.58617 0.0
N297 N 0.4409 0.30937 0.58614 0.0
N298 N 0.48882 0.32299 0.63995 0.0
H299 H 0.4009 0.25875 0.61174 0.0
C300 C 0.49919 0.25785 0.48408 0.0
O301 O 0.48477 0.25861 0.51377 0.0
O302 O 0.36797 0.3122 0.55043 0.0
H303 H 0.48667 0.35962 0.5647 0.0
H304 H 0.39213 0.32194 0.37016 0.0
H305 H 0.52904 0.37281 0.61388 0.0
Zn306 Zn 0.12259 0.43006 0.56454 0.0
C307 C 0.13138 0.50222 0.48883 0.0
N308 N 0.10416 0.50449 0.50639 0.0
C309 C 0.09439 0.4778 0.53062 0.0
N310 N 0.1153 0.46001 0.52866 0.0
N311 N 0.13658 0.47411 0.50103 0.0
C312 C 0.24911 0.50544 0.46094 0.0
O313 O 0.24365 0.47102 0.45505 0.0
O314 O 0.07005 0.38887 0.57944 0.0
Zn315 Zn 0.17015 0.46183 0.47653 0.0
N316 N 0.15107 0.4635 0.60284 0.0
C317 C 0.18322 0.52698 0.62456 0.0
C318 C 0.16193 0.50104 0.59929 0.0
C319 C 0.1616 0.45089 0.63085 0.0
N320 N 0.19357 0.51456 0.65233 0.0
C321 C 0.18376 0.47725 0.65662 0.0
O322 O 0.17657 0.42076 0.49817 0.0
C323 C 0.16999 0.40065 0.52475 0.0
O324 O 0.15134 0.40279 0.5499 0.0
H325 H 0.15463 0.51096 0.57674 0.0
H326 H 0.1536 0.42108 0.63235 0.0
C327 C 0.17433 0.4529 0.40332 0.0
C328 C 0.15968 0.43753 0.37099 0.0
C329 C 0.09685 0.40987 0.39373 0.0
C330 C 0.11176 0.42382 0.42591 0.0
N331 N 0.15023 0.44495 0.43026 0.0
N332 N 0.121 0.41665 0.36725 0.0
H333 H 0.20456 0.47104 0.40691 0.0
C334 C 0.04763 0.37011 0.55527 0.0
O335 O 0.0602 0.37864 0.52395 0.0
O336 O 0.22176 0.50916 0.47235 0.0
H337 H 0.09284 0.41769 0.44735 0.0
H338 H 0.1919 0.55693 0.62195 0.0
H339 H 0.06626 0.3931 0.38996 0.0
Zn340 Zn 0.71913 0.16305 0.48754 0.0
C341 C 0.62526 0.0781 0.5318 0.0
N342 N 0.60873 0.09572 0.51629 0.0
C343 C 0.63846 0.12737 0.50378 0.0
N344 N 0.67186 0.12919 0.51096 0.0
N345 N 0.66408 0.09918 0.53018 0.0
C346 C 0.71571 0.04517 0.55108 0.0
O347 O 0.73735 0.07193 0.52927 0.0
O348 O 0.72125 0.21203 0.47678 0.0
Zn349 Zn 0.69876 0.10298 0.56766 0.0
N350 N 0.72344 0.14139 0.44468 0.0
C351 C 0.72569 0.0909 0.41565 0.0
C352 C 0.7197 0.10604 0.44527 0.0
C353 C 0.73235 0.1621 0.41532 0.0
N354 N 0.73526 0.11174 0.38658 0.0
C355 C 0.73865 0.14703 0.3853 0.0
O356 O 0.7552 0.14378 0.56212 0.0
C357 C 0.77753 0.17052 0.54217 0.0
O358 O 0.76543 0.17788 0.51513 0.0
H359 H 0.71273 0.09008 0.46875 0.0
H360 H 0.73573 0.19044 0.41562 0.0
C361 C 0.70952 0.13321 0.63699 0.0
C362 C 0.69909 0.14584 0.66659 0.0
C363 C 0.63799 0.12536 0.64215 0.0
C364 C 0.64874 0.11386 0.61297 0.0
N365 N 0.68396 0.11734 0.6108 0.0
N366 N 0.66326 0.14108 0.66796 0.0
H367 H 0.73786 0.13705 0.63418 0.0
C368 C 0.71768 0.23069 0.50091 0.0
O369 O 0.71226 0.21693 0.53189 0.0
O370 O 0.69566 0.05178 0.5719 0.0
H371 H 0.62919 0.10307 0.59207 0.0
H372 H 0.72315 0.06291 0.41582 0.0
H373 H 0.60994 0.1225 0.64406 0.0
Zn374 Zn 0.57741 0.69497 0.57519 0.0
C375 C 0.4934 0.65009 0.51456 0.0
N376 N 0.48425 0.61825 0.53203 0.0
C377 C 0.51805 0.62475 0.54466 0.0
N378 N 0.54576 0.6614 0.53777 0.0
N379 N 0.53064 0.67554 0.51651 0.0
C380 C 0.50605 0.74501 0.51803 0.0
O381 O 0.52181 0.73935 0.54492 0.0
O382 O 0.61305 0.67632 0.58992 0.0
Zn383 Zn 0.55369 0.72171 0.48999 0.0
N384 N 0.54505 0.6953 0.61285 0.0
C385 C 0.4822 0.67828 0.63094 0.0
C386 C 0.5068 0.67755 0.6068 0.0
C387 C 0.55981 0.71509 0.64246 0.0
N388 N 0.49673 0.69762 0.6602 0.0
C389 C 0.53488 0.71649 0.66709 0.0
O390 O 0.60091 0.76459 0.5101 0.0
C391 C 0.61984 0.77391 0.53755 0.0
O392 O 0.61177 0.75079 0.56224 0.0
H393 H 0.4952 0.66359 0.5831 0.0
H394 H 0.59038 0.72958 0.64647 0.0
C395 C 0.55934 0.7301 0.4168 0.0
C396 C 0.57134 0.72563 0.38439 0.0
C397 C 0.59244 0.68536 0.40841 0.0
C398 C 0.58085 0.69016 0.44044 0.0
N399 N 0.56484 0.71261 0.44411 0.0
N400 N 0.58776 0.70339 0.38131 0.0
H401 H 0.54704 0.7483 0.4205 0.0
C402 C 0.63339 0.67583 0.5655 0.0
O403 O 0.62848 0.68639 0.53526 0.0
O404 O 0.51586 0.73972 0.48884 0.0
H405 H 0.58519 0.6767 0.46241 0.0
H406 H 0.45174 0.66412 0.62625 0.0
H407 H 0.60553 0.66782 0.40515 0.0
H408 H 0.34558 0.9852 1.015 0.0
H409 H 0.32029 0.00458 0.9124 0.0
H410 H 0.26559 0.93807 0.91049 0.0
H411 H 0.32278 0.88758 1.00226 0.0
H412 H 0.30313 0.87304 0.04425 0.0
H413 H 0.34037 0.92155 0.03662 0.0
H414 H 0.29739 0.94652 0.06134 0.0
H415 H 0.25986 0.89816 0.06895 0.0
H416 H 0.25046 0.92981 0.04372 0.0
H417 H 0.21212 0.86867 0.92134 0.0
H418 H 0.16794 0.80325 0.94261 0.0
H419 H 0.22968 0.83259 0.03816 0.0
C420 C 0.32865 0.97558 0.99203 0.0
C421 C 0.33697 0.00012 0.96392 0.0
C422 C 0.31435 0.98618 0.93424 0.0
C423 C 0.28321 0.94854 0.93299 0.0
C424 C 0.27537 0.92532 0.96155 0.0
C425 C 0.2978 0.93837 0.99035 0.0
C426 C 0.28393 0.9082 1.0177 0.0
C427 C 0.31434 0.89692 0.02566 0.0
C428 C 0.27221 0.92148 0.04981 0.0
C429 C 0.24964 0.87618 1.00015 0.0
C430 C 0.24507 0.88625 0.96773 0.0
C431 C 0.21546 0.86059 0.94673 0.0
C432 C 0.19037 0.82356 0.95909 0.0
C433 C 0.19504 0.81272 0.99217 0.0
C434 C 0.22488 0.83981 1.01287 0.0
H435 H 0.32847 0.31978 0.02415 0.0
H436 H 0.31786 0.3314 0.91592 0.0
H437 H 0.33097 0.27856 0.9053 0.0
H438 H 0.40707 0.30485 1.01838 0.0
H439 H 0.39216 0.27151 0.05319 0.0
H440 H 0.37828 0.30747 0.05207 0.0
H441 H 0.30699 0.25472 0.05699 0.0
H442 H 0.3207 0.21853 0.05797 0.0
H443 H 0.28706 0.21616 0.02664 0.0
H444 H 0.34833 0.22605 0.90674 0.0
H445 H 0.37327 0.18252 0.91986 0.0
H446 H 0.37357 0.2073 0.02703 0.0
C447 C 0.32827 0.31083 0.99822 0.0
C448 C 0.32175 0.32938 0.97086 0.0
C449 C 0.32263 0.31742 0.93727 0.0
C450 C 0.32988 0.28734 0.93101 0.0
C451 C 0.33637 0.26974 0.95862 0.0
C452 C 0.33589 0.28129 0.99155 0.0
C453 C 0.34664 0.25992 1.01665 0.0
C454 C 0.3832 0.28758 0.0362 0.0
C455 C 0.31335 0.2359 0.04099 0.0
C456 C 0.35363 0.23478 0.99273 0.0
C457 C 0.34714 0.2404 0.95939 0.0
C458 C 0.35323 0.22123 0.9328 0.0
C459 C 0.36723 0.19643 0.94049 0.0
C460 C 0.37534 0.19145 0.97446 0.0
C461 C 0.36758 0.21035 1.0008 0.0
H462 H 0.01569 0.35292 0.02655 0.0
H463 H 0.99158 0.32123 0.92056 0.0
H464 H 0.0591 0.33808 0.91195 0.0
H465 H 0.11004 0.43399 1.01296 0.0
H466 H 0.12904 0.42601 0.05152 0.0
H467 H 0.07914 0.41177 0.04887 0.0
H468 H 0.06042 0.34254 0.06563 0.0
H469 H 0.11017 0.35629 0.06845 0.0
H470 H 0.07861 0.31728 0.04124 0.0
H471 H 0.12999 0.35681 0.9162 0.0
H472 H 0.19744 0.37938 0.93192 0.0
H473 H 0.17288 0.39842 0.03502 0.0
C474 C 0.02451 0.34946 1.00149 0.0
C475 C 0.99831 0.33539 0.97429 0.0
C476 C 0.01121 0.33191 0.94178 0.0
C477 C 0.04946 0.34131 0.93669 0.0
C478 C 0.07443 0.35452 0.9643 0.0
C479 C 0.06243 0.35898 0.99595 0.0
C480 C 0.09463 0.37419 0.02147 0.0
C481 C 0.10376 0.41384 0.03445 0.0
C482 C 0.08539 0.34587 0.05092 0.0
C483 C 0.12656 0.37679 0.99954 0.0
C484 C 0.11462 0.3655 0.9666 0.0
C485 C 0.13959 0.36576 0.94193 0.0
C486 C 0.17781 0.37842 0.95114 0.0
C487 C 0.19061 0.39056 0.98474 0.0
C488 C 0.16426 0.38926 1.00911 0.0
H489 H 0.67016 0.01566 0.95726 0.0
H490 H 0.72234 0.9724 0.02763 0.0
H491 H 0.77802 0.03706 0.03327 0.0
H492 H 0.7606 0.08841 0.91621 0.0
H493 H 0.7447 0.12282 0.91282 0.0
H494 H 0.71041 0.07235 0.91127 0.0
H495 H 0.67296 0.08007 0.96109 0.0
H496 H 0.70699 0.13048 0.96269 0.0
H497 H 0.69763 0.10151 1.00014 0.0
H498 H 0.82413 0.10683 0.03711 0.0
H499 H 0.85823 0.17762 0.03773 0.0
H500 H 0.77902 0.17678 0.96323 0.0
C501 C 0.69368 0.01968 0.97327 0.0
C502 C 0.69185 0.98879 0.99188 0.0
C503 C 0.72297 0.99545 1.01304 0.0
C504 C 0.75488 0.03213 1.01636 0.0
C505 C 0.75558 0.06203 0.99816 0.0
C506 C 0.72596 0.05628 0.97686 0.0
C507 C 0.73289 0.09395 0.96199 0.0
C508 C 0.73742 0.0944 0.92327 0.0
C509 C 0.70071 0.10196 0.97209 0.0
C510 C 0.77045 0.12174 0.979 0.0
C511 C 0.78309 0.1026 0.99962 0.0
C512 C 0.81512 0.12212 0.0204 0.0
C513 C 0.83439 0.16223 0.02056 0.0
C514 C 0.82192 0.18234 0.99973 0.0
C515 C 0.78993 0.16188 0.97832 0.0
H516 H 0.63897 0.65359 0.03388 0.0
H517 H 0.68695 0.67191 0.93266 0.0
H518 H 0.6726 0.7244 0.92405 0.0
H519 H 0.56182 0.67228 1.01221 0.0
H520 H 0.56458 0.69491 0.05233 0.0
H521 H 0.57711 0.65796 0.04962 0.0
H522 H 0.6436 0.70364 0.07554 0.0
H523 H 0.63155 0.74087 0.07853 0.0
H524 H 0.67393 0.74943 0.05592 0.0
H525 H 0.65571 0.77818 0.92857 0.0
H526 H 0.63514 0.82464 0.94456 0.0
H527 H 0.59863 0.76924 0.0427 0.0
C528 C 0.64635 0.66848 1.0098 0.0
C529 C 0.66443 0.6589 0.98404 0.0
C530 C 0.6731 0.67878 0.95275 0.0
C531 C 0.66511 0.70868 0.94769 0.0
C532 C 0.64798 0.71794 0.97399 0.0
C533 C 0.63826 0.69794 1.00425 0.0
C534 C 0.62027 0.71323 0.02872 0.0
C535 C 0.57848 0.6828 0.03614 0.0
C536 C 0.64375 0.72765 0.06161 0.0
C537 C 0.62256 0.74591 1.00809 0.0
C538 C 0.63826 0.74815 0.97646 0.0
C539 C 0.64327 0.7765 0.95327 0.0
C540 C 0.63168 0.80291 0.96262 0.0
C541 C 0.61551 0.80098 0.995 0.0
C542 C 0.61113 0.77198 1.01783 0.0
H543 H 0.98417 0.65126 0.96576 0.0
H544 H 0.02659 0.73197 0.04946 0.0
H545 H 0.96224 0.72304 0.05787 0.0
H546 H 0.91474 0.6781 0.93338 0.0
H547 H 0.87945 0.62946 0.92321 0.0
H548 H 0.92962 0.64436 0.92155 0.0
H549 H 0.9185 0.59005 0.96317 0.0
H550 H 0.86836 0.57489 0.96474 0.0
H551 H 0.89574 0.58654 1.0034 0.0
H552 H 0.89293 0.70101 0.06144 0.0
H553 H 0.82228 0.66677 0.05966 0.0
H554 H 0.82354 0.60216 0.97243 0.0
C555 C 0.98002 0.6675 0.98549 0.0
C556 C 0.01061 0.69247 1.00686 0.0
C557 C 0.00378 0.71273 0.0327 0.0
C558 C 0.96729 0.70798 0.03763 0.0
C559 C 0.93775 0.68301 1.01641 0.0
C560 C 0.94359 0.66313 0.99077 0.0
C561 C 0.90624 0.63636 0.97292 0.0
C562 C 0.90761 0.64776 0.93554 0.0
C563 C 0.89665 0.59449 0.97627 0.0
C564 C 0.87847 0.64376 0.99303 0.0
C565 C 0.89742 0.67096 1.01789 0.0
C566 C 0.87783 0.68034 0.04162 0.0
C567 C 0.83778 0.66088 0.04038 0.0
C568 C 0.81775 0.63281 1.01534 0.0
C569 C 0.83837 0.62462 0.99099 0.0
H570 H 0.99516 0.66293 0.50507 0.0
H571 H 0.97964 0.66963 0.61321 0.0
H572 H 0.04587 0.72389 0.61764 0.0
H573 H 0.09049 0.67987 0.51169 0.0
H574 H 0.10668 0.70687 0.47284 0.0
H575 H 0.05717 0.67086 0.47769 0.0
H576 H 0.03711 0.72119 0.46399 0.0
H577 H 0.08662 0.75743 0.45924 0.0
H578 H 0.05656 0.76451 0.48869 0.0
H579 H 0.11317 0.77665 0.61038 0.0
H580 H 0.17981 0.82027 0.5937 0.0
H581 H 0.15339 0.77675 0.49056 0.0
C582 C 0.00563 0.6762 0.52958 0.0
C583 C 0.98233 0.6626 0.55878 0.0
C584 C 0.99713 0.67986 0.59058 0.0
C585 C 0.03455 0.71074 0.59328 0.0
C586 C 0.05683 0.7235 0.564 0.0
C587 C 0.04316 0.70648 0.53284 0.0
C588 C 0.07399 0.72378 0.50586 0.0
C589 C 0.08259 0.69354 0.49117 0.0
C590 C 0.06289 0.74286 0.47779 0.0
C591 C 0.10716 0.75321 0.52676 0.0
C592 C 0.09639 0.75289 0.56009 0.0
C593 C 0.12197 0.77718 0.58436 0.0
C594 C 0.1598 0.80197 0.57453 0.0
C595 C 0.17197 0.802 0.54075 0.0
C596 C 0.14504 0.77752 0.51651 0.0
H597 H 0.33138 0.01269 0.58411 0.0
H598 H 0.24247 0.96549 0.50732 0.0
H599 H 0.25333 0.02984 0.49496 0.0
H600 H 0.31295 0.09078 0.61279 0.0
H601 H 0.36317 0.12442 0.61826 0.0
H602 H 0.34519 0.07403 0.6247 0.0
H603 H 0.3938 0.07592 0.58074 0.0
H604 H 0.41182 0.12618 0.57415 0.0
H605 H 0.3946 0.09374 0.53864 0.0
H606 H 0.27915 0.09874 0.48477 0.0
H607 H 0.3176 0.16911 0.47915 0.0
H608 H 0.3885 0.17361 0.56346 0.0
C609 C 0.31353 0.01587 0.5654 0.0
C610 C 0.28594 0.98397 0.5468 0.0
C611 C 0.26375 0.98941 0.52193 0.0
C612 C 0.26959 0.02589 0.51478 0.0
C613 C 0.29759 0.05684 0.53282 0.0
C614 C 0.31905 0.05236 0.55784 0.0
C615 C 0.34936 0.09099 0.57143 0.0
C616 C 0.34223 0.0953 0.60903 0.0
C617 C 0.38978 0.09705 0.56589 0.0
C618 C 0.3423 0.11768 0.54933 0.0
C619 C 0.31206 0.09724 0.52743 0.0
C620 C 0.30223 0.11516 0.50236 0.0
C621 C 0.32413 0.15501 0.4993 0.0
C622 C 0.3551 0.17646 0.52143 0.0
C623 C 0.36401 0.15771 0.54706 0.0
H624 H 0.3284 0.34529 0.56762 0.0
H625 H 0.28489 0.26815 0.48143 0.0
H626 H 0.23114 0.28025 0.47646 0.0
H627 H 0.23389 0.32144 0.60323 0.0
H628 H 0.24991 0.3702 0.61536 0.0
H629 H 0.28321 0.35274 0.61467 0.0
H630 H 0.32745 0.40778 0.57412 0.0
H631 H 0.29442 0.42545 0.57482 0.0
H632 H 0.30828 0.41414 0.53494 0.0
H633 H 0.18671 0.30557 0.47619 0.0
H634 H 0.15368 0.34299 0.48121 0.0
H635 H 0.22304 0.40209 0.56871 0.0
C636 C 0.30716 0.33044 0.54812 0.0
C637 C 0.31083 0.30567 0.52498 0.0
C638 C 0.28277 0.28725 0.49946 0.0
C639 C 0.25196 0.29377 0.4965 0.0
C640 C 0.24937 0.31863 0.51937 0.0
C641 C 0.27606 0.33663 0.54478 0.0
C642 C 0.26779 0.36401 0.56449 0.0
C643 C 0.25812 0.35132 0.60165 0.0
C644 C 0.30148 0.40528 0.56192 0.0
C645 C 0.23294 0.35925 0.54555 0.0
C646 C 0.22273 0.33269 0.51976 0.0
C647 C 0.19377 0.32575 0.49676 0.0
C648 C 0.17516 0.34701 0.49979 0.0
C649 C 0.18525 0.37442 0.52584 0.0
C650 C 0.214 0.3802 0.54937 0.0
H651 H 0.83335 0.22512 0.50234 0.0
H652 H 0.81382 0.17461 0.60278 0.0
H653 H 0.88079 0.22145 0.61829 0.0
H654 H 0.92886 0.24368 0.49186 0.0
H655 H 0.9444 0.28816 0.46977 0.0
H656 H 0.89523 0.25067 0.46719 0.0
H657 H 0.87325 0.29744 0.4892 0.0
H658 H 0.92249 0.33487 0.49125 0.0
H659 H 0.89267 0.32279 0.52841 0.0
H660 H 0.95041 0.27627 0.62277 0.0
H661 H 0.01667 0.32978 0.61423 0.0
H662 H 0.98852 0.34203 0.51057 0.0
C663 C 0.843 0.2236 0.52762 0.0
C664 C 0.81824 0.19606 0.55133 0.0
C665 C 0.8323 0.19526 0.58408 0.0
C666 C 0.87021 0.22191 0.59318 0.0
C667 C 0.8936 0.24907 0.56922 0.0
C668 C 0.88045 0.24979 0.53704 0.0
C669 C 0.91095 0.28138 0.51566 0.0
C670 C 0.92042 0.26498 0.48428 0.0
C671 C 0.89911 0.31085 0.50556 0.0
C672 C 0.94369 0.29815 0.5406 0.0
C673 C 0.93319 0.27961 0.57154 0.0
C674 C 0.9589 0.29079 0.59856 0.0
C675 C 0.9964 0.32124 0.59354 0.0
C676 C 0.00778 0.33969 0.56164 0.0
C677 C 0.98083 0.32813 0.53511 0.0
H678 H 0.61797 0.82165 0.58462 0.0
H679 H 0.68184 0.81743 0.49818 0.0
H680 H 0.72047 0.88812 0.49799 0.0
H681 H 0.60698 0.89422 0.55357 0.0
H682 H 0.61014 0.91752 0.5934 0.0
H683 H 0.59405 0.8672 0.59252 0.0
H684 H 0.64721 0.87704 0.63494 0.0
H685 H 0.66322 0.92749 0.6364 0.0
H686 H 0.69636 0.91151 0.62555 0.0
H687 H 0.74524 0.95808 0.5018 0.0
H688 H 0.75373 0.02258 0.50811 0.0
H689 H 0.67078 0.98167 0.59008 0.0
C690 C 0.64141 0.83575 0.56682 0.0
C691 C 0.6481 0.81448 0.54214 0.0
C692 C 0.67727 0.83352 0.5178 0.0
C693 C 0.69922 0.87355 0.51753 0.0
C694 C 0.69111 0.89395 0.54146 0.0
C695 C 0.6629 0.87573 0.56571 0.0
C696 C 0.65591 0.9041 0.58512 0.0
C697 C 0.61432 0.89522 0.58087 0.0
C698 C 0.66631 0.90509 0.62274 0.0
C699 C 0.68372 0.94093 0.56731 0.0
C700 C 0.70424 0.9345 0.54268 0.0
C701 C 0.72982 0.96359 0.52137 0.0
C702 C 0.73432 0.00014 0.52508 0.0
C703 C 0.713 0.00725 0.54966 0.0
C704 C 0.68779 0.97727 0.57132 0.0
H705 H 0.78406 0.61696 0.50406 0.0
H706 H 0.80648 0.60448 0.60962 0.0
H707 H 0.76186 0.62656 0.62724 0.0
H708 H 0.77508 0.70201 0.51479 0.0
H709 H 0.73747 0.68607 0.48367 0.0
H710 H 0.77336 0.67219 0.48001 0.0
H711 H 0.72012 0.60088 0.47855 0.0
H712 H 0.6841 0.61447 0.48261 0.0
H713 H 0.68591 0.58178 0.51269 0.0
H714 H 0.71009 0.64514 0.63279 0.0
H715 H 0.65982 0.66278 0.62564 0.0
H716 H 0.67301 0.66294 0.51641 0.0
C717 C 0.78017 0.61941 0.53093 0.0
C718 C 0.79887 0.60902 0.55543 0.0
C719 C 0.79272 0.61255 0.59034 0.0
C720 C 0.76729 0.6249 0.6006 0.0
C721 C 0.74853 0.63388 0.57565 0.0
C722 C 0.75511 0.6317 0.54155 0.0
C723 C 0.73067 0.64169 0.51959 0.0
C724 C 0.75564 0.67763 0.49827 0.0
C725 C 0.7036 0.60767 0.49704 0.0
C726 C 0.70887 0.64943 0.5466 0.0
C727 C 0.7194 0.64478 0.57882 0.0
C728 C 0.70195 0.64924 0.60766 0.0
C729 C 0.67334 0.65908 0.60337 0.0
C730 C 0.66265 0.66444 0.57049 0.0
C731 C 0.68072 0.65941 0.54191 0.0
H732 H 0.4283 0.27457 0.28938 0.0
H733 H 0.41249 0.18471 0.35946 0.0
H734 H 0.41318 0.14606 0.31155 0.0
H735 H 0.36729 0.21343 0.22511 0.0
H736 H 0.3963 0.24215 0.19023 0.0
H737 H 0.39769 0.26437 0.23019 0.0
H738 H 0.47114 0.29319 0.23273 0.0
H739 H 0.46992 0.27099 0.19274 0.0
H740 H 0.491 0.26202 0.22936 0.0
H741 H 0.40997 0.11449 0.25592 0.0
H742 H 0.4047 0.09304 0.19656 0.0
H743 H 0.42372 0.20318 0.16172 0.0
C744 C 0.42542 0.24694 0.29477 0.0
C745 C 0.42098 0.23322 0.32858 0.0
C746 C 0.41697 0.19666 0.3342 0.0
C747 C 0.41706 0.17422 0.30699 0.0
C748 C 0.42134 0.1886 0.27414 0.0
C749 C 0.42568 0.22421 0.26788 0.0
C750 C 0.42831 0.23226 0.22998 0.0
C751 C 0.39543 0.2384 0.2182 0.0
C752 C 0.46742 0.26665 0.22066 0.0
C753 C 0.42402 0.19527 0.21592 0.0
C754 C 0.4201 0.17055 0.2419 0.0
C755 C 0.41353 0.13381 0.2354 0.0
C756 C 0.41049 0.12184 0.20157 0.0
C757 C 0.41433 0.14652 0.17441 0.0
C758 C 0.42163 0.18394 0.18183 0.0
H759 H 0.14298 0.43268 0.30258 0.0
H760 H 0.23364 0.44973 0.37228 0.0
H761 H 0.27346 0.45263 0.32425 0.0
H762 H 0.15466 0.37085 0.24675 0.0
H763 H 0.14519 0.38917 0.2085 0.0
H764 H 0.12458 0.39208 0.24809 0.0
H765 H 0.15504 0.46532 0.24046 0.0
H766 H 0.17577 0.46262 0.20079 0.0
H767 H 0.2059 0.49418 0.2338 0.0
H768 H 0.30157 0.44737 0.26973 0.0
H769 H 0.31655 0.43592 0.21172 0.0
H770 H 0.20949 0.42355 0.17563 0.0
C771 C 0.17143 0.4376 0.30777 0.0
C772 C 0.18512 0.44185 0.34158 0.0
C773 C 0.22245 0.44765 0.34697 0.0
C774 C 0.24541 0.44903 0.31969 0.0
C775 C 0.23096 0.4446 0.2869 0.0
C776 C 0.19493 0.4392 0.28071 0.0
C777 C 0.18577 0.43345 0.24299 0.0
C778 C 0.15046 0.39404 0.2362 0.0
C779 C 0.1803 0.46582 0.22867 0.0
C780 C 0.22195 0.4356 0.22912 0.0
C781 C 0.24761 0.44216 0.25501 0.0
C782 C 0.28198 0.44284 0.24918 0.0
C783 C 0.29023 0.43624 0.21616 0.0
C784 C 0.26453 0.42945 0.18913 0.0
C785 C 0.23011 0.42964 0.19566 0.0
H786 H 0.85296 0.21879 0.21036 0.0
H787 H 0.78598 0.27264 0.18654 0.0
H788 H 0.7515 0.24957 0.24123 0.0
H789 H 0.77537 0.13405 0.24989 0.0
H790 H 0.80623 0.13065 0.28102 0.0
H791 H 0.82499 0.15139 0.2401 0.0
H792 H 0.87726 0.21294 0.26934 0.0
H793 H 0.85846 0.19254 0.31033 0.0
H794 H 0.86335 0.23798 0.29876 0.0
H795 H 0.72749 0.22365 0.30136 0.0
H796 H 0.71099 0.19118 0.35728 0.0
H797 H 0.79115 0.1512 0.33927 0.0
C798 C 0.83085 0.22553 0.21654 0.0
C799 C 0.82215 0.24751 0.19414 0.0
C800 C 0.79286 0.25551 0.20309 0.0
C801 C 0.77334 0.24275 0.23424 0.0
C802 C 0.78302 0.22152 0.25595 0.0
C803 C 0.81067 0.21243 0.24711 0.0
C804 C 0.81527 0.18848 0.27431 0.0
C805 C 0.80483 0.14879 0.2605 0.0
C806 C 0.856 0.20924 0.28905 0.0
C807 C 0.78624 0.1858 0.30014 0.0
C808 C 0.76819 0.20538 0.28939 0.0
C809 C 0.74126 0.20797 0.30979 0.0
C810 C 0.73225 0.18967 0.34165 0.0
C811 C 0.74972 0.16858 0.35267 0.0
C812 C 0.77705 0.1668 0.33147 0.0
H813 H 0.62468 0.76221 0.33497 0.0
H814 H 0.50962 0.73243 0.36443 0.0
H815 H 0.50279 0.76126 0.31121 0.0
H816 H 0.64953 0.85427 0.29814 0.0
H817 H 0.67815 0.85044 0.26496 0.0
H818 H 0.67338 0.82717 0.3051 0.0
H819 H 0.64904 0.76244 0.27415 0.0
H820 H 0.65349 0.78546 0.23394 0.0
H821 H 0.6083 0.74509 0.2463 0.0
H822 H 0.5077 0.79009 0.25224 0.0
H823 H 0.52636 0.82275 0.19646 0.0
H824 H 0.63981 0.83771 0.20818 0.0
C825 C 0.59809 0.76189 0.33026 0.0
C826 C 0.56765 0.74507 0.35379 0.0
C827 C 0.53341 0.74548 0.34689 0.0
C828 C 0.52923 0.76157 0.31663 0.0
C829 C 0.55977 0.77769 0.2938 0.0
C830 C 0.59377 0.77854 0.30061 0.0
C831 C 0.62272 0.79856 0.27256 0.0
C832 C 0.65802 0.83476 0.286 0.0
C833 C 0.63404 0.77125 0.25575 0.0
C834 C 0.59963 0.80851 0.24861 0.0
C835 C 0.56321 0.79583 0.26103 0.0
C836 C 0.53629 0.80044 0.24252 0.0
C837 C 0.54703 0.81881 0.21077 0.0
C838 C 0.58456 0.83287 0.19807 0.0
C839 C 0.61105 0.82761 0.21741 0.0
H840 H 0.72069 0.5775 0.24171 0.0
H841 H 0.80879 0.59532 0.16871 0.0
H842 H 0.85028 0.59748 0.21516 0.0
H843 H 0.78509 0.64135 0.30546 0.0
H844 H 0.75782 0.61188 0.34071 0.0
H845 H 0.73407 0.61059 0.30165 0.0
H846 H 0.70576 0.53723 0.29835 0.0
H847 H 0.72953 0.53833 0.33735 0.0
H848 H 0.73741 0.51781 0.29975 0.0
H849 H 0.88307 0.59878 0.26903 0.0
H850 H 0.90539 0.59937 0.32702 0.0
H851 H 0.79739 0.58227 0.36666 0.0
C852 C 0.74869 0.58182 0.23544 0.0
C853 C 0.76085 0.58539 0.20117 0.0
C854 C 0.79793 0.59125 0.19435 0.0
C855 C 0.82204 0.5929 0.22072 0.0
C856 C 0.80898 0.58886 0.25399 0.0
C857 C 0.77325 0.58352 0.26155 0.0
C858 C 0.76661 0.5805 0.29969 0.0
C859 C 0.76055 0.61302 0.31264 0.0
C860 C 0.73282 0.54112 0.30935 0.0
C861 C 0.80428 0.5851 0.31232 0.0
C862 C 0.82818 0.58987 0.2854 0.0
C863 C 0.86459 0.59506 0.29032 0.0
C864 C 0.87705 0.59548 0.32355 0.0
C865 C 0.85333 0.59069 0.35188 0.0
C866 C 0.81627 0.58539 0.34592 0.0
H867 H 0.14095 0.73137 0.23232 0.0
H868 H 0.22614 0.81134 0.16176 0.0
H869 H 0.26601 0.84905 0.20966 0.0
H870 H 0.14969 0.80159 0.29267 0.0
H871 H 0.14358 0.7724 0.32935 0.0
H872 H 0.12212 0.75019 0.28954 0.0
H873 H 0.15677 0.71085 0.29188 0.0
H874 H 0.17843 0.73305 0.33168 0.0
H875 H 0.20804 0.73532 0.29653 0.0
H876 H 0.29561 0.88044 0.26478 0.0
H877 H 0.31321 0.90314 0.32355 0.0
H878 H 0.21007 0.80349 0.35998 0.0
C879 C 0.16809 0.7567 0.22687 0.0
C880 C 0.18041 0.76766 0.19286 0.0
C881 C 0.21613 0.80129 0.18719 0.0
C882 C 0.23904 0.82326 0.2144 0.0
C883 C 0.22611 0.8115 0.2474 0.0
C884 C 0.19152 0.77899 0.25383 0.0
C885 C 0.18409 0.77335 0.29185 0.0
C886 C 0.14771 0.77446 0.30141 0.0
C887 C 0.1817 0.73591 0.30368 0.0
C888 C 0.21973 0.80803 0.30572 0.0
C889 C 0.2435 0.82955 0.27949 0.0
C890 C 0.27735 0.86365 0.28551 0.0
C891 C 0.28706 0.87636 0.31906 0.0
C892 C 0.26332 0.85506 0.34657 0.0
C893 C 0.22929 0.82011 0.33968 0.0
H894 H 0.49107 0.70564 0.72299 0.0
H895 H 0.60676 0.77781 0.68566 0.0
H896 H 0.62276 0.81609 0.73837 0.0
H897 H 0.48012 0.77965 0.75617 0.0
H898 H 0.45158 0.75229 0.7918 0.0
H899 H 0.45116 0.72833 0.75322 0.0
H900 H 0.47119 0.68576 0.78655 0.0
H901 H 0.47149 0.70947 0.82534 0.0
H902 H 0.51357 0.70792 0.81256 0.0
H903 H 0.62402 0.84941 0.7956 0.0
H904 H 0.60976 0.87375 0.84823 0.0
H905 H 0.49258 0.7802 0.84449 0.0
C906 C 0.52006 0.72917 0.72575 0.0
C907 C 0.54761 0.73816 0.69987 0.0
C908 C 0.58509 0.76949 0.70506 0.0
C909 C 0.59443 0.79167 0.73498 0.0
C910 C 0.56607 0.78228 0.75953 0.0
C911 C 0.52965 0.75159 0.75502 0.0
C912 C 0.50324 0.74834 0.78364 0.0
C913 C 0.46956 0.75241 0.77041 0.0
C914 C 0.48905 0.71064 0.80317 0.0
C915 C 0.53016 0.78235 0.80497 0.0
C916 C 0.56647 0.80152 0.79113 0.0
C917 C 0.59569 0.83433 0.80661 0.0
C918 C 0.58738 0.8479 0.83663 0.0
C919 C 0.55001 0.82894 0.85064 0.0
C920 C 0.5214 0.7956 0.83448 0.0
H921 H 0.73253 0.482 0.85318 0.0
H922 H 0.74177 0.59383 0.85085 0.0
H923 H 0.77611 0.6072 0.79592 0.0
H924 H 0.82461 0.50974 0.81592 0.0
H925 H 0.80644 0.46553 0.79275 0.0
H926 H 0.78479 0.46647 0.8324 0.0
H927 H 0.71874 0.43761 0.80282 0.0
H928 H 0.74018 0.43669 0.7631 0.0
H929 H 0.71338 0.46133 0.76624 0.0
H930 H 0.80676 0.60564 0.73795 0.0
H931 H 0.83081 0.5905 0.68622 0.0
H932 H 0.80062 0.47956 0.72906 0.0
C933 C 0.74185 0.50952 0.8414 0.0
C934 C 0.73437 0.53684 0.85669 0.0
C935 C 0.74747 0.57249 0.84014 0.0
C936 C 0.76685 0.58025 0.80873 0.0
C937 C 0.77316 0.55223 0.79425 0.0
C938 C 0.76114 0.51767 0.81039 0.0
C939 C 0.77024 0.49165 0.78974 0.0
C940 C 0.79819 0.48285 0.80884 0.0
C941 C 0.73345 0.45465 0.77989 0.0
C942 C 0.78901 0.51663 0.75911 0.0
C943 C 0.7906 0.55149 0.7619 0.0
C944 C 0.80585 0.57846 0.7358 0.0
C945 C 0.8196 0.56946 0.70626 0.0
C946 C 0.81811 0.53362 0.70287 0.0
C947 C 0.80266 0.50732 0.73017 0.0
H948 H 0.21796 0.72069 0.84229 0.0
H949 H 0.12831 0.74916 0.85348 0.0
H950 H 0.15346 0.79175 0.80312 0.0
H951 H 0.29322 0.81591 0.81351 0.0
H952 H 0.31311 0.7955 0.78499 0.0
H953 H 0.28979 0.77069 0.82346 0.0
H954 H 0.24432 0.71049 0.78846 0.0
H955 H 0.26742 0.73505 0.74999 0.0
H956 H 0.21646 0.71456 0.75468 0.0
H957 H 0.18553 0.82559 0.74579 0.0
H958 H 0.22072 0.84708 0.69136 0.0
H959 H 0.29078 0.79844 0.72173 0.0
C960 C 0.20388 0.73633 0.83454 0.0
C961 C 0.17115 0.73155 0.85194 0.0
C962 C 0.15368 0.75264 0.84087 0.0
C963 C 0.16774 0.7768 0.81216 0.0
C964 C 0.19973 0.78016 0.79514 0.0
C965 C 0.2178 0.76078 0.80646 0.0
C966 C 0.25063 0.76755 0.7835 0.0
C967 C 0.28895 0.78868 0.8025 0.0
C968 C 0.2443 0.72967 0.76826 0.0
C969 C 0.24771 0.79282 0.75671 0.0
C970 C 0.21841 0.80011 0.76363 0.0
C971 C 0.209 0.82058 0.74063 0.0
C972 C 0.22944 0.83301 0.70971 0.0
C973 C 0.25906 0.82497 0.70195 0.0
C974 C 0.26858 0.80546 0.72653 0.0
H975 H 0.50945 0.21149 0.80169 0.0
H976 H 0.38955 0.14791 0.83084 0.0
H977 H 0.37284 0.16989 0.77859 0.0
H978 H 0.50883 0.29209 0.76871 0.0
H979 H 0.54185 0.29919 0.73496 0.0
H980 H 0.54354 0.27679 0.77385 0.0
H981 H 0.53545 0.21807 0.74009 0.0
H982 H 0.53369 0.24029 0.70104 0.0
H983 H 0.49525 0.19327 0.71187 0.0
H984 H 0.37011 0.20186 0.7216 0.0
H985 H 0.38242 0.24082 0.66949 0.0
H986 H 0.5038 0.2816 0.67981 0.0
C987 C 0.47945 0.20163 0.79742 0.0
C988 C 0.45111 0.17776 0.82119 0.0
C989 C 0.41233 0.16625 0.81377 0.0
C990 C 0.40239 0.17854 0.78382 0.0
C991 C 0.43137 0.20227 0.76127 0.0
C992 C 0.46912 0.21353 0.76794 0.0
C993 C 0.49544 0.23989 0.74066 0.0
C994 C 0.52408 0.27932 0.75544 0.0
C995 C 0.51617 0.22179 0.72234 0.0
C996 C 0.46681 0.2423 0.71758 0.0
C997 C 0.42987 0.22027 0.72948 0.0
C998 C 0.39899 0.21897 0.71213 0.0
C999 C 0.40623 0.24107 0.68233 0.0
C1000 C 0.44414 0.26442 0.67023 0.0
C1001 C 0.47446 0.26437 0.6882 0.0
H1002 H 0.31353 0.52614 0.82195 0.0
H1003 H 0.25498 0.40501 0.84684 0.0
H1004 H 0.21587 0.39125 0.79519 0.0
H1005 H 0.23289 0.52896 0.78864 0.0
H1006 H 0.26005 0.56272 0.75574 0.0
H1007 H 0.28299 0.56264 0.79486 0.0
H1008 H 0.33352 0.55421 0.76131 0.0
H1009 H 0.31071 0.55421 0.72208 0.0
H1010 H 0.31797 0.51474 0.7322 0.0
H1011 H 0.18217 0.39125 0.73918 0.0
H1012 H 0.15827 0.40526 0.68657 0.0
H1013 H 0.24134 0.52599 0.69878 0.0
C1014 C 0.29263 0.49656 0.81679 0.0
C1015 C 0.28751 0.46692 0.83924 0.0
C1016 C 0.25946 0.4287 0.83093 0.0
C1017 C 0.23711 0.42044 0.80128 0.0
C1018 C 0.24306 0.45053 0.77992 0.0
C1019 C 0.27028 0.48782 0.78743 0.0
C1020 C 0.2715 0.51526 0.76063 0.0
C1021 C 0.26124 0.54408 0.77589 0.0
C1022 C 0.31075 0.5358 0.74301 0.0
C1023 C 0.24062 0.48772 0.73677 0.0
C1024 C 0.22443 0.45046 0.74811 0.0
C1025 C 0.19493 0.42037 0.73007 0.0
C1026 C 0.18166 0.42866 0.69989 0.0
C1027 C 0.1979 0.46684 0.68784 0.0
C1028 C 0.22792 0.49643 0.70687 0.0
H1029 H 0.76286 0.27269 0.83437 0.0
H1030 H 0.85661 0.2499 0.84626 0.0
H1031 H 0.83623 0.21114 0.79384 0.0
H1032 H 0.69392 0.1806 0.80287 0.0
H1033 H 0.67305 0.19957 0.77386 0.0
H1034 H 0.69519 0.22492 0.81238 0.0
H1035 H 0.73951 0.28564 0.77745 0.0
H1036 H 0.71759 0.26043 0.7388 0.0
H1037 H 0.76865 0.28286 0.74417 0.0
H1038 H 0.80439 0.17442 0.73795 0.0
H1039 H 0.76427 0.1433 0.68748 0.0
H1040 H 0.6934 0.19257 0.71334 0.0
C1041 C 0.77939 0.25972 0.82615 0.0
C1042 C 0.81133 0.26446 0.84504 0.0
C1043 C 0.83166 0.24649 0.83298 0.0
C1044 C 0.82043 0.22454 0.8029 0.0
C1045 C 0.78883 0.22072 0.78499 0.0
C1046 C 0.76865 0.23787 0.7964 0.0
C1047 C 0.7357 0.22968 0.77301 0.0
C1048 C 0.6972 0.20736 0.79164 0.0
C1049 C 0.74068 0.26686 0.75744 0.0
C1050 C 0.74027 0.20514 0.7465 0.0
C1051 C 0.77104 0.20021 0.75356 0.0
C1052 C 0.78032 0.17831 0.73228 0.0
C1053 C 0.75742 0.16088 0.70338 0.0
C1054 C 0.72544 0.16536 0.69594 0.0
C1055 C 0.71731 0.18811 0.71802 0.0
H1056 H 0.70848 0.22334 0.07821 0.0
H1057 H 0.73078 0.28752 0.98467 0.0
H1058 H 0.66474 0.2762 0.9852 0.0
H1059 H 0.62205 0.1505 0.05218 0.0
H1060 H 0.59959 0.14032 0.09334 0.0
H1061 H 0.65056 0.16202 0.09018 0.0
H1062 H 0.65782 0.21774 0.12835 0.0
H1063 H 0.60654 0.19645 0.13063 0.0
H1064 H 0.63549 0.24494 0.11584 0.0
H1065 H 0.59653 0.25354 0.99236 0.0
H1066 H 0.52807 0.2065 0.99459 0.0
H1067 H 0.54731 0.15021 0.07948 0.0
C1068 C 0.6996 0.23579 0.05837 0.0
C1069 C 0.72472 0.25715 0.03192 0.0
C1070 C 0.71192 0.27151 1.00539 0.0
C1071 C 0.67472 0.26572 1.0058 0.0
C1072 C 0.65063 0.24492 0.03255 0.0
C1073 C 0.66222 0.22916 0.05779 0.0
C1074 C 0.6288 0.2011 0.07923 0.0
C1075 C 0.62502 0.16114 0.07864 0.0
C1076 C 0.63239 0.21596 0.11568 0.0
C1077 C 0.59623 0.20167 0.06075 0.0
C1078 C 0.60983 0.22894 0.03525 0.0
C1079 C 0.5855 0.23258 1.01255 0.0
C1080 C 0.54651 0.20594 1.01428 0.0
C1081 C 0.53256 0.17536 0.03779 0.0
C1082 C 0.5573 0.1743 0.06234 0.0
H1083 H 0.46306 0.70957 1.0072 0.0
H1084 H 0.46159 0.73417 0.11407 0.0
H1085 H 0.41775 0.66519 0.12512 0.0
H1086 H 0.36889 0.63819 0.99818 0.0
H1087 H 0.37577 0.60476 0.97272 0.0
H1088 H 0.40816 0.6555 0.9692 0.0
H1089 H 0.46852 0.65479 0.98486 0.0
H1090 H 0.44085 0.60355 0.98285 0.0
H1091 H 0.46844 0.62657 0.02028 0.0
H1092 H 0.38484 0.59181 0.12508 0.0
H1093 H 0.36338 0.52337 0.1128 0.0
H1094 H 0.38151 0.54995 1.00576 0.0
C1095 C 0.45291 0.70074 0.03286 0.0
C1096 C 0.46558 0.72711 0.05973 0.0
C1097 C 0.45204 0.71426 0.09304 0.0
C1098 C 0.42712 0.6752 0.09954 0.0
C1099 C 0.41596 0.64969 0.0724 0.0
C1100 C 0.42848 0.66224 0.03973 0.0
C1101 C 0.41572 0.62962 1.01521 0.0
C1102 C 0.39053 0.63199 0.9872 0.0
C1103 C 0.45042 0.62858 0.99995 0.0
C1104 C 0.39355 0.59642 0.03899 0.0
C1105 C 0.39452 0.60815 0.07211 0.0
C1106 C 0.38254 0.58214 0.09915 0.0
C1107 C 0.37042 0.54346 0.09212 0.0
C1108 C 0.36989 0.53169 0.05835 0.0
C1109 C 0.3803 0.55825 0.03168 0.0
H1110 H 0.80008 0.34005 0.03803 0.0
H1111 H 0.88779 0.3968 0.11347 0.0
H1112 H 0.85487 0.43045 0.13442 0.0
H1113 H 0.79458 0.40653 1.01016 0.0
H1114 H 0.744 0.38808 1.00462 0.0
H1115 H 0.76223 0.35585 1.00563 0.0
H1116 H 0.7187 0.31807 0.05893 0.0
H1117 H 0.69755 0.34766 0.05182 0.0
H1118 H 0.71555 0.3454 0.09308 0.0
H1119 H 0.82312 0.47035 0.13575 0.0
H1120 H 0.79533 0.51038 0.11825 0.0
H1121 H 0.73118 0.42924 0.03906 0.0
C1122 C 0.80976 0.35596 0.0614 0.0
C1123 C 0.84506 0.36395 0.07544 0.0
C1124 C 0.85982 0.38897 0.10346 0.0
C1125 C 0.84134 0.40839 0.11534 0.0
C1126 C 0.80791 0.40207 0.09912 0.0
C1127 C 0.79145 0.37531 0.07339 0.0
C1128 C 0.76015 0.37901 0.05555 0.0
C1129 C 0.76565 0.38262 1.01674 0.0
C1130 C 0.72063 0.3456 0.06534 0.0
C1131 C 0.76576 0.41542 0.07136 0.0
C1132 C 0.79149 0.42697 0.09798 0.0
C1133 C 0.8023 0.46095 0.11547 0.0
C1134 C 0.78662 0.48359 0.10529 0.0
C1135 C 0.76163 0.47276 0.07715 0.0
C1136 C 0.75056 0.43803 0.06046 0.0
H1137 H 0.46665 0.81749 0.0283 0.0
H1138 H 0.48857 0.87339 0.12567 0.0
H1139 H 0.42024 0.83232 0.14093 0.0
H1140 H 0.39366 0.82488 1.01112 0.0
H1141 H 0.36507 0.78061 0.98862 0.0
H1142 H 0.41591 0.8012 0.9903 0.0
H1143 H 0.40853 0.73913 1.01568 0.0
H1144 H 0.35719 0.71718 1.0144 0.0
H1145 H 0.38081 0.71912 0.05373 0.0
H1146 H 0.34833 0.79662 0.13974 0.0
H1147 H 0.28144 0.77317 0.12166 0.0
H1148 H 0.30775 0.74696 0.02225 0.0
C1149 C 0.45752 0.81879 0.05386 0.0
C1150 C 0.48297 0.84687 0.07662 0.0
C1151 C 0.46974 0.85061 0.1087 0.0
C1152 C 0.43094 0.82747 0.11739 0.0
C1153 C 0.40598 0.80132 0.09344 0.0
C1154 C 0.41902 0.79666 0.06232 0.0
C1155 C 0.38643 0.7739 0.03793 0.0
C1156 C 0.39054 0.79653 1.00512 0.0
C1157 C 0.38304 0.73502 0.03001 0.0
C1158 C 0.35317 0.76897 0.05913 0.0
C1159 C 0.3646 0.78338 0.09155 0.0
C1160 C 0.33904 0.78458 0.11469 0.0
C1161 C 0.30122 0.77139 0.1042 0.0
C1162 C 0.28989 0.75857 0.07057 0.0
C1163 C 0.31593 0.75664 0.04811 0.0
H1164 H 0.48335 0.30152 0.10182 0.0
H1165 H 0.56101 0.26564 0.06314 0.0
H1166 H 0.61536 0.33008 0.07312 0.0
H1167 H 0.52033 0.38465 0.06368 0.0
H1168 H 0.51515 0.41183 0.09747 0.0
H1169 H 0.48443 0.36103 0.09603 0.0
H1170 H 0.50561 0.35551 0.15689 0.0
H1171 H 0.53685 0.40669 0.15826 0.0
H1172 H 0.55571 0.37527 0.16619 0.0
H1173 H 0.65471 0.39891 0.06783 0.0
H1174 H 0.67535 0.46458 0.05119 0.0
H1175 H 0.58018 0.46058 0.10398 0.0
C1176 C 0.51196 0.30695 0.09655 0.0
C1177 C 0.51789 0.27876 0.08111 0.0
C1178 C 0.55567 0.28691 0.07444 0.0
C1179 C 0.58684 0.3234 0.08047 0.0
C1180 C 0.57993 0.35123 0.09415 0.0
C1181 C 0.54348 0.34323 0.1029 0.0
C1182 C 0.5431 0.37933 0.11274 0.0
C1183 C 0.51409 0.3845 0.09117 0.0
C1184 C 0.53484 0.37918 0.15079 0.0
C1185 C 0.58409 0.40927 0.10458 0.0
C1186 C 0.60512 0.3923 0.09471 0.0
C1187 C 0.64005 0.41301 0.07801 0.0
C1188 C 0.65272 0.45116 0.06963 0.0
C1189 C 0.63196 0.46915 0.07952 0.0
C1190 C 0.59807 0.44826 0.09853 0.0
H1191 H 0.24875 0.53199 0.09303 0.0
H1192 H 0.30945 0.58371 1.00001 0.0
H1193 H 0.29628 0.63655 1.00727 0.0
H1194 H 0.17363 0.5391 0.07255 0.0
H1195 H 0.16131 0.54791 0.11423 0.0
H1196 H 0.18782 0.52344 0.10987 0.0
H1197 H 0.24114 0.57396 0.14846 0.0
H1198 H 0.21465 0.59886 0.15269 0.0
H1199 H 0.26336 0.62398 0.13772 0.0
H1200 H 0.26354 0.67154 1.01436 0.0
H1201 H 0.20888 0.68185 1.01636 0.0
H1202 H 0.16383 0.60738 0.10345 0.0
C1203 C 0.26061 0.55545 0.0751 0.0
C1204 C 0.28148 0.55486 0.04662 0.0
C1205 C 0.29484 0.58469 0.02264 0.0
C1206 C 0.28748 0.6148 0.02668 0.0
C1207 C 0.26567 0.61405 0.05441 0.0
C1208 C 0.25199 0.58487 0.0781 0.0
C1209 C 0.22162 0.58536 0.1004 0.0
C1210 C 0.1839 0.5467 0.09912 0.0
C1211 C 0.23607 0.5962 0.13699 0.0
C1212 C 0.21782 0.61703 0.08348 0.0
C1213 C 0.24496 0.63443 0.05816 0.0
C1214 C 0.24335 0.65961 0.03507 0.0
C1215 C 0.21231 0.66569 0.03663 0.0
C1216 C 0.18359 0.64744 0.06153 0.0
C1217 C 0.18691 0.62364 0.08579 0.0
H1218 H 0.83459 0.43935 0.4422 0.0
H1219 H 0.78374 0.46319 0.52832 0.0
H1220 H 0.73007 0.39785 0.52722 0.0
H1221 H 0.73688 0.35494 0.40362 0.0
H1222 H 0.76149 0.32932 0.39325 0.0
H1223 H 0.78607 0.38079 0.39 0.0
H1224 H 0.83925 0.38481 0.42934 0.0
H1225 H 0.81475 0.33387 0.43347 0.0
H1226 H 0.82668 0.3633 0.4709 0.0
H1227 H 0.69825 0.33028 0.53209 0.0
H1228 H 0.68777 0.26515 0.53903 0.0
H1229 H 0.75501 0.27966 0.44904 0.0
C1230 C 0.81035 0.43131 0.45877 0.0
C1231 C 0.81195 0.45687 0.48386 0.0
C1232 C 0.78172 0.44486 0.5074 0.0
C1233 C 0.75114 0.40749 0.50715 0.0
C1234 C 0.75123 0.38211 0.4834 0.0
C1235 C 0.77969 0.39356 0.45903 0.0
C1236 C 0.77819 0.35916 0.44196 0.0
C1237 C 0.76485 0.35586 0.40502 0.0
C1238 C 0.81699 0.36039 0.44412 0.0
C1239 C 0.7479 0.32722 0.46338 0.0
C1240 C 0.73176 0.34098 0.48632 0.0
C1241 C 0.70907 0.31868 0.51319 0.0
C1242 C 0.70347 0.28184 0.51719 0.0
C1243 C 0.71989 0.26746 0.49418 0.0
C1244 C 0.74118 0.28984 0.4663 0.0
H1245 H 0.38033 0.83546 0.4579 0.0
H1246 H 0.36845 0.85316 0.56468 0.0
H1247 H 0.39823 0.81565 0.57995 0.0
H1248 H 0.36662 0.73956 0.46563 0.0
H1249 H 0.40341 0.74691 0.43552 0.0
H1250 H 0.37734 0.77217 0.43085 0.0
H1251 H 0.4389 0.83763 0.43148 0.0
H1252 H 0.46652 0.81392 0.43417 0.0
H1253 H 0.47289 0.84927 0.4654 0.0
H1254 H 0.4346 0.78177 0.58429 0.0
H1255 H 0.47824 0.75624 0.5772 0.0
H1256 H 0.46972 0.76183 0.46774 0.0
C1257 C 0.38339 0.83075 0.48449 0.0
C1258 C 0.37016 0.84578 0.50991 0.0
C1259 C 0.37574 0.84011 0.54448 0.0
C1260 C 0.39332 0.81913 0.55354 0.0
C1261 C 0.40563 0.80435 0.52781 0.0
C1262 C 0.40124 0.81012 0.49398 0.0
C1263 C 0.42012 0.79404 0.47139 0.0
C1264 C 0.39012 0.76119 0.44955 0.0
C1265 C 0.45147 0.8256 0.44933 0.0
C1266 C 0.43699 0.77963 0.49796 0.0
C1267 C 0.42771 0.78537 0.53031 0.0
C1268 C 0.44181 0.77671 0.55912 0.0
C1269 C 0.46672 0.76241 0.55481 0.0
C1270 C 0.47753 0.75731 0.52194 0.0
C1271 C 0.46185 0.76534 0.49318 0.0
H1272 H 0.69481 0.43473 0.51735 0.0
H1273 H 0.72228 0.48526 0.4172 0.0
H1274 H 0.65776 0.43695 0.39718 0.0
H1275 H 0.62884 0.33021 0.48482 0.0
H1276 H 0.59929 0.32078 0.52189 0.0
H1277 H 0.65014 0.35275 0.52462 0.0
H1278 H 0.63764 0.40537 0.54903 0.0
H1279 H 0.58727 0.37337 0.54604 0.0
H1280 H 0.60836 0.41926 0.52521 0.0
H1281 H 0.58703 0.39754 0.39398 0.0
H1282 H 0.51852 0.37033 0.40786 0.0
H1283 H 0.53831 0.33882 0.50717 0.0
C1284 C 0.68754 0.43468 0.49092 0.0
C1285 C 0.713 0.46353 0.46881 0.0
C1286 C 0.7029 0.46312 0.43444 0.0
C1287 C 0.66653 0.43558 0.42283 0.0
C1288 C 0.64148 0.40782 0.44559 0.0
C1289 C 0.65207 0.40657 0.47874 0.0
C1290 C 0.61889 0.37709 0.49938 0.0
C1291 C 0.62464 0.34318 0.50814 0.0
C1292 C 0.61268 0.39487 0.53174 0.0
C1293 C 0.58688 0.36546 0.47399 0.0
C1294 C 0.60052 0.38242 0.44264 0.0
C1295 C 0.57595 0.38247 0.41767 0.0
C1296 C 0.53706 0.36685 0.42561 0.0
C1297 C 0.52338 0.35109 0.45796 0.0
C1298 C 0.5481 0.34865 0.48159 0.0
H1299 H 0.26851 0.71327 0.5334 0.0
H1300 H 0.2738 0.73983 0.42634 0.0
H1301 H 0.24726 0.67146 0.41251 0.0
H1302 H 0.27964 0.62398 0.52962 0.0
H1303 H 0.24504 0.60484 0.56302 0.0
H1304 H 0.27716 0.65579 0.56031 0.0
H1305 H 0.2144 0.66084 0.56172 0.0
H1306 H 0.18461 0.60981 0.56024 0.0
H1307 H 0.18001 0.63889 0.52799 0.0
H1308 H 0.2052 0.59936 0.41139 0.0
H1309 H 0.15529 0.532 0.42407 0.0
H1310 H 0.17973 0.55422 0.53106 0.0
C1311 C 0.26577 0.70503 0.50697 0.0
C1312 C 0.27317 0.73176 0.48098 0.0
C1313 C 0.26827 0.71971 0.4467 0.0
C1314 C 0.25337 0.68094 0.4386 0.0
C1315 C 0.24388 0.65477 0.46504 0.0
C1316 C 0.25046 0.66653 0.49862 0.0
C1317 C 0.23112 0.63307 0.52266 0.0
C1318 C 0.26004 0.62931 0.54525 0.0
C1319 C 0.20076 0.63584 0.54438 0.0
C1320 C 0.21278 0.60074 0.4975 0.0
C1321 C 0.22009 0.61339 0.46432 0.0
C1322 C 0.20043 0.58889 0.43721 0.0
C1323 C 0.1722 0.55085 0.44447 0.0
C1324 C 0.16464 0.53828 0.47841 0.0
C1325 C 0.18607 0.56312 0.50484 0.0
H1326 H 0.53089 0.23757 0.53494 0.0
H1327 H 0.54003 0.26197 0.42714 0.0
H1328 H 0.58891 0.24253 0.42195 0.0
H1329 H 0.63092 0.26681 0.54944 0.0
H1330 H 0.62172 0.22786 0.57768 0.0
H1331 H 0.58989 0.24711 0.57669 0.0
H1332 H 0.53071 0.18354 0.56269 0.0
H1333 H 0.55904 0.1609 0.56713 0.0
H1334 H 0.53227 0.15448 0.52871 0.0
H1335 H 0.62474 0.20673 0.42638 0.0
H1336 H 0.64629 0.16058 0.44116 0.0
H1337 H 0.61723 0.16416 0.54615 0.0
C1338 C 0.54391 0.23982 0.51041 0.0
C1339 C 0.53161 0.25098 0.48147 0.0
C1340 C 0.54899 0.25323 0.44968 0.0
C1341 C 0.57698 0.24255 0.44652 0.0
C1342 C 0.58753 0.23025 0.47545 0.0
C1343 C 0.57172 0.22926 0.50684 0.0
C1344 C 0.58418 0.21083 0.53329 0.0
C1345 C 0.60818 0.23985 0.56089 0.0
C1346 C 0.5495 0.17535 0.54881 0.0
C1347 C 0.60798 0.19979 0.51156 0.0
C1348 C 0.60997 0.21145 0.47826 0.0
C1349 C 0.62474 0.19865 0.45254 0.0
C1350 C 0.63678 0.17248 0.46099 0.0
C1351 C 0.63422 0.16011 0.49482 0.0
C1352 C 0.62063 0.17461 0.52033 0.0
H1353 H 0.43643 0.66381 0.52849 0.0
H1354 H 0.4896 0.6347 0.44788 0.0
H1355 H 0.43065 0.60926 0.41401 0.0
H1356 H 0.36136 0.59241 0.535 0.0
H1357 H 0.32622 0.60708 0.53946 0.0
H1358 H 0.37492 0.63985 0.54984 0.0
H1359 H 0.37834 0.68992 0.5083 0.0
H1360 H 0.32933 0.65968 0.49537 0.0
H1361 H 0.36656 0.67801 0.46424 0.0
H1362 H 0.36414 0.56425 0.4028 0.0
H1363 H 0.29759 0.51254 0.41023 0.0
H1364 H 0.28427 0.57303 0.49494 0.0
C1365 C 0.43616 0.65468 0.50262 0.0
C1366 C 0.46705 0.65154 0.49024 0.0
C1367 C 0.46618 0.63809 0.45712 0.0
C1368 C 0.43275 0.62357 0.43779 0.0
C1369 C 0.40108 0.62373 0.45184 0.0
C1370 C 0.40307 0.6407 0.48292 0.0
C1371 C 0.36378 0.63147 0.49498 0.0
C1372 C 0.35615 0.61682 0.53193 0.0
C1373 C 0.35919 0.66681 0.49057 0.0
C1374 C 0.33913 0.60062 0.46975 0.0
C1375 C 0.36117 0.59804 0.44403 0.0
C1376 C 0.34631 0.56705 0.42176 0.0
C1377 C 0.30867 0.53749 0.42648 0.0
C1378 C 0.28623 0.53919 0.45314 0.0
C1379 C 0.30095 0.57186 0.47396 0.0
H1380 H 0.42861 0.02254 0.98378 0.0
H1381 H 0.53472 0.1137 0.94367 0.0
H1382 H 0.55665 0.06821 0.93201 0.0
H1383 H 0.4624 0.9833 0.02956 0.0
H1384 H 0.42841 0.93327 0.0233 0.0
H1385 H 0.41424 0.96813 1.01585 0.0
H1386 H 0.39404 0.94383 0.95471 0.0
H1387 H 0.40732 0.90786 0.96199 0.0
H1388 H 0.42733 0.94021 0.9266 0.0
H1389 H 0.57686 0.02067 0.94659 0.0
H1390 H 0.58742 0.97302 0.97706 0.0
H1391 H 0.46678 0.90881 1.00113 0.0
C1392 C 0.45476 0.03214 0.96957 0.0
C1393 C 0.47918 0.07154 0.96356 0.0
C1394 C 0.51465 0.08352 0.94715 0.0
C1395 C 0.52775 0.05778 0.94093 0.0
C1396 C 0.50466 0.01967 0.95035 0.0
C1397 C 0.46803 0.00644 0.96294 0.0
C1398 C 0.4513 0.96586 0.97607 0.0
C1399 C 0.43842 0.96253 1.01338 0.0
C1400 C 0.41804 0.93778 0.95347 0.0
C1401 C 0.48558 0.96013 0.97235 0.0
C1402 C 0.516 0.9911 0.95695 0.0
C1403 C 0.55272 0.99532 0.95707 0.0
C1404 C 0.55862 0.96795 0.97424 0.0
C1405 C 0.52789 0.93676 0.99082 0.0
C1406 C 0.49077 0.93206 0.98809 0.0
H1407 H 0.44752 0.53998 0.99047 0.0
H1408 H 0.39263 0.4178 0.97519 0.0
H1409 H 0.45359 0.42535 0.95395 0.0
H1410 H 0.53183 0.57437 0.92693 0.0
H1411 H 0.56344 0.60811 0.95804 0.0
H1412 H 0.51423 0.59676 0.95572 0.0
H1413 H 0.50563 0.57856 1.01921 0.0
H1414 H 0.55433 0.58966 0.02159 0.0
H1415 H 0.51662 0.54284 0.03404 0.0
H1416 H 0.52208 0.44317 0.94936 0.0
H1417 H 0.58631 0.46392 0.97139 0.0
H1418 H 0.59824 0.57239 1.00085 0.0
C1419 C 0.44787 0.51505 0.98072 0.0
C1420 C 0.41484 0.47833 0.98344 0.0
C1421 C 0.41671 0.44626 0.97182 0.0
C1422 C 0.45166 0.45047 0.96007 0.0
C1423 C 0.48459 0.48683 0.96071 0.0
C1424 C 0.48284 0.51866 0.97102 0.0
C1425 C 0.52242 0.55211 0.97891 0.0
C1426 C 0.53364 0.58476 0.95336 0.0
C1427 C 0.52485 0.56654 1.0156 0.0
C1428 C 0.54663 0.5334 0.974 0.0
C1429 C 0.52464 0.49657 0.96145 0.0
C1430 C 0.53964 0.47223 0.95829 0.0
C1431 C 0.57667 0.48458 0.97047 0.0
C1432 C 0.59816 0.52052 0.98669 0.0
C1433 C 0.58361 0.54588 0.98681 0.0
H1434 H 0.97874 0.40106 0.99548 0.0
H1435 H 0.88537 0.41809 0.96604 0.0
H1436 H 0.9308 0.48505 0.95184 0.0
H1437 H 0.0252 0.47549 0.03889 0.0
H1438 H 0.07377 0.4896 0.0276 0.0
H1439 H 0.03699 0.44076 0.02286 0.0
H1440 H 0.05305 0.44154 0.95953 0.0
H1441 H 0.09108 0.49043 0.96396 0.0
H1442 H 0.05477 0.4781 0.93206 0.0
H1443 H 0.9823 0.55322 0.9624 0.0
H1444 H 0.03622 0.61226 0.98662 0.0
H1445 H 0.09823 0.55175 1.0027 0.0
C1446 C 0.96825 0.41783 0.98291 0.0
C1447 C 0.92856 0.4038 0.98076 0.0
C1448 C 0.91566 0.4276 0.96656 0.0
C1449 C 0.9414 0.46613 0.95896 0.0
C1450 C 0.98026 0.48031 0.96465 0.0
C1451 C 0.99386 0.45635 0.97484 0.0
C1452 C 0.0359 0.47933 0.98398 0.0
C1453 C 0.04332 0.4708 0.02048 0.0
C1454 C 0.06013 0.47192 0.95833 0.0
C1455 C 0.04267 0.51973 0.98062 0.0
C1456 C 0.01057 0.52002 0.96901 0.0
C1457 C 0.00828 0.5536 0.9699 0.0
C1458 C 0.03915 0.5873 0.98354 0.0
C1459 C 0.07186 0.58715 0.99602 0.0
C1460 C 0.07387 0.55317 0.99301 0.0
H1461 H 0.89521 0.44318 0.54505 0.0
H1462 H 0.95263 0.56421 0.56724 0.0
H1463 H 0.00736 0.56041 0.59047 0.0
H1464 H 0.94431 0.41107 0.61121 0.0
H1465 H 0.94768 0.38028 0.57994 0.0
H1466 H 0.90729 0.38791 0.57975 0.0
H1467 H 0.92123 0.40951 0.51711 0.0
H1468 H 0.96128 0.402 0.51723 0.0
H1469 H 0.96795 0.44817 0.50561 0.0
H1470 H 0.06109 0.54785 0.59676 0.0
H1471 H 0.10966 0.53329 0.57604 0.0
H1472 H 0.02115 0.42246 0.54174 0.0
C1473 C 0.91859 0.46864 0.55625 0.0
C1474 C 0.91909 0.50399 0.5552 0.0
C1475 C 0.95061 0.53666 0.56922 0.0
C1476 C 0.98205 0.53459 0.58224 0.0
C1477 C 0.98167 0.49969 0.58071 0.0
C1478 C 0.95055 0.46721 0.56783 0.0
C1479 C 0.96028 0.4361 0.56031 0.0
C1480 C 0.93861 0.40182 0.58425 0.0
C1481 C 0.95226 0.42329 0.52287 0.0
C1482 C 0.00267 0.4572 0.56819 0.0
C1483 C 0.01393 0.49296 0.58187 0.0
C1484 C 0.05239 0.51958 0.58707 0.0
C1485 C 0.07997 0.51078 0.57561 0.0
C1486 C 0.06915 0.47605 0.55837 0.0
C1487 C 0.03011 0.44813 0.55652 0.0
H1488 H 0.58406 0.03875 0.58845 0.0
H1489 H 0.6085 0.02521 0.48422 0.0
H1490 H 0.54103 0.97659 0.47567 0.0
H1491 H 0.50515 0.92885 0.59806 0.0
H1492 H 0.47903 0.94207 0.62688 0.0
H1493 H 0.5306 0.96857 0.62665 0.0
H1494 H 0.52804 0.03068 0.61758 0.0
H1495 H 0.47671 0.00456 0.61586 0.0
H1496 H 0.50367 0.03493 0.58094 0.0
H1497 H 0.47063 0.95722 0.47329 0.0
H1498 H 0.40271 0.93591 0.48314 0.0
H1499 H 0.4217 0.94198 0.59152 0.0
C1500 C 0.57607 0.02336 0.56469 0.0
C1501 C 0.60155 0.03645 0.53678 0.0
C1502 C 0.58963 0.01557 0.50604 0.0
C1503 C 0.551 0.98846 0.50068 0.0
C1504 C 0.52543 0.98001 0.52739 0.0
C1505 C 0.53789 0.99431 0.55961 0.0
C1506 C 0.50412 0.98083 0.58369 0.0
C1507 C 0.50476 0.95344 0.6104 0.0
C1508 C 0.50312 0.01479 0.60047 0.0
C1509 C 0.47093 0.95979 0.55927 0.0
C1510 C 0.4839 0.96073 0.52671 0.0
C1511 C 0.45956 0.95226 0.49891 0.0
C1512 C 0.42067 0.93954 0.5048 0.0
C1513 C 0.40553 0.93163 0.5383 0.0
C1514 C 0.43167 0.94404 0.56568 0.0
H1515 H 0.51624 0.56973 0.58945 0.0
H1516 H 0.52948 0.60402 0.48375 0.0
H1517 H 0.50114 0.5369 0.46632 0.0
H1518 H 0.54855 0.49638 0.56797 0.0
H1519 H 0.51988 0.46499 0.60172 0.0
H1520 H 0.54058 0.51599 0.60614 0.0
H1521 H 0.47288 0.50524 0.61862 0.0
H1522 H 0.45181 0.45441 0.61232 0.0
H1523 H 0.43544 0.48108 0.58768 0.0
H1524 H 0.45373 0.4665 0.46218 0.0
H1525 H 0.43186 0.3978 0.46353 0.0
H1526 H 0.47055 0.40849 0.56764 0.0
C1527 C 0.51524 0.56332 0.56269 0.0
C1528 C 0.52412 0.59209 0.53793 0.0
C1529 C 0.52271 0.58251 0.50315 0.0
C1530 C 0.50564 0.54432 0.49295 0.0
C1531 C 0.4934 0.5163 0.51786 0.0
C1532 C 0.50163 0.52534 0.55171 0.0
C1533 C 0.49117 0.48927 0.57211 0.0
C1534 C 0.52718 0.4918 0.58791 0.0
C1535 C 0.46104 0.48211 0.5993 0.0
C1536 C 0.47445 0.45885 0.54439 0.0
C1537 C 0.47377 0.47528 0.51394 0.0
C1538 C 0.45584 0.4534 0.48541 0.0
C1539 C 0.4425 0.41411 0.48678 0.0
C1540 C 0.45046 0.39783 0.51523 0.0
C1541 C 0.46427 0.41992 0.54533 0.0
loop_
_geom_bond_atom_site_label_1
_geom_bond_atom_site_label_2
_geom_bond_distance
_geom_bond_site_symmetry_2
_ccdc_geom_bond_type
Zn0 N4 2.020 . S
Zn0 O8 2.019 . S
Zn0 N10 2.119 . S
Zn0 O18 1.975 . S
C1 N2 1.343 . S
C1 N5 1.336 . S
N2 C1 1.343 . S
N2 C3 1.325 1_554 S
C3 N2 1.325 1_556 S
C3 N4 1.336 . S
N4 Zn0 2.020 . S
N4 C3 1.336 . S
N4 N5 1.354 1_556 S
N5 C1 1.336 . S
N5 N4 1.354 1_554 S
N5 Zn9 2.020 . S
C6 O7 1.244 1_554 S
C6 O30 1.257 . S
O7 C6 1.244 1_556 S
O8 Zn0 2.019 . S
O8 C28 1.257 . S
Zn9 N5 2.020 . S
Zn9 O16 1.975 . S
Zn9 N25 2.119 . S
Zn9 O30 2.019 . S
N10 Zn0 2.119 . S
N10 C12 1.334 . S
N10 C13 1.328 . S
C11 C12 1.391 . S
C11 N14 1.329 . S
C11 H32 0.930 . S
C12 N10 1.334 . S
C12 C11 1.391 . S
C12 H19 0.930 . S
C13 N10 1.328 . S
C13 C15 1.392 . S
C13 H20 0.930 . S
N14 C11 1.329 . S
N14 C15 1.331 . S
C15 C13 1.392 . S
C15 N14 1.331 . S
O16 Zn9 1.975 . S
O16 C17 1.251 1_554 S
C17 O16 1.251 1_556 S
C17 O18 1.253 . S
O18 Zn0 1.975 . S
O18 C17 1.253 . S
H19 C12 0.930 . S
H20 C13 0.930 . S
C21 C22 1.392 . S
C21 N25 1.328 . S
C21 H27 0.930 . S
C22 C21 1.392 . S
C22 N26 1.331 . S
C23 C24 1.391 . S
C23 N26 1.329 . S
C23 H33 0.930 . S
C24 C23 1.391 . S
C24 N25 1.334 . S
C24 H31 0.930 . S
N25 Zn9 2.119 . S
N25 C21 1.328 . S
N25 C24 1.334 . S
N26 C22 1.331 . S
N26 C23 1.329 . S
H27 C21 0.930 . S
C28 O8 1.257 . S
C28 O29 1.244 1_556 S
O29 C28 1.244 1_554 S
O30 C6 1.257 . S
O30 Zn9 2.019 . S
H31 C24 0.930 . S
H32 C11 0.930 . S
H33 C23 0.930 . S
Zn34 N38 2.020 . S
Zn34 O42 2.019 . S
Zn34 N44 2.119 . S
Zn34 O52 1.975 . S
C35 N36 1.325 1_556 S
C35 N39 1.336 . S
N36 C35 1.325 1_554 S
N36 C37 1.343 . S
C37 N36 1.343 . S
C37 N38 1.336 . S
N38 Zn34 2.020 . S
N38 C37 1.336 . S
N38 N39 1.354 1_554 S
N39 C35 1.336 . S
N39 N38 1.354 1_556 S
N39 Zn43 2.020 . S
C40 O41 1.244 1_556 S
C40 O64 1.257 . S
O41 C40 1.244 1_554 S
O42 Zn34 2.019 . S
O42 C62 1.257 . S
Zn43 N39 2.020 . S
Zn43 O50 1.975 . S
Zn43 N59 2.119 . S
Zn43 O64 2.019 . S
N44 Zn34 2.119 . S
N44 C46 1.334 . S
N44 C47 1.328 . S
C45 C46 1.391 . S
C45 N48 1.329 . S
C45 H66 0.930 . S
C46 N44 1.334 . S
C46 C45 1.391 . S
C46 H53 0.930 . S
C47 N44 1.328 . S
C47 C49 1.392 . S
C47 H54 0.930 . S
N48 C45 1.329 . S
N48 C49 1.331 . S
C49 C47 1.392 . S
C49 N48 1.331 . S
O50 Zn43 1.975 . S
O50 C51 1.253 . S
C51 O50 1.253 . S
C51 O52 1.251 1_556 S
O52 Zn34 1.975 . S
O52 C51 1.251 1_554 S
H53 C46 0.930 . S
H54 C47 0.930 . S
C55 C56 1.392 . S
C55 N59 1.328 . S
C55 H61 0.930 . S
C56 C55 1.392 . S
C56 N60 1.331 . S
C57 C58 1.391 . S
C57 N60 1.329 . S
C57 H67 0.930 . S
C58 C57 1.391 . S
C58 N59 1.334 . S
C58 H65 0.930 . S
N59 Zn43 2.119 . S
N59 C55 1.328 . S
N59 C58 1.334 . S
N60 C56 1.331 . S
N60 C57 1.329 . S
H61 C55 0.930 . S
C62 O42 1.257 . S
C62 O63 1.244 1_554 S
O63 C62 1.244 1_556 S
O64 C40 1.257 . S
O64 Zn43 2.019 . S
H65 C58 0.930 . S
H66 C45 0.930 . S
H67 C57 0.930 . S
Zn68 N72 2.020 . S
Zn68 O76 2.019 . S
Zn68 N78 2.119 . S
Zn68 O86 1.975 . S
C69 N70 1.343 . S
C69 N73 1.336 . S
N70 C69 1.343 . S
N70 C71 1.325 1_554 S
C71 N70 1.325 1_556 S
C71 N72 1.336 . S
N72 Zn68 2.020 . S
N72 C71 1.336 . S
N72 N73 1.354 1_556 S
N73 C69 1.336 . S
N73 N72 1.354 1_554 S
N73 Zn77 2.020 . S
C74 O75 1.244 1_554 S
C74 O98 1.257 . S
O75 C74 1.244 1_556 S
O76 Zn68 2.019 . S
O76 C96 1.257 . S
Zn77 N73 2.020 . S
Zn77 O84 1.975 . S
Zn77 N93 2.119 . S
Zn77 O98 2.019 . S
N78 Zn68 2.119 . S
N78 C80 1.334 . S
N78 C81 1.328 . S
C79 C80 1.391 . S
C79 N82 1.329 . S
C79 H100 0.930 . S
C80 N78 1.334 . S
C80 C79 1.391 . S
C80 H87 0.930 . S
C81 N78 1.328 . S
C81 C83 1.392 . S
C81 H88 0.930 . S
N82 C79 1.329 . S
N82 C83 1.331 . S
C83 C81 1.392 . S
C83 N82 1.331 . S
O84 Zn77 1.975 . S
O84 C85 1.251 1_554 S
C85 O84 1.251 1_556 S
C85 O86 1.253 . S
O86 Zn68 1.975 . S
O86 C85 1.253 . S
H87 C80 0.930 . S
H88 C81 0.930 . S
C89 C90 1.392 . S
C89 N93 1.328 . S
C89 H95 0.930 . S
C90 C89 1.392 . S
C90 N94 1.331 . S
C91 C92 1.391 . S
C91 N94 1.329 . S
C91 H101 0.930 . S
C92 C91 1.391 . S
C92 N93 1.334 . S
C92 H99 0.930 . S
N93 Zn77 2.119 . S
N93 C89 1.328 . S
N93 C92 1.334 . S
N94 C90 1.331 . S
N94 C91 1.329 . S
H95 C89 0.930 . S
C96 O76 1.257 . S
C96 O97 1.244 1_556 S
O97 C96 1.244 1_554 S
O98 C74 1.257 . S
O98 Zn77 2.019 . S
H99 C92 0.930 . S
H100 C79 0.930 . S
H101 C91 0.930 . S
Zn102 N106 2.020 . S
Zn102 O110 2.019 . S
Zn102 N112 2.119 . S
Zn102 O120 1.975 . S
C103 N104 1.325 1_556 S
C103 N107 1.336 . S
N104 C103 1.325 1_554 S
N104 C105 1.343 . S
C105 N104 1.343 . S
C105 N106 1.336 . S
N106 Zn102 2.020 . S
N106 C105 1.336 . S
N106 N107 1.354 1_554 S
N107 C103 1.336 . S
N107 N106 1.354 1_556 S
N107 Zn111 2.020 . S
C108 O109 1.244 1_556 S
C108 O132 1.257 . S
O109 C108 1.244 1_554 S
O110 Zn102 2.019 . S
O110 C130 1.257 . S
Zn111 N107 2.020 . S
Zn111 O118 1.975 . S
Zn111 N127 2.119 . S
Zn111 O132 2.019 . S
N112 Zn102 2.119 . S
N112 C114 1.334 . S
N112 C115 1.328 . S
C113 C114 1.391 . S
C113 N116 1.329 . S
C113 H134 0.930 . S
C114 N112 1.334 . S
C114 C113 1.391 . S
C114 H121 0.930 . S
C115 N112 1.328 . S
C115 C117 1.392 . S
C115 H122 0.930 . S
N116 C113 1.329 . S
N116 C117 1.331 . S
C117 C115 1.392 . S
C117 N116 1.331 . S
O118 Zn111 1.975 . S
O118 C119 1.253 . S
C119 O118 1.253 . S
C119 O120 1.251 1_556 S
O120 Zn102 1.975 . S
O120 C119 1.251 1_554 S
H121 C114 0.930 . S
H122 C115 0.930 . S
C123 C124 1.392 . S
C123 N127 1.328 . S
C123 H129 0.930 . S
C124 C123 1.392 . S
C124 N128 1.331 . S
C125 C126 1.391 . S
C125 N128 1.329 . S
C125 H135 0.930 . S
C126 C125 1.391 . S
C126 N127 1.334 . S
C126 H133 0.930 . S
N127 Zn111 2.119 . S
N127 C123 1.328 . S
N127 C126 1.334 . S
N128 C124 1.331 . S
N128 C125 1.329 . S
H129 C123 0.930 . S
C130 O110 1.257 . S
C130 O131 1.244 1_554 S
O131 C130 1.244 1_556 S
O132 C108 1.257 . S
O132 Zn111 2.019 . S
H133 C126 0.930 . S
H134 C113 0.930 . S
H135 C125 0.930 . S
Zn136 N140 2.020 . S
Zn136 O144 2.019 . S
Zn136 N146 2.119 . S
Zn136 O154 1.975 . S
C137 N138 1.343 . S
C137 N141 1.336 . S
N138 C137 1.343 . S
N138 C139 1.325 1_554 S
C139 N138 1.325 1_556 S
C139 N140 1.336 . S
N140 Zn136 2.020 . S
N140 C139 1.336 . S
N140 N141 1.354 1_556 S
N141 C137 1.336 . S
N141 N140 1.354 1_554 S
N141 Zn145 2.020 . S
C142 O143 1.244 1_554 S
C142 O166 1.257 . S
O143 C142 1.244 1_556 S
O144 Zn136 2.019 . S
O144 C164 1.257 . S
Zn145 N141 2.020 . S
Zn145 O152 1.975 . S
Zn145 N161 2.119 . S
Zn145 O166 2.019 . S
N146 Zn136 2.119 . S
N146 C148 1.334 . S
N146 C149 1.328 . S
C147 C148 1.391 . S
C147 N150 1.329 . S
C147 H168 0.930 . S
C148 N146 1.334 . S
C148 C147 1.391 . S
C148 H155 0.930 . S
C149 N146 1.328 . S
C149 C151 1.392 . S
C149 H156 0.930 . S
N150 C147 1.329 . S
N150 C151 1.331 . S
C151 C149 1.392 . S
C151 N150 1.331 . S
O152 Zn145 1.975 . S
O152 C153 1.251 1_554 S
C153 O152 1.251 1_556 S
C153 O154 1.253 . S
O154 Zn136 1.975 . S
O154 C153 1.253 . S
H155 C148 0.930 . S
H156 C149 0.930 . S
C157 C158 1.392 . S
C157 N161 1.328 . S
C157 H163 0.930 . S
C158 C157 1.392 . S
C158 N162 1.331 . S
C159 C160 1.391 . S
C159 N162 1.329 . S
C159 H169 0.930 . S
C160 C159 1.391 . S
C160 N161 1.334 . S
C160 H167 0.930 . S
N161 Zn145 2.119 . S
N161 C157 1.328 . S
N161 C160 1.334 . S
N162 C158 1.331 . S
N162 C159 1.329 . S
H163 C157 0.930 . S
C164 O144 1.257 . S
C164 O165 1.244 1_556 S
O165 C164 1.244 1_554 S
O166 C142 1.257 . S
O166 Zn145 2.019 . S
H167 C160 0.930 . S
H168 C147 0.930 . S
H169 C159 0.930 . S
Zn170 N174 2.020 . S
Zn170 O178 2.019 . S
Zn170 N180 2.119 . S
Zn170 O188 1.975 . S
C171 N172 1.325 1_556 S
C171 N175 1.336 . S
N172 C171 1.325 1_554 S
N172 C173 1.343 . S
C173 N172 1.343 . S
C173 N174 1.336 . S
N174 Zn170 2.020 . S
N174 C173 1.336 . S
N174 N175 1.354 1_554 S
N175 C171 1.336 . S
N175 N174 1.354 1_556 S
N175 Zn179 2.020 . S
C176 O177 1.244 1_556 S
C176 O200 1.257 . S
O177 C176 1.244 1_554 S
O178 Zn170 2.019 . S
O178 C198 1.257 . S
Zn179 N175 2.020 . S
Zn179 O186 1.975 . S
Zn179 N195 2.119 . S
Zn179 O200 2.019 . S
N180 Zn170 2.119 . S
N180 C182 1.334 . S
N180 C183 1.328 . S
C181 C182 1.391 . S
C181 N184 1.329 . S
C181 H202 0.930 . S
C182 N180 1.334 . S
C182 C181 1.391 . S
C182 H189 0.930 . S
C183 N180 1.328 . S
C183 C185 1.392 . S
C183 H190 0.930 . S
N184 C181 1.329 . S
N184 C185 1.331 . S
C185 C183 1.392 . S
C185 N184 1.331 . S
O186 Zn179 1.975 . S
O186 C187 1.253 . S
C187 O186 1.253 . S
C187 O188 1.251 1_556 S
O188 Zn170 1.975 . S
O188 C187 1.251 1_554 S
H189 C182 0.930 . S
H190 C183 0.930 . S
C191 C192 1.392 . S
C191 N195 1.328 . S
C191 H197 0.930 . S
C192 C191 1.392 . S
C192 N196 1.331 . S
C193 C194 1.391 . S
C193 N196 1.329 . S
C193 H203 0.930 . S
C194 C193 1.391 . S
C194 N195 1.334 . S
C194 H201 0.930 . S
N195 Zn179 2.119 . S
N195 C191 1.328 . S
N195 C194 1.334 . S
N196 C192 1.331 . S
N196 C193 1.329 . S
H197 C191 0.930 . S
C198 O178 1.257 . S
C198 O199 1.244 1_554 S
O199 C198 1.244 1_556 S
O200 C176 1.257 . S
O200 Zn179 2.019 . S
H201 C194 0.930 . S
H202 C181 0.930 . S
H203 C193 0.930 . S
Zn204 N208 2.020 . S
Zn204 O212 2.019 . S
Zn204 N214 2.119 . S
Zn204 O222 1.975 . S
C205 N206 1.334 . S
C205 N209 1.336 . S
N206 C205 1.334 . S
N206 C207 1.334 . S
C207 N206 1.334 . S
C207 N208 1.336 . S
N208 Zn204 2.020 . S
N208 C207 1.336 . S
N208 N209 1.354 . S
N209 C205 1.336 . S
N209 N208 1.354 . S
N209 Zn213 2.020 . S
C210 O211 1.244 . S
C210 O234 1.257 . S
O211 C210 1.244 . S
O212 Zn204 2.019 . S
O212 C232 1.257 . S
Zn213 N209 2.020 . S
Zn213 O220 1.975 . S
Zn213 N229 2.119 . S
Zn213 O234 2.019 . S
N214 Zn204 2.119 . S
N214 C216 1.334 . S
N214 C217 1.328 . S
C215 C216 1.391 . S
C215 N218 1.329 . S
C215 H236 0.930 . S
C216 N214 1.334 . S
C216 C215 1.391 . S
C216 H223 0.930 . S
C217 N214 1.328 . S
C217 C219 1.392 . S
C217 H224 0.930 . S
N218 C215 1.329 . S
N218 C219 1.331 . S
C219 C217 1.392 . S
C219 N218 1.331 . S
O220 Zn213 1.975 . S
O220 C221 1.252 . S
C221 O220 1.252 . S
C221 O222 1.252 . S
O222 Zn204 1.975 . S
O222 C221 1.252 . S
H223 C216 0.930 . S
H224 C217 0.930 . S
C225 C226 1.392 . S
C225 N229 1.328 . S
C225 H231 0.930 . S
C226 C225 1.392 . S
C226 N230 1.331 . S
C227 C228 1.391 . S
C227 N230 1.329 . S
C227 H237 0.930 . S
C228 C227 1.391 . S
C228 N229 1.334 . S
C228 H235 0.930 . S
N229 Zn213 2.119 . S
N229 C225 1.328 . S
N229 C228 1.334 . S
N230 C226 1.331 . S
N230 C227 1.329 . S
H231 C225 0.930 . S
C232 O212 1.257 . S
C232 O233 1.244 . S
O233 C232 1.244 . S
O234 C210 1.257 . S
O234 Zn213 2.019 . S
H235 C228 0.930 . S
H236 C215 0.930 . S
H237 C227 0.930 . S
Zn238 N242 2.020 . S
Zn238 O246 2.019 . S
Zn238 N248 2.119 . S
Zn238 O256 1.975 . S
C239 N240 1.334 . S
C239 N243 1.336 . S
N240 C239 1.334 . S
N240 C241 1.334 . S
C241 N240 1.334 . S
C241 N242 1.336 . S
N242 Zn238 2.020 . S
N242 C241 1.336 . S
N242 N243 1.354 . S
N243 C239 1.336 . S
N243 N242 1.354 . S
N243 Zn247 2.020 . S
C244 O245 1.244 . S
C244 O268 1.257 . S
O245 C244 1.244 . S
O246 Zn238 2.019 . S
O246 C266 1.257 . S
Zn247 N243 2.020 . S
Zn247 O254 1.975 . S
Zn247 N263 2.119 . S
Zn247 O268 2.019 . S
N248 Zn238 2.119 . S
N248 C250 1.334 . S
N248 C251 1.328 . S
C249 C250 1.391 . S
C249 N252 1.329 . S
C249 H270 0.930 . S
C250 N248 1.334 . S
C250 C249 1.391 . S
C250 H257 0.930 . S
C251 N248 1.328 . S
C251 C253 1.392 . S
C251 H258 0.930 . S
N252 C249 1.329 . S
N252 C253 1.331 . S
C253 C251 1.392 . S
C253 N252 1.331 . S
O254 Zn247 1.975 . S
O254 C255 1.252 . S
C255 O254 1.252 . S
C255 O256 1.252 . S
O256 Zn238 1.975 . S
O256 C255 1.252 . S
H257 C250 0.930 . S
H258 C251 0.930 . S
C259 C260 1.392 . S
C259 N263 1.328 . S
C259 H265 0.930 . S
C260 C259 1.392 . S
C260 N264 1.331 . S
C261 C262 1.391 . S
C261 N264 1.329 . S
C261 H271 0.930 . S
C262 C261 1.391 . S
C262 N263 1.334 . S
C262 H269 0.930 . S
N263 Zn247 2.119 . S
N263 C259 1.328 . S
N263 C262 1.334 . S
N264 C260 1.331 . S
N264 C261 1.329 . S
H265 C259 0.930 . S
C266 O246 1.257 . S
C266 O267 1.244 . S
O267 C266 1.244 . S
O268 C244 1.257 . S
O268 Zn247 2.019 . S
H269 C262 0.930 . S
H270 C249 0.930 . S
H271 C261 0.930 . S
Zn272 N276 2.020 . S
Zn272 O280 2.019 . S
Zn272 N282 2.119 . S
Zn272 O290 1.975 . S
C273 N274 1.334 . S
C273 N277 1.336 . S
N274 C273 1.334 . S
N274 C275 1.334 . S
C275 N274 1.334 . S
C275 N276 1.336 . S
N276 Zn272 2.020 . S
N276 C275 1.336 . S
N276 N277 1.354 . S
N277 C273 1.336 . S
N277 N276 1.354 . S
N277 Zn281 2.020 . S
C278 O279 1.244 . S
C278 O302 1.257 . S
O279 C278 1.244 . S
O280 Zn272 2.019 . S
O280 C300 1.257 . S
Zn281 N277 2.020 . S
Zn281 O288 1.975 . S
Zn281 N297 2.119 . S
Zn281 O302 2.019 . S
N282 Zn272 2.119 . S
N282 C284 1.334 . S
N282 C285 1.328 . S
C283 C284 1.391 . S
C283 N286 1.329 . S
C283 H304 0.930 . S
C284 N282 1.334 . S
C284 C283 1.391 . S
C284 H291 0.930 . S
C285 N282 1.328 . S
C285 C287 1.392 . S
C285 H292 0.930 . S
N286 C283 1.329 . S
N286 C287 1.331 . S
C287 C285 1.392 . S
C287 N286 1.331 . S
O288 Zn281 1.975 . S
O288 C289 1.252 . S
C289 O288 1.252 . S
C289 O290 1.252 . S
O290 Zn272 1.975 . S
O290 C289 1.252 . S
H291 C284 0.930 . S
H292 C285 0.930 . S
C293 C294 1.392 . S
C293 N297 1.328 . S
C293 H299 0.930 . S
C294 C293 1.392 . S
C294 N298 1.331 . S
C295 C296 1.391 . S
C295 N298 1.329 . S
C295 H305 0.930 . S
C296 C295 1.391 . S
C296 N297 1.334 . S
C296 H303 0.930 . S
N297 Zn281 2.119 . S
N297 C293 1.328 . S
N297 C296 1.334 . S
N298 C294 1.331 . S
N298 C295 1.329 . S
H299 C293 0.930 . S
C300 O280 1.257 . S
C300 O301 1.244 . S
O301 C300 1.244 . S
O302 C278 1.257 . S
O302 Zn281 2.019 . S
H303 C296 0.930 . S
H304 C283 0.930 . S
H305 C295 0.930 . S
Zn306 N310 2.020 . S
Zn306 O314 2.019 . S
Zn306 N316 2.119 . S
Zn306 O324 1.975 . S
C307 N308 1.334 . S
C307 N311 1.336 . S
N308 C307 1.334 . S
N308 C309 1.334 . S
C309 N308 1.334 . S
C309 N310 1.336 . S
N310 Zn306 2.020 . S
N310 C309 1.336 . S
N310 N311 1.354 . S
N311 C307 1.336 . S
N311 N310 1.354 . S
N311 Zn315 2.020 . S
C312 O313 1.244 . S
C312 O336 1.257 . S
O313 C312 1.244 . S
O314 Zn306 2.019 . S
O314 C334 1.257 . S
Zn315 N311 2.020 . S
Zn315 O322 1.975 . S
Zn315 N331 2.119 . S
Zn315 O336 2.019 . S
N316 Zn306 2.119 . S
N316 C318 1.334 . S
N316 C319 1.328 . S
C317 C318 1.391 . S
C317 N320 1.329 . S
C317 H338 0.930 . S
C318 N316 1.334 . S
C318 C317 1.391 . S
C318 H325 0.930 . S
C319 N316 1.328 . S
C319 C321 1.392 . S
C319 H326 0.930 . S
N320 C317 1.329 . S
N320 C321 1.331 . S
C321 C319 1.392 . S
C321 N320 1.331 . S
O322 Zn315 1.975 . S
O322 C323 1.252 . S
C323 O322 1.252 . S
C323 O324 1.252 . S
O324 Zn306 1.975 . S
O324 C323 1.252 . S
H325 C318 0.930 . S
H326 C319 0.930 . S
C327 C328 1.392 . S
C327 N331 1.328 . S
C327 H333 0.930 . S
C328 C327 1.392 . S
C328 N332 1.331 . S
C329 C330 1.391 . S
C329 N332 1.329 . S
C329 H339 0.930 . S
C330 C329 1.391 . S
C330 N331 1.334 . S
C330 H337 0.930 . S
N331 Zn315 2.119 . S
N331 C327 1.328 . S
N331 C330 1.334 . S
N332 C328 1.331 . S
N332 C329 1.329 . S
H333 C327 0.930 . S
C334 O314 1.257 . S
C334 O335 1.244 . S
O335 C334 1.244 . S
O336 C312 1.257 . S
O336 Zn315 2.019 . S
H337 C330 0.930 . S
H338 C317 0.930 . S
H339 C329 0.930 . S
Zn340 N344 2.020 . S
Zn340 O348 2.019 . S
Zn340 N350 2.119 . S
Zn340 O358 1.975 . S
C341 N342 1.334 . S
C341 N345 1.336 . S
N342 C341 1.334 . S
N342 C343 1.334 . S
C343 N342 1.334 . S
C343 N344 1.336 . S
N344 Zn340 2.020 . S
N344 C343 1.336 . S
N344 N345 1.354 . S
N345 C341 1.336 . S
N345 N344 1.354 . S
N345 Zn349 2.020 . S
C346 O347 1.244 . S
C346 O370 1.257 . S
O347 C346 1.244 . S
O348 Zn340 2.019 . S
O348 C368 1.257 . S
Zn349 N345 2.020 . S
Zn349 O356 1.975 . S
Zn349 N365 2.119 . S
Zn349 O370 2.019 . S
N350 Zn340 2.119 . S
N350 C352 1.334 . S
N350 C353 1.328 . S
C351 C352 1.391 . S
C351 N354 1.329 . S
C351 H372 0.930 . S
C352 N350 1.334 . S
C352 C351 1.391 . S
C352 H359 0.930 . S
C353 N350 1.328 . S
C353 C355 1.392 . S
C353 H360 0.930 . S
N354 C351 1.329 . S
N354 C355 1.331 . S
C355 C353 1.392 . S
C355 N354 1.331 . S
O356 Zn349 1.975 . S
O356 C357 1.252 . S
C357 O356 1.252 . S
C357 O358 1.252 . S
O358 Zn340 1.975 . S
O358 C357 1.252 . S
H359 C352 0.930 . S
H360 C353 0.930 . S
C361 C362 1.392 . S
C361 N365 1.328 . S
C361 H367 0.930 . S
C362 C361 1.392 . S
C362 N366 1.331 . S
C363 C364 1.391 . S
C363 N366 1.329 . S
C363 H373 0.930 . S
C364 C363 1.391 . S
C364 N365 1.334 . S
C364 H371 0.930 . S
N365 Zn349 2.119 . S
N365 C361 1.328 . S
N365 C364 1.334 . S
N366 C362 1.331 . S
N366 C363 1.329 . S
H367 C361 0.930 . S
C368 O348 1.257 . S
C368 O369 1.244 . S
O369 C368 1.244 . S
O370 C346 1.257 . S
O370 Zn349 2.019 . S
H371 C364 0.930 . S
H372 C351 0.930 . S
H373 C363 0.930 . S
Zn374 N378 2.020 . S
Zn374 O382 2.019 . S
Zn374 N384 2.119 . S
Zn374 O392 1.975 . S
C375 N376 1.334 . S
C375 N379 1.336 . S
N376 C375 1.334 . S
N376 C377 1.334 . S
C377 N376 1.334 . S
C377 N378 1.336 . S
N378 Zn374 2.020 . S
N378 C377 1.336 . S
N378 N379 1.354 . S
N379 C375 1.336 . S
N379 N378 1.354 . S
N379 Zn383 2.020 . S
C380 O381 1.244 . S
C380 O404 1.257 . S
O381 C380 1.244 . S
O382 Zn374 2.019 . S
O382 C402 1.257 . S
Zn383 N379 2.020 . S
Zn383 O390 1.975 . S
Zn383 N399 2.119 . S
Zn383 O404 2.019 . S
N384 Zn374 2.119 . S
N384 C386 1.334 . S
N384 C387 1.328 . S
C385 C386 1.391 . S
C385 N388 1.329 . S
C385 H406 0.930 . S
C386 N384 1.334 . S
C386 C385 1.391 . S
C386 H393 0.930 . S
C387 N384 1.328 . S
C387 C389 1.392 . S
C387 H394 0.930 . S
N388 C385 1.329 . S
N388 C389 1.331 . S
C389 C387 1.392 . S
C389 N388 1.331 . S
O390 Zn383 1.975 . S
O390 C391 1.252 . S
C391 O390 1.252 . S
C391 O392 1.252 . S
O392 Zn374 1.975 . S
O392 C391 1.252 . S
H393 C386 0.930 . S
H394 C387 0.930 . S
C395 C396 1.392 . S
C395 N399 1.328 . S
C395 H401 0.930 . S
C396 C395 1.392 . S
C396 N400 1.331 . S
C397 C398 1.391 . S
C397 N400 1.329 . S
C397 H407 0.930 . S
C398 C397 1.391 . S
C398 N399 1.334 . S
C398 H405 0.930 . S
N399 Zn383 2.119 . S
N399 C395 1.328 . S
N399 C398 1.334 . S
N400 C396 1.331 . S
N400 C397 1.329 . S
H401 C395 0.930 . S
C402 O382 1.257 . S
C402 O403 1.244 . S
O403 C402 1.244 . S
O404 C380 1.257 . S
O404 Zn383 2.019 . S
H405 C398 0.930 . S
H406 C385 0.930 . S
H407 C397 0.930 . S
H408 C420 0.930 . S
H409 C422 0.930 . S
H410 C423 0.930 . S
H411 C427 0.959 . S
H412 C427 0.959 . S
H413 C427 0.961 . S
H414 C428 0.960 . S
H415 C428 0.961 . S
H416 C428 0.959 . S
H417 C431 0.929 . S
H418 C432 0.931 . S
H419 C434 0.930 . S
C420 H408 0.930 . S
C420 C421 1.399 1_554 S
C420 C425 1.399 1_545 S
C421 C420 1.399 1_556 S
C421 C422 1.376 . S
C422 H409 0.930 . S
C422 C421 1.376 . S
C422 C423 1.388 1_545 S
C423 H410 0.930 . S
C423 C422 1.388 1_565 S
C423 C424 1.390 . S
C424 C423 1.390 . S
C424 C425 1.394 1_556 S
C424 C430 1.465 . S
C425 C420 1.399 1_565 S
C425 C424 1.394 1_554 S
C425 C426 1.516 . S
C426 C425 1.516 . S
C426 C427 1.502 . S
C426 C428 1.561 . S
C426 C429 1.526 . S
C427 H411 0.959 . S
C427 H412 0.959 . S
C427 H413 0.961 . S
C427 C426 1.502 . S
C428 H414 0.960 . S
C428 H415 0.961 . S
C428 H416 0.959 . S
C428 C426 1.561 . S
C429 C426 1.526 . S
C429 C430 1.396 1_554 S
C429 C434 1.390 . S
C430 C424 1.465 . S
C430 C429 1.396 1_556 S
C430 C431 1.399 . S
C431 H417 0.929 . S
C431 C430 1.399 . S
C431 C432 1.385 . S
C432 H418 0.931 . S
C432 C431 1.385 . S
C432 C433 1.389 . S
C433 C432 1.389 . S
C433 C434 1.387 1_556 S
C434 H419 0.930 . S
C434 C429 1.390 . S
C434 C433 1.387 1_554 S
H435 C447 0.930 . S
H436 C449 0.930 . S
H437 C450 0.930 . S
H438 C454 0.959 . S
H439 C454 0.959 . S
H440 C454 0.961 . S
H441 C455 0.960 . S
H442 C455 0.961 . S
H443 C455 0.959 . S
H444 C458 0.929 . S
H445 C459 0.931 . S
H446 C461 0.930 . S
C447 H435 0.930 . S
C447 C448 1.399 1_554 S
C447 C452 1.399 . S
C448 C447 1.399 1_556 S
C448 C449 1.376 . S
C449 H436 0.930 . S
C449 C448 1.376 . S
C449 C450 1.388 . S
C450 H437 0.930 . S
C450 C449 1.388 . S
C450 C451 1.390 . S
C451 C450 1.390 . S
C451 C452 1.394 1_556 S
C451 C457 1.465 . S
C452 C447 1.399 . S
C452 C451 1.394 1_554 S
C452 C453 1.516 . S
C453 C452 1.516 . S
C453 C454 1.502 . S
C453 C455 1.561 . S
C453 C456 1.526 . S
C454 H438 0.959 . S
C454 H439 0.959 . S
C454 H440 0.961 . S
C454 C453 1.502 . S
C455 H441 0.960 . S
C455 H442 0.961 . S
C455 H443 0.959 . S
C455 C453 1.561 . S
C456 C453 1.526 . S
C456 C457 1.396 1_554 S
C456 C461 1.390 . S
C457 C451 1.465 . S
C457 C456 1.396 1_556 S
C457 C458 1.399 . S
C458 H444 0.929 . S
C458 C457 1.399 . S
C458 C459 1.385 . S
C459 H445 0.931 . S
C459 C458 1.385 . S
C459 C460 1.389 . S
C460 C459 1.389 . S
C460 C461 1.387 1_556 S
C461 H446 0.930 . S
C461 C456 1.390 . S
C461 C460 1.387 1_554 S
H462 C474 0.930 . S
H463 C476 0.930 . S
H464 C477 0.930 . S
H465 C481 0.959 . S
H466 C481 0.959 . S
H467 C481 0.961 . S
H468 C482 0.960 . S
H469 C482 0.961 . S
H470 C482 0.959 . S
H471 C485 0.929 . S
H472 C486 0.931 . S
H473 C488 0.930 . S
C474 H462 0.930 . S
C474 C475 1.399 1_554 S
C474 C479 1.399 1_655 S
C475 C474 1.399 1_556 S
C475 C476 1.376 . S
C476 H463 0.930 . S
C476 C475 1.376 . S
C476 C477 1.388 1_655 S
C477 H464 0.930 . S
C477 C476 1.388 1_455 S
C477 C478 1.390 . S
C478 C477 1.390 . S
C478 C479 1.394 1_556 S
C478 C484 1.465 . S
C479 C474 1.399 1_455 S
C479 C478 1.394 1_554 S
C479 C480 1.516 . S
C480 C479 1.516 . S
C480 C481 1.502 . S
C480 C482 1.561 . S
C480 C483 1.526 . S
C481 H465 0.959 . S
C481 H466 0.959 . S
C481 H467 0.961 . S
C481 C480 1.502 . S
C482 H468 0.960 . S
C482 H469 0.961 . S
C482 H470 0.959 . S
C482 C480 1.561 . S
C483 C480 1.526 . S
C483 C484 1.396 1_554 S
C483 C488 1.390 . S
C484 C478 1.465 . S
C484 C483 1.396 1_556 S
C484 C485 1.399 . S
C485 H471 0.929 . S
C485 C484 1.399 . S
C485 C486 1.385 . S
C486 H472 0.931 . S
C486 C485 1.385 . S
C486 C487 1.389 . S
C487 C486 1.389 . S
C487 C488 1.387 1_556 S
C488 H473 0.930 . S
C488 C483 1.390 . S
C488 C487 1.387 1_554 S
H489 C501 0.930 1_565 S
H490 C503 0.930 . S
H491 C504 0.930 . S
H492 C508 0.959 . S
H493 C508 0.959 . S
H494 C508 0.961 . S
H495 C509 0.960 . S
H496 C509 0.961 . S
H497 C509 0.959 . S
H498 C512 0.929 . S
H499 C513 0.931 . S
H500 C515 0.930 . S
C501 H489 0.930 1_545 S
C501 C502 1.399 1_545 S
C501 C506 1.399 . S
C502 C501 1.399 1_565 S
C502 C503 1.376 1_556 S
C503 H490 0.930 . S
C503 C502 1.376 1_554 S
C503 C504 1.388 1_565 S
C504 H491 0.930 . S
C504 C503 1.388 1_545 S
C504 C505 1.388 . S
C505 C504 1.388 . S
C505 C506 1.396 1_554 S
C505 C511 1.465 . S
C506 C501 1.399 . S
C506 C505 1.396 1_556 S
C506 C507 1.516 . S
C507 C506 1.516 . S
C507 C508 1.502 . S
C507 C509 1.561 . S
C507 C510 1.526 . S
C508 H492 0.959 . S
C508 H493 0.959 . S
C508 H494 0.961 . S
C508 C507 1.502 . S
C509 H495 0.960 . S
C509 H496 0.961 . S
C509 H497 0.959 . S
C509 C507 1.561 . S
C510 C507 1.526 . S
C510 C511 1.396 1_556 S
C510 C515 1.390 . S
C511 C505 1.465 . S
C511 C510 1.396 1_554 S
C511 C512 1.399 . S
C512 H498 0.929 . S
C512 C511 1.399 . S
C512 C513 1.385 . S
C513 H499 0.931 . S
C513 C512 1.385 . S
C513 C514 1.389 . S
C514 C513 1.389 . S
C514 C515 1.387 1_554 S
C515 H500 0.930 . S
C515 C510 1.390 . S
C515 C514 1.387 1_556 S
H516 C528 0.930 . S
H517 C530 0.930 . S
H518 C531 0.930 . S
H519 C535 0.959 . S
H520 C535 0.959 . S
H521 C535 0.961 . S
H522 C536 0.960 . S
H523 C536 0.961 . S
H524 C536 0.959 . S
H525 C539 0.929 . S
H526 C540 0.931 . S
H527 C542 0.930 . S
C528 H516 0.930 . S
C528 C529 1.399 1_554 S
C528 C533 1.399 . S
C529 C528 1.399 1_556 S
C529 C530 1.376 . S
C530 H517 0.930 . S
C530 C529 1.376 . S
C530 C531 1.388 . S
C531 H518 0.930 . S
C531 C530 1.388 . S
C531 C532 1.390 . S
C532 C531 1.390 . S
C532 C533 1.394 1_556 S
C532 C538 1.465 . S
C533 C528 1.399 . S
C533 C532 1.394 1_554 S
C533 C534 1.516 . S
C534 C533 1.516 . S
C534 C535 1.502 . S
C534 C536 1.561 . S
C534 C537 1.526 . S
C535 H519 0.959 . S
C535 H520 0.959 . S
C535 H521 0.961 . S
C535 C534 1.502 . S
C536 H522 0.960 . S
C536 H523 0.961 . S
C536 H524 0.959 . S
C536 C534 1.561 . S
C537 C534 1.526 . S
C537 C538 1.396 1_554 S
C537 C542 1.390 . S
C538 C532 1.465 . S
C538 C537 1.396 1_556 S
C538 C539 1.399 . S
C539 H525 0.929 . S
C539 C538 1.399 . S
C539 C540 1.385 . S
C540 H526 0.931 . S
C540 C539 1.385 . S
C540 C541 1.389 . S
C541 C540 1.389 . S
C541 C542 1.387 1_556 S
C542 H527 0.930 . S
C542 C537 1.390 . S
C542 C541 1.387 1_554 S
H543 C555 0.930 1_455 S
H544 C557 0.930 . S
H545 C558 0.930 . S
H546 C562 0.959 . S
H547 C562 0.959 . S
H548 C562 0.961 . S
H549 C563 0.960 . S
H550 C563 0.961 . S
H551 C563 0.959 . S
H552 C566 0.929 . S
H553 C567 0.931 . S
H554 C569 0.930 . S
C555 H543 0.930 1_655 S
C555 C556 1.393 1_655 S
C555 C560 1.404 . S
C556 C555 1.393 1_455 S
C556 C557 1.376 1_556 S
C557 H544 0.930 . S
C557 C556 1.376 1_554 S
C557 C558 1.388 1_455 S
C558 H545 0.930 . S
C558 C557 1.388 1_655 S
C558 C559 1.390 1_554 S
C559 C558 1.390 1_556 S
C559 C560 1.394 . S
C559 C565 1.465 . S
C560 C555 1.404 . S
C560 C559 1.394 . S
C560 C561 1.516 . S
C561 C560 1.516 . S
C561 C562 1.502 . S
C561 C563 1.561 . S
C561 C564 1.526 . S
C562 H546 0.959 . S
C562 H547 0.959 . S
C562 H548 0.961 . S
C562 C561 1.502 . S
C563 H549 0.960 . S
C563 H550 0.961 . S
C563 H551 0.959 . S
C563 C561 1.561 . S
C564 C561 1.526 . S
C564 C565 1.395 . S
C564 C569 1.390 . S
C565 C559 1.465 . S
C565 C564 1.395 . S
C565 C566 1.400 1_556 S
C566 H552 0.929 . S
C566 C565 1.400 1_554 S
C566 C567 1.385 . S
C567 H553 0.931 . S
C567 C566 1.385 . S
C567 C568 1.389 . S
C568 C567 1.389 . S
C568 C569 1.387 1_554 S
C569 H554 0.930 . S
C569 C564 1.390 . S
C569 C568 1.387 1_556 S
H570 C582 0.930 1_655 S
H571 C584 0.930 . S
H572 C585 0.930 . S
H573 C589 0.959 . S
H574 C589 0.959 . S
H575 C589 0.961 . S
H576 C590 0.960 . S
H577 C590 0.961 . S
H578 C590 0.959 . S
H579 C593 0.929 . S
H580 C594 0.931 . S
H581 C596 0.930 . S
C582 H570 0.930 1_455 S
C582 C583 1.394 1_455 S
C582 C587 1.403 . S
C583 C582 1.394 1_655 S
C583 C584 1.376 . S
C584 H571 0.930 . S
C584 C583 1.376 . S
C584 C585 1.388 1_655 S
C585 H572 0.930 . S
C585 C584 1.388 1_455 S
C585 C586 1.390 . S
C586 C585 1.390 . S
C586 C587 1.394 . S
C586 C592 1.465 . S
C587 C582 1.403 . S
C587 C586 1.394 . S
C587 C588 1.516 . S
C588 C587 1.516 . S
C588 C589 1.502 . S
C588 C590 1.561 . S
C588 C591 1.526 . S
C589 H573 0.959 . S
C589 H574 0.959 . S
C589 H575 0.961 . S
C589 C588 1.502 . S
C590 H576 0.960 . S
C590 H577 0.961 . S
C590 H578 0.959 . S
C590 C588 1.561 . S
C591 C588 1.526 . S
C591 C592 1.396 . S
C591 C596 1.390 . S
C592 C586 1.465 . S
C592 C591 1.396 . S
C592 C593 1.399 . S
C593 H579 0.929 . S
C593 C592 1.399 . S
C593 C594 1.385 . S
C594 H580 0.931 . S
C594 C593 1.385 . S
C594 C595 1.389 . S
C595 C594 1.389 . S
C595 C596 1.387 . S
C596 H581 0.930 . S
C596 C591 1.390 . S
C596 C595 1.387 . S
H597 C609 0.930 1_565 S
H598 C611 0.930 . S
H599 C612 0.930 . S
H600 C616 0.959 . S
H601 C616 0.959 . S
H602 C616 0.961 . S
H603 C617 0.960 . S
H604 C617 0.961 . S
H605 C617 0.959 . S
H606 C620 0.929 . S
H607 C621 0.931 . S
H608 C623 0.930 . S
C609 H597 0.930 1_545 S
C609 C610 1.399 1_545 S
C609 C614 1.399 . S
C610 C609 1.399 1_565 S
C610 C611 1.376 . S
C611 H598 0.930 . S
C611 C610 1.376 . S
C611 C612 1.388 1_565 S
C612 H599 0.930 . S
C612 C611 1.388 1_545 S
C612 C613 1.390 . S
C613 C612 1.390 . S
C613 C614 1.394 . S
C613 C619 1.465 . S
C614 C609 1.399 . S
C614 C613 1.394 . S
C614 C615 1.516 . S
C615 C614 1.516 . S
C615 C616 1.502 . S
C615 C617 1.561 . S
C615 C618 1.526 . S
C616 H600 0.959 . S
C616 H601 0.959 . S
C616 H602 0.961 . S
C616 C615 1.502 . S
C617 H603 0.960 . S
C617 H604 0.961 . S
C617 H605 0.959 . S
C617 C615 1.561 . S
C618 C615 1.526 . S
C618 C619 1.396 . S
C618 C623 1.390 . S
C619 C613 1.465 . S
C619 C618 1.396 . S
C619 C620 1.399 . S
C620 H606 0.929 . S
C620 C619 1.399 . S
C620 C621 1.385 . S
C621 H607 0.931 . S
C621 C620 1.385 . S
C621 C622 1.389 . S
C622 C621 1.389 . S
C622 C623 1.387 . S
C623 H608 0.930 . S
C623 C618 1.390 . S
C623 C622 1.387 . S
H624 C636 0.930 . S
H625 C638 0.930 . S
H626 C639 0.930 . S
H627 C643 0.959 . S
H628 C643 0.959 . S
H629 C643 0.961 . S
H630 C644 0.960 . S
H631 C644 0.961 . S
H632 C644 0.959 . S
H633 C647 0.929 . S
H634 C648 0.931 . S
H635 C650 0.930 . S
C636 H624 0.930 . S
C636 C637 1.399 . S
C636 C641 1.399 . S
C637 C636 1.399 . S
C637 C638 1.376 . S
C638 H625 0.930 . S
C638 C637 1.376 . S
C638 C639 1.388 . S
C639 H626 0.930 . S
C639 C638 1.388 . S
C639 C640 1.390 . S
C640 C639 1.390 . S
C640 C641 1.394 . S
C640 C646 1.465 . S
C641 C636 1.399 . S
C641 C640 1.394 . S
C641 C642 1.516 . S
C642 C641 1.516 . S
C642 C643 1.502 . S
C642 C644 1.561 . S
C642 C645 1.526 . S
C643 H627 0.959 . S
C643 H628 0.959 . S
C643 H629 0.961 . S
C643 C642 1.502 . S
C644 H630 0.960 . S
C644 H631 0.961 . S
C644 H632 0.959 . S
C644 C642 1.561 . S
C645 C642 1.526 . S
C645 C646 1.396 . S
C645 C650 1.390 . S
C646 C640 1.465 . S
C646 C645 1.396 . S
C646 C647 1.399 . S
C647 H633 0.929 . S
C647 C646 1.399 . S
C647 C648 1.385 . S
C648 H634 0.931 . S
C648 C647 1.385 . S
C648 C649 1.389 . S
C649 C648 1.389 . S
C649 C650 1.387 . S
C650 H635 0.930 . S
C650 C645 1.390 . S
C650 C649 1.387 . S
H651 C663 0.930 . S
H652 C665 0.930 . S
H653 C666 0.930 . S
H654 C670 0.959 . S
H655 C670 0.959 . S
H656 C670 0.961 . S
H657 C671 0.960 . S
H658 C671 0.961 . S
H659 C671 0.959 . S
H660 C674 0.929 . S
H661 C675 0.931 . S
H662 C677 0.930 . S
C663 H651 0.930 . S
C663 C664 1.399 . S
C663 C668 1.399 . S
C664 C663 1.399 . S
C664 C665 1.376 . S
C665 H652 0.930 . S
C665 C664 1.376 . S
C665 C666 1.388 . S
C666 H653 0.930 . S
C666 C665 1.388 . S
C666 C667 1.390 . S
C667 C666 1.390 . S
C667 C668 1.394 . S
C667 C673 1.465 . S
C668 C663 1.399 . S
C668 C667 1.394 . S
C668 C669 1.516 . S
C669 C668 1.516 . S
C669 C670 1.502 . S
C669 C671 1.561 . S
C669 C672 1.526 . S
C670 H654 0.959 . S
C670 H655 0.959 . S
C670 H656 0.961 . S
C670 C669 1.502 . S
C671 H657 0.960 . S
C671 H658 0.961 . S
C671 H659 0.959 . S
C671 C669 1.561 . S
C672 C669 1.526 . S
C672 C673 1.396 . S
C672 C677 1.390 1_655 S
C673 C667 1.465 . S
C673 C672 1.396 . S
C673 C674 1.399 . S
C674 H660 0.929 . S
C674 C673 1.399 . S
C674 C675 1.385 1_655 S
C675 H661 0.931 . S
C675 C674 1.385 1_455 S
C675 C676 1.389 . S
C676 C675 1.389 . S
C676 C677 1.387 . S
C677 H662 0.930 . S
C677 C672 1.390 1_455 S
C677 C676 1.387 . S
H678 C690 0.930 . S
H679 C692 0.930 . S
H680 C693 0.930 . S
H681 C697 0.959 . S
H682 C697 0.959 . S
H683 C697 0.961 . S
H684 C698 0.960 . S
H685 C698 0.961 . S
H686 C698 0.959 . S
H687 C701 0.929 . S
H688 C702 0.931 . S
H689 C704 0.930 1_545 S
C690 H678 0.930 . S
C690 C691 1.399 . S
C690 C695 1.399 . S
C691 C690 1.399 . S
C691 C692 1.376 . S
C692 H679 0.930 . S
C692 C691 1.376 . S
C692 C693 1.388 . S
C693 H680 0.930 . S
C693 C692 1.388 . S
C693 C694 1.390 . S
C694 C693 1.390 . S
C694 C695 1.394 . S
C694 C700 1.465 . S
C695 C690 1.399 . S
C695 C694 1.394 . S
C695 C696 1.516 . S
C696 C695 1.516 . S
C696 C697 1.502 . S
C696 C698 1.561 . S
C696 C699 1.526 . S
C697 H681 0.959 . S
C697 H682 0.959 . S
C697 H683 0.961 . S
C697 C696 1.502 . S
C698 H684 0.960 . S
C698 H685 0.961 . S
C698 H686 0.959 . S
C698 C696 1.561 . S
C699 C696 1.526 . S
C699 C700 1.396 . S
C699 C704 1.390 . S
C700 C694 1.465 . S
C700 C699 1.396 . S
C700 C701 1.399 . S
C701 H687 0.929 . S
C701 C700 1.399 . S
C701 C702 1.385 1_565 S
C702 H688 0.931 . S
C702 C701 1.385 1_545 S
C702 C703 1.389 . S
C703 C702 1.389 . S
C703 C704 1.387 1_545 S
C704 H689 0.930 1_565 S
C704 C699 1.390 . S
C704 C703 1.387 1_565 S
H705 C717 0.930 . S
H706 C719 0.930 . S
H707 C720 0.930 . S
H708 C724 0.959 . S
H709 C724 0.959 . S
H710 C724 0.961 . S
H711 C725 0.960 . S
H712 C725 0.961 . S
H713 C725 0.959 . S
H714 C728 0.929 . S
H715 C729 0.931 . S
H716 C731 0.930 . S
C717 H705 0.930 . S
C717 C718 1.399 . S
C717 C722 1.399 . S
C718 C717 1.399 . S
C718 C719 1.376 . S
C719 H706 0.930 . S
C719 C718 1.376 . S
C719 C720 1.388 . S
C720 H707 0.930 . S
C720 C719 1.388 . S
C720 C721 1.390 . S
C721 C720 1.390 . S
C721 C722 1.394 . S
C721 C727 1.465 . S
C722 C717 1.399 . S
C722 C721 1.394 . S
C722 C723 1.516 . S
C723 C722 1.516 . S
C723 C724 1.502 . S
C723 C725 1.561 . S
C723 C726 1.526 . S
C724 H708 0.959 . S
C724 H709 0.959 . S
C724 H710 0.961 . S
C724 C723 1.502 . S
C725 H711 0.960 . S
C725 H712 0.961 . S
C725 H713 0.959 . S
C725 C723 1.561 . S
C726 C723 1.526 . S
C726 C727 1.396 . S
C726 C731 1.390 . S
C727 C721 1.465 . S
C727 C726 1.396 . S
C727 C728 1.399 . S
C728 H714 0.929 . S
C728 C727 1.399 . S
C728 C729 1.385 . S
C729 H715 0.931 . S
C729 C728 1.385 . S
C729 C730 1.389 . S
C730 C729 1.389 . S
C730 C731 1.387 . S
C731 H716 0.930 . S
C731 C726 1.390 . S
C731 C730 1.387 . S
H732 C744 0.930 . S
H733 C746 0.930 . S
H734 C747 0.930 . S
H735 C751 0.959 . S
H736 C751 0.959 . S
H737 C751 0.961 . S
H738 C752 0.960 . S
H739 C752 0.961 . S
H740 C752 0.959 . S
H741 C755 0.929 . S
H742 C756 0.931 . S
H743 C758 0.930 . S
C744 H732 0.930 . S
C744 C745 1.399 . S
C744 C749 1.399 . S
C745 C744 1.399 . S
C745 C746 1.376 . S
C746 H733 0.930 . S
C746 C745 1.376 . S
C746 C747 1.388 . S
C747 H734 0.930 . S
C747 C746 1.388 . S
C747 C748 1.390 . S
C748 C747 1.390 . S
C748 C749 1.394 . S
C748 C754 1.465 . S
C749 C744 1.399 . S
C749 C748 1.394 . S
C749 C750 1.516 . S
C750 C749 1.516 . S
C750 C751 1.502 . S
C750 C752 1.561 . S
C750 C753 1.526 . S
C751 H735 0.959 . S
C751 H736 0.959 . S
C751 H737 0.961 . S
C751 C750 1.502 . S
C752 H738 0.960 . S
C752 H739 0.961 . S
C752 H740 0.959 . S
C752 C750 1.561 . S
C753 C750 1.526 . S
C753 C754 1.396 . S
C753 C758 1.390 . S
C754 C748 1.465 . S
C754 C753 1.396 . S
C754 C755 1.399 . S
C755 H741 0.929 . S
C755 C754 1.399 . S
C755 C756 1.385 . S
C756 H742 0.931 . S
C756 C755 1.385 . S
C756 C757 1.389 . S
C757 C756 1.389 . S
C757 C758 1.387 . S
C758 H743 0.930 . S
C758 C753 1.390 . S
C758 C757 1.387 . S
H759 C771 0.930 . S
H760 C773 0.930 . S
H761 C774 0.930 . S
H762 C778 0.959 . S
H763 C778 0.959 . S
H764 C778 0.961 . S
H765 C779 0.960 . S
H766 C779 0.961 . S
H767 C779 0.959 . S
H768 C782 0.929 . S
H769 C783 0.931 . S
H770 C785 0.930 . S
C771 H759 0.930 . S
C771 C772 1.399 . S
C771 C776 1.399 . S
C772 C771 1.399 . S
C772 C773 1.376 . S
C773 H760 0.930 . S
C773 C772 1.376 . S
C773 C774 1.388 . S
C774 H761 0.930 . S
C774 C773 1.388 . S
C774 C775 1.390 . S
C775 C774 1.390 . S
C775 C776 1.394 . S
C775 C781 1.465 . S
C776 C771 1.399 . S
C776 C775 1.394 . S
C776 C777 1.516 . S
C777 C776 1.516 . S
C777 C778 1.502 . S
C777 C779 1.561 . S
C777 C780 1.526 . S
C778 H762 0.959 . S
C778 H763 0.959 . S
C778 H764 0.961 . S
C778 C777 1.502 . S
C779 H765 0.960 . S
C779 H766 0.961 . S
C779 H767 0.959 . S
C779 C777 1.561 . S
C780 C777 1.526 . S
C780 C781 1.396 . S
C780 C785 1.390 . S
C781 C775 1.465 . S
C781 C780 1.396 . S
C781 C782 1.399 . S
C782 H768 0.929 . S
C782 C781 1.399 . S
C782 C783 1.385 . S
C783 H769 0.931 . S
C783 C782 1.385 . S
C783 C784 1.389 . S
C784 C783 1.389 . S
C784 C785 1.387 . S
C785 H770 0.930 . S
C785 C780 1.390 . S
C785 C784 1.387 . S
H786 C798 0.930 . S
H787 C800 0.930 . S
H788 C801 0.930 . S
H789 C805 0.959 . S
H790 C805 0.959 . S
H791 C805 0.961 . S
H792 C806 0.960 . S
H793 C806 0.961 . S
H794 C806 0.959 . S
H795 C809 0.929 . S
H796 C810 0.931 . S
H797 C812 0.930 . S
C798 H786 0.930 . S
C798 C799 1.399 . S
C798 C803 1.399 . S
C799 C798 1.399 . S
C799 C800 1.376 . S
C800 H787 0.930 . S
C800 C799 1.376 . S
C800 C801 1.388 . S
C801 H788 0.930 . S
C801 C800 1.388 . S
C801 C802 1.390 . S
C802 C801 1.390 . S
C802 C803 1.394 . S
C802 C808 1.465 . S
C803 C798 1.399 . S
C803 C802 1.394 . S
C803 C804 1.516 . S
C804 C803 1.516 . S
C804 C805 1.502 . S
C804 C806 1.561 . S
C804 C807 1.526 . S
C805 H789 0.959 . S
C805 H790 0.959 . S
C805 H791 0.961 . S
C805 C804 1.502 . S
C806 H792 0.960 . S
C806 H793 0.961 . S
C806 H794 0.959 . S
C806 C804 1.561 . S
C807 C804 1.526 . S
C807 C808 1.396 . S
C807 C812 1.390 . S
C808 C802 1.465 . S
C808 C807 1.396 . S
C808 C809 1.399 . S
C809 H795 0.929 . S
C809 C808 1.399 . S
C809 C810 1.385 . S
C810 H796 0.931 . S
C810 C809 1.385 . S
C810 C811 1.389 . S
C811 C810 1.389 . S
C811 C812 1.387 . S
C812 H797 0.930 . S
C812 C807 1.390 . S
C812 C811 1.387 . S
H813 C825 0.930 . S
H814 C827 0.930 . S
H815 C828 0.930 . S
H816 C832 0.959 . S
H817 C832 0.959 . S
H818 C832 0.961 . S
H819 C833 0.960 . S
H820 C833 0.961 . S
H821 C833 0.959 . S
H822 C836 0.929 . S
H823 C837 0.931 . S
H824 C839 0.930 . S
C825 H813 0.930 . S
C825 C826 1.399 . S
C825 C830 1.399 . S
C826 C825 1.399 . S
C826 C827 1.376 . S
C827 H814 0.930 . S
C827 C826 1.376 . S
C827 C828 1.388 . S
C828 H815 0.930 . S
C828 C827 1.388 . S
C828 C829 1.390 . S
C829 C828 1.390 . S
C829 C830 1.394 . S
C829 C835 1.465 . S
C830 C825 1.399 . S
C830 C829 1.394 . S
C830 C831 1.516 . S
C831 C830 1.516 . S
C831 C832 1.502 . S
C831 C833 1.561 . S
C831 C834 1.526 . S
C832 H816 0.959 . S
C832 H817 0.959 . S
C832 H818 0.961 . S
C832 C831 1.502 . S
C833 H819 0.960 . S
C833 H820 0.961 . S
C833 H821 0.959 . S
C833 C831 1.561 . S
C834 C831 1.526 . S
C834 C835 1.396 . S
C834 C839 1.390 . S
C835 C829 1.465 . S
C835 C834 1.396 . S
C835 C836 1.399 . S
C836 H822 0.929 . S
C836 C835 1.399 . S
C836 C837 1.385 . S
C837 H823 0.931 . S
C837 C836 1.385 . S
C837 C838 1.389 . S
C838 C837 1.389 . S
C838 C839 1.387 . S
C839 H824 0.930 . S
C839 C834 1.390 . S
C839 C838 1.387 . S
H840 C852 0.930 . S
H841 C854 0.930 . S
H842 C855 0.930 . S
H843 C859 0.959 . S
H844 C859 0.959 . S
H845 C859 0.961 . S
H846 C860 0.960 . S
H847 C860 0.961 . S
H848 C860 0.959 . S
H849 C863 0.929 . S
H850 C864 0.931 . S
H851 C866 0.930 . S
C852 H840 0.930 . S
C852 C853 1.399 . S
C852 C857 1.399 . S
C853 C852 1.399 . S
C853 C854 1.376 . S
C854 H841 0.930 . S
C854 C853 1.376 . S
C854 C855 1.388 . S
C855 H842 0.930 . S
C855 C854 1.388 . S
C855 C856 1.390 . S
C856 C855 1.390 . S
C856 C857 1.394 . S
C856 C862 1.465 . S
C857 C852 1.399 . S
C857 C856 1.394 . S
C857 C858 1.516 . S
C858 C857 1.516 . S
C858 C859 1.502 . S
C858 C860 1.561 . S
C858 C861 1.526 . S
C859 H843 0.959 . S
C859 H844 0.959 . S
C859 H845 0.961 . S
C859 C858 1.502 . S
C860 H846 0.960 . S
C860 H847 0.961 . S
C860 H848 0.959 . S
C860 C858 1.561 . S
C861 C858 1.526 . S
C861 C862 1.396 . S
C861 C866 1.390 . S
C862 C856 1.465 . S
C862 C861 1.396 . S
C862 C863 1.399 . S
C863 H849 0.929 . S
C863 C862 1.399 . S
C863 C864 1.385 . S
C864 H850 0.931 . S
C864 C863 1.385 . S
C864 C865 1.389 . S
C865 C864 1.389 . S
C865 C866 1.387 . S
C866 H851 0.930 . S
C866 C861 1.390 . S
C866 C865 1.387 . S
H867 C879 0.930 . S
H868 C881 0.930 . S
H869 C882 0.930 . S
H870 C886 0.959 . S
H871 C886 0.959 . S
H872 C886 0.961 . S
H873 C887 0.960 . S
H874 C887 0.961 . S
H875 C887 0.959 . S
H876 C890 0.929 . S
H877 C891 0.931 . S
H878 C893 0.930 . S
C879 H867 0.930 . S
C879 C880 1.399 . S
C879 C884 1.399 . S
C880 C879 1.399 . S
C880 C881 1.376 . S
C881 H868 0.930 . S
C881 C880 1.376 . S
C881 C882 1.388 . S
C882 H869 0.930 . S
C882 C881 1.388 . S
C882 C883 1.390 . S
C883 C882 1.390 . S
C883 C884 1.394 . S
C883 C889 1.465 . S
C884 C879 1.399 . S
C884 C883 1.394 . S
C884 C885 1.516 . S
C885 C884 1.516 . S
C885 C886 1.502 . S
C885 C887 1.561 . S
C885 C888 1.526 . S
C886 H870 0.959 . S
C886 H871 0.959 . S
C886 H872 0.961 . S
C886 C885 1.502 . S
C887 H873 0.960 . S
C887 H874 0.961 . S
C887 H875 0.959 . S
C887 C885 1.561 . S
C888 C885 1.526 . S
C888 C889 1.396 . S
C888 C893 1.390 . S
C889 C883 1.465 . S
C889 C888 1.396 . S
C889 C890 1.399 . S
C890 H876 0.929 . S
C890 C889 1.399 . S
C890 C891 1.385 . S
C891 H877 0.931 . S
C891 C890 1.385 . S
C891 C892 1.389 . S
C892 C891 1.389 . S
C892 C893 1.387 . S
C893 H878 0.930 . S
C893 C888 1.390 . S
C893 C892 1.387 . S
H894 C906 0.930 . S
H895 C908 0.930 . S
H896 C909 0.930 . S
H897 C913 0.959 . S
H898 C913 0.959 . S
H899 C913 0.961 . S
H900 C914 0.960 . S
H901 C914 0.961 . S
H902 C914 0.959 . S
H903 C917 0.929 . S
H904 C918 0.931 . S
H905 C920 0.930 . S
C906 H894 0.930 . S
C906 C907 1.399 . S
C906 C911 1.399 . S
C907 C906 1.399 . S
C907 C908 1.376 . S
C908 H895 0.930 . S
C908 C907 1.376 . S
C908 C909 1.388 . S
C909 H896 0.930 . S
C909 C908 1.388 . S
C909 C910 1.390 . S
C910 C909 1.390 . S
C910 C911 1.394 . S
C910 C916 1.465 . S
C911 C906 1.399 . S
C911 C910 1.394 . S
C911 C912 1.516 . S
C912 C911 1.516 . S
C912 C913 1.502 . S
C912 C914 1.561 . S
C912 C915 1.526 . S
C913 H897 0.959 . S
C913 H898 0.959 . S
C913 H899 0.961 . S
C913 C912 1.502 . S
C914 H900 0.960 . S
C914 H901 0.961 . S
C914 H902 0.959 . S
C914 C912 1.561 . S
C915 C912 1.526 . S
C915 C916 1.396 . S
C915 C920 1.390 . S
C916 C910 1.465 . S
C916 C915 1.396 . S
C916 C917 1.399 . S
C917 H903 0.929 . S
C917 C916 1.399 . S
C917 C918 1.385 . S
C918 H904 0.931 . S
C918 C917 1.385 . S
C918 C919 1.389 . S
C919 C918 1.389 . S
C919 C920 1.387 . S
C920 H905 0.930 . S
C920 C915 1.390 . S
C920 C919 1.387 . S
H921 C933 0.930 . S
H922 C935 0.930 . S
H923 C936 0.930 . S
H924 C940 0.959 . S
H925 C940 0.959 . S
H926 C940 0.961 . S
H927 C941 0.960 . S
H928 C941 0.961 . S
H929 C941 0.959 . S
H930 C944 0.929 . S
H931 C945 0.931 . S
H932 C947 0.930 . S
C933 H921 0.930 . S
C933 C934 1.399 . S
C933 C938 1.399 . S
C934 C933 1.399 . S
C934 C935 1.376 . S
C935 H922 0.930 . S
C935 C934 1.376 . S
C935 C936 1.388 . S
C936 H923 0.930 . S
C936 C935 1.388 . S
C936 C937 1.390 . S
C937 C936 1.390 . S
C937 C938 1.394 . S
C937 C943 1.465 . S
C938 C933 1.399 . S
C938 C937 1.394 . S
C938 C939 1.516 . S
C939 C938 1.516 . S
C939 C940 1.502 . S
C939 C941 1.561 . S
C939 C942 1.526 . S
C940 H924 0.959 . S
C940 H925 0.959 . S
C940 H926 0.961 . S
C940 C939 1.502 . S
C941 H927 0.960 . S
C941 H928 0.961 . S
C941 H929 0.959 . S
C941 C939 1.561 . S
C942 C939 1.526 . S
C942 C943 1.396 . S
C942 C947 1.390 . S
C943 C937 1.465 . S
C943 C942 1.396 . S
C943 C944 1.399 . S
C944 H930 0.929 . S
C944 C943 1.399 . S
C944 C945 1.385 . S
C945 H931 0.931 . S
C945 C944 1.385 . S
C945 C946 1.389 . S
C946 C945 1.389 . S
C946 C947 1.387 . S
C947 H932 0.930 . S
C947 C942 1.390 . S
C947 C946 1.387 . S
H948 C960 0.930 . S
H949 C962 0.930 . S
H950 C963 0.930 . S
H951 C967 0.959 . S
H952 C967 0.959 . S
H953 C967 0.961 . S
H954 C968 0.960 . S
H955 C968 0.961 . S
H956 C968 0.959 . S
H957 C971 0.929 . S
H958 C972 0.931 . S
H959 C974 0.930 . S
C960 H948 0.930 . S
C960 C961 1.399 . S
C960 C965 1.399 . S
C961 C960 1.399 . S
C961 C962 1.376 . S
C962 H949 0.930 . S
C962 C961 1.376 . S
C962 C963 1.388 . S
C963 H950 0.930 . S
C963 C962 1.388 . S
C963 C964 1.390 . S
C964 C963 1.390 . S
C964 C965 1.394 . S
C964 C970 1.465 . S
C965 C960 1.399 . S
C965 C964 1.394 . S
C965 C966 1.516 . S
C966 C965 1.516 . S
C966 C967 1.502 . S
C966 C968 1.561 . S
C966 C969 1.526 . S
C967 H951 0.959 . S
C967 H952 0.959 . S
C967 H953 0.961 . S
C967 C966 1.502 . S
C968 H954 0.960 . S
C968 H955 0.961 . S
C968 H956 0.959 . S
C968 C966 1.561 . S
C969 C966 1.526 . S
C969 C970 1.396 . S
C969 C974 1.390 . S
C970 C964 1.465 . S
C970 C969 1.396 . S
C970 C971 1.399 . S
C971 H957 0.929 . S
C971 C970 1.399 . S
C971 C972 1.385 . S
C972 H958 0.931 . S
C972 C971 1.385 . S
C972 C973 1.389 . S
C973 C972 1.389 . S
C973 C974 1.387 . S
C974 H959 0.930 . S
C974 C969 1.390 . S
C974 C973 1.387 . S
H975 C987 0.930 . S
H976 C989 0.930 . S
H977 C990 0.930 . S
H978 C994 0.959 . S
H979 C994 0.959 . S
H980 C994 0.961 . S
H981 C995 0.960 . S
H982 C995 0.961 . S
H983 C995 0.959 . S
H984 C998 0.929 . S
H985 C999 0.931 . S
H986 C1001 0.930 . S
C987 H975 0.930 . S
C987 C988 1.399 . S
C987 C992 1.399 . S
C988 C987 1.399 . S
C988 C989 1.376 . S
C989 H976 0.930 . S
C989 C988 1.376 . S
C989 C990 1.388 . S
C990 H977 0.930 . S
C990 C989 1.388 . S
C990 C991 1.390 . S
C991 C990 1.390 . S
C991 C992 1.394 . S
C991 C997 1.465 . S
C992 C987 1.399 . S
C992 C991 1.394 . S
C992 C993 1.516 . S
C993 C992 1.516 . S
C993 C994 1.502 . S
C993 C995 1.561 . S
C993 C996 1.526 . S
C994 H978 0.959 . S
C994 H979 0.959 . S
C994 H980 0.961 . S
C994 C993 1.502 . S
C995 H981 0.960 . S
C995 H982 0.961 . S
C995 H983 0.959 . S
C995 C993 1.561 . S
C996 C993 1.526 . S
C996 C997 1.396 . S
C996 C1001 1.390 . S
C997 C991 1.465 . S
C997 C996 1.396 . S
C997 C998 1.399 . S
C998 H984 0.929 . S
C998 C997 1.399 . S
C998 C999 1.385 . S
C999 H985 0.931 . S
C999 C998 1.385 . S
C999 C1000 1.389 . S
C1000 C999 1.389 . S
C1000 C1001 1.387 . S
C1001 H986 0.930 . S
C1001 C996 1.390 . S
C1001 C1000 1.387 . S
H1002 C1014 0.930 . S
H1003 C1016 0.930 . S
H1004 C1017 0.930 . S
H1005 C1021 0.959 . S
H1006 C1021 0.959 . S
H1007 C1021 0.961 . S
H1008 C1022 0.960 . S
H1009 C1022 0.961 . S
H1010 C1022 0.959 . S
H1011 C1025 0.929 . S
H1012 C1026 0.931 . S
H1013 C1028 0.930 . S
C1014 H1002 0.930 . S
C1014 C1015 1.399 . S
C1014 C1019 1.399 . S
C1015 C1014 1.399 . S
C1015 C1016 1.376 . S
C1016 H1003 0.930 . S
C1016 C1015 1.376 . S
C1016 C1017 1.388 . S
C1017 H1004 0.930 . S
C1017 C1016 1.388 . S
C1017 C1018 1.390 . S
C1018 C1017 1.390 . S
C1018 C1019 1.394 . S
C1018 C1024 1.465 . S
C1019 C1014 1.399 . S
C1019 C1018 1.394 . S
C1019 C1020 1.516 . S
C1020 C1019 1.516 . S
C1020 C1021 1.502 . S
C1020 C1022 1.561 . S
C1020 C1023 1.526 . S
C1021 H1005 0.959 . S
C1021 H1006 0.959 . S
C1021 H1007 0.961 . S
C1021 C1020 1.502 . S
C1022 H1008 0.960 . S
C1022 H1009 0.961 . S
C1022 H1010 0.959 . S
C1022 C1020 1.561 . S
C1023 C1020 1.526 . S
C1023 C1024 1.396 . S
C1023 C1028 1.390 . S
C1024 C1018 1.465 . S
C1024 C1023 1.396 . S
C1024 C1025 1.399 . S
C1025 H1011 0.929 . S
C1025 C1024 1.399 . S
C1025 C1026 1.385 . S
C1026 H1012 0.931 . S
C1026 C1025 1.385 . S
C1026 C1027 1.389 . S
C1027 C1026 1.389 . S
C1027 C1028 1.387 . S
C1028 H1013 0.930 . S
C1028 C1023 1.390 . S
C1028 C1027 1.387 . S
H1029 C1041 0.930 . S
H1030 C1043 0.930 . S
H1031 C1044 0.930 . S
H1032 C1048 0.959 . S
H1033 C1048 0.959 . S
H1034 C1048 0.961 . S
H1035 C1049 0.960 . S
H1036 C1049 0.961 . S
H1037 C1049 0.959 . S
H1038 C1052 0.929 . S
H1039 C1053 0.931 . S
H1040 C1055 0.930 . S
C1041 H1029 0.930 . S
C1041 C1042 1.399 . S
C1041 C1046 1.399 . S
C1042 C1041 1.399 . S
C1042 C1043 1.376 . S
C1043 H1030 0.930 . S
C1043 C1042 1.376 . S
C1043 C1044 1.388 . S
C1044 H1031 0.930 . S
C1044 C1043 1.388 . S
C1044 C1045 1.390 . S
C1045 C1044 1.390 . S
C1045 C1046 1.394 . S
C1045 C1051 1.465 . S
C1046 C1041 1.399 . S
C1046 C1045 1.394 . S
C1046 C1047 1.516 . S
C1047 C1046 1.516 . S
C1047 C1048 1.502 . S
C1047 C1049 1.561 . S
C1047 C1050 1.526 . S
C1048 H1032 0.959 . S
C1048 H1033 0.959 . S
C1048 H1034 0.961 . S
C1048 C1047 1.502 . S
C1049 H1035 0.960 . S
C1049 H1036 0.961 . S
C1049 H1037 0.959 . S
C1049 C1047 1.561 . S
C1050 C1047 1.526 . S
C1050 C1051 1.396 . S
C1050 C1055 1.390 . S
C1051 C1045 1.465 . S
C1051 C1050 1.396 . S
C1051 C1052 1.399 . S
C1052 H1038 0.929 . S
C1052 C1051 1.399 . S
C1052 C1053 1.385 . S
C1053 H1039 0.931 . S
C1053 C1052 1.385 . S
C1053 C1054 1.389 . S
C1054 C1053 1.389 . S
C1054 C1055 1.387 . S
C1055 H1040 0.930 . S
C1055 C1050 1.390 . S
C1055 C1054 1.387 . S
H1056 C1068 0.930 . S
H1057 C1070 0.930 . S
H1058 C1071 0.930 . S
H1059 C1075 0.959 . S
H1060 C1075 0.959 . S
H1061 C1075 0.961 . S
H1062 C1076 0.960 . S
H1063 C1076 0.961 . S
H1064 C1076 0.959 . S
H1065 C1079 0.929 . S
H1066 C1080 0.931 . S
H1067 C1082 0.930 . S
C1068 H1056 0.930 . S
C1068 C1069 1.399 . S
C1068 C1073 1.399 . S
C1069 C1068 1.399 . S
C1069 C1070 1.376 1_554 S
C1070 H1057 0.930 . S
C1070 C1069 1.376 1_556 S
C1070 C1071 1.388 . S
C1071 H1058 0.930 . S
C1071 C1070 1.388 . S
C1071 C1072 1.390 1_556 S
C1072 C1071 1.390 1_554 S
C1072 C1073 1.394 . S
C1072 C1078 1.465 . S
C1073 C1068 1.399 . S
C1073 C1072 1.394 . S
C1073 C1074 1.516 . S
C1074 C1073 1.516 . S
C1074 C1075 1.502 . S
C1074 C1076 1.561 . S
C1074 C1077 1.526 . S
C1075 H1059 0.959 . S
C1075 H1060 0.959 . S
C1075 H1061 0.961 . S
C1075 C1074 1.502 . S
C1076 H1062 0.960 . S
C1076 H1063 0.961 . S
C1076 H1064 0.959 . S
C1076 C1074 1.561 . S
C1077 C1074 1.526 . S
C1077 C1078 1.396 . S
C1077 C1082 1.390 . S
C1078 C1072 1.465 . S
C1078 C1077 1.396 . S
C1078 C1079 1.399 1_554 S
C1079 H1065 0.929 . S
C1079 C1078 1.399 1_556 S
C1079 C1080 1.385 . S
C1080 H1066 0.931 . S
C1080 C1079 1.385 . S
C1080 C1081 1.389 1_556 S
C1081 C1080 1.389 1_554 S
C1081 C1082 1.387 . S
C1082 H1067 0.930 . S
C1082 C1077 1.390 . S
C1082 C1081 1.387 . S
H1083 C1095 0.930 . S
H1084 C1097 0.930 . S
H1085 C1098 0.930 . S
H1086 C1102 0.959 . S
H1087 C1102 0.959 . S
H1088 C1102 0.961 . S
H1089 C1103 0.960 . S
H1090 C1103 0.961 . S
H1091 C1103 0.959 . S
H1092 C1106 0.929 . S
H1093 C1107 0.931 . S
H1094 C1109 0.930 1_556 S
C1095 H1083 0.930 . S
C1095 C1096 1.399 1_556 S
C1095 C1100 1.399 1_556 S
C1096 C1095 1.399 1_554 S
C1096 C1097 1.376 . S
C1097 H1084 0.930 . S
C1097 C1096 1.376 . S
C1097 C1098 1.388 . S
C1098 H1085 0.930 . S
C1098 C1097 1.388 . S
C1098 C1099 1.390 . S
C1099 C1098 1.390 . S
C1099 C1100 1.394 . S
C1099 C1105 1.465 . S
C1100 C1095 1.399 1_554 S
C1100 C1099 1.394 . S
C1100 C1101 1.516 1_554 S
C1101 C1100 1.516 1_556 S
C1101 C1102 1.502 . S
C1101 C1103 1.561 . S
C1101 C1104 1.526 1_556 S
C1102 H1086 0.959 . S
C1102 H1087 0.959 . S
C1102 H1088 0.961 . S
C1102 C1101 1.502 . S
C1103 H1089 0.960 . S
C1103 H1090 0.961 . S
C1103 H1091 0.959 . S
C1103 C1101 1.561 . S
C1104 C1101 1.526 1_554 S
C1104 C1105 1.396 . S
C1104 C1109 1.389 . S
C1105 C1099 1.465 . S
C1105 C1104 1.396 . S
C1105 C1106 1.399 . S
C1106 H1092 0.929 . S
C1106 C1105 1.399 . S
C1106 C1107 1.385 . S
C1107 H1093 0.931 . S
C1107 C1106 1.385 . S
C1107 C1108 1.389 . S
C1108 C1107 1.389 . S
C1108 C1109 1.386 . S
C1109 H1094 0.930 1_554 S
C1109 C1104 1.389 . S
C1109 C1108 1.386 . S
H1110 C1122 0.930 1_556 S
H1111 C1124 0.930 . S
H1112 C1125 0.930 . S
H1113 C1129 0.959 1_554 S
H1114 C1129 0.959 . S
H1115 C1129 0.961 . S
H1116 C1130 0.960 . S
H1117 C1130 0.961 . S
H1118 C1130 0.959 . S
H1119 C1133 0.929 . S
H1120 C1134 0.931 . S
H1121 C1136 0.930 1_556 S
C1122 H1110 0.930 1_554 S
C1122 C1123 1.399 . S
C1122 C1127 1.399 . S
C1123 C1122 1.399 . S
C1123 C1124 1.376 . S
C1124 H1111 0.930 . S
C1124 C1123 1.376 . S
C1124 C1125 1.388 . S
C1125 H1112 0.930 . S
C1125 C1124 1.388 . S
C1125 C1126 1.390 . S
C1126 C1125 1.390 . S
C1126 C1127 1.394 . S
C1126 C1132 1.465 . S
C1127 C1122 1.399 . S
C1127 C1126 1.394 . S
C1127 C1128 1.516 1_554 S
C1128 C1127 1.516 1_556 S
C1128 C1129 1.502 . S
C1128 C1130 1.561 . S
C1128 C1131 1.526 1_556 S
C1129 H1113 0.959 1_556 S
C1129 H1114 0.959 . S
C1129 H1115 0.961 . S
C1129 C1128 1.502 . S
C1130 H1116 0.960 . S
C1130 H1117 0.961 . S
C1130 H1118 0.959 . S
C1130 C1128 1.561 . S
C1131 C1128 1.526 1_554 S
C1131 C1132 1.396 . S
C1131 C1136 1.390 . S
C1132 C1126 1.465 . S
C1132 C1131 1.396 . S
C1132 C1133 1.399 . S
C1133 H1119 0.929 . S
C1133 C1132 1.399 . S
C1133 C1134 1.385 . S
C1134 H1120 0.931 . S
C1134 C1133 1.385 . S
C1134 C1135 1.389 . S
C1135 C1134 1.389 . S
C1135 C1136 1.387 . S
C1136 H1121 0.930 1_554 S
C1136 C1131 1.390 . S
C1136 C1135 1.387 . S
H1137 C1149 0.930 . S
H1138 C1151 0.930 . S
H1139 C1152 0.930 . S
H1140 C1156 0.959 . S
H1141 C1156 0.959 . S
H1142 C1156 0.961 . S
H1143 C1157 0.960 . S
H1144 C1157 0.961 . S
H1145 C1157 0.959 . S
H1146 C1160 0.929 . S
H1147 C1161 0.931 . S
H1148 C1163 0.930 . S
C1149 H1137 0.930 . S
C1149 C1150 1.399 1_556 S
C1149 C1154 1.399 1_556 S
C1150 C1149 1.399 1_554 S
C1150 C1151 1.376 . S
C1151 H1138 0.930 . S
C1151 C1150 1.376 . S
C1151 C1152 1.388 . S
C1152 H1139 0.930 . S
C1152 C1151 1.388 . S
C1152 C1153 1.390 . S
C1153 C1152 1.390 . S
C1153 C1154 1.394 . S
C1153 C1159 1.465 . S
C1154 C1149 1.399 1_554 S
C1154 C1153 1.394 . S
C1154 C1155 1.516 1_554 S
C1155 C1154 1.516 1_556 S
C1155 C1156 1.502 . S
C1155 C1157 1.561 . S
C1155 C1158 1.526 1_556 S
C1156 H1140 0.959 . S
C1156 H1141 0.959 . S
C1156 H1142 0.961 . S
C1156 C1155 1.502 . S
C1157 H1143 0.960 . S
C1157 H1144 0.961 . S
C1157 H1145 0.959 . S
C1157 C1155 1.561 . S
C1158 C1155 1.526 1_554 S
C1158 C1159 1.396 . S
C1158 C1163 1.390 1_554 S
C1159 C1153 1.465 . S
C1159 C1158 1.396 . S
C1159 C1160 1.399 . S
C1160 H1146 0.929 . S
C1160 C1159 1.399 . S
C1160 C1161 1.385 . S
C1161 H1147 0.931 . S
C1161 C1160 1.385 . S
C1161 C1162 1.389 . S
C1162 C1161 1.389 . S
C1162 C1163 1.387 1_554 S
C1163 H1148 0.930 . S
C1163 C1158 1.390 1_556 S
C1163 C1162 1.387 1_556 S
H1164 C1176 0.930 . S
H1165 C1178 0.930 . S
H1166 C1179 0.930 . S
H1167 C1183 0.959 . S
H1168 C1183 0.959 . S
H1169 C1183 0.961 . S
H1170 C1184 0.960 . S
H1171 C1184 0.961 . S
H1172 C1184 0.959 . S
H1173 C1187 0.929 . S
H1174 C1188 0.931 . S
H1175 C1190 0.930 . S
C1176 H1164 0.930 . S
C1176 C1177 1.399 . S
C1176 C1181 1.399 . S
C1177 C1176 1.399 . S
C1177 C1178 1.376 1_554 S
C1178 H1165 0.930 . S
C1178 C1177 1.376 1_556 S
C1178 C1179 1.388 . S
C1179 H1166 0.930 . S
C1179 C1178 1.388 . S
C1179 C1180 1.390 1_556 S
C1180 C1179 1.390 1_554 S
C1180 C1181 1.394 . S
C1180 C1186 1.465 . S
C1181 C1176 1.399 . S
C1181 C1180 1.394 . S
C1181 C1182 1.516 . S
C1182 C1181 1.516 . S
C1182 C1183 1.502 . S
C1182 C1184 1.561 . S
C1182 C1185 1.526 . S
C1183 H1167 0.959 . S
C1183 H1168 0.959 . S
C1183 H1169 0.961 . S
C1183 C1182 1.502 . S
C1184 H1170 0.960 . S
C1184 H1171 0.961 . S
C1184 H1172 0.959 . S
C1184 C1182 1.561 . S
C1185 C1182 1.526 . S
C1185 C1186 1.396 . S
C1185 C1190 1.390 . S
C1186 C1180 1.465 . S
C1186 C1185 1.396 . S
C1186 C1187 1.399 1_554 S
C1187 H1173 0.929 . S
C1187 C1186 1.399 1_556 S
C1187 C1188 1.385 . S
C1188 H1174 0.931 . S
C1188 C1187 1.385 . S
C1188 C1189 1.389 1_556 S
C1189 C1188 1.389 1_554 S
C1189 C1190 1.387 . S
C1190 H1175 0.930 . S
C1190 C1185 1.390 . S
C1190 C1189 1.387 . S
H1191 C1203 0.930 . S
H1192 C1205 0.930 . S
H1193 C1206 0.930 . S
H1194 C1210 0.959 . S
H1195 C1210 0.959 . S
H1196 C1210 0.961 . S
H1197 C1211 0.960 . S
H1198 C1211 0.961 . S
H1199 C1211 0.959 . S
H1200 C1214 0.929 . S
H1201 C1215 0.931 . S
H1202 C1217 0.930 . S
C1203 H1191 0.930 . S
C1203 C1204 1.399 . S
C1203 C1208 1.399 . S
C1204 C1203 1.399 . S
C1204 C1205 1.376 1_554 S
C1205 H1192 0.930 . S
C1205 C1204 1.376 1_556 S
C1205 C1206 1.388 . S
C1206 H1193 0.930 . S
C1206 C1205 1.388 . S
C1206 C1207 1.390 1_556 S
C1207 C1206 1.390 1_554 S
C1207 C1208 1.394 . S
C1207 C1213 1.465 . S
C1208 C1203 1.399 . S
C1208 C1207 1.394 . S
C1208 C1209 1.516 . S
C1209 C1208 1.516 . S
C1209 C1210 1.502 . S
C1209 C1211 1.561 . S
C1209 C1212 1.526 . S
C1210 H1194 0.959 . S
C1210 H1195 0.959 . S
C1210 H1196 0.961 . S
C1210 C1209 1.502 . S
C1211 H1197 0.960 . S
C1211 H1198 0.961 . S
C1211 H1199 0.959 . S
C1211 C1209 1.561 . S
C1212 C1209 1.526 . S
C1212 C1213 1.396 . S
C1212 C1217 1.390 . S
C1213 C1207 1.465 . S
C1213 C1212 1.396 . S
C1213 C1214 1.399 1_554 S
C1214 H1200 0.929 . S
C1214 C1213 1.399 1_556 S
C1214 C1215 1.385 . S
C1215 H1201 0.931 . S
C1215 C1214 1.385 . S
C1215 C1216 1.389 1_556 S
C1216 C1215 1.389 1_554 S
C1216 C1217 1.387 . S
C1217 H1202 0.930 . S
C1217 C1212 1.390 . S
C1217 C1216 1.387 . S
H1218 C1230 0.930 . S
H1219 C1232 0.930 . S
H1220 C1233 0.930 . S
H1221 C1237 0.959 . S
H1222 C1237 0.959 . S
H1223 C1237 0.961 . S
H1224 C1238 0.960 . S
H1225 C1238 0.961 . S
H1226 C1238 0.959 . S
H1227 C1241 0.929 . S
H1228 C1242 0.931 . S
H1229 C1244 0.930 . S
C1230 H1218 0.930 . S
C1230 C1231 1.399 . S
C1230 C1235 1.399 . S
C1231 C1230 1.399 . S
C1231 C1232 1.376 . S
C1232 H1219 0.930 . S
C1232 C1231 1.376 . S
C1232 C1233 1.388 . S
C1233 H1220 0.930 . S
C1233 C1232 1.388 . S
C1233 C1234 1.390 . S
C1234 C1233 1.390 . S
C1234 C1235 1.394 . S
C1234 C1240 1.465 . S
C1235 C1230 1.399 . S
C1235 C1234 1.394 . S
C1235 C1236 1.516 . S
C1236 C1235 1.516 . S
C1236 C1237 1.502 . S
C1236 C1238 1.561 . S
C1236 C1239 1.526 . S
C1237 H1221 0.959 . S
C1237 H1222 0.959 . S
C1237 H1223 0.961 . S
C1237 C1236 1.502 . S
C1238 H1224 0.960 . S
C1238 H1225 0.961 . S
C1238 H1226 0.959 . S
C1238 C1236 1.561 . S
C1239 C1236 1.526 . S
C1239 C1240 1.396 . S
C1239 C1244 1.390 . S
C1240 C1234 1.465 . S
C1240 C1239 1.396 . S
C1240 C1241 1.399 . S
C1241 H1227 0.929 . S
C1241 C1240 1.399 . S
C1241 C1242 1.385 . S
C1242 H1228 0.931 . S
C1242 C1241 1.385 . S
C1242 C1243 1.389 . S
C1243 C1242 1.389 . S
C1243 C1244 1.387 . S
C1244 H1229 0.930 . S
C1244 C1239 1.390 . S
C1244 C1243 1.387 . S
H1245 C1257 0.930 . S
H1246 C1259 0.930 . S
H1247 C1260 0.930 . S
H1248 C1264 0.959 . S
H1249 C1264 0.959 . S
H1250 C1264 0.961 . S
H1251 C1265 0.960 . S
H1252 C1265 0.961 . S
H1253 C1265 0.959 . S
H1254 C1268 0.929 . S
H1255 C1269 0.931 . S
H1256 C1271 0.930 . S
C1257 H1245 0.930 . S
C1257 C1258 1.399 . S
C1257 C1262 1.399 . S
C1258 C1257 1.399 . S
C1258 C1259 1.376 . S
C1259 H1246 0.930 . S
C1259 C1258 1.376 . S
C1259 C1260 1.388 . S
C1260 H1247 0.930 . S
C1260 C1259 1.388 . S
C1260 C1261 1.390 . S
C1261 C1260 1.390 . S
C1261 C1262 1.394 . S
C1261 C1267 1.465 . S
C1262 C1257 1.399 . S
C1262 C1261 1.394 . S
C1262 C1263 1.516 . S
C1263 C1262 1.516 . S
C1263 C1264 1.502 . S
C1263 C1265 1.561 . S
C1263 C1266 1.526 . S
C1264 H1248 0.959 . S
C1264 H1249 0.959 . S
C1264 H1250 0.961 . S
C1264 C1263 1.502 . S
C1265 H1251 0.960 . S
C1265 H1252 0.961 . S
C1265 H1253 0.959 . S
C1265 C1263 1.561 . S
C1266 C1263 1.526 . S
C1266 C1267 1.396 . S
C1266 C1271 1.390 . S
C1267 C1261 1.465 . S
C1267 C1266 1.396 . S
C1267 C1268 1.399 . S
C1268 H1254 0.929 . S
C1268 C1267 1.399 . S
C1268 C1269 1.385 . S
C1269 H1255 0.931 . S
C1269 C1268 1.385 . S
C1269 C1270 1.389 . S
C1270 C1269 1.389 . S
C1270 C1271 1.387 . S
C1271 H1256 0.930 . S
C1271 C1266 1.390 . S
C1271 C1270 1.387 . S
H1272 C1284 0.930 . S
H1273 C1286 0.930 . S
H1274 C1287 0.930 . S
H1275 C1291 0.959 . S
H1276 C1291 0.959 . S
H1277 C1291 0.961 . S
H1278 C1292 0.960 . S
H1279 C1292 0.961 . S
H1280 C1292 0.959 . S
H1281 C1295 0.929 . S
H1282 C1296 0.931 . S
H1283 C1298 0.930 . S
C1284 H1272 0.930 . S
C1284 C1285 1.399 . S
C1284 C1289 1.399 . S
C1285 C1284 1.399 . S
C1285 C1286 1.376 . S
C1286 H1273 0.930 . S
C1286 C1285 1.376 . S
C1286 C1287 1.388 . S
C1287 H1274 0.930 . S
C1287 C1286 1.388 . S
C1287 C1288 1.390 . S
C1288 C1287 1.390 . S
C1288 C1289 1.394 . S
C1288 C1294 1.465 . S
C1289 C1284 1.399 . S
C1289 C1288 1.394 . S
C1289 C1290 1.516 . S
C1290 C1289 1.516 . S
C1290 C1291 1.502 . S
C1290 C1292 1.561 . S
C1290 C1293 1.526 . S
C1291 H1275 0.959 . S
C1291 H1276 0.959 . S
C1291 H1277 0.961 . S
C1291 C1290 1.502 . S
C1292 H1278 0.960 . S
C1292 H1279 0.961 . S
C1292 H1280 0.959 . S
C1292 C1290 1.561 . S
C1293 C1290 1.526 . S
C1293 C1294 1.396 . S
C1293 C1298 1.390 . S
C1294 C1288 1.465 . S
C1294 C1293 1.396 . S
C1294 C1295 1.399 . S
C1295 H1281 0.929 . S
C1295 C1294 1.399 . S
C1295 C1296 1.385 . S
C1296 H1282 0.931 . S
C1296 C1295 1.385 . S
C1296 C1297 1.389 . S
C1297 C1296 1.389 . S
C1297 C1298 1.387 . S
C1298 H1283 0.930 . S
C1298 C1293 1.390 . S
C1298 C1297 1.387 . S
H1299 C1311 0.930 . S
H1300 C1313 0.930 . S
H1301 C1314 0.930 . S
H1302 C1318 0.959 . S
H1303 C1318 0.959 . S
H1304 C1318 0.961 . S
H1305 C1319 0.960 . S
H1306 C1319 0.961 . S
H1307 C1319 0.959 . S
H1308 C1322 0.929 . S
H1309 C1323 0.931 . S
H1310 C1325 0.930 . S
C1311 H1299 0.930 . S
C1311 C1312 1.399 . S
C1311 C1316 1.399 . S
C1312 C1311 1.399 . S
C1312 C1313 1.376 . S
C1313 H1300 0.930 . S
C1313 C1312 1.376 . S
C1313 C1314 1.388 . S
C1314 H1301 0.930 . S
C1314 C1313 1.388 . S
C1314 C1315 1.390 . S
C1315 C1314 1.390 . S
C1315 C1316 1.394 . S
C1315 C1321 1.465 . S
C1316 C1311 1.399 . S
C1316 C1315 1.394 . S
C1316 C1317 1.516 . S
C1317 C1316 1.516 . S
C1317 C1318 1.502 . S
C1317 C1319 1.561 . S
C1317 C1320 1.526 . S
C1318 H1302 0.959 . S
C1318 H1303 0.959 . S
C1318 H1304 0.961 . S
C1318 C1317 1.502 . S
C1319 H1305 0.960 . S
C1319 H1306 0.961 . S
C1319 H1307 0.959 . S
C1319 C1317 1.561 . S
C1320 C1317 1.526 . S
C1320 C1321 1.396 . S
C1320 C1325 1.390 . S
C1321 C1315 1.465 . S
C1321 C1320 1.396 . S
C1321 C1322 1.399 . S
C1322 H1308 0.929 . S
C1322 C1321 1.399 . S
C1322 C1323 1.385 . S
C1323 H1309 0.931 . S
C1323 C1322 1.385 . S
C1323 C1324 1.389 . S
C1324 C1323 1.389 . S
C1324 C1325 1.387 . S
C1325 H1310 0.930 . S
C1325 C1320 1.390 . S
C1325 C1324 1.387 . S
H1326 C1338 0.930 . S
H1327 C1340 0.930 . S
H1328 C1341 0.930 . S
H1329 C1345 0.959 . S
H1330 C1345 0.959 . S
H1331 C1345 0.961 . S
H1332 C1346 0.960 . S
H1333 C1346 0.961 . S
H1334 C1346 0.959 . S
H1335 C1349 0.929 . S
H1336 C1350 0.931 . S
H1337 C1352 0.930 . S
C1338 H1326 0.930 . S
C1338 C1339 1.399 . S
C1338 C1343 1.399 . S
C1339 C1338 1.399 . S
C1339 C1340 1.376 . S
C1340 H1327 0.930 . S
C1340 C1339 1.376 . S
C1340 C1341 1.388 . S
C1341 H1328 0.930 . S
C1341 C1340 1.388 . S
C1341 C1342 1.390 . S
C1342 C1341 1.390 . S
C1342 C1343 1.394 . S
C1342 C1348 1.465 . S
C1343 C1338 1.399 . S
C1343 C1342 1.394 . S
C1343 C1344 1.516 . S
C1344 C1343 1.516 . S
C1344 C1345 1.502 . S
C1344 C1346 1.561 . S
C1344 C1347 1.526 . S
C1345 H1329 0.959 . S
C1345 H1330 0.959 . S
C1345 H1331 0.961 . S
C1345 C1344 1.502 . S
C1346 H1332 0.960 . S
C1346 H1333 0.961 . S
C1346 H1334 0.959 . S
C1346 C1344 1.561 . S
C1347 C1344 1.526 . S
C1347 C1348 1.396 . S
C1347 C1352 1.390 . S
C1348 C1342 1.465 . S
C1348 C1347 1.396 . S
C1348 C1349 1.399 . S
C1349 H1335 0.929 . S
C1349 C1348 1.399 . S
C1349 C1350 1.385 . S
C1350 H1336 0.931 . S
C1350 C1349 1.385 . S
C1350 C1351 1.389 . S
C1351 C1350 1.389 . S
C1351 C1352 1.387 . S
C1352 H1337 0.930 . S
C1352 C1347 1.390 . S
C1352 C1351 1.387 . S
H1353 C1365 0.930 . S
H1354 C1367 0.930 . S
H1355 C1368 0.930 . S
H1356 C1372 0.959 . S
H1357 C1372 0.959 . S
H1358 C1372 0.961 . S
H1359 C1373 0.960 . S
H1360 C1373 0.961 . S
H1361 C1373 0.959 . S
H1362 C1376 0.929 . S
H1363 C1377 0.931 . S
H1364 C1379 0.930 . S
C1365 H1353 0.930 . S
C1365 C1366 1.399 . S
C1365 C1370 1.399 . S
C1366 C1365 1.399 . S
C1366 C1367 1.376 . S
C1367 H1354 0.930 . S
C1367 C1366 1.376 . S
C1367 C1368 1.388 . S
C1368 H1355 0.930 . S
C1368 C1367 1.388 . S
C1368 C1369 1.390 . S
C1369 C1368 1.390 . S
C1369 C1370 1.394 . S
C1369 C1375 1.465 . S
C1370 C1365 1.399 . S
C1370 C1369 1.394 . S
C1370 C1371 1.516 . S
C1371 C1370 1.516 . S
C1371 C1372 1.502 . S
C1371 C1373 1.561 . S
C1371 C1374 1.526 . S
C1372 H1356 0.959 . S
C1372 H1357 0.959 . S
C1372 H1358 0.961 . S
C1372 C1371 1.502 . S
C1373 H1359 0.960 . S
C1373 H1360 0.961 . S
C1373 H1361 0.959 . S
C1373 C1371 1.561 . S
C1374 C1371 1.526 . S
C1374 C1375 1.396 . S
C1374 C1379 1.390 . S
C1375 C1369 1.465 . S
C1375 C1374 1.396 . S
C1375 C1376 1.399 . S
C1376 H1362 0.929 . S
C1376 C1375 1.399 . S
C1376 C1377 1.385 . S
C1377 H1363 0.931 . S
C1377 C1376 1.385 . S
C1377 C1378 1.389 . S
C1378 C1377 1.389 . S
C1378 C1379 1.387 . S
C1379 H1364 0.930 . S
C1379 C1374 1.390 . S
C1379 C1378 1.387 . S
H1380 C1392 0.930 . S
H1381 C1394 0.930 . S
H1382 C1395 0.930 . S
H1383 C1399 0.959 . S
H1384 C1399 0.959 . S
H1385 C1399 0.961 . S
H1386 C1400 0.960 . S
H1387 C1400 0.961 1_565 S
H1388 C1400 0.959 . S
H1389 C1403 0.929 1_545 S
H1390 C1404 0.931 . S
H1391 C1406 0.930 . S
C1392 H1380 0.930 . S
C1392 C1393 1.399 . S
C1392 C1397 1.399 . S
C1393 C1392 1.399 . S
C1393 C1394 1.376 1_556 S
C1394 H1381 0.930 . S
C1394 C1393 1.376 1_554 S
C1394 C1395 1.388 . S
C1395 H1382 0.930 . S
C1395 C1394 1.388 . S
C1395 C1396 1.390 1_554 S
C1396 C1395 1.390 1_556 S
C1396 C1397 1.394 . S
C1396 C1402 1.465 1_545 S
C1397 C1392 1.399 . S
C1397 C1396 1.394 . S
C1397 C1398 1.516 1_545 S
C1398 C1397 1.516 1_565 S
C1398 C1399 1.502 . S
C1398 C1400 1.561 1_565 S
C1398 C1401 1.526 . S
C1399 H1383 0.959 . S
C1399 H1384 0.959 . S
C1399 H1385 0.961 . S
C1399 C1398 1.502 . S
C1400 H1386 0.960 . S
C1400 H1387 0.961 1_545 S
C1400 H1388 0.959 . S
C1400 C1398 1.561 1_545 S
C1401 C1398 1.526 . S
C1401 C1402 1.396 . S
C1401 C1406 1.390 . S
C1402 C1396 1.465 1_565 S
C1402 C1401 1.396 . S
C1402 C1403 1.399 1_556 S
C1403 H1389 0.929 1_565 S
C1403 C1402 1.399 1_554 S
C1403 C1404 1.385 . S
C1404 H1390 0.931 . S
C1404 C1403 1.385 . S
C1404 C1405 1.389 1_554 S
C1405 C1404 1.389 1_556 S
C1405 C1406 1.387 . S
C1406 H1391 0.930 . S
C1406 C1401 1.390 . S
C1406 C1405 1.387 . S
H1407 C1419 0.930 . S
H1408 C1421 0.930 . S
H1409 C1422 0.930 . S
H1410 C1426 0.959 . S
H1411 C1426 0.959 . S
H1412 C1426 0.961 . S
H1413 C1427 0.960 . S
H1414 C1427 0.961 . S
H1415 C1427 0.959 . S
H1416 C1430 0.929 . S
H1417 C1431 0.931 . S
H1418 C1433 0.930 . S
C1419 H1407 0.930 . S
C1419 C1420 1.399 . S
C1419 C1424 1.399 . S
C1420 C1419 1.399 . S
C1420 C1421 1.376 1_556 S
C1421 H1408 0.930 . S
C1421 C1420 1.376 1_554 S
C1421 C1422 1.388 . S
C1422 H1409 0.930 . S
C1422 C1421 1.388 . S
C1422 C1423 1.390 1_554 S
C1423 C1422 1.390 1_556 S
C1423 C1424 1.394 . S
C1423 C1429 1.465 . S
C1424 C1419 1.399 . S
C1424 C1423 1.394 . S
C1424 C1425 1.516 . S
C1425 C1424 1.516 . S
C1425 C1426 1.502 . S
C1425 C1427 1.561 . S
C1425 C1428 1.526 . S
C1426 H1410 0.959 . S
C1426 H1411 0.959 . S
C1426 H1412 0.961 . S
C1426 C1425 1.502 . S
C1427 H1413 0.960 . S
C1427 H1414 0.961 . S
C1427 H1415 0.959 . S
C1427 C1425 1.561 . S
C1428 C1425 1.526 . S
C1428 C1429 1.396 . S
C1428 C1433 1.390 . S
C1429 C1423 1.465 . S
C1429 C1428 1.396 . S
C1429 C1430 1.399 1_556 S
C1430 H1416 0.929 . S
C1430 C1429 1.399 1_554 S
C1430 C1431 1.385 . S
C1431 H1417 0.931 . S
C1431 C1430 1.385 . S
C1431 C1432 1.389 1_554 S
C1432 C1431 1.389 1_556 S
C1432 C1433 1.387 . S
C1433 H1418 0.930 . S
C1433 C1428 1.390 . S
C1433 C1432 1.387 . S
H1434 C1446 0.930 1_554 S
H1435 C1448 0.930 . S
H1436 C1449 0.930 . S
H1437 C1453 0.959 . S
H1438 C1453 0.959 . S
H1439 C1453 0.961 . S
H1440 C1454 0.960 1_554 S
H1441 C1454 0.961 1_554 S
H1442 C1454 0.959 . S
H1443 C1457 0.929 1_655 S
H1444 C1458 0.931 . S
H1445 C1460 0.930 1_554 S
C1446 H1434 0.930 1_556 S
C1446 C1447 1.399 . S
C1446 C1451 1.399 . S
C1447 C1446 1.399 . S
C1447 C1448 1.376 . S
C1448 H1435 0.930 . S
C1448 C1447 1.376 . S
C1448 C1449 1.388 . S
C1449 H1436 0.930 . S
C1449 C1448 1.388 . S
C1449 C1450 1.390 . S
C1450 C1449 1.390 . S
C1450 C1451 1.394 . S
C1450 C1456 1.465 1_655 S
C1451 C1446 1.399 . S
C1451 C1450 1.394 . S
C1451 C1452 1.516 1_656 S
C1452 C1451 1.516 1_454 S
C1452 C1453 1.502 . S
C1452 C1454 1.561 1_554 S
C1452 C1455 1.526 1_554 S
C1453 H1437 0.959 . S
C1453 H1438 0.959 . S
C1453 H1439 0.961 . S
C1453 C1452 1.502 . S
C1454 H1440 0.960 1_556 S
C1454 H1441 0.961 1_556 S
C1454 H1442 0.959 . S
C1454 C1452 1.561 1_556 S
C1455 C1452 1.526 1_556 S
C1455 C1456 1.396 . S
C1455 C1460 1.390 . S
C1456 C1450 1.465 1_455 S
C1456 C1455 1.396 . S
C1456 C1457 1.399 . S
C1457 H1443 0.929 1_455 S
C1457 C1456 1.399 . S
C1457 C1458 1.385 . S
C1458 H1444 0.931 . S
C1458 C1457 1.385 . S
C1458 C1459 1.389 . S
C1459 C1458 1.389 . S
C1459 C1460 1.387 . S
C1460 H1445 0.930 1_556 S
C1460 C1455 1.390 . S
C1460 C1459 1.387 . S
H1461 C1473 0.930 . S
H1462 C1475 0.930 . S
H1463 C1476 0.930 1_455 S
H1464 C1480 0.959 . S
H1465 C1480 0.959 . S
H1466 C1480 0.961 . S
H1467 C1481 0.960 1_655 S
H1468 C1481 0.961 . S
H1469 C1481 0.959 . S
H1470 C1484 0.929 . S
H1471 C1485 0.931 . S
H1472 C1487 0.930 . S
C1473 H1461 0.930 . S
C1473 C1474 1.399 . S
C1473 C1478 1.399 . S
C1474 C1473 1.399 . S
C1474 C1475 1.376 . S
C1475 H1462 0.930 . S
C1475 C1474 1.376 . S
C1475 C1476 1.388 . S
C1476 H1463 0.930 1_655 S
C1476 C1475 1.388 . S
C1476 C1477 1.390 . S
C1477 C1476 1.390 . S
C1477 C1478 1.394 . S
C1477 C1483 1.465 1_655 S
C1478 C1473 1.399 . S
C1478 C1477 1.394 . S
C1478 C1479 1.516 . S
C1479 C1478 1.516 . S
C1479 C1480 1.502 . S
C1479 C1481 1.561 1_655 S
C1479 C1482 1.526 1_655 S
C1480 H1464 0.959 . S
C1480 H1465 0.959 . S
C1480 H1466 0.961 . S
C1480 C1479 1.502 . S
C1481 H1467 0.960 1_455 S
C1481 H1468 0.961 . S
C1481 H1469 0.959 . S
C1481 C1479 1.561 1_455 S
C1482 C1479 1.526 1_455 S
C1482 C1483 1.396 . S
C1482 C1487 1.390 . S
C1483 C1477 1.465 1_455 S
C1483 C1482 1.396 . S
C1483 C1484 1.399 . S
C1484 H1470 0.929 . S
C1484 C1483 1.399 . S
C1484 C1485 1.385 . S
C1485 H1471 0.931 . S
C1485 C1484 1.385 . S
C1485 C1486 1.389 . S
C1486 C1485 1.389 . S
C1486 C1487 1.387 . S
C1487 H1472 0.930 . S
C1487 C1482 1.390 . S
C1487 C1486 1.387 . S
H1488 C1500 0.930 . S
H1489 C1502 0.930 . S
H1490 C1503 0.930 . S
H1491 C1507 0.959 . S
H1492 C1507 0.959 . S
H1493 C1507 0.961 . S
H1494 C1508 0.960 . S
H1495 C1508 0.961 . S
H1496 C1508 0.959 . S
H1497 C1511 0.929 . S
H1498 C1512 0.931 . S
H1499 C1514 0.930 . S
C1500 H1488 0.930 . S
C1500 C1501 1.399 . S
C1500 C1505 1.399 . S
C1501 C1500 1.399 . S
C1501 C1502 1.376 . S
C1502 H1489 0.930 . S
C1502 C1501 1.376 . S
C1502 C1503 1.388 . S
C1503 H1490 0.930 . S
C1503 C1502 1.388 . S
C1503 C1504 1.390 . S
C1504 C1503 1.390 . S
C1504 C1505 1.394 . S
C1504 C1510 1.465 1_545 S
C1505 C1500 1.399 . S
C1505 C1504 1.394 . S
C1505 C1506 1.516 1_545 S
C1506 C1505 1.516 1_565 S
C1506 C1507 1.502 . S
C1506 C1508 1.561 1_565 S
C1506 C1509 1.526 . S
C1507 H1491 0.959 . S
C1507 H1492 0.959 . S
C1507 H1493 0.961 . S
C1507 C1506 1.502 . S
C1508 H1494 0.960 . S
C1508 H1495 0.961 . S
C1508 H1496 0.959 . S
C1508 C1506 1.561 1_545 S
C1509 C1506 1.526 . S
C1509 C1510 1.396 . S
C1509 C1514 1.390 . S
C1510 C1504 1.465 1_565 S
C1510 C1509 1.396 . S
C1510 C1511 1.399 . S
C1511 H1497 0.929 . S
C1511 C1510 1.399 . S
C1511 C1512 1.385 . S
C1512 H1498 0.931 . S
C1512 C1511 1.385 . S
C1512 C1513 1.389 . S
C1513 C1512 1.389 . S
C1513 C1514 1.387 . S
C1514 H1499 0.930 . S
C1514 C1509 1.390 . S
C1514 C1513 1.387 . S
H1515 C1527 0.930 . S
H1516 C1529 0.930 . S
H1517 C1530 0.930 . S
H1518 C1534 0.959 . S
H1519 C1534 0.959 . S
H1520 C1534 0.961 . S
H1521 C1535 0.960 . S
H1522 C1535 0.961 . S
H1523 C1535 0.959 . S
H1524 C1538 0.929 . S
H1525 C1539 0.931 . S
H1526 C1541 0.930 . S
C1527 H1515 0.930 . S
C1527 C1528 1.399 . S
C1527 C1532 1.399 . S
C1528 C1527 1.399 . S
C1528 C1529 1.376 . S
C1529 H1516 0.930 . S
C1529 C1528 1.376 . S
C1529 C1530 1.388 . S
C1530 H1517 0.930 . S
C1530 C1529 1.388 . S
C1530 C1531 1.390 . S
C1531 C1530 1.390 . S
C1531 C1532 1.394 . S
C1531 C1537 1.465 . S
C1532 C1527 1.399 . S
C1532 C1531 1.394 . S
C1532 C1533 1.516 . S
C1533 C1532 1.516 . S
C1533 C1534 1.502 . S
C1533 C1535 1.561 . S
C1533 C1536 1.526 . S
C1534 H1518 0.959 . S
C1534 H1519 0.959 . S
C1534 H1520 0.961 . S
C1534 C1533 1.502 . S
C1535 H1521 0.960 . S
C1535 H1522 0.961 . S
C1535 H1523 0.959 . S
C1535 C1533 1.561 . S
C1536 C1533 1.526 . S
C1536 C1537 1.396 . S
C1536 C1541 1.390 . S
C1537 C1531 1.465 . S
C1537 C1536 1.396 . S
C1537 C1538 1.399 . S
C1538 H1524 0.929 . S
C1538 C1537 1.399 . S
C1538 C1539 1.385 . S
C1539 H1525 0.931 . S
C1539 C1538 1.385 . S
C1539 C1540 1.389 . S
C1540 C1539 1.389 . S
C1540 C1541 1.387 . S
C1541 H1526 0.930 . S
C1541 C1536 1.390 . S
C1541 C1540 1.387 . S
C421 C28 0.847 . S
C433 C187 0.810 . S
C448 C40 0.841 . S
C460 C17 0.800 . S
C475 C96 0.826 . S
C487 C51 0.786 . S
C502 C108 0.753 . S
C514 C85 0.785 1_554 S
C529 C164 0.847 . S
C541 C119 0.809 . S
C556 C176 0.755 . S
C568 C153 0.776 1_554 S
C583 C210 0.852 . S
C595 C255 0.828 . S
C610 C266 0.757 . S
C622 C289 0.798 . S
C637 C278 0.772 . S
C649 C323 0.818 . S
C664 C357 0.764 . S
C676 C334 0.771 . S
C691 C391 0.832 . S
C703 C346 0.792 . S
C718 C221 0.763 . S
C730 C402 0.780 . S
C745 C287 1.628 . S
C757 C22 1.564 . S
C772 C328 1.592 . S
C784 C49 1.553 . S
C799 C90 1.566 . S
C811 C355 1.624 . S
C826 C396 1.625 . S
C838 C117 1.618 . S
C853 C158 1.593 . S
C865 C219 1.553 . S
C880 C185 1.630 . S
C892 C260 1.566 . S
C907 C389 2.133 . S
C919 C124 2.157 . S
C934 C151 2.095 . S
C946 C226 2.077 . S
C961 C192 2.156 . S
C973 C253 2.133 . S
C988 C15 2.138 . S
C1000 C294 2.076 . S
C1015 C56 2.066 . S
C1027 C321 2.120 . S
C1042 C83 2.150 . S
C1054 C362 2.143 . S
C1069 C74 1.051 . S
C1081 C1 0.951 . S
C1096 C130 1.066 . S
C1108 C37 1.009 . S
C1123 C69 1.053 . S
C1135 C142 1.051 . S
C1150 C105 1.064 . S
C1162 C198 1.056 . S
C1177 C6 1.051 . S
C1189 C137 0.944 . S
C1204 C62 1.049 . S
C1216 C173 0.973 . S
C1231 C207 0.893 . S
C1243 C368 1.061 . S
C1258 C239 0.911 . S
C1270 C380 1.066 . S
C1285 C232 1.067 . S
C1297 C275 0.953 . S
C1312 C244 1.066 . S
C1324 C307 1.004 . S
C1339 C300 1.065 . S
C1351 C343 1.013 . S
C1366 C375 1.000 . S
C1378 C312 1.066 . S
C1393 C3 2.301 . S
C1405 C103 2.340 . S
C1420 C35 2.301 . S
C1432 C139 2.337 . S
C1447 C71 2.356 . S
C1459 C171 2.378 . S
C1474 C205 2.381 . S
C1486 C309 2.344 . S
C1501 C341 2.303 . S
C1513 C241 2.332 . S
C1528 C377 2.301 . S
C1540 C273 2.348 . S
