# Generated by pormake.
# Topology wmy, (6)-cn, num edge types: 1
# Building blocks:
#     Node 0, Type 0, BuildingBlock: OJICUG_clean_sbu_0, # of connection points: 6
#     Node 1, Type 0, BuildingBlock: OJICUG_clean_sbu_0, # of connection points: 6
#     Node 2, Type 0, BuildingBlock: OJICUG_clean_sbu_0, # of connection points: 6
#     Node 3, Type 0, BuildingBlock: OJICUG_clean_sbu_0, # of connection points: 6
#     Node 4, Type 0, BuildingBlock: OJICUG_clean_sbu_0, # of connection points: 6
#     Node 5, Type 0, BuildingBlock: OJICUG_clean_sbu_0, # of connection points: 6
#     Node 6, Type 0, BuildingBlock: OJICUG_clean_sbu_0, # of connection points: 6
#     Node 7, Type 0, BuildingBlock: OJICUG_clean_sbu_0, # of connection points: 6
#     Node 8, Type 0, BuildingBlock: OJICUG_clean_sbu_0, # of connection points: 6
#     Node 9, Type 0, BuildingBlock: OJICUG_clean_sbu_0, # of connection points: 6
#     Node 10, Type 0, BuildingBlock: OJICUG_clean_sbu_0, # of connection points: 6
#     Node 11, Type 0, BuildingBlock: OJICUG_clean_sbu_0, # of connection points: 6
#     Node 12, Type 0, BuildingBlock: OJICUG_clean_sbu_0, # of connection points: 6
#     Node 13, Type 0, BuildingBlock: OJICUG_clean_sbu_0, # of connection points: 6
#     Node 14, Type 0, BuildingBlock: OJICUG_clean_sbu_0, # of connection points: 6
#     Node 15, Type 0, BuildingBlock: OJICUG_clean_sbu_0, # of connection points: 6
#     Node 16, Type 0, BuildingBlock: OJICUG_clean_sbu_0, # of connection points: 6
#     Node 17, Type 0, BuildingBlock: OJICUG_clean_sbu_0, # of connection points: 6
#     Node 18, Type 0, BuildingBlock: OJICUG_clean_sbu_0, # of connection points: 6
#     Node 19, Type 0, BuildingBlock: OJICUG_clean_sbu_0, # of connection points: 6
#     Node 20, Type 0, BuildingBlock: OJICUG_clean_sbu_0, # of connection points: 6
#     Node 21, Type 0, BuildingBlock: OJICUG_clean_sbu_0, # of connection points: 6
#     Node 22, Type 0, BuildingBlock: OJICUG_clean_sbu_0, # of connection points: 6
#     Node 23, Type 0, BuildingBlock: OJICUG_clean_sbu_0, # of connection points: 6
#     Node 24, Type 0, BuildingBlock: OJICUG_clean_sbu_0, # of connection points: 6
#     Node 25, Type 0, BuildingBlock: OJICUG_clean_sbu_0, # of connection points: 6
#     Node 26, Type 0, BuildingBlock: OJICUG_clean_sbu_0, # of connection points: 6
#     Node 27, Type 0, BuildingBlock: OJICUG_clean_sbu_0, # of connection points: 6
#     Node 28, Type 0, BuildingBlock: OJICUG_clean_sbu_0, # of connection points: 6
#     Node 29, Type 0, BuildingBlock: OJICUG_clean_sbu_0, # of connection points: 6
#     Node 30, Type 0, BuildingBlock: OJICUG_clean_sbu_0, # of connection points: 6
#     Node 31, Type 0, BuildingBlock: OJICUG_clean_sbu_0, # of connection points: 6
#     Node 32, Type 0, BuildingBlock: OJICUG_clean_sbu_0, # of connection points: 6
#     Node 33, Type 0, BuildingBlock: OJICUG_clean_sbu_0, # of connection points: 6
#     Node 34, Type 0, BuildingBlock: OJICUG_clean_sbu_0, # of connection points: 6
#     Node 35, Type 0, BuildingBlock: OJICUG_clean_sbu_0, # of connection points: 6
#     Edge 36, Type (0, 0), BuildingBlock: MIFKUJ_clean_linker_0, # of connection points: 2
#     Edge 37, Type (0, 0), BuildingBlock: MIFKUJ_clean_linker_0, # of connection points: 2
#     Edge 38, Type (0, 0), BuildingBlock: MIFKUJ_clean_linker_0, # of connection points: 2
#     Edge 39, Type (0, 0), BuildingBlock: MIFKUJ_clean_linker_0, # of connection points: 2
#     Edge 40, Type (0, 0), BuildingBlock: MIFKUJ_clean_linker_0, # of connection points: 2
#     Edge 41, Type (0, 0), BuildingBlock: MIFKUJ_clean_linker_0, # of connection points: 2
#     Edge 42, Type (0, 0), BuildingBlock: MIFKUJ_clean_linker_0, # of connection points: 2
#     Edge 43, Type (0, 0), BuildingBlock: MIFKUJ_clean_linker_0, # of connection points: 2
#     Edge 44, Type (0, 0), BuildingBlock: MIFKUJ_clean_linker_0, # of connection points: 2
#     Edge 45, Type (0, 0), BuildingBlock: MIFKUJ_clean_linker_0, # of connection points: 2
#     Edge 46, Type (0, 0), BuildingBlock: MIFKUJ_clean_linker_0, # of connection points: 2
#     Edge 47, Type (0, 0), BuildingBlock: MIFKUJ_clean_linker_0, # of connection points: 2
#     Edge 48, Type (0, 0), BuildingBlock: MIFKUJ_clean_linker_0, # of connection points: 2
#     Edge 49, Type (0, 0), BuildingBlock: MIFKUJ_clean_linker_0, # of connection points: 2
#     Edge 50, Type (0, 0), BuildingBlock: MIFKUJ_clean_linker_0, # of connection points: 2
#     Edge 51, Type (0, 0), BuildingBlock: MIFKUJ_clean_linker_0, # of connection points: 2
#     Edge 52, Type (0, 0), BuildingBlock: MIFKUJ_clean_linker_0, # of connection points: 2
#     Edge 53, Type (0, 0), BuildingBlock: MIFKUJ_clean_linker_0, # of connection points: 2
#     Edge 54, Type (0, 0), BuildingBlock: MIFKUJ_clean_linker_0, # of connection points: 2
#     Edge 55, Type (0, 0), BuildingBlock: MIFKUJ_clean_linker_0, # of connection points: 2
#     Edge 56, Type (0, 0), BuildingBlock: MIFKUJ_clean_linker_0, # of connection points: 2
#     Edge 57, Type (0, 0), BuildingBlock: MIFKUJ_clean_linker_0, # of connection points: 2
#     Edge 58, Type (0, 0), BuildingBlock: MIFKUJ_clean_linker_0, # of connection points: 2
#     Edge 59, Type (0, 0), BuildingBlock: MIFKUJ_clean_linker_0, # of connection points: 2
#     Edge 60, Type (0, 0), BuildingBlock: MIFKUJ_clean_linker_0, # of connection points: 2
#     Edge 61, Type (0, 0), BuildingBlock: MIFKUJ_clean_linker_0, # of connection points: 2
#     Edge 62, Type (0, 0), BuildingBlock: MIFKUJ_clean_linker_0, # of connection points: 2
#     Edge 63, Type (0, 0), BuildingBlock: MIFKUJ_clean_linker_0, # of connection points: 2
#     Edge 64, Type (0, 0), BuildingBlock: MIFKUJ_clean_linker_0, # of connection points: 2
#     Edge 65, Type (0, 0), BuildingBlock: MIFKUJ_clean_linker_0, # of connection points: 2
#     Edge 66, Type (0, 0), BuildingBlock: MIFKUJ_clean_linker_0, # of connection points: 2
#     Edge 67, Type (0, 0), BuildingBlock: MIFKUJ_clean_linker_0, # of connection points: 2
#     Edge 68, Type (0, 0), BuildingBlock: MIFKUJ_clean_linker_0, # of connection points: 2
#     Edge 69, Type (0, 0), BuildingBlock: MIFKUJ_clean_linker_0, # of connection points: 2
#     Edge 70, Type (0, 0), BuildingBlock: MIFKUJ_clean_linker_0, # of connection points: 2
#     Edge 71, Type (0, 0), BuildingBlock: MIFKUJ_clean_linker_0, # of connection points: 2
#     Edge 72, Type (0, 0), BuildingBlock: MIFKUJ_clean_linker_0, # of connection points: 2
#     Edge 73, Type (0, 0), BuildingBlock: MIFKUJ_clean_linker_0, # of connection points: 2
#     Edge 74, Type (0, 0), BuildingBlock: MIFKUJ_clean_linker_0, # of connection points: 2
#     Edge 75, Type (0, 0), BuildingBlock: MIFKUJ_clean_linker_0, # of connection points: 2
#     Edge 76, Type (0, 0), BuildingBlock: MIFKUJ_clean_linker_0, # of connection points: 2
#     Edge 77, Type (0, 0), BuildingBlock: MIFKUJ_clean_linker_0, # of connection points: 2
#     Edge 78, Type (0, 0), BuildingBlock: MIFKUJ_clean_linker_0, # of connection points: 2
#     Edge 79, Type (0, 0), BuildingBlock: MIFKUJ_clean_linker_0, # of connection points: 2
#     Edge 80, Type (0, 0), BuildingBlock: MIFKUJ_clean_linker_0, # of connection points: 2
#     Edge 81, Type (0, 0), BuildingBlock: MIFKUJ_clean_linker_0, # of connection points: 2
#     Edge 82, Type (0, 0), BuildingBlock: MIFKUJ_clean_linker_0, # of connection points: 2
#     Edge 83, Type (0, 0), BuildingBlock: MIFKUJ_clean_linker_0, # of connection points: 2
#     Edge 84, Type (0, 0), BuildingBlock: MIFKUJ_clean_linker_0, # of connection points: 2
#     Edge 85, Type (0, 0), BuildingBlock: MIFKUJ_clean_linker_0, # of connection points: 2
#     Edge 86, Type (0, 0), BuildingBlock: MIFKUJ_clean_linker_0, # of connection points: 2
#     Edge 87, Type (0, 0), BuildingBlock: MIFKUJ_clean_linker_0, # of connection points: 2
#     Edge 88, Type (0, 0), BuildingBlock: MIFKUJ_clean_linker_0, # of connection points: 2
#     Edge 89, Type (0, 0), BuildingBlock: MIFKUJ_clean_linker_0, # of connection points: 2
#     Edge 90, Type (0, 0), BuildingBlock: MIFKUJ_clean_linker_0, # of connection points: 2
#     Edge 91, Type (0, 0), BuildingBlock: MIFKUJ_clean_linker_0, # of connection points: 2
#     Edge 92, Type (0, 0), BuildingBlock: MIFKUJ_clean_linker_0, # of connection points: 2
#     Edge 93, Type (0, 0), BuildingBlock: MIFKUJ_clean_linker_0, # of connection points: 2
#     Edge 94, Type (0, 0), BuildingBlock: MIFKUJ_clean_linker_0, # of connection points: 2
#     Edge 95, Type (0, 0), BuildingBlock: MIFKUJ_clean_linker_0, # of connection points: 2
#     Edge 96, Type (0, 0), BuildingBlock: MIFKUJ_clean_linker_0, # of connection points: 2
#     Edge 97, Type (0, 0), BuildingBlock: MIFKUJ_clean_linker_0, # of connection points: 2
#     Edge 98, Type (0, 0), BuildingBlock: MIFKUJ_clean_linker_0, # of connection points: 2
#     Edge 99, Type (0, 0), BuildingBlock: MIFKUJ_clean_linker_0, # of connection points: 2
#     Edge 100, Type (0, 0), BuildingBlock: MIFKUJ_clean_linker_0, # of connection points: 2
#     Edge 101, Type (0, 0), BuildingBlock: MIFKUJ_clean_linker_0, # of connection points: 2
#     Edge 102, Type (0, 0), BuildingBlock: MIFKUJ_clean_linker_0, # of connection points: 2
#     Edge 103, Type (0, 0), BuildingBlock: MIFKUJ_clean_linker_0, # of connection points: 2
#     Edge 104, Type (0, 0), BuildingBlock: MIFKUJ_clean_linker_0, # of connection points: 2
#     Edge 105, Type (0, 0), BuildingBlock: MIFKUJ_clean_linker_0, # of connection points: 2
#     Edge 106, Type (0, 0), BuildingBlock: MIFKUJ_clean_linker_0, # of connection points: 2
#     Edge 107, Type (0, 0), BuildingBlock: MIFKUJ_clean_linker_0, # of connection points: 2
#     Edge 108, Type (0, 0), BuildingBlock: MIFKUJ_clean_linker_0, # of connection points: 2
#     Edge 109, Type (0, 0), BuildingBlock: MIFKUJ_clean_linker_0, # of connection points: 2
#     Edge 110, Type (0, 0), BuildingBlock: MIFKUJ_clean_linker_0, # of connection points: 2
#     Edge 111, Type (0, 0), BuildingBlock: MIFKUJ_clean_linker_0, # of connection points: 2
#     Edge 112, Type (0, 0), BuildingBlock: MIFKUJ_clean_linker_0, # of connection points: 2
#     Edge 113, Type (0, 0), BuildingBlock: MIFKUJ_clean_linker_0, # of connection points: 2
#     Edge 114, Type (0, 0), BuildingBlock: MIFKUJ_clean_linker_0, # of connection points: 2
#     Edge 115, Type (0, 0), BuildingBlock: MIFKUJ_clean_linker_0, # of connection points: 2
#     Edge 116, Type (0, 0), BuildingBlock: MIFKUJ_clean_linker_0, # of connection points: 2
#     Edge 117, Type (0, 0), BuildingBlock: MIFKUJ_clean_linker_0, # of connection points: 2
#     Edge 118, Type (0, 0), BuildingBlock: MIFKUJ_clean_linker_0, # of connection points: 2
#     Edge 119, Type (0, 0), BuildingBlock: MIFKUJ_clean_linker_0, # of connection points: 2
#     Edge 120, Type (0, 0), BuildingBlock: MIFKUJ_clean_linker_0, # of connection points: 2
#     Edge 121, Type (0, 0), BuildingBlock: MIFKUJ_clean_linker_0, # of connection points: 2
#     Edge 122, Type (0, 0), BuildingBlock: MIFKUJ_clean_linker_0, # of connection points: 2
#     Edge 123, Type (0, 0), BuildingBlock: MIFKUJ_clean_linker_0, # of connection points: 2
#     Edge 124, Type (0, 0), BuildingBlock: MIFKUJ_clean_linker_0, # of connection points: 2
#     Edge 125, Type (0, 0), BuildingBlock: MIFKUJ_clean_linker_0, # of connection points: 2
#     Edge 126, Type (0, 0), BuildingBlock: MIFKUJ_clean_linker_0, # of connection points: 2
#     Edge 127, Type (0, 0), BuildingBlock: MIFKUJ_clean_linker_0, # of connection points: 2
#     Edge 128, Type (0, 0), BuildingBlock: MIFKUJ_clean_linker_0, # of connection points: 2
#     Edge 129, Type (0, 0), BuildingBlock: MIFKUJ_clean_linker_0, # of connection points: 2
#     Edge 130, Type (0, 0), BuildingBlock: MIFKUJ_clean_linker_0, # of connection points: 2
#     Edge 131, Type (0, 0), BuildingBlock: MIFKUJ_clean_linker_0, # of connection points: 2
#     Edge 132, Type (0, 0), BuildingBlock: MIFKUJ_clean_linker_0, # of connection points: 2
#     Edge 133, Type (0, 0), BuildingBlock: MIFKUJ_clean_linker_0, # of connection points: 2
#     Edge 134, Type (0, 0), BuildingBlock: MIFKUJ_clean_linker_0, # of connection points: 2
#     Edge 135, Type (0, 0), BuildingBlock: MIFKUJ_clean_linker_0, # of connection points: 2
#     Edge 136, Type (0, 0), BuildingBlock: MIFKUJ_clean_linker_0, # of connection points: 2
#     Edge 137, Type (0, 0), BuildingBlock: MIFKUJ_clean_linker_0, # of connection points: 2
#     Edge 138, Type (0, 0), BuildingBlock: MIFKUJ_clean_linker_0, # of connection points: 2
#     Edge 139, Type (0, 0), BuildingBlock: MIFKUJ_clean_linker_0, # of connection points: 2
#     Edge 140, Type (0, 0), BuildingBlock: MIFKUJ_clean_linker_0, # of connection points: 2
#     Edge 141, Type (0, 0), BuildingBlock: MIFKUJ_clean_linker_0, # of connection points: 2
#     Edge 142, Type (0, 0), BuildingBlock: MIFKUJ_clean_linker_0, # of connection points: 2
#     Edge 143, Type (0, 0), BuildingBlock: MIFKUJ_clean_linker_0, # of connection points: 2
# Relax obj value: 0.454
# Max RMSD: 0.185
# Mean RMSD: 0.185
data_MOF--net-wmy--node1-OJICUG_clean_sbu_0--edge1-MIFKUJ_clean_linker_0
_symmetry_space_group_name_H-M    P1
_symmetry_Int_Tables_number       1
_symmetry_cell_setting            triclinic
loop_
_symmetry_equiv_pos_as_xyz
'x, y, z'
_cell_length_a     68.756146
_cell_length_b     68.742056
_cell_length_c     72.851612
_cell_angle_alpha  90.013701
_cell_angle_beta   89.979633
_cell_angle_gamma 119.97624
loop_
_atom_site_label
_atom_site_type_symbol
_atom_site_fract_x
_atom_site_fract_y
_atom_site_fract_z
_atom_type_partial_charge
Sc0 Sc 0.99606 0.15294 0.0775 0.0
Sc1 Sc 0.02938 0.19432 0.10952 0.0
Sc2 Sc 0.97031 0.1707 0.10971 0.0
O3 O 0.99862 0.17268 0.09897 0.0
C4 C 0.95954 0.1658 0.06657 0.0
C5 C 0.04101 0.19828 0.06701 0.0
C6 C 0.00447 0.22329 0.10869 0.0
C7 C 0.0327 0.15009 0.1022 0.0
C8 C 0.95395 0.11961 0.10234 0.0
C9 C -0.0001 0.1782 0.14581 0.0
O10 O 0.97553 0.16245 0.0623 0.0
O11 O 0.0447 0.20672 0.08301 0.0
O12 O 0.98459 0.20661 0.10756 0.0
O13 O 0.01655 0.14169 0.09079 0.0
O14 O 0.95403 0.1346 0.11266 0.0
O15 O 0.01828 0.18494 0.1373 0.0
O16 O 0.96708 0.1242 0.08872 0.0
O17 O 0.03973 0.16925 0.10964 0.0
O18 O 0.98169 0.17344 0.1377 0.0
O19 O 0.02454 0.17898 0.06342 0.0
O20 O 0.95463 0.16742 0.08314 0.0
O21 O 0.02178 0.22117 0.1103 0.0
Sc22 Sc 0.84422 0.84544 0.08272 0.0
Sc23 Sc 0.79985 0.83346 0.11275 0.0
Sc24 Sc 0.82524 0.79939 0.11266 0.0
O25 O 0.82308 0.82605 0.10274 0.0
C26 C 0.83363 0.79693 0.06976 0.0
C27 C 0.7982 0.84263 0.07031 0.0
C28 C 0.77236 0.7797 0.11117 0.0
C29 C 0.84251 0.88236 0.10777 0.0
C30 C 0.87685 0.8357 0.1075 0.0
C31 C 0.81618 0.82001 0.14899 0.0
O32 O 0.83813 0.81691 0.06644 0.0
O33 O 0.78857 0.83672 0.08585 0.0
O34 O 0.78934 0.77699 0.11017 0.0
O35 O 0.85294 0.87609 0.09711 0.0
O36 O 0.86147 0.8187 0.11589 0.0
O37 O 0.80855 0.83105 0.14066 0.0
O38 O 0.87266 0.84622 0.09525 0.0
O39 O 0.82291 0.86917 0.11386 0.0
O40 O 0.82206 0.80745 0.14073 0.0
O41 O 0.81818 0.84683 0.06763 0.0
O42 O 0.8292 0.78848 0.0858 0.0
O43 O 0.774 0.79887 0.11274 0.0
Sc44 Sc 0.14973 0.98771 0.08119 0.0
Sc45 Sc 0.16369 0.96147 0.11597 0.0
Sc46 Sc 0.19145 0.02088 0.1131 0.0
O47 O 0.16821 0.99001 0.10349 0.0
C48 C 0.19606 0.0303 0.07 0.0
C49 C 0.16112 0.94881 0.07364 0.0
C50 C 0.21726 0.99341 0.11515 0.0
C51 C 0.11323 0.94692 0.10543 0.0
C52 C 0.14955 0.02718 0.10461 0.0
C53 C 0.17212 0.99287 0.15041 0.0
O54 O 0.17779 0.01273 0.06602 0.0
O55 O 0.16418 0.94587 0.09038 0.0
O56 O 0.21735 0.01177 0.11242 0.0
O57 O 0.11909 0.96188 0.0931 0.0
O58 O 0.16707 0.03203 0.11398 0.0
O59 O 0.16268 0.9736 0.14295 0.0
O60 O 0.14198 0.01218 0.09214 0.0
O61 O 0.12737 0.94475 0.11519 0.0
O62 O 0.18369 0.0109 0.1414 0.0
O63 O 0.15592 0.96326 0.06843 0.0
O64 O 0.20272 0.03599 0.08639 0.0
O65 O 0.19936 0.97472 0.11775 0.0
Sc66 Sc 0.15757 0.01718 0.41249 0.0
Sc67 Sc 0.20237 0.04361 0.38153 0.0
Sc68 Sc 0.17159 0.98414 0.38477 0.0
O69 O 0.17721 0.01496 0.3929 0.0
C70 C 0.16076 0.9751 0.42733 0.0
C71 C 0.20577 0.05633 0.42428 0.0
C72 C 0.22499 0.01297 0.38653 0.0
C73 C 0.1649 0.05717 0.38577 0.0
C74 C 0.12204 0.97724 0.38745 0.0
C75 C 0.18378 0.01113 0.34682 0.0
O76 O 0.15688 0.99119 0.42915 0.0
O77 O 0.21386 0.06016 0.40806 0.0
O78 O 0.20674 0.99423 0.38734 0.0
O79 O 0.15538 0.04375 0.39902 0.0
O80 O 0.13582 0.97133 0.38163 0.0
O81 O 0.19385 0.03057 0.35402 0.0
O82 O 0.12766 0.99363 0.39839 0.0
O83 O 0.18157 0.0585 0.37718 0.0
O84 O 0.1754 0.9932 0.35624 0.0
O85 O 0.18596 0.04078 0.42793 0.0
O86 O 0.16671 0.97059 0.41217 0.0
O87 O 0.22568 0.03166 0.38429 0.0
Sc88 Sc 0.99013 0.15215 0.40846 0.0
Sc89 Sc 0.96191 0.16786 0.37691 0.0
Sc90 Sc 0.02127 0.19997 0.38093 0.0
O91 O 0.99111 0.17336 0.38875 0.0
C92 C 0.02809 0.19929 0.42425 0.0
C93 C 0.94709 0.15599 0.41872 0.0
C94 C 0.98936 0.22131 0.38173 0.0
C95 C 0.95279 0.11787 0.38061 0.0
C96 C 0.03324 0.16085 0.38522 0.0
C97 C 0.99523 0.18333 0.34265 0.0
O98 O 0.01283 0.17891 0.42593 0.0
O99 O 0.9442 0.16136 0.40267 0.0
O100 O 0.00868 0.22312 0.38271 0.0
O101 O 0.96711 0.12272 0.39334 0.0
O102 O 0.03698 0.17949 0.37844 0.0
O103 O 0.97579 0.17321 0.34981 0.0
O104 O 0.0171 0.14944 0.3962 0.0
O105 O 0.94909 0.13239 0.37309 0.0
O106 O 0.0131 0.19387 0.35209 0.0
O107 O 0.9631 0.15261 0.42285 0.0
O108 O 0.03335 0.20933 0.40884 0.0
O109 O 0.97138 0.20261 0.37951 0.0
Sc110 Sc 0.84654 0.85168 0.4125 0.0
Sc111 Sc 0.83579 0.80757 0.38242 0.0
Sc112 Sc 0.80036 0.83145 0.38255 0.0
O113 O 0.82751 0.83018 0.39247 0.0
C114 C 0.79757 0.84032 0.42523 0.0
C115 C 0.8448 0.80647 0.42532 0.0
C116 C 0.78212 0.77885 0.38487 0.0
C117 C 0.8841 0.8508 0.38725 0.0
C118 C 0.83713 0.88331 0.38627 0.0
C119 C 0.8207 0.82231 0.34612 0.0
O120 O 0.81801 0.84641 0.42828 0.0
O121 O 0.84073 0.7976 0.40943 0.0
O122 O 0.77886 0.79552 0.38512 0.0
O123 O 0.87742 0.85974 0.39908 0.0
O124 O 0.81933 0.86762 0.37902 0.0
O125 O 0.83189 0.81485 0.35442 0.0
O126 O 0.84811 0.87981 0.39857 0.0
O127 O 0.87111 0.83184 0.37998 0.0
O128 O 0.80839 0.82841 0.35447 0.0
O129 O 0.8471 0.82571 0.42836 0.0
O130 O 0.7888 0.83468 0.40937 0.0
O131 O 0.80152 0.78092 0.38361 0.0
Sc132 Sc 0.03072 0.83294 0.88832 0.0
Sc133 Sc 0.97133 0.80181 0.88502 0.0
Sc134 Sc 0.99741 0.84615 0.91658 0.0
O135 O -0.00016 0.82695 0.89661 0.0
C136 C 0.03794 0.84074 0.93158 0.0
C137 C 0.00233 0.77954 0.88904 0.0
C138 C 0.95753 0.79731 0.92715 0.0
C139 C 0.00373 0.82165 0.85043 0.0
C140 C 0.0387 0.88265 0.8929 0.0
C141 C 0.95857 0.84015 0.88909 0.0
O142 O 0.04347 0.83674 0.91598 0.0
O143 O 0.9836 0.77868 0.88667 0.0
O144 O 0.97208 0.81743 0.93104 0.0
O145 O 0.02183 0.82963 0.85963 0.0
O146 O 0.02273 0.87668 0.90432 0.0
O147 O 0.95584 0.82212 0.88192 0.0
O148 O 0.04364 0.86882 0.88559 0.0
O149 O 0.98441 0.81166 0.8578 0.0
O150 O 0.97292 0.85064 0.9016 0.0
O151 O 0.02089 0.79785 0.89043 0.0
O152 O 0.02164 0.84425 0.93379 0.0
O153 O 0.95477 0.78912 0.91108 0.0
Sc154 Sc 0.17655 0.20379 0.88356 0.0
Sc155 Sc 0.19939 0.16773 0.88078 0.0
Sc156 Sc 0.15798 0.15793 0.91358 0.0
O157 O 0.178 0.17649 0.89262 0.0
C158 C 0.17012 0.20657 0.92686 0.0
C159 C 0.22903 0.2213 0.88519 0.0
C160 C 0.20274 0.15705 0.92291 0.0
C161 C 0.18423 0.18471 0.84589 0.0
C162 C 0.1252 0.16807 0.88934 0.0
C163 C 0.15536 0.12004 0.88635 0.0
O164 O 0.17346 0.21471 0.91074 0.0
O165 O 0.22684 0.20192 0.88278 0.0
O166 O 0.18451 0.15614 0.92755 0.0
O167 O 0.17889 0.19705 0.85504 0.0
O168 O 0.12911 0.15781 0.90204 0.0
O169 O 0.17366 0.13283 0.87798 0.0
O170 O 0.14055 0.18451 0.88045 0.0
O171 O 0.19148 0.17291 0.85338 0.0
O172 O 0.14799 0.12688 0.8994 0.0
O173 O 0.21244 0.22468 0.88602 0.0
O174 O 0.16567 0.18663 0.93004 0.0
O175 O 0.21009 0.16069 0.90655 0.0
Sc176 Sc 0.80646 0.97309 0.88023 0.0
Sc177 Sc 0.84139 0.0321 0.87704 0.0
Sc178 Sc 0.85464 0.0012 0.90774 0.0
O179 O 0.83415 0.00212 0.88828 0.0
C180 C 0.807 0.96559 0.92361 0.0
C181 C 0.78789 0.00704 0.88188 0.0
C182 C 0.85395 0.04598 0.91875 0.0
C183 C 0.82438 -0.00014 0.84229 0.0
C184 C 0.84204 0.95695 0.88443 0.0
C185 C 0.89023 0.03723 0.88024 0.0
O186 O 0.79758 0.9601 0.90794 0.0
O187 O 0.80691 0.02422 0.87858 0.0
O188 O 0.85821 0.03027 0.92166 0.0
O189 O 0.8118 0.98231 0.85158 0.0
O190 O 0.85333 0.97179 0.89641 0.0
O191 O 0.87684 0.04351 0.87426 0.0
O192 O 0.82523 0.95587 0.87616 0.0
O193 O 0.8369 0.01893 0.84962 0.0
O194 O 0.88426 0.02134 0.89174 0.0
O195 O 0.7851 0.9874 0.88367 0.0
O196 O 0.82722 0.98109 0.92572 0.0
O197 O 0.84666 0.04854 0.90342 0.0
Sc198 Sc 0.82165 0.01744 0.60812 0.0
Sc199 Sc 0.78943 0.95818 0.61072 0.0
Sc200 Sc 0.8329 0.98401 0.57844 0.0
O201 O 0.81464 0.98652 0.5991 0.0
C202 C 0.83008 0.02627 0.56499 0.0
C203 C 0.76858 0.99073 0.60703 0.0
C204 C 0.78342 0.94466 0.56846 0.0
C205 C 0.80961 0.98945 0.6455 0.0
C206 C 0.87025 0.02371 0.60331 0.0
C207 C 0.82665 0.94407 0.60461 0.0
O208 O 0.82841 0.03234 0.5811 0.0
O209 O 0.7672 0.97188 0.6104 0.0
O210 O 0.80371 0.95869 0.56449 0.0
O211 O 0.81624 0.00757 0.63661 0.0
O212 O 0.86405 0.00916 0.59053 0.0
O213 O 0.80888 0.94146 0.61226 0.0
O214 O 0.85671 0.02813 0.61181 0.0
O215 O 0.80086 0.97026 0.638 0.0
O216 O 0.83729 0.95906 0.59256 0.0
O217 O 0.78716 0.00884 0.60477 0.0
O218 O 0.83041 0.00834 0.56167 0.0
O219 O 0.77545 0.94252 0.58457 0.0
Sc220 Sc 0.96919 0.80264 0.61779 0.0
Sc221 Sc 0.02847 0.8372 0.61714 0.0
Sc222 Sc 0.9949 0.85343 0.59289 0.0
O223 O 0.99749 0.83108 0.60932 0.0
C224 C 0.95683 0.80651 0.57641 0.0
C225 C 0.00282 0.78454 0.60894 0.0
C226 C 0.03728 0.85319 0.57536 0.0
C227 C -0.00027 0.81747 0.6538 0.0
C228 C 0.95399 0.83949 0.62046 0.0
C229 C 0.03501 0.88635 0.61941 0.0
O230 O 0.95451 0.79495 0.59071 0.0
O231 O 0.02039 0.80366 0.61046 0.0
O232 O 0.02039 0.856 0.57428 0.0
O233 O 0.98072 0.80745 0.64584 0.0
O234 O 0.96923 0.85329 0.60974 0.0
O235 O 0.04025 0.87179 0.62425 0.0
O236 O 0.95147 0.82034 0.6244 0.0
O237 O 0.01815 0.8284 0.64515 0.0
O238 O 0.01913 0.88201 0.60827 0.0
O239 O 0.98318 0.78134 0.61172 0.0
O240 O 0.97048 0.82751 0.57551 0.0
O241 O 0.04243 0.84673 0.58998 0.0
Sc242 Sc 0.19252 0.17153 0.613 0.0
Sc243 Sc 0.1554 0.19327 0.61291 0.0
Sc244 Sc 0.14744 0.15085 0.58186 0.0
O245 O 0.16514 0.17191 0.60261 0.0
C246 C 0.19723 0.16487 0.57003 0.0
C247 C 0.209 0.22376 0.61125 0.0
C248 C 0.14664 0.19526 0.57016 0.0
C249 C 0.17058 0.1788 0.64926 0.0
C250 C 0.15828 0.11956 0.6074 0.0
C251 C 0.10827 0.14853 0.60693 0.0
O252 O 0.20505 0.16909 0.58628 0.0
O253 O 0.18927 0.22092 0.61238 0.0
O254 O 0.14496 0.17636 0.56675 0.0
O255 O 0.1837 0.17368 0.64102 0.0
O256 O 0.14783 0.12279 0.59444 0.0
O257 O 0.12042 0.16761 0.6144 0.0
O258 O 0.17439 0.13548 0.61612 0.0
O259 O 0.15891 0.18562 0.64087 0.0
O260 O 0.11586 0.14031 0.5952 0.0
O261 O 0.21297 0.20755 0.61092 0.0
O262 O 0.177 0.15908 0.56637 0.0
O263 O 0.15063 0.20377 0.58616 0.0
Sc264 Sc 0.66714 0.48054 0.42302 0.0
Sc265 Sc 0.70238 0.53013 0.44678 0.0
Sc266 Sc 0.64335 0.5075 0.44757 0.0
O267 O 0.67095 0.5061 0.43917 0.0
C268 C 0.63332 0.49373 0.4051 0.0
C269 C 0.71285 0.52069 0.40661 0.0
C270 C 0.67853 0.5588 0.43834 0.0
C271 C 0.70369 0.48442 0.45154 0.0
C272 C 0.62379 0.45502 0.44861 0.0
C273 C 0.67398 0.52264 0.48346 0.0
O274 O 0.64755 0.48709 0.40384 0.0
O275 O 0.7168 0.53427 0.41976 0.0
O276 O 0.65862 0.54274 0.44094 0.0
O277 O 0.68666 0.47268 0.44141 0.0
O278 O 0.62454 0.47243 0.45531 0.0
O279 O 0.69223 0.52913 0.47478 0.0
O280 O 0.63741 0.45582 0.43653 0.0
O281 O 0.71189 0.50546 0.45399 0.0
O282 O 0.655 0.51454 0.47556 0.0
O283 O 0.69616 0.50092 0.40659 0.0
O284 O 0.62898 0.50029 0.42015 0.0
O285 O 0.69578 0.55668 0.44004 0.0
Sc286 Sc 0.51639 0.19075 0.42277 0.0
Sc287 Sc 0.46789 0.17411 0.44903 0.0
Sc288 Sc 0.49332 0.14014 0.44759 0.0
O289 O 0.4925 0.1683 0.43982 0.0
C290 C 0.50664 0.14388 0.40549 0.0
C291 C 0.47321 0.19107 0.40757 0.0
C292 C 0.44099 0.12154 0.44077 0.0
C293 C 0.51052 0.22312 0.45112 0.0
C294 C 0.54533 0.17764 0.44879 0.0
C295 C 0.47903 0.15412 0.48455 0.0
O296 O 0.5141 0.16492 0.40479 0.0
O297 O 0.46247 0.18499 0.42264 0.0
O298 O 0.45768 0.1186 0.44317 0.0
O299 O 0.52119 0.21914 0.43882 0.0
O300 O 0.52916 0.15831 0.45301 0.0
O301 O 0.47036 0.16444 0.47661 0.0
O302 O 0.54293 0.19104 0.4383 0.0
O303 O 0.49116 0.20836 0.45672 0.0
O304 O 0.48834 0.14492 0.47588 0.0
O305 O 0.49244 0.19304 0.40546 0.0
O306 O 0.4984 0.13239 0.41999 0.0
O307 O 0.44234 0.14063 0.44202 0.0
Sc308 Sc 0.80826 0.33188 0.4289 0.0
Sc309 Sc 0.82664 0.29865 0.4506 0.0
Sc310 Sc 0.8597 0.35823 0.45274 0.0
O311 O 0.83162 0.32961 0.44409 0.0
C312 C 0.85368 0.37284 0.41281 0.0
C313 C 0.81104 0.29235 0.40869 0.0
C314 C 0.87924 0.32651 0.44151 0.0
C315 C 0.77674 0.28943 0.45401 0.0
C316 C 0.82036 0.36947 0.45921 0.0
C317 C 0.84641 0.32616 0.48772 0.0
O318 O 0.83279 0.3588 0.41247 0.0
O319 O 0.81713 0.28613 0.42297 0.0
O320 O 0.88185 0.34585 0.44478 0.0
O321 O 0.78037 0.30542 0.44328 0.0
O322 O 0.84049 0.37383 0.46167 0.0
O323 O 0.83515 0.30796 0.47885 0.0
O324 O 0.80686 0.35456 0.44813 0.0
O325 O 0.79193 0.28496 0.45846 0.0
O326 O 0.8565 0.34539 0.48017 0.0
O327 O 0.80775 0.30899 0.40857 0.0
O328 O 0.86618 0.37435 0.4262 0.0
O329 O 0.86053 0.30847 0.44323 0.0
Sc330 Sc 0.83108 0.33073 0.75342 0.0
Sc331 Sc 0.87007 0.36177 0.71926 0.0
Sc332 Sc 0.84475 0.3029 0.7204 0.0
O333 O 0.84867 0.33192 0.73098 0.0
C334 C 0.84241 0.29334 0.7633 0.0
C335 C 0.87821 0.37512 0.76126 0.0
C336 C 0.89715 0.33475 0.71948 0.0
C337 C 0.82782 0.3675 0.72949 0.0
C338 C 0.79504 0.2895 0.72913 0.0
C339 C 0.85159 0.3316 0.68413 0.0
O340 O 0.84216 0.31096 0.768 0.0
O341 O 0.88565 0.37744 0.74496 0.0
O342 O 0.88025 0.31546 0.72276 0.0
O343 O 0.81923 0.35109 0.74068 0.0
O344 O 0.80904 0.28963 0.71759 0.0
O345 O 0.85686 0.34986 0.6923 0.0
O346 O 0.80102 0.30136 0.74369 0.0
O347 O 0.84655 0.37395 0.72147 0.0
O348 O 0.84889 0.31418 0.69241 0.0
O349 O 0.85864 0.35976 0.76575 0.0
O350 O 0.8401 0.28663 0.74679 0.0
O351 O 0.89548 0.35213 0.71627 0.0
Sc352 Sc 0.66738 0.48688 0.7488 0.0
Sc353 Sc 0.64149 0.49983 0.71307 0.0
Sc354 Sc 0.70075 0.52964 0.71756 0.0
O355 O 0.66987 0.50543 0.72643 0.0
C356 C 0.70763 0.5343 0.76108 0.0
C357 C 0.62517 0.4934 0.75476 0.0
C358 C 0.6712 0.55347 0.71534 0.0
C359 C 0.63038 0.45009 0.72193 0.0
C360 C 0.7092 0.48932 0.72718 0.0
C361 C 0.67503 0.51111 0.67944 0.0
O362 O 0.69066 0.51534 0.76471 0.0
O363 O 0.62306 0.49658 0.73788 0.0
O364 O 0.69 0.55426 0.71732 0.0
O365 O 0.64382 0.45608 0.73548 0.0
O366 O 0.71375 0.50663 0.71762 0.0
O367 O 0.65552 0.50182 0.6864 0.0
O368 O 0.6936 0.48122 0.73911 0.0
O369 O 0.62774 0.46393 0.71215 0.0
O370 O 0.69274 0.522 0.68893 0.0
O371 O 0.6408 0.49043 0.76083 0.0
O372 O 0.7136 0.5412 0.74477 0.0
O373 O 0.65269 0.53522 0.7131 0.0
Sc374 Sc 0.51818 0.17802 0.74869 0.0
Sc375 Sc 0.50883 0.13818 0.71458 0.0
Sc376 Sc 0.47343 0.16147 0.71813 0.0
O377 O 0.50019 0.1592 0.7271 0.0
C378 C 0.46944 0.16447 0.76172 0.0
C379 C 0.51878 0.1323 0.75585 0.0
C380 C 0.45509 0.10901 0.71703 0.0
C381 C 0.55658 0.182 0.72207 0.0
C382 C 0.50772 0.21215 0.72666 0.0
C383 C 0.49397 0.15604 0.68044 0.0
O384 O 0.48872 0.1672 0.76537 0.0
O385 O 0.51262 0.12435 0.73983 0.0
O386 O 0.45202 0.12558 0.71976 0.0
O387 O 0.54933 0.19055 0.73383 0.0
O388 O 0.49298 0.19758 0.71601 0.0
O389 O 0.50643 0.14942 0.68768 0.0
O390 O 0.5167 0.20708 0.73967 0.0
O391 O 0.54424 0.1629 0.71464 0.0
O392 O 0.48049 0.15973 0.68968 0.0
O393 O 0.52202 0.1515 0.76053 0.0
O394 O 0.46265 0.16384 0.74539 0.0
O395 O 0.47434 0.11128 0.71381 0.0
Sc396 Sc 0.68152 0.15828 0.21241 0.0
Sc397 Sc 0.62226 0.13112 0.21141 0.0
Sc398 Sc 0.65299 0.17983 0.2373 0.0
O399 O 0.65226 0.15635 0.22034 0.0
C400 C 0.69049 0.17233 0.25479 0.0
C401 C 0.65036 0.10613 0.21895 0.0
C402 C 0.60954 0.13537 0.25197 0.0
C403 C 0.65194 0.14225 0.17572 0.0
C404 C 0.69556 0.20937 0.21146 0.0
C405 C 0.61519 0.17381 0.20964 0.0
O406 O 0.69661 0.16836 0.2394 0.0
O407 O 0.6325 0.10643 0.21488 0.0
O408 O 0.62398 0.15617 0.25252 0.0
O409 O 0.67017 0.14881 0.18451 0.0
O410 O 0.68206 0.20685 0.22438 0.0
O411 O 0.60854 0.15311 0.2069 0.0
O412 O 0.69618 0.19294 0.20405 0.0
O413 O 0.63338 0.13673 0.18353 0.0
O414 O 0.63247 0.1865 0.21914 0.0
O415 O 0.66952 0.12382 0.22002 0.0
O416 O 0.67344 0.17473 0.25666 0.0
O417 O 0.60798 0.1229 0.23854 0.0
Sc418 Sc 0.83889 0.51939 0.20825 0.0
Sc419 Sc 0.86967 0.49052 0.20717 0.0
Sc420 Sc 0.81716 0.46641 0.22884 0.0
O421 O 0.84199 0.4922 0.21479 0.0
C422 C 0.8204 0.50889 0.24942 0.0
C423 C 0.89094 0.5425 0.21757 0.0
C424 C 0.86118 0.46945 0.24696 0.0
C425 C 0.85895 0.5105 0.1716 0.0
C426 C 0.78869 0.47966 0.20232 0.0
C427 C 0.8303 0.44016 0.20037 0.0
O428 O 0.82824 0.52198 0.23565 0.0
O429 O 0.89223 0.52506 0.21413 0.0
O430 O 0.84028 0.46265 0.24617 0.0
O431 O 0.84916 0.51923 0.18034 0.0
O432 O 0.79097 0.46651 0.21314 0.0
O433 O 0.85072 0.45555 0.19908 0.0
O434 O 0.80456 0.49941 0.1989 0.0
O435 O 0.86689 0.49939 0.17938 0.0
O436 O 0.81584 0.442 0.20986 0.0
O437 O 0.87269 0.54288 0.21664 0.0
O438 O 0.81602 0.48859 0.24903 0.0
O439 O 0.87484 0.48123 0.23437 0.0
Sc440 Sc 0.47714 0.31985 0.21218 0.0
Sc441 Sc 0.51187 0.37868 0.20761 0.0
Sc442 Sc 0.5283 0.34844 0.23596 0.0
O443 O 0.50569 0.34897 0.21856 0.0
C444 C 0.4825 0.31516 0.25545 0.0
C445 C 0.45918 0.35424 0.21611 0.0
C446 C 0.53095 0.39467 0.24741 0.0
C447 C 0.49107 0.34557 0.17368 0.0
C448 C 0.51181 0.30253 0.21378 0.0
C449 C 0.55994 0.38178 0.20528 0.0
O450 O 0.47162 0.30833 0.24044 0.0
O451 O 0.47804 0.37132 0.21227 0.0
O452 O 0.53602 0.37939 0.24929 0.0
O453 O 0.47984 0.328 0.18334 0.0
O454 O 0.52419 0.31741 0.22537 0.0
O455 O 0.54666 0.38917 0.20167 0.0
O456 O 0.49487 0.30206 0.20637 0.0
O457 O 0.50379 0.36482 0.18057 0.0
O458 O 0.55512 0.36598 0.21667 0.0
O459 O 0.45623 0.33448 0.21715 0.0
O460 O 0.50286 0.33086 0.25629 0.0
O461 O 0.52038 0.39586 0.2336 0.0
Sc462 Sc 0.50055 0.35961 0.93996 0.0
Sc463 Sc 0.47145 0.30034 0.94372 0.0
Sc464 Sc 0.50952 0.32691 0.90769 0.0
O465 O 0.49387 0.32895 0.9305 0.0
C466 C 0.50339 0.36805 0.89667 0.0
C467 C 0.44727 0.32994 0.94214 0.0
C468 C 0.46074 0.28499 0.90192 0.0
C469 C 0.49334 0.33307 0.97766 0.0
C470 C 0.54907 0.368 0.93009 0.0
C471 C 0.5096 0.28908 0.93347 0.0
O472 O 0.50311 0.3739 0.91314 0.0
O473 O 0.44724 0.31153 0.94437 0.0
O474 O 0.47907 0.30088 0.89568 0.0
O475 O 0.49965 0.35089 0.96845 0.0
O476 O 0.54165 0.35296 0.91763 0.0
O477 O 0.49381 0.28685 0.94396 0.0
O478 O 0.5363 0.37207 0.9401 0.0
O479 O 0.48366 0.31375 0.97041 0.0
O480 O 0.51654 0.30254 0.91991 0.0
O481 O 0.46514 0.34883 0.93994 0.0
O482 O 0.50423 0.3506 0.89247 0.0
O483 O 0.456 0.28225 0.91889 0.0
Sc484 Sc 0.64808 0.13898 0.94056 0.0
Sc485 Sc 0.70684 0.17165 0.94782 0.0
Sc486 Sc 0.68046 0.18842 0.91533 0.0
O487 O 0.67848 0.16634 0.93461 0.0
C488 C 0.6459 0.14205 0.89694 0.0
C489 C 0.68095 0.11877 0.94 0.0
C490 C 0.7266 0.18897 0.90801 0.0
C491 C 0.67083 0.15259 0.9801 0.0
C492 C 0.63435 0.17631 0.93563 0.0
C493 C 0.71313 0.22096 0.94634 0.0
O494 O 0.6384 0.13212 0.91219 0.0
O495 O 0.69851 0.13731 0.94382 0.0
O496 O 0.71094 0.19272 0.90352 0.0
O497 O 0.65385 0.1425 0.96968 0.0
O498 O 0.65064 0.18789 0.92486 0.0
O499 O 0.71802 0.20674 0.95287 0.0
O500 O 0.63133 0.15835 0.94322 0.0
O501 O 0.69076 0.16394 0.97409 0.0
O502 O 0.6993 0.21642 0.93322 0.0
O503 O 0.66164 0.1168 0.9382 0.0
O504 O 0.66196 0.16218 0.89566 0.0
O505 O 0.72698 0.18028 0.92328 0.0
Sc506 Sc 0.87321 0.50673 0.9379 0.0
Sc507 Sc 0.8375 0.53011 0.94008 0.0
Sc508 Sc 0.8289 0.49007 0.90643 0.0
O509 O 0.84655 0.50898 0.92817 0.0
C510 C 0.8785 0.50263 0.89475 0.0
C511 C 0.8913 0.5593 0.93951 0.0
C512 C 0.83106 0.53652 0.89755 0.0
C513 C 0.85105 0.51173 0.97497 0.0
C514 C 0.83707 0.45551 0.93002 0.0
C515 C 0.7895 0.48781 0.93133 0.0
O516 O 0.88621 0.50618 0.91101 0.0
O517 O 0.87179 0.55696 0.94089 0.0
O518 O 0.82915 0.51785 0.89282 0.0
O519 O 0.86397 0.50687 0.9661 0.0
O520 O 0.82683 0.46036 0.91793 0.0
O521 O 0.80205 0.50553 0.94043 0.0
O522 O 0.85406 0.47039 0.93877 0.0
O523 O 0.83988 0.51965 0.96736 0.0
O524 O 0.79705 0.4804 0.91888 0.0
O525 O 0.89466 0.54277 0.93786 0.0
O526 O 0.85838 0.49731 0.89117 0.0
O527 O 0.83406 0.54325 0.91411 0.0
Sc528 Sc 0.34471 0.82178 0.74689 0.0
Sc529 Sc 0.37307 0.8622 0.78094 0.0
Sc530 Sc 0.31427 0.83664 0.77646 0.0
O531 O 0.34408 0.84018 0.76818 0.0
C532 C 0.30751 0.83179 0.7329 0.0
C533 C 0.38893 0.86906 0.73939 0.0
C534 C 0.34635 0.88921 0.77635 0.0
C535 C 0.37979 0.81984 0.77414 0.0
C536 C 0.30128 0.78652 0.76972 0.0
C537 C 0.34014 0.84491 0.81473 0.0
O538 O 0.32513 0.83079 0.72979 0.0
O539 O 0.39055 0.87663 0.75556 0.0
O540 O 0.32725 0.87208 0.77306 0.0
O541 O 0.36467 0.81116 0.76187 0.0
O542 O 0.29995 0.80083 0.77997 0.0
O543 O 0.35913 0.85049 0.80776 0.0
O544 O 0.31526 0.79206 0.75656 0.0
O545 O 0.38536 0.83863 0.78172 0.0
O546 O 0.32318 0.84122 0.80517 0.0
O547 O 0.37391 0.84938 0.73478 0.0
O548 O 0.30041 0.83168 0.74903 0.0
O549 O 0.36353 0.88785 0.78102 0.0
Sc550 Sc 0.18279 0.51043 0.74579 0.0
Sc551 Sc 0.14009 0.50006 0.77717 0.0
Sc552 Sc 0.1681 0.46862 0.77901 0.0
O553 O 0.1636 0.49303 0.76738 0.0
C554 C 0.17291 0.46166 0.73627 0.0
C555 C 0.13581 0.50618 0.73453 0.0
C556 C 0.11497 0.44626 0.77789 0.0
C557 C 0.18211 0.54876 0.7695 0.0
C558 C 0.21826 0.50587 0.77135 0.0
C559 C 0.15833 0.49044 0.8141 0.0
O560 O 0.17465 0.48013 0.73115 0.0
O561 O 0.12694 0.5006 0.75036 0.0
O562 O 0.13263 0.44467 0.77694 0.0
O563 O 0.19225 0.54196 0.75898 0.0
O564 O 0.20396 0.49068 0.78189 0.0
O565 O 0.1502 0.50057 0.80516 0.0
O566 O 0.21261 0.51276 0.75726 0.0
O567 O 0.16271 0.53594 0.77621 0.0
O568 O 0.1644 0.47769 0.80652 0.0
O569 O 0.15584 0.51089 0.73139 0.0
O570 O 0.17264 0.45632 0.753 0.0
O571 O 0.11539 0.46496 0.77895 0.0
Sc572 Sc 0.49338 0.66149 0.74399 0.0
Sc573 Sc 0.50484 0.63114 0.77683 0.0
Sc574 Sc 0.5386 0.69034 0.77433 0.0
O575 O 0.51225 0.66097 0.7651 0.0
C576 C 0.54159 0.69927 0.73101 0.0
C577 C 0.49506 0.61702 0.73474 0.0
C578 C 0.55851 0.65725 0.77328 0.0
C579 C 0.45612 0.62489 0.77074 0.0
C580 C 0.50148 0.70415 0.7678 0.0
C581 C 0.52011 0.66306 0.81182 0.0
O582 O 0.52196 0.68325 0.72763 0.0
O583 O 0.49937 0.61381 0.75104 0.0
O584 O 0.56098 0.67687 0.77233 0.0
O585 O 0.46253 0.63951 0.75803 0.0
O586 O 0.51808 0.70594 0.77695 0.0
O587 O 0.50904 0.64396 0.80426 0.0
O588 O 0.49181 0.68963 0.75519 0.0
O589 O 0.46945 0.62006 0.77906 0.0
O590 O 0.53176 0.68099 0.80276 0.0
O591 O 0.4928 0.63363 0.73027 0.0
O592 O 0.54939 0.70433 0.74721 0.0
O593 O 0.53947 0.63957 0.77542 0.0
Sc594 Sc 0.47634 0.67144 0.06589 0.0
Sc595 Sc 0.5279 0.7032 0.04344 0.0
Sc596 Sc 0.5023 0.64377 0.04548 0.0
O597 O 0.50221 0.6728 0.05159 0.0
C598 C 0.4843 0.63508 0.08671 0.0
C599 C 0.51739 0.71601 0.08266 0.0
C600 C 0.55362 0.67745 0.05584 0.0
C601 C 0.4853 0.70905 0.03619 0.0
C602 C 0.45057 0.62831 0.04017 0.0
C603 C 0.52083 0.67199 0.00856 0.0
O604 O 0.47771 0.64939 0.08618 0.0
O605 O 0.5309 0.71934 0.06955 0.0
O606 O 0.53709 0.65779 0.05332 0.0
O607 O 0.47256 0.69335 0.04707 0.0
O608 O 0.46738 0.62579 0.03702 0.0
O609 O 0.52788 0.69096 0.01624 0.0
O610 O 0.45168 0.64384 0.05026 0.0
O611 O 0.50577 0.71476 0.03353 0.0
O612 O 0.51119 0.65353 0.01732 0.0
O613 O 0.49753 0.69941 0.0831 0.0
O614 O 0.49324 0.631 0.07305 0.0
O615 O 0.55261 0.69516 0.05293 0.0
Sc616 Sc 0.32945 0.81598 0.0758 0.0
Sc617 Sc 0.2978 0.83041 0.0471 0.0
Sc618 Sc 0.35703 0.86507 0.04927 0.0
O619 O 0.3281 0.83718 0.05735 0.0
C620 C 0.36555 0.863 0.09224 0.0
C621 C 0.28518 0.81649 0.08875 0.0
C622 C 0.32335 0.88382 0.05345 0.0
C623 C 0.29257 0.78145 0.04826 0.0
C624 C 0.37276 0.82894 0.05103 0.0
C625 C 0.32906 0.84835 0.01183 0.0
O626 O 0.35004 0.84274 0.09403 0.0
O627 O 0.28201 0.82404 0.0738 0.0
O628 O 0.34299 0.88643 0.05435 0.0
O629 O 0.3088 0.787 0.05932 0.0
O630 O 0.37383 0.84619 0.04356 0.0
O631 O 0.31024 0.83567 0.01944 0.0
O632 O 0.35831 0.8174 0.06319 0.0
O633 O 0.28606 0.79501 0.04322 0.0
O634 O 0.34693 0.86082 0.02079 0.0
O635 O 0.30098 0.8122 0.09086 0.0
O636 O 0.37096 0.87299 0.0768 0.0
O637 O 0.30598 0.86496 0.04999 0.0
Sc638 Sc 0.18535 0.51099 0.07562 0.0
Sc639 Sc 0.16767 0.46521 0.04568 0.0
Sc640 Sc 0.13764 0.49476 0.04816 0.0
O641 O 0.16354 0.49032 0.05644 0.0
C642 C 0.13882 0.50413 0.09108 0.0
C643 C 0.17733 0.46285 0.088 0.0
C644 C 0.11422 0.44148 0.04949 0.0
C645 C 0.21867 0.50437 0.04937 0.0
C646 C 0.17815 0.5454 0.05116 0.0
C647 C 0.15462 0.48385 0.01062 0.0
O648 O 0.15907 0.5088 0.09289 0.0
O649 O 0.17107 0.45349 0.07237 0.0
O650 O 0.11331 0.45945 0.05086 0.0
O651 O 0.21441 0.51576 0.06072 0.0
O652 O 0.15912 0.53075 0.04482 0.0
O653 O 0.16464 0.47459 0.01814 0.0
O654 O 0.18931 0.54056 0.06231 0.0
O655 O 0.20366 0.4856 0.04304 0.0
O656 O 0.14371 0.49111 0.01967 0.0
O657 O 0.18334 0.48334 0.09081 0.0
O658 O 0.12872 0.49895 0.07571 0.0
O659 O 0.13245 0.44138 0.04699 0.0
Sc660 Sc 0.35256 0.49391 0.55248 0.0
Sc661 Sc 0.2934 0.46587 0.54778 0.0
Sc662 Sc 0.31976 0.50445 0.58345 0.0
O663 O 0.3219 0.48814 0.56116 0.0
C664 C 0.35986 0.49723 0.59587 0.0
C665 C 0.32226 0.44092 0.5507 0.0
C666 C 0.27784 0.45566 0.58962 0.0
C667 C 0.32688 0.48673 0.51434 0.0
C668 C 0.36138 0.54297 0.56084 0.0
C669 C 0.2822 0.50426 0.55732 0.0
O670 O 0.36611 0.49653 0.57962 0.0
O671 O 0.30428 0.4414 0.54744 0.0
O672 O 0.2934 0.47438 0.59558 0.0
O673 O 0.3443 0.49199 0.52381 0.0
O674 O 0.3461 0.53608 0.57307 0.0
O675 O 0.27973 0.48813 0.54718 0.0
O676 O 0.36563 0.5298 0.55153 0.0
O677 O 0.30742 0.47842 0.52124 0.0
O678 O 0.29586 0.51159 0.5707 0.0
O679 O 0.34119 0.45852 0.5534 0.0
O680 O 0.34277 0.499 0.59937 0.0
O681 O 0.27533 0.45042 0.57271 0.0
Sc682 Sc 0.50014 0.86531 0.55301 0.0
Sc683 Sc 0.52554 0.83131 0.55399 0.0
Sc684 Sc 0.48288 0.82171 0.58522 0.0
O685 O 0.50289 0.83947 0.56403 0.0
C686 C 0.49438 0.87113 0.59589 0.0
C687 C 0.55304 0.88516 0.5542 0.0
C688 C 0.52895 0.8244 0.59681 0.0
C689 C 0.50884 0.84346 0.51735 0.0
C690 C 0.44899 0.82865 0.55954 0.0
C691 C 0.48273 0.78294 0.56113 0.0
O692 O 0.49739 0.8782 0.57943 0.0
O693 O 0.55164 0.866 0.55345 0.0
O694 O 0.50952 0.82135 0.60022 0.0
O695 O 0.50276 0.85607 0.52522 0.0
O696 O 0.45372 0.81963 0.57271 0.0
O697 O 0.5016 0.79563 0.55351 0.0
O698 O 0.46396 0.8451 0.55037 0.0
O699 O 0.51667 0.83289 0.52605 0.0
O700 O 0.47384 0.79017 0.57253 0.0
O701 O 0.53593 0.88771 0.55462 0.0
O702 O 0.48992 0.85139 0.60004 0.0
O703 O 0.5374 0.8287 0.58079 0.0
Sc704 Sc 0.12919 0.64037 0.55391 0.0
Sc705 Sc 0.16327 0.6996 0.54975 0.0
Sc706 Sc 0.17649 0.67046 0.58223 0.0
O707 O 0.15627 0.67012 0.56192 0.0
C708 C 0.12844 0.63291 0.59709 0.0
C709 C 0.1097 0.67387 0.55349 0.0
C710 C 0.1738 0.71418 0.5918 0.0
C711 C 0.14734 0.66599 0.51566 0.0
C712 C 0.16722 0.62707 0.55935 0.0
C713 C 0.21257 0.70746 0.55496 0.0
O714 O 0.11866 0.62847 0.58159 0.0
O715 O 0.12885 0.69143 0.55172 0.0
O716 O 0.17586 0.69746 0.59637 0.0
O717 O 0.13625 0.64825 0.52516 0.0
O718 O 0.17911 0.64354 0.5699 0.0
O719 O 0.1986 0.71112 0.54641 0.0
O720 O 0.14856 0.62336 0.55263 0.0
O721 O 0.1579 0.68546 0.52273 0.0
O722 O 0.20682 0.69353 0.56811 0.0
O723 O 0.10705 0.65421 0.55459 0.0
O724 O 0.149 0.64755 0.59908 0.0
O725 O 0.16976 0.71753 0.57543 0.0
Sc726 Sc 0.15533 0.68764 0.28177 0.0
Sc727 Sc 0.12787 0.62806 0.2829 0.0
Sc728 Sc 0.17666 0.65868 0.25662 0.0
O729 O 0.15324 0.65815 0.27377 0.0
C730 C 0.1692 0.69742 0.23964 0.0
C731 C 0.10251 0.65593 0.27697 0.0
C732 C 0.1314 0.61729 0.24095 0.0
C733 C 0.14138 0.65863 0.31879 0.0
C734 C 0.20682 0.70024 0.28273 0.0
C735 C 0.16889 0.61878 0.28343 0.0
O736 O 0.16142 0.7012 0.25421 0.0
O737 O 0.10312 0.63788 0.27889 0.0
O738 O 0.15174 0.63286 0.23949 0.0
O739 O 0.14963 0.67719 0.31016 0.0
O740 O 0.20396 0.68444 0.27202 0.0
O741 O 0.14932 0.61419 0.28832 0.0
O742 O 0.191 0.70381 0.28727 0.0
O743 O 0.1331 0.6397 0.31077 0.0
O744 O 0.18079 0.63461 0.27238 0.0
O745 O 0.12 0.67526 0.27727 0.0
O746 O 0.17536 0.68283 0.23881 0.0
O747 O 0.12022 0.6134 0.25575 0.0
Sc748 Sc 0.3028 0.46892 0.28012 0.0
Sc749 Sc 0.36182 0.50393 0.28274 0.0
Sc750 Sc 0.33028 0.51961 0.25531 0.0
O751 O 0.33162 0.49741 0.2727 0.0
C752 C 0.29482 0.47305 0.23735 0.0
C753 C 0.33682 0.45081 0.27568 0.0
C754 C 0.37525 0.52077 0.24199 0.0
C755 C 0.33039 0.48474 0.31766 0.0
C756 C 0.28691 0.50506 0.28038 0.0
C757 C 0.36711 0.55287 0.28324 0.0
O758 O 0.28973 0.46228 0.25243 0.0
O759 O 0.3539 0.46971 0.27941 0.0
O760 O 0.35954 0.5253 0.24035 0.0
O761 O 0.31261 0.47218 0.30864 0.0
O762 O 0.30148 0.51736 0.26858 0.0
O763 O 0.37363 0.53908 0.28738 0.0
O764 O 0.28537 0.48703 0.28656 0.0
O765 O 0.34916 0.4979 0.31022 0.0
O766 O 0.35059 0.54779 0.27264 0.0
O767 O 0.31711 0.44791 0.27443 0.0
O768 O 0.30986 0.49363 0.23614 0.0
O769 O 0.37758 0.51114 0.25602 0.0
Sc770 Sc 0.5203 0.83713 0.28139 0.0
Sc771 Sc 0.48826 0.86396 0.28862 0.0
Sc772 Sc 0.46685 0.81563 0.26136 0.0
O773 O 0.49188 0.83896 0.27711 0.0
C774 C 0.51053 0.8249 0.23882 0.0
C775 C 0.54046 0.88993 0.27807 0.0
C776 C 0.4675 0.86078 0.24934 0.0
C777 C 0.50969 0.84977 0.32105 0.0
C778 C 0.4827 0.78551 0.28286 0.0
C779 C 0.43853 0.82187 0.29266 0.0
O780 O 0.52374 0.83165 0.25257 0.0
O781 O 0.52228 0.88921 0.28263 0.0
O782 O 0.46154 0.84017 0.24738 0.0
O783 O 0.51931 0.84224 0.31062 0.0
O784 O 0.46853 0.78826 0.27376 0.0
O785 O 0.45338 0.84206 0.29618 0.0
O786 O 0.50222 0.80147 0.28669 0.0
O787 O 0.49775 0.85776 0.31503 0.0
O788 O 0.44153 0.80986 0.28107 0.0
O789 O 0.5422 0.87246 0.27657 0.0
O790 O 0.48983 0.81892 0.24003 0.0
O791 O 0.47861 0.87245 0.26306 0.0
H792 H 0.04027 0.1835 0.03222 0.0
H793 H 0.06915 0.20034 0.00901 0.0
H794 H 0.10743 0.25792 0.04389 0.0
H795 H 0.07864 0.24054 0.06781 0.0
H796 H 0.08777 0.2351 0.9886 0.0
H797 H 0.16319 0.27641 0.03631 0.0
H798 H 0.17352 0.27524 0.06861 0.0
H799 H 0.12331 0.20542 0.07181 0.0
H800 H 0.11288 0.20618 0.03951 0.0
H801 H 0.16956 0.24635 0.9258 0.0
H802 H 0.15724 0.26186 0.95051 0.0
H803 H 0.15344 0.21096 0.9874 0.0
H804 H 0.16643 0.19603 0.96323 0.0
H805 H 0.16227 0.24629 0.00654 0.0
H806 H 0.10838 0.20167 0.95854 0.0
H807 H 0.09485 0.19418 0.92652 0.0
H808 H 0.09662 0.25749 0.92453 0.0
H809 H 0.11041 0.26542 0.9565 0.0
C810 C 0.05466 0.19986 0.035 0.0
C811 C 0.05727 0.21045 0.05207 0.0
C812 C 0.07117 0.20961 0.02158 0.0
C813 C 0.09066 0.23031 0.02472 0.0
C814 C 0.09271 0.24175 0.04125 0.0
C815 C 0.07621 0.23181 0.05489 0.0
C816 C 0.10933 0.23826 0.01125 0.0
C817 C 0.10427 0.23809 0.99255 0.0
C818 C 0.13088 0.24216 0.01631 0.0
C819 C 0.13708 0.24146 0.03565 0.0
C820 C 0.1544 0.26084 0.04394 0.0
C821 C 0.16026 0.26023 0.06222 0.0
C822 C 0.14902 0.24029 0.07227 0.0
C823 C 0.13195 0.22088 0.06404 0.0
C824 C 0.12605 0.22139 0.04575 0.0
C825 C 0.16682 0.23894 0.93935 0.0
C826 C 0.16836 0.21953 0.94239 0.0
C827 C 0.15973 0.24781 0.95345 0.0
C828 C 0.15382 0.23721 0.97068 0.0
C829 C 0.15774 0.2194 0.97422 0.0
C830 C 0.165 0.2107 0.96027 0.0
C831 C 0.14011 0.24163 0.98398 0.0
C832 C 0.1462 0.24439 0.00259 0.0
C833 C 0.11904 0.239 0.9789 0.0
C834 C 0.11068 0.23426 0.95976 0.0
C835 C 0.10598 0.21402 0.95122 0.0
C836 C 0.09827 0.2097 0.9331 0.0
C837 C 0.09495 0.22539 0.92348 0.0
C838 C 0.09927 0.24539 0.93198 0.0
C839 C 0.10704 0.24982 0.95009 0.0
H840 H 0.08897 0.22202 0.90946 0.0
H841 H 0.15357 0.23987 0.08643 0.0
H842 H 0.81025 0.84811 0.0343 0.0
H843 H 0.79656 0.86224 0.01002 0.0
H844 H 0.74602 0.86013 0.04644 0.0
H845 H 0.76019 0.84646 0.07125 0.0
H846 H 0.7606 0.85218 0.99101 0.0
H847 H 0.74348 0.90793 0.03851 0.0
H848 H 0.75205 0.92335 0.06999 0.0
H849 H 0.81437 0.92307 0.06885 0.0
H850 H 0.80626 0.90793 0.03731 0.0
H851 H 0.76382 0.92968 0.92581 0.0
H852 H 0.74699 0.90409 0.95188 0.0
H853 H 0.80645 0.94509 0.98402 0.0
H854 H 0.82282 0.97096 0.95862 0.0
H855 H 0.77265 0.92785 0.00588 0.0
H856 H 0.79965 0.89952 0.95598 0.0
H857 H 0.79913 0.88765 0.92392 0.0
H858 H 0.72951 0.83761 0.92932 0.0
H859 H 0.72958 0.84944 0.96136 0.0
C860 C 0.79598 0.85028 0.03716 0.0
C861 C 0.78666 0.84666 0.05486 0.0
C862 C 0.788 0.85818 0.02315 0.0
C863 C 0.77049 0.8626 0.02646 0.0
C864 C 0.75977 0.85713 0.04366 0.0
C865 C 0.76786 0.84926 0.0578 0.0
C866 C 0.76602 0.87574 0.01264 0.0
C867 C 0.76268 0.86851 0.9943 0.0
C868 C 0.76894 0.89715 0.01687 0.0
C869 C 0.7741 0.90652 0.03571 0.0
C870 C 0.75901 0.9112 0.045 0.0
C871 C 0.76379 0.9199 0.06283 0.0
C872 C 0.7837 0.9241 0.07144 0.0
C873 C 0.79892 0.91974 0.06219 0.0
C874 C 0.79424 0.91111 0.04435 0.0
C875 C 0.77306 0.9335 0.93859 0.0
C876 C 0.7949 0.95213 0.93996 0.0
C877 C 0.76343 0.91884 0.95347 0.0
C878 C 0.77564 0.92238 0.9698 0.0
C879 C 0.79665 0.94191 0.9716 0.0
C880 C 0.80611 0.95666 0.95692 0.0
C881 C 0.76847 0.90477 0.98417 0.0
C882 C 0.76946 0.9111 0.00263 0.0
C883 C 0.76446 0.88294 0.98 0.0
C884 C 0.76453 0.87554 0.96092 0.0
C885 C 0.78422 0.88605 0.95028 0.0
C886 C 0.784 0.87936 0.93212 0.0
C887 C 0.76427 0.86197 0.92456 0.0
C888 C 0.74475 0.85114 0.93518 0.0
C889 C 0.74486 0.85784 0.95332 0.0
H890 H 0.7641 0.85682 0.9105 0.0
H891 H 0.78735 0.93079 0.08525 0.0
H892 H 0.16619 0.95542 0.03677 0.0
H893 H 0.15288 0.92616 0.01362 0.0
H894 H 0.1418 0.87712 0.05533 0.0
H895 H 0.1547 0.90645 0.07882 0.0
H896 H 0.15476 0.8912 -0.00115 0.0
H897 H 0.08936 0.83671 0.05088 0.0
H898 H 0.07718 0.84006 0.08208 0.0
H899 H 0.09288 0.90762 0.07043 0.0
H900 H 0.10478 0.90448 0.0391 0.0
H901 H 0.06703 0.82456 0.93611 0.0
H902 H 0.09195 0.83106 0.96232 0.0
H903 H 0.06546 0.86886 0.98927 0.0
H904 H 0.04007 0.86158 0.96381 0.0
H905 H 0.07356 0.84794 0.01395 0.0
H906 H 0.11526 0.89339 0.9607 0.0
H907 H 0.12949 0.89855 0.92892 0.0
H908 H 0.16157 0.86017 0.9412 0.0
H909 H 0.14732 0.85463 0.97301 0.0
C910 C 0.16163 0.93855 0.04099 0.0
C911 C 0.16066 0.93304 0.05966 0.0
C912 C 0.15426 0.92184 0.02768 0.0
C913 C 0.14576 0.89937 0.03284 0.0
C914 C 0.14799 0.89435 0.05114 0.0
C915 C 0.15534 0.91113 0.06454 0.0
C916 C 0.12995 0.88173 0.02015 0.0
C917 C 0.13706 0.88114 0.00222 0.0
C918 C 0.10681 0.869 0.0245 0.0
C919 C 0.09812 0.87041 0.04278 0.0
C920 C 0.09002 0.85218 0.05496 0.0
C921 C 0.08325 0.85408 0.07267 0.0
C922 C 0.08446 0.87411 0.07829 0.0
C923 C 0.09212 0.89218 0.06611 0.0
C924 C 0.09876 0.89031 0.04836 0.0
C925 C 0.06638 0.834 0.94777 0.0
C926 C 0.05177 0.84279 0.9478 0.0
C927 C 0.08061 0.8377 0.96273 0.0
C928 C 0.08086 0.85074 0.97769 0.0
C929 C 0.06557 0.85864 0.97799 0.0
C930 C 0.0511 0.85458 0.96331 0.0
C931 C 0.09821 0.85828 0.99231 0.0
C932 C 0.09133 0.85689 0.01067 0.0
C933 C 0.12147 0.87003 0.98815 0.0
C934 C 0.12999 0.87334 0.96909 0.0
C935 C 0.12524 0.88595 0.95656 0.0
C936 C 0.13331 0.88896 0.93857 0.0
C937 C 0.14635 0.87962 0.93303 0.0
C938 C 0.15141 0.86733 0.94549 0.0
C939 C 0.14334 0.86424 0.9635 0.0
H940 H 0.1526 0.88197 0.91909 0.0
H941 H 0.07926 0.87556 0.092 0.0
H942 H 0.1952 0.05006 0.46052 0.0
H943 H 0.21136 0.07717 0.48495 0.0
H944 H 0.26311 0.12365 0.44826 0.0
H945 H 0.24598 0.09659 0.42305 0.0
H946 H 0.24609 0.09916 0.50397 0.0
H947 H 0.27507 0.17624 0.45963 0.0
H948 H 0.27066 0.18733 0.42832 0.0
H949 H 0.20351 0.13114 0.42581 0.0
H950 H 0.20751 0.11989 0.45715 0.0
H951 H 0.23932 0.16919 0.57174 0.0
H952 H 0.25879 0.16167 0.54694 0.0
H953 H 0.20592 0.15139 0.5094 0.0
H954 H 0.18707 0.15967 0.5336 0.0
H955 H 0.24249 0.16811 0.49116 0.0
H956 H 0.20518 0.10689 0.53602 0.0
H957 H 0.19973 0.0901 0.56689 0.0
H958 H 0.26867 0.10626 0.56784 0.0
H959 H 0.27451 0.12325 0.537 0.0
C960 C 0.21016 0.06592 0.45754 0.0
C961 C 0.21887 0.07137 0.43963 0.0
C962 C 0.21962 0.08142 0.4717 0.0
C963 C 0.23826 0.10274 0.46847 0.0
C964 C 0.24842 0.10751 0.45102 0.0
C965 C 0.23867 0.09198 0.43664 0.0
C966 C 0.2445 0.12027 0.48285 0.0
C967 C 0.24587 0.11455 0.50114 0.0
C968 C 0.24433 0.14044 0.47928 0.0
C969 C 0.24171 0.14711 0.46055 0.0
C970 C 0.25939 0.1663 0.45236 0.0
C971 C 0.25695 0.1726 0.43464 0.0
C972 C 0.23685 0.15989 0.42506 0.0
C973 C 0.21909 0.14092 0.43322 0.0
C974 C 0.22143 0.13459 0.45095 0.0
C975 C 0.23218 0.16589 0.55807 0.0
C976 C 0.21136 0.16454 0.55477 0.0
C977 C 0.2433 0.16152 0.54392 0.0
C978 C 0.23362 0.15549 0.52636 0.0
C979 C 0.2138 0.15596 0.52279 0.0
C980 C 0.20287 0.16051 0.53677 0.0
C981 C 0.24191 0.14581 0.5122 0.0
C982 C 0.2438 0.15331 0.494 0.0
C983 C 0.24375 0.12654 0.51582 0.0
C984 C 0.24036 0.11661 0.53439 0.0
C985 C 0.21919 0.10698 0.54289 0.0
C986 C 0.21603 0.09741 0.56035 0.0
C987 C 0.23387 0.09722 0.56935 0.0
C988 C 0.25489 0.10651 0.56088 0.0
C989 C 0.25814 0.11611 0.54342 0.0
H990 H 0.23141 0.08981 0.58286 0.0
H991 H 0.23502 0.16478 0.41133 0.0
H992 H 0.85617 0.07162 0.56481 0.0
H993 H 0.86768 0.09637 0.53821 0.0
H994 H 0.82332 0.04035 0.5038 0.0
H995 H 0.81321 0.01526 0.53032 0.0
H996 H 0.85896 0.05974 0.48746 0.0
H997 H 0.81629 0.08877 0.51377 0.0
H998 H 0.80136 0.10335 0.53751 0.0
H999 H 0.86702 0.16054 0.54542 0.0
H1000 H 0.88244 0.14616 0.52192 0.0
H1001 H 0.90194 0.13584 0.41344 0.0
H1002 H 0.87302 0.11741 0.43709 0.0
H1003 H 0.92392 0.14489 0.47911 0.0
H1004 H 0.95295 0.1628 0.45555 0.0
H1005 H 0.87682 0.13919 0.48753 0.0
H1006 H 0.91737 0.10064 0.46472 0.0
H1007 H 0.92938 0.08634 0.43855 0.0
H1008 H 0.86076 0.04581 0.42146 0.0
H1009 H 0.84841 0.06026 0.44736 0.0
C1010 C 0.84856 0.06472 0.55162 0.0
C1011 C 0.83385 0.04159 0.54955 0.0
C1012 C 0.85498 0.07893 0.53639 0.0
C1013 C 0.84616 0.07042 0.51889 0.0
C1014 C 0.83048 0.0474 0.51707 0.0
C1015 C 0.82462 0.03307 0.53222 0.0
C1016 C 0.85533 0.08499 0.50234 0.0
C1017 C 0.86218 0.07688 0.4874 0.0
C1018 C 0.85969 0.10748 0.50196 0.0
C1019 C 0.85055 0.1163 0.51611 0.0
C1020 C 0.82759 0.10439 0.52065 0.0
C1021 C 0.81903 0.11263 0.53406 0.0
C1022 C 0.83324 0.13285 0.54298 0.0
C1023 C 0.85603 0.14489 0.53849 0.0
C1024 C 0.86469 0.13672 0.5251 0.0
C1025 C 0.90686 0.13865 0.42776 0.0
C1026 C 0.92965 0.15051 0.43273 0.0
C1027 C 0.89033 0.12814 0.44122 0.0
C1028 C 0.89643 0.12978 0.45976 0.0
C1029 C 0.91894 0.14358 0.46485 0.0
C1030 C 0.93549 0.15367 0.4514 0.0
C1031 C 0.88057 0.11385 0.47336 0.0
C1032 C 0.87273 0.12177 0.48763 0.0
C1033 C 0.87463 0.091 0.47292 0.0
C1034 C 0.882 0.08169 0.45783 0.0
C1035 C 0.90487 0.08878 0.45531 0.0
C1036 C 0.91173 0.08066 0.44053 0.0
C1037 C 0.89585 0.06523 0.42831 0.0
C1038 C 0.87305 0.0578 0.43091 0.0
C1039 C 0.86611 0.06595 0.44563 0.0
H1040 H 0.9012 0.05901 0.41684 0.0
H1041 H 0.82658 0.13919 0.55336 0.0
H1042 H 0.91835 0.76523 0.57448 0.0
H1043 H 0.89294 0.74937 0.54813 0.0
H1044 H 0.93742 0.80737 0.51578 0.0
H1045 H 0.96279 0.82305 0.54167 0.0
H1046 H 0.87023 0.76605 0.53204 0.0
H1047 H 0.93729 0.79644 0.47262 0.0
H1048 H 0.97258 0.79652 0.46634 0.0
H1049 H 0.95365 0.7424 0.5045 0.0
H1050 H 0.91815 0.74178 0.51088 0.0
H1051 H 0.84985 0.81842 0.46141 0.0
H1052 H 0.86089 0.80283 0.48642 0.0
H1053 H 0.85887 0.75218 0.45018 0.0
H1054 H 0.8483 0.76824 0.42465 0.0
H1055 H 0.89621 0.77037 0.46784 0.0
H1056 H 0.822 0.73696 0.48737 0.0
H1057 H 0.78473 0.73206 0.49431 0.0
H1058 H 0.8137 0.78298 0.5359 0.0
H1059 H 0.85122 0.78845 0.52908 0.0
C1060 C 0.92289 0.77436 0.56162 0.0
C1061 C 0.94252 0.79548 0.56021 0.0
C1062 C 0.90834 0.76529 0.54661 0.0
C1063 C 0.91339 0.77705 0.52993 0.0
C1064 C 0.93336 0.79773 0.52837 0.0
C1065 C 0.94778 0.80681 0.54329 0.0
C1066 C 0.89702 0.7694 0.51461 0.0
C1067 C 0.87568 0.76658 0.51799 0.0
C1068 C 0.90373 0.76894 0.49633 0.0
C1069 C 0.92499 0.76907 0.49224 0.0
C1070 C 0.94053 0.78441 0.47956 0.0
C1071 C 0.96063 0.7846 0.47603 0.0
C1072 C 0.96534 0.76947 0.48502 0.0
C1073 C 0.95 0.75414 0.49758 0.0
C1074 C 0.9299 0.75389 0.50118 0.0
C1075 C 0.8514 0.80376 0.4587 0.0
C1076 C 0.84839 0.79475 0.44092 0.0
C1077 C 0.85749 0.79465 0.47315 0.0
C1078 C 0.86045 0.7761 0.47031 0.0
C1079 C 0.85659 0.76643 0.45273 0.0
C1080 C 0.85051 0.77562 0.43816 0.0
C1081 C 0.87018 0.76896 0.48527 0.0
C1082 C 0.89031 0.769 0.48184 0.0
C1083 C 0.86199 0.76607 0.5035 0.0
C1084 C 0.83949 0.7631 0.50768 0.0
C1085 C 0.82048 0.74723 0.49792 0.0
C1086 C 0.79929 0.74433 0.50185 0.0
C1087 C 0.79685 0.75717 0.51555 0.0
C1088 C 0.81561 0.77299 0.52533 0.0
C1089 C 0.83685 0.77596 0.52146 0.0
H1090 H 0.78041 0.7548 0.51861 0.0
H1091 H 0.98085 0.76957 0.48224 0.0
H1092 H 0.83645 0.7585 0.07221 0.0
H1093 H 0.85258 0.74478 0.04908 0.0
H1094 H 0.85561 0.79379 0.01057 0.0
H1095 H 0.83935 0.80746 0.03331 0.0
H1096 H 0.8455 0.73395 0.00541 0.0
H1097 H 0.9136 0.82702 0.00806 0.0
H1098 H 0.92938 0.85849 0.03012 0.0
H1099 H 0.91186 0.81205 0.07488 0.0
H1100 H 0.89641 0.78035 0.05305 0.0
H1101 H 0.91203 0.77421 0.92614 0.0
H1102 H 0.88697 0.7606 0.95265 0.0
H1103 H 0.94342 0.77584 0.98782 0.0
H1104 H 0.96861 0.79086 0.9614 0.0
H1105 H 0.92468 0.79543 0.00064 0.0
H1106 H 0.89556 0.72031 0.9823 0.0
H1107 H 0.88046 0.68755 0.96166 0.0
H1108 H 0.82244 0.69388 0.95109 0.0
H1109 H 0.83733 0.7269 0.97144 0.0
C1110 C 0.83974 0.76581 0.0586 0.0
C1111 C 0.8371 0.78445 0.05475 0.0
C1112 C 0.84889 0.75787 0.0454 0.0
C1113 C 0.85548 0.7685 0.02829 0.0
C1114 C 0.85065 0.78546 0.02378 0.0
C1115 C 0.84147 0.79333 0.03686 0.0
C1116 C 0.87112 0.76539 0.01647 0.0
C1117 C 0.86291 0.74713 0.00437 0.0
C1118 C 0.89394 0.78227 0.01573 0.0
C1119 C 0.90363 0.80131 0.02892 0.0
C1120 C 0.91322 0.82354 0.0226 0.0
C1121 C 0.9221 0.84141 0.03506 0.0
C1122 C 0.92156 0.83726 0.05389 0.0
C1123 C 0.9122 0.81523 0.0603 0.0
C1124 C 0.90335 0.79731 0.04788 0.0
C1125 C 0.9189 0.77395 0.93947 0.0
C1126 C 0.94215 0.78371 0.94188 0.0
C1127 C 0.90456 0.76602 0.95464 0.0
C1128 C 0.91322 0.76716 0.97236 0.0
C1129 C 0.93631 0.77496 0.97437 0.0
C1130 C 0.95069 0.78348 0.9593 0.0
C1131 C 0.89914 0.76417 0.9888 0.0
C1132 C 0.90757 0.78161 0.0018 0.0
C1133 C 0.87679 0.74612 0.99062 0.0
C1134 C 0.86764 0.72618 0.97838 0.0
C1135 C 0.87964 0.71482 0.97549 0.0
C1136 C 0.87111 0.69618 0.96385 0.0
C1137 C 0.85051 0.68865 0.95506 0.0
C1138 C 0.83838 0.69973 0.95792 0.0
C1139 C 0.84685 0.71839 0.96955 0.0
H1140 H 0.84393 0.67422 0.94605 0.0
H1141 H 0.92845 0.85112 0.06351 0.0
H1142 H 0.22379 0.13287 0.91781 0.0
H1143 H 0.23443 0.11497 0.9418 0.0
H1144 H 0.21819 0.14927 0.98333 0.0
H1145 H 0.2068 0.16664 0.95945 0.0
H1146 H 0.25859 0.14161 0.99012 0.0
H1147 H 0.1787 0.10585 0.97368 0.0
H1148 H 0.14774 0.08971 0.95123 0.0
H1149 H 0.16674 0.04151 0.93484 0.0
H1150 H 0.19838 0.05797 0.95672 0.0
H1151 H 0.21717 0.07592 0.07039 0.0
H1152 H 0.22968 0.1007 0.04373 0.0
H1153 H 0.21596 0.04445 0.00882 0.0
H1154 H 0.2021 0.01943 0.0354 0.0
H1155 H 0.19613 0.06298 0.99553 0.0
H1156 H 0.27115 0.09272 0.01564 0.0
H1157 H 0.30318 0.10848 0.03706 0.0
H1158 H 0.29557 0.16609 0.04583 0.0
H1159 H 0.26328 0.15054 0.02467 0.0
C1160 C 0.22322 0.13717 0.93203 0.0
C1161 C 0.21429 0.15094 0.93684 0.0
C1162 C 0.22932 0.12697 0.94568 0.0
C1163 C 0.22702 0.13082 0.96426 0.0
C1164 C 0.2202 0.14626 0.96904 0.0
C1165 C 0.21356 0.15602 0.95542 0.0
C1166 C 0.22759 0.11586 0.97851 0.0
C1167 C 0.24503 0.12439 0.99142 0.0
C1168 C 0.21017 0.09328 0.97974 0.0
C1169 C 0.19116 0.08342 0.96658 0.0
C1170 C 0.17652 0.09208 0.96506 0.0
C1171 C 0.15884 0.08286 0.95244 0.0
C1172 C 0.15538 0.06471 0.9415 0.0
C1173 C 0.16956 0.0557 0.9432 0.0
C1174 C 0.18741 0.06501 0.95566 0.0
C1175 C 0.21745 0.069 0.0571 0.0
C1176 C 0.20855 0.04579 0.05488 0.0
C1177 C 0.22474 0.08321 0.04183 0.0
C1178 C 0.22388 0.07454 0.02416 0.0
C1179 C 0.21667 0.05157 0.02224 0.0
C1180 C 0.20881 0.03728 0.03742 0.0
C1181 C 0.22716 0.08856 0.00762 0.0
C1182 C 0.2102 0.07994 0.9942 0.0
C1183 C 0.24524 0.1109 0.00586 0.0
C1184 C 0.26467 0.12037 0.01863 0.0
C1185 C 0.27619 0.10867 0.02224 0.0
C1186 C 0.29442 0.11759 0.03432 0.0
C1187 C 0.30139 0.13826 0.04282 0.0
C1188 C 0.29016 0.15008 0.03923 0.0
C1189 C 0.27191 0.14124 0.02717 0.0
H1190 H 0.31551 0.14513 0.05217 0.0
H1191 H 0.14162 0.05755 0.93181 0.0
H1192 H 0.84207 0.07886 0.92139 0.0
H1193 H 0.85007 0.10511 0.94701 0.0
H1194 H 0.88387 0.07551 0.97566 0.0
H1195 H 0.87559 0.04928 0.95077 0.0
H1196 H 0.8593 0.08246 -0.00114 0.0
H1197 H 0.91193 0.12546 0.94905 0.0
H1198 H 0.92075 0.14207 0.91809 0.0
H1199 H 0.88622 0.17821 0.92986 0.0
H1200 H 0.87698 0.16156 0.96091 0.0
H1201 H 0.96868 0.17083 0.02996 0.0
H1202 H 0.94148 0.15862 0.00521 0.0
H1203 H 0.88918 0.14665 0.04397 0.0
H1204 H 0.9164 0.15831 0.0691 0.0
H1205 H 0.91021 0.16393 0.98847 0.0
H1206 H 0.84507 0.09591 0.03421 0.0
H1207 H 0.84177 0.07808 0.06438 0.0
H1208 H 0.90913 0.09014 0.05925 0.0
H1209 H 0.9127 0.1078 0.02902 0.0
C1210 C 0.8511 0.07793 0.93322 0.0
C1211 C 0.85819 0.06194 0.93398 0.0
C1212 C 0.85563 0.09292 0.94784 0.0
C1213 C 0.86754 0.09227 0.96331 0.0
C1214 C 0.87439 0.0762 0.96404 0.0
C1215 C 0.86974 0.06122 0.94965 0.0
C1216 C 0.87422 0.10872 0.97857 0.0
C1217 C 0.86995 0.10037 0.9966 0.0
C1218 C 0.88799 0.13211 0.97573 0.0
C1219 C 0.89352 0.14206 0.95714 0.0
C1220 C 0.9061 0.13683 0.94497 0.0
C1221 C 0.9112 0.14627 0.92742 0.0
C1222 C 0.904 0.16113 0.92196 0.0
C1223 C 0.89173 0.16664 0.93408 0.0
C1224 C 0.88655 0.15721 0.95165 0.0
C1225 C 0.95151 0.16615 0.03324 0.0
C1226 C 0.94456 0.16484 0.05157 0.0
C1227 C 0.93597 0.15938 0.01899 0.0
C1228 C 0.91317 0.15119 0.02276 0.0
C1229 C 0.90665 0.15256 0.04079 0.0
C1230 C 0.92224 0.15926 0.05514 0.0
C1231 C 0.89644 0.13738 0.00856 0.0
C1232 C 0.89861 0.14622 0.99081 0.0
C1233 C 0.88132 0.11424 0.01153 0.0
C1234 C 0.87921 0.10339 0.02954 0.0
C1235 C 0.85913 0.0947 0.03955 0.0
C1236 C 0.85722 0.08463 0.05664 0.0
C1237 C 0.87527 0.08306 0.06377 0.0
C1238 C 0.89521 0.09143 0.05377 0.0
C1239 C 0.89717 0.10145 0.03666 0.0
H1240 H 0.87378 0.0753 0.07702 0.0
H1241 H 0.90799 0.16842 0.90835 0.0
H1242 H 0.81132 0.85308 0.46045 0.0
H1243 H 0.79119 0.85896 0.48502 0.0
H1244 H 0.73273 0.83524 0.45041 0.0
H1245 H 0.75328 0.82995 0.42518 0.0
H1246 H 0.74014 0.87183 0.4658 0.0
H1247 H 0.73127 0.80522 0.49022 0.0
H1248 H 0.7407 0.77621 0.49877 0.0
H1249 H 0.79075 0.82205 0.53634 0.0
H1250 H 0.78192 0.85146 0.52784 0.0
H1251 H 0.74621 0.90278 0.5722 0.0
H1252 H 0.7288 0.87428 0.54808 0.0
H1253 H 0.77241 0.92261 0.5079 0.0
H1254 H 0.78935 0.95094 0.53164 0.0
H1255 H 0.75018 0.85818 0.53103 0.0
H1256 H 0.75494 0.91243 0.46637 0.0
H1257 H 0.74253 0.93934 0.45838 0.0
H1258 H 0.69393 0.9136 0.50188 0.0
H1259 H 0.70574 0.88626 0.50998 0.0
C1260 C 0.79408 0.84875 0.45802 0.0
C1261 C 0.78402 0.84117 0.44073 0.0
C1262 C 0.78243 0.85189 0.47224 0.0
C1263 C 0.76023 0.84714 0.46976 0.0
C1264 C 0.74979 0.83887 0.45271 0.0
C1265 C 0.76156 0.83585 0.43831 0.0
C1266 C 0.7494 0.85348 0.48442 0.0
C1267 C 0.74192 0.86856 0.48007 0.0
C1268 C 0.75046 0.84824 0.50306 0.0
C1269 C 0.75583 0.83057 0.50841 0.0
C1270 C 0.74435 0.80916 0.50026 0.0
C1271 C 0.7496 0.79264 0.5051 0.0
C1272 C 0.76629 0.79728 0.51811 0.0
C1273 C 0.77778 0.81846 0.52631 0.0
C1274 C 0.7726 0.83505 0.52152 0.0
C1275 C 0.75149 0.90748 0.55811 0.0
C1276 C 0.76939 0.92899 0.55384 0.0
C1277 C 0.74156 0.89117 0.54435 0.0
C1278 C 0.74919 0.89625 0.52613 0.0
C1279 C 0.76583 0.91827 0.52173 0.0
C1280 C 0.77576 0.93446 0.53541 0.0
C1281 C 0.74329 0.87825 0.51231 0.0
C1282 C 0.74749 0.86084 0.5168 0.0
C1283 C 0.73861 0.88091 0.49386 0.0
C1284 C 0.73125 0.8972 0.48878 0.0
C1285 C 0.74144 0.9123 0.47413 0.0
C1286 C 0.73455 0.92771 0.46961 0.0
C1287 C 0.71746 0.92819 0.47962 0.0
C1288 C 0.70719 0.91325 0.49416 0.0
C1289 C 0.714 0.8978 0.49873 0.0
H1290 H 0.71217 0.94014 0.47611 0.0
H1291 H 0.77031 0.78448 0.52186 0.0
H1292 H 0.03199 0.86721 0.54156 0.0
H1293 H 0.05848 0.88043 0.51616 0.0
H1294 H 0.10301 0.86531 0.54677 0.0
H1295 H 0.07667 0.85232 0.57254 0.0
H1296 H 0.12519 0.90639 0.53358 0.0
H1297 H 0.07703 0.83518 0.50819 0.0
H1298 H 0.04118 0.80194 0.49937 0.0
H1299 H 0.02726 0.84233 0.46269 0.0
H1300 H 0.06282 0.8759 0.47149 0.0
H1301 H 0.15767 0.93363 0.42804 0.0
H1302 H 0.14407 0.90668 0.45347 0.0
H1303 H 0.13887 0.95521 0.48759 0.0
H1304 H 0.15284 0.98218 0.46266 0.0
H1305 H 0.10399 0.88867 0.46808 0.0
H1306 H 0.14339 0.94835 0.53135 0.0
H1307 H 0.17981 0.98088 0.54 0.0
H1308 H 0.21336 0.96101 0.50091 0.0
H1309 H 0.17719 0.92813 0.49223 0.0
C1310 C 0.04726 0.86638 0.54287 0.0
C1311 C 0.05225 0.85885 0.55919 0.0
C1312 C 0.06234 0.8738 0.52823 0.0
C1313 C 0.08264 0.87365 0.52948 0.0
C1314 C 0.0874 0.8655 0.54551 0.0
C1315 C 0.0723 0.85807 0.56021 0.0
C1316 C 0.0996 0.8841 0.5147 0.0
C1317 C 0.12072 0.90232 0.51925 0.0
C1318 C 0.09404 0.8783 0.49604 0.0
C1319 C 0.07265 0.85811 0.49054 0.0
C1320 C 0.06628 0.83702 0.49831 0.0
C1321 C 0.04601 0.81811 0.49331 0.0
C1322 C 0.03198 0.82004 0.48047 0.0
C1323 C 0.03818 0.84087 0.47261 0.0
C1324 C 0.05842 0.85984 0.47757 0.0
C1325 C 0.15418 0.93874 0.44112 0.0
C1326 C 0.15616 0.96001 0.44325 0.0
C1327 C 0.14634 0.92329 0.45561 0.0
C1328 C 0.14059 0.92895 0.47248 0.0
C1329 C 0.14361 0.95055 0.47485 0.0
C1330 C 0.15143 0.96593 0.46047 0.0
C1331 C 0.12895 0.91182 0.48698 0.0
C1332 C 0.1088 0.89232 0.48239 0.0
C1333 C 0.13556 0.91625 0.50561 0.0
C1334 C 0.1575 0.93574 0.51111 0.0
C1335 C 0.15854 0.95077 0.52471 0.0
C1336 C 0.17915 0.96931 0.52959 0.0
C1337 C 0.19889 0.97301 0.521 0.0
C1338 C 0.19806 0.95814 0.50754 0.0
C1339 C 0.1775 0.93955 0.50262 0.0
H1340 H 0.21482 0.98741 0.52478 0.0
H1341 H 0.01634 0.80539 0.47657 0.0
H1342 H 0.14509 0.23451 0.57166 0.0
H1343 H 0.13225 0.25024 0.54751 0.0
H1344 H 0.12445 0.1977 0.51062 0.0
H1345 H 0.13771 0.18232 0.5343 0.0
H1346 H 0.13801 0.23503 0.49194 0.0
H1347 H 0.08053 0.19265 0.5383 0.0
H1348 H 0.06537 0.18557 0.56983 0.0
H1349 H 0.07238 0.25123 0.5715 0.0
H1350 H 0.08782 0.25875 0.54003 0.0
H1351 H 0.02075 0.18303 0.45918 0.0
H1352 H 0.04622 0.19758 0.48494 0.0
H1353 H 0.09067 0.25671 0.4537 0.0
H1354 H 0.06545 0.2416 0.42719 0.0
H1355 H 0.06579 0.23097 0.50739 0.0
H1356 H 0.14462 0.26941 0.46388 0.0
H1357 H 0.15568 0.27084 0.43142 0.0
H1358 H 0.10069 0.20391 0.42308 0.0
H1359 H 0.08981 0.20186 0.45559 0.0
C1360 C 0.14105 0.22657 0.55829 0.0
C1361 C 0.14206 0.20689 0.55505 0.0
C1362 C 0.1337 0.23558 0.54451 0.0
C1363 C 0.12706 0.22496 0.52734 0.0
C1364 C 0.12949 0.20623 0.52374 0.0
C1365 C 0.13693 0.19732 0.5374 0.0
C1366 C 0.11517 0.23134 0.5137 0.0
C1367 C 0.12246 0.23463 0.49537 0.0
C1368 C 0.09488 0.23088 0.51812 0.0
C1369 C 0.08558 0.22636 0.53697 0.0
C1370 C 0.07896 0.20561 0.54546 0.0
C1371 C 0.07031 0.20151 0.5633 0.0
C1372 C 0.06799 0.21797 0.57269 0.0
C1373 C 0.07425 0.23853 0.56423 0.0
C1374 C 0.08296 0.24272 0.5464 0.0
C1375 C 0.03576 0.1993 0.45773 0.0
C1376 C 0.04137 0.2108 0.44086 0.0
C1377 C 0.05026 0.20776 0.47265 0.0
C1378 C 0.07065 0.22803 0.47119 0.0
C1379 C 0.07523 0.2408 0.45503 0.0
C1380 C 0.06078 0.23214 0.43989 0.0
C1381 C 0.088 0.2334 0.48552 0.0
C1382 C 0.08185 0.23245 0.50403 0.0
C1383 C 0.10895 0.23522 0.48122 0.0
C1384 C 0.11626 0.23563 0.46204 0.0
C1385 C 0.13507 0.25494 0.45514 0.0
C1386 C 0.14131 0.25585 0.43675 0.0
C1387 C 0.12885 0.23752 0.42518 0.0
C1388 C 0.11034 0.2181 0.43204 0.0
C1389 C 0.10421 0.21701 0.45046 0.0
H1390 H 0.13354 0.23836 0.4109 0.0
H1391 H 0.06127 0.21477 0.5865 0.0
H1392 H 0.71544 0.49305 0.38134 0.0
H1393 H 0.74261 0.50278 0.35676 0.0
H1394 H 0.77386 0.57271 0.37165 0.0
H1395 H 0.74663 0.56307 0.39685 0.0
H1396 H 0.76171 0.5571 0.3301 0.0
H1397 H 0.80467 0.55729 0.38174 0.0
H1398 H 0.81039 0.54312 0.41115 0.0
H1399 H 0.79445 0.48065 0.38547 0.0
H1400 H 0.78827 0.4943 0.35597 0.0
H1401 H 0.83077 0.55209 0.25789 0.0
H1402 H 0.8216 0.56512 0.28619 0.0
H1403 H 0.7899 0.49769 0.30782 0.0
H1404 H 0.79937 0.48473 0.28006 0.0
H1405 H 0.81331 0.52635 0.33376 0.0
H1406 H 0.76011 0.52093 0.28658 0.0
H1407 H 0.74997 0.53129 0.2572 0.0
H1408 H 0.78177 0.60024 0.27425 0.0
H1409 H 0.79235 0.59029 0.30371 0.0
C1410 C 0.72793 0.51057 0.37943 0.0
C1411 C 0.72885 0.5273 0.39111 0.0
C1412 C 0.7435 0.51606 0.36538 0.0
C1413 C 0.76024 0.53839 0.36254 0.0
C1414 C 0.76103 0.55536 0.37375 0.0
C1415 C 0.74553 0.54981 0.38811 0.0
C1416 C 0.77674 0.54321 0.34778 0.0
C1417 C 0.77363 0.55116 0.33097 0.0
C1418 C 0.7919 0.53504 0.34898 0.0
C1419 C 0.79595 0.52683 0.36663 0.0
C1420 C 0.80225 0.54048 0.38238 0.0
C1421 C 0.80559 0.53254 0.39907 0.0
C1422 C 0.80277 0.51099 0.40018 0.0
C1423 C 0.79665 0.49735 0.38459 0.0
C1424 C 0.79327 0.5052 0.36787 0.0
C1425 C 0.82195 0.54008 0.26874 0.0
C1426 C 0.81569 0.51732 0.26663 0.0
C1427 C 0.81672 0.54757 0.28489 0.0
C1428 C 0.80494 0.53236 0.29909 0.0
C1429 C 0.79913 0.50979 0.29712 0.0
C1430 C 0.80447 0.50236 0.28113 0.0
C1431 C 0.79748 0.53921 0.31578 0.0
C1432 C 0.80223 0.53332 0.33297 0.0
C1433 C 0.78359 0.54898 0.31486 0.0
C1434 C 0.77729 0.55494 0.29719 0.0
C1435 C 0.76509 0.53833 0.28399 0.0
C1436 C 0.75924 0.54411 0.26734 0.0
C1437 C 0.76528 0.56641 0.26381 0.0
C1438 C 0.77716 0.58298 0.27697 0.0
C1439 C 0.78309 0.57728 0.29364 0.0
H1440 H 0.76071 0.57084 0.2509 0.0
H1441 H 0.80534 0.50487 0.41312 0.0
H1442 H 0.48412 0.19377 0.37141 0.0
H1443 H 0.47621 0.21357 0.34745 0.0
H1444 H 0.43489 0.22562 0.38501 0.0
H1445 H 0.44259 0.20556 0.40921 0.0
H1446 H 0.41975 0.21852 0.34656 0.0
H1447 H 0.48387 0.26462 0.38359 0.0
H1448 H 0.51894 0.27422 0.40001 0.0
H1449 H 0.55039 0.27448 0.34902 0.0
H1450 H 0.51539 0.26446 0.33235 0.0
H1451 H 0.49002 0.3323 0.29005 0.0
H1452 H 0.47834 0.31119 0.31878 0.0
H1453 H 0.44101 0.24951 0.2882 0.0
H1454 H 0.45178 0.27073 0.25953 0.0
H1455 H 0.49193 0.28504 0.3283 0.0
H1456 H 0.40331 0.20705 0.31412 0.0
H1457 H 0.36766 0.19892 0.29954 0.0
H1458 H 0.38374 0.26716 0.30807 0.0
H1459 H 0.41933 0.27566 0.32293 0.0
C1460 C 0.4729 0.20013 0.3745 0.0
C1461 C 0.4643 0.19846 0.39229 0.0
C1462 C 0.46834 0.21137 0.36077 0.0
C1463 C 0.45527 0.22132 0.3646 0.0
C1464 C 0.44501 0.21802 0.38184 0.0
C1465 C 0.44947 0.20661 0.39564 0.0
C1466 C 0.45533 0.23771 0.35145 0.0
C1467 C 0.43542 0.23318 0.34255 0.0
C1468 C 0.4757 0.25723 0.34683 0.0
C1469 C 0.49695 0.26364 0.35675 0.0
C1470 C 0.49822 0.26658 0.37591 0.0
C1471 C 0.51808 0.27211 0.38525 0.0
C1472 C 0.53686 0.27493 0.37556 0.0
C1473 C 0.53583 0.27228 0.35651 0.0
C1474 C 0.51599 0.26669 0.3471 0.0
C1475 C 0.47878 0.3143 0.28953 0.0
C1476 C 0.47195 0.3031 0.27261 0.0
C1477 C 0.47212 0.30224 0.30593 0.0
C1478 C 0.45885 0.27871 0.30573 0.0
C1479 C 0.45089 0.26766 0.28883 0.0
C1480 C 0.45716 0.27979 0.2724 0.0
C1481 C 0.45639 0.26564 0.32267 0.0
C1482 C 0.47602 0.27074 0.33237 0.0
C1483 C 0.43564 0.24708 0.32827 0.0
C1484 C 0.41409 0.24202 0.31954 0.0
C1485 C 0.39919 0.2203 0.31299 0.0
C1486 C 0.379 0.21563 0.30464 0.0
C1487 C 0.37347 0.23253 0.30283 0.0
C1488 C 0.38809 0.25411 0.30941 0.0
C1489 C 0.40829 0.25887 0.31777 0.0
H1490 H 0.35784 0.22888 0.29636 0.0
H1491 H 0.55222 0.27921 0.38282 0.0
H1492 H 0.73614 0.19241 0.25573 0.0
H1493 H 0.75999 0.20736 0.28289 0.0
H1494 H 0.70115 0.17679 0.31752 0.0
H1495 H 0.67728 0.16277 0.29035 0.0
H1496 H 0.72348 0.21827 0.32474 0.0
H1497 H 0.74316 0.16134 0.3184 0.0
H1498 H 0.756 0.13803 0.30265 0.0
H1499 H 0.81977 0.19665 0.29175 0.0
H1500 H 0.80721 0.22038 0.30722 0.0
H1501 H 0.80254 0.24909 0.40546 0.0
H1502 H 0.78638 0.2244 0.37885 0.0
H1503 H 0.79151 0.27984 0.34728 0.0
H1504 H 0.80735 0.30455 0.37379 0.0
H1505 H 0.79546 0.22226 0.34103 0.0
H1506 H 0.74049 0.26286 0.32965 0.0
H1507 H 0.72628 0.28378 0.34738 0.0
H1508 H 0.72925 0.25159 0.39695 0.0
H1509 H 0.74312 0.23023 0.37947 0.0
C1510 C 0.72838 0.18837 0.26918 0.0
C1511 C 0.7049 0.17669 0.27099 0.0
C1512 C 0.74203 0.19685 0.28472 0.0
C1513 C 0.73238 0.19327 0.30228 0.0
C1514 C 0.70898 0.17995 0.30411 0.0
C1515 C 0.69535 0.17191 0.2886 0.0
C1516 C 0.74613 0.20602 0.31834 0.0
C1517 C 0.7391 0.21889 0.32831 0.0
C1518 C 0.76651 0.20687 0.32316 0.0
C1519 C 0.77416 0.19267 0.31385 0.0
C1520 C 0.75986 0.16929 0.31252 0.0
C1521 C 0.7671 0.156 0.30367 0.0
C1522 C 0.78867 0.16586 0.29617 0.0
C1523 C 0.80306 0.18903 0.29755 0.0
C1524 C 0.7959 0.20241 0.30639 0.0
C1525 C 0.80074 0.25616 0.39272 0.0
C1526 C 0.80568 0.27863 0.39185 0.0
C1527 C 0.79161 0.24204 0.37752 0.0
C1528 C 0.78741 0.25025 0.36128 0.0
C1529 C 0.79436 0.27316 0.35983 0.0
C1530 C 0.80329 0.28722 0.37502 0.0
C1531 C 0.7728 0.2345 0.34695 0.0
C1532 C 0.77971 0.22129 0.33738 0.0
C1533 C 0.75195 0.23278 0.34271 0.0
C1534 C 0.74304 0.24513 0.35327 0.0
C1535 C 0.73799 0.26017 0.34431 0.0
C1536 C 0.73001 0.27211 0.35432 0.0
C1537 C 0.72693 0.26907 0.37329 0.0
C1538 C 0.73171 0.25399 0.38227 0.0
C1539 C 0.73964 0.24197 0.37232 0.0
H1540 H 0.7208 0.27836 0.38101 0.0
H1541 H 0.79425 0.15553 0.28932 0.0
H1542 H 0.8672 0.49483 0.85856 0.0
H1543 H 0.88501 0.48405 0.83524 0.0
H1544 H 0.93971 0.49867 0.87221 0.0
H1545 H 0.92123 0.50859 0.89622 0.0
H1546 H 0.92021 0.49664 0.81583 0.0
H1547 H 0.95362 0.45847 0.86712 0.0
H1548 H 0.94981 0.44735 0.89975 0.0
H1549 H 0.88129 0.43261 0.89962 0.0
H1550 H 0.88469 0.44345 0.86696 0.0
H1551 H 0.9191 0.41399 0.75725 0.0
H1552 H 0.93743 0.44448 0.77969 0.0
H1553 H 0.88573 0.40504 0.8192 0.0
H1554 H 0.86809 0.37454 0.79744 0.0
H1555 H 0.92217 0.42901 0.8368 0.0
H1556 H 0.88215 0.44312 0.78714 0.0
H1557 H 0.87642 0.44931 0.75469 0.0
H1558 H 0.94391 0.50486 0.75187 0.0
H1559 H 0.95005 0.49881 0.78429 0.0
C1560 C 0.88322 0.4962 0.86175 0.0
C1561 C 0.89239 0.50187 0.8795 0.0
C1562 C 0.89357 0.4902 0.84825 0.0
C1563 C 0.91346 0.48998 0.85207 0.0
C1564 C 0.92408 0.4982 0.86908 0.0
C1565 C 0.91351 0.50391 0.88278 0.0
C1566 C 0.92044 0.47771 0.83931 0.0
C1567 C 0.92123 0.48216 0.82043 0.0
C1568 C 0.92178 0.45877 0.84522 0.0
C1569 C 0.91952 0.45205 0.86475 0.0
C1570 C 0.93776 0.45284 0.87408 0.0
C1571 C 0.93567 0.44658 0.89256 0.0
C1572 C 0.91535 0.43937 0.90177 0.0
C1573 C 0.89704 0.43827 0.89249 0.0
C1574 C 0.89903 0.44445 0.87401 0.0
C1575 C 0.912 0.41164 0.77089 0.0
C1576 C 0.89181 0.392 0.77539 0.0
C1577 C 0.92246 0.42912 0.78368 0.0
C1578 C 0.91272 0.42729 0.80103 0.0
C1579 C 0.89364 0.40697 0.80594 0.0
C1580 C 0.88338 0.38952 0.79334 0.0
C1581 C 0.92003 0.44695 0.81336 0.0
C1582 C 0.92234 0.4441 0.83216 0.0
C1583 C 0.9203 0.4667 0.8074 0.0
C1584 C 0.91665 0.47034 0.78799 0.0
C1585 C 0.89578 0.45657 0.77954 0.0
C1586 C 0.89246 0.46005 0.76118 0.0
C1587 C 0.90982 0.47742 0.75121 0.0
C1588 C 0.93051 0.49137 0.7596 0.0
C1589 C 0.93393 0.48792 0.77795 0.0
H1590 H 0.90722 0.4801 0.73699 0.0
H1591 H 0.91377 0.43457 0.91608 0.0
H1592 H 0.48384 0.35791 0.8628 0.0
H1593 H 0.494 0.38335 0.83649 0.0
H1594 H 0.5411 0.4383 0.8705 0.0
H1595 H 0.52958 0.41331 0.89698 0.0
H1596 H 0.52867 0.45545 0.84633 0.0
H1597 H 0.55518 0.40242 0.84341 0.0
H1598 H 0.55341 0.3657 0.84186 0.0
H1599 H 0.51289 0.34899 0.79322 0.0
H1600 H 0.51404 0.38545 0.79475 0.0
H1601 H 0.62831 0.50169 0.79155 0.0
H1602 H 0.59725 0.4859 0.81352 0.0
H1603 H 0.54984 0.45907 0.76891 0.0
H1604 H 0.58078 0.47537 0.74682 0.0
H1605 H 0.55399 0.42762 0.79392 0.0
H1606 H 0.54136 0.48976 0.79461 0.0
H1607 H 0.55251 0.5298 0.79667 0.0
H1608 H 0.57669 0.53271 0.8515 0.0
H1609 H 0.56603 0.49277 0.84969 0.0
C1610 C 0.49585 0.37558 0.86469 0.0
C1611 C 0.50608 0.38369 0.8818 0.0
C1612 C 0.5018 0.39008 0.84965 0.0
C1613 C 0.51891 0.41264 0.85131 0.0
C1614 C 0.52793 0.42101 0.86876 0.0
C1615 C 0.52138 0.40669 0.88392 0.0
C1616 C 0.52931 0.42685 0.83479 0.0
C1617 C 0.53418 0.44933 0.83487 0.0
C1618 C 0.5363 0.41892 0.81961 0.0
C1619 C 0.5345 0.39651 0.81929 0.0
C1620 C 0.54566 0.39078 0.83253 0.0
C1621 C 0.54478 0.37004 0.83165 0.0
C1622 C 0.53303 0.35503 0.81746 0.0
C1623 C 0.52194 0.36062 0.80423 0.0
C1624 C 0.52267 0.38129 0.8051 0.0
C1625 C 0.61123 0.4932 0.78643 0.0
C1626 C 0.60693 0.48954 0.76752 0.0
C1627 C 0.59351 0.48432 0.79897 0.0
C1628 C 0.57132 0.47137 0.79278 0.0
C1629 C 0.56688 0.46924 0.77389 0.0
C1630 C 0.58458 0.47855 0.76131 0.0
C1631 C 0.55391 0.4562 0.80584 0.0
C1632 C 0.54781 0.43351 0.80511 0.0
C1633 C 0.54678 0.46425 0.82071 0.0
C1634 C 0.55296 0.48824 0.82197 0.0
C1635 C 0.5492 0.49896 0.80707 0.0
C1636 C 0.55541 0.52164 0.8082 0.0
C1637 C 0.56533 0.53379 0.8242 0.0
C1638 C 0.569 0.52327 0.83912 0.0
C1639 C 0.56283 0.50059 0.83806 0.0
H1640 H 0.57013 0.55136 0.82504 0.0
H1641 H 0.53266 0.33914 0.81666 0.0
H1642 H 0.52378 0.13822 0.79282 0.0
H1643 H 0.54452 0.12654 0.81275 0.0
H1644 H 0.55051 0.08819 0.76854 0.0
H1645 H 0.52965 0.09979 0.74832 0.0
H1646 H 0.5458 0.07171 0.81123 0.0
H1647 H 0.59259 0.12706 0.7669 0.0
H1648 H 0.603 0.15954 0.74671 0.0
H1649 H 0.60934 0.20025 0.79354 0.0
H1650 H 0.59889 0.16788 0.81404 0.0
H1651 H 0.66354 0.14606 0.86263 0.0
H1652 H 0.64272 0.13064 0.83406 0.0
H1653 H 0.58068 0.09809 0.8648 0.0
H1654 H 0.60154 0.11207 0.89322 0.0
H1655 H 0.61822 0.14239 0.82004 0.0
H1656 H 0.53714 0.05909 0.84364 0.0
H1657 H 0.52818 0.02508 0.86135 0.0
H1658 H 0.59461 0.03625 0.85178 0.0
H1659 H 0.60391 0.07013 0.83375 0.0
C1660 C 0.52886 0.12673 0.78745 0.0
C1661 C 0.52549 0.12031 0.76891 0.0
C1662 C 0.54058 0.11997 0.79889 0.0
C1663 C 0.54915 0.10673 0.79198 0.0
C1664 C 0.54389 0.09834 0.77406 0.0
C1665 C 0.53203 0.10506 0.76255 0.0
C1666 C 0.56696 0.1058 0.80246 0.0
C1667 C 0.56185 0.0869 0.8131 0.0
C1668 C 0.58818 0.12535 0.80408 0.0
C1669 C 0.59484 0.14504 0.79196 0.0
C1670 C 0.59609 0.14291 0.77288 0.0
C1671 C 0.60201 0.16131 0.76138 0.0
C1672 C 0.60673 0.18195 0.76881 0.0
C1673 C 0.60566 0.18425 0.7878 0.0
C1674 C 0.59981 0.1659 0.79937 0.0
C1675 C 0.64551 0.13505 0.86323 0.0
C1676 C 0.63409 0.13036 0.88005 0.0
C1677 C 0.63362 0.12621 0.84693 0.0
C1678 C 0.61005 0.11305 0.84715 0.0
C1679 C 0.59883 0.10756 0.86413 0.0
C1680 C 0.61077 0.11582 0.88043 0.0
C1681 C 0.59694 0.10848 0.82989 0.0
C1682 C 0.60278 0.12662 0.81794 0.0
C1683 C 0.57688 0.08782 0.82665 0.0
C1684 C 0.57125 0.06725 0.83734 0.0
C1685 C 0.5498 0.05422 0.84515 0.0
C1686 C 0.54467 0.03497 0.8553 0.0
C1687 C 0.56082 0.02852 0.8577 0.0
C1688 C 0.58213 0.04129 0.84994 0.0
C1689 C 0.58735 0.06054 0.83978 0.0
H1690 H 0.55682 0.01363 0.86557 0.0
H1691 H 0.61127 0.19617 0.75987 0.0
H1692 H 0.49707 0.10012 0.40147 0.0
H1693 H 0.50286 0.083 0.37401 0.0
H1694 H 0.52551 0.14502 0.3444 0.0
H1695 H 0.51948 0.162 0.37137 0.0
H1696 H 0.50081 0.10984 0.32262 0.0
H1697 H 0.56171 0.13277 0.36762 0.0
H1698 H 0.5763 0.13015 0.39786 0.0
H1699 H 0.55309 0.06021 0.38866 0.0
H1700 H 0.53784 0.06232 0.3585 0.0
H1701 H 0.60129 0.15864 0.27792 0.0
H1702 H 0.57319 0.14393 0.30205 0.0
H1703 H 0.55233 0.07621 0.28511 0.0
H1704 H 0.58052 0.09086 0.26034 0.0
H1705 H 0.56389 0.0946 0.32833 0.0
H1706 H 0.51495 0.07956 0.27676 0.0
H1707 H 0.50499 0.08809 0.24648 0.0
H1708 H 0.51012 0.14863 0.26802 0.0
H1709 H 0.52046 0.14066 0.29835 0.0
C1710 C 0.50299 0.10999 0.38902 0.0
C1711 C 0.50815 0.13257 0.38871 0.0
C1712 C 0.50623 0.10015 0.37335 0.0
C1713 C 0.51474 0.11278 0.35721 0.0
C1714 C 0.51881 0.1349 0.35667 0.0
C1715 C 0.51557 0.14469 0.37221 0.0
C1716 C 0.52186 0.10439 0.34135 0.0
C1717 C 0.51425 0.10598 0.32384 0.0
C1718 C 0.53903 0.09882 0.34297 0.0
C1719 C 0.54835 0.09761 0.36097 0.0
C1720 C 0.55958 0.1168 0.37212 0.0
C1721 C 0.56798 0.11541 0.38923 0.0
C1722 C 0.56562 0.09502 0.3952 0.0
C1723 C 0.55485 0.07598 0.38404 0.0
C1724 C 0.54627 0.07724 0.36696 0.0
C1725 C 0.59091 0.14059 0.27928 0.0
C1726 C 0.59316 0.12592 0.26717 0.0
C1727 C 0.57481 0.13224 0.29306 0.0
C1728 C 0.56072 0.10907 0.29519 0.0
C1729 C 0.5631 0.09417 0.28353 0.0
C1730 C 0.57914 0.10257 0.26944 0.0
C1731 C 0.54361 0.10129 0.30975 0.0
C1732 C 0.54944 0.0969 0.32706 0.0
C1733 C 0.52512 0.10477 0.30798 0.0
C1734 C 0.5185 0.10949 0.28984 0.0
C1735 C 0.51407 0.09475 0.27502 0.0
C1736 C 0.50834 0.09948 0.25784 0.0
C1737 C 0.50693 0.11889 0.25533 0.0
C1738 C 0.51119 0.13358 0.26999 0.0
C1739 C 0.51693 0.12893 0.2872 0.0
H1740 H 0.50252 0.12253 0.24201 0.0
H1741 H 0.57217 0.09399 0.40845 0.0
H1742 H 0.83107 0.37904 0.38497 0.0
H1743 H 0.8462 0.39983 0.3567 0.0
H1744 H 0.91351 0.42084 0.37489 0.0
H1745 H 0.89841 0.39973 0.40366 0.0
H1746 H 0.90338 0.45563 0.35572 0.0
H1747 H 0.90017 0.38524 0.34673 0.0
H1748 H 0.88275 0.34426 0.35069 0.0
H1749 H 0.82526 0.33416 0.31983 0.0
H1750 H 0.84203 0.37508 0.31606 0.0
H1751 H 0.9048 0.48594 0.25901 0.0
H1752 H 0.91704 0.47348 0.28616 0.0
H1753 H 0.84805 0.42454 0.29796 0.0
H1754 H 0.83582 0.43665 0.27135 0.0
H1755 H 0.87638 0.40689 0.30052 0.0
H1756 H 0.87327 0.47436 0.31969 0.0
H1757 H 0.88647 0.51494 0.31796 0.0
H1758 H 0.9537 0.52994 0.33003 0.0
H1759 H 0.94089 0.4894 0.33164 0.0
C1760 C 0.84912 0.38812 0.38315 0.0
C1761 C 0.86351 0.38743 0.39652 0.0
C1762 C 0.85773 0.40008 0.36697 0.0
C1763 C 0.8809 0.41161 0.36369 0.0
C1764 C 0.89555 0.41196 0.37724 0.0
C1765 C 0.88689 0.39988 0.3936 0.0
C1766 C 0.88889 0.42184 0.34542 0.0
C1767 C 0.89833 0.44514 0.34355 0.0
C1768 C 0.88216 0.40804 0.32963 0.0
C1769 C 0.87242 0.3833 0.33109 0.0
C1770 C 0.8838 0.3743 0.3408 0.0
C1771 C 0.87402 0.35107 0.34303 0.0
C1772 C 0.85294 0.33662 0.33548 0.0
C1773 C 0.84162 0.34537 0.32563 0.0
C1774 C 0.85127 0.36859 0.32342 0.0
C1775 C 0.89232 0.47247 0.26739 0.0
C1776 C 0.86933 0.46239 0.26305 0.0
C1777 C 0.89933 0.46539 0.28285 0.0
C1778 C 0.88343 0.44801 0.29398 0.0
C1779 C 0.86062 0.43784 0.28947 0.0
C1780 C 0.85364 0.44496 0.27428 0.0
C1781 C 0.8897 0.44052 0.3109 0.0
C1782 C 0.88277 0.41762 0.31252 0.0
C1783 C 0.8986 0.45465 0.32641 0.0
C1784 C 0.9062 0.47892 0.32554 0.0
C1785 C 0.89089 0.48633 0.32184 0.0
C1786 C 0.89829 0.50931 0.32091 0.0
C1787 C 0.92093 0.52501 0.32381 0.0
C1788 C 0.93619 0.51776 0.32773 0.0
C1789 C 0.92887 0.49479 0.32865 0.0
H1790 H 0.92663 0.54279 0.32308 0.0
H1791 H 0.84537 0.31865 0.33729 0.0
H1792 H 0.59475 0.49637 0.402 0.0
H1793 H 0.57238 0.49039 0.37412 0.0
H1794 H 0.62145 0.48297 0.34261 0.0
H1795 H 0.64385 0.48928 0.36999 0.0
H1796 H 0.60552 0.50456 0.32294 0.0
H1797 H 0.57486 0.43728 0.36223 0.0
H1798 H 0.55787 0.41672 0.39095 0.0
H1799 H 0.50363 0.4303 0.38506 0.0
H1800 H 0.52049 0.45117 0.35639 0.0
H1801 H 0.56861 0.41096 0.26795 0.0
H1802 H 0.58045 0.43821 0.29288 0.0
H1803 H 0.52155 0.44429 0.28499 0.0
H1804 H 0.50978 0.41722 0.25941 0.0
H1805 H 0.53307 0.43275 0.32371 0.0
H1806 H 0.5607 0.48796 0.27665 0.0
H1807 H 0.57927 0.505 0.2473 0.0
H1808 H 0.64096 0.51143 0.26726 0.0
H1809 H 0.62269 0.49411 0.29662 0.0
C1810 C 0.60093 0.49388 0.38905 0.0
C1811 C 0.62089 0.49291 0.38827 0.0
C1812 C 0.58813 0.49045 0.37315 0.0
C1813 C 0.59514 0.48602 0.35633 0.0
C1814 C 0.61571 0.48642 0.35541 0.0
C1815 C 0.62842 0.4898 0.37117 0.0
C1816 C 0.58042 0.47844 0.33994 0.0
C1817 C 0.58948 0.48907 0.3231 0.0
C1818 C 0.55919 0.45856 0.3402 0.0
C1819 C 0.54906 0.44601 0.35736 0.0
C1820 C 0.55939 0.43598 0.36714 0.0
C1821 C 0.54979 0.42427 0.38339 0.0
C1822 C 0.52973 0.42227 0.38986 0.0
C1823 C 0.5192 0.43193 0.38006 0.0
C1824 C 0.52877 0.4437 0.36382 0.0
C1825 C 0.55824 0.4182 0.2714 0.0
C1826 C 0.53825 0.41195 0.26183 0.0
C1827 C 0.56508 0.43384 0.28555 0.0
C1828 C 0.55191 0.44327 0.29063 0.0
C1829 C 0.53195 0.43723 0.28111 0.0
C1830 C 0.52531 0.42187 0.26656 0.0
C1831 C 0.55886 0.45822 0.30676 0.0
C1832 C 0.54843 0.44892 0.32357 0.0
C1833 C 0.57906 0.47906 0.30645 0.0
C1834 C 0.59028 0.4897 0.28886 0.0
C1835 C 0.57819 0.49289 0.27475 0.0
C1836 C 0.58867 0.50262 0.25811 0.0
C1837 C 0.61128 0.5093 0.25542 0.0
C1838 C 0.62346 0.50628 0.26938 0.0
C1839 C 0.61305 0.49655 0.28604 0.0
H1840 H 0.61936 0.51682 0.24252 0.0
H1841 H 0.52231 0.41319 0.40244 0.0
H1842 H 0.47377 0.1591 0.79848 0.0
H1843 H 0.45769 0.17023 0.82354 0.0
H1844 H 0.41918 0.18428 0.78459 0.0
H1845 H 0.43452 0.17262 0.75952 0.0
H1846 H 0.46546 0.22031 0.81196 0.0
H1847 H 0.38598 0.16087 0.80427 0.0
H1848 H 0.35645 0.12098 0.80357 0.0
H1849 H 0.37478 0.11185 0.8579 0.0
H1850 H 0.40469 0.15165 0.85877 0.0
H1851 H 0.44896 0.28959 0.86723 0.0
H1852 H 0.43516 0.26065 0.8434 0.0
H1853 H 0.42846 0.21158 0.88362 0.0
H1854 H 0.44084 0.24014 0.90762 0.0
H1855 H 0.4009 0.1907 0.85501 0.0
H1856 H 0.47895 0.24454 0.8643 0.0
H1857 H 0.51137 0.28273 0.86802 0.0
H1858 H 0.50033 0.30011 0.8139 0.0
H1859 H 0.46766 0.26213 0.81001 0.0
C1860 C 0.4612 0.1637 0.7953 0.0
C1861 C 0.45572 0.16534 0.77699 0.0
C1862 C 0.45189 0.16985 0.80965 0.0
C1863 C 0.43708 0.17778 0.80587 0.0
C1864 C 0.43015 0.17766 0.78778 0.0
C1865 C 0.43915 0.17117 0.77345 0.0
C1866 C 0.43396 0.1916 0.81969 0.0
C1867 C 0.45112 0.21398 0.82114 0.0
C1868 C 0.41569 0.18296 0.832 0.0
C1869 C 0.39776 0.15911 0.83146 0.0
C1870 C 0.38392 0.15028 0.81595 0.0
C1871 C 0.36705 0.12771 0.81556 0.0
C1872 C 0.3638 0.11386 0.83065 0.0
C1873 C 0.37736 0.12258 0.8462 0.0
C1874 C 0.39425 0.14514 0.84665 0.0
C1875 C 0.44352 0.27239 0.87107 0.0
C1876 C 0.44626 0.26707 0.8891 0.0
C1877 C 0.43565 0.25588 0.85749 0.0
C1878 C 0.43154 0.23418 0.86168 0.0
C1879 C 0.43168 0.22824 0.88007 0.0
C1880 C 0.43884 0.2446 0.89377 0.0
C1881 C 0.43213 0.21969 0.84691 0.0
C1882 C 0.41491 0.19719 0.84551 0.0
C1883 C 0.45074 0.22796 0.83484 0.0
C1884 C 0.47075 0.25062 0.83694 0.0
C1885 C 0.48341 0.25656 0.85323 0.0
C1886 C 0.50182 0.27817 0.85538 0.0
C1887 C 0.50789 0.29388 0.84123 0.0
C1888 C 0.49561 0.28797 0.82487 0.0
C1889 C 0.47715 0.2664 0.82268 0.0
H1890 H 0.52212 0.31061 0.84294 0.0
H1891 H 0.35072 0.09639 0.83032 0.0
H1892 H 0.75939 0.17706 0.90725 0.0
H1893 H 0.79275 0.19281 0.8873 0.0
H1894 H 0.77152 0.23565 0.8616 0.0
H1895 H 0.73841 0.21999 0.88098 0.0
H1896 H 0.79555 0.19308 0.84906 0.0
H1897 H 0.81607 0.28726 0.85673 0.0
H1898 H 0.8217 0.31395 0.88153 0.0
H1899 H 0.8299 0.27175 0.92047 0.0
H1900 H 0.8248 0.24499 0.89588 0.0
H1901 H 0.81221 0.24957 0.76865 0.0
H1902 H 0.80651 0.22845 0.7968 0.0
H1903 H 0.86801 0.28303 0.81895 0.0
H1904 H 0.87243 0.30495 0.79119 0.0
H1905 H 0.84042 0.27573 0.84169 0.0
H1906 H 0.8564 0.22464 0.81486 0.0
H1907 H 0.85865 0.19936 0.79205 0.0
H1908 H 0.78721 0.15589 0.79486 0.0
H1909 H 0.78442 0.18105 0.81744 0.0
C1910 C 0.76186 0.18977 0.89727 0.0
C1911 C 0.74617 0.19716 0.8956 0.0
C1912 C 0.78092 0.19878 0.88597 0.0
C1913 C 0.78475 0.21563 0.87324 0.0
C1914 C 0.76907 0.22291 0.87156 0.0
C1915 C 0.74997 0.21373 0.88253 0.0
C1916 C 0.80425 0.22518 0.86069 0.0
C1917 C 0.8057 0.21114 0.84746 0.0
C1918 C 0.81846 0.24866 0.85935 0.0
C1919 C 0.82012 0.26409 0.87438 0.0
C1920 C 0.8192 0.28369 0.87055 0.0
C1921 C 0.82239 0.29889 0.88457 0.0
C1922 C 0.82644 0.29468 0.90251 0.0
C1923 C 0.82692 0.27506 0.90654 0.0
C1924 C 0.82381 0.25983 0.89256 0.0
C1925 C 0.82482 0.25671 0.77934 0.0
C1926 C 0.84258 0.27885 0.77798 0.0
C1927 C 0.82175 0.24452 0.79543 0.0
C1928 C 0.83685 0.25398 0.8102 0.0
C1929 C 0.85594 0.27536 0.80794 0.0
C1930 C 0.85854 0.28788 0.79209 0.0
C1931 C 0.83006 0.24372 0.82879 0.0
C1932 C 0.831 0.25765 0.8433 0.0
C1933 C 0.81884 0.22016 0.83158 0.0
C1934 C 0.82023 0.2048 0.81793 0.0
C1935 C 0.84114 0.20976 0.81056 0.0
C1936 C 0.84251 0.19543 0.79766 0.0
C1937 C 0.82309 0.17603 0.79202 0.0
C1938 C 0.80225 0.17091 0.79928 0.0
C1939 C 0.80077 0.18518 0.81218 0.0
H1940 H 0.82419 0.16496 0.78203 0.0
H1941 H 0.82895 0.3065 0.91334 0.0
H1942 H 0.70387 0.52262 0.79725 0.0
H1943 H 0.73153 0.5412 0.82117 0.0
H1944 H 0.77229 0.59559 0.78414 0.0
H1945 H 0.74481 0.57653 0.75971 0.0
H1946 H 0.79679 0.58183 0.79773 0.0
H1947 H 0.75136 0.60528 0.82563 0.0
H1948 H 0.71704 0.60439 0.83667 0.0
H1949 H 0.70563 0.55225 0.87494 0.0
H1950 H 0.73965 0.55253 0.86397 0.0
H1951 H 0.83041 0.57603 0.90166 0.0
H1952 H 0.81899 0.59438 0.8787 0.0
H1953 H 0.81155 0.54481 0.83866 0.0
H1954 H 0.8236 0.52709 0.86104 0.0
H1955 H 0.7804 0.57818 0.86432 0.0
H1956 H 0.8153 0.55928 0.79672 0.0
H1957 H 0.85109 0.56348 0.78578 0.0
H1958 H 0.88685 0.61375 0.82681 0.0
H1959 H 0.85132 0.61017 0.83784 0.0
C1960 C 0.71843 0.53878 0.79422 0.0
C1961 C 0.72226 0.54787 0.77644 0.0
C1962 C 0.73421 0.54959 0.80806 0.0
C1963 C 0.75401 0.56997 0.80457 0.0
C1964 C 0.75716 0.57989 0.78717 0.0
C1965 C 0.74143 0.56894 0.77321 0.0
C1966 C 0.7726 0.57848 0.81814 0.0
C1967 C 0.79339 0.58148 0.8123 0.0
C1968 C 0.76871 0.57926 0.83713 0.0
C1969 C 0.74818 0.57898 0.84396 0.0
C1970 C 0.7415 0.59354 0.83635 0.0
C1971 C 0.72208 0.59315 0.8426 0.0
C1972 C 0.70918 0.57828 0.85651 0.0
C1973 C 0.71568 0.56379 0.8642 0.0
C1974 C 0.73508 0.56412 0.858 0.0
C1975 C 0.82691 0.56942 0.88781 0.0
C1976 C 0.82769 0.54991 0.88327 0.0
C1977 C 0.82037 0.57994 0.87471 0.0
C1978 C 0.8146 0.57117 0.85686 0.0
C1979 C 0.81647 0.55237 0.85214 0.0
C1980 C 0.82313 0.54201 0.8651 0.0
C1981 C 0.80349 0.57915 0.84382 0.0
C1982 C 0.78419 0.57942 0.84978 0.0
C1983 C 0.80904 0.58201 0.82493 0.0
C1984 C 0.83056 0.58447 0.81811 0.0
C1985 C 0.83079 0.57142 0.80331 0.0
C1986 C 0.85105 0.57364 0.79712 0.0
C1987 C 0.87123 0.58887 0.80559 0.0
C1988 C 0.8712 0.60194 0.82027 0.0
C1989 C 0.85099 0.5998 0.82651 0.0
H1990 H 0.8869 0.59054 0.80079 0.0
H1991 H 0.69414 0.57799 0.86132 0.0
H1992 H 0.42805 0.90958 0.74378 0.0
H1993 H 0.45603 0.93116 0.72007 0.0
H1994 H 0.41454 0.88202 0.67955 0.0
H1995 H 0.38671 0.86092 0.70272 0.0
H1996 H 0.48054 0.91963 0.70138 0.0
H1997 H 0.41788 0.90054 0.63903 0.0
H1998 H 0.38429 0.90366 0.6331 0.0
H1999 H 0.40184 0.95034 0.67768 0.0
H2000 H 0.43585 0.948 0.68363 0.0
H2001 H 0.49183 0.86267 0.63255 0.0
H2002 H 0.48647 0.88314 0.65703 0.0
H2003 H 0.49294 0.93386 0.6186 0.0
H2004 H 0.49754 0.91269 0.59352 0.0
H2005 H 0.45822 0.92262 0.63718 0.0
H2006 H 0.53044 0.94837 0.65667 0.0
H2007 H 0.56631 0.94979 0.66311 0.0
H2008 H 0.53438 0.89914 0.70458 0.0
H2009 H 0.49823 0.89708 0.69822 0.0
C2010 C 0.42477 0.90365 0.72973 0.0
C2011 C 0.40522 0.8834 0.72519 0.0
C2012 C 0.44075 0.91602 0.71621 0.0
C2013 C 0.43726 0.90846 0.69795 0.0
C2014 C 0.41743 0.88862 0.6934 0.0
C2015 C 0.40159 0.87633 0.70679 0.0
C2016 C 0.4551 0.91908 0.68382 0.0
C2017 C 0.47594 0.92078 0.68736 0.0
C2018 C 0.44985 0.92232 0.6657 0.0
C2019 C 0.42957 0.92414 0.66175 0.0
C2020 C 0.41481 0.91174 0.64743 0.0
C2021 C 0.39562 0.91332 0.64408 0.0
C2022 C 0.39096 0.92723 0.65497 0.0
C2023 C 0.40548 0.93961 0.66922 0.0
C2024 C 0.42472 0.93815 0.67259 0.0
C2025 C 0.49251 0.87836 0.62921 0.0
C2026 C 0.49477 0.88581 0.61097 0.0
C2027 C 0.48979 0.89034 0.64338 0.0
C2028 C 0.48965 0.91034 0.63983 0.0
C2029 C 0.49312 0.91855 0.62174 0.0
C2030 C 0.49572 0.90641 0.60742 0.0
C2031 C 0.48217 0.92005 0.65461 0.0
C2032 C 0.46339 0.92248 0.6512 0.0
C2033 C 0.48982 0.92159 0.67289 0.0
C2034 C 0.51155 0.92268 0.677 0.0
C2035 C 0.53101 0.93746 0.66713 0.0
C2036 C 0.55142 0.93837 0.67076 0.0
C2037 C 0.55263 0.9246 0.68427 0.0
C2038 C 0.53343 0.90987 0.69417 0.0
C2039 C 0.51298 0.90889 0.69059 0.0
H2040 H 0.56844 0.92532 0.68705 0.0
H2041 H 0.37606 0.92839 0.65238 0.0
H2042 H 0.1429 0.63927 0.63256 0.0
H2043 H 0.12923 0.6114 0.65677 0.0
H2044 H 0.07301 0.56645 0.62296 0.0
H2045 H 0.08718 0.59418 0.59814 0.0
H2046 H 0.09565 0.58646 0.67796 0.0
H2047 H 0.06831 0.51319 0.62721 0.0
H2048 H 0.07169 0.50718 0.59421 0.0
H2049 H 0.13404 0.56959 0.59166 0.0
H2050 H 0.1315 0.57547 0.62477 0.0
H2051 H 0.09469 0.50402 0.73586 0.0
H2052 H 0.07864 0.51734 0.71235 0.0
H2053 H 0.13351 0.53066 0.67599 0.0
H2054 H 0.14902 0.51668 0.69888 0.0
H2055 H 0.09884 0.5197 0.65621 0.0
H2056 H 0.13544 0.57126 0.7068 0.0
H2057 H 0.14082 0.58298 0.73928 0.0
H2058 H 0.07371 0.57219 0.74138 0.0
H2059 H 0.0679 0.56022 0.7089 0.0
C2060 C 0.12734 0.62368 0.63032 0.0
C2061 C 0.11656 0.61867 0.61315 0.0
C2062 C 0.1194 0.60777 0.64432 0.0
C2063 C 0.10041 0.58658 0.64153 0.0
C2064 C 0.08797 0.58255 0.62527 0.0
C2065 C 0.09608 0.59845 0.61109 0.0
C2066 C 0.09641 0.56809 0.65428 0.0
C2067 C 0.09578 0.57156 0.6732 0.0
C2068 C 0.0971 0.54888 0.6481 0.0
C2069 C 0.09944 0.54497 0.62838 0.0
C2070 C 0.0828 0.52554 0.61962 0.0
C2071 C 0.08462 0.52213 0.60092 0.0
C2072 C 0.10299 0.53807 0.59082 0.0
C2073 C 0.11974 0.55733 0.59946 0.0
C2074 C 0.1182 0.56061 0.61823 0.0
C2075 C 0.103 0.50923 0.72267 0.0
C2076 C 0.12345 0.50978 0.71945 0.0
C2077 C 0.09384 0.51692 0.70926 0.0
C2078 C 0.10516 0.52554 0.69255 0.0
C2079 C 0.12447 0.52422 0.68878 0.0
C2080 C 0.13346 0.51635 0.70202 0.0
C2081 C 0.09897 0.53855 0.6799 0.0
C2082 C 0.09765 0.53402 0.661 0.0
C2083 C 0.09774 0.55746 0.68606 0.0
C2084 C 0.10113 0.56455 0.70555 0.0
C2085 C 0.12179 0.57124 0.71424 0.0
C2086 C 0.12493 0.57795 0.73263 0.0
C2087 C 0.10758 0.57823 0.74241 0.0
C2088 C 0.0871 0.57188 0.7338 0.0
C2089 C 0.08387 0.56514 0.71541 0.0
H2090 H 0.11004 0.58344 0.75665 0.0
H2091 H 0.10433 0.53545 0.57634 0.0
H2092 H 0.49306 0.62075 0.69767 0.0
H2093 H 0.47308 0.58992 0.67614 0.0
H2094 H 0.46336 0.5422 0.71856 0.0
H2095 H 0.48338 0.57303 0.7404 0.0
H2096 H 0.46862 0.53202 0.67578 0.0
H2097 H 0.42412 0.54544 0.72053 0.0
H2098 H 0.41666 0.57075 0.73951 0.0
H2099 H 0.41117 0.60295 0.69087 0.0
H2100 H 0.41904 0.57811 0.67164 0.0
H2101 H 0.34693 0.48411 0.63121 0.0
H2102 H 0.37142 0.49253 0.65786 0.0
H2103 H 0.4294 0.52222 0.62228 0.0
H2104 H 0.40496 0.51299 0.59561 0.0
H2105 H 0.39711 0.53245 0.66801 0.0
H2106 H 0.47559 0.52792 0.64218 0.0
H2107 H 0.48344 0.50223 0.6242 0.0
H2108 H 0.41797 0.44725 0.63714 0.0
H2109 H 0.40983 0.4725 0.65543 0.0
C2110 C 0.48737 0.60377 0.70232 0.0
C2111 C 0.48929 0.59929 0.72085 0.0
C2112 C 0.47611 0.58619 0.68995 0.0
C2113 C 0.4666 0.56389 0.6959 0.0
C2114 C 0.47071 0.55937 0.71378 0.0
C2115 C 0.48206 0.57702 0.72624 0.0
C2116 C 0.44855 0.54618 0.68477 0.0
C2117 C 0.45281 0.53175 0.67412 0.0
C2118 C 0.42777 0.54551 0.6832 0.0
C2119 C 0.42232 0.56002 0.69467 0.0
C2120 C 0.42146 0.55802 0.7139 0.0
C2121 C 0.41716 0.57227 0.7247 0.0
C2122 C 0.41348 0.58847 0.7164 0.0
C2123 C 0.41403 0.5904 0.69728 0.0
C2124 C 0.4184 0.57623 0.68643 0.0
C2125 C 0.36488 0.49187 0.62907 0.0
C2126 C 0.37409 0.4982 0.61139 0.0
C2127 C 0.37885 0.49662 0.64429 0.0
C2128 C 0.40229 0.50808 0.64214 0.0
C2129 C 0.4114 0.513 0.62435 0.0
C2130 C 0.3974 0.50787 0.60908 0.0
C2131 C 0.41712 0.51834 0.6583 0.0
C2132 C 0.41242 0.53179 0.66989 0.0
C2133 C 0.43715 0.51754 0.66095 0.0
C2134 C 0.44206 0.50218 0.65012 0.0
C2135 C 0.46291 0.51033 0.64131 0.0
C2136 C 0.4674 0.49584 0.63103 0.0
C2137 C 0.4512 0.47313 0.6295 0.0
C2138 C 0.43048 0.46485 0.63829 0.0
C2139 C 0.42591 0.47926 0.64859 0.0
H2140 H 0.45471 0.46195 0.62153 0.0
H2141 H 0.41016 0.5995 0.72478 0.0
H2142 H 0.56001 0.74752 0.09381 0.0
H2143 H 0.57003 0.77642 0.11766 0.0
H2144 H 0.49978 0.7525 0.12733 0.0
H2145 H 0.48968 0.72362 0.10412 0.0
H2146 H 0.52796 0.80093 0.12372 0.0
H2147 H 0.52465 0.73526 0.15477 0.0
H2148 H 0.53819 0.70843 0.15913 0.0
H2149 H 0.60501 0.7631 0.16852 0.0
H2150 H 0.59185 0.79026 0.164 0.0
H2151 H 0.48666 0.80888 0.20713 0.0
H2152 H 0.49914 0.80153 0.17825 0.0
H2153 H 0.56627 0.82894 0.19976 0.0
H2154 H 0.55363 0.83579 0.22929 0.0
H2155 H 0.55445 0.79083 0.18439 0.0
H2156 H 0.55404 0.85529 0.16371 0.0
H2157 H 0.54101 0.88247 0.15924 0.0
H2158 H 0.4837 0.83312 0.12933 0.0
H2159 H 0.49612 0.80549 0.13387 0.0
C2160 C 0.54677 0.74844 0.1011 0.0
C2161 C 0.52406 0.73313 0.09725 0.0
C2162 C 0.55251 0.76497 0.11461 0.0
C2163 C 0.53561 0.7666 0.12411 0.0
C2164 C 0.51304 0.75156 0.12006 0.0
C2165 C 0.50732 0.7349 0.10691 0.0
C2166 C 0.5408 0.78304 0.13902 0.0
C2167 C 0.53392 0.79898 0.137 0.0
C2168 C 0.54955 0.78108 0.156 0.0
C2169 C 0.55735 0.76476 0.15882 0.0
C2170 C 0.54226 0.74154 0.15762 0.0
C2171 C 0.54985 0.72628 0.16015 0.0
C2172 C 0.57247 0.73406 0.16403 0.0
C2173 C 0.58751 0.7571 0.16546 0.0
C2174 C 0.58 0.77243 0.16293 0.0
C2175 C 0.50419 0.81368 0.20577 0.0
C2176 C 0.51909 0.8228 0.22066 0.0
C2177 C 0.51139 0.80968 0.18907 0.0
C2178 C 0.53378 0.81505 0.18664 0.0
C2179 C 0.54895 0.8248 0.20127 0.0
C2180 C 0.54168 0.82868 0.21814 0.0
C2181 C 0.54023 0.80794 0.16951 0.0
C2182 C 0.54933 0.79369 0.17104 0.0
C2183 C 0.53371 0.81168 0.152 0.0
C2184 C 0.52605 0.82825 0.14918 0.0
C2185 C 0.53858 0.85015 0.15628 0.0
C2186 C 0.5313 0.86566 0.15372 0.0
C2187 C 0.51153 0.85952 0.14402 0.0
C2188 C 0.49902 0.83786 0.13683 0.0
C2189 C 0.50621 0.82228 0.13936 0.0
H2190 H 0.50592 0.87155 0.14205 0.0
H2191 H 0.57832 0.72222 0.16598 0.0
H2192 H 0.18128 0.69118 0.2055 0.0
H2193 H 0.19217 0.71634 0.17942 0.0
H2194 H 0.17519 0.75999 0.20938 0.0
H2195 H 0.16473 0.73495 0.23605 0.0
H2196 H 0.17479 0.73287 0.15672 0.0
H2197 H 0.21456 0.81419 0.19789 0.0
H2198 H 0.2284 0.82816 0.22915 0.0
H2199 H 0.24523 0.77633 0.23655 0.0
H2200 H 0.23172 0.76225 0.20528 0.0
H2201 H 0.24308 0.81216 0.08854 0.0
H2202 H 0.21577 0.79862 0.11381 0.0
H2203 H 0.26457 0.79544 0.14902 0.0
H2204 H 0.29179 0.80926 0.12427 0.0
H2205 H 0.2406 0.80823 0.16834 0.0
H2206 H 0.22626 0.74959 0.12334 0.0
H2207 H 0.2168 0.73269 0.09242 0.0
H2208 H 0.15537 0.7347 0.09326 0.0
H2209 H 0.16464 0.75185 0.12413 0.0
C2210 C 0.17959 0.70598 0.20659 0.0
C2211 C 0.17253 0.71125 0.22305 0.0
C2212 C 0.18564 0.7203 0.19153 0.0
C2213 C 0.18475 0.74021 0.19247 0.0
C2214 C 0.17627 0.74484 0.20843 0.0
C2215 C 0.17028 0.7305 0.22364 0.0
C2216 C 0.19512 0.75686 0.17743 0.0
C2217 C 0.18886 0.74957 0.15926 0.0
C2218 C 0.21354 0.77862 0.18067 0.0
C2219 C 0.22185 0.78701 0.1994 0.0
C2220 C 0.22123 0.80581 0.20621 0.0
C2221 C 0.22903 0.81374 0.22391 0.0
C2222 C 0.2376 0.80308 0.23486 0.0
C2223 C 0.23851 0.78452 0.22809 0.0
C2224 C 0.23078 0.77655 0.21039 0.0
C2225 C 0.24809 0.80901 0.10179 0.0
C2226 C 0.26948 0.81141 0.1043 0.0
C2227 C 0.23246 0.80124 0.1162 0.0
C2228 C 0.23805 0.79577 0.13325 0.0
C2229 C 0.25985 0.79957 0.13603 0.0
C2230 C 0.27537 0.80729 0.12175 0.0
C2231 C 0.22097 0.78376 0.14771 0.0
C2232 C 0.22588 0.79198 0.16576 0.0
C2233 C 0.20182 0.76251 0.14439 0.0
C2234 C 0.19627 0.75226 0.12588 0.0
C2235 C 0.21082 0.74656 0.11685 0.0
C2236 C 0.20548 0.73692 0.09936 0.0
C2237 C 0.18553 0.7327 0.09085 0.0
C2238 C 0.17085 0.73805 0.09985 0.0
C2239 C 0.17613 0.74773 0.11733 0.0
H2240 H 0.18142 0.72522 0.07732 0.0
H2241 H 0.2436 0.80923 0.24856 0.0
H2242 H 0.29852 0.49145 0.20344 0.0
H2243 H 0.27373 0.47481 0.17734 0.0
H2244 H 0.23706 0.41212 0.20662 0.0
H2245 H 0.26158 0.42895 0.23325 0.0
H2246 H 0.2607 0.44152 0.15408 0.0
H2247 H 0.18053 0.3908 0.19623 0.0
H2248 H 0.16662 0.38822 0.22791 0.0
H2249 H 0.21337 0.45832 0.23617 0.0
H2250 H 0.22707 0.46143 0.20442 0.0
H2251 H 0.1808 0.42467 0.08694 0.0
H2252 H 0.19276 0.40957 0.11229 0.0
H2253 H 0.19081 0.45774 0.14914 0.0
H2254 H 0.17844 0.47237 0.12425 0.0
H2255 H 0.18194 0.42095 0.16754 0.0
H2256 H 0.23672 0.47102 0.12198 0.0
H2257 H 0.25041 0.47929 0.09004 0.0
H2258 H 0.25778 0.42084 0.08938 0.0
H2259 H 0.2434 0.41182 0.12114 0.0
C2260 C 0.28541 0.47402 0.20434 0.0
C2261 C 0.28178 0.4617 0.22063 0.0
C2262 C 0.27132 0.46444 0.18928 0.0
C2263 C 0.25334 0.44229 0.19008 0.0
C2264 C 0.25065 0.42934 0.2058 0.0
C2265 C 0.26467 0.43901 0.22101 0.0
C2266 C 0.23617 0.43423 0.17534 0.0
C2267 C 0.24333 0.43648 0.15702 0.0
C2268 C 0.21351 0.42773 0.17913 0.0
C2269 C 0.20505 0.42622 0.19809 0.0
C2270 C 0.18775 0.40566 0.20481 0.0
C2271 C 0.17987 0.40413 0.22275 0.0
C2272 C 0.18913 0.42309 0.23406 0.0
C2273 C 0.20618 0.44366 0.2274 0.0
C2274 C 0.21399 0.44532 0.20943 0.0
C2275 C 0.18222 0.4315 0.10059 0.0
C2276 C 0.17936 0.45015 0.10352 0.0
C2277 C 0.18903 0.42285 0.11505 0.0
C2278 C 0.19316 0.43287 0.1325 0.0
C2279 C 0.18786 0.44979 0.13579 0.0
C2280 C 0.18104 0.45835 0.12146 0.0
C2281 C 0.20676 0.42925 0.1464 0.0
C2282 C 0.19897 0.42479 0.16457 0.0
C2283 C 0.22909 0.4346 0.14254 0.0
C2284 C 0.2387 0.44057 0.1238 0.0
C2285 C 0.24117 0.45988 0.11498 0.0
C2286 C 0.24892 0.46463 0.09689 0.0
C2287 C 0.25484 0.45053 0.08765 0.0
C2288 C 0.25308 0.43168 0.09652 0.0
C2289 C 0.24504 0.42668 0.11454 0.0
H2290 H 0.26094 0.4543 0.07367 0.0
H2291 H 0.18307 0.42187 0.24797 0.0
H2292 H 0.28323 0.4521 0.62617 0.0
H2293 H 0.25355 0.43435 0.64902 0.0
H2294 H 0.2038 0.40837 0.60602 0.0
H2295 H 0.2336 0.4258 0.58294 0.0
H2296 H 0.2005 0.43818 0.62994 0.0
H2297 H 0.20393 0.37155 0.63438 0.0
H2298 H 0.22277 0.34909 0.63589 0.0
H2299 H 0.25194 0.37901 0.68779 0.0
H2300 H 0.23365 0.40199 0.68647 0.0
H2301 H 0.14373 0.44154 0.70798 0.0
H2302 H 0.14872 0.42187 0.68187 0.0
H2303 H 0.21019 0.43128 0.70616 0.0
H2304 H 0.20406 0.44909 0.73279 0.0
H2305 H 0.19437 0.39592 0.68686 0.0
H2306 H 0.2062 0.47143 0.67541 0.0
H2307 H 0.19406 0.49964 0.67345 0.0
H2308 H 0.14282 0.45822 0.63476 0.0
H2309 H 0.15454 0.42966 0.63667 0.0
C2310 C 0.26603 0.44197 0.62155 0.0
C2311 C 0.26067 0.44057 0.60283 0.0
C2312 C 0.24909 0.43167 0.63461 0.0
C2313 C 0.22649 0.42006 0.62918 0.0
C2314 C 0.22116 0.41714 0.61043 0.0
C2315 C 0.2382 0.42712 0.59729 0.0
C2316 C 0.20904 0.4154 0.64309 0.0
C2317 C 0.19843 0.42826 0.64214 0.0
C2318 C 0.20685 0.40286 0.65908 0.0
C2319 C 0.21734 0.38852 0.66032 0.0
C2320 C 0.2144 0.3734 0.64611 0.0
C2321 C 0.22499 0.36057 0.64693 0.0
C2322 C 0.23853 0.36261 0.66193 0.0
C2323 C 0.24142 0.37742 0.67619 0.0
C2324 C 0.23088 0.39032 0.67543 0.0
C2325 C 0.15791 0.43875 0.70785 0.0
C2326 C 0.17371 0.44694 0.72211 0.0
C2327 C 0.16082 0.42761 0.69296 0.0
C2328 C 0.18023 0.4257 0.69171 0.0
C2329 C 0.19511 0.43253 0.70669 0.0
C2330 C 0.19173 0.44287 0.72186 0.0
C2331 C 0.18703 0.41985 0.67411 0.0
C2332 C 0.19557 0.40502 0.67436 0.0
C2333 C 0.18802 0.43117 0.65755 0.0
C2334 C 0.18101 0.44832 0.65638 0.0
C2335 C 0.19227 0.46832 0.66656 0.0
C2336 C 0.18547 0.48436 0.66546 0.0
C2337 C 0.16762 0.48068 0.65404 0.0
C2338 C 0.15659 0.461 0.64365 0.0
C2339 C 0.16329 0.44488 0.64474 0.0
H2340 H 0.16238 0.49312 0.65321 0.0
H2341 H 0.24678 0.35272 0.66251 0.0
H2342 H 0.57243 0.83241 0.59696 0.0
H2343 H 0.58992 0.82054 0.6204 0.0
H2344 H 0.52994 0.79484 0.65345 0.0
H2345 H 0.51295 0.80742 0.63077 0.0
H2346 H 0.56309 0.80961 0.67518 0.0
H2347 H 0.54002 0.76181 0.62053 0.0
H2348 H 0.5414 0.75449 0.58752 0.0
H2349 H 0.61195 0.77763 0.59183 0.0
H2350 H 0.61098 0.78528 0.62485 0.0
H2351 H 0.53126 0.69322 0.69451 0.0
H2352 H 0.5454 0.72222 0.67111 0.0
H2353 H 0.59543 0.7687 0.70882 0.0
H2354 H 0.58089 0.73983 0.73268 0.0
H2355 H 0.58121 0.75241 0.6525 0.0
H2356 H 0.59284 0.81514 0.7083 0.0
H2357 H 0.58316 0.81477 0.74104 0.0
H2358 H 0.52223 0.75198 0.73323 0.0
H2359 H 0.53144 0.75214 0.70047 0.0
C2360 C 0.56319 0.82464 0.60942 0.0
C2361 C 0.54114 0.82055 0.61184 0.0
C2362 C 0.57319 0.81782 0.62278 0.0
C2363 C 0.5611 0.80638 0.63855 0.0
C2364 C 0.53969 0.80364 0.64145 0.0
C2365 C 0.52989 0.81075 0.62834 0.0
C2366 C 0.5692 0.79501 0.65121 0.0
C2367 C 0.56761 0.79751 0.67019 0.0
C2368 C 0.57491 0.77901 0.64481 0.0
C2369 C 0.5755 0.77439 0.62503 0.0
C2370 C 0.55584 0.76544 0.61439 0.0
C2371 C 0.55654 0.76122 0.5957 0.0
C2372 C 0.57677 0.76567 0.58757 0.0
C2373 C 0.59632 0.77426 0.59813 0.0
C2374 C 0.5957 0.77855 0.61682 0.0
C2375 C 0.54566 0.70941 0.69776 0.0
C2376 C 0.55442 0.71443 0.71568 0.0
C2377 C 0.5539 0.72596 0.68425 0.0
C2378 C 0.5711 0.74779 0.68837 0.0
C2379 C 0.58187 0.75204 0.70548 0.0
C2380 C 0.5735 0.73549 0.71911 0.0
C2381 C 0.57412 0.76642 0.67627 0.0
C2382 C 0.57785 0.76533 0.65747 0.0
C2383 C 0.56926 0.78297 0.68271 0.0
C2384 C 0.56296 0.78355 0.70206 0.0
C2385 C 0.57732 0.80137 0.71358 0.0
C2386 C 0.57193 0.80115 0.73213 0.0
C2387 C 0.55218 0.78326 0.73923 0.0
C2388 C 0.53756 0.76576 0.72774 0.0
C2389 C 0.54283 0.76592 0.70919 0.0
H2390 H 0.54819 0.78294 0.75363 0.0
H2391 H 0.57729 0.76239 0.5731 0.0
H2392 H 0.18651 0.75846 0.58624 0.0
H2393 H 0.20665 0.78899 0.60832 0.0
H2394 H 0.19491 0.74055 0.65065 0.0
H2395 H 0.17473 0.71004 0.6289 0.0
H2396 H 0.20101 0.79911 0.65099 0.0
H2397 H 0.24942 0.75155 0.65605 0.0
H2398 H 0.25666 0.7261 0.63705 0.0
H2399 H 0.25085 0.75758 0.58811 0.0
H2400 H 0.24434 0.78372 0.60684 0.0
H2401 H 0.26242 0.81638 0.73227 0.0
H2402 H 0.23865 0.80735 0.70518 0.0
H2403 H 0.29743 0.83607 0.67049 0.0
H2404 H 0.32124 0.84431 0.69756 0.0
H2405 H 0.27121 0.79644 0.65993 0.0
H2406 H 0.26009 0.85748 0.67224 0.0
H2407 H 0.25232 0.88313 0.69037 0.0
H2408 H 0.18599 0.82907 0.70234 0.0
H2409 H 0.19344 0.80299 0.68453 0.0
C2410 C 0.18739 0.75428 0.60043 0.0
C2411 C 0.17955 0.73187 0.60574 0.0
C2412 C 0.19883 0.77175 0.61302 0.0
C2413 C 0.20245 0.76691 0.63096 0.0
C2414 C 0.1923 0.74453 0.6368 0.0
C2415 C 0.18092 0.72712 0.6243 0.0
C2416 C 0.22055 0.78425 0.64231 0.0
C2417 C 0.21654 0.79889 0.6529 0.0
C2418 C 0.241 0.78426 0.64422 0.0
C2419 C 0.24616 0.76944 0.63286 0.0
C2420 C 0.24993 0.7532 0.64125 0.0
C2421 C 0.25392 0.73867 0.63052 0.0
C2422 C 0.2542 0.74023 0.61138 0.0
C2423 C 0.25065 0.75643 0.60293 0.0
C2424 C 0.24683 0.77111 0.6136 0.0
C2425 C 0.27032 0.82131 0.7189 0.0
C2426 C 0.29366 0.83073 0.71701 0.0
C2427 C 0.2567 0.81629 0.70339 0.0
C2428 C 0.26621 0.82105 0.68572 0.0
C2429 C 0.28968 0.83211 0.68395 0.0
C2430 C 0.30327 0.83679 0.69943 0.0
C2431 C 0.25166 0.8112 0.66934 0.0
C2432 C 0.25619 0.79757 0.65779 0.0
C2433 C 0.23204 0.81265 0.66634 0.0
C2434 C 0.22738 0.82824 0.67709 0.0
C2435 C 0.24389 0.85101 0.67884 0.0
C2436 C 0.23954 0.86564 0.68905 0.0
C2437 C 0.21869 0.85773 0.69751 0.0
C2438 C 0.20213 0.83518 0.69577 0.0
C2439 C 0.2064 0.82047 0.68558 0.0
H2440 H 0.21535 0.86908 0.70541 0.0
H2441 H 0.25718 0.7289 0.6031 0.0
H2442 H 0.0965 0.49904 0.09337 0.0
H2443 H 0.08043 0.50844 0.11962 0.0
H2444 H 0.13921 0.52407 0.15171 0.0
H2445 H 0.15494 0.51415 0.12604 0.0
H2446 H 0.10384 0.50711 0.17327 0.0
H2447 H 0.13485 0.56295 0.12394 0.0
H2448 H 0.13507 0.57472 0.09194 0.0
H2449 H 0.0679 0.56279 0.09835 0.0
H2450 H 0.06699 0.55011 0.13022 0.0
H2451 H 0.14721 0.62429 0.2059 0.0
H2452 H 0.13411 0.5976 0.18074 0.0
H2453 H 0.07887 0.54976 0.21397 0.0
H2454 H 0.09225 0.57644 0.23962 0.0
H2455 H 0.09807 0.57483 0.15995 0.0
H2456 H 0.07298 0.49792 0.20459 0.0
H2457 H 0.07834 0.48793 0.23602 0.0
H2458 H 0.14302 0.54772 0.23879 0.0
H2459 H 0.13811 0.55789 0.20732 0.0
C2460 C 0.10576 0.50402 0.10615 0.0
C2461 C 0.12726 0.50635 0.10744 0.0
C2462 C 0.09653 0.50935 0.12114 0.0
C2463 C 0.10879 0.51734 0.13753 0.0
C2464 C 0.12941 0.51797 0.13923 0.0
C2465 C 0.13852 0.5125 0.1244 0.0
C2466 C 0.1022 0.52806 0.15205 0.0
C2467 C 0.102 0.52159 0.17035 0.0
C2468 C 0.09992 0.54705 0.14827 0.0
C2469 C 0.10073 0.55529 0.12934 0.0
C2470 C 0.12009 0.56271 0.11848 0.0
C2471 C 0.12032 0.56951 0.10036 0.0
C2472 C 0.10152 0.56952 0.09311 0.0
C2473 C 0.08243 0.56271 0.10397 0.0
C2474 C 0.082 0.55562 0.12203 0.0
C2475 C 0.13209 0.60823 0.20787 0.0
C2476 C 0.12105 0.60235 0.22492 0.0
C2477 C 0.12448 0.59302 0.19336 0.0
C2478 C 0.10566 0.57158 0.19552 0.0
C2479 C 0.09358 0.56616 0.21208 0.0
C2480 C 0.10124 0.58143 0.22671 0.0
C2481 C 0.10081 0.55448 0.18114 0.0
C2482 C 0.09878 0.55972 0.16288 0.0
C2483 C 0.1018 0.53479 0.18493 0.0
C2484 C 0.10502 0.52878 0.20376 0.0
C2485 C 0.08833 0.50889 0.21193 0.0
C2486 C 0.0913 0.50321 0.22973 0.0
C2487 C 0.11097 0.51723 0.23942 0.0
C2488 C 0.12776 0.53692 0.2313 0.0
C2489 C 0.12489 0.54265 0.21349 0.0
H2490 H 0.11322 0.51282 0.2532 0.0
H2491 H 0.10177 0.57485 0.07909 0.0
H2492 H 0.48817 0.59757 0.09199 0.0
H2493 H 0.47885 0.57451 0.11976 0.0
H2494 H 0.46268 0.61996 0.14771 0.0
H2495 H 0.47205 0.64309 0.12025 0.0
H2496 H 0.48548 0.60617 0.16992 0.0
H2497 H 0.4221 0.57287 0.1271 0.0
H2498 H 0.40418 0.55568 0.09757 0.0
H2499 H 0.42062 0.50366 0.10554 0.0
H2500 H 0.43888 0.52073 0.13504 0.0
H2501 H 0.39216 0.56068 0.22505 0.0
H2502 H 0.42034 0.57595 0.20089 0.0
H2503 H 0.42614 0.5163 0.20224 0.0
H2504 H 0.39793 0.50095 0.2271 0.0
H2505 H 0.41793 0.53036 0.16618 0.0
H2506 H 0.4693 0.55918 0.21521 0.0
H2507 H 0.48513 0.57713 0.24498 0.0
H2508 H 0.49011 0.63855 0.22592 0.0
H2509 H 0.47374 0.62084 0.19622 0.0
C2510 C 0.48291 0.60281 0.10413 0.0
C2511 C 0.48062 0.62207 0.10383 0.0
C2512 C 0.47757 0.58959 0.11996 0.0
C2513 C 0.46994 0.59546 0.13573 0.0
C2514 C 0.4686 0.61517 0.1357 0.0
C2515 C 0.47381 0.62829 0.11992 0.0
C2516 C 0.46163 0.58051 0.15194 0.0
C2517 C 0.47082 0.58951 0.16917 0.0
C2518 C 0.44304 0.55845 0.15081 0.0
C2519 C 0.43212 0.54824 0.1331 0.0
C2520 C 0.42205 0.55787 0.12247 0.0
C2521 C 0.41181 0.54814 0.10576 0.0
C2522 C 0.41134 0.52864 0.09965 0.0
C2523 C 0.42106 0.5188 0.11026 0.0
C2524 C 0.43136 0.5285 0.12697 0.0
C2525 C 0.39948 0.55081 0.22028 0.0
C2526 C 0.39277 0.52956 0.22775 0.0
C2527 C 0.41573 0.55965 0.20662 0.0
C2528 C 0.42546 0.54735 0.19996 0.0
C2529 C 0.41892 0.52609 0.20738 0.0
C2530 C 0.40287 0.51736 0.22148 0.0
C2531 C 0.44101 0.55656 0.18423 0.0
C2532 C 0.43319 0.54657 0.16701 0.0
C2533 C 0.46068 0.57786 0.1854 0.0
C2534 C 0.47025 0.58861 0.2034 0.0
C2535 C 0.47356 0.57645 0.21739 0.0
C2536 C 0.48267 0.5866 0.23427 0.0
C2537 C 0.4887 0.60899 0.23731 0.0
C2538 C 0.48556 0.62124 0.22351 0.0
C2539 C 0.47633 0.61114 0.20664 0.0
H2540 H 0.49573 0.61681 0.25039 0.0
H2541 H 0.40339 0.52111 0.08672 0.0
H2542 H 0.40706 0.90133 0.09462 0.0
H2543 H 0.43014 0.91639 0.12235 0.0
H2544 H 0.3763 0.8654 0.15487 0.0
H2545 H 0.35322 0.85081 0.12765 0.0
H2546 H 0.39681 0.90238 0.17394 0.0
H2547 H 0.41906 0.85836 0.13555 0.0
H2548 H 0.4341 0.85029 0.10761 0.0
H2549 H 0.49485 0.91388 0.11263 0.0
H2550 H 0.48001 0.92242 0.14049 0.0
H2551 H 0.42742 0.84188 0.23207 0.0
H2552 H 0.41587 0.85782 0.20729 0.0
H2553 H 0.48013 0.9188 0.20944 0.0
H2554 H 0.49159 0.90307 0.23489 0.0
H2555 H 0.46435 0.89394 0.17337 0.0
H2556 H 0.44248 0.92726 0.22014 0.0
H2557 H 0.42517 0.92854 0.24941 0.0
H2558 H 0.36051 0.87823 0.22969 0.0
H2559 H 0.37746 0.87624 0.20046 0.0
C2560 C 0.40001 0.8937 0.10776 0.0
C2561 C 0.37846 0.87462 0.10889 0.0
C2562 C 0.41323 0.90227 0.12357 0.0
C2563 C 0.40507 0.89182 0.14065 0.0
C2564 C 0.38301 0.87379 0.14188 0.0
C2565 C 0.36986 0.8653 0.12622 0.0
C2566 C 0.41974 0.89753 0.15702 0.0
C2567 C 0.41175 0.90082 0.17382 0.0
C2568 C 0.4396 0.89609 0.15681 0.0
C2569 C 0.44829 0.8912 0.13987 0.0
C2570 C 0.43552 0.87071 0.13056 0.0
C2571 C 0.44403 0.86603 0.11478 0.0
C2572 C 0.46538 0.88161 0.1083 0.0
C2573 C 0.47828 0.90188 0.11762 0.0
C2574 C 0.46982 0.90666 0.13339 0.0
C2575 C 0.43899 0.85877 0.2274 0.0
C2576 C 0.46042 0.87123 0.23522 0.0
C2577 C 0.43233 0.86791 0.21337 0.0
C2578 C 0.44712 0.8895 0.20669 0.0
C2579 C 0.46847 0.90218 0.21459 0.0
C2580 C 0.47497 0.89321 0.22904 0.0
C2581 C 0.44057 0.89739 0.19025 0.0
C2582 C 0.45009 0.89664 0.17345 0.0
C2583 C 0.42169 0.90039 0.19051 0.0
C2584 C 0.41131 0.9016 0.20806 0.0
C2585 C 0.42459 0.91635 0.22207 0.0
C2586 C 0.41483 0.9172 0.23867 0.0
C2587 C 0.39175 0.90349 0.2414 0.0
C2588 C 0.37837 0.88891 0.22753 0.0
C2589 C 0.38806 0.88791 0.21094 0.0
H2590 H 0.38423 0.90415 0.25427 0.0
H2591 H 0.47196 0.87794 0.09611 0.0
H2592 H 0.02152 0.10808 0.09014 0.0
H2593 H 0.04139 0.08764 0.09559 0.0
H2594 H 0.08945 0.14181 0.12955 0.0
H2595 H 0.06981 0.1627 0.12393 0.0
H2596 H 0.11013 0.12924 0.10547 0.0
H2597 H 0.05055 0.09128 0.14841 0.0
H2598 H 0.0116 0.07088 0.15983 0.0
H2599 H 0.99577 0.01765 0.1214 0.0
H2600 H 0.03453 0.03789 0.10952 0.0
H2601 H 0.16236 0.06429 0.12648 0.0
H2602 H 0.14268 0.08542 0.13077 0.0
H2603 H 0.08982 0.03949 0.09475 0.0
H2604 H 0.10909 0.01823 0.09051 0.0
H2605 H 0.07303 0.04939 0.12471 0.0
H2606 H 0.13064 0.08965 0.07919 0.0
H2607 H 0.1695 0.10963 0.0675 0.0
H2608 H 0.18855 0.15835 0.11068 0.0
H2609 H 0.14983 0.13846 0.12278 0.0
C2610 C 0.03622 0.11567 0.09889 0.0
C2611 C 0.04409 0.13714 0.10654 0.0
C2612 C 0.04748 0.10384 0.1021 0.0
C2613 C 0.06677 0.11306 0.11315 0.0
C2614 C 0.07454 0.13434 0.12102 0.0
C2615 C 0.06327 0.14624 0.11781 0.0
C2616 C 0.07949 0.10101 0.11545 0.0
C2617 C 0.10214 0.11193 0.11009 0.0
C2618 C 0.06895 0.07828 0.12111 0.0
C2619 C 0.04547 0.06618 0.12802 0.0
C2620 C 0.03873 0.07531 0.14228 0.0
C2621 C 0.01669 0.06374 0.14888 0.0
C2622 C 0.00126 0.04293 0.14142 0.0
C2623 C 0.00779 0.0337 0.12726 0.0
C2624 C 0.02979 0.04523 0.12058 0.0
C2625 C 0.14648 0.0586 0.11957 0.0
C2626 C 0.13742 0.03963 0.10804 0.0
C2627 C 0.13529 0.07074 0.122 0.0
C2628 C 0.11488 0.06412 0.11296 0.0
C2629 C 0.10554 0.04488 0.10187 0.0
C2630 C 0.11669 0.03281 0.09939 0.0
C2631 C 0.10345 0.07752 0.11442 0.0
C2632 C 0.08107 0.06683 0.12043 0.0
C2633 C 0.11418 0.10043 0.1093 0.0
C2634 C 0.13743 0.11241 0.10202 0.0
C2635 C 0.14316 0.10451 0.08629 0.0
C2636 C 0.16515 0.11584 0.07957 0.0
C2637 C 0.1815 0.1352 0.08838 0.0
C2638 C 0.17588 0.14332 0.10389 0.0
C2639 C 0.15392 0.13203 0.11069 0.0
H2640 H 0.19851 0.14395 0.08315 0.0
H2641 H 0.9842 0.034 0.14653 0.0
H2642 H 0.88512 0.90939 0.11998 0.0
H2643 H 0.90359 0.94977 0.12621 0.0
H2644 H 0.84302 0.94975 0.11028 0.0
H2645 H 0.82417 0.90919 0.10561 0.0
H2646 H 0.91577 0.98184 0.10615 0.0
H2647 H 0.83862 0.9921 0.12589 0.0
H2648 H 0.80391 0.972 0.14416 0.0
H2649 H 0.83298 0.93998 0.17544 0.0
H2650 H 0.86798 0.96011 0.15754 0.0
H2651 H 0.93683 0.08516 0.07812 0.0
H2652 H 0.91685 0.04514 0.08483 0.0
H2653 H 0.91789 0.05937 0.14262 0.0
H2654 H 0.93741 0.09984 0.13586 0.0
H2655 H 0.87934 0.02177 0.13344 0.0
H2656 H 0.95643 0.04935 0.12602 0.0
H2657 H 0.99381 0.07074 0.11178 0.0
H2658 H 0.97039 0.02773 0.06454 0.0
H2659 H 0.93259 0.00654 0.07817 0.0
C2660 C 0.87572 0.91806 0.11822 0.0
C2661 C 0.85325 0.90632 0.1125 0.0
C2662 C 0.88626 0.94112 0.1217 0.0
C2663 C 0.8747 0.95298 0.11899 0.0
C2664 C 0.85218 0.94108 0.11317 0.0
C2665 C 0.84143 0.9179 0.11032 0.0
C2666 C 0.88666 0.97793 0.12069 0.0
C2667 C 0.90781 0.99046 0.11231 0.0
C2668 C 0.87682 0.98948 0.12927 0.0
C2669 C 0.8559 0.97753 0.14028 0.0
C2670 C 0.83767 0.98089 0.13675 0.0
C2671 C 0.81792 0.96945 0.14702 0.0
C2672 C 0.81622 0.95469 0.16093 0.0
C2673 C 0.83429 0.95137 0.16463 0.0
C2674 C 0.85408 0.96277 0.15441 0.0
C2675 C 0.93245 0.07981 0.09224 0.0
C2676 C 0.93888 0.09561 0.10649 0.0
C2677 C 0.92111 0.05693 0.09606 0.0
C2678 C 0.91644 0.04932 0.11426 0.0
C2679 C 0.92151 0.06494 0.12849 0.0
C2680 C 0.93263 0.088 0.12462 0.0
C2681 C 0.90765 0.02518 0.11817 0.0
C2682 C 0.88728 0.01296 0.1276 0.0
C2683 C 0.91868 0.01394 0.11132 0.0
C2684 C 0.94154 0.02641 0.1031 0.0
C2685 C 0.95914 0.04456 0.11251 0.0
C2686 C 0.98042 0.0567 0.10452 0.0
C2687 C 0.98448 0.0506 0.08727 0.0
C2688 C 0.96722 0.03242 0.07792 0.0
C2689 C 0.94584 0.02036 0.08575 0.0
H2690 H 0.001 0.05994 0.08116 0.0
H2691 H 0.80091 0.94584 0.16885 0.0
H2692 H 0.89522 0.81491 0.12793 0.0
H2693 H 0.9353 0.82655 0.13051 0.0
H2694 H 0.95233 0.88487 0.09736 0.0
H2695 H 0.91302 0.87376 0.09483 0.0
H2696 H 0.97084 0.8589 0.0848 0.0
H2697 H 0.96054 0.89055 0.14183 0.0
H2698 H 0.94351 0.88718 0.1723 0.0
H2699 H 0.96843 0.8442 0.19027 0.0
H2700 H 0.98536 0.84708 0.15978 0.0
H2701 H 0.0785 0.94825 0.08862 0.0
H2702 H 0.03867 0.92154 0.09106 0.0
H2703 H 0.05221 0.88194 0.12936 0.0
H2704 H 0.09258 0.90902 0.12718 0.0
H2705 H 0.01769 0.88704 0.14092 0.0
H2706 H 0.03113 0.85789 0.08525 0.0
H2707 H 0.04557 0.85811 0.05413 0.0
H2708 H 0.01476 0.89482 0.03377 0.0
H2709 H 0.99942 0.89409 0.06455 0.0
C2710 C 0.90756 0.83036 0.12142 0.0
C2711 C 0.90083 0.84328 0.11107 0.0
C2712 C 0.9304 0.83693 0.12287 0.0
C2713 C 0.94668 0.85644 0.11397 0.0
C2714 C 0.94 0.86963 0.10417 0.0
C2715 C 0.91743 0.86322 0.1028 0.0
C2716 C 0.97078 0.8633 0.11405 0.0
C2717 C 0.98111 0.86495 0.09708 0.0
C2718 C 0.98399 0.87033 0.13016 0.0
C2719 C 0.97394 0.86878 0.14847 0.0
C2720 C 0.96221 0.88021 0.15223 0.0
C2721 C 0.95261 0.87843 0.16951 0.0
C2722 C 0.95481 0.86541 0.1832 0.0
C2723 C 0.96669 0.85423 0.17964 0.0
C2724 C 0.97629 0.85593 0.16237 0.0
C2725 C 0.07317 0.93388 0.09758 0.0
C2726 C 0.08886 0.93084 0.10771 0.0
C2727 C 0.0503 0.91845 0.0988 0.0
C2728 C 0.04245 0.89941 0.11004 0.0
C2729 C 0.05793 0.89639 0.12045 0.0
C2730 C 0.08098 0.91194 0.11924 0.0
C2731 C 0.0179 0.8837 0.11148 0.0
C2732 C 0.00745 0.88034 0.1287 0.0
C2733 C 0.00446 0.8749 0.09559 0.0
C2734 C 0.01429 0.87609 0.07722 0.0
C2735 C 0.02757 0.86614 0.07415 0.0
C2736 C 0.03583 0.86627 0.05657 0.0
C2737 C 0.03135 0.87673 0.04207 0.0
C2738 C 0.0183 0.8868 0.04503 0.0
C2739 C 0.00965 0.88635 0.06249 0.0
H2740 H 0.03788 0.8769 0.02851 0.0
H2741 H 0.94738 0.86405 0.19657 0.0
H2742 H 0.0325 0.12367 0.39925 0.0
H2743 H 0.05749 0.10925 0.3923 0.0
H2744 H 0.0929 0.16258 0.35308 0.0
H2745 H 0.06809 0.17759 0.3603 0.0
H2746 H 0.06581 0.09275 0.36265 0.0
H2747 H 0.14429 0.17547 0.35092 0.0
H2748 H 0.16313 0.21552 0.35976 0.0
H2749 H 0.13199 0.19733 0.41286 0.0
H2750 H 0.11245 0.15732 0.40409 0.0
H2751 H 0.15402 0.06496 0.35151 0.0
H2752 H 0.13458 0.08594 0.34414 0.0
H2753 H 0.13713 0.10373 0.40123 0.0
H2754 H 0.15571 0.08229 0.40867 0.0
H2755 H 0.14752 0.13989 0.37453 0.0
H2756 H 0.09294 0.06165 0.3899 0.0
H2757 H 0.07594 0.02086 0.38487 0.0
H2758 H 0.0598 0.02856 0.32939 0.0
H2759 H 0.07705 0.06949 0.33404 0.0
C2760 C 0.04554 0.13242 0.38911 0.0
C2761 C 0.04831 0.15193 0.38042 0.0
C2762 C 0.05979 0.12403 0.38507 0.0
C2763 C 0.07717 0.13484 0.37223 0.0
C2764 C 0.0798 0.1541 0.36323 0.0
C2765 C 0.06556 0.16263 0.36734 0.0
C2766 C 0.09277 0.12611 0.369 0.0
C2767 C 0.08373 0.10319 0.36491 0.0
C2768 C 0.11619 0.1396 0.37181 0.0
C2769 C 0.1268 0.16357 0.3768 0.0
C2770 C 0.14132 0.18012 0.3644 0.0
C2771 C 0.15202 0.20279 0.36937 0.0
C2772 C 0.14857 0.20901 0.38681 0.0
C2773 C 0.13433 0.19257 0.39926 0.0
C2774 C 0.12334 0.16991 0.39427 0.0
C2775 C 0.15073 0.07372 0.36235 0.0
C2776 C 0.15618 0.07204 0.38064 0.0
C2777 C 0.13967 0.08562 0.35815 0.0
C2778 C 0.13452 0.09636 0.37216 0.0
C2779 C 0.1411 0.09565 0.39024 0.0
C2780 C 0.15157 0.08334 0.39449 0.0
C2781 C 0.12044 0.1066 0.36866 0.0
C2782 C 0.12974 0.12972 0.37151 0.0
C2783 C 0.09725 0.09323 0.36492 0.0
C2784 C 0.08652 0.06862 0.36223 0.0
C2785 C 0.08592 0.05466 0.37659 0.0
C2786 C 0.07622 0.03152 0.37382 0.0
C2787 C 0.06686 0.02213 0.3568 0.0
C2788 C 0.0671 0.03586 0.34255 0.0
C2789 C 0.07684 0.05903 0.34524 0.0
H2790 H 0.05937 0.00421 0.35468 0.0
H2791 H 0.15706 0.22654 0.3907 0.0
H2792 H 0.96148 0.08403 0.38765 0.0
H2793 H 0.93792 0.04428 0.38072 0.0
H2794 H 0.88962 0.05758 0.35433 0.0
H2795 H 0.91322 0.0977 0.36126 0.0
H2796 H 0.87065 0.02241 0.3799 0.0
H2797 H 0.91866 0.04278 0.32783 0.0
H2798 H 0.95478 0.0614 0.31129 0.0
H2799 H 0.97694 0.02233 0.34134 0.0
H2800 H 0.94112 0.0037 0.35829 0.0
H2801 H 0.81546 0.90178 0.36738 0.0
H2802 H 0.83103 0.94143 0.35872 0.0
H2803 H 0.89463 0.95711 0.38263 0.0
H2804 H 0.87948 0.91806 0.39117 0.0
H2805 H 0.89997 0.97763 0.34955 0.0
H2806 H 0.85776 0.9658 0.40635 0.0
H2807 H 0.82336 0.94836 0.42522 0.0
H2808 H 0.79171 0.97208 0.38763 0.0
H2809 H 0.82588 0.98943 0.36842 0.0
C2810 C 0.94597 0.07862 0.38021 0.0
C2811 C 0.93925 0.09407 0.375 0.0
C2812 C 0.93257 0.05588 0.37617 0.0
C2813 C 0.91216 0.04806 0.36684 0.0
C2814 C 0.90541 0.06337 0.36144 0.0
C2815 C 0.91895 0.08625 0.36535 0.0
C2816 C 0.89756 0.02364 0.36383 0.0
C2817 C 0.87671 0.01259 0.37277 0.0
C2818 C 0.90567 0.01093 0.35474 0.0
C2819 C 0.92717 0.02186 0.34437 0.0
C2820 C 0.93127 0.03823 0.33099 0.0
C2821 C 0.95169 0.04878 0.32153 0.0
C2822 C 0.96813 0.04306 0.32526 0.0
C2823 C 0.96417 0.02673 0.33845 0.0
C2824 C 0.94378 0.01613 0.34796 0.0
C2825 C 0.83279 0.9137 0.37064 0.0
C2826 C 0.84615 0.9068 0.38012 0.0
C2827 C 0.84163 0.9363 0.36572 0.0
C2828 C 0.86396 0.95217 0.37008 0.0
C2829 C 0.87739 0.94513 0.37906 0.0
C2830 C 0.8686 0.92277 0.38408 0.0
C2831 C 0.87355 0.97642 0.36626 0.0
C2832 C 0.8935 0.98744 0.35605 0.0
C2833 C 0.86473 0.98911 0.37433 0.0
C2834 C 0.8442 0.97859 0.38581 0.0
C2835 C 0.84337 0.9671 0.40202 0.0
C2836 C 0.82395 0.95727 0.41279 0.0
C2837 C 0.80532 0.95903 0.40758 0.0
C2838 C 0.80612 0.97067 0.39162 0.0
C2839 C 0.8255 0.9805 0.38078 0.0
H2840 H 0.7903 0.95143 0.41595 0.0
H2841 H 0.98394 0.05127 0.31793 0.0
H2842 H 0.10015 0.93632 0.36988 0.0
H2843 H 0.05954 0.91288 0.36495 0.0
H2844 H 0.04937 0.96482 0.3882 0.0
H2845 H 0.08956 0.98827 0.39308 0.0
H2846 H 0.02497 0.92253 0.4054 0.0
H2847 H 0.04161 0.95551 0.34469 0.0
H2848 H 0.06078 0.9645 0.3147 0.0
H2849 H 0.0321 0.89419 0.30308 0.0
H2850 H 0.01302 0.88478 0.33316 0.0
H2851 H 0.91469 0.89457 0.39422 0.0
H2852 H 0.9551 0.91358 0.38952 0.0
H2853 H 0.94904 0.85381 0.36477 0.0
H2854 H 0.9082 0.83447 0.36928 0.0
H2855 H 0.98173 0.89477 0.34745 0.0
H2856 H 0.96337 0.86156 0.40715 0.0
H2857 H 0.94446 0.85226 0.43726 0.0
H2858 H 0.97711 0.92231 0.45106 0.0
H2859 H 0.99597 0.93206 0.42091 0.0
C2860 C 0.08929 0.94288 0.37366 0.0
C2861 C 0.09808 0.96401 0.38217 0.0
C2862 C 0.06613 0.92949 0.37081 0.0
C2863 C 0.05155 0.93711 0.37637 0.0
C2864 C 0.06039 0.9586 0.38397 0.0
C2865 C 0.0834 0.97195 0.38678 0.0
C2866 C 0.02694 0.92218 0.37591 0.0
C2867 C 0.01551 0.91657 0.39272 0.0
C2868 C 0.01479 0.91379 0.35939 0.0
C2869 C 0.02611 0.91944 0.34127 0.0
C2870 C 0.03956 0.94196 0.33582 0.0
C2871 C 0.05037 0.94714 0.31879 0.0
C2872 C 0.04771 0.92993 0.30701 0.0
C2873 C 0.03417 0.9075 0.31223 0.0
C2874 C 0.02335 0.90224 0.32926 0.0
C2875 C 0.92182 0.88543 0.38763 0.0
C2876 C 0.90824 0.86285 0.38242 0.0
C2877 C 0.94494 0.89638 0.3849 0.0
C2878 C 0.95503 0.88496 0.37708 0.0
C2879 C 0.94151 0.86285 0.37088 0.0
C2880 C 0.91822 0.85183 0.37353 0.0
C2881 C 0.9798 0.89581 0.37693 0.0
C2882 C 0.99125 0.90052 0.36011 0.0
C2883 C 0.99213 0.90333 0.39347 0.0
C2884 C 0.98097 0.89754 0.41171 0.0
C2885 C 0.9664 0.87499 0.41655 0.0
C2886 C 0.9557 0.86964 0.43363 0.0
C2887 C 0.95955 0.88669 0.44605 0.0
C2888 C 0.97414 0.90912 0.44143 0.0
C2889 C 0.98486 0.91457 0.42435 0.0
H2890 H 0.95125 0.88251 0.45927 0.0
H2891 H 0.0561 0.93396 0.29383 0.0
H2892 H 0.91739 0.8172 0.87267 0.0
H2893 H 0.89246 0.83168 0.86431 0.0
H2894 H 0.94221 0.89767 0.88288 0.0
H2895 H 0.96708 0.88333 0.89149 0.0
H2896 H 0.87586 0.85077 0.88888 0.0
H2897 H 0.93893 0.93629 0.85424 0.0
H2898 H 0.97183 0.95112 0.83376 0.0
H2899 H 0.94981 0.88465 0.81348 0.0
H2900 H 0.91651 0.86951 0.83343 0.0
H2901 H 0.86218 0.94203 0.90789 0.0
H2902 H 0.87538 0.91576 0.90171 0.0
H2903 H 0.85077 0.90741 0.84616 0.0
H2904 H 0.83707 0.93376 0.85237 0.0
H2905 H 0.89681 0.91762 0.84994 0.0
H2906 H 0.82416 0.86419 0.8712 0.0
H2907 H 0.79087 0.84833 0.8913 0.0
H2908 H 0.83085 0.84896 0.9368 0.0
H2909 H 0.86445 0.86506 0.91703 0.0
C2910 C 0.92311 0.83485 0.87479 0.0
C2911 C 0.94412 0.84911 0.88287 0.0
C2912 C 0.90885 0.84306 0.87001 0.0
C2913 C 0.91558 0.86573 0.87287 0.0
C2914 C 0.93682 0.88015 0.8804 0.0
C2915 C 0.95093 0.8719 0.88543 0.0
C2916 C 0.89984 0.87412 0.86954 0.0
C2917 C 0.88024 0.86518 0.88017 0.0
C2918 C 0.9054 0.89259 0.85783 0.0
C2919 C 0.92524 0.90172 0.84548 0.0
C2920 C 0.94097 0.92485 0.8453 0.0
C2921 C 0.95971 0.93332 0.83376 0.0
C2922 C 0.96296 0.91885 0.82236 0.0
C2923 C 0.94736 0.89587 0.82236 0.0
C2924 C 0.92854 0.88733 0.83378 0.0
C2925 C 0.85943 0.93454 0.89436 0.0
C2926 C 0.84872 0.94003 0.88056 0.0
C2927 C 0.86685 0.91942 0.8909 0.0
C2928 C 0.8639 0.90959 0.87353 0.0
C2929 C 0.85306 0.91481 0.85968 0.0
C2930 C 0.84523 0.92975 0.86325 0.0
C2931 C 0.87352 0.89494 0.86999 0.0
C2932 C 0.89208 0.90279 0.85821 0.0
C2933 C 0.86698 0.87539 0.88057 0.0
C2934 C 0.84685 0.86587 0.89261 0.0
C2935 C 0.82589 0.8611 0.88552 0.0
C2936 C 0.80695 0.85203 0.89686 0.0
C2937 C 0.80874 0.84761 0.91531 0.0
C2938 C 0.82948 0.85233 0.92249 0.0
C2939 C 0.84847 0.86138 0.91121 0.0
H2940 H 0.79404 0.8405 0.92405 0.0
H2941 H 0.97755 0.92544 0.81353 0.0
H2942 H 0.11738 0.08725 0.90284 0.0
H2943 H 0.09797 0.04714 0.89689 0.0
H2944 H 0.14368 0.05747 0.85247 0.0
H2945 H 0.16376 0.09791 0.85866 0.0
H2946 H 0.07582 0.02058 0.86924 0.0
H2947 H 0.15187 0.011 0.85173 0.0
H2948 H 0.19308 0.03148 0.85537 0.0
H2949 H 0.18709 0.06267 0.90445 0.0
H2950 H 0.14582 0.04193 0.90135 0.0
H2951 H 0.06946 0.90305 0.86492 0.0
H2952 H 0.08939 0.94314 0.85679 0.0
H2953 H 0.05767 0.95674 0.90218 0.0
H2954 H 0.03763 0.91721 0.91016 0.0
H2955 H 0.11894 0.98079 0.87623 0.0
H2956 H 0.04418 0.99506 0.8916 0.0
H2957 H 0.00284 0.97319 0.89054 0.0
H2958 H 0.00572 0.93167 0.84783 0.0
H2959 H 0.0471 0.95351 0.8484 0.0
C2960 C 0.12333 0.08114 0.8917 0.0
C2961 C 0.1424 0.09587 0.88141 0.0
C2962 C 0.11207 0.05812 0.88825 0.0
C2963 C 0.11952 0.04921 0.87439 0.0
C2964 C 0.13786 0.06393 0.86344 0.0
C2965 C 0.14929 0.08705 0.86699 0.0
C2966 C 0.10871 0.02444 0.87244 0.0
C2967 C 0.08525 0.01188 0.87071 0.0
C2968 C 0.12107 0.01304 0.87381 0.0
C2969 C 0.1458 0.02518 0.87614 0.0
C2970 C 0.15936 0.02215 0.86334 0.0
C2971 C 0.18271 0.03377 0.86533 0.0
C2972 C 0.19268 0.0484 0.88011 0.0
C2973 C 0.17932 0.05133 0.89301 0.0
C2974 C 0.15596 0.03964 0.89116 0.0
C2975 C 0.06677 0.91462 0.87315 0.0
C2976 C 0.05175 0.90683 0.88808 0.0
C2977 C 0.07815 0.93749 0.86848 0.0
C2978 C 0.07461 0.95283 0.87863 0.0
C2979 C 0.0602 0.94514 0.89384 0.0
C2980 C 0.0488 0.92246 0.89843 0.0
C2981 C 0.08603 0.97703 0.87381 0.0
C2982 C 0.10956 0.98946 0.87421 0.0
C2983 C 0.07373 0.98833 0.87136 0.0
C2984 C 0.0488 0.97589 0.87013 0.0
C2985 C 0.03602 0.98144 0.88183 0.0
C2986 C 0.01257 0.969 0.88136 0.0
C2987 C 0.00167 0.951 0.8692 0.0
C2988 C 0.01419 0.94557 0.8573 0.0
C2989 C 0.03765 0.95798 0.85769 0.0
H2990 H 0.98352 0.94123 0.86904 0.0
H2991 H 0.21076 0.05745 0.88159 0.0
H2992 H 0.92453 0.03156 0.89277 0.0
H2993 H 0.96449 0.05566 0.88731 0.0
H2994 H 0.95068 0.09555 0.84951 0.0
H2995 H 0.91041 0.07178 0.85531 0.0
H2996 H 0.9933 0.06869 0.85959 0.0
H2997 H 0.99167 0.15063 0.85534 0.0
H2998 H 0.9669 0.16592 0.86284 0.0
H2999 H 0.93867 0.11953 0.90775 0.0
H3000 H 0.96351 0.10423 0.90065 0.0
H3001 H 0.10734 0.16144 0.85496 0.0
H3002 H 0.06719 0.14147 0.84699 0.0
H3003 H 0.05013 0.13574 0.90447 0.0
H3004 H 0.09004 0.15487 0.91249 0.0
H3005 H 0.02386 0.1481 0.87852 0.0
H3006 H 0.04914 0.0941 0.89044 0.0
H3007 H 0.07441 0.07889 0.88493 0.0
H3008 H 0.0555 0.06883 0.82806 0.0
H3009 H 0.03033 0.08429 0.83322 0.0
C3010 C 0.92986 0.04527 0.88311 0.0
C3011 C 0.9142 0.04995 0.87474 0.0
C3012 C 0.95279 0.05898 0.87991 0.0
C3013 C 0.96063 0.07762 0.86822 0.0
C3014 C 0.94502 0.08147 0.85883 0.0
C3015 C 0.922 0.06784 0.86216 0.0
C3016 C 0.98507 0.09398 0.86748 0.0
C3017 C -6e-05 0.08613 0.86343 0.0
C3018 C 0.99385 0.11676 0.87257 0.0
C3019 C 0.97922 0.12613 0.87731 0.0
C3020 C 0.98023 0.14378 0.86685 0.0
C3021 C 0.96619 0.15244 0.87103 0.0
C3022 C 0.95116 0.14366 0.88571 0.0
C3023 C 0.95026 0.1263 0.89634 0.0
C3024 C 0.96432 0.11762 0.89225 0.0
C3025 C 0.09497 0.15629 0.86582 0.0
C3026 C 0.10161 0.15955 0.88432 0.0
C3027 C 0.07215 0.1449 0.86127 0.0
C3028 C 0.05585 0.13719 0.87517 0.0
C3029 C 0.06254 0.14167 0.89358 0.0
C3030 C 0.08525 0.1525 0.89814 0.0
C3031 C 0.03183 0.12266 0.87087 0.0
C3032 C 0.01714 0.13084 0.87407 0.0
C3033 C 0.02322 0.10016 0.86523 0.0
C3034 C 0.03809 0.0906 0.86216 0.0
C3035 C 0.05053 0.08882 0.87673 0.0
C3036 C 0.0648 0.08012 0.87368 0.0
C3037 C 0.06661 0.07296 0.85614 0.0
C3038 C 0.0541 0.07442 0.84163 0.0
C3039 C 0.03983 0.08314 0.84461 0.0
H3040 H 0.07767 0.06622 0.85381 0.0
H3041 H 0.94025 0.15035 0.88882 0.0
H3042 H 0.90934 0.81135 0.62712 0.0
H3043 H 0.88074 0.82238 0.63129 0.0
H3044 H 0.93264 0.89205 0.63273 0.0
H3045 H 0.96115 0.8812 0.62828 0.0
H3046 H 0.89498 0.88116 0.65667 0.0
H3047 H 0.91306 0.87049 0.59331 0.0
H3048 H 0.91541 0.84745 0.56838 0.0
H3049 H 0.84491 0.80042 0.57376 0.0
H3050 H 0.84227 0.823 0.59901 0.0
H3051 H 0.86063 0.94094 0.58819 0.0
H3052 H 0.87527 0.9164 0.59635 0.0
H3053 H 0.82703 0.88789 0.64032 0.0
H3054 H 0.81217 0.91264 0.6323 0.0
H3055 H 0.85482 0.8702 0.59759 0.0
H3056 H 0.85489 0.87642 0.67503 0.0
H3057 H 0.85267 0.90045 0.69918 0.0
H3058 H 0.88764 0.95821 0.66435 0.0
H3059 H 0.89023 0.93453 0.64009 0.0
C3060 C 0.91465 0.82895 0.62892 0.0
C3061 C 0.9374 0.84547 0.62715 0.0
C3062 C 0.89832 0.83521 0.63129 0.0
C3063 C 0.90463 0.85802 0.63219 0.0
C3064 C 0.92747 0.87436 0.63212 0.0
C3065 C 0.94372 0.86816 0.62945 0.0
C3066 C 0.88784 0.86531 0.63009 0.0
C3067 C 0.88581 0.87841 0.64392 0.0
C3068 C 0.87593 0.8617 0.61343 0.0
C3069 C 0.87754 0.84823 0.59822 0.0
C3070 C 0.89811 0.85512 0.5893 0.0
C3071 C 0.89949 0.84216 0.57511 0.0
C3072 C 0.88034 0.82243 0.56954 0.0
C3073 C 0.85975 0.81566 0.57814 0.0
C3074 C 0.85831 0.82851 0.5924 0.0
C3075 C 0.85304 0.92948 0.5996 0.0
C3076 C 0.83526 0.92886 0.60963 0.0
C3077 C 0.86135 0.91533 0.60416 0.0
C3078 C 0.85222 0.90034 0.61891 0.0
C3079 C 0.83433 0.89942 0.62891 0.0
C3080 C 0.82589 0.91357 0.6243 0.0
C3081 C 0.86237 0.88652 0.62399 0.0
C3082 C 0.86323 0.87224 0.61065 0.0
C3083 C 0.87321 0.88909 0.64106 0.0
C3084 C 0.87256 0.90368 0.65573 0.0
C3085 C 0.8622 0.89427 0.67259 0.0
C3086 C 0.86085 0.90782 0.68627 0.0
C3087 C 0.86994 0.93083 0.68328 0.0
C3088 C 0.88054 0.94037 0.66663 0.0
C3089 C 0.88195 0.92689 0.65291 0.0
H3090 H 0.8688 0.94128 0.69386 0.0
H3091 H 0.88143 0.81243 0.55854 0.0
H3092 H 0.07642 0.90565 0.63587 0.0
H3093 H 0.10179 0.94567 0.64165 0.0
H3094 H 0.05121 0.9603 0.62225 0.0
H3095 H 0.02576 0.92053 0.6166 0.0
H3096 H 0.11777 0.97736 0.6152 0.0
H3097 H 0.05696 0.00672 0.64189 0.0
H3098 H 0.02388 0.99284 0.66209 0.0
H3099 H 0.04464 0.95206 0.69132 0.0
H3100 H 0.07798 0.96587 0.67143 0.0
H3101 H 0.13727 0.08256 0.58573 0.0
H3102 H 0.12193 0.04341 0.59471 0.0
H3103 H 0.14617 0.06404 0.64991 0.0
H3104 H 0.16192 0.10357 0.64094 0.0
H3105 H 0.09961 0.03019 0.64694 0.0
H3106 H 0.17134 0.04389 0.62689 0.0
H3107 H 0.20365 0.05825 0.60581 0.0
H3108 H 0.16138 0.01319 0.56376 0.0
H3109 H 0.1287 0.99881 0.58447 0.0
C3110 C 0.07051 0.91733 0.63323 0.0
C3111 C 0.04911 0.90989 0.62563 0.0
C3112 C 0.08507 0.94019 0.63649 0.0
C3113 C 0.07836 0.95595 0.63246 0.0
C3114 C 0.05664 0.94843 0.62572 0.0
C3115 C 0.04215 0.92565 0.62237 0.0
C3116 C 0.09464 0.98036 0.63334 0.0
C3117 C 0.114 0.9889 0.62238 0.0
C3118 C 0.08979 0.9954 0.64285 0.0
C3119 C 0.06996 0.98729 0.6551 0.0
C3120 C 0.05457 0.99492 0.6527 0.0
C3121 C 0.03574 0.98703 0.66408 0.0
C3122 C 0.03215 0.97157 0.67797 0.0
C3123 C 0.04741 0.96399 0.68052 0.0
C3124 C 0.06626 0.97182 0.66918 0.0
C3125 C 0.13955 0.07882 0.59975 0.0
C3126 C 0.15075 0.09611 0.61265 0.0
C3127 C 0.13086 0.05646 0.60483 0.0
C3128 C 0.13304 0.05091 0.62293 0.0
C3129 C 0.14444 0.06808 0.63585 0.0
C3130 C 0.15348 0.09058 0.63069 0.0
C3131 C 0.12215 0.02701 0.6283 0.0
C3132 C 0.10373 0.0186 0.64026 0.0
C3133 C 0.12781 0.01208 0.61967 0.0
C3134 C 0.14752 0.02033 0.60725 0.0
C3135 C 0.16889 0.03712 0.61312 0.0
C3136 C 0.18728 0.04527 0.60123 0.0
C3137 C 0.18457 0.03667 0.58345 0.0
C3138 C 0.16346 0.01984 0.57754 0.0
C3139 C 0.145 0.01165 0.58937 0.0
H3140 H 0.19882 0.04303 0.57425 0.0
H3141 H 0.01756 0.96547 0.68675 0.0
H3142 H 0.89226 0.06062 0.62572 0.0
H3143 H 0.93256 0.08207 0.63225 0.0
H3144 H 0.94306 0.03648 0.59863 0.0
H3145 H 0.90298 0.01489 0.59213 0.0
H3146 H 0.96795 0.04764 0.63023 0.0
H3147 H 0.95186 0.08519 0.58125 0.0
H3148 H 0.93274 0.10382 0.56732 0.0
H3149 H 0.9587 0.15395 0.60969 0.0
H3150 H 0.97773 0.1354 0.62402 0.0
H3151 H 0.07786 0.1059 0.59608 0.0
H3152 H 0.0376 0.08539 0.60162 0.0
H3153 H 0.04315 0.14072 0.63365 0.0
H3154 H 0.08366 0.16169 0.62795 0.0
H3155 H 0.01 0.12665 0.60871 0.0
H3156 H 0.03155 0.09201 0.65461 0.0
H3157 H 0.05144 0.07359 0.66739 0.0
H3158 H 0.01593 0.01802 0.63057 0.0
H3159 H 0.99604 0.03627 0.61733 0.0
C3160 C 0.90311 0.05504 0.61983 0.0
C3161 C 0.89439 0.03615 0.60824 0.0
C3162 C 0.92613 0.06734 0.62357 0.0
C3163 C 0.94078 0.06094 0.6158 0.0
C3164 C 0.93202 0.04168 0.60478 0.0
C3165 C 0.9091 0.02945 0.60097 0.0
C3166 C 0.9654 0.07488 0.61819 0.0
C3167 C 0.9772 0.0649 0.62552 0.0
C3168 C 0.97734 0.09757 0.61247 0.0
C3169 C 0.96596 0.10875 0.60384 0.0
C3170 C 0.95333 0.10008 0.58768 0.0
C3171 C 0.94254 0.11063 0.5797 0.0
C3172 C 0.94444 0.13001 0.58765 0.0
C3173 C 0.9572 0.13891 0.60357 0.0
C3174 C 0.96799 0.12838 0.61163 0.0
C3175 C 0.07065 0.11373 0.60444 0.0
C3176 C 0.08405 0.13552 0.61151 0.0
C3177 C 0.04759 0.10186 0.60771 0.0
C3178 C 0.03741 0.11141 0.61824 0.0
C3179 C 0.05072 0.13302 0.62557 0.0
C3180 C 0.07386 0.14494 0.62232 0.0
C3181 C 0.01267 0.09929 0.62041 0.0
C3182 C 0.00081 0.10957 0.61387 0.0
C3183 C 0.00071 0.07685 0.62681 0.0
C3184 C 0.01239 0.06561 0.63489 0.0
C3185 C 0.02807 0.07593 0.64914 0.0
C3186 C 0.03934 0.06551 0.65648 0.0
C3187 C 0.03499 0.04467 0.64977 0.0
C3188 C 0.01928 0.03417 0.63574 0.0
C3189 C 0.00798 0.04453 0.62834 0.0
H3190 H 0.04378 0.03668 0.65544 0.0
H3191 H 0.93608 0.13817 0.58145 0.0
H3192 H 0.77882 0.35366 0.4732 0.0
H3193 H 0.76114 0.37568 0.48112 0.0
H3194 H 0.82448 0.4368 0.47421 0.0
H3195 H 0.8425 0.41467 0.46645 0.0
H3196 H 0.78872 0.43551 0.50289 0.0
H3197 H 0.80139 0.42431 0.43839 0.0
H3198 H 0.80113 0.40009 0.41327 0.0
H3199 H 0.73055 0.35541 0.42148 0.0
H3200 H 0.73053 0.37918 0.44688 0.0
H3201 H 0.74607 0.50419 0.46614 0.0
H3202 H 0.76685 0.48556 0.47547 0.0
H3203 H 0.70828 0.42099 0.46522 0.0
H3204 H 0.68754 0.43943 0.45554 0.0
H3205 H 0.74335 0.42531 0.44693 0.0
H3206 H 0.72866 0.43778 0.50856 0.0
H3207 H 0.7277 0.45984 0.53487 0.0
H3208 H 0.79958 0.50038 0.53349 0.0
H3209 H 0.80096 0.47876 0.50698 0.0
C3210 C 0.78918 0.37178 0.47403 0.0
C3211 C 0.81189 0.38255 0.46888 0.0
C3212 C 0.77909 0.38431 0.47871 0.0
C3213 C 0.79148 0.40781 0.47804 0.0
C3214 C 0.81473 0.41865 0.47489 0.0
C3215 C 0.82496 0.40602 0.47038 0.0
C3216 C 0.77919 0.42021 0.47619 0.0
C3217 C 0.77903 0.43365 0.49061 0.0
C3218 C 0.76619 0.41724 0.4603 0.0
C3219 C 0.766 0.40341 0.4446 0.0
C3220 C 0.78586 0.40925 0.43489 0.0
C3221 C 0.78576 0.39561 0.42061 0.0
C3222 C 0.76584 0.3762 0.41581 0.0
C3223 C 0.74597 0.37044 0.42522 0.0
C3224 C 0.746 0.384 0.43955 0.0
C3225 C 0.73747 0.48601 0.4662 0.0
C3226 C 0.71525 0.47329 0.45983 0.0
C3227 C 0.74936 0.47539 0.47163 0.0
C3228 C 0.73913 0.4519 0.47099 0.0
C3229 C 0.71654 0.43915 0.46569 0.0
C3230 C 0.70472 0.44973 0.46014 0.0
C3231 C 0.75257 0.4407 0.4737 0.0
C3232 C 0.75302 0.42741 0.45929 0.0
C3233 C 0.76565 0.44383 0.48963 0.0
C3234 C 0.7649 0.45678 0.50565 0.0
C3235 C 0.74426 0.45152 0.51376 0.0
C3236 C 0.74364 0.46393 0.52873 0.0
C3237 C 0.76356 0.48154 0.53581 0.0
C3238 C 0.78416 0.48674 0.52797 0.0
C3239 C 0.78487 0.4744 0.51298 0.0
H3240 H 0.76305 0.49113 0.5474 0.0
H3241 H 0.76581 0.36564 0.40477 0.0
H3242 H 0.49124 0.24079 0.47379 0.0
H3243 H 0.50656 0.28027 0.48222 0.0
H3244 H 0.56762 0.29746 0.45295 0.0
H3245 H 0.55271 0.25824 0.4447 0.0
H3246 H 0.57658 0.32237 0.48386 0.0
H3247 H 0.52472 0.29964 0.43203 0.0
H3248 H 0.48772 0.27682 0.41734 0.0
H3249 H 0.45772 0.29994 0.45707 0.0
H3250 H 0.49448 0.3226 0.47221 0.0
H3251 H 0.59871 0.42007 0.42646 0.0
H3252 H 0.57399 0.38105 0.43522 0.0
H3253 H 0.58487 0.39978 0.49243 0.0
H3254 H 0.60966 0.43935 0.48357 0.0
H3255 H 0.53547 0.35711 0.45578 0.0
H3256 H 0.59255 0.35765 0.51249 0.0
H3257 H 0.63157 0.38057 0.52352 0.0
H3258 H 0.65402 0.40236 0.46839 0.0
H3259 H 0.6152 0.37939 0.45706 0.0
C3260 C 0.50809 0.25291 0.46942 0.0
C3261 C 0.52061 0.24636 0.45832 0.0
C3262 C 0.51681 0.27547 0.47426 0.0
C3263 C 0.53813 0.29182 0.46805 0.0
C3264 C 0.55114 0.28512 0.45793 0.0
C3265 C 0.54249 0.26266 0.45309 0.0
C3266 C 0.54618 0.31613 0.47021 0.0
C3267 C 0.56737 0.32994 0.4781 0.0
C3268 C 0.53427 0.32605 0.46257 0.0
C3269 C 0.51225 0.31256 0.45339 0.0
C3270 C 0.51019 0.29972 0.43771 0.0
C3271 C 0.48929 0.28684 0.42929 0.0
C3272 C 0.47039 0.28689 0.43629 0.0
C3273 C 0.47237 0.29987 0.4517 0.0
C3274 C 0.49322 0.31271 0.46021 0.0
C3275 C 0.59543 0.41594 0.4409 0.0
C3276 C 0.60611 0.43256 0.45437 0.0
C3277 C 0.58121 0.39368 0.44589 0.0
C3278 C 0.57769 0.38752 0.46445 0.0
C3279 C 0.58741 0.40426 0.47802 0.0
C3280 C 0.60146 0.42677 0.47298 0.0
C3281 C 0.56602 0.36331 0.46907 0.0
C3282 C 0.5442 0.3495 0.46236 0.0
C3283 C 0.57756 0.35341 0.47739 0.0
C3284 C 0.60097 0.36706 0.484 0.0
C3285 C 0.60584 0.36732 0.50275 0.0
C3286 C 0.62791 0.38031 0.50904 0.0
C3287 C 0.64525 0.393 0.49667 0.0
C3288 C 0.64057 0.39263 0.47797 0.0
C3289 C 0.61854 0.37964 0.47161 0.0
H3290 H 0.66232 0.40307 0.50157 0.0
H3291 H 0.45423 0.27691 0.42974 0.0
H3292 H 0.74304 0.2993 0.45424 0.0
H3293 H 0.70397 0.27488 0.46261 0.0
H3294 H 0.71834 0.22271 0.47785 0.0
H3295 H 0.75785 0.24722 0.46928 0.0
H3296 H 0.6824 0.20734 0.45497 0.0
H3297 H 0.70339 0.24693 0.51107 0.0
H3298 H 0.72219 0.27981 0.5315 0.0
H3299 H 0.68292 0.30663 0.50869 0.0
H3300 H 0.6641 0.27409 0.48792 0.0
H3301 H 0.56188 0.15228 0.46441 0.0
H3302 H 0.60069 0.16548 0.47433 0.0
H3303 H 0.61874 0.23322 0.45953 0.0
H3304 H 0.58045 0.22039 0.44985 0.0
H3305 H 0.63805 0.2323 0.49166 0.0
H3306 H 0.62748 0.19921 0.42999 0.0
H3307 H 0.61042 0.16794 0.40781 0.0
H3308 H 0.6309 0.12974 0.44106 0.0
H3309 H 0.64797 0.16079 0.46349 0.0
C3310 C 0.73804 0.28274 0.45956 0.0
C3311 C 0.75357 0.27517 0.46098 0.0
C3312 C 0.71568 0.26884 0.46451 0.0
C3313 C 0.70827 0.24705 0.47108 0.0
C3314 C 0.72377 0.23953 0.47294 0.0
C3315 C 0.74632 0.25356 0.46807 0.0
C3316 C 0.68392 0.23183 0.47426 0.0
C3317 C 0.67271 0.21239 0.46346 0.0
C3318 C 0.67128 0.23847 0.48526 0.0
C3319 C 0.68233 0.25802 0.4979 0.0
C3320 C 0.69882 0.25988 0.51034 0.0
C3321 C 0.70949 0.27847 0.52199 0.0
C3322 C 0.70375 0.2953 0.52139 0.0
C3323 C 0.68731 0.29356 0.50916 0.0
C3324 C 0.6766 0.27501 0.49747 0.0
C3325 C 0.57411 0.17001 0.46349 0.0
C3326 C 0.56812 0.18523 0.45614 0.0
C3327 C 0.59625 0.17751 0.46912 0.0
C3328 C 0.61263 0.20032 0.46757 0.0
C3329 C 0.6064 0.21556 0.46091 0.0
C3330 C 0.58447 0.20813 0.45522 0.0
C3331 C 0.63667 0.20865 0.47159 0.0
C3332 C 0.64778 0.22677 0.48376 0.0
C3333 C 0.64924 0.20086 0.46182 0.0
C3334 C 0.6387 0.18214 0.4485 0.0
C3335 C 0.62815 0.18405 0.43263 0.0
C3336 C 0.61853 0.16639 0.42001 0.0
C3337 C 0.6195 0.14682 0.42306 0.0
C3338 C 0.63011 0.14488 0.43874 0.0
C3339 C 0.63977 0.1625 0.4514 0.0
H3340 H 0.61214 0.13321 0.41324 0.0
H3341 H 0.71205 0.30969 0.53041 0.0
H3342 H 0.7872 0.35861 0.74344 0.0
H3343 H 0.7681 0.38003 0.73899 0.0
H3344 H 0.82156 0.42604 0.70342 0.0
H3345 H 0.84106 0.40486 0.70798 0.0
H3346 H 0.81073 0.44814 0.72814 0.0
H3347 H 0.77054 0.38761 0.686 0.0
H3348 H 0.74901 0.3482 0.67577 0.0
H3349 H 0.69715 0.33545 0.71477 0.0
H3350 H 0.71855 0.37468 0.7255 0.0
H3351 H 0.74731 0.50255 0.70631 0.0
H3352 H 0.76857 0.4828 0.7028 0.0
H3353 H 0.72179 0.43015 0.73858 0.0
H3354 H 0.70049 0.44938 0.74201 0.0
H3355 H 0.73094 0.41293 0.70914 0.0
H3356 H 0.77245 0.4705 0.75419 0.0
H3357 H 0.79358 0.50928 0.76597 0.0
H3358 H 0.84227 0.52678 0.72296 0.0
H3359 H 0.82125 0.48814 0.71079 0.0
C3360 C 0.79491 0.3732 0.73457 0.0
C3361 C 0.81571 0.37997 0.72607 0.0
C3362 C 0.78387 0.38538 0.73197 0.0
C3363 C 0.79328 0.4045 0.7207 0.0
C3364 C 0.81398 0.4113 0.71213 0.0
C3365 C 0.82506 0.39911 0.71472 0.0
C3366 C 0.78184 0.41781 0.71851 0.0
C3367 C 0.79342 0.44056 0.7236 0.0
C3368 C 0.75912 0.4078 0.71296 0.0
C3369 C 0.74624 0.38411 0.70661 0.0
C3370 C 0.75463 0.37638 0.6925 0.0
C3371 C 0.74243 0.35407 0.68659 0.0
C3372 C 0.7217 0.33936 0.69457 0.0
C3373 C 0.71316 0.3469 0.70853 0.0
C3374 C 0.72533 0.36917 0.71455 0.0
C3375 C 0.74153 0.48674 0.71337 0.0
C3376 C 0.72223 0.47765 0.72451 0.0
C3377 C 0.75373 0.47551 0.7114 0.0
C3378 C 0.74681 0.45506 0.72051 0.0
C3379 C 0.72741 0.44587 0.73138 0.0
C3380 C 0.71531 0.45702 0.7334 0.0
C3381 C 0.75969 0.44309 0.71911 0.0
C3382 C 0.74837 0.42059 0.71335 0.0
C3383 C 0.78256 0.45325 0.72422 0.0
C3384 C 0.79512 0.47652 0.73144 0.0
C3385 C 0.78754 0.48268 0.74714 0.0
C3386 C 0.79952 0.50462 0.75391 0.0
C3387 C 0.81921 0.52051 0.74518 0.0
C3388 C 0.82698 0.51447 0.72968 0.0
C3389 C 0.81505 0.49255 0.72285 0.0
H3390 H 0.82848 0.53747 0.75046 0.0
H3391 H 0.71227 0.3221 0.68997 0.0
H3392 H 0.50911 0.23357 0.69451 0.0
H3393 H 0.52606 0.27425 0.68979 0.0
H3394 H 0.54035 0.28534 0.7477 0.0
H3395 H 0.52384 0.245 0.75247 0.0
H3396 H 0.52487 0.31295 0.73239 0.0
H3397 H 0.5803 0.29004 0.72222 0.0
H3398 H 0.59488 0.26761 0.70744 0.0
H3399 H 0.59038 0.29285 0.65464 0.0
H3400 H 0.57558 0.31529 0.66913 0.0
H3401 H 0.63982 0.41732 0.73114 0.0
H3402 H 0.61568 0.37681 0.72756 0.0
H3403 H 0.56569 0.38719 0.70074 0.0
H3404 H 0.5899 0.42795 0.70414 0.0
H3405 H 0.59615 0.34881 0.69703 0.0
H3406 H 0.51495 0.34613 0.7194 0.0
H3407 H 0.50297 0.36906 0.73699 0.0
H3408 H 0.56252 0.39518 0.77002 0.0
H3409 H 0.57474 0.37228 0.75271 0.0
C3410 C 0.51555 0.24469 0.70625 0.0
C3411 C 0.51538 0.23618 0.72383 0.0
C3412 C 0.52521 0.26786 0.70353 0.0
C3413 C 0.53448 0.28272 0.71841 0.0
C3414 C 0.53322 0.27413 0.73608 0.0
C3415 C 0.52393 0.2511 0.73874 0.0
C3416 C 0.54735 0.30729 0.71556 0.0
C3417 C 0.54024 0.3208 0.7244 0.0
C3418 C 0.56762 0.31749 0.70544 0.0
C3419 C 0.57658 0.3041 0.69672 0.0
C3420 C 0.58224 0.29065 0.70744 0.0
C3421 C 0.59058 0.27797 0.69913 0.0
C3422 C 0.59346 0.27872 0.6801 0.0
C3423 C 0.58809 0.29224 0.66937 0.0
C3424 C 0.57975 0.30496 0.67762 0.0
C3425 C 0.6238 0.41102 0.7243 0.0
C3426 C 0.61669 0.4258 0.71802 0.0
C3427 C 0.61009 0.38789 0.72217 0.0
C3428 C 0.5889 0.37907 0.71399 0.0
C3429 C 0.58199 0.39374 0.70715 0.0
C3430 C 0.59585 0.41698 0.70906 0.0
C3431 C 0.57363 0.35448 0.71379 0.0
C3432 C 0.58038 0.34097 0.7045 0.0
C3433 C 0.55328 0.3443 0.72382 0.0
C3434 C 0.54587 0.35774 0.73459 0.0
C3435 C 0.52544 0.35674 0.73044 0.0
C3436 C 0.51863 0.36973 0.74035 0.0
C3437 C 0.53206 0.38368 0.75451 0.0
C3438 C 0.55223 0.3845 0.75894 0.0
C3439 C 0.55911 0.37154 0.74907 0.0
H3440 H 0.52684 0.39385 0.76207 0.0
H3441 H 0.59991 0.26889 0.67369 0.0
H3442 H 0.58426 0.22712 0.71745 0.0
H3443 H 0.62493 0.24705 0.71248 0.0
H3444 H 0.6242 0.18385 0.71484 0.0
H3445 H 0.5835 0.16401 0.71798 0.0
H3446 H 0.65657 0.25454 0.73131 0.0
H3447 H 0.66684 0.18327 0.69587 0.0
H3448 H 0.64753 0.15411 0.67225 0.0
H3449 H 0.6175 0.19083 0.65017 0.0
H3450 H 0.63686 0.22037 0.67348 0.0
H3451 H 0.76091 0.27142 0.75385 0.0
H3452 H 0.72081 0.25427 0.74777 0.0
H3453 H 0.73394 0.26184 0.68951 0.0
H3454 H 0.77425 0.27832 0.69556 0.0
H3455 H 0.69698 0.22486 0.69482 0.0
H3456 H 0.72395 0.29874 0.71306 0.0
H3457 H 0.74458 0.33355 0.73105 0.0
H3458 H 0.70182 0.30148 0.77741 0.0
H3459 H 0.68118 0.26627 0.75982 0.0
C3460 C 0.59285 0.21756 0.71647 0.0
C3461 C 0.58081 0.19406 0.71792 0.0
C3462 C 0.61612 0.22893 0.71374 0.0
C3463 C 0.62789 0.21706 0.71299 0.0
C3464 C 0.61569 0.19351 0.7146 0.0
C3465 C 0.59237 0.18212 0.71659 0.0
C3466 C 0.65294 0.22922 0.71189 0.0
C3467 C 0.66529 0.24807 0.72318 0.0
C3468 C 0.66473 0.2216 0.70072 0.0
C3469 C 0.65321 0.20397 0.68653 0.0
C3470 C 0.65623 0.1852 0.68591 0.0
C3471 C 0.64524 0.16858 0.67259 0.0
C3472 C 0.63126 0.17059 0.65975 0.0
C3473 C 0.62828 0.18926 0.66016 0.0
C3474 C 0.63923 0.20593 0.67344 0.0
C3475 C 0.75525 0.26916 0.73972 0.0
C3476 C 0.77072 0.27636 0.72518 0.0
C3477 C 0.73232 0.25949 0.73626 0.0
C3478 C 0.72437 0.25733 0.7182 0.0
C3479 C 0.73967 0.26347 0.70357 0.0
C3480 C 0.76269 0.27283 0.70704 0.0
C3481 C 0.70017 0.24929 0.71486 0.0
C3482 C 0.6881 0.23136 0.70272 0.0
C3483 C 0.68877 0.25863 0.72436 0.0
C3484 C 0.70108 0.27976 0.73512 0.0
C3485 C 0.71904 0.29902 0.72714 0.0
C3486 C 0.73076 0.31884 0.73728 0.0
C3487 C 0.72454 0.31973 0.75537 0.0
C3488 C 0.70661 0.30077 0.76338 0.0
C3489 C 0.69489 0.28086 0.75333 0.0
H3490 H 0.7336 0.33512 0.76317 0.0
H3491 H 0.62275 0.1577 0.64946 0.0
H3492 H 0.57138 0.15115 0.19808 0.0
H3493 H 0.54758 0.16722 0.19066 0.0
H3494 H 0.60408 0.23387 0.19828 0.0
H3495 H 0.62791 0.21806 0.20562 0.0
H3496 H 0.53842 0.19137 0.21465 0.0
H3497 H 0.59864 0.27114 0.17218 0.0
H3498 H 0.62693 0.28179 0.1477 0.0
H3499 H 0.59607 0.21307 0.13015 0.0
H3500 H 0.56736 0.20203 0.15432 0.0
H3501 H 0.53585 0.28905 0.23438 0.0
H3502 H 0.54615 0.26085 0.22683 0.0
H3503 H 0.5113 0.24813 0.17515 0.0
H3504 H 0.50055 0.27637 0.18274 0.0
H3505 H 0.55647 0.2554 0.17309 0.0
H3506 H 0.4878 0.20922 0.20416 0.0
H3507 H 0.45952 0.19853 0.22865 0.0
H3508 H 0.50611 0.19864 0.26794 0.0
H3509 H 0.53483 0.20976 0.24377 0.0
C3510 C 0.57885 0.16924 0.19778 0.0
C3511 C 0.6015 0.18333 0.2026 0.0
C3512 C 0.56521 0.17838 0.19356 0.0
C3513 C 0.57409 0.20173 0.1938 0.0
C3514 C 0.59694 0.21582 0.19773 0.0
C3515 C 0.61051 0.20673 0.20209 0.0
C3516 C 0.5592 0.21148 0.19226 0.0
C3517 C 0.54212 0.20512 0.20536 0.0
C3518 C 0.56379 0.22917 0.17991 0.0
C3519 C 0.58087 0.23574 0.16515 0.0
C3520 C 0.59777 0.25831 0.16303 0.0
C3521 C 0.61392 0.26441 0.14922 0.0
C3522 C 0.61333 0.24811 0.1374 0.0
C3523 C 0.59655 0.22568 0.13934 0.0
C3524 C 0.58035 0.21948 0.15312 0.0
C3525 C 0.53028 0.28025 0.22141 0.0
C3526 C 0.51742 0.28497 0.20913 0.0
C3527 C 0.53608 0.26405 0.21717 0.0
C3528 C 0.52932 0.25233 0.20051 0.0
C3529 C 0.51654 0.25697 0.18812 0.0
C3530 C 0.51039 0.27302 0.19249 0.0
C3531 C 0.53661 0.23596 0.19608 0.0
C3532 C 0.55234 0.24118 0.18197 0.0
C3533 C 0.53077 0.21718 0.20748 0.0
C3534 C 0.51353 0.21044 0.22212 0.0
C3535 C 0.49209 0.20715 0.21804 0.0
C3536 C 0.47597 0.20099 0.23188 0.0
C3537 C 0.48102 0.19794 0.24985 0.0
C3538 C 0.50221 0.20102 0.25402 0.0
C3539 C 0.51842 0.20722 0.24024 0.0
H3540 H 0.46851 0.19316 0.26054 0.0
H3541 H 0.62585 0.25288 0.12673 0.0
H3542 H 0.80186 0.42092 0.17169 0.0
H3543 H 0.78242 0.38093 0.16363 0.0
H3544 H 0.82135 0.36968 0.20438 0.0
H3545 H 0.84171 0.40982 0.21147 0.0
H3546 H 0.80999 0.3394 0.17901 0.0
H3547 H 0.77073 0.36925 0.21463 0.0
H3548 H 0.75473 0.39397 0.21956 0.0
H3549 H 0.71232 0.36551 0.17239 0.0
H3550 H 0.72834 0.34085 0.16703 0.0
H3551 H 0.70598 0.24809 0.22927 0.0
H3552 H 0.73108 0.28637 0.21945 0.0
H3553 H 0.7455 0.26212 0.16954 0.0
H3554 H 0.72054 0.22326 0.1796 0.0
H3555 H 0.72905 0.30906 0.19195 0.0
H3556 H 0.79966 0.30244 0.15588 0.0
H3557 H 0.81691 0.27839 0.15569 0.0
H3558 H 0.79773 0.26053 0.21198 0.0
H3559 H 0.78062 0.28466 0.21254 0.0
C3560 C 0.80685 0.40996 0.17828 0.0
C3561 C 0.82316 0.41818 0.19215 0.0
C3562 C 0.79567 0.38714 0.1738 0.0
C3563 C 0.79995 0.37217 0.18379 0.0
C3564 C 0.81769 0.38083 0.19651 0.0
C3565 C 0.8293 0.40374 0.2006 0.0
C3566 C 0.78392 0.34761 0.18339 0.0
C3567 C 0.79223 0.33273 0.18157 0.0
C3568 C 0.76074 0.33883 0.18695 0.0
C3569 C 0.75091 0.35343 0.1903 0.0
C3570 C 0.75806 0.36835 0.20527 0.0
C3571 C 0.74901 0.38235 0.20813 0.0
C3572 C 0.73257 0.38135 0.19627 0.0
C3573 C 0.7251 0.3663 0.18154 0.0
C3574 C 0.73417 0.35233 0.17857 0.0
C3575 C 0.71442 0.25077 0.21617 0.0
C3576 C 0.71118 0.23256 0.2052 0.0
C3577 C 0.72876 0.27274 0.21054 0.0
C3578 C 0.74015 0.27718 0.19374 0.0
C3579 C 0.73702 0.2591 0.18265 0.0
C3580 C 0.72275 0.23693 0.1884 0.0
C3581 C 0.75526 0.3009 0.18827 0.0
C3582 C 0.74669 0.31563 0.18887 0.0
C3583 C 0.77828 0.30952 0.18427 0.0
C3584 C 0.78861 0.29509 0.18415 0.0
C3585 C 0.79916 0.29338 0.16821 0.0
C3586 C 0.80891 0.27975 0.16804 0.0
C3587 C 0.80833 0.26787 0.18379 0.0
C3588 C 0.79808 0.26966 0.19976 0.0
C3589 C 0.78833 0.28329 0.20001 0.0
H3590 H 0.81587 0.25732 0.18362 0.0
H3591 H 0.72555 0.39217 0.19852 0.0
H3592 H 0.77342 0.50356 0.18252 0.0
H3593 H 0.73491 0.4901 0.17185 0.0
H3594 H 0.71502 0.42405 0.19284 0.0
H3595 H 0.75313 0.43704 0.20305 0.0
H3596 H 0.69356 0.4206 0.16173 0.0
H3597 H 0.71015 0.46404 0.21861 0.0
H3598 H 0.73086 0.49852 0.23701 0.0
H3599 H 0.71171 0.53405 0.19933 0.0
H3600 H 0.69109 0.49974 0.18056 0.0
H3601 H 0.59049 0.36745 0.20594 0.0
H3602 H 0.62867 0.38676 0.19421 0.0
H3603 H 0.61864 0.43949 0.17252 0.0
H3604 H 0.58019 0.42029 0.18448 0.0
H3605 H 0.65529 0.45593 0.19361 0.0
H3606 H 0.62871 0.40642 0.14249 0.0
H3607 H 0.60767 0.37044 0.12595 0.0
H3608 H 0.64443 0.34454 0.15459 0.0
H3609 H 0.66574 0.38032 0.17129 0.0
C3610 C 0.7609 0.48609 0.18459 0.0
C3611 C 0.76628 0.4715 0.19396 0.0
C3612 C 0.73891 0.47844 0.17849 0.0
C3613 C 0.72203 0.45614 0.18177 0.0
C3614 C 0.72774 0.44131 0.19013 0.0
C3615 C 0.74957 0.44887 0.19615 0.0
C3616 C 0.69797 0.44839 0.17838 0.0
C3617 C 0.68514 0.42837 0.16856 0.0
C3618 C 0.68708 0.45892 0.18681 0.0
C3619 C 0.69938 0.47948 0.19807 0.0
C3620 C 0.7105 0.47927 0.21419 0.0
C3621 C 0.72221 0.49877 0.22469 0.0
C3622 C 0.72268 0.51852 0.21931 0.0
C3623 C 0.71139 0.51877 0.20344 0.0
C3624 C 0.6997 0.4993 0.19287 0.0
C3625 C 0.59621 0.383 0.19848 0.0
C3626 C 0.58231 0.39243 0.19636 0.0
C3627 C 0.61803 0.39391 0.19156 0.0
C3628 C 0.62646 0.41445 0.18227 0.0
C3629 C 0.61241 0.42357 0.17953 0.0
C3630 C 0.59046 0.41259 0.18641 0.0
C3631 C 0.65071 0.42747 0.17774 0.0
C3632 C 0.66362 0.44853 0.18609 0.0
C3633 C 0.66161 0.41771 0.16816 0.0
C3634 C 0.6488 0.39608 0.15818 0.0
C3635 C 0.63223 0.39302 0.14534 0.0
C3636 C 0.62026 0.37266 0.13592 0.0
C3637 C 0.62463 0.3552 0.13928 0.0
C3638 C 0.64106 0.35808 0.152 0.0
C3639 C 0.65316 0.37844 0.16138 0.0
H3640 H 0.61532 0.33945 0.13199 0.0
H3641 H 0.73174 0.53363 0.22745 0.0
H3642 H 0.6431 0.2194 0.9343 0.0
H3643 H 0.61686 0.23314 0.93862 0.0
H3644 H 0.56337 0.16565 0.94916 0.0
H3645 H 0.5898 0.15166 0.94513 0.0
H3646 H 0.55395 0.19125 0.92189 0.0
H3647 H 0.5787 0.19644 0.98366 0.0
H3648 H 0.60674 0.20604 0.00814 0.0
H3649 H 0.63697 0.27592 0.99425 0.0
H3650 H 0.60931 0.26668 0.96942 0.0
H3651 H 0.50461 0.26255 0.96335 0.0
H3652 H 0.52081 0.23818 0.96771 0.0
H3653 H 0.55376 0.25897 0.91516 0.0
H3654 H 0.53778 0.28324 0.91064 0.0
H3655 H 0.56591 0.24902 0.9684 0.0
H3656 H 0.55083 0.2136 0.89427 0.0
H3657 H 0.52343 0.20471 0.8693 0.0
H3658 H 0.47259 0.19412 0.90868 0.0
H3659 H 0.49956 0.20257 0.93391 0.0
C3660 C 0.62579 0.20745 0.93764 0.0
C3661 C 0.61847 0.18443 0.93933 0.0
C3662 C 0.61085 0.21535 0.94017 0.0
C3663 C 0.58824 0.20041 0.94425 0.0
C3664 C 0.5808 0.17741 0.94605 0.0
C3665 C 0.5959 0.16949 0.94384 0.0
C3666 C 0.57253 0.20912 0.94591 0.0
C3667 C 0.5563 0.20364 0.93219 0.0
C3668 C 0.57552 0.22509 0.95949 0.0
C3669 C 0.59198 0.23083 0.97461 0.0
C3670 C 0.59141 0.21384 0.98574 0.0
C3671 C 0.60724 0.21923 -0.0003 0.0
C3672 C 0.62366 0.24159 0.00275 0.0
C3673 C 0.62423 0.25861 0.99187 0.0
C3674 C 0.60846 0.2533 0.97787 0.0
C3675 C 0.51532 0.26195 0.95273 0.0
C3676 C 0.51985 0.27485 0.93663 0.0
C3677 C 0.52457 0.24805 0.95527 0.0
C3678 C 0.53822 0.24659 0.94165 0.0
C3679 C 0.54299 0.25963 0.92571 0.0
C3680 C 0.53393 0.27361 0.92322 0.0
C3681 C 0.54788 0.23173 0.944 0.0
C3682 C 0.5631 0.23619 0.95838 0.0
C3683 C 0.54388 0.21476 0.93106 0.0
C3684 C 0.5273 0.20885 0.91599 0.0
C3685 C 0.53376 0.20919 0.89762 0.0
C3686 C 0.51831 0.20427 0.88342 0.0
C3687 C 0.4963 0.19891 0.8874 0.0
C3688 C 0.48966 0.19833 0.90561 0.0
C3689 C 0.50503 0.2032 0.91987 0.0
H3690 H 0.48439 0.19518 0.87638 0.0
H3691 H 0.63593 0.24574 0.01354 0.0
H3692 H 0.70414 0.25449 0.93872 0.0
H3693 H 0.72979 0.29463 0.94192 0.0
H3694 H 0.7767 0.2817 0.97107 0.0
H3695 H 0.75118 0.24117 0.96774 0.0
H3696 H 0.77141 0.32362 0.98183 0.0
H3697 H 0.78634 0.28574 0.93266 0.0
H3698 H 0.77413 0.25879 0.90703 0.0
H3699 H 0.75212 0.29814 0.87721 0.0
H3700 H 0.76304 0.32468 0.90308 0.0
H3701 H 0.85303 0.43664 0.95497 0.0
H3702 H 0.83697 0.39663 0.96212 0.0
H3703 H 0.78499 0.38016 0.92187 0.0
H3704 H 0.80093 0.4196 0.91445 0.0
H3705 H 0.80042 0.35201 0.91929 0.0
H3706 H 0.77628 0.38327 0.96821 0.0
H3707 H 0.78253 0.40898 0.99403 0.0
H3708 H 0.81875 0.38271 0.02308 0.0
H3709 H 0.81293 0.35703 -0.0027 0.0
C3710 C 0.71964 0.26005 0.94622 0.0
C3711 C 0.72588 0.24461 0.95255 0.0
C3712 C 0.73421 0.28303 0.94813 0.0
C3713 C 0.7552 0.29099 0.95645 0.0
C3714 C 0.76053 0.27576 0.96458 0.0
C3715 C 0.74595 0.25263 0.96258 0.0
C3716 C 0.77255 0.31469 0.95371 0.0
C3717 C 0.77826 0.32987 0.96829 0.0
C3718 C 0.78109 0.32265 0.93591 0.0
C3719 C 0.77529 0.30712 0.91999 0.0
C3720 C 0.77852 0.28846 0.9208 0.0
C3721 C 0.77176 0.2732 0.90623 0.0
C3722 C 0.76233 0.27673 0.89051 0.0
C3723 C 0.75946 0.29543 0.88939 0.0
C3724 C 0.76583 0.31054 0.90406 0.0
C3725 C 0.83826 0.42446 0.94757 0.0
C3726 C 0.82825 0.43141 0.93418 0.0
C3727 C 0.82908 0.40162 0.95171 0.0
C3728 C 0.8097 0.38542 0.9426 0.0
C3729 C 0.80001 0.39233 0.92902 0.0
C3730 C 0.80914 0.41499 0.92486 0.0
C3731 C 0.79878 0.36122 0.94729 0.0
C3732 C 0.79422 0.34583 0.93299 0.0
C3733 C 0.79103 0.35313 0.96525 0.0
C3734 C 0.79443 0.36846 0.98075 0.0
C3735 C 0.78572 0.38311 0.98005 0.0
C3736 C 0.78916 0.39765 0.99468 0.0
C3737 C 0.8011 0.39754 0.01016 0.0
C3738 C 0.80956 0.38282 0.01106 0.0
C3739 C 0.80619 0.36827 0.99645 0.0
H3740 H 0.80375 0.40881 0.02147 0.0
H3741 H 0.75733 0.26503 0.87917 0.0
H3742 H 0.76525 0.49911 0.95478 0.0
H3743 H 0.72429 0.48083 0.95739 0.0
H3744 H 0.71715 0.43141 0.91741 0.0
H3745 H 0.75775 0.4494 0.91465 0.0
H3746 H 0.6915 0.45032 0.90916 0.0
H3747 H 0.70747 0.41801 0.9621 0.0
H3748 H 0.72559 0.41949 0.99168 0.0
H3749 H 0.69504 0.45459 0.01602 0.0
H3750 H 0.67697 0.45359 0.98649 0.0
H3751 H 0.58129 0.36251 0.91286 0.0
H3752 H 0.62182 0.38528 0.91597 0.0
H3753 H 0.61386 0.4269 0.9561 0.0
H3754 H 0.57293 0.40392 0.95326 0.0
H3755 H 0.64698 0.41706 0.9658 0.0
H3756 H 0.62812 0.44629 0.91378 0.0
H3757 H 0.60959 0.4445 0.88436 0.0
H3758 H 0.64568 0.41606 0.85827 0.0
H3759 H 0.66418 0.41733 0.88762 0.0
C3760 C 0.75497 0.48421 0.94669 0.0
C3761 C 0.76487 0.47584 0.93442 0.0
C3762 C 0.73157 0.47379 0.94822 0.0
C3763 C 0.71771 0.45481 0.93754 0.0
C3764 C 0.72755 0.44612 0.92568 0.0
C3765 C 0.75082 0.45644 0.92417 0.0
C3766 C 0.69292 0.44432 0.93801 0.0
C3767 C 0.68176 0.44292 0.92152 0.0
C3768 C 0.68029 0.43541 0.95428 0.0
C3769 C 0.6911 0.43597 0.97203 0.0
C3770 C 0.70478 0.42623 0.97371 0.0
C3771 C 0.715 0.42694 0.99048 0.0
C3772 C 0.71153 0.4372 0.0057 0.0
C3773 C 0.69775 0.4467 0.00421 0.0
C3774 C 0.68751 0.44605 0.98746 0.0
C3775 C 0.58802 0.37645 0.92241 0.0
C3776 C 0.57375 0.38148 0.93269 0.0
C3777 C 0.61126 0.3895 0.92413 0.0
C3778 C 0.62084 0.408 0.93604 0.0
C3779 C 0.60676 0.41274 0.94677 0.0
C3780 C 0.58339 0.39963 0.94508 0.0
C3781 C 0.6456 0.42246 0.93681 0.0
C3782 C 0.65674 0.42472 0.9535 0.0
C3783 C 0.65829 0.43229 0.92072 0.0
C3784 C 0.64744 0.43178 0.90295 0.0
C3785 C 0.63201 0.43952 0.9018 0.0
C3786 C 0.62152 0.43861 0.88513 0.0
C3787 C 0.62643 0.43014 0.86946 0.0
C3788 C 0.64189 0.42261 0.87043 0.0
C3789 C 0.65241 0.42345 0.88707 0.0
H3790 H 0.61827 0.42943 0.85657 0.0
H3791 H 0.71945 0.43773 0.01867 0.0
H3792 H 0.48164 0.71922 0.74396 0.0
H3793 H 0.46417 0.74184 0.7508 0.0
H3794 H 0.48255 0.74503 0.80775 0.0
H3795 H 0.5008 0.72284 0.80089 0.0
H3796 H 0.43247 0.72816 0.79648 0.0
H3797 H 0.50852 0.79048 0.79258 0.0
H3798 H 0.54588 0.8132 0.77847 0.0
H3799 H 0.51543 0.821 0.72968 0.0
H3800 H 0.47786 0.79828 0.7435 0.0
H3801 H 0.41819 0.83544 0.79473 0.0
H3802 H 0.44031 0.81702 0.79991 0.0
H3803 H 0.39174 0.75921 0.76945 0.0
H3804 H 0.3694 0.77724 0.76444 0.0
H3805 H 0.46008 0.80567 0.77381 0.0
H3806 H 0.39209 0.71224 0.7837 0.0
H3807 H 0.35456 0.68972 0.79753 0.0
H3808 H 0.36829 0.7436 0.83466 0.0
H3809 H 0.40605 0.76635 0.82126 0.0
C3810 C 0.48219 0.72492 0.75792 0.0
C3811 C 0.49254 0.71925 0.77191 0.0
C3812 C 0.47226 0.73786 0.76178 0.0
C3813 C 0.4721 0.74501 0.77975 0.0
C3814 C 0.4826 0.73965 0.79378 0.0
C3815 C 0.49305 0.72709 0.78984 0.0
C3816 C 0.45987 0.75712 0.78374 0.0
C3817 C 0.43852 0.7452 0.79176 0.0
C3818 C 0.4679 0.77928 0.77753 0.0
C3819 C 0.4904 0.7926 0.76904 0.0
C3820 C 0.50979 0.79691 0.7788 0.0
C3821 C 0.531 0.80988 0.77089 0.0
C3822 C 0.53302 0.81858 0.75321 0.0
C3823 C 0.51383 0.8143 0.74339 0.0
C3824 C 0.49259 0.80144 0.75128 0.0
C3825 C 0.41201 0.81866 0.78939 0.0
C3826 C 0.3921 0.80794 0.77902 0.0
C3827 C 0.4247 0.80817 0.79234 0.0
C3828 C 0.41764 0.7867 0.78515 0.0
C3829 C 0.39738 0.77564 0.77536 0.0
C3830 C 0.38471 0.7861 0.77238 0.0
C3831 C 0.43235 0.77667 0.78639 0.0
C3832 C 0.45409 0.78883 0.77902 0.0
C3833 C 0.42456 0.75465 0.79313 0.0
C3834 C 0.4019 0.74106 0.80139 0.0
C3835 C 0.38718 0.71925 0.79489 0.0
C3836 C 0.36586 0.70643 0.80266 0.0
C3837 C 0.35907 0.71521 0.81698 0.0
C3838 C 0.37358 0.73683 0.82356 0.0
C3839 C 0.39494 0.74971 0.81586 0.0
H3840 H 0.34253 0.70528 0.82293 0.0
H3841 H 0.54946 0.82859 0.7471 0.0
H3842 H 0.22212 0.5731 0.78666 0.0
H3843 H 0.24148 0.61329 0.79383 0.0
H3844 H 0.18769 0.61853 0.76797 0.0
H3845 H 0.16759 0.57805 0.76236 0.0
H3846 H 0.25978 0.64672 0.77508 0.0
H3847 H 0.18309 0.66155 0.78082 0.0
H3848 H 0.14467 0.64208 0.79345 0.0
H3849 H 0.16289 0.60523 0.83047 0.0
H3850 H 0.2015 0.62468 0.81824 0.0
H3851 H 0.29001 0.75249 0.74556 0.0
H3852 H 0.26931 0.71237 0.75157 0.0
H3853 H 0.25884 0.72496 0.80771 0.0
H3854 H 0.27943 0.76559 0.80167 0.0
H3855 H 0.22197 0.68889 0.79414 0.0
H3856 H 0.29844 0.71283 0.79874 0.0
H3857 H 0.33854 0.73307 0.7904 0.0
H3858 H 0.32418 0.69229 0.74216 0.0
H3859 H 0.28386 0.67235 0.74978 0.0
C3860 C 0.21438 0.58292 0.78285 0.0
C3861 C 0.19342 0.57272 0.7741 0.0
C3862 C 0.22542 0.60586 0.78687 0.0
C3863 C 0.21599 0.6191 0.78173 0.0
C3864 C 0.19506 0.60874 0.77274 0.0
C3865 C 0.18366 0.58566 0.76932 0.0
C3866 C 0.22871 0.6439 0.7845 0.0
C3867 C 0.25148 0.65582 0.77945 0.0
C3868 C 0.2183 0.65601 0.79087 0.0
C3869 C 0.19518 0.64451 0.79853 0.0
C3870 C 0.17896 0.64941 0.79174 0.0
C3871 C 0.15713 0.63834 0.79881 0.0
C3872 C 0.15134 0.6224 0.81273 0.0
C3873 C 0.16738 0.61754 0.81965 0.0
C3874 C 0.18924 0.62856 0.81264 0.0
C3875 C 0.28323 0.74681 0.75919 0.0
C3876 C 0.28663 0.76224 0.77322 0.0
C3877 C 0.27142 0.72384 0.76261 0.0
C3878 C 0.26302 0.71572 0.7802 0.0
C3879 C 0.26537 0.73094 0.79407 0.0
C3880 C 0.2771 0.7541 0.7906 0.0
C3881 C 0.25244 0.69132 0.78386 0.0
C3882 C 0.23021 0.67959 0.79014 0.0
C3883 C 0.26364 0.67936 0.77945 0.0
C3884 C 0.288 0.69114 0.77481 0.0
C3885 C 0.30377 0.70828 0.78626 0.0
C3886 C 0.32656 0.71973 0.78165 0.0
C3887 C 0.33391 0.71393 0.76579 0.0
C3888 C 0.31846 0.69675 0.75445 0.0
C3889 C 0.29561 0.68539 0.75889 0.0
H3890 H 0.35158 0.72275 0.7623 0.0
H3891 H 0.13442 0.61382 0.81816 0.0
H3892 H 0.42259 0.62976 0.75534 0.0
H3893 H 0.38266 0.60864 0.76202 0.0
H3894 H 0.39428 0.57084 0.80349 0.0
H3895 H 0.43458 0.59179 0.7967 0.0
H3896 H 0.35941 0.5438 0.78142 0.0
H3897 H 0.38066 0.61003 0.81622 0.0
H3898 H 0.39926 0.65073 0.82223 0.0
H3899 H 0.35953 0.65796 0.78024 0.0
H3900 H 0.34089 0.61735 0.77379 0.0
H3901 H 0.23973 0.49414 0.79748 0.0
H3902 H 0.28024 0.51325 0.80391 0.0
H3903 H 0.29193 0.56154 0.76138 0.0
H3904 H 0.25204 0.54293 0.75496 0.0
H3905 H 0.3152 0.58175 0.79238 0.0
H3906 H 0.30064 0.5182 0.75352 0.0
H3907 H 0.28258 0.47787 0.74605 0.0
H3908 H 0.31008 0.46624 0.79498 0.0
H3909 H 0.32807 0.5065 0.80286 0.0
C3910 C 0.41681 0.61711 0.76601 0.0
C3911 C 0.43191 0.61258 0.77554 0.0
C3912 C 0.39391 0.6051 0.76987 0.0
C3913 C 0.38553 0.58843 0.78348 0.0
C3914 C 0.40045 0.58376 0.79303 0.0
C3915 C 0.42347 0.59579 0.78915 0.0
C3916 C 0.36101 0.57537 0.78695 0.0
C3917 C 0.34977 0.55201 0.7843 0.0
C3918 C 0.34842 0.58613 0.79051 0.0
C3919 C 0.35943 0.6106 0.79447 0.0
C3920 C 0.37596 0.6203 0.80819 0.0
C3921 C 0.3865 0.64336 0.81169 0.0
C3922 C 0.38059 0.65692 0.80161 0.0
C3923 C 0.36408 0.64743 0.78805 0.0
C3924 C 0.35349 0.62438 0.78449 0.0
C3925 C 0.25096 0.50884 0.78954 0.0
C3926 C 0.24258 0.51688 0.77564 0.0
C3927 C 0.27407 0.51972 0.79322 0.0
C3928 C 0.28906 0.53881 0.78311 0.0
C3929 C 0.28066 0.54692 0.76942 0.0
C3930 C 0.25778 0.53609 0.76569 0.0
C3931 C 0.31366 0.55039 0.78615 0.0
C3932 C 0.3249 0.57348 0.79004 0.0
C3933 C 0.32623 0.53942 0.78363 0.0
C3934 C 0.31542 0.51527 0.77891 0.0
C3935 C 0.30265 0.507 0.76277 0.0
C3936 C 0.29247 0.48417 0.75844 0.0
C3937 C 0.29511 0.46949 0.77007 0.0
C3938 C 0.308 0.47762 0.78602 0.0
C3939 C 0.31819 0.50044 0.79042 0.0
H3940 H 0.28722 0.45182 0.76669 0.0
H3941 H 0.38879 0.67478 0.80433 0.0
H3942 H 0.39664 0.83735 0.0188 0.0
H3943 H 0.42099 0.82224 0.00971 0.0
H3944 H 0.40926 0.789 0.06212 0.0
H3945 H 0.38519 0.80384 0.07121 0.0
H3946 H 0.4529 0.8083 0.05226 0.0
H3947 H 0.37935 0.76021 0.02618 0.0
H3948 H 0.34655 0.75201 0.00703 0.0
H3949 H 0.38861 0.77501 0.95917 0.0
H3950 H 0.42174 0.78362 0.97813 0.0
H3951 H 0.44146 0.69742 0.03143 0.0
H3952 H 0.42704 0.7229 0.02604 0.0
H3953 H 0.49454 0.77773 0.01809 0.0
H3954 H 0.50919 0.7523 0.02355 0.0
H3955 H 0.42825 0.75344 0.00102 0.0
H3956 H 0.49886 0.82052 0.04587 0.0
H3957 H 0.52658 0.82355 0.06893 0.0
H3958 H 0.48301 0.75494 0.0848 0.0
H3959 H 0.45495 0.75163 0.06206 0.0
C3960 C 0.39951 0.82703 0.02842 0.0
C3961 C 0.38885 0.82162 0.04565 0.0
C3962 C 0.41335 0.81839 0.0232 0.0
C3963 C 0.41685 0.80446 0.03524 0.0
C3964 C 0.40686 0.79978 0.05265 0.0
C3965 C 0.39295 0.80815 0.05777 0.0
C3966 C 0.42983 0.79353 0.0297 0.0
C3967 C 0.44786 0.79669 0.04079 0.0
C3968 C 0.4229 0.77802 0.015 0.0
C3969 C 0.40305 0.77286 0.00359 0.0
C3970 C 0.38163 0.76371 0.0116 0.0
C3971 C 0.36298 0.75895 0.00078 0.0
C3972 C 0.36551 0.76308 0.9819 0.0
C3973 C 0.38669 0.77189 0.9738 0.0
C3974 C 0.40541 0.77672 0.98457 0.0
C3975 C 0.45323 0.71477 0.02803 0.0
C3976 C 0.4765 0.72294 0.02828 0.0
C3977 C 0.44493 0.72929 0.02482 0.0
C3978 C 0.45975 0.75225 0.02196 0.0
C3979 C 0.48285 0.76007 0.02043 0.0
C3980 C 0.49119 0.7455 0.02352 0.0
C3981 C 0.45122 0.76814 0.02366 0.0
C3982 C 0.43396 0.7658 0.01195 0.0
C3983 C 0.45829 0.78385 0.03824 0.0
C3984 C 0.47501 0.78575 0.05206 0.0
C3985 C 0.49522 0.80611 0.0543 0.0
C3986 C 0.51098 0.80787 0.06733 0.0
C3987 C 0.50662 0.78941 0.07826 0.0
C3988 C 0.48644 0.76919 0.07626 0.0
C3989 C 0.47062 0.76736 0.0633 0.0
H3990 H 0.51884 0.79079 0.08831 0.0
H3991 H 0.35104 0.75937 0.97355 0.0
H3992 H 0.30508 0.74968 0.05157 0.0
H3993 H 0.28299 0.70987 0.04444 0.0
H3994 H 0.22971 0.71945 0.02343 0.0
H3995 H 0.2517 0.75954 0.0308 0.0
H3996 H 0.21431 0.68573 0.04783 0.0
H3997 H 0.25976 0.70545 0.99436 0.0
H3998 H 0.29479 0.72379 0.97633 0.0
H3999 H 0.31916 0.68584 0.00526 0.0
H4000 H 0.28444 0.66751 0.02368 0.0
H4001 H 0.15723 0.56599 0.03443 0.0
H4002 H 0.17375 0.60602 0.02703 0.0
H4003 H 0.23761 0.61853 0.04809 0.0
H4004 H 0.22146 0.57891 0.05538 0.0
H4005 H 0.24286 0.64095 0.01643 0.0
H4006 H 0.20331 0.62962 0.07427 0.0
H4007 H 0.17075 0.61406 0.09519 0.0
H4008 H 0.13706 0.63739 0.05942 0.0
H4009 H 0.16947 0.65308 0.03827 0.0
C4010 C 0.28879 0.74346 0.04522 0.0
C4011 C 0.28012 0.75783 0.04188 0.0
C4012 C 0.27623 0.72067 0.041 0.0
C4013 C 0.25478 0.7117 0.03322 0.0
C4014 C 0.24628 0.72606 0.02934 0.0
C4015 C 0.2589 0.74897 0.03353 0.0
C4016 C 0.24063 0.68704 0.0309 0.0
C4017 C 0.22022 0.67594 0.04049 0.0
C4018 C 0.24858 0.67428 0.02162 0.0
C4019 C 0.26946 0.68512 0.01045 0.0
C4020 C 0.27263 0.7011 0.99696 0.0
C4021 C 0.29243 0.71148 0.98666 0.0
C4022 C 0.30916 0.70596 0.98963 0.0
C4023 C 0.30615 0.69006 0.00294 0.0
C4024 C 0.28639 0.67963 0.01329 0.0
C4025 C 0.17483 0.57726 0.03733 0.0
C4026 C 0.18797 0.56924 0.04562 0.0
C4027 C 0.18422 0.60012 0.03315 0.0
C4028 C 0.20689 0.61527 0.0371 0.0
C4029 C 0.22011 0.60716 0.04488 0.0
C4030 C 0.21077 0.58446 0.04915 0.0
C4031 C 0.217 0.63975 0.03388 0.0
C4032 C 0.23663 0.65078 0.02325 0.0
C4033 C 0.20847 0.65249 0.04232 0.0
C4034 C 0.18863 0.64221 0.05458 0.0
C4035 C 0.18883 0.63117 0.07076 0.0
C4036 C 0.17046 0.62242 0.08269 0.0
C4037 C 0.15182 0.62467 0.0786 0.0
C4038 C 0.15149 0.63562 0.06255 0.0
C4039 C 0.16986 0.64446 0.0506 0.0
H4040 H 0.13768 0.61806 0.08792 0.0
H4041 H 0.32446 0.71398 0.98162 0.0
H4042 H 0.23923 0.48066 0.03929 0.0
H4043 H 0.279 0.49581 0.03143 0.0
H4044 H 0.29077 0.56314 0.03851 0.0
H4045 H 0.25135 0.54819 0.04674 0.0
H4046 H 0.30979 0.55597 0.00561 0.0
H4047 H 0.30492 0.54282 0.07151 0.0
H4048 H 0.29309 0.52083 0.10019 0.0
H4049 H 0.31813 0.47874 0.08018 0.0
H4050 H 0.32989 0.50035 0.05127 0.0
H4051 H 0.41689 0.63639 0.03189 0.0
H4052 H 0.37793 0.609 0.02555 0.0
H4053 H 0.39415 0.55591 0.0257 0.0
H4054 H 0.43359 0.58357 0.03231 0.0
H4055 H 0.36056 0.54711 0.04882 0.0
H4056 H 0.37422 0.56739 0.98638 0.0
H4057 H 0.38923 0.5924 0.95952 0.0
H4058 H 0.34909 0.62219 0.97307 0.0
H4059 H 0.33409 0.59764 0.00017 0.0
C4060 C 0.2503 0.49869 0.03902 0.0
C4061 C 0.24224 0.51327 0.04363 0.0
C4062 C 0.27296 0.50728 0.03459 0.0
C4063 C 0.28773 0.53057 0.03438 0.0
C4064 C 0.27958 0.54512 0.03854 0.0
C4065 C 0.2571 0.53656 0.04332 0.0
C4066 C 0.3119 0.54008 0.03037 0.0
C4067 C 0.32096 0.55402 0.01497 0.0
C4068 C 0.32626 0.53678 0.04225 0.0
C4069 C 0.31796 0.52297 0.05912 0.0
C4070 C 0.30758 0.52865 0.0731 0.0
C4071 C 0.30104 0.51637 0.08945 0.0
C4072 C 0.30495 0.49847 0.09203 0.0
C4073 C 0.31518 0.49265 0.07818 0.0
C4074 C 0.32176 0.50489 0.06181 0.0
C4075 C 0.41231 0.61895 0.03018 0.0
C4076 C 0.42824 0.61208 0.03275 0.0
C4077 C 0.39002 0.60329 0.02638 0.0
C4078 C 0.38309 0.58038 0.02499 0.0
C4079 C 0.39917 0.57354 0.0266 0.0
C4080 C 0.42168 0.58933 0.0303 0.0
C4081 C 0.3587 0.56381 0.02441 0.0
C4082 C 0.34947 0.54849 0.03898 0.0
C4083 C 0.34421 0.56587 0.01176 0.0
C4084 C 0.35305 0.58065 0.99537 0.0
C4085 C 0.36868 0.57936 0.9837 0.0
C4086 C 0.37718 0.59345 0.96842 0.0
C4087 C 0.37012 0.60888 0.9646 0.0
C4088 C 0.35452 0.61022 0.97603 0.0
C4089 C 0.34597 0.59617 0.99134 0.0
H4090 H 0.37673 0.61979 0.95276 0.0
H4091 H 0.3 0.48906 0.10474 0.0
H4092 H 0.25701 0.50083 0.52681 0.0
H4093 H 0.23263 0.51717 0.52263 0.0
H4094 H 0.25021 0.54616 0.5768 0.0
H4095 H 0.27454 0.53027 0.58104 0.0
H4096 H 0.20404 0.52432 0.5698 0.0
H4097 H 0.27519 0.5783 0.54194 0.0
H4098 H 0.3062 0.59002 0.51979 0.0
H4099 H 0.2596 0.57139 0.47503 0.0
H4100 H 0.22825 0.55927 0.49697 0.0
H4101 H 0.21064 0.63694 0.5591 0.0
H4102 H 0.22508 0.61142 0.55419 0.0
H4103 H 0.15775 0.55668 0.54521 0.0
H4104 H 0.14304 0.58237 0.55007 0.0
H4105 H 0.22292 0.58545 0.52489 0.0
H4106 H 0.15754 0.5096 0.5658 0.0
H4107 H 0.13094 0.49961 0.59162 0.0
H4108 H 0.17077 0.56577 0.61415 0.0
H4109 H 0.19764 0.57611 0.58852 0.0
C4110 C 0.25567 0.51071 0.5378 0.0
C4111 C 0.2678 0.51432 0.55422 0.0
C4112 C 0.24174 0.51998 0.5354 0.0
C4113 C 0.23958 0.53273 0.54946 0.0
C4114 C 0.25154 0.53621 0.56584 0.0
C4115 C 0.2656 0.52725 0.56816 0.0
C4116 C 0.22543 0.54318 0.54726 0.0
C4117 C 0.20784 0.53739 0.55974 0.0
C4118 C 0.23056 0.56031 0.53424 0.0
C4119 C 0.24936 0.56759 0.52107 0.0
C4120 C 0.27154 0.5765 0.52738 0.0
C4121 C 0.28918 0.58326 0.51486 0.0
C4122 C 0.28486 0.58137 0.49601 0.0
C4123 C 0.2629 0.57278 0.48964 0.0
C4124 C 0.2452 0.56597 0.5021 0.0
C4125 C 0.19887 0.61951 0.55596 0.0
C4126 C 0.1757 0.61164 0.55501 0.0
C4127 C 0.20717 0.60497 0.55305 0.0
C4128 C 0.1925 0.58218 0.54936 0.0
C4129 C 0.16934 0.57424 0.54807 0.0
C4130 C 0.16099 0.58892 0.55076 0.0
C4131 C 0.2018 0.56693 0.54772 0.0
C4132 C 0.21849 0.5718 0.53449 0.0
C4133 C 0.1961 0.54919 0.56028 0.0
C4134 C 0.1794 0.54369 0.57512 0.0
C4135 C 0.16052 0.52204 0.57622 0.0
C4136 C 0.14546 0.5163 0.59085 0.0
C4137 C 0.14924 0.53201 0.60456 0.0
C4138 C 0.16792 0.55361 0.60354 0.0
C4139 C 0.18299 0.55946 0.58891 0.0
H4140 H 0.13764 0.52748 0.61594 0.0
H4141 H 0.29854 0.58663 0.48634 0.0
H4142 H 0.49818 0.75856 0.54237 0.0
H4143 H 0.47927 0.71763 0.53894 0.0
H4144 H 0.42158 0.71123 0.5678 0.0
H4145 H 0.44017 0.7518 0.57136 0.0
H4146 H 0.43699 0.68477 0.58229 0.0
H4147 H 0.41955 0.70255 0.52238 0.0
H4148 H 0.42916 0.72145 0.49226 0.0
H4149 H 0.46747 0.68961 0.47883 0.0
H4150 H 0.45836 0.67077 0.509 0.0
H4151 H 0.35149 0.57484 0.57203 0.0
H4152 H 0.37422 0.61535 0.5687 0.0
H4153 H 0.42436 0.6077 0.53915 0.0
H4154 H 0.40138 0.56672 0.54217 0.0
H4155 H 0.41749 0.6411 0.5243 0.0
H4156 H 0.43329 0.62158 0.58309 0.0
H4157 H 0.42433 0.60284 0.61328 0.0
H4158 H 0.39045 0.63846 0.62903 0.0
H4159 H 0.39892 0.65718 0.59884 0.0
C4160 C 0.48136 0.74846 0.54778 0.0
C4161 C 0.47081 0.75848 0.55732 0.0
C4162 C 0.47058 0.72509 0.54578 0.0
C4163 C 0.44907 0.71144 0.55318 0.0
C4164 C 0.43825 0.72147 0.56211 0.0
C4165 C 0.44894 0.7447 0.56412 0.0
C4166 C 0.43818 0.68664 0.55277 0.0
C4167 C 0.43256 0.67522 0.5696 0.0
C4168 C 0.4332 0.67428 0.53622 0.0
C4169 C 0.43849 0.68545 0.51803 0.0
C4170 C 0.43018 0.69973 0.51307 0.0
C4171 C 0.43551 0.7104 0.49597 0.0
C4172 C 0.44898 0.70679 0.48366 0.0
C4173 C 0.45708 0.69243 0.48839 0.0
C4174 C 0.45182 0.68174 0.50548 0.0
C4175 C 0.36731 0.58165 0.56476 0.0
C4176 C 0.37476 0.5675 0.5576 0.0
C4177 C 0.38028 0.60486 0.56286 0.0
C4178 C 0.40116 0.61454 0.554 0.0
C4179 C 0.40833 0.60053 0.54613 0.0
C4180 C 0.39521 0.57716 0.54792 0.0
C4181 C 0.4157 0.6393 0.55383 0.0
C4182 C 0.42212 0.65069 0.53697 0.0
C4183 C 0.42159 0.65175 0.57037 0.0
C4184 C 0.41662 0.64067 0.58864 0.0
C4185 C 0.4238 0.62531 0.59295 0.0
C4186 C 0.41883 0.6147 0.61007 0.0
C4187 C 0.4068 0.61943 0.62305 0.0
C4188 C 0.39976 0.63481 0.61896 0.0
C4189 C 0.40467 0.64545 0.60185 0.0
H4190 H 0.40297 0.6112 0.6363 0.0
H4191 H 0.45311 0.71505 0.47044 0.0
H4192 H 0.4134 0.79286 0.57568 0.0
H4193 H 0.37413 0.77496 0.56724 0.0
H4194 H 0.38989 0.82314 0.52377 0.0
H4195 H 0.42987 0.84156 0.53219 0.0
H4196 H 0.35152 0.81437 0.5454 0.0
H4197 H 0.37749 0.77332 0.51091 0.0
H4198 H 0.39883 0.75377 0.50555 0.0
H4199 H 0.35931 0.70458 0.54626 0.0
H4200 H 0.33794 0.724 0.55207 0.0
H4201 H 0.23312 0.74076 0.52894 0.0
H4202 H 0.27342 0.76333 0.52244 0.0
H4203 H 0.28687 0.7266 0.5637 0.0
H4204 H 0.24697 0.7039 0.57008 0.0
H4205 H 0.31136 0.73235 0.53328 0.0
H4206 H 0.29328 0.77915 0.57264 0.0
H4207 H 0.27363 0.80001 0.57995 0.0
H4208 H 0.29878 0.83832 0.53037 0.0
H4209 H 0.31858 0.8177 0.52276 0.0
C4210 C 0.40873 0.79984 0.56431 0.0
C4211 C 0.42494 0.81866 0.55455 0.0
C4212 C 0.38618 0.78945 0.55946 0.0
C4213 C 0.37917 0.79748 0.5447 0.0
C4214 C 0.39506 0.81661 0.53514 0.0
C4215 C 0.41785 0.82708 0.53996 0.0
C4216 C 0.35507 0.78556 0.53972 0.0
C4217 C 0.34274 0.79657 0.54221 0.0
C4218 C 0.34369 0.76231 0.5357 0.0
C4219 C 0.35612 0.75018 0.53195 0.0
C4220 C 0.3734 0.75838 0.51878 0.0
C4221 C 0.3855 0.74732 0.51566 0.0
C4222 C 0.38044 0.72796 0.52557 0.0
C4223 C 0.3632 0.71957 0.53857 0.0
C4224 C 0.35104 0.73057 0.54176 0.0
C4225 C 0.24465 0.73737 0.53652 0.0
C4226 C 0.23674 0.7205 0.55007 0.0
C4227 C 0.26768 0.75035 0.53282 0.0
C4228 C 0.28316 0.74673 0.54265 0.0
C4229 C 0.27524 0.72963 0.55587 0.0
C4230 C 0.25235 0.71669 0.55955 0.0
C4231 C 0.30773 0.76094 0.53981 0.0
C4232 C 0.32015 0.7503 0.53584 0.0
C4233 C 0.31916 0.78449 0.54248 0.0
C4234 C 0.30714 0.79672 0.54702 0.0
C4235 C 0.29446 0.79191 0.56324 0.0
C4236 C 0.28334 0.8037 0.56745 0.0
C4237 C 0.28484 0.82036 0.55559 0.0
C4238 C 0.29757 0.82536 0.53952 0.0
C4239 C 0.30878 0.81367 0.53527 0.0
H4240 H 0.27621 0.82946 0.55888 0.0
H4241 H 0.38987 0.71945 0.52316 0.0
H4242 H 0.24557 0.48056 0.29721 0.0
H4243 H 0.22031 0.49443 0.3068 0.0
H4244 H 0.26924 0.56106 0.28881 0.0
H4245 H 0.29425 0.54759 0.27939 0.0
H4246 H 0.25066 0.5621 0.32149 0.0
H4247 H 0.22596 0.52654 0.26091 0.0
H4248 H 0.21114 0.49435 0.23962 0.0
H4249 H 0.15375 0.4574 0.27447 0.0
H4250 H 0.16832 0.48942 0.29599 0.0
H4251 H 0.21229 0.62798 0.28194 0.0
H4252 H 0.22695 0.60361 0.29063 0.0
H4253 H 0.16115 0.55311 0.30896 0.0
H4254 H 0.14614 0.57749 0.30014 0.0
H4255 H 0.18041 0.53607 0.28594 0.0
H4256 H 0.2016 0.57912 0.34061 0.0
H4257 H 0.21691 0.61351 0.35937 0.0
H4258 H 0.28174 0.63794 0.33472 0.0
H4259 H 0.26679 0.60383 0.31562 0.0
C4260 C 0.25095 0.49819 0.2955 0.0
C4261 C 0.27179 0.51291 0.28735 0.0
C4262 C 0.23653 0.50607 0.30095 0.0
C4263 C 0.24292 0.52878 0.29848 0.0
C4264 C 0.26401 0.54352 0.29095 0.0
C4265 C 0.27822 0.5357 0.28539 0.0
C4266 C 0.22752 0.53748 0.30241 0.0
C4267 C 0.23516 0.55631 0.31389 0.0
C4268 C 0.20697 0.52947 0.29294 0.0
C4269 C 0.19836 0.51019 0.28015 0.0
C4270 C 0.21028 0.51146 0.26409 0.0
C4271 C 0.2019 0.49328 0.25197 0.0
C4272 C 0.18156 0.47379 0.25574 0.0
C4273 C 0.16953 0.47248 0.2716 0.0
C4274 C 0.17782 0.49064 0.28375 0.0
C4275 C 0.20091 0.61181 0.28799 0.0
C4276 C 0.17801 0.60467 0.29028 0.0
C4277 C 0.20938 0.59794 0.2931 0.0
C4278 C 0.19519 0.57666 0.30066 0.0
C4279 C 0.17239 0.56955 0.30328 0.0
C4280 C 0.16388 0.58353 0.29826 0.0
C4281 C 0.20419 0.56143 0.30426 0.0
C4282 C 0.19535 0.54137 0.29421 0.0
C4283 C 0.22376 0.56844 0.31494 0.0
C4284 C 0.23303 0.58886 0.32666 0.0
C4285 C 0.2191 0.59185 0.33913 0.0
C4286 C 0.22773 0.6113 0.34983 0.0
C4287 C 0.25028 0.62789 0.34824 0.0
C4288 C 0.26428 0.62504 0.33597 0.0
C4289 C 0.25575 0.60562 0.32523 0.0
H4290 H 0.25692 0.64294 0.35652 0.0
H4291 H 0.17507 0.45974 0.24633 0.0
H4292 H 0.44094 0.75305 0.29267 0.0
H4293 H 0.42841 0.71388 0.29993 0.0
H4294 H 0.49614 0.72655 0.29359 0.0
H4295 H 0.50898 0.76619 0.28667 0.0
H4296 H 0.46215 0.69037 0.27167 0.0
H4297 H 0.47728 0.71363 0.33382 0.0
H4298 H 0.47717 0.73386 0.36172 0.0
H4299 H 0.40513 0.69607 0.36308 0.0
H4300 H 0.40477 0.67585 0.33502 0.0
H4301 H 0.40148 0.57039 0.30841 0.0
H4302 H 0.42703 0.61024 0.31507 0.0
H4303 H 0.38906 0.62827 0.27879 0.0
H4304 H 0.36338 0.58878 0.27218 0.0
H4305 H 0.41838 0.64851 0.32655 0.0
H4306 H 0.43049 0.6657 0.24865 0.0
H4307 H 0.42742 0.64457 0.2204 0.0
H4308 H 0.44419 0.60137 0.25063 0.0
H4309 H 0.44837 0.62284 0.27888 0.0
C4310 C 0.45323 0.74759 0.29309 0.0
C4311 C 0.47589 0.76256 0.28902 0.0
C4312 C 0.44608 0.72527 0.29735 0.0
C4313 C 0.46139 0.71743 0.29739 0.0
C4314 C 0.48415 0.73241 0.29375 0.0
C4315 C 0.49144 0.75497 0.28984 0.0
C4316 C 0.45279 0.69309 0.29937 0.0
C4317 C 0.45302 0.68121 0.28381 0.0
C4318 C 0.44095 0.68126 0.31526 0.0
C4319 C 0.44102 0.69325 0.33225 0.0
C4320 C 0.4614 0.70973 0.33999 0.0
C4321 C 0.46142 0.72119 0.35585 0.0
C4322 C 0.44116 0.71627 0.36416 0.0
C4323 C 0.42082 0.69985 0.35664 0.0
C4324 C 0.4207 0.68835 0.34077 0.0
C4325 C 0.39832 0.58282 0.30211 0.0
C4326 C 0.38054 0.5764 0.28957 0.0
C4327 C 0.41287 0.60552 0.30601 0.0
C4328 C 0.40997 0.62203 0.29723 0.0
C4329 C 0.39156 0.61566 0.28558 0.0
C4330 C 0.37691 0.59306 0.28183 0.0
C4331 C 0.42712 0.64599 0.29865 0.0
C4332 C 0.42826 0.65771 0.31471 0.0
C4333 C 0.44024 0.65772 0.28321 0.0
C4334 C 0.43952 0.64579 0.26596 0.0
C4335 C 0.43386 0.65191 0.24924 0.0
C4336 C 0.43194 0.63988 0.23321 0.0
C4337 C 0.43557 0.62162 0.23373 0.0
C4338 C 0.44141 0.61553 0.25024 0.0
C4339 C 0.44363 0.62768 0.26625 0.0
H4340 H 0.43389 0.61221 0.22134 0.0
H4341 H 0.44121 0.72516 0.37644 0.0
H4342 H 0.24091 0.69107 0.28516 0.0
H4343 H 0.27938 0.71604 0.29509 0.0
H4344 H 0.26351 0.76817 0.30628 0.0
H4345 H 0.22462 0.74308 0.29636 0.0
H4346 H 0.30251 0.78184 0.28429 0.0
H4347 H 0.27331 0.74529 0.34187 0.0
H4348 H 0.25145 0.71264 0.36202 0.0
H4349 H 0.29356 0.68558 0.3469 0.0
H4350 H 0.31554 0.71795 0.32651 0.0
H4351 H 0.41782 0.8442 0.30613 0.0
H4352 H 0.37779 0.82769 0.31338 0.0
H4353 H 0.36824 0.76142 0.30449 0.0
H4354 H 0.40799 0.77768 0.29743 0.0
H4355 H 0.34084 0.76098 0.33156 0.0
H4356 H 0.36189 0.78868 0.2695 0.0
H4357 H 0.38397 0.81809 0.2467 0.0
H4358 H 0.35695 0.85823 0.26731 0.0
H4359 H 0.33494 0.82914 0.29046 0.0
C4360 C 0.24549 0.70778 0.28985 0.0
C4361 C 0.22971 0.71512 0.28992 0.0
C4362 C 0.26747 0.72199 0.29564 0.0
C4363 C 0.27421 0.74386 0.30158 0.0
C4364 C 0.25854 0.75127 0.30184 0.0
C4365 C 0.23636 0.73692 0.29623 0.0
C4366 C 0.29806 0.75913 0.30637 0.0
C4367 C 0.31081 0.77775 0.29503 0.0
C4368 C 0.30891 0.75335 0.32004 0.0
C4369 C 0.29605 0.73406 0.33262 0.0
C4370 C 0.27787 0.73235 0.34279 0.0
C4371 C 0.26546 0.71389 0.35427 0.0
C4372 C 0.27111 0.69705 0.35574 0.0
C4373 C 0.28923 0.69866 0.34578 0.0
C4374 C 0.30171 0.7171 0.33429 0.0
C4375 C 0.4073 0.82609 0.30627 0.0
C4376 C 0.41594 0.81224 0.30091 0.0
C4377 C 0.38444 0.81669 0.31035 0.0
C4378 C 0.37001 0.79335 0.30918 0.0
C4379 C 0.37905 0.77946 0.30544 0.0
C4380 C 0.40177 0.7888 0.30128 0.0
C4381 C 0.34528 0.78339 0.30927 0.0
C4382 C 0.33241 0.76565 0.32137 0.0
C4383 C 0.33433 0.78964 0.29603 0.0
C4384 C 0.34702 0.8069 0.28186 0.0
C4385 C 0.36075 0.80384 0.26923 0.0
C4386 C 0.37325 0.82043 0.25626 0.0
C4387 C 0.37194 0.84005 0.25562 0.0
C4388 C 0.358 0.84305 0.26787 0.0
C4389 C 0.34551 0.82651 0.28093 0.0
H4390 H 0.38171 0.85289 0.2456 0.0
H4391 H 0.26146 0.68276 0.36461 0.0
H4392 H 0.96104 0.167 0.31767 0.0
H4393 H 0.96355 0.16484 0.28449 0.0
H4394 H 0.0355 0.19493 0.2884 0.0
H4395 H 0.03324 0.1976 0.32176 0.0
H4396 H 0.02414 0.21319 0.26109 0.0
H4397 H 0.002 0.13852 0.28048 0.0
H4398 H 0.97906 0.10293 0.29708 0.0
H4399 H 0.92075 0.09141 0.26669 0.0
H4400 H 0.94327 0.1271 0.25009 0.0
H4401 H 0.03587 0.18947 0.16837 0.0
H4402 H 0.03623 0.18874 0.20185 0.0
H4403 H 0.9647 0.16267 0.20282 0.0
H4404 H 0.96405 0.16315 0.16929 0.0
H4405 H 0.97799 0.1415 0.22772 0.0
H4406 H -0.00041 0.21727 0.21013 0.0
H4407 H 0.0223 0.25306 0.19373 0.0
H4408 H 0.08172 0.26232 0.22097 0.0
H4409 H 0.05938 0.2264 0.23735 0.0
C4410 C 0.97744 0.17316 0.31155 0.0
C4411 C 0.99695 0.18242 0.32243 0.0
C4412 C 0.97882 0.17179 0.29254 0.0
C4413 C -0.00034 0.17935 0.284 0.0
C4414 C 0.01923 0.18889 0.29475 0.0
C4415 C 0.0179 0.1904 0.3138 0.0
C4416 C 0.00095 0.17772 0.2638 0.0
C4417 C 0.01437 0.19744 0.25382 0.0
C4418 C 0.98785 0.15722 0.25431 0.0
C4419 C 0.9743 0.1356 0.26414 0.0
C4420 C 0.98425 0.12847 0.27742 0.0
C4421 C 0.97133 0.10826 0.28682 0.0
C4422 C 0.94845 0.09494 0.28297 0.0
C4423 C 0.93847 0.10176 0.26966 0.0
C4424 C 0.95131 0.12197 0.26024 0.0
C4425 C 0.02015 0.18344 0.17565 0.0
C4426 C -6e-05 0.17654 0.16609 0.0
C4427 C 0.02043 0.18309 0.1948 0.0
C4428 C 0.00054 0.17591 0.20478 0.0
C4429 C 0.98024 0.16832 0.19534 0.0
C4430 C 0.97993 0.1687 0.17617 0.0
C4431 C 0.00101 0.17699 0.22508 0.0
C4432 C 0.98791 0.15718 0.23505 0.0
C4433 C 0.01443 0.19738 0.23458 0.0
C4434 C 0.02786 0.21903 0.22481 0.0
C4435 C 0.01753 0.22685 0.21251 0.0
C4436 C 0.03033 0.24717 0.20324 0.0
C4437 C 0.05345 0.25993 0.20626 0.0
C4438 C 0.06381 0.25241 0.21861 0.0
C4439 C 0.05109 0.23207 0.2279 0.0
H4440 H 0.06333 0.27566 0.19908 0.0
H4441 H 0.93845 0.07932 0.29027 0.0
H4442 H 0.80064 0.83866 0.3232 0.0
H4443 H 0.80142 0.83956 0.28972 0.0
H4444 H 0.84364 0.80967 0.28944 0.0
H4445 H 0.84328 0.80898 0.32295 0.0
H4446 H 0.85774 0.84314 0.26454 0.0
H4447 H 0.78823 0.77787 0.28083 0.0
H4448 H 0.75185 0.75659 0.29673 0.0
H4449 H 0.72821 0.79665 0.2702 0.0
H4450 H 0.76458 0.81838 0.25433 0.0
H4451 H 0.83774 0.80504 0.17162 0.0
H4452 H 0.83999 0.8071 0.20511 0.0
H4453 H 0.80116 0.84064 0.20572 0.0
H4454 H 0.79876 0.83867 0.17226 0.0
H4455 H 0.7857 0.80541 0.23035 0.0
H4456 H 0.8556 0.87032 0.21366 0.0
H4457 H 0.89197 0.89091 0.19765 0.0
H4458 H 0.91479 0.85043 0.22463 0.0
H4459 H 0.8784 0.82937 0.24064 0.0
C4460 C 0.81016 0.83232 0.31606 0.0
C4461 C 0.82176 0.82358 0.32581 0.0
C4462 C 0.81053 0.8328 0.29691 0.0
C4463 C 0.82233 0.8244 0.28711 0.0
C4464 C 0.83439 0.8162 0.29675 0.0
C4465 C 0.83409 0.81575 0.31592 0.0
C4466 C 0.8217 0.82375 0.2668 0.0
C4467 C 0.84201 0.83466 0.25705 0.0
C4468 C 0.80114 0.81298 0.25706 0.0
C4469 C 0.77921 0.7999 0.26653 0.0
C4470 C 0.77534 0.78226 0.2785 0.0
C4471 C 0.75471 0.77009 0.28749 0.0
C4472 C 0.73775 0.77531 0.28452 0.0
C4473 C 0.74137 0.79265 0.27251 0.0
C4474 C 0.76198 0.80488 0.2635 0.0
C4475 C 0.82971 0.8129 0.17885 0.0
C4476 C 0.81804 0.82167 0.16924 0.0
C4477 C 0.83111 0.81415 0.19798 0.0
C4478 C 0.82084 0.82414 0.20783 0.0
C4479 C 0.8092 0.83289 0.19832 0.0
C4480 C 0.80792 0.8318 0.1792 0.0
C4481 C 0.82172 0.8249 0.22811 0.0
C4482 C 0.80143 0.81393 0.23784 0.0
C4483 C 0.84229 0.83549 0.2378 0.0
C4484 C 0.86419 0.84812 0.22822 0.0
C4485 C 0.8683 0.86567 0.21606 0.0
C4486 C 0.88893 0.87746 0.20701 0.0
C4487 C 0.90566 0.87196 0.2101 0.0
C4488 C 0.9018 0.85466 0.22225 0.0
C4489 C 0.88118 0.84281 0.23133 0.0
H4490 H 0.92163 0.88116 0.20313 0.0
H4491 H 0.72179 0.76587 0.29149 0.0
H4492 H 0.19661 0.04497 0.32154 0.0
H4493 H 0.19254 0.04137 0.2882 0.0
H4494 H 0.16155 0.96939 0.29291 0.0
H4495 H 0.1657 0.97275 0.32619 0.0
H4496 H 0.19327 0.98592 0.26633 0.0
H4497 H 0.12979 0.99266 0.28405 0.0
H4498 H 0.11041 0.01003 0.29965 0.0
H4499 H 0.14815 0.07014 0.26792 0.0
H4500 H 0.16799 0.05323 0.25229 0.0
H4501 H 0.15354 0.95844 0.17534 0.0
H4502 H 0.15337 0.96137 0.20875 0.0
H4503 H 0.1866 0.03354 0.20463 0.0
H4504 H 0.18675 0.03087 0.17121 0.0
H4505 H 0.15289 0.01652 0.2309 0.0
H4506 H 0.21695 0.00981 0.21384 0.0
H4507 H 0.23633 0.99231 0.19845 0.0
H4508 H 0.19715 0.93174 0.2293 0.0
H4509 H 0.1773 0.94878 0.2447 0.0
C4510 C 0.18894 0.02836 0.31552 0.0
C4511 C 0.18149 0.00916 0.32658 0.0
C4512 C 0.18652 0.02634 0.29646 0.0
C4513 C 0.17655 0.00509 0.28813 0.0
C4514 C 0.16927 0.98593 0.29909 0.0
C4515 C 0.17162 0.98792 0.31813 0.0
C4516 C 0.17408 0.00284 0.26795 0.0
C4517 C 0.18416 0.99231 0.25861 0.0
C4518 C 0.16258 0.0116 0.25789 0.0
C4519 C 0.15053 0.02175 0.26713 0.0
C4520 C 0.13408 0.00965 0.28049 0.0
C4521 C 0.12299 0.01939 0.28933 0.0
C4522 C 0.12809 0.0412 0.28482 0.0
C4523 C 0.14424 0.05326 0.27141 0.0
C4524 C 0.15539 0.04359 0.26255 0.0
C4525 C 0.16063 0.97495 0.18149 0.0
C4526 C 0.17037 0.99443 0.17057 0.0
C4527 C 0.16056 0.97657 0.20059 0.0
C4528 C 0.17022 0.99768 0.20912 0.0
C4529 C 0.17911 0.0171 0.19828 0.0
C4530 C 0.17927 0.01552 0.17918 0.0
C4531 C 0.17204 0.99955 0.22935 0.0
C4532 C 0.1619 0.01005 0.23866 0.0
C4533 C 0.18346 0.99072 0.23943 0.0
C4534 C 0.19548 0.98049 0.23028 0.0
C4535 C 0.21234 0.99269 0.21724 0.0
C4536 C 0.22343 0.98287 0.20853 0.0
C4537 C 0.21793 0.9609 0.21286 0.0
C4538 C 0.20137 0.94874 0.22594 0.0
C4539 C 0.1902 0.95848 0.23467 0.0
H4540 H 0.22654 0.95332 0.2061 0.0
H4541 H 0.1195 0.04873 0.29168 0.0
H4542 H 0.03651 0.82998 0.67551 0.0
H4543 H 0.03829 0.83152 0.70897 0.0
H4544 H 0.96695 0.80626 0.71154 0.0
H4545 H 0.96492 0.80465 0.678 0.0
H4546 H 0.99236 0.84428 0.73345 0.0
H4547 H 0.98589 0.7722 0.72185 0.0
H4548 H 0.99658 0.74636 0.70757 0.0
H4549 H 0.06207 0.78303 0.73193 0.0
H4550 H 0.05186 0.80929 0.74616 0.0
H4551 H 0.96972 0.81303 0.82657 0.0
H4552 H 0.97128 0.81452 0.79317 0.0
H4553 H 0.04195 0.83622 0.79485 0.0
H4554 H 0.04059 0.83467 0.82843 0.0
H4555 H 0.01915 0.80186 0.77068 0.0
H4556 H 0.02645 0.87297 0.78313 0.0
H4557 H 0.01768 0.9005 0.7968 0.0
H4558 H 0.95307 0.86785 0.77069 0.0
H4559 H 0.96131 0.83988 0.75705 0.0
C4560 C 0.02114 0.82463 0.68316 0.0
C4561 C 0.00055 0.81718 0.67407 0.0
C4562 C 0.02221 0.82548 0.70228 0.0
C4563 C 0.00274 0.81893 0.71266 0.0
C4564 C 0.98214 0.81138 0.7037 0.0
C4565 C 0.98101 0.81036 0.68456 0.0
C4566 C 0.00398 0.82043 0.73289 0.0
C4567 C 0.9979 0.83478 0.74165 0.0
C4568 C 0.01206 0.80867 0.74341 0.0
C4569 C 0.01819 0.79285 0.73491 0.0
C4570 C 0.00264 0.77487 0.72403 0.0
C4571 C 0.0086 0.76013 0.71597 0.0
C4572 C 0.03001 0.76309 0.7188 0.0
C4573 C 0.04549 0.78078 0.72973 0.0
C4574 C 0.03963 0.79558 0.73781 0.0
C4575 C 0.98566 0.81822 0.8199 0.0
C4576 C 0.00503 0.82366 0.83019 0.0
C4577 C 0.98653 0.81919 0.80079 0.0
C4578 C 0.00676 0.82563 0.79159 0.0
C4579 C 0.02619 0.83125 0.80175 0.0
C4580 C 0.02538 0.83041 0.82092 0.0
C4581 C 0.00723 0.8255 0.77131 0.0
C4582 C 0.01366 0.81143 0.76251 0.0
C4583 C -0.00032 0.83769 0.76074 0.0
C4584 C 0.99443 0.8542 0.76918 0.0
C4585 C 0.01027 0.8715 0.78045 0.0
C4586 C 0.00542 0.88722 0.78816 0.0
C4587 C 0.98484 0.88592 0.78461 0.0
C4588 C 0.96902 0.86883 0.77341 0.0
C4589 C 0.97377 0.85305 0.76567 0.0
H4590 H 0.98122 0.89822 0.79046 0.0
H4591 H 0.03459 0.75165 0.71255 0.0
H4592 H 0.15082 0.19523 0.67239 0.0
H4593 H 0.15068 0.19479 0.70592 0.0
H4594 H 0.1872 0.15889 0.70567 0.0
H4595 H 0.18746 0.15919 0.67211 0.0
H4596 H 0.15178 0.14229 0.73143 0.0
H4597 H 0.21528 0.213 0.71255 0.0
H4598 H 0.2337 0.24889 0.69568 0.0
H4599 H 0.19252 0.27005 0.72379 0.0
H4600 H 0.17361 0.23412 0.74066 0.0
H4601 H 0.19578 0.16209 0.82128 0.0
H4602 H 0.19085 0.16003 0.78806 0.0
H4603 H 0.16133 0.20247 0.7914 0.0
H4604 H 0.1665 0.20497 0.82467 0.0
H4605 H 0.19096 0.2154 0.76407 0.0
H4606 H 0.12864 0.1464 0.78419 0.0
H4607 H 0.10929 0.11062 0.80116 0.0
H4608 H 0.14628 0.08607 0.77098 0.0
H4609 H 0.16612 0.12185 0.75401 0.0
C4610 C 0.15869 0.18708 0.67943 0.0
C4611 C 0.16933 0.17741 0.66954 0.0
C4612 C 0.15862 0.18689 0.69859 0.0
C4613 C 0.1691 0.17699 0.70821 0.0
C4614 C 0.17905 0.16664 0.69845 0.0
C4615 C 0.17928 0.16694 0.67928 0.0
C4616 C 0.17053 0.17825 0.72846 0.0
C4617 C 0.16052 0.15823 0.7386 0.0
C4618 C 0.1814 0.19911 0.73774 0.0
C4619 C 0.19287 0.22078 0.72772 0.0
C4620 C 0.21003 0.22523 0.71503 0.0
C4621 C 0.22058 0.2456 0.70548 0.0
C4622 C 0.21424 0.26172 0.70862 0.0
C4623 C 0.19738 0.25753 0.72136 0.0
C4624 C 0.18676 0.23718 0.73092 0.0
C4625 C 0.18823 0.17101 0.815 0.0
C4626 C 0.18151 0.18368 0.82569 0.0
C4627 C 0.18531 0.1697 0.796 0.0
C4628 C 0.17544 0.18084 0.7873 0.0
C4629 C 0.16893 0.19369 0.79786 0.0
C4630 C 0.17189 0.19508 0.81688 0.0
C4631 C 0.17236 0.17942 0.76713 0.0
C4632 C 0.18207 0.19942 0.75697 0.0
C4633 C 0.16103 0.15854 0.75786 0.0
C4634 C 0.14902 0.1369 0.76794 0.0
C4635 C 0.13278 0.13344 0.78127 0.0
C4636 C 0.1217 0.11315 0.79087 0.0
C4637 C 0.1266 0.0961 0.78718 0.0
C4638 C 0.14253 0.0993 0.77383 0.0
C4639 C 0.15368 0.11958 0.7642 0.0
H4640 H 0.11801 0.0804 0.79464 0.0
H4641 H 0.22243 0.27747 0.70122 0.0
H4642 H 0.85535 0.02949 0.81799 0.0
H4643 H 0.8543 0.02716 0.78453 0.0
H4644 H 0.79173 0.96436 0.78726 0.0
H4645 H 0.79304 0.9662 0.82074 0.0
H4646 H 0.8168 0.9619 0.76154 0.0
H4647 H 0.79372 0.01498 0.77787 0.0
H4648 H 0.79705 0.04863 0.79297 0.0
H4649 H 0.85764 0.09045 0.76292 0.0
H4650 H 0.85482 0.05699 0.74781 0.0
H4651 H 0.7892 0.00317 0.6698 0.0
H4652 H 0.7923 0.00395 0.70332 0.0
H4653 H 0.84054 0.98127 0.69923 0.0
H4654 H 0.83594 0.97882 0.66581 0.0
H4655 H 0.8226 0.02609 0.7259 0.0
H4656 H 0.8415 0.95408 0.73647 0.0
H4657 H 0.83437 0.9191 0.72117 0.0
H4658 H 0.77381 0.91171 0.69758 0.0
H4659 H 0.78047 0.94654 0.71289 0.0
C4660 C 0.84139 0.01515 0.81148 0.0
C4661 C 0.82417 0.99812 0.82204 0.0
C4662 C 0.84079 0.01386 0.79234 0.0
C4663 C 0.82274 0.99578 0.78336 0.0
C4664 C 0.80582 0.97849 0.79387 0.0
C4665 C 0.80656 0.9796 0.81302 0.0
C4666 C 0.82114 0.99515 0.76304 0.0
C4667 C 0.81805 0.97592 0.75373 0.0
C4668 C 0.82247 0.01331 0.75285 0.0
C4669 C 0.82417 0.03347 0.76185 0.0
C4670 C 0.80783 0.03134 0.77458 0.0
C4671 C 0.80962 0.05038 0.78312 0.0
C4672 C 0.82758 0.07166 0.77894 0.0
C4673 C 0.84376 0.07395 0.76616 0.0
C4674 C 0.84206 0.05496 0.7576 0.0
C4675 C 0.8003 0.99822 0.67619 0.0
C4676 C 0.81218 0.99074 0.66548 0.0
C4677 C 0.80217 0.99874 0.69528 0.0
C4678 C 0.81637 0.9923 0.70393 0.0
C4679 C 0.82891 0.98563 0.69303 0.0
C4680 C 0.82646 0.9844 0.67396 0.0
C4681 C 0.81803 0.99272 0.7243 0.0
C4682 C 0.8213 0.012 0.73365 0.0
C4683 C 0.81616 0.97433 0.73454 0.0
C4684 C 0.81159 0.953 0.72571 0.0
C4685 C 0.82659 0.94491 0.72811 0.0
C4686 C 0.82266 0.92514 0.7194 0.0
C4687 C 0.80369 0.91323 0.70836 0.0
C4688 C 0.78853 0.92099 0.70609 0.0
C4689 C 0.79239 0.94075 0.71477 0.0
H4690 H 0.80071 0.89796 0.70159 0.0
H4691 H 0.82893 0.08638 0.78557 0.0
H4692 H 0.7125 0.53519 0.65818 0.0
H4693 H 0.7145 0.53666 0.62466 0.0
H4694 H 0.64416 0.48699 0.62151 0.0
H4695 H 0.64195 0.48526 0.65495 0.0
H4696 H 0.66983 0.48022 0.5956 0.0
H4697 H 0.65926 0.54051 0.61799 0.0
H4698 H 0.66874 0.57395 0.63676 0.0
H4699 H 0.73309 0.60989 0.61041 0.0
H4700 H 0.72411 0.57652 0.59166 0.0
H4701 H 0.63955 0.4989 0.5075 0.0
H4702 H 0.64206 0.49706 0.54088 0.0
H4703 H 0.71282 0.54549 0.53861 0.0
H4704 H 0.71057 0.54739 0.50522 0.0
H4705 H 0.68966 0.5534 0.56699 0.0
H4706 H 0.69991 0.49425 0.54345 0.0
H4707 H 0.69071 0.46112 0.52436 0.0
H4708 H 0.62779 0.42336 0.55251 0.0
H4709 H 0.63646 0.4564 0.5716 0.0
C4710 C 0.69751 0.52434 0.65038 0.0
C4711 C 0.677 0.51029 0.65926 0.0
C4712 C 0.69869 0.52526 0.63124 0.0
C4713 C 0.67941 0.51214 0.62068 0.0
C4714 C 0.65921 0.49728 0.62945 0.0
C4715 C 0.65797 0.49641 0.64857 0.0
C4716 C 0.67984 0.51489 0.60054 0.0
C4717 C 0.67399 0.49616 0.58933 0.0
C4718 C 0.68576 0.53583 0.59241 0.0
C4719 C 0.69111 0.55595 0.60358 0.0
C4720 C 0.6755 0.55549 0.61631 0.0
C4721 C 0.68077 0.57444 0.62692 0.0
C4722 C 0.70153 0.59401 0.62482 0.0
C4723 C 0.71704 0.5947 0.61205 0.0
C4724 C 0.71186 0.57578 0.60142 0.0
C4725 C 0.65559 0.50938 0.51411 0.0
C4726 C 0.67488 0.52323 0.50372 0.0
C4727 C 0.65701 0.50819 0.53315 0.0
C4728 C 0.67768 0.52095 0.54209 0.0
C4729 C 0.69676 0.53547 0.53189 0.0
C4730 C 0.69543 0.53648 0.51283 0.0
C4731 C 0.67942 0.5187 0.56209 0.0
C4732 C 0.68567 0.53751 0.57325 0.0
C4733 C 0.67396 0.49787 0.57015 0.0
C4734 C 0.66874 0.47787 0.55884 0.0
C4735 C 0.68403 0.47894 0.54547 0.0
C4736 C 0.67893 0.46017 0.53467 0.0
C4737 C 0.65866 0.44017 0.5372 0.0
C4738 C 0.64348 0.43888 0.55057 0.0
C4739 C 0.64848 0.45762 0.56139 0.0
H4740 H 0.65475 0.42567 0.52884 0.0
H4741 H 0.70558 0.60867 0.63305 0.0
H4742 H 0.47301 0.17358 0.66006 0.0
H4743 H 0.47134 0.17513 0.6267 0.0
H4744 H 0.51384 0.14581 0.62184 0.0
H4745 H 0.51596 0.14449 0.65522 0.0
H4746 H 0.52505 0.17915 0.59715 0.0
H4747 H 0.45778 0.1134 0.61759 0.0
H4748 H 0.42324 0.09252 0.63594 0.0
H4749 H 0.39648 0.1313 0.612 0.0
H4750 H 0.43102 0.15264 0.59368 0.0
H4751 H 0.49958 0.13767 0.50668 0.0
H4752 H 0.50227 0.13955 0.54007 0.0
H4753 H 0.46228 0.17185 0.54176 0.0
H4754 H 0.4593 0.16996 0.50832 0.0
H4755 H 0.44984 0.13844 0.56792 0.0
H4756 H 0.51702 0.20308 0.54633 0.0
H4757 H 0.55139 0.22295 0.52762 0.0
H4758 H 0.57824 0.18531 0.55349 0.0
H4759 H 0.54387 0.16496 0.57217 0.0
C4760 C 0.48214 0.16759 0.65193 0.0
C4761 C 0.49441 0.15865 0.66031 0.0
C4762 C 0.48113 0.16847 0.63287 0.0
C4763 C 0.49215 0.16023 0.62188 0.0
C4764 C 0.50516 0.15217 0.63014 0.0
C4765 C 0.50629 0.15138 0.64922 0.0
C4766 C 0.4894 0.15918 0.60176 0.0
C4767 C 0.50864 0.17008 0.59073 0.0
C4768 C 0.46792 0.14767 0.59349 0.0
C4769 C 0.44708 0.13477 0.60441 0.0
C4770 C 0.4446 0.11759 0.61634 0.0
C4771 C 0.42502 0.10565 0.62672 0.0
C4772 C 0.4077 0.11062 0.62518 0.0
C4773 C 0.40992 0.12749 0.61321 0.0
C4774 C 0.42949 0.1395 0.60281 0.0
C4775 C 0.49119 0.14504 0.51411 0.0
C4776 C 0.47933 0.1538 0.50481 0.0
C4777 C 0.49286 0.14618 0.53318 0.0
C4778 C 0.48275 0.15612 0.54325 0.0
C4779 C 0.47027 0.16421 0.53413 0.0
C4780 C 0.46864 0.16314 0.51504 0.0
C4781 C 0.48547 0.15832 0.56334 0.0
C4782 C 0.46623 0.14762 0.57435 0.0
C4783 C 0.50695 0.16993 0.57158 0.0
C4784 C 0.52777 0.18235 0.56053 0.0
C4785 C 0.53018 0.19892 0.54794 0.0
C4786 C 0.54968 0.21029 0.53735 0.0
C4787 C 0.56697 0.20535 0.53933 0.0
C4788 C 0.56483 0.18909 0.55196 0.0
C4789 C 0.54535 0.17765 0.56256 0.0
H4790 H 0.58204 0.21416 0.53111 0.0
H4791 H 0.39255 0.10136 0.63322 0.0
H4792 H 0.81277 0.29608 0.50954 0.0
H4793 H 0.81067 0.29654 0.54296 0.0
H4794 H 0.87791 0.35362 0.54481 0.0
H4795 H 0.87948 0.35401 0.51128 0.0
H4796 H 0.82988 0.29055 0.5694 0.0
H4797 H 0.88543 0.38767 0.57971 0.0
H4798 H 0.89377 0.42242 0.56335 0.0
H4799 H 0.83104 0.387 0.53456 0.0
H4800 H 0.82216 0.35214 0.55095 0.0
H4801 H 0.8653 0.31068 0.66034 0.0
H4802 H 0.86208 0.3093 0.62698 0.0
H4803 H 0.82813 0.34782 0.62949 0.0
H4804 H 0.83285 0.35056 0.66292 0.0
H4805 H 0.85377 0.36195 0.60269 0.0
H4806 H 0.7999 0.28856 0.62083 0.0
H4807 H 0.78423 0.25233 0.63706 0.0
H4808 H 0.83021 0.23768 0.60875 0.0
H4809 H 0.84638 0.27397 0.59253 0.0
C4810 C 0.82714 0.30863 0.51711 0.0
C4811 C 0.84626 0.32508 0.50789 0.0
C4812 C 0.82592 0.3089 0.53621 0.0
C4813 C 0.84395 0.32538 0.54643 0.0
C4814 C 0.8635 0.34117 0.53722 0.0
C4815 C 0.86449 0.34127 0.51809 0.0
C4816 C 0.84229 0.32607 0.56669 0.0
C4817 C 0.83502 0.30615 0.57667 0.0
C4818 C 0.84813 0.34624 0.5762 0.0
C4819 C 0.85324 0.36724 0.56645 0.0
C4820 C 0.87337 0.38732 0.56996 0.0
C4821 C 0.8782 0.40704 0.56067 0.0
C4822 C 0.86298 0.4069 0.54788 0.0
C4823 C 0.84285 0.38707 0.54442 0.0
C4824 C 0.83792 0.36733 0.5537 0.0
C4825 C 0.85712 0.31881 0.65373 0.0
C4826 C 0.8492 0.33061 0.66408 0.0
C4827 C 0.85513 0.31788 0.63468 0.0
C4828 C 0.84434 0.32796 0.62569 0.0
C4829 C 0.83646 0.33986 0.63609 0.0
C4830 C 0.8391 0.34138 0.65514 0.0
C4831 C 0.84189 0.32652 0.60542 0.0
C4832 C 0.84841 0.3463 0.59543 0.0
C4833 C 0.83416 0.30599 0.59588 0.0
C4834 C 0.82446 0.28408 0.60556 0.0
C4835 C 0.80677 0.27768 0.61815 0.0
C4836 C 0.79779 0.25712 0.62734 0.0
C4837 C 0.80625 0.24273 0.62396 0.0
C4838 C 0.82368 0.24885 0.61136 0.0
C4839 C 0.83274 0.2694 0.60214 0.0
H4840 H 0.79927 0.22683 0.63109 0.0
H4841 H 0.86677 0.42217 0.54069 0.0
H4842 H 0.63139 0.13751 -0.00104 0.0
H4843 H 0.62606 0.13399 0.03227 0.0
H4844 H 0.69701 0.1597 0.03975 0.0
H4845 H 0.70258 0.16334 0.00661 0.0
H4846 H 0.67007 0.12095 0.06001 0.0
H4847 H 0.67724 0.19314 0.04758 0.0
H4848 H 0.66791 0.21988 0.03311 0.0
H4849 H 0.60094 0.18304 0.0547 0.0
H4850 H 0.60977 0.15586 0.06909 0.0
H4851 H 0.68782 0.15201 0.15352 0.0
H4852 H 0.68838 0.15112 0.12005 0.0
H4853 H 0.61764 0.12917 0.11862 0.0
H4854 H 0.61687 0.13021 0.15206 0.0
H4855 H 0.64135 0.16331 0.09504 0.0
H4856 H 0.63481 0.09252 0.1093 0.0
H4857 H 0.6445 0.06655 0.12469 0.0
H4858 H 0.70994 0.10046 0.09997 0.0
H4859 H 0.70077 0.12687 0.08465 0.0
C4860 C 0.64586 0.14242 0.0077 0.0
C4861 C 0.66742 0.15072 0.00015 0.0
C4862 C 0.64278 0.14046 0.02668 0.0
C4863 C 0.66117 0.14665 0.03835 0.0
C4864 C 0.68264 0.15482 0.03089 0.0
C4865 C 0.68578 0.15698 0.01197 0.0
C4866 C 0.65814 0.14453 0.0584 0.0
C4867 C 0.66396 0.13033 0.06773 0.0
C4868 C 0.64959 0.15633 0.06826 0.0
C4869 C 0.64409 0.17232 0.05923 0.0
C4870 C 0.66043 0.19057 0.04905 0.0
C4871 C 0.65526 0.20584 0.04091 0.0
C4872 C 0.63384 0.20314 0.04298 0.0
C4873 C 0.61752 0.18509 0.05311 0.0
C4874 C 0.6226 0.16976 0.06126 0.0
C4875 C 0.67234 0.14689 0.14613 0.0
C4876 C 0.6523 0.14118 0.15549 0.0
C4877 C 0.67268 0.1463 0.12701 0.0
C4878 C 0.65299 0.13987 0.11695 0.0
C4879 C 0.63298 0.13413 0.1262 0.0
C4880 C 0.6326 0.13471 0.14531 0.0
C4881 C 0.65353 0.13992 0.09672 0.0
C4882 C 0.64723 0.15372 0.08733 0.0
C4883 C 0.66158 0.12771 0.0868 0.0
C4884 C 0.66716 0.1118 0.09595 0.0
C4885 C 0.65133 0.09456 0.10726 0.0
C4886 C 0.65673 0.07974 0.11595 0.0
C4887 C 0.67784 0.08189 0.11334 0.0
C4888 C 0.6936 0.09883 0.102 0.0
C4889 C 0.6883 0.11372 0.09329 0.0
H4890 H 0.68198 0.07039 0.12008 0.0
H4891 H 0.62994 0.2151 0.03683 0.0
H4892 H 0.83993 0.52857 0.14939 0.0
H4893 H 0.8387 0.5282 0.11592 0.0
H4894 H 0.87839 0.49559 0.11435 0.0
H4895 H 0.87992 0.49598 0.14784 0.0
H4896 H 0.89174 0.5293 0.08858 0.0
H4897 H 0.82344 0.46488 0.10895 0.0
H4898 H 0.78861 0.44536 0.12715 0.0
H4899 H 0.76342 0.48422 0.10083 0.0
H4900 H 0.79828 0.50424 0.08267 0.0
H4901 H 0.87082 0.49372 0.99639 0.0
H4902 H 0.87147 0.49241 0.02984 0.0
H4903 H 0.82966 0.52266 0.03283 0.0
H4904 H 0.8286 0.52378 -0.00063 0.0
H4905 H 0.81731 0.48949 0.05799 0.0
H4906 H 0.88557 0.5545 0.03825 0.0
H4907 H 0.92066 0.57491 0.02048 0.0
H4908 H 0.946 0.53566 0.04585 0.0
H4909 H 0.91091 0.51478 0.06359 0.0
C4910 C 0.84861 0.5215 0.14198 0.0
C4911 C 0.8599 0.51215 0.15134 0.0
C4912 C 0.84778 0.52122 0.12285 0.0
C4913 C 0.85817 0.51156 0.11274 0.0
C4914 C 0.87019 0.50302 0.12196 0.0
C4915 C 0.87099 0.50323 0.1411 0.0
C4916 C 0.85596 0.50983 0.09256 0.0
C4917 C 0.8755 0.52034 0.08187 0.0
C4918 C 0.83471 0.4985 0.0839 0.0
C4919 C 0.81356 0.48621 0.09457 0.0
C4920 C 0.81054 0.46938 0.10713 0.0
C4921 C 0.79078 0.4582 0.11743 0.0
C4922 C 0.77383 0.46359 0.11518 0.0
C4923 C 0.77658 0.48009 0.10257 0.0
C4924 C 0.79632 0.49134 0.09226 0.0
C4925 C 0.8616 0.49995 0.00412 0.0
C4926 C 0.84987 0.5091 0.99517 0.0
C4927 C 0.86204 0.49923 0.02325 0.0
C4928 C 0.85094 0.5078 0.03377 0.0
C4929 C 0.83842 0.51605 0.02492 0.0
C4930 C 0.83789 0.51672 0.00579 0.0
C4931 C 0.8531 0.509 0.05398 0.0
C4932 C 0.83355 0.49839 0.06469 0.0
C4933 C 0.87435 0.5203 0.06267 0.0
C4934 C 0.89552 0.53292 0.0521 0.0
C4935 C 0.89856 0.5501 0.03993 0.0
C4936 C 0.91846 0.56177 0.02988 0.0
C4937 C 0.93553 0.55654 0.032 0.0
C4938 C 0.93275 0.53967 0.04421 0.0
C4939 C 0.91287 0.52792 0.05427 0.0
H4940 H 0.95092 0.5656 0.02421 0.0
H4941 H 0.75856 0.45494 0.12318 0.0
H4942 H 0.48201 0.29872 0.00192 0.0
H4943 H 0.48315 0.30076 0.03532 0.0
H4944 H 0.51197 0.37265 0.03266 0.0
H4945 H 0.51108 0.3709 -0.00088 0.0
H4946 H 0.5313 0.3591 0.05973 0.0
H4947 H 0.45765 0.34149 0.03944 0.0
H4948 H 0.42224 0.32003 0.02228 0.0
H4949 H 0.40776 0.26026 0.05189 0.0
H4950 H 0.44328 0.28132 0.06905 0.0
H4951 H 0.50626 0.37955 0.14864 0.0
H4952 H 0.50715 0.37666 0.11536 0.0
H4953 H 0.47509 0.30453 0.11957 0.0
H4954 H 0.47374 0.30718 0.15299 0.0
H4955 H 0.45792 0.31742 0.09176 0.0
H4956 H 0.53096 0.33579 0.11336 0.0
H4957 H 0.5657 0.35788 0.13118 0.0
H4958 H 0.58144 0.41648 0.09932 0.0
H4959 H 0.54649 0.39486 0.08157 0.0
C4960 C 0.4888 0.31503 0.00837 0.0
C4961 C 0.49619 0.33463 -0.00218 0.0
C4962 C 0.48941 0.31613 0.02747 0.0
C4963 C 0.49731 0.3368 0.03637 0.0
C4964 C 0.50573 0.35653 0.02597 0.0
C4965 C 0.50514 0.35547 0.00682 0.0
C4966 C 0.49561 0.33761 0.05651 0.0
C4967 C 0.51527 0.35019 0.06675 0.0
C4968 C 0.47468 0.32559 0.0656 0.0
C4969 C 0.45323 0.31293 0.05539 0.0
C4970 C 0.447 0.32373 0.04219 0.0
C4971 C 0.4269 0.31165 0.03248 0.0
C4972 C 0.41279 0.28878 0.03596 0.0
C4973 C 0.41873 0.27797 0.04919 0.0
C4974 C 0.43883 0.28997 0.05892 0.0
C4975 C 0.49929 0.36303 0.14253 0.0
C4976 C 0.4901 0.34359 0.15348 0.0
C4977 C 0.49988 0.36144 0.12351 0.0
C4978 C 0.49159 0.34042 0.11509 0.0
C4979 C 0.48168 0.32091 0.12587 0.0
C4980 C 0.48093 0.32246 0.14495 0.0
C4981 C 0.49361 0.33893 0.09503 0.0
C4982 C 0.47399 0.32623 0.08478 0.0
C4983 C 0.51458 0.35085 0.08596 0.0
C4984 C 0.53598 0.36374 0.09624 0.0
C4985 C 0.54176 0.35342 0.11021 0.0
C4986 C 0.56149 0.36586 0.12031 0.0
C4987 C 0.57575 0.38859 0.11641 0.0
C4988 C 0.57036 0.39888 0.10234 0.0
C4989 C 0.55058 0.38654 0.09226 0.0
H4990 H 0.59099 0.39821 0.12427 0.0
H4991 H 0.39723 0.27946 0.02843 0.0
H4992 H 0.31408 0.85574 0.83549 0.0
H4993 H 0.31262 0.85706 0.86891 0.0
H4994 H 0.35886 0.83193 0.87286 0.0
H4995 H 0.36146 0.83205 0.83936 0.0
H4996 H 0.29923 0.82969 0.89453 0.0
H4997 H 0.3902 0.84962 0.91069 0.0
H4998 H 0.42786 0.8695 0.89658 0.0
H4999 H 0.40906 0.91075 0.8657 0.0
H5000 H 0.37141 0.89132 0.87979 0.0
H5001 H 0.30496 0.81306 0.98898 0.0
H5002 H 0.30714 0.81244 0.95556 0.0
H5003 H 0.35721 0.88291 0.95565 0.0
H5004 H 0.35605 0.88316 0.98923 0.0
H5005 H 0.3688 0.86443 0.93192 0.0
H5006 H 0.29944 0.86171 0.94367 0.0
H5007 H 0.26205 0.84806 0.95743 0.0
H5008 H 0.23818 0.78379 0.93186 0.0
H5009 H 0.27552 0.79697 0.91813 0.0
C5010 C 0.32389 0.85046 0.84352 0.0
C5011 C 0.338 0.84394 0.83489 0.0
C5012 C 0.32304 0.85119 0.86263 0.0
C5013 C 0.33592 0.84497 0.87351 0.0
C5014 C 0.34928 0.83749 0.86484 0.0
C5015 C 0.35064 0.83738 0.8457 0.0
C5016 C 0.33538 0.84644 0.89386 0.0
C5017 C 0.31447 0.83733 0.90267 0.0
C5018 C 0.35523 0.85691 0.90457 0.0
C5019 C 0.37792 0.86885 0.89616 0.0
C5020 C 0.39414 0.86299 0.90094 0.0
C5021 C 0.41547 0.87417 0.89293 0.0
C5022 C 0.42082 0.89132 0.88021 0.0
C5023 C 0.40487 0.8974 0.87551 0.0
C5024 C 0.38352 0.8863 0.88348 0.0
C5025 C 0.3164 0.82841 0.98184 0.0
C5026 C 0.33023 0.84821 0.99163 0.0
C5027 C 0.31755 0.82809 0.96272 0.0
C5028 C 0.33198 0.84775 0.95298 0.0
C5029 C 0.34593 0.86752 0.96281 0.0
C5030 C 0.34521 0.86769 0.98198 0.0
C5031 C 0.33264 0.84764 0.93257 0.0
C5032 C 0.35357 0.85689 0.92376 0.0
C5033 C 0.31285 0.83828 0.92181 0.0
C5034 C 0.29034 0.83027 0.93001 0.0
C5035 C 0.28626 0.84462 0.94109 0.0
C5036 C 0.26507 0.83697 0.94887 0.0
C5037 C 0.24777 0.81506 0.94556 0.0
C5038 C 0.2516 0.80076 0.93442 0.0
C5039 C 0.27277 0.80831 0.92662 0.0
H5040 H 0.23137 0.80917 0.95159 0.0
H5041 H 0.43733 0.89994 0.87401 0.0
H5042 H 0.17383 0.46834 0.98602 0.0
H5043 H 0.17609 0.47299 0.95277 0.0
H5044 H 0.14119 0.51042 0.95614 0.0
H5045 H 0.13847 0.50557 0.98942 0.0
H5046 H 0.12448 0.47998 0.92933 0.0
H5047 H 0.19749 0.53711 0.94818 0.0
H5048 H 0.23361 0.55284 0.96455 0.0
H5049 H 0.25006 0.50929 0.93443 0.0
H5050 H 0.21387 0.49304 0.91806 0.0
H5051 H 0.14463 0.51377 0.83604 0.0
H5052 H 0.14597 0.51615 0.86951 0.0
H5053 H 0.17752 0.47548 0.87141 0.0
H5054 H 0.17651 0.47314 0.83798 0.0
H5055 H 0.19664 0.51074 0.8956 0.0
H5056 H 0.12232 0.45184 0.8787 0.0
H5057 H 0.08608 0.43603 0.86247 0.0
H5058 H 0.07233 0.48354 0.88922 0.0
H5059 H 0.10865 0.49984 0.90542 0.0
C5060 C 0.16665 0.4776 0.97974 0.0
C5061 C 0.15597 0.48659 0.99043 0.0
C5062 C 0.16808 0.48035 0.96072 0.0
C5063 C 0.15909 0.49232 0.95203 0.0
C5064 C 0.1483 0.50118 0.96261 0.0
C5065 C 0.14677 0.49839 0.98163 0.0
C5066 C 0.16038 0.49497 0.93184 0.0
C5067 C 0.1403 0.48709 0.92198 0.0
C5068 C 0.181 0.50388 0.92227 0.0
C5069 C 0.20287 0.51372 0.932 0.0
C5070 C 0.20873 0.53076 0.94514 0.0
C5071 C 0.22923 0.53979 0.95441 0.0
C5072 C 0.2441 0.53203 0.95056 0.0
C5073 C 0.23852 0.51527 0.9374 0.0
C5074 C 0.21802 0.50616 0.92811 0.0
C5075 C 0.15201 0.50544 0.84354 0.0
C5076 C 0.16027 0.49307 0.8343 0.0
C5077 C 0.15271 0.5068 0.86267 0.0
C5078 C 0.16161 0.49577 0.87289 0.0
C5079 C 0.17056 0.48408 0.86373 0.0
C5080 C 0.16985 0.48268 0.84462 0.0
C5081 C 0.16075 0.49556 0.89317 0.0
C5082 C 0.18088 0.50387 0.90302 0.0
C5083 C 0.1402 0.48709 0.90276 0.0
C5084 C 0.1183 0.47722 0.89311 0.0
C5085 C 0.11164 0.45903 0.88101 0.0
C5086 C 0.09108 0.44996 0.87183 0.0
C5087 C 0.07694 0.45882 0.87477 0.0
C5088 C 0.08331 0.47672 0.88693 0.0
C5089 C 0.10388 0.48588 0.89612 0.0
H5090 H 0.06102 0.45177 0.86766 0.0
H5091 H 0.25996 0.53904 0.95776 0.0
H5092 H 0.53988 0.70755 0.98477 0.0
H5093 H 0.54093 0.70626 0.95135 0.0
H5094 H 0.50758 0.63394 0.9531 0.0
H5095 H 0.50665 0.63496 0.98658 0.0
H5096 H 0.54149 0.65147 0.92793 0.0
H5097 H 0.4779 0.65912 0.94391 0.0
H5098 H 0.45837 0.67638 0.95944 0.0
H5099 H 0.49971 0.73831 0.9309 0.0
H5100 H 0.51972 0.72151 0.91539 0.0
H5101 H 0.50227 0.62825 0.83632 0.0
H5102 H 0.50355 0.63048 0.86976 0.0
H5103 H 0.53889 0.70281 0.86676 0.0
H5104 H 0.53765 0.70083 0.83325 0.0
H5105 H 0.50463 0.6858 0.89248 0.0
H5106 H 0.56764 0.67741 0.87592 0.0
H5107 H 0.58668 0.65964 0.86039 0.0
H5108 H 0.54573 0.59841 0.88995 0.0
H5109 H 0.52621 0.61572 0.90546 0.0
C5110 C 0.5329 0.69134 0.9781 0.0
C5111 C 0.523 0.67134 0.98839 0.0
C5112 C 0.53347 0.69066 0.95899 0.0
C5113 C 0.52403 0.67 0.94979 0.0
C5114 C 0.51489 0.65005 0.95998 0.0
C5115 C 0.51432 0.65069 0.97911 0.0
C5116 C 0.52306 0.66917 0.92953 0.0
C5117 C 0.53322 0.65873 0.92017 0.0
C5118 C 0.5126 0.67904 0.91946 0.0
C5119 C 0.50046 0.68912 0.92863 0.0
C5120 C 0.48294 0.67647 0.94105 0.0
C5121 C 0.47176 0.68616 0.94984 0.0
C5122 C 0.47784 0.70845 0.9462 0.0
C5123 C 0.49505 0.72106 0.93372 0.0
C5124 C 0.5063 0.71146 0.92492 0.0
C5125 C 0.51024 0.64466 0.84273 0.0
C5126 C 0.51998 0.66438 0.83208 0.0
C5127 C 0.51103 0.64588 0.86184 0.0
C5128 C 0.52155 0.66681 0.87066 0.0
C5129 C 0.53077 0.68651 0.86015 0.0
C5130 C 0.5301 0.68533 0.84102 0.0
C5131 C 0.52305 0.66809 0.89089 0.0
C5132 C 0.51296 0.67859 0.90024 0.0
C5133 C 0.53349 0.65821 0.90094 0.0
C5134 C 0.54531 0.6478 0.89172 0.0
C5135 C 0.56257 0.6601 0.879 0.0
C5136 C 0.57347 0.65012 0.87022 0.0
C5137 C 0.56738 0.6279 0.87414 0.0
C5138 C 0.55041 0.61562 0.8869 0.0
C5139 C 0.53944 0.62551 0.89571 0.0
H5140 H 0.57584 0.6202 0.86732 0.0
H5141 H 0.46918 0.71593 0.95302 0.0
H5142 H 0.35109 0.52052 0.34037 0.0
H5143 H 0.35018 0.52056 0.37384 0.0
H5144 H 0.30745 0.44841 0.37375 0.0
H5145 H 0.30713 0.44861 0.3401 0.0
H5146 H 0.29394 0.46351 0.39887 0.0
H5147 H 0.36637 0.47617 0.38324 0.0
H5148 H 0.40316 0.49398 0.36771 0.0
H5149 H 0.42119 0.55676 0.39385 0.0
H5150 H 0.38438 0.53939 0.40936 0.0
H5151 H 0.35589 0.48101 0.49282 0.0
H5152 H 0.35639 0.47982 0.45933 0.0
H5153 H 0.30389 0.49688 0.45717 0.0
H5154 H 0.30241 0.49666 0.49071 0.0
H5155 H 0.36534 0.50643 0.43326 0.0
H5156 H 0.27016 0.47388 0.4213 0.0
H5157 H 0.23405 0.45027 0.43705 0.0
H5158 H 0.26273 0.41658 0.46655 0.0
H5159 H 0.29891 0.43977 0.45081 0.0
C5160 C 0.34146 0.5047 0.34754 0.0
C5161 C 0.32931 0.48453 0.33779 0.0
C5162 C 0.34107 0.5047 0.36665 0.0
C5163 C 0.32925 0.48443 0.37636 0.0
C5164 C 0.31677 0.46427 0.36657 0.0
C5165 C 0.31661 0.46435 0.3474 0.0
C5166 C 0.32989 0.48435 0.39671 0.0
C5167 C 0.30957 0.47283 0.40638 0.0
C5168 C 0.35032 0.49599 0.40658 0.0
C5169 C 0.37253 0.50651 0.39734 0.0
C5170 C 0.37812 0.49381 0.38558 0.0
C5171 C 0.39899 0.50382 0.3768 0.0
C5172 C 0.41448 0.5265 0.37976 0.0
C5173 C 0.40917 0.5392 0.39156 0.0
C5174 C 0.38831 0.52927 0.40037 0.0
C5175 C 0.34458 0.48466 0.48516 0.0
C5176 C 0.32899 0.48876 0.49426 0.0
C5177 C 0.34486 0.48397 0.46603 0.0
C5178 C 0.32984 0.48779 0.4557 0.0
C5179 C 0.31514 0.49317 0.46483 0.0
C5180 C 0.31442 0.49323 0.48397 0.0
C5181 C 0.32938 0.4858 0.43542 0.0
C5182 C 0.34973 0.497 0.42576 0.0
C5183 C 0.30909 0.47293 0.4256 0.0
C5184 C 0.2873 0.45873 0.435 0.0
C5185 C 0.26873 0.46137 0.43109 0.0
C5186 C 0.24826 0.44807 0.44003 0.0
C5187 C 0.24612 0.43199 0.45284 0.0
C5188 C 0.26443 0.4291 0.45668 0.0
C5189 C 0.28493 0.44234 0.44777 0.0
H5190 H 0.23026 0.42173 0.45975 0.0
H5191 H 0.43063 0.53422 0.37294 0.0
H5192 H 0.49908 0.87137 0.34711 0.0
H5193 H 0.50097 0.86875 0.3803 0.0
H5194 H 0.5269 0.8235 0.37405 0.0
H5195 H 0.52499 0.82591 0.34056 0.0
H5196 H 0.49181 0.80893 0.39977 0.0
H5197 H 0.56194 0.8748 0.38697 0.0
H5198 H 0.58707 0.91172 0.37303 0.0
H5199 H 0.55292 0.94026 0.40206 0.0
H5200 H 0.52734 0.90342 0.41598 0.0
H5201 H 0.51889 0.81726 0.49547 0.0
H5202 H 0.51997 0.81678 0.462 0.0
H5203 H 0.49766 0.86528 0.45978 0.0
H5204 H 0.49671 0.8661 0.49325 0.0
H5205 H 0.53406 0.87712 0.43817 0.0
H5206 H 0.46239 0.81131 0.44906 0.0
H5207 H 0.43633 0.77447 0.46271 0.0
H5208 H 0.47268 0.74592 0.43724 0.0
H5209 H 0.49917 0.78272 0.42363 0.0
C5210 C 0.50528 0.8609 0.35272 0.0
C5211 C 0.51193 0.84887 0.34117 0.0
C5212 C 0.50641 0.8595 0.37171 0.0
C5213 C 0.51423 0.84608 0.37957 0.0
C5214 C 0.52088 0.83399 0.36817 0.0
C5215 C 0.51989 0.83549 0.34908 0.0
C5216 C 0.51498 0.84458 0.39975 0.0
C5217 C 0.50139 0.82373 0.40821 0.0
C5218 C 0.52713 0.86402 0.41065 0.0
C5219 C 0.54261 0.88628 0.40242 0.0
C5220 C 0.55967 0.8889 0.39029 0.0
C5221 C 0.57402 0.90983 0.3824 0.0
C5222 C 0.57157 0.92831 0.38662 0.0
C5223 C 0.5548 0.92592 0.39879 0.0
C5224 C 0.54038 0.90502 0.4067 0.0
C5225 C 0.51404 0.82772 0.4879 0.0
C5226 C 0.5078 0.8418 0.49708 0.0
C5227 C 0.5146 0.82735 0.46876 0.0
C5228 C 0.50885 0.84096 0.45846 0.0
C5229 C 0.50222 0.85471 0.46753 0.0
C5230 C 0.50161 0.85508 0.48666 0.0
C5231 C 0.51054 0.84156 0.43822 0.0
C5232 C 0.52466 0.86226 0.42976 0.0
C5233 C 0.49883 0.82199 0.42735 0.0
C5234 C 0.48292 0.79984 0.4355 0.0
C5235 C 0.46496 0.79723 0.4465 0.0
C5236 C 0.45008 0.77635 0.45421 0.0
C5237 C 0.45288 0.75788 0.45088 0.0
C5238 C 0.47055 0.76025 0.43982 0.0
C5239 C 0.4855 0.78112 0.4321 0.0
H5240 H 0.4413 0.74173 0.45681 0.0
H5241 H 0.58269 0.9445 0.3805 0.0
H5242 H 0.12237 0.62268 0.34214 0.0
H5243 H 0.12374 0.62315 0.37559 0.0
H5244 H 0.16253 0.69551 0.37504 0.0
H5245 H 0.16145 0.6953 0.34149 0.0
H5246 H 0.17992 0.67663 0.39843 0.0
H5247 H 0.10817 0.67001 0.38581 0.0
H5248 H 0.07065 0.65322 0.37162 0.0
H5249 H 0.05118 0.5907 0.39881 0.0
H5250 H 0.08872 0.60704 0.41296 0.0
H5251 H 0.16845 0.7 0.49077 0.0
H5252 H 0.16782 0.69719 0.45745 0.0
H5253 H 0.12658 0.62514 0.46116 0.0
H5254 H 0.12677 0.62775 0.49465 0.0
H5255 H 0.1105 0.64227 0.43612 0.0
H5256 H 0.18158 0.64906 0.44974 0.0
H5257 H 0.2191 0.66559 0.46387 0.0
H5258 H 0.23996 0.72726 0.43481 0.0
H5259 H 0.20244 0.71121 0.4207 0.0
C5260 C 0.13117 0.63874 0.34908 0.0
C5261 C 0.14175 0.65897 0.3391 0.0
C5262 C 0.13186 0.63895 0.36821 0.0
C5263 C 0.14308 0.65937 0.37774 0.0
C5264 C 0.15377 0.67959 0.36789 0.0
C5265 C 0.15304 0.67942 0.34873 0.0
C5266 C 0.14378 0.65959 0.39801 0.0
C5267 C 0.16477 0.66939 0.4067 0.0
C5268 C 0.12396 0.6495 0.40871 0.0
C5269 C 0.10133 0.63968 0.40029 0.0
C5270 C 0.09595 0.65263 0.38864 0.0
C5271 C 0.07467 0.6432 0.38063 0.0
C5272 C 0.05856 0.62089 0.38427 0.0
C5273 C 0.06368 0.60797 0.39598 0.0
C5274 C 0.08495 0.61731 0.40401 0.0
C5275 C 0.15931 0.6835 0.48457 0.0
C5276 C 0.14765 0.66409 0.49543 0.0
C5277 C 0.15907 0.68194 0.46549 0.0
C5278 C 0.14736 0.66094 0.45686 0.0
C5279 C 0.13576 0.6415 0.46759 0.0
C5280 C 0.13594 0.64304 0.48672 0.0
C5281 C 0.14666 0.65948 0.43659 0.0
C5282 C 0.12566 0.64944 0.42787 0.0
C5283 C 0.16649 0.66929 0.42587 0.0
C5284 C 0.18911 0.67899 0.43429 0.0
C5285 C 0.19411 0.66621 0.44647 0.0
C5286 C 0.21539 0.67549 0.45446 0.0
C5287 C 0.23189 0.69748 0.45028 0.0
C5288 C 0.22715 0.71023 0.43805 0.0
C5289 C 0.20589 0.70105 0.43004 0.0
H5290 H 0.24835 0.70463 0.45648 0.0
H5291 H 0.0421 0.61362 0.37806 0.0
H5292 H 0.07599 0.43267 0.0682 0.0
H5293 H 0.04596 0.39567 0.07827 0.0
H5294 H 0.07668 0.36407 0.04801 0.0
H5295 H 0.10635 0.40066 0.03781 0.0
H5296 H 0.03167 0.33816 0.04755 0.0
H5297 H 0.0914 0.3796 0.0922 0.0
H5298 H 0.1143 0.4122 0.11216 0.0
H5299 H 0.05478 0.40167 0.1401 0.0
H5300 H 0.03152 0.36913 0.12012 0.0
H5301 H 0.04289 0.26288 0.11538 0.0
H5302 H 0.05095 0.30042 0.10698 0.0
H5303 H 0.98254 0.2738 0.08889 0.0
H5304 H 0.97432 0.23587 0.09703 0.0
H5305 H 0.03663 0.32931 0.11471 0.0
H5306 H 0.9853 0.30101 0.04848 0.0
H5307 H 0.96799 0.26824 0.02769 0.0
H5308 H 0.01885 0.25202 0.04192 0.0
H5309 H 0.03657 0.28482 0.06258 0.0
C5310 C 0.07593 0.41778 0.06327 0.0
C5311 C 0.09371 0.41956 0.05247 0.0
C5312 C 0.05881 0.39668 0.06907 0.0
C5313 C 0.05928 0.37717 0.06409 0.0
C5314 C 0.07597 0.37888 0.05203 0.0
C5315 C 0.09304 0.39985 0.04632 0.0
C5316 C 0.0447 0.35536 0.07322 0.0
C5317 C 0.03225 0.33625 0.06229 0.0
C5318 C 0.04579 0.35283 0.09242 0.0
C5319 C 0.05973 0.37216 0.10456 0.0
C5320 C 0.08321 0.38434 0.10254 0.0
C5321 C 0.09625 0.40278 0.11385 0.0
C5322 C 0.08599 0.40905 0.12735 0.0
C5323 C 0.06269 0.39683 0.12961 0.0
C5324 C 0.04957 0.37839 0.1183 0.0
C5325 C 0.0294 0.26496 0.10989 0.0
C5326 C 0.00806 0.24629 0.10658 0.0
C5327 C 0.03401 0.28651 0.10523 0.0
C5328 C 0.01743 0.28987 0.09711 0.0
C5329 C 0.99563 0.27152 0.09499 0.0
C5330 C 0.99097 0.24987 0.09968 0.0
C5331 C 0.02404 0.31208 0.08898 0.0
C5332 C 0.03507 0.33125 0.10009 0.0
C5333 C 0.02227 0.31463 0.06987 0.0
C5334 C 0.01203 0.29515 0.05723 0.0
C5335 C 0.99278 0.29045 0.04712 0.0
C5336 C 0.98292 0.27189 0.03537 0.0
C5337 C 0.99226 0.258 0.03355 0.0
C5338 C 0.01157 0.26273 0.04339 0.0
C5339 C 0.02153 0.2813 0.05512 0.0
H5340 H 0.98456 0.24361 0.02448 0.0
H5341 H 0.0961 0.42334 0.13609 0.0
H5342 H 0.73344 0.77734 0.12184 0.0
H5343 H 0.69544 0.74767 0.11569 0.0
H5344 H 0.72069 0.70761 0.09093 0.0
H5345 H 0.75934 0.73784 0.09681 0.0
H5346 H 0.69132 0.71021 0.06892 0.0
H5347 H 0.68874 0.68886 0.13035 0.0
H5348 H 0.6951 0.693 0.16376 0.0
H5349 H 0.65314 0.7226 0.16816 0.0
H5350 H 0.64679 0.71899 0.13474 0.0
H5351 H 0.57003 0.64841 0.05276 0.0
H5352 H 0.60588 0.65389 0.0648 0.0
H5353 H 0.62022 0.71743 0.08797 0.0
H5354 H 0.58498 0.71239 0.0758 0.0
H5355 H 0.62789 0.6878 0.11221 0.0
H5356 H 0.6426 0.71907 0.04932 0.0
H5357 H 0.63671 0.71497 0.01582 0.0
H5358 H 0.65578 0.66426 0.01512 0.0
H5359 H 0.66152 0.66789 0.04869 0.0
C5360 C 0.73103 0.76212 0.11533 0.0
C5361 C 0.74945 0.76005 0.10968 0.0
C5362 C 0.70919 0.74499 0.112 0.0
C5363 C 0.70513 0.72523 0.10307 0.0
C5364 C 0.72344 0.72266 0.09797 0.0
C5365 C 0.74548 0.7399 0.10138 0.0
C5366 C 0.68185 0.70889 0.09733 0.0
C5367 C 0.67744 0.7046 0.0785 0.0
C5368 C 0.66367 0.70145 0.10977 0.0
C5369 C 0.66729 0.70362 0.12997 0.0
C5370 C 0.68095 0.69636 0.13841 0.0
C5371 C 0.68455 0.6986 0.15737 0.0
C5372 C 0.67452 0.70805 0.16807 0.0
C5373 C 0.66086 0.71524 0.15985 0.0
C5374 C 0.65721 0.71304 0.14089 0.0
C5375 C 0.58084 0.66349 0.06049 0.0
C5376 C 0.57482 0.68007 0.06322 0.0
C5377 C 0.60122 0.66655 0.06735 0.0
C5378 C 0.61555 0.686 0.07732 0.0
C5379 C 0.60928 0.70224 0.0804 0.0
C5380 C 0.58924 0.69942 0.07329 0.0
C5381 C 0.63774 0.69049 0.0839 0.0
C5382 C 0.64181 0.69252 0.10284 0.0
C5383 C 0.65556 0.6956 0.07162 0.0
C5384 C 0.65217 0.69351 0.0515 0.0
C5385 C 0.64533 0.7069 0.04203 0.0
C5386 C 0.64207 0.7047 0.02304 0.0
C5387 C 0.64578 0.6893 0.01335 0.0
C5388 C 0.65285 0.67613 0.02264 0.0
C5389 C 0.65611 0.67825 0.04165 0.0
H5390 H 0.64326 0.68763 -0.00135 0.0
H5391 H 0.67734 0.70978 0.18275 0.0
H5392 H 0.22638 0.96182 0.12839 0.0
H5393 H 0.25661 0.95547 0.11887 0.0
H5394 H 0.28609 0.0167 0.08721 0.0
H5395 H 0.25542 0.02302 0.09652 0.0
H5396 H 0.27946 0.9828 0.06642 0.0
H5397 H 0.31565 0.0107 0.12296 0.0
H5398 H 0.31956 0.01651 0.15644 0.0
H5399 H 0.2973 0.94661 0.16454 0.0
H5400 H 0.29292 0.94027 0.13113 0.0
H5401 H 0.35405 0.92465 0.06806 0.0
H5402 H 0.34741 0.95488 0.07796 0.0
H5403 H 0.27896 0.91679 0.05897 0.0
H5404 H 0.28542 0.88672 0.04893 0.0
H5405 H 0.31869 0.95261 0.10381 0.0
H5406 H 0.26027 0.95003 0.04442 0.0
H5407 H 0.25789 0.94579 0.01076 0.0
H5408 H 0.32862 0.96941 0.008 0.0
H5409 H 0.33152 0.97412 0.04161 0.0
C5410 C 0.23959 0.97429 0.11979 0.0
C5411 C 0.23835 0.99279 0.11304 0.0
C5412 C 0.25703 0.97072 0.11446 0.0
C5413 C 0.2737 0.98564 0.10235 0.0
C5414 C 0.27341 0.005 0.0966 0.0
C5415 C 0.25594 0.00864 0.10201 0.0
C5416 C 0.28906 0.97895 0.09374 0.0
C5417 C 0.28838 0.97656 0.07457 0.0
C5418 C 0.30121 0.97134 0.10432 0.0
C5419 C 0.30394 0.97501 0.12448 0.0
C5420 C 0.31147 0.99653 0.13187 0.0
C5421 C 0.31378 -8e-05 0.15085 0.0
C5422 C 0.30868 0.98194 0.16261 0.0
C5423 C 0.30128 0.96053 0.15541 0.0
C5424 C 0.29893 0.95704 0.13644 0.0
C5425 C 0.33769 0.92287 0.06569 0.0
C5426 C 0.32024 0.90319 0.05773 0.0
C5427 C 0.33393 0.94015 0.07142 0.0
C5428 C 0.31277 0.93819 0.06906 0.0
C5429 C 0.29555 0.91887 0.06065 0.0
C5430 C 0.29924 0.90159 0.05501 0.0
C5431 C 0.30779 0.95525 0.07668 0.0
C5432 C 0.31039 0.95951 0.09563 0.0
C5433 C 0.29767 0.96487 0.06587 0.0
C5434 C 0.29609 0.96236 0.04558 0.0
C5435 C 0.27536 0.95449 0.03663 0.0
C5436 C 0.27391 0.95196 0.01755 0.0
C5437 C 0.29308 0.9573 0.00725 0.0
C5438 C 0.31376 0.96522 0.016 0.0
C5439 C 0.31532 0.9678 0.03507 0.0
H5440 H 0.29192 0.95531 0.99248 0.0
H5441 H 0.31047 0.9846 0.1773 0.0
H5442 H 0.23297 0.98216 0.404 0.0
H5443 H 0.26981 0.98695 0.4121 0.0
H5444 H 0.30231 0.05021 0.38321 0.0
H5445 H 0.26598 0.04548 0.37499 0.0
H5446 H 0.32532 0.02821 0.37891 0.0
H5447 H 0.28983 0.04756 0.4292 0.0
H5448 H 0.25964 0.03771 0.4519 0.0
H5449 H 0.27136 0.98671 0.47437 0.0
H5450 H 0.30148 0.99615 0.45164 0.0
H5451 H 0.40729 0.12267 0.42236 0.0
H5452 H 0.37144 0.09108 0.41279 0.0
H5453 H 0.38885 0.04486 0.43753 0.0
H5454 H 0.4254 0.07664 0.44694 0.0
H5455 H 0.34147 0.04288 0.44544 0.0
H5456 H 0.38755 0.03638 0.39962 0.0
H5457 H 0.41861 0.05101 0.37726 0.0
H5458 H 0.38748 0.0812 0.34627 0.0
H5459 H 0.35642 0.06709 0.36861 0.0
C5460 C 0.24801 0.9968 0.39903 0.0
C5461 C 0.24662 0.01362 0.3891 0.0
C5462 C 0.269 0.99952 0.4037 0.0
C5463 C 0.28878 0.01903 0.39839 0.0
C5464 C 0.2873 0.03499 0.38741 0.0
C5465 C 0.26648 0.03236 0.38287 0.0
C5466 C 0.31103 0.02471 0.40585 0.0
C5467 C 0.32885 0.03099 0.39349 0.0
C5468 C 0.31557 0.02786 0.42491 0.0
C5469 C 0.29765 0.02234 0.43862 0.0
C5470 C 0.28586 0.03417 0.43893 0.0
C5471 C 0.26879 0.02867 0.45179 0.0
C5472 C 0.26353 0.01154 0.46452 0.0
C5473 C 0.2754 -7e-05 0.46446 0.0
C5474 C 0.29247 0.00534 0.4516 0.0
C5475 C 0.40357 0.10583 0.42585 0.0
C5476 C 0.41915 0.10214 0.43545 0.0
C5477 C 0.38312 0.08781 0.4203 0.0
C5478 C 0.37767 0.06576 0.42441 0.0
C5479 C 0.39292 0.06184 0.43422 0.0
C5480 C 0.41371 0.07996 0.43953 0.0
C5481 C 0.35568 0.04728 0.41839 0.0
C5482 C 0.33791 0.03882 0.43099 0.0
C5483 C 0.35119 0.04241 0.39952 0.0
C5484 C 0.36966 0.05069 0.38584 0.0
C5485 C 0.38739 0.04626 0.3881 0.0
C5486 C 0.405 0.05444 0.37542 0.0
C5487 C 0.40502 0.06703 0.36036 0.0
C5488 C 0.38742 0.07142 0.35793 0.0
C5489 C 0.36978 0.06329 0.37059 0.0
H5490 H 0.41868 0.07337 0.35056 0.0
H5491 H 0.2503 0.00729 0.47447 0.0
H5492 H 0.01969 0.2618 0.39718 0.0
H5493 H 0.0133 0.29293 0.40486 0.0
H5494 H 0.94781 0.2573 0.37971 0.0
H5495 H 0.95406 0.22648 0.3719 0.0
H5496 H 0.96781 0.30224 0.37324 0.0
H5497 H 0.95468 0.25156 0.4254 0.0
H5498 H 0.96732 0.2336 0.44811 0.0
H5499 H 0.01806 0.29847 0.46721 0.0
H5500 H 0.00584 0.31678 0.44444 0.0
H5501 H 0.87694 0.29399 0.41919 0.0
H5502 H 0.90773 0.29003 0.40702 0.0
H5503 H 0.95553 0.35045 0.43509 0.0
H5504 H 0.92446 0.35489 0.44718 0.0
H5505 H 0.95892 0.30864 0.4402 0.0
H5506 H 0.95993 0.3571 0.39378 0.0
H5507 H 0.94421 0.37246 0.37144 0.0
H5508 H 0.91404 0.31031 0.34158 0.0
H5509 H 0.92924 0.2944 0.36391 0.0
C5510 C 0.00414 0.26085 0.39295 0.0
C5511 C 0.98724 0.24154 0.38417 0.0
C5512 C 0.00052 0.27863 0.39737 0.0
C5513 C 0.98001 0.27732 0.39299 0.0
C5514 C 0.96378 0.2587 0.38319 0.0
C5515 C 0.96731 0.24098 0.37887 0.0
C5516 C 0.9739 0.2937 0.40024 0.0
C5517 C 0.96615 0.30396 0.38788 0.0
C5518 C 0.97238 0.29649 0.41934 0.0
C5519 C 0.97957 0.28551 0.4331 0.0
C5520 C 0.96862 0.26197 0.43438 0.0
C5521 C 0.97569 0.25173 0.44726 0.0
C5522 C 0.99353 0.26489 0.45905 0.0
C5523 C 0.00428 0.2883 0.45803 0.0
C5524 C 0.9973 0.29862 0.44514 0.0
C5525 C 0.89398 0.3065 0.4228 0.0
C5526 C 0.8983 0.32467 0.43425 0.0
C5527 C 0.91155 0.3043 0.41571 0.0
C5528 C 0.93384 0.32005 0.42005 0.0
C5529 C 0.93839 0.33824 0.43152 0.0
C5530 C 0.92069 0.34073 0.43838 0.0
C5531 C 0.9518 0.31614 0.41318 0.0
C5532 C 0.96165 0.30804 0.42559 0.0
C5533 C 0.95502 0.31514 0.39411 0.0
C5534 C 0.94577 0.32455 0.38056 0.0
C5535 C 0.94982 0.34664 0.38253 0.0
C5536 C 0.94102 0.35546 0.36985 0.0
C5537 C 0.92818 0.34239 0.35509 0.0
C5538 C 0.92405 0.32044 0.353 0.0
C5539 C 0.9328 0.31153 0.36565 0.0
H5540 H 0.92147 0.34929 0.34524 0.0
H5541 H 0.99899 0.25694 0.46902 0.0
H5542 H 0.78046 0.73989 0.37535 0.0
H5543 H 0.75074 0.70186 0.38164 0.0
H5544 H 0.71009 0.72721 0.40507 0.0
H5545 H 0.74022 0.76581 0.39892 0.0
H5546 H 0.71325 0.69788 0.42774 0.0
H5547 H 0.69173 0.69583 0.36638 0.0
H5548 H 0.69613 0.70259 0.33302 0.0
H5549 H 0.72524 0.66022 0.3283 0.0
H5550 H 0.72139 0.65349 0.36167 0.0
H5551 H 0.65039 0.57609 0.44276 0.0
H5552 H 0.65647 0.61251 0.43162 0.0
H5553 H 0.71975 0.62661 0.40809 0.0
H5554 H 0.71412 0.59079 0.41933 0.0
H5555 H 0.69007 0.63457 0.38418 0.0
H5556 H 0.72194 0.64875 0.44675 0.0
H5557 H 0.71843 0.64292 0.48027 0.0
H5558 H 0.66826 0.66268 0.48193 0.0
H5559 H 0.6713 0.66835 0.44834 0.0
C5560 C 0.76511 0.73746 0.38162 0.0
C5561 C 0.76276 0.75588 0.38675 0.0
C5562 C 0.748 0.71565 0.38504 0.0
C5563 C 0.72806 0.71166 0.39361 0.0
C5564 C 0.72529 0.72995 0.3983 0.0
C5565 C 0.74247 0.75194 0.39474 0.0
C5566 C 0.71161 0.68846 0.3993 0.0
C5567 C 0.70745 0.68401 0.41813 0.0
C5568 C 0.70401 0.67036 0.38677 0.0
C5569 C 0.70625 0.67415 0.3666 0.0
C5570 C 0.69918 0.68803 0.35826 0.0
C5571 C 0.70157 0.69186 0.33933 0.0
C5572 C 0.71095 0.68183 0.32855 0.0
C5573 C 0.71793 0.66794 0.33667 0.0
C5574 C 0.7156 0.66407 0.3556 0.0
C5575 C 0.66558 0.587 0.43521 0.0
C5576 C 0.68186 0.58067 0.43202 0.0
C5577 C 0.66897 0.6077 0.42885 0.0
C5578 C 0.68847 0.62205 0.41896 0.0
C5579 C 0.70453 0.61563 0.4156 0.0
C5580 C 0.70137 0.59525 0.42218 0.0
C5581 C 0.69306 0.64431 0.41255 0.0
C5582 C 0.69494 0.64846 0.39362 0.0
C5583 C 0.69841 0.6621 0.42493 0.0
C5584 C 0.69659 0.65864 0.44505 0.0
C5585 C 0.71 0.65163 0.45425 0.0
C5586 C 0.70814 0.6484 0.47326 0.0
C5587 C 0.69306 0.65234 0.48322 0.0
C5588 C 0.67987 0.65957 0.47419 0.0
C5589 C 0.68166 0.66279 0.45518 0.0
H5590 H 0.69166 0.64985 0.49793 0.0
H5591 H 0.7128 0.68483 0.3139 0.0
H5592 H 0.89096 0.5984 0.94473 0.0
H5593 H 0.92108 0.63632 0.93869 0.0
H5594 H 0.96599 0.61124 0.92641 0.0
H5595 H 0.93553 0.57281 0.93202 0.0
H5596 H 0.96143 0.66491 0.9508 0.0
H5597 H 0.99832 0.64182 0.88986 0.0
H5598 H 0.98795 0.6106 0.86809 0.0
H5599 H 0.91848 0.59191 0.8727 0.0
H5600 H 0.9285 0.62315 0.89433 0.0
H5601 H 0.03007 0.77121 0.91047 0.0
H5602 H 0.02333 0.73412 0.92011 0.0
H5603 H 0.96633 0.70254 0.88368 0.0
H5604 H 0.97291 0.73928 0.87409 0.0
H5605 H 0.98785 0.67816 0.88618 0.0
H5606 H 0.95781 0.71402 0.92584 0.0
H5607 H 0.96145 0.74492 0.94549 0.0
H5608 H 0.00726 0.73715 0.98063 0.0
H5609 H 0.00404 0.70633 0.96102 0.0
C5610 C 0.90727 0.60084 0.94097 0.0
C5611 C 0.91067 0.58246 0.93854 0.0
C5612 C 0.92459 0.62264 0.93767 0.0
C5613 C 0.94572 0.62661 0.9319 0.0
C5614 C 0.9497 0.6085 0.93064 0.0
C5615 C 0.93228 0.58657 0.93388 0.0
C5616 C 0.96237 0.64938 0.92536 0.0
C5617 C 0.96771 0.6678 0.93682 0.0
C5618 C 0.97031 0.65321 0.90703 0.0
C5619 C 0.96414 0.63458 0.89387 0.0
C5620 C 0.98085 0.63105 0.88619 0.0
C5621 C 0.97503 0.61336 0.87388 0.0
C5622 C 0.95256 0.59922 0.86908 0.0
C5623 C 0.93587 0.60281 0.87649 0.0
C5624 C 0.9416 0.62049 0.88877 0.0
C5625 C 0.01658 0.75634 0.9041 0.0
C5626 C 0.00179 0.75803 0.89175 0.0
C5627 C 0.01274 0.73521 0.90964 0.0
C5628 C 0.99421 0.71564 0.90273 0.0
C5629 C 0.98075 0.71742 0.88914 0.0
C5630 C 0.98442 0.73843 0.88378 0.0
C5631 C 0.98635 0.69354 0.91149 0.0
C5632 C 0.98261 0.67528 0.90045 0.0
C5633 C 0.9791 0.68978 0.92999 0.0
C5634 C 0.98092 0.70811 0.94188 0.0
C5635 C 0.96876 0.71901 0.9377 0.0
C5636 C 0.97073 0.73649 0.94882 0.0
C5637 C 0.98464 0.74305 0.96426 0.0
C5638 C 0.99654 0.73209 0.96864 0.0
C5639 C 0.99465 0.71462 0.95753 0.0
H5640 H 0.98615 0.75658 0.97286 0.0
H5641 H 0.94809 0.58552 0.85957 0.0
H5642 H 0.43786 0.35945 0.92443 0.0
H5643 H 0.40064 0.35285 0.91567 0.0
H5644 H 0.36988 0.29045 0.94576 0.0
H5645 H 0.40677 0.29695 0.95463 0.0
H5646 H 0.37293 0.31849 0.8944 0.0
H5647 H 0.31878 0.27613 0.95987 0.0
H5648 H 0.32183 0.28217 0.99334 0.0
H5649 H 0.3697 0.35199 0.98527 0.0
H5650 H 0.3667 0.34649 0.95173 0.0
H5651 H 0.26914 0.22305 0.87933 0.0
H5652 H 0.30638 0.25284 0.88825 0.0
H5653 H 0.27819 0.29273 0.90778 0.0
H5654 H 0.24067 0.26287 0.89895 0.0
H5655 H 0.30474 0.28921 0.93326 0.0
H5656 H 0.31196 0.3109 0.87107 0.0
H5657 H 0.30909 0.30611 0.83746 0.0
H5658 H 0.35525 0.28123 0.83874 0.0
H5659 H 0.35816 0.28554 0.87238 0.0
C5660 C 0.42314 0.34468 0.92964 0.0
C5661 C 0.42524 0.3286 0.94008 0.0
C5662 C 0.4019 0.3409 0.92456 0.0
C5663 C 0.38249 0.3212 0.93009 0.0
C5664 C 0.38458 0.30593 0.94154 0.0
C5665 C 0.40572 0.30959 0.94649 0.0
C5666 C 0.3603 0.31476 0.92201 0.0
C5667 C 0.35803 0.31244 0.90287 0.0
C5668 C 0.34093 0.30737 0.93304 0.0
C5669 C 0.34255 0.31086 0.95324 0.0
C5670 C 0.32983 0.29282 0.96521 0.0
C5671 C 0.33159 0.29614 0.98421 0.0
C5672 C 0.34597 0.31744 0.99143 0.0
C5673 C 0.3586 0.33549 0.97966 0.0
C5674 C 0.3569 0.33227 0.96065 0.0
C5675 C 0.27083 0.23827 0.88526 0.0
C5676 C 0.25188 0.2405 0.88849 0.0
C5677 C 0.29218 0.25537 0.89026 0.0
C5678 C 0.29506 0.27507 0.89856 0.0
C5679 C 0.27631 0.27769 0.90132 0.0
C5680 C 0.25491 0.26062 0.89621 0.0
C5681 C 0.31741 0.29177 0.90579 0.0
C5682 C 0.31967 0.29592 0.92476 0.0
C5683 C 0.33679 0.30106 0.89458 0.0
C5684 C 0.33522 0.2985 0.8743 0.0
C5685 C 0.3214 0.30428 0.86421 0.0
C5686 C 0.31978 0.30166 0.84514 0.0
C5687 C 0.33197 0.29336 0.83597 0.0
C5688 C 0.34583 0.28768 0.84586 0.0
C5689 C 0.34751 0.29025 0.86493 0.0
H5690 H 0.33069 0.29134 0.82121 0.0
H5691 H 0.34732 0.31997 0.00614 0.0
H5692 H 0.6515 0.07974 0.92238 0.0
H5693 H 0.65818 0.04937 0.91294 0.0
H5694 H 0.72296 0.08307 0.93937 0.0
H5695 H 0.71646 0.1133 0.9489 0.0
H5696 H 0.69122 0.05441 0.8901 0.0
H5697 H 0.73702 0.04641 0.95486 0.0
H5698 H 0.73308 0.04591 0.98852 0.0
H5699 H 0.66305 0.02444 0.98287 0.0
H5700 H 0.66646 0.02447 0.94918 0.0
H5701 H 0.78505 0.04427 0.87375 0.0
H5702 H 0.7554 0.05199 0.88241 0.0
H5703 H 0.71725 0.98567 0.90578 0.0
H5704 H 0.7471 0.97779 0.89728 0.0
H5705 H 0.72183 0.01727 0.92963 0.0
H5706 H 0.69654 0.99866 0.86864 0.0
H5707 H 0.69927 0.99802 0.83493 0.0
H5708 H 0.72465 0.06912 0.83289 0.0
H5709 H 0.72241 0.07028 0.8666 0.0
C5710 C 0.66697 0.08045 0.92651 0.0
C5711 C 0.68353 0.09902 0.9363 0.0
C5712 C 0.67075 0.06311 0.92106 0.0
C5713 C 0.69097 0.0639 0.92557 0.0
C5714 C 0.70708 0.08194 0.93599 0.0
C5715 C 0.70341 0.09931 0.94131 0.0
C5716 C 0.69658 0.04739 0.91787 0.0
C5717 C 0.69759 0.04596 0.89871 0.0
C5718 C 0.70425 0.03586 0.92915 0.0
C5719 C 0.70203 0.03551 0.94945 0.0
C5720 C 0.72073 0.04141 0.96078 0.0
C5721 C 0.7186 0.04125 0.97988 0.0
C5722 C 0.69784 0.03518 0.98782 0.0
C5723 C 0.67914 0.0292 0.97669 0.0
C5724 C 0.68117 0.02931 0.9576 0.0
C5725 C 0.77023 0.03115 0.88048 0.0
C5726 C 0.76854 0.01047 0.88495 0.0
C5727 C 0.75317 0.03553 0.88528 0.0
C5728 C 0.73403 0.01933 0.8946 0.0
C5729 C 0.73186 0.99835 0.89851 0.0
C5730 C 0.74891 0.99388 0.89361 0.0
C5731 C 0.71776 0.02552 0.9019 0.0
C5732 C 0.7148 0.02507 0.92098 0.0
C5733 C 0.70806 0.03509 0.89054 0.0
C5734 C 0.70933 0.03454 0.8702 0.0
C5735 C 0.70282 0.01419 0.86102 0.0
C5736 C 0.70427 0.01373 0.8419 0.0
C5737 C 0.71213 0.03352 0.83177 0.0
C5738 C 0.71853 0.0538 0.84075 0.0
C5739 C 0.71713 0.05436 0.85987 0.0
H5740 H 0.71325 0.03313 0.81697 0.0
H5741 H 0.69623 0.03508 0.00261 0.0
H5742 H 0.76236 0.02118 0.58741 0.0
H5743 H 0.7264 0.01731 0.57791 0.0
H5744 H 0.69126 0.95658 0.60988 0.0
H5745 H 0.72689 0.96031 0.6194 0.0
H5746 H 0.69676 0.98264 0.55752 0.0
H5747 H 0.64203 0.94796 0.62408 0.0
H5748 H 0.6457 0.95681 0.65711 0.0
H5749 H 0.6971 0.02458 0.64569 0.0
H5750 H 0.69351 0.01628 0.61255 0.0
H5751 H 0.59325 0.88762 0.54777 0.0
H5752 H 0.6305 0.91888 0.5542 0.0
H5753 H 0.60183 0.9595 0.57066 0.0
H5754 H 0.56415 0.92796 0.56444 0.0
H5755 H 0.62936 0.9597 0.59622 0.0
H5756 H 0.63571 0.97462 0.53288 0.0
H5757 H 0.63229 0.96673 0.49967 0.0
H5758 H 0.67796 0.94147 0.50412 0.0
H5759 H 0.68137 0.94881 0.53741 0.0
C5760 C 0.74697 0.00736 0.59281 0.0
C5761 C 0.74742 0.99091 0.60401 0.0
C5762 C 0.72647 0.00517 0.58734 0.0
C5763 C 0.70619 0.98675 0.59326 0.0
C5764 C 0.7067 0.97113 0.60537 0.0
C5765 C 0.7271 0.97317 0.61068 0.0
C5766 C 0.68452 0.98167 0.58492 0.0
C5767 C 0.68203 0.978 0.5659 0.0
C5768 C 0.66548 0.97631 0.59582 0.0
C5769 C 0.66751 0.98146 0.61577 0.0
C5770 C 0.65399 0.96481 0.62857 0.0
C5771 C 0.6561 0.96972 0.64734 0.0
C5772 C 0.67164 0.99123 0.6535 0.0
C5773 C 0.6851 0.0079 0.6409 0.0
C5774 C 0.68306 0.00309 0.62212 0.0
C5775 C 0.59479 0.90327 0.55248 0.0
C5776 C 0.57568 0.9052 0.55574 0.0
C5777 C 0.61618 0.92126 0.55598 0.0
C5778 C 0.61898 0.94162 0.56272 0.0
C5779 C 0.60002 0.94396 0.56535 0.0
C5780 C 0.57853 0.92593 0.56176 0.0
C5781 C 0.64148 0.95912 0.56907 0.0
C5782 C 0.64412 0.96508 0.58771 0.0
C5783 C 0.66069 0.96675 0.55779 0.0
C5784 C 0.65878 0.96229 0.5377 0.0
C5785 C 0.64493 0.96726 0.52681 0.0
C5786 C 0.643 0.96289 0.50796 0.0
C5787 C 0.6549 0.9536 0.49979 0.0
C5788 C 0.66877 0.94868 0.51046 0.0
C5789 C 0.67074 0.95299 0.52933 0.0
H5790 H 0.65338 0.95023 0.4852 0.0
H5791 H 0.67325 0.99499 0.66803 0.0
H5792 H 0.03942 0.78745 0.59215 0.0
H5793 H 0.04398 0.7572 0.57973 0.0
H5794 H 0.97741 0.70859 0.59794 0.0
H5795 H 0.9724 0.73913 0.61037 0.0
H5796 H 0.01603 0.70055 0.60682 0.0
H5797 H 0.97918 0.71191 0.55637 0.0
H5798 H 0.97088 0.73429 0.53464 0.0
H5799 H 0.03824 0.76509 0.51382 0.0
H5800 H 0.04709 0.74321 0.53562 0.0
H5801 H 0.06676 0.64297 0.56437 0.0
H5802 H 0.0356 0.64996 0.57004 0.0
H5803 H 0.077 0.71851 0.55205 0.0
H5804 H 0.10778 0.71167 0.54609 0.0
H5805 H 0.03457 0.70223 0.54079 0.0
H5806 H 0.07365 0.7033 0.59781 0.0
H5807 H 0.08569 0.68532 0.62101 0.0
H5808 H 0.017 0.63459 0.63011 0.0
H5809 H 0.00462 0.65218 0.60679 0.0
C5810 C 0.0257 0.77037 0.59366 0.0
C5811 C 0.00555 0.76571 0.60231 0.0
C5812 C 0.0283 0.75311 0.58641 0.0
C5813 C 0.01093 0.73078 0.58775 0.0
C5814 C 0.9909 0.72581 0.59669 0.0
C5815 C 0.98811 0.74323 0.60377 0.0
C5816 C 0.01466 0.71306 0.58006 0.0
C5817 C 0.01927 0.70016 0.59228 0.0
C5818 C 0.0191 0.7129 0.56113 0.0
C5819 C 0.01379 0.72585 0.54767 0.0
C5820 C 0.99226 0.72352 0.54721 0.0
C5821 C 0.98745 0.73613 0.53487 0.0
C5822 C 0.00401 0.7511 0.52285 0.0
C5823 C 0.02541 0.75346 0.52312 0.0
C5824 C 0.03031 0.74091 0.53544 0.0
C5825 C 0.06905 0.65941 0.56132 0.0
C5826 C 0.08988 0.67686 0.55503 0.0
C5827 C 0.05124 0.66336 0.56458 0.0
C5828 C 0.05405 0.68481 0.56161 0.0
C5829 C 0.0744 0.7018 0.55438 0.0
C5830 C 0.0921 0.6979 0.55114 0.0
C5831 C 0.03714 0.69078 0.56771 0.0
C5832 C 0.03016 0.70156 0.55517 0.0
C5833 C 0.03083 0.6893 0.58639 0.0
C5834 C 0.03825 0.67884 0.60043 0.0
C5835 C 0.06115 0.68823 0.60469 0.0
C5836 C 0.06803 0.67813 0.61786 0.0
C5837 C 0.05212 0.65878 0.62698 0.0
C5838 C 0.0293 0.64954 0.62299 0.0
C5839 C 0.02235 0.65956 0.60981 0.0
H5840 H 0.05747 0.65098 0.63717 0.0
H5841 H 0.00027 0.76087 0.51332 0.0
H5842 H 0.2867 0.39982 0.54229 0.0
H5843 H 0.27925 0.36375 0.55446 0.0
H5844 H 0.34508 0.39519 0.57896 0.0
H5845 H 0.35272 0.43169 0.56708 0.0
H5846 H 0.30944 0.33951 0.55523 0.0
H5847 H 0.33098 0.38947 0.61165 0.0
H5848 H 0.3315 0.42145 0.62759 0.0
H5849 H 0.26064 0.39239 0.61849 0.0
H5850 H 0.25981 0.36038 0.60232 0.0
H5851 H 0.25397 0.23801 0.60716 0.0
H5852 H 0.2841 0.27614 0.60012 0.0
H5853 H 0.23666 0.2998 0.60285 0.0
H5854 H 0.20683 0.26227 0.61033 0.0
H5855 H 0.2748 0.33013 0.61675 0.0
H5856 H 0.25039 0.28333 0.56177 0.0
H5857 H 0.24436 0.25078 0.54315 0.0
H5858 H 0.31471 0.27262 0.5462 0.0
H5859 H 0.32108 0.30517 0.56504 0.0
C5860 C 0.29985 0.39909 0.54989 0.0
C5861 C 0.32015 0.41873 0.55399 0.0
C5862 C 0.29558 0.37843 0.55676 0.0
C5863 C 0.31152 0.37702 0.56777 0.0
C5864 C 0.33256 0.39612 0.57057 0.0
C5865 C 0.33689 0.41691 0.56371 0.0
C5866 C 0.30447 0.35621 0.5782 0.0
C5867 C 0.30259 0.33748 0.56897 0.0
C5868 C 0.29497 0.35363 0.59585 0.0
C5869 C 0.2954 0.37272 0.60566 0.0
C5870 C 0.31557 0.39002 0.61295 0.0
C5871 C 0.31591 0.40811 0.62204 0.0
C5872 C 0.29612 0.40895 0.62404 0.0
C5873 C 0.27595 0.39171 0.61694 0.0
C5874 C 0.27554 0.3736 0.60781 0.0
C5875 C 0.25005 0.25142 0.60655 0.0
C5876 C 0.22789 0.24699 0.60907 0.0
C5877 C 0.26728 0.27318 0.60249 0.0
C5878 C 0.26256 0.29074 0.60072 0.0
C5879 C 0.24073 0.28653 0.60418 0.0
C5880 C 0.22361 0.26495 0.60835 0.0
C5881 C 0.27949 0.31313 0.59375 0.0
C5882 C 0.28282 0.33216 0.6035 0.0
C5883 C 0.28995 0.31587 0.57643 0.0
C5884 C 0.28616 0.29647 0.56499 0.0
C5885 C 0.26454 0.28109 0.55855 0.0
C5886 C 0.26106 0.26266 0.54796 0.0
C5887 C 0.27912 0.25959 0.54355 0.0
C5888 C 0.30072 0.27499 0.54967 0.0
C5889 C 0.30428 0.29343 0.5603 0.0
H5890 H 0.2764 0.2453 0.53536 0.0
H5891 H 0.29643 0.42293 0.63113 0.0
H5892 H 0.1052 0.40584 0.76271 0.0
H5893 H 0.06796 0.37546 0.75365 0.0
H5894 H 0.03759 0.41053 0.77901 0.0
H5895 H 0.07446 0.44064 0.78824 0.0
H5896 H 0.0106 0.36542 0.78211 0.0
H5897 H 0.05384 0.42088 0.73482 0.0
H5898 H 0.08732 0.44144 0.71518 0.0
H5899 H 0.07604 0.37916 0.69205 0.0
H5900 H 0.04262 0.35824 0.71175 0.0
H5901 H 0.93697 0.37182 0.71041 0.0
H5902 H 0.9744 0.37998 0.71924 0.0
H5903 H 0.94698 0.31321 0.74151 0.0
H5904 H 0.90918 0.30494 0.73299 0.0
H5905 H 0.00319 0.36467 0.71429 0.0
H5906 H 0.973 0.31901 0.78282 0.0
H5907 H 0.93961 0.30341 0.80292 0.0
H5908 H 0.92451 0.35352 0.78387 0.0
H5909 H 0.95796 0.36955 0.76387 0.0
C5910 C 0.09052 0.40672 0.76684 0.0
C5911 C 0.09276 0.42581 0.77589 0.0
C5912 C 0.06928 0.38938 0.76162 0.0
C5913 C 0.05008 0.39093 0.76543 0.0
C5914 C 0.05218 0.409 0.77591 0.0
C5915 C 0.07331 0.4263 0.78105 0.0
C5916 C 0.02834 0.37597 0.75639 0.0
C5917 C 0.00899 0.36475 0.76728 0.0
C5918 C 0.02623 0.37544 0.73704 0.0
C5919 C 0.04593 0.388 0.72487 0.0
C5920 C 0.05857 0.41159 0.72558 0.0
C5921 C 0.07753 0.4233 0.71445 0.0
C5922 C 0.08385 0.4116 0.70242 0.0
C5923 C 0.07115 0.38819 0.70141 0.0
C5924 C 0.0522 0.37639 0.71255 0.0
C5925 C 0.93885 0.35866 0.71686 0.0
C5926 C 0.91999 0.33788 0.72133 0.0
C5927 C 0.96034 0.36332 0.72178 0.0
C5928 C 0.96342 0.34732 0.73128 0.0
C5929 C 0.9449 0.32587 0.73436 0.0
C5930 C 0.92331 0.32118 0.72946 0.0
C5931 C 0.98542 0.35446 0.74003 0.0
C5932 C 0.00481 0.36435 0.72909 0.0
C5933 C 0.98755 0.35434 0.75936 0.0
C5934 C 0.96779 0.34526 0.77172 0.0
C5935 C 0.96259 0.32672 0.783 0.0
C5936 C 0.94366 0.31781 0.79435 0.0
C5937 C 0.9299 0.32741 0.79461 0.0
C5938 C 0.93513 0.34605 0.78361 0.0
C5939 C 0.95407 0.35505 0.77227 0.0
H5940 H 0.91522 0.32044 0.80338 0.0
H5941 H 0.09856 0.42068 0.69384 0.0
H5942 H 0.56076 0.619 0.77762 0.0
H5943 H 0.59152 0.61291 0.7694 0.0
H5944 H 0.63212 0.6827 0.75446 0.0
H5945 H 0.60104 0.68896 0.76238 0.0
H5946 H 0.63215 0.65618 0.72789 0.0
H5947 H 0.64659 0.66209 0.79182 0.0
H5948 H 0.63738 0.65535 0.82475 0.0
H5949 H 0.61264 0.58488 0.81711 0.0
H5950 H 0.62137 0.59111 0.78409 0.0
H5951 H 0.70013 0.59094 0.73479 0.0
H5952 H 0.69346 0.62116 0.74474 0.0
H5953 H 0.6329 0.59262 0.71231 0.0
H5954 H 0.63937 0.56246 0.70241 0.0
H5955 H 0.65672 0.61188 0.76504 0.0
H5956 H 0.62137 0.63225 0.69935 0.0
H5957 H 0.63053 0.63885 0.66641 0.0
H5958 H 0.69915 0.65852 0.67799 0.0
H5959 H 0.69052 0.65239 0.71104 0.0
C5960 C 0.5763 0.6332 0.77285 0.0
C5961 C 0.57833 0.65445 0.77057 0.0
C5962 C 0.59399 0.62971 0.76828 0.0
C5963 C 0.61423 0.64741 0.76151 0.0
C5964 C 0.61667 0.66884 0.75976 0.0
C5965 C 0.5989 0.67239 0.76434 0.0
C5966 C 0.63173 0.64264 0.75465 0.0
C5967 C 0.63786 0.64682 0.73607 0.0
C5968 C 0.63964 0.63094 0.76547 0.0
C5969 C 0.63465 0.6271 0.78543 0.0
C5970 C 0.63911 0.64514 0.79714 0.0
C5971 C 0.63396 0.6414 0.81583 0.0
C5972 C 0.62442 0.6197 0.82302 0.0
C5973 C 0.62005 0.60169 0.81153 0.0
C5974 C 0.62515 0.60533 0.79283 0.0
C5975 C 0.68579 0.59153 0.72932 0.0
C5976 C 0.67014 0.57423 0.71794 0.0
C5977 C 0.68197 0.60875 0.73508 0.0
C5978 C 0.66273 0.60915 0.72924 0.0
C5979 C 0.64801 0.59282 0.71681 0.0
C5980 C 0.65165 0.57549 0.71124 0.0
C5981 C 0.65593 0.62425 0.73805 0.0
C5982 C 0.65172 0.62193 0.757 0.0
C5983 C 0.64988 0.63772 0.72759 0.0
C5984 C 0.65526 0.64179 0.70771 0.0
C5985 C 0.63846 0.63816 0.69491 0.0
C5986 C 0.64355 0.64177 0.6762 0.0
C5987 C 0.6654 0.64907 0.67011 0.0
C5988 C 0.68222 0.65281 0.68272 0.0
C5989 C 0.67723 0.64924 0.70144 0.0
H5990 H 0.6693 0.65183 0.65562 0.0
H5991 H 0.62042 0.61685 0.83749 0.0
H5992 H 0.45325 0.06949 0.70822 0.0
H5993 H 0.42428 0.03175 0.71674 0.0
H5994 H 0.38447 0.05819 0.73992 0.0
H5995 H 0.4136 0.09623 0.7316 0.0
H5996 H 0.39015 0.03244 0.76398 0.0
H5997 H 0.36517 0.02404 0.70271 0.0
H5998 H 0.36802 0.0266 0.66897 0.0
H5999 H 0.39447 0.98174 0.66834 0.0
H6000 H 0.39212 0.97913 0.70211 0.0
H6001 H 0.31814 0.89982 0.7579 0.0
H6002 H 0.32631 0.93709 0.7478 0.0
H6003 H 0.38996 0.96681 0.77596 0.0
H6004 H 0.38195 0.92981 0.7862 0.0
H6005 H 0.36042 0.96396 0.72544 0.0
H6006 H 0.40523 0.01872 0.78985 0.0
H6007 H 0.4008 0.0161 0.82349 0.0
H6008 H 0.33062 0.96823 0.81752 0.0
H6009 H 0.33454 0.9708 0.78383 0.0
C6010 C 0.43817 0.06731 0.71482 0.0
C6011 C 0.43588 0.08595 0.71937 0.0
C6012 C 0.42151 0.04566 0.71957 0.0
C6013 C 0.40215 0.04214 0.72889 0.0
C6014 C 0.39927 0.06055 0.73269 0.0
C6015 C 0.41593 0.08227 0.72787 0.0
C6016 C 0.38645 0.01961 0.73644 0.0
C6017 C 0.38336 0.01746 0.75554 0.0
C6018 C 0.37714 0.0001 0.72536 0.0
C6019 C 0.37854 0.00147 0.705 0.0
C6020 C 0.37174 0.01482 0.6954 0.0
C6021 C 0.37324 0.01626 0.67626 0.0
C6022 C 0.38143 0.00435 0.66653 0.0
C6023 C 0.3881 0.99093 0.67592 0.0
C6024 C 0.38665 0.98944 0.69506 0.0
C6025 C 0.33365 0.91433 0.76232 0.0
C6026 C 0.34946 0.9118 0.77279 0.0
C6027 C 0.33831 0.9356 0.75646 0.0
C6028 C 0.35868 0.9547 0.76118 0.0
C6029 C 0.37398 0.95233 0.77236 0.0
C6030 C 0.36943 0.93111 0.77813 0.0
C6031 C 0.3652 0.97687 0.75302 0.0
C6032 C 0.36666 0.97894 0.73383 0.0
C6033 C 0.37276 0.9963 0.76399 0.0
C6034 C 0.37022 0.99489 0.78428 0.0
C6035 C 0.38882 0.00775 0.79569 0.0
C6036 C 0.3864 0.00624 0.81478 0.0
C6037 C 0.36545 0.99198 0.82264 0.0
C6038 C 0.34686 0.97922 0.81142 0.0
C6039 C 0.34917 0.98068 0.79232 0.0
H6040 H 0.36362 0.99083 0.83742 0.0
H6041 H 0.38259 0.00549 0.65171 0.0
H6042 H 0.68009 0.09765 0.23758 0.0
H6043 H 0.67426 0.06085 0.2471 0.0
H6044 H 0.61006 0.0285 0.21967 0.0
H6045 H 0.61575 0.06481 0.21008 0.0
H6046 H 0.64151 0.03188 0.26936 0.0
H6047 H 0.59702 0.97898 0.20358 0.0
H6048 H 0.60212 0.98304 0.17004 0.0
H6049 H 0.67193 0.03145 0.1773 0.0
H6050 H 0.66738 0.02745 0.21089 0.0
H6051 H 0.5452 0.93117 0.28446 0.0
H6052 H 0.5762 0.96758 0.27552 0.0
H6053 H 0.6116 0.93586 0.25324 0.0
H6054 H 0.58032 0.899 0.26202 0.0
H6055 H 0.61044 0.96459 0.22925 0.0
H6056 H 0.63316 0.96917 0.29054 0.0
H6057 H 0.6293 0.96516 0.32417 0.0
H6058 H 0.60696 0.01335 0.32607 0.0
H6059 H 0.61033 0.0174 0.29243 0.0
C6060 C 0.66494 0.08264 0.2333 0.0
C6061 C 0.6483 0.08414 0.22319 0.0
C6062 C 0.66164 0.06167 0.23877 0.0
C6063 C 0.64186 0.04195 0.23392 0.0
C6064 C 0.62566 0.04345 0.22328 0.0
C6065 C 0.62884 0.06428 0.21795 0.0
C6066 C 0.63654 0.01985 0.2415 0.0
C6067 C 0.63509 0.01717 0.26063 0.0
C6068 C 0.62892 0.00076 0.23007 0.0
C6069 C 0.63183 0.00292 0.20981 0.0
C6070 C 0.61352 0.99035 0.19805 0.0
C6071 C 0.6163 0.99268 0.17901 0.0
C6072 C 0.63733 0.00751 0.17155 0.0
C6073 C 0.65564 0.02001 0.1831 0.0
C6074 C 0.65296 0.01772 0.20215 0.0
C6075 C 0.55963 0.93184 0.27783 0.0
C6076 C 0.56019 0.91211 0.27388 0.0
C6077 C 0.57748 0.95275 0.27288 0.0
C6078 C 0.59636 0.95446 0.26395 0.0
C6079 C 0.59725 0.93489 0.26026 0.0
C6080 C 0.57936 0.91387 0.26529 0.0
C6081 C 0.61387 0.97663 0.25702 0.0
C6082 C 0.61759 0.97931 0.23802 0.0
C6083 C 0.62389 0.99572 0.26858 0.0
C6084 C 0.62201 0.99358 0.2889 0.0
C6085 C 0.62732 0.97884 0.2981 0.0
C6086 C 0.62522 0.97656 0.31718 0.0
C6087 C 0.61789 0.98899 0.32725 0.0
C6088 C 0.61268 0.00376 0.31825 0.0
C6089 C 0.61473 0.00609 0.29917 0.0
H6090 H 0.61625 0.98718 0.34201 0.0
H6091 H 0.63943 0.00932 0.15681 0.0
H6092 H 0.09305 0.68747 0.26295 0.0
H6093 H 0.05581 0.68199 0.25541 0.0
H6094 H 0.02504 0.61436 0.27651 0.0
H6095 H 0.06169 0.6197 0.28419 0.0
H6096 H 0.02763 0.65263 0.23113 0.0
H6097 H 0.97543 0.59636 0.29333 0.0
H6098 H 0.97903 0.59644 0.32697 0.0
H6099 H 0.02455 0.66761 0.32628 0.0
H6100 H 0.02096 0.66808 0.29264 0.0
H6101 H 0.93397 0.55242 0.21155 0.0
H6102 H 0.9683 0.58516 0.22203 0.0
H6103 H 0.92965 0.6122 0.24644 0.0
H6104 H 0.89487 0.57923 0.23588 0.0
H6105 H 0.96001 0.61146 0.27031 0.0
H6106 H 0.96274 0.64095 0.21188 0.0
H6107 H 0.95919 0.6413 0.17824 0.0
H6108 H 0.01225 0.62611 0.17178 0.0
H6109 H 0.01592 0.6253 0.20537 0.0
C6110 C 0.07828 0.67161 0.2663 0.0
C6111 C 0.08032 0.65394 0.274 0.0
C6112 C 0.05706 0.66853 0.262 0.0
C6113 C 0.03764 0.64789 0.26564 0.0
C6114 C 0.03971 0.63062 0.27396 0.0
C6115 C 0.06076 0.63361 0.27813 0.0
C6116 C 0.01534 0.64284 0.25873 0.0
C6117 C 0.01282 0.64406 0.23973 0.0
C6118 C 0.99605 0.63239 0.27006 0.0
C6119 C 0.9979 0.63226 0.29039 0.0
C6120 C 0.98603 0.61209 0.30034 0.0
C6121 C 0.98813 0.61203 0.31942 0.0
C6122 C 0.00202 0.63202 0.32876 0.0
C6123 C 0.01382 0.65213 0.31903 0.0
C6124 C 0.01178 0.6523 0.29994 0.0
C6125 C 0.9327 0.56539 0.21899 0.0
C6126 C 0.91169 0.56317 0.22297 0.0
C6127 C 0.95237 0.58423 0.22481 0.0
C6128 C 0.95152 0.60125 0.23478 0.0
C6129 C 0.93063 0.59933 0.2386 0.0
C6130 C 0.91083 0.58051 0.23256 0.0
C6131 C 0.97254 0.6196 0.24266 0.0
C6132 C 0.97478 0.62086 0.26181 0.0
C6133 C 0.99156 0.63252 0.2315 0.0
C6134 C 0.98961 0.6331 0.21121 0.0
C6135 C 0.97359 0.63758 0.2033 0.0
C6136 C 0.97156 0.63786 0.18423 0.0
C6137 C 0.98549 0.63374 0.17288 0.0
C6138 C 0.0015 0.62934 0.18059 0.0
C6139 C 0.0036 0.62903 0.19966 0.0
H6140 H 0.98389 0.63396 0.15811 0.0
H6141 H 0.00364 0.63192 0.34353 0.0
H6142 H 0.37411 0.44809 0.28332 0.0
H6143 H 0.38341 0.42053 0.27175 0.0
H6144 H 0.31802 0.38326 0.24681 0.0
H6145 H 0.30844 0.41106 0.25821 0.0
H6146 H 0.35243 0.36395 0.27096 0.0
H6147 H 0.336 0.39589 0.21467 0.0
H6148 H 0.33658 0.42852 0.19993 0.0
H6149 H 0.40686 0.46922 0.21202 0.0
H6150 H 0.40657 0.43686 0.22703 0.0
H6151 H 0.41452 0.32261 0.22039 0.0
H6152 H 0.38364 0.32941 0.22789 0.0
H6153 H 0.43021 0.40078 0.22871 0.0
H6154 H 0.46075 0.39428 0.22084 0.0
H6155 H 0.3935 0.39315 0.21225 0.0
H6156 H 0.41255 0.36779 0.2684 0.0
H6157 H 0.41692 0.34046 0.28733 0.0
H6158 H 0.3472 0.29195 0.27963 0.0
H6159 H 0.3425 0.31896 0.26047 0.0
C6160 C 0.36148 0.43386 0.27566 0.0
C6161 C 0.34066 0.43198 0.27141 0.0
C6162 C 0.36678 0.41803 0.2692 0.0
C6163 C 0.35141 0.40004 0.25842 0.0
C6164 C 0.33002 0.3971 0.25518 0.0
C6165 C 0.32463 0.413 0.26167 0.0
C6166 C 0.35954 0.38684 0.24848 0.0
C6167 C 0.36071 0.36961 0.25777 0.0
C6168 C 0.37087 0.39486 0.23162 0.0
C6169 C 0.37123 0.41403 0.222 0.0
C6170 C 0.35154 0.41182 0.21421 0.0
C6171 C 0.35182 0.43026 0.20582 0.0
C6172 C 0.37174 0.45095 0.20506 0.0
C6173 C 0.39144 0.4532 0.21262 0.0
C6174 C 0.39123 0.43482 0.22104 0.0
C6175 C 0.41811 0.33974 0.22206 0.0
C6176 C 0.44013 0.35789 0.22005 0.0
C6177 C 0.40046 0.34358 0.22636 0.0
C6178 C 0.40464 0.36559 0.22893 0.0
C6179 C 0.42653 0.38366 0.22664 0.0
C6180 C 0.44404 0.37988 0.2222 0.0
C6181 C 0.38678 0.37031 0.23481 0.0
C6182 C 0.38413 0.38632 0.22486 0.0
C6183 C 0.37445 0.3614 0.25124 0.0
C6184 C 0.37725 0.34525 0.26282 0.0
C6185 C 0.3982 0.35124 0.27065 0.0
C6186 C 0.40073 0.33582 0.28143 0.0
C6187 C 0.38236 0.31445 0.28463 0.0
C6188 C 0.36142 0.30849 0.2771 0.0
C6189 C 0.35881 0.32384 0.26628 0.0
H6190 H 0.38435 0.30254 0.29297 0.0
H6191 H 0.37191 0.46522 0.19862 0.0
loop_
_geom_bond_atom_site_label_1
_geom_bond_atom_site_label_2
_geom_bond_distance
_geom_bond_site_symmetry_2
_ccdc_geom_bond_type
Sc0 O3 2.025 . S
Sc0 O10 2.105 . S
Sc0 O13 2.105 . S
Sc0 O16 2.105 1_455 S
Sc0 O19 2.105 . S
Sc1 O3 2.025 . S
Sc1 O11 2.105 . S
Sc1 O15 2.105 . S
Sc1 O17 2.105 . S
Sc1 O21 2.105 . S
Sc2 O3 2.025 . S
Sc2 O12 2.105 . S
Sc2 O14 2.105 1_455 S
Sc2 O18 2.105 . S
Sc2 O20 2.105 1_455 S
O3 Sc0 2.025 . S
O3 Sc1 2.025 . S
O3 Sc2 2.025 . S
C4 O10 1.268 1_655 S
C4 O20 1.268 . S
C5 O11 1.268 . S
C5 O19 1.268 . S
C6 O12 1.268 . S
C6 O21 1.268 . S
C7 O13 1.268 . S
C7 O17 1.268 . S
C8 O14 1.268 . S
C8 O16 1.268 . S
C9 O15 1.268 . S
C9 O18 1.268 . S
O10 Sc0 2.105 . S
O10 C4 1.268 1_455 S
O11 Sc1 2.105 . S
O11 C5 1.268 . S
O12 Sc2 2.105 . S
O12 C6 1.268 . S
O13 Sc0 2.105 . S
O13 C7 1.268 . S
O14 Sc2 2.105 1_655 S
O14 C8 1.268 . S
O15 Sc1 2.105 . S
O15 C9 1.268 . S
O16 Sc0 2.105 1_655 S
O16 C8 1.268 . S
O17 Sc1 2.105 . S
O17 C7 1.268 . S
O18 Sc2 2.105 . S
O18 C9 1.268 . S
O19 Sc0 2.105 . S
O19 C5 1.268 . S
O20 Sc2 2.105 1_655 S
O20 C4 1.268 . S
O21 Sc1 2.105 . S
O21 C6 1.268 . S
Sc22 O25 2.025 . S
Sc22 O32 2.105 . S
Sc22 O35 2.105 . S
Sc22 O38 2.105 . S
Sc22 O41 2.105 . S
Sc23 O25 2.025 . S
Sc23 O33 2.105 . S
Sc23 O37 2.105 . S
Sc23 O39 2.105 . S
Sc23 O43 2.105 . S
Sc24 O25 2.025 . S
Sc24 O34 2.105 . S
Sc24 O36 2.105 . S
Sc24 O40 2.105 . S
Sc24 O42 2.105 . S
O25 Sc22 2.025 . S
O25 Sc23 2.025 . S
O25 Sc24 2.025 . S
C26 O32 1.268 . S
C26 O42 1.268 . S
C27 O33 1.268 . S
C27 O41 1.268 . S
C28 O34 1.268 . S
C28 O43 1.268 . S
C29 O35 1.268 . S
C29 O39 1.268 . S
C30 O36 1.268 . S
C30 O38 1.268 . S
C31 O37 1.268 . S
C31 O40 1.268 . S
O32 Sc22 2.105 . S
O32 C26 1.268 . S
O33 Sc23 2.105 . S
O33 C27 1.268 . S
O34 Sc24 2.105 . S
O34 C28 1.268 . S
O35 Sc22 2.105 . S
O35 C29 1.268 . S
O36 Sc24 2.105 . S
O36 C30 1.268 . S
O37 Sc23 2.105 . S
O37 C31 1.268 . S
O38 Sc22 2.105 . S
O38 C30 1.268 . S
O39 Sc23 2.105 . S
O39 C29 1.268 . S
O40 Sc24 2.105 . S
O40 C31 1.268 . S
O41 Sc22 2.105 . S
O41 C27 1.268 . S
O42 Sc24 2.105 . S
O42 C26 1.268 . S
O43 Sc23 2.105 . S
O43 C28 1.268 . S
Sc44 O47 2.025 . S
Sc44 O54 2.105 . S
Sc44 O57 2.105 . S
Sc44 O60 2.105 1_565 S
Sc44 O63 2.105 . S
Sc45 O47 2.025 . S
Sc45 O55 2.105 . S
Sc45 O59 2.105 . S
Sc45 O61 2.105 . S
Sc45 O65 2.105 . S
Sc46 O47 2.025 . S
Sc46 O56 2.105 . S
Sc46 O58 2.105 1_565 S
Sc46 O62 2.105 . S
Sc46 O64 2.105 1_565 S
O47 Sc44 2.025 . S
O47 Sc45 2.025 . S
O47 Sc46 2.025 . S
C48 O54 1.268 1_545 S
C48 O64 1.268 . S
C49 O55 1.268 . S
C49 O63 1.268 . S
C50 O56 1.268 . S
C50 O65 1.268 . S
C51 O57 1.268 . S
C51 O61 1.268 . S
C52 O58 1.268 . S
C52 O60 1.268 . S
C53 O59 1.268 . S
C53 O62 1.268 . S
O54 Sc44 2.105 . S
O54 C48 1.268 1_565 S
O55 Sc45 2.105 . S
O55 C49 1.268 . S
O56 Sc46 2.105 . S
O56 C50 1.268 . S
O57 Sc44 2.105 . S
O57 C51 1.268 . S
O58 Sc46 2.105 1_545 S
O58 C52 1.268 . S
O59 Sc45 2.105 . S
O59 C53 1.268 . S
O60 Sc44 2.105 1_545 S
O60 C52 1.268 . S
O61 Sc45 2.105 . S
O61 C51 1.268 . S
O62 Sc46 2.105 . S
O62 C53 1.268 . S
O63 Sc44 2.105 . S
O63 C49 1.268 . S
O64 Sc46 2.105 1_545 S
O64 C48 1.268 . S
O65 Sc45 2.105 . S
O65 C50 1.268 . S
Sc66 O69 2.025 . S
Sc66 O76 2.105 . S
Sc66 O79 2.105 . S
Sc66 O82 2.105 1_545 S
Sc66 O85 2.105 . S
Sc67 O69 2.025 . S
Sc67 O77 2.105 . S
Sc67 O81 2.105 . S
Sc67 O83 2.105 . S
Sc67 O87 2.105 . S
Sc68 O69 2.025 . S
Sc68 O78 2.105 . S
Sc68 O80 2.105 1_545 S
Sc68 O84 2.105 . S
Sc68 O86 2.105 1_545 S
O69 Sc66 2.025 . S
O69 Sc67 2.025 . S
O69 Sc68 2.025 . S
C70 O76 1.268 1_565 S
C70 O86 1.268 . S
C71 O77 1.268 . S
C71 O85 1.268 . S
C72 O78 1.268 . S
C72 O87 1.268 . S
C73 O79 1.268 . S
C73 O83 1.268 . S
C74 O80 1.268 . S
C74 O82 1.268 . S
C75 O81 1.268 . S
C75 O84 1.268 . S
O76 Sc66 2.105 . S
O76 C70 1.268 1_545 S
O77 Sc67 2.105 . S
O77 C71 1.268 . S
O78 Sc68 2.105 . S
O78 C72 1.268 . S
O79 Sc66 2.105 . S
O79 C73 1.268 . S
O80 Sc68 2.105 1_565 S
O80 C74 1.268 . S
O81 Sc67 2.105 . S
O81 C75 1.268 . S
O82 Sc66 2.105 1_565 S
O82 C74 1.268 . S
O83 Sc67 2.105 . S
O83 C73 1.268 . S
O84 Sc68 2.105 . S
O84 C75 1.268 . S
O85 Sc66 2.105 . S
O85 C71 1.268 . S
O86 Sc68 2.105 1_565 S
O86 C70 1.268 . S
O87 Sc67 2.105 . S
O87 C72 1.268 . S
Sc88 O91 2.025 . S
Sc88 O98 2.105 . S
Sc88 O101 2.105 . S
Sc88 O104 2.105 1_655 S
Sc88 O107 2.105 . S
Sc89 O91 2.025 . S
Sc89 O99 2.105 . S
Sc89 O103 2.105 . S
Sc89 O105 2.105 . S
Sc89 O109 2.105 . S
Sc90 O91 2.025 . S
Sc90 O100 2.105 . S
Sc90 O102 2.105 1_655 S
Sc90 O106 2.105 . S
Sc90 O108 2.105 1_655 S
O91 Sc88 2.025 . S
O91 Sc89 2.025 . S
O91 Sc90 2.025 . S
C92 O98 1.268 1_455 S
C92 O108 1.268 . S
C93 O99 1.268 . S
C93 O107 1.268 . S
C94 O100 1.268 . S
C94 O109 1.268 . S
C95 O101 1.268 . S
C95 O105 1.268 . S
C96 O102 1.268 . S
C96 O104 1.268 . S
C97 O103 1.268 . S
C97 O106 1.268 . S
O98 Sc88 2.105 . S
O98 C92 1.268 1_655 S
O99 Sc89 2.105 . S
O99 C93 1.268 . S
O100 Sc90 2.105 . S
O100 C94 1.268 . S
O101 Sc88 2.105 . S
O101 C95 1.268 . S
O102 Sc90 2.105 1_455 S
O102 C96 1.268 . S
O103 Sc89 2.105 . S
O103 C97 1.268 . S
O104 Sc88 2.105 1_455 S
O104 C96 1.268 . S
O105 Sc89 2.105 . S
O105 C95 1.268 . S
O106 Sc90 2.105 . S
O106 C97 1.268 . S
O107 Sc88 2.105 . S
O107 C93 1.268 . S
O108 Sc90 2.105 1_455 S
O108 C92 1.268 . S
O109 Sc89 2.105 . S
O109 C94 1.268 . S
Sc110 O113 2.025 . S
Sc110 O120 2.105 . S
Sc110 O123 2.105 . S
Sc110 O126 2.105 . S
Sc110 O129 2.105 . S
Sc111 O113 2.025 . S
Sc111 O121 2.105 . S
Sc111 O125 2.105 . S
Sc111 O127 2.105 . S
Sc111 O131 2.105 . S
Sc112 O113 2.025 . S
Sc112 O122 2.105 . S
Sc112 O124 2.105 . S
Sc112 O128 2.105 . S
Sc112 O130 2.105 . S
O113 Sc110 2.025 . S
O113 Sc111 2.025 . S
O113 Sc112 2.025 . S
C114 O120 1.268 . S
C114 O130 1.268 . S
C115 O121 1.268 . S
C115 O129 1.268 . S
C116 O122 1.268 . S
C116 O131 1.268 . S
C117 O123 1.268 . S
C117 O127 1.268 . S
C118 O124 1.268 . S
C118 O126 1.268 . S
C119 O125 1.268 . S
C119 O128 1.268 . S
O120 Sc110 2.105 . S
O120 C114 1.268 . S
O121 Sc111 2.105 . S
O121 C115 1.268 . S
O122 Sc112 2.105 . S
O122 C116 1.268 . S
O123 Sc110 2.105 . S
O123 C117 1.268 . S
O124 Sc112 2.105 . S
O124 C118 1.268 . S
O125 Sc111 2.105 . S
O125 C119 1.268 . S
O126 Sc110 2.105 . S
O126 C118 1.268 . S
O127 Sc111 2.105 . S
O127 C117 1.268 . S
O128 Sc112 2.105 . S
O128 C119 1.268 . S
O129 Sc110 2.105 . S
O129 C115 1.268 . S
O130 Sc112 2.105 . S
O130 C114 1.268 . S
O131 Sc111 2.105 . S
O131 C116 1.268 . S
Sc132 O135 2.025 . S
Sc132 O142 2.105 1_655 S
Sc132 O145 2.105 . S
Sc132 O148 2.105 1_655 S
Sc132 O151 2.105 . S
Sc133 O135 2.025 . S
Sc133 O143 2.105 . S
Sc133 O147 2.105 . S
Sc133 O149 2.105 . S
Sc133 O153 2.105 . S
Sc134 O135 2.025 . S
Sc134 O144 2.105 . S
Sc134 O146 2.105 1_655 S
Sc134 O150 2.105 . S
Sc134 O152 2.105 . S
O135 Sc132 2.025 . S
O135 Sc133 2.025 . S
O135 Sc134 2.025 . S
C136 O142 1.268 . S
C136 O152 1.268 1_455 S
C137 O143 1.268 . S
C137 O151 1.268 . S
C138 O144 1.268 . S
C138 O153 1.268 . S
C139 O145 1.268 . S
C139 O149 1.268 . S
C140 O146 1.268 . S
C140 O148 1.268 . S
C141 O147 1.268 . S
C141 O150 1.268 . S
O142 Sc132 2.105 1_455 S
O142 C136 1.268 . S
O143 Sc133 2.105 . S
O143 C137 1.268 . S
O144 Sc134 2.105 . S
O144 C138 1.268 . S
O145 Sc132 2.105 . S
O145 C139 1.268 . S
O146 Sc134 2.105 1_455 S
O146 C140 1.268 . S
O147 Sc133 2.105 . S
O147 C141 1.268 . S
O148 Sc132 2.105 1_455 S
O148 C140 1.268 . S
O149 Sc133 2.105 . S
O149 C139 1.268 . S
O150 Sc134 2.105 . S
O150 C141 1.268 . S
O151 Sc132 2.105 . S
O151 C137 1.268 . S
O152 Sc134 2.105 . S
O152 C136 1.268 1_655 S
O153 Sc133 2.105 . S
O153 C138 1.268 . S
Sc154 O157 2.025 . S
Sc154 O164 2.105 . S
Sc154 O167 2.105 . S
Sc154 O170 2.105 . S
Sc154 O173 2.105 . S
Sc155 O157 2.025 . S
Sc155 O165 2.105 . S
Sc155 O169 2.105 . S
Sc155 O171 2.105 . S
Sc155 O175 2.105 . S
Sc156 O157 2.025 . S
Sc156 O166 2.105 . S
Sc156 O168 2.105 . S
Sc156 O172 2.105 . S
Sc156 O174 2.105 . S
O157 Sc154 2.025 . S
O157 Sc155 2.025 . S
O157 Sc156 2.025 . S
C158 O164 1.268 . S
C158 O174 1.268 . S
C159 O165 1.268 . S
C159 O173 1.268 . S
C160 O166 1.268 . S
C160 O175 1.268 . S
C161 O167 1.268 . S
C161 O171 1.268 . S
C162 O168 1.268 . S
C162 O170 1.268 . S
C163 O169 1.268 . S
C163 O172 1.268 . S
O164 Sc154 2.105 . S
O164 C158 1.268 . S
O165 Sc155 2.105 . S
O165 C159 1.268 . S
O166 Sc156 2.105 . S
O166 C160 1.268 . S
O167 Sc154 2.105 . S
O167 C161 1.268 . S
O168 Sc156 2.105 . S
O168 C162 1.268 . S
O169 Sc155 2.105 . S
O169 C163 1.268 . S
O170 Sc154 2.105 . S
O170 C162 1.268 . S
O171 Sc155 2.105 . S
O171 C161 1.268 . S
O172 Sc156 2.105 . S
O172 C163 1.268 . S
O173 Sc154 2.105 . S
O173 C159 1.268 . S
O174 Sc156 2.105 . S
O174 C158 1.268 . S
O175 Sc155 2.105 . S
O175 C160 1.268 . S
Sc176 O179 2.025 . S
Sc176 O186 2.105 1_545 S
Sc176 O189 2.105 . S
Sc176 O192 2.105 1_545 S
Sc176 O195 2.105 . S
Sc177 O179 2.025 . S
Sc177 O187 2.105 . S
Sc177 O191 2.105 . S
Sc177 O193 2.105 . S
Sc177 O197 2.105 . S
Sc178 O179 2.025 . S
Sc178 O188 2.105 . S
Sc178 O190 2.105 1_545 S
Sc178 O194 2.105 . S
Sc178 O196 2.105 . S
O179 Sc176 2.025 . S
O179 Sc177 2.025 . S
O179 Sc178 2.025 . S
C180 O186 1.268 . S
C180 O196 1.268 1_565 S
C181 O187 1.268 . S
C181 O195 1.268 . S
C182 O188 1.268 . S
C182 O197 1.268 . S
C183 O189 1.268 . S
C183 O193 1.268 . S
C184 O190 1.268 . S
C184 O192 1.268 . S
C185 O191 1.268 . S
C185 O194 1.268 . S
O186 Sc176 2.105 1_565 S
O186 C180 1.268 . S
O187 Sc177 2.105 . S
O187 C181 1.268 . S
O188 Sc178 2.105 . S
O188 C182 1.268 . S
O189 Sc176 2.105 . S
O189 C183 1.268 . S
O190 Sc178 2.105 1_565 S
O190 C184 1.268 . S
O191 Sc177 2.105 . S
O191 C185 1.268 . S
O192 Sc176 2.105 1_565 S
O192 C184 1.268 . S
O193 Sc177 2.105 . S
O193 C183 1.268 . S
O194 Sc178 2.105 . S
O194 C185 1.268 . S
O195 Sc176 2.105 . S
O195 C181 1.268 . S
O196 Sc178 2.105 . S
O196 C180 1.268 1_545 S
O197 Sc177 2.105 . S
O197 C182 1.268 . S
Sc198 O201 2.025 . S
Sc198 O208 2.105 1_565 S
Sc198 O211 2.105 . S
Sc198 O214 2.105 1_565 S
Sc198 O217 2.105 . S
Sc199 O201 2.025 . S
Sc199 O209 2.105 . S
Sc199 O213 2.105 . S
Sc199 O215 2.105 . S
Sc199 O219 2.105 . S
Sc200 O201 2.025 . S
Sc200 O210 2.105 . S
Sc200 O212 2.105 1_565 S
Sc200 O216 2.105 . S
Sc200 O218 2.105 . S
O201 Sc198 2.025 . S
O201 Sc199 2.025 . S
O201 Sc200 2.025 . S
C202 O208 1.268 . S
C202 O218 1.268 1_545 S
C203 O209 1.268 . S
C203 O217 1.268 . S
C204 O210 1.268 . S
C204 O219 1.268 . S
C205 O211 1.268 . S
C205 O215 1.268 . S
C206 O212 1.268 . S
C206 O214 1.268 . S
C207 O213 1.268 . S
C207 O216 1.268 . S
O208 Sc198 2.105 1_545 S
O208 C202 1.268 . S
O209 Sc199 2.105 . S
O209 C203 1.268 . S
O210 Sc200 2.105 . S
O210 C204 1.268 . S
O211 Sc198 2.105 . S
O211 C205 1.268 . S
O212 Sc200 2.105 1_545 S
O212 C206 1.268 . S
O213 Sc199 2.105 . S
O213 C207 1.268 . S
O214 Sc198 2.105 1_545 S
O214 C206 1.268 . S
O215 Sc199 2.105 . S
O215 C205 1.268 . S
O216 Sc200 2.105 . S
O216 C207 1.268 . S
O217 Sc198 2.105 . S
O217 C203 1.268 . S
O218 Sc200 2.105 . S
O218 C202 1.268 1_565 S
O219 Sc199 2.105 . S
O219 C204 1.268 . S
Sc220 O223 2.025 . S
Sc220 O230 2.105 1_455 S
Sc220 O233 2.105 . S
Sc220 O236 2.105 1_455 S
Sc220 O239 2.105 . S
Sc221 O223 2.025 . S
Sc221 O231 2.105 . S
Sc221 O235 2.105 . S
Sc221 O237 2.105 . S
Sc221 O241 2.105 . S
Sc222 O223 2.025 . S
Sc222 O232 2.105 . S
Sc222 O234 2.105 1_455 S
Sc222 O238 2.105 . S
Sc222 O240 2.105 . S
O223 Sc220 2.025 . S
O223 Sc221 2.025 . S
O223 Sc222 2.025 . S
C224 O230 1.268 . S
C224 O240 1.268 1_655 S
C225 O231 1.268 . S
C225 O239 1.268 . S
C226 O232 1.268 . S
C226 O241 1.268 . S
C227 O233 1.268 . S
C227 O237 1.268 . S
C228 O234 1.268 . S
C228 O236 1.268 . S
C229 O235 1.268 . S
C229 O238 1.268 . S
O230 Sc220 2.105 1_655 S
O230 C224 1.268 . S
O231 Sc221 2.105 . S
O231 C225 1.268 . S
O232 Sc222 2.105 . S
O232 C226 1.268 . S
O233 Sc220 2.105 . S
O233 C227 1.268 . S
O234 Sc222 2.105 1_655 S
O234 C228 1.268 . S
O235 Sc221 2.105 . S
O235 C229 1.268 . S
O236 Sc220 2.105 1_655 S
O236 C228 1.268 . S
O237 Sc221 2.105 . S
O237 C227 1.268 . S
O238 Sc222 2.105 . S
O238 C229 1.268 . S
O239 Sc220 2.105 . S
O239 C225 1.268 . S
O240 Sc222 2.105 . S
O240 C224 1.268 1_455 S
O241 Sc221 2.105 . S
O241 C226 1.268 . S
Sc242 O245 2.025 . S
Sc242 O252 2.105 . S
Sc242 O255 2.105 . S
Sc242 O258 2.105 . S
Sc242 O261 2.105 . S
Sc243 O245 2.025 . S
Sc243 O253 2.105 . S
Sc243 O257 2.105 . S
Sc243 O259 2.105 . S
Sc243 O263 2.105 . S
Sc244 O245 2.025 . S
Sc244 O254 2.105 . S
Sc244 O256 2.105 . S
Sc244 O260 2.105 . S
Sc244 O262 2.105 . S
O245 Sc242 2.025 . S
O245 Sc243 2.025 . S
O245 Sc244 2.025 . S
C246 O252 1.268 . S
C246 O262 1.268 . S
C247 O253 1.268 . S
C247 O261 1.268 . S
C248 O254 1.268 . S
C248 O263 1.268 . S
C249 O255 1.268 . S
C249 O259 1.268 . S
C250 O256 1.268 . S
C250 O258 1.268 . S
C251 O257 1.268 . S
C251 O260 1.268 . S
O252 Sc242 2.105 . S
O252 C246 1.268 . S
O253 Sc243 2.105 . S
O253 C247 1.268 . S
O254 Sc244 2.105 . S
O254 C248 1.268 . S
O255 Sc242 2.105 . S
O255 C249 1.268 . S
O256 Sc244 2.105 . S
O256 C250 1.268 . S
O257 Sc243 2.105 . S
O257 C251 1.268 . S
O258 Sc242 2.105 . S
O258 C250 1.268 . S
O259 Sc243 2.105 . S
O259 C249 1.268 . S
O260 Sc244 2.105 . S
O260 C251 1.268 . S
O261 Sc242 2.105 . S
O261 C247 1.268 . S
O262 Sc244 2.105 . S
O262 C246 1.268 . S
O263 Sc243 2.105 . S
O263 C248 1.268 . S
Sc264 O267 2.025 . S
Sc264 O274 2.105 . S
Sc264 O277 2.105 . S
Sc264 O280 2.105 . S
Sc264 O283 2.105 . S
Sc265 O267 2.025 . S
Sc265 O275 2.105 . S
Sc265 O279 2.105 . S
Sc265 O281 2.105 . S
Sc265 O285 2.105 . S
Sc266 O267 2.025 . S
Sc266 O276 2.105 . S
Sc266 O278 2.105 . S
Sc266 O282 2.105 . S
Sc266 O284 2.105 . S
O267 Sc264 2.025 . S
O267 Sc265 2.025 . S
O267 Sc266 2.025 . S
C268 O274 1.268 . S
C268 O284 1.268 . S
C269 O275 1.268 . S
C269 O283 1.268 . S
C270 O276 1.268 . S
C270 O285 1.268 . S
C271 O277 1.268 . S
C271 O281 1.268 . S
C272 O278 1.268 . S
C272 O280 1.268 . S
C273 O279 1.268 . S
C273 O282 1.268 . S
O274 Sc264 2.105 . S
O274 C268 1.268 . S
O275 Sc265 2.105 . S
O275 C269 1.268 . S
O276 Sc266 2.105 . S
O276 C270 1.268 . S
O277 Sc264 2.105 . S
O277 C271 1.268 . S
O278 Sc266 2.105 . S
O278 C272 1.268 . S
O279 Sc265 2.105 . S
O279 C273 1.268 . S
O280 Sc264 2.105 . S
O280 C272 1.268 . S
O281 Sc265 2.105 . S
O281 C271 1.268 . S
O282 Sc266 2.105 . S
O282 C273 1.268 . S
O283 Sc264 2.105 . S
O283 C269 1.268 . S
O284 Sc266 2.105 . S
O284 C268 1.268 . S
O285 Sc265 2.105 . S
O285 C270 1.268 . S
Sc286 O289 2.025 . S
Sc286 O296 2.105 . S
Sc286 O299 2.105 . S
Sc286 O302 2.105 . S
Sc286 O305 2.105 . S
Sc287 O289 2.025 . S
Sc287 O297 2.105 . S
Sc287 O301 2.105 . S
Sc287 O303 2.105 . S
Sc287 O307 2.105 . S
Sc288 O289 2.025 . S
Sc288 O298 2.105 . S
Sc288 O300 2.105 . S
Sc288 O304 2.105 . S
Sc288 O306 2.105 . S
O289 Sc286 2.025 . S
O289 Sc287 2.025 . S
O289 Sc288 2.025 . S
C290 O296 1.268 . S
C290 O306 1.268 . S
C291 O297 1.268 . S
C291 O305 1.268 . S
C292 O298 1.268 . S
C292 O307 1.268 . S
C293 O299 1.268 . S
C293 O303 1.268 . S
C294 O300 1.268 . S
C294 O302 1.268 . S
C295 O301 1.268 . S
C295 O304 1.268 . S
O296 Sc286 2.105 . S
O296 C290 1.268 . S
O297 Sc287 2.105 . S
O297 C291 1.268 . S
O298 Sc288 2.105 . S
O298 C292 1.268 . S
O299 Sc286 2.105 . S
O299 C293 1.268 . S
O300 Sc288 2.105 . S
O300 C294 1.268 . S
O301 Sc287 2.105 . S
O301 C295 1.268 . S
O302 Sc286 2.105 . S
O302 C294 1.268 . S
O303 Sc287 2.105 . S
O303 C293 1.268 . S
O304 Sc288 2.105 . S
O304 C295 1.268 . S
O305 Sc286 2.105 . S
O305 C291 1.268 . S
O306 Sc288 2.105 . S
O306 C290 1.268 . S
O307 Sc287 2.105 . S
O307 C292 1.268 . S
Sc308 O311 2.025 . S
Sc308 O318 2.105 . S
Sc308 O321 2.105 . S
Sc308 O324 2.105 . S
Sc308 O327 2.105 . S
Sc309 O311 2.025 . S
Sc309 O319 2.105 . S
Sc309 O323 2.105 . S
Sc309 O325 2.105 . S
Sc309 O329 2.105 . S
Sc310 O311 2.025 . S
Sc310 O320 2.105 . S
Sc310 O322 2.105 . S
Sc310 O326 2.105 . S
Sc310 O328 2.105 . S
O311 Sc308 2.025 . S
O311 Sc309 2.025 . S
O311 Sc310 2.025 . S
C312 O318 1.268 . S
C312 O328 1.268 . S
C313 O319 1.268 . S
C313 O327 1.268 . S
C314 O320 1.268 . S
C314 O329 1.268 . S
C315 O321 1.268 . S
C315 O325 1.268 . S
C316 O322 1.268 . S
C316 O324 1.268 . S
C317 O323 1.268 . S
C317 O326 1.268 . S
O318 Sc308 2.105 . S
O318 C312 1.268 . S
O319 Sc309 2.105 . S
O319 C313 1.268 . S
O320 Sc310 2.105 . S
O320 C314 1.268 . S
O321 Sc308 2.105 . S
O321 C315 1.268 . S
O322 Sc310 2.105 . S
O322 C316 1.268 . S
O323 Sc309 2.105 . S
O323 C317 1.268 . S
O324 Sc308 2.105 . S
O324 C316 1.268 . S
O325 Sc309 2.105 . S
O325 C315 1.268 . S
O326 Sc310 2.105 . S
O326 C317 1.268 . S
O327 Sc308 2.105 . S
O327 C313 1.268 . S
O328 Sc310 2.105 . S
O328 C312 1.268 . S
O329 Sc309 2.105 . S
O329 C314 1.268 . S
Sc330 O333 2.025 . S
Sc330 O340 2.105 . S
Sc330 O343 2.105 . S
Sc330 O346 2.105 . S
Sc330 O349 2.105 . S
Sc331 O333 2.025 . S
Sc331 O341 2.105 . S
Sc331 O345 2.105 . S
Sc331 O347 2.105 . S
Sc331 O351 2.105 . S
Sc332 O333 2.025 . S
Sc332 O342 2.105 . S
Sc332 O344 2.105 . S
Sc332 O348 2.105 . S
Sc332 O350 2.105 . S
O333 Sc330 2.025 . S
O333 Sc331 2.025 . S
O333 Sc332 2.025 . S
C334 O340 1.268 . S
C334 O350 1.268 . S
C335 O341 1.268 . S
C335 O349 1.268 . S
C336 O342 1.268 . S
C336 O351 1.268 . S
C337 O343 1.268 . S
C337 O347 1.268 . S
C338 O344 1.268 . S
C338 O346 1.268 . S
C339 O345 1.268 . S
C339 O348 1.268 . S
O340 Sc330 2.105 . S
O340 C334 1.268 . S
O341 Sc331 2.105 . S
O341 C335 1.268 . S
O342 Sc332 2.105 . S
O342 C336 1.268 . S
O343 Sc330 2.105 . S
O343 C337 1.268 . S
O344 Sc332 2.105 . S
O344 C338 1.268 . S
O345 Sc331 2.105 . S
O345 C339 1.268 . S
O346 Sc330 2.105 . S
O346 C338 1.268 . S
O347 Sc331 2.105 . S
O347 C337 1.268 . S
O348 Sc332 2.105 . S
O348 C339 1.268 . S
O349 Sc330 2.105 . S
O349 C335 1.268 . S
O350 Sc332 2.105 . S
O350 C334 1.268 . S
O351 Sc331 2.105 . S
O351 C336 1.268 . S
Sc352 O355 2.025 . S
Sc352 O362 2.105 . S
Sc352 O365 2.105 . S
Sc352 O368 2.105 . S
Sc352 O371 2.105 . S
Sc353 O355 2.025 . S
Sc353 O363 2.105 . S
Sc353 O367 2.105 . S
Sc353 O369 2.105 . S
Sc353 O373 2.105 . S
Sc354 O355 2.025 . S
Sc354 O364 2.105 . S
Sc354 O366 2.105 . S
Sc354 O370 2.105 . S
Sc354 O372 2.105 . S
O355 Sc352 2.025 . S
O355 Sc353 2.025 . S
O355 Sc354 2.025 . S
C356 O362 1.268 . S
C356 O372 1.268 . S
C357 O363 1.268 . S
C357 O371 1.268 . S
C358 O364 1.268 . S
C358 O373 1.268 . S
C359 O365 1.268 . S
C359 O369 1.268 . S
C360 O366 1.268 . S
C360 O368 1.268 . S
C361 O367 1.268 . S
C361 O370 1.268 . S
O362 Sc352 2.105 . S
O362 C356 1.268 . S
O363 Sc353 2.105 . S
O363 C357 1.268 . S
O364 Sc354 2.105 . S
O364 C358 1.268 . S
O365 Sc352 2.105 . S
O365 C359 1.268 . S
O366 Sc354 2.105 . S
O366 C360 1.268 . S
O367 Sc353 2.105 . S
O367 C361 1.268 . S
O368 Sc352 2.105 . S
O368 C360 1.268 . S
O369 Sc353 2.105 . S
O369 C359 1.268 . S
O370 Sc354 2.105 . S
O370 C361 1.268 . S
O371 Sc352 2.105 . S
O371 C357 1.268 . S
O372 Sc354 2.105 . S
O372 C356 1.268 . S
O373 Sc353 2.105 . S
O373 C358 1.268 . S
Sc374 O377 2.025 . S
Sc374 O384 2.105 . S
Sc374 O387 2.105 . S
Sc374 O390 2.105 . S
Sc374 O393 2.105 . S
Sc375 O377 2.025 . S
Sc375 O385 2.105 . S
Sc375 O389 2.105 . S
Sc375 O391 2.105 . S
Sc375 O395 2.105 . S
Sc376 O377 2.025 . S
Sc376 O386 2.105 . S
Sc376 O388 2.105 . S
Sc376 O392 2.105 . S
Sc376 O394 2.105 . S
O377 Sc374 2.025 . S
O377 Sc375 2.025 . S
O377 Sc376 2.025 . S
C378 O384 1.268 . S
C378 O394 1.268 . S
C379 O385 1.268 . S
C379 O393 1.268 . S
C380 O386 1.268 . S
C380 O395 1.268 . S
C381 O387 1.268 . S
C381 O391 1.268 . S
C382 O388 1.268 . S
C382 O390 1.268 . S
C383 O389 1.268 . S
C383 O392 1.268 . S
O384 Sc374 2.105 . S
O384 C378 1.268 . S
O385 Sc375 2.105 . S
O385 C379 1.268 . S
O386 Sc376 2.105 . S
O386 C380 1.268 . S
O387 Sc374 2.105 . S
O387 C381 1.268 . S
O388 Sc376 2.105 . S
O388 C382 1.268 . S
O389 Sc375 2.105 . S
O389 C383 1.268 . S
O390 Sc374 2.105 . S
O390 C382 1.268 . S
O391 Sc375 2.105 . S
O391 C381 1.268 . S
O392 Sc376 2.105 . S
O392 C383 1.268 . S
O393 Sc374 2.105 . S
O393 C379 1.268 . S
O394 Sc376 2.105 . S
O394 C378 1.268 . S
O395 Sc375 2.105 . S
O395 C380 1.268 . S
Sc396 O399 2.025 . S
Sc396 O406 2.105 . S
Sc396 O409 2.105 . S
Sc396 O412 2.105 . S
Sc396 O415 2.105 . S
Sc397 O399 2.025 . S
Sc397 O407 2.105 . S
Sc397 O411 2.105 . S
Sc397 O413 2.105 . S
Sc397 O417 2.105 . S
Sc398 O399 2.025 . S
Sc398 O408 2.105 . S
Sc398 O410 2.105 . S
Sc398 O414 2.105 . S
Sc398 O416 2.105 . S
O399 Sc396 2.025 . S
O399 Sc397 2.025 . S
O399 Sc398 2.025 . S
C400 O406 1.268 . S
C400 O416 1.268 . S
C401 O407 1.268 . S
C401 O415 1.268 . S
C402 O408 1.268 . S
C402 O417 1.268 . S
C403 O409 1.268 . S
C403 O413 1.268 . S
C404 O410 1.268 . S
C404 O412 1.268 . S
C405 O411 1.268 . S
C405 O414 1.268 . S
O406 Sc396 2.105 . S
O406 C400 1.268 . S
O407 Sc397 2.105 . S
O407 C401 1.268 . S
O408 Sc398 2.105 . S
O408 C402 1.268 . S
O409 Sc396 2.105 . S
O409 C403 1.268 . S
O410 Sc398 2.105 . S
O410 C404 1.268 . S
O411 Sc397 2.105 . S
O411 C405 1.268 . S
O412 Sc396 2.105 . S
O412 C404 1.268 . S
O413 Sc397 2.105 . S
O413 C403 1.268 . S
O414 Sc398 2.105 . S
O414 C405 1.268 . S
O415 Sc396 2.105 . S
O415 C401 1.268 . S
O416 Sc398 2.105 . S
O416 C400 1.268 . S
O417 Sc397 2.105 . S
O417 C402 1.268 . S
Sc418 O421 2.025 . S
Sc418 O428 2.105 . S
Sc418 O431 2.105 . S
Sc418 O434 2.105 . S
Sc418 O437 2.105 . S
Sc419 O421 2.025 . S
Sc419 O429 2.105 . S
Sc419 O433 2.105 . S
Sc419 O435 2.105 . S
Sc419 O439 2.105 . S
Sc420 O421 2.025 . S
Sc420 O430 2.105 . S
Sc420 O432 2.105 . S
Sc420 O436 2.105 . S
Sc420 O438 2.105 . S
O421 Sc418 2.025 . S
O421 Sc419 2.025 . S
O421 Sc420 2.025 . S
C422 O428 1.268 . S
C422 O438 1.268 . S
C423 O429 1.268 . S
C423 O437 1.268 . S
C424 O430 1.268 . S
C424 O439 1.268 . S
C425 O431 1.268 . S
C425 O435 1.268 . S
C426 O432 1.268 . S
C426 O434 1.268 . S
C427 O433 1.268 . S
C427 O436 1.268 . S
O428 Sc418 2.105 . S
O428 C422 1.268 . S
O429 Sc419 2.105 . S
O429 C423 1.268 . S
O430 Sc420 2.105 . S
O430 C424 1.268 . S
O431 Sc418 2.105 . S
O431 C425 1.268 . S
O432 Sc420 2.105 . S
O432 C426 1.268 . S
O433 Sc419 2.105 . S
O433 C427 1.268 . S
O434 Sc418 2.105 . S
O434 C426 1.268 . S
O435 Sc419 2.105 . S
O435 C425 1.268 . S
O436 Sc420 2.105 . S
O436 C427 1.268 . S
O437 Sc418 2.105 . S
O437 C423 1.268 . S
O438 Sc420 2.105 . S
O438 C422 1.268 . S
O439 Sc419 2.105 . S
O439 C424 1.268 . S
Sc440 O443 2.025 . S
Sc440 O450 2.105 . S
Sc440 O453 2.105 . S
Sc440 O456 2.105 . S
Sc440 O459 2.105 . S
Sc441 O443 2.025 . S
Sc441 O451 2.105 . S
Sc441 O455 2.105 . S
Sc441 O457 2.105 . S
Sc441 O461 2.105 . S
Sc442 O443 2.025 . S
Sc442 O452 2.105 . S
Sc442 O454 2.105 . S
Sc442 O458 2.105 . S
Sc442 O460 2.105 . S
O443 Sc440 2.025 . S
O443 Sc441 2.025 . S
O443 Sc442 2.025 . S
C444 O450 1.268 . S
C444 O460 1.268 . S
C445 O451 1.268 . S
C445 O459 1.268 . S
C446 O452 1.268 . S
C446 O461 1.268 . S
C447 O453 1.268 . S
C447 O457 1.268 . S
C448 O454 1.268 . S
C448 O456 1.268 . S
C449 O455 1.268 . S
C449 O458 1.268 . S
O450 Sc440 2.105 . S
O450 C444 1.268 . S
O451 Sc441 2.105 . S
O451 C445 1.268 . S
O452 Sc442 2.105 . S
O452 C446 1.268 . S
O453 Sc440 2.105 . S
O453 C447 1.268 . S
O454 Sc442 2.105 . S
O454 C448 1.268 . S
O455 Sc441 2.105 . S
O455 C449 1.268 . S
O456 Sc440 2.105 . S
O456 C448 1.268 . S
O457 Sc441 2.105 . S
O457 C447 1.268 . S
O458 Sc442 2.105 . S
O458 C449 1.268 . S
O459 Sc440 2.105 . S
O459 C445 1.268 . S
O460 Sc442 2.105 . S
O460 C444 1.268 . S
O461 Sc441 2.105 . S
O461 C446 1.268 . S
Sc462 O465 2.025 . S
Sc462 O472 2.105 . S
Sc462 O475 2.105 . S
Sc462 O478 2.105 . S
Sc462 O481 2.105 . S
Sc463 O465 2.025 . S
Sc463 O473 2.105 . S
Sc463 O477 2.105 . S
Sc463 O479 2.105 . S
Sc463 O483 2.105 . S
Sc464 O465 2.025 . S
Sc464 O474 2.105 . S
Sc464 O476 2.105 . S
Sc464 O480 2.105 . S
Sc464 O482 2.105 . S
O465 Sc462 2.025 . S
O465 Sc463 2.025 . S
O465 Sc464 2.025 . S
C466 O472 1.268 . S
C466 O482 1.268 . S
C467 O473 1.268 . S
C467 O481 1.268 . S
C468 O474 1.268 . S
C468 O483 1.268 . S
C469 O475 1.268 . S
C469 O479 1.268 . S
C470 O476 1.268 . S
C470 O478 1.268 . S
C471 O477 1.268 . S
C471 O480 1.268 . S
O472 Sc462 2.105 . S
O472 C466 1.268 . S
O473 Sc463 2.105 . S
O473 C467 1.268 . S
O474 Sc464 2.105 . S
O474 C468 1.268 . S
O475 Sc462 2.105 . S
O475 C469 1.268 . S
O476 Sc464 2.105 . S
O476 C470 1.268 . S
O477 Sc463 2.105 . S
O477 C471 1.268 . S
O478 Sc462 2.105 . S
O478 C470 1.268 . S
O479 Sc463 2.105 . S
O479 C469 1.268 . S
O480 Sc464 2.105 . S
O480 C471 1.268 . S
O481 Sc462 2.105 . S
O481 C467 1.268 . S
O482 Sc464 2.105 . S
O482 C466 1.268 . S
O483 Sc463 2.105 . S
O483 C468 1.268 . S
Sc484 O487 2.025 . S
Sc484 O494 2.105 . S
Sc484 O497 2.105 . S
Sc484 O500 2.105 . S
Sc484 O503 2.105 . S
Sc485 O487 2.025 . S
Sc485 O495 2.105 . S
Sc485 O499 2.105 . S
Sc485 O501 2.105 . S
Sc485 O505 2.105 . S
Sc486 O487 2.025 . S
Sc486 O496 2.105 . S
Sc486 O498 2.105 . S
Sc486 O502 2.105 . S
Sc486 O504 2.105 . S
O487 Sc484 2.025 . S
O487 Sc485 2.025 . S
O487 Sc486 2.025 . S
C488 O494 1.268 . S
C488 O504 1.268 . S
C489 O495 1.268 . S
C489 O503 1.268 . S
C490 O496 1.268 . S
C490 O505 1.268 . S
C491 O497 1.268 . S
C491 O501 1.268 . S
C492 O498 1.268 . S
C492 O500 1.268 . S
C493 O499 1.268 . S
C493 O502 1.268 . S
O494 Sc484 2.105 . S
O494 C488 1.268 . S
O495 Sc485 2.105 . S
O495 C489 1.268 . S
O496 Sc486 2.105 . S
O496 C490 1.268 . S
O497 Sc484 2.105 . S
O497 C491 1.268 . S
O498 Sc486 2.105 . S
O498 C492 1.268 . S
O499 Sc485 2.105 . S
O499 C493 1.268 . S
O500 Sc484 2.105 . S
O500 C492 1.268 . S
O501 Sc485 2.105 . S
O501 C491 1.268 . S
O502 Sc486 2.105 . S
O502 C493 1.268 . S
O503 Sc484 2.105 . S
O503 C489 1.268 . S
O504 Sc486 2.105 . S
O504 C488 1.268 . S
O505 Sc485 2.105 . S
O505 C490 1.268 . S
Sc506 O509 2.025 . S
Sc506 O516 2.105 . S
Sc506 O519 2.105 . S
Sc506 O522 2.105 . S
Sc506 O525 2.105 . S
Sc507 O509 2.025 . S
Sc507 O517 2.105 . S
Sc507 O521 2.105 . S
Sc507 O523 2.105 . S
Sc507 O527 2.105 . S
Sc508 O509 2.025 . S
Sc508 O518 2.105 . S
Sc508 O520 2.105 . S
Sc508 O524 2.105 . S
Sc508 O526 2.105 . S
O509 Sc506 2.025 . S
O509 Sc507 2.025 . S
O509 Sc508 2.025 . S
C510 O516 1.268 . S
C510 O526 1.268 . S
C511 O517 1.268 . S
C511 O525 1.268 . S
C512 O518 1.268 . S
C512 O527 1.268 . S
C513 O519 1.268 . S
C513 O523 1.268 . S
C514 O520 1.268 . S
C514 O522 1.268 . S
C515 O521 1.268 . S
C515 O524 1.268 . S
O516 Sc506 2.105 . S
O516 C510 1.268 . S
O517 Sc507 2.105 . S
O517 C511 1.268 . S
O518 Sc508 2.105 . S
O518 C512 1.268 . S
O519 Sc506 2.105 . S
O519 C513 1.268 . S
O520 Sc508 2.105 . S
O520 C514 1.268 . S
O521 Sc507 2.105 . S
O521 C515 1.268 . S
O522 Sc506 2.105 . S
O522 C514 1.268 . S
O523 Sc507 2.105 . S
O523 C513 1.268 . S
O524 Sc508 2.105 . S
O524 C515 1.268 . S
O525 Sc506 2.105 . S
O525 C511 1.268 . S
O526 Sc508 2.105 . S
O526 C510 1.268 . S
O527 Sc507 2.105 . S
O527 C512 1.268 . S
Sc528 O531 2.025 . S
Sc528 O538 2.105 . S
Sc528 O541 2.105 . S
Sc528 O544 2.105 . S
Sc528 O547 2.105 . S
Sc529 O531 2.025 . S
Sc529 O539 2.105 . S
Sc529 O543 2.105 . S
Sc529 O545 2.105 . S
Sc529 O549 2.105 . S
Sc530 O531 2.025 . S
Sc530 O540 2.105 . S
Sc530 O542 2.105 . S
Sc530 O546 2.105 . S
Sc530 O548 2.105 . S
O531 Sc528 2.025 . S
O531 Sc529 2.025 . S
O531 Sc530 2.025 . S
C532 O538 1.268 . S
C532 O548 1.268 . S
C533 O539 1.268 . S
C533 O547 1.268 . S
C534 O540 1.268 . S
C534 O549 1.268 . S
C535 O541 1.268 . S
C535 O545 1.268 . S
C536 O542 1.268 . S
C536 O544 1.268 . S
C537 O543 1.268 . S
C537 O546 1.268 . S
O538 Sc528 2.105 . S
O538 C532 1.268 . S
O539 Sc529 2.105 . S
O539 C533 1.268 . S
O540 Sc530 2.105 . S
O540 C534 1.268 . S
O541 Sc528 2.105 . S
O541 C535 1.268 . S
O542 Sc530 2.105 . S
O542 C536 1.268 . S
O543 Sc529 2.105 . S
O543 C537 1.268 . S
O544 Sc528 2.105 . S
O544 C536 1.268 . S
O545 Sc529 2.105 . S
O545 C535 1.268 . S
O546 Sc530 2.105 . S
O546 C537 1.268 . S
O547 Sc528 2.105 . S
O547 C533 1.268 . S
O548 Sc530 2.105 . S
O548 C532 1.268 . S
O549 Sc529 2.105 . S
O549 C534 1.268 . S
Sc550 O553 2.025 . S
Sc550 O560 2.105 . S
Sc550 O563 2.105 . S
Sc550 O566 2.105 . S
Sc550 O569 2.105 . S
Sc551 O553 2.025 . S
Sc551 O561 2.105 . S
Sc551 O565 2.105 . S
Sc551 O567 2.105 . S
Sc551 O571 2.105 . S
Sc552 O553 2.025 . S
Sc552 O562 2.105 . S
Sc552 O564 2.105 . S
Sc552 O568 2.105 . S
Sc552 O570 2.105 . S
O553 Sc550 2.025 . S
O553 Sc551 2.025 . S
O553 Sc552 2.025 . S
C554 O560 1.268 . S
C554 O570 1.268 . S
C555 O561 1.268 . S
C555 O569 1.268 . S
C556 O562 1.268 . S
C556 O571 1.268 . S
C557 O563 1.268 . S
C557 O567 1.268 . S
C558 O564 1.268 . S
C558 O566 1.268 . S
C559 O565 1.268 . S
C559 O568 1.268 . S
O560 Sc550 2.105 . S
O560 C554 1.268 . S
O561 Sc551 2.105 . S
O561 C555 1.268 . S
O562 Sc552 2.105 . S
O562 C556 1.268 . S
O563 Sc550 2.105 . S
O563 C557 1.268 . S
O564 Sc552 2.105 . S
O564 C558 1.268 . S
O565 Sc551 2.105 . S
O565 C559 1.268 . S
O566 Sc550 2.105 . S
O566 C558 1.268 . S
O567 Sc551 2.105 . S
O567 C557 1.268 . S
O568 Sc552 2.105 . S
O568 C559 1.268 . S
O569 Sc550 2.105 . S
O569 C555 1.268 . S
O570 Sc552 2.105 . S
O570 C554 1.268 . S
O571 Sc551 2.105 . S
O571 C556 1.268 . S
Sc572 O575 2.025 . S
Sc572 O582 2.105 . S
Sc572 O585 2.105 . S
Sc572 O588 2.105 . S
Sc572 O591 2.105 . S
Sc573 O575 2.025 . S
Sc573 O583 2.105 . S
Sc573 O587 2.105 . S
Sc573 O589 2.105 . S
Sc573 O593 2.105 . S
Sc574 O575 2.025 . S
Sc574 O584 2.105 . S
Sc574 O586 2.105 . S
Sc574 O590 2.105 . S
Sc574 O592 2.105 . S
O575 Sc572 2.025 . S
O575 Sc573 2.025 . S
O575 Sc574 2.025 . S
C576 O582 1.268 . S
C576 O592 1.268 . S
C577 O583 1.268 . S
C577 O591 1.268 . S
C578 O584 1.268 . S
C578 O593 1.268 . S
C579 O585 1.268 . S
C579 O589 1.268 . S
C580 O586 1.268 . S
C580 O588 1.268 . S
C581 O587 1.268 . S
C581 O590 1.268 . S
O582 Sc572 2.105 . S
O582 C576 1.268 . S
O583 Sc573 2.105 . S
O583 C577 1.268 . S
O584 Sc574 2.105 . S
O584 C578 1.268 . S
O585 Sc572 2.105 . S
O585 C579 1.268 . S
O586 Sc574 2.105 . S
O586 C580 1.268 . S
O587 Sc573 2.105 . S
O587 C581 1.268 . S
O588 Sc572 2.105 . S
O588 C580 1.268 . S
O589 Sc573 2.105 . S
O589 C579 1.268 . S
O590 Sc574 2.105 . S
O590 C581 1.268 . S
O591 Sc572 2.105 . S
O591 C577 1.268 . S
O592 Sc574 2.105 . S
O592 C576 1.268 . S
O593 Sc573 2.105 . S
O593 C578 1.268 . S
Sc594 O597 2.025 . S
Sc594 O604 2.105 . S
Sc594 O607 2.105 . S
Sc594 O610 2.105 . S
Sc594 O613 2.105 . S
Sc595 O597 2.025 . S
Sc595 O605 2.105 . S
Sc595 O609 2.105 . S
Sc595 O611 2.105 . S
Sc595 O615 2.105 . S
Sc596 O597 2.025 . S
Sc596 O606 2.105 . S
Sc596 O608 2.105 . S
Sc596 O612 2.105 . S
Sc596 O614 2.105 . S
O597 Sc594 2.025 . S
O597 Sc595 2.025 . S
O597 Sc596 2.025 . S
C598 O604 1.268 . S
C598 O614 1.268 . S
C599 O605 1.268 . S
C599 O613 1.268 . S
C600 O606 1.268 . S
C600 O615 1.268 . S
C601 O607 1.268 . S
C601 O611 1.268 . S
C602 O608 1.268 . S
C602 O610 1.268 . S
C603 O609 1.268 . S
C603 O612 1.268 . S
O604 Sc594 2.105 . S
O604 C598 1.268 . S
O605 Sc595 2.105 . S
O605 C599 1.268 . S
O606 Sc596 2.105 . S
O606 C600 1.268 . S
O607 Sc594 2.105 . S
O607 C601 1.268 . S
O608 Sc596 2.105 . S
O608 C602 1.268 . S
O609 Sc595 2.105 . S
O609 C603 1.268 . S
O610 Sc594 2.105 . S
O610 C602 1.268 . S
O611 Sc595 2.105 . S
O611 C601 1.268 . S
O612 Sc596 2.105 . S
O612 C603 1.268 . S
O613 Sc594 2.105 . S
O613 C599 1.268 . S
O614 Sc596 2.105 . S
O614 C598 1.268 . S
O615 Sc595 2.105 . S
O615 C600 1.268 . S
Sc616 O619 2.025 . S
Sc616 O626 2.105 . S
Sc616 O629 2.105 . S
Sc616 O632 2.105 . S
Sc616 O635 2.105 . S
Sc617 O619 2.025 . S
Sc617 O627 2.105 . S
Sc617 O631 2.105 . S
Sc617 O633 2.105 . S
Sc617 O637 2.105 . S
Sc618 O619 2.025 . S
Sc618 O628 2.105 . S
Sc618 O630 2.105 . S
Sc618 O634 2.105 . S
Sc618 O636 2.105 . S
O619 Sc616 2.025 . S
O619 Sc617 2.025 . S
O619 Sc618 2.025 . S
C620 O626 1.268 . S
C620 O636 1.268 . S
C621 O627 1.268 . S
C621 O635 1.268 . S
C622 O628 1.268 . S
C622 O637 1.268 . S
C623 O629 1.268 . S
C623 O633 1.268 . S
C624 O630 1.268 . S
C624 O632 1.268 . S
C625 O631 1.268 . S
C625 O634 1.268 . S
O626 Sc616 2.105 . S
O626 C620 1.268 . S
O627 Sc617 2.105 . S
O627 C621 1.268 . S
O628 Sc618 2.105 . S
O628 C622 1.268 . S
O629 Sc616 2.105 . S
O629 C623 1.268 . S
O630 Sc618 2.105 . S
O630 C624 1.268 . S
O631 Sc617 2.105 . S
O631 C625 1.268 . S
O632 Sc616 2.105 . S
O632 C624 1.268 . S
O633 Sc617 2.105 . S
O633 C623 1.268 . S
O634 Sc618 2.105 . S
O634 C625 1.268 . S
O635 Sc616 2.105 . S
O635 C621 1.268 . S
O636 Sc618 2.105 . S
O636 C620 1.268 . S
O637 Sc617 2.105 . S
O637 C622 1.268 . S
Sc638 O641 2.025 . S
Sc638 O648 2.105 . S
Sc638 O651 2.105 . S
Sc638 O654 2.105 . S
Sc638 O657 2.105 . S
Sc639 O641 2.025 . S
Sc639 O649 2.105 . S
Sc639 O653 2.105 . S
Sc639 O655 2.105 . S
Sc639 O659 2.105 . S
Sc640 O641 2.025 . S
Sc640 O650 2.105 . S
Sc640 O652 2.105 . S
Sc640 O656 2.105 . S
Sc640 O658 2.105 . S
O641 Sc638 2.025 . S
O641 Sc639 2.025 . S
O641 Sc640 2.025 . S
C642 O648 1.268 . S
C642 O658 1.268 . S
C643 O649 1.268 . S
C643 O657 1.268 . S
C644 O650 1.268 . S
C644 O659 1.268 . S
C645 O651 1.268 . S
C645 O655 1.268 . S
C646 O652 1.268 . S
C646 O654 1.268 . S
C647 O653 1.268 . S
C647 O656 1.268 . S
O648 Sc638 2.105 . S
O648 C642 1.268 . S
O649 Sc639 2.105 . S
O649 C643 1.268 . S
O650 Sc640 2.105 . S
O650 C644 1.268 . S
O651 Sc638 2.105 . S
O651 C645 1.268 . S
O652 Sc640 2.105 . S
O652 C646 1.268 . S
O653 Sc639 2.105 . S
O653 C647 1.268 . S
O654 Sc638 2.105 . S
O654 C646 1.268 . S
O655 Sc639 2.105 . S
O655 C645 1.268 . S
O656 Sc640 2.105 . S
O656 C647 1.268 . S
O657 Sc638 2.105 . S
O657 C643 1.268 . S
O658 Sc640 2.105 . S
O658 C642 1.268 . S
O659 Sc639 2.105 . S
O659 C644 1.268 . S
Sc660 O663 2.025 . S
Sc660 O670 2.105 . S
Sc660 O673 2.105 . S
Sc660 O676 2.105 . S
Sc660 O679 2.105 . S
Sc661 O663 2.025 . S
Sc661 O671 2.105 . S
Sc661 O675 2.105 . S
Sc661 O677 2.105 . S
Sc661 O681 2.105 . S
Sc662 O663 2.025 . S
Sc662 O672 2.105 . S
Sc662 O674 2.105 . S
Sc662 O678 2.105 . S
Sc662 O680 2.105 . S
O663 Sc660 2.025 . S
O663 Sc661 2.025 . S
O663 Sc662 2.025 . S
C664 O670 1.268 . S
C664 O680 1.268 . S
C665 O671 1.268 . S
C665 O679 1.268 . S
C666 O672 1.268 . S
C666 O681 1.268 . S
C667 O673 1.268 . S
C667 O677 1.268 . S
C668 O674 1.268 . S
C668 O676 1.268 . S
C669 O675 1.268 . S
C669 O678 1.268 . S
O670 Sc660 2.105 . S
O670 C664 1.268 . S
O671 Sc661 2.105 . S
O671 C665 1.268 . S
O672 Sc662 2.105 . S
O672 C666 1.268 . S
O673 Sc660 2.105 . S
O673 C667 1.268 . S
O674 Sc662 2.105 . S
O674 C668 1.268 . S
O675 Sc661 2.105 . S
O675 C669 1.268 . S
O676 Sc660 2.105 . S
O676 C668 1.268 . S
O677 Sc661 2.105 . S
O677 C667 1.268 . S
O678 Sc662 2.105 . S
O678 C669 1.268 . S
O679 Sc660 2.105 . S
O679 C665 1.268 . S
O680 Sc662 2.105 . S
O680 C664 1.268 . S
O681 Sc661 2.105 . S
O681 C666 1.268 . S
Sc682 O685 2.025 . S
Sc682 O692 2.105 . S
Sc682 O695 2.105 . S
Sc682 O698 2.105 . S
Sc682 O701 2.105 . S
Sc683 O685 2.025 . S
Sc683 O693 2.105 . S
Sc683 O697 2.105 . S
Sc683 O699 2.105 . S
Sc683 O703 2.105 . S
Sc684 O685 2.025 . S
Sc684 O694 2.105 . S
Sc684 O696 2.105 . S
Sc684 O700 2.105 . S
Sc684 O702 2.105 . S
O685 Sc682 2.025 . S
O685 Sc683 2.025 . S
O685 Sc684 2.025 . S
C686 O692 1.268 . S
C686 O702 1.268 . S
C687 O693 1.268 . S
C687 O701 1.268 . S
C688 O694 1.268 . S
C688 O703 1.268 . S
C689 O695 1.268 . S
C689 O699 1.268 . S
C690 O696 1.268 . S
C690 O698 1.268 . S
C691 O697 1.268 . S
C691 O700 1.268 . S
O692 Sc682 2.105 . S
O692 C686 1.268 . S
O693 Sc683 2.105 . S
O693 C687 1.268 . S
O694 Sc684 2.105 . S
O694 C688 1.268 . S
O695 Sc682 2.105 . S
O695 C689 1.268 . S
O696 Sc684 2.105 . S
O696 C690 1.268 . S
O697 Sc683 2.105 . S
O697 C691 1.268 . S
O698 Sc682 2.105 . S
O698 C690 1.268 . S
O699 Sc683 2.105 . S
O699 C689 1.268 . S
O700 Sc684 2.105 . S
O700 C691 1.268 . S
O701 Sc682 2.105 . S
O701 C687 1.268 . S
O702 Sc684 2.105 . S
O702 C686 1.268 . S
O703 Sc683 2.105 . S
O703 C688 1.268 . S
Sc704 O707 2.025 . S
Sc704 O714 2.105 . S
Sc704 O717 2.105 . S
Sc704 O720 2.105 . S
Sc704 O723 2.105 . S
Sc705 O707 2.025 . S
Sc705 O715 2.105 . S
Sc705 O719 2.105 . S
Sc705 O721 2.105 . S
Sc705 O725 2.105 . S
Sc706 O707 2.025 . S
Sc706 O716 2.105 . S
Sc706 O718 2.105 . S
Sc706 O722 2.105 . S
Sc706 O724 2.105 . S
O707 Sc704 2.025 . S
O707 Sc705 2.025 . S
O707 Sc706 2.025 . S
C708 O714 1.268 . S
C708 O724 1.268 . S
C709 O715 1.268 . S
C709 O723 1.268 . S
C710 O716 1.268 . S
C710 O725 1.268 . S
C711 O717 1.268 . S
C711 O721 1.268 . S
C712 O718 1.268 . S
C712 O720 1.268 . S
C713 O719 1.268 . S
C713 O722 1.268 . S
O714 Sc704 2.105 . S
O714 C708 1.268 . S
O715 Sc705 2.105 . S
O715 C709 1.268 . S
O716 Sc706 2.105 . S
O716 C710 1.268 . S
O717 Sc704 2.105 . S
O717 C711 1.268 . S
O718 Sc706 2.105 . S
O718 C712 1.268 . S
O719 Sc705 2.105 . S
O719 C713 1.268 . S
O720 Sc704 2.105 . S
O720 C712 1.268 . S
O721 Sc705 2.105 . S
O721 C711 1.268 . S
O722 Sc706 2.105 . S
O722 C713 1.268 . S
O723 Sc704 2.105 . S
O723 C709 1.268 . S
O724 Sc706 2.105 . S
O724 C708 1.268 . S
O725 Sc705 2.105 . S
O725 C710 1.268 . S
Sc726 O729 2.025 . S
Sc726 O736 2.105 . S
Sc726 O739 2.105 . S
Sc726 O742 2.105 . S
Sc726 O745 2.105 . S
Sc727 O729 2.025 . S
Sc727 O737 2.105 . S
Sc727 O741 2.105 . S
Sc727 O743 2.105 . S
Sc727 O747 2.105 . S
Sc728 O729 2.025 . S
Sc728 O738 2.105 . S
Sc728 O740 2.105 . S
Sc728 O744 2.105 . S
Sc728 O746 2.105 . S
O729 Sc726 2.025 . S
O729 Sc727 2.025 . S
O729 Sc728 2.025 . S
C730 O736 1.268 . S
C730 O746 1.268 . S
C731 O737 1.268 . S
C731 O745 1.268 . S
C732 O738 1.268 . S
C732 O747 1.268 . S
C733 O739 1.268 . S
C733 O743 1.268 . S
C734 O740 1.268 . S
C734 O742 1.268 . S
C735 O741 1.268 . S
C735 O744 1.268 . S
O736 Sc726 2.105 . S
O736 C730 1.268 . S
O737 Sc727 2.105 . S
O737 C731 1.268 . S
O738 Sc728 2.105 . S
O738 C732 1.268 . S
O739 Sc726 2.105 . S
O739 C733 1.268 . S
O740 Sc728 2.105 . S
O740 C734 1.268 . S
O741 Sc727 2.105 . S
O741 C735 1.268 . S
O742 Sc726 2.105 . S
O742 C734 1.268 . S
O743 Sc727 2.105 . S
O743 C733 1.268 . S
O744 Sc728 2.105 . S
O744 C735 1.268 . S
O745 Sc726 2.105 . S
O745 C731 1.268 . S
O746 Sc728 2.105 . S
O746 C730 1.268 . S
O747 Sc727 2.105 . S
O747 C732 1.268 . S
Sc748 O751 2.025 . S
Sc748 O758 2.105 . S
Sc748 O761 2.105 . S
Sc748 O764 2.105 . S
Sc748 O767 2.105 . S
Sc749 O751 2.025 . S
Sc749 O759 2.105 . S
Sc749 O763 2.105 . S
Sc749 O765 2.105 . S
Sc749 O769 2.105 . S
Sc750 O751 2.025 . S
Sc750 O760 2.105 . S
Sc750 O762 2.105 . S
Sc750 O766 2.105 . S
Sc750 O768 2.105 . S
O751 Sc748 2.025 . S
O751 Sc749 2.025 . S
O751 Sc750 2.025 . S
C752 O758 1.268 . S
C752 O768 1.268 . S
C753 O759 1.268 . S
C753 O767 1.268 . S
C754 O760 1.268 . S
C754 O769 1.268 . S
C755 O761 1.268 . S
C755 O765 1.268 . S
C756 O762 1.268 . S
C756 O764 1.268 . S
C757 O763 1.268 . S
C757 O766 1.268 . S
O758 Sc748 2.105 . S
O758 C752 1.268 . S
O759 Sc749 2.105 . S
O759 C753 1.268 . S
O760 Sc750 2.105 . S
O760 C754 1.268 . S
O761 Sc748 2.105 . S
O761 C755 1.268 . S
O762 Sc750 2.105 . S
O762 C756 1.268 . S
O763 Sc749 2.105 . S
O763 C757 1.268 . S
O764 Sc748 2.105 . S
O764 C756 1.268 . S
O765 Sc749 2.105 . S
O765 C755 1.268 . S
O766 Sc750 2.105 . S
O766 C757 1.268 . S
O767 Sc748 2.105 . S
O767 C753 1.268 . S
O768 Sc750 2.105 . S
O768 C752 1.268 . S
O769 Sc749 2.105 . S
O769 C754 1.268 . S
Sc770 O773 2.025 . S
Sc770 O780 2.105 . S
Sc770 O783 2.105 . S
Sc770 O786 2.105 . S
Sc770 O789 2.105 . S
Sc771 O773 2.025 . S
Sc771 O781 2.105 . S
Sc771 O785 2.105 . S
Sc771 O787 2.105 . S
Sc771 O791 2.105 . S
Sc772 O773 2.025 . S
Sc772 O782 2.105 . S
Sc772 O784 2.105 . S
Sc772 O788 2.105 . S
Sc772 O790 2.105 . S
O773 Sc770 2.025 . S
O773 Sc771 2.025 . S
O773 Sc772 2.025 . S
C774 O780 1.268 . S
C774 O790 1.268 . S
C775 O781 1.268 . S
C775 O789 1.268 . S
C776 O782 1.268 . S
C776 O791 1.268 . S
C777 O783 1.268 . S
C777 O787 1.268 . S
C778 O784 1.268 . S
C778 O786 1.268 . S
C779 O785 1.268 . S
C779 O788 1.268 . S
O780 Sc770 2.105 . S
O780 C774 1.268 . S
O781 Sc771 2.105 . S
O781 C775 1.268 . S
O782 Sc772 2.105 . S
O782 C776 1.268 . S
O783 Sc770 2.105 . S
O783 C777 1.268 . S
O784 Sc772 2.105 . S
O784 C778 1.268 . S
O785 Sc771 2.105 . S
O785 C779 1.268 . S
O786 Sc770 2.105 . S
O786 C778 1.268 . S
O787 Sc771 2.105 . S
O787 C777 1.268 . S
O788 Sc772 2.105 . S
O788 C779 1.268 . S
O789 Sc770 2.105 . S
O789 C775 1.268 . S
O790 Sc772 2.105 . S
O790 C774 1.268 . S
O791 Sc771 2.105 . S
O791 C776 1.268 . S
H792 C810 0.951 . S
H793 C812 0.951 . S
H794 C814 0.950 . S
H795 C815 0.950 . S
H796 C817 0.950 . S
H797 C820 0.950 . S
H798 C821 0.950 . S
H799 C823 0.950 . S
H800 C824 0.950 . S
H801 C825 0.951 . S
H802 C827 0.951 . S
H803 C829 0.950 . S
H804 C830 0.950 . S
H805 C832 0.950 . S
H806 C835 0.950 . S
H807 C836 0.950 . S
H808 C838 0.950 . S
H809 C839 0.950 . S
C810 H792 0.951 . S
C810 C811 1.366 . S
C810 C812 1.388 . S
C811 C810 1.366 . S
C811 C815 1.385 . S
C812 H793 0.951 . S
C812 C810 1.388 . S
C812 C813 1.366 . S
C813 C812 1.366 . S
C813 C814 1.414 . S
C813 C816 1.499 . S
C814 H794 0.950 . S
C814 C813 1.414 . S
C814 C815 1.374 . S
C815 H795 0.950 . S
C815 C811 1.385 . S
C815 C814 1.374 . S
C816 C813 1.499 . S
C816 C817 1.373 . S
C816 C818 1.389 . S
C817 H796 0.950 . S
C817 C816 1.373 . S
C817 C833 1.377 1_554 S
C818 C816 1.389 . S
C818 C819 1.524 . S
C818 C832 1.377 . S
C819 C818 1.524 . S
C819 C820 1.397 . S
C819 C824 1.363 . S
C820 H797 0.950 . S
C820 C819 1.397 . S
C820 C821 1.334 . S
C821 H798 0.950 . S
C821 C820 1.334 . S
C821 C822 1.287 . S
C822 C821 1.287 . S
C822 C823 1.524 . S
C822 H841 0.913 . S
C823 H799 0.950 . S
C823 C822 1.524 . S
C823 C824 1.415 . S
C824 H800 0.950 . S
C824 C819 1.363 . S
C824 C823 1.415 . S
C825 H801 0.951 . S
C825 C826 1.366 . S
C825 C827 1.388 . S
C826 C825 1.366 . S
C826 C830 1.385 . S
C827 H802 0.951 . S
C827 C825 1.388 . S
C827 C828 1.366 . S
C828 C827 1.366 . S
C828 C829 1.414 . S
C828 C831 1.499 . S
C829 H803 0.950 . S
C829 C828 1.414 . S
C829 C830 1.374 . S
C830 H804 0.950 . S
C830 C826 1.385 . S
C830 C829 1.374 . S
C831 C828 1.499 . S
C831 C832 1.373 1_556 S
C831 C833 1.389 . S
C832 H805 0.950 . S
C832 C818 1.377 . S
C832 C831 1.373 1_554 S
C833 C817 1.377 1_556 S
C833 C831 1.389 . S
C833 C834 1.524 . S
C834 C833 1.524 . S
C834 C835 1.397 . S
C834 C839 1.363 . S
C835 H806 0.950 . S
C835 C834 1.397 . S
C835 C836 1.334 . S
C836 H807 0.950 . S
C836 C835 1.334 . S
C836 C837 1.287 . S
C837 C836 1.287 . S
C837 C838 1.524 . S
C837 H840 0.999 . S
C838 H808 0.950 . S
C838 C837 1.524 . S
C838 C839 1.415 . S
C839 H809 0.950 . S
C839 C834 1.363 . S
C839 C838 1.415 . S
H840 C837 0.999 . S
H841 C822 0.913 . S
H842 C860 0.951 . S
H843 C862 0.951 . S
H844 C864 0.950 . S
H845 C865 0.950 . S
H846 C867 0.949 . S
H847 C870 0.950 . S
H848 C871 0.950 . S
H849 C873 0.950 1_545 S
H850 C874 0.950 . S
H851 C875 0.951 . S
H852 C877 0.951 . S
H853 C879 0.950 . S
H854 C880 0.950 1_545 S
H855 C882 0.950 . S
H856 C885 0.950 . S
H857 C886 0.950 . S
H858 C888 0.950 . S
H859 C889 0.950 . S
C860 H842 0.951 . S
C860 C861 1.366 . S
C860 C862 1.388 . S
C861 C860 1.366 . S
C861 C865 1.385 . S
C862 H843 0.951 . S
C862 C860 1.388 . S
C862 C863 1.366 . S
C863 C862 1.366 . S
C863 C864 1.414 . S
C863 C866 1.499 . S
C864 H844 0.950 . S
C864 C863 1.414 . S
C864 C865 1.374 . S
C865 H845 0.950 . S
C865 C861 1.385 . S
C865 C864 1.374 . S
C866 C863 1.499 . S
C866 C867 1.410 . S
C866 C868 1.389 . S
C867 H846 0.949 . S
C867 C866 1.410 . S
C867 C883 1.342 1_554 S
C868 C866 1.389 . S
C868 C869 1.524 . S
C868 C882 1.377 . S
C869 C868 1.524 . S
C869 C870 1.397 . S
C869 C874 1.363 . S
C870 H847 0.950 . S
C870 C869 1.397 . S
C870 C871 1.334 . S
C871 H848 0.950 . S
C871 C870 1.334 . S
C871 C872 1.287 . S
C872 C871 1.287 . S
C872 C873 1.524 . S
C872 H891 0.913 . S
C873 H849 0.950 1_565 S
C873 C872 1.524 . S
C873 C874 1.415 . S
C874 H850 0.950 . S
C874 C869 1.363 . S
C874 C873 1.415 . S
C875 H851 0.951 . S
C875 C876 1.366 . S
C875 C877 1.388 . S
C876 C875 1.366 . S
C876 C880 1.385 . S
C877 H852 0.951 . S
C877 C875 1.388 . S
C877 C878 1.366 . S
C878 C877 1.366 . S
C878 C879 1.414 . S
C878 C881 1.499 . S
C879 H853 0.950 . S
C879 C878 1.414 . S
C879 C880 1.374 . S
C880 H854 0.950 1_565 S
C880 C876 1.385 . S
C880 C879 1.374 . S
C881 C878 1.499 . S
C881 C882 1.373 1_556 S
C881 C883 1.389 . S
C882 H855 0.950 . S
C882 C868 1.377 . S
C882 C881 1.373 1_554 S
C883 C867 1.342 1_556 S
C883 C881 1.389 . S
C883 C884 1.524 . S
C884 C883 1.524 . S
C884 C885 1.397 . S
C884 C889 1.363 . S
C885 H856 0.950 . S
C885 C884 1.397 . S
C885 C886 1.334 . S
C886 H857 0.950 . S
C886 C885 1.334 . S
C886 C887 1.287 . S
C887 C886 1.287 . S
C887 C888 1.524 . S
C887 H890 0.999 . S
C888 H858 0.950 . S
C888 C887 1.524 . S
C888 C889 1.415 . S
C889 H859 0.950 . S
C889 C884 1.363 . S
C889 C888 1.415 . S
H890 C887 0.999 . S
H891 C872 0.913 . S
H892 C910 0.951 . S
H893 C912 0.951 . S
H894 C914 0.950 . S
H895 C915 0.950 . S
H896 C917 0.950 . S
H897 C920 0.950 . S
H898 C921 0.950 . S
H899 C923 0.950 1_655 S
H900 C924 0.950 . S
H901 C925 0.951 . S
H902 C927 0.951 . S
H903 C929 0.950 . S
H904 C930 0.950 1_655 S
H905 C932 0.950 . S
H906 C935 0.950 . S
H907 C936 0.950 . S
H908 C938 0.950 . S
H909 C939 0.950 . S
C910 H892 0.951 . S
C910 C911 1.366 . S
C910 C912 1.388 . S
C911 C910 1.366 . S
C911 C915 1.385 . S
C912 H893 0.951 . S
C912 C910 1.388 . S
C912 C913 1.366 . S
C913 C912 1.366 . S
C913 C914 1.414 . S
C913 C916 1.499 . S
C914 H894 0.950 . S
C914 C913 1.414 . S
C914 C915 1.374 . S
C915 H895 0.950 . S
C915 C911 1.385 . S
C915 C914 1.374 . S
C916 C913 1.499 . S
C916 C917 1.373 . S
C916 C918 1.389 . S
C917 H896 0.950 . S
C917 C916 1.373 . S
C917 C933 1.377 1_554 S
C918 C916 1.389 . S
C918 C919 1.524 . S
C918 C932 1.405 . S
C919 C918 1.524 . S
C919 C920 1.397 . S
C919 C924 1.363 . S
C920 H897 0.950 . S
C920 C919 1.397 . S
C920 C921 1.334 . S
C921 H898 0.950 . S
C921 C920 1.334 . S
C921 C922 1.287 . S
C922 C921 1.287 . S
C922 C923 1.524 . S
C922 H941 0.913 . S
C923 H899 0.950 1_455 S
C923 C922 1.524 . S
C923 C924 1.415 . S
C924 H900 0.950 . S
C924 C919 1.363 . S
C924 C923 1.415 . S
C925 H901 0.951 . S
C925 C926 1.366 . S
C925 C927 1.388 . S
C926 C925 1.366 . S
C926 C930 1.385 . S
C927 H902 0.951 . S
C927 C925 1.388 . S
C927 C928 1.366 . S
C928 C927 1.366 . S
C928 C929 1.414 . S
C928 C931 1.499 . S
C929 H903 0.950 . S
C929 C928 1.414 . S
C929 C930 1.374 . S
C930 H904 0.950 1_455 S
C930 C926 1.385 . S
C930 C929 1.374 . S
C931 C928 1.499 . S
C931 C932 1.346 1_556 S
C931 C933 1.389 . S
C932 H905 0.950 . S
C932 C918 1.405 . S
C932 C931 1.346 1_554 S
C933 C917 1.377 1_556 S
C933 C931 1.389 . S
C933 C934 1.524 . S
C934 C933 1.524 . S
C934 C935 1.397 . S
C934 C939 1.363 . S
C935 H906 0.950 . S
C935 C934 1.397 . S
C935 C936 1.334 . S
C936 H907 0.950 . S
C936 C935 1.334 . S
C936 C937 1.287 . S
C937 C936 1.287 . S
C937 C938 1.524 . S
C937 H940 0.999 . S
C938 H908 0.950 . S
C938 C937 1.524 . S
C938 C939 1.415 . S
C939 H909 0.950 . S
C939 C934 1.363 . S
C939 C938 1.415 . S
H940 C937 0.999 . S
H941 C922 0.913 . S
H942 C960 0.951 . S
H943 C962 0.951 . S
H944 C964 0.950 . S
H945 C965 0.950 . S
H946 C967 0.950 . S
H947 C970 0.950 . S
H948 C971 0.950 . S
H949 C973 0.950 . S
H950 C974 0.950 . S
H951 C975 0.951 . S
H952 C977 0.951 . S
H953 C979 0.950 . S
H954 C980 0.950 . S
H955 C982 0.950 . S
H956 C985 0.950 . S
H957 C986 0.950 . S
H958 C988 0.950 . S
H959 C989 0.950 . S
C960 H942 0.951 . S
C960 C961 1.366 . S
C960 C962 1.388 . S
C961 C960 1.366 . S
C961 C965 1.385 . S
C962 H943 0.951 . S
C962 C960 1.388 . S
C962 C963 1.366 . S
C963 C962 1.366 . S
C963 C964 1.414 . S
C963 C966 1.499 . S
C964 H944 0.950 . S
C964 C963 1.414 . S
C964 C965 1.374 . S
C965 H945 0.950 . S
C965 C961 1.385 . S
C965 C964 1.374 . S
C966 C963 1.499 . S
C966 C967 1.373 . S
C966 C968 1.389 . S
C967 H946 0.950 . S
C967 C966 1.373 . S
C967 C983 1.377 . S
C968 C966 1.389 . S
C968 C969 1.524 . S
C968 C982 1.377 . S
C969 C968 1.524 . S
C969 C970 1.397 . S
C969 C974 1.363 . S
C970 H947 0.950 . S
C970 C969 1.397 . S
C970 C971 1.334 . S
C971 H948 0.950 . S
C971 C970 1.334 . S
C971 C972 1.287 . S
C972 C971 1.287 . S
C972 C973 1.524 . S
C972 H991 0.913 . S
C973 H949 0.950 . S
C973 C972 1.524 . S
C973 C974 1.415 . S
C974 H950 0.950 . S
C974 C969 1.363 . S
C974 C973 1.415 . S
C975 H951 0.951 . S
C975 C976 1.366 . S
C975 C977 1.388 . S
C976 C975 1.366 . S
C976 C980 1.385 . S
C977 H952 0.951 . S
C977 C975 1.388 . S
C977 C978 1.366 . S
C978 C977 1.366 . S
C978 C979 1.414 . S
C978 C981 1.499 . S
C979 H953 0.950 . S
C979 C978 1.414 . S
C979 C980 1.374 . S
C980 H954 0.950 . S
C980 C976 1.385 . S
C980 C979 1.374 . S
C981 C978 1.499 . S
C981 C982 1.373 . S
C981 C983 1.389 . S
C982 H955 0.950 . S
C982 C968 1.377 . S
C982 C981 1.373 . S
C983 C967 1.377 . S
C983 C981 1.389 . S
C983 C984 1.524 . S
C984 C983 1.524 . S
C984 C985 1.397 . S
C984 C989 1.363 . S
C985 H956 0.950 . S
C985 C984 1.397 . S
C985 C986 1.334 . S
C986 H957 0.950 . S
C986 C985 1.334 . S
C986 C987 1.287 . S
C987 C986 1.287 . S
C987 C988 1.524 . S
C987 H990 0.999 . S
C988 H958 0.950 . S
C988 C987 1.524 . S
C988 C989 1.415 . S
C989 H959 0.950 . S
C989 C984 1.363 . S
C989 C988 1.415 . S
H990 C987 0.999 . S
H991 C972 0.913 . S
H992 C1010 0.951 . S
H993 C1012 0.951 . S
H994 C1014 0.950 . S
H995 C1015 0.953 . S
H996 C1017 0.950 . S
H997 C1020 0.950 . S
H998 C1021 0.950 . S
H999 C1023 0.950 . S
H1000 C1024 0.950 . S
H1001 C1025 0.951 . S
H1002 C1027 0.951 . S
H1003 C1029 0.950 . S
H1004 C1030 0.950 . S
H1005 C1032 0.950 . S
H1006 C1035 0.950 . S
H1007 C1036 0.950 . S
H1008 C1038 0.950 1_565 S
H1009 C1039 0.950 . S
C1010 H992 0.951 . S
C1010 C1011 1.366 . S
C1010 C1012 1.388 . S
C1011 C1010 1.366 . S
C1011 C1015 1.385 . S
C1012 H993 0.951 . S
C1012 C1010 1.388 . S
C1012 C1013 1.366 . S
C1013 C1012 1.366 . S
C1013 C1014 1.414 . S
C1013 C1016 1.499 . S
C1014 H994 0.950 . S
C1014 C1013 1.414 . S
C1014 C1015 1.374 . S
C1015 H995 0.953 . S
C1015 C1011 1.385 . S
C1015 C1014 1.374 . S
C1016 C1013 1.499 . S
C1016 C1017 1.373 . S
C1016 C1018 1.389 . S
C1017 H996 0.950 . S
C1017 C1016 1.373 . S
C1017 C1033 1.377 . S
C1018 C1016 1.389 . S
C1018 C1019 1.524 . S
C1018 C1032 1.377 . S
C1019 C1018 1.524 . S
C1019 C1020 1.397 . S
C1019 C1024 1.363 . S
C1020 H997 0.950 . S
C1020 C1019 1.397 . S
C1020 C1021 1.334 . S
C1021 H998 0.950 . S
C1021 C1020 1.334 . S
C1021 C1022 1.287 . S
C1022 C1021 1.287 . S
C1022 C1023 1.524 . S
C1022 H1041 0.913 . S
C1023 H999 0.950 . S
C1023 C1022 1.524 . S
C1023 C1024 1.415 . S
C1024 H1000 0.950 . S
C1024 C1019 1.363 . S
C1024 C1023 1.415 . S
C1025 H1001 0.951 . S
C1025 C1026 1.366 . S
C1025 C1027 1.388 . S
C1026 C1025 1.366 . S
C1026 C1030 1.385 . S
C1027 H1002 0.951 . S
C1027 C1025 1.388 . S
C1027 C1028 1.366 . S
C1028 C1027 1.366 . S
C1028 C1029 1.414 . S
C1028 C1031 1.499 . S
C1029 H1003 0.950 . S
C1029 C1028 1.414 . S
C1029 C1030 1.374 . S
C1030 H1004 0.950 . S
C1030 C1026 1.385 . S
C1030 C1029 1.374 . S
C1031 C1028 1.499 . S
C1031 C1032 1.373 . S
C1031 C1033 1.389 . S
C1032 H1005 0.950 . S
C1032 C1018 1.377 . S
C1032 C1031 1.373 . S
C1033 C1017 1.377 . S
C1033 C1031 1.389 . S
C1033 C1034 1.524 . S
C1034 C1033 1.524 . S
C1034 C1035 1.397 . S
C1034 C1039 1.363 . S
C1035 H1006 0.950 . S
C1035 C1034 1.397 . S
C1035 C1036 1.334 . S
C1036 H1007 0.950 . S
C1036 C1035 1.334 . S
C1036 C1037 1.287 . S
C1037 C1036 1.287 . S
C1037 C1038 1.524 . S
C1037 H1040 0.999 . S
C1038 H1008 0.950 1_545 S
C1038 C1037 1.524 . S
C1038 C1039 1.415 . S
C1039 H1009 0.950 . S
C1039 C1034 1.363 . S
C1039 C1038 1.415 . S
H1040 C1037 0.999 . S
H1041 C1022 0.913 . S
H1042 C1060 0.951 . S
H1043 C1062 0.951 . S
H1044 C1064 0.950 . S
H1045 C1065 0.950 . S
H1046 C1067 0.950 . S
H1047 C1070 0.950 . S
H1048 C1071 0.950 . S
H1049 C1073 0.950 . S
H1050 C1074 0.950 . S
H1051 C1075 0.951 . S
H1052 C1077 0.951 . S
H1053 C1079 0.950 . S
H1054 C1080 0.950 . S
H1055 C1082 0.950 . S
H1056 C1085 0.950 . S
H1057 C1086 0.950 . S
H1058 C1088 0.950 . S
H1059 C1089 0.950 . S
C1060 H1042 0.951 . S
C1060 C1061 1.366 . S
C1060 C1062 1.388 . S
C1061 C1060 1.366 . S
C1061 C1065 1.385 . S
C1062 H1043 0.951 . S
C1062 C1060 1.388 . S
C1062 C1063 1.366 . S
C1063 C1062 1.366 . S
C1063 C1064 1.414 . S
C1063 C1066 1.499 . S
C1064 H1044 0.950 . S
C1064 C1063 1.414 . S
C1064 C1065 1.374 . S
C1065 H1045 0.950 . S
C1065 C1061 1.385 . S
C1065 C1064 1.374 . S
C1066 C1063 1.499 . S
C1066 C1067 1.373 . S
C1066 C1068 1.389 . S
C1067 H1046 0.950 . S
C1067 C1066 1.373 . S
C1067 C1083 1.377 . S
C1068 C1066 1.389 . S
C1068 C1069 1.524 . S
C1068 C1082 1.377 . S
C1069 C1068 1.524 . S
C1069 C1070 1.397 . S
C1069 C1074 1.363 . S
C1070 H1047 0.950 . S
C1070 C1069 1.397 . S
C1070 C1071 1.334 1_655 S
C1071 H1048 0.950 . S
C1071 C1070 1.334 1_455 S
C1071 C1072 1.287 . S
C1072 C1071 1.287 . S
C1072 C1073 1.524 . S
C1072 H1091 0.913 . S
C1073 H1049 0.950 . S
C1073 C1072 1.524 . S
C1073 C1074 1.415 1_455 S
C1074 H1050 0.950 . S
C1074 C1069 1.363 . S
C1074 C1073 1.415 1_655 S
C1075 H1051 0.951 . S
C1075 C1076 1.366 . S
C1075 C1077 1.388 . S
C1076 C1075 1.366 . S
C1076 C1080 1.385 . S
C1077 H1052 0.951 . S
C1077 C1075 1.388 . S
C1077 C1078 1.366 . S
C1078 C1077 1.366 . S
C1078 C1079 1.414 . S
C1078 C1081 1.499 . S
C1079 H1053 0.950 . S
C1079 C1078 1.414 . S
C1079 C1080 1.374 . S
C1080 H1054 0.950 . S
C1080 C1076 1.385 . S
C1080 C1079 1.374 . S
C1081 C1078 1.499 . S
C1081 C1082 1.373 . S
C1081 C1083 1.389 . S
C1082 H1055 0.950 . S
C1082 C1068 1.377 . S
C1082 C1081 1.373 . S
C1083 C1067 1.377 . S
C1083 C1081 1.389 . S
C1083 C1084 1.524 . S
C1084 C1083 1.524 . S
C1084 C1085 1.397 . S
C1084 C1089 1.363 . S
C1085 H1056 0.950 . S
C1085 C1084 1.397 . S
C1085 C1086 1.334 . S
C1086 H1057 0.950 . S
C1086 C1085 1.334 . S
C1086 C1087 1.287 . S
C1087 C1086 1.287 . S
C1087 C1088 1.524 . S
C1087 H1090 0.999 . S
C1088 H1058 0.950 . S
C1088 C1087 1.524 . S
C1088 C1089 1.415 . S
C1089 H1059 0.950 . S
C1089 C1084 1.363 . S
C1089 C1088 1.415 . S
H1090 C1087 0.999 . S
H1091 C1072 0.913 . S
H1092 C1110 0.951 . S
H1093 C1112 0.951 . S
H1094 C1114 0.950 . S
H1095 C1115 0.950 . S
H1096 C1117 0.950 . S
H1097 C1120 0.950 . S
H1098 C1121 0.950 . S
H1099 C1123 0.950 . S
H1100 C1124 0.950 . S
H1101 C1125 0.951 . S
H1102 C1127 0.951 . S
H1103 C1129 0.950 . S
H1104 C1130 0.950 . S
H1105 C1132 0.950 . S
H1106 C1135 0.950 . S
H1107 C1136 0.950 . S
H1108 C1138 0.950 . S
H1109 C1139 0.950 . S
C1110 H1092 0.951 . S
C1110 C1111 1.366 . S
C1110 C1112 1.388 . S
C1111 C1110 1.366 . S
C1111 C1115 1.385 . S
C1112 H1093 0.951 . S
C1112 C1110 1.388 . S
C1112 C1113 1.366 . S
C1113 C1112 1.366 . S
C1113 C1114 1.414 . S
C1113 C1116 1.499 . S
C1114 H1094 0.950 . S
C1114 C1113 1.414 . S
C1114 C1115 1.374 . S
C1115 H1095 0.950 . S
C1115 C1111 1.385 . S
C1115 C1114 1.374 . S
C1116 C1113 1.499 . S
C1116 C1117 1.373 . S
C1116 C1118 1.389 . S
C1117 H1096 0.950 . S
C1117 C1116 1.373 . S
C1117 C1133 1.377 1_554 S
C1118 C1116 1.389 . S
C1118 C1119 1.524 . S
C1118 C1132 1.377 1_554 S
C1119 C1118 1.524 . S
C1119 C1120 1.397 . S
C1119 C1124 1.363 . S
C1120 H1097 0.950 . S
C1120 C1119 1.397 . S
C1120 C1121 1.334 . S
C1121 H1098 0.950 . S
C1121 C1120 1.334 . S
C1121 C1122 1.287 . S
C1122 C1121 1.287 . S
C1122 C1123 1.524 . S
C1122 H1141 0.913 . S
C1123 H1099 0.950 . S
C1123 C1122 1.524 . S
C1123 C1124 1.415 . S
C1124 H1100 0.950 . S
C1124 C1119 1.363 . S
C1124 C1123 1.415 . S
C1125 H1101 0.951 . S
C1125 C1126 1.366 . S
C1125 C1127 1.388 . S
C1126 C1125 1.366 . S
C1126 C1130 1.385 . S
C1127 H1102 0.951 . S
C1127 C1125 1.388 . S
C1127 C1128 1.366 . S
C1128 C1127 1.366 . S
C1128 C1129 1.414 . S
C1128 C1131 1.499 . S
C1129 H1103 0.950 . S
C1129 C1128 1.414 . S
C1129 C1130 1.374 . S
C1130 H1104 0.950 . S
C1130 C1126 1.385 . S
C1130 C1129 1.374 . S
C1131 C1128 1.499 . S
C1131 C1132 1.373 . S
C1131 C1133 1.389 . S
C1132 H1105 0.950 . S
C1132 C1118 1.377 1_556 S
C1132 C1131 1.373 . S
C1133 C1117 1.377 1_556 S
C1133 C1131 1.389 . S
C1133 C1134 1.524 . S
C1134 C1133 1.524 . S
C1134 C1135 1.397 . S
C1134 C1139 1.363 . S
C1135 H1106 0.950 . S
C1135 C1134 1.397 . S
C1135 C1136 1.334 . S
C1136 H1107 0.950 . S
C1136 C1135 1.334 . S
C1136 C1137 1.287 . S
C1137 C1136 1.287 . S
C1137 C1138 1.524 . S
C1137 H1140 0.999 . S
C1138 H1108 0.950 . S
C1138 C1137 1.524 . S
C1138 C1139 1.415 . S
C1139 H1109 0.950 . S
C1139 C1134 1.363 . S
C1139 C1138 1.415 . S
H1140 C1137 0.999 . S
H1141 C1122 0.913 . S
H1142 C1160 0.951 . S
H1143 C1162 0.951 . S
H1144 C1164 0.950 . S
H1145 C1165 0.950 . S
H1146 C1167 0.949 . S
H1147 C1170 0.950 . S
H1148 C1171 0.950 . S
H1149 C1173 0.950 . S
H1150 C1174 0.950 . S
H1151 C1175 0.951 . S
H1152 C1177 0.951 . S
H1153 C1179 0.950 . S
H1154 C1180 0.950 . S
H1155 C1182 0.950 . S
H1156 C1185 0.950 . S
H1157 C1186 0.950 . S
H1158 C1188 0.950 . S
H1159 C1189 0.950 . S
C1160 H1142 0.951 . S
C1160 C1161 1.366 . S
C1160 C1162 1.388 . S
C1161 C1160 1.366 . S
C1161 C1165 1.385 . S
C1162 H1143 0.951 . S
C1162 C1160 1.388 . S
C1162 C1163 1.366 . S
C1163 C1162 1.366 . S
C1163 C1164 1.414 . S
C1163 C1166 1.499 . S
C1164 H1144 0.950 . S
C1164 C1163 1.414 . S
C1164 C1165 1.374 . S
C1165 H1145 0.950 . S
C1165 C1161 1.385 . S
C1165 C1164 1.374 . S
C1166 C1163 1.499 . S
C1166 C1167 1.406 . S
C1166 C1168 1.389 . S
C1167 H1146 0.949 . S
C1167 C1166 1.406 . S
C1167 C1183 1.346 1_556 S
C1168 C1166 1.389 . S
C1168 C1169 1.524 . S
C1168 C1182 1.377 . S
C1169 C1168 1.524 . S
C1169 C1170 1.397 . S
C1169 C1174 1.363 . S
C1170 H1147 0.950 . S
C1170 C1169 1.397 . S
C1170 C1171 1.334 . S
C1171 H1148 0.950 . S
C1171 C1170 1.334 . S
C1171 C1172 1.287 . S
C1172 C1171 1.287 . S
C1172 C1173 1.524 . S
C1172 H1191 0.913 . S
C1173 H1149 0.950 . S
C1173 C1172 1.524 . S
C1173 C1174 1.415 . S
C1174 H1150 0.950 . S
C1174 C1169 1.363 . S
C1174 C1173 1.415 . S
C1175 H1151 0.951 . S
C1175 C1176 1.366 . S
C1175 C1177 1.388 . S
C1176 C1175 1.366 . S
C1176 C1180 1.385 . S
C1177 H1152 0.951 . S
C1177 C1175 1.388 . S
C1177 C1178 1.366 . S
C1178 C1177 1.366 . S
C1178 C1179 1.414 . S
C1178 C1181 1.499 . S
C1179 H1153 0.950 . S
C1179 C1178 1.414 . S
C1179 C1180 1.374 . S
C1180 H1154 0.950 . S
C1180 C1176 1.385 . S
C1180 C1179 1.374 . S
C1181 C1178 1.499 . S
C1181 C1182 1.373 1_554 S
C1181 C1183 1.389 . S
C1182 H1155 0.950 . S
C1182 C1168 1.377 . S
C1182 C1181 1.373 1_556 S
C1183 C1167 1.346 1_554 S
C1183 C1181 1.389 . S
C1183 C1184 1.524 . S
C1184 C1183 1.524 . S
C1184 C1185 1.397 . S
C1184 C1189 1.363 . S
C1185 H1156 0.950 . S
C1185 C1184 1.397 . S
C1185 C1186 1.334 . S
C1186 H1157 0.950 . S
C1186 C1185 1.334 . S
C1186 C1187 1.287 . S
C1187 C1186 1.287 . S
C1187 C1188 1.524 . S
C1187 H1190 0.999 . S
C1188 H1158 0.950 . S
C1188 C1187 1.524 . S
C1188 C1189 1.415 . S
C1189 H1159 0.950 . S
C1189 C1184 1.363 . S
C1189 C1188 1.415 . S
H1190 C1187 0.999 . S
H1191 C1172 0.913 . S
H1192 C1210 0.951 . S
H1193 C1212 0.951 . S
H1194 C1214 0.950 . S
H1195 C1215 0.950 . S
H1196 C1217 0.950 . S
H1197 C1220 0.950 . S
H1198 C1221 0.950 . S
H1199 C1223 0.950 . S
H1200 C1224 0.950 . S
H1201 C1225 0.951 . S
H1202 C1227 0.951 . S
H1203 C1229 0.950 . S
H1204 C1230 0.950 . S
H1205 C1232 0.950 . S
H1206 C1235 0.950 . S
H1207 C1236 0.950 . S
H1208 C1238 0.950 . S
H1209 C1239 0.950 . S
C1210 H1192 0.951 . S
C1210 C1211 1.366 . S
C1210 C1212 1.388 . S
C1211 C1210 1.366 . S
C1211 C1215 1.385 . S
C1212 H1193 0.951 . S
C1212 C1210 1.388 . S
C1212 C1213 1.366 . S
C1213 C1212 1.366 . S
C1213 C1214 1.414 . S
C1213 C1216 1.499 . S
C1214 H1194 0.950 . S
C1214 C1213 1.414 . S
C1214 C1215 1.374 . S
C1215 H1195 0.950 . S
C1215 C1211 1.385 . S
C1215 C1214 1.374 . S
C1216 C1213 1.499 . S
C1216 C1217 1.373 . S
C1216 C1218 1.389 . S
C1217 H1196 0.950 . S
C1217 C1216 1.373 . S
C1217 C1233 1.377 1_556 S
C1218 C1216 1.389 . S
C1218 C1219 1.524 . S
C1218 C1232 1.409 . S
C1219 C1218 1.524 . S
C1219 C1220 1.397 . S
C1219 C1224 1.363 . S
C1220 H1197 0.950 . S
C1220 C1219 1.397 . S
C1220 C1221 1.334 . S
C1221 H1198 0.950 . S
C1221 C1220 1.334 . S
C1221 C1222 1.287 . S
C1222 C1221 1.287 . S
C1222 C1223 1.524 . S
C1222 H1241 0.913 . S
C1223 H1199 0.950 . S
C1223 C1222 1.524 . S
C1223 C1224 1.415 . S
C1224 H1200 0.950 . S
C1224 C1219 1.363 . S
C1224 C1223 1.415 . S
C1225 H1201 0.951 . S
C1225 C1226 1.366 . S
C1225 C1227 1.388 . S
C1226 C1225 1.366 . S
C1226 C1230 1.385 . S
C1227 H1202 0.951 . S
C1227 C1225 1.388 . S
C1227 C1228 1.366 . S
C1228 C1227 1.366 . S
C1228 C1229 1.414 . S
C1228 C1231 1.499 . S
C1229 H1203 0.950 . S
C1229 C1228 1.414 . S
C1229 C1230 1.374 . S
C1230 H1204 0.950 . S
C1230 C1226 1.385 . S
C1230 C1229 1.374 . S
C1231 C1228 1.499 . S
C1231 C1232 1.342 1_554 S
C1231 C1233 1.389 . S
C1232 H1205 0.950 . S
C1232 C1218 1.409 . S
C1232 C1231 1.342 1_556 S
C1233 C1217 1.377 1_554 S
C1233 C1231 1.389 . S
C1233 C1234 1.524 . S
C1234 C1233 1.524 . S
C1234 C1235 1.397 . S
C1234 C1239 1.363 . S
C1235 H1206 0.950 . S
C1235 C1234 1.397 . S
C1235 C1236 1.334 . S
C1236 H1207 0.950 . S
C1236 C1235 1.334 . S
C1236 C1237 1.287 . S
C1237 C1236 1.287 . S
C1237 C1238 1.524 . S
C1237 H1240 0.999 . S
C1238 H1208 0.950 . S
C1238 C1237 1.524 . S
C1238 C1239 1.415 . S
C1239 H1209 0.950 . S
C1239 C1234 1.363 . S
C1239 C1238 1.415 . S
H1240 C1237 0.999 . S
H1241 C1222 0.913 . S
H1242 C1260 0.951 . S
H1243 C1262 0.951 . S
H1244 C1264 0.950 . S
H1245 C1265 0.950 . S
H1246 C1267 0.950 . S
H1247 C1270 0.950 . S
H1248 C1271 0.950 . S
H1249 C1273 0.950 . S
H1250 C1274 0.950 . S
H1251 C1275 0.951 . S
H1252 C1277 0.951 . S
H1253 C1279 0.950 . S
H1254 C1280 0.950 . S
H1255 C1282 0.950 . S
H1256 C1285 0.950 . S
H1257 C1286 0.950 . S
H1258 C1288 0.950 . S
H1259 C1289 0.950 . S
C1260 H1242 0.951 . S
C1260 C1261 1.366 . S
C1260 C1262 1.388 . S
C1261 C1260 1.366 . S
C1261 C1265 1.385 . S
C1262 H1243 0.951 . S
C1262 C1260 1.388 . S
C1262 C1263 1.366 . S
C1263 C1262 1.366 . S
C1263 C1264 1.414 . S
C1263 C1266 1.499 . S
C1264 H1244 0.950 . S
C1264 C1263 1.414 . S
C1264 C1265 1.374 . S
C1265 H1245 0.950 . S
C1265 C1261 1.385 . S
C1265 C1264 1.374 . S
C1266 C1263 1.499 . S
C1266 C1267 1.373 . S
C1266 C1268 1.389 . S
C1267 H1246 0.950 . S
C1267 C1266 1.373 . S
C1267 C1283 1.377 . S
C1268 C1266 1.389 . S
C1268 C1269 1.524 . S
C1268 C1282 1.377 . S
C1269 C1268 1.524 . S
C1269 C1270 1.397 . S
C1269 C1274 1.363 . S
C1270 H1247 0.950 . S
C1270 C1269 1.397 . S
C1270 C1271 1.334 . S
C1271 H1248 0.950 . S
C1271 C1270 1.334 . S
C1271 C1272 1.287 . S
C1272 C1271 1.287 . S
C1272 C1273 1.524 . S
C1272 H1291 0.913 . S
C1273 H1249 0.950 . S
C1273 C1272 1.524 . S
C1273 C1274 1.415 . S
C1274 H1250 0.950 . S
C1274 C1269 1.363 . S
C1274 C1273 1.415 . S
C1275 H1251 0.951 . S
C1275 C1276 1.366 . S
C1275 C1277 1.388 . S
C1276 C1275 1.366 . S
C1276 C1280 1.385 . S
C1277 H1252 0.951 . S
C1277 C1275 1.388 . S
C1277 C1278 1.366 . S
C1278 C1277 1.366 . S
C1278 C1279 1.414 . S
C1278 C1281 1.499 . S
C1279 H1253 0.950 . S
C1279 C1278 1.414 . S
C1279 C1280 1.374 . S
C1280 H1254 0.950 . S
C1280 C1276 1.385 . S
C1280 C1279 1.374 . S
C1281 C1278 1.499 . S
C1281 C1282 1.373 . S
C1281 C1283 1.389 . S
C1282 H1255 0.950 . S
C1282 C1268 1.377 . S
C1282 C1281 1.373 . S
C1283 C1267 1.377 . S
C1283 C1281 1.389 . S
C1283 C1284 1.524 . S
C1284 C1283 1.524 . S
C1284 C1285 1.397 . S
C1284 C1289 1.363 . S
C1285 H1256 0.950 . S
C1285 C1284 1.397 . S
C1285 C1286 1.334 . S
C1286 H1257 0.950 . S
C1286 C1285 1.334 . S
C1286 C1287 1.287 . S
C1287 C1286 1.287 . S
C1287 C1288 1.524 . S
C1287 H1290 0.999 . S
C1288 H1258 0.950 . S
C1288 C1287 1.524 . S
C1288 C1289 1.415 . S
C1289 H1259 0.950 . S
C1289 C1284 1.363 . S
C1289 C1288 1.415 . S
H1290 C1287 0.999 . S
H1291 C1272 0.913 . S
H1292 C1310 0.951 . S
H1293 C1312 0.951 . S
H1294 C1314 0.950 . S
H1295 C1315 0.950 . S
H1296 C1317 0.950 . S
H1297 C1320 0.950 . S
H1298 C1321 0.950 . S
H1299 C1323 0.950 . S
H1300 C1324 0.950 . S
H1301 C1325 0.951 . S
H1302 C1327 0.951 . S
H1303 C1329 0.950 . S
H1304 C1330 0.949 . S
H1305 C1332 0.950 . S
H1306 C1335 0.950 . S
H1307 C1336 0.950 1_545 S
H1308 C1338 0.950 . S
H1309 C1339 0.950 . S
C1310 H1292 0.951 . S
C1310 C1311 1.366 . S
C1310 C1312 1.388 . S
C1311 C1310 1.366 . S
C1311 C1315 1.385 . S
C1312 H1293 0.951 . S
C1312 C1310 1.388 . S
C1312 C1313 1.366 . S
C1313 C1312 1.366 . S
C1313 C1314 1.414 . S
C1313 C1316 1.499 . S
C1314 H1294 0.950 . S
C1314 C1313 1.414 . S
C1314 C1315 1.374 . S
C1315 H1295 0.950 . S
C1315 C1311 1.385 . S
C1315 C1314 1.374 . S
C1316 C1313 1.499 . S
C1316 C1317 1.373 . S
C1316 C1318 1.389 . S
C1317 H1296 0.950 . S
C1317 C1316 1.373 . S
C1317 C1333 1.377 . S
C1318 C1316 1.389 . S
C1318 C1319 1.524 . S
C1318 C1332 1.377 . S
C1319 C1318 1.524 . S
C1319 C1320 1.397 . S
C1319 C1324 1.363 . S
C1320 H1297 0.950 . S
C1320 C1319 1.397 . S
C1320 C1321 1.334 . S
C1321 H1298 0.950 . S
C1321 C1320 1.334 . S
C1321 C1322 1.287 . S
C1322 C1321 1.287 . S
C1322 C1323 1.524 . S
C1322 H1341 0.913 . S
C1323 H1299 0.950 . S
C1323 C1322 1.524 . S
C1323 C1324 1.415 . S
C1324 H1300 0.950 . S
C1324 C1319 1.363 . S
C1324 C1323 1.415 . S
C1325 H1301 0.951 . S
C1325 C1326 1.366 . S
C1325 C1327 1.388 . S
C1326 C1325 1.366 . S
C1326 C1330 1.385 . S
C1327 H1302 0.951 . S
C1327 C1325 1.388 . S
C1327 C1328 1.366 . S
C1328 C1327 1.366 . S
C1328 C1329 1.414 . S
C1328 C1331 1.499 . S
C1329 H1303 0.950 . S
C1329 C1328 1.414 . S
C1329 C1330 1.374 . S
C1330 H1304 0.949 . S
C1330 C1326 1.385 . S
C1330 C1329 1.374 . S
C1331 C1328 1.499 . S
C1331 C1332 1.373 . S
C1331 C1333 1.389 . S
C1332 H1305 0.950 . S
C1332 C1318 1.377 . S
C1332 C1331 1.373 . S
C1333 C1317 1.377 . S
C1333 C1331 1.389 . S
C1333 C1334 1.524 . S
C1334 C1333 1.524 . S
C1334 C1335 1.397 . S
C1334 C1339 1.363 . S
C1335 H1306 0.950 . S
C1335 C1334 1.397 . S
C1335 C1336 1.334 . S
C1336 H1307 0.950 1_565 S
C1336 C1335 1.334 . S
C1336 C1337 1.287 . S
C1337 C1336 1.287 . S
C1337 C1338 1.524 . S
C1337 H1340 0.999 . S
C1338 H1308 0.950 . S
C1338 C1337 1.524 . S
C1338 C1339 1.415 . S
C1339 H1309 0.950 . S
C1339 C1334 1.363 . S
C1339 C1338 1.415 . S
H1340 C1337 0.999 . S
H1341 C1322 0.913 . S
H1342 C1360 0.951 . S
H1343 C1362 0.951 . S
H1344 C1364 0.950 . S
H1345 C1365 0.950 . S
H1346 C1367 0.950 . S
H1347 C1370 0.950 . S
H1348 C1371 0.950 . S
H1349 C1373 0.950 1_655 S
H1350 C1374 0.950 . S
H1351 C1375 0.951 . S
H1352 C1377 0.951 . S
H1353 C1379 0.950 . S
H1354 C1380 0.963 . S
H1355 C1382 0.950 . S
H1356 C1385 0.950 . S
H1357 C1386 0.950 . S
H1358 C1388 0.950 . S
H1359 C1389 0.950 . S
C1360 H1342 0.951 . S
C1360 C1361 1.366 . S
C1360 C1362 1.388 . S
C1361 C1360 1.366 . S
C1361 C1365 1.385 . S
C1362 H1343 0.951 . S
C1362 C1360 1.388 . S
C1362 C1363 1.366 . S
C1363 C1362 1.366 . S
C1363 C1364 1.414 . S
C1363 C1366 1.499 . S
C1364 H1344 0.950 . S
C1364 C1363 1.414 . S
C1364 C1365 1.374 . S
C1365 H1345 0.950 . S
C1365 C1361 1.385 . S
C1365 C1364 1.374 . S
C1366 C1363 1.499 . S
C1366 C1367 1.373 . S
C1366 C1368 1.389 . S
C1367 H1346 0.950 . S
C1367 C1366 1.373 . S
C1367 C1383 1.377 . S
C1368 C1366 1.389 . S
C1368 C1369 1.524 . S
C1368 C1382 1.377 . S
C1369 C1368 1.524 . S
C1369 C1370 1.397 . S
C1369 C1374 1.363 . S
C1370 H1347 0.950 . S
C1370 C1369 1.397 . S
C1370 C1371 1.334 . S
C1371 H1348 0.950 . S
C1371 C1370 1.334 . S
C1371 C1372 1.287 . S
C1372 C1371 1.287 . S
C1372 C1373 1.524 . S
C1372 H1391 0.913 . S
C1373 H1349 0.950 1_455 S
C1373 C1372 1.524 . S
C1373 C1374 1.415 . S
C1374 H1350 0.950 . S
C1374 C1369 1.363 . S
C1374 C1373 1.415 . S
C1375 H1351 0.951 . S
C1375 C1376 1.366 . S
C1375 C1377 1.388 . S
C1376 C1375 1.366 . S
C1376 C1380 1.385 . S
C1377 H1352 0.951 . S
C1377 C1375 1.388 . S
C1377 C1378 1.366 . S
C1378 C1377 1.366 . S
C1378 C1379 1.414 . S
C1378 C1381 1.499 . S
C1379 H1353 0.950 . S
C1379 C1378 1.414 . S
C1379 C1380 1.374 . S
C1380 H1354 0.963 . S
C1380 C1376 1.385 . S
C1380 C1379 1.374 . S
C1381 C1378 1.499 . S
C1381 C1382 1.373 . S
C1381 C1383 1.389 . S
C1382 H1355 0.950 . S
C1382 C1368 1.377 . S
C1382 C1381 1.373 . S
C1383 C1367 1.377 . S
C1383 C1381 1.389 . S
C1383 C1384 1.524 . S
C1384 C1383 1.524 . S
C1384 C1385 1.397 . S
C1384 C1389 1.363 . S
C1385 H1356 0.950 . S
C1385 C1384 1.397 . S
C1385 C1386 1.334 . S
C1386 H1357 0.950 . S
C1386 C1385 1.334 . S
C1386 C1387 1.287 . S
C1387 C1386 1.287 . S
C1387 C1388 1.524 . S
C1387 H1390 0.999 . S
C1388 H1358 0.950 . S
C1388 C1387 1.524 . S
C1388 C1389 1.415 . S
C1389 H1359 0.950 . S
C1389 C1384 1.363 . S
C1389 C1388 1.415 . S
H1390 C1387 0.999 . S
H1391 C1372 0.913 . S
H1392 C1410 0.951 . S
H1393 C1412 0.951 . S
H1394 C1414 0.950 . S
H1395 C1415 0.950 . S
H1396 C1417 0.950 . S
H1397 C1420 0.950 . S
H1398 C1421 0.950 . S
H1399 C1423 0.950 . S
H1400 C1424 0.950 . S
H1401 C1425 0.951 . S
H1402 C1427 0.951 . S
H1403 C1429 0.950 . S
H1404 C1430 0.950 . S
H1405 C1432 0.950 . S
H1406 C1435 0.950 . S
H1407 C1436 0.950 . S
H1408 C1438 0.950 . S
H1409 C1439 0.950 . S
C1410 H1392 0.951 . S
C1410 C1411 1.366 . S
C1410 C1412 1.388 . S
C1411 C1410 1.366 . S
C1411 C1415 1.385 . S
C1412 H1393 0.951 . S
C1412 C1410 1.388 . S
C1412 C1413 1.366 . S
C1413 C1412 1.366 . S
C1413 C1414 1.414 . S
C1413 C1416 1.499 . S
C1414 H1394 0.950 . S
C1414 C1413 1.414 . S
C1414 C1415 1.374 . S
C1415 H1395 0.950 . S
C1415 C1411 1.385 . S
C1415 C1414 1.374 . S
C1416 C1413 1.499 . S
C1416 C1417 1.373 . S
C1416 C1418 1.389 . S
C1417 H1396 0.950 . S
C1417 C1416 1.373 . S
C1417 C1433 1.377 . S
C1418 C1416 1.389 . S
C1418 C1419 1.524 . S
C1418 C1432 1.377 . S
C1419 C1418 1.524 . S
C1419 C1420 1.397 . S
C1419 C1424 1.363 . S
C1420 H1397 0.950 . S
C1420 C1419 1.397 . S
C1420 C1421 1.334 . S
C1421 H1398 0.950 . S
C1421 C1420 1.334 . S
C1421 C1422 1.287 . S
C1422 C1421 1.287 . S
C1422 C1423 1.524 . S
C1422 H1441 0.913 . S
C1423 H1399 0.950 . S
C1423 C1422 1.524 . S
C1423 C1424 1.415 . S
C1424 H1400 0.950 . S
C1424 C1419 1.363 . S
C1424 C1423 1.415 . S
C1425 H1401 0.951 . S
C1425 C1426 1.366 . S
C1425 C1427 1.388 . S
C1426 C1425 1.366 . S
C1426 C1430 1.385 . S
C1427 H1402 0.951 . S
C1427 C1425 1.388 . S
C1427 C1428 1.366 . S
C1428 C1427 1.366 . S
C1428 C1429 1.414 . S
C1428 C1431 1.499 . S
C1429 H1403 0.950 . S
C1429 C1428 1.414 . S
C1429 C1430 1.374 . S
C1430 H1404 0.950 . S
C1430 C1426 1.385 . S
C1430 C1429 1.374 . S
C1431 C1428 1.499 . S
C1431 C1432 1.373 . S
C1431 C1433 1.389 . S
C1432 H1405 0.950 . S
C1432 C1418 1.377 . S
C1432 C1431 1.373 . S
C1433 C1417 1.377 . S
C1433 C1431 1.389 . S
C1433 C1434 1.524 . S
C1434 C1433 1.524 . S
C1434 C1435 1.397 . S
C1434 C1439 1.363 . S
C1435 H1406 0.950 . S
C1435 C1434 1.397 . S
C1435 C1436 1.334 . S
C1436 H1407 0.950 . S
C1436 C1435 1.334 . S
C1436 C1437 1.287 . S
C1437 C1436 1.287 . S
C1437 C1438 1.524 . S
C1437 H1440 0.999 . S
C1438 H1408 0.950 . S
C1438 C1437 1.524 . S
C1438 C1439 1.415 . S
C1439 H1409 0.950 . S
C1439 C1434 1.363 . S
C1439 C1438 1.415 . S
H1440 C1437 0.999 . S
H1441 C1422 0.913 . S
H1442 C1460 0.951 . S
H1443 C1462 0.951 . S
H1444 C1464 0.950 . S
H1445 C1465 0.950 . S
H1446 C1467 0.950 . S
H1447 C1470 0.950 . S
H1448 C1471 0.950 . S
H1449 C1473 0.950 . S
H1450 C1474 0.950 . S
H1451 C1475 0.951 . S
H1452 C1477 0.951 . S
H1453 C1479 0.950 . S
H1454 C1480 0.950 . S
H1455 C1482 0.950 . S
H1456 C1485 0.950 . S
H1457 C1486 0.950 . S
H1458 C1488 0.950 . S
H1459 C1489 0.950 . S
C1460 H1442 0.951 . S
C1460 C1461 1.366 . S
C1460 C1462 1.388 . S
C1461 C1460 1.366 . S
C1461 C1465 1.385 . S
C1462 H1443 0.951 . S
C1462 C1460 1.388 . S
C1462 C1463 1.366 . S
C1463 C1462 1.366 . S
C1463 C1464 1.414 . S
C1463 C1466 1.499 . S
C1464 H1444 0.950 . S
C1464 C1463 1.414 . S
C1464 C1465 1.374 . S
C1465 H1445 0.950 . S
C1465 C1461 1.385 . S
C1465 C1464 1.374 . S
C1466 C1463 1.499 . S
C1466 C1467 1.373 . S
C1466 C1468 1.389 . S
C1467 H1446 0.950 . S
C1467 C1466 1.373 . S
C1467 C1483 1.377 . S
C1468 C1466 1.389 . S
C1468 C1469 1.524 . S
C1468 C1482 1.377 . S
C1469 C1468 1.524 . S
C1469 C1470 1.397 . S
C1469 C1474 1.363 . S
C1470 H1447 0.950 . S
C1470 C1469 1.397 . S
C1470 C1471 1.334 . S
C1471 H1448 0.950 . S
C1471 C1470 1.334 . S
C1471 C1472 1.287 . S
C1472 C1471 1.287 . S
C1472 C1473 1.524 . S
C1472 H1491 0.913 . S
C1473 H1449 0.950 . S
C1473 C1472 1.524 . S
C1473 C1474 1.415 . S
C1474 H1450 0.950 . S
C1474 C1469 1.363 . S
C1474 C1473 1.415 . S
C1475 H1451 0.951 . S
C1475 C1476 1.366 . S
C1475 C1477 1.388 . S
C1476 C1475 1.366 . S
C1476 C1480 1.385 . S
C1477 H1452 0.951 . S
C1477 C1475 1.388 . S
C1477 C1478 1.366 . S
C1478 C1477 1.366 . S
C1478 C1479 1.414 . S
C1478 C1481 1.499 . S
C1479 H1453 0.950 . S
C1479 C1478 1.414 . S
C1479 C1480 1.374 . S
C1480 H1454 0.950 . S
C1480 C1476 1.385 . S
C1480 C1479 1.374 . S
C1481 C1478 1.499 . S
C1481 C1482 1.373 . S
C1481 C1483 1.389 . S
C1482 H1455 0.950 . S
C1482 C1468 1.377 . S
C1482 C1481 1.373 . S
C1483 C1467 1.377 . S
C1483 C1481 1.389 . S
C1483 C1484 1.524 . S
C1484 C1483 1.524 . S
C1484 C1485 1.397 . S
C1484 C1489 1.363 . S
C1485 H1456 0.950 . S
C1485 C1484 1.397 . S
C1485 C1486 1.334 . S
C1486 H1457 0.950 . S
C1486 C1485 1.334 . S
C1486 C1487 1.287 . S
C1487 C1486 1.287 . S
C1487 C1488 1.524 . S
C1487 H1490 0.999 . S
C1488 H1458 0.950 . S
C1488 C1487 1.524 . S
C1488 C1489 1.415 . S
C1489 H1459 0.950 . S
C1489 C1484 1.363 . S
C1489 C1488 1.415 . S
H1490 C1487 0.999 . S
H1491 C1472 0.913 . S
H1492 C1510 0.951 . S
H1493 C1512 0.951 . S
H1494 C1514 0.950 . S
H1495 C1515 0.950 . S
H1496 C1517 0.950 . S
H1497 C1520 0.950 . S
H1498 C1521 0.950 . S
H1499 C1523 0.950 . S
H1500 C1524 0.950 . S
H1501 C1525 0.951 . S
H1502 C1527 0.951 . S
H1503 C1529 0.950 . S
H1504 C1530 0.950 . S
H1505 C1532 0.950 . S
H1506 C1535 0.950 . S
H1507 C1536 0.950 . S
H1508 C1538 0.950 . S
H1509 C1539 0.950 . S
C1510 H1492 0.951 . S
C1510 C1511 1.366 . S
C1510 C1512 1.388 . S
C1511 C1510 1.366 . S
C1511 C1515 1.385 . S
C1512 H1493 0.951 . S
C1512 C1510 1.388 . S
C1512 C1513 1.366 . S
C1513 C1512 1.366 . S
C1513 C1514 1.414 . S
C1513 C1516 1.499 . S
C1514 H1494 0.950 . S
C1514 C1513 1.414 . S
C1514 C1515 1.374 . S
C1515 H1495 0.950 . S
C1515 C1511 1.385 . S
C1515 C1514 1.374 . S
C1516 C1513 1.499 . S
C1516 C1517 1.373 . S
C1516 C1518 1.389 . S
C1517 H1496 0.950 . S
C1517 C1516 1.373 . S
C1517 C1533 1.377 . S
C1518 C1516 1.389 . S
C1518 C1519 1.524 . S
C1518 C1532 1.377 . S
C1519 C1518 1.524 . S
C1519 C1520 1.397 . S
C1519 C1524 1.363 . S
C1520 H1497 0.950 . S
C1520 C1519 1.397 . S
C1520 C1521 1.334 . S
C1521 H1498 0.950 . S
C1521 C1520 1.334 . S
C1521 C1522 1.287 . S
C1522 C1521 1.287 . S
C1522 C1523 1.524 . S
C1522 H1541 0.913 . S
C1523 H1499 0.950 . S
C1523 C1522 1.524 . S
C1523 C1524 1.415 . S
C1524 H1500 0.950 . S
C1524 C1519 1.363 . S
C1524 C1523 1.415 . S
C1525 H1501 0.951 . S
C1525 C1526 1.366 . S
C1525 C1527 1.388 . S
C1526 C1525 1.366 . S
C1526 C1530 1.385 . S
C1527 H1502 0.951 . S
C1527 C1525 1.388 . S
C1527 C1528 1.366 . S
C1528 C1527 1.366 . S
C1528 C1529 1.414 . S
C1528 C1531 1.499 . S
C1529 H1503 0.950 . S
C1529 C1528 1.414 . S
C1529 C1530 1.374 . S
C1530 H1504 0.950 . S
C1530 C1526 1.385 . S
C1530 C1529 1.374 . S
C1531 C1528 1.499 . S
C1531 C1532 1.373 . S
C1531 C1533 1.389 . S
C1532 H1505 0.950 . S
C1532 C1518 1.377 . S
C1532 C1531 1.373 . S
C1533 C1517 1.377 . S
C1533 C1531 1.389 . S
C1533 C1534 1.524 . S
C1534 C1533 1.524 . S
C1534 C1535 1.397 . S
C1534 C1539 1.363 . S
C1535 H1506 0.950 . S
C1535 C1534 1.397 . S
C1535 C1536 1.334 . S
C1536 H1507 0.950 . S
C1536 C1535 1.334 . S
C1536 C1537 1.287 . S
C1537 C1536 1.287 . S
C1537 C1538 1.524 . S
C1537 H1540 0.999 . S
C1538 H1508 0.950 . S
C1538 C1537 1.524 . S
C1538 C1539 1.415 . S
C1539 H1509 0.950 . S
C1539 C1534 1.363 . S
C1539 C1538 1.415 . S
H1540 C1537 0.999 . S
H1541 C1522 0.913 . S
H1542 C1560 0.951 . S
H1543 C1562 0.951 . S
H1544 C1564 0.950 . S
H1545 C1565 0.950 . S
H1546 C1567 0.950 . S
H1547 C1570 0.950 . S
H1548 C1571 0.950 . S
H1549 C1573 0.950 . S
H1550 C1574 0.950 . S
H1551 C1575 0.951 . S
H1552 C1577 0.951 . S
H1553 C1579 0.950 . S
H1554 C1580 0.950 . S
H1555 C1582 0.950 . S
H1556 C1585 0.950 . S
H1557 C1586 0.950 . S
H1558 C1588 0.950 . S
H1559 C1589 0.950 . S
C1560 H1542 0.951 . S
C1560 C1561 1.366 . S
C1560 C1562 1.388 . S
C1561 C1560 1.366 . S
C1561 C1565 1.385 . S
C1562 H1543 0.951 . S
C1562 C1560 1.388 . S
C1562 C1563 1.366 . S
C1563 C1562 1.366 . S
C1563 C1564 1.414 . S
C1563 C1566 1.499 . S
C1564 H1544 0.950 . S
C1564 C1563 1.414 . S
C1564 C1565 1.374 . S
C1565 H1545 0.950 . S
C1565 C1561 1.385 . S
C1565 C1564 1.374 . S
C1566 C1563 1.499 . S
C1566 C1567 1.373 . S
C1566 C1568 1.389 . S
C1567 H1546 0.950 . S
C1567 C1566 1.373 . S
C1567 C1583 1.377 . S
C1568 C1566 1.389 . S
C1568 C1569 1.524 . S
C1568 C1582 1.377 . S
C1569 C1568 1.524 . S
C1569 C1570 1.397 . S
C1569 C1574 1.363 . S
C1570 H1547 0.950 . S
C1570 C1569 1.397 . S
C1570 C1571 1.334 . S
C1571 H1548 0.950 . S
C1571 C1570 1.334 . S
C1571 C1572 1.287 . S
C1572 C1571 1.287 . S
C1572 C1573 1.524 . S
C1572 H1591 0.913 . S
C1573 H1549 0.950 . S
C1573 C1572 1.524 . S
C1573 C1574 1.415 . S
C1574 H1550 0.950 . S
C1574 C1569 1.363 . S
C1574 C1573 1.415 . S
C1575 H1551 0.951 . S
C1575 C1576 1.366 . S
C1575 C1577 1.388 . S
C1576 C1575 1.366 . S
C1576 C1580 1.385 . S
C1577 H1552 0.951 . S
C1577 C1575 1.388 . S
C1577 C1578 1.366 . S
C1578 C1577 1.366 . S
C1578 C1579 1.414 . S
C1578 C1581 1.499 . S
C1579 H1553 0.950 . S
C1579 C1578 1.414 . S
C1579 C1580 1.374 . S
C1580 H1554 0.950 . S
C1580 C1576 1.385 . S
C1580 C1579 1.374 . S
C1581 C1578 1.499 . S
C1581 C1582 1.373 . S
C1581 C1583 1.389 . S
C1582 H1555 0.950 . S
C1582 C1568 1.377 . S
C1582 C1581 1.373 . S
C1583 C1567 1.377 . S
C1583 C1581 1.389 . S
C1583 C1584 1.524 . S
C1584 C1583 1.524 . S
C1584 C1585 1.397 . S
C1584 C1589 1.363 . S
C1585 H1556 0.950 . S
C1585 C1584 1.397 . S
C1585 C1586 1.334 . S
C1586 H1557 0.950 . S
C1586 C1585 1.334 . S
C1586 C1587 1.287 . S
C1587 C1586 1.287 . S
C1587 C1588 1.524 . S
C1587 H1590 0.999 . S
C1588 H1558 0.950 . S
C1588 C1587 1.524 . S
C1588 C1589 1.415 . S
C1589 H1559 0.950 . S
C1589 C1584 1.363 . S
C1589 C1588 1.415 . S
H1590 C1587 0.999 . S
H1591 C1572 0.913 . S
H1592 C1610 0.951 . S
H1593 C1612 0.951 . S
H1594 C1614 0.950 . S
H1595 C1615 0.950 . S
H1596 C1617 0.950 . S
H1597 C1620 0.950 . S
H1598 C1621 0.950 . S
H1599 C1623 0.950 . S
H1600 C1624 0.950 . S
H1601 C1625 0.951 . S
H1602 C1627 0.951 . S
H1603 C1629 0.950 . S
H1604 C1630 0.950 . S
H1605 C1632 0.950 . S
H1606 C1635 0.950 . S
H1607 C1636 0.950 . S
H1608 C1638 0.950 . S
H1609 C1639 0.950 . S
C1610 H1592 0.951 . S
C1610 C1611 1.366 . S
C1610 C1612 1.388 . S
C1611 C1610 1.366 . S
C1611 C1615 1.385 . S
C1612 H1593 0.951 . S
C1612 C1610 1.388 . S
C1612 C1613 1.366 . S
C1613 C1612 1.366 . S
C1613 C1614 1.414 . S
C1613 C1616 1.499 . S
C1614 H1594 0.950 . S
C1614 C1613 1.414 . S
C1614 C1615 1.374 . S
C1615 H1595 0.950 . S
C1615 C1611 1.385 . S
C1615 C1614 1.374 . S
C1616 C1613 1.499 . S
C1616 C1617 1.373 . S
C1616 C1618 1.389 . S
C1617 H1596 0.950 . S
C1617 C1616 1.373 . S
C1617 C1633 1.377 . S
C1618 C1616 1.389 . S
C1618 C1619 1.524 . S
C1618 C1632 1.377 . S
C1619 C1618 1.524 . S
C1619 C1620 1.397 . S
C1619 C1624 1.363 . S
C1620 H1597 0.950 . S
C1620 C1619 1.397 . S
C1620 C1621 1.334 . S
C1621 H1598 0.950 . S
C1621 C1620 1.334 . S
C1621 C1622 1.287 . S
C1622 C1621 1.287 . S
C1622 C1623 1.524 . S
C1622 H1641 0.913 . S
C1623 H1599 0.950 . S
C1623 C1622 1.524 . S
C1623 C1624 1.415 . S
C1624 H1600 0.950 . S
C1624 C1619 1.363 . S
C1624 C1623 1.415 . S
C1625 H1601 0.951 . S
C1625 C1626 1.366 . S
C1625 C1627 1.388 . S
C1626 C1625 1.366 . S
C1626 C1630 1.385 . S
C1627 H1602 0.951 . S
C1627 C1625 1.388 . S
C1627 C1628 1.366 . S
C1628 C1627 1.366 . S
C1628 C1629 1.414 . S
C1628 C1631 1.499 . S
C1629 H1603 0.950 . S
C1629 C1628 1.414 . S
C1629 C1630 1.374 . S
C1630 H1604 0.950 . S
C1630 C1626 1.385 . S
C1630 C1629 1.374 . S
C1631 C1628 1.499 . S
C1631 C1632 1.373 . S
C1631 C1633 1.389 . S
C1632 H1605 0.950 . S
C1632 C1618 1.377 . S
C1632 C1631 1.373 . S
C1633 C1617 1.377 . S
C1633 C1631 1.389 . S
C1633 C1634 1.524 . S
C1634 C1633 1.524 . S
C1634 C1635 1.397 . S
C1634 C1639 1.363 . S
C1635 H1606 0.950 . S
C1635 C1634 1.397 . S
C1635 C1636 1.334 . S
C1636 H1607 0.950 . S
C1636 C1635 1.334 . S
C1636 C1637 1.287 . S
C1637 C1636 1.287 . S
C1637 C1638 1.524 . S
C1637 H1640 0.999 . S
C1638 H1608 0.950 . S
C1638 C1637 1.524 . S
C1638 C1639 1.415 . S
C1639 H1609 0.950 . S
C1639 C1634 1.363 . S
C1639 C1638 1.415 . S
H1640 C1637 0.999 . S
H1641 C1622 0.913 . S
H1642 C1660 0.951 . S
H1643 C1662 0.951 . S
H1644 C1664 0.950 . S
H1645 C1665 0.950 . S
H1646 C1667 0.950 . S
H1647 C1670 0.950 . S
H1648 C1671 0.950 . S
H1649 C1673 0.950 . S
H1650 C1674 0.950 . S
H1651 C1675 0.951 . S
H1652 C1677 0.951 . S
H1653 C1679 0.950 . S
H1654 C1680 0.950 . S
H1655 C1682 0.950 . S
H1656 C1685 0.950 . S
H1657 C1686 0.950 . S
H1658 C1688 0.950 . S
H1659 C1689 0.950 . S
C1660 H1642 0.951 . S
C1660 C1661 1.366 . S
C1660 C1662 1.388 . S
C1661 C1660 1.366 . S
C1661 C1665 1.385 . S
C1662 H1643 0.951 . S
C1662 C1660 1.388 . S
C1662 C1663 1.366 . S
C1663 C1662 1.366 . S
C1663 C1664 1.414 . S
C1663 C1666 1.499 . S
C1664 H1644 0.950 . S
C1664 C1663 1.414 . S
C1664 C1665 1.374 . S
C1665 H1645 0.950 . S
C1665 C1661 1.385 . S
C1665 C1664 1.374 . S
C1666 C1663 1.499 . S
C1666 C1667 1.373 . S
C1666 C1668 1.389 . S
C1667 H1646 0.950 . S
C1667 C1666 1.373 . S
C1667 C1683 1.377 . S
C1668 C1666 1.389 . S
C1668 C1669 1.524 . S
C1668 C1682 1.377 . S
C1669 C1668 1.524 . S
C1669 C1670 1.397 . S
C1669 C1674 1.363 . S
C1670 H1647 0.950 . S
C1670 C1669 1.397 . S
C1670 C1671 1.334 . S
C1671 H1648 0.950 . S
C1671 C1670 1.334 . S
C1671 C1672 1.287 . S
C1672 C1671 1.287 . S
C1672 C1673 1.524 . S
C1672 H1691 0.913 . S
C1673 H1649 0.950 . S
C1673 C1672 1.524 . S
C1673 C1674 1.415 . S
C1674 H1650 0.950 . S
C1674 C1669 1.363 . S
C1674 C1673 1.415 . S
C1675 H1651 0.951 . S
C1675 C1676 1.366 . S
C1675 C1677 1.388 . S
C1676 C1675 1.366 . S
C1676 C1680 1.385 . S
C1677 H1652 0.951 . S
C1677 C1675 1.388 . S
C1677 C1678 1.366 . S
C1678 C1677 1.366 . S
C1678 C1679 1.414 . S
C1678 C1681 1.499 . S
C1679 H1653 0.950 . S
C1679 C1678 1.414 . S
C1679 C1680 1.374 . S
C1680 H1654 0.950 . S
C1680 C1676 1.385 . S
C1680 C1679 1.374 . S
C1681 C1678 1.499 . S
C1681 C1682 1.373 . S
C1681 C1683 1.389 . S
C1682 H1655 0.950 . S
C1682 C1668 1.377 . S
C1682 C1681 1.373 . S
C1683 C1667 1.377 . S
C1683 C1681 1.389 . S
C1683 C1684 1.524 . S
C1684 C1683 1.524 . S
C1684 C1685 1.397 . S
C1684 C1689 1.363 . S
C1685 H1656 0.950 . S
C1685 C1684 1.397 . S
C1685 C1686 1.334 . S
C1686 H1657 0.950 . S
C1686 C1685 1.334 . S
C1686 C1687 1.287 . S
C1687 C1686 1.287 . S
C1687 C1688 1.524 . S
C1687 H1690 0.999 . S
C1688 H1658 0.950 . S
C1688 C1687 1.524 . S
C1688 C1689 1.415 . S
C1689 H1659 0.950 . S
C1689 C1684 1.363 . S
C1689 C1688 1.415 . S
H1690 C1687 0.999 . S
H1691 C1672 0.913 . S
H1692 C1710 0.951 . S
H1693 C1712 0.951 . S
H1694 C1714 0.950 . S
H1695 C1715 0.950 . S
H1696 C1717 0.950 . S
H1697 C1720 0.950 . S
H1698 C1721 0.950 . S
H1699 C1723 0.950 . S
H1700 C1724 0.950 . S
H1701 C1725 0.951 . S
H1702 C1727 0.951 . S
H1703 C1729 0.950 . S
H1704 C1730 0.950 . S
H1705 C1732 0.950 . S
H1706 C1735 0.950 . S
H1707 C1736 0.950 . S
H1708 C1738 0.950 . S
H1709 C1739 0.950 . S
C1710 H1692 0.951 . S
C1710 C1711 1.366 . S
C1710 C1712 1.388 . S
C1711 C1710 1.366 . S
C1711 C1715 1.385 . S
C1712 H1693 0.951 . S
C1712 C1710 1.388 . S
C1712 C1713 1.366 . S
C1713 C1712 1.366 . S
C1713 C1714 1.414 . S
C1713 C1716 1.499 . S
C1714 H1694 0.950 . S
C1714 C1713 1.414 . S
C1714 C1715 1.374 . S
C1715 H1695 0.950 . S
C1715 C1711 1.385 . S
C1715 C1714 1.374 . S
C1716 C1713 1.499 . S
C1716 C1717 1.373 . S
C1716 C1718 1.389 . S
C1717 H1696 0.950 . S
C1717 C1716 1.373 . S
C1717 C1733 1.377 . S
C1718 C1716 1.389 . S
C1718 C1719 1.524 . S
C1718 C1732 1.377 . S
C1719 C1718 1.524 . S
C1719 C1720 1.397 . S
C1719 C1724 1.363 . S
C1720 H1697 0.950 . S
C1720 C1719 1.397 . S
C1720 C1721 1.334 . S
C1721 H1698 0.950 . S
C1721 C1720 1.334 . S
C1721 C1722 1.287 . S
C1722 C1721 1.287 . S
C1722 C1723 1.524 . S
C1722 H1741 0.913 . S
C1723 H1699 0.950 . S
C1723 C1722 1.524 . S
C1723 C1724 1.415 . S
C1724 H1700 0.950 . S
C1724 C1719 1.363 . S
C1724 C1723 1.415 . S
C1725 H1701 0.951 . S
C1725 C1726 1.366 . S
C1725 C1727 1.388 . S
C1726 C1725 1.366 . S
C1726 C1730 1.385 . S
C1727 H1702 0.951 . S
C1727 C1725 1.388 . S
C1727 C1728 1.366 . S
C1728 C1727 1.366 . S
C1728 C1729 1.414 . S
C1728 C1731 1.499 . S
C1729 H1703 0.950 . S
C1729 C1728 1.414 . S
C1729 C1730 1.374 . S
C1730 H1704 0.950 . S
C1730 C1726 1.385 . S
C1730 C1729 1.374 . S
C1731 C1728 1.499 . S
C1731 C1732 1.373 . S
C1731 C1733 1.389 . S
C1732 H1705 0.950 . S
C1732 C1718 1.377 . S
C1732 C1731 1.373 . S
C1733 C1717 1.377 . S
C1733 C1731 1.389 . S
C1733 C1734 1.524 . S
C1734 C1733 1.524 . S
C1734 C1735 1.397 . S
C1734 C1739 1.363 . S
C1735 H1706 0.950 . S
C1735 C1734 1.397 . S
C1735 C1736 1.334 . S
C1736 H1707 0.950 . S
C1736 C1735 1.334 . S
C1736 C1737 1.287 . S
C1737 C1736 1.287 . S
C1737 C1738 1.524 . S
C1737 H1740 0.999 . S
C1738 H1708 0.950 . S
C1738 C1737 1.524 . S
C1738 C1739 1.415 . S
C1739 H1709 0.950 . S
C1739 C1734 1.363 . S
C1739 C1738 1.415 . S
H1740 C1737 0.999 . S
H1741 C1722 0.913 . S
H1742 C1760 0.951 . S
H1743 C1762 0.951 . S
H1744 C1764 0.950 . S
H1745 C1765 0.950 . S
H1746 C1767 0.950 . S
H1747 C1770 0.950 . S
H1748 C1771 0.950 . S
H1749 C1773 0.950 . S
H1750 C1774 0.950 . S
H1751 C1775 0.951 . S
H1752 C1777 0.951 . S
H1753 C1779 0.950 . S
H1754 C1780 0.950 . S
H1755 C1782 0.950 . S
H1756 C1785 0.950 . S
H1757 C1786 0.950 . S
H1758 C1788 0.950 . S
H1759 C1789 0.950 . S
C1760 H1742 0.951 . S
C1760 C1761 1.366 . S
C1760 C1762 1.388 . S
C1761 C1760 1.366 . S
C1761 C1765 1.385 . S
C1762 H1743 0.951 . S
C1762 C1760 1.388 . S
C1762 C1763 1.366 . S
C1763 C1762 1.366 . S
C1763 C1764 1.414 . S
C1763 C1766 1.499 . S
C1764 H1744 0.950 . S
C1764 C1763 1.414 . S
C1764 C1765 1.374 . S
C1765 H1745 0.950 . S
C1765 C1761 1.385 . S
C1765 C1764 1.374 . S
C1766 C1763 1.499 . S
C1766 C1767 1.373 . S
C1766 C1768 1.389 . S
C1767 H1746 0.950 . S
C1767 C1766 1.373 . S
C1767 C1783 1.377 . S
C1768 C1766 1.389 . S
C1768 C1769 1.524 . S
C1768 C1782 1.377 . S
C1769 C1768 1.524 . S
C1769 C1770 1.397 . S
C1769 C1774 1.363 . S
C1770 H1747 0.950 . S
C1770 C1769 1.397 . S
C1770 C1771 1.334 . S
C1771 H1748 0.950 . S
C1771 C1770 1.334 . S
C1771 C1772 1.287 . S
C1772 C1771 1.287 . S
C1772 C1773 1.524 . S
C1772 H1791 0.913 . S
C1773 H1749 0.950 . S
C1773 C1772 1.524 . S
C1773 C1774 1.415 . S
C1774 H1750 0.950 . S
C1774 C1769 1.363 . S
C1774 C1773 1.415 . S
C1775 H1751 0.951 . S
C1775 C1776 1.366 . S
C1775 C1777 1.388 . S
C1776 C1775 1.366 . S
C1776 C1780 1.385 . S
C1777 H1752 0.951 . S
C1777 C1775 1.388 . S
C1777 C1778 1.366 . S
C1778 C1777 1.366 . S
C1778 C1779 1.414 . S
C1778 C1781 1.499 . S
C1779 H1753 0.950 . S
C1779 C1778 1.414 . S
C1779 C1780 1.374 . S
C1780 H1754 0.950 . S
C1780 C1776 1.385 . S
C1780 C1779 1.374 . S
C1781 C1778 1.499 . S
C1781 C1782 1.373 . S
C1781 C1783 1.389 . S
C1782 H1755 0.950 . S
C1782 C1768 1.377 . S
C1782 C1781 1.373 . S
C1783 C1767 1.377 . S
C1783 C1781 1.389 . S
C1783 C1784 1.524 . S
C1784 C1783 1.524 . S
C1784 C1785 1.397 . S
C1784 C1789 1.363 . S
C1785 H1756 0.950 . S
C1785 C1784 1.397 . S
C1785 C1786 1.334 . S
C1786 H1757 0.950 . S
C1786 C1785 1.334 . S
C1786 C1787 1.287 . S
C1787 C1786 1.287 . S
C1787 C1788 1.524 . S
C1787 H1790 0.999 . S
C1788 H1758 0.950 . S
C1788 C1787 1.524 . S
C1788 C1789 1.415 . S
C1789 H1759 0.950 . S
C1789 C1784 1.363 . S
C1789 C1788 1.415 . S
H1790 C1787 0.999 . S
H1791 C1772 0.913 . S
H1792 C1810 0.951 . S
H1793 C1812 0.951 . S
H1794 C1814 0.950 . S
H1795 C1815 0.950 . S
H1796 C1817 0.950 . S
H1797 C1820 0.950 . S
H1798 C1821 0.950 . S
H1799 C1823 0.950 . S
H1800 C1824 0.950 . S
H1801 C1825 0.951 . S
H1802 C1827 0.951 . S
H1803 C1829 0.950 . S
H1804 C1830 0.950 . S
H1805 C1832 0.950 . S
H1806 C1835 0.950 . S
H1807 C1836 0.950 . S
H1808 C1838 0.950 . S
H1809 C1839 0.950 . S
C1810 H1792 0.951 . S
C1810 C1811 1.366 . S
C1810 C1812 1.388 . S
C1811 C1810 1.366 . S
C1811 C1815 1.385 . S
C1812 H1793 0.951 . S
C1812 C1810 1.388 . S
C1812 C1813 1.366 . S
C1813 C1812 1.366 . S
C1813 C1814 1.414 . S
C1813 C1816 1.499 . S
C1814 H1794 0.950 . S
C1814 C1813 1.414 . S
C1814 C1815 1.374 . S
C1815 H1795 0.950 . S
C1815 C1811 1.385 . S
C1815 C1814 1.374 . S
C1816 C1813 1.499 . S
C1816 C1817 1.373 . S
C1816 C1818 1.389 . S
C1817 H1796 0.950 . S
C1817 C1816 1.373 . S
C1817 C1833 1.377 . S
C1818 C1816 1.389 . S
C1818 C1819 1.524 . S
C1818 C1832 1.377 . S
C1819 C1818 1.524 . S
C1819 C1820 1.397 . S
C1819 C1824 1.363 . S
C1820 H1797 0.950 . S
C1820 C1819 1.397 . S
C1820 C1821 1.334 . S
C1821 H1798 0.950 . S
C1821 C1820 1.334 . S
C1821 C1822 1.287 . S
C1822 C1821 1.287 . S
C1822 C1823 1.524 . S
C1822 H1841 0.913 . S
C1823 H1799 0.950 . S
C1823 C1822 1.524 . S
C1823 C1824 1.415 . S
C1824 H1800 0.950 . S
C1824 C1819 1.363 . S
C1824 C1823 1.415 . S
C1825 H1801 0.951 . S
C1825 C1826 1.366 . S
C1825 C1827 1.388 . S
C1826 C1825 1.366 . S
C1826 C1830 1.385 . S
C1827 H1802 0.951 . S
C1827 C1825 1.388 . S
C1827 C1828 1.366 . S
C1828 C1827 1.366 . S
C1828 C1829 1.414 . S
C1828 C1831 1.499 . S
C1829 H1803 0.950 . S
C1829 C1828 1.414 . S
C1829 C1830 1.374 . S
C1830 H1804 0.950 . S
C1830 C1826 1.385 . S
C1830 C1829 1.374 . S
C1831 C1828 1.499 . S
C1831 C1832 1.373 . S
C1831 C1833 1.389 . S
C1832 H1805 0.950 . S
C1832 C1818 1.377 . S
C1832 C1831 1.373 . S
C1833 C1817 1.377 . S
C1833 C1831 1.389 . S
C1833 C1834 1.524 . S
C1834 C1833 1.524 . S
C1834 C1835 1.397 . S
C1834 C1839 1.363 . S
C1835 H1806 0.950 . S
C1835 C1834 1.397 . S
C1835 C1836 1.334 . S
C1836 H1807 0.950 . S
C1836 C1835 1.334 . S
C1836 C1837 1.287 . S
C1837 C1836 1.287 . S
C1837 C1838 1.524 . S
C1837 H1840 0.999 . S
C1838 H1808 0.950 . S
C1838 C1837 1.524 . S
C1838 C1839 1.415 . S
C1839 H1809 0.950 . S
C1839 C1834 1.363 . S
C1839 C1838 1.415 . S
H1840 C1837 0.999 . S
H1841 C1822 0.913 . S
H1842 C1860 0.951 . S
H1843 C1862 0.951 . S
H1844 C1864 0.950 . S
H1845 C1865 0.950 . S
H1846 C1867 0.950 . S
H1847 C1870 0.950 . S
H1848 C1871 0.950 . S
H1849 C1873 0.950 . S
H1850 C1874 0.950 . S
H1851 C1875 0.951 . S
H1852 C1877 0.951 . S
H1853 C1879 0.950 . S
H1854 C1880 0.950 . S
H1855 C1882 0.950 . S
H1856 C1885 0.950 . S
H1857 C1886 0.950 . S
H1858 C1888 0.950 . S
H1859 C1889 0.950 . S
C1860 H1842 0.951 . S
C1860 C1861 1.366 . S
C1860 C1862 1.388 . S
C1861 C1860 1.366 . S
C1861 C1865 1.385 . S
C1862 H1843 0.951 . S
C1862 C1860 1.388 . S
C1862 C1863 1.366 . S
C1863 C1862 1.366 . S
C1863 C1864 1.414 . S
C1863 C1866 1.499 . S
C1864 H1844 0.950 . S
C1864 C1863 1.414 . S
C1864 C1865 1.374 . S
C1865 H1845 0.950 . S
C1865 C1861 1.385 . S
C1865 C1864 1.374 . S
C1866 C1863 1.499 . S
C1866 C1867 1.373 . S
C1866 C1868 1.389 . S
C1867 H1846 0.950 . S
C1867 C1866 1.373 . S
C1867 C1883 1.377 . S
C1868 C1866 1.389 . S
C1868 C1869 1.524 . S
C1868 C1882 1.377 . S
C1869 C1868 1.524 . S
C1869 C1870 1.397 . S
C1869 C1874 1.363 . S
C1870 H1847 0.950 . S
C1870 C1869 1.397 . S
C1870 C1871 1.334 . S
C1871 H1848 0.950 . S
C1871 C1870 1.334 . S
C1871 C1872 1.287 . S
C1872 C1871 1.287 . S
C1872 C1873 1.524 . S
C1872 H1891 0.913 . S
C1873 H1849 0.950 . S
C1873 C1872 1.524 . S
C1873 C1874 1.415 . S
C1874 H1850 0.950 . S
C1874 C1869 1.363 . S
C1874 C1873 1.415 . S
C1875 H1851 0.951 . S
C1875 C1876 1.366 . S
C1875 C1877 1.388 . S
C1876 C1875 1.366 . S
C1876 C1880 1.385 . S
C1877 H1852 0.951 . S
C1877 C1875 1.388 . S
C1877 C1878 1.366 . S
C1878 C1877 1.366 . S
C1878 C1879 1.414 . S
C1878 C1881 1.499 . S
C1879 H1853 0.950 . S
C1879 C1878 1.414 . S
C1879 C1880 1.374 . S
C1880 H1854 0.950 . S
C1880 C1876 1.385 . S
C1880 C1879 1.374 . S
C1881 C1878 1.499 . S
C1881 C1882 1.373 . S
C1881 C1883 1.389 . S
C1882 H1855 0.950 . S
C1882 C1868 1.377 . S
C1882 C1881 1.373 . S
C1883 C1867 1.377 . S
C1883 C1881 1.389 . S
C1883 C1884 1.524 . S
C1884 C1883 1.524 . S
C1884 C1885 1.397 . S
C1884 C1889 1.363 . S
C1885 H1856 0.950 . S
C1885 C1884 1.397 . S
C1885 C1886 1.334 . S
C1886 H1857 0.950 . S
C1886 C1885 1.334 . S
C1886 C1887 1.287 . S
C1887 C1886 1.287 . S
C1887 C1888 1.524 . S
C1887 H1890 0.999 . S
C1888 H1858 0.950 . S
C1888 C1887 1.524 . S
C1888 C1889 1.415 . S
C1889 H1859 0.950 . S
C1889 C1884 1.363 . S
C1889 C1888 1.415 . S
H1890 C1887 0.999 . S
H1891 C1872 0.913 . S
H1892 C1910 0.951 . S
H1893 C1912 0.951 . S
H1894 C1914 0.950 . S
H1895 C1915 0.950 . S
H1896 C1917 0.950 . S
H1897 C1920 0.950 . S
H1898 C1921 0.950 . S
H1899 C1923 0.950 . S
H1900 C1924 0.950 . S
H1901 C1925 0.951 . S
H1902 C1927 0.951 . S
H1903 C1929 0.950 . S
H1904 C1930 0.950 . S
H1905 C1932 0.950 . S
H1906 C1935 0.950 . S
H1907 C1936 0.950 . S
H1908 C1938 0.950 . S
H1909 C1939 0.950 . S
C1910 H1892 0.951 . S
C1910 C1911 1.366 . S
C1910 C1912 1.388 . S
C1911 C1910 1.366 . S
C1911 C1915 1.385 . S
C1912 H1893 0.951 . S
C1912 C1910 1.388 . S
C1912 C1913 1.366 . S
C1913 C1912 1.366 . S
C1913 C1914 1.414 . S
C1913 C1916 1.499 . S
C1914 H1894 0.950 . S
C1914 C1913 1.414 . S
C1914 C1915 1.374 . S
C1915 H1895 0.950 . S
C1915 C1911 1.385 . S
C1915 C1914 1.374 . S
C1916 C1913 1.499 . S
C1916 C1917 1.373 . S
C1916 C1918 1.389 . S
C1917 H1896 0.950 . S
C1917 C1916 1.373 . S
C1917 C1933 1.377 . S
C1918 C1916 1.389 . S
C1918 C1919 1.524 . S
C1918 C1932 1.377 . S
C1919 C1918 1.524 . S
C1919 C1920 1.397 . S
C1919 C1924 1.363 . S
C1920 H1897 0.950 . S
C1920 C1919 1.397 . S
C1920 C1921 1.334 . S
C1921 H1898 0.950 . S
C1921 C1920 1.334 . S
C1921 C1922 1.287 . S
C1922 C1921 1.287 . S
C1922 C1923 1.524 . S
C1922 H1941 0.913 . S
C1923 H1899 0.950 . S
C1923 C1922 1.524 . S
C1923 C1924 1.415 . S
C1924 H1900 0.950 . S
C1924 C1919 1.363 . S
C1924 C1923 1.415 . S
C1925 H1901 0.951 . S
C1925 C1926 1.366 . S
C1925 C1927 1.388 . S
C1926 C1925 1.366 . S
C1926 C1930 1.385 . S
C1927 H1902 0.951 . S
C1927 C1925 1.388 . S
C1927 C1928 1.366 . S
C1928 C1927 1.366 . S
C1928 C1929 1.414 . S
C1928 C1931 1.499 . S
C1929 H1903 0.950 . S
C1929 C1928 1.414 . S
C1929 C1930 1.374 . S
C1930 H1904 0.950 . S
C1930 C1926 1.385 . S
C1930 C1929 1.374 . S
C1931 C1928 1.499 . S
C1931 C1932 1.373 . S
C1931 C1933 1.389 . S
C1932 H1905 0.950 . S
C1932 C1918 1.377 . S
C1932 C1931 1.373 . S
C1933 C1917 1.377 . S
C1933 C1931 1.389 . S
C1933 C1934 1.524 . S
C1934 C1933 1.524 . S
C1934 C1935 1.397 . S
C1934 C1939 1.363 . S
C1935 H1906 0.950 . S
C1935 C1934 1.397 . S
C1935 C1936 1.334 . S
C1936 H1907 0.950 . S
C1936 C1935 1.334 . S
C1936 C1937 1.287 . S
C1937 C1936 1.287 . S
C1937 C1938 1.524 . S
C1937 H1940 0.999 . S
C1938 H1908 0.950 . S
C1938 C1937 1.524 . S
C1938 C1939 1.415 . S
C1939 H1909 0.950 . S
C1939 C1934 1.363 . S
C1939 C1938 1.415 . S
H1940 C1937 0.999 . S
H1941 C1922 0.913 . S
H1942 C1960 0.951 . S
H1943 C1962 0.951 . S
H1944 C1964 0.950 . S
H1945 C1965 0.950 . S
H1946 C1967 0.950 . S
H1947 C1970 0.950 . S
H1948 C1971 0.950 . S
H1949 C1973 0.950 . S
H1950 C1974 0.950 . S
H1951 C1975 0.951 . S
H1952 C1977 0.951 . S
H1953 C1979 0.950 . S
H1954 C1980 0.950 . S
H1955 C1982 0.950 . S
H1956 C1985 0.950 . S
H1957 C1986 0.950 . S
H1958 C1988 0.950 . S
H1959 C1989 0.950 . S
C1960 H1942 0.951 . S
C1960 C1961 1.366 . S
C1960 C1962 1.388 . S
C1961 C1960 1.366 . S
C1961 C1965 1.385 . S
C1962 H1943 0.951 . S
C1962 C1960 1.388 . S
C1962 C1963 1.366 . S
C1963 C1962 1.366 . S
C1963 C1964 1.414 . S
C1963 C1966 1.499 . S
C1964 H1944 0.950 . S
C1964 C1963 1.414 . S
C1964 C1965 1.374 . S
C1965 H1945 0.950 . S
C1965 C1961 1.385 . S
C1965 C1964 1.374 . S
C1966 C1963 1.499 . S
C1966 C1967 1.373 . S
C1966 C1968 1.389 . S
C1967 H1946 0.950 . S
C1967 C1966 1.373 . S
C1967 C1983 1.377 . S
C1968 C1966 1.389 . S
C1968 C1969 1.524 . S
C1968 C1982 1.377 . S
C1969 C1968 1.524 . S
C1969 C1970 1.397 . S
C1969 C1974 1.363 . S
C1970 H1947 0.950 . S
C1970 C1969 1.397 . S
C1970 C1971 1.334 . S
C1971 H1948 0.950 . S
C1971 C1970 1.334 . S
C1971 C1972 1.287 . S
C1972 C1971 1.287 . S
C1972 C1973 1.524 . S
C1972 H1991 0.913 . S
C1973 H1949 0.950 . S
C1973 C1972 1.524 . S
C1973 C1974 1.415 . S
C1974 H1950 0.950 . S
C1974 C1969 1.363 . S
C1974 C1973 1.415 . S
C1975 H1951 0.951 . S
C1975 C1976 1.366 . S
C1975 C1977 1.388 . S
C1976 C1975 1.366 . S
C1976 C1980 1.385 . S
C1977 H1952 0.951 . S
C1977 C1975 1.388 . S
C1977 C1978 1.366 . S
C1978 C1977 1.366 . S
C1978 C1979 1.414 . S
C1978 C1981 1.499 . S
C1979 H1953 0.950 . S
C1979 C1978 1.414 . S
C1979 C1980 1.374 . S
C1980 H1954 0.950 . S
C1980 C1976 1.385 . S
C1980 C1979 1.374 . S
C1981 C1978 1.499 . S
C1981 C1982 1.373 . S
C1981 C1983 1.389 . S
C1982 H1955 0.950 . S
C1982 C1968 1.377 . S
C1982 C1981 1.373 . S
C1983 C1967 1.377 . S
C1983 C1981 1.389 . S
C1983 C1984 1.524 . S
C1984 C1983 1.524 . S
C1984 C1985 1.397 . S
C1984 C1989 1.363 . S
C1985 H1956 0.950 . S
C1985 C1984 1.397 . S
C1985 C1986 1.334 . S
C1986 H1957 0.950 . S
C1986 C1985 1.334 . S
C1986 C1987 1.287 . S
C1987 C1986 1.287 . S
C1987 C1988 1.524 . S
C1987 H1990 0.999 . S
C1988 H1958 0.950 . S
C1988 C1987 1.524 . S
C1988 C1989 1.415 . S
C1989 H1959 0.950 . S
C1989 C1984 1.363 . S
C1989 C1988 1.415 . S
H1990 C1987 0.999 . S
H1991 C1972 0.913 . S
H1992 C2010 0.951 . S
H1993 C2012 0.951 . S
H1994 C2014 0.950 . S
H1995 C2015 0.950 . S
H1996 C2017 0.950 . S
H1997 C2020 0.950 . S
H1998 C2021 0.950 . S
H1999 C2023 0.950 . S
H2000 C2024 0.950 . S
H2001 C2025 0.951 . S
H2002 C2027 0.951 . S
H2003 C2029 0.950 . S
H2004 C2030 0.950 . S
H2005 C2032 0.950 . S
H2006 C2035 0.950 . S
H2007 C2036 0.950 . S
H2008 C2038 0.950 . S
H2009 C2039 0.950 . S
C2010 H1992 0.951 . S
C2010 C2011 1.366 . S
C2010 C2012 1.388 . S
C2011 C2010 1.366 . S
C2011 C2015 1.385 . S
C2012 H1993 0.951 . S
C2012 C2010 1.388 . S
C2012 C2013 1.366 . S
C2013 C2012 1.366 . S
C2013 C2014 1.414 . S
C2013 C2016 1.499 . S
C2014 H1994 0.950 . S
C2014 C2013 1.414 . S
C2014 C2015 1.374 . S
C2015 H1995 0.950 . S
C2015 C2011 1.385 . S
C2015 C2014 1.374 . S
C2016 C2013 1.499 . S
C2016 C2017 1.373 . S
C2016 C2018 1.389 . S
C2017 H1996 0.950 . S
C2017 C2016 1.373 . S
C2017 C2033 1.377 . S
C2018 C2016 1.389 . S
C2018 C2019 1.524 . S
C2018 C2032 1.377 . S
C2019 C2018 1.524 . S
C2019 C2020 1.397 . S
C2019 C2024 1.363 . S
C2020 H1997 0.950 . S
C2020 C2019 1.397 . S
C2020 C2021 1.334 . S
C2021 H1998 0.950 . S
C2021 C2020 1.334 . S
C2021 C2022 1.287 . S
C2022 C2021 1.287 . S
C2022 C2023 1.524 . S
C2022 H2041 0.913 . S
C2023 H1999 0.950 . S
C2023 C2022 1.524 . S
C2023 C2024 1.415 . S
C2024 H2000 0.950 . S
C2024 C2019 1.363 . S
C2024 C2023 1.415 . S
C2025 H2001 0.951 . S
C2025 C2026 1.366 . S
C2025 C2027 1.388 . S
C2026 C2025 1.366 . S
C2026 C2030 1.385 . S
C2027 H2002 0.951 . S
C2027 C2025 1.388 . S
C2027 C2028 1.366 . S
C2028 C2027 1.366 . S
C2028 C2029 1.414 . S
C2028 C2031 1.499 . S
C2029 H2003 0.950 . S
C2029 C2028 1.414 . S
C2029 C2030 1.374 . S
C2030 H2004 0.950 . S
C2030 C2026 1.385 . S
C2030 C2029 1.374 . S
C2031 C2028 1.499 . S
C2031 C2032 1.373 . S
C2031 C2033 1.389 . S
C2032 H2005 0.950 . S
C2032 C2018 1.377 . S
C2032 C2031 1.373 . S
C2033 C2017 1.377 . S
C2033 C2031 1.389 . S
C2033 C2034 1.524 . S
C2034 C2033 1.524 . S
C2034 C2035 1.397 . S
C2034 C2039 1.363 . S
C2035 H2006 0.950 . S
C2035 C2034 1.397 . S
C2035 C2036 1.334 . S
C2036 H2007 0.950 . S
C2036 C2035 1.334 . S
C2036 C2037 1.287 . S
C2037 C2036 1.287 . S
C2037 C2038 1.524 . S
C2037 H2040 0.999 . S
C2038 H2008 0.950 . S
C2038 C2037 1.524 . S
C2038 C2039 1.415 . S
C2039 H2009 0.950 . S
C2039 C2034 1.363 . S
C2039 C2038 1.415 . S
H2040 C2037 0.999 . S
H2041 C2022 0.913 . S
H2042 C2060 0.951 . S
H2043 C2062 0.951 . S
H2044 C2064 0.950 . S
H2045 C2065 0.950 . S
H2046 C2067 0.950 . S
H2047 C2070 0.950 . S
H2048 C2071 0.950 . S
H2049 C2073 0.950 . S
H2050 C2074 0.950 . S
H2051 C2075 0.951 . S
H2052 C2077 0.951 . S
H2053 C2079 0.950 . S
H2054 C2080 0.950 . S
H2055 C2082 0.950 . S
H2056 C2085 0.950 . S
H2057 C2086 0.950 . S
H2058 C2088 0.950 . S
H2059 C2089 0.950 . S
C2060 H2042 0.951 . S
C2060 C2061 1.366 . S
C2060 C2062 1.388 . S
C2061 C2060 1.366 . S
C2061 C2065 1.385 . S
C2062 H2043 0.951 . S
C2062 C2060 1.388 . S
C2062 C2063 1.366 . S
C2063 C2062 1.366 . S
C2063 C2064 1.414 . S
C2063 C2066 1.499 . S
C2064 H2044 0.950 . S
C2064 C2063 1.414 . S
C2064 C2065 1.374 . S
C2065 H2045 0.950 . S
C2065 C2061 1.385 . S
C2065 C2064 1.374 . S
C2066 C2063 1.499 . S
C2066 C2067 1.373 . S
C2066 C2068 1.389 . S
C2067 H2046 0.950 . S
C2067 C2066 1.373 . S
C2067 C2083 1.377 . S
C2068 C2066 1.389 . S
C2068 C2069 1.524 . S
C2068 C2082 1.377 . S
C2069 C2068 1.524 . S
C2069 C2070 1.397 . S
C2069 C2074 1.363 . S
C2070 H2047 0.950 . S
C2070 C2069 1.397 . S
C2070 C2071 1.334 . S
C2071 H2048 0.950 . S
C2071 C2070 1.334 . S
C2071 C2072 1.287 . S
C2072 C2071 1.287 . S
C2072 C2073 1.524 . S
C2072 H2091 0.913 . S
C2073 H2049 0.950 . S
C2073 C2072 1.524 . S
C2073 C2074 1.415 . S
C2074 H2050 0.950 . S
C2074 C2069 1.363 . S
C2074 C2073 1.415 . S
C2075 H2051 0.951 . S
C2075 C2076 1.366 . S
C2075 C2077 1.388 . S
C2076 C2075 1.366 . S
C2076 C2080 1.385 . S
C2077 H2052 0.951 . S
C2077 C2075 1.388 . S
C2077 C2078 1.366 . S
C2078 C2077 1.366 . S
C2078 C2079 1.414 . S
C2078 C2081 1.499 . S
C2079 H2053 0.950 . S
C2079 C2078 1.414 . S
C2079 C2080 1.374 . S
C2080 H2054 0.950 . S
C2080 C2076 1.385 . S
C2080 C2079 1.374 . S
C2081 C2078 1.499 . S
C2081 C2082 1.373 . S
C2081 C2083 1.389 . S
C2082 H2055 0.950 . S
C2082 C2068 1.377 . S
C2082 C2081 1.373 . S
C2083 C2067 1.377 . S
C2083 C2081 1.389 . S
C2083 C2084 1.524 . S
C2084 C2083 1.524 . S
C2084 C2085 1.397 . S
C2084 C2089 1.363 . S
C2085 H2056 0.950 . S
C2085 C2084 1.397 . S
C2085 C2086 1.334 . S
C2086 H2057 0.950 . S
C2086 C2085 1.334 . S
C2086 C2087 1.287 . S
C2087 C2086 1.287 . S
C2087 C2088 1.524 . S
C2087 H2090 0.999 . S
C2088 H2058 0.950 . S
C2088 C2087 1.524 . S
C2088 C2089 1.415 . S
C2089 H2059 0.950 . S
C2089 C2084 1.363 . S
C2089 C2088 1.415 . S
H2090 C2087 0.999 . S
H2091 C2072 0.913 . S
H2092 C2110 0.951 . S
H2093 C2112 0.951 . S
H2094 C2114 0.950 . S
H2095 C2115 0.950 . S
H2096 C2117 0.950 . S
H2097 C2120 0.950 . S
H2098 C2121 0.950 . S
H2099 C2123 0.950 . S
H2100 C2124 0.950 . S
H2101 C2125 0.951 . S
H2102 C2127 0.951 . S
H2103 C2129 0.950 . S
H2104 C2130 0.950 . S
H2105 C2132 0.950 . S
H2106 C2135 0.950 . S
H2107 C2136 0.950 . S
H2108 C2138 0.950 . S
H2109 C2139 0.950 . S
C2110 H2092 0.951 . S
C2110 C2111 1.366 . S
C2110 C2112 1.388 . S
C2111 C2110 1.366 . S
C2111 C2115 1.385 . S
C2112 H2093 0.951 . S
C2112 C2110 1.388 . S
C2112 C2113 1.366 . S
C2113 C2112 1.366 . S
C2113 C2114 1.414 . S
C2113 C2116 1.499 . S
C2114 H2094 0.950 . S
C2114 C2113 1.414 . S
C2114 C2115 1.374 . S
C2115 H2095 0.950 . S
C2115 C2111 1.385 . S
C2115 C2114 1.374 . S
C2116 C2113 1.499 . S
C2116 C2117 1.373 . S
C2116 C2118 1.389 . S
C2117 H2096 0.950 . S
C2117 C2116 1.373 . S
C2117 C2133 1.377 . S
C2118 C2116 1.389 . S
C2118 C2119 1.524 . S
C2118 C2132 1.377 . S
C2119 C2118 1.524 . S
C2119 C2120 1.397 . S
C2119 C2124 1.363 . S
C2120 H2097 0.950 . S
C2120 C2119 1.397 . S
C2120 C2121 1.334 . S
C2121 H2098 0.950 . S
C2121 C2120 1.334 . S
C2121 C2122 1.287 . S
C2122 C2121 1.287 . S
C2122 C2123 1.524 . S
C2122 H2141 0.913 . S
C2123 H2099 0.950 . S
C2123 C2122 1.524 . S
C2123 C2124 1.415 . S
C2124 H2100 0.950 . S
C2124 C2119 1.363 . S
C2124 C2123 1.415 . S
C2125 H2101 0.951 . S
C2125 C2126 1.366 . S
C2125 C2127 1.388 . S
C2126 C2125 1.366 . S
C2126 C2130 1.385 . S
C2127 H2102 0.951 . S
C2127 C2125 1.388 . S
C2127 C2128 1.366 . S
C2128 C2127 1.366 . S
C2128 C2129 1.414 . S
C2128 C2131 1.499 . S
C2129 H2103 0.950 . S
C2129 C2128 1.414 . S
C2129 C2130 1.374 . S
C2130 H2104 0.950 . S
C2130 C2126 1.385 . S
C2130 C2129 1.374 . S
C2131 C2128 1.499 . S
C2131 C2132 1.373 . S
C2131 C2133 1.389 . S
C2132 H2105 0.950 . S
C2132 C2118 1.377 . S
C2132 C2131 1.373 . S
C2133 C2117 1.377 . S
C2133 C2131 1.389 . S
C2133 C2134 1.524 . S
C2134 C2133 1.524 . S
C2134 C2135 1.397 . S
C2134 C2139 1.363 . S
C2135 H2106 0.950 . S
C2135 C2134 1.397 . S
C2135 C2136 1.334 . S
C2136 H2107 0.950 . S
C2136 C2135 1.334 . S
C2136 C2137 1.287 . S
C2137 C2136 1.287 . S
C2137 C2138 1.524 . S
C2137 H2140 0.999 . S
C2138 H2108 0.950 . S
C2138 C2137 1.524 . S
C2138 C2139 1.415 . S
C2139 H2109 0.950 . S
C2139 C2134 1.363 . S
C2139 C2138 1.415 . S
H2140 C2137 0.999 . S
H2141 C2122 0.913 . S
H2142 C2160 0.951 . S
H2143 C2162 0.951 . S
H2144 C2164 0.950 . S
H2145 C2165 0.950 . S
H2146 C2167 0.950 . S
H2147 C2170 0.950 . S
H2148 C2171 0.950 . S
H2149 C2173 0.950 . S
H2150 C2174 0.950 . S
H2151 C2175 0.951 . S
H2152 C2177 0.951 . S
H2153 C2179 0.950 . S
H2154 C2180 0.950 . S
H2155 C2182 0.950 . S
H2156 C2185 0.950 . S
H2157 C2186 0.950 . S
H2158 C2188 0.950 . S
H2159 C2189 0.950 . S
C2160 H2142 0.951 . S
C2160 C2161 1.366 . S
C2160 C2162 1.388 . S
C2161 C2160 1.366 . S
C2161 C2165 1.385 . S
C2162 H2143 0.951 . S
C2162 C2160 1.388 . S
C2162 C2163 1.366 . S
C2163 C2162 1.366 . S
C2163 C2164 1.414 . S
C2163 C2166 1.499 . S
C2164 H2144 0.950 . S
C2164 C2163 1.414 . S
C2164 C2165 1.374 . S
C2165 H2145 0.950 . S
C2165 C2161 1.385 . S
C2165 C2164 1.374 . S
C2166 C2163 1.499 . S
C2166 C2167 1.373 . S
C2166 C2168 1.389 . S
C2167 H2146 0.950 . S
C2167 C2166 1.373 . S
C2167 C2183 1.377 . S
C2168 C2166 1.389 . S
C2168 C2169 1.524 . S
C2168 C2182 1.377 . S
C2169 C2168 1.524 . S
C2169 C2170 1.397 . S
C2169 C2174 1.363 . S
C2170 H2147 0.950 . S
C2170 C2169 1.397 . S
C2170 C2171 1.334 . S
C2171 H2148 0.950 . S
C2171 C2170 1.334 . S
C2171 C2172 1.287 . S
C2172 C2171 1.287 . S
C2172 C2173 1.524 . S
C2172 H2191 0.913 . S
C2173 H2149 0.950 . S
C2173 C2172 1.524 . S
C2173 C2174 1.415 . S
C2174 H2150 0.950 . S
C2174 C2169 1.363 . S
C2174 C2173 1.415 . S
C2175 H2151 0.951 . S
C2175 C2176 1.366 . S
C2175 C2177 1.388 . S
C2176 C2175 1.366 . S
C2176 C2180 1.385 . S
C2177 H2152 0.951 . S
C2177 C2175 1.388 . S
C2177 C2178 1.366 . S
C2178 C2177 1.366 . S
C2178 C2179 1.414 . S
C2178 C2181 1.499 . S
C2179 H2153 0.950 . S
C2179 C2178 1.414 . S
C2179 C2180 1.374 . S
C2180 H2154 0.950 . S
C2180 C2176 1.385 . S
C2180 C2179 1.374 . S
C2181 C2178 1.499 . S
C2181 C2182 1.373 . S
C2181 C2183 1.389 . S
C2182 H2155 0.950 . S
C2182 C2168 1.377 . S
C2182 C2181 1.373 . S
C2183 C2167 1.377 . S
C2183 C2181 1.389 . S
C2183 C2184 1.524 . S
C2184 C2183 1.524 . S
C2184 C2185 1.397 . S
C2184 C2189 1.363 . S
C2185 H2156 0.950 . S
C2185 C2184 1.397 . S
C2185 C2186 1.334 . S
C2186 H2157 0.950 . S
C2186 C2185 1.334 . S
C2186 C2187 1.287 . S
C2187 C2186 1.287 . S
C2187 C2188 1.524 . S
C2187 H2190 0.999 . S
C2188 H2158 0.950 . S
C2188 C2187 1.524 . S
C2188 C2189 1.415 . S
C2189 H2159 0.950 . S
C2189 C2184 1.363 . S
C2189 C2188 1.415 . S
H2190 C2187 0.999 . S
H2191 C2172 0.913 . S
H2192 C2210 0.951 . S
H2193 C2212 0.951 . S
H2194 C2214 0.950 . S
H2195 C2215 0.950 . S
H2196 C2217 0.950 . S
H2197 C2220 0.950 . S
H2198 C2221 0.950 . S
H2199 C2223 0.950 . S
H2200 C2224 0.950 . S
H2201 C2225 0.951 . S
H2202 C2227 0.951 . S
H2203 C2229 0.950 . S
H2204 C2230 0.950 . S
H2205 C2232 0.950 . S
H2206 C2235 0.950 . S
H2207 C2236 0.950 . S
H2208 C2238 0.950 . S
H2209 C2239 0.950 . S
C2210 H2192 0.951 . S
C2210 C2211 1.366 . S
C2210 C2212 1.388 . S
C2211 C2210 1.366 . S
C2211 C2215 1.385 . S
C2212 H2193 0.951 . S
C2212 C2210 1.388 . S
C2212 C2213 1.366 . S
C2213 C2212 1.366 . S
C2213 C2214 1.414 . S
C2213 C2216 1.499 . S
C2214 H2194 0.950 . S
C2214 C2213 1.414 . S
C2214 C2215 1.374 . S
C2215 H2195 0.950 . S
C2215 C2211 1.385 . S
C2215 C2214 1.374 . S
C2216 C2213 1.499 . S
C2216 C2217 1.373 . S
C2216 C2218 1.389 . S
C2217 H2196 0.950 . S
C2217 C2216 1.373 . S
C2217 C2233 1.377 . S
C2218 C2216 1.389 . S
C2218 C2219 1.524 . S
C2218 C2232 1.377 . S
C2219 C2218 1.524 . S
C2219 C2220 1.397 . S
C2219 C2224 1.363 . S
C2220 H2197 0.950 . S
C2220 C2219 1.397 . S
C2220 C2221 1.334 . S
C2221 H2198 0.950 . S
C2221 C2220 1.334 . S
C2221 C2222 1.287 . S
C2222 C2221 1.287 . S
C2222 C2223 1.524 . S
C2222 H2241 0.913 . S
C2223 H2199 0.950 . S
C2223 C2222 1.524 . S
C2223 C2224 1.415 . S
C2224 H2200 0.950 . S
C2224 C2219 1.363 . S
C2224 C2223 1.415 . S
C2225 H2201 0.951 . S
C2225 C2226 1.366 . S
C2225 C2227 1.388 . S
C2226 C2225 1.366 . S
C2226 C2230 1.385 . S
C2227 H2202 0.951 . S
C2227 C2225 1.388 . S
C2227 C2228 1.366 . S
C2228 C2227 1.366 . S
C2228 C2229 1.414 . S
C2228 C2231 1.499 . S
C2229 H2203 0.950 . S
C2229 C2228 1.414 . S
C2229 C2230 1.374 . S
C2230 H2204 0.950 . S
C2230 C2226 1.385 . S
C2230 C2229 1.374 . S
C2231 C2228 1.499 . S
C2231 C2232 1.373 . S
C2231 C2233 1.389 . S
C2232 H2205 0.950 . S
C2232 C2218 1.377 . S
C2232 C2231 1.373 . S
C2233 C2217 1.377 . S
C2233 C2231 1.389 . S
C2233 C2234 1.524 . S
C2234 C2233 1.524 . S
C2234 C2235 1.397 . S
C2234 C2239 1.363 . S
C2235 H2206 0.950 . S
C2235 C2234 1.397 . S
C2235 C2236 1.334 . S
C2236 H2207 0.950 . S
C2236 C2235 1.334 . S
C2236 C2237 1.287 . S
C2237 C2236 1.287 . S
C2237 C2238 1.524 . S
C2237 H2240 0.999 . S
C2238 H2208 0.950 . S
C2238 C2237 1.524 . S
C2238 C2239 1.415 . S
C2239 H2209 0.950 . S
C2239 C2234 1.363 . S
C2239 C2238 1.415 . S
H2240 C2237 0.999 . S
H2241 C2222 0.913 . S
H2242 C2260 0.951 . S
H2243 C2262 0.951 . S
H2244 C2264 0.950 . S
H2245 C2265 0.950 . S
H2246 C2267 0.950 . S
H2247 C2270 0.950 . S
H2248 C2271 0.950 . S
H2249 C2273 0.950 . S
H2250 C2274 0.950 . S
H2251 C2275 0.951 . S
H2252 C2277 0.951 . S
H2253 C2279 0.950 . S
H2254 C2280 0.950 . S
H2255 C2282 0.950 . S
H2256 C2285 0.950 . S
H2257 C2286 0.950 . S
H2258 C2288 0.950 . S
H2259 C2289 0.950 . S
C2260 H2242 0.951 . S
C2260 C2261 1.366 . S
C2260 C2262 1.388 . S
C2261 C2260 1.366 . S
C2261 C2265 1.385 . S
C2262 H2243 0.951 . S
C2262 C2260 1.388 . S
C2262 C2263 1.366 . S
C2263 C2262 1.366 . S
C2263 C2264 1.414 . S
C2263 C2266 1.499 . S
C2264 H2244 0.950 . S
C2264 C2263 1.414 . S
C2264 C2265 1.374 . S
C2265 H2245 0.950 . S
C2265 C2261 1.385 . S
C2265 C2264 1.374 . S
C2266 C2263 1.499 . S
C2266 C2267 1.373 . S
C2266 C2268 1.389 . S
C2267 H2246 0.950 . S
C2267 C2266 1.373 . S
C2267 C2283 1.377 . S
C2268 C2266 1.389 . S
C2268 C2269 1.524 . S
C2268 C2282 1.377 . S
C2269 C2268 1.524 . S
C2269 C2270 1.397 . S
C2269 C2274 1.363 . S
C2270 H2247 0.950 . S
C2270 C2269 1.397 . S
C2270 C2271 1.334 . S
C2271 H2248 0.950 . S
C2271 C2270 1.334 . S
C2271 C2272 1.287 . S
C2272 C2271 1.287 . S
C2272 C2273 1.524 . S
C2272 H2291 0.913 . S
C2273 H2249 0.950 . S
C2273 C2272 1.524 . S
C2273 C2274 1.415 . S
C2274 H2250 0.950 . S
C2274 C2269 1.363 . S
C2274 C2273 1.415 . S
C2275 H2251 0.951 . S
C2275 C2276 1.366 . S
C2275 C2277 1.388 . S
C2276 C2275 1.366 . S
C2276 C2280 1.385 . S
C2277 H2252 0.951 . S
C2277 C2275 1.388 . S
C2277 C2278 1.366 . S
C2278 C2277 1.366 . S
C2278 C2279 1.414 . S
C2278 C2281 1.499 . S
C2279 H2253 0.950 . S
C2279 C2278 1.414 . S
C2279 C2280 1.374 . S
C2280 H2254 0.950 . S
C2280 C2276 1.385 . S
C2280 C2279 1.374 . S
C2281 C2278 1.499 . S
C2281 C2282 1.373 . S
C2281 C2283 1.389 . S
C2282 H2255 0.950 . S
C2282 C2268 1.377 . S
C2282 C2281 1.373 . S
C2283 C2267 1.377 . S
C2283 C2281 1.389 . S
C2283 C2284 1.524 . S
C2284 C2283 1.524 . S
C2284 C2285 1.397 . S
C2284 C2289 1.363 . S
C2285 H2256 0.950 . S
C2285 C2284 1.397 . S
C2285 C2286 1.334 . S
C2286 H2257 0.950 . S
C2286 C2285 1.334 . S
C2286 C2287 1.287 . S
C2287 C2286 1.287 . S
C2287 C2288 1.524 . S
C2287 H2290 0.999 . S
C2288 H2258 0.950 . S
C2288 C2287 1.524 . S
C2288 C2289 1.415 . S
C2289 H2259 0.950 . S
C2289 C2284 1.363 . S
C2289 C2288 1.415 . S
H2290 C2287 0.999 . S
H2291 C2272 0.913 . S
H2292 C2310 0.951 . S
H2293 C2312 0.951 . S
H2294 C2314 0.950 . S
H2295 C2315 0.950 . S
H2296 C2317 0.950 . S
H2297 C2320 0.950 . S
H2298 C2321 0.950 . S
H2299 C2323 0.950 . S
H2300 C2324 0.950 . S
H2301 C2325 0.951 . S
H2302 C2327 0.951 . S
H2303 C2329 0.950 . S
H2304 C2330 0.950 . S
H2305 C2332 0.950 . S
H2306 C2335 0.950 . S
H2307 C2336 0.950 . S
H2308 C2338 0.950 . S
H2309 C2339 0.950 . S
C2310 H2292 0.951 . S
C2310 C2311 1.366 . S
C2310 C2312 1.388 . S
C2311 C2310 1.366 . S
C2311 C2315 1.385 . S
C2312 H2293 0.951 . S
C2312 C2310 1.388 . S
C2312 C2313 1.366 . S
C2313 C2312 1.366 . S
C2313 C2314 1.414 . S
C2313 C2316 1.499 . S
C2314 H2294 0.950 . S
C2314 C2313 1.414 . S
C2314 C2315 1.374 . S
C2315 H2295 0.950 . S
C2315 C2311 1.385 . S
C2315 C2314 1.374 . S
C2316 C2313 1.499 . S
C2316 C2317 1.373 . S
C2316 C2318 1.389 . S
C2317 H2296 0.950 . S
C2317 C2316 1.373 . S
C2317 C2333 1.377 . S
C2318 C2316 1.389 . S
C2318 C2319 1.524 . S
C2318 C2332 1.377 . S
C2319 C2318 1.524 . S
C2319 C2320 1.397 . S
C2319 C2324 1.363 . S
C2320 H2297 0.950 . S
C2320 C2319 1.397 . S
C2320 C2321 1.334 . S
C2321 H2298 0.950 . S
C2321 C2320 1.334 . S
C2321 C2322 1.287 . S
C2322 C2321 1.287 . S
C2322 C2323 1.524 . S
C2322 H2341 0.913 . S
C2323 H2299 0.950 . S
C2323 C2322 1.524 . S
C2323 C2324 1.415 . S
C2324 H2300 0.950 . S
C2324 C2319 1.363 . S
C2324 C2323 1.415 . S
C2325 H2301 0.951 . S
C2325 C2326 1.366 . S
C2325 C2327 1.388 . S
C2326 C2325 1.366 . S
C2326 C2330 1.385 . S
C2327 H2302 0.951 . S
C2327 C2325 1.388 . S
C2327 C2328 1.366 . S
C2328 C2327 1.366 . S
C2328 C2329 1.414 . S
C2328 C2331 1.499 . S
C2329 H2303 0.950 . S
C2329 C2328 1.414 . S
C2329 C2330 1.374 . S
C2330 H2304 0.950 . S
C2330 C2326 1.385 . S
C2330 C2329 1.374 . S
C2331 C2328 1.499 . S
C2331 C2332 1.373 . S
C2331 C2333 1.389 . S
C2332 H2305 0.950 . S
C2332 C2318 1.377 . S
C2332 C2331 1.373 . S
C2333 C2317 1.377 . S
C2333 C2331 1.389 . S
C2333 C2334 1.524 . S
C2334 C2333 1.524 . S
C2334 C2335 1.397 . S
C2334 C2339 1.363 . S
C2335 H2306 0.950 . S
C2335 C2334 1.397 . S
C2335 C2336 1.334 . S
C2336 H2307 0.950 . S
C2336 C2335 1.334 . S
C2336 C2337 1.287 . S
C2337 C2336 1.287 . S
C2337 C2338 1.524 . S
C2337 H2340 0.999 . S
C2338 H2308 0.950 . S
C2338 C2337 1.524 . S
C2338 C2339 1.415 . S
C2339 H2309 0.950 . S
C2339 C2334 1.363 . S
C2339 C2338 1.415 . S
H2340 C2337 0.999 . S
H2341 C2322 0.913 . S
H2342 C2360 0.951 . S
H2343 C2362 0.951 . S
H2344 C2364 0.950 . S
H2345 C2365 0.950 . S
H2346 C2367 0.950 . S
H2347 C2370 0.950 . S
H2348 C2371 0.950 . S
H2349 C2373 0.950 . S
H2350 C2374 0.950 . S
H2351 C2375 0.951 . S
H2352 C2377 0.951 . S
H2353 C2379 0.950 . S
H2354 C2380 0.950 . S
H2355 C2382 0.950 . S
H2356 C2385 0.950 . S
H2357 C2386 0.950 . S
H2358 C2388 0.950 . S
H2359 C2389 0.950 . S
C2360 H2342 0.951 . S
C2360 C2361 1.366 . S
C2360 C2362 1.388 . S
C2361 C2360 1.366 . S
C2361 C2365 1.385 . S
C2362 H2343 0.951 . S
C2362 C2360 1.388 . S
C2362 C2363 1.366 . S
C2363 C2362 1.366 . S
C2363 C2364 1.414 . S
C2363 C2366 1.499 . S
C2364 H2344 0.950 . S
C2364 C2363 1.414 . S
C2364 C2365 1.374 . S
C2365 H2345 0.950 . S
C2365 C2361 1.385 . S
C2365 C2364 1.374 . S
C2366 C2363 1.499 . S
C2366 C2367 1.373 . S
C2366 C2368 1.389 . S
C2367 H2346 0.950 . S
C2367 C2366 1.373 . S
C2367 C2383 1.377 . S
C2368 C2366 1.389 . S
C2368 C2369 1.524 . S
C2368 C2382 1.377 . S
C2369 C2368 1.524 . S
C2369 C2370 1.397 . S
C2369 C2374 1.363 . S
C2370 H2347 0.950 . S
C2370 C2369 1.397 . S
C2370 C2371 1.334 . S
C2371 H2348 0.950 . S
C2371 C2370 1.334 . S
C2371 C2372 1.287 . S
C2372 C2371 1.287 . S
C2372 C2373 1.524 . S
C2372 H2391 0.913 . S
C2373 H2349 0.950 . S
C2373 C2372 1.524 . S
C2373 C2374 1.415 . S
C2374 H2350 0.950 . S
C2374 C2369 1.363 . S
C2374 C2373 1.415 . S
C2375 H2351 0.951 . S
C2375 C2376 1.366 . S
C2375 C2377 1.388 . S
C2376 C2375 1.366 . S
C2376 C2380 1.385 . S
C2377 H2352 0.951 . S
C2377 C2375 1.388 . S
C2377 C2378 1.366 . S
C2378 C2377 1.366 . S
C2378 C2379 1.414 . S
C2378 C2381 1.499 . S
C2379 H2353 0.950 . S
C2379 C2378 1.414 . S
C2379 C2380 1.374 . S
C2380 H2354 0.950 . S
C2380 C2376 1.385 . S
C2380 C2379 1.374 . S
C2381 C2378 1.499 . S
C2381 C2382 1.373 . S
C2381 C2383 1.389 . S
C2382 H2355 0.950 . S
C2382 C2368 1.377 . S
C2382 C2381 1.373 . S
C2383 C2367 1.377 . S
C2383 C2381 1.389 . S
C2383 C2384 1.524 . S
C2384 C2383 1.524 . S
C2384 C2385 1.397 . S
C2384 C2389 1.363 . S
C2385 H2356 0.950 . S
C2385 C2384 1.397 . S
C2385 C2386 1.334 . S
C2386 H2357 0.950 . S
C2386 C2385 1.334 . S
C2386 C2387 1.287 . S
C2387 C2386 1.287 . S
C2387 C2388 1.524 . S
C2387 H2390 0.999 . S
C2388 H2358 0.950 . S
C2388 C2387 1.524 . S
C2388 C2389 1.415 . S
C2389 H2359 0.950 . S
C2389 C2384 1.363 . S
C2389 C2388 1.415 . S
H2390 C2387 0.999 . S
H2391 C2372 0.913 . S
H2392 C2410 0.951 . S
H2393 C2412 0.951 . S
H2394 C2414 0.950 . S
H2395 C2415 0.950 . S
H2396 C2417 0.950 . S
H2397 C2420 0.950 . S
H2398 C2421 0.950 . S
H2399 C2423 0.950 . S
H2400 C2424 0.950 . S
H2401 C2425 0.951 . S
H2402 C2427 0.951 . S
H2403 C2429 0.950 . S
H2404 C2430 0.950 . S
H2405 C2432 0.950 . S
H2406 C2435 0.950 . S
H2407 C2436 0.950 . S
H2408 C2438 0.950 . S
H2409 C2439 0.950 . S
C2410 H2392 0.951 . S
C2410 C2411 1.366 . S
C2410 C2412 1.388 . S
C2411 C2410 1.366 . S
C2411 C2415 1.385 . S
C2412 H2393 0.951 . S
C2412 C2410 1.388 . S
C2412 C2413 1.366 . S
C2413 C2412 1.366 . S
C2413 C2414 1.414 . S
C2413 C2416 1.499 . S
C2414 H2394 0.950 . S
C2414 C2413 1.414 . S
C2414 C2415 1.374 . S
C2415 H2395 0.950 . S
C2415 C2411 1.385 . S
C2415 C2414 1.374 . S
C2416 C2413 1.499 . S
C2416 C2417 1.373 . S
C2416 C2418 1.389 . S
C2417 H2396 0.950 . S
C2417 C2416 1.373 . S
C2417 C2433 1.377 . S
C2418 C2416 1.389 . S
C2418 C2419 1.524 . S
C2418 C2432 1.377 . S
C2419 C2418 1.524 . S
C2419 C2420 1.397 . S
C2419 C2424 1.363 . S
C2420 H2397 0.950 . S
C2420 C2419 1.397 . S
C2420 C2421 1.334 . S
C2421 H2398 0.950 . S
C2421 C2420 1.334 . S
C2421 C2422 1.287 . S
C2422 C2421 1.287 . S
C2422 C2423 1.524 . S
C2422 H2441 0.913 . S
C2423 H2399 0.950 . S
C2423 C2422 1.524 . S
C2423 C2424 1.415 . S
C2424 H2400 0.950 . S
C2424 C2419 1.363 . S
C2424 C2423 1.415 . S
C2425 H2401 0.951 . S
C2425 C2426 1.366 . S
C2425 C2427 1.388 . S
C2426 C2425 1.366 . S
C2426 C2430 1.385 . S
C2427 H2402 0.951 . S
C2427 C2425 1.388 . S
C2427 C2428 1.366 . S
C2428 C2427 1.366 . S
C2428 C2429 1.414 . S
C2428 C2431 1.499 . S
C2429 H2403 0.950 . S
C2429 C2428 1.414 . S
C2429 C2430 1.374 . S
C2430 H2404 0.950 . S
C2430 C2426 1.385 . S
C2430 C2429 1.374 . S
C2431 C2428 1.499 . S
C2431 C2432 1.373 . S
C2431 C2433 1.389 . S
C2432 H2405 0.950 . S
C2432 C2418 1.377 . S
C2432 C2431 1.373 . S
C2433 C2417 1.377 . S
C2433 C2431 1.389 . S
C2433 C2434 1.524 . S
C2434 C2433 1.524 . S
C2434 C2435 1.397 . S
C2434 C2439 1.363 . S
C2435 H2406 0.950 . S
C2435 C2434 1.397 . S
C2435 C2436 1.334 . S
C2436 H2407 0.950 . S
C2436 C2435 1.334 . S
C2436 C2437 1.287 . S
C2437 C2436 1.287 . S
C2437 C2438 1.524 . S
C2437 H2440 0.999 . S
C2438 H2408 0.950 . S
C2438 C2437 1.524 . S
C2438 C2439 1.415 . S
C2439 H2409 0.950 . S
C2439 C2434 1.363 . S
C2439 C2438 1.415 . S
H2440 C2437 0.999 . S
H2441 C2422 0.913 . S
H2442 C2460 0.951 . S
H2443 C2462 0.951 . S
H2444 C2464 0.950 . S
H2445 C2465 0.950 . S
H2446 C2467 0.950 . S
H2447 C2470 0.950 . S
H2448 C2471 0.950 . S
H2449 C2473 0.950 . S
H2450 C2474 0.950 . S
H2451 C2475 0.951 . S
H2452 C2477 0.951 . S
H2453 C2479 0.950 . S
H2454 C2480 0.950 . S
H2455 C2482 0.950 . S
H2456 C2485 0.950 . S
H2457 C2486 0.950 . S
H2458 C2488 0.950 . S
H2459 C2489 0.950 . S
C2460 H2442 0.951 . S
C2460 C2461 1.366 . S
C2460 C2462 1.388 . S
C2461 C2460 1.366 . S
C2461 C2465 1.385 . S
C2462 H2443 0.951 . S
C2462 C2460 1.388 . S
C2462 C2463 1.366 . S
C2463 C2462 1.366 . S
C2463 C2464 1.414 . S
C2463 C2466 1.499 . S
C2464 H2444 0.950 . S
C2464 C2463 1.414 . S
C2464 C2465 1.374 . S
C2465 H2445 0.950 . S
C2465 C2461 1.385 . S
C2465 C2464 1.374 . S
C2466 C2463 1.499 . S
C2466 C2467 1.373 . S
C2466 C2468 1.389 . S
C2467 H2446 0.950 . S
C2467 C2466 1.373 . S
C2467 C2483 1.377 . S
C2468 C2466 1.389 . S
C2468 C2469 1.524 . S
C2468 C2482 1.377 . S
C2469 C2468 1.524 . S
C2469 C2470 1.397 . S
C2469 C2474 1.363 . S
C2470 H2447 0.950 . S
C2470 C2469 1.397 . S
C2470 C2471 1.334 . S
C2471 H2448 0.950 . S
C2471 C2470 1.334 . S
C2471 C2472 1.287 . S
C2472 C2471 1.287 . S
C2472 C2473 1.524 . S
C2472 H2491 0.913 . S
C2473 H2449 0.950 . S
C2473 C2472 1.524 . S
C2473 C2474 1.415 . S
C2474 H2450 0.950 . S
C2474 C2469 1.363 . S
C2474 C2473 1.415 . S
C2475 H2451 0.951 . S
C2475 C2476 1.366 . S
C2475 C2477 1.388 . S
C2476 C2475 1.366 . S
C2476 C2480 1.385 . S
C2477 H2452 0.951 . S
C2477 C2475 1.388 . S
C2477 C2478 1.366 . S
C2478 C2477 1.366 . S
C2478 C2479 1.414 . S
C2478 C2481 1.499 . S
C2479 H2453 0.950 . S
C2479 C2478 1.414 . S
C2479 C2480 1.374 . S
C2480 H2454 0.950 . S
C2480 C2476 1.385 . S
C2480 C2479 1.374 . S
C2481 C2478 1.499 . S
C2481 C2482 1.373 . S
C2481 C2483 1.389 . S
C2482 H2455 0.950 . S
C2482 C2468 1.377 . S
C2482 C2481 1.373 . S
C2483 C2467 1.377 . S
C2483 C2481 1.389 . S
C2483 C2484 1.524 . S
C2484 C2483 1.524 . S
C2484 C2485 1.397 . S
C2484 C2489 1.363 . S
C2485 H2456 0.950 . S
C2485 C2484 1.397 . S
C2485 C2486 1.334 . S
C2486 H2457 0.950 . S
C2486 C2485 1.334 . S
C2486 C2487 1.287 . S
C2487 C2486 1.287 . S
C2487 C2488 1.524 . S
C2487 H2490 0.999 . S
C2488 H2458 0.950 . S
C2488 C2487 1.524 . S
C2488 C2489 1.415 . S
C2489 H2459 0.950 . S
C2489 C2484 1.363 . S
C2489 C2488 1.415 . S
H2490 C2487 0.999 . S
H2491 C2472 0.913 . S
H2492 C2510 0.951 . S
H2493 C2512 0.951 . S
H2494 C2514 0.950 . S
H2495 C2515 0.950 . S
H2496 C2517 0.950 . S
H2497 C2520 0.950 . S
H2498 C2521 0.950 . S
H2499 C2523 0.950 . S
H2500 C2524 0.950 . S
H2501 C2525 0.951 . S
H2502 C2527 0.951 . S
H2503 C2529 0.950 . S
H2504 C2530 0.950 . S
H2505 C2532 0.950 . S
H2506 C2535 0.950 . S
H2507 C2536 0.950 . S
H2508 C2538 0.950 . S
H2509 C2539 0.950 . S
C2510 H2492 0.951 . S
C2510 C2511 1.366 . S
C2510 C2512 1.388 . S
C2511 C2510 1.366 . S
C2511 C2515 1.385 . S
C2512 H2493 0.951 . S
C2512 C2510 1.388 . S
C2512 C2513 1.366 . S
C2513 C2512 1.366 . S
C2513 C2514 1.414 . S
C2513 C2516 1.499 . S
C2514 H2494 0.950 . S
C2514 C2513 1.414 . S
C2514 C2515 1.374 . S
C2515 H2495 0.950 . S
C2515 C2511 1.385 . S
C2515 C2514 1.374 . S
C2516 C2513 1.499 . S
C2516 C2517 1.373 . S
C2516 C2518 1.389 . S
C2517 H2496 0.950 . S
C2517 C2516 1.373 . S
C2517 C2533 1.377 . S
C2518 C2516 1.389 . S
C2518 C2519 1.524 . S
C2518 C2532 1.377 . S
C2519 C2518 1.524 . S
C2519 C2520 1.397 . S
C2519 C2524 1.363 . S
C2520 H2497 0.950 . S
C2520 C2519 1.397 . S
C2520 C2521 1.334 . S
C2521 H2498 0.950 . S
C2521 C2520 1.334 . S
C2521 C2522 1.287 . S
C2522 C2521 1.287 . S
C2522 C2523 1.524 . S
C2522 H2541 0.913 . S
C2523 H2499 0.950 . S
C2523 C2522 1.524 . S
C2523 C2524 1.415 . S
C2524 H2500 0.950 . S
C2524 C2519 1.363 . S
C2524 C2523 1.415 . S
C2525 H2501 0.951 . S
C2525 C2526 1.366 . S
C2525 C2527 1.388 . S
C2526 C2525 1.366 . S
C2526 C2530 1.385 . S
C2527 H2502 0.951 . S
C2527 C2525 1.388 . S
C2527 C2528 1.366 . S
C2528 C2527 1.366 . S
C2528 C2529 1.414 . S
C2528 C2531 1.499 . S
C2529 H2503 0.950 . S
C2529 C2528 1.414 . S
C2529 C2530 1.374 . S
C2530 H2504 0.950 . S
C2530 C2526 1.385 . S
C2530 C2529 1.374 . S
C2531 C2528 1.499 . S
C2531 C2532 1.373 . S
C2531 C2533 1.389 . S
C2532 H2505 0.950 . S
C2532 C2518 1.377 . S
C2532 C2531 1.373 . S
C2533 C2517 1.377 . S
C2533 C2531 1.389 . S
C2533 C2534 1.524 . S
C2534 C2533 1.524 . S
C2534 C2535 1.397 . S
C2534 C2539 1.363 . S
C2535 H2506 0.950 . S
C2535 C2534 1.397 . S
C2535 C2536 1.334 . S
C2536 H2507 0.950 . S
C2536 C2535 1.334 . S
C2536 C2537 1.287 . S
C2537 C2536 1.287 . S
C2537 C2538 1.524 . S
C2537 H2540 0.999 . S
C2538 H2508 0.950 . S
C2538 C2537 1.524 . S
C2538 C2539 1.415 . S
C2539 H2509 0.950 . S
C2539 C2534 1.363 . S
C2539 C2538 1.415 . S
H2540 C2537 0.999 . S
H2541 C2522 0.913 . S
H2542 C2560 0.951 . S
H2543 C2562 0.951 . S
H2544 C2564 0.950 . S
H2545 C2565 0.950 . S
H2546 C2567 0.950 . S
H2547 C2570 0.950 . S
H2548 C2571 0.950 . S
H2549 C2573 0.950 . S
H2550 C2574 0.950 . S
H2551 C2575 0.951 . S
H2552 C2577 0.951 . S
H2553 C2579 0.950 . S
H2554 C2580 0.950 . S
H2555 C2582 0.950 . S
H2556 C2585 0.950 . S
H2557 C2586 0.950 . S
H2558 C2588 0.950 . S
H2559 C2589 0.950 . S
C2560 H2542 0.951 . S
C2560 C2561 1.366 . S
C2560 C2562 1.388 . S
C2561 C2560 1.366 . S
C2561 C2565 1.385 . S
C2562 H2543 0.951 . S
C2562 C2560 1.388 . S
C2562 C2563 1.366 . S
C2563 C2562 1.366 . S
C2563 C2564 1.414 . S
C2563 C2566 1.499 . S
C2564 H2544 0.950 . S
C2564 C2563 1.414 . S
C2564 C2565 1.374 . S
C2565 H2545 0.950 . S
C2565 C2561 1.385 . S
C2565 C2564 1.374 . S
C2566 C2563 1.499 . S
C2566 C2567 1.373 . S
C2566 C2568 1.389 . S
C2567 H2546 0.950 . S
C2567 C2566 1.373 . S
C2567 C2583 1.377 . S
C2568 C2566 1.389 . S
C2568 C2569 1.524 . S
C2568 C2582 1.377 . S
C2569 C2568 1.524 . S
C2569 C2570 1.397 . S
C2569 C2574 1.363 . S
C2570 H2547 0.950 . S
C2570 C2569 1.397 . S
C2570 C2571 1.334 . S
C2571 H2548 0.950 . S
C2571 C2570 1.334 . S
C2571 C2572 1.287 . S
C2572 C2571 1.287 . S
C2572 C2573 1.524 . S
C2572 H2591 0.913 . S
C2573 H2549 0.950 . S
C2573 C2572 1.524 . S
C2573 C2574 1.415 . S
C2574 H2550 0.950 . S
C2574 C2569 1.363 . S
C2574 C2573 1.415 . S
C2575 H2551 0.951 . S
C2575 C2576 1.366 . S
C2575 C2577 1.388 . S
C2576 C2575 1.366 . S
C2576 C2580 1.385 . S
C2577 H2552 0.951 . S
C2577 C2575 1.388 . S
C2577 C2578 1.366 . S
C2578 C2577 1.366 . S
C2578 C2579 1.414 . S
C2578 C2581 1.499 . S
C2579 H2553 0.950 . S
C2579 C2578 1.414 . S
C2579 C2580 1.374 . S
C2580 H2554 0.950 . S
C2580 C2576 1.385 . S
C2580 C2579 1.374 . S
C2581 C2578 1.499 . S
C2581 C2582 1.373 . S
C2581 C2583 1.389 . S
C2582 H2555 0.950 . S
C2582 C2568 1.377 . S
C2582 C2581 1.373 . S
C2583 C2567 1.377 . S
C2583 C2581 1.389 . S
C2583 C2584 1.524 . S
C2584 C2583 1.524 . S
C2584 C2585 1.397 . S
C2584 C2589 1.363 . S
C2585 H2556 0.950 . S
C2585 C2584 1.397 . S
C2585 C2586 1.334 . S
C2586 H2557 0.950 . S
C2586 C2585 1.334 . S
C2586 C2587 1.287 . S
C2587 C2586 1.287 . S
C2587 C2588 1.524 . S
C2587 H2590 0.999 . S
C2588 H2558 0.950 . S
C2588 C2587 1.524 . S
C2588 C2589 1.415 . S
C2589 H2559 0.950 . S
C2589 C2584 1.363 . S
C2589 C2588 1.415 . S
H2590 C2587 0.999 . S
H2591 C2572 0.913 . S
H2592 C2610 0.951 . S
H2593 C2612 0.951 . S
H2594 C2614 0.950 . S
H2595 C2615 0.950 . S
H2596 C2617 0.950 . S
H2597 C2620 0.950 . S
H2598 C2621 0.950 . S
H2599 C2623 0.950 . S
H2600 C2624 0.950 . S
H2601 C2625 0.951 . S
H2602 C2627 0.951 . S
H2603 C2629 0.950 . S
H2604 C2630 0.950 . S
H2605 C2632 0.950 . S
H2606 C2635 0.950 . S
H2607 C2636 0.950 . S
H2608 C2638 0.950 . S
H2609 C2639 0.950 . S
C2610 H2592 0.951 . S
C2610 C2611 1.366 . S
C2610 C2612 1.388 . S
C2611 C2610 1.366 . S
C2611 C2615 1.385 . S
C2612 H2593 0.951 . S
C2612 C2610 1.388 . S
C2612 C2613 1.366 . S
C2613 C2612 1.366 . S
C2613 C2614 1.414 . S
C2613 C2616 1.499 . S
C2614 H2594 0.950 . S
C2614 C2613 1.414 . S
C2614 C2615 1.374 . S
C2615 H2595 0.950 . S
C2615 C2611 1.385 . S
C2615 C2614 1.374 . S
C2616 C2613 1.499 . S
C2616 C2617 1.373 . S
C2616 C2618 1.389 . S
C2617 H2596 0.950 . S
C2617 C2616 1.373 . S
C2617 C2633 1.377 . S
C2618 C2616 1.389 . S
C2618 C2619 1.524 . S
C2618 C2632 1.377 . S
C2619 C2618 1.524 . S
C2619 C2620 1.397 . S
C2619 C2624 1.363 . S
C2620 H2597 0.950 . S
C2620 C2619 1.397 . S
C2620 C2621 1.334 . S
C2621 H2598 0.950 . S
C2621 C2620 1.334 . S
C2621 C2622 1.287 . S
C2622 C2621 1.287 . S
C2622 C2623 1.524 . S
C2622 H2641 0.913 1_455 S
C2623 H2599 0.950 . S
C2623 C2622 1.524 . S
C2623 C2624 1.415 . S
C2624 H2600 0.950 . S
C2624 C2619 1.363 . S
C2624 C2623 1.415 . S
C2625 H2601 0.951 . S
C2625 C2626 1.366 . S
C2625 C2627 1.388 . S
C2626 C2625 1.366 . S
C2626 C2630 1.385 . S
C2627 H2602 0.951 . S
C2627 C2625 1.388 . S
C2627 C2628 1.366 . S
C2628 C2627 1.366 . S
C2628 C2629 1.414 . S
C2628 C2631 1.499 . S
C2629 H2603 0.950 . S
C2629 C2628 1.414 . S
C2629 C2630 1.374 . S
C2630 H2604 0.950 . S
C2630 C2626 1.385 . S
C2630 C2629 1.374 . S
C2631 C2628 1.499 . S
C2631 C2632 1.373 . S
C2631 C2633 1.389 . S
C2632 H2605 0.950 . S
C2632 C2618 1.377 . S
C2632 C2631 1.373 . S
C2633 C2617 1.377 . S
C2633 C2631 1.389 . S
C2633 C2634 1.524 . S
C2634 C2633 1.524 . S
C2634 C2635 1.397 . S
C2634 C2639 1.363 . S
C2635 H2606 0.950 . S
C2635 C2634 1.397 . S
C2635 C2636 1.334 . S
C2636 H2607 0.950 . S
C2636 C2635 1.334 . S
C2636 C2637 1.287 . S
C2637 C2636 1.287 . S
C2637 C2638 1.524 . S
C2637 H2640 0.999 . S
C2638 H2608 0.950 . S
C2638 C2637 1.524 . S
C2638 C2639 1.415 . S
C2639 H2609 0.950 . S
C2639 C2634 1.363 . S
C2639 C2638 1.415 . S
H2640 C2637 0.999 . S
H2641 C2622 0.913 1_655 S
H2642 C2660 0.951 . S
H2643 C2662 0.951 . S
H2644 C2664 0.950 . S
H2645 C2665 0.950 . S
H2646 C2667 0.950 1_565 S
H2647 C2670 0.950 . S
H2648 C2671 0.950 . S
H2649 C2673 0.950 . S
H2650 C2674 0.950 . S
H2651 C2675 0.951 . S
H2652 C2677 0.951 . S
H2653 C2679 0.950 . S
H2654 C2680 0.950 . S
H2655 C2682 0.950 . S
H2656 C2685 0.950 . S
H2657 C2686 0.950 . S
H2658 C2688 0.950 . S
H2659 C2689 0.950 . S
C2660 H2642 0.951 . S
C2660 C2661 1.366 . S
C2660 C2662 1.388 . S
C2661 C2660 1.366 . S
C2661 C2665 1.385 . S
C2662 H2643 0.951 . S
C2662 C2660 1.388 . S
C2662 C2663 1.366 . S
C2663 C2662 1.366 . S
C2663 C2664 1.414 . S
C2663 C2666 1.499 . S
C2664 H2644 0.950 . S
C2664 C2663 1.414 . S
C2664 C2665 1.374 . S
C2665 H2645 0.950 . S
C2665 C2661 1.385 . S
C2665 C2664 1.374 . S
C2666 C2663 1.499 . S
C2666 C2667 1.373 1_565 S
C2666 C2668 1.389 1_565 S
C2667 H2646 0.950 1_545 S
C2667 C2666 1.373 1_545 S
C2667 C2683 1.377 . S
C2668 C2666 1.389 1_545 S
C2668 C2669 1.524 1_545 S
C2668 C2682 1.377 . S
C2669 C2668 1.524 1_565 S
C2669 C2670 1.397 . S
C2669 C2674 1.363 1_565 S
C2670 H2647 0.950 . S
C2670 C2669 1.397 . S
C2670 C2671 1.334 . S
C2671 H2648 0.950 . S
C2671 C2670 1.334 . S
C2671 C2672 1.287 . S
C2672 C2671 1.287 . S
C2672 C2673 1.524 . S
C2672 H2691 0.913 . S
C2673 H2649 0.950 . S
C2673 C2672 1.524 . S
C2673 C2674 1.415 1_565 S
C2674 H2650 0.950 . S
C2674 C2669 1.363 1_545 S
C2674 C2673 1.415 1_545 S
C2675 H2651 0.951 . S
C2675 C2676 1.366 . S
C2675 C2677 1.388 . S
C2676 C2675 1.366 . S
C2676 C2680 1.385 . S
C2677 H2652 0.951 . S
C2677 C2675 1.388 . S
C2677 C2678 1.366 . S
C2678 C2677 1.366 . S
C2678 C2679 1.414 . S
C2678 C2681 1.499 . S
C2679 H2653 0.950 . S
C2679 C2678 1.414 . S
C2679 C2680 1.374 . S
C2680 H2654 0.950 . S
C2680 C2676 1.385 . S
C2680 C2679 1.374 . S
C2681 C2678 1.499 . S
C2681 C2682 1.373 . S
C2681 C2683 1.389 . S
C2682 H2655 0.950 . S
C2682 C2668 1.377 . S
C2682 C2681 1.373 . S
C2683 C2667 1.377 . S
C2683 C2681 1.389 . S
C2683 C2684 1.524 . S
C2684 C2683 1.524 . S
C2684 C2685 1.397 . S
C2684 C2689 1.363 . S
C2685 H2656 0.950 . S
C2685 C2684 1.397 . S
C2685 C2686 1.334 . S
C2686 H2657 0.950 . S
C2686 C2685 1.334 . S
C2686 C2687 1.287 . S
C2687 C2686 1.287 . S
C2687 C2688 1.524 . S
C2687 H2690 0.999 . S
C2688 H2658 0.950 . S
C2688 C2687 1.524 . S
C2688 C2689 1.415 . S
C2689 H2659 0.950 . S
C2689 C2684 1.363 . S
C2689 C2688 1.415 . S
H2690 C2687 0.999 . S
H2691 C2672 0.913 . S
H2692 C2710 0.951 . S
H2693 C2712 0.951 . S
H2694 C2714 0.950 . S
H2695 C2715 0.950 . S
H2696 C2717 0.950 . S
H2697 C2720 0.950 . S
H2698 C2721 0.950 . S
H2699 C2723 0.950 . S
H2700 C2724 0.950 . S
H2701 C2725 0.951 . S
H2702 C2727 0.951 . S
H2703 C2729 0.950 . S
H2704 C2730 0.950 . S
H2705 C2732 0.932 1_455 S
H2706 C2735 0.950 . S
H2707 C2736 0.950 . S
H2708 C2738 0.950 . S
H2709 C2739 0.950 1_655 S
C2710 H2692 0.951 . S
C2710 C2711 1.366 . S
C2710 C2712 1.388 . S
C2711 C2710 1.366 . S
C2711 C2715 1.385 . S
C2712 H2693 0.951 . S
C2712 C2710 1.388 . S
C2712 C2713 1.366 . S
C2713 C2712 1.366 . S
C2713 C2714 1.414 . S
C2713 C2716 1.499 . S
C2714 H2694 0.950 . S
C2714 C2713 1.414 . S
C2714 C2715 1.374 . S
C2715 H2695 0.950 . S
C2715 C2711 1.385 . S
C2715 C2714 1.374 . S
C2716 C2713 1.499 . S
C2716 C2717 1.373 . S
C2716 C2718 1.389 . S
C2717 H2696 0.950 . S
C2717 C2716 1.373 . S
C2717 C2733 1.377 . S
C2718 C2716 1.389 . S
C2718 C2719 1.524 . S
C2718 C2732 1.377 . S
C2719 C2718 1.524 . S
C2719 C2720 1.397 . S
C2719 C2724 1.363 . S
C2720 H2697 0.950 . S
C2720 C2719 1.397 . S
C2720 C2721 1.334 . S
C2721 H2698 0.950 . S
C2721 C2720 1.334 . S
C2721 C2722 1.287 . S
C2722 C2721 1.287 . S
C2722 C2723 1.524 . S
C2722 H2741 0.913 . S
C2723 H2699 0.950 . S
C2723 C2722 1.524 . S
C2723 C2724 1.415 . S
C2724 H2700 0.950 . S
C2724 C2719 1.363 . S
C2724 C2723 1.415 . S
C2725 H2701 0.951 . S
C2725 C2726 1.366 . S
C2725 C2727 1.388 . S
C2726 C2725 1.366 . S
C2726 C2730 1.385 . S
C2727 H2702 0.951 . S
C2727 C2725 1.388 . S
C2727 C2728 1.366 . S
C2728 C2727 1.366 . S
C2728 C2729 1.414 . S
C2728 C2731 1.499 . S
C2729 H2703 0.950 . S
C2729 C2728 1.414 . S
C2729 C2730 1.374 . S
C2730 H2704 0.950 . S
C2730 C2726 1.385 . S
C2730 C2729 1.374 . S
C2731 C2728 1.499 . S
C2731 C2732 1.373 1_455 S
C2731 C2733 1.389 1_455 S
C2732 H2705 0.932 1_655 S
C2732 C2718 1.377 . S
C2732 C2731 1.373 1_655 S
C2733 C2717 1.377 . S
C2733 C2731 1.389 1_655 S
C2733 C2734 1.524 1_655 S
C2734 C2733 1.524 1_455 S
C2734 C2735 1.397 . S
C2734 C2739 1.363 . S
C2735 H2706 0.950 . S
C2735 C2734 1.397 . S
C2735 C2736 1.334 . S
C2736 H2707 0.950 . S
C2736 C2735 1.334 . S
C2736 C2737 1.287 . S
C2737 C2736 1.287 . S
C2737 C2738 1.524 . S
C2737 H2740 0.999 . S
C2738 H2708 0.950 . S
C2738 C2737 1.524 . S
C2738 C2739 1.415 . S
C2739 H2709 0.950 1_455 S
C2739 C2734 1.363 . S
C2739 C2738 1.415 . S
H2740 C2737 0.999 . S
H2741 C2722 0.913 . S
H2742 C2760 0.951 . S
H2743 C2762 0.951 . S
H2744 C2764 0.950 . S
H2745 C2765 0.950 . S
H2746 C2767 0.950 . S
H2747 C2770 0.950 . S
H2748 C2771 0.950 . S
H2749 C2773 0.950 . S
H2750 C2774 0.950 . S
H2751 C2775 0.951 . S
H2752 C2777 0.951 . S
H2753 C2779 0.950 . S
H2754 C2780 0.950 . S
H2755 C2782 0.950 . S
H2756 C2785 0.950 . S
H2757 C2786 0.950 . S
H2758 C2788 0.950 . S
H2759 C2789 0.950 . S
C2760 H2742 0.951 . S
C2760 C2761 1.366 . S
C2760 C2762 1.388 . S
C2761 C2760 1.366 . S
C2761 C2765 1.385 . S
C2762 H2743 0.951 . S
C2762 C2760 1.388 . S
C2762 C2763 1.366 . S
C2763 C2762 1.366 . S
C2763 C2764 1.414 . S
C2763 C2766 1.499 . S
C2764 H2744 0.950 . S
C2764 C2763 1.414 . S
C2764 C2765 1.374 . S
C2765 H2745 0.950 . S
C2765 C2761 1.385 . S
C2765 C2764 1.374 . S
C2766 C2763 1.499 . S
C2766 C2767 1.373 . S
C2766 C2768 1.389 . S
C2767 H2746 0.950 . S
C2767 C2766 1.373 . S
C2767 C2783 1.377 . S
C2768 C2766 1.389 . S
C2768 C2769 1.524 . S
C2768 C2782 1.377 . S
C2769 C2768 1.524 . S
C2769 C2770 1.397 . S
C2769 C2774 1.363 . S
C2770 H2747 0.950 . S
C2770 C2769 1.397 . S
C2770 C2771 1.334 . S
C2771 H2748 0.950 . S
C2771 C2770 1.334 . S
C2771 C2772 1.287 . S
C2772 C2771 1.287 . S
C2772 C2773 1.524 . S
C2772 H2791 0.913 . S
C2773 H2749 0.950 . S
C2773 C2772 1.524 . S
C2773 C2774 1.415 . S
C2774 H2750 0.950 . S
C2774 C2769 1.363 . S
C2774 C2773 1.415 . S
C2775 H2751 0.951 . S
C2775 C2776 1.366 . S
C2775 C2777 1.388 . S
C2776 C2775 1.366 . S
C2776 C2780 1.385 . S
C2777 H2752 0.951 . S
C2777 C2775 1.388 . S
C2777 C2778 1.366 . S
C2778 C2777 1.366 . S
C2778 C2779 1.414 . S
C2778 C2781 1.499 . S
C2779 H2753 0.950 . S
C2779 C2778 1.414 . S
C2779 C2780 1.374 . S
C2780 H2754 0.950 . S
C2780 C2776 1.385 . S
C2780 C2779 1.374 . S
C2781 C2778 1.499 . S
C2781 C2782 1.373 . S
C2781 C2783 1.389 . S
C2782 H2755 0.950 . S
C2782 C2768 1.377 . S
C2782 C2781 1.373 . S
C2783 C2767 1.377 . S
C2783 C2781 1.389 . S
C2783 C2784 1.524 . S
C2784 C2783 1.524 . S
C2784 C2785 1.397 . S
C2784 C2789 1.363 . S
C2785 H2756 0.950 . S
C2785 C2784 1.397 . S
C2785 C2786 1.334 . S
C2786 H2757 0.950 . S
C2786 C2785 1.334 . S
C2786 C2787 1.287 . S
C2787 C2786 1.287 . S
C2787 C2788 1.524 . S
C2787 H2790 0.999 1_545 S
C2788 H2758 0.950 . S
C2788 C2787 1.524 . S
C2788 C2789 1.415 . S
C2789 H2759 0.950 . S
C2789 C2784 1.363 . S
C2789 C2788 1.415 . S
H2790 C2787 0.999 1_565 S
H2791 C2772 0.913 . S
H2792 C2810 0.951 . S
H2793 C2812 0.951 . S
H2794 C2814 0.950 . S
H2795 C2815 0.950 . S
H2796 C2817 0.930 1_545 S
H2797 C2820 0.950 . S
H2798 C2821 0.950 . S
H2799 C2823 0.950 . S
H2800 C2824 0.950 1_565 S
H2801 C2825 0.951 . S
H2802 C2827 0.951 . S
H2803 C2829 0.950 . S
H2804 C2830 0.950 . S
H2805 C2832 0.950 . S
H2806 C2835 0.950 . S
H2807 C2836 0.950 . S
H2808 C2838 0.950 . S
H2809 C2839 0.950 . S
C2810 H2792 0.951 . S
C2810 C2811 1.366 . S
C2810 C2812 1.388 . S
C2811 C2810 1.366 . S
C2811 C2815 1.385 . S
C2812 H2793 0.951 . S
C2812 C2810 1.388 . S
C2812 C2813 1.366 . S
C2813 C2812 1.366 . S
C2813 C2814 1.414 . S
C2813 C2816 1.499 . S
C2814 H2794 0.950 . S
C2814 C2813 1.414 . S
C2814 C2815 1.374 . S
C2815 H2795 0.950 . S
C2815 C2811 1.385 . S
C2815 C2814 1.374 . S
C2816 C2813 1.499 . S
C2816 C2817 1.373 1_545 S
C2816 C2818 1.389 1_545 S
C2817 H2796 0.930 1_565 S
C2817 C2816 1.373 1_565 S
C2817 C2833 1.377 . S
C2818 C2816 1.389 1_565 S
C2818 C2819 1.524 1_565 S
C2818 C2832 1.377 . S
C2819 C2818 1.524 1_545 S
C2819 C2820 1.397 . S
C2819 C2824 1.363 . S
C2820 H2797 0.950 . S
C2820 C2819 1.397 . S
C2820 C2821 1.334 . S
C2821 H2798 0.950 . S
C2821 C2820 1.334 . S
C2821 C2822 1.287 . S
C2822 C2821 1.287 . S
C2822 C2823 1.524 . S
C2822 H2841 0.913 1_655 S
C2823 H2799 0.950 . S
C2823 C2822 1.524 . S
C2823 C2824 1.415 . S
C2824 H2800 0.950 1_545 S
C2824 C2819 1.363 . S
C2824 C2823 1.415 . S
C2825 H2801 0.951 . S
C2825 C2826 1.366 . S
C2825 C2827 1.388 . S
C2826 C2825 1.366 . S
C2826 C2830 1.385 . S
C2827 H2802 0.951 . S
C2827 C2825 1.388 . S
C2827 C2828 1.366 . S
C2828 C2827 1.366 . S
C2828 C2829 1.414 . S
C2828 C2831 1.499 . S
C2829 H2803 0.950 . S
C2829 C2828 1.414 . S
C2829 C2830 1.374 . S
C2830 H2804 0.950 . S
C2830 C2826 1.385 . S
C2830 C2829 1.374 . S
C2831 C2828 1.499 . S
C2831 C2832 1.373 . S
C2831 C2833 1.389 . S
C2832 H2805 0.950 . S
C2832 C2818 1.377 . S
C2832 C2831 1.373 . S
C2833 C2817 1.377 . S
C2833 C2831 1.389 . S
C2833 C2834 1.524 . S
C2834 C2833 1.524 . S
C2834 C2835 1.397 . S
C2834 C2839 1.363 . S
C2835 H2806 0.950 . S
C2835 C2834 1.397 . S
C2835 C2836 1.334 . S
C2836 H2807 0.950 . S
C2836 C2835 1.334 . S
C2836 C2837 1.287 . S
C2837 C2836 1.287 . S
C2837 C2838 1.524 . S
C2837 H2840 0.999 . S
C2838 H2808 0.950 . S
C2838 C2837 1.524 . S
C2838 C2839 1.415 . S
C2839 H2809 0.950 . S
C2839 C2834 1.363 . S
C2839 C2838 1.415 . S
H2840 C2837 0.999 . S
H2841 C2822 0.913 1_455 S
H2842 C2860 0.951 . S
H2843 C2862 0.951 . S
H2844 C2864 0.950 . S
H2845 C2865 0.997 . S
H2846 C2867 0.950 . S
H2847 C2870 0.950 . S
H2848 C2871 0.950 . S
H2849 C2873 0.950 . S
H2850 C2874 0.950 . S
H2851 C2875 0.951 . S
H2852 C2877 0.951 . S
H2853 C2879 0.950 . S
H2854 C2880 0.950 . S
H2855 C2882 0.950 1_655 S
H2856 C2885 0.950 . S
H2857 C2886 0.950 . S
H2858 C2888 0.950 . S
H2859 C2889 0.950 1_455 S
C2860 H2842 0.951 . S
C2860 C2861 1.366 . S
C2860 C2862 1.388 . S
C2861 C2860 1.366 . S
C2861 C2865 1.385 . S
C2862 H2843 0.951 . S
C2862 C2860 1.388 . S
C2862 C2863 1.366 . S
C2863 C2862 1.366 . S
C2863 C2864 1.414 . S
C2863 C2866 1.499 . S
C2864 H2844 0.950 . S
C2864 C2863 1.414 . S
C2864 C2865 1.374 . S
C2865 H2845 0.997 . S
C2865 C2861 1.385 . S
C2865 C2864 1.374 . S
C2866 C2863 1.499 . S
C2866 C2867 1.373 . S
C2866 C2868 1.389 . S
C2867 H2846 0.950 . S
C2867 C2866 1.373 . S
C2867 C2883 1.377 . S
C2868 C2866 1.389 . S
C2868 C2869 1.524 . S
C2868 C2882 1.377 . S
C2869 C2868 1.524 . S
C2869 C2870 1.397 . S
C2869 C2874 1.363 . S
C2870 H2847 0.950 . S
C2870 C2869 1.397 . S
C2870 C2871 1.334 . S
C2871 H2848 0.950 . S
C2871 C2870 1.334 . S
C2871 C2872 1.287 . S
C2872 C2871 1.287 . S
C2872 C2873 1.524 . S
C2872 H2891 0.913 . S
C2873 H2849 0.950 . S
C2873 C2872 1.524 . S
C2873 C2874 1.415 . S
C2874 H2850 0.950 . S
C2874 C2869 1.363 . S
C2874 C2873 1.415 . S
C2875 H2851 0.951 . S
C2875 C2876 1.366 . S
C2875 C2877 1.388 . S
C2876 C2875 1.366 . S
C2876 C2880 1.385 . S
C2877 H2852 0.951 . S
C2877 C2875 1.388 . S
C2877 C2878 1.366 . S
C2878 C2877 1.366 . S
C2878 C2879 1.414 . S
C2878 C2881 1.499 . S
C2879 H2853 0.950 . S
C2879 C2878 1.414 . S
C2879 C2880 1.374 . S
C2880 H2854 0.950 . S
C2880 C2876 1.385 . S
C2880 C2879 1.374 . S
C2881 C2878 1.499 . S
C2881 C2882 1.373 1_655 S
C2881 C2883 1.389 1_655 S
C2882 H2855 0.950 1_455 S
C2882 C2868 1.377 . S
C2882 C2881 1.373 1_455 S
C2883 C2867 1.377 . S
C2883 C2881 1.389 1_455 S
C2883 C2884 1.524 1_455 S
C2884 C2883 1.524 1_655 S
C2884 C2885 1.397 . S
C2884 C2889 1.363 . S
C2885 H2856 0.950 . S
C2885 C2884 1.397 . S
C2885 C2886 1.334 . S
C2886 H2857 0.950 . S
C2886 C2885 1.334 . S
C2886 C2887 1.287 . S
C2887 C2886 1.287 . S
C2887 C2888 1.524 . S
C2887 H2890 0.999 . S
C2888 H2858 0.950 . S
C2888 C2887 1.524 . S
C2888 C2889 1.415 . S
C2889 H2859 0.950 1_655 S
C2889 C2884 1.363 . S
C2889 C2888 1.415 . S
H2890 C2887 0.999 . S
H2891 C2872 0.913 . S
H2892 C2910 0.951 . S
H2893 C2912 0.951 . S
H2894 C2914 0.950 . S
H2895 C2915 0.950 . S
H2896 C2917 0.950 . S
H2897 C2920 0.950 . S
H2898 C2921 0.950 . S
H2899 C2923 0.950 . S
H2900 C2924 0.950 . S
H2901 C2925 0.951 . S
H2902 C2927 0.951 . S
H2903 C2929 0.950 . S
H2904 C2930 0.950 . S
H2905 C2932 0.950 . S
H2906 C2935 0.950 . S
H2907 C2936 0.950 . S
H2908 C2938 0.950 . S
H2909 C2939 0.950 . S
C2910 H2892 0.951 . S
C2910 C2911 1.366 . S
C2910 C2912 1.388 . S
C2911 C2910 1.366 . S
C2911 C2915 1.385 . S
C2912 H2893 0.951 . S
C2912 C2910 1.388 . S
C2912 C2913 1.366 . S
C2913 C2912 1.366 . S
C2913 C2914 1.414 . S
C2913 C2916 1.499 . S
C2914 H2894 0.950 . S
C2914 C2913 1.414 . S
C2914 C2915 1.374 . S
C2915 H2895 0.950 . S
C2915 C2911 1.385 . S
C2915 C2914 1.374 . S
C2916 C2913 1.499 . S
C2916 C2917 1.373 . S
C2916 C2918 1.389 . S
C2917 H2896 0.950 . S
C2917 C2916 1.373 . S
C2917 C2933 1.377 . S
C2918 C2916 1.389 . S
C2918 C2919 1.524 . S
C2918 C2932 1.377 . S
C2919 C2918 1.524 . S
C2919 C2920 1.397 . S
C2919 C2924 1.363 . S
C2920 H2897 0.950 . S
C2920 C2919 1.397 . S
C2920 C2921 1.334 . S
C2921 H2898 0.950 . S
C2921 C2920 1.334 . S
C2921 C2922 1.287 . S
C2922 C2921 1.287 . S
C2922 C2923 1.524 . S
C2922 H2941 0.913 1_655 S
C2923 H2899 0.950 . S
C2923 C2922 1.524 . S
C2923 C2924 1.415 . S
C2924 H2900 0.950 . S
C2924 C2919 1.363 . S
C2924 C2923 1.415 . S
C2925 H2901 0.951 . S
C2925 C2926 1.366 . S
C2925 C2927 1.388 . S
C2926 C2925 1.366 . S
C2926 C2930 1.385 . S
C2927 H2902 0.951 . S
C2927 C2925 1.388 . S
C2927 C2928 1.366 . S
C2928 C2927 1.366 . S
C2928 C2929 1.414 . S
C2928 C2931 1.499 . S
C2929 H2903 0.950 . S
C2929 C2928 1.414 . S
C2929 C2930 1.374 . S
C2930 H2904 0.950 . S
C2930 C2926 1.385 . S
C2930 C2929 1.374 . S
C2931 C2928 1.499 . S
C2931 C2932 1.373 . S
C2931 C2933 1.389 . S
C2932 H2905 0.950 . S
C2932 C2918 1.377 . S
C2932 C2931 1.373 . S
C2933 C2917 1.377 . S
C2933 C2931 1.389 . S
C2933 C2934 1.524 . S
C2934 C2933 1.524 . S
C2934 C2935 1.397 . S
C2934 C2939 1.363 . S
C2935 H2906 0.950 . S
C2935 C2934 1.397 . S
C2935 C2936 1.334 . S
C2936 H2907 0.950 . S
C2936 C2935 1.334 . S
C2936 C2937 1.287 . S
C2937 C2936 1.287 . S
C2937 C2938 1.524 . S
C2937 H2940 0.999 . S
C2938 H2908 0.950 . S
C2938 C2937 1.524 . S
C2938 C2939 1.415 . S
C2939 H2909 0.950 . S
C2939 C2934 1.363 . S
C2939 C2938 1.415 . S
H2940 C2937 0.999 . S
H2941 C2922 0.913 1_455 S
H2942 C2960 0.951 . S
H2943 C2962 0.951 . S
H2944 C2964 0.950 . S
H2945 C2965 0.950 . S
H2946 C2967 0.950 1_545 S
H2947 C2970 0.950 . S
H2948 C2971 0.950 . S
H2949 C2973 0.926 1_565 S
H2950 C2974 0.950 . S
H2951 C2975 0.951 . S
H2952 C2977 0.951 . S
H2953 C2979 0.950 . S
H2954 C2980 0.950 . S
H2955 C2982 0.950 . S
H2956 C2985 0.950 . S
H2957 C2986 0.950 . S
H2958 C2988 0.950 1_655 S
H2959 C2989 0.950 . S
C2960 H2942 0.951 . S
C2960 C2961 1.366 . S
C2960 C2962 1.388 . S
C2961 C2960 1.366 . S
C2961 C2965 1.385 . S
C2962 H2943 0.951 . S
C2962 C2960 1.388 . S
C2962 C2963 1.366 . S
C2963 C2962 1.366 . S
C2963 C2964 1.414 . S
C2963 C2966 1.499 . S
C2964 H2944 0.950 . S
C2964 C2963 1.414 . S
C2964 C2965 1.374 . S
C2965 H2945 0.950 . S
C2965 C2961 1.385 . S
C2965 C2964 1.374 . S
C2966 C2963 1.499 . S
C2966 C2967 1.373 1_545 S
C2966 C2968 1.389 1_545 S
C2967 H2946 0.950 1_565 S
C2967 C2966 1.373 1_565 S
C2967 C2983 1.377 . S
C2968 C2966 1.389 1_565 S
C2968 C2969 1.530 1_565 S
C2968 C2982 1.377 . S
C2969 C2968 1.530 1_545 S
C2969 C2970 1.404 . S
C2969 C2974 1.349 1_545 S
C2970 H2947 0.950 . S
C2970 C2969 1.404 . S
C2970 C2971 1.334 . S
C2971 H2948 0.950 . S
C2971 C2970 1.334 . S
C2971 C2972 1.287 . S
C2972 C2971 1.287 . S
C2972 C2973 1.542 . S
C2972 H2991 0.913 . S
C2973 H2949 0.926 1_545 S
C2973 C2972 1.542 . S
C2973 C2974 1.428 1_545 S
C2974 H2950 0.950 . S
C2974 C2969 1.349 1_565 S
C2974 C2973 1.428 1_565 S
C2975 H2951 0.951 . S
C2975 C2976 1.366 . S
C2975 C2977 1.388 . S
C2976 C2975 1.366 . S
C2976 C2980 1.385 . S
C2977 H2952 0.951 . S
C2977 C2975 1.388 . S
C2977 C2978 1.366 . S
C2978 C2977 1.366 . S
C2978 C2979 1.414 . S
C2978 C2981 1.499 . S
C2979 H2953 0.950 . S
C2979 C2978 1.414 . S
C2979 C2980 1.374 . S
C2980 H2954 0.950 . S
C2980 C2976 1.385 . S
C2980 C2979 1.374 . S
C2981 C2978 1.499 . S
C2981 C2982 1.373 . S
C2981 C2983 1.389 . S
C2982 H2955 0.950 . S
C2982 C2968 1.377 . S
C2982 C2981 1.373 . S
C2983 C2967 1.377 . S
C2983 C2981 1.389 . S
C2983 C2984 1.524 . S
C2984 C2983 1.524 . S
C2984 C2985 1.397 . S
C2984 C2989 1.363 . S
C2985 H2956 0.950 . S
C2985 C2984 1.397 . S
C2985 C2986 1.334 1_455 S
C2986 H2957 0.950 . S
C2986 C2985 1.334 1_655 S
C2986 C2987 1.287 . S
C2987 C2986 1.287 . S
C2987 C2988 1.524 1_655 S
C2987 H2990 0.999 . S
C2988 H2958 0.950 1_455 S
C2988 C2987 1.524 1_455 S
C2988 C2989 1.415 . S
C2989 H2959 0.950 . S
C2989 C2984 1.363 . S
C2989 C2988 1.415 . S
H2990 C2987 0.999 . S
H2991 C2972 0.913 . S
H2992 C3010 0.951 . S
H2993 C3012 0.951 . S
H2994 C3014 0.950 . S
H2995 C3015 0.950 . S
H2996 C3017 0.950 1_655 S
H2997 C3020 0.950 . S
H2998 C3021 0.950 . S
H2999 C3023 0.953 1_455 S
H3000 C3024 0.950 . S
H3001 C3025 0.951 . S
H3002 C3027 0.951 . S
H3003 C3029 0.950 . S
H3004 C3030 0.950 . S
H3005 C3032 0.950 . S
H3006 C3035 0.950 . S
H3007 C3036 0.950 . S
H3008 C3038 0.950 . S
H3009 C3039 0.950 . S
C3010 H2992 0.951 . S
C3010 C3011 1.366 . S
C3010 C3012 1.388 . S
C3011 C3010 1.366 . S
C3011 C3015 1.385 . S
C3012 H2993 0.951 . S
C3012 C3010 1.388 . S
C3012 C3013 1.366 . S
C3013 C3012 1.366 . S
C3013 C3014 1.414 . S
C3013 C3016 1.499 . S
C3014 H2994 0.950 . S
C3014 C3013 1.414 . S
C3014 C3015 1.374 . S
C3015 H2995 0.950 . S
C3015 C3011 1.385 . S
C3015 C3014 1.374 . S
C3016 C3013 1.499 . S
C3016 C3017 1.373 1_655 S
C3016 C3018 1.389 1_655 S
C3017 H2996 0.950 1_455 S
C3017 C3016 1.373 1_455 S
C3017 C3033 1.377 . S
C3018 C3016 1.389 1_455 S
C3018 C3019 1.512 1_455 S
C3018 C3032 1.377 . S
C3019 C3018 1.512 1_655 S
C3019 C3020 1.407 . S
C3019 C3024 1.364 1_655 S
C3020 H2997 0.950 . S
C3020 C3019 1.407 . S
C3020 C3021 1.334 . S
C3021 H2998 0.950 . S
C3021 C3020 1.334 . S
C3021 C3022 1.287 . S
C3022 C3021 1.287 . S
C3022 C3023 1.533 . S
C3022 H3041 0.913 . S
C3023 H2999 0.953 1_655 S
C3023 C3022 1.533 . S
C3023 C3024 1.403 1_655 S
C3024 H3000 0.950 . S
C3024 C3019 1.364 1_455 S
C3024 C3023 1.403 1_455 S
C3025 H3001 0.951 . S
C3025 C3026 1.366 . S
C3025 C3027 1.388 . S
C3026 C3025 1.366 . S
C3026 C3030 1.385 . S
C3027 H3002 0.951 . S
C3027 C3025 1.388 . S
C3027 C3028 1.366 . S
C3028 C3027 1.366 . S
C3028 C3029 1.414 . S
C3028 C3031 1.499 . S
C3029 H3003 0.950 . S
C3029 C3028 1.414 . S
C3029 C3030 1.374 . S
C3030 H3004 0.950 . S
C3030 C3026 1.385 . S
C3030 C3029 1.374 . S
C3031 C3028 1.499 . S
C3031 C3032 1.373 . S
C3031 C3033 1.389 . S
C3032 H3005 0.950 . S
C3032 C3018 1.377 . S
C3032 C3031 1.373 . S
C3033 C3017 1.377 . S
C3033 C3031 1.389 . S
C3033 C3034 1.524 . S
C3034 C3033 1.524 . S
C3034 C3035 1.397 . S
C3034 C3039 1.363 . S
C3035 H3006 0.950 . S
C3035 C3034 1.397 . S
C3035 C3036 1.334 . S
C3036 H3007 0.950 . S
C3036 C3035 1.334 . S
C3036 C3037 1.287 . S
C3037 C3036 1.287 . S
C3037 C3038 1.524 . S
C3037 H3040 0.999 . S
C3038 H3008 0.950 . S
C3038 C3037 1.524 . S
C3038 C3039 1.415 . S
C3039 H3009 0.950 . S
C3039 C3034 1.363 . S
C3039 C3038 1.415 . S
H3040 C3037 0.999 . S
H3041 C3022 0.913 . S
H3042 C3060 0.951 . S
H3043 C3062 0.951 . S
H3044 C3064 0.950 . S
H3045 C3065 0.950 . S
H3046 C3067 0.950 . S
H3047 C3070 0.950 . S
H3048 C3071 0.950 . S
H3049 C3073 0.950 . S
H3050 C3074 0.950 . S
H3051 C3075 0.951 . S
H3052 C3077 0.951 . S
H3053 C3079 0.950 . S
H3054 C3080 0.950 . S
H3055 C3082 0.950 . S
H3056 C3085 0.950 . S
H3057 C3086 0.950 . S
H3058 C3088 0.950 . S
H3059 C3089 0.950 . S
C3060 H3042 0.951 . S
C3060 C3061 1.366 . S
C3060 C3062 1.388 . S
C3061 C3060 1.366 . S
C3061 C3065 1.385 . S
C3062 H3043 0.951 . S
C3062 C3060 1.388 . S
C3062 C3063 1.366 . S
C3063 C3062 1.366 . S
C3063 C3064 1.414 . S
C3063 C3066 1.499 . S
C3064 H3044 0.950 . S
C3064 C3063 1.414 . S
C3064 C3065 1.374 . S
C3065 H3045 0.950 . S
C3065 C3061 1.385 . S
C3065 C3064 1.374 . S
C3066 C3063 1.499 . S
C3066 C3067 1.373 . S
C3066 C3068 1.389 . S
C3067 H3046 0.950 . S
C3067 C3066 1.373 . S
C3067 C3083 1.377 . S
C3068 C3066 1.389 . S
C3068 C3069 1.524 . S
C3068 C3082 1.377 . S
C3069 C3068 1.524 . S
C3069 C3070 1.397 . S
C3069 C3074 1.363 . S
C3070 H3047 0.950 . S
C3070 C3069 1.397 . S
C3070 C3071 1.334 . S
C3071 H3048 0.950 . S
C3071 C3070 1.334 . S
C3071 C3072 1.287 . S
C3072 C3071 1.287 . S
C3072 C3073 1.524 . S
C3072 H3091 0.913 . S
C3073 H3049 0.950 . S
C3073 C3072 1.524 . S
C3073 C3074 1.415 . S
C3074 H3050 0.950 . S
C3074 C3069 1.363 . S
C3074 C3073 1.415 . S
C3075 H3051 0.951 . S
C3075 C3076 1.366 . S
C3075 C3077 1.388 . S
C3076 C3075 1.366 . S
C3076 C3080 1.385 . S
C3077 H3052 0.951 . S
C3077 C3075 1.388 . S
C3077 C3078 1.366 . S
C3078 C3077 1.366 . S
C3078 C3079 1.414 . S
C3078 C3081 1.499 . S
C3079 H3053 0.950 . S
C3079 C3078 1.414 . S
C3079 C3080 1.374 . S
C3080 H3054 0.950 . S
C3080 C3076 1.385 . S
C3080 C3079 1.374 . S
C3081 C3078 1.499 . S
C3081 C3082 1.373 . S
C3081 C3083 1.389 . S
C3082 H3055 0.950 . S
C3082 C3068 1.377 . S
C3082 C3081 1.373 . S
C3083 C3067 1.377 . S
C3083 C3081 1.389 . S
C3083 C3084 1.524 . S
C3084 C3083 1.524 . S
C3084 C3085 1.397 . S
C3084 C3089 1.363 . S
C3085 H3056 0.950 . S
C3085 C3084 1.397 . S
C3085 C3086 1.334 . S
C3086 H3057 0.950 . S
C3086 C3085 1.334 . S
C3086 C3087 1.287 . S
C3087 C3086 1.287 . S
C3087 C3088 1.524 . S
C3087 H3090 0.999 . S
C3088 H3058 0.950 . S
C3088 C3087 1.524 . S
C3088 C3089 1.415 . S
C3089 H3059 0.950 . S
C3089 C3084 1.363 . S
C3089 C3088 1.415 . S
H3090 C3087 0.999 . S
H3091 C3072 0.913 . S
H3092 C3110 0.951 . S
H3093 C3112 0.951 . S
H3094 C3114 0.950 . S
H3095 C3115 0.950 . S
H3096 C3117 0.950 1_565 S
H3097 C3120 0.950 . S
H3098 C3121 0.950 . S
H3099 C3123 0.950 . S
H3100 C3124 0.950 1_545 S
H3101 C3125 0.951 . S
H3102 C3127 0.951 . S
H3103 C3129 0.950 . S
H3104 C3130 0.950 . S
H3105 C3132 0.950 . S
H3106 C3135 0.950 . S
H3107 C3136 0.950 . S
H3108 C3138 0.950 . S
H3109 C3139 0.950 . S
C3110 H3092 0.951 . S
C3110 C3111 1.366 . S
C3110 C3112 1.388 . S
C3111 C3110 1.366 . S
C3111 C3115 1.385 . S
C3112 H3093 0.951 . S
C3112 C3110 1.388 . S
C3112 C3113 1.366 . S
C3113 C3112 1.366 . S
C3113 C3114 1.414 . S
C3113 C3116 1.499 . S
C3114 H3094 0.950 . S
C3114 C3113 1.414 . S
C3114 C3115 1.374 . S
C3115 H3095 0.950 . S
C3115 C3111 1.385 . S
C3115 C3114 1.374 . S
C3116 C3113 1.499 . S
C3116 C3117 1.373 1_565 S
C3116 C3118 1.389 1_565 S
C3117 H3096 0.950 1_545 S
C3117 C3116 1.373 1_545 S
C3117 C3133 1.377 . S
C3118 C3116 1.389 1_545 S
C3118 C3119 1.524 1_545 S
C3118 C3132 1.377 . S
C3119 C3118 1.524 1_565 S
C3119 C3120 1.397 . S
C3119 C3124 1.363 . S
C3120 H3097 0.950 . S
C3120 C3119 1.397 . S
C3120 C3121 1.334 . S
C3121 H3098 0.950 . S
C3121 C3120 1.334 . S
C3121 C3122 1.287 . S
C3122 C3121 1.287 . S
C3122 C3123 1.524 . S
C3122 H3141 0.913 1_455 S
C3123 H3099 0.950 . S
C3123 C3122 1.524 . S
C3123 C3124 1.415 . S
C3124 H3100 0.950 1_565 S
C3124 C3119 1.363 . S
C3124 C3123 1.415 . S
C3125 H3101 0.951 . S
C3125 C3126 1.366 . S
C3125 C3127 1.388 . S
C3126 C3125 1.366 . S
C3126 C3130 1.385 . S
C3127 H3102 0.951 . S
C3127 C3125 1.388 . S
C3127 C3128 1.366 . S
C3128 C3127 1.366 . S
C3128 C3129 1.414 . S
C3128 C3131 1.499 . S
C3129 H3103 0.950 . S
C3129 C3128 1.414 . S
C3129 C3130 1.374 . S
C3130 H3104 0.950 . S
C3130 C3126 1.385 . S
C3130 C3129 1.374 . S
C3131 C3128 1.499 . S
C3131 C3132 1.373 . S
C3131 C3133 1.389 . S
C3132 H3105 0.950 . S
C3132 C3118 1.377 . S
C3132 C3131 1.373 . S
C3133 C3117 1.377 . S
C3133 C3131 1.389 . S
C3133 C3134 1.524 . S
C3134 C3133 1.524 . S
C3134 C3135 1.397 . S
C3134 C3139 1.363 . S
C3135 H3106 0.950 . S
C3135 C3134 1.397 . S
C3135 C3136 1.334 . S
C3136 H3107 0.950 . S
C3136 C3135 1.334 . S
C3136 C3137 1.287 . S
C3137 C3136 1.287 . S
C3137 C3138 1.524 . S
C3137 H3140 0.999 . S
C3138 H3108 0.950 . S
C3138 C3137 1.524 . S
C3138 C3139 1.415 . S
C3139 H3109 0.950 . S
C3139 C3134 1.363 . S
C3139 C3138 1.415 . S
H3140 C3137 0.999 . S
H3141 C3122 0.913 1_655 S
H3142 C3160 0.951 . S
H3143 C3162 0.951 . S
H3144 C3164 0.950 . S
H3145 C3165 0.950 . S
H3146 C3167 0.950 . S
H3147 C3170 0.950 . S
H3148 C3171 0.950 . S
H3149 C3173 0.950 . S
H3150 C3174 0.950 . S
H3151 C3175 0.951 . S
H3152 C3177 0.951 . S
H3153 C3179 0.950 . S
H3154 C3180 0.950 . S
H3155 C3182 0.950 1_455 S
H3156 C3185 0.950 . S
H3157 C3186 0.950 . S
H3158 C3188 0.950 . S
H3159 C3189 0.950 1_655 S
C3160 H3142 0.951 . S
C3160 C3161 1.366 . S
C3160 C3162 1.388 . S
C3161 C3160 1.366 . S
C3161 C3165 1.385 . S
C3162 H3143 0.951 . S
C3162 C3160 1.388 . S
C3162 C3163 1.366 . S
C3163 C3162 1.366 . S
C3163 C3164 1.414 . S
C3163 C3166 1.499 . S
C3164 H3144 0.950 . S
C3164 C3163 1.414 . S
C3164 C3165 1.374 . S
C3165 H3145 0.950 . S
C3165 C3161 1.385 . S
C3165 C3164 1.374 . S
C3166 C3163 1.499 . S
C3166 C3167 1.373 . S
C3166 C3168 1.389 . S
C3167 H3146 0.950 . S
C3167 C3166 1.373 . S
C3167 C3183 1.377 . S
C3168 C3166 1.389 . S
C3168 C3169 1.524 . S
C3168 C3182 1.377 . S
C3169 C3168 1.524 . S
C3169 C3170 1.397 . S
C3169 C3174 1.363 . S
C3170 H3147 0.950 . S
C3170 C3169 1.397 . S
C3170 C3171 1.334 . S
C3171 H3148 0.950 . S
C3171 C3170 1.334 . S
C3171 C3172 1.287 . S
C3172 C3171 1.287 . S
C3172 C3173 1.524 . S
C3172 H3191 0.913 . S
C3173 H3149 0.950 . S
C3173 C3172 1.524 . S
C3173 C3174 1.415 . S
C3174 H3150 0.950 . S
C3174 C3169 1.363 . S
C3174 C3173 1.415 . S
C3175 H3151 0.951 . S
C3175 C3176 1.366 . S
C3175 C3177 1.388 . S
C3176 C3175 1.366 . S
C3176 C3180 1.385 . S
C3177 H3152 0.951 . S
C3177 C3175 1.388 . S
C3177 C3178 1.366 . S
C3178 C3177 1.366 . S
C3178 C3179 1.414 . S
C3178 C3181 1.499 . S
C3179 H3153 0.950 . S
C3179 C3178 1.414 . S
C3179 C3180 1.374 . S
C3180 H3154 0.950 . S
C3180 C3176 1.385 . S
C3180 C3179 1.374 . S
C3181 C3178 1.499 . S
C3181 C3182 1.373 1_455 S
C3181 C3183 1.389 1_455 S
C3182 H3155 0.950 1_655 S
C3182 C3168 1.377 . S
C3182 C3181 1.373 1_655 S
C3183 C3167 1.377 . S
C3183 C3181 1.389 1_655 S
C3183 C3184 1.524 1_655 S
C3184 C3183 1.524 1_455 S
C3184 C3185 1.397 . S
C3184 C3189 1.363 . S
C3185 H3156 0.950 . S
C3185 C3184 1.397 . S
C3185 C3186 1.334 . S
C3186 H3157 0.950 . S
C3186 C3185 1.334 . S
C3186 C3187 1.287 . S
C3187 C3186 1.287 . S
C3187 C3188 1.524 . S
C3187 H3190 0.999 . S
C3188 H3158 0.950 . S
C3188 C3187 1.524 . S
C3188 C3189 1.415 . S
C3189 H3159 0.950 1_455 S
C3189 C3184 1.363 . S
C3189 C3188 1.415 . S
H3190 C3187 0.999 . S
H3191 C3172 0.913 . S
H3192 C3210 0.951 . S
H3193 C3212 0.951 . S
H3194 C3214 0.950 . S
H3195 C3215 0.950 . S
H3196 C3217 0.950 . S
H3197 C3220 0.950 . S
H3198 C3221 0.950 . S
H3199 C3223 0.950 . S
H3200 C3224 0.950 . S
H3201 C3225 0.951 . S
H3202 C3227 0.951 . S
H3203 C3229 0.950 . S
H3204 C3230 0.950 . S
H3205 C3232 0.950 . S
H3206 C3235 0.950 . S
H3207 C3236 0.950 . S
H3208 C3238 0.950 . S
H3209 C3239 0.950 . S
C3210 H3192 0.951 . S
C3210 C3211 1.366 . S
C3210 C3212 1.388 . S
C3211 C3210 1.366 . S
C3211 C3215 1.385 . S
C3212 H3193 0.951 . S
C3212 C3210 1.388 . S
C3212 C3213 1.366 . S
C3213 C3212 1.366 . S
C3213 C3214 1.414 . S
C3213 C3216 1.499 . S
C3214 H3194 0.950 . S
C3214 C3213 1.414 . S
C3214 C3215 1.374 . S
C3215 H3195 0.950 . S
C3215 C3211 1.385 . S
C3215 C3214 1.374 . S
C3216 C3213 1.499 . S
C3216 C3217 1.373 . S
C3216 C3218 1.389 . S
C3217 H3196 0.950 . S
C3217 C3216 1.373 . S
C3217 C3233 1.377 . S
C3218 C3216 1.389 . S
C3218 C3219 1.524 . S
C3218 C3232 1.377 . S
C3219 C3218 1.524 . S
C3219 C3220 1.397 . S
C3219 C3224 1.363 . S
C3220 H3197 0.950 . S
C3220 C3219 1.397 . S
C3220 C3221 1.334 . S
C3221 H3198 0.950 . S
C3221 C3220 1.334 . S
C3221 C3222 1.287 . S
C3222 C3221 1.287 . S
C3222 C3223 1.524 . S
C3222 H3241 0.913 . S
C3223 H3199 0.950 . S
C3223 C3222 1.524 . S
C3223 C3224 1.415 . S
C3224 H3200 0.950 . S
C3224 C3219 1.363 . S
C3224 C3223 1.415 . S
C3225 H3201 0.951 . S
C3225 C3226 1.366 . S
C3225 C3227 1.388 . S
C3226 C3225 1.366 . S
C3226 C3230 1.385 . S
C3227 H3202 0.951 . S
C3227 C3225 1.388 . S
C3227 C3228 1.366 . S
C3228 C3227 1.366 . S
C3228 C3229 1.414 . S
C3228 C3231 1.499 . S
C3229 H3203 0.950 . S
C3229 C3228 1.414 . S
C3229 C3230 1.374 . S
C3230 H3204 0.950 . S
C3230 C3226 1.385 . S
C3230 C3229 1.374 . S
C3231 C3228 1.499 . S
C3231 C3232 1.373 . S
C3231 C3233 1.389 . S
C3232 H3205 0.950 . S
C3232 C3218 1.377 . S
C3232 C3231 1.373 . S
C3233 C3217 1.377 . S
C3233 C3231 1.389 . S
C3233 C3234 1.524 . S
C3234 C3233 1.524 . S
C3234 C3235 1.397 . S
C3234 C3239 1.363 . S
C3235 H3206 0.950 . S
C3235 C3234 1.397 . S
C3235 C3236 1.334 . S
C3236 H3207 0.950 . S
C3236 C3235 1.334 . S
C3236 C3237 1.287 . S
C3237 C3236 1.287 . S
C3237 C3238 1.524 . S
C3237 H3240 0.999 . S
C3238 H3208 0.950 . S
C3238 C3237 1.524 . S
C3238 C3239 1.415 . S
C3239 H3209 0.950 . S
C3239 C3234 1.363 . S
C3239 C3238 1.415 . S
H3240 C3237 0.999 . S
H3241 C3222 0.913 . S
H3242 C3260 0.951 . S
H3243 C3262 0.951 . S
H3244 C3264 0.950 . S
H3245 C3265 0.950 . S
H3246 C3267 0.950 . S
H3247 C3270 0.950 . S
H3248 C3271 0.950 . S
H3249 C3273 0.950 . S
H3250 C3274 0.950 . S
H3251 C3275 0.951 . S
H3252 C3277 0.951 . S
H3253 C3279 0.950 . S
H3254 C3280 0.950 . S
H3255 C3282 0.950 . S
H3256 C3285 0.950 . S
H3257 C3286 0.950 . S
H3258 C3288 0.950 . S
H3259 C3289 0.950 . S
C3260 H3242 0.951 . S
C3260 C3261 1.366 . S
C3260 C3262 1.388 . S
C3261 C3260 1.366 . S
C3261 C3265 1.385 . S
C3262 H3243 0.951 . S
C3262 C3260 1.388 . S
C3262 C3263 1.366 . S
C3263 C3262 1.366 . S
C3263 C3264 1.414 . S
C3263 C3266 1.499 . S
C3264 H3244 0.950 . S
C3264 C3263 1.414 . S
C3264 C3265 1.374 . S
C3265 H3245 0.950 . S
C3265 C3261 1.385 . S
C3265 C3264 1.374 . S
C3266 C3263 1.499 . S
C3266 C3267 1.373 . S
C3266 C3268 1.389 . S
C3267 H3246 0.950 . S
C3267 C3266 1.373 . S
C3267 C3283 1.377 . S
C3268 C3266 1.389 . S
C3268 C3269 1.524 . S
C3268 C3282 1.377 . S
C3269 C3268 1.524 . S
C3269 C3270 1.397 . S
C3269 C3274 1.363 . S
C3270 H3247 0.950 . S
C3270 C3269 1.397 . S
C3270 C3271 1.334 . S
C3271 H3248 0.950 . S
C3271 C3270 1.334 . S
C3271 C3272 1.287 . S
C3272 C3271 1.287 . S
C3272 C3273 1.524 . S
C3272 H3291 0.913 . S
C3273 H3249 0.950 . S
C3273 C3272 1.524 . S
C3273 C3274 1.415 . S
C3274 H3250 0.950 . S
C3274 C3269 1.363 . S
C3274 C3273 1.415 . S
C3275 H3251 0.951 . S
C3275 C3276 1.366 . S
C3275 C3277 1.388 . S
C3276 C3275 1.366 . S
C3276 C3280 1.385 . S
C3277 H3252 0.951 . S
C3277 C3275 1.388 . S
C3277 C3278 1.366 . S
C3278 C3277 1.366 . S
C3278 C3279 1.414 . S
C3278 C3281 1.499 . S
C3279 H3253 0.950 . S
C3279 C3278 1.414 . S
C3279 C3280 1.374 . S
C3280 H3254 0.950 . S
C3280 C3276 1.385 . S
C3280 C3279 1.374 . S
C3281 C3278 1.499 . S
C3281 C3282 1.373 . S
C3281 C3283 1.389 . S
C3282 H3255 0.950 . S
C3282 C3268 1.377 . S
C3282 C3281 1.373 . S
C3283 C3267 1.377 . S
C3283 C3281 1.389 . S
C3283 C3284 1.524 . S
C3284 C3283 1.524 . S
C3284 C3285 1.397 . S
C3284 C3289 1.363 . S
C3285 H3256 0.950 . S
C3285 C3284 1.397 . S
C3285 C3286 1.334 . S
C3286 H3257 0.950 . S
C3286 C3285 1.334 . S
C3286 C3287 1.287 . S
C3287 C3286 1.287 . S
C3287 C3288 1.524 . S
C3287 H3290 0.999 . S
C3288 H3258 0.950 . S
C3288 C3287 1.524 . S
C3288 C3289 1.415 . S
C3289 H3259 0.950 . S
C3289 C3284 1.363 . S
C3289 C3288 1.415 . S
H3290 C3287 0.999 . S
H3291 C3272 0.913 . S
H3292 C3310 0.951 . S
H3293 C3312 0.951 . S
H3294 C3314 0.950 . S
H3295 C3315 0.950 . S
H3296 C3317 0.950 . S
H3297 C3320 0.950 . S
H3298 C3321 0.950 . S
H3299 C3323 0.950 . S
H3300 C3324 0.950 . S
H3301 C3325 0.951 . S
H3302 C3327 0.951 . S
H3303 C3329 0.950 . S
H3304 C3330 0.950 . S
H3305 C3332 0.950 . S
H3306 C3335 0.950 . S
H3307 C3336 0.950 . S
H3308 C3338 0.950 . S
H3309 C3339 0.950 . S
C3310 H3292 0.951 . S
C3310 C3311 1.366 . S
C3310 C3312 1.388 . S
C3311 C3310 1.366 . S
C3311 C3315 1.385 . S
C3312 H3293 0.951 . S
C3312 C3310 1.388 . S
C3312 C3313 1.366 . S
C3313 C3312 1.366 . S
C3313 C3314 1.414 . S
C3313 C3316 1.499 . S
C3314 H3294 0.950 . S
C3314 C3313 1.414 . S
C3314 C3315 1.374 . S
C3315 H3295 0.950 . S
C3315 C3311 1.385 . S
C3315 C3314 1.374 . S
C3316 C3313 1.499 . S
C3316 C3317 1.373 . S
C3316 C3318 1.389 . S
C3317 H3296 0.950 . S
C3317 C3316 1.373 . S
C3317 C3333 1.377 . S
C3318 C3316 1.389 . S
C3318 C3319 1.524 . S
C3318 C3332 1.377 . S
C3319 C3318 1.524 . S
C3319 C3320 1.397 . S
C3319 C3324 1.363 . S
C3320 H3297 0.950 . S
C3320 C3319 1.397 . S
C3320 C3321 1.334 . S
C3321 H3298 0.950 . S
C3321 C3320 1.334 . S
C3321 C3322 1.287 . S
C3322 C3321 1.287 . S
C3322 C3323 1.524 . S
C3322 H3341 0.913 . S
C3323 H3299 0.950 . S
C3323 C3322 1.524 . S
C3323 C3324 1.415 . S
C3324 H3300 0.950 . S
C3324 C3319 1.363 . S
C3324 C3323 1.415 . S
C3325 H3301 0.951 . S
C3325 C3326 1.366 . S
C3325 C3327 1.388 . S
C3326 C3325 1.366 . S
C3326 C3330 1.385 . S
C3327 H3302 0.951 . S
C3327 C3325 1.388 . S
C3327 C3328 1.366 . S
C3328 C3327 1.366 . S
C3328 C3329 1.414 . S
C3328 C3331 1.499 . S
C3329 H3303 0.950 . S
C3329 C3328 1.414 . S
C3329 C3330 1.374 . S
C3330 H3304 0.950 . S
C3330 C3326 1.385 . S
C3330 C3329 1.374 . S
C3331 C3328 1.499 . S
C3331 C3332 1.373 . S
C3331 C3333 1.389 . S
C3332 H3305 0.950 . S
C3332 C3318 1.377 . S
C3332 C3331 1.373 . S
C3333 C3317 1.377 . S
C3333 C3331 1.389 . S
C3333 C3334 1.524 . S
C3334 C3333 1.524 . S
C3334 C3335 1.397 . S
C3334 C3339 1.363 . S
C3335 H3306 0.950 . S
C3335 C3334 1.397 . S
C3335 C3336 1.334 . S
C3336 H3307 0.950 . S
C3336 C3335 1.334 . S
C3336 C3337 1.287 . S
C3337 C3336 1.287 . S
C3337 C3338 1.524 . S
C3337 H3340 0.999 . S
C3338 H3308 0.950 . S
C3338 C3337 1.524 . S
C3338 C3339 1.415 . S
C3339 H3309 0.950 . S
C3339 C3334 1.363 . S
C3339 C3338 1.415 . S
H3340 C3337 0.999 . S
H3341 C3322 0.913 . S
H3342 C3360 0.951 . S
H3343 C3362 0.951 . S
H3344 C3364 0.950 . S
H3345 C3365 0.950 . S
H3346 C3367 0.950 . S
H3347 C3370 0.950 . S
H3348 C3371 0.950 . S
H3349 C3373 0.950 . S
H3350 C3374 0.950 . S
H3351 C3375 0.951 . S
H3352 C3377 0.951 . S
H3353 C3379 0.950 . S
H3354 C3380 0.950 . S
H3355 C3382 0.950 . S
H3356 C3385 0.950 . S
H3357 C3386 0.950 . S
H3358 C3388 0.950 . S
H3359 C3389 0.950 . S
C3360 H3342 0.951 . S
C3360 C3361 1.366 . S
C3360 C3362 1.388 . S
C3361 C3360 1.366 . S
C3361 C3365 1.385 . S
C3362 H3343 0.951 . S
C3362 C3360 1.388 . S
C3362 C3363 1.366 . S
C3363 C3362 1.366 . S
C3363 C3364 1.414 . S
C3363 C3366 1.499 . S
C3364 H3344 0.950 . S
C3364 C3363 1.414 . S
C3364 C3365 1.374 . S
C3365 H3345 0.950 . S
C3365 C3361 1.385 . S
C3365 C3364 1.374 . S
C3366 C3363 1.499 . S
C3366 C3367 1.373 . S
C3366 C3368 1.389 . S
C3367 H3346 0.950 . S
C3367 C3366 1.373 . S
C3367 C3383 1.377 . S
C3368 C3366 1.389 . S
C3368 C3369 1.524 . S
C3368 C3382 1.377 . S
C3369 C3368 1.524 . S
C3369 C3370 1.397 . S
C3369 C3374 1.363 . S
C3370 H3347 0.950 . S
C3370 C3369 1.397 . S
C3370 C3371 1.334 . S
C3371 H3348 0.950 . S
C3371 C3370 1.334 . S
C3371 C3372 1.287 . S
C3372 C3371 1.287 . S
C3372 C3373 1.524 . S
C3372 H3391 0.913 . S
C3373 H3349 0.950 . S
C3373 C3372 1.524 . S
C3373 C3374 1.415 . S
C3374 H3350 0.950 . S
C3374 C3369 1.363 . S
C3374 C3373 1.415 . S
C3375 H3351 0.951 . S
C3375 C3376 1.366 . S
C3375 C3377 1.388 . S
C3376 C3375 1.366 . S
C3376 C3380 1.385 . S
C3377 H3352 0.951 . S
C3377 C3375 1.388 . S
C3377 C3378 1.366 . S
C3378 C3377 1.366 . S
C3378 C3379 1.414 . S
C3378 C3381 1.499 . S
C3379 H3353 0.950 . S
C3379 C3378 1.414 . S
C3379 C3380 1.374 . S
C3380 H3354 0.950 . S
C3380 C3376 1.385 . S
C3380 C3379 1.374 . S
C3381 C3378 1.499 . S
C3381 C3382 1.373 . S
C3381 C3383 1.389 . S
C3382 H3355 0.950 . S
C3382 C3368 1.377 . S
C3382 C3381 1.373 . S
C3383 C3367 1.377 . S
C3383 C3381 1.389 . S
C3383 C3384 1.524 . S
C3384 C3383 1.524 . S
C3384 C3385 1.397 . S
C3384 C3389 1.363 . S
C3385 H3356 0.950 . S
C3385 C3384 1.397 . S
C3385 C3386 1.334 . S
C3386 H3357 0.950 . S
C3386 C3385 1.334 . S
C3386 C3387 1.287 . S
C3387 C3386 1.287 . S
C3387 C3388 1.524 . S
C3387 H3390 0.999 . S
C3388 H3358 0.950 . S
C3388 C3387 1.524 . S
C3388 C3389 1.415 . S
C3389 H3359 0.950 . S
C3389 C3384 1.363 . S
C3389 C3388 1.415 . S
H3390 C3387 0.999 . S
H3391 C3372 0.913 . S
H3392 C3410 0.951 . S
H3393 C3412 0.951 . S
H3394 C3414 0.950 . S
H3395 C3415 0.950 . S
H3396 C3417 0.950 . S
H3397 C3420 0.950 . S
H3398 C3421 0.950 . S
H3399 C3423 0.950 . S
H3400 C3424 0.950 . S
H3401 C3425 0.951 . S
H3402 C3427 0.951 . S
H3403 C3429 0.950 . S
H3404 C3430 0.950 . S
H3405 C3432 0.950 . S
H3406 C3435 0.950 . S
H3407 C3436 0.950 . S
H3408 C3438 0.950 . S
H3409 C3439 0.950 . S
C3410 H3392 0.951 . S
C3410 C3411 1.366 . S
C3410 C3412 1.388 . S
C3411 C3410 1.366 . S
C3411 C3415 1.385 . S
C3412 H3393 0.951 . S
C3412 C3410 1.388 . S
C3412 C3413 1.366 . S
C3413 C3412 1.366 . S
C3413 C3414 1.414 . S
C3413 C3416 1.499 . S
C3414 H3394 0.950 . S
C3414 C3413 1.414 . S
C3414 C3415 1.374 . S
C3415 H3395 0.950 . S
C3415 C3411 1.385 . S
C3415 C3414 1.374 . S
C3416 C3413 1.499 . S
C3416 C3417 1.373 . S
C3416 C3418 1.389 . S
C3417 H3396 0.950 . S
C3417 C3416 1.373 . S
C3417 C3433 1.377 . S
C3418 C3416 1.389 . S
C3418 C3419 1.524 . S
C3418 C3432 1.377 . S
C3419 C3418 1.524 . S
C3419 C3420 1.397 . S
C3419 C3424 1.363 . S
C3420 H3397 0.950 . S
C3420 C3419 1.397 . S
C3420 C3421 1.334 . S
C3421 H3398 0.950 . S
C3421 C3420 1.334 . S
C3421 C3422 1.287 . S
C3422 C3421 1.287 . S
C3422 C3423 1.524 . S
C3422 H3441 0.913 . S
C3423 H3399 0.950 . S
C3423 C3422 1.524 . S
C3423 C3424 1.415 . S
C3424 H3400 0.950 . S
C3424 C3419 1.363 . S
C3424 C3423 1.415 . S
C3425 H3401 0.951 . S
C3425 C3426 1.366 . S
C3425 C3427 1.388 . S
C3426 C3425 1.366 . S
C3426 C3430 1.385 . S
C3427 H3402 0.951 . S
C3427 C3425 1.388 . S
C3427 C3428 1.366 . S
C3428 C3427 1.366 . S
C3428 C3429 1.414 . S
C3428 C3431 1.499 . S
C3429 H3403 0.950 . S
C3429 C3428 1.414 . S
C3429 C3430 1.374 . S
C3430 H3404 0.950 . S
C3430 C3426 1.385 . S
C3430 C3429 1.374 . S
C3431 C3428 1.499 . S
C3431 C3432 1.373 . S
C3431 C3433 1.389 . S
C3432 H3405 0.950 . S
C3432 C3418 1.377 . S
C3432 C3431 1.373 . S
C3433 C3417 1.377 . S
C3433 C3431 1.389 . S
C3433 C3434 1.524 . S
C3434 C3433 1.524 . S
C3434 C3435 1.397 . S
C3434 C3439 1.363 . S
C3435 H3406 0.950 . S
C3435 C3434 1.397 . S
C3435 C3436 1.334 . S
C3436 H3407 0.950 . S
C3436 C3435 1.334 . S
C3436 C3437 1.287 . S
C3437 C3436 1.287 . S
C3437 C3438 1.524 . S
C3437 H3440 0.999 . S
C3438 H3408 0.950 . S
C3438 C3437 1.524 . S
C3438 C3439 1.415 . S
C3439 H3409 0.950 . S
C3439 C3434 1.363 . S
C3439 C3438 1.415 . S
H3440 C3437 0.999 . S
H3441 C3422 0.913 . S
H3442 C3460 0.951 . S
H3443 C3462 0.951 . S
H3444 C3464 0.950 . S
H3445 C3465 0.950 . S
H3446 C3467 0.950 . S
H3447 C3470 0.950 . S
H3448 C3471 0.950 . S
H3449 C3473 0.950 . S
H3450 C3474 0.950 . S
H3451 C3475 0.951 . S
H3452 C3477 0.951 . S
H3453 C3479 0.950 . S
H3454 C3480 0.950 . S
H3455 C3482 0.950 . S
H3456 C3485 0.950 . S
H3457 C3486 0.950 . S
H3458 C3488 0.950 . S
H3459 C3489 0.950 . S
C3460 H3442 0.951 . S
C3460 C3461 1.366 . S
C3460 C3462 1.388 . S
C3461 C3460 1.366 . S
C3461 C3465 1.385 . S
C3462 H3443 0.951 . S
C3462 C3460 1.388 . S
C3462 C3463 1.366 . S
C3463 C3462 1.366 . S
C3463 C3464 1.414 . S
C3463 C3466 1.499 . S
C3464 H3444 0.950 . S
C3464 C3463 1.414 . S
C3464 C3465 1.374 . S
C3465 H3445 0.950 . S
C3465 C3461 1.385 . S
C3465 C3464 1.374 . S
C3466 C3463 1.499 . S
C3466 C3467 1.373 . S
C3466 C3468 1.389 . S
C3467 H3446 0.950 . S
C3467 C3466 1.373 . S
C3467 C3483 1.377 . S
C3468 C3466 1.389 . S
C3468 C3469 1.524 . S
C3468 C3482 1.377 . S
C3469 C3468 1.524 . S
C3469 C3470 1.397 . S
C3469 C3474 1.363 . S
C3470 H3447 0.950 . S
C3470 C3469 1.397 . S
C3470 C3471 1.334 . S
C3471 H3448 0.950 . S
C3471 C3470 1.334 . S
C3471 C3472 1.287 . S
C3472 C3471 1.287 . S
C3472 C3473 1.524 . S
C3472 H3491 0.913 . S
C3473 H3449 0.950 . S
C3473 C3472 1.524 . S
C3473 C3474 1.415 . S
C3474 H3450 0.950 . S
C3474 C3469 1.363 . S
C3474 C3473 1.415 . S
C3475 H3451 0.951 . S
C3475 C3476 1.366 . S
C3475 C3477 1.388 . S
C3476 C3475 1.366 . S
C3476 C3480 1.385 . S
C3477 H3452 0.951 . S
C3477 C3475 1.388 . S
C3477 C3478 1.366 . S
C3478 C3477 1.366 . S
C3478 C3479 1.414 . S
C3478 C3481 1.499 . S
C3479 H3453 0.950 . S
C3479 C3478 1.414 . S
C3479 C3480 1.374 . S
C3480 H3454 0.950 . S
C3480 C3476 1.385 . S
C3480 C3479 1.374 . S
C3481 C3478 1.499 . S
C3481 C3482 1.373 . S
C3481 C3483 1.389 . S
C3482 H3455 0.950 . S
C3482 C3468 1.377 . S
C3482 C3481 1.373 . S
C3483 C3467 1.377 . S
C3483 C3481 1.389 . S
C3483 C3484 1.524 . S
C3484 C3483 1.524 . S
C3484 C3485 1.397 . S
C3484 C3489 1.363 . S
C3485 H3456 0.950 . S
C3485 C3484 1.397 . S
C3485 C3486 1.334 . S
C3486 H3457 0.950 . S
C3486 C3485 1.334 . S
C3486 C3487 1.287 . S
C3487 C3486 1.287 . S
C3487 C3488 1.524 . S
C3487 H3490 0.999 . S
C3488 H3458 0.950 . S
C3488 C3487 1.524 . S
C3488 C3489 1.415 . S
C3489 H3459 0.950 . S
C3489 C3484 1.363 . S
C3489 C3488 1.415 . S
H3490 C3487 0.999 . S
H3491 C3472 0.913 . S
H3492 C3510 0.951 . S
H3493 C3512 0.951 . S
H3494 C3514 0.950 . S
H3495 C3515 0.950 . S
H3496 C3517 0.950 . S
H3497 C3520 0.950 . S
H3498 C3521 0.950 . S
H3499 C3523 0.950 . S
H3500 C3524 0.950 . S
H3501 C3525 0.951 . S
H3502 C3527 0.951 . S
H3503 C3529 0.950 . S
H3504 C3530 0.950 . S
H3505 C3532 0.950 . S
H3506 C3535 0.950 . S
H3507 C3536 0.950 . S
H3508 C3538 0.950 . S
H3509 C3539 0.950 . S
C3510 H3492 0.951 . S
C3510 C3511 1.366 . S
C3510 C3512 1.388 . S
C3511 C3510 1.366 . S
C3511 C3515 1.385 . S
C3512 H3493 0.951 . S
C3512 C3510 1.388 . S
C3512 C3513 1.366 . S
C3513 C3512 1.366 . S
C3513 C3514 1.414 . S
C3513 C3516 1.499 . S
C3514 H3494 0.950 . S
C3514 C3513 1.414 . S
C3514 C3515 1.374 . S
C3515 H3495 0.950 . S
C3515 C3511 1.385 . S
C3515 C3514 1.374 . S
C3516 C3513 1.499 . S
C3516 C3517 1.373 . S
C3516 C3518 1.389 . S
C3517 H3496 0.950 . S
C3517 C3516 1.373 . S
C3517 C3533 1.377 . S
C3518 C3516 1.389 . S
C3518 C3519 1.524 . S
C3518 C3532 1.377 . S
C3519 C3518 1.524 . S
C3519 C3520 1.397 . S
C3519 C3524 1.363 . S
C3520 H3497 0.950 . S
C3520 C3519 1.397 . S
C3520 C3521 1.334 . S
C3521 H3498 0.950 . S
C3521 C3520 1.334 . S
C3521 C3522 1.287 . S
C3522 C3521 1.287 . S
C3522 C3523 1.524 . S
C3522 H3541 0.913 . S
C3523 H3499 0.950 . S
C3523 C3522 1.524 . S
C3523 C3524 1.415 . S
C3524 H3500 0.950 . S
C3524 C3519 1.363 . S
C3524 C3523 1.415 . S
C3525 H3501 0.951 . S
C3525 C3526 1.366 . S
C3525 C3527 1.388 . S
C3526 C3525 1.366 . S
C3526 C3530 1.385 . S
C3527 H3502 0.951 . S
C3527 C3525 1.388 . S
C3527 C3528 1.366 . S
C3528 C3527 1.366 . S
C3528 C3529 1.414 . S
C3528 C3531 1.499 . S
C3529 H3503 0.950 . S
C3529 C3528 1.414 . S
C3529 C3530 1.374 . S
C3530 H3504 0.950 . S
C3530 C3526 1.385 . S
C3530 C3529 1.374 . S
C3531 C3528 1.499 . S
C3531 C3532 1.373 . S
C3531 C3533 1.389 . S
C3532 H3505 0.950 . S
C3532 C3518 1.377 . S
C3532 C3531 1.373 . S
C3533 C3517 1.377 . S
C3533 C3531 1.389 . S
C3533 C3534 1.524 . S
C3534 C3533 1.524 . S
C3534 C3535 1.397 . S
C3534 C3539 1.363 . S
C3535 H3506 0.950 . S
C3535 C3534 1.397 . S
C3535 C3536 1.334 . S
C3536 H3507 0.950 . S
C3536 C3535 1.334 . S
C3536 C3537 1.287 . S
C3537 C3536 1.287 . S
C3537 C3538 1.524 . S
C3537 H3540 0.999 . S
C3538 H3508 0.950 . S
C3538 C3537 1.524 . S
C3538 C3539 1.415 . S
C3539 H3509 0.950 . S
C3539 C3534 1.363 . S
C3539 C3538 1.415 . S
H3540 C3537 0.999 . S
H3541 C3522 0.913 . S
H3542 C3560 0.951 . S
H3543 C3562 0.951 . S
H3544 C3564 0.950 . S
H3545 C3565 0.950 . S
H3546 C3567 0.950 . S
H3547 C3570 0.950 . S
H3548 C3571 0.950 . S
H3549 C3573 0.950 . S
H3550 C3574 0.950 . S
H3551 C3575 0.951 . S
H3552 C3577 0.951 . S
H3553 C3579 0.950 . S
H3554 C3580 0.950 . S
H3555 C3582 0.950 . S
H3556 C3585 0.950 . S
H3557 C3586 0.950 . S
H3558 C3588 0.950 . S
H3559 C3589 0.950 . S
C3560 H3542 0.951 . S
C3560 C3561 1.366 . S
C3560 C3562 1.388 . S
C3561 C3560 1.366 . S
C3561 C3565 1.385 . S
C3562 H3543 0.951 . S
C3562 C3560 1.388 . S
C3562 C3563 1.366 . S
C3563 C3562 1.366 . S
C3563 C3564 1.414 . S
C3563 C3566 1.499 . S
C3564 H3544 0.950 . S
C3564 C3563 1.414 . S
C3564 C3565 1.374 . S
C3565 H3545 0.950 . S
C3565 C3561 1.385 . S
C3565 C3564 1.374 . S
C3566 C3563 1.499 . S
C3566 C3567 1.373 . S
C3566 C3568 1.389 . S
C3567 H3546 0.950 . S
C3567 C3566 1.373 . S
C3567 C3583 1.377 . S
C3568 C3566 1.389 . S
C3568 C3569 1.524 . S
C3568 C3582 1.377 . S
C3569 C3568 1.524 . S
C3569 C3570 1.397 . S
C3569 C3574 1.363 . S
C3570 H3547 0.950 . S
C3570 C3569 1.397 . S
C3570 C3571 1.334 . S
C3571 H3548 0.950 . S
C3571 C3570 1.334 . S
C3571 C3572 1.287 . S
C3572 C3571 1.287 . S
C3572 C3573 1.524 . S
C3572 H3591 0.913 . S
C3573 H3549 0.950 . S
C3573 C3572 1.524 . S
C3573 C3574 1.415 . S
C3574 H3550 0.950 . S
C3574 C3569 1.363 . S
C3574 C3573 1.415 . S
C3575 H3551 0.951 . S
C3575 C3576 1.366 . S
C3575 C3577 1.388 . S
C3576 C3575 1.366 . S
C3576 C3580 1.385 . S
C3577 H3552 0.951 . S
C3577 C3575 1.388 . S
C3577 C3578 1.366 . S
C3578 C3577 1.366 . S
C3578 C3579 1.414 . S
C3578 C3581 1.499 . S
C3579 H3553 0.950 . S
C3579 C3578 1.414 . S
C3579 C3580 1.374 . S
C3580 H3554 0.950 . S
C3580 C3576 1.385 . S
C3580 C3579 1.374 . S
C3581 C3578 1.499 . S
C3581 C3582 1.373 . S
C3581 C3583 1.389 . S
C3582 H3555 0.950 . S
C3582 C3568 1.377 . S
C3582 C3581 1.373 . S
C3583 C3567 1.377 . S
C3583 C3581 1.389 . S
C3583 C3584 1.524 . S
C3584 C3583 1.524 . S
C3584 C3585 1.397 . S
C3584 C3589 1.363 . S
C3585 H3556 0.950 . S
C3585 C3584 1.397 . S
C3585 C3586 1.334 . S
C3586 H3557 0.950 . S
C3586 C3585 1.334 . S
C3586 C3587 1.287 . S
C3587 C3586 1.287 . S
C3587 C3588 1.524 . S
C3587 H3590 0.999 . S
C3588 H3558 0.950 . S
C3588 C3587 1.524 . S
C3588 C3589 1.415 . S
C3589 H3559 0.950 . S
C3589 C3584 1.363 . S
C3589 C3588 1.415 . S
H3590 C3587 0.999 . S
H3591 C3572 0.913 . S
H3592 C3610 0.951 . S
H3593 C3612 0.951 . S
H3594 C3614 0.950 . S
H3595 C3615 0.950 . S
H3596 C3617 0.950 . S
H3597 C3620 0.950 . S
H3598 C3621 0.950 . S
H3599 C3623 0.950 . S
H3600 C3624 0.950 . S
H3601 C3625 0.951 . S
H3602 C3627 0.951 . S
H3603 C3629 0.950 . S
H3604 C3630 0.950 . S
H3605 C3632 0.950 . S
H3606 C3635 0.950 . S
H3607 C3636 0.950 . S
H3608 C3638 0.950 . S
H3609 C3639 0.950 . S
C3610 H3592 0.951 . S
C3610 C3611 1.366 . S
C3610 C3612 1.388 . S
C3611 C3610 1.366 . S
C3611 C3615 1.385 . S
C3612 H3593 0.951 . S
C3612 C3610 1.388 . S
C3612 C3613 1.366 . S
C3613 C3612 1.366 . S
C3613 C3614 1.414 . S
C3613 C3616 1.499 . S
C3614 H3594 0.950 . S
C3614 C3613 1.414 . S
C3614 C3615 1.374 . S
C3615 H3595 0.950 . S
C3615 C3611 1.385 . S
C3615 C3614 1.374 . S
C3616 C3613 1.499 . S
C3616 C3617 1.373 . S
C3616 C3618 1.389 . S
C3617 H3596 0.950 . S
C3617 C3616 1.373 . S
C3617 C3633 1.377 . S
C3618 C3616 1.389 . S
C3618 C3619 1.524 . S
C3618 C3632 1.377 . S
C3619 C3618 1.524 . S
C3619 C3620 1.397 . S
C3619 C3624 1.363 . S
C3620 H3597 0.950 . S
C3620 C3619 1.397 . S
C3620 C3621 1.334 . S
C3621 H3598 0.950 . S
C3621 C3620 1.334 . S
C3621 C3622 1.287 . S
C3622 C3621 1.287 . S
C3622 C3623 1.524 . S
C3622 H3641 0.913 . S
C3623 H3599 0.950 . S
C3623 C3622 1.524 . S
C3623 C3624 1.415 . S
C3624 H3600 0.950 . S
C3624 C3619 1.363 . S
C3624 C3623 1.415 . S
C3625 H3601 0.951 . S
C3625 C3626 1.366 . S
C3625 C3627 1.388 . S
C3626 C3625 1.366 . S
C3626 C3630 1.385 . S
C3627 H3602 0.951 . S
C3627 C3625 1.388 . S
C3627 C3628 1.366 . S
C3628 C3627 1.366 . S
C3628 C3629 1.414 . S
C3628 C3631 1.499 . S
C3629 H3603 0.950 . S
C3629 C3628 1.414 . S
C3629 C3630 1.374 . S
C3630 H3604 0.950 . S
C3630 C3626 1.385 . S
C3630 C3629 1.374 . S
C3631 C3628 1.499 . S
C3631 C3632 1.373 . S
C3631 C3633 1.389 . S
C3632 H3605 0.950 . S
C3632 C3618 1.377 . S
C3632 C3631 1.373 . S
C3633 C3617 1.377 . S
C3633 C3631 1.389 . S
C3633 C3634 1.524 . S
C3634 C3633 1.524 . S
C3634 C3635 1.397 . S
C3634 C3639 1.363 . S
C3635 H3606 0.950 . S
C3635 C3634 1.397 . S
C3635 C3636 1.334 . S
C3636 H3607 0.950 . S
C3636 C3635 1.334 . S
C3636 C3637 1.287 . S
C3637 C3636 1.287 . S
C3637 C3638 1.524 . S
C3637 H3640 0.999 . S
C3638 H3608 0.950 . S
C3638 C3637 1.524 . S
C3638 C3639 1.415 . S
C3639 H3609 0.950 . S
C3639 C3634 1.363 . S
C3639 C3638 1.415 . S
H3640 C3637 0.999 . S
H3641 C3622 0.913 . S
H3642 C3660 0.951 . S
H3643 C3662 0.951 . S
H3644 C3664 0.950 . S
H3645 C3665 0.950 . S
H3646 C3667 0.950 . S
H3647 C3670 0.950 . S
H3648 C3671 0.950 . S
H3649 C3673 0.950 . S
H3650 C3674 0.950 . S
H3651 C3675 0.951 . S
H3652 C3677 0.951 . S
H3653 C3679 0.950 . S
H3654 C3680 0.950 . S
H3655 C3682 0.950 . S
H3656 C3685 0.950 . S
H3657 C3686 0.950 . S
H3658 C3688 0.950 . S
H3659 C3689 0.950 . S
C3660 H3642 0.951 . S
C3660 C3661 1.366 . S
C3660 C3662 1.388 . S
C3661 C3660 1.366 . S
C3661 C3665 1.385 . S
C3662 H3643 0.951 . S
C3662 C3660 1.388 . S
C3662 C3663 1.366 . S
C3663 C3662 1.366 . S
C3663 C3664 1.414 . S
C3663 C3666 1.499 . S
C3664 H3644 0.950 . S
C3664 C3663 1.414 . S
C3664 C3665 1.374 . S
C3665 H3645 0.950 . S
C3665 C3661 1.385 . S
C3665 C3664 1.374 . S
C3666 C3663 1.499 . S
C3666 C3667 1.373 . S
C3666 C3668 1.389 . S
C3667 H3646 0.950 . S
C3667 C3666 1.373 . S
C3667 C3683 1.377 . S
C3668 C3666 1.389 . S
C3668 C3669 1.524 . S
C3668 C3682 1.377 . S
C3669 C3668 1.524 . S
C3669 C3670 1.397 . S
C3669 C3674 1.363 1_556 S
C3670 H3647 0.950 . S
C3670 C3669 1.397 . S
C3670 C3671 1.334 1_556 S
C3671 H3648 0.950 . S
C3671 C3670 1.334 1_554 S
C3671 C3672 1.287 . S
C3672 C3671 1.287 . S
C3672 C3673 1.524 . S
C3672 H3691 0.913 . S
C3673 H3649 0.950 . S
C3673 C3672 1.524 . S
C3673 C3674 1.415 . S
C3674 H3650 0.950 . S
C3674 C3669 1.363 1_554 S
C3674 C3673 1.415 . S
C3675 H3651 0.951 . S
C3675 C3676 1.366 . S
C3675 C3677 1.388 . S
C3676 C3675 1.366 . S
C3676 C3680 1.385 . S
C3677 H3652 0.951 . S
C3677 C3675 1.388 . S
C3677 C3678 1.366 . S
C3678 C3677 1.366 . S
C3678 C3679 1.414 . S
C3678 C3681 1.499 . S
C3679 H3653 0.950 . S
C3679 C3678 1.414 . S
C3679 C3680 1.374 . S
C3680 H3654 0.950 . S
C3680 C3676 1.385 . S
C3680 C3679 1.374 . S
C3681 C3678 1.499 . S
C3681 C3682 1.373 . S
C3681 C3683 1.389 . S
C3682 H3655 0.950 . S
C3682 C3668 1.377 . S
C3682 C3681 1.373 . S
C3683 C3667 1.377 . S
C3683 C3681 1.389 . S
C3683 C3684 1.524 . S
C3684 C3683 1.524 . S
C3684 C3685 1.397 . S
C3684 C3689 1.363 . S
C3685 H3656 0.950 . S
C3685 C3684 1.397 . S
C3685 C3686 1.334 . S
C3686 H3657 0.950 . S
C3686 C3685 1.334 . S
C3686 C3687 1.287 . S
C3687 C3686 1.287 . S
C3687 C3688 1.524 . S
C3687 H3690 0.999 . S
C3688 H3658 0.950 . S
C3688 C3687 1.524 . S
C3688 C3689 1.415 . S
C3689 H3659 0.950 . S
C3689 C3684 1.363 . S
C3689 C3688 1.415 . S
H3690 C3687 0.999 . S
H3691 C3672 0.913 . S
H3692 C3710 0.951 . S
H3693 C3712 0.951 . S
H3694 C3714 0.950 . S
H3695 C3715 0.950 . S
H3696 C3717 0.950 . S
H3697 C3720 0.950 . S
H3698 C3721 0.950 . S
H3699 C3723 0.950 . S
H3700 C3724 0.950 . S
H3701 C3725 0.951 . S
H3702 C3727 0.951 . S
H3703 C3729 0.950 . S
H3704 C3730 0.950 . S
H3705 C3732 0.950 . S
H3706 C3735 0.950 1_556 S
H3707 C3736 0.950 . S
H3708 C3738 0.950 . S
H3709 C3739 0.976 . S
C3710 H3692 0.951 . S
C3710 C3711 1.366 . S
C3710 C3712 1.388 . S
C3711 C3710 1.366 . S
C3711 C3715 1.385 . S
C3712 H3693 0.951 . S
C3712 C3710 1.388 . S
C3712 C3713 1.366 . S
C3713 C3712 1.366 . S
C3713 C3714 1.414 . S
C3713 C3716 1.499 . S
C3714 H3694 0.950 . S
C3714 C3713 1.414 . S
C3714 C3715 1.374 . S
C3715 H3695 0.950 . S
C3715 C3711 1.385 . S
C3715 C3714 1.374 . S
C3716 C3713 1.499 . S
C3716 C3717 1.373 . S
C3716 C3718 1.389 . S
C3717 H3696 0.950 . S
C3717 C3716 1.373 . S
C3717 C3733 1.377 . S
C3718 C3716 1.389 . S
C3718 C3719 1.524 . S
C3718 C3732 1.377 . S
C3719 C3718 1.524 . S
C3719 C3720 1.397 . S
C3719 C3724 1.363 . S
C3720 H3697 0.950 . S
C3720 C3719 1.397 . S
C3720 C3721 1.334 . S
C3721 H3698 0.950 . S
C3721 C3720 1.334 . S
C3721 C3722 1.287 . S
C3722 C3721 1.287 . S
C3722 C3723 1.524 . S
C3722 H3741 0.913 . S
C3723 H3699 0.950 . S
C3723 C3722 1.524 . S
C3723 C3724 1.415 . S
C3724 H3700 0.950 . S
C3724 C3719 1.363 . S
C3724 C3723 1.415 . S
C3725 H3701 0.951 . S
C3725 C3726 1.366 . S
C3725 C3727 1.388 . S
C3726 C3725 1.366 . S
C3726 C3730 1.385 . S
C3727 H3702 0.951 . S
C3727 C3725 1.388 . S
C3727 C3728 1.366 . S
C3728 C3727 1.366 . S
C3728 C3729 1.414 . S
C3728 C3731 1.499 . S
C3729 H3703 0.950 . S
C3729 C3728 1.414 . S
C3729 C3730 1.374 . S
C3730 H3704 0.950 . S
C3730 C3726 1.385 . S
C3730 C3729 1.374 . S
C3731 C3728 1.499 . S
C3731 C3732 1.373 . S
C3731 C3733 1.389 . S
C3732 H3705 0.950 . S
C3732 C3718 1.377 . S
C3732 C3731 1.373 . S
C3733 C3717 1.377 . S
C3733 C3731 1.389 . S
C3733 C3734 1.524 . S
C3734 C3733 1.524 . S
C3734 C3735 1.397 1_556 S
C3734 C3739 1.363 1_556 S
C3735 H3706 0.950 1_554 S
C3735 C3734 1.397 1_554 S
C3735 C3736 1.334 . S
C3736 H3707 0.950 . S
C3736 C3735 1.334 . S
C3736 C3737 1.287 . S
C3737 C3736 1.287 . S
C3737 C3738 1.524 . S
C3737 H3740 0.999 . S
C3738 H3708 0.950 . S
C3738 C3737 1.524 . S
C3738 C3739 1.415 . S
C3739 H3709 0.976 . S
C3739 C3734 1.363 1_554 S
C3739 C3738 1.415 . S
H3740 C3737 0.999 . S
H3741 C3722 0.913 . S
H3742 C3760 0.951 . S
H3743 C3762 0.951 . S
H3744 C3764 0.950 . S
H3745 C3765 0.950 . S
H3746 C3767 0.950 . S
H3747 C3770 0.950 1_556 S
H3748 C3771 0.950 . S
H3749 C3773 0.950 . S
H3750 C3774 0.950 . S
H3751 C3775 0.951 . S
H3752 C3777 0.951 . S
H3753 C3779 0.950 . S
H3754 C3780 0.950 . S
H3755 C3782 0.950 . S
H3756 C3785 0.950 . S
H3757 C3786 0.950 . S
H3758 C3788 0.950 . S
H3759 C3789 0.950 . S
C3760 H3742 0.951 . S
C3760 C3761 1.366 . S
C3760 C3762 1.388 . S
C3761 C3760 1.366 . S
C3761 C3765 1.385 . S
C3762 H3743 0.951 . S
C3762 C3760 1.388 . S
C3762 C3763 1.366 . S
C3763 C3762 1.366 . S
C3763 C3764 1.414 . S
C3763 C3766 1.499 . S
C3764 H3744 0.950 . S
C3764 C3763 1.414 . S
C3764 C3765 1.374 . S
C3765 H3745 0.950 . S
C3765 C3761 1.385 . S
C3765 C3764 1.374 . S
C3766 C3763 1.499 . S
C3766 C3767 1.373 . S
C3766 C3768 1.389 . S
C3767 H3746 0.950 . S
C3767 C3766 1.373 . S
C3767 C3783 1.377 . S
C3768 C3766 1.389 . S
C3768 C3769 1.524 . S
C3768 C3782 1.377 . S
C3769 C3768 1.524 . S
C3769 C3770 1.397 1_556 S
C3769 C3774 1.363 1_556 S
C3770 H3747 0.950 1_554 S
C3770 C3769 1.397 1_554 S
C3770 C3771 1.334 . S
C3771 H3748 0.950 . S
C3771 C3770 1.334 . S
C3771 C3772 1.287 . S
C3772 C3771 1.287 . S
C3772 C3773 1.524 . S
C3772 H3791 0.913 . S
C3773 H3749 0.950 . S
C3773 C3772 1.524 . S
C3773 C3774 1.415 . S
C3774 H3750 0.950 . S
C3774 C3769 1.363 1_554 S
C3774 C3773 1.415 . S
C3775 H3751 0.951 . S
C3775 C3776 1.366 . S
C3775 C3777 1.388 . S
C3776 C3775 1.366 . S
C3776 C3780 1.385 . S
C3777 H3752 0.951 . S
C3777 C3775 1.388 . S
C3777 C3778 1.366 . S
C3778 C3777 1.366 . S
C3778 C3779 1.414 . S
C3778 C3781 1.499 . S
C3779 H3753 0.950 . S
C3779 C3778 1.414 . S
C3779 C3780 1.374 . S
C3780 H3754 0.950 . S
C3780 C3776 1.385 . S
C3780 C3779 1.374 . S
C3781 C3778 1.499 . S
C3781 C3782 1.373 . S
C3781 C3783 1.389 . S
C3782 H3755 0.950 . S
C3782 C3768 1.377 . S
C3782 C3781 1.373 . S
C3783 C3767 1.377 . S
C3783 C3781 1.389 . S
C3783 C3784 1.524 . S
C3784 C3783 1.524 . S
C3784 C3785 1.397 . S
C3784 C3789 1.363 . S
C3785 H3756 0.950 . S
C3785 C3784 1.397 . S
C3785 C3786 1.334 . S
C3786 H3757 0.950 . S
C3786 C3785 1.334 . S
C3786 C3787 1.287 . S
C3787 C3786 1.287 . S
C3787 C3788 1.524 . S
C3787 H3790 0.999 . S
C3788 H3758 0.950 . S
C3788 C3787 1.524 . S
C3788 C3789 1.415 . S
C3789 H3759 0.950 . S
C3789 C3784 1.363 . S
C3789 C3788 1.415 . S
H3790 C3787 0.999 . S
H3791 C3772 0.913 . S
H3792 C3810 0.951 . S
H3793 C3812 0.951 . S
H3794 C3814 0.950 . S
H3795 C3815 0.950 . S
H3796 C3817 0.950 . S
H3797 C3820 0.950 . S
H3798 C3821 0.950 . S
H3799 C3823 0.950 . S
H3800 C3824 0.950 . S
H3801 C3825 0.951 . S
H3802 C3827 0.951 . S
H3803 C3829 0.950 . S
H3804 C3830 0.950 . S
H3805 C3832 0.950 . S
H3806 C3835 0.950 . S
H3807 C3836 0.950 . S
H3808 C3838 0.950 . S
H3809 C3839 0.950 . S
C3810 H3792 0.951 . S
C3810 C3811 1.366 . S
C3810 C3812 1.388 . S
C3811 C3810 1.366 . S
C3811 C3815 1.385 . S
C3812 H3793 0.951 . S
C3812 C3810 1.388 . S
C3812 C3813 1.366 . S
C3813 C3812 1.366 . S
C3813 C3814 1.414 . S
C3813 C3816 1.499 . S
C3814 H3794 0.950 . S
C3814 C3813 1.414 . S
C3814 C3815 1.374 . S
C3815 H3795 0.950 . S
C3815 C3811 1.385 . S
C3815 C3814 1.374 . S
C3816 C3813 1.499 . S
C3816 C3817 1.373 . S
C3816 C3818 1.389 . S
C3817 H3796 0.950 . S
C3817 C3816 1.373 . S
C3817 C3833 1.377 . S
C3818 C3816 1.389 . S
C3818 C3819 1.524 . S
C3818 C3832 1.377 . S
C3819 C3818 1.524 . S
C3819 C3820 1.397 . S
C3819 C3824 1.363 . S
C3820 H3797 0.950 . S
C3820 C3819 1.397 . S
C3820 C3821 1.334 . S
C3821 H3798 0.950 . S
C3821 C3820 1.334 . S
C3821 C3822 1.287 . S
C3822 C3821 1.287 . S
C3822 C3823 1.524 . S
C3822 H3841 0.913 . S
C3823 H3799 0.950 . S
C3823 C3822 1.524 . S
C3823 C3824 1.415 . S
C3824 H3800 0.950 . S
C3824 C3819 1.363 . S
C3824 C3823 1.415 . S
C3825 H3801 0.951 . S
C3825 C3826 1.366 . S
C3825 C3827 1.388 . S
C3826 C3825 1.366 . S
C3826 C3830 1.385 . S
C3827 H3802 0.951 . S
C3827 C3825 1.388 . S
C3827 C3828 1.366 . S
C3828 C3827 1.366 . S
C3828 C3829 1.414 . S
C3828 C3831 1.499 . S
C3829 H3803 0.950 . S
C3829 C3828 1.414 . S
C3829 C3830 1.374 . S
C3830 H3804 0.950 . S
C3830 C3826 1.385 . S
C3830 C3829 1.374 . S
C3831 C3828 1.499 . S
C3831 C3832 1.373 . S
C3831 C3833 1.389 . S
C3832 H3805 0.950 . S
C3832 C3818 1.377 . S
C3832 C3831 1.373 . S
C3833 C3817 1.377 . S
C3833 C3831 1.389 . S
C3833 C3834 1.524 . S
C3834 C3833 1.524 . S
C3834 C3835 1.397 . S
C3834 C3839 1.363 . S
C3835 H3806 0.950 . S
C3835 C3834 1.397 . S
C3835 C3836 1.334 . S
C3836 H3807 0.950 . S
C3836 C3835 1.334 . S
C3836 C3837 1.287 . S
C3837 C3836 1.287 . S
C3837 C3838 1.524 . S
C3837 H3840 0.999 . S
C3838 H3808 0.950 . S
C3838 C3837 1.524 . S
C3838 C3839 1.415 . S
C3839 H3809 0.950 . S
C3839 C3834 1.363 . S
C3839 C3838 1.415 . S
H3840 C3837 0.999 . S
H3841 C3822 0.913 . S
H3842 C3860 0.951 . S
H3843 C3862 0.951 . S
H3844 C3864 0.950 . S
H3845 C3865 0.950 . S
H3846 C3867 0.950 . S
H3847 C3870 0.950 . S
H3848 C3871 0.950 . S
H3849 C3873 0.950 . S
H3850 C3874 0.950 . S
H3851 C3875 0.951 . S
H3852 C3877 0.951 . S
H3853 C3879 0.950 . S
H3854 C3880 0.950 . S
H3855 C3882 0.950 . S
H3856 C3885 0.950 . S
H3857 C3886 0.950 . S
H3858 C3888 0.950 . S
H3859 C3889 0.950 . S
C3860 H3842 0.951 . S
C3860 C3861 1.366 . S
C3860 C3862 1.388 . S
C3861 C3860 1.366 . S
C3861 C3865 1.385 . S
C3862 H3843 0.951 . S
C3862 C3860 1.388 . S
C3862 C3863 1.366 . S
C3863 C3862 1.366 . S
C3863 C3864 1.414 . S
C3863 C3866 1.499 . S
C3864 H3844 0.950 . S
C3864 C3863 1.414 . S
C3864 C3865 1.374 . S
C3865 H3845 0.950 . S
C3865 C3861 1.385 . S
C3865 C3864 1.374 . S
C3866 C3863 1.499 . S
C3866 C3867 1.373 . S
C3866 C3868 1.389 . S
C3867 H3846 0.950 . S
C3867 C3866 1.373 . S
C3867 C3883 1.377 . S
C3868 C3866 1.389 . S
C3868 C3869 1.524 . S
C3868 C3882 1.377 . S
C3869 C3868 1.524 . S
C3869 C3870 1.397 . S
C3869 C3874 1.363 . S
C3870 H3847 0.950 . S
C3870 C3869 1.397 . S
C3870 C3871 1.334 . S
C3871 H3848 0.950 . S
C3871 C3870 1.334 . S
C3871 C3872 1.287 . S
C3872 C3871 1.287 . S
C3872 C3873 1.524 . S
C3872 H3891 0.913 . S
C3873 H3849 0.950 . S
C3873 C3872 1.524 . S
C3873 C3874 1.415 . S
C3874 H3850 0.950 . S
C3874 C3869 1.363 . S
C3874 C3873 1.415 . S
C3875 H3851 0.951 . S
C3875 C3876 1.366 . S
C3875 C3877 1.388 . S
C3876 C3875 1.366 . S
C3876 C3880 1.385 . S
C3877 H3852 0.951 . S
C3877 C3875 1.388 . S
C3877 C3878 1.366 . S
C3878 C3877 1.366 . S
C3878 C3879 1.414 . S
C3878 C3881 1.499 . S
C3879 H3853 0.950 . S
C3879 C3878 1.414 . S
C3879 C3880 1.374 . S
C3880 H3854 0.950 . S
C3880 C3876 1.385 . S
C3880 C3879 1.374 . S
C3881 C3878 1.499 . S
C3881 C3882 1.373 . S
C3881 C3883 1.389 . S
C3882 H3855 0.950 . S
C3882 C3868 1.377 . S
C3882 C3881 1.373 . S
C3883 C3867 1.377 . S
C3883 C3881 1.389 . S
C3883 C3884 1.524 . S
C3884 C3883 1.524 . S
C3884 C3885 1.397 . S
C3884 C3889 1.363 . S
C3885 H3856 0.950 . S
C3885 C3884 1.397 . S
C3885 C3886 1.334 . S
C3886 H3857 0.950 . S
C3886 C3885 1.334 . S
C3886 C3887 1.287 . S
C3887 C3886 1.287 . S
C3887 C3888 1.524 . S
C3887 H3890 0.999 . S
C3888 H3858 0.950 . S
C3888 C3887 1.524 . S
C3888 C3889 1.415 . S
C3889 H3859 0.950 . S
C3889 C3884 1.363 . S
C3889 C3888 1.415 . S
H3890 C3887 0.999 . S
H3891 C3872 0.913 . S
H3892 C3910 0.951 . S
H3893 C3912 0.951 . S
H3894 C3914 0.950 . S
H3895 C3915 0.950 . S
H3896 C3917 0.950 . S
H3897 C3920 0.950 . S
H3898 C3921 0.950 . S
H3899 C3923 0.950 . S
H3900 C3924 0.950 . S
H3901 C3925 0.951 . S
H3902 C3927 0.951 . S
H3903 C3929 0.950 . S
H3904 C3930 0.950 . S
H3905 C3932 0.950 . S
H3906 C3935 0.950 . S
H3907 C3936 0.950 . S
H3908 C3938 0.950 . S
H3909 C3939 0.950 . S
C3910 H3892 0.951 . S
C3910 C3911 1.366 . S
C3910 C3912 1.388 . S
C3911 C3910 1.366 . S
C3911 C3915 1.385 . S
C3912 H3893 0.951 . S
C3912 C3910 1.388 . S
C3912 C3913 1.366 . S
C3913 C3912 1.366 . S
C3913 C3914 1.414 . S
C3913 C3916 1.499 . S
C3914 H3894 0.950 . S
C3914 C3913 1.414 . S
C3914 C3915 1.374 . S
C3915 H3895 0.950 . S
C3915 C3911 1.385 . S
C3915 C3914 1.374 . S
C3916 C3913 1.499 . S
C3916 C3917 1.373 . S
C3916 C3918 1.389 . S
C3917 H3896 0.950 . S
C3917 C3916 1.373 . S
C3917 C3933 1.377 . S
C3918 C3916 1.389 . S
C3918 C3919 1.524 . S
C3918 C3932 1.377 . S
C3919 C3918 1.524 . S
C3919 C3920 1.397 . S
C3919 C3924 1.363 . S
C3920 H3897 0.950 . S
C3920 C3919 1.397 . S
C3920 C3921 1.334 . S
C3921 H3898 0.950 . S
C3921 C3920 1.334 . S
C3921 C3922 1.287 . S
C3922 C3921 1.287 . S
C3922 C3923 1.524 . S
C3922 H3941 0.913 . S
C3923 H3899 0.950 . S
C3923 C3922 1.524 . S
C3923 C3924 1.415 . S
C3924 H3900 0.950 . S
C3924 C3919 1.363 . S
C3924 C3923 1.415 . S
C3925 H3901 0.951 . S
C3925 C3926 1.366 . S
C3925 C3927 1.388 . S
C3926 C3925 1.366 . S
C3926 C3930 1.385 . S
C3927 H3902 0.951 . S
C3927 C3925 1.388 . S
C3927 C3928 1.366 . S
C3928 C3927 1.366 . S
C3928 C3929 1.414 . S
C3928 C3931 1.499 . S
C3929 H3903 0.950 . S
C3929 C3928 1.414 . S
C3929 C3930 1.374 . S
C3930 H3904 0.950 . S
C3930 C3926 1.385 . S
C3930 C3929 1.374 . S
C3931 C3928 1.499 . S
C3931 C3932 1.373 . S
C3931 C3933 1.389 . S
C3932 H3905 0.950 . S
C3932 C3918 1.377 . S
C3932 C3931 1.373 . S
C3933 C3917 1.377 . S
C3933 C3931 1.389 . S
C3933 C3934 1.524 . S
C3934 C3933 1.524 . S
C3934 C3935 1.397 . S
C3934 C3939 1.363 . S
C3935 H3906 0.950 . S
C3935 C3934 1.397 . S
C3935 C3936 1.334 . S
C3936 H3907 0.950 . S
C3936 C3935 1.334 . S
C3936 C3937 1.287 . S
C3937 C3936 1.287 . S
C3937 C3938 1.524 . S
C3937 H3940 0.999 . S
C3938 H3908 0.950 . S
C3938 C3937 1.524 . S
C3938 C3939 1.415 . S
C3939 H3909 0.950 . S
C3939 C3934 1.363 . S
C3939 C3938 1.415 . S
H3940 C3937 0.999 . S
H3941 C3922 0.913 . S
H3942 C3960 0.951 . S
H3943 C3962 0.951 . S
H3944 C3964 0.950 . S
H3945 C3965 0.950 . S
H3946 C3967 0.950 . S
H3947 C3970 0.950 . S
H3948 C3971 0.951 1_554 S
H3949 C3973 0.950 . S
H3950 C3974 0.950 . S
H3951 C3975 0.951 . S
H3952 C3977 0.951 . S
H3953 C3979 0.950 . S
H3954 C3980 0.950 . S
H3955 C3982 0.950 . S
H3956 C3985 0.950 . S
H3957 C3986 0.950 . S
H3958 C3988 0.950 . S
H3959 C3989 0.950 . S
C3960 H3942 0.951 . S
C3960 C3961 1.366 . S
C3960 C3962 1.388 . S
C3961 C3960 1.366 . S
C3961 C3965 1.385 . S
C3962 H3943 0.951 . S
C3962 C3960 1.388 . S
C3962 C3963 1.366 . S
C3963 C3962 1.366 . S
C3963 C3964 1.414 . S
C3963 C3966 1.499 . S
C3964 H3944 0.950 . S
C3964 C3963 1.414 . S
C3964 C3965 1.374 . S
C3965 H3945 0.950 . S
C3965 C3961 1.385 . S
C3965 C3964 1.374 . S
C3966 C3963 1.499 . S
C3966 C3967 1.373 . S
C3966 C3968 1.389 . S
C3967 H3946 0.950 . S
C3967 C3966 1.373 . S
C3967 C3983 1.377 . S
C3968 C3966 1.389 . S
C3968 C3969 1.524 . S
C3968 C3982 1.377 . S
C3969 C3968 1.524 . S
C3969 C3970 1.397 . S
C3969 C3974 1.363 1_554 S
C3970 H3947 0.950 . S
C3970 C3969 1.397 . S
C3970 C3971 1.334 1_554 S
C3971 H3948 0.951 1_556 S
C3971 C3970 1.334 1_556 S
C3971 C3972 1.287 . S
C3972 C3971 1.287 . S
C3972 C3973 1.524 . S
C3972 H3991 0.913 . S
C3973 H3949 0.950 . S
C3973 C3972 1.524 . S
C3973 C3974 1.415 . S
C3974 H3950 0.950 . S
C3974 C3969 1.363 1_556 S
C3974 C3973 1.415 . S
C3975 H3951 0.951 . S
C3975 C3976 1.366 . S
C3975 C3977 1.388 . S
C3976 C3975 1.366 . S
C3976 C3980 1.385 . S
C3977 H3952 0.951 . S
C3977 C3975 1.388 . S
C3977 C3978 1.366 . S
C3978 C3977 1.366 . S
C3978 C3979 1.414 . S
C3978 C3981 1.499 . S
C3979 H3953 0.950 . S
C3979 C3978 1.414 . S
C3979 C3980 1.374 . S
C3980 H3954 0.950 . S
C3980 C3976 1.385 . S
C3980 C3979 1.374 . S
C3981 C3978 1.499 . S
C3981 C3982 1.373 . S
C3981 C3983 1.389 . S
C3982 H3955 0.950 . S
C3982 C3968 1.377 . S
C3982 C3981 1.373 . S
C3983 C3967 1.377 . S
C3983 C3981 1.389 . S
C3983 C3984 1.524 . S
C3984 C3983 1.524 . S
C3984 C3985 1.397 . S
C3984 C3989 1.363 . S
C3985 H3956 0.950 . S
C3985 C3984 1.397 . S
C3985 C3986 1.334 . S
C3986 H3957 0.950 . S
C3986 C3985 1.334 . S
C3986 C3987 1.287 . S
C3987 C3986 1.287 . S
C3987 C3988 1.524 . S
C3987 H3990 0.999 . S
C3988 H3958 0.950 . S
C3988 C3987 1.524 . S
C3988 C3989 1.415 . S
C3989 H3959 0.950 . S
C3989 C3984 1.363 . S
C3989 C3988 1.415 . S
H3990 C3987 0.999 . S
H3991 C3972 0.913 . S
H3992 C4010 0.951 . S
H3993 C4012 0.951 . S
H3994 C4014 0.950 . S
H3995 C4015 0.950 . S
H3996 C4017 0.950 . S
H3997 C4020 0.950 1_554 S
H3998 C4021 0.950 . S
H3999 C4023 0.950 . S
H4000 C4024 0.950 . S
H4001 C4025 0.951 . S
H4002 C4027 0.951 . S
H4003 C4029 0.950 . S
H4004 C4030 0.950 . S
H4005 C4032 0.950 . S
H4006 C4035 0.950 . S
H4007 C4036 0.950 . S
H4008 C4038 0.950 . S
H4009 C4039 0.950 . S
C4010 H3992 0.951 . S
C4010 C4011 1.366 . S
C4010 C4012 1.388 . S
C4011 C4010 1.366 . S
C4011 C4015 1.385 . S
C4012 H3993 0.951 . S
C4012 C4010 1.388 . S
C4012 C4013 1.366 . S
C4013 C4012 1.366 . S
C4013 C4014 1.414 . S
C4013 C4016 1.499 . S
C4014 H3994 0.950 . S
C4014 C4013 1.414 . S
C4014 C4015 1.374 . S
C4015 H3995 0.950 . S
C4015 C4011 1.385 . S
C4015 C4014 1.374 . S
C4016 C4013 1.499 . S
C4016 C4017 1.373 . S
C4016 C4018 1.389 . S
C4017 H3996 0.950 . S
C4017 C4016 1.373 . S
C4017 C4033 1.377 . S
C4018 C4016 1.389 . S
C4018 C4019 1.524 . S
C4018 C4032 1.377 . S
C4019 C4018 1.524 . S
C4019 C4020 1.397 1_554 S
C4019 C4024 1.363 1_554 S
C4020 H3997 0.950 1_556 S
C4020 C4019 1.397 1_556 S
C4020 C4021 1.334 . S
C4021 H3998 0.950 . S
C4021 C4020 1.334 . S
C4021 C4022 1.287 . S
C4022 C4021 1.287 . S
C4022 C4023 1.524 . S
C4022 H4041 0.913 . S
C4023 H3999 0.950 . S
C4023 C4022 1.524 . S
C4023 C4024 1.415 . S
C4024 H4000 0.950 . S
C4024 C4019 1.363 1_556 S
C4024 C4023 1.415 . S
C4025 H4001 0.951 . S
C4025 C4026 1.366 . S
C4025 C4027 1.388 . S
C4026 C4025 1.366 . S
C4026 C4030 1.385 . S
C4027 H4002 0.951 . S
C4027 C4025 1.388 . S
C4027 C4028 1.366 . S
C4028 C4027 1.366 . S
C4028 C4029 1.414 . S
C4028 C4031 1.499 . S
C4029 H4003 0.950 . S
C4029 C4028 1.414 . S
C4029 C4030 1.374 . S
C4030 H4004 0.950 . S
C4030 C4026 1.385 . S
C4030 C4029 1.374 . S
C4031 C4028 1.499 . S
C4031 C4032 1.373 . S
C4031 C4033 1.389 . S
C4032 H4005 0.950 . S
C4032 C4018 1.377 . S
C4032 C4031 1.373 . S
C4033 C4017 1.377 . S
C4033 C4031 1.389 . S
C4033 C4034 1.524 . S
C4034 C4033 1.524 . S
C4034 C4035 1.397 . S
C4034 C4039 1.363 . S
C4035 H4006 0.950 . S
C4035 C4034 1.397 . S
C4035 C4036 1.334 . S
C4036 H4007 0.950 . S
C4036 C4035 1.334 . S
C4036 C4037 1.287 . S
C4037 C4036 1.287 . S
C4037 C4038 1.524 . S
C4037 H4040 0.999 . S
C4038 H4008 0.950 . S
C4038 C4037 1.524 . S
C4038 C4039 1.415 . S
C4039 H4009 0.950 . S
C4039 C4034 1.363 . S
C4039 C4038 1.415 . S
H4040 C4037 0.999 . S
H4041 C4022 0.913 . S
H4042 C4060 0.951 . S
H4043 C4062 0.951 . S
H4044 C4064 0.950 . S
H4045 C4065 0.950 . S
H4046 C4067 0.950 . S
H4047 C4070 0.950 . S
H4048 C4071 0.950 . S
H4049 C4073 0.950 . S
H4050 C4074 0.950 . S
H4051 C4075 0.951 . S
H4052 C4077 0.951 . S
H4053 C4079 0.950 . S
H4054 C4080 0.950 . S
H4055 C4082 0.950 . S
H4056 C4085 0.948 . S
H4057 C4086 0.950 . S
H4058 C4088 0.950 . S
H4059 C4089 0.950 . S
C4060 H4042 0.951 . S
C4060 C4061 1.366 . S
C4060 C4062 1.388 . S
C4061 C4060 1.366 . S
C4061 C4065 1.385 . S
C4062 H4043 0.951 . S
C4062 C4060 1.388 . S
C4062 C4063 1.366 . S
C4063 C4062 1.366 . S
C4063 C4064 1.414 . S
C4063 C4066 1.499 . S
C4064 H4044 0.950 . S
C4064 C4063 1.414 . S
C4064 C4065 1.374 . S
C4065 H4045 0.950 . S
C4065 C4061 1.385 . S
C4065 C4064 1.374 . S
C4066 C4063 1.499 . S
C4066 C4067 1.373 . S
C4066 C4068 1.389 . S
C4067 H4046 0.950 . S
C4067 C4066 1.373 . S
C4067 C4083 1.377 . S
C4068 C4066 1.389 . S
C4068 C4069 1.524 . S
C4068 C4082 1.377 . S
C4069 C4068 1.524 . S
C4069 C4070 1.397 . S
C4069 C4074 1.363 . S
C4070 H4047 0.950 . S
C4070 C4069 1.397 . S
C4070 C4071 1.334 . S
C4071 H4048 0.950 . S
C4071 C4070 1.334 . S
C4071 C4072 1.287 . S
C4072 C4071 1.287 . S
C4072 C4073 1.524 . S
C4072 H4091 0.913 . S
C4073 H4049 0.950 . S
C4073 C4072 1.524 . S
C4073 C4074 1.415 . S
C4074 H4050 0.950 . S
C4074 C4069 1.363 . S
C4074 C4073 1.415 . S
C4075 H4051 0.951 . S
C4075 C4076 1.366 . S
C4075 C4077 1.388 . S
C4076 C4075 1.366 . S
C4076 C4080 1.385 . S
C4077 H4052 0.951 . S
C4077 C4075 1.388 . S
C4077 C4078 1.366 . S
C4078 C4077 1.366 . S
C4078 C4079 1.414 . S
C4078 C4081 1.499 . S
C4079 H4053 0.950 . S
C4079 C4078 1.414 . S
C4079 C4080 1.374 . S
C4080 H4054 0.950 . S
C4080 C4076 1.385 . S
C4080 C4079 1.374 . S
C4081 C4078 1.499 . S
C4081 C4082 1.373 . S
C4081 C4083 1.389 . S
C4082 H4055 0.950 . S
C4082 C4068 1.377 . S
C4082 C4081 1.373 . S
C4083 C4067 1.377 . S
C4083 C4081 1.389 . S
C4083 C4084 1.524 . S
C4084 C4083 1.524 . S
C4084 C4085 1.397 1_554 S
C4084 C4089 1.363 . S
C4085 H4056 0.948 . S
C4085 C4084 1.397 1_556 S
C4085 C4086 1.334 . S
C4086 H4057 0.950 . S
C4086 C4085 1.334 . S
C4086 C4087 1.287 . S
C4087 C4086 1.287 . S
C4087 C4088 1.524 . S
C4087 H4090 0.999 . S
C4088 H4058 0.950 . S
C4088 C4087 1.524 . S
C4088 C4089 1.415 1_556 S
C4089 H4059 0.950 . S
C4089 C4084 1.363 . S
C4089 C4088 1.415 1_554 S
H4090 C4087 0.999 . S
H4091 C4072 0.913 . S
H4092 C4110 0.951 . S
H4093 C4112 0.951 . S
H4094 C4114 0.950 . S
H4095 C4115 0.950 . S
H4096 C4117 0.950 . S
H4097 C4120 0.950 . S
H4098 C4121 0.950 . S
H4099 C4123 0.950 . S
H4100 C4124 0.950 . S
H4101 C4125 0.951 . S
H4102 C4127 0.951 . S
H4103 C4129 0.950 . S
H4104 C4130 0.950 . S
H4105 C4132 0.950 . S
H4106 C4135 0.950 . S
H4107 C4136 0.950 . S
H4108 C4138 0.950 . S
H4109 C4139 0.950 . S
C4110 H4092 0.951 . S
C4110 C4111 1.366 . S
C4110 C4112 1.388 . S
C4111 C4110 1.366 . S
C4111 C4115 1.385 . S
C4112 H4093 0.951 . S
C4112 C4110 1.388 . S
C4112 C4113 1.366 . S
C4113 C4112 1.366 . S
C4113 C4114 1.414 . S
C4113 C4116 1.499 . S
C4114 H4094 0.950 . S
C4114 C4113 1.414 . S
C4114 C4115 1.374 . S
C4115 H4095 0.950 . S
C4115 C4111 1.385 . S
C4115 C4114 1.374 . S
C4116 C4113 1.499 . S
C4116 C4117 1.373 . S
C4116 C4118 1.389 . S
C4117 H4096 0.950 . S
C4117 C4116 1.373 . S
C4117 C4133 1.377 . S
C4118 C4116 1.389 . S
C4118 C4119 1.524 . S
C4118 C4132 1.377 . S
C4119 C4118 1.524 . S
C4119 C4120 1.397 . S
C4119 C4124 1.363 . S
C4120 H4097 0.950 . S
C4120 C4119 1.397 . S
C4120 C4121 1.334 . S
C4121 H4098 0.950 . S
C4121 C4120 1.334 . S
C4121 C4122 1.287 . S
C4122 C4121 1.287 . S
C4122 C4123 1.524 . S
C4122 H4141 0.913 . S
C4123 H4099 0.950 . S
C4123 C4122 1.524 . S
C4123 C4124 1.415 . S
C4124 H4100 0.950 . S
C4124 C4119 1.363 . S
C4124 C4123 1.415 . S
C4125 H4101 0.951 . S
C4125 C4126 1.366 . S
C4125 C4127 1.388 . S
C4126 C4125 1.366 . S
C4126 C4130 1.385 . S
C4127 H4102 0.951 . S
C4127 C4125 1.388 . S
C4127 C4128 1.366 . S
C4128 C4127 1.366 . S
C4128 C4129 1.414 . S
C4128 C4131 1.499 . S
C4129 H4103 0.950 . S
C4129 C4128 1.414 . S
C4129 C4130 1.374 . S
C4130 H4104 0.950 . S
C4130 C4126 1.385 . S
C4130 C4129 1.374 . S
C4131 C4128 1.499 . S
C4131 C4132 1.373 . S
C4131 C4133 1.389 . S
C4132 H4105 0.950 . S
C4132 C4118 1.377 . S
C4132 C4131 1.373 . S
C4133 C4117 1.377 . S
C4133 C4131 1.389 . S
C4133 C4134 1.524 . S
C4134 C4133 1.524 . S
C4134 C4135 1.397 . S
C4134 C4139 1.363 . S
C4135 H4106 0.950 . S
C4135 C4134 1.397 . S
C4135 C4136 1.334 . S
C4136 H4107 0.950 . S
C4136 C4135 1.334 . S
C4136 C4137 1.287 . S
C4137 C4136 1.287 . S
C4137 C4138 1.524 . S
C4137 H4140 0.999 . S
C4138 H4108 0.950 . S
C4138 C4137 1.524 . S
C4138 C4139 1.415 . S
C4139 H4109 0.950 . S
C4139 C4134 1.363 . S
C4139 C4138 1.415 . S
H4140 C4137 0.999 . S
H4141 C4122 0.913 . S
H4142 C4160 0.951 . S
H4143 C4162 0.951 . S
H4144 C4164 0.950 . S
H4145 C4165 0.950 . S
H4146 C4167 0.950 . S
H4147 C4170 0.950 . S
H4148 C4171 0.950 . S
H4149 C4173 0.950 . S
H4150 C4174 0.950 . S
H4151 C4175 0.951 . S
H4152 C4177 0.951 . S
H4153 C4179 0.950 . S
H4154 C4180 0.950 . S
H4155 C4182 0.950 . S
H4156 C4185 0.950 . S
H4157 C4186 0.950 . S
H4158 C4188 0.950 . S
H4159 C4189 0.950 . S
C4160 H4142 0.951 . S
C4160 C4161 1.366 . S
C4160 C4162 1.388 . S
C4161 C4160 1.366 . S
C4161 C4165 1.385 . S
C4162 H4143 0.951 . S
C4162 C4160 1.388 . S
C4162 C4163 1.366 . S
C4163 C4162 1.366 . S
C4163 C4164 1.414 . S
C4163 C4166 1.499 . S
C4164 H4144 0.950 . S
C4164 C4163 1.414 . S
C4164 C4165 1.374 . S
C4165 H4145 0.950 . S
C4165 C4161 1.385 . S
C4165 C4164 1.374 . S
C4166 C4163 1.499 . S
C4166 C4167 1.373 . S
C4166 C4168 1.389 . S
C4167 H4146 0.950 . S
C4167 C4166 1.373 . S
C4167 C4183 1.377 . S
C4168 C4166 1.389 . S
C4168 C4169 1.524 . S
C4168 C4182 1.377 . S
C4169 C4168 1.524 . S
C4169 C4170 1.397 . S
C4169 C4174 1.363 . S
C4170 H4147 0.950 . S
C4170 C4169 1.397 . S
C4170 C4171 1.334 . S
C4171 H4148 0.950 . S
C4171 C4170 1.334 . S
C4171 C4172 1.287 . S
C4172 C4171 1.287 . S
C4172 C4173 1.524 . S
C4172 H4191 0.913 . S
C4173 H4149 0.950 . S
C4173 C4172 1.524 . S
C4173 C4174 1.415 . S
C4174 H4150 0.950 . S
C4174 C4169 1.363 . S
C4174 C4173 1.415 . S
C4175 H4151 0.951 . S
C4175 C4176 1.366 . S
C4175 C4177 1.388 . S
C4176 C4175 1.366 . S
C4176 C4180 1.385 . S
C4177 H4152 0.951 . S
C4177 C4175 1.388 . S
C4177 C4178 1.366 . S
C4178 C4177 1.366 . S
C4178 C4179 1.414 . S
C4178 C4181 1.499 . S
C4179 H4153 0.950 . S
C4179 C4178 1.414 . S
C4179 C4180 1.374 . S
C4180 H4154 0.950 . S
C4180 C4176 1.385 . S
C4180 C4179 1.374 . S
C4181 C4178 1.499 . S
C4181 C4182 1.373 . S
C4181 C4183 1.389 . S
C4182 H4155 0.950 . S
C4182 C4168 1.377 . S
C4182 C4181 1.373 . S
C4183 C4167 1.377 . S
C4183 C4181 1.389 . S
C4183 C4184 1.524 . S
C4184 C4183 1.524 . S
C4184 C4185 1.397 . S
C4184 C4189 1.363 . S
C4185 H4156 0.950 . S
C4185 C4184 1.397 . S
C4185 C4186 1.334 . S
C4186 H4157 0.950 . S
C4186 C4185 1.334 . S
C4186 C4187 1.287 . S
C4187 C4186 1.287 . S
C4187 C4188 1.524 . S
C4187 H4190 0.999 . S
C4188 H4158 0.950 . S
C4188 C4187 1.524 . S
C4188 C4189 1.415 . S
C4189 H4159 0.950 . S
C4189 C4184 1.363 . S
C4189 C4188 1.415 . S
H4190 C4187 0.999 . S
H4191 C4172 0.913 . S
H4192 C4210 0.951 . S
H4193 C4212 0.951 . S
H4194 C4214 0.950 . S
H4195 C4215 0.950 . S
H4196 C4217 0.950 . S
H4197 C4220 0.950 . S
H4198 C4221 0.950 . S
H4199 C4223 0.950 . S
H4200 C4224 0.950 . S
H4201 C4225 0.951 . S
H4202 C4227 0.951 . S
H4203 C4229 0.950 . S
H4204 C4230 0.950 . S
H4205 C4232 0.950 . S
H4206 C4235 0.950 . S
H4207 C4236 0.950 . S
H4208 C4238 0.950 . S
H4209 C4239 0.950 . S
C4210 H4192 0.951 . S
C4210 C4211 1.366 . S
C4210 C4212 1.388 . S
C4211 C4210 1.366 . S
C4211 C4215 1.385 . S
C4212 H4193 0.951 . S
C4212 C4210 1.388 . S
C4212 C4213 1.366 . S
C4213 C4212 1.366 . S
C4213 C4214 1.414 . S
C4213 C4216 1.499 . S
C4214 H4194 0.950 . S
C4214 C4213 1.414 . S
C4214 C4215 1.374 . S
C4215 H4195 0.950 . S
C4215 C4211 1.385 . S
C4215 C4214 1.374 . S
C4216 C4213 1.499 . S
C4216 C4217 1.373 . S
C4216 C4218 1.389 . S
C4217 H4196 0.950 . S
C4217 C4216 1.373 . S
C4217 C4233 1.377 . S
C4218 C4216 1.389 . S
C4218 C4219 1.524 . S
C4218 C4232 1.377 . S
C4219 C4218 1.524 . S
C4219 C4220 1.397 . S
C4219 C4224 1.363 . S
C4220 H4197 0.950 . S
C4220 C4219 1.397 . S
C4220 C4221 1.334 . S
C4221 H4198 0.950 . S
C4221 C4220 1.334 . S
C4221 C4222 1.287 . S
C4222 C4221 1.287 . S
C4222 C4223 1.524 . S
C4222 H4241 0.913 . S
C4223 H4199 0.950 . S
C4223 C4222 1.524 . S
C4223 C4224 1.415 . S
C4224 H4200 0.950 . S
C4224 C4219 1.363 . S
C4224 C4223 1.415 . S
C4225 H4201 0.951 . S
C4225 C4226 1.366 . S
C4225 C4227 1.388 . S
C4226 C4225 1.366 . S
C4226 C4230 1.385 . S
C4227 H4202 0.951 . S
C4227 C4225 1.388 . S
C4227 C4228 1.366 . S
C4228 C4227 1.366 . S
C4228 C4229 1.414 . S
C4228 C4231 1.499 . S
C4229 H4203 0.950 . S
C4229 C4228 1.414 . S
C4229 C4230 1.374 . S
C4230 H4204 0.950 . S
C4230 C4226 1.385 . S
C4230 C4229 1.374 . S
C4231 C4228 1.499 . S
C4231 C4232 1.373 . S
C4231 C4233 1.389 . S
C4232 H4205 0.950 . S
C4232 C4218 1.377 . S
C4232 C4231 1.373 . S
C4233 C4217 1.377 . S
C4233 C4231 1.389 . S
C4233 C4234 1.524 . S
C4234 C4233 1.524 . S
C4234 C4235 1.397 . S
C4234 C4239 1.363 . S
C4235 H4206 0.950 . S
C4235 C4234 1.397 . S
C4235 C4236 1.334 . S
C4236 H4207 0.950 . S
C4236 C4235 1.334 . S
C4236 C4237 1.287 . S
C4237 C4236 1.287 . S
C4237 C4238 1.524 . S
C4237 H4240 0.999 . S
C4238 H4208 0.950 . S
C4238 C4237 1.524 . S
C4238 C4239 1.415 . S
C4239 H4209 0.950 . S
C4239 C4234 1.363 . S
C4239 C4238 1.415 . S
H4240 C4237 0.999 . S
H4241 C4222 0.913 . S
H4242 C4260 0.951 . S
H4243 C4262 0.951 . S
H4244 C4264 0.950 . S
H4245 C4265 0.950 . S
H4246 C4267 0.950 . S
H4247 C4270 0.950 . S
H4248 C4271 0.950 . S
H4249 C4273 0.950 . S
H4250 C4274 0.950 . S
H4251 C4275 0.951 . S
H4252 C4277 0.951 . S
H4253 C4279 0.950 . S
H4254 C4280 0.950 . S
H4255 C4282 0.950 . S
H4256 C4285 0.950 . S
H4257 C4286 0.950 . S
H4258 C4288 0.950 . S
H4259 C4289 0.950 . S
C4260 H4242 0.951 . S
C4260 C4261 1.366 . S
C4260 C4262 1.388 . S
C4261 C4260 1.366 . S
C4261 C4265 1.385 . S
C4262 H4243 0.951 . S
C4262 C4260 1.388 . S
C4262 C4263 1.366 . S
C4263 C4262 1.366 . S
C4263 C4264 1.414 . S
C4263 C4266 1.499 . S
C4264 H4244 0.950 . S
C4264 C4263 1.414 . S
C4264 C4265 1.374 . S
C4265 H4245 0.950 . S
C4265 C4261 1.385 . S
C4265 C4264 1.374 . S
C4266 C4263 1.499 . S
C4266 C4267 1.373 . S
C4266 C4268 1.389 . S
C4267 H4246 0.950 . S
C4267 C4266 1.373 . S
C4267 C4283 1.377 . S
C4268 C4266 1.389 . S
C4268 C4269 1.524 . S
C4268 C4282 1.377 . S
C4269 C4268 1.524 . S
C4269 C4270 1.397 . S
C4269 C4274 1.363 . S
C4270 H4247 0.950 . S
C4270 C4269 1.397 . S
C4270 C4271 1.334 . S
C4271 H4248 0.950 . S
C4271 C4270 1.334 . S
C4271 C4272 1.287 . S
C4272 C4271 1.287 . S
C4272 C4273 1.524 . S
C4272 H4291 0.913 . S
C4273 H4249 0.950 . S
C4273 C4272 1.524 . S
C4273 C4274 1.415 . S
C4274 H4250 0.950 . S
C4274 C4269 1.363 . S
C4274 C4273 1.415 . S
C4275 H4251 0.951 . S
C4275 C4276 1.366 . S
C4275 C4277 1.388 . S
C4276 C4275 1.366 . S
C4276 C4280 1.385 . S
C4277 H4252 0.951 . S
C4277 C4275 1.388 . S
C4277 C4278 1.366 . S
C4278 C4277 1.366 . S
C4278 C4279 1.414 . S
C4278 C4281 1.499 . S
C4279 H4253 0.950 . S
C4279 C4278 1.414 . S
C4279 C4280 1.374 . S
C4280 H4254 0.950 . S
C4280 C4276 1.385 . S
C4280 C4279 1.374 . S
C4281 C4278 1.499 . S
C4281 C4282 1.373 . S
C4281 C4283 1.389 . S
C4282 H4255 0.950 . S
C4282 C4268 1.377 . S
C4282 C4281 1.373 . S
C4283 C4267 1.377 . S
C4283 C4281 1.389 . S
C4283 C4284 1.524 . S
C4284 C4283 1.524 . S
C4284 C4285 1.397 . S
C4284 C4289 1.363 . S
C4285 H4256 0.950 . S
C4285 C4284 1.397 . S
C4285 C4286 1.334 . S
C4286 H4257 0.950 . S
C4286 C4285 1.334 . S
C4286 C4287 1.287 . S
C4287 C4286 1.287 . S
C4287 C4288 1.524 . S
C4287 H4290 0.999 . S
C4288 H4258 0.950 . S
C4288 C4287 1.524 . S
C4288 C4289 1.415 . S
C4289 H4259 0.950 . S
C4289 C4284 1.363 . S
C4289 C4288 1.415 . S
H4290 C4287 0.999 . S
H4291 C4272 0.913 . S
H4292 C4310 0.951 . S
H4293 C4312 0.951 . S
H4294 C4314 0.950 . S
H4295 C4315 0.950 . S
H4296 C4317 0.950 . S
H4297 C4320 0.950 . S
H4298 C4321 0.950 . S
H4299 C4323 0.950 . S
H4300 C4324 0.950 . S
H4301 C4325 0.951 . S
H4302 C4327 0.951 . S
H4303 C4329 0.950 . S
H4304 C4330 0.950 . S
H4305 C4332 0.950 . S
H4306 C4335 0.950 . S
H4307 C4336 0.950 . S
H4308 C4338 0.950 . S
H4309 C4339 0.950 . S
C4310 H4292 0.951 . S
C4310 C4311 1.366 . S
C4310 C4312 1.388 . S
C4311 C4310 1.366 . S
C4311 C4315 1.385 . S
C4312 H4293 0.951 . S
C4312 C4310 1.388 . S
C4312 C4313 1.366 . S
C4313 C4312 1.366 . S
C4313 C4314 1.414 . S
C4313 C4316 1.499 . S
C4314 H4294 0.950 . S
C4314 C4313 1.414 . S
C4314 C4315 1.374 . S
C4315 H4295 0.950 . S
C4315 C4311 1.385 . S
C4315 C4314 1.374 . S
C4316 C4313 1.499 . S
C4316 C4317 1.373 . S
C4316 C4318 1.389 . S
C4317 H4296 0.950 . S
C4317 C4316 1.373 . S
C4317 C4333 1.377 . S
C4318 C4316 1.389 . S
C4318 C4319 1.524 . S
C4318 C4332 1.377 . S
C4319 C4318 1.524 . S
C4319 C4320 1.397 . S
C4319 C4324 1.363 . S
C4320 H4297 0.950 . S
C4320 C4319 1.397 . S
C4320 C4321 1.334 . S
C4321 H4298 0.950 . S
C4321 C4320 1.334 . S
C4321 C4322 1.287 . S
C4322 C4321 1.287 . S
C4322 C4323 1.524 . S
C4322 H4341 0.913 . S
C4323 H4299 0.950 . S
C4323 C4322 1.524 . S
C4323 C4324 1.415 . S
C4324 H4300 0.950 . S
C4324 C4319 1.363 . S
C4324 C4323 1.415 . S
C4325 H4301 0.951 . S
C4325 C4326 1.366 . S
C4325 C4327 1.388 . S
C4326 C4325 1.366 . S
C4326 C4330 1.385 . S
C4327 H4302 0.951 . S
C4327 C4325 1.388 . S
C4327 C4328 1.366 . S
C4328 C4327 1.366 . S
C4328 C4329 1.414 . S
C4328 C4331 1.499 . S
C4329 H4303 0.950 . S
C4329 C4328 1.414 . S
C4329 C4330 1.374 . S
C4330 H4304 0.950 . S
C4330 C4326 1.385 . S
C4330 C4329 1.374 . S
C4331 C4328 1.499 . S
C4331 C4332 1.373 . S
C4331 C4333 1.389 . S
C4332 H4305 0.950 . S
C4332 C4318 1.377 . S
C4332 C4331 1.373 . S
C4333 C4317 1.377 . S
C4333 C4331 1.389 . S
C4333 C4334 1.524 . S
C4334 C4333 1.524 . S
C4334 C4335 1.397 . S
C4334 C4339 1.363 . S
C4335 H4306 0.950 . S
C4335 C4334 1.397 . S
C4335 C4336 1.334 . S
C4336 H4307 0.950 . S
C4336 C4335 1.334 . S
C4336 C4337 1.287 . S
C4337 C4336 1.287 . S
C4337 C4338 1.524 . S
C4337 H4340 0.999 . S
C4338 H4308 0.950 . S
C4338 C4337 1.524 . S
C4338 C4339 1.415 . S
C4339 H4309 0.950 . S
C4339 C4334 1.363 . S
C4339 C4338 1.415 . S
H4340 C4337 0.999 . S
H4341 C4322 0.913 . S
H4342 C4360 0.951 . S
H4343 C4362 0.951 . S
H4344 C4364 0.950 . S
H4345 C4365 0.950 . S
H4346 C4367 0.950 . S
H4347 C4370 0.950 . S
H4348 C4371 0.950 . S
H4349 C4373 0.950 . S
H4350 C4374 0.950 . S
H4351 C4375 0.951 . S
H4352 C4377 0.951 . S
H4353 C4379 0.950 . S
H4354 C4380 0.950 . S
H4355 C4382 0.950 . S
H4356 C4385 0.950 . S
H4357 C4386 0.950 . S
H4358 C4388 0.950 . S
H4359 C4389 0.950 . S
C4360 H4342 0.951 . S
C4360 C4361 1.366 . S
C4360 C4362 1.388 . S
C4361 C4360 1.366 . S
C4361 C4365 1.385 . S
C4362 H4343 0.951 . S
C4362 C4360 1.388 . S
C4362 C4363 1.366 . S
C4363 C4362 1.366 . S
C4363 C4364 1.414 . S
C4363 C4366 1.499 . S
C4364 H4344 0.950 . S
C4364 C4363 1.414 . S
C4364 C4365 1.374 . S
C4365 H4345 0.950 . S
C4365 C4361 1.385 . S
C4365 C4364 1.374 . S
C4366 C4363 1.499 . S
C4366 C4367 1.373 . S
C4366 C4368 1.389 . S
C4367 H4346 0.950 . S
C4367 C4366 1.373 . S
C4367 C4383 1.377 . S
C4368 C4366 1.389 . S
C4368 C4369 1.524 . S
C4368 C4382 1.377 . S
C4369 C4368 1.524 . S
C4369 C4370 1.397 . S
C4369 C4374 1.363 . S
C4370 H4347 0.950 . S
C4370 C4369 1.397 . S
C4370 C4371 1.334 . S
C4371 H4348 0.950 . S
C4371 C4370 1.334 . S
C4371 C4372 1.287 . S
C4372 C4371 1.287 . S
C4372 C4373 1.524 . S
C4372 H4391 0.913 . S
C4373 H4349 0.950 . S
C4373 C4372 1.524 . S
C4373 C4374 1.415 . S
C4374 H4350 0.950 . S
C4374 C4369 1.363 . S
C4374 C4373 1.415 . S
C4375 H4351 0.951 . S
C4375 C4376 1.366 . S
C4375 C4377 1.388 . S
C4376 C4375 1.366 . S
C4376 C4380 1.385 . S
C4377 H4352 0.951 . S
C4377 C4375 1.388 . S
C4377 C4378 1.366 . S
C4378 C4377 1.366 . S
C4378 C4379 1.414 . S
C4378 C4381 1.499 . S
C4379 H4353 0.950 . S
C4379 C4378 1.414 . S
C4379 C4380 1.374 . S
C4380 H4354 0.950 . S
C4380 C4376 1.385 . S
C4380 C4379 1.374 . S
C4381 C4378 1.499 . S
C4381 C4382 1.373 . S
C4381 C4383 1.389 . S
C4382 H4355 0.950 . S
C4382 C4368 1.377 . S
C4382 C4381 1.373 . S
C4383 C4367 1.377 . S
C4383 C4381 1.389 . S
C4383 C4384 1.524 . S
C4384 C4383 1.524 . S
C4384 C4385 1.397 . S
C4384 C4389 1.363 . S
C4385 H4356 0.950 . S
C4385 C4384 1.397 . S
C4385 C4386 1.334 . S
C4386 H4357 0.950 . S
C4386 C4385 1.334 . S
C4386 C4387 1.287 . S
C4387 C4386 1.287 . S
C4387 C4388 1.524 . S
C4387 H4390 0.999 . S
C4388 H4358 0.950 . S
C4388 C4387 1.524 . S
C4388 C4389 1.415 . S
C4389 H4359 0.950 . S
C4389 C4384 1.363 . S
C4389 C4388 1.415 . S
H4390 C4387 0.999 . S
H4391 C4372 0.913 . S
H4392 C4410 0.951 . S
H4393 C4412 0.951 . S
H4394 C4414 0.950 . S
H4395 C4415 0.950 1_455 S
H4396 C4417 0.950 . S
H4397 C4420 0.950 . S
H4398 C4421 0.950 . S
H4399 C4423 0.950 . S
H4400 C4424 0.950 . S
H4401 C4425 0.951 . S
H4402 C4427 0.951 . S
H4403 C4429 0.950 . S
H4404 C4430 0.950 1_655 S
H4405 C4432 0.950 . S
H4406 C4435 0.950 . S
H4407 C4436 0.950 . S
H4408 C4438 0.950 . S
H4409 C4439 0.950 . S
C4410 H4392 0.951 . S
C4410 C4411 1.366 . S
C4410 C4412 1.388 . S
C4411 C4410 1.366 . S
C4411 C4415 1.385 . S
C4412 H4393 0.951 . S
C4412 C4410 1.388 . S
C4412 C4413 1.366 . S
C4413 C4412 1.366 . S
C4413 C4414 1.414 1_655 S
C4413 C4416 1.499 . S
C4414 H4394 0.950 . S
C4414 C4413 1.414 1_455 S
C4414 C4415 1.374 1_455 S
C4415 H4395 0.950 1_655 S
C4415 C4411 1.385 . S
C4415 C4414 1.374 1_655 S
C4416 C4413 1.499 . S
C4416 C4417 1.373 1_655 S
C4416 C4418 1.389 . S
C4417 H4396 0.950 . S
C4417 C4416 1.373 1_455 S
C4417 C4433 1.377 . S
C4418 C4416 1.389 . S
C4418 C4419 1.524 . S
C4418 C4432 1.377 . S
C4419 C4418 1.524 . S
C4419 C4420 1.397 . S
C4419 C4424 1.363 . S
C4420 H4397 0.950 . S
C4420 C4419 1.397 . S
C4420 C4421 1.334 . S
C4421 H4398 0.950 . S
C4421 C4420 1.334 . S
C4421 C4422 1.287 . S
C4422 C4421 1.287 . S
C4422 C4423 1.524 . S
C4422 H4441 0.913 . S
C4423 H4399 0.950 . S
C4423 C4422 1.524 . S
C4423 C4424 1.415 . S
C4424 H4400 0.950 . S
C4424 C4419 1.363 . S
C4424 C4423 1.415 . S
C4425 H4401 0.951 . S
C4425 C4426 1.366 . S
C4425 C4427 1.388 . S
C4426 C4425 1.366 . S
C4426 C4430 1.385 . S
C4427 H4402 0.951 . S
C4427 C4425 1.388 . S
C4427 C4428 1.366 . S
C4428 C4427 1.366 . S
C4428 C4429 1.414 1_455 S
C4428 C4431 1.499 . S
C4429 H4403 0.950 . S
C4429 C4428 1.414 1_655 S
C4429 C4430 1.374 1_655 S
C4430 H4404 0.950 1_455 S
C4430 C4426 1.385 . S
C4430 C4429 1.374 1_455 S
C4431 C4428 1.499 . S
C4431 C4432 1.373 1_455 S
C4431 C4433 1.389 . S
C4432 H4405 0.950 . S
C4432 C4418 1.377 . S
C4432 C4431 1.373 1_655 S
C4433 C4417 1.377 . S
C4433 C4431 1.389 . S
C4433 C4434 1.524 . S
C4434 C4433 1.524 . S
C4434 C4435 1.397 . S
C4434 C4439 1.363 . S
C4435 H4406 0.950 . S
C4435 C4434 1.397 . S
C4435 C4436 1.334 . S
C4436 H4407 0.950 . S
C4436 C4435 1.334 . S
C4436 C4437 1.287 . S
C4437 C4436 1.287 . S
C4437 C4438 1.524 . S
C4437 H4440 0.999 . S
C4438 H4408 0.950 . S
C4438 C4437 1.524 . S
C4438 C4439 1.415 . S
C4439 H4409 0.950 . S
C4439 C4434 1.363 . S
C4439 C4438 1.415 . S
H4440 C4437 0.999 . S
H4441 C4422 0.913 . S
H4442 C4460 0.951 . S
H4443 C4462 0.951 . S
H4444 C4464 0.950 . S
H4445 C4465 0.950 . S
H4446 C4467 0.950 . S
H4447 C4470 0.950 . S
H4448 C4471 0.950 . S
H4449 C4473 0.950 . S
H4450 C4474 0.950 . S
H4451 C4475 0.951 . S
H4452 C4477 0.951 . S
H4453 C4479 0.950 . S
H4454 C4480 0.950 . S
H4455 C4482 0.950 . S
H4456 C4485 0.950 . S
H4457 C4486 0.950 . S
H4458 C4488 0.950 . S
H4459 C4489 0.950 . S
C4460 H4442 0.951 . S
C4460 C4461 1.366 . S
C4460 C4462 1.388 . S
C4461 C4460 1.366 . S
C4461 C4465 1.385 . S
C4462 H4443 0.951 . S
C4462 C4460 1.388 . S
C4462 C4463 1.366 . S
C4463 C4462 1.366 . S
C4463 C4464 1.414 . S
C4463 C4466 1.499 . S
C4464 H4444 0.950 . S
C4464 C4463 1.414 . S
C4464 C4465 1.374 . S
C4465 H4445 0.950 . S
C4465 C4461 1.385 . S
C4465 C4464 1.374 . S
C4466 C4463 1.499 . S
C4466 C4467 1.373 . S
C4466 C4468 1.389 . S
C4467 H4446 0.950 . S
C4467 C4466 1.373 . S
C4467 C4483 1.377 . S
C4468 C4466 1.389 . S
C4468 C4469 1.524 . S
C4468 C4482 1.377 . S
C4469 C4468 1.524 . S
C4469 C4470 1.397 . S
C4469 C4474 1.363 . S
C4470 H4447 0.950 . S
C4470 C4469 1.397 . S
C4470 C4471 1.334 . S
C4471 H4448 0.950 . S
C4471 C4470 1.334 . S
C4471 C4472 1.287 . S
C4472 C4471 1.287 . S
C4472 C4473 1.524 . S
C4472 H4491 0.913 . S
C4473 H4449 0.950 . S
C4473 C4472 1.524 . S
C4473 C4474 1.415 . S
C4474 H4450 0.950 . S
C4474 C4469 1.363 . S
C4474 C4473 1.415 . S
C4475 H4451 0.951 . S
C4475 C4476 1.366 . S
C4475 C4477 1.388 . S
C4476 C4475 1.366 . S
C4476 C4480 1.385 . S
C4477 H4452 0.951 . S
C4477 C4475 1.388 . S
C4477 C4478 1.366 . S
C4478 C4477 1.366 . S
C4478 C4479 1.414 . S
C4478 C4481 1.499 . S
C4479 H4453 0.950 . S
C4479 C4478 1.414 . S
C4479 C4480 1.374 . S
C4480 H4454 0.950 . S
C4480 C4476 1.385 . S
C4480 C4479 1.374 . S
C4481 C4478 1.499 . S
C4481 C4482 1.373 . S
C4481 C4483 1.389 . S
C4482 H4455 0.950 . S
C4482 C4468 1.377 . S
C4482 C4481 1.373 . S
C4483 C4467 1.377 . S
C4483 C4481 1.389 . S
C4483 C4484 1.524 . S
C4484 C4483 1.524 . S
C4484 C4485 1.397 . S
C4484 C4489 1.363 . S
C4485 H4456 0.950 . S
C4485 C4484 1.397 . S
C4485 C4486 1.334 . S
C4486 H4457 0.950 . S
C4486 C4485 1.334 . S
C4486 C4487 1.287 . S
C4487 C4486 1.287 . S
C4487 C4488 1.524 . S
C4487 H4490 0.999 . S
C4488 H4458 0.950 . S
C4488 C4487 1.524 . S
C4488 C4489 1.415 . S
C4489 H4459 0.950 . S
C4489 C4484 1.363 . S
C4489 C4488 1.415 . S
H4490 C4487 0.999 . S
H4491 C4472 0.913 . S
H4492 C4510 0.951 . S
H4493 C4512 0.951 . S
H4494 C4514 0.950 . S
H4495 C4515 0.950 1_565 S
H4496 C4517 0.950 . S
H4497 C4520 0.950 . S
H4498 C4521 0.950 . S
H4499 C4523 0.950 . S
H4500 C4524 0.950 . S
H4501 C4525 0.951 . S
H4502 C4527 0.951 . S
H4503 C4529 0.950 . S
H4504 C4530 0.950 1_545 S
H4505 C4532 0.950 . S
H4506 C4535 0.950 . S
H4507 C4536 0.950 . S
H4508 C4538 0.950 . S
H4509 C4539 0.950 . S
C4510 H4492 0.951 . S
C4510 C4511 1.366 . S
C4510 C4512 1.388 . S
C4511 C4510 1.366 . S
C4511 C4515 1.385 . S
C4512 H4493 0.951 . S
C4512 C4510 1.388 . S
C4512 C4513 1.366 . S
C4513 C4512 1.366 . S
C4513 C4514 1.414 1_545 S
C4513 C4516 1.499 . S
C4514 H4494 0.950 . S
C4514 C4513 1.414 1_565 S
C4514 C4515 1.374 1_565 S
C4515 H4495 0.950 1_545 S
C4515 C4511 1.385 . S
C4515 C4514 1.374 1_545 S
C4516 C4513 1.499 . S
C4516 C4517 1.373 1_545 S
C4516 C4518 1.389 . S
C4517 H4496 0.950 . S
C4517 C4516 1.373 1_565 S
C4517 C4533 1.377 . S
C4518 C4516 1.389 . S
C4518 C4519 1.524 . S
C4518 C4532 1.377 . S
C4519 C4518 1.524 . S
C4519 C4520 1.397 . S
C4519 C4524 1.363 . S
C4520 H4497 0.950 . S
C4520 C4519 1.397 . S
C4520 C4521 1.334 . S
C4521 H4498 0.950 . S
C4521 C4520 1.334 . S
C4521 C4522 1.287 . S
C4522 C4521 1.287 . S
C4522 C4523 1.524 . S
C4522 H4541 0.913 . S
C4523 H4499 0.950 . S
C4523 C4522 1.524 . S
C4523 C4524 1.415 . S
C4524 H4500 0.950 . S
C4524 C4519 1.363 . S
C4524 C4523 1.415 . S
C4525 H4501 0.951 . S
C4525 C4526 1.366 . S
C4525 C4527 1.388 . S
C4526 C4525 1.366 . S
C4526 C4530 1.385 . S
C4527 H4502 0.951 . S
C4527 C4525 1.388 . S
C4527 C4528 1.366 . S
C4528 C4527 1.366 . S
C4528 C4529 1.414 1_565 S
C4528 C4531 1.499 . S
C4529 H4503 0.950 . S
C4529 C4528 1.414 1_545 S
C4529 C4530 1.374 1_545 S
C4530 H4504 0.950 1_565 S
C4530 C4526 1.385 . S
C4530 C4529 1.374 1_565 S
C4531 C4528 1.499 . S
C4531 C4532 1.373 1_565 S
C4531 C4533 1.389 . S
C4532 H4505 0.950 . S
C4532 C4518 1.377 . S
C4532 C4531 1.373 1_545 S
C4533 C4517 1.377 . S
C4533 C4531 1.389 . S
C4533 C4534 1.524 . S
C4534 C4533 1.524 . S
C4534 C4535 1.397 . S
C4534 C4539 1.363 . S
C4535 H4506 0.950 . S
C4535 C4534 1.397 . S
C4535 C4536 1.334 . S
C4536 H4507 0.950 . S
C4536 C4535 1.334 . S
C4536 C4537 1.287 . S
C4537 C4536 1.287 . S
C4537 C4538 1.524 . S
C4537 H4540 0.999 . S
C4538 H4508 0.950 . S
C4538 C4537 1.524 . S
C4538 C4539 1.415 . S
C4539 H4509 0.950 . S
C4539 C4534 1.363 . S
C4539 C4538 1.415 . S
H4540 C4537 0.999 . S
H4541 C4522 0.913 . S
H4542 C4560 0.951 . S
H4543 C4562 0.951 . S
H4544 C4564 0.950 1_655 S
H4545 C4565 0.950 . S
H4546 C4567 0.950 . S
H4547 C4570 0.950 . S
H4548 C4571 0.950 . S
H4549 C4573 0.950 . S
H4550 C4574 0.950 . S
H4551 C4575 0.951 . S
H4552 C4577 0.951 . S
H4553 C4579 0.950 1_455 S
H4554 C4580 0.950 . S
H4555 C4582 0.950 . S
H4556 C4585 0.950 . S
H4557 C4586 0.950 . S
H4558 C4588 0.950 . S
H4559 C4589 0.950 . S
C4560 H4542 0.951 . S
C4560 C4561 1.366 . S
C4560 C4562 1.388 . S
C4561 C4560 1.366 . S
C4561 C4565 1.385 . S
C4562 H4543 0.951 . S
C4562 C4560 1.388 . S
C4562 C4563 1.366 . S
C4563 C4562 1.366 . S
C4563 C4564 1.414 . S
C4563 C4566 1.499 . S
C4564 H4544 0.950 1_455 S
C4564 C4563 1.414 . S
C4564 C4565 1.374 . S
C4565 H4545 0.950 . S
C4565 C4561 1.385 . S
C4565 C4564 1.374 . S
C4566 C4563 1.499 . S
C4566 C4567 1.373 . S
C4566 C4568 1.378 . S
C4567 H4546 0.950 . S
C4567 C4566 1.373 . S
C4567 C4583 1.369 1_455 S
C4568 C4566 1.378 . S
C4568 C4569 1.555 1_455 S
C4568 C4582 1.369 1_455 S
C4569 C4568 1.555 1_655 S
C4569 C4570 1.410 . S
C4569 C4574 1.341 1_655 S
C4570 H4547 0.950 . S
C4570 C4569 1.410 . S
C4570 C4571 1.334 . S
C4571 H4548 0.950 . S
C4571 C4570 1.334 . S
C4571 C4572 1.287 . S
C4572 C4571 1.287 . S
C4572 C4573 1.524 1_655 S
C4572 H4591 0.913 . S
C4573 H4549 0.950 . S
C4573 C4572 1.524 1_455 S
C4573 C4574 1.415 . S
C4574 H4550 0.950 . S
C4574 C4569 1.341 1_455 S
C4574 C4573 1.415 . S
C4575 H4551 0.951 . S
C4575 C4576 1.366 . S
C4575 C4577 1.388 . S
C4576 C4575 1.366 . S
C4576 C4580 1.385 . S
C4577 H4552 0.951 . S
C4577 C4575 1.388 . S
C4577 C4578 1.366 . S
C4578 C4577 1.366 . S
C4578 C4579 1.414 . S
C4578 C4581 1.499 . S
C4579 H4553 0.950 1_655 S
C4579 C4578 1.414 . S
C4579 C4580 1.374 . S
C4580 H4554 0.950 . S
C4580 C4576 1.385 . S
C4580 C4579 1.374 . S
C4581 C4578 1.499 . S
C4581 C4582 1.373 . S
C4581 C4583 1.378 . S
C4582 H4555 0.950 . S
C4582 C4568 1.369 1_655 S
C4582 C4581 1.373 . S
C4583 C4567 1.369 1_655 S
C4583 C4581 1.378 . S
C4583 C4584 1.555 1_655 S
C4584 C4583 1.555 1_455 S
C4584 C4585 1.411 . S
C4584 C4589 1.340 1_455 S
C4585 H4556 0.950 . S
C4585 C4584 1.411 . S
C4585 C4586 1.334 . S
C4586 H4557 0.950 . S
C4586 C4585 1.334 . S
C4586 C4587 1.287 . S
C4587 C4586 1.287 . S
C4587 C4588 1.524 1_455 S
C4587 H4590 0.999 . S
C4588 H4558 0.950 . S
C4588 C4587 1.524 1_655 S
C4588 C4589 1.415 . S
C4589 H4559 0.950 . S
C4589 C4584 1.340 1_655 S
C4589 C4588 1.415 . S
H4590 C4587 0.999 . S
H4591 C4572 0.913 . S
H4592 C4610 0.951 . S
H4593 C4612 0.951 . S
H4594 C4614 0.950 . S
H4595 C4615 0.950 . S
H4596 C4617 0.950 . S
H4597 C4620 0.950 . S
H4598 C4621 0.950 . S
H4599 C4623 0.950 . S
H4600 C4624 0.950 . S
H4601 C4625 0.951 . S
H4602 C4627 0.951 . S
H4603 C4629 0.950 . S
H4604 C4630 0.950 . S
H4605 C4632 0.950 . S
H4606 C4635 0.950 . S
H4607 C4636 0.950 . S
H4608 C4638 0.950 . S
H4609 C4639 0.950 . S
C4610 H4592 0.951 . S
C4610 C4611 1.366 . S
C4610 C4612 1.388 . S
C4611 C4610 1.366 . S
C4611 C4615 1.385 . S
C4612 H4593 0.951 . S
C4612 C4610 1.388 . S
C4612 C4613 1.366 . S
C4613 C4612 1.366 . S
C4613 C4614 1.414 . S
C4613 C4616 1.499 . S
C4614 H4594 0.950 . S
C4614 C4613 1.414 . S
C4614 C4615 1.374 . S
C4615 H4595 0.950 . S
C4615 C4611 1.385 . S
C4615 C4614 1.374 . S
C4616 C4613 1.499 . S
C4616 C4617 1.373 . S
C4616 C4618 1.389 . S
C4617 H4596 0.950 . S
C4617 C4616 1.373 . S
C4617 C4633 1.377 . S
C4618 C4616 1.389 . S
C4618 C4619 1.524 . S
C4618 C4632 1.377 . S
C4619 C4618 1.524 . S
C4619 C4620 1.397 . S
C4619 C4624 1.363 . S
C4620 H4597 0.950 . S
C4620 C4619 1.397 . S
C4620 C4621 1.334 . S
C4621 H4598 0.950 . S
C4621 C4620 1.334 . S
C4621 C4622 1.287 . S
C4622 C4621 1.287 . S
C4622 C4623 1.524 . S
C4622 H4641 0.913 . S
C4623 H4599 0.950 . S
C4623 C4622 1.524 . S
C4623 C4624 1.415 . S
C4624 H4600 0.950 . S
C4624 C4619 1.363 . S
C4624 C4623 1.415 . S
C4625 H4601 0.951 . S
C4625 C4626 1.366 . S
C4625 C4627 1.388 . S
C4626 C4625 1.366 . S
C4626 C4630 1.385 . S
C4627 H4602 0.951 . S
C4627 C4625 1.388 . S
C4627 C4628 1.366 . S
C4628 C4627 1.366 . S
C4628 C4629 1.414 . S
C4628 C4631 1.499 . S
C4629 H4603 0.950 . S
C4629 C4628 1.414 . S
C4629 C4630 1.374 . S
C4630 H4604 0.950 . S
C4630 C4626 1.385 . S
C4630 C4629 1.374 . S
C4631 C4628 1.499 . S
C4631 C4632 1.373 . S
C4631 C4633 1.389 . S
C4632 H4605 0.950 . S
C4632 C4618 1.377 . S
C4632 C4631 1.373 . S
C4633 C4617 1.377 . S
C4633 C4631 1.389 . S
C4633 C4634 1.524 . S
C4634 C4633 1.524 . S
C4634 C4635 1.397 . S
C4634 C4639 1.363 . S
C4635 H4606 0.950 . S
C4635 C4634 1.397 . S
C4635 C4636 1.334 . S
C4636 H4607 0.950 . S
C4636 C4635 1.334 . S
C4636 C4637 1.287 . S
C4637 C4636 1.287 . S
C4637 C4638 1.524 . S
C4637 H4640 0.999 . S
C4638 H4608 0.950 . S
C4638 C4637 1.524 . S
C4638 C4639 1.415 . S
C4639 H4609 0.950 . S
C4639 C4634 1.363 . S
C4639 C4638 1.415 . S
H4640 C4637 0.999 . S
H4641 C4622 0.913 . S
H4642 C4660 0.951 . S
H4643 C4662 0.951 . S
H4644 C4664 0.949 1_565 S
H4645 C4665 0.950 . S
H4646 C4667 0.950 . S
H4647 C4670 0.950 . S
H4648 C4671 0.950 . S
H4649 C4673 0.950 . S
H4650 C4674 0.950 . S
H4651 C4675 0.951 . S
H4652 C4677 0.951 . S
H4653 C4679 0.949 1_545 S
H4654 C4680 0.950 . S
H4655 C4682 0.950 . S
H4656 C4685 0.950 . S
H4657 C4686 0.950 . S
H4658 C4688 0.950 . S
H4659 C4689 0.950 . S
C4660 H4642 0.951 . S
C4660 C4661 1.366 . S
C4660 C4662 1.388 . S
C4661 C4660 1.366 . S
C4661 C4665 1.385 . S
C4662 H4643 0.951 . S
C4662 C4660 1.388 . S
C4662 C4663 1.366 . S
C4663 C4662 1.366 . S
C4663 C4664 1.414 . S
C4663 C4666 1.499 . S
C4664 H4644 0.949 1_545 S
C4664 C4663 1.414 . S
C4664 C4665 1.374 . S
C4665 H4645 0.950 . S
C4665 C4661 1.385 . S
C4665 C4664 1.374 . S
C4666 C4663 1.499 . S
C4666 C4667 1.373 1_545 S
C4666 C4668 1.389 . S
C4667 H4646 0.950 . S
C4667 C4666 1.373 1_565 S
C4667 C4683 1.377 . S
C4668 C4666 1.389 . S
C4668 C4669 1.524 . S
C4668 C4682 1.377 . S
C4669 C4668 1.524 . S
C4669 C4670 1.397 . S
C4669 C4674 1.363 . S
C4670 H4647 0.950 . S
C4670 C4669 1.397 . S
C4670 C4671 1.334 . S
C4671 H4648 0.950 . S
C4671 C4670 1.334 . S
C4671 C4672 1.287 . S
C4672 C4671 1.287 . S
C4672 C4673 1.524 . S
C4672 H4691 0.913 . S
C4673 H4649 0.950 . S
C4673 C4672 1.524 . S
C4673 C4674 1.415 . S
C4674 H4650 0.950 . S
C4674 C4669 1.363 . S
C4674 C4673 1.415 . S
C4675 H4651 0.951 . S
C4675 C4676 1.366 . S
C4675 C4677 1.388 . S
C4676 C4675 1.366 . S
C4676 C4680 1.385 . S
C4677 H4652 0.951 . S
C4677 C4675 1.388 . S
C4677 C4678 1.366 . S
C4678 C4677 1.366 . S
C4678 C4679 1.414 . S
C4678 C4681 1.499 . S
C4679 H4653 0.949 1_565 S
C4679 C4678 1.414 . S
C4679 C4680 1.374 . S
C4680 H4654 0.950 . S
C4680 C4676 1.385 . S
C4680 C4679 1.374 . S
C4681 C4678 1.499 . S
C4681 C4682 1.373 1_565 S
C4681 C4683 1.389 . S
C4682 H4655 0.950 . S
C4682 C4668 1.377 . S
C4682 C4681 1.373 1_545 S
C4683 C4667 1.377 . S
C4683 C4681 1.389 . S
C4683 C4684 1.524 . S
C4684 C4683 1.524 . S
C4684 C4685 1.397 . S
C4684 C4689 1.363 . S
C4685 H4656 0.950 . S
C4685 C4684 1.397 . S
C4685 C4686 1.334 . S
C4686 H4657 0.950 . S
C4686 C4685 1.334 . S
C4686 C4687 1.287 . S
C4687 C4686 1.287 . S
C4687 C4688 1.524 . S
C4687 H4690 0.999 . S
C4688 H4658 0.950 . S
C4688 C4687 1.524 . S
C4688 C4689 1.415 . S
C4689 H4659 0.950 . S
C4689 C4684 1.363 . S
C4689 C4688 1.415 . S
H4690 C4687 0.999 . S
H4691 C4672 0.913 . S
H4692 C4710 0.951 . S
H4693 C4712 0.951 . S
H4694 C4714 0.950 . S
H4695 C4715 0.950 . S
H4696 C4717 0.950 . S
H4697 C4720 0.950 . S
H4698 C4721 0.950 . S
H4699 C4723 0.950 . S
H4700 C4724 0.950 . S
H4701 C4725 0.951 . S
H4702 C4727 0.951 . S
H4703 C4729 0.950 . S
H4704 C4730 0.950 . S
H4705 C4732 0.950 . S
H4706 C4735 0.950 . S
H4707 C4736 0.950 . S
H4708 C4738 0.950 . S
H4709 C4739 0.950 . S
C4710 H4692 0.951 . S
C4710 C4711 1.366 . S
C4710 C4712 1.388 . S
C4711 C4710 1.366 . S
C4711 C4715 1.385 . S
C4712 H4693 0.951 . S
C4712 C4710 1.388 . S
C4712 C4713 1.366 . S
C4713 C4712 1.366 . S
C4713 C4714 1.414 . S
C4713 C4716 1.499 . S
C4714 H4694 0.950 . S
C4714 C4713 1.414 . S
C4714 C4715 1.374 . S
C4715 H4695 0.950 . S
C4715 C4711 1.385 . S
C4715 C4714 1.374 . S
C4716 C4713 1.499 . S
C4716 C4717 1.373 . S
C4716 C4718 1.389 . S
C4717 H4696 0.950 . S
C4717 C4716 1.373 . S
C4717 C4733 1.377 . S
C4718 C4716 1.389 . S
C4718 C4719 1.524 . S
C4718 C4732 1.377 . S
C4719 C4718 1.524 . S
C4719 C4720 1.397 . S
C4719 C4724 1.363 . S
C4720 H4697 0.950 . S
C4720 C4719 1.397 . S
C4720 C4721 1.334 . S
C4721 H4698 0.950 . S
C4721 C4720 1.334 . S
C4721 C4722 1.287 . S
C4722 C4721 1.287 . S
C4722 C4723 1.524 . S
C4722 H4741 0.913 . S
C4723 H4699 0.950 . S
C4723 C4722 1.524 . S
C4723 C4724 1.415 . S
C4724 H4700 0.950 . S
C4724 C4719 1.363 . S
C4724 C4723 1.415 . S
C4725 H4701 0.951 . S
C4725 C4726 1.366 . S
C4725 C4727 1.388 . S
C4726 C4725 1.366 . S
C4726 C4730 1.385 . S
C4727 H4702 0.951 . S
C4727 C4725 1.388 . S
C4727 C4728 1.366 . S
C4728 C4727 1.366 . S
C4728 C4729 1.414 . S
C4728 C4731 1.499 . S
C4729 H4703 0.950 . S
C4729 C4728 1.414 . S
C4729 C4730 1.374 . S
C4730 H4704 0.950 . S
C4730 C4726 1.385 . S
C4730 C4729 1.374 . S
C4731 C4728 1.499 . S
C4731 C4732 1.373 . S
C4731 C4733 1.389 . S
C4732 H4705 0.950 . S
C4732 C4718 1.377 . S
C4732 C4731 1.373 . S
C4733 C4717 1.377 . S
C4733 C4731 1.389 . S
C4733 C4734 1.524 . S
C4734 C4733 1.524 . S
C4734 C4735 1.397 . S
C4734 C4739 1.363 . S
C4735 H4706 0.950 . S
C4735 C4734 1.397 . S
C4735 C4736 1.334 . S
C4736 H4707 0.950 . S
C4736 C4735 1.334 . S
C4736 C4737 1.287 . S
C4737 C4736 1.287 . S
C4737 C4738 1.524 . S
C4737 H4740 0.999 . S
C4738 H4708 0.950 . S
C4738 C4737 1.524 . S
C4738 C4739 1.415 . S
C4739 H4709 0.950 . S
C4739 C4734 1.363 . S
C4739 C4738 1.415 . S
H4740 C4737 0.999 . S
H4741 C4722 0.913 . S
H4742 C4760 0.951 . S
H4743 C4762 0.951 . S
H4744 C4764 0.950 . S
H4745 C4765 0.950 . S
H4746 C4767 0.950 . S
H4747 C4770 0.950 . S
H4748 C4771 0.950 . S
H4749 C4773 0.950 . S
H4750 C4774 0.950 . S
H4751 C4775 0.951 . S
H4752 C4777 0.951 . S
H4753 C4779 0.950 . S
H4754 C4780 0.950 . S
H4755 C4782 0.950 . S
H4756 C4785 0.950 . S
H4757 C4786 0.950 . S
H4758 C4788 0.950 . S
H4759 C4789 0.950 . S
C4760 H4742 0.951 . S
C4760 C4761 1.366 . S
C4760 C4762 1.388 . S
C4761 C4760 1.366 . S
C4761 C4765 1.385 . S
C4762 H4743 0.951 . S
C4762 C4760 1.388 . S
C4762 C4763 1.366 . S
C4763 C4762 1.366 . S
C4763 C4764 1.414 . S
C4763 C4766 1.499 . S
C4764 H4744 0.950 . S
C4764 C4763 1.414 . S
C4764 C4765 1.374 . S
C4765 H4745 0.950 . S
C4765 C4761 1.385 . S
C4765 C4764 1.374 . S
C4766 C4763 1.499 . S
C4766 C4767 1.373 . S
C4766 C4768 1.389 . S
C4767 H4746 0.950 . S
C4767 C4766 1.373 . S
C4767 C4783 1.377 . S
C4768 C4766 1.389 . S
C4768 C4769 1.524 . S
C4768 C4782 1.377 . S
C4769 C4768 1.524 . S
C4769 C4770 1.397 . S
C4769 C4774 1.363 . S
C4770 H4747 0.950 . S
C4770 C4769 1.397 . S
C4770 C4771 1.334 . S
C4771 H4748 0.950 . S
C4771 C4770 1.334 . S
C4771 C4772 1.287 . S
C4772 C4771 1.287 . S
C4772 C4773 1.524 . S
C4772 H4791 0.913 . S
C4773 H4749 0.950 . S
C4773 C4772 1.524 . S
C4773 C4774 1.415 . S
C4774 H4750 0.950 . S
C4774 C4769 1.363 . S
C4774 C4773 1.415 . S
C4775 H4751 0.951 . S
C4775 C4776 1.366 . S
C4775 C4777 1.388 . S
C4776 C4775 1.366 . S
C4776 C4780 1.385 . S
C4777 H4752 0.951 . S
C4777 C4775 1.388 . S
C4777 C4778 1.366 . S
C4778 C4777 1.366 . S
C4778 C4779 1.414 . S
C4778 C4781 1.499 . S
C4779 H4753 0.950 . S
C4779 C4778 1.414 . S
C4779 C4780 1.374 . S
C4780 H4754 0.950 . S
C4780 C4776 1.385 . S
C4780 C4779 1.374 . S
C4781 C4778 1.499 . S
C4781 C4782 1.373 . S
C4781 C4783 1.389 . S
C4782 H4755 0.950 . S
C4782 C4768 1.377 . S
C4782 C4781 1.373 . S
C4783 C4767 1.377 . S
C4783 C4781 1.389 . S
C4783 C4784 1.524 . S
C4784 C4783 1.524 . S
C4784 C4785 1.397 . S
C4784 C4789 1.363 . S
C4785 H4756 0.950 . S
C4785 C4784 1.397 . S
C4785 C4786 1.334 . S
C4786 H4757 0.950 . S
C4786 C4785 1.334 . S
C4786 C4787 1.287 . S
C4787 C4786 1.287 . S
C4787 C4788 1.524 . S
C4787 H4790 0.999 . S
C4788 H4758 0.950 . S
C4788 C4787 1.524 . S
C4788 C4789 1.415 . S
C4789 H4759 0.950 . S
C4789 C4784 1.363 . S
C4789 C4788 1.415 . S
H4790 C4787 0.999 . S
H4791 C4772 0.913 . S
H4792 C4810 0.951 . S
H4793 C4812 0.951 . S
H4794 C4814 0.950 . S
H4795 C4815 0.950 . S
H4796 C4817 0.950 . S
H4797 C4820 0.950 . S
H4798 C4821 0.950 . S
H4799 C4823 0.950 . S
H4800 C4824 0.950 . S
H4801 C4825 0.951 . S
H4802 C4827 0.951 . S
H4803 C4829 0.950 . S
H4804 C4830 0.950 . S
H4805 C4832 0.950 . S
H4806 C4835 0.950 . S
H4807 C4836 0.950 . S
H4808 C4838 0.950 . S
H4809 C4839 0.950 . S
C4810 H4792 0.951 . S
C4810 C4811 1.366 . S
C4810 C4812 1.388 . S
C4811 C4810 1.366 . S
C4811 C4815 1.385 . S
C4812 H4793 0.951 . S
C4812 C4810 1.388 . S
C4812 C4813 1.366 . S
C4813 C4812 1.366 . S
C4813 C4814 1.414 . S
C4813 C4816 1.499 . S
C4814 H4794 0.950 . S
C4814 C4813 1.414 . S
C4814 C4815 1.374 . S
C4815 H4795 0.950 . S
C4815 C4811 1.385 . S
C4815 C4814 1.374 . S
C4816 C4813 1.499 . S
C4816 C4817 1.373 . S
C4816 C4818 1.389 . S
C4817 H4796 0.950 . S
C4817 C4816 1.373 . S
C4817 C4833 1.377 . S
C4818 C4816 1.389 . S
C4818 C4819 1.524 . S
C4818 C4832 1.377 . S
C4819 C4818 1.524 . S
C4819 C4820 1.397 . S
C4819 C4824 1.363 . S
C4820 H4797 0.950 . S
C4820 C4819 1.397 . S
C4820 C4821 1.334 . S
C4821 H4798 0.950 . S
C4821 C4820 1.334 . S
C4821 C4822 1.287 . S
C4822 C4821 1.287 . S
C4822 C4823 1.524 . S
C4822 H4841 0.913 . S
C4823 H4799 0.950 . S
C4823 C4822 1.524 . S
C4823 C4824 1.415 . S
C4824 H4800 0.950 . S
C4824 C4819 1.363 . S
C4824 C4823 1.415 . S
C4825 H4801 0.951 . S
C4825 C4826 1.366 . S
C4825 C4827 1.388 . S
C4826 C4825 1.366 . S
C4826 C4830 1.385 . S
C4827 H4802 0.951 . S
C4827 C4825 1.388 . S
C4827 C4828 1.366 . S
C4828 C4827 1.366 . S
C4828 C4829 1.414 . S
C4828 C4831 1.499 . S
C4829 H4803 0.950 . S
C4829 C4828 1.414 . S
C4829 C4830 1.374 . S
C4830 H4804 0.950 . S
C4830 C4826 1.385 . S
C4830 C4829 1.374 . S
C4831 C4828 1.499 . S
C4831 C4832 1.373 . S
C4831 C4833 1.389 . S
C4832 H4805 0.950 . S
C4832 C4818 1.377 . S
C4832 C4831 1.373 . S
C4833 C4817 1.377 . S
C4833 C4831 1.389 . S
C4833 C4834 1.524 . S
C4834 C4833 1.524 . S
C4834 C4835 1.397 . S
C4834 C4839 1.363 . S
C4835 H4806 0.950 . S
C4835 C4834 1.397 . S
C4835 C4836 1.334 . S
C4836 H4807 0.950 . S
C4836 C4835 1.334 . S
C4836 C4837 1.287 . S
C4837 C4836 1.287 . S
C4837 C4838 1.524 . S
C4837 H4840 0.999 . S
C4838 H4808 0.950 . S
C4838 C4837 1.524 . S
C4838 C4839 1.415 . S
C4839 H4809 0.950 . S
C4839 C4834 1.363 . S
C4839 C4838 1.415 . S
H4840 C4837 0.999 . S
H4841 C4822 0.913 . S
H4842 C4860 0.951 . S
H4843 C4862 0.951 . S
H4844 C4864 0.950 . S
H4845 C4865 0.950 . S
H4846 C4867 0.950 . S
H4847 C4870 0.950 . S
H4848 C4871 0.950 . S
H4849 C4873 0.950 . S
H4850 C4874 0.950 . S
H4851 C4875 0.951 . S
H4852 C4877 0.951 . S
H4853 C4879 0.950 . S
H4854 C4880 0.950 . S
H4855 C4882 0.950 . S
H4856 C4885 0.950 . S
H4857 C4886 0.950 . S
H4858 C4888 0.950 . S
H4859 C4889 0.950 . S
C4860 H4842 0.951 . S
C4860 C4861 1.366 . S
C4860 C4862 1.388 . S
C4861 C4860 1.366 . S
C4861 C4865 1.385 . S
C4862 H4843 0.951 . S
C4862 C4860 1.388 . S
C4862 C4863 1.366 . S
C4863 C4862 1.366 . S
C4863 C4864 1.414 . S
C4863 C4866 1.499 . S
C4864 H4844 0.950 . S
C4864 C4863 1.414 . S
C4864 C4865 1.374 . S
C4865 H4845 0.950 . S
C4865 C4861 1.385 . S
C4865 C4864 1.374 . S
C4866 C4863 1.499 . S
C4866 C4867 1.373 . S
C4866 C4868 1.389 . S
C4867 H4846 0.950 . S
C4867 C4866 1.373 . S
C4867 C4883 1.377 . S
C4868 C4866 1.389 . S
C4868 C4869 1.524 . S
C4868 C4882 1.377 . S
C4869 C4868 1.524 . S
C4869 C4870 1.397 . S
C4869 C4874 1.363 . S
C4870 H4847 0.950 . S
C4870 C4869 1.397 . S
C4870 C4871 1.334 . S
C4871 H4848 0.950 . S
C4871 C4870 1.334 . S
C4871 C4872 1.287 . S
C4872 C4871 1.287 . S
C4872 C4873 1.524 . S
C4872 H4891 0.913 . S
C4873 H4849 0.950 . S
C4873 C4872 1.524 . S
C4873 C4874 1.415 . S
C4874 H4850 0.950 . S
C4874 C4869 1.363 . S
C4874 C4873 1.415 . S
C4875 H4851 0.951 . S
C4875 C4876 1.366 . S
C4875 C4877 1.388 . S
C4876 C4875 1.366 . S
C4876 C4880 1.385 . S
C4877 H4852 0.951 . S
C4877 C4875 1.388 . S
C4877 C4878 1.366 . S
C4878 C4877 1.366 . S
C4878 C4879 1.414 . S
C4878 C4881 1.499 . S
C4879 H4853 0.950 . S
C4879 C4878 1.414 . S
C4879 C4880 1.374 . S
C4880 H4854 0.950 . S
C4880 C4876 1.385 . S
C4880 C4879 1.374 . S
C4881 C4878 1.499 . S
C4881 C4882 1.373 . S
C4881 C4883 1.389 . S
C4882 H4855 0.950 . S
C4882 C4868 1.377 . S
C4882 C4881 1.373 . S
C4883 C4867 1.377 . S
C4883 C4881 1.389 . S
C4883 C4884 1.524 . S
C4884 C4883 1.524 . S
C4884 C4885 1.397 . S
C4884 C4889 1.363 . S
C4885 H4856 0.950 . S
C4885 C4884 1.397 . S
C4885 C4886 1.334 . S
C4886 H4857 0.950 . S
C4886 C4885 1.334 . S
C4886 C4887 1.287 . S
C4887 C4886 1.287 . S
C4887 C4888 1.524 . S
C4887 H4890 0.999 . S
C4888 H4858 0.950 . S
C4888 C4887 1.524 . S
C4888 C4889 1.415 . S
C4889 H4859 0.950 . S
C4889 C4884 1.363 . S
C4889 C4888 1.415 . S
H4890 C4887 0.999 . S
H4891 C4872 0.913 . S
H4892 C4910 0.951 . S
H4893 C4912 0.951 . S
H4894 C4914 0.950 . S
H4895 C4915 0.950 . S
H4896 C4917 0.950 . S
H4897 C4920 0.950 . S
H4898 C4921 0.950 . S
H4899 C4923 0.950 . S
H4900 C4924 0.950 . S
H4901 C4925 0.951 . S
H4902 C4927 0.951 . S
H4903 C4929 0.950 . S
H4904 C4930 0.950 . S
H4905 C4932 0.950 . S
H4906 C4935 0.950 . S
H4907 C4936 0.950 . S
H4908 C4938 0.950 . S
H4909 C4939 0.950 . S
C4910 H4892 0.951 . S
C4910 C4911 1.366 . S
C4910 C4912 1.388 . S
C4911 C4910 1.366 . S
C4911 C4915 1.385 . S
C4912 H4893 0.951 . S
C4912 C4910 1.388 . S
C4912 C4913 1.366 . S
C4913 C4912 1.366 . S
C4913 C4914 1.414 . S
C4913 C4916 1.499 . S
C4914 H4894 0.950 . S
C4914 C4913 1.414 . S
C4914 C4915 1.374 . S
C4915 H4895 0.950 . S
C4915 C4911 1.385 . S
C4915 C4914 1.374 . S
C4916 C4913 1.499 . S
C4916 C4917 1.373 . S
C4916 C4918 1.389 . S
C4917 H4896 0.950 . S
C4917 C4916 1.373 . S
C4917 C4933 1.377 . S
C4918 C4916 1.389 . S
C4918 C4919 1.524 . S
C4918 C4932 1.377 . S
C4919 C4918 1.524 . S
C4919 C4920 1.397 . S
C4919 C4924 1.363 . S
C4920 H4897 0.950 . S
C4920 C4919 1.397 . S
C4920 C4921 1.334 . S
C4921 H4898 0.950 . S
C4921 C4920 1.334 . S
C4921 C4922 1.287 . S
C4922 C4921 1.287 . S
C4922 C4923 1.524 . S
C4922 H4941 0.913 . S
C4923 H4899 0.950 . S
C4923 C4922 1.524 . S
C4923 C4924 1.415 . S
C4924 H4900 0.950 . S
C4924 C4919 1.363 . S
C4924 C4923 1.415 . S
C4925 H4901 0.951 . S
C4925 C4926 1.366 . S
C4925 C4927 1.388 . S
C4926 C4925 1.366 . S
C4926 C4930 1.385 . S
C4927 H4902 0.951 . S
C4927 C4925 1.388 . S
C4927 C4928 1.366 . S
C4928 C4927 1.366 . S
C4928 C4929 1.414 . S
C4928 C4931 1.499 . S
C4929 H4903 0.950 . S
C4929 C4928 1.414 . S
C4929 C4930 1.374 . S
C4930 H4904 0.950 . S
C4930 C4926 1.385 . S
C4930 C4929 1.374 . S
C4931 C4928 1.499 . S
C4931 C4932 1.373 . S
C4931 C4933 1.389 . S
C4932 H4905 0.950 . S
C4932 C4918 1.377 . S
C4932 C4931 1.373 . S
C4933 C4917 1.377 . S
C4933 C4931 1.389 . S
C4933 C4934 1.524 . S
C4934 C4933 1.524 . S
C4934 C4935 1.397 . S
C4934 C4939 1.363 . S
C4935 H4906 0.950 . S
C4935 C4934 1.397 . S
C4935 C4936 1.334 . S
C4936 H4907 0.950 . S
C4936 C4935 1.334 . S
C4936 C4937 1.287 . S
C4937 C4936 1.287 . S
C4937 C4938 1.524 . S
C4937 H4940 0.999 . S
C4938 H4908 0.950 . S
C4938 C4937 1.524 . S
C4938 C4939 1.415 . S
C4939 H4909 0.950 . S
C4939 C4934 1.363 . S
C4939 C4938 1.415 . S
H4940 C4937 0.999 . S
H4941 C4922 0.913 . S
H4942 C4960 0.951 . S
H4943 C4962 0.951 . S
H4944 C4964 0.950 . S
H4945 C4965 0.950 . S
H4946 C4967 0.950 . S
H4947 C4970 0.950 . S
H4948 C4971 0.950 . S
H4949 C4973 0.950 . S
H4950 C4974 0.950 . S
H4951 C4975 0.951 . S
H4952 C4977 0.951 . S
H4953 C4979 0.950 . S
H4954 C4980 0.950 . S
H4955 C4982 0.950 . S
H4956 C4985 0.950 . S
H4957 C4986 0.950 . S
H4958 C4988 0.950 . S
H4959 C4989 0.950 . S
C4960 H4942 0.951 . S
C4960 C4961 1.366 . S
C4960 C4962 1.388 . S
C4961 C4960 1.366 . S
C4961 C4965 1.385 . S
C4962 H4943 0.951 . S
C4962 C4960 1.388 . S
C4962 C4963 1.366 . S
C4963 C4962 1.366 . S
C4963 C4964 1.414 . S
C4963 C4966 1.499 . S
C4964 H4944 0.950 . S
C4964 C4963 1.414 . S
C4964 C4965 1.374 . S
C4965 H4945 0.950 . S
C4965 C4961 1.385 . S
C4965 C4964 1.374 . S
C4966 C4963 1.499 . S
C4966 C4967 1.373 . S
C4966 C4968 1.389 . S
C4967 H4946 0.950 . S
C4967 C4966 1.373 . S
C4967 C4983 1.377 . S
C4968 C4966 1.389 . S
C4968 C4969 1.524 . S
C4968 C4982 1.377 . S
C4969 C4968 1.524 . S
C4969 C4970 1.397 . S
C4969 C4974 1.363 . S
C4970 H4947 0.950 . S
C4970 C4969 1.397 . S
C4970 C4971 1.334 . S
C4971 H4948 0.950 . S
C4971 C4970 1.334 . S
C4971 C4972 1.287 . S
C4972 C4971 1.287 . S
C4972 C4973 1.524 . S
C4972 H4991 0.913 . S
C4973 H4949 0.950 . S
C4973 C4972 1.524 . S
C4973 C4974 1.415 . S
C4974 H4950 0.950 . S
C4974 C4969 1.363 . S
C4974 C4973 1.415 . S
C4975 H4951 0.951 . S
C4975 C4976 1.366 . S
C4975 C4977 1.388 . S
C4976 C4975 1.366 . S
C4976 C4980 1.385 . S
C4977 H4952 0.951 . S
C4977 C4975 1.388 . S
C4977 C4978 1.366 . S
C4978 C4977 1.366 . S
C4978 C4979 1.414 . S
C4978 C4981 1.499 . S
C4979 H4953 0.950 . S
C4979 C4978 1.414 . S
C4979 C4980 1.374 . S
C4980 H4954 0.950 . S
C4980 C4976 1.385 . S
C4980 C4979 1.374 . S
C4981 C4978 1.499 . S
C4981 C4982 1.373 . S
C4981 C4983 1.389 . S
C4982 H4955 0.950 . S
C4982 C4968 1.377 . S
C4982 C4981 1.373 . S
C4983 C4967 1.377 . S
C4983 C4981 1.389 . S
C4983 C4984 1.524 . S
C4984 C4983 1.524 . S
C4984 C4985 1.397 . S
C4984 C4989 1.363 . S
C4985 H4956 0.950 . S
C4985 C4984 1.397 . S
C4985 C4986 1.334 . S
C4986 H4957 0.950 . S
C4986 C4985 1.334 . S
C4986 C4987 1.287 . S
C4987 C4986 1.287 . S
C4987 C4988 1.524 . S
C4987 H4990 0.999 . S
C4988 H4958 0.950 . S
C4988 C4987 1.524 . S
C4988 C4989 1.415 . S
C4989 H4959 0.950 . S
C4989 C4984 1.363 . S
C4989 C4988 1.415 . S
H4990 C4987 0.999 . S
H4991 C4972 0.913 . S
H4992 C5010 0.951 . S
H4993 C5012 0.951 . S
H4994 C5014 0.950 . S
H4995 C5015 0.950 . S
H4996 C5017 0.950 . S
H4997 C5020 0.950 . S
H4998 C5021 0.950 . S
H4999 C5023 0.950 . S
H5000 C5024 0.950 . S
H5001 C5025 0.951 . S
H5002 C5027 0.951 . S
H5003 C5029 0.950 . S
H5004 C5030 0.950 . S
H5005 C5032 0.950 . S
H5006 C5035 0.950 . S
H5007 C5036 0.950 . S
H5008 C5038 0.950 . S
H5009 C5039 0.950 . S
C5010 H4992 0.951 . S
C5010 C5011 1.366 . S
C5010 C5012 1.388 . S
C5011 C5010 1.366 . S
C5011 C5015 1.385 . S
C5012 H4993 0.951 . S
C5012 C5010 1.388 . S
C5012 C5013 1.366 . S
C5013 C5012 1.366 . S
C5013 C5014 1.414 . S
C5013 C5016 1.499 . S
C5014 H4994 0.950 . S
C5014 C5013 1.414 . S
C5014 C5015 1.374 . S
C5015 H4995 0.950 . S
C5015 C5011 1.385 . S
C5015 C5014 1.374 . S
C5016 C5013 1.499 . S
C5016 C5017 1.373 . S
C5016 C5018 1.389 . S
C5017 H4996 0.950 . S
C5017 C5016 1.373 . S
C5017 C5033 1.377 . S
C5018 C5016 1.389 . S
C5018 C5019 1.524 . S
C5018 C5032 1.377 . S
C5019 C5018 1.524 . S
C5019 C5020 1.397 . S
C5019 C5024 1.363 . S
C5020 H4997 0.950 . S
C5020 C5019 1.397 . S
C5020 C5021 1.334 . S
C5021 H4998 0.950 . S
C5021 C5020 1.334 . S
C5021 C5022 1.287 . S
C5022 C5021 1.287 . S
C5022 C5023 1.524 . S
C5022 H5041 0.913 . S
C5023 H4999 0.950 . S
C5023 C5022 1.524 . S
C5023 C5024 1.415 . S
C5024 H5000 0.950 . S
C5024 C5019 1.363 . S
C5024 C5023 1.415 . S
C5025 H5001 0.951 . S
C5025 C5026 1.366 . S
C5025 C5027 1.388 . S
C5026 C5025 1.366 . S
C5026 C5030 1.385 . S
C5027 H5002 0.951 . S
C5027 C5025 1.388 . S
C5027 C5028 1.366 . S
C5028 C5027 1.366 . S
C5028 C5029 1.414 . S
C5028 C5031 1.499 . S
C5029 H5003 0.950 . S
C5029 C5028 1.414 . S
C5029 C5030 1.374 . S
C5030 H5004 0.950 . S
C5030 C5026 1.385 . S
C5030 C5029 1.374 . S
C5031 C5028 1.499 . S
C5031 C5032 1.373 . S
C5031 C5033 1.389 . S
C5032 H5005 0.950 . S
C5032 C5018 1.377 . S
C5032 C5031 1.373 . S
C5033 C5017 1.377 . S
C5033 C5031 1.389 . S
C5033 C5034 1.524 . S
C5034 C5033 1.524 . S
C5034 C5035 1.397 . S
C5034 C5039 1.363 . S
C5035 H5006 0.950 . S
C5035 C5034 1.397 . S
C5035 C5036 1.334 . S
C5036 H5007 0.950 . S
C5036 C5035 1.334 . S
C5036 C5037 1.287 . S
C5037 C5036 1.287 . S
C5037 C5038 1.524 . S
C5037 H5040 0.999 . S
C5038 H5008 0.950 . S
C5038 C5037 1.524 . S
C5038 C5039 1.415 . S
C5039 H5009 0.950 . S
C5039 C5034 1.363 . S
C5039 C5038 1.415 . S
H5040 C5037 0.999 . S
H5041 C5022 0.913 . S
H5042 C5060 0.951 . S
H5043 C5062 0.951 . S
H5044 C5064 0.950 . S
H5045 C5065 0.950 . S
H5046 C5067 0.950 . S
H5047 C5070 0.950 . S
H5048 C5071 0.950 . S
H5049 C5073 0.950 . S
H5050 C5074 0.950 . S
H5051 C5075 0.951 . S
H5052 C5077 0.951 . S
H5053 C5079 0.950 . S
H5054 C5080 0.950 . S
H5055 C5082 0.950 . S
H5056 C5085 0.950 . S
H5057 C5086 0.950 . S
H5058 C5088 0.950 . S
H5059 C5089 0.950 . S
C5060 H5042 0.951 . S
C5060 C5061 1.366 . S
C5060 C5062 1.388 . S
C5061 C5060 1.366 . S
C5061 C5065 1.385 . S
C5062 H5043 0.951 . S
C5062 C5060 1.388 . S
C5062 C5063 1.366 . S
C5063 C5062 1.366 . S
C5063 C5064 1.414 . S
C5063 C5066 1.499 . S
C5064 H5044 0.950 . S
C5064 C5063 1.414 . S
C5064 C5065 1.374 . S
C5065 H5045 0.950 . S
C5065 C5061 1.385 . S
C5065 C5064 1.374 . S
C5066 C5063 1.499 . S
C5066 C5067 1.373 . S
C5066 C5068 1.389 . S
C5067 H5046 0.950 . S
C5067 C5066 1.373 . S
C5067 C5083 1.377 . S
C5068 C5066 1.389 . S
C5068 C5069 1.524 . S
C5068 C5082 1.377 . S
C5069 C5068 1.524 . S
C5069 C5070 1.397 . S
C5069 C5074 1.363 . S
C5070 H5047 0.950 . S
C5070 C5069 1.397 . S
C5070 C5071 1.334 . S
C5071 H5048 0.950 . S
C5071 C5070 1.334 . S
C5071 C5072 1.287 . S
C5072 C5071 1.287 . S
C5072 C5073 1.524 . S
C5072 H5091 0.913 . S
C5073 H5049 0.950 . S
C5073 C5072 1.524 . S
C5073 C5074 1.415 . S
C5074 H5050 0.950 . S
C5074 C5069 1.363 . S
C5074 C5073 1.415 . S
C5075 H5051 0.951 . S
C5075 C5076 1.366 . S
C5075 C5077 1.388 . S
C5076 C5075 1.366 . S
C5076 C5080 1.385 . S
C5077 H5052 0.951 . S
C5077 C5075 1.388 . S
C5077 C5078 1.366 . S
C5078 C5077 1.366 . S
C5078 C5079 1.414 . S
C5078 C5081 1.499 . S
C5079 H5053 0.950 . S
C5079 C5078 1.414 . S
C5079 C5080 1.374 . S
C5080 H5054 0.950 . S
C5080 C5076 1.385 . S
C5080 C5079 1.374 . S
C5081 C5078 1.499 . S
C5081 C5082 1.373 . S
C5081 C5083 1.389 . S
C5082 H5055 0.950 . S
C5082 C5068 1.377 . S
C5082 C5081 1.373 . S
C5083 C5067 1.377 . S
C5083 C5081 1.389 . S
C5083 C5084 1.524 . S
C5084 C5083 1.524 . S
C5084 C5085 1.397 . S
C5084 C5089 1.363 . S
C5085 H5056 0.950 . S
C5085 C5084 1.397 . S
C5085 C5086 1.334 . S
C5086 H5057 0.950 . S
C5086 C5085 1.334 . S
C5086 C5087 1.287 . S
C5087 C5086 1.287 . S
C5087 C5088 1.524 . S
C5087 H5090 0.999 . S
C5088 H5058 0.950 . S
C5088 C5087 1.524 . S
C5088 C5089 1.415 . S
C5089 H5059 0.950 . S
C5089 C5084 1.363 . S
C5089 C5088 1.415 . S
H5090 C5087 0.999 . S
H5091 C5072 0.913 . S
H5092 C5110 0.951 . S
H5093 C5112 0.951 . S
H5094 C5114 0.950 . S
H5095 C5115 0.950 . S
H5096 C5117 0.950 . S
H5097 C5120 0.950 . S
H5098 C5121 0.950 . S
H5099 C5123 0.950 . S
H5100 C5124 0.950 . S
H5101 C5125 0.951 . S
H5102 C5127 0.951 . S
H5103 C5129 0.950 . S
H5104 C5130 0.950 . S
H5105 C5132 0.950 . S
H5106 C5135 0.950 . S
H5107 C5136 0.950 . S
H5108 C5138 0.950 . S
H5109 C5139 0.950 . S
C5110 H5092 0.951 . S
C5110 C5111 1.366 . S
C5110 C5112 1.388 . S
C5111 C5110 1.366 . S
C5111 C5115 1.385 . S
C5112 H5093 0.951 . S
C5112 C5110 1.388 . S
C5112 C5113 1.366 . S
C5113 C5112 1.366 . S
C5113 C5114 1.414 . S
C5113 C5116 1.499 . S
C5114 H5094 0.950 . S
C5114 C5113 1.414 . S
C5114 C5115 1.374 . S
C5115 H5095 0.950 . S
C5115 C5111 1.385 . S
C5115 C5114 1.374 . S
C5116 C5113 1.499 . S
C5116 C5117 1.373 . S
C5116 C5118 1.389 . S
C5117 H5096 0.950 . S
C5117 C5116 1.373 . S
C5117 C5133 1.377 . S
C5118 C5116 1.389 . S
C5118 C5119 1.524 . S
C5118 C5132 1.377 . S
C5119 C5118 1.524 . S
C5119 C5120 1.397 . S
C5119 C5124 1.363 . S
C5120 H5097 0.950 . S
C5120 C5119 1.397 . S
C5120 C5121 1.334 . S
C5121 H5098 0.950 . S
C5121 C5120 1.334 . S
C5121 C5122 1.287 . S
C5122 C5121 1.287 . S
C5122 C5123 1.524 . S
C5122 H5141 0.913 . S
C5123 H5099 0.950 . S
C5123 C5122 1.524 . S
C5123 C5124 1.415 . S
C5124 H5100 0.950 . S
C5124 C5119 1.363 . S
C5124 C5123 1.415 . S
C5125 H5101 0.951 . S
C5125 C5126 1.366 . S
C5125 C5127 1.388 . S
C5126 C5125 1.366 . S
C5126 C5130 1.385 . S
C5127 H5102 0.951 . S
C5127 C5125 1.388 . S
C5127 C5128 1.366 . S
C5128 C5127 1.366 . S
C5128 C5129 1.414 . S
C5128 C5131 1.499 . S
C5129 H5103 0.950 . S
C5129 C5128 1.414 . S
C5129 C5130 1.374 . S
C5130 H5104 0.950 . S
C5130 C5126 1.385 . S
C5130 C5129 1.374 . S
C5131 C5128 1.499 . S
C5131 C5132 1.373 . S
C5131 C5133 1.389 . S
C5132 H5105 0.950 . S
C5132 C5118 1.377 . S
C5132 C5131 1.373 . S
C5133 C5117 1.377 . S
C5133 C5131 1.389 . S
C5133 C5134 1.524 . S
C5134 C5133 1.524 . S
C5134 C5135 1.397 . S
C5134 C5139 1.363 . S
C5135 H5106 0.950 . S
C5135 C5134 1.397 . S
C5135 C5136 1.334 . S
C5136 H5107 0.950 . S
C5136 C5135 1.334 . S
C5136 C5137 1.287 . S
C5137 C5136 1.287 . S
C5137 C5138 1.524 . S
C5137 H5140 0.999 . S
C5138 H5108 0.950 . S
C5138 C5137 1.524 . S
C5138 C5139 1.415 . S
C5139 H5109 0.950 . S
C5139 C5134 1.363 . S
C5139 C5138 1.415 . S
H5140 C5137 0.999 . S
H5141 C5122 0.913 . S
H5142 C5160 0.951 . S
H5143 C5162 0.951 . S
H5144 C5164 0.950 . S
H5145 C5165 0.950 . S
H5146 C5167 0.950 . S
H5147 C5170 0.950 . S
H5148 C5171 0.950 . S
H5149 C5173 0.950 . S
H5150 C5174 0.950 . S
H5151 C5175 0.951 . S
H5152 C5177 0.951 . S
H5153 C5179 0.950 . S
H5154 C5180 0.950 . S
H5155 C5182 0.950 . S
H5156 C5185 0.950 . S
H5157 C5186 0.950 . S
H5158 C5188 0.950 . S
H5159 C5189 0.950 . S
C5160 H5142 0.951 . S
C5160 C5161 1.366 . S
C5160 C5162 1.388 . S
C5161 C5160 1.366 . S
C5161 C5165 1.385 . S
C5162 H5143 0.951 . S
C5162 C5160 1.388 . S
C5162 C5163 1.366 . S
C5163 C5162 1.366 . S
C5163 C5164 1.414 . S
C5163 C5166 1.499 . S
C5164 H5144 0.950 . S
C5164 C5163 1.414 . S
C5164 C5165 1.374 . S
C5165 H5145 0.950 . S
C5165 C5161 1.385 . S
C5165 C5164 1.374 . S
C5166 C5163 1.499 . S
C5166 C5167 1.373 . S
C5166 C5168 1.389 . S
C5167 H5146 0.950 . S
C5167 C5166 1.373 . S
C5167 C5183 1.377 . S
C5168 C5166 1.389 . S
C5168 C5169 1.524 . S
C5168 C5182 1.377 . S
C5169 C5168 1.524 . S
C5169 C5170 1.397 . S
C5169 C5174 1.363 . S
C5170 H5147 0.950 . S
C5170 C5169 1.397 . S
C5170 C5171 1.334 . S
C5171 H5148 0.950 . S
C5171 C5170 1.334 . S
C5171 C5172 1.287 . S
C5172 C5171 1.287 . S
C5172 C5173 1.524 . S
C5172 H5191 0.913 . S
C5173 H5149 0.950 . S
C5173 C5172 1.524 . S
C5173 C5174 1.415 . S
C5174 H5150 0.950 . S
C5174 C5169 1.363 . S
C5174 C5173 1.415 . S
C5175 H5151 0.951 . S
C5175 C5176 1.366 . S
C5175 C5177 1.388 . S
C5176 C5175 1.366 . S
C5176 C5180 1.385 . S
C5177 H5152 0.951 . S
C5177 C5175 1.388 . S
C5177 C5178 1.366 . S
C5178 C5177 1.366 . S
C5178 C5179 1.414 . S
C5178 C5181 1.499 . S
C5179 H5153 0.950 . S
C5179 C5178 1.414 . S
C5179 C5180 1.374 . S
C5180 H5154 0.950 . S
C5180 C5176 1.385 . S
C5180 C5179 1.374 . S
C5181 C5178 1.499 . S
C5181 C5182 1.373 . S
C5181 C5183 1.389 . S
C5182 H5155 0.950 . S
C5182 C5168 1.377 . S
C5182 C5181 1.373 . S
C5183 C5167 1.377 . S
C5183 C5181 1.389 . S
C5183 C5184 1.524 . S
C5184 C5183 1.524 . S
C5184 C5185 1.397 . S
C5184 C5189 1.363 . S
C5185 H5156 0.950 . S
C5185 C5184 1.397 . S
C5185 C5186 1.334 . S
C5186 H5157 0.950 . S
C5186 C5185 1.334 . S
C5186 C5187 1.287 . S
C5187 C5186 1.287 . S
C5187 C5188 1.524 . S
C5187 H5190 0.999 . S
C5188 H5158 0.950 . S
C5188 C5187 1.524 . S
C5188 C5189 1.415 . S
C5189 H5159 0.950 . S
C5189 C5184 1.363 . S
C5189 C5188 1.415 . S
H5190 C5187 0.999 . S
H5191 C5172 0.913 . S
H5192 C5210 0.951 . S
H5193 C5212 0.951 . S
H5194 C5214 0.950 . S
H5195 C5215 0.950 . S
H5196 C5217 0.950 . S
H5197 C5220 0.950 . S
H5198 C5221 0.950 . S
H5199 C5223 0.950 . S
H5200 C5224 0.950 . S
H5201 C5225 0.951 . S
H5202 C5227 0.951 . S
H5203 C5229 0.950 . S
H5204 C5230 0.950 . S
H5205 C5232 0.950 . S
H5206 C5235 0.950 . S
H5207 C5236 0.950 . S
H5208 C5238 0.950 . S
H5209 C5239 0.950 . S
C5210 H5192 0.951 . S
C5210 C5211 1.366 . S
C5210 C5212 1.388 . S
C5211 C5210 1.366 . S
C5211 C5215 1.385 . S
C5212 H5193 0.951 . S
C5212 C5210 1.388 . S
C5212 C5213 1.366 . S
C5213 C5212 1.366 . S
C5213 C5214 1.414 . S
C5213 C5216 1.499 . S
C5214 H5194 0.950 . S
C5214 C5213 1.414 . S
C5214 C5215 1.374 . S
C5215 H5195 0.950 . S
C5215 C5211 1.385 . S
C5215 C5214 1.374 . S
C5216 C5213 1.499 . S
C5216 C5217 1.373 . S
C5216 C5218 1.389 . S
C5217 H5196 0.950 . S
C5217 C5216 1.373 . S
C5217 C5233 1.377 . S
C5218 C5216 1.389 . S
C5218 C5219 1.524 . S
C5218 C5232 1.377 . S
C5219 C5218 1.524 . S
C5219 C5220 1.397 . S
C5219 C5224 1.363 . S
C5220 H5197 0.950 . S
C5220 C5219 1.397 . S
C5220 C5221 1.334 . S
C5221 H5198 0.950 . S
C5221 C5220 1.334 . S
C5221 C5222 1.287 . S
C5222 C5221 1.287 . S
C5222 C5223 1.524 . S
C5222 H5241 0.913 . S
C5223 H5199 0.950 . S
C5223 C5222 1.524 . S
C5223 C5224 1.415 . S
C5224 H5200 0.950 . S
C5224 C5219 1.363 . S
C5224 C5223 1.415 . S
C5225 H5201 0.951 . S
C5225 C5226 1.366 . S
C5225 C5227 1.388 . S
C5226 C5225 1.366 . S
C5226 C5230 1.385 . S
C5227 H5202 0.951 . S
C5227 C5225 1.388 . S
C5227 C5228 1.366 . S
C5228 C5227 1.366 . S
C5228 C5229 1.414 . S
C5228 C5231 1.499 . S
C5229 H5203 0.950 . S
C5229 C5228 1.414 . S
C5229 C5230 1.374 . S
C5230 H5204 0.950 . S
C5230 C5226 1.385 . S
C5230 C5229 1.374 . S
C5231 C5228 1.499 . S
C5231 C5232 1.373 . S
C5231 C5233 1.389 . S
C5232 H5205 0.950 . S
C5232 C5218 1.377 . S
C5232 C5231 1.373 . S
C5233 C5217 1.377 . S
C5233 C5231 1.389 . S
C5233 C5234 1.524 . S
C5234 C5233 1.524 . S
C5234 C5235 1.397 . S
C5234 C5239 1.363 . S
C5235 H5206 0.950 . S
C5235 C5234 1.397 . S
C5235 C5236 1.334 . S
C5236 H5207 0.950 . S
C5236 C5235 1.334 . S
C5236 C5237 1.287 . S
C5237 C5236 1.287 . S
C5237 C5238 1.524 . S
C5237 H5240 0.999 . S
C5238 H5208 0.950 . S
C5238 C5237 1.524 . S
C5238 C5239 1.415 . S
C5239 H5209 0.950 . S
C5239 C5234 1.363 . S
C5239 C5238 1.415 . S
H5240 C5237 0.999 . S
H5241 C5222 0.913 . S
H5242 C5260 0.951 . S
H5243 C5262 0.951 . S
H5244 C5264 0.950 . S
H5245 C5265 0.950 . S
H5246 C5267 0.950 . S
H5247 C5270 0.950 . S
H5248 C5271 0.950 . S
H5249 C5273 0.950 . S
H5250 C5274 0.950 . S
H5251 C5275 0.951 . S
H5252 C5277 0.951 . S
H5253 C5279 0.950 . S
H5254 C5280 0.950 . S
H5255 C5282 0.950 . S
H5256 C5285 0.950 . S
H5257 C5286 0.950 . S
H5258 C5288 0.950 . S
H5259 C5289 0.950 . S
C5260 H5242 0.951 . S
C5260 C5261 1.366 . S
C5260 C5262 1.388 . S
C5261 C5260 1.366 . S
C5261 C5265 1.385 . S
C5262 H5243 0.951 . S
C5262 C5260 1.388 . S
C5262 C5263 1.366 . S
C5263 C5262 1.366 . S
C5263 C5264 1.414 . S
C5263 C5266 1.499 . S
C5264 H5244 0.950 . S
C5264 C5263 1.414 . S
C5264 C5265 1.374 . S
C5265 H5245 0.950 . S
C5265 C5261 1.385 . S
C5265 C5264 1.374 . S
C5266 C5263 1.499 . S
C5266 C5267 1.373 . S
C5266 C5268 1.389 . S
C5267 H5246 0.950 . S
C5267 C5266 1.373 . S
C5267 C5283 1.377 . S
C5268 C5266 1.389 . S
C5268 C5269 1.524 . S
C5268 C5282 1.377 . S
C5269 C5268 1.524 . S
C5269 C5270 1.397 . S
C5269 C5274 1.363 . S
C5270 H5247 0.950 . S
C5270 C5269 1.397 . S
C5270 C5271 1.334 . S
C5271 H5248 0.950 . S
C5271 C5270 1.334 . S
C5271 C5272 1.287 . S
C5272 C5271 1.287 . S
C5272 C5273 1.524 . S
C5272 H5291 0.913 . S
C5273 H5249 0.950 . S
C5273 C5272 1.524 . S
C5273 C5274 1.415 . S
C5274 H5250 0.950 . S
C5274 C5269 1.363 . S
C5274 C5273 1.415 . S
C5275 H5251 0.951 . S
C5275 C5276 1.366 . S
C5275 C5277 1.388 . S
C5276 C5275 1.366 . S
C5276 C5280 1.385 . S
C5277 H5252 0.951 . S
C5277 C5275 1.388 . S
C5277 C5278 1.366 . S
C5278 C5277 1.366 . S
C5278 C5279 1.414 . S
C5278 C5281 1.499 . S
C5279 H5253 0.950 . S
C5279 C5278 1.414 . S
C5279 C5280 1.374 . S
C5280 H5254 0.950 . S
C5280 C5276 1.385 . S
C5280 C5279 1.374 . S
C5281 C5278 1.499 . S
C5281 C5282 1.373 . S
C5281 C5283 1.389 . S
C5282 H5255 0.950 . S
C5282 C5268 1.377 . S
C5282 C5281 1.373 . S
C5283 C5267 1.377 . S
C5283 C5281 1.389 . S
C5283 C5284 1.524 . S
C5284 C5283 1.524 . S
C5284 C5285 1.397 . S
C5284 C5289 1.363 . S
C5285 H5256 0.950 . S
C5285 C5284 1.397 . S
C5285 C5286 1.334 . S
C5286 H5257 0.950 . S
C5286 C5285 1.334 . S
C5286 C5287 1.287 . S
C5287 C5286 1.287 . S
C5287 C5288 1.524 . S
C5287 H5290 0.999 . S
C5288 H5258 0.950 . S
C5288 C5287 1.524 . S
C5288 C5289 1.415 . S
C5289 H5259 0.950 . S
C5289 C5284 1.363 . S
C5289 C5288 1.415 . S
H5290 C5287 0.999 . S
H5291 C5272 0.913 . S
H5292 C5310 0.951 . S
H5293 C5312 0.951 . S
H5294 C5314 0.950 . S
H5295 C5315 0.950 . S
H5296 C5317 0.950 . S
H5297 C5320 0.950 . S
H5298 C5321 0.950 . S
H5299 C5323 0.950 . S
H5300 C5324 0.950 . S
H5301 C5325 0.951 . S
H5302 C5327 0.951 . S
H5303 C5329 0.950 . S
H5304 C5330 0.950 . S
H5305 C5332 0.950 . S
H5306 C5335 0.950 . S
H5307 C5336 0.950 . S
H5308 C5338 0.950 . S
H5309 C5339 0.950 . S
C5310 H5292 0.951 . S
C5310 C5311 1.366 . S
C5310 C5312 1.388 . S
C5311 C5310 1.366 . S
C5311 C5315 1.385 . S
C5312 H5293 0.951 . S
C5312 C5310 1.388 . S
C5312 C5313 1.366 . S
C5313 C5312 1.366 . S
C5313 C5314 1.414 . S
C5313 C5316 1.499 . S
C5314 H5294 0.950 . S
C5314 C5313 1.414 . S
C5314 C5315 1.374 . S
C5315 H5295 0.950 . S
C5315 C5311 1.385 . S
C5315 C5314 1.374 . S
C5316 C5313 1.499 . S
C5316 C5317 1.373 . S
C5316 C5318 1.389 . S
C5317 H5296 0.950 . S
C5317 C5316 1.373 . S
C5317 C5333 1.377 . S
C5318 C5316 1.389 . S
C5318 C5319 1.524 . S
C5318 C5332 1.377 . S
C5319 C5318 1.524 . S
C5319 C5320 1.397 . S
C5319 C5324 1.363 . S
C5320 H5297 0.950 . S
C5320 C5319 1.397 . S
C5320 C5321 1.334 . S
C5321 H5298 0.950 . S
C5321 C5320 1.334 . S
C5321 C5322 1.287 . S
C5322 C5321 1.287 . S
C5322 C5323 1.524 . S
C5322 H5341 0.913 . S
C5323 H5299 0.950 . S
C5323 C5322 1.524 . S
C5323 C5324 1.415 . S
C5324 H5300 0.950 . S
C5324 C5319 1.363 . S
C5324 C5323 1.415 . S
C5325 H5301 0.951 . S
C5325 C5326 1.366 . S
C5325 C5327 1.388 . S
C5326 C5325 1.366 . S
C5326 C5330 1.385 . S
C5327 H5302 0.951 . S
C5327 C5325 1.388 . S
C5327 C5328 1.366 . S
C5328 C5327 1.366 . S
C5328 C5329 1.414 . S
C5328 C5331 1.499 . S
C5329 H5303 0.950 . S
C5329 C5328 1.414 . S
C5329 C5330 1.374 . S
C5330 H5304 0.950 . S
C5330 C5326 1.385 . S
C5330 C5329 1.374 . S
C5331 C5328 1.499 . S
C5331 C5332 1.373 . S
C5331 C5333 1.389 . S
C5332 H5305 0.950 . S
C5332 C5318 1.377 . S
C5332 C5331 1.373 . S
C5333 C5317 1.377 . S
C5333 C5331 1.389 . S
C5333 C5334 1.524 . S
C5334 C5333 1.524 . S
C5334 C5335 1.397 . S
C5334 C5339 1.363 . S
C5335 H5306 0.950 . S
C5335 C5334 1.397 . S
C5335 C5336 1.334 . S
C5336 H5307 0.950 . S
C5336 C5335 1.334 . S
C5336 C5337 1.287 . S
C5337 C5336 1.287 . S
C5337 C5338 1.524 . S
C5337 H5340 0.999 . S
C5338 H5308 0.950 . S
C5338 C5337 1.524 . S
C5338 C5339 1.415 . S
C5339 H5309 0.950 . S
C5339 C5334 1.363 . S
C5339 C5338 1.415 . S
H5340 C5337 0.999 . S
H5341 C5322 0.913 . S
H5342 C5360 0.951 . S
H5343 C5362 0.951 . S
H5344 C5364 0.950 . S
H5345 C5365 0.950 . S
H5346 C5367 0.950 . S
H5347 C5370 0.950 . S
H5348 C5371 0.950 . S
H5349 C5373 0.950 . S
H5350 C5374 0.950 . S
H5351 C5375 0.951 . S
H5352 C5377 0.951 . S
H5353 C5379 0.950 . S
H5354 C5380 0.950 . S
H5355 C5382 0.950 . S
H5356 C5385 0.950 . S
H5357 C5386 0.950 . S
H5358 C5388 0.950 . S
H5359 C5389 0.950 . S
C5360 H5342 0.951 . S
C5360 C5361 1.366 . S
C5360 C5362 1.388 . S
C5361 C5360 1.366 . S
C5361 C5365 1.385 . S
C5362 H5343 0.951 . S
C5362 C5360 1.388 . S
C5362 C5363 1.366 . S
C5363 C5362 1.366 . S
C5363 C5364 1.414 . S
C5363 C5366 1.499 . S
C5364 H5344 0.950 . S
C5364 C5363 1.414 . S
C5364 C5365 1.374 . S
C5365 H5345 0.950 . S
C5365 C5361 1.385 . S
C5365 C5364 1.374 . S
C5366 C5363 1.499 . S
C5366 C5367 1.373 . S
C5366 C5368 1.389 . S
C5367 H5346 0.950 . S
C5367 C5366 1.373 . S
C5367 C5383 1.377 . S
C5368 C5366 1.389 . S
C5368 C5369 1.524 . S
C5368 C5382 1.377 . S
C5369 C5368 1.524 . S
C5369 C5370 1.397 . S
C5369 C5374 1.363 . S
C5370 H5347 0.950 . S
C5370 C5369 1.397 . S
C5370 C5371 1.334 . S
C5371 H5348 0.950 . S
C5371 C5370 1.334 . S
C5371 C5372 1.287 . S
C5372 C5371 1.287 . S
C5372 C5373 1.524 . S
C5372 H5391 0.913 . S
C5373 H5349 0.950 . S
C5373 C5372 1.524 . S
C5373 C5374 1.415 . S
C5374 H5350 0.950 . S
C5374 C5369 1.363 . S
C5374 C5373 1.415 . S
C5375 H5351 0.951 . S
C5375 C5376 1.366 . S
C5375 C5377 1.388 . S
C5376 C5375 1.366 . S
C5376 C5380 1.385 . S
C5377 H5352 0.951 . S
C5377 C5375 1.388 . S
C5377 C5378 1.366 . S
C5378 C5377 1.366 . S
C5378 C5379 1.414 . S
C5378 C5381 1.499 . S
C5379 H5353 0.950 . S
C5379 C5378 1.414 . S
C5379 C5380 1.374 . S
C5380 H5354 0.950 . S
C5380 C5376 1.385 . S
C5380 C5379 1.374 . S
C5381 C5378 1.499 . S
C5381 C5382 1.373 . S
C5381 C5383 1.389 . S
C5382 H5355 0.950 . S
C5382 C5368 1.377 . S
C5382 C5381 1.373 . S
C5383 C5367 1.377 . S
C5383 C5381 1.389 . S
C5383 C5384 1.524 . S
C5384 C5383 1.524 . S
C5384 C5385 1.397 . S
C5384 C5389 1.363 . S
C5385 H5356 0.950 . S
C5385 C5384 1.397 . S
C5385 C5386 1.334 . S
C5386 H5357 0.950 . S
C5386 C5385 1.334 . S
C5386 C5387 1.287 . S
C5387 C5386 1.287 . S
C5387 C5388 1.524 . S
C5387 H5390 0.999 . S
C5388 H5358 0.950 . S
C5388 C5387 1.524 . S
C5388 C5389 1.415 . S
C5389 H5359 0.950 . S
C5389 C5384 1.363 . S
C5389 C5388 1.415 . S
H5390 C5387 0.999 . S
H5391 C5372 0.913 . S
H5392 C5410 0.951 . S
H5393 C5412 0.951 . S
H5394 C5414 0.950 . S
H5395 C5415 0.950 . S
H5396 C5417 0.950 . S
H5397 C5420 0.950 . S
H5398 C5421 0.950 . S
H5399 C5423 0.950 . S
H5400 C5424 0.950 . S
H5401 C5425 0.951 . S
H5402 C5427 0.951 . S
H5403 C5429 0.950 . S
H5404 C5430 0.950 . S
H5405 C5432 0.950 . S
H5406 C5435 0.950 . S
H5407 C5436 0.950 . S
H5408 C5438 0.950 . S
H5409 C5439 0.950 . S
C5410 H5392 0.951 . S
C5410 C5411 1.366 . S
C5410 C5412 1.388 . S
C5411 C5410 1.366 . S
C5411 C5415 1.385 . S
C5412 H5393 0.951 . S
C5412 C5410 1.388 . S
C5412 C5413 1.366 . S
C5413 C5412 1.366 . S
C5413 C5414 1.414 . S
C5413 C5416 1.499 . S
C5414 H5394 0.950 . S
C5414 C5413 1.414 . S
C5414 C5415 1.374 . S
C5415 H5395 0.950 . S
C5415 C5411 1.385 . S
C5415 C5414 1.374 . S
C5416 C5413 1.499 . S
C5416 C5417 1.373 . S
C5416 C5418 1.389 . S
C5417 H5396 0.950 . S
C5417 C5416 1.373 . S
C5417 C5433 1.377 . S
C5418 C5416 1.389 . S
C5418 C5419 1.524 . S
C5418 C5432 1.377 . S
C5419 C5418 1.524 . S
C5419 C5420 1.397 . S
C5419 C5424 1.363 . S
C5420 H5397 0.950 . S
C5420 C5419 1.397 . S
C5420 C5421 1.334 . S
C5421 H5398 0.950 . S
C5421 C5420 1.334 . S
C5421 C5422 1.287 . S
C5422 C5421 1.287 . S
C5422 C5423 1.524 . S
C5422 H5441 0.913 . S
C5423 H5399 0.950 . S
C5423 C5422 1.524 . S
C5423 C5424 1.415 . S
C5424 H5400 0.950 . S
C5424 C5419 1.363 . S
C5424 C5423 1.415 . S
C5425 H5401 0.951 . S
C5425 C5426 1.366 . S
C5425 C5427 1.388 . S
C5426 C5425 1.366 . S
C5426 C5430 1.385 . S
C5427 H5402 0.951 . S
C5427 C5425 1.388 . S
C5427 C5428 1.366 . S
C5428 C5427 1.366 . S
C5428 C5429 1.414 . S
C5428 C5431 1.499 . S
C5429 H5403 0.950 . S
C5429 C5428 1.414 . S
C5429 C5430 1.374 . S
C5430 H5404 0.950 . S
C5430 C5426 1.385 . S
C5430 C5429 1.374 . S
C5431 C5428 1.499 . S
C5431 C5432 1.373 . S
C5431 C5433 1.389 . S
C5432 H5405 0.950 . S
C5432 C5418 1.377 . S
C5432 C5431 1.373 . S
C5433 C5417 1.377 . S
C5433 C5431 1.389 . S
C5433 C5434 1.524 . S
C5434 C5433 1.524 . S
C5434 C5435 1.397 . S
C5434 C5439 1.363 . S
C5435 H5406 0.950 . S
C5435 C5434 1.397 . S
C5435 C5436 1.334 . S
C5436 H5407 0.950 . S
C5436 C5435 1.334 . S
C5436 C5437 1.287 . S
C5437 C5436 1.287 . S
C5437 C5438 1.524 . S
C5437 H5440 0.999 . S
C5438 H5408 0.950 . S
C5438 C5437 1.524 . S
C5438 C5439 1.415 . S
C5439 H5409 0.950 . S
C5439 C5434 1.363 . S
C5439 C5438 1.415 . S
H5440 C5437 0.999 . S
H5441 C5422 0.913 . S
H5442 C5460 0.951 . S
H5443 C5462 0.951 . S
H5444 C5464 0.950 . S
H5445 C5465 0.950 . S
H5446 C5467 0.950 . S
H5447 C5470 0.950 . S
H5448 C5471 0.950 . S
H5449 C5473 0.950 1_565 S
H5450 C5474 0.950 . S
H5451 C5475 0.951 . S
H5452 C5477 0.951 . S
H5453 C5479 0.950 . S
H5454 C5480 0.950 . S
H5455 C5482 0.950 . S
H5456 C5485 0.950 . S
H5457 C5486 0.950 . S
H5458 C5488 0.950 . S
H5459 C5489 0.950 . S
C5460 H5442 0.951 . S
C5460 C5461 1.366 . S
C5460 C5462 1.388 . S
C5461 C5460 1.366 . S
C5461 C5465 1.385 . S
C5462 H5443 0.951 . S
C5462 C5460 1.388 . S
C5462 C5463 1.366 . S
C5463 C5462 1.366 . S
C5463 C5464 1.414 . S
C5463 C5466 1.499 . S
C5464 H5444 0.950 . S
C5464 C5463 1.414 . S
C5464 C5465 1.374 . S
C5465 H5445 0.950 . S
C5465 C5461 1.385 . S
C5465 C5464 1.374 . S
C5466 C5463 1.499 . S
C5466 C5467 1.373 . S
C5466 C5468 1.389 . S
C5467 H5446 0.950 . S
C5467 C5466 1.373 . S
C5467 C5483 1.377 . S
C5468 C5466 1.389 . S
C5468 C5469 1.524 . S
C5468 C5482 1.377 . S
C5469 C5468 1.524 . S
C5469 C5470 1.397 . S
C5469 C5474 1.363 . S
C5470 H5447 0.950 . S
C5470 C5469 1.397 . S
C5470 C5471 1.334 . S
C5471 H5448 0.950 . S
C5471 C5470 1.334 . S
C5471 C5472 1.319 . S
C5472 C5471 1.319 . S
C5472 C5473 1.522 . S
C5472 H5491 0.880 1_545 S
C5473 H5449 0.950 1_545 S
C5473 C5472 1.522 . S
C5473 C5474 1.415 . S
C5474 H5450 0.950 . S
C5474 C5469 1.363 . S
C5474 C5473 1.415 . S
C5475 H5451 0.951 . S
C5475 C5476 1.366 . S
C5475 C5477 1.388 . S
C5476 C5475 1.366 . S
C5476 C5480 1.385 . S
C5477 H5452 0.951 . S
C5477 C5475 1.388 . S
C5477 C5478 1.366 . S
C5478 C5477 1.366 . S
C5478 C5479 1.414 . S
C5478 C5481 1.499 . S
C5479 H5453 0.950 . S
C5479 C5478 1.414 . S
C5479 C5480 1.374 . S
C5480 H5454 0.950 . S
C5480 C5476 1.385 . S
C5480 C5479 1.374 . S
C5481 C5478 1.499 . S
C5481 C5482 1.373 . S
C5481 C5483 1.389 . S
C5482 H5455 0.950 . S
C5482 C5468 1.377 . S
C5482 C5481 1.373 . S
C5483 C5467 1.377 . S
C5483 C5481 1.389 . S
C5483 C5484 1.524 . S
C5484 C5483 1.524 . S
C5484 C5485 1.397 . S
C5484 C5489 1.363 . S
C5485 H5456 0.950 . S
C5485 C5484 1.397 . S
C5485 C5486 1.334 . S
C5486 H5457 0.950 . S
C5486 C5485 1.334 . S
C5486 C5487 1.287 . S
C5487 C5486 1.287 . S
C5487 C5488 1.524 . S
C5487 H5490 0.999 . S
C5488 H5458 0.950 . S
C5488 C5487 1.524 . S
C5488 C5489 1.415 . S
C5489 H5459 0.950 . S
C5489 C5484 1.363 . S
C5489 C5488 1.415 . S
H5490 C5487 0.999 . S
H5491 C5472 0.880 1_565 S
H5492 C5510 0.951 . S
H5493 C5512 0.951 . S
H5494 C5514 0.950 . S
H5495 C5515 0.950 . S
H5496 C5517 0.950 . S
H5497 C5520 0.950 . S
H5498 C5521 0.950 . S
H5499 C5523 0.950 . S
H5500 C5524 0.950 . S
H5501 C5525 0.951 . S
H5502 C5527 0.951 . S
H5503 C5529 0.950 . S
H5504 C5530 0.950 . S
H5505 C5532 0.950 . S
H5506 C5535 0.950 . S
H5507 C5536 0.950 . S
H5508 C5538 0.950 . S
H5509 C5539 0.950 . S
C5510 H5492 0.951 . S
C5510 C5511 1.366 . S
C5510 C5512 1.388 . S
C5511 C5510 1.366 . S
C5511 C5515 1.385 . S
C5512 H5493 0.951 . S
C5512 C5510 1.388 . S
C5512 C5513 1.366 . S
C5513 C5512 1.366 . S
C5513 C5514 1.414 . S
C5513 C5516 1.499 . S
C5514 H5494 0.950 . S
C5514 C5513 1.414 . S
C5514 C5515 1.374 . S
C5515 H5495 0.950 . S
C5515 C5511 1.385 . S
C5515 C5514 1.374 . S
C5516 C5513 1.499 . S
C5516 C5517 1.373 . S
C5516 C5518 1.389 . S
C5517 H5496 0.950 . S
C5517 C5516 1.373 . S
C5517 C5533 1.377 . S
C5518 C5516 1.389 . S
C5518 C5519 1.524 . S
C5518 C5532 1.377 . S
C5519 C5518 1.524 . S
C5519 C5520 1.397 . S
C5519 C5524 1.363 . S
C5520 H5497 0.950 . S
C5520 C5519 1.397 . S
C5520 C5521 1.334 . S
C5521 H5498 0.950 . S
C5521 C5520 1.334 . S
C5521 C5522 1.287 . S
C5522 C5521 1.287 . S
C5522 C5523 1.524 . S
C5522 H5541 0.913 . S
C5523 H5499 0.950 . S
C5523 C5522 1.524 . S
C5523 C5524 1.415 . S
C5524 H5500 0.950 . S
C5524 C5519 1.363 . S
C5524 C5523 1.415 . S
C5525 H5501 0.951 . S
C5525 C5526 1.366 . S
C5525 C5527 1.388 . S
C5526 C5525 1.366 . S
C5526 C5530 1.385 . S
C5527 H5502 0.951 . S
C5527 C5525 1.388 . S
C5527 C5528 1.366 . S
C5528 C5527 1.366 . S
C5528 C5529 1.414 . S
C5528 C5531 1.499 . S
C5529 H5503 0.950 . S
C5529 C5528 1.414 . S
C5529 C5530 1.374 . S
C5530 H5504 0.950 . S
C5530 C5526 1.385 . S
C5530 C5529 1.374 . S
C5531 C5528 1.499 . S
C5531 C5532 1.373 . S
C5531 C5533 1.389 . S
C5532 H5505 0.950 . S
C5532 C5518 1.377 . S
C5532 C5531 1.373 . S
C5533 C5517 1.377 . S
C5533 C5531 1.389 . S
C5533 C5534 1.524 . S
C5534 C5533 1.524 . S
C5534 C5535 1.397 . S
C5534 C5539 1.363 . S
C5535 H5506 0.950 . S
C5535 C5534 1.397 . S
C5535 C5536 1.334 . S
C5536 H5507 0.950 . S
C5536 C5535 1.334 . S
C5536 C5537 1.287 . S
C5537 C5536 1.287 . S
C5537 C5538 1.524 . S
C5537 H5540 0.999 . S
C5538 H5508 0.950 . S
C5538 C5537 1.524 . S
C5538 C5539 1.415 . S
C5539 H5509 0.950 . S
C5539 C5534 1.363 . S
C5539 C5538 1.415 . S
H5540 C5537 0.999 . S
H5541 C5522 0.913 . S
H5542 C5560 0.951 . S
H5543 C5562 0.951 . S
H5544 C5564 0.950 . S
H5545 C5565 0.950 . S
H5546 C5567 0.950 . S
H5547 C5570 0.950 . S
H5548 C5571 0.950 . S
H5549 C5573 0.950 . S
H5550 C5574 0.950 . S
H5551 C5575 0.951 . S
H5552 C5577 0.951 . S
H5553 C5579 0.950 . S
H5554 C5580 0.950 . S
H5555 C5582 0.950 . S
H5556 C5585 0.950 . S
H5557 C5586 0.950 . S
H5558 C5588 0.950 . S
H5559 C5589 0.950 . S
C5560 H5542 0.951 . S
C5560 C5561 1.366 . S
C5560 C5562 1.388 . S
C5561 C5560 1.366 . S
C5561 C5565 1.385 . S
C5562 H5543 0.951 . S
C5562 C5560 1.388 . S
C5562 C5563 1.366 . S
C5563 C5562 1.366 . S
C5563 C5564 1.414 . S
C5563 C5566 1.499 . S
C5564 H5544 0.950 . S
C5564 C5563 1.414 . S
C5564 C5565 1.374 . S
C5565 H5545 0.950 . S
C5565 C5561 1.385 . S
C5565 C5564 1.374 . S
C5566 C5563 1.499 . S
C5566 C5567 1.373 . S
C5566 C5568 1.389 . S
C5567 H5546 0.950 . S
C5567 C5566 1.373 . S
C5567 C5583 1.377 . S
C5568 C5566 1.389 . S
C5568 C5569 1.524 . S
C5568 C5582 1.377 . S
C5569 C5568 1.524 . S
C5569 C5570 1.397 . S
C5569 C5574 1.363 . S
C5570 H5547 0.950 . S
C5570 C5569 1.397 . S
C5570 C5571 1.334 . S
C5571 H5548 0.950 . S
C5571 C5570 1.334 . S
C5571 C5572 1.287 . S
C5572 C5571 1.287 . S
C5572 C5573 1.524 . S
C5572 H5591 0.913 . S
C5573 H5549 0.950 . S
C5573 C5572 1.524 . S
C5573 C5574 1.415 . S
C5574 H5550 0.950 . S
C5574 C5569 1.363 . S
C5574 C5573 1.415 . S
C5575 H5551 0.951 . S
C5575 C5576 1.366 . S
C5575 C5577 1.388 . S
C5576 C5575 1.366 . S
C5576 C5580 1.385 . S
C5577 H5552 0.951 . S
C5577 C5575 1.388 . S
C5577 C5578 1.366 . S
C5578 C5577 1.366 . S
C5578 C5579 1.414 . S
C5578 C5581 1.499 . S
C5579 H5553 0.950 . S
C5579 C5578 1.414 . S
C5579 C5580 1.374 . S
C5580 H5554 0.950 . S
C5580 C5576 1.385 . S
C5580 C5579 1.374 . S
C5581 C5578 1.499 . S
C5581 C5582 1.373 . S
C5581 C5583 1.389 . S
C5582 H5555 0.950 . S
C5582 C5568 1.377 . S
C5582 C5581 1.373 . S
C5583 C5567 1.377 . S
C5583 C5581 1.389 . S
C5583 C5584 1.524 . S
C5584 C5583 1.524 . S
C5584 C5585 1.397 . S
C5584 C5589 1.363 . S
C5585 H5556 0.950 . S
C5585 C5584 1.397 . S
C5585 C5586 1.334 . S
C5586 H5557 0.950 . S
C5586 C5585 1.334 . S
C5586 C5587 1.287 . S
C5587 C5586 1.287 . S
C5587 C5588 1.524 . S
C5587 H5590 0.999 . S
C5588 H5558 0.950 . S
C5588 C5587 1.524 . S
C5588 C5589 1.415 . S
C5589 H5559 0.950 . S
C5589 C5584 1.363 . S
C5589 C5588 1.415 . S
H5590 C5587 0.999 . S
H5591 C5572 0.913 . S
H5592 C5610 0.951 . S
H5593 C5612 0.951 . S
H5594 C5614 0.950 . S
H5595 C5615 0.950 . S
H5596 C5617 0.950 . S
H5597 C5620 0.950 . S
H5598 C5621 0.950 . S
H5599 C5623 0.950 . S
H5600 C5624 0.950 . S
H5601 C5625 0.951 . S
H5602 C5627 0.951 . S
H5603 C5629 0.950 . S
H5604 C5630 0.950 . S
H5605 C5632 0.950 . S
H5606 C5635 0.950 . S
H5607 C5636 0.950 . S
H5608 C5638 0.950 . S
H5609 C5639 0.950 . S
C5610 H5592 0.951 . S
C5610 C5611 1.366 . S
C5610 C5612 1.388 . S
C5611 C5610 1.366 . S
C5611 C5615 1.385 . S
C5612 H5593 0.951 . S
C5612 C5610 1.388 . S
C5612 C5613 1.366 . S
C5613 C5612 1.366 . S
C5613 C5614 1.414 . S
C5613 C5616 1.499 . S
C5614 H5594 0.950 . S
C5614 C5613 1.414 . S
C5614 C5615 1.374 . S
C5615 H5595 0.950 . S
C5615 C5611 1.385 . S
C5615 C5614 1.374 . S
C5616 C5613 1.499 . S
C5616 C5617 1.373 . S
C5616 C5618 1.389 . S
C5617 H5596 0.950 . S
C5617 C5616 1.373 . S
C5617 C5633 1.377 . S
C5618 C5616 1.389 . S
C5618 C5619 1.524 . S
C5618 C5632 1.377 . S
C5619 C5618 1.524 . S
C5619 C5620 1.397 . S
C5619 C5624 1.363 . S
C5620 H5597 0.950 . S
C5620 C5619 1.397 . S
C5620 C5621 1.334 . S
C5621 H5598 0.950 . S
C5621 C5620 1.334 . S
C5621 C5622 1.287 . S
C5622 C5621 1.287 . S
C5622 C5623 1.524 . S
C5622 H5641 0.913 . S
C5623 H5599 0.950 . S
C5623 C5622 1.524 . S
C5623 C5624 1.415 . S
C5624 H5600 0.950 . S
C5624 C5619 1.363 . S
C5624 C5623 1.415 . S
C5625 H5601 0.951 . S
C5625 C5626 1.366 . S
C5625 C5627 1.388 . S
C5626 C5625 1.366 . S
C5626 C5630 1.385 . S
C5627 H5602 0.951 . S
C5627 C5625 1.388 . S
C5627 C5628 1.366 . S
C5628 C5627 1.366 . S
C5628 C5629 1.414 . S
C5628 C5631 1.499 . S
C5629 H5603 0.950 . S
C5629 C5628 1.414 . S
C5629 C5630 1.374 . S
C5630 H5604 0.950 . S
C5630 C5626 1.385 . S
C5630 C5629 1.374 . S
C5631 C5628 1.499 . S
C5631 C5632 1.373 . S
C5631 C5633 1.389 . S
C5632 H5605 0.950 . S
C5632 C5618 1.377 . S
C5632 C5631 1.373 . S
C5633 C5617 1.377 . S
C5633 C5631 1.389 . S
C5633 C5634 1.524 . S
C5634 C5633 1.524 . S
C5634 C5635 1.397 . S
C5634 C5639 1.363 . S
C5635 H5606 0.950 . S
C5635 C5634 1.397 . S
C5635 C5636 1.334 . S
C5636 H5607 0.950 . S
C5636 C5635 1.334 . S
C5636 C5637 1.287 . S
C5637 C5636 1.287 . S
C5637 C5638 1.524 . S
C5637 H5640 0.999 . S
C5638 H5608 0.950 . S
C5638 C5637 1.524 . S
C5638 C5639 1.415 . S
C5639 H5609 0.950 . S
C5639 C5634 1.363 . S
C5639 C5638 1.415 . S
H5640 C5637 0.999 . S
H5641 C5622 0.913 . S
H5642 C5660 0.951 . S
H5643 C5662 0.951 . S
H5644 C5664 0.950 . S
H5645 C5665 0.950 . S
H5646 C5667 0.950 . S
H5647 C5670 0.950 . S
H5648 C5671 0.950 . S
H5649 C5673 0.950 . S
H5650 C5674 0.950 . S
H5651 C5675 0.951 . S
H5652 C5677 0.951 . S
H5653 C5679 0.950 . S
H5654 C5680 0.950 . S
H5655 C5682 0.950 . S
H5656 C5685 0.950 . S
H5657 C5686 0.950 . S
H5658 C5688 0.950 . S
H5659 C5689 0.950 . S
C5660 H5642 0.951 . S
C5660 C5661 1.366 . S
C5660 C5662 1.388 . S
C5661 C5660 1.366 . S
C5661 C5665 1.385 . S
C5662 H5643 0.951 . S
C5662 C5660 1.388 . S
C5662 C5663 1.366 . S
C5663 C5662 1.366 . S
C5663 C5664 1.414 . S
C5663 C5666 1.499 . S
C5664 H5644 0.950 . S
C5664 C5663 1.414 . S
C5664 C5665 1.374 . S
C5665 H5645 0.950 . S
C5665 C5661 1.385 . S
C5665 C5664 1.374 . S
C5666 C5663 1.499 . S
C5666 C5667 1.373 . S
C5666 C5668 1.389 . S
C5667 H5646 0.950 . S
C5667 C5666 1.373 . S
C5667 C5683 1.377 . S
C5668 C5666 1.389 . S
C5668 C5669 1.524 . S
C5668 C5682 1.377 . S
C5669 C5668 1.524 . S
C5669 C5670 1.397 . S
C5669 C5674 1.363 . S
C5670 H5647 0.950 . S
C5670 C5669 1.397 . S
C5670 C5671 1.334 . S
C5671 H5648 0.950 . S
C5671 C5670 1.334 . S
C5671 C5672 1.287 . S
C5672 C5671 1.287 . S
C5672 C5673 1.524 . S
C5672 H5691 0.913 . S
C5673 H5649 0.950 . S
C5673 C5672 1.524 . S
C5673 C5674 1.415 . S
C5674 H5650 0.950 . S
C5674 C5669 1.363 . S
C5674 C5673 1.415 . S
C5675 H5651 0.951 . S
C5675 C5676 1.366 . S
C5675 C5677 1.388 . S
C5676 C5675 1.366 . S
C5676 C5680 1.385 . S
C5677 H5652 0.951 . S
C5677 C5675 1.388 . S
C5677 C5678 1.366 . S
C5678 C5677 1.366 . S
C5678 C5679 1.414 . S
C5678 C5681 1.499 . S
C5679 H5653 0.950 . S
C5679 C5678 1.414 . S
C5679 C5680 1.374 . S
C5680 H5654 0.950 . S
C5680 C5676 1.385 . S
C5680 C5679 1.374 . S
C5681 C5678 1.499 . S
C5681 C5682 1.373 . S
C5681 C5683 1.389 . S
C5682 H5655 0.950 . S
C5682 C5668 1.377 . S
C5682 C5681 1.373 . S
C5683 C5667 1.377 . S
C5683 C5681 1.389 . S
C5683 C5684 1.524 . S
C5684 C5683 1.524 . S
C5684 C5685 1.397 . S
C5684 C5689 1.363 . S
C5685 H5656 0.950 . S
C5685 C5684 1.397 . S
C5685 C5686 1.334 . S
C5686 H5657 0.950 . S
C5686 C5685 1.334 . S
C5686 C5687 1.287 . S
C5687 C5686 1.287 . S
C5687 C5688 1.524 . S
C5687 H5690 0.999 . S
C5688 H5658 0.950 . S
C5688 C5687 1.524 . S
C5688 C5689 1.415 . S
C5689 H5659 0.950 . S
C5689 C5684 1.363 . S
C5689 C5688 1.415 . S
H5690 C5687 0.999 . S
H5691 C5672 0.913 . S
H5692 C5710 0.951 . S
H5693 C5712 0.951 . S
H5694 C5714 0.950 . S
H5695 C5715 0.950 . S
H5696 C5717 0.950 . S
H5697 C5720 0.950 . S
H5698 C5721 0.950 . S
H5699 C5723 0.950 . S
H5700 C5724 0.950 . S
H5701 C5725 0.951 . S
H5702 C5727 0.951 . S
H5703 C5729 0.950 . S
H5704 C5730 0.950 . S
H5705 C5732 0.950 . S
H5706 C5735 0.950 . S
H5707 C5736 0.950 . S
H5708 C5738 0.950 . S
H5709 C5739 0.950 . S
C5710 H5692 0.951 . S
C5710 C5711 1.366 . S
C5710 C5712 1.388 . S
C5711 C5710 1.366 . S
C5711 C5715 1.385 . S
C5712 H5693 0.951 . S
C5712 C5710 1.388 . S
C5712 C5713 1.366 . S
C5713 C5712 1.366 . S
C5713 C5714 1.414 . S
C5713 C5716 1.499 . S
C5714 H5694 0.950 . S
C5714 C5713 1.414 . S
C5714 C5715 1.374 . S
C5715 H5695 0.950 . S
C5715 C5711 1.385 . S
C5715 C5714 1.374 . S
C5716 C5713 1.499 . S
C5716 C5717 1.373 . S
C5716 C5718 1.389 . S
C5717 H5696 0.950 . S
C5717 C5716 1.373 . S
C5717 C5733 1.377 . S
C5718 C5716 1.389 . S
C5718 C5719 1.524 . S
C5718 C5732 1.377 . S
C5719 C5718 1.524 . S
C5719 C5720 1.397 . S
C5719 C5724 1.363 . S
C5720 H5697 0.950 . S
C5720 C5719 1.397 . S
C5720 C5721 1.334 . S
C5721 H5698 0.950 . S
C5721 C5720 1.334 . S
C5721 C5722 1.287 . S
C5722 C5721 1.287 . S
C5722 C5723 1.524 . S
C5722 H5741 0.913 . S
C5723 H5699 0.950 . S
C5723 C5722 1.524 . S
C5723 C5724 1.415 . S
C5724 H5700 0.950 . S
C5724 C5719 1.363 . S
C5724 C5723 1.415 . S
C5725 H5701 0.951 . S
C5725 C5726 1.366 . S
C5725 C5727 1.388 . S
C5726 C5725 1.366 . S
C5726 C5730 1.385 . S
C5727 H5702 0.951 . S
C5727 C5725 1.388 . S
C5727 C5728 1.366 . S
C5728 C5727 1.366 . S
C5728 C5729 1.414 . S
C5728 C5731 1.499 . S
C5729 H5703 0.950 . S
C5729 C5728 1.414 . S
C5729 C5730 1.374 . S
C5730 H5704 0.950 . S
C5730 C5726 1.385 . S
C5730 C5729 1.374 . S
C5731 C5728 1.499 . S
C5731 C5732 1.373 . S
C5731 C5733 1.389 . S
C5732 H5705 0.950 . S
C5732 C5718 1.377 . S
C5732 C5731 1.373 . S
C5733 C5717 1.377 . S
C5733 C5731 1.389 . S
C5733 C5734 1.524 . S
C5734 C5733 1.524 . S
C5734 C5735 1.397 . S
C5734 C5739 1.363 . S
C5735 H5706 0.950 . S
C5735 C5734 1.397 . S
C5735 C5736 1.334 . S
C5736 H5707 0.950 . S
C5736 C5735 1.334 . S
C5736 C5737 1.287 . S
C5737 C5736 1.287 . S
C5737 C5738 1.524 . S
C5737 H5740 0.999 . S
C5738 H5708 0.950 . S
C5738 C5737 1.524 . S
C5738 C5739 1.415 . S
C5739 H5709 0.950 . S
C5739 C5734 1.363 . S
C5739 C5738 1.415 . S
H5740 C5737 0.999 . S
H5741 C5722 0.913 . S
H5742 C5760 0.951 . S
H5743 C5762 0.951 . S
H5744 C5764 0.950 . S
H5745 C5765 0.950 . S
H5746 C5767 0.950 . S
H5747 C5770 0.950 . S
H5748 C5771 0.950 . S
H5749 C5773 0.950 . S
H5750 C5774 0.950 . S
H5751 C5775 0.951 . S
H5752 C5777 0.951 . S
H5753 C5779 0.950 . S
H5754 C5780 0.950 . S
H5755 C5782 0.950 . S
H5756 C5785 0.950 . S
H5757 C5786 0.950 . S
H5758 C5788 0.950 . S
H5759 C5789 0.950 . S
C5760 H5742 0.951 . S
C5760 C5761 1.366 . S
C5760 C5762 1.388 . S
C5761 C5760 1.366 . S
C5761 C5765 1.385 . S
C5762 H5743 0.951 . S
C5762 C5760 1.388 . S
C5762 C5763 1.366 . S
C5763 C5762 1.366 . S
C5763 C5764 1.414 . S
C5763 C5766 1.499 . S
C5764 H5744 0.950 . S
C5764 C5763 1.414 . S
C5764 C5765 1.374 . S
C5765 H5745 0.950 . S
C5765 C5761 1.385 . S
C5765 C5764 1.374 . S
C5766 C5763 1.499 . S
C5766 C5767 1.373 . S
C5766 C5768 1.389 . S
C5767 H5746 0.950 . S
C5767 C5766 1.373 . S
C5767 C5783 1.377 . S
C5768 C5766 1.389 . S
C5768 C5769 1.524 . S
C5768 C5782 1.377 . S
C5769 C5768 1.524 . S
C5769 C5770 1.397 . S
C5769 C5774 1.363 . S
C5770 H5747 0.950 . S
C5770 C5769 1.397 . S
C5770 C5771 1.334 . S
C5771 H5748 0.950 . S
C5771 C5770 1.334 . S
C5771 C5772 1.287 . S
C5772 C5771 1.287 . S
C5772 C5773 1.524 . S
C5772 H5791 0.913 . S
C5773 H5749 0.950 . S
C5773 C5772 1.524 . S
C5773 C5774 1.415 . S
C5774 H5750 0.950 . S
C5774 C5769 1.363 . S
C5774 C5773 1.415 . S
C5775 H5751 0.951 . S
C5775 C5776 1.366 . S
C5775 C5777 1.388 . S
C5776 C5775 1.366 . S
C5776 C5780 1.385 . S
C5777 H5752 0.951 . S
C5777 C5775 1.388 . S
C5777 C5778 1.366 . S
C5778 C5777 1.366 . S
C5778 C5779 1.414 . S
C5778 C5781 1.499 . S
C5779 H5753 0.950 . S
C5779 C5778 1.414 . S
C5779 C5780 1.374 . S
C5780 H5754 0.950 . S
C5780 C5776 1.385 . S
C5780 C5779 1.374 . S
C5781 C5778 1.499 . S
C5781 C5782 1.373 . S
C5781 C5783 1.389 . S
C5782 H5755 0.950 . S
C5782 C5768 1.377 . S
C5782 C5781 1.373 . S
C5783 C5767 1.377 . S
C5783 C5781 1.389 . S
C5783 C5784 1.524 . S
C5784 C5783 1.524 . S
C5784 C5785 1.397 . S
C5784 C5789 1.363 . S
C5785 H5756 0.950 . S
C5785 C5784 1.397 . S
C5785 C5786 1.334 . S
C5786 H5757 0.950 . S
C5786 C5785 1.334 . S
C5786 C5787 1.287 . S
C5787 C5786 1.287 . S
C5787 C5788 1.524 . S
C5787 H5790 0.999 . S
C5788 H5758 0.950 . S
C5788 C5787 1.524 . S
C5788 C5789 1.415 . S
C5789 H5759 0.950 . S
C5789 C5784 1.363 . S
C5789 C5788 1.415 . S
H5790 C5787 0.999 . S
H5791 C5772 0.913 . S
H5792 C5810 0.951 . S
H5793 C5812 0.951 . S
H5794 C5814 0.950 . S
H5795 C5815 0.950 . S
H5796 C5817 0.950 . S
H5797 C5820 0.950 . S
H5798 C5821 0.950 . S
H5799 C5823 0.950 . S
H5800 C5824 0.950 . S
H5801 C5825 0.951 . S
H5802 C5827 0.951 . S
H5803 C5829 0.950 . S
H5804 C5830 0.950 . S
H5805 C5832 0.950 . S
H5806 C5835 0.950 . S
H5807 C5836 0.950 . S
H5808 C5838 0.950 . S
H5809 C5839 0.950 . S
C5810 H5792 0.951 . S
C5810 C5811 1.366 . S
C5810 C5812 1.388 . S
C5811 C5810 1.366 . S
C5811 C5815 1.385 . S
C5812 H5793 0.951 . S
C5812 C5810 1.388 . S
C5812 C5813 1.366 . S
C5813 C5812 1.366 . S
C5813 C5814 1.414 . S
C5813 C5816 1.499 . S
C5814 H5794 0.950 . S
C5814 C5813 1.414 . S
C5814 C5815 1.374 . S
C5815 H5795 0.950 . S
C5815 C5811 1.385 . S
C5815 C5814 1.374 . S
C5816 C5813 1.499 . S
C5816 C5817 1.373 . S
C5816 C5818 1.389 . S
C5817 H5796 0.950 . S
C5817 C5816 1.373 . S
C5817 C5833 1.377 . S
C5818 C5816 1.389 . S
C5818 C5819 1.524 . S
C5818 C5832 1.377 . S
C5819 C5818 1.524 . S
C5819 C5820 1.397 . S
C5819 C5824 1.363 . S
C5820 H5797 0.950 . S
C5820 C5819 1.397 . S
C5820 C5821 1.334 . S
C5821 H5798 0.950 . S
C5821 C5820 1.334 . S
C5821 C5822 1.287 . S
C5822 C5821 1.287 . S
C5822 C5823 1.524 . S
C5822 H5841 0.913 . S
C5823 H5799 0.950 . S
C5823 C5822 1.524 . S
C5823 C5824 1.415 . S
C5824 H5800 0.950 . S
C5824 C5819 1.363 . S
C5824 C5823 1.415 . S
C5825 H5801 0.951 . S
C5825 C5826 1.366 . S
C5825 C5827 1.388 . S
C5826 C5825 1.366 . S
C5826 C5830 1.385 . S
C5827 H5802 0.951 . S
C5827 C5825 1.388 . S
C5827 C5828 1.366 . S
C5828 C5827 1.366 . S
C5828 C5829 1.414 . S
C5828 C5831 1.499 . S
C5829 H5803 0.950 . S
C5829 C5828 1.414 . S
C5829 C5830 1.374 . S
C5830 H5804 0.950 . S
C5830 C5826 1.385 . S
C5830 C5829 1.374 . S
C5831 C5828 1.499 . S
C5831 C5832 1.373 . S
C5831 C5833 1.389 . S
C5832 H5805 0.950 . S
C5832 C5818 1.377 . S
C5832 C5831 1.373 . S
C5833 C5817 1.377 . S
C5833 C5831 1.389 . S
C5833 C5834 1.524 . S
C5834 C5833 1.524 . S
C5834 C5835 1.397 . S
C5834 C5839 1.363 . S
C5835 H5806 0.950 . S
C5835 C5834 1.397 . S
C5835 C5836 1.334 . S
C5836 H5807 0.950 . S
C5836 C5835 1.334 . S
C5836 C5837 1.287 . S
C5837 C5836 1.287 . S
C5837 C5838 1.524 . S
C5837 H5840 0.999 . S
C5838 H5808 0.950 . S
C5838 C5837 1.524 . S
C5838 C5839 1.415 . S
C5839 H5809 0.950 . S
C5839 C5834 1.363 . S
C5839 C5838 1.415 . S
H5840 C5837 0.999 . S
H5841 C5822 0.913 . S
H5842 C5860 0.951 . S
H5843 C5862 0.951 . S
H5844 C5864 0.950 . S
H5845 C5865 0.950 . S
H5846 C5867 0.950 . S
H5847 C5870 0.950 . S
H5848 C5871 0.950 . S
H5849 C5873 0.950 . S
H5850 C5874 0.950 . S
H5851 C5875 0.951 . S
H5852 C5877 0.951 . S
H5853 C5879 0.950 . S
H5854 C5880 0.950 . S
H5855 C5882 0.950 . S
H5856 C5885 0.950 . S
H5857 C5886 0.950 . S
H5858 C5888 0.950 . S
H5859 C5889 0.950 . S
C5860 H5842 0.951 . S
C5860 C5861 1.366 . S
C5860 C5862 1.388 . S
C5861 C5860 1.366 . S
C5861 C5865 1.385 . S
C5862 H5843 0.951 . S
C5862 C5860 1.388 . S
C5862 C5863 1.366 . S
C5863 C5862 1.366 . S
C5863 C5864 1.414 . S
C5863 C5866 1.499 . S
C5864 H5844 0.950 . S
C5864 C5863 1.414 . S
C5864 C5865 1.374 . S
C5865 H5845 0.950 . S
C5865 C5861 1.385 . S
C5865 C5864 1.374 . S
C5866 C5863 1.499 . S
C5866 C5867 1.373 . S
C5866 C5868 1.389 . S
C5867 H5846 0.950 . S
C5867 C5866 1.373 . S
C5867 C5883 1.377 . S
C5868 C5866 1.389 . S
C5868 C5869 1.524 . S
C5868 C5882 1.377 . S
C5869 C5868 1.524 . S
C5869 C5870 1.397 . S
C5869 C5874 1.363 . S
C5870 H5847 0.950 . S
C5870 C5869 1.397 . S
C5870 C5871 1.334 . S
C5871 H5848 0.950 . S
C5871 C5870 1.334 . S
C5871 C5872 1.287 . S
C5872 C5871 1.287 . S
C5872 C5873 1.524 . S
C5872 H5891 0.913 . S
C5873 H5849 0.950 . S
C5873 C5872 1.524 . S
C5873 C5874 1.415 . S
C5874 H5850 0.950 . S
C5874 C5869 1.363 . S
C5874 C5873 1.415 . S
C5875 H5851 0.951 . S
C5875 C5876 1.366 . S
C5875 C5877 1.388 . S
C5876 C5875 1.366 . S
C5876 C5880 1.385 . S
C5877 H5852 0.951 . S
C5877 C5875 1.388 . S
C5877 C5878 1.366 . S
C5878 C5877 1.366 . S
C5878 C5879 1.414 . S
C5878 C5881 1.499 . S
C5879 H5853 0.950 . S
C5879 C5878 1.414 . S
C5879 C5880 1.374 . S
C5880 H5854 0.950 . S
C5880 C5876 1.385 . S
C5880 C5879 1.374 . S
C5881 C5878 1.499 . S
C5881 C5882 1.373 . S
C5881 C5883 1.389 . S
C5882 H5855 0.950 . S
C5882 C5868 1.377 . S
C5882 C5881 1.373 . S
C5883 C5867 1.377 . S
C5883 C5881 1.389 . S
C5883 C5884 1.524 . S
C5884 C5883 1.524 . S
C5884 C5885 1.397 . S
C5884 C5889 1.363 . S
C5885 H5856 0.950 . S
C5885 C5884 1.397 . S
C5885 C5886 1.334 . S
C5886 H5857 0.950 . S
C5886 C5885 1.334 . S
C5886 C5887 1.287 . S
C5887 C5886 1.287 . S
C5887 C5888 1.524 . S
C5887 H5890 0.999 . S
C5888 H5858 0.950 . S
C5888 C5887 1.524 . S
C5888 C5889 1.415 . S
C5889 H5859 0.950 . S
C5889 C5884 1.363 . S
C5889 C5888 1.415 . S
H5890 C5887 0.999 . S
H5891 C5872 0.913 . S
H5892 C5910 0.951 . S
H5893 C5912 0.951 . S
H5894 C5914 0.950 . S
H5895 C5915 0.950 . S
H5896 C5917 0.950 . S
H5897 C5920 0.950 . S
H5898 C5921 0.950 . S
H5899 C5923 0.950 . S
H5900 C5924 0.950 . S
H5901 C5925 0.951 . S
H5902 C5927 0.951 . S
H5903 C5929 0.950 . S
H5904 C5930 0.950 . S
H5905 C5932 0.950 . S
H5906 C5935 0.950 . S
H5907 C5936 0.950 . S
H5908 C5938 0.950 . S
H5909 C5939 0.950 . S
C5910 H5892 0.951 . S
C5910 C5911 1.366 . S
C5910 C5912 1.388 . S
C5911 C5910 1.366 . S
C5911 C5915 1.385 . S
C5912 H5893 0.951 . S
C5912 C5910 1.388 . S
C5912 C5913 1.366 . S
C5913 C5912 1.366 . S
C5913 C5914 1.414 . S
C5913 C5916 1.499 . S
C5914 H5894 0.950 . S
C5914 C5913 1.414 . S
C5914 C5915 1.374 . S
C5915 H5895 0.950 . S
C5915 C5911 1.385 . S
C5915 C5914 1.374 . S
C5916 C5913 1.499 . S
C5916 C5917 1.373 . S
C5916 C5918 1.389 . S
C5917 H5896 0.950 . S
C5917 C5916 1.373 . S
C5917 C5933 1.377 1_455 S
C5918 C5916 1.389 . S
C5918 C5919 1.524 . S
C5918 C5932 1.377 1_455 S
C5919 C5918 1.524 . S
C5919 C5920 1.397 . S
C5919 C5924 1.363 . S
C5920 H5897 0.950 . S
C5920 C5919 1.397 . S
C5920 C5921 1.334 . S
C5921 H5898 0.950 . S
C5921 C5920 1.334 . S
C5921 C5922 1.287 . S
C5922 C5921 1.287 . S
C5922 C5923 1.524 . S
C5922 H5941 0.913 . S
C5923 H5899 0.950 . S
C5923 C5922 1.524 . S
C5923 C5924 1.415 . S
C5924 H5900 0.950 . S
C5924 C5919 1.363 . S
C5924 C5923 1.415 . S
C5925 H5901 0.951 . S
C5925 C5926 1.366 . S
C5925 C5927 1.388 . S
C5926 C5925 1.366 . S
C5926 C5930 1.385 . S
C5927 H5902 0.951 . S
C5927 C5925 1.388 . S
C5927 C5928 1.366 . S
C5928 C5927 1.366 . S
C5928 C5929 1.414 . S
C5928 C5931 1.499 . S
C5929 H5903 0.950 . S
C5929 C5928 1.414 . S
C5929 C5930 1.374 . S
C5930 H5904 0.950 . S
C5930 C5926 1.385 . S
C5930 C5929 1.374 . S
C5931 C5928 1.499 . S
C5931 C5932 1.373 . S
C5931 C5933 1.389 . S
C5932 H5905 0.950 . S
C5932 C5918 1.377 1_655 S
C5932 C5931 1.373 . S
C5933 C5917 1.377 1_655 S
C5933 C5931 1.389 . S
C5933 C5934 1.524 . S
C5934 C5933 1.524 . S
C5934 C5935 1.397 . S
C5934 C5939 1.363 . S
C5935 H5906 0.950 . S
C5935 C5934 1.397 . S
C5935 C5936 1.334 . S
C5936 H5907 0.950 . S
C5936 C5935 1.334 . S
C5936 C5937 1.287 . S
C5937 C5936 1.287 . S
C5937 C5938 1.524 . S
C5937 H5940 0.999 . S
C5938 H5908 0.950 . S
C5938 C5937 1.524 . S
C5938 C5939 1.415 . S
C5939 H5909 0.950 . S
C5939 C5934 1.363 . S
C5939 C5938 1.415 . S
H5940 C5937 0.999 . S
H5941 C5922 0.913 . S
H5942 C5960 0.951 . S
H5943 C5962 0.951 . S
H5944 C5964 0.950 . S
H5945 C5965 0.950 . S
H5946 C5967 0.950 . S
H5947 C5970 0.950 . S
H5948 C5971 0.950 . S
H5949 C5973 0.950 . S
H5950 C5974 0.950 . S
H5951 C5975 0.951 . S
H5952 C5977 0.951 . S
H5953 C5979 0.950 . S
H5954 C5980 0.950 . S
H5955 C5982 0.950 . S
H5956 C5985 0.950 . S
H5957 C5986 0.950 . S
H5958 C5988 0.950 . S
H5959 C5989 0.950 . S
C5960 H5942 0.951 . S
C5960 C5961 1.366 . S
C5960 C5962 1.388 . S
C5961 C5960 1.366 . S
C5961 C5965 1.385 . S
C5962 H5943 0.951 . S
C5962 C5960 1.388 . S
C5962 C5963 1.366 . S
C5963 C5962 1.366 . S
C5963 C5964 1.414 . S
C5963 C5966 1.499 . S
C5964 H5944 0.950 . S
C5964 C5963 1.414 . S
C5964 C5965 1.374 . S
C5965 H5945 0.950 . S
C5965 C5961 1.385 . S
C5965 C5964 1.374 . S
C5966 C5963 1.499 . S
C5966 C5967 1.373 . S
C5966 C5968 1.389 . S
C5967 H5946 0.950 . S
C5967 C5966 1.373 . S
C5967 C5983 1.377 . S
C5968 C5966 1.389 . S
C5968 C5969 1.524 . S
C5968 C5982 1.377 . S
C5969 C5968 1.524 . S
C5969 C5970 1.397 . S
C5969 C5974 1.363 . S
C5970 H5947 0.950 . S
C5970 C5969 1.397 . S
C5970 C5971 1.334 . S
C5971 H5948 0.950 . S
C5971 C5970 1.334 . S
C5971 C5972 1.287 . S
C5972 C5971 1.287 . S
C5972 C5973 1.524 . S
C5972 H5991 0.913 . S
C5973 H5949 0.950 . S
C5973 C5972 1.524 . S
C5973 C5974 1.415 . S
C5974 H5950 0.950 . S
C5974 C5969 1.363 . S
C5974 C5973 1.415 . S
C5975 H5951 0.951 . S
C5975 C5976 1.366 . S
C5975 C5977 1.388 . S
C5976 C5975 1.366 . S
C5976 C5980 1.385 . S
C5977 H5952 0.951 . S
C5977 C5975 1.388 . S
C5977 C5978 1.366 . S
C5978 C5977 1.366 . S
C5978 C5979 1.414 . S
C5978 C5981 1.499 . S
C5979 H5953 0.950 . S
C5979 C5978 1.414 . S
C5979 C5980 1.374 . S
C5980 H5954 0.950 . S
C5980 C5976 1.385 . S
C5980 C5979 1.374 . S
C5981 C5978 1.499 . S
C5981 C5982 1.373 . S
C5981 C5983 1.389 . S
C5982 H5955 0.950 . S
C5982 C5968 1.377 . S
C5982 C5981 1.373 . S
C5983 C5967 1.377 . S
C5983 C5981 1.389 . S
C5983 C5984 1.524 . S
C5984 C5983 1.524 . S
C5984 C5985 1.397 . S
C5984 C5989 1.363 . S
C5985 H5956 0.950 . S
C5985 C5984 1.397 . S
C5985 C5986 1.334 . S
C5986 H5957 0.950 . S
C5986 C5985 1.334 . S
C5986 C5987 1.287 . S
C5987 C5986 1.287 . S
C5987 C5988 1.524 . S
C5987 H5990 0.999 . S
C5988 H5958 0.950 . S
C5988 C5987 1.524 . S
C5988 C5989 1.415 . S
C5989 H5959 0.950 . S
C5989 C5984 1.363 . S
C5989 C5988 1.415 . S
H5990 C5987 0.999 . S
H5991 C5972 0.913 . S
H5992 C6010 0.951 . S
H5993 C6012 0.951 . S
H5994 C6014 0.950 . S
H5995 C6015 0.950 . S
H5996 C6017 0.950 . S
H5997 C6020 0.950 . S
H5998 C6021 0.950 . S
H5999 C6023 0.948 1_565 S
H6000 C6024 0.950 . S
H6001 C6025 0.951 . S
H6002 C6027 0.951 . S
H6003 C6029 0.950 . S
H6004 C6030 0.950 . S
H6005 C6032 0.950 . S
H6006 C6035 0.950 . S
H6007 C6036 0.950 . S
H6008 C6038 0.949 1_545 S
H6009 C6039 0.950 . S
C6010 H5992 0.951 . S
C6010 C6011 1.366 . S
C6010 C6012 1.388 . S
C6011 C6010 1.366 . S
C6011 C6015 1.385 . S
C6012 H5993 0.951 . S
C6012 C6010 1.388 . S
C6012 C6013 1.366 . S
C6013 C6012 1.366 . S
C6013 C6014 1.414 . S
C6013 C6016 1.499 . S
C6014 H5994 0.950 . S
C6014 C6013 1.414 . S
C6014 C6015 1.374 . S
C6015 H5995 0.950 . S
C6015 C6011 1.385 . S
C6015 C6014 1.374 . S
C6016 C6013 1.499 . S
C6016 C6017 1.373 . S
C6016 C6018 1.389 . S
C6017 H5996 0.950 . S
C6017 C6016 1.373 . S
C6017 C6033 1.377 1_545 S
C6018 C6016 1.389 . S
C6018 C6019 1.524 . S
C6018 C6032 1.377 1_545 S
C6019 C6018 1.524 . S
C6019 C6020 1.397 . S
C6019 C6024 1.363 1_545 S
C6020 H5997 0.950 . S
C6020 C6019 1.397 . S
C6020 C6021 1.334 . S
C6021 H5998 0.950 . S
C6021 C6020 1.334 . S
C6021 C6022 1.287 . S
C6022 C6021 1.287 . S
C6022 C6023 1.527 . S
C6022 H6041 0.913 . S
C6023 H5999 0.948 1_545 S
C6023 C6022 1.527 . S
C6023 C6024 1.414 1_545 S
C6024 H6000 0.950 . S
C6024 C6019 1.363 1_565 S
C6024 C6023 1.414 1_565 S
C6025 H6001 0.951 . S
C6025 C6026 1.366 . S
C6025 C6027 1.388 . S
C6026 C6025 1.366 . S
C6026 C6030 1.385 . S
C6027 H6002 0.951 . S
C6027 C6025 1.388 . S
C6027 C6028 1.366 . S
C6028 C6027 1.366 . S
C6028 C6029 1.414 . S
C6028 C6031 1.499 . S
C6029 H6003 0.950 . S
C6029 C6028 1.414 . S
C6029 C6030 1.374 . S
C6030 H6004 0.950 . S
C6030 C6026 1.385 . S
C6030 C6029 1.374 . S
C6031 C6028 1.499 . S
C6031 C6032 1.373 . S
C6031 C6033 1.389 . S
C6032 H6005 0.950 . S
C6032 C6018 1.377 1_565 S
C6032 C6031 1.373 . S
C6033 C6017 1.377 1_565 S
C6033 C6031 1.389 . S
C6033 C6034 1.524 . S
C6034 C6033 1.524 . S
C6034 C6035 1.397 . S
C6034 C6039 1.363 1_565 S
C6035 H6006 0.950 . S
C6035 C6034 1.397 . S
C6035 C6036 1.334 . S
C6036 H6007 0.950 . S
C6036 C6035 1.334 . S
C6036 C6037 1.287 . S
C6037 C6036 1.287 . S
C6037 C6038 1.526 . S
C6037 H6040 0.999 . S
C6038 H6008 0.949 1_565 S
C6038 C6037 1.526 . S
C6038 C6039 1.414 1_565 S
C6039 H6009 0.950 . S
C6039 C6034 1.363 1_545 S
C6039 C6038 1.414 1_545 S
H6040 C6037 0.999 . S
H6041 C6022 0.913 . S
H6042 C6060 0.951 . S
H6043 C6062 0.951 . S
H6044 C6064 0.950 . S
H6045 C6065 0.950 . S
H6046 C6067 0.950 . S
H6047 C6070 0.950 . S
H6048 C6071 0.950 . S
H6049 C6073 0.950 . S
H6050 C6074 0.950 . S
H6051 C6075 0.951 . S
H6052 C6077 0.951 . S
H6053 C6079 0.950 . S
H6054 C6080 0.950 . S
H6055 C6082 0.950 . S
H6056 C6085 0.950 . S
H6057 C6086 0.950 . S
H6058 C6088 0.950 . S
H6059 C6089 0.950 . S
C6060 H6042 0.951 . S
C6060 C6061 1.366 . S
C6060 C6062 1.388 . S
C6061 C6060 1.366 . S
C6061 C6065 1.385 . S
C6062 H6043 0.951 . S
C6062 C6060 1.388 . S
C6062 C6063 1.366 . S
C6063 C6062 1.366 . S
C6063 C6064 1.414 . S
C6063 C6066 1.499 . S
C6064 H6044 0.950 . S
C6064 C6063 1.414 . S
C6064 C6065 1.374 . S
C6065 H6045 0.950 . S
C6065 C6061 1.385 . S
C6065 C6064 1.374 . S
C6066 C6063 1.499 . S
C6066 C6067 1.373 . S
C6066 C6068 1.389 . S
C6067 H6046 0.950 . S
C6067 C6066 1.373 . S
C6067 C6083 1.377 1_545 S
C6068 C6066 1.389 . S
C6068 C6069 1.524 . S
C6068 C6082 1.377 1_545 S
C6069 C6068 1.524 . S
C6069 C6070 1.397 . S
C6069 C6074 1.363 . S
C6070 H6047 0.950 . S
C6070 C6069 1.397 . S
C6070 C6071 1.334 . S
C6071 H6048 0.950 . S
C6071 C6070 1.334 . S
C6071 C6072 1.287 . S
C6072 C6071 1.287 . S
C6072 C6073 1.524 . S
C6072 H6091 0.913 . S
C6073 H6049 0.950 . S
C6073 C6072 1.524 . S
C6073 C6074 1.415 . S
C6074 H6050 0.950 . S
C6074 C6069 1.363 . S
C6074 C6073 1.415 . S
C6075 H6051 0.951 . S
C6075 C6076 1.366 . S
C6075 C6077 1.388 . S
C6076 C6075 1.366 . S
C6076 C6080 1.385 . S
C6077 H6052 0.951 . S
C6077 C6075 1.388 . S
C6077 C6078 1.366 . S
C6078 C6077 1.366 . S
C6078 C6079 1.414 . S
C6078 C6081 1.499 . S
C6079 H6053 0.950 . S
C6079 C6078 1.414 . S
C6079 C6080 1.374 . S
C6080 H6054 0.950 . S
C6080 C6076 1.385 . S
C6080 C6079 1.374 . S
C6081 C6078 1.499 . S
C6081 C6082 1.373 . S
C6081 C6083 1.389 . S
C6082 H6055 0.950 . S
C6082 C6068 1.377 1_565 S
C6082 C6081 1.373 . S
C6083 C6067 1.377 1_565 S
C6083 C6081 1.389 . S
C6083 C6084 1.524 . S
C6084 C6083 1.524 . S
C6084 C6085 1.397 . S
C6084 C6089 1.363 . S
C6085 H6056 0.950 . S
C6085 C6084 1.397 . S
C6085 C6086 1.334 . S
C6086 H6057 0.950 . S
C6086 C6085 1.334 . S
C6086 C6087 1.287 . S
C6087 C6086 1.287 . S
C6087 C6088 1.524 . S
C6087 H6090 0.999 . S
C6088 H6058 0.950 . S
C6088 C6087 1.524 . S
C6088 C6089 1.415 . S
C6089 H6059 0.950 . S
C6089 C6084 1.363 . S
C6089 C6088 1.415 . S
H6090 C6087 0.999 . S
H6091 C6072 0.913 . S
H6092 C6110 0.951 . S
H6093 C6112 0.951 . S
H6094 C6114 0.950 . S
H6095 C6115 0.950 . S
H6096 C6117 0.950 . S
H6097 C6120 0.950 . S
H6098 C6121 0.950 . S
H6099 C6123 0.950 1_655 S
H6100 C6124 0.968 . S
H6101 C6125 0.951 . S
H6102 C6127 0.951 . S
H6103 C6129 0.950 . S
H6104 C6130 0.950 . S
H6105 C6132 0.950 . S
H6106 C6135 0.950 . S
H6107 C6136 0.950 . S
H6108 C6138 0.950 1_455 S
H6109 C6139 0.967 . S
C6110 H6092 0.951 . S
C6110 C6111 1.366 . S
C6110 C6112 1.388 . S
C6111 C6110 1.366 . S
C6111 C6115 1.385 . S
C6112 H6093 0.951 . S
C6112 C6110 1.388 . S
C6112 C6113 1.366 . S
C6113 C6112 1.366 . S
C6113 C6114 1.414 . S
C6113 C6116 1.499 . S
C6114 H6094 0.950 . S
C6114 C6113 1.414 . S
C6114 C6115 1.374 . S
C6115 H6095 0.950 . S
C6115 C6111 1.385 . S
C6115 C6114 1.374 . S
C6116 C6113 1.499 . S
C6116 C6117 1.373 . S
C6116 C6118 1.389 . S
C6117 H6096 0.950 . S
C6117 C6116 1.373 . S
C6117 C6133 1.377 1_455 S
C6118 C6116 1.389 . S
C6118 C6119 1.524 . S
C6118 C6132 1.377 1_455 S
C6119 C6118 1.524 . S
C6119 C6120 1.397 . S
C6119 C6124 1.346 1_455 S
C6120 H6097 0.950 . S
C6120 C6119 1.397 . S
C6120 C6121 1.334 . S
C6121 H6098 0.950 . S
C6121 C6120 1.334 . S
C6121 C6122 1.287 . S
C6122 C6121 1.287 . S
C6122 C6123 1.524 . S
C6122 H6141 0.913 . S
C6123 H6099 0.950 1_455 S
C6123 C6122 1.524 . S
C6123 C6124 1.415 1_455 S
C6124 H6100 0.968 . S
C6124 C6119 1.346 1_655 S
C6124 C6123 1.415 1_655 S
C6125 H6101 0.951 . S
C6125 C6126 1.366 . S
C6125 C6127 1.388 . S
C6126 C6125 1.366 . S
C6126 C6130 1.385 . S
C6127 H6102 0.951 . S
C6127 C6125 1.388 . S
C6127 C6128 1.366 . S
C6128 C6127 1.366 . S
C6128 C6129 1.414 . S
C6128 C6131 1.499 . S
C6129 H6103 0.950 . S
C6129 C6128 1.414 . S
C6129 C6130 1.374 . S
C6130 H6104 0.950 . S
C6130 C6126 1.385 . S
C6130 C6129 1.374 . S
C6131 C6128 1.499 . S
C6131 C6132 1.373 . S
C6131 C6133 1.389 . S
C6132 H6105 0.950 . S
C6132 C6118 1.377 1_655 S
C6132 C6131 1.373 . S
C6133 C6117 1.377 1_655 S
C6133 C6131 1.389 . S
C6133 C6134 1.524 . S
C6134 C6133 1.524 . S
C6134 C6135 1.397 . S
C6134 C6139 1.347 1_655 S
C6135 H6106 0.950 . S
C6135 C6134 1.397 . S
C6135 C6136 1.334 . S
C6136 H6107 0.950 . S
C6136 C6135 1.334 . S
C6136 C6137 1.287 . S
C6137 C6136 1.287 . S
C6137 C6138 1.524 . S
C6137 H6140 0.999 . S
C6138 H6108 0.950 1_655 S
C6138 C6137 1.524 . S
C6138 C6139 1.415 1_655 S
C6139 H6109 0.967 . S
C6139 C6134 1.347 1_455 S
C6139 C6138 1.415 1_455 S
H6140 C6137 0.999 . S
H6141 C6122 0.913 . S
H6142 C6160 0.951 . S
H6143 C6162 0.951 . S
H6144 C6164 0.950 . S
H6145 C6165 0.950 . S
H6146 C6167 0.950 . S
H6147 C6170 0.950 . S
H6148 C6171 0.950 . S
H6149 C6173 0.950 . S
H6150 C6174 0.950 . S
H6151 C6175 0.951 . S
H6152 C6177 0.951 . S
H6153 C6179 0.950 . S
H6154 C6180 0.950 . S
H6155 C6182 0.950 . S
H6156 C6185 0.950 . S
H6157 C6186 0.950 . S
H6158 C6188 0.950 . S
H6159 C6189 0.950 . S
C6160 H6142 0.951 . S
C6160 C6161 1.366 . S
C6160 C6162 1.388 . S
C6161 C6160 1.366 . S
C6161 C6165 1.385 . S
C6162 H6143 0.951 . S
C6162 C6160 1.388 . S
C6162 C6163 1.366 . S
C6163 C6162 1.366 . S
C6163 C6164 1.414 . S
C6163 C6166 1.499 . S
C6164 H6144 0.950 . S
C6164 C6163 1.414 . S
C6164 C6165 1.374 . S
C6165 H6145 0.950 . S
C6165 C6161 1.385 . S
C6165 C6164 1.374 . S
C6166 C6163 1.499 . S
C6166 C6167 1.373 . S
C6166 C6168 1.389 . S
C6167 H6146 0.950 . S
C6167 C6166 1.373 . S
C6167 C6183 1.377 . S
C6168 C6166 1.389 . S
C6168 C6169 1.524 . S
C6168 C6182 1.377 . S
C6169 C6168 1.524 . S
C6169 C6170 1.397 . S
C6169 C6174 1.363 . S
C6170 H6147 0.950 . S
C6170 C6169 1.397 . S
C6170 C6171 1.334 . S
C6171 H6148 0.950 . S
C6171 C6170 1.334 . S
C6171 C6172 1.287 . S
C6172 C6171 1.287 . S
C6172 C6173 1.524 . S
C6172 H6191 0.913 . S
C6173 H6149 0.950 . S
C6173 C6172 1.524 . S
C6173 C6174 1.415 . S
C6174 H6150 0.950 . S
C6174 C6169 1.363 . S
C6174 C6173 1.415 . S
C6175 H6151 0.951 . S
C6175 C6176 1.366 . S
C6175 C6177 1.388 . S
C6176 C6175 1.366 . S
C6176 C6180 1.385 . S
C6177 H6152 0.951 . S
C6177 C6175 1.388 . S
C6177 C6178 1.366 . S
C6178 C6177 1.366 . S
C6178 C6179 1.414 . S
C6178 C6181 1.499 . S
C6179 H6153 0.950 . S
C6179 C6178 1.414 . S
C6179 C6180 1.374 . S
C6180 H6154 0.950 . S
C6180 C6176 1.385 . S
C6180 C6179 1.374 . S
C6181 C6178 1.499 . S
C6181 C6182 1.373 . S
C6181 C6183 1.389 . S
C6182 H6155 0.950 . S
C6182 C6168 1.377 . S
C6182 C6181 1.373 . S
C6183 C6167 1.377 . S
C6183 C6181 1.389 . S
C6183 C6184 1.524 . S
C6184 C6183 1.524 . S
C6184 C6185 1.397 . S
C6184 C6189 1.363 . S
C6185 H6156 0.950 . S
C6185 C6184 1.397 . S
C6185 C6186 1.334 . S
C6186 H6157 0.950 . S
C6186 C6185 1.334 . S
C6186 C6187 1.287 . S
C6187 C6186 1.287 . S
C6187 C6188 1.524 . S
C6187 H6190 0.999 . S
C6188 H6158 0.950 . S
C6188 C6187 1.524 . S
C6188 C6189 1.415 . S
C6189 H6159 0.950 . S
C6189 C6184 1.363 . S
C6189 C6188 1.415 . S
H6190 C6187 0.999 . S
H6191 C6172 0.913 . S
C811 C5 1.120 . S
C826 C158 1.103 . S
C861 C27 1.121 . S
C876 C180 1.103 . S
C911 C49 1.121 . S
C926 C136 1.103 . S
C961 C71 1.120 . S
C976 C246 1.103 . S
C1011 C202 1.102 . S
C1026 C93 1.121 . S
C1061 C224 1.102 . S
C1076 C115 1.120 . S
C1111 C26 1.103 . S
C1126 C138 1.120 . S
C1161 C160 1.121 . S
C1176 C48 1.102 . S
C1211 C182 1.121 . S
C1226 C4 1.103 . S
C1261 C114 1.102 . S
C1276 C204 1.120 . S
C1311 C226 1.121 . S
C1326 C70 1.101 . S
C1361 C248 1.121 . S
C1376 C92 1.102 . S
C1411 C269 1.121 . S
C1426 C422 1.102 . S
C1461 C291 1.121 . S
C1476 C444 1.102 . S
C1511 C400 1.102 . S
C1526 C313 1.121 . S
C1561 C510 1.103 . S
C1576 C335 1.120 . S
C1611 C466 1.103 . S
C1626 C357 1.120 . S
C1661 C379 1.121 . S
C1676 C488 1.102 . S
C1711 C290 1.103 . S
C1726 C402 1.120 . S
C1761 C312 1.102 . S
C1776 C424 1.120 . S
C1811 C268 1.103 . S
C1826 C446 1.120 . S
C1861 C378 1.101 . S
C1876 C468 1.121 . S
C1911 C490 1.121 . S
C1926 C334 1.101 . S
C1961 C356 1.101 . S
C1976 C512 1.120 . S
C2011 C533 1.120 . S
C2026 C686 1.102 . S
C2061 C708 1.102 . S
C2076 C555 1.121 . S
C2111 C577 1.122 . S
C2126 C664 1.102 . S
C2161 C599 1.120 . S
C2176 C774 1.102 . S
C2211 C730 1.103 . S
C2226 C621 1.120 . S
C2261 C752 1.103 . S
C2276 C643 1.121 . S
C2311 C666 1.120 . S
C2326 C554 1.102 . S
C2361 C688 1.121 . S
C2376 C576 1.103 . S
C2411 C710 1.121 . S
C2426 C532 1.101 . S
C2461 C642 1.103 . S
C2476 C732 1.120 . S
C2511 C598 1.103 . S
C2526 C754 1.121 . S
C2561 C620 1.103 . S
C2576 C776 1.121 . S
C2611 C7 0.751 . S
C2626 C52 0.752 . S
C2661 C29 0.751 . S
C2676 C8 0.753 . S
C2711 C30 0.751 . S
C2726 C51 0.753 . S
C2761 C96 0.751 . S
C2776 C73 0.752 . S
C2811 C95 0.751 . S
C2826 C118 0.752 . S
C2861 C74 0.751 . S
C2876 C117 0.753 . S
C2911 C141 0.752 . S
C2926 C184 0.751 . S
C2961 C163 0.752 . S
C2976 C140 0.753 . S
C3011 C185 0.752 . S
C3026 C162 0.753 . S
C3061 C228 0.753 . S
C3076 C207 0.751 . S
C3111 C229 0.752 . S
C3126 C250 0.752 . S
C3161 C206 0.753 . S
C3176 C251 0.751 . S
C3211 C316 0.753 . S
C3226 C271 0.751 . S
C3261 C293 0.752 . S
C3276 C272 0.752 . S
C3311 C315 0.751 . S
C3326 C294 0.753 . S
C3361 C337 0.751 . S
C3376 C360 0.752 . S
C3411 C382 0.752 . S
C3426 C359 0.752 . S
C3461 C381 0.751 . S
C3476 C338 0.753 . S
C3511 C405 0.752 . S
C3526 C448 0.752 . S
C3561 C427 0.752 . S
C3576 C404 0.751 . S
C3611 C426 0.753 . S
C3626 C449 0.751 . S
C3661 C492 0.751 . S
C3676 C471 0.753 . S
C3711 C493 0.753 . S
C3726 C514 0.751 . S
C3761 C515 0.751 . S
C3776 C470 0.753 . S
C3811 C580 0.752 . S
C3826 C535 0.752 . S
C3861 C557 0.751 . S
C3876 C536 0.753 . S
C3911 C579 0.751 . S
C3926 C558 0.753 . S
C3961 C624 0.751 . S
C3976 C601 0.753 . S
C4011 C623 0.751 . S
C4026 C646 0.753 . S
C4061 C645 0.753 . S
C4076 C602 0.751 . S
C4111 C669 0.752 . S
C4126 C712 0.752 . S
C4161 C691 0.752 . S
C4176 C668 0.753 . S
C4211 C690 0.751 . S
C4226 C713 0.753 . S
C4261 C756 0.752 . S
C4276 C735 0.751 . S
C4311 C778 0.751 . S
C4326 C757 0.753 . S
C4361 C734 0.752 . S
C4376 C779 0.753 . S
C4411 C97 1.365 . S
C4426 C9 1.365 . S
C4461 C119 1.366 . S
C4476 C31 1.365 . S
C4511 C75 1.365 . S
C4526 C53 1.365 . S
C4561 C227 1.365 . S
C4576 C139 1.365 . S
C4611 C249 1.366 . S
C4626 C161 1.365 . S
C4661 C183 1.365 . S
C4676 C205 1.365 . S
C4711 C361 1.365 . S
C4726 C273 1.365 . S
C4761 C383 1.366 . S
C4776 C295 1.366 . S
C4811 C317 1.365 . S
C4826 C339 1.365 . S
C4861 C491 1.365 1_554 S
C4876 C403 1.365 . S
C4911 C425 1.365 . S
C4926 C513 1.366 1_554 S
C4961 C469 1.365 1_554 S
C4976 C447 1.365 . S
C5011 C537 1.365 . S
C5026 C625 1.365 1_556 S
C5061 C647 1.365 1_556 S
C5076 C559 1.365 . S
C5111 C603 1.365 1_556 S
C5126 C581 1.365 . S
C5161 C755 1.365 . S
C5176 C667 1.365 . S
C5211 C777 1.366 . S
C5226 C689 1.365 . S
C5261 C733 1.365 . S
C5276 C711 1.365 . S
C5311 C644 1.200 . S
C5326 C6 1.200 . S
C5361 C28 1.201 . S
C5376 C600 1.200 . S
C5411 C50 1.198 . S
C5426 C622 1.199 . S
C5461 C72 1.200 . S
C5476 C292 1.200 . S
C5511 C94 1.198 . S
C5526 C314 1.198 . S
C5561 C116 1.200 . S
C5576 C270 1.200 . S
C5611 C511 1.200 . S
C5626 C137 1.200 . S
C5661 C467 1.200 . S
C5676 C159 1.201 . S
C5711 C489 1.198 . S
C5726 C181 1.199 . S
C5761 C203 1.200 . S
C5776 C687 1.200 . S
C5811 C225 1.199 . S
C5826 C709 1.198 . S
C5861 C665 1.200 . S
C5876 C247 1.200 . S
C5911 C556 1.200 . S
C5926 C336 1.200 . S
C5961 C578 1.199 . S
C5976 C358 1.199 . S
C6011 C380 1.200 . S
C6026 C534 1.200 . S
C6061 C401 1.200 . S
C6076 C775 1.200 . S
C6111 C731 1.200 . S
C6126 C423 1.200 . S
C6161 C753 1.199 . S
C6176 C445 1.198 . S
