# Generated by pormake.
# Topology sml, (6)-cn, num edge types: 1
# Building blocks:
#     Node 0, Type 0, BuildingBlock: JUFBIX_clean_sbu_0, # of connection points: 6
#     Node 1, Type 0, BuildingBlock: JUFBIX_clean_sbu_0, # of connection points: 6
#     Node 2, Type 0, BuildingBlock: JUFBIX_clean_sbu_0, # of connection points: 6
#     Node 3, Type 0, BuildingBlock: JUFBIX_clean_sbu_0, # of connection points: 6
#     Node 4, Type 0, BuildingBlock: JUFBIX_clean_sbu_0, # of connection points: 6
#     Node 5, Type 0, BuildingBlock: JUFBIX_clean_sbu_0, # of connection points: 6
#     Edge 6, Type (0, 0), BuildingBlock: MIFKUJ_clean_linker_0, # of connection points: 2
#     Edge 7, Type (0, 0), BuildingBlock: MIFKUJ_clean_linker_0, # of connection points: 2
#     Edge 8, Type (0, 0), BuildingBlock: MIFKUJ_clean_linker_0, # of connection points: 2
#     Edge 9, Type (0, 0), BuildingBlock: MIFKUJ_clean_linker_0, # of connection points: 2
#     Edge 10, Type (0, 0), BuildingBlock: MIFKUJ_clean_linker_0, # of connection points: 2
#     Edge 11, Type (0, 0), BuildingBlock: MIFKUJ_clean_linker_0, # of connection points: 2
#     Edge 12, Type (0, 0), BuildingBlock: MIFKUJ_clean_linker_0, # of connection points: 2
#     Edge 13, Type (0, 0), BuildingBlock: MIFKUJ_clean_linker_0, # of connection points: 2
#     Edge 14, Type (0, 0), BuildingBlock: MIFKUJ_clean_linker_0, # of connection points: 2
#     Edge 15, Type (0, 0), BuildingBlock: MIFKUJ_clean_linker_0, # of connection points: 2
#     Edge 16, Type (0, 0), BuildingBlock: MIFKUJ_clean_linker_0, # of connection points: 2
#     Edge 17, Type (0, 0), BuildingBlock: MIFKUJ_clean_linker_0, # of connection points: 2
#     Edge 18, Type (0, 0), BuildingBlock: MIFKUJ_clean_linker_0, # of connection points: 2
#     Edge 19, Type (0, 0), BuildingBlock: MIFKUJ_clean_linker_0, # of connection points: 2
#     Edge 20, Type (0, 0), BuildingBlock: MIFKUJ_clean_linker_0, # of connection points: 2
#     Edge 21, Type (0, 0), BuildingBlock: MIFKUJ_clean_linker_0, # of connection points: 2
#     Edge 22, Type (0, 0), BuildingBlock: MIFKUJ_clean_linker_0, # of connection points: 2
#     Edge 23, Type (0, 0), BuildingBlock: MIFKUJ_clean_linker_0, # of connection points: 2
# Relax obj value: 0.281
# Max RMSD: 0.197
# Mean RMSD: 0.197
data_MOF--net-sml--node1-JUFBIX_clean_sbu_0--edge1-MIFKUJ_clean_linker_0
_symmetry_space_group_name_H-M    P1
_symmetry_Int_Tables_number       1
_symmetry_cell_setting            triclinic
loop_
_symmetry_equiv_pos_as_xyz
'x, y, z'
_cell_length_a     56.284521
_cell_length_b     56.417905
_cell_length_c     18.731634
_cell_angle_alpha  90.132568
_cell_angle_beta   89.910334
_cell_angle_gamma 120.01775
loop_
_atom_site_label
_atom_site_type_symbol
_atom_site_fract_x
_atom_site_fract_y
_atom_site_fract_z
_atom_type_partial_charge
Co0 Co 0.30658 0.47413 0.04669 0.0
C1 C 0.27041 0.49141 0.08612 0.0
Co2 Co 0.26329 0.44044 0.0468 0.0
C3 C 0.35493 0.52651 0.01602 0.0
C4 C 0.36392 0.5005 0.07961 0.0
N5 N 0.34306 0.50176 0.04809 0.0
N6 N 0.38242 0.54066 0.02586 0.0
C7 C 0.38807 0.52431 0.06611 0.0
H8 H 0.34367 0.53364 0.98441 0.0
H9 H 0.36175 0.48318 0.10968 0.0
C10 C 0.30072 0.42392 0.00798 0.0
N11 N 0.22672 0.41248 0.04491 0.0
C12 C 0.20567 0.40813 0.08839 0.0
C13 C 0.21556 0.39189 -0.00305 0.0
N14 N 0.1819 0.38553 0.06957 0.0
C15 C 0.18816 0.37531 0.01204 0.0
C16 C 0.28091 0.46764 0.91846 0.0
O17 O 0.31759 0.44915 0.01778 0.0
O18 O 0.27521 0.41507 0.01752 0.0
O19 O 0.26068 0.44843 0.95106 0.0
O20 O 0.30356 0.48172 0.95077 0.0
O21 O 0.2524 0.46635 0.07626 0.0
H22 H 0.22661 0.38924 0.95326 0.0
H23 H 0.20782 0.42116 0.13332 0.0
O24 O 0.29554 0.49908 0.07571 0.0
O25 O 0.30899 0.46612 0.14279 0.0
O26 O 0.26612 0.43275 0.14239 0.0
C27 C 0.28863 0.44694 0.1752 0.0
H28 H 0.40821 0.52917 0.08468 0.0
H29 H 0.17382 0.35741 0.982 0.0
Co30 Co 0.78786 0.22531 0.39473 0.0
C31 C 0.82608 0.27862 0.35668 0.0
Co32 Co 0.83079 0.23344 0.39195 0.0
C33 C 0.73339 0.21196 0.44605 0.0
C34 C 0.73927 0.22157 0.33465 0.0
N35 N 0.752 0.21905 0.39275 0.0
N36 N 0.70958 0.20969 0.42298 0.0
C37 C 0.71325 0.21567 0.35292 0.0
H38 H 0.7372 0.20857 0.50067 0.0
H39 H 0.74847 0.22784 0.28237 0.0
C40 C 0.79149 0.17998 0.43169 0.0
N41 N 0.86677 0.24003 0.39275 0.0
C42 C 0.88822 0.25722 0.35118 0.0
C43 C 0.87685 0.22786 0.43526 0.0
N44 N 0.9111 0.25601 0.36574 0.0
C45 C 0.90398 0.23749 0.41846 0.0
C46 C 0.81425 0.24335 0.52224 0.0
O47 O 0.77497 0.18892 0.42321 0.0
O48 O 0.81701 0.19592 0.42028 0.0
O49 O 0.83401 0.24384 0.48816 0.0
O50 O 0.79164 0.23601 0.49073 0.0
O51 O 0.84349 0.27065 0.36356 0.0
H52 H 0.86524 0.2129 0.47594 0.0
H53 H 0.88696 0.27 0.31004 0.0
O54 O 0.80082 0.26181 0.36718 0.0
O55 O 0.78487 0.21447 0.29808 0.0
O56 O 0.82736 0.22286 0.29655 0.0
C57 C 0.80469 0.21473 0.26492 0.0
H58 H 0.69847 0.21664 0.3179 0.0
H59 H 0.91753 0.23158 0.44364 0.0
Co60 Co 0.59846 0.86005 0.72223 0.0
C61 C 0.5804 0.80642 0.76089 0.0
Co62 Co 0.63124 0.84934 0.7178 0.0
C63 C 0.546 0.85602 0.69689 0.0
C64 C 0.57335 0.89233 0.75462 0.0
N65 N 0.57131 0.86945 0.72607 0.0
N66 N 0.53212 0.8697 0.70541 0.0
C67 C 0.5494 0.89257 0.74201 0.0
H68 H 0.53816 0.83668 0.66926 0.0
H69 H 0.59139 0.90818 0.78124 0.0
C70 C 0.64871 0.90323 0.67915 0.0
N71 N 0.65851 0.84003 0.7126 0.0
C72 C 0.66402 0.82483 0.75807 0.0
C73 C 0.67689 0.84672 0.65935 0.0
N74 N 0.68518 0.8218 0.73526 0.0
C75 C 0.69327 0.83561 0.67306 0.0
C76 C 0.60296 0.84039 0.5916 0.0
O77 O 0.62391 0.89591 0.69307 0.0
O78 O 0.65679 0.88593 0.68605 0.0
O79 O 0.62173 0.83822 0.6229 0.0
O80 O 0.58983 0.84967 0.62568 0.0
O81 O 0.60529 0.81307 0.74934 0.0
H82 H 0.67807 0.85865 0.61295 0.0
H83 H 0.65277 0.8163 0.80709 0.0
O84 O 0.57304 0.82411 0.7515 0.0
O85 O 0.60758 0.87046 0.81863 0.0
O86 O 0.64061 0.86052 0.81292 0.0
C87 C 0.62721 0.86917 0.84827 0.0
H88 H 0.54554 0.90888 0.75682 0.0
H89 H 0.70947 0.83712 0.63885 0.0
Co90 Co 0.84553 0.59284 0.06484 0.0
C91 C 0.79344 0.5799 0.01839 0.0
Co92 Co 0.83807 0.62782 0.06835 0.0
C93 C 0.85586 0.5492 0.10951 0.0
C94 C 0.85132 0.55039 -0.00359 0.0
N95 N 0.8515 0.56322 0.05753 0.0
N96 N 0.8586 0.52839 0.08293 0.0
C97 C 0.85584 0.52918 0.01179 0.0
H98 H 0.85679 0.55398 0.16579 0.0
H99 H 0.8474 0.55556 0.94388 0.0
C100 C 0.89051 0.64031 0.11318 0.0
N101 N 0.83176 0.65701 0.07502 0.0
C102 C 0.81698 0.66352 0.03074 0.0
C103 C 0.8399 0.67559 0.12816 0.0
N104 N 0.81545 0.68541 0.05426 0.0
C105 C 0.82996 0.69305 0.11556 0.0
C106 C 0.82532 0.59779 0.19414 0.0
O107 O 0.88135 0.61507 0.10029 0.0
O108 O 0.87508 0.65048 0.10217 0.0
O109 O 0.82592 0.61808 0.16321 0.0
O110 O 0.83248 0.58292 0.15975 0.0
O111 O 0.80136 0.6047 0.03422 0.0
H112 H 0.8518 0.67604 0.17396 0.0
H113 H 0.80747 0.65231 0.98226 0.0
O114 O 0.80963 0.57067 0.02872 0.0
O115 O 0.85869 0.6036 0.97052 0.0
O116 O 0.8503 0.63755 0.97349 0.0
C117 C 0.85871 0.62363 0.93969 0.0
H118 H 0.85592 0.51472 0.97384 0.0
H119 H 0.8326 0.7096 0.1501 0.0
Co120 Co 0.21465 0.76638 0.38315 0.0
C121 C 0.26762 0.80157 0.42581 0.0
Co122 Co 0.22381 0.80938 0.38837 0.0
C123 C 0.218 0.71808 0.34492 0.0
C124 C 0.1829 0.70886 0.409 0.0
N125 N 0.20541 0.72987 0.37929 0.0
N126 N 0.20407 0.6905 0.35167 0.0
C127 C 0.18203 0.68473 0.39225 0.0
H128 H 0.23661 0.72947 0.31402 0.0
H129 H 0.16784 0.71094 0.44014 0.0
C130 C 0.17049 0.77332 0.34572 0.0
N131 N 0.23259 0.84583 0.39264 0.0
C132 C 0.24958 0.86551 0.4388 0.0
C133 C 0.22276 0.85824 0.35024 0.0
N134 N 0.25049 0.88957 0.42714 0.0
C135 C 0.23357 0.88504 0.37159 0.0
C136 C 0.23429 0.79426 0.25747 0.0
O137 O 0.17861 0.75618 0.3543 0.0
O138 O 0.18716 0.79854 0.3577 0.0
O139 O 0.23537 0.81399 0.29286 0.0
O140 O 0.22565 0.77116 0.28717 0.0
O141 O 0.26014 0.81936 0.41934 0.0
H142 H 0.20858 0.84843 0.30657 0.0
H143 H 0.26066 0.86215 0.48105 0.0
O144 O 0.25069 0.77665 0.41162 0.0
O145 O 0.20382 0.76223 0.47972 0.0
O146 O 0.21214 0.80459 0.48323 0.0
C147 C 0.20408 0.78181 0.51392 0.0
H148 H 0.16639 0.66451 0.40898 0.0
H149 H 0.22958 0.90015 0.34762 0.0
Co150 Co 0.48581 0.27291 0.79889 0.0
C151 C 0.49483 0.23097 0.75302 0.0
Co152 Co 0.44766 0.23352 0.77828 0.0
C153 C 0.5297 0.3308 0.80934 0.0
C154 C 0.53783 0.3023 0.86405 0.0
N155 N 0.51859 0.30386 0.82462 0.0
N156 N 0.55522 0.34572 0.83698 0.0
C157 C 0.56027 0.32784 0.87144 0.0
H158 H 0.51971 0.33914 0.77698 0.0
H159 H 0.53588 0.28357 0.88516 0.0
C160 C 0.43921 0.27619 0.82402 0.0
N161 N 0.41531 0.20191 0.75242 0.0
C162 C 0.41036 0.1759 0.74686 0.0
C163 C 0.39264 0.201 0.72564 0.0
N164 N 0.38557 0.15889 0.71745 0.0
C165 C 0.37438 0.1747 0.70441 0.0
C166 C 0.46365 0.23695 0.91573 0.0
O167 O 0.46532 0.29022 0.82372 0.0
O168 O 0.42742 0.25099 0.80661 0.0
O169 O 0.44506 0.22054 0.87321 0.0
O170 O 0.48229 0.26004 0.89323 0.0
O171 O 0.46881 0.21679 0.74968 0.0
H172 H 0.39003 0.21859 0.71874 0.0
H173 H 0.42494 0.16971 0.7625 0.0
O174 O 0.50591 0.25558 0.77407 0.0
O175 O 0.48897 0.28524 0.70325 0.0
O176 O 0.45029 0.24679 0.68473 0.0
C177 C 0.46965 0.26939 0.66155 0.0
H178 H 0.57902 0.33295 0.89963 0.0
H179 H 0.35494 0.16809 0.67812 0.0
H180 H 0.38317 0.25217 0.82876 0.0
H181 H 0.35597 0.27336 0.86179 0.0
H182 H 0.43028 0.35029 0.89721 0.0
H183 H 0.45764 0.32917 0.86544 0.0
H184 H 0.39463 0.3402 0.00238 0.0
H185 H 0.39073 0.33748 0.74509 0.0
H186 H 0.38117 0.31533 0.62676 0.0
H187 H 0.2963 0.26464 0.68306 0.0
H188 H 0.30545 0.28624 0.80217 0.0
H189 H 0.35406 0.43813 -0.01198 0.0
H190 H 0.3728 0.40876 0.95889 0.0
H191 H 0.29117 0.33863 0.95201 0.0
H192 H 0.27192 0.36824 0.98121 0.0
H193 H 0.32522 0.33998 0.83889 0.0
H194 H 0.3288 0.34613 0.09303 0.0
H195 H 0.33874 0.36961 0.20952 0.0
H196 H 0.42458 0.41454 0.15813 0.0
H197 H 0.4151 0.39164 0.04081 0.0
C198 C 0.39376 0.27361 0.84359 0.0
C199 C 0.42263 0.28899 0.84419 0.0
C200 C 0.37814 0.28573 0.86217 0.0
C201 C 0.39103 0.31352 0.88127 0.0
C202 C 0.41984 0.32882 0.88263 0.0
C203 C 0.43547 0.31673 0.86419 0.0
C204 C 0.37465 0.32676 0.90037 0.0
C205 C 0.37962 0.3403 0.96631 0.0
C206 C 0.35437 0.32619 0.85443 0.0
C207 C 0.34884 0.31324 0.78282 0.0
C208 C 0.37008 0.32144 0.73245 0.0
C209 C 0.36473 0.30902 0.66521 0.0
C210 C 0.33817 0.28853 0.64749 0.0
C211 C 0.31688 0.28047 0.69692 0.0
C212 C 0.32213 0.29281 0.76428 0.0
C213 C 0.33992 0.41648 0.98025 0.0
C214 C 0.31141 0.40553 -0.0125 0.0
C215 C 0.35075 0.39968 0.96373 0.0
C216 C 0.33345 0.37144 0.9543 0.0
C217 C 0.3049 0.36038 0.95945 0.0
C218 C 0.29395 0.37729 0.97629 0.0
C219 C 0.34571 0.35386 0.94006 0.0
C220 C 0.33997 0.33952 0.87524 0.0
C221 C 0.36534 0.3537 -0.01307 0.0
C222 C 0.3712 0.36727 0.05789 0.0
C223 C 0.34978 0.36114 0.10636 0.0
C224 C 0.35533 0.37433 0.17258 0.0
C225 C 0.38227 0.39358 0.19117 0.0
C226 C 0.40372 0.39962 0.14365 0.0
C227 C 0.39827 0.38651 0.07731 0.0
H228 H 0.38653 0.40379 0.24245 0.0
H229 H 0.33406 0.27894 0.59539 0.0
H230 H 0.16082 0.41365 0.13704 0.0
H231 H 0.11447 0.39479 0.18643 0.0
H232 H 0.09625 0.31351 0.12631 0.0
H233 H 0.14218 0.33232 0.07599 0.0
H234 H 0.05503 0.31925 0.09149 0.0
H235 H 0.10969 0.33821 0.30355 0.0
H236 H 0.14696 0.3667 0.38752 0.0
H237 H 0.11327 0.41957 0.41663 0.0
H238 H 0.07599 0.39159 0.33204 0.0
H239 H 0.94492 0.23684 0.33116 0.0
H240 H 0.99077 0.26255 0.27777 0.0
H241 H 0.98379 0.33521 0.27345 0.0
H242 H 0.93742 0.30923 0.32531 0.0
H243 H 0.03646 0.33758 0.33849 0.0
H244 H 0.97986 0.3154 0.12845 0.0
H245 H 0.94226 0.28451 0.04825 0.0
H246 H 0.97986 0.23506 0.02012 0.0
H247 H 1.0175 0.26545 0.10108 0.0
C248 C 0.14699 0.39175 0.13508 0.0
C249 C 0.15518 0.3745 0.10238 0.0
C250 C 0.12047 0.38095 0.16332 0.0
C251 C 0.10175 0.35262 0.16059 0.0
C252 C 0.11011 0.33542 0.12872 0.0
C253 C 0.13643 0.34621 0.09991 0.0
C254 C 0.07331 0.34071 0.18963 0.0
C255 C 0.05111 0.32319 0.14571 0.0
C256 C 0.06788 0.34617 0.25992 0.0
C257 C 0.09024 0.36299 0.31083 0.0
C258 C 0.11036 0.35604 0.32742 0.0
C259 C 0.13146 0.37207 0.3752 0.0
C260 C 0.13253 0.39498 0.40721 0.0
C261 C 0.11245 0.40186 0.39167 0.0
C262 C 0.09132 0.38591 0.34385 0.0
C263 C 0.95316 0.25827 0.31867 0.0
C264 C 0.93767 0.27107 0.3323 0.0
C265 C 0.97928 0.27291 0.28814 0.0
C266 C 0.99065 0.30077 0.27189 0.0
C267 C 0.97534 0.31372 0.28573 0.0
C268 C 0.94888 0.29888 0.31483 0.0
C269 C 1.01859 0.31608 0.24051 0.0
C270 C 0.04057 0.33406 0.28405 0.0
C271 C 0.0239 0.31084 0.17023 0.0
C272 C 1.00134 0.29254 0.12145 0.0
C273 C 0.97996 0.29777 0.10577 0.0
C274 C 0.95868 0.2804 0.06003 0.0
C275 C 0.95863 0.25779 0.02928 0.0
C276 C 0.97991 0.25256 0.04407 0.0
C277 C 1.00123 0.26987 0.08983 0.0
H278 H 0.94214 0.24436 -0.00615 0.0
H279 H 0.14888 0.40737 0.4442 0.0
H280 H 0.74114 0.14575 0.48797 0.0
H281 H 0.72311 0.09902 0.53031 0.0
H282 H 0.79893 0.10232 0.47321 0.0
H283 H 0.8175 0.14965 0.43118 0.0
H284 H 0.74729 0.05231 0.42901 0.0
H285 H 0.79133 0.10709 0.63612 0.0
H286 H 0.80202 0.14406 0.72281 0.0
H287 H 0.71721 0.10538 0.78376 0.0
H288 H 0.70588 0.06842 0.69643 0.0
H289 H 0.69989 0.9245 0.61787 0.0
H290 H 0.72953 0.97154 0.57484 0.0
H291 H 0.66919 0.99272 0.64247 0.0
H292 H 0.6397 0.94621 0.68502 0.0
H293 H 0.72045 0.03104 0.68343 0.0
H294 H 0.67437 0.9816 0.47084 0.0
H295 H 0.65984 0.94577 0.37838 0.0
H296 H 0.74406 0.97438 0.32456 0.0
H297 H 0.75912 1.01023 0.41727 0.0
C298 C 0.75406 0.13662 0.48414 0.0
C299 C 0.7808 0.15146 0.45624 0.0
C300 C 0.7437 0.10989 0.50853 0.0
C301 C 0.75972 0.09729 0.50514 0.0
C302 C 0.78627 0.11175 0.47622 0.0
C303 C 0.79686 0.13877 0.45256 0.0
C304 C 0.74846 0.06911 0.53312 0.0
C305 C 0.74202 0.04763 0.48493 0.0
C306 C 0.74094 0.06308 0.60574 0.0
C307 C 0.74773 0.08507 0.65923 0.0
C308 C 0.77491 0.10656 0.66758 0.0
C309 C 0.78109 0.1275 0.71689 0.0
C310 C 0.7603 0.12709 0.7586 0.0
C311 C 0.73329 0.10568 0.75134 0.0
C312 C 0.72698 0.08471 0.70196 0.0
C313 C 0.69306 0.93926 0.62376 0.0
C314 C 0.66744 0.93161 0.65482 0.0
C315 C 0.70993 0.96606 0.59889 0.0
C316 C 0.70151 0.98561 0.60528 0.0
C317 C 0.67614 0.97802 0.63714 0.0
C318 C 0.65925 0.95135 0.66125 0.0
C319 C 0.71885 0.01409 0.57919 0.0
C320 C 0.72632 0.03567 0.62779 0.0
C321 C 0.72686 0.02013 0.50677 0.0
C322 C 0.71789 0.99833 0.45178 0.0
C323 C 0.68981 0.98005 0.43988 0.0
C324 C 0.68147 0.9598 0.38727 0.0
C325 C 0.70102 0.95772 0.3459 0.0
C326 C 0.72895 0.97596 0.35684 0.0
C327 C 0.7374 0.99626 0.40938 0.0
H328 H 0.69453 0.94201 0.30529 0.0
H329 H 0.76513 0.14336 0.79652 0.0
H330 H 0.65995 0.77925 0.82834 0.0
H331 H 0.67959 0.7536 0.88344 0.0
H332 H 0.75593 0.80418 0.7733 0.0
H333 H 0.73666 0.83001 0.71882 0.0
H334 H 0.74138 0.75074 0.76524 0.0
H335 H 0.7485 0.81467 0.9488 0.0
H336 H 0.73003 0.8361 0.02977 0.0
H337 H 0.67731 0.7582 0.12742 0.0
H338 H 0.69523 0.73625 0.04636 0.0
H339 H 0.82583 0.73751 0.07106 0.0
H340 H 0.80083 0.75807 0.01829 0.0
H341 H 0.74667 0.68193 0.91186 0.0
H342 H 0.77147 0.66107 0.96497 0.0
H343 H 0.74789 0.74594 0.02842 0.0
H344 H 0.72938 0.69699 0.75038 0.0
H345 H 0.74938 0.67663 0.67071 0.0
H346 H 0.82886 0.72827 0.76279 0.0
H347 H 0.80939 0.74913 0.84238 0.0
C348 C 0.68099 0.7851 0.81632 0.0
C349 C 0.69667 0.80675 0.76896 0.0
C350 C 0.69215 0.77031 0.84765 0.0
C351 C 0.71927 0.77699 0.83259 0.0
C352 C 0.7349 0.7985 0.78527 0.0
C353 C 0.72379 0.81326 0.75402 0.0
C354 C 0.73171 0.762 0.86668 0.0
C355 C 0.74266 0.74957 0.82279 0.0
C356 C 0.73352 0.76053 0.94176 0.0
C357 C 0.723 0.77378 -0.00894 0.0
C358 C 0.73284 0.80209 -0.01276 0.0
C359 C 0.72249 0.81433 0.03318 0.0
C360 C 0.70246 0.79851 0.08357 0.0
C361 C 0.6928 0.77043 0.08829 0.0
C362 C 0.70306 0.75808 0.04241 0.0
C363 C 0.80847 0.725 0.03701 0.0
C364 C 0.80077 0.6976 0.02228 0.0
C365 C 0.79418 0.73682 0.0068 0.0
C366 C 0.77195 0.72161 0.96087 0.0
C367 C 0.76398 0.69418 0.94648 0.0
C368 C 0.77829 0.68232 0.97666 0.0
C369 C 0.75766 0.73482 0.92697 0.0
C370 C 0.74634 0.74686 0.97088 0.0
C371 C 0.75572 0.73615 0.85191 0.0
C372 C 0.76786 0.72442 0.80271 0.0
C373 C 0.75115 0.7041 0.75329 0.0
C374 C 0.76238 0.69245 0.70823 0.0
C375 C 0.79036 0.7011 0.71181 0.0
C376 C 0.80718 0.72153 0.76021 0.0
C377 C 0.79605 0.73325 0.80533 0.0
H378 H 0.799 0.69199 0.67705 0.0
H379 H 0.69445 0.80802 0.11905 0.0
H380 H 0.14436 0.80308 0.32511 0.0
H381 H 0.0971 0.78581 0.28341 0.0
H382 H 0.08529 0.70427 0.26975 0.0
H383 H 0.13204 0.72117 0.31062 0.0
H384 H 0.06695 0.71719 0.15138 0.0
H385 H 0.05923 0.72339 0.4079 0.0
H386 H 0.07037 0.74771 0.52335 0.0
H387 H 0.04342 0.80162 0.44341 0.0
H388 H 0.03245 0.77781 0.32709 0.0
H389 H 0.927 0.62361 0.14578 0.0
H390 H 0.97454 0.65153 0.18341 0.0
H391 H 0.96668 0.72372 0.1783 0.0
H392 H 0.91858 0.69568 0.14091 0.0
H393 H 0.99602 0.72278 0.29626 0.0
H394 H 0.99858 0.71284 0.04409 0.0
H395 H 0.98717 0.68816 0.9292 0.0
H396 H 0.02426 0.64179 -0.00033 0.0
H397 H 0.0355 0.66587 0.11549 0.0
C398 C 0.13164 0.78148 0.31327 0.0
C399 C 0.142 0.76352 0.32128 0.0
C400 C 0.10464 0.77164 0.28964 0.0
C401 C 0.08762 0.74371 0.27367 0.0
C402 C 0.09803 0.72589 0.28148 0.0
C403 C 0.12482 0.73562 0.30516 0.0
C404 C 0.05897 0.73261 0.24827 0.0
C405 C 0.05143 0.71833 0.18322 0.0
C406 C 0.03888 0.73485 0.28864 0.0
C407 C 0.04534 0.74905 0.35858 0.0
C408 C 0.05589 0.74057 0.41476 0.0
C409 C 0.06214 0.75423 0.48039 0.0
C410 C 0.05769 0.77626 0.49064 0.0
C411 C 0.04691 0.7846 0.43535 0.0
C412 C 0.04066 0.77103 0.36958 0.0
C413 C 0.93525 0.64542 0.15261 0.0
C414 C 0.91903 0.65746 0.13936 0.0
C415 C 0.96252 0.66138 0.17406 0.0
C416 C 0.97433 0.68979 0.18238 0.0
C417 C 0.95801 0.70184 0.17174 0.0
C418 C 0.93058 0.68582 0.15017 0.0
C419 C 1.00392 0.70663 0.20051 0.0
C420 C 1.01163 0.72202 0.26389 0.0
C421 C 0.02428 0.70548 0.15857 0.0
C422 C 1.01773 0.69106 0.08871 0.0
C423 C 1.00414 0.69725 0.03531 0.0
C424 C 0.99771 0.68338 0.96998 0.0
C425 C 1.00495 0.66339 0.95719 0.0
C426 C 1.01866 0.65727 0.00966 0.0
C427 C 0.02509 0.67105 0.07514 0.0
H428 H 0.99996 0.65268 0.90657 0.0
H429 H 0.06254 0.78681 0.54148 0.0
H430 H 0.41341 0.13219 0.68633 0.0
H431 H 0.39386 0.0846 0.64756 0.0
H432 H 0.3125 0.07374 0.66186 0.0
H433 H 0.33181 0.12086 0.70316 0.0
H434 H 0.3124 0.0301 0.71347 0.0
H435 H 0.34503 0.08308 0.49488 0.0
H436 H 0.37949 0.11885 0.41642 0.0
H437 H 0.43156 0.08389 0.43763 0.0
H438 H 0.3971 0.04754 0.51518 0.0
H439 H 0.23398 0.92539 0.46253 0.0
H440 H 0.26082 0.96935 0.52404 0.0
H441 H 0.32935 0.95548 0.53888 0.0
H442 H 0.3022 0.91102 0.47839 0.0
H443 H 0.34068 1.0095 0.48115 0.0
H444 H 0.30238 0.95127 0.68361 0.0
H445 H 0.26578 0.91485 0.7561 0.0
H446 H 0.22317 0.96016 0.76427 0.0
H447 H 0.25937 0.99672 0.69101 0.0
C448 C 0.39135 0.11958 0.68236 0.0
C449 C 0.3742 0.13046 0.69774 0.0
C450 C 0.38019 0.09242 0.65933 0.0
C451 C 0.35169 0.07562 0.65084 0.0
C452 C 0.33454 0.08626 0.66779 0.0
C453 C 0.34565 0.11333 0.69086 0.0
C454 C 0.33954 0.04711 0.62322 0.0
C455 C 0.31852 0.02566 0.66253 0.0
C456 C 0.34794 0.04105 0.55765 0.0
C457 C 0.36869 0.06283 0.51134 0.0
C458 C 0.36391 0.08313 0.48307 0.0
C459 C 0.3834 0.10347 0.4387 0.0
C460 C 0.40784 0.10384 0.42269 0.0
C461 C 0.41268 0.08365 0.45032 0.0
C462 C 0.39311 0.06308 0.49415 0.0
C463 C 0.25473 0.9317 0.47914 0.0
C464 C 0.26605 0.91488 0.46572 0.0
C465 C 0.26998 0.95671 0.51446 0.0
C466 C 0.29702 0.9656 0.53607 0.0
C467 C 0.30848 0.94891 0.52271 0.0
C468 C 0.29297 0.92355 0.48861 0.0
C469 C 0.31326 0.99275 0.57078 0.0
C470 C 0.33494 0.01392 0.53271 0.0
C471 C 0.30535 0.99856 0.63725 0.0
C472 C 0.28349 0.97663 0.68127 0.0
C473 C 0.28508 0.95336 0.70029 0.0
C474 C 0.26444 0.93271 0.74166 0.0
C475 C 0.24213 0.93516 0.76461 0.0
C476 C 0.24046 0.95829 0.74639 0.0
C477 C 0.26106 0.979 0.70503 0.0
H478 H 0.22616 0.91916 0.79665 0.0
H479 H 0.42296 0.1197 0.38858 0.0
H480 H 0.32162 0.50297 0.82965 0.0
H481 H 0.32093 0.50113 0.69962 0.0
H482 H 0.23532 0.43886 0.70394 0.0
H483 H 0.23582 0.44031 0.83406 0.0
H484 H 0.26747 0.42199 0.63918 0.0
H485 H 0.25379 0.49883 0.62786 0.0
H486 H 0.26238 0.54528 0.65445 0.0
H487 H 0.34304 0.57994 0.56368 0.0
H488 H 0.3351 0.53367 0.53743 0.0
H489 H 0.24723 0.41225 0.2631 0.0
H490 H 0.24673 0.41513 0.39278 0.0
H491 H 0.33233 0.47748 0.39157 0.0
H492 H 0.33303 0.47499 0.26159 0.0
H493 H 0.29952 0.49432 0.45429 0.0
H494 H 0.31323 0.41721 0.46746 0.0
H495 H 0.3042 0.37068 0.43986 0.0
H496 H 0.22301 0.33652 0.52691 0.0
H497 H 0.2314 0.38289 0.55414 0.0
C498 C 0.30245 0.48942 0.8029 0.0
C499 C 0.27894 0.47131 0.84173 0.0
C500 C 0.30206 0.48852 0.72868 0.0
C501 C 0.27812 0.4697 0.69279 0.0
C502 C 0.25399 0.45338 0.73123 0.0
C503 C 0.25435 0.45424 0.80538 0.0
C504 C 0.27951 0.46404 0.61693 0.0
C505 C 0.27397 0.43764 0.59834 0.0
C506 C 0.28895 0.48483 0.56488 0.0
C507 C 0.29393 0.51272 0.58128 0.0
C508 C 0.27347 0.51633 0.61422 0.0
C509 C 0.2782 0.54264 0.62907 0.0
C510 C 0.30326 0.56554 0.61091 0.0
C511 C 0.32364 0.56218 0.57778 0.0
C512 C 0.31903 0.53591 0.56283 0.0
C513 C 0.26616 0.42603 0.2905 0.0
C514 C 0.29004 0.44379 0.2524 0.0
C515 C 0.26584 0.42758 0.36454 0.0
C516 C 0.28945 0.44668 0.40111 0.0
C517 C 0.31391 0.46277 0.36371 0.0
C518 C 0.31426 0.46127 0.28967 0.0
C519 C 0.28756 0.45231 0.4767 0.0
C520 C 0.293 0.47869 0.49519 0.0
C521 C 0.27801 0.43151 0.52869 0.0
C522 C 0.27287 0.40357 0.51226 0.0
C523 C 0.29336 0.3998 0.48014 0.0
C524 C 0.28837 0.37344 0.46469 0.0
C525 C 0.26302 0.35066 0.48147 0.0
C526 C 0.24262 0.35419 0.51388 0.0
C527 C 0.2475 0.3805 0.52941 0.0
H528 H 0.25921 0.33027 0.46949 0.0
H529 H 0.30687 0.5859 0.62237 0.0
H530 H 0.76227 0.2046 0.17635 0.0
H531 H 0.76322 0.20432 0.04636 0.0
H532 H 0.84245 0.2097 0.05108 0.0
H533 H 0.84191 0.21044 0.18122 0.0
H534 H 0.84388 0.25226 -0.01529 0.0
H535 H 0.78878 0.15527 0.97452 0.0
H536 H 0.74996 0.10915 -0.00069 0.0
H537 H 0.69406 0.13179 0.90916 0.0
H538 H 0.73249 0.17819 0.8847 0.0
H539 H 0.85665 0.25128 0.60756 0.0
H540 H 0.85517 0.24601 0.73651 0.0
H541 H 0.77501 0.23854 0.74178 0.0
H542 H 0.77596 0.24309 0.61207 0.0
H543 H 0.77501 0.19551 0.80194 0.0
H544 H 0.83107 0.29355 0.81638 0.0
H545 H 0.87071 0.33889 0.78883 0.0
H546 H 0.92557 0.31331 0.87048 0.0
H547 H 0.88629 0.26768 0.89758 0.0
C548 C 0.77956 0.20497 0.14977 0.0
C549 C 0.80234 0.20825 0.18857 0.0
C550 C 0.77996 0.20458 0.07553 0.0
C551 C 0.803 0.20716 0.03958 0.0
C552 C 0.82459 0.20782 0.0783 0.0
C553 C 0.82427 0.20834 0.15248 0.0
C554 C 0.80666 0.2142 0.96346 0.0
C555 C 0.82912 0.2396 0.94432 0.0
C556 C 0.78685 0.19802 0.91193 0.0
C557 C 0.76353 0.17036 0.92853 0.0
C558 C 0.76818 0.15056 0.96085 0.0
C559 C 0.74624 0.12432 0.97459 0.0
C560 C 0.71955 0.11757 0.95603 0.0
C561 C 0.71474 0.13706 0.92366 0.0
C562 C 0.7366 0.16333 0.90978 0.0
C563 C 0.839 0.24926 0.63624 0.0
C564 C 0.81621 0.24715 0.59983 0.0
C565 C 0.83824 0.24633 0.70997 0.0
C566 C 0.81493 0.24177 0.74822 0.0
C567 C 0.79308 0.24188 0.71269 0.0
C568 C 0.79372 0.24459 0.63881 0.0
C569 C 0.81203 0.23367 0.82355 0.0
C570 C 0.78976 0.20809 0.84242 0.0
C571 C 0.83206 0.24964 0.87491 0.0
C572 C 0.85572 0.27709 0.85837 0.0
C573 C 0.8516 0.2975 0.82786 0.0
C574 C 0.87401 0.32328 0.81244 0.0
C575 C 0.90064 0.32896 0.82771 0.0
C576 C 0.90493 0.30888 0.85858 0.0
C577 C 0.8826 0.28306 0.87403 0.0
H578 H 0.91796 0.34893 0.81577 0.0
H579 H 0.70261 0.09722 0.96655 0.0
H580 H 0.57136 0.85163 0.5033 0.0
H581 H 0.57508 0.85538 0.37337 0.0
H582 H 0.63148 0.82456 0.37549 0.0
H583 H 0.62767 0.8204 0.50487 0.0
H584 H 0.62491 0.89065 0.31416 0.0
H585 H 0.63012 0.79667 0.21111 0.0
H586 H 0.60938 0.7473 0.23551 0.0
H587 H 0.53773 0.74546 0.32159 0.0
H588 H 0.55784 0.79473 0.29678 0.0
H589 H 0.66196 0.86071 0.9313 0.0
H590 H 0.66236 0.85956 0.06143 0.0
H591 H 0.60408 0.888 0.06914 0.0
H592 H 0.60349 0.88922 0.93896 0.0
H593 H 0.61413 0.82379 0.12678 0.0
H594 H 0.61224 0.92017 0.23681 0.0
H595 H 0.63552 0.96997 0.21659 0.0
H596 H 0.70329 0.96767 0.1183 0.0
H597 H 0.6807 0.91796 0.13904 0.0
C598 C 0.58388 0.84485 0.47589 0.0
C599 C 0.5996 0.83618 0.51411 0.0
C600 C 0.58605 0.84711 0.40185 0.0
C601 C 0.60371 0.84045 0.36538 0.0
C602 C 0.61761 0.82962 0.40284 0.0
C603 C 0.61547 0.82736 0.47678 0.0
C604 C 0.61045 0.8482 0.2901 0.0
C605 C 0.62204 0.876 0.27263 0.0
C606 C 0.60802 0.82917 0.23749 0.0
C607 C 0.59565 0.79949 0.25276 0.0
C608 C 0.60991 0.78573 0.2351 0.0
C609 C 0.59826 0.75775 0.24899 0.0
C610 C 0.57229 0.74327 0.28029 0.0
C611 C 0.5579 0.75673 0.29763 0.0
C612 C 0.56944 0.7847 0.2838 0.0
C613 C 0.64981 0.86747 0.96064 0.0
C614 C 0.63223 0.87451 0.92514 0.0
C615 C 0.65011 0.86682 0.03489 0.0
C616 C 0.63312 0.87351 0.0744 0.0
C617 C 0.61746 0.88293 0.0393 0.0
C618 C 0.61701 0.88344 0.96499 0.0
C619 C 0.62808 0.8662 0.15035 0.0
C620 C 0.61693 0.83848 0.16812 0.0
C621 C 0.6311 0.88535 0.20329 0.0
C622 C 0.64452 0.91518 0.18859 0.0
C623 C 0.63209 0.93026 0.2108 0.0
C624 C 0.6452 0.9585 0.19936 0.0
C625 C 0.67081 0.97196 0.1659 0.0
C626 C 0.68337 0.95719 0.14381 0.0
C627 C 0.67036 0.92895 0.15518 0.0
H628 H 0.68095 0.99384 0.15725 0.0
H629 H 0.5633 0.72161 0.29096 0.0
H630 H 0.8559 0.66128 0.8539 0.0
H631 H 0.85402 0.66026 0.72359 0.0
H632 H 0.87193 0.59434 0.72101 0.0
H633 H 0.87443 0.59552 0.851 0.0
H634 H 0.89297 0.62974 0.60094 0.0
H635 H 0.8078 0.57773 0.73497 0.0
H636 H 0.77752 0.5767 0.83152 0.0
H637 H 0.76664 0.6375 0.72283 0.0
H638 H 0.79738 0.63931 0.62611 0.0
H639 H 0.83285 0.56378 0.28332 0.0
H640 H 0.83762 0.568 0.41308 0.0
H641 H 0.81397 0.62986 0.4108 0.0
H642 H 0.80881 0.62558 0.28138 0.0
H643 H 0.7963 0.59825 0.53315 0.0
H644 H 0.87927 0.6502 0.39814 0.0
H645 H 0.91379 0.65677 0.30724 0.0
H646 H 0.93101 0.60059 0.4185 0.0
H647 H 0.89631 0.59341 0.50964 0.0
C648 C 0.86033 0.64717 0.82558 0.0
C649 C 0.86459 0.62798 0.86265 0.0
C650 C 0.85928 0.64665 0.75117 0.0
C651 C 0.86219 0.62678 0.71321 0.0
C652 C 0.86946 0.60969 0.74961 0.0
C653 C 0.87067 0.61028 0.82395 0.0
C654 C 0.8531 0.6206 0.63827 0.0
C655 C 0.87184 0.62267 0.58602 0.0
C656 C 0.82556 0.61173 0.61922 0.0
C657 C 0.805 0.60876 0.67353 0.0
C658 C 0.79894 0.59088 0.73165 0.0
C659 C 0.78187 0.5903 0.78668 0.0
C660 C 0.77036 0.60721 0.78371 0.0
C661 C 0.77569 0.62453 0.72524 0.0
C662 C 0.7929 0.6253 0.6702 0.0
C663 C 0.8278 0.57764 0.31059 0.0
C664 C 0.82099 0.59475 0.27204 0.0
C665 C 0.83064 0.5801 0.38468 0.0
C666 C 0.82678 0.59972 0.421 0.0
C667 C 0.81722 0.61475 0.38356 0.0
C668 C 0.81437 0.61232 0.30954 0.0
C669 C 0.83617 0.60714 0.49553 0.0
C670 C 0.81744 0.6053 0.54782 0.0
C671 C 0.86384 0.61652 0.5145 0.0
C672 C 0.885 0.62106 0.46034 0.0
C673 C 0.89029 0.6391 0.40296 0.0
C674 C 0.9099 0.64295 0.35142 0.0
C675 C 0.92453 0.62904 0.35698 0.0
C676 C 0.91963 0.61132 0.41423 0.0
C677 C 0.90002 0.60737 0.46588 0.0
H678 H 0.93971 0.63205 0.31709 0.0
H679 H 0.75711 0.6067 0.82636 0.0
H680 H 0.19826 0.74098 0.60212 0.0
H681 H 0.20047 0.74285 0.73195 0.0
H682 H 0.19959 0.81893 0.72921 0.0
H683 H 0.19801 0.81755 0.59904 0.0
H684 H 0.24379 0.82431 0.79455 0.0
H685 H 0.14742 0.76186 0.80621 0.0
H686 H 0.10361 0.72018 0.77837 0.0
H687 H 0.13452 0.67036 0.86427 0.0
H688 H 0.17867 0.71173 0.89176 0.0
H689 H 0.23984 0.8357 0.17229 0.0
H690 H 0.23621 0.83448 0.04278 0.0
H691 H 0.23618 0.75794 0.03846 0.0
H692 H 0.23903 0.7586 0.16856 0.0
H693 H 0.19165 0.75346 0.97702 0.0
H694 H 0.28859 0.81701 0.96461 0.0
H695 H 0.33198 0.85924 -0.0081 0.0
H696 H 0.29934 0.90771 0.907 0.0
H697 H 0.25559 0.86581 0.88022 0.0
C698 C 0.19774 0.7577 0.62921 0.0
C699 C 0.19853 0.77941 0.59075 0.0
C700 C 0.19887 0.75867 0.70339 0.0
C701 C 0.20035 0.78112 0.73977 0.0
C702 C 0.19864 0.80156 0.70169 0.0
C703 C 0.19774 0.80072 0.62752 0.0
C704 C 0.2078 0.78524 0.81573 0.0
C705 C 0.23213 0.80908 0.83492 0.0
C706 C 0.19298 0.76489 0.86724 0.0
C707 C 0.16646 0.73993 0.85052 0.0
C708 C 0.14497 0.74201 0.8186 0.0
C709 C 0.12005 0.71844 0.80301 0.0
C710 C 0.1163 0.69264 0.8194 0.0
C711 C 0.13746 0.69036 0.85155 0.0
C712 C 0.16242 0.71387 0.86724 0.0
C713 C 0.23986 0.819 0.14369 0.0
C714 C 0.2392 0.79697 0.1803 0.0
C715 C 0.2379 0.81839 0.06964 0.0
C716 C 0.23578 0.79603 0.0314 0.0
C717 C 0.2376 0.77525 0.06744 0.0
C718 C 0.23927 0.77568 0.14155 0.0
C719 C 0.22777 0.79244 0.95578 0.0
C720 C 0.2033 0.76871 0.9367 0.0
C721 C 0.24239 0.81297 0.90444 0.0
C722 C 0.26868 0.83823 0.92108 0.0
C723 C 0.29055 0.83667 0.95242 0.0
C724 C 0.31524 0.86056 0.96767 0.0
C725 C 0.31839 0.88614 0.9514 0.0
C726 C 0.29686 0.88789 0.91971 0.0
C727 C 0.27212 0.86407 0.90444 0.0
H728 H 0.33753 0.9046 0.96318 0.0
H729 H 0.09699 0.67441 0.80732 0.0
H730 H 0.42643 0.25672 0.5756 0.0
H731 H 0.4258 0.25326 0.4456 0.0
H732 H 0.51378 0.28862 0.44409 0.0
H733 H 0.51458 0.29292 0.57467 0.0
H734 H 0.49381 0.30242 0.32306 0.0
H735 H 0.47601 0.22083 0.45242 0.0
H736 H 0.45214 0.18649 0.54685 0.0
H737 H 0.3746 0.16258 0.44786 0.0
H738 H 0.39803 0.19681 0.35282 0.0
H739 H 0.50693 0.25018 0.0017 0.0
H740 H 0.50753 0.25392 0.13163 0.0
H741 H 0.41941 0.21739 0.13302 0.0
H742 H 0.41868 0.21285 0.00246 0.0
H743 H 0.43924 0.20428 0.25431 0.0
H744 H 0.45794 0.28468 0.1202 0.0
H745 H 0.4822 0.31995 0.02822 0.0
H746 H 0.55846 0.34748 0.13843 0.0
H747 H 0.53474 0.31199 0.23028 0.0
C748 C 0.44573 0.26466 0.54726 0.0
C749 C 0.47053 0.27484 0.58474 0.0
C750 C 0.44534 0.26256 0.47318 0.0
C751 C 0.46965 0.26997 0.43571 0.0
C752 C 0.49479 0.28263 0.47231 0.0
C753 C 0.49525 0.28517 0.5467 0.0
C754 C 0.46826 0.2612 0.36065 0.0
C755 C 0.48216 0.28099 0.308 0.0
C756 C 0.45273 0.2332 0.34125 0.0
C757 C 0.43875 0.21142 0.39568 0.0
C758 C 0.45387 0.20817 0.45069 0.0
C759 C 0.44043 0.18876 0.50435 0.0
C760 C 0.41187 0.1724 0.50343 0.0
C761 C 0.39673 0.17528 0.4485 0.0
C762 C 0.41008 0.19457 0.39451 0.0
C763 C 0.48761 0.24203 0.03003 0.0
C764 C 0.46277 0.23145 -0.0075 0.0
C765 C 0.48798 0.2443 0.10408 0.0
C766 C 0.46361 0.23666 0.14149 0.0
C767 C 0.43846 0.22358 0.10487 0.0
C768 C 0.43803 0.22089 0.03049 0.0
C769 C 0.46487 0.24551 0.21647 0.0
C770 C 0.45093 0.22572 0.2692 0.0
C771 C 0.48043 0.27355 0.23591 0.0
C772 C 0.49459 0.29551 0.18185 0.0
C773 C 0.47991 0.29817 0.12465 0.0
C774 C 0.49357 0.31819 0.07248 0.0
C775 C 0.52187 0.33593 0.07737 0.0
C776 C 0.53654 0.33372 0.13462 0.0
C777 C 0.523 0.31366 0.18677 0.0
H778 H 0.53244 0.35139 0.03689 0.0
H779 H 0.40148 0.15746 0.54515 0.0
H780 H 0.21891 0.48311 0.11561 0.0
H781 H 0.20712 0.51709 0.15832 0.0
H782 H 0.2927 0.57927 0.15448 0.0
H783 H 0.30465 0.54566 0.11258 0.0
H784 H 0.26878 0.58139 0.27658 0.0
H785 H 0.24939 0.57673 0.02568 0.0
H786 H 0.22782 0.55378 0.91235 0.0
H787 H 0.14794 0.52534 0.00298 0.0
H788 H 0.16906 0.54782 0.11727 0.0
H789 H 0.2546 0.69902 0.31634 0.0
H790 H 0.26561 0.66532 0.26776 0.0
H791 H 0.17973 0.604 0.27029 0.0
H792 H 0.16855 0.63767 0.31668 0.0
H793 H 0.20348 0.60117 0.14891 0.0
H794 H 0.22295 0.60586 0.39988 0.0
H795 H 0.24457 0.62842 0.51356 0.0
H796 H 0.32439 0.65656 0.42297 0.0
H797 H 0.30325 0.63448 0.30837 0.0
C798 C 0.23518 0.50404 0.12366 0.0
C799 C 0.2627 0.51165 0.11056 0.0
C800 C 0.22842 0.52345 0.14789 0.0
C801 C 0.24904 0.55077 0.15918 0.0
C802 C 0.27647 0.55832 0.14628 0.0
C803 C 0.28323 0.53904 0.12206 0.0
C804 C 0.24226 0.57158 0.18521 0.0
C805 C 0.25475 0.58596 0.24818 0.0
C806 C 0.22354 0.57714 0.14899 0.0
C807 C 0.2108 0.56372 0.08025 0.0
C808 C 0.22722 0.5654 0.02163 0.0
C809 C 0.21508 0.55251 0.95719 0.0
C810 C 0.18653 0.53805 0.95053 0.0
C811 C 0.17006 0.53651 0.00826 0.0
C812 C 0.1821 0.54934 0.07286 0.0
C813 C 0.23805 0.67845 0.30586 0.0
C814 C 0.21071 0.67102 0.32107 0.0
C815 C 0.24439 0.65914 0.27865 0.0
C816 C 0.22351 0.63201 0.26629 0.0
C817 C 0.19618 0.62474 0.27972 0.0
C818 C 0.18985 0.64399 0.30694 0.0
C819 C 0.23007 0.61105 0.2402 0.0
C820 C 0.21752 0.59662 0.17729 0.0
C821 C 0.24875 0.60543 0.27648 0.0
C822 C 0.26152 0.61876 0.34531 0.0
C823 C 0.24512 0.61706 0.40401 0.0
C824 C 0.25729 0.62972 0.46864 0.0
C825 C 0.28584 0.64398 0.47542 0.0
C826 C 0.30228 0.64555 0.41761 0.0
C827 C 0.29022 0.63295 0.35281 0.0
H828 H 0.29522 0.65376 0.52552 0.0
H829 H 0.17716 0.52808 0.90059 0.0
H830 H 0.65682 0.18031 0.38104 0.0
H831 H 0.61659 0.17565 0.44386 0.0
H832 H 0.66816 0.22301 0.61958 0.0
H833 H 0.70837 0.22688 0.55741 0.0
H834 H 0.62073 0.18465 0.66971 0.0
H835 H 0.64828 0.25213 0.48577 0.0
H836 H 0.66038 0.27052 0.36354 0.0
H837 H 0.57998 0.21086 0.29051 0.0
H838 H 0.56753 0.19184 0.4122 0.0
H839 H 0.54691 0.24807 0.79586 0.0
H840 H 0.57914 0.23549 0.74593 0.0
H841 H 0.51616 0.17791 0.60453 0.0
H842 H 0.48343 0.19023 0.65541 0.0
H843 H 0.56564 0.21622 0.53599 0.0
H844 H 0.53772 0.15336 0.73152 0.0
H845 H 0.52769 0.13948 0.85767 0.0
H846 H 0.61141 0.19605 0.91347 0.0
H847 H 0.62187 0.21057 0.78779 0.0
C848 C 0.65947 0.18945 0.43343 0.0
C849 C 0.68571 0.20421 0.46407 0.0
C850 C 0.63651 0.18685 0.46924 0.0
C851 C 0.63937 0.19956 0.53575 0.0
C852 C 0.66539 0.21311 0.56819 0.0
C853 C 0.68836 0.21532 0.53276 0.0
C854 C 0.6156 0.20008 0.56926 0.0
C855 C 0.6088 0.19171 0.64056 0.0
C856 C 0.5997 0.20893 0.5311 0.0
C857 C 0.60709 0.22036 0.4579 0.0
C858 C 0.63325 0.2428 0.44353 0.0
C859 C 0.64017 0.25335 0.37437 0.0
C860 C 0.62099 0.24181 0.31925 0.0
C861 C 0.59483 0.21974 0.33323 0.0
C862 C 0.58783 0.20906 0.40228 0.0
C863 C 0.53973 0.23234 0.75504 0.0
C864 C 0.51266 0.22015 0.72938 0.0
C865 C 0.55817 0.22511 0.72675 0.0
C866 C 0.55004 0.2057 0.67174 0.0
C867 C 0.52279 0.19286 0.64723 0.0
C868 C 0.5041 0.19981 0.67647 0.0
C869 C 0.57085 0.20085 0.63625 0.0
C870 C 0.57725 0.20866 0.56465 0.0
C871 C 0.58669 0.19206 0.67463 0.0
C872 C 0.58054 0.18318 0.75021 0.0
C873 C 0.55396 0.16299 0.77074 0.0
C874 C 0.5482 0.15498 0.84217 0.0
C875 C 0.56888 0.16691 0.89357 0.0
C876 C 0.5954 0.18683 0.8736 0.0
C877 C 0.60127 0.19492 0.80224 0.0
H878 H 0.56438 0.16069 0.94885 0.0
H879 H 0.62638 0.25001 0.26575 0.0
H880 H 0.43605 0.55956 -0.00437 0.0
H881 H 0.46929 0.60461 0.9499 0.0
H882 H 0.40658 0.62723 0.94484 0.0
H883 H 0.37309 0.58201 -0.00917 0.0
H884 H 0.43687 0.64353 0.82579 0.0
H885 H 0.45517 0.65088 0.07633 0.0
H886 H 0.46536 0.63795 0.19312 0.0
H887 H 0.54076 0.64733 0.11022 0.0
H888 H 0.53082 0.65994 -0.00746 0.0
H889 H 0.52608 0.78652 0.78875 0.0
H890 H 0.49252 0.74111 0.8317 0.0
H891 H 0.55465 0.71766 0.83227 0.0
H892 H 0.58866 0.7634 0.79017 0.0
H893 H 0.52451 0.70188 0.95326 0.0
H894 H 0.50565 0.69555 0.70169 0.0
H895 H 0.49519 0.7099 0.58734 0.0
H896 H 0.4201 0.69969 0.67488 0.0
H897 H 0.43036 0.6858 0.79031 0.0
C898 C 0.42933 0.57416 -0.01446 0.0
C899 C 0.40191 0.5672 -0.00243 0.0
C900 C 0.44839 0.59994 0.95922 0.0
C901 C 0.44056 0.61949 0.94491 0.0
C902 C 0.4131 0.61249 0.9556 0.0
C903 C 0.39396 0.58661 0.98174 0.0
C904 C 0.46106 0.64714 0.91849 0.0
C905 C 0.45587 0.65644 0.85416 0.0
C906 C 0.48612 0.66379 0.95475 0.0
C907 C 0.4921 0.65608 0.02538 0.0
C908 C 0.4738 0.64995 0.0828 0.0
C909 C 0.47956 0.64272 0.1492 0.0
C910 C 0.50366 0.64175 0.15903 0.0
C911 C 0.52208 0.64805 0.10249 0.0
C912 C 0.5164 0.65525 0.03594 0.0
C913 C 0.53268 0.77172 0.79777 0.0
C914 C 0.56008 0.77858 0.78576 0.0
C915 C 0.51338 0.7457 0.82206 0.0
C916 C 0.52096 0.72584 0.83431 0.0
C917 C 0.54833 0.73264 0.8229 0.0
C918 C 0.56772 0.75875 0.79864 0.0
C919 C 0.50038 0.69819 0.86041 0.0
C920 C 0.50554 0.68892 0.92479 0.0
C921 C 0.47523 0.68168 0.82444 0.0
C922 C 0.46892 0.68987 0.7549 0.0
C923 C 0.48702 0.69659 0.69678 0.0
C924 C 0.48111 0.70463 0.63176 0.0
C925 C 0.45705 0.70582 0.62396 0.0
C926 C 0.43878 0.69887 0.68112 0.0
C927 C 0.44462 0.69089 0.74633 0.0
H928 H 0.4525 0.71204 0.57357 0.0
H929 H 0.50809 0.63617 0.2105 0.0
H930 H 0.80248 0.30751 0.40173 0.0
H931 H 0.813 0.35312 0.3648 0.0
H932 H 0.87824 0.35948 0.23009 0.0
H933 H 0.86861 0.31404 0.27051 0.0
H934 H 0.89298 0.40768 0.28517 0.0
H935 H 0.81294 0.34054 0.16315 0.0
H936 H 0.76692 0.29978 0.15203 0.0
H937 H 0.73273 0.33908 0.27824 0.0
H938 H 0.77864 0.37995 0.29101 0.0
H939 H 0.88723 0.50392 0.04314 0.0
H940 H 0.88652 0.46455 0.10038 0.0
H941 H 0.83383 0.46583 0.2659 0.0
H942 H 0.83468 0.5054 0.20894 0.0
H943 H 0.81385 0.41458 0.19453 0.0
H944 H 0.89615 0.4833 0.30954 0.0
H945 H 0.94274 0.52354 0.31327 0.0
H946 H 0.97309 0.48059 0.18756 0.0
H947 H 0.92658 0.44021 0.18217 0.0
C948 C 0.81925 0.31874 0.36473 0.0
C949 C 0.83451 0.30716 0.33814 0.0
C950 C 0.82517 0.34478 0.34338 0.0
C951 C 0.84585 0.35946 0.29288 0.0
C952 C 0.86202 0.34846 0.26863 0.0
C953 C 0.85651 0.32254 0.29155 0.0
C954 C 0.84955 0.3856 0.26355 0.0
C955 C 0.87573 0.40909 0.26454 0.0
C956 C 0.82702 0.38761 0.2371 0.0
C957 C 0.79928 0.36323 0.22853 0.0
C958 C 0.79563 0.34044 0.18885 0.0
C959 C 0.76957 0.31731 0.18224 0.0
C960 C 0.74693 0.31681 0.21454 0.0
C961 C 0.7503 0.33949 0.25331 0.0
C962 C 0.77633 0.36265 0.26019 0.0
C963 C 0.87582 0.496 0.09227 0.0
C964 C 0.86093 0.50761 0.12153 0.0
C965 C 0.87554 0.47364 0.12507 0.0
C966 C 0.86015 0.46232 0.18737 0.0
C967 C 0.8459 0.47435 0.21792 0.0
C968 C 0.84652 0.49701 0.18566 0.0
C969 C 0.85713 0.43661 0.21708 0.0
C970 C 0.83105 0.41315 0.21553 0.0
C971 C 0.87982 0.43458 0.24151 0.0
C972 C 0.90781 0.45882 0.24488 0.0
C973 C 0.91271 0.48252 0.28213 0.0
C974 C 0.93912 0.50533 0.28467 0.0
C975 C 0.96085 0.50465 0.25052 0.0
C976 C 0.95623 0.4811 0.21392 0.0
C977 C 0.92985 0.45823 0.21117 0.0
H978 H 0.98128 0.52233 0.25255 0.0
H979 H 0.72677 0.29888 0.20944 0.0
H980 H 0.30224 0.84637 0.50529 0.0
H981 H 0.34718 0.85784 0.5529 0.0
H982 H 0.34116 0.7866 0.4492 0.0
H983 H 0.2956 0.7743 0.40491 0.0
H984 H 0.36045 0.78946 0.57282 0.0
H985 H 0.38374 0.8556 0.38692 0.0
H986 H 0.38191 0.89221 0.31983 0.0
H987 H 0.41036 0.94439 0.5044 0.0
H988 H 0.41205 0.90796 0.57289 0.0
H989 H 0.50295 0.83203 0.60199 0.0
H990 H 0.45806 0.82039 0.55502 0.0
H991 H 0.45517 0.87925 0.6964 0.0
H992 H 0.49964 0.89053 0.74565 0.0
H993 H 0.44126 0.88285 0.55306 0.0
H994 H 0.41776 0.81467 0.73673 0.0
H995 H 0.42111 0.77781 0.79797 0.0
H996 H 0.39483 0.729 0.60721 0.0
H997 H 0.39162 0.76574 0.54453 0.0
C998 C 0.31061 0.83327 0.49236 0.0
C999 C 0.29548 0.8095 0.45122 0.0
C1000 C 0.33639 0.8399 0.51931 0.0
C1001 C 0.34791 0.82336 0.50378 0.0
C1002 C 0.3328 0.79971 0.46213 0.0
C1003 C 0.30679 0.79274 0.43657 0.0
C1004 C 0.37537 0.83028 0.53218 0.0
C1005 C 0.37815 0.8098 0.5674 0.0
C1006 C 0.39855 0.85692 0.52642 0.0
C1007 C 0.39778 0.87896 0.48521 0.0
C1008 C 0.38945 0.87483 0.41332 0.0
C1009 C 0.38846 0.89555 0.37503 0.0
C1010 C 0.39594 0.92059 0.40789 0.0
C1011 C 0.40453 0.92498 0.47905 0.0
C1012 C 0.40555 0.90431 0.5176 0.0
C1013 C 0.49279 0.84233 0.62414 0.0
C1014 C 0.50524 0.86231 0.67801 0.0
C1015 C 0.46709 0.83569 0.59675 0.0
C1016 C 0.4533 0.84894 0.62232 0.0
C1017 C 0.46557 0.8689 0.6757 0.0
C1018 C 0.49113 0.87537 0.70364 0.0
C1019 C 0.42611 0.84206 0.5932 0.0
C1020 C 0.42345 0.86253 0.55801 0.0
C1021 C 0.4032 0.81535 0.59789 0.0
C1022 C 0.40469 0.79306 0.63578 0.0
C1023 C 0.41287 0.79615 0.7077 0.0
C1024 C 0.41471 0.77527 0.74269 0.0
C1025 C 0.40825 0.7511 0.70646 0.0
C1026 C 0.39984 0.74774 0.63519 0.0
C1027 C 0.39797 0.76857 0.59993 0.0
H1028 H 0.40969 0.73497 0.73369 0.0
H1029 H 0.39514 0.9366 0.37817 0.0
H1030 H 0.77648 0.53154 0.95001 0.0
H1031 H 0.73173 0.50105 0.89777 0.0
H1032 H 0.70359 0.55652 0.95981 0.0
H1033 H 0.74897 0.58778 0.01156 0.0
H1034 H 0.66934 0.49963 0.00428 0.0
H1035 H 0.6989 0.54731 0.77419 0.0
H1036 H 0.73072 0.56989 0.67354 0.0
H1037 H 0.74387 0.50147 0.65423 0.0
H1038 H 0.71113 0.47796 0.7526 0.0
H1039 H 0.54616 0.38789 0.86138 0.0
H1040 H 0.58187 0.43652 0.87246 0.0
H1041 H 0.64332 0.41601 0.81048 0.0
H1042 H 0.60789 0.368 0.79935 0.0
H1043 H 0.655 0.46476 0.75547 0.0
H1044 H 0.62825 0.41788 0.98447 0.0
H1045 H 0.59466 0.39205 0.07901 0.0
H1046 H 0.57817 0.45808 0.10602 0.0
H1047 H 0.61145 0.48415 0.01073 0.0
C1048 C 0.7609 0.53744 0.95237 0.0
C1049 C 0.76621 0.56197 -0.01432 0.0
C1050 C 0.73539 0.52009 0.9217 0.0
C1051 C 0.71444 0.52666 0.92416 0.0
C1052 C 0.7196 0.55122 0.95682 0.0
C1053 C 0.74544 0.56895 -0.01341 0.0
C1054 C 0.68667 0.5062 0.89863 0.0
C1055 C 0.66579 0.49255 0.94933 0.0
C1056 C 0.68223 0.49659 0.82748 0.0
C1057 C 0.7028 0.51104 0.77084 0.0
C1058 C 0.70868 0.53717 0.74856 0.0
C1059 C 0.72666 0.55 0.69156 0.0
C1060 C 0.73947 0.53723 0.65789 0.0
C1061 C 0.73399 0.51138 0.68044 0.0
C1062 C 0.71551 0.49816 0.73627 0.0
C1063 C 0.56721 0.39411 0.84817 0.0
C1064 C 0.57448 0.37442 0.82991 0.0
C1065 C 0.58758 0.42174 0.85492 0.0
C1066 C 0.61532 0.42984 0.84302 0.0
C1067 C 0.62211 0.41032 0.81983 0.0
C1068 C 0.60193 0.3829 0.81376 0.0
C1069 C 0.63789 0.45771 0.86146 0.0
C1070 C 0.65794 0.47253 0.8097 0.0
C1071 C 0.64163 0.46818 0.93191 0.0
C1072 C 0.62202 0.45278 -0.01006 0.0
C1073 C 0.61732 0.4268 0.01029 0.0
C1074 C 0.59835 0.41212 0.06399 0.0
C1075 C 0.58419 0.42336 0.09832 0.0
C1076 C 0.58909 0.44937 0.07922 0.0
C1077 C 0.608 0.4641 0.02536 0.0
H1078 H 0.56948 0.41194 0.13983 0.0
H1079 H 0.75362 0.54736 0.61431 0.0
loop_
_geom_bond_atom_site_label_1
_geom_bond_atom_site_label_2
_geom_bond_distance
_geom_bond_site_symmetry_2
_ccdc_geom_bond_type
Co0 N5 2.057 . S
Co0 O17 2.021 . S
Co0 O20 2.062 . S
Co0 O24 2.117 1_556 S
Co0 O25 2.020 1_556 S
C1 O21 1.259 . S
C1 O24 1.258 . S
Co2 N11 2.057 . S
Co2 O18 2.117 1_554 S
Co2 O19 2.020 1_554 S
Co2 O21 2.021 . S
Co2 O26 2.062 . S
C3 N5 1.316 . S
C3 N6 1.347 . S
C3 H8 0.931 . S
C4 N5 1.375 . S
C4 C7 1.350 . S
C4 H9 0.929 1_556 S
N5 Co0 2.057 . S
N5 C3 1.316 . S
N5 C4 1.375 . S
N6 C3 1.347 . S
N6 C7 1.373 . S
C7 C4 1.350 . S
C7 N6 1.373 . S
C7 H28 0.931 . S
H8 C3 0.931 . S
H9 C4 0.929 1_554 S
C10 O17 1.259 . S
C10 O18 1.258 . S
N11 Co2 2.057 . S
N11 C12 1.316 . S
N11 C13 1.375 . S
C12 N11 1.316 . S
C12 N14 1.347 . S
C12 H23 0.931 . S
C13 N11 1.375 . S
C13 C15 1.350 . S
C13 H22 0.933 . S
N14 C12 1.347 . S
N14 C15 1.373 . S
C15 C13 1.350 . S
C15 N14 1.373 . S
C15 H29 0.931 . S
C16 O19 1.256 . S
C16 O20 1.255 . S
O17 Co0 2.021 . S
O17 C10 1.259 . S
O18 Co2 2.117 1_556 S
O18 C10 1.258 . S
O19 Co2 2.020 1_556 S
O19 C16 1.256 . S
O20 Co0 2.062 . S
O20 C16 1.255 . S
O21 C1 1.259 . S
O21 Co2 2.021 . S
H22 C13 0.933 . S
H23 C12 0.931 . S
O24 Co0 2.117 1_554 S
O24 C1 1.258 . S
O25 Co0 2.020 1_554 S
O25 C27 1.256 . S
O26 Co2 2.062 . S
O26 C27 1.255 . S
C27 O25 1.256 . S
C27 O26 1.255 . S
H28 C7 0.931 . S
H29 C15 0.931 . S
Co30 N35 2.057 . S
Co30 O47 2.021 . S
Co30 O50 2.062 . S
Co30 O54 2.117 . S
Co30 O55 2.020 . S
C31 O51 1.259 . S
C31 O54 1.258 . S
Co32 N41 2.057 . S
Co32 O48 2.117 . S
Co32 O49 2.020 . S
Co32 O51 2.021 . S
Co32 O56 2.062 . S
C33 N35 1.316 . S
C33 N36 1.347 . S
C33 H38 0.931 . S
C34 N35 1.375 . S
C34 C37 1.350 . S
C34 H39 0.930 . S
N35 Co30 2.057 . S
N35 C33 1.316 . S
N35 C34 1.375 . S
N36 C33 1.347 . S
N36 C37 1.373 . S
C37 C34 1.350 . S
C37 N36 1.373 . S
C37 H58 0.931 . S
H38 C33 0.931 . S
H39 C34 0.930 . S
C40 O47 1.259 . S
C40 O48 1.258 . S
N41 Co32 2.057 . S
N41 C42 1.316 . S
N41 C43 1.375 . S
C42 N41 1.316 . S
C42 N44 1.347 . S
C42 H53 0.931 . S
C43 N41 1.375 . S
C43 C45 1.350 . S
C43 H52 0.930 . S
N44 C42 1.347 . S
N44 C45 1.373 . S
C45 C43 1.350 . S
C45 N44 1.373 . S
C45 H59 0.931 . S
C46 O49 1.256 . S
C46 O50 1.255 . S
O47 Co30 2.021 . S
O47 C40 1.259 . S
O48 Co32 2.117 . S
O48 C40 1.258 . S
O49 Co32 2.020 . S
O49 C46 1.256 . S
O50 Co30 2.062 . S
O50 C46 1.255 . S
O51 C31 1.259 . S
O51 Co32 2.021 . S
H52 C43 0.930 . S
H53 C42 0.931 . S
O54 Co30 2.117 . S
O54 C31 1.258 . S
O55 Co30 2.020 . S
O55 C57 1.256 . S
O56 Co32 2.062 . S
O56 C57 1.255 . S
C57 O55 1.256 . S
C57 O56 1.255 . S
H58 C37 0.931 . S
H59 C45 0.931 . S
Co60 N65 2.057 . S
Co60 O77 2.021 . S
Co60 O80 2.062 . S
Co60 O84 2.117 . S
Co60 O85 2.020 . S
C61 O81 1.259 . S
C61 O84 1.258 . S
Co62 N71 2.057 . S
Co62 O78 2.117 . S
Co62 O79 2.020 . S
Co62 O81 2.021 . S
Co62 O86 2.062 . S
C63 N65 1.316 . S
C63 N66 1.347 . S
C63 H68 0.931 . S
C64 N65 1.375 . S
C64 C67 1.350 . S
C64 H69 0.930 . S
N65 Co60 2.057 . S
N65 C63 1.316 . S
N65 C64 1.375 . S
N66 C63 1.347 . S
N66 C67 1.373 . S
C67 C64 1.350 . S
C67 N66 1.373 . S
C67 H88 0.931 . S
H68 C63 0.931 . S
H69 C64 0.930 . S
C70 O77 1.259 . S
C70 O78 1.258 . S
N71 Co62 2.057 . S
N71 C72 1.316 . S
N71 C73 1.375 . S
C72 N71 1.316 . S
C72 N74 1.347 . S
C72 H83 0.931 . S
C73 N71 1.375 . S
C73 C75 1.350 . S
C73 H82 0.930 . S
N74 C72 1.347 . S
N74 C75 1.373 . S
C75 C73 1.350 . S
C75 N74 1.373 . S
C75 H89 0.931 . S
C76 O79 1.256 . S
C76 O80 1.255 . S
O77 Co60 2.021 . S
O77 C70 1.259 . S
O78 Co62 2.117 . S
O78 C70 1.258 . S
O79 Co62 2.020 . S
O79 C76 1.256 . S
O80 Co60 2.062 . S
O80 C76 1.255 . S
O81 C61 1.259 . S
O81 Co62 2.021 . S
H82 C73 0.930 . S
H83 C72 0.931 . S
O84 Co60 2.117 . S
O84 C61 1.258 . S
O85 Co60 2.020 . S
O85 C87 1.256 . S
O86 Co62 2.062 . S
O86 C87 1.255 . S
C87 O85 1.256 . S
C87 O86 1.255 . S
H88 C67 0.931 . S
H89 C75 0.931 . S
Co90 N95 2.057 . S
Co90 O107 2.021 . S
Co90 O110 2.062 . S
Co90 O114 2.117 . S
Co90 O115 2.020 . S
C91 O111 1.259 . S
C91 O114 1.258 . S
Co92 N101 2.057 . S
Co92 O108 2.117 . S
Co92 O109 2.020 . S
Co92 O111 2.021 . S
Co92 O116 2.062 . S
C93 N95 1.316 . S
C93 N96 1.347 . S
C93 H98 0.931 . S
C94 N95 1.375 . S
C94 C97 1.350 . S
C94 H99 0.930 . S
N95 Co90 2.057 . S
N95 C93 1.316 . S
N95 C94 1.375 . S
N96 C93 1.347 . S
N96 C97 1.373 . S
C97 C94 1.350 . S
C97 N96 1.373 . S
C97 H118 0.931 . S
H98 C93 0.931 . S
H99 C94 0.930 . S
C100 O107 1.259 . S
C100 O108 1.258 . S
N101 Co92 2.057 . S
N101 C102 1.316 . S
N101 C103 1.375 . S
C102 N101 1.316 . S
C102 N104 1.347 . S
C102 H113 0.931 . S
C103 N101 1.375 . S
C103 C105 1.350 . S
C103 H112 0.930 . S
N104 C102 1.347 . S
N104 C105 1.373 . S
C105 C103 1.350 . S
C105 N104 1.373 . S
C105 H119 0.931 . S
C106 O109 1.256 . S
C106 O110 1.255 . S
O107 Co90 2.021 . S
O107 C100 1.259 . S
O108 Co92 2.117 . S
O108 C100 1.258 . S
O109 Co92 2.020 . S
O109 C106 1.256 . S
O110 Co90 2.062 . S
O110 C106 1.255 . S
O111 C91 1.259 . S
O111 Co92 2.021 . S
H112 C103 0.930 . S
H113 C102 0.931 . S
O114 Co90 2.117 . S
O114 C91 1.258 . S
O115 Co90 2.020 . S
O115 C117 1.256 . S
O116 Co92 2.062 . S
O116 C117 1.255 . S
C117 O115 1.256 . S
C117 O116 1.255 . S
H118 C97 0.931 . S
H119 C105 0.931 . S
Co120 N125 2.057 . S
Co120 O137 2.021 . S
Co120 O140 2.062 . S
Co120 O144 2.117 . S
Co120 O145 2.020 . S
C121 O141 1.259 . S
C121 O144 1.258 . S
Co122 N131 2.057 . S
Co122 O138 2.117 . S
Co122 O139 2.020 . S
Co122 O141 2.021 . S
Co122 O146 2.062 . S
C123 N125 1.316 . S
C123 N126 1.347 . S
C123 H128 0.931 . S
C124 N125 1.375 . S
C124 C127 1.350 . S
C124 H129 0.930 . S
N125 Co120 2.057 . S
N125 C123 1.316 . S
N125 C124 1.375 . S
N126 C123 1.347 . S
N126 C127 1.373 . S
C127 C124 1.350 . S
C127 N126 1.373 . S
C127 H148 0.931 . S
H128 C123 0.931 . S
H129 C124 0.930 . S
C130 O137 1.259 . S
C130 O138 1.258 . S
N131 Co122 2.057 . S
N131 C132 1.316 . S
N131 C133 1.375 . S
C132 N131 1.316 . S
C132 N134 1.347 . S
C132 H143 0.931 . S
C133 N131 1.375 . S
C133 C135 1.350 . S
C133 H142 0.930 . S
N134 C132 1.347 . S
N134 C135 1.373 . S
C135 C133 1.350 . S
C135 N134 1.373 . S
C135 H149 0.931 . S
C136 O139 1.256 . S
C136 O140 1.255 . S
O137 Co120 2.021 . S
O137 C130 1.259 . S
O138 Co122 2.117 . S
O138 C130 1.258 . S
O139 Co122 2.020 . S
O139 C136 1.256 . S
O140 Co120 2.062 . S
O140 C136 1.255 . S
O141 C121 1.259 . S
O141 Co122 2.021 . S
H142 C133 0.930 . S
H143 C132 0.931 . S
O144 Co120 2.117 . S
O144 C121 1.258 . S
O145 Co120 2.020 . S
O145 C147 1.256 . S
O146 Co122 2.062 . S
O146 C147 1.255 . S
C147 O145 1.256 . S
C147 O146 1.255 . S
H148 C127 0.931 . S
H149 C135 0.931 . S
Co150 N155 2.057 . S
Co150 O167 2.021 . S
Co150 O170 2.062 . S
Co150 O174 2.117 . S
Co150 O175 2.020 . S
C151 O171 1.259 . S
C151 O174 1.258 . S
Co152 N161 2.057 . S
Co152 O168 2.117 . S
Co152 O169 2.020 . S
Co152 O171 2.021 . S
Co152 O176 2.062 . S
C153 N155 1.316 . S
C153 N156 1.347 . S
C153 H158 0.931 . S
C154 N155 1.375 . S
C154 C157 1.350 . S
C154 H159 0.930 . S
N155 Co150 2.057 . S
N155 C153 1.316 . S
N155 C154 1.375 . S
N156 C153 1.347 . S
N156 C157 1.373 . S
C157 C154 1.350 . S
C157 N156 1.373 . S
C157 H178 0.931 . S
H158 C153 0.931 . S
H159 C154 0.930 . S
C160 O167 1.259 . S
C160 O168 1.258 . S
N161 Co152 2.057 . S
N161 C162 1.316 . S
N161 C163 1.375 . S
C162 N161 1.316 . S
C162 N164 1.347 . S
C162 H173 0.931 . S
C163 N161 1.375 . S
C163 C165 1.350 . S
C163 H172 0.930 . S
N164 C162 1.347 . S
N164 C165 1.373 . S
C165 C163 1.350 . S
C165 N164 1.373 . S
C165 H179 0.931 . S
C166 O169 1.256 . S
C166 O170 1.255 . S
O167 Co150 2.021 . S
O167 C160 1.259 . S
O168 Co152 2.117 . S
O168 C160 1.258 . S
O169 Co152 2.020 . S
O169 C166 1.256 . S
O170 Co150 2.062 . S
O170 C166 1.255 . S
O171 C151 1.259 . S
O171 Co152 2.021 . S
H172 C163 0.930 . S
H173 C162 0.931 . S
O174 Co150 2.117 . S
O174 C151 1.258 . S
O175 Co150 2.020 . S
O175 C177 1.256 . S
O176 Co152 2.062 . S
O176 C177 1.255 . S
C177 O175 1.256 . S
C177 O176 1.255 . S
H178 C157 0.931 . S
H179 C165 0.931 . S
H180 C198 0.951 . S
H181 C200 0.951 . S
H182 C202 0.950 . S
H183 C203 0.950 . S
H184 C205 0.950 . S
H185 C208 0.950 . S
H186 C209 0.950 . S
H187 C211 0.950 . S
H188 C212 0.950 . S
H189 C213 0.951 . S
H190 C215 0.951 . S
H191 C217 0.950 . S
H192 C218 0.950 . S
H193 C220 0.950 . S
H194 C223 0.950 . S
H195 C224 0.950 . S
H196 C226 0.950 . S
H197 C227 0.950 1_556 S
C198 H180 0.951 . S
C198 C199 1.366 . S
C198 C200 1.388 . S
C199 C198 1.366 . S
C199 C203 1.385 . S
C200 H181 0.951 . S
C200 C198 1.388 . S
C200 C201 1.366 . S
C201 C200 1.366 . S
C201 C202 1.414 . S
C201 C204 1.499 . S
C202 H182 0.950 . S
C202 C201 1.414 . S
C202 C203 1.374 . S
C203 H183 0.950 . S
C203 C199 1.385 . S
C203 C202 1.374 . S
C204 C201 1.499 . S
C204 C205 1.373 . S
C204 C206 1.389 . S
C205 H184 0.950 . S
C205 C204 1.373 . S
C205 C221 1.377 . S
C206 C204 1.389 . S
C206 C207 1.524 . S
C206 C220 1.377 . S
C207 C206 1.524 . S
C207 C208 1.397 . S
C207 C212 1.363 . S
C208 H185 0.950 . S
C208 C207 1.397 . S
C208 C209 1.334 . S
C209 H186 0.950 . S
C209 C208 1.334 . S
C209 C210 1.287 . S
C210 C209 1.287 . S
C210 C211 1.524 . S
C210 H229 0.913 . S
C211 H187 0.950 . S
C211 C210 1.524 . S
C211 C212 1.415 . S
C212 H188 0.950 . S
C212 C207 1.363 . S
C212 C211 1.415 . S
C213 H189 0.951 . S
C213 C214 1.366 . S
C213 C215 1.388 . S
C214 C213 1.366 . S
C214 C218 1.385 . S
C215 H190 0.951 . S
C215 C213 1.388 . S
C215 C216 1.366 . S
C216 C215 1.366 . S
C216 C217 1.414 . S
C216 C219 1.499 . S
C217 H191 0.950 . S
C217 C216 1.414 . S
C217 C218 1.374 . S
C218 H192 0.950 . S
C218 C214 1.385 . S
C218 C217 1.374 . S
C219 C216 1.499 . S
C219 C220 1.373 . S
C219 C221 1.389 . S
C220 H193 0.950 . S
C220 C206 1.377 . S
C220 C219 1.373 . S
C221 C205 1.377 . S
C221 C219 1.389 . S
C221 C222 1.524 1_556 S
C222 C221 1.524 1_554 S
C222 C223 1.397 . S
C222 C227 1.363 . S
C223 H194 0.950 . S
C223 C222 1.397 . S
C223 C224 1.334 . S
C224 H195 0.950 . S
C224 C223 1.334 . S
C224 C225 1.287 . S
C225 C224 1.287 . S
C225 C226 1.524 . S
C225 H228 0.999 . S
C226 H196 0.950 . S
C226 C225 1.524 . S
C226 C227 1.415 . S
C227 H197 0.950 1_554 S
C227 C222 1.363 . S
C227 C226 1.415 . S
H228 C225 0.999 . S
H229 C210 0.913 . S
H230 C248 0.951 . S
H231 C250 0.951 . S
H232 C252 0.950 . S
H233 C253 0.950 . S
H234 C255 0.950 . S
H235 C258 0.950 . S
H236 C259 0.950 . S
H237 C261 0.950 . S
H238 C262 0.950 . S
H239 C263 0.951 . S
H240 C265 0.951 . S
H241 C267 0.950 . S
H242 C268 0.950 . S
H243 C270 0.950 . S
H244 C273 0.950 . S
H245 C274 0.950 . S
H246 C276 0.950 . S
H247 C277 0.950 . S
C248 H230 0.951 . S
C248 C249 1.366 . S
C248 C250 1.388 . S
C249 C248 1.366 . S
C249 C253 1.385 . S
C250 H231 0.951 . S
C250 C248 1.388 . S
C250 C251 1.366 . S
C251 C250 1.366 . S
C251 C252 1.414 . S
C251 C254 1.499 . S
C252 H232 0.950 . S
C252 C251 1.414 . S
C252 C253 1.374 . S
C253 H233 0.950 . S
C253 C249 1.385 . S
C253 C252 1.374 . S
C254 C251 1.499 . S
C254 C255 1.373 . S
C254 C256 1.389 . S
C255 H234 0.950 . S
C255 C254 1.373 . S
C255 C271 1.377 1_455 S
C256 C254 1.389 . S
C256 C257 1.524 . S
C256 C270 1.377 . S
C257 C256 1.524 . S
C257 C258 1.397 . S
C257 C262 1.363 . S
C258 H235 0.950 . S
C258 C257 1.397 . S
C258 C259 1.334 . S
C259 H236 0.950 . S
C259 C258 1.334 . S
C259 C260 1.287 . S
C260 C259 1.287 . S
C260 C261 1.524 . S
C260 H279 0.913 . S
C261 H237 0.950 . S
C261 C260 1.524 . S
C261 C262 1.415 . S
C262 H238 0.950 . S
C262 C257 1.363 . S
C262 C261 1.415 . S
C263 H239 0.951 . S
C263 C264 1.366 . S
C263 C265 1.388 . S
C264 C263 1.366 . S
C264 C268 1.385 . S
C265 H240 0.951 . S
C265 C263 1.388 . S
C265 C266 1.366 . S
C266 C265 1.366 . S
C266 C267 1.414 . S
C266 C269 1.499 . S
C267 H241 0.950 . S
C267 C266 1.414 . S
C267 C268 1.374 . S
C268 H242 0.950 . S
C268 C264 1.385 . S
C268 C267 1.374 . S
C269 C266 1.499 . S
C269 C270 1.373 1_655 S
C269 C271 1.389 . S
C270 H243 0.950 . S
C270 C256 1.377 . S
C270 C269 1.373 1_455 S
C271 C255 1.377 1_655 S
C271 C269 1.389 . S
C271 C272 1.524 . S
C272 C271 1.524 . S
C272 C273 1.397 . S
C272 C277 1.363 . S
C273 H244 0.950 . S
C273 C272 1.397 . S
C273 C274 1.334 . S
C274 H245 0.950 . S
C274 C273 1.334 . S
C274 C275 1.287 . S
C275 C274 1.287 . S
C275 C276 1.524 . S
C275 H278 0.999 . S
C276 H246 0.950 . S
C276 C275 1.524 . S
C276 C277 1.415 . S
C277 H247 0.950 . S
C277 C272 1.363 . S
C277 C276 1.415 . S
H278 C275 0.999 . S
H279 C260 0.913 . S
H280 C298 0.951 . S
H281 C300 0.951 . S
H282 C302 0.950 . S
H283 C303 0.950 . S
H284 C305 0.950 . S
H285 C308 0.950 . S
H286 C309 0.950 . S
H287 C311 0.950 . S
H288 C312 0.950 . S
H289 C313 0.951 . S
H290 C315 0.951 . S
H291 C317 0.950 . S
H292 C318 0.950 . S
H293 C320 0.950 . S
H294 C323 0.950 . S
H295 C324 0.950 . S
H296 C326 0.950 . S
H297 C327 0.950 1_545 S
C298 H280 0.951 . S
C298 C299 1.366 . S
C298 C300 1.388 . S
C299 C298 1.366 . S
C299 C303 1.385 . S
C300 H281 0.951 . S
C300 C298 1.388 . S
C300 C301 1.366 . S
C301 C300 1.366 . S
C301 C302 1.414 . S
C301 C304 1.499 . S
C302 H282 0.950 . S
C302 C301 1.414 . S
C302 C303 1.374 . S
C303 H283 0.950 . S
C303 C299 1.385 . S
C303 C302 1.374 . S
C304 C301 1.499 . S
C304 C305 1.373 . S
C304 C306 1.389 . S
C305 H284 0.950 . S
C305 C304 1.373 . S
C305 C321 1.377 . S
C306 C304 1.389 . S
C306 C307 1.524 . S
C306 C320 1.377 . S
C307 C306 1.524 . S
C307 C308 1.397 . S
C307 C312 1.363 . S
C308 H285 0.950 . S
C308 C307 1.397 . S
C308 C309 1.334 . S
C309 H286 0.950 . S
C309 C308 1.334 . S
C309 C310 1.287 . S
C310 C309 1.287 . S
C310 C311 1.524 . S
C310 H329 0.913 . S
C311 H287 0.950 . S
C311 C310 1.524 . S
C311 C312 1.415 . S
C312 H288 0.950 . S
C312 C307 1.363 . S
C312 C311 1.415 . S
C313 H289 0.951 . S
C313 C314 1.366 . S
C313 C315 1.388 . S
C314 C313 1.366 . S
C314 C318 1.385 . S
C315 H290 0.951 . S
C315 C313 1.388 . S
C315 C316 1.366 . S
C316 C315 1.366 . S
C316 C317 1.414 . S
C316 C319 1.499 . S
C317 H291 0.950 . S
C317 C316 1.414 . S
C317 C318 1.374 . S
C318 H292 0.950 . S
C318 C314 1.385 . S
C318 C317 1.374 . S
C319 C316 1.499 . S
C319 C320 1.373 1_565 S
C319 C321 1.389 1_565 S
C320 H293 0.950 . S
C320 C306 1.377 . S
C320 C319 1.373 1_545 S
C321 C305 1.377 . S
C321 C319 1.389 1_545 S
C321 C322 1.524 1_545 S
C322 C321 1.524 1_565 S
C322 C323 1.397 . S
C322 C327 1.363 . S
C323 H294 0.950 . S
C323 C322 1.397 . S
C323 C324 1.334 . S
C324 H295 0.950 . S
C324 C323 1.334 . S
C324 C325 1.287 . S
C325 C324 1.287 . S
C325 C326 1.524 . S
C325 H328 0.999 . S
C326 H296 0.950 . S
C326 C325 1.524 . S
C326 C327 1.415 . S
C327 H297 0.950 1_565 S
C327 C322 1.363 . S
C327 C326 1.415 . S
H328 C325 0.999 . S
H329 C310 0.913 . S
H330 C348 0.951 . S
H331 C350 0.951 . S
H332 C352 0.950 . S
H333 C353 0.950 . S
H334 C355 0.950 . S
H335 C358 0.950 . S
H336 C359 0.950 . S
H337 C361 0.950 . S
H338 C362 0.950 . S
H339 C363 0.952 . S
H340 C365 0.951 . S
H341 C367 0.950 . S
H342 C368 0.950 . S
H343 C370 0.950 1_554 S
H344 C373 0.950 . S
H345 C374 0.950 . S
H346 C376 0.950 . S
H347 C377 0.950 . S
C348 H330 0.951 . S
C348 C349 1.366 . S
C348 C350 1.388 . S
C349 C348 1.366 . S
C349 C353 1.385 . S
C350 H331 0.951 . S
C350 C348 1.388 . S
C350 C351 1.366 . S
C351 C350 1.366 . S
C351 C352 1.414 . S
C351 C354 1.499 . S
C352 H332 0.950 . S
C352 C351 1.414 . S
C352 C353 1.374 . S
C353 H333 0.950 . S
C353 C349 1.385 . S
C353 C352 1.374 . S
C354 C351 1.499 . S
C354 C355 1.373 . S
C354 C356 1.389 . S
C355 H334 0.950 . S
C355 C354 1.373 . S
C355 C371 1.377 . S
C356 C354 1.389 . S
C356 C357 1.524 1_556 S
C356 C370 1.377 . S
C357 C356 1.524 1_554 S
C357 C358 1.397 1_554 S
C357 C362 1.363 . S
C358 H335 0.950 . S
C358 C357 1.397 1_556 S
C358 C359 1.334 1_556 S
C359 H336 0.950 . S
C359 C358 1.334 1_554 S
C359 C360 1.287 . S
C360 C359 1.287 . S
C360 C361 1.524 . S
C360 H379 0.913 . S
C361 H337 0.950 . S
C361 C360 1.524 . S
C361 C362 1.415 . S
C362 H338 0.950 . S
C362 C357 1.363 . S
C362 C361 1.415 . S
C363 H339 0.952 . S
C363 C364 1.364 1_556 S
C363 C365 1.389 . S
C364 C363 1.364 1_554 S
C364 C368 1.385 . S
C365 H340 0.951 . S
C365 C363 1.389 . S
C365 C366 1.366 . S
C366 C365 1.366 . S
C366 C367 1.414 1_556 S
C366 C369 1.499 . S
C367 H341 0.950 . S
C367 C366 1.414 1_554 S
C367 C368 1.374 . S
C368 H342 0.950 . S
C368 C364 1.385 . S
C368 C367 1.374 . S
C369 C366 1.499 . S
C369 C370 1.373 . S
C369 C371 1.389 . S
C370 H343 0.950 1_556 S
C370 C356 1.377 . S
C370 C369 1.373 . S
C371 C355 1.377 . S
C371 C369 1.389 . S
C371 C372 1.524 . S
C372 C371 1.524 . S
C372 C373 1.397 . S
C372 C377 1.363 . S
C373 H344 0.950 . S
C373 C372 1.397 . S
C373 C374 1.334 . S
C374 H345 0.950 . S
C374 C373 1.334 . S
C374 C375 1.287 . S
C375 C374 1.287 . S
C375 C376 1.524 . S
C375 H378 0.999 . S
C376 H346 0.950 . S
C376 C375 1.524 . S
C376 C377 1.415 . S
C377 H347 0.950 . S
C377 C372 1.363 . S
C377 C376 1.415 . S
H378 C375 0.999 . S
H379 C360 0.913 . S
H380 C398 0.951 . S
H381 C400 0.951 . S
H382 C402 0.950 . S
H383 C403 0.950 . S
H384 C405 0.950 . S
H385 C408 0.950 . S
H386 C409 0.950 . S
H387 C411 0.950 . S
H388 C412 0.950 . S
H389 C413 0.951 . S
H390 C415 0.951 . S
H391 C417 0.950 . S
H392 C418 0.950 . S
H393 C420 0.950 1_655 S
H394 C423 0.950 . S
H395 C424 0.950 . S
H396 C426 0.950 . S
H397 C427 0.950 1_455 S
C398 H380 0.951 . S
C398 C399 1.366 . S
C398 C400 1.388 . S
C399 C398 1.366 . S
C399 C403 1.385 . S
C400 H381 0.951 . S
C400 C398 1.388 . S
C400 C401 1.366 . S
C401 C400 1.366 . S
C401 C402 1.414 . S
C401 C404 1.499 . S
C402 H382 0.950 . S
C402 C401 1.414 . S
C402 C403 1.374 . S
C403 H383 0.950 . S
C403 C399 1.385 . S
C403 C402 1.374 . S
C404 C401 1.499 . S
C404 C405 1.373 . S
C404 C406 1.389 . S
C405 H384 0.950 . S
C405 C404 1.373 . S
C405 C421 1.377 . S
C406 C404 1.389 . S
C406 C407 1.524 . S
C406 C420 1.377 . S
C407 C406 1.524 . S
C407 C408 1.397 . S
C407 C412 1.363 . S
C408 H385 0.950 . S
C408 C407 1.397 . S
C408 C409 1.334 . S
C409 H386 0.950 . S
C409 C408 1.334 . S
C409 C410 1.287 . S
C410 C409 1.287 . S
C410 C411 1.524 . S
C410 H429 0.913 . S
C411 H387 0.950 . S
C411 C410 1.524 . S
C411 C412 1.415 . S
C412 H388 0.950 . S
C412 C407 1.363 . S
C412 C411 1.415 . S
C413 H389 0.951 . S
C413 C414 1.366 . S
C413 C415 1.388 . S
C414 C413 1.366 . S
C414 C418 1.385 . S
C415 H390 0.951 . S
C415 C413 1.388 . S
C415 C416 1.366 . S
C416 C415 1.366 . S
C416 C417 1.414 . S
C416 C419 1.499 . S
C417 H391 0.950 . S
C417 C416 1.414 . S
C417 C418 1.374 . S
C418 H392 0.950 . S
C418 C414 1.385 . S
C418 C417 1.374 . S
C419 C416 1.499 . S
C419 C420 1.373 1_655 S
C419 C421 1.389 1_655 S
C420 H393 0.950 1_455 S
C420 C406 1.377 . S
C420 C419 1.373 1_455 S
C421 C405 1.377 . S
C421 C419 1.389 1_455 S
C421 C422 1.524 1_455 S
C422 C421 1.524 1_655 S
C422 C423 1.397 . S
C422 C427 1.363 . S
C423 H394 0.950 . S
C423 C422 1.397 . S
C423 C424 1.334 . S
C424 H395 0.950 . S
C424 C423 1.334 . S
C424 C425 1.287 . S
C425 C424 1.287 . S
C425 C426 1.524 . S
C425 H428 0.999 . S
C426 H396 0.950 . S
C426 C425 1.524 . S
C426 C427 1.415 . S
C427 H397 0.950 1_655 S
C427 C422 1.363 . S
C427 C426 1.415 . S
H428 C425 0.999 . S
H429 C410 0.913 . S
H430 C448 0.951 . S
H431 C450 0.951 . S
H432 C452 0.950 . S
H433 C453 0.950 . S
H434 C455 0.950 . S
H435 C458 0.950 . S
H436 C459 0.950 . S
H437 C461 0.950 . S
H438 C462 0.950 . S
H439 C463 0.951 . S
H440 C465 0.951 . S
H441 C467 0.950 . S
H442 C468 0.950 . S
H443 C470 0.950 . S
H444 C473 0.950 . S
H445 C474 0.950 . S
H446 C476 0.950 . S
H447 C477 0.950 . S
C448 H430 0.951 . S
C448 C449 1.366 . S
C448 C450 1.388 . S
C449 C448 1.366 . S
C449 C453 1.385 . S
C450 H431 0.951 . S
C450 C448 1.388 . S
C450 C451 1.366 . S
C451 C450 1.366 . S
C451 C452 1.414 . S
C451 C454 1.499 . S
C452 H432 0.950 . S
C452 C451 1.414 . S
C452 C453 1.374 . S
C453 H433 0.950 . S
C453 C449 1.385 . S
C453 C452 1.374 . S
C454 C451 1.499 . S
C454 C455 1.373 . S
C454 C456 1.389 . S
C455 H434 0.950 . S
C455 C454 1.373 . S
C455 C471 1.365 1_545 S
C456 C454 1.389 . S
C456 C457 1.524 . S
C456 C470 1.377 . S
C457 C456 1.524 . S
C457 C458 1.397 . S
C457 C462 1.363 . S
C458 H435 0.950 . S
C458 C457 1.397 . S
C458 C459 1.334 . S
C459 H436 0.950 . S
C459 C458 1.334 . S
C459 C460 1.287 . S
C460 C459 1.287 . S
C460 C461 1.524 . S
C460 H479 0.913 . S
C461 H437 0.950 . S
C461 C460 1.524 . S
C461 C462 1.415 . S
C462 H438 0.950 . S
C462 C457 1.363 . S
C462 C461 1.415 . S
C463 H439 0.951 . S
C463 C464 1.366 . S
C463 C465 1.388 . S
C464 C463 1.366 . S
C464 C468 1.385 . S
C465 H440 0.951 . S
C465 C463 1.388 . S
C465 C466 1.366 . S
C466 C465 1.366 . S
C466 C467 1.414 . S
C466 C469 1.499 . S
C467 H441 0.950 . S
C467 C466 1.414 . S
C467 C468 1.374 . S
C468 H442 0.950 . S
C468 C464 1.385 . S
C468 C467 1.374 . S
C469 C466 1.499 . S
C469 C470 1.373 1_565 S
C469 C471 1.394 . S
C470 H443 0.950 . S
C470 C456 1.377 . S
C470 C469 1.373 1_545 S
C471 C455 1.365 1_565 S
C471 C469 1.394 . S
C471 C472 1.531 . S
C472 C471 1.531 . S
C472 C473 1.397 . S
C472 C477 1.363 . S
C473 H444 0.950 . S
C473 C472 1.397 . S
C473 C474 1.334 . S
C474 H445 0.950 . S
C474 C473 1.334 . S
C474 C475 1.287 . S
C475 C474 1.287 . S
C475 C476 1.524 . S
C475 H478 0.999 . S
C476 H446 0.950 . S
C476 C475 1.524 . S
C476 C477 1.415 . S
C477 H447 0.950 . S
C477 C472 1.363 . S
C477 C476 1.415 . S
H478 C475 0.999 . S
H479 C460 0.913 . S
H480 C498 0.951 . S
H481 C500 0.951 . S
H482 C502 0.950 . S
H483 C503 0.950 . S
H484 C505 0.950 . S
H485 C508 0.950 . S
H486 C509 0.950 . S
H487 C511 0.950 . S
H488 C512 0.950 . S
H489 C513 0.951 . S
H490 C515 0.951 . S
H491 C517 0.950 . S
H492 C518 0.950 . S
H493 C520 0.950 . S
H494 C523 0.950 . S
H495 C524 0.950 . S
H496 C526 0.950 . S
H497 C527 0.950 . S
C498 H480 0.951 . S
C498 C499 1.366 . S
C498 C500 1.388 . S
C499 C498 1.366 . S
C499 C503 1.385 . S
C500 H481 0.951 . S
C500 C498 1.388 . S
C500 C501 1.366 . S
C501 C500 1.366 . S
C501 C502 1.414 . S
C501 C504 1.499 . S
C502 H482 0.950 . S
C502 C501 1.414 . S
C502 C503 1.374 . S
C503 H483 0.950 . S
C503 C499 1.385 . S
C503 C502 1.374 . S
C504 C501 1.499 . S
C504 C505 1.373 . S
C504 C506 1.389 . S
C505 H484 0.950 . S
C505 C504 1.373 . S
C505 C521 1.377 . S
C506 C504 1.389 . S
C506 C507 1.524 . S
C506 C520 1.377 . S
C507 C506 1.524 . S
C507 C508 1.397 . S
C507 C512 1.363 . S
C508 H485 0.950 . S
C508 C507 1.397 . S
C508 C509 1.334 . S
C509 H486 0.950 . S
C509 C508 1.334 . S
C509 C510 1.287 . S
C510 C509 1.287 . S
C510 C511 1.524 . S
C510 H529 0.913 . S
C511 H487 0.950 . S
C511 C510 1.524 . S
C511 C512 1.415 . S
C512 H488 0.950 . S
C512 C507 1.363 . S
C512 C511 1.415 . S
C513 H489 0.951 . S
C513 C514 1.366 . S
C513 C515 1.388 . S
C514 C513 1.366 . S
C514 C518 1.385 . S
C515 H490 0.951 . S
C515 C513 1.388 . S
C515 C516 1.366 . S
C516 C515 1.366 . S
C516 C517 1.414 . S
C516 C519 1.499 . S
C517 H491 0.950 . S
C517 C516 1.414 . S
C517 C518 1.374 . S
C518 H492 0.950 . S
C518 C514 1.385 . S
C518 C517 1.374 . S
C519 C516 1.499 . S
C519 C520 1.373 . S
C519 C521 1.389 . S
C520 H493 0.950 . S
C520 C506 1.377 . S
C520 C519 1.373 . S
C521 C505 1.377 . S
C521 C519 1.389 . S
C521 C522 1.524 . S
C522 C521 1.524 . S
C522 C523 1.397 . S
C522 C527 1.363 . S
C523 H494 0.950 . S
C523 C522 1.397 . S
C523 C524 1.334 . S
C524 H495 0.950 . S
C524 C523 1.334 . S
C524 C525 1.287 . S
C525 C524 1.287 . S
C525 C526 1.524 . S
C525 H528 0.999 . S
C526 H496 0.950 . S
C526 C525 1.524 . S
C526 C527 1.415 . S
C527 H497 0.950 . S
C527 C522 1.363 . S
C527 C526 1.415 . S
H528 C525 0.999 . S
H529 C510 0.913 . S
H530 C548 0.951 . S
H531 C550 0.951 . S
H532 C552 0.950 . S
H533 C553 0.950 . S
H534 C555 0.950 . S
H535 C558 0.950 . S
H536 C559 0.950 . S
H537 C561 0.950 . S
H538 C562 0.950 . S
H539 C563 0.951 . S
H540 C565 0.951 . S
H541 C567 0.950 . S
H542 C568 0.950 . S
H543 C570 0.950 . S
H544 C573 0.950 . S
H545 C574 0.950 . S
H546 C576 0.950 . S
H547 C577 0.950 . S
C548 H530 0.951 . S
C548 C549 1.366 . S
C548 C550 1.388 . S
C549 C548 1.366 . S
C549 C553 1.385 . S
C550 H531 0.951 . S
C550 C548 1.388 . S
C550 C551 1.366 . S
C551 C550 1.366 . S
C551 C552 1.414 . S
C551 C554 1.499 . S
C552 H532 0.950 . S
C552 C551 1.414 . S
C552 C553 1.374 . S
C553 H533 0.950 . S
C553 C549 1.385 . S
C553 C552 1.374 . S
C554 C551 1.499 . S
C554 C555 1.373 . S
C554 C556 1.389 . S
C555 H534 0.950 . S
C555 C554 1.373 . S
C555 C571 1.377 1_554 S
C556 C554 1.389 . S
C556 C557 1.524 . S
C556 C570 1.377 1_554 S
C557 C556 1.524 . S
C557 C558 1.397 . S
C557 C562 1.363 . S
C558 H535 0.950 . S
C558 C557 1.397 . S
C558 C559 1.334 . S
C559 H536 0.950 . S
C559 C558 1.334 . S
C559 C560 1.287 . S
C560 C559 1.287 . S
C560 C561 1.524 . S
C560 H579 0.913 . S
C561 H537 0.950 . S
C561 C560 1.524 . S
C561 C562 1.415 . S
C562 H538 0.950 . S
C562 C557 1.363 . S
C562 C561 1.415 . S
C563 H539 0.951 . S
C563 C564 1.366 . S
C563 C565 1.388 . S
C564 C563 1.366 . S
C564 C568 1.385 . S
C565 H540 0.951 . S
C565 C563 1.388 . S
C565 C566 1.366 . S
C566 C565 1.366 . S
C566 C567 1.414 . S
C566 C569 1.499 . S
C567 H541 0.950 . S
C567 C566 1.414 . S
C567 C568 1.374 . S
C568 H542 0.950 . S
C568 C564 1.385 . S
C568 C567 1.374 . S
C569 C566 1.499 . S
C569 C570 1.373 . S
C569 C571 1.389 . S
C570 H543 0.950 . S
C570 C556 1.377 1_556 S
C570 C569 1.373 . S
C571 C555 1.377 1_556 S
C571 C569 1.389 . S
C571 C572 1.524 . S
C572 C571 1.524 . S
C572 C573 1.397 . S
C572 C577 1.363 . S
C573 H544 0.950 . S
C573 C572 1.397 . S
C573 C574 1.334 . S
C574 H545 0.950 . S
C574 C573 1.334 . S
C574 C575 1.287 . S
C575 C574 1.287 . S
C575 C576 1.524 . S
C575 H578 0.999 . S
C576 H546 0.950 . S
C576 C575 1.524 . S
C576 C577 1.415 . S
C577 H547 0.950 . S
C577 C572 1.363 . S
C577 C576 1.415 . S
H578 C575 0.999 . S
H579 C560 0.913 . S
H580 C598 0.951 . S
H581 C600 0.951 . S
H582 C602 0.950 . S
H583 C603 0.950 . S
H584 C605 0.950 . S
H585 C608 0.950 . S
H586 C609 0.950 . S
H587 C611 0.950 . S
H588 C612 0.950 . S
H589 C613 0.951 . S
H590 C615 0.951 1_554 S
H591 C617 0.950 . S
H592 C618 0.950 . S
H593 C620 0.950 . S
H594 C623 0.950 . S
H595 C624 0.950 1_556 S
H596 C626 0.950 . S
H597 C627 0.950 . S
C598 H580 0.951 . S
C598 C599 1.366 . S
C598 C600 1.388 . S
C599 C598 1.366 . S
C599 C603 1.385 . S
C600 H581 0.951 . S
C600 C598 1.388 . S
C600 C601 1.366 . S
C601 C600 1.366 . S
C601 C602 1.414 . S
C601 C604 1.499 . S
C602 H582 0.950 . S
C602 C601 1.414 . S
C602 C603 1.374 . S
C603 H583 0.950 . S
C603 C599 1.385 . S
C603 C602 1.374 . S
C604 C601 1.499 . S
C604 C605 1.373 . S
C604 C606 1.389 . S
C605 H584 0.950 . S
C605 C604 1.373 . S
C605 C621 1.377 . S
C606 C604 1.389 . S
C606 C607 1.524 . S
C606 C620 1.377 . S
C607 C606 1.524 . S
C607 C608 1.397 . S
C607 C612 1.363 . S
C608 H585 0.950 . S
C608 C607 1.397 . S
C608 C609 1.334 . S
C609 H586 0.950 . S
C609 C608 1.334 . S
C609 C610 1.287 . S
C610 C609 1.287 . S
C610 C611 1.524 . S
C610 H629 0.913 . S
C611 H587 0.950 . S
C611 C610 1.524 . S
C611 C612 1.415 . S
C612 H588 0.950 . S
C612 C607 1.363 . S
C612 C611 1.415 . S
C613 H589 0.951 . S
C613 C614 1.366 . S
C613 C615 1.388 . S
C614 C613 1.366 . S
C614 C618 1.385 . S
C615 H590 0.951 1_556 S
C615 C613 1.388 . S
C615 C616 1.366 1_556 S
C616 C615 1.366 1_554 S
C616 C617 1.414 1_554 S
C616 C619 1.499 . S
C617 H591 0.950 . S
C617 C616 1.414 1_556 S
C617 C618 1.374 . S
C618 H592 0.950 . S
C618 C614 1.385 . S
C618 C617 1.374 . S
C619 C616 1.499 . S
C619 C620 1.373 . S
C619 C621 1.389 . S
C620 H593 0.950 . S
C620 C606 1.377 . S
C620 C619 1.373 . S
C621 C605 1.377 . S
C621 C619 1.389 . S
C621 C622 1.524 . S
C622 C621 1.524 . S
C622 C623 1.397 . S
C622 C627 1.363 . S
C623 H594 0.950 . S
C623 C622 1.397 . S
C623 C624 1.334 . S
C624 H595 0.950 1_554 S
C624 C623 1.334 . S
C624 C625 1.287 . S
C625 C624 1.287 . S
C625 C626 1.524 . S
C625 H628 0.999 . S
C626 H596 0.950 . S
C626 C625 1.524 . S
C626 C627 1.415 . S
C627 H597 0.950 . S
C627 C622 1.363 . S
C627 C626 1.415 . S
H628 C625 0.999 . S
H629 C610 0.913 . S
H630 C648 0.951 . S
H631 C650 0.951 . S
H632 C652 0.950 . S
H633 C653 0.950 . S
H634 C655 0.950 . S
H635 C658 0.950 . S
H636 C659 0.950 . S
H637 C661 0.950 . S
H638 C662 0.950 . S
H639 C663 0.951 . S
H640 C665 0.951 . S
H641 C667 0.950 . S
H642 C668 0.950 . S
H643 C670 0.950 . S
H644 C673 0.950 . S
H645 C674 0.950 . S
H646 C676 0.950 . S
H647 C677 0.950 . S
C648 H630 0.951 . S
C648 C649 1.366 . S
C648 C650 1.388 . S
C649 C648 1.366 . S
C649 C653 1.385 . S
C650 H631 0.951 . S
C650 C648 1.388 . S
C650 C651 1.366 . S
C651 C650 1.366 . S
C651 C652 1.414 . S
C651 C654 1.499 . S
C652 H632 0.950 . S
C652 C651 1.414 . S
C652 C653 1.374 . S
C653 H633 0.950 . S
C653 C649 1.385 . S
C653 C652 1.374 . S
C654 C651 1.499 . S
C654 C655 1.373 . S
C654 C656 1.389 . S
C655 H634 0.950 . S
C655 C654 1.373 . S
C655 C671 1.377 . S
C656 C654 1.389 . S
C656 C657 1.524 . S
C656 C670 1.377 . S
C657 C656 1.524 . S
C657 C658 1.397 . S
C657 C662 1.363 . S
C658 H635 0.950 . S
C658 C657 1.397 . S
C658 C659 1.334 . S
C659 H636 0.950 . S
C659 C658 1.334 . S
C659 C660 1.287 . S
C660 C659 1.287 . S
C660 C661 1.524 . S
C660 H679 0.913 . S
C661 H637 0.950 . S
C661 C660 1.524 . S
C661 C662 1.415 . S
C662 H638 0.950 . S
C662 C657 1.363 . S
C662 C661 1.415 . S
C663 H639 0.951 . S
C663 C664 1.366 . S
C663 C665 1.388 . S
C664 C663 1.366 . S
C664 C668 1.385 . S
C665 H640 0.951 . S
C665 C663 1.388 . S
C665 C666 1.366 . S
C666 C665 1.366 . S
C666 C667 1.414 . S
C666 C669 1.499 . S
C667 H641 0.950 . S
C667 C666 1.414 . S
C667 C668 1.374 . S
C668 H642 0.950 . S
C668 C664 1.385 . S
C668 C667 1.374 . S
C669 C666 1.499 . S
C669 C670 1.373 . S
C669 C671 1.389 . S
C670 H643 0.950 . S
C670 C656 1.377 . S
C670 C669 1.373 . S
C671 C655 1.377 . S
C671 C669 1.389 . S
C671 C672 1.524 . S
C672 C671 1.524 . S
C672 C673 1.397 . S
C672 C677 1.363 . S
C673 H644 0.950 . S
C673 C672 1.397 . S
C673 C674 1.334 . S
C674 H645 0.950 . S
C674 C673 1.334 . S
C674 C675 1.287 . S
C675 C674 1.287 . S
C675 C676 1.524 . S
C675 H678 0.999 . S
C676 H646 0.950 . S
C676 C675 1.524 . S
C676 C677 1.415 . S
C677 H647 0.950 . S
C677 C672 1.363 . S
C677 C676 1.415 . S
H678 C675 0.999 . S
H679 C660 0.913 . S
H680 C698 0.951 . S
H681 C700 0.951 . S
H682 C702 0.950 . S
H683 C703 0.950 . S
H684 C705 0.950 . S
H685 C708 0.950 . S
H686 C709 0.950 . S
H687 C711 0.950 . S
H688 C712 0.950 . S
H689 C713 0.951 . S
H690 C715 0.951 . S
H691 C717 0.950 . S
H692 C718 0.950 . S
H693 C720 0.950 . S
H694 C723 0.950 . S
H695 C724 0.950 . S
H696 C726 0.950 . S
H697 C727 0.950 . S
C698 H680 0.951 . S
C698 C699 1.366 . S
C698 C700 1.388 . S
C699 C698 1.366 . S
C699 C703 1.385 . S
C700 H681 0.951 . S
C700 C698 1.388 . S
C700 C701 1.366 . S
C701 C700 1.366 . S
C701 C702 1.414 . S
C701 C704 1.499 . S
C702 H682 0.950 . S
C702 C701 1.414 . S
C702 C703 1.374 . S
C703 H683 0.950 . S
C703 C699 1.385 . S
C703 C702 1.374 . S
C704 C701 1.499 . S
C704 C705 1.373 . S
C704 C706 1.389 . S
C705 H684 0.950 . S
C705 C704 1.373 . S
C705 C721 1.377 . S
C706 C704 1.389 . S
C706 C707 1.524 . S
C706 C720 1.377 . S
C707 C706 1.524 . S
C707 C708 1.397 . S
C707 C712 1.363 . S
C708 H685 0.950 . S
C708 C707 1.397 . S
C708 C709 1.334 . S
C709 H686 0.950 . S
C709 C708 1.334 . S
C709 C710 1.287 . S
C710 C709 1.287 . S
C710 C711 1.524 . S
C710 H729 0.913 . S
C711 H687 0.950 . S
C711 C710 1.524 . S
C711 C712 1.415 . S
C712 H688 0.950 . S
C712 C707 1.363 . S
C712 C711 1.415 . S
C713 H689 0.951 . S
C713 C714 1.366 . S
C713 C715 1.388 . S
C714 C713 1.366 . S
C714 C718 1.385 . S
C715 H690 0.951 . S
C715 C713 1.388 . S
C715 C716 1.366 1_554 S
C716 C715 1.366 1_556 S
C716 C717 1.414 1_556 S
C716 C719 1.499 . S
C717 H691 0.950 . S
C717 C716 1.414 1_554 S
C717 C718 1.374 . S
C718 H692 0.950 . S
C718 C714 1.385 . S
C718 C717 1.374 . S
C719 C716 1.499 . S
C719 C720 1.373 . S
C719 C721 1.389 . S
C720 H693 0.950 . S
C720 C706 1.377 . S
C720 C719 1.373 . S
C721 C705 1.377 . S
C721 C719 1.389 . S
C721 C722 1.524 . S
C722 C721 1.524 . S
C722 C723 1.397 . S
C722 C727 1.363 . S
C723 H694 0.950 . S
C723 C722 1.397 . S
C723 C724 1.334 . S
C724 H695 0.950 . S
C724 C723 1.334 . S
C724 C725 1.287 . S
C725 C724 1.287 . S
C725 C726 1.524 . S
C725 H728 0.999 . S
C726 H696 0.950 . S
C726 C725 1.524 . S
C726 C727 1.415 . S
C727 H697 0.950 . S
C727 C722 1.363 . S
C727 C726 1.415 . S
H728 C725 0.999 . S
H729 C710 0.913 . S
H730 C748 0.951 . S
H731 C750 0.951 . S
H732 C752 0.950 . S
H733 C753 0.950 . S
H734 C755 0.950 . S
H735 C758 0.950 . S
H736 C759 0.950 . S
H737 C761 0.950 . S
H738 C762 0.950 . S
H739 C763 0.951 . S
H740 C765 0.951 . S
H741 C767 0.950 . S
H742 C768 0.950 . S
H743 C770 0.950 . S
H744 C773 0.950 . S
H745 C774 0.950 . S
H746 C776 0.950 . S
H747 C777 0.950 . S
C748 H730 0.951 . S
C748 C749 1.366 . S
C748 C750 1.388 . S
C749 C748 1.366 . S
C749 C753 1.385 . S
C750 H731 0.951 . S
C750 C748 1.388 . S
C750 C751 1.366 . S
C751 C750 1.366 . S
C751 C752 1.414 . S
C751 C754 1.499 . S
C752 H732 0.950 . S
C752 C751 1.414 . S
C752 C753 1.374 . S
C753 H733 0.950 . S
C753 C749 1.385 . S
C753 C752 1.374 . S
C754 C751 1.499 . S
C754 C755 1.373 . S
C754 C756 1.389 . S
C755 H734 0.950 . S
C755 C754 1.373 . S
C755 C771 1.377 . S
C756 C754 1.389 . S
C756 C757 1.524 . S
C756 C770 1.377 . S
C757 C756 1.524 . S
C757 C758 1.397 . S
C757 C762 1.363 . S
C758 H735 0.950 . S
C758 C757 1.397 . S
C758 C759 1.334 . S
C759 H736 0.950 . S
C759 C758 1.334 . S
C759 C760 1.287 . S
C760 C759 1.287 . S
C760 C761 1.524 . S
C760 H779 0.913 . S
C761 H737 0.950 . S
C761 C760 1.524 . S
C761 C762 1.415 . S
C762 H738 0.950 . S
C762 C757 1.363 . S
C762 C761 1.415 . S
C763 H739 0.951 . S
C763 C764 1.366 . S
C763 C765 1.388 . S
C764 C763 1.366 . S
C764 C768 1.385 . S
C765 H740 0.951 . S
C765 C763 1.388 . S
C765 C766 1.366 . S
C766 C765 1.366 . S
C766 C767 1.414 . S
C766 C769 1.499 . S
C767 H741 0.950 . S
C767 C766 1.414 . S
C767 C768 1.374 . S
C768 H742 0.950 . S
C768 C764 1.385 . S
C768 C767 1.374 . S
C769 C766 1.499 . S
C769 C770 1.373 . S
C769 C771 1.389 . S
C770 H743 0.950 . S
C770 C756 1.377 . S
C770 C769 1.373 . S
C771 C755 1.377 . S
C771 C769 1.389 . S
C771 C772 1.524 . S
C772 C771 1.524 . S
C772 C773 1.397 . S
C772 C777 1.363 . S
C773 H744 0.950 . S
C773 C772 1.397 . S
C773 C774 1.334 . S
C774 H745 0.950 . S
C774 C773 1.334 . S
C774 C775 1.287 . S
C775 C774 1.287 . S
C775 C776 1.524 . S
C775 H778 0.999 . S
C776 H746 0.950 . S
C776 C775 1.524 . S
C776 C777 1.415 . S
C777 H747 0.950 . S
C777 C772 1.363 . S
C777 C776 1.415 . S
H778 C775 0.999 . S
H779 C760 0.913 . S
H780 C798 0.951 . S
H781 C800 0.951 . S
H782 C802 0.950 . S
H783 C803 0.950 . S
H784 C805 0.950 . S
H785 C808 0.950 . S
H786 C809 0.950 . S
H787 C811 0.950 . S
H788 C812 0.962 . S
H789 C813 0.951 . S
H790 C815 0.951 . S
H791 C817 0.950 . S
H792 C818 0.950 . S
H793 C820 0.950 . S
H794 C823 0.950 . S
H795 C824 0.950 . S
H796 C826 0.950 . S
H797 C827 0.950 . S
C798 H780 0.951 . S
C798 C799 1.366 . S
C798 C800 1.388 . S
C799 C798 1.366 . S
C799 C803 1.385 . S
C800 H781 0.951 . S
C800 C798 1.388 . S
C800 C801 1.366 . S
C801 C800 1.366 . S
C801 C802 1.414 . S
C801 C804 1.499 . S
C802 H782 0.950 . S
C802 C801 1.414 . S
C802 C803 1.374 . S
C803 H783 0.950 . S
C803 C799 1.385 . S
C803 C802 1.374 . S
C804 C801 1.499 . S
C804 C805 1.373 . S
C804 C806 1.389 . S
C805 H784 0.950 . S
C805 C804 1.373 . S
C805 C821 1.377 . S
C806 C804 1.389 . S
C806 C807 1.524 . S
C806 C820 1.377 . S
C807 C806 1.524 . S
C807 C808 1.397 1_554 S
C807 C812 1.364 . S
C808 H785 0.950 . S
C808 C807 1.397 1_556 S
C808 C809 1.334 . S
C809 H786 0.950 . S
C809 C808 1.334 . S
C809 C810 1.287 . S
C810 C809 1.287 . S
C810 C811 1.524 . S
C810 H829 0.913 . S
C811 H787 0.950 . S
C811 C810 1.524 . S
C811 C812 1.402 1_556 S
C812 H788 0.962 . S
C812 C807 1.364 . S
C812 C811 1.402 1_554 S
C813 H789 0.951 . S
C813 C814 1.366 . S
C813 C815 1.388 . S
C814 C813 1.366 . S
C814 C818 1.385 . S
C815 H790 0.951 . S
C815 C813 1.388 . S
C815 C816 1.366 . S
C816 C815 1.366 . S
C816 C817 1.414 . S
C816 C819 1.499 . S
C817 H791 0.950 . S
C817 C816 1.414 . S
C817 C818 1.374 . S
C818 H792 0.950 . S
C818 C814 1.385 . S
C818 C817 1.374 . S
C819 C816 1.499 . S
C819 C820 1.373 . S
C819 C821 1.389 . S
C820 H793 0.950 . S
C820 C806 1.377 . S
C820 C819 1.373 . S
C821 C805 1.377 . S
C821 C819 1.389 . S
C821 C822 1.524 . S
C822 C821 1.524 . S
C822 C823 1.397 . S
C822 C827 1.363 . S
C823 H794 0.950 . S
C823 C822 1.397 . S
C823 C824 1.334 . S
C824 H795 0.950 . S
C824 C823 1.334 . S
C824 C825 1.287 . S
C825 C824 1.287 . S
C825 C826 1.524 . S
C825 H828 0.999 . S
C826 H796 0.950 . S
C826 C825 1.524 . S
C826 C827 1.415 . S
C827 H797 0.950 . S
C827 C822 1.363 . S
C827 C826 1.415 . S
H828 C825 0.999 . S
H829 C810 0.913 . S
H830 C848 0.951 . S
H831 C850 0.951 . S
H832 C852 0.950 . S
H833 C853 0.950 . S
H834 C855 0.950 . S
H835 C858 0.950 . S
H836 C859 0.950 . S
H837 C861 0.950 . S
H838 C862 0.950 . S
H839 C863 0.951 . S
H840 C865 0.951 . S
H841 C867 0.950 . S
H842 C868 0.950 . S
H843 C870 0.950 . S
H844 C873 0.950 . S
H845 C874 0.950 . S
H846 C876 0.950 . S
H847 C877 0.950 . S
C848 H830 0.951 . S
C848 C849 1.366 . S
C848 C850 1.388 . S
C849 C848 1.366 . S
C849 C853 1.385 . S
C850 H831 0.951 . S
C850 C848 1.388 . S
C850 C851 1.366 . S
C851 C850 1.366 . S
C851 C852 1.414 . S
C851 C854 1.499 . S
C852 H832 0.950 . S
C852 C851 1.414 . S
C852 C853 1.374 . S
C853 H833 0.950 . S
C853 C849 1.385 . S
C853 C852 1.374 . S
C854 C851 1.499 . S
C854 C855 1.373 . S
C854 C856 1.389 . S
C855 H834 0.950 . S
C855 C854 1.373 . S
C855 C871 1.377 . S
C856 C854 1.389 . S
C856 C857 1.524 . S
C856 C870 1.377 . S
C857 C856 1.524 . S
C857 C858 1.397 . S
C857 C862 1.363 . S
C858 H835 0.950 . S
C858 C857 1.397 . S
C858 C859 1.334 . S
C859 H836 0.950 . S
C859 C858 1.334 . S
C859 C860 1.287 . S
C860 C859 1.287 . S
C860 C861 1.524 . S
C860 H879 0.913 . S
C861 H837 0.950 . S
C861 C860 1.524 . S
C861 C862 1.415 . S
C862 H838 0.950 . S
C862 C857 1.363 . S
C862 C861 1.415 . S
C863 H839 0.951 . S
C863 C864 1.366 . S
C863 C865 1.388 . S
C864 C863 1.366 . S
C864 C868 1.385 . S
C865 H840 0.951 . S
C865 C863 1.388 . S
C865 C866 1.366 . S
C866 C865 1.366 . S
C866 C867 1.414 . S
C866 C869 1.499 . S
C867 H841 0.950 . S
C867 C866 1.414 . S
C867 C868 1.374 . S
C868 H842 0.950 . S
C868 C864 1.385 . S
C868 C867 1.374 . S
C869 C866 1.499 . S
C869 C870 1.373 . S
C869 C871 1.389 . S
C870 H843 0.950 . S
C870 C856 1.377 . S
C870 C869 1.373 . S
C871 C855 1.377 . S
C871 C869 1.389 . S
C871 C872 1.524 . S
C872 C871 1.524 . S
C872 C873 1.397 . S
C872 C877 1.363 . S
C873 H844 0.950 . S
C873 C872 1.397 . S
C873 C874 1.334 . S
C874 H845 0.950 . S
C874 C873 1.334 . S
C874 C875 1.287 . S
C875 C874 1.287 . S
C875 C876 1.524 . S
C875 H878 0.999 . S
C876 H846 0.950 . S
C876 C875 1.524 . S
C876 C877 1.415 . S
C877 H847 0.950 . S
C877 C872 1.363 . S
C877 C876 1.415 . S
H878 C875 0.999 . S
H879 C860 0.913 . S
H880 C898 0.951 . S
H881 C900 0.951 . S
H882 C902 0.950 . S
H883 C903 0.950 . S
H884 C905 0.950 . S
H885 C908 0.950 . S
H886 C909 0.950 . S
H887 C911 0.950 . S
H888 C912 0.950 . S
H889 C913 0.951 . S
H890 C915 0.951 . S
H891 C917 0.950 . S
H892 C918 0.950 . S
H893 C920 0.950 . S
H894 C923 0.950 . S
H895 C924 0.950 . S
H896 C926 0.950 . S
H897 C927 0.950 . S
C898 H880 0.951 . S
C898 C899 1.366 . S
C898 C900 1.388 . S
C899 C898 1.366 . S
C899 C903 1.385 . S
C900 H881 0.951 . S
C900 C898 1.388 . S
C900 C901 1.366 . S
C901 C900 1.366 . S
C901 C902 1.414 . S
C901 C904 1.499 . S
C902 H882 0.950 . S
C902 C901 1.414 . S
C902 C903 1.374 . S
C903 H883 0.950 . S
C903 C899 1.385 . S
C903 C902 1.374 . S
C904 C901 1.499 . S
C904 C905 1.373 . S
C904 C906 1.389 . S
C905 H884 0.950 . S
C905 C904 1.373 . S
C905 C921 1.377 . S
C906 C904 1.389 . S
C906 C907 1.524 . S
C906 C920 1.377 . S
C907 C906 1.524 . S
C907 C908 1.397 . S
C907 C912 1.363 . S
C908 H885 0.950 . S
C908 C907 1.397 . S
C908 C909 1.334 1_556 S
C909 H886 0.950 . S
C909 C908 1.334 1_554 S
C909 C910 1.287 . S
C910 C909 1.287 . S
C910 C911 1.524 1_554 S
C910 H929 0.913 . S
C911 H887 0.950 . S
C911 C910 1.524 1_556 S
C911 C912 1.415 . S
C912 H888 0.950 . S
C912 C907 1.363 . S
C912 C911 1.415 . S
C913 H889 0.951 . S
C913 C914 1.366 . S
C913 C915 1.388 . S
C914 C913 1.366 . S
C914 C918 1.385 . S
C915 H890 0.951 . S
C915 C913 1.388 . S
C915 C916 1.366 . S
C916 C915 1.366 . S
C916 C917 1.414 . S
C916 C919 1.499 . S
C917 H891 0.950 . S
C917 C916 1.414 . S
C917 C918 1.374 . S
C918 H892 0.950 . S
C918 C914 1.385 . S
C918 C917 1.374 . S
C919 C916 1.499 . S
C919 C920 1.373 . S
C919 C921 1.389 . S
C920 H893 0.950 . S
C920 C906 1.377 . S
C920 C919 1.373 . S
C921 C905 1.377 . S
C921 C919 1.389 . S
C921 C922 1.524 . S
C922 C921 1.524 . S
C922 C923 1.397 . S
C922 C927 1.363 . S
C923 H894 0.950 . S
C923 C922 1.397 . S
C923 C924 1.334 . S
C924 H895 0.950 . S
C924 C923 1.334 . S
C924 C925 1.287 . S
C925 C924 1.287 . S
C925 C926 1.524 . S
C925 H928 0.999 . S
C926 H896 0.950 . S
C926 C925 1.524 . S
C926 C927 1.415 . S
C927 H897 0.950 . S
C927 C922 1.363 . S
C927 C926 1.415 . S
H928 C925 0.999 . S
H929 C910 0.913 . S
H930 C948 0.951 . S
H931 C950 0.951 . S
H932 C952 0.950 . S
H933 C953 0.950 . S
H934 C955 0.950 . S
H935 C958 0.950 . S
H936 C959 0.950 . S
H937 C961 0.950 . S
H938 C962 0.950 . S
H939 C963 0.951 . S
H940 C965 0.951 . S
H941 C967 0.950 . S
H942 C968 0.950 . S
H943 C970 0.950 . S
H944 C973 0.950 . S
H945 C974 0.950 . S
H946 C976 0.950 . S
H947 C977 0.950 . S
C948 H930 0.951 . S
C948 C949 1.366 . S
C948 C950 1.388 . S
C949 C948 1.366 . S
C949 C953 1.385 . S
C950 H931 0.951 . S
C950 C948 1.388 . S
C950 C951 1.366 . S
C951 C950 1.366 . S
C951 C952 1.414 . S
C951 C954 1.499 . S
C952 H932 0.950 . S
C952 C951 1.414 . S
C952 C953 1.374 . S
C953 H933 0.950 . S
C953 C949 1.385 . S
C953 C952 1.374 . S
C954 C951 1.499 . S
C954 C955 1.373 . S
C954 C956 1.389 . S
C955 H934 0.950 . S
C955 C954 1.373 . S
C955 C971 1.377 . S
C956 C954 1.389 . S
C956 C957 1.524 . S
C956 C970 1.377 . S
C957 C956 1.524 . S
C957 C958 1.397 . S
C957 C962 1.363 . S
C958 H935 0.950 . S
C958 C957 1.397 . S
C958 C959 1.334 . S
C959 H936 0.950 . S
C959 C958 1.334 . S
C959 C960 1.287 . S
C960 C959 1.287 . S
C960 C961 1.524 . S
C960 H979 0.913 . S
C961 H937 0.950 . S
C961 C960 1.524 . S
C961 C962 1.415 . S
C962 H938 0.950 . S
C962 C957 1.363 . S
C962 C961 1.415 . S
C963 H939 0.951 . S
C963 C964 1.366 . S
C963 C965 1.388 . S
C964 C963 1.366 . S
C964 C968 1.385 . S
C965 H940 0.951 . S
C965 C963 1.388 . S
C965 C966 1.366 . S
C966 C965 1.366 . S
C966 C967 1.414 . S
C966 C969 1.499 . S
C967 H941 0.950 . S
C967 C966 1.414 . S
C967 C968 1.374 . S
C968 H942 0.950 . S
C968 C964 1.385 . S
C968 C967 1.374 . S
C969 C966 1.499 . S
C969 C970 1.373 . S
C969 C971 1.389 . S
C970 H943 0.950 . S
C970 C956 1.377 . S
C970 C969 1.373 . S
C971 C955 1.377 . S
C971 C969 1.389 . S
C971 C972 1.524 . S
C972 C971 1.524 . S
C972 C973 1.397 . S
C972 C977 1.363 . S
C973 H944 0.950 . S
C973 C972 1.397 . S
C973 C974 1.334 . S
C974 H945 0.950 . S
C974 C973 1.334 . S
C974 C975 1.287 . S
C975 C974 1.287 . S
C975 C976 1.524 . S
C975 H978 0.999 . S
C976 H946 0.950 . S
C976 C975 1.524 . S
C976 C977 1.415 . S
C977 H947 0.950 . S
C977 C972 1.363 . S
C977 C976 1.415 . S
H978 C975 0.999 . S
H979 C960 0.913 . S
H980 C998 0.951 . S
H981 C1000 0.951 . S
H982 C1002 0.950 . S
H983 C1003 0.950 . S
H984 C1005 0.950 . S
H985 C1008 0.950 . S
H986 C1009 0.950 . S
H987 C1011 0.950 . S
H988 C1012 0.950 . S
H989 C1013 0.951 . S
H990 C1015 0.951 . S
H991 C1017 0.950 . S
H992 C1018 0.950 . S
H993 C1020 0.950 . S
H994 C1023 0.950 . S
H995 C1024 0.950 . S
H996 C1026 0.950 . S
H997 C1027 0.950 . S
C998 H980 0.951 . S
C998 C999 1.366 . S
C998 C1000 1.388 . S
C999 C998 1.366 . S
C999 C1003 1.385 . S
C1000 H981 0.951 . S
C1000 C998 1.388 . S
C1000 C1001 1.366 . S
C1001 C1000 1.366 . S
C1001 C1002 1.414 . S
C1001 C1004 1.499 . S
C1002 H982 0.950 . S
C1002 C1001 1.414 . S
C1002 C1003 1.374 . S
C1003 H983 0.950 . S
C1003 C999 1.385 . S
C1003 C1002 1.374 . S
C1004 C1001 1.499 . S
C1004 C1005 1.373 . S
C1004 C1006 1.389 . S
C1005 H984 0.950 . S
C1005 C1004 1.373 . S
C1005 C1021 1.377 . S
C1006 C1004 1.389 . S
C1006 C1007 1.524 . S
C1006 C1020 1.377 . S
C1007 C1006 1.524 . S
C1007 C1008 1.397 . S
C1007 C1012 1.363 . S
C1008 H985 0.950 . S
C1008 C1007 1.397 . S
C1008 C1009 1.334 . S
C1009 H986 0.950 . S
C1009 C1008 1.334 . S
C1009 C1010 1.287 . S
C1010 C1009 1.287 . S
C1010 C1011 1.524 . S
C1010 H1029 0.913 . S
C1011 H987 0.950 . S
C1011 C1010 1.524 . S
C1011 C1012 1.415 . S
C1012 H988 0.950 . S
C1012 C1007 1.363 . S
C1012 C1011 1.415 . S
C1013 H989 0.951 . S
C1013 C1014 1.366 . S
C1013 C1015 1.388 . S
C1014 C1013 1.366 . S
C1014 C1018 1.385 . S
C1015 H990 0.951 . S
C1015 C1013 1.388 . S
C1015 C1016 1.366 . S
C1016 C1015 1.366 . S
C1016 C1017 1.414 . S
C1016 C1019 1.499 . S
C1017 H991 0.950 . S
C1017 C1016 1.414 . S
C1017 C1018 1.374 . S
C1018 H992 0.950 . S
C1018 C1014 1.385 . S
C1018 C1017 1.374 . S
C1019 C1016 1.499 . S
C1019 C1020 1.373 . S
C1019 C1021 1.389 . S
C1020 H993 0.950 . S
C1020 C1006 1.377 . S
C1020 C1019 1.373 . S
C1021 C1005 1.377 . S
C1021 C1019 1.389 . S
C1021 C1022 1.524 . S
C1022 C1021 1.524 . S
C1022 C1023 1.397 . S
C1022 C1027 1.363 . S
C1023 H994 0.950 . S
C1023 C1022 1.397 . S
C1023 C1024 1.334 . S
C1024 H995 0.950 . S
C1024 C1023 1.334 . S
C1024 C1025 1.287 . S
C1025 C1024 1.287 . S
C1025 C1026 1.524 . S
C1025 H1028 0.999 . S
C1026 H996 0.950 . S
C1026 C1025 1.524 . S
C1026 C1027 1.415 . S
C1027 H997 0.950 . S
C1027 C1022 1.363 . S
C1027 C1026 1.415 . S
H1028 C1025 0.999 . S
H1029 C1010 0.913 . S
H1030 C1048 0.951 . S
H1031 C1050 0.951 . S
H1032 C1052 0.950 . S
H1033 C1053 0.950 . S
H1034 C1055 0.950 . S
H1035 C1058 0.950 . S
H1036 C1059 0.950 . S
H1037 C1061 0.950 . S
H1038 C1062 0.950 . S
H1039 C1063 0.954 . S
H1040 C1065 0.951 . S
H1041 C1067 0.950 . S
H1042 C1068 0.950 . S
H1043 C1070 0.950 . S
H1044 C1073 0.950 . S
H1045 C1074 0.950 . S
H1046 C1076 0.950 . S
H1047 C1077 0.950 . S
C1048 H1030 0.951 . S
C1048 C1049 1.366 . S
C1048 C1050 1.388 . S
C1049 C1048 1.366 . S
C1049 C1053 1.385 . S
C1050 H1031 0.951 . S
C1050 C1048 1.388 . S
C1050 C1051 1.366 . S
C1051 C1050 1.366 . S
C1051 C1052 1.414 . S
C1051 C1054 1.499 . S
C1052 H1032 0.950 . S
C1052 C1051 1.414 . S
C1052 C1053 1.374 . S
C1053 H1033 0.950 . S
C1053 C1049 1.385 . S
C1053 C1052 1.374 . S
C1054 C1051 1.499 . S
C1054 C1055 1.373 . S
C1054 C1056 1.389 1_554 S
C1055 H1034 0.950 . S
C1055 C1054 1.373 . S
C1055 C1071 1.377 . S
C1056 C1054 1.389 1_556 S
C1056 C1057 1.524 . S
C1056 C1070 1.377 . S
C1057 C1056 1.524 . S
C1057 C1058 1.397 . S
C1057 C1062 1.363 . S
C1058 H1035 0.950 . S
C1058 C1057 1.397 . S
C1058 C1059 1.334 . S
C1059 H1036 0.950 . S
C1059 C1058 1.334 . S
C1059 C1060 1.287 . S
C1060 C1059 1.287 . S
C1060 C1061 1.524 . S
C1060 H1079 0.913 . S
C1061 H1037 0.950 . S
C1061 C1060 1.524 . S
C1061 C1062 1.415 . S
C1062 H1038 0.950 . S
C1062 C1057 1.363 . S
C1062 C1061 1.415 . S
C1063 H1039 0.954 . S
C1063 C1064 1.366 . S
C1063 C1065 1.388 1_556 S
C1064 C1063 1.366 . S
C1064 C1068 1.385 . S
C1065 H1040 0.951 . S
C1065 C1063 1.388 1_554 S
C1065 C1066 1.366 1_554 S
C1066 C1065 1.366 1_556 S
C1066 C1067 1.414 . S
C1066 C1069 1.499 1_556 S
C1067 H1041 0.950 . S
C1067 C1066 1.414 . S
C1067 C1068 1.374 . S
C1068 H1042 0.950 . S
C1068 C1064 1.385 . S
C1068 C1067 1.374 . S
C1069 C1066 1.499 1_554 S
C1069 C1070 1.373 1_554 S
C1069 C1071 1.389 . S
C1070 H1043 0.950 . S
C1070 C1056 1.377 . S
C1070 C1069 1.373 1_556 S
C1071 C1055 1.377 . S
C1071 C1069 1.389 . S
C1071 C1072 1.524 . S
C1072 C1071 1.524 . S
C1072 C1073 1.397 . S
C1072 C1077 1.363 . S
C1073 H1044 0.950 . S
C1073 C1072 1.397 . S
C1073 C1074 1.334 . S
C1074 H1045 0.950 . S
C1074 C1073 1.334 . S
C1074 C1075 1.287 . S
C1075 C1074 1.287 . S
C1075 C1076 1.524 . S
C1075 H1078 0.999 . S
C1076 H1046 0.950 . S
C1076 C1075 1.524 . S
C1076 C1077 1.415 . S
C1077 H1047 0.950 . S
C1077 C1072 1.363 . S
C1077 C1076 1.415 . S
H1078 C1075 0.999 . S
H1079 C1060 0.913 . S
C199 C160 1.557 . S
C214 C10 1.558 . S
C249 N14 1.400 . S
C264 N44 1.400 . S
C299 C40 1.557 . S
C314 C70 1.557 . S
C349 N74 1.400 . S
C364 N104 1.400 . S
C399 C130 1.557 . S
C414 C100 1.558 . S
C449 N164 1.400 . S
C464 N134 1.400 . S
C499 C16 0.859 . S
C514 C27 0.858 . S
C549 C57 0.858 . S
C564 C46 0.858 . S
C599 C76 0.858 . S
C614 C87 0.858 . S
C649 C117 0.859 1_556 S
C664 C106 0.859 . S
C699 C147 0.858 . S
C714 C136 0.858 . S
C749 C177 0.859 . S
C764 C166 0.859 1_554 S
C799 C1 1.546 . S
C814 N126 1.441 . S
C849 N36 1.441 . S
C864 C151 1.546 . S
C899 N6 1.440 . S
C914 C61 1.546 . S
C949 C31 1.546 . S
C964 N96 1.440 . S
C999 C121 1.546 . S
C1014 N66 1.441 . S
C1049 C91 1.546 . S
C1064 N156 1.440 . S
