# Generated by pormake.
# Topology utm, (3)-cn, num edge types: 1
# Building blocks:
#     Node 0, Type 0, BuildingBlock: OLANEW_clean_sbu_2, # of connection points: 3
#     Node 1, Type 0, BuildingBlock: OLANEW_clean_sbu_2, # of connection points: 3
#     Node 2, Type 0, BuildingBlock: OLANEW_clean_sbu_2, # of connection points: 3
#     Node 3, Type 0, BuildingBlock: OLANEW_clean_sbu_2, # of connection points: 3
#     Node 4, Type 0, BuildingBlock: OLANEW_clean_sbu_2, # of connection points: 3
#     Node 5, Type 0, BuildingBlock: OLANEW_clean_sbu_2, # of connection points: 3
#     Node 6, Type 0, BuildingBlock: OLANEW_clean_sbu_2, # of connection points: 3
#     Node 7, Type 0, BuildingBlock: OLANEW_clean_sbu_2, # of connection points: 3
#     Node 8, Type 0, BuildingBlock: OLANEW_clean_sbu_2, # of connection points: 3
#     Node 9, Type 0, BuildingBlock: OLANEW_clean_sbu_2, # of connection points: 3
#     Node 10, Type 0, BuildingBlock: OLANEW_clean_sbu_2, # of connection points: 3
#     Node 11, Type 0, BuildingBlock: OLANEW_clean_sbu_2, # of connection points: 3
#     Node 12, Type 0, BuildingBlock: OLANEW_clean_sbu_2, # of connection points: 3
#     Node 13, Type 0, BuildingBlock: OLANEW_clean_sbu_2, # of connection points: 3
#     Node 14, Type 0, BuildingBlock: OLANEW_clean_sbu_2, # of connection points: 3
#     Node 15, Type 0, BuildingBlock: OLANEW_clean_sbu_2, # of connection points: 3
#     Node 16, Type 0, BuildingBlock: OLANEW_clean_sbu_2, # of connection points: 3
#     Node 17, Type 0, BuildingBlock: OLANEW_clean_sbu_2, # of connection points: 3
#     Node 18, Type 0, BuildingBlock: OLANEW_clean_sbu_2, # of connection points: 3
#     Node 19, Type 0, BuildingBlock: OLANEW_clean_sbu_2, # of connection points: 3
#     Node 20, Type 0, BuildingBlock: OLANEW_clean_sbu_2, # of connection points: 3
#     Node 21, Type 0, BuildingBlock: OLANEW_clean_sbu_2, # of connection points: 3
#     Node 22, Type 0, BuildingBlock: OLANEW_clean_sbu_2, # of connection points: 3
#     Node 23, Type 0, BuildingBlock: OLANEW_clean_sbu_2, # of connection points: 3
#     Node 24, Type 0, BuildingBlock: OLANEW_clean_sbu_2, # of connection points: 3
#     Node 25, Type 0, BuildingBlock: OLANEW_clean_sbu_2, # of connection points: 3
#     Node 26, Type 0, BuildingBlock: OLANEW_clean_sbu_2, # of connection points: 3
#     Node 27, Type 0, BuildingBlock: OLANEW_clean_sbu_2, # of connection points: 3
#     Node 28, Type 0, BuildingBlock: OLANEW_clean_sbu_2, # of connection points: 3
#     Node 29, Type 0, BuildingBlock: OLANEW_clean_sbu_2, # of connection points: 3
#     Node 30, Type 0, BuildingBlock: OLANEW_clean_sbu_2, # of connection points: 3
#     Node 31, Type 0, BuildingBlock: OLANEW_clean_sbu_2, # of connection points: 3
#     Edge 32, Type (0, 0), BuildingBlock: AJUNOK_clean_linker_0, # of connection points: 2
#     Edge 33, Type (0, 0), BuildingBlock: AJUNOK_clean_linker_0, # of connection points: 2
#     Edge 34, Type (0, 0), BuildingBlock: AJUNOK_clean_linker_0, # of connection points: 2
#     Edge 35, Type (0, 0), BuildingBlock: AJUNOK_clean_linker_0, # of connection points: 2
#     Edge 36, Type (0, 0), BuildingBlock: AJUNOK_clean_linker_0, # of connection points: 2
#     Edge 37, Type (0, 0), BuildingBlock: AJUNOK_clean_linker_0, # of connection points: 2
#     Edge 38, Type (0, 0), BuildingBlock: AJUNOK_clean_linker_0, # of connection points: 2
#     Edge 39, Type (0, 0), BuildingBlock: AJUNOK_clean_linker_0, # of connection points: 2
#     Edge 40, Type (0, 0), BuildingBlock: AJUNOK_clean_linker_0, # of connection points: 2
#     Edge 41, Type (0, 0), BuildingBlock: AJUNOK_clean_linker_0, # of connection points: 2
#     Edge 42, Type (0, 0), BuildingBlock: AJUNOK_clean_linker_0, # of connection points: 2
#     Edge 43, Type (0, 0), BuildingBlock: AJUNOK_clean_linker_0, # of connection points: 2
#     Edge 44, Type (0, 0), BuildingBlock: AJUNOK_clean_linker_0, # of connection points: 2
#     Edge 45, Type (0, 0), BuildingBlock: AJUNOK_clean_linker_0, # of connection points: 2
#     Edge 46, Type (0, 0), BuildingBlock: AJUNOK_clean_linker_0, # of connection points: 2
#     Edge 47, Type (0, 0), BuildingBlock: AJUNOK_clean_linker_0, # of connection points: 2
#     Edge 48, Type (0, 0), BuildingBlock: AJUNOK_clean_linker_0, # of connection points: 2
#     Edge 49, Type (0, 0), BuildingBlock: AJUNOK_clean_linker_0, # of connection points: 2
#     Edge 50, Type (0, 0), BuildingBlock: AJUNOK_clean_linker_0, # of connection points: 2
#     Edge 51, Type (0, 0), BuildingBlock: AJUNOK_clean_linker_0, # of connection points: 2
#     Edge 52, Type (0, 0), BuildingBlock: AJUNOK_clean_linker_0, # of connection points: 2
#     Edge 53, Type (0, 0), BuildingBlock: AJUNOK_clean_linker_0, # of connection points: 2
#     Edge 54, Type (0, 0), BuildingBlock: AJUNOK_clean_linker_0, # of connection points: 2
#     Edge 55, Type (0, 0), BuildingBlock: AJUNOK_clean_linker_0, # of connection points: 2
#     Edge 56, Type (0, 0), BuildingBlock: AJUNOK_clean_linker_0, # of connection points: 2
#     Edge 57, Type (0, 0), BuildingBlock: AJUNOK_clean_linker_0, # of connection points: 2
#     Edge 58, Type (0, 0), BuildingBlock: AJUNOK_clean_linker_0, # of connection points: 2
#     Edge 59, Type (0, 0), BuildingBlock: AJUNOK_clean_linker_0, # of connection points: 2
#     Edge 60, Type (0, 0), BuildingBlock: AJUNOK_clean_linker_0, # of connection points: 2
#     Edge 61, Type (0, 0), BuildingBlock: AJUNOK_clean_linker_0, # of connection points: 2
#     Edge 62, Type (0, 0), BuildingBlock: AJUNOK_clean_linker_0, # of connection points: 2
#     Edge 63, Type (0, 0), BuildingBlock: AJUNOK_clean_linker_0, # of connection points: 2
#     Edge 64, Type (0, 0), BuildingBlock: AJUNOK_clean_linker_0, # of connection points: 2
#     Edge 65, Type (0, 0), BuildingBlock: AJUNOK_clean_linker_0, # of connection points: 2
#     Edge 66, Type (0, 0), BuildingBlock: AJUNOK_clean_linker_0, # of connection points: 2
#     Edge 67, Type (0, 0), BuildingBlock: AJUNOK_clean_linker_0, # of connection points: 2
#     Edge 68, Type (0, 0), BuildingBlock: AJUNOK_clean_linker_0, # of connection points: 2
#     Edge 69, Type (0, 0), BuildingBlock: AJUNOK_clean_linker_0, # of connection points: 2
#     Edge 70, Type (0, 0), BuildingBlock: AJUNOK_clean_linker_0, # of connection points: 2
#     Edge 71, Type (0, 0), BuildingBlock: AJUNOK_clean_linker_0, # of connection points: 2
#     Edge 72, Type (0, 0), BuildingBlock: AJUNOK_clean_linker_0, # of connection points: 2
#     Edge 73, Type (0, 0), BuildingBlock: AJUNOK_clean_linker_0, # of connection points: 2
#     Edge 74, Type (0, 0), BuildingBlock: AJUNOK_clean_linker_0, # of connection points: 2
#     Edge 75, Type (0, 0), BuildingBlock: AJUNOK_clean_linker_0, # of connection points: 2
#     Edge 76, Type (0, 0), BuildingBlock: AJUNOK_clean_linker_0, # of connection points: 2
#     Edge 77, Type (0, 0), BuildingBlock: AJUNOK_clean_linker_0, # of connection points: 2
#     Edge 78, Type (0, 0), BuildingBlock: AJUNOK_clean_linker_0, # of connection points: 2
#     Edge 79, Type (0, 0), BuildingBlock: AJUNOK_clean_linker_0, # of connection points: 2
# Relax obj value: 0.001
# Max RMSD: 0.034
# Mean RMSD: 0.034
data_MOF--net-utm--node1-OLANEW_clean_sbu_2--edge1-AJUNOK_clean_linker_0
_symmetry_space_group_name_H-M    P1
_symmetry_Int_Tables_number       1
_symmetry_cell_setting            triclinic
loop_
_symmetry_equiv_pos_as_xyz
'x, y, z'
_cell_length_a     63.681277
_cell_length_b     63.49031
_cell_length_c     35.987185
_cell_angle_alpha  90.093388
_cell_angle_beta   90.090372
_cell_angle_gamma 89.552325
loop_
_atom_site_label
_atom_site_type_symbol
_atom_site_fract_x
_atom_site_fract_y
_atom_site_fract_z
_atom_type_partial_charge
O0 O 0.23784 0.31653 0.09463 0.0
Cd1 Cd 0.23177 0.31835 0.16141 0.0
O2 O 0.23531 0.35102 0.08803 0.0
Cd3 Cd 0.22763 0.36005 0.14523 0.0
O4 O 0.19501 0.37043 0.15359 0.0
C5 C 0.19008 0.38098 0.1249 0.0
O6 O 0.20516 0.38584 0.10161 0.0
C7 C 0.23788 0.33276 0.07406 0.0
C8 C 0.23642 0.28042 0.20105 0.0
O9 O 0.23063 0.28043 0.16714 0.0
O10 O 0.24048 0.29806 0.21639 0.0
O11 O 0.91395 0.9848 0.34224 0.0
Cd12 Cd 0.91151 0.98394 0.4094 0.0
O13 O 0.87951 0.98749 0.33668 0.0
Cd14 Cd 0.87103 0.98013 0.39417 0.0
O15 O 0.86178 0.94713 0.39945 0.0
C16 C 0.84811 0.94367 0.37456 0.0
O17 O 0.83973 0.95996 0.35741 0.0
C18 C 0.8977 0.98669 0.32208 0.0
C19 C 0.94947 0.98689 0.4494 0.0
O20 O 0.94924 0.98037 0.41588 0.0
O21 O 0.93197 -0.00741 0.46366 0.0
O22 O 0.24134 0.66529 0.59234 0.0
Cd23 Cd 0.24709 0.66294 0.65909 0.0
O24 O 0.2425 0.63063 0.58948 0.0
Cd25 Cd 0.2493 0.61889 0.64512 0.0
O26 O 0.28207 0.60929 0.65328 0.0
C27 C 0.28902 0.59999 0.62449 0.0
O28 O 0.27555 0.59466 0.59846 0.0
C29 C 0.24093 0.64842 0.57337 0.0
C30 C 0.24389 0.70076 0.69923 0.0
O31 O 0.25258 0.70026 0.66732 0.0
O32 O 0.23622 0.68365 0.7118 0.0
O33 O 0.56524 -0.00446 0.84382 0.0
Cd34 Cd 0.56634 -0.00016 0.91095 0.0
O35 O 0.5998 -0.00613 0.83803 0.0
Cd36 Cd 0.60871 0.00294 0.89482 0.0
O37 O 0.61881 0.03567 0.90302 0.0
C38 C 0.62963 0.04035 0.87466 0.0
O39 O 0.63495 0.02501 0.85188 0.0
C40 C 0.5815 -0.00651 0.82375 0.0
C41 C 0.52889 -0.00669 0.95098 0.0
O42 O 0.52868 0.00264 0.91957 0.0
O43 O 0.54658 0.9865 0.963 0.0
O44 O 0.23047 0.66376 0.39258 0.0
Cd45 Cd 0.23456 0.66297 0.32454 0.0
O46 O 0.24425 0.63193 0.39461 0.0
Cd47 Cd 0.23047 0.62084 0.34373 0.0
O48 O 0.19792 0.61106 0.33764 0.0
C49 C 0.1883 0.60426 0.36614 0.0
O50 O 0.19856 0.60267 0.39773 0.0
C51 C 0.23817 0.64856 0.41126 0.0
C52 C 0.23598 0.70098 0.28301 0.0
O53 O 0.23633 0.70114 0.31845 0.0
O54 O 0.23513 0.68305 0.26706 0.0
O55 O 0.56616 0.9873 0.64254 0.0
Cd56 Cd 0.56752 0.98598 0.57442 0.0
O57 O 0.60053 0.98715 0.65248 0.0
Cd58 Cd 0.61145 0.98273 0.59655 0.0
O59 O 0.61955 0.95001 0.58732 0.0
C60 C 0.6259 0.93975 0.61556 0.0
O61 O 0.62767 0.94962 0.6475 0.0
C62 C 0.58182 0.98757 0.66454 0.0
C63 C 0.52921 0.98639 0.53393 0.0
O64 O 0.52943 0.9869 0.56932 0.0
O65 O 0.54684 0.98585 0.5172 0.0
O66 O 0.24485 0.31686 0.89259 0.0
Cd67 Cd 0.24589 0.31923 0.82477 0.0
O68 O 0.24193 0.35124 0.90091 0.0
Cd69 Cd 0.24913 0.36128 0.84513 0.0
O70 O 0.28121 0.37116 0.83558 0.0
C71 C 0.29163 0.37516 0.8649 0.0
O72 O 0.28208 0.37391 0.89713 0.0
C73 C 0.24275 0.33267 0.91398 0.0
C74 C 0.24273 0.28053 0.78574 0.0
O75 O 0.24657 0.28109 0.82047 0.0
O76 O 0.24003 0.29813 0.76926 0.0
O77 O 0.91269 -0.00699 0.141 0.0
Cd78 Cd 0.91118 -0.0031 0.07353 0.0
O79 O 0.87829 -0.00675 0.1504 0.0
Cd80 Cd 0.86655 -0.00138 0.09529 0.0
O81 O 0.85933 0.03166 0.08746 0.0
C82 C 0.85345 0.04207 0.11588 0.0
O83 O 0.85035 0.03201 0.14727 0.0
C84 C 0.89697 -0.00768 0.16268 0.0
C85 C 0.94963 -0.00431 0.03422 0.0
O86 O 0.94925 -0.00258 0.06947 0.0
O87 O 0.93214 -0.00588 0.01721 0.0
O88 O 0.73665 0.66515 0.89024 0.0
Cd89 Cd 0.75805 0.67182 0.8344 0.0
O90 O 0.76846 0.65795 0.90483 0.0
Cd91 Cd 0.80142 0.65404 0.90666 0.0
O92 O 0.80591 0.63066 0.86439 0.0
C93 C 0.79902 0.61288 0.87445 0.0
O94 O 0.78638 0.61229 0.90319 0.0
C95 C 0.74949 0.65873 0.91469 0.0
C96 C 0.74737 0.70441 0.78528 0.0
O97 O 0.73332 0.69427 0.80287 0.0
O98 O 0.76661 0.69988 0.79159 0.0
O99 O 0.06655 0.98518 0.64253 0.0
Cd100 Cd 0.06034 0.0038 0.58237 0.0
O101 O 0.07088 0.01849 0.64678 0.0
Cd102 Cd 0.07567 0.05118 0.65519 0.0
O103 O 0.09979 0.05766 0.61522 0.0
C104 C 0.11764 0.05049 0.62477 0.0
O105 O 0.11848 0.03721 0.65264 0.0
C106 C 0.07178 0.0007 0.66247 0.0
C107 C 0.0258 -0.00313 0.53572 0.0
O108 O 0.03714 0.98155 0.54748 0.0
O109 O 0.03026 0.01549 0.54683 0.0
O110 O 0.74377 0.32114 0.3917 0.0
Cd111 Cd 0.72262 0.31076 0.33703 0.0
O112 O 0.71098 0.3246 0.40341 0.0
Cd113 Cd 0.67762 0.32319 0.40614 0.0
O114 O 0.67315 0.34785 0.36626 0.0
C115 C 0.67588 0.36587 0.38051 0.0
O116 O 0.68248 0.36681 0.41506 0.0
C117 C 0.72968 0.32692 0.41431 0.0
C118 C 0.73059 0.27647 0.28953 0.0
O119 O 0.74567 0.28655 0.30468 0.0
O120 O 0.71185 0.28176 0.29844 0.0
O121 O 0.40937 -0.00545 0.14039 0.0
Cd122 Cd 0.41839 0.9745 0.08419 0.0
O123 O 0.40599 0.96182 0.15489 0.0
Cd124 Cd 0.40779 0.92835 0.14938 0.0
O125 O 0.38171 0.92177 0.11364 0.0
C126 C 0.36435 0.92535 0.12972 0.0
O127 O 0.36483 0.93213 0.16422 0.0
C128 C 0.40432 0.98092 0.1643 0.0
C129 C 0.45239 0.98281 0.03673 0.0
O130 O 0.44425 -0.00236 0.0561 0.0
O131 O 0.44473 0.96438 0.04006 0.0
O132 O 0.73669 0.32073 0.59329 0.0
Cd133 Cd 0.75693 0.31012 0.64788 0.0
O134 O 0.76923 0.32504 0.5776 0.0
Cd135 Cd 0.8019 0.32186 0.59099 0.0
O136 O 0.80955 0.34891 0.62373 0.0
C137 C 0.80584 0.36551 0.60527 0.0
O138 O 0.79913 0.36344 0.5709 0.0
C139 C 0.74999 0.32692 0.56967 0.0
C140 C 0.74802 0.27647 0.69565 0.0
O141 O 0.73316 0.28641 0.67916 0.0
O142 O 0.76688 0.2816 0.68795 0.0
O143 O 0.41119 0.98769 0.34355 0.0
Cd144 Cd 0.41969 0.00826 0.39933 0.0
O145 O 0.40593 0.02022 0.32903 0.0
Cd146 Cd 0.40651 0.05344 0.33677 0.0
O147 O 0.38033 0.06167 0.37102 0.0
C148 C 0.36375 0.05155 0.36343 0.0
O149 O 0.36506 0.03527 0.34103 0.0
C150 C 0.40502 0.00108 0.31988 0.0
C151 C 0.45429 -0.00158 0.44489 0.0
O152 O 0.44363 0.98395 0.42916 0.0
O153 O 0.44922 0.01754 0.43795 0.0
O154 O 0.74489 0.6623 0.09268 0.0
Cd155 Cd 0.72432 0.67086 0.15032 0.0
O156 O 0.71168 0.65913 0.08634 0.0
Cd157 Cd 0.67918 0.65663 0.07426 0.0
O158 O 0.67467 0.63305 0.11631 0.0
C159 C 0.67725 0.6146 0.10365 0.0
O160 O 0.68492 0.61256 0.07001 0.0
C161 C 0.72969 0.65753 0.07176 0.0
C162 C 0.73266 0.70421 0.19924 0.0
O163 O 0.74744 0.69392 0.18331 0.0
O164 O 0.71371 0.69962 0.191 0.0
O165 O 0.06499 -0.00861 0.84339 0.0
Cd166 Cd 0.05889 0.97301 0.90095 0.0
O167 O 0.07233 0.95985 0.82104 0.0
Cd168 Cd 0.07059 0.93026 0.8505 0.0
O169 O 0.09929 0.91913 0.8759 0.0
C170 C 0.11516 0.92605 0.85859 0.0
O171 O 0.11207 0.93754 0.82873 0.0
C172 C 0.07117 0.97968 0.81692 0.0
C173 C 0.02449 0.98337 0.94592 0.0
O174 O 0.03572 -0.00215 0.93161 0.0
O175 O 0.02892 0.96427 0.93748 0.0
O176 O 0.73473 0.81537 0.59404 0.0
Cd177 Cd 0.7331 0.81891 0.66114 0.0
O178 O 0.73818 0.84966 0.58954 0.0
Cd179 Cd 0.72885 0.85879 0.64597 0.0
O180 O 0.69786 0.87349 0.65354 0.0
C181 C 0.69058 0.87746 0.62139 0.0
O182 O 0.70209 0.87254 0.59241 0.0
C183 C 0.73747 0.83158 0.57421 0.0
C184 C 0.73609 0.78038 0.69962 0.0
O185 O 0.73247 0.78101 0.66485 0.0
O186 O 0.73862 0.79789 0.71642 0.0
O187 O 0.41311 0.48825 0.84372 0.0
Cd188 Cd 0.41181 0.48383 0.9107 0.0
O189 O 0.37863 0.48757 0.83585 0.0
Cd190 Cd 0.36894 0.48003 0.89225 0.0
O191 O 0.35682 0.44853 0.90251 0.0
C192 C 0.35499 0.4385 0.87209 0.0
O193 O 0.35981 0.44821 0.84114 0.0
C194 C 0.39707 0.48891 0.82275 0.0
C195 C 0.44952 0.48787 0.95193 0.0
O196 O 0.44987 0.48244 0.91778 0.0
O197 O 0.43158 0.49199 0.96609 0.0
O198 O 0.74238 0.16476 0.09298 0.0
Cd199 Cd 0.74546 0.16318 0.16057 0.0
O200 O 0.74381 0.13017 0.08804 0.0
Cd201 Cd 0.75167 0.12223 0.14594 0.0
O202 O 0.78404 0.11072 0.1546 0.0
C203 C 0.78917 0.10239 0.12377 0.0
O204 O 0.77451 0.10069 0.09829 0.0
C205 C 0.74223 0.14824 0.07304 0.0
C206 C 0.74233 0.20149 0.2002 0.0
O207 O 0.74368 0.2012 0.16489 0.0
O208 O 0.74223 0.18389 0.21719 0.0
O209 O 0.06414 0.49785 0.34251 0.0
Cd210 Cd 0.06692 0.49824 0.40984 0.0
O211 O 0.09828 0.49245 0.338 0.0
Cd212 Cd 0.1072 0.50156 0.39483 0.0
O213 O 0.12211 0.53228 0.40351 0.0
C214 C 0.12657 0.53945 0.37154 0.0
O215 O 0.12193 0.52796 0.34239 0.0
C216 C 0.08031 0.49443 0.32282 0.0
C217 C 0.02933 0.49547 0.45034 0.0
O218 O 0.02928 0.50168 0.4167 0.0
O219 O 0.04683 0.49001 0.46482 0.0
O220 O 0.734 0.16442 0.89205 0.0
Cd221 Cd 0.73254 0.16322 0.82399 0.0
O222 O 0.73754 0.12991 0.89896 0.0
Cd223 Cd 0.73087 0.11765 0.84438 0.0
O224 O 0.69808 0.10984 0.8364 0.0
C225 C 0.68815 0.10356 0.8649 0.0
O226 O 0.69866 0.09972 0.89567 0.0
C227 C 0.73678 0.14838 0.91264 0.0
C228 C 0.73647 0.20174 0.78488 0.0
O229 O 0.73545 0.20131 0.82021 0.0
O230 O 0.73589 0.18421 0.76759 0.0
O231 O 0.06642 0.48793 0.14137 0.0
Cd232 Cd 0.06769 0.48448 0.07383 0.0
O233 O 0.1008 0.48884 0.15105 0.0
Cd234 Cd 0.11198 0.483 0.0955 0.0
O235 O 0.11987 0.45005 0.08694 0.0
C236 C 0.12645 0.44013 0.11539 0.0
O237 O 0.1303 0.45071 0.14605 0.0
C238 C 0.08209 0.48916 0.16319 0.0
C239 C 0.02973 0.48782 0.03255 0.0
O240 O 0.02951 0.4833 0.06708 0.0
O241 O 0.04762 0.49126 0.01793 0.0
O242 O 0.74228 0.81673 0.39154 0.0
Cd243 Cd 0.74548 0.81932 0.32411 0.0
O244 O 0.74133 0.85123 0.3994 0.0
Cd245 Cd 0.74751 0.864 0.34508 0.0
O246 O 0.77994 0.87304 0.33596 0.0
C247 C 0.78979 0.88018 0.364 0.0
O248 O 0.77949 0.88339 0.39514 0.0
C249 C 0.741 0.83269 0.41277 0.0
C250 C 0.74279 0.78063 0.28517 0.0
O251 O 0.74715 0.78125 0.3197 0.0
O252 O 0.73939 0.79819 0.26892 0.0
O253 O 0.41295 0.49568 0.64247 0.0
Cd254 Cd 0.41198 0.49789 0.57484 0.0
O255 O 0.37845 0.49438 0.65103 0.0
Cd256 Cd 0.36634 0.49915 0.59507 0.0
O257 O 0.35781 0.5319 0.58513 0.0
C258 C 0.35017 0.54045 0.61408 0.0
O259 O 0.34524 0.52839 0.64237 0.0
C260 C 0.39708 0.49472 0.66379 0.0
C261 C 0.44956 0.49361 0.53307 0.0
O262 O 0.45 0.50009 0.56666 0.0
O263 O 0.43166 0.48867 0.51977 0.0
O264 O 0.23329 0.16252 0.39407 0.0
Cd265 Cd 0.25272 0.16994 0.33608 0.0
O266 O 0.26659 0.15953 0.40208 0.0
Cd267 Cd 0.30021 0.15939 0.39859 0.0
O268 O 0.30875 0.13346 0.36277 0.0
C269 C 0.3054 0.11649 0.38015 0.0
O270 O 0.29873 0.11793 0.4146 0.0
C271 C 0.24832 0.1574 0.41533 0.0
C272 C 0.2476 0.20507 0.28981 0.0
O273 O 0.23177 0.19525 0.30288 0.0
O274 O 0.26588 0.19905 0.30037 0.0
O275 O 0.56804 0.48488 0.14247 0.0
Cd276 Cd 0.56024 0.50547 0.08461 0.0
O277 O 0.57114 0.51816 0.14906 0.0
Cd278 Cd 0.57444 0.55089 0.15833 0.0
O279 O 0.59769 0.55518 0.1156 0.0
C280 C 0.61606 0.5511 0.12721 0.0
O281 O 0.618 0.54078 0.1586 0.0
C282 C 0.57318 0.50006 0.16325 0.0
C283 C 0.52616 0.49785 0.03741 0.0
O284 O 0.53722 0.48277 0.05072 0.0
O285 O 0.53048 0.51667 0.04738 0.0
O286 O 0.23628 0.81644 0.8931 0.0
Cd287 Cd 0.22058 0.81116 0.83185 0.0
O288 O 0.20582 0.82593 0.91707 0.0
Cd289 Cd 0.18424 0.81913 0.87195 0.0
O290 O 0.17479 0.84994 0.8524 0.0
C291 C 0.17424 0.86294 0.87927 0.0
O292 O 0.1764 0.85558 0.9131 0.0
C293 C 0.22563 0.82431 0.91964 0.0
C294 C 0.23161 0.77705 0.78583 0.0
O295 O 0.24609 0.78825 0.80039 0.0
O296 O 0.21256 0.78177 0.79373 0.0
O297 O 0.91413 0.49441 0.64283 0.0
Cd298 Cd 0.91972 0.47561 0.58427 0.0
O299 O 0.90771 0.46214 0.65748 0.0
Cd300 Cd 0.90681 0.42909 0.64698 0.0
O301 O 0.88043 0.41953 0.61451 0.0
C302 C 0.86384 0.42996 0.62165 0.0
O303 O 0.86518 0.44654 0.64333 0.0
C304 C 0.90763 0.48134 0.66665 0.0
C305 C 0.95416 0.48393 0.5383 0.0
O306 O 0.94329 0.49898 0.55229 0.0
O307 O 0.94916 0.4651 0.54713 0.0
O308 O 0.23411 0.82001 0.09184 0.0
Cd309 Cd 0.255 0.81065 0.14856 0.0
O310 O 0.2674 0.82289 0.08604 0.0
Cd311 Cd 0.30036 0.82554 0.07897 0.0
O312 O 0.30847 0.84944 0.11881 0.0
C313 C 0.29956 0.86698 0.11217 0.0
O314 O 0.28368 0.86729 0.0889 0.0
C315 C 0.24943 0.82512 0.07155 0.0
C316 C 0.24658 0.77674 0.19568 0.0
O317 O 0.23199 0.78635 0.17798 0.0
O318 O 0.26553 0.78247 0.19037 0.0
O319 O 0.9126 0.48655 0.84221 0.0
Cd320 Cd 0.91864 0.50607 0.90122 0.0
O321 O 0.90961 0.51987 0.83542 0.0
Cd322 Cd 0.90639 0.55298 0.82811 0.0
O323 O 0.88117 0.55626 0.86697 0.0
C324 C 0.86339 0.55275 0.85251 0.0
O325 O 0.86279 0.54641 0.81779 0.0
C326 C 0.90764 0.50175 0.8212 0.0
C327 C 0.95286 0.49788 0.94757 0.0
O328 O 0.94147 0.48297 0.93507 0.0
O329 O 0.94877 0.51673 0.93712 0.0
O330 O 0.24207 0.16516 0.59303 0.0
Cd331 Cd 0.22133 0.17244 0.64963 0.0
O332 O 0.2096 0.16006 0.58101 0.0
Cd333 Cd 0.17642 0.1573 0.57703 0.0
O334 O 0.17323 0.13264 0.61742 0.0
C335 C 0.17652 0.1147 0.60303 0.0
O336 O 0.18188 0.11388 0.56794 0.0
C337 C 0.22842 0.15892 0.57001 0.0
C338 C 0.23182 0.20467 0.69921 0.0
O339 O 0.24599 0.19434 0.68174 0.0
O340 O 0.21261 0.20045 0.69252 0.0
O341 O 0.56547 0.49357 0.34225 0.0
Cd342 Cd 0.56023 0.47398 0.4008 0.0
O343 O 0.57193 0.46128 0.32861 0.0
Cd344 Cd 0.57473 0.42805 0.33002 0.0
O345 O 0.59788 0.42442 0.37302 0.0
C346 C 0.61583 0.43092 0.36331 0.0
O347 O 0.61689 0.44445 0.33589 0.0
C348 C 0.57202 0.4803 0.31856 0.0
C349 C 0.52621 0.48297 0.44755 0.0
O350 O 0.53733 0.49782 0.43423 0.0
O351 O 0.53083 0.46402 0.4384 0.0
C352 C 0.22464 0.23205 0.2585 0.0
C353 C 0.24477 0.22318 0.26415 0.0
C354 C 0.2219 0.25048 0.23744 0.0
C355 C 0.2392 0.26058 0.22143 0.0
H356 H 0.21096 0.22509 0.27128 0.0
H357 H 0.20628 0.25713 0.2344 0.0
S358 S 0.29455 0.24262 0.22342 0.0
N359 N 0.28186 0.22481 0.24791 0.0
N360 N 0.27663 0.25995 0.21001 0.0
C361 C 0.25914 0.2515 0.22537 0.0
C362 C 0.26195 0.23259 0.24617 0.0
C363 C 0.9699 0.00147 0.50229 0.0
C364 C 0.96922 0.98827 0.47096 0.0
C365 C 0.98839 0.00408 0.5226 0.0
C366 C 0.00685 -0.00682 0.5131 0.0
H367 H 0.9561 0.01028 0.51088 0.0
H368 H 0.98818 0.01465 0.54627 0.0
S369 S 0.0132 0.9553 0.43505 0.0
N370 N 0.9885 0.96333 0.43209 0.0
N371 N 0.02332 0.96781 0.47117 0.0
C372 C 0.00639 0.97927 0.48257 0.0
C373 C 0.98755 0.97693 0.46126 0.0
C374 C 0.22112 0.74205 0.76296 0.0
C375 C 0.23615 0.75814 0.76299 0.0
C376 C 0.22403 0.7236 0.74258 0.0
C377 C 0.24188 0.72056 0.72049 0.0
H378 H 0.20694 0.74354 0.77936 0.0
H379 H 0.21195 0.7117 0.74377 0.0
S380 S 0.28631 0.75757 0.71009 0.0
N381 N 0.27002 0.76972 0.73898 0.0
N382 N 0.27515 0.73491 0.69954 0.0
C383 C 0.25716 0.73647 0.7197 0.0
C384 C 0.25442 0.75529 0.74128 0.0
C385 C 0.49242 0.00504 0.96888 0.0
C386 C 0.50937 0.99073 0.97288 0.0
C387 C 0.47393 0.00285 0.98995 0.0
C388 C 0.47168 0.98594 0.01484 0.0
H389 H 0.49356 0.01812 0.94971 0.0
H390 H 0.46126 0.01415 0.98628 0.0
S391 S 0.5111 0.94454 0.03583 0.0
N392 N 0.52257 0.95951 0.00449 0.0
N393 N 0.48769 0.95509 0.04269 0.0
C394 C 0.48838 0.97167 0.01889 0.0
C395 C 0.50727 0.97414 -0.00167 0.0
C396 C 0.24575 0.73905 0.27723 0.0
C397 C 0.237 0.7208 0.26128 0.0
C398 C 0.24846 0.75746 0.25618 0.0
C399 C 0.24185 0.75838 0.21895 0.0
H400 H 0.25127 0.73888 0.30571 0.0
H401 H 0.25598 0.77092 0.2689 0.0
S402 S 0.21657 0.71598 0.16493 0.0
N403 N 0.22111 0.70538 0.20608 0.0
N404 N 0.22504 0.74043 0.16769 0.0
C405 C 0.23204 0.74083 0.20338 0.0
C406 C 0.22995 0.72188 0.22421 0.0
C407 C 0.49593 0.00521 0.51911 0.0
C408 C 0.5093 0.98787 0.51314 0.0
C409 C 0.47775 0.00809 0.49765 0.0
C410 C 0.47207 -0.00653 0.47005 0.0
H411 H 0.49997 0.01707 0.53953 0.0
H412 H 0.46829 0.0221 0.50228 0.0
S413 S 0.5001 0.94352 0.44819 0.0
N414 N 0.51485 0.95489 0.48017 0.0
N415 N 0.47986 0.95952 0.44148 0.0
C416 C 0.48446 0.97517 0.4659 0.0
C417 C 0.50339 0.97263 0.48688 0.0
C418 C 0.24417 0.26035 0.72623 0.0
C419 C 0.24168 0.26034 0.76509 0.0
C420 C 0.24217 0.24182 0.70546 0.0
C421 C 0.23727 0.22272 0.72267 0.0
H422 H 0.2474 0.27485 0.71159 0.0
H423 H 0.24361 0.24261 0.67549 0.0
S424 S 0.2311 0.21348 0.82369 0.0
N425 N 0.23567 0.23899 0.82026 0.0
N426 N 0.23153 0.2042 0.78074 0.0
C427 C 0.23561 0.22212 0.76153 0.0
C428 C 0.23792 0.24096 0.78288 0.0
C429 C -0.00082 0.9721 -0.00556 0.0
C430 C 0.00681 0.98818 0.97134 0.0
C431 C 0.98095 0.97497 0.01558 0.0
C432 C 0.96963 -0.00605 0.01413 0.0
H433 H 0.00707 0.95694 -0.00436 0.0
H434 H 0.97532 0.96201 0.03227 0.0
S435 S 0.98458 0.04225 0.96332 0.0
N436 N 0.00311 0.02491 0.95256 0.0
N437 N 0.96818 0.02987 0.99118 0.0
C438 C 0.97759 0.01062 -0.00704 0.0
C439 C -0.00353 0.00789 0.97199 0.0
C440 C 0.73408 0.76007 0.75866 0.0
C441 C 0.73711 0.76017 0.71995 0.0
C442 C 0.73617 0.74149 0.77922 0.0
C443 C 0.74174 0.72249 0.76191 0.0
H444 H 0.73039 0.77453 0.77336 0.0
H445 H 0.73433 0.74219 0.80913 0.0
S446 S 0.74923 0.71356 0.661 0.0
N447 N 0.74417 0.73905 0.66465 0.0
N448 N 0.74847 0.70415 0.70378 0.0
C449 C 0.74385 0.72199 0.72311 0.0
C450 C 0.74143 0.74088 0.70197 0.0
C451 C 0.75307 0.24666 0.2663 0.0
C452 C 0.73456 0.25885 0.2634 0.0
C453 C 0.75563 0.22807 0.24551 0.0
C454 C 0.74003 0.22147 0.22051 0.0
H455 H 0.7652 0.25097 0.28596 0.0
H456 H 0.76974 0.21868 0.24931 0.0
S457 S 0.69006 0.24904 0.19911 0.0
N458 N 0.70146 0.26404 0.23066 0.0
N459 N 0.70628 0.22901 0.19208 0.0
C460 C 0.72211 0.23409 0.21575 0.0
C461 C 0.71941 0.25289 0.23697 0.0
C462 C 0.72365 0.22771 0.73781 0.0
C463 C 0.73857 0.22179 0.76474 0.0
C464 C 0.72603 0.24626 0.71705 0.0
C465 C 0.74376 0.25908 0.72187 0.0
H466 H 0.7102 0.2178 0.73247 0.0
H467 H 0.71448 0.25 0.69588 0.0
S468 S 0.78612 0.25143 0.79157 0.0
N469 N 0.77071 0.23087 0.79712 0.0
N470 N 0.77522 0.26573 0.75834 0.0
C471 C 0.75814 0.25387 0.75018 0.0
C472 C 0.75558 0.23515 0.77148 0.0
C473 C 0.74124 0.76079 0.22537 0.0
C474 C 0.74177 0.76043 0.26446 0.0
C475 C 0.73912 0.74226 0.2047 0.0
C476 C 0.73728 0.72271 0.22225 0.0
H477 H 0.74219 0.77555 0.21046 0.0
H478 H 0.73832 0.7433 0.17467 0.0
S479 S 0.73968 0.71254 0.32362 0.0
N480 N 0.74177 0.73839 0.31993 0.0
N481 N 0.73759 0.7035 0.28066 0.0
C482 C 0.73863 0.72179 0.26119 0.0
C483 C 0.74094 0.7407 0.28241 0.0
C484 C 0.50766 0.48834 0.97809 0.0
C485 C 0.50701 0.49358 0.01602 0.0
C486 C 0.48897 0.48618 0.95752 0.0
C487 C 0.46913 0.48924 0.97433 0.0
H488 H 0.52262 0.48644 0.96412 0.0
H489 H 0.4901 0.48251 0.92818 0.0
S490 S 0.45986 0.50134 0.0741 0.0
N491 N 0.48563 0.50029 0.07013 0.0
N492 N 0.45051 0.49648 0.03216 0.0
C493 C 0.46859 0.49371 0.0127 0.0
C494 C 0.48755 0.49581 0.03335 0.0
C495 C 0.00281 0.47324 0.48077 0.0
C496 C 0.00966 0.49338 0.47112 0.0
C497 C 0.98442 0.47049 0.50124 0.0
C498 C 0.9724 0.48783 0.51365 0.0
H499 H 0.01179 0.45945 0.47244 0.0
H500 H 0.97991 0.45455 0.5081 0.0
S501 S 0.98344 0.54412 0.49342 0.0
N502 N 0.00295 0.53105 0.4735 0.0
N503 N 0.96825 0.52612 0.51251 0.0
C504 C 0.97883 0.50821 0.5031 0.0
C505 C -0.00245 0.51093 0.48179 0.0
C506 C 0.97148 0.48895 0.00704 0.0
C507 C 0.97203 0.49331 0.9688 0.0
C508 C -0.00976 0.48681 0.02751 0.0
C509 C 0.01003 0.48904 0.01028 0.0
H510 H 0.95656 0.48777 0.0213 0.0
H511 H 0.9892 0.48385 0.05708 0.0
S512 S 0.01897 0.49884 0.90973 0.0
N513 N -0.00679 0.49838 0.91405 0.0
N514 N 0.02846 0.49467 0.95183 0.0
C515 C 0.01044 0.49265 0.97165 0.0
C516 C -0.00858 0.4947 0.9511 0.0
C517 C 0.50676 0.49838 0.50229 0.0
C518 C 0.50679 0.4874 0.46832 0.0
C519 C 0.48814 0.50049 0.52313 0.0
C520 C 0.46901 0.49195 0.51031 0.0
H521 H 0.52125 0.50472 0.5133 0.0
H522 H 0.48879 0.50866 0.54955 0.0
S523 S 0.46127 0.46356 0.42098 0.0
N524 N 0.48648 0.46926 0.42167 0.0
N525 N 0.45154 0.4732 0.46 0.0
C526 C 0.46898 0.48175 0.47552 0.0
C527 C 0.48787 0.4795 0.45477 0.0
C528 C 0.14884 0.41509 0.0814 0.0
C529 C 0.13544 0.41889 0.11144 0.0
C530 C 0.16525 0.40058 0.08471 0.0
C531 C 0.1687 0.38955 0.11812 0.0
H532 H 0.14844 0.4252 0.05717 0.0
H533 H 0.1765 0.3997 0.0622 0.0
S534 S 0.12974 0.38494 0.19437 0.0
N535 N 0.12074 0.4044 0.16816 0.0
N536 N 0.15183 0.37674 0.17467 0.0
C537 C 0.15244 0.38968 0.14467 0.0
C538 C 0.13565 0.40459 0.1412 0.0
C539 C 0.82447 0.89048 0.39033 0.0
C540 C 0.81065 0.8897 0.35973 0.0
C541 C 0.83933 0.90665 0.39335 0.0
C542 C 0.84033 0.92234 0.36587 0.0
H543 H 0.82223 0.88004 0.41376 0.0
H544 H 0.84807 0.90828 0.41903 0.0
S545 S 0.81282 0.92265 0.27515 0.0
N546 N 0.80275 0.90254 0.29775 0.0
N547 N 0.83112 0.93227 0.30271 0.0
C548 C 0.82965 0.91901 0.3322 0.0
C549 C 0.81454 0.90276 0.32926 0.0
C550 C 0.31814 0.58637 0.58558 0.0
C551 C 0.31112 0.593 0.62086 0.0
C552 C 0.33406 0.5712 0.5823 0.0
C553 C 0.34321 0.5626 0.61434 0.0
H554 H 0.30958 0.59084 0.56074 0.0
H555 H 0.33694 0.5642 0.55529 0.0
S556 S 0.33913 0.58388 0.7099 0.0
N557 N 0.32062 0.5965 0.6863 0.0
N558 N 0.35098 0.56816 0.67975 0.0
C559 C 0.34018 0.5731 0.64831 0.0
C560 C 0.32386 0.58842 0.65178 0.0
C561 C 0.64899 0.06493 0.83429 0.0
C562 C 0.63793 0.06174 0.86765 0.0
C563 C 0.66335 0.08125 0.83092 0.0
C564 C 0.667 0.09479 0.86087 0.0
H565 H 0.64824 0.05354 0.8119 0.0
H566 H 0.67348 0.08143 0.80676 0.0
S567 S 0.63258 0.10149 0.943 0.0
N568 N 0.62469 0.07923 0.92361 0.0
N569 N 0.65213 0.11011 0.91706 0.0
C570 C 0.6526 0.09492 0.89043 0.0
C571 C 0.63781 0.07824 0.89392 0.0
C572 C 0.13761 0.57642 0.388 0.0
C573 C 0.14011 0.55798 0.3666 0.0
C574 C 0.15229 0.59285 0.38547 0.0
C575 C 0.16953 0.59126 0.36108 0.0
H576 H 0.12481 0.57777 0.40768 0.0
H577 H 0.15082 0.60627 0.40394 0.0
S578 S 0.18245 0.54683 0.29857 0.0
N579 N 0.16078 0.53959 0.3199 0.0
N580 N 0.18744 0.57072 0.31398 0.0
C581 C 0.17107 0.57376 0.33765 0.0
C582 C 0.1566 0.55697 0.3408 0.0
C583 C 0.63704 0.90338 0.6339 0.0
C584 C 0.63874 0.9208 0.60995 0.0
C585 C 0.65352 0.88855 0.6367 0.0
C586 C 0.67206 0.89113 0.61601 0.0
H587 H 0.62353 0.90192 0.65196 0.0
H588 H 0.65213 0.8756 0.65608 0.0
S589 S 0.68358 0.93408 0.5496 0.0
N590 N 0.65953 0.93908 0.56413 0.0
N591 N 0.69076 0.91212 0.57064 0.0
C592 C 0.67322 0.90784 0.59065 0.0
C593 C 0.65639 0.92245 0.58719 0.0
C594 C 0.3051 0.41014 0.85229 0.0
C595 C 0.30954 0.3893 0.86226 0.0
C596 C 0.32015 0.42572 0.85603 0.0
C597 C 0.34025 0.42101 0.86958 0.0
H598 H 0.28949 0.41464 0.84306 0.0
H599 H 0.31588 0.44176 0.84884 0.0
S600 S 0.36091 0.36805 0.89424 0.0
N601 N 0.33605 0.36399 0.88299 0.0
N602 N 0.36485 0.39364 0.88943 0.0
C603 C 0.34546 0.39998 0.878 0.0
C604 C 0.32992 0.38396 0.87444 0.0
C605 C 0.82746 0.06363 0.08343 0.0
C606 C 0.84305 0.0625 0.11071 0.0
C607 C 0.81104 0.07804 0.08665 0.0
C608 C 0.80967 0.09187 0.1172 0.0
H609 H 0.82654 0.05178 0.0618 0.0
H610 H 0.79845 0.07694 0.0665 0.0
S611 S 0.85308 0.10244 0.18365 0.0
N612 N 0.86079 0.08117 0.16064 0.0
N613 N 0.82966 0.10884 0.16684 0.0
C614 C 0.82736 0.09361 0.14061 0.0
C615 C 0.84421 0.07871 0.13727 0.0
C616 C 0.83392 0.59905 0.88578 0.0
C617 C 0.8139 0.59561 0.87096 0.0
C618 C 0.84917 0.58347 0.88479 0.0
C619 C 0.84523 0.56417 0.86724 0.0
H620 H 0.83797 0.61414 0.8979 0.0
H621 H 0.86471 0.58745 0.89478 0.0
S622 S 0.79405 0.54586 0.83074 0.0
N623 N 0.78965 0.5706 0.84328 0.0
N624 N 0.81895 0.54086 0.84075 0.0
C625 C 0.82469 0.55972 0.85529 0.0
C626 C 0.80887 0.57568 0.85687 0.0
C627 C 0.1315 0.08509 0.63776 0.0
C628 C 0.13483 0.06526 0.62163 0.0
C629 C 0.14694 0.10028 0.63707 0.0
C630 C 0.16591 0.09646 0.61854 0.0
H631 H 0.11659 0.08908 0.65058 0.0
H632 H 0.14302 0.11576 0.64786 0.0
S633 S 0.18389 0.04586 0.57763 0.0
N634 N 0.15948 0.04135 0.59106 0.0
N635 N 0.1889 0.07051 0.58934 0.0
C636 C 0.17032 0.07605 0.60528 0.0
C637 C 0.15453 0.06031 0.6064 0.0
C638 C 0.65256 0.41996 0.37862 0.0
C639 C 0.63251 0.41526 0.36493 0.0
C640 C 0.66813 0.40424 0.37957 0.0
C641 C 0.66404 0.38388 0.36573 0.0
H642 H 0.65584 0.43538 0.39005 0.0
H643 H 0.6829 0.40757 0.39331 0.0
S644 S 0.61522 0.36594 0.31955 0.0
N645 N 0.60997 0.39004 0.33397 0.0
N646 N 0.63995 0.36159 0.33099 0.0
C647 C 0.64493 0.38019 0.34749 0.0
C648 C 0.62881 0.39555 0.34882 0.0
C649 C 0.32631 0.91793 0.13624 0.0
C650 C 0.34498 0.91578 0.11543 0.0
C651 C 0.31069 0.90253 0.13434 0.0
C652 C 0.31353 0.88493 0.11136 0.0
H653 H 0.32464 0.93044 0.15656 0.0
H654 H 0.29715 0.9037 0.15245 0.0
S655 S 0.3561 0.87532 0.0435 0.0
N656 N 0.36241 0.89765 0.06408 0.0
N657 N 0.33391 0.86796 0.06286 0.0
C658 C 0.33068 0.8841 0.08715 0.0
C659 C 0.3461 0.89998 0.08812 0.0
C660 C 0.82995 0.41832 0.59431 0.0
C661 C 0.8447 0.41778 0.62313 0.0
C662 C 0.81465 0.40268 0.59192 0.0
C663 C 0.8145 0.38582 0.61741 0.0
H664 H 0.83116 0.42988 0.57231 0.0
H665 H 0.80446 0.4026 0.56779 0.0
S666 S 0.84648 0.38158 0.70342 0.0
N667 N 0.85582 0.40226 0.68143 0.0
N668 N 0.82687 0.37297 0.67756 0.0
C669 C 0.82716 0.3872 0.64937 0.0
C670 C 0.84262 0.40306 0.65171 0.0
C671 C 0.32933 0.06315 0.38902 0.0
C672 C 0.34479 0.06422 0.36159 0.0
C673 C 0.31392 0.07891 0.39122 0.0
C674 C 0.31434 0.09636 0.36699 0.0
H675 H 0.33002 0.05105 0.41019 0.0
H676 H 0.30313 0.07855 0.41444 0.0
S677 S 0.34837 0.1021 0.28405 0.0
N678 N 0.3573 0.08089 0.30542 0.0
N679 N 0.32806 0.11037 0.30879 0.0
C680 C 0.32776 0.09556 0.33603 0.0
C681 C 0.34338 0.0796 0.33393 0.0
C682 C 0.6532 0.56104 0.11373 0.0
C683 C 0.63207 0.56674 0.11925 0.0
C684 C 0.66867 0.57665 0.11153 0.0
C685 C 0.66339 0.59802 0.11705 0.0
H686 H 0.65766 0.54464 0.11048 0.0
H687 H 0.68463 0.57212 0.10459 0.0
S688 S 0.61051 0.62023 0.13658 0.0
N689 N 0.60674 0.59486 0.13015 0.0
N690 N 0.63604 0.6235 0.13266 0.0
C691 C 0.64257 0.60343 0.12565 0.0
C692 C 0.62678 0.58798 0.12456 0.0
C693 C 0.161 0.89144 0.83797 0.0
C694 C 0.16663 0.88466 0.87375 0.0
C695 C 0.14586 0.90723 0.83336 0.0
C696 C 0.13565 0.91602 0.86437 0.0
H697 H 0.16655 0.88309 0.81358 0.0
H698 H 0.14039 0.91067 0.80548 0.0
S699 S 0.15185 0.90997 0.96283 0.0
N700 N 0.16728 0.89366 0.93957 0.0
N701 N 0.13631 0.92109 0.93148 0.0
C702 C 0.14372 0.91188 0.89996 0.0
C703 C 0.16017 0.89684 0.90437 0.0
C704 C 0.22638 0.34316 0.9731 0.0
C705 C 0.24069 0.33004 0.95439 0.0
C706 C 0.22539 0.34345 0.01177 0.0
C707 C 0.23869 0.33062 0.03332 0.0
H708 H 0.21608 0.35365 0.95768 0.0
H709 H 0.21424 0.35405 0.02496 0.0
S710 S 0.27954 0.29387 -0.00184 0.0
N711 N 0.26896 0.30413 0.9602 0.0
N712 N 0.26658 0.30431 0.03353 0.0
C713 C 0.25272 0.3169 0.01513 0.0
C714 C 0.2539 0.31672 0.97544 0.0
C715 C 0.88782 0.00571 0.22483 0.0
C716 C 0.89981 -0.00821 0.20299 0.0
C717 C 0.8877 0.00409 0.26344 0.0
C718 C 0.89967 0.98859 0.28156 0.0
H719 H 0.87806 0.01769 0.21186 0.0
H720 H 0.87794 0.01491 0.27925 0.0
S721 S 0.93224 0.94711 0.2363 0.0
N722 N 0.9232 0.9615 0.20148 0.0
N723 N 0.92298 0.95817 0.27466 0.0
C724 C 0.91191 0.97457 0.26005 0.0
C725 C 0.91203 0.9763 0.2205 0.0
C726 C 0.23562 0.66772 0.47293 0.0
C727 C 0.23876 0.64898 0.4525 0.0
C728 C 0.23637 0.66769 0.51212 0.0
C729 C 0.2401 0.64889 0.53206 0.0
H730 H 0.23268 0.68245 0.45864 0.0
H731 H 0.23393 0.68242 0.52679 0.0
S732 S 0.24891 0.59563 0.49147 0.0
N733 N 0.24476 0.61109 0.45553 0.0
N734 N 0.24758 0.61128 0.52786 0.0
C735 C 0.2434 0.63022 0.51168 0.0
C736 C 0.24226 0.63018 0.4723 0.0
C737 C 0.57026 0.00545 0.72257 0.0
C738 C 0.57879 0.98766 0.70483 0.0
C739 C 0.57052 0.00706 0.7615 0.0
C740 C 0.57935 -0.0091 0.78341 0.0
H741 H 0.56423 0.01851 0.70628 0.0
H742 H 0.56454 0.02131 0.77444 0.0
S743 S 0.60233 0.94069 0.75017 0.0
N744 N 0.59525 0.95321 0.71187 0.0
N745 N 0.59584 0.95643 0.78494 0.0
C746 C 0.58737 0.9729 0.76593 0.0
C747 C 0.58704 0.9712 0.72655 0.0
C748 C 0.7543 0.64248 0.97862 0.0
C749 C 0.74289 0.6555 0.95386 0.0
C750 C 0.74926 0.64195 0.01686 0.0
C751 C 0.73265 0.65436 0.03125 0.0
H752 H 0.7675 0.63321 0.96866 0.0
H753 H 0.75877 0.63239 0.03539 0.0
S754 S 0.69806 0.69039 0.97808 0.0
N755 N 0.71414 0.6804 0.94674 0.0
N756 N 0.7047 0.67916 0.01769 0.0
C757 C 0.72064 0.66635 0.00641 0.0
C758 C 0.72578 0.66701 0.96795 0.0
C759 C 0.08573 0.97462 0.75355 0.0
C760 C 0.07579 0.988 0.7796 0.0
C761 C 0.08582 0.97949 0.71565 0.0
C762 C 0.07633 -0.00187 0.70257 0.0
H763 H 0.09234 0.95959 0.76206 0.0
H764 H 0.09237 0.96812 0.69632 0.0
S765 S 0.05102 0.03968 0.75965 0.0
N766 N 0.05837 0.02162 0.79005 0.0
N767 N 0.05897 0.03096 0.71878 0.0
C768 C 0.06838 0.01256 0.72868 0.0
C769 C 0.06801 0.00748 0.76729 0.0
C770 C 0.7369 0.31004 0.47353 0.0
C771 C 0.73462 0.32889 0.45389 0.0
C772 C 0.74151 0.31004 0.51122 0.0
C773 C 0.74411 0.32888 0.53069 0.0
H774 H 0.73504 0.29504 0.45953 0.0
H775 H 0.74324 0.29504 0.52528 0.0
S776 S 0.74078 0.38296 0.49195 0.0
N777 N 0.73579 0.36734 0.45614 0.0
N778 N 0.74502 0.36727 0.52794 0.0
C779 C 0.74239 0.34815 0.51156 0.0
C780 C 0.73743 0.34818 0.47274 0.0
C781 C 0.38447 -0.00664 0.26156 0.0
C782 C 0.4037 -0.00454 0.28063 0.0
C783 C 0.38431 0.98865 0.22322 0.0
C784 C 0.40337 0.98655 0.20363 0.0
H785 H 0.36973 -0.00475 0.27623 0.0
H786 H 0.36945 0.98672 0.20896 0.0
S787 S 0.45706 -0.00853 0.24134 0.0
N788 N 0.44158 -0.00459 0.27743 0.0
N789 N 0.4413 0.98726 0.2057 0.0
C790 C 0.4223 0.989 0.22258 0.0
C791 C 0.42246 -0.00668 0.26111 0.0
C792 C 0.74372 0.84851 0.51345 0.0
C793 C 0.73898 0.8301 0.53312 0.0
C794 C 0.74457 0.84871 0.47493 0.0
C795 C 0.74052 0.83058 0.45374 0.0
H796 H 0.74678 0.86317 0.52783 0.0
H797 H 0.74842 0.86352 0.46176 0.0
S798 S 0.72733 0.77784 0.49118 0.0
N799 N 0.72993 0.79288 0.52845 0.0
N800 N 0.73213 0.7932 0.45517 0.0
C801 C 0.73612 0.81172 0.47271 0.0
C802 C 0.73507 0.81153 0.51254 0.0
C803 C 0.39683 0.47244 0.76032 0.0
C804 C 0.39961 0.49042 0.78253 0.0
C805 C 0.39702 0.47393 0.72154 0.0
C806 C 0.39992 0.4934 0.70404 0.0
H807 H 0.39401 0.45727 0.77303 0.0
H808 H 0.39428 0.45989 0.7051 0.0
S809 S 0.40574 0.54524 0.75054 0.0
N810 N 0.40424 0.52818 0.78501 0.0
N811 N 0.4043 0.53125 0.7118 0.0
C812 C 0.40257 0.51153 0.72604 0.0
C813 C 0.4025 0.50993 0.76551 0.0
C814 C 0.72856 0.16414 0.01363 0.0
C815 C 0.74196 0.14981 0.03207 0.0
C816 C 0.72736 0.16445 0.97453 0.0
C817 C 0.73971 0.15055 0.95305 0.0
H818 H 0.71844 0.17458 0.02949 0.0
H819 H 0.71619 0.17496 0.9612 0.0
S820 S 0.77944 0.11246 0.98765 0.0
N821 N 0.76938 0.12317 0.02555 0.0
N822 N 0.76701 0.12374 0.95266 0.0
C823 C 0.75384 0.13704 0.9712 0.0
C824 C 0.75504 0.13668 0.01059 0.0
C825 C 0.08988 0.47654 0.26416 0.0
C826 C 0.07857 0.49262 0.28215 0.0
C827 C 0.09008 0.47505 0.22546 0.0
C828 C 0.07906 0.48966 0.20346 0.0
H829 H 0.09888 0.46517 0.28014 0.0
H830 H 0.09932 0.46262 0.21259 0.0
S831 S 0.04871 0.53588 0.23626 0.0
N832 N 0.05707 0.52432 0.27479 0.0
N833 N 0.05727 0.52107 0.20158 0.0
C834 C 0.06751 0.50571 0.22079 0.0
C835 C 0.06737 0.50736 0.26037 0.0
C836 C 0.25486 0.15709 0.51916 0.0
C837 C 0.23438 0.15279 0.53154 0.0
C838 C 0.25991 0.15652 0.48134 0.0
C839 C 0.24465 0.15163 0.4546 0.0
H840 H 0.26673 0.16253 0.53841 0.0
H841 H 0.27535 0.16171 0.47292 0.0
S842 S 0.19157 0.13046 0.47365 0.0
N843 N 0.2007 0.13745 0.51483 0.0
N844 N 0.2103 0.13616 0.44366 0.0
C845 C 0.22519 0.14396 0.46695 0.0
C846 C 0.22001 0.14459 0.50555 0.0
C847 C 0.5698 0.5062 0.267 0.0
C848 C 0.57732 0.4867 0.28008 0.0
C849 C 0.57034 0.51121 0.22919 0.0
C850 C 0.57836 0.49687 0.20302 0.0
H851 H 0.56204 0.51715 0.28566 0.0
H852 H 0.56285 0.5257 0.22015 0.0
S853 S 0.60754 0.44747 0.22454 0.0
N854 N 0.59841 0.45557 0.26515 0.0
N855 N 0.59926 0.46498 0.19373 0.0
C856 C 0.58863 0.4786 0.21619 0.0
C857 C 0.58817 0.47351 0.2549 0.0
C858 C 0.2529 0.8182 0.96811 0.0
C859 C 0.23555 0.82985 0.95534 0.0
C860 C 0.25837 0.81834 0.00579 0.0
C861 C 0.24657 0.82996 0.03176 0.0
H862 H 0.26113 0.80747 0.94966 0.0
H863 H 0.27078 0.80783 0.01509 0.0
S864 S 0.20418 0.86857 0.00964 0.0
N865 N 0.21042 0.85787 0.96924 0.0
N866 N 0.21951 0.85694 0.04077 0.0
C867 C 0.23078 0.84371 0.01855 0.0
C868 C 0.2257 0.84407 0.97995 0.0
C869 C 0.89695 0.4776 0.76959 0.0
C870 C 0.90157 0.49816 0.78178 0.0
C871 C 0.89695 0.47253 0.73165 0.0
C872 C 0.9017 0.48786 0.70477 0.0
H873 H 0.8948 0.46501 0.78948 0.0
H874 H 0.89481 0.45622 0.72369 0.0
S875 S 0.90763 0.5451 0.72156 0.0
N876 N 0.90562 0.53471 0.76337 0.0
N877 N 0.90557 0.52522 0.69227 0.0
C878 C 0.90296 0.50895 0.71627 0.0
C879 C 0.90291 0.5141 0.75485 0.0
loop_
_geom_bond_atom_site_label_1
_geom_bond_atom_site_label_2
_geom_bond_distance
_geom_bond_site_symmetry_2
_ccdc_geom_bond_type
O0 Cd1 2.300 . S
O0 C7 1.275 . S
Cd1 O0 2.300 . S
Cd1 O9 2.381 . S
Cd1 O10 2.378 . S
O2 Cd3 2.385 . S
O2 C7 1.255 . S
Cd3 O2 2.385 . S
Cd3 O4 2.317 . S
O4 Cd3 2.317 . S
O4 C5 1.232 . S
C5 O4 1.232 . S
C5 O6 1.218 . S
O6 C5 1.218 . S
C7 O0 1.275 . S
C7 O2 1.255 . S
C8 O9 1.258 . S
C8 O10 1.256 . S
O9 Cd1 2.381 . S
O9 C8 1.258 . S
O10 Cd1 2.378 . S
O10 C8 1.256 . S
O11 Cd12 2.300 . S
O11 C18 1.275 . S
Cd12 O11 2.300 . S
Cd12 O20 2.381 . S
Cd12 O21 2.378 . S
O13 Cd14 2.385 . S
O13 C18 1.255 . S
Cd14 O13 2.385 . S
Cd14 O15 2.317 . S
O15 Cd14 2.317 . S
O15 C16 1.232 . S
C16 O15 1.232 . S
C16 O17 1.218 . S
O17 C16 1.218 . S
C18 O11 1.275 . S
C18 O13 1.255 . S
C19 O20 1.258 . S
C19 O21 1.256 . S
O20 Cd12 2.381 . S
O20 C19 1.258 . S
O21 Cd12 2.378 . S
O21 C19 1.256 . S
O22 Cd23 2.300 . S
O22 C29 1.275 . S
Cd23 O22 2.300 . S
Cd23 O31 2.381 . S
Cd23 O32 2.378 . S
O24 Cd25 2.385 . S
O24 C29 1.255 . S
Cd25 O24 2.385 . S
Cd25 O26 2.317 . S
O26 Cd25 2.317 . S
O26 C27 1.232 . S
C27 O26 1.232 . S
C27 O28 1.218 . S
O28 C27 1.218 . S
C29 O22 1.275 . S
C29 O24 1.255 . S
C30 O31 1.258 . S
C30 O32 1.256 . S
O31 Cd23 2.381 . S
O31 C30 1.258 . S
O32 Cd23 2.378 . S
O32 C30 1.256 . S
O33 Cd34 2.300 . S
O33 C40 1.275 . S
Cd34 O33 2.300 . S
Cd34 O42 2.381 . S
Cd34 O43 2.378 . S
O35 Cd36 2.385 . S
O35 C40 1.255 . S
Cd36 O35 2.385 . S
Cd36 O37 2.317 . S
O37 Cd36 2.317 . S
O37 C38 1.232 . S
C38 O37 1.232 . S
C38 O39 1.218 . S
O39 C38 1.218 . S
C40 O33 1.275 . S
C40 O35 1.255 . S
C41 O42 1.258 . S
C41 O43 1.256 . S
O42 Cd34 2.381 . S
O42 C41 1.258 . S
O43 Cd34 2.378 . S
O43 C41 1.256 . S
O44 Cd45 2.300 . S
O44 C51 1.275 . S
Cd45 O44 2.300 . S
Cd45 O53 2.381 . S
Cd45 O54 2.378 . S
O46 Cd47 2.385 . S
O46 C51 1.255 . S
Cd47 O46 2.385 . S
Cd47 O48 2.317 . S
O48 Cd47 2.317 . S
O48 C49 1.232 . S
C49 O48 1.232 . S
C49 O50 1.218 . S
O50 C49 1.218 . S
C51 O44 1.275 . S
C51 O46 1.255 . S
C52 O53 1.258 . S
C52 O54 1.256 . S
O53 Cd45 2.381 . S
O53 C52 1.258 . S
O54 Cd45 2.378 . S
O54 C52 1.256 . S
O55 Cd56 2.300 . S
O55 C62 1.275 . S
Cd56 O55 2.300 . S
Cd56 O64 2.381 . S
Cd56 O65 2.378 . S
O57 Cd58 2.385 . S
O57 C62 1.255 . S
Cd58 O57 2.385 . S
Cd58 O59 2.317 . S
O59 Cd58 2.317 . S
O59 C60 1.232 . S
C60 O59 1.232 . S
C60 O61 1.218 . S
O61 C60 1.218 . S
C62 O55 1.275 . S
C62 O57 1.255 . S
C63 O64 1.258 . S
C63 O65 1.256 . S
O64 Cd56 2.381 . S
O64 C63 1.258 . S
O65 Cd56 2.378 . S
O65 C63 1.256 . S
O66 Cd67 2.300 . S
O66 C73 1.275 . S
Cd67 O66 2.300 . S
Cd67 O75 2.381 . S
Cd67 O76 2.378 . S
O68 Cd69 2.385 . S
O68 C73 1.255 . S
Cd69 O68 2.385 . S
Cd69 O70 2.317 . S
O70 Cd69 2.317 . S
O70 C71 1.232 . S
C71 O70 1.232 . S
C71 O72 1.218 . S
O72 C71 1.218 . S
C73 O66 1.275 . S
C73 O68 1.255 . S
C74 O75 1.258 . S
C74 O76 1.256 . S
O75 Cd67 2.381 . S
O75 C74 1.258 . S
O76 Cd67 2.378 . S
O76 C74 1.256 . S
O77 Cd78 2.300 . S
O77 C84 1.275 . S
Cd78 O77 2.300 . S
Cd78 O86 2.381 . S
Cd78 O87 2.378 . S
O79 Cd80 2.385 . S
O79 C84 1.255 . S
Cd80 O79 2.385 . S
Cd80 O81 2.317 . S
O81 Cd80 2.317 . S
O81 C82 1.232 . S
C82 O81 1.232 . S
C82 O83 1.218 . S
O83 C82 1.218 . S
C84 O77 1.275 . S
C84 O79 1.255 . S
C85 O86 1.258 . S
C85 O87 1.256 . S
O86 Cd78 2.381 . S
O86 C85 1.258 . S
O87 Cd78 2.378 . S
O87 C85 1.256 . S
O88 Cd89 2.300 . S
O88 C95 1.275 . S
Cd89 O88 2.300 . S
Cd89 O97 2.381 . S
Cd89 O98 2.378 . S
O90 Cd91 2.385 . S
O90 C95 1.255 . S
Cd91 O90 2.385 . S
Cd91 O92 2.317 . S
O92 Cd91 2.317 . S
O92 C93 1.232 . S
C93 O92 1.232 . S
C93 O94 1.218 . S
O94 C93 1.218 . S
C95 O88 1.275 . S
C95 O90 1.255 . S
C96 O97 1.258 . S
C96 O98 1.256 . S
O97 Cd89 2.381 . S
O97 C96 1.258 . S
O98 Cd89 2.378 . S
O98 C96 1.256 . S
O99 Cd100 2.300 1_565 S
O99 C106 1.275 1_565 S
Cd100 O99 2.300 1_545 S
Cd100 O108 2.381 1_545 S
Cd100 O109 2.378 . S
O101 Cd102 2.385 . S
O101 C106 1.255 . S
Cd102 O101 2.385 . S
Cd102 O103 2.317 . S
O103 Cd102 2.317 . S
O103 C104 1.232 . S
C104 O103 1.232 . S
C104 O105 1.218 . S
O105 C104 1.218 . S
C106 O99 1.275 1_545 S
C106 O101 1.255 . S
C107 O108 1.258 1_545 S
C107 O109 1.256 . S
O108 Cd100 2.381 1_565 S
O108 C107 1.258 1_565 S
O109 Cd100 2.378 . S
O109 C107 1.256 . S
O110 Cd111 2.300 . S
O110 C117 1.275 . S
Cd111 O110 2.300 . S
Cd111 O119 2.381 . S
Cd111 O120 2.378 . S
O112 Cd113 2.385 . S
O112 C117 1.255 . S
Cd113 O112 2.385 . S
Cd113 O114 2.317 . S
O114 Cd113 2.317 . S
O114 C115 1.232 . S
C115 O114 1.232 . S
C115 O116 1.218 . S
O116 C115 1.218 . S
C117 O110 1.275 . S
C117 O112 1.255 . S
C118 O119 1.258 . S
C118 O120 1.256 . S
O119 Cd111 2.381 . S
O119 C118 1.258 . S
O120 Cd111 2.378 . S
O120 C118 1.256 . S
O121 Cd122 2.300 1_545 S
O121 C128 1.275 1_545 S
Cd122 O121 2.300 1_565 S
Cd122 O130 2.381 1_565 S
Cd122 O131 2.378 . S
O123 Cd124 2.385 . S
O123 C128 1.255 . S
Cd124 O123 2.385 . S
Cd124 O125 2.317 . S
O125 Cd124 2.317 . S
O125 C126 1.232 . S
C126 O125 1.232 . S
C126 O127 1.218 . S
O127 C126 1.218 . S
C128 O121 1.275 1_565 S
C128 O123 1.255 . S
C129 O130 1.258 1_565 S
C129 O131 1.256 . S
O130 Cd122 2.381 1_545 S
O130 C129 1.258 1_545 S
O131 Cd122 2.378 . S
O131 C129 1.256 . S
O132 Cd133 2.300 . S
O132 C139 1.275 . S
Cd133 O132 2.300 . S
Cd133 O141 2.381 . S
Cd133 O142 2.378 . S
O134 Cd135 2.385 . S
O134 C139 1.255 . S
Cd135 O134 2.385 . S
Cd135 O136 2.317 . S
O136 Cd135 2.317 . S
O136 C137 1.232 . S
C137 O136 1.232 . S
C137 O138 1.218 . S
O138 C137 1.218 . S
C139 O132 1.275 . S
C139 O134 1.255 . S
C140 O141 1.258 . S
C140 O142 1.256 . S
O141 Cd133 2.381 . S
O141 C140 1.258 . S
O142 Cd133 2.378 . S
O142 C140 1.256 . S
O143 Cd144 2.300 1_565 S
O143 C150 1.275 1_565 S
Cd144 O143 2.300 1_545 S
Cd144 O152 2.381 1_545 S
Cd144 O153 2.378 . S
O145 Cd146 2.385 . S
O145 C150 1.255 . S
Cd146 O145 2.385 . S
Cd146 O147 2.317 . S
O147 Cd146 2.317 . S
O147 C148 1.232 . S
C148 O147 1.232 . S
C148 O149 1.218 . S
O149 C148 1.218 . S
C150 O143 1.275 1_545 S
C150 O145 1.255 . S
C151 O152 1.258 1_545 S
C151 O153 1.256 . S
O152 Cd144 2.381 1_565 S
O152 C151 1.258 1_565 S
O153 Cd144 2.378 . S
O153 C151 1.256 . S
O154 Cd155 2.300 . S
O154 C161 1.275 . S
Cd155 O154 2.300 . S
Cd155 O163 2.381 . S
Cd155 O164 2.378 . S
O156 Cd157 2.385 . S
O156 C161 1.255 . S
Cd157 O156 2.385 . S
Cd157 O158 2.317 . S
O158 Cd157 2.317 . S
O158 C159 1.232 . S
C159 O158 1.232 . S
C159 O160 1.218 . S
O160 C159 1.218 . S
C161 O154 1.275 . S
C161 O156 1.255 . S
C162 O163 1.258 . S
C162 O164 1.256 . S
O163 Cd155 2.381 . S
O163 C162 1.258 . S
O164 Cd155 2.378 . S
O164 C162 1.256 . S
O165 Cd166 2.300 1_545 S
O165 C172 1.275 1_545 S
Cd166 O165 2.300 1_565 S
Cd166 O174 2.381 1_565 S
Cd166 O175 2.378 . S
O167 Cd168 2.385 . S
O167 C172 1.255 . S
Cd168 O167 2.385 . S
Cd168 O169 2.317 . S
O169 Cd168 2.317 . S
O169 C170 1.232 . S
C170 O169 1.232 . S
C170 O171 1.218 . S
O171 C170 1.218 . S
C172 O165 1.275 1_565 S
C172 O167 1.255 . S
C173 O174 1.258 1_565 S
C173 O175 1.256 . S
O174 Cd166 2.381 1_545 S
O174 C173 1.258 1_545 S
O175 Cd166 2.378 . S
O175 C173 1.256 . S
O176 Cd177 2.300 . S
O176 C183 1.275 . S
Cd177 O176 2.300 . S
Cd177 O185 2.381 . S
Cd177 O186 2.378 . S
O178 Cd179 2.385 . S
O178 C183 1.255 . S
Cd179 O178 2.385 . S
Cd179 O180 2.317 . S
O180 Cd179 2.317 . S
O180 C181 1.232 . S
C181 O180 1.232 . S
C181 O182 1.218 . S
O182 C181 1.218 . S
C183 O176 1.275 . S
C183 O178 1.255 . S
C184 O185 1.258 . S
C184 O186 1.256 . S
O185 Cd177 2.381 . S
O185 C184 1.258 . S
O186 Cd177 2.378 . S
O186 C184 1.256 . S
O187 Cd188 2.300 . S
O187 C194 1.275 . S
Cd188 O187 2.300 . S
Cd188 O196 2.381 . S
Cd188 O197 2.378 . S
O189 Cd190 2.385 . S
O189 C194 1.255 . S
Cd190 O189 2.385 . S
Cd190 O191 2.317 . S
O191 Cd190 2.317 . S
O191 C192 1.232 . S
C192 O191 1.232 . S
C192 O193 1.218 . S
O193 C192 1.218 . S
C194 O187 1.275 . S
C194 O189 1.255 . S
C195 O196 1.258 . S
C195 O197 1.256 . S
O196 Cd188 2.381 . S
O196 C195 1.258 . S
O197 Cd188 2.378 . S
O197 C195 1.256 . S
O198 Cd199 2.300 . S
O198 C205 1.275 . S
Cd199 O198 2.300 . S
Cd199 O207 2.381 . S
Cd199 O208 2.378 . S
O200 Cd201 2.385 . S
O200 C205 1.255 . S
Cd201 O200 2.385 . S
Cd201 O202 2.317 . S
O202 Cd201 2.317 . S
O202 C203 1.232 . S
C203 O202 1.232 . S
C203 O204 1.218 . S
O204 C203 1.218 . S
C205 O198 1.275 . S
C205 O200 1.255 . S
C206 O207 1.258 . S
C206 O208 1.256 . S
O207 Cd199 2.381 . S
O207 C206 1.258 . S
O208 Cd199 2.378 . S
O208 C206 1.256 . S
O209 Cd210 2.300 . S
O209 C216 1.275 . S
Cd210 O209 2.300 . S
Cd210 O218 2.381 . S
Cd210 O219 2.378 . S
O211 Cd212 2.385 . S
O211 C216 1.255 . S
Cd212 O211 2.385 . S
Cd212 O213 2.317 . S
O213 Cd212 2.317 . S
O213 C214 1.232 . S
C214 O213 1.232 . S
C214 O215 1.218 . S
O215 C214 1.218 . S
C216 O209 1.275 . S
C216 O211 1.255 . S
C217 O218 1.258 . S
C217 O219 1.256 . S
O218 Cd210 2.381 . S
O218 C217 1.258 . S
O219 Cd210 2.378 . S
O219 C217 1.256 . S
O220 Cd221 2.300 . S
O220 C227 1.275 . S
Cd221 O220 2.300 . S
Cd221 O229 2.381 . S
Cd221 O230 2.378 . S
O222 Cd223 2.385 . S
O222 C227 1.255 . S
Cd223 O222 2.385 . S
Cd223 O224 2.317 . S
O224 Cd223 2.317 . S
O224 C225 1.232 . S
C225 O224 1.232 . S
C225 O226 1.218 . S
O226 C225 1.218 . S
C227 O220 1.275 . S
C227 O222 1.255 . S
C228 O229 1.258 . S
C228 O230 1.256 . S
O229 Cd221 2.381 . S
O229 C228 1.258 . S
O230 Cd221 2.378 . S
O230 C228 1.256 . S
O231 Cd232 2.300 . S
O231 C238 1.275 . S
Cd232 O231 2.300 . S
Cd232 O240 2.381 . S
Cd232 O241 2.378 . S
O233 Cd234 2.385 . S
O233 C238 1.255 . S
Cd234 O233 2.385 . S
Cd234 O235 2.317 . S
O235 Cd234 2.317 . S
O235 C236 1.232 . S
C236 O235 1.232 . S
C236 O237 1.218 . S
O237 C236 1.218 . S
C238 O231 1.275 . S
C238 O233 1.255 . S
C239 O240 1.258 . S
C239 O241 1.256 . S
O240 Cd232 2.381 . S
O240 C239 1.258 . S
O241 Cd232 2.378 . S
O241 C239 1.256 . S
O242 Cd243 2.300 . S
O242 C249 1.275 . S
Cd243 O242 2.300 . S
Cd243 O251 2.381 . S
Cd243 O252 2.378 . S
O244 Cd245 2.385 . S
O244 C249 1.255 . S
Cd245 O244 2.385 . S
Cd245 O246 2.317 . S
O246 Cd245 2.317 . S
O246 C247 1.232 . S
C247 O246 1.232 . S
C247 O248 1.218 . S
O248 C247 1.218 . S
C249 O242 1.275 . S
C249 O244 1.255 . S
C250 O251 1.258 . S
C250 O252 1.256 . S
O251 Cd243 2.381 . S
O251 C250 1.258 . S
O252 Cd243 2.378 . S
O252 C250 1.256 . S
O253 Cd254 2.300 . S
O253 C260 1.275 . S
Cd254 O253 2.300 . S
Cd254 O262 2.381 . S
Cd254 O263 2.378 . S
O255 Cd256 2.385 . S
O255 C260 1.255 . S
Cd256 O255 2.385 . S
Cd256 O257 2.317 . S
O257 Cd256 2.317 . S
O257 C258 1.232 . S
C258 O257 1.232 . S
C258 O259 1.218 . S
O259 C258 1.218 . S
C260 O253 1.275 . S
C260 O255 1.255 . S
C261 O262 1.258 . S
C261 O263 1.256 . S
O262 Cd254 2.381 . S
O262 C261 1.258 . S
O263 Cd254 2.378 . S
O263 C261 1.256 . S
O264 Cd265 2.300 . S
O264 C271 1.275 . S
Cd265 O264 2.300 . S
Cd265 O273 2.381 . S
Cd265 O274 2.378 . S
O266 Cd267 2.385 . S
O266 C271 1.255 . S
Cd267 O266 2.385 . S
Cd267 O268 2.317 . S
O268 Cd267 2.317 . S
O268 C269 1.232 . S
C269 O268 1.232 . S
C269 O270 1.218 . S
O270 C269 1.218 . S
C271 O264 1.275 . S
C271 O266 1.255 . S
C272 O273 1.258 . S
C272 O274 1.256 . S
O273 Cd265 2.381 . S
O273 C272 1.258 . S
O274 Cd265 2.378 . S
O274 C272 1.256 . S
O275 Cd276 2.300 . S
O275 C282 1.275 . S
Cd276 O275 2.300 . S
Cd276 O284 2.381 . S
Cd276 O285 2.378 . S
O277 Cd278 2.385 . S
O277 C282 1.255 . S
Cd278 O277 2.385 . S
Cd278 O279 2.317 . S
O279 Cd278 2.317 . S
O279 C280 1.232 . S
C280 O279 1.232 . S
C280 O281 1.218 . S
O281 C280 1.218 . S
C282 O275 1.275 . S
C282 O277 1.255 . S
C283 O284 1.258 . S
C283 O285 1.256 . S
O284 Cd276 2.381 . S
O284 C283 1.258 . S
O285 Cd276 2.378 . S
O285 C283 1.256 . S
O286 Cd287 2.300 . S
O286 C293 1.275 . S
Cd287 O286 2.300 . S
Cd287 O295 2.381 . S
Cd287 O296 2.378 . S
O288 Cd289 2.385 . S
O288 C293 1.255 . S
Cd289 O288 2.385 . S
Cd289 O290 2.317 . S
O290 Cd289 2.317 . S
O290 C291 1.232 . S
C291 O290 1.232 . S
C291 O292 1.218 . S
O292 C291 1.218 . S
C293 O286 1.275 . S
C293 O288 1.255 . S
C294 O295 1.258 . S
C294 O296 1.256 . S
O295 Cd287 2.381 . S
O295 C294 1.258 . S
O296 Cd287 2.378 . S
O296 C294 1.256 . S
O297 Cd298 2.300 . S
O297 C304 1.275 . S
Cd298 O297 2.300 . S
Cd298 O306 2.381 . S
Cd298 O307 2.378 . S
O299 Cd300 2.385 . S
O299 C304 1.255 . S
Cd300 O299 2.385 . S
Cd300 O301 2.317 . S
O301 Cd300 2.317 . S
O301 C302 1.232 . S
C302 O301 1.232 . S
C302 O303 1.218 . S
O303 C302 1.218 . S
C304 O297 1.275 . S
C304 O299 1.255 . S
C305 O306 1.258 . S
C305 O307 1.256 . S
O306 Cd298 2.381 . S
O306 C305 1.258 . S
O307 Cd298 2.378 . S
O307 C305 1.256 . S
O308 Cd309 2.300 . S
O308 C315 1.275 . S
Cd309 O308 2.300 . S
Cd309 O317 2.381 . S
Cd309 O318 2.378 . S
O310 Cd311 2.385 . S
O310 C315 1.255 . S
Cd311 O310 2.385 . S
Cd311 O312 2.317 . S
O312 Cd311 2.317 . S
O312 C313 1.232 . S
C313 O312 1.232 . S
C313 O314 1.218 . S
O314 C313 1.218 . S
C315 O308 1.275 . S
C315 O310 1.255 . S
C316 O317 1.258 . S
C316 O318 1.256 . S
O317 Cd309 2.381 . S
O317 C316 1.258 . S
O318 Cd309 2.378 . S
O318 C316 1.256 . S
O319 Cd320 2.300 . S
O319 C326 1.275 . S
Cd320 O319 2.300 . S
Cd320 O328 2.381 . S
Cd320 O329 2.378 . S
O321 Cd322 2.385 . S
O321 C326 1.255 . S
Cd322 O321 2.385 . S
Cd322 O323 2.317 . S
O323 Cd322 2.317 . S
O323 C324 1.232 . S
C324 O323 1.232 . S
C324 O325 1.218 . S
O325 C324 1.218 . S
C326 O319 1.275 . S
C326 O321 1.255 . S
C327 O328 1.258 . S
C327 O329 1.256 . S
O328 Cd320 2.381 . S
O328 C327 1.258 . S
O329 Cd320 2.378 . S
O329 C327 1.256 . S
O330 Cd331 2.300 . S
O330 C337 1.275 . S
Cd331 O330 2.300 . S
Cd331 O339 2.381 . S
Cd331 O340 2.378 . S
O332 Cd333 2.385 . S
O332 C337 1.255 . S
Cd333 O332 2.385 . S
Cd333 O334 2.317 . S
O334 Cd333 2.317 . S
O334 C335 1.232 . S
C335 O334 1.232 . S
C335 O336 1.218 . S
O336 C335 1.218 . S
C337 O330 1.275 . S
C337 O332 1.255 . S
C338 O339 1.258 . S
C338 O340 1.256 . S
O339 Cd331 2.381 . S
O339 C338 1.258 . S
O340 Cd331 2.378 . S
O340 C338 1.256 . S
O341 Cd342 2.300 . S
O341 C348 1.275 . S
Cd342 O341 2.300 . S
Cd342 O350 2.381 . S
Cd342 O351 2.378 . S
O343 Cd344 2.385 . S
O343 C348 1.255 . S
Cd344 O343 2.385 . S
Cd344 O345 2.317 . S
O345 Cd344 2.317 . S
O345 C346 1.232 . S
C346 O345 1.232 . S
C346 O347 1.218 . S
O347 C346 1.218 . S
C348 O341 1.275 . S
C348 O343 1.255 . S
C349 O350 1.258 . S
C349 O351 1.256 . S
O350 Cd342 2.381 . S
O350 C349 1.258 . S
O351 Cd342 2.378 . S
O351 C349 1.256 . S
C352 C353 1.369 . S
C352 C354 1.419 . S
C352 H356 0.930 . S
C353 C352 1.369 . S
C353 C362 1.429 . S
C354 C352 1.419 . S
C354 C355 1.363 . S
C354 H357 0.929 . S
C355 C354 1.363 . S
C355 C361 1.428 . S
H356 C352 0.930 . S
H357 C354 0.929 . S
S358 N359 1.613 . S
S358 N360 1.610 . S
N359 S358 1.613 . S
N359 C362 1.350 . S
N360 S358 1.610 . S
N360 C361 1.351 . S
C361 C355 1.428 . S
C361 N360 1.351 . S
C361 C362 1.434 . S
C362 C353 1.429 . S
C362 N359 1.350 . S
C362 C361 1.434 . S
C363 C364 1.369 1_545 S
C363 C365 1.419 1_655 S
C363 H367 0.930 . S
C364 C363 1.369 1_565 S
C364 C373 1.429 . S
C365 C363 1.419 1_455 S
C365 C366 1.390 . S
C365 H368 0.929 . S
C366 C365 1.390 . S
C366 C372 1.399 1_545 S
H367 C363 0.930 . S
H368 C365 0.929 . S
S369 N370 1.613 1_455 S
S369 N371 1.610 . S
N370 S369 1.613 1_655 S
N370 C373 1.350 . S
N371 S369 1.610 . S
N371 C372 1.351 . S
C372 C366 1.399 1_565 S
C372 N371 1.351 . S
C372 C373 1.434 1_455 S
C373 C364 1.429 . S
C373 N370 1.350 . S
C373 C372 1.434 1_655 S
C374 C375 1.369 . S
C374 C376 1.419 . S
C374 H378 0.930 . S
C375 C374 1.369 . S
C375 C384 1.429 . S
C376 C374 1.419 . S
C376 C377 1.363 . S
C376 H379 0.929 . S
C377 C376 1.363 . S
C377 C383 1.428 . S
H378 C374 0.930 . S
H379 C376 0.929 . S
S380 N381 1.613 . S
S380 N382 1.610 . S
N381 S380 1.613 . S
N381 C384 1.350 . S
N382 S380 1.610 . S
N382 C383 1.351 . S
C383 C377 1.428 . S
C383 N382 1.351 . S
C383 C384 1.434 . S
C384 C375 1.429 . S
C384 N381 1.350 . S
C384 C383 1.434 . S
C385 C386 1.400 . S
C385 C387 1.419 . S
C385 H389 0.930 . S
C386 C385 1.400 . S
C386 C395 1.395 1_546 S
C387 C385 1.419 . S
C387 C388 1.363 1_546 S
C387 H390 0.929 . S
C388 C387 1.363 1_564 S
C388 C394 1.428 . S
H389 C385 0.930 . S
H390 C387 0.929 . S
S391 N392 1.613 . S
S391 N393 1.610 . S
N392 S391 1.613 . S
N392 C395 1.350 . S
N393 S391 1.610 . S
N393 C394 1.351 . S
C394 C388 1.428 . S
C394 N393 1.351 . S
C394 C395 1.434 . S
C395 C386 1.395 1_564 S
C395 N392 1.350 . S
C395 C394 1.434 . S
C396 C397 1.369 . S
C396 C398 1.419 . S
C396 H400 0.930 . S
C397 C396 1.369 . S
C397 C406 1.429 . S
C398 C396 1.419 . S
C398 C399 1.363 . S
C398 H401 0.929 . S
C399 C398 1.363 . S
C399 C405 1.428 . S
H400 C396 0.930 . S
H401 C398 0.929 . S
S402 N403 1.613 . S
S402 N404 1.610 . S
N403 S402 1.613 . S
N403 C406 1.350 . S
N404 S402 1.610 . S
N404 C405 1.351 . S
C405 C399 1.428 . S
C405 N404 1.351 . S
C405 C406 1.434 . S
C406 C397 1.429 . S
C406 N403 1.350 . S
C406 C405 1.434 . S
C407 C408 1.369 1_545 S
C407 C409 1.419 . S
C407 H411 0.930 . S
C408 C407 1.369 1_565 S
C408 C417 1.429 . S
C409 C407 1.419 . S
C409 C410 1.403 . S
C409 H412 0.929 . S
C410 C409 1.403 . S
C410 C416 1.386 1_545 S
H411 C407 0.930 . S
H412 C409 0.929 . S
S413 N414 1.613 . S
S413 N415 1.610 . S
N414 S413 1.613 . S
N414 C417 1.350 . S
N415 S413 1.610 . S
N415 C416 1.351 . S
C416 C410 1.386 1_565 S
C416 N415 1.351 . S
C416 C417 1.434 . S
C417 C408 1.429 . S
C417 N414 1.350 . S
C417 C416 1.434 . S
C418 C419 1.369 . S
C418 C420 1.419 . S
C418 H422 0.930 . S
C419 C418 1.369 . S
C419 C428 1.429 . S
C420 C418 1.419 . S
C420 C421 1.363 . S
C420 H423 0.929 . S
C421 C420 1.363 . S
C421 C427 1.428 . S
H422 C418 0.930 . S
H423 C420 0.929 . S
S424 N425 1.613 . S
S424 N426 1.610 . S
N425 S424 1.613 . S
N425 C428 1.350 . S
N426 S424 1.610 . S
N426 C427 1.351 . S
C427 C421 1.428 . S
C427 N426 1.351 . S
C427 C428 1.434 . S
C428 C419 1.429 . S
C428 N425 1.350 . S
C428 C427 1.434 . S
C429 C430 1.396 1_554 S
C429 C431 1.427 1_455 S
C429 H433 0.931 . S
C430 C429 1.396 1_556 S
C430 C439 1.390 1_565 S
C431 C429 1.427 1_655 S
C431 C432 1.363 1_565 S
C431 H434 0.929 . S
C432 C431 1.363 1_545 S
C432 C438 1.415 1_554 S
H433 C429 0.931 . S
H434 C431 0.929 . S
S435 N436 1.613 1_655 S
S435 N437 1.610 . S
N436 S435 1.613 1_455 S
N436 C439 1.350 . S
N437 S435 1.610 . S
N437 C438 1.353 . S
C438 C432 1.415 1_556 S
C438 N437 1.353 . S
C438 C439 1.447 1_655 S
C439 C430 1.390 1_545 S
C439 N436 1.350 . S
C439 C438 1.447 1_455 S
C440 C441 1.369 . S
C440 C442 1.419 . S
C440 H444 0.930 . S
C441 C440 1.369 . S
C441 C450 1.429 . S
C442 C440 1.419 . S
C442 C443 1.363 . S
C442 H445 0.929 . S
C443 C442 1.363 . S
C443 C449 1.428 . S
H444 C440 0.930 . S
H445 C442 0.929 . S
S446 N447 1.613 . S
S446 N448 1.610 . S
N447 S446 1.613 . S
N447 C450 1.350 . S
N448 S446 1.610 . S
N448 C449 1.351 . S
C449 C443 1.428 . S
C449 N448 1.351 . S
C449 C450 1.434 . S
C450 C441 1.429 . S
C450 N447 1.350 . S
C450 C449 1.434 . S
C451 C452 1.369 . S
C451 C453 1.419 . S
C451 H455 0.930 . S
C452 C451 1.369 . S
C452 C461 1.429 . S
C453 C451 1.419 . S
C453 C454 1.363 . S
C453 H456 0.929 . S
C454 C453 1.363 . S
C454 C460 1.428 . S
H455 C451 0.930 . S
H456 C453 0.929 . S
S457 N458 1.613 . S
S457 N459 1.610 . S
N458 S457 1.613 . S
N458 C461 1.350 . S
N459 S457 1.610 . S
N459 C460 1.351 . S
C460 C454 1.428 . S
C460 N459 1.351 . S
C460 C461 1.434 . S
C461 C452 1.429 . S
C461 N458 1.350 . S
C461 C460 1.434 . S
C462 C463 1.369 . S
C462 C464 1.419 . S
C462 H466 0.930 . S
C463 C462 1.369 . S
C463 C472 1.429 . S
C464 C462 1.419 . S
C464 C465 1.363 . S
C464 H467 0.929 . S
C465 C464 1.363 . S
C465 C471 1.428 . S
H466 C462 0.930 . S
H467 C464 0.929 . S
S468 N469 1.613 . S
S468 N470 1.610 . S
N469 S468 1.613 . S
N469 C472 1.350 . S
N470 S468 1.610 . S
N470 C471 1.351 . S
C471 C465 1.428 . S
C471 N470 1.351 . S
C471 C472 1.434 . S
C472 C463 1.429 . S
C472 N469 1.350 . S
C472 C471 1.434 . S
C473 C474 1.369 . S
C473 C475 1.419 . S
C473 H477 0.930 . S
C474 C473 1.369 . S
C474 C483 1.429 . S
C475 C473 1.419 . S
C475 C476 1.363 . S
C475 H478 0.929 . S
C476 C475 1.363 . S
C476 C482 1.428 . S
H477 C473 0.930 . S
H478 C475 0.929 . S
S479 N480 1.613 . S
S479 N481 1.610 . S
N480 S479 1.613 . S
N480 C483 1.350 . S
N481 S479 1.610 . S
N481 C482 1.351 . S
C482 C476 1.428 . S
C482 N481 1.351 . S
C482 C483 1.434 . S
C483 C474 1.429 . S
C483 N480 1.350 . S
C483 C482 1.434 . S
C484 C485 1.369 1_556 S
C484 C486 1.419 . S
C484 H488 0.930 . S
C485 C484 1.369 1_554 S
C485 C494 1.429 . S
C486 C484 1.419 . S
C486 C487 1.363 . S
C486 H489 0.929 . S
C487 C486 1.363 . S
C487 C493 1.428 1_556 S
H488 C484 0.930 . S
H489 C486 0.929 . S
S490 N491 1.613 . S
S490 N492 1.610 . S
N491 S490 1.613 . S
N491 C494 1.350 . S
N492 S490 1.610 . S
N492 C493 1.351 . S
C493 C487 1.428 1_554 S
C493 N492 1.351 . S
C493 C494 1.434 . S
C494 C485 1.429 . S
C494 N491 1.350 . S
C494 C493 1.434 . S
C495 C496 1.369 . S
C495 C497 1.419 1_455 S
C495 H499 0.930 . S
C496 C495 1.369 . S
C496 C505 1.429 . S
C497 C495 1.419 1_655 S
C497 C498 1.363 . S
C497 H500 0.929 . S
C498 C497 1.363 . S
C498 C504 1.428 . S
H499 C495 0.930 . S
H500 C497 0.929 . S
S501 N502 1.613 1_655 S
S501 N503 1.610 . S
N502 S501 1.613 1_455 S
N502 C505 1.350 . S
N503 S501 1.610 . S
N503 C504 1.351 . S
C504 C498 1.428 . S
C504 N503 1.351 . S
C504 C505 1.434 1_655 S
C505 C496 1.429 . S
C505 N502 1.350 . S
C505 C504 1.434 1_455 S
C506 C507 1.369 1_554 S
C506 C508 1.419 1_655 S
C506 H510 0.930 . S
C507 C506 1.369 1_556 S
C507 C516 1.459 . S
C508 C506 1.419 1_455 S
C508 C509 1.363 . S
C508 H511 0.929 . S
C509 C508 1.363 . S
C509 C515 1.428 1_554 S
H510 C506 0.930 . S
H511 C508 0.929 . S
S512 N513 1.613 . S
S512 N514 1.610 . S
N513 S512 1.613 . S
N513 C516 1.347 1_455 S
N514 S512 1.610 . S
N514 C515 1.351 . S
C515 C509 1.428 1_556 S
C515 N514 1.351 . S
C515 C516 1.403 1_455 S
C516 C507 1.459 . S
C516 N513 1.347 1_655 S
C516 C515 1.403 1_655 S
C517 C518 1.369 . S
C517 C519 1.419 . S
C517 H521 0.930 . S
C518 C517 1.369 . S
C518 C527 1.429 . S
C519 C517 1.419 . S
C519 C520 1.363 . S
C519 H522 0.929 . S
C520 C519 1.363 . S
C520 C526 1.428 . S
H521 C517 0.930 . S
H522 C519 0.929 . S
S523 N524 1.613 . S
S523 N525 1.610 . S
N524 S523 1.613 . S
N524 C527 1.350 . S
N525 S523 1.610 . S
N525 C526 1.351 . S
C526 C520 1.428 . S
C526 N525 1.351 . S
C526 C527 1.434 . S
C527 C518 1.429 . S
C527 N524 1.350 . S
C527 C526 1.434 . S
C528 C529 1.369 . S
C528 C530 1.419 . S
C528 H532 0.930 . S
C529 C528 1.369 . S
C529 C538 1.429 . S
C530 C528 1.419 . S
C530 C531 1.363 . S
C530 H533 0.929 . S
C531 C530 1.363 . S
C531 C537 1.428 . S
H532 C528 0.930 . S
H533 C530 0.929 . S
S534 N535 1.613 . S
S534 N536 1.610 . S
N535 S534 1.613 . S
N535 C538 1.350 . S
N536 S534 1.610 . S
N536 C537 1.351 . S
C537 C531 1.428 . S
C537 N536 1.351 . S
C537 C538 1.434 . S
C538 C529 1.429 . S
C538 N535 1.350 . S
C538 C537 1.434 . S
C539 C540 1.369 . S
C539 C541 1.419 . S
C539 H543 0.930 . S
C540 C539 1.369 . S
C540 C549 1.429 . S
C541 C539 1.419 . S
C541 C542 1.363 . S
C541 H544 0.929 . S
C542 C541 1.363 . S
C542 C548 1.428 . S
H543 C539 0.930 . S
H544 C541 0.929 . S
S545 N546 1.613 . S
S545 N547 1.610 . S
N546 S545 1.613 . S
N546 C549 1.350 . S
N547 S545 1.610 . S
N547 C548 1.351 . S
C548 C542 1.428 . S
C548 N547 1.351 . S
C548 C549 1.434 . S
C549 C540 1.429 . S
C549 N546 1.350 . S
C549 C548 1.434 . S
C550 C551 1.369 . S
C550 C552 1.419 . S
C550 H554 0.930 . S
C551 C550 1.369 . S
C551 C560 1.429 . S
C552 C550 1.419 . S
C552 C553 1.363 . S
C552 H555 0.929 . S
C553 C552 1.363 . S
C553 C559 1.428 . S
H554 C550 0.930 . S
H555 C552 0.929 . S
S556 N557 1.613 . S
S556 N558 1.610 . S
N557 S556 1.613 . S
N557 C560 1.350 . S
N558 S556 1.610 . S
N558 C559 1.351 . S
C559 C553 1.428 . S
C559 N558 1.351 . S
C559 C560 1.434 . S
C560 C551 1.429 . S
C560 N557 1.350 . S
C560 C559 1.434 . S
C561 C562 1.369 . S
C561 C563 1.419 . S
C561 H565 0.930 . S
C562 C561 1.369 . S
C562 C571 1.429 . S
C563 C561 1.419 . S
C563 C564 1.363 . S
C563 H566 0.929 . S
C564 C563 1.363 . S
C564 C570 1.428 . S
H565 C561 0.930 . S
H566 C563 0.929 . S
S567 N568 1.613 . S
S567 N569 1.610 . S
N568 S567 1.613 . S
N568 C571 1.350 . S
N569 S567 1.610 . S
N569 C570 1.351 . S
C570 C564 1.428 . S
C570 N569 1.351 . S
C570 C571 1.434 . S
C571 C562 1.429 . S
C571 N568 1.350 . S
C571 C570 1.434 . S
C572 C573 1.369 . S
C572 C574 1.419 . S
C572 H576 0.930 . S
C573 C572 1.369 . S
C573 C582 1.429 . S
C574 C572 1.419 . S
C574 C575 1.363 . S
C574 H577 0.929 . S
C575 C574 1.363 . S
C575 C581 1.428 . S
H576 C572 0.930 . S
H577 C574 0.929 . S
S578 N579 1.613 . S
S578 N580 1.610 . S
N579 S578 1.613 . S
N579 C582 1.350 . S
N580 S578 1.610 . S
N580 C581 1.351 . S
C581 C575 1.428 . S
C581 N580 1.351 . S
C581 C582 1.434 . S
C582 C573 1.429 . S
C582 N579 1.350 . S
C582 C581 1.434 . S
C583 C584 1.369 . S
C583 C585 1.419 . S
C583 H587 0.930 . S
C584 C583 1.369 . S
C584 C593 1.429 . S
C585 C583 1.419 . S
C585 C586 1.363 . S
C585 H588 0.929 . S
C586 C585 1.363 . S
C586 C592 1.428 . S
H587 C583 0.930 . S
H588 C585 0.929 . S
S589 N590 1.613 . S
S589 N591 1.610 . S
N590 S589 1.613 . S
N590 C593 1.350 . S
N591 S589 1.610 . S
N591 C592 1.351 . S
C592 C586 1.428 . S
C592 N591 1.351 . S
C592 C593 1.434 . S
C593 C584 1.429 . S
C593 N590 1.350 . S
C593 C592 1.434 . S
C594 C595 1.369 . S
C594 C596 1.419 . S
C594 H598 0.930 . S
C595 C594 1.369 . S
C595 C604 1.429 . S
C596 C594 1.419 . S
C596 C597 1.363 . S
C596 H599 0.929 . S
C597 C596 1.363 . S
C597 C603 1.428 . S
H598 C594 0.930 . S
H599 C596 0.929 . S
S600 N601 1.613 . S
S600 N602 1.610 . S
N601 S600 1.613 . S
N601 C604 1.350 . S
N602 S600 1.610 . S
N602 C603 1.351 . S
C603 C597 1.428 . S
C603 N602 1.351 . S
C603 C604 1.434 . S
C604 C595 1.429 . S
C604 N601 1.350 . S
C604 C603 1.434 . S
C605 C606 1.369 . S
C605 C607 1.419 . S
C605 H609 0.930 . S
C606 C605 1.369 . S
C606 C615 1.429 . S
C607 C605 1.419 . S
C607 C608 1.363 . S
C607 H610 0.929 . S
C608 C607 1.363 . S
C608 C614 1.428 . S
H609 C605 0.930 . S
H610 C607 0.929 . S
S611 N612 1.613 . S
S611 N613 1.610 . S
N612 S611 1.613 . S
N612 C615 1.350 . S
N613 S611 1.610 . S
N613 C614 1.351 . S
C614 C608 1.428 . S
C614 N613 1.351 . S
C614 C615 1.434 . S
C615 C606 1.429 . S
C615 N612 1.350 . S
C615 C614 1.434 . S
C616 C617 1.369 . S
C616 C618 1.419 . S
C616 H620 0.930 . S
C617 C616 1.369 . S
C617 C626 1.429 . S
C618 C616 1.419 . S
C618 C619 1.363 . S
C618 H621 0.929 . S
C619 C618 1.363 . S
C619 C625 1.428 . S
H620 C616 0.930 . S
H621 C618 0.929 . S
S622 N623 1.613 . S
S622 N624 1.610 . S
N623 S622 1.613 . S
N623 C626 1.350 . S
N624 S622 1.610 . S
N624 C625 1.351 . S
C625 C619 1.428 . S
C625 N624 1.351 . S
C625 C626 1.434 . S
C626 C617 1.429 . S
C626 N623 1.350 . S
C626 C625 1.434 . S
C627 C628 1.369 . S
C627 C629 1.419 . S
C627 H631 0.930 . S
C628 C627 1.369 . S
C628 C637 1.429 . S
C629 C627 1.419 . S
C629 C630 1.363 . S
C629 H632 0.929 . S
C630 C629 1.363 . S
C630 C636 1.428 . S
H631 C627 0.930 . S
H632 C629 0.929 . S
S633 N634 1.613 . S
S633 N635 1.610 . S
N634 S633 1.613 . S
N634 C637 1.350 . S
N635 S633 1.610 . S
N635 C636 1.351 . S
C636 C630 1.428 . S
C636 N635 1.351 . S
C636 C637 1.434 . S
C637 C628 1.429 . S
C637 N634 1.350 . S
C637 C636 1.434 . S
C638 C639 1.369 . S
C638 C640 1.419 . S
C638 H642 0.930 . S
C639 C638 1.369 . S
C639 C648 1.429 . S
C640 C638 1.419 . S
C640 C641 1.363 . S
C640 H643 0.929 . S
C641 C640 1.363 . S
C641 C647 1.428 . S
H642 C638 0.930 . S
H643 C640 0.929 . S
S644 N645 1.613 . S
S644 N646 1.610 . S
N645 S644 1.613 . S
N645 C648 1.350 . S
N646 S644 1.610 . S
N646 C647 1.351 . S
C647 C641 1.428 . S
C647 N646 1.351 . S
C647 C648 1.434 . S
C648 C639 1.429 . S
C648 N645 1.350 . S
C648 C647 1.434 . S
C649 C650 1.369 . S
C649 C651 1.419 . S
C649 H653 0.930 . S
C650 C649 1.369 . S
C650 C659 1.429 . S
C651 C649 1.419 . S
C651 C652 1.363 . S
C651 H654 0.929 . S
C652 C651 1.363 . S
C652 C658 1.428 . S
H653 C649 0.930 . S
H654 C651 0.929 . S
S655 N656 1.613 . S
S655 N657 1.610 . S
N656 S655 1.613 . S
N656 C659 1.350 . S
N657 S655 1.610 . S
N657 C658 1.351 . S
C658 C652 1.428 . S
C658 N657 1.351 . S
C658 C659 1.434 . S
C659 C650 1.429 . S
C659 N656 1.350 . S
C659 C658 1.434 . S
C660 C661 1.369 . S
C660 C662 1.419 . S
C660 H664 0.930 . S
C661 C660 1.369 . S
C661 C670 1.429 . S
C662 C660 1.419 . S
C662 C663 1.363 . S
C662 H665 0.929 . S
C663 C662 1.363 . S
C663 C669 1.428 . S
H664 C660 0.930 . S
H665 C662 0.929 . S
S666 N667 1.613 . S
S666 N668 1.610 . S
N667 S666 1.613 . S
N667 C670 1.350 . S
N668 S666 1.610 . S
N668 C669 1.351 . S
C669 C663 1.428 . S
C669 N668 1.351 . S
C669 C670 1.434 . S
C670 C661 1.429 . S
C670 N667 1.350 . S
C670 C669 1.434 . S
C671 C672 1.369 . S
C671 C673 1.419 . S
C671 H675 0.930 . S
C672 C671 1.369 . S
C672 C681 1.429 . S
C673 C671 1.419 . S
C673 C674 1.363 . S
C673 H676 0.929 . S
C674 C673 1.363 . S
C674 C680 1.428 . S
H675 C671 0.930 . S
H676 C673 0.929 . S
S677 N678 1.613 . S
S677 N679 1.610 . S
N678 S677 1.613 . S
N678 C681 1.350 . S
N679 S677 1.610 . S
N679 C680 1.351 . S
C680 C674 1.428 . S
C680 N679 1.351 . S
C680 C681 1.434 . S
C681 C672 1.429 . S
C681 N678 1.350 . S
C681 C680 1.434 . S
C682 C683 1.369 . S
C682 C684 1.419 . S
C682 H686 0.930 . S
C683 C682 1.369 . S
C683 C692 1.429 . S
C684 C682 1.419 . S
C684 C685 1.363 . S
C684 H687 0.929 . S
C685 C684 1.363 . S
C685 C691 1.428 . S
H686 C682 0.930 . S
H687 C684 0.929 . S
S688 N689 1.613 . S
S688 N690 1.610 . S
N689 S688 1.613 . S
N689 C692 1.350 . S
N690 S688 1.610 . S
N690 C691 1.351 . S
C691 C685 1.428 . S
C691 N690 1.351 . S
C691 C692 1.434 . S
C692 C683 1.429 . S
C692 N689 1.350 . S
C692 C691 1.434 . S
C693 C694 1.369 . S
C693 C695 1.419 . S
C693 H697 0.930 . S
C694 C693 1.369 . S
C694 C703 1.429 . S
C695 C693 1.419 . S
C695 C696 1.363 . S
C695 H698 0.929 . S
C696 C695 1.363 . S
C696 C702 1.428 . S
H697 C693 0.930 . S
H698 C695 0.929 . S
S699 N700 1.613 . S
S699 N701 1.610 . S
N700 S699 1.613 . S
N700 C703 1.350 . S
N701 S699 1.610 . S
N701 C702 1.351 . S
C702 C696 1.428 . S
C702 N701 1.351 . S
C702 C703 1.434 . S
C703 C694 1.429 . S
C703 N700 1.350 . S
C703 C702 1.434 . S
C704 C705 1.369 . S
C704 C706 1.419 1_556 S
C704 H708 0.930 . S
C705 C704 1.369 . S
C705 C714 1.429 . S
C706 C704 1.419 1_554 S
C706 C707 1.363 . S
C706 H709 0.929 . S
C707 C706 1.363 . S
C707 C713 1.428 . S
H708 C704 0.930 . S
H709 C706 0.929 . S
S710 N711 1.613 1_554 S
S710 N712 1.610 . S
N711 S710 1.613 1_556 S
N711 C714 1.350 . S
N712 S710 1.610 . S
N712 C713 1.351 . S
C713 C707 1.428 . S
C713 N712 1.351 . S
C713 C714 1.434 1_554 S
C714 C705 1.429 . S
C714 N711 1.350 . S
C714 C713 1.434 1_556 S
C715 C716 1.369 . S
C715 C717 1.419 . S
C715 H719 0.930 . S
C716 C715 1.369 . S
C716 C725 1.429 1_545 S
C717 C715 1.419 . S
C717 C718 1.363 1_545 S
C717 H720 0.929 . S
C718 C717 1.363 1_565 S
C718 C724 1.428 . S
H719 C715 0.930 . S
H720 C717 0.929 . S
S721 N722 1.613 . S
S721 N723 1.610 . S
N722 S721 1.613 . S
N722 C725 1.350 . S
N723 S721 1.610 . S
N723 C724 1.351 . S
C724 C718 1.428 . S
C724 N723 1.351 . S
C724 C725 1.434 . S
C725 C716 1.429 1_565 S
C725 N722 1.350 . S
C725 C724 1.434 . S
C726 C727 1.369 . S
C726 C728 1.419 . S
C726 H730 0.930 . S
C727 C726 1.369 . S
C727 C736 1.429 . S
C728 C726 1.419 . S
C728 C729 1.363 . S
C728 H731 0.929 . S
C729 C728 1.363 . S
C729 C735 1.428 . S
H730 C726 0.930 . S
H731 C728 0.929 . S
S732 N733 1.613 . S
S732 N734 1.610 . S
N733 S732 1.613 . S
N733 C736 1.350 . S
N734 S732 1.610 . S
N734 C735 1.351 . S
C735 C729 1.428 . S
C735 N734 1.351 . S
C735 C736 1.434 . S
C736 C727 1.429 . S
C736 N733 1.350 . S
C736 C735 1.434 . S
C737 C738 1.369 1_545 S
C737 C739 1.419 . S
C737 H741 0.930 . S
C738 C737 1.369 1_565 S
C738 C747 1.429 . S
C739 C737 1.419 . S
C739 C740 1.363 . S
C739 H742 0.929 . S
C740 C739 1.363 . S
C740 C746 1.428 1_545 S
H741 C737 0.930 . S
H742 C739 0.929 . S
S743 N744 1.613 . S
S743 N745 1.610 . S
N744 S743 1.613 . S
N744 C747 1.350 . S
N745 S743 1.610 . S
N745 C746 1.351 . S
C746 C740 1.428 1_565 S
C746 N745 1.351 . S
C746 C747 1.434 . S
C747 C738 1.429 . S
C747 N744 1.350 . S
C747 C746 1.434 . S
C748 C749 1.369 . S
C748 C750 1.419 1_556 S
C748 H752 0.930 . S
C749 C748 1.369 . S
C749 C758 1.429 . S
C750 C748 1.419 1_554 S
C750 C751 1.363 . S
C750 H753 0.929 . S
C751 C750 1.363 . S
C751 C757 1.428 . S
H752 C748 0.930 . S
H753 C750 0.929 . S
S754 N755 1.613 . S
S754 N756 1.610 1_556 S
N755 S754 1.613 . S
N755 C758 1.350 . S
N756 S754 1.610 1_554 S
N756 C757 1.351 . S
C757 C751 1.428 . S
C757 N756 1.351 . S
C757 C758 1.434 1_554 S
C758 C749 1.429 . S
C758 N755 1.350 . S
C758 C757 1.434 1_556 S
C759 C760 1.369 . S
C759 C761 1.419 . S
C759 H763 0.930 . S
C760 C759 1.369 . S
C760 C769 1.429 1_565 S
C761 C759 1.419 . S
C761 C762 1.363 1_565 S
C761 H764 0.929 . S
C762 C761 1.363 1_545 S
C762 C768 1.428 . S
H763 C759 0.930 . S
H764 C761 0.929 . S
S765 N766 1.613 . S
S765 N767 1.610 . S
N766 S765 1.613 . S
N766 C769 1.350 . S
N767 S765 1.610 . S
N767 C768 1.351 . S
C768 C762 1.428 . S
C768 N767 1.351 . S
C768 C769 1.434 . S
C769 C760 1.429 1_545 S
C769 N766 1.350 . S
C769 C768 1.434 . S
C770 C771 1.369 . S
C770 C772 1.419 . S
C770 H774 0.930 . S
C771 C770 1.369 . S
C771 C780 1.429 . S
C772 C770 1.419 . S
C772 C773 1.363 . S
C772 H775 0.929 . S
C773 C772 1.363 . S
C773 C779 1.428 . S
H774 C770 0.930 . S
H775 C772 0.929 . S
S776 N777 1.613 . S
S776 N778 1.610 . S
N777 S776 1.613 . S
N777 C780 1.350 . S
N778 S776 1.610 . S
N778 C779 1.351 . S
C779 C773 1.428 . S
C779 N778 1.351 . S
C779 C780 1.434 . S
C780 C771 1.429 . S
C780 N777 1.350 . S
C780 C779 1.434 . S
C781 C782 1.369 . S
C781 C783 1.419 1_545 S
C781 H785 0.930 . S
C782 C781 1.369 . S
C782 C791 1.429 . S
C783 C781 1.419 1_565 S
C783 C784 1.363 . S
C783 H786 0.929 . S
C784 C783 1.363 . S
C784 C790 1.428 . S
H785 C781 0.930 . S
H786 C783 0.929 . S
S787 N788 1.613 . S
S787 N789 1.610 1_545 S
N788 S787 1.613 . S
N788 C791 1.350 . S
N789 S787 1.610 1_565 S
N789 C790 1.351 . S
C790 C784 1.428 . S
C790 N789 1.351 . S
C790 C791 1.434 1_565 S
C791 C782 1.429 . S
C791 N788 1.350 . S
C791 C790 1.434 1_545 S
C792 C793 1.369 . S
C792 C794 1.419 . S
C792 H796 0.930 . S
C793 C792 1.369 . S
C793 C802 1.429 . S
C794 C792 1.419 . S
C794 C795 1.363 . S
C794 H797 0.929 . S
C795 C794 1.363 . S
C795 C801 1.428 . S
H796 C792 0.930 . S
H797 C794 0.929 . S
S798 N799 1.613 . S
S798 N800 1.610 . S
N799 S798 1.613 . S
N799 C802 1.350 . S
N800 S798 1.610 . S
N800 C801 1.351 . S
C801 C795 1.428 . S
C801 N800 1.351 . S
C801 C802 1.434 . S
C802 C793 1.429 . S
C802 N799 1.350 . S
C802 C801 1.434 . S
C803 C804 1.369 . S
C803 C805 1.419 . S
C803 H807 0.930 . S
C804 C803 1.369 . S
C804 C813 1.429 . S
C805 C803 1.419 . S
C805 C806 1.363 . S
C805 H808 0.929 . S
C806 C805 1.363 . S
C806 C812 1.428 . S
H807 C803 0.930 . S
H808 C805 0.929 . S
S809 N810 1.613 . S
S809 N811 1.610 . S
N810 S809 1.613 . S
N810 C813 1.350 . S
N811 S809 1.610 . S
N811 C812 1.351 . S
C812 C806 1.428 . S
C812 N811 1.351 . S
C812 C813 1.434 . S
C813 C804 1.429 . S
C813 N810 1.350 . S
C813 C812 1.434 . S
C814 C815 1.369 . S
C814 C816 1.419 1_554 S
C814 H818 0.930 . S
C815 C814 1.369 . S
C815 C824 1.429 . S
C816 C814 1.419 1_556 S
C816 C817 1.363 . S
C816 H819 0.929 . S
C817 C816 1.363 . S
C817 C823 1.428 . S
H818 C814 0.930 . S
H819 C816 0.929 . S
S820 N821 1.613 1_556 S
S820 N822 1.610 . S
N821 S820 1.613 1_554 S
N821 C824 1.350 . S
N822 S820 1.610 . S
N822 C823 1.351 . S
C823 C817 1.428 . S
C823 N822 1.351 . S
C823 C824 1.434 1_556 S
C824 C815 1.429 . S
C824 N821 1.350 . S
C824 C823 1.434 1_554 S
C825 C826 1.369 . S
C825 C827 1.419 . S
C825 H829 0.930 . S
C826 C825 1.369 . S
C826 C835 1.429 . S
C827 C825 1.419 . S
C827 C828 1.363 . S
C827 H830 0.929 . S
C828 C827 1.363 . S
C828 C834 1.428 . S
H829 C825 0.930 . S
H830 C827 0.929 . S
S831 N832 1.613 . S
S831 N833 1.610 . S
N832 S831 1.613 . S
N832 C835 1.350 . S
N833 S831 1.610 . S
N833 C834 1.351 . S
C834 C828 1.428 . S
C834 N833 1.351 . S
C834 C835 1.434 . S
C835 C826 1.429 . S
C835 N832 1.350 . S
C835 C834 1.434 . S
C836 C837 1.369 . S
C836 C838 1.419 . S
C836 H840 0.930 . S
C837 C836 1.369 . S
C837 C846 1.429 . S
C838 C836 1.419 . S
C838 C839 1.363 . S
C838 H841 0.929 . S
C839 C838 1.363 . S
C839 C845 1.428 . S
H840 C836 0.930 . S
H841 C838 0.929 . S
S842 N843 1.613 . S
S842 N844 1.610 . S
N843 S842 1.613 . S
N843 C846 1.350 . S
N844 S842 1.610 . S
N844 C845 1.351 . S
C845 C839 1.428 . S
C845 N844 1.351 . S
C845 C846 1.434 . S
C846 C837 1.429 . S
C846 N843 1.350 . S
C846 C845 1.434 . S
C847 C848 1.369 . S
C847 C849 1.419 . S
C847 H851 0.930 . S
C848 C847 1.369 . S
C848 C857 1.429 . S
C849 C847 1.419 . S
C849 C850 1.363 . S
C849 H852 0.929 . S
C850 C849 1.363 . S
C850 C856 1.428 . S
H851 C847 0.930 . S
H852 C849 0.929 . S
S853 N854 1.613 . S
S853 N855 1.610 . S
N854 S853 1.613 . S
N854 C857 1.350 . S
N855 S853 1.610 . S
N855 C856 1.351 . S
C856 C850 1.428 . S
C856 N855 1.351 . S
C856 C857 1.434 . S
C857 C848 1.429 . S
C857 N854 1.350 . S
C857 C856 1.434 . S
C858 C859 1.369 . S
C858 C860 1.419 1_556 S
C858 H862 0.930 . S
C859 C858 1.369 . S
C859 C868 1.429 . S
C860 C858 1.419 1_554 S
C860 C861 1.363 . S
C860 H863 0.929 . S
C861 C860 1.363 . S
C861 C867 1.428 . S
H862 C858 0.930 . S
H863 C860 0.929 . S
S864 N865 1.613 1_554 S
S864 N866 1.610 . S
N865 S864 1.613 1_556 S
N865 C868 1.350 . S
N866 S864 1.610 . S
N866 C867 1.351 . S
C867 C861 1.428 . S
C867 N866 1.351 . S
C867 C868 1.434 1_554 S
C868 C859 1.429 . S
C868 N865 1.350 . S
C868 C867 1.434 1_556 S
C869 C870 1.369 . S
C869 C871 1.419 . S
C869 H873 0.930 . S
C870 C869 1.369 . S
C870 C879 1.429 . S
C871 C869 1.419 . S
C871 C872 1.363 . S
C871 H874 0.929 . S
C872 C871 1.363 . S
C872 C878 1.428 . S
H873 C869 0.930 . S
H874 C871 0.929 . S
S875 N876 1.613 . S
S875 N877 1.610 . S
N876 S875 1.613 . S
N876 C879 1.350 . S
N877 S875 1.610 . S
N877 C878 1.351 . S
C878 C872 1.428 . S
C878 N877 1.351 . S
C878 C879 1.434 . S
C879 C870 1.429 . S
C879 N876 1.350 . S
C879 C878 1.434 . S
C353 C272 1.544 . S
C355 C8 1.603 . S
C364 C19 1.602 . S
C366 C107 1.564 . S
C375 C294 1.552 . S
C377 C30 1.602 . S
C386 C41 1.607 . S
C388 C129 1.545 . S
C397 C52 1.603 . S
C399 C316 1.546 . S
C408 C63 1.603 . S
C410 C151 1.561 . S
C419 C74 1.601 . S
C421 C338 1.551 . S
C430 C173 1.562 . S
C432 C85 1.602 . S
C441 C184 1.601 . S
C443 C96 1.551 . S
C452 C118 1.545 . S
C454 C206 1.602 . S
C463 C228 1.602 . S
C465 C140 1.548 . S
C474 C250 1.601 . S
C476 C162 1.551 . S
C485 C283 1.545 . S
C487 C195 1.603 . S
C496 C217 1.602 . S
C498 C305 1.550 . S
C507 C327 1.546 . S
C509 C239 1.603 . S
C518 C349 1.544 . S
C520 C261 1.603 . S
C529 C236 1.393 . S
C531 C5 1.394 . S
C540 C247 1.391 . S
C542 C16 1.390 . S
C551 C27 1.397 . S
C553 C258 1.395 . S
C562 C38 1.399 . S
C564 C225 1.397 . S
C573 C214 1.385 . S
C575 C49 1.387 . S
C584 C60 1.388 . S
C586 C181 1.388 . S
C595 C71 1.398 . S
C597 C192 1.397 . S
C606 C82 1.395 . S
C608 C203 1.395 . S
C617 C93 1.297 . S
C619 C324 1.294 . S
C628 C104 1.297 . S
C630 C335 1.294 . S
C639 C346 1.282 . S
C641 C115 1.285 . S
C650 C126 1.293 . S
C652 C313 1.283 . S
C661 C302 1.280 . S
C663 C137 1.289 . S
C672 C148 1.280 . S
C674 C269 1.289 . S
C683 C280 1.284 . S
C685 C159 1.284 . S
C694 C291 1.281 . S
C696 C170 1.293 . S
C705 C73 1.579 . S
C707 C7 1.578 . S
C716 C84 1.578 . S
C718 C18 1.581 . S
C727 C51 1.581 . S
C729 C29 1.581 . S
C738 C62 1.582 . S
C740 C40 1.578 . S
C749 C95 1.510 . S
C751 C161 1.509 . S
C760 C172 1.511 . S
C762 C106 1.509 . S
C771 C117 1.518 . S
C773 C139 1.516 . S
C782 C150 1.508 . S
C784 C128 1.510 . S
C793 C183 1.578 . S
C795 C249 1.579 . S
C804 C194 1.578 . S
C806 C260 1.581 . S
C815 C205 1.582 . S
C817 C227 1.579 . S
C826 C216 1.580 . S
C828 C238 1.578 . S
C837 C337 1.514 . S
C839 C271 1.517 . S
C848 C348 1.515 . S
C850 C282 1.517 . S
C859 C293 1.516 . S
C861 C315 1.517 . S
C870 C326 1.511 . S
C872 C304 1.515 . S
