# Generated by pormake.
# Topology acs-a, (4)-cn, num edge types: 1
# Building blocks:
#     Node 0, Type 0, BuildingBlock: ICAMEG_clean_sbu_1, # of connection points: 4
#     Node 1, Type 0, BuildingBlock: ICAMEG_clean_sbu_1, # of connection points: 4
#     Node 2, Type 0, BuildingBlock: ICAMEG_clean_sbu_1, # of connection points: 4
#     Node 3, Type 0, BuildingBlock: ICAMEG_clean_sbu_1, # of connection points: 4
#     Node 4, Type 0, BuildingBlock: ICAMEG_clean_sbu_1, # of connection points: 4
#     Node 5, Type 0, BuildingBlock: ICAMEG_clean_sbu_1, # of connection points: 4
#     Node 6, Type 0, BuildingBlock: ICAMEG_clean_sbu_1, # of connection points: 4
#     Node 7, Type 0, BuildingBlock: ICAMEG_clean_sbu_1, # of connection points: 4
#     Node 8, Type 0, BuildingBlock: ICAMEG_clean_sbu_1, # of connection points: 4
#     Node 9, Type 0, BuildingBlock: ICAMEG_clean_sbu_1, # of connection points: 4
#     Node 10, Type 0, BuildingBlock: ICAMEG_clean_sbu_1, # of connection points: 4
#     Node 11, Type 0, BuildingBlock: ICAMEG_clean_sbu_1, # of connection points: 4
#     Edge 12, Type (0, 0), BuildingBlock: OJICUG_clean_linker_0, # of connection points: 2
#     Edge 13, Type (0, 0), BuildingBlock: OJICUG_clean_linker_0, # of connection points: 2
#     Edge 14, Type (0, 0), BuildingBlock: OJICUG_clean_linker_0, # of connection points: 2
#     Edge 15, Type (0, 0), BuildingBlock: OJICUG_clean_linker_0, # of connection points: 2
#     Edge 16, Type (0, 0), BuildingBlock: OJICUG_clean_linker_0, # of connection points: 2
#     Edge 17, Type (0, 0), BuildingBlock: OJICUG_clean_linker_0, # of connection points: 2
#     Edge 18, Type (0, 0), BuildingBlock: OJICUG_clean_linker_0, # of connection points: 2
#     Edge 19, Type (0, 0), BuildingBlock: OJICUG_clean_linker_0, # of connection points: 2
#     Edge 20, Type (0, 0), BuildingBlock: OJICUG_clean_linker_0, # of connection points: 2
#     Edge 21, Type (0, 0), BuildingBlock: OJICUG_clean_linker_0, # of connection points: 2
#     Edge 22, Type (0, 0), BuildingBlock: OJICUG_clean_linker_0, # of connection points: 2
#     Edge 23, Type (0, 0), BuildingBlock: OJICUG_clean_linker_0, # of connection points: 2
#     Edge 24, Type (0, 0), BuildingBlock: OJICUG_clean_linker_0, # of connection points: 2
#     Edge 25, Type (0, 0), BuildingBlock: OJICUG_clean_linker_0, # of connection points: 2
#     Edge 26, Type (0, 0), BuildingBlock: OJICUG_clean_linker_0, # of connection points: 2
#     Edge 27, Type (0, 0), BuildingBlock: OJICUG_clean_linker_0, # of connection points: 2
#     Edge 28, Type (0, 0), BuildingBlock: OJICUG_clean_linker_0, # of connection points: 2
#     Edge 29, Type (0, 0), BuildingBlock: OJICUG_clean_linker_0, # of connection points: 2
#     Edge 30, Type (0, 0), BuildingBlock: OJICUG_clean_linker_0, # of connection points: 2
#     Edge 31, Type (0, 0), BuildingBlock: OJICUG_clean_linker_0, # of connection points: 2
#     Edge 32, Type (0, 0), BuildingBlock: OJICUG_clean_linker_0, # of connection points: 2
#     Edge 33, Type (0, 0), BuildingBlock: OJICUG_clean_linker_0, # of connection points: 2
#     Edge 34, Type (0, 0), BuildingBlock: OJICUG_clean_linker_0, # of connection points: 2
#     Edge 35, Type (0, 0), BuildingBlock: OJICUG_clean_linker_0, # of connection points: 2
# Relax obj value: 0.489
# Max RMSD: 0.324
# Mean RMSD: 0.250
data_MOF--net-acs-a--node1-ICAMEG_clean_sbu_1--edge1-OJICUG_clean_linker_0
_symmetry_space_group_name_H-M    P1
_symmetry_Int_Tables_number       1
_symmetry_cell_setting            triclinic
loop_
_symmetry_equiv_pos_as_xyz
'x, y, z'
_cell_length_a     39.911658
_cell_length_b     32.966253
_cell_length_c     33.097686
_cell_angle_alpha  90.234673
_cell_angle_beta   89.898515
_cell_angle_gamma 114.47912
loop_
_atom_site_label
_atom_site_type_symbol
_atom_site_fract_x
_atom_site_fract_y
_atom_site_fract_z
_atom_type_partial_charge
Co0 Co 0.61217 0.17772 0.13697 0.0
Co1 Co 0.59786 0.17311 0.03452 0.0
O2 O 0.58798 0.14494 0.0881 0.0
C3 C 0.59526 0.08113 0.15859 0.0
O4 O 0.57425 0.06326 0.12718 0.0
C5 C 0.51532 0.12493 0.03833 0.0
O6 O 0.51597 0.14102 0.07472 0.0
O7 O 0.58534 0.22252 0.0549 0.0
O8 O 0.6119 0.23374 0.1159 0.0
H9 H 0.65186 0.30143 0.93814 0.0
H10 H 0.5363 0.10048 0.13542 0.0
O11 O 0.61378 0.12311 0.16168 0.0
H12 H 0.52269 0.21582 0.21953 0.0
H13 H 0.6322 0.20018 0.28687 0.0
H14 H 0.67229 0.26713 0.15254 0.0
H15 H 0.58196 0.22961 0.18791 0.0
H16 H 0.60544 0.15726 0.22525 0.0
O17 O 0.54502 0.13638 0.01808 0.0
H18 H 0.64004 0.26514 0.00484 0.0
H19 H 0.57487 0.14023 0.9504 0.0
H20 H 0.69947 0.31143 0.21351 0.0
H21 H 0.47708 0.08485 0.16733 0.0
H22 H 0.67805 0.27835 0.2814 0.0
H23 H 0.46963 0.14268 0.20997 0.0
O24 O 0.66161 0.19302 0.11159 0.0
H25 H 0.57778 0.01322 0.01654 0.0
H26 H 0.65996 0.16947 0.98632 0.0
H27 H 0.676 0.10914 0.96148 0.0
H28 H 0.63461 0.03031 0.97633 0.0
H29 H 0.56303 0.07459 0.04116 0.0
H30 H 0.58579 0.17525 0.88312 0.0
H31 H 0.62464 0.25639 0.87666 0.0
O32 O 0.65138 0.20954 0.0484 0.0
C33 C 0.59746 0.24593 0.0869 0.0
C34 C 0.63495 0.26603 0.94054 0.0
C35 C 0.59782 0.19522 0.90968 0.0
N36 N 0.6069 0.20059 0.98154 0.0
C37 C 0.62821 0.24527 0.97824 0.0
C38 C 0.59164 0.1756 0.94788 0.0
C39 C 0.61964 0.24074 0.90607 0.0
C40 C 0.53443 0.12522 0.15519 0.0
N41 N 0.56401 0.16489 0.16154 0.0
C42 C 0.50022 0.11647 0.17263 0.0
C43 C 0.49598 0.14897 0.19632 0.0
C44 C 0.52571 0.18994 0.20169 0.0
C45 C 0.55942 0.19746 0.18368 0.0
C46 C 0.64114 0.21513 0.25752 0.0
C47 C 0.66345 0.25231 0.18191 0.0
C48 C 0.62648 0.19078 0.22244 0.0
N49 N 0.63686 0.20988 0.18522 0.0
C50 C 0.67884 0.27762 0.21638 0.0
C51 C 0.66699 0.25906 0.25437 0.0
C52 C 0.67325 0.21094 0.07712 0.0
C53 C 0.596 0.04742 0.0098 0.0
C54 C 0.64199 0.1353 0.99323 0.0
C55 C 0.65114 0.10126 0.97895 0.0
C56 C 0.62791 0.05704 0.98728 0.0
N57 N 0.61052 0.12559 0.01507 0.0
C58 C 0.58775 0.08233 0.02359 0.0
Co59 Co 0.33202 0.48483 0.62125 0.0
Co60 Co 0.37539 0.49624 0.52855 0.0
O61 O 0.36195 0.46912 0.58249 0.0
C62 C 0.39275 0.49785 0.68073 0.0
O63 O 0.41704 0.52953 0.65875 0.0
C64 C 0.36816 0.4017 0.51908 0.0
O65 O 0.35443 0.391 0.5555 0.0
O66 O 0.3223 0.48427 0.51575 0.0
O67 O 0.30237 0.49304 0.57724 0.0
H68 H 0.37653 0.5989 0.41596 0.0
H69 H 0.34198 0.40164 0.6347 0.0
O70 O 0.36003 0.47639 0.66805 0.0
H71 H 0.20819 0.35366 0.61851 0.0
H72 H 0.25339 0.45996 0.74574 0.0
H73 H 0.30004 0.55216 0.62393 0.0
H74 H 0.25045 0.43331 0.61598 0.0
H75 H 0.29651 0.44701 0.69984 0.0
O76 O 0.37056 0.43797 0.50304 0.0
H77 H 0.36 0.56403 0.48302 0.0
H78 H 0.42129 0.48751 0.46013 0.0
H79 H 0.25371 0.56268 0.66698 0.0
H80 H 0.30073 0.32165 0.63835 0.0
H81 H 0.23095 0.51769 0.72878 0.0
H82 H 0.2333 0.29716 0.62995 0.0
O83 O 0.36643 0.54986 0.6169 0.0
H84 H 0.48096 0.47007 0.58963 0.0
H85 H 0.44585 0.57572 0.51536 0.0
H86 H 0.51092 0.59661 0.532 0.0
H87 H 0.52895 0.54362 0.56938 0.0
H88 H 0.41639 0.4509 0.57335 0.0
H89 H 0.43817 0.52111 0.39269 0.0
H90 H 0.41589 0.5774 0.37019 0.0
O91 O 0.38236 0.55479 0.55122 0.0
C92 C 0.2989 0.49001 0.53917 0.0
C93 C 0.38624 0.57422 0.4253 0.0
C94 C 0.42079 0.53054 0.41223 0.0
N95 N 0.38905 0.52323 0.47541 0.0
C96 C 0.37683 0.55426 0.46323 0.0
C97 C 0.41083 0.51132 0.45039 0.0
C98 C 0.40833 0.56217 0.39965 0.0
C99 C 0.31268 0.39125 0.63105 0.0
N100 N 0.29871 0.42208 0.62422 0.0
C101 C 0.28945 0.3459 0.63312 0.0
C102 C 0.25164 0.33218 0.62837 0.0
C103 C 0.23754 0.36384 0.62182 0.0
C104 C 0.26163 0.40887 0.61989 0.0
C105 C 0.26364 0.48052 0.71921 0.0
C106 C 0.29018 0.5321 0.65077 0.0
C107 C 0.2888 0.47402 0.69354 0.0
N108 N 0.30161 0.49942 0.65963 0.0
C109 C 0.26425 0.53865 0.6752 0.0
C110 C 0.25107 0.51287 0.7097 0.0
C111 C 0.38169 0.57249 0.58525 0.0
C112 C 0.47353 0.4932 0.57278 0.0
C113 C 0.45332 0.55196 0.53096 0.0
C114 C 0.49032 0.56419 0.54054 0.0
C115 C 0.50043 0.53448 0.5615 0.0
N116 N 0.42699 0.51093 0.54127 0.0
C117 C 0.43679 0.48217 0.56277 0.0
Co118 Co 0.8765 0.41595 0.00902 0.0
Co119 Co 0.87864 0.4148 0.11288 0.0
O120 O 0.90253 0.42708 0.06052 0.0
C121 C 0.93492 0.38143 0.00429 0.0
O122 O 0.92478 0.36355 0.04003 0.0
C123 C 0.93967 0.4915 0.16375 0.0
O124 O 0.9698 0.52782 0.1581 0.0
O125 O 0.85181 0.45263 0.09789 0.0
O126 O 0.84021 0.43821 0.0314 0.0
H127 H 0.76679 0.36884 0.19982 0.0
H128 H 0.95709 0.47309 0.01503 0.0
O129 O 0.91451 0.39634 0.98535 0.0
H130 H 0.90363 0.5673 0.95074 0.0
H131 H 0.86925 0.41455 0.85705 0.0
H132 H 0.79817 0.38016 0.98396 0.0
H133 H 0.86397 0.49018 0.97063 0.0
H134 H 0.90098 0.4288 0.92287 0.0
O135 O 0.92173 0.47074 0.13244 0.0
H136 H 0.80475 0.40169 0.14062 0.0
H137 H 0.89614 0.39029 0.19677 0.0
H138 H 0.76534 0.36571 0.91882 0.0
H139 H 0.99765 0.54971 0.99536 0.0
H140 H 0.80094 0.38291 0.85473 0.0
H141 H 0.97107 0.59747 0.9628 0.0
O142 O 0.84205 0.35317 0.02544 0.0
H143 H 0.99256 0.38647 0.13076 0.0
H144 H 0.85705 0.3187 0.13579 0.0
H145 H 0.89062 0.27266 0.15008 0.0
H146 H 0.95894 0.30657 0.1484 0.0
H147 H 0.95806 0.43088 0.11426 0.0
H148 H 0.85945 0.35953 0.25735 0.0
H149 H 0.79403 0.34764 0.25923 0.0
O150 O 0.83606 0.36163 0.09197 0.0
C151 C 0.8358 0.45506 0.06484 0.0
C152 C 0.79565 0.37522 0.20007 0.0
C153 C 0.84747 0.36953 0.23208 0.0
N154 N 0.8538 0.40088 0.16534 0.0
C155 C 0.81769 0.39463 0.1666 0.0
C156 C 0.8684 0.38783 0.1976 0.0
C157 C 0.81078 0.36292 0.23313 0.0
C158 C 0.9452 0.49331 0.00054 0.0
N159 N 0.90817 0.47671 0.9934 0.0
C160 C 0.96837 0.53686 0.98961 0.0
C161 C 0.95342 0.56366 0.97145 0.0
C162 C 0.9156 0.54675 0.96468 0.0
C163 C 0.89326 0.50303 0.97605 0.0
C164 C 0.85343 0.40681 0.88476 0.0
C165 C 0.81386 0.38774 0.95623 0.0
C166 C 0.87124 0.41459 0.92214 0.0
N167 N 0.85144 0.40511 0.95727 0.0
C168 C 0.79511 0.37948 0.91942 0.0
C169 C 0.8151 0.38911 0.88348 0.0
C170 C 0.82521 0.33972 0.0592 0.0
C171 C 0.96278 0.37141 0.132 0.0
C172 C 0.88667 0.33378 0.13384 0.0
C173 C 0.9056 0.30749 0.14252 0.0
C174 C 0.94392 0.32655 0.1417 0.0
N175 N 0.9053 0.37808 0.12488 0.0
C176 C 0.94296 0.39667 0.12329 0.0
Co177 Co 0.41797 0.83375 0.62983 0.0
Co178 Co 0.43683 0.83799 0.52821 0.0
O179 O 0.44426 0.86575 0.58198 0.0
C180 C 0.43432 0.93071 0.65031 0.0
O181 O 0.45669 0.94845 0.61992 0.0
C182 C 0.51873 0.88114 0.53807 0.0
O183 O 0.51483 0.86323 0.57402 0.0
O184 O 0.44607 0.78654 0.54935 0.0
O185 O 0.41878 0.7777 0.60967 0.0
H186 H 0.38545 0.71171 0.42856 0.0
H187 H 0.49383 0.9112 0.63158 0.0
O188 O 0.41549 0.88877 0.65289 0.0
H189 H 0.50447 0.79554 0.71674 0.0
H190 H 0.39842 0.81399 0.77956 0.0
H191 H 0.36235 0.74122 0.64648 0.0
H192 H 0.44672 0.78133 0.68156 0.0
H193 H 0.41857 0.85762 0.71746 0.0
O194 O 0.4907 0.87278 0.51565 0.0
H195 H 0.39425 0.74695 0.49586 0.0
H196 H 0.46517 0.87164 0.44588 0.0
H197 H 0.34898 0.6956 0.70781 0.0
H198 H 0.5515 0.92722 0.66701 0.0
H199 H 0.36474 0.73164 0.77502 0.0
H200 H 0.55743 0.86924 0.71028 0.0
O201 O 0.36938 0.81841 0.60168 0.0
H202 H 0.4585 0.99882 0.51729 0.0
H203 H 0.37901 0.8451 0.47528 0.0
H204 H 0.36428 0.90701 0.45258 0.0
H205 H 0.40408 0.98453 0.47381 0.0
H206 H 0.47291 0.93617 0.53817 0.0
H207 H 0.45731 0.83769 0.37804 0.0
H208 H 0.41712 0.7572 0.36903 0.0
O209 O 0.38269 0.80378 0.53868 0.0
C210 C 0.43228 0.7636 0.58107 0.0
C211 C 0.40298 0.74684 0.43207 0.0
C212 C 0.44335 0.81753 0.40373 0.0
N213 N 0.43009 0.81131 0.4748 0.0
C214 C 0.40801 0.767 0.4701 0.0
C215 C 0.44778 0.83654 0.44224 0.0
C216 C 0.42078 0.77237 0.39869 0.0
C217 C 0.49486 0.88652 0.65178 0.0
N218 N 0.46517 0.84666 0.6567 0.0
C219 C 0.52828 0.89543 0.67115 0.0
C220 C 0.53168 0.86284 0.69518 0.0
C221 C 0.502 0.82157 0.69884 0.0
C222 C 0.46909 0.81389 0.67893 0.0
C223 C 0.39034 0.79779 0.75045 0.0
C224 C 0.37037 0.75751 0.67549 0.0
C225 C 0.40082 0.82261 0.71493 0.0
N226 N 0.39202 0.80215 0.67789 0.0
C227 C 0.36163 0.7314 0.71026 0.0
C228 C 0.37144 0.75168 0.74794 0.0
C229 C 0.35956 0.80269 0.56591 0.0
C230 C 0.4411 0.96524 0.50759 0.0
C231 C 0.3967 0.8788 0.48424 0.0
C232 C 0.38817 0.9137 0.47138 0.0
C233 C 0.41049 0.95718 0.48331 0.0
N234 N 0.42688 0.88703 0.50792 0.0
C235 C 0.44913 0.92963 0.51932 0.0
Co236 Co 0.66695 0.51725 0.14175 0.0
Co237 Co 0.64916 0.5116 0.04036 0.0
O238 O 0.64855 0.53619 0.09438 0.0
C239 C 0.59667 0.50402 0.18616 0.0
O240 O 0.57743 0.46721 0.16614 0.0
C241 C 0.65086 0.60301 0.02972 0.0
O242 O 0.66147 0.61446 0.06709 0.0
O243 O 0.70437 0.52993 0.04469 0.0
O244 O 0.70534 0.50877 0.10895 0.0
H245 H 0.68454 0.42294 0.93815 0.0
H246 H 0.65887 0.60265 0.14605 0.0
O247 O 0.63016 0.52724 0.17706 0.0
H248 H 0.79018 0.64245 0.17305 0.0
H249 H 0.70294 0.52217 0.28817 0.0
H250 H 0.68998 0.44421 0.15775 0.0
H251 H 0.74724 0.56435 0.16107 0.0
H252 H 0.68248 0.54851 0.22747 0.0
O253 O 0.65436 0.56951 0.0139 0.0
H254 H 0.68224 0.45335 0.00567 0.0
H255 H 0.61808 0.51828 0.95962 0.0
H256 H 0.71097 0.41712 0.21726 0.0
H257 H 0.70066 0.6812 0.15851 0.0
H258 H 0.71748 0.45623 0.28351 0.0
H259 H 0.76692 0.70162 0.17193 0.0
O260 O 0.6326 0.45366 0.13016 0.0
H261 H 0.52695 0.51269 0.07812 0.0
H262 H 0.58809 0.43007 0.00788 0.0
H263 H 0.52099 0.39593 0.01519 0.0
H264 H 0.49011 0.43607 0.05244 0.0
H265 H 0.59401 0.54536 0.07103 0.0
H266 H 0.62015 0.48908 0.89148 0.0
H267 H 0.65339 0.4408 0.8804 0.0
O268 O 0.64154 0.4528 0.06333 0.0
C269 C 0.71989 0.5185 0.074 0.0
C270 C 0.67007 0.44405 0.94255 0.0
C271 C 0.63401 0.48125 0.91635 0.0
N272 N 0.6504 0.48803 0.98665 0.0
C273 C 0.6687 0.46144 0.98075 0.0
C274 C 0.63322 0.49805 0.95498 0.0
C275 C 0.6526 0.4541 0.91017 0.0
C276 C 0.68767 0.61121 0.15175 0.0
N277 N 0.70072 0.57888 0.15189 0.0
C278 C 0.7112 0.65579 0.15883 0.0
C279 C 0.74836 0.66722 0.16634 0.0
C280 C 0.76144 0.63407 0.16686 0.0
C281 C 0.73708 0.58986 0.15961 0.0
C282 C 0.70028 0.50495 0.25963 0.0
C283 C 0.69301 0.4616 0.18618 0.0
C284 C 0.68838 0.51948 0.22521 0.0
N285 N 0.68475 0.49776 0.18911 0.0
C286 C 0.70516 0.44626 0.21988 0.0
C287 C 0.70866 0.46803 0.25689 0.0
C288 C 0.62977 0.43285 0.09666 0.0
C289 C 0.5402 0.49467 0.06207 0.0
C290 C 0.57503 0.44894 0.02254 0.0
C291 C 0.53684 0.42917 0.0268 0.0
C292 C 0.51946 0.45194 0.04733 0.0
N293 N 0.59562 0.49039 0.03814 0.0
C294 C 0.57842 0.51335 0.05737 0.0
Co295 Co 0.14644 0.60666 0.51112 0.0
Co296 Co 0.17466 0.61371 0.60986 0.0
O297 O 0.13543 0.60071 0.5698 0.0
C298 C 0.0797 0.62835 0.52383 0.0
O299 O 0.08673 0.63489 0.56249 0.0
C300 C 0.10932 0.54483 0.65778 0.0
O301 O 0.08215 0.5445 0.63531 0.0
O302 O 0.18935 0.56926 0.58279 0.0
O303 O 0.1884 0.58794 0.51791 0.0
H304 H 0.30592 0.66146 0.65401 0.0
H305 H 0.07204 0.54716 0.54346 0.0
O306 O 0.10314 0.62313 0.50032 0.0
H307 H 0.10816 0.45148 0.45512 0.0
H308 H 0.11301 0.59143 0.36323 0.0
H309 H 0.21464 0.64237 0.46178 0.0
H310 H 0.14994 0.53043 0.46528 0.0
H311 H 0.10016 0.58301 0.43625 0.0
O312 O 0.14277 0.56552 0.64709 0.0
H313 H 0.25529 0.63789 0.60461 0.0
H314 H 0.17812 0.61694 0.6997 0.0
H315 H 0.22882 0.65118 0.389 0.0
H316 H 0.02921 0.46888 0.53333 0.0
H317 H 0.17774 0.62562 0.3391 0.0
H318 H 0.04707 0.4203 0.48884 0.0
O319 O 0.18278 0.67116 0.51891 0.0
H320 H 0.08715 0.67594 0.666 0.0
H321 H 0.21695 0.70447 0.64385 0.0
H322 H 0.20202 0.76112 0.67794 0.0
H323 H 0.13665 0.74702 0.68971 0.0
H324 H 0.10339 0.62098 0.63136 0.0
H325 H 0.22747 0.63811 0.74991 0.0
H326 H 0.2916 0.66185 0.72763 0.0
O327 O 0.2094 0.66228 0.57584 0.0
C328 C 0.19745 0.56762 0.54565 0.0
C329 C 0.27792 0.6516 0.66428 0.0
C330 C 0.23381 0.63788 0.71812 0.0
N331 N 0.21371 0.62595 0.64911 0.0
C332 C 0.24912 0.6381 0.6364 0.0
C333 C 0.20588 0.62523 0.68946 0.0
C334 C 0.27 0.65149 0.70538 0.0
C335 C 0.07992 0.52681 0.52341 0.0
N336 N 0.11313 0.54412 0.50396 0.0
C337 C 0.05559 0.4822 0.5181 0.0
C338 C 0.06565 0.45493 0.49321 0.0
C339 C 0.0999 0.47242 0.47427 0.0
C340 C 0.12345 0.51723 0.48016 0.0
C341 C 0.13551 0.60292 0.38467 0.0
C342 C 0.19233 0.63143 0.44034 0.0
C343 C 0.12842 0.59853 0.42613 0.0
N344 N 0.15669 0.61275 0.45344 0.0
C345 C 0.20049 0.63639 0.39912 0.0
C346 C 0.17183 0.62204 0.37115 0.0
C347 C 0.20898 0.68485 0.54504 0.0
C348 C 0.11577 0.68233 0.66152 0.0
C349 C 0.18837 0.69775 0.64859 0.0
C350 C 0.18012 0.73014 0.66808 0.0
C351 C 0.14351 0.72223 0.67469 0.0
N352 N 0.16107 0.65812 0.63627 0.0
C353 C 0.12516 0.65074 0.64217 0.0
Co354 Co 0.82949 0.44202 0.38173 0.0
Co355 Co 0.86325 0.46065 0.47753 0.0
O356 O 0.87115 0.46971 0.4188 0.0
C357 C 0.89621 0.45102 0.33025 0.0
O358 O 0.91971 0.46274 0.36034 0.0
C359 C 0.92828 0.55104 0.46649 0.0
O360 O 0.9215 0.55058 0.42774 0.0
O361 O 0.8249 0.48615 0.47524 0.0
O362 O 0.79406 0.44455 0.42277 0.0
H363 H 0.7857 0.41174 0.60292 0.0
H364 H 0.89395 0.52552 0.35807 0.0
O365 O 0.86191 0.4388 0.33641 0.0
H366 H 0.78544 0.55838 0.33885 0.0
H367 H 0.76457 0.42072 0.24916 0.0
H368 H 0.75413 0.36852 0.38981 0.0
H369 H 0.77835 0.48503 0.36373 0.0
H370 H 0.81533 0.4548 0.29604 0.0
O371 O 0.90514 0.52151 0.48959 0.0
H372 H 0.79705 0.42224 0.52968 0.0
H373 H 0.91245 0.48148 0.54999 0.0
H374 H 0.70183 0.33231 0.34311 0.0
H375 H 0.90236 0.59917 0.33308 0.0
H376 H 0.70822 0.35789 0.27116 0.0
H377 H 0.84784 0.61615 0.32318 0.0
O378 O 0.823 0.38239 0.40294 0.0
H379 H 0.98249 0.44921 0.44333 0.0
H380 H 0.86495 0.38045 0.51705 0.0
H381 H 0.90933 0.34644 0.52071 0.0
H382 H 0.96887 0.38117 0.48413 0.0
H383 H 0.93713 0.48145 0.43968 0.0
H384 H 0.90238 0.47207 0.62345 0.0
H385 H 0.83863 0.4368 0.6504 0.0
O386 O 0.82301 0.39872 0.46884 0.0
C387 C 0.79618 0.46969 0.45267 0.0
C388 C 0.81361 0.4272 0.59156 0.0
C389 C 0.87908 0.46112 0.60309 0.0
N390 N 0.85529 0.4526 0.53546 0.0
C391 C 0.82018 0.43322 0.55009 0.0
C392 C 0.88459 0.4666 0.56142 0.0
C393 C 0.84331 0.44129 0.61818 0.0
C394 C 0.87008 0.53242 0.35412 0.0
N395 N 0.83574 0.50072 0.36268 0.0
C396 C 0.87502 0.57434 0.33985 0.0
C397 C 0.84444 0.58386 0.33431 0.0
C398 C 0.80947 0.55151 0.34314 0.0
C399 C 0.80566 0.51005 0.35749 0.0
C400 C 0.76201 0.4084 0.27969 0.0
C401 C 0.75654 0.3797 0.35886 0.0
C402 C 0.79101 0.42756 0.30644 0.0
N403 N 0.78823 0.41336 0.34547 0.0
C404 C 0.72682 0.35926 0.33261 0.0
C405 C 0.73008 0.37345 0.29256 0.0
C406 C 0.81555 0.37046 0.43989 0.0
C407 C 0.95683 0.43406 0.45982 0.0
C408 C 0.89074 0.39589 0.50097 0.0
C409 C 0.91579 0.37638 0.50317 0.0
C410 C 0.94915 0.39584 0.48262 0.0
N411 N 0.89874 0.43403 0.47925 0.0
C412 C 0.93106 0.45254 0.45821 0.0
Co413 Co 0.35957 0.85708 0.8632 0.0
Co414 Co 0.39851 0.88158 0.95854 0.0
O415 O 0.38804 0.89959 0.90511 0.0
C416 C 0.42411 0.92027 0.81334 0.0
O417 O 0.4492 0.91831 0.83791 0.0
C418 C 0.39566 0.97082 0.97124 0.0
O419 O 0.38388 0.97117 0.93436 0.0
O420 O 0.34432 0.84189 0.96733 0.0
O421 O 0.32699 0.81624 0.90429 0.0
H422 H 0.38787 0.7701 0.06656 0.0
H423 H 0.37101 0.95176 0.85706 0.0
O424 O 0.39012 0.89744 0.82004 0.0
H425 H 0.2364 0.8653 0.85707 0.0
H426 H 0.29465 0.81392 0.72902 0.0
H427 H 0.32517 0.75789 0.85536 0.0
H428 H 0.27813 0.82732 0.85993 0.0
H429 H 0.33282 0.86613 0.78088 0.0
O430 O 0.39438 0.93454 0.9862 0.0
H431 H 0.37792 0.79451 0.99912 0.0
H432 H 0.441 0.92966 0.03179 0.0
H433 H 0.28479 0.70457 0.80501 0.0
H434 H 0.33045 0.99124 0.85342 0.0
H435 H 0.26957 0.73263 0.74134 0.0
H436 H 0.26257 0.94796 0.85369 0.0
O437 O 0.39292 0.82521 0.86691 0.0
H438 H 0.5094 0.01458 0.90707 0.0
H439 H 0.46758 0.871 0.97797 0.0
H440 H 0.53376 0.9156 0.96825 0.0
H441 H 0.55527 0.98838 0.93306 0.0
H442 H 0.4437 0.96865 0.91635 0.0
H443 H 0.4519 0.90666 0.09937 0.0
H444 H 0.42538 0.8263 0.11714 0.0
O445 O 0.40503 0.83023 0.93362 0.0
C446 C 0.32147 0.81455 0.94217 0.0
C447 C 0.39969 0.80516 0.05912 0.0
C448 C 0.43544 0.88182 0.07762 0.0
N449 N 0.40836 0.86345 0.01151 0.0
C450 C 0.39396 0.8192 0.02102 0.0
C451 C 0.4289 0.89465 0.03933 0.0
C452 C 0.42063 0.83674 0.08754 0.0
C453 C 0.34152 0.9327 0.85749 0.0
N454 N 0.32693 0.88729 0.86011 0.0
C455 C 0.31868 0.95524 0.8553 0.0
C456 C 0.28061 0.93094 0.85544 0.0
C457 C 0.26591 0.88459 0.85746 0.0
C458 C 0.28964 0.86324 0.85964 0.0
C459 C 0.30116 0.80135 0.75669 0.0
C460 C 0.3184 0.7704 0.82786 0.0
C461 C 0.3232 0.83079 0.78606 0.0
N462 N 0.33136 0.81526 0.82131 0.0
C463 C 0.29567 0.73999 0.79942 0.0
C464 C 0.28709 0.75569 0.76364 0.0
C465 C 0.40548 0.81408 0.89863 0.0
C466 C 0.50043 0.98329 0.9231 0.0
C467 C 0.47638 0.90258 0.96276 0.0
C468 C 0.51408 0.92773 0.95728 0.0
C469 C 0.52614 0.96852 0.93754 0.0
N470 N 0.45113 0.91776 0.94968 0.0
C471 C 0.46294 0.95716 0.92906 0.0
Co472 Co 0.56792 0.3939 0.47227 0.0
Co473 Co 0.5876 0.40806 0.37062 0.0
O474 O 0.56149 0.415 0.41842 0.0
C475 C 0.48604 0.35915 0.46194 0.0
O476 O 0.4893 0.34581 0.42539 0.0
C477 C 0.57524 0.4914 0.34924 0.0
O478 O 0.55273 0.48849 0.37911 0.0
O479 O 0.63621 0.44006 0.39924 0.0
O480 O 0.6219 0.41235 0.46213 0.0
H481 H 0.6518 0.33182 0.29491 0.0
H482 H 0.53297 0.45721 0.46345 0.0
O483 O 0.51419 0.37632 0.48471 0.0
H484 H 0.64117 0.53421 0.55059 0.0
H485 H 0.54635 0.37356 0.6223 0.0
H486 H 0.60914 0.3442 0.50472 0.0
H487 H 0.62656 0.4583 0.5252 0.0
H488 H 0.53936 0.39989 0.55454 0.0
O489 O 0.59216 0.46612 0.34711 0.0
H490 H 0.64121 0.36806 0.35509 0.0
H491 H 0.58889 0.43119 0.28274 0.0
H492 H 0.61706 0.31749 0.57195 0.0
H493 H 0.54665 0.53309 0.48801 0.0
H494 H 0.58552 0.33215 0.63136 0.0
H495 H 0.601 0.57208 0.53208 0.0
O496 O 0.55762 0.33257 0.45092 0.0
H497 H 0.45565 0.37414 0.33211 0.0
H498 H 0.55671 0.32638 0.31878 0.0
H499 H 0.49856 0.28461 0.28344 0.0
H500 H 0.44746 0.30866 0.28935 0.0
H501 H 0.51373 0.41406 0.36766 0.0
H502 H 0.60719 0.40425 0.22131 0.0
H503 H 0.63701 0.3514 0.22689 0.0
O504 O 0.58486 0.35044 0.39068 0.0
C505 C 0.64541 0.43383 0.4351 0.0
C506 C 0.6406 0.35626 0.29166 0.0
C507 C 0.61458 0.39588 0.25054 0.0
N508 N 0.6133 0.40072 0.32298 0.0
C509 C 0.63347 0.37604 0.32592 0.0
C510 C 0.60528 0.41234 0.2857 0.0
C511 C 0.63132 0.3664 0.25368 0.0
C512 C 0.55661 0.47384 0.48271 0.0
N513 N 0.5788 0.4532 0.49305 0.0
C514 C 0.56426 0.51687 0.49648 0.0
C515 C 0.5948 0.53875 0.52112 0.0
C516 C 0.61734 0.51752 0.53151 0.0
C517 C 0.60895 0.47455 0.517 0.0
C518 C 0.56022 0.36695 0.59665 0.0
C519 C 0.59541 0.35081 0.5304 0.0
C520 C 0.55627 0.38164 0.55816 0.0
N521 N 0.57385 0.37361 0.52565 0.0
C522 C 0.59995 0.33555 0.56841 0.0
C523 C 0.58223 0.34375 0.60172 0.0
C524 C 0.5711 0.32293 0.41909 0.0
C525 C 0.47804 0.36403 0.32831 0.0
C526 C 0.53515 0.33789 0.32125 0.0
C527 C 0.50201 0.31371 0.30122 0.0
C528 C 0.47337 0.32717 0.30456 0.0
N529 N 0.54029 0.37527 0.34335 0.0
C530 C 0.51166 0.38744 0.3478 0.0
Co531 Co 0.198 0.56867 0.88185 0.0
Co532 Co 0.15467 0.55055 0.97272 0.0
O533 O 0.15249 0.54178 0.91359 0.0
C534 C 0.13676 0.56551 0.82568 0.0
O535 O 0.11433 0.56332 0.8554 0.0
C536 C 0.08868 0.46228 0.95577 0.0
O537 O 0.09804 0.46381 0.91764 0.0
O538 O 0.19038 0.52167 0.97617 0.0
O539 O 0.22799 0.56405 0.92816 0.0
H540 H 0.21998 0.59405 0.10623 0.0
H541 H 0.13552 0.48702 0.85174 0.0
O542 O 0.17013 0.57235 0.83249 0.0
H543 H 0.24362 0.45107 0.84756 0.0
H544 H 0.2815 0.5915 0.76147 0.0
H545 H 0.27226 0.63796 0.90105 0.0
H546 H 0.24938 0.52408 0.87251 0.0
H547 H 0.22203 0.56067 0.79716 0.0
O548 O 0.11023 0.49091 0.98087 0.0
H549 H 0.21564 0.58471 0.03222 0.0
H550 H 0.09898 0.53216 0.03871 0.0
H551 H 0.33175 0.67053 0.86593 0.0
H552 H 0.12843 0.41348 0.82682 0.0
H553 H 0.33689 0.64702 0.79562 0.0
H554 H 0.18279 0.3951 0.82432 0.0
O555 O 0.20335 0.62828 0.90173 0.0
H556 H 0.04273 0.57052 0.92327 0.0
H557 H 0.15357 0.63284 0.00889 0.0
H558 H 0.11225 0.67116 0.00533 0.0
H559 H 0.05611 0.63978 0.9626 0.0
H560 H 0.08496 0.53382 0.92707 0.0
H561 H 0.10205 0.54052 0.11279 0.0
H562 H 0.16289 0.57184 0.14706 0.0
O563 O 0.19767 0.61139 0.96764 0.0
C564 C 0.22134 0.53721 0.9576 0.0
C565 C 0.19331 0.58039 0.09165 0.0
C566 C 0.12713 0.55029 0.09534 0.0
N567 N 0.15716 0.55794 0.03107 0.0
C568 C 0.1907 0.57508 0.04972 0.0
C569 C 0.12558 0.54544 0.05336 0.0
C570 C 0.16127 0.5679 0.11455 0.0
C571 C 0.15923 0.47929 0.85117 0.0
N572 N 0.19277 0.51005 0.86367 0.0
C573 C 0.15508 0.43754 0.83688 0.0
C574 C 0.18558 0.42725 0.83547 0.0
C575 C 0.21968 0.4586 0.8485 0.0
C576 C 0.22273 0.49991 0.86275 0.0
C577 C 0.27952 0.60239 0.79187 0.0
C578 C 0.2739 0.62804 0.87025 0.0
C579 C 0.24587 0.58512 0.81225 0.0
N580 N 0.24352 0.59721 0.85135 0.0
C581 C 0.30786 0.64649 0.85056 0.0
C582 C 0.31067 0.63335 0.81114 0.0
C583 C 0.20856 0.63989 0.93894 0.0
C584 C 0.06692 0.5843 0.94231 0.0
C585 C 0.12926 0.61886 0.99013 0.0
C586 C 0.10594 0.64079 0.98827 0.0
C587 C 0.07448 0.62321 0.96429 0.0
N588 N 0.12142 0.58021 0.96898 0.0
C589 C 0.09089 0.56331 0.9449 0.0
Co590 Co 0.67058 0.14363 0.3725 0.0
Co591 Co 0.63747 0.12123 0.4701 0.0
O592 O 0.64577 0.10227 0.41603 0.0
C593 C 0.60405 0.08488 0.32276 0.0
O594 O 0.58097 0.09463 0.3448 0.0
C595 C 0.64379 0.03408 0.48109 0.0
O596 O 0.65673 0.03515 0.4445 0.0
O597 O 0.6917 0.1628 0.47589 0.0
O598 O 0.70467 0.18609 0.41167 0.0
H599 H 0.64771 0.23358 0.57814 0.0
H600 H 0.66091 0.0496 0.36579 0.0
O601 O 0.63806 0.10105 0.33152 0.0
H602 H 0.7948 0.13943 0.35697 0.0
H603 H 0.72891 0.18338 0.23492 0.0
H604 H 0.70673 0.24298 0.36422 0.0
H605 H 0.75202 0.17563 0.36364 0.0
H606 H 0.69056 0.13286 0.2872 0.0
O607 O 0.64398 0.06961 0.4968 0.0
H608 H 0.6576 0.2087 0.51065 0.0
H609 H 0.59794 0.07354 0.54445 0.0
H610 H 0.74948 0.29395 0.3145 0.0
H611 H 0.7025 0.01182 0.3583 0.0
H612 H 0.75986 0.2645 0.2489 0.0
H613 H 0.77003 0.05681 0.35414 0.0
O614 O 0.63587 0.17375 0.37916 0.0
H615 H 0.52687 0.98879 0.41745 0.0
H616 H 0.56862 0.13146 0.491 0.0
H617 H 0.50265 0.08885 0.47781 0.0
H618 H 0.48139 0.01735 0.44 0.0
H619 H 0.59236 0.03263 0.43026 0.0
H620 H 0.58773 0.09684 0.61244 0.0
H621 H 0.61256 0.17741 0.62967 0.0
O622 O 0.62881 0.17112 0.44661 0.0
C623 C 0.71247 0.18975 0.44907 0.0
C624 C 0.63697 0.19836 0.57111 0.0
C625 C 0.60335 0.12164 0.59037 0.0
N626 N 0.62908 0.13974 0.52369 0.0
C627 C 0.64265 0.18409 0.53295 0.0
C628 C 0.60956 0.10863 0.55187 0.0
C629 C 0.61723 0.16684 0.59999 0.0
C630 C 0.69027 0.06943 0.36426 0.0
N631 N 0.70412 0.11484 0.36661 0.0
C632 C 0.71368 0.04783 0.35991 0.0
C633 C 0.75156 0.07308 0.35759 0.0
C634 C 0.76547 0.11941 0.35931 0.0
C635 C 0.74119 0.13979 0.3637 0.0
C636 C 0.72429 0.19671 0.26329 0.0
C637 C 0.71167 0.22955 0.33613 0.0
C638 C 0.70178 0.16825 0.29282 0.0
N639 N 0.69597 0.18463 0.32898 0.0
C640 C 0.7357 0.25876 0.30797 0.0
C641 C 0.74176 0.2422 0.27122 0.0
C642 C 0.62457 0.18491 0.41201 0.0
C643 C 0.53578 0.01974 0.43425 0.0
C644 C 0.55975 0.09974 0.47573 0.0
C645 C 0.52222 0.07589 0.46803 0.0
C646 C 0.51027 0.03573 0.44696 0.0
N647 N 0.58486 0.08392 0.46333 0.0
C648 C 0.57309 0.04459 0.44234 0.0
Co649 Co 0.44667 0.60537 0.97945 0.0
Co650 Co 0.42032 0.56593 0.88386 0.0
O651 O 0.44941 0.57141 0.93232 0.0
C652 C 0.5273 0.6309 0.96548 0.0
O653 O 0.52196 0.63401 0.92677 0.0
C654 C 0.41772 0.47712 0.84938 0.0
O655 O 0.41786 0.43866 0.85924 0.0
O656 O 0.37498 0.54018 0.91845 0.0
O657 O 0.39244 0.58738 0.97112 0.0
H658 H 0.30015 0.52616 0.80785 0.0
H659 H 0.47432 0.53486 0.98376 0.0
O660 O 0.50076 0.62252 0.99029 0.0
H661 H 0.37337 0.49186 0.08315 0.0
H662 H 0.47824 0.66515 0.12122 0.0
H663 H 0.41043 0.66585 0.99704 0.0
H664 H 0.392 0.5618 0.0448 0.0
H665 H 0.47963 0.62008 0.06209 0.0
O666 O 0.41866 0.50395 0.8779 0.0
H667 H 0.33777 0.52737 0.86498 0.0
H668 H 0.43381 0.58423 0.79125 0.0
H669 H 0.40798 0.71094 0.05552 0.0
H670 H 0.45464 0.46328 0.01905 0.0
H671 H 0.4421 0.71093 0.11821 0.0
H672 H 0.40472 0.4418 0.07024 0.0
O673 O 0.45758 0.65855 0.94452 0.0
H674 H 0.5449 0.57612 0.84168 0.0
H675 H 0.4613 0.65151 0.83584 0.0
H676 H 0.52261 0.68731 0.80594 0.0
H677 H 0.56476 0.64925 0.8075 0.0
H678 H 0.48425 0.54237 0.87355 0.0
H679 H 0.39668 0.58682 0.73506 0.0
H680 H 0.32917 0.55791 0.74226 0.0
O681 O 0.4205 0.62658 0.89172 0.0
C682 C 0.36756 0.55704 0.95031 0.0
C683 C 0.3298 0.54024 0.80461 0.0
C684 C 0.38383 0.57453 0.76398 0.0
N685 N 0.38983 0.55916 0.83448 0.0
C686 C 0.35205 0.54137 0.83753 0.0
C687 C 0.40521 0.57422 0.79724 0.0
C688 C 0.34592 0.55778 0.76784 0.0
C689 C 0.45236 0.52576 0.00572 0.0
N690 N 0.43461 0.55274 0.01248 0.0
C691 C 0.44158 0.48529 0.02596 0.0
C692 C 0.41325 0.47308 0.05428 0.0
C693 C 0.39564 0.50112 0.06149 0.0
C694 C 0.40648 0.54083 0.03987 0.0
C695 C 0.46327 0.66549 0.09408 0.0
C696 C 0.42522 0.66545 0.02423 0.0
C697 C 0.46406 0.64016 0.06045 0.0
N698 N 0.44504 0.64024 0.02616 0.0
C699 C 0.42381 0.69117 0.05725 0.0
C700 C 0.44297 0.69114 0.09239 0.0
C701 C 0.43911 0.66065 0.91357 0.0
C702 C 0.5264 0.59249 0.83976 0.0
C703 C 0.47925 0.63455 0.8378 0.0
C704 C 0.51405 0.65504 0.82013 0.0
C705 C 0.53765 0.63367 0.82092 0.0
N706 N 0.46735 0.59285 0.85458 0.0
C707 C 0.49135 0.57293 0.85704 0.0
C708 C 0.62043 0.05653 0.25908 0.0
C709 C 0.59382 0.06423 0.28209 0.0
H710 H 0.64155 0.05528 0.19979 0.0
C711 C 0.5614 0.06065 0.26287 0.0
H712 H 0.6452 0.0573 0.27307 0.0
C713 C 0.55846 0.05657 0.2207 0.0
C714 C 0.58834 0.0576 0.19739 0.0
H715 H 0.54006 0.06557 0.27968 0.0
H716 H 0.53501 0.05881 0.20625 0.0
C717 C 0.6181 0.05428 0.217 0.0
C718 C 0.37129 0.46655 0.74935 0.0
C719 C 0.4007 0.49076 0.72327 0.0
H720 H 0.35378 0.44545 0.80981 0.0
C721 C 0.43657 0.50978 0.73916 0.0
H722 H 0.34342 0.45038 0.73839 0.0
C723 C 0.44251 0.50556 0.78045 0.0
C724 C 0.41251 0.48449 0.80662 0.0
H725 H 0.45991 0.52781 0.71983 0.0
H726 H 0.4704 0.51889 0.79175 0.0
C727 C 0.37709 0.46381 0.79049 0.0
C728 C 0.94832 0.46321 0.23123 0.0
C729 C 0.9281 0.47889 0.20564 0.0
H730 H 0.95343 0.44057 0.29103 0.0
C731 C 0.90015 0.48887 0.22199 0.0
H732 H 0.97116 0.45717 0.21935 0.0
C733 C 0.89107 0.48097 0.26272 0.0
C734 C 0.90907 0.46199 0.28797 0.0
H735 H 0.88568 0.50341 0.20339 0.0
H736 H 0.8705 0.49094 0.2746 0.0
C737 C 0.93848 0.45412 0.27211 0.0
C738 C 0.40581 0.94808 0.75112 0.0
C739 C 0.43368 0.94271 0.77356 0.0
H740 H 0.38474 0.9502 0.69218 0.0
C741 C 0.46732 0.95104 0.7545 0.0
H742 H 0.37995 0.94349 0.76517 0.0
C743 C 0.47061 0.95738 0.71253 0.0
C744 C 0.43998 0.95393 0.68935 0.0
H745 H 0.48954 0.94796 0.77101 0.0
H746 H 0.49522 0.9585 0.69784 0.0
C747 C 0.40875 0.95304 0.70928 0.0
C748 C 0.60318 0.54389 0.29346 0.0
C749 C 0.57174 0.51025 0.31011 0.0
H750 H 0.63449 0.57058 0.24014 0.0
C751 C 0.54364 0.48285 0.28395 0.0
H752 H 0.62533 0.56529 0.31289 0.0
C753 C 0.54989 0.48351 0.24223 0.0
C754 C 0.58381 0.51292 0.22609 0.0
H755 H 0.51897 0.45675 0.29603 0.0
H756 H 0.52969 0.45825 0.2234 0.0
C757 C 0.60871 0.54601 0.25167 0.0
C758 C 0.1286 0.51969 0.71986 0.0
C759 C 0.10463 0.53538 0.70146 0.0
H760 H 0.15803 0.51799 0.77294 0.0
C761 C 0.08675 0.55553 0.72576 0.0
H762 H 0.14313 0.50461 0.70182 0.0
C763 C 0.09545 0.56345 0.76707 0.0
C764 C 0.12256 0.552 0.78416 0.0
H765 H 0.06884 0.56895 0.71216 0.0
H766 H 0.08303 0.5813 0.78478 0.0
C767 C 0.13773 0.5283 0.76052 0.0
C768 C 0.45761 0.05494 0.04779 0.0
C769 C 0.48111 0.08895 0.02232 0.0
H770 H 0.41223 0.99042 0.05161 0.0
C771 C 0.47361 0.08582 0.98071 0.0
H772 H 0.46299 0.05621 0.07995 0.0
C773 C 0.44386 0.04904 0.96472 0.0
C774 C 0.42164 0.0136 0.98975 0.0
H775 H 0.49133 0.11139 0.96034 0.0
H776 H 0.43977 0.04712 0.93231 0.0
C777 C 0.42855 0.01729 0.03159 0.0
C778 C 0.41179 0.36573 0.52961 0.0
C779 C 0.3925 0.3814 0.5028 0.0
H780 H 0.45695 0.34725 0.53776 0.0
C781 C 0.40161 0.38446 0.46148 0.0
H782 H 0.40595 0.36359 0.5617 0.0
C783 C 0.43033 0.3739 0.44763 0.0
C784 C 0.45125 0.3614 0.475 0.0
H785 H 0.38756 0.39685 0.44015 0.0
H786 H 0.43773 0.37841 0.41593 0.0
C787 C 0.4412 0.3566 0.51598 0.0
C788 C 0.03943 0.424 0.00805 0.0
C789 C 0.04948 0.43522 0.96752 0.0
H790 H 0.99559 0.39683 0.0511 0.0
C791 C 0.02117 0.42456 0.93857 0.0
H792 H 0.0604 0.43199 0.03117 0.0
C793 C 0.98393 0.40541 0.95013 0.0
C794 C 0.97389 0.39514 0.9908 0.0
H795 H 0.02776 0.43322 0.90713 0.0
H796 H 0.963 0.39977 0.92735 0.0
C797 C 1.00216 0.40364 0.01942 0.0
C798 C 0.6075 0.98616 0.53876 0.0
C799 C 0.61711 0.99071 0.49756 0.0
H800 H 0.56927 0.94705 0.58412 0.0
C801 C 0.59644 0.95596 0.47088 0.0
H802 H 0.6227 0.0124 0.56002 0.0
C803 C 0.5652 0.91947 0.48439 0.0
C804 C 0.55473 0.91592 0.52519 0.0
H805 H 0.60271 0.95846 0.43889 0.0
H806 H 0.54853 0.89468 0.46266 0.0
C807 C 0.57692 0.94877 0.55254 0.0
C808 C 0.57279 0.63984 0.02095 0.0
C809 C 0.56257 0.63088 0.98016 0.0
H810 H 0.60932 0.63972 0.06813 0.0
C811 C 0.58461 0.61785 0.95456 0.0
H812 H 0.55648 0.64999 0.04148 0.0
C813 C 0.61472 0.61118 0.97002 0.0
C814 C 0.62399 0.61832 0.01125 0.0
H815 H 0.57743 0.61047 0.923 0.0
H816 H 0.62996 0.59895 0.94997 0.0
C817 C 0.60334 0.63422 0.03616 0.0
C818 C 0.99635 0.59455 0.45399 0.0
C819 C 0.96667 0.57782 0.48142 0.0
H820 H 0.05501 0.62339 0.44555 0.0
C821 C 0.97478 0.58236 0.52299 0.0
H822 H 0.99139 0.59142 0.42173 0.0
C823 C 1.01145 0.60145 0.53665 0.0
C824 C 0.04115 0.6158 0.50917 0.0
H825 H 0.9528 0.56981 0.54504 0.0
H826 H 0.01645 0.60277 0.56888 0.0
C827 C 0.03301 0.61285 0.46764 0.0
C828 C 0.59794 0.31524 0.05546 0.0
C829 C 0.59901 0.29155 0.09006 0.0
H830 H 0.60762 0.37837 0.03032 0.0
C831 C 0.60637 0.31387 0.12773 0.0
H832 H 0.59263 0.29933 0.02603 0.0
C833 C 0.61426 0.35922 0.13043 0.0
C834 C 0.61559 0.38356 0.0955 0.0
H835 H 0.60772 0.2969 0.15513 0.0
H836 H 0.62138 0.37566 0.15949 0.0
C837 C 0.60655 0.36078 0.05809 0.0
C838 C 0.27599 0.54164 0.50624 0.0
C839 C 0.2681 0.50003 0.5242 0.0
H840 H 0.25964 0.59577 0.4989 0.0
C841 C 0.23363 0.47803 0.54315 0.0
H842 H 0.3024 0.56016 0.49224 0.0
C843 C 0.21018 0.49948 0.54909 0.0
C844 C 0.21976 0.54271 0.53448 0.0
H845 H 0.22645 0.44585 0.55701 0.0
H846 H 0.1852 0.48293 0.56653 0.0
C847 C 0.25179 0.56255 0.5109 0.0
C848 C 0.77477 0.28106 0.09936 0.0
C849 C 0.78885 0.29991 0.06137 0.0
H850 H 0.72823 0.23841 0.13408 0.0
C851 C 0.7653 0.28517 0.02774 0.0
H852 H 0.79173 0.29144 0.12619 0.0
C853 C 0.72819 0.25499 0.03253 0.0
C854 C 0.71373 0.23809 0.07098 0.0
H855 H 0.77485 0.29881 0.99809 0.0
H856 H 0.7105 0.24613 0.0062 0.0
C857 C 0.73801 0.25052 0.10403 0.0
C858 C 0.42782 0.69237 0.54921 0.0
C859 C 0.42624 0.71612 0.58373 0.0
H860 H 0.41503 0.6289 0.52259 0.0
C861 C 0.41332 0.69248 0.62019 0.0
H862 H 0.43763 0.70928 0.52075 0.0
C863 C 0.39963 0.64598 0.62133 0.0
C864 C 0.39901 0.62201 0.58613 0.0
H865 H 0.41231 0.70968 0.64772 0.0
H866 H 0.38863 0.62888 0.64944 0.0
C867 C 0.41441 0.64597 0.55039 0.0
C868 C 0.76436 0.49842 0.03148 0.0
C869 C 0.75406 0.51056 0.0687 0.0
H870 H 0.79782 0.47085 0.00092 0.0
C871 C 0.77339 0.50776 0.10359 0.0
H872 H 0.75019 0.49975 0.00401 0.0
C873 C 0.80056 0.49149 0.10196 0.0
C874 C 0.80942 0.47681 0.06538 0.0
H875 H 0.76639 0.51609 0.13305 0.0
H876 H 0.81357 0.48882 0.12992 0.0
C877 C 0.79158 0.4815 0.02988 0.0
C878 C 0.25461 0.7573 0.57159 0.0
C879 C 0.24349 0.72583 0.53983 0.0
H880 H 0.29947 0.80519 0.60572 0.0
C881 C 0.27079 0.72465 0.51365 0.0
H882 H 0.23435 0.75926 0.5923 0.0
C883 C 0.30819 0.75142 0.52099 0.0
C884 C 0.31951 0.77952 0.55528 0.0
H885 H 0.26372 0.70013 0.48971 0.0
H886 H 0.32834 0.74769 0.50116 0.0
C887 C 0.29206 0.78338 0.57958 0.0
C888 C 0.73341 0.43604 0.48135 0.0
C889 C 0.76099 0.47271 0.46224 0.0
H890 H 0.67578 0.39525 0.4878 0.0
C891 C 0.74994 0.49992 0.43784 0.0
H892 H 0.74065 0.41328 0.499 0.0
C893 C 0.71251 0.48801 0.42917 0.0
C894 C 0.68513 0.4495 0.44613 0.0
H895 H 0.77043 0.52836 0.4226 0.0
H896 H 0.70511 0.5082 0.40835 0.0
C897 C 0.69605 0.42501 0.47392 0.0
C898 C 0.29118 0.74083 0.97722 0.0
C899 C 0.28794 0.77543 0.9552 0.0
H900 H 0.26813 0.67045 0.98956 0.0
C901 C 0.25509 0.76574 0.93362 0.0
H902 H 0.31619 0.74665 0.99354 0.0
C903 C 0.22848 0.72191 0.92966 0.0
C904 C 0.23325 0.68684 0.94875 0.0
H905 H 0.25131 0.79163 0.91699 0.0
H906 H 0.20489 0.71521 0.91033 0.0
C907 C 0.26383 0.69697 0.97439 0.0
C908 C 0.59269 0.22584 0.44877 0.0
C909 C 0.60608 0.21602 0.41202 0.0
H910 H 0.57006 0.26593 0.4798 0.0
C911 C 0.60241 0.2372 0.37681 0.0
H912 H 0.59455 0.21004 0.47673 0.0
C913 C 0.58791 0.26927 0.3788 0.0
C914 C 0.57699 0.28129 0.41606 0.0
H915 H 0.61189 0.23026 0.34802 0.0
H916 H 0.58686 0.28609 0.35119 0.0
C917 C 0.57823 0.25785 0.45072 0.0
C918 C 0.26273 0.49866 0.95177 0.0
C919 C 0.25367 0.53044 0.97181 0.0
H920 H 0.30586 0.4824 0.92817 0.0
C921 C 0.28204 0.5667 0.99058 0.0
H922 H 0.24149 0.47058 0.93669 0.0
C923 C 0.31886 0.57348 0.98595 0.0
C924 C 0.32831 0.5446 0.96165 0.0
H925 H 0.27613 0.59248 0.00519 0.0
H926 H 0.34001 0.60344 0.9987 0.0
C927 C 0.2997 0.50589 0.94628 0.0
C928 C 0.74148 0.26433 0.48359 0.0
C929 C 0.74525 0.23133 0.45939 0.0
H930 H 0.76083 0.33441 0.49635 0.0
C931 C 0.77608 0.24433 0.43358 0.0
H932 H 0.71812 0.256 0.5035 0.0
C933 C 0.79944 0.28932 0.4279 0.0
C934 C 0.79366 0.32256 0.44936 0.0
H935 H 0.78046 0.21986 0.4152 0.0
H936 H 0.82133 0.29817 0.40576 0.0
C937 C 0.7657 0.30948 0.47892 0.0
C938 C 0.41469 0.70679 0.87208 0.0
C939 C 0.43581 0.70315 0.90494 0.0
H940 H 0.38883 0.74512 0.8438 0.0
C941 C 0.45072 0.73914 0.93191 0.0
H942 H 0.40289 0.67981 0.85046 0.0
C943 C 0.44249 0.77612 0.92805 0.0
C944 C 0.41943 0.77867 0.8969 0.0
H945 H 0.4673 0.73792 0.95736 0.0
H946 H 0.45307 0.80194 0.95077 0.0
C947 C 0.40672 0.74431 0.86801 0.0
loop_
_geom_bond_atom_site_label_1
_geom_bond_atom_site_label_2
_geom_bond_distance
_geom_bond_site_symmetry_2
_ccdc_geom_bond_type
Co0 O2 2.143 . S
Co0 O8 2.074 . S
Co0 O11 2.093 . S
Co0 O24 2.097 . S
Co0 N41 2.151 . S
Co0 N49 2.214 . S
Co1 O2 2.160 . S
Co1 O7 2.058 . S
Co1 O17 2.057 1_554 S
Co1 O32 2.037 . S
Co1 N36 2.145 1_554 S
Co1 N57 2.257 . S
O2 Co0 2.143 . S
O2 Co1 2.160 . S
C3 O4 1.278 . S
C3 O11 1.224 . S
O4 C3 1.278 . S
C5 O6 1.245 . S
C5 O17 1.232 1_554 S
O6 C5 1.245 . S
O7 Co1 2.058 . S
O7 C33 1.269 . S
O8 Co0 2.074 . S
O8 C33 1.257 . S
H9 C34 0.930 . S
H10 C40 0.930 . S
O11 Co0 2.093 . S
O11 C3 1.224 . S
H12 C44 0.929 . S
H13 C46 0.930 . S
H14 C47 0.930 . S
H15 C45 0.929 . S
H16 C48 0.928 . S
O17 Co1 2.057 1_556 S
O17 C5 1.232 1_556 S
H18 C37 0.929 . S
H19 C38 0.929 . S
H20 C50 0.931 . S
H21 C42 0.929 . S
H22 C51 0.930 . S
H23 C43 0.931 . S
O24 Co0 2.097 . S
O24 C52 1.214 . S
H25 C53 0.929 1_565 S
H26 C54 0.929 1_556 S
H27 C55 0.930 . S
H28 C56 0.929 . S
H29 C58 0.930 . S
H30 C35 0.930 . S
H31 C39 0.930 . S
O32 Co1 2.037 . S
O32 C52 1.234 . S
C33 O7 1.269 . S
C33 O8 1.257 . S
C34 H9 0.930 . S
C34 C37 1.388 . S
C34 C39 1.418 . S
C35 H30 0.930 . S
C35 C38 1.404 . S
C35 C39 1.353 . S
N36 Co1 2.145 1_556 S
N36 C37 1.397 . S
N36 C38 1.334 . S
C37 H18 0.929 . S
C37 C34 1.388 . S
C37 N36 1.397 . S
C38 H19 0.929 . S
C38 C35 1.404 . S
C38 N36 1.334 . S
C39 H31 0.930 . S
C39 C34 1.418 . S
C39 C35 1.353 . S
C40 H10 0.930 . S
C40 N41 1.330 . S
C40 C42 1.446 . S
N41 Co0 2.151 . S
N41 C40 1.330 . S
N41 C45 1.418 . S
C42 H21 0.929 . S
C42 C40 1.446 . S
C42 C43 1.332 . S
C43 H23 0.931 . S
C43 C42 1.332 . S
C43 C44 1.267 . S
C44 H12 0.929 . S
C44 C43 1.267 . S
C44 C45 1.251 . S
C45 H15 0.929 . S
C45 N41 1.418 . S
C45 C44 1.251 . S
C46 H13 0.930 . S
C46 C48 1.406 . S
C46 C51 1.261 . S
C47 H14 0.930 . S
C47 N49 1.325 . S
C47 C50 1.357 . S
C48 H16 0.928 . S
C48 C46 1.406 . S
C48 N49 1.261 . S
N49 Co0 2.214 . S
N49 C47 1.325 . S
N49 C48 1.261 . S
C50 H20 0.931 . S
C50 C47 1.357 . S
C50 C51 1.312 . S
C51 H22 0.930 . S
C51 C46 1.261 . S
C51 C50 1.312 . S
C52 O24 1.214 . S
C52 O32 1.234 . S
C53 H25 0.929 1_545 S
C53 C56 1.391 . S
C53 C58 1.391 . S
C54 H26 0.929 1_554 S
C54 C55 1.390 . S
C54 N57 1.391 . S
C55 H27 0.930 . S
C55 C54 1.390 . S
C55 C56 1.392 . S
C56 H28 0.929 . S
C56 C53 1.391 . S
C56 C55 1.392 . S
N57 Co1 2.257 . S
N57 C54 1.391 . S
N57 C58 1.388 . S
C58 H29 0.930 . S
C58 C53 1.391 . S
C58 N57 1.388 . S
Co59 O61 2.143 . S
Co59 O67 2.074 . S
Co59 O70 2.093 . S
Co59 O83 2.097 . S
Co59 N100 2.151 . S
Co59 N108 2.214 . S
Co60 O61 2.160 . S
Co60 O66 2.058 . S
Co60 O76 2.057 . S
Co60 O91 2.037 . S
Co60 N95 2.145 . S
Co60 N116 2.257 . S
O61 Co59 2.143 . S
O61 Co60 2.160 . S
C62 O63 1.278 . S
C62 O70 1.224 . S
O63 C62 1.278 . S
C64 O65 1.245 . S
C64 O76 1.232 . S
O65 C64 1.245 . S
O66 Co60 2.058 . S
O66 C92 1.269 . S
O67 Co59 2.074 . S
O67 C92 1.257 . S
H68 C93 0.930 . S
H69 C99 0.930 . S
O70 Co59 2.093 . S
O70 C62 1.224 . S
H71 C103 0.929 . S
H72 C105 0.930 . S
H73 C106 0.930 . S
H74 C104 0.929 . S
H75 C107 0.928 . S
O76 Co60 2.057 . S
O76 C64 1.232 . S
H77 C96 0.929 . S
H78 C97 0.929 . S
H79 C109 0.931 . S
H80 C101 0.929 . S
H81 C110 0.930 . S
H82 C102 0.931 . S
O83 Co59 2.097 . S
O83 C111 1.214 . S
H84 C112 0.929 . S
H85 C113 0.929 . S
H86 C114 0.930 . S
H87 C115 0.929 . S
H88 C117 0.930 . S
H89 C94 0.930 . S
H90 C98 0.930 . S
O91 Co60 2.037 . S
O91 C111 1.234 . S
C92 O66 1.269 . S
C92 O67 1.257 . S
C93 H68 0.930 . S
C93 C96 1.388 . S
C93 C98 1.418 . S
C94 H89 0.930 . S
C94 C97 1.404 . S
C94 C98 1.353 . S
N95 Co60 2.145 . S
N95 C96 1.397 . S
N95 C97 1.334 . S
C96 H77 0.929 . S
C96 C93 1.388 . S
C96 N95 1.397 . S
C97 H78 0.929 . S
C97 C94 1.404 . S
C97 N95 1.334 . S
C98 H90 0.930 . S
C98 C93 1.418 . S
C98 C94 1.353 . S
C99 H69 0.930 . S
C99 N100 1.330 . S
C99 C101 1.446 . S
N100 Co59 2.151 . S
N100 C99 1.330 . S
N100 C104 1.418 . S
C101 H80 0.929 . S
C101 C99 1.446 . S
C101 C102 1.332 . S
C102 H82 0.931 . S
C102 C101 1.332 . S
C102 C103 1.267 . S
C103 H71 0.929 . S
C103 C102 1.267 . S
C103 C104 1.251 . S
C104 H74 0.929 . S
C104 N100 1.418 . S
C104 C103 1.251 . S
C105 H72 0.930 . S
C105 C107 1.406 . S
C105 C110 1.261 . S
C106 H73 0.930 . S
C106 N108 1.325 . S
C106 C109 1.357 . S
C107 H75 0.928 . S
C107 C105 1.406 . S
C107 N108 1.261 . S
N108 Co59 2.214 . S
N108 C106 1.325 . S
N108 C107 1.261 . S
C109 H79 0.931 . S
C109 C106 1.357 . S
C109 C110 1.312 . S
C110 H81 0.930 . S
C110 C105 1.261 . S
C110 C109 1.312 . S
C111 O83 1.214 . S
C111 O91 1.234 . S
C112 H84 0.929 . S
C112 C115 1.391 . S
C112 C117 1.391 . S
C113 H85 0.929 . S
C113 C114 1.390 . S
C113 N116 1.391 . S
C114 H86 0.930 . S
C114 C113 1.390 . S
C114 C115 1.392 . S
C115 H87 0.929 . S
C115 C112 1.391 . S
C115 C114 1.392 . S
N116 Co60 2.257 . S
N116 C113 1.391 . S
N116 C117 1.388 . S
C117 H88 0.930 . S
C117 C112 1.391 . S
C117 N116 1.388 . S
Co118 O120 2.143 . S
Co118 O126 2.074 . S
Co118 O129 2.093 1_554 S
Co118 O142 2.097 1_554 S
Co118 N159 2.151 . S
Co118 N167 2.214 1_554 S
Co119 O120 2.160 . S
Co119 O125 2.058 . S
Co119 O135 2.057 . S
Co119 O150 2.037 . S
Co119 N154 2.145 . S
Co119 N175 2.257 . S
O120 Co118 2.143 . S
O120 Co119 2.160 . S
C121 O122 1.278 . S
C121 O129 1.224 1_554 S
O122 C121 1.278 . S
C123 O124 1.245 . S
C123 O135 1.232 . S
O124 C123 1.245 . S
O125 Co119 2.058 . S
O125 C151 1.269 . S
O126 Co118 2.074 . S
O126 C151 1.257 . S
H127 C152 0.930 . S
H128 C158 0.930 . S
O129 Co118 2.093 1_556 S
O129 C121 1.224 1_556 S
H130 C162 0.929 . S
H131 C164 0.930 . S
H132 C165 0.930 . S
H133 C163 0.929 . S
H134 C166 0.928 . S
O135 Co119 2.057 . S
O135 C123 1.232 . S
H136 C155 0.929 . S
H137 C156 0.929 . S
H138 C168 0.931 . S
H139 C160 0.929 . S
H140 C169 0.930 . S
H141 C161 0.929 1_556 S
O142 Co118 2.097 1_556 S
O142 C170 1.214 1_556 S
H143 C171 0.929 . S
H144 C172 0.929 . S
H145 C173 0.930 . S
H146 C174 0.929 . S
H147 C176 0.930 . S
H148 C153 0.930 . S
H149 C157 0.930 . S
O150 Co119 2.037 . S
O150 C170 1.234 . S
C151 O125 1.269 . S
C151 O126 1.257 . S
C152 H127 0.930 . S
C152 C155 1.388 . S
C152 C157 1.418 . S
C153 H148 0.930 . S
C153 C156 1.404 . S
C153 C157 1.353 . S
N154 Co119 2.145 . S
N154 C155 1.397 . S
N154 C156 1.334 . S
C155 H136 0.929 . S
C155 C152 1.388 . S
C155 N154 1.397 . S
C156 H137 0.929 . S
C156 C153 1.404 . S
C156 N154 1.334 . S
C157 H149 0.930 . S
C157 C152 1.418 . S
C157 C153 1.353 . S
C158 H128 0.930 . S
C158 N159 1.330 . S
C158 C160 1.446 . S
N159 Co118 2.151 . S
N159 C158 1.330 . S
N159 C163 1.418 1_554 S
C160 H139 0.929 . S
C160 C158 1.446 . S
C160 C161 1.332 . S
C161 H141 0.929 1_554 S
C161 C160 1.332 . S
C161 C162 1.267 1_554 S
C162 H130 0.929 . S
C162 C161 1.267 1_556 S
C162 C163 1.251 . S
C163 H133 0.929 . S
C163 N159 1.418 1_556 S
C163 C162 1.251 . S
C164 H131 0.930 . S
C164 C166 1.406 . S
C164 C169 1.261 . S
C165 H132 0.930 . S
C165 N167 1.325 . S
C165 C168 1.357 . S
C166 H134 0.928 . S
C166 C164 1.406 . S
C166 N167 1.261 . S
N167 Co118 2.214 1_556 S
N167 C165 1.325 . S
N167 C166 1.261 . S
C168 H138 0.931 . S
C168 C165 1.357 . S
C168 C169 1.312 . S
C169 H140 0.930 . S
C169 C164 1.261 . S
C169 C168 1.312 . S
C170 O142 1.214 1_554 S
C170 O150 1.234 . S
C171 H143 0.929 . S
C171 C174 1.391 . S
C171 C176 1.391 . S
C172 H144 0.929 . S
C172 C173 1.390 . S
C172 N175 1.391 . S
C173 H145 0.930 . S
C173 C172 1.390 . S
C173 C174 1.392 . S
C174 H146 0.929 . S
C174 C171 1.391 . S
C174 C173 1.392 . S
N175 Co119 2.257 . S
N175 C172 1.391 . S
N175 C176 1.388 . S
C176 H147 0.930 . S
C176 C171 1.391 . S
C176 N175 1.388 . S
Co177 O179 2.143 . S
Co177 O185 2.074 . S
Co177 O188 2.093 . S
Co177 O201 2.097 . S
Co177 N218 2.151 . S
Co177 N226 2.214 . S
Co178 O179 2.160 . S
Co178 O184 2.058 . S
Co178 O194 2.057 . S
Co178 O209 2.037 . S
Co178 N213 2.145 . S
Co178 N234 2.257 . S
O179 Co177 2.143 . S
O179 Co178 2.160 . S
C180 O181 1.278 . S
C180 O188 1.224 . S
O181 C180 1.278 . S
C182 O183 1.245 . S
C182 O194 1.232 . S
O183 C182 1.245 . S
O184 Co178 2.058 . S
O184 C210 1.269 . S
O185 Co177 2.074 . S
O185 C210 1.257 . S
H186 C211 0.930 . S
H187 C217 0.930 . S
O188 Co177 2.093 . S
O188 C180 1.224 . S
H189 C221 0.929 . S
H190 C223 0.930 . S
H191 C224 0.930 . S
H192 C222 0.929 . S
H193 C225 0.928 . S
O194 Co178 2.057 . S
O194 C182 1.232 . S
H195 C214 0.929 . S
H196 C215 0.929 . S
H197 C227 0.931 . S
H198 C219 0.929 . S
H199 C228 0.930 . S
H200 C220 0.931 . S
O201 Co177 2.097 . S
O201 C229 1.214 . S
H202 C230 0.929 1_545 S
H203 C231 0.929 . S
H204 C232 0.930 . S
H205 C233 0.929 . S
H206 C235 0.930 . S
H207 C212 0.930 . S
H208 C216 0.930 . S
O209 Co178 2.037 . S
O209 C229 1.234 . S
C210 O184 1.269 . S
C210 O185 1.257 . S
C211 H186 0.930 . S
C211 C214 1.388 . S
C211 C216 1.418 . S
C212 H207 0.930 . S
C212 C215 1.404 . S
C212 C216 1.353 . S
N213 Co178 2.145 . S
N213 C214 1.397 . S
N213 C215 1.334 . S
C214 H195 0.929 . S
C214 C211 1.388 . S
C214 N213 1.397 . S
C215 H196 0.929 . S
C215 C212 1.404 . S
C215 N213 1.334 . S
C216 H208 0.930 . S
C216 C211 1.418 . S
C216 C212 1.353 . S
C217 H187 0.930 . S
C217 N218 1.330 . S
C217 C219 1.446 . S
N218 Co177 2.151 . S
N218 C217 1.330 . S
N218 C222 1.418 . S
C219 H198 0.929 . S
C219 C217 1.446 . S
C219 C220 1.332 . S
C220 H200 0.931 . S
C220 C219 1.332 . S
C220 C221 1.267 . S
C221 H189 0.929 . S
C221 C220 1.267 . S
C221 C222 1.251 . S
C222 H192 0.929 . S
C222 N218 1.418 . S
C222 C221 1.251 . S
C223 H190 0.930 . S
C223 C225 1.406 . S
C223 C228 1.261 . S
C224 H191 0.930 . S
C224 N226 1.325 . S
C224 C227 1.357 . S
C225 H193 0.928 . S
C225 C223 1.406 . S
C225 N226 1.261 . S
N226 Co177 2.214 . S
N226 C224 1.325 . S
N226 C225 1.261 . S
C227 H197 0.931 . S
C227 C224 1.357 . S
C227 C228 1.312 . S
C228 H199 0.930 . S
C228 C223 1.261 . S
C228 C227 1.312 . S
C229 O201 1.214 . S
C229 O209 1.234 . S
C230 H202 0.929 1_565 S
C230 C233 1.391 . S
C230 C235 1.391 . S
C231 H203 0.929 . S
C231 C232 1.390 . S
C231 N234 1.391 . S
C232 H204 0.930 . S
C232 C231 1.390 . S
C232 C233 1.392 . S
C233 H205 0.929 . S
C233 C230 1.391 . S
C233 C232 1.392 . S
N234 Co178 2.257 . S
N234 C231 1.391 . S
N234 C235 1.388 . S
C235 H206 0.930 . S
C235 C230 1.391 . S
C235 N234 1.388 . S
Co236 O238 2.143 . S
Co236 O244 2.074 . S
Co236 O247 2.093 . S
Co236 O260 2.097 . S
Co236 N277 2.151 . S
Co236 N285 2.214 . S
Co237 O238 2.160 . S
Co237 O243 2.058 1_554 S
Co237 O253 2.057 1_554 S
Co237 O268 2.037 . S
Co237 N272 2.145 1_554 S
Co237 N293 2.257 . S
O238 Co236 2.143 . S
O238 Co237 2.160 . S
C239 O240 1.278 . S
C239 O247 1.224 . S
O240 C239 1.278 . S
C241 O242 1.245 . S
C241 O253 1.232 1_554 S
O242 C241 1.245 . S
O243 Co237 2.058 1_556 S
O243 C269 1.269 1_556 S
O244 Co236 2.074 . S
O244 C269 1.257 . S
H245 C270 0.930 . S
H246 C276 0.930 . S
O247 Co236 2.093 . S
O247 C239 1.224 . S
H248 C280 0.929 . S
H249 C282 0.930 . S
H250 C283 0.930 . S
H251 C281 0.929 . S
H252 C284 0.928 . S
O253 Co237 2.057 1_556 S
O253 C241 1.232 1_556 S
H254 C273 0.929 . S
H255 C274 0.929 . S
H256 C286 0.931 . S
H257 C278 0.929 . S
H258 C287 0.930 . S
H259 C279 0.931 . S
O260 Co236 2.097 . S
O260 C288 1.214 . S
H261 C289 0.929 . S
H262 C290 0.929 . S
H263 C291 0.930 . S
H264 C292 0.929 . S
H265 C294 0.930 . S
H266 C271 0.930 . S
H267 C275 0.930 . S
O268 Co237 2.037 . S
O268 C288 1.234 . S
C269 O243 1.269 1_554 S
C269 O244 1.257 . S
C270 H245 0.930 . S
C270 C273 1.388 . S
C270 C275 1.418 . S
C271 H266 0.930 . S
C271 C274 1.404 . S
C271 C275 1.353 . S
N272 Co237 2.145 1_556 S
N272 C273 1.397 . S
N272 C274 1.334 . S
C273 H254 0.929 . S
C273 C270 1.388 . S
C273 N272 1.397 . S
C274 H255 0.929 . S
C274 C271 1.404 . S
C274 N272 1.334 . S
C275 H267 0.930 . S
C275 C270 1.418 . S
C275 C271 1.353 . S
C276 H246 0.930 . S
C276 N277 1.330 . S
C276 C278 1.446 . S
N277 Co236 2.151 . S
N277 C276 1.330 . S
N277 C281 1.418 . S
C278 H257 0.929 . S
C278 C276 1.446 . S
C278 C279 1.332 . S
C279 H259 0.931 . S
C279 C278 1.332 . S
C279 C280 1.267 . S
C280 H248 0.929 . S
C280 C279 1.267 . S
C280 C281 1.251 . S
C281 H251 0.929 . S
C281 N277 1.418 . S
C281 C280 1.251 . S
C282 H249 0.930 . S
C282 C284 1.406 . S
C282 C287 1.261 . S
C283 H250 0.930 . S
C283 N285 1.325 . S
C283 C286 1.357 . S
C284 H252 0.928 . S
C284 C282 1.406 . S
C284 N285 1.261 . S
N285 Co236 2.214 . S
N285 C283 1.325 . S
N285 C284 1.261 . S
C286 H256 0.931 . S
C286 C283 1.357 . S
C286 C287 1.312 . S
C287 H258 0.930 . S
C287 C282 1.261 . S
C287 C286 1.312 . S
C288 O260 1.214 . S
C288 O268 1.234 . S
C289 H261 0.929 . S
C289 C292 1.391 . S
C289 C294 1.391 . S
C290 H262 0.929 . S
C290 C291 1.390 . S
C290 N293 1.391 . S
C291 H263 0.930 . S
C291 C290 1.390 . S
C291 C292 1.392 . S
C292 H264 0.929 . S
C292 C289 1.391 . S
C292 C291 1.392 . S
N293 Co237 2.257 . S
N293 C290 1.391 . S
N293 C294 1.388 . S
C294 H265 0.930 . S
C294 C289 1.391 . S
C294 N293 1.388 . S
Co295 O297 2.143 . S
Co295 O303 2.074 . S
Co295 O306 2.093 . S
Co295 O319 2.097 . S
Co295 N336 2.151 . S
Co295 N344 2.214 . S
Co296 O297 2.160 . S
Co296 O302 2.058 . S
Co296 O312 2.057 . S
Co296 O327 2.037 . S
Co296 N331 2.145 . S
Co296 N352 2.257 . S
O297 Co295 2.143 . S
O297 Co296 2.160 . S
C298 O299 1.278 . S
C298 O306 1.224 . S
O299 C298 1.278 . S
C300 O301 1.245 . S
C300 O312 1.232 . S
O301 C300 1.245 . S
O302 Co296 2.058 . S
O302 C328 1.269 . S
O303 Co295 2.074 . S
O303 C328 1.257 . S
H304 C329 0.930 . S
H305 C335 0.930 . S
O306 Co295 2.093 . S
O306 C298 1.224 . S
H307 C339 0.929 . S
H308 C341 0.930 . S
H309 C342 0.930 . S
H310 C340 0.929 . S
H311 C343 0.928 . S
O312 Co296 2.057 . S
O312 C300 1.232 . S
H313 C332 0.929 . S
H314 C333 0.929 . S
H315 C345 0.931 . S
H316 C337 0.929 . S
H317 C346 0.930 . S
H318 C338 0.931 . S
O319 Co295 2.097 . S
O319 C347 1.214 . S
H320 C348 0.929 . S
H321 C349 0.929 . S
H322 C350 0.930 . S
H323 C351 0.929 . S
H324 C353 0.930 . S
H325 C330 0.930 . S
H326 C334 0.930 . S
O327 Co296 2.037 . S
O327 C347 1.234 . S
C328 O302 1.269 . S
C328 O303 1.257 . S
C329 H304 0.930 . S
C329 C332 1.388 . S
C329 C334 1.418 . S
C330 H325 0.930 . S
C330 C333 1.404 . S
C330 C334 1.353 . S
N331 Co296 2.145 . S
N331 C332 1.397 . S
N331 C333 1.334 . S
C332 H313 0.929 . S
C332 C329 1.388 . S
C332 N331 1.397 . S
C333 H314 0.929 . S
C333 C330 1.404 . S
C333 N331 1.334 . S
C334 H326 0.930 . S
C334 C329 1.418 . S
C334 C330 1.353 . S
C335 H305 0.930 . S
C335 N336 1.330 . S
C335 C337 1.446 . S
N336 Co295 2.151 . S
N336 C335 1.330 . S
N336 C340 1.418 . S
C337 H316 0.929 . S
C337 C335 1.446 . S
C337 C338 1.332 . S
C338 H318 0.931 . S
C338 C337 1.332 . S
C338 C339 1.267 . S
C339 H307 0.929 . S
C339 C338 1.267 . S
C339 C340 1.251 . S
C340 H310 0.929 . S
C340 N336 1.418 . S
C340 C339 1.251 . S
C341 H308 0.930 . S
C341 C343 1.406 . S
C341 C346 1.261 . S
C342 H309 0.930 . S
C342 N344 1.325 . S
C342 C345 1.357 . S
C343 H311 0.928 . S
C343 C341 1.406 . S
C343 N344 1.261 . S
N344 Co295 2.214 . S
N344 C342 1.325 . S
N344 C343 1.261 . S
C345 H315 0.931 . S
C345 C342 1.357 . S
C345 C346 1.312 . S
C346 H317 0.930 . S
C346 C341 1.261 . S
C346 C345 1.312 . S
C347 O319 1.214 . S
C347 O327 1.234 . S
C348 H320 0.929 . S
C348 C351 1.391 . S
C348 C353 1.391 . S
C349 H321 0.929 . S
C349 C350 1.390 . S
C349 N352 1.391 . S
C350 H322 0.930 . S
C350 C349 1.390 . S
C350 C351 1.392 . S
C351 H323 0.929 . S
C351 C348 1.391 . S
C351 C350 1.392 . S
N352 Co296 2.257 . S
N352 C349 1.391 . S
N352 C353 1.388 . S
C353 H324 0.930 . S
C353 C348 1.391 . S
C353 N352 1.388 . S
Co354 O356 2.143 . S
Co354 O362 2.074 . S
Co354 O365 2.093 . S
Co354 O378 2.097 . S
Co354 N395 2.151 . S
Co354 N403 2.214 . S
Co355 O356 2.160 . S
Co355 O361 2.058 . S
Co355 O371 2.057 . S
Co355 O386 2.037 . S
Co355 N390 2.145 . S
Co355 N411 2.257 . S
O356 Co354 2.143 . S
O356 Co355 2.160 . S
C357 O358 1.278 . S
C357 O365 1.224 . S
O358 C357 1.278 . S
C359 O360 1.245 . S
C359 O371 1.232 . S
O360 C359 1.245 . S
O361 Co355 2.058 . S
O361 C387 1.269 . S
O362 Co354 2.074 . S
O362 C387 1.257 . S
H363 C388 0.930 . S
H364 C394 0.930 . S
O365 Co354 2.093 . S
O365 C357 1.224 . S
H366 C398 0.929 . S
H367 C400 0.930 . S
H368 C401 0.930 . S
H369 C399 0.929 . S
H370 C402 0.928 . S
O371 Co355 2.057 . S
O371 C359 1.232 . S
H372 C391 0.929 . S
H373 C392 0.929 . S
H374 C404 0.931 . S
H375 C396 0.929 . S
H376 C405 0.930 . S
H377 C397 0.931 . S
O378 Co354 2.097 . S
O378 C406 1.214 . S
H379 C407 0.929 . S
H380 C408 0.929 . S
H381 C409 0.930 . S
H382 C410 0.929 . S
H383 C412 0.930 . S
H384 C389 0.930 . S
H385 C393 0.930 . S
O386 Co355 2.037 . S
O386 C406 1.234 . S
C387 O361 1.269 . S
C387 O362 1.257 . S
C388 H363 0.930 . S
C388 C391 1.388 . S
C388 C393 1.418 . S
C389 H384 0.930 . S
C389 C392 1.404 . S
C389 C393 1.353 . S
N390 Co355 2.145 . S
N390 C391 1.397 . S
N390 C392 1.334 . S
C391 H372 0.929 . S
C391 C388 1.388 . S
C391 N390 1.397 . S
C392 H373 0.929 . S
C392 C389 1.404 . S
C392 N390 1.334 . S
C393 H385 0.930 . S
C393 C388 1.418 . S
C393 C389 1.353 . S
C394 H364 0.930 . S
C394 N395 1.330 . S
C394 C396 1.446 . S
N395 Co354 2.151 . S
N395 C394 1.330 . S
N395 C399 1.418 . S
C396 H375 0.929 . S
C396 C394 1.446 . S
C396 C397 1.332 . S
C397 H377 0.931 . S
C397 C396 1.332 . S
C397 C398 1.267 . S
C398 H366 0.929 . S
C398 C397 1.267 . S
C398 C399 1.251 . S
C399 H369 0.929 . S
C399 N395 1.418 . S
C399 C398 1.251 . S
C400 H367 0.930 . S
C400 C402 1.406 . S
C400 C405 1.261 . S
C401 H368 0.930 . S
C401 N403 1.325 . S
C401 C404 1.357 . S
C402 H370 0.928 . S
C402 C400 1.406 . S
C402 N403 1.261 . S
N403 Co354 2.214 . S
N403 C401 1.325 . S
N403 C402 1.261 . S
C404 H374 0.931 . S
C404 C401 1.357 . S
C404 C405 1.312 . S
C405 H376 0.930 . S
C405 C400 1.261 . S
C405 C404 1.312 . S
C406 O378 1.214 . S
C406 O386 1.234 . S
C407 H379 0.929 . S
C407 C410 1.391 . S
C407 C412 1.391 . S
C408 H380 0.929 . S
C408 C409 1.390 . S
C408 N411 1.391 . S
C409 H381 0.930 . S
C409 C408 1.390 . S
C409 C410 1.392 . S
C410 H382 0.929 . S
C410 C407 1.391 . S
C410 C409 1.392 . S
N411 Co355 2.257 . S
N411 C408 1.391 . S
N411 C412 1.388 . S
C412 H383 0.930 . S
C412 C407 1.391 . S
C412 N411 1.388 . S
Co413 O415 2.143 . S
Co413 O421 2.074 . S
Co413 O424 2.093 . S
Co413 O437 2.097 . S
Co413 N454 2.151 . S
Co413 N462 2.214 . S
Co414 O415 2.160 . S
Co414 O420 2.058 1_556 S
Co414 O430 2.057 1_556 S
Co414 O445 2.037 . S
Co414 N449 2.145 1_556 S
Co414 N470 2.257 . S
O415 Co413 2.143 . S
O415 Co414 2.160 . S
C416 O417 1.278 . S
C416 O424 1.224 . S
O417 C416 1.278 . S
C418 O419 1.245 . S
C418 O430 1.232 1_556 S
O419 C418 1.245 . S
O420 Co414 2.058 1_554 S
O420 C446 1.269 1_554 S
O421 Co413 2.074 . S
O421 C446 1.257 . S
H422 C447 0.930 . S
H423 C453 0.930 . S
O424 Co413 2.093 . S
O424 C416 1.224 . S
H425 C457 0.929 . S
H426 C459 0.930 . S
H427 C460 0.930 . S
H428 C458 0.929 . S
H429 C461 0.928 . S
O430 Co414 2.057 1_554 S
O430 C418 1.232 1_554 S
H431 C450 0.929 . S
H432 C451 0.929 . S
H433 C463 0.931 . S
H434 C455 0.929 . S
H435 C464 0.930 . S
H436 C456 0.931 . S
O437 Co413 2.097 . S
O437 C465 1.214 . S
H438 C466 0.929 . S
H439 C467 0.929 . S
H440 C468 0.930 . S
H441 C469 0.929 . S
H442 C471 0.930 . S
H443 C448 0.930 . S
H444 C452 0.930 . S
O445 Co414 2.037 . S
O445 C465 1.234 . S
C446 O420 1.269 1_556 S
C446 O421 1.257 . S
C447 H422 0.930 . S
C447 C450 1.388 . S
C447 C452 1.418 . S
C448 H443 0.930 . S
C448 C451 1.404 . S
C448 C452 1.353 . S
N449 Co414 2.145 1_554 S
N449 C450 1.397 . S
N449 C451 1.334 . S
C450 H431 0.929 . S
C450 C447 1.388 . S
C450 N449 1.397 . S
C451 H432 0.929 . S
C451 C448 1.404 . S
C451 N449 1.334 . S
C452 H444 0.930 . S
C452 C447 1.418 . S
C452 C448 1.353 . S
C453 H423 0.930 . S
C453 N454 1.330 . S
C453 C455 1.446 . S
N454 Co413 2.151 . S
N454 C453 1.330 . S
N454 C458 1.418 . S
C455 H434 0.929 . S
C455 C453 1.446 . S
C455 C456 1.332 . S
C456 H436 0.931 . S
C456 C455 1.332 . S
C456 C457 1.267 . S
C457 H425 0.929 . S
C457 C456 1.267 . S
C457 C458 1.251 . S
C458 H428 0.929 . S
C458 N454 1.418 . S
C458 C457 1.251 . S
C459 H426 0.930 . S
C459 C461 1.406 . S
C459 C464 1.261 . S
C460 H427 0.930 . S
C460 N462 1.325 . S
C460 C463 1.357 . S
C461 H429 0.928 . S
C461 C459 1.406 . S
C461 N462 1.261 . S
N462 Co413 2.214 . S
N462 C460 1.325 . S
N462 C461 1.261 . S
C463 H433 0.931 . S
C463 C460 1.357 . S
C463 C464 1.312 . S
C464 H435 0.930 . S
C464 C459 1.261 . S
C464 C463 1.312 . S
C465 O437 1.214 . S
C465 O445 1.234 . S
C466 H438 0.929 . S
C466 C469 1.391 . S
C466 C471 1.391 . S
C467 H439 0.929 . S
C467 C468 1.390 . S
C467 N470 1.391 . S
C468 H440 0.930 . S
C468 C467 1.390 . S
C468 C469 1.392 . S
C469 H441 0.929 . S
C469 C466 1.391 . S
C469 C468 1.392 . S
N470 Co414 2.257 . S
N470 C467 1.391 . S
N470 C471 1.388 . S
C471 H442 0.930 . S
C471 C466 1.391 . S
C471 N470 1.388 . S
Co472 O474 2.143 . S
Co472 O480 2.074 . S
Co472 O483 2.093 . S
Co472 O496 2.097 . S
Co472 N513 2.151 . S
Co472 N521 2.214 . S
Co473 O474 2.160 . S
Co473 O479 2.058 . S
Co473 O489 2.057 . S
Co473 O504 2.037 . S
Co473 N508 2.145 . S
Co473 N529 2.257 . S
O474 Co472 2.143 . S
O474 Co473 2.160 . S
C475 O476 1.278 . S
C475 O483 1.224 . S
O476 C475 1.278 . S
C477 O478 1.245 . S
C477 O489 1.232 . S
O478 C477 1.245 . S
O479 Co473 2.058 . S
O479 C505 1.269 . S
O480 Co472 2.074 . S
O480 C505 1.257 . S
H481 C506 0.930 . S
H482 C512 0.930 . S
O483 Co472 2.093 . S
O483 C475 1.224 . S
H484 C516 0.929 . S
H485 C518 0.930 . S
H486 C519 0.930 . S
H487 C517 0.929 . S
H488 C520 0.928 . S
O489 Co473 2.057 . S
O489 C477 1.232 . S
H490 C509 0.929 . S
H491 C510 0.929 . S
H492 C522 0.931 . S
H493 C514 0.929 . S
H494 C523 0.930 . S
H495 C515 0.931 . S
O496 Co472 2.097 . S
O496 C524 1.214 . S
H497 C525 0.929 . S
H498 C526 0.929 . S
H499 C527 0.930 . S
H500 C528 0.929 . S
H501 C530 0.930 . S
H502 C507 0.930 . S
H503 C511 0.930 . S
O504 Co473 2.037 . S
O504 C524 1.234 . S
C505 O479 1.269 . S
C505 O480 1.257 . S
C506 H481 0.930 . S
C506 C509 1.388 . S
C506 C511 1.418 . S
C507 H502 0.930 . S
C507 C510 1.404 . S
C507 C511 1.353 . S
N508 Co473 2.145 . S
N508 C509 1.397 . S
N508 C510 1.334 . S
C509 H490 0.929 . S
C509 C506 1.388 . S
C509 N508 1.397 . S
C510 H491 0.929 . S
C510 C507 1.404 . S
C510 N508 1.334 . S
C511 H503 0.930 . S
C511 C506 1.418 . S
C511 C507 1.353 . S
C512 H482 0.930 . S
C512 N513 1.330 . S
C512 C514 1.446 . S
N513 Co472 2.151 . S
N513 C512 1.330 . S
N513 C517 1.418 . S
C514 H493 0.929 . S
C514 C512 1.446 . S
C514 C515 1.332 . S
C515 H495 0.931 . S
C515 C514 1.332 . S
C515 C516 1.267 . S
C516 H484 0.929 . S
C516 C515 1.267 . S
C516 C517 1.251 . S
C517 H487 0.929 . S
C517 N513 1.418 . S
C517 C516 1.251 . S
C518 H485 0.930 . S
C518 C520 1.406 . S
C518 C523 1.261 . S
C519 H486 0.930 . S
C519 N521 1.325 . S
C519 C522 1.357 . S
C520 H488 0.928 . S
C520 C518 1.406 . S
C520 N521 1.261 . S
N521 Co472 2.214 . S
N521 C519 1.325 . S
N521 C520 1.261 . S
C522 H492 0.931 . S
C522 C519 1.357 . S
C522 C523 1.312 . S
C523 H494 0.930 . S
C523 C518 1.261 . S
C523 C522 1.312 . S
C524 O496 1.214 . S
C524 O504 1.234 . S
C525 H497 0.929 . S
C525 C528 1.391 . S
C525 C530 1.391 . S
C526 H498 0.929 . S
C526 C527 1.390 . S
C526 N529 1.391 . S
C527 H499 0.930 . S
C527 C526 1.390 . S
C527 C528 1.392 . S
C528 H500 0.929 . S
C528 C525 1.391 . S
C528 C527 1.392 . S
N529 Co473 2.257 . S
N529 C526 1.391 . S
N529 C530 1.388 . S
C530 H501 0.930 . S
C530 C525 1.391 . S
C530 N529 1.388 . S
Co531 O533 2.143 . S
Co531 O539 2.074 . S
Co531 O542 2.093 . S
Co531 O555 2.097 . S
Co531 N572 2.151 . S
Co531 N580 2.214 . S
Co532 O533 2.160 . S
Co532 O538 2.058 1_556 S
Co532 O548 2.057 1_556 S
Co532 O563 2.037 . S
Co532 N567 2.145 1_556 S
Co532 N588 2.257 . S
O533 Co531 2.143 . S
O533 Co532 2.160 . S
C534 O535 1.278 . S
C534 O542 1.224 . S
O535 C534 1.278 . S
C536 O537 1.245 . S
C536 O548 1.232 1_556 S
O537 C536 1.245 . S
O538 Co532 2.058 1_554 S
O538 C564 1.269 1_554 S
O539 Co531 2.074 . S
O539 C564 1.257 . S
H540 C565 0.930 . S
H541 C571 0.930 . S
O542 Co531 2.093 . S
O542 C534 1.224 . S
H543 C575 0.929 . S
H544 C577 0.930 . S
H545 C578 0.930 . S
H546 C576 0.929 . S
H547 C579 0.928 . S
O548 Co532 2.057 1_554 S
O548 C536 1.232 1_554 S
H549 C568 0.929 . S
H550 C569 0.929 . S
H551 C581 0.931 . S
H552 C573 0.929 . S
H553 C582 0.930 . S
H554 C574 0.931 . S
O555 Co531 2.097 . S
O555 C583 1.214 . S
H556 C584 0.929 . S
H557 C585 0.929 . S
H558 C586 0.930 . S
H559 C587 0.929 . S
H560 C589 0.930 . S
H561 C566 0.930 . S
H562 C570 0.930 . S
O563 Co532 2.037 . S
O563 C583 1.234 . S
C564 O538 1.269 1_556 S
C564 O539 1.257 . S
C565 H540 0.930 . S
C565 C568 1.388 . S
C565 C570 1.418 . S
C566 H561 0.930 . S
C566 C569 1.404 . S
C566 C570 1.353 . S
N567 Co532 2.145 1_554 S
N567 C568 1.397 . S
N567 C569 1.334 . S
C568 H549 0.929 . S
C568 C565 1.388 . S
C568 N567 1.397 . S
C569 H550 0.929 . S
C569 C566 1.404 . S
C569 N567 1.334 . S
C570 H562 0.930 . S
C570 C565 1.418 . S
C570 C566 1.353 . S
C571 H541 0.930 . S
C571 N572 1.330 . S
C571 C573 1.446 . S
N572 Co531 2.151 . S
N572 C571 1.330 . S
N572 C576 1.418 . S
C573 H552 0.929 . S
C573 C571 1.446 . S
C573 C574 1.332 . S
C574 H554 0.931 . S
C574 C573 1.332 . S
C574 C575 1.267 . S
C575 H543 0.929 . S
C575 C574 1.267 . S
C575 C576 1.251 . S
C576 H546 0.929 . S
C576 N572 1.418 . S
C576 C575 1.251 . S
C577 H544 0.930 . S
C577 C579 1.406 . S
C577 C582 1.261 . S
C578 H545 0.930 . S
C578 N580 1.325 . S
C578 C581 1.357 . S
C579 H547 0.928 . S
C579 C577 1.406 . S
C579 N580 1.261 . S
N580 Co531 2.214 . S
N580 C578 1.325 . S
N580 C579 1.261 . S
C581 H551 0.931 . S
C581 C578 1.357 . S
C581 C582 1.312 . S
C582 H553 0.930 . S
C582 C577 1.261 . S
C582 C581 1.312 . S
C583 O555 1.214 . S
C583 O563 1.234 . S
C584 H556 0.929 . S
C584 C587 1.391 . S
C584 C589 1.391 . S
C585 H557 0.929 . S
C585 C586 1.390 . S
C585 N588 1.391 . S
C586 H558 0.930 . S
C586 C585 1.390 . S
C586 C587 1.392 . S
C587 H559 0.929 . S
C587 C584 1.391 . S
C587 C586 1.392 . S
N588 Co532 2.257 . S
N588 C585 1.391 . S
N588 C589 1.388 . S
C589 H560 0.930 . S
C589 C584 1.391 . S
C589 N588 1.388 . S
Co590 O592 2.143 . S
Co590 O598 2.074 . S
Co590 O601 2.093 . S
Co590 O614 2.097 . S
Co590 N631 2.151 . S
Co590 N639 2.214 . S
Co591 O592 2.160 . S
Co591 O597 2.058 . S
Co591 O607 2.057 . S
Co591 O622 2.037 . S
Co591 N626 2.145 . S
Co591 N647 2.257 . S
O592 Co590 2.143 . S
O592 Co591 2.160 . S
C593 O594 1.278 . S
C593 O601 1.224 . S
O594 C593 1.278 . S
C595 O596 1.245 . S
C595 O607 1.232 . S
O596 C595 1.245 . S
O597 Co591 2.058 . S
O597 C623 1.269 . S
O598 Co590 2.074 . S
O598 C623 1.257 . S
H599 C624 0.930 . S
H600 C630 0.930 . S
O601 Co590 2.093 . S
O601 C593 1.224 . S
H602 C634 0.929 . S
H603 C636 0.930 . S
H604 C637 0.930 . S
H605 C635 0.929 . S
H606 C638 0.928 . S
O607 Co591 2.057 . S
O607 C595 1.232 . S
H608 C627 0.929 . S
H609 C628 0.929 . S
H610 C640 0.931 . S
H611 C632 0.929 . S
H612 C641 0.930 . S
H613 C633 0.931 . S
O614 Co590 2.097 . S
O614 C642 1.214 . S
H615 C643 0.929 . S
H616 C644 0.929 . S
H617 C645 0.930 . S
H618 C646 0.929 . S
H619 C648 0.930 . S
H620 C625 0.930 . S
H621 C629 0.930 . S
O622 Co591 2.037 . S
O622 C642 1.234 . S
C623 O597 1.269 . S
C623 O598 1.257 . S
C624 H599 0.930 . S
C624 C627 1.388 . S
C624 C629 1.418 . S
C625 H620 0.930 . S
C625 C628 1.404 . S
C625 C629 1.353 . S
N626 Co591 2.145 . S
N626 C627 1.397 . S
N626 C628 1.334 . S
C627 H608 0.929 . S
C627 C624 1.388 . S
C627 N626 1.397 . S
C628 H609 0.929 . S
C628 C625 1.404 . S
C628 N626 1.334 . S
C629 H621 0.930 . S
C629 C624 1.418 . S
C629 C625 1.353 . S
C630 H600 0.930 . S
C630 N631 1.330 . S
C630 C632 1.446 . S
N631 Co590 2.151 . S
N631 C630 1.330 . S
N631 C635 1.418 . S
C632 H611 0.929 . S
C632 C630 1.446 . S
C632 C633 1.332 . S
C633 H613 0.931 . S
C633 C632 1.332 . S
C633 C634 1.267 . S
C634 H602 0.929 . S
C634 C633 1.267 . S
C634 C635 1.251 . S
C635 H605 0.929 . S
C635 N631 1.418 . S
C635 C634 1.251 . S
C636 H603 0.930 . S
C636 C638 1.406 . S
C636 C641 1.261 . S
C637 H604 0.930 . S
C637 N639 1.325 . S
C637 C640 1.357 . S
C638 H606 0.928 . S
C638 C636 1.406 . S
C638 N639 1.261 . S
N639 Co590 2.214 . S
N639 C637 1.325 . S
N639 C638 1.261 . S
C640 H610 0.931 . S
C640 C637 1.357 . S
C640 C641 1.312 . S
C641 H612 0.930 . S
C641 C636 1.261 . S
C641 C640 1.312 . S
C642 O614 1.214 . S
C642 O622 1.234 . S
C643 H615 0.929 . S
C643 C646 1.391 . S
C643 C648 1.391 . S
C644 H616 0.929 . S
C644 C645 1.390 . S
C644 N647 1.391 . S
C645 H617 0.930 . S
C645 C644 1.390 . S
C645 C646 1.392 . S
C646 H618 0.929 . S
C646 C643 1.391 . S
C646 C645 1.392 . S
N647 Co591 2.257 . S
N647 C644 1.391 . S
N647 C648 1.388 . S
C648 H619 0.930 . S
C648 C643 1.391 . S
C648 N647 1.388 . S
Co649 O651 2.143 . S
Co649 O657 2.074 . S
Co649 O660 2.093 1_556 S
Co649 O673 2.097 . S
Co649 N690 2.151 . S
Co649 N698 2.214 1_556 S
Co650 O651 2.160 . S
Co650 O656 2.058 . S
Co650 O666 2.057 . S
Co650 O681 2.037 . S
Co650 N685 2.145 . S
Co650 N706 2.257 . S
O651 Co649 2.143 . S
O651 Co650 2.160 . S
C652 O653 1.278 . S
C652 O660 1.224 1_556 S
O653 C652 1.278 . S
C654 O655 1.245 . S
C654 O666 1.232 . S
O655 C654 1.245 . S
O656 Co650 2.058 . S
O656 C682 1.269 . S
O657 Co649 2.074 . S
O657 C682 1.257 . S
H658 C683 0.930 . S
H659 C689 0.930 . S
O660 Co649 2.093 1_554 S
O660 C652 1.224 1_554 S
H661 C693 0.929 . S
H662 C695 0.930 . S
H663 C696 0.930 . S
H664 C694 0.929 . S
H665 C697 0.928 . S
O666 Co650 2.057 . S
O666 C654 1.232 . S
H667 C686 0.929 . S
H668 C687 0.929 . S
H669 C699 0.931 . S
H670 C691 0.929 . S
H671 C700 0.930 . S
H672 C692 0.931 . S
O673 Co649 2.097 . S
O673 C701 1.214 . S
H674 C702 0.929 . S
H675 C703 0.929 . S
H676 C704 0.930 . S
H677 C705 0.929 . S
H678 C707 0.930 . S
H679 C684 0.930 . S
H680 C688 0.930 . S
O681 Co650 2.037 . S
O681 C701 1.234 . S
C682 O656 1.269 . S
C682 O657 1.257 . S
C683 H658 0.930 . S
C683 C686 1.388 . S
C683 C688 1.418 . S
C684 H679 0.930 . S
C684 C687 1.404 . S
C684 C688 1.353 . S
N685 Co650 2.145 . S
N685 C686 1.397 . S
N685 C687 1.334 . S
C686 H667 0.929 . S
C686 C683 1.388 . S
C686 N685 1.397 . S
C687 H668 0.929 . S
C687 C684 1.404 . S
C687 N685 1.334 . S
C688 H680 0.930 . S
C688 C683 1.418 . S
C688 C684 1.353 . S
C689 H659 0.930 . S
C689 N690 1.330 . S
C689 C691 1.446 . S
N690 Co649 2.151 . S
N690 C689 1.330 . S
N690 C694 1.418 1_556 S
C691 H670 0.929 . S
C691 C689 1.446 . S
C691 C692 1.332 1_556 S
C692 H672 0.931 . S
C692 C691 1.332 1_554 S
C692 C693 1.267 . S
C693 H661 0.929 . S
C693 C692 1.267 . S
C693 C694 1.251 . S
C694 H664 0.929 . S
C694 N690 1.418 1_554 S
C694 C693 1.251 . S
C695 H662 0.930 . S
C695 C697 1.406 . S
C695 C700 1.261 . S
C696 H663 0.930 . S
C696 N698 1.325 . S
C696 C699 1.357 . S
C697 H665 0.928 . S
C697 C695 1.406 . S
C697 N698 1.261 . S
N698 Co649 2.214 1_554 S
N698 C696 1.325 . S
N698 C697 1.261 . S
C699 H669 0.931 . S
C699 C696 1.357 . S
C699 C700 1.312 . S
C700 H671 0.930 . S
C700 C695 1.261 . S
C700 C699 1.312 . S
C701 O673 1.214 . S
C701 O681 1.234 . S
C702 H674 0.929 . S
C702 C705 1.391 . S
C702 C707 1.391 . S
C703 H675 0.929 . S
C703 C704 1.390 . S
C703 N706 1.391 . S
C704 H676 0.930 . S
C704 C703 1.390 . S
C704 C705 1.392 . S
C705 H677 0.929 . S
C705 C702 1.391 . S
C705 C704 1.392 . S
N706 Co650 2.257 . S
N706 C703 1.391 . S
N706 C707 1.388 . S
C707 H678 0.930 . S
C707 C702 1.391 . S
C707 N706 1.388 . S
C708 C709 1.387 . S
C708 H712 0.950 . S
C708 C717 1.390 . S
C709 C708 1.387 . S
C709 C711 1.387 . S
H710 C717 0.950 . S
C711 C709 1.387 . S
C711 C713 1.390 . S
C711 H715 0.950 . S
H712 C708 0.950 . S
C713 C711 1.390 . S
C713 C714 1.387 . S
C713 H716 0.950 . S
C714 C713 1.387 . S
C714 C717 1.387 . S
H715 C711 0.950 . S
H716 C713 0.950 . S
C717 C708 1.390 . S
C717 H710 0.950 . S
C717 C714 1.387 . S
C718 C719 1.387 . S
C718 H722 0.950 . S
C718 C727 1.390 . S
C719 C718 1.387 . S
C719 C721 1.387 . S
H720 C727 0.950 . S
C721 C719 1.387 . S
C721 C723 1.390 . S
C721 H725 0.950 . S
H722 C718 0.950 . S
C723 C721 1.390 . S
C723 C724 1.387 . S
C723 H726 0.950 . S
C724 C723 1.387 . S
C724 C727 1.387 . S
H725 C721 0.950 . S
H726 C723 0.950 . S
C727 C718 1.390 . S
C727 H720 0.950 . S
C727 C724 1.387 . S
C728 C729 1.387 . S
C728 H732 0.950 . S
C728 C737 1.390 . S
C729 C728 1.387 . S
C729 C731 1.387 . S
H730 C737 0.950 . S
C731 C729 1.387 . S
C731 C733 1.390 . S
C731 H735 0.950 . S
H732 C728 0.950 . S
C733 C731 1.390 . S
C733 C734 1.387 . S
C733 H736 0.950 . S
C734 C733 1.387 . S
C734 C737 1.387 . S
H735 C731 0.950 . S
H736 C733 0.950 . S
C737 C728 1.390 . S
C737 H730 0.950 . S
C737 C734 1.387 . S
C738 C739 1.387 . S
C738 H742 0.950 . S
C738 C747 1.390 . S
C739 C738 1.387 . S
C739 C741 1.387 . S
H740 C747 0.950 . S
C741 C739 1.387 . S
C741 C743 1.390 . S
C741 H745 0.950 . S
H742 C738 0.950 . S
C743 C741 1.390 . S
C743 C744 1.387 . S
C743 H746 0.950 . S
C744 C743 1.387 . S
C744 C747 1.387 . S
H745 C741 0.950 . S
H746 C743 0.950 . S
C747 C738 1.390 . S
C747 H740 0.950 . S
C747 C744 1.387 . S
C748 C749 1.387 . S
C748 H752 0.950 . S
C748 C757 1.390 . S
C749 C748 1.387 . S
C749 C751 1.387 . S
H750 C757 0.950 . S
C751 C749 1.387 . S
C751 C753 1.390 . S
C751 H755 0.950 . S
H752 C748 0.950 . S
C753 C751 1.390 . S
C753 C754 1.387 . S
C753 H756 0.950 . S
C754 C753 1.387 . S
C754 C757 1.387 . S
H755 C751 0.950 . S
H756 C753 0.950 . S
C757 C748 1.390 . S
C757 H750 0.950 . S
C757 C754 1.387 . S
C758 C759 1.387 . S
C758 H762 0.950 . S
C758 C767 1.390 . S
C759 C758 1.387 . S
C759 C761 1.387 . S
H760 C767 0.950 . S
C761 C759 1.387 . S
C761 C763 1.390 . S
C761 H765 0.950 . S
H762 C758 0.950 . S
C763 C761 1.390 . S
C763 C764 1.387 . S
C763 H766 0.950 . S
C764 C763 1.387 . S
C764 C767 1.387 . S
H765 C761 0.950 . S
H766 C763 0.950 . S
C767 C758 1.390 . S
C767 H760 0.950 . S
C767 C764 1.387 . S
C768 C769 1.387 . S
C768 H772 0.950 . S
C768 C777 1.390 1_545 S
C769 C768 1.387 . S
C769 C771 1.387 1_554 S
H770 C777 0.950 . S
C771 C769 1.387 1_556 S
C771 C773 1.390 . S
C771 H775 0.950 . S
H772 C768 0.950 . S
C773 C771 1.390 . S
C773 C774 1.372 1_546 S
C773 H776 0.950 . S
C774 C773 1.372 1_564 S
C774 C777 1.404 . S
H775 C771 0.950 . S
H776 C773 0.950 . S
C777 C768 1.390 1_565 S
C777 H770 0.950 . S
C777 C774 1.404 . S
C778 C779 1.387 . S
C778 H782 0.950 . S
C778 C787 1.390 . S
C779 C778 1.387 . S
C779 C781 1.387 . S
H780 C787 0.950 . S
C781 C779 1.387 . S
C781 C783 1.390 . S
C781 H785 0.950 . S
H782 C778 0.950 . S
C783 C781 1.390 . S
C783 C784 1.387 . S
C783 H786 0.950 . S
C784 C783 1.387 . S
C784 C787 1.387 . S
H785 C781 0.950 . S
H786 C783 0.950 . S
C787 C778 1.390 . S
C787 H780 0.950 . S
C787 C784 1.387 . S
C788 C789 1.387 1_554 S
C788 H792 0.950 . S
C788 C797 1.390 1_455 S
C789 C788 1.387 1_556 S
C789 C791 1.387 . S
H790 C797 0.950 . S
C791 C789 1.387 . S
C791 C793 1.390 1_455 S
C791 H795 0.950 . S
H792 C788 0.950 . S
C793 C791 1.390 1_655 S
C793 C794 1.387 1_556 S
C793 H796 0.950 . S
C794 C793 1.387 1_554 S
C794 C797 1.387 . S
H795 C791 0.950 . S
H796 C793 0.950 . S
C797 C788 1.390 1_655 S
C797 H790 0.950 . S
C797 C794 1.387 . S
C798 C799 1.387 . S
C798 H802 0.950 . S
C798 C807 1.390 1_545 S
C799 C798 1.387 . S
C799 C801 1.387 . S
H800 C807 0.950 . S
C801 C799 1.387 . S
C801 C803 1.390 1_545 S
C801 H805 0.950 . S
H802 C798 0.950 . S
C803 C801 1.390 1_565 S
C803 C804 1.387 . S
C803 H806 0.950 . S
C804 C803 1.387 . S
C804 C807 1.387 . S
H805 C801 0.950 . S
H806 C803 0.950 . S
C807 C798 1.390 1_565 S
C807 H800 0.950 . S
C807 C804 1.387 . S
C808 C809 1.387 1_554 S
C808 H812 0.950 . S
C808 C817 1.390 . S
C809 C808 1.387 1_556 S
C809 C811 1.387 . S
H810 C817 0.950 . S
C811 C809 1.387 . S
C811 C813 1.390 . S
C811 H815 0.950 . S
H812 C808 0.950 . S
C813 C811 1.390 . S
C813 C814 1.387 . S
C813 H816 0.950 . S
C814 C813 1.387 . S
C814 C817 1.387 1_556 S
H815 C811 0.950 . S
H816 C813 0.950 . S
C817 C808 1.390 . S
C817 H810 0.950 . S
C817 C814 1.387 1_554 S
C818 C819 1.387 . S
C818 H822 0.950 . S
C818 C827 1.390 1_655 S
C819 C818 1.387 . S
C819 C821 1.387 . S
H820 C827 0.950 . S
C821 C819 1.387 . S
C821 C823 1.390 1_655 S
C821 H825 0.950 . S
H822 C818 0.950 . S
C823 C821 1.390 1_455 S
C823 C824 1.387 . S
C823 H826 0.950 . S
C824 C823 1.387 . S
C824 C827 1.387 . S
H825 C821 0.950 . S
H826 C823 0.950 . S
C827 C818 1.390 1_455 S
C827 H820 0.950 . S
C827 C824 1.387 . S
C828 C829 1.387 . S
C828 H832 0.950 . S
C828 C837 1.390 . S
C829 C828 1.387 . S
C829 C831 1.387 . S
H830 C837 0.950 . S
C831 C829 1.387 . S
C831 C833 1.390 . S
C831 H835 0.950 1_554 S
H832 C828 0.950 . S
C833 C831 1.390 . S
C833 C834 1.387 . S
C833 H836 0.950 . S
C834 C833 1.387 . S
C834 C837 1.387 . S
H835 C831 0.950 1_556 S
H836 C833 0.950 . S
C837 C828 1.390 . S
C837 H830 0.950 . S
C837 C834 1.387 . S
C838 C839 1.387 . S
C838 H842 0.950 . S
C838 C847 1.390 . S
C839 C838 1.387 . S
C839 C841 1.387 . S
H840 C847 0.950 . S
C841 C839 1.387 . S
C841 C843 1.390 . S
C841 H845 0.950 . S
H842 C838 0.950 . S
C843 C841 1.390 . S
C843 C844 1.387 . S
C843 H846 0.950 . S
C844 C843 1.387 . S
C844 C847 1.387 . S
H845 C841 0.950 . S
H846 C843 0.950 . S
C847 C838 1.390 . S
C847 H840 0.950 . S
C847 C844 1.387 . S
C848 C849 1.387 . S
C848 H852 0.950 . S
C848 C857 1.390 . S
C849 C848 1.387 . S
C849 C851 1.387 1_554 S
H850 C857 0.950 . S
C851 C849 1.387 1_556 S
C851 C853 1.381 1_556 S
C851 H855 0.950 . S
H852 C848 0.950 . S
C853 C851 1.381 1_554 S
C853 C854 1.411 . S
C853 H856 0.935 1_554 S
C854 C853 1.411 . S
C854 C857 1.387 . S
H855 C851 0.950 . S
H856 C853 0.935 1_556 S
C857 C848 1.390 . S
C857 H850 0.950 . S
C857 C854 1.387 . S
C858 C859 1.387 . S
C858 H862 0.950 . S
C858 C867 1.390 . S
C859 C858 1.387 . S
C859 C861 1.387 . S
H860 C867 0.950 . S
C861 C859 1.387 . S
C861 C863 1.390 . S
C861 H865 0.950 . S
H862 C858 0.950 . S
C863 C861 1.390 . S
C863 C864 1.387 . S
C863 H866 0.950 . S
C864 C863 1.387 . S
C864 C867 1.387 . S
H865 C861 0.950 . S
H866 C863 0.950 . S
C867 C858 1.390 . S
C867 H860 0.950 . S
C867 C864 1.387 . S
C868 C869 1.387 1_556 S
C868 H872 0.950 . S
C868 C877 1.390 1_556 S
C869 C868 1.387 1_554 S
C869 C871 1.387 . S
H870 C877 0.950 1_556 S
C871 C869 1.387 . S
C871 C873 1.390 . S
C871 H875 0.950 . S
H872 C868 0.950 . S
C873 C871 1.390 . S
C873 C874 1.387 . S
C873 H876 0.950 . S
C874 C873 1.387 . S
C874 C877 1.387 . S
H875 C871 0.950 . S
H876 C873 0.950 . S
C877 C868 1.390 1_554 S
C877 H870 0.950 1_554 S
C877 C874 1.387 . S
C878 C879 1.387 . S
C878 H882 0.950 . S
C878 C887 1.390 . S
C879 C878 1.387 . S
C879 C881 1.387 . S
H880 C887 0.950 . S
C881 C879 1.387 . S
C881 C883 1.390 . S
C881 H885 0.950 . S
H882 C878 0.950 . S
C883 C881 1.390 . S
C883 C884 1.387 . S
C883 H886 0.950 . S
C884 C883 1.387 . S
C884 C887 1.387 . S
H885 C881 0.950 . S
H886 C883 0.950 . S
C887 C878 1.390 . S
C887 H880 0.950 . S
C887 C884 1.387 . S
C888 C889 1.387 . S
C888 H892 0.950 . S
C888 C897 1.390 . S
C889 C888 1.387 . S
C889 C891 1.387 . S
H890 C897 0.950 . S
C891 C889 1.387 . S
C891 C893 1.390 . S
C891 H895 0.950 . S
H892 C888 0.950 . S
C893 C891 1.390 . S
C893 C894 1.387 . S
C893 H896 0.950 . S
C894 C893 1.387 . S
C894 C897 1.387 . S
H895 C891 0.950 . S
H896 C893 0.950 . S
C897 C888 1.390 . S
C897 H890 0.950 . S
C897 C894 1.387 . S
C898 C899 1.387 . S
C898 H902 0.950 . S
C898 C907 1.390 . S
C899 C898 1.387 . S
C899 C901 1.387 1_556 S
H900 C907 0.950 . S
C901 C899 1.387 1_554 S
C901 C903 1.390 1_554 S
C901 H905 0.950 . S
H902 C898 0.950 . S
C903 C901 1.390 1_556 S
C903 C904 1.387 . S
C903 H906 0.950 . S
C904 C903 1.387 . S
C904 C907 1.387 . S
H905 C901 0.950 . S
H906 C903 0.950 . S
C907 C898 1.390 . S
C907 H900 0.950 . S
C907 C904 1.387 . S
C908 C909 1.387 . S
C908 H912 0.950 . S
C908 C917 1.390 . S
C909 C908 1.387 . S
C909 C911 1.387 . S
H910 C917 0.950 . S
C911 C909 1.387 . S
C911 C913 1.390 . S
C911 H915 0.950 . S
H912 C908 0.950 . S
C913 C911 1.390 . S
C913 C914 1.387 . S
C913 H916 0.950 . S
C914 C913 1.387 . S
C914 C917 1.387 . S
H915 C911 0.950 . S
H916 C913 0.950 . S
C917 C908 1.390 . S
C917 H910 0.950 . S
C917 C914 1.387 . S
C918 C919 1.387 1_554 S
C918 H922 0.950 . S
C918 C927 1.390 1_554 S
C919 C918 1.387 1_556 S
C919 C921 1.387 . S
H920 C927 0.950 . S
C921 C919 1.387 . S
C921 C923 1.390 . S
C921 H925 0.950 . S
H922 C918 0.950 . S
C923 C921 1.390 . S
C923 C924 1.387 . S
C923 H926 0.950 . S
C924 C923 1.387 . S
C924 C927 1.387 . S
H925 C921 0.950 . S
H926 C923 0.950 . S
C927 C918 1.390 1_556 S
C927 H920 0.950 . S
C927 C924 1.387 . S
C928 C929 1.387 . S
C928 H932 0.950 . S
C928 C937 1.390 . S
C929 C928 1.387 . S
C929 C931 1.387 . S
H930 C937 0.950 . S
C931 C929 1.387 . S
C931 C933 1.390 . S
C931 H935 0.950 . S
H932 C928 0.950 . S
C933 C931 1.390 . S
C933 C934 1.387 . S
C933 H936 0.950 . S
C934 C933 1.387 . S
C934 C937 1.387 . S
H935 C931 0.950 . S
H936 C933 0.950 . S
C937 C928 1.390 . S
C937 H930 0.950 . S
C937 C934 1.387 . S
C938 C939 1.387 . S
C938 H942 0.950 1_556 S
C938 C947 1.390 . S
C939 C938 1.387 . S
C939 C941 1.387 . S
H940 C947 0.950 . S
C941 C939 1.387 . S
C941 C943 1.390 . S
C941 H945 0.950 . S
H942 C938 0.950 1_554 S
C943 C941 1.390 . S
C943 C944 1.387 . S
C943 H946 0.950 . S
C944 C943 1.387 . S
C944 C947 1.387 . S
H945 C941 0.950 . S
H946 C943 0.950 . S
C947 C938 1.390 . S
C947 H940 0.950 . S
C947 C944 1.387 . S
C709 C593 1.745 . S
C714 C3 1.716 . S
C719 C62 1.745 . S
C724 C654 1.725 . S
C729 C123 1.733 . S
C734 C357 1.720 . S
C739 C416 1.745 . S
C744 C180 1.716 . S
C749 C477 1.725 . S
C754 C239 1.743 . S
C759 C300 1.734 . S
C764 C534 1.719 . S
C769 C5 1.559 . S
C774 C418 1.486 1_554 S
C779 C64 1.488 . S
C784 C475 1.551 . S
C789 C536 1.250 . S
C794 C121 1.264 . S
C799 C595 1.490 . S
C804 C182 1.558 . S
C809 C652 1.551 . S
C814 C241 1.488 1_556 S
C819 C359 1.249 . S
C824 C298 1.264 . S
C829 C33 1.507 . S
C834 C288 1.624 . S
C839 C92 1.354 . S
C844 C328 1.659 . S
C849 C170 1.166 . S
C854 C52 1.262 . S
C859 C210 1.507 . S
C864 C111 1.624 . S
C869 C269 1.354 . S
C874 C151 1.660 . S
C879 C347 1.165 . S
C884 C229 1.262 . S
C889 C387 1.165 . S
C894 C505 1.251 . S
C899 C446 1.356 . S
C904 C583 1.655 . S
C909 C642 1.622 . S
C914 C524 1.510 . S
C919 C564 1.169 . S
C924 C682 1.254 . S
C929 C623 1.354 . S
C934 C406 1.654 . S
C939 C701 1.510 . S
C944 C465 1.623 . S
