# Generated by pormake.
# Topology uoc, (4)-cn, num edge types: 1
# Building blocks:
#     Node 0, Type 0, BuildingBlock: QUQFOY_clean_sbu_1, # of connection points: 4
#     Node 1, Type 0, BuildingBlock: QUQFOY_clean_sbu_1, # of connection points: 4
#     Node 2, Type 0, BuildingBlock: QUQFOY_clean_sbu_1, # of connection points: 4
#     Node 3, Type 0, BuildingBlock: QUQFOY_clean_sbu_1, # of connection points: 4
#     Node 4, Type 0, BuildingBlock: QUQFOY_clean_sbu_1, # of connection points: 4
#     Node 5, Type 0, BuildingBlock: QUQFOY_clean_sbu_1, # of connection points: 4
#     Node 6, Type 0, BuildingBlock: QUQFOY_clean_sbu_1, # of connection points: 4
#     Node 7, Type 0, BuildingBlock: QUQFOY_clean_sbu_1, # of connection points: 4
#     Edge 8, Type (0, 0), BuildingBlock: OJICUG_clean_linker_0, # of connection points: 2
#     Edge 9, Type (0, 0), BuildingBlock: OJICUG_clean_linker_0, # of connection points: 2
#     Edge 10, Type (0, 0), BuildingBlock: OJICUG_clean_linker_0, # of connection points: 2
#     Edge 11, Type (0, 0), BuildingBlock: OJICUG_clean_linker_0, # of connection points: 2
#     Edge 12, Type (0, 0), BuildingBlock: OJICUG_clean_linker_0, # of connection points: 2
#     Edge 13, Type (0, 0), BuildingBlock: OJICUG_clean_linker_0, # of connection points: 2
#     Edge 14, Type (0, 0), BuildingBlock: OJICUG_clean_linker_0, # of connection points: 2
#     Edge 15, Type (0, 0), BuildingBlock: OJICUG_clean_linker_0, # of connection points: 2
#     Edge 16, Type (0, 0), BuildingBlock: OJICUG_clean_linker_0, # of connection points: 2
#     Edge 17, Type (0, 0), BuildingBlock: OJICUG_clean_linker_0, # of connection points: 2
#     Edge 18, Type (0, 0), BuildingBlock: OJICUG_clean_linker_0, # of connection points: 2
#     Edge 19, Type (0, 0), BuildingBlock: OJICUG_clean_linker_0, # of connection points: 2
#     Edge 20, Type (0, 0), BuildingBlock: OJICUG_clean_linker_0, # of connection points: 2
#     Edge 21, Type (0, 0), BuildingBlock: OJICUG_clean_linker_0, # of connection points: 2
#     Edge 22, Type (0, 0), BuildingBlock: OJICUG_clean_linker_0, # of connection points: 2
#     Edge 23, Type (0, 0), BuildingBlock: OJICUG_clean_linker_0, # of connection points: 2
# Relax obj value: 0.069
# Max RMSD: 0.095
# Mean RMSD: 0.095
data_MOF--net-uoc--node1-QUQFOY_clean_sbu_1--edge1-OJICUG_clean_linker_0
_symmetry_space_group_name_H-M    P1
_symmetry_Int_Tables_number       1
_symmetry_cell_setting            triclinic
loop_
_symmetry_equiv_pos_as_xyz
'x, y, z'
_cell_length_a     20.415068
_cell_length_b     20.398806
_cell_length_c     40.668387
_cell_angle_alpha  90.032761
_cell_angle_beta   89.937135
_cell_angle_gamma 104.84988
loop_
_atom_site_label
_atom_site_type_symbol
_atom_site_fract_x
_atom_site_fract_y
_atom_site_fract_z
_atom_type_partial_charge
O0 O 0.1377 0.11882 0.13856 0.0
Cd1 Cd 0.19863 0.21452 0.14535 0.0
Cd2 Cd 0.0804 0.24825 0.14898 0.0
O3 O 0.04328 0.15044 0.13123 0.0
O4 O 0.28395 0.21902 0.12068 0.0
O5 O 0.20902 0.27583 0.10661 0.0
C6 C 0.26337 0.25707 0.09975 0.0
C7 C 0.04303 0.33948 0.12855 0.0
C8 C 0.07519 0.10439 0.13128 0.0
C9 C 0.16579 0.25925 0.21066 0.0
O10 O 0.10898 0.25914 0.19782 0.0
O11 O 0.21321 0.24721 0.19327 0.0
O12 O 0.00359 0.29204 0.14551 0.0
O13 O 0.10298 0.33352 0.12169 0.0
O14 O 0.64921 0.6087 0.41813 0.0
Cd15 Cd 0.7449 0.66959 0.41141 0.0
Cd16 Cd 0.77834 0.5509 0.40769 0.0
O17 O 0.68056 0.51407 0.42552 0.0
O18 O 0.75028 0.75447 0.43672 0.0
O19 O 0.80622 0.67831 0.45 0.0
C20 C 0.78804 0.73276 0.45737 0.0
C21 C 0.86953 0.5133 0.42798 0.0
C22 C 0.63465 0.54614 0.42544 0.0
C23 C 0.78927 0.63663 0.34602 0.0
O24 O 0.78901 0.57972 0.35886 0.0
O25 O 0.77756 0.68421 0.36343 0.0
O26 O 0.82204 0.4739 0.41106 0.0
O27 O 0.86364 0.57328 0.43487 0.0
O28 O 0.36227 0.31836 0.64065 0.0
Cd29 Cd 0.30503 0.21938 0.64518 0.0
Cd30 Cd 0.42554 0.19779 0.65104 0.0
O31 O 0.45729 0.29118 0.62903 0.0
O32 O 0.21946 0.21302 0.62022 0.0
O33 O 0.29891 0.1629 0.60485 0.0
C34 C 0.24286 0.17868 0.59847 0.0
C35 C 0.45967 0.10348 0.63265 0.0
C36 C 0.42355 0.33543 0.63101 0.0
C37 C 0.33978 0.18263 0.71126 0.0
O38 O 0.39999 0.19727 0.70016 0.0
O39 O 0.28986 0.17875 0.692 0.0
O40 O 0.50143 0.15284 0.64747 0.0
O41 O 0.39899 0.10883 0.62718 0.0
O42 O 0.85312 0.83937 0.9196 0.0
Cd43 Cd 0.75835 0.77695 0.91194 0.0
Cd44 Cd 0.72434 0.89494 0.90687 0.0
O45 O 0.82116 0.93418 0.92494 0.0
O46 O 0.75411 0.69204 0.93697 0.0
O47 O 0.69523 0.76582 0.95007 0.0
C48 C 0.71457 0.712 0.95736 0.0
C49 C 0.63196 0.9314 0.92616 0.0
C50 C 0.86712 0.90233 0.92609 0.0
C51 C 0.7155 0.80769 0.8459 0.0
O52 O 0.71489 0.86475 0.85831 0.0
O53 O 0.72759 0.76092 0.86372 0.0
O54 O 0.6793 -0.02916 0.90916 0.0
O55 O 0.63871 0.87205 0.93375 0.0
O56 O 0.62852 0.632 0.63333 0.0
Cd57 Cd 0.69205 0.72683 0.63949 0.0
Cd58 Cd 0.57562 0.76148 0.64814 0.0
O59 O 0.53344 0.66416 0.63126 0.0
O60 O 0.77448 0.72898 0.6129 0.0
O61 O 0.70115 0.78902 0.60101 0.0
C62 C 0.75382 0.76849 0.59281 0.0
C63 C 0.53745 0.8536 0.62998 0.0
C64 C 0.56486 0.61798 0.62896 0.0
C65 C 0.66935 0.77059 0.70655 0.0
O66 O 0.61122 0.77176 0.69579 0.0
O67 O 0.71373 0.75781 0.68736 0.0
O68 O 0.5 0.80688 0.64808 0.0
O69 O 0.59571 0.84641 0.62072 0.0
O70 O 0.16686 0.10516 0.92094 0.0
Cd71 Cd 0.26576 0.16294 0.91724 0.0
Cd72 Cd 0.28717 0.04334 0.90864 0.0
O73 O 0.1937 0.00904 0.93025 0.0
O74 O 0.27082 0.24685 0.9434 0.0
O75 O 0.32179 0.1674 0.95765 0.0
C76 C 0.30514 0.22272 0.96482 0.0
C77 C 0.38168 0.00837 0.92582 0.0
C78 C 0.14954 0.04297 0.92913 0.0
C79 C 0.30152 0.13398 0.85018 0.0
O80 O 0.28727 0.07292 0.86013 0.0
O81 O 0.30582 0.18238 0.87047 0.0
O82 O 0.33267 0.96765 0.9103 0.0
O83 O 0.3759 0.06844 0.93265 0.0
O84 O 0.86694 0.80801 0.13403 0.0
Cd85 Cd 0.80499 0.71237 0.13956 0.0
Cd86 Cd 0.92221 0.67837 0.14666 0.0
O87 O 0.96204 0.77639 0.12976 0.0
O88 O 0.7223 0.70912 0.11305 0.0
O89 O 0.79764 0.6516 0.10066 0.0
C90 C 0.74435 0.67114 0.09261 0.0
C91 C 0.96132 0.58715 0.1275 0.0
C92 C 0.93029 0.8225 0.12868 0.0
C93 C 0.83027 0.66793 0.20604 0.0
O94 O 0.88828 0.66753 0.19474 0.0
O95 O 0.78493 0.68003 0.1873 0.0
O96 O 0.99892 0.63413 0.14539 0.0
O97 O 0.90231 0.59348 0.11907 0.0
O98 O 0.33819 0.33834 0.42245 0.0
Cd99 Cd 0.24258 0.27648 0.41692 0.0
Cd100 Cd 0.20887 0.39369 0.40977 0.0
O101 O 0.30677 0.4336 0.4267 0.0
O102 O 0.24014 0.19322 0.44283 0.0
O103 O 0.18211 0.26769 0.45603 0.0
C104 C 0.2021 0.21436 0.46359 0.0
C105 C 0.11744 0.43222 0.42902 0.0
C106 C 0.35278 0.40173 0.42779 0.0
C107 C 0.19822 0.30178 0.35045 0.0
O108 O 0.19804 0.35992 0.36168 0.0
O109 O 0.21019 0.25641 0.36924 0.0
O110 O 0.16434 0.47017 0.4112 0.0
O111 O 0.12401 0.37319 0.43737 0.0
C112 C 0.26608 0.30382 0.04283 0.0
C113 C 0.29288 0.26736 0.06631 0.0
H114 H 0.25047 0.31952 0.99176 0.0
C115 C 0.33754 0.22931 0.05583 0.0
H116 H 0.23219 0.33431 0.05014 0.0
C117 C 0.34764 0.22038 1.0223 0.0
C118 C 0.31372 0.24986 0.99874 0.0
H119 H 0.35971 0.20119 0.07331 0.0
H120 H 0.37737 0.18583 1.01494 0.0
C121 C 0.27665 0.29535 1.00929 0.0
C122 C 0.84119 0.61045 0.29368 0.0
C123 C 0.80047 0.64576 0.31031 0.0
H124 H 0.88304 0.59044 0.24756 0.0
C125 C 0.76813 0.68714 0.29228 0.0
H126 H 0.86654 0.57808 0.30702 0.0
C127 C 0.77588 0.69254 0.25813 0.0
C128 C 0.81758 0.6581 0.24162 0.0
H129 H 0.7359 0.71433 0.3045 0.0
H130 H 0.75057 0.72487 0.24476 0.0
C131 C 0.85047 0.61735 0.25972 0.0
C132 C 0.16879 0.20657 0.55459 0.0
C133 C 0.21388 0.16895 0.56495 0.0
H134 H 0.12868 0.24993 0.5138 0.0
C135 C 0.24129 0.13313 0.54138 0.0
H136 H 0.14625 0.23425 0.57216 0.0
C137 C 0.23078 0.14173 0.50788 0.0
C138 C 0.1932 0.18679 0.49742 0.0
H139 H 0.27546 0.10293 0.54862 0.0
H140 H 0.25733 0.11795 0.49031 0.0
C141 C 0.15873 0.21563 0.52106 0.0
C142 C 0.73494 0.75472 0.79241 0.0
C143 C 0.7035 0.79712 0.81033 0.0
H144 H 0.75037 0.71467 0.74504 0.0
C145 C 0.66229 0.83184 0.79374 0.0
H146 H 0.76746 0.72791 0.80462 0.0
C147 C 0.65167 0.82342 0.75995 0.0
C148 C 0.68355 0.78161 0.74193 0.0
H149 H 0.63752 0.8649 0.80697 0.0
H150 H 0.61879 0.85001 0.74786 0.0
C151 C 0.72577 0.74774 0.75837 0.0
C152 C 0.22216 0.24665 0.29848 0.0
C153 C 0.18817 0.28883 0.31492 0.0
H154 H 0.24329 0.20584 0.25221 0.0
C155 C 0.14749 0.32174 0.29679 0.0
H156 H 0.25441 0.22128 0.31188 0.0
C157 C 0.14022 0.312 0.26287 0.0
C158 C 0.1751 0.27079 0.24632 0.0
H159 H 0.1209 0.35467 0.3089 0.0
H160 H 0.10794 0.3374 0.24951 0.0
C161 C 0.21641 0.23843 0.26437 0.0
C162 C 0.75213 0.81421 0.53585 0.0
C163 C 0.78117 0.77881 0.55893 0.0
H164 H 0.73304 0.82871 0.48503 0.0
C165 C 0.82631 0.74186 0.54779 0.0
H166 H 0.71783 0.84388 0.54364 0.0
C167 C 0.83478 0.73283 0.51413 0.0
C168 C 0.79859 0.76097 0.49106 0.0
H169 H 0.85028 0.71467 0.56494 0.0
H170 H 0.865 0.69902 0.50635 0.0
C171 C 0.76096 0.80555 0.50217 0.0
C172 C 0.37221 0.21295 0.76944 0.0
C173 C 0.32858 0.17138 0.74678 0.0
H174 H 0.39647 0.23479 0.8203 0.0
C175 C 0.27536 0.11845 0.75834 0.0
H176 H 0.41346 0.25429 0.761 0.0
C177 C 0.26712 0.10602 0.79207 0.0
C178 C 0.31046 0.14785 0.81474 0.0
H179 H 0.2413 0.08569 0.74127 0.0
H180 H 0.22642 0.06411 0.80049 0.0
C181 C 0.36245 0.20203 0.80323 0.0
C182 C 0.673 0.69903 0.04751 0.0
C183 C 0.71797 0.66187 0.05856 0.0
H184 H 0.63563 0.74343 1.00624 0.0
C185 C 0.74803 0.6276 0.03534 0.0
H186 H 0.6483 0.72539 0.06476 0.0
C187 C 0.74042 0.63766 1.0017 0.0
C188 C 0.70298 0.6825 0.99078 0.0
H189 H 0.78223 0.59779 0.04305 0.0
H190 H 0.76907 0.61534 0.98451 0.0
C191 C 0.66574 0.70945 1.01388 0.0
C192 C 0.07394 -0.01811 0.12528 0.0
C193 C 0.03856 0.0327 0.12562 0.0
H194 H 0.06759 0.87558 0.12561 0.0
C195 C 0.96757 0.01365 0.12324 0.0
H196 H 0.12873 -0.00516 0.12678 0.0
C197 C 0.93253 0.94519 0.12262 0.0
C198 C 0.96773 0.89433 0.12425 0.0
H199 H 0.93879 0.05148 0.12323 0.0
H200 H 0.87765 0.93222 0.12206 0.0
C201 C 0.0389 0.91343 0.12454 0.0
C202 C 0.99228 0.40411 0.43779 0.0
C203 C 0.0547 0.45304 0.43606 0.0
H204 H 0.88403 0.38504 0.43626 0.0
C205 C 0.0554 0.52208 0.43646 0.0
H206 H 0.99027 0.35053 0.43734 0.0
C207 C 0.99466 0.54183 0.43666 0.0
C208 C 0.93222 0.49282 0.43551 0.0
H209 H 0.10289 0.56081 0.4352 0.0
H210 H 0.99671 0.59537 0.43535 0.0
C211 C 0.93152 0.42383 0.43705 0.0
C212 C 0.42187 0.45781 0.6286 0.0
C213 C 0.45768 0.40774 0.62531 0.0
H214 H 0.42759 0.56386 0.63197 0.0
C215 C 0.5278 0.42787 0.61935 0.0
H216 H 0.36771 0.44397 0.63296 0.0
C217 C 0.56206 0.49646 0.6189 0.0
C218 C 0.52695 0.54646 0.62422 0.0
H219 H 0.55687 0.39066 0.61642 0.0
H220 H 0.61654 0.51014 0.61556 0.0
C221 C 0.45616 0.52655 0.62797 0.0
C222 C 0.5067 0.90131 0.93447 0.0
C223 C 0.5686 0.95104 0.93304 0.0
H224 H 0.39837 0.88066 0.93293 0.0
C225 C 0.56828 0.01981 0.93363 0.0
H226 H 0.50549 0.84791 0.93387 0.0
C227 C 0.50704 0.03853 0.93379 0.0
C228 C 0.44514 -0.01124 0.93248 0.0
H229 H 0.61537 0.05913 0.93261 0.0
H230 H 0.50831 0.09191 0.93277 0.0
C231 C 0.44543 0.92002 0.93376 0.0
C232 C 0.05152 0.52546 0.12029 0.0
C233 C 0.98247 0.52456 0.12045 0.0
H234 H 0.12494 0.46694 0.12159 0.0
C235 C 0.93376 0.46202 0.11844 0.0
H236 H 0.09008 0.57305 0.12177 0.0
C237 C 0.95364 0.40131 0.11915 0.0
C238 C 0.02259 0.40219 0.12095 0.0
H239 H 0.88018 0.45984 0.11869 0.0
H240 H 0.91498 0.3537 0.11973 0.0
C241 C 0.07145 0.46477 0.12007 0.0
C242 C 0.47526 0.40366 0.43398 0.0
C243 C 0.42458 0.43905 0.43228 0.0
H244 H 0.58142 0.40965 0.43349 0.0
C245 C 0.44383 0.51027 0.43199 0.0
H246 H 0.46217 0.34874 0.43454 0.0
C247 C 0.51229 0.54518 0.43132 0.0
C248 C 0.56294 0.50963 0.43105 0.0
H249 H 0.40611 0.5391 0.43087 0.0
H250 H 0.52537 0.60002 0.42982 0.0
C251 C 0.54372 0.43858 0.43343 0.0
C252 C 0.54758 0.04001 0.62259 0.0
C253 C 0.47898 0.04006 0.62535 0.0
H254 H 0.61984 -0.01981 0.62078 0.0
C255 C 0.42937 -0.02202 0.62492 0.0
H256 H 0.5868 0.08723 0.62272 0.0
C257 C 0.44832 0.91683 0.62452 0.0
C258 C 0.51708 0.91677 0.62364 0.0
H259 H 0.37612 -0.02348 0.62709 0.0
H260 H 0.40928 0.86962 0.62627 0.0
C261 C 0.56644 -0.02119 0.62131 0.0
C262 C 0.95858 0.01049 0.93094 0.0
C263 C 0.93841 0.93929 0.93217 0.0
H264 H 0.0414 0.09935 0.92918 0.0
C265 C 0.98802 0.9033 0.93637 0.0
H266 H 0.92156 0.03972 0.92788 0.0
C267 C 0.05659 0.93743 0.93727 0.0
C268 C 0.07709 0.00828 0.93377 0.0
H269 H 0.9741 0.84844 0.93779 0.0
H270 H 0.09356 0.90786 0.93921 0.0
C271 C 0.0273 0.04465 0.93164 0.0
loop_
_geom_bond_atom_site_label_1
_geom_bond_atom_site_label_2
_geom_bond_distance
_geom_bond_site_symmetry_2
_ccdc_geom_bond_type
O0 Cd1 2.223 . S
O0 C8 1.315 . S
Cd1 O0 2.223 . S
Cd1 O4 2.297 . S
Cd1 O5 2.439 . S
Cd1 O11 2.240 . S
Cd2 O3 2.240 . S
Cd2 O10 2.223 . S
Cd2 O12 2.297 . S
Cd2 O13 2.439 . S
O3 Cd2 2.240 . S
O3 C8 1.279 . S
O4 Cd1 2.297 . S
O4 C6 1.247 . S
O5 Cd1 2.439 . S
O5 C6 1.208 . S
C6 O4 1.247 . S
C6 O5 1.208 . S
C7 O12 1.247 . S
C7 O13 1.208 . S
C8 O0 1.315 . S
C8 O3 1.279 . S
C9 O10 1.315 . S
C9 O11 1.279 . S
O10 Cd2 2.223 . S
O10 C9 1.315 . S
O11 Cd1 2.240 . S
O11 C9 1.279 . S
O12 Cd2 2.297 . S
O12 C7 1.247 . S
O13 Cd2 2.439 . S
O13 C7 1.208 . S
O14 Cd15 2.223 . S
O14 C22 1.315 . S
Cd15 O14 2.223 . S
Cd15 O18 2.297 . S
Cd15 O19 2.439 . S
Cd15 O25 2.240 . S
Cd16 O17 2.240 . S
Cd16 O24 2.223 . S
Cd16 O26 2.297 . S
Cd16 O27 2.439 . S
O17 Cd16 2.240 . S
O17 C22 1.279 . S
O18 Cd15 2.297 . S
O18 C20 1.247 . S
O19 Cd15 2.439 . S
O19 C20 1.208 . S
C20 O18 1.247 . S
C20 O19 1.208 . S
C21 O26 1.247 . S
C21 O27 1.208 . S
C22 O14 1.315 . S
C22 O17 1.279 . S
C23 O24 1.315 . S
C23 O25 1.279 . S
O24 Cd16 2.223 . S
O24 C23 1.315 . S
O25 Cd15 2.240 . S
O25 C23 1.279 . S
O26 Cd16 2.297 . S
O26 C21 1.247 . S
O27 Cd16 2.439 . S
O27 C21 1.208 . S
O28 Cd29 2.223 . S
O28 C36 1.315 . S
Cd29 O28 2.223 . S
Cd29 O32 2.297 . S
Cd29 O33 2.439 . S
Cd29 O39 2.240 . S
Cd30 O31 2.240 . S
Cd30 O38 2.223 . S
Cd30 O40 2.297 . S
Cd30 O41 2.439 . S
O31 Cd30 2.240 . S
O31 C36 1.279 . S
O32 Cd29 2.297 . S
O32 C34 1.247 . S
O33 Cd29 2.439 . S
O33 C34 1.208 . S
C34 O32 1.247 . S
C34 O33 1.208 . S
C35 O40 1.247 . S
C35 O41 1.208 . S
C36 O28 1.315 . S
C36 O31 1.279 . S
C37 O38 1.315 . S
C37 O39 1.279 . S
O38 Cd30 2.223 . S
O38 C37 1.315 . S
O39 Cd29 2.240 . S
O39 C37 1.279 . S
O40 Cd30 2.297 . S
O40 C35 1.247 . S
O41 Cd30 2.439 . S
O41 C35 1.208 . S
O42 Cd43 2.223 . S
O42 C50 1.315 . S
Cd43 O42 2.223 . S
Cd43 O46 2.297 . S
Cd43 O47 2.439 . S
Cd43 O53 2.240 . S
Cd44 O45 2.240 . S
Cd44 O52 2.223 . S
Cd44 O54 2.297 . S
Cd44 O55 2.439 . S
O45 Cd44 2.240 . S
O45 C50 1.279 . S
O46 Cd43 2.297 . S
O46 C48 1.247 . S
O47 Cd43 2.439 . S
O47 C48 1.208 . S
C48 O46 1.247 . S
C48 O47 1.208 . S
C49 O54 1.247 . S
C49 O55 1.208 . S
C50 O42 1.315 . S
C50 O45 1.279 . S
C51 O52 1.315 . S
C51 O53 1.279 . S
O52 Cd44 2.223 . S
O52 C51 1.315 . S
O53 Cd43 2.240 . S
O53 C51 1.279 . S
O54 Cd44 2.297 . S
O54 C49 1.247 . S
O55 Cd44 2.439 . S
O55 C49 1.208 . S
O56 Cd57 2.223 . S
O56 C64 1.315 . S
Cd57 O56 2.223 . S
Cd57 O60 2.297 . S
Cd57 O61 2.439 . S
Cd57 O67 2.240 . S
Cd58 O59 2.240 . S
Cd58 O66 2.223 . S
Cd58 O68 2.297 . S
Cd58 O69 2.439 . S
O59 Cd58 2.240 . S
O59 C64 1.279 . S
O60 Cd57 2.297 . S
O60 C62 1.247 . S
O61 Cd57 2.439 . S
O61 C62 1.208 . S
C62 O60 1.247 . S
C62 O61 1.208 . S
C63 O68 1.247 . S
C63 O69 1.208 . S
C64 O56 1.315 . S
C64 O59 1.279 . S
C65 O66 1.315 . S
C65 O67 1.279 . S
O66 Cd58 2.223 . S
O66 C65 1.315 . S
O67 Cd57 2.240 . S
O67 C65 1.279 . S
O68 Cd58 2.297 . S
O68 C63 1.247 . S
O69 Cd58 2.439 . S
O69 C63 1.208 . S
O70 Cd71 2.223 . S
O70 C78 1.315 . S
Cd71 O70 2.223 . S
Cd71 O74 2.297 . S
Cd71 O75 2.439 . S
Cd71 O81 2.240 . S
Cd72 O73 2.240 . S
Cd72 O80 2.223 . S
Cd72 O82 2.297 . S
Cd72 O83 2.439 . S
O73 Cd72 2.240 . S
O73 C78 1.279 . S
O74 Cd71 2.297 . S
O74 C76 1.247 . S
O75 Cd71 2.439 . S
O75 C76 1.208 . S
C76 O74 1.247 . S
C76 O75 1.208 . S
C77 O82 1.247 . S
C77 O83 1.208 . S
C78 O70 1.315 . S
C78 O73 1.279 . S
C79 O80 1.315 . S
C79 O81 1.279 . S
O80 Cd72 2.223 . S
O80 C79 1.315 . S
O81 Cd71 2.240 . S
O81 C79 1.279 . S
O82 Cd72 2.297 . S
O82 C77 1.247 . S
O83 Cd72 2.439 . S
O83 C77 1.208 . S
O84 Cd85 2.223 . S
O84 C92 1.315 . S
Cd85 O84 2.223 . S
Cd85 O88 2.297 . S
Cd85 O89 2.439 . S
Cd85 O95 2.240 . S
Cd86 O87 2.240 . S
Cd86 O94 2.223 . S
Cd86 O96 2.297 . S
Cd86 O97 2.439 . S
O87 Cd86 2.240 . S
O87 C92 1.279 . S
O88 Cd85 2.297 . S
O88 C90 1.247 . S
O89 Cd85 2.439 . S
O89 C90 1.208 . S
C90 O88 1.247 . S
C90 O89 1.208 . S
C91 O96 1.247 . S
C91 O97 1.208 . S
C92 O84 1.315 . S
C92 O87 1.279 . S
C93 O94 1.315 . S
C93 O95 1.279 . S
O94 Cd86 2.223 . S
O94 C93 1.315 . S
O95 Cd85 2.240 . S
O95 C93 1.279 . S
O96 Cd86 2.297 . S
O96 C91 1.247 . S
O97 Cd86 2.439 . S
O97 C91 1.208 . S
O98 Cd99 2.223 . S
O98 C106 1.315 . S
Cd99 O98 2.223 . S
Cd99 O102 2.297 . S
Cd99 O103 2.439 . S
Cd99 O109 2.240 . S
Cd100 O101 2.240 . S
Cd100 O108 2.223 . S
Cd100 O110 2.297 . S
Cd100 O111 2.439 . S
O101 Cd100 2.240 . S
O101 C106 1.279 . S
O102 Cd99 2.297 . S
O102 C104 1.247 . S
O103 Cd99 2.439 . S
O103 C104 1.208 . S
C104 O102 1.247 . S
C104 O103 1.208 . S
C105 O110 1.247 . S
C105 O111 1.208 . S
C106 O98 1.315 . S
C106 O101 1.279 . S
C107 O108 1.315 . S
C107 O109 1.279 . S
O108 Cd100 2.223 . S
O108 C107 1.315 . S
O109 Cd99 2.240 . S
O109 C107 1.279 . S
O110 Cd100 2.297 . S
O110 C105 1.247 . S
O111 Cd100 2.439 . S
O111 C105 1.208 . S
C112 C113 1.387 . S
C112 H116 0.950 . S
C112 C121 1.390 1_554 S
C113 C112 1.387 . S
C113 C115 1.387 . S
H114 C121 0.950 . S
C115 C113 1.387 . S
C115 C117 1.390 1_554 S
C115 H119 0.950 . S
H116 C112 0.950 . S
C117 C115 1.390 1_556 S
C117 C118 1.387 . S
C117 H120 0.950 . S
C118 C117 1.387 . S
C118 C121 1.387 . S
H119 C115 0.950 . S
H120 C117 0.950 . S
C121 C112 1.390 1_556 S
C121 H114 0.950 . S
C121 C118 1.387 . S
C122 C123 1.387 . S
C122 H126 0.950 . S
C122 C131 1.390 . S
C123 C122 1.387 . S
C123 C125 1.387 . S
H124 C131 0.950 . S
C125 C123 1.387 . S
C125 C127 1.390 . S
C125 H129 0.950 . S
H126 C122 0.950 . S
C127 C125 1.390 . S
C127 C128 1.387 . S
C127 H130 0.950 . S
C128 C127 1.387 . S
C128 C131 1.387 . S
H129 C125 0.950 . S
H130 C127 0.950 . S
C131 C122 1.390 . S
C131 H124 0.950 . S
C131 C128 1.387 . S
C132 C133 1.387 . S
C132 H136 0.950 . S
C132 C141 1.390 . S
C133 C132 1.387 . S
C133 C135 1.387 . S
H134 C141 0.950 . S
C135 C133 1.387 . S
C135 C137 1.390 . S
C135 H139 0.950 . S
H136 C132 0.950 . S
C137 C135 1.390 . S
C137 C138 1.387 . S
C137 H140 0.950 . S
C138 C137 1.387 . S
C138 C141 1.387 . S
H139 C135 0.950 . S
H140 C137 0.950 . S
C141 C132 1.390 . S
C141 H134 0.950 . S
C141 C138 1.387 . S
C142 C143 1.387 . S
C142 H146 0.950 . S
C142 C151 1.390 . S
C143 C142 1.387 . S
C143 C145 1.387 . S
H144 C151 0.950 . S
C145 C143 1.387 . S
C145 C147 1.390 . S
C145 H149 0.950 . S
H146 C142 0.950 . S
C147 C145 1.390 . S
C147 C148 1.387 . S
C147 H150 0.950 . S
C148 C147 1.387 . S
C148 C151 1.387 . S
H149 C145 0.950 . S
H150 C147 0.950 . S
C151 C142 1.390 . S
C151 H144 0.950 . S
C151 C148 1.387 . S
C152 C153 1.387 . S
C152 H156 0.950 . S
C152 C161 1.390 . S
C153 C152 1.387 . S
C153 C155 1.387 . S
H154 C161 0.950 . S
C155 C153 1.387 . S
C155 C157 1.390 . S
C155 H159 0.950 . S
H156 C152 0.950 . S
C157 C155 1.390 . S
C157 C158 1.387 . S
C157 H160 0.950 . S
C158 C157 1.387 . S
C158 C161 1.387 . S
H159 C155 0.950 . S
H160 C157 0.950 . S
C161 C152 1.390 . S
C161 H154 0.950 . S
C161 C158 1.387 . S
C162 C163 1.387 . S
C162 H166 0.950 . S
C162 C171 1.390 . S
C163 C162 1.387 . S
C163 C165 1.387 . S
H164 C171 0.950 . S
C165 C163 1.387 . S
C165 C167 1.390 . S
C165 H169 0.950 . S
H166 C162 0.950 . S
C167 C165 1.390 . S
C167 C168 1.387 . S
C167 H170 0.950 . S
C168 C167 1.387 . S
C168 C171 1.387 . S
H169 C165 0.950 . S
H170 C167 0.950 . S
C171 C162 1.390 . S
C171 H164 0.950 . S
C171 C168 1.387 . S
C172 C173 1.387 . S
C172 H176 0.950 . S
C172 C181 1.390 . S
C173 C172 1.387 . S
C173 C175 1.387 . S
H174 C181 0.950 . S
C175 C173 1.387 . S
C175 C177 1.390 . S
C175 H179 0.950 . S
H176 C172 0.950 . S
C177 C175 1.390 . S
C177 C178 1.387 . S
C177 H180 0.950 . S
C178 C177 1.387 . S
C178 C181 1.387 . S
H179 C175 0.950 . S
H180 C177 0.950 . S
C181 C172 1.390 . S
C181 H174 0.950 . S
C181 C178 1.387 . S
C182 C183 1.387 . S
C182 H186 0.950 . S
C182 C191 1.390 1_554 S
C183 C182 1.387 . S
C183 C185 1.387 . S
H184 C191 0.950 . S
C185 C183 1.387 . S
C185 C187 1.390 1_554 S
C185 H189 0.950 . S
H186 C182 0.950 . S
C187 C185 1.390 1_556 S
C187 C188 1.387 . S
C187 H190 0.950 . S
C188 C187 1.387 . S
C188 C191 1.387 . S
H189 C185 0.950 . S
H190 C187 0.950 . S
C191 C182 1.390 1_556 S
C191 H184 0.950 . S
C191 C188 1.387 . S
C192 C193 1.387 . S
C192 H196 0.950 . S
C192 C201 1.390 1_445 S
C193 C192 1.387 . S
C193 C195 1.387 . S
H194 C201 0.950 . S
C195 C193 1.387 . S
C195 C197 1.390 1_445 S
C195 H199 0.950 . S
H196 C192 0.950 . S
C197 C195 1.390 1_665 S
C197 C198 1.387 . S
C197 H200 0.950 . S
C198 C197 1.387 . S
C198 C201 1.387 . S
H199 C195 0.950 . S
H200 C197 0.950 . S
C201 C192 1.390 1_665 S
C201 H194 0.950 . S
C201 C198 1.387 . S
C202 C203 1.387 . S
C202 H206 0.950 . S
C202 C211 1.390 1_455 S
C203 C202 1.387 . S
C203 C205 1.387 . S
H204 C211 0.950 . S
C205 C203 1.387 . S
C205 C207 1.390 1_455 S
C205 H209 0.950 . S
H206 C202 0.950 . S
C207 C205 1.390 1_655 S
C207 C208 1.387 . S
C207 H210 0.950 . S
C208 C207 1.387 . S
C208 C211 1.387 . S
H209 C205 0.950 . S
H210 C207 0.950 . S
C211 C202 1.390 1_655 S
C211 H204 0.950 . S
C211 C208 1.387 . S
C212 C213 1.387 . S
C212 H216 0.950 . S
C212 C221 1.390 . S
C213 C212 1.387 . S
C213 C215 1.387 . S
H214 C221 0.950 . S
C215 C213 1.387 . S
C215 C217 1.390 . S
C215 H219 0.950 . S
H216 C212 0.950 . S
C217 C215 1.390 . S
C217 C218 1.387 . S
C217 H220 0.950 . S
C218 C217 1.387 . S
C218 C221 1.387 . S
H219 C215 0.950 . S
H220 C217 0.950 . S
C221 C212 1.390 . S
C221 H214 0.950 . S
C221 C218 1.387 . S
C222 C223 1.387 . S
C222 H226 0.950 . S
C222 C231 1.390 1_565 S
C223 C222 1.387 . S
C223 C225 1.387 . S
H224 C231 0.950 . S
C225 C223 1.387 . S
C225 C227 1.390 1_565 S
C225 H229 0.950 . S
H226 C222 0.950 . S
C227 C225 1.390 1_545 S
C227 C228 1.387 . S
C227 H230 0.950 . S
C228 C227 1.387 . S
C228 C231 1.387 . S
H229 C225 0.950 . S
H230 C227 0.950 . S
C231 C222 1.390 1_545 S
C231 H224 0.950 . S
C231 C228 1.387 . S
C232 C233 1.387 . S
C232 H236 0.950 . S
C232 C241 1.390 1_655 S
C233 C232 1.387 . S
C233 C235 1.387 . S
H234 C241 0.950 . S
C235 C233 1.387 . S
C235 C237 1.390 1_655 S
C235 H239 0.950 . S
H236 C232 0.950 . S
C237 C235 1.390 1_455 S
C237 C238 1.387 . S
C237 H240 0.950 . S
C238 C237 1.387 . S
C238 C241 1.387 . S
H239 C235 0.950 . S
H240 C237 0.950 . S
C241 C232 1.390 1_455 S
C241 H234 0.950 . S
C241 C238 1.387 . S
C242 C243 1.387 . S
C242 H246 0.950 . S
C242 C251 1.390 . S
C243 C242 1.387 . S
C243 C245 1.387 . S
H244 C251 0.950 . S
C245 C243 1.387 . S
C245 C247 1.390 . S
C245 H249 0.950 . S
H246 C242 0.950 . S
C247 C245 1.390 . S
C247 C248 1.387 . S
C247 H250 0.950 . S
C248 C247 1.387 . S
C248 C251 1.387 . S
H249 C245 0.950 . S
H250 C247 0.950 . S
C251 C242 1.390 . S
C251 H244 0.950 . S
C251 C248 1.387 . S
C252 C253 1.387 . S
C252 H256 0.950 . S
C252 C261 1.390 1_545 S
C253 C252 1.387 . S
C253 C255 1.387 . S
H254 C261 0.950 . S
C255 C253 1.387 . S
C255 C257 1.390 1_545 S
C255 H259 0.950 . S
H256 C252 0.950 . S
C257 C255 1.390 1_565 S
C257 C258 1.387 . S
C257 H260 0.950 . S
C258 C257 1.387 . S
C258 C261 1.387 . S
H259 C255 0.950 . S
H260 C257 0.950 . S
C261 C252 1.390 1_565 S
C261 H254 0.950 . S
C261 C258 1.387 . S
C262 C263 1.387 . S
C262 H266 0.950 . S
C262 C271 1.390 1_665 S
C263 C262 1.387 . S
C263 C265 1.387 . S
H264 C271 0.950 . S
C265 C263 1.387 . S
C265 C267 1.390 1_665 S
C265 H269 0.950 . S
H266 C262 0.950 . S
C267 C265 1.390 1_445 S
C267 C268 1.387 . S
C267 H270 0.950 . S
C268 C267 1.387 . S
C268 C271 1.387 . S
H269 C265 0.950 . S
H270 C267 0.950 . S
C271 C262 1.390 1_445 S
C271 H264 0.950 . S
C271 C268 1.387 . S
C113 C6 1.450 . S
C118 C76 1.450 . S
C123 C23 1.289 . S
C128 C93 1.291 . S
C133 C34 1.449 . S
C138 C104 1.449 . S
C143 C51 1.289 . S
C148 C65 1.287 . S
C153 C107 1.287 . S
C158 C9 1.288 . S
C163 C62 1.450 . S
C168 C20 1.450 . S
C173 C37 1.287 . S
C178 C79 1.290 . S
C183 C90 1.449 . S
C188 C48 1.449 . S
C193 C8 1.595 . S
C198 C92 1.595 . S
C203 C105 1.576 . S
C208 C21 1.576 . S
C213 C36 1.595 . S
C218 C64 1.595 . S
C223 C49 1.573 . S
C228 C77 1.573 . S
C233 C91 1.573 . S
C238 C7 1.573 . S
C243 C106 1.595 . S
C248 C22 1.595 . S
C253 C35 1.576 . S
C258 C63 1.576 . S
C263 C50 1.595 . S
C268 C78 1.595 . S
