# Generated by pormake.
# Topology hcp, (12)-cn, num edge types: 1
# Building blocks:
#     Node 0, Type 0, BuildingBlock: EZIPEK_clean_sbu_0, # of connection points: 12
#     Node 1, Type 0, BuildingBlock: EZIPEK_clean_sbu_0, # of connection points: 12
#     Edge 2, Type (0, 0), BuildingBlock: ZUJKAS_clean_linker_0, # of connection points: 2
#     Edge 3, Type (0, 0), BuildingBlock: ZUJKAS_clean_linker_0, # of connection points: 2
#     Edge 4, Type (0, 0), BuildingBlock: ZUJKAS_clean_linker_0, # of connection points: 2
#     Edge 5, Type (0, 0), BuildingBlock: ZUJKAS_clean_linker_0, # of connection points: 2
#     Edge 6, Type (0, 0), BuildingBlock: ZUJKAS_clean_linker_0, # of connection points: 2
#     Edge 7, Type (0, 0), BuildingBlock: ZUJKAS_clean_linker_0, # of connection points: 2
#     Edge 8, Type (0, 0), BuildingBlock: ZUJKAS_clean_linker_0, # of connection points: 2
#     Edge 9, Type (0, 0), BuildingBlock: ZUJKAS_clean_linker_0, # of connection points: 2
#     Edge 10, Type (0, 0), BuildingBlock: ZUJKAS_clean_linker_0, # of connection points: 2
#     Edge 11, Type (0, 0), BuildingBlock: ZUJKAS_clean_linker_0, # of connection points: 2
#     Edge 12, Type (0, 0), BuildingBlock: ZUJKAS_clean_linker_0, # of connection points: 2
#     Edge 13, Type (0, 0), BuildingBlock: ZUJKAS_clean_linker_0, # of connection points: 2
# Relax obj value: 0.186
# Max RMSD: 0.270
# Mean RMSD: 0.270
data_MOF--net-hcp--node1-EZIPEK_clean_sbu_0--edge1-ZUJKAS_clean_linker_0
_symmetry_space_group_name_H-M    P1
_symmetry_Int_Tables_number       1
_symmetry_cell_setting            triclinic
loop_
_symmetry_equiv_pos_as_xyz
'x, y, z'
_cell_length_a     23.247248
_cell_length_b     23.217848
_cell_length_c     36.169515
_cell_angle_alpha  89.918321
_cell_angle_beta   89.941878
_cell_angle_gamma 120.10249
loop_
_atom_site_label
_atom_site_type_symbol
_atom_site_fract_x
_atom_site_fract_y
_atom_site_fract_z
_atom_type_partial_charge
C0 C 0.67323 0.14102 0.28956 0.0
C1 C 0.78642 0.39538 0.18295 0.0
C2 C 0.52356 0.24761 0.39127 0.0
C3 C 0.64168 0.51482 0.28762 0.0
C4 C 0.44584 0.30672 0.28894 0.0
C5 C 0.58184 0.18718 0.18408 0.0
C6 C 0.70075 0.44804 0.39293 0.0
C7 C 0.85217 0.34063 0.28373 0.0
C8 C 0.8414 0.52756 0.2864 0.0
C9 C 0.57695 0.39711 0.18796 0.0
C10 C 0.72392 0.27473 0.39252 0.0
C11 C 0.46846 0.121 0.28177 0.0
Eu12 Eu 0.70398 0.27715 0.24453 0.0
O13 O 0.65084 0.32602 0.22628 0.0
O14 O 0.70397 0.28236 0.30432 0.0
Eu15 Eu 0.54921 0.27202 0.24508 0.0
Eu16 Eu 0.75225 0.38188 0.32685 0.0
O17 O 0.60648 0.23055 0.26735 0.0
O18 O 0.745 0.37559 0.26748 0.0
Eu19 Eu 0.60639 0.2232 0.32671 0.0
Eu20 Eu 0.69912 0.42752 0.24533 0.0
O21 O 0.55449 0.27134 0.30486 0.0
O22 O 0.60046 0.36959 0.26797 0.0
O23 O 0.69364 0.42131 0.30509 0.0
O24 O 0.65074 0.32457 0.34357 0.0
Eu25 Eu 0.59369 0.36906 0.32738 0.0
O26 O 0.69892 0.18067 0.26021 0.0
O27 O 0.76481 0.3336 0.19497 0.0
O28 O 0.54224 0.3101 0.38072 0.0
O29 O 0.60617 0.46951 0.31341 0.0
O30 O 0.45839 0.27768 0.2608 0.0
O31 O 0.54385 0.21166 0.19535 0.0
O32 O 0.74577 0.43219 0.38085 0.0
O33 O 0.84078 0.37169 0.31135 0.0
O34 O 0.79979 0.51489 0.25831 0.0
O35 O 0.63862 0.43731 0.19987 0.0
O36 O 0.66194 0.23092 0.38135 0.0
O37 O 0.5109 0.13204 0.30934 0.0
O38 O 0.64482 0.43391 0.37579 0.0
O39 O 0.48801 0.34166 0.31585 0.0
O40 O 0.80961 0.30476 0.25706 0.0
O41 O 0.64096 0.20282 0.19879 0.0
O42 O 0.76932 0.438 0.19736 0.0
O43 O 0.67885 0.50923 0.26133 0.0
O44 O 0.63915 0.14863 0.31682 0.0
O45 O 0.53652 0.20587 0.37308 0.0
O46 O 0.47296 0.16513 0.25661 0.0
O47 O 0.53649 0.33459 0.19972 0.0
O48 O 0.76669 0.32919 0.37429 0.0
O49 O 0.83194 0.48709 0.31474 0.0
C50 C 0.29477 0.4491 0.78907 0.0
C51 C 0.17712 0.58686 0.684 0.0
C52 C 0.44267 0.70652 0.89053 0.0
C53 C 0.32927 0.85609 0.78463 0.0
C54 C 0.26924 0.73224 0.892 0.0
C55 C 0.11325 0.47112 0.7846 0.0
C56 C 0.52123 0.84178 0.786 0.0
C57 C 0.38128 0.58338 0.68327 0.0
C58 C 0.38862 0.7991 0.68616 0.0
C59 C 0.12783 0.67094 0.78788 0.0
C60 C 0.50045 0.63755 0.78252 0.0
C61 C 0.24312 0.53199 0.89247 0.0
Eu62 Eu 0.26151 0.55327 0.74502 0.0
O63 O 0.22161 0.61156 0.76788 0.0
O64 O 0.35967 0.60406 0.76678 0.0
Eu65 Eu 0.21536 0.61203 0.82728 0.0
Eu66 Eu 0.41683 0.70251 0.74356 0.0
O67 O 0.26226 0.55942 0.80477 0.0
O68 O 0.3148 0.6548 0.72564 0.0
Eu69 Eu 0.3603 0.59819 0.82622 0.0
Eu70 Eu 0.26734 0.70872 0.74463 0.0
O71 O 0.31711 0.65617 0.84307 0.0
O72 O 0.27396 0.70957 0.80438 0.0
O73 O 0.3663 0.74943 0.76648 0.0
O74 O 0.41213 0.69781 0.8034 0.0
Eu75 Eu 0.37426 0.7574 0.82577 0.0
O76 O 0.26687 0.46214 0.76056 0.0
O77 O 0.19913 0.54726 0.69618 0.0
O78 O 0.42525 0.75085 0.87935 0.0
O79 O 0.36446 0.84639 0.81051 0.0
O80 O 0.22419 0.67039 0.88108 0.0
O81 O 0.12524 0.51401 0.81208 0.0
O82 O 0.50771 0.80008 0.75782 0.0
O83 O 0.42042 0.64616 0.69389 0.0
O84 O 0.32696 0.7774 0.69822 0.0
O85 O 0.16828 0.6981 0.75902 0.0
O86 O 0.45749 0.60579 0.80992 0.0
O87 O 0.30448 0.54899 0.8807 0.0
O88 O 0.48011 0.83459 0.81354 0.0
O89 O 0.3241 0.77373 0.87372 0.0
O90 O 0.32262 0.54038 0.69879 0.0
O91 O 0.15576 0.47642 0.75822 0.0
O92 O 0.1952 0.64735 0.69772 0.0
O93 O 0.29054 0.81228 0.75918 0.0
O94 O 0.32975 0.49131 0.81594 0.0
O95 O 0.42891 0.65105 0.8729 0.0
O96 O 0.20096 0.54524 0.875 0.0
O97 O 0.13725 0.63972 0.81609 0.0
O98 O 0.49475 0.67485 0.75629 0.0
O99 O 0.42925 0.77752 0.698 0.0
H100 H 0.27639 0.84936 0.90752 0.0
H101 H 0.32152 0.91257 0.96455 0.0
H102 H 0.31022 0.74007 1.01649 0.0
H103 H 0.26401 0.67625 0.95923 0.0
H104 H 0.27826 0.85262 0.05998 0.0
H105 H 0.52179 0.93272 0.99169 0.0
H106 H 0.45435 0.925 0.9635 0.0
H107 H 0.44953 0.85202 0.98348 0.0
C108 C 0.27996 0.82376 0.93173 0.0
C109 C 0.2658 0.75746 0.92903 0.0
C110 C 0.30666 0.86025 0.96418 0.0
C111 C 0.32004 0.83137 0.99462 0.0
C112 C 0.30017 0.76335 0.99334 0.0
H113 H 0.6106 0.08854 0.16514 0.0
H114 H 0.54862 -0.00411 0.12169 0.0
C115 C 0.27284 0.72654 0.96078 0.0
C116 C 0.36205 0.87488 1.02528 0.0
H117 H 0.52306 -0.00808 0.04514 0.0
C118 C 0.33183 0.8824 0.05703 0.0
C119 C 0.43207 0.91315 1.02164 0.0
C120 C 0.46689 0.90548 0.9884 0.0
C121 C 0.3696 0.92926 0.0845 0.0
C122 C 0.43929 0.97078 0.0797 0.0
C123 C 0.46978 0.96069 0.0488 0.0
C124 C 0.47996 0.02823 0.10481 0.0
C125 C 0.33433 0.93436 0.11831 0.0
C126 C 0.46406 0.07872 0.10864 0.0
C127 C 0.49942 0.13154 0.13303 0.0
C128 C 0.55226 0.13591 0.1543 0.0
C129 C 0.57049 0.08705 0.14917 0.0
C130 C 0.53474 0.03377 0.12454 0.0
H131 H 0.28743 0.88692 0.12371 0.0
H132 H 0.36638 0.94754 0.14322 0.0
H133 H 0.32134 0.97375 0.11377 0.0
H134 H 0.42353 0.07696 0.09296 0.0
H135 H 0.48423 0.16847 0.1357 0.0
H136 H 0.45276 0.65494 0.6238 0.0
H137 H 0.51477 0.62731 0.57979 0.0
H138 H 0.44029 0.43584 0.63228 0.0
H139 H 0.37573 0.46267 0.67571 0.0
H140 H 0.61405 0.60759 0.59344 0.0
H141 H 0.41518 0.3789 0.52682 0.0
H142 H 0.39703 0.43101 0.55576 0.0
H143 H 0.41759 0.3729 0.57618 0.0
C144 C 0.44824 0.60623 0.62543 0.0
C145 C 0.40872 0.56074 0.65304 0.0
C146 C 0.48421 0.59061 0.60036 0.0
C147 C 0.48246 0.5293 0.60233 0.0
C148 C 0.44163 0.4829 0.6294 0.0
H149 H 0.69646 0.39066 0.45911 0.0
H150 H 0.65151 0.41045 0.51614 0.0
C151 C 0.40455 0.49819 0.65426 0.0
C152 C 0.52633 0.51661 0.57721 0.0
H153 H 0.52591 0.41181 0.51051 0.0
C154 C 0.59452 0.56455 0.57543 0.0
C155 C 0.50159 0.46028 0.55373 0.0
C156 C 0.42879 0.40811 0.55287 0.0
C157 C 0.63781 0.5587 0.55044 0.0
C158 C 0.61272 0.50338 0.52644 0.0
C159 C 0.54528 0.45407 0.52909 0.0
C160 C 0.65347 0.4991 0.49577 0.0
C161 C 0.71007 0.61224 0.54952 0.0
C162 C 0.67244 0.54384 0.46596 0.0
C163 C 0.69791 0.53236 0.43345 0.0
C164 C 0.70574 0.47633 0.43016 0.0
C165 C 0.69279 0.43516 0.46123 0.0
C166 C 0.66605 0.44591 0.49363 0.0
H167 H 0.72526 0.64174 0.57547 0.0
H168 H 0.74246 0.59036 0.54513 0.0
H169 H 0.71835 0.64671 0.52621 0.0
H170 H 0.66251 0.5847 0.46665 0.0
H171 H 0.70553 0.56378 0.40962 0.0
H172 H 0.89507 0.51989 0.16999 0.0
H173 H -0.01516 0.54868 0.12455 0.0
H174 H 0.87989 0.3483 0.0824 0.0
H175 H 0.79114 0.31922 0.12746 0.0
H176 H 0.05804 0.46219 0.11511 0.0
H177 H 0.9311 0.48846 0.99141 0.0
H178 H 0.91281 0.50355 1.0378 0.0
H179 H 0.88161 0.41985 1.02205 0.0
C180 C 0.89061 0.48248 0.15051 0.0
C181 C 0.83571 0.41736 0.15222 0.0
C182 C 0.94225 0.49874 0.12487 0.0
C183 C 0.93921 0.45046 0.10021 0.0
C184 C 0.88343 0.38628 0.10116 0.0
H185 H 0.133 0.41496 0.9083 0.0
H186 H 0.06573 0.39391 0.96393 0.0
C187 C 0.83256 0.36986 0.12689 0.0
C188 C -0.00616 0.46558 0.07343 0.0
H189 H 0.02769 0.48158 0.98091 0.0
C190 C 0.05203 0.46732 0.08578 0.0
C191 C -0.01434 0.47171 1.03522 0.0
C192 C 0.9247 0.47128 1.0206 0.0
C193 C 0.10109 0.47256 0.06068 0.0
C194 C 0.09206 0.47705 1.02226 0.0
C195 C 0.03461 0.47734 1.01024 0.0
C196 C 0.14003 0.48028 0.99349 0.0
C197 C 0.16074 0.47058 0.07542 0.0
C198 C 0.2064 0.53296 0.99241 0.0
C199 C 0.24591 0.54366 0.96081 0.0
C200 C 0.21919 0.50285 0.92955 0.0
C201 C 0.15539 0.4465 0.93221 0.0
C202 C 0.11641 0.43519 0.96383 0.0
H203 H 0.15175 0.44925 0.10376 0.0
H204 H 0.17431 0.44088 0.05711 0.0
H205 H 0.20374 0.52205 0.07663 0.0
H206 H 0.22592 0.56914 1.01453 0.0
H207 H 0.29437 0.5882 0.95924 0.0
H208 H 0.45548 0.81853 0.61971 0.0
H209 H 0.48089 0.90732 0.57414 0.0
H210 H 0.40431 -0.00302 0.64934 0.0
H211 H 0.37733 0.908 0.69379 0.0
H212 H 0.35098 0.98495 0.58446 0.0
H213 H 0.62298 0.09964 0.56503 0.0
H214 H 0.57896 0.01166 0.55656 0.0
H215 H 0.57906 0.04226 0.60226 0.0
C216 C 0.44535 0.85798 0.62658 0.0
C217 C 0.41396 0.85615 0.66012 0.0
C218 C 0.46005 0.90891 0.60063 0.0
C219 C 0.44487 0.95946 0.60822 0.0
C220 C 0.41623 0.95872 0.64252 0.0
H221 H 0.57159 0.30243 0.45889 0.0
H222 H 0.5494 0.23824 0.51647 0.0
C223 C 0.4008 0.90773 0.66797 0.0
C224 C 0.45353 0.01029 0.57987 0.0
H225 H 0.56563 0.12976 0.5212 0.0
C226 C 0.3982 0.01692 0.57092 0.0
C227 C 0.51521 0.05317 0.56247 0.0
C228 C 0.57761 0.05194 0.5723 0.0
C229 C 0.40228 0.06349 0.5446 0.0
C230 C 0.463 0.1039 0.52581 0.0
C231 C 0.51891 0.09879 0.53545 0.0
C232 C 0.46817 0.14736 0.49396 0.0
C233 C 0.34133 0.06904 0.53736 0.0
C234 C 0.42813 0.11895 0.46266 0.0
C235 C 0.44038 0.15579 0.43008 0.0
C236 C 0.49313 0.22188 0.42789 0.0
C237 C 0.52959 0.25226 0.46005 0.0
C238 C 0.51762 0.21512 0.49277 0.0
H239 H 0.30818 0.05363 0.56196 0.0
H240 H 0.35481 0.12064 0.52969 0.0
H241 H 0.31274 0.03542 0.51427 0.0
H242 H 0.39059 0.06667 0.46241 0.0
H243 H 0.41258 0.13059 0.40548 0.0
H244 H 0.51095 0.34919 0.1215 0.0
H245 H 0.48649 0.41259 0.07545 0.0
H246 H 0.5603 0.57856 0.15067 0.0
H247 H 0.58644 0.5167 0.19566 0.0
H248 H 0.41137 0.4749 0.07328 0.0
H249 H 0.67873 0.66411 0.06233 0.0
H250 H 0.64971 0.58627 0.08637 0.0
H251 H 0.6474 0.65442 0.1086 0.0
C252 C 0.52108 0.39887 0.12819 0.0
C253 C 0.55164 0.42853 0.16184 0.0
C254 C 0.50728 0.43517 0.10191 0.0
C255 C 0.52337 0.5013 0.1091 0.0
C256 C 0.54945 0.52869 0.14384 0.0
H257 H 0.39592 0.71689 0.95814 0.0
H258 H 0.41685 0.6751 1.01612 0.0
C259 C 0.56408 0.49311 0.16964 0.0
C260 C 0.51603 0.5431 0.08006 0.0
H261 H 0.6037 0.68902 1.03192 0.0
C262 C 0.45336 0.52172 0.06422 0.0
C263 C 0.57096 0.6041 0.06791 0.0
C264 C 0.64059 0.62835 0.08189 0.0
C265 C 0.44416 0.55941 1.03664 0.0
C266 C 0.49895 0.62114 1.02508 0.0
C267 C 0.56143 0.6425 0.04113 0.0
C268 C 0.49457 0.66006 0.99327 0.0
C269 C 0.37636 0.53136 1.01919 0.0
C270 C 0.53531 0.67167 0.96221 0.0
C271 C 0.52453 0.69712 0.92959 0.0
C272 C 0.47283 0.71172 0.92719 0.0
C273 C 0.43678 0.70711 0.95936 0.0
C274 C 0.44766 0.68158 0.99224 0.0
H275 H 0.34405 0.47744 1.02523 0.0
H276 H 0.3514 0.55774 1.03033 0.0
H277 H 0.38053 0.53832 0.98872 0.0
H278 H 0.57231 0.65633 0.96222 0.0
H279 H 0.55243 0.69922 0.90509 0.0
H280 H 0.66588 0.2685 0.45931 0.0
H281 H 0.72872 0.3152 0.51684 0.0
H282 H 0.90189 0.3261 0.46638 0.0
H283 H 0.83987 0.28062 0.40912 0.0
H284 H 0.8368 0.28544 0.56291 0.0
H285 H 0.92643 0.52673 0.48976 0.0
H286 H 0.84632 0.4544 0.48043 0.0
H287 H 0.9206 0.45845 0.46316 0.0
C288 C 0.71617 0.27742 0.46125 0.0
C289 C 0.74784 0.27057 0.42978 0.0
C290 C 0.75237 0.30498 0.49397 0.0
C291 C 0.82034 0.32511 0.49565 0.0
C292 C 0.84966 0.31127 0.46564 0.0
H293 H 0.15434 0.48564 0.63733 0.0
H294 H 0.06208 0.42549 0.59503 0.0
C295 C 0.81384 0.28435 0.43306 0.0
C296 C 0.8635 0.36798 0.52617 0.0
H297 H -0.01504 0.52845 0.5438 0.0
C298 C 0.86846 0.33868 0.55903 0.0
C299 C 0.90421 0.43764 0.52132 0.0
C300 C 0.89922 0.47167 0.48691 0.0
C301 C 0.9154 0.37684 0.58637 0.0
C302 C 0.95944 0.44585 0.58037 0.0
C303 C 0.95177 0.47565 0.54838 0.0
C304 C 0.01725 0.48607 0.60526 0.0
C305 C 0.91811 0.34264 0.62128 0.0
C306 C 0.02518 0.54281 0.62394 0.0
C307 C 0.07887 0.57819 0.64837 0.0
C308 C 0.12575 0.55762 0.65429 0.0
C309 C 0.11901 0.50273 0.63402 0.0
C310 C 0.06576 0.4677 0.60989 0.0
H311 H 0.86961 0.29713 0.62702 0.0
H312 H 0.95606 0.32738 0.61801 0.0
H313 H 0.93195 0.37639 0.64549 0.0
H314 H -0.01115 0.55856 0.62045 0.0
H315 H 0.08217 0.61989 0.66358 0.0
H316 H 0.65339 0.06311 0.34998 0.0
H317 H 0.65644 0.95986 0.35255 0.0
H318 H 0.71449 0.98296 0.23775 0.0
H319 H 0.71186 0.08674 0.23469 0.0
H320 H 0.57343 0.85141 0.30493 0.0
H321 H 0.8418 0.93239 0.29089 0.0
H322 H 0.81299 0.98792 0.30573 0.0
H323 H 0.81008 0.96717 0.2577 0.0
C324 C 0.66748 0.04673 0.32531 0.0
C325 C 0.68167 0.0826 0.29198 0.0
C326 C 0.66949 0.98801 0.32696 0.0
C327 C 0.68606 0.96462 0.29543 0.0
C328 C 0.70266 0.00128 0.26247 0.0
H329 H 0.67922 0.60718 0.23273 0.0
H330 H 0.68662 0.71543 0.23597 0.0
C331 C 0.7008 0.06023 0.26077 0.0
C332 C 0.67915 0.89844 0.29603 0.0
H333 H 0.76511 0.81652 0.2857 0.0
C334 C 0.61525 0.84351 0.30103 0.0
C335 C 0.73407 0.88922 0.29075 0.0
C336 C 0.80378 0.94725 0.28625 0.0
C337 C 0.6044 0.7787 0.29998 0.0
C338 C 0.65927 0.76936 0.29446 0.0
C339 C 0.72334 0.82439 0.2899 0.0
C340 C 0.65118 0.70271 0.29239 0.0
C341 C 0.5343 0.7209 0.30366 0.0
C342 C 0.62829 0.66008 0.32307 0.0
C343 C 0.62325 0.59783 0.32124 0.0
C344 C 0.64201 0.5781 0.28884 0.0
C345 C 0.66444 0.62097 0.25809 0.0
C346 C 0.66885 0.68281 0.25987 0.0
H347 H 0.49673 0.73631 0.29886 0.0
H348 H 0.5252 0.68069 0.28387 0.0
H349 H 0.52687 0.70016 0.33206 0.0
H350 H 0.61563 0.67549 0.3486 0.0
H351 H 0.6066 0.56616 0.34552 0.0
H352 H 0.04003 0.63974 0.84488 0.0
H353 H 0.93193 0.63288 0.84286 0.0
H354 H 0.96672 0.69953 0.72943 0.0
H355 H 0.07475 0.70597 0.73076 0.0
H356 H 0.9018 0.73639 0.82329 0.0
H357 H 0.78859 0.5167 0.72967 0.0
H358 H 0.86419 0.54126 0.75514 0.0
H359 H 0.86596 0.58643 0.71443 0.0
C360 C 0.02495 0.6532 0.81949 0.0
C361 C 0.06565 0.67281 0.78785 0.0
C362 C 0.96334 0.64934 0.81848 0.0
C363 C 0.94164 0.6647 0.78584 0.0
C364 C 0.98282 0.68659 0.75463 0.0
H365 H 0.58715 0.66805 0.7251 0.0
H366 H 0.69362 0.67113 0.7261 0.0
C367 C 0.04455 0.69062 0.75558 0.0
C368 C 0.87523 0.65685 0.7844 0.0
H369 H 0.72266 0.56465 0.74498 0.0
C370 C 0.86243 0.69884 0.8063 0.0
C371 C 0.82466 0.60755 0.76217 0.0
C372 C 0.83606 0.55994 0.73918 0.0
C373 C 0.79984 0.69341 0.80613 0.0
C374 C 0.74926 0.6441 0.78393 0.0
C375 C 0.76203 0.60213 0.76199 0.0
C376 C 0.68299 0.63654 0.7826 0.0
C377 C 0.78846 0.74103 0.82913 0.0
C378 C 0.64179 0.61423 0.8138 0.0
C379 C 0.58111 0.61248 0.81344 0.0
C380 C 0.5612 0.63314 0.78181 0.0
C381 C 0.60161 0.65274 0.75005 0.0
C382 C 0.66215 0.65426 0.75045 0.0
H383 H 0.8359 0.78398 0.83891 0.0
H384 H 0.76085 0.76015 0.81305 0.0
H385 H 0.75803 0.71438 0.85371 0.0
H386 H 0.65733 0.59967 0.83864 0.0
H387 H 0.551 0.59702 0.8383 0.0
H388 H 0.39454 0.06268 0.22044 0.0
H389 H 0.29067 0.95634 0.21727 0.0
H390 H 0.30734 0.92234 0.33306 0.0
H391 H 0.41164 0.02856 0.33662 0.0
H392 H 0.26343 0.80762 0.28332 0.0
H393 H 0.12354 0.9434 0.26927 0.0
H394 H 0.18997 0.96533 0.23677 0.0
H395 H 0.20864 0.98344 0.28495 0.0
C396 C 0.37627 0.03241 0.2452 0.0
C397 C 0.41023 0.05421 0.27899 0.0
C398 C 0.31727 0.97181 0.24325 0.0
C399 C 0.29149 0.93279 0.27508 0.0
C400 C 0.32695 0.95247 0.30833 0.0
H401 H 0.93267 0.58409 0.34169 0.0
H402 H 0.04298 0.68256 0.33724 0.0
C403 C 0.38625 0.01295 0.3103 0.0
C404 C 0.22511 0.87385 0.27444 0.0
H405 H 0.0611 0.82624 0.26805 0.0
C406 C 0.21905 0.81134 0.27988 0.0
C407 C 0.16797 0.87981 0.26996 0.0
C408 C 0.17242 0.94657 0.26517 0.0
C409 C 0.15645 0.75381 0.28089 0.0
C410 C 0.09929 0.75993 0.27701 0.0
C411 C 0.10547 0.82235 0.27102 0.0
C412 C 0.03229 0.70213 0.2799 0.0
C413 C 0.1519 0.68709 0.28586 0.0
C414 C -0.01047 0.68285 0.24947 0.0
C415 C 0.92633 0.6271 0.25193 0.0
C416 C 0.90528 0.59011 0.28494 0.0
C417 C 0.94771 0.61113 0.31576 0.0
C418 C 0.01078 0.667 0.31326 0.0
H419 H 0.19962 0.68938 0.27905 0.0
H420 H 0.13967 0.67115 0.31513 0.0
H421 H 0.11205 0.64867 0.26825 0.0
H422 H 0.00559 0.71019 0.22364 0.0
H423 H 0.8949 0.6121 0.22765 0.0
H424 H 0.25155 0.35561 0.73437 0.0
H425 H 0.25238 0.25088 0.73512 0.0
H426 H 0.3265 0.28958 0.84695 0.0
H427 H 0.32501 0.39366 0.84691 0.0
H428 H 0.37184 0.2479 0.74745 0.0
H429 H 0.17402 0.09397 0.84923 0.0
H430 H 0.17883 0.16565 0.82656 0.0
H431 H 0.23284 0.17649 0.86467 0.0
C432 C 0.26684 0.34132 0.75938 0.0
C433 C 0.28868 0.38309 0.7905 0.0
C434 C 0.26734 0.28165 0.75969 0.0
C435 C 0.28901 0.26288 0.79117 0.0
C436 C 0.30869 0.30316 0.82266 0.0
H437 H 0.37731 0.95081 0.83881 0.0
H438 H 0.37314 0.05395 0.84003 0.0
C439 C 0.30832 0.36281 0.8224 0.0
C440 C 0.297 0.2043 0.79003 0.0
H441 H 0.24566 0.05384 0.83059 0.0
C442 C 0.34404 0.20518 0.76541 0.0
C443 C 0.26086 0.14947 0.81383 0.0
C444 C 0.20837 0.1458 0.83988 0.0
C445 C 0.35639 0.15225 0.76417 0.0
C446 C 0.32028 0.0975 0.78796 0.0
C447 C 0.27344 0.09664 0.81269 0.0
C448 C 0.32758 0.03865 0.78613 0.0
C449 C 0.40818 0.15527 0.73778 0.0
C450 C 0.30339 -0.00306 0.75533 0.0
C451 C 0.30526 0.93814 0.75455 0.0
C452 C 0.33156 0.92041 0.7846 0.0
C453 C 0.35714 0.9633 0.81515 0.0
C454 C 0.35473 0.022 0.81598 0.0
H455 H 0.44114 0.2065 0.72711 0.0
H456 H 0.43922 0.13754 0.75147 0.0
H457 H 0.38303 0.1222 0.71388 0.0
H458 H 0.28156 0.00913 0.73232 0.0
H459 H 0.28509 0.90623 0.73061 0.0
H460 H 0.38913 0.33563 0.34667 0.0
H461 H 0.28535 0.33776 0.34616 0.0
H462 H 0.25173 0.271 0.23289 0.0
H463 H 0.35514 0.268 0.23303 0.0
H464 H 0.26183 0.41785 0.29693 0.0
H465 H 0.07234 0.14953 0.28409 0.0
H466 H 0.15654 0.1779 0.29893 0.0
H467 H 0.13859 0.17956 0.25077 0.0
C468 C 0.3594 0.3207 0.32173 0.0
C469 C 0.38046 0.30199 0.2898 0.0
C470 C 0.30018 0.32183 0.32158 0.0
C471 C 0.26119 0.30409 0.2896 0.0
C472 C 0.28094 0.28371 0.25799 0.0
H473 H 0.90896 0.31158 0.22613 0.0
H474 H 0.0121 0.30814 0.22699 0.0
C475 C 0.34007 0.28227 0.25813 0.0
C476 C 0.20248 0.31192 0.28845 0.0
H477 H 0.03474 0.22684 0.27648 0.0
C478 C 0.21203 0.37617 0.29267 0.0
C479 C 0.13813 0.25723 0.28268 0.0
C480 C 0.12544 0.18703 0.27916 0.0
C481 C 0.15844 0.38743 0.29077 0.0
C482 C 0.0941 0.33275 0.28499 0.0
C483 C 0.08454 0.2685 0.28077 0.0
C484 C 0.03549 0.34069 0.28377 0.0
C485 C 0.1711 0.45762 0.2943 0.0
C486 C 0.01552 0.36078 0.31541 0.0
C487 C 0.95676 0.36292 0.31508 0.0
C488 C 0.91701 0.34422 0.28318 0.0
C489 C 0.93821 0.32565 0.25125 0.0
C490 C -0.00295 0.32379 0.2516 0.0
H491 H 0.22427 0.49517 0.28962 0.0
H492 H 0.14031 0.46686 0.27435 0.0
H493 H 0.15747 0.46492 0.32261 0.0
H494 H 0.04432 0.37286 0.34064 0.0
H495 H 0.94149 0.37698 0.34018 0.0
H496 H 0.02513 0.41561 0.84157 0.0
H497 H 0.9215 0.30847 0.84119 0.0
H498 H 0.95042 0.2837 0.72573 0.0
H499 H 0.05341 0.39086 0.72551 0.0
H500 H 0.81624 0.24864 0.74806 0.0
H501 H 0.93114 0.13325 0.83341 0.0
H502 H 0.93732 0.20822 0.85157 0.0
H503 H 0.97977 0.21145 0.80945 0.0
C504 C 0.0089 0.38783 0.81597 0.0
C505 C 0.04769 0.41085 0.78372 0.0
C506 C 0.9501 0.32673 0.81589 0.0
C507 C 0.92972 0.28843 0.78361 0.0
C508 C 0.96624 0.31282 0.75091 0.0
H509 H 0.60835 0.89585 0.72837 0.0
H510 H 0.71092 0.0038 0.72726 0.0
C511 C 0.02505 0.37369 0.75095 0.0
C512 C 0.87206 0.22122 0.78427 0.0
H513 H 0.81702 0.06591 0.81919 0.0
C514 C 0.81614 0.20849 0.7635 0.0
C515 C 0.87325 0.16958 0.8043 0.0
C516 C 0.93371 0.18085 0.82575 0.0
C517 C 0.76004 0.14488 0.76287 0.0
C518 C 0.7611 0.09337 0.78309 0.0
C519 C 0.81713 0.10603 0.80371 0.0
C520 C 0.70311 0.02642 0.7844 0.0
C521 C 0.69965 0.13338 0.74128 0.0
C522 C 0.66703 0.00341 0.81733 0.0
C523 C 0.60881 0.94204 0.81817 0.0
C524 C 0.58627 0.90293 0.78606 0.0
C525 C 0.62445 0.92496 0.75352 0.0
C526 C 0.68265 0.98657 0.75272 0.0
H527 H 0.70278 0.18087 0.73274 0.0
H528 H 0.69524 0.10444 0.71599 0.0
H529 H 0.65372 0.10407 0.75791 0.0
H530 H 0.68291 0.03383 0.84204 0.0
H531 H 0.58087 0.926 0.84378 0.0
loop_
_geom_bond_atom_site_label_1
_geom_bond_atom_site_label_2
_geom_bond_distance
_geom_bond_site_symmetry_2
_ccdc_geom_bond_type
C0 O26 1.283 . S
C0 O44 1.283 . S
C1 O27 1.283 . S
C1 O42 1.283 . S
C2 O28 1.283 . S
C2 O45 1.283 . S
C3 O29 1.283 . S
C3 O43 1.283 . S
C4 O30 1.283 . S
C4 O39 1.283 . S
C5 O31 1.283 . S
C5 O41 1.283 . S
C6 O32 1.283 . S
C6 O38 1.283 . S
C7 O33 1.283 . S
C7 O40 1.283 . S
C8 O34 1.283 . S
C8 O49 1.283 . S
C9 O35 1.283 . S
C9 O47 1.283 . S
C10 O36 1.283 . S
C10 O48 1.283 . S
C11 O37 1.283 . S
C11 O46 1.283 . S
Eu12 O13 2.370 . S
Eu12 O14 2.370 . S
Eu12 O17 2.370 . S
Eu12 O18 2.370 . S
Eu12 O26 2.363 . S
Eu12 O27 2.363 . S
Eu12 O40 2.363 . S
Eu12 O41 2.363 . S
O13 Eu12 2.370 . S
O13 Eu15 2.370 . S
O13 Eu20 2.370 . S
O14 Eu12 2.370 . S
O14 Eu16 2.370 . S
O14 Eu19 2.370 . S
Eu15 O13 2.370 . S
Eu15 O17 2.370 . S
Eu15 O21 2.370 . S
Eu15 O22 2.370 . S
Eu15 O30 2.363 . S
Eu15 O31 2.363 . S
Eu15 O46 2.363 . S
Eu15 O47 2.363 . S
Eu16 O14 2.370 . S
Eu16 O18 2.370 . S
Eu16 O23 2.370 . S
Eu16 O24 2.370 . S
Eu16 O32 2.363 . S
Eu16 O33 2.363 . S
Eu16 O48 2.363 . S
Eu16 O49 2.363 . S
O17 Eu12 2.370 . S
O17 Eu15 2.370 . S
O17 Eu19 2.370 . S
O18 Eu12 2.370 . S
O18 Eu16 2.370 . S
O18 Eu20 2.370 . S
Eu19 O14 2.370 . S
Eu19 O17 2.370 . S
Eu19 O21 2.370 . S
Eu19 O24 2.370 . S
Eu19 O36 2.363 . S
Eu19 O37 2.363 . S
Eu19 O44 2.363 . S
Eu19 O45 2.363 . S
Eu20 O13 2.370 . S
Eu20 O18 2.370 . S
Eu20 O22 2.370 . S
Eu20 O23 2.370 . S
Eu20 O34 2.363 . S
Eu20 O35 2.363 . S
Eu20 O42 2.363 . S
Eu20 O43 2.363 . S
O21 Eu15 2.370 . S
O21 Eu19 2.370 . S
O21 Eu25 2.370 . S
O22 Eu15 2.370 . S
O22 Eu20 2.370 . S
O22 Eu25 2.370 . S
O23 Eu16 2.370 . S
O23 Eu20 2.370 . S
O23 Eu25 2.370 . S
O24 Eu16 2.370 . S
O24 Eu19 2.370 . S
O24 Eu25 2.370 . S
Eu25 O21 2.370 . S
Eu25 O22 2.370 . S
Eu25 O23 2.370 . S
Eu25 O24 2.370 . S
Eu25 O28 2.363 . S
Eu25 O29 2.363 . S
Eu25 O38 2.363 . S
Eu25 O39 2.363 . S
O26 C0 1.283 . S
O26 Eu12 2.363 . S
O27 C1 1.283 . S
O27 Eu12 2.363 . S
O28 C2 1.283 . S
O28 Eu25 2.363 . S
O29 C3 1.283 . S
O29 Eu25 2.363 . S
O30 C4 1.283 . S
O30 Eu15 2.363 . S
O31 C5 1.283 . S
O31 Eu15 2.363 . S
O32 C6 1.283 . S
O32 Eu16 2.363 . S
O33 C7 1.283 . S
O33 Eu16 2.363 . S
O34 C8 1.283 . S
O34 Eu20 2.363 . S
O35 C9 1.283 . S
O35 Eu20 2.363 . S
O36 C10 1.283 . S
O36 Eu19 2.363 . S
O37 C11 1.283 . S
O37 Eu19 2.363 . S
O38 C6 1.283 . S
O38 Eu25 2.363 . S
O39 C4 1.283 . S
O39 Eu25 2.363 . S
O40 C7 1.283 . S
O40 Eu12 2.363 . S
O41 C5 1.283 . S
O41 Eu12 2.363 . S
O42 C1 1.283 . S
O42 Eu20 2.363 . S
O43 C3 1.283 . S
O43 Eu20 2.363 . S
O44 C0 1.283 . S
O44 Eu19 2.363 . S
O45 C2 1.283 . S
O45 Eu19 2.363 . S
O46 C11 1.283 . S
O46 Eu15 2.363 . S
O47 C9 1.283 . S
O47 Eu15 2.363 . S
O48 C10 1.283 . S
O48 Eu16 2.363 . S
O49 C8 1.283 . S
O49 Eu16 2.363 . S
C50 O76 1.283 . S
C50 O94 1.283 . S
C51 O77 1.283 . S
C51 O92 1.283 . S
C52 O78 1.283 . S
C52 O95 1.283 . S
C53 O79 1.283 . S
C53 O93 1.283 . S
C54 O80 1.283 . S
C54 O89 1.283 . S
C55 O81 1.283 . S
C55 O91 1.283 . S
C56 O82 1.283 . S
C56 O88 1.283 . S
C57 O83 1.283 . S
C57 O90 1.283 . S
C58 O84 1.283 . S
C58 O99 1.283 . S
C59 O85 1.283 . S
C59 O97 1.283 . S
C60 O86 1.283 . S
C60 O98 1.283 . S
C61 O87 1.283 . S
C61 O96 1.283 . S
Eu62 O63 2.370 . S
Eu62 O64 2.370 . S
Eu62 O67 2.370 . S
Eu62 O68 2.370 . S
Eu62 O76 2.363 . S
Eu62 O77 2.363 . S
Eu62 O90 2.363 . S
Eu62 O91 2.363 . S
O63 Eu62 2.370 . S
O63 Eu65 2.370 . S
O63 Eu70 2.370 . S
O64 Eu62 2.370 . S
O64 Eu66 2.370 . S
O64 Eu69 2.370 . S
Eu65 O63 2.370 . S
Eu65 O67 2.370 . S
Eu65 O71 2.370 . S
Eu65 O72 2.370 . S
Eu65 O80 2.363 . S
Eu65 O81 2.363 . S
Eu65 O96 2.363 . S
Eu65 O97 2.363 . S
Eu66 O64 2.370 . S
Eu66 O68 2.370 . S
Eu66 O73 2.370 . S
Eu66 O74 2.370 . S
Eu66 O82 2.363 . S
Eu66 O83 2.363 . S
Eu66 O98 2.363 . S
Eu66 O99 2.363 . S
O67 Eu62 2.370 . S
O67 Eu65 2.370 . S
O67 Eu69 2.370 . S
O68 Eu62 2.370 . S
O68 Eu66 2.370 . S
O68 Eu70 2.370 . S
Eu69 O64 2.370 . S
Eu69 O67 2.370 . S
Eu69 O71 2.370 . S
Eu69 O74 2.370 . S
Eu69 O86 2.363 . S
Eu69 O87 2.363 . S
Eu69 O94 2.363 . S
Eu69 O95 2.363 . S
Eu70 O63 2.370 . S
Eu70 O68 2.370 . S
Eu70 O72 2.370 . S
Eu70 O73 2.370 . S
Eu70 O84 2.363 . S
Eu70 O85 2.363 . S
Eu70 O92 2.363 . S
Eu70 O93 2.363 . S
O71 Eu65 2.370 . S
O71 Eu69 2.370 . S
O71 Eu75 2.370 . S
O72 Eu65 2.370 . S
O72 Eu70 2.370 . S
O72 Eu75 2.370 . S
O73 Eu66 2.370 . S
O73 Eu70 2.370 . S
O73 Eu75 2.370 . S
O74 Eu66 2.370 . S
O74 Eu69 2.370 . S
O74 Eu75 2.370 . S
Eu75 O71 2.370 . S
Eu75 O72 2.370 . S
Eu75 O73 2.370 . S
Eu75 O74 2.370 . S
Eu75 O78 2.363 . S
Eu75 O79 2.363 . S
Eu75 O88 2.363 . S
Eu75 O89 2.363 . S
O76 C50 1.283 . S
O76 Eu62 2.363 . S
O77 C51 1.283 . S
O77 Eu62 2.363 . S
O78 C52 1.283 . S
O78 Eu75 2.363 . S
O79 C53 1.283 . S
O79 Eu75 2.363 . S
O80 C54 1.283 . S
O80 Eu65 2.363 . S
O81 C55 1.283 . S
O81 Eu65 2.363 . S
O82 C56 1.283 . S
O82 Eu66 2.363 . S
O83 C57 1.283 . S
O83 Eu66 2.363 . S
O84 C58 1.283 . S
O84 Eu70 2.363 . S
O85 C59 1.283 . S
O85 Eu70 2.363 . S
O86 C60 1.283 . S
O86 Eu69 2.363 . S
O87 C61 1.283 . S
O87 Eu69 2.363 . S
O88 C56 1.283 . S
O88 Eu75 2.363 . S
O89 C54 1.283 . S
O89 Eu75 2.363 . S
O90 C57 1.283 . S
O90 Eu62 2.363 . S
O91 C55 1.283 . S
O91 Eu62 2.363 . S
O92 C51 1.283 . S
O92 Eu70 2.363 . S
O93 C53 1.283 . S
O93 Eu70 2.363 . S
O94 C50 1.283 . S
O94 Eu69 2.363 . S
O95 C52 1.283 . S
O95 Eu69 2.363 . S
O96 C61 1.283 . S
O96 Eu65 2.363 . S
O97 C59 1.283 . S
O97 Eu65 2.363 . S
O98 C60 1.283 . S
O98 Eu66 2.363 . S
O99 C58 1.283 . S
O99 Eu66 2.363 . S
H100 C108 0.929 . S
H101 C110 0.930 . S
H102 C112 0.930 . S
H103 C115 0.929 . S
H104 C118 0.930 . S
H105 C120 0.960 . S
H106 C120 0.960 . S
H107 C120 0.960 1_565 S
C108 H100 0.929 . S
C108 C109 1.377 . S
C108 C110 1.384 . S
C109 C108 1.377 . S
C109 C115 1.390 . S
C110 H101 0.930 . S
C110 C108 1.384 . S
C110 C111 1.372 . S
C111 C110 1.372 . S
C111 C112 1.400 . S
C111 C116 1.490 . S
C112 H102 0.930 . S
C112 C111 1.400 . S
C112 C115 1.386 . S
H113 C129 0.930 . S
H114 C130 0.931 . S
C115 H103 0.929 . S
C115 C109 1.390 . S
C115 C112 1.386 . S
C116 C111 1.490 . S
C116 C118 1.395 1_556 S
C116 C119 1.403 . S
H117 C123 0.930 1_556 S
C118 H104 0.930 . S
C118 C116 1.395 1_554 S
C118 C121 1.403 . S
C119 C116 1.403 . S
C119 C120 1.524 1_565 S
C119 C123 1.403 1_566 S
C120 H105 0.960 . S
C120 H106 0.960 . S
C120 H107 0.960 1_545 S
C120 C119 1.524 1_545 S
C121 C118 1.403 . S
C121 C122 1.392 1_565 S
C121 C125 1.495 . S
C122 C121 1.392 1_545 S
C122 C123 1.382 . S
C122 C124 1.478 . S
C123 H117 0.930 1_554 S
C123 C119 1.403 1_544 S
C123 C122 1.382 . S
C124 C122 1.478 . S
C124 C126 1.381 . S
C124 C130 1.383 . S
C125 C121 1.495 . S
C125 H131 0.959 . S
C125 H132 0.961 . S
C125 H133 0.960 . S
C126 C124 1.381 . S
C126 C127 1.394 . S
C126 H134 0.930 . S
C127 C126 1.394 . S
C127 C128 1.383 . S
C127 H135 0.929 . S
C128 C127 1.383 . S
C128 C129 1.377 . S
C129 H113 0.930 . S
C129 C128 1.377 . S
C129 C130 1.379 . S
C130 H114 0.931 . S
C130 C124 1.383 . S
C130 C129 1.379 . S
H131 C125 0.959 . S
H132 C125 0.961 . S
H133 C125 0.960 . S
H134 C126 0.930 . S
H135 C127 0.929 . S
H136 C144 0.929 . S
H137 C146 0.930 . S
H138 C148 0.930 . S
H139 C151 0.929 . S
H140 C154 0.930 . S
H141 C156 0.960 . S
H142 C156 0.960 . S
H143 C156 0.960 . S
C144 H136 0.929 . S
C144 C145 1.377 . S
C144 C146 1.384 . S
C145 C144 1.377 . S
C145 C151 1.390 . S
C146 H137 0.930 . S
C146 C144 1.384 . S
C146 C147 1.372 . S
C147 C146 1.372 . S
C147 C148 1.400 . S
C147 C152 1.490 . S
C148 H138 0.930 . S
C148 C147 1.400 . S
C148 C151 1.386 . S
H149 C165 0.930 . S
H150 C166 0.931 . S
C151 H139 0.929 . S
C151 C145 1.390 . S
C151 C148 1.386 . S
C152 C147 1.490 . S
C152 C154 1.395 . S
C152 C155 1.403 . S
H153 C159 0.930 . S
C154 H140 0.930 . S
C154 C152 1.395 . S
C154 C157 1.403 . S
C155 C152 1.403 . S
C155 C156 1.524 . S
C155 C159 1.400 . S
C156 H141 0.960 . S
C156 H142 0.960 . S
C156 H143 0.960 . S
C156 C155 1.524 . S
C157 C154 1.403 . S
C157 C158 1.392 . S
C157 C161 1.495 . S
C158 C157 1.392 . S
C158 C159 1.385 . S
C158 C160 1.478 . S
C159 H153 0.930 . S
C159 C155 1.400 . S
C159 C158 1.385 . S
C160 C158 1.478 . S
C160 C162 1.381 . S
C160 C166 1.383 . S
C161 C157 1.495 . S
C161 H167 0.959 . S
C161 H168 0.961 . S
C161 H169 0.960 . S
C162 C160 1.381 . S
C162 C163 1.394 . S
C162 H170 0.930 . S
C163 C162 1.394 . S
C163 C164 1.383 . S
C163 H171 0.929 . S
C164 C163 1.383 . S
C164 C165 1.377 . S
C165 H149 0.930 . S
C165 C164 1.377 . S
C165 C166 1.379 . S
C166 H150 0.931 . S
C166 C160 1.383 . S
C166 C165 1.379 . S
H167 C161 0.959 . S
H168 C161 0.961 . S
H169 C161 0.960 . S
H170 C162 0.930 . S
H171 C163 0.929 . S
H172 C180 0.929 . S
H173 C182 0.930 1_455 S
H174 C184 0.930 . S
H175 C187 0.929 . S
H176 C190 0.930 . S
H177 C192 0.960 . S
H178 C192 0.960 . S
H179 C192 0.960 . S
C180 H172 0.929 . S
C180 C181 1.377 . S
C180 C182 1.384 . S
C181 C180 1.377 . S
C181 C187 1.390 . S
C182 H173 0.930 1_655 S
C182 C180 1.384 . S
C182 C183 1.372 . S
C183 C182 1.372 . S
C183 C184 1.400 . S
C183 C188 1.490 . S
C184 H174 0.930 . S
C184 C183 1.400 . S
C184 C187 1.386 . S
H185 C201 0.930 . S
H186 C202 0.931 . S
C187 H175 0.929 . S
C187 C181 1.390 . S
C187 C184 1.386 . S
C188 C183 1.490 . S
C188 C190 1.395 1_655 S
C188 C191 1.403 1_554 S
H189 C195 0.930 . S
C190 H176 0.930 . S
C190 C188 1.395 1_455 S
C190 C193 1.403 . S
C191 C188 1.403 1_556 S
C191 C192 1.524 . S
C191 C195 1.400 1_655 S
C192 H177 0.960 . S
C192 H178 0.960 . S
C192 H179 0.960 . S
C192 C191 1.524 . S
C193 C190 1.403 . S
C193 C194 1.392 1_554 S
C193 C197 1.495 . S
C194 C193 1.392 1_556 S
C194 C195 1.385 . S
C194 C196 1.478 . S
C195 H189 0.930 . S
C195 C191 1.400 1_455 S
C195 C194 1.385 . S
C196 C194 1.478 . S
C196 C198 1.381 . S
C196 C202 1.383 . S
C197 C193 1.495 . S
C197 H203 0.959 . S
C197 H204 0.961 . S
C197 H205 0.960 . S
C198 C196 1.381 . S
C198 C199 1.394 . S
C198 H206 0.930 . S
C199 C198 1.394 . S
C199 C200 1.383 . S
C199 H207 0.929 . S
C200 C199 1.383 . S
C200 C201 1.377 . S
C201 H185 0.930 . S
C201 C200 1.377 . S
C201 C202 1.379 . S
C202 H186 0.931 . S
C202 C196 1.383 . S
C202 C201 1.379 . S
H203 C197 0.959 . S
H204 C197 0.961 . S
H205 C197 0.960 . S
H206 C198 0.930 . S
H207 C199 0.929 . S
H208 C216 0.929 . S
H209 C218 0.930 . S
H210 C220 0.930 1_545 S
H211 C223 0.929 . S
H212 C226 0.930 . S
H213 C228 0.960 . S
H214 C228 0.960 . S
H215 C228 0.960 . S
C216 H208 0.929 . S
C216 C217 1.377 . S
C216 C218 1.384 . S
C217 C216 1.377 . S
C217 C223 1.390 . S
C218 H209 0.930 . S
C218 C216 1.384 . S
C218 C219 1.372 . S
C219 C218 1.372 . S
C219 C220 1.400 . S
C219 C224 1.490 . S
C220 H210 0.930 1_565 S
C220 C219 1.400 . S
C220 C223 1.386 . S
H221 C237 0.930 . S
H222 C238 0.931 . S
C223 H211 0.929 . S
C223 C217 1.390 . S
C223 C220 1.386 . S
C224 C219 1.490 . S
C224 C226 1.395 . S
C224 C227 1.403 1_565 S
H225 C231 0.930 . S
C226 H212 0.930 . S
C226 C224 1.395 . S
C226 C229 1.403 . S
C227 C224 1.403 1_545 S
C227 C228 1.524 . S
C227 C231 1.400 . S
C228 H213 0.960 . S
C228 H214 0.960 . S
C228 H215 0.960 . S
C228 C227 1.524 . S
C229 C226 1.403 . S
C229 C230 1.392 1_565 S
C229 C233 1.495 . S
C230 C229 1.392 1_545 S
C230 C231 1.385 . S
C230 C232 1.478 . S
C231 H225 0.930 . S
C231 C227 1.400 . S
C231 C230 1.385 . S
C232 C230 1.478 . S
C232 C234 1.381 . S
C232 C238 1.383 . S
C233 C229 1.495 . S
C233 H239 0.959 . S
C233 H240 0.961 . S
C233 H241 0.960 . S
C234 C232 1.381 . S
C234 C235 1.394 . S
C234 H242 0.930 . S
C235 C234 1.394 . S
C235 C236 1.383 . S
C235 H243 0.929 . S
C236 C235 1.383 . S
C236 C237 1.377 . S
C237 H221 0.930 . S
C237 C236 1.377 . S
C237 C238 1.379 . S
C238 H222 0.931 . S
C238 C232 1.383 . S
C238 C237 1.379 . S
H239 C233 0.959 . S
H240 C233 0.961 . S
H241 C233 0.960 . S
H242 C234 0.930 . S
H243 C235 0.929 . S
H244 C252 0.929 . S
H245 C254 0.930 . S
H246 C256 0.930 . S
H247 C259 0.929 . S
H248 C262 0.930 . S
H249 C264 0.960 . S
H250 C264 0.960 . S
H251 C264 0.960 . S
C252 H244 0.929 . S
C252 C253 1.377 . S
C252 C254 1.384 . S
C253 C252 1.377 . S
C253 C259 1.390 . S
C254 H245 0.930 . S
C254 C252 1.384 . S
C254 C255 1.372 . S
C255 C254 1.372 . S
C255 C256 1.400 . S
C255 C260 1.490 . S
C256 H246 0.930 . S
C256 C255 1.400 . S
C256 C259 1.386 . S
H257 C273 0.930 . S
H258 C274 0.931 . S
C259 H247 0.929 . S
C259 C253 1.390 . S
C259 C256 1.386 . S
C260 C255 1.490 . S
C260 C262 1.395 . S
C260 C263 1.403 . S
H261 C267 0.930 . S
C262 H248 0.930 . S
C262 C260 1.395 . S
C262 C265 1.403 1_554 S
C263 C260 1.403 . S
C263 C264 1.524 . S
C263 C267 1.400 1_554 S
C264 H249 0.960 . S
C264 H250 0.960 . S
C264 H251 0.960 . S
C264 C263 1.524 . S
C265 C262 1.403 1_556 S
C265 C266 1.392 . S
C265 C269 1.495 . S
C266 C265 1.392 . S
C266 C267 1.385 . S
C266 C268 1.478 . S
C267 H261 0.930 . S
C267 C263 1.400 1_556 S
C267 C266 1.385 . S
C268 C266 1.478 . S
C268 C270 1.381 . S
C268 C274 1.383 . S
C269 C265 1.495 . S
C269 H275 0.959 . S
C269 H276 0.961 . S
C269 H277 0.960 . S
C270 C268 1.381 . S
C270 C271 1.394 . S
C270 H278 0.930 . S
C271 C270 1.394 . S
C271 C272 1.383 . S
C271 H279 0.929 . S
C272 C271 1.383 . S
C272 C273 1.377 . S
C273 H257 0.930 . S
C273 C272 1.377 . S
C273 C274 1.379 . S
C274 H258 0.931 . S
C274 C268 1.383 . S
C274 C273 1.379 . S
H275 C269 0.959 . S
H276 C269 0.961 . S
H277 C269 0.960 . S
H278 C270 0.930 . S
H279 C271 0.929 . S
H280 C288 0.929 . S
H281 C290 0.930 . S
H282 C292 0.930 . S
H283 C295 0.929 . S
H284 C298 0.930 . S
H285 C300 0.960 . S
H286 C300 0.960 . S
H287 C300 0.960 . S
C288 H280 0.929 . S
C288 C289 1.377 . S
C288 C290 1.384 . S
C289 C288 1.377 . S
C289 C295 1.390 . S
C290 H281 0.930 . S
C290 C288 1.384 . S
C290 C291 1.372 . S
C291 C290 1.372 . S
C291 C292 1.400 . S
C291 C296 1.490 . S
C292 H282 0.930 . S
C292 C291 1.400 . S
C292 C295 1.386 . S
H293 C309 0.930 . S
H294 C310 0.931 . S
C295 H283 0.929 . S
C295 C289 1.390 . S
C295 C292 1.386 . S
C296 C291 1.490 . S
C296 C298 1.395 . S
C296 C299 1.403 . S
H297 C303 0.930 . S
C298 H284 0.930 . S
C298 C296 1.395 . S
C298 C301 1.403 . S
C299 C296 1.403 . S
C299 C300 1.524 1_655 S
C299 C303 1.400 1_655 S
C300 H285 0.960 . S
C300 H286 0.960 . S
C300 H287 0.960 . S
C300 C299 1.524 1_455 S
C301 C298 1.403 . S
C301 C302 1.393 1_655 S
C301 C305 1.495 . S
C302 C301 1.393 1_455 S
C302 C303 1.384 . S
C302 C304 1.477 . S
C303 H297 0.930 . S
C303 C299 1.400 1_455 S
C303 C302 1.384 . S
C304 C302 1.477 . S
C304 C306 1.381 . S
C304 C310 1.383 . S
C305 C301 1.495 . S
C305 H311 0.959 . S
C305 H312 0.961 . S
C305 H313 0.960 . S
C306 C304 1.381 . S
C306 C307 1.394 . S
C306 H314 0.930 . S
C307 C306 1.394 . S
C307 C308 1.383 . S
C307 H315 0.929 . S
C308 C307 1.383 . S
C308 C309 1.377 . S
C309 H293 0.930 . S
C309 C308 1.377 . S
C309 C310 1.379 . S
C310 H294 0.931 . S
C310 C304 1.383 . S
C310 C309 1.379 . S
H311 C305 0.959 . S
H312 C305 0.961 . S
H313 C305 0.960 . S
H314 C306 0.930 . S
H315 C307 0.929 . S
H316 C324 0.929 . S
H317 C326 0.930 1_565 S
H318 C328 0.930 . S
H319 C331 0.929 . S
H320 C334 0.930 . S
H321 C336 0.960 . S
H322 C336 0.960 . S
H323 C336 0.960 . S
C324 H316 0.929 . S
C324 C325 1.377 . S
C324 C326 1.384 . S
C325 C324 1.377 . S
C325 C331 1.390 . S
C326 H317 0.930 1_545 S
C326 C324 1.384 . S
C326 C327 1.372 1_545 S
C327 C326 1.372 1_565 S
C327 C328 1.400 . S
C327 C332 1.490 . S
C328 H318 0.930 . S
C328 C327 1.400 . S
C328 C331 1.386 1_565 S
H329 C345 0.930 . S
H330 C346 0.931 . S
C331 H319 0.929 . S
C331 C325 1.390 . S
C331 C328 1.386 1_545 S
C332 C327 1.490 . S
C332 C334 1.395 . S
C332 C335 1.403 . S
H333 C339 0.930 . S
C334 H320 0.930 . S
C334 C332 1.395 . S
C334 C337 1.403 . S
C335 C332 1.403 . S
C335 C336 1.524 . S
C335 C339 1.400 . S
C336 H321 0.960 . S
C336 H322 0.960 . S
C336 H323 0.960 . S
C336 C335 1.524 . S
C337 C334 1.403 . S
C337 C338 1.392 . S
C337 C341 1.495 . S
C338 C337 1.392 . S
C338 C339 1.385 . S
C338 C340 1.478 . S
C339 H333 0.930 . S
C339 C335 1.400 . S
C339 C338 1.385 . S
C340 C338 1.478 . S
C340 C342 1.381 . S
C340 C346 1.383 . S
C341 C337 1.495 . S
C341 H347 0.959 . S
C341 H348 0.961 . S
C341 H349 0.960 . S
C342 C340 1.381 . S
C342 C343 1.394 . S
C342 H350 0.930 . S
C343 C342 1.394 . S
C343 C344 1.383 . S
C343 H351 0.929 . S
C344 C343 1.383 . S
C344 C345 1.377 . S
C345 H329 0.930 . S
C345 C344 1.377 . S
C345 C346 1.379 . S
C346 H330 0.931 . S
C346 C340 1.383 . S
C346 C345 1.379 . S
H347 C341 0.959 . S
H348 C341 0.961 . S
H349 C341 0.960 . S
H350 C342 0.930 . S
H351 C343 0.929 . S
H352 C360 0.929 . S
H353 C362 0.930 1_655 S
H354 C364 0.930 . S
H355 C367 0.929 . S
H356 C370 0.930 . S
H357 C372 0.960 . S
H358 C372 0.960 . S
H359 C372 0.960 . S
C360 H352 0.929 . S
C360 C361 1.377 . S
C360 C362 1.384 . S
C361 C360 1.377 . S
C361 C367 1.390 . S
C362 H353 0.930 1_455 S
C362 C360 1.384 . S
C362 C363 1.372 1_455 S
C363 C362 1.372 1_655 S
C363 C364 1.400 . S
C363 C368 1.490 . S
C364 H354 0.930 . S
C364 C363 1.400 . S
C364 C367 1.386 1_655 S
H365 C381 0.930 . S
H366 C382 0.931 . S
C367 H355 0.929 . S
C367 C361 1.390 . S
C367 C364 1.386 1_455 S
C368 C363 1.490 . S
C368 C370 1.395 . S
C368 C371 1.403 . S
H369 C375 0.930 . S
C370 H356 0.930 . S
C370 C368 1.395 . S
C370 C373 1.403 . S
C371 C368 1.403 . S
C371 C372 1.524 . S
C371 C375 1.400 . S
C372 H357 0.960 . S
C372 H358 0.960 . S
C372 H359 0.960 . S
C372 C371 1.524 . S
C373 C370 1.403 . S
C373 C374 1.392 . S
C373 C377 1.495 . S
C374 C373 1.392 . S
C374 C375 1.385 . S
C374 C376 1.478 . S
C375 H369 0.930 . S
C375 C371 1.400 . S
C375 C374 1.385 . S
C376 C374 1.478 . S
C376 C378 1.381 . S
C376 C382 1.383 . S
C377 C373 1.495 . S
C377 H383 0.959 . S
C377 H384 0.961 . S
C377 H385 0.960 . S
C378 C376 1.381 . S
C378 C379 1.394 . S
C378 H386 0.930 . S
C379 C378 1.394 . S
C379 C380 1.383 . S
C379 H387 0.929 . S
C380 C379 1.383 . S
C380 C381 1.377 . S
C381 H365 0.930 . S
C381 C380 1.377 . S
C381 C382 1.379 . S
C382 H366 0.931 . S
C382 C376 1.383 . S
C382 C381 1.379 . S
H383 C377 0.959 . S
H384 C377 0.961 . S
H385 C377 0.960 . S
H386 C378 0.930 . S
H387 C379 0.929 . S
H388 C396 0.929 . S
H389 C398 0.930 . S
H390 C400 0.930 . S
H391 C403 0.929 . S
H392 C406 0.930 . S
H393 C408 0.960 . S
H394 C408 0.960 . S
H395 C408 0.960 . S
C396 H388 0.929 . S
C396 C397 1.377 . S
C396 C398 1.384 1_545 S
C397 C396 1.377 . S
C397 C403 1.390 . S
C398 H389 0.930 . S
C398 C396 1.384 1_565 S
C398 C399 1.372 . S
C399 C398 1.372 . S
C399 C400 1.400 1_565 S
C399 C404 1.490 . S
C400 H390 0.930 . S
C400 C399 1.400 1_545 S
C400 C403 1.386 . S
H401 C417 0.930 . S
H402 C418 0.931 . S
C403 H391 0.929 . S
C403 C397 1.390 . S
C403 C400 1.386 . S
C404 C399 1.490 . S
C404 C406 1.395 . S
C404 C407 1.403 . S
H405 C411 0.930 . S
C406 H392 0.930 . S
C406 C404 1.395 . S
C406 C409 1.403 . S
C407 C404 1.403 . S
C407 C408 1.524 . S
C407 C411 1.400 . S
C408 H393 0.960 . S
C408 H394 0.960 . S
C408 H395 0.960 . S
C408 C407 1.524 . S
C409 C406 1.403 . S
C409 C410 1.392 . S
C409 C413 1.495 . S
C410 C409 1.392 . S
C410 C411 1.385 . S
C410 C412 1.478 . S
C411 H405 0.930 . S
C411 C407 1.400 . S
C411 C410 1.385 . S
C412 C410 1.478 . S
C412 C414 1.381 . S
C412 C418 1.383 1_455 S
C413 C409 1.495 . S
C413 H419 0.959 . S
C413 H420 0.961 . S
C413 H421 0.960 . S
C414 C412 1.381 . S
C414 C415 1.394 1_455 S
C414 H422 0.930 . S
C415 C414 1.394 1_655 S
C415 C416 1.383 . S
C415 H423 0.929 . S
C416 C415 1.383 . S
C416 C417 1.377 . S
C417 H401 0.930 . S
C417 C416 1.377 . S
C417 C418 1.379 . S
C418 H402 0.931 . S
C418 C412 1.383 1_655 S
C418 C417 1.379 . S
H419 C413 0.959 . S
H420 C413 0.961 . S
H421 C413 0.960 . S
H422 C414 0.930 . S
H423 C415 0.929 . S
H424 C432 0.929 . S
H425 C434 0.930 . S
H426 C436 0.930 . S
H427 C439 0.929 . S
H428 C442 0.930 . S
H429 C444 0.960 . S
H430 C444 0.960 . S
H431 C444 0.960 . S
C432 H424 0.929 . S
C432 C433 1.377 . S
C432 C434 1.384 . S
C433 C432 1.377 . S
C433 C439 1.390 . S
C434 H425 0.930 . S
C434 C432 1.384 . S
C434 C435 1.372 . S
C435 C434 1.372 . S
C435 C436 1.400 . S
C435 C440 1.490 . S
C436 H426 0.930 . S
C436 C435 1.400 . S
C436 C439 1.386 . S
H437 C453 0.930 . S
H438 C454 0.931 . S
C439 H427 0.929 . S
C439 C433 1.390 . S
C439 C436 1.386 . S
C440 C435 1.490 . S
C440 C442 1.395 . S
C440 C443 1.403 . S
H441 C447 0.930 . S
C442 H428 0.930 . S
C442 C440 1.395 . S
C442 C445 1.403 . S
C443 C440 1.403 . S
C443 C444 1.524 . S
C443 C447 1.400 . S
C444 H429 0.960 . S
C444 H430 0.960 . S
C444 H431 0.960 . S
C444 C443 1.524 . S
C445 C442 1.403 . S
C445 C446 1.392 . S
C445 C449 1.495 . S
C446 C445 1.392 . S
C446 C447 1.385 . S
C446 C448 1.478 . S
C447 H441 0.930 . S
C447 C443 1.400 . S
C447 C446 1.385 . S
C448 C446 1.478 . S
C448 C450 1.381 1_545 S
C448 C454 1.383 . S
C449 C445 1.495 . S
C449 H455 0.959 . S
C449 H456 0.961 . S
C449 H457 0.960 . S
C450 C448 1.381 1_565 S
C450 C451 1.394 . S
C450 H458 0.930 . S
C451 C450 1.394 . S
C451 C452 1.383 . S
C451 H459 0.929 . S
C452 C451 1.383 . S
C452 C453 1.377 . S
C453 H437 0.930 . S
C453 C452 1.377 . S
C453 C454 1.379 1_565 S
C454 H438 0.931 . S
C454 C448 1.383 . S
C454 C453 1.379 1_545 S
H455 C449 0.959 . S
H456 C449 0.961 . S
H457 C449 0.960 . S
H458 C450 0.930 . S
H459 C451 0.929 . S
H460 C468 0.929 . S
H461 C470 0.930 . S
H462 C472 0.930 . S
H463 C475 0.929 . S
H464 C478 0.930 . S
H465 C480 0.960 . S
H466 C480 0.960 . S
H467 C480 0.960 . S
C468 H460 0.929 . S
C468 C469 1.377 . S
C468 C470 1.384 . S
C469 C468 1.377 . S
C469 C475 1.390 . S
C470 H461 0.930 . S
C470 C468 1.384 . S
C470 C471 1.372 . S
C471 C470 1.372 . S
C471 C472 1.400 . S
C471 C476 1.490 . S
C472 H462 0.930 . S
C472 C471 1.400 . S
C472 C475 1.386 . S
H473 C489 0.930 . S
H474 C490 0.931 . S
C475 H463 0.929 . S
C475 C469 1.390 . S
C475 C472 1.386 . S
C476 C471 1.490 . S
C476 C478 1.395 . S
C476 C479 1.403 . S
H477 C483 0.930 . S
C478 H464 0.930 . S
C478 C476 1.395 . S
C478 C481 1.403 . S
C479 C476 1.403 . S
C479 C480 1.524 . S
C479 C483 1.400 . S
C480 H465 0.960 . S
C480 H466 0.960 . S
C480 H467 0.960 . S
C480 C479 1.524 . S
C481 C478 1.403 . S
C481 C482 1.392 . S
C481 C485 1.495 . S
C482 C481 1.392 . S
C482 C483 1.385 . S
C482 C484 1.478 . S
C483 H477 0.930 . S
C483 C479 1.400 . S
C483 C482 1.385 . S
C484 C482 1.478 . S
C484 C486 1.381 1_455 S
C484 C490 1.383 . S
C485 C481 1.495 . S
C485 H491 0.959 . S
C485 H492 0.961 . S
C485 H493 0.960 . S
C486 C484 1.381 1_655 S
C486 C487 1.394 . S
C486 H494 0.930 . S
C487 C486 1.394 . S
C487 C488 1.383 . S
C487 H495 0.929 . S
C488 C487 1.383 . S
C488 C489 1.377 . S
C489 H473 0.930 . S
C489 C488 1.377 . S
C489 C490 1.379 1_655 S
C490 H474 0.931 . S
C490 C484 1.383 . S
C490 C489 1.379 1_455 S
H491 C485 0.959 . S
H492 C485 0.961 . S
H493 C485 0.960 . S
H494 C486 0.930 . S
H495 C487 0.929 . S
H496 C504 0.929 . S
H497 C506 0.930 . S
H498 C508 0.930 . S
H499 C511 0.929 . S
H500 C514 0.930 . S
H501 C516 0.960 . S
H502 C516 0.960 . S
H503 C516 0.960 . S
C504 H496 0.929 . S
C504 C505 1.377 . S
C504 C506 1.384 1_455 S
C505 C504 1.377 . S
C505 C511 1.390 . S
C506 H497 0.930 . S
C506 C504 1.384 1_655 S
C506 C507 1.372 . S
C507 C506 1.372 . S
C507 C508 1.400 1_655 S
C507 C512 1.490 . S
C508 H498 0.930 . S
C508 C507 1.400 1_455 S
C508 C511 1.386 . S
H509 C525 0.930 . S
H510 C526 0.934 1_545 S
C511 H499 0.929 . S
C511 C505 1.390 . S
C511 C508 1.386 . S
C512 C507 1.490 . S
C512 C514 1.395 . S
C512 C515 1.403 . S
H513 C519 0.930 . S
C514 H500 0.930 . S
C514 C512 1.395 . S
C514 C517 1.403 . S
C515 C512 1.403 . S
C515 C516 1.524 . S
C515 C519 1.400 . S
C516 H501 0.960 . S
C516 H502 0.960 . S
C516 H503 0.960 . S
C516 C515 1.524 . S
C517 C514 1.403 . S
C517 C518 1.392 . S
C517 C521 1.495 . S
C518 C517 1.392 . S
C518 C519 1.385 . S
C518 C520 1.478 . S
C519 H513 0.930 . S
C519 C515 1.400 . S
C519 C518 1.385 . S
C520 C518 1.478 . S
C520 C522 1.381 . S
C520 C526 1.383 1_545 S
C521 C517 1.495 . S
C521 H527 0.959 . S
C521 H528 0.961 . S
C521 H529 0.960 . S
C522 C520 1.381 . S
C522 C523 1.394 1_545 S
C522 H530 0.930 . S
C523 C522 1.394 1_565 S
C523 C524 1.383 . S
C523 H531 0.929 . S
C524 C523 1.383 . S
C524 C525 1.377 . S
C525 H509 0.930 . S
C525 C524 1.377 . S
C525 C526 1.379 . S
C526 H510 0.934 1_565 S
C526 C520 1.383 1_565 S
C526 C525 1.379 . S
H527 C521 0.959 . S
H528 C521 0.961 . S
H529 C521 0.960 . S
H530 C522 0.930 . S
H531 C523 0.929 . S
C109 C54 1.763 . S
C128 C5 1.855 . S
C145 C57 1.865 . S
C164 C6 1.786 . S
C181 C1 1.867 . S
C200 C61 1.775 . S
C217 C58 1.867 . S
C236 C2 1.766 . S
C253 C9 1.864 . S
C272 C52 1.728 . S
C289 C10 1.755 . S
C308 C51 1.863 . S
C325 C0 1.011 . S
C344 C3 1.019 . S
C361 C59 1.006 . S
C380 C60 0.990 . S
C397 C11 1.008 . S
C416 C8 0.994 . S
C433 C50 1.011 . S
C452 C53 1.011 . S
C469 C4 1.011 . S
C488 C7 1.008 . S
C505 C55 1.007 . S
C524 C56 0.991 . S
