# Generated by pormake.
# Topology zfg, (5)-cn, num edge types: 1
# Building blocks:
#     Node 0, Type 0, BuildingBlock: XOMCOT_clean_sbu_0, # of connection points: 5
#     Node 1, Type 0, BuildingBlock: XOMCOT_clean_sbu_0, # of connection points: 5
#     Node 2, Type 0, BuildingBlock: XOMCOT_clean_sbu_0, # of connection points: 5
#     Node 3, Type 0, BuildingBlock: XOMCOT_clean_sbu_0, # of connection points: 5
#     Node 4, Type 0, BuildingBlock: XOMCOT_clean_sbu_0, # of connection points: 5
#     Node 5, Type 0, BuildingBlock: XOMCOT_clean_sbu_0, # of connection points: 5
#     Node 6, Type 0, BuildingBlock: XOMCOT_clean_sbu_0, # of connection points: 5
#     Node 7, Type 0, BuildingBlock: XOMCOT_clean_sbu_0, # of connection points: 5
#     Node 8, Type 0, BuildingBlock: XOMCOT_clean_sbu_0, # of connection points: 5
#     Node 9, Type 0, BuildingBlock: XOMCOT_clean_sbu_0, # of connection points: 5
#     Node 10, Type 0, BuildingBlock: XOMCOT_clean_sbu_0, # of connection points: 5
#     Node 11, Type 0, BuildingBlock: XOMCOT_clean_sbu_0, # of connection points: 5
#     Node 12, Type 0, BuildingBlock: XOMCOT_clean_sbu_0, # of connection points: 5
#     Node 13, Type 0, BuildingBlock: XOMCOT_clean_sbu_0, # of connection points: 5
#     Node 14, Type 0, BuildingBlock: XOMCOT_clean_sbu_0, # of connection points: 5
#     Node 15, Type 0, BuildingBlock: XOMCOT_clean_sbu_0, # of connection points: 5
#     Edge 16, Type (0, 0), BuildingBlock: XIVTED_clean_linker_0, # of connection points: 2
#     Edge 17, Type (0, 0), BuildingBlock: XIVTED_clean_linker_0, # of connection points: 2
#     Edge 18, Type (0, 0), BuildingBlock: XIVTED_clean_linker_0, # of connection points: 2
#     Edge 19, Type (0, 0), BuildingBlock: XIVTED_clean_linker_0, # of connection points: 2
#     Edge 20, Type (0, 0), BuildingBlock: XIVTED_clean_linker_0, # of connection points: 2
#     Edge 21, Type (0, 0), BuildingBlock: XIVTED_clean_linker_0, # of connection points: 2
#     Edge 22, Type (0, 0), BuildingBlock: XIVTED_clean_linker_0, # of connection points: 2
#     Edge 23, Type (0, 0), BuildingBlock: XIVTED_clean_linker_0, # of connection points: 2
#     Edge 24, Type (0, 0), BuildingBlock: XIVTED_clean_linker_0, # of connection points: 2
#     Edge 25, Type (0, 0), BuildingBlock: XIVTED_clean_linker_0, # of connection points: 2
#     Edge 26, Type (0, 0), BuildingBlock: XIVTED_clean_linker_0, # of connection points: 2
#     Edge 27, Type (0, 0), BuildingBlock: XIVTED_clean_linker_0, # of connection points: 2
#     Edge 28, Type (0, 0), BuildingBlock: XIVTED_clean_linker_0, # of connection points: 2
#     Edge 29, Type (0, 0), BuildingBlock: XIVTED_clean_linker_0, # of connection points: 2
#     Edge 30, Type (0, 0), BuildingBlock: XIVTED_clean_linker_0, # of connection points: 2
#     Edge 31, Type (0, 0), BuildingBlock: XIVTED_clean_linker_0, # of connection points: 2
#     Edge 32, Type (0, 0), BuildingBlock: XIVTED_clean_linker_0, # of connection points: 2
#     Edge 33, Type (0, 0), BuildingBlock: XIVTED_clean_linker_0, # of connection points: 2
#     Edge 34, Type (0, 0), BuildingBlock: XIVTED_clean_linker_0, # of connection points: 2
#     Edge 35, Type (0, 0), BuildingBlock: XIVTED_clean_linker_0, # of connection points: 2
#     Edge 36, Type (0, 0), BuildingBlock: XIVTED_clean_linker_0, # of connection points: 2
#     Edge 37, Type (0, 0), BuildingBlock: XIVTED_clean_linker_0, # of connection points: 2
#     Edge 38, Type (0, 0), BuildingBlock: XIVTED_clean_linker_0, # of connection points: 2
#     Edge 39, Type (0, 0), BuildingBlock: XIVTED_clean_linker_0, # of connection points: 2
#     Edge 40, Type (0, 0), BuildingBlock: XIVTED_clean_linker_0, # of connection points: 2
#     Edge 41, Type (0, 0), BuildingBlock: XIVTED_clean_linker_0, # of connection points: 2
#     Edge 42, Type (0, 0), BuildingBlock: XIVTED_clean_linker_0, # of connection points: 2
#     Edge 43, Type (0, 0), BuildingBlock: XIVTED_clean_linker_0, # of connection points: 2
#     Edge 44, Type (0, 0), BuildingBlock: XIVTED_clean_linker_0, # of connection points: 2
#     Edge 45, Type (0, 0), BuildingBlock: XIVTED_clean_linker_0, # of connection points: 2
#     Edge 46, Type (0, 0), BuildingBlock: XIVTED_clean_linker_0, # of connection points: 2
#     Edge 47, Type (0, 0), BuildingBlock: XIVTED_clean_linker_0, # of connection points: 2
#     Edge 48, Type (0, 0), BuildingBlock: XIVTED_clean_linker_0, # of connection points: 2
#     Edge 49, Type (0, 0), BuildingBlock: XIVTED_clean_linker_0, # of connection points: 2
#     Edge 50, Type (0, 0), BuildingBlock: XIVTED_clean_linker_0, # of connection points: 2
#     Edge 51, Type (0, 0), BuildingBlock: XIVTED_clean_linker_0, # of connection points: 2
#     Edge 52, Type (0, 0), BuildingBlock: XIVTED_clean_linker_0, # of connection points: 2
#     Edge 53, Type (0, 0), BuildingBlock: XIVTED_clean_linker_0, # of connection points: 2
#     Edge 54, Type (0, 0), BuildingBlock: XIVTED_clean_linker_0, # of connection points: 2
#     Edge 55, Type (0, 0), BuildingBlock: XIVTED_clean_linker_0, # of connection points: 2
# Relax obj value: 0.150
# Max RMSD: 0.179
# Mean RMSD: 0.179
data_MOF--net-zfg--node1-XOMCOT_clean_sbu_0--edge1-XIVTED_clean_linker_0
_symmetry_space_group_name_H-M    P1
_symmetry_Int_Tables_number       1
_symmetry_cell_setting            triclinic
loop_
_symmetry_equiv_pos_as_xyz
'x, y, z'
_cell_length_a     41.935239
_cell_length_b     42.003432
_cell_length_c     53.640374
_cell_angle_alpha  90.022056
_cell_angle_beta   90.137966
_cell_angle_gamma 90.139245
loop_
_atom_site_label
_atom_site_type_symbol
_atom_site_fract_x
_atom_site_fract_y
_atom_site_fract_z
_atom_type_partial_charge
Co0 Co 0.08338 0.31829 0.12808 0.0
C1 C 0.11692 0.25655 0.13626 0.0
C2 C 0.13869 0.2956 0.15587 0.0
C3 C 0.15567 0.26845 0.16098 0.0
N4 N 0.11428 0.28815 0.14059 0.0
N5 N 0.14204 0.24389 0.14869 0.0
H6 H 0.10079 0.24317 0.12444 0.0
H7 H 0.14406 0.31927 0.16264 0.0
C8 C 0.067 0.35669 0.1742 0.0
O9 O 0.03637 0.35496 0.16918 0.0
N10 N 0.05333 0.34987 0.11574 0.0
C11 C 0.02717 0.34631 0.10131 0.0
C12 C 0.01498 0.37595 0.09588 0.0
C13 C 0.05706 0.38169 0.11822 0.0
N14 N 0.03379 0.39825 0.10655 0.0
C15 C 0.03254 0.27391 0.12183 0.0
C16 C 0.01679 0.26435 0.17114 0.0
C17 C 0.99898 0.24868 0.15256 0.0
C18 C 1.00762 0.25343 0.12772 0.0
C19 C 0.04228 0.2845 0.16434 0.0
N20 N 0.04879 0.29046 0.13977 0.0
H21 H 0.03847 0.27633 0.10242 0.0
H22 H 0.0568 0.29483 0.17888 0.0
H23 H 0.01778 0.32416 0.09433 0.0
H24 H 0.07658 0.39244 0.12844 0.0
O25 O 0.08764 0.3006 0.09522 0.0
O26 O 0.11693 0.34043 0.10967 0.0
O27 O 0.08736 0.34261 0.16043 0.0
C28 C 0.10995 0.32133 0.0913 0.0
H29 H 0.17696 0.26706 0.17237 0.0
H30 H 0.99436 0.38064 0.0843 0.0
H31 H 0.01145 0.26063 0.19067 0.0
H32 H 0.99478 0.24182 0.1127 0.0
Co33 Co 0.71279 0.08304 0.12942 0.0
C34 C 0.77535 0.1171 0.1419 0.0
C35 C 0.73329 0.14533 0.14653 0.0
C36 C 0.75919 0.16345 0.1532 0.0
N37 N 0.7431 0.11612 0.13955 0.0
N38 N 0.78571 0.14577 0.15038 0.0
H39 H 0.79111 0.09752 0.13809 0.0
H40 H 0.70866 0.15288 0.147 0.0
C41 C 0.70276 0.09204 0.18359 0.0
O42 O 0.7339 0.09064 0.18609 0.0
N43 N 0.68113 0.05187 0.11957 0.0
C44 C 0.68525 0.0242 0.10734 0.0
C45 C 0.65573 1.01024 0.10372 0.0
C46 C 0.64936 0.05459 0.12296 0.0
N47 N 0.63315 0.02945 0.11349 0.0
C48 C 0.76678 0.04182 0.1286 0.0
C49 C 0.7466 0.99981 0.16485 0.0
C50 C 0.77444 0.99264 0.15141 0.0
C51 C 0.78446 0.01439 0.13322 0.0
C52 C 0.72935 0.02754 0.15943 0.0
N53 N 0.73983 0.0486 0.1418 0.0
H54 H 0.77425 0.05699 0.11347 0.0
H55 H 0.70673 0.03107 0.16857 0.0
H56 H 0.70802 0.01497 0.10131 0.0
H57 H 0.63842 0.07463 0.13226 0.0
O58 O 0.72902 0.08449 0.09605 0.0
O59 O 0.68969 0.11479 0.10999 0.0
O60 O 0.68999 0.08819 0.16217 0.0
C61 C 0.70823 0.10656 0.09163 0.0
H62 H 0.7585 0.18799 0.1593 0.0
H63 H 0.65123 0.988 0.09413 0.0
H64 H 0.73759 0.98377 0.17897 0.0
H65 H 0.80496 1.00962 0.12159 0.0
Co66 Co 0.94297 0.7087 0.12857 0.0
C67 C 0.90527 0.7684 0.13959 0.0
C68 C 0.8809 0.72481 0.14806 0.0
C69 C 0.86114 0.74969 0.15374 0.0
N70 N 0.9086 0.73633 0.13923 0.0
N71 N 0.87636 0.77727 0.14857 0.0
H72 H 0.92338 0.78487 0.13349 0.0
H73 H 0.87531 0.69978 0.15001 0.0
C74 C 0.9528 0.66392 0.17314 0.0
O75 O 0.98093 0.65449 0.16544 0.0
N76 N 0.97616 0.67966 0.11782 0.0
C77 C 1.00698 0.68565 0.11243 0.0
C78 C 0.02167 0.65728 0.10642 0.0
C79 C 0.97234 0.64806 0.11418 0.0
N80 N 0.99985 0.63363 0.10768 0.0
C81 C 0.98271 0.76395 0.12664 0.0
C82 C 0.02012 0.75155 0.16781 0.0
C83 C 0.02909 0.77635 0.15172 0.0
C84 C 1.00926 0.78305 0.13141 0.0
C85 C 0.99289 0.73319 0.16256 0.0
N86 N 0.97513 0.73862 0.14156 0.0
H87 H 0.96899 0.76912 0.11014 0.0
H88 H 0.98724 0.71411 0.17505 0.0
H89 H 0.01827 0.70878 0.11308 0.0
H90 H 0.95018 0.63564 0.11776 0.0
O91 O 0.94027 0.72521 0.0952 0.0
O92 O 0.91224 0.68415 0.10887 0.0
O93 O 0.93749 0.68565 0.16149 0.0
C94 C 0.9193 0.70329 0.0906 0.0
H95 H 0.83708 0.74729 0.16069 0.0
H96 H 0.04655 0.65435 0.10168 0.0
H97 H 0.03448 0.74584 0.18401 0.0
H98 H 0.01518 0.80179 0.11834 0.0
Co99 Co 0.31708 0.9431 0.12655 0.0
C100 C 0.25535 0.90504 0.13466 0.0
C101 C 0.2985 0.88148 0.14537 0.0
C102 C 0.27349 0.86143 0.15009 0.0
N103 N 0.28748 0.90907 0.13591 0.0
N104 N 0.24622 0.876 0.14328 0.0
H105 H 0.23885 0.9223 0.12742 0.0
H106 H 0.32338 0.87639 0.14889 0.0
C107 C 0.32189 0.93635 0.1811 0.0
O108 O 0.29066 0.93882 0.18134 0.0
N109 N 0.34842 0.97492 0.11755 0.0
C110 C 0.34448 1.00187 0.10433 0.0
C111 C 0.37398 0.01604 0.10117 0.0
C112 C 0.38004 0.97283 0.12198 0.0
N113 N 0.39635 0.99765 0.11219 0.0
C114 C 0.2611 0.98156 0.12284 0.0
C115 C 0.27875 0.02716 0.15732 0.0
C116 C 0.25085 0.03198 0.14324 0.0
C117 C 0.24193 1.00831 0.12615 0.0
C118 C 0.29715 0.99973 0.15359 0.0
N119 N 0.288 0.97697 0.13676 0.0
H120 H 0.25497 0.96531 0.10802 0.0
H121 H 0.31967 0.99773 0.16327 0.0
H122 H 0.32192 0.01031 0.09714 0.0
H123 H 0.39084 0.95329 0.13204 0.0
O124 O 0.30344 0.93987 0.09252 0.0
O125 O 0.34263 0.91142 0.10915 0.0
O126 O 0.33712 0.93975 0.16066 0.0
C127 C 0.32512 0.91821 0.08978 0.0
H128 H 0.27541 0.83798 0.15828 0.0
H129 H 0.37865 0.03771 0.09088 0.0
H130 H 0.28726 0.04514 0.1702 0.0
H131 H 0.22071 0.01074 0.11479 0.0
Co132 Co 0.57524 0.20555 0.37534 0.0
C133 C 0.61332 0.26677 0.36864 0.0
C134 C 0.63803 0.22383 0.35912 0.0
C135 C 0.65812 0.24897 0.3551 0.0
N136 N 0.60983 0.23468 0.36744 0.0
N137 N 0.64285 0.27611 0.36117 0.0
H138 H 0.59518 0.28292 0.37516 0.0
H139 H 0.64369 0.199 0.35631 0.0
C140 C 0.57032 0.1643 0.32806 0.0
O141 O 0.54175 0.15325 0.33313 0.0
N142 N 0.54209 0.17474 0.38313 0.0
C143 C 0.51103 0.1796 0.38818 0.0
C144 C 0.49661 0.15045 0.39221 0.0
C145 C 0.54626 0.14291 0.38488 0.0
N146 N 0.51878 0.12732 0.38999 0.0
C147 C 0.5349 0.2601 0.37781 0.0
C148 C 0.50013 0.24977 0.33487 0.0
C149 C 0.49009 0.27365 0.35142 0.0
C150 C 0.50858 0.27926 0.37271 0.0
C151 C 0.52697 0.23119 0.34059 0.0
N152 N 0.54344 0.23564 0.36236 0.0
H153 H 0.54765 0.26448 0.39492 0.0
H154 H 0.53338 0.21277 0.32775 0.0
H155 H 0.49947 0.20255 0.38878 0.0
H156 H 0.56881 0.13135 0.38126 0.0
O157 O 0.57523 0.21967 0.40937 0.0
O158 O 0.60519 0.18039 0.39508 0.0
O159 O 0.5836 0.18527 0.3419 0.0
C160 C 0.59672 0.19828 0.41373 0.0
H161 H 0.68214 0.2472 0.34795 0.0
H162 H 0.47167 0.1467 0.39646 0.0
H163 H 0.48694 0.24493 0.3179 0.0
H164 H 0.50184 0.29721 0.38619 0.0
Co165 Co 0.81244 0.57876 0.37163 0.0
C166 C 0.75183 0.61552 0.364 0.0
C167 C 0.79238 0.63643 0.34593 0.0
C168 C 0.76619 0.65496 0.34099 0.0
N169 N 0.78342 0.61144 0.36003 0.0
N170 N 0.74069 0.64183 0.3523 0.0
H171 H 0.73726 0.59983 0.37514 0.0
H172 H 0.81652 0.64121 0.33996 0.0
C173 C 0.85654 0.5667 0.32701 0.0
O174 O 0.86582 0.53886 0.33541 0.0
N175 N 0.8425 0.54698 0.38333 0.0
C176 C 0.83693 0.51667 0.39032 0.0
C177 C 0.86563 0.50261 0.39635 0.0
C178 C 0.87428 0.55121 0.38603 0.0
N179 N 0.88918 0.5243 0.39344 0.0
C180 C 0.75818 0.53776 0.37559 0.0
C181 C 0.76871 0.5005 0.33413 0.0
C182 C 0.74442 0.49171 0.35075 0.0
C183 C 0.73873 0.51138 0.37126 0.0
C184 C 0.78741 0.52762 0.33894 0.0
N185 N 0.78292 0.54533 0.36005 0.0
H186 H 0.75373 0.55129 0.39225 0.0
H187 H 0.80577 0.53338 0.32584 0.0
H188 H 0.81382 0.50526 0.39073 0.0
H189 H 0.8864 0.57309 0.38113 0.0
O190 O 0.79638 0.58294 0.40497 0.0
O191 O 0.83653 0.61119 0.38993 0.0
O192 O 0.83508 0.58268 0.33838 0.0
C193 C 0.81784 0.60465 0.40861 0.0
H194 H 0.7661 0.67691 0.33042 0.0
H195 H 0.86884 0.47818 0.4022 0.0
H196 H 0.77361 0.48622 0.31777 0.0
H197 H 0.72046 0.50551 0.38475 0.0
Co198 Co 0.43621 0.81074 0.37379 0.0
C199 C 0.40215 0.74843 0.36018 0.0
C200 C 0.3734 0.79034 0.35733 0.0
C201 C 0.35529 0.76468 0.35014 0.0
N202 N 0.40291 0.78049 0.36367 0.0
N203 N 0.37329 0.73826 0.35184 0.0
H204 H 0.42208 0.73271 0.36278 0.0
H205 H 0.36563 0.81487 0.35755 0.0
C206 C 0.42801 0.81905 0.31949 0.0
O207 O 0.42998 0.78794 0.3176 0.0
N208 N 0.46744 0.84236 0.38362 0.0
C209 C 0.49401 0.8385 0.39739 0.0
C210 C 0.50761 0.86805 0.40144 0.0
C211 C 0.46503 0.87401 0.37968 0.0
N212 N 0.48929 0.89043 0.39035 0.0
C213 C 0.47629 0.75616 0.37575 0.0
C214 C 0.52141 0.77672 0.34198 0.0
C215 C 0.52734 0.74878 0.35565 0.0
C216 C 0.50381 0.73826 0.37223 0.0
C217 C 0.49309 0.79377 0.34581 0.0
N218 N 0.47072 0.78327 0.36242 0.0
H219 H 0.45984 0.7486 0.39003 0.0
H220 H 0.49018 0.81642 0.33657 0.0
H221 H 0.5025 0.81593 0.40444 0.0
H222 H 0.44561 0.8847 0.36938 0.0
O223 O 0.43403 0.79533 0.40737 0.0
O224 O 0.40432 0.83459 0.39246 0.0
O225 O 0.43179 0.8326 0.34059 0.0
C226 C 0.41215 0.81649 0.41121 0.0
H227 H 0.33057 0.76549 0.34434 0.0
H228 H 0.52883 0.87269 0.41238 0.0
H229 H 0.53917 0.78632 0.32942 0.0
H230 H 0.50692 0.71676 0.38307 0.0
Co231 Co 0.20382 0.44077 0.37119 0.0
C232 C 0.26435 0.40458 0.36239 0.0
C233 C 0.2234 0.38409 0.34431 0.0
C234 C 0.24932 0.3653 0.33942 0.0
N235 N 0.23271 0.40876 0.35859 0.0
N236 N 0.27513 0.37792 0.35086 0.0
H237 H 0.27886 0.4202 0.37379 0.0
H238 H 0.19923 0.37972 0.33812 0.0
C239 C 0.16448 0.45712 0.32531 0.0
O240 O 0.16657 0.48777 0.32994 0.0
N241 N 0.17328 0.47179 0.38355 0.0
C242 C 0.17781 0.49856 0.39702 0.0
C243 C 0.14852 0.51164 0.40249 0.0
C244 C 0.14127 0.46865 0.38167 0.0
N245 N 0.1255 0.49282 0.3928 0.0
C246 C 0.2499 0.4902 0.37641 0.0
C247 C 0.2572 0.50673 0.32701 0.0
C248 C 0.27383 0.52413 0.34531 0.0
C249 C 0.27032 0.51501 0.37017 0.0
C250 C 0.23723 0.48123 0.33413 0.0
N251 N 0.23231 0.47443 0.3588 0.0
H252 H 0.24807 0.48429 0.39586 0.0
H253 H 0.22607 0.46709 0.31977 0.0
H254 H 0.20042 0.50788 0.40321 0.0
H255 H 0.12983 0.44898 0.37215 0.0
O256 O 0.22226 0.43654 0.40383 0.0
O257 O 0.18126 0.40811 0.39037 0.0
O258 O 0.17863 0.43689 0.33919 0.0
C259 C 0.20112 0.41484 0.40834 0.0
H260 H 0.24901 0.34393 0.32815 0.0
H261 H 0.14456 0.53296 0.41337 0.0
H262 H 0.25994 0.51247 0.30745 0.0
H263 H 0.28267 0.52756 0.38498 0.0
Co264 Co 0.94094 0.70446 0.87424 0.0
C265 C 0.90059 0.76353 0.868 0.0
C266 C 0.88659 0.72514 0.844 0.0
C267 C 0.86614 0.75009 0.84015 0.0
N268 N 0.90863 0.73348 0.86121 0.0
N269 N 0.87489 0.77426 0.85519 0.0
H270 H 0.91205 0.77688 0.8827 0.0
H271 H 0.88471 0.70209 0.83517 0.0
C272 C 0.95091 0.65699 0.83087 0.0
O273 O 0.97409 0.64125 0.84165 0.0
N274 N 0.972 0.67455 0.88754 0.0
C275 C 1.00188 0.68033 0.89569 0.0
C276 C 0.01515 0.65208 0.90367 0.0
C277 C 0.96704 0.64322 0.8919 0.0
N278 N 0.99331 0.6286 0.90102 0.0
C279 C 0.97917 0.76062 0.8751 0.0
C280 C 0.02536 0.74128 0.84188 0.0
C281 C 0.03029 0.76954 0.85543 0.0
C282 C 1.00598 0.77962 0.87143 0.0
C283 C 0.99757 0.72318 0.84569 0.0
N284 N 0.97517 0.73252 0.86267 0.0
H285 H 0.9626 0.76791 0.88923 0.0
H286 H 0.99545 0.70073 0.8362 0.0
H287 H 0.01341 0.70338 0.89583 0.0
H288 H 0.9451 0.63112 0.88701 0.0
O289 O 0.93626 0.72196 0.90704 0.0
O290 O 0.90762 0.68165 0.89232 0.0
O291 O 0.93839 0.68148 0.84102 0.0
C292 C 0.91416 0.70089 0.91073 0.0
H293 H 0.84625 0.75037 0.82726 0.0
H294 H 0.03914 0.64917 0.91076 0.0
H295 H 0.04349 0.73221 0.82944 0.0
H296 H 1.00805 0.80156 0.88191 0.0
Co297 Co 0.31565 0.94122 0.87535 0.0
C298 C 0.25381 0.9047 0.86577 0.0
C299 C 0.29627 0.88062 0.85422 0.0
C300 C 0.27061 0.86165 0.8485 0.0
N301 N 0.28598 0.90794 0.86468 0.0
N302 N 0.24393 0.87675 0.85575 0.0
H303 H 0.23768 0.92198 0.87342 0.0
H304 H 0.32104 0.87493 0.85085 0.0
C305 C 0.32235 0.93616 0.82075 0.0
O306 O 0.29115 0.93888 0.81978 0.0
N307 N 0.34675 0.97251 0.88578 0.0
C308 C 0.34226 0.99892 0.89954 0.0
C309 C 0.37159 0.01281 0.90404 0.0
C310 C 0.37852 0.9704 0.88236 0.0
N311 N 0.39437 0.99473 0.89332 0.0
C312 C 0.26037 0.98069 0.87887 0.0
C313 C 0.27955 0.02673 0.84537 0.0
C314 C 0.25166 0.03187 0.85926 0.0
C315 C 0.24193 1.008 0.87583 0.0
C316 C 0.29721 0.99876 0.84882 0.0
N317 N 0.28729 0.97577 0.86515 0.0
H318 H 0.25371 0.96432 0.89343 0.0
H319 H 0.31985 0.99657 0.83944 0.0
H320 H 0.31941 1.00714 0.90624 0.0
H321 H 0.38975 0.95118 0.87223 0.0
O322 O 0.30097 0.93711 0.909 0.0
O323 O 0.34041 0.90884 0.89271 0.0
O324 O 0.33685 0.93872 0.84164 0.0
C325 C 0.32259 0.9154 0.91189 0.0
H326 H 0.27155 0.83821 0.84014 0.0
H327 H 0.37586 0.03402 0.91503 0.0
H328 H 0.28866 0.04486 0.83291 0.0
H329 H 0.22068 0.01071 0.88704 0.0
Co330 Co 0.08087 0.31695 0.87465 0.0
C331 C 0.1179 0.25614 0.86791 0.0
C332 C 0.13653 0.29529 0.84679 0.0
C333 C 0.15492 0.269 0.8421 0.0
N334 N 0.11291 0.28728 0.86263 0.0
N335 N 0.14321 0.24434 0.8553 0.0
H336 H 0.10364 0.24234 0.88068 0.0
H337 H 0.14058 0.31886 0.83934 0.0
C338 C 0.07405 0.3644 0.83097 0.0
O339 O 0.05154 0.38132 0.84142 0.0
N340 N 0.0497 0.34741 0.88694 0.0
C341 C 0.01915 0.34204 0.89348 0.0
C342 C 1.0058 0.37032 0.90119 0.0
C343 C 0.05484 0.37859 0.89192 0.0
N344 N 0.02815 0.39349 0.89991 0.0
C345 C 0.03981 0.26258 0.87622 0.0
C346 C 0.99961 0.27933 0.83763 0.0
C347 C 0.99192 0.25261 0.8522 0.0
C348 C 0.01293 0.244 0.87132 0.0
C349 C 0.0271 0.29722 0.84301 0.0
N350 N 0.04662 0.28913 0.86246 0.0
H351 H 0.05417 0.25626 0.89212 0.0
H352 H 0.03142 0.31834 0.83223 0.0
H353 H 1.00713 0.31928 0.89269 0.0
H354 H 0.07728 0.39042 0.88825 0.0
O355 O 0.08449 0.29995 0.90776 0.0
O356 O 0.11404 0.33956 0.8932 0.0
O357 O 0.08511 0.33933 0.84131 0.0
C358 C 0.10691 0.32066 0.91163 0.0
H359 H 0.17583 0.26831 0.83032 0.0
H360 H 0.98137 0.37344 0.90711 0.0
H361 H 0.98411 0.28686 0.82259 0.0
H362 H 1.00778 0.22403 0.88344 0.0
Co363 Co 0.70808 0.08024 0.87537 0.0
C364 C 0.76855 0.11846 0.86501 0.0
C365 C 0.72553 0.13904 0.85077 0.0
C366 C 0.75021 0.15941 0.84572 0.0
N367 N 0.73678 0.11296 0.86245 0.0
N368 N 0.77734 0.14667 0.85476 0.0
H369 H 0.78478 0.10332 0.87506 0.0
H370 H 0.70066 0.14333 0.84662 0.0
C371 C 0.69361 0.08315 0.82123 0.0
O372 O 0.72443 0.08023 0.81747 0.0
N373 N 0.67779 0.04956 0.88798 0.0
C374 C 0.68289 0.02287 0.90129 0.0
C375 C 0.65371 1.00882 0.9062 0.0
C376 C 0.64592 0.05167 0.88527 0.0
N377 N 0.63052 0.0271 0.89616 0.0
C378 C 0.76325 0.04023 0.87507 0.0
C379 C 0.73905 0.99348 0.84414 0.0
C380 C 0.7684 0.9881 0.85611 0.0
C381 C 0.78058 0.01229 0.87143 0.0
C382 C 0.72238 0.02188 0.84835 0.0
N383 N 0.73468 0.04517 0.86344 0.0
H384 H 0.77188 0.05671 0.88889 0.0
H385 H 0.6987 0.02416 0.84064 0.0
H386 H 0.70607 0.01428 0.90702 0.0
H387 H 0.6343 0.07078 0.87527 0.0
O388 O 0.7268 0.08444 0.90785 0.0
O389 O 0.68598 0.11313 0.89417 0.0
O390 O 0.68264 0.08246 0.84341 0.0
C391 C 0.70589 0.10647 0.91211 0.0
H392 H 0.74814 0.18205 0.83626 0.0
H393 H 0.64987 0.98715 0.91669 0.0
H394 H 0.72843 0.9755 0.83226 0.0
H395 H 0.80241 1.00895 0.88192 0.0
Co396 Co 0.44162 0.8147 0.62819 0.0
C397 C 0.40447 0.75357 0.63966 0.0
C398 C 0.37837 0.79693 0.64433 0.0
C399 C 0.35853 0.77202 0.64983 0.0
N400 N 0.40729 0.78572 0.63794 0.0
N401 N 0.3748 0.7446 0.64703 0.0
H402 H 0.42339 0.73697 0.63601 0.0
H403 H 0.37207 0.82187 0.64493 0.0
C404 C 0.43253 0.82335 0.68229 0.0
O405 O 0.43414 0.79219 0.68402 0.0
N406 N 0.47393 0.84517 0.61855 0.0
C407 C 0.49776 0.84118 0.60206 0.0
C408 C 0.51213 0.87034 0.59796 0.0
C409 C 0.47414 0.87644 0.62433 0.0
N410 N 0.49724 0.8924 0.61203 0.0
C411 C 0.48098 0.75924 0.62731 0.0
C412 C 0.52557 0.78019 0.66157 0.0
C413 C 0.53179 0.75216 0.64814 0.0
C414 C 0.50865 0.74149 0.63119 0.0
C415 C 0.49741 0.79722 0.65718 0.0
N416 N 0.47528 0.78658 0.64034 0.0
H417 H 0.46501 0.75179 0.61263 0.0
H418 H 0.49447 0.81999 0.66623 0.0
H419 H 0.50351 0.81893 0.59299 0.0
H420 H 0.45666 0.88762 0.63627 0.0
O421 O 0.43943 0.79875 0.59472 0.0
O422 O 0.41065 0.83908 0.60894 0.0
O423 O 0.43704 0.83698 0.66131 0.0
C424 C 0.41797 0.82026 0.59052 0.0
H425 H 0.33372 0.77416 0.655 0.0
H426 H 0.53165 0.87506 0.5853 0.0
H427 H 0.54282 0.78956 0.67473 0.0
H428 H 0.51271 0.72064 0.61976 0.0
Co429 Co 0.21027 0.43821 0.62679 0.0
C430 C 0.27279 0.4054 0.64026 0.0
C431 C 0.23095 0.37699 0.64591 0.0
C432 C 0.25707 0.3594 0.65283 0.0
N433 N 0.24054 0.40596 0.6381 0.0
N434 N 0.28346 0.37722 0.64934 0.0
H435 H 0.28838 0.4249 0.6357 0.0
H436 H 0.20638 0.36916 0.64658 0.0
C437 C 0.19776 0.43124 0.6811 0.0
O438 O 0.22846 0.43524 0.68495 0.0
N439 N 0.17878 0.46875 0.61583 0.0
C440 C 0.18337 0.49598 0.60309 0.0
C441 C 0.15405 0.50982 0.59871 0.0
C442 C 0.14693 0.46615 0.61876 0.0
N443 N 0.13114 0.49097 0.60853 0.0
C444 C 0.26385 0.48028 0.62656 0.0
C445 C 0.2423 0.52281 0.66186 0.0
C446 C 0.27078 0.52981 0.64914 0.0
C447 C 0.28138 0.50785 0.63134 0.0
C448 C 0.22522 0.4949 0.65629 0.0
N449 N 0.23652 0.47343 0.6393 0.0
H450 H 0.27181 0.46504 0.61165 0.0
H451 H 0.20222 0.49142 0.66486 0.0
H452 H 0.20634 0.50501 0.59724 0.0
H453 H 0.13562 0.44646 0.62831 0.0
O454 O 0.22769 0.43636 0.59371 0.0
O455 O 0.18821 0.40576 0.60712 0.0
O456 O 0.18623 0.43294 0.65908 0.0
C457 C 0.2071 0.41408 0.589 0.0
H458 H 0.25659 0.33508 0.65945 0.0
H459 H 0.14994 0.53174 0.58862 0.0
H460 H 0.23273 0.53907 0.67558 0.0
H461 H 0.30229 0.51252 0.62012 0.0
Co462 Co 0.58183 0.20756 0.62983 0.0
C463 C 0.61896 0.26852 0.63563 0.0
C464 C 0.64023 0.2282 0.6538 0.0
C465 C 0.66019 0.25379 0.65665 0.0
N466 N 0.61436 0.23726 0.64073 0.0
N467 N 0.64706 0.27913 0.64516 0.0
H468 H 0.60286 0.28275 0.62446 0.0
H469 H 0.64483 0.20425 0.6602 0.0
C470 C 0.56891 0.17046 0.67796 0.0
O471 O 0.53781 0.16992 0.67499 0.0
N472 N 0.55045 0.17615 0.61916 0.0
C473 C 0.52618 0.17928 0.60277 0.0
C474 C 0.51349 0.14959 0.59785 0.0
C475 C 0.5525 0.14449 0.62347 0.0
N476 N 0.53001 0.1278 0.61099 0.0
C477 C 0.53193 0.2526 0.62346 0.0
C478 C 0.51582 0.26197 0.67273 0.0
C479 C 0.49788 0.27728 0.65409 0.0
C480 C 0.50676 0.2727 0.62927 0.0
C481 C 0.54154 0.2422 0.66602 0.0
N482 N 0.54832 0.23645 0.64148 0.0
H483 H 0.53773 0.24994 0.60406 0.0
H484 H 0.55588 0.23188 0.68062 0.0
H485 H 0.51894 0.20114 0.59391 0.0
H486 H 0.57113 0.13364 0.63455 0.0
O487 O 0.58542 0.22346 0.59639 0.0
O488 O 0.614 0.18361 0.61157 0.0
O489 O 0.58688 0.18514 0.66264 0.0
C490 C 0.60706 0.202 0.59282 0.0
H491 H 0.68292 0.25364 0.66626 0.0
H492 H 0.49397 0.14437 0.58524 0.0
H493 H 0.51025 0.26549 0.69224 0.0
H494 H 0.49375 0.28391 0.61418 0.0
Co495 Co 0.81771 0.58356 0.62529 0.0
C496 C 0.757 0.62168 0.63426 0.0
C497 C 0.7993 0.64197 0.65014 0.0
C498 C 0.77441 0.6622 0.6547 0.0
N499 N 0.78859 0.61613 0.63773 0.0
N500 N 0.74775 0.64958 0.64468 0.0
H501 H 0.74122 0.6069 0.62341 0.0
H502 H 0.82395 0.64628 0.65508 0.0
C503 C 0.83158 0.58595 0.67979 0.0
O504 O 0.80103 0.58125 0.68376 0.0
N505 N 0.84845 0.55297 0.61326 0.0
C506 C 0.8436 0.52629 0.59984 0.0
C507 C 0.87283 0.51222 0.59542 0.0
C508 C 0.88028 0.55504 0.61652 0.0
N509 N 0.89587 0.53043 0.60588 0.0
C510 C 0.76222 0.54375 0.6256 0.0
C511 C 0.78579 0.49685 0.65651 0.0
C512 C 0.75606 0.49203 0.64492 0.0
C513 C 0.74424 0.51624 0.62958 0.0
C514 C 0.80301 0.52497 0.6521 0.0
N515 N 0.79094 0.54842 0.63712 0.0
H516 H 0.75393 0.56003 0.61158 0.0
H517 H 0.82681 0.52701 0.65967 0.0
H518 H 0.82054 0.51771 0.59371 0.0
H519 H 0.89173 0.57416 0.62671 0.0
O520 O 0.79958 0.58709 0.59255 0.0
O521 O 0.83997 0.61641 0.60638 0.0
O522 O 0.84249 0.5866 0.65757 0.0
C523 C 0.82047 0.6092 0.58826 0.0
H524 H 0.77598 0.68466 0.66452 0.0
H525 H 0.8768 0.49056 0.58496 0.0
H526 H 0.79619 0.47864 0.66825 0.0
H527 H 0.72219 0.51315 0.61931 0.0
H528 H 0.12574 0.27155 0.94028 0.0
H529 H 0.12531 0.37503 0.06453 0.0
H530 H 0.12056 0.37396 0.93949 0.0
H531 H 0.12555 0.27254 0.06112 0.0
H532 H 0.13607 0.3768 0.01939 0.0
H533 H 0.13895 0.2731 0.98448 0.0
C534 C 0.12807 0.29445 0.94943 0.0
C535 C 0.12194 0.32263 0.9364 0.0
C536 C 0.13456 0.35396 0.02867 0.0
C537 C 0.13586 0.32472 0.98734 0.0
C538 C 0.1287 0.35297 0.05442 0.0
C539 C 0.12437 0.32358 0.06636 0.0
C540 C 0.13622 0.32533 0.01508 0.0
C541 C 0.12848 0.29567 0.05249 0.0
C542 C 0.13548 0.29539 0.97471 0.0
C543 C 0.12528 0.35173 0.949 0.0
N544 N 0.13385 0.29724 0.02761 0.0
N545 N 0.13137 0.35203 0.974 0.0
H546 H 0.75584 0.12524 0.94014 0.0
H547 H 0.65456 0.12417 0.06547 0.0
H548 H 0.65323 0.12005 0.94046 0.0
H549 H 0.75699 0.11921 0.06062 0.0
H550 H 0.65229 0.1361 0.02048 0.0
H551 H 0.7553 0.13773 0.98446 0.0
C552 C 0.73311 0.12742 0.94957 0.0
C553 C 0.70458 0.12139 0.93686 0.0
C554 C 0.67526 0.1331 0.02943 0.0
C555 C 0.70366 0.13446 0.98784 0.0
C556 C 0.67654 0.1265 0.05505 0.0
C557 C 0.70599 0.12038 0.06651 0.0
C558 C 0.70367 0.13383 0.01553 0.0
C559 C 0.7338 0.12337 0.05233 0.0
C560 C 0.73276 0.13442 0.9749 0.0
C561 C 0.67572 0.12462 0.94976 0.0
N562 N 0.73193 0.12961 0.0276 0.0
N563 N 0.67598 0.13026 0.9748 0.0
H564 H 0.89238 0.74928 0.93875 0.0
H565 H 0.90297 0.64895 0.06473 0.0
H566 H 0.90473 0.64751 0.93931 0.0
H567 H 0.90551 0.75127 0.05907 0.0
H568 H 0.89005 0.64592 0.01989 0.0
H569 H 0.88196 0.74809 0.9834 0.0
C570 C 0.89205 0.72653 0.94829 0.0
C571 C 0.89946 0.69849 0.93551 0.0
C572 C 0.89279 0.669 0.02864 0.0
C573 C 0.88895 0.69696 0.98687 0.0
C574 C 0.89997 0.67072 0.05418 0.0
C575 C 0.90558 0.7004 0.0654 0.0
C576 C 0.8909 0.6972 0.01455 0.0
C577 C 0.90173 0.72792 0.051 0.0
C578 C 0.88634 0.72584 0.97382 0.0
C579 C 0.89887 0.6696 0.94862 0.0
N580 N 0.89486 0.72564 0.02637 0.0
N581 N 0.89441 0.66961 0.97381 0.0
H582 H 0.37825 0.90398 0.93733 0.0
H583 H 0.27846 0.89123 0.06263 0.0
H584 H 0.27613 0.89468 0.94239 0.0
H585 H 0.37927 0.911 0.06176 0.0
H586 H 0.28077 0.87686 0.01867 0.0
H587 H 0.38239 0.8921 0.98222 0.0
C588 C 0.35687 0.89836 0.94775 0.0
C589 C 0.32678 0.90051 0.93643 0.0
C590 C 0.30262 0.88377 0.02805 0.0
C591 C 0.33119 0.88728 0.98731 0.0
C592 C 0.30127 0.89182 0.05317 0.0
C593 C 0.32866 0.90244 0.06556 0.0
C594 C 0.33141 0.88737 0.01499 0.0
C595 C 0.35768 0.90281 0.05267 0.0
C596 C 0.35918 0.89183 0.97332 0.0
C597 C 0.29972 0.8935 0.9506 0.0
N598 N 0.35822 0.89609 0.0278 0.0
N599 N 0.30254 0.88751 0.97532 0.0
H600 H 0.61297 0.14441 0.44012 0.0
H601 H 0.62972 0.24883 0.5636 0.0
H602 H 0.61198 0.24689 0.44406 0.0
H603 H 0.61434 0.14743 0.56544 0.0
H604 H 0.63937 0.24571 0.51891 0.0
H605 H 0.62767 0.1426 0.48471 0.0
C606 C 0.61662 0.16644 0.45025 0.0
C607 C 0.61091 0.19584 0.43872 0.0
C608 C 0.63448 0.22394 0.52903 0.0
C609 C 0.62775 0.19405 0.4891 0.0
C610 C 0.62919 0.22575 0.55456 0.0
C611 C 0.62111 0.19839 0.56798 0.0
C612 C 0.63067 0.19467 0.51666 0.0
C613 C 0.62066 0.16901 0.55557 0.0
C614 C 0.62486 0.16543 0.47561 0.0
C615 C 0.61573 0.22375 0.45247 0.0
N616 N 0.62464 0.16796 0.53036 0.0
N617 N 0.62365 0.22215 0.47691 0.0
H618 H 0.87239 0.62018 0.43462 0.0
H619 H 0.77111 0.62815 0.55976 0.0
H620 H 0.76982 0.62136 0.43911 0.0
H621 H 0.87356 0.62091 0.55976 0.0
H622 H 0.77209 0.6393 0.51523 0.0
H623 H 0.87518 0.63298 0.47946 0.0
C624 C 0.85055 0.62411 0.4449 0.0
C625 C 0.82083 0.61949 0.43338 0.0
C626 C 0.79452 0.63584 0.52489 0.0
C627 C 0.82373 0.63379 0.48427 0.0
C628 C 0.79392 0.62964 0.55036 0.0
C629 C 0.82226 0.62349 0.56327 0.0
C630 C 0.82365 0.63495 0.51199 0.0
C631 C 0.85122 0.62568 0.55034 0.0
C632 C 0.85211 0.63118 0.47045 0.0
C633 C 0.7932 0.62442 0.44743 0.0
N634 N 0.85117 0.63056 0.5252 0.0
N635 N 0.79532 0.631 0.47211 0.0
H636 H 0.39657 0.77131 0.56286 0.0
H637 H 0.39891 0.87135 0.43708 0.0
H638 H 0.40671 0.87339 0.56194 0.0
H639 H 0.39583 0.76903 0.44235 0.0
H640 H 0.38872 0.87475 0.48226 0.0
H641 H 0.38233 0.77227 0.51887 0.0
C642 C 0.39521 0.79404 0.55335 0.0
C643 C 0.40305 0.82226 0.56578 0.0
C644 C 0.38949 0.85161 0.47337 0.0
C645 C 0.38792 0.82361 0.51513 0.0
C646 C 0.39505 0.8497 0.44764 0.0
C647 C 0.39845 0.81986 0.43625 0.0
C648 C 0.38714 0.82344 0.48745 0.0
C649 C 0.39369 0.79248 0.4506 0.0
C650 C 0.38717 0.79463 0.52821 0.0
C651 C 0.40077 0.85114 0.55282 0.0
N652 N 0.38858 0.79492 0.47544 0.0
N653 N 0.39407 0.85106 0.52793 0.0
H654 H 0.25612 0.40031 0.55849 0.0
H655 H 0.1482 0.39986 0.43638 0.0
H656 H 0.15349 0.39887 0.56177 0.0
H657 H 0.25094 0.39904 0.43751 0.0
H658 H 0.14816 0.389 0.48157 0.0
H659 H 0.25351 0.38887 0.51407 0.0
C660 C 0.23298 0.39698 0.54982 0.0
C661 C 0.20501 0.40067 0.56366 0.0
C662 C 0.17067 0.39043 0.47177 0.0
C663 C 0.20161 0.38864 0.51245 0.0
C664 C 0.17066 0.39636 0.44601 0.0
C665 C 0.19964 0.40055 0.43339 0.0
C666 C 0.19987 0.38861 0.48472 0.0
C667 C 0.2281 0.39627 0.44665 0.0
C668 C 0.23143 0.39054 0.5244 0.0
C669 C 0.1756 0.39606 0.55163 0.0
N670 N 0.22749 0.39087 0.47155 0.0
N671 N 0.1746 0.39092 0.52651 0.0
H672 H 0.23853 0.06845 0.1849 0.0
H673 H 0.1384 0.20101 0.11074 0.0
H674 H 0.22091 0.06502 0.10558 0.0
H675 H 0.17204 0.21281 0.1862 0.0
H676 H 0.16257 0.14784 0.10986 0.0
H677 H 0.20927 0.1187 0.18688 0.0
C678 C 0.22858 0.07818 0.16789 0.0
C679 C 0.23227 0.06222 0.14506 0.0
C680 C 0.16453 0.16204 0.12665 0.0
C681 C 0.19827 0.11974 0.14727 0.0
C682 C 0.15052 0.19227 0.1272 0.0
C683 C 0.15346 0.21149 0.14849 0.0
C684 C 0.18134 0.15085 0.14762 0.0
C685 C 0.16967 0.19904 0.16926 0.0
C686 C 0.2117 0.10683 0.16907 0.0
C687 C 0.21831 0.07596 0.12372 0.0
N688 N 0.18303 0.16962 0.16828 0.0
N689 N 0.20202 0.10383 0.12536 0.0
H690 H 0.80536 0.19141 0.18295 0.0
H691 H 0.985 0.18994 0.13325 0.0
H692 H 0.84039 0.12435 0.12866 0.0
H693 H 0.94866 0.26067 0.18398 0.0
H694 H 0.93442 0.16118 0.13602 0.0
H695 H 0.85918 0.21275 0.18769 0.0
C696 C 0.82435 0.18111 0.172 0.0
C697 C 0.81808 0.1563 0.15505 0.0
C698 C 0.93755 0.18277 0.1468 0.0
C699 C 0.88021 0.18059 0.16065 0.0
C700 C 0.96647 0.1992 0.14526 0.0
C701 C 0.97096 0.22801 0.15818 0.0
C702 C 0.91269 0.19519 0.16129 0.0
C703 C 0.94629 0.23858 0.17373 0.0
C704 C 0.8552 0.19323 0.17486 0.0
C705 C 0.84398 0.14342 0.14193 0.0
N706 N 0.91808 0.22241 0.1746 0.0
N707 N 0.87379 0.15591 0.14483 0.0
H708 H 0.83889 0.98038 0.14686 0.0
H709 H 0.82362 0.79481 0.17503 0.0
H710 H 0.74933 0.93371 0.16298 0.0
H711 H 0.89957 0.83346 0.12974 0.0
H712 H 0.80031 0.84743 0.1778 0.0
H713 H 0.86526 0.92854 0.14754 0.0
C714 C 0.82467 0.95937 0.15058 0.0
C715 C 0.79158 0.96169 0.15461 0.0
C716 C 0.82209 0.84436 0.16726 0.0
C717 C 0.82205 0.90224 0.15599 0.0
C718 C 0.8355 0.81412 0.16549 0.0
C719 C 0.86354 0.80908 0.15165 0.0
C720 C 0.8369 0.87018 0.15548 0.0
C721 C 0.878 0.83582 0.14056 0.0
C722 C 0.83987 0.92979 0.15104 0.0
C723 C 0.77484 0.93349 0.16005 0.0
N724 N 0.86449 0.86518 0.14268 0.0
N725 N 0.79023 0.90503 0.16053 0.0
H726 H 0.23031 0.81327 0.14573 0.0
H727 H 0.04211 0.84024 0.14557 0.0
H728 H 0.18896 0.90731 0.14446 0.0
H729 H 0.08732 0.75082 0.1631 0.0
H730 H 0.09477 0.86574 0.14433 0.0
H731 H 0.17758 0.79055 0.15067 0.0
C732 C 0.21025 0.82932 0.1467 0.0
C733 C 0.21447 0.86248 0.14497 0.0
C734 C 0.09311 0.84062 0.1487 0.0
C735 C 0.15318 0.83612 0.15023 0.0
C736 C 0.06307 0.82602 0.14939 0.0
C737 C 0.06022 0.79325 0.15439 0.0
C738 C 0.12059 0.82228 0.15276 0.0
C739 C 0.08822 0.77614 0.15941 0.0
C740 C 0.17993 0.81618 0.14945 0.0
C741 C 0.18703 0.88168 0.14559 0.0
N742 N 0.11714 0.79076 0.15823 0.0
N743 N 0.15756 0.86822 0.14815 0.0
H744 H 0.68038 0.47975 0.35754 0.0
H745 H 0.70565 0.29216 0.36174 0.0
H746 H 0.76894 0.43322 0.33942 0.0
H747 H 0.61144 0.33312 0.35768 0.0
H748 H 0.72865 0.34459 0.35631 0.0
H749 H 0.65412 0.4275 0.35945 0.0
C750 C 0.69422 0.45858 0.35371 0.0
C751 C 0.72698 0.4609 0.34836 0.0
C752 C 0.70293 0.34221 0.35646 0.0
C753 C 0.69714 0.4011 0.35085 0.0
C754 C 0.68963 0.31209 0.35949 0.0
C755 C 0.65636 0.30783 0.35974 0.0
C756 C 0.68303 0.36879 0.35396 0.0
C757 C 0.63715 0.33512 0.35763 0.0
C758 C 0.67919 0.42881 0.35478 0.0
C759 C 0.74364 0.43269 0.34338 0.0
N760 N 0.65077 0.36447 0.35483 0.0
N761 N 0.72864 0.40404 0.34501 0.0
H762 H 0.56559 0.73917 0.31447 0.0
H763 H 0.69626 0.6371 0.38895 0.0
H764 H 0.56069 0.71971 0.39343 0.0
H765 H 0.71201 0.67531 0.31539 0.0
H766 H 0.6433 0.6617 0.38919 0.0
H767 H 0.61681 0.71133 0.31296 0.0
C768 C 0.57519 0.72914 0.33148 0.0
C769 C 0.55848 0.73171 0.35407 0.0
C770 C 0.65834 0.66463 0.37297 0.0
C771 C 0.61699 0.69938 0.35238 0.0
C772 C 0.68846 0.65039 0.37277 0.0
C773 C 0.70868 0.65435 0.3522 0.0
C774 C 0.64823 0.68272 0.35235 0.0
C775 C 0.69741 0.67209 0.33179 0.0
C776 C 0.60439 0.71309 0.33058 0.0
C777 C 0.57214 0.71781 0.37544 0.0
N778 N 0.66801 0.6856 0.33238 0.0
N779 N 0.60045 0.70227 0.37405 0.0
H780 H 0.33385 0.53758 0.36244 0.0
H781 H 0.32629 0.71985 0.31983 0.0
H782 H 0.25923 0.57567 0.31587 0.0
H783 H 0.39669 0.68273 0.37082 0.0
H784 H 0.30574 0.66605 0.31357 0.0
H785 H 0.3617 0.58867 0.36041 0.0
C786 C 0.32358 0.5566 0.35143 0.0
C787 C 0.29396 0.55244 0.33952 0.0
C788 C 0.32582 0.66959 0.326 0.0
C789 C 0.32565 0.61133 0.33734 0.0
C790 C 0.3375 0.70042 0.32974 0.0
C791 C 0.36303 0.70608 0.34623 0.0
C792 C 0.33966 0.64398 0.33883 0.0
C793 C 0.37704 0.67966 0.35795 0.0
C794 C 0.33946 0.58583 0.35035 0.0
C795 C 0.282 0.57779 0.32529 0.0
N796 N 0.36499 0.64986 0.3542 0.0
N797 N 0.29766 0.60628 0.32488 0.0
H798 H 0.33196 0.40843 0.35901 0.0
H799 H 0.43316 0.24932 0.33489 0.0
H800 H 0.29127 0.31612 0.34306 0.0
H801 H 0.47624 0.33681 0.36065 0.0
H802 H 0.3815 0.27575 0.33386 0.0
H803 H 0.38537 0.3845 0.35732 0.0
C804 C 0.33414 0.38322 0.35524 0.0
C805 C 0.30688 0.36444 0.35093 0.0
C806 C 0.40225 0.28929 0.33963 0.0
C807 C 0.36792 0.337 0.34865 0.0
C808 C 0.43191 0.27425 0.33995 0.0
C809 C 0.45923 0.29075 0.34793 0.0
C810 C 0.39965 0.32119 0.34732 0.0
C811 C 0.4558 0.32297 0.35468 0.0
C812 C 0.36465 0.36961 0.35413 0.0
C813 C 0.31135 0.33186 0.34596 0.0
N814 N 0.42658 0.33709 0.35432 0.0
N815 N 0.34111 0.31932 0.34491 0.0
H816 H 0.81207 0.78658 0.84877 0.0
H817 H 0.83304 0.97581 0.85554 0.0
H818 H 0.90208 0.8318 0.86522 0.0
H819 H 0.74165 0.92824 0.85382 0.0
H820 H 0.85927 0.92387 0.8566 0.0
H821 H 0.78646 0.83864 0.84835 0.0
C822 C 0.82647 0.80752 0.85229 0.0
C823 C 0.85933 0.80482 0.8569 0.0
C824 C 0.83349 0.92485 0.85594 0.0
C825 C 0.83006 0.86481 0.85641 0.0
C826 C 0.81842 0.95453 0.85536 0.0
C827 C 0.78493 0.95665 0.85461 0.0
C828 C 0.81504 0.89691 0.85561 0.0
C829 C 0.76745 0.92805 0.85398 0.0
C830 C 0.8118 0.83729 0.85214 0.0
C831 C 0.87667 0.83279 0.86175 0.0
N832 N 0.78268 0.8995 0.85452 0.0
N833 N 0.86188 0.86167 0.8612 0.0
H834 H 0.21975 0.83947 0.81907 0.0
H835 H 0.06082 0.80071 0.89373 0.0
H836 H 0.19511 0.8855 0.8882 0.0
H837 H 0.07122 0.77849 0.81552 0.0
H838 H 0.11098 0.82965 0.89252 0.0
H839 H 0.16677 0.81487 0.81784 0.0
C840 C 0.20311 0.84446 0.83396 0.0
C841 C 0.21189 0.86441 0.85386 0.0
C842 C 0.1022 0.81868 0.87556 0.0
C843 C 0.15128 0.83622 0.85263 0.0
C844 C 0.07331 0.80223 0.87613 0.0
C845 C 0.06122 0.78733 0.85457 0.0
C846 C 0.11975 0.81996 0.85338 0.0
C847 C 0.07949 0.78933 0.83267 0.0
C848 C 0.17284 0.83054 0.83317 0.0
C849 C 0.18926 0.87044 0.87247 0.0
N850 N 0.10787 0.80523 0.83266 0.0
N851 N 0.16012 0.85613 0.87154 0.0
H852 H 0.24032 0.06959 0.81812 0.0
H853 H 0.14194 0.20189 0.89364 0.0
H854 H 0.22279 0.06482 0.89733 0.0
H855 H 0.17363 0.21382 0.81778 0.0
H856 H 0.16672 0.14904 0.89431 0.0
H857 H 0.21209 0.12046 0.81675 0.0
C858 C 0.23062 0.07917 0.83523 0.0
C859 C 0.23394 0.06264 0.85784 0.0
C860 C 0.16818 0.16323 0.8775 0.0
C861 C 0.20117 0.12087 0.85635 0.0
C862 C 0.15385 0.1933 0.87708 0.0
C863 C 0.15593 0.21243 0.8557 0.0
C864 C 0.18448 0.1521 0.85633 0.0
C865 C 0.17191 0.20014 0.83481 0.0
C866 C 0.21433 0.10818 0.83441 0.0
C867 C 0.22039 0.07622 0.87934 0.0
N868 N 0.18556 0.17085 0.83566 0.0
N869 N 0.20466 0.10445 0.87806 0.0
H870 H 0.79079 0.20985 0.85166 0.0
H871 H 0.9802 0.18813 0.85517 0.0
H872 H 0.83557 0.11768 0.85683 0.0
H873 H 0.93277 0.27793 0.84329 0.0
H874 H 0.9282 0.16143 0.85541 0.0
H875 H 0.84298 0.23456 0.84865 0.0
C876 C 0.81157 0.19466 0.85198 0.0
C877 C 0.80855 0.16145 0.85424 0.0
C878 C 0.92921 0.18693 0.85256 0.0
C879 C 0.86905 0.19001 0.85112 0.0
C880 C 0.95889 0.20223 0.85245 0.0
C881 C 0.96096 0.23542 0.84927 0.0
C882 C 0.90127 0.20492 0.84963 0.0
C883 C 0.93251 0.25232 0.84553 0.0
C884 C 0.84153 0.20891 0.85037 0.0
C885 C 0.83666 0.14333 0.85524 0.0
N886 N 0.90394 0.23694 0.84599 0.0
N887 N 0.86574 0.15783 0.85365 0.0
H888 H 0.32173 0.7276 0.67318 0.0
H889 H 0.33554 0.54159 0.64606 0.0
H890 H 0.39852 0.68812 0.6295 0.0
H891 H 0.24605 0.58906 0.66008 0.0
H892 H 0.36257 0.59319 0.64722 0.0
H893 H 0.2978 0.67503 0.67594 0.0
C894 C 0.33364 0.70805 0.66402 0.0
C895 C 0.36206 0.7128 0.65058 0.0
C896 C 0.33704 0.59217 0.65016 0.0
C897 C 0.33476 0.65185 0.65438 0.0
C898 C 0.32146 0.56272 0.64941 0.0
C899 C 0.28818 0.56068 0.65268 0.0
C900 C 0.31944 0.6199 0.65466 0.0
C901 C 0.27165 0.58906 0.65771 0.0
C902 C 0.31991 0.67788 0.66578 0.0
C903 C 0.37667 0.68588 0.64001 0.0
N904 N 0.28742 0.61739 0.65849 0.0
N905 N 0.36281 0.65659 0.64207 0.0
H906 H 0.33754 0.40023 0.62754 0.0
H907 H 0.4483 0.26403 0.68594 0.0
H908 H 0.30435 0.33133 0.68127 0.0
H909 H 0.48175 0.3351 0.63417 0.0
H910 H 0.39705 0.29192 0.68828 0.0
H911 H 0.39175 0.38012 0.63304 0.0
C912 C 0.3416 0.38114 0.64069 0.0
C913 C 0.31606 0.36728 0.6537 0.0
C914 C 0.41574 0.30164 0.67664 0.0
C915 C 0.37831 0.34379 0.65995 0.0
C916 C 0.44512 0.28586 0.67549 0.0
C917 C 0.46923 0.297 0.65961 0.0
C918 C 0.41044 0.32877 0.66179 0.0
C919 C 0.46363 0.32532 0.64632 0.0
C920 C 0.37262 0.36952 0.64376 0.0
C921 C 0.32301 0.34235 0.67037 0.0
N922 N 0.4348 0.33997 0.6475 0.0
N923 N 0.35332 0.33131 0.67287 0.0
H924 H 0.71 0.29152 0.64101 0.0
H925 H 0.69128 0.48107 0.64791 0.0
H926 H 0.61826 0.33736 0.6443 0.0
H927 H 0.7814 0.43183 0.6449 0.0
H928 H 0.66364 0.42961 0.64657 0.0
H929 H 0.73587 0.34335 0.64166 0.0
C930 C 0.69525 0.3126 0.6419 0.0
C931 C 0.66189 0.31006 0.64293 0.0
C932 C 0.68945 0.43011 0.64631 0.0
C933 C 0.69155 0.37 0.64362 0.0
C934 C 0.7053 0.45949 0.64707 0.0
C935 C 0.73883 0.46093 0.64656 0.0
C936 C 0.70722 0.40187 0.64497 0.0
C937 C 0.75562 0.43207 0.64573 0.0
C938 C 0.71008 0.34229 0.64221 0.0
C939 C 0.64402 0.33828 0.64344 0.0
N940 N 0.73967 0.40388 0.64487 0.0
N941 N 0.65909 0.36714 0.64397 0.0
H942 H 0.5445 0.68775 0.64708 0.0
H943 H 0.73398 0.71261 0.64703 0.0
H944 H 0.59123 0.7792 0.65226 0.0
H945 H 0.68983 0.61993 0.64211 0.0
H946 H 0.6815 0.73682 0.64933 0.0
H947 H 0.59685 0.66204 0.64591 0.0
C948 C 0.56571 0.70245 0.64807 0.0
C949 C 0.5633 0.73578 0.64979 0.0
C950 C 0.68316 0.71117 0.64777 0.0
C951 C 0.62341 0.70639 0.64846 0.0
C952 C 0.71325 0.69725 0.64656 0.0
C953 C 0.71649 0.66405 0.64461 0.0
C954 C 0.65577 0.69192 0.647 0.0
C955 C 0.68852 0.64559 0.64347 0.0
C956 C 0.59561 0.68771 0.64744 0.0
C957 C 0.59171 0.75347 0.65131 0.0
N958 N 0.65934 0.65975 0.64477 0.0
N959 N 0.62045 0.7386 0.6505 0.0
H960 H 0.12759 0.40395 0.32257 0.0
H961 H 0.12084 0.39264 0.17749 0.0
H962 H 0.16083 0.48305 0.27844 0.0
H963 H 0.03981 0.36167 0.22053 0.0
H964 H 0.14165 0.42056 0.21434 0.0
H965 H 0.10046 0.38228 0.28563 0.0
C966 C 0.12901 0.41681 0.3051 0.0
C967 C 0.1464 0.44532 0.30348 0.0
C968 C 0.1192 0.40787 0.21562 0.0
C969 C 0.11617 0.42031 0.26121 0.0
C970 C 0.10741 0.39183 0.19471 0.0
C971 C 0.07859 0.37486 0.19605 0.0
C972 C 0.10258 0.40607 0.23823 0.0
C973 C 0.06204 0.37463 0.21875 0.0
C974 C 0.11345 0.40452 0.28414 0.0
C975 C 0.14749 0.4611 0.28045 0.0
N976 N 0.07456 0.38955 0.23912 0.0
N977 N 0.13304 0.44808 0.26005 0.0
H978 H 0.72251 0.11204 0.22944 0.0
H979 H 0.54926 0.12515 0.28998 0.0
H980 H 0.63739 0.08977 0.18737 0.0
H981 H 0.63215 0.17669 0.31597 0.0
H982 H 0.58086 0.10531 0.25466 0.0
H983 H 0.68937 0.12811 0.26445 0.0
C984 C 0.69683 0.1103 0.22761 0.0
C985 C 0.68271 0.09972 0.20538 0.0
C986 C 0.59194 0.12102 0.26817 0.0
C987 C 0.64456 0.11821 0.24548 0.0
C988 C 0.57398 0.13233 0.28829 0.0
C989 C 0.58804 0.15263 0.30603 0.0
C990 C 0.6242 0.12974 0.26609 0.0
C991 C 0.62018 0.16114 0.30288 0.0
C992 C 0.67791 0.11965 0.24758 0.0
C993 C 0.64925 0.098 0.20413 0.0
N994 N 0.63713 0.14954 0.28345 0.0
N995 N 0.63124 0.10719 0.22394 0.0
H996 H 0.90838 0.54482 0.30095 0.0
H997 H 0.89799 0.68159 0.19708 0.0
H998 H 0.8365 0.61821 0.29989 0.0
H999 H 0.97539 0.61417 0.20134 0.0
H1000 H 0.87434 0.65735 0.23398 0.0
H1001 H 0.93214 0.56821 0.26352 0.0
C1002 C 0.89748 0.56574 0.29281 0.0
C1003 C 0.87043 0.57961 0.30369 0.0
C1004 C 0.89653 0.64786 0.2269 0.0
C1005 C 0.8976 0.60658 0.26087 0.0
C1006 C 0.9101 0.66172 0.20579 0.0
C1007 C 0.93881 0.64996 0.19605 0.0
C1008 C 0.91162 0.6219 0.23842 0.0
C1009 C 0.95331 0.62412 0.20821 0.0
C1010 C 0.91115 0.57916 0.27149 0.0
C1011 C 0.85746 0.60679 0.29233 0.0
N1012 N 0.93953 0.61092 0.22871 0.0
N1013 N 0.87115 0.61935 0.2716 0.0
H1014 H 0.44023 0.88169 0.30838 0.0
H1015 H 0.29645 0.89819 0.21665 0.0
H1016 H 0.38842 0.79905 0.28262 0.0
H1017 H 0.38475 0.94322 0.1949 0.0
H1018 H 0.32478 0.87058 0.2501 0.0
H1019 H 0.41586 0.91305 0.27444 0.0
C1020 C 0.42399 0.87016 0.29547 0.0
C1021 C 0.41639 0.83776 0.29812 0.0
C1022 C 0.3378 0.8868 0.23813 0.0
C1023 C 0.38803 0.8734 0.26029 0.0
C1024 C 0.32169 0.90277 0.21922 0.0
C1025 C 0.33834 0.92303 0.20304 0.0
C1026 C 0.3706 0.89169 0.24128 0.0
C1027 C 0.37114 0.92771 0.20702 0.0
C1028 C 0.41023 0.88797 0.27623 0.0
C1029 C 0.39515 0.82388 0.28105 0.0
N1030 N 0.38631 0.91222 0.22593 0.0
N1031 N 0.38128 0.84191 0.2631 0.0
H1032 H 0.9294 0.69289 0.79197 0.0
H1033 H 0.82986 0.56084 0.72668 0.0
H1034 H 0.94205 0.59561 0.81563 0.0
H1035 H 0.88082 0.62843 0.68114 0.0
H1036 H 0.86304 0.57651 0.76256 0.0
H1037 H 0.90372 0.67359 0.75356 0.0
C1038 C 0.92697 0.66749 0.78895 0.0
C1039 C 0.93796 0.64574 0.80683 0.0
C1040 C 0.86706 0.58761 0.74461 0.0
C1041 C 0.90792 0.62377 0.76359 0.0
C1042 C 0.84816 0.57882 0.72425 0.0
C1043 C 0.85278 0.59333 0.701 0.0
C1044 C 0.88988 0.61182 0.74183 0.0
C1045 C 0.87674 0.61654 0.69875 0.0
C1046 C 0.91246 0.65656 0.7671 0.0
C1047 C 0.93415 0.61308 0.80214 0.0
N1048 N 0.89407 0.62552 0.71906 0.0
N1049 N 0.91889 0.60303 0.78113 0.0
H1050 H 0.44411 0.88602 0.69423 0.0
H1051 H 0.29786 0.90065 0.78304 0.0
H1052 H 0.39188 0.8028 0.71802 0.0
H1053 H 0.38589 0.94279 0.80897 0.0
H1054 H 0.32712 0.87465 0.74939 0.0
H1055 H 0.41881 0.91668 0.72815 0.0
C1056 C 0.42757 0.87422 0.70668 0.0
C1057 C 0.42016 0.84184 0.70351 0.0
C1058 C 0.33987 0.88993 0.76231 0.0
C1059 C 0.39078 0.87668 0.74128 0.0
C1060 C 0.32325 0.90496 0.78137 0.0
C1061 C 0.33953 0.92389 0.7988 0.0
C1062 C 0.37285 0.89444 0.76028 0.0
C1063 C 0.37254 0.92828 0.7959 0.0
C1064 C 0.4133 0.89163 0.72591 0.0
C1065 C 0.3985 0.82761 0.72 0.0
N1066 N 0.38825 0.91371 0.77684 0.0
N1067 N 0.38417 0.84525 0.73792 0.0
H1068 H 0.09477 0.32737 0.79248 0.0
H1069 H 0.20096 0.45499 0.72838 0.0
H1070 H 0.086 0.42523 0.81577 0.0
H1071 H 0.14718 0.39034 0.68199 0.0
H1072 H 0.16713 0.44023 0.76399 0.0
H1073 H 0.12206 0.34534 0.75444 0.0
C1074 C 0.09839 0.35263 0.78946 0.0
C1075 C 0.08801 0.37493 0.80712 0.0
C1076 C 0.16269 0.42952 0.74593 0.0
C1077 C 0.11989 0.39535 0.76434 0.0
C1078 C 0.18197 0.43778 0.72573 0.0
C1079 C 0.17668 0.42388 0.70231 0.0
C1080 C 0.13878 0.40644 0.74282 0.0
C1081 C 0.15179 0.40172 0.69976 0.0
C1082 C 0.11383 0.3628 0.76782 0.0
C1083 C 0.09339 0.40736 0.80244 0.0
N1084 N 0.13405 0.39322 0.71991 0.0
N1085 N 0.1095 0.41662 0.78167 0.0
H1086 H 0.6296 0.14885 0.67893 0.0
H1087 H 0.62952 0.0974 0.82204 0.0
H1088 H 0.54428 0.1521 0.72368 0.0
H1089 H 0.70906 0.08588 0.77191 0.0
H1090 H 0.59656 0.11479 0.78673 0.0
H1091 H 0.65762 0.12349 0.71303 0.0
C1092 C 0.61669 0.14422 0.69603 0.0
C1093 C 0.5846 0.15303 0.69856 0.0
C1094 C 0.62113 0.10814 0.78349 0.0
C1095 C 0.61687 0.1237 0.73806 0.0
C1096 C 0.63997 0.09819 0.80361 0.0
C1097 C 0.67224 0.09044 0.79998 0.0
C1098 C 0.63472 0.11042 0.75964 0.0
C1099 C 0.68444 0.09184 0.7757 0.0
C1100 C 0.63274 0.12953 0.71553 0.0
C1101 C 0.56905 0.1458 0.72101 0.0
N1102 N 0.66577 0.10185 0.75658 0.0
N1103 N 0.58546 0.13182 0.74008 0.0
H1104 H 0.95629 0.58806 0.09558 0.0
H1105 H 0.07932 0.44399 0.11341 0.0
H1106 H 0.05555 0.60138 0.11435 0.0
H1107 H 0.97915 0.4312 0.09745 0.0
H1108 H 0.07166 0.5016 0.11238 0.0
H1109 H 0.96487 0.53062 0.0944 0.0
C1110 C 0.9799 0.57897 0.09947 0.0
C1111 C 1.00517 0.59976 0.10522 0.0
C1112 C 0.05137 0.48617 0.10904 0.0
C1113 C 0.01525 0.53371 0.10375 0.0
C1114 C 0.05568 0.45317 0.10978 0.0
C1115 C 0.02984 0.43245 0.10557 0.0
C1116 C 0.02098 0.49872 0.10408 0.0
C1117 C 0.99989 0.44603 0.10053 0.0
C1118 C 0.98482 0.5461 0.0987 0.0
C1119 C 0.0354 0.58644 0.10963 0.0
N1120 N 0.9963 0.4782 0.09999 0.0
N1121 N 0.03954 0.55432 0.10892 0.0
H1122 H 0.42819 0.05408 0.10923 0.0
H1123 H 0.60124 0.97297 0.1118 0.0
H1124 H 0.443 0.95285 0.11591 0.0
H1125 H 0.58655 0.0745 0.11502 0.0
H1126 H 0.54343 0.96513 0.11147 0.0
H1127 H 0.48603 0.06202 0.10951 0.0
C1128 C 0.44354 0.03349 0.11066 0.0
C1129 C 0.43052 1.00273 0.11258 0.0
C1130 C 0.55284 0.98913 0.11229 0.0
C1131 C 0.49704 0.01169 0.11301 0.0
C1132 C 0.58592 0.99365 0.11233 0.0
C1133 C 0.59896 0.02446 0.11345 0.0
C1134 C 0.53244 0.01562 0.11319 0.0
C1135 C 0.57772 0.0503 0.11444 0.0
C1136 C 0.47662 0.03807 0.11097 0.0
C1137 C 0.45178 0.97702 0.11471 0.0
N1138 N 0.54561 0.0453 0.11421 0.0
N1139 N 0.48388 0.98206 0.11478 0.0
H1140 H 0.46321 0.09459 0.38298 0.0
H1141 H 0.54474 0.92304 0.39822 0.0
H1142 H 0.56312 0.08135 0.39932 0.0
H1143 H 0.4445 0.93668 0.38336 0.0
H1144 H 0.55189 0.98078 0.39905 0.0
H1145 H 0.45586 0.03694 0.38361 0.0
C1146 C 0.48361 0.07969 0.38691 0.0
C1147 C 0.51389 0.09316 0.39108 0.0
C1148 C 0.52832 0.97114 0.3956 0.0
C1149 C 0.50562 0.02662 0.39151 0.0
C1150 C 0.52416 0.93806 0.39523 0.0
C1151 C 0.49393 0.92466 0.39068 0.0
C1152 C 0.50208 0.99122 0.39142 0.0
C1153 C 0.46833 0.94564 0.3866 0.0
C1154 C 0.4794 0.04663 0.3871 0.0
C1155 C 0.53943 0.07227 0.39567 0.0
N1156 N 0.47299 0.97773 0.38709 0.0
N1157 N 0.53472 0.04017 0.39574 0.0
H1158 H 0.92088 0.46796 0.38943 0.0
H1159 H 0.0938 0.54859 0.39997 0.0
H1160 H 0.9358 0.56856 0.40121 0.0
H1161 H 0.07865 0.44796 0.38848 0.0
H1162 H 0.03615 0.55615 0.40167 0.0
H1163 H 0.97845 0.46 0.39044 0.0
C1164 C 0.93614 0.48839 0.39249 0.0
C1165 C 0.92322 0.51904 0.39521 0.0
C1166 C 0.04544 0.53239 0.39881 0.0
C1167 C 0.98961 0.51006 0.39603 0.0
C1168 C 0.07846 0.528 0.39797 0.0
C1169 C 0.09136 0.49755 0.39405 0.0
C1170 C 0.02494 0.50617 0.39575 0.0
C1171 C 0.07 0.47193 0.3912 0.0
C1172 C 0.96915 0.48382 0.39288 0.0
C1173 C 0.94452 0.54458 0.3987 0.0
N1174 N 0.03795 0.47683 0.3921 0.0
N1175 N 0.97658 0.53952 0.39897 0.0
H1176 H 0.9478 0.58259 0.90663 0.0
H1177 H 0.0737 0.43919 0.90744 0.0
H1178 H 0.04976 0.59635 0.90293 0.0
H1179 H 0.9719 0.42613 0.90028 0.0
H1180 H 0.06539 0.49663 0.91009 0.0
H1181 H 0.95626 0.5252 0.90866 0.0
C1182 C 0.97198 0.5737 0.90625 0.0
C1183 C 0.99804 0.59468 0.90437 0.0
C1184 C 0.04487 0.48113 0.90805 0.0
C1185 C 1.00793 0.52854 0.90697 0.0
C1186 C 0.0496 0.44821 0.90644 0.0
C1187 C 0.02353 0.42741 0.90344 0.0
C1188 C 0.01383 0.49355 0.90675 0.0
C1189 C 0.99282 0.44086 0.90277 0.0
C1190 C 0.97679 0.54081 0.90752 0.0
C1191 C 0.02884 0.58142 0.90452 0.0
N1192 N 0.98888 0.47294 0.9043 0.0
N1193 N 0.03289 0.5493 0.90566 0.0
H1194 H 0.59922 0.97041 0.89918 0.0
H1195 H 0.42597 0.05097 0.89794 0.0
H1196 H 0.58378 0.07172 0.89457 0.0
H1197 H 0.44094 0.94981 0.89087 0.0
H1198 H 0.48373 0.05884 0.89955 0.0
H1199 H 0.54136 0.96216 0.8991 0.0
C1200 C 0.5837 0.99092 0.89831 0.0
C1201 C 0.59646 0.0218 0.89677 0.0
C1202 C 0.4744 0.0349 0.89762 0.0
C1203 C 0.53013 0.01255 0.89655 0.0
C1204 C 0.44137 0.03039 0.89683 0.0
C1205 C 0.42848 0.99969 0.8942 0.0
C1206 C 0.49484 1.00852 0.89595 0.0
C1207 C 0.44973 0.97394 0.89256 0.0
C1208 C 0.55065 0.9862 0.8981 0.0
C1209 C 0.5751 0.04748 0.89541 0.0
N1210 N 0.4818 0.97892 0.89353 0.0
N1211 N 0.54308 0.04229 0.89537 0.0
H1212 H 0.49307 0.9321 0.65169 0.0
H1213 H 0.51269 0.09066 0.57185 0.0
H1214 H 0.51397 0.93004 0.5731 0.0
H1215 H 0.53736 0.08722 0.64984 0.0
H1216 H 0.50535 0.03265 0.57211 0.0
H1217 H 0.50172 0.99001 0.65169 0.0
C1218 C 0.49945 0.94389 0.63446 0.0
C1219 C 0.50293 0.92629 0.61239 0.0
C1220 C 0.51242 0.04461 0.58915 0.0
C1221 C 0.51241 0.9924 0.61215 0.0
C1222 C 0.5164 0.07768 0.58904 0.0
C1223 C 0.52565 0.09372 0.61086 0.0
C1224 C 0.51706 0.02749 0.61135 0.0
C1225 C 0.53046 0.0757 0.6326 0.0
C1226 C 0.50452 0.97683 0.63449 0.0
C1227 C 0.51139 0.94268 0.59056 0.0
N1228 N 0.52584 0.04359 0.63236 0.0
N1229 N 0.51554 0.97483 0.59093 0.0
H1230 H 0.94308 0.57479 0.60886 0.0
H1231 H 0.08408 0.44621 0.61007 0.0
H1232 H 0.92683 0.47366 0.60262 0.0
H1233 H 0.09991 0.54756 0.60566 0.0
H1234 H 0.02652 0.45559 0.60922 0.0
H1235 H 1.00049 0.56512 0.6095 0.0
C1236 C 0.95153 0.55051 0.60774 0.0
C1237 C 0.92994 0.525 0.60576 0.0
C1238 C 0.04259 0.47578 0.6084 0.0
C1239 C 0.99598 0.51372 0.60634 0.0
C1240 C 0.07551 0.47045 0.60905 0.0
C1241 C 0.09702 0.49613 0.60796 0.0
C1242 C 0.03091 0.50706 0.60683 0.0
C1243 C 0.08435 0.527 0.60628 0.0
C1244 C 0.9844 0.54502 0.60795 0.0
C1245 C 0.94249 0.49408 0.60394 0.0
N1246 N 0.05223 0.53159 0.60586 0.0
N1247 N 0.97462 0.48931 0.60439 0.0
loop_
_geom_bond_atom_site_label_1
_geom_bond_atom_site_label_2
_geom_bond_distance
_geom_bond_site_symmetry_2
_ccdc_geom_bond_type
Co0 N4 2.148 . S
Co0 N10 2.128 . S
Co0 N20 2.194 . S
Co0 O25 2.351 . S
Co0 O26 2.155 . S
Co0 O27 2.096 . S
C1 N4 1.301 . S
C1 N5 1.328 . S
C1 H6 0.930 . S
C2 C3 1.333 . S
C2 N4 1.317 . S
C2 H7 0.930 . S
C3 C2 1.333 . S
C3 N5 1.350 . S
C3 H29 0.931 . S
N4 Co0 2.148 . S
N4 C1 1.301 . S
N4 C2 1.317 . S
N5 C1 1.328 . S
N5 C3 1.350 . S
H6 C1 0.930 . S
H7 C2 0.930 . S
C8 O9 1.224 . S
C8 O27 1.247 . S
O9 C8 1.224 . S
N10 Co0 2.128 . S
N10 C11 1.355 . S
N10 C13 1.311 . S
C11 N10 1.355 . S
C11 C12 1.363 . S
C11 H23 0.929 . S
C12 C11 1.363 . S
C12 N14 1.375 . S
C12 H30 0.931 1_455 S
C13 N10 1.311 . S
C13 N14 1.347 . S
C13 H24 0.929 . S
N14 C12 1.375 . S
N14 C13 1.347 . S
C15 C18 1.365 1_455 S
C15 N20 1.328 . S
C15 H21 0.929 . S
C16 C17 1.362 1_455 S
C16 C19 1.378 . S
C16 H31 0.929 1_455 S
C17 C16 1.362 1_655 S
C17 C18 1.366 . S
C18 C15 1.365 1_655 S
C18 C17 1.366 . S
C18 H32 0.930 . S
C19 C16 1.378 . S
C19 N20 1.315 . S
C19 H22 0.930 . S
N20 Co0 2.194 . S
N20 C15 1.328 . S
N20 C19 1.315 . S
H21 C15 0.929 . S
H22 C19 0.930 . S
H23 C11 0.929 . S
H24 C13 0.929 . S
O25 Co0 2.351 . S
O25 C28 1.244 . S
O26 Co0 2.155 . S
O26 C28 1.240 . S
O27 Co0 2.096 . S
O27 C8 1.247 . S
C28 O25 1.244 . S
C28 O26 1.240 . S
H29 C3 0.931 . S
H30 C12 0.931 1_655 S
H31 C16 0.929 1_655 S
H32 C18 0.930 . S
Co33 N37 2.148 . S
Co33 N43 2.128 . S
Co33 N53 2.194 . S
Co33 O58 2.351 . S
Co33 O59 2.155 . S
Co33 O60 2.096 . S
C34 N37 1.301 . S
C34 N38 1.328 . S
C34 H39 0.930 . S
C35 C36 1.333 . S
C35 N37 1.317 . S
C35 H40 0.930 . S
C36 C35 1.333 . S
C36 N38 1.350 . S
C36 H62 0.931 . S
N37 Co33 2.148 . S
N37 C34 1.301 . S
N37 C35 1.317 . S
N38 C34 1.328 . S
N38 C36 1.350 . S
H39 C34 0.930 . S
H40 C35 0.930 . S
C41 O42 1.224 . S
C41 O60 1.247 . S
O42 C41 1.224 . S
N43 Co33 2.128 . S
N43 C44 1.355 . S
N43 C46 1.311 . S
C44 N43 1.355 . S
C44 C45 1.363 . S
C44 H56 0.929 . S
C45 C44 1.363 . S
C45 N47 1.375 . S
C45 H63 0.931 1_545 S
C46 N43 1.311 . S
C46 N47 1.347 . S
C46 H57 0.929 . S
N47 C45 1.375 . S
N47 C46 1.347 . S
C48 C51 1.365 1_545 S
C48 N53 1.328 . S
C48 H54 0.929 . S
C49 C50 1.362 1_545 S
C49 C52 1.378 . S
C49 H64 0.929 1_545 S
C50 C49 1.362 1_565 S
C50 C51 1.366 . S
C51 C48 1.365 1_565 S
C51 C50 1.366 . S
C51 H65 0.930 . S
C52 C49 1.378 . S
C52 N53 1.315 . S
C52 H55 0.930 . S
N53 Co33 2.194 . S
N53 C48 1.328 . S
N53 C52 1.315 . S
H54 C48 0.929 . S
H55 C52 0.930 . S
H56 C44 0.929 . S
H57 C46 0.929 . S
O58 Co33 2.351 . S
O58 C61 1.244 . S
O59 Co33 2.155 . S
O59 C61 1.240 . S
O60 Co33 2.096 . S
O60 C41 1.247 . S
C61 O58 1.244 . S
C61 O59 1.240 . S
H62 C36 0.931 . S
H63 C45 0.931 1_565 S
H64 C49 0.929 1_565 S
H65 C51 0.930 . S
Co66 N70 2.148 . S
Co66 N76 2.128 . S
Co66 N86 2.194 . S
Co66 O91 2.351 . S
Co66 O92 2.155 . S
Co66 O93 2.096 . S
C67 N70 1.301 . S
C67 N71 1.328 . S
C67 H72 0.930 . S
C68 C69 1.333 . S
C68 N70 1.317 . S
C68 H73 0.930 . S
C69 C68 1.333 . S
C69 N71 1.350 . S
C69 H95 0.931 . S
N70 Co66 2.148 . S
N70 C67 1.301 . S
N70 C68 1.317 . S
N71 C67 1.328 . S
N71 C69 1.350 . S
H72 C67 0.930 . S
H73 C68 0.930 . S
C74 O75 1.224 . S
C74 O93 1.247 . S
O75 C74 1.224 . S
N76 Co66 2.128 . S
N76 C77 1.355 . S
N76 C79 1.311 . S
C77 N76 1.355 . S
C77 C78 1.363 . S
C77 H89 0.929 . S
C78 C77 1.363 . S
C78 N80 1.375 . S
C78 H96 0.931 1_655 S
C79 N76 1.311 . S
C79 N80 1.347 . S
C79 H90 0.929 . S
N80 C78 1.375 . S
N80 C79 1.347 . S
C81 C84 1.365 1_655 S
C81 N86 1.328 . S
C81 H87 0.929 . S
C82 C83 1.362 1_655 S
C82 C85 1.378 . S
C82 H97 0.929 1_655 S
C83 C82 1.362 1_455 S
C83 C84 1.366 . S
C84 C81 1.365 1_455 S
C84 C83 1.366 . S
C84 H98 0.930 . S
C85 C82 1.378 . S
C85 N86 1.315 . S
C85 H88 0.930 . S
N86 Co66 2.194 . S
N86 C81 1.328 . S
N86 C85 1.315 . S
H87 C81 0.929 . S
H88 C85 0.930 . S
H89 C77 0.929 . S
H90 C79 0.929 . S
O91 Co66 2.351 . S
O91 C94 1.244 . S
O92 Co66 2.155 . S
O92 C94 1.240 . S
O93 Co66 2.096 . S
O93 C74 1.247 . S
C94 O91 1.244 . S
C94 O92 1.240 . S
H95 C69 0.931 . S
H96 C78 0.931 1_455 S
H97 C82 0.929 1_455 S
H98 C84 0.930 . S
Co99 N103 2.148 . S
Co99 N109 2.128 . S
Co99 N119 2.194 . S
Co99 O124 2.351 . S
Co99 O125 2.155 . S
Co99 O126 2.096 . S
C100 N103 1.301 . S
C100 N104 1.328 . S
C100 H105 0.930 . S
C101 C102 1.333 . S
C101 N103 1.317 . S
C101 H106 0.930 . S
C102 C101 1.333 . S
C102 N104 1.350 . S
C102 H128 0.931 . S
N103 Co99 2.148 . S
N103 C100 1.301 . S
N103 C101 1.317 . S
N104 C100 1.328 . S
N104 C102 1.350 . S
H105 C100 0.930 . S
H106 C101 0.930 . S
C107 O108 1.224 . S
C107 O126 1.247 . S
O108 C107 1.224 . S
N109 Co99 2.128 . S
N109 C110 1.355 . S
N109 C112 1.311 . S
C110 N109 1.355 . S
C110 C111 1.363 . S
C110 H122 0.929 . S
C111 C110 1.363 . S
C111 N113 1.375 . S
C111 H129 0.931 1_565 S
C112 N109 1.311 . S
C112 N113 1.347 . S
C112 H123 0.929 . S
N113 C111 1.375 . S
N113 C112 1.347 . S
C114 C117 1.365 1_565 S
C114 N119 1.328 . S
C114 H120 0.929 . S
C115 C116 1.362 1_565 S
C115 C118 1.378 . S
C115 H130 0.929 1_565 S
C116 C115 1.362 1_545 S
C116 C117 1.366 . S
C117 C114 1.365 1_545 S
C117 C116 1.366 . S
C117 H131 0.930 . S
C118 C115 1.378 . S
C118 N119 1.315 . S
C118 H121 0.930 . S
N119 Co99 2.194 . S
N119 C114 1.328 . S
N119 C118 1.315 . S
H120 C114 0.929 . S
H121 C118 0.930 . S
H122 C110 0.929 . S
H123 C112 0.929 . S
O124 Co99 2.351 . S
O124 C127 1.244 . S
O125 Co99 2.155 . S
O125 C127 1.240 . S
O126 Co99 2.096 . S
O126 C107 1.247 . S
C127 O124 1.244 . S
C127 O125 1.240 . S
H128 C102 0.931 . S
H129 C111 0.931 1_545 S
H130 C115 0.929 1_545 S
H131 C117 0.930 . S
Co132 N136 2.148 . S
Co132 N142 2.128 . S
Co132 N152 2.194 . S
Co132 O157 2.351 . S
Co132 O158 2.155 . S
Co132 O159 2.096 . S
C133 N136 1.301 . S
C133 N137 1.328 . S
C133 H138 0.930 . S
C134 C135 1.333 . S
C134 N136 1.317 . S
C134 H139 0.930 . S
C135 C134 1.333 . S
C135 N137 1.350 . S
C135 H161 0.931 . S
N136 Co132 2.148 . S
N136 C133 1.301 . S
N136 C134 1.317 . S
N137 C133 1.328 . S
N137 C135 1.350 . S
H138 C133 0.930 . S
H139 C134 0.930 . S
C140 O141 1.224 . S
C140 O159 1.247 . S
O141 C140 1.224 . S
N142 Co132 2.128 . S
N142 C143 1.355 . S
N142 C145 1.311 . S
C143 N142 1.355 . S
C143 C144 1.363 . S
C143 H155 0.929 . S
C144 C143 1.363 . S
C144 N146 1.375 . S
C144 H162 0.931 . S
C145 N142 1.311 . S
C145 N146 1.347 . S
C145 H156 0.929 . S
N146 C144 1.375 . S
N146 C145 1.347 . S
C147 C150 1.365 . S
C147 N152 1.328 . S
C147 H153 0.929 . S
C148 C149 1.362 . S
C148 C151 1.378 . S
C148 H163 0.929 . S
C149 C148 1.362 . S
C149 C150 1.366 . S
C150 C147 1.365 . S
C150 C149 1.366 . S
C150 H164 0.930 . S
C151 C148 1.378 . S
C151 N152 1.315 . S
C151 H154 0.930 . S
N152 Co132 2.194 . S
N152 C147 1.328 . S
N152 C151 1.315 . S
H153 C147 0.929 . S
H154 C151 0.930 . S
H155 C143 0.929 . S
H156 C145 0.929 . S
O157 Co132 2.351 . S
O157 C160 1.244 . S
O158 Co132 2.155 . S
O158 C160 1.240 . S
O159 Co132 2.096 . S
O159 C140 1.247 . S
C160 O157 1.244 . S
C160 O158 1.240 . S
H161 C135 0.931 . S
H162 C144 0.931 . S
H163 C148 0.929 . S
H164 C150 0.930 . S
Co165 N169 2.148 . S
Co165 N175 2.128 . S
Co165 N185 2.194 . S
Co165 O190 2.351 . S
Co165 O191 2.155 . S
Co165 O192 2.096 . S
C166 N169 1.301 . S
C166 N170 1.328 . S
C166 H171 0.930 . S
C167 C168 1.333 . S
C167 N169 1.317 . S
C167 H172 0.930 . S
C168 C167 1.333 . S
C168 N170 1.350 . S
C168 H194 0.931 . S
N169 Co165 2.148 . S
N169 C166 1.301 . S
N169 C167 1.317 . S
N170 C166 1.328 . S
N170 C168 1.350 . S
H171 C166 0.930 . S
H172 C167 0.930 . S
C173 O174 1.224 . S
C173 O192 1.247 . S
O174 C173 1.224 . S
N175 Co165 2.128 . S
N175 C176 1.355 . S
N175 C178 1.311 . S
C176 N175 1.355 . S
C176 C177 1.363 . S
C176 H188 0.929 . S
C177 C176 1.363 . S
C177 N179 1.375 . S
C177 H195 0.931 . S
C178 N175 1.311 . S
C178 N179 1.347 . S
C178 H189 0.929 . S
N179 C177 1.375 . S
N179 C178 1.347 . S
C180 C183 1.365 . S
C180 N185 1.328 . S
C180 H186 0.929 . S
C181 C182 1.362 . S
C181 C184 1.378 . S
C181 H196 0.929 . S
C182 C181 1.362 . S
C182 C183 1.366 . S
C183 C180 1.365 . S
C183 C182 1.366 . S
C183 H197 0.930 . S
C184 C181 1.378 . S
C184 N185 1.315 . S
C184 H187 0.930 . S
N185 Co165 2.194 . S
N185 C180 1.328 . S
N185 C184 1.315 . S
H186 C180 0.929 . S
H187 C184 0.930 . S
H188 C176 0.929 . S
H189 C178 0.929 . S
O190 Co165 2.351 . S
O190 C193 1.244 . S
O191 Co165 2.155 . S
O191 C193 1.240 . S
O192 Co165 2.096 . S
O192 C173 1.247 . S
C193 O190 1.244 . S
C193 O191 1.240 . S
H194 C168 0.931 . S
H195 C177 0.931 . S
H196 C181 0.929 . S
H197 C183 0.930 . S
Co198 N202 2.148 . S
Co198 N208 2.128 . S
Co198 N218 2.194 . S
Co198 O223 2.351 . S
Co198 O224 2.155 . S
Co198 O225 2.096 . S
C199 N202 1.301 . S
C199 N203 1.328 . S
C199 H204 0.930 . S
C200 C201 1.333 . S
C200 N202 1.317 . S
C200 H205 0.930 . S
C201 C200 1.333 . S
C201 N203 1.350 . S
C201 H227 0.931 . S
N202 Co198 2.148 . S
N202 C199 1.301 . S
N202 C200 1.317 . S
N203 C199 1.328 . S
N203 C201 1.350 . S
H204 C199 0.930 . S
H205 C200 0.930 . S
C206 O207 1.224 . S
C206 O225 1.247 . S
O207 C206 1.224 . S
N208 Co198 2.128 . S
N208 C209 1.355 . S
N208 C211 1.311 . S
C209 N208 1.355 . S
C209 C210 1.363 . S
C209 H221 0.929 . S
C210 C209 1.363 . S
C210 N212 1.375 . S
C210 H228 0.931 . S
C211 N208 1.311 . S
C211 N212 1.347 . S
C211 H222 0.929 . S
N212 C210 1.375 . S
N212 C211 1.347 . S
C213 C216 1.365 . S
C213 N218 1.328 . S
C213 H219 0.929 . S
C214 C215 1.362 . S
C214 C217 1.378 . S
C214 H229 0.929 . S
C215 C214 1.362 . S
C215 C216 1.366 . S
C216 C213 1.365 . S
C216 C215 1.366 . S
C216 H230 0.930 . S
C217 C214 1.378 . S
C217 N218 1.315 . S
C217 H220 0.930 . S
N218 Co198 2.194 . S
N218 C213 1.328 . S
N218 C217 1.315 . S
H219 C213 0.929 . S
H220 C217 0.930 . S
H221 C209 0.929 . S
H222 C211 0.929 . S
O223 Co198 2.351 . S
O223 C226 1.244 . S
O224 Co198 2.155 . S
O224 C226 1.240 . S
O225 Co198 2.096 . S
O225 C206 1.247 . S
C226 O223 1.244 . S
C226 O224 1.240 . S
H227 C201 0.931 . S
H228 C210 0.931 . S
H229 C214 0.929 . S
H230 C216 0.930 . S
Co231 N235 2.148 . S
Co231 N241 2.128 . S
Co231 N251 2.194 . S
Co231 O256 2.351 . S
Co231 O257 2.155 . S
Co231 O258 2.096 . S
C232 N235 1.301 . S
C232 N236 1.328 . S
C232 H237 0.930 . S
C233 C234 1.333 . S
C233 N235 1.317 . S
C233 H238 0.930 . S
C234 C233 1.333 . S
C234 N236 1.350 . S
C234 H260 0.931 . S
N235 Co231 2.148 . S
N235 C232 1.301 . S
N235 C233 1.317 . S
N236 C232 1.328 . S
N236 C234 1.350 . S
H237 C232 0.930 . S
H238 C233 0.930 . S
C239 O240 1.224 . S
C239 O258 1.247 . S
O240 C239 1.224 . S
N241 Co231 2.128 . S
N241 C242 1.355 . S
N241 C244 1.311 . S
C242 N241 1.355 . S
C242 C243 1.363 . S
C242 H254 0.929 . S
C243 C242 1.363 . S
C243 N245 1.375 . S
C243 H261 0.931 . S
C244 N241 1.311 . S
C244 N245 1.347 . S
C244 H255 0.929 . S
N245 C243 1.375 . S
N245 C244 1.347 . S
C246 C249 1.365 . S
C246 N251 1.328 . S
C246 H252 0.929 . S
C247 C248 1.362 . S
C247 C250 1.378 . S
C247 H262 0.929 . S
C248 C247 1.362 . S
C248 C249 1.366 . S
C249 C246 1.365 . S
C249 C248 1.366 . S
C249 H263 0.930 . S
C250 C247 1.378 . S
C250 N251 1.315 . S
C250 H253 0.930 . S
N251 Co231 2.194 . S
N251 C246 1.328 . S
N251 C250 1.315 . S
H252 C246 0.929 . S
H253 C250 0.930 . S
H254 C242 0.929 . S
H255 C244 0.929 . S
O256 Co231 2.351 . S
O256 C259 1.244 . S
O257 Co231 2.155 . S
O257 C259 1.240 . S
O258 Co231 2.096 . S
O258 C239 1.247 . S
C259 O256 1.244 . S
C259 O257 1.240 . S
H260 C234 0.931 . S
H261 C243 0.931 . S
H262 C247 0.929 . S
H263 C249 0.930 . S
Co264 N268 2.148 . S
Co264 N274 2.128 . S
Co264 N284 2.194 . S
Co264 O289 2.351 . S
Co264 O290 2.155 . S
Co264 O291 2.096 . S
C265 N268 1.301 . S
C265 N269 1.328 . S
C265 H270 0.930 . S
C266 C267 1.333 . S
C266 N268 1.317 . S
C266 H271 0.930 . S
C267 C266 1.333 . S
C267 N269 1.350 . S
C267 H293 0.931 . S
N268 Co264 2.148 . S
N268 C265 1.301 . S
N268 C266 1.317 . S
N269 C265 1.328 . S
N269 C267 1.350 . S
H270 C265 0.930 . S
H271 C266 0.930 . S
C272 O273 1.224 . S
C272 O291 1.247 . S
O273 C272 1.224 . S
N274 Co264 2.128 . S
N274 C275 1.355 . S
N274 C277 1.311 . S
C275 N274 1.355 . S
C275 C276 1.363 . S
C275 H287 0.929 . S
C276 C275 1.363 . S
C276 N278 1.375 . S
C276 H294 0.931 1_655 S
C277 N274 1.311 . S
C277 N278 1.347 . S
C277 H288 0.929 . S
N278 C276 1.375 . S
N278 C277 1.347 . S
C279 C282 1.365 1_655 S
C279 N284 1.328 . S
C279 H285 0.929 . S
C280 C281 1.362 1_655 S
C280 C283 1.378 . S
C280 H295 0.929 1_655 S
C281 C280 1.362 1_455 S
C281 C282 1.366 . S
C282 C279 1.365 1_455 S
C282 C281 1.366 . S
C282 H296 0.930 . S
C283 C280 1.378 . S
C283 N284 1.315 . S
C283 H286 0.930 . S
N284 Co264 2.194 . S
N284 C279 1.328 . S
N284 C283 1.315 . S
H285 C279 0.929 . S
H286 C283 0.930 . S
H287 C275 0.929 . S
H288 C277 0.929 . S
O289 Co264 2.351 . S
O289 C292 1.244 . S
O290 Co264 2.155 . S
O290 C292 1.240 . S
O291 Co264 2.096 . S
O291 C272 1.247 . S
C292 O289 1.244 . S
C292 O290 1.240 . S
H293 C267 0.931 . S
H294 C276 0.931 1_455 S
H295 C280 0.929 1_455 S
H296 C282 0.930 . S
Co297 N301 2.148 . S
Co297 N307 2.128 . S
Co297 N317 2.194 . S
Co297 O322 2.351 . S
Co297 O323 2.155 . S
Co297 O324 2.096 . S
C298 N301 1.301 . S
C298 N302 1.328 . S
C298 H303 0.930 . S
C299 C300 1.333 . S
C299 N301 1.317 . S
C299 H304 0.930 . S
C300 C299 1.333 . S
C300 N302 1.350 . S
C300 H326 0.931 . S
N301 Co297 2.148 . S
N301 C298 1.301 . S
N301 C299 1.317 . S
N302 C298 1.328 . S
N302 C300 1.350 . S
H303 C298 0.930 . S
H304 C299 0.930 . S
C305 O306 1.224 . S
C305 O324 1.247 . S
O306 C305 1.224 . S
N307 Co297 2.128 . S
N307 C308 1.355 . S
N307 C310 1.311 . S
C308 N307 1.355 . S
C308 C309 1.363 . S
C308 H320 0.929 . S
C309 C308 1.363 . S
C309 N311 1.375 . S
C309 H327 0.931 1_565 S
C310 N307 1.311 . S
C310 N311 1.347 . S
C310 H321 0.929 . S
N311 C309 1.375 . S
N311 C310 1.347 . S
C312 C315 1.365 1_565 S
C312 N317 1.328 . S
C312 H318 0.929 . S
C313 C314 1.362 1_565 S
C313 C316 1.378 . S
C313 H328 0.929 1_565 S
C314 C313 1.362 1_545 S
C314 C315 1.366 . S
C315 C312 1.365 1_545 S
C315 C314 1.366 . S
C315 H329 0.930 . S
C316 C313 1.378 . S
C316 N317 1.315 . S
C316 H319 0.930 . S
N317 Co297 2.194 . S
N317 C312 1.328 . S
N317 C316 1.315 . S
H318 C312 0.929 . S
H319 C316 0.930 . S
H320 C308 0.929 . S
H321 C310 0.929 . S
O322 Co297 2.351 . S
O322 C325 1.244 . S
O323 Co297 2.155 . S
O323 C325 1.240 . S
O324 Co297 2.096 . S
O324 C305 1.247 . S
C325 O322 1.244 . S
C325 O323 1.240 . S
H326 C300 0.931 . S
H327 C309 0.931 1_545 S
H328 C313 0.929 1_545 S
H329 C315 0.930 . S
Co330 N334 2.148 . S
Co330 N340 2.128 . S
Co330 N350 2.194 . S
Co330 O355 2.351 . S
Co330 O356 2.155 . S
Co330 O357 2.096 . S
C331 N334 1.301 . S
C331 N335 1.328 . S
C331 H336 0.930 . S
C332 C333 1.333 . S
C332 N334 1.317 . S
C332 H337 0.930 . S
C333 C332 1.333 . S
C333 N335 1.350 . S
C333 H359 0.931 . S
N334 Co330 2.148 . S
N334 C331 1.301 . S
N334 C332 1.317 . S
N335 C331 1.328 . S
N335 C333 1.350 . S
H336 C331 0.930 . S
H337 C332 0.930 . S
C338 O339 1.224 . S
C338 O357 1.247 . S
O339 C338 1.224 . S
N340 Co330 2.128 . S
N340 C341 1.355 . S
N340 C343 1.311 . S
C341 N340 1.355 . S
C341 C342 1.363 . S
C341 H353 0.929 . S
C342 C341 1.363 . S
C342 N344 1.375 . S
C342 H360 0.931 1_455 S
C343 N340 1.311 . S
C343 N344 1.347 . S
C343 H354 0.929 . S
N344 C342 1.375 . S
N344 C343 1.347 . S
C345 C348 1.365 1_455 S
C345 N350 1.328 . S
C345 H351 0.929 . S
C346 C347 1.362 1_455 S
C346 C349 1.378 . S
C346 H361 0.929 1_455 S
C347 C346 1.362 1_655 S
C347 C348 1.366 . S
C348 C345 1.365 1_655 S
C348 C347 1.366 . S
C348 H362 0.930 . S
C349 C346 1.378 . S
C349 N350 1.315 . S
C349 H352 0.930 . S
N350 Co330 2.194 . S
N350 C345 1.328 . S
N350 C349 1.315 . S
H351 C345 0.929 . S
H352 C349 0.930 . S
H353 C341 0.929 . S
H354 C343 0.929 . S
O355 Co330 2.351 . S
O355 C358 1.244 . S
O356 Co330 2.155 . S
O356 C358 1.240 . S
O357 Co330 2.096 . S
O357 C338 1.247 . S
C358 O355 1.244 . S
C358 O356 1.240 . S
H359 C333 0.931 . S
H360 C342 0.931 1_655 S
H361 C346 0.929 1_655 S
H362 C348 0.930 . S
Co363 N367 2.148 . S
Co363 N373 2.128 . S
Co363 N383 2.194 . S
Co363 O388 2.351 . S
Co363 O389 2.155 . S
Co363 O390 2.096 . S
C364 N367 1.301 . S
C364 N368 1.328 . S
C364 H369 0.930 . S
C365 C366 1.333 . S
C365 N367 1.317 . S
C365 H370 0.930 . S
C366 C365 1.333 . S
C366 N368 1.350 . S
C366 H392 0.931 . S
N367 Co363 2.148 . S
N367 C364 1.301 . S
N367 C365 1.317 . S
N368 C364 1.328 . S
N368 C366 1.350 . S
H369 C364 0.930 . S
H370 C365 0.930 . S
C371 O372 1.224 . S
C371 O390 1.247 . S
O372 C371 1.224 . S
N373 Co363 2.128 . S
N373 C374 1.355 . S
N373 C376 1.311 . S
C374 N373 1.355 . S
C374 C375 1.363 . S
C374 H386 0.929 . S
C375 C374 1.363 . S
C375 N377 1.375 . S
C375 H393 0.931 1_545 S
C376 N373 1.311 . S
C376 N377 1.347 . S
C376 H387 0.929 . S
N377 C375 1.375 . S
N377 C376 1.347 . S
C378 C381 1.365 1_545 S
C378 N383 1.328 . S
C378 H384 0.929 . S
C379 C380 1.362 1_545 S
C379 C382 1.378 . S
C379 H394 0.929 1_545 S
C380 C379 1.362 1_565 S
C380 C381 1.366 . S
C381 C378 1.365 1_565 S
C381 C380 1.366 . S
C381 H395 0.930 . S
C382 C379 1.378 . S
C382 N383 1.315 . S
C382 H385 0.930 . S
N383 Co363 2.194 . S
N383 C378 1.328 . S
N383 C382 1.315 . S
H384 C378 0.929 . S
H385 C382 0.930 . S
H386 C374 0.929 . S
H387 C376 0.929 . S
O388 Co363 2.351 . S
O388 C391 1.244 . S
O389 Co363 2.155 . S
O389 C391 1.240 . S
O390 Co363 2.096 . S
O390 C371 1.247 . S
C391 O388 1.244 . S
C391 O389 1.240 . S
H392 C366 0.931 . S
H393 C375 0.931 1_565 S
H394 C379 0.929 1_565 S
H395 C381 0.930 . S
Co396 N400 2.148 . S
Co396 N406 2.128 . S
Co396 N416 2.194 . S
Co396 O421 2.351 . S
Co396 O422 2.155 . S
Co396 O423 2.096 . S
C397 N400 1.301 . S
C397 N401 1.328 . S
C397 H402 0.930 . S
C398 C399 1.333 . S
C398 N400 1.317 . S
C398 H403 0.930 . S
C399 C398 1.333 . S
C399 N401 1.350 . S
C399 H425 0.931 . S
N400 Co396 2.148 . S
N400 C397 1.301 . S
N400 C398 1.317 . S
N401 C397 1.328 . S
N401 C399 1.350 . S
H402 C397 0.930 . S
H403 C398 0.930 . S
C404 O405 1.224 . S
C404 O423 1.247 . S
O405 C404 1.224 . S
N406 Co396 2.128 . S
N406 C407 1.355 . S
N406 C409 1.311 . S
C407 N406 1.355 . S
C407 C408 1.363 . S
C407 H419 0.929 . S
C408 C407 1.363 . S
C408 N410 1.375 . S
C408 H426 0.931 . S
C409 N406 1.311 . S
C409 N410 1.347 . S
C409 H420 0.929 . S
N410 C408 1.375 . S
N410 C409 1.347 . S
C411 C414 1.365 . S
C411 N416 1.328 . S
C411 H417 0.929 . S
C412 C413 1.362 . S
C412 C415 1.378 . S
C412 H427 0.929 . S
C413 C412 1.362 . S
C413 C414 1.366 . S
C414 C411 1.365 . S
C414 C413 1.366 . S
C414 H428 0.930 . S
C415 C412 1.378 . S
C415 N416 1.315 . S
C415 H418 0.930 . S
N416 Co396 2.194 . S
N416 C411 1.328 . S
N416 C415 1.315 . S
H417 C411 0.929 . S
H418 C415 0.930 . S
H419 C407 0.929 . S
H420 C409 0.929 . S
O421 Co396 2.351 . S
O421 C424 1.244 . S
O422 Co396 2.155 . S
O422 C424 1.240 . S
O423 Co396 2.096 . S
O423 C404 1.247 . S
C424 O421 1.244 . S
C424 O422 1.240 . S
H425 C399 0.931 . S
H426 C408 0.931 . S
H427 C412 0.929 . S
H428 C414 0.930 . S
Co429 N433 2.148 . S
Co429 N439 2.128 . S
Co429 N449 2.194 . S
Co429 O454 2.351 . S
Co429 O455 2.155 . S
Co429 O456 2.096 . S
C430 N433 1.301 . S
C430 N434 1.328 . S
C430 H435 0.930 . S
C431 C432 1.333 . S
C431 N433 1.317 . S
C431 H436 0.930 . S
C432 C431 1.333 . S
C432 N434 1.350 . S
C432 H458 0.931 . S
N433 Co429 2.148 . S
N433 C430 1.301 . S
N433 C431 1.317 . S
N434 C430 1.328 . S
N434 C432 1.350 . S
H435 C430 0.930 . S
H436 C431 0.930 . S
C437 O438 1.224 . S
C437 O456 1.247 . S
O438 C437 1.224 . S
N439 Co429 2.128 . S
N439 C440 1.355 . S
N439 C442 1.311 . S
C440 N439 1.355 . S
C440 C441 1.363 . S
C440 H452 0.929 . S
C441 C440 1.363 . S
C441 N443 1.375 . S
C441 H459 0.931 . S
C442 N439 1.311 . S
C442 N443 1.347 . S
C442 H453 0.929 . S
N443 C441 1.375 . S
N443 C442 1.347 . S
C444 C447 1.365 . S
C444 N449 1.328 . S
C444 H450 0.929 . S
C445 C446 1.362 . S
C445 C448 1.378 . S
C445 H460 0.929 . S
C446 C445 1.362 . S
C446 C447 1.366 . S
C447 C444 1.365 . S
C447 C446 1.366 . S
C447 H461 0.930 . S
C448 C445 1.378 . S
C448 N449 1.315 . S
C448 H451 0.930 . S
N449 Co429 2.194 . S
N449 C444 1.328 . S
N449 C448 1.315 . S
H450 C444 0.929 . S
H451 C448 0.930 . S
H452 C440 0.929 . S
H453 C442 0.929 . S
O454 Co429 2.351 . S
O454 C457 1.244 . S
O455 Co429 2.155 . S
O455 C457 1.240 . S
O456 Co429 2.096 . S
O456 C437 1.247 . S
C457 O454 1.244 . S
C457 O455 1.240 . S
H458 C432 0.931 . S
H459 C441 0.931 . S
H460 C445 0.929 . S
H461 C447 0.930 . S
Co462 N466 2.148 . S
Co462 N472 2.128 . S
Co462 N482 2.194 . S
Co462 O487 2.351 . S
Co462 O488 2.155 . S
Co462 O489 2.096 . S
C463 N466 1.301 . S
C463 N467 1.328 . S
C463 H468 0.930 . S
C464 C465 1.333 . S
C464 N466 1.317 . S
C464 H469 0.930 . S
C465 C464 1.333 . S
C465 N467 1.350 . S
C465 H491 0.931 . S
N466 Co462 2.148 . S
N466 C463 1.301 . S
N466 C464 1.317 . S
N467 C463 1.328 . S
N467 C465 1.350 . S
H468 C463 0.930 . S
H469 C464 0.930 . S
C470 O471 1.224 . S
C470 O489 1.247 . S
O471 C470 1.224 . S
N472 Co462 2.128 . S
N472 C473 1.355 . S
N472 C475 1.311 . S
C473 N472 1.355 . S
C473 C474 1.363 . S
C473 H485 0.929 . S
C474 C473 1.363 . S
C474 N476 1.375 . S
C474 H492 0.931 . S
C475 N472 1.311 . S
C475 N476 1.347 . S
C475 H486 0.929 . S
N476 C474 1.375 . S
N476 C475 1.347 . S
C477 C480 1.365 . S
C477 N482 1.328 . S
C477 H483 0.929 . S
C478 C479 1.362 . S
C478 C481 1.378 . S
C478 H493 0.929 . S
C479 C478 1.362 . S
C479 C480 1.366 . S
C480 C477 1.365 . S
C480 C479 1.366 . S
C480 H494 0.930 . S
C481 C478 1.378 . S
C481 N482 1.315 . S
C481 H484 0.930 . S
N482 Co462 2.194 . S
N482 C477 1.328 . S
N482 C481 1.315 . S
H483 C477 0.929 . S
H484 C481 0.930 . S
H485 C473 0.929 . S
H486 C475 0.929 . S
O487 Co462 2.351 . S
O487 C490 1.244 . S
O488 Co462 2.155 . S
O488 C490 1.240 . S
O489 Co462 2.096 . S
O489 C470 1.247 . S
C490 O487 1.244 . S
C490 O488 1.240 . S
H491 C465 0.931 . S
H492 C474 0.931 . S
H493 C478 0.929 . S
H494 C480 0.930 . S
Co495 N499 2.148 . S
Co495 N505 2.128 . S
Co495 N515 2.194 . S
Co495 O520 2.351 . S
Co495 O521 2.155 . S
Co495 O522 2.096 . S
C496 N499 1.301 . S
C496 N500 1.328 . S
C496 H501 0.930 . S
C497 C498 1.333 . S
C497 N499 1.317 . S
C497 H502 0.930 . S
C498 C497 1.333 . S
C498 N500 1.350 . S
C498 H524 0.931 . S
N499 Co495 2.148 . S
N499 C496 1.301 . S
N499 C497 1.317 . S
N500 C496 1.328 . S
N500 C498 1.350 . S
H501 C496 0.930 . S
H502 C497 0.930 . S
C503 O504 1.224 . S
C503 O522 1.247 . S
O504 C503 1.224 . S
N505 Co495 2.128 . S
N505 C506 1.355 . S
N505 C508 1.311 . S
C506 N505 1.355 . S
C506 C507 1.363 . S
C506 H518 0.929 . S
C507 C506 1.363 . S
C507 N509 1.375 . S
C507 H525 0.931 . S
C508 N505 1.311 . S
C508 N509 1.347 . S
C508 H519 0.929 . S
N509 C507 1.375 . S
N509 C508 1.347 . S
C510 C513 1.365 . S
C510 N515 1.328 . S
C510 H516 0.929 . S
C511 C512 1.362 . S
C511 C514 1.378 . S
C511 H526 0.929 . S
C512 C511 1.362 . S
C512 C513 1.366 . S
C513 C510 1.365 . S
C513 C512 1.366 . S
C513 H527 0.930 . S
C514 C511 1.378 . S
C514 N515 1.315 . S
C514 H517 0.930 . S
N515 Co495 2.194 . S
N515 C510 1.328 . S
N515 C514 1.315 . S
H516 C510 0.929 . S
H517 C514 0.930 . S
H518 C506 0.929 . S
H519 C508 0.929 . S
O520 Co495 2.351 . S
O520 C523 1.244 . S
O521 Co495 2.155 . S
O521 C523 1.240 . S
O522 Co495 2.096 . S
O522 C503 1.247 . S
C523 O520 1.244 . S
C523 O521 1.240 . S
H524 C498 0.931 . S
H525 C507 0.931 . S
H526 C511 0.929 . S
H527 C513 0.930 . S
H528 C534 0.930 . S
H529 C538 0.930 . S
H530 C543 0.929 . S
H531 C541 0.929 . S
H532 C536 0.929 . S
H533 C542 0.929 . S
C534 H528 0.930 . S
C534 C535 1.367 . S
C534 C542 1.378 . S
C535 C534 1.367 . S
C535 C543 1.433 . S
C536 H532 0.929 . S
C536 C538 1.378 . S
C536 C540 1.350 . S
C537 C540 1.463 1_556 S
C537 C542 1.350 . S
C537 N545 1.427 . S
C538 H529 0.930 . S
C538 C536 1.378 . S
C538 C539 1.367 . S
C539 C538 1.367 . S
C539 C541 1.433 . S
C540 C536 1.350 . S
C540 C537 1.463 1_554 S
C540 N544 1.427 . S
C541 H531 0.929 . S
C541 C539 1.433 . S
C541 N544 1.384 . S
C542 H533 0.929 . S
C542 C534 1.378 . S
C542 C537 1.350 . S
C543 H530 0.929 . S
C543 C535 1.433 . S
C543 N545 1.384 . S
N544 C540 1.427 . S
N544 C541 1.384 . S
N545 C537 1.427 . S
N545 C543 1.384 . S
H546 C552 0.930 . S
H547 C556 0.930 . S
H548 C561 0.929 . S
H549 C559 0.929 . S
H550 C554 0.929 . S
H551 C560 0.929 . S
C552 H546 0.930 . S
C552 C553 1.367 . S
C552 C560 1.378 . S
C553 C552 1.367 . S
C553 C561 1.433 . S
C554 H550 0.929 . S
C554 C556 1.378 . S
C554 C558 1.350 . S
C555 C558 1.463 1_556 S
C555 C560 1.350 . S
C555 N563 1.427 . S
C556 H547 0.930 . S
C556 C554 1.378 . S
C556 C557 1.367 . S
C557 C556 1.367 . S
C557 C559 1.433 . S
C558 C554 1.350 . S
C558 C555 1.463 1_554 S
C558 N562 1.427 . S
C559 H549 0.929 . S
C559 C557 1.433 . S
C559 N562 1.384 . S
C560 H551 0.929 . S
C560 C552 1.378 . S
C560 C555 1.350 . S
C561 H548 0.929 . S
C561 C553 1.433 . S
C561 N563 1.384 . S
N562 C558 1.427 . S
N562 C559 1.384 . S
N563 C555 1.427 . S
N563 C561 1.384 . S
H564 C570 0.930 . S
H565 C574 0.930 . S
H566 C579 0.929 . S
H567 C577 0.929 . S
H568 C572 0.929 . S
H569 C578 0.929 . S
C570 H564 0.930 . S
C570 C571 1.367 . S
C570 C578 1.378 . S
C571 C570 1.367 . S
C571 C579 1.433 . S
C572 H568 0.929 . S
C572 C574 1.378 . S
C572 C576 1.350 . S
C573 C576 1.463 1_556 S
C573 C578 1.350 . S
C573 N581 1.427 . S
C574 H565 0.930 . S
C574 C572 1.378 . S
C574 C575 1.367 . S
C575 C574 1.367 . S
C575 C577 1.433 . S
C576 C572 1.350 . S
C576 C573 1.463 1_554 S
C576 N580 1.427 . S
C577 H567 0.929 . S
C577 C575 1.433 . S
C577 N580 1.384 . S
C578 H569 0.929 . S
C578 C570 1.378 . S
C578 C573 1.350 . S
C579 H566 0.929 . S
C579 C571 1.433 . S
C579 N581 1.384 . S
N580 C576 1.427 . S
N580 C577 1.384 . S
N581 C573 1.427 . S
N581 C579 1.384 . S
H582 C588 0.930 . S
H583 C592 0.930 . S
H584 C597 0.929 . S
H585 C595 0.929 . S
H586 C590 0.929 . S
H587 C596 0.929 . S
C588 H582 0.930 . S
C588 C589 1.367 . S
C588 C596 1.378 . S
C589 C588 1.367 . S
C589 C597 1.433 . S
C590 H586 0.929 . S
C590 C592 1.378 . S
C590 C594 1.350 . S
C591 C594 1.463 1_556 S
C591 C596 1.350 . S
C591 N599 1.427 . S
C592 H583 0.930 . S
C592 C590 1.378 . S
C592 C593 1.367 . S
C593 C592 1.367 . S
C593 C595 1.433 . S
C594 C590 1.350 . S
C594 C591 1.463 1_554 S
C594 N598 1.427 . S
C595 H585 0.929 . S
C595 C593 1.433 . S
C595 N598 1.384 . S
C596 H587 0.929 . S
C596 C588 1.378 . S
C596 C591 1.350 . S
C597 H584 0.929 . S
C597 C589 1.433 . S
C597 N599 1.384 . S
N598 C594 1.427 . S
N598 C595 1.384 . S
N599 C591 1.427 . S
N599 C597 1.384 . S
H600 C606 0.930 . S
H601 C610 0.930 . S
H602 C615 0.929 . S
H603 C613 0.929 . S
H604 C608 0.929 . S
H605 C614 0.929 . S
C606 H600 0.930 . S
C606 C607 1.367 . S
C606 C614 1.378 . S
C607 C606 1.367 . S
C607 C615 1.433 . S
C608 H604 0.929 . S
C608 C610 1.378 . S
C608 C612 1.350 . S
C609 C612 1.463 . S
C609 C614 1.350 . S
C609 N617 1.427 . S
C610 H601 0.930 . S
C610 C608 1.378 . S
C610 C611 1.367 . S
C611 C610 1.367 . S
C611 C613 1.433 . S
C612 C608 1.350 . S
C612 C609 1.463 . S
C612 N616 1.427 . S
C613 H603 0.929 . S
C613 C611 1.433 . S
C613 N616 1.384 . S
C614 H605 0.929 . S
C614 C606 1.378 . S
C614 C609 1.350 . S
C615 H602 0.929 . S
C615 C607 1.433 . S
C615 N617 1.384 . S
N616 C612 1.427 . S
N616 C613 1.384 . S
N617 C609 1.427 . S
N617 C615 1.384 . S
H618 C624 0.930 . S
H619 C628 0.930 . S
H620 C633 0.929 . S
H621 C631 0.929 . S
H622 C626 0.929 . S
H623 C632 0.929 . S
C624 H618 0.930 . S
C624 C625 1.367 . S
C624 C632 1.378 . S
C625 C624 1.367 . S
C625 C633 1.433 . S
C626 H622 0.929 . S
C626 C628 1.378 . S
C626 C630 1.350 . S
C627 C630 1.463 . S
C627 C632 1.350 . S
C627 N635 1.427 . S
C628 H619 0.930 . S
C628 C626 1.378 . S
C628 C629 1.367 . S
C629 C628 1.367 . S
C629 C631 1.433 . S
C630 C626 1.350 . S
C630 C627 1.463 . S
C630 N634 1.427 . S
C631 H621 0.929 . S
C631 C629 1.433 . S
C631 N634 1.384 . S
C632 H623 0.929 . S
C632 C624 1.378 . S
C632 C627 1.350 . S
C633 H620 0.929 . S
C633 C625 1.433 . S
C633 N635 1.384 . S
N634 C630 1.427 . S
N634 C631 1.384 . S
N635 C627 1.427 . S
N635 C633 1.384 . S
H636 C642 0.930 . S
H637 C646 0.930 . S
H638 C651 0.929 . S
H639 C649 0.929 . S
H640 C644 0.929 . S
H641 C650 0.929 . S
C642 H636 0.930 . S
C642 C643 1.367 . S
C642 C650 1.378 . S
C643 C642 1.367 . S
C643 C651 1.433 . S
C644 H640 0.929 . S
C644 C646 1.378 . S
C644 C648 1.350 . S
C645 C648 1.463 . S
C645 C650 1.350 . S
C645 N653 1.427 . S
C646 H637 0.930 . S
C646 C644 1.378 . S
C646 C647 1.367 . S
C647 C646 1.367 . S
C647 C649 1.433 . S
C648 C644 1.350 . S
C648 C645 1.463 . S
C648 N652 1.427 . S
C649 H639 0.929 . S
C649 C647 1.433 . S
C649 N652 1.384 . S
C650 H641 0.929 . S
C650 C642 1.378 . S
C650 C645 1.350 . S
C651 H638 0.929 . S
C651 C643 1.433 . S
C651 N653 1.384 . S
N652 C648 1.427 . S
N652 C649 1.384 . S
N653 C645 1.427 . S
N653 C651 1.384 . S
H654 C660 0.930 . S
H655 C664 0.930 . S
H656 C669 0.929 . S
H657 C667 0.929 . S
H658 C662 0.929 . S
H659 C668 0.929 . S
C660 H654 0.930 . S
C660 C661 1.367 . S
C660 C668 1.378 . S
C661 C660 1.367 . S
C661 C669 1.433 . S
C662 H658 0.929 . S
C662 C664 1.378 . S
C662 C666 1.350 . S
C663 C666 1.463 . S
C663 C668 1.350 . S
C663 N671 1.427 . S
C664 H655 0.930 . S
C664 C662 1.378 . S
C664 C665 1.367 . S
C665 C664 1.367 . S
C665 C667 1.433 . S
C666 C662 1.350 . S
C666 C663 1.463 . S
C666 N670 1.427 . S
C667 H657 0.929 . S
C667 C665 1.433 . S
C667 N670 1.384 . S
C668 H659 0.929 . S
C668 C660 1.378 . S
C668 C663 1.350 . S
C669 H656 0.929 . S
C669 C661 1.433 . S
C669 N671 1.384 . S
N670 C666 1.427 . S
N670 C667 1.384 . S
N671 C663 1.427 . S
N671 C669 1.384 . S
H672 C678 0.930 . S
H673 C682 0.930 . S
H674 C687 0.929 . S
H675 C685 0.929 . S
H676 C680 0.929 . S
H677 C686 0.929 . S
C678 H672 0.930 . S
C678 C679 1.367 . S
C678 C686 1.378 . S
C679 C678 1.367 . S
C679 C687 1.433 . S
C680 H676 0.929 . S
C680 C682 1.378 . S
C680 C684 1.350 . S
C681 C684 1.463 . S
C681 C686 1.350 . S
C681 N689 1.427 . S
C682 H673 0.930 . S
C682 C680 1.378 . S
C682 C683 1.367 . S
C683 C682 1.367 . S
C683 C685 1.433 . S
C684 C680 1.350 . S
C684 C681 1.463 . S
C684 N688 1.427 . S
C685 H675 0.929 . S
C685 C683 1.433 . S
C685 N688 1.384 . S
C686 H677 0.929 . S
C686 C678 1.378 . S
C686 C681 1.350 . S
C687 H674 0.929 . S
C687 C679 1.433 . S
C687 N689 1.384 . S
N688 C684 1.427 . S
N688 C685 1.384 . S
N689 C681 1.427 . S
N689 C687 1.384 . S
H690 C696 0.930 . S
H691 C700 0.930 . S
H692 C705 0.929 . S
H693 C703 0.929 . S
H694 C698 0.929 . S
H695 C704 0.929 . S
C696 H690 0.930 . S
C696 C697 1.367 . S
C696 C704 1.378 . S
C697 C696 1.367 . S
C697 C705 1.433 . S
C698 H694 0.929 . S
C698 C700 1.378 . S
C698 C702 1.350 . S
C699 C702 1.463 . S
C699 C704 1.350 . S
C699 N707 1.427 . S
C700 H691 0.930 . S
C700 C698 1.378 . S
C700 C701 1.367 . S
C701 C700 1.367 . S
C701 C703 1.433 . S
C702 C698 1.350 . S
C702 C699 1.463 . S
C702 N706 1.427 . S
C703 H693 0.929 . S
C703 C701 1.433 . S
C703 N706 1.384 . S
C704 H695 0.929 . S
C704 C696 1.378 . S
C704 C699 1.350 . S
C705 H692 0.929 . S
C705 C697 1.433 . S
C705 N707 1.384 . S
N706 C702 1.427 . S
N706 C703 1.384 . S
N707 C699 1.427 . S
N707 C705 1.384 . S
H708 C714 0.930 . S
H709 C718 0.930 . S
H710 C723 0.929 . S
H711 C721 0.929 . S
H712 C716 0.929 . S
H713 C722 0.929 . S
C714 H708 0.930 . S
C714 C715 1.367 . S
C714 C722 1.378 . S
C715 C714 1.367 . S
C715 C723 1.433 . S
C716 H712 0.929 . S
C716 C718 1.378 . S
C716 C720 1.350 . S
C717 C720 1.463 . S
C717 C722 1.350 . S
C717 N725 1.427 . S
C718 H709 0.930 . S
C718 C716 1.378 . S
C718 C719 1.367 . S
C719 C718 1.367 . S
C719 C721 1.433 . S
C720 C716 1.350 . S
C720 C717 1.463 . S
C720 N724 1.427 . S
C721 H711 0.929 . S
C721 C719 1.433 . S
C721 N724 1.384 . S
C722 H713 0.929 . S
C722 C714 1.378 . S
C722 C717 1.350 . S
C723 H710 0.929 . S
C723 C715 1.433 . S
C723 N725 1.384 . S
N724 C720 1.427 . S
N724 C721 1.384 . S
N725 C717 1.427 . S
N725 C723 1.384 . S
H726 C732 0.930 . S
H727 C736 0.930 . S
H728 C741 0.929 . S
H729 C739 0.929 . S
H730 C734 0.929 . S
H731 C740 0.929 . S
C732 H726 0.930 . S
C732 C733 1.367 . S
C732 C740 1.378 . S
C733 C732 1.367 . S
C733 C741 1.433 . S
C734 H730 0.929 . S
C734 C736 1.378 . S
C734 C738 1.350 . S
C735 C738 1.463 . S
C735 C740 1.350 . S
C735 N743 1.427 . S
C736 H727 0.930 . S
C736 C734 1.378 . S
C736 C737 1.367 . S
C737 C736 1.367 . S
C737 C739 1.433 . S
C738 C734 1.350 . S
C738 C735 1.463 . S
C738 N742 1.427 . S
C739 H729 0.929 . S
C739 C737 1.433 . S
C739 N742 1.384 . S
C740 H731 0.929 . S
C740 C732 1.378 . S
C740 C735 1.350 . S
C741 H728 0.929 . S
C741 C733 1.433 . S
C741 N743 1.384 . S
N742 C738 1.427 . S
N742 C739 1.384 . S
N743 C735 1.427 . S
N743 C741 1.384 . S
H744 C750 0.930 . S
H745 C754 0.930 . S
H746 C759 0.929 . S
H747 C757 0.929 . S
H748 C752 0.929 . S
H749 C758 0.929 . S
C750 H744 0.930 . S
C750 C751 1.367 . S
C750 C758 1.378 . S
C751 C750 1.367 . S
C751 C759 1.433 . S
C752 H748 0.929 . S
C752 C754 1.378 . S
C752 C756 1.350 . S
C753 C756 1.463 . S
C753 C758 1.350 . S
C753 N761 1.427 . S
C754 H745 0.930 . S
C754 C752 1.378 . S
C754 C755 1.367 . S
C755 C754 1.367 . S
C755 C757 1.433 . S
C756 C752 1.350 . S
C756 C753 1.463 . S
C756 N760 1.427 . S
C757 H747 0.929 . S
C757 C755 1.433 . S
C757 N760 1.384 . S
C758 H749 0.929 . S
C758 C750 1.378 . S
C758 C753 1.350 . S
C759 H746 0.929 . S
C759 C751 1.433 . S
C759 N761 1.384 . S
N760 C756 1.427 . S
N760 C757 1.384 . S
N761 C753 1.427 . S
N761 C759 1.384 . S
H762 C768 0.930 . S
H763 C772 0.930 . S
H764 C777 0.929 . S
H765 C775 0.929 . S
H766 C770 0.929 . S
H767 C776 0.929 . S
C768 H762 0.930 . S
C768 C769 1.367 . S
C768 C776 1.378 . S
C769 C768 1.367 . S
C769 C777 1.433 . S
C770 H766 0.929 . S
C770 C772 1.378 . S
C770 C774 1.350 . S
C771 C774 1.463 . S
C771 C776 1.350 . S
C771 N779 1.427 . S
C772 H763 0.930 . S
C772 C770 1.378 . S
C772 C773 1.367 . S
C773 C772 1.367 . S
C773 C775 1.433 . S
C774 C770 1.350 . S
C774 C771 1.463 . S
C774 N778 1.427 . S
C775 H765 0.929 . S
C775 C773 1.433 . S
C775 N778 1.384 . S
C776 H767 0.929 . S
C776 C768 1.378 . S
C776 C771 1.350 . S
C777 H764 0.929 . S
C777 C769 1.433 . S
C777 N779 1.384 . S
N778 C774 1.427 . S
N778 C775 1.384 . S
N779 C771 1.427 . S
N779 C777 1.384 . S
H780 C786 0.930 . S
H781 C790 0.930 . S
H782 C795 0.929 . S
H783 C793 0.929 . S
H784 C788 0.929 . S
H785 C794 0.929 . S
C786 H780 0.930 . S
C786 C787 1.367 . S
C786 C794 1.378 . S
C787 C786 1.367 . S
C787 C795 1.433 . S
C788 H784 0.929 . S
C788 C790 1.378 . S
C788 C792 1.350 . S
C789 C792 1.463 . S
C789 C794 1.350 . S
C789 N797 1.427 . S
C790 H781 0.930 . S
C790 C788 1.378 . S
C790 C791 1.367 . S
C791 C790 1.367 . S
C791 C793 1.433 . S
C792 C788 1.350 . S
C792 C789 1.463 . S
C792 N796 1.427 . S
C793 H783 0.929 . S
C793 C791 1.433 . S
C793 N796 1.384 . S
C794 H785 0.929 . S
C794 C786 1.378 . S
C794 C789 1.350 . S
C795 H782 0.929 . S
C795 C787 1.433 . S
C795 N797 1.384 . S
N796 C792 1.427 . S
N796 C793 1.384 . S
N797 C789 1.427 . S
N797 C795 1.384 . S
H798 C804 0.930 . S
H799 C808 0.930 . S
H800 C813 0.929 . S
H801 C811 0.929 . S
H802 C806 0.929 . S
H803 C812 0.929 . S
C804 H798 0.930 . S
C804 C805 1.367 . S
C804 C812 1.378 . S
C805 C804 1.367 . S
C805 C813 1.433 . S
C806 H802 0.929 . S
C806 C808 1.378 . S
C806 C810 1.350 . S
C807 C810 1.463 . S
C807 C812 1.350 . S
C807 N815 1.427 . S
C808 H799 0.930 . S
C808 C806 1.378 . S
C808 C809 1.367 . S
C809 C808 1.367 . S
C809 C811 1.433 . S
C810 C806 1.350 . S
C810 C807 1.463 . S
C810 N814 1.427 . S
C811 H801 0.929 . S
C811 C809 1.433 . S
C811 N814 1.384 . S
C812 H803 0.929 . S
C812 C804 1.378 . S
C812 C807 1.350 . S
C813 H800 0.929 . S
C813 C805 1.433 . S
C813 N815 1.384 . S
N814 C810 1.427 . S
N814 C811 1.384 . S
N815 C807 1.427 . S
N815 C813 1.384 . S
H816 C822 0.930 . S
H817 C826 0.930 . S
H818 C831 0.929 . S
H819 C829 0.929 . S
H820 C824 0.929 . S
H821 C830 0.929 . S
C822 H816 0.930 . S
C822 C823 1.367 . S
C822 C830 1.378 . S
C823 C822 1.367 . S
C823 C831 1.433 . S
C824 H820 0.929 . S
C824 C826 1.378 . S
C824 C828 1.350 . S
C825 C828 1.463 . S
C825 C830 1.350 . S
C825 N833 1.427 . S
C826 H817 0.930 . S
C826 C824 1.378 . S
C826 C827 1.367 . S
C827 C826 1.367 . S
C827 C829 1.433 . S
C828 C824 1.350 . S
C828 C825 1.463 . S
C828 N832 1.427 . S
C829 H819 0.929 . S
C829 C827 1.433 . S
C829 N832 1.384 . S
C830 H821 0.929 . S
C830 C822 1.378 . S
C830 C825 1.350 . S
C831 H818 0.929 . S
C831 C823 1.433 . S
C831 N833 1.384 . S
N832 C828 1.427 . S
N832 C829 1.384 . S
N833 C825 1.427 . S
N833 C831 1.384 . S
H834 C840 0.930 . S
H835 C844 0.930 . S
H836 C849 0.929 . S
H837 C847 0.929 . S
H838 C842 0.929 . S
H839 C848 0.929 . S
C840 H834 0.930 . S
C840 C841 1.367 . S
C840 C848 1.378 . S
C841 C840 1.367 . S
C841 C849 1.433 . S
C842 H838 0.929 . S
C842 C844 1.378 . S
C842 C846 1.350 . S
C843 C846 1.463 . S
C843 C848 1.350 . S
C843 N851 1.427 . S
C844 H835 0.930 . S
C844 C842 1.378 . S
C844 C845 1.367 . S
C845 C844 1.367 . S
C845 C847 1.433 . S
C846 C842 1.350 . S
C846 C843 1.463 . S
C846 N850 1.427 . S
C847 H837 0.929 . S
C847 C845 1.433 . S
C847 N850 1.384 . S
C848 H839 0.929 . S
C848 C840 1.378 . S
C848 C843 1.350 . S
C849 H836 0.929 . S
C849 C841 1.433 . S
C849 N851 1.384 . S
N850 C846 1.427 . S
N850 C847 1.384 . S
N851 C843 1.427 . S
N851 C849 1.384 . S
H852 C858 0.930 . S
H853 C862 0.930 . S
H854 C867 0.929 . S
H855 C865 0.929 . S
H856 C860 0.929 . S
H857 C866 0.929 . S
C858 H852 0.930 . S
C858 C859 1.367 . S
C858 C866 1.378 . S
C859 C858 1.367 . S
C859 C867 1.433 . S
C860 H856 0.929 . S
C860 C862 1.378 . S
C860 C864 1.350 . S
C861 C864 1.463 . S
C861 C866 1.350 . S
C861 N869 1.427 . S
C862 H853 0.930 . S
C862 C860 1.378 . S
C862 C863 1.367 . S
C863 C862 1.367 . S
C863 C865 1.433 . S
C864 C860 1.350 . S
C864 C861 1.463 . S
C864 N868 1.427 . S
C865 H855 0.929 . S
C865 C863 1.433 . S
C865 N868 1.384 . S
C866 H857 0.929 . S
C866 C858 1.378 . S
C866 C861 1.350 . S
C867 H854 0.929 . S
C867 C859 1.433 . S
C867 N869 1.384 . S
N868 C864 1.427 . S
N868 C865 1.384 . S
N869 C861 1.427 . S
N869 C867 1.384 . S
H870 C876 0.930 . S
H871 C880 0.930 . S
H872 C885 0.929 . S
H873 C883 0.929 . S
H874 C878 0.929 . S
H875 C884 0.929 . S
C876 H870 0.930 . S
C876 C877 1.367 . S
C876 C884 1.378 . S
C877 C876 1.367 . S
C877 C885 1.433 . S
C878 H874 0.929 . S
C878 C880 1.378 . S
C878 C882 1.350 . S
C879 C882 1.463 . S
C879 C884 1.350 . S
C879 N887 1.427 . S
C880 H871 0.930 . S
C880 C878 1.378 . S
C880 C881 1.367 . S
C881 C880 1.367 . S
C881 C883 1.433 . S
C882 C878 1.350 . S
C882 C879 1.463 . S
C882 N886 1.427 . S
C883 H873 0.929 . S
C883 C881 1.433 . S
C883 N886 1.384 . S
C884 H875 0.929 . S
C884 C876 1.378 . S
C884 C879 1.350 . S
C885 H872 0.929 . S
C885 C877 1.433 . S
C885 N887 1.384 . S
N886 C882 1.427 . S
N886 C883 1.384 . S
N887 C879 1.427 . S
N887 C885 1.384 . S
H888 C894 0.930 . S
H889 C898 0.930 . S
H890 C903 0.929 . S
H891 C901 0.929 . S
H892 C896 0.929 . S
H893 C902 0.929 . S
C894 H888 0.930 . S
C894 C895 1.367 . S
C894 C902 1.378 . S
C895 C894 1.367 . S
C895 C903 1.433 . S
C896 H892 0.929 . S
C896 C898 1.378 . S
C896 C900 1.350 . S
C897 C900 1.463 . S
C897 C902 1.350 . S
C897 N905 1.427 . S
C898 H889 0.930 . S
C898 C896 1.378 . S
C898 C899 1.367 . S
C899 C898 1.367 . S
C899 C901 1.433 . S
C900 C896 1.350 . S
C900 C897 1.463 . S
C900 N904 1.427 . S
C901 H891 0.929 . S
C901 C899 1.433 . S
C901 N904 1.384 . S
C902 H893 0.929 . S
C902 C894 1.378 . S
C902 C897 1.350 . S
C903 H890 0.929 . S
C903 C895 1.433 . S
C903 N905 1.384 . S
N904 C900 1.427 . S
N904 C901 1.384 . S
N905 C897 1.427 . S
N905 C903 1.384 . S
H906 C912 0.930 . S
H907 C916 0.930 . S
H908 C921 0.929 . S
H909 C919 0.929 . S
H910 C914 0.929 . S
H911 C920 0.929 . S
C912 H906 0.930 . S
C912 C913 1.367 . S
C912 C920 1.378 . S
C913 C912 1.367 . S
C913 C921 1.433 . S
C914 H910 0.929 . S
C914 C916 1.378 . S
C914 C918 1.350 . S
C915 C918 1.463 . S
C915 C920 1.350 . S
C915 N923 1.427 . S
C916 H907 0.930 . S
C916 C914 1.378 . S
C916 C917 1.367 . S
C917 C916 1.367 . S
C917 C919 1.433 . S
C918 C914 1.350 . S
C918 C915 1.463 . S
C918 N922 1.427 . S
C919 H909 0.929 . S
C919 C917 1.433 . S
C919 N922 1.384 . S
C920 H911 0.929 . S
C920 C912 1.378 . S
C920 C915 1.350 . S
C921 H908 0.929 . S
C921 C913 1.433 . S
C921 N923 1.384 . S
N922 C918 1.427 . S
N922 C919 1.384 . S
N923 C915 1.427 . S
N923 C921 1.384 . S
H924 C930 0.930 . S
H925 C934 0.930 . S
H926 C939 0.929 . S
H927 C937 0.929 . S
H928 C932 0.929 . S
H929 C938 0.929 . S
C930 H924 0.930 . S
C930 C931 1.367 . S
C930 C938 1.378 . S
C931 C930 1.367 . S
C931 C939 1.433 . S
C932 H928 0.929 . S
C932 C934 1.378 . S
C932 C936 1.350 . S
C933 C936 1.463 . S
C933 C938 1.350 . S
C933 N941 1.427 . S
C934 H925 0.930 . S
C934 C932 1.378 . S
C934 C935 1.367 . S
C935 C934 1.367 . S
C935 C937 1.433 . S
C936 C932 1.350 . S
C936 C933 1.463 . S
C936 N940 1.427 . S
C937 H927 0.929 . S
C937 C935 1.433 . S
C937 N940 1.384 . S
C938 H929 0.929 . S
C938 C930 1.378 . S
C938 C933 1.350 . S
C939 H926 0.929 . S
C939 C931 1.433 . S
C939 N941 1.384 . S
N940 C936 1.427 . S
N940 C937 1.384 . S
N941 C933 1.427 . S
N941 C939 1.384 . S
H942 C948 0.930 . S
H943 C952 0.930 . S
H944 C957 0.929 . S
H945 C955 0.929 . S
H946 C950 0.929 . S
H947 C956 0.929 . S
C948 H942 0.930 . S
C948 C949 1.367 . S
C948 C956 1.378 . S
C949 C948 1.367 . S
C949 C957 1.433 . S
C950 H946 0.929 . S
C950 C952 1.378 . S
C950 C954 1.350 . S
C951 C954 1.463 . S
C951 C956 1.350 . S
C951 N959 1.427 . S
C952 H943 0.930 . S
C952 C950 1.378 . S
C952 C953 1.367 . S
C953 C952 1.367 . S
C953 C955 1.433 . S
C954 C950 1.350 . S
C954 C951 1.463 . S
C954 N958 1.427 . S
C955 H945 0.929 . S
C955 C953 1.433 . S
C955 N958 1.384 . S
C956 H947 0.929 . S
C956 C948 1.378 . S
C956 C951 1.350 . S
C957 H944 0.929 . S
C957 C949 1.433 . S
C957 N959 1.384 . S
N958 C954 1.427 . S
N958 C955 1.384 . S
N959 C951 1.427 . S
N959 C957 1.384 . S
H960 C966 0.930 . S
H961 C970 0.930 . S
H962 C975 0.929 . S
H963 C973 0.929 . S
H964 C968 0.929 . S
H965 C974 0.929 . S
C966 H960 0.930 . S
C966 C967 1.367 . S
C966 C974 1.378 . S
C967 C966 1.367 . S
C967 C975 1.433 . S
C968 H964 0.929 . S
C968 C970 1.378 . S
C968 C972 1.350 . S
C969 C972 1.463 . S
C969 C974 1.350 . S
C969 N977 1.427 . S
C970 H961 0.930 . S
C970 C968 1.378 . S
C970 C971 1.367 . S
C971 C970 1.367 . S
C971 C973 1.433 . S
C972 C968 1.350 . S
C972 C969 1.463 . S
C972 N976 1.427 . S
C973 H963 0.929 . S
C973 C971 1.433 . S
C973 N976 1.384 . S
C974 H965 0.929 . S
C974 C966 1.378 . S
C974 C969 1.350 . S
C975 H962 0.929 . S
C975 C967 1.433 . S
C975 N977 1.384 . S
N976 C972 1.427 . S
N976 C973 1.384 . S
N977 C969 1.427 . S
N977 C975 1.384 . S
H978 C984 0.930 . S
H979 C988 0.930 . S
H980 C993 0.929 . S
H981 C991 0.929 . S
H982 C986 0.929 . S
H983 C992 0.929 . S
C984 H978 0.930 . S
C984 C985 1.367 . S
C984 C992 1.378 . S
C985 C984 1.367 . S
C985 C993 1.433 . S
C986 H982 0.929 . S
C986 C988 1.378 . S
C986 C990 1.350 . S
C987 C990 1.463 . S
C987 C992 1.350 . S
C987 N995 1.427 . S
C988 H979 0.930 . S
C988 C986 1.378 . S
C988 C989 1.367 . S
C989 C988 1.367 . S
C989 C991 1.433 . S
C990 C986 1.350 . S
C990 C987 1.463 . S
C990 N994 1.427 . S
C991 H981 0.929 . S
C991 C989 1.433 . S
C991 N994 1.384 . S
C992 H983 0.929 . S
C992 C984 1.378 . S
C992 C987 1.350 . S
C993 H980 0.929 . S
C993 C985 1.433 . S
C993 N995 1.384 . S
N994 C990 1.427 . S
N994 C991 1.384 . S
N995 C987 1.427 . S
N995 C993 1.384 . S
H996 C1002 0.930 . S
H997 C1006 0.930 . S
H998 C1011 0.929 . S
H999 C1009 0.929 . S
H1000 C1004 0.929 . S
H1001 C1010 0.929 . S
C1002 H996 0.930 . S
C1002 C1003 1.367 . S
C1002 C1010 1.378 . S
C1003 C1002 1.367 . S
C1003 C1011 1.433 . S
C1004 H1000 0.929 . S
C1004 C1006 1.378 . S
C1004 C1008 1.350 . S
C1005 C1008 1.463 . S
C1005 C1010 1.350 . S
C1005 N1013 1.427 . S
C1006 H997 0.930 . S
C1006 C1004 1.378 . S
C1006 C1007 1.367 . S
C1007 C1006 1.367 . S
C1007 C1009 1.433 . S
C1008 C1004 1.350 . S
C1008 C1005 1.463 . S
C1008 N1012 1.427 . S
C1009 H999 0.929 . S
C1009 C1007 1.433 . S
C1009 N1012 1.384 . S
C1010 H1001 0.929 . S
C1010 C1002 1.378 . S
C1010 C1005 1.350 . S
C1011 H998 0.929 . S
C1011 C1003 1.433 . S
C1011 N1013 1.384 . S
N1012 C1008 1.427 . S
N1012 C1009 1.384 . S
N1013 C1005 1.427 . S
N1013 C1011 1.384 . S
H1014 C1020 0.930 . S
H1015 C1024 0.930 . S
H1016 C1029 0.929 . S
H1017 C1027 0.929 . S
H1018 C1022 0.929 . S
H1019 C1028 0.929 . S
C1020 H1014 0.930 . S
C1020 C1021 1.367 . S
C1020 C1028 1.378 . S
C1021 C1020 1.367 . S
C1021 C1029 1.433 . S
C1022 H1018 0.929 . S
C1022 C1024 1.378 . S
C1022 C1026 1.350 . S
C1023 C1026 1.463 . S
C1023 C1028 1.350 . S
C1023 N1031 1.427 . S
C1024 H1015 0.930 . S
C1024 C1022 1.378 . S
C1024 C1025 1.367 . S
C1025 C1024 1.367 . S
C1025 C1027 1.433 . S
C1026 C1022 1.350 . S
C1026 C1023 1.463 . S
C1026 N1030 1.427 . S
C1027 H1017 0.929 . S
C1027 C1025 1.433 . S
C1027 N1030 1.384 . S
C1028 H1019 0.929 . S
C1028 C1020 1.378 . S
C1028 C1023 1.350 . S
C1029 H1016 0.929 . S
C1029 C1021 1.433 . S
C1029 N1031 1.384 . S
N1030 C1026 1.427 . S
N1030 C1027 1.384 . S
N1031 C1023 1.427 . S
N1031 C1029 1.384 . S
H1032 C1038 0.930 . S
H1033 C1042 0.930 . S
H1034 C1047 0.929 . S
H1035 C1045 0.929 . S
H1036 C1040 0.929 . S
H1037 C1046 0.929 . S
C1038 H1032 0.930 . S
C1038 C1039 1.367 . S
C1038 C1046 1.378 . S
C1039 C1038 1.367 . S
C1039 C1047 1.433 . S
C1040 H1036 0.929 . S
C1040 C1042 1.378 . S
C1040 C1044 1.350 . S
C1041 C1044 1.463 . S
C1041 C1046 1.350 . S
C1041 N1049 1.427 . S
C1042 H1033 0.930 . S
C1042 C1040 1.378 . S
C1042 C1043 1.367 . S
C1043 C1042 1.367 . S
C1043 C1045 1.433 . S
C1044 C1040 1.350 . S
C1044 C1041 1.463 . S
C1044 N1048 1.427 . S
C1045 H1035 0.929 . S
C1045 C1043 1.433 . S
C1045 N1048 1.384 . S
C1046 H1037 0.929 . S
C1046 C1038 1.378 . S
C1046 C1041 1.350 . S
C1047 H1034 0.929 . S
C1047 C1039 1.433 . S
C1047 N1049 1.384 . S
N1048 C1044 1.427 . S
N1048 C1045 1.384 . S
N1049 C1041 1.427 . S
N1049 C1047 1.384 . S
H1050 C1056 0.930 . S
H1051 C1060 0.930 . S
H1052 C1065 0.929 . S
H1053 C1063 0.929 . S
H1054 C1058 0.929 . S
H1055 C1064 0.929 . S
C1056 H1050 0.930 . S
C1056 C1057 1.367 . S
C1056 C1064 1.378 . S
C1057 C1056 1.367 . S
C1057 C1065 1.433 . S
C1058 H1054 0.929 . S
C1058 C1060 1.378 . S
C1058 C1062 1.350 . S
C1059 C1062 1.463 . S
C1059 C1064 1.350 . S
C1059 N1067 1.427 . S
C1060 H1051 0.930 . S
C1060 C1058 1.378 . S
C1060 C1061 1.367 . S
C1061 C1060 1.367 . S
C1061 C1063 1.433 . S
C1062 C1058 1.350 . S
C1062 C1059 1.463 . S
C1062 N1066 1.427 . S
C1063 H1053 0.929 . S
C1063 C1061 1.433 . S
C1063 N1066 1.384 . S
C1064 H1055 0.929 . S
C1064 C1056 1.378 . S
C1064 C1059 1.350 . S
C1065 H1052 0.929 . S
C1065 C1057 1.433 . S
C1065 N1067 1.384 . S
N1066 C1062 1.427 . S
N1066 C1063 1.384 . S
N1067 C1059 1.427 . S
N1067 C1065 1.384 . S
H1068 C1074 0.930 . S
H1069 C1078 0.930 . S
H1070 C1083 0.929 . S
H1071 C1081 0.929 . S
H1072 C1076 0.929 . S
H1073 C1082 0.929 . S
C1074 H1068 0.930 . S
C1074 C1075 1.367 . S
C1074 C1082 1.378 . S
C1075 C1074 1.367 . S
C1075 C1083 1.433 . S
C1076 H1072 0.929 . S
C1076 C1078 1.378 . S
C1076 C1080 1.350 . S
C1077 C1080 1.463 . S
C1077 C1082 1.350 . S
C1077 N1085 1.427 . S
C1078 H1069 0.930 . S
C1078 C1076 1.378 . S
C1078 C1079 1.367 . S
C1079 C1078 1.367 . S
C1079 C1081 1.433 . S
C1080 C1076 1.350 . S
C1080 C1077 1.463 . S
C1080 N1084 1.427 . S
C1081 H1071 0.929 . S
C1081 C1079 1.433 . S
C1081 N1084 1.384 . S
C1082 H1073 0.929 . S
C1082 C1074 1.378 . S
C1082 C1077 1.350 . S
C1083 H1070 0.929 . S
C1083 C1075 1.433 . S
C1083 N1085 1.384 . S
N1084 C1080 1.427 . S
N1084 C1081 1.384 . S
N1085 C1077 1.427 . S
N1085 C1083 1.384 . S
H1086 C1092 0.930 . S
H1087 C1096 0.930 . S
H1088 C1101 0.929 . S
H1089 C1099 0.929 . S
H1090 C1094 0.929 . S
H1091 C1100 0.929 . S
C1092 H1086 0.930 . S
C1092 C1093 1.367 . S
C1092 C1100 1.378 . S
C1093 C1092 1.367 . S
C1093 C1101 1.433 . S
C1094 H1090 0.929 . S
C1094 C1096 1.378 . S
C1094 C1098 1.350 . S
C1095 C1098 1.463 . S
C1095 C1100 1.350 . S
C1095 N1103 1.427 . S
C1096 H1087 0.930 . S
C1096 C1094 1.378 . S
C1096 C1097 1.367 . S
C1097 C1096 1.367 . S
C1097 C1099 1.433 . S
C1098 C1094 1.350 . S
C1098 C1095 1.463 . S
C1098 N1102 1.427 . S
C1099 H1089 0.929 . S
C1099 C1097 1.433 . S
C1099 N1102 1.384 . S
C1100 H1091 0.929 . S
C1100 C1092 1.378 . S
C1100 C1095 1.350 . S
C1101 H1088 0.929 . S
C1101 C1093 1.433 . S
C1101 N1103 1.384 . S
N1102 C1098 1.427 . S
N1102 C1099 1.384 . S
N1103 C1095 1.427 . S
N1103 C1101 1.384 . S
H1104 C1110 0.930 . S
H1105 C1114 0.930 . S
H1106 C1119 0.929 . S
H1107 C1117 0.929 . S
H1108 C1112 0.929 . S
H1109 C1118 0.929 . S
C1110 H1104 0.930 . S
C1110 C1111 1.367 . S
C1110 C1118 1.378 . S
C1111 C1110 1.367 . S
C1111 C1119 1.433 . S
C1112 H1108 0.929 . S
C1112 C1114 1.378 . S
C1112 C1116 1.350 . S
C1113 C1116 1.463 1_655 S
C1113 C1118 1.350 . S
C1113 N1121 1.427 . S
C1114 H1105 0.930 . S
C1114 C1112 1.378 . S
C1114 C1115 1.367 . S
C1115 C1114 1.367 . S
C1115 C1117 1.433 . S
C1116 C1112 1.350 . S
C1116 C1113 1.463 1_455 S
C1116 N1120 1.427 . S
C1117 H1107 0.929 . S
C1117 C1115 1.433 . S
C1117 N1120 1.384 . S
C1118 H1109 0.929 . S
C1118 C1110 1.378 . S
C1118 C1113 1.350 . S
C1119 H1106 0.929 . S
C1119 C1111 1.433 . S
C1119 N1121 1.384 . S
N1120 C1116 1.427 . S
N1120 C1117 1.384 . S
N1121 C1113 1.427 . S
N1121 C1119 1.384 . S
H1122 C1128 0.930 . S
H1123 C1132 0.930 . S
H1124 C1137 0.929 . S
H1125 C1135 0.929 . S
H1126 C1130 0.929 1_565 S
H1127 C1136 0.929 1_545 S
C1128 H1122 0.930 . S
C1128 C1129 1.367 . S
C1128 C1136 1.378 . S
C1129 C1128 1.367 . S
C1129 C1137 1.433 . S
C1130 H1126 0.929 1_545 S
C1130 C1132 1.378 . S
C1130 C1134 1.350 . S
C1131 C1134 1.463 1_565 S
C1131 C1136 1.350 . S
C1131 N1139 1.427 . S
C1132 H1123 0.930 . S
C1132 C1130 1.378 . S
C1132 C1133 1.367 . S
C1133 C1132 1.367 . S
C1133 C1135 1.433 . S
C1134 C1130 1.350 . S
C1134 C1131 1.463 1_545 S
C1134 N1138 1.427 . S
C1135 H1125 0.929 . S
C1135 C1133 1.433 . S
C1135 N1138 1.384 . S
C1136 H1127 0.929 1_565 S
C1136 C1128 1.378 . S
C1136 C1131 1.350 . S
C1137 H1124 0.929 . S
C1137 C1129 1.433 . S
C1137 N1139 1.384 . S
N1138 C1134 1.427 . S
N1138 C1135 1.384 . S
N1139 C1131 1.427 . S
N1139 C1137 1.384 . S
H1140 C1146 0.930 . S
H1141 C1150 0.930 . S
H1142 C1155 0.929 . S
H1143 C1153 0.929 . S
H1144 C1148 0.929 . S
H1145 C1154 0.929 . S
C1146 H1140 0.930 . S
C1146 C1147 1.367 . S
C1146 C1154 1.378 . S
C1147 C1146 1.367 . S
C1147 C1155 1.433 . S
C1148 H1144 0.929 . S
C1148 C1150 1.378 . S
C1148 C1152 1.350 . S
C1149 C1152 1.463 1_545 S
C1149 C1154 1.350 . S
C1149 N1157 1.427 . S
C1150 H1141 0.930 . S
C1150 C1148 1.378 . S
C1150 C1151 1.367 . S
C1151 C1150 1.367 . S
C1151 C1153 1.433 . S
C1152 C1148 1.350 . S
C1152 C1149 1.463 1_565 S
C1152 N1156 1.427 . S
C1153 H1143 0.929 . S
C1153 C1151 1.433 . S
C1153 N1156 1.384 . S
C1154 H1145 0.929 . S
C1154 C1146 1.378 . S
C1154 C1149 1.350 . S
C1155 H1142 0.929 . S
C1155 C1147 1.433 . S
C1155 N1157 1.384 . S
N1156 C1152 1.427 . S
N1156 C1153 1.384 . S
N1157 C1149 1.427 . S
N1157 C1155 1.384 . S
H1158 C1164 0.930 . S
H1159 C1168 0.930 . S
H1160 C1173 0.929 . S
H1161 C1171 0.929 . S
H1162 C1166 0.929 . S
H1163 C1172 0.929 . S
C1164 H1158 0.930 . S
C1164 C1165 1.367 . S
C1164 C1172 1.378 . S
C1165 C1164 1.367 . S
C1165 C1173 1.433 . S
C1166 H1162 0.929 . S
C1166 C1168 1.378 . S
C1166 C1170 1.350 . S
C1167 C1170 1.463 1_655 S
C1167 C1172 1.350 . S
C1167 N1175 1.427 . S
C1168 H1159 0.930 . S
C1168 C1166 1.378 . S
C1168 C1169 1.367 . S
C1169 C1168 1.367 . S
C1169 C1171 1.433 . S
C1170 C1166 1.350 . S
C1170 C1167 1.463 1_455 S
C1170 N1174 1.427 . S
C1171 H1161 0.929 . S
C1171 C1169 1.433 . S
C1171 N1174 1.384 . S
C1172 H1163 0.929 . S
C1172 C1164 1.378 . S
C1172 C1167 1.350 . S
C1173 H1160 0.929 . S
C1173 C1165 1.433 . S
C1173 N1175 1.384 . S
N1174 C1170 1.427 . S
N1174 C1171 1.384 . S
N1175 C1167 1.427 . S
N1175 C1173 1.384 . S
H1176 C1182 0.930 . S
H1177 C1186 0.930 . S
H1178 C1191 0.929 . S
H1179 C1189 0.929 . S
H1180 C1184 0.929 . S
H1181 C1190 0.929 . S
C1182 H1176 0.930 . S
C1182 C1183 1.367 . S
C1182 C1190 1.378 . S
C1183 C1182 1.367 . S
C1183 C1191 1.433 . S
C1184 H1180 0.929 . S
C1184 C1186 1.378 . S
C1184 C1188 1.350 . S
C1185 C1188 1.463 1_655 S
C1185 C1190 1.350 . S
C1185 N1193 1.427 . S
C1186 H1177 0.930 . S
C1186 C1184 1.378 . S
C1186 C1187 1.367 . S
C1187 C1186 1.367 . S
C1187 C1189 1.433 . S
C1188 C1184 1.350 . S
C1188 C1185 1.463 1_455 S
C1188 N1192 1.427 . S
C1189 H1179 0.929 . S
C1189 C1187 1.433 . S
C1189 N1192 1.384 . S
C1190 H1181 0.929 . S
C1190 C1182 1.378 . S
C1190 C1185 1.350 . S
C1191 H1178 0.929 . S
C1191 C1183 1.433 . S
C1191 N1193 1.384 . S
N1192 C1188 1.427 . S
N1192 C1189 1.384 . S
N1193 C1185 1.427 . S
N1193 C1191 1.384 . S
H1194 C1200 0.930 . S
H1195 C1204 0.930 . S
H1196 C1209 0.929 . S
H1197 C1207 0.929 . S
H1198 C1202 0.937 . S
H1199 C1208 0.937 . S
C1200 H1194 0.930 . S
C1200 C1201 1.367 . S
C1200 C1208 1.373 1_545 S
C1201 C1200 1.367 . S
C1201 C1209 1.433 . S
C1202 H1198 0.937 . S
C1202 C1204 1.373 1_545 S
C1202 C1206 1.347 1_545 S
C1203 C1206 1.463 1_545 S
C1203 C1208 1.347 1_545 S
C1203 N1211 1.427 . S
C1204 H1195 0.930 . S
C1204 C1202 1.373 1_565 S
C1204 C1205 1.367 . S
C1205 C1204 1.367 . S
C1205 C1207 1.433 . S
C1206 C1202 1.347 1_565 S
C1206 C1203 1.463 1_565 S
C1206 N1210 1.427 . S
C1207 H1197 0.929 . S
C1207 C1205 1.433 . S
C1207 N1210 1.384 . S
C1208 H1199 0.937 . S
C1208 C1200 1.373 1_565 S
C1208 C1203 1.347 1_565 S
C1209 H1196 0.929 . S
C1209 C1201 1.433 . S
C1209 N1211 1.384 . S
N1210 C1206 1.427 . S
N1210 C1207 1.384 . S
N1211 C1203 1.427 . S
N1211 C1209 1.384 . S
H1212 C1218 0.930 . S
H1213 C1222 0.930 . S
H1214 C1227 0.929 . S
H1215 C1225 0.929 . S
H1216 C1220 0.929 . S
H1217 C1226 0.929 . S
C1218 H1212 0.930 . S
C1218 C1219 1.367 . S
C1218 C1226 1.378 . S
C1219 C1218 1.367 . S
C1219 C1227 1.433 . S
C1220 H1216 0.929 . S
C1220 C1222 1.378 . S
C1220 C1224 1.350 . S
C1221 C1224 1.463 1_565 S
C1221 C1226 1.350 . S
C1221 N1229 1.427 . S
C1222 H1213 0.930 . S
C1222 C1220 1.378 . S
C1222 C1223 1.367 . S
C1223 C1222 1.367 . S
C1223 C1225 1.433 . S
C1224 C1220 1.350 . S
C1224 C1221 1.463 1_545 S
C1224 N1228 1.427 . S
C1225 H1215 0.929 . S
C1225 C1223 1.433 . S
C1225 N1228 1.384 . S
C1226 H1217 0.929 . S
C1226 C1218 1.378 . S
C1226 C1221 1.350 . S
C1227 H1214 0.929 . S
C1227 C1219 1.433 . S
C1227 N1229 1.384 . S
N1228 C1224 1.427 . S
N1228 C1225 1.384 . S
N1229 C1221 1.427 . S
N1229 C1227 1.384 . S
H1230 C1236 0.930 . S
H1231 C1240 0.930 . S
H1232 C1245 0.929 . S
H1233 C1243 0.929 . S
H1234 C1238 0.929 . S
H1235 C1244 0.929 . S
C1236 H1230 0.930 . S
C1236 C1237 1.367 . S
C1236 C1244 1.378 . S
C1237 C1236 1.367 . S
C1237 C1245 1.433 . S
C1238 H1234 0.929 . S
C1238 C1240 1.378 . S
C1238 C1242 1.350 . S
C1239 C1242 1.463 1_655 S
C1239 C1244 1.350 . S
C1239 N1247 1.427 . S
C1240 H1231 0.930 . S
C1240 C1238 1.378 . S
C1240 C1241 1.367 . S
C1241 C1240 1.367 . S
C1241 C1243 1.433 . S
C1242 C1238 1.350 . S
C1242 C1239 1.463 1_455 S
C1242 N1246 1.427 . S
C1243 H1233 0.929 . S
C1243 C1241 1.433 . S
C1243 N1246 1.384 . S
C1244 H1235 0.929 . S
C1244 C1236 1.378 . S
C1244 C1239 1.350 . S
C1245 H1232 0.929 . S
C1245 C1237 1.433 . S
C1245 N1247 1.384 . S
N1246 C1242 1.427 . S
N1246 C1243 1.384 . S
N1247 C1239 1.427 . S
N1247 C1245 1.384 . S
C535 C358 1.348 . S
C539 C28 1.344 . S
C553 C391 1.342 . S
C557 C61 1.351 . S
C571 C292 1.344 . S
C575 C94 1.348 . S
C589 C325 1.349 . S
C593 C127 1.343 . S
C607 C160 1.349 . S
C611 C490 1.343 . S
C625 C193 1.350 . S
C629 C523 1.342 . S
C643 C424 1.345 . S
C647 C226 1.347 . S
C661 C457 1.343 . S
C665 C259 1.349 . S
C679 C116 1.547 . S
C683 N5 1.505 . S
C697 N38 1.498 . S
C701 C17 1.542 . S
C715 C50 1.536 . S
C719 N71 1.489 . S
C733 N104 1.491 . S
C737 C83 1.538 . S
C751 C182 1.536 . S
C755 N137 1.490 . S
C769 C215 1.546 . S
C773 N170 1.504 . S
C787 C248 1.536 . S
C791 N203 1.489 . S
C805 N236 1.499 . S
C809 C149 1.542 . S
C823 N269 1.493 . S
C827 C380 1.539 . S
C841 N302 1.491 . S
C845 C281 1.536 . S
C859 C314 1.546 . S
C863 N335 1.503 . S
C877 N368 1.497 . S
C881 C347 1.542 . S
C895 N401 1.489 . S
C899 C446 1.536 . S
C913 N434 1.505 . S
C917 C479 1.546 . S
C931 N467 1.491 . S
C935 C512 1.538 . S
C949 C413 1.545 . S
C953 N500 1.501 . S
C967 C239 0.888 . S
C971 C8 0.888 . S
C985 C41 0.887 . S
C989 C140 0.884 . S
C1003 C173 0.873 . S
C1007 C74 0.875 . S
C1021 C206 0.880 . S
C1025 C107 0.884 . S
C1039 C272 0.876 . S
C1043 C503 0.874 . S
C1057 C404 0.879 . S
C1061 C305 0.883 . S
C1075 C338 0.875 . S
C1079 C437 0.873 . S
C1093 C470 0.878 . S
C1097 C371 0.875 . S
C1111 N80 1.620 . S
C1115 N14 1.630 . S
C1129 N113 1.620 . S
C1133 N47 1.629 . S
C1147 N146 1.620 . S
C1151 N212 1.629 . S
C1165 N179 1.629 . S
C1169 N245 1.620 . S
C1183 N278 1.630 . S
C1187 N344 1.621 . S
C1201 N377 1.629 . S
C1205 N311 1.620 . S
C1219 N410 1.629 . S
C1223 N476 1.620 . S
C1237 N509 1.630 . S
C1241 N443 1.621 . S
