# Generated by pormake.
# Topology tzs, (4)-cn, num edge types: 1
# Building blocks:
#     Node 0, Type 0, BuildingBlock: ICAMEG_clean_sbu_1, # of connection points: 4
#     Node 1, Type 0, BuildingBlock: ICAMEG_clean_sbu_1, # of connection points: 4
#     Node 2, Type 0, BuildingBlock: ICAMEG_clean_sbu_1, # of connection points: 4
#     Node 3, Type 0, BuildingBlock: ICAMEG_clean_sbu_1, # of connection points: 4
#     Node 4, Type 0, BuildingBlock: ICAMEG_clean_sbu_1, # of connection points: 4
#     Node 5, Type 0, BuildingBlock: ICAMEG_clean_sbu_1, # of connection points: 4
#     Node 6, Type 0, BuildingBlock: ICAMEG_clean_sbu_1, # of connection points: 4
#     Node 7, Type 0, BuildingBlock: ICAMEG_clean_sbu_1, # of connection points: 4
#     Node 8, Type 0, BuildingBlock: ICAMEG_clean_sbu_1, # of connection points: 4
#     Node 9, Type 0, BuildingBlock: ICAMEG_clean_sbu_1, # of connection points: 4
#     Node 10, Type 0, BuildingBlock: ICAMEG_clean_sbu_1, # of connection points: 4
#     Node 11, Type 0, BuildingBlock: ICAMEG_clean_sbu_1, # of connection points: 4
#     Node 12, Type 0, BuildingBlock: ICAMEG_clean_sbu_1, # of connection points: 4
#     Node 13, Type 0, BuildingBlock: ICAMEG_clean_sbu_1, # of connection points: 4
#     Node 14, Type 0, BuildingBlock: ICAMEG_clean_sbu_1, # of connection points: 4
#     Node 15, Type 0, BuildingBlock: ICAMEG_clean_sbu_1, # of connection points: 4
#     Edge 16, Type (0, 0), BuildingBlock: OJICUG_clean_linker_0, # of connection points: 2
#     Edge 17, Type (0, 0), BuildingBlock: OJICUG_clean_linker_0, # of connection points: 2
#     Edge 18, Type (0, 0), BuildingBlock: OJICUG_clean_linker_0, # of connection points: 2
#     Edge 19, Type (0, 0), BuildingBlock: OJICUG_clean_linker_0, # of connection points: 2
#     Edge 20, Type (0, 0), BuildingBlock: OJICUG_clean_linker_0, # of connection points: 2
#     Edge 21, Type (0, 0), BuildingBlock: OJICUG_clean_linker_0, # of connection points: 2
#     Edge 22, Type (0, 0), BuildingBlock: OJICUG_clean_linker_0, # of connection points: 2
#     Edge 23, Type (0, 0), BuildingBlock: OJICUG_clean_linker_0, # of connection points: 2
#     Edge 24, Type (0, 0), BuildingBlock: OJICUG_clean_linker_0, # of connection points: 2
#     Edge 25, Type (0, 0), BuildingBlock: OJICUG_clean_linker_0, # of connection points: 2
#     Edge 26, Type (0, 0), BuildingBlock: OJICUG_clean_linker_0, # of connection points: 2
#     Edge 27, Type (0, 0), BuildingBlock: OJICUG_clean_linker_0, # of connection points: 2
#     Edge 28, Type (0, 0), BuildingBlock: OJICUG_clean_linker_0, # of connection points: 2
#     Edge 29, Type (0, 0), BuildingBlock: OJICUG_clean_linker_0, # of connection points: 2
#     Edge 30, Type (0, 0), BuildingBlock: OJICUG_clean_linker_0, # of connection points: 2
#     Edge 31, Type (0, 0), BuildingBlock: OJICUG_clean_linker_0, # of connection points: 2
#     Edge 32, Type (0, 0), BuildingBlock: OJICUG_clean_linker_0, # of connection points: 2
#     Edge 33, Type (0, 0), BuildingBlock: OJICUG_clean_linker_0, # of connection points: 2
#     Edge 34, Type (0, 0), BuildingBlock: OJICUG_clean_linker_0, # of connection points: 2
#     Edge 35, Type (0, 0), BuildingBlock: OJICUG_clean_linker_0, # of connection points: 2
#     Edge 36, Type (0, 0), BuildingBlock: OJICUG_clean_linker_0, # of connection points: 2
#     Edge 37, Type (0, 0), BuildingBlock: OJICUG_clean_linker_0, # of connection points: 2
#     Edge 38, Type (0, 0), BuildingBlock: OJICUG_clean_linker_0, # of connection points: 2
#     Edge 39, Type (0, 0), BuildingBlock: OJICUG_clean_linker_0, # of connection points: 2
#     Edge 40, Type (0, 0), BuildingBlock: OJICUG_clean_linker_0, # of connection points: 2
#     Edge 41, Type (0, 0), BuildingBlock: OJICUG_clean_linker_0, # of connection points: 2
#     Edge 42, Type (0, 0), BuildingBlock: OJICUG_clean_linker_0, # of connection points: 2
#     Edge 43, Type (0, 0), BuildingBlock: OJICUG_clean_linker_0, # of connection points: 2
#     Edge 44, Type (0, 0), BuildingBlock: OJICUG_clean_linker_0, # of connection points: 2
#     Edge 45, Type (0, 0), BuildingBlock: OJICUG_clean_linker_0, # of connection points: 2
#     Edge 46, Type (0, 0), BuildingBlock: OJICUG_clean_linker_0, # of connection points: 2
#     Edge 47, Type (0, 0), BuildingBlock: OJICUG_clean_linker_0, # of connection points: 2
# Relax obj value: 0.141
# Max RMSD: 0.170
# Mean RMSD: 0.170
data_MOF--net-tzs--node1-ICAMEG_clean_sbu_1--edge1-OJICUG_clean_linker_0
_symmetry_space_group_name_H-M    P1
_symmetry_Int_Tables_number       1
_symmetry_cell_setting            triclinic
loop_
_symmetry_equiv_pos_as_xyz
'x, y, z'
_cell_length_a     37.092138
_cell_length_b     37.107059
_cell_length_c     33.421936
_cell_angle_alpha  90.10212
_cell_angle_beta   90.223631
_cell_angle_gamma 90.001309
loop_
_atom_site_label
_atom_site_type_symbol
_atom_site_fract_x
_atom_site_fract_y
_atom_site_fract_z
_atom_type_partial_charge
Co0 Co 0.13497 0.39183 0.16027 0.0
Co1 Co 0.16125 0.35794 0.24985 0.0
O2 O 0.16481 0.35676 0.19048 0.0
C3 C 0.15249 0.3371 0.09365 0.0
O4 O 0.17516 0.31726 0.11433 0.0
C5 C 0.23928 0.33588 0.2346 0.0
O6 O 0.23682 0.34252 0.19619 0.0
O7 O 0.17768 0.40938 0.24883 0.0
O8 O 0.13519 0.42581 0.20604 0.0
H9 H 0.12495 0.41517 0.3799 0.0
H10 H 0.20897 0.36788 0.13362 0.0
O11 O 0.13254 0.36049 0.11092 0.0
H12 H 0.21085 0.49989 0.12354 0.0
H13 H 0.0949 0.46555 0.04112 0.0
H14 H 0.07014 0.4345 0.18159 0.0
H15 H 0.15657 0.46869 0.14665 0.0
H16 H 0.13473 0.42393 0.07784 0.0
O17 O 0.21264 0.34188 0.25753 0.0
H18 H 0.12947 0.41032 0.30652 0.0
H19 H 0.18596 0.31122 0.31772 0.0
H20 H 0.03061 0.4772 0.14675 0.0
H21 H 0.26337 0.39775 0.10944 0.0
H22 H 0.04238 0.49286 0.07574 0.0
H23 H 0.26485 0.46445 0.1042 0.0
O24 O 0.09082 0.36814 0.18309 0.0
H25 H 0.16545 0.22816 0.20636 0.0
H26 H 0.10275 0.31694 0.29112 0.0
H27 H 0.08204 0.25388 0.29038 0.0
H28 H 0.11359 0.2089 0.24797 0.0
H29 H 0.18494 0.29158 0.20754 0.0
H30 H 0.18229 0.31517 0.39123 0.0
H31 H 0.15149 0.36735 0.4228 0.0
O32 O 0.10897 0.37264 0.24686 0.0
C33 C 0.16065 0.43379 0.22979 0.0
C34 C 0.13838 0.39226 0.36651 0.0
C35 C 0.17061 0.33616 0.37286 0.0
N36 N 0.15784 0.36047 0.30778 0.0
C37 C 0.14098 0.38933 0.32495 0.0
C38 C 0.17271 0.33414 0.3312 0.0
C39 C 0.15331 0.36544 0.39056 0.0
C40 C 0.2085 0.39652 0.13045 0.0
N41 N 0.17847 0.4159 0.14018 0.0
C42 C 0.23984 0.41352 0.11714 0.0
C43 C 0.24072 0.45091 0.11434 0.0
C44 C 0.21047 0.47076 0.12514 0.0
C45 C 0.17964 0.45278 0.13823 0.0
C46 C 0.08909 0.45867 0.07189 0.0
C47 C 0.07553 0.44087 0.15075 0.0
C48 C 0.11125 0.43464 0.09265 0.0
N49 N 0.10425 0.42577 0.13157 0.0
C50 C 0.05298 0.46523 0.13109 0.0
C51 C 0.0597 0.47402 0.09132 0.0
C52 C 0.0843 0.36766 0.22073 0.0
C53 C 0.15164 0.24745 0.22519 0.0
C54 C 0.1167 0.29759 0.27258 0.0
C55 C 0.10482 0.26188 0.27231 0.0
C56 C 0.12251 0.23667 0.24849 0.0
N57 N 0.14552 0.30794 0.2499 0.0
C58 C 0.16272 0.28342 0.22616 0.0
Co59 Co 0.60304 0.12914 0.17145 0.0
Co60 Co 0.66063 0.1504 0.24803 0.0
O61 O 0.64715 0.1541 0.19058 0.0
C62 C 0.64878 0.13513 0.09605 0.0
O63 O 0.67503 0.15231 0.1144 0.0
C64 C 0.68541 0.22682 0.22602 0.0
O65 O 0.67246 0.22561 0.18946 0.0
O66 O 0.61351 0.17218 0.26278 0.0
O67 O 0.5798 0.1364 0.22413 0.0
H68 H 0.63693 0.12017 0.39208 0.0
H69 H 0.63138 0.19712 0.13299 0.0
O70 O 0.62307 0.12119 0.116 0.0
H71 H 0.50238 0.21933 0.1557 0.0
H72 H 0.50346 0.09674 0.07438 0.0
H73 H 0.55391 0.07599 0.20907 0.0
H74 H 0.52992 0.16217 0.17656 0.0
H75 H 0.55899 0.12771 0.09587 0.0
O76 O 0.68254 0.1999 0.2493 0.0
H77 H 0.62245 0.12445 0.3202 0.0
H78 H 0.72546 0.16969 0.29719 0.0
H79 H 0.4974 0.04605 0.18952 0.0
H80 H 0.60494 0.25433 0.11145 0.0
H81 H 0.47185 0.05604 0.12157 0.0
H82 H 0.53983 0.26595 0.12256 0.0
O83 O 0.62343 0.082 0.19064 0.0
H84 H 0.77446 0.14167 0.16736 0.0
H85 H 0.70313 0.08657 0.27535 0.0
H86 H 0.76083 0.05897 0.25567 0.0
H87 H 0.79705 0.08665 0.20144 0.0
H88 H 0.71641 0.16812 0.18766 0.0
H89 H 0.74094 0.16622 0.36887 0.0
H90 H 0.69657 0.14116 0.41686 0.0
O91 O 0.63969 0.10049 0.25176 0.0
C92 C 0.58309 0.16036 0.25103 0.0
C93 C 0.65653 0.13105 0.37146 0.0
C94 C 0.71488 0.15692 0.35843 0.0
N95 N 0.6731 0.14705 0.30442 0.0
C96 C 0.64849 0.13347 0.33069 0.0
C97 C 0.70591 0.15888 0.31787 0.0
C98 C 0.68999 0.14286 0.38534 0.0
C99 C 0.60304 0.20113 0.13717 0.0
N100 N 0.58221 0.17513 0.15447 0.0
C101 C 0.58817 0.23401 0.12524 0.0
C102 C 0.55169 0.24056 0.13157 0.0
C103 C 0.53067 0.21442 0.15007 0.0
C104 C 0.5465 0.1819 0.16162 0.0
C105 C 0.51441 0.09199 0.10397 0.0
C106 C 0.54302 0.08072 0.17952 0.0
C107 C 0.54615 0.10912 0.11616 0.0
N108 N 0.55996 0.10362 0.15369 0.0
C109 C 0.511 0.06351 0.16854 0.0
C110 C 0.49667 0.06919 0.13047 0.0
C111 C 0.63136 0.07543 0.22727 0.0
C112 C 0.75903 0.12948 0.19118 0.0
C113 C 0.71865 0.09878 0.25165 0.0
C114 C 0.75136 0.08303 0.24069 0.0
C115 C 0.77166 0.09857 0.21027 0.0
N116 N 0.70655 0.12928 0.233 0.0
C117 C 0.72619 0.14447 0.20295 0.0
Co118 Co 0.88847 0.60388 0.15815 0.0
Co119 Co 0.86033 0.65648 0.23553 0.0
O120 O 0.85999 0.64474 0.1781 0.0
C121 C 0.87881 0.65299 0.08636 0.0
O122 O 0.86098 0.6771 0.10717 0.0
C123 C 0.78295 0.66687 0.25383 0.0
O124 O 0.78651 0.64115 0.28051 0.0
O125 O 0.84208 0.60713 0.24713 0.0
O126 O 0.88164 0.57754 0.20921 0.0
H127 H 0.88456 0.63115 0.3808 0.0
H128 H 0.81818 0.62925 0.1215 0.0
O129 O 0.89551 0.6274 0.10408 0.0
H130 H 0.80704 0.49752 0.13191 0.0
H131 H 0.9309 0.51181 0.05744 0.0
H132 H 0.94473 0.55785 0.19511 0.0
H133 H 0.86147 0.5281 0.15654 0.0
H134 H 0.89483 0.56345 0.08067 0.0
O135 O 0.80932 0.67463 0.23083 0.0
H136 H 0.88443 0.61806 0.30843 0.0
H137 H 0.83562 0.71934 0.28468 0.0
H138 H 0.97983 0.5052 0.17388 0.0
H139 H 0.76368 0.59972 0.09625 0.0
H140 H 0.97326 0.48175 0.10434 0.0
H141 H 0.75766 0.53325 0.10108 0.0
O142 O 0.93336 0.62697 0.1809 0.0
H143 H 0.86098 0.77355 0.16035 0.0
H144 H 0.92058 0.70268 0.26631 0.0
H145 H 0.94386 0.76299 0.24959 0.0
H146 H 0.91391 0.79895 0.19638 0.0
H147 H 0.83882 0.71291 0.17772 0.0
H148 H 0.83513 0.73351 0.35678 0.0
H149 H 0.85975 0.68925 0.40541 0.0
O150 O 0.91162 0.63924 0.2419 0.0
C151 C 0.85638 0.57808 0.23471 0.0
C152 C 0.87377 0.65066 0.35992 0.0
C153 C 0.84604 0.70811 0.34644 0.0
N154 N 0.8601 0.66787 0.29233 0.0
C155 C 0.87363 0.64339 0.3189 0.0
C156 C 0.8464 0.69993 0.30564 0.0
C157 C 0.85985 0.68326 0.3737 0.0
C158 C 0.81679 0.60037 0.12268 0.0
N159 N 0.84454 0.58053 0.13829 0.0
C160 C 0.78535 0.58373 0.10877 0.0
C161 C 0.78192 0.54648 0.11161 0.0
C162 C 0.80964 0.52643 0.12877 0.0
C163 C 0.84065 0.544 0.14236 0.0
C164 C 0.93421 0.52186 0.08765 0.0
C165 C 0.94158 0.54795 0.16488 0.0
C166 C 0.9142 0.55145 0.10081 0.0
N167 N 0.91779 0.56396 0.13915 0.0
C168 C 0.96173 0.51811 0.15291 0.0
C169 C 0.95798 0.505 0.11401 0.0
C170 C 0.93811 0.63381 0.21825 0.0
C171 C 0.87423 0.75817 0.18364 0.0
C172 C 0.90755 0.718 0.24289 0.0
C173 C 0.92078 0.75222 0.23367 0.0
C174 C 0.90395 0.77239 0.20383 0.0
N175 N 0.8783 0.70428 0.22302 0.0
C176 C 0.86175 0.72385 0.19366 0.0
Co177 Co 0.39849 0.88771 0.1527 0.0
Co178 Co 0.36217 0.85481 0.23716 0.0
O179 O 0.36223 0.85729 0.1785 0.0
C180 C 0.34198 0.8747 0.08862 0.0
O181 O 0.32102 0.8557 0.11209 0.0
C182 C 0.35186 0.77546 0.24972 0.0
O183 O 0.38261 0.77337 0.26916 0.0
O184 O 0.41307 0.83623 0.23508 0.0
O185 O 0.43206 0.88202 0.19849 0.0
H186 H 0.41809 0.87163 0.37292 0.0
H187 H 0.37171 0.81563 0.12234 0.0
O188 O 0.36717 0.89423 0.10351 0.0
H189 H 0.50319 0.81163 0.10506 0.0
H190 H 0.47481 0.9368 0.04017 0.0
H191 H 0.44277 0.94873 0.18253 0.0
H192 H 0.4745 0.86497 0.13411 0.0
H193 H 0.43226 0.89449 0.0714 0.0
O194 O 0.34227 0.80477 0.23301 0.0
H195 H 0.41496 0.87562 0.29938 0.0
H196 H 0.31134 0.8271 0.29979 0.0
H197 H 0.48716 0.99004 0.15341 0.0
H198 H 0.39923 0.76241 0.09223 0.0
H199 H 0.503 0.98497 0.08152 0.0
H200 H 0.46555 0.75985 0.0832 0.0
O201 O 0.37616 0.93016 0.1807 0.0
H202 H 0.23342 0.86039 0.19017 0.0
H203 H 0.32251 0.91062 0.28482 0.0
H204 H 0.26041 0.93415 0.28474 0.0
H205 H 0.21529 0.90889 0.23729 0.0
H206 H 0.29597 0.83795 0.19092 0.0
H207 H 0.31339 0.82228 0.3733 0.0
H208 H 0.36705 0.84473 0.41041 0.0
O209 O 0.37946 0.90624 0.24218 0.0
C210 C 0.43859 0.85401 0.21893 0.0
C211 C 0.39458 0.86167 0.35711 0.0
C212 C 0.33585 0.83395 0.35731 0.0
N213 N 0.3631 0.85135 0.29521 0.0
C214 C 0.39267 0.86383 0.31544 0.0
C215 C 0.33489 0.83658 0.31564 0.0
C216 C 0.36595 0.84658 0.37811 0.0
C217 C 0.40027 0.81594 0.11738 0.0
N218 N 0.42084 0.84507 0.12803 0.0
C219 C 0.41589 0.78512 0.10077 0.0
C220 C 0.45308 0.78362 0.09587 0.0
C221 C 0.47416 0.81265 0.10805 0.0
C222 C 0.45758 0.84303 0.12442 0.0
C223 C 0.46761 0.93988 0.07134 0.0
C224 C 0.44934 0.94614 0.15122 0.0
C225 C 0.44279 0.91648 0.08888 0.0
N226 N 0.4337 0.91985 0.1283 0.0
C227 C 0.47455 0.96976 0.13485 0.0
C228 C 0.48351 0.96678 0.09456 0.0
C229 C 0.37578 0.93347 0.21901 0.0
C230 C 0.25283 0.87161 0.21101 0.0
C231 C 0.30318 0.89969 0.26383 0.0
C232 C 0.26798 0.91303 0.26404 0.0
C233 C 0.24268 0.89883 0.23743 0.0
N234 N 0.31297 0.87291 0.23788 0.0
C235 C 0.2883 0.85898 0.21161 0.0
Co236 Co 0.13166 0.60336 0.3511 0.0
Co237 Co 0.1596 0.65787 0.27607 0.0
O238 O 0.15896 0.64571 0.33328 0.0
C239 C 0.13822 0.65179 0.42422 0.0
O240 O 0.15307 0.67791 0.40361 0.0
C241 C 0.23906 0.66911 0.26627 0.0
O242 O 0.24074 0.63979 0.24435 0.0
O243 O 0.18011 0.60935 0.26441 0.0
O244 O 0.13924 0.57893 0.29909 0.0
H245 H 0.14011 0.63225 0.12997 0.0
H246 H 0.19954 0.6299 0.39129 0.0
O247 O 0.12393 0.62483 0.40622 0.0
H248 H 0.21741 0.49954 0.37275 0.0
H249 H 0.09414 0.50379 0.44492 0.0
H250 H 0.07553 0.55831 0.31206 0.0
H251 H 0.16196 0.52866 0.34872 0.0
H252 H 0.12839 0.55759 0.42481 0.0
O253 O 0.20951 0.67844 0.28289 0.0
H254 H 0.13828 0.61911 0.20223 0.0
H255 H 0.18412 0.72134 0.22823 0.0
H256 H 0.04243 0.50331 0.32976 0.0
H257 H 0.25505 0.6018 0.41596 0.0
H258 H 0.05145 0.47563 0.39684 0.0
H259 H 0.26443 0.53604 0.40702 0.0
O260 O 0.08656 0.62611 0.32873 0.0
H261 H 0.15159 0.77431 0.35245 0.0
H262 H 0.09898 0.70203 0.24292 0.0
H263 H 0.07276 0.76128 0.25914 0.0
H264 H 0.09917 0.79794 0.31418 0.0
H265 H 0.17676 0.71471 0.33548 0.0
H266 H 0.18682 0.73552 0.15627 0.0
H267 H 0.16458 0.69083 0.10655 0.0
O268 O 0.10891 0.63887 0.26807 0.0
C269 C 0.1657 0.57993 0.27526 0.0
C270 C 0.1499 0.65195 0.15132 0.0
C271 C 0.17615 0.70988 0.16608 0.0
N272 N 0.16117 0.66938 0.21944 0.0
C273 C 0.14892 0.64465 0.19228 0.0
C274 C 0.1747 0.70165 0.2068 0.0
C275 C 0.16365 0.68481 0.13821 0.0
C276 C 0.20254 0.60123 0.3881 0.0
N277 N 0.17618 0.58089 0.37038 0.0
C278 C 0.23447 0.58545 0.40178 0.0
C279 C 0.23978 0.5486 0.39665 0.0
C280 C 0.21339 0.52811 0.37754 0.0
C281 C 0.18184 0.54483 0.36421 0.0
C282 C 0.08961 0.51581 0.41585 0.0
C283 C 0.07953 0.54672 0.34136 0.0
C284 C 0.1084 0.54679 0.40468 0.0
N285 N 0.10342 0.5618 0.36775 0.0
C286 C 0.06061 0.5155 0.35127 0.0
C287 C 0.0657 0.49999 0.38882 0.0
C288 C 0.08214 0.63337 0.29141 0.0
C289 C 0.13986 0.75861 0.32839 0.0
C290 C 0.11048 0.71766 0.26712 0.0
C291 C 0.09559 0.75127 0.27606 0.0
C292 C 0.11043 0.77184 0.30692 0.0
N293 N 0.13939 0.70488 0.28828 0.0
C294 C 0.15403 0.72486 0.31861 0.0
Co295 Co 0.39457 0.12071 0.36108 0.0
Co296 Co 0.36236 0.15498 0.27393 0.0
O297 O 0.36082 0.15379 0.33325 0.0
C298 C 0.33802 0.13584 0.4246 0.0
O299 O 0.31958 0.15869 0.40262 0.0
C300 C 0.33942 0.23145 0.29673 0.0
O301 O 0.34263 0.22537 0.33521 0.0
O302 O 0.41391 0.17022 0.27785 0.0
O303 O 0.42987 0.12457 0.31675 0.0
H304 H 0.42052 0.12851 0.14162 0.0
H305 H 0.37201 0.19366 0.39335 0.0
O306 O 0.36162 0.1153 0.40866 0.0
H307 H 0.50325 0.18885 0.41251 0.0
H308 H 0.46096 0.06572 0.47828 0.0
H309 H 0.43777 0.05815 0.3332 0.0
H310 H 0.47128 0.13802 0.38185 0.0
H311 H 0.42199 0.11033 0.44489 0.0
O312 O 0.34749 0.20709 0.27145 0.0
H313 H 0.41488 0.1271 0.21507 0.0
H314 H 0.31696 0.18621 0.20813 0.0
H315 H 0.47775 0.01377 0.36508 0.0
H316 H 0.40266 0.2446 0.42482 0.0
H317 H 0.4894 0.01701 0.4382 0.0
H318 H 0.46898 0.2427 0.43477 0.0
O319 O 0.37081 0.07926 0.33268 0.0
H320 H 0.23217 0.15709 0.31594 0.0
H321 H 0.32059 0.10176 0.2249 0.0
H322 H 0.25718 0.08234 0.22191 0.0
H323 H 0.21235 0.11025 0.26746 0.0
H324 H 0.2959 0.17528 0.31833 0.0
H325 H 0.32173 0.18855 0.13463 0.0
H326 H 0.3737 0.15941 0.10087 0.0
O327 O 0.37615 0.10251 0.27141 0.0
C328 C 0.43804 0.15188 0.29586 0.0
C329 C 0.39769 0.14123 0.15597 0.0
C330 C 0.34228 0.17497 0.15206 0.0
N331 N 0.36552 0.15635 0.21593 0.0
C332 C 0.39431 0.14046 0.19756 0.0
C333 C 0.33979 0.17365 0.19372 0.0
C334 C 0.37143 0.1586 0.13313 0.0
C335 C 0.4004 0.19162 0.39835 0.0
N336 N 0.41907 0.16154 0.38706 0.0
C337 C 0.41788 0.22105 0.4159 0.0
C338 C 0.45506 0.22004 0.42135 0.0
C339 C 0.47425 0.18986 0.40893 0.0
C340 C 0.4558 0.16095 0.3916 0.0
C341 C 0.45584 0.06374 0.44645 0.0
C342 C 0.44259 0.05992 0.36502 0.0
C343 C 0.43336 0.08866 0.42747 0.0
N344 N 0.42687 0.08656 0.38723 0.0
C345 C 0.46531 0.03461 0.38294 0.0
C346 C 0.47185 0.03649 0.42395 0.0
C347 C 0.37157 0.07557 0.29456 0.0
C348 C 0.25139 0.14493 0.2957 0.0
C349 C 0.30136 0.11406 0.24488 0.0
C350 C 0.26542 0.10295 0.24301 0.0
C351 C 0.24029 0.1186 0.26856 0.0
N352 N 0.31203 0.14025 0.27125 0.0
C353 C 0.28757 0.15533 0.29674 0.0
Co354 Co 0.89217 0.39189 0.35417 0.0
Co355 Co 0.86444 0.35628 0.26516 0.0
O356 O 0.8627 0.35598 0.32455 0.0
C357 C 0.87656 0.33649 0.41921 0.0
O358 O 0.85495 0.31634 0.39743 0.0
C359 C 0.78782 0.33189 0.28398 0.0
O360 O 0.79239 0.33718 0.32244 0.0
O361 O 0.84776 0.40759 0.26604 0.0
O362 O 0.88976 0.42603 0.3087 0.0
H363 H 0.89649 0.41217 0.13326 0.0
H364 H 0.81888 0.36616 0.38263 0.0
O365 O 0.8967 0.3601 0.40286 0.0
H366 H 0.81522 0.49797 0.39477 0.0
H367 H 0.93349 0.46331 0.47468 0.0
H368 H 0.95216 0.44037 0.33112 0.0
H369 H 0.86926 0.46792 0.36922 0.0
H370 H 0.8953 0.41985 0.43834 0.0
O371 O 0.81279 0.33985 0.25952 0.0
H372 H 0.89462 0.40787 0.20682 0.0
H373 H 0.83718 0.30905 0.19864 0.0
H374 H 0.98936 0.48571 0.36539 0.0
H375 H 0.76478 0.39487 0.40907 0.0
H376 H 0.98091 0.49698 0.43802 0.0
H377 H 0.7624 0.46147 0.41545 0.0
O378 O 0.93661 0.37007 0.32981 0.0
H379 H 0.86342 0.22712 0.31109 0.0
H380 H 0.92049 0.31477 0.22058 0.0
H381 H 0.94104 0.25167 0.22022 0.0
H382 H 0.91233 0.20725 0.26557 0.0
H383 H 0.84391 0.29045 0.31071 0.0
H384 H 0.83815 0.31248 0.12501 0.0
H385 H 0.8681 0.36424 0.09182 0.0
O386 O 0.91686 0.37113 0.26624 0.0
C387 C 0.86433 0.43276 0.28444 0.0
C388 C 0.88345 0.38943 0.14736 0.0
C389 C 0.85065 0.33351 0.14274 0.0
N390 N 0.866 0.35816 0.20709 0.0
C391 C 0.88238 0.38679 0.18902 0.0
C392 C 0.85008 0.33179 0.18447 0.0
C393 C 0.86748 0.36255 0.12413 0.0
C394 C 0.81905 0.39473 0.38619 0.0
N395 N 0.84852 0.41467 0.37581 0.0
C396 C 0.78783 0.41109 0.40083 0.0
C397 C 0.78644 0.44842 0.40428 0.0
C398 C 0.81605 0.46886 0.39274 0.0
C399 C 0.84678 0.45151 0.37832 0.0
C400 C 0.93804 0.45821 0.4432 0.0
C401 C 0.9483 0.44493 0.36259 0.0
C402 C 0.9169 0.43308 0.42262 0.0
N403 N 0.92226 0.42653 0.38278 0.0
C404 C 0.96952 0.47068 0.38197 0.0
C405 C 0.96455 0.47713 0.42263 0.0
C406 C 0.94226 0.36838 0.292 0.0
C407 C 0.87594 0.24614 0.29094 0.0
C408 C 0.90768 0.29564 0.2403 0.0
C409 C 0.9195 0.25991 0.23998 0.0
C410 C 0.90342 0.23502 0.26545 0.0
N411 N 0.88038 0.30632 0.26503 0.0
C412 C 0.86482 0.28211 0.29042 0.0
Co413 Co 0.60327 0.87391 0.3473 0.0
Co414 Co 0.66034 0.85603 0.27054 0.0
O415 O 0.64765 0.85092 0.3276 0.0
C416 C 0.65112 0.86759 0.42127 0.0
O417 O 0.67802 0.85366 0.40103 0.0
C418 C 0.67542 0.77684 0.2802 0.0
O419 O 0.64371 0.77142 0.29643 0.0
O420 O 0.61394 0.83218 0.25543 0.0
O421 O 0.57959 0.86669 0.29458 0.0
H422 H 0.63526 0.88504 0.12622 0.0
H423 H 0.63505 0.80609 0.38239 0.0
O424 O 0.62386 0.88085 0.40296 0.0
H425 H 0.50625 0.77969 0.36236 0.0
H426 H 0.50299 0.90139 0.44456 0.0
H427 H 0.55371 0.92787 0.31173 0.0
H428 H 0.53107 0.83839 0.34269 0.0
H429 H 0.55802 0.87062 0.42147 0.0
O430 O 0.6856 0.80844 0.27089 0.0
H431 H 0.62084 0.87968 0.19789 0.0
H432 H 0.72651 0.8416 0.22232 0.0
H433 H 0.49786 0.958 0.33278 0.0
H434 H 0.61128 0.74739 0.4027 0.0
H435 H 0.47223 0.9452 0.39987 0.0
H436 H 0.54633 0.73367 0.39295 0.0
O437 O 0.62233 0.92206 0.32887 0.0
H438 H 0.7742 0.86886 0.35107 0.0
H439 H 0.699 0.92298 0.24506 0.0
H440 H 0.75509 0.95335 0.26598 0.0
H441 H 0.79321 0.92622 0.31927 0.0
H442 H 0.71764 0.83955 0.32947 0.0
H443 H 0.74206 0.84616 0.15088 0.0
H444 H 0.69629 0.86815 0.10226 0.0
O445 O 0.63658 0.90454 0.26692 0.0
C446 C 0.58318 0.84277 0.26764 0.0
C447 C 0.65543 0.87539 0.14708 0.0
C448 C 0.71535 0.85355 0.16092 0.0
N449 N 0.67268 0.86025 0.2143 0.0
C450 C 0.64739 0.87231 0.18772 0.0
C451 C 0.70632 0.85086 0.20133 0.0
C452 C 0.68967 0.86591 0.13366 0.0
C453 C 0.60665 0.8012 0.37903 0.0
N454 N 0.58434 0.82689 0.36328 0.0
C455 C 0.59336 0.76747 0.39016 0.0
C456 C 0.55697 0.75973 0.38456 0.0
C457 C 0.53448 0.78555 0.3675 0.0
C458 C 0.54875 0.81894 0.35666 0.0
C459 C 0.51409 0.90754 0.41546 0.0
C460 C 0.54286 0.92205 0.34096 0.0
C461 C 0.5456 0.8906 0.40251 0.0
N462 N 0.55965 0.89792 0.36565 0.0
C463 C 0.51117 0.93929 0.35276 0.0
C464 C 0.49679 0.93205 0.39034 0.0
C465 C 0.62925 0.92925 0.29214 0.0
C466 C 0.75784 0.88093 0.3278 0.0
C467 C 0.71527 0.91111 0.26847 0.0
C468 C 0.7471 0.92838 0.28008 0.0
C469 C 0.76848 0.91313 0.30997 0.0
N470 N 0.70503 0.87951 0.2861 0.0
C471 C 0.72583 0.86443 0.31542 0.0
Co472 Co 0.89766 0.6255 0.84077 0.0
Co473 Co 0.84252 0.64895 0.76307 0.0
O474 O 0.85497 0.65233 0.82081 0.0
C475 C 0.8516 0.63449 0.91571 0.0
O476 O 0.82621 0.65264 0.89708 0.0
C477 C 0.82186 0.72696 0.78356 0.0
O478 O 0.83582 0.7261 0.81966 0.0
O479 O 0.8908 0.66881 0.74969 0.0
O480 O 0.92189 0.63094 0.78831 0.0
H481 H 0.86844 0.61717 0.61983 0.0
H482 H 0.87211 0.69509 0.8783 0.0
O483 O 0.87669 0.61914 0.896 0.0
H484 H 0.00229 0.71107 0.8574 0.0
H485 H 0.99502 0.59124 0.93944 0.0
H486 H 0.94407 0.56848 0.80527 0.0
H487 H 0.97233 0.65509 0.83641 0.0
H488 H 0.94125 0.62417 0.91641 0.0
O489 O 0.82263 0.69926 0.7611 0.0
H490 H 0.88142 0.62132 0.69209 0.0
H491 H 0.77958 0.67037 0.71205 0.0
H492 H 0.99851 0.53567 0.82677 0.0
H493 H 0.90095 0.75119 0.89991 0.0
H494 H 0.0246 0.54732 0.89423 0.0
H495 H 0.96667 0.75965 0.88973 0.0
O496 O 0.87518 0.57917 0.82161 0.0
H497 H 0.72672 0.64622 0.84049 0.0
H498 H 0.79783 0.5867 0.73499 0.0
H499 H 0.73848 0.56198 0.7533 0.0
H500 H 0.7024 0.59189 0.80628 0.0
H501 H 0.78639 0.66979 0.82154 0.0
H502 H 0.76565 0.66706 0.63997 0.0
H503 H 0.81018 0.64016 0.59331 0.0
O504 O 0.86136 0.59813 0.76001 0.0
C505 C 0.92038 0.65557 0.76206 0.0
C506 C 0.84876 0.62885 0.63986 0.0
C507 C 0.7911 0.65688 0.65116 0.0
N508 N 0.83121 0.64578 0.70637 0.0
C509 C 0.85594 0.63119 0.68084 0.0
C510 C 0.79918 0.65874 0.69196 0.0
C511 C 0.81609 0.64178 0.62501 0.0
C512 C 0.90066 0.69775 0.87451 0.0
N513 N 0.92044 0.67067 0.85763 0.0
C514 C 0.91692 0.72999 0.88648 0.0
C515 C 0.95374 0.73478 0.88066 0.0
C516 C 0.97372 0.70753 0.86263 0.0
C517 C 0.95651 0.67571 0.85097 0.0
C518 C 0.9839 0.58594 0.91003 0.0
C519 C 0.95502 0.57351 0.83475 0.0
C520 C 0.95315 0.60421 0.89696 0.0
N521 N 0.93925 0.5982 0.85955 0.0
C522 C 0.9859 0.55481 0.84677 0.0
C523 C 1.00047 0.56126 0.88462 0.0
C524 C 0.86763 0.57278 0.78481 0.0
C525 C 0.74211 0.63304 0.81723 0.0
C526 C 0.78237 0.59984 0.75816 0.0
C527 C 0.74874 0.58573 0.76835 0.0
C528 C 0.7285 0.60253 0.79806 0.0
N529 N 0.79544 0.62994 0.77692 0.0
C530 C 0.77586 0.64638 0.80626 0.0
Co531 Co 0.37713 0.8894 0.85099 0.0
Co532 Co 0.34565 0.85159 0.7654 0.0
O533 O 0.34509 0.85351 0.82482 0.0
C534 C 0.36016 0.8388 0.92045 0.0
O535 O 0.33746 0.81828 0.90056 0.0
C536 C 0.26832 0.83031 0.78636 0.0
O537 O 0.27325 0.83552 0.8248 0.0
O538 O 0.33034 0.90348 0.76452 0.0
O539 O 0.37563 0.92055 0.80307 0.0
H540 H 0.3771 0.90112 0.63022 0.0
H541 H 0.3032 0.8689 0.88124 0.0
O542 O 0.38089 0.86067 0.90204 0.0
H543 H 0.30601 1.00111 0.88717 0.0
H544 H 0.42544 0.96822 0.9625 0.0
H545 H 0.4417 0.92913 0.82274 0.0
H546 H 0.35852 0.9675 0.86336 0.0
H547 H 0.38248 0.92615 0.931 0.0
O548 O 0.29352 0.83686 0.76168 0.0
H549 H 0.37601 0.90007 0.70398 0.0
H550 H 0.31609 0.8025 0.7019 0.0
H551 H 0.48399 0.9724 0.85221 0.0
H552 H 0.25056 0.90126 0.90617 0.0
H553 H 0.47665 0.99207 0.92282 0.0
H554 H 0.25142 0.96809 0.90934 0.0
O555 O 0.41951 0.86358 0.82721 0.0
H556 H 0.34138 0.72426 0.817 0.0
H557 H 0.40027 0.80688 0.72224 0.0
H558 H 0.41935 0.74339 0.72491 0.0
H559 H 0.38966 0.70146 0.77235 0.0
H560 H 0.32353 0.78801 0.81379 0.0
H561 H 0.31623 0.80271 0.62814 0.0
H562 H 0.34705 0.85218 0.59179 0.0
O563 O 0.39847 0.86472 0.76442 0.0
C564 C 0.3487 0.92823 0.78141 0.0
C565 C 0.36365 0.87938 0.64571 0.0
C566 C 0.32944 0.82418 0.64455 0.0
N567 N 0.34616 0.8512 0.70728 0.0
C568 C 0.36299 0.8786 0.68748 0.0
C569 C 0.32934 0.82429 0.68634 0.0
C570 C 0.34675 0.85193 0.62417 0.0
C571 C 0.30473 0.89758 0.88337 0.0
N572 N 0.33513 0.91563 0.87202 0.0
C573 C 0.27436 0.916 0.89719 0.0
C574 C 0.27479 0.95345 0.89884 0.0
C575 C 0.30538 0.97195 0.88647 0.0
C576 C 0.33522 0.95257 0.87295 0.0
C577 C 0.42942 0.95949 0.93192 0.0
C578 C 0.43813 0.9372 0.85351 0.0
C579 C 0.40555 0.93505 0.91419 0.0
N580 N 0.41013 0.92397 0.87549 0.0
C581 C 0.46232 0.96187 0.8701 0.0
C582 C 0.45806 0.97292 0.90964 0.0
C583 C 0.42458 0.86177 0.78931 0.0
C584 C 0.35431 0.74218 0.79595 0.0
C585 C 0.38714 0.78891 0.74299 0.0
C586 C 0.3981 0.75292 0.74434 0.0
C587 C 0.38145 0.72942 0.77095 0.0
N588 N 0.36015 0.80119 0.76723 0.0
C589 C 0.34409 0.77836 0.79379 0.0
Co590 Co 0.1078 0.38071 0.85881 0.0
Co591 Co 0.14182 0.35496 0.76905 0.0
O592 O 0.14276 0.35105 0.82833 0.0
C593 C 0.16499 0.36268 0.92248 0.0
O594 O 0.18517 0.34298 0.89877 0.0
C595 C 0.15833 0.27593 0.78371 0.0
O596 O 0.14715 0.27756 0.82081 0.0
O597 O 0.09029 0.33923 0.76974 0.0
O598 O 0.07381 0.38129 0.81287 0.0
H599 H 0.0855 0.39307 0.63895 0.0
H600 H 0.13209 0.30745 0.88751 0.0
O601 O 0.13929 0.3818 0.90825 0.0
H602 H 0.99975 0.30405 0.89332 0.0
H603 H 0.03359 0.41891 0.97816 0.0
H604 H 0.06485 0.44545 0.8383 0.0
H605 H 0.03092 0.35857 0.87064 0.0
H606 H 0.07529 0.37964 0.94101 0.0
O607 O 0.15698 0.30355 0.76138 0.0
H608 H 0.09025 0.38815 0.71235 0.0
H609 H 0.18804 0.32942 0.70123 0.0
H610 H 0.02149 0.48425 0.87317 0.0
H611 H 0.10218 0.25291 0.91143 0.0
H612 H 0.00602 0.47168 0.94406 0.0
H613 H 0.03536 0.25064 0.91439 0.0
O614 O 0.13154 0.42509 0.83646 0.0
H615 H 0.27133 0.34647 0.81249 0.0
H616 H 0.18439 0.41278 0.72837 0.0
H617 H 0.24814 0.43149 0.72933 0.0
H618 H 0.29216 0.39815 0.7715 0.0
H619 H 0.20725 0.32887 0.81091 0.0
H620 H 0.18419 0.33349 0.62772 0.0
H621 H 0.13273 0.36562 0.5961 0.0
O622 O 0.12813 0.40744 0.77234 0.0
C623 C 0.06592 0.35597 0.78897 0.0
C624 C 0.10812 0.37909 0.65237 0.0
C625 C 0.16348 0.34561 0.64607 0.0
N626 N 0.13948 0.35872 0.71113 0.0
C627 C 0.111 0.37628 0.69393 0.0
C628 C 0.16545 0.34331 0.68773 0.0
C629 C 0.1346 0.36365 0.62835 0.0
C630 C 0.10329 0.3075 0.88951 0.0
N631 N 0.08375 0.33708 0.87842 0.0
C632 C 0.08632 0.27612 0.90276 0.0
C633 C 0.04887 0.27481 0.9043 0.0
C634 C 0.02891 0.30472 0.89249 0.0
C635 C 0.04685 0.33562 0.87951 0.0
C636 C 0.0406 0.42521 0.94755 0.0
C637 C 0.05853 0.43983 0.86902 0.0
C638 C 0.06484 0.40345 0.92664 0.0
N639 N 0.07387 0.41105 0.88793 0.0
C640 C 0.03385 0.46193 0.88873 0.0
C641 C 0.02508 0.45472 0.9284 0.0
C642 C 0.13273 0.43185 0.79884 0.0
C643 C 0.25244 0.36113 0.79389 0.0
C644 C 0.20333 0.39815 0.74687 0.0
C645 C 0.23943 0.40885 0.74723 0.0
C646 C 0.26411 0.39015 0.77091 0.0
N647 N 0.19212 0.36953 0.76934 0.0
C648 C 0.21613 0.35121 0.79278 0.0
Co649 Co 0.61631 0.10377 0.85247 0.0
Co650 Co 0.63656 0.1593 0.77488 0.0
O651 O 0.64014 0.14747 0.83232 0.0
C652 C 0.62232 0.15255 0.92529 0.0
O653 O 0.63805 0.17835 0.90497 0.0
C654 C 0.71569 0.17175 0.78684 0.0
O655 O 0.71936 0.14017 0.80403 0.0
O656 O 0.65971 0.11235 0.76141 0.0
O657 O 0.62465 0.07886 0.80072 0.0
H658 H 0.61005 0.1325 0.63026 0.0
H659 H 0.6845 0.1356 0.88785 0.0
O660 O 0.60802 0.12578 0.90713 0.0
H661 H 0.70861 0.00587 0.87412 0.0
H662 H 0.58545 0.00656 0.95224 0.0
H663 H 0.56565 0.05179 0.81532 0.0
H664 H 0.65078 0.03107 0.85179 0.0
H665 H 0.61444 0.06274 0.92995 0.0
O666 O 0.68477 0.18318 0.77629 0.0
H667 H 0.6135 0.11913 0.7024 0.0
H668 H 0.65384 0.22418 0.72572 0.0
H669 H 0.539 0.99416 0.83513 0.0
H670 H 0.74228 0.11146 0.91086 0.0
H671 H 0.54791 0.97133 0.90445 0.0
H672 H 0.75489 0.04603 0.9043 0.0
O673 O 0.56873 0.12262 0.83174 0.0
H674 H 0.62499 0.27472 0.85241 0.0
H675 H 0.57107 0.19907 0.74651 0.0
H676 H 0.5417 0.25623 0.76519 0.0
H677 H 0.56873 0.29456 0.81843 0.0
H678 H 0.6533 0.21712 0.83302 0.0
H679 H 0.65117 0.23863 0.6538 0.0
H680 H 0.62902 0.19265 0.60551 0.0
O681 O 0.58759 0.13663 0.77024 0.0
C682 C 0.64866 0.08195 0.77398 0.0
C683 C 0.61973 0.15278 0.65099 0.0
C684 C 0.64284 0.21232 0.6642 0.0
N685 N 0.63382 0.1708 0.71829 0.0
C686 C 0.62172 0.14535 0.69189 0.0
C687 C 0.64441 0.20393 0.70488 0.0
C688 C 0.63039 0.18652 0.63712 0.0
C689 C 0.68872 0.10704 0.88605 0.0
N690 N 0.66278 0.08471 0.87068 0.0
C691 C 0.72202 0.09351 0.89864 0.0
C692 C 0.72915 0.05685 0.89481 0.0
C693 C 0.70318 0.03432 0.878 0.0
C694 C 0.67022 0.04882 0.86572 0.0
C695 C 0.58092 0.01636 0.92215 0.0
C696 C 0.5702 0.04205 0.84535 0.0
C697 C 0.59683 0.04851 0.90954 0.0
N698 N 0.59166 0.06081 0.87137 0.0
C699 C 0.55462 0.00944 0.85661 0.0
C700 C 0.55989 0.9966 0.89534 0.0
C701 C 0.56234 0.12958 0.79477 0.0
C702 C 0.61296 0.25827 0.82916 0.0
C703 C 0.58288 0.21545 0.7699 0.0
C704 C 0.56619 0.24787 0.78025 0.0
C705 C 0.58138 0.26937 0.8101 0.0
N706 N 0.61387 0.20475 0.78873 0.0
C707 C 0.6289 0.22567 0.81803 0.0
Co708 Co 0.8996 0.37413 0.6639 0.0
Co709 Co 0.84256 0.34999 0.73854 0.0
O710 O 0.85705 0.34726 0.68203 0.0
C711 C 0.85396 0.36342 0.58882 0.0
O712 O 0.82782 0.34763 0.60853 0.0
C713 C 0.83013 0.27372 0.75992 0.0
O714 O 0.8547 0.27792 0.78795 0.0
O715 O 0.89091 0.33143 0.75451 0.0
O716 O 0.92253 0.36964 0.71719 0.0
H717 H 0.8613 0.37962 0.88388 0.0
H718 H 0.87494 0.3038 0.62751 0.0
O719 O 0.87971 0.37899 0.60767 0.0
H720 H 0.00488 0.2887 0.65242 0.0
H721 H 1.00094 0.4074 0.57067 0.0
H722 H 0.94356 0.4324 0.70059 0.0
H723 H 0.97443 0.34496 0.67126 0.0
H724 H 0.94668 0.37411 0.59128 0.0
O725 O 0.82383 0.29923 0.73519 0.0
H726 H 0.87787 0.37639 0.81258 0.0
H727 H 0.77698 0.32821 0.78464 0.0
H728 H 0.99877 0.46483 0.6823 0.0
H729 H 0.90439 0.24745 0.60791 0.0
H730 H 0.02801 0.45245 0.61673 0.0
H731 H 0.96996 0.23944 0.62011 0.0
O732 O 0.87606 0.42022 0.68223 0.0
H733 H 0.72933 0.34944 0.65563 0.0
H734 H 0.79597 0.41203 0.76315 0.0
H735 H 0.73696 0.4355 0.74128 0.0
H736 H 0.70312 0.40406 0.68727 0.0
H737 H 0.78867 0.32711 0.6781 0.0
H738 H 0.75936 0.33079 0.85566 0.0
H739 H 0.80167 0.35668 0.90584 0.0
O740 O 0.86034 0.40115 0.74338 0.0
C741 C 0.92056 0.34543 0.74378 0.0
C742 C 0.84262 0.3683 0.86231 0.0
C743 C 0.78541 0.34091 0.84647 0.0
N744 N 0.82843 0.35221 0.79445 0.0
C745 C 0.85185 0.36642 0.82189 0.0
C746 C 0.79554 0.33952 0.8063 0.0
C747 C 0.80916 0.35543 0.8746 0.0
C748 C 0.90353 0.30138 0.63199 0.0
N749 N 0.92303 0.32891 0.6486 0.0
C750 C 0.92007 0.26898 0.62124 0.0
C751 C 0.95682 0.26444 0.6282 0.0
C752 C 0.97642 0.29207 0.6462 0.0
C753 C 0.95896 0.32406 0.65659 0.0
C754 C 0.98831 0.4133 0.59908 0.0
C755 C 0.9558 0.42698 0.67193 0.0
C756 C 0.95714 0.39499 0.61055 0.0
N757 N 0.94138 0.40172 0.64672 0.0
C758 C 0.98715 0.44553 0.66167 0.0
C759 C 0.00349 0.43858 0.62497 0.0
C760 C 0.86748 0.42653 0.71881 0.0
C761 C 0.74378 0.36335 0.67924 0.0
C762 C 0.78158 0.39833 0.7394 0.0
C763 C 0.74809 0.41168 0.72726 0.0
C764 C 0.72911 0.39401 0.69697 0.0
N765 N 0.79575 0.36815 0.72194 0.0
C766 C 0.77735 0.35078 0.69215 0.0
Co767 Co 0.61609 0.89375 0.65798 0.0
Co768 Co 0.64808 0.8603 0.74556 0.0
O769 O 0.6487 0.85977 0.68611 0.0
C770 C 0.63416 0.84053 0.59172 0.0
O771 O 0.65777 0.82207 0.61269 0.0
C772 C 0.72433 0.83592 0.72489 0.0
O773 O 0.7187 0.83984 0.6864 0.0
O774 O 0.66312 0.91211 0.74367 0.0
O775 O 0.61811 0.92805 0.70367 0.0
H776 H 0.61744 0.91639 0.87802 0.0
H777 H 0.69098 0.87353 0.62952 0.0
O778 O 0.61225 0.86199 0.60901 0.0
H779 H 0.6836 0.00472 0.61286 0.0
H780 H 0.56396 0.96237 0.54089 0.0
H781 H 0.55202 0.93516 0.68455 0.0
H782 H 0.63251 0.9712 0.6402 0.0
H783 H 0.6078 0.92283 0.57471 0.0
O784 O 0.70021 0.84518 0.74989 0.0
H785 H 0.61799 0.91166 0.80446 0.0
H786 H 0.67782 0.81422 0.81159 0.0
H787 H 0.50838 0.97558 0.6523 0.0
H788 H 0.74224 0.90573 0.60132 0.0
H789 H 0.51389 0.98946 0.57988 0.0
H790 H 0.73904 0.97206 0.5926 0.0
O791 O 0.57432 0.86851 0.68369 0.0
H792 H 0.65007 0.73091 0.69949 0.0
H793 H 0.59423 0.81775 0.79216 0.0
H794 H 0.57465 0.7544 0.79302 0.0
H795 H 0.60282 0.71034 0.74668 0.0
H796 H 0.6684 0.79451 0.69916 0.0
H797 H 0.67822 0.81812 0.88523 0.0
H798 H 0.64773 0.86939 0.91895 0.0
O799 O 0.59538 0.87376 0.74609 0.0
C800 C 0.64466 0.93632 0.72592 0.0
C801 C 0.63074 0.89386 0.86369 0.0
C802 C 0.6649 0.83875 0.86772 0.0
N803 N 0.64775 0.86262 0.80366 0.0
C804 C 0.63109 0.891 0.82202 0.0
C805 C 0.6647 0.83677 0.82598 0.0
C806 C 0.64777 0.86751 0.88663 0.0
C807 C 0.68834 0.90184 0.62483 0.0
N808 N 0.65733 0.91958 0.63476 0.0
C809 C 0.71797 0.92025 0.60923 0.0
C810 C 0.71624 0.95743 0.60449 0.0
C811 C 0.68516 0.97572 0.61577 0.0
C812 C 0.65608 0.95636 0.63115 0.0
C813 C 0.56103 0.95639 0.5724 0.0
C814 C 0.55477 0.9409 0.65305 0.0
C815 C 0.58552 0.93359 0.59159 0.0
N816 N 0.58228 0.92611 0.63149 0.0
C817 C 0.52986 0.96389 0.6349 0.0
C818 C 0.533 0.97162 0.59429 0.0
C819 C 0.56943 0.86813 0.72163 0.0
C820 C 0.63785 0.74976 0.72014 0.0
C821 C 0.60677 0.79884 0.77193 0.0
C822 C 0.5955 0.76294 0.77256 0.0
C823 C 0.61129 0.73825 0.74655 0.0
N824 N 0.63329 0.80991 0.74638 0.0
C825 C 0.6484 0.7859 0.72033 0.0
Co826 Co 0.1123 0.61814 0.65773 0.0
Co827 Co 0.142 0.65072 0.74688 0.0
O828 O 0.14544 0.65058 0.68752 0.0
C829 C 0.16802 0.63481 0.59412 0.0
O830 O 0.18636 0.65846 0.61522 0.0
C831 C 0.16519 0.72752 0.72662 0.0
O832 O 0.16099 0.72231 0.6881 0.0
O833 O 0.09064 0.66642 0.7414 0.0
O834 O 0.07598 0.62127 0.70107 0.0
H835 H 0.07935 0.62272 0.87611 0.0
H836 H 0.13501 0.69228 0.62866 0.0
O837 O 0.14647 0.61293 0.61122 0.0
H838 H 0.00444 0.68682 0.60524 0.0
H839 H 0.04767 0.56666 0.53717 0.0
H840 H 0.06774 0.55578 0.68241 0.0
H841 H 0.03598 0.63571 0.63558 0.0
H842 H 0.08687 0.60969 0.57287 0.0
O843 O 0.15744 0.70264 0.75131 0.0
H844 H 0.08737 0.62239 0.80293 0.0
H845 H 0.18575 0.68008 0.8152 0.0
H846 H 0.02695 0.51345 0.64861 0.0
H847 H 0.10486 0.74348 0.59749 0.0
H848 H 0.01694 0.51813 0.57523 0.0
H849 H 0.03884 0.74126 0.58535 0.0
O850 O 0.1355 0.57622 0.68577 0.0
H851 H 0.27345 0.65303 0.71031 0.0
H852 H 0.1817 0.59584 0.79557 0.0
H853 H 0.2449 0.57591 0.80036 0.0
H854 H 0.29138 0.60473 0.75772 0.0
H855 H 0.20991 0.67177 0.70606 0.0
H856 H 0.17863 0.68127 0.88849 0.0
H857 H 0.12521 0.65232 0.91945 0.0
O858 O 0.12775 0.59826 0.74746 0.0
C859 C 0.06709 0.64824 0.72218 0.0
C860 C 0.10279 0.63536 0.863 0.0
C861 C 0.15848 0.66827 0.86994 0.0
N862 N 0.13705 0.65105 0.80474 0.0
C863 C 0.10752 0.63521 0.82156 0.0
C864 C 0.1623 0.66761 0.82838 0.0
C865 C 0.12851 0.652 0.88729 0.0
C866 C 0.10688 0.69 0.62248 0.0
N867 N 0.08825 0.65949 0.63218 0.0
C868 C 0.08962 0.71963 0.60521 0.0
C869 C 0.05261 0.71845 0.59855 0.0
C870 C 0.03335 0.68793 0.60962 0.0
C871 C 0.0516 0.65882 0.6267 0.0
C872 C 0.05215 0.56387 0.56904 0.0
C873 C 0.0637 0.55813 0.6506 0.0
C874 C 0.07489 0.5878 0.58928 0.0
N875 N 0.08054 0.58473 0.62959 0.0
C876 C 0.04051 0.53397 0.6315 0.0
C877 C 0.03486 0.53674 0.59039 0.0
C878 C 0.13444 0.57212 0.72379 0.0
C879 C 0.25351 0.64047 0.72928 0.0
C880 C 0.20171 0.60861 0.77692 0.0
C881 C 0.23749 0.59718 0.77978 0.0
C882 C 0.26354 0.61333 0.75584 0.0
N883 N 0.19208 0.63554 0.75109 0.0
C884 C 0.21744 0.65116 0.72719 0.0
Co885 Co 0.36505 0.10352 0.66888 0.0
Co886 Co 0.33973 0.15368 0.74932 0.0
O887 O 0.33721 0.14448 0.69083 0.0
C888 C 0.35564 0.15334 0.59673 0.0
O889 O 0.33807 0.17802 0.61703 0.0
C890 C 0.26241 0.17391 0.72748 0.0
O891 O 0.2651 0.16217 0.69058 0.0
O892 O 0.32075 0.10427 0.75929 0.0
O893 O 0.36037 0.07705 0.71981 0.0
H894 H 0.37092 0.12082 0.89107 0.0
H895 H 0.29588 0.12885 0.63038 0.0
O896 O 0.3707 0.12696 0.61476 0.0
H897 H 0.28088 0.99822 0.64868 0.0
H898 H 0.40172 0.00962 0.56734 0.0
H899 H 0.42403 0.05862 0.70235 0.0
H900 H 0.33654 0.02828 0.67072 0.0
H901 H 0.36608 0.06081 0.59261 0.0
O902 O 0.28908 0.17227 0.7514 0.0
H903 H 0.36773 0.11169 0.81806 0.0
H904 H 0.31602 0.21304 0.80397 0.0
H905 H 0.45897 0.00657 0.67921 0.0
H906 H 0.24017 0.09987 0.60753 0.0
H907 H 0.44818 0.98163 0.611 0.0
H908 H 0.23218 0.03395 0.6165 0.0
O909 O 0.41068 0.12635 0.68968 0.0
H910 H 0.34132 0.27362 0.67956 0.0
H911 H 0.40048 0.19806 0.78172 0.0
H912 H 0.42426 0.25877 0.76795 0.0
H913 H 0.39452 0.2971 0.71669 0.0
H914 H 0.31871 0.21259 0.69394 0.0
H915 H 0.31836 0.22311 0.87687 0.0
H916 H 0.34613 0.17688 0.92094 0.0
O917 O 0.39096 0.13593 0.75192 0.0
C918 C 0.33516 0.07592 0.74522 0.0
C919 C 0.35886 0.14121 0.87217 0.0
C920 C 0.32933 0.1986 0.8642 0.0
N921 N 0.34199 0.16189 0.80669 0.0
C922 C 0.35704 0.13622 0.83079 0.0
C923 C 0.32801 0.1927 0.82294 0.0
C924 C 0.34491 0.17266 0.88891 0.0
C925 C 0.29338 0.10022 0.63371 0.0
N926 N 0.32045 0.08042 0.65067 0.0
C927 C 0.26138 0.08389 0.621 0.0
C928 C 0.25686 0.04694 0.62613 0.0
C929 C 0.28417 0.0269 0.6441 0.0
C930 C 0.31576 0.04418 0.65644 0.0
C931 C 0.407 0.02042 0.59689 0.0
C932 C 0.41918 0.04826 0.6726 0.0
C933 C 0.3873 0.04983 0.61108 0.0
N934 N 0.39347 0.06342 0.64854 0.0
C935 C 0.43916 0.01866 0.65958 0.0
C936 C 0.43305 0.00472 0.62142 0.0
C937 C 0.41665 0.1318 0.72705 0.0
C938 C 0.35441 0.25725 0.70212 0.0
C939 C 0.3874 0.21449 0.75928 0.0
C940 C 0.40098 0.2489 0.75167 0.0
C941 C 0.38428 0.27039 0.72291 0.0
N942 N 0.3579 0.20186 0.73896 0.0
C943 C 0.34159 0.22269 0.71052 0.0
C944 C 0.29788 0.28402 0.30779 0.0
C945 C 0.31937 0.26346 0.28186 0.0
H946 H 0.25603 0.3234 0.31322 0.0
C947 C 0.31787 0.27085 0.24053 0.0
H948 H 0.29837 0.27916 0.33974 0.0
C949 C 0.29356 0.29624 0.22524 0.0
C950 C 0.27003 0.31473 0.25091 0.0
H951 H 0.33434 0.25579 0.21967 0.0
H952 H 0.29182 0.29982 0.19314 0.0
C953 C 0.27344 0.3093 0.29249 0.0
C954 C 0.7368 0.28893 0.29593 0.0
C955 C 0.75709 0.30976 0.26917 0.0
H956 H 0.69833 0.24654 0.30319 0.0
C957 C 0.75048 0.30589 0.22779 0.0
H958 H 0.74113 0.2911 0.32791 0.0
C959 C 0.72557 0.28041 0.21351 0.0
C960 C 0.70715 0.25794 0.24031 0.0
H961 H 0.76552 0.32165 0.20631 0.0
H962 H 0.7222 0.27704 0.18152 0.0
C963 C 0.71235 0.2632 0.28168 0.0
C964 C 0.72436 0.68682 0.28488 0.0
C965 C 0.75206 0.69218 0.25672 0.0
H966 H 0.67808 0.70933 0.31442 0.0
C967 C 0.75221 0.72419 0.2344 0.0
H968 H 0.72343 0.66243 0.30259 0.0
C969 C 0.72668 0.75097 0.24157 0.0
C970 C 0.70003 0.74647 0.27098 0.0
H971 H 0.77295 0.72931 0.2124 0.0
H972 H 0.72829 0.77559 0.22437 0.0
C973 C 0.69842 0.71367 0.29177 0.0
C974 C 0.28789 0.75784 0.25926 0.0
C975 C 0.32403 0.74727 0.25468 0.0
H976 H 0.23346 0.74175 0.26874 0.0
C977 C 0.33257 0.71039 0.25583 0.0
H978 H 0.28029 0.786 0.25859 0.0
C979 C 0.30507 0.68458 0.25998 0.0
C980 C 0.26897 0.69545 0.26483 0.0
H981 H 0.36022 0.70156 0.25249 0.0
H982 H 0.31197 0.65622 0.25948 0.0
C983 C 0.26091 0.73238 0.26519 0.0
C984 C 0.76201 0.81005 0.78079 0.0
C985 C 0.7545 0.81295 0.7395 0.0
H986 H 0.78958 0.78091 0.82726 0.0
C987 C 0.77276 0.79005 0.71294 0.0
H988 H 0.74852 0.82738 0.80211 0.0
C989 C 0.79588 0.76326 0.72741 0.0
C990 C 0.80176 0.75895 0.7688 0.0
H991 H 0.76768 0.79139 0.68104 0.0
H992 H 0.80825 0.74506 0.70612 0.0
C993 C 0.78559 0.78346 0.79527 0.0
C994 C 0.18988 0.76492 0.78318 0.0
C995 C 0.18593 0.75907 0.74171 0.0
H996 H 0.21862 0.79234 0.82995 0.0
C997 C 0.20556 0.78089 0.7153 0.0
H998 H 0.17486 0.74892 0.80445 0.0
C999 C 0.23063 0.80586 0.73 0.0
C1000 C 0.23661 0.80971 0.77146 0.0
H1001 H 0.20311 0.77731 0.68324 0.0
H1002 H 0.24657 0.82094 0.70873 0.0
C1003 C 0.21489 0.79 0.79789 0.0
C1004 C 0.19767 0.22226 0.79609 0.0
C1005 C 0.17908 0.24449 0.76911 0.0
H1006 H 0.23876 0.18236 0.80383 0.0
C1007 C 0.18448 0.2395 0.72774 0.0
H1008 H 0.19422 0.22549 0.82806 0.0
C1009 C 0.20972 0.21445 0.71377 0.0
C1010 C 0.23043 0.19438 0.74095 0.0
H1011 H 0.17036 0.25615 0.70619 0.0
H1012 H 0.21465 0.21257 0.68191 0.0
C1013 C 0.22331 0.19768 0.78216 0.0
C1014 C 0.7449 0.21962 0.74624 0.0
C1015 C 0.74732 0.19449 0.77757 0.0
H1016 H 0.76933 0.26348 0.71537 0.0
C1017 C 0.77925 0.19272 0.80016 0.0
H1018 H 0.72098 0.22118 0.72767 0.0
C1019 C 0.80727 0.2173 0.79311 0.0
C1020 C 0.80393 0.24368 0.76303 0.0
H1021 H 0.78193 0.17346 0.82431 0.0
H1022 H 0.83091 0.21648 0.81221 0.0
C1023 C 0.77286 0.24374 0.73891 0.0
C1024 C 0.18691 0.33045 0.98565 0.0
C1025 C 0.16489 0.35638 0.96668 0.0
H1026 H 0.20101 0.30411 0.04114 0.0
C1027 C 0.13862 0.37377 0.98982 0.0
H1028 H 0.20739 0.31626 0.96885 0.0
C1029 C 0.13221 0.36372 0.02912 0.0
C1030 C 0.15507 0.33956 0.04911 0.0
H1031 H 0.12232 0.39515 0.97757 0.0
H1032 H 0.10966 0.3761 0.0442 0.0
C1033 C 0.18266 0.32281 0.02683 0.0
C1034 C 0.6094 0.12351 0.99162 0.0
C1035 C 0.62797 0.14974 0.96942 0.0
H1036 H 0.60225 0.09745 0.04805 0.0
C1037 C 0.65468 0.17027 0.98904 0.0
H1038 H 0.58873 0.1071 0.97767 0.0
C1039 C 0.6626 0.16461 0.02972 0.0
C1040 C 0.64393 0.13835 0.05185 0.0
H1041 H 0.66994 0.19035 0.97284 0.0
H1042 H 0.6829 0.18128 0.04398 0.0
C1043 C 0.61731 0.11785 0.03211 0.0
C1044 C 0.83766 0.66415 0.98215 0.0
C1045 C 0.85654 0.63805 0.95992 0.0
H1046 H 0.83021 0.68991 0.03913 0.0
C1047 C 0.88352 0.61797 0.97954 0.0
H1048 H 0.81704 0.68047 0.96803 0.0
C1049 C 0.8918 0.62412 0.01985 0.0
C1050 C 0.87291 0.65004 0.04224 0.0
H1051 H 0.89866 0.59757 0.96365 0.0
H1052 H 0.913 0.60824 0.03349 0.0
C1053 C 0.84569 0.67002 0.02281 0.0
C1054 C 0.32216 0.83929 0.02693 0.0
C1055 C 0.34368 0.86623 0.04495 0.0
H1056 H 0.30978 0.80962 0.97302 0.0
C1057 C 0.37081 0.8821 0.02182 0.0
H1058 H 0.301 0.82622 0.04377 0.0
C1059 C 0.37862 0.86945 0.98369 0.0
C1060 C 0.35626 0.84422 0.96453 0.0
H1061 H 0.38655 0.90427 0.03322 0.0
H1062 H 0.4019 0.8805 0.96879 0.0
C1063 C 0.32777 0.82909 0.9867 0.0
C1064 C 0.1471 0.61128 0.52795 0.0
C1065 C 0.16481 0.63839 0.54983 0.0
H1066 H 0.12111 0.59597 0.4739 0.0
C1067 C 0.17398 0.67051 0.52989 0.0
H1068 H 0.14003 0.58595 0.54192 0.0
C1069 C 0.16489 0.67542 0.48928 0.0
C1070 C 0.1456 0.64872 0.46808 0.0
H1071 H 0.18732 0.69218 0.54584 0.0
H1072 H 0.17271 0.70022 0.47466 0.0
C1073 C 0.13652 0.61688 0.48839 0.0
C1074 C 0.36638 0.12096 0.53205 0.0
C1075 C 0.35147 0.15064 0.55232 0.0
H1076 H 0.37036 0.09089 0.47798 0.0
C1077 C 0.32989 0.17481 0.53024 0.0
H1078 H 0.38374 0.10206 0.54731 0.0
C1079 C 0.324 0.16951 0.48893 0.0
C1080 C 0.33879 0.13941 0.46909 0.0
H1081 H 0.31764 0.19783 0.54479 0.0
H1082 H 0.30846 0.18929 0.47248 0.0
C1083 C 0.35912 0.11479 0.4917 0.0
C1084 C 0.84059 0.32663 0.48263 0.0
C1085 C 0.87194 0.33911 0.46344 0.0
H1086 H 0.80999 0.3246 0.53717 0.0
C1087 C 0.89677 0.35939 0.48598 0.0
H1088 H 0.82062 0.31127 0.46616 0.0
C1089 C 0.88963 0.36889 0.52554 0.0
C1090 C 0.85849 0.35657 0.54505 0.0
H1091 H 0.92145 0.36913 0.4726 0.0
H1092 H 0.9088 0.38607 0.54069 0.0
C1093 C 0.83413 0.33494 0.52314 0.0
C1094 C 0.61124 0.86241 0.52556 0.0
C1095 C 0.63769 0.84368 0.5474 0.0
H1096 H 0.59623 0.88761 0.4709 0.0
C1097 C 0.66924 0.8329 0.5273 0.0
H1098 H 0.58635 0.87078 0.53962 0.0
C1099 C 0.67422 0.84121 0.48658 0.0
C1100 C 0.64809 0.8611 0.46526 0.0
H1101 H 0.69042 0.81876 0.54319 0.0
H1102 H 0.69855 0.83213 0.47188 0.0
C1103 C 0.61679 0.87184 0.48566 0.0
C1104 C 0.14528 0.53404 0.22882 0.0
C1105 C 0.17277 0.54658 0.25377 0.0
H1106 H 0.11908 0.48889 0.20333 0.0
C1107 C 0.19879 0.52239 0.26843 0.0
H1108 H 0.12435 0.55212 0.21826 0.0
C1109 C 0.19568 0.4854 0.2604 0.0
C1110 C 0.16646 0.47255 0.23766 0.0
H1111 H 0.21983 0.53171 0.28848 0.0
H1112 H 0.2152 0.46692 0.27307 0.0
C1113 C 0.14198 0.49752 0.22109 0.0
C1114 C 0.5387 0.1389 0.29826 0.0
C1115 C 0.55064 0.16708 0.27411 0.0
H1116 H 0.49395 0.11106 0.32225 0.0
C1117 C 0.52594 0.19301 0.26044 0.0
H1118 H 0.55712 0.11792 0.30786 0.0
C1119 C 0.48908 0.18904 0.26826 0.0
C1120 C 0.47679 0.15896 0.28968 0.0
H1121 H 0.53473 0.21453 0.24092 0.0
H1122 H 0.47023 0.20842 0.256 0.0
C1123 C 0.50221 0.13467 0.30567 0.0
C1124 C 0.82603 0.51894 0.24019 0.0
C1125 C 0.85037 0.54439 0.25581 0.0
H1126 H 0.8114 0.46295 0.23656 0.0
C1127 C 0.8769 0.5335 0.28285 0.0
H1128 H 0.8058 0.52699 0.21854 0.0
C1129 C 0.88065 0.49735 0.29235 0.0
C1130 C 0.85778 0.47114 0.27519 0.0
H1131 H 0.89666 0.55254 0.29411 0.0
H1132 H 0.90273 0.48999 0.31193 0.0
C1133 C 0.82964 0.48238 0.2499 0.0
C1134 C 0.52507 0.81115 0.25788 0.0
C1135 C 0.55071 0.8361 0.24405 0.0
H1136 H 0.46882 0.79721 0.2613 0.0
C1137 C 0.53967 0.86398 0.21889 0.0
H1138 H 0.53309 0.78982 0.27809 0.0
C1139 C 0.50341 0.86894 0.21056 0.0
C1140 C 0.47706 0.84567 0.22645 0.0
H1141 H 0.55858 0.88442 0.20925 0.0
H1142 H 0.4961 0.89247 0.19324 0.0
C1143 C 0.48834 0.81581 0.249 0.0
C1144 C 0.86791 0.50489 0.79345 0.0
C1145 C 0.86832 0.53517 0.76837 0.0
H1146 H 0.86696 0.44737 0.79768 0.0
C1147 C 0.86903 0.52934 0.72653 0.0
H1148 H 0.86742 0.50815 0.82565 0.0
C1149 C 0.86918 0.49438 0.71029 0.0
C1150 C 0.86808 0.4641 0.73535 0.0
H1151 H 0.8696 0.55189 0.70603 0.0
H1152 H 0.86973 0.49113 0.67809 0.0
C1153 C 0.86754 0.46993 0.7772 0.0
C1154 C 0.50183 0.86164 0.71402 0.0
C1155 C 0.53234 0.86495 0.73873 0.0
H1156 H 0.44441 0.85792 0.71036 0.0
C1157 C 0.52711 0.86594 0.7806 0.0
H1158 H 0.50461 0.86086 0.68178 0.0
C1159 C 0.49247 0.86405 0.7972 0.0
C1160 C 0.46191 0.86129 0.77246 0.0
H1161 H 0.54984 0.86861 0.80081 0.0
H1162 H 0.48964 0.86545 0.82941 0.0
C1163 C 0.46718 0.85989 0.73061 0.0
C1164 C 0.10134 0.48684 0.77357 0.0
C1165 C 0.13368 0.46944 0.78397 0.0
H1166 H 0.07638 0.53329 0.74732 0.0
C1167 C 0.16649 0.48539 0.77266 0.0
H1168 H 0.0756 0.47454 0.78008 0.0
C1169 C 0.16687 0.51818 0.75157 0.0
C1170 C 0.13442 0.53557 0.74151 0.0
H1171 H 0.19179 0.47212 0.77936 0.0
H1172 H 0.19247 0.53012 0.74349 0.0
C1173 C 0.10174 0.51996 0.75353 0.0
C1174 C 0.45958 0.13002 0.78596 0.0
C1175 C 0.4541 0.13043 0.74401 0.0
H1176 H 0.4974 0.12897 0.83489 0.0
C1177 C 0.48457 0.12933 0.71932 0.0
H1178 H 0.43688 0.1306 0.80621 0.0
C1179 C 0.51937 0.1286 0.736 0.0
C1180 C 0.52486 0.12858 0.77793 0.0
H1181 H 0.4816 0.12939 0.68707 0.0
H1182 H 0.54209 0.12816 0.71576 0.0
C1183 C 0.49439 0.12892 0.80264 0.0
C1184 C 0.68193 0.02465 0.76642 0.0
C1185 C 0.65612 0.04903 0.7517 0.0
H1186 H 0.6986 0.96924 0.77023 0.0
C1187 C 0.62903 0.03672 0.72604 0.0
H1188 H 0.70254 0.03367 0.78718 0.0
C1189 C 0.62604 1.00026 0.71746 0.0
C1190 C 0.65042 0.97514 0.7339 0.0
H1191 H 0.60802 0.05477 0.71568 0.0
H1192 H 0.6033 0.99175 0.69938 0.0
C1193 C 0.67922 0.98781 0.75743 0.0
C1194 C 0.97769 0.68852 0.75441 0.0
C1195 C 0.95377 0.6619 0.74055 0.0
H1196 H 0.03306 0.7049 0.76027 0.0
C1197 C 0.96675 0.63344 0.71738 0.0
H1198 H 0.96803 0.71035 0.77305 0.0
C1199 C 0.00346 0.62976 0.71104 0.0
C1200 C 0.02811 0.65474 0.72735 0.0
H1201 H 0.94885 0.61208 0.70749 0.0
H1202 H 0.01248 0.60611 0.69494 0.0
C1203 C 0.01482 0.68497 0.74788 0.0
C1204 C 0.30451 0.01703 0.75258 0.0
C1205 C 0.33125 0.0414 0.76526 0.0
H1206 H 0.28906 0.96126 0.74712 0.0
C1207 C 0.36199 0.02856 0.7847 0.0
H1208 H 0.28108 0.02656 0.73631 0.0
C1209 C 0.36754 0.99191 0.78858 0.0
C1210 C 0.3417 0.96693 0.77478 0.0
H1211 H 0.3835 0.04681 0.79339 0.0
H1212 H 0.39275 0.98326 0.80188 0.0
C1213 C 0.30958 0.97981 0.7576 0.0
C1214 C 0.01501 0.31829 0.76156 0.0
C1215 C 0.02727 0.3492 0.78169 0.0
H1216 H 0.96922 0.29127 0.73588 0.0
C1217 C 1.00187 0.37397 0.79665 0.0
H1218 H 0.03389 0.29846 0.75036 0.0
C1219 C 0.96535 0.36924 0.78955 0.0
C1220 C 0.95337 0.33997 0.76683 0.0
H1221 H 0.01019 0.39804 0.81258 0.0
H1222 H 0.9468 0.39035 0.79844 0.0
C1223 C 0.9781 0.31369 0.75423 0.0
C1224 C 0.37148 0.03544 0.23353 0.0
C1225 C 0.37135 0.03898 0.27565 0.0
H1226 H 0.37281 1.00001 0.18271 0.0
C1227 C 0.37246 0.00743 0.29874 0.0
H1228 H 0.37097 0.05901 0.2145 0.0
C1229 C 0.37391 0.97345 0.28027 0.0
C1230 C 0.37396 0.96993 0.23813 0.0
H1231 H 0.37275 0.00893 0.3311 0.0
H1232 H 0.37521 0.94987 0.29927 0.0
C1233 C 0.37263 1.00147 0.21508 0.0
C1234 C 0.99445 0.33543 0.26123 0.0
C1235 C 0.97958 0.36765 0.27609 0.0
H1236 H 0.03903 0.31023 0.23089 0.0
C1237 C 0.99853 0.39995 0.27008 0.0
H1238 H 0.9803 0.31017 0.26502 0.0
C1239 C 0.03206 0.39993 0.25087 0.0
C1240 C 0.04676 0.36784 0.23567 0.0
H1241 H 0.98734 0.4254 0.27961 0.0
H1242 H 0.04664 0.42509 0.24811 0.0
C1243 C 0.02775 0.3355 0.2412 0.0
C1244 C 0.62969 0.99706 0.30157 0.0
C1245 C 0.62752 0.96692 0.27629 0.0
H1246 H 0.63297 0.05449 0.3061 0.0
C1247 C 0.62532 0.9729 0.23456 0.0
H1248 H 0.63146 0.99363 0.3337 0.0
C1249 C 0.62592 0.00784 0.21855 0.0
C1250 C 0.62918 0.03796 0.24372 0.0
H1251 H 0.62333 0.95043 0.21395 0.0
H1252 H 0.62445 0.01117 0.1864 0.0
C1253 C 0.63075 0.03203 0.28552 0.0
C1254 C 0.0139 0.63289 0.29647 0.0
C1255 C 0.04517 0.63316 0.27291 0.0
H1256 H 0.95623 0.63322 0.29802 0.0
C1257 C 0.04086 0.63333 0.23083 0.0
H1258 H 0.01593 0.63271 0.3288 0.0
C1259 C 0.00645 0.63322 0.21294 0.0
C1260 C 0.97519 0.63345 0.23652 0.0
H1261 H 0.0642 0.63336 0.21146 0.0
H1262 H 0.0044 0.63327 0.1806 0.0
C1263 C 0.97952 0.63326 0.2786 0.0
loop_
_geom_bond_atom_site_label_1
_geom_bond_atom_site_label_2
_geom_bond_distance
_geom_bond_site_symmetry_2
_ccdc_geom_bond_type
Co0 O2 2.143 . S
Co0 O8 2.074 . S
Co0 O11 2.093 . S
Co0 O24 2.097 . S
Co0 N41 2.151 . S
Co0 N49 2.214 . S
Co1 O2 2.160 . S
Co1 O7 2.058 . S
Co1 O17 2.057 . S
Co1 O32 2.037 . S
Co1 N36 2.145 . S
Co1 N57 2.257 . S
O2 Co0 2.143 . S
O2 Co1 2.160 . S
C3 O4 1.278 . S
C3 O11 1.224 . S
O4 C3 1.278 . S
C5 O6 1.245 . S
C5 O17 1.232 . S
O6 C5 1.245 . S
O7 Co1 2.058 . S
O7 C33 1.269 . S
O8 Co0 2.074 . S
O8 C33 1.257 . S
H9 C34 0.930 . S
H10 C40 0.930 . S
O11 Co0 2.093 . S
O11 C3 1.224 . S
H12 C44 0.929 . S
H13 C46 0.930 . S
H14 C47 0.930 . S
H15 C45 0.929 . S
H16 C48 0.928 . S
O17 Co1 2.057 . S
O17 C5 1.232 . S
H18 C37 0.929 . S
H19 C38 0.929 . S
H20 C50 0.931 . S
H21 C42 0.929 . S
H22 C51 0.930 . S
H23 C43 0.931 . S
O24 Co0 2.097 . S
O24 C52 1.214 . S
H25 C53 0.929 . S
H26 C54 0.929 . S
H27 C55 0.930 . S
H28 C56 0.929 . S
H29 C58 0.930 . S
H30 C35 0.930 . S
H31 C39 0.930 . S
O32 Co1 2.037 . S
O32 C52 1.234 . S
C33 O7 1.269 . S
C33 O8 1.257 . S
C34 H9 0.930 . S
C34 C37 1.388 . S
C34 C39 1.418 . S
C35 H30 0.930 . S
C35 C38 1.404 . S
C35 C39 1.353 . S
N36 Co1 2.145 . S
N36 C37 1.397 . S
N36 C38 1.334 . S
C37 H18 0.929 . S
C37 C34 1.388 . S
C37 N36 1.397 . S
C38 H19 0.929 . S
C38 C35 1.404 . S
C38 N36 1.334 . S
C39 H31 0.930 . S
C39 C34 1.418 . S
C39 C35 1.353 . S
C40 H10 0.930 . S
C40 N41 1.330 . S
C40 C42 1.446 . S
N41 Co0 2.151 . S
N41 C40 1.330 . S
N41 C45 1.418 . S
C42 H21 0.929 . S
C42 C40 1.446 . S
C42 C43 1.332 . S
C43 H23 0.931 . S
C43 C42 1.332 . S
C43 C44 1.267 . S
C44 H12 0.929 . S
C44 C43 1.267 . S
C44 C45 1.251 . S
C45 H15 0.929 . S
C45 N41 1.418 . S
C45 C44 1.251 . S
C46 H13 0.930 . S
C46 C48 1.406 . S
C46 C51 1.261 . S
C47 H14 0.930 . S
C47 N49 1.325 . S
C47 C50 1.357 . S
C48 H16 0.928 . S
C48 C46 1.406 . S
C48 N49 1.261 . S
N49 Co0 2.214 . S
N49 C47 1.325 . S
N49 C48 1.261 . S
C50 H20 0.931 . S
C50 C47 1.357 . S
C50 C51 1.312 . S
C51 H22 0.930 . S
C51 C46 1.261 . S
C51 C50 1.312 . S
C52 O24 1.214 . S
C52 O32 1.234 . S
C53 H25 0.929 . S
C53 C56 1.391 . S
C53 C58 1.391 . S
C54 H26 0.929 . S
C54 C55 1.390 . S
C54 N57 1.391 . S
C55 H27 0.930 . S
C55 C54 1.390 . S
C55 C56 1.392 . S
C56 H28 0.929 . S
C56 C53 1.391 . S
C56 C55 1.392 . S
N57 Co1 2.257 . S
N57 C54 1.391 . S
N57 C58 1.388 . S
C58 H29 0.930 . S
C58 C53 1.391 . S
C58 N57 1.388 . S
Co59 O61 2.143 . S
Co59 O67 2.074 . S
Co59 O70 2.093 . S
Co59 O83 2.097 . S
Co59 N100 2.151 . S
Co59 N108 2.214 . S
Co60 O61 2.160 . S
Co60 O66 2.058 . S
Co60 O76 2.057 . S
Co60 O91 2.037 . S
Co60 N95 2.145 . S
Co60 N116 2.257 . S
O61 Co59 2.143 . S
O61 Co60 2.160 . S
C62 O63 1.278 . S
C62 O70 1.224 . S
O63 C62 1.278 . S
C64 O65 1.245 . S
C64 O76 1.232 . S
O65 C64 1.245 . S
O66 Co60 2.058 . S
O66 C92 1.269 . S
O67 Co59 2.074 . S
O67 C92 1.257 . S
H68 C93 0.930 . S
H69 C99 0.930 . S
O70 Co59 2.093 . S
O70 C62 1.224 . S
H71 C103 0.929 . S
H72 C105 0.930 . S
H73 C106 0.930 . S
H74 C104 0.929 . S
H75 C107 0.928 . S
O76 Co60 2.057 . S
O76 C64 1.232 . S
H77 C96 0.929 . S
H78 C97 0.929 . S
H79 C109 0.931 . S
H80 C101 0.929 . S
H81 C110 0.930 . S
H82 C102 0.931 . S
O83 Co59 2.097 . S
O83 C111 1.214 . S
H84 C112 0.929 . S
H85 C113 0.929 . S
H86 C114 0.930 . S
H87 C115 0.929 . S
H88 C117 0.930 . S
H89 C94 0.930 . S
H90 C98 0.930 . S
O91 Co60 2.037 . S
O91 C111 1.234 . S
C92 O66 1.269 . S
C92 O67 1.257 . S
C93 H68 0.930 . S
C93 C96 1.388 . S
C93 C98 1.418 . S
C94 H89 0.930 . S
C94 C97 1.404 . S
C94 C98 1.353 . S
N95 Co60 2.145 . S
N95 C96 1.397 . S
N95 C97 1.334 . S
C96 H77 0.929 . S
C96 C93 1.388 . S
C96 N95 1.397 . S
C97 H78 0.929 . S
C97 C94 1.404 . S
C97 N95 1.334 . S
C98 H90 0.930 . S
C98 C93 1.418 . S
C98 C94 1.353 . S
C99 H69 0.930 . S
C99 N100 1.330 . S
C99 C101 1.446 . S
N100 Co59 2.151 . S
N100 C99 1.330 . S
N100 C104 1.418 . S
C101 H80 0.929 . S
C101 C99 1.446 . S
C101 C102 1.332 . S
C102 H82 0.931 . S
C102 C101 1.332 . S
C102 C103 1.267 . S
C103 H71 0.929 . S
C103 C102 1.267 . S
C103 C104 1.251 . S
C104 H74 0.929 . S
C104 N100 1.418 . S
C104 C103 1.251 . S
C105 H72 0.930 . S
C105 C107 1.406 . S
C105 C110 1.261 . S
C106 H73 0.930 . S
C106 N108 1.325 . S
C106 C109 1.357 . S
C107 H75 0.928 . S
C107 C105 1.406 . S
C107 N108 1.261 . S
N108 Co59 2.214 . S
N108 C106 1.325 . S
N108 C107 1.261 . S
C109 H79 0.931 . S
C109 C106 1.357 . S
C109 C110 1.312 . S
C110 H81 0.930 . S
C110 C105 1.261 . S
C110 C109 1.312 . S
C111 O83 1.214 . S
C111 O91 1.234 . S
C112 H84 0.929 . S
C112 C115 1.391 . S
C112 C117 1.391 . S
C113 H85 0.929 . S
C113 C114 1.390 . S
C113 N116 1.391 . S
C114 H86 0.930 . S
C114 C113 1.390 . S
C114 C115 1.392 . S
C115 H87 0.929 . S
C115 C112 1.391 . S
C115 C114 1.392 . S
N116 Co60 2.257 . S
N116 C113 1.391 . S
N116 C117 1.388 . S
C117 H88 0.930 . S
C117 C112 1.391 . S
C117 N116 1.388 . S
Co118 O120 2.143 . S
Co118 O126 2.074 . S
Co118 O129 2.093 . S
Co118 O142 2.097 . S
Co118 N159 2.151 . S
Co118 N167 2.214 . S
Co119 O120 2.160 . S
Co119 O125 2.058 . S
Co119 O135 2.057 . S
Co119 O150 2.037 . S
Co119 N154 2.145 . S
Co119 N175 2.257 . S
O120 Co118 2.143 . S
O120 Co119 2.160 . S
C121 O122 1.278 . S
C121 O129 1.224 . S
O122 C121 1.278 . S
C123 O124 1.245 . S
C123 O135 1.232 . S
O124 C123 1.245 . S
O125 Co119 2.058 . S
O125 C151 1.269 . S
O126 Co118 2.074 . S
O126 C151 1.257 . S
H127 C152 0.930 . S
H128 C158 0.930 . S
O129 Co118 2.093 . S
O129 C121 1.224 . S
H130 C162 0.929 . S
H131 C164 0.930 . S
H132 C165 0.930 . S
H133 C163 0.929 . S
H134 C166 0.928 . S
O135 Co119 2.057 . S
O135 C123 1.232 . S
H136 C155 0.929 . S
H137 C156 0.929 . S
H138 C168 0.931 . S
H139 C160 0.929 . S
H140 C169 0.930 . S
H141 C161 0.931 . S
O142 Co118 2.097 . S
O142 C170 1.214 . S
H143 C171 0.929 . S
H144 C172 0.929 . S
H145 C173 0.930 . S
H146 C174 0.929 . S
H147 C176 0.930 . S
H148 C153 0.930 . S
H149 C157 0.930 . S
O150 Co119 2.037 . S
O150 C170 1.234 . S
C151 O125 1.269 . S
C151 O126 1.257 . S
C152 H127 0.930 . S
C152 C155 1.388 . S
C152 C157 1.418 . S
C153 H148 0.930 . S
C153 C156 1.404 . S
C153 C157 1.353 . S
N154 Co119 2.145 . S
N154 C155 1.397 . S
N154 C156 1.334 . S
C155 H136 0.929 . S
C155 C152 1.388 . S
C155 N154 1.397 . S
C156 H137 0.929 . S
C156 C153 1.404 . S
C156 N154 1.334 . S
C157 H149 0.930 . S
C157 C152 1.418 . S
C157 C153 1.353 . S
C158 H128 0.930 . S
C158 N159 1.330 . S
C158 C160 1.446 . S
N159 Co118 2.151 . S
N159 C158 1.330 . S
N159 C163 1.418 . S
C160 H139 0.929 . S
C160 C158 1.446 . S
C160 C161 1.332 . S
C161 H141 0.931 . S
C161 C160 1.332 . S
C161 C162 1.267 . S
C162 H130 0.929 . S
C162 C161 1.267 . S
C162 C163 1.251 . S
C163 H133 0.929 . S
C163 N159 1.418 . S
C163 C162 1.251 . S
C164 H131 0.930 . S
C164 C166 1.406 . S
C164 C169 1.261 . S
C165 H132 0.930 . S
C165 N167 1.325 . S
C165 C168 1.357 . S
C166 H134 0.928 . S
C166 C164 1.406 . S
C166 N167 1.261 . S
N167 Co118 2.214 . S
N167 C165 1.325 . S
N167 C166 1.261 . S
C168 H138 0.931 . S
C168 C165 1.357 . S
C168 C169 1.312 . S
C169 H140 0.930 . S
C169 C164 1.261 . S
C169 C168 1.312 . S
C170 O142 1.214 . S
C170 O150 1.234 . S
C171 H143 0.929 . S
C171 C174 1.391 . S
C171 C176 1.391 . S
C172 H144 0.929 . S
C172 C173 1.390 . S
C172 N175 1.391 . S
C173 H145 0.930 . S
C173 C172 1.390 . S
C173 C174 1.392 . S
C174 H146 0.929 . S
C174 C171 1.391 . S
C174 C173 1.392 . S
N175 Co119 2.257 . S
N175 C172 1.391 . S
N175 C176 1.388 . S
C176 H147 0.930 . S
C176 C171 1.391 . S
C176 N175 1.388 . S
Co177 O179 2.143 . S
Co177 O185 2.074 . S
Co177 O188 2.093 . S
Co177 O201 2.097 . S
Co177 N218 2.151 . S
Co177 N226 2.214 . S
Co178 O179 2.160 . S
Co178 O184 2.058 . S
Co178 O194 2.057 . S
Co178 O209 2.037 . S
Co178 N213 2.145 . S
Co178 N234 2.257 . S
O179 Co177 2.143 . S
O179 Co178 2.160 . S
C180 O181 1.278 . S
C180 O188 1.224 . S
O181 C180 1.278 . S
C182 O183 1.245 . S
C182 O194 1.232 . S
O183 C182 1.245 . S
O184 Co178 2.058 . S
O184 C210 1.269 . S
O185 Co177 2.074 . S
O185 C210 1.257 . S
H186 C211 0.930 . S
H187 C217 0.930 . S
O188 Co177 2.093 . S
O188 C180 1.224 . S
H189 C221 0.929 . S
H190 C223 0.930 . S
H191 C224 0.930 . S
H192 C222 0.929 . S
H193 C225 0.928 . S
O194 Co178 2.057 . S
O194 C182 1.232 . S
H195 C214 0.929 . S
H196 C215 0.929 . S
H197 C227 0.931 . S
H198 C219 0.929 . S
H199 C228 0.930 . S
H200 C220 0.931 . S
O201 Co177 2.097 . S
O201 C229 1.214 . S
H202 C230 0.929 . S
H203 C231 0.929 . S
H204 C232 0.930 . S
H205 C233 0.929 . S
H206 C235 0.930 . S
H207 C212 0.930 . S
H208 C216 0.930 . S
O209 Co178 2.037 . S
O209 C229 1.234 . S
C210 O184 1.269 . S
C210 O185 1.257 . S
C211 H186 0.930 . S
C211 C214 1.388 . S
C211 C216 1.418 . S
C212 H207 0.930 . S
C212 C215 1.404 . S
C212 C216 1.353 . S
N213 Co178 2.145 . S
N213 C214 1.397 . S
N213 C215 1.334 . S
C214 H195 0.929 . S
C214 C211 1.388 . S
C214 N213 1.397 . S
C215 H196 0.929 . S
C215 C212 1.404 . S
C215 N213 1.334 . S
C216 H208 0.930 . S
C216 C211 1.418 . S
C216 C212 1.353 . S
C217 H187 0.930 . S
C217 N218 1.330 . S
C217 C219 1.446 . S
N218 Co177 2.151 . S
N218 C217 1.330 . S
N218 C222 1.418 . S
C219 H198 0.929 . S
C219 C217 1.446 . S
C219 C220 1.332 . S
C220 H200 0.931 . S
C220 C219 1.332 . S
C220 C221 1.267 . S
C221 H189 0.929 . S
C221 C220 1.267 . S
C221 C222 1.251 . S
C222 H192 0.929 . S
C222 N218 1.418 . S
C222 C221 1.251 . S
C223 H190 0.930 . S
C223 C225 1.406 . S
C223 C228 1.261 . S
C224 H191 0.930 . S
C224 N226 1.325 . S
C224 C227 1.357 . S
C225 H193 0.928 . S
C225 C223 1.406 . S
C225 N226 1.261 . S
N226 Co177 2.214 . S
N226 C224 1.325 . S
N226 C225 1.261 . S
C227 H197 0.931 . S
C227 C224 1.357 . S
C227 C228 1.312 . S
C228 H199 0.930 . S
C228 C223 1.261 . S
C228 C227 1.312 . S
C229 O201 1.214 . S
C229 O209 1.234 . S
C230 H202 0.929 . S
C230 C233 1.391 . S
C230 C235 1.391 . S
C231 H203 0.929 . S
C231 C232 1.390 . S
C231 N234 1.391 . S
C232 H204 0.930 . S
C232 C231 1.390 . S
C232 C233 1.392 . S
C233 H205 0.929 . S
C233 C230 1.391 . S
C233 C232 1.392 . S
N234 Co178 2.257 . S
N234 C231 1.391 . S
N234 C235 1.388 . S
C235 H206 0.930 . S
C235 C230 1.391 . S
C235 N234 1.388 . S
Co236 O238 2.143 . S
Co236 O244 2.074 . S
Co236 O247 2.093 . S
Co236 O260 2.097 . S
Co236 N277 2.151 . S
Co236 N285 2.214 . S
Co237 O238 2.160 . S
Co237 O243 2.058 . S
Co237 O253 2.057 . S
Co237 O268 2.037 . S
Co237 N272 2.145 . S
Co237 N293 2.257 . S
O238 Co236 2.143 . S
O238 Co237 2.160 . S
C239 O240 1.278 . S
C239 O247 1.224 . S
O240 C239 1.278 . S
C241 O242 1.245 . S
C241 O253 1.232 . S
O242 C241 1.245 . S
O243 Co237 2.058 . S
O243 C269 1.269 . S
O244 Co236 2.074 . S
O244 C269 1.257 . S
H245 C270 0.930 . S
H246 C276 0.930 . S
O247 Co236 2.093 . S
O247 C239 1.224 . S
H248 C280 0.929 . S
H249 C282 0.930 . S
H250 C283 0.930 . S
H251 C281 0.929 . S
H252 C284 0.928 . S
O253 Co237 2.057 . S
O253 C241 1.232 . S
H254 C273 0.929 . S
H255 C274 0.929 . S
H256 C286 0.931 . S
H257 C278 0.929 . S
H258 C287 0.930 . S
H259 C279 0.931 . S
O260 Co236 2.097 . S
O260 C288 1.214 . S
H261 C289 0.929 . S
H262 C290 0.929 . S
H263 C291 0.930 . S
H264 C292 0.929 . S
H265 C294 0.930 . S
H266 C271 0.930 . S
H267 C275 0.930 . S
O268 Co237 2.037 . S
O268 C288 1.234 . S
C269 O243 1.269 . S
C269 O244 1.257 . S
C270 H245 0.930 . S
C270 C273 1.388 . S
C270 C275 1.418 . S
C271 H266 0.930 . S
C271 C274 1.404 . S
C271 C275 1.353 . S
N272 Co237 2.145 . S
N272 C273 1.397 . S
N272 C274 1.334 . S
C273 H254 0.929 . S
C273 C270 1.388 . S
C273 N272 1.397 . S
C274 H255 0.929 . S
C274 C271 1.404 . S
C274 N272 1.334 . S
C275 H267 0.930 . S
C275 C270 1.418 . S
C275 C271 1.353 . S
C276 H246 0.930 . S
C276 N277 1.330 . S
C276 C278 1.446 . S
N277 Co236 2.151 . S
N277 C276 1.330 . S
N277 C281 1.418 . S
C278 H257 0.929 . S
C278 C276 1.446 . S
C278 C279 1.332 . S
C279 H259 0.931 . S
C279 C278 1.332 . S
C279 C280 1.267 . S
C280 H248 0.929 . S
C280 C279 1.267 . S
C280 C281 1.251 . S
C281 H251 0.929 . S
C281 N277 1.418 . S
C281 C280 1.251 . S
C282 H249 0.930 . S
C282 C284 1.406 . S
C282 C287 1.261 . S
C283 H250 0.930 . S
C283 N285 1.325 . S
C283 C286 1.357 . S
C284 H252 0.928 . S
C284 C282 1.406 . S
C284 N285 1.261 . S
N285 Co236 2.214 . S
N285 C283 1.325 . S
N285 C284 1.261 . S
C286 H256 0.931 . S
C286 C283 1.357 . S
C286 C287 1.312 . S
C287 H258 0.930 . S
C287 C282 1.261 . S
C287 C286 1.312 . S
C288 O260 1.214 . S
C288 O268 1.234 . S
C289 H261 0.929 . S
C289 C292 1.391 . S
C289 C294 1.391 . S
C290 H262 0.929 . S
C290 C291 1.390 . S
C290 N293 1.391 . S
C291 H263 0.930 . S
C291 C290 1.390 . S
C291 C292 1.392 . S
C292 H264 0.929 . S
C292 C289 1.391 . S
C292 C291 1.392 . S
N293 Co237 2.257 . S
N293 C290 1.391 . S
N293 C294 1.388 . S
C294 H265 0.930 . S
C294 C289 1.391 . S
C294 N293 1.388 . S
Co295 O297 2.143 . S
Co295 O303 2.074 . S
Co295 O306 2.093 . S
Co295 O319 2.097 . S
Co295 N336 2.151 . S
Co295 N344 2.214 . S
Co296 O297 2.160 . S
Co296 O302 2.058 . S
Co296 O312 2.057 . S
Co296 O327 2.037 . S
Co296 N331 2.145 . S
Co296 N352 2.257 . S
O297 Co295 2.143 . S
O297 Co296 2.160 . S
C298 O299 1.278 . S
C298 O306 1.224 . S
O299 C298 1.278 . S
C300 O301 1.245 . S
C300 O312 1.232 . S
O301 C300 1.245 . S
O302 Co296 2.058 . S
O302 C328 1.269 . S
O303 Co295 2.074 . S
O303 C328 1.257 . S
H304 C329 0.930 . S
H305 C335 0.930 . S
O306 Co295 2.093 . S
O306 C298 1.224 . S
H307 C339 0.929 . S
H308 C341 0.930 . S
H309 C342 0.930 . S
H310 C340 0.929 . S
H311 C343 0.928 . S
O312 Co296 2.057 . S
O312 C300 1.232 . S
H313 C332 0.929 . S
H314 C333 0.929 . S
H315 C345 0.931 . S
H316 C337 0.929 . S
H317 C346 0.930 . S
H318 C338 0.931 . S
O319 Co295 2.097 . S
O319 C347 1.214 . S
H320 C348 0.929 . S
H321 C349 0.929 . S
H322 C350 0.930 . S
H323 C351 0.929 . S
H324 C353 0.930 . S
H325 C330 0.930 . S
H326 C334 0.930 . S
O327 Co296 2.037 . S
O327 C347 1.234 . S
C328 O302 1.269 . S
C328 O303 1.257 . S
C329 H304 0.930 . S
C329 C332 1.388 . S
C329 C334 1.418 . S
C330 H325 0.930 . S
C330 C333 1.404 . S
C330 C334 1.353 . S
N331 Co296 2.145 . S
N331 C332 1.397 . S
N331 C333 1.334 . S
C332 H313 0.929 . S
C332 C329 1.388 . S
C332 N331 1.397 . S
C333 H314 0.929 . S
C333 C330 1.404 . S
C333 N331 1.334 . S
C334 H326 0.930 . S
C334 C329 1.418 . S
C334 C330 1.353 . S
C335 H305 0.930 . S
C335 N336 1.330 . S
C335 C337 1.446 . S
N336 Co295 2.151 . S
N336 C335 1.330 . S
N336 C340 1.418 . S
C337 H316 0.929 . S
C337 C335 1.446 . S
C337 C338 1.332 . S
C338 H318 0.931 . S
C338 C337 1.332 . S
C338 C339 1.267 . S
C339 H307 0.929 . S
C339 C338 1.267 . S
C339 C340 1.251 . S
C340 H310 0.929 . S
C340 N336 1.418 . S
C340 C339 1.251 . S
C341 H308 0.930 . S
C341 C343 1.406 . S
C341 C346 1.261 . S
C342 H309 0.930 . S
C342 N344 1.325 . S
C342 C345 1.357 . S
C343 H311 0.928 . S
C343 C341 1.406 . S
C343 N344 1.261 . S
N344 Co295 2.214 . S
N344 C342 1.325 . S
N344 C343 1.261 . S
C345 H315 0.931 . S
C345 C342 1.357 . S
C345 C346 1.312 . S
C346 H317 0.930 . S
C346 C341 1.261 . S
C346 C345 1.312 . S
C347 O319 1.214 . S
C347 O327 1.234 . S
C348 H320 0.929 . S
C348 C351 1.391 . S
C348 C353 1.391 . S
C349 H321 0.929 . S
C349 C350 1.390 . S
C349 N352 1.391 . S
C350 H322 0.930 . S
C350 C349 1.390 . S
C350 C351 1.392 . S
C351 H323 0.929 . S
C351 C348 1.391 . S
C351 C350 1.392 . S
N352 Co296 2.257 . S
N352 C349 1.391 . S
N352 C353 1.388 . S
C353 H324 0.930 . S
C353 C348 1.391 . S
C353 N352 1.388 . S
Co354 O356 2.143 . S
Co354 O362 2.074 . S
Co354 O365 2.093 . S
Co354 O378 2.097 . S
Co354 N395 2.151 . S
Co354 N403 2.214 . S
Co355 O356 2.160 . S
Co355 O361 2.058 . S
Co355 O371 2.057 . S
Co355 O386 2.037 . S
Co355 N390 2.145 . S
Co355 N411 2.257 . S
O356 Co354 2.143 . S
O356 Co355 2.160 . S
C357 O358 1.278 . S
C357 O365 1.224 . S
O358 C357 1.278 . S
C359 O360 1.245 . S
C359 O371 1.232 . S
O360 C359 1.245 . S
O361 Co355 2.058 . S
O361 C387 1.269 . S
O362 Co354 2.074 . S
O362 C387 1.257 . S
H363 C388 0.930 . S
H364 C394 0.930 . S
O365 Co354 2.093 . S
O365 C357 1.224 . S
H366 C398 0.929 . S
H367 C400 0.930 . S
H368 C401 0.930 . S
H369 C399 0.929 . S
H370 C402 0.928 . S
O371 Co355 2.057 . S
O371 C359 1.232 . S
H372 C391 0.929 . S
H373 C392 0.929 . S
H374 C404 0.931 . S
H375 C396 0.929 . S
H376 C405 0.930 . S
H377 C397 0.931 . S
O378 Co354 2.097 . S
O378 C406 1.214 . S
H379 C407 0.929 . S
H380 C408 0.929 . S
H381 C409 0.930 . S
H382 C410 0.929 . S
H383 C412 0.930 . S
H384 C389 0.930 . S
H385 C393 0.930 . S
O386 Co355 2.037 . S
O386 C406 1.234 . S
C387 O361 1.269 . S
C387 O362 1.257 . S
C388 H363 0.930 . S
C388 C391 1.388 . S
C388 C393 1.418 . S
C389 H384 0.930 . S
C389 C392 1.404 . S
C389 C393 1.353 . S
N390 Co355 2.145 . S
N390 C391 1.397 . S
N390 C392 1.334 . S
C391 H372 0.929 . S
C391 C388 1.388 . S
C391 N390 1.397 . S
C392 H373 0.929 . S
C392 C389 1.404 . S
C392 N390 1.334 . S
C393 H385 0.930 . S
C393 C388 1.418 . S
C393 C389 1.353 . S
C394 H364 0.930 . S
C394 N395 1.330 . S
C394 C396 1.446 . S
N395 Co354 2.151 . S
N395 C394 1.330 . S
N395 C399 1.418 . S
C396 H375 0.929 . S
C396 C394 1.446 . S
C396 C397 1.332 . S
C397 H377 0.931 . S
C397 C396 1.332 . S
C397 C398 1.267 . S
C398 H366 0.929 . S
C398 C397 1.267 . S
C398 C399 1.251 . S
C399 H369 0.929 . S
C399 N395 1.418 . S
C399 C398 1.251 . S
C400 H367 0.930 . S
C400 C402 1.406 . S
C400 C405 1.261 . S
C401 H368 0.930 . S
C401 N403 1.325 . S
C401 C404 1.357 . S
C402 H370 0.928 . S
C402 C400 1.406 . S
C402 N403 1.261 . S
N403 Co354 2.214 . S
N403 C401 1.325 . S
N403 C402 1.261 . S
C404 H374 0.931 . S
C404 C401 1.357 . S
C404 C405 1.312 . S
C405 H376 0.930 . S
C405 C400 1.261 . S
C405 C404 1.312 . S
C406 O378 1.214 . S
C406 O386 1.234 . S
C407 H379 0.929 . S
C407 C410 1.391 . S
C407 C412 1.391 . S
C408 H380 0.929 . S
C408 C409 1.390 . S
C408 N411 1.391 . S
C409 H381 0.930 . S
C409 C408 1.390 . S
C409 C410 1.392 . S
C410 H382 0.929 . S
C410 C407 1.391 . S
C410 C409 1.392 . S
N411 Co355 2.257 . S
N411 C408 1.391 . S
N411 C412 1.388 . S
C412 H383 0.930 . S
C412 C407 1.391 . S
C412 N411 1.388 . S
Co413 O415 2.143 . S
Co413 O421 2.074 . S
Co413 O424 2.093 . S
Co413 O437 2.097 . S
Co413 N454 2.151 . S
Co413 N462 2.214 . S
Co414 O415 2.160 . S
Co414 O420 2.058 . S
Co414 O430 2.057 . S
Co414 O445 2.037 . S
Co414 N449 2.145 . S
Co414 N470 2.257 . S
O415 Co413 2.143 . S
O415 Co414 2.160 . S
C416 O417 1.278 . S
C416 O424 1.224 . S
O417 C416 1.278 . S
C418 O419 1.245 . S
C418 O430 1.232 . S
O419 C418 1.245 . S
O420 Co414 2.058 . S
O420 C446 1.269 . S
O421 Co413 2.074 . S
O421 C446 1.257 . S
H422 C447 0.930 . S
H423 C453 0.930 . S
O424 Co413 2.093 . S
O424 C416 1.224 . S
H425 C457 0.929 . S
H426 C459 0.930 . S
H427 C460 0.930 . S
H428 C458 0.929 . S
H429 C461 0.928 . S
O430 Co414 2.057 . S
O430 C418 1.232 . S
H431 C450 0.929 . S
H432 C451 0.929 . S
H433 C463 0.931 . S
H434 C455 0.929 . S
H435 C464 0.930 . S
H436 C456 0.931 . S
O437 Co413 2.097 . S
O437 C465 1.214 . S
H438 C466 0.929 . S
H439 C467 0.929 . S
H440 C468 0.930 . S
H441 C469 0.929 . S
H442 C471 0.930 . S
H443 C448 0.930 . S
H444 C452 0.930 . S
O445 Co414 2.037 . S
O445 C465 1.234 . S
C446 O420 1.269 . S
C446 O421 1.257 . S
C447 H422 0.930 . S
C447 C450 1.388 . S
C447 C452 1.418 . S
C448 H443 0.930 . S
C448 C451 1.404 . S
C448 C452 1.353 . S
N449 Co414 2.145 . S
N449 C450 1.397 . S
N449 C451 1.334 . S
C450 H431 0.929 . S
C450 C447 1.388 . S
C450 N449 1.397 . S
C451 H432 0.929 . S
C451 C448 1.404 . S
C451 N449 1.334 . S
C452 H444 0.930 . S
C452 C447 1.418 . S
C452 C448 1.353 . S
C453 H423 0.930 . S
C453 N454 1.330 . S
C453 C455 1.446 . S
N454 Co413 2.151 . S
N454 C453 1.330 . S
N454 C458 1.418 . S
C455 H434 0.929 . S
C455 C453 1.446 . S
C455 C456 1.332 . S
C456 H436 0.931 . S
C456 C455 1.332 . S
C456 C457 1.267 . S
C457 H425 0.929 . S
C457 C456 1.267 . S
C457 C458 1.251 . S
C458 H428 0.929 . S
C458 N454 1.418 . S
C458 C457 1.251 . S
C459 H426 0.930 . S
C459 C461 1.406 . S
C459 C464 1.261 . S
C460 H427 0.930 . S
C460 N462 1.325 . S
C460 C463 1.357 . S
C461 H429 0.928 . S
C461 C459 1.406 . S
C461 N462 1.261 . S
N462 Co413 2.214 . S
N462 C460 1.325 . S
N462 C461 1.261 . S
C463 H433 0.931 . S
C463 C460 1.357 . S
C463 C464 1.312 . S
C464 H435 0.930 . S
C464 C459 1.261 . S
C464 C463 1.312 . S
C465 O437 1.214 . S
C465 O445 1.234 . S
C466 H438 0.929 . S
C466 C469 1.391 . S
C466 C471 1.391 . S
C467 H439 0.929 . S
C467 C468 1.390 . S
C467 N470 1.391 . S
C468 H440 0.930 . S
C468 C467 1.390 . S
C468 C469 1.392 . S
C469 H441 0.929 . S
C469 C466 1.391 . S
C469 C468 1.392 . S
N470 Co414 2.257 . S
N470 C467 1.391 . S
N470 C471 1.388 . S
C471 H442 0.930 . S
C471 C466 1.391 . S
C471 N470 1.388 . S
Co472 O474 2.143 . S
Co472 O480 2.074 . S
Co472 O483 2.093 . S
Co472 O496 2.097 . S
Co472 N513 2.151 . S
Co472 N521 2.214 . S
Co473 O474 2.160 . S
Co473 O479 2.058 . S
Co473 O489 2.057 . S
Co473 O504 2.037 . S
Co473 N508 2.145 . S
Co473 N529 2.257 . S
O474 Co472 2.143 . S
O474 Co473 2.160 . S
C475 O476 1.278 . S
C475 O483 1.224 . S
O476 C475 1.278 . S
C477 O478 1.245 . S
C477 O489 1.232 . S
O478 C477 1.245 . S
O479 Co473 2.058 . S
O479 C505 1.269 . S
O480 Co472 2.074 . S
O480 C505 1.257 . S
H481 C506 0.930 . S
H482 C512 0.930 . S
O483 Co472 2.093 . S
O483 C475 1.224 . S
H484 C516 0.929 1_455 S
H485 C518 0.930 . S
H486 C519 0.930 . S
H487 C517 0.929 . S
H488 C520 0.928 . S
O489 Co473 2.057 . S
O489 C477 1.232 . S
H490 C509 0.929 . S
H491 C510 0.929 . S
H492 C522 0.931 . S
H493 C514 0.929 . S
H494 C523 0.930 . S
H495 C515 0.931 . S
O496 Co472 2.097 . S
O496 C524 1.214 . S
H497 C525 0.929 . S
H498 C526 0.929 . S
H499 C527 0.930 . S
H500 C528 0.929 . S
H501 C530 0.930 . S
H502 C507 0.930 . S
H503 C511 0.930 . S
O504 Co473 2.037 . S
O504 C524 1.234 . S
C505 O479 1.269 . S
C505 O480 1.257 . S
C506 H481 0.930 . S
C506 C509 1.388 . S
C506 C511 1.418 . S
C507 H502 0.930 . S
C507 C510 1.404 . S
C507 C511 1.353 . S
N508 Co473 2.145 . S
N508 C509 1.397 . S
N508 C510 1.334 . S
C509 H490 0.929 . S
C509 C506 1.388 . S
C509 N508 1.397 . S
C510 H491 0.929 . S
C510 C507 1.404 . S
C510 N508 1.334 . S
C511 H503 0.930 . S
C511 C506 1.418 . S
C511 C507 1.353 . S
C512 H482 0.930 . S
C512 N513 1.330 . S
C512 C514 1.446 . S
N513 Co472 2.151 . S
N513 C512 1.330 . S
N513 C517 1.418 . S
C514 H493 0.929 . S
C514 C512 1.446 . S
C514 C515 1.332 . S
C515 H495 0.931 . S
C515 C514 1.332 . S
C515 C516 1.267 . S
C516 H484 0.929 1_655 S
C516 C515 1.267 . S
C516 C517 1.251 . S
C517 H487 0.929 . S
C517 N513 1.418 . S
C517 C516 1.251 . S
C518 H485 0.930 . S
C518 C520 1.406 1_455 S
C518 C523 1.261 . S
C519 H486 0.930 . S
C519 N521 1.325 . S
C519 C522 1.357 1_655 S
C520 H488 0.928 . S
C520 C518 1.406 1_655 S
C520 N521 1.261 . S
N521 Co472 2.214 . S
N521 C519 1.325 . S
N521 C520 1.261 . S
C522 H492 0.931 . S
C522 C519 1.357 1_455 S
C522 C523 1.312 . S
C523 H494 0.930 . S
C523 C518 1.261 . S
C523 C522 1.312 . S
C524 O496 1.214 . S
C524 O504 1.234 . S
C525 H497 0.929 . S
C525 C528 1.391 . S
C525 C530 1.391 . S
C526 H498 0.929 . S
C526 C527 1.390 . S
C526 N529 1.391 . S
C527 H499 0.930 . S
C527 C526 1.390 . S
C527 C528 1.392 . S
C528 H500 0.929 . S
C528 C525 1.391 . S
C528 C527 1.392 . S
N529 Co473 2.257 . S
N529 C526 1.391 . S
N529 C530 1.388 . S
C530 H501 0.930 . S
C530 C525 1.391 . S
C530 N529 1.388 . S
Co531 O533 2.143 . S
Co531 O539 2.074 . S
Co531 O542 2.093 . S
Co531 O555 2.097 . S
Co531 N572 2.151 . S
Co531 N580 2.214 . S
Co532 O533 2.160 . S
Co532 O538 2.058 . S
Co532 O548 2.057 . S
Co532 O563 2.037 . S
Co532 N567 2.145 . S
Co532 N588 2.257 . S
O533 Co531 2.143 . S
O533 Co532 2.160 . S
C534 O535 1.278 . S
C534 O542 1.224 . S
O535 C534 1.278 . S
C536 O537 1.245 . S
C536 O548 1.232 . S
O537 C536 1.245 . S
O538 Co532 2.058 . S
O538 C564 1.269 . S
O539 Co531 2.074 . S
O539 C564 1.257 . S
H540 C565 0.930 . S
H541 C571 0.930 . S
O542 Co531 2.093 . S
O542 C534 1.224 . S
H543 C575 0.929 1_545 S
H544 C577 0.930 . S
H545 C578 0.930 . S
H546 C576 0.929 . S
H547 C579 0.928 . S
O548 Co532 2.057 . S
O548 C536 1.232 . S
H549 C568 0.929 . S
H550 C569 0.929 . S
H551 C581 0.931 . S
H552 C573 0.929 . S
H553 C582 0.930 . S
H554 C574 0.931 . S
O555 Co531 2.097 . S
O555 C583 1.214 . S
H556 C584 0.929 . S
H557 C585 0.929 . S
H558 C586 0.930 . S
H559 C587 0.929 . S
H560 C589 0.930 . S
H561 C566 0.930 . S
H562 C570 0.930 . S
O563 Co532 2.037 . S
O563 C583 1.234 . S
C564 O538 1.269 . S
C564 O539 1.257 . S
C565 H540 0.930 . S
C565 C568 1.388 . S
C565 C570 1.418 . S
C566 H561 0.930 . S
C566 C569 1.404 . S
C566 C570 1.353 . S
N567 Co532 2.145 . S
N567 C568 1.397 . S
N567 C569 1.334 . S
C568 H549 0.929 . S
C568 C565 1.388 . S
C568 N567 1.397 . S
C569 H550 0.929 . S
C569 C566 1.404 . S
C569 N567 1.334 . S
C570 H562 0.930 . S
C570 C565 1.418 . S
C570 C566 1.353 . S
C571 H541 0.930 . S
C571 N572 1.330 . S
C571 C573 1.446 . S
N572 Co531 2.151 . S
N572 C571 1.330 . S
N572 C576 1.418 . S
C573 H552 0.929 . S
C573 C571 1.446 . S
C573 C574 1.332 . S
C574 H554 0.931 . S
C574 C573 1.332 . S
C574 C575 1.267 . S
C575 H543 0.929 1_565 S
C575 C574 1.267 . S
C575 C576 1.251 . S
C576 H546 0.929 . S
C576 N572 1.418 . S
C576 C575 1.251 . S
C577 H544 0.930 . S
C577 C579 1.406 1_545 S
C577 C582 1.261 . S
C578 H545 0.930 . S
C578 N580 1.325 . S
C578 C581 1.357 1_565 S
C579 H547 0.928 . S
C579 C577 1.406 1_565 S
C579 N580 1.261 . S
N580 Co531 2.214 . S
N580 C578 1.325 . S
N580 C579 1.261 . S
C581 H551 0.931 . S
C581 C578 1.357 1_545 S
C581 C582 1.312 . S
C582 H553 0.930 . S
C582 C577 1.261 . S
C582 C581 1.312 . S
C583 O555 1.214 . S
C583 O563 1.234 . S
C584 H556 0.929 . S
C584 C587 1.391 . S
C584 C589 1.391 . S
C585 H557 0.929 . S
C585 C586 1.390 . S
C585 N588 1.391 . S
C586 H558 0.930 . S
C586 C585 1.390 . S
C586 C587 1.392 . S
C587 H559 0.929 . S
C587 C584 1.391 . S
C587 C586 1.392 . S
N588 Co532 2.257 . S
N588 C585 1.391 . S
N588 C589 1.388 . S
C589 H560 0.930 . S
C589 C584 1.391 . S
C589 N588 1.388 . S
Co590 O592 2.143 . S
Co590 O598 2.074 . S
Co590 O601 2.093 . S
Co590 O614 2.097 . S
Co590 N631 2.151 . S
Co590 N639 2.214 . S
Co591 O592 2.160 . S
Co591 O597 2.058 . S
Co591 O607 2.057 . S
Co591 O622 2.037 . S
Co591 N626 2.145 . S
Co591 N647 2.257 . S
O592 Co590 2.143 . S
O592 Co591 2.160 . S
C593 O594 1.278 . S
C593 O601 1.224 . S
O594 C593 1.278 . S
C595 O596 1.245 . S
C595 O607 1.232 . S
O596 C595 1.245 . S
O597 Co591 2.058 . S
O597 C623 1.269 . S
O598 Co590 2.074 . S
O598 C623 1.257 . S
H599 C624 0.930 . S
H600 C630 0.930 . S
O601 Co590 2.093 . S
O601 C593 1.224 . S
H602 C634 0.929 1_655 S
H603 C636 0.930 . S
H604 C637 0.930 . S
H605 C635 0.929 . S
H606 C638 0.928 . S
O607 Co591 2.057 . S
O607 C595 1.232 . S
H608 C627 0.929 . S
H609 C628 0.929 . S
H610 C640 0.931 . S
H611 C632 0.929 . S
H612 C641 0.930 . S
H613 C633 0.931 . S
O614 Co590 2.097 . S
O614 C642 1.214 . S
H615 C643 0.929 . S
H616 C644 0.929 . S
H617 C645 0.930 . S
H618 C646 0.929 . S
H619 C648 0.930 . S
H620 C625 0.930 . S
H621 C629 0.930 . S
O622 Co591 2.037 . S
O622 C642 1.234 . S
C623 O597 1.269 . S
C623 O598 1.257 . S
C624 H599 0.930 . S
C624 C627 1.388 . S
C624 C629 1.418 . S
C625 H620 0.930 . S
C625 C628 1.404 . S
C625 C629 1.353 . S
N626 Co591 2.145 . S
N626 C627 1.397 . S
N626 C628 1.334 . S
C627 H608 0.929 . S
C627 C624 1.388 . S
C627 N626 1.397 . S
C628 H609 0.929 . S
C628 C625 1.404 . S
C628 N626 1.334 . S
C629 H621 0.930 . S
C629 C624 1.418 . S
C629 C625 1.353 . S
C630 H600 0.930 . S
C630 N631 1.330 . S
C630 C632 1.446 . S
N631 Co590 2.151 . S
N631 C630 1.330 . S
N631 C635 1.418 . S
C632 H611 0.929 . S
C632 C630 1.446 . S
C632 C633 1.332 . S
C633 H613 0.931 . S
C633 C632 1.332 . S
C633 C634 1.267 . S
C634 H602 0.929 1_455 S
C634 C633 1.267 . S
C634 C635 1.251 . S
C635 H605 0.929 . S
C635 N631 1.418 . S
C635 C634 1.251 . S
C636 H603 0.930 . S
C636 C638 1.406 1_655 S
C636 C641 1.261 . S
C637 H604 0.930 . S
C637 N639 1.325 . S
C637 C640 1.357 1_455 S
C638 H606 0.928 . S
C638 C636 1.406 1_455 S
C638 N639 1.261 . S
N639 Co590 2.214 . S
N639 C637 1.325 . S
N639 C638 1.261 . S
C640 H610 0.931 . S
C640 C637 1.357 1_655 S
C640 C641 1.312 . S
C641 H612 0.930 . S
C641 C636 1.261 . S
C641 C640 1.312 . S
C642 O614 1.214 . S
C642 O622 1.234 . S
C643 H615 0.929 . S
C643 C646 1.391 . S
C643 C648 1.391 . S
C644 H616 0.929 . S
C644 C645 1.390 . S
C644 N647 1.391 . S
C645 H617 0.930 . S
C645 C644 1.390 . S
C645 C646 1.392 . S
C646 H618 0.929 . S
C646 C643 1.391 . S
C646 C645 1.392 . S
N647 Co591 2.257 . S
N647 C644 1.391 . S
N647 C648 1.388 . S
C648 H619 0.930 . S
C648 C643 1.391 . S
C648 N647 1.388 . S
Co649 O651 2.143 . S
Co649 O657 2.074 . S
Co649 O660 2.093 . S
Co649 O673 2.097 . S
Co649 N690 2.151 . S
Co649 N698 2.214 . S
Co650 O651 2.160 . S
Co650 O656 2.058 . S
Co650 O666 2.057 . S
Co650 O681 2.037 . S
Co650 N685 2.145 . S
Co650 N706 2.257 . S
O651 Co649 2.143 . S
O651 Co650 2.160 . S
C652 O653 1.278 . S
C652 O660 1.224 . S
O653 C652 1.278 . S
C654 O655 1.245 . S
C654 O666 1.232 . S
O655 C654 1.245 . S
O656 Co650 2.058 . S
O656 C682 1.269 . S
O657 Co649 2.074 . S
O657 C682 1.257 . S
H658 C683 0.930 . S
H659 C689 0.930 . S
O660 Co649 2.093 . S
O660 C652 1.224 . S
H661 C693 0.929 1_565 S
H662 C695 0.930 . S
H663 C696 0.930 . S
H664 C694 0.929 . S
H665 C697 0.928 . S
O666 Co650 2.057 . S
O666 C654 1.232 . S
H667 C686 0.929 . S
H668 C687 0.929 . S
H669 C699 0.931 . S
H670 C691 0.929 . S
H671 C700 0.930 . S
H672 C692 0.931 . S
O673 Co649 2.097 . S
O673 C701 1.214 . S
H674 C702 0.929 . S
H675 C703 0.929 . S
H676 C704 0.930 . S
H677 C705 0.929 . S
H678 C707 0.930 . S
H679 C684 0.930 . S
H680 C688 0.930 . S
O681 Co650 2.037 . S
O681 C701 1.234 . S
C682 O656 1.269 . S
C682 O657 1.257 . S
C683 H658 0.930 . S
C683 C686 1.388 . S
C683 C688 1.418 . S
C684 H679 0.930 . S
C684 C687 1.404 . S
C684 C688 1.353 . S
N685 Co650 2.145 . S
N685 C686 1.397 . S
N685 C687 1.334 . S
C686 H667 0.929 . S
C686 C683 1.388 . S
C686 N685 1.397 . S
C687 H668 0.929 . S
C687 C684 1.404 . S
C687 N685 1.334 . S
C688 H680 0.930 . S
C688 C683 1.418 . S
C688 C684 1.353 . S
C689 H659 0.930 . S
C689 N690 1.330 . S
C689 C691 1.446 . S
N690 Co649 2.151 . S
N690 C689 1.330 . S
N690 C694 1.418 . S
C691 H670 0.929 . S
C691 C689 1.446 . S
C691 C692 1.332 . S
C692 H672 0.931 . S
C692 C691 1.332 . S
C692 C693 1.267 . S
C693 H661 0.929 1_545 S
C693 C692 1.267 . S
C693 C694 1.251 . S
C694 H664 0.929 . S
C694 N690 1.418 . S
C694 C693 1.251 . S
C695 H662 0.930 . S
C695 C697 1.406 1_565 S
C695 C700 1.261 . S
C696 H663 0.930 . S
C696 N698 1.325 . S
C696 C699 1.357 1_545 S
C697 H665 0.928 . S
C697 C695 1.406 1_545 S
C697 N698 1.261 . S
N698 Co649 2.214 . S
N698 C696 1.325 . S
N698 C697 1.261 . S
C699 H669 0.931 . S
C699 C696 1.357 1_565 S
C699 C700 1.312 . S
C700 H671 0.930 . S
C700 C695 1.261 . S
C700 C699 1.312 . S
C701 O673 1.214 . S
C701 O681 1.234 . S
C702 H674 0.929 . S
C702 C705 1.391 . S
C702 C707 1.391 . S
C703 H675 0.929 . S
C703 C704 1.390 . S
C703 N706 1.391 . S
C704 H676 0.930 . S
C704 C703 1.390 . S
C704 C705 1.392 . S
C705 H677 0.929 . S
C705 C702 1.391 . S
C705 C704 1.392 . S
N706 Co650 2.257 . S
N706 C703 1.391 . S
N706 C707 1.388 . S
C707 H678 0.930 . S
C707 C702 1.391 . S
C707 N706 1.388 . S
Co708 O710 2.143 . S
Co708 O716 2.074 . S
Co708 O719 2.093 . S
Co708 O732 2.097 . S
Co708 N749 2.151 . S
Co708 N757 2.214 . S
Co709 O710 2.160 . S
Co709 O715 2.058 . S
Co709 O725 2.057 . S
Co709 O740 2.037 . S
Co709 N744 2.145 . S
Co709 N765 2.257 . S
O710 Co708 2.143 . S
O710 Co709 2.160 . S
C711 O712 1.278 . S
C711 O719 1.224 . S
O712 C711 1.278 . S
C713 O714 1.245 . S
C713 O725 1.232 . S
O714 C713 1.245 . S
O715 Co709 2.058 . S
O715 C741 1.269 . S
O716 Co708 2.074 . S
O716 C741 1.257 . S
H717 C742 0.930 . S
H718 C748 0.930 . S
O719 Co708 2.093 . S
O719 C711 1.224 . S
H720 C752 0.929 1_455 S
H721 C754 0.930 . S
H722 C755 0.930 . S
H723 C753 0.929 . S
H724 C756 0.928 . S
O725 Co709 2.057 . S
O725 C713 1.232 . S
H726 C745 0.929 . S
H727 C746 0.929 . S
H728 C758 0.931 . S
H729 C750 0.929 . S
H730 C759 0.930 . S
H731 C751 0.931 . S
O732 Co708 2.097 . S
O732 C760 1.214 . S
H733 C761 0.929 . S
H734 C762 0.929 . S
H735 C763 0.930 . S
H736 C764 0.929 . S
H737 C766 0.930 . S
H738 C743 0.930 . S
H739 C747 0.930 . S
O740 Co709 2.037 . S
O740 C760 1.234 . S
C741 O715 1.269 . S
C741 O716 1.257 . S
C742 H717 0.930 . S
C742 C745 1.388 . S
C742 C747 1.418 . S
C743 H738 0.930 . S
C743 C746 1.404 . S
C743 C747 1.353 . S
N744 Co709 2.145 . S
N744 C745 1.397 . S
N744 C746 1.334 . S
C745 H726 0.929 . S
C745 C742 1.388 . S
C745 N744 1.397 . S
C746 H727 0.929 . S
C746 C743 1.404 . S
C746 N744 1.334 . S
C747 H739 0.930 . S
C747 C742 1.418 . S
C747 C743 1.353 . S
C748 H718 0.930 . S
C748 N749 1.330 . S
C748 C750 1.446 . S
N749 Co708 2.151 . S
N749 C748 1.330 . S
N749 C753 1.418 . S
C750 H729 0.929 . S
C750 C748 1.446 . S
C750 C751 1.332 . S
C751 H731 0.931 . S
C751 C750 1.332 . S
C751 C752 1.267 . S
C752 H720 0.929 1_655 S
C752 C751 1.267 . S
C752 C753 1.251 . S
C753 H723 0.929 . S
C753 N749 1.418 . S
C753 C752 1.251 . S
C754 H721 0.930 . S
C754 C756 1.406 1_455 S
C754 C759 1.261 . S
C755 H722 0.930 . S
C755 N757 1.325 . S
C755 C758 1.357 1_655 S
C756 H724 0.928 . S
C756 C754 1.406 1_655 S
C756 N757 1.261 . S
N757 Co708 2.214 . S
N757 C755 1.325 . S
N757 C756 1.261 . S
C758 H728 0.931 . S
C758 C755 1.357 1_455 S
C758 C759 1.312 . S
C759 H730 0.930 . S
C759 C754 1.261 . S
C759 C758 1.312 . S
C760 O732 1.214 . S
C760 O740 1.234 . S
C761 H733 0.929 . S
C761 C764 1.391 . S
C761 C766 1.391 . S
C762 H734 0.929 . S
C762 C763 1.390 . S
C762 N765 1.391 . S
C763 H735 0.930 . S
C763 C762 1.390 . S
C763 C764 1.392 . S
C764 H736 0.929 . S
C764 C761 1.391 . S
C764 C763 1.392 . S
N765 Co709 2.257 . S
N765 C762 1.391 . S
N765 C766 1.388 . S
C766 H737 0.930 . S
C766 C761 1.391 . S
C766 N765 1.388 . S
Co767 O769 2.143 . S
Co767 O775 2.074 . S
Co767 O778 2.093 . S
Co767 O791 2.097 . S
Co767 N808 2.151 . S
Co767 N816 2.214 . S
Co768 O769 2.160 . S
Co768 O774 2.058 . S
Co768 O784 2.057 . S
Co768 O799 2.037 . S
Co768 N803 2.145 . S
Co768 N824 2.257 . S
O769 Co767 2.143 . S
O769 Co768 2.160 . S
C770 O771 1.278 . S
C770 O778 1.224 . S
O771 C770 1.278 . S
C772 O773 1.245 . S
C772 O784 1.232 . S
O773 C772 1.245 . S
O774 Co768 2.058 . S
O774 C800 1.269 . S
O775 Co767 2.074 . S
O775 C800 1.257 . S
H776 C801 0.930 . S
H777 C807 0.930 . S
O778 Co767 2.093 . S
O778 C770 1.224 . S
H779 C811 0.929 1_545 S
H780 C813 0.930 . S
H781 C814 0.930 . S
H782 C812 0.929 . S
H783 C815 0.928 . S
O784 Co768 2.057 . S
O784 C772 1.232 . S
H785 C804 0.929 . S
H786 C805 0.929 . S
H787 C817 0.931 . S
H788 C809 0.929 . S
H789 C818 0.930 . S
H790 C810 0.931 . S
O791 Co767 2.097 . S
O791 C819 1.214 . S
H792 C820 0.929 . S
H793 C821 0.929 . S
H794 C822 0.930 . S
H795 C823 0.929 . S
H796 C825 0.930 . S
H797 C802 0.930 . S
H798 C806 0.930 . S
O799 Co768 2.037 . S
O799 C819 1.234 . S
C800 O774 1.269 . S
C800 O775 1.257 . S
C801 H776 0.930 . S
C801 C804 1.388 . S
C801 C806 1.418 . S
C802 H797 0.930 . S
C802 C805 1.404 . S
C802 C806 1.353 . S
N803 Co768 2.145 . S
N803 C804 1.397 . S
N803 C805 1.334 . S
C804 H785 0.929 . S
C804 C801 1.388 . S
C804 N803 1.397 . S
C805 H786 0.929 . S
C805 C802 1.404 . S
C805 N803 1.334 . S
C806 H798 0.930 . S
C806 C801 1.418 . S
C806 C802 1.353 . S
C807 H777 0.930 . S
C807 N808 1.330 . S
C807 C809 1.446 . S
N808 Co767 2.151 . S
N808 C807 1.330 . S
N808 C812 1.418 . S
C809 H788 0.929 . S
C809 C807 1.446 . S
C809 C810 1.332 . S
C810 H790 0.931 . S
C810 C809 1.332 . S
C810 C811 1.267 . S
C811 H779 0.929 1_565 S
C811 C810 1.267 . S
C811 C812 1.251 . S
C812 H782 0.929 . S
C812 N808 1.418 . S
C812 C811 1.251 . S
C813 H780 0.930 . S
C813 C815 1.406 1_545 S
C813 C818 1.261 . S
C814 H781 0.930 . S
C814 N816 1.325 . S
C814 C817 1.357 1_565 S
C815 H783 0.928 . S
C815 C813 1.406 1_565 S
C815 N816 1.261 . S
N816 Co767 2.214 . S
N816 C814 1.325 . S
N816 C815 1.261 . S
C817 H787 0.931 . S
C817 C814 1.357 1_545 S
C817 C818 1.312 . S
C818 H789 0.930 . S
C818 C813 1.261 . S
C818 C817 1.312 . S
C819 O791 1.214 . S
C819 O799 1.234 . S
C820 H792 0.929 . S
C820 C823 1.391 . S
C820 C825 1.391 . S
C821 H793 0.929 . S
C821 C822 1.390 . S
C821 N824 1.391 . S
C822 H794 0.930 . S
C822 C821 1.390 . S
C822 C823 1.392 . S
C823 H795 0.929 . S
C823 C820 1.391 . S
C823 C822 1.392 . S
N824 Co768 2.257 . S
N824 C821 1.391 . S
N824 C825 1.388 . S
C825 H796 0.930 . S
C825 C820 1.391 . S
C825 N824 1.388 . S
Co826 O828 2.143 . S
Co826 O834 2.074 . S
Co826 O837 2.093 . S
Co826 O850 2.097 . S
Co826 N867 2.151 . S
Co826 N875 2.214 . S
Co827 O828 2.160 . S
Co827 O833 2.058 . S
Co827 O843 2.057 . S
Co827 O858 2.037 . S
Co827 N862 2.145 . S
Co827 N883 2.257 . S
O828 Co826 2.143 . S
O828 Co827 2.160 . S
C829 O830 1.278 . S
C829 O837 1.224 . S
O830 C829 1.278 . S
C831 O832 1.245 . S
C831 O843 1.232 . S
O832 C831 1.245 . S
O833 Co827 2.058 . S
O833 C859 1.269 . S
O834 Co826 2.074 . S
O834 C859 1.257 . S
H835 C860 0.930 . S
H836 C866 0.930 . S
O837 Co826 2.093 . S
O837 C829 1.224 . S
H838 C870 0.929 1_655 S
H839 C872 0.930 . S
H840 C873 0.930 . S
H841 C871 0.929 . S
H842 C874 0.928 . S
O843 Co827 2.057 . S
O843 C831 1.232 . S
H844 C863 0.929 . S
H845 C864 0.929 . S
H846 C876 0.931 . S
H847 C868 0.929 . S
H848 C877 0.930 . S
H849 C869 0.931 . S
O850 Co826 2.097 . S
O850 C878 1.214 . S
H851 C879 0.929 . S
H852 C880 0.929 . S
H853 C881 0.930 . S
H854 C882 0.929 . S
H855 C884 0.930 . S
H856 C861 0.930 . S
H857 C865 0.930 . S
O858 Co827 2.037 . S
O858 C878 1.234 . S
C859 O833 1.269 . S
C859 O834 1.257 . S
C860 H835 0.930 . S
C860 C863 1.388 . S
C860 C865 1.418 . S
C861 H856 0.930 . S
C861 C864 1.404 . S
C861 C865 1.353 . S
N862 Co827 2.145 . S
N862 C863 1.397 . S
N862 C864 1.334 . S
C863 H844 0.929 . S
C863 C860 1.388 . S
C863 N862 1.397 . S
C864 H845 0.929 . S
C864 C861 1.404 . S
C864 N862 1.334 . S
C865 H857 0.930 . S
C865 C860 1.418 . S
C865 C861 1.353 . S
C866 H836 0.930 . S
C866 N867 1.330 . S
C866 C868 1.446 . S
N867 Co826 2.151 . S
N867 C866 1.330 . S
N867 C871 1.418 . S
C868 H847 0.929 . S
C868 C866 1.446 . S
C868 C869 1.332 . S
C869 H849 0.931 . S
C869 C868 1.332 . S
C869 C870 1.267 . S
C870 H838 0.929 1_455 S
C870 C869 1.267 . S
C870 C871 1.251 . S
C871 H841 0.929 . S
C871 N867 1.418 . S
C871 C870 1.251 . S
C872 H839 0.930 . S
C872 C874 1.406 1_655 S
C872 C877 1.261 . S
C873 H840 0.930 . S
C873 N875 1.325 . S
C873 C876 1.357 1_455 S
C874 H842 0.928 . S
C874 C872 1.406 1_455 S
C874 N875 1.261 . S
N875 Co826 2.214 . S
N875 C873 1.325 . S
N875 C874 1.261 . S
C876 H846 0.931 . S
C876 C873 1.357 1_655 S
C876 C877 1.312 . S
C877 H848 0.930 . S
C877 C872 1.261 . S
C877 C876 1.312 . S
C878 O850 1.214 . S
C878 O858 1.234 . S
C879 H851 0.929 . S
C879 C882 1.391 . S
C879 C884 1.391 . S
C880 H852 0.929 . S
C880 C881 1.390 . S
C880 N883 1.391 . S
C881 H853 0.930 . S
C881 C880 1.390 . S
C881 C882 1.392 . S
C882 H854 0.929 . S
C882 C879 1.391 . S
C882 C881 1.392 . S
N883 Co827 2.257 . S
N883 C880 1.391 . S
N883 C884 1.388 . S
C884 H855 0.930 . S
C884 C879 1.391 . S
C884 N883 1.388 . S
Co885 O887 2.143 . S
Co885 O893 2.074 . S
Co885 O896 2.093 . S
Co885 O909 2.097 . S
Co885 N926 2.151 . S
Co885 N934 2.214 . S
Co886 O887 2.160 . S
Co886 O892 2.058 . S
Co886 O902 2.057 . S
Co886 O917 2.037 . S
Co886 N921 2.145 . S
Co886 N942 2.257 . S
O887 Co885 2.143 . S
O887 Co886 2.160 . S
C888 O889 1.278 . S
C888 O896 1.224 . S
O889 C888 1.278 . S
C890 O891 1.245 . S
C890 O902 1.232 . S
O891 C890 1.245 . S
O892 Co886 2.058 . S
O892 C918 1.269 . S
O893 Co885 2.074 . S
O893 C918 1.257 . S
H894 C919 0.930 . S
H895 C925 0.930 . S
O896 Co885 2.093 . S
O896 C888 1.224 . S
H897 C929 0.929 1_565 S
H898 C931 0.930 . S
H899 C932 0.930 . S
H900 C930 0.929 . S
H901 C933 0.928 . S
O902 Co886 2.057 . S
O902 C890 1.232 . S
H903 C922 0.929 . S
H904 C923 0.929 . S
H905 C935 0.931 . S
H906 C927 0.929 . S
H907 C936 0.930 . S
H908 C928 0.931 . S
O909 Co885 2.097 . S
O909 C937 1.214 . S
H910 C938 0.929 . S
H911 C939 0.929 . S
H912 C940 0.930 . S
H913 C941 0.929 . S
H914 C943 0.930 . S
H915 C920 0.930 . S
H916 C924 0.930 . S
O917 Co886 2.037 . S
O917 C937 1.234 . S
C918 O892 1.269 . S
C918 O893 1.257 . S
C919 H894 0.930 . S
C919 C922 1.388 . S
C919 C924 1.418 . S
C920 H915 0.930 . S
C920 C923 1.404 . S
C920 C924 1.353 . S
N921 Co886 2.145 . S
N921 C922 1.397 . S
N921 C923 1.334 . S
C922 H903 0.929 . S
C922 C919 1.388 . S
C922 N921 1.397 . S
C923 H904 0.929 . S
C923 C920 1.404 . S
C923 N921 1.334 . S
C924 H916 0.930 . S
C924 C919 1.418 . S
C924 C920 1.353 . S
C925 H895 0.930 . S
C925 N926 1.330 . S
C925 C927 1.446 . S
N926 Co885 2.151 . S
N926 C925 1.330 . S
N926 C930 1.418 . S
C927 H906 0.929 . S
C927 C925 1.446 . S
C927 C928 1.332 . S
C928 H908 0.931 . S
C928 C927 1.332 . S
C928 C929 1.267 . S
C929 H897 0.929 1_545 S
C929 C928 1.267 . S
C929 C930 1.251 . S
C930 H900 0.929 . S
C930 N926 1.418 . S
C930 C929 1.251 . S
C931 H898 0.930 . S
C931 C933 1.406 1_565 S
C931 C936 1.261 . S
C932 H899 0.930 . S
C932 N934 1.325 . S
C932 C935 1.357 1_545 S
C933 H901 0.928 . S
C933 C931 1.406 1_545 S
C933 N934 1.261 . S
N934 Co885 2.214 . S
N934 C932 1.325 . S
N934 C933 1.261 . S
C935 H905 0.931 . S
C935 C932 1.357 1_565 S
C935 C936 1.312 . S
C936 H907 0.930 . S
C936 C931 1.261 . S
C936 C935 1.312 . S
C937 O909 1.214 . S
C937 O917 1.234 . S
C938 H910 0.929 . S
C938 C941 1.391 . S
C938 C943 1.391 . S
C939 H911 0.929 . S
C939 C940 1.390 . S
C939 N942 1.391 . S
C940 H912 0.930 . S
C940 C939 1.390 . S
C940 C941 1.392 . S
C941 H913 0.929 . S
C941 C938 1.391 . S
C941 C940 1.392 . S
N942 Co886 2.257 . S
N942 C939 1.391 . S
N942 C943 1.388 . S
C943 H914 0.930 . S
C943 C938 1.391 . S
C943 N942 1.388 . S
C944 C945 1.387 . S
C944 H948 0.950 . S
C944 C953 1.390 . S
C945 C944 1.387 . S
C945 C947 1.387 . S
H946 C953 0.950 . S
C947 C945 1.387 . S
C947 C949 1.390 . S
C947 H951 0.950 . S
H948 C944 0.950 . S
C949 C947 1.390 . S
C949 C950 1.387 . S
C949 H952 0.950 . S
C950 C949 1.387 . S
C950 C953 1.387 . S
H951 C947 0.950 . S
H952 C949 0.950 . S
C953 C944 1.390 . S
C953 H946 0.950 . S
C953 C950 1.387 . S
C954 C955 1.387 . S
C954 H958 0.950 . S
C954 C963 1.390 . S
C955 C954 1.387 . S
C955 C957 1.387 . S
H956 C963 0.950 . S
C957 C955 1.387 . S
C957 C959 1.390 . S
C957 H961 0.950 . S
H958 C954 0.950 . S
C959 C957 1.390 . S
C959 C960 1.387 . S
C959 H962 0.950 . S
C960 C959 1.387 . S
C960 C963 1.387 . S
H961 C957 0.950 . S
H962 C959 0.950 . S
C963 C954 1.390 . S
C963 H956 0.950 . S
C963 C960 1.387 . S
C964 C965 1.387 . S
C964 H968 0.950 . S
C964 C973 1.390 . S
C965 C964 1.387 . S
C965 C967 1.387 . S
H966 C973 0.950 . S
C967 C965 1.387 . S
C967 C969 1.390 . S
C967 H971 0.950 . S
H968 C964 0.950 . S
C969 C967 1.390 . S
C969 C970 1.387 . S
C969 H972 0.950 . S
C970 C969 1.387 . S
C970 C973 1.387 . S
H971 C967 0.950 . S
H972 C969 0.950 . S
C973 C964 1.390 . S
C973 H966 0.950 . S
C973 C970 1.387 . S
C974 C975 1.387 . S
C974 H978 0.950 . S
C974 C983 1.390 . S
C975 C974 1.387 . S
C975 C977 1.387 . S
H976 C983 0.950 . S
C977 C975 1.387 . S
C977 C979 1.390 . S
C977 H981 0.950 . S
H978 C974 0.950 . S
C979 C977 1.390 . S
C979 C980 1.387 . S
C979 H982 0.950 . S
C980 C979 1.387 . S
C980 C983 1.387 . S
H981 C977 0.950 . S
H982 C979 0.950 . S
C983 C974 1.390 . S
C983 H976 0.950 . S
C983 C980 1.387 . S
C984 C985 1.387 . S
C984 H988 0.950 . S
C984 C993 1.390 . S
C985 C984 1.387 . S
C985 C987 1.387 . S
H986 C993 0.950 . S
C987 C985 1.387 . S
C987 C989 1.390 . S
C987 H991 0.950 . S
H988 C984 0.950 . S
C989 C987 1.390 . S
C989 C990 1.387 . S
C989 H992 0.950 . S
C990 C989 1.387 . S
C990 C993 1.387 . S
H991 C987 0.950 . S
H992 C989 0.950 . S
C993 C984 1.390 . S
C993 H986 0.950 . S
C993 C990 1.387 . S
C994 C995 1.387 . S
C994 H998 0.950 . S
C994 C1003 1.390 . S
C995 C994 1.387 . S
C995 C997 1.387 . S
H996 C1003 0.950 . S
C997 C995 1.387 . S
C997 C999 1.390 . S
C997 H1001 0.950 . S
H998 C994 0.950 . S
C999 C997 1.390 . S
C999 C1000 1.387 . S
C999 H1002 0.950 . S
C1000 C999 1.387 . S
C1000 C1003 1.387 . S
H1001 C997 0.950 . S
H1002 C999 0.950 . S
C1003 C994 1.390 . S
C1003 H996 0.950 . S
C1003 C1000 1.387 . S
C1004 C1005 1.387 . S
C1004 H1008 0.950 . S
C1004 C1013 1.390 . S
C1005 C1004 1.387 . S
C1005 C1007 1.387 . S
H1006 C1013 0.950 . S
C1007 C1005 1.387 . S
C1007 C1009 1.390 . S
C1007 H1011 0.950 . S
H1008 C1004 0.950 . S
C1009 C1007 1.390 . S
C1009 C1010 1.387 . S
C1009 H1012 0.950 . S
C1010 C1009 1.387 . S
C1010 C1013 1.387 . S
H1011 C1007 0.950 . S
H1012 C1009 0.950 . S
C1013 C1004 1.390 . S
C1013 H1006 0.950 . S
C1013 C1010 1.387 . S
C1014 C1015 1.387 . S
C1014 H1018 0.950 . S
C1014 C1023 1.390 . S
C1015 C1014 1.387 . S
C1015 C1017 1.387 . S
H1016 C1023 0.950 . S
C1017 C1015 1.387 . S
C1017 C1019 1.390 . S
C1017 H1021 0.950 . S
H1018 C1014 0.950 . S
C1019 C1017 1.390 . S
C1019 C1020 1.387 . S
C1019 H1022 0.950 . S
C1020 C1019 1.387 . S
C1020 C1023 1.387 . S
H1021 C1017 0.950 . S
H1022 C1019 0.950 . S
C1023 C1014 1.390 . S
C1023 H1016 0.950 . S
C1023 C1020 1.387 . S
C1024 C1025 1.387 . S
C1024 H1028 0.950 . S
C1024 C1033 1.390 1_556 S
C1025 C1024 1.387 . S
C1025 C1027 1.387 . S
H1026 C1033 0.950 . S
C1027 C1025 1.387 . S
C1027 C1029 1.390 1_556 S
C1027 H1031 0.950 . S
H1028 C1024 0.950 . S
C1029 C1027 1.390 1_554 S
C1029 C1030 1.387 . S
C1029 H1032 0.950 . S
C1030 C1029 1.387 . S
C1030 C1033 1.387 . S
H1031 C1027 0.950 . S
H1032 C1029 0.950 . S
C1033 C1024 1.390 1_554 S
C1033 H1026 0.950 . S
C1033 C1030 1.387 . S
C1034 C1035 1.387 . S
C1034 H1038 0.950 . S
C1034 C1043 1.390 1_556 S
C1035 C1034 1.387 . S
C1035 C1037 1.387 . S
H1036 C1043 0.950 . S
C1037 C1035 1.387 . S
C1037 C1039 1.390 1_556 S
C1037 H1041 0.950 . S
H1038 C1034 0.950 . S
C1039 C1037 1.390 1_554 S
C1039 C1040 1.387 . S
C1039 H1042 0.950 . S
C1040 C1039 1.387 . S
C1040 C1043 1.387 . S
H1041 C1037 0.950 . S
H1042 C1039 0.950 . S
C1043 C1034 1.390 1_554 S
C1043 H1036 0.950 . S
C1043 C1040 1.387 . S
C1044 C1045 1.387 . S
C1044 H1048 0.950 . S
C1044 C1053 1.390 1_556 S
C1045 C1044 1.387 . S
C1045 C1047 1.387 . S
H1046 C1053 0.950 . S
C1047 C1045 1.387 . S
C1047 C1049 1.390 1_556 S
C1047 H1051 0.950 . S
H1048 C1044 0.950 . S
C1049 C1047 1.390 1_554 S
C1049 C1050 1.387 . S
C1049 H1052 0.950 . S
C1050 C1049 1.387 . S
C1050 C1053 1.387 . S
H1051 C1047 0.950 . S
H1052 C1049 0.950 . S
C1053 C1044 1.390 1_554 S
C1053 H1046 0.950 . S
C1053 C1050 1.387 . S
C1054 C1055 1.387 . S
C1054 H1058 0.950 . S
C1054 C1063 1.390 1_554 S
C1055 C1054 1.387 . S
C1055 C1057 1.387 . S
H1056 C1063 0.950 . S
C1057 C1055 1.387 . S
C1057 C1059 1.390 1_554 S
C1057 H1061 0.950 . S
H1058 C1054 0.950 . S
C1059 C1057 1.390 1_556 S
C1059 C1060 1.387 . S
C1059 H1062 0.950 . S
C1060 C1059 1.387 . S
C1060 C1063 1.387 . S
H1061 C1057 0.950 . S
H1062 C1059 0.950 . S
C1063 C1054 1.390 1_556 S
C1063 H1056 0.950 . S
C1063 C1060 1.387 . S
C1064 C1065 1.387 . S
C1064 H1068 0.950 . S
C1064 C1073 1.390 . S
C1065 C1064 1.387 . S
C1065 C1067 1.387 . S
H1066 C1073 0.950 . S
C1067 C1065 1.387 . S
C1067 C1069 1.390 . S
C1067 H1071 0.950 . S
H1068 C1064 0.950 . S
C1069 C1067 1.390 . S
C1069 C1070 1.387 . S
C1069 H1072 0.950 . S
C1070 C1069 1.387 . S
C1070 C1073 1.387 . S
H1071 C1067 0.950 . S
H1072 C1069 0.950 . S
C1073 C1064 1.390 . S
C1073 H1066 0.950 . S
C1073 C1070 1.387 . S
C1074 C1075 1.387 . S
C1074 H1078 0.950 . S
C1074 C1083 1.390 . S
C1075 C1074 1.387 . S
C1075 C1077 1.387 . S
H1076 C1083 0.950 . S
C1077 C1075 1.387 . S
C1077 C1079 1.390 . S
C1077 H1081 0.950 . S
H1078 C1074 0.950 . S
C1079 C1077 1.390 . S
C1079 C1080 1.387 . S
C1079 H1082 0.950 . S
C1080 C1079 1.387 . S
C1080 C1083 1.387 . S
H1081 C1077 0.950 . S
H1082 C1079 0.950 . S
C1083 C1074 1.390 . S
C1083 H1076 0.950 . S
C1083 C1080 1.387 . S
C1084 C1085 1.387 . S
C1084 H1088 0.950 . S
C1084 C1093 1.390 . S
C1085 C1084 1.387 . S
C1085 C1087 1.387 . S
H1086 C1093 0.950 . S
C1087 C1085 1.387 . S
C1087 C1089 1.390 . S
C1087 H1091 0.950 . S
H1088 C1084 0.950 . S
C1089 C1087 1.390 . S
C1089 C1090 1.387 . S
C1089 H1092 0.950 . S
C1090 C1089 1.387 . S
C1090 C1093 1.387 . S
H1091 C1087 0.950 . S
H1092 C1089 0.950 . S
C1093 C1084 1.390 . S
C1093 H1086 0.950 . S
C1093 C1090 1.387 . S
C1094 C1095 1.387 . S
C1094 H1098 0.950 . S
C1094 C1103 1.390 . S
C1095 C1094 1.387 . S
C1095 C1097 1.387 . S
H1096 C1103 0.950 . S
C1097 C1095 1.387 . S
C1097 C1099 1.390 . S
C1097 H1101 0.950 . S
H1098 C1094 0.950 . S
C1099 C1097 1.390 . S
C1099 C1100 1.387 . S
C1099 H1102 0.950 . S
C1100 C1099 1.387 . S
C1100 C1103 1.387 . S
H1101 C1097 0.950 . S
H1102 C1099 0.950 . S
C1103 C1094 1.390 . S
C1103 H1096 0.950 . S
C1103 C1100 1.387 . S
C1104 C1105 1.387 . S
C1104 H1108 0.950 . S
C1104 C1113 1.390 . S
C1105 C1104 1.387 . S
C1105 C1107 1.387 . S
H1106 C1113 0.950 . S
C1107 C1105 1.387 . S
C1107 C1109 1.390 . S
C1107 H1111 0.950 . S
H1108 C1104 0.950 . S
C1109 C1107 1.390 . S
C1109 C1110 1.387 . S
C1109 H1112 0.950 . S
C1110 C1109 1.387 . S
C1110 C1113 1.387 . S
H1111 C1107 0.950 . S
H1112 C1109 0.950 . S
C1113 C1104 1.390 . S
C1113 H1106 0.950 . S
C1113 C1110 1.387 . S
C1114 C1115 1.387 . S
C1114 H1118 0.950 . S
C1114 C1123 1.390 . S
C1115 C1114 1.387 . S
C1115 C1117 1.387 . S
H1116 C1123 0.950 . S
C1117 C1115 1.387 . S
C1117 C1119 1.390 . S
C1117 H1121 0.950 . S
H1118 C1114 0.950 . S
C1119 C1117 1.390 . S
C1119 C1120 1.387 . S
C1119 H1122 0.950 . S
C1120 C1119 1.387 . S
C1120 C1123 1.387 . S
H1121 C1117 0.950 . S
H1122 C1119 0.950 . S
C1123 C1114 1.390 . S
C1123 H1116 0.950 . S
C1123 C1120 1.387 . S
C1124 C1125 1.387 . S
C1124 H1128 0.950 . S
C1124 C1133 1.390 . S
C1125 C1124 1.387 . S
C1125 C1127 1.387 . S
H1126 C1133 0.950 . S
C1127 C1125 1.387 . S
C1127 C1129 1.390 . S
C1127 H1131 0.950 . S
H1128 C1124 0.950 . S
C1129 C1127 1.390 . S
C1129 C1130 1.387 . S
C1129 H1132 0.950 . S
C1130 C1129 1.387 . S
C1130 C1133 1.387 . S
H1131 C1127 0.950 . S
H1132 C1129 0.950 . S
C1133 C1124 1.390 . S
C1133 H1126 0.950 . S
C1133 C1130 1.387 . S
C1134 C1135 1.387 . S
C1134 H1138 0.950 . S
C1134 C1143 1.390 . S
C1135 C1134 1.387 . S
C1135 C1137 1.387 . S
H1136 C1143 0.950 . S
C1137 C1135 1.387 . S
C1137 C1139 1.390 . S
C1137 H1141 0.950 . S
H1138 C1134 0.950 . S
C1139 C1137 1.390 . S
C1139 C1140 1.387 . S
C1139 H1142 0.950 . S
C1140 C1139 1.387 . S
C1140 C1143 1.387 . S
H1141 C1137 0.950 . S
H1142 C1139 0.950 . S
C1143 C1134 1.390 . S
C1143 H1136 0.950 . S
C1143 C1140 1.387 . S
C1144 C1145 1.387 . S
C1144 H1148 0.950 . S
C1144 C1153 1.390 . S
C1145 C1144 1.387 . S
C1145 C1147 1.387 . S
H1146 C1153 0.950 . S
C1147 C1145 1.387 . S
C1147 C1149 1.390 . S
C1147 H1151 0.950 . S
H1148 C1144 0.950 . S
C1149 C1147 1.390 . S
C1149 C1150 1.387 . S
C1149 H1152 0.950 . S
C1150 C1149 1.387 . S
C1150 C1153 1.387 . S
H1151 C1147 0.950 . S
H1152 C1149 0.950 . S
C1153 C1144 1.390 . S
C1153 H1146 0.950 . S
C1153 C1150 1.387 . S
C1154 C1155 1.387 . S
C1154 H1158 0.950 . S
C1154 C1163 1.390 . S
C1155 C1154 1.387 . S
C1155 C1157 1.387 . S
H1156 C1163 0.950 . S
C1157 C1155 1.387 . S
C1157 C1159 1.390 . S
C1157 H1161 0.950 . S
H1158 C1154 0.950 . S
C1159 C1157 1.390 . S
C1159 C1160 1.387 . S
C1159 H1162 0.950 . S
C1160 C1159 1.387 . S
C1160 C1163 1.387 . S
H1161 C1157 0.950 . S
H1162 C1159 0.950 . S
C1163 C1154 1.390 . S
C1163 H1156 0.950 . S
C1163 C1160 1.387 . S
C1164 C1165 1.387 . S
C1164 H1168 0.950 . S
C1164 C1173 1.390 . S
C1165 C1164 1.387 . S
C1165 C1167 1.387 . S
H1166 C1173 0.950 . S
C1167 C1165 1.387 . S
C1167 C1169 1.390 . S
C1167 H1171 0.950 . S
H1168 C1164 0.950 . S
C1169 C1167 1.390 . S
C1169 C1170 1.387 . S
C1169 H1172 0.950 . S
C1170 C1169 1.387 . S
C1170 C1173 1.387 . S
H1171 C1167 0.950 . S
H1172 C1169 0.950 . S
C1173 C1164 1.390 . S
C1173 H1166 0.950 . S
C1173 C1170 1.387 . S
C1174 C1175 1.387 . S
C1174 H1178 0.950 . S
C1174 C1183 1.390 . S
C1175 C1174 1.387 . S
C1175 C1177 1.387 . S
H1176 C1183 0.950 . S
C1177 C1175 1.387 . S
C1177 C1179 1.390 . S
C1177 H1181 0.950 . S
H1178 C1174 0.950 . S
C1179 C1177 1.390 . S
C1179 C1180 1.387 . S
C1179 H1182 0.950 . S
C1180 C1179 1.387 . S
C1180 C1183 1.387 . S
H1181 C1177 0.950 . S
H1182 C1179 0.950 . S
C1183 C1174 1.390 . S
C1183 H1176 0.950 . S
C1183 C1180 1.387 . S
C1184 C1185 1.387 . S
C1184 H1188 0.950 . S
C1184 C1193 1.390 1_545 S
C1185 C1184 1.387 . S
C1185 C1187 1.387 . S
H1186 C1193 0.950 . S
C1187 C1185 1.387 . S
C1187 C1189 1.390 1_545 S
C1187 H1191 0.950 . S
H1188 C1184 0.950 . S
C1189 C1187 1.390 1_565 S
C1189 C1190 1.387 . S
C1189 H1192 0.950 . S
C1190 C1189 1.387 . S
C1190 C1193 1.387 . S
H1191 C1187 0.950 . S
H1192 C1189 0.950 . S
C1193 C1184 1.390 1_565 S
C1193 H1186 0.950 . S
C1193 C1190 1.387 . S
C1194 C1195 1.387 . S
C1194 H1198 0.950 . S
C1194 C1203 1.390 1_655 S
C1195 C1194 1.387 . S
C1195 C1197 1.387 . S
H1196 C1203 0.950 . S
C1197 C1195 1.387 . S
C1197 C1199 1.390 1_655 S
C1197 H1201 0.950 . S
H1198 C1194 0.950 . S
C1199 C1197 1.390 1_455 S
C1199 C1200 1.387 . S
C1199 H1202 0.950 . S
C1200 C1199 1.387 . S
C1200 C1203 1.387 . S
H1201 C1197 0.950 . S
H1202 C1199 0.950 . S
C1203 C1194 1.390 1_455 S
C1203 H1196 0.950 . S
C1203 C1200 1.387 . S
C1204 C1205 1.387 . S
C1204 H1208 0.950 . S
C1204 C1213 1.390 1_545 S
C1205 C1204 1.387 . S
C1205 C1207 1.387 . S
H1206 C1213 0.950 . S
C1207 C1205 1.387 . S
C1207 C1209 1.390 1_545 S
C1207 H1211 0.950 . S
H1208 C1204 0.950 . S
C1209 C1207 1.390 1_565 S
C1209 C1210 1.387 . S
C1209 H1212 0.950 . S
C1210 C1209 1.387 . S
C1210 C1213 1.387 . S
H1211 C1207 0.950 . S
H1212 C1209 0.950 . S
C1213 C1204 1.390 1_565 S
C1213 H1206 0.950 . S
C1213 C1210 1.387 . S
C1214 C1215 1.387 . S
C1214 H1218 0.950 . S
C1214 C1223 1.390 1_455 S
C1215 C1214 1.387 . S
C1215 C1217 1.387 . S
H1216 C1223 0.950 . S
C1217 C1215 1.387 . S
C1217 C1219 1.390 1_455 S
C1217 H1221 0.950 . S
H1218 C1214 0.950 . S
C1219 C1217 1.390 1_655 S
C1219 C1220 1.387 . S
C1219 H1222 0.950 . S
C1220 C1219 1.387 . S
C1220 C1223 1.387 . S
H1221 C1217 0.950 . S
H1222 C1219 0.950 . S
C1223 C1214 1.390 1_655 S
C1223 H1216 0.950 . S
C1223 C1220 1.387 . S
C1224 C1225 1.387 . S
C1224 H1228 0.950 . S
C1224 C1233 1.390 1_545 S
C1225 C1224 1.387 . S
C1225 C1227 1.387 . S
H1226 C1233 0.950 . S
C1227 C1225 1.387 . S
C1227 C1229 1.390 1_545 S
C1227 H1231 0.950 . S
H1228 C1224 0.950 . S
C1229 C1227 1.390 1_565 S
C1229 C1230 1.387 . S
C1229 H1232 0.950 . S
C1230 C1229 1.387 . S
C1230 C1233 1.387 . S
H1231 C1227 0.950 . S
H1232 C1229 0.950 . S
C1233 C1224 1.390 1_565 S
C1233 H1226 0.950 . S
C1233 C1230 1.387 . S
C1234 C1235 1.387 . S
C1234 H1238 0.950 . S
C1234 C1243 1.390 1_655 S
C1235 C1234 1.387 . S
C1235 C1237 1.387 . S
H1236 C1243 0.950 . S
C1237 C1235 1.387 . S
C1237 C1239 1.390 1_655 S
C1237 H1241 0.950 . S
H1238 C1234 0.950 . S
C1239 C1237 1.390 1_455 S
C1239 C1240 1.387 . S
C1239 H1242 0.950 . S
C1240 C1239 1.387 . S
C1240 C1243 1.387 . S
H1241 C1237 0.950 . S
H1242 C1239 0.950 . S
C1243 C1234 1.390 1_455 S
C1243 H1236 0.950 . S
C1243 C1240 1.387 . S
C1244 C1245 1.387 . S
C1244 H1248 0.950 . S
C1244 C1253 1.390 1_565 S
C1245 C1244 1.387 . S
C1245 C1247 1.387 . S
H1246 C1253 0.950 . S
C1247 C1245 1.387 . S
C1247 C1249 1.390 1_565 S
C1247 H1251 0.950 . S
H1248 C1244 0.950 . S
C1249 C1247 1.390 1_545 S
C1249 C1250 1.387 . S
C1249 H1252 0.950 . S
C1250 C1249 1.387 . S
C1250 C1253 1.387 . S
H1251 C1247 0.950 . S
H1252 C1249 0.950 . S
C1253 C1244 1.390 1_545 S
C1253 H1246 0.950 . S
C1253 C1250 1.387 . S
C1254 C1255 1.387 . S
C1254 H1258 0.950 . S
C1254 C1263 1.390 1_455 S
C1255 C1254 1.387 . S
C1255 C1257 1.387 . S
H1256 C1263 0.950 . S
C1257 C1255 1.387 . S
C1257 C1259 1.390 1_455 S
C1257 H1261 0.950 . S
H1258 C1254 0.950 . S
C1259 C1257 1.390 1_655 S
C1259 C1260 1.387 . S
C1259 H1262 0.950 . S
C1260 C1259 1.387 . S
C1260 C1263 1.387 . S
H1261 C1257 0.950 . S
H1262 C1259 0.950 . S
C1263 C1254 1.390 1_655 S
C1263 H1256 0.950 . S
C1263 C1260 1.387 . S
C945 C300 1.640 . S
C950 C5 1.641 . S
C955 C359 1.640 . S
C960 C64 1.641 . S
C965 C123 1.641 . S
C970 C418 1.641 . S
C975 C182 1.640 . S
C980 C241 1.640 . S
C985 C772 1.641 . S
C990 C477 1.641 . S
C995 C831 1.641 . S
C1000 C536 1.640 . S
C1005 C595 1.641 . S
C1010 C890 1.641 . S
C1015 C654 1.640 . S
C1020 C713 1.640 . S
C1025 C593 1.564 . S
C1030 C3 1.564 . S
C1035 C652 1.564 . S
C1040 C62 1.565 . S
C1045 C475 1.564 . S
C1050 C121 1.564 . S
C1055 C180 1.565 . S
C1060 C534 1.564 . S
C1065 C829 1.565 . S
C1070 C239 1.564 . S
C1075 C888 1.565 . S
C1080 C298 1.564 . S
C1085 C357 1.565 . S
C1090 C711 1.564 . S
C1095 C770 1.565 . S
C1100 C416 1.564 . S
C1105 C269 0.954 . S
C1110 C33 0.954 . S
C1115 C92 0.954 . S
C1120 C328 0.954 . S
C1125 C151 0.958 . S
C1130 C387 0.958 . S
C1135 C446 0.958 . S
C1140 C210 0.958 . S
C1145 C524 2.111 . S
C1150 C760 2.111 . S
C1155 C819 2.112 . S
C1160 C583 2.112 . S
C1165 C642 2.111 . S
C1170 C878 2.111 . S
C1175 C937 2.112 . S
C1180 C701 2.112 . S
C1185 C682 0.958 . S
C1190 C800 0.958 . S
C1195 C505 0.958 . S
C1200 C859 0.958 . S
C1205 C918 0.958 . S
C1210 C564 0.958 . S
C1215 C623 0.958 . S
C1220 C741 0.958 . S
C1225 C347 2.112 . S
C1230 C229 2.112 . S
C1235 C406 2.112 . S
C1240 C52 2.112 . S
C1245 C465 2.112 . S
C1250 C111 2.112 . S
C1255 C288 2.112 . S
C1260 C170 2.112 . S
