# Generated by pormake.
# Topology ske, (6)-cn, num edge types: 1
# Building blocks:
#     Node 0, Type 0, BuildingBlock: BETFEN_clean_sbu_0, # of connection points: 6
#     Node 1, Type 0, BuildingBlock: BETFEN_clean_sbu_0, # of connection points: 6
#     Node 2, Type 0, BuildingBlock: BETFEN_clean_sbu_0, # of connection points: 6
#     Node 3, Type 0, BuildingBlock: BETFEN_clean_sbu_0, # of connection points: 6
#     Node 4, Type 0, BuildingBlock: BETFEN_clean_sbu_0, # of connection points: 6
#     Node 5, Type 0, BuildingBlock: BETFEN_clean_sbu_0, # of connection points: 6
#     Node 6, Type 0, BuildingBlock: BETFEN_clean_sbu_0, # of connection points: 6
#     Node 7, Type 0, BuildingBlock: BETFEN_clean_sbu_0, # of connection points: 6
#     Edge 8, Type (0, 0), BuildingBlock: UVAHIK_clean_linker_0, # of connection points: 2
#     Edge 9, Type (0, 0), BuildingBlock: UVAHIK_clean_linker_0, # of connection points: 2
#     Edge 10, Type (0, 0), BuildingBlock: UVAHIK_clean_linker_0, # of connection points: 2
#     Edge 11, Type (0, 0), BuildingBlock: UVAHIK_clean_linker_0, # of connection points: 2
#     Edge 12, Type (0, 0), BuildingBlock: UVAHIK_clean_linker_0, # of connection points: 2
#     Edge 13, Type (0, 0), BuildingBlock: UVAHIK_clean_linker_0, # of connection points: 2
#     Edge 14, Type (0, 0), BuildingBlock: UVAHIK_clean_linker_0, # of connection points: 2
#     Edge 15, Type (0, 0), BuildingBlock: UVAHIK_clean_linker_0, # of connection points: 2
#     Edge 16, Type (0, 0), BuildingBlock: UVAHIK_clean_linker_0, # of connection points: 2
#     Edge 17, Type (0, 0), BuildingBlock: UVAHIK_clean_linker_0, # of connection points: 2
#     Edge 18, Type (0, 0), BuildingBlock: UVAHIK_clean_linker_0, # of connection points: 2
#     Edge 19, Type (0, 0), BuildingBlock: UVAHIK_clean_linker_0, # of connection points: 2
#     Edge 20, Type (0, 0), BuildingBlock: UVAHIK_clean_linker_0, # of connection points: 2
#     Edge 21, Type (0, 0), BuildingBlock: UVAHIK_clean_linker_0, # of connection points: 2
#     Edge 22, Type (0, 0), BuildingBlock: UVAHIK_clean_linker_0, # of connection points: 2
#     Edge 23, Type (0, 0), BuildingBlock: UVAHIK_clean_linker_0, # of connection points: 2
#     Edge 24, Type (0, 0), BuildingBlock: UVAHIK_clean_linker_0, # of connection points: 2
#     Edge 25, Type (0, 0), BuildingBlock: UVAHIK_clean_linker_0, # of connection points: 2
#     Edge 26, Type (0, 0), BuildingBlock: UVAHIK_clean_linker_0, # of connection points: 2
#     Edge 27, Type (0, 0), BuildingBlock: UVAHIK_clean_linker_0, # of connection points: 2
#     Edge 28, Type (0, 0), BuildingBlock: UVAHIK_clean_linker_0, # of connection points: 2
#     Edge 29, Type (0, 0), BuildingBlock: UVAHIK_clean_linker_0, # of connection points: 2
#     Edge 30, Type (0, 0), BuildingBlock: UVAHIK_clean_linker_0, # of connection points: 2
#     Edge 31, Type (0, 0), BuildingBlock: UVAHIK_clean_linker_0, # of connection points: 2
# Relax obj value: 0.202
# Max RMSD: 0.202
# Mean RMSD: 0.196
data_MOF--net-ske--node1-BETFEN_clean_sbu_0--edge1-UVAHIK_clean_linker_0
_symmetry_space_group_name_H-M    P1
_symmetry_Int_Tables_number       1
_symmetry_cell_setting            triclinic
loop_
_symmetry_equiv_pos_as_xyz
'x, y, z'
_cell_length_a     120.74552
_cell_length_b     38.405221
_cell_length_c     20.280783
_cell_angle_alpha  90.024258
_cell_angle_beta   89.939264
_cell_angle_gamma 84.512031
loop_
_atom_site_label
_atom_site_type_symbol
_atom_site_fract_x
_atom_site_fract_y
_atom_site_fract_z
_atom_type_partial_charge
Pr0 Pr 0.15239 0.25353 0.52448 0.0
Pr1 Pr 0.12794 0.24361 0.53069 0.0
C2 C 0.17315 0.27396 0.53453 0.0
C3 C 0.18384 0.26958 0.57087 0.0
C4 C 0.19028 0.23713 0.5741 0.0
C5 C 0.2009 0.23451 0.60262 0.0
C6 C 0.20532 0.26428 0.62847 0.0
C7 C 0.1987 0.29649 0.62679 0.0
C8 C 0.18811 0.29909 0.5982 0.0
C9 C 0.14802 0.18316 0.51777 0.0
C10 C 0.14077 0.24461 0.67098 0.0
C11 C 0.10716 0.22304 0.52525 0.0
C12 C 0.09566 0.2287 0.50017 0.0
C13 C 0.09054 0.26235 0.48704 0.0
C14 C 0.07915 0.26723 0.47227 0.0
C15 C 0.07266 0.23859 0.47069 0.0
C16 C 0.07798 0.20484 0.48157 0.0
C17 C 0.08935 0.20001 0.49606 0.0
C18 C 0.13238 0.31421 0.53362 0.0
C19 C 0.13974 0.25097 0.38386 0.0
O20 O 0.16451 0.29036 0.56393 0.0
O21 O 0.1706 0.24832 0.49674 0.0
O22 O 0.14319 0.20564 0.55613 0.0
O23 O 0.15579 0.19624 0.48432 0.0
O24 O 0.13289 0.22998 0.6394 0.0
O25 O 0.14847 0.25958 0.63808 0.0
O26 O 0.11511 0.21081 0.48528 0.0
O27 O 0.1103 0.24555 0.56801 0.0
O28 O 0.13714 0.29096 0.49683 0.0
O29 O 0.12458 0.30182 0.56782 0.0
O30 O 0.14766 0.26573 0.41497 0.0
O31 O 0.13195 0.2365 0.41717 0.0
H32 H 0.18725 0.21388 0.5532 0.0
H33 H 0.20578 0.20935 0.60241 0.0
H34 H 0.20173 0.31985 0.64719 0.0
H35 H 0.18334 0.32444 0.59616 0.0
H36 H 0.09526 0.2849 0.49 0.0
H37 H 0.07539 0.29352 0.46314 0.0
H38 H 0.07329 0.18219 0.48179 0.0
H39 H 0.09312 0.17387 0.50666 0.0
Pr40 Pr 0.87233 0.2463 0.52403 0.0
Pr41 Pr 0.89689 0.25599 0.52873 0.0
C42 C 0.85155 0.22613 0.53499 0.0
C43 C 0.84083 0.23107 0.57109 0.0
C44 C 0.83434 0.26349 0.57213 0.0
C45 C 0.8237 0.26651 0.60047 0.0
C46 C 0.8193 0.2372 0.6283 0.0
C47 C 0.82596 0.20505 0.62881 0.0
C48 C 0.83658 0.20204 0.6004 0.0
C49 C 0.87679 0.31663 0.51783 0.0
C50 C 0.88419 0.2545 0.66987 0.0
C51 C 0.91761 0.27686 0.52168 0.0
C52 C 0.92919 0.2716 0.49711 0.0
C53 C 0.93559 0.23917 0.50262 0.0
C54 C 0.94704 0.23639 0.48921 0.0
C55 C 0.95232 0.26601 0.47037 0.0
C56 C 0.94575 0.29799 0.4619 0.0
C57 C 0.93433 0.30072 0.47518 0.0
C58 C 0.89246 0.18539 0.53131 0.0
C59 C 0.88486 0.24901 0.38278 0.0
O60 O 0.86016 0.21011 0.56518 0.0
O61 O 0.85415 0.25122 0.496 0.0
O62 O 0.88167 0.29394 0.5555 0.0
O63 O 0.86892 0.30378 0.48498 0.0
O64 O 0.8921 0.26897 0.63811 0.0
O65 O 0.8764 0.23989 0.63723 0.0
O66 O 0.90964 0.28852 0.48147 0.0
O67 O 0.9145 0.25503 0.56585 0.0
O68 O 0.88752 0.2088 0.49565 0.0
O69 O 0.90056 0.19748 0.56324 0.0
O70 O 0.87698 0.23414 0.41422 0.0
O71 O 0.89267 0.26351 0.41574 0.0
H72 H 0.83736 0.28636 0.54966 0.0
H73 H 0.81879 0.2916 0.59857 0.0
H74 H 0.82294 0.18205 0.65075 0.0
H75 H 0.84138 0.17672 0.60005 0.0
H76 H 0.93185 0.21628 0.51969 0.0
H77 H 0.95184 0.21141 0.49661 0.0
H78 H 0.9495 0.32118 0.44638 0.0
H79 H 0.92958 0.32602 0.47078 0.0
Pr80 Pr 0.12793 0.74398 0.49019 0.0
Pr81 Pr 0.15253 0.75299 0.4961 0.0
C82 C 0.10707 0.72398 0.49585 0.0
C83 C 0.09553 0.72967 0.52059 0.0
C84 C 0.09031 0.76335 0.53243 0.0
C85 C 0.0789 0.76814 0.5467 0.0
C86 C 0.07247 0.73937 0.54904 0.0
C87 C 0.07788 0.70561 0.53944 0.0
C88 C 0.08927 0.70088 0.52547 0.0
C89 C 0.13261 0.81432 0.48686 0.0
C90 C 0.13978 0.75137 0.6368 0.0
C91 C 0.17345 0.77221 0.48568 0.0
C92 C 0.18416 0.76682 0.44961 0.0
C93 C 0.19021 0.73372 0.44537 0.0
C94 C 0.20085 0.73002 0.41705 0.0
C95 C 0.2057 0.75929 0.39226 0.0
C96 C 0.19948 0.7922 0.39508 0.0
C97 C 0.18887 0.79589 0.42355 0.0
C98 C 0.1478 0.68302 0.50341 0.0
C99 C 0.14082 0.74452 0.34977 0.0
O100 O 0.11499 0.71158 0.5358 0.0
O101 O 0.11028 0.74642 0.45313 0.0
O102 O 0.13738 0.79098 0.5234 0.0
O103 O 0.12471 0.80217 0.45328 0.0
O104 O 0.14777 0.76576 0.60551 0.0
O105 O 0.13194 0.7371 0.60369 0.0
O106 O 0.16491 0.78875 0.45563 0.0
O107 O 0.17071 0.74714 0.52426 0.0
O108 O 0.14309 0.70555 0.46474 0.0
O109 O 0.15563 0.6958 0.53668 0.0
O110 O 0.13286 0.73023 0.38139 0.0
O111 O 0.1486 0.75912 0.38259 0.0
H112 H 0.09499 0.78599 0.52884 0.0
H113 H 0.07508 0.79446 0.55486 0.0
H114 H 0.07324 0.68284 0.53983 0.0
H115 H 0.09311 0.6747 0.51585 0.0
H116 H 0.18681 0.71076 0.46498 0.0
H117 H 0.20532 0.70421 0.41488 0.0
H118 H 0.20297 0.81539 0.37728 0.0
H119 H 0.18443 0.82174 0.42677 0.0
Pr120 Pr 0.89645 0.75634 0.49231 0.0
Pr121 Pr 0.87183 0.74689 0.49701 0.0
C122 C 0.91727 0.77655 0.49888 0.0
C123 C 0.92887 0.77141 0.52316 0.0
C124 C 0.93527 0.73897 0.5179 0.0
C125 C 0.94673 0.73626 0.53094 0.0
C126 C 0.95202 0.76596 0.5491 0.0
C127 C 0.94546 0.79798 0.55726 0.0
C128 C 0.93402 0.80064 0.54438 0.0
C129 C 0.89189 0.68587 0.48985 0.0
C130 C 0.88434 0.74993 0.63836 0.0
C131 C 0.85109 0.7264 0.48616 0.0
C132 C 0.84039 0.73119 0.45012 0.0
C133 C 0.83484 0.76452 0.43895 0.0
C134 C 0.82421 0.76802 0.41048 0.0
C135 C 0.81891 0.73829 0.39248 0.0
C136 C 0.82465 0.70504 0.40229 0.0
C137 C 0.83525 0.70157 0.43084 0.0
C138 C 0.87633 0.8172 0.50279 0.0
C139 C 0.88377 0.75506 0.35127 0.0
O140 O 0.90931 0.78872 0.53889 0.0
O141 O 0.9141 0.75447 0.45534 0.0
O142 O 0.88701 0.70935 0.52575 0.0
O143 O 0.89985 0.69798 0.45658 0.0
O144 O 0.8764 0.73531 0.60708 0.0
O145 O 0.89222 0.76403 0.60531 0.0
O146 O 0.85972 0.71045 0.45594 0.0
O147 O 0.85363 0.75171 0.5248 0.0
O148 O 0.88128 0.79436 0.46563 0.0
O149 O 0.86824 0.80471 0.53424 0.0
O150 O 0.89165 0.76959 0.38311 0.0
O151 O 0.87598 0.74037 0.38386 0.0
H152 H 0.93152 0.71599 0.50133 0.0
H153 H 0.95153 0.71124 0.52378 0.0
H154 H 0.9492 0.82125 0.57226 0.0
H155 H 0.92928 0.82596 0.54855 0.0
H156 H 0.83861 0.78786 0.45321 0.0
H157 H 0.82012 0.79404 0.40282 0.0
H158 H 0.82081 0.68154 0.38988 0.0
H159 H 0.83932 0.67559 0.43944 0.0
Pr160 Pr 0.65288 0.75355 0.0402 0.0
Pr161 Pr 0.62836 0.74458 0.04613 0.0
C162 C 0.67374 0.77317 0.05094 0.0
C163 C 0.68429 0.7685 0.08848 0.0
C164 C 0.68975 0.73518 0.10106 0.0
C165 C 0.70027 0.73171 0.13089 0.0
C166 C 0.70556 0.76146 0.14891 0.0
C167 C 0.69991 0.79472 0.13782 0.0
C168 C 0.68942 0.79815 0.10787 0.0
C169 C 0.64829 0.68349 0.0316 0.0
C170 C 0.64121 0.74459 0.18649 0.0
C171 C 0.60745 0.72497 0.04119 0.0
C172 C 0.59581 0.73072 0.0183 0.0
C173 C 0.59039 0.76445 1.01028 0.0
C174 C 0.57891 0.76905 0.99793 0.0
C175 C 0.57261 0.74001 0.99375 0.0
C176 C 0.57822 0.70627 0.99956 0.0
C177 C 0.58967 0.70174 1.0116 0.0
C178 C 0.63311 0.81504 0.04814 0.0
C179 C 0.64026 0.75118 0.89942 0.0
O180 O 0.6651 0.79027 0.07908 0.0
O181 O 0.67115 0.74725 0.01399 0.0
O182 O 0.64349 0.70574 0.07067 0.0
O183 O 0.65611 0.69663 0.99875 0.0
O184 O 0.63326 0.73043 0.15471 0.0
O185 O 0.64897 0.75936 0.1538 0.0
O186 O 0.61525 0.71308 0.99989 0.0
O187 O 0.61079 0.74682 0.08458 0.0
O188 O 0.63778 0.79141 1.01189 0.0
O189 O 0.62525 0.80309 0.08256 0.0
O190 O 0.64823 0.76576 0.93053 0.0
O191 O 0.6324 0.73704 0.93274 0.0
H192 H 0.686 0.7118 0.08681 0.0
H193 H 0.7043 0.70569 0.13953 0.0
H194 H 0.70374 0.81821 0.15026 0.0
H195 H 0.68542 0.82413 0.09825 0.0
H196 H 0.59495 0.78725 0.01537 0.0
H197 H 0.57494 0.79539 0.99268 0.0
H198 H 0.5737 0.68327 0.99767 0.0
H199 H 0.59367 0.6755 0.01834 0.0
Pr200 Pr 0.37205 0.74399 0.04267 0.0
Pr201 Pr 0.3964 0.75454 0.04987 0.0
C202 C 0.35118 0.72434 0.05285 0.0
C203 C 0.34055 0.7295 0.08986 0.0
C204 C 0.33454 0.76261 0.09542 0.0
C205 C 0.32396 0.76618 0.12457 0.0
C206 C 0.31914 0.73677 0.14892 0.0
C207 C 0.32532 0.70385 0.14493 0.0
C208 C 0.33588 0.70028 0.1156 0.0
C209 C 0.37635 0.81409 0.03235 0.0
C210 C 0.38339 0.75434 0.18957 0.0
C211 C 0.41717 0.77525 0.04457 0.0
C212 C 0.42886 0.77017 0.02188 0.0
C213 C 0.43519 0.73756 0.0263 0.0
C214 C 0.4467 0.73479 0.01461 0.0
C215 C 0.45211 0.7646 0.99875 0.0
C216 C 0.44564 0.79685 0.99156 0.0
C217 C 0.43416 0.79956 1.00302 0.0
C218 C 0.39214 0.68375 0.05314 0.0
C219 C 0.38484 0.74592 0.90266 0.0
O220 O 0.35977 0.7075 0.08181 0.0
O221 O 0.35385 0.74982 0.01505 0.0
O222 O 0.38099 0.79259 0.07314 0.0
O223 O 0.36897 0.80008 0.99741 0.0
O224 O 0.39126 0.76901 0.15799 0.0
O225 O 0.3758 0.73889 0.15663 0.0
O226 O 0.40934 0.78665 1.00322 0.0
O227 O 0.41391 0.75358 0.08859 0.0
O228 O 0.3874 0.70681 0.01608 0.0
O229 O 0.39982 0.69644 0.08778 0.0
O230 O 0.37701 0.73068 0.93382 0.0
O231 O 0.39247 0.76109 0.93605 0.0
H232 H 0.33791 0.78569 0.07616 0.0
H233 H 0.31952 0.792 0.12766 0.0
H234 H 0.32185 0.68057 0.16243 0.0
H235 H 0.34028 0.67443 0.11143 0.0
H236 H 0.43132 0.71447 0.04109 0.0
H237 H 0.45142 0.7096 0.02093 0.0
H238 H 0.44949 0.82021 0.97834 0.0
H239 H 0.42947 0.82501 0.99956 0.0
Pr240 Pr 0.62878 0.24446 0.97785 0.0
Pr241 Pr 0.65329 0.25315 0.9837 0.0
C242 C 0.6078 0.22548 0.98372 0.0
C243 C 0.59613 0.2341 1.00438 0.0
C244 C 0.591 0.26847 1.00177 0.0
C245 C 0.57951 0.27511 0.01232 0.0
C246 C 0.57294 0.24751 0.02555 0.0
C247 C 0.57823 0.21333 0.0305 0.0
C248 C 0.58969 0.20675 0.02001 0.0
C249 C 0.63348 0.31491 0.97577 0.0
C250 C 0.64069 0.25061 0.12431 0.0
C251 C 0.67418 0.27247 0.97295 0.0
C252 C 0.68475 0.26788 0.93526 0.0
C253 C 0.69131 0.23559 0.93321 0.0
C254 C 0.70184 0.23285 0.90344 0.0
C255 C 0.70607 0.26234 0.87516 0.0
C256 C 0.69934 0.29436 0.87563 0.0
C257 C 0.68883 0.29708 0.90546 0.0
C258 C 0.64858 0.18323 0.99302 0.0
C259 C 0.64169 0.24391 0.83746 0.0
O260 O 0.61531 0.21609 0.02834 0.0
O261 O 0.61153 0.24396 0.93597 0.0
O262 O 0.63823 0.29132 1.01172 0.0
O263 O 0.62559 0.30294 0.94185 0.0
O264 O 0.64857 0.26564 0.09321 0.0
O265 O 0.63294 0.23607 0.09089 0.0
O266 O 0.66555 0.28977 0.94518 0.0
O267 O 0.67156 0.24658 1.00986 0.0
O268 O 0.64386 0.20538 0.95355 0.0
O269 O 0.6564 0.19636 0.02582 0.0
O270 O 0.63374 0.22982 0.86942 0.0
O271 O 0.64944 0.25874 0.87003 0.0
H272 H 0.5958 0.29003 0.98972 0.0
H273 H 0.57576 0.30181 1.00914 0.0
H274 H 0.57346 0.19134 0.0397 0.0
H275 H 0.59346 0.17999 0.0216 0.0
H276 H 0.68845 0.21258 0.95602 0.0
H277 H 0.70681 0.20786 0.90466 0.0
H278 H 0.70223 0.31748 0.85341 0.0
H279 H 0.68398 0.32232 0.90656 0.0
Pr280 Pr 0.39563 0.25045 0.99043 0.0
Pr281 Pr 0.37088 0.24794 0.99502 0.0
C282 C 0.41747 0.25823 1.0023 0.0
C283 C 0.42958 0.26117 1.00908 0.0
C284 C 0.43695 0.23093 0.01792 0.0
C285 C 0.4484 0.23316 0.02305 0.0
C286 C 0.45282 0.2657 0.01947 0.0
C287 C 0.44543 0.29602 1.0107 0.0
C288 C 0.43393 0.29378 1.00566 0.0
C289 C 0.38866 0.18318 0.98005 0.0
C290 C 0.38324 0.24761 0.13578 0.0
C291 C 0.34956 0.2328 0.98252 0.0
C292 C 0.3392 0.2372 0.9428 0.0
C293 C 0.33265 0.26947 0.93938 0.0
C294 C 0.32223 0.27199 0.90837 0.0
C295 C 0.3181 0.24228 0.88031 0.0
C296 C 0.32484 0.2103 0.88205 0.0
C297 C 0.33523 0.20779 0.91306 0.0
C298 C 0.37716 0.31571 1.0081 0.0
C299 C 0.38345 0.2533 0.84804 0.0
O300 O 0.41005 0.28509 0.99456 0.0
O301 O 0.41343 0.22793 1.00442 0.0
O302 O 0.38497 0.20608 0.02109 0.0
O303 O 0.39594 0.195 0.94091 0.0
O304 O 0.37507 0.23426 0.10451 0.0
O305 O 0.39129 0.26072 0.10256 0.0
O306 O 0.35804 0.21272 0.95923 0.0
O307 O 0.35249 0.25966 0.01566 0.0
O308 O 0.38149 0.29334 0.96744 0.0
O309 O 0.36908 0.30384 0.04069 0.0
O310 O 0.39246 0.26115 0.87909 0.0
O311 O 0.37466 0.24452 0.88076 0.0
H312 H 0.43389 0.20536 0.02042 0.0
H313 H 0.45383 0.20921 0.02867 0.0
H314 H 0.44853 0.32154 1.00835 0.0
H315 H 0.42846 0.31755 0.99888 0.0
H316 H 0.33541 0.29262 0.96222 0.0
H317 H 0.31725 0.29697 0.90858 0.0
H318 H 0.32202 0.187 0.86007 0.0
H319 H 0.34005 0.18253 0.91527 0.0
C320 C 0.22124 0.23298 0.69232 0.0
C321 C 0.21691 0.26203 0.65504 0.0
C322 C 0.23217 0.23077 0.71619 0.0
C323 C 0.2594 0.26636 0.6896 0.0
H324 H 0.26593 0.22977 0.86484 0.0
C325 C 0.30233 0.27341 0.81495 0.0
C326 C 0.30664 0.24425 0.85203 0.0
C327 C 0.29146 0.27547 0.7901 0.0
C328 C 0.26429 0.23969 0.81548 0.0
H329 H 0.22084 0.31136 0.61311 0.0
H330 H 0.23974 0.30789 0.65592 0.0
H331 H 0.2469 0.23349 0.82365 0.0
H332 H 0.30275 0.19452 0.89234 0.0
H333 H 0.28395 0.19779 0.84804 0.0
H334 H 0.27679 0.27263 0.68155 0.0
C335 C 0.23473 0.28659 0.6662 0.0
C336 C 0.25336 0.24181 0.79181 0.0
C337 C 0.22381 0.28881 0.64236 0.0
C338 C 0.29979 0.21717 0.86331 0.0
C339 C 0.28893 0.21926 0.83861 0.0
C340 C 0.27033 0.26426 0.71331 0.0
C341 C 0.23908 0.25753 0.70336 0.0
C342 C 0.25075 0.25517 0.72853 0.0
C343 C 0.28459 0.24849 0.80189 0.0
C344 C 0.27293 0.25087 0.77656 0.0
H345 H 0.21616 0.212 0.70356 0.0
H346 H 0.23526 0.20782 0.74403 0.0
H347 H 0.25776 0.27627 0.64024 0.0
H348 H 0.30738 0.29463 0.80481 0.0
H349 H 0.28837 0.29852 0.76253 0.0
C350 C 0.722 0.2305 0.81189 0.0
C351 C 0.71761 0.26007 0.84765 0.0
C352 C 0.73292 0.22816 0.78769 0.0
C353 C 0.76003 0.26451 0.81245 0.0
H354 H 0.7669 0.22514 0.63951 0.0
C355 C 0.80327 0.26948 0.68995 0.0
C356 C 0.80768 0.23979 0.65461 0.0
C357 C 0.7923 0.27202 0.71348 0.0
C358 C 0.76516 0.23585 0.68825 0.0
H359 H 0.72141 0.31028 0.88622 0.0
H360 H 0.74029 0.30655 0.84288 0.0
H361 H 0.74779 0.22937 0.67992 0.0
H362 H 0.80386 0.18965 0.61581 0.0
H363 H 0.7849 0.19373 0.65798 0.0
H364 H 0.77739 0.27097 0.82082 0.0
C365 C 0.73533 0.28494 0.83408 0.0
C366 C 0.75418 0.23827 0.71145 0.0
C367 C 0.72443 0.28729 0.85821 0.0
C368 C 0.80083 0.21272 0.64355 0.0
C369 C 0.78987 0.21526 0.66701 0.0
C370 C 0.771 0.26209 0.78926 0.0
C371 C 0.73976 0.25529 0.7987 0.0
C372 C 0.75146 0.25265 0.77388 0.0
C373 C 0.78544 0.24497 0.70219 0.0
C374 C 0.77373 0.24771 0.72684 0.0
H375 H 0.71698 0.20916 0.80226 0.0
H376 H 0.73606 0.20478 0.7612 0.0
H377 H 0.7583 0.2752 0.86121 0.0
H378 H 0.80831 0.29073 0.69992 0.0
H379 H 0.78915 0.29545 0.73979 0.0
C380 C 0.30482 0.72073 0.23154 0.0
C381 C 0.30757 0.74013 0.17603 0.0
C382 C 0.29387 0.72293 0.25529 0.0
C383 C 0.26468 0.74737 0.20362 0.0
H384 H 0.25874 0.74898 0.39152 0.0
C385 C 0.22011 0.77497 0.30996 0.0
C386 C 0.2173 0.75583 0.36568 0.0
C387 C 0.23108 0.77268 0.28658 0.0
C388 C 0.26025 0.74812 0.33887 0.0
H389 H 0.30086 0.77705 0.10203 0.0
H390 H 0.28186 0.78133 0.144 0.0
H391 H 0.2779 0.7462 0.35211 0.0
H392 H 0.22394 0.71925 0.44046 0.0
H393 H 0.24299 0.71476 0.39903 0.0
H394 H 0.24704 0.74925 0.19034 0.0
C395 C 0.28815 0.76413 0.1689 0.0
C396 C 0.27125 0.74655 0.31624 0.0
C397 C 0.29909 0.76202 0.1453 0.0
C398 C 0.22575 0.73409 0.39701 0.0
C399 C 0.23672 0.73186 0.37373 0.0
C400 C 0.25368 0.74892 0.22624 0.0
C401 C 0.28536 0.74448 0.22402 0.0
C402 C 0.27363 0.74619 0.24828 0.0
C403 C 0.23956 0.75124 0.31835 0.0
C404 C 0.2513 0.74934 0.29419 0.0
H405 H 0.31114 0.70384 0.25684 0.0
H406 H 0.29204 0.70719 0.29751 0.0
H407 H 0.26619 0.74653 0.15096 0.0
H408 H 0.21382 0.79173 0.28419 0.0
H409 H 0.23294 0.78824 0.24419 0.0
C410 C 0.72527 0.73305 0.15148 0.0
C411 C 0.71706 0.75798 0.17684 0.0
C412 C 0.73618 0.73079 0.17551 0.0
C413 C 0.75593 0.78224 0.2651 0.0
H414 H 0.77285 0.69198 0.28666 0.0
C415 C 0.79916 0.7665 0.392 0.0
C416 C 0.80733 0.74174 0.36568 0.0
C417 C 0.78819 0.76874 0.36887 0.0
C418 C 0.7683 0.71745 0.2802 0.0
H419 H 0.71392 0.79946 0.24897 0.0
H420 H 0.73292 0.79544 0.29104 0.0
H421 H 0.75367 0.69491 0.24805 0.0
H422 H 0.81033 0.70057 0.2928 0.0
H423 H 0.79124 0.70454 0.2524 0.0
H424 H 0.77056 0.80476 0.29726 0.0
C425 C 0.73097 0.77802 0.25161 0.0
C426 C 0.75727 0.71913 0.25805 0.0
C427 C 0.72005 0.7803 0.22753 0.0
C428 C 0.80424 0.71958 0.315 0.0
C429 C 0.79327 0.72183 0.29186 0.0
C430 C 0.76695 0.78055 0.28728 0.0
C431 C 0.73921 0.75339 0.22565 0.0
C432 C 0.75093 0.75155 0.25009 0.0
C433 C 0.78507 0.74629 0.31874 0.0
C434 C 0.7733 0.74813 0.29505 0.0
H435 H 0.72334 0.71581 0.11171 0.0
H436 H 0.74232 0.71185 0.15356 0.0
H437 H 0.75139 0.80771 0.25856 0.0
H438 H 0.80117 0.78362 0.43179 0.0
H439 H 0.78208 0.78757 0.39144 0.0
C440 C 0.1426 0.86356 0.5323 0.0
C441 C 0.13429 0.85203 0.49144 0.0
C442 C 0.14403 0.89927 0.53729 0.0
C443 C 0.12941 0.9877 0.50918 0.0
H444 H 0.15917 0.01757 0.51357 0.0
C445 C 0.15295 0.12208 0.47737 0.0
C446 C 0.14622 0.14548 0.51712 0.0
C447 C 0.15142 0.08642 0.47646 0.0
C448 C 0.15079 0.00973 0.51209 0.0
H449 H 0.12104 0.86888 0.42337 0.0
H450 H 0.12356 0.93106 0.4317 0.0
H451 H 0.1567 0.95541 0.50659 0.0
H452 H 0.13254 0.14987 0.58668 0.0
H453 H 0.12987 0.08741 0.58533 0.0
H454 H 0.12352 0.04212 0.51343 0.0
C455 C 0.12889 0.91264 0.46063 0.0
C456 C 0.14938 0.97399 0.50882 0.0
C457 C 0.12749 0.87695 0.45548 0.0
C458 C 0.13786 0.13245 0.55564 0.0
C459 C 0.1363 0.09669 0.55455 0.0
C460 C 0.13083 0.02346 0.51274 0.0
C461 C 0.13717 0.92434 0.50169 0.0
C462 C 0.13867 0.96246 0.50688 0.0
C463 C 0.1431 0.07316 0.51511 0.0
C464 C 0.14154 0.035 0.51375 0.0
H465 H 0.14798 0.84498 0.56066 0.0
H466 H 0.15042 0.90728 0.56987 0.0
H467 H 0.12104 0.97982 0.50857 0.0
H468 H 0.15942 0.13132 0.44681 0.0
H469 H 0.15669 0.06928 0.44467 0.0
C470 C 0.88696 0.36726 0.55612 0.0
C471 C 0.87858 0.35433 0.5177 0.0
C472 C 0.8885 0.40305 0.5556 0.0
C473 C 0.8739 0.49015 0.51477 0.0
H474 H 0.90361 0.52037 0.51141 0.0
C475 C 0.89711 0.62323 0.45884 0.0
C476 C 0.89024 0.64814 0.4946 0.0
C477 C 0.89575 0.58752 0.46399 0.0
C478 C 0.89525 0.51241 0.51198 0.0
H479 H 0.86532 0.36874 0.44811 0.0
H480 H 0.868 0.43081 0.4469 0.0
H481 H 0.9012 0.45802 0.51557 0.0
H482 H 0.87649 0.65512 0.56347 0.0
H483 H 0.8741 0.59276 0.57272 0.0
H484 H 0.86794 0.54445 0.50983 0.0
C485 C 0.87331 0.41357 0.47824 0.0
C486 C 0.89387 0.4766 0.51515 0.0
C487 C 0.87182 0.37788 0.4786 0.0
C488 C 0.88191 0.63656 0.53527 0.0
C489 C 0.88051 0.60081 0.54029 0.0
C490 C 0.87528 0.52593 0.51185 0.0
C491 C 0.88165 0.42673 0.51683 0.0
C492 C 0.88317 0.46495 0.51605 0.0
C493 C 0.88744 0.57575 0.50486 0.0
C494 C 0.88597 0.53759 0.50994 0.0
H495 H 0.89232 0.34973 0.58667 0.0
H496 H 0.89495 0.41224 0.58632 0.0
H497 H 0.86553 0.48224 0.51621 0.0
H498 H 0.90358 0.63133 0.42686 0.0
H499 H 0.90112 0.56913 0.43516 0.0
C500 C 0.88835 0.86621 0.48359 0.0
C501 C 0.87808 0.85488 0.50198 0.0
C502 C 0.89002 0.90189 0.48578 0.0
C503 C 0.87704 0.98804 0.55316 0.0
H504 H 0.89827 0.02621 0.43649 0.0
C505 C 0.88073 0.1369 0.50326 0.0
C506 C 0.89082 0.1477 0.52642 0.0
C507 C 0.87916 0.10122 0.49957 0.0
C508 C 0.89231 0.01579 0.46929 0.0
H509 H 0.86139 0.87198 0.53496 0.0
H510 H 0.86397 0.93386 0.53482 0.0
H511 H 0.89541 0.96422 0.42951 0.0
H512 H 0.90725 0.12966 0.56271 0.0
H513 H 0.90464 0.06725 0.5537 0.0
H514 H 0.87367 0.04036 0.59045 0.0
C515 C 0.871 0.91555 0.52167 0.0
C516 C 0.89072 0.98012 0.4659 0.0
C517 C 0.86944 0.87991 0.52111 0.0
C518 C 0.89937 0.12212 0.54485 0.0
C519 C 0.89791 0.08647 0.53952 0.0
C520 C 0.87845 0.02381 0.5553 0.0
C521 C 0.88136 0.92725 0.50493 0.0
C522 C 0.88308 0.96553 0.50799 0.0
C523 C 0.88777 0.07572 0.51728 0.0
C524 C 0.88613 0.03796 0.51366 0.0
H525 H 0.89518 0.84742 0.46907 0.0
H526 H 0.89819 0.90935 0.4736 0.0
H527 H 0.8713 0.97812 0.58783 0.0
H528 H 0.87399 0.15604 0.48883 0.0
H529 H 0.87127 0.0935 0.48231 0.0
C530 C 0.13753 0.6325 0.46559 0.0
C531 C 0.14591 0.64541 0.50411 0.0
C532 C 0.13592 0.59677 0.46663 0.0
C533 C 0.13041 0.52346 0.50829 0.0
H534 H 0.15629 0.45542 0.51351 0.0
C535 C 0.12718 0.3768 0.56521 0.0
C536 C 0.13399 0.35196 0.52895 0.0
C537 C 0.12853 0.41253 0.56006 0.0
C538 C 0.14896 0.474 0.51155 0.0
H539 H 0.15906 0.63106 0.57445 0.0
H540 H 0.15625 0.5691 0.57646 0.0
H541 H 0.15875 0.51758 0.50679 0.0
H542 H 0.14762 0.34509 0.45917 0.0
H543 H 0.14998 0.40743 0.44998 0.0
H544 H 0.12062 0.47979 0.51252 0.0
C545 C 0.15101 0.58631 0.54471 0.0
C546 C 0.15037 0.50974 0.50842 0.0
C547 C 0.15258 0.62193 0.54387 0.0
C548 C 0.14224 0.3636 0.48776 0.0
C549 C 0.14363 0.39934 0.48277 0.0
C550 C 0.12899 0.48769 0.51173 0.0
C551 C 0.14269 0.57316 0.50598 0.0
C552 C 0.14112 0.535 0.50711 0.0
C553 C 0.13677 0.42433 0.51873 0.0
C554 C 0.13825 0.46246 0.51369 0.0
H555 H 0.13225 0.64998 0.43456 0.0
H556 H 0.12949 0.58755 0.43583 0.0
H557 H 0.12309 0.54212 0.50785 0.0
H558 H 0.12077 0.36864 0.59757 0.0
H559 H 0.12321 0.43089 0.58923 0.0
C560 C 0.65314 0.62305 0.98817 0.0
C561 C 0.64641 0.64586 0.02902 0.0
C562 C 0.65158 0.58747 0.98502 0.0
C563 C 0.63102 0.52379 0.01619 0.0
H564 H 0.65701 0.4563 1.00678 0.0
C565 C 0.64323 0.36371 0.02472 0.0
C566 C 0.635 0.35265 0.9827 0.0
C567 C 0.64451 0.39938 0.03241 0.0
C568 C 0.64965 0.4747 1.00988 0.0
H569 H 0.63267 0.64927 0.09814 0.0
H570 H 0.62994 0.58681 0.09284 0.0
H571 H 0.65935 0.51829 0.01856 0.0
H572 H 0.62173 0.37034 0.91537 0.0
H573 H 0.62399 0.43254 0.92831 0.0
H574 H 0.62132 0.48004 1.00807 0.0
C575 C 0.63641 0.59657 0.06298 0.0
C576 C 0.65099 0.51037 0.01593 0.0
C577 C 0.638 0.6323 0.06634 0.0
C578 C 0.62812 0.37804 0.94827 0.0
C579 C 0.62937 0.41372 0.9561 0.0
C580 C 0.62967 0.48805 1.00986 0.0
C581 C 0.64323 0.57363 0.02248 0.0
C582 C 0.64171 0.53547 0.01875 0.0
C583 C 0.63758 0.42493 0.99835 0.0
C584 C 0.63897 0.46301 1.00632 0.0
H585 H 0.65964 0.63268 0.95841 0.0
H586 H 0.65687 0.57084 0.95241 0.0
H587 H 0.62368 0.54232 0.01773 0.0
H588 H 0.64865 0.34479 0.052 0.0
H589 H 0.65083 0.40696 0.06587 0.0
C590 C 0.3824 0.86932 0.08148 0.0
C591 C 0.37823 0.8515 0.02791 0.0
C592 C 0.38349 0.90531 0.07737 0.0
C593 C 0.37432 0.98413 0.97355 0.0
H594 H 0.39691 0.02641 0.07335 0.0
C595 C 0.38929 0.12304 0.93163 0.0
C596 C 0.38683 0.14573 0.98514 0.0
C597 C 0.38799 0.08731 0.93732 0.0
C598 C 0.39055 0.01483 0.04539 0.0
H599 H 0.37242 0.85673 0.92718 0.0
H600 H 0.37494 0.91851 0.91823 0.0
H601 H 0.39564 0.96345 0.08125 0.0
H602 H 0.38114 0.14892 0.08658 0.0
H603 H 0.37925 0.08608 0.09708 0.0
H604 H 0.36968 0.03566 0.93555 0.0
C605 C 0.37686 0.90562 0.96482 0.0
C606 C 0.38974 0.97876 0.0502 0.0
C607 C 0.37552 0.86997 0.96958 0.0
C608 C 0.38305 0.13204 0.04445 0.0
C609 C 0.38201 0.09617 0.05063 0.0
C610 C 0.37533 0.01999 0.96764 0.0
C611 C 0.38068 0.92412 0.01897 0.0
C612 C 0.38159 0.96276 0.01435 0.0
C613 C 0.38447 0.07356 0.99711 0.0
C614 C 0.38342 0.03562 1.00363 0.0
H615 H 0.3845 0.85567 0.12718 0.0
H616 H 0.3863 0.9184 0.12063 0.0
H617 H 0.36773 0.97336 0.94642 0.0
H618 H 0.39221 0.13293 0.88537 0.0
H619 H 0.38992 0.07028 0.89544 0.0
C620 C 0.37309 0.37608 0.05279 0.0
C621 C 0.37941 0.35297 1.0105 0.0
C622 C 0.37479 0.41152 0.05481 0.0
C623 C 0.3751 0.488 0.01961 0.0
H624 H 0.40476 0.51868 0.02313 0.0
C625 C 0.38264 0.63437 1.00511 0.0
C626 C 0.39079 0.64594 0.04703 0.0
C627 C 0.38147 0.59863 0.99823 0.0
C628 C 0.39642 0.51053 0.02249 0.0
H629 H 0.39265 0.3488 0.93797 0.0
H630 H 0.39566 0.41114 0.94146 0.0
H631 H 0.40243 0.45622 0.01561 0.0
H632 H 0.40408 0.62914 0.11487 0.0
H633 H 0.40202 0.56671 0.10324 0.0
H634 H 0.36907 0.54207 0.02767 0.0
C635 C 0.38938 0.40166 0.97317 0.0
C636 C 0.39509 0.47474 0.01744 0.0
C637 C 0.38764 0.36603 0.97093 0.0
C638 C 0.39774 0.62101 0.08208 0.0
C639 C 0.39661 0.58522 0.07502 0.0
C640 C 0.37643 0.52371 0.02431 0.0
C641 C 0.38289 0.42491 0.01474 0.0
C642 C 0.38441 0.46301 0.01662 0.0
C643 C 0.38845 0.57355 0.03302 0.0
C644 C 0.3871 0.53547 0.0263 0.0
H645 H 0.36675 0.36683 0.08433 0.0
H646 H 0.36978 0.42846 0.08831 0.0
H647 H 0.36675 0.47996 0.0183 0.0
H648 H 0.37716 0.65297 0.97737 0.0
H649 H 0.37518 0.59062 0.96496 0.0
C650 C 0.63823 0.13215 0.95847 0.0
C651 C 0.64665 0.14565 0.99578 0.0
C652 C 0.63658 0.09647 0.96193 0.0
C653 C 0.63105 0.02388 1.0089 0.0
H654 H 0.65692 0.95597 0.01798 0.0
C655 C 0.62787 0.87819 0.07617 0.0
C656 C 0.6347 0.85274 0.04143 0.0
C657 C 0.6292 0.91385 0.06857 0.0
C658 C 0.64959 0.97449 0.01498 0.0
H659 H 0.65983 0.13238 0.06646 0.0
H660 H 0.65696 0.07059 0.0726 0.0
H661 H 0.65938 0.0179 1.00643 0.0
H662 H 0.64833 0.84472 0.97183 0.0
H663 H 0.65064 0.90684 0.95841 0.0
H664 H 0.62126 0.98033 0.01693 0.0
C665 C 0.65171 0.08725 0.03995 0.0
C666 C 0.65101 0.01013 1.00906 0.0
C667 C 0.65332 0.1228 0.03671 0.0
C668 C 0.64294 0.8637 0.99934 0.0
C669 C 0.64429 0.89934 0.99191 0.0
C670 C 0.62963 0.98819 0.01514 0.0
C671 C 0.64335 0.07349 1.00251 0.0
C672 C 0.64176 0.03538 1.00632 0.0
C673 C 0.63742 0.92495 0.02628 0.0
C674 C 0.63889 0.96299 0.01853 0.0
H675 H 0.63294 0.14914 0.9266 0.0
H676 H 0.6301 0.08677 0.93208 0.0
H677 H 0.62374 0.04254 1.00741 0.0
H678 H 0.62147 0.87058 0.10913 0.0
H679 H 0.62386 0.93271 0.09658 0.0
C680 C 0.13136 0.23504 0.2757 0.0
C681 C 0.13959 0.25089 0.31063 0.0
C682 C 0.13143 0.23436 0.20665 0.0
C683 C 0.14264 0.27758 0.06067 0.0
H684 H 0.13603 0.19326 0.96956 0.0
C685 C 0.14916 0.25994 0.7794 0.0
C686 C 0.14093 0.2442 0.7442 0.0
C687 C 0.14907 0.26043 0.84845 0.0
C688 C 0.13778 0.21716 0.99416 0.0
H689 H 0.15434 0.27858 0.29997 0.0
H690 H 0.1545 0.27711 0.18003 0.0
H691 H 0.13552 0.19518 0.0897 0.0
H692 H 0.12619 0.21645 0.75435 0.0
H693 H 0.12599 0.21758 0.87437 0.0
H694 H 0.1449 0.29957 0.96516 0.0
C695 C 0.14791 0.26557 0.20587 0.0
C696 C 0.13748 0.21827 0.06313 0.0
C697 C 0.14784 0.26623 0.27481 0.0
C698 C 0.13268 0.22871 0.77975 0.0
C699 C 0.1326 0.22918 0.84872 0.0
C700 C 0.14294 0.27647 0.99172 0.0
C701 C 0.13972 0.24954 0.17083 0.0
C702 C 0.13991 0.24849 0.09731 0.0
C703 C 0.14076 0.24518 0.88401 0.0
C704 C 0.14053 0.24624 0.95753 0.0
H705 H 0.12486 0.22303 0.30164 0.0
H706 H 0.12491 0.22218 0.1813 0.0
H707 H 0.14439 0.30148 0.08526 0.0
H708 H 0.15566 0.27206 0.75369 0.0
H709 H 0.15558 0.27256 0.87399 0.0
C710 C 0.87668 0.23399 0.27381 0.0
C711 C 0.88497 0.24911 0.30954 0.0
C712 C 0.87664 0.23458 0.20485 0.0
C713 C 0.88732 0.28124 0.0619 0.0
H714 H 0.87976 0.19999 0.96427 0.0
C715 C 0.89236 0.27002 0.77862 0.0
C716 C 0.88405 0.25483 0.7431 0.0
C717 C 0.89241 0.26962 0.8476 0.0
C718 C 0.88176 0.22307 0.99074 0.0
H719 H 0.89979 0.27655 0.30038 0.0
H720 H 0.89978 0.27725 0.18011 0.0
H721 H 0.88012 0.19838 0.0844 0.0
H722 H 0.8692 0.22756 0.75263 0.0
H723 H 0.86923 0.22718 0.87288 0.0
H724 H 0.88897 0.30592 0.9682 0.0
C725 C 0.89321 0.26532 0.20549 0.0
C726 C 0.88197 0.22214 0.0597 0.0
C727 C 0.89326 0.26472 0.27453 0.0
C728 C 0.87575 0.23943 0.77832 0.0
C729 C 0.8758 0.23901 0.84735 0.0
C730 C 0.88711 0.28217 0.99292 0.0
C731 C 0.88489 0.25031 0.16974 0.0
C732 C 0.88475 0.25122 0.09622 0.0
C733 C 0.88415 0.254 0.8829 0.0
C734 C 0.88432 0.2531 0.95642 0.0
H735 H 0.87014 0.22185 0.29906 0.0
H736 H 0.87001 0.22319 0.17905 0.0
H737 H 0.88932 0.30432 0.08837 0.0
H738 H 0.89891 0.28202 0.7532 0.0
H739 H 0.89905 0.28102 0.87327 0.0
C740 C 0.13264 0.72913 0.24101 0.0
C741 C 0.14097 0.74418 0.27653 0.0
C742 C 0.13255 0.7297 0.17203 0.0
C743 C 0.14313 0.7766 0.02912 0.0
H744 H 0.1353 0.69589 0.93081 0.0
C745 C 0.14796 0.76638 0.74578 0.0
C746 C 0.13963 0.75141 0.71005 0.0
C747 C 0.14802 0.76572 0.81474 0.0
C748 C 0.13737 0.71882 0.95748 0.0
H749 H 0.15585 0.77132 0.26697 0.0
H750 H 0.15576 0.77198 0.14669 0.0
H751 H 0.13581 0.69383 0.05093 0.0
H752 H 0.12476 0.72422 0.71924 0.0
H753 H 0.12481 0.72339 0.83955 0.0
H754 H 0.1447 0.80159 0.93568 0.0
C755 C 0.14919 0.76014 0.17225 0.0
C756 C 0.13767 0.71763 0.02644 0.0
C757 C 0.14928 0.75955 0.24129 0.0
C758 C 0.13132 0.73594 0.74509 0.0
C759 C 0.13138 0.73526 0.81414 0.0
C760 C 0.14283 0.77779 0.96016 0.0
C761 C 0.14079 0.74534 0.13671 0.0
C762 C 0.14056 0.7465 0.06319 0.0
C763 C 0.13976 0.75005 0.84988 0.0
C764 C 0.13995 0.74891 0.92341 0.0
H765 H 0.12608 0.71717 0.26643 0.0
H766 H 0.12588 0.71845 0.14641 0.0
H767 H 0.1452 0.79953 0.05577 0.0
H768 H 0.15452 0.77842 0.72054 0.0
H769 H 0.15468 0.77695 0.84051 0.0
C770 C 0.87613 0.73512 0.74746 0.0
C771 C 0.88444 0.75015 0.7116 0.0
C772 C 0.87607 0.73583 0.81642 0.0
C773 C 0.89413 0.7468 0.96109 0.0
H774 H 0.86606 0.76564 0.05352 0.0
C775 C 0.89194 0.77074 0.24257 0.0
C776 C 0.88364 0.75548 0.27805 0.0
C777 C 0.892 0.77043 0.17358 0.0
C778 C 0.87396 0.75996 0.02854 0.0
H779 H 0.89924 0.77766 0.72053 0.0
H780 H 0.8991 0.77911 0.84077 0.0
H781 H 0.86631 0.76429 0.93334 0.0
H782 H 0.86884 0.72801 0.26846 0.0
H783 H 0.86898 0.72724 0.14824 0.0
H784 H 0.90178 0.74244 0.05631 0.0
C785 C 0.89268 0.76641 0.81552 0.0
C786 C 0.87411 0.75918 0.95956 0.0
C787 C 0.89273 0.76574 0.74648 0.0
C788 C 0.87534 0.7401 0.2428 0.0
C789 C 0.87539 0.73982 0.17377 0.0
C790 C 0.89398 0.74758 0.03008 0.0
C791 C 0.88433 0.75156 0.85139 0.0
C792 C 0.88419 0.75255 0.92491 0.0
C793 C 0.88375 0.75486 0.13826 0.0
C794 C 0.8839 0.75415 0.06473 0.0
H795 H 0.86962 0.72279 0.72232 0.0
H796 H 0.86961 0.72368 0.84237 0.0
H797 H 0.90203 0.74109 0.93612 0.0
H798 H 0.89845 0.7829 0.26802 0.0
H799 H 0.89847 0.7827 0.14791 0.0
C800 C 0.64966 0.75936 0.29507 0.0
C801 C 0.64137 0.74399 0.25973 0.0
C802 C 0.64958 0.75971 0.36412 0.0
C803 C 0.63085 0.75226 0.50736 0.0
H804 H 0.65843 0.73608 0.60516 0.0
C805 C 0.63188 0.73515 0.79135 0.0
C806 C 0.64014 0.75089 0.82619 0.0
C807 C 0.63197 0.73425 0.72231 0.0
C808 C 0.65066 0.74104 0.57863 0.0
H809 H 0.62656 0.71653 0.26964 0.0
H810 H 0.6265 0.71683 0.38972 0.0
H811 H 0.6588 0.73432 0.48501 0.0
H812 H 0.65494 0.77836 0.81537 0.0
H813 H 0.65502 0.77708 0.69537 0.0
H814 H 0.62271 0.75901 0.601 0.0
C815 C 0.63298 0.72907 0.36412 0.0
C816 C 0.65088 0.74003 0.50966 0.0
C817 C 0.63306 0.7287 0.29514 0.0
C818 C 0.64845 0.7659 0.79029 0.0
C819 C 0.64855 0.76497 0.72134 0.0
C820 C 0.63064 0.75327 0.57634 0.0
C821 C 0.6412 0.74472 0.39955 0.0
C822 C 0.64098 0.74565 0.47309 0.0
C823 C 0.64033 0.74903 0.68641 0.0
C824 C 0.64054 0.74773 0.6129 0.0
H825 H 0.65617 0.77147 0.26946 0.0
H826 H 0.65597 0.77233 0.38971 0.0
H827 H 0.62308 0.75726 0.48084 0.0
H828 H 0.62537 0.72324 0.81736 0.0
H829 H 0.62558 0.72142 0.69709 0.0
C830 C 0.39306 0.7627 0.79443 0.0
C831 C 0.38499 0.74606 0.8294 0.0
C832 C 0.39293 0.76367 0.72537 0.0
C833 C 0.38187 0.72031 0.57893 0.0
H834 H 0.38788 0.80558 0.48907 0.0
C835 C 0.37505 0.73866 0.2981 0.0
C836 C 0.38317 0.75492 0.26284 0.0
C837 C 0.37516 0.73805 0.36716 0.0
C838 C 0.3863 0.78143 0.51331 0.0
H839 H 0.37048 0.71724 0.81877 0.0
H840 H 0.37022 0.7192 0.69887 0.0
H841 H 0.38853 0.80309 0.60916 0.0
H842 H 0.39772 0.7836 0.27295 0.0
H843 H 0.39794 0.78229 0.39296 0.0
H844 H 0.37963 0.69865 0.48311 0.0
C845 C 0.37674 0.73114 0.72465 0.0
C846 C 0.38669 0.77999 0.58226 0.0
C847 C 0.37686 0.73019 0.79359 0.0
C848 C 0.39131 0.77092 0.29837 0.0
C849 C 0.39141 0.77033 0.36736 0.0
C850 C 0.38148 0.72176 0.51 0.0
C851 C 0.38474 0.74799 0.68956 0.0
C852 C 0.38447 0.74941 0.61602 0.0
C853 C 0.38338 0.75371 0.40271 0.0
C854 C 0.38368 0.75234 0.47624 0.0
H855 H 0.39945 0.77516 0.82035 0.0
H856 H 0.39932 0.77648 0.70001 0.0
H857 H 0.38029 0.69614 0.60313 0.0
H858 H 0.36864 0.72615 0.27241 0.0
H859 H 0.36875 0.72545 0.39272 0.0
C860 C 0.64884 0.2654 0.23349 0.0
C861 C 0.64059 0.25017 0.19757 0.0
C862 C 0.64894 0.26437 0.30243 0.0
C863 C 0.63109 0.25197 0.44763 0.0
H864 H 0.65929 0.23385 0.53852 0.0
C865 C 0.63358 0.22771 0.72893 0.0
C866 C 0.64186 0.24318 0.7642 0.0
C867 C 0.63349 0.22801 0.65993 0.0
C868 C 0.65135 0.23933 0.51401 0.0
H869 H 0.62591 0.22202 0.2064 0.0
H870 H 0.62613 0.22004 0.32668 0.0
H871 H 0.65891 0.23563 0.41839 0.0
H872 H 0.6566 0.27091 0.75417 0.0
H873 H 0.6564 0.27166 0.63392 0.0
H874 H 0.62354 0.25574 0.54325 0.0
C875 C 0.63247 0.23311 0.30146 0.0
C876 C 0.65113 0.24035 0.44503 0.0
C877 C 0.63238 0.2341 0.23241 0.0
C878 C 0.65012 0.25865 0.72869 0.0
C879 C 0.65003 0.25893 0.65963 0.0
C880 C 0.63131 0.25096 0.51662 0.0
C881 C 0.64079 0.24811 0.33737 0.0
C882 C 0.641 0.24674 0.4109 0.0
C883 C 0.64168 0.24377 0.62432 0.0
C884 C 0.64145 0.24465 0.55076 0.0
H885 H 0.65528 0.2781 0.20841 0.0
H886 H 0.65537 0.27665 0.3284 0.0
H887 H 0.62315 0.25748 0.42309 0.0
H888 H 0.6271 0.21546 0.75456 0.0
H889 H 0.62703 0.21562 0.63447 0.0
C890 C 0.3745 0.23606 0.24496 0.0
C891 C 0.38334 0.24805 0.20892 0.0
C892 C 0.37449 0.23697 0.3139 0.0
C893 C 0.39306 0.24101 0.45773 0.0
H894 H 0.36578 0.27147 0.55087 0.0
C895 C 0.39228 0.26481 0.73905 0.0
C896 C 0.38325 0.25391 0.77487 0.0
C897 C 0.39223 0.26461 0.67009 0.0
C898 C 0.37344 0.2625 0.52572 0.0
H899 H 0.39914 0.27028 0.21736 0.0
H900 H 0.3991 0.27191 0.3376 0.0
H901 H 0.36586 0.26978 0.43067 0.0
H902 H 0.36704 0.23435 0.76591 0.0
H903 H 0.36702 0.23357 0.64577 0.0
H904 H 0.40064 0.23348 0.55264 0.0
C905 C 0.39221 0.26155 0.31249 0.0
C906 C 0.37349 0.26156 0.45676 0.0
C907 C 0.3922 0.26078 0.2435 0.0
C908 C 0.37412 0.24305 0.73999 0.0
C909 C 0.37408 0.24277 0.67099 0.0
C910 C 0.39301 0.24184 0.52669 0.0
C911 C 0.38334 0.24975 0.34853 0.0
C912 C 0.3833 0.25081 0.42192 0.0
C913 C 0.38315 0.25342 0.63512 0.0
C914 C 0.3832 0.25262 0.56161 0.0
H915 H 0.36755 0.22603 0.21999 0.0
H916 H 0.3676 0.22726 0.34013 0.0
H917 H 0.40072 0.2321 0.43247 0.0
H918 H 0.39943 0.27351 0.7642 0.0
H919 H 0.39927 0.27352 0.64417 0.0
C920 C 0.05463 0.21933 0.42698 0.0
C921 C 0.06032 0.24383 0.46189 0.0
C922 C 0.04298 0.2227 0.42367 0.0
C923 C 0.01822 0.26478 0.51153 0.0
H924 H 1.00235 0.23857 0.35579 0.0
C925 C 0.97052 0.29105 0.4899 0.0
C926 C 0.96467 0.26419 0.46389 0.0
C927 C 0.98213 0.28896 0.48678 0.0
C928 C 1.00667 0.2457 0.39986 0.0
H929 H 0.05808 0.2916 0.51956 0.0
H930 H 0.03789 0.29809 0.51189 0.0
H931 H 0.02266 0.23511 0.35438 0.0
H932 H 0.96653 0.21431 0.41303 0.0
H933 H 0.98686 0.21058 0.40788 0.0
H934 H 1.00224 0.27551 0.55689 0.0
C935 C 0.04241 0.27581 0.48812 0.0
C936 C 0.01832 0.2437 0.39912 0.0
C937 C 0.05404 0.27237 0.49165 0.0
C938 C 0.97077 0.23535 0.43391 0.0
C939 C 0.98241 0.23336 0.43044 0.0
C940 C 1.00659 0.26694 0.51214 0.0
C941 C 0.0367 0.25073 0.45499 0.0
C942 C 0.02426 0.25325 0.45497 0.0
C943 C 0.98825 0.26001 0.45742 0.0
C944 C 1.00065 0.25747 0.45634 0.0
H945 H 0.05916 0.19726 0.40263 0.0
H946 H 0.03892 0.20272 0.39806 0.0
H947 H 0.02247 0.27161 0.556 0.0
H948 H 0.96614 0.31343 0.51412 0.0
H949 H 0.98634 0.31014 0.50741 0.0
C950 C 0.97024 0.79091 0.52881 0.0
C951 C 0.96439 0.76417 0.5553 0.0
C952 C 0.98185 0.78886 0.53178 0.0
C953 C 1.00639 0.74604 0.6191 0.0
H954 H 0.02224 0.77149 0.46265 0.0
C955 C 0.0544 0.7201 0.59274 0.0
C956 C 0.0601 0.74445 0.5574 0.0
C957 C 0.04276 0.72332 0.59583 0.0
C958 C 0.01797 0.76479 0.50721 0.0
H959 H 0.96626 0.71451 0.60683 0.0
H960 H 0.98659 0.71085 0.61175 0.0
H961 H 1.00201 0.77529 0.4618 0.0
H962 H 0.05784 0.7918 0.49864 0.0
H963 H 0.03764 0.79808 0.50595 0.0
H964 H 0.02237 0.73571 0.66466 0.0
C965 C 0.98214 0.73352 0.58891 0.0
C966 C 1.00634 0.76689 0.50662 0.0
C967 C 0.97049 0.73547 0.58557 0.0
C968 C 0.0538 0.77269 0.52691 0.0
C969 C 0.04217 0.776 0.53024 0.0
C970 C 0.01805 0.74411 0.61983 0.0
C971 C 0.98797 0.76007 0.56149 0.0
C972 C 1.00039 0.75758 0.56253 0.0
C973 C 0.03646 0.75108 0.56387 0.0
C974 C 0.02401 0.75349 0.56387 0.0
H975 H 0.96585 0.81319 0.50436 0.0
H976 H 0.98605 0.80996 0.51079 0.0
H977 H 1.00207 0.73904 0.66326 0.0
H978 H 0.05894 0.69826 0.61766 0.0
H979 H 0.0387 0.70346 0.62185 0.0
C980 C 0.5539 0.77189 0.02074 0.0
C981 C 0.56021 0.74468 0.98721 0.0
C982 C 0.54226 0.77481 0.01865 0.0
C983 C 0.5181 0.7443 0.92758 0.0
H984 H 0.50221 0.77168 0.08845 0.0
C985 C 0.4706 0.73445 0.96164 0.0
C986 C 0.46449 0.76262 0.99358 0.0
C987 C 0.48225 0.73249 0.95856 0.0
C988 C 0.5065 0.76432 0.04289 0.0
H989 H 0.55907 0.69993 0.92308 0.0
H990 H 0.53882 0.70439 0.92105 0.0
H991 H 0.52243 0.76829 0.08665 0.0
H992 H 0.46594 0.8106 0.04807 0.0
H993 H 0.48616 0.80733 0.04222 0.0
H994 H 0.50209 0.73988 0.8843 0.0
C995 C 0.54287 0.72378 0.94847 0.0
C996 C 0.51813 0.76248 0.04174 0.0
C997 C 0.55452 0.72095 0.95031 0.0
C998 C 0.47034 0.78875 0.0223 0.0
C999 C 0.48196 0.78668 0.01963 0.0
C1000 C 0.50645 0.74596 0.92886 0.0
C1001 C 0.53656 0.75051 0.98325 0.0
C1002 C 0.52411 0.75257 0.98402 0.0
C1003 C 0.48808 0.75848 0.98794 0.0
C1004 C 0.5005 0.75614 0.98648 0.0
H1005 H 0.55793 0.79047 0.05029 0.0
H1006 H 0.53772 0.79612 0.04517 0.0
H1007 H 0.52237 0.73703 0.88194 0.0
H1008 H 0.46637 0.71397 0.93871 0.0
H1009 H 0.48671 0.71028 0.93418 0.0
C1010 C 0.4705 0.29009 0.98277 0.0
C1011 C 0.46508 0.26768 0.02416 0.0
C1012 C 0.48207 0.29068 0.98528 0.0
C1013 C 0.50676 0.26616 0.09074 0.0
H1014 H 0.52304 0.26823 0.92616 0.0
C1015 C 0.5546 0.23505 0.07583 0.0
C1016 C 0.56056 0.25385 0.03058 0.0
C1017 C 0.54295 0.23916 0.07721 0.0
C1018 C 0.51863 0.26816 0.97269 0.0
H1019 H 0.46764 0.22909 0.10209 0.0
H1020 H 0.48778 0.22971 0.10572 0.0
H1021 H 0.5028 0.27117 0.92452 0.0
H1022 H 0.55882 0.29216 0.95176 0.0
H1023 H 0.53857 0.29998 0.95533 0.0
H1024 H 0.5226 0.26292 0.1389 0.0
C1025 C 0.48309 0.24702 0.07154 0.0
C1026 C 0.507 0.26984 0.97172 0.0
C1027 C 0.47153 0.24637 0.06892 0.0
C1028 C 0.55455 0.27749 0.98778 0.0
C1029 C 0.5429 0.28163 0.98919 0.0
C1030 C 0.5184 0.26454 0.09172 0.0
C1031 C 0.48853 0.26899 0.02944 0.0
C1032 C 0.50091 0.26862 0.0307 0.0
C1033 C 0.53693 0.26223 0.03342 0.0
C1034 C 0.5245 0.26529 0.03268 0.0
H1035 H 0.46582 0.30665 0.94734 0.0
H1036 H 0.48597 0.3082 0.95262 0.0
H1037 H 0.50234 0.26571 0.13718 0.0
H1038 H 0.55893 0.21689 0.11005 0.0
H1039 H 0.53866 0.22354 0.11158 0.0
loop_
_geom_bond_atom_site_label_1
_geom_bond_atom_site_label_2
_geom_bond_distance
_geom_bond_site_symmetry_2
_ccdc_geom_bond_type
Pr0 C2 2.880 . S
Pr0 O20 2.562 . S
Pr0 O21 2.490 . S
Pr0 O22 2.695 . S
Pr0 O23 2.512 . S
Pr0 O25 2.437 . S
Pr0 O28 2.436 . S
Pr0 O30 2.438 . S
Pr1 C11 2.880 . S
Pr1 O22 2.436 . S
Pr1 O24 2.438 . S
Pr1 O26 2.562 . S
Pr1 O27 2.490 . S
Pr1 O28 2.695 . S
Pr1 O29 2.512 . S
Pr1 O31 2.437 . S
C2 Pr0 2.880 . S
C2 C3 1.491 . S
C2 O20 1.254 . S
C2 O21 1.225 . S
C3 C2 1.491 . S
C3 C4 1.392 . S
C3 C8 1.356 . S
C4 C3 1.392 . S
C4 C5 1.368 . S
C4 H32 0.929 . S
C5 C4 1.368 . S
C5 C6 1.386 . S
C5 H33 0.929 . S
C6 C5 1.386 . S
C6 C7 1.373 . S
C7 C6 1.373 . S
C7 C8 1.409 . S
C7 H34 0.931 . S
C8 C3 1.356 . S
C8 C7 1.409 . S
C8 H35 0.930 . S
C9 O22 1.270 . S
C9 O23 1.248 . S
C10 O24 1.267 . S
C10 O25 1.278 . S
C11 Pr1 2.880 . S
C11 C12 1.491 . S
C11 O26 1.254 . S
C11 O27 1.225 . S
C12 C11 1.491 . S
C12 C13 1.392 . S
C12 C17 1.356 . S
C13 C12 1.392 . S
C13 C14 1.368 . S
C13 H36 0.929 . S
C14 C13 1.368 . S
C14 C15 1.386 . S
C14 H37 0.929 . S
C15 C14 1.386 . S
C15 C16 1.373 . S
C16 C15 1.373 . S
C16 C17 1.409 . S
C16 H38 0.931 . S
C17 C12 1.356 . S
C17 C16 1.409 . S
C17 H39 0.930 . S
C18 O28 1.270 . S
C18 O29 1.248 . S
C19 O30 1.267 . S
C19 O31 1.278 . S
O20 Pr0 2.562 . S
O20 C2 1.254 . S
O21 Pr0 2.490 . S
O21 C2 1.225 . S
O22 Pr0 2.695 . S
O22 Pr1 2.436 . S
O22 C9 1.270 . S
O23 Pr0 2.512 . S
O23 C9 1.248 . S
O24 Pr1 2.438 . S
O24 C10 1.267 . S
O25 Pr0 2.437 . S
O25 C10 1.278 . S
O26 Pr1 2.562 . S
O26 C11 1.254 . S
O27 Pr1 2.490 . S
O27 C11 1.225 . S
O28 Pr0 2.436 . S
O28 Pr1 2.695 . S
O28 C18 1.270 . S
O29 Pr1 2.512 . S
O29 C18 1.248 . S
O30 Pr0 2.438 . S
O30 C19 1.267 . S
O31 Pr1 2.437 . S
O31 C19 1.278 . S
H32 C4 0.929 . S
H33 C5 0.929 . S
H34 C7 0.931 . S
H35 C8 0.930 . S
H36 C13 0.929 . S
H37 C14 0.929 . S
H38 C16 0.931 . S
H39 C17 0.930 . S
Pr40 C42 2.880 . S
Pr40 O60 2.562 . S
Pr40 O61 2.490 . S
Pr40 O62 2.695 . S
Pr40 O63 2.512 . S
Pr40 O65 2.437 . S
Pr40 O68 2.436 . S
Pr40 O70 2.438 . S
Pr41 C51 2.880 . S
Pr41 O62 2.436 . S
Pr41 O64 2.438 . S
Pr41 O66 2.562 . S
Pr41 O67 2.490 . S
Pr41 O68 2.695 . S
Pr41 O69 2.512 . S
Pr41 O71 2.437 . S
C42 Pr40 2.880 . S
C42 C43 1.491 . S
C42 O60 1.254 . S
C42 O61 1.225 . S
C43 C42 1.491 . S
C43 C44 1.392 . S
C43 C48 1.356 . S
C44 C43 1.392 . S
C44 C45 1.368 . S
C44 H72 0.929 . S
C45 C44 1.368 . S
C45 C46 1.386 . S
C45 H73 0.929 . S
C46 C45 1.386 . S
C46 C47 1.373 . S
C47 C46 1.373 . S
C47 C48 1.409 . S
C47 H74 0.931 . S
C48 C43 1.356 . S
C48 C47 1.409 . S
C48 H75 0.930 . S
C49 O62 1.270 . S
C49 O63 1.248 . S
C50 O64 1.267 . S
C50 O65 1.278 . S
C51 Pr41 2.880 . S
C51 C52 1.491 . S
C51 O66 1.254 . S
C51 O67 1.225 . S
C52 C51 1.491 . S
C52 C53 1.392 . S
C52 C57 1.356 . S
C53 C52 1.392 . S
C53 C54 1.368 . S
C53 H76 0.929 . S
C54 C53 1.368 . S
C54 C55 1.386 . S
C54 H77 0.929 . S
C55 C54 1.386 . S
C55 C56 1.373 . S
C56 C55 1.373 . S
C56 C57 1.409 . S
C56 H78 0.931 . S
C57 C52 1.356 . S
C57 C56 1.409 . S
C57 H79 0.930 . S
C58 O68 1.270 . S
C58 O69 1.248 . S
C59 O70 1.267 . S
C59 O71 1.278 . S
O60 Pr40 2.562 . S
O60 C42 1.254 . S
O61 Pr40 2.490 . S
O61 C42 1.225 . S
O62 Pr40 2.695 . S
O62 Pr41 2.436 . S
O62 C49 1.270 . S
O63 Pr40 2.512 . S
O63 C49 1.248 . S
O64 Pr41 2.438 . S
O64 C50 1.267 . S
O65 Pr40 2.437 . S
O65 C50 1.278 . S
O66 Pr41 2.562 . S
O66 C51 1.254 . S
O67 Pr41 2.490 . S
O67 C51 1.225 . S
O68 Pr40 2.436 . S
O68 Pr41 2.695 . S
O68 C58 1.270 . S
O69 Pr41 2.512 . S
O69 C58 1.248 . S
O70 Pr40 2.438 . S
O70 C59 1.267 . S
O71 Pr41 2.437 . S
O71 C59 1.278 . S
H72 C44 0.929 . S
H73 C45 0.929 . S
H74 C47 0.931 . S
H75 C48 0.930 . S
H76 C53 0.929 . S
H77 C54 0.929 . S
H78 C56 0.931 . S
H79 C57 0.930 . S
Pr80 C82 2.880 . S
Pr80 O100 2.562 . S
Pr80 O101 2.490 . S
Pr80 O102 2.695 . S
Pr80 O103 2.512 . S
Pr80 O105 2.437 . S
Pr80 O108 2.436 . S
Pr80 O110 2.438 . S
Pr81 C91 2.880 . S
Pr81 O102 2.436 . S
Pr81 O104 2.438 . S
Pr81 O106 2.562 . S
Pr81 O107 2.490 . S
Pr81 O108 2.695 . S
Pr81 O109 2.512 . S
Pr81 O111 2.437 . S
C82 Pr80 2.880 . S
C82 C83 1.491 . S
C82 O100 1.254 . S
C82 O101 1.225 . S
C83 C82 1.491 . S
C83 C84 1.392 . S
C83 C88 1.356 . S
C84 C83 1.392 . S
C84 C85 1.368 . S
C84 H112 0.929 . S
C85 C84 1.368 . S
C85 C86 1.386 . S
C85 H113 0.929 . S
C86 C85 1.386 . S
C86 C87 1.373 . S
C87 C86 1.373 . S
C87 C88 1.409 . S
C87 H114 0.931 . S
C88 C83 1.356 . S
C88 C87 1.409 . S
C88 H115 0.930 . S
C89 O102 1.270 . S
C89 O103 1.248 . S
C90 O104 1.267 . S
C90 O105 1.278 . S
C91 Pr81 2.880 . S
C91 C92 1.491 . S
C91 O106 1.254 . S
C91 O107 1.225 . S
C92 C91 1.491 . S
C92 C93 1.392 . S
C92 C97 1.356 . S
C93 C92 1.392 . S
C93 C94 1.368 . S
C93 H116 0.929 . S
C94 C93 1.368 . S
C94 C95 1.386 . S
C94 H117 0.929 . S
C95 C94 1.386 . S
C95 C96 1.373 . S
C96 C95 1.373 . S
C96 C97 1.409 . S
C96 H118 0.931 . S
C97 C92 1.356 . S
C97 C96 1.409 . S
C97 H119 0.930 . S
C98 O108 1.270 . S
C98 O109 1.248 . S
C99 O110 1.267 . S
C99 O111 1.278 . S
O100 Pr80 2.562 . S
O100 C82 1.254 . S
O101 Pr80 2.490 . S
O101 C82 1.225 . S
O102 Pr80 2.695 . S
O102 Pr81 2.436 . S
O102 C89 1.270 . S
O103 Pr80 2.512 . S
O103 C89 1.248 . S
O104 Pr81 2.438 . S
O104 C90 1.267 . S
O105 Pr80 2.437 . S
O105 C90 1.278 . S
O106 Pr81 2.562 . S
O106 C91 1.254 . S
O107 Pr81 2.490 . S
O107 C91 1.225 . S
O108 Pr80 2.436 . S
O108 Pr81 2.695 . S
O108 C98 1.270 . S
O109 Pr81 2.512 . S
O109 C98 1.248 . S
O110 Pr80 2.438 . S
O110 C99 1.267 . S
O111 Pr81 2.437 . S
O111 C99 1.278 . S
H112 C84 0.929 . S
H113 C85 0.929 . S
H114 C87 0.931 . S
H115 C88 0.930 . S
H116 C93 0.929 . S
H117 C94 0.929 . S
H118 C96 0.931 . S
H119 C97 0.930 . S
Pr120 C122 2.880 . S
Pr120 O140 2.562 . S
Pr120 O141 2.490 . S
Pr120 O142 2.695 . S
Pr120 O143 2.512 . S
Pr120 O145 2.437 . S
Pr120 O148 2.436 . S
Pr120 O150 2.438 . S
Pr121 C131 2.880 . S
Pr121 O142 2.436 . S
Pr121 O144 2.438 . S
Pr121 O146 2.562 . S
Pr121 O147 2.490 . S
Pr121 O148 2.695 . S
Pr121 O149 2.512 . S
Pr121 O151 2.437 . S
C122 Pr120 2.880 . S
C122 C123 1.491 . S
C122 O140 1.254 . S
C122 O141 1.225 . S
C123 C122 1.491 . S
C123 C124 1.392 . S
C123 C128 1.356 . S
C124 C123 1.392 . S
C124 C125 1.368 . S
C124 H152 0.929 . S
C125 C124 1.368 . S
C125 C126 1.386 . S
C125 H153 0.929 . S
C126 C125 1.386 . S
C126 C127 1.373 . S
C127 C126 1.373 . S
C127 C128 1.409 . S
C127 H154 0.931 . S
C128 C123 1.356 . S
C128 C127 1.409 . S
C128 H155 0.930 . S
C129 O142 1.270 . S
C129 O143 1.248 . S
C130 O144 1.267 . S
C130 O145 1.278 . S
C131 Pr121 2.880 . S
C131 C132 1.491 . S
C131 O146 1.254 . S
C131 O147 1.225 . S
C132 C131 1.491 . S
C132 C133 1.392 . S
C132 C137 1.356 . S
C133 C132 1.392 . S
C133 C134 1.368 . S
C133 H156 0.929 . S
C134 C133 1.368 . S
C134 C135 1.386 . S
C134 H157 0.929 . S
C135 C134 1.386 . S
C135 C136 1.373 . S
C136 C135 1.373 . S
C136 C137 1.409 . S
C136 H158 0.931 . S
C137 C132 1.356 . S
C137 C136 1.409 . S
C137 H159 0.930 . S
C138 O148 1.270 . S
C138 O149 1.248 . S
C139 O150 1.267 . S
C139 O151 1.278 . S
O140 Pr120 2.562 . S
O140 C122 1.254 . S
O141 Pr120 2.490 . S
O141 C122 1.225 . S
O142 Pr120 2.695 . S
O142 Pr121 2.436 . S
O142 C129 1.270 . S
O143 Pr120 2.512 . S
O143 C129 1.248 . S
O144 Pr121 2.438 . S
O144 C130 1.267 . S
O145 Pr120 2.437 . S
O145 C130 1.278 . S
O146 Pr121 2.562 . S
O146 C131 1.254 . S
O147 Pr121 2.490 . S
O147 C131 1.225 . S
O148 Pr120 2.436 . S
O148 Pr121 2.695 . S
O148 C138 1.270 . S
O149 Pr121 2.512 . S
O149 C138 1.248 . S
O150 Pr120 2.438 . S
O150 C139 1.267 . S
O151 Pr121 2.437 . S
O151 C139 1.278 . S
H152 C124 0.929 . S
H153 C125 0.929 . S
H154 C127 0.931 . S
H155 C128 0.930 . S
H156 C133 0.929 . S
H157 C134 0.929 . S
H158 C136 0.931 . S
H159 C137 0.930 . S
Pr160 C162 2.880 1_556 S
Pr160 O180 2.562 1_556 S
Pr160 O181 2.490 1_556 S
Pr160 O182 2.695 . S
Pr160 O183 2.512 . S
Pr160 O185 2.437 1_556 S
Pr160 O188 2.436 1_556 S
Pr160 O190 2.438 . S
Pr161 C171 2.880 1_554 S
Pr161 O182 2.436 1_554 S
Pr161 O184 2.438 . S
Pr161 O186 2.562 1_554 S
Pr161 O187 2.490 1_554 S
Pr161 O188 2.695 . S
Pr161 O189 2.512 . S
Pr161 O191 2.437 1_554 S
C162 Pr160 2.880 1_554 S
C162 C163 1.491 . S
C162 O180 1.254 . S
C162 O181 1.225 . S
C163 C162 1.491 . S
C163 C164 1.392 . S
C163 C168 1.356 . S
C164 C163 1.392 . S
C164 C165 1.368 . S
C164 H192 0.929 . S
C165 C164 1.368 . S
C165 C166 1.386 . S
C165 H193 0.929 . S
C166 C165 1.386 . S
C166 C167 1.373 . S
C167 C166 1.373 . S
C167 C168 1.409 . S
C167 H194 0.931 . S
C168 C163 1.356 . S
C168 C167 1.409 . S
C168 H195 0.930 . S
C169 O182 1.270 . S
C169 O183 1.248 . S
C170 O184 1.267 . S
C170 O185 1.278 . S
C171 Pr161 2.880 1_556 S
C171 C172 1.491 . S
C171 O186 1.254 . S
C171 O187 1.225 . S
C172 C171 1.491 . S
C172 C173 1.392 . S
C172 C177 1.356 . S
C173 C172 1.392 . S
C173 C174 1.368 . S
C173 H196 0.929 . S
C174 C173 1.368 . S
C174 C175 1.386 . S
C174 H197 0.929 . S
C175 C174 1.386 . S
C175 C176 1.373 . S
C176 C175 1.373 . S
C176 C177 1.409 . S
C176 H198 0.931 . S
C177 C172 1.356 . S
C177 C176 1.409 . S
C177 H199 0.930 . S
C178 O188 1.270 . S
C178 O189 1.248 . S
C179 O190 1.267 . S
C179 O191 1.278 . S
O180 Pr160 2.562 1_554 S
O180 C162 1.254 . S
O181 Pr160 2.490 1_554 S
O181 C162 1.225 . S
O182 Pr160 2.695 . S
O182 Pr161 2.436 1_556 S
O182 C169 1.270 . S
O183 Pr160 2.512 . S
O183 C169 1.248 . S
O184 Pr161 2.438 . S
O184 C170 1.267 . S
O185 Pr160 2.437 1_554 S
O185 C170 1.278 . S
O186 Pr161 2.562 1_556 S
O186 C171 1.254 . S
O187 Pr161 2.490 1_556 S
O187 C171 1.225 . S
O188 Pr160 2.436 1_554 S
O188 Pr161 2.695 . S
O188 C178 1.270 . S
O189 Pr161 2.512 . S
O189 C178 1.248 . S
O190 Pr160 2.438 . S
O190 C179 1.267 . S
O191 Pr161 2.437 1_556 S
O191 C179 1.278 . S
H192 C164 0.929 . S
H193 C165 0.929 . S
H194 C167 0.931 . S
H195 C168 0.930 . S
H196 C173 0.929 . S
H197 C174 0.929 . S
H198 C176 0.931 . S
H199 C177 0.930 . S
Pr200 C202 2.880 1_556 S
Pr200 O220 2.562 1_556 S
Pr200 O221 2.490 1_556 S
Pr200 O222 2.695 . S
Pr200 O223 2.512 . S
Pr200 O225 2.437 1_556 S
Pr200 O228 2.436 1_556 S
Pr200 O230 2.438 . S
Pr201 C211 2.880 1_554 S
Pr201 O222 2.436 1_554 S
Pr201 O224 2.438 . S
Pr201 O226 2.562 1_554 S
Pr201 O227 2.490 1_554 S
Pr201 O228 2.695 . S
Pr201 O229 2.512 . S
Pr201 O231 2.437 1_554 S
C202 Pr200 2.880 1_554 S
C202 C203 1.491 . S
C202 O220 1.254 . S
C202 O221 1.225 . S
C203 C202 1.491 . S
C203 C204 1.392 . S
C203 C208 1.356 . S
C204 C203 1.392 . S
C204 C205 1.368 . S
C204 H232 0.929 . S
C205 C204 1.368 . S
C205 C206 1.386 . S
C205 H233 0.929 . S
C206 C205 1.386 . S
C206 C207 1.373 . S
C207 C206 1.373 . S
C207 C208 1.409 . S
C207 H234 0.931 . S
C208 C203 1.356 . S
C208 C207 1.409 . S
C208 H235 0.930 . S
C209 O222 1.270 . S
C209 O223 1.248 . S
C210 O224 1.267 . S
C210 O225 1.278 . S
C211 Pr201 2.880 1_556 S
C211 C212 1.491 . S
C211 O226 1.254 . S
C211 O227 1.225 . S
C212 C211 1.491 . S
C212 C213 1.392 . S
C212 C217 1.356 . S
C213 C212 1.392 . S
C213 C214 1.368 . S
C213 H236 0.929 . S
C214 C213 1.368 . S
C214 C215 1.386 . S
C214 H237 0.929 . S
C215 C214 1.386 . S
C215 C216 1.373 . S
C216 C215 1.373 . S
C216 C217 1.409 . S
C216 H238 0.931 . S
C217 C212 1.356 . S
C217 C216 1.409 . S
C217 H239 0.930 . S
C218 O228 1.270 . S
C218 O229 1.248 . S
C219 O230 1.267 . S
C219 O231 1.278 . S
O220 Pr200 2.562 1_554 S
O220 C202 1.254 . S
O221 Pr200 2.490 1_554 S
O221 C202 1.225 . S
O222 Pr200 2.695 . S
O222 Pr201 2.436 1_556 S
O222 C209 1.270 . S
O223 Pr200 2.512 . S
O223 C209 1.248 . S
O224 Pr201 2.438 . S
O224 C210 1.267 . S
O225 Pr200 2.437 1_554 S
O225 C210 1.278 . S
O226 Pr201 2.562 1_556 S
O226 C211 1.254 . S
O227 Pr201 2.490 1_556 S
O227 C211 1.225 . S
O228 Pr200 2.436 1_554 S
O228 Pr201 2.695 . S
O228 C218 1.270 . S
O229 Pr201 2.512 . S
O229 C218 1.248 . S
O230 Pr200 2.438 . S
O230 C219 1.267 . S
O231 Pr201 2.437 1_556 S
O231 C219 1.278 . S
H232 C204 0.929 . S
H233 C205 0.929 . S
H234 C207 0.931 . S
H235 C208 0.930 . S
H236 C213 0.929 . S
H237 C214 0.929 . S
H238 C216 0.931 . S
H239 C217 0.930 . S
Pr240 C242 2.880 1_556 S
Pr240 O260 2.562 1_556 S
Pr240 O261 2.490 1_556 S
Pr240 O262 2.695 . S
Pr240 O263 2.512 . S
Pr240 O265 2.437 1_556 S
Pr240 O268 2.436 1_556 S
Pr240 O270 2.438 . S
Pr241 C251 2.880 1_554 S
Pr241 O262 2.436 1_554 S
Pr241 O264 2.438 . S
Pr241 O266 2.562 1_554 S
Pr241 O267 2.490 1_554 S
Pr241 O268 2.695 . S
Pr241 O269 2.512 . S
Pr241 O271 2.437 1_554 S
C242 Pr240 2.880 1_554 S
C242 C243 1.491 . S
C242 O260 1.254 . S
C242 O261 1.225 . S
C243 C242 1.491 . S
C243 C244 1.392 . S
C243 C248 1.356 . S
C244 C243 1.392 . S
C244 C245 1.368 . S
C244 H272 0.929 . S
C245 C244 1.368 . S
C245 C246 1.386 . S
C245 H273 0.929 . S
C246 C245 1.386 . S
C246 C247 1.373 . S
C247 C246 1.373 . S
C247 C248 1.409 . S
C247 H274 0.931 . S
C248 C243 1.356 . S
C248 C247 1.409 . S
C248 H275 0.930 . S
C249 O262 1.270 . S
C249 O263 1.248 . S
C250 O264 1.267 . S
C250 O265 1.278 . S
C251 Pr241 2.880 1_556 S
C251 C252 1.491 . S
C251 O266 1.254 . S
C251 O267 1.225 . S
C252 C251 1.491 . S
C252 C253 1.392 . S
C252 C257 1.356 . S
C253 C252 1.392 . S
C253 C254 1.368 . S
C253 H276 0.929 . S
C254 C253 1.368 . S
C254 C255 1.386 . S
C254 H277 0.929 . S
C255 C254 1.386 . S
C255 C256 1.373 . S
C256 C255 1.373 . S
C256 C257 1.409 . S
C256 H278 0.931 . S
C257 C252 1.356 . S
C257 C256 1.409 . S
C257 H279 0.930 . S
C258 O268 1.270 . S
C258 O269 1.248 . S
C259 O270 1.267 . S
C259 O271 1.278 . S
O260 Pr240 2.562 1_554 S
O260 C242 1.254 . S
O261 Pr240 2.490 1_554 S
O261 C242 1.225 . S
O262 Pr240 2.695 . S
O262 Pr241 2.436 1_556 S
O262 C249 1.270 . S
O263 Pr240 2.512 . S
O263 C249 1.248 . S
O264 Pr241 2.438 . S
O264 C250 1.267 . S
O265 Pr240 2.437 1_554 S
O265 C250 1.278 . S
O266 Pr241 2.562 1_556 S
O266 C251 1.254 . S
O267 Pr241 2.490 1_556 S
O267 C251 1.225 . S
O268 Pr240 2.436 1_554 S
O268 Pr241 2.695 . S
O268 C258 1.270 . S
O269 Pr241 2.512 . S
O269 C258 1.248 . S
O270 Pr240 2.438 . S
O270 C259 1.267 . S
O271 Pr241 2.437 1_556 S
O271 C259 1.278 . S
H272 C244 0.929 . S
H273 C245 0.929 . S
H274 C247 0.931 . S
H275 C248 0.930 . S
H276 C253 0.929 . S
H277 C254 0.929 . S
H278 C256 0.931 . S
H279 C257 0.930 . S
Pr280 C282 2.880 1_556 S
Pr280 O300 2.562 1_556 S
Pr280 O301 2.490 1_556 S
Pr280 O302 2.695 . S
Pr280 O303 2.512 . S
Pr280 O305 2.437 1_556 S
Pr280 O308 2.436 1_556 S
Pr280 O310 2.438 . S
Pr281 C291 2.880 1_554 S
Pr281 O302 2.436 1_554 S
Pr281 O304 2.438 . S
Pr281 O306 2.562 1_554 S
Pr281 O307 2.490 1_554 S
Pr281 O308 2.695 . S
Pr281 O309 2.512 . S
Pr281 O311 2.437 1_554 S
C282 Pr280 2.880 1_554 S
C282 C283 1.491 . S
C282 O300 1.254 . S
C282 O301 1.225 . S
C283 C282 1.491 . S
C283 C284 1.392 . S
C283 C288 1.356 . S
C284 C283 1.392 . S
C284 C285 1.368 . S
C284 H312 0.929 . S
C285 C284 1.368 . S
C285 C286 1.386 . S
C285 H313 0.929 . S
C286 C285 1.386 . S
C286 C287 1.373 . S
C287 C286 1.373 . S
C287 C288 1.409 . S
C287 H314 0.931 . S
C288 C283 1.356 . S
C288 C287 1.409 . S
C288 H315 0.930 . S
C289 O302 1.270 . S
C289 O303 1.248 . S
C290 O304 1.267 . S
C290 O305 1.278 . S
C291 Pr281 2.880 1_556 S
C291 C292 1.491 . S
C291 O306 1.254 . S
C291 O307 1.225 . S
C292 C291 1.491 . S
C292 C293 1.392 . S
C292 C297 1.356 . S
C293 C292 1.392 . S
C293 C294 1.368 . S
C293 H316 0.929 . S
C294 C293 1.368 . S
C294 C295 1.386 . S
C294 H317 0.929 . S
C295 C294 1.386 . S
C295 C296 1.373 . S
C296 C295 1.373 . S
C296 C297 1.409 . S
C296 H318 0.931 . S
C297 C292 1.356 . S
C297 C296 1.409 . S
C297 H319 0.930 . S
C298 O308 1.270 . S
C298 O309 1.248 . S
C299 O310 1.267 . S
C299 O311 1.278 . S
O300 Pr280 2.562 1_554 S
O300 C282 1.254 . S
O301 Pr280 2.490 1_554 S
O301 C282 1.225 . S
O302 Pr280 2.695 . S
O302 Pr281 2.436 1_556 S
O302 C289 1.270 . S
O303 Pr280 2.512 . S
O303 C289 1.248 . S
O304 Pr281 2.438 . S
O304 C290 1.267 . S
O305 Pr280 2.437 1_554 S
O305 C290 1.278 . S
O306 Pr281 2.562 1_556 S
O306 C291 1.254 . S
O307 Pr281 2.490 1_556 S
O307 C291 1.225 . S
O308 Pr280 2.436 1_554 S
O308 Pr281 2.695 . S
O308 C298 1.270 . S
O309 Pr281 2.512 . S
O309 C298 1.248 . S
O310 Pr280 2.438 . S
O310 C299 1.267 . S
O311 Pr281 2.437 1_556 S
O311 C299 1.278 . S
H312 C284 0.929 . S
H313 C285 0.929 . S
H314 C287 0.931 . S
H315 C288 0.930 . S
H316 C293 0.929 . S
H317 C294 0.929 . S
H318 C296 0.931 . S
H319 C297 0.930 . S
C320 C321 1.349 . S
C320 C322 1.327 . S
C320 H345 0.950 . S
C321 C320 1.349 . S
C321 C337 1.349 . S
C322 C320 1.327 . S
C322 C341 1.429 . S
C322 H346 0.950 . S
C323 C340 1.574 . S
C323 C342 1.368 . S
C323 H347 0.949 . S
H324 C328 0.949 . S
C325 C326 1.349 . S
C325 C327 1.327 . S
C325 H348 0.950 . S
C326 C325 1.349 . S
C326 C338 1.349 . S
C327 C325 1.327 . S
C327 C343 1.429 . S
C327 H349 0.950 . S
C328 H324 0.949 . S
C328 C336 1.574 . S
C328 C344 1.368 . S
H329 C337 0.950 . S
H330 C335 0.950 . S
H331 C336 0.949 . S
H332 C338 0.950 . S
H333 C339 0.950 . S
H334 C340 0.949 . S
C335 H330 0.950 . S
C335 C337 1.327 . S
C335 C341 1.429 . S
C336 C328 1.574 . S
C336 H331 0.949 . S
C336 C342 1.368 . S
C337 C321 1.349 . S
C337 H329 0.950 . S
C337 C335 1.327 . S
C338 C326 1.349 . S
C338 H332 0.950 . S
C338 C339 1.327 . S
C339 H333 0.950 . S
C339 C338 1.327 . S
C339 C343 1.429 . S
C340 C323 1.574 . S
C340 H334 0.949 . S
C340 C344 1.368 . S
C341 C322 1.429 . S
C341 C335 1.429 . S
C341 C342 1.523 . S
C342 C323 1.368 . S
C342 C336 1.368 . S
C342 C341 1.523 . S
C343 C327 1.429 . S
C343 C339 1.429 . S
C343 C344 1.523 . S
C344 C328 1.368 . S
C344 C340 1.368 . S
C344 C343 1.523 . S
H345 C320 0.950 . S
H346 C322 0.950 . S
H347 C323 0.949 . S
H348 C325 0.950 . S
H349 C327 0.950 . S
C350 C351 1.349 . S
C350 C352 1.327 . S
C350 H375 0.950 . S
C351 C350 1.349 . S
C351 C367 1.349 . S
C352 C350 1.327 . S
C352 C371 1.429 . S
C352 H376 0.950 . S
C353 C370 1.574 . S
C353 C372 1.368 . S
C353 H377 0.949 . S
H354 C358 0.949 . S
C355 C356 1.349 . S
C355 C357 1.327 . S
C355 H378 0.950 . S
C356 C355 1.349 . S
C356 C368 1.349 . S
C357 C355 1.327 . S
C357 C373 1.429 . S
C357 H379 0.950 . S
C358 H354 0.949 . S
C358 C366 1.574 . S
C358 C374 1.368 . S
H359 C367 0.950 . S
H360 C365 0.950 . S
H361 C366 0.949 . S
H362 C368 0.950 . S
H363 C369 0.950 . S
H364 C370 0.949 . S
C365 H360 0.950 . S
C365 C367 1.327 . S
C365 C371 1.429 . S
C366 C358 1.574 . S
C366 H361 0.949 . S
C366 C372 1.368 . S
C367 C351 1.349 . S
C367 H359 0.950 . S
C367 C365 1.327 . S
C368 C356 1.349 . S
C368 H362 0.950 . S
C368 C369 1.327 . S
C369 H363 0.950 . S
C369 C368 1.327 . S
C369 C373 1.429 . S
C370 C353 1.574 . S
C370 H364 0.949 . S
C370 C374 1.368 . S
C371 C352 1.429 . S
C371 C365 1.429 . S
C371 C372 1.523 . S
C372 C353 1.368 . S
C372 C366 1.368 . S
C372 C371 1.523 . S
C373 C357 1.429 . S
C373 C369 1.429 . S
C373 C374 1.523 . S
C374 C358 1.368 . S
C374 C370 1.368 . S
C374 C373 1.523 . S
H375 C350 0.950 . S
H376 C352 0.950 . S
H377 C353 0.949 . S
H378 C355 0.950 . S
H379 C357 0.950 . S
C380 C381 1.349 . S
C380 C382 1.327 . S
C380 H405 0.950 . S
C381 C380 1.349 . S
C381 C397 1.349 . S
C382 C380 1.327 . S
C382 C401 1.429 . S
C382 H406 0.950 . S
C383 C400 1.574 . S
C383 C402 1.368 . S
C383 H407 0.949 . S
H384 C388 0.949 . S
C385 C386 1.349 . S
C385 C387 1.327 . S
C385 H408 0.950 . S
C386 C385 1.349 . S
C386 C398 1.349 . S
C387 C385 1.327 . S
C387 C403 1.429 . S
C387 H409 0.950 . S
C388 H384 0.949 . S
C388 C396 1.574 . S
C388 C404 1.368 . S
H389 C397 0.950 . S
H390 C395 0.950 . S
H391 C396 0.949 . S
H392 C398 0.950 . S
H393 C399 0.950 . S
H394 C400 0.949 . S
C395 H390 0.950 . S
C395 C397 1.327 . S
C395 C401 1.429 . S
C396 C388 1.574 . S
C396 H391 0.949 . S
C396 C402 1.368 . S
C397 C381 1.349 . S
C397 H389 0.950 . S
C397 C395 1.327 . S
C398 C386 1.349 . S
C398 H392 0.950 . S
C398 C399 1.327 . S
C399 H393 0.950 . S
C399 C398 1.327 . S
C399 C403 1.429 . S
C400 C383 1.574 . S
C400 H394 0.949 . S
C400 C404 1.368 . S
C401 C382 1.429 . S
C401 C395 1.429 . S
C401 C402 1.523 . S
C402 C383 1.368 . S
C402 C396 1.368 . S
C402 C401 1.523 . S
C403 C387 1.429 . S
C403 C399 1.429 . S
C403 C404 1.523 . S
C404 C388 1.368 . S
C404 C400 1.368 . S
C404 C403 1.523 . S
H405 C380 0.950 . S
H406 C382 0.950 . S
H407 C383 0.949 . S
H408 C385 0.950 . S
H409 C387 0.950 . S
C410 C411 1.349 . S
C410 C412 1.327 . S
C410 H435 0.950 . S
C411 C410 1.349 . S
C411 C427 1.349 . S
C412 C410 1.327 . S
C412 C431 1.429 . S
C412 H436 0.950 . S
C413 C430 1.574 . S
C413 C432 1.368 . S
C413 H437 0.949 . S
H414 C418 0.949 . S
C415 C416 1.349 . S
C415 C417 1.327 . S
C415 H438 0.950 . S
C416 C415 1.349 . S
C416 C428 1.349 . S
C417 C415 1.327 . S
C417 C433 1.429 . S
C417 H439 0.950 . S
C418 H414 0.949 . S
C418 C426 1.574 . S
C418 C434 1.368 . S
H419 C427 0.950 . S
H420 C425 0.950 . S
H421 C426 0.949 . S
H422 C428 0.950 . S
H423 C429 0.950 . S
H424 C430 0.949 . S
C425 H420 0.950 . S
C425 C427 1.327 . S
C425 C431 1.429 . S
C426 C418 1.574 . S
C426 H421 0.949 . S
C426 C432 1.368 . S
C427 C411 1.349 . S
C427 H419 0.950 . S
C427 C425 1.327 . S
C428 C416 1.349 . S
C428 H422 0.950 . S
C428 C429 1.327 . S
C429 H423 0.950 . S
C429 C428 1.327 . S
C429 C433 1.429 . S
C430 C413 1.574 . S
C430 H424 0.949 . S
C430 C434 1.368 . S
C431 C412 1.429 . S
C431 C425 1.429 . S
C431 C432 1.523 . S
C432 C413 1.368 . S
C432 C426 1.368 . S
C432 C431 1.523 . S
C433 C417 1.429 . S
C433 C429 1.429 . S
C433 C434 1.523 . S
C434 C418 1.368 . S
C434 C430 1.368 . S
C434 C433 1.523 . S
H435 C410 0.950 . S
H436 C412 0.950 . S
H437 C413 0.949 . S
H438 C415 0.950 . S
H439 C417 0.950 . S
C440 C441 1.349 . S
C440 C442 1.327 . S
C440 H465 0.950 . S
C441 C440 1.349 . S
C441 C457 1.349 . S
C442 C440 1.327 . S
C442 C461 1.429 . S
C442 H466 0.950 . S
C443 C460 1.574 1_565 S
C443 C462 1.368 . S
C443 H467 0.949 . S
H444 C448 0.949 . S
C445 C446 1.349 . S
C445 C447 1.327 . S
C445 H468 0.950 . S
C446 C445 1.349 . S
C446 C458 1.349 . S
C447 C445 1.327 . S
C447 C463 1.429 . S
C447 H469 0.950 . S
C448 H444 0.949 . S
C448 C456 1.574 1_545 S
C448 C464 1.368 . S
H449 C457 0.950 . S
H450 C455 0.950 . S
H451 C456 0.949 . S
H452 C458 0.950 . S
H453 C459 0.950 . S
H454 C460 0.949 . S
C455 H450 0.950 . S
C455 C457 1.327 . S
C455 C461 1.429 . S
C456 C448 1.574 1_565 S
C456 H451 0.949 . S
C456 C462 1.368 . S
C457 C441 1.349 . S
C457 H449 0.950 . S
C457 C455 1.327 . S
C458 C446 1.349 . S
C458 H452 0.950 . S
C458 C459 1.327 . S
C459 H453 0.950 . S
C459 C458 1.327 . S
C459 C463 1.429 . S
C460 C443 1.574 1_545 S
C460 H454 0.949 . S
C460 C464 1.368 . S
C461 C442 1.429 . S
C461 C455 1.429 . S
C461 C462 1.523 . S
C462 C443 1.368 . S
C462 C456 1.368 . S
C462 C461 1.523 . S
C463 C447 1.429 . S
C463 C459 1.429 . S
C463 C464 1.523 . S
C464 C448 1.368 . S
C464 C460 1.368 . S
C464 C463 1.523 . S
H465 C440 0.950 . S
H466 C442 0.950 . S
H467 C443 0.949 . S
H468 C445 0.950 . S
H469 C447 0.950 . S
C470 C471 1.349 . S
C470 C472 1.327 . S
C470 H495 0.950 . S
C471 C470 1.349 . S
C471 C487 1.349 . S
C472 C470 1.327 . S
C472 C491 1.429 . S
C472 H496 0.950 . S
C473 C490 1.574 . S
C473 C492 1.368 . S
C473 H497 0.949 . S
H474 C478 0.949 . S
C475 C476 1.349 . S
C475 C477 1.327 . S
C475 H498 0.950 . S
C476 C475 1.349 . S
C476 C488 1.349 . S
C477 C475 1.327 . S
C477 C493 1.429 . S
C477 H499 0.950 . S
C478 H474 0.949 . S
C478 C486 1.574 . S
C478 C494 1.368 . S
H479 C487 0.950 . S
H480 C485 0.950 . S
H481 C486 0.949 . S
H482 C488 0.950 . S
H483 C489 0.950 . S
H484 C490 0.949 . S
C485 H480 0.950 . S
C485 C487 1.327 . S
C485 C491 1.429 . S
C486 C478 1.574 . S
C486 H481 0.949 . S
C486 C492 1.368 . S
C487 C471 1.349 . S
C487 H479 0.950 . S
C487 C485 1.327 . S
C488 C476 1.349 . S
C488 H482 0.950 . S
C488 C489 1.327 . S
C489 H483 0.950 . S
C489 C488 1.327 . S
C489 C493 1.429 . S
C490 C473 1.574 . S
C490 H484 0.949 . S
C490 C494 1.368 . S
C491 C472 1.429 . S
C491 C485 1.429 . S
C491 C492 1.523 . S
C492 C473 1.368 . S
C492 C486 1.368 . S
C492 C491 1.523 . S
C493 C477 1.429 . S
C493 C489 1.429 . S
C493 C494 1.523 . S
C494 C478 1.368 . S
C494 C490 1.368 . S
C494 C493 1.523 . S
H495 C470 0.950 . S
H496 C472 0.950 . S
H497 C473 0.949 . S
H498 C475 0.950 . S
H499 C477 0.950 . S
C500 C501 1.349 . S
C500 C502 1.327 . S
C500 H525 0.950 . S
C501 C500 1.349 . S
C501 C517 1.349 . S
C502 C500 1.327 . S
C502 C521 1.429 . S
C502 H526 0.950 . S
C503 C520 1.574 1_565 S
C503 C522 1.368 . S
C503 H527 0.949 . S
H504 C508 0.949 . S
C505 C506 1.349 . S
C505 C507 1.327 . S
C505 H528 0.950 . S
C506 C505 1.349 . S
C506 C518 1.349 . S
C507 C505 1.327 . S
C507 C523 1.429 . S
C507 H529 0.950 . S
C508 H504 0.949 . S
C508 C516 1.574 1_545 S
C508 C524 1.368 . S
H509 C517 0.950 . S
H510 C515 0.950 . S
H511 C516 0.949 . S
H512 C518 0.950 . S
H513 C519 0.950 . S
H514 C520 0.949 . S
C515 H510 0.950 . S
C515 C517 1.327 . S
C515 C521 1.429 . S
C516 C508 1.574 1_565 S
C516 H511 0.949 . S
C516 C522 1.368 . S
C517 C501 1.349 . S
C517 H509 0.950 . S
C517 C515 1.327 . S
C518 C506 1.349 . S
C518 H512 0.950 . S
C518 C519 1.327 . S
C519 H513 0.950 . S
C519 C518 1.327 . S
C519 C523 1.429 . S
C520 C503 1.574 1_545 S
C520 H514 0.949 . S
C520 C524 1.368 . S
C521 C502 1.429 . S
C521 C515 1.429 . S
C521 C522 1.523 . S
C522 C503 1.368 . S
C522 C516 1.368 . S
C522 C521 1.523 . S
C523 C507 1.429 . S
C523 C519 1.429 . S
C523 C524 1.523 . S
C524 C508 1.368 . S
C524 C520 1.368 . S
C524 C523 1.523 . S
H525 C500 0.950 . S
H526 C502 0.950 . S
H527 C503 0.949 . S
H528 C505 0.950 . S
H529 C507 0.950 . S
C530 C531 1.349 . S
C530 C532 1.327 . S
C530 H555 0.950 . S
C531 C530 1.349 . S
C531 C547 1.349 . S
C532 C530 1.327 . S
C532 C551 1.429 . S
C532 H556 0.950 . S
C533 C550 1.574 . S
C533 C552 1.368 . S
C533 H557 0.949 . S
H534 C538 0.949 . S
C535 C536 1.349 . S
C535 C537 1.327 . S
C535 H558 0.950 . S
C536 C535 1.349 . S
C536 C548 1.349 . S
C537 C535 1.327 . S
C537 C553 1.429 . S
C537 H559 0.950 . S
C538 H534 0.949 . S
C538 C546 1.574 . S
C538 C554 1.368 . S
H539 C547 0.950 . S
H540 C545 0.950 . S
H541 C546 0.949 . S
H542 C548 0.950 . S
H543 C549 0.950 . S
H544 C550 0.949 . S
C545 H540 0.950 . S
C545 C547 1.327 . S
C545 C551 1.429 . S
C546 C538 1.574 . S
C546 H541 0.949 . S
C546 C552 1.368 . S
C547 C531 1.349 . S
C547 H539 0.950 . S
C547 C545 1.327 . S
C548 C536 1.349 . S
C548 H542 0.950 . S
C548 C549 1.327 . S
C549 H543 0.950 . S
C549 C548 1.327 . S
C549 C553 1.429 . S
C550 C533 1.574 . S
C550 H544 0.949 . S
C550 C554 1.368 . S
C551 C532 1.429 . S
C551 C545 1.429 . S
C551 C552 1.523 . S
C552 C533 1.368 . S
C552 C546 1.368 . S
C552 C551 1.523 . S
C553 C537 1.429 . S
C553 C549 1.429 . S
C553 C554 1.523 . S
C554 C538 1.368 . S
C554 C550 1.368 . S
C554 C553 1.523 . S
H555 C530 0.950 . S
H556 C532 0.950 . S
H557 C533 0.949 . S
H558 C535 0.950 . S
H559 C537 0.950 . S
C560 C561 1.349 . S
C560 C562 1.327 . S
C560 H585 0.950 . S
C561 C560 1.349 . S
C561 C577 1.349 1_556 S
C562 C560 1.327 . S
C562 C581 1.429 . S
C562 H586 0.950 . S
C563 C580 1.574 . S
C563 C582 1.368 1_554 S
C563 H587 0.949 . S
H564 C568 0.949 . S
C565 C566 1.349 1_554 S
C565 C567 1.327 . S
C565 H588 0.950 . S
C566 C565 1.349 1_556 S
C566 C578 1.349 . S
C567 C565 1.327 . S
C567 C583 1.429 1_554 S
C567 H589 0.950 . S
C568 H564 0.949 . S
C568 C576 1.574 . S
C568 C584 1.368 . S
H569 C577 0.950 . S
H570 C575 0.950 . S
H571 C576 0.949 . S
H572 C578 0.950 . S
H573 C579 0.950 . S
H574 C580 0.949 . S
C575 H570 0.950 . S
C575 C577 1.327 . S
C575 C581 1.429 1_554 S
C576 C568 1.574 . S
C576 H571 0.949 . S
C576 C582 1.368 . S
C577 C561 1.349 1_554 S
C577 H569 0.950 . S
C577 C575 1.327 . S
C578 C566 1.349 . S
C578 H572 0.950 . S
C578 C579 1.327 . S
C579 H573 0.950 . S
C579 C578 1.327 . S
C579 C583 1.429 . S
C580 C563 1.574 . S
C580 H574 0.949 . S
C580 C584 1.368 1_554 S
C581 C562 1.429 . S
C581 C575 1.429 1_556 S
C581 C582 1.523 . S
C582 C563 1.368 1_556 S
C582 C576 1.368 . S
C582 C581 1.523 . S
C583 C567 1.429 1_556 S
C583 C579 1.429 . S
C583 C584 1.523 . S
C584 C568 1.368 . S
C584 C580 1.368 1_556 S
C584 C583 1.523 . S
H585 C560 0.950 . S
H586 C562 0.950 . S
H587 C563 0.949 . S
H588 C565 0.950 . S
H589 C567 0.950 . S
C590 C591 1.349 1_554 S
C590 C592 1.327 . S
C590 H615 0.950 . S
C591 C590 1.349 1_556 S
C591 C607 1.349 . S
C592 C590 1.327 . S
C592 C611 1.429 1_554 S
C592 H616 0.950 . S
C593 C610 1.574 1_565 S
C593 C612 1.368 . S
C593 H617 0.949 . S
H594 C598 0.949 . S
C595 C596 1.349 . S
C595 C597 1.327 . S
C595 H618 0.950 . S
C596 C595 1.349 . S
C596 C608 1.349 1_556 S
C597 C595 1.327 . S
C597 C613 1.429 . S
C597 H619 0.950 . S
C598 H594 0.949 . S
C598 C606 1.574 1_545 S
C598 C614 1.368 1_554 S
H599 C607 0.950 . S
H600 C605 0.950 . S
H601 C606 0.949 . S
H602 C608 0.950 . S
H603 C609 0.950 . S
H604 C610 0.949 . S
C605 H600 0.950 . S
C605 C607 1.327 . S
C605 C611 1.429 . S
C606 C598 1.574 1_565 S
C606 H601 0.949 . S
C606 C612 1.368 1_554 S
C607 C591 1.349 . S
C607 H599 0.950 . S
C607 C605 1.327 . S
C608 C596 1.349 1_554 S
C608 H602 0.950 . S
C608 C609 1.327 . S
C609 H603 0.950 . S
C609 C608 1.327 . S
C609 C613 1.429 1_554 S
C610 C593 1.574 1_545 S
C610 H604 0.949 . S
C610 C614 1.368 . S
C611 C592 1.429 1_556 S
C611 C605 1.429 . S
C611 C612 1.523 . S
C612 C593 1.368 . S
C612 C606 1.368 1_556 S
C612 C611 1.523 . S
C613 C597 1.429 . S
C613 C609 1.429 1_556 S
C613 C614 1.523 . S
C614 C598 1.368 1_556 S
C614 C610 1.368 . S
C614 C613 1.523 . S
H615 C590 0.950 . S
H616 C592 0.950 . S
H617 C593 0.949 . S
H618 C595 0.950 . S
H619 C597 0.950 . S
C620 C621 1.349 . S
C620 C622 1.327 . S
C620 H645 0.950 . S
C621 C620 1.349 . S
C621 C637 1.349 1_554 S
C622 C620 1.327 . S
C622 C641 1.429 . S
C622 H646 0.950 . S
C623 C640 1.574 . S
C623 C642 1.368 1_556 S
C623 H647 0.949 . S
H624 C628 0.949 . S
C625 C626 1.349 1_556 S
C625 C627 1.327 . S
C625 H648 0.950 . S
C626 C625 1.349 1_554 S
C626 C638 1.349 . S
C627 C625 1.327 . S
C627 C643 1.429 1_556 S
C627 H649 0.950 . S
C628 H624 0.949 . S
C628 C636 1.574 . S
C628 C644 1.368 . S
H629 C637 0.950 . S
H630 C635 0.950 . S
H631 C636 0.949 . S
H632 C638 0.950 . S
H633 C639 0.950 . S
H634 C640 0.949 . S
C635 H630 0.950 . S
C635 C637 1.327 . S
C635 C641 1.429 1_556 S
C636 C628 1.574 . S
C636 H631 0.949 . S
C636 C642 1.368 . S
C637 C621 1.349 1_556 S
C637 H629 0.950 . S
C637 C635 1.327 . S
C638 C626 1.349 . S
C638 H632 0.950 . S
C638 C639 1.327 . S
C639 H633 0.950 . S
C639 C638 1.327 . S
C639 C643 1.429 . S
C640 C623 1.574 . S
C640 H634 0.949 . S
C640 C644 1.368 1_556 S
C641 C622 1.429 . S
C641 C635 1.429 1_554 S
C641 C642 1.523 . S
C642 C623 1.368 1_554 S
C642 C636 1.368 . S
C642 C641 1.523 . S
C643 C627 1.429 1_554 S
C643 C639 1.429 . S
C643 C644 1.523 . S
C644 C628 1.368 . S
C644 C640 1.368 1_554 S
C644 C643 1.523 . S
H645 C620 0.950 . S
H646 C622 0.950 . S
H647 C623 0.949 . S
H648 C625 0.950 . S
H649 C627 0.950 . S
C650 C651 1.349 1_556 S
C650 C652 1.327 . S
C650 H675 0.950 . S
C651 C650 1.349 1_554 S
C651 C667 1.349 . S
C652 C650 1.327 . S
C652 C671 1.429 1_556 S
C652 H676 0.950 . S
C653 C670 1.574 1_545 S
C653 C672 1.368 . S
C653 H677 0.949 . S
H654 C658 0.949 . S
C655 C656 1.349 . S
C655 C657 1.327 . S
C655 H678 0.950 . S
C656 C655 1.349 . S
C656 C668 1.349 1_554 S
C657 C655 1.327 . S
C657 C673 1.429 . S
C657 H679 0.950 . S
C658 H654 0.949 . S
C658 C666 1.574 1_565 S
C658 C674 1.368 1_556 S
H659 C667 0.950 . S
H660 C665 0.950 . S
H661 C666 0.949 . S
H662 C668 0.950 . S
H663 C669 0.950 . S
H664 C670 0.949 . S
C665 H660 0.950 . S
C665 C667 1.327 . S
C665 C671 1.429 . S
C666 C658 1.574 1_545 S
C666 H661 0.949 . S
C666 C672 1.368 1_556 S
C667 C651 1.349 . S
C667 H659 0.950 . S
C667 C665 1.327 . S
C668 C656 1.349 1_556 S
C668 H662 0.950 . S
C668 C669 1.327 . S
C669 H663 0.950 . S
C669 C668 1.327 . S
C669 C673 1.429 1_556 S
C670 C653 1.574 1_565 S
C670 H664 0.949 . S
C670 C674 1.368 . S
C671 C652 1.429 1_554 S
C671 C665 1.429 . S
C671 C672 1.523 . S
C672 C653 1.368 . S
C672 C666 1.368 1_554 S
C672 C671 1.523 . S
C673 C657 1.429 . S
C673 C669 1.429 1_554 S
C673 C674 1.523 . S
C674 C658 1.368 1_554 S
C674 C670 1.368 . S
C674 C673 1.523 . S
H675 C650 0.950 . S
H676 C652 0.950 . S
H677 C653 0.949 . S
H678 C655 0.950 . S
H679 C657 0.950 . S
C680 C681 1.349 . S
C680 C682 1.327 . S
C680 H705 0.950 . S
C681 C680 1.349 . S
C681 C697 1.349 . S
C682 C680 1.327 . S
C682 C701 1.429 . S
C682 H706 0.950 . S
C683 C700 1.574 . S
C683 C702 1.368 1_556 S
C683 H707 0.949 1_556 S
H684 C688 0.949 . S
C685 C686 1.349 . S
C685 C687 1.327 . S
C685 H708 0.950 . S
C686 C685 1.349 . S
C686 C698 1.349 . S
C687 C685 1.327 . S
C687 C703 1.429 . S
C687 H709 0.950 . S
C688 H684 0.949 . S
C688 C696 1.574 . S
C688 C704 1.368 . S
H689 C697 0.950 . S
H690 C695 0.950 . S
H691 C696 0.948 1_554 S
H692 C698 0.950 . S
H693 C699 0.950 . S
H694 C700 0.949 . S
C695 H690 0.950 . S
C695 C697 1.327 . S
C695 C701 1.429 . S
C696 C688 1.574 . S
C696 H691 0.948 1_556 S
C696 C702 1.368 1_556 S
C697 C681 1.349 . S
C697 H689 0.950 . S
C697 C695 1.327 . S
C698 C686 1.349 . S
C698 H692 0.950 . S
C698 C699 1.327 . S
C699 H693 0.950 . S
C699 C698 1.327 . S
C699 C703 1.429 . S
C700 C683 1.574 . S
C700 H694 0.949 . S
C700 C704 1.368 . S
C701 C682 1.429 . S
C701 C695 1.429 . S
C701 C702 1.523 . S
C702 C683 1.368 1_554 S
C702 C696 1.368 1_554 S
C702 C701 1.523 . S
C703 C687 1.429 . S
C703 C699 1.429 . S
C703 C704 1.523 . S
C704 C688 1.368 . S
C704 C700 1.368 . S
C704 C703 1.523 . S
H705 C680 0.950 . S
H706 C682 0.950 . S
H707 C683 0.949 1_554 S
H708 C685 0.950 . S
H709 C687 0.950 . S
C710 C711 1.349 . S
C710 C712 1.327 . S
C710 H735 0.950 . S
C711 C710 1.349 . S
C711 C727 1.349 . S
C712 C710 1.327 . S
C712 C731 1.429 . S
C712 H736 0.950 . S
C713 C730 1.574 . S
C713 C732 1.368 1_556 S
C713 H737 0.948 1_556 S
H714 C718 0.949 . S
C715 C716 1.349 . S
C715 C717 1.327 . S
C715 H738 0.950 . S
C716 C715 1.349 . S
C716 C728 1.349 . S
C717 C715 1.327 . S
C717 C733 1.429 . S
C717 H739 0.950 . S
C718 H714 0.949 . S
C718 C726 1.574 . S
C718 C734 1.368 . S
H719 C727 0.950 . S
H720 C725 0.950 . S
H721 C726 0.949 1_554 S
H722 C728 0.950 . S
H723 C729 0.950 . S
H724 C730 0.949 . S
C725 H720 0.950 . S
C725 C727 1.327 . S
C725 C731 1.429 . S
C726 C718 1.574 . S
C726 H721 0.949 1_556 S
C726 C732 1.368 1_556 S
C727 C711 1.349 . S
C727 H719 0.950 . S
C727 C725 1.327 . S
C728 C716 1.349 . S
C728 H722 0.950 . S
C728 C729 1.327 . S
C729 H723 0.950 . S
C729 C728 1.327 . S
C729 C733 1.429 . S
C730 C713 1.574 . S
C730 H724 0.949 . S
C730 C734 1.368 . S
C731 C712 1.429 . S
C731 C725 1.429 . S
C731 C732 1.523 . S
C732 C713 1.368 1_554 S
C732 C726 1.368 1_554 S
C732 C731 1.523 . S
C733 C717 1.429 . S
C733 C729 1.429 . S
C733 C734 1.523 . S
C734 C718 1.368 . S
C734 C730 1.368 . S
C734 C733 1.523 . S
H735 C710 0.950 . S
H736 C712 0.950 . S
H737 C713 0.948 1_554 S
H738 C715 0.950 . S
H739 C717 0.950 . S
C740 C741 1.349 . S
C740 C742 1.327 . S
C740 H765 0.950 . S
C741 C740 1.349 . S
C741 C757 1.349 . S
C742 C740 1.327 . S
C742 C761 1.429 . S
C742 H766 0.950 . S
C743 C760 1.574 . S
C743 C762 1.368 . S
C743 H767 0.949 . S
H744 C748 0.949 . S
C745 C746 1.349 . S
C745 C747 1.327 . S
C745 H768 0.950 . S
C746 C745 1.349 . S
C746 C758 1.349 . S
C747 C745 1.327 . S
C747 C763 1.429 . S
C747 H769 0.950 . S
C748 H744 0.949 . S
C748 C756 1.574 . S
C748 C764 1.368 1_554 S
H749 C757 0.950 . S
H750 C755 0.950 . S
H751 C756 0.949 . S
H752 C758 0.950 . S
H753 C759 0.950 . S
H754 C760 0.949 1_556 S
C755 H750 0.950 . S
C755 C757 1.327 . S
C755 C761 1.429 . S
C756 C748 1.574 . S
C756 H751 0.949 . S
C756 C762 1.368 . S
C757 C741 1.349 . S
C757 H749 0.950 . S
C757 C755 1.327 . S
C758 C746 1.349 . S
C758 H752 0.950 . S
C758 C759 1.327 . S
C759 H753 0.950 . S
C759 C758 1.327 . S
C759 C763 1.429 . S
C760 C743 1.574 . S
C760 H754 0.949 1_554 S
C760 C764 1.368 1_554 S
C761 C742 1.429 . S
C761 C755 1.429 . S
C761 C762 1.523 . S
C762 C743 1.368 . S
C762 C756 1.368 . S
C762 C761 1.523 . S
C763 C747 1.429 . S
C763 C759 1.429 . S
C763 C764 1.523 . S
C764 C748 1.368 1_556 S
C764 C760 1.368 1_556 S
C764 C763 1.523 . S
H765 C740 0.950 . S
H766 C742 0.950 . S
H767 C743 0.949 . S
H768 C745 0.950 . S
H769 C747 0.950 . S
C770 C771 1.349 . S
C770 C772 1.327 . S
C770 H795 0.950 . S
C771 C770 1.349 . S
C771 C787 1.349 . S
C772 C770 1.327 . S
C772 C791 1.429 . S
C772 H796 0.950 . S
C773 C790 1.574 . S
C773 C792 1.368 1_554 S
C773 H797 0.949 1_554 S
H774 C778 0.949 . S
C775 C776 1.349 . S
C775 C777 1.327 . S
C775 H798 0.950 . S
C776 C775 1.349 . S
C776 C788 1.349 . S
C777 C775 1.327 . S
C777 C793 1.429 . S
C777 H799 0.950 . S
C778 H774 0.949 . S
C778 C786 1.574 . S
C778 C794 1.368 . S
H779 C787 0.950 . S
H780 C785 0.950 . S
H781 C786 0.949 1_556 S
H782 C788 0.950 . S
H783 C789 0.950 . S
H784 C790 0.949 . S
C785 H780 0.950 . S
C785 C787 1.327 . S
C785 C791 1.429 . S
C786 C778 1.574 . S
C786 H781 0.949 1_554 S
C786 C792 1.368 1_554 S
C787 C771 1.349 . S
C787 H779 0.950 . S
C787 C785 1.327 . S
C788 C776 1.349 . S
C788 H782 0.950 . S
C788 C789 1.327 . S
C789 H783 0.950 . S
C789 C788 1.327 . S
C789 C793 1.429 . S
C790 C773 1.574 . S
C790 H784 0.949 . S
C790 C794 1.368 . S
C791 C772 1.429 . S
C791 C785 1.429 . S
C791 C792 1.523 . S
C792 C773 1.368 1_556 S
C792 C786 1.368 1_556 S
C792 C791 1.523 . S
C793 C777 1.429 . S
C793 C789 1.429 . S
C793 C794 1.523 . S
C794 C778 1.368 . S
C794 C790 1.368 . S
C794 C793 1.523 . S
H795 C770 0.950 . S
H796 C772 0.950 . S
H797 C773 0.949 1_556 S
H798 C775 0.950 . S
H799 C777 0.950 . S
C800 C801 1.349 . S
C800 C802 1.327 . S
C800 H825 0.950 . S
C801 C800 1.349 . S
C801 C817 1.349 . S
C802 C800 1.327 . S
C802 C821 1.429 . S
C802 H826 0.950 . S
C803 C820 1.574 . S
C803 C822 1.368 . S
C803 H827 0.949 . S
H804 C808 0.949 . S
C805 C806 1.349 . S
C805 C807 1.327 . S
C805 H828 0.950 . S
C806 C805 1.349 . S
C806 C818 1.349 . S
C807 C805 1.327 . S
C807 C823 1.429 . S
C807 H829 0.950 . S
C808 H804 0.949 . S
C808 C816 1.574 . S
C808 C824 1.368 . S
H809 C817 0.950 . S
H810 C815 0.950 . S
H811 C816 0.949 . S
H812 C818 0.950 . S
H813 C819 0.950 . S
H814 C820 0.949 . S
C815 H810 0.950 . S
C815 C817 1.327 . S
C815 C821 1.429 . S
C816 C808 1.574 . S
C816 H811 0.949 . S
C816 C822 1.368 . S
C817 C801 1.349 . S
C817 H809 0.950 . S
C817 C815 1.327 . S
C818 C806 1.349 . S
C818 H812 0.950 . S
C818 C819 1.327 . S
C819 H813 0.950 . S
C819 C818 1.327 . S
C819 C823 1.429 . S
C820 C803 1.574 . S
C820 H814 0.949 . S
C820 C824 1.368 . S
C821 C802 1.429 . S
C821 C815 1.429 . S
C821 C822 1.523 . S
C822 C803 1.368 . S
C822 C816 1.368 . S
C822 C821 1.523 . S
C823 C807 1.429 . S
C823 C819 1.429 . S
C823 C824 1.523 . S
C824 C808 1.368 . S
C824 C820 1.368 . S
C824 C823 1.523 . S
H825 C800 0.950 . S
H826 C802 0.950 . S
H827 C803 0.949 . S
H828 C805 0.950 . S
H829 C807 0.950 . S
C830 C831 1.349 . S
C830 C832 1.327 . S
C830 H855 0.950 . S
C831 C830 1.349 . S
C831 C847 1.349 . S
C832 C830 1.327 . S
C832 C851 1.429 . S
C832 H856 0.950 . S
C833 C850 1.574 . S
C833 C852 1.368 . S
C833 H857 0.949 . S
H834 C838 0.949 . S
C835 C836 1.349 . S
C835 C837 1.327 . S
C835 H858 0.950 . S
C836 C835 1.349 . S
C836 C848 1.349 . S
C837 C835 1.327 . S
C837 C853 1.429 . S
C837 H859 0.950 . S
C838 H834 0.949 . S
C838 C846 1.574 . S
C838 C854 1.368 . S
H839 C847 0.950 . S
H840 C845 0.950 . S
H841 C846 0.949 . S
H842 C848 0.950 . S
H843 C849 0.950 . S
H844 C850 0.949 . S
C845 H840 0.950 . S
C845 C847 1.327 . S
C845 C851 1.429 . S
C846 C838 1.574 . S
C846 H841 0.949 . S
C846 C852 1.368 . S
C847 C831 1.349 . S
C847 H839 0.950 . S
C847 C845 1.327 . S
C848 C836 1.349 . S
C848 H842 0.950 . S
C848 C849 1.327 . S
C849 H843 0.950 . S
C849 C848 1.327 . S
C849 C853 1.429 . S
C850 C833 1.574 . S
C850 H844 0.949 . S
C850 C854 1.368 . S
C851 C832 1.429 . S
C851 C845 1.429 . S
C851 C852 1.523 . S
C852 C833 1.368 . S
C852 C846 1.368 . S
C852 C851 1.523 . S
C853 C837 1.429 . S
C853 C849 1.429 . S
C853 C854 1.523 . S
C854 C838 1.368 . S
C854 C850 1.368 . S
C854 C853 1.523 . S
H855 C830 0.950 . S
H856 C832 0.950 . S
H857 C833 0.949 . S
H858 C835 0.950 . S
H859 C837 0.950 . S
C860 C861 1.349 . S
C860 C862 1.327 . S
C860 H885 0.950 . S
C861 C860 1.349 . S
C861 C877 1.349 . S
C862 C860 1.327 . S
C862 C881 1.429 . S
C862 H886 0.950 . S
C863 C880 1.574 . S
C863 C882 1.368 . S
C863 H887 0.949 . S
H864 C868 0.949 . S
C865 C866 1.349 . S
C865 C867 1.327 . S
C865 H888 0.950 . S
C866 C865 1.349 . S
C866 C878 1.349 . S
C867 C865 1.327 . S
C867 C883 1.429 . S
C867 H889 0.950 . S
C868 H864 0.949 . S
C868 C876 1.574 . S
C868 C884 1.368 . S
H869 C877 0.950 . S
H870 C875 0.950 . S
H871 C876 0.949 . S
H872 C878 0.950 . S
H873 C879 0.950 . S
H874 C880 0.949 . S
C875 H870 0.950 . S
C875 C877 1.327 . S
C875 C881 1.429 . S
C876 C868 1.574 . S
C876 H871 0.949 . S
C876 C882 1.368 . S
C877 C861 1.349 . S
C877 H869 0.950 . S
C877 C875 1.327 . S
C878 C866 1.349 . S
C878 H872 0.950 . S
C878 C879 1.327 . S
C879 H873 0.950 . S
C879 C878 1.327 . S
C879 C883 1.429 . S
C880 C863 1.574 . S
C880 H874 0.949 . S
C880 C884 1.368 . S
C881 C862 1.429 . S
C881 C875 1.429 . S
C881 C882 1.523 . S
C882 C863 1.368 . S
C882 C876 1.368 . S
C882 C881 1.523 . S
C883 C867 1.429 . S
C883 C879 1.429 . S
C883 C884 1.523 . S
C884 C868 1.368 . S
C884 C880 1.368 . S
C884 C883 1.523 . S
H885 C860 0.950 . S
H886 C862 0.950 . S
H887 C863 0.949 . S
H888 C865 0.950 . S
H889 C867 0.950 . S
C890 C891 1.349 . S
C890 C892 1.327 . S
C890 H915 0.950 . S
C891 C890 1.349 . S
C891 C907 1.349 . S
C892 C890 1.327 . S
C892 C911 1.429 . S
C892 H916 0.950 . S
C893 C910 1.574 . S
C893 C912 1.368 . S
C893 H917 0.949 . S
H894 C898 0.949 . S
C895 C896 1.349 . S
C895 C897 1.327 . S
C895 H918 0.950 . S
C896 C895 1.349 . S
C896 C908 1.349 . S
C897 C895 1.327 . S
C897 C913 1.429 . S
C897 H919 0.950 . S
C898 H894 0.949 . S
C898 C906 1.574 . S
C898 C914 1.368 . S
H899 C907 0.950 . S
H900 C905 0.950 . S
H901 C906 0.949 . S
H902 C908 0.950 . S
H903 C909 0.950 . S
H904 C910 0.949 . S
C905 H900 0.950 . S
C905 C907 1.327 . S
C905 C911 1.429 . S
C906 C898 1.574 . S
C906 H901 0.949 . S
C906 C912 1.368 . S
C907 C891 1.349 . S
C907 H899 0.950 . S
C907 C905 1.327 . S
C908 C896 1.349 . S
C908 H902 0.950 . S
C908 C909 1.327 . S
C909 H903 0.950 . S
C909 C908 1.327 . S
C909 C913 1.429 . S
C910 C893 1.574 . S
C910 H904 0.949 . S
C910 C914 1.368 . S
C911 C892 1.429 . S
C911 C905 1.429 . S
C911 C912 1.523 . S
C912 C893 1.368 . S
C912 C906 1.368 . S
C912 C911 1.523 . S
C913 C897 1.429 . S
C913 C909 1.429 . S
C913 C914 1.523 . S
C914 C898 1.368 . S
C914 C910 1.368 . S
C914 C913 1.523 . S
H915 C890 0.950 . S
H916 C892 0.950 . S
H917 C893 0.949 . S
H918 C895 0.950 . S
H919 C897 0.950 . S
C920 C921 1.349 . S
C920 C922 1.327 . S
C920 H945 0.950 . S
C921 C920 1.349 . S
C921 C937 1.349 . S
C922 C920 1.327 . S
C922 C941 1.429 . S
C922 H946 0.950 . S
C923 C940 1.574 1_455 S
C923 C942 1.368 . S
C923 H947 0.949 . S
H924 C928 0.949 . S
C925 C926 1.349 . S
C925 C927 1.327 . S
C925 H948 0.950 . S
C926 C925 1.349 . S
C926 C938 1.349 . S
C927 C925 1.327 . S
C927 C943 1.429 . S
C927 H949 0.950 . S
C928 H924 0.949 . S
C928 C936 1.574 1_655 S
C928 C944 1.368 . S
H929 C937 0.950 . S
H930 C935 0.950 . S
H931 C936 0.949 . S
H932 C938 0.950 . S
H933 C939 0.950 . S
H934 C940 0.949 . S
C935 H930 0.950 . S
C935 C937 1.327 . S
C935 C941 1.429 . S
C936 C928 1.574 1_455 S
C936 H931 0.949 . S
C936 C942 1.368 . S
C937 C921 1.349 . S
C937 H929 0.950 . S
C937 C935 1.327 . S
C938 C926 1.349 . S
C938 H932 0.950 . S
C938 C939 1.327 . S
C939 H933 0.950 . S
C939 C938 1.327 . S
C939 C943 1.429 . S
C940 C923 1.574 1_655 S
C940 H934 0.949 . S
C940 C944 1.368 . S
C941 C922 1.429 . S
C941 C935 1.429 . S
C941 C942 1.523 . S
C942 C923 1.368 . S
C942 C936 1.368 . S
C942 C941 1.523 . S
C943 C927 1.429 . S
C943 C939 1.429 . S
C943 C944 1.523 . S
C944 C928 1.368 . S
C944 C940 1.368 . S
C944 C943 1.523 . S
H945 C920 0.950 . S
H946 C922 0.950 . S
H947 C923 0.949 . S
H948 C925 0.950 . S
H949 C927 0.950 . S
C950 C951 1.349 . S
C950 C952 1.327 . S
C950 H975 0.950 . S
C951 C950 1.349 . S
C951 C967 1.349 . S
C952 C950 1.327 . S
C952 C971 1.429 . S
C952 H976 0.950 . S
C953 C970 1.574 1_655 S
C953 C972 1.368 . S
C953 H977 0.949 . S
H954 C958 0.949 . S
C955 C956 1.349 . S
C955 C957 1.327 . S
C955 H978 0.950 . S
C956 C955 1.349 . S
C956 C968 1.349 . S
C957 C955 1.327 . S
C957 C973 1.429 . S
C957 H979 0.950 . S
C958 H954 0.949 . S
C958 C966 1.574 1_455 S
C958 C974 1.368 . S
H959 C967 0.950 . S
H960 C965 0.950 . S
H961 C966 0.949 . S
H962 C968 0.950 . S
H963 C969 0.950 . S
H964 C970 0.949 . S
C965 H960 0.950 . S
C965 C967 1.327 . S
C965 C971 1.429 . S
C966 C958 1.574 1_655 S
C966 H961 0.949 . S
C966 C972 1.368 . S
C967 C951 1.349 . S
C967 H959 0.950 . S
C967 C965 1.327 . S
C968 C956 1.349 . S
C968 H962 0.950 . S
C968 C969 1.327 . S
C969 H963 0.950 . S
C969 C968 1.327 . S
C969 C973 1.429 . S
C970 C953 1.574 1_455 S
C970 H964 0.949 . S
C970 C974 1.368 . S
C971 C952 1.429 . S
C971 C965 1.429 . S
C971 C972 1.523 . S
C972 C953 1.368 . S
C972 C966 1.368 . S
C972 C971 1.523 . S
C973 C957 1.429 . S
C973 C969 1.429 . S
C973 C974 1.523 . S
C974 C958 1.368 . S
C974 C970 1.368 . S
C974 C973 1.523 . S
H975 C950 0.950 . S
H976 C952 0.950 . S
H977 C953 0.949 . S
H978 C955 0.950 . S
H979 C957 0.950 . S
C980 C981 1.349 . S
C980 C982 1.327 . S
C980 H1005 0.950 . S
C981 C980 1.349 . S
C981 C997 1.349 . S
C982 C980 1.327 . S
C982 C1001 1.429 . S
C982 H1006 0.950 . S
C983 C1000 1.574 . S
C983 C1002 1.368 . S
C983 H1007 0.949 . S
H984 C988 0.949 . S
C985 C986 1.349 . S
C985 C987 1.327 . S
C985 H1008 0.950 . S
C986 C985 1.349 . S
C986 C998 1.349 . S
C987 C985 1.327 . S
C987 C1003 1.429 . S
C987 H1009 0.950 . S
C988 H984 0.949 . S
C988 C996 1.574 . S
C988 C1004 1.368 . S
H989 C997 0.950 . S
H990 C995 0.950 . S
H991 C996 0.949 . S
H992 C998 0.950 . S
H993 C999 0.950 . S
H994 C1000 0.949 . S
C995 H990 0.950 . S
C995 C997 1.327 . S
C995 C1001 1.429 . S
C996 C988 1.574 . S
C996 H991 0.949 . S
C996 C1002 1.368 . S
C997 C981 1.349 . S
C997 H989 0.950 . S
C997 C995 1.327 . S
C998 C986 1.349 . S
C998 H992 0.950 . S
C998 C999 1.327 . S
C999 H993 0.950 . S
C999 C998 1.327 . S
C999 C1003 1.429 . S
C1000 C983 1.574 . S
C1000 H994 0.949 . S
C1000 C1004 1.368 . S
C1001 C982 1.429 . S
C1001 C995 1.429 . S
C1001 C1002 1.523 . S
C1002 C983 1.368 . S
C1002 C996 1.368 . S
C1002 C1001 1.523 . S
C1003 C987 1.429 . S
C1003 C999 1.429 . S
C1003 C1004 1.523 . S
C1004 C988 1.368 . S
C1004 C1000 1.368 . S
C1004 C1003 1.523 . S
H1005 C980 0.950 . S
H1006 C982 0.950 . S
H1007 C983 0.949 . S
H1008 C985 0.950 . S
H1009 C987 0.950 . S
C1010 C1011 1.349 . S
C1010 C1012 1.327 . S
C1010 H1035 0.950 . S
C1011 C1010 1.349 . S
C1011 C1027 1.349 . S
C1012 C1010 1.327 . S
C1012 C1031 1.429 . S
C1012 H1036 0.950 . S
C1013 C1030 1.574 . S
C1013 C1032 1.368 . S
C1013 H1037 0.949 . S
H1014 C1018 0.949 . S
C1015 C1016 1.349 . S
C1015 C1017 1.327 . S
C1015 H1038 0.950 . S
C1016 C1015 1.349 . S
C1016 C1028 1.349 . S
C1017 C1015 1.327 . S
C1017 C1033 1.429 . S
C1017 H1039 0.950 . S
C1018 H1014 0.949 . S
C1018 C1026 1.574 . S
C1018 C1034 1.368 . S
H1019 C1027 0.950 . S
H1020 C1025 0.950 . S
H1021 C1026 0.949 . S
H1022 C1028 0.950 . S
H1023 C1029 0.950 . S
H1024 C1030 0.949 . S
C1025 H1020 0.950 . S
C1025 C1027 1.327 . S
C1025 C1031 1.429 . S
C1026 C1018 1.574 . S
C1026 H1021 0.949 . S
C1026 C1032 1.368 . S
C1027 C1011 1.349 . S
C1027 H1019 0.950 . S
C1027 C1025 1.327 . S
C1028 C1016 1.349 . S
C1028 H1022 0.950 . S
C1028 C1029 1.327 . S
C1029 H1023 0.950 . S
C1029 C1028 1.327 . S
C1029 C1033 1.429 . S
C1030 C1013 1.574 . S
C1030 H1024 0.949 . S
C1030 C1034 1.368 . S
C1031 C1012 1.429 . S
C1031 C1025 1.429 . S
C1031 C1032 1.523 . S
C1032 C1013 1.368 . S
C1032 C1026 1.368 . S
C1032 C1031 1.523 . S
C1033 C1017 1.429 . S
C1033 C1029 1.429 . S
C1033 C1034 1.523 . S
C1034 C1018 1.368 . S
C1034 C1030 1.368 . S
C1034 C1033 1.523 . S
H1035 C1010 0.950 . S
H1036 C1012 0.950 . S
H1037 C1013 0.949 . S
H1038 C1015 0.950 . S
H1039 C1017 0.950 . S
C321 C6 1.703 . S
C326 C295 1.702 . S
C351 C255 1.703 . S
C356 C46 1.702 . S
C381 C206 1.703 . S
C386 C95 1.702 . S
C411 C166 1.703 . S
C416 C135 1.702 . S
C441 C89 1.530 . S
C446 C9 1.542 . S
C471 C49 1.542 . S
C476 C129 1.530 . S
C501 C138 1.543 . S
C506 C58 1.530 . S
C531 C98 1.543 . S
C536 C18 1.530 . S
C561 C169 1.442 . S
C566 C249 1.443 . S
C591 C209 1.442 . S
C596 C289 1.443 . S
C621 C298 1.442 . S
C626 C218 1.442 . S
C651 C258 1.442 . S
C656 C178 1.442 . S
C681 C19 2.067 . S
C686 C10 2.067 . S
C711 C59 2.067 . S
C716 C50 2.067 . S
C741 C99 2.067 . S
C746 C90 2.067 . S
C771 C130 2.067 . S
C776 C139 2.067 . S
C801 C170 2.067 . S
C806 C179 2.067 . S
C831 C219 2.067 . S
C836 C210 2.067 . S
C861 C250 2.067 . S
C866 C259 2.067 . S
C891 C290 2.067 . S
C896 C299 2.067 . S
C921 C15 2.373 . S
C926 C55 2.373 . S
C951 C126 2.372 . S
C956 C86 2.372 . S
C981 C175 2.374 . S
C986 C215 2.374 . S
C1011 C286 2.374 . S
C1016 C246 2.374 . S
