# Generated by pormake.
# Topology wme, (6)-cn, num edge types: 1
# Building blocks:
#     Node 0, Type 0, BuildingBlock: MAKGUD_clean_sbu_1, # of connection points: 6
#     Node 1, Type 0, BuildingBlock: MAKGUD_clean_sbu_1, # of connection points: 6
#     Node 2, Type 0, BuildingBlock: MAKGUD_clean_sbu_1, # of connection points: 6
#     Node 3, Type 0, BuildingBlock: MAKGUD_clean_sbu_1, # of connection points: 6
#     Node 4, Type 0, BuildingBlock: MAKGUD_clean_sbu_1, # of connection points: 6
#     Node 5, Type 0, BuildingBlock: MAKGUD_clean_sbu_1, # of connection points: 6
#     Node 6, Type 0, BuildingBlock: MAKGUD_clean_sbu_1, # of connection points: 6
#     Node 7, Type 0, BuildingBlock: MAKGUD_clean_sbu_1, # of connection points: 6
#     Node 8, Type 0, BuildingBlock: MAKGUD_clean_sbu_1, # of connection points: 6
#     Node 9, Type 0, BuildingBlock: MAKGUD_clean_sbu_1, # of connection points: 6
#     Node 10, Type 0, BuildingBlock: MAKGUD_clean_sbu_1, # of connection points: 6
#     Node 11, Type 0, BuildingBlock: MAKGUD_clean_sbu_1, # of connection points: 6
#     Edge 12, Type (0, 0), BuildingBlock: AJUNOK_clean_linker_0, # of connection points: 2
#     Edge 13, Type (0, 0), BuildingBlock: AJUNOK_clean_linker_0, # of connection points: 2
#     Edge 14, Type (0, 0), BuildingBlock: AJUNOK_clean_linker_0, # of connection points: 2
#     Edge 15, Type (0, 0), BuildingBlock: AJUNOK_clean_linker_0, # of connection points: 2
#     Edge 16, Type (0, 0), BuildingBlock: AJUNOK_clean_linker_0, # of connection points: 2
#     Edge 17, Type (0, 0), BuildingBlock: AJUNOK_clean_linker_0, # of connection points: 2
#     Edge 18, Type (0, 0), BuildingBlock: AJUNOK_clean_linker_0, # of connection points: 2
#     Edge 19, Type (0, 0), BuildingBlock: AJUNOK_clean_linker_0, # of connection points: 2
#     Edge 20, Type (0, 0), BuildingBlock: AJUNOK_clean_linker_0, # of connection points: 2
#     Edge 21, Type (0, 0), BuildingBlock: AJUNOK_clean_linker_0, # of connection points: 2
#     Edge 22, Type (0, 0), BuildingBlock: AJUNOK_clean_linker_0, # of connection points: 2
#     Edge 23, Type (0, 0), BuildingBlock: AJUNOK_clean_linker_0, # of connection points: 2
#     Edge 24, Type (0, 0), BuildingBlock: AJUNOK_clean_linker_0, # of connection points: 2
#     Edge 25, Type (0, 0), BuildingBlock: AJUNOK_clean_linker_0, # of connection points: 2
#     Edge 26, Type (0, 0), BuildingBlock: AJUNOK_clean_linker_0, # of connection points: 2
#     Edge 27, Type (0, 0), BuildingBlock: AJUNOK_clean_linker_0, # of connection points: 2
#     Edge 28, Type (0, 0), BuildingBlock: AJUNOK_clean_linker_0, # of connection points: 2
#     Edge 29, Type (0, 0), BuildingBlock: AJUNOK_clean_linker_0, # of connection points: 2
#     Edge 30, Type (0, 0), BuildingBlock: AJUNOK_clean_linker_0, # of connection points: 2
#     Edge 31, Type (0, 0), BuildingBlock: AJUNOK_clean_linker_0, # of connection points: 2
#     Edge 32, Type (0, 0), BuildingBlock: AJUNOK_clean_linker_0, # of connection points: 2
#     Edge 33, Type (0, 0), BuildingBlock: AJUNOK_clean_linker_0, # of connection points: 2
#     Edge 34, Type (0, 0), BuildingBlock: AJUNOK_clean_linker_0, # of connection points: 2
#     Edge 35, Type (0, 0), BuildingBlock: AJUNOK_clean_linker_0, # of connection points: 2
#     Edge 36, Type (0, 0), BuildingBlock: AJUNOK_clean_linker_0, # of connection points: 2
#     Edge 37, Type (0, 0), BuildingBlock: AJUNOK_clean_linker_0, # of connection points: 2
#     Edge 38, Type (0, 0), BuildingBlock: AJUNOK_clean_linker_0, # of connection points: 2
#     Edge 39, Type (0, 0), BuildingBlock: AJUNOK_clean_linker_0, # of connection points: 2
#     Edge 40, Type (0, 0), BuildingBlock: AJUNOK_clean_linker_0, # of connection points: 2
#     Edge 41, Type (0, 0), BuildingBlock: AJUNOK_clean_linker_0, # of connection points: 2
#     Edge 42, Type (0, 0), BuildingBlock: AJUNOK_clean_linker_0, # of connection points: 2
#     Edge 43, Type (0, 0), BuildingBlock: AJUNOK_clean_linker_0, # of connection points: 2
#     Edge 44, Type (0, 0), BuildingBlock: AJUNOK_clean_linker_0, # of connection points: 2
#     Edge 45, Type (0, 0), BuildingBlock: AJUNOK_clean_linker_0, # of connection points: 2
#     Edge 46, Type (0, 0), BuildingBlock: AJUNOK_clean_linker_0, # of connection points: 2
#     Edge 47, Type (0, 0), BuildingBlock: AJUNOK_clean_linker_0, # of connection points: 2
# Relax obj value: 0.153
# Max RMSD: 0.292
# Mean RMSD: 0.292
data_MOF--net-wme--node1-MAKGUD_clean_sbu_1--edge1-AJUNOK_clean_linker_0
_symmetry_space_group_name_H-M    P1
_symmetry_Int_Tables_number       1
_symmetry_cell_setting            triclinic
loop_
_symmetry_equiv_pos_as_xyz
'x, y, z'
_cell_length_a     28.863391
_cell_length_b     29.106818
_cell_length_c     35.081546
_cell_angle_alpha  89.583095
_cell_angle_beta   90.336241
_cell_angle_gamma 119.88413
loop_
_atom_site_label
_atom_site_type_symbol
_atom_site_fract_x
_atom_site_fract_y
_atom_site_fract_z
_atom_type_partial_charge
O0 O 0.37345 0.55965 0.08808 0.0
Tb1 Tb 0.31241 0.48136 0.10706 0.0
C2 C 0.25848 0.39103 0.17523 0.0
O3 O 0.24166 0.36553 0.07995 0.0
Tb4 Tb 0.22212 0.29941 0.11705 0.0
C5 C 0.25374 0.231 0.09879 0.0
O6 O 0.31505 0.43655 0.05847 0.0
O7 O 0.13735 0.25157 0.12933 0.0
C8 C 0.10561 0.2302 0.09977 0.0
O9 O 0.12623 0.24554 0.0656 0.0
O10 O 0.27154 0.43771 0.15949 0.0
O11 O 0.27149 0.35768 0.1599 0.0
O12 O 0.26219 0.51761 0.10391 0.0
C13 C 0.28198 0.38568 0.05623 0.0
C14 C 0.40952 0.56652 0.11319 0.0
O15 O 0.2322 0.24992 0.07527 0.0
O16 O 0.25908 0.25225 0.13227 0.0
C17 C 0.26135 0.54309 0.13463 0.0
O18 O 0.28778 0.54175 0.16483 0.0
O19 O 0.39077 0.52503 0.13563 0.0
O20 O 0.87357 0.32966 0.58987 0.0
Tb21 Tb 0.89861 0.27472 0.60984 0.0
C22 C 0.92562 0.21732 0.68833 0.0
O23 O 0.95426 0.22535 0.59538 0.0
Tb24 Tb 0.97987 0.17825 0.62424 0.0
C25 C 0.08136 0.20296 0.61826 0.0
O26 O 0.94527 0.28052 0.55971 0.0
O27 O 0.93008 0.09373 0.61648 0.0
C28 C 0.92965 0.07227 0.58356 0.0
O29 O 0.95465 0.10355 0.55455 0.0
O30 O 0.90859 0.24344 0.66579 0.0
O31 O 0.95288 0.19343 0.67812 0.0
O32 O 0.81281 0.2212 0.60613 0.0
C33 C 0.96902 0.25333 0.56417 0.0
C34 C 0.90507 0.36893 0.61151 0.0
O35 O 1.05734 0.20063 0.6502 0.0
O36 O 1.04837 0.19287 0.58993 0.0
C37 C 0.78327 0.21773 0.63575 0.0
O38 O 0.80753 0.24028 0.66776 0.0
O39 O 0.93255 0.35492 0.63354 0.0
O40 O 0.55987 0.87344 0.10404 0.0
Tb41 Tb 0.64087 0.89584 0.12267 0.0
C42 C 0.73439 0.9003 0.18724 0.0
O43 O 0.74539 0.93982 0.09902 0.0
Tb44 Tb 0.81566 0.93679 0.11234 0.0
C45 C 0.90521 1.03013 0.11002 0.0
O46 O 0.68264 0.9527 0.0771 0.0
O47 O 0.81368 0.86978 0.08321 0.0
C48 C 0.84356 0.84718 0.08669 0.0
O49 O 0.82893 0.80394 0.06685 0.0
O50 O 0.68952 0.89838 0.17362 0.0
O51 O 0.77873 0.9104 0.16838 0.0
O52 O 0.61213 0.81286 0.10977 0.0
C53 C 0.73208 0.9647 0.07403 0.0
C54 C 0.54792 0.89557 0.13131 0.0
O55 O 0.86817 1.01145 0.08388 0.0
O56 O 0.89202 0.99558 0.13768 0.0
C57 C 0.58842 0.7775 0.13712 0.0
O58 O 0.59059 0.79457 0.172 0.0
O59 O 0.58867 0.91777 0.15472 0.0
O60 O 0.75111 0.52588 0.57484 0.0
Tb61 Tb 0.81027 0.60265 0.59741 0.0
C62 C 0.85976 0.6846 0.66616 0.0
O63 O 0.89365 0.72279 0.56948 0.0
Tb64 Tb 0.9122 0.78122 0.61332 0.0
C65 C 0.89562 0.86044 0.59527 0.0
O66 O 0.81194 0.65549 0.55279 0.0
O67 O 0.99145 0.81452 0.6382 0.0
C68 C 1.03264 0.82619 0.61622 0.0
O69 O 1.02354 0.8084 0.5811 0.0
O70 O 0.84331 0.63638 0.65327 0.0
O71 O 0.84995 0.71757 0.64665 0.0
O72 O 0.86365 0.571 0.59044 0.0
C73 C 0.85019 0.70469 0.5485 0.0
C74 C 0.71305 0.51739 0.59835 0.0
O75 O 0.91918 0.84214 0.57359 0.0
O76 O 0.88028 0.8331 0.62688 0.0
C77 C 0.87114 0.54697 0.61982 0.0
O78 O 0.8508 0.54821 0.65292 0.0
O79 O 0.72993 0.5571 0.62189 0.0
O80 O 0.21245 0.73756 0.09977 0.0
Tb81 Tb 0.21408 0.80592 0.12655 0.0
C82 C 0.19578 0.86818 0.19119 0.0
O83 O 0.16772 0.87582 0.07328 0.0
Tb84 Tb 0.15409 0.91062 0.12362 0.0
C85 C 1.05579 0.89882 0.1292 0.0
O86 O 0.1544 0.79189 0.08281 0.0
O87 O 0.20905 0.99478 0.11764 0.0
C88 C 0.21521 1.01935 0.08493 0.0
O89 O 0.19064 0.99134 0.0546 0.0
O90 O 0.17493 0.82235 0.17343 0.0
O91 O 0.19188 0.90805 0.17673 0.0
O92 O 0.30016 0.86121 0.1209 0.0
C93 C 0.14126 0.82468 0.06634 0.0
C94 C 0.21 0.71216 0.13095 0.0
O95 O 0.09772 0.93968 0.11506 0.0
O96 O 0.06924 0.8639 0.13997 0.0
C97 C 0.33227 0.86413 0.14908 0.0
O98 O 0.31069 0.84287 0.18209 0.0
O99 O 0.20908 0.73943 0.15997 0.0
O100 O 0.55344 0.20223 0.59707 0.0
Tb101 Tb 0.47834 0.18851 0.62115 0.0
C102 C 0.41116 0.17697 0.69513 0.0
O103 O 0.35112 0.1339 0.58153 0.0
Tb104 Tb 0.31983 0.1127 0.63903 0.0
C105 C 0.23799 1.01348 0.64257 0.0
O106 O 0.42391 0.12249 0.58518 0.0
O107 O 0.285 0.16381 0.63923 0.0
C108 C 0.25622 0.1618 0.60939 0.0
O109 O 0.25312 0.13172 0.58064 0.0
O110 O 0.45145 0.2085 0.67321 0.0
O111 O 0.37726 0.1284 0.68439 0.0
O112 O 0.50923 0.26919 0.60066 0.0
C113 C 0.38092 0.11601 0.56724 0.0
C114 C 0.56761 0.18283 0.62532 0.0
O115 O 0.28031 1.0294 0.62149 0.0
O116 O 0.24234 0.05339 0.66188 0.0
C117 C 0.54101 0.30634 0.62471 0.0
O118 O 0.54913 0.29178 0.65844 0.0
O119 O 0.53138 0.16682 0.65206 0.0
O120 O 0.56667 0.69257 0.43719 0.0
Tb121 Tb 0.64166 0.75093 0.41095 0.0
C122 C 0.71712 0.81211 0.34044 0.0
O123 O 0.76326 0.83559 0.4378 0.0
Tb124 Tb 0.81862 0.8644 0.39056 0.0
C125 C 0.90498 0.85448 0.39816 0.0
O126 O 0.70119 0.74931 0.44832 0.0
O127 O 0.84531 0.94686 0.3782 0.0
C128 C 0.86078 0.98008 0.4069 0.0
O129 O 0.84988 0.96031 0.44162 0.0
O130 O 0.66844 0.78747 0.35475 0.0
O131 O 0.75475 0.80474 0.35567 0.0
O132 O 0.61324 0.80542 0.42419 0.0
C133 C 0.74944 0.78953 0.45366 0.0
C134 C 0.5532 0.65622 0.41141 0.0
O135 O 0.88066 0.86353 0.42581 0.0
O136 O 0.87979 0.84986 0.36618 0.0
C137 C 0.58437 0.81176 0.39765 0.0
O138 O 0.57724 0.78733 0.36499 0.0
O139 O 0.59003 0.67323 0.38513 0.0
O140 O 0.88235 0.55849 0.9292 0.0
Tb141 Tb 0.89857 0.63174 0.9001 0.0
C142 C 0.92207 0.71374 0.82668 0.0
O143 O 0.93264 0.73533 0.94829 0.0
Tb144 Tb 0.9511 0.79078 0.90195 0.0
C145 C 1.04268 0.88036 0.91642 0.0
O146 O 0.96501 0.68087 0.93717 0.0
O147 O 0.89472 0.81953 0.89591 0.0
C148 C 0.87988 0.83541 0.92615 0.0
O149 O 0.88986 0.82247 0.95992 0.0
O150 O 0.90915 0.6677 0.84345 0.0
O151 O 0.93831 0.75994 0.84382 0.0
O152 O 0.81513 0.6078 0.91086 0.0
C153 C 0.96754 0.7204 0.95627 0.0
C154 C 0.89519 0.53802 0.9013 0.0
O155 O 1.03871 0.84178 0.89524 0.0
O156 O 0.99568 0.86795 0.92877 0.0
C157 C 0.78049 0.58478 0.88284 0.0
O158 O 0.79911 0.58609 0.84853 0.0
O159 O 0.91001 0.57054 0.8723 0.0
O160 O 0.38578 0.84648 0.44169 0.0
Tb161 Tb 0.32738 0.86363 0.41571 0.0
C162 C 0.2805 0.89605 0.34596 0.0
O163 O 0.2557 0.92114 0.4423 0.0
Tb164 Tb 0.23892 0.95594 0.39321 0.0
C165 C 0.26431 0.05713 0.39469 0.0
O166 O 0.33531 0.92536 0.45457 0.0
O167 O 0.15346 0.90719 0.38381 0.0
C168 C 0.1224 0.89586 0.41379 0.0
O169 O 0.14529 0.91052 0.4474 0.0
O170 O 0.29403 0.86205 0.35937 0.0
O171 O 0.29583 0.94063 0.36414 0.0
O172 O 0.27184 0.78005 0.42644 0.0
C173 C 0.30324 0.94505 0.45818 0.0
C174 C 0.4219 0.86863 0.41542 0.0
O175 O 0.25783 1.02768 0.42463 0.0
O176 O 0.25763 1.02964 0.36388 0.0
C177 C 0.26651 0.74715 0.39887 0.0
O178 O 0.29127 0.76721 0.36651 0.0
O179 O 0.40459 0.88787 0.38879 0.0
O180 O 0.55799 0.37265 0.93324 0.0
Tb181 Tb 0.47521 0.31616 0.91825 0.0
C182 C 0.38494 0.24345 0.8466 0.0
O183 O 0.36745 0.25914 0.93972 0.0
Tb184 Tb 0.29281 0.20795 0.91299 0.0
C185 C 0.21684 0.23437 0.90909 0.0
O186 O 0.4343 0.32798 0.96569 0.0
O187 O 0.25507 0.12192 0.91908 0.0
C188 C 0.21337 0.09655 0.94154 0.0
O189 O 0.20054 0.12467 0.96363 0.0
O190 O 0.42993 0.27537 0.8658 0.0
O191 O 0.33476 0.21861 0.85939 0.0
O192 O 0.50255 0.25968 0.92813 0.0
C193 C 0.38312 0.2961 0.96558 0.0
C194 C 0.5661 0.40799 0.90738 0.0
O195 O 0.23518 0.22489 0.94043 0.0
O196 O 0.24271 0.23059 0.88008 0.0
C197 C 0.52328 0.24755 0.89918 0.0
O198 O 0.52099 0.2655 0.86517 0.0
O199 O 0.52265 0.39144 0.88704 0.0
O200 O 0.23288 0.51261 0.43848 0.0
Tb201 Tb 0.21533 0.43828 0.41171 0.0
C202 C 0.19471 0.36896 0.33523 0.0
O203 O 0.17047 0.31619 0.44142 0.0
Tb204 Tb 0.1467 0.27067 0.38918 0.0
C205 C 1.04768 0.18775 0.39249 0.0
O206 O 0.15122 0.38228 0.44852 0.0
O207 O 0.20085 0.2408 0.37747 0.0
C208 C 0.22817 0.23482 0.40532 0.0
O209 O 0.22812 0.25447 0.43887 0.0
O210 O 0.2241 0.41229 0.35522 0.0
O211 O 0.1499 0.32935 0.34856 0.0
O212 O 0.29902 0.46555 0.42449 0.0
C213 C 0.14029 0.33367 0.45575 0.0
C214 C 0.21185 0.52814 0.41214 0.0
O215 O 0.07897 0.20993 0.42154 0.0
O216 O 0.07227 0.21243 0.36154 0.0
C217 C 0.33323 0.49409 0.39752 0.0
O218 O 0.31446 0.50221 0.36555 0.0
O219 O 0.19259 0.49277 0.38511 0.0
O220 O 0.72578 0.2151 0.93931 0.0
Tb221 Tb 0.78551 0.20087 0.91303 0.0
C222 C 0.84122 0.1782 0.84391 0.0
O223 O 0.86769 0.15778 0.94531 0.0
Tb224 Tb 0.88822 0.1264 0.89635 0.0
C225 C 0.86733 1.02706 0.90655 0.0
O226 O 0.78193 0.14047 0.95263 0.0
O227 O 0.97212 0.17659 0.88231 0.0
C228 C 1.00537 0.20923 0.908 0.0
O229 O 0.98561 0.21694 0.93936 0.0
O230 O 0.82189 0.2074 0.85723 0.0
O231 O 0.82983 0.13379 0.86155 0.0
O232 O 0.83726 0.28563 0.92242 0.0
C233 C 0.82035 0.13012 0.96106 0.0
C234 C 0.68962 0.19317 0.91294 0.0
O235 O 0.88109 0.06258 0.93311 0.0
O236 O 0.86485 0.04754 0.87396 0.0
C237 C 0.83676 0.31666 0.89494 0.0
O238 O 0.80817 0.29422 0.86431 0.0
O239 O 0.70744 0.17509 0.88615 0.0
C240 C 0.22534 0.1019 0.05484 0.0
C241 C 0.23837 0.07768 0.08463 0.0
C242 C 0.23503 0.15393 0.05816 0.0
C243 C 0.25805 0.18343 0.09139 0.0
H244 H 0.20393 0.07933 0.03001 0.0
H245 H 0.2208 0.16961 0.03575 0.0
S246 S 0.31089 0.14284 0.17366 0.0
N247 N 0.28413 0.09061 0.14549 0.0
N248 N 0.30199 0.18826 0.15174 0.0
C249 C 0.27649 0.16184 0.11955 0.0
C250 C 0.26669 0.1089 0.11618 0.0
C251 C 0.20351 0.19391 0.64588 0.0
C252 C 0.21984 0.18399 0.61063 0.0
C253 C 0.16075 0.20391 0.64807 0.0
C254 C 0.13325 0.20473 0.61507 0.0
H255 H 0.22149 0.19058 0.67219 0.0
H256 H 0.14728 0.20798 0.67594 0.0
S257 S 0.16621 0.19035 0.51546 0.0
N258 N 0.20936 0.18234 0.54169 0.0
N259 N 0.12974 0.20174 0.54585 0.0
C260 C 0.15221 0.19957 0.57949 0.0
C261 C 0.19532 0.18899 0.57727 0.0
C262 C 0.99014 0.10204 0.13923 0.0
C263 C 0.95455 0.08268 0.10814 0.0
C264 C 1.03774 0.15126 0.1372 0.0
C265 C 1.0516 0.18269 0.1039 0.0
H266 H 0.98157 0.07872 0.16512 0.0
H267 H 0.0647 0.16375 0.16141 0.0
S268 S 0.9704 0.15075 0.01534 0.0
N269 N 0.93553 0.09954 0.04366 0.0
N270 N 1.02411 0.19169 0.03988 0.0
C271 C 1.01539 0.16429 0.07311 0.0
C272 C 0.96715 0.11439 0.0752 0.0
C273 C 0.8775 0.93113 0.61694 0.0
C274 C 0.89432 0.90976 0.58797 0.0
C275 C 0.88572 0.98265 0.61399 0.0
C276 C 0.91116 1.01476 0.58199 0.0
H277 H 0.86046 0.90905 0.64302 0.0
H278 H 0.87443 0.99825 0.63793 0.0
S279 S 0.95503 0.97367 0.49563 0.0
N280 N 0.93122 0.9216 0.52423 0.0
N281 N 0.94754 1.01876 0.51874 0.0
C282 C 0.92422 0.99213 0.55145 0.0
C283 C 0.91561 0.9395 0.55445 0.0
C284 C 0.99073 0.92848 0.10901 0.0
C285 C 1.00043 0.89058 0.1272 0.0
C286 C 0.93838 0.91727 0.10002 0.0
C287 C 0.89386 0.86787 0.10909 0.0
H288 H 1.02393 0.96575 0.09932 0.0
H289 H 0.93329 0.94563 0.08303 0.0
S290 S 0.89675 0.75877 0.16246 0.0
N291 N 0.96033 0.80452 0.15832 0.0
N292 N 0.86261 0.78359 0.14151 0.0
C293 C 0.90292 0.83183 0.13035 0.0
C294 C 0.95597 0.84309 0.13939 0.0
C295 C 0.13037 0.88299 0.60215 0.0
C296 C 0.0874 0.86802 0.62753 0.0
C297 C 0.18015 0.92851 0.60841 0.0
C298 C 0.18877 0.96107 0.64012 0.0
H299 H 0.12498 0.86076 0.57628 0.0
H300 H 0.21113 0.9397 0.58717 0.0
S301 S 0.09244 0.93615 0.71795 0.0
N302 N 1.05922 0.88681 0.68797 0.0
N303 N 0.15241 0.97261 0.69922 0.0
C304 C 0.14749 0.94494 0.66695 0.0
C305 C 0.09694 0.89831 0.66083 0.0
C306 C 1.04202 0.87526 0.37352 0.0
C307 C 0.06414 0.87619 0.40961 0.0
C308 C 0.98929 0.86534 0.36976 0.0
C309 C 0.95696 0.85632 0.40195 0.0
H310 H 0.06623 0.8846 0.34808 0.0
H311 H 0.97471 0.86731 0.34161 0.0
S312 S 0.99252 0.84617 0.50207 0.0
N313 N 1.04685 0.8606 0.47769 0.0
N314 N 0.94856 0.84313 0.47047 0.0
C315 C 0.97733 0.85382 0.43784 0.0
C316 C 1.03069 0.86341 0.4417 0.0
C317 C 0.08762 0.96352 0.95366 0.0
C318 C 0.09097 0.93203 0.92482 0.0
C319 C 0.12896 1.01521 0.96022 0.0
C320 C 0.17546 0.03851 0.93774 0.0
H321 H 1.05181 0.94884 0.97071 0.0
H322 H 0.12304 0.03776 0.98217 0.0
S323 S 0.20595 0.97142 0.86014 0.0
N324 N 0.14605 0.92623 0.87517 0.0
N325 N 0.22389 1.02431 0.88677 0.0
C326 C 0.1806 1.00663 0.90981 0.0
C327 C 0.13833 0.95326 0.90348 0.0
C328 C 0.23932 0.16875 0.36671 0.0
C329 C 0.24849 0.19702 0.401 0.0
C330 C 0.24823 0.12566 0.36409 0.0
C331 C 0.26625 0.1089 0.3957 0.0
H332 H 0.22257 0.17814 0.34217 0.0
H333 H 0.23784 0.10346 0.33775 0.0
S334 S 0.30629 0.17505 0.48962 0.0
N335 N 0.28453 0.20957 0.46553 0.0
N336 N 0.29993 0.12788 0.46057 0.0
C337 C 0.27956 0.13911 0.42914 0.0
C338 C 0.2711 0.18339 0.43177 0.0
C339 C 0.14437 0.24333 0.94033 0.0
C340 C 0.16772 0.23832 0.90672 0.0
C341 C 0.09324 0.23779 0.93995 0.0
C342 C 0.06309 0.2261 0.90605 0.0
H343 H 0.16479 0.24941 0.96743 0.0
H344 H 0.07616 0.23967 0.96689 0.0
S345 S 0.10916 0.21616 0.80953 0.0
N346 N 0.15938 0.2269 0.83794 0.0
N347 N 0.06286 0.21545 0.83736 0.0
C348 C 0.08744 0.22443 0.87187 0.0
C349 C 0.13987 0.23082 0.87218 0.0
C350 C 0.97096 0.11912 0.42995 0.0
C351 C 0.99498 0.13882 0.39436 0.0
C352 C 0.92476 0.06937 0.43326 0.0
C353 C 0.90134 1.03687 0.4012 0.0
H354 H 0.98891 0.14152 0.45568 0.0
H355 H 0.90886 0.05536 0.4615 0.0
S356 S 0.94498 0.07369 0.30075 0.0
N357 N 0.98881 0.12497 0.32583 0.0
N358 N 0.90255 1.031 0.33201 0.0
C359 C 0.92291 0.05783 0.36507 0.0
C360 C 0.9697 0.10887 0.36168 0.0
C361 C 0.86087 0.89596 0.8857 0.0
C362 C 0.86651 0.87859 0.92219 0.0
C363 C 0.85838 0.94271 0.88082 0.0
C364 C 0.8617 0.97399 0.91221 0.0
H365 H 0.86064 0.87456 0.8605 0.0
H366 H 0.85624 0.95558 0.85214 0.0
S367 S 0.87156 0.94432 0.01368 0.0
N368 N 0.87101 0.895 0.99046 0.0
N369 N 0.8666 0.98252 0.98099 0.0
C370 C 0.86421 0.95567 0.94884 0.0
C371 C 0.86648 0.90806 0.95392 0.0
C372 C 0.22112 0.64181 0.09871 0.0
C373 C 0.2151 0.66391 0.13265 0.0
C374 C 0.23288 0.6004 0.09941 0.0
C375 C 0.23937 0.57972 0.1341 0.0
H376 H 0.21867 0.65789 0.07132 0.0
H377 H 0.23949 0.58638 0.07259 0.0
S378 S 0.22099 0.61926 0.23091 0.0
N379 N 0.21156 0.65868 0.20178 0.0
N380 N 0.23357 0.58108 0.2033 0.0
C381 C 0.23038 0.59947 0.16821 0.0
C382 C 0.21828 0.64149 0.16744 0.0
C383 C 0.69365 0.1894 0.66457 0.0
C384 C 0.72525 0.19921 0.63169 0.0
C385 C 0.64142 0.18121 0.66228 0.0
C386 C 0.61917 0.18333 0.62706 0.0
H387 H 0.71004 0.18993 0.69253 0.0
H388 H 0.6194 0.17578 0.68841 0.0
S389 S 0.6826 0.20239 0.53212 0.0
N390 N 0.72824 0.20609 0.56249 0.0
N391 N 0.63072 0.19152 0.55828 0.0
C392 C 0.64914 0.19033 0.59382 0.0
C393 C 0.70198 0.19796 0.59609 0.0
C394 C 0.53023 0.68324 0.15839 0.0
C395 C 0.55026 0.72084 0.12846 0.0
C396 C 0.4867 0.63193 0.15281 0.0
C397 C 0.46109 0.61661 0.11724 0.0
H398 H 0.54688 0.69418 0.18682 0.0
H399 H 0.47121 0.60523 0.17702 0.0
S400 S 0.50146 0.69722 0.02844 0.0
N401 N 0.54398 0.73671 0.06095 0.0
N402 N 0.46192 0.64095 0.05073 0.0
C403 C 0.48264 0.65252 0.08656 0.0
C404 C 0.52735 0.70444 0.09207 0.0
C405 C 0.90945 0.49341 0.64674 0.0
C406 C 0.89101 0.50939 0.61478 0.0
C407 C 0.91758 0.44978 0.64498 0.0
C408 C 0.90646 0.4202 0.6114 0.0
H409 H 0.91537 0.5133 0.67381 0.0
H410 H 0.92941 0.43727 0.67062 0.0
S411 S 0.86359 0.44896 0.51865 0.0
N412 N 0.86715 0.49512 0.54756 0.0
N413 N 0.88133 0.41261 0.54452 0.0
C414 C 0.89128 0.43765 0.57866 0.0
C415 C 0.88394 0.48253 0.58024 0.0
C416 C 0.47727 0.90161 0.16985 0.0
C417 C 0.49536 0.89385 0.13463 0.0
C418 C 0.42541 0.89447 0.17381 0.0
C419 C 0.38979 0.88045 0.14258 0.0
H420 H 0.5025 0.91115 0.19488 0.0
H421 H 0.4126 0.89863 0.20191 0.0
S422 S 0.41939 0.85945 0.04347 0.0
N423 N 0.47435 0.87388 0.06745 0.0
N424 N 0.37807 0.86175 0.07473 0.0
C425 C 0.40851 0.87516 0.10684 0.0
C426 C 0.46086 0.88145 0.10296 0.0
C427 C 0.63294 0.45327 0.63535 0.0
C428 C 0.66198 0.46687 0.60117 0.0
C429 C 0.59051 0.40174 0.6415 0.0
C430 C 0.57496 0.36236 0.61343 0.0
H431 H 0.64518 0.48151 0.65844 0.0
H432 H 0.57152 0.39188 0.66923 0.0
S433 S 0.63348 0.38 0.51708 0.0
N434 N 0.66896 0.43851 0.53742 0.0
N435 N 0.58848 0.34184 0.5489 0.0
C436 C 0.60072 0.37665 0.57798 0.0
C437 C 0.64454 0.42893 0.5719 0.0
C438 C 0.49661 0.87131 0.37848 0.0
C439 C 0.47087 0.86468 0.41357 0.0
C440 C 0.53647 0.85764 0.37434 0.0
C441 C 0.55255 0.83768 0.40527 0.0
H442 H 0.48368 0.884 0.35347 0.0
H443 H 0.553 0.86031 0.34622 0.0
S444 S 0.50283 0.82039 0.50447 0.0
N445 N 0.46801 0.8423 0.48079 0.0
N446 N 0.54357 0.81731 0.47305 0.0
C447 C 0.53028 0.83512 0.44123 0.0
C448 C 0.48914 0.84837 0.44535 0.0
C449 C 0.708 0.51942 0.92576 0.0
C450 C 0.7231 0.54667 0.8907 0.0
C451 C 0.65661 0.47559 0.93109 0.0
C452 C 0.61789 0.45777 0.90186 0.0
H453 H 0.73693 0.53003 0.9486 0.0
H454 H 0.64761 0.45464 0.9581 0.0
S455 S 0.63535 0.51842 0.80595 0.0
N456 N 0.69379 0.55464 0.82706 0.0
N457 N 0.59703 0.47313 0.83753 0.0
C458 C 0.63138 0.48644 0.86745 0.0
C459 C 0.68399 0.53061 0.86177 0.0
C460 C 0.22387 0.65529 0.3732 0.0
C461 C 0.2419 0.68921 0.405 0.0
C462 C 0.21087 0.60209 0.3762 0.0
C463 C 0.21627 0.58106 0.41101 0.0
H464 H 0.22192 0.67056 0.34533 0.0
H465 H 0.19941 0.57821 0.35063 0.0
S466 S 0.25644 0.65143 0.50363 0.0
N467 N 0.25988 0.69647 0.4731 0.0
N468 N 0.23625 0.59674 0.4787 0.0
C469 C 0.23118 0.61357 0.4435 0.0
C470 C 0.2437 0.66759 0.44053 0.0
C471 C 0.61519 0.19331 0.87623 0.0
C472 C 0.64026 0.19674 0.91134 0.0
C473 C 0.5748 0.20664 0.87307 0.0
C474 C 0.55761 0.22336 0.90497 0.0
H475 H 0.62889 0.18322 0.85061 0.0
H476 H 0.5586 0.20603 0.84502 0.0
S477 S 0.60545 0.23118 1.00445 0.0
N478 N 0.64137 0.21246 0.97938 0.0
N479 N 0.56515 0.23687 0.9736 0.0
C480 C 0.57959 0.2229 0.94077 0.0
C481 C 0.62108 0.20985 0.94389 0.0
C482 C 0.41186 0.55238 0.43838 0.0
C483 C 0.39154 0.525 0.40403 0.0
C484 C 0.46539 0.59307 0.44118 0.0
C485 C 0.50044 0.60716 0.4099 0.0
H486 H 0.38542 0.54516 0.46227 0.0
H487 H 0.47865 0.61531 0.46747 0.0
S488 S 0.46829 0.54171 0.31554 0.0
N489 N 0.41166 0.51073 0.33949 0.0
N490 N 0.51228 0.58632 0.345 0.0
C491 C 0.4816 0.57704 0.37649 0.0
C492 C 0.42708 0.53617 0.37351 0.0
C493 C 0.88888 0.46008 0.86693 0.0
C494 C 0.88817 0.48387 0.90144 0.0
C495 C 0.87523 0.40659 0.86562 0.0
C496 C 0.86115 0.37495 0.89884 0.0
H497 H 0.89766 0.48218 0.84043 0.0
H498 H 0.87392 0.38938 0.83808 0.0
S499 S 0.8582 0.41974 0.99696 0.0
N500 N 0.87582 0.47276 0.97012 0.0
N501 N 0.85092 0.37246 0.9676 0.0
C502 C 0.86344 0.39908 0.93385 0.0
C503 C 0.87666 0.45346 0.93514 0.0
C504 C 0.23455 0.4219 0.27592 0.0
C505 C 0.20731 0.37196 0.29389 0.0
C506 C 0.25013 0.42723 0.23772 0.0
C507 C 0.24005 0.38295 0.21562 0.0
H508 H 0.2441 0.45759 0.29147 0.0
H509 H 0.27123 0.46683 0.22574 0.0
S510 S 0.16923 0.24296 0.24879 0.0
N511 N 0.16994 0.27701 0.2865 0.0
N512 N 0.19997 0.28699 0.21453 0.0
C513 C 0.21248 0.33256 0.23306 0.0
C514 C 0.19583 0.32707 0.27211 0.0
C515 C 0.901 0.166 0.75015 0.0
C516 C 0.90911 0.211 0.72919 0.0
C517 C 0.88042 0.15629 0.78744 0.0
C518 C 0.86727 0.19129 0.80555 0.0
H519 H 0.90886 0.13689 0.73723 0.0
H520 H 0.87365 0.1204 0.80178 0.0
S521 S 0.88732 0.31848 0.7649 0.0
N522 N 0.90659 0.29316 0.7307 0.0
N523 N 0.86868 0.27559 0.80048 0.0
C524 C 0.87763 0.23778 0.78552 0.0
C525 C 0.89822 0.2474 0.74749 0.0
C526 C 0.68394 0.85794 0.24751 0.0
C527 C 0.73304 0.88439 0.22814 0.0
C528 C 0.67986 0.83593 0.28382 0.0
C529 C 0.72463 0.83916 0.30279 0.0
H530 H 0.64763 0.85249 0.2342 0.0
H531 H 0.64057 0.81502 0.29662 0.0
S532 S 0.86429 0.9111 0.26765 0.0
N533 N 0.82906 0.91772 0.23301 0.0
N534 N 0.82079 0.87574 0.30108 0.0
C535 C 0.77456 0.86786 0.28484 0.0
C536 C 0.77891 0.8906 0.2477 0.0
C537 C 0.88715 0.65819 0.72637 0.0
C538 C 0.88215 0.69708 0.70559 0.0
C539 C 0.90254 0.66523 0.7647 0.0
C540 C 0.91396 0.71171 0.78442 0.0
H541 H 0.87764 0.62084 0.71338 0.0
H542 H 0.90399 0.63298 0.77914 0.0
S543 S 0.91428 0.82933 0.74172 0.0
N544 N 0.89521 0.78629 0.70651 0.0
N545 N 0.92421 0.79991 0.77875 0.0
C546 C 0.91239 0.75253 0.76338 0.0
C547 C 0.89647 0.74518 0.72404 0.0
C548 C 0.23468 0.92171 0.25047 0.0
C549 C 0.21432 0.87282 0.23142 0.0
C550 C 0.25417 0.92837 0.2879 0.0
C551 C 0.25452 0.88656 0.3079 0.0
H552 H 0.23646 0.95569 0.23624 0.0
H553 H 0.27042 0.96711 0.30078 0.0
S554 S 0.20238 0.74932 0.27238 0.0
N555 N 0.19339 0.78101 0.23648 0.0
N556 N 0.22982 0.79342 0.30669 0.0
C557 C 0.2329 0.83698 0.2897 0.0
C558 C 0.21298 0.83017 0.25154 0.0
C559 C 0.3531 0.18075 0.79139 0.0
C560 C 0.39164 0.22968 0.80696 0.0
C561 C 0.35989 0.16423 0.75546 0.0
C562 C 0.40541 0.19592 0.73325 0.0
H563 H 0.31771 0.15405 0.80744 0.0
H564 H 0.32907 0.12605 0.74516 0.0
S565 S 0.51703 0.3292 0.75977 0.0
N566 N 0.47611 0.31076 0.79654 0.0
N567 N 0.48901 0.27998 0.72909 0.0
C568 C 0.44386 0.24556 0.74808 0.0
C569 C 0.43699 0.2623 0.78485 0.0
C570 C 0.31375 0.32313 0.9736 0.0
C571 C 0.34867 0.30792 0.98993 0.0
C572 C 0.2887 0.34439 0.996 0.0
C573 C 0.29974 0.35345 0.03521 0.0
H574 H 0.30832 0.32165 0.94299 0.0
H575 H 0.26304 0.35676 0.98214 0.0
S576 S 0.39404 0.32759 0.09065 0.0
N577 N 0.3951 0.3061 0.04738 0.0
N578 N 0.35172 0.35021 0.08865 0.0
C579 C 0.3361 0.34032 0.05158 0.0
C580 C 0.35976 0.31669 0.02915 0.0
C581 C 1.04477 0.27262 0.47266 0.0
C582 C 0.09841 0.30265 0.48427 0.0
C583 C 1.00298 0.25223 0.49939 0.0
C584 C 1.01325 0.26181 0.53864 0.0
H585 H 1.03481 0.26739 0.44261 0.0
H586 H 0.96214 0.23152 0.48907 0.0
S587 S 0.14661 0.3416 0.58328 0.0
N588 N 0.15955 0.34168 0.53745 0.0
N589 N 0.08095 0.30597 0.58743 0.0
C590 C 0.06674 0.29159 0.55058 0.0
C591 C 0.10932 0.31138 0.52344 0.0
C592 C 0.80223 0.05632 0.05456 0.0
C593 C 0.76673 1.00328 0.04457 0.0
C594 C 0.82306 0.09696 0.02677 0.0
C595 C 0.80826 0.08611 0.98816 0.0
H596 H 0.81133 0.06697 0.0843 0.0
H597 H 0.84822 0.13754 0.03592 0.0
S598 S 0.71798 0.95389 0.94709 0.0
N599 N 0.71969 0.94214 0.99309 0.0
N600 N 0.7572 1.01843 0.94133 0.0
C601 C 0.77417 1.03317 0.97772 0.0
C602 C 0.75381 0.99183 1.00581 0.0
C603 C 0.81349 0.7654 0.53939 0.0
C604 C 0.83836 0.73882 0.5239 0.0
C605 C 0.78955 0.78698 0.51581 0.0
C606 C 0.78726 0.78017 0.47609 0.0
H607 H 0.80947 0.7665 0.56997 0.0
H608 H 0.76905 0.80543 0.52896 0.0
S609 S 0.84176 0.70912 0.42181 0.0
N610 N 0.85833 0.70602 0.46653 0.0
N611 N 0.80915 0.74236 0.4225 0.0
C612 C 0.81134 0.75312 0.4603 0.0
C613 C 0.83768 0.73322 0.48416 0.0
C614 C 1.05064 0.73352 0.98878 0.0
C615 C 1.01327 0.75063 0.98279 0.0
C616 C 0.09277 0.75885 0.01486 0.0
C617 C 0.10023 0.80318 0.03564 0.0
H618 H 1.04688 0.6994 0.97383 0.0
H619 H 0.11942 0.74307 0.01904 0.0
S620 S 1.01431 0.8644 0.03066 0.0
N621 N 0.98625 0.81441 1.00061 0.0
N622 N 0.06755 0.86406 0.04779 0.0
C623 C 0.06442 0.82196 0.02909 0.0
C624 C 1.0204 0.79515 1.00324 0.0
C625 C 0.28655 1.00264 0.5028 0.0
C626 C 0.32226 0.99399 0.48099 0.0
C627 C 0.30546 0.04455 0.52908 0.0
C628 C 0.36069 0.07852 0.53482 0.0
H629 H 0.24392 0.97554 0.50082 0.0
H630 H 0.27668 0.04856 0.54631 0.0
S631 S 0.47007 0.07841 0.47994 0.0
N632 N 0.41501 1.02749 0.46313 0.0
N633 N 0.45026 0.10498 0.51291 0.0
C634 C 0.39641 0.07239 0.51129 0.0
C635 C 0.37728 1.03037 0.48437 0.0
loop_
_geom_bond_atom_site_label_1
_geom_bond_atom_site_label_2
_geom_bond_distance
_geom_bond_site_symmetry_2
_ccdc_geom_bond_type
O0 Tb1 2.506 . S
O0 C14 1.265 . S
Tb1 O0 2.506 . S
Tb1 O6 2.312 . S
Tb1 O10 2.271 . S
Tb1 O12 2.338 . S
Tb1 O19 2.441 . S
C2 O10 1.252 . S
C2 O11 1.253 . S
O3 Tb4 2.271 . S
O3 C13 1.252 . S
Tb4 O3 2.271 . S
Tb4 O7 2.338 . S
Tb4 O11 2.312 . S
Tb4 O15 2.441 . S
Tb4 O16 2.506 . S
C5 O15 1.244 . S
C5 O16 1.265 . S
O6 Tb1 2.312 . S
O6 C13 1.253 . S
O7 Tb4 2.338 . S
O7 C8 1.258 . S
C8 O7 1.258 . S
C8 O9 1.251 . S
O9 C8 1.251 . S
O10 Tb1 2.271 . S
O10 C2 1.252 . S
O11 C2 1.253 . S
O11 Tb4 2.312 . S
O12 Tb1 2.338 . S
O12 C17 1.258 . S
C13 O3 1.252 . S
C13 O6 1.253 . S
C14 O0 1.265 . S
C14 O19 1.244 . S
O15 Tb4 2.441 . S
O15 C5 1.244 . S
O16 Tb4 2.506 . S
O16 C5 1.265 . S
C17 O12 1.258 . S
C17 O18 1.251 . S
O18 C17 1.251 . S
O19 Tb1 2.441 . S
O19 C14 1.244 . S
O20 Tb21 2.506 . S
O20 C34 1.265 . S
Tb21 O20 2.506 . S
Tb21 O26 2.312 . S
Tb21 O30 2.271 . S
Tb21 O32 2.338 . S
Tb21 O39 2.441 . S
C22 O30 1.252 . S
C22 O31 1.253 . S
O23 Tb24 2.271 . S
O23 C33 1.252 . S
Tb24 O23 2.271 . S
Tb24 O27 2.338 . S
Tb24 O31 2.312 . S
Tb24 O35 2.441 . S
Tb24 O36 2.506 . S
C25 O35 1.244 . S
C25 O36 1.265 . S
O26 Tb21 2.312 . S
O26 C33 1.253 . S
O27 Tb24 2.338 . S
O27 C28 1.258 . S
C28 O27 1.258 . S
C28 O29 1.251 . S
O29 C28 1.251 . S
O30 Tb21 2.271 . S
O30 C22 1.252 . S
O31 C22 1.253 . S
O31 Tb24 2.312 . S
O32 Tb21 2.338 . S
O32 C37 1.258 . S
C33 O23 1.252 . S
C33 O26 1.253 . S
C34 O20 1.265 . S
C34 O39 1.244 . S
O35 Tb24 2.441 . S
O35 C25 1.244 . S
O36 Tb24 2.506 . S
O36 C25 1.265 . S
C37 O32 1.258 . S
C37 O38 1.251 . S
O38 C37 1.251 . S
O39 Tb21 2.441 . S
O39 C34 1.244 . S
O40 Tb41 2.506 . S
O40 C54 1.265 . S
Tb41 O40 2.506 . S
Tb41 O46 2.312 . S
Tb41 O50 2.271 . S
Tb41 O52 2.338 . S
Tb41 O59 2.441 . S
C42 O50 1.252 . S
C42 O51 1.253 . S
O43 Tb44 2.271 . S
O43 C53 1.252 . S
Tb44 O43 2.271 . S
Tb44 O47 2.338 . S
Tb44 O51 2.312 . S
Tb44 O55 2.441 . S
Tb44 O56 2.506 . S
C45 O55 1.244 . S
C45 O56 1.265 . S
O46 Tb41 2.312 . S
O46 C53 1.253 . S
O47 Tb44 2.338 . S
O47 C48 1.258 . S
C48 O47 1.258 . S
C48 O49 1.251 . S
O49 C48 1.251 . S
O50 Tb41 2.271 . S
O50 C42 1.252 . S
O51 C42 1.253 . S
O51 Tb44 2.312 . S
O52 Tb41 2.338 . S
O52 C57 1.258 . S
C53 O43 1.252 . S
C53 O46 1.253 . S
C54 O40 1.265 . S
C54 O59 1.244 . S
O55 Tb44 2.441 . S
O55 C45 1.244 . S
O56 Tb44 2.506 . S
O56 C45 1.265 . S
C57 O52 1.258 . S
C57 O58 1.251 . S
O58 C57 1.251 . S
O59 Tb41 2.441 . S
O59 C54 1.244 . S
O60 Tb61 2.506 . S
O60 C74 1.265 . S
Tb61 O60 2.506 . S
Tb61 O66 2.312 . S
Tb61 O70 2.271 . S
Tb61 O72 2.338 . S
Tb61 O79 2.441 . S
C62 O70 1.252 . S
C62 O71 1.253 . S
O63 Tb64 2.271 . S
O63 C73 1.252 . S
Tb64 O63 2.271 . S
Tb64 O67 2.338 . S
Tb64 O71 2.312 . S
Tb64 O75 2.441 . S
Tb64 O76 2.506 . S
C65 O75 1.244 . S
C65 O76 1.265 . S
O66 Tb61 2.312 . S
O66 C73 1.253 . S
O67 Tb64 2.338 . S
O67 C68 1.258 . S
C68 O67 1.258 . S
C68 O69 1.251 . S
O69 C68 1.251 . S
O70 Tb61 2.271 . S
O70 C62 1.252 . S
O71 C62 1.253 . S
O71 Tb64 2.312 . S
O72 Tb61 2.338 . S
O72 C77 1.258 . S
C73 O63 1.252 . S
C73 O66 1.253 . S
C74 O60 1.265 . S
C74 O79 1.244 . S
O75 Tb64 2.441 . S
O75 C65 1.244 . S
O76 Tb64 2.506 . S
O76 C65 1.265 . S
C77 O72 1.258 . S
C77 O78 1.251 . S
O78 C77 1.251 . S
O79 Tb61 2.441 . S
O79 C74 1.244 . S
O80 Tb81 2.506 . S
O80 C94 1.265 . S
Tb81 O80 2.506 . S
Tb81 O86 2.312 . S
Tb81 O90 2.271 . S
Tb81 O92 2.338 . S
Tb81 O99 2.441 . S
C82 O90 1.252 . S
C82 O91 1.253 . S
O83 Tb84 2.271 . S
O83 C93 1.252 . S
Tb84 O83 2.271 . S
Tb84 O87 2.338 . S
Tb84 O91 2.312 . S
Tb84 O95 2.441 . S
Tb84 O96 2.506 . S
C85 O95 1.244 . S
C85 O96 1.265 . S
O86 Tb81 2.312 . S
O86 C93 1.253 . S
O87 Tb84 2.338 . S
O87 C88 1.258 . S
C88 O87 1.258 . S
C88 O89 1.251 . S
O89 C88 1.251 . S
O90 Tb81 2.271 . S
O90 C82 1.252 . S
O91 C82 1.253 . S
O91 Tb84 2.312 . S
O92 Tb81 2.338 . S
O92 C97 1.258 . S
C93 O83 1.252 . S
C93 O86 1.253 . S
C94 O80 1.265 . S
C94 O99 1.244 . S
O95 Tb84 2.441 . S
O95 C85 1.244 . S
O96 Tb84 2.506 . S
O96 C85 1.265 . S
C97 O92 1.258 . S
C97 O98 1.251 . S
O98 C97 1.251 . S
O99 Tb81 2.441 . S
O99 C94 1.244 . S
O100 Tb101 2.506 . S
O100 C114 1.265 . S
Tb101 O100 2.506 . S
Tb101 O106 2.312 . S
Tb101 O110 2.271 . S
Tb101 O112 2.338 . S
Tb101 O119 2.441 . S
C102 O110 1.252 . S
C102 O111 1.253 . S
O103 Tb104 2.271 . S
O103 C113 1.252 . S
Tb104 O103 2.271 . S
Tb104 O107 2.338 . S
Tb104 O111 2.312 . S
Tb104 O115 2.441 . S
Tb104 O116 2.506 . S
C105 O115 1.244 . S
C105 O116 1.265 . S
O106 Tb101 2.312 . S
O106 C113 1.253 . S
O107 Tb104 2.338 . S
O107 C108 1.258 . S
C108 O107 1.258 . S
C108 O109 1.251 . S
O109 C108 1.251 . S
O110 Tb101 2.271 . S
O110 C102 1.252 . S
O111 C102 1.253 . S
O111 Tb104 2.312 . S
O112 Tb101 2.338 . S
O112 C117 1.258 . S
C113 O103 1.252 . S
C113 O106 1.253 . S
C114 O100 1.265 . S
C114 O119 1.244 . S
O115 Tb104 2.441 . S
O115 C105 1.244 . S
O116 Tb104 2.506 . S
O116 C105 1.265 . S
C117 O112 1.258 . S
C117 O118 1.251 . S
O118 C117 1.251 . S
O119 Tb101 2.441 . S
O119 C114 1.244 . S
O120 Tb121 2.506 . S
O120 C134 1.265 . S
Tb121 O120 2.506 . S
Tb121 O126 2.312 . S
Tb121 O130 2.271 . S
Tb121 O132 2.338 . S
Tb121 O139 2.441 . S
C122 O130 1.252 . S
C122 O131 1.253 . S
O123 Tb124 2.271 . S
O123 C133 1.252 . S
Tb124 O123 2.271 . S
Tb124 O127 2.338 . S
Tb124 O131 2.312 . S
Tb124 O135 2.441 . S
Tb124 O136 2.506 . S
C125 O135 1.244 . S
C125 O136 1.265 . S
O126 Tb121 2.312 . S
O126 C133 1.253 . S
O127 Tb124 2.338 . S
O127 C128 1.258 . S
C128 O127 1.258 . S
C128 O129 1.251 . S
O129 C128 1.251 . S
O130 Tb121 2.271 . S
O130 C122 1.252 . S
O131 C122 1.253 . S
O131 Tb124 2.312 . S
O132 Tb121 2.338 . S
O132 C137 1.258 . S
C133 O123 1.252 . S
C133 O126 1.253 . S
C134 O120 1.265 . S
C134 O139 1.244 . S
O135 Tb124 2.441 . S
O135 C125 1.244 . S
O136 Tb124 2.506 . S
O136 C125 1.265 . S
C137 O132 1.258 . S
C137 O138 1.251 . S
O138 C137 1.251 . S
O139 Tb121 2.441 . S
O139 C134 1.244 . S
O140 Tb141 2.506 . S
O140 C154 1.265 . S
Tb141 O140 2.506 . S
Tb141 O146 2.312 . S
Tb141 O150 2.271 . S
Tb141 O152 2.338 . S
Tb141 O159 2.441 . S
C142 O150 1.252 . S
C142 O151 1.253 . S
O143 Tb144 2.271 . S
O143 C153 1.252 . S
Tb144 O143 2.271 . S
Tb144 O147 2.338 . S
Tb144 O151 2.312 . S
Tb144 O155 2.441 . S
Tb144 O156 2.506 . S
C145 O155 1.244 . S
C145 O156 1.265 . S
O146 Tb141 2.312 . S
O146 C153 1.253 . S
O147 Tb144 2.338 . S
O147 C148 1.258 . S
C148 O147 1.258 . S
C148 O149 1.251 . S
O149 C148 1.251 . S
O150 Tb141 2.271 . S
O150 C142 1.252 . S
O151 C142 1.253 . S
O151 Tb144 2.312 . S
O152 Tb141 2.338 . S
O152 C157 1.258 . S
C153 O143 1.252 . S
C153 O146 1.253 . S
C154 O140 1.265 . S
C154 O159 1.244 . S
O155 Tb144 2.441 . S
O155 C145 1.244 . S
O156 Tb144 2.506 . S
O156 C145 1.265 . S
C157 O152 1.258 . S
C157 O158 1.251 . S
O158 C157 1.251 . S
O159 Tb141 2.441 . S
O159 C154 1.244 . S
O160 Tb161 2.506 . S
O160 C174 1.265 . S
Tb161 O160 2.506 . S
Tb161 O166 2.312 . S
Tb161 O170 2.271 . S
Tb161 O172 2.338 . S
Tb161 O179 2.441 . S
C162 O170 1.252 . S
C162 O171 1.253 . S
O163 Tb164 2.271 . S
O163 C173 1.252 . S
Tb164 O163 2.271 . S
Tb164 O167 2.338 . S
Tb164 O171 2.312 . S
Tb164 O175 2.441 . S
Tb164 O176 2.506 . S
C165 O175 1.244 . S
C165 O176 1.265 . S
O166 Tb161 2.312 . S
O166 C173 1.253 . S
O167 Tb164 2.338 . S
O167 C168 1.258 . S
C168 O167 1.258 . S
C168 O169 1.251 . S
O169 C168 1.251 . S
O170 Tb161 2.271 . S
O170 C162 1.252 . S
O171 C162 1.253 . S
O171 Tb164 2.312 . S
O172 Tb161 2.338 . S
O172 C177 1.258 . S
C173 O163 1.252 . S
C173 O166 1.253 . S
C174 O160 1.265 . S
C174 O179 1.244 . S
O175 Tb164 2.441 . S
O175 C165 1.244 . S
O176 Tb164 2.506 . S
O176 C165 1.265 . S
C177 O172 1.258 . S
C177 O178 1.251 . S
O178 C177 1.251 . S
O179 Tb161 2.441 . S
O179 C174 1.244 . S
O180 Tb181 2.506 . S
O180 C194 1.265 . S
Tb181 O180 2.506 . S
Tb181 O186 2.312 . S
Tb181 O190 2.271 . S
Tb181 O192 2.338 . S
Tb181 O199 2.441 . S
C182 O190 1.252 . S
C182 O191 1.253 . S
O183 Tb184 2.271 . S
O183 C193 1.252 . S
Tb184 O183 2.271 . S
Tb184 O187 2.338 . S
Tb184 O191 2.312 . S
Tb184 O195 2.441 . S
Tb184 O196 2.506 . S
C185 O195 1.244 . S
C185 O196 1.265 . S
O186 Tb181 2.312 . S
O186 C193 1.253 . S
O187 Tb184 2.338 . S
O187 C188 1.258 . S
C188 O187 1.258 . S
C188 O189 1.251 . S
O189 C188 1.251 . S
O190 Tb181 2.271 . S
O190 C182 1.252 . S
O191 C182 1.253 . S
O191 Tb184 2.312 . S
O192 Tb181 2.338 . S
O192 C197 1.258 . S
C193 O183 1.252 . S
C193 O186 1.253 . S
C194 O180 1.265 . S
C194 O199 1.244 . S
O195 Tb184 2.441 . S
O195 C185 1.244 . S
O196 Tb184 2.506 . S
O196 C185 1.265 . S
C197 O192 1.258 . S
C197 O198 1.251 . S
O198 C197 1.251 . S
O199 Tb181 2.441 . S
O199 C194 1.244 . S
O200 Tb201 2.506 . S
O200 C214 1.265 . S
Tb201 O200 2.506 . S
Tb201 O206 2.312 . S
Tb201 O210 2.271 . S
Tb201 O212 2.338 . S
Tb201 O219 2.441 . S
C202 O210 1.252 . S
C202 O211 1.253 . S
O203 Tb204 2.271 . S
O203 C213 1.252 . S
Tb204 O203 2.271 . S
Tb204 O207 2.338 . S
Tb204 O211 2.312 . S
Tb204 O215 2.441 . S
Tb204 O216 2.506 . S
C205 O215 1.244 . S
C205 O216 1.265 . S
O206 Tb201 2.312 . S
O206 C213 1.253 . S
O207 Tb204 2.338 . S
O207 C208 1.258 . S
C208 O207 1.258 . S
C208 O209 1.251 . S
O209 C208 1.251 . S
O210 Tb201 2.271 . S
O210 C202 1.252 . S
O211 C202 1.253 . S
O211 Tb204 2.312 . S
O212 Tb201 2.338 . S
O212 C217 1.258 . S
C213 O203 1.252 . S
C213 O206 1.253 . S
C214 O200 1.265 . S
C214 O219 1.244 . S
O215 Tb204 2.441 . S
O215 C205 1.244 . S
O216 Tb204 2.506 . S
O216 C205 1.265 . S
C217 O212 1.258 . S
C217 O218 1.251 . S
O218 C217 1.251 . S
O219 Tb201 2.441 . S
O219 C214 1.244 . S
O220 Tb221 2.506 . S
O220 C234 1.265 . S
Tb221 O220 2.506 . S
Tb221 O226 2.312 . S
Tb221 O230 2.271 . S
Tb221 O232 2.338 . S
Tb221 O239 2.441 . S
C222 O230 1.252 . S
C222 O231 1.253 . S
O223 Tb224 2.271 . S
O223 C233 1.252 . S
Tb224 O223 2.271 . S
Tb224 O227 2.338 . S
Tb224 O231 2.312 . S
Tb224 O235 2.441 . S
Tb224 O236 2.506 . S
C225 O235 1.244 . S
C225 O236 1.265 . S
O226 Tb221 2.312 . S
O226 C233 1.253 . S
O227 Tb224 2.338 . S
O227 C228 1.258 . S
C228 O227 1.258 . S
C228 O229 1.251 . S
O229 C228 1.251 . S
O230 Tb221 2.271 . S
O230 C222 1.252 . S
O231 C222 1.253 . S
O231 Tb224 2.312 . S
O232 Tb221 2.338 . S
O232 C237 1.258 . S
C233 O223 1.252 . S
C233 O226 1.253 . S
C234 O220 1.265 . S
C234 O239 1.244 . S
O235 Tb224 2.441 . S
O235 C225 1.244 . S
O236 Tb224 2.506 . S
O236 C225 1.265 . S
C237 O232 1.258 . S
C237 O238 1.251 . S
O238 C237 1.251 . S
O239 Tb221 2.441 . S
O239 C234 1.244 . S
C240 C241 1.369 1_545 S
C240 C242 1.419 . S
C240 H244 0.930 . S
C241 C240 1.369 1_565 S
C241 C250 1.429 . S
C242 C240 1.419 . S
C242 C243 1.363 . S
C242 H245 0.929 . S
C243 C242 1.363 . S
C243 C249 1.428 . S
H244 C240 0.930 . S
H245 C242 0.929 . S
S246 N247 1.613 . S
S246 N248 1.610 1_565 S
N247 S246 1.613 . S
N247 C250 1.350 . S
N248 S246 1.610 1_545 S
N248 C249 1.351 . S
C249 C243 1.428 . S
C249 N248 1.351 . S
C249 C250 1.434 1_545 S
C250 C241 1.429 . S
C250 N247 1.350 . S
C250 C249 1.434 1_565 S
C251 C252 1.369 . S
C251 C253 1.419 . S
C251 H255 0.930 . S
C252 C251 1.369 . S
C252 C261 1.429 . S
C253 C251 1.419 . S
C253 C254 1.363 . S
C253 H256 0.929 . S
C254 C253 1.363 . S
C254 C260 1.428 . S
H255 C251 0.930 . S
H256 C253 0.929 . S
S257 N258 1.613 1_565 S
S257 N259 1.610 1_565 S
N258 S257 1.613 1_545 S
N258 C261 1.350 . S
N259 S257 1.610 1_545 S
N259 C260 1.351 . S
C260 C254 1.428 . S
C260 N259 1.351 . S
C260 C261 1.434 . S
C261 C252 1.429 . S
C261 N258 1.350 . S
C261 C260 1.434 . S
C262 C263 1.369 . S
C262 C264 1.419 1_655 S
C262 H266 0.930 . S
C263 C262 1.369 . S
C263 C272 1.429 . S
C264 C262 1.419 1_455 S
C264 C265 1.363 . S
C264 H267 0.929 . S
C265 C264 1.363 . S
C265 C271 1.428 1_455 S
H266 C262 0.930 . S
H267 C264 0.929 . S
S268 N269 1.613 . S
S268 N270 1.610 . S
N269 S268 1.613 . S
N269 C272 1.350 . S
N270 S268 1.610 . S
N270 C271 1.351 . S
C271 C265 1.428 1_655 S
C271 N270 1.351 . S
C271 C272 1.434 . S
C272 C263 1.429 . S
C272 N269 1.350 . S
C272 C271 1.434 . S
C273 C274 1.369 . S
C273 C275 1.419 . S
C273 H277 0.930 . S
C274 C273 1.369 . S
C274 C283 1.429 . S
C275 C273 1.419 . S
C275 C276 1.363 1_565 S
C275 H278 0.929 . S
C276 C275 1.363 1_545 S
C276 C282 1.428 1_545 S
H277 C273 0.930 . S
H278 C275 0.929 . S
S279 N280 1.613 . S
S279 N281 1.610 1_565 S
N280 S279 1.613 . S
N280 C283 1.350 . S
N281 S279 1.610 1_545 S
N281 C282 1.351 1_545 S
C282 C276 1.428 1_565 S
C282 N281 1.351 1_565 S
C282 C283 1.434 . S
C283 C274 1.429 . S
C283 N280 1.350 . S
C283 C282 1.434 . S
C284 C285 1.369 . S
C284 C286 1.419 . S
C284 H288 0.930 . S
C285 C284 1.369 . S
C285 C294 1.429 . S
C286 C284 1.419 . S
C286 C287 1.363 . S
C286 H289 0.929 . S
C287 C286 1.363 . S
C287 C293 1.428 . S
H288 C284 0.930 . S
H289 C286 0.929 . S
S290 N291 1.613 . S
S290 N292 1.610 . S
N291 S290 1.613 . S
N291 C294 1.350 . S
N292 S290 1.610 . S
N292 C293 1.351 . S
C293 C287 1.428 . S
C293 N292 1.351 . S
C293 C294 1.434 . S
C294 C285 1.429 . S
C294 N291 1.350 . S
C294 C293 1.434 . S
C295 C296 1.369 1_455 S
C295 C297 1.419 . S
C295 H299 0.930 . S
C296 C295 1.369 1_655 S
C296 C305 1.429 . S
C297 C295 1.419 . S
C297 C298 1.363 . S
C297 H300 0.929 . S
C298 C297 1.363 . S
C298 C304 1.428 . S
H299 C295 0.930 . S
H300 C297 0.929 . S
S301 N302 1.613 . S
S301 N303 1.610 1_655 S
N302 S301 1.613 . S
N302 C305 1.350 . S
N303 S301 1.610 1_455 S
N303 C304 1.351 . S
C304 C298 1.428 . S
C304 N303 1.351 . S
C304 C305 1.434 1_455 S
C305 C296 1.429 . S
C305 N302 1.350 . S
C305 C304 1.434 1_655 S
C306 C307 1.369 . S
C306 C308 1.419 1_455 S
C306 H310 0.930 . S
C307 C306 1.369 . S
C307 C316 1.429 1_455 S
C308 C306 1.419 1_655 S
C308 C309 1.363 . S
C308 H311 0.929 . S
C309 C308 1.363 . S
C309 C315 1.428 . S
H310 C306 0.930 . S
H311 C308 0.929 . S
S312 N313 1.613 . S
S312 N314 1.610 . S
N313 S312 1.613 . S
N313 C316 1.350 . S
N314 S312 1.610 . S
N314 C315 1.351 . S
C315 C309 1.428 . S
C315 N314 1.351 . S
C315 C316 1.434 . S
C316 C307 1.429 1_655 S
C316 N313 1.350 . S
C316 C315 1.434 . S
C317 C318 1.369 . S
C317 C319 1.419 . S
C317 H321 0.930 . S
C318 C317 1.369 . S
C318 C327 1.429 . S
C319 C317 1.419 . S
C319 C320 1.363 1_565 S
C319 H322 0.929 1_565 S
C320 C319 1.363 1_545 S
C320 C326 1.428 1_545 S
H321 C317 0.930 . S
H322 C319 0.929 1_545 S
S323 N324 1.613 . S
S323 N325 1.610 . S
N324 S323 1.613 . S
N324 C327 1.350 . S
N325 S323 1.610 . S
N325 C326 1.351 . S
C326 C320 1.428 1_565 S
C326 N325 1.351 . S
C326 C327 1.434 . S
C327 C318 1.429 . S
C327 N324 1.350 . S
C327 C326 1.434 . S
C328 C329 1.369 . S
C328 C330 1.419 . S
C328 H332 0.930 . S
C329 C328 1.369 . S
C329 C338 1.429 . S
C330 C328 1.419 . S
C330 C331 1.363 . S
C330 H333 0.929 . S
C331 C330 1.363 . S
C331 C337 1.428 . S
H332 C328 0.930 . S
H333 C330 0.929 . S
S334 N335 1.613 . S
S334 N336 1.610 . S
N335 S334 1.613 . S
N335 C338 1.350 . S
N336 S334 1.610 . S
N336 C337 1.351 . S
C337 C331 1.428 . S
C337 N336 1.351 . S
C337 C338 1.434 . S
C338 C329 1.429 . S
C338 N335 1.350 . S
C338 C337 1.434 . S
C339 C340 1.369 . S
C339 C341 1.419 . S
C339 H343 0.930 . S
C340 C339 1.369 . S
C340 C349 1.429 . S
C341 C339 1.419 . S
C341 C342 1.363 1_455 S
C341 H344 0.929 1_455 S
C342 C341 1.363 1_655 S
C342 C348 1.428 1_655 S
H343 C339 0.930 . S
H344 C341 0.929 1_655 S
S345 N346 1.613 . S
S345 N347 1.610 . S
N346 S345 1.613 . S
N346 C349 1.350 . S
N347 S345 1.610 . S
N347 C348 1.351 . S
C348 C342 1.428 1_455 S
C348 N347 1.351 . S
C348 C349 1.434 . S
C349 C340 1.429 . S
C349 N346 1.350 . S
C349 C348 1.434 . S
C350 C351 1.369 . S
C350 C352 1.419 . S
C350 H354 0.930 . S
C351 C350 1.369 . S
C351 C360 1.429 . S
C352 C350 1.419 . S
C352 C353 1.363 1_545 S
C352 H355 0.929 . S
C353 C352 1.363 1_565 S
C353 C359 1.428 . S
H354 C350 0.930 . S
H355 C352 0.929 . S
S356 N357 1.613 1_565 S
S356 N358 1.610 . S
N357 S356 1.613 1_545 S
N357 C360 1.350 . S
N358 S356 1.610 . S
N358 C359 1.351 . S
C359 C353 1.428 . S
C359 N358 1.351 . S
C359 C360 1.434 1_565 S
C360 C351 1.429 . S
C360 N357 1.350 . S
C360 C359 1.434 1_545 S
C361 C362 1.369 . S
C361 C363 1.419 . S
C361 H365 0.930 . S
C362 C361 1.369 . S
C362 C371 1.429 . S
C363 C361 1.419 . S
C363 C364 1.363 . S
C363 H366 0.929 . S
C364 C363 1.363 . S
C364 C370 1.428 . S
H365 C361 0.930 . S
H366 C363 0.929 . S
S367 N368 1.613 . S
S367 N369 1.610 . S
N368 S367 1.613 . S
N368 C371 1.350 . S
N369 S367 1.610 . S
N369 C370 1.351 . S
C370 C364 1.428 . S
C370 N369 1.351 . S
C370 C371 1.434 . S
C371 C362 1.429 . S
C371 N368 1.350 . S
C371 C370 1.434 . S
C372 C373 1.369 . S
C372 C374 1.419 . S
C372 H376 0.930 . S
C373 C372 1.369 . S
C373 C382 1.429 . S
C374 C372 1.419 . S
C374 C375 1.363 . S
C374 H377 0.929 . S
C375 C374 1.363 . S
C375 C381 1.428 . S
H376 C372 0.930 . S
H377 C374 0.929 . S
S378 N379 1.613 . S
S378 N380 1.610 . S
N379 S378 1.613 . S
N379 C382 1.350 . S
N380 S378 1.610 . S
N380 C381 1.351 . S
C381 C375 1.428 . S
C381 N380 1.351 . S
C381 C382 1.434 . S
C382 C373 1.429 . S
C382 N379 1.350 . S
C382 C381 1.434 . S
C383 C384 1.369 . S
C383 C385 1.419 . S
C383 H387 0.930 . S
C384 C383 1.369 . S
C384 C393 1.429 . S
C385 C383 1.419 . S
C385 C386 1.363 . S
C385 H388 0.929 . S
C386 C385 1.363 . S
C386 C392 1.428 . S
H387 C383 0.930 . S
H388 C385 0.929 . S
S389 N390 1.613 . S
S389 N391 1.610 . S
N390 S389 1.613 . S
N390 C393 1.350 . S
N391 S389 1.610 . S
N391 C392 1.351 . S
C392 C386 1.428 . S
C392 N391 1.351 . S
C392 C393 1.434 . S
C393 C384 1.429 . S
C393 N390 1.350 . S
C393 C392 1.434 . S
C394 C395 1.369 . S
C394 C396 1.419 . S
C394 H398 0.930 . S
C395 C394 1.369 . S
C395 C404 1.429 . S
C396 C394 1.419 . S
C396 C397 1.363 . S
C396 H399 0.929 . S
C397 C396 1.363 . S
C397 C403 1.428 . S
H398 C394 0.930 . S
H399 C396 0.929 . S
S400 N401 1.613 . S
S400 N402 1.610 . S
N401 S400 1.613 . S
N401 C404 1.350 . S
N402 S400 1.610 . S
N402 C403 1.351 . S
C403 C397 1.428 . S
C403 N402 1.351 . S
C403 C404 1.434 . S
C404 C395 1.429 . S
C404 N401 1.350 . S
C404 C403 1.434 . S
C405 C406 1.369 . S
C405 C407 1.419 . S
C405 H409 0.930 . S
C406 C405 1.369 . S
C406 C415 1.429 . S
C407 C405 1.419 . S
C407 C408 1.363 . S
C407 H410 0.929 . S
C408 C407 1.363 . S
C408 C414 1.428 . S
H409 C405 0.930 . S
H410 C407 0.929 . S
S411 N412 1.613 . S
S411 N413 1.610 . S
N412 S411 1.613 . S
N412 C415 1.350 . S
N413 S411 1.610 . S
N413 C414 1.351 . S
C414 C408 1.428 . S
C414 N413 1.351 . S
C414 C415 1.434 . S
C415 C406 1.429 . S
C415 N412 1.350 . S
C415 C414 1.434 . S
C416 C417 1.369 . S
C416 C418 1.419 . S
C416 H420 0.930 . S
C417 C416 1.369 . S
C417 C426 1.429 . S
C418 C416 1.419 . S
C418 C419 1.363 . S
C418 H421 0.929 . S
C419 C418 1.363 . S
C419 C425 1.428 . S
H420 C416 0.930 . S
H421 C418 0.929 . S
S422 N423 1.613 . S
S422 N424 1.610 . S
N423 S422 1.613 . S
N423 C426 1.350 . S
N424 S422 1.610 . S
N424 C425 1.351 . S
C425 C419 1.428 . S
C425 N424 1.351 . S
C425 C426 1.434 . S
C426 C417 1.429 . S
C426 N423 1.350 . S
C426 C425 1.434 . S
C427 C428 1.369 . S
C427 C429 1.419 . S
C427 H431 0.930 . S
C428 C427 1.369 . S
C428 C437 1.429 . S
C429 C427 1.419 . S
C429 C430 1.363 . S
C429 H432 0.929 . S
C430 C429 1.363 . S
C430 C436 1.428 . S
H431 C427 0.930 . S
H432 C429 0.929 . S
S433 N434 1.613 . S
S433 N435 1.610 . S
N434 S433 1.613 . S
N434 C437 1.350 . S
N435 S433 1.610 . S
N435 C436 1.351 . S
C436 C430 1.428 . S
C436 N435 1.351 . S
C436 C437 1.434 . S
C437 C428 1.429 . S
C437 N434 1.350 . S
C437 C436 1.434 . S
C438 C439 1.369 . S
C438 C440 1.419 . S
C438 H442 0.930 . S
C439 C438 1.369 . S
C439 C448 1.429 . S
C440 C438 1.419 . S
C440 C441 1.363 . S
C440 H443 0.929 . S
C441 C440 1.363 . S
C441 C447 1.428 . S
H442 C438 0.930 . S
H443 C440 0.929 . S
S444 N445 1.613 . S
S444 N446 1.610 . S
N445 S444 1.613 . S
N445 C448 1.350 . S
N446 S444 1.610 . S
N446 C447 1.351 . S
C447 C441 1.428 . S
C447 N446 1.351 . S
C447 C448 1.434 . S
C448 C439 1.429 . S
C448 N445 1.350 . S
C448 C447 1.434 . S
C449 C450 1.369 . S
C449 C451 1.419 . S
C449 H453 0.930 . S
C450 C449 1.369 . S
C450 C459 1.429 . S
C451 C449 1.419 . S
C451 C452 1.363 . S
C451 H454 0.929 . S
C452 C451 1.363 . S
C452 C458 1.428 . S
H453 C449 0.930 . S
H454 C451 0.929 . S
S455 N456 1.613 . S
S455 N457 1.610 . S
N456 S455 1.613 . S
N456 C459 1.350 . S
N457 S455 1.610 . S
N457 C458 1.351 . S
C458 C452 1.428 . S
C458 N457 1.351 . S
C458 C459 1.434 . S
C459 C450 1.429 . S
C459 N456 1.350 . S
C459 C458 1.434 . S
C460 C461 1.369 . S
C460 C462 1.419 . S
C460 H464 0.930 . S
C461 C460 1.369 . S
C461 C470 1.429 . S
C462 C460 1.419 . S
C462 C463 1.363 . S
C462 H465 0.929 . S
C463 C462 1.363 . S
C463 C469 1.428 . S
H464 C460 0.930 . S
H465 C462 0.929 . S
S466 N467 1.613 . S
S466 N468 1.610 . S
N467 S466 1.613 . S
N467 C470 1.350 . S
N468 S466 1.610 . S
N468 C469 1.351 . S
C469 C463 1.428 . S
C469 N468 1.351 . S
C469 C470 1.434 . S
C470 C461 1.429 . S
C470 N467 1.350 . S
C470 C469 1.434 . S
C471 C472 1.369 . S
C471 C473 1.419 . S
C471 H475 0.930 . S
C472 C471 1.369 . S
C472 C481 1.429 . S
C473 C471 1.419 . S
C473 C474 1.363 . S
C473 H476 0.929 . S
C474 C473 1.363 . S
C474 C480 1.428 . S
H475 C471 0.930 . S
H476 C473 0.929 . S
S477 N478 1.613 . S
S477 N479 1.610 . S
N478 S477 1.613 . S
N478 C481 1.350 . S
N479 S477 1.610 . S
N479 C480 1.351 . S
C480 C474 1.428 . S
C480 N479 1.351 . S
C480 C481 1.434 . S
C481 C472 1.429 . S
C481 N478 1.350 . S
C481 C480 1.434 . S
C482 C483 1.369 . S
C482 C484 1.419 . S
C482 H486 0.930 . S
C483 C482 1.369 . S
C483 C492 1.429 . S
C484 C482 1.419 . S
C484 C485 1.363 . S
C484 H487 0.929 . S
C485 C484 1.363 . S
C485 C491 1.428 . S
H486 C482 0.930 . S
H487 C484 0.929 . S
S488 N489 1.613 . S
S488 N490 1.610 . S
N489 S488 1.613 . S
N489 C492 1.350 . S
N490 S488 1.610 . S
N490 C491 1.351 . S
C491 C485 1.428 . S
C491 N490 1.351 . S
C491 C492 1.434 . S
C492 C483 1.429 . S
C492 N489 1.350 . S
C492 C491 1.434 . S
C493 C494 1.369 . S
C493 C495 1.419 . S
C493 H497 0.930 . S
C494 C493 1.369 . S
C494 C503 1.429 . S
C495 C493 1.419 . S
C495 C496 1.363 . S
C495 H498 0.929 . S
C496 C495 1.363 . S
C496 C502 1.428 . S
H497 C493 0.930 . S
H498 C495 0.929 . S
S499 N500 1.613 . S
S499 N501 1.610 . S
N500 S499 1.613 . S
N500 C503 1.350 . S
N501 S499 1.610 . S
N501 C502 1.351 . S
C502 C496 1.428 . S
C502 N501 1.351 . S
C502 C503 1.434 . S
C503 C494 1.429 . S
C503 N500 1.350 . S
C503 C502 1.434 . S
C504 C505 1.369 . S
C504 C506 1.419 . S
C504 H508 0.930 . S
C505 C504 1.369 . S
C505 C514 1.429 . S
C506 C504 1.419 . S
C506 C507 1.363 . S
C506 H509 0.929 . S
C507 C506 1.363 . S
C507 C513 1.428 . S
H508 C504 0.930 . S
H509 C506 0.929 . S
S510 N511 1.613 . S
S510 N512 1.610 . S
N511 S510 1.613 . S
N511 C514 1.350 . S
N512 S510 1.610 . S
N512 C513 1.351 . S
C513 C507 1.428 . S
C513 N512 1.351 . S
C513 C514 1.434 . S
C514 C505 1.429 . S
C514 N511 1.350 . S
C514 C513 1.434 . S
C515 C516 1.369 . S
C515 C517 1.419 . S
C515 H519 0.930 . S
C516 C515 1.369 . S
C516 C525 1.429 . S
C517 C515 1.419 . S
C517 C518 1.363 . S
C517 H520 0.929 . S
C518 C517 1.363 . S
C518 C524 1.428 . S
H519 C515 0.930 . S
H520 C517 0.929 . S
S521 N522 1.613 . S
S521 N523 1.610 . S
N522 S521 1.613 . S
N522 C525 1.350 . S
N523 S521 1.610 . S
N523 C524 1.351 . S
C524 C518 1.428 . S
C524 N523 1.351 . S
C524 C525 1.434 . S
C525 C516 1.429 . S
C525 N522 1.350 . S
C525 C524 1.434 . S
C526 C527 1.369 . S
C526 C528 1.419 . S
C526 H530 0.930 . S
C527 C526 1.369 . S
C527 C536 1.429 . S
C528 C526 1.419 . S
C528 C529 1.363 . S
C528 H531 0.929 . S
C529 C528 1.363 . S
C529 C535 1.428 . S
H530 C526 0.930 . S
H531 C528 0.929 . S
S532 N533 1.613 . S
S532 N534 1.610 . S
N533 S532 1.613 . S
N533 C536 1.350 . S
N534 S532 1.610 . S
N534 C535 1.351 . S
C535 C529 1.428 . S
C535 N534 1.351 . S
C535 C536 1.434 . S
C536 C527 1.429 . S
C536 N533 1.350 . S
C536 C535 1.434 . S
C537 C538 1.369 . S
C537 C539 1.419 . S
C537 H541 0.930 . S
C538 C537 1.369 . S
C538 C547 1.429 . S
C539 C537 1.419 . S
C539 C540 1.363 . S
C539 H542 0.929 . S
C540 C539 1.363 . S
C540 C546 1.428 . S
H541 C537 0.930 . S
H542 C539 0.929 . S
S543 N544 1.613 . S
S543 N545 1.610 . S
N544 S543 1.613 . S
N544 C547 1.350 . S
N545 S543 1.610 . S
N545 C546 1.351 . S
C546 C540 1.428 . S
C546 N545 1.351 . S
C546 C547 1.434 . S
C547 C538 1.429 . S
C547 N544 1.350 . S
C547 C546 1.434 . S
C548 C549 1.369 . S
C548 C550 1.419 . S
C548 H552 0.930 . S
C549 C548 1.369 . S
C549 C558 1.429 . S
C550 C548 1.419 . S
C550 C551 1.363 . S
C550 H553 0.929 . S
C551 C550 1.363 . S
C551 C557 1.428 . S
H552 C548 0.930 . S
H553 C550 0.929 . S
S554 N555 1.613 . S
S554 N556 1.610 . S
N555 S554 1.613 . S
N555 C558 1.350 . S
N556 S554 1.610 . S
N556 C557 1.351 . S
C557 C551 1.428 . S
C557 N556 1.351 . S
C557 C558 1.434 . S
C558 C549 1.429 . S
C558 N555 1.350 . S
C558 C557 1.434 . S
C559 C560 1.369 . S
C559 C561 1.419 . S
C559 H563 0.930 . S
C560 C559 1.369 . S
C560 C569 1.429 . S
C561 C559 1.419 . S
C561 C562 1.363 . S
C561 H564 0.929 . S
C562 C561 1.363 . S
C562 C568 1.428 . S
H563 C559 0.930 . S
H564 C561 0.929 . S
S565 N566 1.613 . S
S565 N567 1.610 . S
N566 S565 1.613 . S
N566 C569 1.350 . S
N567 S565 1.610 . S
N567 C568 1.351 . S
C568 C562 1.428 . S
C568 N567 1.351 . S
C568 C569 1.434 . S
C569 C560 1.429 . S
C569 N566 1.350 . S
C569 C568 1.434 . S
C570 C571 1.369 . S
C570 C572 1.419 . S
C570 H574 0.930 . S
C571 C570 1.369 . S
C571 C580 1.429 1_556 S
C572 C570 1.419 . S
C572 C573 1.363 1_556 S
C572 H575 0.929 . S
C573 C572 1.363 1_554 S
C573 C579 1.428 . S
H574 C570 0.930 . S
H575 C572 0.929 . S
S576 N577 1.613 . S
S576 N578 1.610 . S
N577 S576 1.613 . S
N577 C580 1.350 . S
N578 S576 1.610 . S
N578 C579 1.351 . S
C579 C573 1.428 . S
C579 N578 1.351 . S
C579 C580 1.434 . S
C580 C571 1.429 1_554 S
C580 N577 1.350 . S
C580 C579 1.434 . S
C581 C582 1.369 . S
C581 C583 1.419 1_455 S
C581 H585 0.930 . S
C582 C581 1.369 . S
C582 C591 1.429 . S
C583 C581 1.419 1_655 S
C583 C584 1.363 . S
C583 H586 0.929 . S
C584 C583 1.363 . S
C584 C590 1.428 . S
H585 C581 0.930 . S
H586 C583 0.929 . S
S587 N588 1.613 . S
S587 N589 1.610 1_455 S
N588 S587 1.613 . S
N588 C591 1.350 . S
N589 S587 1.610 1_655 S
N589 C590 1.351 . S
C590 C584 1.428 . S
C590 N589 1.351 . S
C590 C591 1.434 1_655 S
C591 C582 1.429 . S
C591 N588 1.350 . S
C591 C590 1.434 1_455 S
C592 C593 1.369 . S
C592 C594 1.419 1_565 S
C592 H596 0.930 . S
C593 C592 1.369 . S
C593 C602 1.429 1_554 S
C594 C592 1.419 1_545 S
C594 C595 1.363 1_554 S
C594 H597 0.929 . S
C595 C594 1.363 1_556 S
C595 C601 1.428 . S
H596 C592 0.930 . S
H597 C594 0.929 . S
S598 N599 1.613 . S
S598 N600 1.610 1_565 S
N599 S598 1.613 . S
N599 C602 1.350 . S
N600 S598 1.610 1_545 S
N600 C601 1.351 . S
C601 C595 1.428 . S
C601 N600 1.351 . S
C601 C602 1.434 1_545 S
C602 C593 1.429 1_556 S
C602 N599 1.350 . S
C602 C601 1.434 1_565 S
C603 C604 1.369 . S
C603 C605 1.419 . S
C603 H607 0.930 . S
C604 C603 1.369 . S
C604 C613 1.429 . S
C605 C603 1.419 . S
C605 C606 1.363 . S
C605 H608 0.929 . S
C606 C605 1.363 . S
C606 C612 1.428 . S
H607 C603 0.930 . S
H608 C605 0.929 . S
S609 N610 1.613 . S
S609 N611 1.610 . S
N610 S609 1.613 . S
N610 C613 1.350 . S
N611 S609 1.610 . S
N611 C612 1.351 . S
C612 C606 1.428 . S
C612 N611 1.351 . S
C612 C613 1.434 . S
C613 C604 1.429 . S
C613 N610 1.350 . S
C613 C612 1.434 . S
C614 C615 1.369 . S
C614 C616 1.419 1_656 S
C614 H618 0.930 . S
C615 C614 1.369 . S
C615 C624 1.429 . S
C616 C614 1.419 1_454 S
C616 C617 1.363 . S
C616 H619 0.929 . S
C617 C616 1.363 . S
C617 C623 1.428 . S
H618 C614 0.930 . S
H619 C616 0.929 . S
S620 N621 1.613 1_554 S
S620 N622 1.610 1_655 S
N621 S620 1.613 1_556 S
N621 C624 1.350 . S
N622 S620 1.610 1_455 S
N622 C623 1.351 . S
C623 C617 1.428 . S
C623 N622 1.351 . S
C623 C624 1.434 1_454 S
C624 C615 1.429 . S
C624 N621 1.350 . S
C624 C623 1.434 1_656 S
C625 C626 1.369 . S
C625 C627 1.419 1_565 S
C625 H629 0.930 . S
C626 C625 1.369 . S
C626 C635 1.429 . S
C627 C625 1.419 1_545 S
C627 C628 1.363 . S
C627 H630 0.929 . S
C628 C627 1.363 . S
C628 C634 1.428 . S
H629 C625 0.930 . S
H630 C627 0.929 . S
S631 N632 1.613 1_545 S
S631 N633 1.610 . S
N632 S631 1.613 1_565 S
N632 C635 1.350 . S
N633 S631 1.610 . S
N633 C634 1.351 . S
C634 C628 1.428 . S
C634 N633 1.351 . S
C634 C635 1.434 1_545 S
C635 C626 1.429 . S
C635 N632 1.350 . S
C635 C634 1.434 1_565 S
C241 C88 1.785 . S
C243 C5 2.191 . S
C252 C108 1.791 . S
C254 C25 2.190 1_455 S
C263 C45 2.188 1_545 S
C265 C8 1.786 . S
C274 C65 2.190 . S
C276 C28 1.789 . S
C285 C85 2.191 1_655 S
C287 C48 1.780 . S
C296 C68 1.789 . S
C298 C105 2.191 1_565 S
C307 C168 1.787 . S
C309 C125 2.188 . S
C318 C145 2.189 1_455 S
C320 C188 1.781 . S
C329 C208 1.788 . S
C331 C165 2.188 1_545 S
C340 C185 2.189 . S
C342 C228 1.781 . S
C351 C205 2.192 1_655 S
C353 C128 1.786 . S
C362 C148 1.785 . S
C364 C225 2.188 1_565 S
C373 C94 1.812 . S
C375 C17 1.725 . S
C384 C37 1.722 . S
C386 C114 1.814 . S
C395 C57 1.717 . S
C397 C14 1.811 . S
C406 C77 1.718 . S
C408 C34 1.810 . S
C417 C54 1.809 . S
C419 C97 1.721 . S
C428 C74 1.810 . S
C430 C117 1.719 . S
C439 C174 1.809 . S
C441 C137 1.720 . S
C450 C157 1.728 . S
C452 C194 1.815 . S
C461 C177 1.717 . S
C463 C214 1.811 . S
C472 C234 1.809 . S
C474 C197 1.719 . S
C483 C217 1.721 . S
C485 C134 1.810 . S
C494 C154 1.812 . S
C496 C237 1.719 . S
C505 C202 1.781 . S
C507 C2 1.785 . S
C516 C22 1.787 . S
C518 C222 1.787 . S
C527 C42 1.780 . S
C529 C122 1.784 . S
C538 C62 1.780 . S
C540 C142 1.783 . S
C549 C82 1.784 . S
C551 C162 1.787 . S
C560 C182 1.780 . S
C562 C102 1.785 . S
C571 C193 1.876 . S
C573 C13 1.868 . S
C582 C213 1.876 . S
C584 C33 1.871 . S
C593 C53 1.876 . S
C595 C233 1.870 . S
C604 C73 1.876 . S
C606 C133 1.868 . S
C615 C153 1.873 . S
C617 C93 1.874 . S
C626 C173 1.871 . S
C628 C113 1.869 . S
