# Generated by pormake.
# Topology smu, (6)-cn, num edge types: 1
# Building blocks:
#     Node 0, Type 0, BuildingBlock: VOLQOD_clean_sbu_1, # of connection points: 6
#     Node 1, Type 0, BuildingBlock: VOLQOD_clean_sbu_1, # of connection points: 6
#     Node 2, Type 0, BuildingBlock: VOLQOD_clean_sbu_1, # of connection points: 6
#     Node 3, Type 0, BuildingBlock: VOLQOD_clean_sbu_1, # of connection points: 6
#     Node 4, Type 0, BuildingBlock: VOLQOD_clean_sbu_1, # of connection points: 6
#     Node 5, Type 0, BuildingBlock: VOLQOD_clean_sbu_1, # of connection points: 6
#     Edge 6, Type (0, 0), BuildingBlock: XIVTED_clean_linker_0, # of connection points: 2
#     Edge 7, Type (0, 0), BuildingBlock: XIVTED_clean_linker_0, # of connection points: 2
#     Edge 8, Type (0, 0), BuildingBlock: XIVTED_clean_linker_0, # of connection points: 2
#     Edge 9, Type (0, 0), BuildingBlock: XIVTED_clean_linker_0, # of connection points: 2
#     Edge 10, Type (0, 0), BuildingBlock: XIVTED_clean_linker_0, # of connection points: 2
#     Edge 11, Type (0, 0), BuildingBlock: XIVTED_clean_linker_0, # of connection points: 2
#     Edge 12, Type (0, 0), BuildingBlock: XIVTED_clean_linker_0, # of connection points: 2
#     Edge 13, Type (0, 0), BuildingBlock: XIVTED_clean_linker_0, # of connection points: 2
#     Edge 14, Type (0, 0), BuildingBlock: XIVTED_clean_linker_0, # of connection points: 2
#     Edge 15, Type (0, 0), BuildingBlock: XIVTED_clean_linker_0, # of connection points: 2
#     Edge 16, Type (0, 0), BuildingBlock: XIVTED_clean_linker_0, # of connection points: 2
#     Edge 17, Type (0, 0), BuildingBlock: XIVTED_clean_linker_0, # of connection points: 2
#     Edge 18, Type (0, 0), BuildingBlock: XIVTED_clean_linker_0, # of connection points: 2
#     Edge 19, Type (0, 0), BuildingBlock: XIVTED_clean_linker_0, # of connection points: 2
#     Edge 20, Type (0, 0), BuildingBlock: XIVTED_clean_linker_0, # of connection points: 2
#     Edge 21, Type (0, 0), BuildingBlock: XIVTED_clean_linker_0, # of connection points: 2
#     Edge 22, Type (0, 0), BuildingBlock: XIVTED_clean_linker_0, # of connection points: 2
#     Edge 23, Type (0, 0), BuildingBlock: XIVTED_clean_linker_0, # of connection points: 2
# Relax obj value: 0.300
# Max RMSD: 0.244
# Mean RMSD: 0.244
data_MOF--net-smu--node1-VOLQOD_clean_sbu_1--edge1-XIVTED_clean_linker_0
_symmetry_space_group_name_H-M    P1
_symmetry_Int_Tables_number       1
_symmetry_cell_setting            triclinic
loop_
_symmetry_equiv_pos_as_xyz
'x, y, z'
_cell_length_a     31.106547
_cell_length_b     31.244255
_cell_length_c     33.217626
_cell_angle_alpha  89.70162
_cell_angle_beta   90.201152
_cell_angle_gamma 120.4759
loop_
_atom_site_label
_atom_site_type_symbol
_atom_site_fract_x
_atom_site_fract_y
_atom_site_fract_z
_atom_type_partial_charge
O0 O 0.37653 0.17456 0.20632 0.0
Zn1 Zn 0.31998 0.10677 0.19183 0.0
O2 O 0.30854 0.05973 0.23458 0.0
Zn3 Zn 0.3189 0.0073 0.21614 0.0
Zn4 Zn 0.34972 0.09388 0.27965 0.0
Zn5 Zn 0.24194 0.03093 0.25275 0.0
O6 O 0.25652 0.93972 0.22558 0.0
O7 O 0.20192 0.96614 0.22581 0.0
O8 O 0.32986 0.08259 0.1381 0.0
O9 O 0.32701 0.01256 0.15616 0.0
O10 O 0.38365 0.01686 0.23961 0.0
O11 O 0.40655 0.08181 0.27992 0.0
O12 O 0.31373 0.06958 0.33254 0.0
O13 O 0.26342 0.12034 0.18872 0.0
O14 O 0.23659 0.01683 0.31225 0.0
O15 O 0.21712 0.0776 0.24115 0.0
C16 C 0.38777 0.19358 0.2414 0.0
C17 C 0.21213 0.93174 0.22205 0.0
C18 C 0.41491 0.04993 0.26364 0.0
C19 C 0.33088 0.04343 0.12919 0.0
C20 C 0.26866 0.03699 0.34023 0.0
C21 C 0.22838 0.11003 0.21355 0.0
O22 O 0.37584 0.16657 0.27295 0.0
O23 O 0.76174 0.58078 0.21086 0.0
Zn24 Zn 0.75637 0.64148 0.20075 0.0
O25 O 0.722 0.65191 0.24514 0.0
Zn26 Zn 0.66376 0.65297 0.22551 0.0
Zn27 Zn 0.70299 0.60063 0.28446 0.0
Zn28 Zn 0.76682 0.71226 0.27227 0.0
O29 O 0.66696 0.71714 0.24082 0.0
O30 O 0.74713 0.76158 0.25907 0.0
O31 O 0.72532 0.64085 0.14666 0.0
O32 O 0.66455 0.65401 0.16557 0.0
O33 O 0.60016 0.58984 0.2416 0.0
O34 O 0.63154 0.55168 0.27767 0.0
O35 O 0.71103 0.62545 0.34109 0.0
O36 O 0.82884 0.69457 0.20006 0.0
O37 O 0.76113 0.70618 0.33227 0.0
O38 O 0.83738 0.73545 0.25683 0.0
C39 C 0.76195 0.56104 0.24452 0.0
C40 C 0.70559 0.75814 0.25042 0.0
C41 C 0.59479 0.55243 0.26156 0.0
C42 C 0.68955 0.64824 0.13814 0.0
C43 C 0.73619 0.66908 0.35527 0.0
C44 C 0.85615 0.72621 0.22645 0.0
O45 O 0.74347 0.56829 0.27614 0.0
O46 O 0.80186 0.20289 0.22057 0.0
Zn47 Zn 0.86905 0.21134 0.20918 0.0
O48 O 0.916 0.24918 0.25164 0.0
Zn49 Zn 0.97075 0.31085 0.23096 0.0
Zn50 Zn 0.88124 0.25964 0.29455 0.0
Zn51 Zn 0.9428 0.21178 0.2739 0.0
O52 O 0.03809 0.31601 0.24062 0.0
O53 O 0.00957 0.23546 0.2515 0.0
O54 O 0.8953 0.24178 0.15431 0.0
O55 O 0.96575 0.31024 0.17113 0.0
O56 O 0.96392 0.3686 0.25023 0.0
O57 O 0.89831 0.32987 0.29117 0.0
O58 O 0.90172 0.24873 0.34963 0.0
O59 O 0.85323 0.14053 0.2104 0.0
O60 O 0.95224 0.221 0.33319 0.0
O61 O 0.89745 0.14014 0.26286 0.0
C62 C 0.78142 0.19977 0.25451 0.0
C63 C 0.04489 0.27911 0.24357 0.0
C64 C 0.93149 0.36897 0.27348 0.0
C65 C 0.93524 0.28163 0.14462 0.0
C66 C 0.93229 0.23477 0.3595 0.0
C67 C 0.8646 0.11731 0.23586 0.0
O68 O 0.8072 0.21626 0.28661 0.0
O69 O 0.17802 0.38463 0.78274 0.0
Zn70 Zn 0.10933 0.32727 0.79475 0.0
O71 O 0.06334 0.31832 0.7519 0.0
Zn72 Zn 0.01067 0.32887 0.76968 0.0
Zn73 Zn 0.09993 0.3606 0.70809 0.0
Zn74 Zn 0.03286 0.25247 0.7328 0.0
O75 O 0.94235 0.26814 0.75792 0.0
O76 O 0.9671 0.21247 0.75903 0.0
O77 O 0.08245 0.33314 0.84843 0.0
O78 O 0.01362 0.33314 0.82979 0.0
O79 O 0.0226 0.39492 0.7477 0.0
O80 O 0.08881 0.41778 0.70837 0.0
O81 O 0.07602 0.32669 0.65469 0.0
O82 O 0.12288 0.2709 0.79524 0.0
O83 O 0.0197 0.25015 0.67354 0.0
O84 O 0.07826 0.22595 0.74307 0.0
C85 C 0.19864 0.39661 0.74816 0.0
C86 C 0.93303 0.22348 0.76149 0.0
C87 C 0.05678 0.42633 0.72436 0.0
C88 C 0.04306 0.33424 0.85704 0.0
C89 C 0.04169 0.28275 0.64623 0.0
C90 C 0.11141 0.23629 0.76992 0.0
O91 O 0.17276 0.38551 0.71597 0.0
O92 O 0.21018 0.8116 0.76491 0.0
Zn93 Zn 0.2188 0.8779 0.77793 0.0
O94 O 0.25013 0.92531 0.73425 0.0
Zn95 Zn 0.31343 0.98082 0.75284 0.0
Zn96 Zn 0.25848 0.8909 0.68981 0.0
Zn97 Zn 0.20813 0.94966 0.71561 0.0
O98 O 0.31822 0.04736 0.74317 0.0
O99 O 0.2376 0.0195 0.73175 0.0
O100 O 0.254 0.90438 0.831 0.0
O101 O 0.31794 0.9776 0.81296 0.0
O102 O 0.37015 0.97518 0.72936 0.0
O103 O 0.32982 0.91053 0.68822 0.0
O104 O 0.24076 0.90855 0.63645 0.0
O105 O 0.14853 0.86178 0.7841 0.0
O106 O 0.20493 0.95111 0.65515 0.0
O107 O 0.13965 0.9097 0.73903 0.0
C108 C 0.20473 0.79128 0.73068 0.0
C109 C 0.28171 0.05464 0.73872 0.0
C110 C 0.36991 0.94403 0.70451 0.0
C111 C 0.29259 0.94566 0.83995 0.0
C112 C 0.21979 0.93334 0.62777 0.0
C113 C 0.12199 0.87632 0.76629 0.0
O114 O 0.21797 0.8169 0.69834 0.0
O115 O 0.57334 0.77205 0.76928 0.0
Zn116 Zn 0.63483 0.77019 0.78443 0.0
O117 O 0.64911 0.73632 0.74257 0.0
Zn118 Zn 0.65471 0.68182 0.76363 0.0
Zn119 Zn 0.60074 0.71398 0.70123 0.0
Zn120 Zn 0.70935 0.78338 0.71759 0.0
O121 O 0.72585 0.69553 0.75771 0.0
O122 O 0.76131 0.77688 0.74566 0.0
O123 O 0.63107 0.73997 0.83976 0.0
O124 O 0.64667 0.68047 0.82293 0.0
O125 O 0.59672 0.61554 0.74453 0.0
O126 O 0.55348 0.64267 0.70994 0.0
O127 O 0.631 0.71923 0.64706 0.0
O128 O 0.68625 0.84346 0.78493 0.0
O129 O 0.71157 0.76894 0.659 0.0
O130 O 0.72155 0.85216 0.72512 0.0
C131 C 0.55651 0.77187 0.73414 0.0
C132 C 0.76393 0.73939 0.75728 0.0
C133 C 0.55764 0.60759 0.72538 0.0
C134 C 0.63783 0.7042 0.84942 0.0
C135 C 0.67606 0.74185 0.63514 0.0
C136 C 0.71305 0.87077 0.75596 0.0
O137 O 0.56672 0.7535 0.704 0.0
H138 H 0.26003 0.88412 0.90598 0.0
H139 H 0.35498 0.10442 0.06292 0.0
H140 H 0.35403 0.03782 0.87145 0.0
H141 H 0.31109 0.95446 0.09815 0.0
H142 H 0.35197 0.08085 0.99229 0.0
H143 H 0.27547 0.90884 0.97675 0.0
C144 C 0.28427 0.92296 0.91326 0.0
C145 C 0.30562 0.95894 0.88274 0.0
C146 C 0.3435 0.05331 0.01558 0.0
C147 C 0.32281 0.98751 0.96353 0.0
C148 C 0.34505 0.0667 0.05585 0.0
C149 C 0.33311 0.03136 0.08651 0.0
C150 C 0.32909 0.00408 0.00592 0.0
C151 C 0.32065 0.983 0.07557 0.0
C152 C 0.29313 0.93704 0.95363 0.0
C153 C 0.33683 0.00877 0.89395 0.0
N154 N 0.31843 0.97066 0.03618 0.0
N155 N 0.34399 0.02166 0.93344 0.0
H156 H 0.76365 0.79471 0.59307 0.0
H157 H 0.66983 0.60363 0.41016 0.0
H158 H 0.61431 0.66846 0.58355 0.0
H159 H 0.79311 0.75411 0.39861 0.0
H160 H 0.65722 0.62153 0.47912 0.0
H161 H 0.78204 0.77588 0.5259 0.0
C162 C 0.73472 0.76321 0.57683 0.0
C163 C 0.6873 0.73324 0.59384 0.0
C164 C 0.6872 0.65051 0.46152 0.0
C165 C 0.70839 0.71111 0.51769 0.0
C166 C 0.69469 0.64024 0.42226 0.0
C167 C 0.73237 0.67755 0.39848 0.0
C168 C 0.71788 0.69825 0.47726 0.0
C169 C 0.76337 0.72435 0.4158 0.0
C170 C 0.74526 0.7525 0.53861 0.0
C171 C 0.65124 0.69281 0.57152 0.0
N172 N 0.75536 0.73345 0.45418 0.0
N173 N 0.66264 0.68278 0.53471 0.0
H174 H 0.87565 0.24266 0.07775 0.0
H175 H 0.10206 0.35691 0.92427 0.0
H176 H 0.02679 0.34738 0.11407 0.0
H177 H 0.9509 0.30704 0.88654 0.0
H178 H 0.07508 0.34792 -0.00546 0.0
H179 H 0.90213 0.25991 0.00718 0.0
C180 C 0.91424 0.26943 0.07091 0.0
C181 C 0.94903 0.29356 0.10182 0.0
C182 C 0.04799 0.33939 0.97078 0.0
C183 C 0.97955 0.31287 0.02155 0.0
C184 C 0.06333 0.34439 0.93076 0.0
C185 C 0.02871 0.33272 0.89955 0.0
C186 C -0.00244 0.3217 0.97956 0.0
C187 C 0.97894 0.31669 0.90965 0.0
C188 C 0.92927 0.27935 0.03071 0.0
C189 C -0.0014 0.328 0.09124 0.0
N190 N 0.96473 0.31114 0.94881 0.0
N191 N 0.01248 0.33624 0.05201 0.0
H192 H 0.19971 0.94455 0.36723 0.0
H193 H 0.22396 0.01691 0.59828 0.0
H194 H 0.30474 0.09242 0.40845 0.0
H195 H 0.21098 0.87877 0.56082 0.0
H196 H 0.23012 0.04182 0.5274 0.0
H197 H 0.18065 0.9169 0.43769 0.0
C198 C 0.21819 0.97127 0.39111 0.0
C199 C 0.25401 0.02075 0.3822 0.0
C200 C 0.22529 0.00584 0.53485 0.0
C201 C 0.23173 0.98969 0.46216 0.0
C202 C 0.22144 -0.00855 0.57511 0.0
C203 C 0.21717 0.9458 0.58529 0.0
C204 C 0.22355 0.97381 0.50467 0.0
C205 C 0.21457 0.9144 0.55415 0.0
C206 C 0.20748 0.95544 0.4311 0.0
C207 C 0.27718 0.05388 0.41416 0.0
N208 N 0.21767 0.92893 0.51509 0.0
N209 N 0.26544 0.03781 0.45283 0.0
H210 H 0.66267 0.63809 0.87921 0.0
H211 H 0.63119 0.68406 0.11 0.0
H212 H 0.6176 0.74159 0.91728 0.0
H213 H 0.72136 0.62362 0.0696 0.0
H214 H 0.61455 0.69494 0.04001 0.0
H215 H 0.67217 0.62174 0.94928 0.0
C216 C 0.65434 0.65719 0.90227 0.0
C217 C 0.63949 0.69157 0.8922 0.0
C218 C 0.63788 0.67922 0.0465 0.0
C219 C 0.6505 0.67276 0.97281 0.0
C220 C 0.64727 0.67273 0.08643 0.0
C221 C 0.67784 0.65288 0.09572 0.0
C222 C 0.65867 0.66526 0.01553 0.0
C223 C 0.69776 0.63918 0.06386 0.0
C224 C 0.66007 0.64792 0.94234 0.0
C225 C 0.62929 0.71498 0.9236 0.0
N226 N 0.68772 0.64554 0.02515 0.0
N227 N 0.63503 0.70515 0.96258 0.0
H228 H 0.02021 0.24781 0.38799 0.0
H229 H 0.94837 0.21636 0.61907 0.0
H230 H 0.87878 0.22734 0.4272 0.0
H231 H 0.09709 0.32151 0.57809 0.0
H232 H 0.92009 0.20091 0.54875 0.0
H233 H 0.04674 0.25578 0.45836 0.0
C234 C -0.00544 0.2445 0.41144 0.0
C235 C 0.94729 0.23709 0.4019 0.0
C236 C 0.95892 0.22709 0.55534 0.0
C237 C 0.9772 0.24549 0.48202 0.0
C238 C 0.97514 0.23567 0.59524 0.0
C239 C 0.02509 0.27033 0.60419 0.0
C240 C -0.00679 0.25242 0.52439 0.0
C241 C 0.05823 0.29472 0.57234 0.0
C242 C 0.00985 0.24929 0.45143 0.0
C243 C 0.91564 0.23338 0.43339 0.0
N244 N 0.04174 0.28507 0.53371 0.0
N245 N 0.93108 0.23735 0.47224 0.0
H246 H 0.4785 0.0927 0.32668 0.0
H247 H 0.71366 0.14584 0.19569 0.0
H248 H 0.46644 0.02561 0.21084 0.0
H249 H 0.72375 0.19123 0.31963 0.0
H250 H 0.62298 0.09867 0.20161 0.0
H251 H 0.56783 0.12332 0.32688 0.0
C252 C 0.49457 0.08351 0.30166 0.0
C253 C 0.46522 0.05706 0.26849 0.0
C254 C 0.64505 0.11877 0.22756 0.0
C255 C 0.56761 0.09307 0.26801 0.0
C256 C 0.69685 0.14614 0.22411 0.0
C257 C 0.72642 0.17299 0.25712 0.0
C258 C 0.62255 0.11851 0.26418 0.0
C259 C 0.70249 0.17139 0.29331 0.0
C260 C 0.54562 0.1012 0.30169 0.0
C261 C 0.48778 0.04591 0.23698 0.0
N262 N 0.65196 0.14485 0.29579 0.0
N263 N 0.53793 0.0648 0.23716 0.0
H264 H 0.52982 0.50847 0.19926 0.0
H265 H 0.41537 0.24699 0.31113 0.0
H266 H 0.55342 0.48945 0.32446 0.0
H267 H 0.41136 0.26366 0.18219 0.0
H268 H 0.45052 0.33604 0.31852 0.0
H269 H 0.468 0.41952 0.1953 0.0
C270 C 0.52044 0.48589 0.22626 0.0
C271 C 0.54685 0.50575 0.26211 0.0
C272 C 0.4418 0.32023 0.2886 0.0
C273 C 0.47782 0.40466 0.25766 0.0
C274 C 0.42207 0.26937 0.28431 0.0
C275 C 0.41115 0.24786 0.24591 0.0
C276 C 0.45091 0.35 0.25427 0.0
C277 C 0.41994 0.27874 0.21234 0.0
C278 C 0.48579 0.43511 0.22389 0.0
C279 C 0.53402 0.47512 0.29618 0.0
N280 N 0.43964 0.32837 0.21728 0.0
N281 N 0.50092 0.42587 0.29298 0.0
H282 H 0.89622 0.39866 0.33539 0.0
H283 H 0.81963 0.5505 0.18754 0.0
H284 H 0.94923 0.43564 0.21317 0.0
H285 H 0.77042 0.51392 0.31093 0.0
H286 H 0.8733 0.51521 0.19751 0.0
H287 H 0.86025 0.45185 0.32956 0.0
C288 C 0.90148 0.4192 0.30768 0.0
C289 C 0.92515 0.41244 0.27456 0.0
C290 C 0.85077 0.515 0.22237 0.0
C291 C 0.88257 0.47185 0.26707 0.0
C292 C 0.81967 0.53461 0.21659 0.0
C293 C 0.79014 0.53486 0.24837 0.0
C294 C 0.85226 0.49545 0.26016 0.0
C295 C 0.79227 0.51434 0.28548 0.0
C296 C 0.88051 0.44916 0.30418 0.0
C297 C 0.93118 0.43993 0.23939 0.0
N298 N 0.82275 0.49547 0.2903 0.0
N299 N 0.90901 0.46772 0.23623 0.0
H300 H 0.10052 0.48955 0.66127 0.0
H301 H 0.15448 0.72411 0.79074 0.0
H302 H 0.03254 0.478 0.77688 0.0
H303 H 0.19414 0.73369 0.66516 0.0
H304 H 0.10819 0.63382 0.78571 0.0
H305 H 0.13097 0.57846 0.6604 0.0
C306 C 0.09115 0.50565 0.68612 0.0
C307 C 0.06443 0.47658 0.7194 0.0
C308 C 0.12682 0.65567 0.75921 0.0
C309 C 0.10016 0.57842 0.71907 0.0
C310 C 0.15373 0.70726 0.76214 0.0
C311 C 0.17869 0.73656 0.72839 0.0
C312 C 0.1252 0.6331 0.72239 0.0
C313 C 0.17575 0.71259 0.69201 0.0
C314 C 0.10869 0.55643 0.68567 0.0
C315 C 0.05304 0.49915 0.75066 0.0
N316 N 0.14975 0.66223 0.69005 0.0
N317 N 0.07179 0.54903 0.75009 0.0
H318 H 0.44637 0.97261 0.75817 0.0
H319 H 0.51384 0.77963 0.66437 0.0
H320 H 0.39253 0.9016 0.64301 0.0
H321 H 0.54486 0.83188 0.78716 0.0
H322 H 0.48214 0.83553 0.65118 0.0
H323 H 0.50027 0.93695 0.76234 0.0
C324 C 0.44718 0.95098 0.73311 0.0
C325 C 0.41415 0.93896 0.70064 0.0
C326 C 0.49592 0.83473 0.68099 0.0
C327 C 0.47439 0.89715 0.70572 0.0
C328 C 0.51354 0.80246 0.68867 0.0
C329 C 0.53152 0.80063 0.72706 0.0
C330 C 0.4964 0.86546 0.71186 0.0
C331 C 0.53078 0.83153 0.75724 0.0
C332 C 0.47741 0.93004 0.73577 0.0
C333 C 0.41676 0.91084 0.66898 0.0
N334 N 0.51348 0.86268 0.74898 0.0
N335 N 0.44562 0.89001 0.67267 0.0
H336 H 0.26678 0.41928 0.80907 0.0
H337 H 0.49788 0.55968 0.66209 0.0
H338 H 0.25528 0.42602 0.67981 0.0
H339 H 0.51334 0.54701 0.78985 0.0
H340 H 0.40971 0.49683 0.6669 0.0
H341 H 0.35697 0.45582 0.8023 0.0
C342 C 0.28316 0.42856 0.77928 0.0
C343 C 0.25343 0.42027 0.74499 0.0
C344 C 0.43244 0.5067 0.69383 0.0
C345 C 0.35647 0.46128 0.73704 0.0
C346 C 0.48289 0.54211 0.69094 0.0
C347 C 0.51249 0.5584 0.72565 0.0
C348 C 0.41133 0.48854 0.7319 0.0
C349 C 0.49154 0.53505 0.7624 0.0
C350 C 0.33461 0.44895 0.77543 0.0
C351 C 0.27667 0.43229 0.70716 0.0
N352 N 0.44173 0.50205 0.7648 0.0
N353 N 0.32676 0.45245 0.70426 0.0
H354 H 0.22769 0.17114 0.15392 0.0
H355 H 0.107 0.28203 0.30132 0.0
H356 H 0.18161 0.1243 0.27659 0.0
H357 H 0.08893 0.28145 0.17272 0.0
H358 H 0.16297 0.24936 0.29239 0.0
H359 H 0.19877 0.23092 0.16019 0.0
C360 C 0.21121 0.17316 0.18199 0.0
C361 C 0.20637 0.14219 0.21461 0.0
C362 C 0.1481 0.25792 0.26601 0.0
C363 C 0.17551 0.21153 0.22235 0.0
C364 C 0.11705 0.27748 0.27109 0.0
C365 C 0.09388 0.28457 0.23767 0.0
C366 C 0.15529 0.2449 0.22728 0.0
C367 C 0.10678 0.27687 0.19912 0.0
C368 C 0.19524 0.2075 0.18561 0.0
C369 C 0.18535 0.14675 0.25044 0.0
N370 N 0.13596 0.25632 0.19489 0.0
N371 N 0.17094 0.18091 0.25338 0.0
H372 H 0.92301 0.76587 0.28782 0.0
H373 H 0.15993 0.89002 0.15408 0.0
H374 H 0.9131 0.73507 0.16049 0.0
H375 H 0.16546 0.86408 0.28089 0.0
H376 H 0.07121 0.82673 0.15343 0.0
H377 H 0.01263 0.79917 0.28491 0.0
C378 C 0.93977 0.76643 0.25914 0.0
C379 C 0.91071 0.74845 0.22419 0.0
C380 C 0.09218 0.83341 0.18109 0.0
C381 C 0.01337 0.78604 0.22075 0.0
C382 C 0.14287 0.86901 0.18131 0.0
C383 C 0.1696 0.88162 0.21753 0.0
C384 C 0.06828 0.8118 0.21764 0.0
C385 C 0.14591 0.85472 0.25234 0.0
C386 C -0.00913 0.78473 0.25763 0.0
C387 C 0.9343 0.74909 0.18805 0.0
N388 N 0.09611 0.82184 0.2518 0.0
N389 N 0.9845 0.7683 0.18711 0.0
H390 H 0.86304 0.05748 0.29617 0.0
H391 H 0.68905 0.80391 0.18733 0.0
H392 H 0.79657 0.05297 0.18065 0.0
H393 H 0.72419 0.81783 0.31387 0.0
H394 H 0.71993 0.8935 0.18415 0.0
H395 H 0.80881 0.96851 0.30243 0.0
C396 C 0.8373 0.0377 0.27187 0.0
C397 C 0.83469 0.0627 0.23765 0.0
C398 C 0.7193 0.87662 0.21287 0.0
C399 C 0.77167 0.9603 0.2449 0.0
C400 C 0.70114 0.82556 0.21474 0.0
C401 C 0.70445 0.80417 0.2509 0.0
C402 C 0.74113 0.90568 0.24733 0.0
C403 C 0.72127 0.83342 0.28549 0.0
C404 C 0.80575 0.98682 0.27572 0.0
C405 C 0.80001 0.03502 0.20743 0.0
N406 N 0.73982 0.88294 0.28273 0.0
N407 N 0.77 0.98504 0.21159 0.0
H408 H 0.11777 0.18421 0.70719 0.0
H409 H 0.29254 0.10447 0.80801 0.0
H410 H 0.17912 0.23955 0.82519 0.0
H411 H 0.27787 0.11159 0.67959 0.0
H412 H 0.25853 0.15952 0.81675 0.0
H413 H 0.17753 0.15687 0.6985 0.0
C414 C 0.14341 0.19008 0.73156 0.0
C415 C 0.14311 0.21385 0.76714 0.0
C416 C 0.26468 0.1507 0.7866 0.0
C417 C 0.21252 0.18329 0.757 0.0
C418 C 0.28485 0.12003 0.78162 0.0
C419 C 0.28788 0.10385 0.74304 0.0
C420 C 0.24687 0.16402 0.75272 0.0
C421 C 0.27619 0.12363 0.70978 0.0
C422 C 0.17817 0.1752 0.72627 0.0
C423 C 0.17787 0.22105 0.79738 0.0
N424 N 0.25496 0.15176 0.71538 0.0
N425 N 0.21102 0.20539 0.79178 0.0
H426 H 0.05916 0.77863 0.78425 0.0
H427 H 0.8266 0.81709 0.80256 0.0
H428 H 0.06444 0.91848 0.76925 0.0
H429 H 0.81095 0.68527 0.74722 0.0
H430 H 0.91396 0.8458 0.81615 0.0
H431 H 0.96814 0.73717 0.79333 0.0
C432 C 0.04118 0.80061 0.78361 0.0
C433 C 0.0688 0.85186 0.7758 0.0
C434 C 0.89123 0.8102 0.80166 0.0
C435 C 0.96632 0.80531 0.7869 0.0
C436 C 0.84154 0.7938 0.79386 0.0
C437 C 0.81228 0.74948 0.77278 0.0
C438 C 0.91189 0.78225 0.78808 0.0
C439 C 0.8328 0.71998 0.76309 0.0
C440 C -0.01041 0.77698 0.78863 0.0
C441 C 0.0442 0.87884 0.77489 0.0
N442 N 0.88211 0.73746 0.77014 0.0
N443 N -0.00576 0.85519 0.78045 0.0
H444 H 0.88774 0.17066 0.82855 0.0
H445 H 0.74558 0.93616 0.69312 0.0
H446 H 0.86637 0.17945 0.70133 0.0
H447 H 0.72608 0.92851 0.82207 0.0
H448 H 0.78282 0.02599 0.69603 0.0
H449 H 0.81956 0.08416 0.82862 0.0
C450 C 0.86694 0.15486 0.80103 0.0
C451 C 0.88197 0.18187 0.76497 0.0
C452 C 0.76987 0.00471 0.72369 0.0
C453 C 0.80623 0.08273 0.7642 0.0
C454 C 0.74909 0.95342 0.72209 0.0
C455 C 0.73361 0.92494 0.75751 0.0
C456 C 0.77616 0.02794 0.76108 0.0
C457 C 0.73809 0.94917 0.79409 0.0
C458 C 0.82845 0.10539 0.80092 0.0
C459 C 0.85516 0.15972 0.72979 0.0
N460 N 0.75976 -0.00055 0.79503 0.0
N461 N 0.81922 0.11095 0.73006 0.0
loop_
_geom_bond_atom_site_label_1
_geom_bond_atom_site_label_2
_geom_bond_distance
_geom_bond_site_symmetry_2
_ccdc_geom_bond_type
O0 Zn1 1.953 . S
O0 C16 1.225 . S
Zn1 O0 1.953 . S
Zn1 O2 1.949 . S
Zn1 O8 1.919 . S
Zn1 O13 1.924 . S
O2 Zn1 1.949 . S
O2 Zn3 1.923 . S
O2 Zn4 1.950 . S
O2 Zn5 1.945 . S
Zn3 O2 1.923 . S
Zn3 O6 1.933 1_545 S
Zn3 O9 1.941 . S
Zn3 O10 1.965 . S
Zn4 O2 1.950 . S
Zn4 O11 1.938 . S
Zn4 O12 1.906 . S
Zn4 O22 1.953 . S
Zn5 O2 1.945 . S
Zn5 O7 1.932 1_545 S
Zn5 O14 1.977 . S
Zn5 O15 1.910 . S
O6 Zn3 1.933 1_565 S
O6 C17 1.226 . S
O7 Zn5 1.932 1_565 S
O7 C17 1.307 . S
O8 Zn1 1.919 . S
O8 C19 1.253 . S
O9 Zn3 1.941 . S
O9 C19 1.283 . S
O10 Zn3 1.965 . S
O10 C18 1.303 . S
O11 Zn4 1.938 . S
O11 C18 1.247 . S
O12 Zn4 1.906 . S
O12 C20 1.304 . S
O13 Zn1 1.924 . S
O13 C21 1.311 . S
O14 Zn5 1.977 . S
O14 C20 1.272 . S
O15 Zn5 1.910 . S
O15 C21 1.231 . S
C16 O0 1.225 . S
C16 O22 1.298 . S
C17 O6 1.226 . S
C17 O7 1.307 . S
C18 O10 1.303 . S
C18 O11 1.247 . S
C19 O8 1.253 . S
C19 O9 1.283 . S
C20 O12 1.304 . S
C20 O14 1.272 . S
C21 O13 1.311 . S
C21 O15 1.231 . S
O22 Zn4 1.953 . S
O22 C16 1.298 . S
O23 Zn24 1.953 . S
O23 C39 1.225 . S
Zn24 O23 1.953 . S
Zn24 O25 1.949 . S
Zn24 O31 1.919 . S
Zn24 O36 1.924 . S
O25 Zn24 1.949 . S
O25 Zn26 1.923 . S
O25 Zn27 1.950 . S
O25 Zn28 1.945 . S
Zn26 O25 1.923 . S
Zn26 O29 1.933 . S
Zn26 O32 1.941 . S
Zn26 O33 1.965 . S
Zn27 O25 1.950 . S
Zn27 O34 1.938 . S
Zn27 O35 1.906 . S
Zn27 O45 1.953 . S
Zn28 O25 1.945 . S
Zn28 O30 1.932 . S
Zn28 O37 1.977 . S
Zn28 O38 1.910 . S
O29 Zn26 1.933 . S
O29 C40 1.226 . S
O30 Zn28 1.932 . S
O30 C40 1.307 . S
O31 Zn24 1.919 . S
O31 C42 1.253 . S
O32 Zn26 1.941 . S
O32 C42 1.283 . S
O33 Zn26 1.965 . S
O33 C41 1.303 . S
O34 Zn27 1.938 . S
O34 C41 1.247 . S
O35 Zn27 1.906 . S
O35 C43 1.304 . S
O36 Zn24 1.924 . S
O36 C44 1.311 . S
O37 Zn28 1.977 . S
O37 C43 1.272 . S
O38 Zn28 1.910 . S
O38 C44 1.231 . S
C39 O23 1.225 . S
C39 O45 1.298 . S
C40 O29 1.226 . S
C40 O30 1.307 . S
C41 O33 1.303 . S
C41 O34 1.247 . S
C42 O31 1.253 . S
C42 O32 1.283 . S
C43 O35 1.304 . S
C43 O37 1.272 . S
C44 O36 1.311 . S
C44 O38 1.231 . S
O45 Zn27 1.953 . S
O45 C39 1.298 . S
O46 Zn47 1.953 . S
O46 C62 1.225 . S
Zn47 O46 1.953 . S
Zn47 O48 1.949 . S
Zn47 O54 1.919 . S
Zn47 O59 1.924 . S
O48 Zn47 1.949 . S
O48 Zn49 1.923 . S
O48 Zn50 1.950 . S
O48 Zn51 1.945 . S
Zn49 O48 1.923 . S
Zn49 O52 1.933 1_655 S
Zn49 O55 1.941 . S
Zn49 O56 1.965 . S
Zn50 O48 1.950 . S
Zn50 O57 1.938 . S
Zn50 O58 1.906 . S
Zn50 O68 1.953 . S
Zn51 O48 1.945 . S
Zn51 O53 1.932 1_655 S
Zn51 O60 1.977 . S
Zn51 O61 1.910 . S
O52 Zn49 1.933 1_455 S
O52 C63 1.226 . S
O53 Zn51 1.932 1_455 S
O53 C63 1.307 . S
O54 Zn47 1.919 . S
O54 C65 1.253 . S
O55 Zn49 1.941 . S
O55 C65 1.283 . S
O56 Zn49 1.965 . S
O56 C64 1.303 . S
O57 Zn50 1.938 . S
O57 C64 1.247 . S
O58 Zn50 1.906 . S
O58 C66 1.304 . S
O59 Zn47 1.924 . S
O59 C67 1.311 . S
O60 Zn51 1.977 . S
O60 C66 1.272 . S
O61 Zn51 1.910 . S
O61 C67 1.231 . S
C62 O46 1.225 . S
C62 O68 1.298 . S
C63 O52 1.226 . S
C63 O53 1.307 . S
C64 O56 1.303 . S
C64 O57 1.247 . S
C65 O54 1.253 . S
C65 O55 1.283 . S
C66 O58 1.304 . S
C66 O60 1.272 . S
C67 O59 1.311 . S
C67 O61 1.231 . S
O68 Zn50 1.953 . S
O68 C62 1.298 . S
O69 Zn70 1.953 . S
O69 C85 1.225 . S
Zn70 O69 1.953 . S
Zn70 O71 1.949 . S
Zn70 O77 1.919 . S
Zn70 O82 1.924 . S
O71 Zn70 1.949 . S
O71 Zn72 1.923 . S
O71 Zn73 1.950 . S
O71 Zn74 1.945 . S
Zn72 O71 1.923 . S
Zn72 O75 1.933 1_455 S
Zn72 O78 1.941 . S
Zn72 O79 1.965 . S
Zn73 O71 1.950 . S
Zn73 O80 1.938 . S
Zn73 O81 1.906 . S
Zn73 O91 1.953 . S
Zn74 O71 1.945 . S
Zn74 O76 1.932 1_455 S
Zn74 O83 1.977 . S
Zn74 O84 1.910 . S
O75 Zn72 1.933 1_655 S
O75 C86 1.226 . S
O76 Zn74 1.932 1_655 S
O76 C86 1.307 . S
O77 Zn70 1.919 . S
O77 C88 1.253 . S
O78 Zn72 1.941 . S
O78 C88 1.283 . S
O79 Zn72 1.965 . S
O79 C87 1.303 . S
O80 Zn73 1.938 . S
O80 C87 1.247 . S
O81 Zn73 1.906 . S
O81 C89 1.304 . S
O82 Zn70 1.924 . S
O82 C90 1.311 . S
O83 Zn74 1.977 . S
O83 C89 1.272 . S
O84 Zn74 1.910 . S
O84 C90 1.231 . S
C85 O69 1.225 . S
C85 O91 1.298 . S
C86 O75 1.226 . S
C86 O76 1.307 . S
C87 O79 1.303 . S
C87 O80 1.247 . S
C88 O77 1.253 . S
C88 O78 1.283 . S
C89 O81 1.304 . S
C89 O83 1.272 . S
C90 O82 1.311 . S
C90 O84 1.231 . S
O91 Zn73 1.953 . S
O91 C85 1.298 . S
O92 Zn93 1.953 . S
O92 C108 1.225 . S
Zn93 O92 1.953 . S
Zn93 O94 1.949 . S
Zn93 O100 1.919 . S
Zn93 O105 1.924 . S
O94 Zn93 1.949 . S
O94 Zn95 1.923 . S
O94 Zn96 1.950 . S
O94 Zn97 1.945 . S
Zn95 O94 1.923 . S
Zn95 O98 1.933 1_565 S
Zn95 O101 1.941 . S
Zn95 O102 1.965 . S
Zn96 O94 1.950 . S
Zn96 O103 1.938 . S
Zn96 O104 1.906 . S
Zn96 O114 1.953 . S
Zn97 O94 1.945 . S
Zn97 O99 1.932 1_565 S
Zn97 O106 1.977 . S
Zn97 O107 1.910 . S
O98 Zn95 1.933 1_545 S
O98 C109 1.226 . S
O99 Zn97 1.932 1_545 S
O99 C109 1.307 . S
O100 Zn93 1.919 . S
O100 C111 1.253 . S
O101 Zn95 1.941 . S
O101 C111 1.283 . S
O102 Zn95 1.965 . S
O102 C110 1.303 . S
O103 Zn96 1.938 . S
O103 C110 1.247 . S
O104 Zn96 1.906 . S
O104 C112 1.304 . S
O105 Zn93 1.924 . S
O105 C113 1.311 . S
O106 Zn97 1.977 . S
O106 C112 1.272 . S
O107 Zn97 1.910 . S
O107 C113 1.231 . S
C108 O92 1.225 . S
C108 O114 1.298 . S
C109 O98 1.226 . S
C109 O99 1.307 . S
C110 O102 1.303 . S
C110 O103 1.247 . S
C111 O100 1.253 . S
C111 O101 1.283 . S
C112 O104 1.304 . S
C112 O106 1.272 . S
C113 O105 1.311 . S
C113 O107 1.231 . S
O114 Zn96 1.953 . S
O114 C108 1.298 . S
O115 Zn116 1.953 . S
O115 C131 1.225 . S
Zn116 O115 1.953 . S
Zn116 O117 1.949 . S
Zn116 O123 1.919 . S
Zn116 O128 1.924 . S
O117 Zn116 1.949 . S
O117 Zn118 1.923 . S
O117 Zn119 1.950 . S
O117 Zn120 1.945 . S
Zn118 O117 1.923 . S
Zn118 O121 1.933 . S
Zn118 O124 1.941 . S
Zn118 O125 1.965 . S
Zn119 O117 1.950 . S
Zn119 O126 1.938 . S
Zn119 O127 1.906 . S
Zn119 O137 1.953 . S
Zn120 O117 1.945 . S
Zn120 O122 1.932 . S
Zn120 O129 1.977 . S
Zn120 O130 1.910 . S
O121 Zn118 1.933 . S
O121 C132 1.226 . S
O122 Zn120 1.932 . S
O122 C132 1.307 . S
O123 Zn116 1.919 . S
O123 C134 1.253 . S
O124 Zn118 1.941 . S
O124 C134 1.283 . S
O125 Zn118 1.965 . S
O125 C133 1.303 . S
O126 Zn119 1.938 . S
O126 C133 1.247 . S
O127 Zn119 1.906 . S
O127 C135 1.304 . S
O128 Zn116 1.924 . S
O128 C136 1.311 . S
O129 Zn120 1.977 . S
O129 C135 1.272 . S
O130 Zn120 1.910 . S
O130 C136 1.231 . S
C131 O115 1.225 . S
C131 O137 1.298 . S
C132 O121 1.226 . S
C132 O122 1.307 . S
C133 O125 1.303 . S
C133 O126 1.247 . S
C134 O123 1.253 . S
C134 O124 1.283 . S
C135 O127 1.304 . S
C135 O129 1.272 . S
C136 O128 1.311 . S
C136 O130 1.231 . S
O137 Zn119 1.953 . S
O137 C131 1.298 . S
H138 C144 0.930 . S
H139 C148 0.930 . S
H140 C153 0.929 . S
H141 C151 0.929 . S
H142 C146 0.929 . S
H143 C152 0.929 . S
C144 H138 0.930 . S
C144 C145 1.367 . S
C144 C152 1.378 . S
C145 C144 1.367 . S
C145 C153 1.433 . S
C146 H142 0.929 . S
C146 C148 1.378 . S
C146 C150 1.350 . S
C147 C150 1.463 1_566 S
C147 C152 1.350 . S
C147 N155 1.427 . S
C148 H139 0.930 . S
C148 C146 1.378 . S
C148 C149 1.367 . S
C149 C148 1.367 . S
C149 C151 1.433 . S
C150 C146 1.350 . S
C150 C147 1.463 1_544 S
C150 N154 1.427 . S
C151 H141 0.929 . S
C151 C149 1.433 . S
C151 N154 1.384 . S
C152 H143 0.929 . S
C152 C144 1.378 . S
C152 C147 1.350 . S
C153 H140 0.929 . S
C153 C145 1.433 . S
C153 N155 1.384 . S
N154 C150 1.427 . S
N154 C151 1.384 . S
N155 C147 1.427 . S
N155 C153 1.384 . S
H156 C162 0.930 . S
H157 C166 0.930 . S
H158 C171 0.929 . S
H159 C169 0.929 . S
H160 C164 0.929 . S
H161 C170 0.929 . S
C162 H156 0.930 . S
C162 C163 1.367 . S
C162 C170 1.378 . S
C163 C162 1.367 . S
C163 C171 1.433 . S
C164 H160 0.929 . S
C164 C166 1.378 . S
C164 C168 1.350 . S
C165 C168 1.463 . S
C165 C170 1.350 . S
C165 N173 1.427 . S
C166 H157 0.930 . S
C166 C164 1.378 . S
C166 C167 1.367 . S
C167 C166 1.367 . S
C167 C169 1.433 . S
C168 C164 1.350 . S
C168 C165 1.463 . S
C168 N172 1.427 . S
C169 H159 0.929 . S
C169 C167 1.433 . S
C169 N172 1.384 . S
C170 H161 0.929 . S
C170 C162 1.378 . S
C170 C165 1.350 . S
C171 H158 0.929 . S
C171 C163 1.433 . S
C171 N173 1.384 . S
N172 C168 1.427 . S
N172 C169 1.384 . S
N173 C165 1.427 . S
N173 C171 1.384 . S
H174 C180 0.930 . S
H175 C184 0.930 . S
H176 C189 0.929 1_455 S
H177 C187 0.929 1_655 S
H178 C182 0.929 . S
H179 C188 0.929 . S
C180 H174 0.930 . S
C180 C181 1.367 . S
C180 C188 1.378 . S
C181 C180 1.367 . S
C181 C189 1.433 . S
C182 H178 0.929 . S
C182 C184 1.378 . S
C182 C186 1.350 . S
C183 C186 1.463 1_654 S
C183 C188 1.350 . S
C183 N191 1.427 1_655 S
C184 H175 0.930 . S
C184 C182 1.378 . S
C184 C185 1.367 . S
C185 C184 1.367 . S
C185 C187 1.433 . S
C186 C182 1.350 . S
C186 C183 1.463 1_456 S
C186 N190 1.427 1_455 S
C187 H177 0.929 1_455 S
C187 C185 1.433 . S
C187 N190 1.384 1_455 S
C188 H179 0.929 . S
C188 C180 1.378 . S
C188 C183 1.350 . S
C189 H176 0.929 1_655 S
C189 C181 1.433 . S
C189 N191 1.384 1_655 S
N190 C186 1.427 1_655 S
N190 C187 1.384 1_655 S
N191 C183 1.427 1_455 S
N191 C189 1.384 1_455 S
H192 C198 0.930 1_565 S
H193 C202 0.930 1_545 S
H194 C207 0.929 . S
H195 C205 0.929 . S
H196 C200 0.929 . S
H197 C206 0.929 . S
C198 H192 0.930 1_545 S
C198 C199 1.367 . S
C198 C206 1.378 1_545 S
C199 C198 1.367 . S
C199 C207 1.433 . S
C200 H196 0.929 . S
C200 C202 1.378 1_545 S
C200 C204 1.350 1_545 S
C201 C204 1.463 1_545 S
C201 C206 1.350 1_545 S
C201 N209 1.427 . S
C202 H193 0.930 1_565 S
C202 C200 1.378 1_565 S
C202 C203 1.367 . S
C203 C202 1.367 . S
C203 C205 1.433 . S
C204 C200 1.350 1_565 S
C204 C201 1.463 1_565 S
C204 N208 1.427 . S
C205 H195 0.929 . S
C205 C203 1.433 . S
C205 N208 1.384 . S
C206 H197 0.929 . S
C206 C198 1.378 1_565 S
C206 C201 1.350 1_565 S
C207 H194 0.929 . S
C207 C199 1.433 . S
C207 N209 1.384 . S
N208 C204 1.427 . S
N208 C205 1.384 . S
N209 C201 1.427 . S
N209 C207 1.384 . S
H210 C216 0.930 . S
H211 C220 0.930 . S
H212 C225 0.929 . S
H213 C223 0.929 . S
H214 C218 0.929 . S
H215 C224 0.929 . S
C216 H210 0.930 . S
C216 C217 1.367 . S
C216 C224 1.378 . S
C217 C216 1.367 . S
C217 C225 1.433 . S
C218 H214 0.929 . S
C218 C220 1.378 . S
C218 C222 1.350 . S
C219 C222 1.463 1_556 S
C219 C224 1.350 . S
C219 N227 1.427 . S
C220 H211 0.930 . S
C220 C218 1.378 . S
C220 C221 1.367 . S
C221 C220 1.367 . S
C221 C223 1.433 . S
C222 C218 1.350 . S
C222 C219 1.463 1_554 S
C222 N226 1.427 . S
C223 H213 0.929 . S
C223 C221 1.433 . S
C223 N226 1.384 . S
C224 H215 0.929 . S
C224 C216 1.378 . S
C224 C219 1.350 . S
C225 H212 0.929 . S
C225 C217 1.433 . S
C225 N227 1.384 . S
N226 C222 1.427 . S
N226 C223 1.384 . S
N227 C219 1.427 . S
N227 C225 1.384 . S
H228 C234 0.930 1_455 S
H229 C238 0.930 1_655 S
H230 C243 0.929 . S
H231 C241 0.929 . S
H232 C236 0.929 . S
H233 C242 0.929 . S
C234 H228 0.930 1_655 S
C234 C235 1.367 . S
C234 C242 1.378 1_655 S
C235 C234 1.367 . S
C235 C243 1.433 . S
C236 H232 0.929 . S
C236 C238 1.378 1_655 S
C236 C240 1.350 1_655 S
C237 C240 1.463 1_655 S
C237 C242 1.350 1_655 S
C237 N245 1.427 . S
C238 H229 0.930 1_455 S
C238 C236 1.378 1_455 S
C238 C239 1.367 . S
C239 C238 1.367 . S
C239 C241 1.433 . S
C240 C236 1.350 1_455 S
C240 C237 1.463 1_455 S
C240 N244 1.427 . S
C241 H231 0.929 . S
C241 C239 1.433 . S
C241 N244 1.384 . S
C242 H233 0.929 . S
C242 C234 1.378 1_455 S
C242 C237 1.350 1_455 S
C243 H230 0.929 . S
C243 C235 1.433 . S
C243 N245 1.384 . S
N244 C240 1.427 . S
N244 C241 1.384 . S
N245 C237 1.427 . S
N245 C243 1.384 . S
H246 C252 0.930 . S
H247 C256 0.930 . S
H248 C261 0.929 . S
H249 C259 0.929 . S
H250 C254 0.929 . S
H251 C260 0.929 . S
C252 H246 0.930 . S
C252 C253 1.367 . S
C252 C260 1.378 . S
C253 C252 1.367 . S
C253 C261 1.433 . S
C254 H250 0.929 . S
C254 C256 1.378 . S
C254 C258 1.350 . S
C255 C258 1.463 . S
C255 C260 1.350 . S
C255 N263 1.427 . S
C256 H247 0.930 . S
C256 C254 1.378 . S
C256 C257 1.367 . S
C257 C256 1.367 . S
C257 C259 1.433 . S
C258 C254 1.350 . S
C258 C255 1.463 . S
C258 N262 1.427 . S
C259 H249 0.929 . S
C259 C257 1.433 . S
C259 N262 1.384 . S
C260 H251 0.929 . S
C260 C252 1.378 . S
C260 C255 1.350 . S
C261 H248 0.929 . S
C261 C253 1.433 . S
C261 N263 1.384 . S
N262 C258 1.427 . S
N262 C259 1.384 . S
N263 C255 1.427 . S
N263 C261 1.384 . S
H264 C270 0.930 . S
H265 C274 0.930 . S
H266 C279 0.929 . S
H267 C277 0.929 . S
H268 C272 0.929 . S
H269 C278 0.929 . S
C270 H264 0.930 . S
C270 C271 1.367 . S
C270 C278 1.378 . S
C271 C270 1.367 . S
C271 C279 1.433 . S
C272 H268 0.929 . S
C272 C274 1.378 . S
C272 C276 1.350 . S
C273 C276 1.463 . S
C273 C278 1.350 . S
C273 N281 1.427 . S
C274 H265 0.930 . S
C274 C272 1.378 . S
C274 C275 1.367 . S
C275 C274 1.367 . S
C275 C277 1.433 . S
C276 C272 1.350 . S
C276 C273 1.463 . S
C276 N280 1.427 . S
C277 H267 0.929 . S
C277 C275 1.433 . S
C277 N280 1.384 . S
C278 H269 0.929 . S
C278 C270 1.378 . S
C278 C273 1.350 . S
C279 H266 0.929 . S
C279 C271 1.433 . S
C279 N281 1.384 . S
N280 C276 1.427 . S
N280 C277 1.384 . S
N281 C273 1.427 . S
N281 C279 1.384 . S
H282 C288 0.930 . S
H283 C292 0.930 . S
H284 C297 0.929 . S
H285 C295 0.929 . S
H286 C290 0.929 . S
H287 C296 0.929 . S
C288 H282 0.930 . S
C288 C289 1.367 . S
C288 C296 1.378 . S
C289 C288 1.367 . S
C289 C297 1.433 . S
C290 H286 0.929 . S
C290 C292 1.378 . S
C290 C294 1.350 . S
C291 C294 1.463 . S
C291 C296 1.350 . S
C291 N299 1.427 . S
C292 H283 0.930 . S
C292 C290 1.378 . S
C292 C293 1.367 . S
C293 C292 1.367 . S
C293 C295 1.433 . S
C294 C290 1.350 . S
C294 C291 1.463 . S
C294 N298 1.427 . S
C295 H285 0.929 . S
C295 C293 1.433 . S
C295 N298 1.384 . S
C296 H287 0.929 . S
C296 C288 1.378 . S
C296 C291 1.350 . S
C297 H284 0.929 . S
C297 C289 1.433 . S
C297 N299 1.384 . S
N298 C294 1.427 . S
N298 C295 1.384 . S
N299 C291 1.427 . S
N299 C297 1.384 . S
H300 C306 0.930 . S
H301 C310 0.930 . S
H302 C315 0.929 . S
H303 C313 0.929 . S
H304 C308 0.929 . S
H305 C314 0.929 . S
C306 H300 0.930 . S
C306 C307 1.367 . S
C306 C314 1.378 . S
C307 C306 1.367 . S
C307 C315 1.433 . S
C308 H304 0.929 . S
C308 C310 1.378 . S
C308 C312 1.350 . S
C309 C312 1.463 . S
C309 C314 1.350 . S
C309 N317 1.427 . S
C310 H301 0.930 . S
C310 C308 1.378 . S
C310 C311 1.367 . S
C311 C310 1.367 . S
C311 C313 1.433 . S
C312 C308 1.350 . S
C312 C309 1.463 . S
C312 N316 1.427 . S
C313 H303 0.929 . S
C313 C311 1.433 . S
C313 N316 1.384 . S
C314 H305 0.929 . S
C314 C306 1.378 . S
C314 C309 1.350 . S
C315 H302 0.929 . S
C315 C307 1.433 . S
C315 N317 1.384 . S
N316 C312 1.427 . S
N316 C313 1.384 . S
N317 C309 1.427 . S
N317 C315 1.384 . S
H318 C324 0.930 . S
H319 C328 0.930 . S
H320 C333 0.929 . S
H321 C331 0.929 . S
H322 C326 0.929 . S
H323 C332 0.929 . S
C324 H318 0.930 . S
C324 C325 1.367 . S
C324 C332 1.378 . S
C325 C324 1.367 . S
C325 C333 1.433 . S
C326 H322 0.929 . S
C326 C328 1.378 . S
C326 C330 1.350 . S
C327 C330 1.463 . S
C327 C332 1.350 . S
C327 N335 1.427 . S
C328 H319 0.930 . S
C328 C326 1.378 . S
C328 C329 1.367 . S
C329 C328 1.367 . S
C329 C331 1.433 . S
C330 C326 1.350 . S
C330 C327 1.463 . S
C330 N334 1.427 . S
C331 H321 0.929 . S
C331 C329 1.433 . S
C331 N334 1.384 . S
C332 H323 0.929 . S
C332 C324 1.378 . S
C332 C327 1.350 . S
C333 H320 0.929 . S
C333 C325 1.433 . S
C333 N335 1.384 . S
N334 C330 1.427 . S
N334 C331 1.384 . S
N335 C327 1.427 . S
N335 C333 1.384 . S
H336 C342 0.930 . S
H337 C346 0.930 . S
H338 C351 0.929 . S
H339 C349 0.929 . S
H340 C344 0.929 . S
H341 C350 0.929 . S
C342 H336 0.930 . S
C342 C343 1.367 . S
C342 C350 1.378 . S
C343 C342 1.367 . S
C343 C351 1.433 . S
C344 H340 0.929 . S
C344 C346 1.378 . S
C344 C348 1.350 . S
C345 C348 1.463 . S
C345 C350 1.350 . S
C345 N353 1.427 . S
C346 H337 0.930 . S
C346 C344 1.378 . S
C346 C347 1.367 . S
C347 C346 1.367 . S
C347 C349 1.433 . S
C348 C344 1.350 . S
C348 C345 1.463 . S
C348 N352 1.427 . S
C349 H339 0.929 . S
C349 C347 1.433 . S
C349 N352 1.384 . S
C350 H341 0.929 . S
C350 C342 1.378 . S
C350 C345 1.350 . S
C351 H338 0.929 . S
C351 C343 1.433 . S
C351 N353 1.384 . S
N352 C348 1.427 . S
N352 C349 1.384 . S
N353 C345 1.427 . S
N353 C351 1.384 . S
H354 C360 0.930 . S
H355 C364 0.930 . S
H356 C369 0.929 . S
H357 C367 0.929 . S
H358 C362 0.929 . S
H359 C368 0.929 . S
C360 H354 0.930 . S
C360 C361 1.367 . S
C360 C368 1.378 . S
C361 C360 1.367 . S
C361 C369 1.433 . S
C362 H358 0.929 . S
C362 C364 1.378 . S
C362 C366 1.350 . S
C363 C366 1.463 . S
C363 C368 1.350 . S
C363 N371 1.427 . S
C364 H355 0.930 . S
C364 C362 1.378 . S
C364 C365 1.367 . S
C365 C364 1.367 . S
C365 C367 1.433 . S
C366 C362 1.350 . S
C366 C363 1.463 . S
C366 N370 1.427 . S
C367 H357 0.929 . S
C367 C365 1.433 . S
C367 N370 1.384 . S
C368 H359 0.929 . S
C368 C360 1.378 . S
C368 C363 1.350 . S
C369 H356 0.929 . S
C369 C361 1.433 . S
C369 N371 1.384 . S
N370 C366 1.427 . S
N370 C367 1.384 . S
N371 C363 1.427 . S
N371 C369 1.384 . S
H372 C378 0.930 . S
H373 C382 0.930 . S
H374 C387 0.929 . S
H375 C385 0.929 . S
H376 C380 0.929 . S
H377 C386 0.929 . S
C378 H372 0.930 . S
C378 C379 1.367 . S
C378 C386 1.378 1_655 S
C379 C378 1.367 . S
C379 C387 1.433 . S
C380 H376 0.929 . S
C380 C382 1.378 . S
C380 C384 1.350 . S
C381 C384 1.463 . S
C381 C386 1.350 . S
C381 N389 1.427 . S
C382 H373 0.930 . S
C382 C380 1.378 . S
C382 C383 1.367 . S
C383 C382 1.367 . S
C383 C385 1.433 . S
C384 C380 1.350 . S
C384 C381 1.463 . S
C384 N388 1.427 . S
C385 H375 0.929 . S
C385 C383 1.433 . S
C385 N388 1.384 . S
C386 H377 0.929 . S
C386 C378 1.378 1_455 S
C386 C381 1.350 . S
C387 H374 0.929 . S
C387 C379 1.433 . S
C387 N389 1.384 1_655 S
N388 C384 1.427 . S
N388 C385 1.384 . S
N389 C381 1.427 . S
N389 C387 1.384 1_455 S
H390 C396 0.930 . S
H391 C400 0.930 . S
H392 C405 0.929 . S
H393 C403 0.929 . S
H394 C398 0.929 . S
H395 C404 0.929 . S
C396 H390 0.930 . S
C396 C397 1.367 . S
C396 C404 1.378 1_545 S
C397 C396 1.367 . S
C397 C405 1.433 . S
C398 H394 0.929 . S
C398 C400 1.378 . S
C398 C402 1.350 . S
C399 C402 1.463 . S
C399 C404 1.350 . S
C399 N407 1.427 . S
C400 H391 0.930 . S
C400 C398 1.378 . S
C400 C401 1.367 . S
C401 C400 1.367 . S
C401 C403 1.433 . S
C402 C398 1.350 . S
C402 C399 1.463 . S
C402 N406 1.427 . S
C403 H393 0.929 . S
C403 C401 1.433 . S
C403 N406 1.384 . S
C404 H395 0.929 . S
C404 C396 1.378 1_565 S
C404 C399 1.350 . S
C405 H392 0.929 . S
C405 C397 1.433 . S
C405 N407 1.384 1_545 S
N406 C402 1.427 . S
N406 C403 1.384 . S
N407 C399 1.427 . S
N407 C405 1.384 1_565 S
H408 C414 0.930 . S
H409 C418 0.930 . S
H410 C423 0.929 . S
H411 C421 0.929 . S
H412 C416 0.929 . S
H413 C422 0.929 . S
C414 H408 0.930 . S
C414 C415 1.367 . S
C414 C422 1.378 . S
C415 C414 1.367 . S
C415 C423 1.433 . S
C416 H412 0.929 . S
C416 C418 1.378 . S
C416 C420 1.350 . S
C417 C420 1.463 . S
C417 C422 1.350 . S
C417 N425 1.427 . S
C418 H409 0.930 . S
C418 C416 1.378 . S
C418 C419 1.367 . S
C419 C418 1.367 . S
C419 C421 1.433 . S
C420 C416 1.350 . S
C420 C417 1.463 . S
C420 N424 1.427 . S
C421 H411 0.929 . S
C421 C419 1.433 . S
C421 N424 1.384 . S
C422 H413 0.929 . S
C422 C414 1.378 . S
C422 C417 1.350 . S
C423 H410 0.929 . S
C423 C415 1.433 . S
C423 N425 1.384 . S
N424 C420 1.427 . S
N424 C421 1.384 . S
N425 C417 1.427 . S
N425 C423 1.384 . S
H426 C432 0.930 . S
H427 C436 0.930 . S
H428 C441 0.929 . S
H429 C439 0.929 . S
H430 C434 0.929 . S
H431 C440 0.929 . S
C432 H426 0.930 . S
C432 C433 1.367 . S
C432 C440 1.378 1_455 S
C433 C432 1.367 . S
C433 C441 1.433 . S
C434 H430 0.929 . S
C434 C436 1.378 . S
C434 C438 1.350 . S
C435 C438 1.463 . S
C435 C440 1.350 . S
C435 N443 1.427 . S
C436 H427 0.930 . S
C436 C434 1.378 . S
C436 C437 1.367 . S
C437 C436 1.367 . S
C437 C439 1.433 . S
C438 C434 1.350 . S
C438 C435 1.463 . S
C438 N442 1.427 . S
C439 H429 0.929 . S
C439 C437 1.433 . S
C439 N442 1.384 . S
C440 H431 0.929 . S
C440 C432 1.378 1_655 S
C440 C435 1.350 . S
C441 H428 0.929 . S
C441 C433 1.433 . S
C441 N443 1.384 1_455 S
N442 C438 1.427 . S
N442 C439 1.384 . S
N443 C435 1.427 . S
N443 C441 1.384 1_655 S
H444 C450 0.930 . S
H445 C454 0.930 . S
H446 C459 0.929 . S
H447 C457 0.929 . S
H448 C452 0.929 . S
H449 C458 0.929 . S
C450 H444 0.930 . S
C450 C451 1.367 . S
C450 C458 1.378 . S
C451 C450 1.367 . S
C451 C459 1.433 . S
C452 H448 0.929 . S
C452 C454 1.378 1_545 S
C452 C456 1.350 . S
C453 C456 1.463 . S
C453 C458 1.350 . S
C453 N461 1.427 . S
C454 H445 0.930 . S
C454 C452 1.378 1_565 S
C454 C455 1.367 . S
C455 C454 1.367 . S
C455 C457 1.433 . S
C456 C452 1.350 . S
C456 C453 1.463 . S
C456 N460 1.427 . S
C457 H447 0.929 . S
C457 C455 1.433 . S
C457 N460 1.384 1_565 S
C458 H449 0.929 . S
C458 C450 1.378 . S
C458 C453 1.350 . S
C459 H446 0.929 . S
C459 C451 1.433 . S
C459 N461 1.384 . S
N460 C456 1.427 . S
N460 C457 1.384 1_545 S
N461 C453 1.427 . S
N461 C459 1.384 . S
C145 C111 1.747 . S
C149 C19 1.752 . S
C163 C135 1.760 . S
C167 C43 1.761 . S
C181 C65 1.751 . S
C185 C88 1.748 . S
C199 C20 1.761 . S
C203 C112 1.760 . S
C217 C134 1.747 . S
C221 C42 1.751 . S
C235 C66 1.760 . S
C239 C89 1.761 . S
C253 C18 1.206 . S
C257 C62 1.228 . S
C271 C41 1.212 . S
C275 C16 1.229 . S
C289 C64 1.205 . S
C293 C39 1.229 . S
C307 C87 1.203 . S
C311 C108 1.228 . S
C325 C110 1.211 . S
C329 C131 1.229 . S
C343 C85 1.230 . S
C347 C133 1.210 . S
C361 C21 0.874 . S
C365 C63 0.850 . S
C379 C44 0.875 . S
C383 C17 0.862 . S
C397 C67 0.879 . S
C401 C40 0.852 . S
C415 C90 0.872 . S
C419 C109 0.867 . S
C433 C113 0.878 . S
C437 C132 0.847 . S
C451 C86 0.870 . S
C455 C136 0.869 . S
