# Generated by pormake.
# Topology qtz-x, (6)-cn, num edge types: 1
# Building blocks:
#     Node 0, Type 0, BuildingBlock: PAMTUU_clean_sbu_0, # of connection points: 6
#     Node 1, Type 0, BuildingBlock: PAMTUU_clean_sbu_0, # of connection points: 6
#     Node 2, Type 0, BuildingBlock: PAMTUU_clean_sbu_0, # of connection points: 6
#     Edge 3, Type (0, 0), BuildingBlock: XUDNAN_clean_linker_2, # of connection points: 2
#     Edge 4, Type (0, 0), BuildingBlock: XUDNAN_clean_linker_2, # of connection points: 2
#     Edge 5, Type (0, 0), BuildingBlock: XUDNAN_clean_linker_2, # of connection points: 2
#     Edge 6, Type (0, 0), BuildingBlock: XUDNAN_clean_linker_2, # of connection points: 2
#     Edge 7, Type (0, 0), BuildingBlock: XUDNAN_clean_linker_2, # of connection points: 2
#     Edge 8, Type (0, 0), BuildingBlock: XUDNAN_clean_linker_2, # of connection points: 2
#     Edge 9, Type (0, 0), BuildingBlock: XUDNAN_clean_linker_2, # of connection points: 2
#     Edge 10, Type (0, 0), BuildingBlock: XUDNAN_clean_linker_2, # of connection points: 2
#     Edge 11, Type (0, 0), BuildingBlock: XUDNAN_clean_linker_2, # of connection points: 2
# Relax obj value: 0.126
# Max RMSD: 0.230
# Mean RMSD: 0.230
data_MOF--net-qtz-x--node1-PAMTUU_clean_sbu_0--edge1-XUDNAN_clean_linker_2
_symmetry_space_group_name_H-M    P1
_symmetry_Int_Tables_number       1
_symmetry_cell_setting            triclinic
loop_
_symmetry_equiv_pos_as_xyz
'x, y, z'
_cell_length_a     15.0193
_cell_length_b     15.016732
_cell_length_c     54.565571
_cell_angle_alpha  90.139325
_cell_angle_beta   90.140331
_cell_angle_gamma 119.97485
loop_
_atom_site_label
_atom_site_type_symbol
_atom_site_fract_x
_atom_site_fract_y
_atom_site_fract_z
_atom_type_partial_charge
Tb0 Tb 0.1087 0.69261 0.16244 0.0
Tb1 Tb 0.89494 0.58931 0.19498 0.0
C2 C 0.99296 0.4638 0.17516 0.0
C3 C 0.2722 0.75082 0.10791 0.0
C4 C 0.2785 0.72548 0.05674 0.0
C5 C 0.23751 0.63974 0.07231 0.0
C6 C 0.2337 0.65215 0.09766 0.0
C7 C 0.31506 0.83651 0.09238 0.0
C8 C 0.31775 0.824 0.06705 0.0
C9 C 0.26174 0.76559 0.13433 0.0
O10 O 0.98722 0.66921 0.13703 0.0
O11 O 0.84144 0.54972 0.15728 0.0
O12 O 0.9241 0.73818 0.18143 0.0
O13 O 0.09904 0.81435 0.18108 0.0
O14 O 0.76144 0.45985 0.20806 0.0
O15 O 0.80009 0.61318 0.21907 0.0
O16 O 0.01995 0.66621 0.22105 0.0
O17 O 0.15723 0.6791 0.19932 0.0
O18 O 0.02715 0.52856 0.15693 0.0
O19 O 0.95501 0.48334 0.19476 0.0
C20 C 0.88905 0.59932 0.13725 0.0
O21 O 0.21042 0.81215 0.13947 0.0
O22 O 0.23666 0.68727 0.14875 0.0
C23 C 0.01544 0.82107 0.18122 0.0
C24 C 0.7305 0.48649 0.24946 0.0
C25 C 0.72387 0.45051 0.30036 0.0
C26 C 0.76642 0.40837 0.28436 0.0
C27 C 0.77047 0.42684 0.25914 0.0
C28 C 0.68598 0.52656 0.26539 0.0
C29 C 0.68309 0.50919 0.2906 0.0
C30 C 0.74232 0.51528 0.22331 0.0
C31 C 0.11373 0.68095 0.22011 0.0
H32 H 0.20594 0.56288 0.06483 0.0
H33 H 0.19897 0.58436 0.10911 0.0
H34 H 0.34479 0.91323 0.09982 0.0
H35 H 0.35075 0.89154 0.0555 0.0
H36 H 0.79919 0.36363 0.29143 0.0
H37 H 0.80672 0.39623 0.24733 0.0
H38 H 0.6554 0.57335 0.25837 0.0
H39 H 0.64901 0.5418 0.30249 0.0
Tb40 Tb 0.50226 0.98737 0.49552 0.0
Tb41 Tb 0.61204 0.20229 0.52833 0.0
C42 C 0.38762 0.10251 0.50835 0.0
C43 C 0.39853 0.81398 0.44169 0.0
C44 C 0.36141 0.78762 0.39072 0.0
C45 C 0.39767 0.73056 0.4034 0.0
C46 C 0.4157 0.74342 0.42866 0.0
C47 C 0.36233 0.87128 0.42911 0.0
C48 C 0.34316 0.85758 0.40386 0.0
C49 C 0.4247 0.83099 0.46799 0.0
O50 O 0.59802 0.10901 0.47009 0.0
O51 O 0.62308 0.2543 0.49072 0.0
O52 O 0.73147 0.17328 0.51445 0.0
O53 O 0.63321 0.99865 0.51473 0.0
O54 O 0.61648 0.33602 0.54168 0.0
O55 O 0.73259 0.29858 0.55203 0.0
O56 O 0.56291 0.07777 0.55437 0.0
O57 O 0.43927 0.94027 0.53224 0.0
O58 O 0.41691 0.06617 0.49021 0.0
O59 O 0.44609 0.14274 0.52783 0.0
C60 C 0.62499 0.20693 0.47055 0.0
O61 O 0.52256 0.88549 0.47295 0.0
O62 O 0.37048 0.85767 0.48164 0.0
C63 C 0.72343 0.08213 0.51454 0.0
C64 C 0.68238 0.37532 0.58227 0.0
C65 C 0.66753 0.40052 0.63308 0.0
C66 C 0.76177 0.45793 0.62091 0.0
C67 C 0.76897 0.44563 0.59572 0.0
C68 C 0.58791 0.31778 0.59433 0.0
C69 C 0.58039 0.33092 0.61951 0.0
C70 C 0.69403 0.35785 0.55618 0.0
C71 C 0.4838 0.984 0.55316 0.0
H72 H 0.41164 0.67555 0.39378 0.0
H73 H 0.44434 0.69909 0.43799 0.0
H74 H 0.35011 0.92749 0.43871 0.0
H75 H 0.31633 0.90339 0.39451 0.0
H76 H 0.82995 0.51262 0.63087 0.0
H77 H 0.84268 0.48997 0.58679 0.0
H78 H 0.52042 0.26165 0.58439 0.0
H79 H 0.50711 0.28483 0.62849 0.0
Tb80 Tb 0.3912 0.59962 0.8277 0.0
Tb81 Tb 0.50398 0.4983 0.86042 0.0
C82 C 0.61607 0.72661 0.84682 0.0
C83 C 0.31788 0.69917 0.77397 0.0
C84 C 0.33158 0.737 0.72312 0.0
C85 C 0.23841 0.70397 0.73554 0.0
C86 C 0.23178 0.68554 0.76076 0.0
C87 C 0.41125 0.73231 0.76166 0.0
C88 C 0.41824 0.75187 0.73646 0.0
C89 C 0.30673 0.67081 0.80006 0.0
O90 O 0.44144 0.52517 0.80147 0.0
O91 O 0.56449 0.51015 0.82356 0.0
O92 O 0.37361 0.37537 0.84168 0.0
O93 O 0.27345 0.45 0.8413 0.0
O94 O 0.63818 0.50542 0.87426 0.0
O95 O 0.4879 0.37995 0.88365 0.0
O96 O 0.40489 0.5204 0.88557 0.0
O97 O 0.38097 0.6416 0.86539 0.0
O98 O 0.55698 0.70656 0.82743 0.0
O99 O 0.58669 0.66285 0.86527 0.0
C100 C 0.51978 0.50918 0.80267 0.0
O101 O 0.26946 0.57326 0.80422 0.0
O102 O 0.38434 0.72755 0.81447 0.0
C103 C 0.28284 0.3676 0.84133 0.0
C104 C 0.61183 0.44278 0.91521 0.0
C105 C 0.64641 0.46985 0.96632 0.0
C106 C 0.69425 0.55443 0.95045 0.0
C107 C 0.67667 0.5412 0.92515 0.0
C108 C 0.56588 0.35815 0.93104 0.0
C109 C 0.58253 0.37154 0.95633 0.0
C110 C 0.58587 0.42738 0.88878 0.0
C111 C 0.37845 0.59164 0.88542 0.0
H112 H 0.17065 0.6926 0.72575 0.0
H113 H 0.15886 0.659 0.76989 0.0
H114 H 0.47822 0.74145 0.77144 0.0
H115 H 0.49065 0.77608 0.72729 0.0
H116 H 0.74322 0.63116 0.95768 0.0
H117 H 0.71253 0.60826 0.91347 0.0
H118 H 0.51551 0.28162 0.92386 0.0
H119 H 0.54558 0.30478 0.96808 0.0
H120 H 0.88732 0.89034 0.1983 0.0
H121 H 0.16911 0.98358 0.15795 0.0
H122 H 0.1913 0.15583 0.15228 0.0
H123 H 0.79803 0.0339 0.16313 0.0
H124 H 0.75073 0.07145 0.18921 0.0
H125 H 0.75418 0.95326 0.1899 0.0
H126 H 0.86319 0.01303 0.2297 0.0
H127 H 0.86005 0.13141 0.22914 0.0
H128 H 0.98157 0.1346 0.23017 0.0
H129 H 0.1811 0.31311 0.14915 0.0
H130 H 0.14683 0.45657 0.15152 0.0
H131 H 0.87849 0.27201 0.19651 0.0
C132 C 0.95336 0.94725 0.18825 0.0
C133 C 0.02647 0.92378 0.17851 0.0
C134 C 0.11258 0.00017 0.16569 0.0
C135 C 0.12571 0.09812 0.16228 0.0
C136 C 0.05287 0.11917 0.17211 0.0
C137 C 0.96901 0.04688 0.1851 0.0
C138 C 0.9046 0.09217 0.19435 0.0
C139 C 0.79541 0.03423 0.18349 0.0
C140 C 0.90225 0.09284 0.22252 0.0
C141 C 0.96508 0.20057 0.18424 0.0
C142 C 0.04963 0.21339 0.17129 0.0
C143 C 0.11569 0.30458 0.1594 0.0
C144 C 0.09522 0.38544 0.16078 0.0
C145 C 0.01017 0.37538 0.17424 0.0
C146 C 0.94453 0.28187 0.18629 0.0
H147 H 0.31212 0.22049 0.52893 0.0
H148 H 0.22489 0.94566 0.48563 0.0
H149 H 0.04724 0.9116 0.48339 0.0
H150 H 0.07477 0.12275 0.56313 0.0
H151 H 0.07204 0.24132 0.56204 0.0
H152 H 0.19322 0.24384 0.56129 0.0
H153 H 0.23984 0.34721 0.52084 0.0
H154 H 0.11881 0.34498 0.52147 0.0
H155 H 0.15331 0.2968 0.49501 0.0
H156 H 0.88023 0.90224 0.48652 0.0
H157 H 0.7307 0.92536 0.4921 0.0
H158 H 0.92211 0.2127 0.53076 0.0
C159 C 0.25521 0.15312 0.51911 0.0
C160 C 0.28208 0.08556 0.50749 0.0
C161 C 0.20614 0.99874 0.49454 0.0
C162 C 0.10485 0.97838 0.49324 0.0
C163 C 0.08069 0.04631 0.50469 0.0
C164 C 0.15332 0.13258 0.51715 0.0
C165 C 0.10614 0.19464 0.52687 0.0
C166 C 0.11189 0.20097 0.555 0.0
C167 C 0.1576 0.30229 0.51535 0.0
C168 C 0.99593 0.12912 0.51798 0.0
C169 C 0.98342 0.04341 0.50551 0.0
C170 C 0.88887 0.96928 0.49612 0.0
C171 C 0.80434 0.98296 0.49948 0.0
C172 C 0.81499 0.07086 0.5118 0.0
C173 C 0.91224 0.14528 0.52108 0.0
H174 H 0.69225 0.92104 0.82696 0.0
H175 H 0.77966 0.72849 0.86778 0.0
H176 H 0.95848 0.87011 0.86948 0.0
H177 H 0.9281 0.06138 0.79179 0.0
H178 H 0.93209 0.18309 0.79407 0.0
H179 H 0.8104 0.06502 0.79468 0.0
H180 H 0.7671 0.11913 0.83606 0.0
H181 H 0.88864 0.2373 0.83558 0.0
H182 H 0.85514 0.15239 0.86149 0.0
H183 H 0.12625 0.02724 0.86646 0.0
H184 H 0.27592 0.20024 0.86176 0.0
H185 H 0.0839 0.30121 0.82559 0.0
C186 C 0.74952 0.90903 0.83607 0.0
C187 C 0.7224 0.81384 0.84717 0.0
C188 C 0.79872 0.80095 0.85926 0.0
C189 C 0.90065 0.88074 0.86024 0.0
C190 C 0.92508 0.97373 0.84935 0.0
C191 C 0.85209 0.98926 0.83773 0.0
C192 C 0.89954 0.09934 0.82871 0.0
C193 C 0.89208 0.10234 0.80064 0.0
C194 C 0.84962 0.15533 0.84121 0.0
C195 C 0.0102 0.14242 0.83708 0.0
C196 C 0.0228 0.06768 0.84863 0.0
C197 C 0.11758 0.08677 0.85754 0.0
C198 C 0.20221 0.18526 0.8547 0.0
C199 C 0.19148 0.26413 0.84336 0.0
C200 C 0.09401 0.24246 0.83449 0.0
H201 H 0.39769 0.53033 0.93147 0.0
H202 H 0.2938 0.71489 0.89294 0.0
H203 H 0.25125 0.7642 0.9326 0.0
H204 H 0.20654 0.43874 0.97962 0.0
H205 H 0.29563 0.44633 1.00286 0.0
H206 H 0.31363 0.42212 0.97143 0.0
H207 H 0.49792 0.57869 0.97234 0.0
H208 H 0.48074 0.60347 1.00375 0.0
H209 H 0.51746 0.70304 0.98114 0.0
H210 H 0.22489 0.79741 0.97652 0.0
H211 H 0.21811 0.81343 0.02149 0.0
H212 H 0.34088 0.60852 0.03119 0.0
C213 C 0.36484 0.58018 0.93126 0.0
C214 C 0.34846 0.61824 0.909 0.0
C215 C 0.30682 0.68455 0.9097 0.0
C216 C 0.2823 0.71287 0.93214 0.0
C217 C 0.30012 0.67447 0.95371 0.0
C218 C 0.34049 0.60957 0.95345 0.0
C219 C 0.3555 0.5816 0.97921 0.0
C220 C 0.28879 0.46528 0.98352 0.0
C221 C 0.46967 0.61899 0.9844 0.0
C222 C 0.31759 0.6414 0.99405 0.0
C223 C 0.28576 0.69422 0.97899 0.0
C224 C 0.24954 0.75638 0.98848 0.0
C225 C 0.24646 0.76544 0.01401 0.0
C226 C 0.27931 0.71256 0.02978 0.0
C227 C 0.31442 0.64908 0.01958 0.0
H228 H 0.60594 0.12871 0.42409 0.0
H229 H 0.71015 0.41501 0.46392 0.0
H230 H 0.75273 0.50908 0.42471 0.0
H231 H 0.79734 0.23126 0.37588 0.0
H232 H 0.70816 0.15124 0.35244 0.0
H233 H 0.69032 0.10714 0.38367 0.0
H234 H 0.50601 0.07963 0.3832 0.0
H235 H 0.52296 0.12365 0.352 0.0
H236 H 0.48648 0.18503 0.37516 0.0
H237 H 0.77803 0.57112 0.38113 0.0
H238 H 0.78388 0.59652 0.33628 0.0
H239 H 0.66263 0.26984 0.32497 0.0
C240 C 0.63894 0.21139 0.42466 0.0
C241 C 0.65523 0.26453 0.44717 0.0
C242 C 0.69709 0.37255 0.44696 0.0
C243 C 0.72167 0.42671 0.42478 0.0
C244 C 0.70383 0.37177 0.40295 0.0
C245 C 0.66349 0.26652 0.40272 0.0
C246 C 0.64839 0.22518 0.37675 0.0
C247 C 0.71507 0.17583 0.37191 0.0
C248 C 0.53419 0.14891 0.37148 0.0
C249 C 0.68619 0.32372 0.36238 0.0
C250 C 0.71797 0.40739 0.37784 0.0
C251 C 0.75357 0.50624 0.36885 0.0
C252 C 0.75612 0.51985 0.34339 0.0
C253 C 0.72348 0.43515 0.32722 0.0
C254 C 0.68899 0.33608 0.33691 0.0
H255 H 0.47841 0.90305 0.69784 0.0
H256 H 0.19824 0.61047 0.68787 0.0
H257 H 0.20702 0.63983 0.64313 0.0
H258 H 0.42251 0.04045 0.65212 0.0
H259 H 0.55394 0.11574 0.64218 0.0
H260 H 0.52625 0.07044 0.67328 0.0
H261 H 0.63585 0.98224 0.66796 0.0
H262 H 0.66367 0.02731 0.63683 0.0
H263 H 0.60694 0.89201 0.6432 0.0
H264 H 0.24735 0.70156 0.59927 0.0
H265 H 0.31334 0.79312 0.56004 0.0
H266 H 0.5652 0.04622 0.5992 0.0
C267 C 0.41939 0.84491 0.68619 0.0
C268 C 0.33769 0.75442 0.69626 0.0
C269 C 0.26104 0.68068 0.6805 0.0
C270 C 0.26564 0.69649 0.65509 0.0
C271 C 0.34701 0.78677 0.64574 0.0
C272 C 0.42223 0.85999 0.66084 0.0
C273 C 0.50033 0.95137 0.64626 0.0
C274 C 0.50071 0.0503 0.65392 0.0
C275 C 0.60806 0.96391 0.64871 0.0
C276 C 0.4575 0.91792 0.62063 0.0
C277 C 0.3693 0.8227 0.62065 0.0
C278 C 0.31639 0.77624 0.59904 0.0
C279 C 0.35454 0.82877 0.57683 0.0
C280 C 0.4445 0.92687 0.57644 0.0
C281 C 0.49626 0.97137 0.59873 0.0
H282 H 0.8282 0.58168 0.99151 0.0
H283 H 0.4994 0.38911 1.00188 0.0
H284 H 0.52472 0.40541 0.04679 0.0
H285 H 0.90562 0.48193 0.04116 0.0
H286 H 0.01452 0.60393 0.04976 0.0
H287 H 0.97038 0.58067 0.01847 0.0
H288 H 0.95092 0.74247 0.01945 0.0
H289 H 0.99545 0.76627 0.05075 0.0
H290 H 0.87356 0.7551 0.04292 0.0
H291 H 0.58653 0.4366 0.09056 0.0
H292 H 0.68029 0.48293 0.13005 0.0
H293 H 0.96852 0.65708 0.09103 0.0
C294 C 0.76152 0.54401 1.00326 0.0
C295 C 0.66183 0.48371 0.99325 0.0
C296 C 0.57653 0.43452 1.0092 0.0
C297 C 0.5901 0.4438 0.0347 0.0
C298 C 0.68948 0.50259 0.04399 0.0
C299 C 0.77378 0.55213 0.02877 0.0
C300 C 0.87265 0.60858 0.04346 0.0
C301 C 0.94498 0.56618 0.03788 0.0
C302 C 0.92625 0.72502 0.03887 0.0
C303 C 0.83066 0.58235 0.06929 0.0
C304 C 0.72492 0.5213 0.06921 0.0
C305 C 0.66931 0.48499 0.09087 0.0
C306 C 0.72325 0.51157 0.11322 0.0
C307 C 0.83168 0.57415 0.11373 0.0
C308 C 0.88553 0.61012 0.09138 0.0
H309 H 0.04973 0.69886 0.26591 0.0
H310 H 0.30667 0.70642 0.22761 0.0
H311 H 0.39857 0.73542 0.26712 0.0
H312 H 0.19953 0.89743 0.3097 0.0
H313 H 0.10965 0.83551 0.3343 0.0
H314 H 0.0647 0.81543 0.30305 0.0
H315 H 0.98135 0.61855 0.30862 0.0
H316 H 0.02585 0.63783 0.33988 0.0
H317 H 0.05913 0.56565 0.3191 0.0
H318 H 0.46075 0.76055 0.31111 0.0
H319 H 0.49014 0.78385 0.35588 0.0
H320 H 0.19305 0.76208 0.36491 0.0
C321 C 0.12547 0.7068 0.26569 0.0
C322 C 0.17099 0.70041 0.24355 0.0
C323 C 0.27022 0.71122 0.24427 0.0
C324 C 0.32295 0.72759 0.26664 0.0
C325 C 0.2755 0.7332 0.28808 0.0
C326 C 0.17906 0.72341 0.28775 0.0
C327 C 0.14478 0.73253 0.31327 0.0
C328 C 0.12877 0.82579 0.31518 0.0
C329 C 0.04704 0.63271 0.32065 0.0
C330 C 0.23713 0.74894 0.3281 0.0
C331 C 0.31155 0.74872 0.31326 0.0
C332 C 0.40309 0.76102 0.32288 0.0
C333 C 0.41893 0.77379 0.34831 0.0
C334 C 0.34393 0.77483 0.36383 0.0
C335 C 0.25215 0.76265 0.35348 0.0
H336 H 0.44038 0.49273 0.75647 0.0
H337 H 0.68557 0.48074 0.79602 0.0
H338 H 0.74915 0.45002 0.75696 0.0
H339 H 0.39068 0.29279 0.71294 0.0
H340 H 0.36544 0.35572 0.688 0.0
H341 H 0.3395 0.37658 0.71906 0.0
H342 H 0.45576 0.57304 0.71353 0.0
H343 H 0.48235 0.55314 0.68247 0.0
H344 H 0.58678 0.62399 0.70368 0.0
H345 H 0.78785 0.42411 0.71332 0.0
H346 H 0.79645 0.40127 0.66864 0.0
H347 H 0.52407 0.4273 0.65801 0.0
C348 C 0.50736 0.48342 0.75705 0.0
C349 C 0.5579 0.4891 0.77942 0.0
C350 C 0.64535 0.47656 0.77918 0.0
C351 C 0.68209 0.45914 0.75707 0.0
C352 C 0.63038 0.45417 0.73538 0.0
C353 C 0.54471 0.46565 0.73523 0.0
C354 C 0.50293 0.45712 0.7095 0.0
C355 C 0.39314 0.36506 0.70725 0.0
C356 C 0.50727 0.55781 0.70185 0.0
C357 C 0.57864 0.43909 0.69513 0.0
C358 C 0.65179 0.43804 0.71037 0.0
C359 C 0.73085 0.42457 0.70123 0.0
C360 C 0.73536 0.41207 0.67585 0.0
C361 C 0.66091 0.41245 0.65992 0.0
C362 C 0.58136 0.42561 0.66979 0.0
loop_
_geom_bond_atom_site_label_1
_geom_bond_atom_site_label_2
_geom_bond_distance
_geom_bond_site_symmetry_2
_ccdc_geom_bond_type
Tb0 C9 2.764 . S
Tb0 O10 2.325 . S
Tb0 O13 2.303 . S
Tb0 O17 2.322 . S
Tb0 O18 2.349 . S
Tb0 O21 2.415 . S
Tb0 O22 2.399 . S
Tb1 O11 2.322 . S
Tb1 O12 2.349 . S
Tb1 O14 2.415 . S
Tb1 O15 2.399 . S
Tb1 O16 2.325 1_655 S
Tb1 O19 2.303 1_655 S
Tb1 C30 2.764 . S
C2 O18 1.261 . S
C2 O19 1.257 . S
C3 C6 1.358 . S
C3 C7 1.332 . S
C3 C9 1.504 . S
C4 C5 1.373 . S
C4 C8 1.308 . S
C5 C4 1.373 . S
C5 C6 1.429 . S
C5 H32 0.932 . S
C6 C3 1.358 . S
C6 C5 1.429 . S
C6 H33 0.930 . S
C7 C3 1.332 . S
C7 C8 1.394 . S
C7 H34 0.932 . S
C8 C4 1.308 . S
C8 C7 1.394 . S
C8 H35 0.929 . S
C9 Tb0 2.764 . S
C9 C3 1.504 . S
C9 O21 1.239 . S
C9 O22 1.263 . S
O10 Tb0 2.325 . S
O10 C20 1.236 1_455 S
O11 Tb1 2.322 . S
O11 C20 1.257 . S
O12 Tb1 2.349 . S
O12 C23 1.261 1_655 S
O13 Tb0 2.303 . S
O13 C23 1.257 . S
O14 Tb1 2.415 . S
O14 C30 1.239 . S
O15 Tb1 2.399 . S
O15 C30 1.263 . S
O16 Tb1 2.325 1_455 S
O16 C31 1.236 . S
O17 Tb0 2.322 . S
O17 C31 1.257 . S
O18 Tb0 2.349 . S
O18 C2 1.261 . S
O19 Tb1 2.303 1_455 S
O19 C2 1.257 . S
C20 O10 1.236 1_655 S
C20 O11 1.257 . S
O21 Tb0 2.415 . S
O21 C9 1.239 . S
O22 Tb0 2.399 . S
O22 C9 1.263 . S
C23 O12 1.261 1_455 S
C23 O13 1.257 . S
C24 C27 1.358 . S
C24 C28 1.332 . S
C24 C30 1.504 . S
C25 C26 1.373 . S
C25 C29 1.308 . S
C26 C25 1.373 . S
C26 C27 1.429 . S
C26 H36 0.932 . S
C27 C24 1.358 . S
C27 C26 1.429 . S
C27 H37 0.930 . S
C28 C24 1.332 . S
C28 C29 1.394 . S
C28 H38 0.932 . S
C29 C25 1.308 . S
C29 C28 1.394 . S
C29 H39 0.929 . S
C30 Tb1 2.764 . S
C30 O14 1.239 . S
C30 O15 1.263 . S
C30 C24 1.504 . S
C31 O16 1.236 . S
C31 O17 1.257 . S
H32 C5 0.932 . S
H33 C6 0.930 . S
H34 C7 0.932 . S
H35 C8 0.929 . S
H36 C26 0.932 . S
H37 C27 0.930 . S
H38 C28 0.932 . S
H39 C29 0.929 . S
Tb40 C49 2.764 . S
Tb40 O50 2.325 1_565 S
Tb40 O53 2.303 . S
Tb40 O57 2.322 . S
Tb40 O58 2.349 . S
Tb40 O61 2.415 . S
Tb40 O62 2.399 . S
Tb41 O51 2.322 . S
Tb41 O52 2.349 . S
Tb41 O54 2.415 . S
Tb41 O55 2.399 . S
Tb41 O56 2.325 1_545 S
Tb41 O59 2.303 . S
Tb41 C70 2.764 . S
C42 O58 1.261 . S
C42 O59 1.257 1_565 S
C43 C46 1.358 . S
C43 C47 1.332 . S
C43 C49 1.504 . S
C44 C45 1.373 . S
C44 C48 1.308 . S
C45 C44 1.373 . S
C45 C46 1.429 . S
C45 H72 0.932 . S
C46 C43 1.358 . S
C46 C45 1.429 . S
C46 H73 0.930 . S
C47 C43 1.332 . S
C47 C48 1.394 . S
C47 H74 0.932 . S
C48 C44 1.308 . S
C48 C47 1.394 . S
C48 H75 0.929 . S
C49 Tb40 2.764 . S
C49 C43 1.504 . S
C49 O61 1.239 . S
C49 O62 1.263 . S
O50 Tb40 2.325 1_545 S
O50 C60 1.236 . S
O51 Tb41 2.322 . S
O51 C60 1.257 . S
O52 Tb41 2.349 . S
O52 C63 1.261 . S
O53 Tb40 2.303 . S
O53 C63 1.257 1_565 S
O54 Tb41 2.415 . S
O54 C70 1.239 . S
O55 Tb41 2.399 . S
O55 C70 1.263 . S
O56 Tb41 2.325 1_565 S
O56 C71 1.236 . S
O57 Tb40 2.322 . S
O57 C71 1.257 . S
O58 Tb40 2.349 . S
O58 C42 1.261 . S
O59 Tb41 2.303 . S
O59 C42 1.257 1_545 S
C60 O50 1.236 . S
C60 O51 1.257 . S
O61 Tb40 2.415 . S
O61 C49 1.239 . S
O62 Tb40 2.399 . S
O62 C49 1.263 . S
C63 O52 1.261 . S
C63 O53 1.257 1_545 S
C64 C67 1.358 . S
C64 C68 1.332 . S
C64 C70 1.504 . S
C65 C66 1.373 . S
C65 C69 1.308 . S
C66 C65 1.373 . S
C66 C67 1.429 . S
C66 H76 0.932 . S
C67 C64 1.358 . S
C67 C66 1.429 . S
C67 H77 0.930 . S
C68 C64 1.332 . S
C68 C69 1.394 . S
C68 H78 0.932 . S
C69 C65 1.308 . S
C69 C68 1.394 . S
C69 H79 0.929 . S
C70 Tb41 2.764 . S
C70 O54 1.239 . S
C70 O55 1.263 . S
C70 C64 1.504 . S
C71 O56 1.236 . S
C71 O57 1.257 . S
H72 C45 0.932 . S
H73 C46 0.930 . S
H74 C47 0.932 . S
H75 C48 0.929 . S
H76 C66 0.932 . S
H77 C67 0.930 . S
H78 C68 0.932 . S
H79 C69 0.929 . S
Tb80 C89 2.764 . S
Tb80 O90 2.325 . S
Tb80 O93 2.303 . S
Tb80 O97 2.322 . S
Tb80 O98 2.349 . S
Tb80 O101 2.415 . S
Tb80 O102 2.399 . S
Tb81 O91 2.322 . S
Tb81 O92 2.349 . S
Tb81 O94 2.415 . S
Tb81 O95 2.399 . S
Tb81 O96 2.325 . S
Tb81 O99 2.303 . S
Tb81 C110 2.764 . S
C82 O98 1.261 . S
C82 O99 1.257 . S
C83 C86 1.358 . S
C83 C87 1.332 . S
C83 C89 1.504 . S
C84 C85 1.373 . S
C84 C88 1.308 . S
C85 C84 1.373 . S
C85 C86 1.429 . S
C85 H112 0.932 . S
C86 C83 1.358 . S
C86 C85 1.429 . S
C86 H113 0.930 . S
C87 C83 1.332 . S
C87 C88 1.394 . S
C87 H114 0.932 . S
C88 C84 1.308 . S
C88 C87 1.394 . S
C88 H115 0.929 . S
C89 Tb80 2.764 . S
C89 C83 1.504 . S
C89 O101 1.239 . S
C89 O102 1.263 . S
O90 Tb80 2.325 . S
O90 C100 1.236 . S
O91 Tb81 2.322 . S
O91 C100 1.257 . S
O92 Tb81 2.349 . S
O92 C103 1.261 . S
O93 Tb80 2.303 . S
O93 C103 1.257 . S
O94 Tb81 2.415 . S
O94 C110 1.239 . S
O95 Tb81 2.399 . S
O95 C110 1.263 . S
O96 Tb81 2.325 . S
O96 C111 1.236 . S
O97 Tb80 2.322 . S
O97 C111 1.257 . S
O98 Tb80 2.349 . S
O98 C82 1.261 . S
O99 Tb81 2.303 . S
O99 C82 1.257 . S
C100 O90 1.236 . S
C100 O91 1.257 . S
O101 Tb80 2.415 . S
O101 C89 1.239 . S
O102 Tb80 2.399 . S
O102 C89 1.263 . S
C103 O92 1.261 . S
C103 O93 1.257 . S
C104 C107 1.358 . S
C104 C108 1.332 . S
C104 C110 1.504 . S
C105 C106 1.373 . S
C105 C109 1.308 . S
C106 C105 1.373 . S
C106 C107 1.429 . S
C106 H116 0.932 . S
C107 C104 1.358 . S
C107 C106 1.429 . S
C107 H117 0.930 . S
C108 C104 1.332 . S
C108 C109 1.394 . S
C108 H118 0.932 . S
C109 C105 1.308 . S
C109 C108 1.394 . S
C109 H119 0.929 . S
C110 Tb81 2.764 . S
C110 O94 1.239 . S
C110 O95 1.263 . S
C110 C104 1.504 . S
C111 O96 1.236 . S
C111 O97 1.257 . S
H112 C85 0.932 . S
H113 C86 0.930 . S
H114 C87 0.932 . S
H115 C88 0.929 . S
H116 C106 0.932 . S
H117 C107 0.930 . S
H118 C108 0.932 . S
H119 C109 0.929 . S
H120 C132 0.930 . S
H121 C134 0.930 . S
H122 C135 0.930 . S
H123 C139 0.959 . S
H124 C139 0.959 . S
H125 C139 0.961 1_565 S
H126 C140 0.960 . S
H127 C140 0.961 . S
H128 C140 0.959 . S
H129 C143 0.929 . S
H130 C144 0.931 . S
H131 C146 0.930 . S
C132 H120 0.930 . S
C132 C133 1.399 . S
C132 C137 1.399 1_565 S
C133 C132 1.399 . S
C133 C134 1.376 . S
C134 H121 0.930 . S
C134 C133 1.376 . S
C134 C135 1.388 1_565 S
C135 H122 0.930 . S
C135 C134 1.388 1_545 S
C135 C136 1.390 . S
C136 C135 1.390 . S
C136 C137 1.394 . S
C136 C142 1.465 . S
C137 C132 1.399 1_545 S
C137 C136 1.394 . S
C137 C138 1.516 . S
C138 C137 1.516 . S
C138 C139 1.502 1_455 S
C138 C140 1.561 . S
C138 C141 1.526 . S
C139 H123 0.959 . S
C139 H124 0.959 . S
C139 H125 0.961 1_545 S
C139 C138 1.502 1_655 S
C140 H126 0.960 . S
C140 H127 0.961 . S
C140 H128 0.959 . S
C140 C138 1.561 . S
C141 C138 1.526 . S
C141 C142 1.396 . S
C141 C146 1.390 . S
C142 C136 1.465 . S
C142 C141 1.396 . S
C142 C143 1.399 . S
C143 H129 0.929 . S
C143 C142 1.399 . S
C143 C144 1.385 . S
C144 H130 0.931 . S
C144 C143 1.385 . S
C144 C145 1.389 . S
C145 C144 1.389 . S
C145 C146 1.387 . S
C146 H131 0.930 . S
C146 C141 1.390 . S
C146 C145 1.387 . S
H147 C159 0.930 . S
H148 C161 0.930 . S
H149 C162 0.930 1_655 S
H150 C166 0.959 1_655 S
H151 C166 0.959 . S
H152 C166 0.961 . S
H153 C167 0.960 . S
H154 C167 0.961 . S
H155 C167 0.959 . S
H156 C170 0.929 . S
H157 C171 0.931 . S
H158 C173 0.930 . S
C159 H147 0.930 . S
C159 C160 1.399 1_545 S
C159 C164 1.399 . S
C160 C159 1.399 1_565 S
C160 C161 1.376 . S
C161 H148 0.930 . S
C161 C160 1.376 . S
C161 C162 1.388 . S
C162 H149 0.930 1_455 S
C162 C161 1.388 . S
C162 C163 1.390 1_455 S
C163 C162 1.390 1_655 S
C163 C164 1.394 1_665 S
C163 C169 1.465 . S
C164 C159 1.399 . S
C164 C163 1.394 1_445 S
C164 C165 1.516 . S
C165 C164 1.516 . S
C165 C166 1.502 . S
C165 C167 1.561 . S
C165 C168 1.526 1_455 S
C166 H150 0.959 1_455 S
C166 H151 0.959 . S
C166 H152 0.961 . S
C166 C165 1.502 . S
C167 H153 0.960 . S
C167 H154 0.961 . S
C167 H155 0.959 . S
C167 C165 1.561 . S
C168 C165 1.526 1_655 S
C168 C169 1.396 1_545 S
C168 C173 1.390 . S
C169 C163 1.465 . S
C169 C168 1.396 1_565 S
C169 C170 1.399 . S
C170 H156 0.929 . S
C170 C169 1.399 . S
C170 C171 1.385 . S
C171 H157 0.931 . S
C171 C170 1.385 . S
C171 C172 1.389 . S
C172 C171 1.389 . S
C172 C173 1.387 1_565 S
C173 H158 0.930 . S
C173 C168 1.390 . S
C173 C172 1.387 1_545 S
H174 C186 0.930 . S
H175 C188 0.930 . S
H176 C189 0.930 . S
H177 C193 0.959 1_455 S
H178 C193 0.959 1_455 S
H179 C193 0.961 . S
H180 C194 0.960 . S
H181 C194 0.961 . S
H182 C194 0.959 . S
H183 C197 0.929 . S
H184 C198 0.931 . S
H185 C200 0.930 . S
C186 H174 0.930 . S
C186 C187 1.399 . S
C186 C191 1.399 1_565 S
C187 C186 1.399 . S
C187 C188 1.376 . S
C188 H175 0.930 . S
C188 C187 1.376 . S
C188 C189 1.388 1_565 S
C189 H176 0.930 . S
C189 C188 1.388 1_545 S
C189 C190 1.390 . S
C190 C189 1.390 . S
C190 C191 1.394 . S
C190 C196 1.465 1_655 S
C191 C186 1.399 1_545 S
C191 C190 1.394 . S
C191 C192 1.516 . S
C192 C191 1.516 . S
C192 C193 1.502 . S
C192 C194 1.561 . S
C192 C195 1.526 1_655 S
C193 H177 0.959 1_655 S
C193 H178 0.959 1_655 S
C193 H179 0.961 . S
C193 C192 1.502 . S
C194 H180 0.960 . S
C194 H181 0.961 . S
C194 H182 0.959 . S
C194 C192 1.561 . S
C195 C192 1.526 1_455 S
C195 C196 1.396 . S
C195 C200 1.390 . S
C196 C190 1.465 1_455 S
C196 C195 1.396 . S
C196 C197 1.399 . S
C197 H183 0.929 . S
C197 C196 1.399 . S
C197 C198 1.385 . S
C198 H184 0.931 . S
C198 C197 1.385 . S
C198 C199 1.389 . S
C199 C198 1.389 . S
C199 C200 1.387 . S
C200 H185 0.930 . S
C200 C195 1.390 . S
C200 C199 1.387 . S
H201 C213 0.930 . S
H202 C215 0.930 . S
H203 C216 0.930 . S
H204 C220 0.959 . S
H205 C220 0.959 1_545 S
H206 C220 0.961 . S
H207 C221 0.960 . S
H208 C221 0.961 . S
H209 C221 0.959 1_565 S
H210 C224 0.929 . S
H211 C225 0.931 . S
H212 C227 0.930 . S
C213 H201 0.930 . S
C213 C214 1.399 . S
C213 C218 1.399 . S
C214 C213 1.399 . S
C214 C215 1.376 . S
C215 H202 0.930 . S
C215 C214 1.376 . S
C215 C216 1.388 . S
C216 H203 0.930 . S
C216 C215 1.388 . S
C216 C217 1.390 . S
C217 C216 1.390 . S
C217 C218 1.394 . S
C217 C223 1.465 . S
C218 C213 1.399 . S
C218 C217 1.394 . S
C218 C219 1.516 . S
C219 C218 1.516 . S
C219 C220 1.502 . S
C219 C221 1.561 1_565 S
C219 C222 1.526 . S
C220 H204 0.959 . S
C220 H205 0.959 1_565 S
C220 H206 0.961 . S
C220 C219 1.502 . S
C221 H207 0.960 . S
C221 H208 0.961 . S
C221 H209 0.959 1_545 S
C221 C219 1.561 1_545 S
C222 C219 1.526 . S
C222 C223 1.396 . S
C222 C227 1.390 . S
C223 C217 1.465 . S
C223 C222 1.396 . S
C223 C224 1.399 . S
C224 H210 0.929 . S
C224 C223 1.399 . S
C224 C225 1.385 1_556 S
C225 H211 0.931 . S
C225 C224 1.385 1_554 S
C225 C226 1.389 . S
C226 C225 1.389 . S
C226 C227 1.387 1_554 S
C227 H212 0.930 . S
C227 C222 1.390 . S
C227 C226 1.387 1_556 S
H228 C240 0.930 . S
H229 C242 0.930 . S
H230 C243 0.930 . S
H231 C247 0.959 . S
H232 C247 0.959 . S
H233 C247 0.961 . S
H234 C248 0.960 . S
H235 C248 0.961 . S
H236 C248 0.959 . S
H237 C251 0.929 . S
H238 C252 0.931 . S
H239 C254 0.930 . S
C240 H228 0.930 . S
C240 C241 1.399 . S
C240 C245 1.399 . S
C241 C240 1.399 . S
C241 C242 1.376 . S
C242 H229 0.930 . S
C242 C241 1.376 . S
C242 C243 1.388 . S
C243 H230 0.930 . S
C243 C242 1.388 . S
C243 C244 1.390 . S
C244 C243 1.390 . S
C244 C245 1.394 . S
C244 C250 1.465 . S
C245 C240 1.399 . S
C245 C244 1.394 . S
C245 C246 1.516 . S
C246 C245 1.516 . S
C246 C247 1.502 . S
C246 C248 1.561 . S
C246 C249 1.526 . S
C247 H231 0.959 . S
C247 H232 0.959 . S
C247 H233 0.961 . S
C247 C246 1.502 . S
C248 H234 0.960 . S
C248 H235 0.961 . S
C248 H236 0.959 . S
C248 C246 1.561 . S
C249 C246 1.526 . S
C249 C250 1.396 . S
C249 C254 1.390 . S
C250 C244 1.465 . S
C250 C249 1.396 . S
C250 C251 1.399 . S
C251 H237 0.929 . S
C251 C250 1.399 . S
C251 C252 1.385 . S
C252 H238 0.931 . S
C252 C251 1.385 . S
C252 C253 1.389 . S
C253 C252 1.389 . S
C253 C254 1.387 . S
C254 H239 0.930 . S
C254 C249 1.390 . S
C254 C253 1.387 . S
H255 C267 0.930 . S
H256 C269 0.930 . S
H257 C270 0.930 . S
H258 C274 0.959 . S
H259 C274 0.959 . S
H260 C274 0.961 . S
H261 C275 0.960 . S
H262 C275 0.961 . S
H263 C275 0.959 . S
H264 C278 0.929 1_545 S
H265 C279 0.931 1_545 S
H266 C281 0.930 . S
C267 H255 0.930 . S
C267 C268 1.399 . S
C267 C272 1.399 . S
C268 C267 1.399 . S
C268 C269 1.376 . S
C269 H256 0.930 . S
C269 C268 1.376 . S
C269 C270 1.388 . S
C270 H257 0.930 . S
C270 C269 1.388 . S
C270 C271 1.390 . S
C271 C270 1.390 . S
C271 C272 1.394 . S
C271 C277 1.465 . S
C272 C267 1.399 . S
C272 C271 1.394 . S
C272 C273 1.516 . S
C273 C272 1.516 . S
C273 C274 1.502 . S
C273 C275 1.561 . S
C273 C276 1.526 . S
C274 H258 0.959 . S
C274 H259 0.959 . S
C274 H260 0.961 . S
C274 C273 1.502 . S
C275 H261 0.960 . S
C275 H262 0.961 . S
C275 H263 0.959 . S
C275 C273 1.561 . S
C276 C273 1.526 . S
C276 C277 1.396 . S
C276 C281 1.390 . S
C277 C271 1.465 . S
C277 C276 1.396 . S
C277 C278 1.399 . S
C278 H264 0.929 1_565 S
C278 C277 1.399 . S
C278 C279 1.385 . S
C279 H265 0.931 1_565 S
C279 C278 1.385 . S
C279 C280 1.389 . S
C280 C279 1.389 . S
C280 C281 1.387 . S
C281 H266 0.930 . S
C281 C276 1.390 . S
C281 C280 1.387 . S
H282 C294 0.930 . S
H283 C296 0.930 . S
H284 C297 0.930 . S
H285 C301 0.959 . S
H286 C301 0.959 . S
H287 C301 0.961 . S
H288 C302 0.960 . S
H289 C302 0.961 . S
H290 C302 0.959 . S
H291 C305 0.929 1_455 S
H292 C306 0.931 . S
H293 C308 0.930 . S
C294 H282 0.930 . S
C294 C295 1.399 1_554 S
C294 C299 1.399 . S
C295 C294 1.399 1_556 S
C295 C296 1.376 . S
C296 H283 0.930 . S
C296 C295 1.376 . S
C296 C297 1.388 1_556 S
C297 H284 0.930 . S
C297 C296 1.388 1_554 S
C297 C298 1.390 . S
C298 C297 1.390 . S
C298 C299 1.394 . S
C298 C304 1.465 . S
C299 C294 1.399 . S
C299 C298 1.394 . S
C299 C300 1.516 . S
C300 C299 1.516 . S
C300 C301 1.502 . S
C300 C302 1.561 . S
C300 C303 1.526 . S
C301 H285 0.959 . S
C301 H286 0.959 . S
C301 H287 0.961 . S
C301 C300 1.502 . S
C302 H288 0.960 . S
C302 H289 0.961 . S
C302 H290 0.959 . S
C302 C300 1.561 . S
C303 C300 1.526 . S
C303 C304 1.396 . S
C303 C308 1.390 . S
C304 C298 1.465 . S
C304 C303 1.396 . S
C304 C305 1.399 . S
C305 H291 0.929 1_655 S
C305 C304 1.399 . S
C305 C306 1.385 1_655 S
C306 H292 0.931 . S
C306 C305 1.385 1_455 S
C306 C307 1.389 1_455 S
C307 C306 1.389 1_655 S
C307 C308 1.387 . S
C308 H293 0.930 . S
C308 C303 1.390 . S
C308 C307 1.387 . S
H309 C321 0.930 . S
H310 C323 0.930 . S
H311 C324 0.930 . S
H312 C328 0.959 . S
H313 C328 0.959 . S
H314 C328 0.961 . S
H315 C329 0.960 . S
H316 C329 0.961 . S
H317 C329 0.959 . S
H318 C332 0.929 . S
H319 C333 0.931 . S
H320 C335 0.930 . S
C321 H309 0.930 . S
C321 C322 1.399 . S
C321 C326 1.399 . S
C322 C321 1.399 . S
C322 C323 1.376 . S
C323 H310 0.930 . S
C323 C322 1.376 . S
C323 C324 1.388 . S
C324 H311 0.930 . S
C324 C323 1.388 . S
C324 C325 1.390 . S
C325 C324 1.390 . S
C325 C326 1.394 . S
C325 C331 1.465 . S
C326 C321 1.399 . S
C326 C325 1.394 . S
C326 C327 1.516 . S
C327 C326 1.516 . S
C327 C328 1.502 . S
C327 C329 1.561 . S
C327 C330 1.526 . S
C328 H312 0.959 . S
C328 H313 0.959 . S
C328 H314 0.961 . S
C328 C327 1.502 . S
C329 H315 0.960 . S
C329 H316 0.961 . S
C329 H317 0.959 . S
C329 C327 1.561 . S
C330 C327 1.526 . S
C330 C331 1.396 . S
C330 C335 1.390 . S
C331 C325 1.465 . S
C331 C330 1.396 . S
C331 C332 1.399 . S
C332 H318 0.929 . S
C332 C331 1.399 . S
C332 C333 1.385 . S
C333 H319 0.931 . S
C333 C332 1.385 . S
C333 C334 1.389 . S
C334 C333 1.389 . S
C334 C335 1.387 . S
C335 H320 0.930 . S
C335 C330 1.390 . S
C335 C334 1.387 . S
H336 C348 0.930 . S
H337 C350 0.930 . S
H338 C351 0.930 . S
H339 C355 0.959 . S
H340 C355 0.959 . S
H341 C355 0.961 . S
H342 C356 0.960 . S
H343 C356 0.961 . S
H344 C356 0.959 . S
H345 C359 0.929 . S
H346 C360 0.931 . S
H347 C362 0.930 . S
C348 H336 0.930 . S
C348 C349 1.399 . S
C348 C353 1.399 . S
C349 C348 1.399 . S
C349 C350 1.376 . S
C350 H337 0.930 . S
C350 C349 1.376 . S
C350 C351 1.388 . S
C351 H338 0.930 . S
C351 C350 1.388 . S
C351 C352 1.390 . S
C352 C351 1.390 . S
C352 C353 1.394 . S
C352 C358 1.465 . S
C353 C348 1.399 . S
C353 C352 1.394 . S
C353 C354 1.516 . S
C354 C353 1.516 . S
C354 C355 1.502 . S
C354 C356 1.561 . S
C354 C357 1.526 . S
C355 H339 0.959 . S
C355 H340 0.959 . S
C355 H341 0.961 . S
C355 C354 1.502 . S
C356 H342 0.960 . S
C356 H343 0.961 . S
C356 H344 0.959 . S
C356 C354 1.561 . S
C357 C354 1.526 . S
C357 C358 1.396 . S
C357 C362 1.390 . S
C358 C352 1.465 . S
C358 C357 1.396 . S
C358 C359 1.399 . S
C359 H345 0.929 . S
C359 C358 1.399 . S
C359 C360 1.385 . S
C360 H346 0.931 . S
C360 C359 1.385 . S
C360 C361 1.389 . S
C361 C360 1.389 . S
C361 C362 1.387 . S
C362 H347 0.930 . S
C362 C357 1.390 . S
C362 C361 1.387 . S
C133 C23 1.545 . S
C145 C2 1.474 . S
C160 C42 1.474 . S
C172 C63 1.543 1_565 S
C187 C82 1.530 . S
C199 C103 1.484 . S
C214 C111 1.230 . S
C226 C4 1.097 . S
C241 C60 1.463 . S
C253 C25 1.419 . S
C268 C84 1.187 . S
C280 C71 1.193 . S
C295 C105 1.430 . S
C307 C20 1.459 . S
C322 C31 1.193 . S
C334 C44 1.195 . S
C349 C100 1.468 . S
C361 C65 1.431 . S
