# Generated by pormake.
# Topology zfr, (5)-cn, num edge types: 1
# Building blocks:
#     Node 0, Type 0, BuildingBlock: XOMCOT_clean_sbu_0, # of connection points: 5
#     Node 1, Type 0, BuildingBlock: XOMCOT_clean_sbu_0, # of connection points: 5
#     Node 2, Type 0, BuildingBlock: XOMCOT_clean_sbu_0, # of connection points: 5
#     Node 3, Type 0, BuildingBlock: XOMCOT_clean_sbu_0, # of connection points: 5
#     Node 4, Type 0, BuildingBlock: XOMCOT_clean_sbu_0, # of connection points: 5
#     Node 5, Type 0, BuildingBlock: XOMCOT_clean_sbu_0, # of connection points: 5
#     Node 6, Type 0, BuildingBlock: XOMCOT_clean_sbu_0, # of connection points: 5
#     Node 7, Type 0, BuildingBlock: XOMCOT_clean_sbu_0, # of connection points: 5
#     Edge 8, Type (0, 0), BuildingBlock: UVAHIK_clean_linker_0, # of connection points: 2
#     Edge 9, Type (0, 0), BuildingBlock: UVAHIK_clean_linker_0, # of connection points: 2
#     Edge 10, Type (0, 0), BuildingBlock: UVAHIK_clean_linker_0, # of connection points: 2
#     Edge 11, Type (0, 0), BuildingBlock: UVAHIK_clean_linker_0, # of connection points: 2
#     Edge 12, Type (0, 0), BuildingBlock: UVAHIK_clean_linker_0, # of connection points: 2
#     Edge 13, Type (0, 0), BuildingBlock: UVAHIK_clean_linker_0, # of connection points: 2
#     Edge 14, Type (0, 0), BuildingBlock: UVAHIK_clean_linker_0, # of connection points: 2
#     Edge 15, Type (0, 0), BuildingBlock: UVAHIK_clean_linker_0, # of connection points: 2
#     Edge 16, Type (0, 0), BuildingBlock: UVAHIK_clean_linker_0, # of connection points: 2
#     Edge 17, Type (0, 0), BuildingBlock: UVAHIK_clean_linker_0, # of connection points: 2
#     Edge 18, Type (0, 0), BuildingBlock: UVAHIK_clean_linker_0, # of connection points: 2
#     Edge 19, Type (0, 0), BuildingBlock: UVAHIK_clean_linker_0, # of connection points: 2
#     Edge 20, Type (0, 0), BuildingBlock: UVAHIK_clean_linker_0, # of connection points: 2
#     Edge 21, Type (0, 0), BuildingBlock: UVAHIK_clean_linker_0, # of connection points: 2
#     Edge 22, Type (0, 0), BuildingBlock: UVAHIK_clean_linker_0, # of connection points: 2
#     Edge 23, Type (0, 0), BuildingBlock: UVAHIK_clean_linker_0, # of connection points: 2
#     Edge 24, Type (0, 0), BuildingBlock: UVAHIK_clean_linker_0, # of connection points: 2
#     Edge 25, Type (0, 0), BuildingBlock: UVAHIK_clean_linker_0, # of connection points: 2
#     Edge 26, Type (0, 0), BuildingBlock: UVAHIK_clean_linker_0, # of connection points: 2
#     Edge 27, Type (0, 0), BuildingBlock: UVAHIK_clean_linker_0, # of connection points: 2
# Relax obj value: 0.171
# Max RMSD: 0.170
# Mean RMSD: 0.170
data_MOF--net-zfr--node1-XOMCOT_clean_sbu_0--edge1-UVAHIK_clean_linker_0
_symmetry_space_group_name_H-M    P1
_symmetry_Int_Tables_number       1
_symmetry_cell_setting            triclinic
loop_
_symmetry_equiv_pos_as_xyz
'x, y, z'
_cell_length_a     65.236686
_cell_length_b     65.2292
_cell_length_c     21.803055
_cell_angle_alpha  89.968473
_cell_angle_beta   89.978368
_cell_angle_gamma 89.964281
loop_
_atom_site_label
_atom_site_type_symbol
_atom_site_fract_x
_atom_site_fract_y
_atom_site_fract_z
_atom_type_partial_charge
Co0 Co 0.13515 0.31646 0.18722 0.0
C1 C 0.12906 0.31621 0.32266 0.0
C2 C 0.10274 0.30501 0.27482 0.0
C3 C 0.09932 0.30285 0.33668 0.0
N4 N 0.12109 0.31416 0.26578 0.0
N5 N 0.11595 0.30979 0.36647 0.0
H6 H 0.14455 0.32096 0.33225 0.0
H7 H 0.09295 0.29911 0.23899 0.0
C8 C 0.09314 0.33106 0.16005 0.0
O9 O 0.09523 0.34315 0.20788 0.0
N10 N 0.14913 0.31784 0.10963 0.0
C11 C 0.16741 0.32675 0.09893 0.0
C12 C 0.17116 0.3263 0.03684 0.0
C13 C 0.14211 0.3118 0.05449 0.0
N14 N 0.15524 0.31691 0.00918 0.0
C15 C 0.14892 0.35436 0.24094 0.0
C16 C 0.13349 0.3798 0.15068 0.0
C17 C 0.14352 0.38858 0.20107 0.0
C18 C 0.15164 0.3755 0.24597 0.0
C19 C 0.13128 0.35856 0.14727 0.0
N20 N 0.13793 0.34615 0.19379 0.0
H21 H 0.15635 0.34466 0.27392 0.0
H22 H 0.12418 0.35209 0.10694 0.0
H23 H 0.17697 0.33373 0.13366 0.0
H24 H 0.12732 0.30467 0.04733 0.0
O25 O 0.16039 0.30875 0.22575 0.0
O26 O 0.13766 0.28691 0.18732 0.0
O27 O 0.10782 0.31916 0.14429 0.0
C28 C 0.15488 0.28986 0.21632 0.0
H29 H 0.08622 0.29556 0.35797 0.0
H30 H 0.18437 0.33271 0.01368 0.0
H31 H 0.12721 0.38919 0.1143 0.0
H32 H 0.16043 0.38148 0.28409 0.0
Co33 Co 0.67606 0.13537 0.4413 0.0
C34 C 0.67737 0.12929 0.57673 0.0
C35 C 0.69192 0.10477 0.52825 0.0
C36 C 0.69459 0.10154 0.59006 0.0
N37 N 0.68044 0.1218 0.51972 0.0
N38 N 0.68553 0.11707 0.62022 0.0
H39 H 0.67045 0.1439 0.58673 0.0
H40 H 0.69879 0.09581 0.49195 0.0
C41 C 0.66464 0.09203 0.41821 0.0
O42 O 0.65407 0.09267 0.46952 0.0
N43 N 0.67259 0.14892 0.36366 0.0
C44 C 0.66182 0.16618 0.35298 0.0
C45 C 0.66164 0.16979 0.29076 0.0
C46 C 0.67909 0.14239 0.30842 0.0
N47 N 0.67251 0.15483 0.26305 0.0
C48 C 0.63848 0.14858 0.49786 0.0
C49 C 0.61237 0.1294 0.41639 0.0
C50 C 0.60396 0.14061 0.46514 0.0
C51 C 0.61735 0.15054 0.50562 0.0
C52 C 0.6336 0.12797 0.41014 0.0
N53 N 0.64644 0.13655 0.45254 0.0
H54 H 0.64834 0.15754 0.5268 0.0
H55 H 0.63966 0.12024 0.37029 0.0
H56 H 0.65417 0.17516 0.38785 0.0
H57 H 0.68774 0.12843 0.30133 0.0
O58 O 0.68316 0.16111 0.47805 0.0
O59 O 0.70537 0.13933 0.43659 0.0
O60 O 0.67424 0.1079 0.39926 0.0
C61 C 0.7021 0.15642 0.46595 0.0
H62 H 0.7035 0.08942 0.61108 0.0
H63 H 0.65392 0.18228 0.26759 0.0
H64 H 0.60268 0.12178 0.38318 0.0
H65 H 0.61159 0.16026 0.54201 0.0
Co66 Co 0.85726 0.6755 0.68739 0.0
C67 C 0.86366 0.67591 0.82098 0.0
C68 C 0.89053 0.68631 0.77344 0.0
C69 C 0.89405 0.68763 0.83568 0.0
N70 N 0.8715 0.67888 0.76445 0.0
N71 N 0.87706 0.68123 0.86527 0.0
H72 H 0.84834 0.67024 0.82958 0.0
H73 H 0.90093 0.69105 0.73754 0.0
C74 C 0.88987 0.66211 0.60061 0.0
O75 O 0.87725 0.64771 0.5819 0.0
N76 N 0.84276 0.67287 0.60949 0.0
C77 C 0.82431 0.6643 0.59808 0.0
C78 C 0.82034 0.66539 0.53621 0.0
C79 C 0.84898 0.68032 0.55463 0.0
N80 N 0.83596 0.67533 0.50897 0.0
C81 C 0.83969 0.63566 0.71007 0.0
C82 C 0.87642 0.61476 0.71767 0.0
C83 C 0.85808 0.60362 0.71969 0.0
C84 C 0.83952 0.61443 0.7178 0.0
C85 C 0.87583 0.63597 0.71001 0.0
N86 N 0.85764 0.64597 0.70121 0.0
H87 H 0.82537 0.64378 0.71262 0.0
H88 H 0.89011 0.64432 0.71089 0.0
H89 H 0.81398 0.65804 0.63166 0.0
H90 H 0.86316 0.6886 0.54774 0.0
O91 O 0.83184 0.68183 0.72737 0.0
O92 O 0.85263 0.70474 0.68485 0.0
O93 O 0.88438 0.67457 0.6428 0.0
C94 C 0.83593 0.70093 0.71561 0.0
H95 H 0.90771 0.6936 0.85746 0.0
H96 H 0.80699 0.65934 0.51299 0.0
H97 H 0.89111 0.60718 0.72242 0.0
H98 H 0.82495 0.60658 0.72149 0.0
Co99 Co 0.3148 0.85782 0.94201 0.0
C100 C 0.31731 0.8647 0.07464 0.0
C101 C 0.30367 0.89047 0.02897 0.0
C102 C 0.30253 0.8936 0.0914 0.0
N103 N 0.31293 0.87234 0.01878 0.0
N104 N 0.31094 0.87727 0.11998 0.0
H105 H 0.32425 0.84982 0.08181 0.0
H106 H 0.29712 0.90016 0.99381 0.0
C107 C 0.32717 0.88988 0.85186 0.0
O108 O 0.34091 0.87691 0.83081 0.0
N109 N 0.31587 0.8431 0.86443 0.0
C110 C 0.32419 0.82467 0.85131 0.0
C111 C 0.32152 0.82066 0.78984 0.0
C112 C 0.30721 0.84936 0.81138 0.0
N113 N 0.31107 0.83637 0.76465 0.0
C114 C 0.35425 0.8392 0.96216 0.0
C115 C 0.3765 0.87522 0.96302 0.0
C116 C 0.38689 0.85653 0.96814 0.0
C117 C 0.37549 0.83837 0.9695 0.0
C118 C 0.35523 0.87532 0.95692 0.0
N119 N 0.3445 0.85739 0.95171 0.0
H120 H 0.34567 0.8252 0.96666 0.0
H121 H 0.34742 0.88991 0.95685 0.0
H122 H 0.33157 0.81452 0.88337 0.0
H123 H 0.29852 0.86341 0.80683 0.0
O124 O 0.30841 0.8327 0.98371 0.0
O125 O 0.28543 0.85397 0.94372 0.0
O126 O 0.3156 0.88482 0.89674 0.0
C127 C 0.28926 0.83731 0.9747 0.0
H128 H 0.29494 0.90629 0.11391 0.0
H129 H 0.32744 0.80751 0.76531 0.0
H130 H 0.38472 0.88963 0.96494 0.0
H131 H 0.38292 0.82367 0.97581 0.0
Co132 Co 0.13295 0.67881 0.30876 0.0
C133 C 0.12578 0.67904 0.17348 0.0
C134 C 0.10346 0.69649 0.22306 0.0
C135 C 0.09949 0.69854 0.16149 0.0
N136 N 0.11968 0.68389 0.23072 0.0
N137 N 0.11356 0.68753 0.13048 0.0
H138 H 0.13952 0.67068 0.1627 0.0
H139 H 0.09536 0.70411 0.25987 0.0
C140 C 0.08991 0.66569 0.32547 0.0
O141 O 0.09199 0.65565 0.27356 0.0
N142 N 0.14601 0.67462 0.38651 0.0
C143 C 0.16403 0.66514 0.39686 0.0
C144 C 0.16741 0.66466 0.45915 0.0
C145 C 0.13876 0.67999 0.44187 0.0
N146 N 0.1515 0.67401 0.48716 0.0
C147 C 0.14883 0.64252 0.25055 0.0
C148 C 0.12896 0.61464 0.32508 0.0
C149 C 0.14146 0.60731 0.27759 0.0
C150 C 0.15174 0.62159 0.24071 0.0
C151 C 0.12662 0.6357 0.33349 0.0
N152 N 0.13544 0.64941 0.29403 0.0
H153 H 0.15808 0.65312 0.22476 0.0
H154 H 0.11798 0.64091 0.37272 0.0
H155 H 0.17382 0.65878 0.36165 0.0
H156 H 0.12419 0.68759 0.44889 0.0
O157 O 0.15872 0.68743 0.27495 0.0
O158 O 0.13581 0.70815 0.31799 0.0
O159 O 0.1051 0.67554 0.34793 0.0
C160 C 0.1534 0.70592 0.2905 0.0
H161 H 0.0874 0.70767 0.14123 0.0
H162 H 0.18052 0.65794 0.48202 0.0
H163 H 0.12105 0.60426 0.35574 0.0
H164 H 0.16244 0.61667 0.20568 0.0
Co165 Co 0.31283 0.13243 0.5542 0.0
C166 C 0.31406 0.12508 0.41925 0.0
C167 C 0.29766 0.10175 0.46771 0.0
C168 C 0.29614 0.09781 0.406 0.0
N169 N 0.30935 0.11857 0.47622 0.0
N170 N 0.30648 0.11253 0.37567 0.0
H171 H 0.32141 0.13945 0.40909 0.0
H172 H 0.29008 0.09331 0.50391 0.0
C173 C 0.3262 0.08972 0.57612 0.0
O174 O 0.33734 0.09169 0.52619 0.0
N175 N 0.31546 0.14616 0.63161 0.0
C176 C 0.32398 0.16468 0.64134 0.0
C177 C 0.32416 0.16839 0.70343 0.0
C178 C 0.31038 0.1389 0.68727 0.0
N179 N 0.31563 0.15215 0.73208 0.0
C180 C 0.35018 0.14766 0.5003 0.0
C181 C 0.37648 0.12922 0.58286 0.0
C182 C 0.38477 0.14091 0.53498 0.0
C183 C 0.37128 0.15049 0.49396 0.0
C184 C 0.35531 0.1269 0.58761 0.0
N185 N 0.34243 0.13499 0.5444 0.0
H186 H 0.34013 0.15643 0.47131 0.0
H187 H 0.3493 0.1188 0.62687 0.0
H188 H 0.33006 0.17454 0.60584 0.0
H189 H 0.30368 0.12395 0.69494 0.0
O190 O 0.30469 0.15788 0.51719 0.0
O191 O 0.28335 0.13515 0.55827 0.0
O192 O 0.3156 0.10487 0.59569 0.0
C193 C 0.28597 0.15255 0.52999 0.0
H194 H 0.28765 0.08538 0.38517 0.0
H195 H 0.33025 0.18189 0.72577 0.0
H196 H 0.38622 0.12185 0.6165 0.0
H197 H 0.37692 0.16058 0.45828 0.0
Co198 Co 0.86097 0.31252 0.79938 0.0
C199 C 0.86683 0.31011 0.66595 0.0
C200 C 0.89367 0.29983 0.71399 0.0
C201 C 0.89714 0.298 0.65185 0.0
N202 N 0.87471 0.30751 0.72253 0.0
N203 N 0.88019 0.30436 0.62195 0.0
H204 H 0.85162 0.31606 0.65719 0.0
H205 H 0.90412 0.29548 0.75021 0.0
C206 C 0.89355 0.32845 0.88204 0.0
O207 O 0.88054 0.34274 0.89926 0.0
N208 N 0.84706 0.31686 0.87739 0.0
C209 C 0.82942 0.32694 0.88949 0.0
C210 C 0.82579 0.32637 0.9516 0.0
C211 C 0.8532 0.30935 0.93217 0.0
N212 N 0.84083 0.31541 0.97832 0.0
C213 C 0.84195 0.3507 0.76564 0.0
C214 C 0.87766 0.37315 0.75577 0.0
C215 C 0.85881 0.38326 0.74994 0.0
C216 C 0.8408 0.37162 0.75293 0.0
C217 C 0.87804 0.35218 0.76847 0.0
N218 N 0.86028 0.34158 0.77848 0.0
H219 H 0.82805 0.34183 0.76413 0.0
H220 H 0.89271 0.34456 0.77046 0.0
H221 H 0.81947 0.33404 0.85644 0.0
H222 H 0.86695 0.3003 0.93847 0.0
O223 O 0.83541 0.30444 0.76333 0.0
O224 O 0.85726 0.28331 0.80946 0.0
O225 O 0.88834 0.31526 0.84162 0.0
C226 C 0.84007 0.28589 0.7801 0.0
H227 H 0.91081 0.29192 0.63037 0.0
H228 H 0.81305 0.33346 0.97533 0.0
H229 H 0.89201 0.38137 0.75181 0.0
H230 H 0.82596 0.37858 0.74498 0.0
Co231 Co 0.67858 0.86175 0.04774 0.0
C232 C 0.68169 0.86718 0.91223 0.0
C233 C 0.694 0.89281 0.96092 0.0
C234 C 0.69712 0.89595 0.89926 0.0
N235 N 0.68349 0.87516 0.96918 0.0
N236 N 0.68944 0.87974 0.86894 0.0
H237 H 0.67601 0.85204 0.9023 0.0
H238 H 0.69994 0.90236 -0.00271 0.0
C239 C 0.66683 0.90496 0.07163 0.0
O240 O 0.65608 0.90427 0.02069 0.0
N241 N 0.67473 0.84836 0.12557 0.0
C242 C 0.66389 0.83116 0.13632 0.0
C243 C 0.66379 0.82751 0.19853 0.0
C244 C 0.68139 0.85477 0.18073 0.0
N245 N 0.67482 0.84236 0.22616 0.0
C246 C 0.6407 0.85095 0.98736 0.0
C247 C 0.61508 0.86762 0.07514 0.0
C248 C 0.60647 0.85834 0.02341 0.0
C249 C 0.61951 0.84981 0.97932 0.0
C250 C 0.63634 0.86872 0.08083 0.0
N251 N 0.64895 0.86118 0.03601 0.0
H252 H 0.65032 0.84284 0.95569 0.0
H253 H 0.64266 0.87535 0.12208 0.0
H254 H 0.65617 0.82224 0.10149 0.0
H255 H 0.69023 0.86861 0.18768 0.0
O256 O 0.68533 0.83575 0.01184 0.0
O257 O 0.70776 0.85729 0.05358 0.0
O258 O 0.67692 0.88926 0.0896 0.0
C259 C 0.70426 0.84001 0.02553 0.0
H260 H 0.70534 0.9086 0.87853 0.0
H261 H 0.65609 0.81502 0.22172 0.0
H262 H 0.60547 0.87403 0.11086 0.0
H263 H 0.61337 0.84174 0.93999 0.0
C264 C 0.27201 0.18603 0.49582 0.0
C265 C 0.26865 0.16533 0.50991 0.0
C266 C 0.25631 0.19791 0.4712 0.0
C267 C 0.21158 0.1944 0.37473 0.0
H268 H 0.20339 0.25064 0.42687 0.0
C269 C 0.15805 0.25332 0.25086 0.0
C270 C 0.1666 0.27297 0.24422 0.0
C271 C 0.16813 0.2384 0.28596 0.0
C272 C 0.20554 0.23497 0.4117 0.0
H273 H 0.24626 0.14079 0.51051 0.0
H274 H 0.21867 0.16168 0.466 0.0
H275 H 0.22461 0.22782 0.48853 0.0
H276 H 0.19284 0.29207 0.26578 0.0
H277 H 0.21043 0.26612 0.32571 0.0
H278 H 0.19312 0.20189 0.29643 0.0
C279 C 0.23346 0.16865 0.47462 0.0
C280 C 0.21758 0.22192 0.44713 0.0
C281 C 0.24915 0.15678 0.50032 0.0
C282 C 0.18577 0.27713 0.27055 0.0
C283 C 0.19577 0.26232 0.30536 0.0
C284 C 0.19953 0.20754 0.33899 0.0
C285 C 0.237 0.18928 0.45943 0.0
C286 C 0.22126 0.20172 0.42798 0.0
C287 C 0.18682 0.24301 0.31489 0.0
C288 C 0.19702 0.22815 0.35616 0.0
H289 H 0.2869 0.19298 0.50283 0.0
H290 H 0.25953 0.21371 0.45924 0.0
H291 H 0.21429 0.1789 0.35886 0.0
H292 H 0.14323 0.24975 0.23121 0.0
H293 H 0.16094 0.22359 0.29241 0.0
C294 C 0.80621 0.2723 0.74891 0.0
C295 C 0.8269 0.26864 0.76236 0.0
C296 C 0.79406 0.25678 0.72459 0.0
C297 C 0.79728 0.21274 0.62594 0.0
H298 H 0.7408 0.20485 0.67605 0.0
C299 C 0.73871 0.16028 0.49817 0.0
C300 C 0.7189 0.16854 0.49257 0.0
C301 C 0.75353 0.17036 0.5334 0.0
C302 C 0.75653 0.20695 0.66137 0.0
H303 H 0.85112 0.24589 0.76274 0.0
H304 H 0.82977 0.2186 0.71865 0.0
H305 H 0.76366 0.22529 0.73978 0.0
H306 H 0.69941 0.19435 0.51573 0.0
H307 H 0.72528 0.21206 0.57576 0.0
H308 H 0.78986 0.19505 0.54612 0.0
C309 C 0.82301 0.23348 0.72757 0.0
C310 C 0.7696 0.21851 0.69804 0.0
C311 C 0.83513 0.24899 0.75305 0.0
C312 C 0.71451 0.18753 0.51969 0.0
C313 C 0.72925 0.19757 0.55459 0.0
C314 C 0.78413 0.20119 0.58897 0.0
C315 C 0.80244 0.23738 0.71243 0.0
C316 C 0.78991 0.22203 0.67974 0.0
C317 C 0.74869 0.1888 0.56342 0.0
C318 C 0.76345 0.19878 0.60543 0.0
H319 H 0.79951 0.28733 0.75576 0.0
H320 H 0.77831 0.26026 0.71272 0.0
H321 H 0.81287 0.21538 0.61066 0.0
H322 H 0.74246 0.14558 0.47795 0.0
H323 H 0.76843 0.16329 0.53931 0.0
C324 C 0.83096 0.73738 0.7482 0.0
C325 C 0.82336 0.71732 0.7427 0.0
C326 C 0.82022 0.752 0.78247 0.0
C327 C 0.78179 0.75471 0.90657 0.0
H328 H 0.77435 0.81105 0.85434 0.0
C329 C 0.71664 0.80592 0.99113 0.0
C330 C 0.72096 0.82639 0.00581 0.0
C331 C 0.7318 0.79339 0.9663 0.0
C332 C 0.77664 0.79545 0.86995 0.0
H333 H 0.79809 0.69711 0.7654 0.0
H334 H 0.77915 0.72263 0.82344 0.0
H335 H 0.79533 0.78785 0.79239 0.0
H336 H 0.74451 0.84983 0.00738 0.0
H337 H 0.77111 0.82783 0.96253 0.0
H338 H 0.76246 0.76208 0.98273 0.0
C339 C 0.79366 0.72697 0.80311 0.0
C340 C 0.7886 0.78217 0.8345 0.0
C341 C 0.80441 0.71241 0.76932 0.0
C342 C 0.74086 0.83402 -0.00326 0.0
C343 C 0.756 0.82154 0.97083 0.0
C344 C 0.76976 0.7679 0.94162 0.0
C345 C 0.8017 0.74675 0.81151 0.0
C346 C 0.79082 0.76152 0.85165 0.0
C347 C 0.75149 0.80118 0.95486 0.0
C348 C 0.76668 0.78824 0.92286 0.0
H349 H 0.84561 0.74153 0.72838 0.0
H350 H 0.82678 0.76712 0.78813 0.0
H351 H 0.7837 0.73903 0.92191 0.0
H352 H 0.70141 0.79968 -0.00227 0.0
H353 H 0.72788 0.7778 0.95381 0.0
C354 C 0.15767 0.74294 0.26377 0.0
C355 C 0.1663 0.72348 0.27354 0.0
C356 C 0.16961 0.75878 0.23932 0.0
C357 C 0.22283 0.77519 0.21302 0.0
H358 H 0.20288 0.79807 0.05995 0.0
C359 C 0.27797 0.80711 0.03525 0.0
C360 C 0.27297 0.82546 0.00519 0.0
C361 C 0.26353 0.79715 0.07159 0.0
C362 C 0.20853 0.79213 0.10316 0.0
H363 H 0.1942 0.7055 0.26889 0.0
H364 H 0.21508 0.73317 0.22757 0.0
H365 H 0.18006 0.77718 0.12334 0.0
H366 H 0.24874 0.84747 0.98774 0.0
H367 H 0.22332 0.82993 0.05165 0.0
H368 H 0.25139 0.78966 0.19256 0.0
C369 C 0.19916 0.73623 0.23832 0.0
C370 C 0.19546 0.78023 0.13947 0.0
C371 C 0.18719 0.72037 0.26162 0.0
C372 C 0.25296 0.83327 0.01018 0.0
C373 C 0.23845 0.82327 0.04684 0.0
C374 C 0.23582 0.78714 0.17704 0.0
C375 C 0.19039 0.75544 0.22565 0.0
C376 C 0.20275 0.77112 0.19366 0.0
C377 C 0.24378 0.80536 0.079 0.0
C378 C 0.22904 0.79512 0.12067 0.0
H379 H 0.14154 0.74564 0.27232 0.0
H380 H 0.16255 0.77349 0.23 0.0
H381 H 0.2287 0.76855 0.25507 0.0
H382 H 0.29324 0.80065 0.03197 0.0
H383 H 0.26793 0.78306 0.09441 0.0
C384 C 0.10364 0.313 0.47271 0.0
C385 C 0.11961 0.30891 0.43135 0.0
C386 C 0.10725 0.31276 0.5358 0.0
C387 C 0.14077 0.29216 0.65452 0.0
H388 H 0.1248 0.34017 0.74807 0.0
C389 C 0.14179 0.29748 0.92089 0.0
C390 C 0.15191 0.31478 0.94438 0.0
C391 C 0.13804 0.29576 0.85798 0.0
C392 C 0.12931 0.32668 0.72243 0.0
H393 H 0.15165 0.30058 0.42311 0.0
H394 H 0.15795 0.2999 0.53383 0.0
H395 H 0.11746 0.33868 0.63815 0.0
H396 H 0.16586 0.34388 0.92101 0.0
H397 H 0.15899 0.34105 0.81114 0.0
H398 H 0.15249 0.28013 0.73916 0.0
C399 C 0.14271 0.30349 0.51729 0.0
C400 C 0.12501 0.32578 0.65982 0.0
C401 C 0.13916 0.30407 0.45413 0.0
C402 C 0.15823 0.3303 0.90395 0.0
C403 C 0.15417 0.32876 0.84132 0.0
C404 C 0.14476 0.29292 0.71747 0.0
C405 C 0.12683 0.30805 0.55859 0.0
C406 C 0.13083 0.30858 0.62526 0.0
C407 C 0.14399 0.31151 0.81785 0.0
C408 C 0.13923 0.31028 0.75174 0.0
H409 H 0.08847 0.31682 0.45608 0.0
H410 H 0.09475 0.31622 0.56684 0.0
H411 H 0.14532 0.2787 0.62875 0.0
H412 H 0.13688 0.28529 0.95122 0.0
H413 H 0.13009 0.28235 0.84084 0.0
C414 C 0.65898 0.15639 0.1577 0.0
C415 C 0.67503 0.15173 0.19827 0.0
C416 C 0.66104 0.15255 0.09504 0.0
C417 C 0.69797 0.14724 0.97174 0.0
H418 H 0.65582 0.11508 0.89117 0.0
C419 C 0.68825 0.14066 0.70816 0.0
C420 C 0.68588 0.1207 0.68514 0.0
C421 C 0.68822 0.14419 0.77134 0.0
C422 C 0.66773 0.124 0.9132 0.0
H423 H 0.70596 0.13993 0.20534 0.0
H424 H 0.70978 0.13358 0.095 0.0
H425 H 0.65315 0.12217 0.00109 0.0
H426 H 0.68175 0.0888 0.70946 0.0
H427 H 0.68123 0.09501 0.82034 0.0
H428 H 0.71232 0.14942 0.8834 0.0
C429 C 0.69556 0.14002 0.11201 0.0
C430 C 0.66613 0.12816 0.9758 0.0
C431 C 0.69335 0.14352 0.17492 0.0
C432 C 0.68365 0.1043 0.7263 0.0
C433 C 0.68326 0.10786 0.78944 0.0
C434 C 0.69938 0.14339 0.90881 0.0
C435 C 0.67933 0.1443 0.07172 0.0
C436 C 0.68123 0.1398 0.00557 0.0
C437 C 0.68548 0.12784 0.81245 0.0
C438 C 0.68428 0.13171 0.87911 0.0
H439 H 0.64464 0.16254 0.17467 0.0
H440 H 0.64836 0.15606 0.06473 0.0
H441 H 0.70976 0.15633 0.99378 0.0
H442 H 0.69026 0.15351 0.67728 0.0
H443 H 0.68988 0.15974 0.78805 0.0
C444 C 0.85395 0.68669 0.95342 0.0
C445 C 0.87341 0.68158 0.93035 0.0
C446 C 0.85043 0.68728 0.01664 0.0
C447 C 0.86791 0.6653 0.16054 0.0
H448 H 0.84055 0.71151 0.23722 0.0
C449 C 0.83346 0.66187 0.40365 0.0
C450 C 0.83944 0.67753 0.4441 0.0
C451 C 0.838 0.66319 0.34121 0.0
C452 C 0.84827 0.69857 0.21635 0.0
H453 H 0.90438 0.673 0.95501 0.0
H454 H 0.89812 0.67358 0.06588 0.0
H455 H 0.848 0.71233 0.12693 0.0
H456 H 0.8544 0.70705 0.4508 0.0
H457 H 0.86195 0.70964 0.34068 0.0
H458 H 0.86778 0.65133 0.24952 0.0
C459 C 0.88567 0.67728 0.03493 0.0
C460 C 0.85242 0.69898 0.15337 0.0
C461 C 0.88928 0.67704 0.9717 0.0
C462 C 0.84969 0.69477 0.42058 0.0
C463 C 0.85391 0.69627 0.35775 0.0
C464 C 0.86345 0.66474 0.22319 0.0
C465 C 0.86622 0.68245 0.05798 0.0
C466 C 0.86226 0.68232 0.12491 0.0
C467 C 0.84834 0.68035 0.3177 0.0
C468 C 0.85354 0.68133 0.25163 0.0
H469 H 0.84152 0.69051 0.92255 0.0
H470 H 0.83527 0.69119 0.03322 0.0
H471 H 0.8754 0.65222 0.13964 0.0
H472 H 0.82578 0.6483 0.42062 0.0
H473 H 0.83343 0.65078 0.3112 0.0
C474 C 0.30983 0.85252 0.20592 0.0
C475 C 0.31054 0.87289 0.1848 0.0
C476 C 0.30871 0.84826 0.2686 0.0
C477 C 0.29437 0.87135 0.41713 0.0
H478 H 0.32712 0.82719 0.48491 0.0
C479 C 0.30674 0.86014 0.67723 0.0
C480 C 0.3076 0.84 0.70023 0.0
C481 C 0.30541 0.86373 0.61421 0.0
C482 C 0.31764 0.83937 0.4666 0.0
H483 H 0.3109 0.90471 0.21318 0.0
H484 H 0.30905 0.89728 0.3228 0.0
H485 H 0.3287 0.83445 0.37542 0.0
H486 H 0.30684 0.80788 0.67504 0.0
H487 H 0.30445 0.81414 0.56488 0.0
H488 H 0.28343 0.87637 0.50851 0.0
C489 C 0.30906 0.88462 0.2907 0.0
C490 C 0.31858 0.84356 0.40383 0.0
C491 C 0.31017 0.88888 0.22793 0.0
C492 C 0.30648 0.82355 0.65876 0.0
C493 C 0.30515 0.82715 0.59567 0.0
C494 C 0.29342 0.86716 0.47995 0.0
C495 C 0.30827 0.86425 0.31173 0.0
C496 C 0.30704 0.85966 0.37839 0.0
C497 C 0.30492 0.84729 0.57262 0.0
C498 C 0.30512 0.85118 0.50546 0.0
H499 H 0.30962 0.83982 0.17404 0.0
H500 H 0.3078 0.83241 0.2832 0.0
H501 H 0.28503 0.88364 0.39879 0.0
H502 H 0.30795 0.87319 0.70763 0.0
H503 H 0.30556 0.87943 0.59798 0.0
C504 C 0.1258 0.66899 0.03906 0.0
C505 C 0.11603 0.68609 0.06509 0.0
C506 C 0.12894 0.66786 0.97593 0.0
C507 C 0.13274 0.70031 0.83846 0.0
H508 H 0.12625 0.64863 0.75274 0.0
C509 C 0.1367 0.6927 0.57485 0.0
C510 C 0.1481 0.67611 0.55192 0.0
C511 C 0.13265 0.6943 0.63749 0.0
C512 C 0.12829 0.66311 0.77625 0.0
H513 H 0.1017 0.71536 0.0451 0.0
H514 H 0.10672 0.71317 0.93457 0.0
H515 H 0.11854 0.65056 0.86201 0.0
H516 H 0.16426 0.64825 0.57644 0.0
H517 H 0.15732 0.65111 0.68607 0.0
H518 H 0.14239 0.71284 0.7524 0.0
C519 C 0.11223 0.70076 0.96323 0.0
C520 C 0.12389 0.66423 0.83873 0.0
C521 C 0.10913 0.70191 0.02646 0.0
C522 C 0.15559 0.66128 0.5929 0.0
C523 C 0.15144 0.66281 0.65547 0.0
C524 C 0.13705 0.6992 0.77587 0.0
C525 C 0.12229 0.68379 0.93738 0.0
C526 C 0.1262 0.6828 0.87058 0.0
C527 C 0.13983 0.67926 0.67826 0.0
C528 C 0.13499 0.68056 0.74433 0.0
H529 H 0.13104 0.65642 0.06746 0.0
H530 H 0.13691 0.65467 0.95748 0.0
H531 H 0.13497 0.71476 0.86195 0.0
H532 H 0.13092 0.70446 0.54435 0.0
H533 H 0.12358 0.70709 0.65387 0.0
C534 C 0.29231 0.10787 0.27149 0.0
C535 C 0.3077 0.1155 0.31039 0.0
C536 C 0.29312 0.11155 0.20849 0.0
C537 C 0.3145 0.14739 0.09625 0.0
H538 H 0.30297 0.10427 0.97886 0.0
C539 C 0.32835 0.1574 0.83734 0.0
C540 C 0.31393 0.14885 0.79703 0.0
C541 C 0.32724 0.15345 0.90012 0.0
C542 C 0.30596 0.11654 0.01109 0.0
H543 H 0.33637 0.13229 0.31334 0.0
H544 H 0.33767 0.13885 0.2034 0.0
H545 H 0.30197 0.09669 0.0884 0.0
H546 H 0.28669 0.12997 0.79087 0.0
H547 H 0.28456 0.12324 0.90073 0.0
H548 H 0.31834 0.16729 0.01921 0.0
C549 C 0.32484 0.1303 0.22187 0.0
C550 C 0.30543 0.11217 0.07372 0.0
C551 C 0.32408 0.12656 0.28478 0.0
C552 C 0.29818 0.13652 0.82082 0.0
C553 C 0.29699 0.13264 0.88365 0.0
C554 C 0.31494 0.15178 0.03367 0.0
C555 C 0.30929 0.12297 0.18322 0.0
C556 C 0.30977 0.12754 0.11684 0.0
C557 C 0.3116 0.14095 0.92391 0.0
C558 C 0.31073 0.13638 0.99041 0.0
H559 H 0.27935 0.09952 0.28979 0.0
H560 H 0.28082 0.1059 0.17975 0.0
H561 H 0.31759 0.1596 0.12859 0.0
H562 H 0.34085 0.16668 0.82022 0.0
H563 H 0.33892 0.15981 0.92981 0.0
C564 C 0.8572 0.29991 0.53309 0.0
C565 C 0.87674 0.30426 0.5568 0.0
C566 C 0.85383 0.2998 0.4698 0.0
C567 C 0.87257 0.32209 0.32769 0.0
H568 H 0.84343 0.27767 0.24773 0.0
C569 C 0.83925 0.3287 0.08398 0.0
C570 C 0.8443 0.31286 0.04303 0.0
C571 C 0.8436 0.32683 0.14639 0.0
C572 C 0.85166 0.29011 0.26952 0.0
H573 H 0.90804 0.31195 0.53316 0.0
H574 H 0.90208 0.31214 0.42224 0.0
H575 H 0.85057 0.27576 0.35803 0.0
H576 H 0.85742 0.28247 0.03535 0.0
H577 H 0.8647 0.27899 0.14532 0.0
H578 H 0.87332 0.33664 0.2396 0.0
C579 C 0.88943 0.30868 0.45273 0.0
C580 C 0.85562 0.28909 0.3325 0.0
C581 C 0.89287 0.30846 0.51601 0.0
C582 C 0.85346 0.29492 0.06596 0.0
C583 C 0.85751 0.2929 0.12871 0.0
C584 C 0.86832 0.32327 0.26502 0.0
C585 C 0.86988 0.30434 0.42906 0.0
C586 C 0.86609 0.30509 0.36213 0.0
C587 C 0.85283 0.30896 0.16932 0.0
C588 C 0.85778 0.30732 0.2354 0.0
H589 H 0.84456 0.29639 0.56353 0.0
H590 H 0.83859 0.29653 0.45273 0.0
H591 H 0.88055 0.33469 0.34952 0.0
H592 H 0.83241 0.34278 0.06747 0.0
H593 H 0.83971 0.33937 0.17683 0.0
C594 C 0.69596 0.85365 0.31366 0.0
C595 C 0.67763 0.84531 0.29092 0.0
C596 C 0.69842 0.85705 0.37653 0.0
C597 C 0.6693 0.86817 0.5143 0.0
H598 H 0.71666 0.84825 0.60405 0.0
C599 C 0.6871 0.89248 0.76289 0.0
C600 C 0.69011 0.87618 0.80397 0.0
C601 C 0.68666 0.88892 0.69976 0.0
C602 C 0.70339 0.85389 0.57939 0.0
H603 H 0.64748 0.83411 0.31571 0.0
H604 H 0.65165 0.84038 0.42557 0.0
H605 H 0.71364 0.84129 0.49382 0.0
H606 H 0.69589 0.84357 0.81156 0.0
H607 H 0.69541 0.83736 0.70079 0.0
H608 H 0.65909 0.8809 0.59952 0.0
C609 C 0.66415 0.8441 0.39478 0.0
C610 C 0.70172 0.85002 0.51653 0.0
C611 C 0.66183 0.84038 0.33213 0.0
C612 C 0.69328 0.85634 0.78079 0.0
C613 C 0.69319 0.85283 0.71759 0.0
C614 C 0.67113 0.87234 0.57682 0.0
C615 C 0.68243 0.85252 0.41748 0.0
C616 C 0.68457 0.85698 0.48363 0.0
C617 C 0.68959 0.86905 0.6766 0.0
C618 C 0.68812 0.86513 0.60998 0.0
H619 H 0.70839 0.85744 0.2828 0.0
H620 H 0.71263 0.86364 0.393 0.0
H621 H 0.656 0.87381 0.48977 0.0
H622 H 0.68453 0.90788 0.77977 0.0
H623 H 0.68397 0.90169 0.66898 0.0
C624 C 0.07001 0.31678 0.07862 0.0
C625 C 0.0734 0.33063 0.12694 0.0
C626 C 0.05086 0.31584 0.04987 0.0
C627 C -0.00344 0.32837 0.07779 0.0
H628 H 0.991 0.32397 0.90122 0.0
C629 C 0.91971 0.34153 0.95588 0.0
C630 C 0.91436 0.32795 0.90857 0.0
C631 C 0.93932 0.34106 0.98135 0.0
C632 C 0.99233 0.32496 0.95064 0.0
H633 H 0.0596 0.35478 0.18165 0.0
H634 H 0.02646 0.35328 0.13123 0.0
H635 H 0.02516 0.32469 0.94725 0.0
H636 H 0.92543 0.30325 0.85065 0.0
H637 H 0.95971 0.30241 0.89542 0.0
H638 H 0.96381 0.3288 0.08134 0.0
C639 C 0.0384 0.34287 0.11629 0.0
C640 C 0.01187 0.32536 0.97696 0.0
C641 C 0.05746 0.3438 0.14494 0.0
C642 C 0.92908 0.31393 0.88705 0.0
C643 C 0.94874 0.31351 0.91242 0.0
C644 C 0.97708 0.328 0.05154 0.0
C645 C 0.03479 0.32872 0.06901 0.0
C646 C 0.01417 0.32731 0.04078 0.0
C647 C 0.95402 0.32702 0.96 0.0
C648 C 0.97476 0.32651 0.98768 0.0
H649 H 0.08201 0.30644 0.06365 0.0
H650 H 0.04849 0.30471 0.01371 0.0
H651 H -0.00218 0.32944 0.12722 0.0
H652 H 0.90875 0.35255 0.97345 0.0
H653 H 0.94303 0.35185 0.01742 0.0
C654 C 0.66364 0.94295 0.07909 0.0
C655 C 0.66739 0.92401 0.10767 0.0
C656 C 0.66417 0.96107 0.11302 0.0
C657 C 0.65507 0.98164 0.26323 0.0
H658 H 0.6907 0.02645 0.21532 0.0
C659 C 0.66249 0.05398 0.41216 0.0
C660 C 0.66545 0.07287 0.38271 0.0
C661 C 0.66336 0.03573 0.37894 0.0
C662 C 0.68039 0.01426 0.22883 0.0
H663 H 0.67442 0.90905 0.19399 0.0
H664 H 0.67471 0.94085 0.25384 0.0
H665 H 0.69079 0.99473 0.15607 0.0
H666 H 0.67135 0.08766 0.29549 0.0
H667 H 0.6719 0.05591 0.23669 0.0
H668 H 0.64389 0.0012 0.33415 0.0
C669 C 0.67165 0.94158 0.20505 0.0
C670 C 0.68059 0.99607 0.19511 0.0
C671 C 0.67156 0.92348 0.17086 0.0
C672 C 0.66918 0.07325 0.31935 0.0
C673 C 0.66963 0.05501 0.2858 0.0
C674 C 0.65454 -4e-05 0.29624 0.0
C675 C 0.66804 0.96049 0.17628 0.0
C676 C 0.66799 0.97962 0.21224 0.0
C677 C 0.66678 0.03599 0.3152 0.0
C678 C 0.66726 0.01651 0.27966 0.0
H679 H 0.66048 0.94378 0.03037 0.0
H680 H 0.66124 0.97551 0.09008 0.0
H681 H 0.64505 0.96919 0.27673 0.0
H682 H 0.65983 0.05327 0.46117 0.0
H683 H 0.66158 0.02143 0.40354 0.0
C684 C 0.05368 0.65385 0.33384 0.0
C685 C 0.06989 0.66567 0.35708 0.0
C686 C 0.03447 0.65432 0.36176 0.0
C687 C 0.00788 0.66745 0.50567 0.0
H688 H 0.95998 0.66816 0.40026 0.0
C689 C 0.92517 0.67717 0.5978 0.0
C690 C 0.91052 0.66366 0.57333 0.0
C691 C 0.94478 0.67836 0.57225 0.0
C692 C 0.97321 0.66783 0.43026 0.0
H693 H 0.07879 0.68703 0.42851 0.0
H694 H 0.04504 0.68804 0.47701 0.0
H695 H 0.99408 0.6685 0.35475 0.0
H696 H 0.90488 0.64094 0.50264 0.0
H697 H 0.93905 0.64305 0.45819 0.0
H698 H 0.98687 0.6668 0.58121 0.0
C699 C 0.04729 0.67825 0.43745 0.0
C700 C 0.99274 0.66798 0.40424 0.0
C701 C 0.06658 0.67774 0.40954 0.0
C702 C 0.91581 0.65149 0.52261 0.0
C703 C 0.93535 0.65278 0.49688 0.0
C704 C 0.9883 0.66738 0.53174 0.0
C705 C 0.03097 0.66669 0.41346 0.0
C706 C 0.01029 0.66753 0.4416 0.0
C707 C 0.95003 0.66619 0.52148 0.0
C708 C 0.97079 0.66732 0.49422 0.0
H709 H 0.05574 0.64425 0.29377 0.0
H710 H 0.02234 0.6449 0.34291 0.0
H711 H 0.0211 0.6669 0.53565 0.0
H712 H 0.92156 0.68676 0.63685 0.0
H713 H 0.95576 0.68896 0.59179 0.0
C714 C 0.33659 0.91542 0.77132 0.0
C715 C 0.32538 0.91047 0.82427 0.0
C716 C 0.33515 0.93494 0.74548 0.0
C717 C 0.32201 0.98824 0.78255 0.0
H718 H 0.31963 0.99418 0.60572 0.0
C719 C 0.3132 0.06683 0.66012 0.0
C720 C 0.32555 0.06976 0.608 0.0
C721 C 0.31205 0.04757 0.68813 0.0
C722 C 0.32045 0.99277 0.65517 0.0
H723 H 0.3037 0.92204 0.89143 0.0
H724 H 0.30116 0.95616 0.84603 0.0
H725 H 0.31938 0.96004 0.65105 0.0
H726 H 0.34674 0.05491 0.54531 0.0
H727 H 0.34488 0.02154 0.59439 0.0
H728 H 0.32331 0.02103 0.78648 0.0
C729 C 0.31119 0.94497 0.8249 0.0
C730 C 0.32029 0.97323 0.68109 0.0
C731 C 0.31258 0.9254 0.85066 0.0
C732 C 0.33697 0.05317 0.58515 0.0
C733 C 0.3358 0.03398 0.61302 0.0
C734 C 0.32217 0.00783 0.75656 0.0
C735 C 0.32248 0.94993 0.77207 0.0
C736 C 0.32136 0.97074 0.74499 0.0
C737 C 0.32318 0.0309 0.6644 0.0
C738 C 0.3217 0.01027 0.69254 0.0
H739 H 0.34656 0.90426 0.74978 0.0
H740 H 0.34423 0.93838 0.70518 0.0
H741 H 0.32302 0.98679 0.83195 0.0
H742 H 0.30422 0.07933 0.67883 0.0
H743 H 0.30212 0.04562 0.72754 0.0
C744 C 0.14393 0.42069 0.26438 0.0
C745 C 0.14564 0.41118 0.20671 0.0
C746 C 0.14549 0.44194 0.26982 0.0
C747 C 0.13805 0.48925 0.18338 0.0
H748 H 0.17001 0.51392 0.31383 0.0
C749 C 0.14532 0.57694 0.20781 0.0
C750 C 0.14414 0.58494 0.26757 0.0
C751 C 0.14727 0.55586 0.19832 0.0
C752 C 0.16085 0.50727 0.27752 0.0
H753 H 0.15086 0.41664 0.1097 0.0
H754 H 0.15312 0.45384 0.11924 0.0
H755 H 0.17005 0.47676 0.30127 0.0
H756 H 0.14473 0.57703 0.36427 0.0
H757 H 0.14733 0.54029 0.34772 0.0
H758 H 0.12833 0.5196 0.16058 0.0
C759 C 0.15046 0.44476 0.16007 0.0
C760 C 0.16094 0.48601 0.27027 0.0
C761 C 0.14908 0.42346 0.15466 0.0
C762 C 0.14524 0.57138 0.3176 0.0
C763 C 0.14706 0.5503 0.30811 0.0
C764 C 0.13782 0.5105 0.19092 0.0
C765 C 0.14863 0.45419 0.21769 0.0
C766 C 0.14941 0.47679 0.22344 0.0
C767 C 0.14798 0.54227 0.24835 0.0
C768 C 0.14908 0.51976 0.23842 0.0
H769 H 0.14094 0.41175 0.30529 0.0
H770 H 0.14373 0.44885 0.31469 0.0
H771 H 0.12883 0.48251 0.14734 0.0
H772 H 0.14436 0.58693 0.16822 0.0
H773 H 0.14821 0.55021 0.1517 0.0
C774 C 0.56842 0.14421 0.42192 0.0
C775 C 0.58142 0.14235 0.47306 0.0
C776 C 0.54721 0.14548 0.42954 0.0
C777 C 0.50629 0.13351 0.54115 0.0
H778 H 0.47341 0.16866 0.43661 0.0
C779 C 0.41983 0.14533 0.58067 0.0
C780 C 0.40729 0.14336 0.52854 0.0
C781 C 0.44109 0.1466 0.57467 0.0
C782 C 0.48241 0.1587 0.46587 0.0
H783 H 0.58223 0.14044 0.57241 0.0
H784 H 0.54532 0.14332 0.58577 0.0
H785 H 0.51064 0.16836 0.42512 0.0
H786 H 0.40731 0.14149 0.42916 0.0
H787 H 0.44445 0.14399 0.41878 0.0
H788 H 0.47806 0.12394 0.58205 0.0
C789 C 0.5515 0.14343 0.53966 0.0
C790 C 0.50371 0.15847 0.45923 0.0
C791 C 0.57269 0.14204 0.53203 0.0
C792 C 0.41649 0.14323 0.4702 0.0
C793 C 0.43776 0.14464 0.46421 0.0
C794 C 0.48503 0.13385 0.54806 0.0
C795 C 0.53849 0.14503 0.4885 0.0
C796 C 0.51589 0.14578 0.49657 0.0
C797 C 0.45027 0.14609 0.51643 0.0
C798 C 0.47287 0.14636 0.51028 0.0
H799 H 0.57463 0.14481 0.37588 0.0
H800 H 0.53763 0.14648 0.38909 0.0
H801 H 0.51515 0.12327 0.56992 0.0
H802 H 0.41323 0.14593 0.62621 0.0
H803 H 0.45037 0.14802 0.61565 0.0
C804 C 0.87243 0.56962 0.68814 0.0
C805 C 0.85835 0.58092 0.72336 0.0
C806 C 0.87236 0.54823 0.68977 0.0
C807 C 0.83928 0.50422 0.72626 0.0
H808 H 0.89062 0.4743 0.73331 0.0
C809 C 0.84331 0.4174 0.77432 0.0
C810 C 0.85788 0.40581 0.74185 0.0
C811 C 0.84302 0.43873 0.76961 0.0
C812 C 0.87616 0.48242 0.73049 0.0
H813 H 0.83346 0.57863 0.789 0.0
H814 H 0.83332 0.54123 0.79177 0.0
H815 H 0.891 0.51166 0.73137 0.0
H816 H 0.88314 0.40748 0.67735 0.0
H817 H 0.8826 0.44479 0.66895 0.0
H818 H 0.82443 0.47498 0.72546 0.0
C819 C 0.84421 0.54895 0.7622 0.0
C820 C 0.87639 0.50382 0.72951 0.0
C821 C 0.84429 0.57036 0.76063 0.0
C822 C 0.87193 0.41601 0.70367 0.0
C823 C 0.87163 0.43736 0.6989 0.0
C824 C 0.83906 0.48281 0.72716 0.0
C825 C 0.85819 0.53767 0.7266 0.0
C826 C 0.85795 0.51494 0.72755 0.0
C827 C 0.85728 0.44896 0.73226 0.0
C828 C 0.8575 0.47168 0.72946 0.0
H829 H 0.88323 0.57729 0.6582 0.0
H830 H 0.88313 0.53996 0.66118 0.0
H831 H 0.82483 0.51236 0.72376 0.0
H832 H 0.83248 0.41001 0.80484 0.0
H833 H 0.83197 0.44723 0.79659 0.0
C834 C 0.57165 0.8501 0.06462 0.0
C835 C 0.58398 0.85713 0.01618 0.0
C836 C 0.55038 0.8492 0.05799 0.0
C837 C 0.50812 0.87301 0.97673 0.0
H838 H 0.47775 0.82375 0.01729 0.0
C839 C 0.4215 0.86694 0.93067 0.0
C840 C 0.40948 0.85607 0.97297 0.0
C841 C 0.44285 0.86651 0.93471 0.0
C842 C 0.48593 0.83775 0.00665 0.0
H843 H 0.58393 0.86877 0.92311 0.0
H844 H 0.54658 0.86758 0.91191 0.0
H845 H 0.515 0.82404 0.02738 0.0
H846 H 0.41014 0.83646 0.05308 0.0
H847 H 0.44743 0.83626 0.0618 0.0
H848 H 0.47923 0.88705 0.958 0.0
C849 C 0.55342 0.86265 0.95472 0.0
C850 C 0.50726 0.83783 0.01214 0.0
C851 C 0.57472 0.86322 0.96098 0.0
C852 C 0.41913 0.84481 0.01957 0.0
C853 C 0.44049 0.84463 0.02426 0.0
C854 C 0.48679 0.87304 0.97215 0.0
C855 C 0.54108 0.85565 0.00319 0.0
C856 C 0.51853 0.85545 -0.00296 0.0
C857 C 0.45264 0.85546 0.98182 0.0
C858 C 0.47539 0.85539 0.98687 0.0
H859 H 0.57848 0.84518 0.10745 0.0
H860 H 0.54115 0.84385 0.09609 0.0
H861 H 0.51649 0.88686 0.96557 0.0
H862 H 0.41437 0.87553 0.89385 0.0
H863 H 0.45165 0.87467 0.90041 0.0
loop_
_geom_bond_atom_site_label_1
_geom_bond_atom_site_label_2
_geom_bond_distance
_geom_bond_site_symmetry_2
_ccdc_geom_bond_type
Co0 N4 2.148 . S
Co0 N10 2.128 . S
Co0 N20 2.194 . S
Co0 O25 2.351 . S
Co0 O26 2.155 . S
Co0 O27 2.096 . S
C1 N4 1.301 . S
C1 N5 1.328 . S
C1 H6 0.930 . S
C2 C3 1.333 . S
C2 N4 1.317 . S
C2 H7 0.930 . S
C3 C2 1.333 . S
C3 N5 1.350 . S
C3 H29 0.931 . S
N4 Co0 2.148 . S
N4 C1 1.301 . S
N4 C2 1.317 . S
N5 C1 1.328 . S
N5 C3 1.350 . S
H6 C1 0.930 . S
H7 C2 0.930 . S
C8 O9 1.224 . S
C8 O27 1.247 . S
O9 C8 1.224 . S
N10 Co0 2.128 . S
N10 C11 1.355 . S
N10 C13 1.311 . S
C11 N10 1.355 . S
C11 C12 1.363 . S
C11 H23 0.929 . S
C12 C11 1.363 . S
C12 N14 1.375 . S
C12 H30 0.931 . S
C13 N10 1.311 . S
C13 N14 1.347 . S
C13 H24 0.929 . S
N14 C12 1.375 . S
N14 C13 1.347 . S
C15 C18 1.365 . S
C15 N20 1.328 . S
C15 H21 0.929 . S
C16 C17 1.362 . S
C16 C19 1.378 . S
C16 H31 0.929 . S
C17 C16 1.362 . S
C17 C18 1.366 . S
C18 C15 1.365 . S
C18 C17 1.366 . S
C18 H32 0.930 . S
C19 C16 1.378 . S
C19 N20 1.315 . S
C19 H22 0.930 . S
N20 Co0 2.194 . S
N20 C15 1.328 . S
N20 C19 1.315 . S
H21 C15 0.929 . S
H22 C19 0.930 . S
H23 C11 0.929 . S
H24 C13 0.929 . S
O25 Co0 2.351 . S
O25 C28 1.244 . S
O26 Co0 2.155 . S
O26 C28 1.240 . S
O27 Co0 2.096 . S
O27 C8 1.247 . S
C28 O25 1.244 . S
C28 O26 1.240 . S
H29 C3 0.931 . S
H30 C12 0.931 . S
H31 C16 0.929 . S
H32 C18 0.930 . S
Co33 N37 2.148 . S
Co33 N43 2.128 . S
Co33 N53 2.194 . S
Co33 O58 2.351 . S
Co33 O59 2.155 . S
Co33 O60 2.096 . S
C34 N37 1.301 . S
C34 N38 1.328 . S
C34 H39 0.930 . S
C35 C36 1.333 . S
C35 N37 1.317 . S
C35 H40 0.930 . S
C36 C35 1.333 . S
C36 N38 1.350 . S
C36 H62 0.931 . S
N37 Co33 2.148 . S
N37 C34 1.301 . S
N37 C35 1.317 . S
N38 C34 1.328 . S
N38 C36 1.350 . S
H39 C34 0.930 . S
H40 C35 0.930 . S
C41 O42 1.224 . S
C41 O60 1.247 . S
O42 C41 1.224 . S
N43 Co33 2.128 . S
N43 C44 1.355 . S
N43 C46 1.311 . S
C44 N43 1.355 . S
C44 C45 1.363 . S
C44 H56 0.929 . S
C45 C44 1.363 . S
C45 N47 1.375 . S
C45 H63 0.931 . S
C46 N43 1.311 . S
C46 N47 1.347 . S
C46 H57 0.929 . S
N47 C45 1.375 . S
N47 C46 1.347 . S
C48 C51 1.365 . S
C48 N53 1.328 . S
C48 H54 0.929 . S
C49 C50 1.362 . S
C49 C52 1.378 . S
C49 H64 0.929 . S
C50 C49 1.362 . S
C50 C51 1.366 . S
C51 C48 1.365 . S
C51 C50 1.366 . S
C51 H65 0.930 . S
C52 C49 1.378 . S
C52 N53 1.315 . S
C52 H55 0.930 . S
N53 Co33 2.194 . S
N53 C48 1.328 . S
N53 C52 1.315 . S
H54 C48 0.929 . S
H55 C52 0.930 . S
H56 C44 0.929 . S
H57 C46 0.929 . S
O58 Co33 2.351 . S
O58 C61 1.244 . S
O59 Co33 2.155 . S
O59 C61 1.240 . S
O60 Co33 2.096 . S
O60 C41 1.247 . S
C61 O58 1.244 . S
C61 O59 1.240 . S
H62 C36 0.931 . S
H63 C45 0.931 . S
H64 C49 0.929 . S
H65 C51 0.930 . S
Co66 N70 2.148 . S
Co66 N76 2.128 . S
Co66 N86 2.194 . S
Co66 O91 2.351 . S
Co66 O92 2.155 . S
Co66 O93 2.096 . S
C67 N70 1.301 . S
C67 N71 1.328 . S
C67 H72 0.930 . S
C68 C69 1.333 . S
C68 N70 1.317 . S
C68 H73 0.930 . S
C69 C68 1.333 . S
C69 N71 1.350 . S
C69 H95 0.931 . S
N70 Co66 2.148 . S
N70 C67 1.301 . S
N70 C68 1.317 . S
N71 C67 1.328 . S
N71 C69 1.350 . S
H72 C67 0.930 . S
H73 C68 0.930 . S
C74 O75 1.224 . S
C74 O93 1.247 . S
O75 C74 1.224 . S
N76 Co66 2.128 . S
N76 C77 1.355 . S
N76 C79 1.311 . S
C77 N76 1.355 . S
C77 C78 1.363 . S
C77 H89 0.929 . S
C78 C77 1.363 . S
C78 N80 1.375 . S
C78 H96 0.931 . S
C79 N76 1.311 . S
C79 N80 1.347 . S
C79 H90 0.929 . S
N80 C78 1.375 . S
N80 C79 1.347 . S
C81 C84 1.365 . S
C81 N86 1.328 . S
C81 H87 0.929 . S
C82 C83 1.362 . S
C82 C85 1.378 . S
C82 H97 0.929 . S
C83 C82 1.362 . S
C83 C84 1.366 . S
C84 C81 1.365 . S
C84 C83 1.366 . S
C84 H98 0.930 . S
C85 C82 1.378 . S
C85 N86 1.315 . S
C85 H88 0.930 . S
N86 Co66 2.194 . S
N86 C81 1.328 . S
N86 C85 1.315 . S
H87 C81 0.929 . S
H88 C85 0.930 . S
H89 C77 0.929 . S
H90 C79 0.929 . S
O91 Co66 2.351 . S
O91 C94 1.244 . S
O92 Co66 2.155 . S
O92 C94 1.240 . S
O93 Co66 2.096 . S
O93 C74 1.247 . S
C94 O91 1.244 . S
C94 O92 1.240 . S
H95 C69 0.931 . S
H96 C78 0.931 . S
H97 C82 0.929 . S
H98 C84 0.930 . S
Co99 N103 2.148 1_556 S
Co99 N109 2.128 . S
Co99 N119 2.194 . S
Co99 O124 2.351 . S
Co99 O125 2.155 . S
Co99 O126 2.096 . S
C100 N103 1.301 . S
C100 N104 1.328 . S
C100 H105 0.930 . S
C101 C102 1.333 . S
C101 N103 1.317 . S
C101 H106 0.930 . S
C102 C101 1.333 . S
C102 N104 1.350 . S
C102 H128 0.931 . S
N103 Co99 2.148 1_554 S
N103 C100 1.301 . S
N103 C101 1.317 . S
N104 C100 1.328 . S
N104 C102 1.350 . S
H105 C100 0.930 . S
H106 C101 0.930 . S
C107 O108 1.224 . S
C107 O126 1.247 . S
O108 C107 1.224 . S
N109 Co99 2.128 . S
N109 C110 1.355 . S
N109 C112 1.311 . S
C110 N109 1.355 . S
C110 C111 1.363 . S
C110 H122 0.929 . S
C111 C110 1.363 . S
C111 N113 1.375 . S
C111 H129 0.931 . S
C112 N109 1.311 . S
C112 N113 1.347 . S
C112 H123 0.929 . S
N113 C111 1.375 . S
N113 C112 1.347 . S
C114 C117 1.365 . S
C114 N119 1.328 . S
C114 H120 0.929 1_556 S
C115 C116 1.362 . S
C115 C118 1.378 . S
C115 H130 0.929 . S
C116 C115 1.362 . S
C116 C117 1.366 . S
C117 C114 1.365 . S
C117 C116 1.366 . S
C117 H131 0.930 1_556 S
C118 C115 1.378 . S
C118 N119 1.315 . S
C118 H121 0.930 . S
N119 Co99 2.194 . S
N119 C114 1.328 . S
N119 C118 1.315 . S
H120 C114 0.929 1_554 S
H121 C118 0.930 . S
H122 C110 0.929 . S
H123 C112 0.929 . S
O124 Co99 2.351 . S
O124 C127 1.244 . S
O125 Co99 2.155 . S
O125 C127 1.240 . S
O126 Co99 2.096 . S
O126 C107 1.247 . S
C127 O124 1.244 . S
C127 O125 1.240 . S
H128 C102 0.931 . S
H129 C111 0.931 . S
H130 C115 0.929 . S
H131 C117 0.930 1_554 S
Co132 N136 2.148 . S
Co132 N142 2.128 . S
Co132 N152 2.194 . S
Co132 O157 2.351 . S
Co132 O158 2.155 . S
Co132 O159 2.096 . S
C133 N136 1.301 . S
C133 N137 1.328 . S
C133 H138 0.930 . S
C134 C135 1.333 . S
C134 N136 1.317 . S
C134 H139 0.930 . S
C135 C134 1.333 . S
C135 N137 1.350 . S
C135 H161 0.931 . S
N136 Co132 2.148 . S
N136 C133 1.301 . S
N136 C134 1.317 . S
N137 C133 1.328 . S
N137 C135 1.350 . S
H138 C133 0.930 . S
H139 C134 0.930 . S
C140 O141 1.224 . S
C140 O159 1.247 . S
O141 C140 1.224 . S
N142 Co132 2.128 . S
N142 C143 1.355 . S
N142 C145 1.311 . S
C143 N142 1.355 . S
C143 C144 1.363 . S
C143 H155 0.929 . S
C144 C143 1.363 . S
C144 N146 1.375 . S
C144 H162 0.931 . S
C145 N142 1.311 . S
C145 N146 1.347 . S
C145 H156 0.929 . S
N146 C144 1.375 . S
N146 C145 1.347 . S
C147 C150 1.365 . S
C147 N152 1.328 . S
C147 H153 0.929 . S
C148 C149 1.362 . S
C148 C151 1.378 . S
C148 H163 0.929 . S
C149 C148 1.362 . S
C149 C150 1.366 . S
C150 C147 1.365 . S
C150 C149 1.366 . S
C150 H164 0.930 . S
C151 C148 1.378 . S
C151 N152 1.315 . S
C151 H154 0.930 . S
N152 Co132 2.194 . S
N152 C147 1.328 . S
N152 C151 1.315 . S
H153 C147 0.929 . S
H154 C151 0.930 . S
H155 C143 0.929 . S
H156 C145 0.929 . S
O157 Co132 2.351 . S
O157 C160 1.244 . S
O158 Co132 2.155 . S
O158 C160 1.240 . S
O159 Co132 2.096 . S
O159 C140 1.247 . S
C160 O157 1.244 . S
C160 O158 1.240 . S
H161 C135 0.931 . S
H162 C144 0.931 . S
H163 C148 0.929 . S
H164 C150 0.930 . S
Co165 N169 2.148 . S
Co165 N175 2.128 . S
Co165 N185 2.194 . S
Co165 O190 2.351 . S
Co165 O191 2.155 . S
Co165 O192 2.096 . S
C166 N169 1.301 . S
C166 N170 1.328 . S
C166 H171 0.930 . S
C167 C168 1.333 . S
C167 N169 1.317 . S
C167 H172 0.930 . S
C168 C167 1.333 . S
C168 N170 1.350 . S
C168 H194 0.931 . S
N169 Co165 2.148 . S
N169 C166 1.301 . S
N169 C167 1.317 . S
N170 C166 1.328 . S
N170 C168 1.350 . S
H171 C166 0.930 . S
H172 C167 0.930 . S
C173 O174 1.224 . S
C173 O192 1.247 . S
O174 C173 1.224 . S
N175 Co165 2.128 . S
N175 C176 1.355 . S
N175 C178 1.311 . S
C176 N175 1.355 . S
C176 C177 1.363 . S
C176 H188 0.929 . S
C177 C176 1.363 . S
C177 N179 1.375 . S
C177 H195 0.931 . S
C178 N175 1.311 . S
C178 N179 1.347 . S
C178 H189 0.929 . S
N179 C177 1.375 . S
N179 C178 1.347 . S
C180 C183 1.365 . S
C180 N185 1.328 . S
C180 H186 0.929 . S
C181 C182 1.362 . S
C181 C184 1.378 . S
C181 H196 0.929 . S
C182 C181 1.362 . S
C182 C183 1.366 . S
C183 C180 1.365 . S
C183 C182 1.366 . S
C183 H197 0.930 . S
C184 C181 1.378 . S
C184 N185 1.315 . S
C184 H187 0.930 . S
N185 Co165 2.194 . S
N185 C180 1.328 . S
N185 C184 1.315 . S
H186 C180 0.929 . S
H187 C184 0.930 . S
H188 C176 0.929 . S
H189 C178 0.929 . S
O190 Co165 2.351 . S
O190 C193 1.244 . S
O191 Co165 2.155 . S
O191 C193 1.240 . S
O192 Co165 2.096 . S
O192 C173 1.247 . S
C193 O190 1.244 . S
C193 O191 1.240 . S
H194 C168 0.931 . S
H195 C177 0.931 . S
H196 C181 0.929 . S
H197 C183 0.930 . S
Co198 N202 2.148 . S
Co198 N208 2.128 . S
Co198 N218 2.194 . S
Co198 O223 2.351 . S
Co198 O224 2.155 . S
Co198 O225 2.096 . S
C199 N202 1.301 . S
C199 N203 1.328 . S
C199 H204 0.930 . S
C200 C201 1.333 . S
C200 N202 1.317 . S
C200 H205 0.930 . S
C201 C200 1.333 . S
C201 N203 1.350 . S
C201 H227 0.931 . S
N202 Co198 2.148 . S
N202 C199 1.301 . S
N202 C200 1.317 . S
N203 C199 1.328 . S
N203 C201 1.350 . S
H204 C199 0.930 . S
H205 C200 0.930 . S
C206 O207 1.224 . S
C206 O225 1.247 . S
O207 C206 1.224 . S
N208 Co198 2.128 . S
N208 C209 1.355 . S
N208 C211 1.311 . S
C209 N208 1.355 . S
C209 C210 1.363 . S
C209 H221 0.929 . S
C210 C209 1.363 . S
C210 N212 1.375 . S
C210 H228 0.931 . S
C211 N208 1.311 . S
C211 N212 1.347 . S
C211 H222 0.929 . S
N212 C210 1.375 . S
N212 C211 1.347 . S
C213 C216 1.365 . S
C213 N218 1.328 . S
C213 H219 0.929 . S
C214 C215 1.362 . S
C214 C217 1.378 . S
C214 H229 0.929 . S
C215 C214 1.362 . S
C215 C216 1.366 . S
C216 C213 1.365 . S
C216 C215 1.366 . S
C216 H230 0.930 . S
C217 C214 1.378 . S
C217 N218 1.315 . S
C217 H220 0.930 . S
N218 Co198 2.194 . S
N218 C213 1.328 . S
N218 C217 1.315 . S
H219 C213 0.929 . S
H220 C217 0.930 . S
H221 C209 0.929 . S
H222 C211 0.929 . S
O223 Co198 2.351 . S
O223 C226 1.244 . S
O224 Co198 2.155 . S
O224 C226 1.240 . S
O225 Co198 2.096 . S
O225 C206 1.247 . S
C226 O223 1.244 . S
C226 O224 1.240 . S
H227 C201 0.931 . S
H228 C210 0.931 . S
H229 C214 0.929 . S
H230 C216 0.930 . S
Co231 N235 2.148 1_554 S
Co231 N241 2.128 . S
Co231 N251 2.194 . S
Co231 O256 2.351 . S
Co231 O257 2.155 . S
Co231 O258 2.096 . S
C232 N235 1.301 . S
C232 N236 1.328 . S
C232 H237 0.930 . S
C233 C234 1.333 . S
C233 N235 1.317 . S
C233 H238 0.930 . S
C234 C233 1.333 . S
C234 N236 1.350 . S
C234 H260 0.931 . S
N235 Co231 2.148 1_556 S
N235 C232 1.301 . S
N235 C233 1.317 . S
N236 C232 1.328 . S
N236 C234 1.350 . S
H237 C232 0.930 . S
H238 C233 0.930 . S
C239 O240 1.224 . S
C239 O258 1.247 . S
O240 C239 1.224 . S
N241 Co231 2.128 . S
N241 C242 1.355 . S
N241 C244 1.311 . S
C242 N241 1.355 . S
C242 C243 1.363 . S
C242 H254 0.929 . S
C243 C242 1.363 . S
C243 N245 1.375 . S
C243 H261 0.931 . S
C244 N241 1.311 . S
C244 N245 1.347 . S
C244 H255 0.929 . S
N245 C243 1.375 . S
N245 C244 1.347 . S
C246 C249 1.365 . S
C246 N251 1.328 . S
C246 H252 0.929 1_554 S
C247 C248 1.362 . S
C247 C250 1.378 . S
C247 H262 0.929 . S
C248 C247 1.362 . S
C248 C249 1.366 . S
C249 C246 1.365 . S
C249 C248 1.366 . S
C249 H263 0.930 1_554 S
C250 C247 1.378 . S
C250 N251 1.315 . S
C250 H253 0.930 . S
N251 Co231 2.194 . S
N251 C246 1.328 . S
N251 C250 1.315 . S
H252 C246 0.929 1_556 S
H253 C250 0.930 . S
H254 C242 0.929 . S
H255 C244 0.929 . S
O256 Co231 2.351 . S
O256 C259 1.244 . S
O257 Co231 2.155 . S
O257 C259 1.240 . S
O258 Co231 2.096 . S
O258 C239 1.247 . S
C259 O256 1.244 . S
C259 O257 1.240 . S
H260 C234 0.931 . S
H261 C243 0.931 . S
H262 C247 0.929 . S
H263 C249 0.930 1_556 S
C264 C265 1.349 . S
C264 C266 1.327 . S
C264 H289 0.950 . S
C265 C264 1.349 . S
C265 C281 1.349 . S
C266 C264 1.327 . S
C266 C285 1.429 . S
C266 H290 0.950 . S
C267 C284 1.574 . S
C267 C286 1.368 . S
C267 H291 0.949 . S
H268 C272 0.949 . S
C269 C270 1.349 . S
C269 C271 1.327 . S
C269 H292 0.950 . S
C270 C269 1.349 . S
C270 C282 1.349 . S
C271 C269 1.327 . S
C271 C287 1.429 . S
C271 H293 0.950 . S
C272 H268 0.949 . S
C272 C280 1.574 . S
C272 C288 1.368 . S
H273 C281 0.950 . S
H274 C279 0.950 . S
H275 C280 0.949 . S
H276 C282 0.950 . S
H277 C283 0.950 . S
H278 C284 0.949 . S
C279 H274 0.950 . S
C279 C281 1.327 . S
C279 C285 1.429 . S
C280 C272 1.574 . S
C280 H275 0.949 . S
C280 C286 1.368 . S
C281 C265 1.349 . S
C281 H273 0.950 . S
C281 C279 1.327 . S
C282 C270 1.349 . S
C282 H276 0.950 . S
C282 C283 1.327 . S
C283 H277 0.950 . S
C283 C282 1.327 . S
C283 C287 1.429 . S
C284 C267 1.574 . S
C284 H278 0.949 . S
C284 C288 1.368 . S
C285 C266 1.429 . S
C285 C279 1.429 . S
C285 C286 1.523 . S
C286 C267 1.368 . S
C286 C280 1.368 . S
C286 C285 1.523 . S
C287 C271 1.429 . S
C287 C283 1.429 . S
C287 C288 1.523 . S
C288 C272 1.368 . S
C288 C284 1.368 . S
C288 C287 1.523 . S
H289 C264 0.950 . S
H290 C266 0.950 . S
H291 C267 0.949 . S
H292 C269 0.950 . S
H293 C271 0.950 . S
C294 C295 1.349 . S
C294 C296 1.327 . S
C294 H319 0.950 . S
C295 C294 1.349 . S
C295 C311 1.349 . S
C296 C294 1.327 . S
C296 C315 1.429 . S
C296 H320 0.950 . S
C297 C314 1.574 . S
C297 C316 1.368 . S
C297 H321 0.949 . S
H298 C302 0.949 . S
C299 C300 1.349 . S
C299 C301 1.327 . S
C299 H322 0.950 . S
C300 C299 1.349 . S
C300 C312 1.349 . S
C301 C299 1.327 . S
C301 C317 1.429 . S
C301 H323 0.950 . S
C302 H298 0.949 . S
C302 C310 1.574 . S
C302 C318 1.368 . S
H303 C311 0.950 . S
H304 C309 0.950 . S
H305 C310 0.949 . S
H306 C312 0.950 . S
H307 C313 0.950 . S
H308 C314 0.949 . S
C309 H304 0.950 . S
C309 C311 1.327 . S
C309 C315 1.429 . S
C310 C302 1.574 . S
C310 H305 0.949 . S
C310 C316 1.368 . S
C311 C295 1.349 . S
C311 H303 0.950 . S
C311 C309 1.327 . S
C312 C300 1.349 . S
C312 H306 0.950 . S
C312 C313 1.327 . S
C313 H307 0.950 . S
C313 C312 1.327 . S
C313 C317 1.429 . S
C314 C297 1.574 . S
C314 H308 0.949 . S
C314 C318 1.368 . S
C315 C296 1.429 . S
C315 C309 1.429 . S
C315 C316 1.523 . S
C316 C297 1.368 . S
C316 C310 1.368 . S
C316 C315 1.523 . S
C317 C301 1.429 . S
C317 C313 1.429 . S
C317 C318 1.523 . S
C318 C302 1.368 . S
C318 C314 1.368 . S
C318 C317 1.523 . S
H319 C294 0.950 . S
H320 C296 0.950 . S
H321 C297 0.949 . S
H322 C299 0.950 . S
H323 C301 0.950 . S
C324 C325 1.349 . S
C324 C326 1.327 . S
C324 H349 0.950 . S
C325 C324 1.349 . S
C325 C341 1.349 . S
C326 C324 1.327 . S
C326 C345 1.429 . S
C326 H350 0.950 . S
C327 C344 1.574 . S
C327 C346 1.368 . S
C327 H351 0.949 . S
H328 C332 0.949 . S
C329 C330 1.349 . S
C329 C331 1.327 . S
C329 H352 0.950 . S
C330 C329 1.349 . S
C330 C342 1.349 1_554 S
C331 C329 1.327 . S
C331 C347 1.429 1_554 S
C331 H353 0.950 . S
C332 H328 0.949 . S
C332 C340 1.574 . S
C332 C348 1.368 . S
H333 C341 0.950 . S
H334 C339 0.950 . S
H335 C340 0.949 . S
H336 C342 0.950 . S
H337 C343 0.950 . S
H338 C344 0.949 . S
C339 H334 0.950 . S
C339 C341 1.327 . S
C339 C345 1.429 . S
C340 C332 1.574 . S
C340 H335 0.949 . S
C340 C346 1.368 . S
C341 C325 1.349 . S
C341 H333 0.950 . S
C341 C339 1.327 . S
C342 C330 1.349 1_556 S
C342 H336 0.950 . S
C342 C343 1.327 . S
C343 H337 0.950 . S
C343 C342 1.327 . S
C343 C347 1.429 . S
C344 C327 1.574 . S
C344 H338 0.949 . S
C344 C348 1.368 . S
C345 C326 1.429 . S
C345 C339 1.429 . S
C345 C346 1.523 . S
C346 C327 1.368 . S
C346 C340 1.368 . S
C346 C345 1.523 . S
C347 C331 1.429 1_556 S
C347 C343 1.429 . S
C347 C348 1.523 . S
C348 C332 1.368 . S
C348 C344 1.368 . S
C348 C347 1.523 . S
H349 C324 0.950 . S
H350 C326 0.950 . S
H351 C327 0.949 . S
H352 C329 0.950 . S
H353 C331 0.950 . S
C354 C355 1.349 . S
C354 C356 1.327 . S
C354 H379 0.950 . S
C355 C354 1.349 . S
C355 C371 1.349 . S
C356 C354 1.327 . S
C356 C375 1.429 . S
C356 H380 0.950 . S
C357 C374 1.574 . S
C357 C376 1.368 . S
C357 H381 0.949 . S
H358 C362 0.949 . S
C359 C360 1.349 1_554 S
C359 C361 1.327 . S
C359 H382 0.950 . S
C360 C359 1.349 1_556 S
C360 C372 1.349 . S
C361 C359 1.327 . S
C361 C377 1.429 . S
C361 H383 0.950 . S
C362 H358 0.949 . S
C362 C370 1.574 . S
C362 C378 1.368 . S
H363 C371 0.950 . S
H364 C369 0.950 . S
H365 C370 0.949 . S
H366 C372 0.950 . S
H367 C373 0.950 . S
H368 C374 0.949 . S
C369 H364 0.950 . S
C369 C371 1.327 . S
C369 C375 1.429 . S
C370 C362 1.574 . S
C370 H365 0.949 . S
C370 C376 1.368 . S
C371 C355 1.349 . S
C371 H363 0.950 . S
C371 C369 1.327 . S
C372 C360 1.349 . S
C372 H366 0.950 . S
C372 C373 1.327 . S
C373 H367 0.950 . S
C373 C372 1.327 . S
C373 C377 1.429 1_556 S
C374 C357 1.574 . S
C374 H368 0.949 . S
C374 C378 1.368 . S
C375 C356 1.429 . S
C375 C369 1.429 . S
C375 C376 1.523 . S
C376 C357 1.368 . S
C376 C370 1.368 . S
C376 C375 1.523 . S
C377 C361 1.429 . S
C377 C373 1.429 1_554 S
C377 C378 1.523 . S
C378 C362 1.368 . S
C378 C374 1.368 . S
C378 C377 1.523 . S
H379 C354 0.950 . S
H380 C356 0.950 . S
H381 C357 0.949 . S
H382 C359 0.950 . S
H383 C361 0.950 . S
C384 C385 1.349 . S
C384 C386 1.327 . S
C384 H409 0.950 . S
C385 C384 1.349 . S
C385 C401 1.349 . S
C386 C384 1.327 . S
C386 C405 1.429 . S
C386 H410 0.950 . S
C387 C404 1.574 . S
C387 C406 1.368 . S
C387 H411 0.949 . S
H388 C392 0.949 . S
C389 C390 1.349 . S
C389 C391 1.327 . S
C389 H412 0.950 . S
C390 C389 1.349 . S
C390 C402 1.349 . S
C391 C389 1.327 . S
C391 C407 1.429 . S
C391 H413 0.950 . S
C392 H388 0.949 . S
C392 C400 1.574 . S
C392 C408 1.368 . S
H393 C401 0.950 . S
H394 C399 0.950 . S
H395 C400 0.949 . S
H396 C402 0.950 . S
H397 C403 0.950 . S
H398 C404 0.949 . S
C399 H394 0.950 . S
C399 C401 1.327 . S
C399 C405 1.429 . S
C400 C392 1.574 . S
C400 H395 0.949 . S
C400 C406 1.368 . S
C401 C385 1.349 . S
C401 H393 0.950 . S
C401 C399 1.327 . S
C402 C390 1.349 . S
C402 H396 0.950 . S
C402 C403 1.327 . S
C403 H397 0.950 . S
C403 C402 1.327 . S
C403 C407 1.429 . S
C404 C387 1.574 . S
C404 H398 0.949 . S
C404 C408 1.368 . S
C405 C386 1.429 . S
C405 C399 1.429 . S
C405 C406 1.523 . S
C406 C387 1.368 . S
C406 C400 1.368 . S
C406 C405 1.523 . S
C407 C391 1.429 . S
C407 C403 1.429 . S
C407 C408 1.523 . S
C408 C392 1.368 . S
C408 C404 1.368 . S
C408 C407 1.523 . S
H409 C384 0.950 . S
H410 C386 0.950 . S
H411 C387 0.949 . S
H412 C389 0.950 . S
H413 C391 0.950 . S
C414 C415 1.349 . S
C414 C416 1.327 . S
C414 H439 0.950 . S
C415 C414 1.349 . S
C415 C431 1.349 . S
C416 C414 1.327 . S
C416 C435 1.429 . S
C416 H440 0.950 . S
C417 C434 1.574 . S
C417 C436 1.368 1_556 S
C417 H441 0.949 1_556 S
H418 C422 0.949 . S
C419 C420 1.349 . S
C419 C421 1.327 . S
C419 H442 0.950 . S
C420 C419 1.349 . S
C420 C432 1.349 . S
C421 C419 1.327 . S
C421 C437 1.429 . S
C421 H443 0.950 . S
C422 H418 0.949 . S
C422 C430 1.574 . S
C422 C438 1.368 . S
H423 C431 0.950 . S
H424 C429 0.950 . S
H425 C430 0.949 1_554 S
H426 C432 0.950 . S
H427 C433 0.950 . S
H428 C434 0.949 . S
C429 H424 0.950 . S
C429 C431 1.327 . S
C429 C435 1.429 . S
C430 C422 1.574 . S
C430 H425 0.949 1_556 S
C430 C436 1.368 1_556 S
C431 C415 1.349 . S
C431 H423 0.950 . S
C431 C429 1.327 . S
C432 C420 1.349 . S
C432 H426 0.950 . S
C432 C433 1.327 . S
C433 H427 0.950 . S
C433 C432 1.327 . S
C433 C437 1.429 . S
C434 C417 1.574 . S
C434 H428 0.949 . S
C434 C438 1.368 . S
C435 C416 1.429 . S
C435 C429 1.429 . S
C435 C436 1.523 . S
C436 C417 1.368 1_554 S
C436 C430 1.368 1_554 S
C436 C435 1.523 . S
C437 C421 1.429 . S
C437 C433 1.429 . S
C437 C438 1.523 . S
C438 C422 1.368 . S
C438 C434 1.368 . S
C438 C437 1.523 . S
H439 C414 0.950 . S
H440 C416 0.950 . S
H441 C417 0.949 1_554 S
H442 C419 0.950 . S
H443 C421 0.950 . S
C444 C445 1.349 . S
C444 C446 1.327 1_556 S
C444 H469 0.950 . S
C445 C444 1.349 . S
C445 C461 1.349 . S
C446 C444 1.327 1_554 S
C446 C465 1.429 . S
C446 H470 0.950 . S
C447 C464 1.574 . S
C447 C466 1.368 . S
C447 H471 0.949 . S
H448 C452 0.949 . S
C449 C450 1.349 . S
C449 C451 1.327 . S
C449 H472 0.950 . S
C450 C449 1.349 . S
C450 C462 1.349 . S
C451 C449 1.327 . S
C451 C467 1.429 . S
C451 H473 0.950 . S
C452 H448 0.949 . S
C452 C460 1.574 . S
C452 C468 1.368 . S
H453 C461 0.950 . S
H454 C459 0.950 . S
H455 C460 0.949 . S
H456 C462 0.950 . S
H457 C463 0.950 . S
H458 C464 0.949 . S
C459 H454 0.950 . S
C459 C461 1.327 1_554 S
C459 C465 1.429 . S
C460 C452 1.574 . S
C460 H455 0.949 . S
C460 C466 1.368 . S
C461 C445 1.349 . S
C461 H453 0.950 . S
C461 C459 1.327 1_556 S
C462 C450 1.349 . S
C462 H456 0.950 . S
C462 C463 1.327 . S
C463 H457 0.950 . S
C463 C462 1.327 . S
C463 C467 1.429 . S
C464 C447 1.574 . S
C464 H458 0.949 . S
C464 C468 1.368 . S
C465 C446 1.429 . S
C465 C459 1.429 . S
C465 C466 1.523 . S
C466 C447 1.368 . S
C466 C460 1.368 . S
C466 C465 1.523 . S
C467 C451 1.429 . S
C467 C463 1.429 . S
C467 C468 1.523 . S
C468 C452 1.368 . S
C468 C464 1.368 . S
C468 C467 1.523 . S
H469 C444 0.950 . S
H470 C446 0.950 . S
H471 C447 0.949 . S
H472 C449 0.950 . S
H473 C451 0.950 . S
C474 C475 1.349 . S
C474 C476 1.327 . S
C474 H499 0.950 . S
C475 C474 1.349 . S
C475 C491 1.349 . S
C476 C474 1.327 . S
C476 C495 1.429 . S
C476 H500 0.950 . S
C477 C494 1.574 . S
C477 C496 1.368 . S
C477 H501 0.949 . S
H478 C482 0.949 . S
C479 C480 1.349 . S
C479 C481 1.327 . S
C479 H502 0.950 . S
C480 C479 1.349 . S
C480 C492 1.349 . S
C481 C479 1.327 . S
C481 C497 1.429 . S
C481 H503 0.950 . S
C482 H478 0.949 . S
C482 C490 1.574 . S
C482 C498 1.368 . S
H483 C491 0.950 . S
H484 C489 0.950 . S
H485 C490 0.949 . S
H486 C492 0.950 . S
H487 C493 0.950 . S
H488 C494 0.949 . S
C489 H484 0.950 . S
C489 C491 1.327 . S
C489 C495 1.429 . S
C490 C482 1.574 . S
C490 H485 0.949 . S
C490 C496 1.368 . S
C491 C475 1.349 . S
C491 H483 0.950 . S
C491 C489 1.327 . S
C492 C480 1.349 . S
C492 H486 0.950 . S
C492 C493 1.327 . S
C493 H487 0.950 . S
C493 C492 1.327 . S
C493 C497 1.429 . S
C494 C477 1.574 . S
C494 H488 0.949 . S
C494 C498 1.368 . S
C495 C476 1.429 . S
C495 C489 1.429 . S
C495 C496 1.523 . S
C496 C477 1.368 . S
C496 C490 1.368 . S
C496 C495 1.523 . S
C497 C481 1.429 . S
C497 C493 1.429 . S
C497 C498 1.523 . S
C498 C482 1.368 . S
C498 C494 1.368 . S
C498 C497 1.523 . S
H499 C474 0.950 . S
H500 C476 0.950 . S
H501 C477 0.949 . S
H502 C479 0.950 . S
H503 C481 0.950 . S
C504 C505 1.349 . S
C504 C506 1.327 1_554 S
C504 H529 0.950 . S
C505 C504 1.349 . S
C505 C521 1.349 . S
C506 C504 1.327 1_556 S
C506 C525 1.429 . S
C506 H530 0.950 . S
C507 C524 1.574 . S
C507 C526 1.368 . S
C507 H531 0.949 . S
H508 C512 0.949 . S
C509 C510 1.349 . S
C509 C511 1.327 . S
C509 H532 0.950 . S
C510 C509 1.349 . S
C510 C522 1.349 . S
C511 C509 1.327 . S
C511 C527 1.429 . S
C511 H533 0.950 . S
C512 H508 0.949 . S
C512 C520 1.574 . S
C512 C528 1.368 . S
H513 C521 0.950 . S
H514 C519 0.950 . S
H515 C520 0.949 . S
H516 C522 0.950 . S
H517 C523 0.950 . S
H518 C524 0.949 . S
C519 H514 0.950 . S
C519 C521 1.327 1_556 S
C519 C525 1.429 . S
C520 C512 1.574 . S
C520 H515 0.949 . S
C520 C526 1.368 . S
C521 C505 1.349 . S
C521 H513 0.950 . S
C521 C519 1.327 1_554 S
C522 C510 1.349 . S
C522 H516 0.950 . S
C522 C523 1.327 . S
C523 H517 0.950 . S
C523 C522 1.327 . S
C523 C527 1.429 . S
C524 C507 1.574 . S
C524 H518 0.949 . S
C524 C528 1.368 . S
C525 C506 1.429 . S
C525 C519 1.429 . S
C525 C526 1.523 . S
C526 C507 1.368 . S
C526 C520 1.368 . S
C526 C525 1.523 . S
C527 C511 1.429 . S
C527 C523 1.429 . S
C527 C528 1.523 . S
C528 C512 1.368 . S
C528 C524 1.368 . S
C528 C527 1.523 . S
H529 C504 0.950 . S
H530 C506 0.950 . S
H531 C507 0.949 . S
H532 C509 0.950 . S
H533 C511 0.950 . S
C534 C535 1.349 . S
C534 C536 1.327 . S
C534 H559 0.950 . S
C535 C534 1.349 . S
C535 C551 1.349 . S
C536 C534 1.327 . S
C536 C555 1.429 . S
C536 H560 0.950 . S
C537 C554 1.574 . S
C537 C556 1.368 . S
C537 H561 0.949 . S
H538 C542 0.949 1_556 S
C539 C540 1.349 . S
C539 C541 1.327 . S
C539 H562 0.950 . S
C540 C539 1.349 . S
C540 C552 1.349 . S
C541 C539 1.327 . S
C541 C557 1.429 . S
C541 H563 0.950 . S
C542 H538 0.949 1_554 S
C542 C550 1.574 . S
C542 C558 1.368 1_554 S
H543 C551 0.950 . S
H544 C549 0.950 . S
H545 C550 0.949 . S
H546 C552 0.950 . S
H547 C553 0.950 . S
H548 C554 0.945 1_556 S
C549 H544 0.950 . S
C549 C551 1.327 . S
C549 C555 1.429 . S
C550 C542 1.574 . S
C550 H545 0.949 . S
C550 C556 1.368 . S
C551 C535 1.349 . S
C551 H543 0.950 . S
C551 C549 1.327 . S
C552 C540 1.349 . S
C552 H546 0.950 . S
C552 C553 1.327 . S
C553 H547 0.950 . S
C553 C552 1.327 . S
C553 C557 1.429 . S
C554 C537 1.574 . S
C554 H548 0.945 1_554 S
C554 C558 1.368 1_554 S
C555 C536 1.429 . S
C555 C549 1.429 . S
C555 C556 1.523 . S
C556 C537 1.368 . S
C556 C550 1.368 . S
C556 C555 1.523 . S
C557 C541 1.429 . S
C557 C553 1.429 . S
C557 C558 1.523 . S
C558 C542 1.368 1_556 S
C558 C554 1.368 1_556 S
C558 C557 1.523 . S
H559 C534 0.950 . S
H560 C536 0.950 . S
H561 C537 0.949 . S
H562 C539 0.950 . S
H563 C541 0.950 . S
C564 C565 1.349 . S
C564 C566 1.327 . S
C564 H589 0.950 . S
C565 C564 1.349 . S
C565 C581 1.349 . S
C566 C564 1.327 . S
C566 C585 1.429 . S
C566 H590 0.950 . S
C567 C584 1.574 . S
C567 C586 1.368 . S
C567 H591 0.949 . S
H568 C572 0.949 . S
C569 C570 1.349 . S
C569 C571 1.327 . S
C569 H592 0.950 . S
C570 C569 1.349 . S
C570 C582 1.349 . S
C571 C569 1.327 . S
C571 C587 1.429 . S
C571 H593 0.950 . S
C572 H568 0.949 . S
C572 C580 1.574 . S
C572 C588 1.368 . S
H573 C581 0.950 . S
H574 C579 0.950 . S
H575 C580 0.949 . S
H576 C582 0.950 . S
H577 C583 0.950 . S
H578 C584 0.949 . S
C579 H574 0.950 . S
C579 C581 1.327 . S
C579 C585 1.429 . S
C580 C572 1.574 . S
C580 H575 0.949 . S
C580 C586 1.368 . S
C581 C565 1.349 . S
C581 H573 0.950 . S
C581 C579 1.327 . S
C582 C570 1.349 . S
C582 H576 0.950 . S
C582 C583 1.327 . S
C583 H577 0.950 . S
C583 C582 1.327 . S
C583 C587 1.429 . S
C584 C567 1.574 . S
C584 H578 0.949 . S
C584 C588 1.368 . S
C585 C566 1.429 . S
C585 C579 1.429 . S
C585 C586 1.523 . S
C586 C567 1.368 . S
C586 C580 1.368 . S
C586 C585 1.523 . S
C587 C571 1.429 . S
C587 C583 1.429 . S
C587 C588 1.523 . S
C588 C572 1.368 . S
C588 C584 1.368 . S
C588 C587 1.523 . S
H589 C564 0.950 . S
H590 C566 0.950 . S
H591 C567 0.949 . S
H592 C569 0.950 . S
H593 C571 0.950 . S
C594 C595 1.349 . S
C594 C596 1.327 . S
C594 H619 0.950 . S
C595 C594 1.349 . S
C595 C611 1.349 . S
C596 C594 1.327 . S
C596 C615 1.429 . S
C596 H620 0.950 . S
C597 C614 1.574 . S
C597 C616 1.368 . S
C597 H621 0.949 . S
H598 C602 0.949 . S
C599 C600 1.349 . S
C599 C601 1.327 . S
C599 H622 0.950 . S
C600 C599 1.349 . S
C600 C612 1.349 . S
C601 C599 1.327 . S
C601 C617 1.429 . S
C601 H623 0.950 . S
C602 H598 0.949 . S
C602 C610 1.574 . S
C602 C618 1.368 . S
H603 C611 0.950 . S
H604 C609 0.950 . S
H605 C610 0.949 . S
H606 C612 0.950 . S
H607 C613 0.950 . S
H608 C614 0.949 . S
C609 H604 0.950 . S
C609 C611 1.327 . S
C609 C615 1.429 . S
C610 C602 1.574 . S
C610 H605 0.949 . S
C610 C616 1.368 . S
C611 C595 1.349 . S
C611 H603 0.950 . S
C611 C609 1.327 . S
C612 C600 1.349 . S
C612 H606 0.950 . S
C612 C613 1.327 . S
C613 H607 0.950 . S
C613 C612 1.327 . S
C613 C617 1.429 . S
C614 C597 1.574 . S
C614 H608 0.949 . S
C614 C618 1.368 . S
C615 C596 1.429 . S
C615 C609 1.429 . S
C615 C616 1.523 . S
C616 C597 1.368 . S
C616 C610 1.368 . S
C616 C615 1.523 . S
C617 C601 1.429 . S
C617 C613 1.429 . S
C617 C618 1.523 . S
C618 C602 1.368 . S
C618 C614 1.368 . S
C618 C617 1.523 . S
H619 C594 0.950 . S
H620 C596 0.950 . S
H621 C597 0.949 . S
H622 C599 0.950 . S
H623 C601 0.950 . S
C624 C625 1.349 . S
C624 C626 1.327 . S
C624 H649 0.950 . S
C625 C624 1.349 . S
C625 C641 1.349 . S
C626 C624 1.327 . S
C626 C645 1.429 . S
C626 H650 0.950 . S
C627 C644 1.574 1_455 S
C627 C646 1.368 . S
C627 H651 0.949 . S
H628 C632 0.949 . S
C629 C630 1.349 . S
C629 C631 1.327 . S
C629 H652 0.950 . S
C630 C629 1.349 . S
C630 C642 1.349 . S
C631 C629 1.327 . S
C631 C647 1.429 . S
C631 H653 0.950 . S
C632 H628 0.949 . S
C632 C640 1.574 1_655 S
C632 C648 1.368 . S
H633 C641 0.950 . S
H634 C639 0.950 . S
H635 C640 0.949 . S
H636 C642 0.950 . S
H637 C643 0.950 . S
H638 C644 0.949 . S
C639 H634 0.950 . S
C639 C641 1.327 . S
C639 C645 1.429 . S
C640 C632 1.574 1_455 S
C640 H635 0.949 . S
C640 C646 1.368 1_556 S
C641 C625 1.349 . S
C641 H633 0.950 . S
C641 C639 1.327 . S
C642 C630 1.349 . S
C642 H636 0.950 . S
C642 C643 1.327 . S
C643 H637 0.950 . S
C643 C642 1.327 . S
C643 C647 1.429 . S
C644 C627 1.574 1_655 S
C644 H638 0.949 . S
C644 C648 1.368 1_554 S
C645 C626 1.429 . S
C645 C639 1.429 . S
C645 C646 1.523 . S
C646 C627 1.368 . S
C646 C640 1.368 1_554 S
C646 C645 1.523 . S
C647 C631 1.429 . S
C647 C643 1.429 . S
C647 C648 1.523 . S
C648 C632 1.368 . S
C648 C644 1.368 1_556 S
C648 C647 1.523 . S
H649 C624 0.950 . S
H650 C626 0.950 . S
H651 C627 0.949 . S
H652 C629 0.950 . S
H653 C631 0.950 . S
C654 C655 1.349 . S
C654 C656 1.327 . S
C654 H679 0.950 . S
C655 C654 1.349 . S
C655 C671 1.349 . S
C656 C654 1.327 . S
C656 C675 1.429 . S
C656 H680 0.950 . S
C657 C674 1.534 1_565 S
C657 C676 1.368 . S
C657 H681 0.949 . S
H658 C662 0.949 . S
C659 C660 1.349 . S
C659 C661 1.327 . S
C659 H682 0.950 . S
C660 C659 1.349 . S
C660 C672 1.349 . S
C661 C659 1.327 . S
C661 C677 1.429 . S
C661 H683 0.950 . S
C662 H658 0.949 . S
C662 C670 1.534 1_545 S
C662 C678 1.368 . S
H663 C671 0.950 . S
H664 C669 0.950 . S
H665 C670 0.953 . S
H666 C672 0.950 . S
H667 C673 0.950 . S
H668 C674 0.953 . S
C669 H664 0.950 . S
C669 C671 1.327 . S
C669 C675 1.429 . S
C670 C662 1.534 1_565 S
C670 H665 0.953 . S
C670 C676 1.405 . S
C671 C655 1.349 . S
C671 H663 0.950 . S
C671 C669 1.327 . S
C672 C660 1.349 . S
C672 H666 0.950 . S
C672 C673 1.327 . S
C673 H667 0.950 . S
C673 C672 1.327 . S
C673 C677 1.429 . S
C674 C657 1.534 1_545 S
C674 H668 0.953 . S
C674 C678 1.405 . S
C675 C656 1.429 . S
C675 C669 1.429 . S
C675 C676 1.523 . S
C676 C657 1.368 . S
C676 C670 1.405 . S
C676 C675 1.523 . S
C677 C661 1.429 . S
C677 C673 1.429 . S
C677 C678 1.523 . S
C678 C662 1.368 . S
C678 C674 1.405 . S
C678 C677 1.523 . S
H679 C654 0.950 . S
H680 C656 0.950 . S
H681 C657 0.949 . S
H682 C659 0.950 . S
H683 C661 0.950 . S
C684 C685 1.349 . S
C684 C686 1.327 . S
C684 H709 0.950 . S
C685 C684 1.349 . S
C685 C701 1.349 . S
C686 C684 1.327 . S
C686 C705 1.429 . S
C686 H710 0.950 . S
C687 C704 1.574 1_455 S
C687 C706 1.368 . S
C687 H711 0.949 . S
H688 C692 0.949 . S
C689 C690 1.349 . S
C689 C691 1.327 . S
C689 H712 0.950 . S
C690 C689 1.349 . S
C690 C702 1.349 . S
C691 C689 1.327 . S
C691 C707 1.429 . S
C691 H713 0.950 . S
C692 H688 0.949 . S
C692 C700 1.574 1_655 S
C692 C708 1.368 . S
H693 C701 0.950 . S
H694 C699 0.950 . S
H695 C700 0.949 . S
H696 C702 0.950 . S
H697 C703 0.950 . S
H698 C704 0.949 . S
C699 H694 0.950 . S
C699 C701 1.327 . S
C699 C705 1.429 . S
C700 C692 1.574 1_455 S
C700 H695 0.949 . S
C700 C706 1.368 . S
C701 C685 1.349 . S
C701 H693 0.950 . S
C701 C699 1.327 . S
C702 C690 1.349 . S
C702 H696 0.950 . S
C702 C703 1.327 . S
C703 H697 0.950 . S
C703 C702 1.327 . S
C703 C707 1.429 . S
C704 C687 1.574 1_655 S
C704 H698 0.949 . S
C704 C708 1.368 . S
C705 C686 1.429 . S
C705 C699 1.429 . S
C705 C706 1.523 . S
C706 C687 1.368 . S
C706 C700 1.368 . S
C706 C705 1.523 . S
C707 C691 1.429 . S
C707 C703 1.429 . S
C707 C708 1.523 . S
C708 C692 1.368 . S
C708 C704 1.368 . S
C708 C707 1.523 . S
H709 C684 0.950 . S
H710 C686 0.950 . S
H711 C687 0.949 . S
H712 C689 0.950 . S
H713 C691 0.950 . S
C714 C715 1.349 . S
C714 C716 1.327 . S
C714 H739 0.950 . S
C715 C714 1.349 . S
C715 C731 1.349 . S
C716 C714 1.327 . S
C716 C735 1.429 . S
C716 H740 0.950 . S
C717 C734 1.574 1_565 S
C717 C736 1.368 . S
C717 H741 0.949 . S
H718 C722 0.949 . S
C719 C720 1.349 . S
C719 C721 1.327 . S
C719 H742 0.950 . S
C720 C719 1.349 . S
C720 C732 1.349 . S
C721 C719 1.327 . S
C721 C737 1.429 . S
C721 H743 0.950 . S
C722 H718 0.949 . S
C722 C730 1.574 1_545 S
C722 C738 1.368 . S
H723 C731 0.950 . S
H724 C729 0.950 . S
H725 C730 0.949 . S
H726 C732 0.950 . S
H727 C733 0.950 . S
H728 C734 0.949 . S
C729 H724 0.950 . S
C729 C731 1.327 . S
C729 C735 1.429 . S
C730 C722 1.574 1_565 S
C730 H725 0.949 . S
C730 C736 1.368 . S
C731 C715 1.349 . S
C731 H723 0.950 . S
C731 C729 1.327 . S
C732 C720 1.349 . S
C732 H726 0.950 . S
C732 C733 1.327 . S
C733 H727 0.950 . S
C733 C732 1.327 . S
C733 C737 1.429 . S
C734 C717 1.574 1_545 S
C734 H728 0.949 . S
C734 C738 1.368 . S
C735 C716 1.429 . S
C735 C729 1.429 . S
C735 C736 1.523 . S
C736 C717 1.368 . S
C736 C730 1.368 . S
C736 C735 1.523 . S
C737 C721 1.429 . S
C737 C733 1.429 . S
C737 C738 1.523 . S
C738 C722 1.368 . S
C738 C734 1.368 . S
C738 C737 1.523 . S
H739 C714 0.950 . S
H740 C716 0.950 . S
H741 C717 0.949 . S
H742 C719 0.950 . S
H743 C721 0.950 . S
C744 C745 1.349 . S
C744 C746 1.327 . S
C744 H769 0.950 . S
C745 C744 1.349 . S
C745 C761 1.349 . S
C746 C744 1.327 . S
C746 C765 1.429 . S
C746 H770 0.950 . S
C747 C764 1.574 . S
C747 C766 1.368 . S
C747 H771 0.949 . S
H748 C752 0.949 . S
C749 C750 1.349 . S
C749 C751 1.327 . S
C749 H772 0.950 . S
C750 C749 1.349 . S
C750 C762 1.349 . S
C751 C749 1.327 . S
C751 C767 1.429 . S
C751 H773 0.950 . S
C752 H748 0.949 . S
C752 C760 1.574 . S
C752 C768 1.368 . S
H753 C761 0.950 . S
H754 C759 0.950 . S
H755 C760 0.949 . S
H756 C762 0.950 . S
H757 C763 0.950 . S
H758 C764 0.949 . S
C759 H754 0.950 . S
C759 C761 1.327 . S
C759 C765 1.429 . S
C760 C752 1.574 . S
C760 H755 0.949 . S
C760 C766 1.368 . S
C761 C745 1.349 . S
C761 H753 0.950 . S
C761 C759 1.327 . S
C762 C750 1.349 . S
C762 H756 0.950 . S
C762 C763 1.327 . S
C763 H757 0.950 . S
C763 C762 1.327 . S
C763 C767 1.429 . S
C764 C747 1.574 . S
C764 H758 0.949 . S
C764 C768 1.368 . S
C765 C746 1.429 . S
C765 C759 1.429 . S
C765 C766 1.523 . S
C766 C747 1.368 . S
C766 C760 1.368 . S
C766 C765 1.523 . S
C767 C751 1.429 . S
C767 C763 1.429 . S
C767 C768 1.523 . S
C768 C752 1.368 . S
C768 C764 1.368 . S
C768 C767 1.523 . S
H769 C744 0.950 . S
H770 C746 0.950 . S
H771 C747 0.949 . S
H772 C749 0.950 . S
H773 C751 0.950 . S
C774 C775 1.349 . S
C774 C776 1.327 . S
C774 H799 0.950 . S
C775 C774 1.349 . S
C775 C791 1.349 . S
C776 C774 1.327 . S
C776 C795 1.429 . S
C776 H800 0.950 . S
C777 C794 1.574 . S
C777 C796 1.368 . S
C777 H801 0.949 . S
H778 C782 0.949 . S
C779 C780 1.349 . S
C779 C781 1.327 . S
C779 H802 0.950 . S
C780 C779 1.349 . S
C780 C792 1.349 . S
C781 C779 1.327 . S
C781 C797 1.429 . S
C781 H803 0.950 . S
C782 H778 0.949 . S
C782 C790 1.574 . S
C782 C798 1.368 . S
H783 C791 0.950 . S
H784 C789 0.950 . S
H785 C790 0.949 . S
H786 C792 0.950 . S
H787 C793 0.950 . S
H788 C794 0.949 . S
C789 H784 0.950 . S
C789 C791 1.327 . S
C789 C795 1.429 . S
C790 C782 1.574 . S
C790 H785 0.949 . S
C790 C796 1.368 . S
C791 C775 1.349 . S
C791 H783 0.950 . S
C791 C789 1.327 . S
C792 C780 1.349 . S
C792 H786 0.950 . S
C792 C793 1.327 . S
C793 H787 0.950 . S
C793 C792 1.327 . S
C793 C797 1.429 . S
C794 C777 1.574 . S
C794 H788 0.949 . S
C794 C798 1.368 . S
C795 C776 1.429 . S
C795 C789 1.429 . S
C795 C796 1.523 . S
C796 C777 1.368 . S
C796 C790 1.368 . S
C796 C795 1.523 . S
C797 C781 1.429 . S
C797 C793 1.429 . S
C797 C798 1.523 . S
C798 C782 1.368 . S
C798 C794 1.368 . S
C798 C797 1.523 . S
H799 C774 0.950 . S
H800 C776 0.950 . S
H801 C777 0.949 . S
H802 C779 0.950 . S
H803 C781 0.950 . S
C804 C805 1.349 . S
C804 C806 1.327 . S
C804 H829 0.950 . S
C805 C804 1.349 . S
C805 C821 1.349 . S
C806 C804 1.327 . S
C806 C825 1.429 . S
C806 H830 0.950 . S
C807 C824 1.574 . S
C807 C826 1.368 . S
C807 H831 0.949 . S
H808 C812 0.949 . S
C809 C810 1.349 . S
C809 C811 1.327 . S
C809 H832 0.950 . S
C810 C809 1.349 . S
C810 C822 1.349 . S
C811 C809 1.327 . S
C811 C827 1.429 . S
C811 H833 0.950 . S
C812 H808 0.949 . S
C812 C820 1.574 . S
C812 C828 1.368 . S
H813 C821 0.950 . S
H814 C819 0.950 . S
H815 C820 0.949 . S
H816 C822 0.950 . S
H817 C823 0.950 . S
H818 C824 0.949 . S
C819 H814 0.950 . S
C819 C821 1.327 . S
C819 C825 1.429 . S
C820 C812 1.574 . S
C820 H815 0.949 . S
C820 C826 1.368 . S
C821 C805 1.349 . S
C821 H813 0.950 . S
C821 C819 1.327 . S
C822 C810 1.349 . S
C822 H816 0.950 . S
C822 C823 1.327 . S
C823 H817 0.950 . S
C823 C822 1.327 . S
C823 C827 1.429 . S
C824 C807 1.574 . S
C824 H818 0.949 . S
C824 C828 1.368 . S
C825 C806 1.429 . S
C825 C819 1.429 . S
C825 C826 1.523 . S
C826 C807 1.368 . S
C826 C820 1.368 . S
C826 C825 1.523 . S
C827 C811 1.429 . S
C827 C823 1.429 . S
C827 C828 1.523 . S
C828 C812 1.368 . S
C828 C824 1.368 . S
C828 C827 1.523 . S
H829 C804 0.950 . S
H830 C806 0.950 . S
H831 C807 0.949 . S
H832 C809 0.950 . S
H833 C811 0.950 . S
C834 C835 1.349 . S
C834 C836 1.327 . S
C834 H859 0.950 . S
C835 C834 1.349 . S
C835 C851 1.349 1_554 S
C836 C834 1.327 . S
C836 C855 1.429 . S
C836 H860 0.950 . S
C837 C854 1.574 . S
C837 C856 1.368 1_556 S
C837 H861 0.949 . S
H838 C842 0.949 . S
C839 C840 1.349 . S
C839 C841 1.327 . S
C839 H862 0.950 . S
C840 C839 1.349 . S
C840 C852 1.349 1_556 S
C841 C839 1.327 . S
C841 C857 1.429 . S
C841 H863 0.950 . S
C842 H838 0.949 . S
C842 C850 1.574 . S
C842 C858 1.368 1_554 S
H843 C851 0.950 . S
H844 C849 0.950 . S
H845 C850 0.949 . S
H846 C852 0.950 . S
H847 C853 0.950 . S
H848 C854 0.949 . S
C849 H844 0.950 . S
C849 C851 1.327 . S
C849 C855 1.429 1_556 S
C850 C842 1.574 . S
C850 H845 0.949 . S
C850 C856 1.368 . S
C851 C835 1.349 1_556 S
C851 H843 0.950 . S
C851 C849 1.327 . S
C852 C840 1.349 1_554 S
C852 H846 0.950 . S
C852 C853 1.327 . S
C853 H847 0.950 . S
C853 C852 1.327 . S
C853 C857 1.429 1_554 S
C854 C837 1.574 . S
C854 H848 0.949 . S
C854 C858 1.368 . S
C855 C836 1.429 . S
C855 C849 1.429 1_554 S
C855 C856 1.523 . S
C856 C837 1.368 1_554 S
C856 C850 1.368 . S
C856 C855 1.523 . S
C857 C841 1.429 . S
C857 C853 1.429 1_556 S
C857 C858 1.523 . S
C858 C842 1.368 1_556 S
C858 C854 1.368 . S
C858 C857 1.523 . S
H859 C834 0.950 . S
H860 C836 0.950 . S
H861 C837 0.949 . S
H862 C839 0.950 . S
H863 C841 0.950 . S
C265 C193 1.066 . S
C270 C28 1.066 . S
C295 C226 1.066 . S
C300 C61 1.066 . S
C325 C94 1.066 . S
C330 C259 1.066 . S
C355 C160 1.066 . S
C360 C127 1.066 . S
C385 N5 1.050 . S
C390 N14 1.048 1_556 S
C415 N47 1.048 . S
C420 N38 1.050 . S
C445 N71 1.050 . S
C450 N80 1.048 . S
C475 N104 1.050 . S
C480 N113 1.048 . S
C505 N137 1.050 . S
C510 N146 1.048 . S
C535 N170 1.050 . S
C540 N179 1.048 . S
C565 N203 1.050 . S
C570 N212 1.048 1_554 S
C595 N245 1.048 . S
C600 N236 1.050 . S
C625 C8 1.240 . S
C630 C206 1.240 . S
C655 C239 1.240 . S
C660 C41 1.240 . S
C685 C140 1.240 . S
C690 C74 1.240 . S
C715 C107 1.240 . S
C720 C173 1.240 . S
C745 C17 1.550 . S
C750 C149 1.550 . S
C775 C50 1.550 . S
C780 C182 1.550 . S
C805 C83 1.550 . S
C810 C215 1.550 . S
C835 C248 1.550 . S
C840 C116 1.550 . S
