# Generated by pormake.
# Topology dmp, (4)-cn, num edge types: 1
# Building blocks:
#     Node 0, Type 0, BuildingBlock: KUFVIS_clean_sbu_0, # of connection points: 4
#     Node 1, Type 0, BuildingBlock: KUFVIS_clean_sbu_0, # of connection points: 4
#     Node 2, Type 0, BuildingBlock: KUFVIS_clean_sbu_0, # of connection points: 4
#     Node 3, Type 0, BuildingBlock: KUFVIS_clean_sbu_0, # of connection points: 4
#     Edge 4, Type (0, 0), BuildingBlock: FUNLAD_clean_linker_0, # of connection points: 2
#     Edge 5, Type (0, 0), BuildingBlock: FUNLAD_clean_linker_0, # of connection points: 2
#     Edge 6, Type (0, 0), BuildingBlock: FUNLAD_clean_linker_0, # of connection points: 2
#     Edge 7, Type (0, 0), BuildingBlock: FUNLAD_clean_linker_0, # of connection points: 2
#     Edge 8, Type (0, 0), BuildingBlock: FUNLAD_clean_linker_0, # of connection points: 2
#     Edge 9, Type (0, 0), BuildingBlock: FUNLAD_clean_linker_0, # of connection points: 2
#     Edge 10, Type (0, 0), BuildingBlock: FUNLAD_clean_linker_0, # of connection points: 2
#     Edge 11, Type (0, 0), BuildingBlock: FUNLAD_clean_linker_0, # of connection points: 2
# Relax obj value: 0.124
# Max RMSD: 0.219
# Mean RMSD: 0.219
data_MOF--net-dmp--node1-KUFVIS_clean_sbu_0--edge1-FUNLAD_clean_linker_0
_symmetry_space_group_name_H-M    P1
_symmetry_Int_Tables_number       1
_symmetry_cell_setting            triclinic
loop_
_symmetry_equiv_pos_as_xyz
'x, y, z'
_cell_length_a     45.583952
_cell_length_b     21.55334
_cell_length_c     18.08291
_cell_angle_alpha  90.08282
_cell_angle_beta   90.140202
_cell_angle_gamma 94.323101
loop_
_atom_site_label
_atom_site_type_symbol
_atom_site_fract_x
_atom_site_fract_y
_atom_site_fract_z
_atom_type_partial_charge
Mn0 Mn 0.10004 0.24279 0.31629 0.0
Mn1 Mn 0.14746 0.21634 0.17822 0.0
C2 C 0.14039 0.31092 0.29626 0.0
C3 C 0.05872 0.28903 0.35936 0.0
C4 C 0.14729 0.14953 0.32546 0.0
O5 O 0.07664 0.17782 0.25306 0.0
O6 O 0.10941 0.16802 0.1613 0.0
C7 C 0.11612 0.27665 0.05758 0.0
N8 N 0.14093 0.27197 0.09866 0.0
C9 C 0.1667 0.35511 0.03084 0.0
C10 C 0.14148 0.36056 0.98749 0.0
C11 C 0.11607 0.32124 1.00104 0.0
C12 C 0.16543 0.30985 0.08643 0.0
H13 H 0.0965 0.24668 0.06803 0.0
C14 C 0.08441 0.15463 0.19166 0.0
O15 O 0.0689 0.24231 0.39393 0.0
O16 O 0.0711 0.30513 0.29717 0.0
N17 N 0.18541 0.26024 0.18685 0.0
C18 C 0.20796 0.24866 0.23327 0.0
C19 C 0.23508 0.28364 0.22658 0.0
C20 C 0.23885 0.32964 0.17178 0.0
C21 C 0.21553 0.33988 0.12372 0.0
C22 C 0.18912 0.30305 0.13246 0.0
H23 H 0.20527 0.21315 0.27528 0.0
O24 O 0.1272 0.30972 0.35965 0.0
O25 O 0.12933 0.27309 0.24579 0.0
O26 O 0.12663 0.1773 0.35579 0.0
O27 O 0.15603 0.15918 0.25911 0.0
C28 C 0.2174 0.38537 0.06772 0.0
C29 C 0.19296 0.39316 0.02151 0.0
H30 H 0.14133 0.39496 0.94389 0.0
H31 H 0.09648 0.32535 0.96802 0.0
H32 H 0.25302 0.27526 0.26366 0.0
H33 H 0.25976 0.35671 0.167 0.0
H34 H 0.23746 0.4149 0.06004 0.0
H35 H 0.19458 0.42862 0.97903 0.0
Mn36 Mn 0.38889 0.75514 0.33018 0.0
Mn37 Mn 0.34505 0.79627 0.19032 0.0
C38 C 0.34713 0.69381 0.30127 0.0
C39 C 0.42873 0.70181 0.36946 0.0
C40 C 0.34481 0.85442 0.34309 0.0
O41 O 0.4147 0.82147 0.27582 0.0
O42 O 0.38478 0.83903 0.17997 0.0
C43 C 0.37564 0.73691 0.06787 0.0
N44 N 0.35066 0.74346 0.10736 0.0
C45 C 0.32323 0.66728 0.03202 0.0
C46 C 0.34862 0.66001 0.99023 0.0
C47 C 0.37495 0.69491 0.00833 0.0
C48 C 0.32525 0.70987 0.09067 0.0
H49 H 0.39595 0.76341 0.08184 0.0
C50 C 0.40924 0.84792 0.21469 0.0
O51 O 0.41911 0.74629 0.40924 0.0
O52 O 0.41635 0.69128 0.30571 0.0
N53 N 0.30573 0.75818 0.19261 0.0
C54 C 0.28312 0.77122 0.23786 0.0
C55 C 0.25519 0.74032 0.22701 0.0
C56 C 0.25071 0.69697 0.16925 0.0
C57 C 0.27411 0.68558 0.12218 0.0
C58 C 0.30137 0.71825 0.13523 0.0
H59 H 0.28637 0.80462 0.28221 0.0
O60 O 0.35968 0.68867 0.36506 0.0
O61 O 0.3599 0.7332 0.25509 0.0
O62 O 0.36346 0.82111 0.37365 0.0
O63 O 0.33751 0.85066 0.27483 0.0
C64 C 0.27151 0.64279 0.06313 0.0
C65 C 0.29607 0.6335 0.01823 0.0
H66 H 0.3482 0.62755 0.94437 0.0
H67 H 0.39466 0.68936 0.97654 0.0
H68 H 0.2372 0.74971 0.26327 0.0
H69 H 0.22922 0.67276 0.16152 0.0
H70 H 0.25076 0.6165 0.05204 0.0
H71 H 0.29386 0.60016 0.97331 0.0
Mn72 Mn 0.88886 0.75503 0.68675 0.0
Mn73 Mn 0.83978 0.78341 0.82056 0.0
C74 C 0.84896 0.68584 0.7066 0.0
C75 C 0.93103 0.70989 0.64741 0.0
C76 C 0.84023 0.84457 0.67 0.0
O77 O 0.9111 0.82258 0.74843 0.0
O78 O 0.87714 0.83463 0.83664 0.0
C79 C 0.8712 0.73043 0.94631 0.0
N80 N 0.84651 0.73203 0.90402 0.0
C81 C 0.82096 0.65223 0.97746 0.0
C82 C 0.84606 0.65003 0.02213 0.0
C83 C 0.8713 0.6892 0.00636 0.0
C84 C 0.82216 0.69432 0.91846 0.0
H85 H 0.89068 0.76032 0.93423 0.0
C86 C 0.90243 0.84777 0.80771 0.0
O87 O 0.92061 0.75528 0.61085 0.0
O88 O 0.9184 0.69469 0.70961 0.0
N89 N 0.80238 0.73708 0.81307 0.0
C90 C 0.78018 0.74419 0.76386 0.0
C91 C 0.75347 0.70785 0.77137 0.0
C92 C 0.74969 0.66527 0.82993 0.0
C93 C 0.77258 0.65984 0.88088 0.0
C94 C 0.79865 0.69759 0.87087 0.0
H95 H 0.7829 0.77697 0.71886 0.0
O96 O 0.8629 0.68618 0.64428 0.0
O97 O 0.85911 0.7251 0.75686 0.0
O98 O 0.86183 0.81782 0.64272 0.0
O99 O 0.83087 0.83632 0.736 0.0
C100 C 0.77075 0.61772 0.9405 0.0
C101 C 0.79496 0.61379 0.98862 0.0
H102 H 0.84625 0.61817 0.06838 0.0
H103 H 0.89079 0.68756 0.04037 0.0
H104 H 0.73586 0.71251 0.73198 0.0
H105 H 0.72916 0.63688 0.8351 0.0
H106 H 0.75095 0.58765 0.94937 0.0
H107 H 0.79339 0.58077 0.0338 0.0
Mn108 Mn 0.60132 0.22834 0.67823 0.0
Mn109 Mn 0.65118 0.1892 0.80529 0.0
C110 C 0.64569 0.28521 0.68675 0.0
C111 C 0.56101 0.28424 0.64927 0.0
C112 C 0.64126 0.1222 0.65866 0.0
O113 O 0.57751 0.16855 0.74582 0.0
O114 O 0.61142 0.15359 0.83342 0.0
C115 C 0.63032 0.26117 0.93174 0.0
N116 N 0.65232 0.24777 0.88488 0.0
C117 C 0.68642 0.32251 0.94472 0.0
C118 C 0.66418 0.33679 0.99398 0.0
C119 C 0.636 0.30605 0.98735 0.0
C120 C 0.67949 0.27721 0.89059 0.0
H121 H 0.60859 0.23787 0.9266 0.0
C122 C 0.58525 0.14591 0.8074 0.0
O123 O 0.56718 0.23632 0.61002 0.0
O124 O 0.57722 0.29713 0.70696 0.0
N125 N 0.69084 0.22065 0.7861 0.0
C126 C 0.70971 0.20235 0.73337 0.0
C127 C 0.73873 0.22926 0.73174 0.0
C128 C 0.74818 0.27407 0.78484 0.0
C129 C 0.72858 0.29108 0.83961 0.0
C130 C 0.69999 0.26229 0.83884 0.0
H131 H 0.70266 0.16782 0.69253 0.0
O132 O 0.62954 0.28864 0.6281 0.0
O133 O 0.63482 0.25076 0.74058 0.0
O134 O 0.62229 0.15669 0.63165 0.0
O135 O 0.65194 0.12837 0.72393 0.0
C136 C 0.73615 0.33627 0.89416 0.0
C137 C 0.71506 0.35209 0.94655 0.0
H138 H 0.66844 0.37157 0.03675 0.0
H139 H 0.61868 0.31704 0.02492 0.0
H140 H 0.75376 0.21565 0.68949 0.0
H141 H 0.77048 0.29521 0.78292 0.0
H142 H 0.75803 0.35965 0.89579 0.0
H143 H 0.72105 0.38738 0.98771 0.0
C144 C 0.30802 0.86188 0.44246 0.0
C145 C 0.32654 0.89195 0.38957 0.0
C146 C 0.28324 0.88996 0.46788 0.0
C147 C 0.27714 0.94914 0.44244 0.0
C148 C 0.29738 0.98155 0.39502 0.0
C149 C 0.32165 0.95279 0.36809 0.0
C150 C 0.24724 0.97052 0.45271 0.0
C151 C 0.24192 0.03101 0.45339 0.0
C152 C 0.21279 0.0527 0.43386 0.0
C153 C 0.20443 0.10919 0.46274 0.0
C154 C 0.18056 0.13765 0.4324 0.0
C155 C 0.16535 0.11088 0.37124 0.0
H156 H 0.2022 0.98073 0.35176 0.0
C157 C 0.17265 0.05285 0.34488 0.0
C158 C 0.19592 0.02352 0.37655 0.0
H159 H 0.16153 0.03205 0.29686 0.0
H160 H 0.31098 0.81428 0.45834 0.0
H161 H 0.26781 0.86378 0.5036 0.0
H162 H 0.29304 0.02662 0.37292 0.0
H163 H 0.33534 0.97622 0.32618 0.0
H164 H 0.22884 0.93535 0.45144 0.0
H165 H 0.26007 0.06618 0.46085 0.0
H166 H 0.21733 0.13296 0.50608 0.0
H167 H 0.1757 0.18316 0.45244 0.0
C168 C 0.15821 0.40495 0.22629 0.0
C169 C 0.16299 0.36057 0.28081 0.0
C170 C 0.17898 0.45497 0.21499 0.0
C171 C 0.20484 0.46008 0.25721 0.0
C172 C 0.20926 0.41616 0.3127 0.0
C173 C 0.18815 0.36731 0.32531 0.0
C174 C 0.22648 0.5133 0.24701 0.0
C175 C 0.25529 0.50515 0.24375 0.0
C176 C 0.27759 0.55734 0.25325 0.0
C177 C 0.30346 0.55971 0.21136 0.0
C178 C 0.32581 0.60624 0.22489 0.0
C179 C 0.32257 0.6499 0.28127 0.0
H180 H 0.25507 0.5989 0.34436 0.0
C181 C 0.29713 0.64643 0.32455 0.0
C182 C 0.27449 0.60114 0.30977 0.0
H183 H 0.29479 0.67884 0.36968 0.0
H184 H 0.1383 0.40123 0.19317 0.0
H185 H 0.17506 0.48914 0.17292 0.0
H186 H 0.22875 0.4204 0.3473 0.0
H187 H 0.19164 0.33426 0.369 0.0
H188 H 0.21876 0.55982 0.24611 0.0
H189 H 0.26275 0.45861 0.23856 0.0
H190 H 0.3064 0.52546 0.16863 0.0
H191 H 0.34586 0.6073 0.19271 0.0
C192 C 0.66323 0.02251 0.63382 0.0
C193 C 0.65677 0.08162 0.60917 0.0
C194 C 0.68679 0.99335 0.60355 0.0
C195 C 0.70473 0.02369 0.54931 0.0
C196 C 0.69663 0.08033 0.52034 0.0
C197 C 0.67252 0.10868 0.54927 0.0
C198 C 0.73477 0.00431 0.53524 0.0
C199 C 0.74152 0.94482 0.53999 0.0
C200 C 0.77167 0.92763 0.55744 0.0
C201 C 0.78924 0.96274 0.60892 0.0
C202 C 0.81369 0.93798 0.64107 0.0
C203 C 0.82147 0.87864 0.62078 0.0
H204 H 0.76714 0.84157 0.49538 0.0
C205 C 0.80554 0.84589 0.56469 0.0
C206 C 0.78054 0.86984 0.53405 0.0
H207 H 0.81073 0.79927 0.54969 0.0
H208 H 0.65173 0.00141 0.68092 0.0
H209 H 0.69269 0.95028 0.62831 0.0
H210 H 0.71026 0.10491 0.47919 0.0
H211 H 0.66839 0.15499 0.53058 0.0
H212 H 0.75237 0.04095 0.52969 0.0
H213 H 0.72401 0.90769 0.53942 0.0
H214 H 0.78264 0.00676 0.62956 0.0
H215 H 0.8253 0.96329 0.68543 0.0
C216 C 0.80276 0.62858 0.66764 0.0
C217 C 0.8254 0.63764 0.7197 0.0
C218 C 0.78106 0.58035 0.67664 0.0
C219 C 0.78219 0.5394 0.7369 0.0
C220 C 0.80507 0.5482 0.78867 0.0
C221 C 0.82689 0.59663 0.77946 0.0
C222 C 0.75931 0.48802 0.74653 0.0
C223 C 0.74746 0.45716 0.68784 0.0
C224 C 0.72243 0.41002 0.69293 0.0
C225 C 0.71844 0.36571 0.63626 0.0
C226 C 0.69372 0.32365 0.63565 0.0
C227 C 0.67288 0.32494 0.69223 0.0
H228 H 0.70298 0.4471 0.79188 0.0
C229 C 0.67638 0.36985 0.74816 0.0
C230 C 0.70114 0.41197 0.74896 0.0
H231 H 0.65969 0.37309 0.79029 0.0
H232 H 0.80165 0.6594 0.62057 0.0
H233 H 0.76326 0.57562 0.63678 0.0
H234 H 0.80627 0.51719 0.8355 0.0
H235 H 0.84491 0.60196 0.81867 0.0
H236 H 0.7527 0.4748 0.80235 0.0
H237 H 0.75658 0.46669 0.63314 0.0
H238 H 0.73428 0.36417 0.59183 0.0
H239 H 0.69078 0.29024 0.5909 0.0
C240 C 0.03316 0.11118 0.15998 0.0
C241 C 0.06374 0.11067 0.15109 0.0
C242 C 0.01403 0.07334 0.11542 0.0
C243 C 0.02525 0.0341 0.06164 0.0
C244 C 0.05574 0.03159 0.05552 0.0
C245 C 0.07478 0.06975 0.09919 0.0
C246 C 0.00606 0.99477 0.01115 0.0
C247 C 0.97943 0.0102 0.98869 0.0
C248 C 0.96045 0.97077 0.93779 0.0
C249 C 0.92989 0.97206 0.94393 0.0
C250 C 0.91117 0.93328 0.9001 0.0
C251 C 0.9226 0.89295 0.84809 0.0
H252 H 0.99551 0.93183 0.87555 0.0
C253 C 0.95322 0.89387 0.8391 0.0
C254 C 0.97202 0.93235 0.88368 0.0
H255 H 0.96268 0.86361 0.79922 0.0
H256 H 0.02404 0.142 0.19977 0.0
H257 H 0.99058 0.0749 0.12341 0.0
H258 H 0.06494 0.00117 0.01536 0.0
H259 H 0.09825 0.0676 0.09162 0.0
H260 H 0.01478 0.95273 0.98998 0.0
H261 H 0.97062 0.05212 0.00992 0.0
H262 H 0.92043 0.00188 0.98432 0.0
H263 H 0.88765 0.93433 0.90782 0.0
C264 C 0.57113 0.0825 0.91944 0.0
C265 C 0.56294 0.10982 0.85259 0.0
C266 C 0.55022 0.04961 0.96338 0.0
C267 C 0.52049 0.04365 0.94178 0.0
C268 C 0.51238 0.07003 0.87445 0.0
C269 C 0.53332 0.10292 0.83038 0.0
C270 C 0.49739 0.00907 0.98649 0.0
C271 C 0.50004 -0.00345 0.0592 0.0
C272 C 0.47638 0.96173 0.10173 0.0
C273 C 0.48378 0.92587 0.16288 0.0
C274 C 0.46198 0.88997 0.20141 0.0
C275 C 0.43237 0.88968 0.1795 0.0
H276 H 0.43983 0.99313 0.03791 0.0
C277 C 0.42492 0.92799 0.12051 0.0
C278 C 0.4466 0.96383 0.0824 0.0
H279 H 0.40226 0.93002 0.10309 0.0
H280 H 0.5938 0.08631 0.93809 0.0
H281 H 0.55771 0.02835 0.01341 0.0
H282 H 0.48967 0.06568 0.8561 0.0
H283 H 0.52621 0.12321 0.77921 0.0
H284 H 0.4772 0.99375 0.95768 0.0
H285 H 0.5202 0.01058 0.08868 0.0
H286 H 0.50655 0.92427 0.17961 0.0
H287 H 0.46842 0.86122 0.24685 0.0
C288 C 0.95994 0.61588 0.65133 0.0
C289 C 0.95241 0.66967 0.61402 0.0
C290 C 0.97521 0.57097 0.61502 0.0
C291 C 0.98327 0.57884 0.54038 0.0
C292 C 0.97757 0.63461 0.50479 0.0
C293 C 0.96215 0.67945 0.54102 0.0
C294 C -0.00259 0.53001 0.49783 0.0
C295 C 0.99365 0.46866 0.51358 0.0
C296 C 0.00758 0.41994 0.47035 0.0
C297 C 0.01368 0.3642 0.50545 0.0
C298 C 0.02879 0.31942 0.46811 0.0
C299 C 0.03778 0.32928 0.39453 0.0
H300 H 0.00946 0.46883 0.36521 0.0
C301 C 0.02987 0.38309 0.3579 0.0
C302 C 0.01491 0.42788 0.39527 0.0
H303 H 0.0362 0.39188 0.30095 0.0
H304 H 0.953 0.60712 0.70786 0.0
H305 H 0.9803 0.52997 0.64549 0.0
H306 H 0.984 0.64243 0.4477 0.0
H307 H 0.95676 0.7204 0.51071 0.0
H308 H 0.01063 0.54544 0.45053 0.0
H309 H 0.98049 0.45312 0.56093 0.0
H310 H 0.0078 0.35634 0.56288 0.0
H311 H 0.03451 0.27846 0.49791 0.0
C312 C 0.45514 0.65427 0.4746 0.0
C313 C 0.4498 0.65882 0.39834 0.0
C314 C 0.47074 0.60579 0.50249 0.0
C315 C 0.48135 0.5611 0.4544 0.0
C316 C 0.47759 0.56829 0.37796 0.0
C317 C 0.46182 0.61625 0.35023 0.0
C318 C 0.49627 0.5063 0.48119 0.0
C319 C 0.49185 0.48082 0.54867 0.0
C320 C 0.50693 0.42588 0.57412 0.0
C321 C 0.51392 0.42095 0.64934 0.0
C322 C 0.53022 0.3728 0.67443 0.0
C323 C 0.53937 0.32776 0.62499 0.0
H324 H 0.50869 0.37995 0.4673 0.0
C325 C 0.53066 0.33012 0.55056 0.0
C326 C 0.51466 0.37887 0.52522 0.0
H327 H 0.53736 0.296 0.51121 0.0
H328 H 0.4462 0.68648 0.51301 0.0
H329 H 0.47415 0.6033 0.5616 0.0
H330 H 0.48592 0.53524 0.33955 0.0
H331 H 0.45822 0.6187 0.2911 0.0
H332 H 0.51076 0.48505 0.44258 0.0
H333 H 0.47761 0.50186 0.58795 0.0
H334 H 0.50781 0.45593 0.68835 0.0
H335 H 0.53648 0.37202 0.73224 0.0
loop_
_geom_bond_atom_site_label_1
_geom_bond_atom_site_label_2
_geom_bond_distance
_geom_bond_site_symmetry_2
_ccdc_geom_bond_type
Mn0 O5 2.095 . S
Mn0 O15 2.162 . S
Mn0 O16 2.297 . S
Mn0 O24 2.385 . S
Mn0 O25 2.209 . S
Mn0 O26 2.094 . S
Mn1 O6 2.121 . S
Mn1 N8 2.257 . S
Mn1 N17 2.282 . S
Mn1 O25 2.215 . S
Mn1 O27 2.117 . S
C2 O24 1.234 . S
C2 O25 1.283 . S
C3 O15 1.281 . S
C3 O16 1.236 . S
C4 O26 1.240 . S
C4 O27 1.264 . S
O5 Mn0 2.095 . S
O5 C14 1.250 . S
O6 Mn1 2.121 . S
O6 C14 1.258 . S
C7 N8 1.318 1_556 S
C7 C11 1.470 . S
C7 H13 0.928 1_556 S
N8 Mn1 2.257 . S
N8 C7 1.318 1_554 S
N8 C12 1.362 . S
C9 C10 1.258 . S
C9 C12 1.431 1_556 S
C9 C29 1.449 . S
C10 C9 1.258 . S
C10 C11 1.477 . S
C10 H30 0.931 . S
C11 C7 1.470 . S
C11 C10 1.477 . S
C11 H31 0.930 . S
C12 N8 1.362 . S
C12 C9 1.431 1_554 S
C12 C22 1.476 . S
H13 C7 0.928 1_554 S
C14 O5 1.250 . S
C14 O6 1.258 . S
O15 Mn0 2.162 . S
O15 C3 1.281 . S
O16 Mn0 2.297 . S
O16 C3 1.236 . S
N17 Mn1 2.282 . S
N17 C18 1.328 . S
N17 C22 1.318 . S
C18 N17 1.328 . S
C18 C19 1.457 . S
C18 H23 0.929 . S
C19 C18 1.457 . S
C19 C20 1.291 . S
C19 H32 0.931 . S
C20 C19 1.291 . S
C20 C21 1.373 . S
C20 H33 0.929 . S
C21 C20 1.373 . S
C21 C22 1.396 . S
C21 C28 1.403 . S
C22 C12 1.476 . S
C22 N17 1.318 . S
C22 C21 1.396 . S
H23 C18 0.929 . S
O24 Mn0 2.385 . S
O24 C2 1.234 . S
O25 Mn0 2.209 . S
O25 Mn1 2.215 . S
O25 C2 1.283 . S
O26 Mn0 2.094 . S
O26 C4 1.240 . S
O27 Mn1 2.117 . S
O27 C4 1.264 . S
C28 C21 1.403 . S
C28 C29 1.399 1_554 S
C28 H34 0.929 . S
C29 C9 1.449 . S
C29 C28 1.399 1_556 S
C29 H35 0.930 . S
H30 C10 0.931 . S
H31 C11 0.930 . S
H32 C19 0.931 . S
H33 C20 0.929 . S
H34 C28 0.929 . S
H35 C29 0.930 . S
Mn36 O41 2.095 . S
Mn36 O51 2.162 . S
Mn36 O52 2.297 . S
Mn36 O60 2.385 . S
Mn36 O61 2.209 . S
Mn36 O62 2.094 . S
Mn37 O42 2.121 . S
Mn37 N44 2.257 . S
Mn37 N53 2.282 . S
Mn37 O61 2.215 . S
Mn37 O63 2.117 . S
C38 O60 1.234 . S
C38 O61 1.283 . S
C39 O51 1.281 . S
C39 O52 1.236 . S
C40 O62 1.240 . S
C40 O63 1.264 . S
O41 Mn36 2.095 . S
O41 C50 1.250 . S
O42 Mn37 2.121 . S
O42 C50 1.258 . S
C43 N44 1.318 1_556 S
C43 C47 1.470 . S
C43 H49 0.928 1_556 S
N44 Mn37 2.257 . S
N44 C43 1.318 1_554 S
N44 C48 1.362 . S
C45 C46 1.258 . S
C45 C48 1.431 1_556 S
C45 C65 1.449 . S
C46 C45 1.258 . S
C46 C47 1.477 . S
C46 H66 0.931 . S
C47 C43 1.470 . S
C47 C46 1.477 . S
C47 H67 0.930 . S
C48 N44 1.362 . S
C48 C45 1.431 1_554 S
C48 C58 1.476 . S
H49 C43 0.928 1_554 S
C50 O41 1.250 . S
C50 O42 1.258 . S
O51 Mn36 2.162 . S
O51 C39 1.281 . S
O52 Mn36 2.297 . S
O52 C39 1.236 . S
N53 Mn37 2.282 . S
N53 C54 1.328 . S
N53 C58 1.318 . S
C54 N53 1.328 . S
C54 C55 1.457 . S
C54 H59 0.929 . S
C55 C54 1.457 . S
C55 C56 1.291 . S
C55 H68 0.931 . S
C56 C55 1.291 . S
C56 C57 1.373 . S
C56 H69 0.929 . S
C57 C56 1.373 . S
C57 C58 1.396 . S
C57 C64 1.403 . S
C58 C48 1.476 . S
C58 N53 1.318 . S
C58 C57 1.396 . S
H59 C54 0.929 . S
O60 Mn36 2.385 . S
O60 C38 1.234 . S
O61 Mn36 2.209 . S
O61 Mn37 2.215 . S
O61 C38 1.283 . S
O62 Mn36 2.094 . S
O62 C40 1.240 . S
O63 Mn37 2.117 . S
O63 C40 1.264 . S
C64 C57 1.403 . S
C64 C65 1.399 1_554 S
C64 H70 0.929 . S
C65 C45 1.449 . S
C65 C64 1.399 1_556 S
C65 H71 0.930 . S
H66 C46 0.931 . S
H67 C47 0.930 . S
H68 C55 0.931 . S
H69 C56 0.929 . S
H70 C64 0.929 . S
H71 C65 0.930 . S
Mn72 O77 2.095 . S
Mn72 O87 2.162 . S
Mn72 O88 2.297 . S
Mn72 O96 2.385 . S
Mn72 O97 2.209 . S
Mn72 O98 2.094 . S
Mn73 O78 2.121 . S
Mn73 N80 2.257 . S
Mn73 N89 2.282 . S
Mn73 O97 2.215 . S
Mn73 O99 2.117 . S
C74 O96 1.234 . S
C74 O97 1.283 . S
C75 O87 1.281 . S
C75 O88 1.236 . S
C76 O98 1.240 . S
C76 O99 1.264 . S
O77 Mn72 2.095 . S
O77 C86 1.250 . S
O78 Mn73 2.121 . S
O78 C86 1.258 . S
C79 N80 1.318 1_554 S
C79 C83 1.470 . S
C79 H85 0.928 1_554 S
N80 Mn73 2.257 . S
N80 C79 1.318 1_556 S
N80 C84 1.362 . S
C81 C82 1.258 . S
C81 C84 1.431 1_554 S
C81 C101 1.449 . S
C82 C81 1.258 . S
C82 C83 1.477 . S
C82 H102 0.931 . S
C83 C79 1.470 . S
C83 C82 1.477 . S
C83 H103 0.930 . S
C84 N80 1.362 . S
C84 C81 1.431 1_556 S
C84 C94 1.476 . S
H85 C79 0.928 1_556 S
C86 O77 1.250 . S
C86 O78 1.258 . S
O87 Mn72 2.162 . S
O87 C75 1.281 . S
O88 Mn72 2.297 . S
O88 C75 1.236 . S
N89 Mn73 2.282 . S
N89 C90 1.328 . S
N89 C94 1.318 . S
C90 N89 1.328 . S
C90 C91 1.457 . S
C90 H95 0.929 . S
C91 C90 1.457 . S
C91 C92 1.291 . S
C91 H104 0.931 . S
C92 C91 1.291 . S
C92 C93 1.373 . S
C92 H105 0.929 . S
C93 C92 1.373 . S
C93 C94 1.396 . S
C93 C100 1.403 . S
C94 C84 1.476 . S
C94 N89 1.318 . S
C94 C93 1.396 . S
H95 C90 0.929 . S
O96 Mn72 2.385 . S
O96 C74 1.234 . S
O97 Mn72 2.209 . S
O97 Mn73 2.215 . S
O97 C74 1.283 . S
O98 Mn72 2.094 . S
O98 C76 1.240 . S
O99 Mn73 2.117 . S
O99 C76 1.264 . S
C100 C93 1.403 . S
C100 C101 1.399 1_556 S
C100 H106 0.929 . S
C101 C81 1.449 . S
C101 C100 1.399 1_554 S
C101 H107 0.930 . S
H102 C82 0.931 . S
H103 C83 0.930 . S
H104 C91 0.931 . S
H105 C92 0.929 . S
H106 C100 0.929 . S
H107 C101 0.930 . S
Mn108 O113 2.095 . S
Mn108 O123 2.162 . S
Mn108 O124 2.297 . S
Mn108 O132 2.385 . S
Mn108 O133 2.209 . S
Mn108 O134 2.094 . S
Mn109 O114 2.121 . S
Mn109 N116 2.257 . S
Mn109 N125 2.282 . S
Mn109 O133 2.215 . S
Mn109 O135 2.117 . S
C110 O132 1.234 . S
C110 O133 1.283 . S
C111 O123 1.281 . S
C111 O124 1.236 . S
C112 O134 1.240 . S
C112 O135 1.264 . S
O113 Mn108 2.095 . S
O113 C122 1.250 . S
O114 Mn109 2.121 . S
O114 C122 1.258 . S
C115 N116 1.318 1_554 S
C115 C119 1.470 . S
C115 H121 0.928 1_554 S
N116 Mn109 2.257 . S
N116 C115 1.318 1_556 S
N116 C120 1.362 . S
C117 C118 1.258 . S
C117 C120 1.431 1_554 S
C117 C137 1.449 . S
C118 C117 1.258 . S
C118 C119 1.477 . S
C118 H138 0.931 . S
C119 C115 1.470 . S
C119 C118 1.477 . S
C119 H139 0.930 . S
C120 N116 1.362 . S
C120 C117 1.431 1_556 S
C120 C130 1.476 . S
H121 C115 0.928 1_556 S
C122 O113 1.250 . S
C122 O114 1.258 . S
O123 Mn108 2.162 . S
O123 C111 1.281 . S
O124 Mn108 2.297 . S
O124 C111 1.236 . S
N125 Mn109 2.282 . S
N125 C126 1.328 . S
N125 C130 1.318 . S
C126 N125 1.328 . S
C126 C127 1.457 . S
C126 H131 0.929 . S
C127 C126 1.457 . S
C127 C128 1.291 . S
C127 H140 0.931 . S
C128 C127 1.291 . S
C128 C129 1.373 . S
C128 H141 0.929 . S
C129 C128 1.373 . S
C129 C130 1.396 . S
C129 C136 1.403 . S
C130 C120 1.476 . S
C130 N125 1.318 . S
C130 C129 1.396 . S
H131 C126 0.929 . S
O132 Mn108 2.385 . S
O132 C110 1.234 . S
O133 Mn108 2.209 . S
O133 Mn109 2.215 . S
O133 C110 1.283 . S
O134 Mn108 2.094 . S
O134 C112 1.240 . S
O135 Mn109 2.117 . S
O135 C112 1.264 . S
C136 C129 1.403 . S
C136 C137 1.399 1_556 S
C136 H142 0.929 . S
C137 C117 1.449 . S
C137 C136 1.399 1_554 S
C137 H143 0.930 . S
H138 C118 0.931 . S
H139 C119 0.930 . S
H140 C127 0.931 . S
H141 C128 0.929 . S
H142 C136 0.929 . S
H143 C137 0.930 . S
C144 C145 1.386 . S
C144 C146 1.383 . S
C144 H160 0.951 . S
C145 C144 1.386 . S
C145 C149 1.383 . S
C146 C144 1.383 . S
C146 C147 1.402 . S
C146 H161 0.951 1_565 S
C147 C146 1.402 . S
C147 C148 1.375 . S
C147 C150 1.481 . S
C148 C147 1.375 . S
C148 C149 1.367 . S
C148 H162 0.951 . S
C149 C145 1.383 . S
C149 C148 1.367 . S
C149 H163 0.950 . S
C150 C147 1.481 . S
C150 C151 1.297 1_565 S
C150 H164 0.950 . S
C151 C150 1.297 1_545 S
C151 C152 1.479 . S
C151 H165 0.950 . S
C152 C151 1.479 . S
C152 C153 1.375 . S
C152 C158 1.404 . S
C153 C152 1.375 . S
C153 C154 1.369 . S
C153 H166 0.950 . S
C154 C153 1.369 . S
C154 C155 1.392 . S
C154 H167 0.951 . S
C155 C154 1.392 . S
C155 C157 1.384 . S
H156 C158 0.949 . S
C157 C155 1.384 . S
C157 C158 1.385 . S
C157 H159 0.950 . S
C158 C152 1.404 . S
C158 H156 0.949 . S
C158 C157 1.385 . S
H159 C157 0.950 . S
H160 C144 0.951 . S
H161 C146 0.951 1_545 S
H162 C148 0.951 . S
H163 C149 0.950 . S
H164 C150 0.950 . S
H165 C151 0.950 . S
H166 C153 0.950 . S
H167 C154 0.951 . S
C168 C169 1.386 . S
C168 C170 1.383 . S
C168 H184 0.951 . S
C169 C168 1.386 . S
C169 C173 1.383 . S
C170 C168 1.383 . S
C170 C171 1.402 . S
C170 H185 0.951 . S
C171 C170 1.402 . S
C171 C172 1.375 . S
C171 C174 1.481 . S
C172 C171 1.375 . S
C172 C173 1.367 . S
C172 H186 0.951 . S
C173 C169 1.383 . S
C173 C172 1.367 . S
C173 H187 0.950 . S
C174 C171 1.481 . S
C174 C175 1.297 . S
C174 H188 0.950 . S
C175 C174 1.297 . S
C175 C176 1.479 . S
C175 H189 0.950 . S
C176 C175 1.479 . S
C176 C177 1.375 . S
C176 C182 1.404 . S
C177 C176 1.375 . S
C177 C178 1.369 . S
C177 H190 0.950 . S
C178 C177 1.369 . S
C178 C179 1.392 . S
C178 H191 0.951 . S
C179 C178 1.392 . S
C179 C181 1.384 . S
H180 C182 0.949 . S
C181 C179 1.384 . S
C181 C182 1.385 . S
C181 H183 0.950 . S
C182 C176 1.404 . S
C182 H180 0.949 . S
C182 C181 1.385 . S
H183 C181 0.950 . S
H184 C168 0.951 . S
H185 C170 0.951 . S
H186 C172 0.951 . S
H187 C173 0.950 . S
H188 C174 0.950 . S
H189 C175 0.950 . S
H190 C177 0.950 . S
H191 C178 0.951 . S
C192 C193 1.386 . S
C192 C194 1.383 . S
C192 H208 0.951 . S
C193 C192 1.386 . S
C193 C197 1.383 . S
C194 C192 1.383 . S
C194 C195 1.402 . S
C194 H209 0.951 . S
C195 C194 1.402 . S
C195 C196 1.375 . S
C195 C198 1.481 1_545 S
C196 C195 1.375 . S
C196 C197 1.367 . S
C196 H210 0.951 . S
C197 C193 1.383 . S
C197 C196 1.367 . S
C197 H211 0.950 . S
C198 C195 1.481 1_565 S
C198 C199 1.297 . S
C198 H212 0.950 . S
C199 C198 1.297 . S
C199 C200 1.479 . S
C199 H213 0.950 . S
C200 C199 1.479 . S
C200 C201 1.375 . S
C200 C206 1.404 . S
C201 C200 1.375 . S
C201 C202 1.369 . S
C201 H214 0.950 . S
C202 C201 1.369 . S
C202 C203 1.392 . S
C202 H215 0.951 . S
C203 C202 1.392 . S
C203 C205 1.384 . S
H204 C206 0.949 . S
C205 C203 1.384 . S
C205 C206 1.385 . S
C205 H207 0.950 . S
C206 C200 1.404 . S
C206 H204 0.949 . S
C206 C205 1.385 . S
H207 C205 0.950 . S
H208 C192 0.951 . S
H209 C194 0.951 . S
H210 C196 0.951 . S
H211 C197 0.950 . S
H212 C198 0.950 . S
H213 C199 0.950 . S
H214 C201 0.950 . S
H215 C202 0.951 . S
C216 C217 1.386 . S
C216 C218 1.383 . S
C216 H232 0.951 . S
C217 C216 1.386 . S
C217 C221 1.383 . S
C218 C216 1.383 . S
C218 C219 1.402 . S
C218 H233 0.951 . S
C219 C218 1.402 . S
C219 C220 1.375 . S
C219 C222 1.481 . S
C220 C219 1.375 . S
C220 C221 1.367 . S
C220 H234 0.951 . S
C221 C217 1.383 . S
C221 C220 1.367 . S
C221 H235 0.950 . S
C222 C219 1.481 . S
C222 C223 1.297 . S
C222 H236 0.950 . S
C223 C222 1.297 . S
C223 C224 1.479 . S
C223 H237 0.950 . S
C224 C223 1.479 . S
C224 C225 1.375 . S
C224 C230 1.404 . S
C225 C224 1.375 . S
C225 C226 1.369 . S
C225 H238 0.950 . S
C226 C225 1.369 . S
C226 C227 1.392 . S
C226 H239 0.951 . S
C227 C226 1.392 . S
C227 C229 1.384 . S
H228 C230 0.949 . S
C229 C227 1.384 . S
C229 C230 1.385 . S
C229 H231 0.950 . S
C230 C224 1.404 . S
C230 H228 0.949 . S
C230 C229 1.385 . S
H231 C229 0.950 . S
H232 C216 0.951 . S
H233 C218 0.951 . S
H234 C220 0.951 . S
H235 C221 0.950 . S
H236 C222 0.950 . S
H237 C223 0.950 . S
H238 C225 0.950 . S
H239 C226 0.951 . S
C240 C241 1.386 . S
C240 C242 1.383 . S
C240 H256 0.951 . S
C241 C240 1.386 . S
C241 C245 1.383 . S
C242 C240 1.383 . S
C242 C243 1.402 . S
C242 H257 0.951 1_455 S
C243 C242 1.402 . S
C243 C244 1.375 . S
C243 C246 1.481 1_554 S
C244 C243 1.375 . S
C244 C245 1.367 . S
C244 H258 0.951 1_554 S
C245 C241 1.383 . S
C245 C244 1.367 . S
C245 H259 0.950 . S
C246 C243 1.481 1_556 S
C246 C247 1.297 1_455 S
C246 H260 0.950 . S
C247 C246 1.297 1_655 S
C247 C248 1.479 1_545 S
C247 H261 0.950 1_556 S
C248 C247 1.479 1_565 S
C248 C249 1.375 . S
C248 C254 1.404 . S
C249 C248 1.375 . S
C249 C250 1.369 . S
C249 H262 0.950 1_556 S
C250 C249 1.369 . S
C250 C251 1.392 . S
C250 H263 0.951 . S
C251 C250 1.392 . S
C251 C253 1.384 . S
H252 C254 0.949 . S
C253 C251 1.384 . S
C253 C254 1.385 . S
C253 H255 0.950 . S
C254 C248 1.404 . S
C254 H252 0.949 . S
C254 C253 1.385 . S
H255 C253 0.950 . S
H256 C240 0.951 . S
H257 C242 0.951 1_655 S
H258 C244 0.951 1_556 S
H259 C245 0.950 . S
H260 C246 0.950 . S
H261 C247 0.950 1_554 S
H262 C249 0.950 1_554 S
H263 C250 0.951 . S
C264 C265 1.386 . S
C264 C266 1.383 . S
C264 H280 0.951 . S
C265 C264 1.386 . S
C265 C269 1.383 . S
C266 C264 1.383 . S
C266 C267 1.402 . S
C266 H281 0.951 . S
C267 C266 1.402 . S
C267 C268 1.375 . S
C267 C270 1.481 1_556 S
C268 C267 1.375 . S
C268 C269 1.367 . S
C268 H282 0.951 . S
C269 C265 1.383 . S
C269 C268 1.367 . S
C269 H283 0.950 . S
C270 C267 1.481 1_554 S
C270 C271 1.297 1_545 S
C270 H284 0.950 . S
C271 C270 1.297 1_565 S
C271 C272 1.479 . S
C271 H285 0.950 . S
C272 C271 1.479 . S
C272 C273 1.375 . S
C272 C278 1.404 . S
C273 C272 1.375 . S
C273 C274 1.369 . S
C273 H286 0.950 . S
C274 C273 1.369 . S
C274 C275 1.392 . S
C274 H287 0.951 . S
C275 C274 1.392 . S
C275 C277 1.384 . S
H276 C278 0.949 1_545 S
C277 C275 1.384 . S
C277 C278 1.385 . S
C277 H279 0.950 . S
C278 C272 1.404 . S
C278 H276 0.949 1_565 S
C278 C277 1.385 . S
H279 C277 0.950 . S
H280 C264 0.951 . S
H281 C266 0.951 . S
H282 C268 0.951 . S
H283 C269 0.950 . S
H284 C270 0.950 . S
H285 C271 0.950 . S
H286 C273 0.950 . S
H287 C274 0.951 . S
C288 C289 1.386 . S
C288 C290 1.383 . S
C288 H304 0.951 . S
C289 C288 1.386 . S
C289 C293 1.383 . S
C290 C288 1.383 . S
C290 C291 1.402 . S
C290 H305 0.951 . S
C291 C290 1.402 . S
C291 C292 1.375 . S
C291 C294 1.481 . S
C292 C291 1.375 . S
C292 C293 1.367 . S
C292 H306 0.951 . S
C293 C289 1.383 . S
C293 C292 1.367 . S
C293 H307 0.950 . S
C294 C291 1.481 . S
C294 C295 1.297 . S
C294 H308 0.950 . S
C295 C294 1.297 . S
C295 C296 1.479 1_655 S
C295 H309 0.950 . S
C296 C295 1.479 1_455 S
C296 C297 1.375 . S
C296 C302 1.404 . S
C297 C296 1.375 . S
C297 C298 1.369 . S
C297 H310 0.950 . S
C298 C297 1.369 . S
C298 C299 1.392 . S
C298 H311 0.951 . S
C299 C298 1.392 . S
C299 C301 1.384 . S
H300 C302 0.949 . S
C301 C299 1.384 . S
C301 C302 1.385 . S
C301 H303 0.950 . S
C302 C296 1.404 . S
C302 H300 0.949 . S
C302 C301 1.385 . S
H303 C301 0.950 . S
H304 C288 0.951 . S
H305 C290 0.951 . S
H306 C292 0.951 . S
H307 C293 0.950 . S
H308 C294 0.950 . S
H309 C295 0.950 . S
H310 C297 0.950 . S
H311 C298 0.951 . S
C312 C313 1.386 . S
C312 C314 1.383 . S
C312 H328 0.951 . S
C313 C312 1.386 . S
C313 C317 1.383 . S
C314 C312 1.383 . S
C314 C315 1.402 . S
C314 H329 0.951 . S
C315 C314 1.402 . S
C315 C316 1.375 . S
C315 C318 1.481 . S
C316 C315 1.375 . S
C316 C317 1.367 . S
C316 H330 0.951 . S
C317 C313 1.383 . S
C317 C316 1.367 . S
C317 H331 0.950 . S
C318 C315 1.481 . S
C318 C319 1.297 . S
C318 H332 0.950 . S
C319 C318 1.297 . S
C319 C320 1.479 . S
C319 H333 0.950 . S
C320 C319 1.479 . S
C320 C321 1.375 . S
C320 C326 1.404 . S
C321 C320 1.375 . S
C321 C322 1.369 . S
C321 H334 0.950 . S
C322 C321 1.369 . S
C322 C323 1.392 . S
C322 H335 0.951 . S
C323 C322 1.392 . S
C323 C325 1.384 . S
H324 C326 0.949 . S
C325 C323 1.384 . S
C325 C326 1.385 . S
C325 H327 0.950 . S
C326 C320 1.404 . S
C326 H324 0.949 . S
C326 C325 1.385 . S
H327 C325 0.950 . S
H328 C312 0.951 . S
H329 C314 0.951 . S
H330 C316 0.951 . S
H331 C317 0.950 . S
H332 C318 0.950 . S
H333 C319 0.950 . S
H334 C321 0.950 . S
H335 C322 0.951 . S
C145 C40 0.861 . S
C155 C4 0.814 . S
C169 C2 0.819 . S
C179 C38 0.826 . S
C193 C112 0.945 . S
C203 C76 0.836 . S
C217 C74 0.848 . S
C227 C110 0.766 . S
C241 C14 1.472 . S
C251 C86 1.428 . S
C265 C122 1.492 . S
C275 C50 1.488 . S
C289 C75 1.563 . S
C299 C3 1.557 . S
C313 C39 1.540 . S
C323 C111 1.566 . S
