# Generated by pormake.
# Topology reo-e, (6)-cn, num edge types: 1
# Building blocks:
#     Node 0, Type 0, BuildingBlock: OJICUG_clean_sbu_0, # of connection points: 6
#     Node 1, Type 0, BuildingBlock: OJICUG_clean_sbu_0, # of connection points: 6
#     Node 2, Type 0, BuildingBlock: OJICUG_clean_sbu_0, # of connection points: 6
#     Node 3, Type 0, BuildingBlock: OJICUG_clean_sbu_0, # of connection points: 6
#     Node 4, Type 0, BuildingBlock: OJICUG_clean_sbu_0, # of connection points: 6
#     Node 5, Type 0, BuildingBlock: OJICUG_clean_sbu_0, # of connection points: 6
#     Node 6, Type 0, BuildingBlock: OJICUG_clean_sbu_0, # of connection points: 6
#     Node 7, Type 0, BuildingBlock: OJICUG_clean_sbu_0, # of connection points: 6
#     Node 8, Type 0, BuildingBlock: OJICUG_clean_sbu_0, # of connection points: 6
#     Node 9, Type 0, BuildingBlock: OJICUG_clean_sbu_0, # of connection points: 6
#     Node 10, Type 0, BuildingBlock: OJICUG_clean_sbu_0, # of connection points: 6
#     Node 11, Type 0, BuildingBlock: OJICUG_clean_sbu_0, # of connection points: 6
#     Edge 12, Type (0, 0), BuildingBlock: UVAHIK_clean_linker_0, # of connection points: 2
#     Edge 13, Type (0, 0), BuildingBlock: UVAHIK_clean_linker_0, # of connection points: 2
#     Edge 14, Type (0, 0), BuildingBlock: UVAHIK_clean_linker_0, # of connection points: 2
#     Edge 15, Type (0, 0), BuildingBlock: UVAHIK_clean_linker_0, # of connection points: 2
#     Edge 16, Type (0, 0), BuildingBlock: UVAHIK_clean_linker_0, # of connection points: 2
#     Edge 17, Type (0, 0), BuildingBlock: UVAHIK_clean_linker_0, # of connection points: 2
#     Edge 18, Type (0, 0), BuildingBlock: UVAHIK_clean_linker_0, # of connection points: 2
#     Edge 19, Type (0, 0), BuildingBlock: UVAHIK_clean_linker_0, # of connection points: 2
#     Edge 20, Type (0, 0), BuildingBlock: UVAHIK_clean_linker_0, # of connection points: 2
#     Edge 21, Type (0, 0), BuildingBlock: UVAHIK_clean_linker_0, # of connection points: 2
#     Edge 22, Type (0, 0), BuildingBlock: UVAHIK_clean_linker_0, # of connection points: 2
#     Edge 23, Type (0, 0), BuildingBlock: UVAHIK_clean_linker_0, # of connection points: 2
#     Edge 24, Type (0, 0), BuildingBlock: UVAHIK_clean_linker_0, # of connection points: 2
#     Edge 25, Type (0, 0), BuildingBlock: UVAHIK_clean_linker_0, # of connection points: 2
#     Edge 26, Type (0, 0), BuildingBlock: UVAHIK_clean_linker_0, # of connection points: 2
#     Edge 27, Type (0, 0), BuildingBlock: UVAHIK_clean_linker_0, # of connection points: 2
#     Edge 28, Type (0, 0), BuildingBlock: UVAHIK_clean_linker_0, # of connection points: 2
#     Edge 29, Type (0, 0), BuildingBlock: UVAHIK_clean_linker_0, # of connection points: 2
#     Edge 30, Type (0, 0), BuildingBlock: UVAHIK_clean_linker_0, # of connection points: 2
#     Edge 31, Type (0, 0), BuildingBlock: UVAHIK_clean_linker_0, # of connection points: 2
#     Edge 32, Type (0, 0), BuildingBlock: UVAHIK_clean_linker_0, # of connection points: 2
#     Edge 33, Type (0, 0), BuildingBlock: UVAHIK_clean_linker_0, # of connection points: 2
#     Edge 34, Type (0, 0), BuildingBlock: UVAHIK_clean_linker_0, # of connection points: 2
#     Edge 35, Type (0, 0), BuildingBlock: UVAHIK_clean_linker_0, # of connection points: 2
#     Edge 36, Type (0, 0), BuildingBlock: UVAHIK_clean_linker_0, # of connection points: 2
#     Edge 37, Type (0, 0), BuildingBlock: UVAHIK_clean_linker_0, # of connection points: 2
#     Edge 38, Type (0, 0), BuildingBlock: UVAHIK_clean_linker_0, # of connection points: 2
#     Edge 39, Type (0, 0), BuildingBlock: UVAHIK_clean_linker_0, # of connection points: 2
#     Edge 40, Type (0, 0), BuildingBlock: UVAHIK_clean_linker_0, # of connection points: 2
#     Edge 41, Type (0, 0), BuildingBlock: UVAHIK_clean_linker_0, # of connection points: 2
#     Edge 42, Type (0, 0), BuildingBlock: UVAHIK_clean_linker_0, # of connection points: 2
#     Edge 43, Type (0, 0), BuildingBlock: UVAHIK_clean_linker_0, # of connection points: 2
#     Edge 44, Type (0, 0), BuildingBlock: UVAHIK_clean_linker_0, # of connection points: 2
#     Edge 45, Type (0, 0), BuildingBlock: UVAHIK_clean_linker_0, # of connection points: 2
#     Edge 46, Type (0, 0), BuildingBlock: UVAHIK_clean_linker_0, # of connection points: 2
#     Edge 47, Type (0, 0), BuildingBlock: UVAHIK_clean_linker_0, # of connection points: 2
# Relax obj value: 0.131
# Max RMSD: 0.142
# Mean RMSD: 0.142
data_MOF--net-reo-e--node1-OJICUG_clean_sbu_0--edge1-UVAHIK_clean_linker_0
_symmetry_space_group_name_H-M    P1
_symmetry_Int_Tables_number       1
_symmetry_cell_setting            triclinic
loop_
_symmetry_equiv_pos_as_xyz
'x, y, z'
_cell_length_a     50.530567
_cell_length_b     50.666575
_cell_length_c     50.624352
_cell_angle_alpha  90.013832
_cell_angle_beta   90.0002
_cell_angle_gamma 89.973707
loop_
_atom_site_label
_atom_site_type_symbol
_atom_site_fract_x
_atom_site_fract_y
_atom_site_fract_z
_atom_type_partial_charge
Sc0 Sc 0.18757 0.18432 0.45662 0.0
Sc1 Sc 0.22811 0.22841 0.49189 0.0
Sc2 Sc 0.18531 0.18579 0.52636 0.0
O3 O 0.20033 0.19949 0.49162 0.0
C4 C 0.13402 0.18823 0.48993 0.0
C5 C 0.19196 0.24556 0.44302 0.0
C6 C 0.18978 0.24754 0.53806 0.0
C7 C 0.24938 0.19112 0.44579 0.0
C8 C 0.19072 0.13282 0.49251 0.0
C9 C 0.24638 0.19226 0.54038 0.0
O10 O 0.14672 0.18627 0.46834 0.0
O11 O 0.20864 0.25052 0.46117 0.0
O12 O 0.18059 0.22471 0.54296 0.0
O13 O 0.227 0.18085 0.44072 0.0
O14 O 0.1883 0.14518 0.51421 0.0
O15 O 0.25067 0.20953 0.52266 0.0
O16 O 0.19111 0.14434 0.47023 0.0
O17 O 0.25269 0.20828 0.46378 0.0
O18 O 0.22384 0.18171 0.54392 0.0
O19 O 0.18257 0.22264 0.43908 0.0
O20 O 0.14527 0.18855 0.51238 0.0
O21 O 0.20668 0.25183 0.51999 0.0
Sc22 Sc 0.79972 0.18682 0.52617 0.0
Sc23 Sc 0.75279 0.22587 0.49296 0.0
Sc24 Sc 0.79713 0.18675 0.45637 0.0
O25 O 0.78324 0.19979 0.49183 0.0
C26 C 0.85044 0.19384 0.48944 0.0
C27 C 0.79007 0.24768 0.5388 0.0
C28 C 0.78702 0.24762 0.44465 0.0
C29 C 0.73839 0.18758 0.54087 0.0
C30 C 0.79843 0.13443 0.49118 0.0
C31 C 0.73487 0.18791 0.44609 0.0
O32 O 0.83933 0.19265 0.51192 0.0
O33 O 0.77217 0.2505 0.52142 0.0
O34 O 0.79856 0.22585 0.43988 0.0
O35 O 0.76192 0.17942 0.54435 0.0
O36 O 0.79726 0.14633 0.46912 0.0
O37 O 0.73002 0.20415 0.46458 0.0
O38 O 0.79964 0.14646 0.51319 0.0
O39 O 0.7323 0.20435 0.52323 0.0
O40 O 0.75811 0.18012 0.44052 0.0
O41 O 0.80166 0.22582 0.54304 0.0
O42 O 0.83775 0.19179 0.46786 0.0
O43 O 0.76995 0.25035 0.46287 0.0
Sc44 Sc 0.79915 0.79891 0.52842 0.0
Sc45 Sc 0.75422 0.75942 0.49303 0.0
Sc46 Sc 0.80038 0.7984 0.45862 0.0
O47 O 0.7846 0.7856 0.49335 0.0
C48 C 0.79962 0.85101 0.49312 0.0
C49 C 0.73716 0.79768 0.54008 0.0
C50 C 0.7387 0.7971 0.44503 0.0
C51 C 0.78924 0.73806 0.54088 0.0
C52 C 0.85184 0.79174 0.49453 0.0
C53 C 0.79077 0.73751 0.44652 0.0
O54 O 0.79935 0.83922 0.51527 0.0
O55 O 0.73202 0.78094 0.52212 0.0
O56 O 0.76218 0.80511 0.44089 0.0
O57 O 0.80058 0.75998 0.54548 0.0
O58 O 0.84036 0.79323 0.47224 0.0
O59 O 0.77298 0.73482 0.46403 0.0
O60 O 0.8395 0.79341 0.51633 0.0
O61 O 0.77218 0.73507 0.52269 0.0
O62 O 0.80248 0.75927 0.44219 0.0
O63 O 0.76044 0.80599 0.54466 0.0
O64 O 0.79999 0.83887 0.47116 0.0
O65 O 0.73293 0.7808 0.4632 0.0
Sc66 Sc 0.18733 0.79786 0.45867 0.0
Sc67 Sc 0.22901 0.75291 0.49134 0.0
Sc68 Sc 0.18915 0.79632 0.52842 0.0
O69 O 0.20183 0.78239 0.49282 0.0
C70 C 0.19317 0.84926 0.49462 0.0
C71 C 0.24844 0.79071 0.44481 0.0
C72 C 0.25075 0.78818 0.53896 0.0
C73 C 0.19043 0.73667 0.44422 0.0
C74 C 0.13575 0.79465 0.49484 0.0
C75 C 0.19261 0.73437 0.53929 0.0
O76 O 0.19144 0.83772 0.47241 0.0
O77 O 0.25231 0.77281 0.46197 0.0
O78 O 0.22868 0.7991 0.54407 0.0
O79 O 0.18144 0.75982 0.4407 0.0
O80 O 0.1483 0.79487 0.5166 0.0
O81 O 0.20866 0.72981 0.52051 0.0
O82 O 0.14718 0.79573 0.47249 0.0
O83 O 0.20757 0.73126 0.46176 0.0
O84 O 0.18417 0.75737 0.54473 0.0
O85 O 0.22605 0.8016 0.44129 0.0
O86 O 0.1926 0.83694 0.51646 0.0
O87 O 0.25363 0.77115 0.52075 0.0
Sc88 Sc 0.45888 0.18832 0.18575 0.0
Sc89 Sc 0.49603 0.23007 0.22712 0.0
Sc90 Sc 0.52881 0.1854 0.18523 0.0
O91 O 0.49456 0.20126 0.19933 0.0
C92 C 0.49179 0.13471 0.18978 0.0
C93 C 0.44716 0.19542 0.24713 0.0
C94 C 0.5415 0.19105 0.24663 0.0
C95 C 0.44913 0.25043 0.19036 0.0
C96 C 0.4935 0.18991 0.13314 0.0
C97 C 0.54423 0.24616 0.18963 0.0
O98 O 0.47015 0.14746 0.18868 0.0
O99 O 0.46561 0.21208 0.25066 0.0
O100 O 0.54583 0.18099 0.22404 0.0
O101 O 0.44334 0.22772 0.18135 0.0
O102 O 0.51562 0.18805 0.14496 0.0
O103 O 0.5267 0.25143 0.20684 0.0
O104 O 0.47147 0.19029 0.14524 0.0
O105 O 0.46782 0.25425 0.2067 0.0
O106 O 0.54732 0.22322 0.17999 0.0
O107 O 0.44234 0.18498 0.22481 0.0
O108 O 0.51429 0.14581 0.18883 0.0
O109 O 0.52421 0.20882 0.25059 0.0
Sc110 Sc 0.79873 0.52824 0.1865 0.0
Sc111 Sc 0.75405 0.49245 0.22594 0.0
Sc112 Sc 0.80073 0.45847 0.18727 0.0
O113 O 0.78452 0.49305 0.19987 0.0
C114 C 0.79948 0.49286 0.1345 0.0
C115 C 0.73653 0.53917 0.18766 0.0
C116 C 0.73934 0.44404 0.18843 0.0
C117 C 0.78869 0.54067 0.24726 0.0
C118 C 0.85181 0.49479 0.19359 0.0
C119 C 0.7911 0.44668 0.24832 0.0
O120 O 0.79858 0.51505 0.14618 0.0
O121 O 0.73149 0.52074 0.20389 0.0
O122 O 0.76284 0.44035 0.18028 0.0
O123 O 0.80043 0.54507 0.2255 0.0
O124 O 0.84048 0.47243 0.19268 0.0
O125 O 0.77326 0.46415 0.25092 0.0
O126 O 0.83931 0.51645 0.19147 0.0
O127 O 0.7714 0.52269 0.25006 0.0
O128 O 0.80271 0.44214 0.22651 0.0
O129 O 0.75984 0.5445 0.1799 0.0
O130 O 0.80052 0.47099 0.14675 0.0
O131 O 0.73332 0.46203 0.20485 0.0
Sc132 Sc 0.4585 0.79869 0.18848 0.0
Sc133 Sc 0.49532 0.75716 0.23036 0.0
Sc134 Sc 0.52834 0.79983 0.18647 0.0
O135 O 0.49406 0.78523 0.20176 0.0
C136 C 0.49179 0.7951 0.13523 0.0
C137 C 0.44717 0.73716 0.19507 0.0
C138 C 0.54192 0.73871 0.19192 0.0
C139 C 0.44782 0.79376 0.25025 0.0
C140 C 0.4927 0.85155 0.19054 0.0
C141 C 0.54269 0.79504 0.24766 0.0
O142 O 0.46999 0.79513 0.14776 0.0
O143 O 0.46615 0.73304 0.211 0.0
O144 O 0.54561 0.76124 0.18151 0.0
O145 O 0.44318 0.80378 0.22772 0.0
O146 O 0.51504 0.84004 0.18976 0.0
O147 O 0.52486 0.77809 0.25276 0.0
O148 O 0.47088 0.83915 0.18981 0.0
O149 O 0.4657 0.77651 0.25406 0.0
O150 O 0.54641 0.80434 0.22465 0.0
O151 O 0.44171 0.75981 0.18579 0.0
O152 O 0.51413 0.79699 0.14659 0.0
O153 O 0.5248 0.73458 0.20982 0.0
Sc154 Sc 0.18748 0.45776 0.18695 0.0
Sc155 Sc 0.22724 0.49206 0.23265 0.0
Sc156 Sc 0.18913 0.52742 0.1866 0.0
O157 O 0.20127 0.49239 0.20205 0.0
C158 C 0.19458 0.49213 0.13468 0.0
C159 C 0.24869 0.4453 0.19627 0.0
C160 C 0.24989 0.53902 0.19708 0.0
C161 C 0.18905 0.44437 0.2484 0.0
C162 C 0.13574 0.49395 0.18783 0.0
C163 C 0.19003 0.53994 0.24861 0.0
O164 O 0.19302 0.47019 0.1467 0.0
O165 O 0.25196 0.46337 0.21342 0.0
O166 O 0.22883 0.54258 0.18383 0.0
O167 O 0.18016 0.44074 0.22522 0.0
O168 O 0.14828 0.5157 0.18777 0.0
O169 O 0.20508 0.52078 0.25467 0.0
O170 O 0.14719 0.47159 0.1872 0.0
O171 O 0.20616 0.4619 0.25376 0.0
O172 O 0.18344 0.54511 0.22493 0.0
O173 O 0.22649 0.44059 0.18539 0.0
O174 O 0.19324 0.51419 0.1465 0.0
O175 O 0.25168 0.52228 0.21566 0.0
Sc176 Sc 0.4598 0.7971 0.79797 0.0
Sc177 Sc 0.49696 0.75416 0.75783 0.0
Sc178 Sc 0.52964 0.7982 0.80056 0.0
O179 O 0.49546 0.78316 0.78547 0.0
C180 C 0.49383 0.84983 0.79474 0.0
C181 C 0.44984 0.78986 0.7361 0.0
C182 C 0.54438 0.79187 0.73983 0.0
C183 C 0.44825 0.7355 0.79345 0.0
C184 C 0.49299 0.79503 0.8516 0.0
C185 C 0.54325 0.7368 0.79686 0.0
O186 O 0.47194 0.83752 0.7944 0.0
O187 O 0.46853 0.77338 0.73291 0.0
O188 O 0.54735 0.80269 0.76227 0.0
O189 O 0.44364 0.75823 0.80299 0.0
O190 O 0.51549 0.7954 0.8404 0.0
O191 O 0.52546 0.73177 0.77986 0.0
O192 O 0.47131 0.7959 0.83889 0.0
O193 O 0.46659 0.73117 0.77681 0.0
O194 O 0.54751 0.75988 0.80572 0.0
O195 O 0.44413 0.79983 0.75844 0.0
O196 O 0.51602 0.83827 0.79718 0.0
O197 O 0.52741 0.77386 0.73554 0.0
Sc198 Sc 0.18996 0.45604 0.7986 0.0
Sc199 Sc 0.23069 0.49208 0.75528 0.0
Sc200 Sc 0.18813 0.52586 0.79855 0.0
O201 O 0.20291 0.49132 0.78418 0.0
C202 C 0.13661 0.48969 0.79541 0.0
C203 C 0.19471 0.44361 0.73707 0.0
C204 C 0.1921 0.53826 0.7369 0.0
C205 C 0.25186 0.44557 0.79207 0.0
C206 C 0.19336 0.49104 0.85087 0.0
C207 C 0.24917 0.5399 0.792 0.0
O208 O 0.14911 0.46792 0.79643 0.0
O209 O 0.21122 0.46198 0.73265 0.0
O210 O 0.18297 0.54292 0.75983 0.0
O211 O 0.22945 0.44025 0.80219 0.0
O212 O 0.19157 0.513 0.83887 0.0
O213 O 0.25336 0.52237 0.77454 0.0
O214 O 0.19307 0.46896 0.83896 0.0
O215 O 0.25515 0.4637 0.77506 0.0
O216 O 0.22666 0.54345 0.80262 0.0
O217 O 0.18533 0.43892 0.75988 0.0
O218 O 0.14807 0.512 0.79601 0.0
O219 O 0.20919 0.52044 0.73237 0.0
Sc220 Sc 0.45936 0.18615 0.79685 0.0
Sc221 Sc 0.49568 0.22532 0.75224 0.0
Sc222 Sc 0.52916 0.18502 0.79787 0.0
O223 O 0.49472 0.19882 0.78233 0.0
C224 C 0.49352 0.19118 0.84949 0.0
C225 C 0.44903 0.2477 0.78827 0.0
C226 C 0.54313 0.2454 0.78887 0.0
C227 C 0.4468 0.18913 0.73526 0.0
C228 C 0.49355 0.13319 0.79573 0.0
C229 C 0.54242 0.18658 0.7361 0.0
O230 O 0.47157 0.19074 0.83728 0.0
O231 O 0.46748 0.25069 0.77144 0.0
O232 O 0.54589 0.2239 0.80149 0.0
O233 O 0.44264 0.18 0.75825 0.0
O234 O 0.51585 0.1448 0.79599 0.0
O235 O 0.524 0.20261 0.73017 0.0
O236 O 0.47163 0.1455 0.79633 0.0
O237 O 0.46499 0.20572 0.73036 0.0
O238 O 0.54699 0.17925 0.75967 0.0
O239 O 0.44351 0.22555 0.79872 0.0
O240 O 0.51566 0.18903 0.83784 0.0
O241 O 0.52655 0.24831 0.77024 0.0
Sc242 Sc 0.80098 0.52593 0.79877 0.0
Sc243 Sc 0.75471 0.49152 0.75992 0.0
Sc244 Sc 0.80051 0.4561 0.79831 0.0
O245 O 0.78542 0.49119 0.78569 0.0
C246 C 0.85278 0.49075 0.79154 0.0
C247 C 0.79053 0.53858 0.73806 0.0
C248 C 0.79039 0.44453 0.73743 0.0
C249 C 0.73923 0.53889 0.79842 0.0
C250 C 0.80066 0.49056 0.85093 0.0
C251 C 0.73868 0.4437 0.79737 0.0
O252 O 0.84109 0.51292 0.79285 0.0
O253 O 0.77304 0.52078 0.73527 0.0
O254 O 0.80247 0.44012 0.759 0.0
O255 O 0.76271 0.54329 0.80629 0.0
O256 O 0.80011 0.46855 0.83888 0.0
O257 O 0.73287 0.46243 0.78175 0.0
O258 O 0.80128 0.51266 0.83905 0.0
O259 O 0.73357 0.52093 0.78186 0.0
O260 O 0.76221 0.43866 0.8046 0.0
O261 O 0.80228 0.5429 0.75983 0.0
O262 O 0.84066 0.4689 0.79344 0.0
O263 O 0.77255 0.46207 0.73508 0.0
C264 C 0.19362 0.29294 0.42878 0.0
C265 C 0.18376 0.26724 0.42516 0.0
C266 C 0.18733 0.31296 0.41092 0.0
C267 C 0.16904 0.32191 0.3417 0.0
H268 H 0.15903 0.39482 0.36281 0.0
C269 C 0.16368 0.4049 0.26451 0.0
C270 C 0.18034 0.42649 0.26986 0.0
C271 C 0.15784 0.38652 0.28425 0.0
C272 C 0.1618 0.37454 0.35662 0.0
H273 H 0.15859 0.24279 0.40043 0.0
H274 H 0.14764 0.27781 0.36932 0.0
H275 H 0.16033 0.36024 0.3964 0.0
H276 H 0.20269 0.44641 0.30062 0.0
H277 H 0.19282 0.41428 0.33475 0.0
H278 H 0.1715 0.33618 0.30207 0.0
C279 C 0.16048 0.28232 0.38585 0.0
C280 C 0.16255 0.35477 0.37584 0.0
C281 C 0.16672 0.26228 0.40374 0.0
C282 C 0.18993 0.42996 0.29571 0.0
C283 C 0.18407 0.41162 0.3154 0.0
C284 C 0.16833 0.34166 0.32251 0.0
C285 C 0.17105 0.30776 0.38902 0.0
C286 C 0.16681 0.32832 0.36862 0.0
C287 C 0.16846 0.38939 0.30976 0.0
C288 C 0.16535 0.36826 0.3298 0.0
H289 H 0.2067 0.29752 0.4451 0.0
H290 H 0.19604 0.33228 0.41374 0.0
H291 H 0.17268 0.30177 0.33551 0.0
H292 H 0.15577 0.40171 0.24489 0.0
H293 H 0.14545 0.36976 0.27941 0.0
C294 C 0.58227 0.16997 0.26541 0.0
C295 C 0.55774 0.18247 0.26931 0.0
C296 C 0.59872 0.16445 0.2869 0.0
C297 C 0.61146 0.18953 0.35354 0.0
H298 H 0.65947 0.12998 0.35836 0.0
C299 C 0.68634 0.18392 0.43742 0.0
C300 C 0.71254 0.17905 0.42944 0.0
C301 C 0.66531 0.17873 0.42038 0.0
C302 C 0.64616 0.1467 0.35724 0.0
H303 H 0.53032 0.19707 0.29892 0.0
H304 H 0.55875 0.18699 0.33633 0.0
H305 H 0.62591 0.13101 0.32349 0.0
H306 H 0.73705 0.16326 0.39796 0.0
H307 H 0.7003 0.15472 0.36799 0.0
H308 H 0.63195 0.20565 0.38663 0.0
C309 C 0.56564 0.18216 0.31665 0.0
C310 C 0.627 0.14731 0.33729 0.0
C311 C 0.54934 0.18791 0.29521 0.0
C312 C 0.71711 0.16735 0.40467 0.0
C313 C 0.69603 0.1623 0.38754 0.0
C314 C 0.63048 0.1889 0.37341 0.0
C315 C 0.59084 0.17113 0.31269 0.0
C316 C 0.60967 0.16892 0.33506 0.0
C317 C 0.67 0.16871 0.39493 0.0
C318 C 0.64827 0.16767 0.3753 0.0
H319 H 0.58926 0.16548 0.24568 0.0
H320 H 0.61811 0.15612 0.28316 0.0
H321 H 0.59885 0.20675 0.35207 0.0
H322 H 0.68208 0.19248 0.45656 0.0
H323 H 0.6454 0.18335 0.42683 0.0
C324 C 0.8118 0.7176 0.40631 0.0
C325 C 0.79711 0.71451 0.4297 0.0
C326 C 0.81528 0.69634 0.38909 0.0
C327 C 0.78176 0.6352 0.37053 0.0
H328 H 0.84484 0.62218 0.32886 0.0
C329 C 0.78488 0.55111 0.29538 0.0
C330 C 0.79474 0.55763 0.27025 0.0
C331 C 0.78881 0.568 0.31674 0.0
C332 C 0.82708 0.62568 0.34032 0.0
H333 H 0.77621 0.68622 0.45424 0.0
H334 H 0.78258 0.64917 0.42437 0.0
H335 H 0.84558 0.65594 0.36344 0.0
H336 H 0.81746 0.58651 0.24814 0.0
H337 H 0.82386 0.61627 0.28544 0.0
H338 H 0.763 0.60557 0.34718 0.0
C339 C 0.79084 0.66817 0.41905 0.0
C340 C 0.82751 0.64496 0.36008 0.0
C341 C 0.78725 0.6894 0.43618 0.0
C342 C 0.80953 0.58093 0.26722 0.0
C343 C 0.81336 0.59791 0.28862 0.0
C344 C 0.78133 0.61601 0.35085 0.0
C345 C 0.80425 0.67158 0.395 0.0
C346 C 0.80476 0.65002 0.37525 0.0
C347 C 0.80256 0.59186 0.31347 0.0
C348 C 0.8039 0.61117 0.33539 0.0
H349 H 0.81973 0.73667 0.40077 0.0
H350 H 0.82556 0.69962 0.37061 0.0
H351 H 0.76373 0.63902 0.38146 0.0
H352 H 0.77374 0.53312 0.29852 0.0
H353 H 0.78068 0.56257 0.33578 0.0
C354 C 0.29573 0.78648 0.43063 0.0
C355 C 0.27086 0.79859 0.42772 0.0
C356 C 0.31641 0.7925 0.41342 0.0
C357 C 0.32731 0.81543 0.34594 0.0
H358 H 0.40094 0.81655 0.3676 0.0
C359 C 0.41072 0.82054 0.26931 0.0
C360 C 0.43076 0.80156 0.27271 0.0
C361 C 0.39295 0.826 0.28971 0.0
C362 C 0.38046 0.81628 0.36128 0.0
H363 H 0.24865 0.82751 0.4051 0.0
H364 H 0.28488 0.83808 0.37512 0.0
H365 H 0.36612 0.81582 0.40107 0.0
H366 H 0.44864 0.77448 0.30077 0.0
H367 H 0.41743 0.78375 0.33612 0.0
H368 H 0.34153 0.815 0.30622 0.0
C369 C 0.28819 0.82364 0.39054 0.0
C370 C 0.36055 0.81586 0.38041 0.0
C371 C 0.26746 0.81761 0.40777 0.0
C372 C 0.43339 0.78912 0.2974 0.0
C373 C 0.4156 0.79458 0.31777 0.0
C374 C 0.34719 0.81587 0.32684 0.0
C375 C 0.31273 0.81081 0.39291 0.0
C376 C 0.33378 0.81482 0.37292 0.0
C377 C 0.39484 0.81264 0.31394 0.0
C378 C 0.37398 0.81569 0.33429 0.0
H379 H 0.29913 0.77181 0.44582 0.0
H380 H 0.33497 0.78202 0.41557 0.0
H381 H 0.30691 0.81425 0.33951 0.0
H382 H 0.40827 0.83074 0.25067 0.0
H383 H 0.37739 0.84031 0.28632 0.0
C384 C 0.17265 0.71654 0.58098 0.0
C385 C 0.18448 0.71203 0.55624 0.0
C386 C 0.16766 0.69552 0.59812 0.0
C387 C 0.1934 0.62952 0.61224 0.0
H388 H 0.13447 0.62556 0.66118 0.0
C389 C 0.18871 0.54691 0.68846 0.0
C390 C 0.1836 0.55498 0.71453 0.0
C391 C 0.18361 0.5638 0.66735 0.0
C392 C 0.15105 0.62647 0.64764 0.0
H393 H 0.19851 0.68173 0.52934 0.0
H394 H 0.18943 0.64513 0.55906 0.0
H395 H 0.13476 0.65955 0.62682 0.0
H396 H 0.16767 0.58653 0.73877 0.0
H397 H 0.15932 0.61634 0.70184 0.0
H398 H 0.21011 0.59711 0.63328 0.0
C399 C 0.18465 0.66496 0.56548 0.0
C400 C 0.15122 0.6459 0.62801 0.0
C401 C 0.18981 0.68595 0.54843 0.0
C402 C 0.1719 0.57977 0.71891 0.0
C403 C 0.16698 0.59679 0.69774 0.0
C404 C 0.19322 0.61019 0.63177 0.0
C405 C 0.17425 0.66958 0.59081 0.0
C406 C 0.17256 0.64778 0.61028 0.0
C407 C 0.1735 0.58925 0.67181 0.0
C408 C 0.1722 0.60858 0.64987 0.0
H409 H 0.16824 0.7364 0.58758 0.0
H410 H 0.15981 0.69977 0.61758 0.0
H411 H 0.21043 0.63076 0.59931 0.0
H412 H 0.19727 0.52773 0.68436 0.0
H413 H 0.18829 0.5572 0.64754 0.0
C414 C 0.29372 0.19568 0.55477 0.0
C415 C 0.26838 0.18474 0.55819 0.0
C416 C 0.31402 0.18995 0.57256 0.0
C417 C 0.32386 0.17076 0.64141 0.0
H418 H 0.39716 0.16332 0.61995 0.0
C419 C 0.40731 0.16433 0.71826 0.0
C420 C 0.42881 0.18131 0.71352 0.0
C421 C 0.38888 0.15913 0.69836 0.0
C422 C 0.37678 0.1654 0.62624 0.0
H423 H 0.24488 0.1583 0.58249 0.0
H424 H 0.2804 0.14832 0.61347 0.0
H425 H 0.3624 0.1645 0.58645 0.0
H426 H 0.44845 0.20506 0.68367 0.0
H427 H 0.41618 0.19629 0.64924 0.0
H428 H 0.33818 0.17257 0.68107 0.0
C429 C 0.2844 0.16157 0.59716 0.0
C430 C 0.3569 0.16608 0.60707 0.0
C431 C 0.26409 0.16725 0.57934 0.0
C432 C 0.43209 0.19198 0.68809 0.0
C433 C 0.41368 0.18678 0.66823 0.0
C434 C 0.34371 0.17013 0.66055 0.0
C435 C 0.30947 0.17317 0.59418 0.0
C436 C 0.33029 0.16932 0.61444 0.0
C437 C 0.39157 0.17075 0.6733 0.0
C438 C 0.37044 0.16801 0.65315 0.0
H439 H 0.29779 0.20915 0.53867 0.0
H440 H 0.33304 0.19945 0.5699 0.0
H441 H 0.30357 0.17363 0.64771 0.0
H442 H 0.40428 0.15558 0.73754 0.0
H443 H 0.37225 0.14639 0.70274 0.0
C444 C 0.81146 0.40466 0.71697 0.0
C445 C 0.7966 0.42797 0.7142 0.0
C446 C 0.81526 0.38788 0.69542 0.0
C447 C 0.78286 0.37031 0.63322 0.0
H448 H 0.84644 0.32922 0.62086 0.0
C449 C 0.78738 0.29593 0.54867 0.0
C450 C 0.79679 0.27071 0.55543 0.0
C451 C 0.79139 0.3173 0.56553 0.0
C452 C 0.82856 0.34054 0.62415 0.0
H453 H 0.77555 0.45276 0.68622 0.0
H454 H 0.78249 0.42368 0.64863 0.0
H455 H 0.8463 0.36326 0.65515 0.0
H456 H 0.81901 0.24845 0.58459 0.0
H457 H 0.82557 0.28575 0.61432 0.0
H458 H 0.76485 0.34736 0.60282 0.0
C459 C 0.79066 0.41807 0.6676 0.0
C460 C 0.82847 0.35999 0.64375 0.0
C461 C 0.78673 0.43475 0.68915 0.0
C462 C 0.81143 0.2676 0.57884 0.0
C463 C 0.81534 0.28901 0.5958 0.0
C464 C 0.78296 0.35097 0.61369 0.0
C465 C 0.80439 0.39414 0.67065 0.0
C466 C 0.8055 0.37489 0.64864 0.0
C467 C 0.80477 0.31391 0.58961 0.0
C468 C 0.8057 0.3357 0.60909 0.0
H469 H 0.81939 0.39888 0.73599 0.0
H470 H 0.82573 0.36947 0.69845 0.0
H471 H 0.76467 0.38104 0.63686 0.0
H472 H 0.7764 0.29913 0.53057 0.0
H473 H 0.78349 0.33638 0.55999 0.0
C474 C 0.72018 0.8241 0.57845 0.0
C475 C 0.71534 0.80655 0.55746 0.0
C476 C 0.70023 0.83 0.59661 0.0
C477 C 0.62801 0.82352 0.60938 0.0
H478 H 0.65042 0.81539 0.68219 0.0
C479 C 0.55865 0.78946 0.69248 0.0
C480 C 0.56181 0.80025 0.71788 0.0
C481 C 0.57596 0.7963 0.67213 0.0
C482 C 0.64385 0.81826 0.66202 0.0
H483 H 0.68521 0.78275 0.53825 0.0
H484 H 0.65074 0.79266 0.57011 0.0
H485 H 0.68346 0.81735 0.64736 0.0
H486 H 0.58511 0.82751 0.74147 0.0
H487 H 0.61531 0.83935 0.70587 0.0
H488 H 0.58828 0.8233 0.62412 0.0
C489 C 0.66983 0.80208 0.57242 0.0
C490 C 0.6628 0.81943 0.64203 0.0
C491 C 0.68972 0.79621 0.55425 0.0
C492 C 0.5822 0.81865 0.72222 0.0
C493 C 0.59955 0.82542 0.70185 0.0
C494 C 0.60903 0.82227 0.62939 0.0
C495 C 0.67505 0.81851 0.59417 0.0
C496 C 0.65507 0.82139 0.61544 0.0
C497 C 0.59682 0.81403 0.67671 0.0
C498 C 0.61676 0.81897 0.65585 0.0
H499 H 0.7396 0.83266 0.58136 0.0
H500 H 0.70472 0.84306 0.61295 0.0
H501 H 0.62147 0.82548 0.5891 0.0
H502 H 0.54311 0.77533 0.68838 0.0
H503 H 0.57355 0.78693 0.65304 0.0
C504 C 0.4369 0.19707 0.29545 0.0
C505 C 0.43005 0.18869 0.26987 0.0
C506 C 0.41985 0.19266 0.31664 0.0
C507 C 0.37207 0.19987 0.35137 0.0
H508 H 0.32948 0.13685 0.3604 0.0
C509 C 0.26882 0.17071 0.405 0.0
C510 C 0.27235 0.18417 0.42904 0.0
C511 C 0.29011 0.16716 0.38772 0.0
C512 C 0.34121 0.15458 0.35805 0.0
H513 H 0.40036 0.16807 0.24675 0.0
H514 H 0.37035 0.16083 0.28374 0.0
H515 H 0.36338 0.13815 0.32591 0.0
H516 H 0.30141 0.20264 0.45466 0.0
H517 H 0.33847 0.19611 0.42472 0.0
H518 H 0.34968 0.21661 0.38293 0.0
C519 C 0.38908 0.17054 0.28742 0.0
C520 C 0.36058 0.15534 0.33832 0.0
C521 C 0.40622 0.17484 0.26619 0.0
C522 C 0.2979 0.19258 0.43611 0.0
C523 C 0.31914 0.18891 0.41893 0.0
C524 C 0.3528 0.19912 0.37102 0.0
C525 C 0.39548 0.17989 0.31276 0.0
C526 C 0.37606 0.1781 0.33466 0.0
C527 C 0.31533 0.17688 0.39422 0.0
C528 C 0.337 0.17657 0.37447 0.0
H529 H 0.45528 0.20745 0.29909 0.0
H530 H 0.42557 0.19965 0.33604 0.0
H531 H 0.38325 0.21791 0.34872 0.0
H532 H 0.24942 0.16393 0.39897 0.0
H533 H 0.2865 0.15795 0.36876 0.0
C534 C 0.78802 0.43705 0.29663 0.0
C535 C 0.79757 0.43014 0.27148 0.0
C536 C 0.79159 0.42015 0.31805 0.0
C537 C 0.82745 0.3608 0.34153 0.0
H538 H 0.76278 0.34896 0.38103 0.0
C539 C 0.80798 0.26783 0.40458 0.0
C540 C 0.79318 0.27073 0.42792 0.0
C541 C 0.81213 0.28939 0.38791 0.0
C542 C 0.78117 0.35234 0.37058 0.0
H543 H 0.81967 0.40071 0.24944 0.0
H544 H 0.82545 0.37094 0.28681 0.0
H545 H 0.76407 0.38329 0.34767 0.0
H546 H 0.77243 0.2989 0.45278 0.0
H547 H 0.77994 0.33646 0.42385 0.0
H548 H 0.84427 0.32925 0.36418 0.0
C549 C 0.81544 0.38958 0.28998 0.0
C550 C 0.78192 0.37205 0.35143 0.0
C551 C 0.81199 0.40658 0.26853 0.0
C552 C 0.78358 0.29587 0.43476 0.0
C553 C 0.78784 0.3174 0.41817 0.0
C554 C 0.82671 0.34103 0.36077 0.0
C555 C 0.80466 0.3959 0.31478 0.0
C556 C 0.80495 0.37633 0.33651 0.0
C557 C 0.80166 0.31429 0.3943 0.0
C558 C 0.80344 0.33643 0.37529 0.0
H559 H 0.77722 0.45526 0.2997 0.0
H560 H 0.78353 0.42578 0.33706 0.0
H561 H 0.84555 0.36384 0.33049 0.0
H562 H 0.81571 0.24876 0.39875 0.0
H563 H 0.82265 0.28631 0.36952 0.0
C564 C 0.55707 0.79406 0.29505 0.0
C565 C 0.56058 0.80358 0.2692 0.0
C566 C 0.57512 0.8005 0.31491 0.0
C567 C 0.64463 0.81798 0.323 0.0
H568 H 0.6244 0.82903 0.39607 0.0
C569 C 0.72287 0.8222 0.40527 0.0
C570 C 0.7173 0.80598 0.42712 0.0
C571 C 0.70307 0.82834 0.38699 0.0
C572 C 0.63035 0.82597 0.37574 0.0
H573 H 0.58524 0.82837 0.24431 0.0
H574 H 0.61668 0.83954 0.27903 0.0
H575 H 0.59038 0.828 0.36181 0.0
H576 H 0.68613 0.78467 0.44757 0.0
H577 H 0.65191 0.795 0.41559 0.0
H578 H 0.68442 0.81488 0.33691 0.0
C579 C 0.6001 0.82687 0.28379 0.0
C580 C 0.61089 0.82539 0.35616 0.0
C581 C 0.58201 0.8205 0.26393 0.0
C582 C 0.69122 0.79709 0.43091 0.0
C583 C 0.67147 0.80322 0.41267 0.0
C584 C 0.66407 0.8185 0.34257 0.0
C585 C 0.59709 0.81656 0.30936 0.0
C586 C 0.61779 0.82075 0.32968 0.0
C587 C 0.67729 0.81843 0.39021 0.0
C588 C 0.65708 0.82183 0.36923 0.0
H589 H 0.54074 0.78109 0.29987 0.0
H590 H 0.57242 0.79201 0.33436 0.0
H591 H 0.65056 0.81405 0.30282 0.0
H592 H 0.74269 0.82959 0.40183 0.0
H593 H 0.70807 0.8404 0.37006 0.0
C594 C 0.19038 0.68925 0.43017 0.0
C595 C 0.18144 0.71527 0.42642 0.0
C596 C 0.18382 0.66948 0.41213 0.0
C597 C 0.16762 0.6617 0.34243 0.0
H598 H 0.15596 0.5887 0.36229 0.0
C599 C 0.16483 0.57973 0.26414 0.0
C600 C 0.18088 0.55779 0.26993 0.0
C601 C 0.15835 0.59792 0.28384 0.0
C602 C 0.15919 0.609 0.35645 0.0
H603 H 0.15743 0.74056 0.40139 0.0
H604 H 0.14601 0.70595 0.36993 0.0
H605 H 0.15622 0.62291 0.39629 0.0
H606 H 0.20157 0.53713 0.30135 0.0
H607 H 0.19064 0.56902 0.33546 0.0
H608 H 0.17165 0.64781 0.3028 0.0
C609 C 0.15835 0.701 0.38671 0.0
C610 C 0.15932 0.62857 0.37589 0.0
C611 C 0.16485 0.72079 0.4048 0.0
C612 C 0.18927 0.55384 0.29611 0.0
C613 C 0.18281 0.57204 0.31578 0.0
C614 C 0.16753 0.64216 0.32302 0.0
C615 C 0.16819 0.67526 0.38992 0.0
C616 C 0.1642 0.65503 0.36915 0.0
C617 C 0.16776 0.59458 0.30974 0.0
C618 C 0.16399 0.61551 0.32988 0.0
H619 H 0.20307 0.68422 0.44667 0.0
H620 H 0.19196 0.64991 0.41501 0.0
H621 H 0.17178 0.68185 0.33663 0.0
H622 H 0.15778 0.58327 0.24424 0.0
H623 H 0.14639 0.61491 0.27867 0.0
C624 C 0.27094 0.80902 0.57915 0.0
C625 C 0.27397 0.79468 0.55555 0.0
C626 C 0.29251 0.813 0.59595 0.0
C627 C 0.35584 0.78205 0.61277 0.0
H628 H 0.3665 0.84509 0.65491 0.0
C629 C 0.44036 0.7877 0.68763 0.0
C630 C 0.43322 0.79654 0.71298 0.0
C631 C 0.42342 0.7915 0.66621 0.0
C632 C 0.3637 0.82735 0.6433 0.0
H633 H 0.30242 0.77474 0.53033 0.0
H634 H 0.34 0.782 0.55944 0.0
H635 H 0.33208 0.84454 0.62094 0.0
H636 H 0.40325 0.81759 0.73537 0.0
H637 H 0.3735 0.82383 0.69802 0.0
H638 H 0.38688 0.76458 0.63538 0.0
C639 C 0.32083 0.78962 0.56525 0.0
C640 C 0.34401 0.82703 0.62389 0.0
C641 C 0.29928 0.78552 0.54854 0.0
C642 C 0.40933 0.81045 0.71614 0.0
C643 C 0.39233 0.81417 0.69469 0.0
C644 C 0.37546 0.78238 0.63209 0.0
C645 C 0.31756 0.80284 0.58943 0.0
C646 C 0.3397 0.80425 0.60862 0.0
C647 C 0.39892 0.80415 0.66965 0.0
C648 C 0.37944 0.80491 0.64777 0.0
H649 H 0.25173 0.81639 0.58514 0.0
H650 H 0.28929 0.82307 0.61455 0.0
H651 H 0.35269 0.764 0.60175 0.0
H652 H 0.45878 0.77725 0.68437 0.0
H653 H 0.42926 0.78401 0.64704 0.0
C654 C 0.16989 0.26548 0.57977 0.0
C655 C 0.18191 0.26991 0.55512 0.0
C656 C 0.1658 0.28641 0.59731 0.0
C657 C 0.19483 0.35077 0.6125 0.0
H658 H 0.13626 0.35726 0.66158 0.0
C659 C 0.19305 0.43389 0.68868 0.0
C660 C 0.18695 0.42645 0.71473 0.0
C661 C 0.18796 0.41682 0.66769 0.0
C662 C 0.15277 0.35561 0.64804 0.0
H663 H 0.19702 0.30008 0.52867 0.0
H664 H 0.18949 0.33651 0.55904 0.0
H665 H 0.13482 0.32358 0.62693 0.0
H666 H 0.16954 0.3957 0.73898 0.0
H667 H 0.16117 0.36563 0.70229 0.0
H668 H 0.21317 0.38213 0.6338 0.0
C669 C 0.18391 0.31679 0.56513 0.0
C670 C 0.15193 0.33637 0.62822 0.0
C671 C 0.18815 0.2959 0.5477 0.0
C672 C 0.17454 0.40201 0.71916 0.0
C673 C 0.1696 0.38483 0.69812 0.0
C674 C 0.19566 0.3699 0.63223 0.0
C675 C 0.17351 0.31217 0.59045 0.0
C676 C 0.17307 0.33365 0.61036 0.0
C677 C 0.17683 0.39183 0.67223 0.0
C678 C 0.17476 0.37245 0.65035 0.0
H679 H 0.16479 0.2457 0.58607 0.0
H680 H 0.15788 0.28217 0.61673 0.0
H681 H 0.21172 0.34882 0.59948 0.0
H682 H 0.20222 0.45275 0.6845 0.0
H683 H 0.19324 0.42302 0.6479 0.0
C684 C 0.55637 0.1854 0.68862 0.0
C685 C 0.56011 0.17703 0.71482 0.0
C686 C 0.57449 0.17848 0.669 0.0
C687 C 0.64444 0.16245 0.66204 0.0
H688 H 0.62522 0.15084 0.58879 0.0
C689 C 0.72328 0.16153 0.58027 0.0
C690 C 0.71727 0.178 0.55872 0.0
C691 C 0.70362 0.15443 0.59832 0.0
C692 C 0.63088 0.15401 0.60918 0.0
H693 H 0.58508 0.15346 0.74061 0.0
H694 H 0.61663 0.14137 0.70628 0.0
H695 H 0.59089 0.15068 0.62276 0.0
H696 H 0.68553 0.19874 0.53854 0.0
H697 H 0.65151 0.18669 0.57014 0.0
H698 H 0.68422 0.16687 0.64846 0.0
C699 C 0.59985 0.1536 0.70105 0.0
C700 C 0.61125 0.15392 0.6286 0.0
C701 C 0.58171 0.16051 0.72069 0.0
C702 C 0.69094 0.18618 0.55499 0.0
C703 C 0.67133 0.17905 0.57299 0.0
C704 C 0.66405 0.16256 0.64264 0.0
C705 C 0.59674 0.163 0.67514 0.0
C706 C 0.61775 0.15889 0.65512 0.0
C707 C 0.67755 0.16355 0.59514 0.0
C708 C 0.65738 0.1591 0.61592 0.0
H709 H 0.53989 0.19802 0.68333 0.0
H710 H 0.57168 0.18629 0.64929 0.0
H711 H 0.65006 0.16667 0.68225 0.0
H712 H 0.74331 0.15468 0.58363 0.0
H713 H 0.70893 0.1422 0.61506 0.0
C714 C 0.78651 0.54949 0.69004 0.0
C715 C 0.79651 0.55572 0.71519 0.0
C716 C 0.79 0.56681 0.66893 0.0
C717 C 0.82696 0.62575 0.64617 0.0
H718 H 0.76293 0.63866 0.60597 0.0
C719 C 0.80978 0.71835 0.58147 0.0
C720 C 0.79531 0.71517 0.55796 0.0
C721 C 0.8134 0.69705 0.59864 0.0
C722 C 0.78113 0.635 0.61665 0.0
H723 H 0.81914 0.5845 0.73755 0.0
H724 H 0.82478 0.61495 0.70075 0.0
H725 H 0.76323 0.60448 0.63951 0.0
H726 H 0.77475 0.68673 0.53326 0.0
H727 H 0.78134 0.64968 0.56303 0.0
H728 H 0.84459 0.65688 0.62354 0.0
C729 C 0.8145 0.59652 0.69732 0.0
C730 C 0.78131 0.61537 0.6359 0.0
C731 C 0.81112 0.57912 0.71845 0.0
C732 C 0.78564 0.68999 0.5514 0.0
C733 C 0.78935 0.66875 0.56848 0.0
C734 C 0.82677 0.64547 0.62685 0.0
C735 C 0.80345 0.59081 0.6725 0.0
C736 C 0.80415 0.61062 0.65099 0.0
C737 C 0.80272 0.67218 0.59256 0.0
C738 C 0.80378 0.65038 0.61202 0.0
H739 H 0.7755 0.53145 0.68672 0.0
H740 H 0.78171 0.56162 0.64989 0.0
H741 H 0.84492 0.62236 0.65734 0.0
H742 H 0.81755 0.73746 0.58709 0.0
H743 H 0.82363 0.70035 0.61715 0.0
C744 C 0.408 0.26946 0.17016 0.0
C745 C 0.4324 0.27323 0.18297 0.0
C746 C 0.39072 0.29066 0.1664 0.0
C747 C 0.37473 0.35359 0.19761 0.0
H748 H 0.3279 0.36301 0.13766 0.0
C749 C 0.29729 0.43593 0.19729 0.0
C750 C 0.27168 0.42862 0.1893 0.0
C751 C 0.31879 0.41938 0.19241 0.0
C752 C 0.3408 0.36054 0.15457 0.0
H753 H 0.45867 0.30262 0.19994 0.0
H754 H 0.42865 0.33953 0.19311 0.0
H755 H 0.36279 0.32954 0.13583 0.0
H756 H 0.24876 0.39862 0.16896 0.0
H757 H 0.28625 0.36943 0.16101 0.0
H758 H 0.35246 0.38382 0.21675 0.0
C759 C 0.42263 0.32008 0.18656 0.0
C760 C 0.36076 0.34143 0.1535 0.0
C761 C 0.43984 0.29892 0.19041 0.0
C762 C 0.26822 0.40483 0.17543 0.0
C763 C 0.28975 0.38816 0.1707 0.0
C764 C 0.35482 0.37257 0.19871 0.0
C765 C 0.39756 0.31604 0.17528 0.0
C766 C 0.37776 0.33762 0.17513 0.0
C767 C 0.31518 0.39504 0.17961 0.0
C768 C 0.33746 0.37611 0.17733 0.0
H769 H 0.40169 0.24995 0.1641 0.0
H770 H 0.37147 0.2869 0.15778 0.0
H771 H 0.38713 0.35077 0.21484 0.0
H772 H 0.30073 0.45432 0.20766 0.0
H773 H 0.33822 0.42548 0.19906 0.0
C774 C 0.26737 0.57824 0.81762 0.0
C775 C 0.27131 0.55748 0.79959 0.0
C776 C 0.28781 0.59591 0.82324 0.0
C777 C 0.36021 0.60618 0.81674 0.0
H778 H 0.34083 0.68009 0.81217 0.0
C779 C 0.43376 0.68835 0.78953 0.0
C780 C 0.43069 0.7134 0.8011 0.0
C781 C 0.41572 0.6682 0.7949 0.0
C782 C 0.34657 0.65958 0.81406 0.0
H783 H 0.30026 0.53842 0.77421 0.0
H784 H 0.33564 0.56941 0.78376 0.0
H785 H 0.30641 0.6466 0.8118 0.0
H786 H 0.40702 0.73641 0.82856 0.0
H787 H 0.37569 0.70115 0.83798 0.0
H788 H 0.40049 0.61925 0.81813 0.0
C789 C 0.31685 0.57188 0.79375 0.0
C790 C 0.32682 0.64036 0.81384 0.0
C791 C 0.29644 0.55423 0.7881 0.0
C792 C 0.40985 0.71745 0.81907 0.0
C793 C 0.39182 0.69729 0.82443 0.0
C794 C 0.38 0.62542 0.81695 0.0
C795 C 0.31263 0.59317 0.81102 0.0
C796 C 0.33345 0.61345 0.81461 0.0
C797 C 0.39425 0.67263 0.81198 0.0
C798 C 0.37339 0.6523 0.81504 0.0
H799 H 0.24833 0.58122 0.827 0.0
H800 H 0.28408 0.61196 0.83689 0.0
H801 H 0.36589 0.58559 0.81776 0.0
H802 H 0.44962 0.68447 0.77567 0.0
H803 H 0.41798 0.6495 0.78476 0.0
C804 C 0.2718 0.40511 0.8126 0.0
C805 C 0.27502 0.4292 0.79921 0.0
C806 C 0.2934 0.38833 0.8165 0.0
C807 C 0.35666 0.3728 0.78527 0.0
H808 H 0.36734 0.328 0.84644 0.0
C809 C 0.43992 0.29626 0.78671 0.0
C810 C 0.43262 0.27088 0.79522 0.0
C811 C 0.42339 0.31782 0.79139 0.0
C812 C 0.36454 0.34035 0.82921 0.0
H813 H 0.30382 0.45544 0.78119 0.0
H814 H 0.3414 0.42631 0.78825 0.0
H815 H 0.33315 0.36219 0.84752 0.0
H816 H 0.40273 0.24848 0.81636 0.0
H817 H 0.37366 0.28601 0.82397 0.0
H818 H 0.38728 0.35063 0.76657 0.0
C819 C 0.32209 0.42012 0.79518 0.0
C820 C 0.34501 0.3599 0.82984 0.0
C821 C 0.30054 0.43682 0.79118 0.0
C822 C 0.40894 0.26775 0.80947 0.0
C823 C 0.39234 0.28931 0.81401 0.0
C824 C 0.37608 0.3533 0.78462 0.0
C825 C 0.31863 0.39538 0.80717 0.0
C826 C 0.34069 0.37612 0.80774 0.0
C827 C 0.39913 0.31448 0.80453 0.0
C828 C 0.38004 0.33663 0.80643 0.0
H829 H 0.25242 0.39869 0.81911 0.0
H830 H 0.29008 0.3693 0.82566 0.0
H831 H 0.35349 0.38461 0.76772 0.0
H832 H 0.4582 0.29946 0.77601 0.0
H833 H 0.4294 0.33707 0.78427 0.0
C834 C 0.72235 0.39908 0.81015 0.0
C835 C 0.71726 0.42598 0.80603 0.0
C836 C 0.70157 0.38158 0.81484 0.0
C837 C 0.65562 0.34728 0.83056 0.0
H838 H 0.59211 0.36176 0.7902 0.0
C839 C 0.57222 0.26988 0.82065 0.0
C840 C 0.56036 0.26793 0.79563 0.0
C841 C 0.58887 0.2911 0.82664 0.0
C842 C 0.60978 0.35726 0.80144 0.0
H843 H 0.68686 0.45614 0.80566 0.0
H844 H 0.65066 0.42588 0.81531 0.0
H845 H 0.62649 0.39479 0.79264 0.0
H846 H 0.55671 0.28652 0.75723 0.0
H847 H 0.58649 0.32264 0.76711 0.0
H848 H 0.63977 0.30882 0.83738 0.0
C849 C 0.6705 0.41797 0.81372 0.0
C850 C 0.62939 0.37651 0.80331 0.0
C851 C 0.69124 0.43537 0.80837 0.0
C852 C 0.56535 0.28761 0.77678 0.0
C853 C 0.5823 0.3085 0.78258 0.0
C854 C 0.63622 0.32779 0.82821 0.0
C855 C 0.67526 0.39069 0.81611 0.0
C856 C 0.6529 0.37157 0.81736 0.0
C857 C 0.59431 0.31057 0.80757 0.0
C858 C 0.61336 0.33229 0.81301 0.0
H859 H 0.74225 0.39131 0.80831 0.0
H860 H 0.70614 0.36074 0.81613 0.0
H861 H 0.67312 0.34294 0.84211 0.0
H862 H 0.56851 0.2551 0.83566 0.0
H863 H 0.59742 0.29221 0.84622 0.0
C864 C 0.69111 0.54842 0.80416 0.0
C865 C 0.71757 0.55622 0.8076 0.0
C866 C 0.67051 0.56593 0.80946 0.0
C867 C 0.65307 0.63042 0.83954 0.0
H868 H 0.60273 0.63275 0.78178 0.0
C869 C 0.58544 0.71991 0.81675 0.0
C870 C 0.56043 0.71489 0.80566 0.0
C871 C 0.60283 0.69912 0.82209 0.0
C872 C 0.61623 0.6321 0.79839 0.0
H873 H 0.74311 0.58796 0.82093 0.0
H874 H 0.70703 0.61882 0.82966 0.0
H875 H 0.63637 0.59873 0.78245 0.0
H876 H 0.53324 0.68406 0.79348 0.0
H877 H 0.5633 0.64788 0.80329 0.0
H878 H 0.63306 0.6644 0.85506 0.0
C879 C 0.70225 0.59903 0.82313 0.0
C880 C 0.63557 0.61255 0.79876 0.0
C881 C 0.72292 0.58139 0.818 0.0
C882 C 0.55257 0.68862 0.80155 0.0
C883 C 0.56982 0.66788 0.80712 0.0
C884 C 0.63358 0.65007 0.83919 0.0
C885 C 0.67589 0.59172 0.8181 0.0
C886 C 0.65433 0.61156 0.81921 0.0
C887 C 0.59545 0.67293 0.81663 0.0
C888 C 0.61507 0.6512 0.81847 0.0
H889 H 0.68629 0.52898 0.79665 0.0
H890 H 0.65036 0.55953 0.80598 0.0
H891 H 0.66718 0.63005 0.85564 0.0
H892 H 0.59205 0.73995 0.82019 0.0
H893 H 0.6225 0.70369 0.82925 0.0
C894 C 0.55095 0.69034 0.18928 0.0
C895 C 0.55875 0.71634 0.18361 0.0
C896 C 0.56776 0.66923 0.18377 0.0
C897 C 0.6294 0.64954 0.14884 0.0
H898 H 0.63475 0.59992 0.2069 0.0
C899 C 0.71923 0.58102 0.16756 0.0
C900 C 0.71438 0.55618 0.17896 0.0
C901 C 0.69836 0.59854 0.16291 0.0
C902 C 0.6332 0.61325 0.19024 0.0
H903 H 0.58977 0.74049 0.16651 0.0
H904 H 0.6195 0.70359 0.15754 0.0
H905 H 0.60161 0.63443 0.20839 0.0
H906 H 0.68362 0.52939 0.19226 0.0
H907 H 0.64733 0.55978 0.18383 0.0
H908 H 0.66179 0.62858 0.1312 0.0
C909 C 0.6002 0.69951 0.16588 0.0
C910 C 0.61415 0.63308 0.19109 0.0
C911 C 0.58323 0.72067 0.17116 0.0
C912 C 0.6881 0.54856 0.18391 0.0
C913 C 0.66729 0.56598 0.17913 0.0
C914 C 0.6486 0.62963 0.14802 0.0
C915 C 0.59289 0.67362 0.17273 0.0
C916 C 0.61212 0.65159 0.17053 0.0
C917 C 0.67228 0.59148 0.16946 0.0
C918 C 0.65079 0.6114 0.16884 0.0
H919 H 0.53199 0.68629 0.19842 0.0
H920 H 0.56127 0.64946 0.18871 0.0
H921 H 0.62816 0.66337 0.13258 0.0
H922 H 0.73923 0.58748 0.16343 0.0
H923 H 0.70285 0.61811 0.15555 0.0
C924 C 0.43983 0.68894 0.18766 0.0
C925 C 0.42993 0.71482 0.18795 0.0
C926 C 0.42301 0.66767 0.18257 0.0
C927 C 0.38146 0.62599 0.19099 0.0
H928 H 0.31626 0.63443 0.1516 0.0
C929 C 0.29162 0.5608 0.21151 0.0
C930 C 0.2731 0.55576 0.19149 0.0
C931 C 0.31289 0.57768 0.20698 0.0
C932 C 0.33457 0.63138 0.16227 0.0
H933 H 0.39487 0.73889 0.18277 0.0
H934 H 0.36526 0.70196 0.17541 0.0
H935 H 0.35005 0.66824 0.14894 0.0
H936 H 0.26282 0.56356 0.15067 0.0
H937 H 0.3007 0.59224 0.1423 0.0
H938 H 0.36649 0.58866 0.20344 0.0
C939 C 0.38612 0.69787 0.17803 0.0
C940 C 0.35383 0.65109 0.16113 0.0
C941 C 0.40306 0.71913 0.18249 0.0
C942 C 0.27669 0.56734 0.16655 0.0
C943 C 0.29834 0.58387 0.16182 0.0
C944 C 0.36249 0.60602 0.19164 0.0
C945 C 0.39577 0.67179 0.17833 0.0
C946 C 0.37713 0.64911 0.17623 0.0
C947 C 0.31653 0.58955 0.18211 0.0
C948 C 0.33835 0.60888 0.1781 0.0
H949 H 0.46059 0.68513 0.19147 0.0
H950 H 0.43135 0.64799 0.18233 0.0
H951 H 0.39899 0.62366 0.20305 0.0
H952 H 0.28924 0.55236 0.23103 0.0
H953 H 0.32598 0.58202 0.22334 0.0
C954 C 0.55876 0.29342 0.19028 0.0
C955 C 0.56239 0.26746 0.18115 0.0
C956 C 0.5769 0.31314 0.18382 0.0
C957 C 0.64659 0.32117 0.16722 0.0
H958 H 0.62613 0.39394 0.15501 0.0
C959 C 0.72424 0.40396 0.16345 0.0
C960 C 0.71824 0.42584 0.17948 0.0
C961 C 0.70472 0.38547 0.15719 0.0
C962 C 0.63214 0.37369 0.15838 0.0
H963 H 0.58742 0.24218 0.15711 0.0
H964 H 0.61908 0.27671 0.1459 0.0
H965 H 0.59231 0.35952 0.15576 0.0
H966 H 0.68661 0.4461 0.20033 0.0
H967 H 0.65283 0.41376 0.18973 0.0
H968 H 0.68623 0.33535 0.17091 0.0
C969 C 0.60229 0.28165 0.15826 0.0
C970 C 0.6128 0.35402 0.15881 0.0
C971 C 0.58409 0.26191 0.16463 0.0
C972 C 0.69202 0.42943 0.18807 0.0
C973 C 0.67254 0.41098 0.18178 0.0
C974 C 0.66591 0.34083 0.16685 0.0
C975 C 0.59909 0.30737 0.16813 0.0
C976 C 0.61976 0.32766 0.16391 0.0
C977 C 0.67879 0.38852 0.16674 0.0
C978 C 0.65881 0.36739 0.16312 0.0
H979 H 0.54222 0.29845 0.20292 0.0
H980 H 0.57406 0.3327 0.192 0.0
H981 H 0.65255 0.30108 0.17151 0.0
H982 H 0.74418 0.40067 0.15632 0.0
H983 H 0.71004 0.36851 0.14528 0.0
C984 C 0.1975 0.89249 0.4711 0.0
C985 C 0.19541 0.87838 0.49493 0.0
C986 C 0.19853 0.91998 0.4712 0.0
C987 C 0.21205 0.97765 0.5135 0.0
H988 H 0.16923 0.01444 0.46165 0.0
C989 C 0.19224 0.08997 0.51729 0.0
C990 C 0.19291 0.1037 0.49314 0.0
C991 C 0.19372 0.06246 0.51777 0.0
C992 C 0.18154 0.00446 0.47604 0.0
H993 H 0.19331 0.8822 0.53761 0.0
H994 H 0.19482 0.93028 0.53768 0.0
H995 H 0.16987 0.96641 0.46207 0.0
H996 H 0.1962 0.09917 0.45059 0.0
H997 H 0.19893 0.05126 0.45153 0.0
H998 H 0.22355 0.01583 0.52755 0.0
C999 C 0.19592 0.91997 0.51896 0.0
C1000 C 0.18191 0.97696 0.47629 0.0
C1001 C 0.19491 0.89242 0.51889 0.0
C1002 C 0.19545 0.08928 0.46954 0.0
C1003 C 0.19689 0.0618 0.47004 0.0
C1004 C 0.21165 0.00522 0.51327 0.0
C1005 C 0.19745 0.93402 0.49509 0.0
C1006 C 0.19722 0.96325 0.49496 0.0
C1007 C 0.19585 0.0481 0.49413 0.0
C1008 C 0.19643 0.01888 0.49449 0.0
H1009 H 0.19818 0.88234 0.45228 0.0
H1010 H 0.20018 0.93025 0.45251 0.0
H1011 H 0.22425 0.96762 0.52795 0.0
H1012 H 0.19032 0.10043 0.53586 0.0
H1013 H 0.19261 0.0524 0.53662 0.0
C1014 C 0.09001 0.19293 0.51221 0.0
C1015 C 0.10487 0.19062 0.48884 0.0
C1016 C 0.06254 0.19543 0.51117 0.0
C1017 C 0.00547 0.18174 0.46854 0.0
H1018 H 0.96926 0.23037 0.51543 0.0
C1019 C 0.89278 0.1973 0.46391 0.0
C1020 C 0.87951 0.19699 0.48833 0.0
C1021 C 0.92033 0.19886 0.46295 0.0
C1022 C 0.97911 0.21661 0.50234 0.0
H1023 H 0.10241 0.1893 0.44601 0.0
H1024 H 0.05448 0.19381 0.44429 0.0
H1025 H 0.01752 0.22837 0.51567 0.0
H1026 H 0.88483 0.19883 0.53088 0.0
H1027 H 0.93286 0.2013 0.52912 0.0
H1028 H 0.9671 0.16972 0.45545 0.0
C1029 C 0.06412 0.1934 0.4634 0.0
C1030 C 0.0067 0.21544 0.50249 0.0
C1031 C 0.0916 0.19091 0.46441 0.0
C1032 C 0.89438 0.19897 0.51173 0.0
C1033 C 0.92192 0.20056 0.51074 0.0
C1034 C 0.9779 0.18291 0.46839 0.0
C1035 C 0.04933 0.19568 0.48677 0.0
C1036 C 0.02014 0.19781 0.48577 0.0
C1037 C 0.93517 0.20022 0.48636 0.0
C1038 C 0.96444 0.20017 0.48546 0.0
H1039 H 0.09954 0.19275 0.53137 0.0
H1040 H 0.05161 0.19677 0.52953 0.0
H1041 H 0.01528 0.16771 0.45569 0.0
H1042 H 0.88196 0.19598 0.44549 0.0
H1043 H 0.93002 0.19891 0.44387 0.0
C1044 C 0.79771 0.0911 0.4674 0.0
C1045 C 0.79837 0.10527 0.49128 0.0
C1046 C 0.7977 0.06358 0.46752 0.0
C1047 C 0.78242 0.00654 0.50953 0.0
H1048 H 0.82756 0.96859 0.46054 0.0
C1049 C 0.79958 0.89448 0.51667 0.0
C1050 C 0.79942 0.88017 0.49287 0.0
C1051 C 0.79935 0.922 0.5164 0.0
C1052 C 0.81464 0.97892 0.47413 0.0
H1053 H 0.7995 0.10155 0.53403 0.0
H1054 H 0.79968 0.05353 0.53412 0.0
H1055 H 0.82723 0.01672 0.46014 0.0
H1056 H 0.79879 0.88365 0.45009 0.0
H1057 H 0.79815 0.93166 0.44972 0.0
H1058 H 0.76981 0.96876 0.52351 0.0
C1059 C 0.7989 0.06377 0.51536 0.0
C1060 C 0.81446 0.00644 0.4739 0.0
C1061 C 0.79895 0.09129 0.51526 0.0
C1062 C 0.79902 0.89402 0.4688 0.0
C1063 C 0.79879 0.92154 0.46855 0.0
C1064 C 0.78259 0.97903 0.50974 0.0
C1065 C 0.7983 0.04967 0.49149 0.0
C1066 C 0.79837 0.0205 0.49162 0.0
C1067 C 0.79895 0.93578 0.49234 0.0
C1068 C 0.79872 0.96496 0.49206 0.0
H1069 H 0.79717 0.10122 0.44856 0.0
H1070 H 0.79692 0.05318 0.44884 0.0
H1071 H 0.76954 0.0169 0.52315 0.0
H1072 H 0.79995 0.88447 0.53557 0.0
H1073 H 0.79981 0.93249 0.53504 0.0
C1074 C 0.09302 0.79126 0.51974 0.0
C1075 C 0.10655 0.79273 0.49551 0.0
C1076 C 0.06548 0.78927 0.52033 0.0
C1077 C 0.00809 0.77064 0.4795 0.0
H1078 H 0.96884 0.81408 0.52897 0.0
C1079 C 0.89564 0.78795 0.47159 0.0
C1080 C 0.88095 0.78867 0.49518 0.0
C1081 C 0.9232 0.78639 0.47228 0.0
C1082 C 0.97953 0.80154 0.5153 0.0
H1083 H 0.10165 0.79321 0.45287 0.0
H1084 H 0.05363 0.79004 0.45399 0.0
H1085 H 0.01703 0.81547 0.52902 0.0
H1086 H 0.88376 0.78749 0.53799 0.0
H1087 H 0.93182 0.78456 0.53909 0.0
H1088 H 0.97053 0.75693 0.46561 0.0
C1089 C 0.06439 0.79009 0.4725 0.0
C1090 C 0.00712 0.80235 0.51532 0.0
C1091 C 0.09191 0.7921 0.47189 0.0
C1092 C 0.89443 0.78717 0.51944 0.0
C1093 C 0.92198 0.78561 0.5201 0.0
C1094 C 0.98048 0.76983 0.47948 0.0
C1095 C 0.0509 0.78868 0.49672 0.0
C1096 C 0.02166 0.78706 0.4973 0.0
C1097 C 0.93665 0.7855 0.49655 0.0
C1098 C 0.96593 0.78541 0.49727 0.0
H1099 H 0.10365 0.79157 0.53831 0.0
H1100 H 0.05562 0.78793 0.53928 0.0
H1101 H 0.01881 0.75833 0.46566 0.0
H1102 H 0.88592 0.78905 0.45256 0.0
H1103 H 0.934 0.7866 0.4538 0.0
C1104 C 0.46939 0.19473 0.89264 0.0
C1105 C 0.49338 0.19368 0.87859 0.0
C1106 C 0.46938 0.19592 0.92019 0.0
C1107 C 0.51089 0.17938 0.97727 0.0
H1108 H 0.46253 0.22466 0.01585 0.0
C1109 C 0.5174 0.19211 0.08986 0.0
C1110 C 0.49344 0.19169 0.10397 0.0
C1111 C 0.51738 0.19348 0.06235 0.0
C1112 C 0.47597 0.21174 0.00532 0.0
H1113 H 0.5362 0.19385 0.88255 0.0
H1114 H 0.53609 0.19612 0.93052 0.0
H1115 H 0.46249 0.22535 0.96761 0.0
H1116 H 0.45063 0.19263 0.10014 0.0
H1117 H 0.45067 0.19471 0.05209 0.0
H1118 H 0.52426 0.16561 0.01487 0.0
C1119 C 0.51731 0.1956 0.92021 0.0
C1120 C 0.47595 0.21215 0.97775 0.0
C1121 C 0.51734 0.19442 0.8927 0.0
C1122 C 0.46946 0.19292 0.08993 0.0
C1123 C 0.46945 0.19428 0.06239 0.0
C1124 C 0.51089 0.17896 0.0048 0.0
C1125 C 0.49335 0.19608 0.93424 0.0
C1126 C 0.49343 0.19597 0.96347 0.0
C1127 C 0.49341 0.19444 0.04834 0.0
C1128 C 0.49345 0.19513 0.01911 0.0
H1129 H 0.45056 0.19422 0.88241 0.0
H1130 H 0.4506 0.19605 0.93051 0.0
H1131 H 0.52425 0.16634 0.96679 0.0
H1132 H 0.53626 0.19136 0.10002 0.0
H1133 H 0.53616 0.19395 0.05206 0.0
C1134 C 0.80033 0.51445 0.89419 0.0
C1135 C 0.80045 0.49052 0.88011 0.0
C1136 C 0.8 0.51445 0.92172 0.0
C1137 C 0.81586 0.47336 0.97918 0.0
H1138 H 0.76949 0.52181 0.01634 0.0
C1139 C 0.7996 0.46831 0.09159 0.0
C1140 C 0.79934 0.49244 0.10532 0.0
C1141 C 0.79953 0.46791 0.06405 0.0
C1142 C 0.78273 0.50837 0.00623 0.0
H1143 H 0.8003 0.44781 0.88399 0.0
H1144 H 0.79957 0.44793 0.93208 0.0
H1145 H 0.76976 0.52136 0.96818 0.0
H1146 H 0.79882 0.53508 0.10082 0.0
H1147 H 0.79896 0.53429 0.05277 0.0
H1148 H 0.8289 0.46043 0.01722 0.0
C1149 C 0.79999 0.46664 0.92174 0.0
C1150 C 0.78288 0.5081 0.97869 0.0
C1151 C 0.80028 0.4666 0.8942 0.0
C1152 C 0.79896 0.51614 0.09089 0.0
C1153 C 0.79889 0.51572 0.06336 0.0
C1154 C 0.81573 0.47364 0.00672 0.0
C1155 C 0.79982 0.49056 0.93574 0.0
C1156 C 0.79948 0.49063 0.96492 0.0
C1157 C 0.79919 0.4916 0.04968 0.0
C1158 C 0.7992 0.49117 0.0205 0.0
H1159 H 0.8005 0.53324 0.884 0.0
H1160 H 0.8002 0.53318 0.93204 0.0
H1161 H 0.82912 0.45994 0.96905 0.0
H1162 H 0.79979 0.44967 0.10206 0.0
H1163 H 0.79943 0.44903 0.05401 0.0
C1164 C 0.46695 0.79259 0.09242 0.0
C1165 C 0.49117 0.79333 0.10609 0.0
C1166 C 0.46649 0.79189 0.06486 0.0
C1167 C 0.5073 0.8088 0.00732 0.0
H1168 H 0.45899 0.76326 0.96901 0.0
C1169 C 0.51568 0.79321 0.89548 0.0
C1170 C 0.49208 0.79377 0.88077 0.0
C1171 C 0.51495 0.7926 0.92299 0.0
C1172 C 0.47239 0.77627 0.97948 0.0
H1173 H 0.53392 0.79322 0.10145 0.0
H1174 H 0.53304 0.79176 0.05348 0.0
H1175 H 0.45886 0.76297 0.01728 0.0
H1176 H 0.44918 0.79374 0.88351 0.0
H1177 H 0.448 0.79286 0.93165 0.0
H1178 H 0.52086 0.82211 0.96964 0.0
C1179 C 0.51442 0.79217 0.06409 0.0
C1180 C 0.47231 0.7761 0.00706 0.0
C1181 C 0.5149 0.79286 0.0916 0.0
C1182 C 0.46773 0.79335 0.89422 0.0
C1183 C 0.46702 0.7927 0.92178 0.0
C1184 C 0.50738 0.80896 0.97981 0.0
C1185 C 0.49023 0.79193 0.05044 0.0
C1186 C 0.48989 0.79226 0.02123 0.0
C1187 C 0.49064 0.79251 0.93641 0.0
C1188 C 0.49005 0.79259 0.96561 0.0
H1189 H 0.44829 0.79291 0.10295 0.0
H1190 H 0.44756 0.79192 0.05483 0.0
H1191 H 0.5207 0.82185 0.01773 0.0
H1192 H 0.53479 0.79336 0.88581 0.0
H1193 H 0.53346 0.79205 0.93376 0.0
C1194 C 0.19709 0.51525 0.89388 0.0
C1195 C 0.1957 0.49123 0.88002 0.0
C1196 C 0.1988 0.51548 0.92138 0.0
C1197 C 0.21589 0.47406 0.97887 0.0
H1198 H 0.1723 0.5242 0.01707 0.0
C1199 C 0.19784 0.46816 0.09142 0.0
C1200 C 0.19743 0.49205 0.10557 0.0
C1201 C 0.19936 0.46821 0.06388 0.0
C1202 C 0.18485 0.51031 0.00669 0.0
H1203 H 0.19534 0.44858 0.88432 0.0
H1204 H 0.19799 0.44907 0.93234 0.0
H1205 H 0.17166 0.524 0.96899 0.0
H1206 H 0.1991 0.53474 0.10178 0.0
H1207 H 0.20194 0.53472 0.05382 0.0
H1208 H 0.22887 0.46023 0.01668 0.0
C1209 C 0.19807 0.4677 0.92186 0.0
C1210 C 0.18449 0.5102 0.97915 0.0
C1211 C 0.19639 0.46745 0.89433 0.0
C1212 C 0.19916 0.51596 0.09156 0.0
C1213 C 0.20067 0.51598 0.06404 0.0
C1214 C 0.21624 0.47416 0.00646 0.0
C1215 C 0.19913 0.49173 0.93567 0.0
C1216 C 0.19997 0.49205 0.96493 0.0
C1217 C 0.2005 0.49213 0.0499 0.0
C1218 C 0.20068 0.49227 0.02064 0.0
H1219 H 0.19681 0.53395 0.88352 0.0
H1220 H 0.19998 0.53431 0.93146 0.0
H1221 H 0.22829 0.46006 0.96844 0.0
H1222 H 0.19656 0.44938 0.10155 0.0
H1223 H 0.19895 0.44952 0.0535 0.0
C1224 C 0.09179 0.47121 0.19054 0.0
C1225 C 0.10651 0.49473 0.18929 0.0
C1226 C 0.06427 0.47198 0.19256 0.0
C1227 C 0.00694 0.51462 0.17974 0.0
H1228 H 0.97094 0.46691 0.22767 0.0
C1229 C 0.89446 0.51984 0.19672 0.0
C1230 C 0.88094 0.49558 0.19636 0.0
C1231 C 0.92205 0.5205 0.19782 0.0
C1232 C 0.98072 0.48022 0.21407 0.0
H1233 H 0.10372 0.53753 0.18914 0.0
H1234 H 0.05571 0.53877 0.19276 0.0
H1235 H 0.01917 0.4665 0.22527 0.0
H1236 H 0.88589 0.453 0.19757 0.0
H1237 H 0.93395 0.45423 0.19921 0.0
H1238 H 0.96853 0.52814 0.16831 0.0
C1239 C 0.06551 0.51976 0.19195 0.0
C1240 C 0.00829 0.47996 0.21268 0.0
C1241 C 0.09303 0.51902 0.18997 0.0
C1242 C 0.89562 0.47204 0.19779 0.0
C1243 C 0.92319 0.47273 0.19889 0.0
C1244 C 0.97937 0.51486 0.18111 0.0
C1245 C 0.05086 0.49626 0.19333 0.0
C1246 C 0.02166 0.49704 0.19536 0.0
C1247 C 0.93669 0.49695 0.19861 0.0
C1248 C 0.96598 0.49754 0.19816 0.0
H1249 H 0.10149 0.45215 0.19004 0.0
H1250 H 0.05345 0.45354 0.19322 0.0
H1251 H 0.0167 0.52776 0.16596 0.0
H1252 H 0.88379 0.53836 0.19581 0.0
H1253 H 0.93192 0.53947 0.19796 0.0
C1254 C 0.89653 0.51381 0.78783 0.0
C1255 C 0.88188 0.49023 0.78841 0.0
C1256 C 0.9241 0.51314 0.78628 0.0
C1257 C 0.98034 0.47002 0.80146 0.0
H1258 H 0.0199 0.51938 0.75828 0.0
C1259 C 0.09382 0.46495 0.79168 0.0
C1260 C 0.10744 0.4891 0.79316 0.0
C1261 C 0.06629 0.46449 0.78947 0.0
C1262 C 0.0091 0.50561 0.77058 0.0
H1263 H 0.88476 0.44745 0.78693 0.0
H1264 H 0.93278 0.4464 0.78405 0.0
H1265 H 0.97161 0.51975 0.75686 0.0
H1266 H 0.1027 0.53173 0.7934 0.0
H1267 H 0.05473 0.53083 0.7899 0.0
H1268 H 0.01774 0.45608 0.81543 0.0
C1269 C 0.92293 0.46537 0.78521 0.0
C1270 C 0.98149 0.50582 0.76976 0.0
C1271 C 0.89539 0.46601 0.78674 0.0
C1272 C 0.0929 0.51276 0.79228 0.0
C1273 C 0.0654 0.51228 0.79007 0.0
C1274 C 0.00792 0.46982 0.80229 0.0
C1275 C 0.93757 0.4889 0.78529 0.0
C1276 C 0.96685 0.48812 0.78531 0.0
C1277 C 0.05181 0.48815 0.7887 0.0
C1278 C 0.02257 0.48773 0.787 0.0
H1279 H 0.88677 0.53281 0.78905 0.0
H1280 H 0.9349 0.5316 0.78662 0.0
H1281 H 0.96956 0.45642 0.81398 0.0
H1282 H 0.10438 0.44635 0.79216 0.0
H1283 H 0.05635 0.44559 0.78816 0.0
C1284 C 0.46895 0.09035 0.79312 0.0
C1285 C 0.49312 0.10404 0.79445 0.0
C1286 C 0.46858 0.06285 0.79182 0.0
C1287 C 0.51007 0.00548 0.77494 0.0
H1288 H 0.45981 0.967 0.81815 0.0
C1289 C 0.51715 0.89341 0.79287 0.0
C1290 C 0.49342 0.87893 0.79263 0.0
C1291 C 0.51669 0.92091 0.79167 0.0
C1292 C 0.47373 0.97748 0.80572 0.0
H1293 H 0.53586 0.09946 0.79545 0.0
H1294 H 0.53511 0.0515 0.79352 0.0
H1295 H 0.45977 0.01509 0.8189 0.0
H1296 H 0.45058 0.88207 0.79042 0.0
H1297 H 0.4499 0.93005 0.78817 0.0
H1298 H 0.52418 0.96782 0.76197 0.0
C1299 C 0.51649 0.0621 0.79311 0.0
C1300 C 0.4737 0.005 0.80614 0.0
C1301 C 0.51689 0.08959 0.7944 0.0
C1302 C 0.46924 0.89258 0.79078 0.0
C1303 C 0.46881 0.92008 0.78962 0.0
C1304 C 0.51011 0.97795 0.77454 0.0
C1305 C 0.49234 0.04845 0.79184 0.0
C1306 C 0.49195 0.01927 0.79086 0.0
C1307 C 0.49251 0.93451 0.79023 0.0
C1308 C 0.49201 0.96369 0.79001 0.0
H1309 H 0.45027 0.10083 0.79298 0.0
H1310 H 0.44967 0.05286 0.79054 0.0
H1311 H 0.5241 0.01598 0.76264 0.0
H1312 H 0.53613 0.88356 0.79426 0.0
H1313 H 0.53526 0.93155 0.79245 0.0
C1314 C 0.51549 0.89539 0.19341 0.0
C1315 C 0.49194 0.88066 0.19236 0.0
C1316 C 0.51465 0.92288 0.1949 0.0
C1317 C 0.47168 0.97931 0.17994 0.0
H1318 H 0.51956 0.01737 0.22613 0.0
C1319 C 0.46651 0.09223 0.19277 0.0
C1320 C 0.49086 0.10564 0.19212 0.0
C1321 C 0.4658 0.06474 0.19447 0.0
C1322 C 0.5062 0.007 0.21301 0.0
H1323 H 0.44901 0.88335 0.19238 0.0
H1324 H 0.44766 0.93125 0.1951 0.0
H1325 H 0.52005 0.96921 0.22588 0.0
H1326 H 0.53357 0.1006 0.19306 0.0
H1327 H 0.53224 0.05275 0.19573 0.0
H1328 H 0.45804 0.01705 0.16683 0.0
C1329 C 0.46673 0.92151 0.19447 0.0
C1330 C 0.5065 0.97947 0.21285 0.0
C1331 C 0.46755 0.89405 0.19302 0.0
C1332 C 0.51445 0.09096 0.19352 0.0
C1333 C 0.51371 0.06352 0.19524 0.0
C1334 C 0.4714 0.00683 0.18008 0.0
C1335 C 0.49026 0.9362 0.19533 0.0
C1336 C 0.48938 0.96537 0.19618 0.0
C1337 C 0.4894 0.05012 0.1956 0.0
C1338 C 0.4888 0.02094 0.19646 0.0
H1339 H 0.53461 0.88574 0.19294 0.0
H1340 H 0.53311 0.93373 0.19522 0.0
H1341 H 0.4585 0.96895 0.16662 0.0
H1342 H 0.44797 0.10291 0.19186 0.0
H1343 H 0.44677 0.05493 0.19501 0.0
loop_
_geom_bond_atom_site_label_1
_geom_bond_atom_site_label_2
_geom_bond_distance
_geom_bond_site_symmetry_2
_ccdc_geom_bond_type
Sc0 O3 2.025 . S
Sc0 O10 2.105 . S
Sc0 O13 2.105 . S
Sc0 O16 2.105 . S
Sc0 O19 2.105 . S
Sc1 O3 2.025 . S
Sc1 O11 2.105 . S
Sc1 O15 2.105 . S
Sc1 O17 2.105 . S
Sc1 O21 2.105 . S
Sc2 O3 2.025 . S
Sc2 O12 2.105 . S
Sc2 O14 2.105 . S
Sc2 O18 2.105 . S
Sc2 O20 2.105 . S
O3 Sc0 2.025 . S
O3 Sc1 2.025 . S
O3 Sc2 2.025 . S
C4 O10 1.268 . S
C4 O20 1.268 . S
C5 O11 1.268 . S
C5 O19 1.268 . S
C6 O12 1.268 . S
C6 O21 1.268 . S
C7 O13 1.268 . S
C7 O17 1.268 . S
C8 O14 1.268 . S
C8 O16 1.268 . S
C9 O15 1.268 . S
C9 O18 1.268 . S
O10 Sc0 2.105 . S
O10 C4 1.268 . S
O11 Sc1 2.105 . S
O11 C5 1.268 . S
O12 Sc2 2.105 . S
O12 C6 1.268 . S
O13 Sc0 2.105 . S
O13 C7 1.268 . S
O14 Sc2 2.105 . S
O14 C8 1.268 . S
O15 Sc1 2.105 . S
O15 C9 1.268 . S
O16 Sc0 2.105 . S
O16 C8 1.268 . S
O17 Sc1 2.105 . S
O17 C7 1.268 . S
O18 Sc2 2.105 . S
O18 C9 1.268 . S
O19 Sc0 2.105 . S
O19 C5 1.268 . S
O20 Sc2 2.105 . S
O20 C4 1.268 . S
O21 Sc1 2.105 . S
O21 C6 1.268 . S
Sc22 O25 2.025 . S
Sc22 O32 2.105 . S
Sc22 O35 2.105 . S
Sc22 O38 2.105 . S
Sc22 O41 2.105 . S
Sc23 O25 2.025 . S
Sc23 O33 2.105 . S
Sc23 O37 2.105 . S
Sc23 O39 2.105 . S
Sc23 O43 2.105 . S
Sc24 O25 2.025 . S
Sc24 O34 2.105 . S
Sc24 O36 2.105 . S
Sc24 O40 2.105 . S
Sc24 O42 2.105 . S
O25 Sc22 2.025 . S
O25 Sc23 2.025 . S
O25 Sc24 2.025 . S
C26 O32 1.268 . S
C26 O42 1.268 . S
C27 O33 1.268 . S
C27 O41 1.268 . S
C28 O34 1.268 . S
C28 O43 1.268 . S
C29 O35 1.268 . S
C29 O39 1.268 . S
C30 O36 1.268 . S
C30 O38 1.268 . S
C31 O37 1.268 . S
C31 O40 1.268 . S
O32 Sc22 2.105 . S
O32 C26 1.268 . S
O33 Sc23 2.105 . S
O33 C27 1.268 . S
O34 Sc24 2.105 . S
O34 C28 1.268 . S
O35 Sc22 2.105 . S
O35 C29 1.268 . S
O36 Sc24 2.105 . S
O36 C30 1.268 . S
O37 Sc23 2.105 . S
O37 C31 1.268 . S
O38 Sc22 2.105 . S
O38 C30 1.268 . S
O39 Sc23 2.105 . S
O39 C29 1.268 . S
O40 Sc24 2.105 . S
O40 C31 1.268 . S
O41 Sc22 2.105 . S
O41 C27 1.268 . S
O42 Sc24 2.105 . S
O42 C26 1.268 . S
O43 Sc23 2.105 . S
O43 C28 1.268 . S
Sc44 O47 2.025 . S
Sc44 O54 2.105 . S
Sc44 O57 2.105 . S
Sc44 O60 2.105 . S
Sc44 O63 2.105 . S
Sc45 O47 2.025 . S
Sc45 O55 2.105 . S
Sc45 O59 2.105 . S
Sc45 O61 2.105 . S
Sc45 O65 2.105 . S
Sc46 O47 2.025 . S
Sc46 O56 2.105 . S
Sc46 O58 2.105 . S
Sc46 O62 2.105 . S
Sc46 O64 2.105 . S
O47 Sc44 2.025 . S
O47 Sc45 2.025 . S
O47 Sc46 2.025 . S
C48 O54 1.268 . S
C48 O64 1.268 . S
C49 O55 1.268 . S
C49 O63 1.268 . S
C50 O56 1.268 . S
C50 O65 1.268 . S
C51 O57 1.268 . S
C51 O61 1.268 . S
C52 O58 1.268 . S
C52 O60 1.268 . S
C53 O59 1.268 . S
C53 O62 1.268 . S
O54 Sc44 2.105 . S
O54 C48 1.268 . S
O55 Sc45 2.105 . S
O55 C49 1.268 . S
O56 Sc46 2.105 . S
O56 C50 1.268 . S
O57 Sc44 2.105 . S
O57 C51 1.268 . S
O58 Sc46 2.105 . S
O58 C52 1.268 . S
O59 Sc45 2.105 . S
O59 C53 1.268 . S
O60 Sc44 2.105 . S
O60 C52 1.268 . S
O61 Sc45 2.105 . S
O61 C51 1.268 . S
O62 Sc46 2.105 . S
O62 C53 1.268 . S
O63 Sc44 2.105 . S
O63 C49 1.268 . S
O64 Sc46 2.105 . S
O64 C48 1.268 . S
O65 Sc45 2.105 . S
O65 C50 1.268 . S
Sc66 O69 2.025 . S
Sc66 O76 2.105 . S
Sc66 O79 2.105 . S
Sc66 O82 2.105 . S
Sc66 O85 2.105 . S
Sc67 O69 2.025 . S
Sc67 O77 2.105 . S
Sc67 O81 2.105 . S
Sc67 O83 2.105 . S
Sc67 O87 2.105 . S
Sc68 O69 2.025 . S
Sc68 O78 2.105 . S
Sc68 O80 2.105 . S
Sc68 O84 2.105 . S
Sc68 O86 2.105 . S
O69 Sc66 2.025 . S
O69 Sc67 2.025 . S
O69 Sc68 2.025 . S
C70 O76 1.268 . S
C70 O86 1.268 . S
C71 O77 1.268 . S
C71 O85 1.268 . S
C72 O78 1.268 . S
C72 O87 1.268 . S
C73 O79 1.268 . S
C73 O83 1.268 . S
C74 O80 1.268 . S
C74 O82 1.268 . S
C75 O81 1.268 . S
C75 O84 1.268 . S
O76 Sc66 2.105 . S
O76 C70 1.268 . S
O77 Sc67 2.105 . S
O77 C71 1.268 . S
O78 Sc68 2.105 . S
O78 C72 1.268 . S
O79 Sc66 2.105 . S
O79 C73 1.268 . S
O80 Sc68 2.105 . S
O80 C74 1.268 . S
O81 Sc67 2.105 . S
O81 C75 1.268 . S
O82 Sc66 2.105 . S
O82 C74 1.268 . S
O83 Sc67 2.105 . S
O83 C73 1.268 . S
O84 Sc68 2.105 . S
O84 C75 1.268 . S
O85 Sc66 2.105 . S
O85 C71 1.268 . S
O86 Sc68 2.105 . S
O86 C70 1.268 . S
O87 Sc67 2.105 . S
O87 C72 1.268 . S
Sc88 O91 2.025 . S
Sc88 O98 2.105 . S
Sc88 O101 2.105 . S
Sc88 O104 2.105 . S
Sc88 O107 2.105 . S
Sc89 O91 2.025 . S
Sc89 O99 2.105 . S
Sc89 O103 2.105 . S
Sc89 O105 2.105 . S
Sc89 O109 2.105 . S
Sc90 O91 2.025 . S
Sc90 O100 2.105 . S
Sc90 O102 2.105 . S
Sc90 O106 2.105 . S
Sc90 O108 2.105 . S
O91 Sc88 2.025 . S
O91 Sc89 2.025 . S
O91 Sc90 2.025 . S
C92 O98 1.268 . S
C92 O108 1.268 . S
C93 O99 1.268 . S
C93 O107 1.268 . S
C94 O100 1.268 . S
C94 O109 1.268 . S
C95 O101 1.268 . S
C95 O105 1.268 . S
C96 O102 1.268 . S
C96 O104 1.268 . S
C97 O103 1.268 . S
C97 O106 1.268 . S
O98 Sc88 2.105 . S
O98 C92 1.268 . S
O99 Sc89 2.105 . S
O99 C93 1.268 . S
O100 Sc90 2.105 . S
O100 C94 1.268 . S
O101 Sc88 2.105 . S
O101 C95 1.268 . S
O102 Sc90 2.105 . S
O102 C96 1.268 . S
O103 Sc89 2.105 . S
O103 C97 1.268 . S
O104 Sc88 2.105 . S
O104 C96 1.268 . S
O105 Sc89 2.105 . S
O105 C95 1.268 . S
O106 Sc90 2.105 . S
O106 C97 1.268 . S
O107 Sc88 2.105 . S
O107 C93 1.268 . S
O108 Sc90 2.105 . S
O108 C92 1.268 . S
O109 Sc89 2.105 . S
O109 C94 1.268 . S
Sc110 O113 2.025 . S
Sc110 O120 2.105 . S
Sc110 O123 2.105 . S
Sc110 O126 2.105 . S
Sc110 O129 2.105 . S
Sc111 O113 2.025 . S
Sc111 O121 2.105 . S
Sc111 O125 2.105 . S
Sc111 O127 2.105 . S
Sc111 O131 2.105 . S
Sc112 O113 2.025 . S
Sc112 O122 2.105 . S
Sc112 O124 2.105 . S
Sc112 O128 2.105 . S
Sc112 O130 2.105 . S
O113 Sc110 2.025 . S
O113 Sc111 2.025 . S
O113 Sc112 2.025 . S
C114 O120 1.268 . S
C114 O130 1.268 . S
C115 O121 1.268 . S
C115 O129 1.268 . S
C116 O122 1.268 . S
C116 O131 1.268 . S
C117 O123 1.268 . S
C117 O127 1.268 . S
C118 O124 1.268 . S
C118 O126 1.268 . S
C119 O125 1.268 . S
C119 O128 1.268 . S
O120 Sc110 2.105 . S
O120 C114 1.268 . S
O121 Sc111 2.105 . S
O121 C115 1.268 . S
O122 Sc112 2.105 . S
O122 C116 1.268 . S
O123 Sc110 2.105 . S
O123 C117 1.268 . S
O124 Sc112 2.105 . S
O124 C118 1.268 . S
O125 Sc111 2.105 . S
O125 C119 1.268 . S
O126 Sc110 2.105 . S
O126 C118 1.268 . S
O127 Sc111 2.105 . S
O127 C117 1.268 . S
O128 Sc112 2.105 . S
O128 C119 1.268 . S
O129 Sc110 2.105 . S
O129 C115 1.268 . S
O130 Sc112 2.105 . S
O130 C114 1.268 . S
O131 Sc111 2.105 . S
O131 C116 1.268 . S
Sc132 O135 2.025 . S
Sc132 O142 2.105 . S
Sc132 O145 2.105 . S
Sc132 O148 2.105 . S
Sc132 O151 2.105 . S
Sc133 O135 2.025 . S
Sc133 O143 2.105 . S
Sc133 O147 2.105 . S
Sc133 O149 2.105 . S
Sc133 O153 2.105 . S
Sc134 O135 2.025 . S
Sc134 O144 2.105 . S
Sc134 O146 2.105 . S
Sc134 O150 2.105 . S
Sc134 O152 2.105 . S
O135 Sc132 2.025 . S
O135 Sc133 2.025 . S
O135 Sc134 2.025 . S
C136 O142 1.268 . S
C136 O152 1.268 . S
C137 O143 1.268 . S
C137 O151 1.268 . S
C138 O144 1.268 . S
C138 O153 1.268 . S
C139 O145 1.268 . S
C139 O149 1.268 . S
C140 O146 1.268 . S
C140 O148 1.268 . S
C141 O147 1.268 . S
C141 O150 1.268 . S
O142 Sc132 2.105 . S
O142 C136 1.268 . S
O143 Sc133 2.105 . S
O143 C137 1.268 . S
O144 Sc134 2.105 . S
O144 C138 1.268 . S
O145 Sc132 2.105 . S
O145 C139 1.268 . S
O146 Sc134 2.105 . S
O146 C140 1.268 . S
O147 Sc133 2.105 . S
O147 C141 1.268 . S
O148 Sc132 2.105 . S
O148 C140 1.268 . S
O149 Sc133 2.105 . S
O149 C139 1.268 . S
O150 Sc134 2.105 . S
O150 C141 1.268 . S
O151 Sc132 2.105 . S
O151 C137 1.268 . S
O152 Sc134 2.105 . S
O152 C136 1.268 . S
O153 Sc133 2.105 . S
O153 C138 1.268 . S
Sc154 O157 2.025 . S
Sc154 O164 2.105 . S
Sc154 O167 2.105 . S
Sc154 O170 2.105 . S
Sc154 O173 2.105 . S
Sc155 O157 2.025 . S
Sc155 O165 2.105 . S
Sc155 O169 2.105 . S
Sc155 O171 2.105 . S
Sc155 O175 2.105 . S
Sc156 O157 2.025 . S
Sc156 O166 2.105 . S
Sc156 O168 2.105 . S
Sc156 O172 2.105 . S
Sc156 O174 2.105 . S
O157 Sc154 2.025 . S
O157 Sc155 2.025 . S
O157 Sc156 2.025 . S
C158 O164 1.268 . S
C158 O174 1.268 . S
C159 O165 1.268 . S
C159 O173 1.268 . S
C160 O166 1.268 . S
C160 O175 1.268 . S
C161 O167 1.268 . S
C161 O171 1.268 . S
C162 O168 1.268 . S
C162 O170 1.268 . S
C163 O169 1.268 . S
C163 O172 1.268 . S
O164 Sc154 2.105 . S
O164 C158 1.268 . S
O165 Sc155 2.105 . S
O165 C159 1.268 . S
O166 Sc156 2.105 . S
O166 C160 1.268 . S
O167 Sc154 2.105 . S
O167 C161 1.268 . S
O168 Sc156 2.105 . S
O168 C162 1.268 . S
O169 Sc155 2.105 . S
O169 C163 1.268 . S
O170 Sc154 2.105 . S
O170 C162 1.268 . S
O171 Sc155 2.105 . S
O171 C161 1.268 . S
O172 Sc156 2.105 . S
O172 C163 1.268 . S
O173 Sc154 2.105 . S
O173 C159 1.268 . S
O174 Sc156 2.105 . S
O174 C158 1.268 . S
O175 Sc155 2.105 . S
O175 C160 1.268 . S
Sc176 O179 2.025 . S
Sc176 O186 2.105 . S
Sc176 O189 2.105 . S
Sc176 O192 2.105 . S
Sc176 O195 2.105 . S
Sc177 O179 2.025 . S
Sc177 O187 2.105 . S
Sc177 O191 2.105 . S
Sc177 O193 2.105 . S
Sc177 O197 2.105 . S
Sc178 O179 2.025 . S
Sc178 O188 2.105 . S
Sc178 O190 2.105 . S
Sc178 O194 2.105 . S
Sc178 O196 2.105 . S
O179 Sc176 2.025 . S
O179 Sc177 2.025 . S
O179 Sc178 2.025 . S
C180 O186 1.268 . S
C180 O196 1.268 . S
C181 O187 1.268 . S
C181 O195 1.268 . S
C182 O188 1.268 . S
C182 O197 1.268 . S
C183 O189 1.268 . S
C183 O193 1.268 . S
C184 O190 1.268 . S
C184 O192 1.268 . S
C185 O191 1.268 . S
C185 O194 1.268 . S
O186 Sc176 2.105 . S
O186 C180 1.268 . S
O187 Sc177 2.105 . S
O187 C181 1.268 . S
O188 Sc178 2.105 . S
O188 C182 1.268 . S
O189 Sc176 2.105 . S
O189 C183 1.268 . S
O190 Sc178 2.105 . S
O190 C184 1.268 . S
O191 Sc177 2.105 . S
O191 C185 1.268 . S
O192 Sc176 2.105 . S
O192 C184 1.268 . S
O193 Sc177 2.105 . S
O193 C183 1.268 . S
O194 Sc178 2.105 . S
O194 C185 1.268 . S
O195 Sc176 2.105 . S
O195 C181 1.268 . S
O196 Sc178 2.105 . S
O196 C180 1.268 . S
O197 Sc177 2.105 . S
O197 C182 1.268 . S
Sc198 O201 2.025 . S
Sc198 O208 2.105 . S
Sc198 O211 2.105 . S
Sc198 O214 2.105 . S
Sc198 O217 2.105 . S
Sc199 O201 2.025 . S
Sc199 O209 2.105 . S
Sc199 O213 2.105 . S
Sc199 O215 2.105 . S
Sc199 O219 2.105 . S
Sc200 O201 2.025 . S
Sc200 O210 2.105 . S
Sc200 O212 2.105 . S
Sc200 O216 2.105 . S
Sc200 O218 2.105 . S
O201 Sc198 2.025 . S
O201 Sc199 2.025 . S
O201 Sc200 2.025 . S
C202 O208 1.268 . S
C202 O218 1.268 . S
C203 O209 1.268 . S
C203 O217 1.268 . S
C204 O210 1.268 . S
C204 O219 1.268 . S
C205 O211 1.268 . S
C205 O215 1.268 . S
C206 O212 1.268 . S
C206 O214 1.268 . S
C207 O213 1.268 . S
C207 O216 1.268 . S
O208 Sc198 2.105 . S
O208 C202 1.268 . S
O209 Sc199 2.105 . S
O209 C203 1.268 . S
O210 Sc200 2.105 . S
O210 C204 1.268 . S
O211 Sc198 2.105 . S
O211 C205 1.268 . S
O212 Sc200 2.105 . S
O212 C206 1.268 . S
O213 Sc199 2.105 . S
O213 C207 1.268 . S
O214 Sc198 2.105 . S
O214 C206 1.268 . S
O215 Sc199 2.105 . S
O215 C205 1.268 . S
O216 Sc200 2.105 . S
O216 C207 1.268 . S
O217 Sc198 2.105 . S
O217 C203 1.268 . S
O218 Sc200 2.105 . S
O218 C202 1.268 . S
O219 Sc199 2.105 . S
O219 C204 1.268 . S
Sc220 O223 2.025 . S
Sc220 O230 2.105 . S
Sc220 O233 2.105 . S
Sc220 O236 2.105 . S
Sc220 O239 2.105 . S
Sc221 O223 2.025 . S
Sc221 O231 2.105 . S
Sc221 O235 2.105 . S
Sc221 O237 2.105 . S
Sc221 O241 2.105 . S
Sc222 O223 2.025 . S
Sc222 O232 2.105 . S
Sc222 O234 2.105 . S
Sc222 O238 2.105 . S
Sc222 O240 2.105 . S
O223 Sc220 2.025 . S
O223 Sc221 2.025 . S
O223 Sc222 2.025 . S
C224 O230 1.268 . S
C224 O240 1.268 . S
C225 O231 1.268 . S
C225 O239 1.268 . S
C226 O232 1.268 . S
C226 O241 1.268 . S
C227 O233 1.268 . S
C227 O237 1.268 . S
C228 O234 1.268 . S
C228 O236 1.268 . S
C229 O235 1.268 . S
C229 O238 1.268 . S
O230 Sc220 2.105 . S
O230 C224 1.268 . S
O231 Sc221 2.105 . S
O231 C225 1.268 . S
O232 Sc222 2.105 . S
O232 C226 1.268 . S
O233 Sc220 2.105 . S
O233 C227 1.268 . S
O234 Sc222 2.105 . S
O234 C228 1.268 . S
O235 Sc221 2.105 . S
O235 C229 1.268 . S
O236 Sc220 2.105 . S
O236 C228 1.268 . S
O237 Sc221 2.105 . S
O237 C227 1.268 . S
O238 Sc222 2.105 . S
O238 C229 1.268 . S
O239 Sc220 2.105 . S
O239 C225 1.268 . S
O240 Sc222 2.105 . S
O240 C224 1.268 . S
O241 Sc221 2.105 . S
O241 C226 1.268 . S
Sc242 O245 2.025 . S
Sc242 O252 2.105 . S
Sc242 O255 2.105 . S
Sc242 O258 2.105 . S
Sc242 O261 2.105 . S
Sc243 O245 2.025 . S
Sc243 O253 2.105 . S
Sc243 O257 2.105 . S
Sc243 O259 2.105 . S
Sc243 O263 2.105 . S
Sc244 O245 2.025 . S
Sc244 O254 2.105 . S
Sc244 O256 2.105 . S
Sc244 O260 2.105 . S
Sc244 O262 2.105 . S
O245 Sc242 2.025 . S
O245 Sc243 2.025 . S
O245 Sc244 2.025 . S
C246 O252 1.268 . S
C246 O262 1.268 . S
C247 O253 1.268 . S
C247 O261 1.268 . S
C248 O254 1.268 . S
C248 O263 1.268 . S
C249 O255 1.268 . S
C249 O259 1.268 . S
C250 O256 1.268 . S
C250 O258 1.268 . S
C251 O257 1.268 . S
C251 O260 1.268 . S
O252 Sc242 2.105 . S
O252 C246 1.268 . S
O253 Sc243 2.105 . S
O253 C247 1.268 . S
O254 Sc244 2.105 . S
O254 C248 1.268 . S
O255 Sc242 2.105 . S
O255 C249 1.268 . S
O256 Sc244 2.105 . S
O256 C250 1.268 . S
O257 Sc243 2.105 . S
O257 C251 1.268 . S
O258 Sc242 2.105 . S
O258 C250 1.268 . S
O259 Sc243 2.105 . S
O259 C249 1.268 . S
O260 Sc244 2.105 . S
O260 C251 1.268 . S
O261 Sc242 2.105 . S
O261 C247 1.268 . S
O262 Sc244 2.105 . S
O262 C246 1.268 . S
O263 Sc243 2.105 . S
O263 C248 1.268 . S
C264 C265 1.349 . S
C264 C266 1.327 . S
C264 H289 0.950 . S
C265 C264 1.349 . S
C265 C281 1.349 . S
C266 C264 1.327 . S
C266 C285 1.429 . S
C266 H290 0.950 . S
C267 C284 1.574 . S
C267 C286 1.368 . S
C267 H291 0.949 . S
H268 C272 0.949 . S
C269 C270 1.349 . S
C269 C271 1.327 . S
C269 H292 0.950 . S
C270 C269 1.349 . S
C270 C282 1.349 . S
C271 C269 1.327 . S
C271 C287 1.429 . S
C271 H293 0.950 . S
C272 H268 0.949 . S
C272 C280 1.574 . S
C272 C288 1.368 . S
H273 C281 0.950 . S
H274 C279 0.950 . S
H275 C280 0.949 . S
H276 C282 0.950 . S
H277 C283 0.950 . S
H278 C284 0.949 . S
C279 H274 0.950 . S
C279 C281 1.327 . S
C279 C285 1.429 . S
C280 C272 1.574 . S
C280 H275 0.949 . S
C280 C286 1.368 . S
C281 C265 1.349 . S
C281 H273 0.950 . S
C281 C279 1.327 . S
C282 C270 1.349 . S
C282 H276 0.950 . S
C282 C283 1.327 . S
C283 H277 0.950 . S
C283 C282 1.327 . S
C283 C287 1.429 . S
C284 C267 1.574 . S
C284 H278 0.949 . S
C284 C288 1.368 . S
C285 C266 1.429 . S
C285 C279 1.429 . S
C285 C286 1.523 . S
C286 C267 1.368 . S
C286 C280 1.368 . S
C286 C285 1.523 . S
C287 C271 1.429 . S
C287 C283 1.429 . S
C287 C288 1.523 . S
C288 C272 1.368 . S
C288 C284 1.368 . S
C288 C287 1.523 . S
H289 C264 0.950 . S
H290 C266 0.950 . S
H291 C267 0.949 . S
H292 C269 0.950 . S
H293 C271 0.950 . S
C294 C295 1.349 . S
C294 C296 1.327 . S
C294 H319 0.950 . S
C295 C294 1.349 . S
C295 C311 1.349 . S
C296 C294 1.327 . S
C296 C315 1.429 . S
C296 H320 0.950 . S
C297 C314 1.574 . S
C297 C316 1.368 . S
C297 H321 0.949 . S
H298 C302 0.949 . S
C299 C300 1.349 . S
C299 C301 1.327 . S
C299 H322 0.950 . S
C300 C299 1.349 . S
C300 C312 1.349 . S
C301 C299 1.327 . S
C301 C317 1.429 . S
C301 H323 0.950 . S
C302 H298 0.949 . S
C302 C310 1.574 . S
C302 C318 1.368 . S
H303 C311 0.950 . S
H304 C309 0.950 . S
H305 C310 0.949 . S
H306 C312 0.950 . S
H307 C313 0.950 . S
H308 C314 0.949 . S
C309 H304 0.950 . S
C309 C311 1.327 . S
C309 C315 1.429 . S
C310 C302 1.574 . S
C310 H305 0.949 . S
C310 C316 1.368 . S
C311 C295 1.349 . S
C311 H303 0.950 . S
C311 C309 1.327 . S
C312 C300 1.349 . S
C312 H306 0.950 . S
C312 C313 1.327 . S
C313 H307 0.950 . S
C313 C312 1.327 . S
C313 C317 1.429 . S
C314 C297 1.574 . S
C314 H308 0.949 . S
C314 C318 1.368 . S
C315 C296 1.429 . S
C315 C309 1.429 . S
C315 C316 1.523 . S
C316 C297 1.368 . S
C316 C310 1.368 . S
C316 C315 1.523 . S
C317 C301 1.429 . S
C317 C313 1.429 . S
C317 C318 1.523 . S
C318 C302 1.368 . S
C318 C314 1.368 . S
C318 C317 1.523 . S
H319 C294 0.950 . S
H320 C296 0.950 . S
H321 C297 0.949 . S
H322 C299 0.950 . S
H323 C301 0.950 . S
C324 C325 1.349 . S
C324 C326 1.327 . S
C324 H349 0.950 . S
C325 C324 1.349 . S
C325 C341 1.349 . S
C326 C324 1.327 . S
C326 C345 1.429 . S
C326 H350 0.950 . S
C327 C344 1.574 . S
C327 C346 1.368 . S
C327 H351 0.949 . S
H328 C332 0.949 . S
C329 C330 1.349 . S
C329 C331 1.327 . S
C329 H352 0.950 . S
C330 C329 1.349 . S
C330 C342 1.349 . S
C331 C329 1.327 . S
C331 C347 1.429 . S
C331 H353 0.950 . S
C332 H328 0.949 . S
C332 C340 1.574 . S
C332 C348 1.368 . S
H333 C341 0.950 . S
H334 C339 0.950 . S
H335 C340 0.949 . S
H336 C342 0.950 . S
H337 C343 0.950 . S
H338 C344 0.949 . S
C339 H334 0.950 . S
C339 C341 1.327 . S
C339 C345 1.429 . S
C340 C332 1.574 . S
C340 H335 0.949 . S
C340 C346 1.368 . S
C341 C325 1.349 . S
C341 H333 0.950 . S
C341 C339 1.327 . S
C342 C330 1.349 . S
C342 H336 0.950 . S
C342 C343 1.327 . S
C343 H337 0.950 . S
C343 C342 1.327 . S
C343 C347 1.429 . S
C344 C327 1.574 . S
C344 H338 0.949 . S
C344 C348 1.368 . S
C345 C326 1.429 . S
C345 C339 1.429 . S
C345 C346 1.523 . S
C346 C327 1.368 . S
C346 C340 1.368 . S
C346 C345 1.523 . S
C347 C331 1.429 . S
C347 C343 1.429 . S
C347 C348 1.523 . S
C348 C332 1.368 . S
C348 C344 1.368 . S
C348 C347 1.523 . S
H349 C324 0.950 . S
H350 C326 0.950 . S
H351 C327 0.949 . S
H352 C329 0.950 . S
H353 C331 0.950 . S
C354 C355 1.349 . S
C354 C356 1.327 . S
C354 H379 0.950 . S
C355 C354 1.349 . S
C355 C371 1.349 . S
C356 C354 1.327 . S
C356 C375 1.429 . S
C356 H380 0.950 . S
C357 C374 1.574 . S
C357 C376 1.368 . S
C357 H381 0.949 . S
H358 C362 0.949 . S
C359 C360 1.349 . S
C359 C361 1.327 . S
C359 H382 0.950 . S
C360 C359 1.349 . S
C360 C372 1.349 . S
C361 C359 1.327 . S
C361 C377 1.429 . S
C361 H383 0.950 . S
C362 H358 0.949 . S
C362 C370 1.574 . S
C362 C378 1.368 . S
H363 C371 0.950 . S
H364 C369 0.950 . S
H365 C370 0.949 . S
H366 C372 0.950 . S
H367 C373 0.950 . S
H368 C374 0.949 . S
C369 H364 0.950 . S
C369 C371 1.327 . S
C369 C375 1.429 . S
C370 C362 1.574 . S
C370 H365 0.949 . S
C370 C376 1.368 . S
C371 C355 1.349 . S
C371 H363 0.950 . S
C371 C369 1.327 . S
C372 C360 1.349 . S
C372 H366 0.950 . S
C372 C373 1.327 . S
C373 H367 0.950 . S
C373 C372 1.327 . S
C373 C377 1.429 . S
C374 C357 1.574 . S
C374 H368 0.949 . S
C374 C378 1.368 . S
C375 C356 1.429 . S
C375 C369 1.429 . S
C375 C376 1.523 . S
C376 C357 1.368 . S
C376 C370 1.368 . S
C376 C375 1.523 . S
C377 C361 1.429 . S
C377 C373 1.429 . S
C377 C378 1.523 . S
C378 C362 1.368 . S
C378 C374 1.368 . S
C378 C377 1.523 . S
H379 C354 0.950 . S
H380 C356 0.950 . S
H381 C357 0.949 . S
H382 C359 0.950 . S
H383 C361 0.950 . S
C384 C385 1.349 . S
C384 C386 1.327 . S
C384 H409 0.950 . S
C385 C384 1.349 . S
C385 C401 1.349 . S
C386 C384 1.327 . S
C386 C405 1.429 . S
C386 H410 0.950 . S
C387 C404 1.574 . S
C387 C406 1.368 . S
C387 H411 0.949 . S
H388 C392 0.949 . S
C389 C390 1.349 . S
C389 C391 1.327 . S
C389 H412 0.950 . S
C390 C389 1.349 . S
C390 C402 1.349 . S
C391 C389 1.327 . S
C391 C407 1.429 . S
C391 H413 0.950 . S
C392 H388 0.949 . S
C392 C400 1.574 . S
C392 C408 1.368 . S
H393 C401 0.950 . S
H394 C399 0.950 . S
H395 C400 0.949 . S
H396 C402 0.950 . S
H397 C403 0.950 . S
H398 C404 0.949 . S
C399 H394 0.950 . S
C399 C401 1.327 . S
C399 C405 1.429 . S
C400 C392 1.574 . S
C400 H395 0.949 . S
C400 C406 1.368 . S
C401 C385 1.349 . S
C401 H393 0.950 . S
C401 C399 1.327 . S
C402 C390 1.349 . S
C402 H396 0.950 . S
C402 C403 1.327 . S
C403 H397 0.950 . S
C403 C402 1.327 . S
C403 C407 1.429 . S
C404 C387 1.574 . S
C404 H398 0.949 . S
C404 C408 1.368 . S
C405 C386 1.429 . S
C405 C399 1.429 . S
C405 C406 1.523 . S
C406 C387 1.368 . S
C406 C400 1.368 . S
C406 C405 1.523 . S
C407 C391 1.429 . S
C407 C403 1.429 . S
C407 C408 1.523 . S
C408 C392 1.368 . S
C408 C404 1.368 . S
C408 C407 1.523 . S
H409 C384 0.950 . S
H410 C386 0.950 . S
H411 C387 0.949 . S
H412 C389 0.950 . S
H413 C391 0.950 . S
C414 C415 1.349 . S
C414 C416 1.327 . S
C414 H439 0.950 . S
C415 C414 1.349 . S
C415 C431 1.349 . S
C416 C414 1.327 . S
C416 C435 1.429 . S
C416 H440 0.950 . S
C417 C434 1.574 . S
C417 C436 1.368 . S
C417 H441 0.949 . S
H418 C422 0.949 . S
C419 C420 1.349 . S
C419 C421 1.327 . S
C419 H442 0.950 . S
C420 C419 1.349 . S
C420 C432 1.349 . S
C421 C419 1.327 . S
C421 C437 1.429 . S
C421 H443 0.950 . S
C422 H418 0.949 . S
C422 C430 1.574 . S
C422 C438 1.368 . S
H423 C431 0.950 . S
H424 C429 0.950 . S
H425 C430 0.949 . S
H426 C432 0.950 . S
H427 C433 0.950 . S
H428 C434 0.949 . S
C429 H424 0.950 . S
C429 C431 1.327 . S
C429 C435 1.429 . S
C430 C422 1.574 . S
C430 H425 0.949 . S
C430 C436 1.368 . S
C431 C415 1.349 . S
C431 H423 0.950 . S
C431 C429 1.327 . S
C432 C420 1.349 . S
C432 H426 0.950 . S
C432 C433 1.327 . S
C433 H427 0.950 . S
C433 C432 1.327 . S
C433 C437 1.429 . S
C434 C417 1.574 . S
C434 H428 0.949 . S
C434 C438 1.368 . S
C435 C416 1.429 . S
C435 C429 1.429 . S
C435 C436 1.523 . S
C436 C417 1.368 . S
C436 C430 1.368 . S
C436 C435 1.523 . S
C437 C421 1.429 . S
C437 C433 1.429 . S
C437 C438 1.523 . S
C438 C422 1.368 . S
C438 C434 1.368 . S
C438 C437 1.523 . S
H439 C414 0.950 . S
H440 C416 0.950 . S
H441 C417 0.949 . S
H442 C419 0.950 . S
H443 C421 0.950 . S
C444 C445 1.349 . S
C444 C446 1.327 . S
C444 H469 0.950 . S
C445 C444 1.349 . S
C445 C461 1.349 . S
C446 C444 1.327 . S
C446 C465 1.429 . S
C446 H470 0.950 . S
C447 C464 1.574 . S
C447 C466 1.368 . S
C447 H471 0.949 . S
H448 C452 0.949 . S
C449 C450 1.349 . S
C449 C451 1.327 . S
C449 H472 0.950 . S
C450 C449 1.349 . S
C450 C462 1.349 . S
C451 C449 1.327 . S
C451 C467 1.429 . S
C451 H473 0.950 . S
C452 H448 0.949 . S
C452 C460 1.574 . S
C452 C468 1.368 . S
H453 C461 0.950 . S
H454 C459 0.950 . S
H455 C460 0.949 . S
H456 C462 0.950 . S
H457 C463 0.950 . S
H458 C464 0.949 . S
C459 H454 0.950 . S
C459 C461 1.327 . S
C459 C465 1.429 . S
C460 C452 1.574 . S
C460 H455 0.949 . S
C460 C466 1.368 . S
C461 C445 1.349 . S
C461 H453 0.950 . S
C461 C459 1.327 . S
C462 C450 1.349 . S
C462 H456 0.950 . S
C462 C463 1.327 . S
C463 H457 0.950 . S
C463 C462 1.327 . S
C463 C467 1.429 . S
C464 C447 1.574 . S
C464 H458 0.949 . S
C464 C468 1.368 . S
C465 C446 1.429 . S
C465 C459 1.429 . S
C465 C466 1.523 . S
C466 C447 1.368 . S
C466 C460 1.368 . S
C466 C465 1.523 . S
C467 C451 1.429 . S
C467 C463 1.429 . S
C467 C468 1.523 . S
C468 C452 1.368 . S
C468 C464 1.368 . S
C468 C467 1.523 . S
H469 C444 0.950 . S
H470 C446 0.950 . S
H471 C447 0.949 . S
H472 C449 0.950 . S
H473 C451 0.950 . S
C474 C475 1.349 . S
C474 C476 1.327 . S
C474 H499 0.950 . S
C475 C474 1.349 . S
C475 C491 1.349 . S
C476 C474 1.327 . S
C476 C495 1.429 . S
C476 H500 0.950 . S
C477 C494 1.574 . S
C477 C496 1.368 . S
C477 H501 0.949 . S
H478 C482 0.949 . S
C479 C480 1.349 . S
C479 C481 1.327 . S
C479 H502 0.950 . S
C480 C479 1.349 . S
C480 C492 1.349 . S
C481 C479 1.327 . S
C481 C497 1.429 . S
C481 H503 0.950 . S
C482 H478 0.949 . S
C482 C490 1.574 . S
C482 C498 1.368 . S
H483 C491 0.950 . S
H484 C489 0.950 . S
H485 C490 0.949 . S
H486 C492 0.950 . S
H487 C493 0.950 . S
H488 C494 0.949 . S
C489 H484 0.950 . S
C489 C491 1.327 . S
C489 C495 1.429 . S
C490 C482 1.574 . S
C490 H485 0.949 . S
C490 C496 1.368 . S
C491 C475 1.349 . S
C491 H483 0.950 . S
C491 C489 1.327 . S
C492 C480 1.349 . S
C492 H486 0.950 . S
C492 C493 1.327 . S
C493 H487 0.950 . S
C493 C492 1.327 . S
C493 C497 1.429 . S
C494 C477 1.574 . S
C494 H488 0.949 . S
C494 C498 1.368 . S
C495 C476 1.429 . S
C495 C489 1.429 . S
C495 C496 1.523 . S
C496 C477 1.368 . S
C496 C490 1.368 . S
C496 C495 1.523 . S
C497 C481 1.429 . S
C497 C493 1.429 . S
C497 C498 1.523 . S
C498 C482 1.368 . S
C498 C494 1.368 . S
C498 C497 1.523 . S
H499 C474 0.950 . S
H500 C476 0.950 . S
H501 C477 0.949 . S
H502 C479 0.950 . S
H503 C481 0.950 . S
C504 C505 1.349 . S
C504 C506 1.327 . S
C504 H529 0.950 . S
C505 C504 1.349 . S
C505 C521 1.349 . S
C506 C504 1.327 . S
C506 C525 1.429 . S
C506 H530 0.950 . S
C507 C524 1.574 . S
C507 C526 1.368 . S
C507 H531 0.949 . S
H508 C512 0.949 . S
C509 C510 1.349 . S
C509 C511 1.327 . S
C509 H532 0.950 . S
C510 C509 1.349 . S
C510 C522 1.349 . S
C511 C509 1.327 . S
C511 C527 1.429 . S
C511 H533 0.950 . S
C512 H508 0.949 . S
C512 C520 1.574 . S
C512 C528 1.368 . S
H513 C521 0.950 . S
H514 C519 0.950 . S
H515 C520 0.949 . S
H516 C522 0.950 . S
H517 C523 0.950 . S
H518 C524 0.949 . S
C519 H514 0.950 . S
C519 C521 1.327 . S
C519 C525 1.429 . S
C520 C512 1.574 . S
C520 H515 0.949 . S
C520 C526 1.368 . S
C521 C505 1.349 . S
C521 H513 0.950 . S
C521 C519 1.327 . S
C522 C510 1.349 . S
C522 H516 0.950 . S
C522 C523 1.327 . S
C523 H517 0.950 . S
C523 C522 1.327 . S
C523 C527 1.429 . S
C524 C507 1.574 . S
C524 H518 0.949 . S
C524 C528 1.368 . S
C525 C506 1.429 . S
C525 C519 1.429 . S
C525 C526 1.523 . S
C526 C507 1.368 . S
C526 C520 1.368 . S
C526 C525 1.523 . S
C527 C511 1.429 . S
C527 C523 1.429 . S
C527 C528 1.523 . S
C528 C512 1.368 . S
C528 C524 1.368 . S
C528 C527 1.523 . S
H529 C504 0.950 . S
H530 C506 0.950 . S
H531 C507 0.949 . S
H532 C509 0.950 . S
H533 C511 0.950 . S
C534 C535 1.349 . S
C534 C536 1.327 . S
C534 H559 0.950 . S
C535 C534 1.349 . S
C535 C551 1.349 . S
C536 C534 1.327 . S
C536 C555 1.429 . S
C536 H560 0.950 . S
C537 C554 1.574 . S
C537 C556 1.368 . S
C537 H561 0.949 . S
H538 C542 0.949 . S
C539 C540 1.349 . S
C539 C541 1.327 . S
C539 H562 0.950 . S
C540 C539 1.349 . S
C540 C552 1.349 . S
C541 C539 1.327 . S
C541 C557 1.429 . S
C541 H563 0.950 . S
C542 H538 0.949 . S
C542 C550 1.574 . S
C542 C558 1.368 . S
H543 C551 0.950 . S
H544 C549 0.950 . S
H545 C550 0.949 . S
H546 C552 0.950 . S
H547 C553 0.950 . S
H548 C554 0.949 . S
C549 H544 0.950 . S
C549 C551 1.327 . S
C549 C555 1.429 . S
C550 C542 1.574 . S
C550 H545 0.949 . S
C550 C556 1.368 . S
C551 C535 1.349 . S
C551 H543 0.950 . S
C551 C549 1.327 . S
C552 C540 1.349 . S
C552 H546 0.950 . S
C552 C553 1.327 . S
C553 H547 0.950 . S
C553 C552 1.327 . S
C553 C557 1.429 . S
C554 C537 1.574 . S
C554 H548 0.949 . S
C554 C558 1.368 . S
C555 C536 1.429 . S
C555 C549 1.429 . S
C555 C556 1.523 . S
C556 C537 1.368 . S
C556 C550 1.368 . S
C556 C555 1.523 . S
C557 C541 1.429 . S
C557 C553 1.429 . S
C557 C558 1.523 . S
C558 C542 1.368 . S
C558 C554 1.368 . S
C558 C557 1.523 . S
H559 C534 0.950 . S
H560 C536 0.950 . S
H561 C537 0.949 . S
H562 C539 0.950 . S
H563 C541 0.950 . S
C564 C565 1.349 . S
C564 C566 1.327 . S
C564 H589 0.950 . S
C565 C564 1.349 . S
C565 C581 1.349 . S
C566 C564 1.327 . S
C566 C585 1.429 . S
C566 H590 0.950 . S
C567 C584 1.574 . S
C567 C586 1.368 . S
C567 H591 0.949 . S
H568 C572 0.949 . S
C569 C570 1.349 . S
C569 C571 1.327 . S
C569 H592 0.950 . S
C570 C569 1.349 . S
C570 C582 1.349 . S
C571 C569 1.327 . S
C571 C587 1.429 . S
C571 H593 0.950 . S
C572 H568 0.949 . S
C572 C580 1.574 . S
C572 C588 1.368 . S
H573 C581 0.950 . S
H574 C579 0.950 . S
H575 C580 0.949 . S
H576 C582 0.950 . S
H577 C583 0.950 . S
H578 C584 0.949 . S
C579 H574 0.950 . S
C579 C581 1.327 . S
C579 C585 1.429 . S
C580 C572 1.574 . S
C580 H575 0.949 . S
C580 C586 1.368 . S
C581 C565 1.349 . S
C581 H573 0.950 . S
C581 C579 1.327 . S
C582 C570 1.349 . S
C582 H576 0.950 . S
C582 C583 1.327 . S
C583 H577 0.950 . S
C583 C582 1.327 . S
C583 C587 1.429 . S
C584 C567 1.574 . S
C584 H578 0.949 . S
C584 C588 1.368 . S
C585 C566 1.429 . S
C585 C579 1.429 . S
C585 C586 1.523 . S
C586 C567 1.368 . S
C586 C580 1.368 . S
C586 C585 1.523 . S
C587 C571 1.429 . S
C587 C583 1.429 . S
C587 C588 1.523 . S
C588 C572 1.368 . S
C588 C584 1.368 . S
C588 C587 1.523 . S
H589 C564 0.950 . S
H590 C566 0.950 . S
H591 C567 0.949 . S
H592 C569 0.950 . S
H593 C571 0.950 . S
C594 C595 1.349 . S
C594 C596 1.327 . S
C594 H619 0.950 . S
C595 C594 1.349 . S
C595 C611 1.349 . S
C596 C594 1.327 . S
C596 C615 1.429 . S
C596 H620 0.950 . S
C597 C614 1.574 . S
C597 C616 1.368 . S
C597 H621 0.949 . S
H598 C602 0.949 . S
C599 C600 1.349 . S
C599 C601 1.327 . S
C599 H622 0.950 . S
C600 C599 1.349 . S
C600 C612 1.349 . S
C601 C599 1.327 . S
C601 C617 1.429 . S
C601 H623 0.950 . S
C602 H598 0.949 . S
C602 C610 1.574 . S
C602 C618 1.368 . S
H603 C611 0.950 . S
H604 C609 0.950 . S
H605 C610 0.949 . S
H606 C612 0.950 . S
H607 C613 0.950 . S
H608 C614 0.949 . S
C609 H604 0.950 . S
C609 C611 1.327 . S
C609 C615 1.429 . S
C610 C602 1.574 . S
C610 H605 0.949 . S
C610 C616 1.368 . S
C611 C595 1.349 . S
C611 H603 0.950 . S
C611 C609 1.327 . S
C612 C600 1.349 . S
C612 H606 0.950 . S
C612 C613 1.327 . S
C613 H607 0.950 . S
C613 C612 1.327 . S
C613 C617 1.429 . S
C614 C597 1.574 . S
C614 H608 0.949 . S
C614 C618 1.368 . S
C615 C596 1.429 . S
C615 C609 1.429 . S
C615 C616 1.523 . S
C616 C597 1.368 . S
C616 C610 1.368 . S
C616 C615 1.523 . S
C617 C601 1.429 . S
C617 C613 1.429 . S
C617 C618 1.523 . S
C618 C602 1.368 . S
C618 C614 1.368 . S
C618 C617 1.523 . S
H619 C594 0.950 . S
H620 C596 0.950 . S
H621 C597 0.949 . S
H622 C599 0.950 . S
H623 C601 0.950 . S
C624 C625 1.349 . S
C624 C626 1.327 . S
C624 H649 0.950 . S
C625 C624 1.349 . S
C625 C641 1.349 . S
C626 C624 1.327 . S
C626 C645 1.429 . S
C626 H650 0.950 . S
C627 C644 1.574 . S
C627 C646 1.368 . S
C627 H651 0.949 . S
H628 C632 0.949 . S
C629 C630 1.349 . S
C629 C631 1.327 . S
C629 H652 0.950 . S
C630 C629 1.349 . S
C630 C642 1.349 . S
C631 C629 1.327 . S
C631 C647 1.429 . S
C631 H653 0.950 . S
C632 H628 0.949 . S
C632 C640 1.574 . S
C632 C648 1.368 . S
H633 C641 0.950 . S
H634 C639 0.950 . S
H635 C640 0.949 . S
H636 C642 0.950 . S
H637 C643 0.950 . S
H638 C644 0.949 . S
C639 H634 0.950 . S
C639 C641 1.327 . S
C639 C645 1.429 . S
C640 C632 1.574 . S
C640 H635 0.949 . S
C640 C646 1.368 . S
C641 C625 1.349 . S
C641 H633 0.950 . S
C641 C639 1.327 . S
C642 C630 1.349 . S
C642 H636 0.950 . S
C642 C643 1.327 . S
C643 H637 0.950 . S
C643 C642 1.327 . S
C643 C647 1.429 . S
C644 C627 1.574 . S
C644 H638 0.949 . S
C644 C648 1.368 . S
C645 C626 1.429 . S
C645 C639 1.429 . S
C645 C646 1.523 . S
C646 C627 1.368 . S
C646 C640 1.368 . S
C646 C645 1.523 . S
C647 C631 1.429 . S
C647 C643 1.429 . S
C647 C648 1.523 . S
C648 C632 1.368 . S
C648 C644 1.368 . S
C648 C647 1.523 . S
H649 C624 0.950 . S
H650 C626 0.950 . S
H651 C627 0.949 . S
H652 C629 0.950 . S
H653 C631 0.950 . S
C654 C655 1.349 . S
C654 C656 1.327 . S
C654 H679 0.950 . S
C655 C654 1.349 . S
C655 C671 1.349 . S
C656 C654 1.327 . S
C656 C675 1.429 . S
C656 H680 0.950 . S
C657 C674 1.574 . S
C657 C676 1.368 . S
C657 H681 0.949 . S
H658 C662 0.949 . S
C659 C660 1.349 . S
C659 C661 1.327 . S
C659 H682 0.950 . S
C660 C659 1.349 . S
C660 C672 1.349 . S
C661 C659 1.327 . S
C661 C677 1.429 . S
C661 H683 0.950 . S
C662 H658 0.949 . S
C662 C670 1.574 . S
C662 C678 1.368 . S
H663 C671 0.950 . S
H664 C669 0.950 . S
H665 C670 0.949 . S
H666 C672 0.950 . S
H667 C673 0.950 . S
H668 C674 0.949 . S
C669 H664 0.950 . S
C669 C671 1.327 . S
C669 C675 1.429 . S
C670 C662 1.574 . S
C670 H665 0.949 . S
C670 C676 1.368 . S
C671 C655 1.349 . S
C671 H663 0.950 . S
C671 C669 1.327 . S
C672 C660 1.349 . S
C672 H666 0.950 . S
C672 C673 1.327 . S
C673 H667 0.950 . S
C673 C672 1.327 . S
C673 C677 1.429 . S
C674 C657 1.574 . S
C674 H668 0.949 . S
C674 C678 1.368 . S
C675 C656 1.429 . S
C675 C669 1.429 . S
C675 C676 1.523 . S
C676 C657 1.368 . S
C676 C670 1.368 . S
C676 C675 1.523 . S
C677 C661 1.429 . S
C677 C673 1.429 . S
C677 C678 1.523 . S
C678 C662 1.368 . S
C678 C674 1.368 . S
C678 C677 1.523 . S
H679 C654 0.950 . S
H680 C656 0.950 . S
H681 C657 0.949 . S
H682 C659 0.950 . S
H683 C661 0.950 . S
C684 C685 1.349 . S
C684 C686 1.327 . S
C684 H709 0.950 . S
C685 C684 1.349 . S
C685 C701 1.349 . S
C686 C684 1.327 . S
C686 C705 1.429 . S
C686 H710 0.950 . S
C687 C704 1.574 . S
C687 C706 1.368 . S
C687 H711 0.949 . S
H688 C692 0.949 . S
C689 C690 1.349 . S
C689 C691 1.327 . S
C689 H712 0.950 . S
C690 C689 1.349 . S
C690 C702 1.349 . S
C691 C689 1.327 . S
C691 C707 1.429 . S
C691 H713 0.950 . S
C692 H688 0.949 . S
C692 C700 1.574 . S
C692 C708 1.368 . S
H693 C701 0.950 . S
H694 C699 0.950 . S
H695 C700 0.949 . S
H696 C702 0.950 . S
H697 C703 0.950 . S
H698 C704 0.949 . S
C699 H694 0.950 . S
C699 C701 1.327 . S
C699 C705 1.429 . S
C700 C692 1.574 . S
C700 H695 0.949 . S
C700 C706 1.368 . S
C701 C685 1.349 . S
C701 H693 0.950 . S
C701 C699 1.327 . S
C702 C690 1.349 . S
C702 H696 0.950 . S
C702 C703 1.327 . S
C703 H697 0.950 . S
C703 C702 1.327 . S
C703 C707 1.429 . S
C704 C687 1.574 . S
C704 H698 0.949 . S
C704 C708 1.368 . S
C705 C686 1.429 . S
C705 C699 1.429 . S
C705 C706 1.523 . S
C706 C687 1.368 . S
C706 C700 1.368 . S
C706 C705 1.523 . S
C707 C691 1.429 . S
C707 C703 1.429 . S
C707 C708 1.523 . S
C708 C692 1.368 . S
C708 C704 1.368 . S
C708 C707 1.523 . S
H709 C684 0.950 . S
H710 C686 0.950 . S
H711 C687 0.949 . S
H712 C689 0.950 . S
H713 C691 0.950 . S
C714 C715 1.349 . S
C714 C716 1.327 . S
C714 H739 0.950 . S
C715 C714 1.349 . S
C715 C731 1.349 . S
C716 C714 1.327 . S
C716 C735 1.429 . S
C716 H740 0.950 . S
C717 C734 1.574 . S
C717 C736 1.368 . S
C717 H741 0.949 . S
H718 C722 0.949 . S
C719 C720 1.349 . S
C719 C721 1.327 . S
C719 H742 0.950 . S
C720 C719 1.349 . S
C720 C732 1.349 . S
C721 C719 1.327 . S
C721 C737 1.429 . S
C721 H743 0.950 . S
C722 H718 0.949 . S
C722 C730 1.574 . S
C722 C738 1.368 . S
H723 C731 0.950 . S
H724 C729 0.950 . S
H725 C730 0.949 . S
H726 C732 0.950 . S
H727 C733 0.950 . S
H728 C734 0.949 . S
C729 H724 0.950 . S
C729 C731 1.327 . S
C729 C735 1.429 . S
C730 C722 1.574 . S
C730 H725 0.949 . S
C730 C736 1.368 . S
C731 C715 1.349 . S
C731 H723 0.950 . S
C731 C729 1.327 . S
C732 C720 1.349 . S
C732 H726 0.950 . S
C732 C733 1.327 . S
C733 H727 0.950 . S
C733 C732 1.327 . S
C733 C737 1.429 . S
C734 C717 1.574 . S
C734 H728 0.949 . S
C734 C738 1.368 . S
C735 C716 1.429 . S
C735 C729 1.429 . S
C735 C736 1.523 . S
C736 C717 1.368 . S
C736 C730 1.368 . S
C736 C735 1.523 . S
C737 C721 1.429 . S
C737 C733 1.429 . S
C737 C738 1.523 . S
C738 C722 1.368 . S
C738 C734 1.368 . S
C738 C737 1.523 . S
H739 C714 0.950 . S
H740 C716 0.950 . S
H741 C717 0.949 . S
H742 C719 0.950 . S
H743 C721 0.950 . S
C744 C745 1.349 . S
C744 C746 1.327 . S
C744 H769 0.950 . S
C745 C744 1.349 . S
C745 C761 1.349 . S
C746 C744 1.327 . S
C746 C765 1.429 . S
C746 H770 0.950 . S
C747 C764 1.574 . S
C747 C766 1.368 . S
C747 H771 0.949 . S
H748 C752 0.949 . S
C749 C750 1.349 . S
C749 C751 1.327 . S
C749 H772 0.950 . S
C750 C749 1.349 . S
C750 C762 1.349 . S
C751 C749 1.327 . S
C751 C767 1.429 . S
C751 H773 0.950 . S
C752 H748 0.949 . S
C752 C760 1.574 . S
C752 C768 1.368 . S
H753 C761 0.950 . S
H754 C759 0.950 . S
H755 C760 0.949 . S
H756 C762 0.950 . S
H757 C763 0.950 . S
H758 C764 0.949 . S
C759 H754 0.950 . S
C759 C761 1.327 . S
C759 C765 1.429 . S
C760 C752 1.574 . S
C760 H755 0.949 . S
C760 C766 1.368 . S
C761 C745 1.349 . S
C761 H753 0.950 . S
C761 C759 1.327 . S
C762 C750 1.349 . S
C762 H756 0.950 . S
C762 C763 1.327 . S
C763 H757 0.950 . S
C763 C762 1.327 . S
C763 C767 1.429 . S
C764 C747 1.574 . S
C764 H758 0.949 . S
C764 C768 1.368 . S
C765 C746 1.429 . S
C765 C759 1.429 . S
C765 C766 1.523 . S
C766 C747 1.368 . S
C766 C760 1.368 . S
C766 C765 1.523 . S
C767 C751 1.429 . S
C767 C763 1.429 . S
C767 C768 1.523 . S
C768 C752 1.368 . S
C768 C764 1.368 . S
C768 C767 1.523 . S
H769 C744 0.950 . S
H770 C746 0.950 . S
H771 C747 0.949 . S
H772 C749 0.950 . S
H773 C751 0.950 . S
C774 C775 1.349 . S
C774 C776 1.327 . S
C774 H799 0.950 . S
C775 C774 1.349 . S
C775 C791 1.349 . S
C776 C774 1.327 . S
C776 C795 1.429 . S
C776 H800 0.950 . S
C777 C794 1.574 . S
C777 C796 1.368 . S
C777 H801 0.949 . S
H778 C782 0.949 . S
C779 C780 1.349 . S
C779 C781 1.327 . S
C779 H802 0.950 . S
C780 C779 1.349 . S
C780 C792 1.349 . S
C781 C779 1.327 . S
C781 C797 1.429 . S
C781 H803 0.950 . S
C782 H778 0.949 . S
C782 C790 1.574 . S
C782 C798 1.368 . S
H783 C791 0.950 . S
H784 C789 0.950 . S
H785 C790 0.949 . S
H786 C792 0.950 . S
H787 C793 0.950 . S
H788 C794 0.949 . S
C789 H784 0.950 . S
C789 C791 1.327 . S
C789 C795 1.429 . S
C790 C782 1.574 . S
C790 H785 0.949 . S
C790 C796 1.368 . S
C791 C775 1.349 . S
C791 H783 0.950 . S
C791 C789 1.327 . S
C792 C780 1.349 . S
C792 H786 0.950 . S
C792 C793 1.327 . S
C793 H787 0.950 . S
C793 C792 1.327 . S
C793 C797 1.429 . S
C794 C777 1.574 . S
C794 H788 0.949 . S
C794 C798 1.368 . S
C795 C776 1.429 . S
C795 C789 1.429 . S
C795 C796 1.523 . S
C796 C777 1.368 . S
C796 C790 1.368 . S
C796 C795 1.523 . S
C797 C781 1.429 . S
C797 C793 1.429 . S
C797 C798 1.523 . S
C798 C782 1.368 . S
C798 C794 1.368 . S
C798 C797 1.523 . S
H799 C774 0.950 . S
H800 C776 0.950 . S
H801 C777 0.949 . S
H802 C779 0.950 . S
H803 C781 0.950 . S
C804 C805 1.349 . S
C804 C806 1.327 . S
C804 H829 0.950 . S
C805 C804 1.349 . S
C805 C821 1.349 . S
C806 C804 1.327 . S
C806 C825 1.429 . S
C806 H830 0.950 . S
C807 C824 1.574 . S
C807 C826 1.368 . S
C807 H831 0.949 . S
H808 C812 0.949 . S
C809 C810 1.349 . S
C809 C811 1.327 . S
C809 H832 0.950 . S
C810 C809 1.349 . S
C810 C822 1.349 . S
C811 C809 1.327 . S
C811 C827 1.429 . S
C811 H833 0.950 . S
C812 H808 0.949 . S
C812 C820 1.574 . S
C812 C828 1.368 . S
H813 C821 0.950 . S
H814 C819 0.950 . S
H815 C820 0.949 . S
H816 C822 0.950 . S
H817 C823 0.950 . S
H818 C824 0.949 . S
C819 H814 0.950 . S
C819 C821 1.327 . S
C819 C825 1.429 . S
C820 C812 1.574 . S
C820 H815 0.949 . S
C820 C826 1.368 . S
C821 C805 1.349 . S
C821 H813 0.950 . S
C821 C819 1.327 . S
C822 C810 1.349 . S
C822 H816 0.950 . S
C822 C823 1.327 . S
C823 H817 0.950 . S
C823 C822 1.327 . S
C823 C827 1.429 . S
C824 C807 1.574 . S
C824 H818 0.949 . S
C824 C828 1.368 . S
C825 C806 1.429 . S
C825 C819 1.429 . S
C825 C826 1.523 . S
C826 C807 1.368 . S
C826 C820 1.368 . S
C826 C825 1.523 . S
C827 C811 1.429 . S
C827 C823 1.429 . S
C827 C828 1.523 . S
C828 C812 1.368 . S
C828 C824 1.368 . S
C828 C827 1.523 . S
H829 C804 0.950 . S
H830 C806 0.950 . S
H831 C807 0.949 . S
H832 C809 0.950 . S
H833 C811 0.950 . S
C834 C835 1.349 . S
C834 C836 1.327 . S
C834 H859 0.950 . S
C835 C834 1.349 . S
C835 C851 1.349 . S
C836 C834 1.327 . S
C836 C855 1.429 . S
C836 H860 0.950 . S
C837 C854 1.574 . S
C837 C856 1.368 . S
C837 H861 0.949 . S
H838 C842 0.949 . S
C839 C840 1.349 . S
C839 C841 1.327 . S
C839 H862 0.950 . S
C840 C839 1.349 . S
C840 C852 1.349 . S
C841 C839 1.327 . S
C841 C857 1.429 . S
C841 H863 0.950 . S
C842 H838 0.949 . S
C842 C850 1.574 . S
C842 C858 1.368 . S
H843 C851 0.950 . S
H844 C849 0.950 . S
H845 C850 0.949 . S
H846 C852 0.950 . S
H847 C853 0.950 . S
H848 C854 0.949 . S
C849 H844 0.950 . S
C849 C851 1.327 . S
C849 C855 1.429 . S
C850 C842 1.574 . S
C850 H845 0.949 . S
C850 C856 1.368 . S
C851 C835 1.349 . S
C851 H843 0.950 . S
C851 C849 1.327 . S
C852 C840 1.349 . S
C852 H846 0.950 . S
C852 C853 1.327 . S
C853 H847 0.950 . S
C853 C852 1.327 . S
C853 C857 1.429 . S
C854 C837 1.574 . S
C854 H848 0.949 . S
C854 C858 1.368 . S
C855 C836 1.429 . S
C855 C849 1.429 . S
C855 C856 1.523 . S
C856 C837 1.368 . S
C856 C850 1.368 . S
C856 C855 1.523 . S
C857 C841 1.429 . S
C857 C853 1.429 . S
C857 C858 1.523 . S
C858 C842 1.368 . S
C858 C854 1.368 . S
C858 C857 1.523 . S
H859 C834 0.950 . S
H860 C836 0.950 . S
H861 C837 0.949 . S
H862 C839 0.950 . S
H863 C841 0.950 . S
C864 C865 1.349 . S
C864 C866 1.327 . S
C864 H889 0.950 . S
C865 C864 1.349 . S
C865 C881 1.349 . S
C866 C864 1.327 . S
C866 C885 1.429 . S
C866 H890 0.950 . S
C867 C884 1.574 . S
C867 C886 1.368 . S
C867 H891 0.949 . S
H868 C872 0.949 . S
C869 C870 1.349 . S
C869 C871 1.327 . S
C869 H892 0.950 . S
C870 C869 1.349 . S
C870 C882 1.349 . S
C871 C869 1.327 . S
C871 C887 1.429 . S
C871 H893 0.950 . S
C872 H868 0.949 . S
C872 C880 1.574 . S
C872 C888 1.368 . S
H873 C881 0.950 . S
H874 C879 0.950 . S
H875 C880 0.949 . S
H876 C882 0.950 . S
H877 C883 0.950 . S
H878 C884 0.949 . S
C879 H874 0.950 . S
C879 C881 1.327 . S
C879 C885 1.429 . S
C880 C872 1.574 . S
C880 H875 0.949 . S
C880 C886 1.368 . S
C881 C865 1.349 . S
C881 H873 0.950 . S
C881 C879 1.327 . S
C882 C870 1.349 . S
C882 H876 0.950 . S
C882 C883 1.327 . S
C883 H877 0.950 . S
C883 C882 1.327 . S
C883 C887 1.429 . S
C884 C867 1.574 . S
C884 H878 0.949 . S
C884 C888 1.368 . S
C885 C866 1.429 . S
C885 C879 1.429 . S
C885 C886 1.523 . S
C886 C867 1.368 . S
C886 C880 1.368 . S
C886 C885 1.523 . S
C887 C871 1.429 . S
C887 C883 1.429 . S
C887 C888 1.523 . S
C888 C872 1.368 . S
C888 C884 1.368 . S
C888 C887 1.523 . S
H889 C864 0.950 . S
H890 C866 0.950 . S
H891 C867 0.949 . S
H892 C869 0.950 . S
H893 C871 0.950 . S
C894 C895 1.349 . S
C894 C896 1.327 . S
C894 H919 0.950 . S
C895 C894 1.349 . S
C895 C911 1.349 . S
C896 C894 1.327 . S
C896 C915 1.429 . S
C896 H920 0.950 . S
C897 C914 1.574 . S
C897 C916 1.368 . S
C897 H921 0.949 . S
H898 C902 0.949 . S
C899 C900 1.349 . S
C899 C901 1.327 . S
C899 H922 0.950 . S
C900 C899 1.349 . S
C900 C912 1.349 . S
C901 C899 1.327 . S
C901 C917 1.429 . S
C901 H923 0.950 . S
C902 H898 0.949 . S
C902 C910 1.574 . S
C902 C918 1.368 . S
H903 C911 0.950 . S
H904 C909 0.950 . S
H905 C910 0.949 . S
H906 C912 0.950 . S
H907 C913 0.950 . S
H908 C914 0.949 . S
C909 H904 0.950 . S
C909 C911 1.327 . S
C909 C915 1.429 . S
C910 C902 1.574 . S
C910 H905 0.949 . S
C910 C916 1.368 . S
C911 C895 1.349 . S
C911 H903 0.950 . S
C911 C909 1.327 . S
C912 C900 1.349 . S
C912 H906 0.950 . S
C912 C913 1.327 . S
C913 H907 0.950 . S
C913 C912 1.327 . S
C913 C917 1.429 . S
C914 C897 1.574 . S
C914 H908 0.949 . S
C914 C918 1.368 . S
C915 C896 1.429 . S
C915 C909 1.429 . S
C915 C916 1.523 . S
C916 C897 1.368 . S
C916 C910 1.368 . S
C916 C915 1.523 . S
C917 C901 1.429 . S
C917 C913 1.429 . S
C917 C918 1.523 . S
C918 C902 1.368 . S
C918 C914 1.368 . S
C918 C917 1.523 . S
H919 C894 0.950 . S
H920 C896 0.950 . S
H921 C897 0.949 . S
H922 C899 0.950 . S
H923 C901 0.950 . S
C924 C925 1.349 . S
C924 C926 1.327 . S
C924 H949 0.950 . S
C925 C924 1.349 . S
C925 C941 1.349 . S
C926 C924 1.327 . S
C926 C945 1.429 . S
C926 H950 0.950 . S
C927 C944 1.574 . S
C927 C946 1.368 . S
C927 H951 0.949 . S
H928 C932 0.949 . S
C929 C930 1.349 . S
C929 C931 1.327 . S
C929 H952 0.950 . S
C930 C929 1.349 . S
C930 C942 1.349 . S
C931 C929 1.327 . S
C931 C947 1.429 . S
C931 H953 0.950 . S
C932 H928 0.949 . S
C932 C940 1.574 . S
C932 C948 1.368 . S
H933 C941 0.950 . S
H934 C939 0.950 . S
H935 C940 0.949 . S
H936 C942 0.950 . S
H937 C943 0.950 . S
H938 C944 0.949 . S
C939 H934 0.950 . S
C939 C941 1.327 . S
C939 C945 1.429 . S
C940 C932 1.574 . S
C940 H935 0.949 . S
C940 C946 1.368 . S
C941 C925 1.349 . S
C941 H933 0.950 . S
C941 C939 1.327 . S
C942 C930 1.349 . S
C942 H936 0.950 . S
C942 C943 1.327 . S
C943 H937 0.950 . S
C943 C942 1.327 . S
C943 C947 1.429 . S
C944 C927 1.574 . S
C944 H938 0.949 . S
C944 C948 1.368 . S
C945 C926 1.429 . S
C945 C939 1.429 . S
C945 C946 1.523 . S
C946 C927 1.368 . S
C946 C940 1.368 . S
C946 C945 1.523 . S
C947 C931 1.429 . S
C947 C943 1.429 . S
C947 C948 1.523 . S
C948 C932 1.368 . S
C948 C944 1.368 . S
C948 C947 1.523 . S
H949 C924 0.950 . S
H950 C926 0.950 . S
H951 C927 0.949 . S
H952 C929 0.950 . S
H953 C931 0.950 . S
C954 C955 1.349 . S
C954 C956 1.327 . S
C954 H979 0.950 . S
C955 C954 1.349 . S
C955 C971 1.349 . S
C956 C954 1.327 . S
C956 C975 1.429 . S
C956 H980 0.950 . S
C957 C974 1.574 . S
C957 C976 1.368 . S
C957 H981 0.949 . S
H958 C962 0.949 . S
C959 C960 1.349 . S
C959 C961 1.327 . S
C959 H982 0.950 . S
C960 C959 1.349 . S
C960 C972 1.349 . S
C961 C959 1.327 . S
C961 C977 1.429 . S
C961 H983 0.950 . S
C962 H958 0.949 . S
C962 C970 1.574 . S
C962 C978 1.368 . S
H963 C971 0.950 . S
H964 C969 0.950 . S
H965 C970 0.949 . S
H966 C972 0.950 . S
H967 C973 0.950 . S
H968 C974 0.949 . S
C969 H964 0.950 . S
C969 C971 1.327 . S
C969 C975 1.429 . S
C970 C962 1.574 . S
C970 H965 0.949 . S
C970 C976 1.368 . S
C971 C955 1.349 . S
C971 H963 0.950 . S
C971 C969 1.327 . S
C972 C960 1.349 . S
C972 H966 0.950 . S
C972 C973 1.327 . S
C973 H967 0.950 . S
C973 C972 1.327 . S
C973 C977 1.429 . S
C974 C957 1.574 . S
C974 H968 0.949 . S
C974 C978 1.368 . S
C975 C956 1.429 . S
C975 C969 1.429 . S
C975 C976 1.523 . S
C976 C957 1.368 . S
C976 C970 1.368 . S
C976 C975 1.523 . S
C977 C961 1.429 . S
C977 C973 1.429 . S
C977 C978 1.523 . S
C978 C962 1.368 . S
C978 C974 1.368 . S
C978 C977 1.523 . S
H979 C954 0.950 . S
H980 C956 0.950 . S
H981 C957 0.949 . S
H982 C959 0.950 . S
H983 C961 0.950 . S
C984 C985 1.349 . S
C984 C986 1.327 . S
C984 H1009 0.950 . S
C985 C984 1.349 . S
C985 C1001 1.349 . S
C986 C984 1.327 . S
C986 C1005 1.429 . S
C986 H1010 0.950 . S
C987 C1004 1.574 1_565 S
C987 C1006 1.368 . S
C987 H1011 0.949 . S
H988 C992 0.949 . S
C989 C990 1.349 . S
C989 C991 1.327 . S
C989 H1012 0.950 . S
C990 C989 1.349 . S
C990 C1002 1.349 . S
C991 C989 1.327 . S
C991 C1007 1.429 . S
C991 H1013 0.950 . S
C992 H988 0.949 . S
C992 C1000 1.574 1_545 S
C992 C1008 1.368 . S
H993 C1001 0.950 . S
H994 C999 0.950 . S
H995 C1000 0.949 . S
H996 C1002 0.950 . S
H997 C1003 0.950 . S
H998 C1004 0.949 . S
C999 H994 0.950 . S
C999 C1001 1.327 . S
C999 C1005 1.429 . S
C1000 C992 1.574 1_565 S
C1000 H995 0.949 . S
C1000 C1006 1.368 . S
C1001 C985 1.349 . S
C1001 H993 0.950 . S
C1001 C999 1.327 . S
C1002 C990 1.349 . S
C1002 H996 0.950 . S
C1002 C1003 1.327 . S
C1003 H997 0.950 . S
C1003 C1002 1.327 . S
C1003 C1007 1.429 . S
C1004 C987 1.574 1_545 S
C1004 H998 0.949 . S
C1004 C1008 1.368 . S
C1005 C986 1.429 . S
C1005 C999 1.429 . S
C1005 C1006 1.523 . S
C1006 C987 1.368 . S
C1006 C1000 1.368 . S
C1006 C1005 1.523 . S
C1007 C991 1.429 . S
C1007 C1003 1.429 . S
C1007 C1008 1.523 . S
C1008 C992 1.368 . S
C1008 C1004 1.368 . S
C1008 C1007 1.523 . S
H1009 C984 0.950 . S
H1010 C986 0.950 . S
H1011 C987 0.949 . S
H1012 C989 0.950 . S
H1013 C991 0.950 . S
C1014 C1015 1.349 . S
C1014 C1016 1.327 . S
C1014 H1039 0.950 . S
C1015 C1014 1.349 . S
C1015 C1031 1.349 . S
C1016 C1014 1.327 . S
C1016 C1035 1.429 . S
C1016 H1040 0.950 . S
C1017 C1034 1.574 1_455 S
C1017 C1036 1.368 . S
C1017 H1041 0.949 . S
H1018 C1022 0.949 . S
C1019 C1020 1.349 . S
C1019 C1021 1.327 . S
C1019 H1042 0.950 . S
C1020 C1019 1.349 . S
C1020 C1032 1.349 . S
C1021 C1019 1.327 . S
C1021 C1037 1.429 . S
C1021 H1043 0.950 . S
C1022 H1018 0.949 . S
C1022 C1030 1.574 1_655 S
C1022 C1038 1.368 . S
H1023 C1031 0.950 . S
H1024 C1029 0.950 . S
H1025 C1030 0.949 . S
H1026 C1032 0.950 . S
H1027 C1033 0.950 . S
H1028 C1034 0.949 . S
C1029 H1024 0.950 . S
C1029 C1031 1.327 . S
C1029 C1035 1.429 . S
C1030 C1022 1.574 1_455 S
C1030 H1025 0.949 . S
C1030 C1036 1.368 . S
C1031 C1015 1.349 . S
C1031 H1023 0.950 . S
C1031 C1029 1.327 . S
C1032 C1020 1.349 . S
C1032 H1026 0.950 . S
C1032 C1033 1.327 . S
C1033 H1027 0.950 . S
C1033 C1032 1.327 . S
C1033 C1037 1.429 . S
C1034 C1017 1.574 1_655 S
C1034 H1028 0.949 . S
C1034 C1038 1.368 . S
C1035 C1016 1.429 . S
C1035 C1029 1.429 . S
C1035 C1036 1.523 . S
C1036 C1017 1.368 . S
C1036 C1030 1.368 . S
C1036 C1035 1.523 . S
C1037 C1021 1.429 . S
C1037 C1033 1.429 . S
C1037 C1038 1.523 . S
C1038 C1022 1.368 . S
C1038 C1034 1.368 . S
C1038 C1037 1.523 . S
H1039 C1014 0.950 . S
H1040 C1016 0.950 . S
H1041 C1017 0.949 . S
H1042 C1019 0.950 . S
H1043 C1021 0.950 . S
C1044 C1045 1.349 . S
C1044 C1046 1.327 . S
C1044 H1069 0.950 . S
C1045 C1044 1.349 . S
C1045 C1061 1.349 . S
C1046 C1044 1.327 . S
C1046 C1065 1.429 . S
C1046 H1070 0.950 . S
C1047 C1064 1.574 1_545 S
C1047 C1066 1.368 . S
C1047 H1071 0.949 . S
H1048 C1052 0.949 . S
C1049 C1050 1.349 . S
C1049 C1051 1.327 . S
C1049 H1072 0.950 . S
C1050 C1049 1.349 . S
C1050 C1062 1.349 . S
C1051 C1049 1.327 . S
C1051 C1067 1.429 . S
C1051 H1073 0.950 . S
C1052 H1048 0.949 . S
C1052 C1060 1.574 1_565 S
C1052 C1068 1.368 . S
H1053 C1061 0.950 . S
H1054 C1059 0.950 . S
H1055 C1060 0.949 . S
H1056 C1062 0.950 . S
H1057 C1063 0.950 . S
H1058 C1064 0.949 . S
C1059 H1054 0.950 . S
C1059 C1061 1.327 . S
C1059 C1065 1.429 . S
C1060 C1052 1.574 1_545 S
C1060 H1055 0.949 . S
C1060 C1066 1.368 . S
C1061 C1045 1.349 . S
C1061 H1053 0.950 . S
C1061 C1059 1.327 . S
C1062 C1050 1.349 . S
C1062 H1056 0.950 . S
C1062 C1063 1.327 . S
C1063 H1057 0.950 . S
C1063 C1062 1.327 . S
C1063 C1067 1.429 . S
C1064 C1047 1.574 1_565 S
C1064 H1058 0.949 . S
C1064 C1068 1.368 . S
C1065 C1046 1.429 . S
C1065 C1059 1.429 . S
C1065 C1066 1.523 . S
C1066 C1047 1.368 . S
C1066 C1060 1.368 . S
C1066 C1065 1.523 . S
C1067 C1051 1.429 . S
C1067 C1063 1.429 . S
C1067 C1068 1.523 . S
C1068 C1052 1.368 . S
C1068 C1064 1.368 . S
C1068 C1067 1.523 . S
H1069 C1044 0.950 . S
H1070 C1046 0.950 . S
H1071 C1047 0.949 . S
H1072 C1049 0.950 . S
H1073 C1051 0.950 . S
C1074 C1075 1.349 . S
C1074 C1076 1.327 . S
C1074 H1099 0.950 . S
C1075 C1074 1.349 . S
C1075 C1091 1.349 . S
C1076 C1074 1.327 . S
C1076 C1095 1.429 . S
C1076 H1100 0.950 . S
C1077 C1094 1.574 1_455 S
C1077 C1096 1.368 . S
C1077 H1101 0.949 . S
H1078 C1082 0.949 . S
C1079 C1080 1.349 . S
C1079 C1081 1.327 . S
C1079 H1102 0.950 . S
C1080 C1079 1.349 . S
C1080 C1092 1.349 . S
C1081 C1079 1.327 . S
C1081 C1097 1.429 . S
C1081 H1103 0.950 . S
C1082 H1078 0.949 . S
C1082 C1090 1.574 1_655 S
C1082 C1098 1.368 . S
H1083 C1091 0.950 . S
H1084 C1089 0.950 . S
H1085 C1090 0.949 . S
H1086 C1092 0.950 . S
H1087 C1093 0.950 . S
H1088 C1094 0.949 . S
C1089 H1084 0.950 . S
C1089 C1091 1.327 . S
C1089 C1095 1.429 . S
C1090 C1082 1.574 1_455 S
C1090 H1085 0.949 . S
C1090 C1096 1.368 . S
C1091 C1075 1.349 . S
C1091 H1083 0.950 . S
C1091 C1089 1.327 . S
C1092 C1080 1.349 . S
C1092 H1086 0.950 . S
C1092 C1093 1.327 . S
C1093 H1087 0.950 . S
C1093 C1092 1.327 . S
C1093 C1097 1.429 . S
C1094 C1077 1.574 1_655 S
C1094 H1088 0.949 . S
C1094 C1098 1.368 . S
C1095 C1076 1.429 . S
C1095 C1089 1.429 . S
C1095 C1096 1.523 . S
C1096 C1077 1.368 . S
C1096 C1090 1.368 . S
C1096 C1095 1.523 . S
C1097 C1081 1.429 . S
C1097 C1093 1.429 . S
C1097 C1098 1.523 . S
C1098 C1082 1.368 . S
C1098 C1094 1.368 . S
C1098 C1097 1.523 . S
H1099 C1074 0.950 . S
H1100 C1076 0.950 . S
H1101 C1077 0.949 . S
H1102 C1079 0.950 . S
H1103 C1081 0.950 . S
C1104 C1105 1.349 . S
C1104 C1106 1.327 . S
C1104 H1129 0.950 . S
C1105 C1104 1.349 . S
C1105 C1121 1.349 . S
C1106 C1104 1.327 . S
C1106 C1125 1.429 . S
C1106 H1130 0.950 . S
C1107 C1124 1.574 1_556 S
C1107 C1126 1.368 . S
C1107 H1131 0.949 . S
H1108 C1112 0.949 . S
C1109 C1110 1.349 . S
C1109 C1111 1.327 . S
C1109 H1132 0.950 . S
C1110 C1109 1.349 . S
C1110 C1122 1.349 . S
C1111 C1109 1.327 . S
C1111 C1127 1.429 . S
C1111 H1133 0.950 . S
C1112 H1108 0.949 . S
C1112 C1120 1.574 1_554 S
C1112 C1128 1.368 . S
H1113 C1121 0.950 . S
H1114 C1119 0.950 . S
H1115 C1120 0.949 . S
H1116 C1122 0.950 . S
H1117 C1123 0.950 . S
H1118 C1124 0.949 . S
C1119 H1114 0.950 . S
C1119 C1121 1.327 . S
C1119 C1125 1.429 . S
C1120 C1112 1.574 1_556 S
C1120 H1115 0.949 . S
C1120 C1126 1.368 . S
C1121 C1105 1.349 . S
C1121 H1113 0.950 . S
C1121 C1119 1.327 . S
C1122 C1110 1.349 . S
C1122 H1116 0.950 . S
C1122 C1123 1.327 . S
C1123 H1117 0.950 . S
C1123 C1122 1.327 . S
C1123 C1127 1.429 . S
C1124 C1107 1.574 1_554 S
C1124 H1118 0.949 . S
C1124 C1128 1.368 . S
C1125 C1106 1.429 . S
C1125 C1119 1.429 . S
C1125 C1126 1.523 . S
C1126 C1107 1.368 . S
C1126 C1120 1.368 . S
C1126 C1125 1.523 . S
C1127 C1111 1.429 . S
C1127 C1123 1.429 . S
C1127 C1128 1.523 . S
C1128 C1112 1.368 . S
C1128 C1124 1.368 . S
C1128 C1127 1.523 . S
H1129 C1104 0.950 . S
H1130 C1106 0.950 . S
H1131 C1107 0.949 . S
H1132 C1109 0.950 . S
H1133 C1111 0.950 . S
C1134 C1135 1.349 . S
C1134 C1136 1.327 . S
C1134 H1159 0.950 . S
C1135 C1134 1.349 . S
C1135 C1151 1.349 . S
C1136 C1134 1.327 . S
C1136 C1155 1.429 . S
C1136 H1160 0.950 . S
C1137 C1154 1.574 1_556 S
C1137 C1156 1.368 . S
C1137 H1161 0.949 . S
H1138 C1142 0.949 . S
C1139 C1140 1.349 . S
C1139 C1141 1.327 . S
C1139 H1162 0.950 . S
C1140 C1139 1.349 . S
C1140 C1152 1.349 . S
C1141 C1139 1.327 . S
C1141 C1157 1.429 . S
C1141 H1163 0.950 . S
C1142 H1138 0.949 . S
C1142 C1150 1.574 1_554 S
C1142 C1158 1.368 . S
H1143 C1151 0.950 . S
H1144 C1149 0.950 . S
H1145 C1150 0.949 . S
H1146 C1152 0.950 . S
H1147 C1153 0.950 . S
H1148 C1154 0.949 . S
C1149 H1144 0.950 . S
C1149 C1151 1.327 . S
C1149 C1155 1.429 . S
C1150 C1142 1.574 1_556 S
C1150 H1145 0.949 . S
C1150 C1156 1.368 . S
C1151 C1135 1.349 . S
C1151 H1143 0.950 . S
C1151 C1149 1.327 . S
C1152 C1140 1.349 . S
C1152 H1146 0.950 . S
C1152 C1153 1.327 . S
C1153 H1147 0.950 . S
C1153 C1152 1.327 . S
C1153 C1157 1.429 . S
C1154 C1137 1.574 1_554 S
C1154 H1148 0.949 . S
C1154 C1158 1.368 . S
C1155 C1136 1.429 . S
C1155 C1149 1.429 . S
C1155 C1156 1.523 . S
C1156 C1137 1.368 . S
C1156 C1150 1.368 . S
C1156 C1155 1.523 . S
C1157 C1141 1.429 . S
C1157 C1153 1.429 . S
C1157 C1158 1.523 . S
C1158 C1142 1.368 . S
C1158 C1154 1.368 . S
C1158 C1157 1.523 . S
H1159 C1134 0.950 . S
H1160 C1136 0.950 . S
H1161 C1137 0.949 . S
H1162 C1139 0.950 . S
H1163 C1141 0.950 . S
C1164 C1165 1.349 . S
C1164 C1166 1.327 . S
C1164 H1189 0.950 . S
C1165 C1164 1.349 . S
C1165 C1181 1.349 . S
C1166 C1164 1.327 . S
C1166 C1185 1.429 . S
C1166 H1190 0.950 . S
C1167 C1184 1.574 1_554 S
C1167 C1186 1.368 . S
C1167 H1191 0.949 . S
H1168 C1172 0.949 . S
C1169 C1170 1.349 . S
C1169 C1171 1.327 . S
C1169 H1192 0.950 . S
C1170 C1169 1.349 . S
C1170 C1182 1.349 . S
C1171 C1169 1.327 . S
C1171 C1187 1.429 . S
C1171 H1193 0.950 . S
C1172 H1168 0.949 . S
C1172 C1180 1.574 1_556 S
C1172 C1188 1.368 . S
H1173 C1181 0.950 . S
H1174 C1179 0.950 . S
H1175 C1180 0.949 . S
H1176 C1182 0.950 . S
H1177 C1183 0.950 . S
H1178 C1184 0.949 . S
C1179 H1174 0.950 . S
C1179 C1181 1.327 . S
C1179 C1185 1.429 . S
C1180 C1172 1.574 1_554 S
C1180 H1175 0.949 . S
C1180 C1186 1.368 . S
C1181 C1165 1.349 . S
C1181 H1173 0.950 . S
C1181 C1179 1.327 . S
C1182 C1170 1.349 . S
C1182 H1176 0.950 . S
C1182 C1183 1.327 . S
C1183 H1177 0.950 . S
C1183 C1182 1.327 . S
C1183 C1187 1.429 . S
C1184 C1167 1.574 1_556 S
C1184 H1178 0.949 . S
C1184 C1188 1.368 . S
C1185 C1166 1.429 . S
C1185 C1179 1.429 . S
C1185 C1186 1.523 . S
C1186 C1167 1.368 . S
C1186 C1180 1.368 . S
C1186 C1185 1.523 . S
C1187 C1171 1.429 . S
C1187 C1183 1.429 . S
C1187 C1188 1.523 . S
C1188 C1172 1.368 . S
C1188 C1184 1.368 . S
C1188 C1187 1.523 . S
H1189 C1164 0.950 . S
H1190 C1166 0.950 . S
H1191 C1167 0.949 . S
H1192 C1169 0.950 . S
H1193 C1171 0.950 . S
C1194 C1195 1.349 . S
C1194 C1196 1.327 . S
C1194 H1219 0.950 . S
C1195 C1194 1.349 . S
C1195 C1211 1.349 . S
C1196 C1194 1.327 . S
C1196 C1215 1.429 . S
C1196 H1220 0.950 . S
C1197 C1214 1.574 1_556 S
C1197 C1216 1.368 . S
C1197 H1221 0.949 . S
H1198 C1202 0.949 . S
C1199 C1200 1.349 . S
C1199 C1201 1.327 . S
C1199 H1222 0.950 . S
C1200 C1199 1.349 . S
C1200 C1212 1.349 . S
C1201 C1199 1.327 . S
C1201 C1217 1.429 . S
C1201 H1223 0.950 . S
C1202 H1198 0.949 . S
C1202 C1210 1.574 1_554 S
C1202 C1218 1.368 . S
H1203 C1211 0.950 . S
H1204 C1209 0.950 . S
H1205 C1210 0.949 . S
H1206 C1212 0.950 . S
H1207 C1213 0.950 . S
H1208 C1214 0.949 . S
C1209 H1204 0.950 . S
C1209 C1211 1.327 . S
C1209 C1215 1.429 . S
C1210 C1202 1.574 1_556 S
C1210 H1205 0.949 . S
C1210 C1216 1.368 . S
C1211 C1195 1.349 . S
C1211 H1203 0.950 . S
C1211 C1209 1.327 . S
C1212 C1200 1.349 . S
C1212 H1206 0.950 . S
C1212 C1213 1.327 . S
C1213 H1207 0.950 . S
C1213 C1212 1.327 . S
C1213 C1217 1.429 . S
C1214 C1197 1.574 1_554 S
C1214 H1208 0.949 . S
C1214 C1218 1.368 . S
C1215 C1196 1.429 . S
C1215 C1209 1.429 . S
C1215 C1216 1.523 . S
C1216 C1197 1.368 . S
C1216 C1210 1.368 . S
C1216 C1215 1.523 . S
C1217 C1201 1.429 . S
C1217 C1213 1.429 . S
C1217 C1218 1.523 . S
C1218 C1202 1.368 . S
C1218 C1214 1.368 . S
C1218 C1217 1.523 . S
H1219 C1194 0.950 . S
H1220 C1196 0.950 . S
H1221 C1197 0.949 . S
H1222 C1199 0.950 . S
H1223 C1201 0.950 . S
C1224 C1225 1.349 . S
C1224 C1226 1.327 . S
C1224 H1249 0.950 . S
C1225 C1224 1.349 . S
C1225 C1241 1.349 . S
C1226 C1224 1.327 . S
C1226 C1245 1.429 . S
C1226 H1250 0.950 . S
C1227 C1244 1.574 1_455 S
C1227 C1246 1.368 . S
C1227 H1251 0.949 . S
H1228 C1232 0.949 . S
C1229 C1230 1.349 . S
C1229 C1231 1.327 . S
C1229 H1252 0.950 . S
C1230 C1229 1.349 . S
C1230 C1242 1.349 . S
C1231 C1229 1.327 . S
C1231 C1247 1.429 . S
C1231 H1253 0.950 . S
C1232 H1228 0.949 . S
C1232 C1240 1.574 1_655 S
C1232 C1248 1.368 . S
H1233 C1241 0.950 . S
H1234 C1239 0.950 . S
H1235 C1240 0.949 . S
H1236 C1242 0.950 . S
H1237 C1243 0.950 . S
H1238 C1244 0.949 . S
C1239 H1234 0.950 . S
C1239 C1241 1.327 . S
C1239 C1245 1.429 . S
C1240 C1232 1.574 1_455 S
C1240 H1235 0.949 . S
C1240 C1246 1.368 . S
C1241 C1225 1.349 . S
C1241 H1233 0.950 . S
C1241 C1239 1.327 . S
C1242 C1230 1.349 . S
C1242 H1236 0.950 . S
C1242 C1243 1.327 . S
C1243 H1237 0.950 . S
C1243 C1242 1.327 . S
C1243 C1247 1.429 . S
C1244 C1227 1.574 1_655 S
C1244 H1238 0.949 . S
C1244 C1248 1.368 . S
C1245 C1226 1.429 . S
C1245 C1239 1.429 . S
C1245 C1246 1.523 . S
C1246 C1227 1.368 . S
C1246 C1240 1.368 . S
C1246 C1245 1.523 . S
C1247 C1231 1.429 . S
C1247 C1243 1.429 . S
C1247 C1248 1.523 . S
C1248 C1232 1.368 . S
C1248 C1244 1.368 . S
C1248 C1247 1.523 . S
H1249 C1224 0.950 . S
H1250 C1226 0.950 . S
H1251 C1227 0.949 . S
H1252 C1229 0.950 . S
H1253 C1231 0.950 . S
C1254 C1255 1.349 . S
C1254 C1256 1.327 . S
C1254 H1279 0.950 . S
C1255 C1254 1.349 . S
C1255 C1271 1.349 . S
C1256 C1254 1.327 . S
C1256 C1275 1.429 . S
C1256 H1280 0.950 . S
C1257 C1274 1.574 1_655 S
C1257 C1276 1.368 . S
C1257 H1281 0.949 . S
H1258 C1262 0.949 . S
C1259 C1260 1.349 . S
C1259 C1261 1.327 . S
C1259 H1282 0.950 . S
C1260 C1259 1.349 . S
C1260 C1272 1.349 . S
C1261 C1259 1.327 . S
C1261 C1277 1.429 . S
C1261 H1283 0.950 . S
C1262 H1258 0.949 . S
C1262 C1270 1.574 1_455 S
C1262 C1278 1.368 . S
H1263 C1271 0.950 . S
H1264 C1269 0.950 . S
H1265 C1270 0.949 . S
H1266 C1272 0.950 . S
H1267 C1273 0.950 . S
H1268 C1274 0.949 . S
C1269 H1264 0.950 . S
C1269 C1271 1.327 . S
C1269 C1275 1.429 . S
C1270 C1262 1.574 1_655 S
C1270 H1265 0.949 . S
C1270 C1276 1.368 . S
C1271 C1255 1.349 . S
C1271 H1263 0.950 . S
C1271 C1269 1.327 . S
C1272 C1260 1.349 . S
C1272 H1266 0.950 . S
C1272 C1273 1.327 . S
C1273 H1267 0.950 . S
C1273 C1272 1.327 . S
C1273 C1277 1.429 . S
C1274 C1257 1.574 1_455 S
C1274 H1268 0.949 . S
C1274 C1278 1.368 . S
C1275 C1256 1.429 . S
C1275 C1269 1.429 . S
C1275 C1276 1.523 . S
C1276 C1257 1.368 . S
C1276 C1270 1.368 . S
C1276 C1275 1.523 . S
C1277 C1261 1.429 . S
C1277 C1273 1.429 . S
C1277 C1278 1.523 . S
C1278 C1262 1.368 . S
C1278 C1274 1.368 . S
C1278 C1277 1.523 . S
H1279 C1254 0.950 . S
H1280 C1256 0.950 . S
H1281 C1257 0.949 . S
H1282 C1259 0.950 . S
H1283 C1261 0.950 . S
C1284 C1285 1.349 . S
C1284 C1286 1.327 . S
C1284 H1309 0.950 . S
C1285 C1284 1.349 . S
C1285 C1301 1.349 . S
C1286 C1284 1.327 . S
C1286 C1305 1.429 . S
C1286 H1310 0.950 . S
C1287 C1304 1.574 1_545 S
C1287 C1306 1.368 . S
C1287 H1311 0.949 . S
H1288 C1292 0.949 . S
C1289 C1290 1.349 . S
C1289 C1291 1.327 . S
C1289 H1312 0.950 . S
C1290 C1289 1.349 . S
C1290 C1302 1.349 . S
C1291 C1289 1.327 . S
C1291 C1307 1.429 . S
C1291 H1313 0.950 . S
C1292 H1288 0.949 . S
C1292 C1300 1.574 1_565 S
C1292 C1308 1.368 . S
H1293 C1301 0.950 . S
H1294 C1299 0.950 . S
H1295 C1300 0.949 . S
H1296 C1302 0.950 . S
H1297 C1303 0.950 . S
H1298 C1304 0.949 . S
C1299 H1294 0.950 . S
C1299 C1301 1.327 . S
C1299 C1305 1.429 . S
C1300 C1292 1.574 1_545 S
C1300 H1295 0.949 . S
C1300 C1306 1.368 . S
C1301 C1285 1.349 . S
C1301 H1293 0.950 . S
C1301 C1299 1.327 . S
C1302 C1290 1.349 . S
C1302 H1296 0.950 . S
C1302 C1303 1.327 . S
C1303 H1297 0.950 . S
C1303 C1302 1.327 . S
C1303 C1307 1.429 . S
C1304 C1287 1.574 1_565 S
C1304 H1298 0.949 . S
C1304 C1308 1.368 . S
C1305 C1286 1.429 . S
C1305 C1299 1.429 . S
C1305 C1306 1.523 . S
C1306 C1287 1.368 . S
C1306 C1300 1.368 . S
C1306 C1305 1.523 . S
C1307 C1291 1.429 . S
C1307 C1303 1.429 . S
C1307 C1308 1.523 . S
C1308 C1292 1.368 . S
C1308 C1304 1.368 . S
C1308 C1307 1.523 . S
H1309 C1284 0.950 . S
H1310 C1286 0.950 . S
H1311 C1287 0.949 . S
H1312 C1289 0.950 . S
H1313 C1291 0.950 . S
C1314 C1315 1.349 . S
C1314 C1316 1.327 . S
C1314 H1339 0.950 . S
C1315 C1314 1.349 . S
C1315 C1331 1.349 . S
C1316 C1314 1.327 . S
C1316 C1335 1.429 . S
C1316 H1340 0.950 . S
C1317 C1334 1.574 1_565 S
C1317 C1336 1.368 . S
C1317 H1341 0.949 . S
H1318 C1322 0.949 . S
C1319 C1320 1.349 . S
C1319 C1321 1.327 . S
C1319 H1342 0.950 . S
C1320 C1319 1.349 . S
C1320 C1332 1.349 . S
C1321 C1319 1.327 . S
C1321 C1337 1.429 . S
C1321 H1343 0.950 . S
C1322 H1318 0.949 . S
C1322 C1330 1.574 1_545 S
C1322 C1338 1.368 . S
H1323 C1331 0.950 . S
H1324 C1329 0.950 . S
H1325 C1330 0.949 . S
H1326 C1332 0.950 . S
H1327 C1333 0.950 . S
H1328 C1334 0.949 . S
C1329 H1324 0.950 . S
C1329 C1331 1.327 . S
C1329 C1335 1.429 . S
C1330 C1322 1.574 1_565 S
C1330 H1325 0.949 . S
C1330 C1336 1.368 . S
C1331 C1315 1.349 . S
C1331 H1323 0.950 . S
C1331 C1329 1.327 . S
C1332 C1320 1.349 . S
C1332 H1326 0.950 . S
C1332 C1333 1.327 . S
C1333 H1327 0.950 . S
C1333 C1332 1.327 . S
C1333 C1337 1.429 . S
C1334 C1317 1.574 1_545 S
C1334 H1328 0.949 . S
C1334 C1338 1.368 . S
C1335 C1316 1.429 . S
C1335 C1329 1.429 . S
C1335 C1336 1.523 . S
C1336 C1317 1.368 . S
C1336 C1330 1.368 . S
C1336 C1335 1.523 . S
C1337 C1321 1.429 . S
C1337 C1333 1.429 . S
C1337 C1338 1.523 . S
C1338 C1322 1.368 . S
C1338 C1334 1.368 . S
C1338 C1337 1.523 . S
H1339 C1314 0.950 . S
H1340 C1316 0.950 . S
H1341 C1317 0.949 . S
H1342 C1319 0.950 . S
H1343 C1321 0.950 . S
C265 C5 1.402 . S
C270 C161 1.402 . S
C295 C94 1.402 . S
C300 C31 1.402 . S
C325 C53 1.402 . S
C330 C117 1.402 . S
C355 C71 1.402 . S
C360 C139 1.402 . S
C385 C75 1.402 . S
C390 C204 1.402 . S
C415 C9 1.402 . S
C420 C227 1.402 . S
C445 C248 1.402 . S
C450 C27 1.402 . S
C475 C49 1.402 . S
C480 C182 1.402 . S
C505 C93 1.402 . S
C510 C7 1.402 . S
C535 C119 1.402 . S
C540 C28 1.402 . S
C565 C141 1.402 . S
C570 C50 1.402 . S
C595 C73 1.402 . S
C600 C163 1.402 . S
C625 C72 1.402 . S
C630 C181 1.402 . S
C655 C6 1.402 . S
C660 C203 1.402 . S
C685 C229 1.402 . S
C690 C29 1.402 . S
C715 C247 1.402 . S
C720 C51 1.402 . S
C745 C95 1.402 . S
C750 C159 1.402 . S
C775 C207 1.402 . S
C780 C183 1.402 . S
C805 C205 1.402 . S
C810 C225 1.402 . S
C835 C251 1.402 . S
C840 C226 1.402 . S
C865 C249 1.402 . S
C870 C185 1.402 . S
C895 C138 1.402 . S
C900 C115 1.402 . S
C925 C137 1.402 . S
C930 C160 1.402 . S
C955 C97 1.402 . S
C960 C116 1.402 . S
C985 C70 1.556 . S
C990 C8 1.556 . S
C1015 C4 1.556 . S
C1020 C26 1.556 . S
C1045 C30 1.556 . S
C1050 C48 1.556 . S
C1075 C74 1.556 . S
C1080 C52 1.556 . S
C1105 C224 1.556 . S
C1110 C96 1.556 . S
C1135 C250 1.556 . S
C1140 C114 1.556 . S
C1165 C136 1.556 . S
C1170 C184 1.556 . S
C1195 C206 1.556 . S
C1200 C158 1.556 . S
C1225 C162 1.556 . S
C1230 C118 1.556 . S
C1255 C246 1.556 . S
C1260 C202 1.556 . S
C1285 C228 1.556 . S
C1290 C180 1.556 . S
C1315 C140 1.556 . S
C1320 C92 1.556 . S
