# Generated by pormake.
# Topology ukf, (4)-cn, num edge types: 1
# Building blocks:
#     Node 0, Type 0, BuildingBlock: CEKHIL_clean_sbu_0, # of connection points: 4
#     Node 1, Type 0, BuildingBlock: CEKHIL_clean_sbu_0, # of connection points: 4
#     Node 2, Type 0, BuildingBlock: CEKHIL_clean_sbu_0, # of connection points: 4
#     Node 3, Type 0, BuildingBlock: CEKHIL_clean_sbu_0, # of connection points: 4
#     Node 4, Type 0, BuildingBlock: CEKHIL_clean_sbu_0, # of connection points: 4
#     Node 5, Type 0, BuildingBlock: CEKHIL_clean_sbu_0, # of connection points: 4
#     Node 6, Type 0, BuildingBlock: CEKHIL_clean_sbu_0, # of connection points: 4
#     Node 7, Type 0, BuildingBlock: CEKHIL_clean_sbu_0, # of connection points: 4
#     Node 8, Type 0, BuildingBlock: CEKHIL_clean_sbu_0, # of connection points: 4
#     Node 9, Type 0, BuildingBlock: CEKHIL_clean_sbu_0, # of connection points: 4
#     Node 10, Type 0, BuildingBlock: CEKHIL_clean_sbu_0, # of connection points: 4
#     Node 11, Type 0, BuildingBlock: CEKHIL_clean_sbu_0, # of connection points: 4
#     Edge 12, Type (0, 0), BuildingBlock: XIVTED_clean_linker_0, # of connection points: 2
#     Edge 13, Type (0, 0), BuildingBlock: XIVTED_clean_linker_0, # of connection points: 2
#     Edge 14, Type (0, 0), BuildingBlock: XIVTED_clean_linker_0, # of connection points: 2
#     Edge 15, Type (0, 0), BuildingBlock: XIVTED_clean_linker_0, # of connection points: 2
#     Edge 16, Type (0, 0), BuildingBlock: XIVTED_clean_linker_0, # of connection points: 2
#     Edge 17, Type (0, 0), BuildingBlock: XIVTED_clean_linker_0, # of connection points: 2
#     Edge 18, Type (0, 0), BuildingBlock: XIVTED_clean_linker_0, # of connection points: 2
#     Edge 19, Type (0, 0), BuildingBlock: XIVTED_clean_linker_0, # of connection points: 2
#     Edge 20, Type (0, 0), BuildingBlock: XIVTED_clean_linker_0, # of connection points: 2
#     Edge 21, Type (0, 0), BuildingBlock: XIVTED_clean_linker_0, # of connection points: 2
#     Edge 22, Type (0, 0), BuildingBlock: XIVTED_clean_linker_0, # of connection points: 2
#     Edge 23, Type (0, 0), BuildingBlock: XIVTED_clean_linker_0, # of connection points: 2
#     Edge 24, Type (0, 0), BuildingBlock: XIVTED_clean_linker_0, # of connection points: 2
#     Edge 25, Type (0, 0), BuildingBlock: XIVTED_clean_linker_0, # of connection points: 2
#     Edge 26, Type (0, 0), BuildingBlock: XIVTED_clean_linker_0, # of connection points: 2
#     Edge 27, Type (0, 0), BuildingBlock: XIVTED_clean_linker_0, # of connection points: 2
#     Edge 28, Type (0, 0), BuildingBlock: XIVTED_clean_linker_0, # of connection points: 2
#     Edge 29, Type (0, 0), BuildingBlock: XIVTED_clean_linker_0, # of connection points: 2
#     Edge 30, Type (0, 0), BuildingBlock: XIVTED_clean_linker_0, # of connection points: 2
#     Edge 31, Type (0, 0), BuildingBlock: XIVTED_clean_linker_0, # of connection points: 2
#     Edge 32, Type (0, 0), BuildingBlock: XIVTED_clean_linker_0, # of connection points: 2
#     Edge 33, Type (0, 0), BuildingBlock: XIVTED_clean_linker_0, # of connection points: 2
#     Edge 34, Type (0, 0), BuildingBlock: XIVTED_clean_linker_0, # of connection points: 2
#     Edge 35, Type (0, 0), BuildingBlock: XIVTED_clean_linker_0, # of connection points: 2
# Relax obj value: 0.105
# Max RMSD: 0.082
# Mean RMSD: 0.082
data_MOF--net-ukf--node1-CEKHIL_clean_sbu_0--edge1-XIVTED_clean_linker_0
_symmetry_space_group_name_H-M    P1
_symmetry_Int_Tables_number       1
_symmetry_cell_setting            triclinic
loop_
_symmetry_equiv_pos_as_xyz
'x, y, z'
_cell_length_a     32.43202
_cell_length_b     32.429368
_cell_length_c     64.008661
_cell_angle_alpha  89.9973
_cell_angle_beta   90.0094
_cell_angle_gamma 119.92726
loop_
_atom_site_label
_atom_site_type_symbol
_atom_site_fract_x
_atom_site_fract_y
_atom_site_fract_z
_atom_type_partial_charge
Co0 Co 0.43707 0.25558 0.03801 0.0
O1 O 0.48281 0.3162 0.04965 0.0
O2 O 0.41132 0.29874 0.03885 0.0
C3 C 0.48997 0.25176 0.01662 0.0
O4 O 0.38137 0.19622 0.02448 0.0
Co5 Co 0.45442 0.1687 0.04287 0.0
O6 O 0.40129 0.13864 0.02289 0.0
C7 C 0.41318 0.19682 0.07774 0.0
C8 C 0.45265 0.3305 0.0462 0.0
C9 C 0.37333 0.15453 0.01887 0.0
O10 O 0.41152 0.22924 0.06668 0.0
O11 O 0.43177 0.17229 0.07141 0.0
O12 O 0.46972 0.27586 0.01098 0.0
O13 O 0.48027 0.23411 0.03512 0.0
Co14 Co 0.18352 0.42526 0.3764 0.0
O15 O 0.16584 0.46979 0.38702 0.0
O16 O 0.11489 0.40006 0.37356 0.0
C17 C 0.24579 0.48127 0.35826 0.0
O18 O 0.1908 0.37123 0.36319 0.0
Co19 Co 0.28525 0.44141 0.38681 0.0
O20 O 0.26733 0.38903 0.36685 0.0
C21 C 0.2069 0.39613 0.41778 0.0
C22 C 0.12262 0.44046 0.38138 0.0
C23 C 0.22519 0.36258 0.3601 0.0
O24 O 0.17612 0.3962 0.40503 0.0
O25 O 0.25132 0.41504 0.41371 0.0
O26 O 0.20348 0.46087 0.35012 0.0
O27 O 0.24846 0.46907 0.37709 0.0
Co28 Co 0.75656 0.18045 0.71418 0.0
O29 O 0.69503 0.15865 0.72661 0.0
O30 O 0.7157 0.11203 0.70997 0.0
C31 C 0.75761 0.24261 0.69806 0.0
O32 O 0.81755 0.19182 0.69916 0.0
Co33 Co 0.84003 0.283 0.72461 0.0
O34 O 0.87374 0.26927 0.70255 0.0
C35 C 0.8148 0.20234 0.75379 0.0
C36 C 0.68285 0.11674 0.71957 0.0
C37 C 0.85925 0.22768 0.69535 0.0
O38 O 0.78226 0.1719 0.74154 0.0
O39 O 0.83864 0.2471 0.75016 0.0
O40 O 0.7367 0.20096 0.68932 0.0
O41 O 0.77467 0.24478 0.71642 0.0
Co42 Co 0.57936 0.75743 0.04398 0.0
O43 O 0.53533 0.69525 0.0547 0.0
O44 O 0.60543 0.71462 0.04147 0.0
C45 C 0.52288 0.76263 0.02557 0.0
O46 O 0.63323 0.81888 0.03092 0.0
Co47 Co 0.56137 0.84228 0.05369 0.0
O48 O 0.61426 0.87693 0.03398 0.0
C49 C 0.60887 0.81179 0.08485 0.0
C50 C 0.56517 0.68178 0.04927 0.0
C51 C 0.64152 0.86173 0.0277 0.0
O52 O 0.6082 0.77992 0.07257 0.0
O53 O 0.58969 0.83697 0.08048 0.0
O54 O 0.54389 0.74111 0.01759 0.0
O55 O 0.53489 0.77782 0.04435 0.0
Co56 Co 0.82437 0.57076 0.37756 0.0
O57 O 0.8418 0.52573 0.38777 0.0
O58 O 0.89294 0.59583 0.37467 0.0
C59 C 0.7619 0.51558 0.35918 0.0
O60 O 0.8174 0.62539 0.36486 0.0
Co61 Co 0.72257 0.55458 0.38809 0.0
O62 O 0.74071 0.60722 0.36822 0.0
C63 C 0.80121 0.59971 0.41902 0.0
C64 C 0.88507 0.55515 0.3822 0.0
C65 C 0.78302 0.63403 0.36174 0.0
O66 O 0.83186 0.59918 0.40634 0.0
O67 O 0.75683 0.58116 0.41491 0.0
O68 O 0.80423 0.53591 0.35106 0.0
O69 O 0.75938 0.52723 0.37812 0.0
Co70 Co 0.25681 0.83376 0.71083 0.0
O71 O 0.3179 0.85454 0.72353 0.0
O72 O 0.29803 0.90238 0.70745 0.0
C73 C 0.25608 0.77243 0.69409 0.0
O74 O 0.19636 0.82356 0.69569 0.0
Co75 Co 0.17252 0.7308 0.71977 0.0
O76 O 0.14149 0.74534 0.69675 0.0
C77 C 0.19736 0.80941 0.75014 0.0
C78 C 0.3305 0.89693 0.71701 0.0
C79 C 0.15569 0.78763 0.69058 0.0
O80 O 0.23032 0.84063 0.73828 0.0
O81 O 0.17337 0.76495 0.74585 0.0
O82 O 0.27735 0.81453 0.68575 0.0
O83 O 0.23832 0.76932 0.71236 0.0
Co84 Co 0.75574 0.57397 0.60905 0.0
O85 O 0.6942 0.52969 0.59778 0.0
O86 O 0.71286 0.60003 0.61056 0.0
C87 C 0.7598 0.51776 0.62807 0.0
O88 O 0.81616 0.62807 0.62262 0.0
Co89 Co 0.84221 0.55764 0.60182 0.0
O90 O 0.87079 0.60445 0.6246 0.0
C91 C 0.81268 0.60257 0.5689 0.0
C92 C 0.68043 0.55958 0.60273 0.0
C93 C 0.85636 0.63341 0.629 0.0
O94 O 0.78002 0.60224 0.58054 0.0
O95 O 0.83812 0.58428 0.57429 0.0
O96 O 0.73772 0.53873 0.6355 0.0
O97 O 0.77653 0.52991 0.6095 0.0
Co98 Co 0.18651 0.75734 0.93759 0.0
O99 O 0.16949 0.69618 0.92595 0.0
O100 O 0.11795 0.7135 0.94004 0.0
C101 C 0.24861 0.76225 0.95548 0.0
O102 O 0.19277 0.8173 0.95171 0.0
Co103 Co 0.28813 0.84434 0.92882 0.0
O104 O 0.26993 0.87528 0.95053 0.0
C105 C 0.21009 0.81521 0.89775 0.0
C106 C 0.12615 0.68162 0.93166 0.0
C107 C 0.2271 0.85931 0.95638 0.0
O108 O 0.17949 0.78152 0.90952 0.0
O109 O 0.2542 0.84114 0.90234 0.0
O110 O 0.20616 0.7397 0.96345 0.0
O111 O 0.25163 0.77884 0.93697 0.0
Co112 Co 0.43377 0.18174 0.26977 0.0
O113 O 0.4789 0.1641 0.2599 0.0
O114 O 0.40872 0.11325 0.27302 0.0
C115 C 0.48877 0.24463 0.28798 0.0
O116 O 0.37906 0.18892 0.28226 0.0
Co117 Co 0.44964 0.28302 0.25852 0.0
O118 O 0.39629 0.26512 0.27792 0.0
C119 C 0.4052 0.20376 0.22794 0.0
C120 C 0.44944 0.12095 0.26561 0.0
C121 C 0.36988 0.22312 0.28483 0.0
O122 O 0.40567 0.1735 0.24088 0.0
O123 O 0.4234 0.2482 0.2318 0.0
O124 O 0.46837 0.20246 0.29628 0.0
O125 O 0.47731 0.2468 0.26897 0.0
Co126 Co 0.25443 0.43627 0.60806 0.0
O127 O 0.31649 0.47988 0.59717 0.0
O128 O 0.29662 0.40934 0.61006 0.0
C129 C 0.25058 0.49283 0.62695 0.0
O130 O 0.1929 0.38289 0.62126 0.0
Co131 Co 0.17056 0.45609 0.59896 0.0
O132 O 0.13608 0.40376 0.61897 0.0
C133 C 0.19991 0.40894 0.56717 0.0
C134 C 0.32962 0.44962 0.60232 0.0
C135 C 0.15063 0.37577 0.62496 0.0
O136 O 0.23105 0.40808 0.57944 0.0
O137 O 0.17569 0.42904 0.57176 0.0
O138 O 0.27181 0.47121 0.63458 0.0
O139 O 0.23497 0.4814 0.60818 0.0
Co140 Co 0.83297 0.25415 0.94022 0.0
O141 O 0.84938 0.31414 0.92742 0.0
O142 O 0.90158 0.29804 0.94177 0.0
C143 C 0.77199 0.25075 0.9584 0.0
O144 O 0.82738 0.19559 0.95549 0.0
Co145 Co 0.7308 0.16626 0.93285 0.0
O146 O 0.7502 0.13737 0.95499 0.0
C147 C 0.80702 0.19324 0.90114 0.0
C148 C 0.89298 0.32919 0.9329 0.0
C149 C 0.7932 0.15389 0.9607 0.0
O150 O 0.83836 0.22718 0.91259 0.0
O151 O 0.76304 0.16802 0.90607 0.0
O152 O 0.81499 0.27496 0.96566 0.0
O153 O 0.76781 0.23221 0.94023 0.0
Co154 Co 0.57819 0.82188 0.2739 0.0
O155 O 0.53411 0.83957 0.26272 0.0
O156 O 0.60352 0.89058 0.27643 0.0
C157 C 0.52152 0.75997 0.29199 0.0
O158 O 0.63181 0.81472 0.28759 0.0
Co159 Co 0.56197 0.71965 0.26444 0.0
O160 O 0.61282 0.73762 0.28526 0.0
C161 C 0.60961 0.79766 0.23337 0.0
C162 C 0.56339 0.88286 0.2683 0.0
C163 C 0.63969 0.78013 0.2915 0.0
O164 O 0.6082 0.82861 0.24556 0.0
O165 O 0.5908 0.75338 0.23775 0.0
O166 O 0.54175 0.80241 0.30001 0.0
O167 O 0.53431 0.75698 0.27333 0.0
H168 H 0.21797 0.87182 -0.00197 0.0
H169 H 0.34768 0.14247 0.97775 0.0
H170 H 0.22077 0.92967 0.93719 0.0
H171 H 0.29884 0.08391 0.03906 0.0
H172 H 0.28915 0.06612 0.96243 0.0
H173 H 0.23414 0.94741 0.01381 0.0
C174 C 0.21975 0.89972 0.9881 0.0
C175 C 0.21758 0.89457 0.96636 0.0
C176 C 0.28985 0.07036 0.97922 0.0
C177 C 0.23855 0.98181 0.98404 0.0
C178 C 0.32291 0.11423 0.98792 0.0
C179 C 0.32755 0.11947 0.00964 0.0
C180 C 0.26252 0.03125 -0.00758 0.0
C181 C 0.2958 0.08126 0.0222 0.0
C182 C 0.22949 0.94311 -0.00296 0.0
C183 C 0.22172 0.93229 0.95407 0.0
N184 N 0.26546 0.0384 0.01346 0.0
N185 N 0.23309 0.97468 0.96302 0.0
H186 H 0.22982 0.28928 0.37733 0.0
H187 H 0.29822 0.22982 0.26706 0.0
H188 H 0.20766 0.33996 0.3186 0.0
H189 H 0.34431 0.20283 0.326 0.0
H190 H 0.24132 0.24545 0.28542 0.0
H191 H 0.24701 0.23383 0.35861 0.0
C192 C 0.2266 0.28719 0.36046 0.0
C193 C 0.21707 0.31892 0.34944 0.0
C194 C 0.26276 0.23472 0.29435 0.0
C195 C 0.23851 0.25694 0.32787 0.0
C196 C 0.29489 0.22532 0.28387 0.0
C197 C 0.32575 0.21487 0.29508 0.0
C198 C 0.26202 0.23446 0.31627 0.0
C199 C 0.32074 0.21028 0.31681 0.0
C200 C 0.23694 0.25592 0.34977 0.0
C201 C 0.21429 0.31563 0.32763 0.0
N202 N 0.29011 0.22101 0.32676 0.0
N203 N 0.22587 0.28581 0.31751 0.0
H204 H 0.93373 0.22647 0.71309 0.0
H205 H 0.07544 0.30397 0.60569 0.0
H206 H 0.86979 0.21973 0.65331 0.0
H207 H 0.1403 0.35001 0.66622 0.0
H208 H 1.00056 0.24707 0.62251 0.0
H209 H 0.00809 0.24502 0.69552 0.0
C210 C 0.93487 0.22691 0.69616 0.0
C211 C 0.89565 0.22119 0.68456 0.0
C212 C 0.03151 0.26845 0.63213 0.0
C213 C 0.9809 0.24388 0.66442 0.0
C214 C 0.07437 0.3005 0.62255 0.0
C215 C 0.11403 0.3313 0.63464 0.0
C216 C 0.02817 0.26757 0.65399 0.0
C217 C 0.11065 0.32636 0.65639 0.0
C218 C 0.97742 0.238 0.68618 0.0
C219 C 0.8991 0.22325 0.66274 0.0
N220 N 0.06813 0.29561 0.66542 0.0
N221 N 0.94132 0.23515 0.65336 0.0
H222 H 0.6705 0.87124 0.98683 0.0
H223 H 0.80342 0.14567 0.0026 0.0
H224 H 0.71201 0.9371 0.0474 0.0
H225 H 0.79813 0.08114 0.94317 0.0
H226 H 0.78489 0.071 0.01996 0.0
H227 H 0.73018 0.94637 0.97077 0.0
C228 C 0.69368 0.90092 -0.00324 0.0
C229 C 0.68666 0.89817 0.01841 0.0
C230 C 0.78944 0.07353 0.00316 0.0
C231 C 0.75333 0.9846 0.00028 0.0
C232 C 0.80068 0.11645 -0.00668 0.0
C233 C 0.80276 0.11952 0.97151 0.0
C234 C 0.77882 0.03318 0.99099 0.0
C235 C 0.7973 0.08015 0.96009 0.0
C236 C 0.72744 0.94401 0.98764 0.0
C237 C 0.71664 0.93797 0.03061 0.0
N238 N 0.78445 0.03826 0.96989 0.0
N239 N 0.74794 0.97978 0.02139 0.0
H240 H 0.71465 0.78095 0.27311 0.0
H241 H 0.78127 0.70711 0.38072 0.0
H242 H 0.66167 0.79282 0.33315 0.0
H243 H 0.79859 0.65903 0.3204 0.0
H244 H 0.76448 0.76467 0.36366 0.0
H245 H 0.77137 0.76338 0.29051 0.0
C246 C 0.71656 0.78199 0.29003 0.0
C247 C 0.68386 0.78872 0.30178 0.0
C248 C 0.77347 0.74269 0.35412 0.0
C249 C 0.74736 0.76698 0.32175 0.0
C250 C 0.78358 0.71023 0.36384 0.0
C251 C 0.7916 0.67864 0.3519 0.0
C252 C 0.77077 0.74314 0.33226 0.0
C253 C 0.79317 0.68324 0.33012 0.0
C254 C 0.74851 0.7714 0.29993 0.0
C255 C 0.6868 0.7885 0.32359 0.0
N256 N 0.78197 0.71433 0.32096 0.0
N257 N 0.71747 0.77694 0.3329 0.0
H258 H 0.91767 0.71548 0.60963 0.0
H259 H 0.14154 0.79195 0.64869 0.0
H260 H 0.8793 0.64934 0.67022 0.0
H261 H 0.08417 0.79253 0.70925 0.0
H262 H 0.06494 0.77204 0.63287 0.0
H263 H 0.99554 0.77489 0.62356 0.0
C264 C 0.9249 0.7149 0.62613 0.0
C265 C 0.89202 0.67794 0.63892 0.0
C266 C 0.06965 0.77873 0.64951 0.0
C267 C 0.98137 0.74413 0.65468 0.0
C268 C 0.11354 0.79035 0.65849 0.0
C269 C 0.11921 0.79465 0.6802 0.0
C270 C 0.03105 0.77015 0.66248 0.0
C271 C 0.08124 0.79025 0.69237 0.0
C272 C 0.96963 0.74819 0.63395 0.0
C273 C 0.9035 0.67774 0.65998 0.0
N274 N 0.0384 0.77699 0.68343 0.0
N275 N 0.94746 0.71004 0.66718 0.0
H276 H 0.7695 0.31953 0.98186 0.0
H277 H 0.49803 0.17372 0.01026 0.0
H278 H 0.68092 0.17816 0.95726 0.0
H279 H 0.56503 0.32353 -0.00366 0.0
H280 H 0.56736 0.17234 -0.00408 0.0
H281 H 0.69756 0.31964 -0.00605 0.0
C282 C 0.73498 0.28826 0.9794 0.0
C283 C 0.73074 0.24872 0.96867 0.0
C284 C 0.56649 0.2053 -0.00426 0.0
C285 C 0.64935 0.24874 0.98216 0.0
C286 C 0.52704 0.20606 0.00376 0.0
C287 C 0.52603 0.24869 0.00418 0.0
C288 C 0.6056 0.24784 0.98881 0.0
C289 C 0.5645 0.28989 -0.00409 0.0
C290 C 0.69416 0.28862 0.98598 0.0
C291 C 0.6854 0.20929 0.96549 0.0
N292 N 0.6034 0.2887 0.98885 0.0
N293 N 0.64629 0.21013 0.97234 0.0
H294 H 0.25674 0.50575 0.31684 0.0
H295 H 0.4965 0.74925 0.33339 0.0
H296 H 0.33002 0.54352 0.37613 0.0
H297 H 0.46051 0.67521 0.27429 0.0
H298 H 0.43003 0.67874 0.34963 0.0
H299 H 0.32647 0.57316 0.30069 0.0
C300 C 0.28755 0.52806 0.32638 0.0
C301 C 0.28784 0.51924 0.34777 0.0
C302 C 0.43708 0.67806 0.33313 0.0
C303 C 0.36663 0.59618 0.32968 0.0
C304 C 0.47476 0.71815 0.32391 0.0
C305 C 0.48382 0.71784 0.30255 0.0
C306 C 0.40803 0.63816 0.32074 0.0
C307 C 0.45474 0.67677 0.29086 0.0
C308 C 0.3272 0.56631 0.31721 0.0
C309 C 0.32852 0.54909 0.35954 0.0
N310 N 0.41778 0.63866 0.30007 0.0
N311 N 0.3662 0.58662 0.35037 0.0
H312 H 0.77591 0.32509 0.71693 0.0
H313 H 0.78647 0.4578 0.61164 0.0
H314 H 0.7462 0.25577 0.6568 0.0
H315 H 0.7411 0.49173 0.66938 0.0
H316 H 0.78794 0.39173 0.62897 0.0
H317 H 0.77851 0.3945 0.70045 0.0
C318 C 0.77023 0.32465 0.70023 0.0
C319 C 0.76079 0.28482 0.68812 0.0
C320 C 0.77777 0.4137 0.63784 0.0
C321 C 0.76417 0.36377 0.66936 0.0
C322 C 0.77716 0.45157 0.62805 0.0
C323 C 0.76343 0.48007 0.63914 0.0
C324 C 0.7653 0.40471 0.65895 0.0
C325 C 0.75167 0.47035 0.66032 0.0
C326 C 0.77146 0.36405 0.69093 0.0
C327 C 0.75343 0.2858 0.66663 0.0
N328 N 0.753 0.43335 0.66963 0.0
N329 N 0.75557 0.32492 0.65787 0.0
H330 H 0.33329 0.78535 0.93768 0.0
H331 H 0.46079 0.78533 0.04309 0.0
H332 H 0.25939 0.74762 -0.0032 0.0
H333 H 0.49852 0.74869 0.98405 0.0
H334 H 0.39462 0.78759 0.02612 0.0
H335 H 0.40209 0.7878 0.95448 0.0
C336 C 0.33171 0.77795 0.95425 0.0
C337 C 0.29068 0.76618 0.96594 0.0
C338 C 0.41747 0.77917 0.0169 0.0
C339 C 0.36915 0.76927 0.98511 0.0
C340 C 0.45537 0.77813 0.02649 0.0
C341 C 0.485 0.76668 0.0149 0.0
C342 C 0.40969 0.7695 -0.00449 0.0
C343 C 0.47631 0.7575 -0.0065 0.0
C344 C 0.37083 0.77909 0.96374 0.0
C345 C 0.29037 0.75669 0.98729 0.0
N346 N 0.43936 0.7593 0.98441 0.0
N347 N 0.32927 0.75866 -0.00373 0.0
H348 H 0.55021 0.32961 0.27037 0.0
H349 H 0.67618 0.45559 0.37648 0.0
H350 H 0.51137 0.25617 0.32961 0.0
H351 H 0.75098 0.49244 0.31756 0.0
H352 H 0.60684 0.39118 0.35923 0.0
H353 H 0.6155 0.39859 0.2875 0.0
C354 C 0.55516 0.32819 0.28704 0.0
C355 C 0.5256 0.28716 0.29865 0.0
C356 C 0.63838 0.41352 0.3501 0.0
C357 C 0.59978 0.36581 0.31819 0.0
C358 C 0.67786 0.45038 0.35985 0.0
C359 C 0.71936 0.47913 0.34837 0.0
C360 C 0.64022 0.4059 0.32868 0.0
C361 C 0.71967 0.47083 0.32692 0.0
C362 C 0.59252 0.36742 0.29672 0.0
C363 C 0.53359 0.28711 0.32014 0.0
N364 N 0.68047 0.43485 0.3177 0.0
N365 N 0.57003 0.32605 0.32929 0.0
H366 H 0.26774 0.51767 0.66834 0.0
H367 H 0.26954 0.76102 0.6528 0.0
H368 H 0.2278 0.55543 0.61012 0.0
H369 H 0.23644 0.68917 0.71239 0.0
H370 H 0.26595 0.69067 0.63667 0.0
H371 H 0.26734 0.58571 0.68508 0.0
C372 C 0.25868 0.54009 0.65916 0.0
C373 C 0.24778 0.5311 0.63789 0.0
C374 C 0.25931 0.69042 0.65326 0.0
C375 C 0.24813 0.60867 0.65662 0.0
C376 C 0.2615 0.73044 0.66243 0.0
C377 C 0.25313 0.7306 0.68386 0.0
C378 C 0.24966 0.65099 0.66576 0.0
C379 C 0.24283 0.69021 0.69575 0.0
C380 C 0.2584 0.57869 0.66867 0.0
C381 C 0.23629 0.5611 0.6266 0.0
N382 N 0.24175 0.65203 0.68656 0.0
N383 N 0.23722 0.59889 0.63607 0.0
H384 H 0.39304 0.11994 0.10202 0.0
H385 H 0.36484 0.24267 0.20376 0.0
H386 H 0.38811 0.25066 0.10219 0.0
H387 H 0.39926 0.13016 0.20441 0.0
H388 H 0.3486 0.23018 0.16647 0.0
H389 H 0.37182 0.10908 0.13883 0.0
C390 C 0.38715 0.14628 0.10975 0.0
C391 C 0.39376 0.18712 0.09915 0.0
C392 C 0.3589 0.20765 0.1748 0.0
C393 C 0.36914 0.17447 0.14132 0.0
C394 C 0.36821 0.21472 0.19607 0.0
C395 C 0.38474 0.18826 0.20698 0.0
C396 C 0.3666 0.17416 0.16434 0.0
C397 C 0.38725 0.15174 0.19646 0.0
C398 C 0.37478 0.13981 0.13077 0.0
C399 C 0.38423 0.21913 0.10984 0.0
N400 N 0.37926 0.14639 0.17554 0.0
N401 N 0.37313 0.21251 0.13049 0.0
H402 H 0.12826 0.38125 0.44013 0.0
H403 H 0.25635 0.38334 0.54496 0.0
H404 H 0.25183 0.36405 0.44326 0.0
H405 H 0.12319 0.38316 0.54206 0.0
H406 H 0.24629 0.35916 0.50826 0.0
H407 H 0.11573 0.3642 0.47755 0.0
C408 C 0.1521 0.37288 0.44859 0.0
C409 C 0.192 0.37564 0.4388 0.0
C410 C 0.21888 0.36367 0.51578 0.0
C411 C 0.17847 0.35682 0.48145 0.0
C412 C 0.22471 0.37751 0.53672 0.0
C413 C 0.19142 0.38682 0.54634 0.0
C414 C 0.17971 0.35951 0.5045 0.0
C415 C 0.15063 0.37796 0.53504 0.0
C416 C 0.14508 0.36326 0.46995 0.0
C417 C 0.22148 0.36388 0.4504 0.0
N418 N 0.14636 0.36564 0.51463 0.0
N419 N 0.21469 0.35594 0.4712 0.0
H420 H 0.76033 0.11152 0.87853 0.0
H421 H 0.89714 0.245 0.77599 0.0
H422 H 0.88488 0.25158 0.87708 0.0
H423 H 0.75472 0.12423 0.77726 0.0
H424 H 0.90686 0.23137 0.81262 0.0
H425 H 0.77282 0.10093 0.84188 0.0
C426 C 0.79078 0.13986 0.87057 0.0
C427 C 0.82074 0.18325 0.88063 0.0
C428 C 0.87385 0.20725 0.80479 0.0
C429 C 0.83508 0.1711 0.83874 0.0
C430 C 0.86817 0.21501 0.7839 0.0
C431 C 0.82441 0.18659 0.77385 0.0
C432 C 0.83538 0.17109 0.8157 0.0
C433 C 0.78867 0.14746 0.78458 0.0
C434 C 0.79792 0.13361 0.84967 0.0
C435 C 0.86041 0.21799 0.86978 0.0
N436 N 0.79456 0.14146 0.80516 0.0
N437 N 0.86589 0.21155 0.84921 0.0
H438 H 0.64372 0.89185 0.10848 0.0
H439 H 0.64506 0.75288 0.20974 0.0
H440 H 0.62572 0.75064 0.10828 0.0
H441 H 0.62593 0.87545 0.20996 0.0
H442 H 0.66622 0.76645 0.17291 0.0
H443 H 0.66538 0.89977 0.14526 0.0
C444 C 0.64493 0.86267 0.11613 0.0
C445 C 0.63133 0.8198 0.10555 0.0
C446 C 0.65822 0.79086 0.18109 0.0
C447 C 0.65618 0.82888 0.14758 0.0
C448 C 0.64597 0.78313 0.20209 0.0
C449 C 0.63216 0.81223 0.2127 0.0
C450 C 0.65639 0.82777 0.1706 0.0
C451 C 0.63547 0.85169 0.20224 0.0
C452 C 0.6575 0.86738 0.1371 0.0
C453 C 0.63508 0.78389 0.11599 0.0
N454 N 0.64634 0.85777 0.18156 0.0
N455 N 0.64625 0.78886 0.13664 0.0
H456 H 0.75515 0.62495 0.54565 0.0
H457 H 0.87959 0.61489 0.44175 0.0
H458 H 0.8894 0.62718 0.54386 0.0
H459 H 0.75709 0.63403 0.44367 0.0
H460 H 0.89316 0.63558 0.47886 0.0
H461 H 0.76378 0.64444 0.50844 0.0
C462 C 0.78676 0.63032 0.53754 0.0
C463 C 0.82077 0.62288 0.54769 0.0
C464 C 0.86381 0.63609 0.47105 0.0
C465 C 0.83076 0.64468 0.50522 0.0
C466 C 0.85617 0.62435 0.44987 0.0
C467 C 0.8163 0.62121 0.43987 0.0
C468 C 0.83112 0.64435 0.48214 0.0
C469 C 0.78738 0.63443 0.45101 0.0
C470 C 0.79175 0.64145 0.51629 0.0
C471 C 0.86145 0.63102 0.5365 0.0
N472 N 0.79482 0.64454 0.47164 0.0
N473 N 0.86487 0.64057 0.51578 0.0
H474 H 0.25382 0.89726 0.87531 0.0
H475 H 0.11589 0.7637 0.77291 0.0
H476 H 0.13251 0.75508 0.87391 0.0
H477 H 0.25652 0.88738 0.7739 0.0
H478 H 0.10694 0.77548 0.80984 0.0
H479 H 0.23946 0.90779 0.83891 0.0
C480 C 0.22371 0.8684 0.8674 0.0
C481 C 0.19523 0.82453 0.87739 0.0
C482 C 0.13935 0.8006 0.80189 0.0
C483 C 0.17873 0.83661 0.83577 0.0
C484 C 0.14462 0.79391 0.78083 0.0
C485 C 0.18774 0.82373 0.77056 0.0
C486 C 0.17758 0.83716 0.81275 0.0
C487 C 0.22308 0.86307 0.78135 0.0
C488 C 0.21548 0.87461 0.84666 0.0
C489 C 0.15586 0.78908 0.86664 0.0
N490 N 0.21764 0.86807 0.80207 0.0
N491 N 0.14932 0.79553 0.84619 0.0
H492 H 0.62003 0.63916 0.04323 0.0
H493 H 0.39769 0.37368 0.04417 0.0
H494 H 0.477 0.60708 0.05748 0.0
H495 H 0.54221 0.4045 0.05307 0.0
H496 H 0.42584 0.45946 0.0459 0.0
H497 H 0.59235 0.55329 0.04361 0.0
C498 C 0.58298 0.61421 0.04653 0.0
C499 C 0.55093 0.6305 0.0504 0.0
C500 C 0.45129 0.44731 0.04759 0.0
C501 C 0.51882 0.53232 0.0505 0.0
C502 C 0.43519 0.39836 0.04662 0.0
C503 C 0.4675 0.38172 0.04857 0.0
C504 C 0.50016 0.47994 0.05015 0.0
C505 C 0.51586 0.41553 0.05161 0.0
C506 C 0.56717 0.56523 0.04676 0.0
C507 C 0.50317 0.59637 0.05451 0.0
N508 N 0.53071 0.46286 0.05213 0.0
N509 N 0.48856 0.54911 0.05429 0.0
H510 H 0.98267 0.60955 0.37706 0.0
H511 H 0.02501 0.38612 0.37609 0.0
H512 H 0.87027 0.46577 0.3886 0.0
H513 H 0.13726 0.52953 0.38848 0.0
H514 H 0.96736 0.41454 0.37667 0.0
H515 H 0.04026 0.58107 0.37723 0.0
C516 C 0.97013 0.57215 0.37969 0.0
C517 C 0.92159 0.54016 0.38294 0.0
C518 C 1.00466 0.43966 0.37933 0.0
C519 C 0.98698 0.50714 0.38278 0.0
C520 C 0.03751 0.42342 0.37899 0.0
C521 C 0.08602 0.45534 0.38235 0.0
C522 C 0.02057 0.48828 0.38266 0.0
C523 C 0.1002 0.50346 0.38595 0.0
C524 C 1.00295 0.55587 0.3798 0.0
C525 C 0.90735 0.4919 0.38618 0.0
N526 N 0.06781 0.51845 0.38587 0.0
N527 N 0.93972 0.47688 0.38588 0.0
H528 H 0.6235 0.09161 0.753 0.0
H529 H 0.38565 0.96177 0.6872 0.0
H530 H 0.6269 0.05917 0.68798 0.0
H531 H 0.39072 0.91519 0.74971 0.0
H532 H 0.47295 0.01293 0.6879 0.0
H533 H 0.53663 0.03953 0.75294 0.0
C534 C 0.60595 0.07274 0.73883 0.0
C535 C 0.63236 0.07883 0.72058 0.0
C536 C 0.45472 0.99185 0.70152 0.0
C537 C 0.53307 0.02148 0.72012 0.0
C538 C 0.405 0.96332 0.70125 0.0
C539 C 0.38103 0.93468 0.71851 0.0
C540 C 0.48031 0.99254 0.71937 0.0
C541 C 0.40789 0.93704 0.73615 0.0
C542 C 0.5565 0.0434 0.73877 0.0
C543 C 0.60787 0.0545 0.70248 0.0
N544 N 0.45602 0.96568 0.7362 0.0
N545 N 0.55944 0.02742 0.7026 0.0
H546 H 0.63796 0.61486 0.60715 0.0
H547 H 0.37163 0.39387 0.60732 0.0
H548 H 0.60571 0.47076 0.59543 0.0
H549 H 0.40467 0.53795 0.59487 0.0
H550 H 0.45739 0.42103 0.60664 0.0
H551 H 0.55222 0.58736 0.60633 0.0
C552 C 0.61298 0.5776 0.60431 0.0
C553 C 0.62918 0.54522 0.60125 0.0
C554 C 0.44567 0.44655 0.60396 0.0
C555 C 0.53109 0.51329 0.60068 0.0
C556 C 0.39676 0.43103 0.60436 0.0
C557 C 0.38078 0.46353 0.60105 0.0
C558 C 0.4788 0.49503 0.60064 0.0
C559 C 0.41514 0.51144 0.59738 0.0
C560 C 0.56407 0.56188 0.60384 0.0
C561 C 0.59501 0.49717 0.59773 0.0
N562 N 0.46232 0.52573 0.59743 0.0
N563 N 0.54776 0.48266 0.59771 0.0
H564 H 0.02849 0.63726 0.93699 0.0
H565 H 0.99066 0.37387 0.93784 0.0
H566 H 0.14208 0.60823 0.92392 0.0
H567 H 0.87672 0.40213 0.92438 0.0
H568 H 0.04714 0.46003 0.93671 0.0
H569 H 0.97185 0.55104 0.93637 0.0
C570 C 0.04147 0.61289 0.9339 0.0
C571 C 0.09008 0.63012 0.9304 0.0
C572 C 0.00974 0.44719 0.9339 0.0
C573 C 0.02583 0.53161 0.93009 0.0
C574 C 0.97757 0.39806 0.93453 0.0
C575 C 0.92892 0.38062 0.93108 0.0
C576 C 0.993 0.47913 0.93022 0.0
C577 C 0.91393 0.41379 0.92699 0.0
C578 C 0.00921 0.56374 0.93354 0.0
C579 C 0.10492 0.59674 0.92657 0.0
N580 N 0.94567 0.46129 0.92685 0.0
N581 N 0.07311 0.54928 0.92669 0.0
H582 H 0.61779 0.98049 0.27346 0.0
H583 H 0.39484 0.02343 0.27096 0.0
H584 H 0.47459 0.86838 0.2606 0.0
H585 H 0.53886 0.13554 0.25964 0.0
H586 H 0.42317 0.96571 0.2712 0.0
H587 H 0.58959 0.0383 0.27241 0.0
C588 C 0.58059 0.96806 0.27035 0.0
C589 C 0.54867 0.91954 0.267 0.0
C590 C 0.44845 1.00299 0.26859 0.0
C591 C 0.51596 0.98516 0.26616 0.0
C592 C 0.43227 0.03588 0.26847 0.0
C593 C 0.46438 0.08437 0.26516 0.0
C594 C 0.49721 0.01884 0.26579 0.0
C595 C 0.51265 0.0985 0.26211 0.0
C596 C 0.56447 1.001 0.26975 0.0
C597 C 0.50066 0.90544 0.26313 0.0
N598 N 0.52758 0.06606 0.26264 0.0
N599 N 0.48578 0.93792 0.26297 0.0
loop_
_geom_bond_atom_site_label_1
_geom_bond_atom_site_label_2
_geom_bond_distance
_geom_bond_site_symmetry_2
_ccdc_geom_bond_type
Co0 O1 2.216 . S
Co0 O2 2.091 . S
Co0 O4 2.004 . S
Co0 O10 2.021 . S
Co0 O12 2.137 . S
Co0 O13 2.244 . S
O1 Co0 2.216 . S
O1 C8 1.247 . S
O2 Co0 2.091 . S
O2 C8 1.261 . S
C3 O12 1.247 . S
C3 O13 1.272 . S
O4 Co0 2.004 . S
O4 C9 1.259 . S
Co5 O6 2.061 . S
Co5 O11 2.052 . S
Co5 O13 2.135 . S
O6 Co5 2.061 . S
O6 C9 1.235 . S
C7 O10 1.238 . S
C7 O11 1.241 . S
C8 O1 1.247 . S
C8 O2 1.261 . S
C9 O4 1.259 . S
C9 O6 1.235 . S
O10 Co0 2.021 . S
O10 C7 1.238 . S
O11 Co5 2.052 . S
O11 C7 1.241 . S
O12 Co0 2.137 . S
O12 C3 1.247 . S
O13 Co0 2.244 . S
O13 C3 1.272 . S
O13 Co5 2.135 . S
Co14 O15 2.216 . S
Co14 O16 2.091 . S
Co14 O18 2.004 . S
Co14 O24 2.021 . S
Co14 O26 2.137 . S
Co14 O27 2.244 . S
O15 Co14 2.216 . S
O15 C22 1.247 . S
O16 Co14 2.091 . S
O16 C22 1.261 . S
C17 O26 1.247 . S
C17 O27 1.272 . S
O18 Co14 2.004 . S
O18 C23 1.259 . S
Co19 O20 2.061 . S
Co19 O25 2.052 . S
Co19 O27 2.135 . S
O20 Co19 2.061 . S
O20 C23 1.235 . S
C21 O24 1.238 . S
C21 O25 1.241 . S
C22 O15 1.247 . S
C22 O16 1.261 . S
C23 O18 1.259 . S
C23 O20 1.235 . S
O24 Co14 2.021 . S
O24 C21 1.238 . S
O25 Co19 2.052 . S
O25 C21 1.241 . S
O26 Co14 2.137 . S
O26 C17 1.247 . S
O27 Co14 2.244 . S
O27 C17 1.272 . S
O27 Co19 2.135 . S
Co28 O29 2.216 . S
Co28 O30 2.091 . S
Co28 O32 2.004 . S
Co28 O38 2.021 . S
Co28 O40 2.137 . S
Co28 O41 2.244 . S
O29 Co28 2.216 . S
O29 C36 1.247 . S
O30 Co28 2.091 . S
O30 C36 1.261 . S
C31 O40 1.247 . S
C31 O41 1.272 . S
O32 Co28 2.004 . S
O32 C37 1.259 . S
Co33 O34 2.061 . S
Co33 O39 2.052 . S
Co33 O41 2.135 . S
O34 Co33 2.061 . S
O34 C37 1.235 . S
C35 O38 1.238 . S
C35 O39 1.241 . S
C36 O29 1.247 . S
C36 O30 1.261 . S
C37 O32 1.259 . S
C37 O34 1.235 . S
O38 Co28 2.021 . S
O38 C35 1.238 . S
O39 Co33 2.052 . S
O39 C35 1.241 . S
O40 Co28 2.137 . S
O40 C31 1.247 . S
O41 Co28 2.244 . S
O41 C31 1.272 . S
O41 Co33 2.135 . S
Co42 O43 2.216 . S
Co42 O44 2.091 . S
Co42 O46 2.004 . S
Co42 O52 2.021 . S
Co42 O54 2.137 . S
Co42 O55 2.244 . S
O43 Co42 2.216 . S
O43 C50 1.247 . S
O44 Co42 2.091 . S
O44 C50 1.261 . S
C45 O54 1.247 . S
C45 O55 1.272 . S
O46 Co42 2.004 . S
O46 C51 1.259 . S
Co47 O48 2.061 . S
Co47 O53 2.052 . S
Co47 O55 2.135 . S
O48 Co47 2.061 . S
O48 C51 1.235 . S
C49 O52 1.238 . S
C49 O53 1.241 . S
C50 O43 1.247 . S
C50 O44 1.261 . S
C51 O46 1.259 . S
C51 O48 1.235 . S
O52 Co42 2.021 . S
O52 C49 1.238 . S
O53 Co47 2.052 . S
O53 C49 1.241 . S
O54 Co42 2.137 . S
O54 C45 1.247 . S
O55 Co42 2.244 . S
O55 C45 1.272 . S
O55 Co47 2.135 . S
Co56 O57 2.216 . S
Co56 O58 2.091 . S
Co56 O60 2.004 . S
Co56 O66 2.021 . S
Co56 O68 2.137 . S
Co56 O69 2.244 . S
O57 Co56 2.216 . S
O57 C64 1.247 . S
O58 Co56 2.091 . S
O58 C64 1.261 . S
C59 O68 1.247 . S
C59 O69 1.272 . S
O60 Co56 2.004 . S
O60 C65 1.259 . S
Co61 O62 2.061 . S
Co61 O67 2.052 . S
Co61 O69 2.135 . S
O62 Co61 2.061 . S
O62 C65 1.235 . S
C63 O66 1.238 . S
C63 O67 1.241 . S
C64 O57 1.247 . S
C64 O58 1.261 . S
C65 O60 1.259 . S
C65 O62 1.235 . S
O66 Co56 2.021 . S
O66 C63 1.238 . S
O67 Co61 2.052 . S
O67 C63 1.241 . S
O68 Co56 2.137 . S
O68 C59 1.247 . S
O69 Co56 2.244 . S
O69 C59 1.272 . S
O69 Co61 2.135 . S
Co70 O71 2.216 . S
Co70 O72 2.091 . S
Co70 O74 2.004 . S
Co70 O80 2.021 . S
Co70 O82 2.137 . S
Co70 O83 2.244 . S
O71 Co70 2.216 . S
O71 C78 1.247 . S
O72 Co70 2.091 . S
O72 C78 1.261 . S
C73 O82 1.247 . S
C73 O83 1.272 . S
O74 Co70 2.004 . S
O74 C79 1.259 . S
Co75 O76 2.061 . S
Co75 O81 2.052 . S
Co75 O83 2.135 . S
O76 Co75 2.061 . S
O76 C79 1.235 . S
C77 O80 1.238 . S
C77 O81 1.241 . S
C78 O71 1.247 . S
C78 O72 1.261 . S
C79 O74 1.259 . S
C79 O76 1.235 . S
O80 Co70 2.021 . S
O80 C77 1.238 . S
O81 Co75 2.052 . S
O81 C77 1.241 . S
O82 Co70 2.137 . S
O82 C73 1.247 . S
O83 Co70 2.244 . S
O83 C73 1.272 . S
O83 Co75 2.135 . S
Co84 O85 2.216 . S
Co84 O86 2.091 . S
Co84 O88 2.004 . S
Co84 O94 2.021 . S
Co84 O96 2.137 . S
Co84 O97 2.244 . S
O85 Co84 2.216 . S
O85 C92 1.247 . S
O86 Co84 2.091 . S
O86 C92 1.261 . S
C87 O96 1.247 . S
C87 O97 1.272 . S
O88 Co84 2.004 . S
O88 C93 1.259 . S
Co89 O90 2.061 . S
Co89 O95 2.052 . S
Co89 O97 2.135 . S
O90 Co89 2.061 . S
O90 C93 1.235 . S
C91 O94 1.238 . S
C91 O95 1.241 . S
C92 O85 1.247 . S
C92 O86 1.261 . S
C93 O88 1.259 . S
C93 O90 1.235 . S
O94 Co84 2.021 . S
O94 C91 1.238 . S
O95 Co89 2.052 . S
O95 C91 1.241 . S
O96 Co84 2.137 . S
O96 C87 1.247 . S
O97 Co84 2.244 . S
O97 C87 1.272 . S
O97 Co89 2.135 . S
Co98 O99 2.216 . S
Co98 O100 2.091 . S
Co98 O102 2.004 . S
Co98 O108 2.021 . S
Co98 O110 2.137 . S
Co98 O111 2.244 . S
O99 Co98 2.216 . S
O99 C106 1.247 . S
O100 Co98 2.091 . S
O100 C106 1.261 . S
C101 O110 1.247 . S
C101 O111 1.272 . S
O102 Co98 2.004 . S
O102 C107 1.259 . S
Co103 O104 2.061 . S
Co103 O109 2.052 . S
Co103 O111 2.135 . S
O104 Co103 2.061 . S
O104 C107 1.235 . S
C105 O108 1.238 . S
C105 O109 1.241 . S
C106 O99 1.247 . S
C106 O100 1.261 . S
C107 O102 1.259 . S
C107 O104 1.235 . S
O108 Co98 2.021 . S
O108 C105 1.238 . S
O109 Co103 2.052 . S
O109 C105 1.241 . S
O110 Co98 2.137 . S
O110 C101 1.247 . S
O111 Co98 2.244 . S
O111 C101 1.272 . S
O111 Co103 2.135 . S
Co112 O113 2.216 . S
Co112 O114 2.091 . S
Co112 O116 2.004 . S
Co112 O122 2.021 . S
Co112 O124 2.137 . S
Co112 O125 2.244 . S
O113 Co112 2.216 . S
O113 C120 1.247 . S
O114 Co112 2.091 . S
O114 C120 1.261 . S
C115 O124 1.247 . S
C115 O125 1.272 . S
O116 Co112 2.004 . S
O116 C121 1.259 . S
Co117 O118 2.061 . S
Co117 O123 2.052 . S
Co117 O125 2.135 . S
O118 Co117 2.061 . S
O118 C121 1.235 . S
C119 O122 1.238 . S
C119 O123 1.241 . S
C120 O113 1.247 . S
C120 O114 1.261 . S
C121 O116 1.259 . S
C121 O118 1.235 . S
O122 Co112 2.021 . S
O122 C119 1.238 . S
O123 Co117 2.052 . S
O123 C119 1.241 . S
O124 Co112 2.137 . S
O124 C115 1.247 . S
O125 Co112 2.244 . S
O125 C115 1.272 . S
O125 Co117 2.135 . S
Co126 O127 2.216 . S
Co126 O128 2.091 . S
Co126 O130 2.004 . S
Co126 O136 2.021 . S
Co126 O138 2.137 . S
Co126 O139 2.244 . S
O127 Co126 2.216 . S
O127 C134 1.247 . S
O128 Co126 2.091 . S
O128 C134 1.261 . S
C129 O138 1.247 . S
C129 O139 1.272 . S
O130 Co126 2.004 . S
O130 C135 1.259 . S
Co131 O132 2.061 . S
Co131 O137 2.052 . S
Co131 O139 2.135 . S
O132 Co131 2.061 . S
O132 C135 1.235 . S
C133 O136 1.238 . S
C133 O137 1.241 . S
C134 O127 1.247 . S
C134 O128 1.261 . S
C135 O130 1.259 . S
C135 O132 1.235 . S
O136 Co126 2.021 . S
O136 C133 1.238 . S
O137 Co131 2.052 . S
O137 C133 1.241 . S
O138 Co126 2.137 . S
O138 C129 1.247 . S
O139 Co126 2.244 . S
O139 C129 1.272 . S
O139 Co131 2.135 . S
Co140 O141 2.216 . S
Co140 O142 2.091 . S
Co140 O144 2.004 . S
Co140 O150 2.021 . S
Co140 O152 2.137 . S
Co140 O153 2.244 . S
O141 Co140 2.216 . S
O141 C148 1.247 . S
O142 Co140 2.091 . S
O142 C148 1.261 . S
C143 O152 1.247 . S
C143 O153 1.272 . S
O144 Co140 2.004 . S
O144 C149 1.259 . S
Co145 O146 2.061 . S
Co145 O151 2.052 . S
Co145 O153 2.135 . S
O146 Co145 2.061 . S
O146 C149 1.235 . S
C147 O150 1.238 . S
C147 O151 1.241 . S
C148 O141 1.247 . S
C148 O142 1.261 . S
C149 O144 1.259 . S
C149 O146 1.235 . S
O150 Co140 2.021 . S
O150 C147 1.238 . S
O151 Co145 2.052 . S
O151 C147 1.241 . S
O152 Co140 2.137 . S
O152 C143 1.247 . S
O153 Co140 2.244 . S
O153 C143 1.272 . S
O153 Co145 2.135 . S
Co154 O155 2.216 . S
Co154 O156 2.091 . S
Co154 O158 2.004 . S
Co154 O164 2.021 . S
Co154 O166 2.137 . S
Co154 O167 2.244 . S
O155 Co154 2.216 . S
O155 C162 1.247 . S
O156 Co154 2.091 . S
O156 C162 1.261 . S
C157 O166 1.247 . S
C157 O167 1.272 . S
O158 Co154 2.004 . S
O158 C163 1.259 . S
Co159 O160 2.061 . S
Co159 O165 2.052 . S
Co159 O167 2.135 . S
O160 Co159 2.061 . S
O160 C163 1.235 . S
C161 O164 1.238 . S
C161 O165 1.241 . S
C162 O155 1.247 . S
C162 O156 1.261 . S
C163 O158 1.259 . S
C163 O160 1.235 . S
O164 Co154 2.021 . S
O164 C161 1.238 . S
O165 Co159 2.052 . S
O165 C161 1.241 . S
O166 Co154 2.137 . S
O166 C157 1.247 . S
O167 Co154 2.244 . S
O167 C157 1.272 . S
O167 Co159 2.135 . S
H168 C174 0.930 1_554 S
H169 C178 0.930 1_556 S
H170 C183 0.929 . S
H171 C181 0.929 . S
H172 C176 0.929 . S
H173 C182 0.929 . S
C174 H168 0.930 1_556 S
C174 C175 1.367 . S
C174 C182 1.378 1_556 S
C175 C174 1.367 . S
C175 C183 1.433 . S
C176 H172 0.929 . S
C176 C178 1.378 1_556 S
C176 C180 1.350 1_556 S
C177 C180 1.463 1_566 S
C177 C182 1.350 1_556 S
C177 N185 1.427 . S
C178 H169 0.930 1_554 S
C178 C176 1.378 1_554 S
C178 C179 1.367 . S
C179 C178 1.367 . S
C179 C181 1.433 . S
C180 C176 1.350 1_554 S
C180 C177 1.463 1_544 S
C180 N184 1.427 . S
C181 H171 0.929 . S
C181 C179 1.433 . S
C181 N184 1.384 . S
C182 H173 0.929 . S
C182 C174 1.378 1_554 S
C182 C177 1.350 1_554 S
C183 H170 0.929 . S
C183 C175 1.433 . S
C183 N185 1.384 . S
N184 C180 1.427 . S
N184 C181 1.384 . S
N185 C177 1.427 . S
N185 C183 1.384 . S
H186 C192 0.930 . S
H187 C196 0.930 . S
H188 C201 0.929 . S
H189 C199 0.929 . S
H190 C194 0.929 . S
H191 C200 0.929 . S
C192 H186 0.930 . S
C192 C193 1.367 . S
C192 C200 1.378 . S
C193 C192 1.367 . S
C193 C201 1.433 . S
C194 H190 0.929 . S
C194 C196 1.378 . S
C194 C198 1.350 . S
C195 C198 1.463 . S
C195 C200 1.350 . S
C195 N203 1.427 . S
C196 H187 0.930 . S
C196 C194 1.378 . S
C196 C197 1.367 . S
C197 C196 1.367 . S
C197 C199 1.433 . S
C198 C194 1.350 . S
C198 C195 1.463 . S
C198 N202 1.427 . S
C199 H189 0.929 . S
C199 C197 1.433 . S
C199 N202 1.384 . S
C200 H191 0.929 . S
C200 C192 1.378 . S
C200 C195 1.350 . S
C201 H188 0.929 . S
C201 C193 1.433 . S
C201 N203 1.384 . S
N202 C198 1.427 . S
N202 C199 1.384 . S
N203 C195 1.427 . S
N203 C201 1.384 . S
H204 C210 0.930 . S
H205 C214 0.930 . S
H206 C219 0.929 . S
H207 C217 0.929 . S
H208 C212 0.929 . S
H209 C218 0.929 . S
C210 H204 0.930 . S
C210 C211 1.367 . S
C210 C218 1.378 . S
C211 C210 1.367 . S
C211 C219 1.433 . S
C212 H208 0.929 . S
C212 C214 1.378 . S
C212 C216 1.350 . S
C213 C216 1.463 1_655 S
C213 C218 1.350 . S
C213 N221 1.427 . S
C214 H205 0.930 . S
C214 C212 1.378 . S
C214 C215 1.367 . S
C215 C214 1.367 . S
C215 C217 1.433 . S
C216 C212 1.350 . S
C216 C213 1.463 1_455 S
C216 N220 1.427 . S
C217 H207 0.929 . S
C217 C215 1.433 . S
C217 N220 1.384 . S
C218 H209 0.929 . S
C218 C210 1.378 . S
C218 C213 1.350 . S
C219 H206 0.929 . S
C219 C211 1.433 . S
C219 N221 1.384 . S
N220 C216 1.427 . S
N220 C217 1.384 . S
N221 C213 1.427 . S
N221 C219 1.384 . S
H222 C228 0.927 1_556 S
H223 C232 0.927 1_554 S
H224 C237 0.929 . S
H225 C235 0.929 . S
H226 C230 0.929 . S
H227 C236 0.929 . S
C228 H222 0.927 1_554 S
C228 C229 1.367 . S
C228 C236 1.378 1_554 S
C229 C228 1.367 . S
C229 C237 1.433 . S
C230 H226 0.929 . S
C230 C232 1.378 1_554 S
C230 C234 1.350 1_554 S
C231 C234 1.463 1_564 S
C231 C236 1.350 1_554 S
C231 N239 1.427 . S
C232 H223 0.927 1_556 S
C232 C230 1.378 1_556 S
C232 C233 1.367 . S
C233 C232 1.367 . S
C233 C235 1.433 . S
C234 C230 1.350 1_556 S
C234 C231 1.463 1_546 S
C234 N238 1.427 . S
C235 H225 0.929 . S
C235 C233 1.433 . S
C235 N238 1.384 . S
C236 H227 0.929 . S
C236 C228 1.378 1_556 S
C236 C231 1.350 1_556 S
C237 H224 0.929 . S
C237 C229 1.433 . S
C237 N239 1.384 . S
N238 C234 1.427 . S
N238 C235 1.384 . S
N239 C231 1.427 . S
N239 C237 1.384 . S
H240 C246 0.930 . S
H241 C250 0.930 . S
H242 C255 0.929 . S
H243 C253 0.929 . S
H244 C248 0.929 . S
H245 C254 0.929 . S
C246 H240 0.930 . S
C246 C247 1.367 . S
C246 C254 1.378 . S
C247 C246 1.367 . S
C247 C255 1.433 . S
C248 H244 0.929 . S
C248 C250 1.378 . S
C248 C252 1.350 . S
C249 C252 1.463 . S
C249 C254 1.350 . S
C249 N257 1.427 . S
C250 H241 0.930 . S
C250 C248 1.378 . S
C250 C251 1.367 . S
C251 C250 1.367 . S
C251 C253 1.433 . S
C252 C248 1.350 . S
C252 C249 1.463 . S
C252 N256 1.427 . S
C253 H243 0.929 . S
C253 C251 1.433 . S
C253 N256 1.384 . S
C254 H245 0.929 . S
C254 C246 1.378 . S
C254 C249 1.350 . S
C255 H242 0.929 . S
C255 C247 1.433 . S
C255 N257 1.384 . S
N256 C252 1.427 . S
N256 C253 1.384 . S
N257 C249 1.427 . S
N257 C255 1.384 . S
H258 C264 0.930 . S
H259 C268 0.930 . S
H260 C273 0.929 . S
H261 C271 0.929 . S
H262 C266 0.929 . S
H263 C272 0.929 . S
C264 H258 0.930 . S
C264 C265 1.367 . S
C264 C272 1.378 . S
C265 C264 1.367 . S
C265 C273 1.433 . S
C266 H262 0.929 . S
C266 C268 1.378 . S
C266 C270 1.350 . S
C267 C270 1.463 1_655 S
C267 C272 1.350 . S
C267 N275 1.427 . S
C268 H259 0.930 . S
C268 C266 1.378 . S
C268 C269 1.367 . S
C269 C268 1.367 . S
C269 C271 1.433 . S
C270 C266 1.350 . S
C270 C267 1.463 1_455 S
C270 N274 1.427 . S
C271 H261 0.929 . S
C271 C269 1.433 . S
C271 N274 1.384 . S
C272 H263 0.929 . S
C272 C264 1.378 . S
C272 C267 1.350 . S
C273 H260 0.929 . S
C273 C265 1.433 . S
C273 N275 1.384 . S
N274 C270 1.427 . S
N274 C271 1.384 . S
N275 C267 1.427 . S
N275 C273 1.384 . S
H276 C282 0.930 . S
H277 C286 0.930 . S
H278 C291 0.929 . S
H279 C289 0.929 . S
H280 C284 0.931 . S
H281 C290 0.931 . S
C282 H276 0.930 . S
C282 C283 1.367 . S
C282 C290 1.376 1_556 S
C283 C282 1.367 . S
C283 C291 1.433 . S
C284 H280 0.931 . S
C284 C286 1.376 1_556 S
C284 C288 1.349 1_556 S
C285 C288 1.463 1_556 S
C285 C290 1.349 1_556 S
C285 N293 1.427 . S
C286 H277 0.930 . S
C286 C284 1.376 1_554 S
C286 C287 1.367 . S
C287 C286 1.367 . S
C287 C289 1.433 . S
C288 C284 1.349 1_554 S
C288 C285 1.463 1_554 S
C288 N292 1.427 . S
C289 H279 0.929 . S
C289 C287 1.433 . S
C289 N292 1.384 . S
C290 H281 0.931 . S
C290 C282 1.376 1_554 S
C290 C285 1.349 1_554 S
C291 H278 0.929 . S
C291 C283 1.433 . S
C291 N293 1.384 . S
N292 C288 1.427 . S
N292 C289 1.384 . S
N293 C285 1.427 . S
N293 C291 1.384 . S
H294 C300 0.930 . S
H295 C304 0.930 . S
H296 C309 0.929 . S
H297 C307 0.929 . S
H298 C302 0.929 . S
H299 C308 0.929 . S
C300 H294 0.930 . S
C300 C301 1.367 . S
C300 C308 1.378 . S
C301 C300 1.367 . S
C301 C309 1.433 . S
C302 H298 0.929 . S
C302 C304 1.378 . S
C302 C306 1.350 . S
C303 C306 1.463 . S
C303 C308 1.350 . S
C303 N311 1.427 . S
C304 H295 0.930 . S
C304 C302 1.378 . S
C304 C305 1.367 . S
C305 C304 1.367 . S
C305 C307 1.433 . S
C306 C302 1.350 . S
C306 C303 1.463 . S
C306 N310 1.427 . S
C307 H297 0.929 . S
C307 C305 1.433 . S
C307 N310 1.384 . S
C308 H299 0.929 . S
C308 C300 1.378 . S
C308 C303 1.350 . S
C309 H296 0.929 . S
C309 C301 1.433 . S
C309 N311 1.384 . S
N310 C306 1.427 . S
N310 C307 1.384 . S
N311 C303 1.427 . S
N311 C309 1.384 . S
H312 C318 0.930 . S
H313 C322 0.930 . S
H314 C327 0.929 . S
H315 C325 0.929 . S
H316 C320 0.929 . S
H317 C326 0.929 . S
C318 H312 0.930 . S
C318 C319 1.367 . S
C318 C326 1.378 . S
C319 C318 1.367 . S
C319 C327 1.433 . S
C320 H316 0.929 . S
C320 C322 1.378 . S
C320 C324 1.350 . S
C321 C324 1.463 . S
C321 C326 1.350 . S
C321 N329 1.427 . S
C322 H313 0.930 . S
C322 C320 1.378 . S
C322 C323 1.367 . S
C323 C322 1.367 . S
C323 C325 1.433 . S
C324 C320 1.350 . S
C324 C321 1.463 . S
C324 N328 1.427 . S
C325 H315 0.929 . S
C325 C323 1.433 . S
C325 N328 1.384 . S
C326 H317 0.929 . S
C326 C318 1.378 . S
C326 C321 1.350 . S
C327 H314 0.929 . S
C327 C319 1.433 . S
C327 N329 1.384 . S
N328 C324 1.427 . S
N328 C325 1.384 . S
N329 C321 1.427 . S
N329 C327 1.384 . S
H330 C336 0.930 . S
H331 C340 0.930 . S
H332 C345 0.929 . S
H333 C343 0.929 . S
H334 C338 0.929 . S
H335 C344 0.929 . S
C336 H330 0.930 . S
C336 C337 1.367 . S
C336 C344 1.378 . S
C337 C336 1.367 . S
C337 C345 1.433 1_556 S
C338 H334 0.929 . S
C338 C340 1.378 . S
C338 C342 1.350 . S
C339 C342 1.463 1_556 S
C339 C344 1.350 . S
C339 N347 1.427 1_556 S
C340 H331 0.930 . S
C340 C338 1.378 . S
C340 C341 1.367 . S
C341 C340 1.367 . S
C341 C343 1.433 1_554 S
C342 C338 1.350 . S
C342 C339 1.463 1_554 S
C342 N346 1.427 1_554 S
C343 H333 0.929 . S
C343 C341 1.433 1_556 S
C343 N346 1.384 . S
C344 H335 0.929 . S
C344 C336 1.378 . S
C344 C339 1.350 . S
C345 H332 0.929 . S
C345 C337 1.433 1_554 S
C345 N347 1.384 . S
N346 C342 1.427 1_556 S
N346 C343 1.384 . S
N347 C339 1.427 1_554 S
N347 C345 1.384 . S
H348 C354 0.930 . S
H349 C358 0.930 . S
H350 C363 0.929 . S
H351 C361 0.929 . S
H352 C356 0.929 . S
H353 C362 0.929 . S
C354 H348 0.930 . S
C354 C355 1.367 . S
C354 C362 1.378 . S
C355 C354 1.367 . S
C355 C363 1.433 . S
C356 H352 0.929 . S
C356 C358 1.378 . S
C356 C360 1.350 . S
C357 C360 1.463 . S
C357 C362 1.350 . S
C357 N365 1.427 . S
C358 H349 0.930 . S
C358 C356 1.378 . S
C358 C359 1.367 . S
C359 C358 1.367 . S
C359 C361 1.433 . S
C360 C356 1.350 . S
C360 C357 1.463 . S
C360 N364 1.427 . S
C361 H351 0.929 . S
C361 C359 1.433 . S
C361 N364 1.384 . S
C362 H353 0.929 . S
C362 C354 1.378 . S
C362 C357 1.350 . S
C363 H350 0.929 . S
C363 C355 1.433 . S
C363 N365 1.384 . S
N364 C360 1.427 . S
N364 C361 1.384 . S
N365 C357 1.427 . S
N365 C363 1.384 . S
H366 C372 0.930 . S
H367 C376 0.930 . S
H368 C381 0.929 . S
H369 C379 0.929 . S
H370 C374 0.929 . S
H371 C380 0.929 . S
C372 H366 0.930 . S
C372 C373 1.367 . S
C372 C380 1.378 . S
C373 C372 1.367 . S
C373 C381 1.433 . S
C374 H370 0.929 . S
C374 C376 1.378 . S
C374 C378 1.350 . S
C375 C378 1.463 . S
C375 C380 1.350 . S
C375 N383 1.427 . S
C376 H367 0.930 . S
C376 C374 1.378 . S
C376 C377 1.367 . S
C377 C376 1.367 . S
C377 C379 1.433 . S
C378 C374 1.350 . S
C378 C375 1.463 . S
C378 N382 1.427 . S
C379 H369 0.929 . S
C379 C377 1.433 . S
C379 N382 1.384 . S
C380 H371 0.929 . S
C380 C372 1.378 . S
C380 C375 1.350 . S
C381 H368 0.929 . S
C381 C373 1.433 . S
C381 N383 1.384 . S
N382 C378 1.427 . S
N382 C379 1.384 . S
N383 C375 1.427 . S
N383 C381 1.384 . S
H384 C390 0.930 . S
H385 C394 0.930 . S
H386 C399 0.929 . S
H387 C397 0.929 . S
H388 C392 0.929 . S
H389 C398 0.929 . S
C390 H384 0.930 . S
C390 C391 1.367 . S
C390 C398 1.378 . S
C391 C390 1.367 . S
C391 C399 1.433 . S
C392 H388 0.929 . S
C392 C394 1.378 . S
C392 C396 1.350 . S
C393 C396 1.463 . S
C393 C398 1.350 . S
C393 N401 1.427 . S
C394 H385 0.930 . S
C394 C392 1.378 . S
C394 C395 1.367 . S
C395 C394 1.367 . S
C395 C397 1.433 . S
C396 C392 1.350 . S
C396 C393 1.463 . S
C396 N400 1.427 . S
C397 H387 0.929 . S
C397 C395 1.433 . S
C397 N400 1.384 . S
C398 H389 0.929 . S
C398 C390 1.378 . S
C398 C393 1.350 . S
C399 H386 0.929 . S
C399 C391 1.433 . S
C399 N401 1.384 . S
N400 C396 1.427 . S
N400 C397 1.384 . S
N401 C393 1.427 . S
N401 C399 1.384 . S
H402 C408 0.930 . S
H403 C412 0.930 . S
H404 C417 0.929 . S
H405 C415 0.929 . S
H406 C410 0.929 . S
H407 C416 0.929 . S
C408 H402 0.930 . S
C408 C409 1.367 . S
C408 C416 1.378 . S
C409 C408 1.367 . S
C409 C417 1.433 . S
C410 H406 0.929 . S
C410 C412 1.378 . S
C410 C414 1.350 . S
C411 C414 1.463 . S
C411 C416 1.350 . S
C411 N419 1.427 . S
C412 H403 0.930 . S
C412 C410 1.378 . S
C412 C413 1.367 . S
C413 C412 1.367 . S
C413 C415 1.433 . S
C414 C410 1.350 . S
C414 C411 1.463 . S
C414 N418 1.427 . S
C415 H405 0.929 . S
C415 C413 1.433 . S
C415 N418 1.384 . S
C416 H407 0.929 . S
C416 C408 1.378 . S
C416 C411 1.350 . S
C417 H404 0.929 . S
C417 C409 1.433 . S
C417 N419 1.384 . S
N418 C414 1.427 . S
N418 C415 1.384 . S
N419 C411 1.427 . S
N419 C417 1.384 . S
H420 C426 0.930 . S
H421 C430 0.930 . S
H422 C435 0.929 . S
H423 C433 0.929 . S
H424 C428 0.929 . S
H425 C434 0.929 . S
C426 H420 0.930 . S
C426 C427 1.367 . S
C426 C434 1.378 . S
C427 C426 1.367 . S
C427 C435 1.433 . S
C428 H424 0.929 . S
C428 C430 1.378 . S
C428 C432 1.350 . S
C429 C432 1.463 . S
C429 C434 1.350 . S
C429 N437 1.427 . S
C430 H421 0.930 . S
C430 C428 1.378 . S
C430 C431 1.367 . S
C431 C430 1.367 . S
C431 C433 1.433 . S
C432 C428 1.350 . S
C432 C429 1.463 . S
C432 N436 1.427 . S
C433 H423 0.929 . S
C433 C431 1.433 . S
C433 N436 1.384 . S
C434 H425 0.929 . S
C434 C426 1.378 . S
C434 C429 1.350 . S
C435 H422 0.929 . S
C435 C427 1.433 . S
C435 N437 1.384 . S
N436 C432 1.427 . S
N436 C433 1.384 . S
N437 C429 1.427 . S
N437 C435 1.384 . S
H438 C444 0.930 . S
H439 C448 0.930 . S
H440 C453 0.929 . S
H441 C451 0.929 . S
H442 C446 0.929 . S
H443 C452 0.929 . S
C444 H438 0.930 . S
C444 C445 1.367 . S
C444 C452 1.378 . S
C445 C444 1.367 . S
C445 C453 1.433 . S
C446 H442 0.929 . S
C446 C448 1.378 . S
C446 C450 1.350 . S
C447 C450 1.463 . S
C447 C452 1.350 . S
C447 N455 1.427 . S
C448 H439 0.930 . S
C448 C446 1.378 . S
C448 C449 1.367 . S
C449 C448 1.367 . S
C449 C451 1.433 . S
C450 C446 1.350 . S
C450 C447 1.463 . S
C450 N454 1.427 . S
C451 H441 0.929 . S
C451 C449 1.433 . S
C451 N454 1.384 . S
C452 H443 0.929 . S
C452 C444 1.378 . S
C452 C447 1.350 . S
C453 H440 0.929 . S
C453 C445 1.433 . S
C453 N455 1.384 . S
N454 C450 1.427 . S
N454 C451 1.384 . S
N455 C447 1.427 . S
N455 C453 1.384 . S
H456 C462 0.930 . S
H457 C466 0.930 . S
H458 C471 0.929 . S
H459 C469 0.929 . S
H460 C464 0.929 . S
H461 C470 0.929 . S
C462 H456 0.930 . S
C462 C463 1.367 . S
C462 C470 1.378 . S
C463 C462 1.367 . S
C463 C471 1.433 . S
C464 H460 0.929 . S
C464 C466 1.378 . S
C464 C468 1.350 . S
C465 C468 1.463 . S
C465 C470 1.350 . S
C465 N473 1.427 . S
C466 H457 0.930 . S
C466 C464 1.378 . S
C466 C467 1.367 . S
C467 C466 1.367 . S
C467 C469 1.433 . S
C468 C464 1.350 . S
C468 C465 1.463 . S
C468 N472 1.427 . S
C469 H459 0.929 . S
C469 C467 1.433 . S
C469 N472 1.384 . S
C470 H461 0.929 . S
C470 C462 1.378 . S
C470 C465 1.350 . S
C471 H458 0.929 . S
C471 C463 1.433 . S
C471 N473 1.384 . S
N472 C468 1.427 . S
N472 C469 1.384 . S
N473 C465 1.427 . S
N473 C471 1.384 . S
H474 C480 0.930 . S
H475 C484 0.930 . S
H476 C489 0.929 . S
H477 C487 0.929 . S
H478 C482 0.929 . S
H479 C488 0.929 . S
C480 H474 0.930 . S
C480 C481 1.367 . S
C480 C488 1.378 . S
C481 C480 1.367 . S
C481 C489 1.433 . S
C482 H478 0.929 . S
C482 C484 1.378 . S
C482 C486 1.350 . S
C483 C486 1.463 . S
C483 C488 1.350 . S
C483 N491 1.427 . S
C484 H475 0.930 . S
C484 C482 1.378 . S
C484 C485 1.367 . S
C485 C484 1.367 . S
C485 C487 1.433 . S
C486 C482 1.350 . S
C486 C483 1.463 . S
C486 N490 1.427 . S
C487 H477 0.929 . S
C487 C485 1.433 . S
C487 N490 1.384 . S
C488 H479 0.929 . S
C488 C480 1.378 . S
C488 C483 1.350 . S
C489 H476 0.929 . S
C489 C481 1.433 . S
C489 N491 1.384 . S
N490 C486 1.427 . S
N490 C487 1.384 . S
N491 C483 1.427 . S
N491 C489 1.384 . S
H492 C498 0.930 . S
H493 C502 0.930 . S
H494 C507 0.929 . S
H495 C505 0.929 . S
H496 C500 0.929 . S
H497 C506 0.929 . S
C498 H492 0.930 . S
C498 C499 1.367 . S
C498 C506 1.378 . S
C499 C498 1.367 . S
C499 C507 1.433 . S
C500 H496 0.929 . S
C500 C502 1.378 . S
C500 C504 1.350 . S
C501 C504 1.463 . S
C501 C506 1.350 . S
C501 N509 1.427 . S
C502 H493 0.930 . S
C502 C500 1.378 . S
C502 C503 1.367 . S
C503 C502 1.367 . S
C503 C505 1.433 . S
C504 C500 1.350 . S
C504 C501 1.463 . S
C504 N508 1.427 . S
C505 H495 0.929 . S
C505 C503 1.433 . S
C505 N508 1.384 . S
C506 H497 0.929 . S
C506 C498 1.378 . S
C506 C501 1.350 . S
C507 H494 0.929 . S
C507 C499 1.433 . S
C507 N509 1.384 . S
N508 C504 1.427 . S
N508 C505 1.384 . S
N509 C501 1.427 . S
N509 C507 1.384 . S
H510 C516 0.930 . S
H511 C520 0.930 . S
H512 C525 0.929 . S
H513 C523 0.929 . S
H514 C518 0.929 . S
H515 C524 0.929 . S
C516 H510 0.930 . S
C516 C517 1.367 . S
C516 C524 1.378 1_655 S
C517 C516 1.367 . S
C517 C525 1.433 . S
C518 H514 0.929 . S
C518 C520 1.378 1_655 S
C518 C522 1.350 1_655 S
C519 C522 1.463 1_655 S
C519 C524 1.350 1_655 S
C519 N527 1.427 . S
C520 H511 0.930 . S
C520 C518 1.378 1_455 S
C520 C521 1.367 . S
C521 C520 1.367 . S
C521 C523 1.433 . S
C522 C518 1.350 1_455 S
C522 C519 1.463 1_455 S
C522 N526 1.427 . S
C523 H513 0.929 . S
C523 C521 1.433 . S
C523 N526 1.384 . S
C524 H515 0.929 . S
C524 C516 1.378 1_455 S
C524 C519 1.350 1_455 S
C525 H512 0.929 . S
C525 C517 1.433 . S
C525 N527 1.384 . S
N526 C522 1.427 . S
N526 C523 1.384 . S
N527 C519 1.427 . S
N527 C525 1.384 . S
H528 C534 0.930 . S
H529 C538 0.930 . S
H530 C543 0.929 . S
H531 C541 0.929 . S
H532 C536 0.929 . S
H533 C542 0.929 . S
C534 H528 0.930 . S
C534 C535 1.367 . S
C534 C542 1.378 . S
C535 C534 1.367 . S
C535 C543 1.433 . S
C536 H532 0.929 . S
C536 C538 1.378 . S
C536 C540 1.350 . S
C537 C540 1.463 1_545 S
C537 C542 1.350 . S
C537 N545 1.427 . S
C538 H529 0.930 . S
C538 C536 1.378 . S
C538 C539 1.367 . S
C539 C538 1.367 . S
C539 C541 1.433 . S
C540 C536 1.350 . S
C540 C537 1.463 1_565 S
C540 N544 1.427 . S
C541 H531 0.929 . S
C541 C539 1.433 . S
C541 N544 1.384 . S
C542 H533 0.929 . S
C542 C534 1.378 . S
C542 C537 1.350 . S
C543 H530 0.929 . S
C543 C535 1.433 . S
C543 N545 1.384 . S
N544 C540 1.427 . S
N544 C541 1.384 . S
N545 C537 1.427 . S
N545 C543 1.384 . S
H546 C552 0.930 . S
H547 C556 0.930 . S
H548 C561 0.929 . S
H549 C559 0.929 . S
H550 C554 0.929 . S
H551 C560 0.929 . S
C552 H546 0.930 . S
C552 C553 1.367 . S
C552 C560 1.378 . S
C553 C552 1.367 . S
C553 C561 1.433 . S
C554 H550 0.929 . S
C554 C556 1.378 . S
C554 C558 1.350 . S
C555 C558 1.463 . S
C555 C560 1.350 . S
C555 N563 1.427 . S
C556 H547 0.930 . S
C556 C554 1.378 . S
C556 C557 1.367 . S
C557 C556 1.367 . S
C557 C559 1.433 . S
C558 C554 1.350 . S
C558 C555 1.463 . S
C558 N562 1.427 . S
C559 H549 0.929 . S
C559 C557 1.433 . S
C559 N562 1.384 . S
C560 H551 0.929 . S
C560 C552 1.378 . S
C560 C555 1.350 . S
C561 H548 0.929 . S
C561 C553 1.433 . S
C561 N563 1.384 . S
N562 C558 1.427 . S
N562 C559 1.384 . S
N563 C555 1.427 . S
N563 C561 1.384 . S
H564 C570 0.930 . S
H565 C574 0.930 . S
H566 C579 0.929 . S
H567 C577 0.929 . S
H568 C572 0.929 . S
H569 C578 0.929 . S
C570 H564 0.930 . S
C570 C571 1.367 . S
C570 C578 1.378 1_455 S
C571 C570 1.367 . S
C571 C579 1.433 . S
C572 H568 0.929 . S
C572 C574 1.378 1_455 S
C572 C576 1.350 1_455 S
C573 C576 1.463 1_455 S
C573 C578 1.350 1_455 S
C573 N581 1.427 . S
C574 H565 0.930 . S
C574 C572 1.378 1_655 S
C574 C575 1.367 . S
C575 C574 1.367 . S
C575 C577 1.433 . S
C576 C572 1.350 1_655 S
C576 C573 1.463 1_655 S
C576 N580 1.427 . S
C577 H567 0.929 . S
C577 C575 1.433 . S
C577 N580 1.384 . S
C578 H569 0.929 . S
C578 C570 1.378 1_655 S
C578 C573 1.350 1_655 S
C579 H566 0.929 . S
C579 C571 1.433 . S
C579 N581 1.384 . S
N580 C576 1.427 . S
N580 C577 1.384 . S
N581 C573 1.427 . S
N581 C579 1.384 . S
H582 C588 0.930 . S
H583 C592 0.930 . S
H584 C597 0.929 . S
H585 C595 0.929 . S
H586 C590 0.929 . S
H587 C596 0.929 . S
C588 H582 0.930 . S
C588 C589 1.367 . S
C588 C596 1.378 1_565 S
C589 C588 1.367 . S
C589 C597 1.433 . S
C590 H586 0.929 . S
C590 C592 1.378 1_565 S
C590 C594 1.350 1_565 S
C591 C594 1.463 1_565 S
C591 C596 1.350 1_565 S
C591 N599 1.427 . S
C592 H583 0.930 . S
C592 C590 1.378 1_545 S
C592 C593 1.367 . S
C593 C592 1.367 . S
C593 C595 1.433 . S
C594 C590 1.350 1_545 S
C594 C591 1.463 1_545 S
C594 N598 1.427 . S
C595 H585 0.929 . S
C595 C593 1.433 . S
C595 N598 1.384 . S
C596 H587 0.929 . S
C596 C588 1.378 1_545 S
C596 C591 1.350 1_545 S
C597 H584 0.929 . S
C597 C589 1.433 . S
C597 N599 1.384 . S
N598 C594 1.427 . S
N598 C595 1.384 . S
N599 C591 1.427 . S
N599 C597 1.384 . S
C175 C107 1.349 . S
C179 C9 1.344 . S
C193 C23 1.352 . S
C197 C121 1.338 . S
C211 C37 1.338 . S
C215 C135 1.352 . S
C229 C51 1.341 . S
C233 C149 1.352 . S
C247 C163 1.338 . S
C251 C65 1.351 . S
C265 C93 1.353 . S
C269 C79 1.337 . S
C283 C143 1.397 . S
C287 C3 1.396 . S
C301 C17 1.397 . S
C305 C157 1.397 . S
C319 C31 1.394 . S
C323 C87 1.395 . S
C337 C101 1.395 . S
C341 C45 1.394 . S
C355 C115 1.395 . S
C359 C59 1.394 . S
C373 C129 1.397 . S
C377 C73 1.397 . S
C391 C7 1.626 . S
C395 C119 1.624 . S
C409 C21 1.629 . S
C413 C133 1.635 . S
C427 C147 1.624 . S
C431 C35 1.626 . S
C445 C49 1.628 . S
C449 C161 1.624 . S
C463 C91 1.633 . S
C467 C63 1.637 . S
C481 C105 1.624 . S
C485 C77 1.628 . S
C499 C50 1.398 . S
C503 C8 1.398 . S
C517 C64 1.399 . S
C521 C22 1.399 . S
C535 C36 1.393 . S
C539 C78 1.393 . S
C553 C92 1.396 . S
C557 C134 1.397 . S
C571 C106 1.400 . S
C575 C148 1.400 . S
C589 C162 1.399 . S
C593 C120 1.399 . S
