# Generated by pormake.
# Topology uni, (4)-cn, num edge types: 1
# Building blocks:
#     Node 0, Type 0, BuildingBlock: UXUYUI_clean_sbu_0, # of connection points: 4
#     Node 1, Type 0, BuildingBlock: UXUYUI_clean_sbu_0, # of connection points: 4
#     Node 2, Type 0, BuildingBlock: UXUYUI_clean_sbu_0, # of connection points: 4
#     Node 3, Type 0, BuildingBlock: UXUYUI_clean_sbu_0, # of connection points: 4
#     Node 4, Type 0, BuildingBlock: UXUYUI_clean_sbu_0, # of connection points: 4
#     Node 5, Type 0, BuildingBlock: UXUYUI_clean_sbu_0, # of connection points: 4
#     Edge 6, Type (0, 0), None
#     Edge 7, Type (0, 0), None
#     Edge 8, Type (0, 0), None
#     Edge 9, Type (0, 0), None
#     Edge 10, Type (0, 0), None
#     Edge 11, Type (0, 0), None
#     Edge 12, Type (0, 0), None
#     Edge 13, Type (0, 0), None
#     Edge 14, Type (0, 0), None
#     Edge 15, Type (0, 0), None
#     Edge 16, Type (0, 0), None
#     Edge 17, Type (0, 0), None
# Relax obj value: 0.104
# Max RMSD: 0.125
# Mean RMSD: 0.125
data_MOF--net-uni--node1-UXUYUI_clean_sbu_0--edge1-none
_symmetry_space_group_name_H-M    P1
_symmetry_Int_Tables_number       1
_symmetry_cell_setting            triclinic
loop_
_symmetry_equiv_pos_as_xyz
'x, y, z'
_cell_length_a     35.663326
_cell_length_b     35.667618
_cell_length_c     21.373344
_cell_angle_alpha  89.999608
_cell_angle_beta   89.998917
_cell_angle_gamma 120.00243
loop_
_atom_site_label
_atom_site_type_symbol
_atom_site_fract_x
_atom_site_fract_y
_atom_site_fract_z
_atom_type_partial_charge
Li0 Li 0.69143 0.05532 0.04204 0.0
Li1 Li 0.62701 0.02774 0.1145 0.0
Li2 Li 0.65392 0.98027 0.07355 0.0
Li3 Li 0.61704 1.00781 1.0011 0.0
C4 C 0.7042 0.02026 0.17267 0.0
N5 N 0.74192 0.99235 0.26014 0.0
C6 C 0.68721 0.00949 0.23316 0.0
C7 C 0.7408 0.01753 0.15699 0.0
C8 C 0.70664 0.99528 0.27664 0.0
C9 C 0.75928 1.00314 0.20176 0.0
C10 C 0.6286 0.09532 0.03916 0.0
C11 C 0.57217 0.11358 0.03155 0.0
N12 N 0.60212 0.15602 0.04031 0.0
C13 C 0.65887 0.1391 0.04783 0.0
C14 C 0.58493 0.08238 0.03073 0.0
C15 C 0.64482 0.1693 0.04836 0.0
C16 C 0.74762 0.12348 0.9622 0.0
N17 N 0.74519 0.10548 0.01924 0.0
C18 C 0.81785 0.16048 0.04274 0.0
C19 C 0.77927 0.12318 0.05954 0.0
C20 C 0.82146 0.17936 0.98369 0.0
C21 C 0.78578 0.16023 0.94305 0.0
H22 H 0.71969 0.10945 0.93169 0.0
H23 H 0.77636 0.10862 0.10495 0.0
C24 C 0.57554 1.00038 0.22069 0.0
N25 N 0.59821 0.03604 0.18435 0.0
C26 C 0.55028 1.00083 0.27018 0.0
C27 C 0.57255 0.0751 0.24508 0.0
C28 C 0.59776 0.07331 0.19616 0.0
C29 C 0.54783 0.03828 0.28243 0.0
H30 H 0.5767 0.97126 0.21062 0.0
H31 H 0.61629 0.10145 0.16716 0.0
C32 C 0.70174 0.01534 0.94292 0.0
N33 N 0.76737 0.04327 0.85543 0.0
C34 C 0.69548 0.02603 0.8824 0.0
C35 C 0.7411 0.01816 0.95862 0.0
C36 C 0.72912 0.04025 0.8389 0.0
C37 C 0.77396 0.03255 0.91384 0.0
C38 C 0.55106 0.94025 0.07646 0.0
C39 C 0.53751 0.89646 0.06782 0.0
C40 C 0.52035 0.95322 0.08485 0.0
C41 C 0.49324 0.86628 0.06729 0.0
C42 C 0.47639 0.92205 0.08404 0.0
N43 N 0.46385 0.8796 0.07531 0.0
C44 C 0.64192 0.91209 0.15334 0.0
C45 C 0.67402 0.9125 0.05608 0.0
C46 C 0.64336 0.87535 0.17248 0.0
N47 N 0.65755 0.93013 0.09634 0.0
C48 C 0.67532 0.87522 0.07287 0.0
C49 C 0.65999 0.85629 0.13188 0.0
H50 H 0.62797 0.92607 0.18382 0.0
H51 H 0.68572 0.9271 0.0107 0.0
C52 C 0.59297 0.03517 0.89491 0.0
N53 N 0.57995 0.99952 0.93126 0.0
C54 C 0.56727 0.03475 0.84543 0.0
C55 C 0.51521 0.9605 0.87054 0.0
C56 C 0.54221 0.96227 0.91946 0.0
C57 C 0.52734 0.99732 0.83319 0.0
H58 H 0.62327 0.06429 0.90498 0.0
H59 H 0.53257 0.93412 0.94846 0.0
O60 O 0.68516 0.03352 0.12913 0.0
O61 O 0.64185 0.06539 0.03861 0.0
O62 O 0.66944 1.00207 0.98646 0.0
O63 O 0.59424 0.97016 0.077 0.0
H64 H 0.6592 0.01184 0.24632 0.0
H65 H 0.75472 0.02632 0.11074 0.0
H66 H 0.69364 0.98654 0.32349 0.0
H67 H 0.78743 1.00059 0.1901 0.0
H68 H 0.53847 0.10405 0.02516 0.0
H69 H 0.69282 0.14958 0.0543 0.0
H70 H 0.56117 0.04867 0.02349 0.0
H71 H 0.66784 0.2033 0.0552 0.0
H72 H 0.84466 0.1743 0.0754 0.0
H73 H 0.787 0.17419 0.89757 0.0
H74 H 0.5328 0.97196 0.29846 0.0
H75 H 0.57162 0.10465 0.25243 0.0
H76 H 0.66508 0.02361 0.86922 0.0
H77 H 0.74626 0.00943 1.0049 0.0
H78 H 0.72483 0.04892 0.79203 0.0
H79 H 0.8047 0.03517 0.92551 0.0
H80 H 0.56096 0.88595 0.06137 0.0
H81 H 0.53033 0.98694 0.09206 0.0
H82 H 0.48224 0.83228 0.06048 0.0
H83 H 0.45223 0.9316 0.0904 0.0
H84 H 0.63057 0.86136 0.21793 0.0
H85 H 0.68838 0.86145 0.04023 0.0
H86 H 0.57868 0.06362 0.81714 0.0
H87 H 0.4847 0.93096 0.86321 0.0
Li88 Li 0.65396 0.68607 0.20867 0.0
Li89 Li 0.6171 0.62164 0.28113 0.0
Li90 Li 0.69149 0.64854 0.24018 0.0
Li91 Li 0.62706 0.61168 0.16772 0.0
C92 C 0.70179 0.69883 0.33929 0.0
N93 N 0.76743 0.73658 0.42675 0.0
C94 C 0.69557 0.68187 0.39979 0.0
C95 C 0.74112 0.73542 0.32359 0.0
C96 C 0.72922 0.70131 0.44327 0.0
C97 C 0.77399 0.75391 0.36835 0.0
C98 C 0.55112 0.62325 0.20577 0.0
C99 C 0.47643 0.56682 0.19816 0.0
N100 N 0.46392 0.59676 0.20691 0.0
C101 C 0.53759 0.65351 0.21444 0.0
C102 C 0.52038 0.57958 0.19734 0.0
C103 C 0.49333 0.63945 0.21497 0.0
C104 C 0.64201 0.74227 0.12885 0.0
N105 N 0.65758 0.73983 0.18589 0.0
C106 C 0.67526 0.81249 0.20941 0.0
C107 C 0.67397 0.7739 0.22619 0.0
C108 C 0.66 0.81611 0.15036 0.0
C109 C 0.64344 0.78044 0.10971 0.0
H110 H 0.62811 0.71435 0.09833 0.0
H111 H 0.68562 0.77098 0.2716 0.0
C112 C 0.593 0.5702 0.38732 0.0
N113 N 0.57999 0.59285 0.35097 0.0
C114 C 0.5673 0.54493 0.43681 0.0
C115 C 0.51526 0.56716 0.41169 0.0
C116 C 0.54226 0.59237 0.36277 0.0
C117 C 0.52737 0.54245 0.44904 0.0
H118 H 0.6233 0.57137 0.37726 0.0
H119 H 0.53263 0.61088 0.33377 0.0
C120 C 0.70426 0.69636 0.10955 0.0
N121 N 0.74203 0.76198 0.02207 0.0
C122 C 0.68731 0.69013 0.04904 0.0
C123 C 0.74085 0.73569 0.12525 0.0
C124 C 0.70676 0.72376 1.00555 0.0
C125 C 0.75934 0.76855 0.08047 0.0
C126 C 0.62864 0.5457 0.24308 0.0
C127 C 0.65888 0.53215 0.23444 0.0
C128 C 0.58495 0.51499 0.25148 0.0
C129 C 0.6448 0.48789 0.23393 0.0
C130 C 0.57217 0.47103 0.25068 0.0
N131 N 0.60209 0.45851 0.24195 0.0
C132 C 0.74768 0.63655 0.32 0.0
C133 C 0.77935 0.66858 0.2227 0.0
C134 C 0.78584 0.63798 0.33914 0.0
N135 N 0.74526 0.65216 0.26298 0.0
C136 C 0.81793 0.66987 0.2395 0.0
C137 C 0.82153 0.65457 0.29853 0.0
H138 H 0.71974 0.62262 0.35049 0.0
H139 H 0.77644 0.68025 0.1773 0.0
C140 C 0.57562 0.5876 0.06152 0.0
N141 N 0.59827 0.57459 0.09787 0.0
C142 C 0.55035 0.5619 0.01204 0.0
C143 C 0.57258 0.50987 0.03715 0.0
C144 C 0.59779 0.53687 0.08607 0.0
C145 C 0.54787 0.52198 0.9998 0.0
H146 H 0.57679 0.6179 0.07159 0.0
H147 H 0.61631 0.52724 0.11507 0.0
O148 O 0.66948 0.67978 0.29576 0.0
O149 O 0.59429 0.6365 0.20523 0.0
O150 O 0.68521 0.66407 0.1531 0.0
O151 O 0.64191 0.58888 0.24362 0.0
H152 H 0.6652 0.65386 0.41297 0.0
H153 H 0.74625 0.74932 0.27732 0.0
H154 H 0.72496 0.68833 0.49013 0.0
H155 H 0.8047 0.78206 0.35668 0.0
H156 H 0.45226 0.53312 0.19177 0.0
H157 H 0.56106 0.68746 0.22092 0.0
H158 H 0.53034 0.55582 0.1901 0.0
H159 H 0.48235 0.66246 0.2218 0.0
H160 H 0.68826 0.83929 0.24208 0.0
H161 H 0.6307 0.78167 0.06423 0.0
H162 H 0.57869 0.52746 0.46509 0.0
H163 H 0.48476 0.5662 0.41902 0.0
H164 H 0.65931 0.65976 0.03587 0.0
H165 H 0.75474 0.74084 0.17152 0.0
H166 H 0.69379 0.71949 0.95868 0.0
H167 H 0.78749 0.79927 0.09214 0.0
H168 H 0.69284 0.5556 0.22799 0.0
H169 H 0.5612 0.52497 0.25869 0.0
H170 H 0.66781 0.47689 0.22713 0.0
H171 H 0.53846 0.44688 0.25704 0.0
H172 H 0.78706 0.62521 0.38461 0.0
H173 H 0.84475 0.6829 0.20685 0.0
H174 H 0.53288 0.5733 0.98375 0.0
H175 H 0.57162 0.47937 0.02982 0.0
Li176 Li 0.98573 0.64853 0.37536 0.0
Li177 Li 0.0133 0.61168 0.44781 0.0
Li178 Li 0.06079 0.68606 0.40687 0.0
Li179 Li 0.03323 0.62164 0.33441 0.0
C180 C 0.02078 0.69634 0.50599 0.0
N181 N 0.04866 0.76196 0.59348 0.0
C182 C 0.03151 0.69011 0.5665 0.0
C183 C 0.02354 0.73568 0.4903 0.0
C184 C 0.0457 0.72374 0.60999 0.0
C185 C 0.03791 0.76853 0.53508 0.0
C186 C 0.94572 0.5457 0.37246 0.0
C187 C 0.92749 0.47102 0.36484 0.0
N188 N 0.88504 0.45851 0.37358 0.0
C189 C 0.90193 0.53216 0.38111 0.0
C190 C 0.95868 0.51498 0.36404 0.0
C191 C 0.87173 0.4879 0.38163 0.0
C192 C 0.91756 0.63655 0.29554 0.0
N193 N 0.93558 0.65215 0.35256 0.0
C194 C 0.88062 0.66985 0.37605 0.0
C195 C 0.91791 0.66856 0.39284 0.0
C196 C 0.86172 0.65457 0.31701 0.0
C197 C 0.88082 0.63798 0.27639 0.0
H198 H 0.93157 0.62264 0.26504 0.0
H199 H 0.93249 0.68023 0.43825 0.0
C200 C 0.04065 0.58758 0.55401 0.0
N201 N 1.005 0.57458 0.51766 0.0
C202 C 0.04022 0.56189 0.60349 0.0
C203 C 0.96594 0.50986 0.57838 0.0
C204 C 0.96773 0.53686 0.52946 0.0
C205 C 1.00277 0.52197 0.61573 0.0
H206 H 0.06978 0.61788 0.54394 0.0
H207 H 0.93959 0.52723 0.50046 0.0
C208 C 0.02574 0.69883 0.27625 0.0
N209 N 0.99785 0.73658 0.18879 0.0
C210 C 0.015 0.68188 0.21574 0.0
C211 C 0.02298 0.7354 0.29195 0.0
C212 C 1.0008 0.70132 0.17226 0.0
C213 C 1.00861 0.7539 0.24719 0.0
C214 C 0.1008 0.62323 0.40976 0.0
C215 C 0.1446 0.65348 0.40111 0.0
C216 C 0.08784 0.57956 0.41818 0.0
C217 C 0.17479 0.63941 0.40058 0.0
C218 C 0.11902 0.56678 0.41737 0.0
N219 N 0.16148 0.59671 0.40862 0.0
C220 C 0.12896 0.74226 0.4867 0.0
C221 C 0.12861 0.77391 0.38938 0.0
C222 C 0.16569 0.78043 0.50584 0.0
N223 N 0.11094 0.73983 0.42966 0.0
C224 C 0.1659 0.8125 0.40617 0.0
C225 C 0.18479 0.81612 0.46522 0.0
H226 H 0.11495 0.71434 0.5172 0.0
H227 H 0.11404 0.77099 0.34397 0.0
C228 C 1.00586 0.57021 0.22821 0.0
N229 N 0.04152 0.59284 0.26456 0.0
C230 C 1.00629 0.54494 0.17872 0.0
C231 C 0.08054 0.56713 0.20385 0.0
C232 C 0.07877 0.59235 0.25277 0.0
C233 C 0.04372 0.54244 0.16649 0.0
H234 H 0.97675 0.5714 0.23827 0.0
H235 H 0.10692 0.61086 0.28177 0.0
O236 O 1.00754 0.66405 0.46244 0.0
O237 O 0.97564 0.58887 0.37192 0.0
O238 O 0.03899 0.67978 0.31978 0.0
O239 O 0.07089 0.63649 0.41031 0.0
H240 H 0.02914 0.65974 0.57966 0.0
H241 H 0.01478 0.74082 0.44403 0.0
H242 H 0.0544 0.71947 0.65686 0.0
H243 H 0.04047 0.79925 0.52342 0.0
H244 H 0.93704 0.44687 0.35846 0.0
H245 H 0.89143 0.55561 0.38757 0.0
H246 H 0.9924 0.52495 0.35681 0.0
H247 H 0.83773 0.47691 0.38844 0.0
H248 H 0.86682 0.68287 0.4087 0.0
H249 H 0.86685 0.62523 0.23092 0.0
H250 H 0.06908 0.57327 0.63178 0.0
H251 H 0.93639 0.47936 0.58571 0.0
H252 H 0.01738 0.65388 0.20256 0.0
H253 H 0.03175 0.7493 0.33823 0.0
H254 H 0.9921 0.68835 0.12539 0.0
H255 H 1.00604 0.78204 0.25886 0.0
H256 H 0.1551 0.68743 0.39465 0.0
H257 H 0.05412 0.55581 0.42541 0.0
H258 H 0.20879 0.66242 0.39377 0.0
H259 H 0.10948 0.53308 0.42374 0.0
H260 H 0.17966 0.78166 0.55132 0.0
H261 H 0.17969 0.83931 0.37351 0.0
H262 H 0.97742 0.52748 0.15043 0.0
H263 H 0.11008 0.56616 0.19652 0.0
Li264 Li 0.41942 1.00789 0.61452 0.0
Li265 Li 0.35499 0.98033 0.54206 0.0
Li266 Li 0.42939 0.02781 0.50112 0.0
Li267 Li 0.39253 0.05538 0.57356 0.0
C268 C 0.41784 0.94033 0.53916 0.0
N269 N 0.44438 0.87968 0.54026 0.0
C270 C 0.38759 0.89654 0.54778 0.0
C271 C 0.46152 0.9533 0.53076 0.0
C272 C 0.40168 0.86636 0.54828 0.0
C273 C 0.47431 0.92213 0.53155 0.0
C274 C 0.34224 0.01541 0.67269 0.0
C275 C 0.2872 0.03257 0.70177 0.0
N276 N 0.30454 0.04335 0.76015 0.0
C277 C 0.35922 0.02616 0.73318 0.0
C278 C 0.30567 0.01817 0.657 0.0
C279 C 0.33981 0.04039 0.77666 0.0
C280 C 0.47087 0.03523 0.72071 0.0
N281 N 0.4482 0.99958 0.68437 0.0
C282 C 0.47386 0.96052 0.74509 0.0
C283 C 0.44865 0.96231 0.69617 0.0
C284 C 0.49859 0.99734 0.78244 0.0
C285 C 0.49613 0.03479 0.7702 0.0
H286 H 0.46971 0.06436 0.71065 0.0
H287 H 0.43012 0.93417 0.66717 0.0
C288 C 0.29882 0.91215 0.46225 0.0
N289 N 0.30123 0.93018 0.51926 0.0
C290 C 0.26067 0.87541 0.4431 0.0
C291 C 0.22855 0.87522 0.54273 0.0
C292 C 0.26713 0.91251 0.55952 0.0
C293 C 0.22497 0.85631 0.4837 0.0
H294 H 0.32676 0.92616 0.43177 0.0
H295 H 0.27002 0.9271 0.60492 0.0
C296 C 0.49538 0.09539 0.57646 0.0
N297 N 0.58257 0.15607 0.5753 0.0
C298 C 0.50891 0.13917 0.56777 0.0
C299 C 0.5261 0.08244 0.5849 0.0
C300 C 0.55318 0.16936 0.56723 0.0
C301 C 0.57006 0.11362 0.58408 0.0
C302 C 0.3447 0.02031 0.44294 0.0
C303 C 0.35093 0.00958 0.38244 0.0
C304 C 0.30536 0.01753 0.45864 0.0
C305 C 0.31728 0.99535 0.33896 0.0
C306 C 0.27248 1.00314 0.41388 0.0
N307 N 0.27906 0.99238 0.35548 0.0
C308 C 0.45346 1.00044 0.39493 0.0
C309 C 0.50422 0.07334 0.41947 0.0
C310 C 0.47915 1.00086 0.34544 0.0
N311 N 0.46648 0.0361 0.43127 0.0
C312 C 0.53122 0.07512 0.37055 0.0
C313 C 0.51908 0.03829 0.33319 0.0
H314 H 0.42315 0.97133 0.40499 0.0
H315 H 0.51387 0.10149 0.44847 0.0
C316 C 0.40454 0.12357 0.65336 0.0
N317 N 0.38892 0.10553 0.59635 0.0
C318 C 0.40312 0.16031 0.67249 0.0
C319 C 0.37119 0.16047 0.57287 0.0
C320 C 0.37248 0.12318 0.55608 0.0
C321 C 0.38651 0.17939 0.63189 0.0
H322 H 0.41848 0.10958 0.68384 0.0
H323 H 0.36079 0.10859 0.5107 0.0
O324 O 0.40456 0.97023 0.53863 0.0
O325 O 0.36127 1.00213 0.62915 0.0
O326 O 0.4522 0.06547 0.57702 0.0
O327 O 0.377 0.03358 0.48648 0.0
H328 H 0.35363 0.88602 0.55422 0.0
H329 H 0.48527 0.98703 0.52356 0.0
H330 H 0.37867 0.83235 0.55507 0.0
H331 H 0.50802 0.93169 0.52519 0.0
H332 H 0.25905 0.03515 0.69011 0.0
H333 H 0.38722 0.02378 0.74634 0.0
H334 H 0.29175 0.00939 0.61074 0.0
H335 H 0.35279 0.04911 0.82352 0.0
H336 H 0.4748 0.93096 0.75242 0.0
H337 H 0.51362 0.06365 0.79848 0.0
H338 H 0.25946 0.86142 0.39765 0.0
H339 H 0.20172 0.86142 0.57536 0.0
H340 H 0.48545 0.14966 0.56128 0.0
H341 H 0.51614 0.04872 0.59216 0.0
H342 H 0.56416 0.20336 0.56038 0.0
H343 H 0.59422 0.10409 0.59047 0.0
H344 H 0.38131 0.01196 0.36926 0.0
H345 H 0.30021 0.02629 0.50491 0.0
H346 H 0.32155 0.98665 0.29209 0.0
H347 H 0.24176 1.00055 0.42555 0.0
H348 H 0.46774 0.972 0.31715 0.0
H349 H 0.56173 0.10465 0.36321 0.0
H350 H 0.4159 0.1743 0.71795 0.0
H351 H 0.35814 0.17425 0.54023 0.0
Li352 Li 0.42939 0.41404 0.78113 0.0
Li353 Li 0.39253 0.34961 0.70869 0.0
Li354 Li 0.41942 0.42399 0.66773 0.0
Li355 Li 0.355 0.38713 0.74019 0.0
C356 C 0.49537 0.41244 0.70578 0.0
N357 N 0.58257 0.43893 0.70691 0.0
C358 C 0.5089 0.38218 0.71445 0.0
C359 C 0.52611 0.45611 0.69734 0.0
C360 C 0.55317 0.39624 0.71497 0.0
C361 C 0.57006 0.46887 0.69815 0.0
C362 C 0.34471 0.33684 0.83931 0.0
C363 C 0.27251 0.28176 0.86838 0.0
N364 N 0.27906 0.29909 0.92678 0.0
C365 C 0.35092 0.35381 0.89981 0.0
C366 C 0.30538 0.30026 0.82361 0.0
C367 C 0.31728 0.33437 0.94329 0.0
C368 C 0.45348 0.46548 0.88732 0.0
N369 N 0.46649 0.44284 0.85098 0.0
C370 C 0.53123 0.46852 0.91169 0.0
C371 C 0.50422 0.44331 0.86277 0.0
C372 C 0.51911 0.49323 0.94904 0.0
C373 C 0.47919 0.49075 0.9368 0.0
H374 H 0.42318 0.46431 0.87726 0.0
H375 H 0.51385 0.42479 0.83377 0.0
C376 C 0.4045 0.29341 0.62886 0.0
N377 N 0.38892 0.29585 0.6859 0.0
C378 C 0.40307 0.25525 0.60973 0.0
C379 C 0.37123 0.22319 0.70941 0.0
C380 C 0.37252 0.26177 0.7262 0.0
C381 C 0.38651 0.21958 0.65037 0.0
H382 H 0.41841 0.32133 0.59835 0.0
H383 H 0.36087 0.26469 0.77161 0.0
C384 C 0.41785 0.48998 0.74309 0.0
N385 N 0.4444 0.57717 0.74195 0.0
C386 C 0.3876 0.50353 0.73445 0.0
C387 C 0.46153 0.52068 0.75148 0.0
C388 C 0.40169 0.54779 0.73393 0.0
C389 C 0.47432 0.56464 0.75067 0.0
C390 C 0.34223 0.33931 0.60957 0.0
C391 C 0.35919 0.34555 0.54906 0.0
C392 C 0.30566 0.29997 0.62526 0.0
C393 C 0.33975 0.31191 0.50557 0.0
C394 C 0.28717 0.26711 0.58049 0.0
N395 N 0.30449 0.27369 0.52209 0.0
C396 C 0.47087 0.44808 0.56153 0.0
C397 C 0.44869 0.49881 0.58607 0.0
C398 C 0.49614 0.47378 0.51205 0.0
N399 N 0.44822 0.46109 0.59788 0.0
C400 C 0.47391 0.52581 0.53716 0.0
C401 C 0.49862 0.5137 0.4998 0.0
H402 H 0.4697 0.41779 0.5716 0.0
H403 H 0.43017 0.50844 0.61508 0.0
C404 C 0.2988 0.39911 0.82001 0.0
N405 N 0.30122 0.38351 0.763 0.0
C406 C 0.26063 0.39768 0.83916 0.0
C407 C 0.22854 0.36577 0.73952 0.0
C408 C 0.26713 0.36707 0.72273 0.0
C409 C 0.22493 0.38107 0.79855 0.0
H410 H 0.32673 0.41304 0.8505 0.0
H411 H 0.27003 0.3554 0.67733 0.0
O412 O 0.4522 0.39919 0.70523 0.0
O413 O 0.37701 0.35589 0.79577 0.0
O414 O 0.40457 0.4468 0.74363 0.0
O415 O 0.36128 0.3716 0.65311 0.0
H416 H 0.48544 0.34823 0.72093 0.0
H417 H 0.51615 0.47986 0.6901 0.0
H418 H 0.56415 0.37323 0.7218 0.0
H419 H 0.59423 0.50257 0.69176 0.0
H420 H 0.24179 0.25361 0.85671 0.0
H421 H 0.38129 0.38182 0.91298 0.0
H422 H 0.30024 0.28635 0.77735 0.0
H423 H 0.32154 0.34734 0.99015 0.0
H424 H 0.56173 0.46948 0.91902 0.0
H425 H 0.46779 0.50822 0.96509 0.0
H426 H 0.41582 0.25402 0.56425 0.0
H427 H 0.35823 0.19639 0.74208 0.0
H428 H 0.35364 0.48008 0.72801 0.0
H429 H 0.48528 0.5107 0.75869 0.0
H430 H 0.37869 0.55879 0.72713 0.0
H431 H 0.50803 0.58879 0.75703 0.0
H432 H 0.38719 0.37592 0.53588 0.0
H433 H 0.29176 0.29482 0.67154 0.0
H434 H 0.35273 0.31619 0.4587 0.0
H435 H 0.25903 0.23639 0.59216 0.0
H436 H 0.51361 0.46239 0.48376 0.0
H437 H 0.47486 0.55631 0.52982 0.0
H438 H 0.25941 0.41044 0.88462 0.0
H439 H 0.20172 0.35274 0.70688 0.0
Li440 Li 0.03316 0.42396 0.94783 0.0
Li441 Li 0.06072 0.3871 0.87537 0.0
Li442 Li 0.01324 0.41401 0.83441 0.0
Li443 Li 0.98566 0.34958 0.90686 0.0
C444 C 0.10075 0.48994 0.87247 0.0
N445 N 0.16143 0.57713 0.87357 0.0
C446 C 0.14454 0.50348 0.8811 0.0
C447 C 0.08779 0.52066 0.86406 0.0
C448 C 0.17473 0.54774 0.8816 0.0
C449 C 0.11897 0.56461 0.86486 0.0
C450 C 0.0256 0.33925 0.00596 0.0
C451 C 1.00842 0.26703 0.03499 0.0
N452 N 0.99759 0.27356 0.09336 0.0
C453 C 0.01479 0.34543 0.06644 0.0
C454 C 0.02286 0.29992 0.99026 0.0
C455 C 1.00052 0.31176 0.10989 0.0
C456 C 1.0058 0.44806 0.05401 0.0
N457 N 0.04146 0.46105 0.01767 0.0
C458 C 0.08053 0.52577 0.07839 0.0
C459 C 0.07874 0.49877 0.02948 0.0
C460 C 0.0437 0.51368 0.11574 0.0
C461 C 1.00625 0.47377 0.10349 0.0
H462 H 0.97667 0.41778 0.04394 0.0
H463 H 0.10688 0.50838 1.00048 0.0
C464 C 0.1289 0.39907 0.79555 0.0
N465 N 0.11088 0.38348 0.85258 0.0
C466 C 0.16564 0.39764 0.77641 0.0
C467 C 0.16585 0.36579 0.87608 0.0
C468 C 0.12855 0.36708 0.89287 0.0
C469 C 0.18474 0.38107 0.81703 0.0
H470 H 0.11488 0.41298 0.76505 0.0
H471 H 0.11397 0.35541 0.93827 0.0
C472 C 0.94566 0.41242 0.90975 0.0
N473 N 0.88499 0.43895 0.90861 0.0
C474 C 0.90187 0.38218 0.90108 0.0
C475 C 0.95863 0.4561 0.91819 0.0
C476 C 0.87168 0.39626 0.90055 0.0
C477 C 0.92745 0.46888 0.91737 0.0
C478 C 0.02073 0.33683 0.77623 0.0
C479 C 0.03144 0.35379 0.71572 0.0
C480 C 0.02351 0.30027 0.79192 0.0
C481 C 0.04565 0.33436 0.67222 0.0
C482 C 0.03789 0.28179 0.74714 0.0
N483 N 0.04863 0.29911 0.68874 0.0
C484 C 0.04062 0.46546 0.72823 0.0
C485 C 0.96771 0.44329 0.75276 0.0
C486 C 0.0402 0.49073 0.67874 0.0
N487 N 1.00496 0.44281 0.76457 0.0
C488 C 0.96593 0.46851 0.70384 0.0
C489 C 1.00276 0.49321 0.66649 0.0
H490 H 0.06974 0.46428 0.73829 0.0
H491 H 0.93956 0.42477 0.78176 0.0
C492 C 0.91743 0.29342 0.98662 0.0
N493 N 0.93549 0.29582 0.92964 0.0
C494 C 0.88069 0.25526 1.00577 0.0
C495 C 0.88058 0.22313 0.9062 0.0
C496 C 0.91787 0.26172 0.8894 0.0
C497 C 0.86164 0.21955 0.9652 0.0
H498 H 0.9314 0.32137 0.01708 0.0
H499 H 0.93248 0.2646 0.84404 0.0
O500 O 0.07083 0.44676 0.87194 0.0
O501 O 0.0389 0.37157 0.96245 0.0
O502 O 0.97558 0.39916 0.91031 0.0
O503 O 1.00747 0.35586 0.81978 0.0
H504 H 0.15504 0.48002 0.88755 0.0
H505 H 0.05406 0.51068 0.85685 0.0
H506 H 0.20874 0.55873 0.8884 0.0
H507 H 0.10943 0.58877 0.85848 0.0
H508 H 1.00586 0.23632 0.02332 0.0
H509 H 0.01714 0.3758 0.07962 0.0
H510 H 0.03169 0.29481 0.94402 0.0
H511 H 0.99175 0.316 0.15673 0.0
H512 H 0.11009 0.55626 0.08573 0.0
H513 H 0.97738 0.46239 0.13177 0.0
H514 H 0.17961 0.4104 0.73094 0.0
H515 H 0.17965 0.35277 0.90873 0.0
H516 H 0.89137 0.34823 0.8946 0.0
H517 H 0.99235 0.47985 0.92544 0.0
H518 H 0.83768 0.37325 0.89371 0.0
H519 H 0.937 0.50258 0.92376 0.0
H520 H 0.02905 0.38177 0.70255 0.0
H521 H 0.01476 0.28637 0.83819 0.0
H522 H 0.05434 0.34733 0.62535 0.0
H523 H 0.04048 0.25366 0.75881 0.0
H524 H 0.06907 0.5082 0.65046 0.0
H525 H 0.93639 0.46947 0.6965 0.0
H526 H 0.86668 0.25406 0.05121 0.0
H527 H 0.86682 0.19629 0.87358 0.0
loop_
_geom_bond_atom_site_label_1
_geom_bond_atom_site_label_2
_geom_bond_distance
_geom_bond_site_symmetry_2
_ccdc_geom_bond_type
Li0 N17 1.990 . S
Li0 O60 1.956 . S
Li0 O61 1.970 . S
Li0 O62 1.961 1_554 S
Li1 N25 1.990 . S
Li1 O60 1.970 . S
Li1 O61 1.956 . S
Li1 O63 1.961 1_545 S
Li2 N47 1.990 . S
Li2 O60 1.961 1_565 S
Li2 O62 1.956 1_564 S
Li2 O63 1.970 . S
Li3 N53 1.990 1_545 S
Li3 O61 1.961 1_556 S
Li3 O62 1.970 . S
Li3 O63 1.956 1_546 S
C4 C6 1.348 . S
C4 C7 1.356 . S
C4 O60 1.325 . S
N5 C8 1.314 . S
N5 C9 1.279 . S
C6 C4 1.348 . S
C6 C8 1.353 . S
C6 H64 0.929 . S
C7 C4 1.356 . S
C7 C9 1.358 . S
C7 H65 0.930 . S
C8 N5 1.314 . S
C8 C6 1.353 . S
C8 H66 0.930 . S
C9 N5 1.279 . S
C9 C7 1.358 . S
C9 H67 0.930 . S
C10 C13 1.348 . S
C10 C14 1.356 . S
C10 O61 1.325 . S
C11 N12 1.279 . S
C11 C14 1.358 . S
C11 H68 0.930 . S
N12 C11 1.279 . S
N12 C15 1.314 . S
C13 C10 1.348 . S
C13 C15 1.353 . S
C13 H69 0.929 . S
C14 C10 1.356 . S
C14 C11 1.358 . S
C14 H70 0.930 . S
C15 N12 1.314 . S
C15 C13 1.353 . S
C15 H71 0.930 . S
C16 N17 1.314 1_556 S
C16 C21 1.353 . S
C16 H22 0.930 . S
N17 Li0 1.990 . S
N17 C16 1.314 1_554 S
N17 C19 1.279 . S
C18 C19 1.358 . S
C18 C20 1.356 . S
C18 H72 0.930 . S
C19 N17 1.279 . S
C19 C18 1.358 . S
C19 H23 0.930 . S
C20 C18 1.356 . S
C20 C21 1.348 1_554 S
C21 C16 1.353 . S
C21 C20 1.348 1_556 S
C21 H73 0.929 . S
H22 C16 0.930 . S
H23 C19 0.930 . S
C24 N25 1.314 1_565 S
C24 C26 1.353 . S
C24 H30 0.930 . S
N25 Li1 1.990 . S
N25 C24 1.314 1_545 S
N25 C28 1.279 . S
C26 C24 1.353 . S
C26 C29 1.348 1_565 S
C26 H74 0.929 . S
C27 C28 1.358 . S
C27 C29 1.356 . S
C27 H75 0.930 . S
C28 N25 1.279 . S
C28 C27 1.358 . S
C28 H31 0.930 . S
C29 C26 1.348 1_545 S
C29 C27 1.356 . S
H30 C24 0.930 . S
H31 C28 0.930 . S
C32 C34 1.348 . S
C32 C35 1.356 1_565 S
C32 O62 1.325 1_565 S
N33 C36 1.314 . S
N33 C37 1.283 . S
C34 C32 1.348 . S
C34 C36 1.353 . S
C34 H76 0.929 . S
C35 C32 1.356 1_545 S
C35 C37 1.350 1_545 S
C35 H77 0.930 . S
C36 N33 1.314 . S
C36 C34 1.353 . S
C36 H78 0.930 . S
C37 N33 1.283 . S
C37 C35 1.350 1_565 S
C37 H79 0.936 1_565 S
C38 C39 1.348 . S
C38 C40 1.356 . S
C38 O63 1.325 . S
C39 C38 1.348 . S
C39 C41 1.353 . S
C39 H80 0.929 . S
C40 C38 1.356 . S
C40 C42 1.358 . S
C40 H81 0.930 . S
C41 C39 1.353 . S
C41 N43 1.314 . S
C41 H82 0.930 . S
C42 C40 1.358 . S
C42 N43 1.279 . S
C42 H83 0.930 . S
N43 C41 1.314 . S
N43 C42 1.279 . S
C44 C46 1.353 . S
C44 N47 1.314 . S
C44 H50 0.930 . S
C45 N47 1.279 . S
C45 C48 1.358 . S
C45 H51 0.930 1_554 S
C46 C44 1.353 . S
C46 C49 1.348 . S
C46 H84 0.929 . S
N47 Li2 1.990 . S
N47 C44 1.314 . S
N47 C45 1.279 . S
C48 C45 1.358 . S
C48 C49 1.356 . S
C48 H85 0.930 1_554 S
C49 C46 1.348 . S
C49 C48 1.356 . S
H50 C44 0.930 . S
H51 C45 0.930 1_556 S
C52 N53 1.314 1_545 S
C52 C54 1.353 . S
C52 H58 0.930 . S
N53 Li3 1.990 1_565 S
N53 C52 1.314 1_565 S
N53 C56 1.279 . S
C54 C52 1.353 . S
C54 C57 1.348 1_545 S
C54 H86 0.929 . S
C55 C56 1.358 . S
C55 C57 1.356 . S
C55 H87 0.930 . S
C56 N53 1.279 . S
C56 C55 1.358 . S
C56 H59 0.930 . S
C57 C54 1.348 1_565 S
C57 C55 1.356 . S
H58 C52 0.930 . S
H59 C56 0.930 . S
O60 Li0 1.956 . S
O60 Li1 1.970 . S
O60 Li2 1.961 1_545 S
O60 C4 1.325 . S
O61 Li0 1.970 . S
O61 Li1 1.956 . S
O61 Li3 1.961 1_554 S
O61 C10 1.325 . S
O62 Li0 1.961 1_556 S
O62 Li2 1.956 1_546 S
O62 Li3 1.970 . S
O62 C32 1.325 1_545 S
O63 Li1 1.961 1_565 S
O63 Li2 1.970 . S
O63 Li3 1.956 1_564 S
O63 C38 1.325 . S
H64 C6 0.929 . S
H65 C7 0.930 . S
H66 C8 0.930 . S
H67 C9 0.930 . S
H68 C11 0.930 . S
H69 C13 0.929 . S
H70 C14 0.930 . S
H71 C15 0.930 . S
H72 C18 0.930 . S
H73 C21 0.929 . S
H74 C26 0.929 . S
H75 C27 0.930 . S
H76 C34 0.929 . S
H77 C35 0.930 . S
H78 C36 0.930 . S
H79 C37 0.936 1_545 S
H80 C39 0.929 . S
H81 C40 0.930 . S
H82 C41 0.930 . S
H83 C42 0.930 . S
H84 C46 0.929 . S
H85 C48 0.930 1_556 S
H86 C54 0.929 . S
H87 C55 0.930 . S
Li88 N105 1.990 . S
Li88 O148 1.956 . S
Li88 O149 1.970 . S
Li88 O150 1.961 . S
Li89 N113 1.990 . S
Li89 O148 1.970 . S
Li89 O149 1.956 . S
Li89 O151 1.961 . S
Li90 N135 1.990 . S
Li90 O148 1.961 . S
Li90 O150 1.956 . S
Li90 O151 1.970 . S
Li91 N141 1.990 . S
Li91 O149 1.961 . S
Li91 O150 1.970 . S
Li91 O151 1.956 . S
C92 C94 1.348 . S
C92 C95 1.356 . S
C92 O148 1.325 . S
N93 C96 1.314 . S
N93 C97 1.279 . S
C94 C92 1.348 . S
C94 C96 1.353 . S
C94 H152 0.929 . S
C95 C92 1.356 . S
C95 C97 1.358 . S
C95 H153 0.930 . S
C96 N93 1.314 . S
C96 C94 1.353 . S
C96 H154 0.930 . S
C97 N93 1.279 . S
C97 C95 1.358 . S
C97 H155 0.930 . S
C98 C101 1.348 . S
C98 C102 1.356 . S
C98 O149 1.325 . S
C99 N100 1.279 . S
C99 C102 1.358 . S
C99 H156 0.930 . S
N100 C99 1.279 . S
N100 C103 1.314 . S
C101 C98 1.348 . S
C101 C103 1.353 . S
C101 H157 0.929 . S
C102 C98 1.356 . S
C102 C99 1.358 . S
C102 H158 0.930 . S
C103 N100 1.314 . S
C103 C101 1.353 . S
C103 H159 0.930 . S
C104 N105 1.314 . S
C104 C109 1.353 . S
C104 H110 0.930 . S
N105 Li88 1.990 . S
N105 C104 1.314 . S
N105 C107 1.279 . S
C106 C107 1.358 . S
C106 C108 1.356 . S
C106 H160 0.930 . S
C107 N105 1.279 . S
C107 C106 1.358 . S
C107 H111 0.930 . S
C108 C106 1.356 . S
C108 C109 1.348 . S
C109 C104 1.353 . S
C109 C108 1.348 . S
C109 H161 0.929 . S
H110 C104 0.930 . S
H111 C107 0.930 . S
C112 N113 1.314 . S
C112 C114 1.353 . S
C112 H118 0.930 . S
N113 Li89 1.990 . S
N113 C112 1.314 . S
N113 C116 1.279 . S
C114 C112 1.353 . S
C114 C117 1.348 . S
C114 H162 0.929 . S
C115 C116 1.358 . S
C115 C117 1.356 . S
C115 H163 0.930 . S
C116 N113 1.279 . S
C116 C115 1.358 . S
C116 H119 0.930 . S
C117 C114 1.348 . S
C117 C115 1.356 . S
H118 C112 0.930 . S
H119 C116 0.930 . S
C120 C122 1.348 . S
C120 C123 1.356 . S
C120 O150 1.325 . S
N121 C124 1.314 . S
N121 C125 1.279 . S
C122 C120 1.348 . S
C122 C124 1.353 . S
C122 H164 0.929 . S
C123 C120 1.356 . S
C123 C125 1.358 . S
C123 H165 0.930 . S
C124 N121 1.314 . S
C124 C122 1.353 . S
C124 H166 0.930 1_554 S
C125 N121 1.279 . S
C125 C123 1.358 . S
C125 H167 0.930 . S
C126 C127 1.348 . S
C126 C128 1.356 . S
C126 O151 1.325 . S
C127 C126 1.348 . S
C127 C129 1.353 . S
C127 H168 0.929 . S
C128 C126 1.356 . S
C128 C130 1.358 . S
C128 H169 0.930 . S
C129 C127 1.353 . S
C129 N131 1.314 . S
C129 H170 0.930 . S
C130 C128 1.358 . S
C130 N131 1.279 . S
C130 H171 0.930 . S
N131 C129 1.314 . S
N131 C130 1.279 . S
C132 C134 1.353 . S
C132 N135 1.314 . S
C132 H138 0.930 . S
C133 N135 1.279 . S
C133 C136 1.358 . S
C133 H139 0.930 . S
C134 C132 1.353 . S
C134 C137 1.348 . S
C134 H172 0.929 . S
N135 Li90 1.990 . S
N135 C132 1.314 . S
N135 C133 1.279 . S
C136 C133 1.358 . S
C136 C137 1.356 . S
C136 H173 0.930 . S
C137 C134 1.348 . S
C137 C136 1.356 . S
H138 C132 0.930 . S
H139 C133 0.930 . S
C140 N141 1.314 . S
C140 C142 1.353 1_554 S
C140 H146 0.930 . S
N141 Li91 1.990 . S
N141 C140 1.314 . S
N141 C144 1.279 . S
C142 C140 1.353 1_556 S
C142 C145 1.348 . S
C142 H174 0.929 . S
C143 C144 1.358 . S
C143 C145 1.356 1_554 S
C143 H175 0.930 . S
C144 N141 1.279 . S
C144 C143 1.358 . S
C144 H147 0.930 . S
C145 C142 1.348 . S
C145 C143 1.356 1_556 S
H146 C140 0.930 . S
H147 C144 0.930 . S
O148 Li88 1.956 . S
O148 Li89 1.970 . S
O148 Li90 1.961 . S
O148 C92 1.325 . S
O149 Li88 1.970 . S
O149 Li89 1.956 . S
O149 Li91 1.961 . S
O149 C98 1.325 . S
O150 Li88 1.961 . S
O150 Li90 1.956 . S
O150 Li91 1.970 . S
O150 C120 1.325 . S
O151 Li89 1.961 . S
O151 Li90 1.970 . S
O151 Li91 1.956 . S
O151 C126 1.325 . S
H152 C94 0.929 . S
H153 C95 0.930 . S
H154 C96 0.930 . S
H155 C97 0.930 . S
H156 C99 0.930 . S
H157 C101 0.929 . S
H158 C102 0.930 . S
H159 C103 0.930 . S
H160 C106 0.930 . S
H161 C109 0.929 . S
H162 C114 0.929 . S
H163 C115 0.930 . S
H164 C122 0.929 . S
H165 C123 0.930 . S
H166 C124 0.930 1_556 S
H167 C125 0.930 . S
H168 C127 0.929 . S
H169 C128 0.930 . S
H170 C129 0.930 . S
H171 C130 0.930 . S
H172 C134 0.929 . S
H173 C136 0.930 . S
H174 C142 0.929 . S
H175 C143 0.930 . S
Li176 N193 1.990 . S
Li176 O236 1.956 1_655 S
Li176 O237 1.970 . S
Li176 O238 1.961 1_655 S
Li177 N201 1.990 1_455 S
Li177 O236 1.970 . S
Li177 O237 1.956 1_455 S
Li177 O239 1.961 . S
Li178 N223 1.990 . S
Li178 O236 1.961 . S
Li178 O238 1.956 . S
Li178 O239 1.970 . S
Li179 N229 1.990 . S
Li179 O237 1.961 1_455 S
Li179 O238 1.970 . S
Li179 O239 1.956 . S
C180 C182 1.351 . S
C180 C183 1.362 1_655 S
C180 O236 1.318 1_655 S
N181 C184 1.314 . S
N181 C185 1.275 1_655 S
C182 C180 1.351 . S
C182 C184 1.353 . S
C182 H240 0.929 . S
C183 C180 1.362 1_455 S
C183 C185 1.369 . S
C183 H241 0.930 . S
C184 N181 1.314 . S
C184 C182 1.353 . S
C184 H242 0.930 . S
C185 N181 1.275 1_455 S
C185 C183 1.369 . S
C185 H243 0.924 . S
C186 C189 1.348 . S
C186 C190 1.356 . S
C186 O237 1.325 . S
C187 N188 1.279 . S
C187 C190 1.358 . S
C187 H244 0.930 . S
N188 C187 1.279 . S
N188 C191 1.314 . S
C189 C186 1.348 . S
C189 C191 1.353 . S
C189 H245 0.929 . S
C190 C186 1.356 . S
C190 C187 1.358 . S
C190 H246 0.930 . S
C191 N188 1.314 . S
C191 C189 1.353 . S
C191 H247 0.930 . S
C192 N193 1.314 . S
C192 C197 1.353 . S
C192 H198 0.930 . S
N193 Li176 1.990 . S
N193 C192 1.314 . S
N193 C195 1.279 . S
C194 C195 1.358 . S
C194 C196 1.356 . S
C194 H248 0.930 . S
C195 N193 1.279 . S
C195 C194 1.358 . S
C195 H199 0.930 . S
C196 C194 1.356 . S
C196 C197 1.348 . S
C197 C192 1.353 . S
C197 C196 1.348 . S
C197 H249 0.929 . S
H198 C192 0.930 . S
H199 C195 0.930 . S
C200 N201 1.314 1_455 S
C200 C202 1.353 . S
C200 H206 0.930 . S
N201 Li177 1.990 1_655 S
N201 C200 1.314 1_655 S
N201 C204 1.279 . S
C202 C200 1.353 . S
C202 C205 1.348 1_455 S
C202 H250 0.929 . S
C203 C204 1.358 . S
C203 C205 1.356 . S
C203 H251 0.930 . S
C204 N201 1.279 . S
C204 C203 1.358 . S
C204 H207 0.930 . S
C205 C202 1.348 1_655 S
C205 C203 1.356 . S
H206 C200 0.930 . S
H207 C204 0.930 . S
C208 C210 1.348 . S
C208 C211 1.356 . S
C208 O238 1.325 . S
N209 C212 1.314 . S
N209 C213 1.279 . S
C210 C208 1.348 . S
C210 C212 1.353 . S
C210 H252 0.929 . S
C211 C208 1.356 . S
C211 C213 1.358 . S
C211 H253 0.930 . S
C212 N209 1.314 . S
C212 C210 1.353 . S
C212 H254 0.930 . S
C213 N209 1.279 . S
C213 C211 1.358 . S
C213 H255 0.930 . S
C214 C215 1.348 . S
C214 C216 1.356 . S
C214 O239 1.325 . S
C215 C214 1.348 . S
C215 C217 1.353 . S
C215 H256 0.929 . S
C216 C214 1.356 . S
C216 C218 1.358 . S
C216 H257 0.930 . S
C217 C215 1.353 . S
C217 N219 1.314 . S
C217 H258 0.930 . S
C218 C216 1.358 . S
C218 N219 1.279 . S
C218 H259 0.930 . S
N219 C217 1.314 . S
N219 C218 1.279 . S
C220 C222 1.353 . S
C220 N223 1.314 . S
C220 H226 0.930 . S
C221 N223 1.279 . S
C221 C224 1.358 . S
C221 H227 0.930 . S
C222 C220 1.353 . S
C222 C225 1.348 . S
C222 H260 0.929 . S
N223 Li178 1.990 . S
N223 C220 1.314 . S
N223 C221 1.279 . S
C224 C221 1.358 . S
C224 C225 1.356 . S
C224 H261 0.930 . S
C225 C222 1.348 . S
C225 C224 1.356 . S
H226 C220 0.930 . S
H227 C221 0.930 . S
C228 N229 1.314 1_655 S
C228 C230 1.358 . S
C228 H234 0.930 . S
N229 Li179 1.990 . S
N229 C228 1.314 1_455 S
N229 C232 1.279 . S
C230 C228 1.358 . S
C230 C233 1.333 1_655 S
C230 H262 0.939 . S
C231 C232 1.358 . S
C231 C233 1.356 . S
C231 H263 0.930 . S
C232 N229 1.279 . S
C232 C231 1.358 . S
C232 H235 0.930 . S
C233 C230 1.333 1_455 S
C233 C231 1.356 . S
H234 C228 0.930 . S
H235 C232 0.930 . S
O236 Li176 1.956 1_455 S
O236 Li177 1.970 . S
O236 Li178 1.961 . S
O236 C180 1.318 1_455 S
O237 Li176 1.970 . S
O237 Li177 1.956 1_655 S
O237 Li179 1.961 1_655 S
O237 C186 1.325 . S
O238 Li176 1.961 1_455 S
O238 Li178 1.956 . S
O238 Li179 1.970 . S
O238 C208 1.325 . S
O239 Li177 1.961 . S
O239 Li178 1.970 . S
O239 Li179 1.956 . S
O239 C214 1.325 . S
H240 C182 0.929 . S
H241 C183 0.930 . S
H242 C184 0.930 . S
H243 C185 0.924 . S
H244 C187 0.930 . S
H245 C189 0.929 . S
H246 C190 0.930 . S
H247 C191 0.930 . S
H248 C194 0.930 . S
H249 C197 0.929 . S
H250 C202 0.929 . S
H251 C203 0.930 . S
H252 C210 0.929 . S
H253 C211 0.930 . S
H254 C212 0.930 . S
H255 C213 0.930 . S
H256 C215 0.929 . S
H257 C216 0.930 . S
H258 C217 0.930 . S
H259 C218 0.930 . S
H260 C222 0.929 . S
H261 C224 0.930 . S
H262 C230 0.939 . S
H263 C231 0.930 . S
Li264 N281 1.990 1_545 S
Li264 O324 1.956 1_545 S
Li264 O325 1.970 . S
Li264 O326 1.961 . S
Li265 N289 1.990 . S
Li265 O324 1.970 . S
Li265 O325 1.956 1_565 S
Li265 O327 1.961 1_565 S
Li266 N311 1.990 . S
Li266 O324 1.961 1_545 S
Li266 O326 1.956 . S
Li266 O327 1.970 . S
Li267 N317 1.990 . S
Li267 O325 1.961 . S
Li267 O326 1.970 . S
Li267 O327 1.956 . S
C268 C270 1.348 . S
C268 C271 1.356 . S
C268 O324 1.325 . S
N269 C272 1.314 . S
N269 C273 1.279 . S
C270 C268 1.348 . S
C270 C272 1.353 . S
C270 H328 0.929 . S
C271 C268 1.356 . S
C271 C273 1.358 . S
C271 H329 0.930 . S
C272 N269 1.314 . S
C272 C270 1.353 . S
C272 H330 0.930 . S
C273 N269 1.279 . S
C273 C271 1.358 . S
C273 H331 0.930 . S
C274 C277 1.348 . S
C274 C278 1.356 1_565 S
C274 O325 1.325 1_565 S
C275 N276 1.289 . S
C275 C278 1.362 1_565 S
C275 H332 0.916 1_565 S
N276 C275 1.289 . S
N276 C279 1.314 . S
C277 C274 1.348 . S
C277 C279 1.353 . S
C277 H333 0.929 . S
C278 C274 1.356 1_545 S
C278 C275 1.362 1_545 S
C278 H334 0.930 . S
C279 N276 1.314 . S
C279 C277 1.353 . S
C279 H335 0.930 . S
C280 N281 1.314 1_545 S
C280 C285 1.353 . S
C280 H286 0.930 . S
N281 Li264 1.990 1_565 S
N281 C280 1.314 1_565 S
N281 C283 1.279 . S
C282 C283 1.358 . S
C282 C284 1.356 . S
C282 H336 0.930 . S
C283 N281 1.279 . S
C283 C282 1.358 . S
C283 H287 0.930 . S
C284 C282 1.356 . S
C284 C285 1.348 1_565 S
C285 C280 1.353 . S
C285 C284 1.348 1_545 S
C285 H337 0.929 . S
H286 C280 0.930 . S
H287 C283 0.930 . S
C288 N289 1.314 . S
C288 C290 1.353 . S
C288 H294 0.930 . S
N289 Li265 1.990 . S
N289 C288 1.314 . S
N289 C292 1.279 . S
C290 C288 1.353 . S
C290 C293 1.348 . S
C290 H338 0.929 . S
C291 C292 1.358 . S
C291 C293 1.356 . S
C291 H339 0.930 . S
C292 N289 1.279 . S
C292 C291 1.358 . S
C292 H295 0.930 . S
C293 C290 1.348 . S
C293 C291 1.356 . S
H294 C288 0.930 . S
H295 C292 0.930 . S
C296 C298 1.348 . S
C296 C299 1.356 . S
C296 O326 1.325 . S
N297 C300 1.314 . S
N297 C301 1.279 . S
C298 C296 1.348 . S
C298 C300 1.353 . S
C298 H340 0.929 . S
C299 C296 1.356 . S
C299 C301 1.358 . S
C299 H341 0.930 . S
C300 N297 1.314 . S
C300 C298 1.353 . S
C300 H342 0.930 . S
C301 N297 1.279 . S
C301 C299 1.358 . S
C301 H343 0.930 . S
C302 C303 1.348 . S
C302 C304 1.356 . S
C302 O327 1.325 . S
C303 C302 1.348 . S
C303 C305 1.353 . S
C303 H344 0.929 . S
C304 C302 1.356 . S
C304 C306 1.358 . S
C304 H345 0.930 . S
C305 C303 1.353 . S
C305 N307 1.314 . S
C305 H346 0.930 . S
C306 C304 1.358 . S
C306 N307 1.279 . S
C306 H347 0.930 . S
N307 C305 1.314 . S
N307 C306 1.279 . S
C308 C310 1.353 . S
C308 N311 1.314 1_565 S
C308 H314 0.930 . S
C309 N311 1.279 . S
C309 C312 1.358 . S
C309 H315 0.930 . S
C310 C308 1.353 . S
C310 C313 1.348 1_565 S
C310 H348 0.929 . S
N311 Li266 1.990 . S
N311 C308 1.314 1_545 S
N311 C309 1.279 . S
C312 C309 1.358 . S
C312 C313 1.356 . S
C312 H349 0.930 . S
C313 C310 1.348 1_545 S
C313 C312 1.356 . S
H314 C308 0.930 . S
H315 C309 0.930 . S
C316 N317 1.314 . S
C316 C318 1.353 . S
C316 H322 0.930 . S
N317 Li267 1.990 . S
N317 C316 1.314 . S
N317 C320 1.279 . S
C318 C316 1.353 . S
C318 C321 1.348 . S
C318 H350 0.929 . S
C319 C320 1.358 . S
C319 C321 1.356 . S
C319 H351 0.930 . S
C320 N317 1.279 . S
C320 C319 1.358 . S
C320 H323 0.930 . S
C321 C318 1.348 . S
C321 C319 1.356 . S
H322 C316 0.930 . S
H323 C320 0.930 . S
O324 Li264 1.956 1_565 S
O324 Li265 1.970 . S
O324 Li266 1.961 1_565 S
O324 C268 1.325 . S
O325 Li264 1.970 . S
O325 Li265 1.956 1_545 S
O325 Li267 1.961 . S
O325 C274 1.325 1_545 S
O326 Li264 1.961 . S
O326 Li266 1.956 . S
O326 Li267 1.970 . S
O326 C296 1.325 . S
O327 Li265 1.961 1_545 S
O327 Li266 1.970 . S
O327 Li267 1.956 . S
O327 C302 1.325 . S
H328 C270 0.929 . S
H329 C271 0.930 . S
H330 C272 0.930 . S
H331 C273 0.930 . S
H332 C275 0.916 1_545 S
H333 C277 0.929 . S
H334 C278 0.930 . S
H335 C279 0.930 . S
H336 C282 0.930 . S
H337 C285 0.929 . S
H338 C290 0.929 . S
H339 C291 0.930 . S
H340 C298 0.929 . S
H341 C299 0.930 . S
H342 C300 0.930 . S
H343 C301 0.930 . S
H344 C303 0.929 . S
H345 C304 0.930 . S
H346 C305 0.930 . S
H347 C306 0.930 . S
H348 C310 0.929 . S
H349 C312 0.930 . S
H350 C318 0.929 . S
H351 C319 0.930 . S
Li352 N369 1.990 . S
Li352 O412 1.956 . S
Li352 O413 1.970 . S
Li352 O414 1.961 . S
Li353 N377 1.990 . S
Li353 O412 1.970 . S
Li353 O413 1.956 . S
Li353 O415 1.961 . S
Li354 N399 1.990 . S
Li354 O412 1.961 . S
Li354 O414 1.956 . S
Li354 O415 1.970 . S
Li355 N405 1.990 . S
Li355 O413 1.961 . S
Li355 O414 1.970 . S
Li355 O415 1.956 . S
C356 C358 1.348 . S
C356 C359 1.356 . S
C356 O412 1.325 . S
N357 C360 1.314 . S
N357 C361 1.279 . S
C358 C356 1.348 . S
C358 C360 1.353 . S
C358 H416 0.929 . S
C359 C356 1.356 . S
C359 C361 1.358 . S
C359 H417 0.930 . S
C360 N357 1.314 . S
C360 C358 1.353 . S
C360 H418 0.930 . S
C361 N357 1.279 . S
C361 C359 1.358 . S
C361 H419 0.930 . S
C362 C365 1.348 . S
C362 C366 1.356 . S
C362 O413 1.325 . S
C363 N364 1.279 . S
C363 C366 1.358 . S
C363 H420 0.930 . S
N364 C363 1.279 . S
N364 C367 1.314 . S
C365 C362 1.348 . S
C365 C367 1.353 . S
C365 H421 0.929 . S
C366 C362 1.356 . S
C366 C363 1.358 . S
C366 H422 0.930 . S
C367 N364 1.314 . S
C367 C365 1.353 . S
C367 H423 0.930 . S
C368 N369 1.314 . S
C368 C373 1.353 . S
C368 H374 0.930 . S
N369 Li352 1.990 . S
N369 C368 1.314 . S
N369 C371 1.279 . S
C370 C371 1.358 . S
C370 C372 1.356 . S
C370 H424 0.930 . S
C371 N369 1.279 . S
C371 C370 1.358 . S
C371 H375 0.930 . S
C372 C370 1.356 . S
C372 C373 1.348 . S
C373 C368 1.353 . S
C373 C372 1.348 . S
C373 H425 0.929 . S
H374 C368 0.930 . S
H375 C371 0.930 . S
C376 N377 1.314 . S
C376 C378 1.353 . S
C376 H382 0.930 . S
N377 Li353 1.990 . S
N377 C376 1.314 . S
N377 C380 1.279 . S
C378 C376 1.353 . S
C378 C381 1.348 . S
C378 H426 0.929 . S
C379 C380 1.358 . S
C379 C381 1.356 . S
C379 H427 0.930 . S
C380 N377 1.279 . S
C380 C379 1.358 . S
C380 H383 0.930 . S
C381 C378 1.348 . S
C381 C379 1.356 . S
H382 C376 0.930 . S
H383 C380 0.930 . S
C384 C386 1.348 . S
C384 C387 1.356 . S
C384 O414 1.325 . S
N385 C388 1.314 . S
N385 C389 1.279 . S
C386 C384 1.348 . S
C386 C388 1.353 . S
C386 H428 0.929 . S
C387 C384 1.356 . S
C387 C389 1.358 . S
C387 H429 0.930 . S
C388 N385 1.314 . S
C388 C386 1.353 . S
C388 H430 0.930 . S
C389 N385 1.279 . S
C389 C387 1.358 . S
C389 H431 0.930 . S
C390 C391 1.348 . S
C390 C392 1.356 . S
C390 O415 1.325 . S
C391 C390 1.348 . S
C391 C393 1.353 . S
C391 H432 0.929 . S
C392 C390 1.356 . S
C392 C394 1.358 . S
C392 H433 0.930 . S
C393 C391 1.353 . S
C393 N395 1.314 . S
C393 H434 0.930 . S
C394 C392 1.358 . S
C394 N395 1.279 . S
C394 H435 0.930 . S
N395 C393 1.314 . S
N395 C394 1.279 . S
C396 C398 1.353 . S
C396 N399 1.314 . S
C396 H402 0.930 . S
C397 N399 1.279 . S
C397 C400 1.358 . S
C397 H403 0.930 . S
C398 C396 1.353 . S
C398 C401 1.348 . S
C398 H436 0.929 . S
N399 Li354 1.990 . S
N399 C396 1.314 . S
N399 C397 1.279 . S
C400 C397 1.358 . S
C400 C401 1.356 . S
C400 H437 0.930 . S
C401 C398 1.348 . S
C401 C400 1.356 . S
H402 C396 0.930 . S
H403 C397 0.930 . S
C404 N405 1.314 . S
C404 C406 1.353 . S
C404 H410 0.930 . S
N405 Li355 1.990 . S
N405 C404 1.314 . S
N405 C408 1.279 . S
C406 C404 1.353 . S
C406 C409 1.348 . S
C406 H438 0.929 . S
C407 C408 1.358 . S
C407 C409 1.356 . S
C407 H439 0.930 . S
C408 N405 1.279 . S
C408 C407 1.358 . S
C408 H411 0.930 . S
C409 C406 1.348 . S
C409 C407 1.356 . S
H410 C404 0.930 . S
H411 C408 0.930 . S
O412 Li352 1.956 . S
O412 Li353 1.970 . S
O412 Li354 1.961 . S
O412 C356 1.325 . S
O413 Li352 1.970 . S
O413 Li353 1.956 . S
O413 Li355 1.961 . S
O413 C362 1.325 . S
O414 Li352 1.961 . S
O414 Li354 1.956 . S
O414 Li355 1.970 . S
O414 C384 1.325 . S
O415 Li353 1.961 . S
O415 Li354 1.970 . S
O415 Li355 1.956 . S
O415 C390 1.325 . S
H416 C358 0.929 . S
H417 C359 0.930 . S
H418 C360 0.930 . S
H419 C361 0.930 . S
H420 C363 0.930 . S
H421 C365 0.929 . S
H422 C366 0.930 . S
H423 C367 0.930 . S
H424 C370 0.930 . S
H425 C373 0.929 . S
H426 C378 0.929 . S
H427 C379 0.930 . S
H428 C386 0.929 . S
H429 C387 0.930 . S
H430 C388 0.930 . S
H431 C389 0.930 . S
H432 C391 0.929 . S
H433 C392 0.930 . S
H434 C393 0.930 . S
H435 C394 0.930 . S
H436 C398 0.929 . S
H437 C400 0.930 . S
H438 C406 0.929 . S
H439 C407 0.930 . S
Li440 N457 1.990 1_556 S
Li440 O500 1.956 . S
Li440 O501 1.970 . S
Li440 O502 1.961 1_455 S
Li441 N465 1.990 . S
Li441 O500 1.970 . S
Li441 O501 1.956 . S
Li441 O503 1.961 . S
Li442 N487 1.990 1_455 S
Li442 O500 1.961 . S
Li442 O502 1.956 1_455 S
Li442 O503 1.970 . S
Li443 N493 1.990 . S
Li443 O501 1.961 1_655 S
Li443 O502 1.970 . S
Li443 O503 1.956 1_655 S
C444 C446 1.348 . S
C444 C447 1.356 . S
C444 O500 1.325 . S
N445 C448 1.314 . S
N445 C449 1.279 . S
C446 C444 1.348 . S
C446 C448 1.353 . S
C446 H504 0.929 . S
C447 C444 1.356 . S
C447 C449 1.358 . S
C447 H505 0.930 . S
C448 N445 1.314 . S
C448 C446 1.353 . S
C448 H506 0.930 . S
C449 N445 1.279 . S
C449 C447 1.358 . S
C449 H507 0.930 . S
C450 C453 1.351 . S
C450 C454 1.356 1_554 S
C450 O501 1.322 1_554 S
C451 N452 1.279 . S
C451 C454 1.358 1_554 S
C451 H508 0.930 . S
N452 C451 1.279 . S
N452 C455 1.314 . S
C453 C450 1.351 . S
C453 C455 1.353 . S
C453 H509 0.929 . S
C454 C450 1.356 1_556 S
C454 C451 1.358 1_556 S
C454 H510 0.930 . S
C455 N452 1.314 . S
C455 C453 1.353 . S
C455 H511 0.930 . S
C456 N457 1.314 1_655 S
C456 C461 1.350 . S
C456 H462 0.930 . S
N457 Li440 1.990 1_554 S
N457 C456 1.314 1_455 S
N457 C459 1.279 . S
C458 C459 1.358 . S
C458 C460 1.356 . S
C458 H512 0.930 . S
C459 N457 1.279 . S
C459 C458 1.358 . S
C459 H463 0.930 . S
C460 C458 1.356 . S
C460 C461 1.340 1_455 S
C461 C456 1.350 . S
C461 C460 1.340 1_655 S
C461 H513 0.941 . S
H462 C456 0.930 . S
H463 C459 0.930 . S
C464 N465 1.314 . S
C464 C466 1.353 . S
C464 H470 0.930 . S
N465 Li441 1.990 . S
N465 C464 1.314 . S
N465 C468 1.279 . S
C466 C464 1.353 . S
C466 C469 1.348 . S
C466 H514 0.929 . S
C467 C468 1.358 . S
C467 C469 1.356 . S
C467 H515 0.930 . S
C468 N465 1.279 . S
C468 C467 1.358 . S
C468 H471 0.930 . S
C469 C466 1.348 . S
C469 C467 1.356 . S
H470 C464 0.930 . S
H471 C468 0.930 . S
C472 C474 1.348 . S
C472 C475 1.356 . S
C472 O502 1.325 . S
N473 C476 1.314 . S
N473 C477 1.279 . S
C474 C472 1.348 . S
C474 C476 1.353 . S
C474 H516 0.929 . S
C475 C472 1.356 . S
C475 C477 1.358 . S
C475 H517 0.930 . S
C476 N473 1.314 . S
C476 C474 1.353 . S
C476 H518 0.930 . S
C477 N473 1.279 . S
C477 C475 1.358 . S
C477 H519 0.930 . S
C478 C479 1.356 . S
C478 C480 1.346 1_655 S
C478 O503 1.328 1_655 S
C479 C478 1.356 . S
C479 C481 1.353 . S
C479 H520 0.929 . S
C480 C478 1.346 1_455 S
C480 C482 1.355 . S
C480 H521 0.930 . S
C481 C479 1.353 . S
C481 N483 1.314 . S
C481 H522 0.930 . S
C482 C480 1.355 . S
C482 N483 1.268 1_455 S
C482 H523 0.948 . S
N483 C481 1.314 . S
N483 C482 1.268 1_655 S
C484 C486 1.353 . S
C484 N487 1.314 1_455 S
C484 H490 0.930 . S
C485 N487 1.279 . S
C485 C488 1.358 . S
C485 H491 0.930 . S
C486 C484 1.353 . S
C486 C489 1.348 1_455 S
C486 H524 0.929 . S
N487 Li442 1.990 1_655 S
N487 C484 1.314 1_655 S
N487 C485 1.279 . S
C488 C485 1.358 . S
C488 C489 1.356 . S
C488 H525 0.930 . S
C489 C486 1.348 1_655 S
C489 C488 1.356 . S
H490 C484 0.930 . S
H491 C485 0.930 . S
C492 N493 1.314 . S
C492 C494 1.353 . S
C492 H498 0.930 . S
N493 Li443 1.990 . S
N493 C492 1.314 . S
N493 C496 1.279 . S
C494 C492 1.353 . S
C494 C497 1.348 . S
C494 H526 0.929 1_556 S
C495 C496 1.358 . S
C495 C497 1.356 . S
C495 H527 0.930 . S
C496 N493 1.279 . S
C496 C495 1.358 . S
C496 H499 0.930 . S
C497 C494 1.348 . S
C497 C495 1.356 . S
H498 C492 0.930 . S
H499 C496 0.930 . S
O500 Li440 1.956 . S
O500 Li441 1.970 . S
O500 Li442 1.961 . S
O500 C444 1.325 . S
O501 Li440 1.970 . S
O501 Li441 1.956 . S
O501 Li443 1.961 1_455 S
O501 C450 1.322 1_556 S
O502 Li440 1.961 1_655 S
O502 Li442 1.956 1_655 S
O502 Li443 1.970 . S
O502 C472 1.325 . S
O503 Li441 1.961 . S
O503 Li442 1.970 . S
O503 Li443 1.956 1_455 S
O503 C478 1.328 1_455 S
H504 C446 0.929 . S
H505 C447 0.930 . S
H506 C448 0.930 . S
H507 C449 0.930 . S
H508 C451 0.930 . S
H509 C453 0.929 . S
H510 C454 0.930 . S
H511 C455 0.930 . S
H512 C458 0.930 . S
H513 C461 0.941 . S
H514 C466 0.929 . S
H515 C467 0.930 . S
H516 C474 0.929 . S
H517 C475 0.930 . S
H518 C476 0.930 . S
H519 C477 0.930 . S
H520 C479 0.929 . S
H521 C480 0.930 . S
H522 C481 0.930 . S
H523 C482 0.948 . S
H524 C486 0.929 . S
H525 C488 0.930 . S
H526 C494 0.929 1_554 S
H527 C495 0.930 . S
C29 C313 1.516 . S
C117 C401 1.516 . S
C489 C205 1.517 . S
C57 C284 1.516 . S
C145 C372 1.516 . S
C460 C233 1.516 . S
C108 C49 2.244 . S
C196 C137 2.244 . S
C225 C293 2.244 . S
C381 C321 2.243 . S
C469 C409 2.243 . S
C497 C20 2.244 1_556 S
