# Generated by pormake.
# Topology ull, (4)-cn, num edge types: 1
# Building blocks:
#     Node 0, Type 0, BuildingBlock: AZAVOO_clean_sbu_0, # of connection points: 4
#     Node 1, Type 0, BuildingBlock: AZAVOO_clean_sbu_0, # of connection points: 4
#     Node 2, Type 0, BuildingBlock: AZAVOO_clean_sbu_0, # of connection points: 4
#     Node 3, Type 0, BuildingBlock: AZAVOO_clean_sbu_0, # of connection points: 4
#     Node 4, Type 0, BuildingBlock: AZAVOO_clean_sbu_0, # of connection points: 4
#     Node 5, Type 0, BuildingBlock: AZAVOO_clean_sbu_0, # of connection points: 4
#     Node 6, Type 0, BuildingBlock: AZAVOO_clean_sbu_0, # of connection points: 4
#     Node 7, Type 0, BuildingBlock: AZAVOO_clean_sbu_0, # of connection points: 4
#     Node 8, Type 0, BuildingBlock: AZAVOO_clean_sbu_0, # of connection points: 4
#     Node 9, Type 0, BuildingBlock: AZAVOO_clean_sbu_0, # of connection points: 4
#     Node 10, Type 0, BuildingBlock: AZAVOO_clean_sbu_0, # of connection points: 4
#     Node 11, Type 0, BuildingBlock: AZAVOO_clean_sbu_0, # of connection points: 4
#     Node 12, Type 0, BuildingBlock: AZAVOO_clean_sbu_0, # of connection points: 4
#     Node 13, Type 0, BuildingBlock: AZAVOO_clean_sbu_0, # of connection points: 4
#     Node 14, Type 0, BuildingBlock: AZAVOO_clean_sbu_0, # of connection points: 4
#     Node 15, Type 0, BuildingBlock: AZAVOO_clean_sbu_0, # of connection points: 4
#     Node 16, Type 0, BuildingBlock: AZAVOO_clean_sbu_0, # of connection points: 4
#     Node 17, Type 0, BuildingBlock: AZAVOO_clean_sbu_0, # of connection points: 4
#     Node 18, Type 0, BuildingBlock: AZAVOO_clean_sbu_0, # of connection points: 4
#     Node 19, Type 0, BuildingBlock: AZAVOO_clean_sbu_0, # of connection points: 4
#     Node 20, Type 0, BuildingBlock: AZAVOO_clean_sbu_0, # of connection points: 4
#     Node 21, Type 0, BuildingBlock: AZAVOO_clean_sbu_0, # of connection points: 4
#     Node 22, Type 0, BuildingBlock: AZAVOO_clean_sbu_0, # of connection points: 4
#     Node 23, Type 0, BuildingBlock: AZAVOO_clean_sbu_0, # of connection points: 4
#     Node 24, Type 0, BuildingBlock: AZAVOO_clean_sbu_0, # of connection points: 4
#     Node 25, Type 0, BuildingBlock: AZAVOO_clean_sbu_0, # of connection points: 4
#     Node 26, Type 0, BuildingBlock: AZAVOO_clean_sbu_0, # of connection points: 4
#     Node 27, Type 0, BuildingBlock: AZAVOO_clean_sbu_0, # of connection points: 4
#     Node 28, Type 0, BuildingBlock: AZAVOO_clean_sbu_0, # of connection points: 4
#     Node 29, Type 0, BuildingBlock: AZAVOO_clean_sbu_0, # of connection points: 4
#     Node 30, Type 0, BuildingBlock: AZAVOO_clean_sbu_0, # of connection points: 4
#     Node 31, Type 0, BuildingBlock: AZAVOO_clean_sbu_0, # of connection points: 4
#     Node 32, Type 0, BuildingBlock: AZAVOO_clean_sbu_0, # of connection points: 4
#     Node 33, Type 0, BuildingBlock: AZAVOO_clean_sbu_0, # of connection points: 4
#     Node 34, Type 0, BuildingBlock: AZAVOO_clean_sbu_0, # of connection points: 4
#     Node 35, Type 0, BuildingBlock: AZAVOO_clean_sbu_0, # of connection points: 4
#     Node 36, Type 0, BuildingBlock: AZAVOO_clean_sbu_0, # of connection points: 4
#     Node 37, Type 0, BuildingBlock: AZAVOO_clean_sbu_0, # of connection points: 4
#     Node 38, Type 0, BuildingBlock: AZAVOO_clean_sbu_0, # of connection points: 4
#     Node 39, Type 0, BuildingBlock: AZAVOO_clean_sbu_0, # of connection points: 4
#     Node 40, Type 0, BuildingBlock: AZAVOO_clean_sbu_0, # of connection points: 4
#     Node 41, Type 0, BuildingBlock: AZAVOO_clean_sbu_0, # of connection points: 4
#     Node 42, Type 0, BuildingBlock: AZAVOO_clean_sbu_0, # of connection points: 4
#     Node 43, Type 0, BuildingBlock: AZAVOO_clean_sbu_0, # of connection points: 4
#     Node 44, Type 0, BuildingBlock: AZAVOO_clean_sbu_0, # of connection points: 4
#     Node 45, Type 0, BuildingBlock: AZAVOO_clean_sbu_0, # of connection points: 4
#     Node 46, Type 0, BuildingBlock: AZAVOO_clean_sbu_0, # of connection points: 4
#     Node 47, Type 0, BuildingBlock: AZAVOO_clean_sbu_0, # of connection points: 4
#     Edge 48, Type (0, 0), BuildingBlock: AJUNOK_clean_linker_0, # of connection points: 2
#     Edge 49, Type (0, 0), BuildingBlock: AJUNOK_clean_linker_0, # of connection points: 2
#     Edge 50, Type (0, 0), BuildingBlock: AJUNOK_clean_linker_0, # of connection points: 2
#     Edge 51, Type (0, 0), BuildingBlock: AJUNOK_clean_linker_0, # of connection points: 2
#     Edge 52, Type (0, 0), BuildingBlock: AJUNOK_clean_linker_0, # of connection points: 2
#     Edge 53, Type (0, 0), BuildingBlock: AJUNOK_clean_linker_0, # of connection points: 2
#     Edge 54, Type (0, 0), BuildingBlock: AJUNOK_clean_linker_0, # of connection points: 2
#     Edge 55, Type (0, 0), BuildingBlock: AJUNOK_clean_linker_0, # of connection points: 2
#     Edge 56, Type (0, 0), BuildingBlock: AJUNOK_clean_linker_0, # of connection points: 2
#     Edge 57, Type (0, 0), BuildingBlock: AJUNOK_clean_linker_0, # of connection points: 2
#     Edge 58, Type (0, 0), BuildingBlock: AJUNOK_clean_linker_0, # of connection points: 2
#     Edge 59, Type (0, 0), BuildingBlock: AJUNOK_clean_linker_0, # of connection points: 2
#     Edge 60, Type (0, 0), BuildingBlock: AJUNOK_clean_linker_0, # of connection points: 2
#     Edge 61, Type (0, 0), BuildingBlock: AJUNOK_clean_linker_0, # of connection points: 2
#     Edge 62, Type (0, 0), BuildingBlock: AJUNOK_clean_linker_0, # of connection points: 2
#     Edge 63, Type (0, 0), BuildingBlock: AJUNOK_clean_linker_0, # of connection points: 2
#     Edge 64, Type (0, 0), BuildingBlock: AJUNOK_clean_linker_0, # of connection points: 2
#     Edge 65, Type (0, 0), BuildingBlock: AJUNOK_clean_linker_0, # of connection points: 2
#     Edge 66, Type (0, 0), BuildingBlock: AJUNOK_clean_linker_0, # of connection points: 2
#     Edge 67, Type (0, 0), BuildingBlock: AJUNOK_clean_linker_0, # of connection points: 2
#     Edge 68, Type (0, 0), BuildingBlock: AJUNOK_clean_linker_0, # of connection points: 2
#     Edge 69, Type (0, 0), BuildingBlock: AJUNOK_clean_linker_0, # of connection points: 2
#     Edge 70, Type (0, 0), BuildingBlock: AJUNOK_clean_linker_0, # of connection points: 2
#     Edge 71, Type (0, 0), BuildingBlock: AJUNOK_clean_linker_0, # of connection points: 2
#     Edge 72, Type (0, 0), BuildingBlock: AJUNOK_clean_linker_0, # of connection points: 2
#     Edge 73, Type (0, 0), BuildingBlock: AJUNOK_clean_linker_0, # of connection points: 2
#     Edge 74, Type (0, 0), BuildingBlock: AJUNOK_clean_linker_0, # of connection points: 2
#     Edge 75, Type (0, 0), BuildingBlock: AJUNOK_clean_linker_0, # of connection points: 2
#     Edge 76, Type (0, 0), BuildingBlock: AJUNOK_clean_linker_0, # of connection points: 2
#     Edge 77, Type (0, 0), BuildingBlock: AJUNOK_clean_linker_0, # of connection points: 2
#     Edge 78, Type (0, 0), BuildingBlock: AJUNOK_clean_linker_0, # of connection points: 2
#     Edge 79, Type (0, 0), BuildingBlock: AJUNOK_clean_linker_0, # of connection points: 2
#     Edge 80, Type (0, 0), BuildingBlock: AJUNOK_clean_linker_0, # of connection points: 2
#     Edge 81, Type (0, 0), BuildingBlock: AJUNOK_clean_linker_0, # of connection points: 2
#     Edge 82, Type (0, 0), BuildingBlock: AJUNOK_clean_linker_0, # of connection points: 2
#     Edge 83, Type (0, 0), BuildingBlock: AJUNOK_clean_linker_0, # of connection points: 2
#     Edge 84, Type (0, 0), BuildingBlock: AJUNOK_clean_linker_0, # of connection points: 2
#     Edge 85, Type (0, 0), BuildingBlock: AJUNOK_clean_linker_0, # of connection points: 2
#     Edge 86, Type (0, 0), BuildingBlock: AJUNOK_clean_linker_0, # of connection points: 2
#     Edge 87, Type (0, 0), BuildingBlock: AJUNOK_clean_linker_0, # of connection points: 2
#     Edge 88, Type (0, 0), BuildingBlock: AJUNOK_clean_linker_0, # of connection points: 2
#     Edge 89, Type (0, 0), BuildingBlock: AJUNOK_clean_linker_0, # of connection points: 2
#     Edge 90, Type (0, 0), BuildingBlock: AJUNOK_clean_linker_0, # of connection points: 2
#     Edge 91, Type (0, 0), BuildingBlock: AJUNOK_clean_linker_0, # of connection points: 2
#     Edge 92, Type (0, 0), BuildingBlock: AJUNOK_clean_linker_0, # of connection points: 2
#     Edge 93, Type (0, 0), BuildingBlock: AJUNOK_clean_linker_0, # of connection points: 2
#     Edge 94, Type (0, 0), BuildingBlock: AJUNOK_clean_linker_0, # of connection points: 2
#     Edge 95, Type (0, 0), BuildingBlock: AJUNOK_clean_linker_0, # of connection points: 2
#     Edge 96, Type (0, 0), BuildingBlock: AJUNOK_clean_linker_0, # of connection points: 2
#     Edge 97, Type (0, 0), BuildingBlock: AJUNOK_clean_linker_0, # of connection points: 2
#     Edge 98, Type (0, 0), BuildingBlock: AJUNOK_clean_linker_0, # of connection points: 2
#     Edge 99, Type (0, 0), BuildingBlock: AJUNOK_clean_linker_0, # of connection points: 2
#     Edge 100, Type (0, 0), BuildingBlock: AJUNOK_clean_linker_0, # of connection points: 2
#     Edge 101, Type (0, 0), BuildingBlock: AJUNOK_clean_linker_0, # of connection points: 2
#     Edge 102, Type (0, 0), BuildingBlock: AJUNOK_clean_linker_0, # of connection points: 2
#     Edge 103, Type (0, 0), BuildingBlock: AJUNOK_clean_linker_0, # of connection points: 2
#     Edge 104, Type (0, 0), BuildingBlock: AJUNOK_clean_linker_0, # of connection points: 2
#     Edge 105, Type (0, 0), BuildingBlock: AJUNOK_clean_linker_0, # of connection points: 2
#     Edge 106, Type (0, 0), BuildingBlock: AJUNOK_clean_linker_0, # of connection points: 2
#     Edge 107, Type (0, 0), BuildingBlock: AJUNOK_clean_linker_0, # of connection points: 2
#     Edge 108, Type (0, 0), BuildingBlock: AJUNOK_clean_linker_0, # of connection points: 2
#     Edge 109, Type (0, 0), BuildingBlock: AJUNOK_clean_linker_0, # of connection points: 2
#     Edge 110, Type (0, 0), BuildingBlock: AJUNOK_clean_linker_0, # of connection points: 2
#     Edge 111, Type (0, 0), BuildingBlock: AJUNOK_clean_linker_0, # of connection points: 2
#     Edge 112, Type (0, 0), BuildingBlock: AJUNOK_clean_linker_0, # of connection points: 2
#     Edge 113, Type (0, 0), BuildingBlock: AJUNOK_clean_linker_0, # of connection points: 2
#     Edge 114, Type (0, 0), BuildingBlock: AJUNOK_clean_linker_0, # of connection points: 2
#     Edge 115, Type (0, 0), BuildingBlock: AJUNOK_clean_linker_0, # of connection points: 2
#     Edge 116, Type (0, 0), BuildingBlock: AJUNOK_clean_linker_0, # of connection points: 2
#     Edge 117, Type (0, 0), BuildingBlock: AJUNOK_clean_linker_0, # of connection points: 2
#     Edge 118, Type (0, 0), BuildingBlock: AJUNOK_clean_linker_0, # of connection points: 2
#     Edge 119, Type (0, 0), BuildingBlock: AJUNOK_clean_linker_0, # of connection points: 2
#     Edge 120, Type (0, 0), BuildingBlock: AJUNOK_clean_linker_0, # of connection points: 2
#     Edge 121, Type (0, 0), BuildingBlock: AJUNOK_clean_linker_0, # of connection points: 2
#     Edge 122, Type (0, 0), BuildingBlock: AJUNOK_clean_linker_0, # of connection points: 2
#     Edge 123, Type (0, 0), BuildingBlock: AJUNOK_clean_linker_0, # of connection points: 2
#     Edge 124, Type (0, 0), BuildingBlock: AJUNOK_clean_linker_0, # of connection points: 2
#     Edge 125, Type (0, 0), BuildingBlock: AJUNOK_clean_linker_0, # of connection points: 2
#     Edge 126, Type (0, 0), BuildingBlock: AJUNOK_clean_linker_0, # of connection points: 2
#     Edge 127, Type (0, 0), BuildingBlock: AJUNOK_clean_linker_0, # of connection points: 2
#     Edge 128, Type (0, 0), BuildingBlock: AJUNOK_clean_linker_0, # of connection points: 2
#     Edge 129, Type (0, 0), BuildingBlock: AJUNOK_clean_linker_0, # of connection points: 2
#     Edge 130, Type (0, 0), BuildingBlock: AJUNOK_clean_linker_0, # of connection points: 2
#     Edge 131, Type (0, 0), BuildingBlock: AJUNOK_clean_linker_0, # of connection points: 2
#     Edge 132, Type (0, 0), BuildingBlock: AJUNOK_clean_linker_0, # of connection points: 2
#     Edge 133, Type (0, 0), BuildingBlock: AJUNOK_clean_linker_0, # of connection points: 2
#     Edge 134, Type (0, 0), BuildingBlock: AJUNOK_clean_linker_0, # of connection points: 2
#     Edge 135, Type (0, 0), BuildingBlock: AJUNOK_clean_linker_0, # of connection points: 2
#     Edge 136, Type (0, 0), BuildingBlock: AJUNOK_clean_linker_0, # of connection points: 2
#     Edge 137, Type (0, 0), BuildingBlock: AJUNOK_clean_linker_0, # of connection points: 2
#     Edge 138, Type (0, 0), BuildingBlock: AJUNOK_clean_linker_0, # of connection points: 2
#     Edge 139, Type (0, 0), BuildingBlock: AJUNOK_clean_linker_0, # of connection points: 2
#     Edge 140, Type (0, 0), BuildingBlock: AJUNOK_clean_linker_0, # of connection points: 2
#     Edge 141, Type (0, 0), BuildingBlock: AJUNOK_clean_linker_0, # of connection points: 2
#     Edge 142, Type (0, 0), BuildingBlock: AJUNOK_clean_linker_0, # of connection points: 2
#     Edge 143, Type (0, 0), BuildingBlock: AJUNOK_clean_linker_0, # of connection points: 2
# Relax obj value: 0.232
# Max RMSD: 0.268
# Mean RMSD: 0.256
data_MOF--net-ull--node1-AZAVOO_clean_sbu_0--edge1-AJUNOK_clean_linker_0
_symmetry_space_group_name_H-M    P1
_symmetry_Int_Tables_number       1
_symmetry_cell_setting            triclinic
loop_
_symmetry_equiv_pos_as_xyz
'x, y, z'
_cell_length_a     42.823402
_cell_length_b     44.521943
_cell_length_c     44.535523
_cell_angle_alpha  89.975776
_cell_angle_beta   89.963455
_cell_angle_gamma 90.017121
loop_
_atom_site_label
_atom_site_type_symbol
_atom_site_fract_x
_atom_site_fract_y
_atom_site_fract_z
_atom_type_partial_charge
Mg0 Mg 0.04059 0.32769 0.18202 0.0
O1 O 0.9969 0.33468 0.15271 0.0
O2 O 0.95607 0.33431 0.18413 0.0
Mg3 Mg 0.97248 0.32348 0.23168 0.0
C4 C 0.96763 0.33709 0.15783 0.0
C5 C 0.07137 0.3333 0.11871 0.0
O6 O 0.04918 0.3139 0.11243 0.0
O7 O 0.03611 0.37479 0.20168 0.0
O8 O 0.99739 0.36898 0.23478 0.0
O9 O 0.03801 0.27759 0.17606 0.0
O10 O 0.01428 0.30329 0.2119 0.0
C11 C 0.01888 0.38491 0.22281 0.0
C12 C 0.01935 0.27801 0.19893 0.0
O13 O 0.07293 0.34402 0.14507 0.0
Mg14 Mg 0.60538 0.00213 0.16955 0.0
O15 O 0.65559 0.00106 0.18603 0.0
O16 O 0.68919 0.99394 0.14828 0.0
Mg17 Mg 0.65915 0.99272 0.10594 0.0
C18 C 0.68333 -0.00196 0.17606 0.0
C19 C 0.57258 0.00493 0.23331 0.0
O20 O 0.56118 0.97873 0.22542 0.0
O21 O 0.61296 0.05022 0.15268 0.0
O22 O 0.64576 0.0418 0.11446 0.0
O23 O 0.60197 0.95164 0.17169 0.0
O24 O 0.61866 0.9776 0.13243 0.0
C25 C 0.63 0.05962 0.13108 0.0
C26 C 0.61375 0.95202 0.14492 0.0
O27 O 0.59044 0.01904 0.21539 0.0
Mg28 Mg 0.96153 0.65128 0.16883 0.0
O29 O 0.00425 0.6497 0.13757 0.0
O30 O 0.0457 0.64397 0.16745 0.0
Mg31 Mg 0.03053 0.64494 0.21661 0.0
C32 C 0.03362 0.64648 0.14136 0.0
C33 C 0.92601 0.66193 0.10887 0.0
O34 O 0.94573 0.68451 0.10755 0.0
O35 O 0.96532 0.60118 0.17875 0.0
O36 O 0.00505 0.59996 0.2112 0.0
O37 O 0.96528 0.70147 0.17314 0.0
O38 O 0.98799 0.66858 0.20304 0.0
C39 C 0.98291 0.58694 0.19703 0.0
C40 C 0.983 0.69616 0.19609 0.0
O41 O 0.92814 0.64334 0.13036 0.0
Mg42 Mg 0.38947 0.00561 0.16628 0.0
O43 O 0.34209 0.00818 0.1902 0.0
O44 O 0.30488 0.01392 0.15556 0.0
Mg45 Mg 0.32839 0.01606 0.10965 0.0
C46 C 0.31338 0.01104 0.18286 0.0
C47 C 0.43855 0.97398 0.20386 0.0
O48 O 0.45224 0.97759 0.17769 0.0
O49 O 0.37807 0.95816 0.15042 0.0
O50 O 0.34194 0.96653 0.11523 0.0
O51 O 0.3953 0.05601 0.16799 0.0
O52 O 0.37164 0.03092 0.1317 0.0
C53 C 0.35911 0.9487 0.13046 0.0
C54 C 0.37951 0.05625 0.14321 0.0
O55 O 0.41189 0.9858 0.20783 0.0
Mg56 Mg 0.03512 0.67452 0.82137 0.0
O57 O 0.98941 0.67322 0.84801 0.0
O58 O 0.95044 0.67503 0.81477 0.0
Mg59 Mg 0.97091 0.68009 0.76765 0.0
C60 C 0.96033 0.67331 0.84176 0.0
C61 C 0.08961 0.64965 0.85667 0.0
O62 O 0.09826 0.64637 0.82855 0.0
O63 O 0.02806 0.62642 0.8053 0.0
O64 O 0.99162 0.63263 0.76998 0.0
O65 O 0.03617 0.72479 0.82336 0.0
O66 O 0.01391 0.69787 0.78739 0.0
C67 C 0.01101 0.61605 0.78417 0.0
C68 C 0.02006 0.72366 0.79882 0.0
O69 O 0.06252 0.65986 0.86205 0.0
Mg70 Mg 0.38762 0.98747 0.83132 0.0
O71 O 0.3425 0.98251 0.80493 0.0
O72 O 0.30234 0.9753 0.83601 0.0
Mg73 Mg 0.3228 0.97444 0.88345 0.0
C74 C 0.31341 0.97851 0.80958 0.0
C75 C 0.43602 0.02217 0.79467 0.0
O76 O 0.44865 0.02157 0.82155 0.0
O77 O 0.37293 0.03426 0.84621 0.0
O78 O 0.33494 0.02447 0.87917 0.0
O79 O 0.39601 0.93752 0.83025 0.0
O80 O 0.3687 0.96151 0.86495 0.0
C81 C 0.35246 0.04298 0.86511 0.0
C82 C 0.37863 0.93656 0.85404 0.0
O83 O 0.41083 0.00782 0.7904 0.0
Mg84 Mg 0.96078 0.33662 0.81854 0.0
O85 O 0.00542 0.33864 0.84737 0.0
O86 O 0.04545 0.33655 0.8151 0.0
Mg87 Mg 0.02749 0.32935 0.76748 0.0
C88 C 0.03469 0.33911 0.84171 0.0
C89 C 0.93037 0.33738 0.88141 0.0
O90 O 0.95049 0.31532 0.88453 0.0
O91 O 0.96926 0.3843 0.80163 0.0
O92 O 0.00696 0.37685 0.76777 0.0
O93 O 0.95892 0.28633 0.82148 0.0
O94 O 0.98404 0.31218 0.78653 0.0
C95 C 0.9873 0.39399 0.78091 0.0
C96 C 0.97679 0.2867 0.79806 0.0
O97 O 0.93035 0.35231 0.85713 0.0
Mg98 Mg 0.61146 0.01076 0.82635 0.0
O99 O 0.66079 0.01117 0.80738 0.0
O100 O 0.69603 0.01618 0.84389 0.0
Mg101 Mg 0.66813 0.01883 0.88761 0.0
C102 C 0.68904 0.01313 0.81622 0.0
C103 C 0.56997 0.00131 0.76746 0.0
O104 O 0.55239 0.02277 0.77859 0.0
O105 O 0.61858 0.96262 0.84318 0.0
O106 O 0.65218 0.97025 0.88079 0.0
O107 O 0.60871 0.06142 0.82467 0.0
O108 O 0.62686 0.03498 0.86289 0.0
C109 C 0.63528 0.95283 0.86482 0.0
C110 C 0.62159 0.06073 0.85096 0.0
O111 O 0.59428 0.99313 0.78159 0.0
Mg112 Mg 0.19368 0.0344 0.32751 0.0
O113 O 0.17076 0.98798 0.32737 0.0
O114 O 0.20966 0.95483 0.33132 0.0
Mg115 Mg 0.2567 0.97915 0.33037 0.0
C116 C 0.18057 0.961 0.32964 0.0
C117 C 0.12195 0.05371 0.32502 0.0
O118 O 0.11972 0.03231 0.30484 0.0
O119 O 0.20464 0.02895 0.37679 0.0
O120 O 0.24692 -0.00051 0.37713 0.0
O121 O 0.19755 0.03499 0.27765 0.0
O122 O 0.23372 0.01722 0.30806 0.0
C123 C 0.22684 0.01586 0.3907 0.0
C124 C 0.22456 0.02232 0.28102 0.0
O125 O 0.14792 0.05813 0.33808 0.0
Mg126 Mg 0.9548 0.17277 0.3296 0.0
O127 O 0.99888 0.14316 0.33064 0.0
O128 O 0.03964 0.17433 0.32706 0.0
Mg129 Mg 0.02237 0.22244 0.32084 0.0
C130 C 0.02828 0.14795 0.3298 0.0
C131 C 0.92481 0.11014 0.33094 0.0
O132 O 0.94461 0.10755 0.30854 0.0
O133 O 0.96435 0.18967 0.37721 0.0
O134 O 0.00288 0.22246 0.36878 0.0
O135 O 0.95222 0.16964 0.27927 0.0
O136 O 0.97804 0.20447 0.30455 0.0
C137 C 0.98328 0.2099 0.38641 0.0
C138 C 0.97044 0.19281 0.27925 0.0
O139 O 0.92451 0.13437 0.34594 0.0
Mg140 Mg 0.79907 0.9557 0.31463 0.0
O141 O 0.82833 -0.00264 0.3236 0.0
O142 O 0.79539 0.03466 0.33439 0.0
Mg143 Mg 0.74538 0.0181 0.32663 0.0
C144 C 0.82306 0.0244 0.33152 0.0
C145 C 0.86835 0.93067 0.31352 0.0
O146 O 0.87347 0.95531 0.29806 0.0
O147 O 0.78536 0.95342 0.36357 0.0
O148 O 0.74715 0.98737 0.36795 0.0
O149 O 0.79871 0.96446 0.26548 0.0
O150 O 0.76325 0.98184 0.29701 0.0
C151 C 0.76372 0.96608 0.37863 0.0
C152 C 0.77356 0.98005 0.26985 0.0
O153 O 0.84094 0.92525 0.32306 0.0
Mg154 Mg 0.0388 0.81831 0.32515 0.0
O155 O 0.99278 0.84428 0.3247 0.0
O156 O 0.95406 0.81121 0.32964 0.0
Mg157 Mg 0.97508 0.76396 0.33112 0.0
C158 C 0.96377 0.83818 0.32679 0.0
C159 C 0.09495 0.85918 0.32861 0.0
O160 O 0.10664 0.83245 0.32307 0.0
O161 O 0.03493 0.80928 0.37557 0.0
O162 O 0.99851 0.77329 0.37637 0.0
O163 O 0.03659 0.81173 0.27506 0.0
O164 O 0.01747 0.78039 0.30885 0.0
C165 C 0.01877 0.78963 0.38967 0.0
C166 C 0.02214 0.7869 0.28115 0.0
O167 O 0.06562 0.86164 0.33178 0.0
Mg168 Mg 0.19834 0.95424 0.66105 0.0
O169 O 0.1702 -0.00296 0.6676 0.0
O170 O 0.20358 0.03556 0.66565 0.0
Mg171 Mg 0.25343 0.01722 0.66394 0.0
C172 C 0.17591 0.02512 0.66785 0.0
C173 C 0.12932 0.93066 0.66462 0.0
O174 O 0.12927 0.9488 0.68785 0.0
O175 O 0.20752 0.96691 0.61245 0.0
O176 O 0.24628 0.00052 0.61567 0.0
O177 O 0.20459 0.94859 0.71061 0.0
O178 O 0.23681 0.97363 0.68116 0.0
C179 C 0.22831 0.98355 0.60027 0.0
C180 C 0.22979 0.96445 0.70767 0.0
O181 O 0.15408 0.92818 0.64904 0.0
Mg182 Mg 0.04703 0.17605 0.67116 0.0
O183 O 0.00188 0.14833 0.66679 0.0
O184 O 0.96339 0.18176 0.66045 0.0
Mg185 Mg 0.98261 0.22933 0.66464 0.0
C186 C 0.97317 0.15472 0.66221 0.0
C187 C 0.07563 0.11225 0.67738 0.0
O188 O 0.05425 0.11044 0.69847 0.0
O189 O 0.04535 0.18773 0.62166 0.0
O190 O 0.00874 0.22327 0.61986 0.0
O191 O 0.04272 0.17715 0.72107 0.0
O192 O 0.02186 0.21044 0.68999 0.0
C193 C 0.02983 0.20739 0.60717 0.0
C194 C 0.02535 0.20056 0.71694 0.0
O195 O 0.07738 0.13592 0.66161 0.0
Mg196 Mg 0.80492 0.04339 0.67229 0.0
O197 O 0.83162 -0.00038 0.66816 0.0
O198 O 0.79665 0.96291 0.66211 0.0
Mg199 Mg 0.74761 0.98276 0.66878 0.0
C200 C 0.82486 0.97217 0.66341 0.0
C201 C 0.87518 0.06531 0.67175 0.0
O202 O 0.8786 0.04313 0.69093 0.0
O203 O 0.79084 0.04014 0.62353 0.0
O204 O 0.75066 0.00795 0.62365 0.0
O205 O 0.80412 0.04047 0.72227 0.0
O206 O 0.76799 0.02162 0.69245 0.0
C207 C 0.76836 0.02681 0.61026 0.0
C208 C 0.77808 0.02595 0.71932 0.0
O209 O 0.84842 0.07012 0.66044 0.0
Mg210 Mg 0.95489 0.82192 0.66063 0.0
O211 O 0.00028 0.84961 0.65628 0.0
O212 O 0.03953 0.81641 0.65666 0.0
Mg213 Mg 0.02032 0.76916 0.66378 0.0
C214 C 0.02941 0.84334 0.655 0.0
C215 C 0.92549 0.88493 0.66177 0.0
O216 O 0.94645 0.88736 0.68316 0.0
O217 O 0.95944 0.80489 0.61254 0.0
O218 O 0.99681 0.77035 0.61753 0.0
O219 O 0.95634 0.82567 0.71074 0.0
O220 O 0.9791 0.7898 0.68421 0.0
C221 C 0.97629 0.78388 0.60169 0.0
C222 C 0.97406 0.80216 0.70985 0.0
O223 O 0.92454 0.86096 0.6464 0.0
Mg224 Mg 0.38163 0.16814 0.98675 0.0
O225 O 0.33559 0.1936 0.98865 0.0
O226 O 0.29544 0.16173 0.98632 0.0
Mg227 Mg 0.3166 0.11475 0.9821 0.0
C228 C 0.30632 0.18831 0.9887 0.0
C229 C 0.4365 0.2105 0.00339 0.0
O230 O 0.45199 0.18673 0.99425 0.0
O231 O 0.37473 0.15252 0.03523 0.0
O232 O 0.33622 0.11907 0.02972 0.0
O233 O 0.38261 0.16936 0.93626 0.0
O234 O 0.35989 0.134 0.96347 0.0
C235 C 0.35595 0.13303 0.04607 0.0
C236 C 0.36616 0.14499 0.93746 0.0
O237 O 0.40689 0.20998 0.00245 0.0
Mg238 Mg 0.38602 0.82281 0.00997 0.0
O239 O 0.33834 0.80068 0.00846 0.0
O240 O 0.2998 0.83407 0.01312 0.0
Mg241 Mg 0.32437 0.87952 0.01785 0.0
C242 C 0.3094 0.80721 0.00936 0.0
C243 C 0.43351 0.76908 -0.00302 0.0
O244 O 0.45174 0.78296 0.01619 0.0
O245 O 0.37864 0.84005 0.96224 0.0
O246 O 0.34167 0.87482 0.96938 0.0
O247 O 0.38804 0.82049 0.06058 0.0
O248 O 0.36734 0.85769 0.03439 0.0
C249 C 0.36023 0.86027 0.95227 0.0
C250 C 0.37331 0.84588 0.06004 0.0
O251 O 0.4066 0.77972 0.99155 0.0
Mg252 Mg 0.19655 0.33792 0.96249 0.0
O253 O 0.16749 0.34071 0.00522 0.0
O254 O 0.20076 0.34675 0.04328 0.0
Mg255 Mg 0.25077 0.34192 0.02552 0.0
C256 C 0.17299 0.34488 0.03303 0.0
C257 C 0.12787 0.33579 0.93637 0.0
O258 O 0.12388 0.31635 0.95824 0.0
O259 O 0.20982 0.38705 0.96624 0.0
O260 O 0.24853 0.3868 -8e-05 0.0
O261 O 0.19818 0.28802 0.96481 0.0
O262 O 0.23317 0.31792 0.98543 0.0
C263 C 0.23205 0.4002 0.98012 0.0
C264 C 0.22371 0.29098 0.98013 0.0
O265 O 0.15418 0.34872 0.93358 0.0
Mg266 Mg 0.60893 0.17938 0.00372 0.0
O267 O 0.65739 0.2013 0.00566 0.0
O268 O 0.69283 0.16545 0.0139 0.0
Mg269 Mg 0.66707 0.12078 0.01854 0.0
C270 C 0.68568 0.19289 0.0093 0.0
C271 C 0.56022 0.21921 0.97352 0.0
O272 O 0.54419 0.19517 0.98099 0.0
O273 O 0.62005 0.16013 0.95738 0.0
O274 O 0.65369 0.12358 0.96887 0.0
O275 O 0.60225 0.18381 0.05399 0.0
O276 O 0.62465 0.14543 0.03109 0.0
C277 C 0.63754 0.13824 0.94971 0.0
C278 C 0.6167 0.15833 0.05569 0.0
O279 O 0.58858 0.22087 0.98168 0.0
Mg280 Mg 0.79514 0.67181 0.95799 0.0
O281 O 0.82452 0.66958 0.00037 0.0
O282 O 0.79213 0.66082 0.03867 0.0
Mg283 Mg 0.74177 0.66426 0.02151 0.0
C284 C 0.81961 0.66417 0.02805 0.0
C285 C 0.86403 0.67642 0.93384 0.0
O286 O 0.8668 0.69436 0.95709 0.0
O287 O 0.78506 0.62207 0.96182 0.0
O288 O 0.74673 0.61956 0.99598 0.0
O289 O 0.79073 0.72151 0.96101 0.0
O290 O 0.7578 0.68937 0.98153 0.0
C291 C 0.7643 0.60735 0.97625 0.0
C292 C 0.76558 0.71685 0.97655 0.0
O293 O 0.838 0.66364 0.92891 0.0
Mg294 Mg 0.60286 0.83402 0.99269 0.0
O295 O 0.64965 0.8099 0.99192 0.0
O296 O 0.68847 0.84259 0.98516 0.0
Mg297 Mg 0.66565 0.8888 0.9805 0.0
C298 C 0.67866 0.81585 0.98939 0.0
C299 C 0.55519 0.7955 0.02698 0.0
O300 O 0.54172 0.82202 0.02695 0.0
O301 O 0.61333 0.85205 0.03961 0.0
O302 O 0.64994 0.88636 0.02956 0.0
O303 O 0.59819 0.83067 0.94216 0.0
O304 O 0.62156 0.86761 0.96648 0.0
C305 C 0.63201 0.87274 0.04804 0.0
C306 C 0.61401 0.85545 0.9414 0.0
O307 O 0.58081 0.79238 0.01302 0.0
Mg308 Mg 0.19675 0.65816 0.02476 0.0
O309 O 0.17261 0.65433 0.97924 0.0
O310 O 0.21054 0.64901 0.94525 0.0
Mg311 Mg 0.25792 0.65437 0.96791 0.0
C312 C 0.18167 0.65 0.95228 0.0
C313 C 0.12539 0.65812 0.04572 0.0
O314 O 0.12183 0.67775 0.02397 0.0
O315 O 0.21035 0.6092 0.02205 0.0
O316 O 0.25169 0.60886 0.99148 0.0
O317 O 0.19776 0.70805 0.02273 0.0
O318 O 0.23535 0.67895 0.0054 0.0
C319 C 0.23297 0.59552 0.00939 0.0
C320 C 0.22478 0.70572 0.00982 0.0
O321 O 0.15208 0.64636 0.04993 0.0
Mg322 Mg 0.80554 0.33501 0.03795 0.0
O323 O 0.83409 0.33687 0.9949 0.0
O324 O 0.8004 0.34349 0.95721 0.0
Mg325 Mg 0.75044 0.33927 0.97552 0.0
C326 C 0.82827 0.3413 0.96719 0.0
C327 C 0.87537 0.33461 0.0626 0.0
O328 O 0.88021 0.31657 0.03974 0.0
O329 O 0.79389 0.38427 0.03308 0.0
O330 O 0.75477 0.38481 -0.0002 0.0
O331 O 0.80235 0.28505 0.03643 0.0
O332 O 0.76831 0.31572 0.01553 0.0
C333 C 0.77236 0.39805 0.01883 0.0
C334 C 0.7769 0.28859 0.0211 0.0
O335 O 0.8483 0.34562 0.06651 0.0
Mg336 Mg 0.54541 0.83698 0.66924 0.0
O337 O 0.49839 0.84099 0.6445 0.0
O338 O 0.4619 0.84763 0.67988 0.0
Mg339 Mg 0.48426 0.84582 0.72616 0.0
C340 C 0.47006 0.8454 0.65241 0.0
C341 C 0.57102 0.82624 0.60395 0.0
O342 O 0.55002 0.80472 0.60421 0.0
O343 O 0.54558 0.8873 0.67946 0.0
O344 O 0.50938 0.88979 0.71566 0.0
O345 O 0.53919 0.78688 0.67419 0.0
O346 O 0.52336 0.82093 0.70677 0.0
C347 C 0.52983 0.90213 0.69881 0.0
C348 C 0.52526 0.79319 0.69923 0.0
O349 O 0.57298 0.84373 0.62637 0.0
Mg350 Mg 0.10161 0.49211 0.66927 0.0
O351 O 0.14879 0.48975 0.69302 0.0
O352 O 0.18684 0.48331 0.65939 0.0
Mg353 Mg 0.1635 0.48115 0.61334 0.0
C354 C 0.17763 0.48675 0.68643 0.0
C355 C 0.05086 0.51737 0.71125 0.0
O356 O 0.03475 0.51174 0.68679 0.0
O357 O 0.11266 0.53974 0.65304 0.0
O358 O 0.14908 0.53038 0.61832 0.0
O359 O 0.09616 0.44168 0.67094 0.0
O360 O 0.11959 0.46704 0.63463 0.0
C361 C 0.13163 0.54863 0.63276 0.0
C362 C 0.11183 0.44164 0.64606 0.0
O363 O 0.07962 0.51058 0.71166 0.0
Mg364 Mg 0.45885 0.17203 0.66878 0.0
O365 O 0.50762 0.16345 0.64806 0.0
O366 O 0.54153 0.17005 0.68575 0.0
Mg367 Mg 0.51635 0.18459 0.72835 0.0
C368 C 0.53551 0.16356 0.65842 0.0
C369 C 0.40527 0.14389 0.63515 0.0
O370 O 0.39614 0.1445 0.66331 0.0
O371 O 0.46088 0.12719 0.69375 0.0
O372 O 0.49358 0.13816 0.73125 0.0
O373 O 0.46187 0.22119 0.65759 0.0
O374 O 0.47844 0.20024 0.69977 0.0
C375 C 0.47508 0.12 0.71795 0.0
C376 C 0.47582 0.2237 0.68322 0.0
O377 O 0.43302 0.15205 0.62908 0.0
Mg378 Mg 0.89753 0.5157 0.66619 0.0
O379 O 0.85035 0.51555 0.68994 0.0
O380 O 0.81183 0.51713 0.65625 0.0
Mg381 Mg 0.8351 0.51911 0.61007 0.0
C382 C 0.82136 0.51581 0.68337 0.0
C383 C 0.94943 0.49291 0.70751 0.0
O384 O 0.9643 0.49698 0.682 0.0
O385 O 0.89048 0.46677 0.65229 0.0
O386 O 0.85364 0.47138 0.61711 0.0
O387 O 0.89914 0.5663 0.66568 0.0
O388 O 0.87757 0.5379 0.6306 0.0
C389 C 0.87255 0.45535 0.63246 0.0
C390 C 0.88347 0.56423 0.64091 0.0
O391 O 0.92092 0.50044 0.70904 0.0
Mg392 Mg 0.53524 0.1607 0.33458 0.0
O393 O 0.49032 0.1569 0.36271 0.0
O394 O 0.45229 0.14421 0.33082 0.0
Mg395 Mg 0.47103 0.14395 0.28294 0.0
C396 C 0.46199 0.14974 0.35732 0.0
C397 C 0.59425 0.16345 0.37165 0.0
O398 O 0.60399 0.16689 0.34387 0.0
O399 O 0.53802 0.10982 0.32803 0.0
O400 O 0.50082 0.10277 0.29343 0.0
O401 O 0.52699 0.20977 0.32489 0.0
O402 O 0.51027 0.17215 0.29713 0.0
C403 C 0.52309 0.09294 0.30977 0.0
C404 C 0.51261 0.20058 0.30101 0.0
O405 O 0.56527 0.15954 0.37627 0.0
Mg406 Mg 0.89352 0.4792 0.32223 0.0
O407 O 0.84466 0.47713 0.30215 0.0
O408 O 0.80891 0.47285 0.33838 0.0
Mg409 Mg 0.83576 0.47159 0.38269 0.0
C410 C 0.8163 0.4752 0.31073 0.0
C411 C 0.93954 0.48987 0.26831 0.0
O412 O 0.95808 0.47347 0.2851 0.0
O413 O 0.88435 0.52768 0.33695 0.0
O414 O 0.85041 0.52028 0.37441 0.0
O415 O 0.89821 0.4286 0.3228 0.0
O416 O 0.87794 0.45608 0.35925 0.0
C417 C 0.86693 0.53767 0.35799 0.0
C418 C 0.88475 0.43004 0.34881 0.0
O419 O 0.91201 0.49524 0.27739 0.0
Mg420 Mg 0.44122 0.81486 0.31624 0.0
O421 O 0.48913 0.8164 0.33952 0.0
O422 O 0.52499 0.80785 0.304 0.0
Mg423 Mg 0.50048 0.79934 0.25933 0.0
C424 C 0.51753 0.81358 0.33115 0.0
C425 C 0.42085 0.8247 0.38209 0.0
O426 O 0.44096 0.80273 0.38576 0.0
O427 O 0.45033 0.86041 0.29459 0.0
O428 O 0.48442 0.84854 0.25852 0.0
O429 O 0.43798 0.76537 0.32498 0.0
O430 O 0.45856 0.78631 0.28433 0.0
C431 C 0.46735 0.86772 0.27217 0.0
C432 C 0.45252 0.76257 0.29967 0.0
O433 O 0.41729 0.83591 0.35613 0.0
Mg434 Mg 0.12151 0.50939 0.32928 0.0
O435 O 0.16591 0.50738 0.30127 0.0
O436 O 0.20762 0.5101 0.3311 0.0
Mg437 Mg 0.18926 0.51621 0.37897 0.0
C438 C 0.19541 0.50718 0.30512 0.0
C439 C 0.06629 0.48251 0.29463 0.0
O440 O 0.05413 0.487 0.32136 0.0
O441 O 0.13042 0.46158 0.34553 0.0
O442 O 0.16994 0.46815 0.37752 0.0
O443 O 0.11939 0.55997 0.32727 0.0
O444 O 0.14466 0.53385 0.36165 0.0
C445 C 0.14977 0.45129 0.36473 0.0
C446 C 0.13688 0.5596 0.35099 0.0
O447 O 0.09404 0.49124 0.2898 0.0
Mg448 Mg 0.70057 0.54513 0.82554 0.0
O449 O 0.67146 0.5025 0.82458 0.0
O450 O 0.70384 0.46396 0.83207 0.0
Mg451 Mg 0.75414 0.48152 0.83154 0.0
C452 C 0.67641 0.47457 0.82845 0.0
C453 C 0.63071 0.56943 0.82213 0.0
O454 O 0.62734 0.54763 0.80252 0.0
O455 O 0.70936 0.53916 0.87531 0.0
O456 O 0.74745 0.50484 0.87715 0.0
O457 O 0.707 0.54442 0.77579 0.0
O458 O 0.7388 0.52272 0.8081 0.0
C459 C 0.72984 0.52422 0.88984 0.0
C460 C 0.73207 0.52884 0.78064 0.0
O461 O 0.65709 0.5732 0.83463 0.0
Mg462 Mg 0.45667 0.67741 0.8292 0.0
O463 O 0.50279 0.65069 0.83123 0.0
O464 O 0.54062 0.6848 0.83756 0.0
Mg465 Mg 0.52011 0.73194 0.83745 0.0
C466 C 0.53152 0.65762 0.83492 0.0
C467 C 0.4285 0.61245 0.82024 0.0
O468 O 0.44965 0.61074 0.79893 0.0
O469 O 0.45856 0.68658 0.87958 0.0
O470 O 0.49575 0.72178 0.882 0.0
O471 O 0.4614 0.68302 0.77905 0.0
O472 O 0.47978 0.71429 0.81312 0.0
C473 C 0.47509 0.70526 0.89446 0.0
C474 C 0.47665 0.70734 0.78533 0.0
O475 O 0.42718 0.63585 0.83645 0.0
Mg476 Mg 0.30042 0.45671 0.82721 0.0
O477 O 0.33031 0.49894 0.8246 0.0
O478 O 0.29867 0.53809 0.83162 0.0
Mg479 Mg 0.24805 0.5213 0.83286 0.0
C480 C 0.32587 0.52707 0.82754 0.0
C481 C 0.36731 0.43003 0.81742 0.0
O482 O 0.36647 0.44911 0.79495 0.0
O483 O 0.29288 0.46365 0.87724 0.0
O484 O 0.25532 0.49857 0.87872 0.0
O485 O 0.29272 0.45664 0.77763 0.0
O486 O 0.26194 0.47927 0.81021 0.0
C487 C 0.27283 0.47927 0.89166 0.0
C488 C 0.26797 0.47259 0.78273 0.0
O489 O 0.34397 0.42833 0.83498 0.0
Mg490 Mg 0.54446 0.32668 0.81123 0.0
O491 O 0.49775 0.35205 0.81644 0.0
O492 O 0.46038 0.31686 0.81441 0.0
Mg493 Mg 0.48193 0.27109 0.80472 0.0
C494 C 0.46906 0.34411 0.81766 0.0
C495 C 0.57375 0.39064 0.81451 0.0
O496 O 0.5551 0.39471 0.79144 0.0
O497 O 0.53975 0.30726 0.85833 0.0
O498 O 0.50382 0.27146 0.85171 0.0
O499 O 0.54321 0.33267 0.76117 0.0
O500 O 0.52243 0.29456 0.78618 0.0
C501 C 0.52329 0.2855 0.8683 0.0
C502 C 0.52695 0.30817 0.76113 0.0
O503 O 0.57285 0.36581 0.82845 0.0
Mg504 Mg 0.69813 0.45512 0.16659 0.0
O505 O 0.66937 0.49811 0.16682 0.0
O506 O 0.70266 0.53655 0.1635 0.0
Mg507 Mg 0.75264 0.51821 0.16693 0.0
C508 C 0.67488 0.52616 0.16451 0.0
C509 C 0.62987 0.42978 0.16866 0.0
O510 O 0.62733 0.45043 0.18957 0.0
O511 O 0.71051 0.46281 0.11781 0.0
O512 O 0.74892 0.49682 0.11994 0.0
O513 O 0.70046 0.45372 0.2165 0.0
O514 O 0.73488 0.4765 0.18749 0.0
C515 C 0.73209 0.47818 0.10529 0.0
C516 C 0.72591 0.46927 0.21412 0.0
O517 O 0.65554 0.42712 0.15459 0.0
Mg518 Mg 0.53324 0.66821 0.17292 0.0
O519 O 0.49311 0.63573 0.16142 0.0
O520 O 0.44965 0.66365 0.16001 0.0
Mg521 Mg 0.46049 0.71166 0.17464 0.0
C522 C 0.46379 0.63859 0.15693 0.0
C523 C 0.56959 0.60852 0.17015 0.0
O524 O 0.5468 0.60162 0.18868 0.0
O525 O 0.53072 0.69048 0.12652 0.0
O526 O 0.48867 0.71967 0.13187 0.0
O527 O 0.52726 0.6596 0.22247 0.0
O528 O 0.50255 0.69455 0.19647 0.0
C529 C 0.51233 0.71092 0.11676 0.0
C530 C 0.50678 0.68095 0.22154 0.0
O531 O 0.56982 0.6344 0.15815 0.0
Mg532 Mg 0.30449 0.52002 0.15275 0.0
O533 O 0.32719 0.47388 0.14865 0.0
O534 O 0.28813 0.44107 0.14323 0.0
Mg535 Mg 0.2414 0.465 0.1498 0.0
C536 C 0.31723 0.44725 0.14407 0.0
C537 C 0.37596 0.54032 0.15301 0.0
O538 O 0.37907 0.51876 0.17295 0.0
O539 O 0.29025 0.51771 0.10409 0.0
O540 O 0.24717 0.48931 0.10447 0.0
O541 O 0.30359 0.51804 0.20268 0.0
O542 O 0.26558 0.50184 0.17351 0.0
C543 C 0.26663 0.50634 0.09088 0.0
C544 C 0.27608 0.50614 0.20026 0.0
O545 O 0.34954 0.54432 0.1407 0.0
Mg546 Mg 0.46284 0.31234 0.1599 0.0
O547 O 0.5076 0.34029 0.1609 0.0
O548 O 0.54764 0.30841 0.15749 0.0
Mg549 Mg 0.52884 0.26031 0.15837 0.0
C550 C 0.53683 0.33507 0.15924 0.0
C551 C 0.40714 0.34957 0.13932 0.0
O552 O 0.39856 0.322 0.13281 0.0
O553 O 0.46946 0.30163 0.11019 0.0
O554 O 0.50653 0.26639 0.11208 0.0
O555 O 0.4626 0.30755 0.21026 0.0
O556 O 0.4852 0.27633 0.17855 0.0
C557 C 0.48642 0.28172 0.09745 0.0
C558 C 0.47832 0.28311 0.20574 0.0
O559 O 0.43415 0.35381 0.15026 0.0
Mg560 Mg 0.89011 0.667 0.47798 0.0
O561 O 0.84026 0.68524 0.47546 0.0
O562 O 0.80659 0.64716 0.47078 0.0
Mg563 Mg 0.8353 0.60405 0.4706 0.0
C564 C 0.81242 0.67518 0.47299 0.0
C565 C 0.93707 0.71313 0.50042 0.0
O566 O 0.95464 0.69032 0.4923 0.0
O567 O 0.88121 0.65211 0.52619 0.0
O568 O 0.8485 0.61352 0.51954 0.0
O569 O 0.8949 0.66698 0.42742 0.0
O570 O 0.87592 0.62968 0.45469 0.0
C571 C 0.86424 0.63095 0.53657 0.0
C572 C 0.88209 0.64066 0.42871 0.0
O573 O 0.90798 0.71173 0.49523 0.0
Mg574 Mg 0.90271 0.32703 0.51237 0.0
O575 O 0.85373 0.30643 0.51568 0.0
O576 O 0.81868 0.34323 0.52077 0.0
Mg577 Mg 0.84524 0.38761 0.52091 0.0
C578 C 0.82552 0.31543 0.51848 0.0
C579 C 0.95133 0.28224 0.48869 0.0
O580 O 0.96869 0.30539 0.49618 0.0
O581 O 0.89226 0.34161 0.46418 0.0
O582 O 0.85829 0.37893 0.47185 0.0
O583 O 0.90825 0.32741 0.56298 0.0
O584 O 0.8872 0.36375 0.53593 0.0
C585 C 0.87443 0.36235 0.45431 0.0
C586 C 0.89422 0.35314 0.56183 0.0
O587 O 0.92237 0.28309 0.49482 0.0
Mg588 Mg 0.68814 0.81247 0.44157 0.0
O589 O 0.66089 0.81613 0.48552 0.0
O590 O 0.69629 0.82324 0.52169 0.0
Mg591 Mg 0.74546 0.81787 0.50234 0.0
C592 C 0.66801 0.8213 0.51284 0.0
C593 C 0.61786 0.8106 0.41903 0.0
O594 O 0.61402 0.79368 0.44292 0.0
O595 O 0.70087 0.86194 0.44412 0.0
O596 O 0.74043 0.86239 0.47695 0.0
O597 O 0.69153 0.76236 0.44481 0.0
O598 O 0.72582 0.79408 0.46356 0.0
C599 C 0.72312 0.87551 0.45762 0.0
C600 C 0.71744 0.76674 0.45916 0.0
O601 O 0.64457 0.8219 0.4138 0.0
Mg602 Mg 0.11425 0.67201 0.50503 0.0
O603 O 0.15942 0.69775 0.51069 0.0
O604 O 0.19951 0.66696 0.51867 0.0
Mg605 Mg 0.17852 0.61962 0.51962 0.0
C606 C 0.18842 0.69332 0.51509 0.0
C607 C 0.06416 0.72122 0.48831 0.0
O608 O 0.04588 0.70357 0.5041 0.0
O609 O 0.12951 0.65658 0.4583 0.0
O610 O 0.16661 0.6232 0.46957 0.0
O611 O 0.10493 0.67266 0.55495 0.0
O612 O 0.13206 0.6378 0.53117 0.0
C613 C 0.14958 0.63689 0.45038 0.0
C614 C 0.12153 0.64837 0.55602 0.0
O615 O 0.09268 0.71416 0.48525 0.0
Mg616 Mg 0.2947 0.15769 0.4701 0.0
O617 O 0.319 0.15159 0.51511 0.0
O618 O 0.28168 0.14507 0.54946 0.0
Mg619 Mg 0.23389 0.15237 0.52713 0.0
C620 C 0.31047 0.14613 0.542 0.0
C621 C 0.36534 0.15967 0.44836 0.0
O622 O 0.36774 0.18066 0.46896 0.0
O623 O 0.28039 0.10903 0.47069 0.0
O624 O 0.2387 0.10776 0.50091 0.0
O625 O 0.29428 0.20732 0.47468 0.0
O626 O 0.25628 0.17767 0.49024 0.0
C627 C 0.25735 0.09512 0.48238 0.0
C628 C 0.26717 0.20449 0.48731 0.0
O629 O 0.33934 0.1464 0.44486 0.0
Mg630 Mg 0.10924 0.32976 0.48935 0.0
O631 O 0.15449 0.30179 0.49221 0.0
O632 O 0.19456 0.33384 0.4902 0.0
Mg633 Mg 0.17575 0.38138 0.48441 0.0
C634 C 0.18384 0.3072 0.49263 0.0
C635 C 0.08434 0.26336 0.50447 0.0
O636 O 0.10796 0.25352 0.48844 0.0
O637 O 0.1166 0.3458 0.53747 0.0
O638 O 0.15543 0.37882 0.53192 0.0
O639 O 0.10822 0.32821 0.43859 0.0
O640 O 0.13283 0.36219 0.46578 0.0
C641 C 0.13525 0.36537 0.54825 0.0
C642 C 0.12584 0.35183 0.43976 0.0
O643 O 0.07971 0.29142 0.50687 0.0
Mg644 Mg 0.69836 0.17698 0.54162 0.0
O645 O 0.67661 0.17535 0.49533 0.0
O646 O 0.71437 0.16949 0.46144 0.0
Mg647 Mg 0.76126 0.17175 0.4862 0.0
C648 C 0.68552 0.17168 0.46831 0.0
C649 C 0.64805 0.1539 0.58641 0.0
O650 O 0.6735 0.14276 0.59855 0.0
O651 O 0.70946 0.12725 0.53883 0.0
O652 O 0.75166 0.12644 0.50923 0.0
O653 O 0.70349 0.22689 0.53987 0.0
O654 O 0.73936 0.19484 0.52458 0.0
C655 C 0.73225 0.11328 0.52664 0.0
C656 C 0.73088 0.22227 0.52839 0.0
O657 O 0.6504 0.16869 0.56214 0.0
Mg658 Mg 0.30042 0.8432 0.54191 0.0
O659 O 0.32898 0.84004 0.49909 0.0
O660 O 0.29582 0.8428 0.46059 0.0
Mg661 Mg 0.24583 0.84219 0.47882 0.0
C662 C 0.32354 0.84108 0.47101 0.0
C663 C 0.36767 0.83741 0.56765 0.0
O664 O 0.36663 0.81335 0.55062 0.0
O665 O 0.28973 0.8921 0.53214 0.0
O666 O 0.25128 0.88971 0.49824 0.0
O667 O 0.29604 0.7933 0.54489 0.0
O668 O 0.26273 0.82297 0.52148 0.0
C669 C 0.26853 0.90462 0.51627 0.0
C670 C 0.27068 0.79625 0.52931 0.0
O671 O 0.34417 0.85479 0.56835 0.0
C672 C 0.02528 0.44463 0.28283 0.0
C673 C 0.05062 0.46214 0.27305 0.0
C674 C 0.01358 0.42118 0.26526 0.0
C675 C 0.02693 0.41401 0.23724 0.0
H676 H 0.01536 0.44789 0.30497 0.0
H677 H 0.9951 0.4075 0.27472 0.0
S678 S 0.08964 0.45694 0.19876 0.0
N679 N 0.08565 0.47376 0.23158 0.0
N680 N 0.06388 0.42935 0.19859 0.0
C681 C 0.05051 0.43302 0.22603 0.0
C682 C 0.06234 0.4571 0.24394 0.0
C683 C 0.58093 0.04153 0.27465 0.0
C684 C 0.56133 0.02053 0.26046 0.0
C685 C 0.56885 0.06264 0.29484 0.0
C686 C 0.53665 0.06386 0.30084 0.0
H687 H 0.60536 0.04306 0.26846 0.0
H688 H 0.58428 0.08012 0.303 0.0
S689 S 0.47669 0.01001 0.2744 0.0
N690 N 0.50925 -0.00114 0.25792 0.0
N691 N 0.48635 0.03931 0.29515 0.0
C692 C 0.51751 0.04085 0.28953 0.0
C693 C 0.52991 0.01895 0.26943 0.0
C694 C 0.99462 0.53997 0.22555 0.0
C695 C 0.97407 0.55623 0.2069 0.0
C696 C 0.98392 0.51615 0.24334 0.0
C697 C 0.95227 0.50787 0.24322 0.0
H698 H 0.01863 0.54715 0.22827 0.0
H699 H -1e-05 0.5061 0.25919 0.0
S700 S 0.89085 0.53753 0.19256 0.0
N701 N 0.92198 0.55805 0.18494 0.0
N702 N 0.90196 0.51338 0.21859 0.0
C703 C 0.93243 0.52126 0.22193 0.0
C704 C 0.94335 0.54539 0.20362 0.0
C705 C 0.43816 0.91602 0.26606 0.0
C706 C 0.46439 0.89829 0.25915 0.0
C707 C 0.43118 0.94188 0.24944 0.0
C708 C 0.45018 0.95104 0.22529 0.0
H709 H 0.42174 0.90895 0.28317 0.0
H710 H 0.40972 0.9537 0.25451 0.0
S711 S 0.52526 0.91612 0.20239 0.0
N712 N 0.51219 0.89448 0.22974 0.0
N713 N 0.49905 0.94302 0.19851 0.0
C714 C 0.4781 0.9352 0.2201 0.0
C715 C 0.4852 0.90884 0.23701 0.0
C716 C 0.00855 0.55083 0.73024 0.0
C717 C 0.03756 0.53688 0.73502 0.0
C718 C 0.99864 0.57466 0.74832 0.0
C719 C 0.0174 0.58564 0.77186 0.0
H720 H 0.99426 0.54483 0.71112 0.0
H721 H 0.97705 0.58585 0.74236 0.0
S722 S 0.09187 0.55199 0.79824 0.0
N723 N 0.08225 0.53198 0.76845 0.0
N724 N 0.06376 0.57702 0.80234 0.0
C725 C 0.04475 0.56961 0.77906 0.0
C726 C 0.05484 0.54521 0.76061 0.0
C727 C 0.47573 0.05931 0.77741 0.0
C728 C 0.4482 0.04316 0.77157 0.0
C729 C 0.48532 0.08276 0.75869 0.0
C730 C 0.46774 0.09122 0.73332 0.0
H731 H 0.48946 0.05465 0.79729 0.0
H732 H 0.50604 0.0952 0.76502 0.0
S733 S 0.3964 0.05293 0.70536 0.0
N734 N 0.40544 0.03478 0.73649 0.0
N735 N 0.4234 0.07908 0.70134 0.0
C736 C 0.44148 0.07371 0.72584 0.0
C737 C 0.4317 0.04968 0.74497 0.0
C738 C 0.99058 0.45738 0.72481 0.0
C739 C 0.96316 0.47352 0.73111 0.0
C740 C -6e-05 0.43338 0.74291 0.0
C741 C 0.98211 0.42435 0.76795 0.0
H742 H 0.00377 0.46172 0.70453 0.0
H743 H 0.02011 0.42053 0.7358 0.0
S744 S 0.91294 0.46433 0.79848 0.0
N745 N 0.92173 0.48273 0.76742 0.0
N746 N 0.93913 0.43729 0.80137 0.0
C747 C 0.95674 0.44256 0.77652 0.0
C748 C 0.94727 0.46718 0.75807 0.0
C749 C 0.58088 0.964 0.72716 0.0
C750 C 0.55915 0.98241 0.74219 0.0
C751 C 0.57105 0.93978 0.70947 0.0
C752 C 0.53917 0.93302 0.70658 0.0
H753 H 0.6057 0.96693 0.73087 0.0
H754 H 0.58857 0.92461 0.70064 0.0
S755 S 0.47295 0.97812 0.73528 0.0
N756 N 0.50429 0.99538 0.7483 0.0
N757 N 0.48594 0.94951 0.71534 0.0
C758 C 0.51726 0.95329 0.7184 0.0
C759 C 0.52723 0.97816 0.73616 0.0
C760 C 0.26448 0.0293 0.43088 0.0
C761 C 0.23327 0.02561 0.42179 0.0
C762 C 0.27217 0.04931 0.45393 0.0
C763 C 0.24889 0.06592 0.46882 0.0
H764 H 0.28335 0.01951 0.41795 0.0
H765 H 0.29664 0.05405 0.45797 0.0
S766 S 0.16332 0.05632 0.46001 0.0
N767 N 0.17873 0.0342 0.4342 0.0
N768 N 0.19312 0.0716 0.4779 0.0
C769 C 0.21747 0.05845 0.46339 0.0
C770 C 0.20966 0.03833 0.43966 0.0
C771 C 0.94325 0.23617 0.45743 0.0
C772 C 0.96332 0.25908 0.46763 0.0
C773 C 0.95108 0.21834 0.43261 0.0
C774 C 0.97927 0.22277 0.41696 0.0
H775 H 0.92042 0.23314 0.46749 0.0
H776 H 0.93387 0.20249 0.42444 0.0
S777 S 0.04272 0.27553 0.43825 0.0
N778 N 0.01472 0.28202 0.46287 0.0
N779 N 0.02949 0.24841 0.41648 0.0
C780 C 0.00091 0.24344 0.42885 0.0
C781 C 0.99294 0.26161 0.45412 0.0
C782 C 0.71124 0.92272 0.42982 0.0
C783 C 0.73279 0.9052 0.44599 0.0
C784 C 0.72138 0.94552 0.4105 0.0
C785 C 0.75342 0.95109 0.40636 0.0
H786 H 0.68659 0.91723 0.43027 0.0
H787 H 0.70421 0.95661 0.39649 0.0
S788 S 0.81873 0.9165 0.44836 0.0
N789 N 0.78725 0.89901 0.46077 0.0
N790 N 0.80615 0.94133 0.42364 0.0
C791 C 0.77487 0.93628 0.42494 0.0
C792 C 0.76456 0.91346 0.44506 0.0
C793 C 0.00793 0.76139 0.43696 0.0
C794 C 0.02782 0.78059 0.42056 0.0
C795 C 0.01923 0.74409 0.46088 0.0
C796 C 0.05085 0.74527 0.4692 0.0
H797 H 0.98403 0.75786 0.42982 0.0
H798 H 0.00365 0.72793 0.47114 0.0
S799 S 0.11063 0.79735 0.43862 0.0
N800 N 0.07921 0.8039 0.4182 0.0
N801 N 0.10039 0.77131 0.46312 0.0
C802 C 0.07 0.767 0.45547 0.0
C803 C 0.05845 0.78479 0.43121 0.0
C804 C 0.26951 0.97378 0.56262 0.0
C805 C 0.23745 0.97629 0.56917 0.0
C806 C 0.28002 0.95325 0.5411 0.0
C807 C 0.25874 0.93516 0.52527 0.0
H808 H 0.28676 0.98433 0.57695 0.0
H809 H 0.30487 0.94888 0.53964 0.0
S810 S 0.17245 0.94305 0.52568 0.0
N811 N 0.18466 0.96617 0.55218 0.0
N812 N 0.20428 0.92816 0.51094 0.0
C813 C 0.22675 0.94233 0.52717 0.0
C814 C 0.21608 0.96283 0.54948 0.0
C815 C 0.02458 0.23944 0.56145 0.0
C816 C 0.03957 0.21544 0.57615 0.0
C817 C 0.03792 0.2531 0.53628 0.0
C818 C 0.06664 0.24319 0.52462 0.0
H819 H 0.00348 0.24925 0.57061 0.0
H820 H 0.02664 0.27288 0.52714 0.0
S821 S 0.11164 0.17679 0.55018 0.0
N822 N 0.08194 0.17891 0.57374 0.0
N823 N 0.10695 0.20478 0.52629 0.0
C824 C 0.07997 0.21702 0.53672 0.0
C825 C 0.06644 0.20309 0.56255 0.0
C826 C 0.72684 0.04548 0.57636 0.0
C827 C 0.75859 0.03896 0.58098 0.0
C828 C 0.71776 0.06738 0.55556 0.0
C829 C 0.74013 0.08312 0.53853 0.0
H830 H 0.7092 0.03624 0.59118 0.0
H831 H 0.69341 0.07398 0.55495 0.0
S832 S 0.82527 0.0671 0.53611 0.0
N833 N 0.81158 0.0447 0.56257 0.0
N834 N 0.79468 0.08531 0.52277 0.0
C835 C 0.77138 0.07316 0.53961 0.0
C836 C 0.7806 0.05122 0.56114 0.0
C837 C 0.97828 0.73077 0.53564 0.0
C838 C 0.94957 0.73607 0.52135 0.0
C839 C 0.98798 0.74815 0.56002 0.0
C840 C 0.96919 0.77146 0.57145 0.0
H841 H 0.9925 0.71172 0.52938 0.0
H842 H 0.00953 0.74191 0.57111 0.0
S843 S 0.89457 0.7982 0.53835 0.0
N844 N 0.90455 0.76914 0.51742 0.0
N845 N 0.92249 0.80174 0.56366 0.0
C846 C 0.94174 0.77884 0.55563 0.0
C847 C 0.93193 0.7611 0.53057 0.0
C848 C 0.49557 0.24747 0.05397 0.0
C849 C 0.47818 0.27109 0.06683 0.0
C850 C 0.483 0.22951 0.0312 0.0
C851 C 0.45262 0.23453 0.02041 0.0
H852 H 0.518 0.24109 0.06322 0.0
H853 H 0.49626 0.21013 0.0239 0.0
S854 S 0.40176 0.29929 0.03947 0.0
N855 N 0.43217 0.30284 0.06191 0.0
N856 N 0.40856 0.26904 0.01905 0.0
C857 C 0.43689 0.26061 0.02992 0.0
C858 C 0.44974 0.279 0.0531 0.0
C859 C 0.42456 0.72883 0.95906 0.0
C860 C 0.4457 0.74533 0.97683 0.0
C861 C 0.43476 0.71259 0.93399 0.0
C862 C 0.46643 0.71252 0.92573 0.0
H863 H 0.39967 0.73022 0.9632 0.0
H864 H 0.41736 0.70249 0.91951 0.0
S865 S 0.53196 0.7456 0.9688 0.0
N866 N 0.50038 0.75571 0.98755 0.0
N867 N 0.51945 0.72524 0.94028 0.0
C868 C 0.48815 0.72575 0.94533 0.0
C869 C 0.47781 0.74214 0.97099 0.0
C870 C 0.23249 0.46749 0.92988 0.0
C871 C 0.26433 0.46912 0.92218 0.0
C872 C 0.22209 0.44746 0.95196 0.0
C873 C 0.24325 0.42896 0.96745 0.0
H874 H 0.21509 0.47899 0.91648 0.0
H875 H 0.19716 0.44435 0.95482 0.0
S876 S 0.3297 0.43186 0.96184 0.0
N877 N 0.31733 0.45574 0.93608 0.0
N878 N 0.29797 0.41868 0.97832 0.0
C879 C 0.27544 0.43408 0.96335 0.0
C880 C 0.28596 0.45405 0.94042 0.0
C881 C 0.56789 0.26195 0.93772 0.0
C882 C 0.54783 0.24058 0.95089 0.0
C883 C 0.55891 0.27816 0.91217 0.0
C884 C 0.52955 0.27357 0.89877 0.0
H885 H 0.59141 0.26502 0.94611 0.0
H886 H 0.57589 0.29293 0.90181 0.0
S887 S 0.466 0.225 0.92807 0.0
N888 N 0.4955 0.21921 0.95119 0.0
N889 N 0.47865 0.24972 0.90328 0.0
C890 C 0.50824 0.25438 0.9133 0.0
C891 C 0.51736 0.23789 0.93934 0.0
C892 C 0.71524 0.55071 0.93691 0.0
C893 C 0.73789 0.53506 0.92022 0.0
C894 C 0.72402 0.57151 0.9589 0.0
C895 C 0.75572 0.57761 0.96438 0.0
H896 H 0.69077 0.54914 0.93089 0.0
H897 H 0.70599 0.58536 0.96888 0.0
S898 S 0.82352 0.53658 0.93313 0.0
N899 N 0.79298 0.52204 0.91577 0.0
N900 N 0.80936 0.56192 0.95652 0.0
C901 C 0.77827 0.55902 0.95112 0.0
C902 C 0.76934 0.53741 0.92915 0.0
C903 C 0.50372 0.75477 0.08277 0.0
C904 C 0.52082 0.72858 0.08957 0.0
C905 C 0.51441 0.77552 0.06157 0.0
C906 C 0.54247 0.77091 0.0459 0.0
H907 H 0.48262 0.76029 0.095 0.0
H908 H 0.50102 0.79591 0.05835 0.0
S909 S 0.59306 0.70331 0.05107 0.0
N910 N 0.56518 0.69729 0.07595 0.0
N911 N 0.58512 0.73618 0.03568 0.0
C912 C 0.55852 0.74365 0.05055 0.0
C913 C 0.5477 0.72251 0.07242 0.0
C914 C 0.21788 0.54853 0.03597 0.0
C915 C 0.24078 0.56512 0.02049 0.0
C916 C 0.22629 0.52578 0.05606 0.0
C917 C 0.2579 0.51927 0.06157 0.0
H918 H 0.19353 0.555 0.03472 0.0
H919 H 0.20812 0.51586 0.06979 0.0
S920 S 0.32596 0.54955 0.02002 0.0
N921 N 0.29577 0.56834 0.00665 0.0
N922 N 0.31149 0.52585 0.04493 0.0
C923 C 0.28055 0.53237 0.04288 0.0
C924 C 0.27199 0.55529 0.02213 0.0
C925 C 0.72058 0.45356 0.05646 0.0
C926 C 0.74205 0.46869 0.07495 0.0
C927 C 0.73083 0.43352 0.03435 0.0
C928 C 0.76286 0.42767 0.03051 0.0
H929 H 0.69578 0.4548 0.06114 0.0
H930 H 0.7135 0.41991 0.023 0.0
S931 S 0.8283 0.46839 0.06653 0.0
N932 N 0.79664 0.48205 0.08273 0.0
N933 N 0.8158 0.44373 0.0416 0.0
C934 C 0.7844 0.44616 0.04543 0.0
C935 C 0.77399 0.46694 0.06761 0.0
C936 C 0.96136 0.22904 0.23854 0.0
C937 C 0.98082 0.20729 0.25154 0.0
C938 C 0.97357 0.25059 0.21889 0.0
C939 C 0.00543 0.25061 0.21137 0.0
H940 H 0.93724 0.23104 0.24563 0.0
H941 H 0.95848 0.2685 0.21111 0.0
S942 S 0.06512 0.19626 0.23716 0.0
N943 N 0.03263 0.18549 0.25408 0.0
N944 N 0.05554 0.2255 0.21622 0.0
C945 C 0.02447 0.22733 0.22214 0.0
C946 C 0.01215 0.20576 0.24262 0.0
C947 C 0.75773 0.97598 0.21612 0.0
C948 C 0.75443 0.99035 0.24413 0.0
C949 C 0.7355 0.97984 0.19335 0.0
C950 C 0.7092 -0.00186 0.19789 0.0
H951 H 0.7765 0.96011 0.21234 0.0
H952 H 0.73799 0.96704 0.1728 0.0
S953 S 0.6935 0.04617 0.26418 0.0
N954 N 0.72567 0.02769 0.2728 0.0
N955 N 0.68371 0.03456 0.2303 0.0
C956 C 0.70709 0.01467 0.22466 0.0
C957 C 0.72978 0.01089 0.24771 0.0
C958 C 0.00369 0.71264 0.24517 0.0
C959 C 0.99491 0.72027 0.21574 0.0
C960 C 0.01228 0.73457 0.26583 0.0
C961 C 0.01304 0.76509 0.25789 0.0
H962 H 0.0031 0.68953 0.25277 0.0
H963 H 0.01848 0.72741 0.28831 0.0
S964 S 0.99374 0.79705 0.18334 0.0
N965 N 0.98818 0.76053 0.17932 0.0
N966 N 0.0054 0.80201 0.21836 0.0
C967 C 0.00529 0.77318 0.22833 0.0
C968 C 0.99589 0.75071 0.20722 0.0
C969 C 0.27645 0.00742 0.26032 0.0
C970 C 0.24536 0.01618 0.25512 0.0
C971 C 0.29798 0.00523 0.23677 0.0
C972 C 0.28935 0.01163 0.20696 0.0
H973 H 0.28467 0.00313 0.2829 0.0
H974 H 0.32176 -0.00103 0.2422 0.0
S975 S 0.21 0.03337 0.18098 0.0
N976 N 0.20644 0.02963 0.21769 0.0
N977 N 0.24682 0.02556 0.17336 0.0
C978 C 0.25795 0.01929 0.20125 0.0
C979 C 0.236 0.02156 0.22533 0.0
C980 C 0.03029 0.76041 0.75903 0.0
C981 C 0.01088 0.75059 0.78243 0.0
C982 C 0.01877 0.77933 0.73658 0.0
C983 C 0.98761 0.78909 0.73709 0.0
H984 H 0.05377 0.75159 0.75683 0.0
H985 H 0.03383 0.78503 0.71787 0.0
S986 S 0.92838 0.77156 0.79516 0.0
N987 N 0.95993 0.75319 0.80607 0.0
N988 N 0.93829 0.78961 0.76414 0.0
C989 C 0.96872 0.78134 0.76168 0.0
C990 C 0.98036 0.76169 0.78432 0.0
C991 C 0.24039 0.965 0.76291 0.0
C992 C 0.25066 0.97053 0.73344 0.0
C993 C 0.26062 0.96824 0.78744 0.0
C994 C 0.29199 0.97694 0.78343 0.0
H995 H 0.21665 0.9577 0.76709 0.0
H996 H 0.25166 0.96327 0.80964 0.0
S997 S 0.33033 0.9946 0.71058 0.0
N998 N 0.29424 0.98541 0.70158 0.0
N999 N 0.33203 0.99191 0.74747 0.0
C1000 C 0.30236 0.98314 0.75403 0.0
C1001 C 0.28177 0.97985 0.72911 0.0
C1002 C 0.03116 0.23077 0.76316 0.0
C1003 C 0.01147 0.21674 0.74221 0.0
C1004 C 0.0193 0.25215 0.78323 0.0
C1005 C 0.98736 0.25919 0.78342 0.0
H1006 H 0.05613 0.22691 0.76249 0.0
H1007 H 0.03537 0.26439 0.79749 0.0
S1008 S 0.92593 0.22613 0.73524 0.0
N1009 N 0.95852 0.20962 0.7242 0.0
N1010 N 0.93599 0.2491 0.76272 0.0
C1011 C 0.96719 0.24368 0.76412 0.0
C1012 C 0.97934 0.22253 0.74323 0.0
C1013 C 0.72848 0.00594 0.74052 0.0
C1014 C 0.7584 0.01796 0.7455 0.0
C1015 C 0.70679 0.00342 0.76381 0.0
C1016 C 0.71406 0.01271 0.79318 0.0
H1017 H 0.72105 -0.00036 0.71816 0.0
H1018 H 0.68376 0.99491 0.75842 0.0
S1019 S 0.7906 0.04224 0.81898 0.0
N1020 N 0.7953 0.03662 0.78262 0.0
N1021 N 0.75444 0.03184 0.82657 0.0
C1022 C 0.7446 0.02294 0.79897 0.0
C1023 C 0.76677 0.02557 0.7751 0.0
C1024 C 0.23325 0.23559 0.97913 0.0
C1025 C 0.24334 0.26452 0.98742 0.0
C1026 C 0.25336 0.2108 0.98071 0.0
C1027 C 0.28441 0.21401 0.99053 0.0
H1028 H 0.21001 0.23216 0.97017 0.0
H1029 H 0.24483 0.18924 0.97298 0.0
S1030 S 0.32112 0.28411 0.0187 0.0
N1031 N 0.28568 0.29428 0.0085 0.0
N1032 N 0.32324 0.24777 0.01181 0.0
C1033 C 0.29421 0.24244 0.00063 0.0
C1034 C 0.27374 0.26765 -0.00096 0.0
C1035 C 0.23607 0.76018 0.01836 0.0
C1036 C 0.2445 0.73272 0.00482 0.0
C1037 C 0.25668 0.78466 0.01884 0.0
C1038 C 0.28652 0.78257 0.00586 0.0
H1039 H 0.21395 0.76243 0.02994 0.0
H1040 H 0.24968 0.80488 0.03059 0.0
S1041 S 0.31798 0.71782 0.96298 0.0
N1042 N 0.28344 0.70651 0.9749 0.0
N1043 N 0.32194 0.7524 0.97566 0.0
C1044 C 0.29443 0.75605 0.9905 0.0
C1045 C 0.27347 0.73118 0.98999 0.0
C1046 C 0.72599 0.26857 0.00264 0.0
C1047 C 0.75619 0.26294 0.01374 0.0
C1048 C 0.70376 0.24563 0.00045 0.0
C1049 C 0.71077 0.21599 0.00914 0.0
H1050 H 0.71887 0.29116 -0.00325 0.0
H1051 H 0.68061 0.25147 0.99258 0.0
S1052 S 0.78768 0.18869 0.0366 0.0
N1053 N 0.79283 0.22503 0.03119 0.0
N1054 N 0.75114 0.18182 0.02706 0.0
C1055 C 0.74148 0.20968 0.0187 0.0
C1056 C 0.76414 0.23314 0.02099 0.0
C1057 C 0.75383 0.77179 0.97886 0.0
C1058 C 0.74462 0.74203 0.98477 0.0
C1059 C 0.7327 0.79567 0.98152 0.0
C1060 C 0.70146 0.79073 0.99009 0.0
H1061 H 0.77725 0.77664 0.97103 0.0
H1062 H 0.74073 0.818 0.97571 0.0
S1063 S 0.66639 0.7173 0.01109 0.0
N1064 N 0.70267 0.70923 0.0017 0.0
N1065 N 0.66315 0.75398 0.00709 0.0
C1066 C 0.69242 0.76126 -0.00232 0.0
C1067 C 0.71394 0.73696 0.99496 0.0
C1068 C 0.49635 0.75731 0.77051 0.0
C1069 C 0.48935 0.72765 0.76212 0.0
C1070 C 0.5076 0.77801 0.74977 0.0
C1071 C 0.51267 0.77003 0.71965 0.0
H1072 H 0.49275 0.76495 0.79335 0.0
H1073 H 0.51267 0.80049 0.7577 0.0
S1074 S 0.49837 0.69511 0.68595 0.0
N1075 N 0.48823 0.69109 0.72154 0.0
N1076 N 0.51006 0.7303 0.68224 0.0
C1077 C 0.50605 0.74038 0.71076 0.0
C1078 C 0.49414 0.71916 0.73204 0.0
C1079 C 0.25379 0.47384 0.72829 0.0
C1080 C 0.24585 0.4802 0.75827 0.0
C1081 C 0.23189 0.47689 0.70512 0.0
C1082 C 0.20107 0.48627 0.711 0.0
H1083 H 0.27687 0.46562 0.72269 0.0
H1084 H 0.23902 0.47094 0.68256 0.0
S1085 S 0.16901 0.50797 0.78546 0.0
N1086 N 0.20535 0.49785 0.79237 0.0
N1087 N 0.16441 0.50394 0.74892 0.0
C1088 C 0.19319 0.49392 0.74074 0.0
C1089 C 0.21551 0.49083 0.76433 0.0
C1090 C 0.53397 0.27618 0.71665 0.0
C1091 C 0.51451 0.29504 0.73359 0.0
C1092 C 0.52117 0.25475 0.69722 0.0
C1093 C 0.48869 0.25211 0.69394 0.0
H1094 H 0.55893 0.27598 0.72061 0.0
H1095 H 0.53657 0.23858 0.68666 0.0
S1096 S 0.42827 0.2987 0.7308 0.0
N1097 N 0.46169 0.31166 0.74406 0.0
N1098 N 0.43756 0.27174 0.70691 0.0
C1099 C 0.46923 0.27269 0.70864 0.0
C1100 C 0.48222 0.29416 0.72874 0.0
C1101 C 0.76704 0.52446 0.70251 0.0
C1102 C 0.79809 0.51568 0.70808 0.0
C1103 C 0.74538 0.52727 0.72596 0.0
C1104 C 0.75385 0.52124 0.75588 0.0
H1105 H 0.75958 0.53025 0.68 0.0
H1106 H 0.7221 0.53514 0.72064 0.0
S1107 S 0.83148 0.49468 0.78214 0.0
N1108 N 0.83552 0.49865 0.74553 0.0
N1109 N 0.79508 0.50429 0.78951 0.0
C1110 C 0.78443 0.51107 0.76158 0.0
C1111 C 0.80648 0.50824 0.73772 0.0
C1112 C 0.49791 0.25228 0.28316 0.0
C1113 C 0.50199 0.22145 0.2773 0.0
C1114 C 0.48991 0.27237 0.26003 0.0
C1115 C 0.48649 0.26229 0.23029 0.0
H1116 H 0.50103 0.26094 0.30569 0.0
H1117 H 0.48696 0.29593 0.26536 0.0
S1118 S 0.49416 0.18373 0.20318 0.0
N1119 N 0.50158 0.18192 0.23944 0.0
N1120 N 0.4867 0.21941 0.19641 0.0
C1121 C 0.49023 0.23151 0.22426 0.0
C1122 C 0.49793 0.21115 0.24767 0.0
C1123 C 0.79885 0.48639 0.25849 0.0
C1124 C 0.79147 0.47619 0.28756 0.0
C1125 C 0.77678 0.48585 0.23541 0.0
C1126 C 0.7464 0.47487 0.2403 0.0
H1127 H 0.82212 0.49439 0.25323 0.0
H1128 H 0.78416 0.49295 0.21326 0.0
S1129 S 0.71413 0.44819 0.31297 0.0
N1130 N 0.75077 0.45687 0.32054 0.0
N1131 N 0.70924 0.4557 0.27697 0.0
C1132 C 0.73813 0.46599 0.26958 0.0
C1133 C 0.76065 0.46667 0.29324 0.0
C1134 C 0.4587 0.69947 0.24571 0.0
C1135 C 0.49041 0.69185 0.2483 0.0
C1136 C 0.44505 0.72008 0.26542 0.0
C1137 C 0.46277 0.7335 0.28821 0.0
H1138 H 0.44513 0.6915 0.2268 0.0
H1139 H 0.42144 0.72765 0.26102 0.0
S1140 S 0.54533 0.718 0.30692 0.0
N1141 N 0.53808 0.69648 0.2775 0.0
N1142 N 0.51227 0.73556 0.31453 0.0
C1143 C 0.49348 0.72381 0.29295 0.0
C1144 C 0.50737 0.70266 0.27299 0.0
C1145 C 0.26781 0.50874 0.25576 0.0
C1146 C 0.25606 0.50169 0.2271 0.0
C1147 C 0.24824 0.50969 0.28097 0.0
C1148 C 0.21607 0.50369 0.27856 0.0
H1149 H 0.29216 0.51466 0.25867 0.0
H1150 H 0.25834 0.51612 0.30231 0.0
S1151 S 0.17413 0.48077 0.20921 0.0
N1152 N 0.21046 0.48639 0.19829 0.0
N1153 N 0.17386 0.4877 0.24558 0.0
C1154 C 0.20429 0.49507 0.25032 0.0
C1155 C 0.22423 0.49414 0.22465 0.0
C1156 C 0.79181 0.7269 0.48106 0.0
C1157 C 0.78627 0.697 0.4724 0.0
C1158 C 0.76865 0.74879 0.47845 0.0
C1159 C 0.73891 0.74186 0.46693 0.0
H1160 H 0.81451 0.73375 0.48932 0.0
H1161 H 0.77475 0.77163 0.48434 0.0
S1162 S 0.71126 0.66632 0.44381 0.0
N1163 N 0.74791 0.66103 0.45399 0.0
N1164 N 0.70431 0.70242 0.44899 0.0
C1165 C 0.7324 0.71175 0.45967 0.0
C1166 C 0.75608 0.68929 0.46242 0.0
C1167 C 0.7841 0.2402 0.51451 0.0
C1168 C 0.75315 0.2471 0.52259 0.0
C1169 C 0.80704 0.26248 0.51281 0.0
C1170 C 0.80007 0.29273 0.51903 0.0
H1171 H 0.79111 0.21721 0.51038 0.0
H1172 H 0.83057 0.25571 0.50701 0.0
S1173 S 0.7219 0.32308 0.53906 0.0
N1174 N 0.71622 0.28661 0.53526 0.0
N1175 N 0.7593 0.32866 0.53203 0.0
C1176 C 0.76888 0.30018 0.52602 0.0
C1177 C 0.74546 0.27736 0.5278 0.0
C1178 C 0.26119 0.74081 0.52741 0.0
C1179 C 0.25032 0.77023 0.52269 0.0
C1180 C 0.24125 0.71602 0.52427 0.0
C1181 C 0.2096 0.71972 0.51649 0.0
H1182 H 0.28515 0.73688 0.53411 0.0
H1183 H 0.25065 0.69386 0.5286 0.0
S1184 S 0.16974 0.79235 0.50115 0.0
N1185 N 0.20596 0.8017 0.50943 0.0
N1186 N 0.16865 0.7554 0.50323 0.0
C1187 C 0.19865 0.74909 0.51101 0.0
C1188 C 0.21896 0.77425 0.51416 0.0
C1189 C 0.19496 0.25218 0.49898 0.0
C1190 C 0.20618 0.28166 0.495 0.0
C1191 C 0.21518 0.22743 0.49847 0.0
C1192 C 0.24748 0.23109 0.49385 0.0
H1193 H 0.17023 0.24797 0.50171 0.0
H1194 H 0.20511 0.20518 0.50033 0.0
S1195 S 0.28956 0.3036 0.48637 0.0
N1196 N 0.25246 0.31313 0.48935 0.0
N1197 N 0.29023 0.2666 0.48834 0.0
C1198 C 0.25932 0.26047 0.49171 0.0
C1199 C 0.23876 0.28573 0.49229 0.0
C1200 C 0.09366 0.3283 0.06707 0.0
C1201 C 0.09625 0.33977 0.0964 0.0
C1202 C 0.11814 0.33114 0.0464 0.0
C1203 C 0.14636 0.34529 0.05429 0.0
H1204 H 0.07285 0.31636 0.06013 0.0
H1205 H 0.11528 0.32111 0.02441 0.0
S1206 S 0.16391 0.38211 0.12712 0.0
N1207 N 0.12847 0.36816 0.13145 0.0
N1208 N 0.17453 0.37316 0.09263 0.0
C1209 C 0.1488 0.35804 0.08309 0.0
C1210 C 0.12374 0.3554 0.1041 0.0
C1211 C 0.59956 0.10573 0.11865 0.0
C1212 C 0.62867 0.09139 0.12173 0.0
C1213 C 0.59629 0.13098 0.09996 0.0
C1214 C 0.62207 0.1425 0.08416 0.0
H1215 H 0.57872 0.09556 0.12801 0.0
H1216 H 0.57302 0.13933 0.09529 0.0
S1217 S 0.70432 0.11812 0.09131 0.0
N1218 N 0.68451 0.09419 0.11234 0.0
N1219 N 0.67828 0.14181 0.07766 0.0
C1220 C 0.65176 0.1309 0.0904 0.0
C1221 C 0.6551 0.10522 0.10914 0.0
C1222 C 0.90008 0.67724 0.06103 0.0
C1223 C 0.89945 0.66026 0.08766 0.0
C1224 C 0.87434 0.67793 0.04166 0.0
C1225 C 0.84678 0.66207 0.04841 0.0
H1226 H 0.92051 0.69035 0.05518 0.0
H1227 H 0.87582 0.69162 0.02159 0.0
S1228 S 0.83358 0.61292 0.11452 0.0
N1229 N 0.86929 0.62608 0.11912 0.0
N1230 N 0.82085 0.62778 0.08284 0.0
C1231 C 0.846 0.64454 0.07465 0.0
C1232 C 0.87236 0.64349 0.0942 0.0
C1233 C 0.39178 0.87478 0.10394 0.0
C1234 C 0.36663 0.86338 0.08722 0.0
C1235 C 0.38841 0.90112 0.12097 0.0
C1236 C 0.35983 0.91677 0.12144 0.0
H1237 H 0.41491 0.86527 0.10127 0.0
H1238 H 0.40902 0.9108 0.13123 0.0
S1239 S 0.28513 0.89097 0.08818 0.0
N1240 N 0.31102 0.8657 0.07734 0.0
N1241 N 0.30456 0.91537 0.10896 0.0
C1242 C 0.33367 0.90326 0.10799 0.0
C1243 C 0.33712 0.87645 0.09093 0.0
C1244 C 0.10479 0.65597 0.91048 0.0
C1245 C 0.11245 0.64604 0.88138 0.0
C1246 C 0.12708 0.65638 0.93344 0.0
C1247 C 0.15796 0.64694 0.92824 0.0
H1248 H 0.08164 0.66445 0.91543 0.0
H1249 H 0.1202 0.66508 0.95518 0.0
S1250 S 0.18889 0.61499 0.85711 0.0
N1251 N 0.15231 0.62372 0.84943 0.0
N1252 N 0.19423 0.62453 0.89254 0.0
C1253 C 0.16554 0.6355 0.89966 0.0
C1254 C 0.14278 0.63501 0.87627 0.0
C1255 C 0.38033 0.09131 0.87474 0.0
C1256 C 0.35231 0.07471 0.87496 0.0
C1257 C 0.38358 0.11721 0.89241 0.0
C1258 C 0.35888 0.12719 0.9106 0.0
H1259 H 0.4008 0.08272 0.8633 0.0
H1260 H 0.40644 0.12748 0.89426 0.0
S1261 S 0.27824 0.09728 0.91181 0.0
N1262 N 0.29755 0.0741 0.88958 0.0
N1263 N 0.30379 0.12292 0.92251 0.0
C1264 C 0.32967 0.11331 0.9077 0.0
C1265 C 0.32632 0.08698 0.88987 0.0
C1266 C 0.88283 0.32791 0.9526 0.0
C1267 C 0.85476 0.34286 0.94587 0.0
C1268 C 0.90755 0.32717 0.93202 0.0
C1269 C 0.90535 0.3417 0.90403 0.0
H1270 H 0.88543 0.31581 0.97356 0.0
H1271 H 0.92829 0.31457 0.9379 0.0
S1272 S 0.83795 0.38671 0.87687 0.0
N1273 N 0.82694 0.37435 0.91018 0.0
N1274 N 0.87348 0.37333 0.87156 0.0
C1275 C 0.87792 0.35796 0.89759 0.0
C1276 C 0.85259 0.35838 0.91845 0.0
C1277 C 0.65164 0.88414 0.9108 0.0
C1278 C 0.62187 0.87121 0.91337 0.0
C1279 C 0.65679 0.90874 0.89194 0.0
C1280 C 0.63228 0.92132 0.87508 0.0
H1281 H 0.67041 0.87685 0.92536 0.0
H1282 H 0.67945 0.91956 0.89259 0.0
S1283 S 0.55168 0.89133 0.86925 0.0
N1284 N 0.56896 0.86922 0.89398 0.0
N1285 N 0.57852 0.91564 0.85825 0.0
C1286 C 0.60348 0.90607 0.87446 0.0
C1287 C 0.59828 0.88088 0.89376 0.0
C1288 C 0.10351 0.10455 0.34041 0.0
C1289 C 0.09641 0.07585 0.32904 0.0
C1290 C 0.08105 0.12733 0.34125 0.0
C1291 C 0.05036 0.12232 0.33121 0.0
H1292 H 0.12696 0.10995 0.34773 0.0
H1293 H 0.08802 0.14924 0.34943 0.0
S1294 S 0.01883 0.0503 0.30211 0.0
N1295 N 0.0559 0.04304 0.30934 0.0
N1296 N 0.01343 0.08585 0.31134 0.0
C1297 C 0.04244 0.09331 0.32117 0.0
C1298 C 0.06552 0.07012 0.31993 0.0
C1299 C 0.90291 0.05931 0.3205 0.0
C1300 C 0.9003 0.08707 0.33535 0.0
C1301 C 0.8783 0.03864 0.32055 0.0
C1302 C 0.84993 0.04502 0.33518 0.0
H1303 H 0.9238 0.05379 0.30793 0.0
H1304 H 0.88114 0.01806 0.30788 0.0
S1305 S 0.83242 0.11295 0.38045 0.0
N1306 N 0.86805 0.11867 0.3675 0.0
N1307 N 0.82169 0.07985 0.36733 0.0
C1308 C 0.84756 0.07199 0.35146 0.0
C1309 C 0.87278 0.09297 0.35167 0.0
C1310 C 0.88581 0.87892 0.32729 0.0
C1311 C 0.89355 0.90827 0.31822 0.0
C1312 C 0.9087 0.8567 0.33041 0.0
C1313 C 0.94043 0.86287 0.32484 0.0
H1314 H 0.86172 0.87275 0.33147 0.0
H1315 H 0.90126 0.8344 0.33701 0.0
S1316 S 0.97337 0.9369 0.30257 0.0
N1317 N 0.93541 0.94282 0.30509 0.0
N1318 N 0.97855 0.90117 0.31109 0.0
C1319 C 0.94866 0.89243 0.31659 0.0
C1320 C 0.92523 0.91506 0.31322 0.0
C1321 C 0.16882 0.90602 0.32849 0.0
C1322 C 0.15781 0.93578 0.33005 0.0
C1323 C 0.14829 0.88161 0.32836 0.0
C1324 C 0.11578 0.88577 0.32989 0.0
H1325 H 0.1936 0.90136 0.32707 0.0
H1326 H 0.15815 0.85926 0.32692 0.0
S1327 S 0.07459 0.95902 0.33503 0.0
N1328 N 0.11197 0.96798 0.33376 0.0
N1329 N 0.07336 0.922 0.33344 0.0
C1330 C 0.10429 0.91535 0.3318 0.0
C1331 C 0.12528 0.94034 0.33187 0.0
C1332 C 0.08272 0.86198 0.64199 0.0
C1333 C 0.05284 0.86784 0.65382 0.0
C1334 C 0.10688 0.88307 0.64425 0.0
C1335 C 0.10229 0.91067 0.65894 0.0
H1336 H 0.08776 0.84055 0.63152 0.0
H1337 H 0.12968 0.87706 0.6356 0.0
S1338 S 0.02774 0.93824 0.69134 0.0
N1339 N 0.01939 0.90431 0.67872 0.0
N1340 N 0.06496 0.9438 0.68338 0.0
C1341 C 0.07218 0.91744 0.66967 0.0
C1342 C 0.0474 0.89609 0.66696 0.0
C1343 C 0.1521 0.0749 0.65684 0.0
C1344 C 0.14957 0.0464 0.67014 0.0
C1345 C 0.12767 0.09563 0.65862 0.0
C1346 C 0.0999 0.08885 0.67416 0.0
H1347 H 0.17308 0.08125 0.64479 0.0
H1348 H 0.13095 0.11739 0.64819 0.0
S1349 S 0.08161 0.01718 0.71292 0.0
N1350 N 0.11709 0.01229 0.69927 0.0
N1351 N 0.07111 0.05137 0.70275 0.0
C1352 C 0.09694 0.06033 0.6874 0.0
C1353 C 0.12178 0.03907 0.68534 0.0
C1354 C 0.954 0.10408 0.67813 0.0
C1355 C 0.94981 0.13028 0.66096 0.0
C1356 C 0.93014 0.08262 0.68063 0.0
C1357 C 0.90133 0.08644 0.66584 0.0
H1358 H 0.97528 0.10076 0.69084 0.0
H1359 H 0.93403 0.06339 0.69505 0.0
S1360 S 0.88078 0.14909 0.6143 0.0
N1361 N 0.91616 0.15739 0.6264 0.0
N1362 N 0.87151 0.11704 0.63067 0.0
C1363 C 0.89771 0.11167 0.64704 0.0
C1364 C 0.92188 0.1336 0.64474 0.0
C1365 C 0.90417 0.93578 0.67318 0.0
C1366 C 0.90064 0.90787 0.65882 0.0
C1367 C 0.8798 0.95669 0.67382 0.0
C1368 C 0.85075 0.95037 0.66047 0.0
H1369 H 0.92575 0.94137 0.68457 0.0
H1370 H 0.8835 0.9776 0.68573 0.0
S1371 S 0.83018 0.88156 0.61785 0.0
N1372 N 0.86638 0.87578 0.62916 0.0
N1373 N 0.82047 0.91504 0.63071 0.0
C1374 C 0.84719 0.92298 0.64515 0.0
C1375 C 0.87217 0.90178 0.64417 0.0
C1376 C 0.39623 0.10078 0.11391 0.0
C1377 C 0.37197 0.08403 0.12698 0.0
C1378 C 0.39037 0.11979 0.08937 0.0
C1379 C 0.36011 0.1223 0.07724 0.0
H1380 H 0.42021 0.09689 0.12064 0.0
H1381 H 0.41008 0.1301 0.07809 0.0
S1382 S 0.2878 0.08905 0.1089 0.0
N1383 N 0.31613 0.07567 0.13019 0.0
N1384 N 0.30494 0.11116 0.08406 0.0
C1385 C 0.33527 0.10855 0.09267 0.0
C1386 C 0.34127 0.08937 0.11757 0.0
C1387 C 0.39768 0.89291 0.8832 0.0
C1388 C 0.37249 0.9086 0.87049 0.0
C1389 C 0.39312 0.87407 0.90812 0.0
C1390 C 0.36327 0.87072 0.92096 0.0
H1391 H 0.42134 0.8976 0.87593 0.0
H1392 H 0.41344 0.86465 0.91913 0.0
S1393 S 0.28898 0.90049 0.89038 0.0
N1394 N 0.31625 0.91456 0.86821 0.0
N1395 N 0.30758 0.87962 0.91529 0.0
C1396 C 0.33756 0.88326 0.90594 0.0
C1397 C 0.34222 0.90218 0.88058 0.0
C1398 C 0.05079 0.32812 0.89464 0.0
C1399 C 0.05726 0.34154 0.86674 0.0
C1400 C 0.07344 0.32717 0.91739 0.0
C1401 C 0.10323 0.33999 0.91325 0.0
H1402 H 0.02853 0.31719 0.89851 0.0
H1403 H 0.06773 0.31568 0.93813 0.0
S1404 S 0.13021 0.38116 0.84537 0.0
N1405 N 0.09447 0.37013 0.83702 0.0
N1406 N 0.13684 0.36882 0.87972 0.0
C1407 C 0.1093 0.35494 0.88595 0.0
C1408 C 0.08638 0.35555 0.86272 0.0
C1409 C 0.6611 0.10789 0.90872 0.0
C1410 C 0.63657 0.12645 0.91862 0.0
C1411 C 0.65736 0.08896 0.88398 0.0
C1412 C 0.62904 0.08797 0.86819 0.0
H1413 H 0.68255 0.10627 0.92151 0.0
H1414 H 0.67596 0.07342 0.87854 0.0
S1415 S 0.55999 0.13638 0.8809 0.0
N1416 N 0.58479 0.14619 0.90757 0.0
N1417 N 0.57789 0.11027 0.86092 0.0
C1418 C 0.60576 0.10894 0.87541 0.0
C1419 C 0.60951 0.12833 0.90074 0.0
C1420 C 0.9061 0.66366 0.86007 0.0
C1421 C 0.93704 0.67222 0.86641 0.0
C1422 C 0.88299 0.66413 0.88228 0.0
C1423 C 0.88972 0.67359 0.91171 0.0
H1424 H 0.89951 0.65675 0.83763 0.0
H1425 H 0.85944 0.65785 0.87601 0.0
S1426 S 0.96738 0.69664 0.94063 0.0
N1427 N 0.97351 0.68909 0.90481 0.0
N1428 N 0.92989 0.69027 0.94651 0.0
C1429 C 0.9207 0.68147 0.91866 0.0
C1430 C 0.94439 0.68067 0.89606 0.0
C1431 C 0.65019 0.92289 0.11346 0.0
C1432 C 0.62134 0.92453 0.12825 0.0
C1433 C 0.65461 0.9033 0.08934 0.0
C1434 C 0.63016 0.88488 0.07897 0.0
H1435 H 0.66878 0.93837 0.11916 0.0
H1436 H 0.67657 0.90439 0.07727 0.0
S1437 S 0.55209 0.87675 0.11438 0.0
N1438 N 0.56964 0.90306 0.13434 0.0
N1439 N 0.57768 0.86604 0.08875 0.0
C1440 C 0.60241 0.88374 0.09597 0.0
C1441 C 0.59803 0.90372 0.12073 0.0
C1442 C 0.08529 0.63514 0.11807 0.0
C1443 C 0.05497 0.6469 0.11507 0.0
C1444 C 0.10729 0.63778 0.09501 0.0
C1445 C 0.10011 0.65261 0.06795 0.0
H1446 H 0.09241 0.62423 0.13871 0.0
H1447 H 0.13048 0.62894 0.09898 0.0
S1448 S 0.02313 0.68517 0.04759 0.0
N1449 N 0.01814 0.67217 0.08199 0.0
N1450 N 0.05967 0.67738 0.03861 0.0
C1451 C 0.06946 0.66339 0.06405 0.0
C1452 C 0.04686 0.66045 0.08756 0.0
C1453 C 0.95223 0.32683 0.10464 0.0
C1454 C 0.94581 0.34069 0.13233 0.0
C1455 C 0.92973 0.32597 0.08175 0.0
C1456 C 0.90011 0.33923 0.08557 0.0
H1457 H 0.97419 0.31527 0.10113 0.0
H1458 H 0.93532 0.31396 0.0613 0.0
S1459 S 0.87381 0.38242 0.15241 0.0
N1460 N 0.90918 0.37068 0.16124 0.0
N1461 N 0.86709 0.36959 0.11825 0.0
C1462 C 0.89428 0.35492 0.11249 0.0
C1463 C 0.91706 0.35548 0.13586 0.0
C1464 C 0.6144 0.80907 0.53154 0.0
C1465 C 0.64269 0.82471 0.53516 0.0
C1466 C 0.59097 0.81033 0.55352 0.0
C1467 C 0.59474 0.82768 0.57969 0.0
H1468 H 0.61071 0.79496 0.51205 0.0
H1469 H 0.56997 0.79719 0.55016 0.0
S1470 S 0.66338 0.87538 0.5982 0.0
N1471 N 0.67239 0.8597 0.56577 0.0
N1472 N 0.62837 0.86253 0.60685 0.0
C1473 C 0.62243 0.84453 0.58287 0.0
C1474 C 0.64641 0.84289 0.56069 0.0
C1475 C 0.15732 0.59144 0.60691 0.0
C1476 C 0.13103 0.58016 0.62218 0.0
C1477 C 0.15494 0.61642 0.58805 0.0
C1478 C 0.12626 0.63105 0.58382 0.0
H1479 H 0.17933 0.57946 0.60761 0.0
H1480 H 0.17516 0.62288 0.57494 0.0
S1481 S 0.05214 0.61455 0.62347 0.0
N1482 N 0.07668 0.58869 0.63575 0.0
N1483 N 0.07233 0.63582 0.60004 0.0
C1484 C 0.10082 0.62251 0.60183 0.0
C1485 C 0.10319 0.59694 0.62114 0.0
C1486 C 0.3659 0.15077 0.55928 0.0
C1487 C 0.33489 0.14207 0.56535 0.0
C1488 C 0.38896 0.14969 0.58154 0.0
C1489 C 0.382 0.13987 0.61082 0.0
H1490 H 0.37231 0.15951 0.53742 0.0
H1491 H 0.41209 0.15786 0.576 0.0
S1492 S 0.30573 0.11004 0.63713 0.0
N1493 N 0.29938 0.12002 0.60196 0.0
N1494 N 0.34274 0.11799 0.64376 0.0
C1495 C 0.3516 0.12935 0.61672 0.0
C1496 C 0.32806 0.13048 0.59404 0.0
C1497 C 0.85683 0.38379 0.59061 0.0
C1498 C 0.8867 0.37101 0.58861 0.0
C1499 C 0.8516 0.40952 0.60784 0.0
C1500 C 0.87615 0.42348 0.62354 0.0
H1501 H 0.83797 0.37532 0.5768 0.0
H1502 H 0.82874 0.4199 0.60684 0.0
S1503 S 0.9573 0.39494 0.63015 0.0
N1504 N 0.93994 0.37104 0.6072 0.0
N1505 N 0.93028 0.41959 0.63988 0.0
C1506 C 0.90522 0.40869 0.62468 0.0
C1507 C 0.91048 0.38234 0.60706 0.0
C1508 C 0.64887 0.16794 0.39077 0.0
C1509 C 0.61677 0.165 0.39688 0.0
C1510 C 0.67082 0.17004 0.41395 0.0
C1511 C 0.66161 0.16943 0.44427 0.0
H1512 H 0.65729 0.16868 0.36784 0.0
H1513 H 0.69521 0.17235 0.40792 0.0
S1514 S 0.58024 0.16153 0.47249 0.0
N1515 N 0.57679 0.16121 0.43559 0.0
N1516 N 0.61794 0.16517 0.47918 0.0
C1517 C 0.62951 0.16636 0.45076 0.0
C1518 C 0.60715 0.16412 0.4271 0.0
C1519 C 0.84296 0.58179 0.38301 0.0
C1520 C 0.86822 0.56969 0.36681 0.0
C1521 C 0.84656 0.60767 0.40038 0.0
C1522 C 0.87543 0.62245 0.40198 0.0
H1523 H 0.82097 0.5698 0.38432 0.0
H1524 H 0.82736 0.6147 0.41458 0.0
S1525 S 0.94688 0.60377 0.35905 0.0
N1526 N 0.92161 0.57736 0.3496 0.0
N1527 N 0.9282 0.62629 0.38245 0.0
C1528 C 0.89966 0.61297 0.383 0.0
C1529 C 0.89607 0.58644 0.36527 0.0
C1530 C 0.34573 0.84856 0.41973 0.0
C1531 C 0.35003 0.83945 0.44968 0.0
C1532 C 0.36944 0.84519 0.39842 0.0
C1533 C 0.39831 0.83219 0.40609 0.0
H1534 H 0.32364 0.85793 0.41248 0.0
H1535 H 0.36453 0.85172 0.37547 0.0
S1536 S 0.42265 0.80715 0.482 0.0
N1537 N 0.38638 0.81889 0.4864 0.0
N1538 N 0.43084 0.81227 0.44613 0.0
C1539 C 0.4035 0.82416 0.43618 0.0
C1540 C 0.37941 0.82788 0.45803 0.0
C1541 C 0.17 0.40814 0.39456 0.0
C1542 C 0.14645 0.42004 0.37598 0.0
C1543 C 0.16432 0.38319 0.41281 0.0
C1544 C 0.13505 0.36904 0.41296 0.0
H1545 H 0.19225 0.4195 0.39683 0.0
H1546 H 0.18223 0.37634 0.42855 0.0
S1547 S 0.0679 0.38684 0.36367 0.0
N1548 N 0.09447 0.41233 0.35504 0.0
N1549 N 0.08401 0.36525 0.38955 0.0
C1550 C 0.11269 0.37813 0.39179 0.0
C1551 C 0.11836 0.40374 0.37319 0.0
C1552 C 0.57565 0.58683 0.81363 0.0
C1553 C 0.60466 0.59069 0.82808 0.0
C1554 C 0.55151 0.60789 0.81698 0.0
C1555 C 0.55558 0.63375 0.83465 0.0
H1556 H 0.57171 0.56775 0.79904 0.0
H1557 H 0.52997 0.60445 0.80469 0.0
S1558 S 0.62543 0.65285 0.8801 0.0
N1559 N 0.63483 0.62125 0.86299 0.0
N1560 N 0.58964 0.66078 0.86892 0.0
C1561 C 0.58388 0.63725 0.85027 0.0
C1562 C 0.60834 0.61574 0.8471 0.0
C1563 C 0.37562 0.59676 0.8378 0.0
C1564 C 0.40374 0.58939 0.82313 0.0
C1565 C 0.35074 0.57644 0.83914 0.0
C1566 C 0.35303 0.54771 0.82625 0.0
H1567 H 0.3724 0.61872 0.84779 0.0
H1568 H 0.32952 0.5834 0.85041 0.0
S1569 S 0.42217 0.51673 0.78643 0.0
N1570 N 0.43282 0.551 0.79621 0.0
N1571 N 0.38613 0.51261 0.79895 0.0
C1572 C 0.3813 0.53973 0.81212 0.0
C1573 C 0.40659 0.56061 0.81048 0.0
C1574 C 0.42262 0.41563 0.80617 0.0
C1575 C 0.39413 0.40921 0.82066 0.0
C1576 C 0.44749 0.39511 0.80661 0.0
C1577 C 0.44453 0.3672 0.8211 0.0
H1578 H 0.42559 0.43646 0.79391 0.0
H1579 H 0.46864 0.40059 0.79441 0.0
S1580 S 0.37598 0.34035 0.86444 0.0
N1581 N 0.36538 0.37365 0.85173 0.0
N1582 N 0.41186 0.33497 0.852 0.0
C1583 C 0.41667 0.36094 0.83659 0.0
C1584 C 0.39155 0.38198 0.83655 0.0
C1585 C 0.59796 0.44123 0.80748 0.0
C1586 C 0.59861 0.4128 0.82125 0.0
C1587 C 0.62283 0.4614 0.81069 0.0
C1588 C 0.64951 0.45376 0.82747 0.0
H1589 H 0.57839 0.44779 0.79355 0.0
H1590 H 0.62155 0.48273 0.79906 0.0
S1591 S 0.66182 0.38325 0.87025 0.0
N1592 N 0.62741 0.37891 0.85415 0.0
N1593 N 0.67423 0.41676 0.85978 0.0
C1594 C 0.65005 0.42588 0.84224 0.0
C1595 C 0.62456 0.40545 0.8393 0.0
C1596 C 0.58978 0.35643 0.14921 0.0
C1597 C 0.55918 0.36054 0.15995 0.0
C1598 C 0.61205 0.37936 0.1511 0.0
C1599 C 0.60481 0.40726 0.16421 0.0
H1600 H 0.59678 0.33519 0.13945 0.0
H1601 H 0.63544 0.37476 0.14302 0.0
S1602 S 0.52757 0.43027 0.19423 0.0
N1603 N 0.52233 0.39533 0.18289 0.0
N1604 N 0.56439 0.43832 0.18674 0.0
C1605 C 0.57408 0.41204 0.17433 0.0
C1606 C 0.55123 0.38875 0.17209 0.0
C1607 C 0.61901 0.53808 0.17549 0.0
C1608 C 0.64807 0.54722 0.16386 0.0
C1609 C 0.59363 0.55785 0.17667 0.0
C1610 C 0.59609 0.58749 0.16597 0.0
H1611 H 0.61596 0.51567 0.1845 0.0
H1612 H 0.57201 0.54986 0.18648 0.0
S1613 S 0.66635 0.62185 0.131 0.0
N1614 N 0.67737 0.58744 0.13983 0.0
N1615 N 0.62959 0.62456 0.14181 0.0
C1616 C 0.62469 0.59664 0.15325 0.0
C1617 C 0.65069 0.57655 0.15232 0.0
C1618 C 0.45042 0.58477 0.16644 0.0
C1619 C 0.44463 0.61166 0.15085 0.0
C1620 C 0.42891 0.56098 0.16566 0.0
C1621 C 0.40102 0.56313 0.14899 0.0
H1622 H 0.47072 0.58279 0.18083 0.0
H1623 H 0.43354 0.54138 0.17936 0.0
S1624 S 0.37828 0.6269 0.09967 0.0
N1625 N 0.41136 0.63774 0.11529 0.0
N1626 N 0.37127 0.59299 0.11307 0.0
C1627 C 0.39645 0.589 0.13123 0.0
C1628 C 0.41813 0.6133 0.1324 0.0
C1629 C 0.39277 0.40309 0.14916 0.0
C1630 C 0.38458 0.37477 0.1375 0.0
C1631 C 0.37105 0.42653 0.15053 0.0
C1632 C 0.3402 0.42262 0.14042 0.0
H1633 H 0.41594 0.40707 0.15805 0.0
H1634 H 0.37836 0.44763 0.16039 0.0
S1635 S 0.30787 0.35399 0.10457 0.0
N1636 N 0.34414 0.34496 0.11324 0.0
N1637 N 0.3033 0.389 0.11592 0.0
C1638 C 0.33202 0.39481 0.12755 0.0
C1639 C 0.35421 0.37093 0.12603 0.0
C1640 C 0.89955 0.60792 0.61031 0.0
C1641 C 0.87536 0.59049 0.6226 0.0
C1642 C 0.89487 0.62421 0.58369 0.0
C1643 C 0.86594 0.62321 0.56873 0.0
H1644 H 0.92297 0.60636 0.61937 0.0
H1645 H 0.91482 0.63498 0.57327 0.0
S1646 S 0.79325 0.5878 0.59691 0.0
N1647 N 0.82012 0.57853 0.62183 0.0
N1648 N 0.81128 0.6087 0.5716 0.0
C1649 C 0.84067 0.60912 0.5831 0.0
C1650 C 0.84542 0.5928 0.61018 0.0
C1651 C 0.85079 0.40196 0.38356 0.0
C1652 C 0.87911 0.40359 0.36778 0.0
C1653 C 0.8485 0.38559 0.41024 0.0
C1654 C 0.8745 0.37033 0.42206 0.0
H1655 H 0.83105 0.41548 0.37662 0.0
H1656 H 0.82693 0.38693 0.4229 0.0
S1657 S 0.95203 0.36265 0.38566 0.0
N1658 N 0.9321 0.38485 0.36293 0.0
N1659 N 0.92789 0.35374 0.41323 0.0
C1660 C 0.90174 0.36862 0.40444 0.0
C1661 C 0.90403 0.38539 0.37715 0.0
C1662 C 0.53717 0.80672 0.38365 0.0
C1663 C 0.54273 0.81563 0.35382 0.0
C1664 C 0.56146 0.80577 0.40476 0.0
C1665 C 0.59213 0.81416 0.39697 0.0
H1666 H 0.5141 0.79941 0.39052 0.0
H1667 H 0.55619 0.79799 0.42725 0.0
S1668 S 0.6182 0.84185 0.32229 0.0
N1669 N 0.58066 0.83475 0.31795 0.0
N1670 N 0.62618 0.83341 0.35755 0.0
C1671 C 0.59767 0.82434 0.36747 0.0
C1672 C 0.57302 0.82492 0.34592 0.0
C1673 C 0.17483 0.60676 0.41001 0.0
C1674 C 0.1501 0.62557 0.41901 0.0
C1675 C 0.17183 0.5877 0.38524 0.0
C1676 C 0.14416 0.58691 0.36839 0.0
H1677 H 0.19571 0.60486 0.4236 0.0
H1678 H 0.19042 0.57188 0.38068 0.0
S1679 S 0.07559 0.63678 0.3779 0.0
N1680 N 0.0993 0.64621 0.40557 0.0
N1681 N 0.09388 0.61026 0.35884 0.0
C1682 C 0.12102 0.60842 0.37452 0.0
C1683 C 0.12395 0.62784 0.39993 0.0
C1684 C 0.44245 0.1687 0.40685 0.0
C1685 C 0.43902 0.14924 0.38221 0.0
C1686 C 0.41902 0.17115 0.42877 0.0
C1687 C 0.3914 0.15402 0.42701 0.0
H1688 H 0.46278 0.18309 0.40859 0.0
H1689 H 0.42224 0.18729 0.4467 0.0
S1690 S 0.37338 0.09641 0.36913 0.0
N1691 N 0.40748 0.11033 0.35888 0.0
N1692 N 0.36367 0.11454 0.40006 0.0
C1693 C 0.38863 0.13313 0.40338 0.0
C1694 C 0.41235 0.13087 0.38098 0.0
C1695 C 0.14977 0.41145 0.61742 0.0
C1696 C 0.11971 0.41406 0.62967 0.0
C1697 C 0.15542 0.3928 0.5928 0.0
C1698 C 0.1311 0.37627 0.57943 0.0
H1699 H 0.1685 0.42572 0.6254 0.0
H1700 H 0.17846 0.39325 0.58273 0.0
S1701 S 0.04957 0.3709 0.60738 0.0
N1702 N 0.06654 0.39524 0.63013 0.0
N1703 N 0.07694 0.35993 0.58363 0.0
C1704 C 0.10181 0.37585 0.5939 0.0
C1705 C 0.09615 0.39489 0.61915 0.0
C1706 C 0.61792 0.14523 0.6336 0.0
C1707 C 0.61795 0.15276 0.60293 0.0
C1708 C 0.59079 0.14767 0.65094 0.0
C1709 C 0.5624 0.15739 0.63833 0.0
H1710 H 0.6393 0.13854 0.64472 0.0
H1711 H 0.59234 0.14256 0.67468 0.0
S1712 S 0.54903 0.17652 0.55825 0.0
N1713 N 0.58651 0.16798 0.56001 0.0
N1714 N 0.53537 0.17232 0.59268 0.0
C1715 C 0.56158 0.16329 0.6073 0.0
C1716 C 0.58939 0.16109 0.58961 0.0
C1717 C 0.44759 0.82852 0.60344 0.0
C1718 C 0.44535 0.8465 0.62928 0.0
C1719 C 0.42265 0.82637 0.58316 0.0
C1720 C 0.39476 0.84252 0.58774 0.0
H1721 H 0.46824 0.81501 0.5995 0.0
H1722 H 0.42505 0.81147 0.56408 0.0
S1723 S 0.3788 0.89558 0.65026 0.0
N1724 N 0.41417 0.8826 0.65718 0.0
N1725 N 0.36749 0.879 0.61896 0.0
C1726 C 0.39295 0.86187 0.61268 0.0
C1727 C 0.41818 0.86372 0.6335 0.0
loop_
_geom_bond_atom_site_label_1
_geom_bond_atom_site_label_2
_geom_bond_distance
_geom_bond_site_symmetry_2
_ccdc_geom_bond_type
Mg0 O1 2.028 . S
Mg0 O7 1.986 . S
Mg0 O9 2.114 . S
Mg0 O10 2.251 . S
Mg0 O13 2.010 . S
O1 Mg0 2.028 . S
O1 C4 1.250 1_455 S
O2 Mg3 2.028 . S
O2 C4 1.248 . S
Mg3 O2 2.028 . S
Mg3 O8 2.032 1_655 S
Mg3 O10 2.079 1_655 S
C4 O1 1.250 1_655 S
C4 O2 1.248 . S
C5 O6 1.264 . S
C5 O13 1.249 . S
O6 C5 1.264 . S
O7 Mg0 1.986 . S
O7 C11 1.246 . S
O8 Mg3 2.032 1_455 S
O8 C11 1.259 . S
O9 Mg0 2.114 . S
O9 C12 1.252 . S
O10 Mg0 2.251 . S
O10 Mg3 2.079 1_455 S
O10 C12 1.273 . S
C11 O7 1.246 . S
C11 O8 1.259 . S
C12 O9 1.252 . S
C12 O10 1.273 . S
O13 Mg0 2.010 . S
O13 C5 1.249 . S
Mg14 O15 2.028 . S
Mg14 O21 1.986 . S
Mg14 O23 2.114 1_545 S
Mg14 O24 2.251 1_545 S
Mg14 O27 2.010 . S
O15 Mg14 2.028 . S
O15 C18 1.250 . S
O16 Mg17 2.028 . S
O16 C18 1.248 . S
Mg17 O16 2.028 . S
Mg17 O22 2.032 . S
Mg17 O24 2.079 1_545 S
C18 O15 1.250 . S
C18 O16 1.248 . S
C19 O20 1.264 . S
C19 O27 1.249 . S
O20 C19 1.264 . S
O21 Mg14 1.986 . S
O21 C25 1.246 . S
O22 Mg17 2.032 . S
O22 C25 1.259 . S
O23 Mg14 2.114 1_565 S
O23 C26 1.252 . S
O24 Mg14 2.251 1_565 S
O24 Mg17 2.079 1_565 S
O24 C26 1.273 . S
C25 O21 1.246 . S
C25 O22 1.259 . S
C26 O23 1.252 . S
C26 O24 1.273 . S
O27 Mg14 2.010 . S
O27 C19 1.249 . S
Mg28 O29 2.028 . S
Mg28 O35 1.986 . S
Mg28 O37 2.114 . S
Mg28 O38 2.251 . S
Mg28 O41 2.010 . S
O29 Mg28 2.028 . S
O29 C32 1.250 1_655 S
O30 Mg31 2.028 . S
O30 C32 1.248 . S
Mg31 O30 2.028 . S
Mg31 O36 2.032 1_455 S
Mg31 O38 2.079 1_455 S
C32 O29 1.250 1_455 S
C32 O30 1.248 . S
C33 O34 1.264 . S
C33 O41 1.249 . S
O34 C33 1.264 . S
O35 Mg28 1.986 . S
O35 C39 1.246 . S
O36 Mg31 2.032 1_655 S
O36 C39 1.259 . S
O37 Mg28 2.114 . S
O37 C40 1.252 . S
O38 Mg28 2.251 . S
O38 Mg31 2.079 1_655 S
O38 C40 1.273 . S
C39 O35 1.246 . S
C39 O36 1.259 . S
C40 O37 1.252 . S
C40 O38 1.273 . S
O41 Mg28 2.010 . S
O41 C33 1.249 . S
Mg42 O43 2.028 . S
Mg42 O49 1.986 . S
Mg42 O51 2.114 1_565 S
Mg42 O52 2.251 1_565 S
Mg42 O55 2.010 . S
O43 Mg42 2.028 . S
O43 C46 1.250 . S
O44 Mg45 2.028 . S
O44 C46 1.248 . S
Mg45 O44 2.028 . S
Mg45 O50 2.032 . S
Mg45 O52 2.079 1_565 S
C46 O43 1.250 . S
C46 O44 1.248 . S
C47 O48 1.264 . S
C47 O55 1.249 . S
O48 C47 1.264 . S
O49 Mg42 1.986 . S
O49 C53 1.246 . S
O50 Mg45 2.032 . S
O50 C53 1.259 . S
O51 Mg42 2.114 1_545 S
O51 C54 1.252 . S
O52 Mg42 2.251 1_545 S
O52 Mg45 2.079 1_545 S
O52 C54 1.273 . S
C53 O49 1.246 . S
C53 O50 1.259 . S
C54 O51 1.252 . S
C54 O52 1.273 . S
O55 Mg42 2.010 . S
O55 C47 1.249 . S
Mg56 O57 2.028 . S
Mg56 O63 1.986 . S
Mg56 O65 2.114 . S
Mg56 O66 2.251 . S
Mg56 O69 2.010 . S
O57 Mg56 2.028 . S
O57 C60 1.250 1_455 S
O58 Mg59 2.028 . S
O58 C60 1.248 . S
Mg59 O58 2.028 . S
Mg59 O64 2.032 1_655 S
Mg59 O66 2.079 1_655 S
C60 O57 1.250 1_655 S
C60 O58 1.248 . S
C61 O62 1.264 . S
C61 O69 1.249 . S
O62 C61 1.264 . S
O63 Mg56 1.986 . S
O63 C67 1.246 . S
O64 Mg59 2.032 1_455 S
O64 C67 1.259 . S
O65 Mg56 2.114 . S
O65 C68 1.252 . S
O66 Mg56 2.251 . S
O66 Mg59 2.079 1_455 S
O66 C68 1.273 . S
C67 O63 1.246 . S
C67 O64 1.259 . S
C68 O65 1.252 . S
C68 O66 1.273 . S
O69 Mg56 2.010 . S
O69 C61 1.249 . S
Mg70 O71 2.028 . S
Mg70 O77 1.986 . S
Mg70 O79 2.114 1_545 S
Mg70 O80 2.251 1_545 S
Mg70 O83 2.010 . S
O71 Mg70 2.028 . S
O71 C74 1.250 . S
O72 Mg73 2.028 . S
O72 C74 1.248 . S
Mg73 O72 2.028 . S
Mg73 O78 2.032 . S
Mg73 O80 2.079 1_545 S
C74 O71 1.250 . S
C74 O72 1.248 . S
C75 O76 1.264 . S
C75 O83 1.249 . S
O76 C75 1.264 . S
O77 Mg70 1.986 . S
O77 C81 1.246 . S
O78 Mg73 2.032 . S
O78 C81 1.259 . S
O79 Mg70 2.114 1_565 S
O79 C82 1.252 . S
O80 Mg70 2.251 1_565 S
O80 Mg73 2.079 1_565 S
O80 C82 1.273 . S
C81 O77 1.246 . S
C81 O78 1.259 . S
C82 O79 1.252 . S
C82 O80 1.273 . S
O83 Mg70 2.010 . S
O83 C75 1.249 . S
Mg84 O85 2.028 . S
Mg84 O91 1.986 . S
Mg84 O93 2.114 . S
Mg84 O94 2.251 . S
Mg84 O97 2.010 . S
O85 Mg84 2.028 . S
O85 C88 1.250 1_655 S
O86 Mg87 2.028 . S
O86 C88 1.248 . S
Mg87 O86 2.028 . S
Mg87 O92 2.032 1_455 S
Mg87 O94 2.079 1_455 S
C88 O85 1.250 1_455 S
C88 O86 1.248 . S
C89 O90 1.264 . S
C89 O97 1.249 . S
O90 C89 1.264 . S
O91 Mg84 1.986 . S
O91 C95 1.246 . S
O92 Mg87 2.032 1_655 S
O92 C95 1.259 . S
O93 Mg84 2.114 . S
O93 C96 1.252 . S
O94 Mg84 2.251 . S
O94 Mg87 2.079 1_655 S
O94 C96 1.273 . S
C95 O91 1.246 . S
C95 O92 1.259 . S
C96 O93 1.252 . S
C96 O94 1.273 . S
O97 Mg84 2.010 . S
O97 C89 1.249 . S
Mg98 O99 2.028 . S
Mg98 O105 1.986 . S
Mg98 O107 2.114 1_565 S
Mg98 O108 2.251 1_565 S
Mg98 O111 2.010 . S
O99 Mg98 2.028 . S
O99 C102 1.250 . S
O100 Mg101 2.028 . S
O100 C102 1.248 . S
Mg101 O100 2.028 . S
Mg101 O106 2.032 . S
Mg101 O108 2.079 1_565 S
C102 O99 1.250 . S
C102 O100 1.248 . S
C103 O104 1.264 . S
C103 O111 1.249 . S
O104 C103 1.264 . S
O105 Mg98 1.986 . S
O105 C109 1.246 . S
O106 Mg101 2.032 . S
O106 C109 1.259 . S
O107 Mg98 2.114 1_545 S
O107 C110 1.252 . S
O108 Mg98 2.251 1_545 S
O108 Mg101 2.079 1_545 S
O108 C110 1.273 . S
C109 O105 1.246 . S
C109 O106 1.259 . S
C110 O107 1.252 . S
C110 O108 1.273 . S
O111 Mg98 2.010 . S
O111 C103 1.249 . S
Mg112 O113 2.028 . S
Mg112 O119 1.986 . S
Mg112 O121 2.114 . S
Mg112 O122 2.251 . S
Mg112 O125 2.010 . S
O113 Mg112 2.028 . S
O113 C116 1.250 1_545 S
O114 Mg115 2.028 . S
O114 C116 1.248 . S
Mg115 O114 2.028 . S
Mg115 O120 2.032 1_565 S
Mg115 O122 2.079 1_565 S
C116 O113 1.250 1_565 S
C116 O114 1.248 . S
C117 O118 1.264 . S
C117 O125 1.249 . S
O118 C117 1.264 . S
O119 Mg112 1.986 . S
O119 C123 1.246 . S
O120 Mg115 2.032 1_545 S
O120 C123 1.259 . S
O121 Mg112 2.114 . S
O121 C124 1.252 . S
O122 Mg112 2.251 . S
O122 Mg115 2.079 1_545 S
O122 C124 1.273 . S
C123 O119 1.246 . S
C123 O120 1.259 . S
C124 O121 1.252 . S
C124 O122 1.273 . S
O125 Mg112 2.010 . S
O125 C117 1.249 . S
Mg126 O127 2.028 . S
Mg126 O133 1.986 . S
Mg126 O135 2.114 . S
Mg126 O136 2.251 . S
Mg126 O139 2.010 . S
O127 Mg126 2.028 . S
O127 C130 1.250 1_655 S
O128 Mg129 2.028 . S
O128 C130 1.248 . S
Mg129 O128 2.028 . S
Mg129 O134 2.032 1_455 S
Mg129 O136 2.079 1_455 S
C130 O127 1.250 1_455 S
C130 O128 1.248 . S
C131 O132 1.264 . S
C131 O139 1.249 . S
O132 C131 1.264 . S
O133 Mg126 1.986 . S
O133 C137 1.246 . S
O134 Mg129 2.032 1_655 S
O134 C137 1.259 . S
O135 Mg126 2.114 . S
O135 C138 1.252 . S
O136 Mg126 2.251 . S
O136 Mg129 2.079 1_655 S
O136 C138 1.273 . S
C137 O133 1.246 . S
C137 O134 1.259 . S
C138 O135 1.252 . S
C138 O136 1.273 . S
O139 Mg126 2.010 . S
O139 C131 1.249 . S
Mg140 O141 2.028 . S
Mg140 O147 1.986 . S
Mg140 O149 2.114 . S
Mg140 O150 2.251 . S
Mg140 O153 2.010 . S
O141 Mg140 2.028 . S
O141 C144 1.250 1_565 S
O142 Mg143 2.028 . S
O142 C144 1.248 . S
Mg143 O142 2.028 . S
Mg143 O148 2.032 1_545 S
Mg143 O150 2.079 1_545 S
C144 O141 1.250 1_545 S
C144 O142 1.248 . S
C145 O146 1.264 . S
C145 O153 1.249 . S
O146 C145 1.264 . S
O147 Mg140 1.986 . S
O147 C151 1.246 . S
O148 Mg143 2.032 1_565 S
O148 C151 1.259 . S
O149 Mg140 2.114 . S
O149 C152 1.252 . S
O150 Mg140 2.251 . S
O150 Mg143 2.079 1_565 S
O150 C152 1.273 . S
C151 O147 1.246 . S
C151 O148 1.259 . S
C152 O149 1.252 . S
C152 O150 1.273 . S
O153 Mg140 2.010 . S
O153 C145 1.249 . S
Mg154 O155 2.028 . S
Mg154 O161 1.986 . S
Mg154 O163 2.114 . S
Mg154 O164 2.251 . S
Mg154 O167 2.010 . S
O155 Mg154 2.028 . S
O155 C158 1.250 1_455 S
O156 Mg157 2.028 . S
O156 C158 1.248 . S
Mg157 O156 2.028 . S
Mg157 O162 2.032 1_655 S
Mg157 O164 2.079 1_655 S
C158 O155 1.250 1_655 S
C158 O156 1.248 . S
C159 O160 1.264 . S
C159 O167 1.249 . S
O160 C159 1.264 . S
O161 Mg154 1.986 . S
O161 C165 1.246 . S
O162 Mg157 2.032 1_455 S
O162 C165 1.259 . S
O163 Mg154 2.114 . S
O163 C166 1.252 . S
O164 Mg154 2.251 . S
O164 Mg157 2.079 1_455 S
O164 C166 1.273 . S
C165 O161 1.246 . S
C165 O162 1.259 . S
C166 O163 1.252 . S
C166 O164 1.273 . S
O167 Mg154 2.010 . S
O167 C159 1.249 . S
Mg168 O169 2.028 . S
Mg168 O175 1.986 . S
Mg168 O177 2.114 . S
Mg168 O178 2.251 . S
Mg168 O181 2.010 . S
O169 Mg168 2.028 . S
O169 C172 1.250 1_565 S
O170 Mg171 2.028 . S
O170 C172 1.248 . S
Mg171 O170 2.028 . S
Mg171 O176 2.032 1_545 S
Mg171 O178 2.079 1_545 S
C172 O169 1.250 1_545 S
C172 O170 1.248 . S
C173 O174 1.264 . S
C173 O181 1.249 . S
O174 C173 1.264 . S
O175 Mg168 1.986 . S
O175 C179 1.246 . S
O176 Mg171 2.032 1_565 S
O176 C179 1.259 . S
O177 Mg168 2.114 . S
O177 C180 1.252 . S
O178 Mg168 2.251 . S
O178 Mg171 2.079 1_565 S
O178 C180 1.273 . S
C179 O175 1.246 . S
C179 O176 1.259 . S
C180 O177 1.252 . S
C180 O178 1.273 . S
O181 Mg168 2.010 . S
O181 C173 1.249 . S
Mg182 O183 2.028 . S
Mg182 O189 1.986 . S
Mg182 O191 2.114 . S
Mg182 O192 2.251 . S
Mg182 O195 2.010 . S
O183 Mg182 2.028 . S
O183 C186 1.250 1_455 S
O184 Mg185 2.028 . S
O184 C186 1.248 . S
Mg185 O184 2.028 . S
Mg185 O190 2.032 1_655 S
Mg185 O192 2.079 1_655 S
C186 O183 1.250 1_655 S
C186 O184 1.248 . S
C187 O188 1.264 . S
C187 O195 1.249 . S
O188 C187 1.264 . S
O189 Mg182 1.986 . S
O189 C193 1.246 . S
O190 Mg185 2.032 1_455 S
O190 C193 1.259 . S
O191 Mg182 2.114 . S
O191 C194 1.252 . S
O192 Mg182 2.251 . S
O192 Mg185 2.079 1_455 S
O192 C194 1.273 . S
C193 O189 1.246 . S
C193 O190 1.259 . S
C194 O191 1.252 . S
C194 O192 1.273 . S
O195 Mg182 2.010 . S
O195 C187 1.249 . S
Mg196 O197 2.028 . S
Mg196 O203 1.986 . S
Mg196 O205 2.114 . S
Mg196 O206 2.251 . S
Mg196 O209 2.010 . S
O197 Mg196 2.028 . S
O197 C200 1.250 1_545 S
O198 Mg199 2.028 . S
O198 C200 1.248 . S
Mg199 O198 2.028 . S
Mg199 O204 2.032 1_565 S
Mg199 O206 2.079 1_565 S
C200 O197 1.250 1_565 S
C200 O198 1.248 . S
C201 O202 1.264 . S
C201 O209 1.249 . S
O202 C201 1.264 . S
O203 Mg196 1.986 . S
O203 C207 1.246 . S
O204 Mg199 2.032 1_545 S
O204 C207 1.259 . S
O205 Mg196 2.114 . S
O205 C208 1.252 . S
O206 Mg196 2.251 . S
O206 Mg199 2.079 1_545 S
O206 C208 1.273 . S
C207 O203 1.246 . S
C207 O204 1.259 . S
C208 O205 1.252 . S
C208 O206 1.273 . S
O209 Mg196 2.010 . S
O209 C201 1.249 . S
Mg210 O211 2.028 . S
Mg210 O217 1.986 . S
Mg210 O219 2.114 . S
Mg210 O220 2.251 . S
Mg210 O223 2.010 . S
O211 Mg210 2.028 . S
O211 C214 1.250 1_655 S
O212 Mg213 2.028 . S
O212 C214 1.248 . S
Mg213 O212 2.028 . S
Mg213 O218 2.032 1_455 S
Mg213 O220 2.079 1_455 S
C214 O211 1.250 1_455 S
C214 O212 1.248 . S
C215 O216 1.264 . S
C215 O223 1.249 . S
O216 C215 1.264 . S
O217 Mg210 1.986 . S
O217 C221 1.246 . S
O218 Mg213 2.032 1_655 S
O218 C221 1.259 . S
O219 Mg210 2.114 . S
O219 C222 1.252 . S
O220 Mg210 2.251 . S
O220 Mg213 2.079 1_655 S
O220 C222 1.273 . S
C221 O217 1.246 . S
C221 O218 1.259 . S
C222 O219 1.252 . S
C222 O220 1.273 . S
O223 Mg210 2.010 . S
O223 C215 1.249 . S
Mg224 O225 2.028 . S
Mg224 O231 1.986 . S
Mg224 O233 2.114 1_554 S
Mg224 O234 2.251 1_554 S
Mg224 O237 2.010 . S
O225 Mg224 2.028 . S
O225 C228 1.250 . S
O226 Mg227 2.028 . S
O226 C228 1.248 . S
Mg227 O226 2.028 . S
Mg227 O232 2.032 . S
Mg227 O234 2.079 1_554 S
C228 O225 1.250 . S
C228 O226 1.248 . S
C229 O230 1.264 . S
C229 O237 1.249 . S
O230 C229 1.264 . S
O231 Mg224 1.986 . S
O231 C235 1.246 . S
O232 Mg227 2.032 . S
O232 C235 1.259 . S
O233 Mg224 2.114 1_556 S
O233 C236 1.252 . S
O234 Mg224 2.251 1_556 S
O234 Mg227 2.079 1_556 S
O234 C236 1.273 . S
C235 O231 1.246 . S
C235 O232 1.259 . S
C236 O233 1.252 . S
C236 O234 1.273 . S
O237 Mg224 2.010 . S
O237 C229 1.249 . S
Mg238 O239 2.028 . S
Mg238 O245 1.986 . S
Mg238 O247 2.114 1_556 S
Mg238 O248 2.251 1_556 S
Mg238 O251 2.010 . S
O239 Mg238 2.028 . S
O239 C242 1.250 . S
O240 Mg241 2.028 . S
O240 C242 1.248 . S
Mg241 O240 2.028 . S
Mg241 O246 2.032 . S
Mg241 O248 2.079 1_556 S
C242 O239 1.250 . S
C242 O240 1.248 . S
C243 O244 1.264 . S
C243 O251 1.249 . S
O244 C243 1.264 . S
O245 Mg238 1.986 . S
O245 C249 1.246 . S
O246 Mg241 2.032 . S
O246 C249 1.259 . S
O247 Mg238 2.114 1_554 S
O247 C250 1.252 . S
O248 Mg238 2.251 1_554 S
O248 Mg241 2.079 1_554 S
O248 C250 1.273 . S
C249 O245 1.246 . S
C249 O246 1.259 . S
C250 O247 1.252 . S
C250 O248 1.273 . S
O251 Mg238 2.010 . S
O251 C243 1.249 . S
Mg252 O253 2.028 . S
Mg252 O259 1.986 . S
Mg252 O261 2.114 . S
Mg252 O262 2.251 . S
Mg252 O265 2.010 . S
O253 Mg252 2.028 . S
O253 C256 1.250 1_556 S
O254 Mg255 2.028 . S
O254 C256 1.248 . S
Mg255 O254 2.028 . S
Mg255 O260 2.032 1_554 S
Mg255 O262 2.079 1_554 S
C256 O253 1.250 1_554 S
C256 O254 1.248 . S
C257 O258 1.264 . S
C257 O265 1.249 . S
O258 C257 1.264 . S
O259 Mg252 1.986 . S
O259 C263 1.246 . S
O260 Mg255 2.032 1_556 S
O260 C263 1.259 . S
O261 Mg252 2.114 . S
O261 C264 1.252 . S
O262 Mg252 2.251 . S
O262 Mg255 2.079 1_556 S
O262 C264 1.273 . S
C263 O259 1.246 . S
C263 O260 1.259 . S
C264 O261 1.252 . S
C264 O262 1.273 . S
O265 Mg252 2.010 . S
O265 C257 1.249 . S
Mg266 O267 2.028 . S
Mg266 O273 1.986 . S
Mg266 O275 2.114 1_556 S
Mg266 O276 2.251 1_556 S
Mg266 O279 2.010 . S
O267 Mg266 2.028 . S
O267 C270 1.250 . S
O268 Mg269 2.028 . S
O268 C270 1.248 . S
Mg269 O268 2.028 . S
Mg269 O274 2.032 . S
Mg269 O276 2.079 1_556 S
C270 O267 1.250 . S
C270 O268 1.248 . S
C271 O272 1.264 . S
C271 O279 1.249 . S
O272 C271 1.264 . S
O273 Mg266 1.986 . S
O273 C277 1.246 . S
O274 Mg269 2.032 . S
O274 C277 1.259 . S
O275 Mg266 2.114 1_554 S
O275 C278 1.252 . S
O276 Mg266 2.251 1_554 S
O276 Mg269 2.079 1_554 S
O276 C278 1.273 . S
C277 O273 1.246 . S
C277 O274 1.259 . S
C278 O275 1.252 . S
C278 O276 1.273 . S
O279 Mg266 2.010 . S
O279 C271 1.249 . S
Mg280 O281 2.028 . S
Mg280 O287 1.986 . S
Mg280 O289 2.114 . S
Mg280 O290 2.251 . S
Mg280 O293 2.010 . S
O281 Mg280 2.028 . S
O281 C284 1.250 1_556 S
O282 Mg283 2.028 . S
O282 C284 1.248 . S
Mg283 O282 2.028 . S
Mg283 O288 2.032 1_554 S
Mg283 O290 2.079 1_554 S
C284 O281 1.250 1_554 S
C284 O282 1.248 . S
C285 O286 1.264 . S
C285 O293 1.249 . S
O286 C285 1.264 . S
O287 Mg280 1.986 . S
O287 C291 1.246 . S
O288 Mg283 2.032 1_556 S
O288 C291 1.259 . S
O289 Mg280 2.114 . S
O289 C292 1.252 . S
O290 Mg280 2.251 . S
O290 Mg283 2.079 1_556 S
O290 C292 1.273 . S
C291 O287 1.246 . S
C291 O288 1.259 . S
C292 O289 1.252 . S
C292 O290 1.273 . S
O293 Mg280 2.010 . S
O293 C285 1.249 . S
Mg294 O295 2.028 . S
Mg294 O301 1.986 . S
Mg294 O303 2.114 1_554 S
Mg294 O304 2.251 1_554 S
Mg294 O307 2.010 . S
O295 Mg294 2.028 . S
O295 C298 1.250 . S
O296 Mg297 2.028 . S
O296 C298 1.248 . S
Mg297 O296 2.028 . S
Mg297 O302 2.032 . S
Mg297 O304 2.079 1_554 S
C298 O295 1.250 . S
C298 O296 1.248 . S
C299 O300 1.264 . S
C299 O307 1.249 . S
O300 C299 1.264 . S
O301 Mg294 1.986 . S
O301 C305 1.246 . S
O302 Mg297 2.032 . S
O302 C305 1.259 . S
O303 Mg294 2.114 1_556 S
O303 C306 1.252 . S
O304 Mg294 2.251 1_556 S
O304 Mg297 2.079 1_556 S
O304 C306 1.273 . S
C305 O301 1.246 . S
C305 O302 1.259 . S
C306 O303 1.252 . S
C306 O304 1.273 . S
O307 Mg294 2.010 . S
O307 C299 1.249 . S
Mg308 O309 2.028 . S
Mg308 O315 1.986 . S
Mg308 O317 2.114 . S
Mg308 O318 2.251 . S
Mg308 O321 2.010 . S
O309 Mg308 2.028 . S
O309 C312 1.250 1_554 S
O310 Mg311 2.028 . S
O310 C312 1.248 . S
Mg311 O310 2.028 . S
Mg311 O316 2.032 1_556 S
Mg311 O318 2.079 1_556 S
C312 O309 1.250 1_556 S
C312 O310 1.248 . S
C313 O314 1.264 . S
C313 O321 1.249 . S
O314 C313 1.264 . S
O315 Mg308 1.986 . S
O315 C319 1.246 . S
O316 Mg311 2.032 1_554 S
O316 C319 1.259 . S
O317 Mg308 2.114 . S
O317 C320 1.252 . S
O318 Mg308 2.251 . S
O318 Mg311 2.079 1_554 S
O318 C320 1.273 . S
C319 O315 1.246 . S
C319 O316 1.259 . S
C320 O317 1.252 . S
C320 O318 1.273 . S
O321 Mg308 2.010 . S
O321 C313 1.249 . S
Mg322 O323 2.028 . S
Mg322 O329 1.986 . S
Mg322 O331 2.114 . S
Mg322 O332 2.251 . S
Mg322 O335 2.010 . S
O323 Mg322 2.028 . S
O323 C326 1.250 1_554 S
O324 Mg325 2.028 . S
O324 C326 1.248 . S
Mg325 O324 2.028 . S
Mg325 O330 2.032 1_556 S
Mg325 O332 2.079 1_556 S
C326 O323 1.250 1_556 S
C326 O324 1.248 . S
C327 O328 1.264 . S
C327 O335 1.249 . S
O328 C327 1.264 . S
O329 Mg322 1.986 . S
O329 C333 1.246 . S
O330 Mg325 2.032 1_554 S
O330 C333 1.259 . S
O331 Mg322 2.114 . S
O331 C334 1.252 . S
O332 Mg322 2.251 . S
O332 Mg325 2.079 1_554 S
O332 C334 1.273 . S
C333 O329 1.246 . S
C333 O330 1.259 . S
C334 O331 1.252 . S
C334 O332 1.273 . S
O335 Mg322 2.010 . S
O335 C327 1.249 . S
Mg336 O337 2.028 . S
Mg336 O343 1.986 . S
Mg336 O345 2.114 . S
Mg336 O346 2.251 . S
Mg336 O349 2.010 . S
O337 Mg336 2.028 . S
O337 C340 1.250 . S
O338 Mg339 2.028 . S
O338 C340 1.248 . S
Mg339 O338 2.028 . S
Mg339 O344 2.032 . S
Mg339 O346 2.079 . S
C340 O337 1.250 . S
C340 O338 1.248 . S
C341 O342 1.264 . S
C341 O349 1.249 . S
O342 C341 1.264 . S
O343 Mg336 1.986 . S
O343 C347 1.246 . S
O344 Mg339 2.032 . S
O344 C347 1.259 . S
O345 Mg336 2.114 . S
O345 C348 1.252 . S
O346 Mg336 2.251 . S
O346 Mg339 2.079 . S
O346 C348 1.273 . S
C347 O343 1.246 . S
C347 O344 1.259 . S
C348 O345 1.252 . S
C348 O346 1.273 . S
O349 Mg336 2.010 . S
O349 C341 1.249 . S
Mg350 O351 2.028 . S
Mg350 O357 1.986 . S
Mg350 O359 2.114 . S
Mg350 O360 2.251 . S
Mg350 O363 2.010 . S
O351 Mg350 2.028 . S
O351 C354 1.250 . S
O352 Mg353 2.028 . S
O352 C354 1.248 . S
Mg353 O352 2.028 . S
Mg353 O358 2.032 . S
Mg353 O360 2.079 . S
C354 O351 1.250 . S
C354 O352 1.248 . S
C355 O356 1.264 . S
C355 O363 1.249 . S
O356 C355 1.264 . S
O357 Mg350 1.986 . S
O357 C361 1.246 . S
O358 Mg353 2.032 . S
O358 C361 1.259 . S
O359 Mg350 2.114 . S
O359 C362 1.252 . S
O360 Mg350 2.251 . S
O360 Mg353 2.079 . S
O360 C362 1.273 . S
C361 O357 1.246 . S
C361 O358 1.259 . S
C362 O359 1.252 . S
C362 O360 1.273 . S
O363 Mg350 2.010 . S
O363 C355 1.249 . S
Mg364 O365 2.028 . S
Mg364 O371 1.986 . S
Mg364 O373 2.114 . S
Mg364 O374 2.251 . S
Mg364 O377 2.010 . S
O365 Mg364 2.028 . S
O365 C368 1.250 . S
O366 Mg367 2.028 . S
O366 C368 1.248 . S
Mg367 O366 2.028 . S
Mg367 O372 2.032 . S
Mg367 O374 2.079 . S
C368 O365 1.250 . S
C368 O366 1.248 . S
C369 O370 1.264 . S
C369 O377 1.249 . S
O370 C369 1.264 . S
O371 Mg364 1.986 . S
O371 C375 1.246 . S
O372 Mg367 2.032 . S
O372 C375 1.259 . S
O373 Mg364 2.114 . S
O373 C376 1.252 . S
O374 Mg364 2.251 . S
O374 Mg367 2.079 . S
O374 C376 1.273 . S
C375 O371 1.246 . S
C375 O372 1.259 . S
C376 O373 1.252 . S
C376 O374 1.273 . S
O377 Mg364 2.010 . S
O377 C369 1.249 . S
Mg378 O379 2.028 . S
Mg378 O385 1.986 . S
Mg378 O387 2.114 . S
Mg378 O388 2.251 . S
Mg378 O391 2.010 . S
O379 Mg378 2.028 . S
O379 C382 1.250 . S
O380 Mg381 2.028 . S
O380 C382 1.248 . S
Mg381 O380 2.028 . S
Mg381 O386 2.032 . S
Mg381 O388 2.079 . S
C382 O379 1.250 . S
C382 O380 1.248 . S
C383 O384 1.264 . S
C383 O391 1.249 . S
O384 C383 1.264 . S
O385 Mg378 1.986 . S
O385 C389 1.246 . S
O386 Mg381 2.032 . S
O386 C389 1.259 . S
O387 Mg378 2.114 . S
O387 C390 1.252 . S
O388 Mg378 2.251 . S
O388 Mg381 2.079 . S
O388 C390 1.273 . S
C389 O385 1.246 . S
C389 O386 1.259 . S
C390 O387 1.252 . S
C390 O388 1.273 . S
O391 Mg378 2.010 . S
O391 C383 1.249 . S
Mg392 O393 2.028 . S
Mg392 O399 1.986 . S
Mg392 O401 2.114 . S
Mg392 O402 2.251 . S
Mg392 O405 2.010 . S
O393 Mg392 2.028 . S
O393 C396 1.250 . S
O394 Mg395 2.028 . S
O394 C396 1.248 . S
Mg395 O394 2.028 . S
Mg395 O400 2.032 . S
Mg395 O402 2.079 . S
C396 O393 1.250 . S
C396 O394 1.248 . S
C397 O398 1.264 . S
C397 O405 1.249 . S
O398 C397 1.264 . S
O399 Mg392 1.986 . S
O399 C403 1.246 . S
O400 Mg395 2.032 . S
O400 C403 1.259 . S
O401 Mg392 2.114 . S
O401 C404 1.252 . S
O402 Mg392 2.251 . S
O402 Mg395 2.079 . S
O402 C404 1.273 . S
C403 O399 1.246 . S
C403 O400 1.259 . S
C404 O401 1.252 . S
C404 O402 1.273 . S
O405 Mg392 2.010 . S
O405 C397 1.249 . S
Mg406 O407 2.028 . S
Mg406 O413 1.986 . S
Mg406 O415 2.114 . S
Mg406 O416 2.251 . S
Mg406 O419 2.010 . S
O407 Mg406 2.028 . S
O407 C410 1.250 . S
O408 Mg409 2.028 . S
O408 C410 1.248 . S
Mg409 O408 2.028 . S
Mg409 O414 2.032 . S
Mg409 O416 2.079 . S
C410 O407 1.250 . S
C410 O408 1.248 . S
C411 O412 1.264 . S
C411 O419 1.249 . S
O412 C411 1.264 . S
O413 Mg406 1.986 . S
O413 C417 1.246 . S
O414 Mg409 2.032 . S
O414 C417 1.259 . S
O415 Mg406 2.114 . S
O415 C418 1.252 . S
O416 Mg406 2.251 . S
O416 Mg409 2.079 . S
O416 C418 1.273 . S
C417 O413 1.246 . S
C417 O414 1.259 . S
C418 O415 1.252 . S
C418 O416 1.273 . S
O419 Mg406 2.010 . S
O419 C411 1.249 . S
Mg420 O421 2.028 . S
Mg420 O427 1.986 . S
Mg420 O429 2.114 . S
Mg420 O430 2.251 . S
Mg420 O433 2.010 . S
O421 Mg420 2.028 . S
O421 C424 1.250 . S
O422 Mg423 2.028 . S
O422 C424 1.248 . S
Mg423 O422 2.028 . S
Mg423 O428 2.032 . S
Mg423 O430 2.079 . S
C424 O421 1.250 . S
C424 O422 1.248 . S
C425 O426 1.264 . S
C425 O433 1.249 . S
O426 C425 1.264 . S
O427 Mg420 1.986 . S
O427 C431 1.246 . S
O428 Mg423 2.032 . S
O428 C431 1.259 . S
O429 Mg420 2.114 . S
O429 C432 1.252 . S
O430 Mg420 2.251 . S
O430 Mg423 2.079 . S
O430 C432 1.273 . S
C431 O427 1.246 . S
C431 O428 1.259 . S
C432 O429 1.252 . S
C432 O430 1.273 . S
O433 Mg420 2.010 . S
O433 C425 1.249 . S
Mg434 O435 2.028 . S
Mg434 O441 1.986 . S
Mg434 O443 2.114 . S
Mg434 O444 2.251 . S
Mg434 O447 2.010 . S
O435 Mg434 2.028 . S
O435 C438 1.250 . S
O436 Mg437 2.028 . S
O436 C438 1.248 . S
Mg437 O436 2.028 . S
Mg437 O442 2.032 . S
Mg437 O444 2.079 . S
C438 O435 1.250 . S
C438 O436 1.248 . S
C439 O440 1.264 . S
C439 O447 1.249 . S
O440 C439 1.264 . S
O441 Mg434 1.986 . S
O441 C445 1.246 . S
O442 Mg437 2.032 . S
O442 C445 1.259 . S
O443 Mg434 2.114 . S
O443 C446 1.252 . S
O444 Mg434 2.251 . S
O444 Mg437 2.079 . S
O444 C446 1.273 . S
C445 O441 1.246 . S
C445 O442 1.259 . S
C446 O443 1.252 . S
C446 O444 1.273 . S
O447 Mg434 2.010 . S
O447 C439 1.249 . S
Mg448 O449 2.028 . S
Mg448 O455 1.986 . S
Mg448 O457 2.114 . S
Mg448 O458 2.251 . S
Mg448 O461 2.010 . S
O449 Mg448 2.028 . S
O449 C452 1.250 . S
O450 Mg451 2.028 . S
O450 C452 1.248 . S
Mg451 O450 2.028 . S
Mg451 O456 2.032 . S
Mg451 O458 2.079 . S
C452 O449 1.250 . S
C452 O450 1.248 . S
C453 O454 1.264 . S
C453 O461 1.249 . S
O454 C453 1.264 . S
O455 Mg448 1.986 . S
O455 C459 1.246 . S
O456 Mg451 2.032 . S
O456 C459 1.259 . S
O457 Mg448 2.114 . S
O457 C460 1.252 . S
O458 Mg448 2.251 . S
O458 Mg451 2.079 . S
O458 C460 1.273 . S
C459 O455 1.246 . S
C459 O456 1.259 . S
C460 O457 1.252 . S
C460 O458 1.273 . S
O461 Mg448 2.010 . S
O461 C453 1.249 . S
Mg462 O463 2.028 . S
Mg462 O469 1.986 . S
Mg462 O471 2.114 . S
Mg462 O472 2.251 . S
Mg462 O475 2.010 . S
O463 Mg462 2.028 . S
O463 C466 1.250 . S
O464 Mg465 2.028 . S
O464 C466 1.248 . S
Mg465 O464 2.028 . S
Mg465 O470 2.032 . S
Mg465 O472 2.079 . S
C466 O463 1.250 . S
C466 O464 1.248 . S
C467 O468 1.264 . S
C467 O475 1.249 . S
O468 C467 1.264 . S
O469 Mg462 1.986 . S
O469 C473 1.246 . S
O470 Mg465 2.032 . S
O470 C473 1.259 . S
O471 Mg462 2.114 . S
O471 C474 1.252 . S
O472 Mg462 2.251 . S
O472 Mg465 2.079 . S
O472 C474 1.273 . S
C473 O469 1.246 . S
C473 O470 1.259 . S
C474 O471 1.252 . S
C474 O472 1.273 . S
O475 Mg462 2.010 . S
O475 C467 1.249 . S
Mg476 O477 2.028 . S
Mg476 O483 1.986 . S
Mg476 O485 2.114 . S
Mg476 O486 2.251 . S
Mg476 O489 2.010 . S
O477 Mg476 2.028 . S
O477 C480 1.250 . S
O478 Mg479 2.028 . S
O478 C480 1.248 . S
Mg479 O478 2.028 . S
Mg479 O484 2.032 . S
Mg479 O486 2.079 . S
C480 O477 1.250 . S
C480 O478 1.248 . S
C481 O482 1.264 . S
C481 O489 1.249 . S
O482 C481 1.264 . S
O483 Mg476 1.986 . S
O483 C487 1.246 . S
O484 Mg479 2.032 . S
O484 C487 1.259 . S
O485 Mg476 2.114 . S
O485 C488 1.252 . S
O486 Mg476 2.251 . S
O486 Mg479 2.079 . S
O486 C488 1.273 . S
C487 O483 1.246 . S
C487 O484 1.259 . S
C488 O485 1.252 . S
C488 O486 1.273 . S
O489 Mg476 2.010 . S
O489 C481 1.249 . S
Mg490 O491 2.028 . S
Mg490 O497 1.986 . S
Mg490 O499 2.114 . S
Mg490 O500 2.251 . S
Mg490 O503 2.010 . S
O491 Mg490 2.028 . S
O491 C494 1.250 . S
O492 Mg493 2.028 . S
O492 C494 1.248 . S
Mg493 O492 2.028 . S
Mg493 O498 2.032 . S
Mg493 O500 2.079 . S
C494 O491 1.250 . S
C494 O492 1.248 . S
C495 O496 1.264 . S
C495 O503 1.249 . S
O496 C495 1.264 . S
O497 Mg490 1.986 . S
O497 C501 1.246 . S
O498 Mg493 2.032 . S
O498 C501 1.259 . S
O499 Mg490 2.114 . S
O499 C502 1.252 . S
O500 Mg490 2.251 . S
O500 Mg493 2.079 . S
O500 C502 1.273 . S
C501 O497 1.246 . S
C501 O498 1.259 . S
C502 O499 1.252 . S
C502 O500 1.273 . S
O503 Mg490 2.010 . S
O503 C495 1.249 . S
Mg504 O505 2.028 . S
Mg504 O511 1.986 . S
Mg504 O513 2.114 . S
Mg504 O514 2.251 . S
Mg504 O517 2.010 . S
O505 Mg504 2.028 . S
O505 C508 1.250 . S
O506 Mg507 2.028 . S
O506 C508 1.248 . S
Mg507 O506 2.028 . S
Mg507 O512 2.032 . S
Mg507 O514 2.079 . S
C508 O505 1.250 . S
C508 O506 1.248 . S
C509 O510 1.264 . S
C509 O517 1.249 . S
O510 C509 1.264 . S
O511 Mg504 1.986 . S
O511 C515 1.246 . S
O512 Mg507 2.032 . S
O512 C515 1.259 . S
O513 Mg504 2.114 . S
O513 C516 1.252 . S
O514 Mg504 2.251 . S
O514 Mg507 2.079 . S
O514 C516 1.273 . S
C515 O511 1.246 . S
C515 O512 1.259 . S
C516 O513 1.252 . S
C516 O514 1.273 . S
O517 Mg504 2.010 . S
O517 C509 1.249 . S
Mg518 O519 2.028 . S
Mg518 O525 1.986 . S
Mg518 O527 2.114 . S
Mg518 O528 2.251 . S
Mg518 O531 2.010 . S
O519 Mg518 2.028 . S
O519 C522 1.250 . S
O520 Mg521 2.028 . S
O520 C522 1.248 . S
Mg521 O520 2.028 . S
Mg521 O526 2.032 . S
Mg521 O528 2.079 . S
C522 O519 1.250 . S
C522 O520 1.248 . S
C523 O524 1.264 . S
C523 O531 1.249 . S
O524 C523 1.264 . S
O525 Mg518 1.986 . S
O525 C529 1.246 . S
O526 Mg521 2.032 . S
O526 C529 1.259 . S
O527 Mg518 2.114 . S
O527 C530 1.252 . S
O528 Mg518 2.251 . S
O528 Mg521 2.079 . S
O528 C530 1.273 . S
C529 O525 1.246 . S
C529 O526 1.259 . S
C530 O527 1.252 . S
C530 O528 1.273 . S
O531 Mg518 2.010 . S
O531 C523 1.249 . S
Mg532 O533 2.028 . S
Mg532 O539 1.986 . S
Mg532 O541 2.114 . S
Mg532 O542 2.251 . S
Mg532 O545 2.010 . S
O533 Mg532 2.028 . S
O533 C536 1.250 . S
O534 Mg535 2.028 . S
O534 C536 1.248 . S
Mg535 O534 2.028 . S
Mg535 O540 2.032 . S
Mg535 O542 2.079 . S
C536 O533 1.250 . S
C536 O534 1.248 . S
C537 O538 1.264 . S
C537 O545 1.249 . S
O538 C537 1.264 . S
O539 Mg532 1.986 . S
O539 C543 1.246 . S
O540 Mg535 2.032 . S
O540 C543 1.259 . S
O541 Mg532 2.114 . S
O541 C544 1.252 . S
O542 Mg532 2.251 . S
O542 Mg535 2.079 . S
O542 C544 1.273 . S
C543 O539 1.246 . S
C543 O540 1.259 . S
C544 O541 1.252 . S
C544 O542 1.273 . S
O545 Mg532 2.010 . S
O545 C537 1.249 . S
Mg546 O547 2.028 . S
Mg546 O553 1.986 . S
Mg546 O555 2.114 . S
Mg546 O556 2.251 . S
Mg546 O559 2.010 . S
O547 Mg546 2.028 . S
O547 C550 1.250 . S
O548 Mg549 2.028 . S
O548 C550 1.248 . S
Mg549 O548 2.028 . S
Mg549 O554 2.032 . S
Mg549 O556 2.079 . S
C550 O547 1.250 . S
C550 O548 1.248 . S
C551 O552 1.264 . S
C551 O559 1.249 . S
O552 C551 1.264 . S
O553 Mg546 1.986 . S
O553 C557 1.246 . S
O554 Mg549 2.032 . S
O554 C557 1.259 . S
O555 Mg546 2.114 . S
O555 C558 1.252 . S
O556 Mg546 2.251 . S
O556 Mg549 2.079 . S
O556 C558 1.273 . S
C557 O553 1.246 . S
C557 O554 1.259 . S
C558 O555 1.252 . S
C558 O556 1.273 . S
O559 Mg546 2.010 . S
O559 C551 1.249 . S
Mg560 O561 2.028 . S
Mg560 O567 1.986 . S
Mg560 O569 2.114 . S
Mg560 O570 2.251 . S
Mg560 O573 2.010 . S
O561 Mg560 2.028 . S
O561 C564 1.250 . S
O562 Mg563 2.028 . S
O562 C564 1.248 . S
Mg563 O562 2.028 . S
Mg563 O568 2.032 . S
Mg563 O570 2.079 . S
C564 O561 1.250 . S
C564 O562 1.248 . S
C565 O566 1.264 . S
C565 O573 1.249 . S
O566 C565 1.264 . S
O567 Mg560 1.986 . S
O567 C571 1.246 . S
O568 Mg563 2.032 . S
O568 C571 1.259 . S
O569 Mg560 2.114 . S
O569 C572 1.252 . S
O570 Mg560 2.251 . S
O570 Mg563 2.079 . S
O570 C572 1.273 . S
C571 O567 1.246 . S
C571 O568 1.259 . S
C572 O569 1.252 . S
C572 O570 1.273 . S
O573 Mg560 2.010 . S
O573 C565 1.249 . S
Mg574 O575 2.028 . S
Mg574 O581 1.986 . S
Mg574 O583 2.114 . S
Mg574 O584 2.251 . S
Mg574 O587 2.010 . S
O575 Mg574 2.028 . S
O575 C578 1.250 . S
O576 Mg577 2.028 . S
O576 C578 1.248 . S
Mg577 O576 2.028 . S
Mg577 O582 2.032 . S
Mg577 O584 2.079 . S
C578 O575 1.250 . S
C578 O576 1.248 . S
C579 O580 1.264 . S
C579 O587 1.249 . S
O580 C579 1.264 . S
O581 Mg574 1.986 . S
O581 C585 1.246 . S
O582 Mg577 2.032 . S
O582 C585 1.259 . S
O583 Mg574 2.114 . S
O583 C586 1.252 . S
O584 Mg574 2.251 . S
O584 Mg577 2.079 . S
O584 C586 1.273 . S
C585 O581 1.246 . S
C585 O582 1.259 . S
C586 O583 1.252 . S
C586 O584 1.273 . S
O587 Mg574 2.010 . S
O587 C579 1.249 . S
Mg588 O589 2.028 . S
Mg588 O595 1.986 . S
Mg588 O597 2.114 . S
Mg588 O598 2.251 . S
Mg588 O601 2.010 . S
O589 Mg588 2.028 . S
O589 C592 1.250 . S
O590 Mg591 2.028 . S
O590 C592 1.248 . S
Mg591 O590 2.028 . S
Mg591 O596 2.032 . S
Mg591 O598 2.079 . S
C592 O589 1.250 . S
C592 O590 1.248 . S
C593 O594 1.264 . S
C593 O601 1.249 . S
O594 C593 1.264 . S
O595 Mg588 1.986 . S
O595 C599 1.246 . S
O596 Mg591 2.032 . S
O596 C599 1.259 . S
O597 Mg588 2.114 . S
O597 C600 1.252 . S
O598 Mg588 2.251 . S
O598 Mg591 2.079 . S
O598 C600 1.273 . S
C599 O595 1.246 . S
C599 O596 1.259 . S
C600 O597 1.252 . S
C600 O598 1.273 . S
O601 Mg588 2.010 . S
O601 C593 1.249 . S
Mg602 O603 2.028 . S
Mg602 O609 1.986 . S
Mg602 O611 2.114 . S
Mg602 O612 2.251 . S
Mg602 O615 2.010 . S
O603 Mg602 2.028 . S
O603 C606 1.250 . S
O604 Mg605 2.028 . S
O604 C606 1.248 . S
Mg605 O604 2.028 . S
Mg605 O610 2.032 . S
Mg605 O612 2.079 . S
C606 O603 1.250 . S
C606 O604 1.248 . S
C607 O608 1.264 . S
C607 O615 1.249 . S
O608 C607 1.264 . S
O609 Mg602 1.986 . S
O609 C613 1.246 . S
O610 Mg605 2.032 . S
O610 C613 1.259 . S
O611 Mg602 2.114 . S
O611 C614 1.252 . S
O612 Mg602 2.251 . S
O612 Mg605 2.079 . S
O612 C614 1.273 . S
C613 O609 1.246 . S
C613 O610 1.259 . S
C614 O611 1.252 . S
C614 O612 1.273 . S
O615 Mg602 2.010 . S
O615 C607 1.249 . S
Mg616 O617 2.028 . S
Mg616 O623 1.986 . S
Mg616 O625 2.114 . S
Mg616 O626 2.251 . S
Mg616 O629 2.010 . S
O617 Mg616 2.028 . S
O617 C620 1.250 . S
O618 Mg619 2.028 . S
O618 C620 1.248 . S
Mg619 O618 2.028 . S
Mg619 O624 2.032 . S
Mg619 O626 2.079 . S
C620 O617 1.250 . S
C620 O618 1.248 . S
C621 O622 1.264 . S
C621 O629 1.249 . S
O622 C621 1.264 . S
O623 Mg616 1.986 . S
O623 C627 1.246 . S
O624 Mg619 2.032 . S
O624 C627 1.259 . S
O625 Mg616 2.114 . S
O625 C628 1.252 . S
O626 Mg616 2.251 . S
O626 Mg619 2.079 . S
O626 C628 1.273 . S
C627 O623 1.246 . S
C627 O624 1.259 . S
C628 O625 1.252 . S
C628 O626 1.273 . S
O629 Mg616 2.010 . S
O629 C621 1.249 . S
Mg630 O631 2.028 . S
Mg630 O637 1.986 . S
Mg630 O639 2.114 . S
Mg630 O640 2.251 . S
Mg630 O643 2.010 . S
O631 Mg630 2.028 . S
O631 C634 1.250 . S
O632 Mg633 2.028 . S
O632 C634 1.248 . S
Mg633 O632 2.028 . S
Mg633 O638 2.032 . S
Mg633 O640 2.079 . S
C634 O631 1.250 . S
C634 O632 1.248 . S
C635 O636 1.264 . S
C635 O643 1.249 . S
O636 C635 1.264 . S
O637 Mg630 1.986 . S
O637 C641 1.246 . S
O638 Mg633 2.032 . S
O638 C641 1.259 . S
O639 Mg630 2.114 . S
O639 C642 1.252 . S
O640 Mg630 2.251 . S
O640 Mg633 2.079 . S
O640 C642 1.273 . S
C641 O637 1.246 . S
C641 O638 1.259 . S
C642 O639 1.252 . S
C642 O640 1.273 . S
O643 Mg630 2.010 . S
O643 C635 1.249 . S
Mg644 O645 2.028 . S
Mg644 O651 1.986 . S
Mg644 O653 2.114 . S
Mg644 O654 2.251 . S
Mg644 O657 2.010 . S
O645 Mg644 2.028 . S
O645 C648 1.250 . S
O646 Mg647 2.028 . S
O646 C648 1.248 . S
Mg647 O646 2.028 . S
Mg647 O652 2.032 . S
Mg647 O654 2.079 . S
C648 O645 1.250 . S
C648 O646 1.248 . S
C649 O650 1.264 . S
C649 O657 1.249 . S
O650 C649 1.264 . S
O651 Mg644 1.986 . S
O651 C655 1.246 . S
O652 Mg647 2.032 . S
O652 C655 1.259 . S
O653 Mg644 2.114 . S
O653 C656 1.252 . S
O654 Mg644 2.251 . S
O654 Mg647 2.079 . S
O654 C656 1.273 . S
C655 O651 1.246 . S
C655 O652 1.259 . S
C656 O653 1.252 . S
C656 O654 1.273 . S
O657 Mg644 2.010 . S
O657 C649 1.249 . S
Mg658 O659 2.028 . S
Mg658 O665 1.986 . S
Mg658 O667 2.114 . S
Mg658 O668 2.251 . S
Mg658 O671 2.010 . S
O659 Mg658 2.028 . S
O659 C662 1.250 . S
O660 Mg661 2.028 . S
O660 C662 1.248 . S
Mg661 O660 2.028 . S
Mg661 O666 2.032 . S
Mg661 O668 2.079 . S
C662 O659 1.250 . S
C662 O660 1.248 . S
C663 O664 1.264 . S
C663 O671 1.249 . S
O664 C663 1.264 . S
O665 Mg658 1.986 . S
O665 C669 1.246 . S
O666 Mg661 2.032 . S
O666 C669 1.259 . S
O667 Mg658 2.114 . S
O667 C670 1.252 . S
O668 Mg658 2.251 . S
O668 Mg661 2.079 . S
O668 C670 1.273 . S
C669 O665 1.246 . S
C669 O666 1.259 . S
C670 O667 1.252 . S
C670 O668 1.273 . S
O671 Mg658 2.010 . S
O671 C663 1.249 . S
C672 C673 1.369 . S
C672 C674 1.419 . S
C672 H676 0.930 . S
C673 C672 1.369 . S
C673 C682 1.429 . S
C674 C672 1.419 . S
C674 C675 1.363 . S
C674 H677 0.929 . S
C675 C674 1.363 . S
C675 C681 1.428 . S
H676 C672 0.930 . S
H677 C674 0.929 . S
S678 N679 1.613 . S
S678 N680 1.610 . S
N679 S678 1.613 . S
N679 C682 1.350 . S
N680 S678 1.610 . S
N680 C681 1.351 . S
C681 C675 1.428 . S
C681 N680 1.351 . S
C681 C682 1.434 . S
C682 C673 1.429 . S
C682 N679 1.350 . S
C682 C681 1.434 . S
C683 C684 1.369 . S
C683 C685 1.419 . S
C683 H687 0.930 . S
C684 C683 1.369 . S
C684 C693 1.429 . S
C685 C683 1.419 . S
C685 C686 1.363 . S
C685 H688 0.929 . S
C686 C685 1.363 . S
C686 C692 1.428 . S
H687 C683 0.930 . S
H688 C685 0.929 . S
S689 N690 1.613 . S
S689 N691 1.610 . S
N690 S689 1.613 . S
N690 C693 1.350 . S
N691 S689 1.610 . S
N691 C692 1.351 . S
C692 C686 1.428 . S
C692 N691 1.351 . S
C692 C693 1.434 . S
C693 C684 1.429 . S
C693 N690 1.350 . S
C693 C692 1.434 . S
C694 C695 1.369 . S
C694 C696 1.419 . S
C694 H698 0.930 . S
C695 C694 1.369 . S
C695 C704 1.429 . S
C696 C694 1.419 . S
C696 C697 1.363 . S
C696 H699 0.929 . S
C697 C696 1.363 . S
C697 C703 1.428 . S
H698 C694 0.930 . S
H699 C696 0.929 . S
S700 N701 1.613 . S
S700 N702 1.610 . S
N701 S700 1.613 . S
N701 C704 1.350 . S
N702 S700 1.610 . S
N702 C703 1.351 . S
C703 C697 1.428 . S
C703 N702 1.351 . S
C703 C704 1.434 . S
C704 C695 1.429 . S
C704 N701 1.350 . S
C704 C703 1.434 . S
C705 C706 1.369 . S
C705 C707 1.419 . S
C705 H709 0.930 . S
C706 C705 1.369 . S
C706 C715 1.429 . S
C707 C705 1.419 . S
C707 C708 1.363 . S
C707 H710 0.929 . S
C708 C707 1.363 . S
C708 C714 1.428 . S
H709 C705 0.930 . S
H710 C707 0.929 . S
S711 N712 1.613 . S
S711 N713 1.610 . S
N712 S711 1.613 . S
N712 C715 1.350 . S
N713 S711 1.610 . S
N713 C714 1.351 . S
C714 C708 1.428 . S
C714 N713 1.351 . S
C714 C715 1.434 . S
C715 C706 1.429 . S
C715 N712 1.350 . S
C715 C714 1.434 . S
C716 C717 1.369 . S
C716 C718 1.419 . S
C716 H720 0.930 . S
C717 C716 1.369 . S
C717 C726 1.429 . S
C718 C716 1.419 . S
C718 C719 1.363 . S
C718 H721 0.929 . S
C719 C718 1.363 . S
C719 C725 1.428 . S
H720 C716 0.930 . S
H721 C718 0.929 . S
S722 N723 1.613 . S
S722 N724 1.610 . S
N723 S722 1.613 . S
N723 C726 1.350 . S
N724 S722 1.610 . S
N724 C725 1.351 . S
C725 C719 1.428 . S
C725 N724 1.351 . S
C725 C726 1.434 . S
C726 C717 1.429 . S
C726 N723 1.350 . S
C726 C725 1.434 . S
C727 C728 1.369 . S
C727 C729 1.419 . S
C727 H731 0.930 . S
C728 C727 1.369 . S
C728 C737 1.429 . S
C729 C727 1.419 . S
C729 C730 1.363 . S
C729 H732 0.929 . S
C730 C729 1.363 . S
C730 C736 1.428 . S
H731 C727 0.930 . S
H732 C729 0.929 . S
S733 N734 1.613 . S
S733 N735 1.610 . S
N734 S733 1.613 . S
N734 C737 1.350 . S
N735 S733 1.610 . S
N735 C736 1.351 . S
C736 C730 1.428 . S
C736 N735 1.351 . S
C736 C737 1.434 . S
C737 C728 1.429 . S
C737 N734 1.350 . S
C737 C736 1.434 . S
C738 C739 1.369 . S
C738 C740 1.419 . S
C738 H742 0.930 . S
C739 C738 1.369 . S
C739 C748 1.429 . S
C740 C738 1.419 . S
C740 C741 1.363 . S
C740 H743 0.929 . S
C741 C740 1.363 . S
C741 C747 1.428 . S
H742 C738 0.930 . S
H743 C740 0.929 . S
S744 N745 1.613 . S
S744 N746 1.610 . S
N745 S744 1.613 . S
N745 C748 1.350 . S
N746 S744 1.610 . S
N746 C747 1.351 . S
C747 C741 1.428 . S
C747 N746 1.351 . S
C747 C748 1.434 . S
C748 C739 1.429 . S
C748 N745 1.350 . S
C748 C747 1.434 . S
C749 C750 1.369 . S
C749 C751 1.419 . S
C749 H753 0.930 . S
C750 C749 1.369 . S
C750 C759 1.429 . S
C751 C749 1.419 . S
C751 C752 1.363 . S
C751 H754 0.929 . S
C752 C751 1.363 . S
C752 C758 1.428 . S
H753 C749 0.930 . S
H754 C751 0.929 . S
S755 N756 1.613 . S
S755 N757 1.610 . S
N756 S755 1.613 . S
N756 C759 1.350 . S
N757 S755 1.610 . S
N757 C758 1.351 . S
C758 C752 1.428 . S
C758 N757 1.351 . S
C758 C759 1.434 . S
C759 C750 1.429 . S
C759 N756 1.350 . S
C759 C758 1.434 . S
C760 C761 1.369 . S
C760 C762 1.419 . S
C760 H764 0.930 . S
C761 C760 1.369 . S
C761 C770 1.429 . S
C762 C760 1.419 . S
C762 C763 1.363 . S
C762 H765 0.929 . S
C763 C762 1.363 . S
C763 C769 1.428 . S
H764 C760 0.930 . S
H765 C762 0.929 . S
S766 N767 1.613 . S
S766 N768 1.610 . S
N767 S766 1.613 . S
N767 C770 1.350 . S
N768 S766 1.610 . S
N768 C769 1.351 . S
C769 C763 1.428 . S
C769 N768 1.351 . S
C769 C770 1.434 . S
C770 C761 1.429 . S
C770 N767 1.350 . S
C770 C769 1.434 . S
C771 C772 1.369 . S
C771 C773 1.419 . S
C771 H775 0.930 . S
C772 C771 1.369 . S
C772 C781 1.429 . S
C773 C771 1.419 . S
C773 C774 1.363 . S
C773 H776 0.929 . S
C774 C773 1.363 . S
C774 C780 1.428 . S
H775 C771 0.930 . S
H776 C773 0.929 . S
S777 N778 1.613 . S
S777 N779 1.610 . S
N778 S777 1.613 . S
N778 C781 1.350 . S
N779 S777 1.610 . S
N779 C780 1.351 . S
C780 C774 1.428 . S
C780 N779 1.351 . S
C780 C781 1.434 . S
C781 C772 1.429 . S
C781 N778 1.350 . S
C781 C780 1.434 . S
C782 C783 1.369 . S
C782 C784 1.419 . S
C782 H786 0.930 . S
C783 C782 1.369 . S
C783 C792 1.429 . S
C784 C782 1.419 . S
C784 C785 1.363 . S
C784 H787 0.929 . S
C785 C784 1.363 . S
C785 C791 1.428 . S
H786 C782 0.930 . S
H787 C784 0.929 . S
S788 N789 1.613 . S
S788 N790 1.610 . S
N789 S788 1.613 . S
N789 C792 1.350 . S
N790 S788 1.610 . S
N790 C791 1.351 . S
C791 C785 1.428 . S
C791 N790 1.351 . S
C791 C792 1.434 . S
C792 C783 1.429 . S
C792 N789 1.350 . S
C792 C791 1.434 . S
C793 C794 1.369 . S
C793 C795 1.419 . S
C793 H797 0.930 . S
C794 C793 1.369 . S
C794 C803 1.429 . S
C795 C793 1.419 . S
C795 C796 1.363 . S
C795 H798 0.929 . S
C796 C795 1.363 . S
C796 C802 1.428 . S
H797 C793 0.930 . S
H798 C795 0.929 . S
S799 N800 1.613 . S
S799 N801 1.610 . S
N800 S799 1.613 . S
N800 C803 1.350 . S
N801 S799 1.610 . S
N801 C802 1.351 . S
C802 C796 1.428 . S
C802 N801 1.351 . S
C802 C803 1.434 . S
C803 C794 1.429 . S
C803 N800 1.350 . S
C803 C802 1.434 . S
C804 C805 1.369 . S
C804 C806 1.419 . S
C804 H808 0.930 . S
C805 C804 1.369 . S
C805 C814 1.429 . S
C806 C804 1.419 . S
C806 C807 1.363 . S
C806 H809 0.929 . S
C807 C806 1.363 . S
C807 C813 1.428 . S
H808 C804 0.930 . S
H809 C806 0.929 . S
S810 N811 1.613 . S
S810 N812 1.610 . S
N811 S810 1.613 . S
N811 C814 1.350 . S
N812 S810 1.610 . S
N812 C813 1.351 . S
C813 C807 1.428 . S
C813 N812 1.351 . S
C813 C814 1.434 . S
C814 C805 1.429 . S
C814 N811 1.350 . S
C814 C813 1.434 . S
C815 C816 1.369 . S
C815 C817 1.419 . S
C815 H819 0.930 . S
C816 C815 1.369 . S
C816 C825 1.429 . S
C817 C815 1.419 . S
C817 C818 1.363 . S
C817 H820 0.929 . S
C818 C817 1.363 . S
C818 C824 1.428 . S
H819 C815 0.930 . S
H820 C817 0.929 . S
S821 N822 1.613 . S
S821 N823 1.610 . S
N822 S821 1.613 . S
N822 C825 1.350 . S
N823 S821 1.610 . S
N823 C824 1.351 . S
C824 C818 1.428 . S
C824 N823 1.351 . S
C824 C825 1.434 . S
C825 C816 1.429 . S
C825 N822 1.350 . S
C825 C824 1.434 . S
C826 C827 1.369 . S
C826 C828 1.419 . S
C826 H830 0.930 . S
C827 C826 1.369 . S
C827 C836 1.429 . S
C828 C826 1.419 . S
C828 C829 1.363 . S
C828 H831 0.929 . S
C829 C828 1.363 . S
C829 C835 1.428 . S
H830 C826 0.930 . S
H831 C828 0.929 . S
S832 N833 1.613 . S
S832 N834 1.610 . S
N833 S832 1.613 . S
N833 C836 1.350 . S
N834 S832 1.610 . S
N834 C835 1.351 . S
C835 C829 1.428 . S
C835 N834 1.351 . S
C835 C836 1.434 . S
C836 C827 1.429 . S
C836 N833 1.350 . S
C836 C835 1.434 . S
C837 C838 1.369 . S
C837 C839 1.419 . S
C837 H841 0.930 . S
C838 C837 1.369 . S
C838 C847 1.429 . S
C839 C837 1.419 . S
C839 C840 1.363 . S
C839 H842 0.929 . S
C840 C839 1.363 . S
C840 C846 1.428 . S
H841 C837 0.930 . S
H842 C839 0.929 . S
S843 N844 1.613 . S
S843 N845 1.610 . S
N844 S843 1.613 . S
N844 C847 1.350 . S
N845 S843 1.610 . S
N845 C846 1.351 . S
C846 C840 1.428 . S
C846 N845 1.351 . S
C846 C847 1.434 . S
C847 C838 1.429 . S
C847 N844 1.350 . S
C847 C846 1.434 . S
C848 C849 1.369 . S
C848 C850 1.419 . S
C848 H852 0.930 . S
C849 C848 1.369 . S
C849 C858 1.429 . S
C850 C848 1.419 . S
C850 C851 1.363 . S
C850 H853 0.929 . S
C851 C850 1.363 . S
C851 C857 1.428 . S
H852 C848 0.930 . S
H853 C850 0.929 . S
S854 N855 1.613 . S
S854 N856 1.610 . S
N855 S854 1.613 . S
N855 C858 1.350 . S
N856 S854 1.610 . S
N856 C857 1.351 . S
C857 C851 1.428 . S
C857 N856 1.351 . S
C857 C858 1.434 . S
C858 C849 1.429 . S
C858 N855 1.350 . S
C858 C857 1.434 . S
C859 C860 1.369 . S
C859 C861 1.419 . S
C859 H863 0.930 . S
C860 C859 1.369 . S
C860 C869 1.429 . S
C861 C859 1.419 . S
C861 C862 1.363 . S
C861 H864 0.929 . S
C862 C861 1.363 . S
C862 C868 1.428 . S
H863 C859 0.930 . S
H864 C861 0.929 . S
S865 N866 1.613 . S
S865 N867 1.610 . S
N866 S865 1.613 . S
N866 C869 1.350 . S
N867 S865 1.610 . S
N867 C868 1.351 . S
C868 C862 1.428 . S
C868 N867 1.351 . S
C868 C869 1.434 . S
C869 C860 1.429 . S
C869 N866 1.350 . S
C869 C868 1.434 . S
C870 C871 1.369 . S
C870 C872 1.419 . S
C870 H874 0.930 . S
C871 C870 1.369 . S
C871 C880 1.429 . S
C872 C870 1.419 . S
C872 C873 1.363 . S
C872 H875 0.929 . S
C873 C872 1.363 . S
C873 C879 1.428 . S
H874 C870 0.930 . S
H875 C872 0.929 . S
S876 N877 1.613 . S
S876 N878 1.610 . S
N877 S876 1.613 . S
N877 C880 1.350 . S
N878 S876 1.610 . S
N878 C879 1.351 . S
C879 C873 1.428 . S
C879 N878 1.351 . S
C879 C880 1.434 . S
C880 C871 1.429 . S
C880 N877 1.350 . S
C880 C879 1.434 . S
C881 C882 1.369 . S
C881 C883 1.419 . S
C881 H885 0.930 . S
C882 C881 1.369 . S
C882 C891 1.429 . S
C883 C881 1.419 . S
C883 C884 1.363 . S
C883 H886 0.929 . S
C884 C883 1.363 . S
C884 C890 1.428 . S
H885 C881 0.930 . S
H886 C883 0.929 . S
S887 N888 1.613 . S
S887 N889 1.610 . S
N888 S887 1.613 . S
N888 C891 1.350 . S
N889 S887 1.610 . S
N889 C890 1.351 . S
C890 C884 1.428 . S
C890 N889 1.351 . S
C890 C891 1.434 . S
C891 C882 1.429 . S
C891 N888 1.350 . S
C891 C890 1.434 . S
C892 C893 1.369 . S
C892 C894 1.419 . S
C892 H896 0.930 . S
C893 C892 1.369 . S
C893 C902 1.429 . S
C894 C892 1.419 . S
C894 C895 1.363 . S
C894 H897 0.929 . S
C895 C894 1.363 . S
C895 C901 1.428 . S
H896 C892 0.930 . S
H897 C894 0.929 . S
S898 N899 1.613 . S
S898 N900 1.610 . S
N899 S898 1.613 . S
N899 C902 1.350 . S
N900 S898 1.610 . S
N900 C901 1.351 . S
C901 C895 1.428 . S
C901 N900 1.351 . S
C901 C902 1.434 . S
C902 C893 1.429 . S
C902 N899 1.350 . S
C902 C901 1.434 . S
C903 C904 1.369 . S
C903 C905 1.419 . S
C903 H907 0.930 . S
C904 C903 1.369 . S
C904 C913 1.429 . S
C905 C903 1.419 . S
C905 C906 1.363 . S
C905 H908 0.929 . S
C906 C905 1.363 . S
C906 C912 1.428 . S
H907 C903 0.930 . S
H908 C905 0.929 . S
S909 N910 1.613 . S
S909 N911 1.610 . S
N910 S909 1.613 . S
N910 C913 1.350 . S
N911 S909 1.610 . S
N911 C912 1.351 . S
C912 C906 1.428 . S
C912 N911 1.351 . S
C912 C913 1.434 . S
C913 C904 1.429 . S
C913 N910 1.350 . S
C913 C912 1.434 . S
C914 C915 1.369 . S
C914 C916 1.419 . S
C914 H918 0.930 . S
C915 C914 1.369 . S
C915 C924 1.429 . S
C916 C914 1.419 . S
C916 C917 1.363 . S
C916 H919 0.929 . S
C917 C916 1.363 . S
C917 C923 1.428 . S
H918 C914 0.930 . S
H919 C916 0.929 . S
S920 N921 1.613 . S
S920 N922 1.610 . S
N921 S920 1.613 . S
N921 C924 1.350 . S
N922 S920 1.610 . S
N922 C923 1.351 . S
C923 C917 1.428 . S
C923 N922 1.351 . S
C923 C924 1.434 . S
C924 C915 1.429 . S
C924 N921 1.350 . S
C924 C923 1.434 . S
C925 C926 1.369 . S
C925 C927 1.419 . S
C925 H929 0.930 . S
C926 C925 1.369 . S
C926 C935 1.429 . S
C927 C925 1.419 . S
C927 C928 1.363 . S
C927 H930 0.929 . S
C928 C927 1.363 . S
C928 C934 1.428 . S
H929 C925 0.930 . S
H930 C927 0.929 . S
S931 N932 1.613 . S
S931 N933 1.610 . S
N932 S931 1.613 . S
N932 C935 1.350 . S
N933 S931 1.610 . S
N933 C934 1.351 . S
C934 C928 1.428 . S
C934 N933 1.351 . S
C934 C935 1.434 . S
C935 C926 1.429 . S
C935 N932 1.350 . S
C935 C934 1.434 . S
C936 C937 1.369 . S
C936 C938 1.419 . S
C936 H940 0.930 . S
C937 C936 1.369 . S
C937 C946 1.429 1_655 S
C938 C936 1.419 . S
C938 C939 1.363 1_655 S
C938 H941 0.929 . S
C939 C938 1.363 1_455 S
C939 C945 1.428 . S
H940 C936 0.930 . S
H941 C938 0.929 . S
S942 N943 1.613 . S
S942 N944 1.610 . S
N943 S942 1.613 . S
N943 C946 1.350 . S
N944 S942 1.610 . S
N944 C945 1.351 . S
C945 C939 1.428 . S
C945 N944 1.351 . S
C945 C946 1.434 . S
C946 C937 1.429 1_455 S
C946 N943 1.350 . S
C946 C945 1.434 . S
C947 C948 1.369 . S
C947 C949 1.419 . S
C947 H951 0.930 . S
C948 C947 1.369 . S
C948 C957 1.429 1_565 S
C949 C947 1.419 . S
C949 C950 1.363 1_565 S
C949 H952 0.929 . S
C950 C949 1.363 1_545 S
C950 C956 1.428 . S
H951 C947 0.930 . S
H952 C949 0.929 . S
S953 N954 1.613 . S
S953 N955 1.610 . S
N954 S953 1.613 . S
N954 C957 1.350 . S
N955 S953 1.610 . S
N955 C956 1.351 . S
C956 C950 1.428 . S
C956 N955 1.351 . S
C956 C957 1.434 . S
C957 C948 1.429 1_545 S
C957 N954 1.350 . S
C957 C956 1.434 . S
C958 C959 1.369 . S
C958 C960 1.419 1_655 S
C958 H962 0.930 . S
C959 C958 1.369 . S
C959 C968 1.429 . S
C960 C958 1.419 1_455 S
C960 C961 1.363 . S
C960 H963 0.929 . S
C961 C960 1.363 . S
C961 C967 1.428 . S
H962 C958 0.930 . S
H963 C960 0.929 . S
S964 N965 1.622 . S
S964 N966 1.610 . S
N965 S964 1.622 . S
N965 C968 1.349 1_455 S
N966 S964 1.610 . S
N966 C967 1.351 . S
C967 C961 1.428 . S
C967 N966 1.351 . S
C967 C968 1.434 1_455 S
C968 C959 1.429 . S
C968 N965 1.349 1_655 S
C968 C967 1.434 1_655 S
C969 C970 1.369 1_565 S
C969 C971 1.419 . S
C969 H973 0.930 . S
C970 C969 1.369 1_545 S
C970 C979 1.429 . S
C971 C969 1.419 . S
C971 C972 1.363 . S
C971 H974 0.929 . S
C972 C971 1.363 . S
C972 C978 1.428 1_565 S
H973 C969 0.930 . S
H974 C971 0.929 . S
S975 N976 1.613 . S
S975 N977 1.610 . S
N976 S975 1.613 . S
N976 C979 1.350 . S
N977 S975 1.610 . S
N977 C978 1.351 . S
C978 C972 1.428 1_545 S
C978 N977 1.351 . S
C978 C979 1.434 . S
C979 C970 1.429 . S
C979 N976 1.350 . S
C979 C978 1.434 . S
C980 C981 1.369 . S
C980 C982 1.419 . S
C980 H984 0.930 . S
C981 C980 1.369 . S
C981 C990 1.429 1_455 S
C982 C980 1.419 . S
C982 C983 1.363 1_455 S
C982 H985 0.929 . S
C983 C982 1.363 1_655 S
C983 C989 1.428 . S
H984 C980 0.930 . S
H985 C982 0.929 . S
S986 N987 1.613 . S
S986 N988 1.610 . S
N987 S986 1.613 . S
N987 C990 1.350 . S
N988 S986 1.610 . S
N988 C989 1.351 . S
C989 C983 1.428 . S
C989 N988 1.351 . S
C989 C990 1.434 . S
C990 C981 1.429 1_655 S
C990 N987 1.350 . S
C990 C989 1.434 . S
C991 C992 1.369 1_545 S
C991 C993 1.419 . S
C991 H995 0.930 . S
C992 C991 1.369 1_565 S
C992 C1001 1.429 . S
C993 C991 1.419 . S
C993 C994 1.363 . S
C993 H996 0.929 . S
C994 C993 1.363 . S
C994 C1000 1.428 1_545 S
H995 C991 0.930 . S
H996 C993 0.929 . S
S997 N998 1.613 . S
S997 N999 1.610 . S
N998 S997 1.613 . S
N998 C1001 1.350 . S
N999 S997 1.610 . S
N999 C1000 1.351 . S
C1000 C994 1.428 1_565 S
C1000 N999 1.351 . S
C1000 C1001 1.434 . S
C1001 C992 1.429 . S
C1001 N998 1.350 . S
C1001 C1000 1.434 . S
C1002 C1003 1.369 . S
C1002 C1004 1.419 . S
C1002 H1006 0.930 . S
C1003 C1002 1.369 . S
C1003 C1012 1.429 1_455 S
C1004 C1002 1.419 . S
C1004 C1005 1.363 1_455 S
C1004 H1007 0.929 . S
C1005 C1004 1.363 1_655 S
C1005 C1011 1.428 . S
H1006 C1002 0.930 . S
H1007 C1004 0.929 . S
S1008 N1009 1.613 . S
S1008 N1010 1.610 . S
N1009 S1008 1.613 . S
N1009 C1012 1.350 . S
N1010 S1008 1.610 . S
N1010 C1011 1.351 . S
C1011 C1005 1.428 . S
C1011 N1010 1.351 . S
C1011 C1012 1.434 . S
C1012 C1003 1.429 1_655 S
C1012 N1009 1.350 . S
C1012 C1011 1.434 . S
C1013 C1014 1.369 1_565 S
C1013 C1015 1.419 . S
C1013 H1017 0.930 . S
C1014 C1013 1.369 1_545 S
C1014 C1023 1.429 . S
C1015 C1013 1.419 . S
C1015 C1016 1.363 . S
C1015 H1018 0.929 . S
C1016 C1015 1.363 . S
C1016 C1022 1.428 1_565 S
H1017 C1013 0.930 . S
H1018 C1015 0.929 . S
S1019 N1020 1.613 . S
S1019 N1021 1.610 . S
N1020 S1019 1.613 . S
N1020 C1023 1.350 . S
N1021 S1019 1.610 . S
N1021 C1022 1.351 . S
C1022 C1016 1.428 1_545 S
C1022 N1021 1.351 . S
C1022 C1023 1.434 . S
C1023 C1014 1.429 . S
C1023 N1020 1.350 . S
C1023 C1022 1.434 . S
C1024 C1025 1.370 1_554 S
C1024 C1026 1.418 . S
C1024 H1028 0.930 . S
C1025 C1024 1.370 1_556 S
C1025 C1034 1.429 . S
C1026 C1024 1.418 . S
C1026 C1027 1.363 . S
C1026 H1029 0.929 . S
C1027 C1026 1.363 . S
C1027 C1033 1.428 1_554 S
H1028 C1024 0.930 . S
H1029 C1026 0.929 . S
S1030 N1031 1.613 . S
S1030 N1032 1.610 . S
N1031 S1030 1.613 . S
N1031 C1034 1.350 . S
N1032 S1030 1.610 . S
N1032 C1033 1.351 . S
C1033 C1027 1.428 1_556 S
C1033 N1032 1.351 . S
C1033 C1034 1.434 . S
C1034 C1025 1.429 . S
C1034 N1031 1.350 . S
C1034 C1033 1.434 . S
C1035 C1036 1.369 . S
C1035 C1037 1.419 . S
C1035 H1039 0.930 . S
C1036 C1035 1.369 . S
C1036 C1045 1.429 1_554 S
C1037 C1035 1.419 . S
C1037 C1038 1.363 1_554 S
C1037 H1040 0.929 . S
C1038 C1037 1.363 1_556 S
C1038 C1044 1.428 . S
H1039 C1035 0.930 . S
H1040 C1037 0.929 . S
S1041 N1042 1.613 . S
S1041 N1043 1.610 . S
N1042 S1041 1.613 . S
N1042 C1045 1.350 . S
N1043 S1041 1.610 . S
N1043 C1044 1.351 . S
C1044 C1038 1.428 . S
C1044 N1043 1.351 . S
C1044 C1045 1.434 . S
C1045 C1036 1.429 1_556 S
C1045 N1042 1.350 . S
C1045 C1044 1.434 . S
C1046 C1047 1.369 1_556 S
C1046 C1048 1.419 . S
C1046 H1050 0.930 . S
C1047 C1046 1.369 1_554 S
C1047 C1056 1.429 . S
C1048 C1046 1.419 . S
C1048 C1049 1.363 . S
C1048 H1051 0.929 . S
C1049 C1048 1.363 . S
C1049 C1055 1.428 1_556 S
H1050 C1046 0.930 . S
H1051 C1048 0.929 . S
S1052 N1053 1.613 . S
S1052 N1054 1.610 . S
N1053 S1052 1.613 . S
N1053 C1056 1.350 . S
N1054 S1052 1.610 . S
N1054 C1055 1.351 . S
C1055 C1049 1.428 1_554 S
C1055 N1054 1.351 . S
C1055 C1056 1.434 . S
C1056 C1047 1.429 . S
C1056 N1053 1.350 . S
C1056 C1055 1.434 . S
C1057 C1058 1.369 . S
C1057 C1059 1.419 1_556 S
C1057 H1061 0.930 . S
C1058 C1057 1.369 . S
C1058 C1067 1.429 . S
C1059 C1057 1.419 1_554 S
C1059 C1060 1.363 . S
C1059 H1062 0.929 . S
C1060 C1059 1.363 . S
C1060 C1066 1.428 . S
H1061 C1057 0.930 . S
H1062 C1059 0.929 . S
S1063 N1064 1.613 . S
S1063 N1065 1.610 1_556 S
N1064 S1063 1.613 . S
N1064 C1067 1.350 . S
N1065 S1063 1.610 1_554 S
N1065 C1066 1.351 . S
C1066 C1060 1.428 . S
C1066 N1065 1.351 . S
C1066 C1067 1.434 1_554 S
C1067 C1058 1.429 . S
C1067 N1064 1.350 . S
C1067 C1066 1.434 1_556 S
C1068 C1069 1.369 . S
C1068 C1070 1.419 . S
C1068 H1072 0.930 . S
C1069 C1068 1.369 . S
C1069 C1078 1.429 . S
C1070 C1068 1.419 . S
C1070 C1071 1.363 . S
C1070 H1073 0.929 . S
C1071 C1070 1.363 . S
C1071 C1077 1.428 . S
H1072 C1068 0.930 . S
H1073 C1070 0.929 . S
S1074 N1075 1.613 . S
S1074 N1076 1.610 . S
N1075 S1074 1.613 . S
N1075 C1078 1.350 . S
N1076 S1074 1.610 . S
N1076 C1077 1.351 . S
C1077 C1071 1.428 . S
C1077 N1076 1.351 . S
C1077 C1078 1.434 . S
C1078 C1069 1.429 . S
C1078 N1075 1.350 . S
C1078 C1077 1.434 . S
C1079 C1080 1.369 . S
C1079 C1081 1.419 . S
C1079 H1083 0.930 . S
C1080 C1079 1.369 . S
C1080 C1089 1.429 . S
C1081 C1079 1.419 . S
C1081 C1082 1.363 . S
C1081 H1084 0.929 . S
C1082 C1081 1.363 . S
C1082 C1088 1.428 . S
H1083 C1079 0.930 . S
H1084 C1081 0.929 . S
S1085 N1086 1.613 . S
S1085 N1087 1.610 . S
N1086 S1085 1.613 . S
N1086 C1089 1.350 . S
N1087 S1085 1.610 . S
N1087 C1088 1.351 . S
C1088 C1082 1.428 . S
C1088 N1087 1.351 . S
C1088 C1089 1.434 . S
C1089 C1080 1.429 . S
C1089 N1086 1.350 . S
C1089 C1088 1.434 . S
C1090 C1091 1.369 . S
C1090 C1092 1.419 . S
C1090 H1094 0.930 . S
C1091 C1090 1.369 . S
C1091 C1100 1.429 . S
C1092 C1090 1.419 . S
C1092 C1093 1.363 . S
C1092 H1095 0.929 . S
C1093 C1092 1.363 . S
C1093 C1099 1.428 . S
H1094 C1090 0.930 . S
H1095 C1092 0.929 . S
S1096 N1097 1.613 . S
S1096 N1098 1.610 . S
N1097 S1096 1.613 . S
N1097 C1100 1.350 . S
N1098 S1096 1.610 . S
N1098 C1099 1.351 . S
C1099 C1093 1.428 . S
C1099 N1098 1.351 . S
C1099 C1100 1.434 . S
C1100 C1091 1.429 . S
C1100 N1097 1.350 . S
C1100 C1099 1.434 . S
C1101 C1102 1.369 . S
C1101 C1103 1.419 . S
C1101 H1105 0.930 . S
C1102 C1101 1.369 . S
C1102 C1111 1.429 . S
C1103 C1101 1.419 . S
C1103 C1104 1.363 . S
C1103 H1106 0.929 . S
C1104 C1103 1.363 . S
C1104 C1110 1.428 . S
H1105 C1101 0.930 . S
H1106 C1103 0.929 . S
S1107 N1108 1.613 . S
S1107 N1109 1.610 . S
N1108 S1107 1.613 . S
N1108 C1111 1.350 . S
N1109 S1107 1.610 . S
N1109 C1110 1.351 . S
C1110 C1104 1.428 . S
C1110 N1109 1.351 . S
C1110 C1111 1.434 . S
C1111 C1102 1.429 . S
C1111 N1108 1.350 . S
C1111 C1110 1.434 . S
C1112 C1113 1.369 . S
C1112 C1114 1.419 . S
C1112 H1116 0.930 . S
C1113 C1112 1.369 . S
C1113 C1122 1.429 . S
C1114 C1112 1.419 . S
C1114 C1115 1.363 . S
C1114 H1117 0.929 . S
C1115 C1114 1.363 . S
C1115 C1121 1.428 . S
H1116 C1112 0.930 . S
H1117 C1114 0.929 . S
S1118 N1119 1.613 . S
S1118 N1120 1.610 . S
N1119 S1118 1.613 . S
N1119 C1122 1.350 . S
N1120 S1118 1.610 . S
N1120 C1121 1.351 . S
C1121 C1115 1.428 . S
C1121 N1120 1.351 . S
C1121 C1122 1.434 . S
C1122 C1113 1.429 . S
C1122 N1119 1.350 . S
C1122 C1121 1.434 . S
C1123 C1124 1.369 . S
C1123 C1125 1.419 . S
C1123 H1127 0.930 . S
C1124 C1123 1.369 . S
C1124 C1133 1.429 . S
C1125 C1123 1.419 . S
C1125 C1126 1.363 . S
C1125 H1128 0.929 . S
C1126 C1125 1.363 . S
C1126 C1132 1.428 . S
H1127 C1123 0.930 . S
H1128 C1125 0.929 . S
S1129 N1130 1.613 . S
S1129 N1131 1.610 . S
N1130 S1129 1.613 . S
N1130 C1133 1.350 . S
N1131 S1129 1.610 . S
N1131 C1132 1.351 . S
C1132 C1126 1.428 . S
C1132 N1131 1.351 . S
C1132 C1133 1.434 . S
C1133 C1124 1.429 . S
C1133 N1130 1.350 . S
C1133 C1132 1.434 . S
C1134 C1135 1.369 . S
C1134 C1136 1.419 . S
C1134 H1138 0.930 . S
C1135 C1134 1.369 . S
C1135 C1144 1.429 . S
C1136 C1134 1.419 . S
C1136 C1137 1.363 . S
C1136 H1139 0.929 . S
C1137 C1136 1.363 . S
C1137 C1143 1.428 . S
H1138 C1134 0.930 . S
H1139 C1136 0.929 . S
S1140 N1141 1.613 . S
S1140 N1142 1.610 . S
N1141 S1140 1.613 . S
N1141 C1144 1.350 . S
N1142 S1140 1.610 . S
N1142 C1143 1.351 . S
C1143 C1137 1.428 . S
C1143 N1142 1.351 . S
C1143 C1144 1.434 . S
C1144 C1135 1.429 . S
C1144 N1141 1.350 . S
C1144 C1143 1.434 . S
C1145 C1146 1.369 . S
C1145 C1147 1.419 . S
C1145 H1149 0.930 . S
C1146 C1145 1.369 . S
C1146 C1155 1.429 . S
C1147 C1145 1.419 . S
C1147 C1148 1.363 . S
C1147 H1150 0.929 . S
C1148 C1147 1.363 . S
C1148 C1154 1.428 . S
H1149 C1145 0.930 . S
H1150 C1147 0.929 . S
S1151 N1152 1.613 . S
S1151 N1153 1.610 . S
N1152 S1151 1.613 . S
N1152 C1155 1.350 . S
N1153 S1151 1.610 . S
N1153 C1154 1.351 . S
C1154 C1148 1.428 . S
C1154 N1153 1.351 . S
C1154 C1155 1.434 . S
C1155 C1146 1.429 . S
C1155 N1152 1.350 . S
C1155 C1154 1.434 . S
C1156 C1157 1.369 . S
C1156 C1158 1.419 . S
C1156 H1160 0.930 . S
C1157 C1156 1.369 . S
C1157 C1166 1.429 . S
C1158 C1156 1.419 . S
C1158 C1159 1.363 . S
C1158 H1161 0.929 . S
C1159 C1158 1.363 . S
C1159 C1165 1.428 . S
H1160 C1156 0.930 . S
H1161 C1158 0.929 . S
S1162 N1163 1.613 . S
S1162 N1164 1.610 . S
N1163 S1162 1.613 . S
N1163 C1166 1.350 . S
N1164 S1162 1.610 . S
N1164 C1165 1.351 . S
C1165 C1159 1.428 . S
C1165 N1164 1.351 . S
C1165 C1166 1.434 . S
C1166 C1157 1.429 . S
C1166 N1163 1.350 . S
C1166 C1165 1.434 . S
C1167 C1168 1.369 . S
C1167 C1169 1.419 . S
C1167 H1171 0.930 . S
C1168 C1167 1.369 . S
C1168 C1177 1.429 . S
C1169 C1167 1.419 . S
C1169 C1170 1.363 . S
C1169 H1172 0.929 . S
C1170 C1169 1.363 . S
C1170 C1176 1.428 . S
H1171 C1167 0.930 . S
H1172 C1169 0.929 . S
S1173 N1174 1.613 . S
S1173 N1175 1.610 . S
N1174 S1173 1.613 . S
N1174 C1177 1.350 . S
N1175 S1173 1.610 . S
N1175 C1176 1.351 . S
C1176 C1170 1.428 . S
C1176 N1175 1.351 . S
C1176 C1177 1.434 . S
C1177 C1168 1.429 . S
C1177 N1174 1.350 . S
C1177 C1176 1.434 . S
C1178 C1179 1.369 . S
C1178 C1180 1.419 . S
C1178 H1182 0.930 . S
C1179 C1178 1.369 . S
C1179 C1188 1.429 . S
C1180 C1178 1.419 . S
C1180 C1181 1.363 . S
C1180 H1183 0.929 . S
C1181 C1180 1.363 . S
C1181 C1187 1.428 . S
H1182 C1178 0.930 . S
H1183 C1180 0.929 . S
S1184 N1185 1.613 . S
S1184 N1186 1.610 . S
N1185 S1184 1.613 . S
N1185 C1188 1.350 . S
N1186 S1184 1.610 . S
N1186 C1187 1.351 . S
C1187 C1181 1.428 . S
C1187 N1186 1.351 . S
C1187 C1188 1.434 . S
C1188 C1179 1.429 . S
C1188 N1185 1.350 . S
C1188 C1187 1.434 . S
C1189 C1190 1.369 . S
C1189 C1191 1.419 . S
C1189 H1193 0.930 . S
C1190 C1189 1.369 . S
C1190 C1199 1.429 . S
C1191 C1189 1.419 . S
C1191 C1192 1.363 . S
C1191 H1194 0.929 . S
C1192 C1191 1.363 . S
C1192 C1198 1.428 . S
H1193 C1189 0.930 . S
H1194 C1191 0.929 . S
S1195 N1196 1.613 . S
S1195 N1197 1.610 . S
N1196 S1195 1.613 . S
N1196 C1199 1.350 . S
N1197 S1195 1.610 . S
N1197 C1198 1.351 . S
C1198 C1192 1.428 . S
C1198 N1197 1.351 . S
C1198 C1199 1.434 . S
C1199 C1190 1.429 . S
C1199 N1196 1.350 . S
C1199 C1198 1.434 . S
C1200 C1201 1.369 . S
C1200 C1202 1.419 . S
C1200 H1204 0.930 . S
C1201 C1200 1.369 . S
C1201 C1210 1.429 . S
C1202 C1200 1.419 . S
C1202 C1203 1.363 . S
C1202 H1205 0.929 . S
C1203 C1202 1.363 . S
C1203 C1209 1.428 . S
H1204 C1200 0.930 . S
H1205 C1202 0.929 . S
S1206 N1207 1.613 . S
S1206 N1208 1.610 . S
N1207 S1206 1.613 . S
N1207 C1210 1.350 . S
N1208 S1206 1.610 . S
N1208 C1209 1.351 . S
C1209 C1203 1.428 . S
C1209 N1208 1.351 . S
C1209 C1210 1.434 . S
C1210 C1201 1.429 . S
C1210 N1207 1.350 . S
C1210 C1209 1.434 . S
C1211 C1212 1.369 . S
C1211 C1213 1.419 . S
C1211 H1215 0.930 . S
C1212 C1211 1.369 . S
C1212 C1221 1.429 . S
C1213 C1211 1.419 . S
C1213 C1214 1.363 . S
C1213 H1216 0.929 . S
C1214 C1213 1.363 . S
C1214 C1220 1.428 . S
H1215 C1211 0.930 . S
H1216 C1213 0.929 . S
S1217 N1218 1.613 . S
S1217 N1219 1.610 . S
N1218 S1217 1.613 . S
N1218 C1221 1.350 . S
N1219 S1217 1.610 . S
N1219 C1220 1.351 . S
C1220 C1214 1.428 . S
C1220 N1219 1.351 . S
C1220 C1221 1.434 . S
C1221 C1212 1.429 . S
C1221 N1218 1.350 . S
C1221 C1220 1.434 . S
C1222 C1223 1.369 . S
C1222 C1224 1.419 . S
C1222 H1226 0.930 . S
C1223 C1222 1.369 . S
C1223 C1232 1.429 . S
C1224 C1222 1.419 . S
C1224 C1225 1.363 . S
C1224 H1227 0.929 . S
C1225 C1224 1.363 . S
C1225 C1231 1.428 . S
H1226 C1222 0.930 . S
H1227 C1224 0.929 . S
S1228 N1229 1.613 . S
S1228 N1230 1.610 . S
N1229 S1228 1.613 . S
N1229 C1232 1.350 . S
N1230 S1228 1.610 . S
N1230 C1231 1.351 . S
C1231 C1225 1.428 . S
C1231 N1230 1.351 . S
C1231 C1232 1.434 . S
C1232 C1223 1.429 . S
C1232 N1229 1.350 . S
C1232 C1231 1.434 . S
C1233 C1234 1.369 . S
C1233 C1235 1.419 . S
C1233 H1237 0.930 . S
C1234 C1233 1.369 . S
C1234 C1243 1.429 . S
C1235 C1233 1.419 . S
C1235 C1236 1.363 . S
C1235 H1238 0.929 . S
C1236 C1235 1.363 . S
C1236 C1242 1.428 . S
H1237 C1233 0.930 . S
H1238 C1235 0.929 . S
S1239 N1240 1.613 . S
S1239 N1241 1.610 . S
N1240 S1239 1.613 . S
N1240 C1243 1.350 . S
N1241 S1239 1.610 . S
N1241 C1242 1.351 . S
C1242 C1236 1.428 . S
C1242 N1241 1.351 . S
C1242 C1243 1.434 . S
C1243 C1234 1.429 . S
C1243 N1240 1.350 . S
C1243 C1242 1.434 . S
C1244 C1245 1.369 . S
C1244 C1246 1.419 . S
C1244 H1248 0.930 . S
C1245 C1244 1.369 . S
C1245 C1254 1.429 . S
C1246 C1244 1.419 . S
C1246 C1247 1.363 . S
C1246 H1249 0.929 . S
C1247 C1246 1.363 . S
C1247 C1253 1.428 . S
H1248 C1244 0.930 . S
H1249 C1246 0.929 . S
S1250 N1251 1.613 . S
S1250 N1252 1.610 . S
N1251 S1250 1.613 . S
N1251 C1254 1.350 . S
N1252 S1250 1.610 . S
N1252 C1253 1.351 . S
C1253 C1247 1.428 . S
C1253 N1252 1.351 . S
C1253 C1254 1.434 . S
C1254 C1245 1.429 . S
C1254 N1251 1.350 . S
C1254 C1253 1.434 . S
C1255 C1256 1.369 . S
C1255 C1257 1.419 . S
C1255 H1259 0.930 . S
C1256 C1255 1.369 . S
C1256 C1265 1.429 . S
C1257 C1255 1.419 . S
C1257 C1258 1.363 . S
C1257 H1260 0.929 . S
C1258 C1257 1.363 . S
C1258 C1264 1.428 . S
H1259 C1255 0.930 . S
H1260 C1257 0.929 . S
S1261 N1262 1.613 . S
S1261 N1263 1.610 . S
N1262 S1261 1.613 . S
N1262 C1265 1.350 . S
N1263 S1261 1.610 . S
N1263 C1264 1.351 . S
C1264 C1258 1.428 . S
C1264 N1263 1.351 . S
C1264 C1265 1.434 . S
C1265 C1256 1.429 . S
C1265 N1262 1.350 . S
C1265 C1264 1.434 . S
C1266 C1267 1.369 . S
C1266 C1268 1.419 . S
C1266 H1270 0.930 . S
C1267 C1266 1.369 . S
C1267 C1276 1.429 . S
C1268 C1266 1.419 . S
C1268 C1269 1.363 . S
C1268 H1271 0.929 . S
C1269 C1268 1.363 . S
C1269 C1275 1.428 . S
H1270 C1266 0.930 . S
H1271 C1268 0.929 . S
S1272 N1273 1.613 . S
S1272 N1274 1.610 . S
N1273 S1272 1.613 . S
N1273 C1276 1.350 . S
N1274 S1272 1.610 . S
N1274 C1275 1.351 . S
C1275 C1269 1.428 . S
C1275 N1274 1.351 . S
C1275 C1276 1.434 . S
C1276 C1267 1.429 . S
C1276 N1273 1.350 . S
C1276 C1275 1.434 . S
C1277 C1278 1.369 . S
C1277 C1279 1.419 . S
C1277 H1281 0.930 . S
C1278 C1277 1.369 . S
C1278 C1287 1.429 . S
C1279 C1277 1.419 . S
C1279 C1280 1.363 . S
C1279 H1282 0.929 . S
C1280 C1279 1.363 . S
C1280 C1286 1.428 . S
H1281 C1277 0.930 . S
H1282 C1279 0.929 . S
S1283 N1284 1.613 . S
S1283 N1285 1.610 . S
N1284 S1283 1.613 . S
N1284 C1287 1.350 . S
N1285 S1283 1.610 . S
N1285 C1286 1.351 . S
C1286 C1280 1.428 . S
C1286 N1285 1.351 . S
C1286 C1287 1.434 . S
C1287 C1278 1.429 . S
C1287 N1284 1.350 . S
C1287 C1286 1.434 . S
C1288 C1289 1.369 . S
C1288 C1290 1.419 . S
C1288 H1292 0.930 . S
C1289 C1288 1.369 . S
C1289 C1298 1.429 . S
C1290 C1288 1.419 . S
C1290 C1291 1.363 . S
C1290 H1293 0.929 . S
C1291 C1290 1.363 . S
C1291 C1297 1.428 . S
H1292 C1288 0.930 . S
H1293 C1290 0.929 . S
S1294 N1295 1.613 . S
S1294 N1296 1.610 . S
N1295 S1294 1.613 . S
N1295 C1298 1.350 . S
N1296 S1294 1.610 . S
N1296 C1297 1.351 . S
C1297 C1291 1.428 . S
C1297 N1296 1.351 . S
C1297 C1298 1.434 . S
C1298 C1289 1.429 . S
C1298 N1295 1.350 . S
C1298 C1297 1.434 . S
C1299 C1300 1.369 . S
C1299 C1301 1.419 . S
C1299 H1303 0.930 . S
C1300 C1299 1.369 . S
C1300 C1309 1.429 . S
C1301 C1299 1.419 . S
C1301 C1302 1.363 . S
C1301 H1304 0.929 . S
C1302 C1301 1.363 . S
C1302 C1308 1.428 . S
H1303 C1299 0.930 . S
H1304 C1301 0.929 . S
S1305 N1306 1.613 . S
S1305 N1307 1.610 . S
N1306 S1305 1.613 . S
N1306 C1309 1.350 . S
N1307 S1305 1.610 . S
N1307 C1308 1.351 . S
C1308 C1302 1.428 . S
C1308 N1307 1.351 . S
C1308 C1309 1.434 . S
C1309 C1300 1.429 . S
C1309 N1306 1.350 . S
C1309 C1308 1.434 . S
C1310 C1311 1.369 . S
C1310 C1312 1.419 . S
C1310 H1314 0.930 . S
C1311 C1310 1.369 . S
C1311 C1320 1.429 . S
C1312 C1310 1.419 . S
C1312 C1313 1.363 . S
C1312 H1315 0.929 . S
C1313 C1312 1.363 . S
C1313 C1319 1.428 . S
H1314 C1310 0.930 . S
H1315 C1312 0.929 . S
S1316 N1317 1.613 . S
S1316 N1318 1.610 . S
N1317 S1316 1.613 . S
N1317 C1320 1.350 . S
N1318 S1316 1.610 . S
N1318 C1319 1.351 . S
C1319 C1313 1.428 . S
C1319 N1318 1.351 . S
C1319 C1320 1.434 . S
C1320 C1311 1.429 . S
C1320 N1317 1.350 . S
C1320 C1319 1.434 . S
C1321 C1322 1.369 . S
C1321 C1323 1.419 . S
C1321 H1325 0.930 . S
C1322 C1321 1.369 . S
C1322 C1331 1.429 . S
C1323 C1321 1.419 . S
C1323 C1324 1.363 . S
C1323 H1326 0.929 . S
C1324 C1323 1.363 . S
C1324 C1330 1.428 . S
H1325 C1321 0.930 . S
H1326 C1323 0.929 . S
S1327 N1328 1.613 . S
S1327 N1329 1.610 . S
N1328 S1327 1.613 . S
N1328 C1331 1.350 . S
N1329 S1327 1.610 . S
N1329 C1330 1.351 . S
C1330 C1324 1.428 . S
C1330 N1329 1.351 . S
C1330 C1331 1.434 . S
C1331 C1322 1.429 . S
C1331 N1328 1.350 . S
C1331 C1330 1.434 . S
C1332 C1333 1.369 . S
C1332 C1334 1.419 . S
C1332 H1336 0.930 . S
C1333 C1332 1.369 . S
C1333 C1342 1.429 . S
C1334 C1332 1.419 . S
C1334 C1335 1.363 . S
C1334 H1337 0.929 . S
C1335 C1334 1.363 . S
C1335 C1341 1.428 . S
H1336 C1332 0.930 . S
H1337 C1334 0.929 . S
S1338 N1339 1.613 . S
S1338 N1340 1.610 . S
N1339 S1338 1.613 . S
N1339 C1342 1.350 . S
N1340 S1338 1.610 . S
N1340 C1341 1.351 . S
C1341 C1335 1.428 . S
C1341 N1340 1.351 . S
C1341 C1342 1.434 . S
C1342 C1333 1.429 . S
C1342 N1339 1.350 . S
C1342 C1341 1.434 . S
C1343 C1344 1.369 . S
C1343 C1345 1.419 . S
C1343 H1347 0.930 . S
C1344 C1343 1.369 . S
C1344 C1353 1.429 . S
C1345 C1343 1.419 . S
C1345 C1346 1.363 . S
C1345 H1348 0.929 . S
C1346 C1345 1.363 . S
C1346 C1352 1.428 . S
H1347 C1343 0.930 . S
H1348 C1345 0.929 . S
S1349 N1350 1.613 . S
S1349 N1351 1.610 . S
N1350 S1349 1.613 . S
N1350 C1353 1.350 . S
N1351 S1349 1.610 . S
N1351 C1352 1.351 . S
C1352 C1346 1.428 . S
C1352 N1351 1.351 . S
C1352 C1353 1.434 . S
C1353 C1344 1.429 . S
C1353 N1350 1.350 . S
C1353 C1352 1.434 . S
C1354 C1355 1.369 . S
C1354 C1356 1.419 . S
C1354 H1358 0.930 . S
C1355 C1354 1.369 . S
C1355 C1364 1.429 . S
C1356 C1354 1.419 . S
C1356 C1357 1.363 . S
C1356 H1359 0.929 . S
C1357 C1356 1.363 . S
C1357 C1363 1.428 . S
H1358 C1354 0.930 . S
H1359 C1356 0.929 . S
S1360 N1361 1.613 . S
S1360 N1362 1.610 . S
N1361 S1360 1.613 . S
N1361 C1364 1.350 . S
N1362 S1360 1.610 . S
N1362 C1363 1.351 . S
C1363 C1357 1.428 . S
C1363 N1362 1.351 . S
C1363 C1364 1.434 . S
C1364 C1355 1.429 . S
C1364 N1361 1.350 . S
C1364 C1363 1.434 . S
C1365 C1366 1.369 . S
C1365 C1367 1.419 . S
C1365 H1369 0.930 . S
C1366 C1365 1.369 . S
C1366 C1375 1.429 . S
C1367 C1365 1.419 . S
C1367 C1368 1.363 . S
C1367 H1370 0.929 . S
C1368 C1367 1.363 . S
C1368 C1374 1.428 . S
H1369 C1365 0.930 . S
H1370 C1367 0.929 . S
S1371 N1372 1.613 . S
S1371 N1373 1.610 . S
N1372 S1371 1.613 . S
N1372 C1375 1.350 . S
N1373 S1371 1.610 . S
N1373 C1374 1.351 . S
C1374 C1368 1.428 . S
C1374 N1373 1.351 . S
C1374 C1375 1.434 . S
C1375 C1366 1.429 . S
C1375 N1372 1.350 . S
C1375 C1374 1.434 . S
C1376 C1377 1.369 . S
C1376 C1378 1.419 . S
C1376 H1380 0.930 . S
C1377 C1376 1.369 . S
C1377 C1386 1.429 . S
C1378 C1376 1.419 . S
C1378 C1379 1.363 . S
C1378 H1381 0.929 . S
C1379 C1378 1.363 . S
C1379 C1385 1.428 . S
H1380 C1376 0.930 . S
H1381 C1378 0.929 . S
S1382 N1383 1.613 . S
S1382 N1384 1.610 . S
N1383 S1382 1.613 . S
N1383 C1386 1.350 . S
N1384 S1382 1.610 . S
N1384 C1385 1.351 . S
C1385 C1379 1.428 . S
C1385 N1384 1.351 . S
C1385 C1386 1.434 . S
C1386 C1377 1.429 . S
C1386 N1383 1.350 . S
C1386 C1385 1.434 . S
C1387 C1388 1.369 . S
C1387 C1389 1.419 . S
C1387 H1391 0.930 . S
C1388 C1387 1.369 . S
C1388 C1397 1.429 . S
C1389 C1387 1.419 . S
C1389 C1390 1.363 . S
C1389 H1392 0.929 . S
C1390 C1389 1.363 . S
C1390 C1396 1.428 . S
H1391 C1387 0.930 . S
H1392 C1389 0.929 . S
S1393 N1394 1.613 . S
S1393 N1395 1.610 . S
N1394 S1393 1.613 . S
N1394 C1397 1.350 . S
N1395 S1393 1.610 . S
N1395 C1396 1.351 . S
C1396 C1390 1.428 . S
C1396 N1395 1.351 . S
C1396 C1397 1.434 . S
C1397 C1388 1.429 . S
C1397 N1394 1.350 . S
C1397 C1396 1.434 . S
C1398 C1399 1.369 . S
C1398 C1400 1.419 . S
C1398 H1402 0.930 . S
C1399 C1398 1.369 . S
C1399 C1408 1.429 . S
C1400 C1398 1.419 . S
C1400 C1401 1.363 . S
C1400 H1403 0.929 . S
C1401 C1400 1.363 . S
C1401 C1407 1.428 . S
H1402 C1398 0.930 . S
H1403 C1400 0.929 . S
S1404 N1405 1.613 . S
S1404 N1406 1.610 . S
N1405 S1404 1.613 . S
N1405 C1408 1.350 . S
N1406 S1404 1.610 . S
N1406 C1407 1.351 . S
C1407 C1401 1.428 . S
C1407 N1406 1.351 . S
C1407 C1408 1.434 . S
C1408 C1399 1.429 . S
C1408 N1405 1.350 . S
C1408 C1407 1.434 . S
C1409 C1410 1.369 . S
C1409 C1411 1.419 . S
C1409 H1413 0.930 . S
C1410 C1409 1.369 . S
C1410 C1419 1.429 . S
C1411 C1409 1.419 . S
C1411 C1412 1.363 . S
C1411 H1414 0.929 . S
C1412 C1411 1.363 . S
C1412 C1418 1.428 . S
H1413 C1409 0.930 . S
H1414 C1411 0.929 . S
S1415 N1416 1.613 . S
S1415 N1417 1.610 . S
N1416 S1415 1.613 . S
N1416 C1419 1.350 . S
N1417 S1415 1.610 . S
N1417 C1418 1.351 . S
C1418 C1412 1.428 . S
C1418 N1417 1.351 . S
C1418 C1419 1.434 . S
C1419 C1410 1.429 . S
C1419 N1416 1.350 . S
C1419 C1418 1.434 . S
C1420 C1421 1.369 . S
C1420 C1422 1.419 . S
C1420 H1424 0.930 . S
C1421 C1420 1.369 . S
C1421 C1430 1.429 . S
C1422 C1420 1.419 . S
C1422 C1423 1.363 . S
C1422 H1425 0.929 . S
C1423 C1422 1.363 . S
C1423 C1429 1.428 . S
H1424 C1420 0.930 . S
H1425 C1422 0.929 . S
S1426 N1427 1.613 . S
S1426 N1428 1.610 . S
N1427 S1426 1.613 . S
N1427 C1430 1.350 . S
N1428 S1426 1.610 . S
N1428 C1429 1.351 . S
C1429 C1423 1.428 . S
C1429 N1428 1.351 . S
C1429 C1430 1.434 . S
C1430 C1421 1.429 . S
C1430 N1427 1.350 . S
C1430 C1429 1.434 . S
C1431 C1432 1.369 . S
C1431 C1433 1.419 . S
C1431 H1435 0.930 . S
C1432 C1431 1.369 . S
C1432 C1441 1.429 . S
C1433 C1431 1.419 . S
C1433 C1434 1.363 . S
C1433 H1436 0.929 . S
C1434 C1433 1.363 . S
C1434 C1440 1.428 . S
H1435 C1431 0.930 . S
H1436 C1433 0.929 . S
S1437 N1438 1.613 . S
S1437 N1439 1.610 . S
N1438 S1437 1.613 . S
N1438 C1441 1.350 . S
N1439 S1437 1.610 . S
N1439 C1440 1.351 . S
C1440 C1434 1.428 . S
C1440 N1439 1.351 . S
C1440 C1441 1.434 . S
C1441 C1432 1.429 . S
C1441 N1438 1.350 . S
C1441 C1440 1.434 . S
C1442 C1443 1.369 . S
C1442 C1444 1.419 . S
C1442 H1446 0.930 . S
C1443 C1442 1.369 . S
C1443 C1452 1.429 . S
C1444 C1442 1.419 . S
C1444 C1445 1.363 . S
C1444 H1447 0.929 . S
C1445 C1444 1.363 . S
C1445 C1451 1.428 . S
H1446 C1442 0.930 . S
H1447 C1444 0.929 . S
S1448 N1449 1.613 . S
S1448 N1450 1.610 . S
N1449 S1448 1.613 . S
N1449 C1452 1.350 . S
N1450 S1448 1.610 . S
N1450 C1451 1.351 . S
C1451 C1445 1.428 . S
C1451 N1450 1.351 . S
C1451 C1452 1.434 . S
C1452 C1443 1.429 . S
C1452 N1449 1.350 . S
C1452 C1451 1.434 . S
C1453 C1454 1.369 . S
C1453 C1455 1.419 . S
C1453 H1457 0.930 . S
C1454 C1453 1.369 . S
C1454 C1463 1.429 . S
C1455 C1453 1.419 . S
C1455 C1456 1.363 . S
C1455 H1458 0.929 . S
C1456 C1455 1.363 . S
C1456 C1462 1.428 . S
H1457 C1453 0.930 . S
H1458 C1455 0.929 . S
S1459 N1460 1.613 . S
S1459 N1461 1.610 . S
N1460 S1459 1.613 . S
N1460 C1463 1.350 . S
N1461 S1459 1.610 . S
N1461 C1462 1.351 . S
C1462 C1456 1.428 . S
C1462 N1461 1.351 . S
C1462 C1463 1.434 . S
C1463 C1454 1.429 . S
C1463 N1460 1.350 . S
C1463 C1462 1.434 . S
C1464 C1465 1.369 . S
C1464 C1466 1.419 . S
C1464 H1468 0.930 . S
C1465 C1464 1.369 . S
C1465 C1474 1.429 . S
C1466 C1464 1.419 . S
C1466 C1467 1.363 . S
C1466 H1469 0.929 . S
C1467 C1466 1.363 . S
C1467 C1473 1.428 . S
H1468 C1464 0.930 . S
H1469 C1466 0.929 . S
S1470 N1471 1.613 . S
S1470 N1472 1.610 . S
N1471 S1470 1.613 . S
N1471 C1474 1.350 . S
N1472 S1470 1.610 . S
N1472 C1473 1.351 . S
C1473 C1467 1.428 . S
C1473 N1472 1.351 . S
C1473 C1474 1.434 . S
C1474 C1465 1.429 . S
C1474 N1471 1.350 . S
C1474 C1473 1.434 . S
C1475 C1476 1.369 . S
C1475 C1477 1.419 . S
C1475 H1479 0.930 . S
C1476 C1475 1.369 . S
C1476 C1485 1.429 . S
C1477 C1475 1.419 . S
C1477 C1478 1.363 . S
C1477 H1480 0.929 . S
C1478 C1477 1.363 . S
C1478 C1484 1.428 . S
H1479 C1475 0.930 . S
H1480 C1477 0.929 . S
S1481 N1482 1.613 . S
S1481 N1483 1.610 . S
N1482 S1481 1.613 . S
N1482 C1485 1.350 . S
N1483 S1481 1.610 . S
N1483 C1484 1.351 . S
C1484 C1478 1.428 . S
C1484 N1483 1.351 . S
C1484 C1485 1.434 . S
C1485 C1476 1.429 . S
C1485 N1482 1.350 . S
C1485 C1484 1.434 . S
C1486 C1487 1.369 . S
C1486 C1488 1.419 . S
C1486 H1490 0.930 . S
C1487 C1486 1.369 . S
C1487 C1496 1.429 . S
C1488 C1486 1.419 . S
C1488 C1489 1.363 . S
C1488 H1491 0.929 . S
C1489 C1488 1.363 . S
C1489 C1495 1.428 . S
H1490 C1486 0.930 . S
H1491 C1488 0.929 . S
S1492 N1493 1.613 . S
S1492 N1494 1.610 . S
N1493 S1492 1.613 . S
N1493 C1496 1.350 . S
N1494 S1492 1.610 . S
N1494 C1495 1.351 . S
C1495 C1489 1.428 . S
C1495 N1494 1.351 . S
C1495 C1496 1.434 . S
C1496 C1487 1.429 . S
C1496 N1493 1.350 . S
C1496 C1495 1.434 . S
C1497 C1498 1.369 . S
C1497 C1499 1.419 . S
C1497 H1501 0.930 . S
C1498 C1497 1.369 . S
C1498 C1507 1.429 . S
C1499 C1497 1.419 . S
C1499 C1500 1.363 . S
C1499 H1502 0.929 . S
C1500 C1499 1.363 . S
C1500 C1506 1.428 . S
H1501 C1497 0.930 . S
H1502 C1499 0.929 . S
S1503 N1504 1.613 . S
S1503 N1505 1.610 . S
N1504 S1503 1.613 . S
N1504 C1507 1.350 . S
N1505 S1503 1.610 . S
N1505 C1506 1.351 . S
C1506 C1500 1.428 . S
C1506 N1505 1.351 . S
C1506 C1507 1.434 . S
C1507 C1498 1.429 . S
C1507 N1504 1.350 . S
C1507 C1506 1.434 . S
C1508 C1509 1.369 . S
C1508 C1510 1.419 . S
C1508 H1512 0.930 . S
C1509 C1508 1.369 . S
C1509 C1518 1.429 . S
C1510 C1508 1.419 . S
C1510 C1511 1.363 . S
C1510 H1513 0.929 . S
C1511 C1510 1.363 . S
C1511 C1517 1.428 . S
H1512 C1508 0.930 . S
H1513 C1510 0.929 . S
S1514 N1515 1.613 . S
S1514 N1516 1.610 . S
N1515 S1514 1.613 . S
N1515 C1518 1.350 . S
N1516 S1514 1.610 . S
N1516 C1517 1.351 . S
C1517 C1511 1.428 . S
C1517 N1516 1.351 . S
C1517 C1518 1.434 . S
C1518 C1509 1.429 . S
C1518 N1515 1.350 . S
C1518 C1517 1.434 . S
C1519 C1520 1.369 . S
C1519 C1521 1.419 . S
C1519 H1523 0.930 . S
C1520 C1519 1.369 . S
C1520 C1529 1.429 . S
C1521 C1519 1.419 . S
C1521 C1522 1.363 . S
C1521 H1524 0.929 . S
C1522 C1521 1.363 . S
C1522 C1528 1.428 . S
H1523 C1519 0.930 . S
H1524 C1521 0.929 . S
S1525 N1526 1.613 . S
S1525 N1527 1.610 . S
N1526 S1525 1.613 . S
N1526 C1529 1.350 . S
N1527 S1525 1.610 . S
N1527 C1528 1.351 . S
C1528 C1522 1.428 . S
C1528 N1527 1.351 . S
C1528 C1529 1.434 . S
C1529 C1520 1.429 . S
C1529 N1526 1.350 . S
C1529 C1528 1.434 . S
C1530 C1531 1.369 . S
C1530 C1532 1.419 . S
C1530 H1534 0.930 . S
C1531 C1530 1.369 . S
C1531 C1540 1.429 . S
C1532 C1530 1.419 . S
C1532 C1533 1.363 . S
C1532 H1535 0.929 . S
C1533 C1532 1.363 . S
C1533 C1539 1.428 . S
H1534 C1530 0.930 . S
H1535 C1532 0.929 . S
S1536 N1537 1.613 . S
S1536 N1538 1.610 . S
N1537 S1536 1.613 . S
N1537 C1540 1.350 . S
N1538 S1536 1.610 . S
N1538 C1539 1.351 . S
C1539 C1533 1.428 . S
C1539 N1538 1.351 . S
C1539 C1540 1.434 . S
C1540 C1531 1.429 . S
C1540 N1537 1.350 . S
C1540 C1539 1.434 . S
C1541 C1542 1.369 . S
C1541 C1543 1.419 . S
C1541 H1545 0.930 . S
C1542 C1541 1.369 . S
C1542 C1551 1.429 . S
C1543 C1541 1.419 . S
C1543 C1544 1.363 . S
C1543 H1546 0.929 . S
C1544 C1543 1.363 . S
C1544 C1550 1.428 . S
H1545 C1541 0.930 . S
H1546 C1543 0.929 . S
S1547 N1548 1.613 . S
S1547 N1549 1.610 . S
N1548 S1547 1.613 . S
N1548 C1551 1.350 . S
N1549 S1547 1.610 . S
N1549 C1550 1.351 . S
C1550 C1544 1.428 . S
C1550 N1549 1.351 . S
C1550 C1551 1.434 . S
C1551 C1542 1.429 . S
C1551 N1548 1.350 . S
C1551 C1550 1.434 . S
C1552 C1553 1.369 . S
C1552 C1554 1.419 . S
C1552 H1556 0.930 . S
C1553 C1552 1.369 . S
C1553 C1562 1.429 . S
C1554 C1552 1.419 . S
C1554 C1555 1.363 . S
C1554 H1557 0.929 . S
C1555 C1554 1.363 . S
C1555 C1561 1.428 . S
H1556 C1552 0.930 . S
H1557 C1554 0.929 . S
S1558 N1559 1.613 . S
S1558 N1560 1.610 . S
N1559 S1558 1.613 . S
N1559 C1562 1.350 . S
N1560 S1558 1.610 . S
N1560 C1561 1.351 . S
C1561 C1555 1.428 . S
C1561 N1560 1.351 . S
C1561 C1562 1.434 . S
C1562 C1553 1.429 . S
C1562 N1559 1.350 . S
C1562 C1561 1.434 . S
C1563 C1564 1.369 . S
C1563 C1565 1.419 . S
C1563 H1567 0.930 . S
C1564 C1563 1.369 . S
C1564 C1573 1.429 . S
C1565 C1563 1.419 . S
C1565 C1566 1.363 . S
C1565 H1568 0.929 . S
C1566 C1565 1.363 . S
C1566 C1572 1.428 . S
H1567 C1563 0.930 . S
H1568 C1565 0.929 . S
S1569 N1570 1.613 . S
S1569 N1571 1.610 . S
N1570 S1569 1.613 . S
N1570 C1573 1.350 . S
N1571 S1569 1.610 . S
N1571 C1572 1.351 . S
C1572 C1566 1.428 . S
C1572 N1571 1.351 . S
C1572 C1573 1.434 . S
C1573 C1564 1.429 . S
C1573 N1570 1.350 . S
C1573 C1572 1.434 . S
C1574 C1575 1.369 . S
C1574 C1576 1.419 . S
C1574 H1578 0.930 . S
C1575 C1574 1.369 . S
C1575 C1584 1.429 . S
C1576 C1574 1.419 . S
C1576 C1577 1.363 . S
C1576 H1579 0.929 . S
C1577 C1576 1.363 . S
C1577 C1583 1.428 . S
H1578 C1574 0.930 . S
H1579 C1576 0.929 . S
S1580 N1581 1.613 . S
S1580 N1582 1.610 . S
N1581 S1580 1.613 . S
N1581 C1584 1.350 . S
N1582 S1580 1.610 . S
N1582 C1583 1.351 . S
C1583 C1577 1.428 . S
C1583 N1582 1.351 . S
C1583 C1584 1.434 . S
C1584 C1575 1.429 . S
C1584 N1581 1.350 . S
C1584 C1583 1.434 . S
C1585 C1586 1.369 . S
C1585 C1587 1.419 . S
C1585 H1589 0.930 . S
C1586 C1585 1.369 . S
C1586 C1595 1.429 . S
C1587 C1585 1.419 . S
C1587 C1588 1.363 . S
C1587 H1590 0.929 . S
C1588 C1587 1.363 . S
C1588 C1594 1.428 . S
H1589 C1585 0.930 . S
H1590 C1587 0.929 . S
S1591 N1592 1.613 . S
S1591 N1593 1.610 . S
N1592 S1591 1.613 . S
N1592 C1595 1.350 . S
N1593 S1591 1.610 . S
N1593 C1594 1.351 . S
C1594 C1588 1.428 . S
C1594 N1593 1.351 . S
C1594 C1595 1.434 . S
C1595 C1586 1.429 . S
C1595 N1592 1.350 . S
C1595 C1594 1.434 . S
C1596 C1597 1.369 . S
C1596 C1598 1.419 . S
C1596 H1600 0.930 . S
C1597 C1596 1.369 . S
C1597 C1606 1.429 . S
C1598 C1596 1.419 . S
C1598 C1599 1.363 . S
C1598 H1601 0.929 . S
C1599 C1598 1.363 . S
C1599 C1605 1.428 . S
H1600 C1596 0.930 . S
H1601 C1598 0.929 . S
S1602 N1603 1.613 . S
S1602 N1604 1.610 . S
N1603 S1602 1.613 . S
N1603 C1606 1.350 . S
N1604 S1602 1.610 . S
N1604 C1605 1.351 . S
C1605 C1599 1.428 . S
C1605 N1604 1.351 . S
C1605 C1606 1.434 . S
C1606 C1597 1.429 . S
C1606 N1603 1.350 . S
C1606 C1605 1.434 . S
C1607 C1608 1.369 . S
C1607 C1609 1.419 . S
C1607 H1611 0.930 . S
C1608 C1607 1.369 . S
C1608 C1617 1.429 . S
C1609 C1607 1.419 . S
C1609 C1610 1.363 . S
C1609 H1612 0.929 . S
C1610 C1609 1.363 . S
C1610 C1616 1.428 . S
H1611 C1607 0.930 . S
H1612 C1609 0.929 . S
S1613 N1614 1.613 . S
S1613 N1615 1.610 . S
N1614 S1613 1.613 . S
N1614 C1617 1.350 . S
N1615 S1613 1.610 . S
N1615 C1616 1.351 . S
C1616 C1610 1.428 . S
C1616 N1615 1.351 . S
C1616 C1617 1.434 . S
C1617 C1608 1.429 . S
C1617 N1614 1.350 . S
C1617 C1616 1.434 . S
C1618 C1619 1.369 . S
C1618 C1620 1.419 . S
C1618 H1622 0.930 . S
C1619 C1618 1.369 . S
C1619 C1628 1.429 . S
C1620 C1618 1.419 . S
C1620 C1621 1.363 . S
C1620 H1623 0.929 . S
C1621 C1620 1.363 . S
C1621 C1627 1.428 . S
H1622 C1618 0.930 . S
H1623 C1620 0.929 . S
S1624 N1625 1.613 . S
S1624 N1626 1.610 . S
N1625 S1624 1.613 . S
N1625 C1628 1.350 . S
N1626 S1624 1.610 . S
N1626 C1627 1.351 . S
C1627 C1621 1.428 . S
C1627 N1626 1.351 . S
C1627 C1628 1.434 . S
C1628 C1619 1.429 . S
C1628 N1625 1.350 . S
C1628 C1627 1.434 . S
C1629 C1630 1.369 . S
C1629 C1631 1.419 . S
C1629 H1633 0.930 . S
C1630 C1629 1.369 . S
C1630 C1639 1.429 . S
C1631 C1629 1.419 . S
C1631 C1632 1.363 . S
C1631 H1634 0.929 . S
C1632 C1631 1.363 . S
C1632 C1638 1.428 . S
H1633 C1629 0.930 . S
H1634 C1631 0.929 . S
S1635 N1636 1.613 . S
S1635 N1637 1.610 . S
N1636 S1635 1.613 . S
N1636 C1639 1.350 . S
N1637 S1635 1.610 . S
N1637 C1638 1.351 . S
C1638 C1632 1.428 . S
C1638 N1637 1.351 . S
C1638 C1639 1.434 . S
C1639 C1630 1.429 . S
C1639 N1636 1.350 . S
C1639 C1638 1.434 . S
C1640 C1641 1.369 . S
C1640 C1642 1.419 . S
C1640 H1644 0.930 . S
C1641 C1640 1.369 . S
C1641 C1650 1.429 . S
C1642 C1640 1.419 . S
C1642 C1643 1.363 . S
C1642 H1645 0.929 . S
C1643 C1642 1.363 . S
C1643 C1649 1.428 . S
H1644 C1640 0.930 . S
H1645 C1642 0.929 . S
S1646 N1647 1.613 . S
S1646 N1648 1.610 . S
N1647 S1646 1.613 . S
N1647 C1650 1.350 . S
N1648 S1646 1.610 . S
N1648 C1649 1.351 . S
C1649 C1643 1.428 . S
C1649 N1648 1.351 . S
C1649 C1650 1.434 . S
C1650 C1641 1.429 . S
C1650 N1647 1.350 . S
C1650 C1649 1.434 . S
C1651 C1652 1.369 . S
C1651 C1653 1.419 . S
C1651 H1655 0.930 . S
C1652 C1651 1.369 . S
C1652 C1661 1.429 . S
C1653 C1651 1.419 . S
C1653 C1654 1.363 . S
C1653 H1656 0.929 . S
C1654 C1653 1.363 . S
C1654 C1660 1.428 . S
H1655 C1651 0.930 . S
H1656 C1653 0.929 . S
S1657 N1658 1.613 . S
S1657 N1659 1.610 . S
N1658 S1657 1.613 . S
N1658 C1661 1.350 . S
N1659 S1657 1.610 . S
N1659 C1660 1.351 . S
C1660 C1654 1.428 . S
C1660 N1659 1.351 . S
C1660 C1661 1.434 . S
C1661 C1652 1.429 . S
C1661 N1658 1.350 . S
C1661 C1660 1.434 . S
C1662 C1663 1.369 . S
C1662 C1664 1.419 . S
C1662 H1666 0.930 . S
C1663 C1662 1.369 . S
C1663 C1672 1.429 . S
C1664 C1662 1.419 . S
C1664 C1665 1.363 . S
C1664 H1667 0.929 . S
C1665 C1664 1.363 . S
C1665 C1671 1.428 . S
H1666 C1662 0.930 . S
H1667 C1664 0.929 . S
S1668 N1669 1.613 . S
S1668 N1670 1.610 . S
N1669 S1668 1.613 . S
N1669 C1672 1.350 . S
N1670 S1668 1.610 . S
N1670 C1671 1.351 . S
C1671 C1665 1.428 . S
C1671 N1670 1.351 . S
C1671 C1672 1.434 . S
C1672 C1663 1.429 . S
C1672 N1669 1.350 . S
C1672 C1671 1.434 . S
C1673 C1674 1.369 . S
C1673 C1675 1.419 . S
C1673 H1677 0.930 . S
C1674 C1673 1.369 . S
C1674 C1683 1.429 . S
C1675 C1673 1.419 . S
C1675 C1676 1.363 . S
C1675 H1678 0.929 . S
C1676 C1675 1.363 . S
C1676 C1682 1.428 . S
H1677 C1673 0.930 . S
H1678 C1675 0.929 . S
S1679 N1680 1.613 . S
S1679 N1681 1.610 . S
N1680 S1679 1.613 . S
N1680 C1683 1.350 . S
N1681 S1679 1.610 . S
N1681 C1682 1.351 . S
C1682 C1676 1.428 . S
C1682 N1681 1.351 . S
C1682 C1683 1.434 . S
C1683 C1674 1.429 . S
C1683 N1680 1.350 . S
C1683 C1682 1.434 . S
C1684 C1685 1.369 . S
C1684 C1686 1.419 . S
C1684 H1688 0.930 . S
C1685 C1684 1.369 . S
C1685 C1694 1.429 . S
C1686 C1684 1.419 . S
C1686 C1687 1.363 . S
C1686 H1689 0.929 . S
C1687 C1686 1.363 . S
C1687 C1693 1.428 . S
H1688 C1684 0.930 . S
H1689 C1686 0.929 . S
S1690 N1691 1.613 . S
S1690 N1692 1.610 . S
N1691 S1690 1.613 . S
N1691 C1694 1.350 . S
N1692 S1690 1.610 . S
N1692 C1693 1.351 . S
C1693 C1687 1.428 . S
C1693 N1692 1.351 . S
C1693 C1694 1.434 . S
C1694 C1685 1.429 . S
C1694 N1691 1.350 . S
C1694 C1693 1.434 . S
C1695 C1696 1.369 . S
C1695 C1697 1.419 . S
C1695 H1699 0.930 . S
C1696 C1695 1.369 . S
C1696 C1705 1.429 . S
C1697 C1695 1.419 . S
C1697 C1698 1.363 . S
C1697 H1700 0.929 . S
C1698 C1697 1.363 . S
C1698 C1704 1.428 . S
H1699 C1695 0.930 . S
H1700 C1697 0.929 . S
S1701 N1702 1.613 . S
S1701 N1703 1.610 . S
N1702 S1701 1.613 . S
N1702 C1705 1.350 . S
N1703 S1701 1.610 . S
N1703 C1704 1.351 . S
C1704 C1698 1.428 . S
C1704 N1703 1.351 . S
C1704 C1705 1.434 . S
C1705 C1696 1.429 . S
C1705 N1702 1.350 . S
C1705 C1704 1.434 . S
C1706 C1707 1.369 . S
C1706 C1708 1.419 . S
C1706 H1710 0.930 . S
C1707 C1706 1.369 . S
C1707 C1716 1.429 . S
C1708 C1706 1.419 . S
C1708 C1709 1.363 . S
C1708 H1711 0.929 . S
C1709 C1708 1.363 . S
C1709 C1715 1.428 . S
H1710 C1706 0.930 . S
H1711 C1708 0.929 . S
S1712 N1713 1.613 . S
S1712 N1714 1.610 . S
N1713 S1712 1.613 . S
N1713 C1716 1.350 . S
N1714 S1712 1.610 . S
N1714 C1715 1.351 . S
C1715 C1709 1.428 . S
C1715 N1714 1.351 . S
C1715 C1716 1.434 . S
C1716 C1707 1.429 . S
C1716 N1713 1.350 . S
C1716 C1715 1.434 . S
C1717 C1718 1.369 . S
C1717 C1719 1.419 . S
C1717 H1721 0.930 . S
C1718 C1717 1.369 . S
C1718 C1727 1.429 . S
C1719 C1717 1.419 . S
C1719 C1720 1.363 . S
C1719 H1722 0.929 . S
C1720 C1719 1.363 . S
C1720 C1726 1.428 . S
H1721 C1717 0.930 . S
H1722 C1719 0.929 . S
S1723 N1724 1.613 . S
S1723 N1725 1.610 . S
N1724 S1723 1.613 . S
N1724 C1727 1.350 . S
N1725 S1723 1.610 . S
N1725 C1726 1.351 . S
C1726 C1720 1.428 . S
C1726 N1725 1.351 . S
C1726 C1727 1.434 . S
C1727 C1718 1.429 . S
C1727 N1724 1.350 . S
C1727 C1726 1.434 . S
C673 C439 1.183 . S
C675 C11 1.308 . S
C684 C19 1.173 . S
C686 C403 1.307 . S
C695 C39 1.308 . S
C697 C411 1.184 . S
C706 C431 1.309 . S
C708 C47 1.180 . S
C717 C355 1.189 . S
C719 C67 1.312 . S
C728 C75 1.190 . S
C730 C375 1.312 . S
C739 C383 1.190 . S
C741 C95 1.312 . S
C750 C103 1.184 . S
C752 C347 1.311 . S
C761 C123 1.327 . S
C763 C627 1.323 . S
C772 C579 1.180 . S
C774 C137 1.309 . S
C783 C599 1.323 . S
C785 C151 1.326 . S
C794 C165 1.309 . S
C796 C607 1.185 . S
C805 C179 1.329 . S
C807 C669 1.324 . S
C816 C193 1.312 . S
C818 C635 1.189 . S
C827 C207 1.324 . S
C829 C655 1.325 . S
C838 C565 1.191 . S
C840 C221 1.311 . S
C849 C557 1.312 . S
C851 C229 1.189 . S
C860 C243 1.180 . S
C862 C473 1.310 . S
C871 C487 1.327 . S
C873 C263 1.323 . S
C882 C271 1.173 . S
C884 C501 1.306 . S
C893 C459 1.324 . S
C895 C291 1.328 . S
C904 C529 1.305 . S
C906 C299 1.177 . S
C915 C319 1.324 . S
C917 C543 1.327 . S
C926 C515 1.323 . S
C928 C333 1.328 . S
C937 C138 1.328 . S
C939 C12 1.332 . S
C948 C152 1.340 . S
C950 C18 1.314 . S
C959 C40 1.331 . S
C961 C166 1.333 . S
C970 C124 1.344 . S
C972 C46 1.308 . S
C981 C68 1.328 . S
C983 C222 1.333 . S
C992 C180 1.344 . S
C994 C74 1.309 . S
C1003 C194 1.329 . S
C1005 C96 1.330 . S
C1014 C208 1.344 . S
C1016 C102 1.308 . S
C1025 C264 1.342 . S
C1027 C228 1.311 . S
C1036 C320 1.339 . S
C1038 C242 1.315 . S
C1047 C334 1.344 . S
C1049 C270 1.309 . S
C1058 C292 1.341 . S
C1060 C298 1.312 . S
C1069 C474 1.330 . S
C1071 C348 1.333 . S
C1080 C488 1.343 . S
C1082 C354 1.310 . S
C1091 C502 1.328 . S
C1093 C376 1.332 . S
C1102 C382 1.314 . S
C1104 C460 1.341 . S
C1113 C404 1.331 . S
C1115 C558 1.329 . S
C1124 C410 1.307 . S
C1126 C516 1.344 . S
C1135 C530 1.334 . S
C1137 C432 1.329 . S
C1146 C544 1.339 . S
C1148 C438 1.315 . S
C1157 C564 1.307 . S
C1159 C600 1.344 . S
C1168 C656 1.344 . S
C1170 C578 1.308 . S
C1179 C670 1.344 . S
C1181 C606 1.309 . S
C1190 C634 1.308 . S
C1192 C628 1.343 . S
C1201 C5 1.206 . S
C1203 C256 1.329 . S
C1212 C25 1.472 . S
C1214 C278 1.426 . S
C1223 C33 1.199 . S
C1225 C284 1.327 . S
C1234 C250 1.420 . S
C1236 C53 1.471 . S
C1245 C61 1.199 . S
C1247 C312 1.321 . S
C1256 C81 1.472 . S
C1258 C236 1.426 . S
C1267 C326 1.325 . S
C1269 C89 1.198 . S
C1278 C306 1.430 . S
C1280 C109 1.466 . S
C1289 C117 1.239 . S
C1291 C130 1.340 . S
C1300 C131 1.200 . S
C1302 C144 1.327 . S
C1311 C145 1.248 . S
C1313 C158 1.342 . S
C1322 C116 1.330 . S
C1324 C159 1.209 . S
C1333 C214 1.345 . S
C1335 C173 1.250 . S
C1344 C172 1.320 . S
C1346 C187 1.206 . S
C1355 C186 1.349 . S
C1357 C201 1.244 . S
C1366 C215 1.197 . S
C1368 C200 1.325 . S
C1377 C54 1.420 . S
C1379 C235 1.469 . S
C1388 C82 1.422 . S
C1390 C249 1.468 . S
C1399 C88 1.340 . S
C1401 C257 1.238 . S
C1410 C277 1.469 . S
C1412 C110 1.429 . S
C1421 C60 1.344 . S
C1423 C285 1.250 . S
C1432 C26 1.429 . S
C1434 C305 1.466 . S
C1443 C32 1.344 . S
C1445 C313 1.250 . S
C1454 C4 1.349 . S
C1456 C327 1.244 . S
C1465 C592 1.330 . S
C1467 C341 1.205 . S
C1476 C361 1.465 . S
C1478 C614 1.426 . S
C1487 C620 1.319 . S
C1489 C369 1.203 . S
C1498 C586 1.430 . S
C1500 C389 1.466 . S
C1509 C397 1.214 . S
C1511 C648 1.326 . S
C1520 C417 1.468 . S
C1522 C572 1.430 . S
C1531 C662 1.321 . S
C1533 C425 1.207 . S
C1542 C445 1.467 . S
C1544 C642 1.423 . S
C1553 C453 1.247 . S
C1555 C466 1.349 . S
C1564 C467 1.203 . S
C1566 C480 1.321 . S
C1575 C481 1.245 . S
C1577 C494 1.348 . S
C1586 C495 1.201 . S
C1588 C452 1.327 . S
C1597 C550 1.345 . S
C1599 C509 1.250 . S
C1608 C508 1.321 . S
C1610 C523 1.198 . S
C1619 C522 1.344 . S
C1621 C537 1.239 . S
C1630 C551 1.196 . S
C1632 C536 1.322 . S
C1641 C390 1.423 . S
C1643 C571 1.472 . S
C1652 C418 1.430 . S
C1654 C585 1.469 . S
C1663 C424 1.339 . S
C1665 C593 1.239 . S
C1674 C613 1.465 . S
C1676 C446 1.427 . S
C1685 C396 1.346 . S
C1687 C621 1.240 . S
C1696 C362 1.427 . S
C1698 C641 1.466 . S
C1707 C649 1.251 . S
C1709 C368 1.349 . S
C1718 C340 1.345 . S
C1720 C663 1.239 . S
