# Generated by pormake.
# Topology rob, (6)-cn, num edge types: 1
# Building blocks:
#     Node 0, Type 0, BuildingBlock: KUMBUR_clean_sbu_1, # of connection points: 6
#     Node 1, Type 0, BuildingBlock: KUMBUR_clean_sbu_1, # of connection points: 6
#     Node 2, Type 0, BuildingBlock: KUMBUR_clean_sbu_1, # of connection points: 6
#     Node 3, Type 0, BuildingBlock: KUMBUR_clean_sbu_1, # of connection points: 6
#     Edge 4, Type (0, 0), BuildingBlock: TEMPAE_clean_linker_10, # of connection points: 2
#     Edge 5, Type (0, 0), BuildingBlock: TEMPAE_clean_linker_10, # of connection points: 2
#     Edge 6, Type (0, 0), BuildingBlock: TEMPAE_clean_linker_10, # of connection points: 2
#     Edge 7, Type (0, 0), BuildingBlock: TEMPAE_clean_linker_10, # of connection points: 2
#     Edge 8, Type (0, 0), BuildingBlock: TEMPAE_clean_linker_10, # of connection points: 2
#     Edge 9, Type (0, 0), BuildingBlock: TEMPAE_clean_linker_10, # of connection points: 2
#     Edge 10, Type (0, 0), BuildingBlock: TEMPAE_clean_linker_10, # of connection points: 2
#     Edge 11, Type (0, 0), BuildingBlock: TEMPAE_clean_linker_10, # of connection points: 2
#     Edge 12, Type (0, 0), BuildingBlock: TEMPAE_clean_linker_10, # of connection points: 2
#     Edge 13, Type (0, 0), BuildingBlock: TEMPAE_clean_linker_10, # of connection points: 2
#     Edge 14, Type (0, 0), BuildingBlock: TEMPAE_clean_linker_10, # of connection points: 2
#     Edge 15, Type (0, 0), BuildingBlock: TEMPAE_clean_linker_10, # of connection points: 2
# Relax obj value: 0.020
# Max RMSD: 0.112
# Mean RMSD: 0.112
data_MOF--net-rob--node1-KUMBUR_clean_sbu_1--edge1-TEMPAE_clean_linker_10
_symmetry_space_group_name_H-M    P1
_symmetry_Int_Tables_number       1
_symmetry_cell_setting            triclinic
loop_
_symmetry_equiv_pos_as_xyz
'x, y, z'
_cell_length_a     18.964049
_cell_length_b     23.384461
_cell_length_c     34.257693
_cell_angle_alpha  109.22013
_cell_angle_beta   89.879975
_cell_angle_gamma 90.094685
loop_
_atom_site_label
_atom_site_type_symbol
_atom_site_fract_x
_atom_site_fract_y
_atom_site_fract_z
_atom_type_partial_charge
Tb0 Tb 0.33086 0.21711 0.96794 0.0
C1 C 0.20976 0.4638 0.09135 0.0
N2 N 0.25145 0.42181 0.09894 0.0
C3 C 0.32824 0.50083 0.13971 0.0
C4 C 0.22663 0.52596 0.10632 0.0
C5 C 0.30787 0.4399 0.12507 0.0
C6 C 0.28817 0.54401 0.1296 0.0
C7 C 0.09575 0.4868 0.06919 0.0
C8 C 0.14622 0.44463 0.07261 0.0
C9 C 0.1136 0.54857 0.08155 0.0
C10 C 0.17948 0.56805 0.09962 0.0
Tb11 Tb 0.21898 0.32197 0.06861 0.0
N12 N 0.13086 0.38505 0.06233 0.0
C13 C 0.02797 0.46586 0.05562 0.0
C14 C 0.06341 0.36512 0.05212 0.0
C15 C 0.01143 0.40483 0.04757 0.0
H16 H 0.33925 0.40683 0.13303 0.0
H17 H 0.9586 0.38849 0.03823 0.0
H18 H 0.35641 0.08237 0.97535 0.0
H19 H 0.52068 0.35178 0.91793 0.0
H20 H 0.05034 0.31806 0.04659 0.0
H21 H 0.98746 0.49671 0.05275 0.0
H22 H 0.40302 0.30921 0.92277 0.0
H23 H 0.37458 0.51446 0.15895 0.0
H24 H 0.07591 0.58182 0.07889 0.0
H25 H 0.19197 0.61592 0.11016 0.0
H26 H 0.45559 0.02261 0.98859 0.0
H27 H 0.30331 0.59129 0.14151 0.0
H28 H 0.62463 0.31789 0.94809 0.0
N29 N 0.42 0.15912 0.97964 0.0
C30 C 0.4861 0.18187 0.98257 0.0
C31 C 0.46484 0.06779 0.9877 0.0
C32 C 0.54435 0.14977 0.99017 0.0
C33 C 0.4089 0.10156 0.9801 0.0
C34 C 0.53278 0.09244 0.99348 0.0
N35 N 0.43874 0.25618 0.95887 0.0
C36 C 0.44775 0.29529 0.93702 0.0
C37 C 0.56447 0.25455 0.96892 0.0
C38 C 0.49587 0.23308 0.97201 0.0
C39 C 0.57288 0.30004 0.95107 0.0
C40 C 0.51441 0.31922 0.93395 0.0
H41 H 0.57637 0.06572 0.99839 0.0
H42 H 0.65791 0.1506 0.99763 0.0
H43 H 0.6756 0.24297 0.97915 0.0
O44 O 0.36952 0.16434 0.90957 0.0
O45 O 0.3357 0.19786 0.02719 0.0
O46 O 0.32668 0.29276 0.07444 0.0
O47 O 0.25856 0.17168 0.92123 0.0
O48 O 0.3359 0.31668 0.98626 0.0
O49 O 0.32659 0.34794 0.05667 0.0
O50 O 0.20726 0.26098 0.10218 0.0
O51 O 0.17084 0.30119 1.00644 0.0
O52 O 0.26423 0.2902 0.96125 0.0
O53 O 0.16149 0.34918 0.12423 0.0
O54 O 0.169 0.24205 0.02448 0.0
O55 O 0.25553 0.17063 0.9964 0.0
C56 C 0.34639 0.23615 0.06465 0.0
C57 C 0.29708 0.16793 0.85409 0.0
C58 C 0.34413 0.18669 0.79261 0.0
C59 C 0.27531 0.19581 0.78109 0.0
C60 C 0.22856 0.17623 0.84128 0.0
C61 C 0.21805 0.18993 0.80504 0.0
C62 C 0.35499 0.17232 0.82901 0.0
C63 C 0.34906 0.35612 0.02274 0.0
C64 C 0.30737 0.154 0.89307 0.0
C65 C 0.61246 0.17397 0.99111 0.0
C66 C 0.62251 0.22658 0.98061 0.0
C67 C 0.19677 0.29938 0.97018 0.0
C68 C 0.19435 0.30673 0.17472 0.0
C69 C 0.16496 0.30398 0.24393 0.0
C70 C 0.23146 0.32962 0.25772 0.0
C71 C 0.26023 0.3317 0.18929 0.0
C72 C 0.14703 0.29257 0.20199 0.0
C73 C 0.27856 0.34309 0.23056 0.0
C74 C 0.19115 0.18556 1.01094 0.0
C75 C 0.17236 0.29935 0.13207 0.0
H76 H 0.26583 0.20653 0.7531 0.0
H77 H 0.18294 0.17232 0.85932 0.0
H78 H 0.16527 0.19609 0.79537 0.0
H79 H 0.40825 0.16502 0.83776 0.0
H80 H 0.24681 0.34047 0.28977 0.0
H81 H 0.29689 0.34331 0.16891 0.0
H82 H 0.09623 0.27301 0.19047 0.0
H83 H 0.32923 0.36314 0.24171 0.0
Tb84 Tb 0.8322 0.70871 0.96944 0.0
C85 C 0.63772 0.93966 0.06432 0.0
N86 N 0.70471 0.92521 0.0714 0.0
C87 C 0.73918 0.02936 0.08844 0.0
C88 C 0.61863 0.99984 0.06923 0.0
C89 C 0.75511 0.9692 0.08415 0.0
C90 C 0.67068 0.04475 0.0808 0.0
C91 C 0.51695 0.90721 0.04694 0.0
C92 C 0.58757 0.89405 0.05345 0.0
C93 C 0.49765 0.967 0.05167 0.0
C94 C 0.54824 0.01326 0.06305 0.0
Tb95 Tb 0.72305 0.82609 0.06504 0.0
N96 N 0.60859 0.83644 0.04819 0.0
C97 C 0.46809 0.85973 0.03546 0.0
C98 C 0.56066 0.79035 0.03837 0.0
C99 C 0.49005 0.80107 0.03131 0.0
H100 H 0.80706 0.95845 0.09235 0.0
H101 H 0.45245 0.76416 0.02314 0.0
H102 H 0.76827 0.57258 0.96085 0.0
H103 H 0.09288 0.80695 1.0069 0.0
H104 H 0.57599 0.74548 0.03656 0.0
H105 H 0.41335 0.86793 0.03002 0.0
H106 H 0.96944 0.80561 0.98683 0.0
H107 H 0.77944 0.06398 0.09835 0.0
H108 H 0.44376 0.97783 0.04648 0.0
H109 H 0.53222 0.05933 0.06726 0.0
H110 H 0.81436 0.47587 0.96415 0.0
H111 H 0.65829 0.09149 0.08456 0.0
H112 H 0.14694 0.71494 0.01419 0.0
N113 N 0.8661 0.61889 0.97606 0.0
C114 C 0.93562 0.61473 0.98431 0.0
C115 C 0.84894 0.51467 0.9701 0.0
C116 C 0.96483 0.55966 0.98492 0.0
C117 C 0.8226 0.56991 0.96897 0.0
C118 C 0.92043 0.50938 0.97786 0.0
N119 N 0.94752 0.71841 0.99072 0.0
C120 C 0.98916 0.76748 0.994 0.0
C121 C 0.04995 0.66327 1.00067 0.0
C122 C 0.97746 0.66618 0.99226 0.0
C123 C 0.09113 0.71528 1.00756 0.0
C124 C 0.06068 0.76743 1.0038 0.0
H125 H 0.94083 0.46623 0.97808 0.0
H126 H 0.06122 0.51396 0.99121 0.0
H127 H 0.13534 0.6049 1.00621 0.0
O128 O 0.88181 0.7217 0.91745 0.0
O129 O 0.8449 0.70236 0.03188 0.0
O130 O 0.83202 0.80119 0.07142 0.0
O131 O 0.83737 0.63587 0.91383 0.0
O132 O 0.84176 0.80702 0.97984 0.0
O133 O 0.82817 0.8518 0.05025 0.0
O134 O 0.67773 0.79769 0.11212 0.0
O135 O 0.69425 0.82698 1.00261 0.0
O136 O 0.72688 0.7339 0.95525 0.0
O137 O 0.72644 0.88496 0.12652 0.0
O138 O 0.70518 0.72798 0.04948 0.0
O139 O 0.72553 0.67868 0.97933 0.0
C140 C 0.85181 0.74602 0.06738 0.0
C141 C 0.84609 0.65664 0.85066 0.0
C142 C 0.87581 0.65216 0.77998 0.0
C143 C 0.81049 0.62429 0.76651 0.0
C144 C 0.78097 0.62896 0.83632 0.0
C145 C 0.76338 0.61316 0.79455 0.0
C146 C 0.89302 0.66881 0.82232 0.0
C147 C 0.8485 0.85396 0.01397 0.0
C148 C 0.86929 0.66655 0.89367 0.0
C149 C 0.03728 0.55637 0.9921 0.0
C150 C 0.07956 0.60815 1.00044 0.0
C151 C 0.6958 0.78713 0.9648 0.0
C152 C 0.6285 0.87754 0.16793 0.0
C153 C 0.54658 0.87961 0.22392 0.0
C154 C 0.51322 0.93028 0.21882 0.0
C155 C 0.59513 0.92932 0.16448 0.0
C156 C 0.60449 0.8533 0.1983 0.0
C157 C 0.53771 0.95513 0.18953 0.0
C158 C 0.69371 0.68314 0.01469 0.0
C159 C 0.68901 0.84956 0.14076 0.0
H160 H 0.79576 0.61134 0.73422 0.0
H161 H 0.74398 0.61876 0.85726 0.0
H162 H 0.71316 0.59177 0.7838 0.0
H163 H 0.94399 0.68899 0.83291 0.0
H164 H 0.4689 0.95142 0.23816 0.0
H165 H 0.61369 0.9505 0.14282 0.0
H166 H 0.63042 0.81401 0.20182 0.0
H167 H 0.5124 0.99489 0.18641 0.0
Tb168 Tb 0.32838 0.81402 0.56463 0.0
C169 C 0.10511 0.60719 0.47529 0.0
N170 N 0.17493 0.60901 0.46682 0.0
C171 C 0.18337 0.50216 0.45508 0.0
C172 C 0.07234 0.55343 0.47604 0.0
C173 C 0.21283 0.55649 0.45396 0.0
C174 C 0.11321 0.50097 0.46713 0.0
C175 C 0.99139 0.65688 0.48378 0.0
C176 C 0.06508 0.65764 0.47855 0.0
C177 C 0.959 0.60493 0.48749 0.0
C178 C 0.99932 0.55311 0.48326 0.0
Tb179 Tb 0.21853 0.70078 0.46702 0.0
N180 N 0.09833 0.70643 0.47399 0.0
C181 C 0.95235 0.70728 0.48316 0.0
C182 C 0.05975 0.75295 0.46929 0.0
C183 C 0.98657 0.75495 0.4749 0.0
H184 H 0.26551 0.55605 0.44182 0.0
H185 H 0.95656 0.79279 0.47219 0.0
H186 H 0.24426 0.94574 0.58195 0.0
H187 H 0.59085 0.74382 0.50298 0.0
H188 H 0.08492 0.78831 0.46059 0.0
H189 H 0.8956 0.70855 0.48706 0.0
H190 H 0.4663 0.7268 0.51398 0.0
H191 H 0.21434 0.46102 0.44579 0.0
H192 H 0.90249 0.60348 0.49185 0.0
H193 H 0.9729 0.51249 0.484 0.0
H194 H 0.2769 0.0504 0.58881 0.0
H195 H 0.09036 0.45871 0.46734 0.0
H196 H 0.63763 0.84821 0.52228 0.0
N197 N 0.34833 0.91108 0.56673 0.0
C198 C 0.4171 0.92467 0.56273 0.0
C199 C 0.31678 0.01538 0.58136 0.0
C200 C 0.43856 0.98459 0.56854 0.0
C201 C 0.29824 0.95554 0.57651 0.0
C202 C 0.38724 0.02996 0.57749 0.0
N203 N 0.44206 0.82012 0.54314 0.0
C204 C 0.48564 0.77235 0.5246 0.0
C205 C 0.53683 0.88976 0.54432 0.0
C206 C 0.46569 0.87777 0.55091 0.0
C207 C 0.58271 0.84092 0.52809 0.0
C208 C 0.55655 0.78197 0.51728 0.0
H209 H 0.40148 0.07617 0.58113 0.0
H210 H 0.52793 0.04314 0.5698 0.0
H211 H 0.61406 0.96007 0.54882 0.0
O212 O 0.39401 0.8207 0.61579 0.0
O213 O 0.34279 0.82416 0.50361 0.0
O214 O 0.32956 0.72506 0.46645 0.0
O215 O 0.29904 0.873 0.62293 0.0
O216 O 0.36057 0.71907 0.54936 0.0
O217 O 0.30441 0.6544 0.48951 0.0
O218 O 0.19197 0.72615 0.41495 0.0
O219 O 0.16807 0.72523 0.52812 0.0
O220 O 0.26193 0.74178 0.57349 0.0
O221 O 0.23085 0.63749 0.40749 0.0
O222 O 0.21022 0.80008 0.48394 0.0
O223 O 0.21967 0.83721 0.55512 0.0
C224 C 0.34946 0.77954 0.46856 0.0
C225 C 0.33136 0.84083 0.67898 0.0
C226 C 0.36564 0.82422 0.74337 0.0
C227 C 0.29412 0.81548 0.75096 0.0
C228 C 0.26048 0.83132 0.68729 0.0
C229 C 0.24223 0.81908 0.72312 0.0
C230 C 0.38379 0.83726 0.70718 0.0
C231 C 0.34994 0.66546 0.52082 0.0
C232 C 0.35057 0.85673 0.64193 0.0
C233 C 0.51022 0.99716 0.56471 0.0
C234 C 0.55931 0.94987 0.55287 0.0
C235 C 0.19563 0.72694 0.56373 0.0
C236 C 0.13932 0.64428 0.36253 0.0
C237 C 0.05592 0.6439 0.30798 0.0
C238 C 0.02128 0.59407 0.31374 0.0
C239 C 0.10397 0.59387 0.36711 0.0
C240 C 0.11532 0.66887 0.33251 0.0
C241 C 0.04534 0.56927 0.34302 0.0
C242 C 0.19246 0.83874 0.52025 0.0
C243 C 0.20015 0.67148 0.38941 0.0
H244 H 0.27799 0.80672 0.7788 0.0
H245 H 0.21884 0.83381 0.66631 0.0
H246 H 0.18748 0.81265 0.72945 0.0
H247 H 0.43853 0.84424 0.70076 0.0
H248 H 0.97615 0.57351 0.29499 0.0
H249 H 0.12155 0.57299 0.38915 0.0
H250 H 0.14217 0.70759 0.32861 0.0
H251 H 0.01865 0.53054 0.34694 0.0
Tb252 Tb 0.81184 0.29053 0.56092 0.0
C253 C 0.57328 0.09486 0.47919 0.0
N254 N 0.64357 0.09379 0.47119 0.0
C255 C 0.64689 0.9874 0.46152 0.0
C256 C 0.53708 0.04211 0.47903 0.0
C257 C 0.68056 0.041 0.46224 0.0
C258 C 0.57476 0.98788 0.46974 0.0
C259 C 0.46355 0.15102 0.49247 0.0
C260 C 0.53705 0.14853 0.48552 0.0
C261 C 0.42771 0.09927 0.49412 0.0
C262 C 0.46433 0.04485 0.48708 0.0
Tb263 Tb 0.69096 0.18184 0.46769 0.0
N264 N 0.57334 0.19741 0.48296 0.0
C265 C 0.42798 0.20489 0.49621 0.0
C266 C 0.53733 0.24752 0.48217 0.0
C267 C 0.4649 0.25301 0.49026 0.0
H268 H 0.73528 0.03941 0.45384 0.0
H269 H 0.43721 0.29356 0.49046 0.0
H270 H 0.74154 0.42896 0.58298 0.0
H271 H 0.06651 0.19926 0.50004 0.0
H272 H 0.56295 0.28204 0.47305 0.0
H273 H 0.37162 0.20877 0.50169 0.0
H274 H 0.94434 0.19364 0.52197 0.0
H275 H 0.67632 0.94552 0.45384 0.0
H276 H 0.3714 0.10043 0.49975 0.0
H277 H 0.43578 1.00494 0.48753 0.0
H278 H 0.78199 0.52955 0.58404 0.0
H279 H 0.5485 0.94604 0.46828 0.0
H280 H 0.11774 0.2982 0.50362 0.0
N281 N 0.83953 0.38557 0.56111 0.0
C282 C 0.90769 0.39284 0.55115 0.0
C283 C 0.81775 0.4914 0.57456 0.0
C284 C 0.93379 0.45018 0.55311 0.0
C285 C 0.79458 0.43392 0.57311 0.0
C286 C 0.88762 0.49962 0.56457 0.0
N287 N 0.92364 0.28718 0.53539 0.0
C288 C 0.96461 0.23652 0.52261 0.0
C289 C 0.02184 0.34792 0.52701 0.0
C290 C 0.95129 0.34223 0.53826 0.0
C291 C 0.06338 0.29575 0.51275 0.0
C292 C 0.03456 0.23981 0.51052 0.0
H293 H 0.90539 0.54429 0.56593 0.0
H294 H 0.02667 0.50031 0.54647 0.0
H295 H 0.10321 0.41074 0.52281 0.0
O296 O 0.86493 0.26612 0.60738 0.0
O297 O 0.82961 0.29166 0.49732 0.0
O298 O 0.80185 0.19533 0.45606 0.0
O299 O 0.82828 0.35686 0.61873 0.0
O300 O 0.81582 0.19245 0.54891 0.0
O301 O 0.78976 0.14098 0.47985 0.0
O302 O 0.65375 0.20333 0.41592 0.0
O303 O 0.6661 0.1797 0.53042 0.0
O304 O 0.70612 0.2701 0.57842 0.0
O305 O 0.69088 0.11422 0.40926 0.0
O306 O 0.69086 0.28171 0.48384 0.0
O307 O 0.70638 0.32282 0.55449 0.0
C308 C 0.83279 0.2475 0.46161 0.0
C309 C 0.83402 0.32358 0.67652 0.0
C310 C 0.86253 0.32984 0.74743 0.0
C311 C 0.79144 0.34217 0.7584 0.0
C312 C 0.76301 0.3354 0.68808 0.0
C313 C 0.74198 0.34447 0.72878 0.0
C314 C 0.88354 0.32006 0.70627 0.0
C315 C 0.8202 0.14451 0.51536 0.0
C316 C 0.85805 0.31981 0.6347 0.0
C317 C 1.00493 0.45632 0.54371 0.0
C318 C 0.04869 0.40533 0.53045 0.0
C319 C 0.67029 0.21891 0.56832 0.0
C320 C 0.59816 0.12116 0.36454 0.0
C321 C 0.52032 0.11605 0.30628 0.0
C322 C 0.48154 0.07001 0.31446 0.0
C323 C 0.5592 0.07395 0.37117 0.0
C324 C 0.57893 0.14152 0.3315 0.0
C325 C 0.50127 0.04889 0.34643 0.0
C326 C 0.67781 0.32366 0.51977 0.0
C327 C 0.65985 0.14791 0.39099 0.0
H328 H 0.7742 0.34967 0.78987 0.0
H329 H 0.72401 0.33849 0.6658 0.0
H330 H 0.68721 0.35378 0.73747 0.0
H331 H 0.93857 0.31144 0.69773 0.0
H332 H 0.43659 0.04951 0.29552 0.0
H333 H 0.57377 0.05569 0.39513 0.0
H334 H 0.6091 0.17725 0.32561 0.0
H335 H 0.47177 0.0126 0.35187 0.0
C336 C 0.6239 0.58766 0.98023 0.0
C337 C 0.64262 0.63509 0.01614 0.0
C338 C 0.57619 0.5422 0.98175 0.0
C339 C 0.5446 0.54499 0.01989 0.0
C340 C 0.56181 0.59351 0.05603 0.0
C341 C 0.6111 0.63731 0.05383 0.0
C342 C 0.56115 0.49036 0.94264 0.0
C343 C 0.5279 0.59934 0.0971 0.0
C344 C 0.37379 0.4567 0.0157 0.0
C345 C 0.39763 0.40631 0.02522 0.0
C346 C 0.42077 0.5028 0.01468 0.0
C347 C 0.4936 0.49726 0.02214 0.0
C348 C 0.51756 0.44617 0.03191 0.0
C349 C 0.46897 0.40175 0.03399 0.0
C350 C 0.39266 0.55698 1.00502 0.0
C351 C 0.59473 0.43764 0.03913 0.0
H352 H 0.64668 0.58574 0.9508 0.0
H353 H 0.6243 0.67381 0.08186 0.0
H354 H 0.58655 0.44879 0.94476 0.0
H355 H 0.50369 0.48141 0.93873 0.0
H356 H 0.58186 0.49897 0.91473 0.0
H357 H 0.5445 0.64122 0.12197 0.0
H358 H 0.46961 0.59968 0.09429 0.0
H359 H 0.5419 0.55973 0.10651 0.0
H360 H 0.31838 0.45985 1.00891 0.0
H361 H 0.48709 0.36224 0.04099 0.0
H362 H 0.41577 0.55834 0.97556 0.0
H363 H 0.40842 0.59939 0.02959 0.0
H364 H 0.33427 0.55607 1.00226 0.0
H365 H 0.62573 0.43697 1.01147 0.0
H366 H 0.60489 0.3949 0.04568 0.0
H367 H 0.6143 0.47618 0.06549 0.0
C368 C 0.46217 0.62795 0.54328 0.0
C369 C 0.3961 0.61514 0.52365 0.0
C370 C 0.50909 0.58149 0.54324 0.0
C371 C 0.48843 0.52033 0.52491 0.0
C372 C 0.42026 0.50691 0.50754 0.0
C373 C 0.37517 0.55442 0.50721 0.0
C374 C 0.58135 0.59792 0.56211 0.0
C375 C 0.39493 0.4423 0.48921 0.0
C376 C 0.62847 0.39763 0.48827 0.0
C377 C 0.63141 0.37525 0.52146 0.0
C378 C 0.58286 0.44541 0.48925 0.0
C379 C 0.53813 0.47046 0.52388 0.0
C380 C 0.54084 0.44774 0.5574 0.0
C381 C 0.58803 0.40087 0.55597 0.0
C382 C 0.58247 0.46907 0.45323 0.0
C383 C 0.49308 0.47222 0.59449 0.0
H384 H 0.4782 0.67442 0.55828 0.0
H385 H 0.32291 0.54372 0.49511 0.0
H386 H 0.58864 0.57934 0.58773 0.0
H387 H 0.62254 0.5774 0.53863 0.0
H388 H 0.58996 0.64767 0.57429 0.0
H389 H 0.33977 0.43948 0.47788 0.0
H390 H 0.42948 0.41717 0.46303 0.0
H391 H 0.39817 0.41906 0.51264 0.0
H392 H 0.66218 0.37795 0.46163 0.0
H393 H 0.58968 0.38308 0.58147 0.0
H394 H 0.59369 0.51841 0.46425 0.0
H395 H 0.52948 0.46265 0.43876 0.0
H396 H 0.62199 0.44599 0.42926 0.0
H397 H 0.5024 0.52142 0.60951 0.0
H398 H 0.50126 0.44916 0.61777 0.0
H399 H 0.43714 0.46652 0.58451 0.0
C400 C 0.16108 0.07586 0.99769 0.0
C401 C 0.13967 0.13663 1.00927 0.0
C402 C 0.11296 0.02964 0.99702 0.0
C403 C 0.04155 0.04436 1.00808 0.0
C404 C 0.01942 0.10545 0.01928 0.0
C405 C 0.06862 0.15073 0.01982 0.0
C406 C 0.13878 0.9651 0.98508 0.0
C407 C 0.94384 0.12314 0.03124 0.0
C408 C 0.90353 0.91848 0.97619 0.0
C409 C 0.89497 0.90468 1.01278 0.0
C410 C 0.95064 0.96405 0.97421 0.0
C411 C 0.99058 0.99628 1.00958 0.0
C412 C 0.98196 0.98253 0.04659 0.0
C413 C 0.93451 0.93693 0.0477 0.0
C414 C 0.95806 0.97745 0.93421 0.0
C415 C 0.02363 0.01548 0.08496 0.0
H416 H 0.21574 0.06433 0.98958 0.0
H417 H 0.05118 0.19738 0.02872 0.0
H418 H 0.13128 0.94774 1.0113 0.0
H419 H 0.10747 0.93568 0.95877 0.0
H420 H 0.19542 0.96085 0.97623 0.0
H421 H 0.93449 0.1723 0.0378 0.0
H422 H 0.90786 0.09733 1.00609 0.0
H423 H 0.92963 0.11149 0.05915 0.0
H424 H 0.87348 0.89346 0.94903 0.0
H425 H 0.92965 0.92556 0.07581 0.0
H426 H 0.01328 0.96956 0.92299 0.0
H427 H 0.94596 0.0258 0.93938 0.0
H428 H 0.92259 0.94896 0.90968 0.0
H429 H 0.0809 1.00847 0.07848 0.0
H430 H 0.01019 0.99992 0.11141 0.0
H431 H 0.01361 0.06488 0.09417 0.0
C432 C 0.90842 0.10267 0.55331 0.0
C433 C 0.86923 0.09549 0.51715 0.0
C434 C 0.96139 0.06151 0.55454 0.0
C435 C 0.97283 0.00944 0.51967 0.0
C436 C 0.93112 0.99997 0.4838 0.0
C437 C 0.88163 0.04408 0.48247 0.0
C438 C 0.00709 0.07521 0.59262 0.0
C439 C 0.93937 0.94366 0.44657 0.0
C440 C 0.14993 0.92843 0.50339 0.0
C441 C 0.13811 0.88428 0.52198 0.0
C442 C 0.09729 0.97074 0.50358 0.0
C443 C 0.02996 0.96606 0.52043 0.0
C444 C 0.0178 0.92062 0.53868 0.0
C445 C 0.07304 0.88175 0.54066 0.0
C446 C 0.11396 0.02063 0.48607 0.0
C447 C 0.94595 0.91172 0.55487 0.0
H448 H 0.90023 0.14221 0.58036 0.0
H449 H 0.85373 0.03847 0.45395 0.0
H450 H 1.00175 0.03886 0.60657 0.0
H451 H 0.06335 0.07668 0.58397 0.0
H452 H 0.99338 0.11909 0.61642 0.0
H453 H 0.89557 0.93835 0.42416 0.0
H454 H 0.98965 0.94583 0.43055 0.0
H455 H 0.94134 0.90276 0.4562 0.0
H456 H 0.20082 0.93047 0.4894 0.0
H457 H 0.06426 0.84712 0.55482 0.0
H458 H 0.09882 0.06525 0.50845 0.0
H459 H 0.08306 0.01402 0.45749 0.0
H460 H 0.17083 0.02192 0.47853 0.0
H461 H 0.93116 0.95212 0.58131 0.0
H462 H 0.944 0.87133 0.56512 0.0
H463 H 0.90571 0.90633 0.53042 0.0
C464 C 0.42867 0.15219 0.26727 0.0
C465 C 0.49896 0.13617 0.27105 0.0
C466 C 0.40604 0.16769 0.23301 0.0
C467 C 0.45445 0.1656 0.20095 0.0
C468 C 0.5255 0.14899 0.20451 0.0
C469 C 0.5471 0.13527 0.23976 0.0
C470 C 0.32973 0.18497 0.23105 0.0
C471 C 0.57874 0.14535 0.17102 0.0
C472 C 0.37545 0.15557 0.09616 0.0
C473 C 0.37912 0.21606 0.09738 0.0
C474 C 0.40047 0.1383 0.12942 0.0
C475 C 0.43102 0.18224 0.16433 0.0
C476 C 0.43632 0.24298 0.16511 0.0
C477 C 0.41066 0.25901 0.13168 0.0
C478 C 0.39223 0.07346 0.12792 0.0
C479 C 0.467 0.29159 0.20194 0.0
H480 H 0.39117 0.15267 0.29131 0.0
H481 H 0.60121 0.12201 0.24226 0.0
H482 H 0.32382 0.22026 0.21624 0.0
H483 H 0.2997 0.14452 0.21235 0.0
H484 H 0.30544 0.20172 0.2623 0.0
H485 H 0.62775 0.12175 0.1748 0.0
H486 H 0.55604 0.12129 0.14018 0.0
H487 H 0.59281 0.19173 0.17173 0.0
H488 H 0.3508 0.12216 0.06993 0.0
H489 H 0.41439 0.30576 0.13274 0.0
H490 H 0.35758 0.07141 0.15354 0.0
H491 H 0.44419 0.05479 0.13241 0.0
H492 H 0.36887 0.04444 0.09833 0.0
H493 H 0.43854 0.29257 0.2305 0.0
H494 H 0.46393 0.33728 0.19873 0.0
H495 H 0.52304 0.28125 0.20593 0.0
C496 C 0.56599 0.85243 0.28817 0.0
C497 C 0.52076 0.85601 0.25675 0.0
C498 C 0.5399 0.83764 0.32221 0.0
C499 C 0.46708 0.8251 0.32447 0.0
C500 C 0.42174 0.8267 0.29202 0.0
C501 C 0.449 0.8426 0.2588 0.0
C502 C 0.58976 0.83759 0.35647 0.0
C503 C 0.34383 0.81385 0.29315 0.0
C504 C 0.4032 0.74286 0.39756 0.0
C505 C 0.37996 0.79104 0.43182 0.0
C506 C 0.43253 0.75327 0.36271 0.0
C507 C 0.43752 0.81321 0.36164 0.0
C508 C 0.41301 0.86191 0.39588 0.0
C509 C 0.38574 0.85038 0.43079 0.0
C510 C 0.45796 0.70008 0.32692 0.0
C511 C 0.41527 0.92633 0.39565 0.0
H512 H 0.62126 0.86367 0.28697 0.0
H513 H 0.41391 0.84549 0.23458 0.0
H514 H 0.57484 0.87419 0.3853 0.0
H515 H 0.58577 0.79409 0.36278 0.0
H516 H 0.64545 0.84461 0.34898 0.0
H517 H 0.31647 0.81352 0.26443 0.0
H518 H 0.33537 0.76942 0.29756 0.0
H519 H 0.31901 0.84882 0.31979 0.0
H520 H 0.39915 0.6969 0.39813 0.0
H521 H 0.3678 0.88794 0.45705 0.0
H522 H 0.51452 0.70605 0.32083 0.0
H523 H 0.42847 0.69778 0.2985 0.0
H524 H 0.45136 0.65636 0.33274 0.0
H525 H 0.47054 0.94279 0.39961 0.0
H526 H 0.38249 0.95704 0.42069 0.0
H527 H 0.39616 0.9291 0.36576 0.0
C528 C 0.66946 0.76805 0.89 0.0
C529 C 0.65383 0.79914 0.93166 0.0
C530 C 0.62841 0.77572 0.858 0.0
C531 C 0.56864 0.81406 0.86785 0.0
C532 C 0.55403 0.84729 0.90977 0.0
C533 C 0.59771 0.84032 0.94098 0.0
C534 C 0.64818 0.74071 0.81389 0.0
C535 C 0.49082 0.88862 0.92181 0.0
C536 C 0.47615 0.86189 0.78476 0.0
C537 C 0.42027 0.8202 0.77364 0.0
C538 C 0.52547 0.8601 0.81499 0.0
C539 C 0.51845 0.81591 0.8348 0.0
C540 C 0.46306 0.77304 0.82312 0.0
C541 C 0.415 0.77552 0.79263 0.0
C542 C 0.58519 0.9053 0.8257 0.0
C543 C 0.45423 0.72471 0.84308 0.0
H544 H 0.71405 0.73755 0.88227 0.0
H545 H 0.58636 0.86587 0.97265 0.0
H546 H 0.62296 0.69538 0.80487 0.0
H547 H 0.6308 0.76369 0.79195 0.0
H548 H 0.70615 0.73404 0.81073 0.0
H549 H 0.48632 0.91056 0.95581 0.0
H550 H 0.49423 0.92444 0.90724 0.0
H551 H 0.44185 0.86245 0.91039 0.0
H552 H 0.48054 0.89677 0.77047 0.0
H553 H 0.37301 0.74227 0.78365 0.0
H554 H 0.63644 0.88107 0.82095 0.0
H555 H 0.58211 0.93338 0.8588 0.0
H556 H 0.58448 0.93574 0.80672 0.0
H557 H 0.50176 0.69546 0.83719 0.0
H558 H 0.40732 0.69569 0.83129 0.0
H559 H 0.44895 0.74598 0.87708 0.0
C560 C 0.55335 0.20503 0.59791 0.0
C561 C 0.62679 0.20876 0.60131 0.0
C562 C 0.51128 0.20074 0.63071 0.0
C563 C 0.54359 0.20003 0.6679 0.0
C564 C 0.61808 0.2034 0.67127 0.0
C565 C 0.6587 0.20795 0.63797 0.0
C566 C 0.43212 0.19995 0.62606 0.0
C567 C 0.65478 0.20363 0.71037 0.0
C568 C 0.42313 0.24688 0.76241 0.0
C569 C 0.4033 0.19066 0.76529 0.0
C570 C 0.47149 0.25079 0.73217 0.0
C571 C 0.49917 0.19705 0.70341 0.0
C572 C 0.48059 0.14025 0.70708 0.0
C573 C 0.43323 0.13777 0.73817 0.0
C574 C 0.49089 0.31234 0.73008 0.0
C575 C 0.50754 0.08194 0.67665 0.0
H576 H 0.52854 0.20817 0.57032 0.0
H577 H 0.71564 0.21127 0.64063 0.0
H578 H 0.40721 0.16814 0.63988 0.0
H579 H 0.4111 0.2458 0.64259 0.0
H580 H 0.41608 0.18733 0.59312 0.0
H581 H 0.71307 0.2061 0.70796 0.0
H582 H 0.63657 0.24289 0.73673 0.0
H583 H 0.64098 0.16212 0.71762 0.0
H584 H 0.39933 0.28772 0.78324 0.0
H585 H 0.41688 0.09429 0.74005 0.0
H586 H 0.46769 0.31807 0.70191 0.0
H587 H 0.54895 0.31647 0.7279 0.0
H588 H 0.47158 0.34964 0.75743 0.0
H589 H 0.49 0.07885 0.64524 0.0
H590 H 0.48829 0.0414 0.68356 0.0
H591 H 0.56601 0.08164 0.67643 0.0
C592 C 0.90699 0.78229 0.1376 0.0
C593 C 0.88659 0.73398 0.10261 0.0
C594 C 0.9378 0.77191 0.1719 0.0
C595 C 0.94776 0.71175 0.17147 0.0
C596 C 0.92765 0.66278 0.13615 0.0
C597 C 0.89794 0.67444 0.10199 0.0
C598 C 0.95836 0.82534 0.20894 0.0
C599 C 0.93612 0.59802 0.13487 0.0
C600 C 0.07601 0.67694 0.24613 0.0
C601 C 0.02981 0.66811 0.27564 0.0
C602 C 0.05025 0.69231 0.2124 0.0
C603 C 0.97672 0.69979 0.20848 0.0
C604 C 0.93027 0.6935 0.23921 0.0
C605 C 0.95735 0.67756 0.2723 0.0
C606 C 0.10155 0.69951 0.18061 0.0
C607 C 0.85166 0.70185 0.23654 0.0
H608 H 0.8987 0.82848 0.13833 0.0
H609 H 0.88214 0.63685 0.07516 0.0
H610 H 0.92754 0.8248 0.23638 0.0
H611 H 0.01488 0.82227 0.21627 0.0
H612 H 0.94923 0.86928 0.20387 0.0
H613 H 0.91705 0.56518 0.10536 0.0
H614 H 0.99236 0.58864 0.1392 0.0
H615 H 0.90618 0.59051 0.16061 0.0
H616 H 0.13201 0.66947 0.24854 0.0
H617 H 0.92158 0.6715 0.29536 0.0
H618 H 0.10336 0.7477 0.18235 0.0
H619 H 0.08385 0.67284 0.14901 0.0
H620 H 0.15573 0.68508 0.18537 0.0
H621 H 0.84023 0.74669 0.23349 0.0
H622 H 0.82318 0.6984 0.26406 0.0
H623 H 0.83043 0.66694 0.2086 0.0
C624 C 0.911 0.31051 0.43241 0.0
C625 C 0.87941 0.25455 0.42839 0.0
C626 C 0.95645 0.31739 0.40175 0.0
C627 C 0.97017 0.26739 0.36575 0.0
C628 C 0.93755 0.21101 0.36112 0.0
C629 C 0.89279 0.20522 0.39246 0.0
C630 C 0.99002 0.37825 0.40801 0.0
C631 C 0.9502 0.15664 0.32312 0.0
C632 C 0.04162 0.302 0.27161 0.0
C633 C 0.11421 0.29138 0.27375 0.0
C634 C 0.99405 0.29323 0.30076 0.0
C635 C 0.01946 0.27404 0.3333 0.0
C636 C 0.09243 0.26264 0.33545 0.0
C637 C 0.13863 0.27089 0.30556 0.0
C638 C 0.91664 0.30556 0.29715 0.0
C639 C 0.12195 0.24273 0.36982 0.0
H640 H 0.90023 0.34925 0.45956 0.0
H641 H 0.86854 0.16177 0.38878 0.0
H642 H 0.04824 0.37363 0.40593 0.0
H643 H 0.9729 0.39608 0.3833 0.0
H644 H 0.97591 0.41168 0.43838 0.0
H645 H 0.91949 0.11641 0.32366 0.0
H646 H 0.93568 0.16747 0.29498 0.0
H647 H 0.00704 0.14482 0.32054 0.0
H648 H 0.02196 0.31869 0.24772 0.0
H649 H 0.19422 0.26138 0.30726 0.0
H650 H 0.8995 0.3438 0.32448 0.0
H651 H 0.88491 0.26543 0.29669 0.0
H652 H 0.90468 0.31694 0.26884 0.0
H653 H 0.11079 0.27763 0.40016 0.0
H654 H 0.1798 0.23506 0.36692 0.0
H655 H 0.09592 0.20026 0.36992 0.0
C656 C 0.94283 0.27235 0.77873 0.0
C657 C 0.9143 0.32771 0.7793 0.0
C658 C 0.98831 0.26886 0.81024 0.0
C659 C 0.00713 0.32249 0.84273 0.0
C660 C 0.9784 0.37872 0.84319 0.0
C661 C 0.93204 0.38054 0.81158 0.0
C662 C 0.0133 0.20684 0.80857 0.0
C663 C 0.99656 0.43717 0.87687 0.0
C664 C 0.07503 0.30244 0.94211 0.0
C665 C 0.14825 0.30792 0.93839 0.0
C666 C 0.02859 0.30856 0.91178 0.0
C667 C 0.05579 0.31966 0.87641 0.0
C668 C 0.12961 0.32577 0.87258 0.0
C669 C 0.17487 0.31991 0.90358 0.0
C670 C 0.95032 0.3023 0.91729 0.0
C671 C 0.16084 0.33845 0.83571 0.0
H672 H 0.92804 0.23132 0.75414 0.0
H673 H 0.90957 0.42338 0.81204 0.0
H674 H 0.05342 0.20755 0.83218 0.0
H675 H 0.96735 0.18017 0.81307 0.0
H676 H 0.03521 0.18244 0.77744 0.0
H677 H 0.9573 0.47326 0.87888 0.0
H678 H 1.00003 0.4306 0.90742 0.0
H679 H 0.04884 0.45316 0.87016 0.0
H680 H 0.05379 0.29198 0.96832 0.0
H681 H 0.2313 0.3244 0.90035 0.0
H682 H 0.93005 0.26244 0.89209 0.0
H683 H 0.92246 0.3429 0.91518 0.0
H684 H 0.93722 0.2967 0.94745 0.0
H685 H 0.13934 0.30649 0.80655 0.0
H686 H 0.21929 0.33495 0.83486 0.0
H687 H 0.14604 0.38483 0.83682 0.0
C688 C 0.07602 0.71694 0.59255 0.0
C689 C 0.14968 0.71361 0.59497 0.0
C690 C 0.03209 0.70655 0.62269 0.0
C691 C 0.06231 0.69227 0.65618 0.0
C692 C 0.13659 0.68826 0.65857 0.0
C693 C 0.1793 0.69896 0.62802 0.0
C694 C 0.95325 0.71179 0.61907 0.0
C695 C 0.17098 0.67255 0.69342 0.0
C696 C 0.95433 0.71977 0.75512 0.0
C697 C 0.92604 0.6622 0.74937 0.0
C698 C 0.9982 0.73051 0.72505 0.0
C699 C 0.01608 0.68198 0.68877 0.0
C700 C 0.98905 0.62334 0.68346 0.0
C701 C 0.94386 0.61434 0.71354 0.0
C702 C 0.02542 0.79405 0.7331 0.0
C703 C 0.00859 0.56983 0.64625 0.0
H704 H 0.05254 0.72902 0.56754 0.0
H705 H 0.23611 0.69588 0.63009 0.0
H706 H 0.92749 0.66849 0.6176 0.0
H707 H 0.93266 0.74739 0.64693 0.0
H708 H 0.93796 0.72318 0.5912 0.0
H709 H 0.22946 0.67435 0.69214 0.0
H710 H 0.15297 0.7042 0.72365 0.0
H711 H 0.1549 0.6263 0.69205 0.0
H712 H 0.9407 0.75693 0.78275 0.0
H713 H 0.92282 0.56953 0.70923 0.0
H714 H 0.04383 0.80251 0.70475 0.0
H715 H 0.07002 0.80207 0.75517 0.0
H716 H 0.9839 0.82771 0.74791 0.0
H717 H 1.00146 0.58087 0.61743 0.0
H718 H 0.97692 0.52893 0.64419 0.0
H719 H 0.06514 0.55892 0.64806 0.0
loop_
_geom_bond_atom_site_label_1
_geom_bond_atom_site_label_2
_geom_bond_distance
_geom_bond_site_symmetry_2
_ccdc_geom_bond_type
Tb0 N29 2.617 . S
Tb0 N35 2.572 . S
Tb0 O44 2.465 . S
Tb0 O45 2.387 1_556 S
Tb0 O47 2.428 . S
Tb0 O48 2.308 . S
Tb0 O52 2.349 . S
Tb0 O55 2.393 . S
Tb0 C64 2.802 . S
C1 N2 1.379 . S
C1 C4 1.416 . S
C1 C8 1.424 . S
N2 C1 1.379 . S
N2 C5 1.334 . S
N2 Tb11 2.617 . S
C3 C5 1.390 . S
C3 C6 1.339 . S
C3 H23 0.930 . S
C4 C1 1.416 . S
C4 C6 1.416 . S
C4 C10 1.448 1_455 S
C5 N2 1.334 . S
C5 C3 1.390 . S
C5 H16 0.930 . S
C6 C3 1.339 . S
C6 C4 1.416 . S
C6 H27 0.930 . S
C7 C8 1.413 1_655 S
C7 C9 1.427 . S
C7 C13 1.416 1_554 S
C8 C1 1.424 . S
C8 C7 1.413 1_455 S
C8 N12 1.361 . S
C9 C7 1.427 . S
C9 C10 1.328 . S
C9 H24 0.929 1_554 S
C10 C4 1.448 1_655 S
C10 C9 1.328 . S
C10 H25 0.930 . S
Tb11 N2 2.617 . S
Tb11 N12 2.572 . S
Tb11 O46 2.349 . S
Tb11 O49 2.393 . S
Tb11 O50 2.465 . S
Tb11 O51 2.387 1_554 S
Tb11 O53 2.428 . S
Tb11 O54 2.308 . S
Tb11 C75 2.802 . S
N12 C8 1.361 . S
N12 Tb11 2.572 . S
N12 C14 1.340 . S
C13 C7 1.416 1_556 S
C13 C15 1.332 1_556 S
C13 H21 0.931 . S
C14 N12 1.340 . S
C14 C15 1.407 1_455 S
C14 H20 0.930 . S
C15 C13 1.332 1_554 S
C15 C14 1.407 1_655 S
C15 H17 0.929 1_554 S
H16 C5 0.930 . S
H17 C15 0.929 1_556 S
H18 C33 0.930 . S
H19 C40 0.929 . S
H20 C14 0.930 . S
H21 C13 0.931 . S
H22 C36 0.930 . S
H23 C3 0.930 . S
H24 C9 0.929 1_556 S
H25 C10 0.930 . S
H26 C31 0.930 . S
H27 C6 0.930 . S
H28 C39 0.931 . S
N29 Tb0 2.617 . S
N29 C30 1.379 . S
N29 C33 1.334 . S
C30 N29 1.379 . S
C30 C32 1.416 . S
C30 C38 1.424 . S
C31 H26 0.930 . S
C31 C33 1.390 1_565 S
C31 C34 1.339 . S
C32 C30 1.416 . S
C32 C34 1.416 1_545 S
C32 C65 1.448 . S
C33 H18 0.930 . S
C33 N29 1.334 . S
C33 C31 1.390 1_545 S
C34 C31 1.339 . S
C34 C32 1.416 1_565 S
C34 H41 0.930 . S
N35 Tb0 2.572 . S
N35 C36 1.340 . S
N35 C38 1.361 . S
C36 H22 0.930 . S
C36 N35 1.340 . S
C36 C40 1.407 1_556 S
C37 C38 1.417 . S
C37 C39 1.417 1_556 S
C37 C66 1.422 1_556 S
C38 C30 1.424 . S
C38 N35 1.361 . S
C38 C37 1.417 . S
C39 H28 0.931 . S
C39 C37 1.417 1_554 S
C39 C40 1.332 . S
C40 H19 0.929 . S
C40 C36 1.407 1_554 S
C40 C39 1.332 . S
H41 C34 0.930 . S
H42 C65 0.930 1_565 S
H43 C66 0.929 . S
O44 Tb0 2.465 . S
O44 C64 1.264 . S
O45 Tb0 2.387 1_554 S
O45 C56 1.264 . S
O46 Tb11 2.349 . S
O46 C56 1.243 . S
O47 Tb0 2.428 . S
O47 C64 1.256 . S
O48 Tb0 2.308 . S
O48 C63 1.266 1_556 S
O49 Tb11 2.393 . S
O49 C63 1.248 . S
O50 Tb11 2.465 . S
O50 C75 1.264 . S
O51 Tb11 2.387 1_556 S
O51 C67 1.264 . S
O52 Tb0 2.349 . S
O52 C67 1.243 . S
O53 Tb11 2.428 . S
O53 C75 1.256 . S
O54 Tb11 2.308 . S
O54 C74 1.266 1_554 S
O55 Tb0 2.393 . S
O55 C74 1.248 . S
C56 O45 1.264 . S
C56 O46 1.243 . S
C57 C60 1.399 . S
C57 C62 1.383 . S
C57 C64 1.496 . S
C58 C59 1.399 . S
C58 C62 1.389 . S
C59 C58 1.399 . S
C59 C61 1.380 . S
C59 H76 0.929 . S
C60 C57 1.399 . S
C60 C61 1.392 . S
C60 H77 0.929 . S
C61 C59 1.380 . S
C61 C60 1.392 . S
C61 H78 0.929 . S
C62 C57 1.383 . S
C62 C58 1.389 . S
C62 H79 0.931 . S
C63 O48 1.266 1_554 S
C63 O49 1.248 . S
C64 Tb0 2.802 . S
C64 O44 1.264 . S
C64 O47 1.256 . S
C64 C57 1.496 . S
C65 C32 1.448 . S
C65 H42 0.930 1_545 S
C65 C66 1.328 1_556 S
C66 C37 1.422 1_554 S
C66 H43 0.929 . S
C66 C65 1.328 1_554 S
C67 O51 1.264 . S
C67 O52 1.243 . S
C68 C71 1.399 . S
C68 C72 1.383 . S
C68 C75 1.496 . S
C69 C70 1.399 . S
C69 C72 1.389 . S
C70 C69 1.399 . S
C70 C73 1.380 . S
C70 H80 0.929 . S
C71 C68 1.399 . S
C71 C73 1.392 . S
C71 H81 0.929 . S
C72 C68 1.383 . S
C72 C69 1.389 . S
C72 H82 0.931 . S
C73 C70 1.380 . S
C73 C71 1.392 . S
C73 H83 0.929 . S
C74 O54 1.266 1_556 S
C74 O55 1.248 . S
C75 Tb11 2.802 . S
C75 O50 1.264 . S
C75 O53 1.256 . S
C75 C68 1.496 . S
H76 C59 0.929 . S
H77 C60 0.929 . S
H78 C61 0.929 . S
H79 C62 0.931 . S
H80 C70 0.929 . S
H81 C71 0.929 . S
H82 C72 0.931 . S
H83 C73 0.929 . S
Tb84 N113 2.617 . S
Tb84 N119 2.572 . S
Tb84 O128 2.465 . S
Tb84 O129 2.387 1_556 S
Tb84 O131 2.428 . S
Tb84 O132 2.308 . S
Tb84 O136 2.349 . S
Tb84 O139 2.393 . S
Tb84 C148 2.802 . S
C85 N86 1.379 . S
C85 C88 1.416 . S
C85 C92 1.424 . S
N86 C85 1.379 . S
N86 C89 1.334 . S
N86 Tb95 2.617 . S
C87 C89 1.390 1_545 S
C87 C90 1.339 . S
C87 H107 0.930 . S
C88 C85 1.416 . S
C88 C90 1.416 1_565 S
C88 C94 1.448 . S
C89 N86 1.334 . S
C89 C87 1.390 1_565 S
C89 H100 0.930 . S
C90 C87 1.339 . S
C90 C88 1.416 1_545 S
C90 H111 0.930 . S
C91 C92 1.413 . S
C91 C93 1.427 . S
C91 C97 1.416 1_554 S
C92 C85 1.424 . S
C92 C91 1.413 . S
C92 N96 1.361 . S
C93 C91 1.427 . S
C93 C94 1.328 . S
C93 H108 0.929 1_554 S
C94 C88 1.448 . S
C94 C93 1.328 . S
C94 H109 0.930 1_565 S
Tb95 N86 2.617 . S
Tb95 N96 2.572 . S
Tb95 O130 2.349 . S
Tb95 O133 2.393 . S
Tb95 O134 2.465 . S
Tb95 O135 2.387 1_554 S
Tb95 O137 2.428 . S
Tb95 O138 2.308 . S
Tb95 C159 2.802 . S
N96 C92 1.361 . S
N96 Tb95 2.572 . S
N96 C98 1.340 . S
C97 C91 1.416 1_556 S
C97 C99 1.332 1_556 S
C97 H105 0.931 . S
C98 N96 1.340 . S
C98 C99 1.407 . S
C98 H104 0.930 . S
C99 C97 1.332 1_554 S
C99 C98 1.407 . S
C99 H101 0.929 1_554 S
H100 C89 0.930 . S
H101 C99 0.929 1_556 S
H102 C117 0.930 . S
H103 C124 0.929 . S
H104 C98 0.930 . S
H105 C97 0.931 . S
H106 C120 0.930 . S
H107 C87 0.930 . S
H108 C93 0.929 1_556 S
H109 C94 0.930 1_545 S
H110 C115 0.930 . S
H111 C90 0.930 . S
H112 C123 0.931 . S
N113 Tb84 2.617 . S
N113 C114 1.379 . S
N113 C117 1.334 . S
C114 N113 1.379 . S
C114 C116 1.416 . S
C114 C122 1.424 . S
C115 H110 0.930 . S
C115 C117 1.390 . S
C115 C118 1.339 . S
C116 C114 1.416 . S
C116 C118 1.416 . S
C116 C149 1.448 1_655 S
C117 H102 0.930 . S
C117 N113 1.334 . S
C117 C115 1.390 . S
C118 C115 1.339 . S
C118 C116 1.416 . S
C118 H125 0.930 . S
N119 Tb84 2.572 . S
N119 C120 1.340 . S
N119 C122 1.361 . S
C120 H106 0.930 . S
C120 N119 1.340 . S
C120 C124 1.407 1_656 S
C121 C122 1.417 1_455 S
C121 C123 1.417 1_556 S
C121 C150 1.422 1_556 S
C122 C114 1.424 . S
C122 N119 1.361 . S
C122 C121 1.417 1_655 S
C123 H112 0.931 . S
C123 C121 1.417 1_554 S
C123 C124 1.332 . S
C124 H103 0.929 . S
C124 C120 1.407 1_454 S
C124 C123 1.332 . S
H125 C118 0.930 . S
H126 C149 0.930 . S
H127 C150 0.929 . S
O128 Tb84 2.465 . S
O128 C148 1.264 . S
O129 Tb84 2.387 1_554 S
O129 C140 1.264 . S
O130 Tb95 2.349 . S
O130 C140 1.243 . S
O131 Tb84 2.428 . S
O131 C148 1.256 . S
O132 Tb84 2.308 . S
O132 C147 1.266 1_556 S
O133 Tb95 2.393 . S
O133 C147 1.248 . S
O134 Tb95 2.465 . S
O134 C159 1.264 . S
O135 Tb95 2.387 1_556 S
O135 C151 1.264 . S
O136 Tb84 2.349 . S
O136 C151 1.243 . S
O137 Tb95 2.428 . S
O137 C159 1.256 . S
O138 Tb95 2.308 . S
O138 C158 1.266 1_554 S
O139 Tb84 2.393 . S
O139 C158 1.248 . S
C140 O129 1.264 . S
C140 O130 1.243 . S
C141 C144 1.399 . S
C141 C146 1.383 . S
C141 C148 1.496 . S
C142 C143 1.399 . S
C142 C146 1.389 . S
C143 C142 1.399 . S
C143 C145 1.380 . S
C143 H160 0.929 . S
C144 C141 1.399 . S
C144 C145 1.392 . S
C144 H161 0.929 . S
C145 C143 1.380 . S
C145 C144 1.392 . S
C145 H162 0.929 . S
C146 C141 1.383 . S
C146 C142 1.389 . S
C146 H163 0.931 . S
C147 O132 1.266 1_554 S
C147 O133 1.248 . S
C148 Tb84 2.802 . S
C148 O128 1.264 . S
C148 O131 1.256 . S
C148 C141 1.496 . S
C149 C116 1.448 1_455 S
C149 H126 0.930 . S
C149 C150 1.328 1_556 S
C150 C121 1.422 1_554 S
C150 H127 0.929 . S
C150 C149 1.328 1_554 S
C151 O135 1.264 . S
C151 O136 1.243 . S
C152 C155 1.399 . S
C152 C156 1.383 . S
C152 C159 1.496 . S
C153 C154 1.399 . S
C153 C156 1.389 . S
C154 C153 1.399 . S
C154 C157 1.380 . S
C154 H164 0.929 . S
C155 C152 1.399 . S
C155 C157 1.392 . S
C155 H165 0.929 . S
C156 C152 1.383 . S
C156 C153 1.389 . S
C156 H166 0.931 . S
C157 C154 1.380 . S
C157 C155 1.392 . S
C157 H167 0.929 . S
C158 O138 1.266 1_556 S
C158 O139 1.248 . S
C159 Tb95 2.802 . S
C159 O134 1.264 . S
C159 O137 1.256 . S
C159 C152 1.496 . S
H160 C143 0.929 . S
H161 C144 0.929 . S
H162 C145 0.929 . S
H163 C146 0.931 . S
H164 C154 0.929 . S
H165 C155 0.929 . S
H166 C156 0.931 . S
H167 C157 0.929 . S
Tb168 N197 2.617 . S
Tb168 N203 2.572 . S
Tb168 O212 2.465 . S
Tb168 O213 2.387 . S
Tb168 O215 2.428 . S
Tb168 O216 2.308 . S
Tb168 O220 2.349 . S
Tb168 O223 2.393 . S
Tb168 C232 2.802 . S
C169 N170 1.379 . S
C169 C172 1.416 . S
C169 C176 1.424 . S
N170 C169 1.379 . S
N170 C173 1.334 . S
N170 Tb179 2.617 . S
C171 C173 1.390 . S
C171 C174 1.339 . S
C171 H191 0.930 . S
C172 C169 1.416 . S
C172 C174 1.416 . S
C172 C178 1.448 1_455 S
C173 N170 1.334 . S
C173 C171 1.390 . S
C173 H184 0.930 . S
C174 C171 1.339 . S
C174 C172 1.416 . S
C174 H195 0.930 . S
C175 C176 1.413 1_655 S
C175 C177 1.427 . S
C175 C181 1.416 . S
C176 C169 1.424 . S
C176 C175 1.413 1_455 S
C176 N180 1.361 . S
C177 C175 1.427 . S
C177 C178 1.328 . S
C177 H192 0.929 . S
C178 C172 1.448 1_655 S
C178 C177 1.328 . S
C178 H193 0.930 . S
Tb179 N170 2.617 . S
Tb179 N180 2.572 . S
Tb179 O214 2.349 . S
Tb179 O217 2.393 . S
Tb179 O218 2.465 . S
Tb179 O219 2.387 . S
Tb179 O221 2.428 . S
Tb179 O222 2.308 . S
Tb179 C243 2.802 . S
N180 C176 1.361 . S
N180 Tb179 2.572 . S
N180 C182 1.340 . S
C181 C175 1.416 . S
C181 C183 1.332 . S
C181 H189 0.931 . S
C182 N180 1.340 . S
C182 C183 1.407 1_455 S
C182 H188 0.930 . S
C183 C181 1.332 . S
C183 C182 1.407 1_655 S
C183 H185 0.929 . S
H184 C173 0.930 . S
H185 C183 0.929 . S
H186 C201 0.930 . S
H187 C208 0.929 . S
H188 C182 0.930 . S
H189 C181 0.931 . S
H190 C204 0.930 . S
H191 C171 0.930 . S
H192 C177 0.929 . S
H193 C178 0.930 . S
H194 C199 0.930 . S
H195 C174 0.930 . S
H196 C207 0.931 . S
N197 Tb168 2.617 . S
N197 C198 1.379 . S
N197 C201 1.334 . S
C198 N197 1.379 . S
C198 C200 1.416 . S
C198 C206 1.424 . S
C199 H194 0.930 . S
C199 C201 1.390 1_545 S
C199 C202 1.339 . S
C200 C198 1.416 . S
C200 C202 1.416 1_565 S
C200 C233 1.448 . S
C201 H186 0.930 . S
C201 N197 1.334 . S
C201 C199 1.390 1_565 S
C202 C199 1.339 . S
C202 C200 1.416 1_545 S
C202 H209 0.930 . S
N203 Tb168 2.572 . S
N203 C204 1.340 . S
N203 C206 1.361 . S
C204 H190 0.930 . S
C204 N203 1.340 . S
C204 C208 1.407 . S
C205 C206 1.413 . S
C205 C207 1.416 . S
C205 C234 1.427 . S
C206 C198 1.424 . S
C206 N203 1.361 . S
C206 C205 1.413 . S
C207 H196 0.931 . S
C207 C205 1.416 . S
C207 C208 1.332 . S
C208 H187 0.929 . S
C208 C204 1.407 . S
C208 C207 1.332 . S
H209 C202 0.930 . S
H210 C233 0.930 1_545 S
H211 C234 0.929 . S
O212 Tb168 2.465 . S
O212 C232 1.264 . S
O213 Tb168 2.387 . S
O213 C224 1.264 . S
O214 Tb179 2.349 . S
O214 C224 1.243 . S
O215 Tb168 2.428 . S
O215 C232 1.256 . S
O216 Tb168 2.308 . S
O216 C231 1.266 . S
O217 Tb179 2.393 . S
O217 C231 1.248 . S
O218 Tb179 2.465 . S
O218 C243 1.264 . S
O219 Tb179 2.387 . S
O219 C235 1.264 . S
O220 Tb168 2.349 . S
O220 C235 1.243 . S
O221 Tb179 2.428 . S
O221 C243 1.256 . S
O222 Tb179 2.308 . S
O222 C242 1.266 . S
O223 Tb168 2.393 . S
O223 C242 1.248 . S
C224 O213 1.264 . S
C224 O214 1.243 . S
C225 C228 1.399 . S
C225 C230 1.383 . S
C225 C232 1.496 . S
C226 C227 1.399 . S
C226 C230 1.389 . S
C227 C226 1.399 . S
C227 C229 1.380 . S
C227 H244 0.929 . S
C228 C225 1.399 . S
C228 C229 1.392 . S
C228 H245 0.929 . S
C229 C227 1.380 . S
C229 C228 1.392 . S
C229 H246 0.929 . S
C230 C225 1.383 . S
C230 C226 1.389 . S
C230 H247 0.931 . S
C231 O216 1.266 . S
C231 O217 1.248 . S
C232 Tb168 2.802 . S
C232 O212 1.264 . S
C232 O215 1.256 . S
C232 C225 1.496 . S
C233 C200 1.448 . S
C233 H210 0.930 1_565 S
C233 C234 1.328 . S
C234 C205 1.427 . S
C234 H211 0.929 . S
C234 C233 1.328 . S
C235 O219 1.264 . S
C235 O220 1.243 . S
C236 C239 1.399 . S
C236 C240 1.383 . S
C236 C243 1.496 . S
C237 C238 1.399 . S
C237 C240 1.389 . S
C238 C237 1.399 . S
C238 C241 1.380 . S
C238 H248 0.929 . S
C239 C236 1.399 . S
C239 C241 1.392 . S
C239 H249 0.929 . S
C240 C236 1.383 . S
C240 C237 1.389 . S
C240 H250 0.931 . S
C241 C238 1.380 . S
C241 C239 1.392 . S
C241 H251 0.929 . S
C242 O222 1.266 . S
C242 O223 1.248 . S
C243 Tb179 2.802 . S
C243 O218 1.264 . S
C243 O221 1.256 . S
C243 C236 1.496 . S
H244 C227 0.929 . S
H245 C228 0.929 . S
H246 C229 0.929 . S
H247 C230 0.931 . S
H248 C238 0.929 . S
H249 C239 0.929 . S
H250 C240 0.931 . S
H251 C241 0.929 . S
Tb252 N281 2.617 . S
Tb252 N287 2.572 . S
Tb252 O296 2.465 . S
Tb252 O297 2.387 . S
Tb252 O299 2.428 . S
Tb252 O300 2.308 . S
Tb252 O304 2.349 . S
Tb252 O307 2.393 . S
Tb252 C316 2.802 . S
C253 N254 1.379 . S
C253 C256 1.416 . S
C253 C260 1.424 . S
N254 C253 1.379 . S
N254 C257 1.334 . S
N254 Tb263 2.617 . S
C255 C257 1.390 1_565 S
C255 C258 1.339 . S
C255 H275 0.930 . S
C256 C253 1.416 . S
C256 C258 1.416 1_545 S
C256 C262 1.448 . S
C257 N254 1.334 . S
C257 C255 1.390 1_545 S
C257 H268 0.930 . S
C258 C255 1.339 . S
C258 C256 1.416 1_565 S
C258 H279 0.930 . S
C259 C260 1.413 . S
C259 C261 1.427 . S
C259 C265 1.416 . S
C260 C253 1.424 . S
C260 C259 1.413 . S
C260 N264 1.361 . S
C261 C259 1.427 . S
C261 C262 1.328 . S
C261 H276 0.929 . S
C262 C256 1.448 . S
C262 C261 1.328 . S
C262 H277 0.930 1_545 S
Tb263 N254 2.617 . S
Tb263 N264 2.572 . S
Tb263 O298 2.349 . S
Tb263 O301 2.393 . S
Tb263 O302 2.465 . S
Tb263 O303 2.387 . S
Tb263 O305 2.428 . S
Tb263 O306 2.308 . S
Tb263 C327 2.802 . S
N264 C260 1.361 . S
N264 Tb263 2.572 . S
N264 C266 1.340 . S
C265 C259 1.416 . S
C265 C267 1.332 . S
C265 H273 0.931 . S
C266 N264 1.340 . S
C266 C267 1.407 . S
C266 H272 0.930 . S
C267 C265 1.332 . S
C267 C266 1.407 . S
C267 H269 0.929 . S
H268 C257 0.930 . S
H269 C267 0.929 . S
H270 C285 0.930 . S
H271 C292 0.929 . S
H272 C266 0.930 . S
H273 C265 0.931 . S
H274 C288 0.930 . S
H275 C255 0.930 . S
H276 C261 0.929 . S
H277 C262 0.930 1_565 S
H278 C283 0.930 . S
H279 C258 0.930 . S
H280 C291 0.931 . S
N281 Tb252 2.617 . S
N281 C282 1.379 . S
N281 C285 1.334 . S
C282 N281 1.379 . S
C282 C284 1.416 . S
C282 C290 1.424 . S
C283 H278 0.930 . S
C283 C285 1.390 . S
C283 C286 1.339 . S
C284 C282 1.416 . S
C284 C286 1.416 . S
C284 C317 1.448 1_655 S
C285 H270 0.930 . S
C285 N281 1.334 . S
C285 C283 1.390 . S
C286 C283 1.339 . S
C286 C284 1.416 . S
C286 H293 0.930 . S
N287 Tb252 2.572 . S
N287 C288 1.340 . S
N287 C290 1.361 . S
C288 H274 0.930 . S
C288 N287 1.340 . S
C288 C292 1.407 1_655 S
C289 C290 1.413 1_455 S
C289 C291 1.416 . S
C289 C318 1.427 . S
C290 C282 1.424 . S
C290 N287 1.361 . S
C290 C289 1.413 1_655 S
C291 H280 0.931 . S
C291 C289 1.416 . S
C291 C292 1.332 . S
C292 H271 0.929 . S
C292 C288 1.407 1_455 S
C292 C291 1.332 . S
H293 C286 0.930 . S
H294 C317 0.930 . S
H295 C318 0.929 . S
O296 Tb252 2.465 . S
O296 C316 1.264 . S
O297 Tb252 2.387 . S
O297 C308 1.264 . S
O298 Tb263 2.349 . S
O298 C308 1.243 . S
O299 Tb252 2.428 . S
O299 C316 1.256 . S
O300 Tb252 2.308 . S
O300 C315 1.266 . S
O301 Tb263 2.393 . S
O301 C315 1.248 . S
O302 Tb263 2.465 . S
O302 C327 1.264 . S
O303 Tb263 2.387 . S
O303 C319 1.264 . S
O304 Tb252 2.349 . S
O304 C319 1.243 . S
O305 Tb263 2.428 . S
O305 C327 1.256 . S
O306 Tb263 2.308 . S
O306 C326 1.266 . S
O307 Tb252 2.393 . S
O307 C326 1.248 . S
C308 O297 1.264 . S
C308 O298 1.243 . S
C309 C312 1.399 . S
C309 C314 1.383 . S
C309 C316 1.496 . S
C310 C311 1.399 . S
C310 C314 1.389 . S
C311 C310 1.399 . S
C311 C313 1.380 . S
C311 H328 0.929 . S
C312 C309 1.399 . S
C312 C313 1.392 . S
C312 H329 0.929 . S
C313 C311 1.380 . S
C313 C312 1.392 . S
C313 H330 0.929 . S
C314 C309 1.383 . S
C314 C310 1.389 . S
C314 H331 0.931 . S
C315 O300 1.266 . S
C315 O301 1.248 . S
C316 Tb252 2.802 . S
C316 O296 1.264 . S
C316 O299 1.256 . S
C316 C309 1.496 . S
C317 C284 1.448 1_455 S
C317 H294 0.930 . S
C317 C318 1.328 . S
C318 C289 1.427 . S
C318 H295 0.929 . S
C318 C317 1.328 . S
C319 O303 1.264 . S
C319 O304 1.243 . S
C320 C323 1.399 . S
C320 C324 1.383 . S
C320 C327 1.496 . S
C321 C322 1.399 . S
C321 C324 1.389 . S
C322 C321 1.399 . S
C322 C325 1.380 . S
C322 H332 0.929 . S
C323 C320 1.399 . S
C323 C325 1.392 . S
C323 H333 0.929 . S
C324 C320 1.383 . S
C324 C321 1.389 . S
C324 H334 0.931 . S
C325 C322 1.380 . S
C325 C323 1.392 . S
C325 H335 0.929 . S
C326 O306 1.266 . S
C326 O307 1.248 . S
C327 Tb263 2.802 . S
C327 O302 1.264 . S
C327 O305 1.256 . S
C327 C320 1.496 . S
H328 C311 0.929 . S
H329 C312 0.929 . S
H330 C313 0.929 . S
H331 C314 0.931 . S
H332 C322 0.929 . S
H333 C323 0.929 . S
H334 C324 0.931 . S
H335 C325 0.929 . S
C336 C337 1.391 1_556 S
C336 C338 1.394 . S
C336 H352 0.931 . S
C337 C336 1.391 1_554 S
C337 C341 1.376 . S
C338 C336 1.394 . S
C338 C339 1.369 1_556 S
C338 C342 1.531 . S
C339 C338 1.369 1_554 S
C339 C340 1.410 . S
C339 C347 1.503 . S
C340 C339 1.410 . S
C340 C341 1.392 . S
C340 C343 1.511 . S
C341 C337 1.376 . S
C341 C340 1.392 . S
C341 H353 0.929 . S
C342 C338 1.531 . S
C342 H354 0.960 . S
C342 H355 0.962 . S
C342 H356 0.960 . S
C343 C340 1.511 . S
C343 H357 0.961 . S
C343 H358 0.961 . S
C343 H359 0.961 . S
C344 C345 1.370 1_556 S
C344 C346 1.363 . S
C344 H360 0.931 . S
C345 C344 1.370 1_554 S
C345 C349 1.408 . S
C346 C344 1.363 . S
C346 C347 1.370 1_556 S
C346 C350 1.524 . S
C347 C339 1.503 . S
C347 C346 1.370 1_554 S
C347 C348 1.403 . S
C348 C347 1.403 . S
C348 C349 1.404 . S
C348 C351 1.539 . S
C349 C345 1.408 . S
C349 C348 1.404 . S
C349 H361 0.930 . S
C350 C346 1.524 . S
C350 H362 0.956 . S
C350 H363 0.961 . S
C350 H364 0.961 . S
C351 C348 1.539 . S
C351 H365 0.958 . S
C351 H366 0.961 . S
C351 H367 0.960 . S
H352 C336 0.931 . S
H353 C341 0.929 . S
H354 C342 0.960 . S
H355 C342 0.962 . S
H356 C342 0.960 . S
H357 C343 0.961 . S
H358 C343 0.961 . S
H359 C343 0.961 . S
H360 C344 0.931 . S
H361 C349 0.930 . S
H362 C350 0.956 . S
H363 C350 0.961 . S
H364 C350 0.961 . S
H365 C351 0.958 . S
H366 C351 0.961 . S
H367 C351 0.960 . S
C368 C369 1.391 . S
C368 C370 1.394 . S
C368 H384 0.931 . S
C369 C368 1.391 . S
C369 C373 1.376 . S
C370 C368 1.394 . S
C370 C371 1.369 . S
C370 C374 1.531 . S
C371 C370 1.369 . S
C371 C372 1.410 . S
C371 C379 1.503 . S
C372 C371 1.410 . S
C372 C373 1.392 . S
C372 C375 1.511 . S
C373 C369 1.376 . S
C373 C372 1.392 . S
C373 H385 0.929 . S
C374 C370 1.531 . S
C374 H386 0.960 . S
C374 H387 0.962 . S
C374 H388 0.960 . S
C375 C372 1.511 . S
C375 H389 0.961 . S
C375 H390 0.961 . S
C375 H391 0.961 . S
C376 C377 1.370 . S
C376 C378 1.363 . S
C376 H392 0.931 . S
C377 C376 1.370 . S
C377 C381 1.408 . S
C378 C376 1.363 . S
C378 C379 1.370 . S
C378 C382 1.524 . S
C379 C371 1.503 . S
C379 C378 1.370 . S
C379 C380 1.403 . S
C380 C379 1.403 . S
C380 C381 1.404 . S
C380 C383 1.539 . S
C381 C377 1.408 . S
C381 C380 1.404 . S
C381 H393 0.930 . S
C382 C378 1.524 . S
C382 H394 0.956 . S
C382 H395 0.961 . S
C382 H396 0.961 . S
C383 C380 1.539 . S
C383 H397 0.958 . S
C383 H398 0.961 . S
C383 H399 0.960 . S
H384 C368 0.931 . S
H385 C373 0.929 . S
H386 C374 0.960 . S
H387 C374 0.962 . S
H388 C374 0.960 . S
H389 C375 0.961 . S
H390 C375 0.961 . S
H391 C375 0.961 . S
H392 C376 0.931 . S
H393 C381 0.930 . S
H394 C382 0.956 . S
H395 C382 0.961 . S
H396 C382 0.961 . S
H397 C383 0.958 . S
H398 C383 0.961 . S
H399 C383 0.960 . S
C400 C401 1.389 . S
C400 C402 1.397 . S
C400 H416 0.930 1_554 S
C401 C400 1.389 . S
C401 C405 1.376 . S
C402 C400 1.397 . S
C402 C403 1.369 . S
C402 C406 1.531 1_544 S
C403 C402 1.369 . S
C403 C404 1.410 . S
C403 C411 1.503 1_445 S
C404 C403 1.410 . S
C404 C405 1.392 . S
C404 C407 1.511 1_455 S
C405 C401 1.376 . S
C405 C404 1.392 . S
C405 H417 0.929 . S
C406 C402 1.531 1_566 S
C406 H418 0.960 1_556 S
C406 H419 0.962 . S
C406 H420 0.960 1_556 S
C407 C404 1.511 1_655 S
C407 H421 0.961 . S
C407 H422 0.961 . S
C407 H423 0.961 . S
C408 C409 1.370 1_556 S
C408 C410 1.363 . S
C408 H424 0.931 . S
C409 C408 1.370 1_554 S
C409 C413 1.408 . S
C410 C408 1.363 . S
C410 C411 1.370 1_556 S
C410 C414 1.524 . S
C411 C403 1.503 1_665 S
C411 C410 1.370 1_554 S
C411 C412 1.403 . S
C412 C411 1.403 . S
C412 C413 1.404 . S
C412 C415 1.541 . S
C413 C409 1.408 . S
C413 C412 1.404 . S
C413 H425 0.930 . S
C414 C410 1.524 . S
C414 H426 0.956 1_655 S
C414 H427 0.961 1_565 S
C414 H428 0.961 . S
C415 C412 1.541 . S
C415 H429 0.962 1_655 S
C415 H430 0.962 1_565 S
C415 H431 0.953 1_665 S
H416 C400 0.930 1_556 S
H417 C405 0.929 . S
H418 C406 0.960 1_554 S
H419 C406 0.962 . S
H420 C406 0.960 1_554 S
H421 C407 0.961 . S
H422 C407 0.961 . S
H423 C407 0.961 . S
H424 C408 0.931 . S
H425 C413 0.930 . S
H426 C414 0.956 1_455 S
H427 C414 0.961 1_545 S
H428 C414 0.961 . S
H429 C415 0.962 1_455 S
H430 C415 0.962 1_545 S
H431 C415 0.953 1_445 S
C432 C433 1.391 . S
C432 C434 1.394 . S
C432 H448 0.931 . S
C433 C432 1.391 . S
C433 C437 1.376 . S
C434 C432 1.394 . S
C434 C435 1.369 . S
C434 C438 1.531 1_655 S
C435 C434 1.369 . S
C435 C436 1.410 . S
C435 C443 1.503 1_645 S
C436 C435 1.410 . S
C436 C437 1.392 . S
C436 C439 1.511 1_545 S
C437 C433 1.376 . S
C437 C436 1.392 . S
C437 H449 0.929 . S
C438 C434 1.531 1_455 S
C438 H450 0.960 . S
C438 H451 0.962 . S
C438 H452 0.960 . S
C439 C436 1.511 1_565 S
C439 H453 0.961 . S
C439 H454 0.961 . S
C439 H455 0.961 . S
C440 C441 1.370 . S
C440 C442 1.363 . S
C440 H456 0.931 . S
C441 C440 1.370 . S
C441 C445 1.408 . S
C442 C440 1.363 . S
C442 C443 1.370 . S
C442 C446 1.524 . S
C443 C435 1.503 1_465 S
C443 C442 1.370 . S
C443 C444 1.403 . S
C444 C443 1.403 . S
C444 C445 1.404 . S
C444 C447 1.539 1_455 S
C445 C441 1.408 . S
C445 C444 1.404 . S
C445 H457 0.930 . S
C446 C442 1.524 . S
C446 H458 0.956 1_565 S
C446 H459 0.961 . S
C446 H460 0.961 . S
C447 C444 1.539 1_655 S
C447 H461 0.958 1_665 S
C447 H462 0.961 . S
C447 H463 0.960 . S
H448 C432 0.931 . S
H449 C437 0.929 . S
H450 C438 0.960 . S
H451 C438 0.962 . S
H452 C438 0.960 . S
H453 C439 0.961 . S
H454 C439 0.961 . S
H455 C439 0.961 . S
H456 C440 0.931 . S
H457 C445 0.930 . S
H458 C446 0.956 1_545 S
H459 C446 0.961 . S
H460 C446 0.961 . S
H461 C447 0.958 1_445 S
H462 C447 0.961 . S
H463 C447 0.960 . S
C464 C465 1.391 . S
C464 C466 1.394 . S
C464 H480 0.931 . S
C465 C464 1.391 . S
C465 C469 1.376 . S
C466 C464 1.394 . S
C466 C467 1.369 . S
C466 C470 1.531 . S
C467 C466 1.369 . S
C467 C468 1.410 . S
C467 C475 1.503 . S
C468 C467 1.410 . S
C468 C469 1.392 . S
C468 C471 1.511 . S
C469 C465 1.376 . S
C469 C468 1.392 . S
C469 H481 0.929 . S
C470 C466 1.531 . S
C470 H482 0.960 . S
C470 H483 0.962 . S
C470 H484 0.960 . S
C471 C468 1.511 . S
C471 H485 0.961 . S
C471 H486 0.961 . S
C471 H487 0.961 . S
C472 C473 1.370 . S
C472 C474 1.363 . S
C472 H488 0.931 . S
C473 C472 1.370 . S
C473 C477 1.408 . S
C474 C472 1.363 . S
C474 C475 1.370 . S
C474 C478 1.524 . S
C475 C467 1.503 . S
C475 C474 1.370 . S
C475 C476 1.403 . S
C476 C475 1.403 . S
C476 C477 1.404 . S
C476 C479 1.539 . S
C477 C473 1.408 . S
C477 C476 1.404 . S
C477 H489 0.930 . S
C478 C474 1.524 . S
C478 H490 0.956 . S
C478 H491 0.961 . S
C478 H492 0.961 . S
C479 C476 1.539 . S
C479 H493 0.958 . S
C479 H494 0.961 . S
C479 H495 0.960 . S
H480 C464 0.931 . S
H481 C469 0.929 . S
H482 C470 0.960 . S
H483 C470 0.962 . S
H484 C470 0.960 . S
H485 C471 0.961 . S
H486 C471 0.961 . S
H487 C471 0.961 . S
H488 C472 0.931 . S
H489 C477 0.930 . S
H490 C478 0.956 . S
H491 C478 0.961 . S
H492 C478 0.961 . S
H493 C479 0.958 . S
H494 C479 0.961 . S
H495 C479 0.960 . S
C496 C497 1.391 . S
C496 C498 1.394 . S
C496 H512 0.931 . S
C497 C496 1.391 . S
C497 C501 1.376 . S
C498 C496 1.394 . S
C498 C499 1.369 . S
C498 C502 1.531 . S
C499 C498 1.369 . S
C499 C500 1.410 . S
C499 C507 1.503 . S
C500 C499 1.410 . S
C500 C501 1.392 . S
C500 C503 1.511 . S
C501 C497 1.376 . S
C501 C500 1.392 . S
C501 H513 0.929 . S
C502 C498 1.531 . S
C502 H514 0.960 . S
C502 H515 0.962 . S
C502 H516 0.960 . S
C503 C500 1.511 . S
C503 H517 0.961 . S
C503 H518 0.961 . S
C503 H519 0.961 . S
C504 C505 1.370 . S
C504 C506 1.363 . S
C504 H520 0.931 . S
C505 C504 1.370 . S
C505 C509 1.408 . S
C506 C504 1.363 . S
C506 C507 1.370 . S
C506 C510 1.524 . S
C507 C499 1.503 . S
C507 C506 1.370 . S
C507 C508 1.403 . S
C508 C507 1.403 . S
C508 C509 1.404 . S
C508 C511 1.539 . S
C509 C505 1.408 . S
C509 C508 1.404 . S
C509 H521 0.930 . S
C510 C506 1.524 . S
C510 H522 0.956 . S
C510 H523 0.961 . S
C510 H524 0.961 . S
C511 C508 1.539 . S
C511 H525 0.958 . S
C511 H526 0.961 . S
C511 H527 0.960 . S
H512 C496 0.931 . S
H513 C501 0.929 . S
H514 C502 0.960 . S
H515 C502 0.962 . S
H516 C502 0.960 . S
H517 C503 0.961 . S
H518 C503 0.961 . S
H519 C503 0.961 . S
H520 C504 0.931 . S
H521 C509 0.930 . S
H522 C510 0.956 . S
H523 C510 0.961 . S
H524 C510 0.961 . S
H525 C511 0.958 . S
H526 C511 0.961 . S
H527 C511 0.960 . S
C528 C529 1.391 . S
C528 C530 1.394 . S
C528 H544 0.931 . S
C529 C528 1.391 . S
C529 C533 1.376 . S
C530 C528 1.394 . S
C530 C531 1.369 . S
C530 C534 1.531 . S
C531 C530 1.369 . S
C531 C532 1.410 . S
C531 C539 1.503 . S
C532 C531 1.410 . S
C532 C533 1.392 . S
C532 C535 1.511 . S
C533 C529 1.376 . S
C533 C532 1.392 . S
C533 H545 0.929 . S
C534 C530 1.531 . S
C534 H546 0.960 . S
C534 H547 0.962 . S
C534 H548 0.960 . S
C535 C532 1.511 . S
C535 H549 0.961 . S
C535 H550 0.961 . S
C535 H551 0.961 . S
C536 C537 1.370 . S
C536 C538 1.363 . S
C536 H552 0.931 . S
C537 C536 1.370 . S
C537 C541 1.408 . S
C538 C536 1.363 . S
C538 C539 1.370 . S
C538 C542 1.524 . S
C539 C531 1.503 . S
C539 C538 1.370 . S
C539 C540 1.403 . S
C540 C539 1.403 . S
C540 C541 1.404 . S
C540 C543 1.539 . S
C541 C537 1.408 . S
C541 C540 1.404 . S
C541 H553 0.930 . S
C542 C538 1.524 . S
C542 H554 0.956 . S
C542 H555 0.961 . S
C542 H556 0.961 . S
C543 C540 1.539 . S
C543 H557 0.958 . S
C543 H558 0.961 . S
C543 H559 0.960 . S
H544 C528 0.931 . S
H545 C533 0.929 . S
H546 C534 0.960 . S
H547 C534 0.962 . S
H548 C534 0.960 . S
H549 C535 0.961 . S
H550 C535 0.961 . S
H551 C535 0.961 . S
H552 C536 0.931 . S
H553 C541 0.930 . S
H554 C542 0.956 . S
H555 C542 0.961 . S
H556 C542 0.961 . S
H557 C543 0.958 . S
H558 C543 0.961 . S
H559 C543 0.960 . S
C560 C561 1.391 . S
C560 C562 1.394 . S
C560 H576 0.931 . S
C561 C560 1.391 . S
C561 C565 1.376 . S
C562 C560 1.394 . S
C562 C563 1.369 . S
C562 C566 1.531 . S
C563 C562 1.369 . S
C563 C564 1.410 . S
C563 C571 1.503 . S
C564 C563 1.410 . S
C564 C565 1.392 . S
C564 C567 1.511 . S
C565 C561 1.376 . S
C565 C564 1.392 . S
C565 H577 0.929 . S
C566 C562 1.531 . S
C566 H578 0.960 . S
C566 H579 0.962 . S
C566 H580 0.960 . S
C567 C564 1.511 . S
C567 H581 0.961 . S
C567 H582 0.961 . S
C567 H583 0.961 . S
C568 C569 1.370 . S
C568 C570 1.363 . S
C568 H584 0.931 . S
C569 C568 1.370 . S
C569 C573 1.408 . S
C570 C568 1.363 . S
C570 C571 1.370 . S
C570 C574 1.524 . S
C571 C563 1.503 . S
C571 C570 1.370 . S
C571 C572 1.403 . S
C572 C571 1.403 . S
C572 C573 1.404 . S
C572 C575 1.539 . S
C573 C569 1.408 . S
C573 C572 1.404 . S
C573 H585 0.930 . S
C574 C570 1.524 . S
C574 H586 0.956 . S
C574 H587 0.961 . S
C574 H588 0.961 . S
C575 C572 1.539 . S
C575 H589 0.958 . S
C575 H590 0.961 . S
C575 H591 0.960 . S
H576 C560 0.931 . S
H577 C565 0.929 . S
H578 C566 0.960 . S
H579 C566 0.962 . S
H580 C566 0.960 . S
H581 C567 0.961 . S
H582 C567 0.961 . S
H583 C567 0.961 . S
H584 C568 0.931 . S
H585 C573 0.930 . S
H586 C574 0.956 . S
H587 C574 0.961 . S
H588 C574 0.961 . S
H589 C575 0.958 . S
H590 C575 0.961 . S
H591 C575 0.960 . S
C592 C593 1.391 . S
C592 C594 1.394 . S
C592 H608 0.931 . S
C593 C592 1.391 . S
C593 C597 1.376 . S
C594 C592 1.394 . S
C594 C595 1.369 . S
C594 C598 1.531 1_655 S
C595 C594 1.369 . S
C595 C596 1.410 . S
C595 C603 1.503 . S
C596 C595 1.410 . S
C596 C597 1.392 . S
C596 C599 1.511 . S
C597 C593 1.376 . S
C597 C596 1.392 . S
C597 H609 0.929 . S
C598 C594 1.531 1_455 S
C598 H610 0.960 . S
C598 H611 0.962 . S
C598 H612 0.960 . S
C599 C596 1.511 . S
C599 H613 0.961 . S
C599 H614 0.961 . S
C599 H615 0.961 . S
C600 C601 1.372 . S
C600 C602 1.363 1_455 S
C600 H616 0.931 . S
C601 C600 1.372 . S
C601 C605 1.403 1_455 S
C602 C600 1.363 1_655 S
C602 C603 1.370 . S
C602 C606 1.524 . S
C603 C595 1.503 . S
C603 C602 1.370 . S
C603 C604 1.403 . S
C604 C603 1.403 . S
C604 C605 1.404 . S
C604 C607 1.539 . S
C605 C601 1.403 1_655 S
C605 C604 1.404 . S
C605 H617 0.930 . S
C606 C602 1.524 . S
C606 H618 0.956 1_655 S
C606 H619 0.961 . S
C606 H620 0.961 1_655 S
C607 C604 1.539 . S
C607 H621 0.958 . S
C607 H622 0.961 . S
C607 H623 0.960 . S
H608 C592 0.931 . S
H609 C597 0.929 . S
H610 C598 0.960 . S
H611 C598 0.962 . S
H612 C598 0.960 . S
H613 C599 0.961 . S
H614 C599 0.961 . S
H615 C599 0.961 . S
H616 C600 0.931 . S
H617 C605 0.930 . S
H618 C606 0.956 1_455 S
H619 C606 0.961 . S
H620 C606 0.961 1_455 S
H621 C607 0.958 . S
H622 C607 0.961 . S
H623 C607 0.960 . S
C624 C625 1.391 . S
C624 C626 1.394 . S
C624 H640 0.931 . S
C625 C624 1.391 . S
C625 C629 1.376 . S
C626 C624 1.394 . S
C626 C627 1.369 . S
C626 C630 1.531 . S
C627 C626 1.369 . S
C627 C628 1.410 . S
C627 C635 1.503 . S
C628 C627 1.410 . S
C628 C629 1.392 . S
C628 C631 1.511 . S
C629 C625 1.376 . S
C629 C628 1.392 . S
C629 H641 0.929 . S
C630 C626 1.531 . S
C630 H642 0.960 1_655 S
C630 H643 0.962 . S
C630 H644 0.960 1_655 S
C631 C628 1.511 . S
C631 H645 0.961 . S
C631 H646 0.961 . S
C631 H647 0.961 . S
C632 C633 1.370 1_655 S
C632 C634 1.363 . S
C632 H648 0.931 . S
C633 C632 1.370 1_455 S
C633 C637 1.408 . S
C634 C632 1.363 . S
C634 C635 1.370 . S
C634 C638 1.524 . S
C635 C627 1.503 . S
C635 C634 1.370 . S
C635 C636 1.403 1_655 S
C636 C635 1.403 1_455 S
C636 C637 1.404 . S
C636 C639 1.539 . S
C637 C633 1.408 . S
C637 C636 1.404 . S
C637 H649 0.930 . S
C638 C634 1.524 . S
C638 H650 0.956 . S
C638 H651 0.961 . S
C638 H652 0.961 . S
C639 C636 1.539 . S
C639 H653 0.958 . S
C639 H654 0.961 . S
C639 H655 0.960 . S
H640 C624 0.931 . S
H641 C629 0.929 . S
H642 C630 0.960 1_455 S
H643 C630 0.962 . S
H644 C630 0.960 1_455 S
H645 C631 0.961 . S
H646 C631 0.961 . S
H647 C631 0.961 . S
H648 C632 0.931 . S
H649 C637 0.930 . S
H650 C638 0.956 . S
H651 C638 0.961 . S
H652 C638 0.961 . S
H653 C639 0.958 . S
H654 C639 0.961 . S
H655 C639 0.960 . S
C656 C657 1.391 1_655 S
C656 C658 1.394 1_655 S
C656 H672 0.931 . S
C657 C656 1.391 1_455 S
C657 C661 1.376 . S
C658 C656 1.394 1_455 S
C658 C659 1.369 . S
C658 C662 1.530 1_455 S
C659 C658 1.369 . S
C659 C660 1.410 . S
C659 C667 1.503 . S
C660 C659 1.410 . S
C660 C661 1.392 . S
C660 C663 1.511 . S
C661 C657 1.376 . S
C661 C660 1.392 . S
C661 H673 0.929 . S
C662 C658 1.530 1_655 S
C662 H674 0.957 1_655 S
C662 H675 0.964 . S
C662 H676 0.961 . S
C663 C660 1.511 . S
C663 H677 0.961 . S
C663 H678 0.961 . S
C663 H679 0.961 . S
C664 C665 1.370 . S
C664 C666 1.363 . S
C664 H680 0.931 . S
C665 C664 1.370 . S
C665 C669 1.408 . S
C666 C664 1.363 . S
C666 C667 1.370 . S
C666 C670 1.524 1_455 S
C667 C659 1.503 . S
C667 C666 1.370 . S
C667 C668 1.403 . S
C668 C667 1.403 . S
C668 C669 1.404 . S
C668 C671 1.539 . S
C669 C665 1.408 . S
C669 C668 1.404 . S
C669 H681 0.930 . S
C670 C666 1.524 1_655 S
C670 H682 0.956 . S
C670 H683 0.961 1_655 S
C670 H684 0.961 . S
C671 C668 1.539 . S
C671 H685 0.958 . S
C671 H686 0.961 . S
C671 H687 0.960 . S
H672 C656 0.931 . S
H673 C661 0.929 . S
H674 C662 0.957 1_455 S
H675 C662 0.964 . S
H676 C662 0.961 . S
H677 C663 0.961 . S
H678 C663 0.961 . S
H679 C663 0.961 . S
H680 C664 0.931 . S
H681 C669 0.930 . S
H682 C670 0.956 . S
H683 C670 0.961 1_455 S
H684 C670 0.961 . S
H685 C671 0.958 . S
H686 C671 0.961 . S
H687 C671 0.960 . S
C688 C689 1.391 . S
C688 C690 1.394 . S
C688 H704 0.931 . S
C689 C688 1.391 . S
C689 C693 1.376 . S
C690 C688 1.394 . S
C690 C691 1.369 . S
C690 C694 1.531 1_455 S
C691 C690 1.369 . S
C691 C692 1.410 . S
C691 C699 1.503 . S
C692 C691 1.410 . S
C692 C693 1.392 . S
C692 C695 1.511 . S
C693 C689 1.376 . S
C693 C692 1.392 . S
C693 H705 0.929 . S
C694 C690 1.531 1_655 S
C694 H706 0.960 . S
C694 H707 0.962 . S
C694 H708 0.960 . S
C695 C692 1.511 . S
C695 H709 0.961 . S
C695 H710 0.961 . S
C695 H711 0.961 . S
C696 C697 1.372 . S
C696 C698 1.363 1_655 S
C696 H712 0.931 . S
C697 C696 1.372 . S
C697 C701 1.402 1_655 S
C698 C696 1.363 1_455 S
C698 C699 1.370 . S
C698 C702 1.524 . S
C699 C691 1.503 . S
C699 C698 1.370 . S
C699 C700 1.403 . S
C700 C699 1.403 . S
C700 C701 1.404 . S
C700 C703 1.539 . S
C701 C697 1.402 1_455 S
C701 C700 1.404 . S
C701 H713 0.930 . S
C702 C698 1.524 . S
C702 H714 0.956 1_455 S
C702 H715 0.961 . S
C702 H716 0.961 1_455 S
C703 C700 1.539 . S
C703 H717 0.958 . S
C703 H718 0.961 . S
C703 H719 0.960 . S
H704 C688 0.931 . S
H705 C693 0.929 . S
H706 C694 0.960 . S
H707 C694 0.962 . S
H708 C694 0.960 . S
H709 C695 0.961 . S
H710 C695 0.961 . S
H711 C695 0.961 . S
H712 C696 0.931 . S
H713 C701 0.930 . S
H714 C702 0.956 1_655 S
H715 C702 0.961 . S
H716 C702 0.961 1_655 S
H717 C703 0.958 . S
H718 C703 0.961 . S
H719 C703 0.960 . S
C337 C158 1.525 1_554 S
C345 C63 1.503 . S
C369 C231 1.524 . S
C377 C326 1.504 . S
C401 C74 1.525 1_554 S
C409 C147 1.503 . S
C433 C315 1.525 . S
C441 C242 1.503 . S
C465 C321 1.268 . S
C473 C56 1.317 . S
C497 C153 1.200 . S
C505 C224 1.306 . S
C529 C151 1.320 . S
C537 C226 1.247 . S
C561 C319 1.298 . S
C569 C58 1.221 . S
C593 C140 1.306 . S
C601 C237 1.258 . S
C625 C308 1.324 . S
C633 C69 1.242 . S
C657 C310 1.272 1_455 S
C665 C67 1.308 . S
C689 C235 1.297 . S
C697 C142 1.230 . S
