# Generated by pormake.
# Topology zft, (5)-cn, num edge types: 1
# Building blocks:
#     Node 0, Type 0, BuildingBlock: XOMCOT_clean_sbu_0, # of connection points: 5
#     Node 1, Type 0, BuildingBlock: XOMCOT_clean_sbu_0, # of connection points: 5
#     Node 2, Type 0, BuildingBlock: XOMCOT_clean_sbu_0, # of connection points: 5
#     Node 3, Type 0, BuildingBlock: XOMCOT_clean_sbu_0, # of connection points: 5
#     Node 4, Type 0, BuildingBlock: XOMCOT_clean_sbu_0, # of connection points: 5
#     Node 5, Type 0, BuildingBlock: XOMCOT_clean_sbu_0, # of connection points: 5
#     Node 6, Type 0, BuildingBlock: XOMCOT_clean_sbu_0, # of connection points: 5
#     Node 7, Type 0, BuildingBlock: XOMCOT_clean_sbu_0, # of connection points: 5
#     Edge 8, Type (0, 0), BuildingBlock: OJICUG_clean_linker_0, # of connection points: 2
#     Edge 9, Type (0, 0), BuildingBlock: OJICUG_clean_linker_0, # of connection points: 2
#     Edge 10, Type (0, 0), BuildingBlock: OJICUG_clean_linker_0, # of connection points: 2
#     Edge 11, Type (0, 0), BuildingBlock: OJICUG_clean_linker_0, # of connection points: 2
#     Edge 12, Type (0, 0), BuildingBlock: OJICUG_clean_linker_0, # of connection points: 2
#     Edge 13, Type (0, 0), BuildingBlock: OJICUG_clean_linker_0, # of connection points: 2
#     Edge 14, Type (0, 0), BuildingBlock: OJICUG_clean_linker_0, # of connection points: 2
#     Edge 15, Type (0, 0), BuildingBlock: OJICUG_clean_linker_0, # of connection points: 2
#     Edge 16, Type (0, 0), BuildingBlock: OJICUG_clean_linker_0, # of connection points: 2
#     Edge 17, Type (0, 0), BuildingBlock: OJICUG_clean_linker_0, # of connection points: 2
#     Edge 18, Type (0, 0), BuildingBlock: OJICUG_clean_linker_0, # of connection points: 2
#     Edge 19, Type (0, 0), BuildingBlock: OJICUG_clean_linker_0, # of connection points: 2
#     Edge 20, Type (0, 0), BuildingBlock: OJICUG_clean_linker_0, # of connection points: 2
#     Edge 21, Type (0, 0), BuildingBlock: OJICUG_clean_linker_0, # of connection points: 2
#     Edge 22, Type (0, 0), BuildingBlock: OJICUG_clean_linker_0, # of connection points: 2
#     Edge 23, Type (0, 0), BuildingBlock: OJICUG_clean_linker_0, # of connection points: 2
#     Edge 24, Type (0, 0), BuildingBlock: OJICUG_clean_linker_0, # of connection points: 2
#     Edge 25, Type (0, 0), BuildingBlock: OJICUG_clean_linker_0, # of connection points: 2
#     Edge 26, Type (0, 0), BuildingBlock: OJICUG_clean_linker_0, # of connection points: 2
#     Edge 27, Type (0, 0), BuildingBlock: OJICUG_clean_linker_0, # of connection points: 2
# Relax obj value: 0.079
# Max RMSD: 0.166
# Mean RMSD: 0.166
data_MOF--net-zft--node1-XOMCOT_clean_sbu_0--edge1-OJICUG_clean_linker_0
_symmetry_space_group_name_H-M    P1
_symmetry_Int_Tables_number       1
_symmetry_cell_setting            triclinic
loop_
_symmetry_equiv_pos_as_xyz
'x, y, z'
_cell_length_a     20.885071
_cell_length_b     21.007559
_cell_length_c     41.066449
_cell_angle_alpha  89.757125
_cell_angle_beta   90.152906
_cell_angle_gamma 90.326259
loop_
_atom_site_label
_atom_site_type_symbol
_atom_site_fract_x
_atom_site_fract_y
_atom_site_fract_z
_atom_type_partial_charge
Co0 Co 0.14349 0.30138 0.14524 0.0
C1 C 0.22352 0.41395 0.12957 0.0
C2 C 0.27798 0.32926 0.12282 0.0
C3 C 0.31719 0.38149 0.11704 0.0
N4 N 0.21826 0.3496 0.12971 0.0
N5 N 0.28257 0.43459 0.12162 0.0
H6 H 0.1858 0.44594 0.13657 0.0
H7 H 0.29348 0.28034 0.12358 0.0
C8 C 0.20225 0.19806 0.10352 0.0
O9 O 0.21003 0.23798 0.07911 0.0
N10 N 0.06948 0.25591 0.16144 0.0
C11 C 1.00773 0.27073 0.15563 0.0
C12 C 0.96926 0.22726 0.17137 0.0
C13 C 0.06788 0.20475 0.18143 0.0
N14 N 1.00711 0.18602 0.18744 0.0
C15 C 0.08595 0.37733 0.09551 0.0
C16 C 0.03469 0.27889 0.05931 0.0
C17 C 1.02339 0.34188 0.04958 0.0
C18 C 0.04956 0.39131 0.06806 0.0
C19 C 0.0721 0.26694 0.08694 0.0
N20 N 0.09857 0.31598 0.10429 0.0
H21 H 0.10099 0.41629 0.11052 0.0
H22 H 0.07732 0.21834 0.09513 0.0
H23 H 0.99168 0.31102 0.14138 0.0
H24 H 0.10996 0.18247 0.19174 0.0
O25 O 0.11569 0.37554 0.1685 0.0
O26 O 0.18077 0.30142 0.18817 0.0
O27 O 0.17899 0.21714 0.13046 0.0
C28 C 0.15178 0.35549 0.19225 0.0
H29 H 0.36785 0.38052 0.11158 0.0
H30 H 0.91745 0.22751 0.17222 0.0
H31 H 1.01421 0.23931 0.04597 0.0
H32 H 0.03979 0.44064 0.06216 0.0
Co33 Co 0.25301 0.63294 0.39707 0.0
C34 C 0.14466 0.71821 0.38257 0.0
C35 C 0.2323 0.77032 0.37801 0.0
C36 C 0.18162 0.81149 0.37273 0.0
N37 N 0.20909 0.71091 0.38316 0.0
N38 N 0.12669 0.77823 0.37595 0.0
H39 H 0.11053 0.68108 0.38826 0.0
H40 H 0.2821 0.78408 0.37956 0.0
C41 C 0.36037 0.69253 0.35779 0.0
O42 O 0.32052 0.70258 0.33351 0.0
N43 N 0.29311 0.5553 0.41158 0.0
C44 C 0.26844 0.49668 0.40691 0.0
C45 C 0.30858 0.45289 0.42079 0.0
C46 C 0.3475 0.54668 0.42888 0.0
N47 N 0.35828 0.48411 0.43456 0.0
C48 C 0.17737 0.58489 0.3444 0.0
C49 C 0.27639 0.52883 0.31078 0.0
C50 C 0.21339 0.52038 0.29973 0.0
C51 C 0.16369 0.54945 0.31672 0.0
C52 C 0.28806 0.5653 0.33855 0.0
N53 N 0.23885 0.59365 0.35482 0.0
H54 H 0.13776 0.60159 0.35844 0.0
H55 H 0.33638 0.56792 0.3479 0.0
H56 H 0.22375 0.4866 0.39456 0.0
H57 H 0.37804 0.58509 0.43725 0.0
O58 O 0.17546 0.60561 0.41844 0.0
O59 O 0.25239 0.66416 0.44103 0.0
O60 O 0.34034 0.66704 0.3842 0.0
C61 C 0.19634 0.63713 0.44355 0.0
H62 H 0.18483 0.86231 0.36852 0.0
H63 H 0.30054 0.40196 0.42173 0.0
H64 H 0.3161 0.50635 0.29851 0.0
H65 H 0.11415 0.54215 0.3097 0.0
Co66 Co 0.91905 0.76277 0.64458 0.0
C67 C 0.84556 0.64802 0.62768 0.0
C68 C 0.78767 0.73129 0.62143 0.0
C69 C 0.75085 0.67806 0.61453 0.0
N70 N 0.84703 0.71214 0.62962 0.0
N71 N 0.78737 0.62585 0.6188 0.0
H72 H 0.88624 0.618 0.63299 0.0
H73 H 0.7717 0.78017 0.62126 0.0
C74 C 0.90909 0.88539 0.60674 0.0
O75 O 0.96582 0.87494 0.59437 0.0
N76 N 0.99226 0.81341 0.6599 0.0
C77 C 0.04589 0.8293 0.64316 0.0
C78 C 0.0829 0.86955 0.6614 0.0
C79 C 0.99867 0.84422 0.6887 0.0
N80 N 0.05328 0.8789 0.6899 0.0
C81 C 1.0182 0.70089 0.61041 0.0
C82 C 0.9757 0.72685 0.54801 0.0
C83 C 0.03389 0.69478 0.55246 0.0
C84 C 0.05399 0.68027 0.5841 0.0
C85 C 0.94117 0.74683 0.57524 0.0
N86 N 0.96486 0.73715 0.60588 0.0
H87 H 0.03528 0.69037 0.63467 0.0
H88 H 0.89607 0.77094 0.57177 0.0
H89 H 0.0576 0.8152 0.6187 0.0
H90 H 0.9639 0.8426 0.70815 0.0
O91 O 0.94487 0.69319 0.6719 0.0
O92 O 0.87795 0.76905 0.68682 0.0
O93 O 0.88165 0.84281 0.62433 0.0
C94 C 0.9068 0.71583 0.69383 0.0
H95 H 0.70057 0.67767 0.60805 0.0
H96 H 0.1285 0.89018 0.6544 0.0
H97 H 0.95791 0.73774 0.52383 0.0
H98 H 0.09752 0.65376 0.58853 0.0
Co99 Co 0.80452 0.42138 0.89473 0.0
C100 C 0.91708 0.34443 0.87708 0.0
C101 C 0.83149 0.29343 0.86503 0.0
C102 C 0.88375 0.25522 0.85847 0.0
N103 N 0.85252 0.35032 0.87609 0.0
N104 N 0.93746 0.28756 0.86638 0.0
H105 H 0.94927 0.38031 0.88646 0.0
H106 H 0.78197 0.27886 0.8633 0.0
C107 C 0.69726 0.3719 0.85106 0.0
O108 O 0.73342 0.37605 0.825 0.0
N109 N 0.75971 0.49187 0.91389 0.0
C110 C 0.77918 0.55313 0.91253 0.0
C111 C 0.73742 0.58949 0.93008 0.0
C112 C 0.70704 0.49137 0.93288 0.0
N113 N 0.69221 0.55075 0.94262 0.0
C114 C 0.87987 0.48536 0.84683 0.0
C115 C 0.78102 0.5456 0.81446 0.0
C116 C 0.84421 0.55641 0.80425 0.0
C117 C 0.89384 0.5262 0.8211 0.0
C118 C 0.76911 0.50414 0.84057 0.0
N119 N 0.81823 0.47283 0.85574 0.0
H120 H 0.91925 0.46619 0.86043 0.0
H121 H 0.72051 0.4985 0.84911 0.0
H122 H 0.8219 0.56994 0.90031 0.0
H123 H 0.68164 0.44866 0.94027 0.0
O124 O 0.87963 0.44648 0.91888 0.0
O125 O 0.80574 0.37792 0.93613 0.0
O126 O 0.71958 0.38635 0.87907 0.0
C127 C 0.85996 0.40705 0.9413 0.0
H128 H 0.88214 0.20651 0.85001 0.0
H129 H 0.74144 0.64009 0.93464 0.0
H130 H 0.74124 0.56879 0.80241 0.0
H131 H 0.94352 0.53523 0.81501 0.0
Co132 Co 0.655 0.25402 0.57098 0.0
C133 C 0.74292 0.15328 0.59383 0.0
C134 C 0.79307 0.24091 0.58588 0.0
C135 C 0.83723 0.19361 0.5918 0.0
N136 N 0.73348 0.21597 0.58784 0.0
N137 N 0.80536 0.13842 0.59669 0.0
H138 H 0.70605 0.11743 0.59223 0.0
H139 H 0.80417 0.28897 0.57817 0.0
C140 C 0.71254 0.3622 0.60911 0.0
O141 O 0.72524 0.32221 0.63292 0.0
N142 N 0.57754 0.28979 0.55334 0.0
C143 C 0.51881 0.26343 0.55602 0.0
C144 C 0.47679 0.29793 0.53734 0.0
C145 C 0.57077 0.33991 0.53296 0.0
N146 N 0.50941 0.34592 0.5231 0.0
C147 C 0.59789 0.18003 0.62206 0.0
C148 C 0.54482 0.28006 0.65576 0.0
C149 C 0.53382 0.21768 0.66673 0.0
C150 C 0.56098 0.16742 0.64951 0.0
C151 C 0.58293 0.29065 0.62826 0.0
N152 N 0.6106 0.24094 0.61223 0.0
H153 H 0.61253 0.14023 0.60768 0.0
H154 H 0.58755 0.33866 0.61909 0.0
H155 H 0.50789 0.2204 0.5695 0.0
H156 H 0.61013 0.36898 0.5242 0.0
O157 O 0.63399 0.17436 0.55029 0.0
O158 O 0.69209 0.2517 0.52799 0.0
O159 O 0.6845 0.34256 0.58332 0.0
C160 C 0.66752 0.19479 0.5257 0.0
H161 H 0.88876 0.1989 0.59081 0.0
H162 H 0.42665 0.28712 0.5333 0.0
H163 H 0.52344 0.32022 0.66801 0.0
H164 H 0.55126 0.1184 0.65627 0.0
Co165 Co 0.31013 0.15146 0.82165 0.0
C166 C 0.4114 0.2391 0.84552 0.0
C167 C 0.33178 0.28931 0.82528 0.0
C168 C 0.38222 0.33149 0.82896 0.0
N169 N 0.35003 0.23099 0.83559 0.0
N170 N 0.432 0.29955 0.84179 0.0
H171 H 0.44351 0.2011 0.85164 0.0
H172 H 0.28716 0.29913 0.81285 0.0
C173 C 0.20353 0.2171 0.85749 0.0
O174 O 0.24508 0.23713 0.87929 0.0
N175 N 0.27155 0.07307 0.80702 0.0
C176 C 0.29185 1.01354 0.81347 0.0
C177 C 0.24998 0.971 0.79938 0.0
C178 C 0.21834 0.06617 0.78873 0.0
N179 N 0.20394 1.00417 0.78384 0.0
C180 C 0.38611 0.09256 0.8712 0.0
C181 C 0.28668 0.05266 0.91055 0.0
C182 C 0.34943 0.0352 0.91862 0.0
C183 C 0.39943 0.05609 0.89871 0.0
C184 C 0.27548 0.09032 0.88295 0.0
N185 N 0.32512 0.11121 0.86393 0.0
H186 H 0.42485 0.10157 0.8546 0.0
H187 H 0.22651 0.09885 0.87596 0.0
H188 H 0.33446 1.00174 0.82715 0.0
H189 H 0.19106 0.10564 0.77903 0.0
O190 O 0.38906 0.12893 0.80033 0.0
O191 O 0.31049 0.18398 0.77756 0.0
O192 O 0.22202 0.18233 0.83395 0.0
C193 C 0.36764 0.16017 0.77521 0.0
H194 H 0.38365 0.38059 0.82086 0.0
H195 H 0.25449 0.91968 0.79939 0.0
H196 H 0.24652 0.03603 0.92496 0.0
H197 H 0.44826 0.04125 0.90327 0.0
Co198 Co 0.41351 0.80552 0.07087 0.0
C199 C 0.33205 0.91534 0.08664 0.0
C200 C 0.27764 0.82938 0.09137 0.0
C201 C 0.23752 0.88061 0.09659 0.0
N202 N 0.33777 0.85116 0.08609 0.0
N203 N 0.27218 0.93446 0.09323 0.0
H204 H 0.37002 0.94838 0.08068 0.0
H205 H 0.26257 0.78025 0.0897 0.0
C206 C 0.35361 0.69942 0.11108 0.0
O207 O 0.34522 0.73856 0.13556 0.0
N208 N 0.4886 0.7628 0.05503 0.0
C209 C 0.54956 0.78151 0.06031 0.0
C210 C 0.58983 0.73838 0.04616 0.0
C211 C 0.49234 0.70945 0.03696 0.0
N212 N 0.55388 0.69327 0.03156 0.0
C213 C 0.46845 0.87902 0.12252 0.0
C214 C 0.52167 0.77885 0.15668 0.0
C215 C 0.53242 0.8412 0.16754 0.0
C216 C 0.50498 0.89151 0.15016 0.0
C217 C 0.48407 0.76838 0.12896 0.0
N218 N 0.4569 0.81818 0.11249 0.0
H219 H 0.45271 0.91888 0.10829 0.0
H220 H 0.4794 0.72038 0.1199 0.0
H221 H 0.56373 0.82378 0.0735 0.0
H222 H 0.45121 0.68325 0.02796 0.0
O223 O 0.44171 0.88177 0.04874 0.0
O224 O 0.37797 0.8079 0.02748 0.0
O225 O 0.37785 0.71964 0.08442 0.0
C226 C 0.40666 0.86277 0.02437 0.0
H227 H 0.18637 0.87855 0.10068 0.0
H228 H 0.64162 0.74102 0.04564 0.0
H229 H 0.54291 0.73863 0.16917 0.0
H230 H 0.5141 0.9405 0.15697 0.0
Co231 Co 0.75644 0.90756 0.32248 0.0
C232 C 0.64521 0.82693 0.34 0.0
C233 C 0.73128 0.77324 0.34494 0.0
C234 C 0.67951 0.73348 0.35109 0.0
N235 N 0.70985 0.83275 0.33894 0.0
N236 N 0.62552 0.76762 0.34764 0.0
H237 H 0.61226 0.86435 0.33362 0.0
H238 H 0.78053 0.75831 0.34315 0.0
C239 C 0.86209 0.8502 0.36375 0.0
O240 O 0.82206 0.8425 0.38811 0.0
N241 N 0.79998 0.98176 0.30537 0.0
C242 C 0.78295 0.0427 0.31054 0.0
C243 C 0.82549 0.08207 0.29476 0.0
C244 C 0.85155 0.98466 0.28566 0.0
N245 N 0.86836 0.04558 0.27923 0.0
C246 C 0.68299 0.96453 0.37336 0.0
C247 C 0.78464 1.01806 0.40683 0.0
C248 C 0.72216 1.02895 0.41774 0.0
C249 C 0.67106 1.0015 0.40069 0.0
C250 C 0.79451 0.98004 0.37946 0.0
N251 N 0.744 0.95257 0.3634 0.0
H252 H 0.64266 0.94857 0.35934 0.0
H253 H 0.84269 0.9752 0.37035 0.0
H254 H 0.74193 0.05754 0.32455 0.0
H255 H 0.87568 0.9434 0.27598 0.0
O256 O 0.68 0.93396 0.29981 0.0
O257 O 0.7543 0.87017 0.2797 0.0
O258 O 0.84254 0.87326 0.33668 0.0
C259 C 0.69938 0.8983 0.27597 0.0
H260 H 0.68128 0.68279 0.35582 0.0
H261 H 0.82367 0.13354 0.2936 0.0
H262 H 0.82543 0.03936 0.41904 0.0
H263 H 0.62195 1.01075 0.40757 0.0
C264 C 0.13659 0.45607 0.2231 0.0
C265 C 0.16529 0.39602 0.22061 0.0
H266 H 0.13039 0.54301 0.24979 0.0
C267 C 0.21054 0.37732 0.24407 0.0
H268 H 0.10206 0.47206 0.20517 0.0
C269 C 0.22707 0.41818 0.26951 0.0
C270 C 0.19842 0.47829 0.27195 0.0
H271 H 0.23375 0.33144 0.24262 0.0
H272 H 0.26153 0.40236 0.28752 0.0
C273 C 0.15293 0.49677 0.24856 0.0
C274 C 0.04947 0.65009 0.49652 0.0
C275 C 0.07518 0.67824 0.52462 0.0
H276 H 0.0682 0.61377 0.44888 0.0
C277 C 0.14133 0.69064 0.52625 0.0
H278 H 0.99871 0.63972 0.49476 0.0
C279 C 0.18099 0.67577 0.50017 0.0
C280 C 0.15535 0.64784 0.47204 0.0
H281 H 0.1623 0.71302 0.5475 0.0
H282 H 0.2316 0.68686 0.50192 0.0
C283 C 0.08933 0.63466 0.47048 0.0
C284 C 0.82852 0.6573 0.77174 0.0
C285 C 0.85948 0.5986 0.77626 0.0
H286 H 0.81996 0.74154 0.74223 0.0
C287 C 0.907 0.58041 0.7541 0.0
H288 H 0.79212 0.67283 0.78863 0.0
C289 C 0.92341 0.61977 0.7281 0.0
C290 C 0.89247 0.67826 0.72337 0.0
H291 H 0.93108 0.5351 0.75658 0.0
H292 H 0.95975 0.60357 0.71133 0.0
C293 C 0.84496 0.69692 0.74547 0.0
C294 C 0.88238 0.34313 -0.00852 0.0
C295 C 0.90057 0.3914 0.96954 0.0
H296 H 0.90738 0.28925 0.03403 0.0
C297 C 0.95989 0.42208 0.97366 0.0
H298 H 0.83708 0.31834 -0.01127 0.0
C299 C 1.00016 0.40511 -0.00066 0.0
C300 C 0.98202 0.35698 0.02136 0.0
H301 H 0.97551 0.45898 0.95692 0.0
H302 H 0.04574 0.42948 0.00191 0.0
C303 C 0.92287 0.32594 0.01714 0.0
C304 C 0.72592 0.17134 0.47406 0.0
C305 C 0.6807 0.15333 0.49768 0.0
H306 H 0.77487 0.14573 0.43026 0.0
C307 C 0.65013 0.09385 0.49513 0.0
H308 H 0.75052 0.21677 0.47553 0.0
C309 C 0.66418 0.05326 0.46935 0.0
C310 C 0.70944 0.07112 0.44574 0.0
H311 H 0.61536 0.07849 0.51309 0.0
H312 H 0.63994 1.00761 0.46801 0.0
C313 C 0.74036 0.13046 0.44837 0.0
C314 C 0.46876 0.1438 0.74418 0.0
C315 C 0.40885 0.17328 0.74683 0.0
H316 H 0.55551 0.13538 0.71694 0.0
C317 C 0.39058 0.21832 0.72322 0.0
H318 H 0.48436 0.10928 0.76215 0.0
C319 C 0.43166 0.23377 0.69751 0.0
C320 C 0.49148 0.20403 0.69481 0.0
H321 H 0.34488 0.24222 0.72479 0.0
H322 H 0.4162 0.26818 0.67946 0.0
C323 C 0.50953 0.1588 0.71836 0.0
C324 C 0.34344 0.89181 0.97476 0.0
C325 C 0.39385 0.90521 -0.00356 0.0
H326 H 0.28926 0.92309 0.93333 0.0
C327 C 0.42876 0.96209 -0.00731 0.0
H328 H 0.31528 0.84862 0.97726 0.0
C329 C 0.41376 1.00464 0.96765 0.0
C330 C 0.36307 0.99152 0.94611 0.0
H331 H 0.4675 0.97396 0.00921 0.0
H332 H 0.44151 0.04813 0.96525 0.0
C333 C 0.32797 0.93476 0.94991 0.0
C334 C 0.59836 0.91543 0.2446 0.0
C335 C 0.65789 0.88523 0.24763 0.0
H336 H 0.51161 0.92437 0.21715 0.0
C337 C 0.67553 0.83958 0.22446 0.0
H338 H 0.58316 0.95035 0.26226 0.0
C339 C 0.63428 0.82432 0.19876 0.0
C340 C 0.57483 0.85473 0.19567 0.0
H341 H 0.72095 0.81518 0.2263 0.0
H342 H 0.64938 0.78954 0.18101 0.0
C343 C 0.55733 0.90047 0.21883 0.0
C344 C 0.27573 0.04505 0.07245 0.0
C345 C 0.25073 0.99954 0.09431 0.0
H346 H 0.27965 0.1432 0.05796 0.0
C347 C 0.20782 1.01941 0.11837 0.0
H348 H 0.3084 0.03087 0.05341 0.0
C349 C 0.19207 0.08388 0.1213 0.0
C350 C 0.21802 0.12966 0.0998 0.0
H351 H 0.1882 0.98536 0.13557 0.0
H352 H 0.15965 0.09787 0.1405 0.0
C353 C 0.25915 0.10931 0.07499 0.0
C354 C 0.51387 0.77015 0.32742 0.0
C355 C 0.5599 0.74575 0.34915 0.0
H356 H 0.41528 0.77219 0.31288 0.0
C357 C 0.54014 0.70218 0.37317 0.0
H358 H 0.5278 0.8032 0.30837 0.0
C359 C 0.47537 0.68495 0.37604 0.0
C360 C 0.42917 0.71006 0.35454 0.0
H361 H 0.57454 0.68291 0.39029 0.0
H362 H 0.46151 0.65195 0.39513 0.0
C363 C 0.44941 0.75217 0.32992 0.0
C364 C 0.89058 0.06018 0.58515 0.0
C365 C 0.8313 0.07495 0.59921 0.0
H366 H 0.96078 0.98898 0.5759 0.0
C367 C 0.79658 1.02606 0.61491 0.0
H368 H 0.9181 0.09623 0.57242 0.0
C369 C 0.82085 0.9641 0.61676 0.0
C370 C 0.88033 0.9495 0.60282 0.0
H371 H 0.75095 0.03594 0.62619 0.0
H372 H 0.79334 0.92791 0.62946 0.0
C373 C 0.91466 0.99828 0.58684 0.0
C374 C 0.53302 0.30662 0.87262 0.0
C375 C 0.49757 0.32044 0.84443 0.0
H376 H 0.62373 0.31288 0.89696 0.0
C377 C 0.52828 0.35063 0.81811 0.0
H378 H 0.51031 0.28287 0.89303 0.0
C379 C 0.59364 0.36608 0.81987 0.0
C380 C 0.62898 0.35296 0.84829 0.0
H381 H 0.50202 0.36076 0.79593 0.0
H382 H 0.61625 0.38911 0.79921 0.0
C383 C 0.59779 0.32359 0.87474 0.0
C384 C 0.77542 0.45014 0.63559 0.0
C385 C 0.73082 0.43036 0.61197 0.0
H386 H 0.82844 0.52784 0.65618 0.0
C387 C 0.70447 0.4763 0.59086 0.0
H388 H 0.79664 0.41607 0.65222 0.0
C389 C 0.72234 0.5405 0.59334 0.0
C390 C 0.76776 0.56001 0.61659 0.0
H391 H 0.66979 0.46271 0.57246 0.0
H392 H 0.70155 0.57476 0.57669 0.0
C393 C 0.79401 0.51411 0.63771 0.0
C394 C 0.08879 0.20778 0.83872 0.0
C395 C 0.13441 0.23287 0.86062 0.0
H396 H 0.9903 0.20529 0.82348 0.0
C397 C 0.11329 0.27367 0.88533 0.0
H398 H 0.1032 0.17588 0.81946 0.0
C399 C 0.04866 0.29026 0.88761 0.0
C400 C 1.00325 0.26647 0.86526 0.0
H401 H 0.14679 0.29347 0.90279 0.0
H402 H 0.0343 0.32185 0.90697 0.0
C403 C 1.02394 0.22421 0.8411 0.0
C404 C 0.29612 0.60963 0.13946 0.0
C405 C 0.33695 0.63079 0.11448 0.0
H406 H 0.2471 0.53049 0.16137 0.0
C407 C 0.36194 0.58559 0.09274 0.0
H408 H 0.27628 0.643 0.1567 0.0
C409 C 0.34585 0.52092 0.09571 0.0
C410 C 0.30353 0.50017 0.12009 0.0
H411 H 0.39404 0.60015 0.07338 0.0
H412 H 0.36497 0.48735 0.07838 0.0
C413 C 0.27922 0.54519 0.14207 0.0
C414 C 0.95091 0.79366 0.39313 0.0
C415 C 0.93088 0.83409 0.36779 0.0
H416 H 1.02919 0.74451 0.41562 0.0
C417 C 0.97731 0.85899 0.3463 0.0
H418 H 0.91658 0.77393 0.41018 0.0
C419 C 0.04209 0.84288 0.34978 0.0
C420 C 0.06157 0.80065 0.3744 0.0
H421 H 0.96358 0.89081 0.3267 0.0
H422 H 0.07665 0.86161 0.33257 0.0
C423 C 1.01538 0.77673 0.39621 0.0
C424 C 0.90891 0.05537 0.22345 0.0
C425 C 0.91516 0.06904 0.25669 0.0
H426 H 0.93401 0.08367 0.17476 0.0
C427 C 0.95979 0.11513 0.26681 0.0
H428 H 0.87384 1.02076 0.21527 0.0
C429 C 0.99514 0.14974 0.24385 0.0
C430 C 0.9849 0.13974 0.21052 0.0
H431 H 0.96442 0.12673 0.29238 0.0
H432 H 1.02644 0.18781 0.25194 0.0
C433 C 0.94297 0.0912 0.20045 0.0
C434 C 0.46488 0.35834 0.46852 0.0
C435 C 0.48449 0.38595 0.49786 0.0
H436 H 0.41076 0.36913 0.42467 0.0
C437 C 0.46971 0.44977 0.50412 0.0
H438 H 0.47588 0.30903 0.46347 0.0
C439 C 0.43163 0.48424 0.48213 0.0
C440 C 0.40788 0.45485 0.4538 0.0
H441 H 0.48403 0.47135 0.52693 0.0
H442 H 0.41717 0.53205 0.48836 0.0
C443 C 0.42732 0.39255 0.44659 0.0
C444 C 0.1042 0.97675 0.70968 0.0
C445 C 0.07873 0.91604 0.71614 0.0
H446 H 0.16363 0.0531 0.72663 0.0
C447 C 0.08809 0.8884 0.74689 0.0
H448 H 0.09752 0.99859 0.68598 0.0
C449 C 0.12684 0.91895 0.76993 0.0
C450 C 0.15564 0.97803 0.7627 0.0
H451 H 0.06928 0.84133 0.75213 0.0
H452 H 0.13644 0.89537 0.79291 0.0
C453 C 0.14179 1.00784 0.73289 0.0
C454 C 0.59009 0.59964 0.95709 0.0
C455 C 0.64703 0.56979 0.96669 0.0
H456 H 0.51403 0.66219 0.97111 0.0
C457 C 0.66663 0.57276 -0.00072 0.0
H458 H 0.57531 0.5988 0.9318 0.0
C459 C 0.6327 0.60962 0.02144 0.0
C460 C 0.57835 0.64353 0.01135 0.0
H461 H 0.71119 0.55096 0.00679 0.0
H462 H 0.6511 0.61508 0.04595 0.0
C463 C 0.55538 0.63579 0.97945 0.0
loop_
_geom_bond_atom_site_label_1
_geom_bond_atom_site_label_2
_geom_bond_distance
_geom_bond_site_symmetry_2
_ccdc_geom_bond_type
Co0 N4 2.148 . S
Co0 N10 2.128 . S
Co0 N20 2.194 . S
Co0 O25 2.351 . S
Co0 O26 2.155 . S
Co0 O27 2.096 . S
C1 N4 1.301 . S
C1 N5 1.328 . S
C1 H6 0.930 . S
C2 C3 1.333 . S
C2 N4 1.317 . S
C2 H7 0.930 . S
C3 C2 1.333 . S
C3 N5 1.350 . S
C3 H29 0.931 . S
N4 Co0 2.148 . S
N4 C1 1.301 . S
N4 C2 1.317 . S
N5 C1 1.328 . S
N5 C3 1.350 . S
H6 C1 0.930 . S
H7 C2 0.930 . S
C8 O9 1.224 . S
C8 O27 1.247 . S
O9 C8 1.224 . S
N10 Co0 2.128 . S
N10 C11 1.355 1_455 S
N10 C13 1.311 . S
C11 N10 1.355 1_655 S
C11 C12 1.363 . S
C11 H23 0.929 . S
C12 C11 1.363 . S
C12 N14 1.375 . S
C12 H30 0.931 . S
C13 N10 1.311 . S
C13 N14 1.347 1_455 S
C13 H24 0.929 . S
N14 C12 1.375 . S
N14 C13 1.347 1_655 S
C15 C18 1.365 1_455 S
C15 N20 1.328 . S
C15 H21 0.929 . S
C16 C17 1.362 1_455 S
C16 C19 1.378 . S
C16 H31 0.929 . S
C17 C16 1.362 1_655 S
C17 C18 1.366 . S
C18 C15 1.365 1_655 S
C18 C17 1.366 . S
C18 H32 0.930 . S
C19 C16 1.378 . S
C19 N20 1.315 . S
C19 H22 0.930 . S
N20 Co0 2.194 . S
N20 C15 1.328 . S
N20 C19 1.315 . S
H21 C15 0.929 . S
H22 C19 0.930 . S
H23 C11 0.929 . S
H24 C13 0.929 . S
O25 Co0 2.351 . S
O25 C28 1.244 . S
O26 Co0 2.155 . S
O26 C28 1.240 . S
O27 Co0 2.096 . S
O27 C8 1.247 . S
C28 O25 1.244 . S
C28 O26 1.240 . S
H29 C3 0.931 . S
H30 C12 0.931 . S
H31 C16 0.929 . S
H32 C18 0.930 . S
Co33 N37 2.148 . S
Co33 N43 2.128 . S
Co33 N53 2.194 . S
Co33 O58 2.351 . S
Co33 O59 2.155 . S
Co33 O60 2.096 . S
C34 N37 1.301 . S
C34 N38 1.328 . S
C34 H39 0.930 . S
C35 C36 1.333 . S
C35 N37 1.317 . S
C35 H40 0.930 . S
C36 C35 1.333 . S
C36 N38 1.350 . S
C36 H62 0.931 . S
N37 Co33 2.148 . S
N37 C34 1.301 . S
N37 C35 1.317 . S
N38 C34 1.328 . S
N38 C36 1.350 . S
H39 C34 0.930 . S
H40 C35 0.930 . S
C41 O42 1.224 . S
C41 O60 1.247 . S
O42 C41 1.224 . S
N43 Co33 2.128 . S
N43 C44 1.355 . S
N43 C46 1.311 . S
C44 N43 1.355 . S
C44 C45 1.363 . S
C44 H56 0.929 . S
C45 C44 1.363 . S
C45 N47 1.375 . S
C45 H63 0.931 . S
C46 N43 1.311 . S
C46 N47 1.347 . S
C46 H57 0.929 . S
N47 C45 1.375 . S
N47 C46 1.347 . S
C48 C51 1.365 . S
C48 N53 1.328 . S
C48 H54 0.929 . S
C49 C50 1.362 . S
C49 C52 1.378 . S
C49 H64 0.929 . S
C50 C49 1.362 . S
C50 C51 1.366 . S
C51 C48 1.365 . S
C51 C50 1.366 . S
C51 H65 0.930 . S
C52 C49 1.378 . S
C52 N53 1.315 . S
C52 H55 0.930 . S
N53 Co33 2.194 . S
N53 C48 1.328 . S
N53 C52 1.315 . S
H54 C48 0.929 . S
H55 C52 0.930 . S
H56 C44 0.929 . S
H57 C46 0.929 . S
O58 Co33 2.351 . S
O58 C61 1.244 . S
O59 Co33 2.155 . S
O59 C61 1.240 . S
O60 Co33 2.096 . S
O60 C41 1.247 . S
C61 O58 1.244 . S
C61 O59 1.240 . S
H62 C36 0.931 . S
H63 C45 0.931 . S
H64 C49 0.929 . S
H65 C51 0.930 . S
Co66 N70 2.148 . S
Co66 N76 2.128 . S
Co66 N86 2.194 . S
Co66 O91 2.351 . S
Co66 O92 2.155 . S
Co66 O93 2.096 . S
C67 N70 1.301 . S
C67 N71 1.328 . S
C67 H72 0.930 . S
C68 C69 1.333 . S
C68 N70 1.317 . S
C68 H73 0.930 . S
C69 C68 1.333 . S
C69 N71 1.350 . S
C69 H95 0.931 . S
N70 Co66 2.148 . S
N70 C67 1.301 . S
N70 C68 1.317 . S
N71 C67 1.328 . S
N71 C69 1.350 . S
H72 C67 0.930 . S
H73 C68 0.930 . S
C74 O75 1.224 . S
C74 O93 1.247 . S
O75 C74 1.224 . S
N76 Co66 2.128 . S
N76 C77 1.355 1_655 S
N76 C79 1.311 . S
C77 N76 1.355 1_455 S
C77 C78 1.363 . S
C77 H89 0.929 . S
C78 C77 1.363 . S
C78 N80 1.375 . S
C78 H96 0.931 . S
C79 N76 1.311 . S
C79 N80 1.347 1_655 S
C79 H90 0.929 . S
N80 C78 1.375 . S
N80 C79 1.347 1_455 S
C81 C84 1.365 1_655 S
C81 N86 1.328 . S
C81 H87 0.929 . S
C82 C83 1.362 1_655 S
C82 C85 1.378 . S
C82 H97 0.929 . S
C83 C82 1.362 1_455 S
C83 C84 1.366 . S
C84 C81 1.365 1_455 S
C84 C83 1.366 . S
C84 H98 0.930 . S
C85 C82 1.378 . S
C85 N86 1.315 . S
C85 H88 0.930 . S
N86 Co66 2.194 . S
N86 C81 1.328 . S
N86 C85 1.315 . S
H87 C81 0.929 . S
H88 C85 0.930 . S
H89 C77 0.929 . S
H90 C79 0.929 . S
O91 Co66 2.351 . S
O91 C94 1.244 . S
O92 Co66 2.155 . S
O92 C94 1.240 . S
O93 Co66 2.096 . S
O93 C74 1.247 . S
C94 O91 1.244 . S
C94 O92 1.240 . S
H95 C69 0.931 . S
H96 C78 0.931 . S
H97 C82 0.929 . S
H98 C84 0.930 . S
Co99 N103 2.148 . S
Co99 N109 2.128 . S
Co99 N119 2.194 . S
Co99 O124 2.351 . S
Co99 O125 2.155 . S
Co99 O126 2.096 . S
C100 N103 1.301 . S
C100 N104 1.328 . S
C100 H105 0.930 . S
C101 C102 1.333 . S
C101 N103 1.317 . S
C101 H106 0.930 . S
C102 C101 1.333 . S
C102 N104 1.350 . S
C102 H128 0.931 . S
N103 Co99 2.148 . S
N103 C100 1.301 . S
N103 C101 1.317 . S
N104 C100 1.328 . S
N104 C102 1.350 . S
H105 C100 0.930 . S
H106 C101 0.930 . S
C107 O108 1.224 . S
C107 O126 1.247 . S
O108 C107 1.224 . S
N109 Co99 2.128 . S
N109 C110 1.355 . S
N109 C112 1.311 . S
C110 N109 1.355 . S
C110 C111 1.363 . S
C110 H122 0.929 . S
C111 C110 1.363 . S
C111 N113 1.375 . S
C111 H129 0.931 . S
C112 N109 1.311 . S
C112 N113 1.347 . S
C112 H123 0.929 . S
N113 C111 1.375 . S
N113 C112 1.347 . S
C114 C117 1.365 . S
C114 N119 1.328 . S
C114 H120 0.929 . S
C115 C116 1.362 . S
C115 C118 1.378 . S
C115 H130 0.929 . S
C116 C115 1.362 . S
C116 C117 1.366 . S
C117 C114 1.365 . S
C117 C116 1.366 . S
C117 H131 0.930 . S
C118 C115 1.378 . S
C118 N119 1.315 . S
C118 H121 0.930 . S
N119 Co99 2.194 . S
N119 C114 1.328 . S
N119 C118 1.315 . S
H120 C114 0.929 . S
H121 C118 0.930 . S
H122 C110 0.929 . S
H123 C112 0.929 . S
O124 Co99 2.351 . S
O124 C127 1.244 . S
O125 Co99 2.155 . S
O125 C127 1.240 . S
O126 Co99 2.096 . S
O126 C107 1.247 . S
C127 O124 1.244 . S
C127 O125 1.240 . S
H128 C102 0.931 . S
H129 C111 0.931 . S
H130 C115 0.929 . S
H131 C117 0.930 . S
Co132 N136 2.148 . S
Co132 N142 2.128 . S
Co132 N152 2.194 . S
Co132 O157 2.351 . S
Co132 O158 2.155 . S
Co132 O159 2.096 . S
C133 N136 1.301 . S
C133 N137 1.328 . S
C133 H138 0.930 . S
C134 C135 1.333 . S
C134 N136 1.317 . S
C134 H139 0.930 . S
C135 C134 1.333 . S
C135 N137 1.350 . S
C135 H161 0.931 . S
N136 Co132 2.148 . S
N136 C133 1.301 . S
N136 C134 1.317 . S
N137 C133 1.328 . S
N137 C135 1.350 . S
H138 C133 0.930 . S
H139 C134 0.930 . S
C140 O141 1.224 . S
C140 O159 1.247 . S
O141 C140 1.224 . S
N142 Co132 2.128 . S
N142 C143 1.355 . S
N142 C145 1.311 . S
C143 N142 1.355 . S
C143 C144 1.363 . S
C143 H155 0.929 . S
C144 C143 1.363 . S
C144 N146 1.375 . S
C144 H162 0.931 . S
C145 N142 1.311 . S
C145 N146 1.347 . S
C145 H156 0.929 . S
N146 C144 1.375 . S
N146 C145 1.347 . S
C147 C150 1.365 . S
C147 N152 1.328 . S
C147 H153 0.929 . S
C148 C149 1.362 . S
C148 C151 1.378 . S
C148 H163 0.929 . S
C149 C148 1.362 . S
C149 C150 1.366 . S
C150 C147 1.365 . S
C150 C149 1.366 . S
C150 H164 0.930 . S
C151 C148 1.378 . S
C151 N152 1.315 . S
C151 H154 0.930 . S
N152 Co132 2.194 . S
N152 C147 1.328 . S
N152 C151 1.315 . S
H153 C147 0.929 . S
H154 C151 0.930 . S
H155 C143 0.929 . S
H156 C145 0.929 . S
O157 Co132 2.351 . S
O157 C160 1.244 . S
O158 Co132 2.155 . S
O158 C160 1.240 . S
O159 Co132 2.096 . S
O159 C140 1.247 . S
C160 O157 1.244 . S
C160 O158 1.240 . S
H161 C135 0.931 . S
H162 C144 0.931 . S
H163 C148 0.929 . S
H164 C150 0.930 . S
Co165 N169 2.148 . S
Co165 N175 2.128 . S
Co165 N185 2.194 . S
Co165 O190 2.351 . S
Co165 O191 2.155 . S
Co165 O192 2.096 . S
C166 N169 1.301 . S
C166 N170 1.328 . S
C166 H171 0.930 . S
C167 C168 1.333 . S
C167 N169 1.317 . S
C167 H172 0.930 . S
C168 C167 1.333 . S
C168 N170 1.350 . S
C168 H194 0.931 . S
N169 Co165 2.148 . S
N169 C166 1.301 . S
N169 C167 1.317 . S
N170 C166 1.328 . S
N170 C168 1.350 . S
H171 C166 0.930 . S
H172 C167 0.930 . S
C173 O174 1.224 . S
C173 O192 1.247 . S
O174 C173 1.224 . S
N175 Co165 2.128 . S
N175 C176 1.355 1_545 S
N175 C178 1.311 . S
C176 N175 1.355 1_565 S
C176 C177 1.363 . S
C176 H188 0.929 . S
C177 C176 1.363 . S
C177 N179 1.375 . S
C177 H195 0.931 . S
C178 N175 1.311 . S
C178 N179 1.347 1_545 S
C178 H189 0.929 . S
N179 C177 1.375 . S
N179 C178 1.347 1_565 S
C180 C183 1.365 1_545 S
C180 N185 1.328 . S
C180 H186 0.929 . S
C181 C182 1.362 1_545 S
C181 C184 1.378 . S
C181 H196 0.929 . S
C182 C181 1.362 1_565 S
C182 C183 1.366 . S
C183 C180 1.365 1_565 S
C183 C182 1.366 . S
C183 H197 0.930 . S
C184 C181 1.378 . S
C184 N185 1.315 . S
C184 H187 0.930 . S
N185 Co165 2.194 . S
N185 C180 1.328 . S
N185 C184 1.315 . S
H186 C180 0.929 . S
H187 C184 0.930 . S
H188 C176 0.929 . S
H189 C178 0.929 . S
O190 Co165 2.351 . S
O190 C193 1.244 . S
O191 Co165 2.155 . S
O191 C193 1.240 . S
O192 Co165 2.096 . S
O192 C173 1.247 . S
C193 O190 1.244 . S
C193 O191 1.240 . S
H194 C168 0.931 . S
H195 C177 0.931 . S
H196 C181 0.929 . S
H197 C183 0.930 . S
Co198 N202 2.148 . S
Co198 N208 2.128 . S
Co198 N218 2.194 . S
Co198 O223 2.351 . S
Co198 O224 2.155 . S
Co198 O225 2.096 . S
C199 N202 1.301 . S
C199 N203 1.328 . S
C199 H204 0.930 . S
C200 C201 1.333 . S
C200 N202 1.317 . S
C200 H205 0.930 . S
C201 C200 1.333 . S
C201 N203 1.350 . S
C201 H227 0.931 . S
N202 Co198 2.148 . S
N202 C199 1.301 . S
N202 C200 1.317 . S
N203 C199 1.328 . S
N203 C201 1.350 . S
H204 C199 0.930 . S
H205 C200 0.930 . S
C206 O207 1.224 . S
C206 O225 1.247 . S
O207 C206 1.224 . S
N208 Co198 2.128 . S
N208 C209 1.355 . S
N208 C211 1.311 . S
C209 N208 1.355 . S
C209 C210 1.363 . S
C209 H221 0.929 . S
C210 C209 1.363 . S
C210 N212 1.375 . S
C210 H228 0.931 . S
C211 N208 1.311 . S
C211 N212 1.347 . S
C211 H222 0.929 . S
N212 C210 1.375 . S
N212 C211 1.347 . S
C213 C216 1.365 . S
C213 N218 1.328 . S
C213 H219 0.929 . S
C214 C215 1.362 . S
C214 C217 1.378 . S
C214 H229 0.929 . S
C215 C214 1.362 . S
C215 C216 1.366 . S
C216 C213 1.365 . S
C216 C215 1.366 . S
C216 H230 0.930 . S
C217 C214 1.378 . S
C217 N218 1.315 . S
C217 H220 0.930 . S
N218 Co198 2.194 . S
N218 C213 1.328 . S
N218 C217 1.315 . S
H219 C213 0.929 . S
H220 C217 0.930 . S
H221 C209 0.929 . S
H222 C211 0.929 . S
O223 Co198 2.351 . S
O223 C226 1.244 . S
O224 Co198 2.155 . S
O224 C226 1.240 . S
O225 Co198 2.096 . S
O225 C206 1.247 . S
C226 O223 1.244 . S
C226 O224 1.240 . S
H227 C201 0.931 . S
H228 C210 0.931 . S
H229 C214 0.929 . S
H230 C216 0.930 . S
Co231 N235 2.148 . S
Co231 N241 2.128 . S
Co231 N251 2.194 . S
Co231 O256 2.351 . S
Co231 O257 2.155 . S
Co231 O258 2.096 . S
C232 N235 1.301 . S
C232 N236 1.328 . S
C232 H237 0.930 . S
C233 C234 1.333 . S
C233 N235 1.317 . S
C233 H238 0.930 . S
C234 C233 1.333 . S
C234 N236 1.350 . S
C234 H260 0.931 . S
N235 Co231 2.148 . S
N235 C232 1.301 . S
N235 C233 1.317 . S
N236 C232 1.328 . S
N236 C234 1.350 . S
H237 C232 0.930 . S
H238 C233 0.930 . S
C239 O240 1.224 . S
C239 O258 1.247 . S
O240 C239 1.224 . S
N241 Co231 2.128 . S
N241 C242 1.355 1_565 S
N241 C244 1.311 . S
C242 N241 1.355 1_545 S
C242 C243 1.363 . S
C242 H254 0.929 . S
C243 C242 1.363 . S
C243 N245 1.375 . S
C243 H261 0.931 . S
C244 N241 1.311 . S
C244 N245 1.347 1_565 S
C244 H255 0.929 . S
N245 C243 1.375 . S
N245 C244 1.347 1_545 S
C246 C249 1.365 1_565 S
C246 N251 1.328 . S
C246 H252 0.929 . S
C247 C248 1.362 1_565 S
C247 C250 1.378 . S
C247 H262 0.929 . S
C248 C247 1.362 1_545 S
C248 C249 1.366 . S
C249 C246 1.365 1_545 S
C249 C248 1.366 . S
C249 H263 0.930 . S
C250 C247 1.378 . S
C250 N251 1.315 . S
C250 H253 0.930 . S
N251 Co231 2.194 . S
N251 C246 1.328 . S
N251 C250 1.315 . S
H252 C246 0.929 . S
H253 C250 0.930 . S
H254 C242 0.929 . S
H255 C244 0.929 . S
O256 Co231 2.351 . S
O256 C259 1.244 . S
O257 Co231 2.155 . S
O257 C259 1.240 . S
O258 Co231 2.096 . S
O258 C239 1.247 . S
C259 O256 1.244 . S
C259 O257 1.240 . S
H260 C234 0.931 . S
H261 C243 0.931 . S
H262 C247 0.929 . S
H263 C249 0.930 . S
C264 C265 1.387 . S
C264 H268 0.950 . S
C264 C273 1.390 . S
C265 C264 1.387 . S
C265 C267 1.387 . S
H266 C273 0.950 . S
C267 C265 1.387 . S
C267 C269 1.390 . S
C267 H271 0.950 . S
H268 C264 0.950 . S
C269 C267 1.390 . S
C269 C270 1.387 . S
C269 H272 0.950 . S
C270 C269 1.387 . S
C270 C273 1.387 . S
H271 C267 0.950 . S
H272 C269 0.950 . S
C273 C264 1.390 . S
C273 H266 0.950 . S
C273 C270 1.387 . S
C274 C275 1.387 . S
C274 H278 0.950 . S
C274 C283 1.390 . S
C275 C274 1.387 . S
C275 C277 1.387 . S
H276 C283 0.950 . S
C277 C275 1.387 . S
C277 C279 1.390 . S
C277 H281 0.950 . S
H278 C274 0.950 . S
C279 C277 1.390 . S
C279 C280 1.387 . S
C279 H282 0.950 . S
C280 C279 1.387 . S
C280 C283 1.387 . S
H281 C277 0.950 . S
H282 C279 0.950 . S
C283 C274 1.390 . S
C283 H276 0.950 . S
C283 C280 1.387 . S
C284 C285 1.387 . S
C284 H288 0.950 . S
C284 C293 1.390 . S
C285 C284 1.387 . S
C285 C287 1.387 . S
H286 C293 0.950 . S
C287 C285 1.387 . S
C287 C289 1.390 . S
C287 H291 0.950 . S
H288 C284 0.950 . S
C289 C287 1.390 . S
C289 C290 1.387 . S
C289 H292 0.950 . S
C290 C289 1.387 . S
C290 C293 1.387 . S
H291 C287 0.950 . S
H292 C289 0.950 . S
C293 C284 1.390 . S
C293 H286 0.950 . S
C293 C290 1.387 . S
C294 C295 1.387 1_554 S
C294 H298 0.950 . S
C294 C303 1.390 . S
C295 C294 1.387 1_556 S
C295 C297 1.387 1_556 S
H296 C303 0.950 . S
C297 C295 1.387 1_554 S
C297 C299 1.390 . S
C297 H301 0.950 1_554 S
H298 C294 0.950 . S
C299 C297 1.390 . S
C299 C300 1.387 . S
C299 H302 0.950 1_655 S
C300 C299 1.387 . S
C300 C303 1.387 . S
H301 C297 0.950 1_556 S
H302 C299 0.950 1_455 S
C303 C294 1.390 . S
C303 H296 0.950 . S
C303 C300 1.387 . S
C304 C305 1.387 . S
C304 H308 0.950 . S
C304 C313 1.390 . S
C305 C304 1.387 . S
C305 C307 1.387 . S
H306 C313 0.950 . S
C307 C305 1.387 . S
C307 C309 1.390 . S
C307 H311 0.950 . S
H308 C304 0.950 . S
C309 C307 1.390 . S
C309 C310 1.387 . S
C309 H312 0.950 . S
C310 C309 1.387 . S
C310 C313 1.387 . S
H311 C307 0.950 . S
H312 C309 0.950 . S
C313 C304 1.390 . S
C313 H306 0.950 . S
C313 C310 1.387 . S
C314 C315 1.387 . S
C314 H318 0.950 . S
C314 C323 1.390 . S
C315 C314 1.387 . S
C315 C317 1.387 . S
H316 C323 0.950 . S
C317 C315 1.387 . S
C317 C319 1.390 . S
C317 H321 0.950 . S
H318 C314 0.950 . S
C319 C317 1.390 . S
C319 C320 1.387 . S
C319 H322 0.950 . S
C320 C319 1.387 . S
C320 C323 1.387 . S
H321 C317 0.950 . S
H322 C319 0.950 . S
C323 C314 1.390 . S
C323 H316 0.950 . S
C323 C320 1.387 . S
C324 C325 1.387 1_556 S
C324 H328 0.950 . S
C324 C333 1.390 . S
C325 C324 1.387 1_554 S
C325 C327 1.387 . S
H326 C333 0.950 . S
C327 C325 1.387 . S
C327 C329 1.390 1_554 S
C327 H331 0.950 . S
H328 C324 0.950 . S
C329 C327 1.390 1_556 S
C329 C330 1.387 . S
C329 H332 0.950 1_565 S
C330 C329 1.387 . S
C330 C333 1.387 . S
H331 C327 0.950 . S
H332 C329 0.950 1_545 S
C333 C324 1.390 . S
C333 H326 0.950 . S
C333 C330 1.387 . S
C334 C335 1.387 . S
C334 H338 0.950 . S
C334 C343 1.390 . S
C335 C334 1.387 . S
C335 C337 1.387 . S
H336 C343 0.950 . S
C337 C335 1.387 . S
C337 C339 1.390 . S
C337 H341 0.950 . S
H338 C334 0.950 . S
C339 C337 1.390 . S
C339 C340 1.387 . S
C339 H342 0.950 . S
C340 C339 1.387 . S
C340 C343 1.387 . S
H341 C337 0.950 . S
H342 C339 0.950 . S
C343 C334 1.390 . S
C343 H336 0.950 . S
C343 C340 1.387 . S
C344 C345 1.387 1_545 S
C344 H348 0.950 1_545 S
C344 C353 1.390 . S
C345 C344 1.387 1_565 S
C345 C347 1.387 1_565 S
H346 C353 0.950 . S
C347 C345 1.387 1_545 S
C347 C349 1.390 . S
C347 H351 0.950 1_545 S
H348 C344 0.950 1_565 S
C349 C347 1.390 . S
C349 C350 1.387 . S
C349 H352 0.950 . S
C350 C349 1.387 . S
C350 C353 1.387 . S
H351 C347 0.950 1_565 S
H352 C349 0.950 . S
C353 C344 1.390 . S
C353 H346 0.950 . S
C353 C350 1.387 . S
C354 C355 1.387 . S
C354 H358 0.950 . S
C354 C363 1.390 . S
C355 C354 1.387 . S
C355 C357 1.387 . S
H356 C363 0.950 . S
C357 C355 1.387 . S
C357 C359 1.390 . S
C357 H361 0.950 . S
H358 C354 0.950 . S
C359 C357 1.390 . S
C359 C360 1.387 . S
C359 H362 0.950 . S
C360 C359 1.387 . S
C360 C363 1.387 . S
H361 C357 0.950 . S
H362 C359 0.950 . S
C363 C354 1.390 . S
C363 H356 0.950 . S
C363 C360 1.387 . S
C364 C365 1.382 1_565 S
C364 H368 0.940 1_565 S
C364 C373 1.406 . S
C365 C364 1.382 1_545 S
C365 C367 1.387 1_545 S
H366 C373 0.950 . S
C367 C365 1.387 1_565 S
C367 C369 1.390 . S
C367 H371 0.949 . S
H368 C364 0.940 1_545 S
C369 C367 1.390 . S
C369 C370 1.387 . S
C369 H372 0.950 . S
C370 C369 1.387 . S
C370 C373 1.387 . S
H371 C367 0.949 . S
H372 C369 0.950 . S
C373 C364 1.406 . S
C373 H366 0.950 . S
C373 C370 1.387 . S
C374 C375 1.387 . S
C374 H378 0.950 . S
C374 C383 1.390 . S
C375 C374 1.387 . S
C375 C377 1.387 . S
H376 C383 0.950 . S
C377 C375 1.387 . S
C377 C379 1.390 . S
C377 H381 0.950 . S
H378 C374 0.950 . S
C379 C377 1.390 . S
C379 C380 1.387 . S
C379 H382 0.950 . S
C380 C379 1.387 . S
C380 C383 1.387 . S
H381 C377 0.950 . S
H382 C379 0.950 . S
C383 C374 1.390 . S
C383 H376 0.950 . S
C383 C380 1.387 . S
C384 C385 1.387 . S
C384 H388 0.950 . S
C384 C393 1.390 . S
C385 C384 1.387 . S
C385 C387 1.387 . S
H386 C393 0.950 . S
C387 C385 1.387 . S
C387 C389 1.390 . S
C387 H391 0.950 . S
H388 C384 0.950 . S
C389 C387 1.390 . S
C389 C390 1.387 . S
C389 H392 0.950 . S
C390 C389 1.387 . S
C390 C393 1.387 . S
H391 C387 0.950 . S
H392 C389 0.950 . S
C393 C384 1.390 . S
C393 H386 0.950 . S
C393 C390 1.387 . S
C394 C395 1.387 . S
C394 H398 0.950 . S
C394 C403 1.390 . S
C395 C394 1.387 . S
C395 C397 1.387 . S
H396 C403 0.950 1_655 S
C397 C395 1.387 . S
C397 C399 1.390 . S
C397 H401 0.950 . S
H398 C394 0.950 . S
C399 C397 1.390 . S
C399 C400 1.387 1_455 S
C399 H402 0.950 1_455 S
C400 C399 1.387 1_655 S
C400 C403 1.387 1_655 S
H401 C397 0.950 . S
H402 C399 0.950 1_655 S
C403 C394 1.390 . S
C403 H396 0.950 1_455 S
C403 C400 1.387 1_455 S
C404 C405 1.387 . S
C404 H408 0.950 . S
C404 C413 1.390 . S
C405 C404 1.387 . S
C405 C407 1.387 . S
H406 C413 0.950 . S
C407 C405 1.387 . S
C407 C409 1.390 . S
C407 H411 0.950 . S
H408 C404 0.950 . S
C409 C407 1.390 . S
C409 C410 1.387 . S
C409 H412 0.950 . S
C410 C409 1.387 . S
C410 C413 1.387 . S
H411 C407 0.950 . S
H412 C409 0.950 . S
C413 C404 1.390 . S
C413 H406 0.950 . S
C413 C410 1.387 . S
C414 C415 1.387 . S
C414 H418 0.950 . S
C414 C423 1.390 . S
C415 C414 1.387 . S
C415 C417 1.387 . S
H416 C423 0.950 . S
C417 C415 1.387 . S
C417 C419 1.390 1_655 S
C417 H421 0.950 . S
H418 C414 0.950 . S
C419 C417 1.390 1_455 S
C419 C420 1.387 . S
C419 H422 0.950 . S
C420 C419 1.387 . S
C420 C423 1.387 1_455 S
H421 C417 0.950 . S
H422 C419 0.950 . S
C423 C414 1.390 . S
C423 H416 0.950 . S
C423 C420 1.387 1_655 S
C424 C425 1.387 . S
C424 H428 0.950 1_545 S
C424 C433 1.390 . S
C425 C424 1.387 . S
C425 C427 1.387 . S
H426 C433 0.950 . S
C427 C425 1.387 . S
C427 C429 1.390 . S
C427 H431 0.950 . S
H428 C424 0.950 1_565 S
C429 C427 1.390 . S
C429 C430 1.387 . S
C429 H432 0.950 . S
C430 C429 1.387 . S
C430 C433 1.387 . S
H431 C427 0.950 . S
H432 C429 0.950 . S
C433 C424 1.390 . S
C433 H426 0.950 . S
C433 C430 1.387 . S
C434 C435 1.387 . S
C434 H438 0.950 . S
C434 C443 1.390 . S
C435 C434 1.387 . S
C435 C437 1.387 . S
H436 C443 0.950 . S
C437 C435 1.387 . S
C437 C439 1.390 . S
C437 H441 0.950 . S
H438 C434 0.950 . S
C439 C437 1.390 . S
C439 C440 1.387 . S
C439 H442 0.950 . S
C440 C439 1.387 . S
C440 C443 1.387 . S
H441 C437 0.950 . S
H442 C439 0.950 . S
C443 C434 1.390 . S
C443 H436 0.950 . S
C443 C440 1.387 . S
C444 C445 1.387 . S
C444 H448 0.950 . S
C444 C453 1.390 . S
C445 C444 1.387 . S
C445 C447 1.387 . S
H446 C453 0.950 1_545 S
C447 C445 1.387 . S
C447 C449 1.390 . S
C447 H451 0.950 . S
H448 C444 0.950 . S
C449 C447 1.390 . S
C449 C450 1.387 . S
C449 H452 0.950 . S
C450 C449 1.387 . S
C450 C453 1.387 . S
H451 C447 0.950 . S
H452 C449 0.950 . S
C453 C444 1.390 . S
C453 H446 0.950 1_565 S
C453 C450 1.387 . S
C454 C455 1.387 . S
C454 H458 0.950 . S
C454 C463 1.390 . S
C455 C454 1.387 . S
C455 C457 1.387 1_556 S
H456 C463 0.950 . S
C457 C455 1.387 1_554 S
C457 C459 1.390 . S
C457 H461 0.950 . S
H458 C454 0.950 . S
C459 C457 1.390 . S
C459 C460 1.387 . S
C459 H462 0.950 . S
C460 C459 1.387 . S
C460 C463 1.387 1_554 S
H461 C457 0.950 . S
H462 C459 0.950 . S
C463 C454 1.390 . S
C463 H456 0.950 . S
C463 C460 1.387 1_556 S
C265 C28 1.236 . S
C270 C50 1.227 . S
C275 C83 1.226 . S
C280 C61 1.235 . S
C285 C116 1.225 . S
C290 C94 1.235 . S
C295 C127 1.235 . S
C300 C17 1.225 . S
C305 C160 1.235 . S
C310 C248 1.225 . S
C315 C193 1.234 . S
C320 C149 1.224 . S
C325 C226 1.236 . S
C330 C182 1.226 . S
C335 C259 1.234 . S
C340 C215 1.225 . S
C345 N203 1.808 . S
C350 C8 1.785 . S
C355 N236 1.808 . S
C360 C41 1.785 . S
C365 N137 1.809 . S
C370 C74 1.786 . S
C375 N170 1.809 . S
C380 C107 1.786 . S
C385 C140 1.785 . S
C390 N71 1.809 . S
C395 C173 1.786 . S
C400 N104 1.809 . S
C405 C206 1.785 . S
C410 N5 1.809 . S
C415 C239 1.785 . S
C420 N38 1.809 . S
C425 N245 1.488 . S
C430 N14 1.485 . S
C435 N146 1.486 . S
C440 N47 1.484 . S
C445 N80 1.486 . S
C450 N179 1.488 . S
C455 N113 1.484 . S
C460 N212 1.486 . S
