# Generated by pormake.
# Topology rob, (6)-cn, num edge types: 1
# Building blocks:
#     Node 0, Type 0, BuildingBlock: KUMBOL_clean_sbu_1, # of connection points: 6
#     Node 1, Type 0, BuildingBlock: KUMBOL_clean_sbu_1, # of connection points: 6
#     Node 2, Type 0, BuildingBlock: KUMBOL_clean_sbu_1, # of connection points: 6
#     Node 3, Type 0, BuildingBlock: KUMBOL_clean_sbu_1, # of connection points: 6
#     Edge 4, Type (0, 0), BuildingBlock: FUNLAD_clean_linker_1, # of connection points: 2
#     Edge 5, Type (0, 0), BuildingBlock: FUNLAD_clean_linker_1, # of connection points: 2
#     Edge 6, Type (0, 0), BuildingBlock: FUNLAD_clean_linker_1, # of connection points: 2
#     Edge 7, Type (0, 0), BuildingBlock: FUNLAD_clean_linker_1, # of connection points: 2
#     Edge 8, Type (0, 0), BuildingBlock: FUNLAD_clean_linker_1, # of connection points: 2
#     Edge 9, Type (0, 0), BuildingBlock: FUNLAD_clean_linker_1, # of connection points: 2
#     Edge 10, Type (0, 0), BuildingBlock: FUNLAD_clean_linker_1, # of connection points: 2
#     Edge 11, Type (0, 0), BuildingBlock: FUNLAD_clean_linker_1, # of connection points: 2
#     Edge 12, Type (0, 0), BuildingBlock: FUNLAD_clean_linker_1, # of connection points: 2
#     Edge 13, Type (0, 0), BuildingBlock: FUNLAD_clean_linker_1, # of connection points: 2
#     Edge 14, Type (0, 0), BuildingBlock: FUNLAD_clean_linker_1, # of connection points: 2
#     Edge 15, Type (0, 0), BuildingBlock: FUNLAD_clean_linker_1, # of connection points: 2
# Relax obj value: 0.020
# Max RMSD: 0.110
# Mean RMSD: 0.110
data_MOF--net-rob--node1-KUMBOL_clean_sbu_1--edge1-FUNLAD_clean_linker_1
_symmetry_space_group_name_H-M    P1
_symmetry_Int_Tables_number       1
_symmetry_cell_setting            triclinic
loop_
_symmetry_equiv_pos_as_xyz
'x, y, z'
_cell_length_a     19.298783
_cell_length_b     24.207007
_cell_length_c     35.265778
_cell_angle_alpha  109.33771
_cell_angle_beta   89.655512
_cell_angle_gamma 89.961599
loop_
_atom_site_label
_atom_site_type_symbol
_atom_site_fract_x
_atom_site_fract_y
_atom_site_fract_z
_atom_type_partial_charge
C0 C 0.12703 0.41069 0.04707 0.0
C1 C 0.00995 0.37848 0.02603 0.0
C2 C 0.07874 0.36595 0.03391 0.0
C3 C 0.99098 0.43627 0.03044 0.0
C4 C 0.1074 0.46907 0.05273 0.0
C5 C 0.03943 0.48144 0.04412 0.0
N6 N 0.19104 0.39797 0.05787 0.0
C7 C 0.23621 0.44191 0.07652 0.0
C8 C 0.15555 0.51374 0.06894 0.0
C9 C 0.22002 0.50012 0.08125 0.0
Gd10 Gd 0.33127 0.1983 0.95756 0.0
Gd11 Gd 0.21213 0.29896 0.04961 0.0
N12 N 0.09756 0.31093 0.03179 0.0
C13 C 0.96129 0.3331 0.01613 0.0
C14 C 0.04897 0.26781 0.02564 0.0
C15 C 0.9807 0.27768 0.01648 0.0
H16 H 0.06366 0.22554 0.02705 0.0
H17 H 0.94289 0.24286 1.01035 0.0
H18 H 0.46252 0.29836 0.98632 0.0
H19 H 0.28431 0.43243 0.08862 0.0
H20 H 0.58389 0.29985 1.00616 0.0
H21 H 0.90801 0.34099 1.0098 0.0
H22 H 0.93828 0.44682 0.02482 0.0
H23 H 0.27714 0.06141 0.94157 0.0
H24 H 0.14246 0.55906 0.07354 0.0
H25 H 0.25663 0.53458 0.0953 0.0
H26 H 0.63537 0.10012 0.99109 0.0
H27 H 0.02313 0.52617 0.04944 0.0
H28 H 0.45441 0.95854 0.94728 0.0
H29 H 0.32936 0.9656 0.93482 0.0
N30 N 0.37074 0.10866 0.96026 0.0
C31 C 0.43955 0.10594 0.96742 0.0
C32 C 0.33107 0.05932 0.94887 0.0
C33 C 0.43138 1.00098 0.95136 0.0
C34 C 0.36072 1.0048 0.94439 0.0
C35 C 0.4715 0.05194 0.96371 0.0
H36 H 0.56763 1.00923 0.96943 0.0
N37 N 0.44757 0.20816 0.97849 0.0
C38 C 0.47857 0.15719 0.97782 0.0
C39 C 0.58708 0.20788 0.99822 0.0
C40 C 0.54946 0.15566 0.98709 0.0
C41 C 0.48497 0.2587 0.98784 0.0
C42 C 0.5547 0.25954 0.99853 0.0
O43 O 0.16786 0.26824 0.98702 0.0
O44 O 0.26019 0.2644 0.94487 0.0
O45 O 0.39827 0.18642 0.90498 0.0
O46 O 0.30078 0.13765 0.89991 0.0
O47 O 0.20282 0.20019 0.03207 0.0
O48 O 0.22618 0.16181 0.96391 0.0
O49 O 0.34486 0.1928 0.02062 0.0
O50 O 0.32533 0.28842 0.05806 0.0
O51 O 0.19348 0.25857 0.09555 0.0
O52 O 0.17429 0.35089 0.10869 0.0
O53 O 0.33941 0.29576 0.96918 0.0
O54 O 0.31185 0.3414 0.03676 0.0
C55 C 0.19442 0.2745 0.95449 0.0
C56 C 0.19403 0.16031 0.99649 0.0
C57 C 0.36871 0.11695 0.83875 0.0
C58 C 0.42439 0.11091 0.77505 0.0
C59 C 0.34421 0.03512 0.77843 0.0
C60 C 0.33362 0.06447 0.8193 0.0
C61 C 0.38936 0.05788 0.75638 0.0
C62 C 0.41474 0.13966 0.81654 0.0
C63 C 0.35623 0.14765 0.88195 0.0
C64 C 0.58092 0.10209 0.98431 0.0
C65 C 0.54234 0.0503 0.97201 0.0
H66 H 0.64145 0.20858 1.00587 0.0
C67 C 0.35243 0.23735 0.05409 0.0
C68 C 0.33837 0.34192 1.00214 0.0
C69 C 0.19383 0.31896 0.164 0.0
C70 C 0.16146 0.32437 0.23213 0.0
C71 C 0.27486 0.358 0.2185 0.0
C72 C 0.25852 0.34341 0.17779 0.0
C73 C 0.22662 0.34891 0.24564 0.0
C74 C 0.14605 0.30872 0.19108 0.0
C75 C 0.17262 0.30714 0.12221 0.0
H76 H 0.31724 0.99456 0.76376 0.0
H77 H 0.29828 0.04583 0.83574 0.0
H78 H 0.39741 0.03328 0.7249 0.0
H79 H 0.44189 0.18024 0.83129 0.0
H80 H 0.32492 0.37673 0.22912 0.0
H81 H 0.29581 0.35169 0.15723 0.0
H82 H 0.24082 0.36014 0.27694 0.0
H83 H 0.0959 0.28995 0.18033 0.0
C84 C 0.56731 0.92874 0.04828 0.0
C85 C 0.46014 0.8784 0.02176 0.0
C86 C 0.52901 0.87707 0.03464 0.0
C87 C 0.43028 0.93184 0.02302 0.0
C88 C 0.53746 0.98235 0.04921 0.0
C89 C 0.46875 0.98357 0.0368 0.0
N90 N 0.63358 0.92663 0.06063 0.0
C91 C 0.67314 0.97601 0.07359 0.0
C92 C 0.57745 0.0333 0.06278 0.0
C93 C 0.64571 0.03003 0.07476 0.0
Gd94 Gd 0.79173 0.72788 0.97664 0.0
Gd95 Gd 0.66941 0.83554 0.06276 0.0
N96 N 0.55897 0.82572 0.03397 0.0
C97 C 0.42281 0.82606 1.00857 0.0
C98 C 0.52198 0.77497 0.02236 0.0
C99 C 0.45381 0.77421 1.00903 0.0
H100 H 0.54373 0.73526 0.02425 0.0
H101 H 0.42474 0.73383 0.99966 0.0
H102 H 0.93177 0.80742 0.01506 0.0
H103 H 0.72504 0.97428 0.08439 0.0
H104 H 0.05146 0.79125 0.03362 0.0
H105 H 0.36984 0.82529 0.9984 0.0
H106 H 0.37736 0.93368 0.0134 0.0
H107 H 0.71797 0.59476 0.94046 0.0
H108 H 0.55616 0.07533 0.0641 0.0
H109 H 0.67685 0.06925 0.08546 0.0
H110 H 0.06669 0.58298 1.00251 0.0
H111 H 0.44493 0.02437 0.03748 0.0
H112 H 0.8657 0.46806 0.94961 0.0
H113 H 0.74871 0.49222 0.93131 0.0
N114 N 0.81404 0.62898 0.96734 0.0
C115 C 0.8788 0.61662 0.97726 0.0
C116 C 0.76784 0.58512 0.95049 0.0
C117 C 0.85172 0.51335 0.9548 0.0
C118 C 0.7856 0.52682 0.94451 0.0
C119 C 0.89951 0.55838 0.97092 0.0
H120 H 0.98443 0.50218 0.97463 0.0
N121 N 0.90368 0.71804 0.99881 0.0
C122 C 0.9253 0.66227 0.99275 0.0
C123 C 0.03903 0.69784 0.01744 0.0
C124 C 0.99357 0.65073 1.00212 0.0
C125 C 0.94846 0.76386 0.0122 0.0
C126 C 0.0164 0.75465 0.02238 0.0
O127 O 0.66148 0.8378 0.99899 0.0
O128 O 0.68157 0.74194 0.96252 0.0
O129 O 0.83421 0.76417 0.93272 0.0
O130 O 0.81791 0.67079 0.91655 0.0
O131 O 0.67156 0.73868 0.0545 0.0
O132 O 0.68734 0.69202 0.98677 0.0
O133 O 0.81839 0.73355 0.04047 0.0
O134 O 0.77518 0.82162 0.08431 0.0
O135 O 0.60966 0.81393 0.10843 0.0
O136 O 0.64945 0.90164 0.1205 0.0
O137 O 0.8085 0.82635 0.99301 0.0
O138 O 0.77395 0.87413 0.05913 0.0
C139 C 0.65776 0.79363 0.96523 0.0
C140 C 0.66531 0.69245 0.02227 0.0
C141 C 0.81664 0.7108 0.86405 0.0
C142 C 0.8493 0.71176 0.79727 0.0
C143 C 0.72875 0.69826 0.81318 0.0
C144 C 0.74739 0.70143 0.85205 0.0
C145 C 0.77915 0.70344 0.78588 0.0
C146 C 0.86716 0.71617 0.83674 0.0
C147 C 0.83815 0.71339 0.90443 0.0
C148 C 0.01434 0.59276 0.99571 0.0
C149 C 0.96742 0.54677 0.98011 0.0
H150 H 0.0918 0.69078 0.02514 0.0
C151 C 0.81439 0.77465 0.07602 0.0
C152 C 0.81125 0.8707 0.02708 0.0
C153 C 0.64338 0.86571 0.17491 0.0
C154 C 0.61793 0.85477 0.23979 0.0
C155 C 0.73357 0.88239 0.22516 0.0
C156 C 0.71215 0.88033 0.18698 0.0
C157 C 0.68673 0.87006 0.2516 0.0
C158 C 0.59685 0.85197 0.20118 0.0
C159 C 0.6192 0.86526 0.13533 0.0
H160 H 0.67505 0.69165 0.80413 0.0
H161 H 0.70809 0.69625 0.87262 0.0
H162 H 0.76261 0.70168 0.75626 0.0
H163 H 0.92082 0.72303 0.84613 0.0
H164 H 0.78663 0.89355 0.23428 0.0
H165 H 0.74921 0.89035 0.16701 0.0
H166 H 0.70472 0.87128 0.2809 0.0
H167 H 0.54391 0.84009 0.19182 0.0
C168 C 0.14092 0.59207 0.46358 0.0
C169 C 0.01941 0.60993 0.48156 0.0
C170 C 0.08608 0.63076 0.47694 0.0
C171 C 0.00937 0.54977 0.47396 0.0
C172 C 0.13044 0.53137 0.45446 0.0
C173 C 0.0647 0.51056 0.46029 0.0
N174 N 0.20286 0.61323 0.45619 0.0
C175 C 0.25536 0.57587 0.43793 0.0
C176 C 0.18539 0.49314 0.43783 0.0
C177 C 0.2479 0.51548 0.42912 0.0
Gd178 Gd 0.31396 0.81464 0.57009 0.0
Gd179 Gd 0.20955 0.7148 0.46936 0.0
N180 N 0.09669 0.68823 0.482 0.0
C181 C 0.9641 0.64976 0.49152 0.0
C182 C 0.04197 0.72634 0.48854 0.0
C183 C 0.9753 0.70808 0.4945 0.0
H184 H 0.05057 0.77112 0.49005 0.0
H185 H 0.93247 0.73875 0.50082 0.0
H186 H 0.44809 0.71914 0.55865 0.0
H187 H 0.30264 0.59253 0.42926 0.0
H188 H 0.5695 0.71016 0.53633 0.0
H189 H 0.91216 0.63547 0.49544 0.0
H190 H 0.9585 0.53287 0.47717 0.0
H191 H 0.26411 0.94901 0.57639 0.0
H192 H 0.17929 0.44628 0.43033 0.0
H193 H 0.28994 0.48612 0.41499 0.0
H194 H 0.61791 0.89293 0.51681 0.0
H195 H 0.05566 0.46404 0.45321 0.0
H196 H 0.43778 0.03756 0.54682 0.0
H197 H 0.31509 0.03791 0.56765 0.0
N198 N 0.35666 0.89904 0.55966 0.0
C199 C 0.42467 0.89835 0.54928 0.0
C200 C 0.31751 0.9485 0.56688 0.0
C201 C 0.41556 0.99841 0.55029 0.0
C202 C 0.34626 0.99881 0.56209 0.0
C203 C 0.45558 0.94773 0.54352 0.0
H204 H 0.55001 0.98267 0.52711 0.0
N205 N 0.43161 0.8009 0.55017 0.0
C206 C 0.46283 0.84751 0.54366 0.0
C207 C 0.57143 0.79471 0.5288 0.0
C208 C 0.53333 0.84533 0.53234 0.0
C209 C 0.47 0.75312 0.54922 0.0
C210 C 0.53976 0.74866 0.53764 0.0
O211 O 0.15739 0.73011 0.52938 0.0
O212 O 0.23899 0.74881 0.58032 0.0
O213 O 0.37363 0.82402 0.62449 0.0
O214 O 0.28947 0.88314 0.62587 0.0
O215 O 0.18478 0.8118 0.49428 0.0
O216 O 0.20474 0.84499 0.56346 0.0
O217 O 0.31553 0.83299 0.51106 0.0
O218 O 0.32001 0.74111 0.46599 0.0
O219 O 0.17463 0.75731 0.42706 0.0
O220 O 0.20422 0.66641 0.40559 0.0
O221 O 0.32523 0.71574 0.55343 0.0
O222 O 0.31469 0.68699 0.48474 0.0
C223 C 0.17734 0.73131 0.56513 0.0
C224 C 0.17179 0.84714 0.5312 0.0
C225 C 0.31088 0.86311 0.68592 0.0
C226 C 0.33341 0.86896 0.75543 0.0
C227 C 0.21553 0.85937 0.73027 0.0
C228 C 0.23975 0.85847 0.6928 0.0
C229 C 0.26184 0.86504 0.76142 0.0
C230 C 0.35794 0.86801 0.71735 0.0
C231 C 0.33516 0.86662 0.64691 0.0
C232 C 0.56394 0.89398 0.52569 0.0
C233 C 0.52521 0.94507 0.53141 0.0
H234 H 0.62576 0.79142 0.52042 0.0
C235 C 0.33686 0.79635 0.47666 0.0
C236 C 0.33073 0.67558 0.51755 0.0
C237 C 0.11412 0.69433 0.37135 0.0
C238 C 0.05005 0.69328 0.31162 0.0
C239 C 1.00201 0.64673 0.35738 0.0
C240 C 0.06046 0.66253 0.38139 0.0
C241 C 0.99678 0.66156 0.3226 0.0
C242 C 0.1089 0.70941 0.33625 0.0
C243 C 0.17673 0.70921 0.39636 0.0
H244 H 0.16058 0.85617 0.73537 0.0
H245 H 0.20279 0.85511 0.66928 0.0
H246 H 0.24159 0.86587 0.79033 0.0
H247 H 0.41272 0.87276 0.71237 0.0
H248 H 0.96129 0.6217 0.36528 0.0
H249 H 0.06431 0.64843 0.40714 0.0
H250 H 0.95196 0.64621 0.30381 0.0
H251 H 0.15079 0.73304 0.32792 0.0
C252 C 0.62849 0.09439 0.45498 0.0
C253 C 0.50931 0.1193 0.47661 0.0
C254 C 0.57634 0.13601 0.46858 0.0
C255 C 0.49599 0.06042 0.472 0.0
C256 C 0.61443 0.03489 0.44897 0.0
C257 C 0.54836 0.01831 0.45812 0.0
N258 N 0.69098 0.1113 0.44452 0.0
C259 C 0.73914 0.07025 0.42478 0.0
C260 C 0.66611 0.99338 0.43206 0.0
C261 C 0.72817 0.01099 0.41915 0.0
Gd262 Gd 0.81489 0.30353 0.55454 0.0
Gd263 Gd 0.70344 0.21232 0.4559 0.0
N264 N 0.59014 0.19241 0.4718 0.0
C265 C 0.45693 0.16187 0.4874 0.0
C266 C 0.53826 0.23316 0.4795 0.0
C267 C 0.47127 0.21889 0.48832 0.0
H268 H 0.5493 0.27693 0.47965 0.0
H269 H 0.43067 0.25167 0.49544 0.0
H270 H 0.95064 0.20961 0.53805 0.0
H271 H 0.78588 0.08281 0.41275 0.0
H272 H 0.07512 0.20905 0.52388 0.0
H273 H 0.40479 0.15075 0.49382 0.0
H274 H 0.44475 0.04668 0.47781 0.0
H275 H 0.75995 0.43905 0.56763 0.0
H276 H 0.65754 0.94747 0.42742 0.0
H277 H 0.76716 0.97882 0.4043 0.0
H278 H 0.12058 0.4026 0.52189 0.0
H279 H 0.53659 0.97272 0.45332 0.0
H280 H 0.93244 0.53966 0.55073 0.0
H281 H 0.80843 0.53289 0.56641 0.0
N282 N 0.85457 0.39242 0.55005 0.0
C283 C 0.92324 0.3954 0.54231 0.0
C284 C 0.81356 0.44107 0.55937 0.0
C285 C 0.91114 0.49805 0.5503 0.0
C286 C 0.84102 0.49441 0.55915 0.0
C287 C 0.95329 0.4483 0.54194 0.0
H288 H 0.04864 0.49069 0.53438 0.0
N289 N 0.93356 0.29571 0.53737 0.0
C290 C 0.96378 0.34559 0.53554 0.0
C291 C 0.07579 0.29797 0.52405 0.0
C292 C 0.03565 0.34786 0.52852 0.0
C293 C 0.97302 0.2475 0.53383 0.0
C294 C 0.04427 0.24753 0.52658 0.0
O295 O 0.65737 0.22935 0.51806 0.0
O296 O 0.75063 0.22761 0.55772 0.0
O297 O 0.87826 0.31345 0.6075 0.0
O298 O 0.7768 0.35637 0.61362 0.0
O299 O 0.68038 0.30992 0.48332 0.0
O300 O 0.70681 0.33772 0.55155 0.0
O301 O 0.81633 0.32434 0.49651 0.0
O302 O 0.81458 0.23478 0.44776 0.0
O303 O 0.68261 0.2559 0.41193 0.0
O304 O 0.66669 0.16319 0.39623 0.0
O305 O 0.82788 0.20479 0.53295 0.0
O306 O 0.80849 0.17445 0.46425 0.0
C307 C 0.6846 0.21952 0.5492 0.0
C308 C 0.67259 0.34435 0.52107 0.0
C309 C 0.8415 0.37154 0.67548 0.0
C310 C 0.90211 0.37441 0.73697 0.0
C311 C 0.80408 0.43916 0.74004 0.0
C312 C 0.79619 0.41539 0.69852 0.0
C313 C 0.8566 0.41909 0.75921 0.0
C314 C 0.89489 0.35156 0.69489 0.0
C315 C 0.83212 0.34661 0.63149 0.0
C316 C 0.06553 0.40015 0.52735 0.0
C317 C 0.02449 0.45025 0.53421 0.0
H318 H 0.13132 0.29834 0.51956 0.0
C319 C 0.83926 0.28812 0.46226 0.0
C320 C 0.83364 0.16581 0.49659 0.0
C321 C 0.69779 0.1975 0.34364 0.0
C322 C 0.68699 0.18904 0.27264 0.0
C323 C 0.79737 0.16973 0.29917 0.0
C324 C 0.76753 0.18088 0.33707 0.0
C325 C 0.75765 0.17401 0.26729 0.0
C326 C 0.65741 0.20149 0.31142 0.0
C327 C 0.66618 0.20772 0.38352 0.0
H328 H 0.76944 0.47351 0.75747 0.0
H329 H 0.75487 0.4317 0.68442 0.0
H330 H 0.86203 0.4395 0.79136 0.0
H331 H 0.93006 0.31758 0.67742 0.0
H332 H 0.85151 0.15754 0.29443 0.0
H333 H 0.79868 0.17635 0.3613 0.0
H334 H 0.7822 0.16483 0.23813 0.0
H335 H 0.60357 0.21426 0.3169 0.0
H336 H 0.61639 0.64328 0.05766 0.0
C337 C 0.62544 0.64291 0.02712 0.0
H338 H 0.59924 0.60217 0.96625 0.0
H339 H 0.52037 0.40287 0.05432 0.0
H340 H 0.64393 0.39731 0.06436 0.0
H341 H 0.72482 0.46382 0.0465 0.0
H342 H 0.68254 0.53651 0.01869 0.0
C343 C 0.59513 0.60107 0.99672 0.0
C344 C 0.5472 0.55762 1.00494 0.0
C345 C 0.5727 0.51497 0.02099 0.0
C346 C 0.52602 0.47593 0.03074 0.0
C347 C 0.55322 0.43369 0.04647 0.0
C348 C 0.62415 0.4299 0.05232 0.0
C349 C 0.66967 0.4674 0.04231 0.0
C350 C 0.64462 0.50929 0.02666 0.0
H351 H 0.38648 0.39493 0.96936 0.0
C352 C 0.37672 0.39338 0.9994 0.0
H353 H 0.40195 0.43106 0.06069 0.0
H354 H 0.48093 0.63219 0.97328 0.0
H355 H 0.3573 0.63757 0.96307 0.0
H356 H 0.27631 0.57203 0.98186 0.0
H357 H 0.31853 0.50021 1.01047 0.0
C358 C 0.40618 0.43415 0.03074 0.0
C359 C 0.45391 0.4787 0.02378 0.0
C360 C 0.4284 0.52149 1.00789 0.0
C361 C 0.4751 0.56028 0.99792 0.0
C362 C 0.44797 0.6019 0.98161 0.0
C363 C 0.37705 0.60554 0.97564 0.0
C364 C 0.33145 0.56855 0.98613 0.0
C365 C 0.35647 0.52716 1.00223 0.0
H366 H 0.38709 0.5957 0.4822 0.0
C367 C 0.37173 0.62177 0.51256 0.0
H368 H 0.38007 0.63095 0.57403 0.0
H369 H 0.47968 0.3553 0.47045 0.0
H370 H 0.35877 0.33835 0.45226 0.0
H371 H 0.27405 0.41922 0.4728 0.0
H372 H 0.30998 0.518 0.51116 0.0
C373 C 0.39305 0.60483 0.5433 0.0
C374 C 0.44131 0.55384 0.53601 0.0
C375 C 0.41973 0.49639 0.51336 0.0
C376 C 0.46851 0.4494 0.50222 0.0
C377 C 0.44509 0.39255 0.47983 0.0
C378 C 0.37572 0.38218 0.46919 0.0
C379 C 0.32804 0.42779 0.48064 0.0
C380 C 0.34946 0.4843 0.50243 0.0
H381 H 0.61285 0.41751 0.56233 0.0
C382 C 0.62227 0.39326 0.53075 0.0
H383 H 0.59702 0.38527 0.47101 0.0
H384 H 0.49708 0.6553 0.5864 0.0
H385 H 0.61791 0.67325 0.60425 0.0
H386 H 0.70484 0.59481 0.57917 0.0
H387 H 0.6712 0.49761 0.53687 0.0
C388 C 0.58942 0.4098 0.50269 0.0
C389 C 0.53887 0.45967 0.51401 0.0
C390 C 0.56022 0.51712 0.53707 0.0
C391 C 0.5108 0.5635 0.54944 0.0
C392 C 0.53284 0.61935 0.5745 0.0
C393 C 0.60204 0.6301 0.58529 0.0
C394 C 0.65093 0.58582 0.57132 0.0
C395 C 0.63066 0.53 0.54742 0.0
H396 H 0.13983 0.07876 0.96256 0.0
C397 C 0.14462 0.1119 0.99204 0.0
H398 H 0.10897 0.14062 0.0522 0.0
H399 H 0.8496 0.97086 0.95671 0.0
H400 H 0.832 0.043 0.92358 0.0
H401 H 0.91405 0.12463 0.93341 0.0
H402 H 0.01435 0.13427 0.97598 0.0
C403 C 0.10384 0.10867 0.0223 0.0
C404 C 0.05285 0.06025 0.01667 0.0
C405 C 0.99396 0.05553 0.9918 0.0
C406 C 0.94584 1.00904 0.98669 0.0
C407 C 0.8877 1.00527 0.96163 0.0
C408 C 0.87686 0.04647 0.94251 0.0
C409 C 0.92309 0.09237 0.94801 0.0
C410 C 0.98084 0.09718 0.9724 0.0
H411 H 0.86106 0.95523 0.05908 0.0
C412 C 0.86012 0.91924 0.03073 0.0
H413 H 0.90424 0.88469 0.97258 0.0
H414 H 0.15937 0.0568 0.06674 0.0
H415 H 0.17499 0.98622 0.1013 0.0
H416 H 0.09074 0.90654 0.09319 0.0
H417 H 0.99069 0.89699 0.05046 0.0
C418 C 0.90499 0.9195 1.00148 0.0
C419 C 0.95554 0.9682 1.00719 0.0
C420 C 0.01376 0.97347 0.03257 0.0
C421 C 0.06235 0.0195 0.03729 0.0
C422 C 0.12051 0.0231 0.06234 0.0
C423 C 0.13025 0.98275 0.08229 0.0
C424 C 0.08286 0.9379 0.0777 0.0
C425 C 0.02542 0.93299 0.0531 0.0
H426 H 0.89166 0.08565 0.46183 0.0
C427 C 0.87528 0.11228 0.49186 0.0
H428 H 0.87843 0.12371 0.55385 0.0
H429 H 0.98836 0.84775 0.46821 0.0
H430 H 0.87282 0.82733 0.44065 0.0
H431 H 0.78792 0.90704 0.44991 0.0
H432 H 0.81827 1.00766 0.48664 0.0
C433 C 0.89461 0.09698 0.52381 0.0
C434 C 0.94371 0.04761 0.52028 0.0
C435 C 0.92538 0.98891 0.49861 0.0
C436 C 0.97415 0.94278 0.49387 0.0
C437 C 0.95379 0.88454 0.4726 0.0
C438 C 0.88745 0.87213 0.45671 0.0
C439 C 0.8397 0.91701 0.46183 0.0
C440 C 0.85804 0.97471 0.48265 0.0
H441 H 0.10638 0.92112 0.56722 0.0
C442 C 0.12021 0.89444 0.53672 0.0
H443 H 0.10477 0.87945 0.47486 0.0
H444 H 0.99097 0.15249 0.57154 0.0
H445 H 0.1071 0.17399 0.59751 0.0
H446 H 0.1963 0.09651 0.58193 0.0
H447 H 0.16901 0.99713 0.54125 0.0
C448 C 0.09213 0.90657 0.50543 0.0
C449 C 0.04128 0.95529 0.51088 0.0
C450 C 0.05957 0.01407 0.53254 0.0
C451 C 0.00965 0.05965 0.53892 0.0
C452 C 0.02777 0.11694 0.56351 0.0
C453 C 0.09423 0.12977 0.57906 0.0
C454 C 0.14429 0.08612 0.57049 0.0
C455 C 0.12755 0.02896 0.54745 0.0
H456 H 0.67744 0.18989 0.21027 0.0
C457 C 0.64747 0.19138 0.23683 0.0
H458 H 0.54538 0.19046 0.25893 0.0
H459 H 0.51737 0.27641 0.09665 0.0
H460 H 0.58744 0.35991 0.13302 0.0
H461 H 0.63397 0.36941 0.19991 0.0
H462 H 0.61296 0.29432 0.23001 0.0
C463 C 0.57783 0.19285 0.23431 0.0
C464 C 0.54277 0.19136 0.19611 0.0
C465 C 0.55166 0.23767 0.18016 0.0
C466 C 0.52013 0.23455 0.14304 0.0
C467 C 0.53585 0.27851 0.12598 0.0
C468 C 0.57671 0.32641 0.14635 0.0
C469 C 0.60322 0.33159 0.18388 0.0
C470 C 0.59115 0.28787 0.2007 0.0
H471 H 0.38596 0.26826 0.11692 0.0
C472 C 0.39101 0.23208 0.08881 0.0
H473 H 0.43954 0.15072 0.05977 0.0
H474 H 0.51913 0.09272 0.21584 0.0
H475 H 0.44358 0.01198 0.1812 0.0
H476 H 0.37789 0.01262 0.12155 0.0
H477 H 0.38873 0.09326 0.09557 0.0
C478 C 0.43436 0.18787 0.08725 0.0
C479 C 0.47412 0.18798 0.12373 0.0
C480 C 0.46444 0.14218 0.13999 0.0
C481 C 0.50005 0.14313 0.17553 0.0
C482 C 0.49205 0.09509 0.18965 0.0
C483 C 0.44888 0.04839 0.17003 0.0
C484 C 0.412 0.04869 0.13641 0.0
C485 C 0.41908 0.09511 0.12164 0.0
H486 H 0.53286 0.80326 0.25379 0.0
C487 C 0.56828 0.83941 0.26683 0.0
H488 H 0.59963 0.90601 0.31946 0.0
H489 H 0.30204 0.80156 0.36876 0.0
H490 H 0.24718 0.83271 0.31744 0.0
H491 H 0.31652 0.87463 0.27464 0.0
H492 H 0.44109 0.88474 0.28244 0.0
C493 C 0.56521 0.86915 0.30644 0.0
C494 C 0.52128 0.84919 0.33426 0.0
C495 C 0.44804 0.84576 0.33018 0.0
C496 C 0.40771 0.82346 0.35574 0.0
C497 C 0.33499 0.81875 0.35038 0.0
C498 C 0.30282 0.83657 0.3211 0.0
C499 C 0.34189 0.86003 0.29695 0.0
C500 C 0.41356 0.86504 0.30147 0.0
H501 H 0.39444 0.86404 0.46032 0.0
C502 C 0.37882 0.81834 0.44974 0.0
H503 H 0.38142 0.73843 0.40124 0.0
H504 H 0.66044 0.84988 0.35037 0.0
H505 H 0.71393 0.82156 0.40305 0.0
H506 H 0.64322 0.78675 0.44892 0.0
H507 H 0.51817 0.77947 0.44213 0.0
C508 C 0.39792 0.78382 0.41288 0.0
C509 C 0.44022 0.80709 0.38632 0.0
C510 C 0.51297 0.81221 0.39127 0.0
C511 C 0.55363 0.83289 0.36504 0.0
C512 C 0.6266 0.83544 0.36975 0.0
C513 C 0.65816 0.81913 0.39986 0.0
C514 C 0.6183 0.79958 0.42572 0.0
C515 C 0.54658 0.79582 0.42154 0.0
H516 H 0.616 0.76135 0.90395 0.0
C517 C 0.61979 0.79978 0.93069 0.0
H518 H 0.5929 0.88905 0.95714 0.0
H519 H 0.53755 0.93454 0.79344 0.0
H520 H 0.63428 0.99944 0.82062 0.0
H521 H 0.69406 0.99733 0.88179 0.0
H522 H 0.65737 0.93073 0.91632 0.0
C523 C 0.58844 0.84962 0.93114 0.0
C524 C 0.55002 0.85276 0.89526 0.0
C525 C 0.57256 0.89162 0.87518 0.0
C526 C 0.53865 0.89232 0.83955 0.0
C527 C 0.56179 0.93197 0.8204 0.0
C528 C 0.61722 0.96943 0.83568 0.0
C529 C 0.65087 0.96826 0.87013 0.0
C530 C 0.62919 0.92981 0.88969 0.0
H531 H 0.35535 0.88975 0.81999 0.0
C532 C 0.37926 0.8748 0.79026 0.0
H533 H 0.47167 0.8399 0.7585 0.0
H534 H 0.4853 0.78036 0.92982 0.0
H535 H 0.39083 0.71394 0.90198 0.0
H536 H 0.33995 0.70786 0.83669 0.0
H537 H 0.38203 0.76949 0.7997 0.0
C538 C 0.44532 0.85612 0.78736 0.0
C539 C 0.48252 0.85399 0.8239 0.0
C540 C 0.46015 0.8149 0.84391 0.0
C541 C 0.4923 0.81576 0.88029 0.0
C542 C 0.46515 0.77958 0.90117 0.0
C543 C 0.41053 0.74144 0.88563 0.0
C544 C 0.38171 0.73823 0.849 0.0
C545 C 0.40607 0.77429 0.82822 0.0
H546 H 0.58496 0.19053 0.56716 0.0
C547 C 0.63837 0.20133 0.57629 0.0
H548 H 0.71244 0.21087 0.6221 0.0
H549 H 0.4487 0.24066 0.74176 0.0
H550 H 0.46685 0.34323 0.75027 0.0
H551 H 0.55186 0.37291 0.70819 0.0
H552 H 0.61894 0.30007 0.65707 0.0
C553 C 0.65977 0.19907 0.61192 0.0
C554 C 0.6117 0.18134 0.63882 0.0
C555 C 0.57397 0.2244 0.66904 0.0
C556 C 0.52591 0.20727 0.69381 0.0
C557 C 0.48708 0.25117 0.72277 0.0
C558 C 0.49674 0.31024 0.72783 0.0
C559 C 0.54454 0.32696 0.7041 0.0
C560 C 0.58268 0.28474 0.67489 0.0
H561 H 0.51563 0.16249 0.76785 0.0
C562 C 0.47259 0.13598 0.75202 0.0
H563 H 0.42089 0.10248 0.69635 0.0
H564 H 0.68029 0.08853 0.58582 0.0
H565 H 0.66709 0.98621 0.57946 0.0
H566 H 0.58371 0.95604 0.62216 0.0
H567 H 0.51415 0.02812 0.67207 0.0
C568 C 0.46427 0.12771 0.71264 0.0
C569 C 0.5168 0.14704 0.68866 0.0
C570 C 0.55604 0.10413 0.65906 0.0
C571 C 0.60375 0.12136 0.63424 0.0
C572 C 0.64316 0.07777 0.6054 0.0
C573 C 0.63618 0.0189 0.60148 0.0
C574 C 0.58929 1.00193 0.62554 0.0
C575 C 0.54943 0.04379 0.65396 0.0
H576 H 0.84402 0.79839 0.1394 0.0
C577 C 0.85646 0.76923 0.1093 0.0
H578 H 0.91952 0.69987 0.07458 0.0
H579 H 0.032 0.81639 0.26641 0.0
H580 H 0.05031 0.9066 0.25174 0.0
H581 H 0.02394 0.91214 0.18467 0.0
H582 H 0.97756 0.82784 0.13217 0.0
C583 C 0.90762 0.72975 0.10422 0.0
C584 C 0.94337 0.72207 0.13943 0.0
C585 C 0.9743 0.7706 0.16888 0.0
C586 C 0.99233 0.76664 0.2069 0.0
C587 C 0.01871 0.81679 0.23675 0.0
C588 C 0.02954 0.86876 0.22869 0.0
C589 C 0.01451 0.87194 0.19096 0.0
C590 C 0.98733 0.82351 0.16125 0.0
H591 H 0.09534 0.7103 0.25847 0.0
C592 C 0.047 0.70617 0.27329 0.0
H593 H 0.93758 0.70888 0.27056 0.0
H594 H 0.90055 0.61658 0.08602 0.0
H595 H 0.89575 0.52395 0.09812 0.0
H596 H 0.93181 0.51631 0.16319 0.0
H597 H 0.97217 0.6019 0.21685 0.0
C598 C 0.98658 0.71119 0.25593 0.0
C599 C 0.98251 0.71331 0.21447 0.0
C600 C 0.96066 0.66273 0.18313 0.0
C601 C 0.94089 0.66703 0.14546 0.0
C602 C 0.91683 0.61611 0.11518 0.0
C603 C 0.91383 0.56245 0.12169 0.0
C604 C 0.93403 0.55816 0.15835 0.0
C605 C 0.95689 0.60761 0.1889 0.0
H606 H 0.90444 0.35546 0.44997 0.0
C607 C 0.88907 0.30975 0.43844 0.0
H608 H 0.89994 0.22949 0.39095 0.0
H609 H 0.98149 0.36021 0.26722 0.0
H610 H 0.85759 0.35226 0.2555 0.0
H611 H 0.77982 0.32064 0.30015 0.0
H612 H 0.82558 0.2973 0.35698 0.0
C613 C 0.91488 0.27516 0.40308 0.0
C614 C 0.96159 0.29838 0.37819 0.0
C615 C 0.93426 0.31236 0.34527 0.0
C616 C 0.9793 0.32996 0.31926 0.0
C617 C 0.9501 0.34485 0.28717 0.0
C618 C 0.87892 0.341 0.28032 0.0
C619 C 0.83511 0.32329 0.30548 0.0
C620 C 0.8621 0.30958 0.33781 0.0
H621 H 0.07586 0.27514 0.24813 0.0
C622 C 0.10944 0.31297 0.25986 0.0
H623 H 0.13272 0.38699 0.31009 0.0
H624 H 0.03056 0.2754 0.43879 0.0
H625 H 0.15478 0.28354 0.4507 0.0
H626 H 0.23244 0.31604 0.40679 0.0
H627 H 0.18757 0.33885 0.34975 0.0
C628 C 0.10065 0.34832 0.29808 0.0
C629 C 0.05188 0.33321 0.32617 0.0
C630 C 0.07877 0.3215 0.3601 0.0
C631 C 0.03368 0.30358 0.38592 0.0
C632 C 0.06238 0.29001 0.41862 0.0
C633 C 0.1334 0.29454 0.42586 0.0
C634 C 0.17732 0.31259 0.40097 0.0
C635 C 0.15073 0.32571 0.36835 0.0
H636 H 1.00548 0.33536 0.73983 0.0
C637 C 0.95866 0.35259 0.75698 0.0
H638 H 0.90665 0.36865 0.81257 0.0
H639 H 0.14959 0.19177 0.83715 0.0
H640 H 0.09884 0.11671 0.78034 0.0
H641 H 1.00714 0.14138 0.74015 0.0
H642 H 0.9659 0.2412 0.7563 0.0
C643 C 0.9535 0.35281 0.79517 0.0
C644 C 0.0125 0.3373 0.81692 0.0
C645 C 0.03579 0.27854 0.80704 0.0
C646 C 0.08798 0.26409 0.83062 0.0
C647 C 0.11007 0.2051 0.82029 0.0
C648 C 0.08132 0.16158 0.7878 0.0
C649 C 0.02973 0.17549 0.76515 0.0
C650 C 1.00678 0.23311 0.77463 0.0
H651 H 0.09427 0.30345 0.93785 0.0
C652 C 0.14713 0.29147 0.92748 0.0
H653 H 0.21784 0.27783 0.87915 0.0
H654 H 0.98331 0.4547 0.84243 0.0
H655 H 0.03588 0.52969 0.89841 0.0
H656 H 0.12556 0.50429 0.9395 0.0
H657 H 0.16335 0.40383 0.92472 0.0
C658 C 0.16622 0.2919 0.89088 0.0
C659 C 0.11566 0.30804 0.86449 0.0
C660 C 0.09386 0.36699 0.87366 0.0
C661 C 0.04222 0.38159 0.84991 0.0
C662 C 0.02187 0.44096 0.85962 0.0
C663 C 0.05184 0.48453 0.8916 0.0
C664 C 0.1023 0.47025 0.91473 0.0
C665 C 0.12326 0.4123 0.90603 0.0
H666 H 0.07459 0.69973 0.57591 0.0
C667 C 0.12353 0.71674 0.59019 0.0
H668 H 0.17698 0.74703 0.64526 0.0
H669 H 0.89801 0.81208 0.74648 0.0
H670 H 0.93238 0.9079 0.7458 0.0
H671 H 0.02717 0.91867 0.70154 0.0
H672 H 0.08832 0.83345 0.65809 0.0
C673 C 0.13 0.72753 0.62983 0.0
C674 C 0.06981 0.7199 0.6543 0.0
C675 C 0.03282 0.76979 0.67865 0.0
C676 C 0.97731 0.76338 0.70358 0.0
C677 C 0.94146 0.81421 0.72754 0.0
C678 C 0.96021 0.86958 0.72716 0.0
C679 C 0.01357 0.87566 0.70228 0.0
C680 C 0.04897 0.82646 0.6779 0.0
H681 H 0.9538 0.73717 0.78273 0.0
C682 C 0.90506 0.71773 0.76952 0.0
H683 H 0.85374 0.67619 0.71449 0.0
H684 H 0.12861 0.6151 0.61044 0.0
H685 H 0.09137 0.51872 0.60882 0.0
H686 H 0.99114 0.50693 0.64916 0.0
H687 H 0.92937 0.59175 0.69283 0.0
C688 C 0.89936 0.69952 0.72922 0.0
C689 C 0.9575 0.70673 0.70322 0.0
C690 C 0.99221 0.6566 0.67728 0.0
C691 C 0.04906 0.66324 0.65323 0.0
C692 C 0.08438 0.61256 0.62877 0.0
C693 C 0.06351 0.55693 0.62753 0.0
C694 C 1.00727 0.55033 0.6504 0.0
C695 C 0.97213 0.59941 0.67524 0.0
loop_
_geom_bond_atom_site_label_1
_geom_bond_atom_site_label_2
_geom_bond_distance
_geom_bond_site_symmetry_2
_ccdc_geom_bond_type
C0 C2 1.422 . S
C0 C4 1.415 . S
C0 N6 1.369 . S
C1 C2 1.421 1_655 S
C1 C3 1.412 1_554 S
C1 C13 1.422 1_554 S
C2 C0 1.422 . S
C2 C1 1.421 1_455 S
C2 N12 1.359 . S
C3 C1 1.412 1_556 S
C3 C5 1.330 1_556 S
C3 H22 0.935 . S
C4 C0 1.415 . S
C4 C5 1.437 1_455 S
C4 C8 1.413 . S
C5 C3 1.330 1_554 S
C5 C4 1.437 1_655 S
C5 H27 0.929 . S
N6 C0 1.369 . S
N6 C7 1.338 . S
N6 Gd11 2.622 . S
C7 N6 1.338 . S
C7 C9 1.378 . S
C7 H19 0.929 . S
C8 C4 1.413 . S
C8 C9 1.348 . S
C8 H24 0.931 . S
C9 C7 1.378 . S
C9 C8 1.348 . S
C9 H25 0.930 . S
Gd10 N30 2.622 . S
Gd10 N37 2.570 . S
Gd10 O44 2.353 . S
Gd10 O45 2.468 . S
Gd10 O46 2.427 . S
Gd10 O48 2.388 . S
Gd10 O49 2.386 1_556 S
Gd10 O53 2.307 . S
Gd10 C63 2.805 . S
Gd11 N6 2.622 . S
Gd11 N12 2.570 . S
Gd11 O43 2.386 1_554 S
Gd11 O47 2.307 . S
Gd11 O50 2.353 . S
Gd11 O51 2.468 . S
Gd11 O52 2.427 . S
Gd11 O54 2.388 . S
Gd11 C75 2.805 . S
N12 C2 1.359 . S
N12 Gd11 2.570 . S
N12 C14 1.343 . S
C13 C1 1.422 1_556 S
C13 C15 1.328 . S
C13 H21 0.931 . S
C14 N12 1.343 . S
C14 C15 1.385 1_454 S
C14 H16 0.931 . S
C15 C13 1.328 . S
C15 C14 1.385 1_656 S
C15 H17 0.929 . S
H16 C14 0.931 . S
H17 C15 0.929 . S
H18 C41 0.931 . S
H19 C7 0.929 . S
H20 C42 0.929 . S
H21 C13 0.931 . S
H22 C3 0.935 . S
H23 C32 0.929 . S
H24 C8 0.931 . S
H25 C9 0.930 . S
H26 C64 0.937 . S
H27 C5 0.929 . S
H28 C33 0.931 . S
H29 C34 0.930 . S
N30 Gd10 2.622 . S
N30 C31 1.369 . S
N30 C32 1.338 . S
C31 N30 1.369 . S
C31 C35 1.415 . S
C31 C38 1.422 . S
C32 H23 0.929 . S
C32 N30 1.338 . S
C32 C34 1.378 1_545 S
C33 H28 0.931 . S
C33 C34 1.348 . S
C33 C35 1.413 1_565 S
C34 H29 0.930 . S
C34 C32 1.378 1_565 S
C34 C33 1.348 . S
C35 C31 1.415 . S
C35 C33 1.413 1_545 S
C35 C65 1.437 . S
H36 C65 0.929 . S
N37 Gd10 2.570 . S
N37 C38 1.359 . S
N37 C41 1.343 . S
C38 C31 1.422 . S
C38 N37 1.359 . S
C38 C40 1.421 . S
C39 C40 1.422 1_554 S
C39 C42 1.331 . S
C39 H66 0.931 . S
C40 C38 1.421 . S
C40 C39 1.422 1_556 S
C40 C64 1.409 1_556 S
C41 H18 0.931 . S
C41 N37 1.343 . S
C41 C42 1.382 1_556 S
C42 H20 0.929 . S
C42 C39 1.331 . S
C42 C41 1.382 1_554 S
O43 Gd11 2.386 1_556 S
O43 C55 1.265 . S
O44 Gd10 2.353 . S
O44 C55 1.242 . S
O45 Gd10 2.468 . S
O45 C63 1.263 . S
O46 Gd10 2.427 . S
O46 C63 1.252 . S
O47 Gd11 2.307 . S
O47 C56 1.261 1_554 S
O48 Gd10 2.388 . S
O48 C56 1.252 . S
O49 Gd10 2.386 1_554 S
O49 C67 1.265 . S
O50 Gd11 2.353 . S
O50 C67 1.242 . S
O51 Gd11 2.468 . S
O51 C75 1.263 . S
O52 Gd11 2.427 . S
O52 C75 1.252 . S
O53 Gd10 2.307 . S
O53 C68 1.261 1_556 S
O54 Gd11 2.388 . S
O54 C68 1.252 . S
C55 O43 1.265 . S
C55 O44 1.242 . S
C56 O47 1.261 1_556 S
C56 O48 1.252 . S
C57 C60 1.394 . S
C57 C62 1.370 . S
C57 C63 1.500 . S
C58 C61 1.383 . S
C58 C62 1.395 . S
C59 C60 1.396 . S
C59 C61 1.365 . S
C59 H76 0.929 . S
C60 C57 1.394 . S
C60 C59 1.396 . S
C60 H77 0.930 . S
C61 C58 1.383 . S
C61 C59 1.365 . S
C61 H78 0.931 . S
C62 C57 1.370 . S
C62 C58 1.395 . S
C62 H79 0.930 . S
C63 Gd10 2.805 . S
C63 O45 1.263 . S
C63 O46 1.252 . S
C63 C57 1.500 . S
C64 H26 0.937 . S
C64 C40 1.409 1_554 S
C64 C65 1.330 1_554 S
C65 C35 1.437 . S
C65 H36 0.929 . S
C65 C64 1.330 1_556 S
H66 C39 0.931 . S
C67 O49 1.265 . S
C67 O50 1.242 . S
C68 O53 1.261 1_554 S
C68 O54 1.252 . S
C69 C72 1.394 . S
C69 C74 1.370 . S
C69 C75 1.500 . S
C70 C73 1.383 . S
C70 C74 1.395 . S
C71 C72 1.396 . S
C71 C73 1.365 . S
C71 H80 0.929 . S
C72 C69 1.394 . S
C72 C71 1.396 . S
C72 H81 0.930 . S
C73 C70 1.383 . S
C73 C71 1.365 . S
C73 H82 0.931 . S
C74 C69 1.370 . S
C74 C70 1.395 . S
C74 H83 0.930 . S
C75 Gd11 2.805 . S
C75 O51 1.263 . S
C75 O52 1.252 . S
C75 C69 1.500 . S
H76 C59 0.929 . S
H77 C60 0.930 . S
H78 C61 0.931 . S
H79 C62 0.930 . S
H80 C71 0.929 . S
H81 C72 0.930 . S
H82 C73 0.931 . S
H83 C74 0.930 . S
C84 C86 1.422 . S
C84 C88 1.415 . S
C84 N90 1.369 . S
C85 C86 1.421 . S
C85 C87 1.412 1_554 S
C85 C97 1.422 1_554 S
C86 C84 1.422 . S
C86 C85 1.421 . S
C86 N96 1.359 . S
C87 C85 1.412 1_556 S
C87 C89 1.330 1_556 S
C87 H106 0.935 . S
C88 C84 1.415 . S
C88 C89 1.437 . S
C88 C92 1.413 1_565 S
C89 C87 1.330 1_554 S
C89 C88 1.437 . S
C89 H111 0.929 . S
N90 C84 1.369 . S
N90 C91 1.338 . S
N90 Gd95 2.622 . S
C91 N90 1.338 . S
C91 C93 1.378 1_565 S
C91 H103 0.929 . S
C92 C88 1.413 1_545 S
C92 C93 1.348 . S
C92 H108 0.931 . S
C93 C91 1.378 1_545 S
C93 C92 1.348 . S
C93 H109 0.930 . S
Gd94 N114 2.622 . S
Gd94 N121 2.570 . S
Gd94 O128 2.353 . S
Gd94 O129 2.468 . S
Gd94 O130 2.427 . S
Gd94 O132 2.388 . S
Gd94 O133 2.386 1_556 S
Gd94 O137 2.307 . S
Gd94 C147 2.805 . S
Gd95 N90 2.622 . S
Gd95 N96 2.570 . S
Gd95 O127 2.386 1_554 S
Gd95 O131 2.307 . S
Gd95 O134 2.353 . S
Gd95 O135 2.468 . S
Gd95 O136 2.427 . S
Gd95 O138 2.388 . S
Gd95 C159 2.805 . S
N96 C86 1.359 . S
N96 Gd95 2.570 . S
N96 C98 1.343 . S
C97 C85 1.422 1_556 S
C97 C99 1.328 . S
C97 H105 0.931 . S
C98 N96 1.343 . S
C98 C99 1.385 1_554 S
C98 H100 0.931 . S
C99 C97 1.328 . S
C99 C98 1.385 1_556 S
C99 H101 0.929 . S
H100 C98 0.931 . S
H101 C99 0.929 . S
H102 C125 0.931 . S
H103 C91 0.929 . S
H104 C126 0.929 . S
H105 C97 0.931 . S
H106 C87 0.935 . S
H107 C116 0.929 . S
H108 C92 0.931 . S
H109 C93 0.930 . S
H110 C148 0.937 . S
H111 C89 0.929 . S
H112 C117 0.931 . S
H113 C118 0.930 . S
N114 Gd94 2.622 . S
N114 C115 1.369 . S
N114 C116 1.338 . S
C115 N114 1.369 . S
C115 C119 1.415 . S
C115 C122 1.422 . S
C116 H107 0.929 . S
C116 N114 1.338 . S
C116 C118 1.378 . S
C117 H112 0.931 . S
C117 C118 1.348 . S
C117 C119 1.413 . S
C118 H113 0.930 . S
C118 C116 1.378 . S
C118 C117 1.348 . S
C119 C115 1.415 . S
C119 C117 1.413 . S
C119 C149 1.437 1_655 S
H120 C149 0.929 . S
N121 Gd94 2.570 . S
N121 C122 1.359 . S
N121 C125 1.343 . S
C122 C115 1.422 . S
C122 N121 1.359 . S
C122 C124 1.421 1_655 S
C123 C124 1.422 1_554 S
C123 C126 1.331 . S
C123 H150 0.931 . S
C124 C122 1.421 1_455 S
C124 C123 1.422 1_556 S
C124 C148 1.409 1_556 S
C125 H102 0.931 . S
C125 N121 1.343 . S
C125 C126 1.382 1_656 S
C126 H104 0.929 . S
C126 C123 1.331 . S
C126 C125 1.382 1_454 S
O127 Gd95 2.386 1_556 S
O127 C139 1.265 . S
O128 Gd94 2.353 . S
O128 C139 1.242 . S
O129 Gd94 2.468 . S
O129 C147 1.263 . S
O130 Gd94 2.427 . S
O130 C147 1.252 . S
O131 Gd95 2.307 . S
O131 C140 1.261 1_554 S
O132 Gd94 2.388 . S
O132 C140 1.252 . S
O133 Gd94 2.386 1_554 S
O133 C151 1.265 . S
O134 Gd95 2.353 . S
O134 C151 1.242 . S
O135 Gd95 2.468 . S
O135 C159 1.263 . S
O136 Gd95 2.427 . S
O136 C159 1.252 . S
O137 Gd94 2.307 . S
O137 C152 1.261 1_556 S
O138 Gd95 2.388 . S
O138 C152 1.252 . S
C139 O127 1.265 . S
C139 O128 1.242 . S
C140 O131 1.261 1_556 S
C140 O132 1.252 . S
C141 C144 1.394 . S
C141 C146 1.370 . S
C141 C147 1.500 . S
C142 C145 1.383 . S
C142 C146 1.395 . S
C143 C144 1.396 . S
C143 C145 1.365 . S
C143 H160 0.929 . S
C144 C141 1.394 . S
C144 C143 1.396 . S
C144 H161 0.930 . S
C145 C142 1.383 . S
C145 C143 1.365 . S
C145 H162 0.931 . S
C146 C141 1.370 . S
C146 C142 1.395 . S
C146 H163 0.930 . S
C147 Gd94 2.805 . S
C147 O129 1.263 . S
C147 O130 1.252 . S
C147 C141 1.500 . S
C148 H110 0.937 . S
C148 C124 1.409 1_554 S
C148 C149 1.330 1_554 S
C149 C119 1.437 1_455 S
C149 H120 0.929 . S
C149 C148 1.330 1_556 S
H150 C123 0.931 . S
C151 O133 1.265 . S
C151 O134 1.242 . S
C152 O137 1.261 1_554 S
C152 O138 1.252 . S
C153 C156 1.394 . S
C153 C158 1.370 . S
C153 C159 1.500 . S
C154 C157 1.383 . S
C154 C158 1.395 . S
C155 C156 1.396 . S
C155 C157 1.365 . S
C155 H164 0.929 . S
C156 C153 1.394 . S
C156 C155 1.396 . S
C156 H165 0.930 . S
C157 C154 1.383 . S
C157 C155 1.365 . S
C157 H166 0.931 . S
C158 C153 1.370 . S
C158 C154 1.395 . S
C158 H167 0.930 . S
C159 Gd95 2.805 . S
C159 O135 1.263 . S
C159 O136 1.252 . S
C159 C153 1.500 . S
H160 C143 0.929 . S
H161 C144 0.930 . S
H162 C145 0.931 . S
H163 C146 0.930 . S
H164 C155 0.929 . S
H165 C156 0.930 . S
H166 C157 0.931 . S
H167 C158 0.930 . S
C168 C170 1.422 . S
C168 C172 1.415 . S
C168 N174 1.369 . S
C169 C170 1.421 1_655 S
C169 C171 1.417 . S
C169 C181 1.422 . S
C170 C168 1.422 . S
C170 C169 1.421 1_455 S
C170 N180 1.359 . S
C171 C169 1.417 . S
C171 C173 1.329 . S
C171 H190 0.930 . S
C172 C168 1.415 . S
C172 C173 1.437 1_455 S
C172 C176 1.413 . S
C173 C171 1.329 . S
C173 C172 1.437 1_655 S
C173 H195 0.929 . S
N174 C168 1.369 . S
N174 C175 1.338 . S
N174 Gd179 2.622 . S
C175 N174 1.338 . S
C175 C177 1.378 . S
C175 H187 0.929 . S
C176 C172 1.413 . S
C176 C177 1.348 . S
C176 H192 0.931 . S
C177 C175 1.378 . S
C177 C176 1.348 . S
C177 H193 0.930 . S
Gd178 N198 2.622 . S
Gd178 N205 2.570 . S
Gd178 O212 2.353 . S
Gd178 O213 2.468 . S
Gd178 O214 2.427 . S
Gd178 O216 2.388 . S
Gd178 O217 2.386 . S
Gd178 O221 2.307 . S
Gd178 C231 2.805 . S
Gd179 N174 2.622 . S
Gd179 N180 2.570 . S
Gd179 O211 2.386 . S
Gd179 O215 2.307 . S
Gd179 O218 2.353 . S
Gd179 O219 2.468 . S
Gd179 O220 2.427 . S
Gd179 O222 2.388 . S
Gd179 C243 2.805 . S
N180 C170 1.359 . S
N180 Gd179 2.570 . S
N180 C182 1.343 . S
C181 C169 1.422 . S
C181 C183 1.321 . S
C181 H189 0.931 . S
C182 N180 1.343 . S
C182 C183 1.390 1_455 S
C182 H184 0.931 . S
C183 C181 1.321 . S
C183 C182 1.390 1_655 S
C183 H185 0.930 . S
H184 C182 0.931 . S
H185 C183 0.930 . S
H186 C209 0.931 . S
H187 C175 0.929 . S
H188 C210 0.930 . S
H189 C181 0.931 . S
H190 C171 0.930 . S
H191 C200 0.929 . S
H192 C176 0.931 . S
H193 C177 0.930 . S
H194 C232 0.930 . S
H195 C173 0.929 . S
H196 C201 0.931 . S
H197 C202 0.930 . S
N198 Gd178 2.622 . S
N198 C199 1.369 . S
N198 C200 1.338 . S
C199 N198 1.369 . S
C199 C203 1.415 . S
C199 C206 1.422 . S
C200 H191 0.929 . S
C200 N198 1.338 . S
C200 C202 1.378 1_565 S
C201 H196 0.931 . S
C201 C202 1.348 . S
C201 C203 1.413 1_545 S
C202 H197 0.930 . S
C202 C200 1.378 1_545 S
C202 C201 1.348 . S
C203 C199 1.415 . S
C203 C201 1.413 1_565 S
C203 C233 1.437 . S
H204 C233 0.929 . S
N205 Gd178 2.570 . S
N205 C206 1.359 . S
N205 C209 1.343 . S
C206 C199 1.422 . S
C206 N205 1.359 . S
C206 C208 1.421 . S
C207 C208 1.422 . S
C207 C210 1.321 . S
C207 H234 0.931 . S
C208 C206 1.421 . S
C208 C207 1.422 . S
C208 C232 1.417 . S
C209 H186 0.931 . S
C209 N205 1.343 . S
C209 C210 1.390 . S
C210 H188 0.930 . S
C210 C207 1.321 . S
C210 C209 1.390 . S
O211 Gd179 2.386 . S
O211 C223 1.265 . S
O212 Gd178 2.353 . S
O212 C223 1.242 . S
O213 Gd178 2.468 . S
O213 C231 1.263 . S
O214 Gd178 2.427 . S
O214 C231 1.252 . S
O215 Gd179 2.307 . S
O215 C224 1.261 . S
O216 Gd178 2.388 . S
O216 C224 1.252 . S
O217 Gd178 2.386 . S
O217 C235 1.265 . S
O218 Gd179 2.353 . S
O218 C235 1.242 . S
O219 Gd179 2.468 . S
O219 C243 1.263 . S
O220 Gd179 2.427 . S
O220 C243 1.252 . S
O221 Gd178 2.307 . S
O221 C236 1.261 . S
O222 Gd179 2.388 . S
O222 C236 1.252 . S
C223 O211 1.265 . S
C223 O212 1.242 . S
C224 O215 1.261 . S
C224 O216 1.252 . S
C225 C228 1.394 . S
C225 C230 1.370 . S
C225 C231 1.500 . S
C226 C229 1.383 . S
C226 C230 1.395 . S
C227 C228 1.396 . S
C227 C229 1.365 . S
C227 H244 0.929 . S
C228 C225 1.394 . S
C228 C227 1.396 . S
C228 H245 0.930 . S
C229 C226 1.383 . S
C229 C227 1.365 . S
C229 H246 0.931 . S
C230 C225 1.370 . S
C230 C226 1.395 . S
C230 H247 0.930 . S
C231 Gd178 2.805 . S
C231 O213 1.263 . S
C231 O214 1.252 . S
C231 C225 1.500 . S
C232 H194 0.930 . S
C232 C208 1.417 . S
C232 C233 1.329 . S
C233 C203 1.437 . S
C233 H204 0.929 . S
C233 C232 1.329 . S
H234 C207 0.931 . S
C235 O217 1.265 . S
C235 O218 1.242 . S
C236 O221 1.261 . S
C236 O222 1.252 . S
C237 C240 1.394 . S
C237 C242 1.370 . S
C237 C243 1.500 . S
C238 C241 1.383 . S
C238 C242 1.395 . S
C239 C240 1.396 . S
C239 C241 1.365 . S
C239 H248 0.929 . S
C240 C237 1.394 . S
C240 C239 1.396 . S
C240 H249 0.930 . S
C241 C238 1.383 . S
C241 C239 1.365 . S
C241 H250 0.931 . S
C242 C237 1.370 . S
C242 C238 1.395 . S
C242 H251 0.930 . S
C243 Gd179 2.805 . S
C243 O219 1.263 . S
C243 O220 1.252 . S
C243 C237 1.500 . S
H244 C227 0.929 . S
H245 C228 0.930 . S
H246 C229 0.931 . S
H247 C230 0.930 . S
H248 C239 0.929 . S
H249 C240 0.930 . S
H250 C241 0.931 . S
H251 C242 0.930 . S
C252 C254 1.422 . S
C252 C256 1.415 . S
C252 N258 1.369 . S
C253 C254 1.421 . S
C253 C255 1.417 . S
C253 C265 1.422 . S
C254 C252 1.422 . S
C254 C253 1.421 . S
C254 N264 1.359 . S
C255 C253 1.417 . S
C255 C257 1.329 . S
C255 H274 0.930 . S
C256 C252 1.415 . S
C256 C257 1.437 . S
C256 C260 1.413 1_545 S
C257 C255 1.329 . S
C257 C256 1.437 . S
C257 H279 0.929 . S
N258 C252 1.369 . S
N258 C259 1.338 . S
N258 Gd263 2.622 . S
C259 N258 1.338 . S
C259 C261 1.378 1_545 S
C259 H271 0.929 . S
C260 C256 1.413 1_565 S
C260 C261 1.348 . S
C260 H276 0.931 . S
C261 C259 1.378 1_565 S
C261 C260 1.348 . S
C261 H277 0.930 . S
Gd262 N282 2.622 . S
Gd262 N289 2.570 . S
Gd262 O296 2.353 . S
Gd262 O297 2.468 . S
Gd262 O298 2.427 . S
Gd262 O300 2.388 . S
Gd262 O301 2.386 . S
Gd262 O305 2.307 . S
Gd262 C315 2.805 . S
Gd263 N258 2.622 . S
Gd263 N264 2.570 . S
Gd263 O295 2.386 . S
Gd263 O299 2.307 . S
Gd263 O302 2.353 . S
Gd263 O303 2.468 . S
Gd263 O304 2.427 . S
Gd263 O306 2.388 . S
Gd263 C327 2.805 . S
N264 C254 1.359 . S
N264 Gd263 2.570 . S
N264 C266 1.343 . S
C265 C253 1.422 . S
C265 C267 1.321 . S
C265 H273 0.931 . S
C266 N264 1.343 . S
C266 C267 1.390 . S
C266 H268 0.931 . S
C267 C265 1.321 . S
C267 C266 1.390 . S
C267 H269 0.930 . S
H268 C266 0.931 . S
H269 C267 0.930 . S
H270 C293 0.931 . S
H271 C259 0.929 . S
H272 C294 0.930 . S
H273 C265 0.931 . S
H274 C255 0.930 . S
H275 C284 0.929 . S
H276 C260 0.931 . S
H277 C261 0.930 . S
H278 C316 0.930 . S
H279 C257 0.929 . S
H280 C285 0.931 . S
H281 C286 0.930 . S
N282 Gd262 2.622 . S
N282 C283 1.369 . S
N282 C284 1.338 . S
C283 N282 1.369 . S
C283 C287 1.415 . S
C283 C290 1.422 . S
C284 H275 0.929 . S
C284 N282 1.338 . S
C284 C286 1.378 . S
C285 H280 0.931 . S
C285 C286 1.348 . S
C285 C287 1.413 . S
C286 H281 0.930 . S
C286 C284 1.378 . S
C286 C285 1.348 . S
C287 C283 1.415 . S
C287 C285 1.413 . S
C287 C317 1.437 1_655 S
H288 C317 0.929 . S
N289 Gd262 2.570 . S
N289 C290 1.359 . S
N289 C293 1.343 . S
C290 C283 1.422 . S
C290 N289 1.359 . S
C290 C292 1.421 1_655 S
C291 C292 1.422 . S
C291 C294 1.321 . S
C291 H318 0.931 . S
C292 C290 1.421 1_455 S
C292 C291 1.422 . S
C292 C316 1.417 . S
C293 H270 0.931 . S
C293 N289 1.343 . S
C293 C294 1.390 1_655 S
C294 H272 0.930 . S
C294 C291 1.321 . S
C294 C293 1.390 1_455 S
O295 Gd263 2.386 . S
O295 C307 1.265 . S
O296 Gd262 2.353 . S
O296 C307 1.242 . S
O297 Gd262 2.468 . S
O297 C315 1.263 . S
O298 Gd262 2.427 . S
O298 C315 1.252 . S
O299 Gd263 2.307 . S
O299 C308 1.261 . S
O300 Gd262 2.388 . S
O300 C308 1.252 . S
O301 Gd262 2.386 . S
O301 C319 1.265 . S
O302 Gd263 2.353 . S
O302 C319 1.242 . S
O303 Gd263 2.468 . S
O303 C327 1.263 . S
O304 Gd263 2.427 . S
O304 C327 1.252 . S
O305 Gd262 2.307 . S
O305 C320 1.261 . S
O306 Gd263 2.388 . S
O306 C320 1.252 . S
C307 O295 1.265 . S
C307 O296 1.242 . S
C308 O299 1.261 . S
C308 O300 1.252 . S
C309 C312 1.394 . S
C309 C314 1.370 . S
C309 C315 1.500 . S
C310 C313 1.383 . S
C310 C314 1.395 . S
C311 C312 1.396 . S
C311 C313 1.365 . S
C311 H328 0.929 . S
C312 C309 1.394 . S
C312 C311 1.396 . S
C312 H329 0.930 . S
C313 C310 1.383 . S
C313 C311 1.365 . S
C313 H330 0.931 . S
C314 C309 1.370 . S
C314 C310 1.395 . S
C314 H331 0.930 . S
C315 Gd262 2.805 . S
C315 O297 1.263 . S
C315 O298 1.252 . S
C315 C309 1.500 . S
C316 H278 0.930 . S
C316 C292 1.417 . S
C316 C317 1.329 . S
C317 C287 1.437 1_455 S
C317 H288 0.929 . S
C317 C316 1.329 . S
H318 C291 0.931 . S
C319 O301 1.265 . S
C319 O302 1.242 . S
C320 O305 1.261 . S
C320 O306 1.252 . S
C321 C324 1.394 . S
C321 C326 1.370 . S
C321 C327 1.500 . S
C322 C325 1.383 . S
C322 C326 1.395 . S
C323 C324 1.396 . S
C323 C325 1.365 . S
C323 H332 0.929 . S
C324 C321 1.394 . S
C324 C323 1.396 . S
C324 H333 0.930 . S
C325 C322 1.383 . S
C325 C323 1.365 . S
C325 H334 0.931 . S
C326 C321 1.370 . S
C326 C322 1.395 . S
C326 H335 0.930 . S
C327 Gd263 2.805 . S
C327 O303 1.263 . S
C327 O304 1.252 . S
C327 C321 1.500 . S
H328 C311 0.929 . S
H329 C312 0.930 . S
H330 C313 0.931 . S
H331 C314 0.930 . S
H332 C323 0.929 . S
H333 C324 0.930 . S
H334 C325 0.931 . S
H335 C326 0.930 . S
H336 C337 0.953 . S
C337 H336 0.953 . S
C337 C343 1.267 1_554 S
H338 C343 0.950 . S
H339 C347 0.949 . S
H340 C348 0.950 . S
H341 C349 0.951 . S
H342 C350 0.951 . S
C343 C337 1.267 1_556 S
C343 H338 0.950 . S
C343 C344 1.478 . S
C344 C343 1.478 . S
C344 C345 1.397 1_556 S
C344 C361 1.394 . S
C345 C344 1.397 1_554 S
C345 C346 1.438 . S
C345 C350 1.429 . S
C346 C345 1.438 . S
C346 C347 1.428 . S
C346 C359 1.394 . S
C347 H339 0.949 . S
C347 C346 1.428 . S
C347 C348 1.345 . S
C348 H340 0.950 . S
C348 C347 1.345 . S
C348 C349 1.424 . S
C349 H341 0.951 . S
C349 C348 1.424 . S
C349 C350 1.347 . S
C350 H342 0.951 . S
C350 C345 1.429 . S
C350 C349 1.347 . S
H351 C352 0.952 . S
C352 H351 0.952 . S
C352 C358 1.266 1_556 S
H353 C358 0.950 . S
H354 C362 0.949 . S
H355 C363 0.950 . S
H356 C364 0.951 . S
H357 C365 0.951 . S
C358 C352 1.266 1_554 S
C358 H353 0.950 . S
C358 C359 1.478 . S
C359 C346 1.394 . S
C359 C358 1.478 . S
C359 C360 1.397 1_554 S
C360 C359 1.397 1_556 S
C360 C361 1.438 . S
C360 C365 1.429 . S
C361 C344 1.394 . S
C361 C360 1.438 . S
C361 C362 1.428 . S
C362 H354 0.949 . S
C362 C361 1.428 . S
C362 C363 1.345 . S
C363 H355 0.950 . S
C363 C362 1.345 . S
C363 C364 1.424 . S
C364 H356 0.951 . S
C364 C363 1.424 . S
C364 C365 1.347 . S
C365 H357 0.951 . S
C365 C360 1.429 . S
C365 C364 1.347 . S
H366 C367 0.951 . S
C367 H366 0.951 . S
C367 C373 1.265 . S
H368 C373 0.950 . S
H369 C377 0.949 . S
H370 C378 0.950 . S
H371 C379 0.951 . S
H372 C380 0.951 . S
C373 C367 1.265 . S
C373 H368 0.950 . S
C373 C374 1.478 . S
C374 C373 1.478 . S
C374 C375 1.397 . S
C374 C391 1.394 . S
C375 C374 1.397 . S
C375 C376 1.438 . S
C375 C380 1.429 . S
C376 C375 1.438 . S
C376 C377 1.428 . S
C376 C389 1.394 . S
C377 H369 0.949 . S
C377 C376 1.428 . S
C377 C378 1.345 . S
C378 H370 0.950 . S
C378 C377 1.345 . S
C378 C379 1.424 . S
C379 H371 0.951 . S
C379 C378 1.424 . S
C379 C380 1.347 . S
C380 H372 0.951 . S
C380 C375 1.429 . S
C380 C379 1.347 . S
H381 C382 0.951 . S
C382 H381 0.951 . S
C382 C388 1.265 . S
H383 C388 0.950 . S
H384 C392 0.949 . S
H385 C393 0.950 . S
H386 C394 0.951 . S
H387 C395 0.951 . S
C388 C382 1.265 . S
C388 H383 0.950 . S
C388 C389 1.478 . S
C389 C376 1.394 . S
C389 C388 1.478 . S
C389 C390 1.397 . S
C390 C389 1.397 . S
C390 C391 1.438 . S
C390 C395 1.429 . S
C391 C374 1.394 . S
C391 C390 1.438 . S
C391 C392 1.428 . S
C392 H384 0.949 . S
C392 C391 1.428 . S
C392 C393 1.345 . S
C393 H385 0.950 . S
C393 C392 1.345 . S
C393 C394 1.424 . S
C394 H386 0.951 . S
C394 C393 1.424 . S
C394 C395 1.347 . S
C395 H387 0.951 . S
C395 C390 1.429 . S
C395 C394 1.347 . S
H396 C397 0.951 . S
C397 H396 0.951 . S
C397 C403 1.265 1_556 S
H398 C403 0.950 . S
H399 C407 0.949 . S
H400 C408 0.950 . S
H401 C409 0.951 . S
H402 C410 0.951 . S
C403 C397 1.265 1_554 S
C403 H398 0.950 . S
C403 C404 1.478 . S
C404 C403 1.478 . S
C404 C405 1.397 1_454 S
C404 C421 1.394 . S
C405 C404 1.397 1_656 S
C405 C406 1.438 1_545 S
C405 C410 1.429 . S
C406 C405 1.438 1_565 S
C406 C407 1.428 . S
C406 C419 1.394 . S
C407 H399 0.949 . S
C407 C406 1.428 . S
C407 C408 1.345 . S
C408 H400 0.950 . S
C408 C407 1.345 . S
C408 C409 1.424 1_565 S
C409 H401 0.951 . S
C409 C408 1.424 1_545 S
C409 C410 1.347 . S
C410 H402 0.951 . S
C410 C405 1.429 . S
C410 C409 1.347 . S
H411 C412 0.951 . S
C412 H411 0.951 . S
C412 C418 1.265 1_554 S
H413 C418 0.950 . S
H414 C422 0.949 . S
H415 C423 0.950 . S
H416 C424 0.951 . S
H417 C425 0.951 . S
C418 C412 1.265 1_556 S
C418 H413 0.950 . S
C418 C419 1.478 . S
C419 C406 1.394 . S
C419 C418 1.478 . S
C419 C420 1.397 1_656 S
C420 C419 1.397 1_454 S
C420 C421 1.438 1_565 S
C420 C425 1.429 . S
C421 C404 1.394 . S
C421 C420 1.438 1_545 S
C421 C422 1.428 . S
C422 H414 0.949 . S
C422 C421 1.428 . S
C422 C423 1.345 . S
C423 H415 0.950 . S
C423 C422 1.345 . S
C423 C424 1.424 1_545 S
C424 H416 0.951 . S
C424 C423 1.424 1_565 S
C424 C425 1.347 . S
C425 H417 0.951 . S
C425 C420 1.429 . S
C425 C424 1.347 . S
H426 C427 0.951 . S
C427 H426 0.951 . S
C427 C433 1.265 . S
H428 C433 0.950 . S
H429 C437 0.949 . S
H430 C438 0.950 . S
H431 C439 0.951 . S
H432 C440 0.951 . S
C433 C427 1.265 . S
C433 H428 0.950 . S
C433 C434 1.478 . S
C434 C433 1.478 . S
C434 C435 1.397 1_545 S
C434 C451 1.394 . S
C435 C434 1.397 1_565 S
C435 C436 1.438 1_655 S
C435 C440 1.429 . S
C436 C435 1.438 1_455 S
C436 C437 1.428 . S
C436 C449 1.394 . S
C437 H429 0.949 . S
C437 C436 1.428 . S
C437 C438 1.345 1_455 S
C438 H430 0.950 . S
C438 C437 1.345 1_655 S
C438 C439 1.424 . S
C439 H431 0.951 . S
C439 C438 1.424 . S
C439 C440 1.347 . S
C440 H432 0.951 . S
C440 C435 1.429 . S
C440 C439 1.347 . S
H441 C442 0.951 . S
C442 H441 0.951 . S
C442 C448 1.265 . S
H443 C448 0.950 . S
H444 C452 0.949 . S
H445 C453 0.950 . S
H446 C454 0.951 . S
H447 C455 0.951 . S
C448 C442 1.265 . S
C448 H443 0.950 . S
C448 C449 1.478 . S
C449 C436 1.394 . S
C449 C448 1.478 . S
C449 C450 1.397 1_565 S
C450 C449 1.397 1_545 S
C450 C451 1.438 1_455 S
C450 C455 1.429 . S
C451 C434 1.394 . S
C451 C450 1.438 1_655 S
C451 C452 1.428 . S
C452 H444 0.949 . S
C452 C451 1.428 . S
C452 C453 1.345 1_655 S
C453 H445 0.950 . S
C453 C452 1.345 1_455 S
C453 C454 1.424 . S
C454 H446 0.951 . S
C454 C453 1.424 . S
C454 C455 1.347 . S
C455 H447 0.951 . S
C455 C450 1.429 . S
C455 C454 1.347 . S
H456 C457 0.951 . S
C457 H456 0.951 . S
C457 C463 1.265 . S
H458 C463 0.950 . S
H459 C467 0.949 . S
H460 C468 0.950 . S
H461 C469 0.951 . S
H462 C470 0.951 . S
C463 C457 1.265 . S
C463 H458 0.950 . S
C463 C464 1.478 . S
C464 C463 1.478 . S
C464 C465 1.397 . S
C464 C481 1.394 . S
C465 C464 1.397 . S
C465 C466 1.438 . S
C465 C470 1.429 . S
C466 C465 1.438 . S
C466 C467 1.428 . S
C466 C479 1.394 . S
C467 H459 0.949 . S
C467 C466 1.428 . S
C467 C468 1.345 . S
C468 H460 0.950 . S
C468 C467 1.345 . S
C468 C469 1.424 . S
C469 H461 0.951 . S
C469 C468 1.424 . S
C469 C470 1.347 . S
C470 H462 0.951 . S
C470 C465 1.429 . S
C470 C469 1.347 . S
H471 C472 0.951 . S
C472 H471 0.951 . S
C472 C478 1.265 . S
H473 C478 0.950 . S
H474 C482 0.949 . S
H475 C483 0.950 . S
H476 C484 0.951 . S
H477 C485 0.951 . S
C478 C472 1.265 . S
C478 H473 0.950 . S
C478 C479 1.478 . S
C479 C466 1.394 . S
C479 C478 1.478 . S
C479 C480 1.397 . S
C480 C479 1.397 . S
C480 C481 1.438 . S
C480 C485 1.429 . S
C481 C464 1.394 . S
C481 C480 1.438 . S
C481 C482 1.428 . S
C482 H474 0.949 . S
C482 C481 1.428 . S
C482 C483 1.345 . S
C483 H475 0.950 . S
C483 C482 1.345 . S
C483 C484 1.424 . S
C484 H476 0.951 . S
C484 C483 1.424 . S
C484 C485 1.347 . S
C485 H477 0.951 . S
C485 C480 1.429 . S
C485 C484 1.347 . S
H486 C487 0.951 . S
C487 H486 0.951 . S
C487 C493 1.265 . S
H488 C493 0.950 . S
H489 C497 0.949 . S
H490 C498 0.950 . S
H491 C499 0.951 . S
H492 C500 0.951 . S
C493 C487 1.265 . S
C493 H488 0.950 . S
C493 C494 1.478 . S
C494 C493 1.478 . S
C494 C495 1.397 . S
C494 C511 1.394 . S
C495 C494 1.397 . S
C495 C496 1.438 . S
C495 C500 1.429 . S
C496 C495 1.438 . S
C496 C497 1.428 . S
C496 C509 1.394 . S
C497 H489 0.949 . S
C497 C496 1.428 . S
C497 C498 1.345 . S
C498 H490 0.950 . S
C498 C497 1.345 . S
C498 C499 1.424 . S
C499 H491 0.951 . S
C499 C498 1.424 . S
C499 C500 1.347 . S
C500 H492 0.951 . S
C500 C495 1.429 . S
C500 C499 1.347 . S
H501 C502 0.951 . S
C502 H501 0.951 . S
C502 C508 1.265 . S
H503 C508 0.950 . S
H504 C512 0.949 . S
H505 C513 0.950 . S
H506 C514 0.951 . S
H507 C515 0.951 . S
C508 C502 1.265 . S
C508 H503 0.950 . S
C508 C509 1.478 . S
C509 C496 1.394 . S
C509 C508 1.478 . S
C509 C510 1.397 . S
C510 C509 1.397 . S
C510 C511 1.438 . S
C510 C515 1.429 . S
C511 C494 1.394 . S
C511 C510 1.438 . S
C511 C512 1.428 . S
C512 H504 0.949 . S
C512 C511 1.428 . S
C512 C513 1.345 . S
C513 H505 0.950 . S
C513 C512 1.345 . S
C513 C514 1.424 . S
C514 H506 0.951 . S
C514 C513 1.424 . S
C514 C515 1.347 . S
C515 H507 0.951 . S
C515 C510 1.429 . S
C515 C514 1.347 . S
H516 C517 0.951 . S
C517 H516 0.951 . S
C517 C523 1.265 . S
H518 C523 0.950 . S
H519 C527 0.949 . S
H520 C528 0.950 . S
H521 C529 0.951 . S
H522 C530 0.951 . S
C523 C517 1.265 . S
C523 H518 0.950 . S
C523 C524 1.478 . S
C524 C523 1.478 . S
C524 C525 1.397 . S
C524 C541 1.394 . S
C525 C524 1.397 . S
C525 C526 1.438 . S
C525 C530 1.429 . S
C526 C525 1.438 . S
C526 C527 1.428 . S
C526 C539 1.394 . S
C527 H519 0.949 . S
C527 C526 1.428 . S
C527 C528 1.345 . S
C528 H520 0.950 . S
C528 C527 1.345 . S
C528 C529 1.424 . S
C529 H521 0.951 . S
C529 C528 1.424 . S
C529 C530 1.347 . S
C530 H522 0.951 . S
C530 C525 1.429 . S
C530 C529 1.347 . S
H531 C532 0.951 . S
C532 H531 0.951 . S
C532 C538 1.265 . S
H533 C538 0.950 . S
H534 C542 0.949 . S
H535 C543 0.950 . S
H536 C544 0.951 . S
H537 C545 0.951 . S
C538 C532 1.265 . S
C538 H533 0.950 . S
C538 C539 1.478 . S
C539 C526 1.394 . S
C539 C538 1.478 . S
C539 C540 1.397 . S
C540 C539 1.397 . S
C540 C541 1.438 . S
C540 C545 1.429 . S
C541 C524 1.394 . S
C541 C540 1.438 . S
C541 C542 1.428 . S
C542 H534 0.949 . S
C542 C541 1.428 . S
C542 C543 1.345 . S
C543 H535 0.950 . S
C543 C542 1.345 . S
C543 C544 1.424 . S
C544 H536 0.951 . S
C544 C543 1.424 . S
C544 C545 1.347 . S
C545 H537 0.951 . S
C545 C540 1.429 . S
C545 C544 1.347 . S
H546 C547 0.951 . S
C547 H546 0.951 . S
C547 C553 1.265 . S
H548 C553 0.950 . S
H549 C557 0.949 . S
H550 C558 0.950 . S
H551 C559 0.951 . S
H552 C560 0.951 . S
C553 C547 1.265 . S
C553 H548 0.950 . S
C553 C554 1.478 . S
C554 C553 1.478 . S
C554 C555 1.397 . S
C554 C571 1.394 . S
C555 C554 1.397 . S
C555 C556 1.438 . S
C555 C560 1.429 . S
C556 C555 1.438 . S
C556 C557 1.428 . S
C556 C569 1.394 . S
C557 H549 0.949 . S
C557 C556 1.428 . S
C557 C558 1.345 . S
C558 H550 0.950 . S
C558 C557 1.345 . S
C558 C559 1.424 . S
C559 H551 0.951 . S
C559 C558 1.424 . S
C559 C560 1.347 . S
C560 H552 0.951 . S
C560 C555 1.429 . S
C560 C559 1.347 . S
H561 C562 0.951 . S
C562 H561 0.951 . S
C562 C568 1.265 . S
H563 C568 0.950 . S
H564 C572 0.949 . S
H565 C573 0.950 . S
H566 C574 0.951 . S
H567 C575 0.951 . S
C568 C562 1.265 . S
C568 H563 0.950 . S
C568 C569 1.478 . S
C569 C556 1.394 . S
C569 C568 1.478 . S
C569 C570 1.397 . S
C570 C569 1.397 . S
C570 C571 1.438 . S
C570 C575 1.429 . S
C571 C554 1.394 . S
C571 C570 1.438 . S
C571 C572 1.428 . S
C572 H564 0.949 . S
C572 C571 1.428 . S
C572 C573 1.345 . S
C573 H565 0.950 . S
C573 C572 1.345 . S
C573 C574 1.424 . S
C574 H566 0.951 . S
C574 C573 1.424 . S
C574 C575 1.347 . S
C575 H567 0.951 . S
C575 C570 1.429 . S
C575 C574 1.347 . S
H576 C577 0.951 . S
C577 H576 0.951 . S
C577 C583 1.265 . S
H578 C583 0.950 . S
H579 C587 0.949 . S
H580 C588 0.950 . S
H581 C589 0.951 . S
H582 C590 0.951 . S
C583 C577 1.265 . S
C583 H578 0.950 . S
C583 C584 1.478 . S
C584 C583 1.478 . S
C584 C585 1.397 . S
C584 C601 1.394 . S
C585 C584 1.397 . S
C585 C586 1.438 . S
C585 C590 1.429 . S
C586 C585 1.438 . S
C586 C587 1.428 1_655 S
C586 C599 1.394 . S
C587 H579 0.949 . S
C587 C586 1.428 1_455 S
C587 C588 1.345 . S
C588 H580 0.950 . S
C588 C587 1.345 . S
C588 C589 1.424 . S
C589 H581 0.951 . S
C589 C588 1.424 . S
C589 C590 1.347 1_455 S
C590 H582 0.951 . S
C590 C585 1.429 . S
C590 C589 1.347 1_655 S
H591 C592 0.951 . S
C592 H591 0.951 . S
C592 C598 1.265 1_455 S
H593 C598 0.950 . S
H594 C602 0.949 . S
H595 C603 0.950 . S
H596 C604 0.951 . S
H597 C605 0.951 . S
C598 C592 1.265 1_655 S
C598 H593 0.950 . S
C598 C599 1.478 . S
C599 C586 1.394 . S
C599 C598 1.478 . S
C599 C600 1.397 . S
C600 C599 1.397 . S
C600 C601 1.438 . S
C600 C605 1.429 . S
C601 C584 1.394 . S
C601 C600 1.438 . S
C601 C602 1.428 . S
C602 H594 0.949 . S
C602 C601 1.428 . S
C602 C603 1.345 . S
C603 H595 0.950 . S
C603 C602 1.345 . S
C603 C604 1.424 . S
C604 H596 0.951 . S
C604 C603 1.424 . S
C604 C605 1.347 . S
C605 H597 0.951 . S
C605 C600 1.429 . S
C605 C604 1.347 . S
H606 C607 0.951 . S
C607 H606 0.951 . S
C607 C613 1.265 . S
H608 C613 0.950 . S
H609 C617 0.949 . S
H610 C618 0.950 . S
H611 C619 0.951 . S
H612 C620 0.951 . S
C613 C607 1.265 . S
C613 H608 0.950 . S
C613 C614 1.478 . S
C614 C613 1.478 . S
C614 C615 1.397 . S
C614 C631 1.394 . S
C615 C614 1.397 . S
C615 C616 1.438 . S
C615 C620 1.429 . S
C616 C615 1.438 . S
C616 C617 1.428 . S
C616 C629 1.394 . S
C617 H609 0.949 . S
C617 C616 1.428 . S
C617 C618 1.345 . S
C618 H610 0.950 . S
C618 C617 1.345 . S
C618 C619 1.424 . S
C619 H611 0.951 . S
C619 C618 1.424 . S
C619 C620 1.347 . S
C620 H612 0.951 . S
C620 C615 1.429 . S
C620 C619 1.347 . S
H621 C622 0.951 1_655 S
C622 H621 0.951 1_455 S
C622 C628 1.265 . S
H623 C628 0.950 . S
H624 C632 0.949 . S
H625 C633 0.950 . S
H626 C634 0.951 . S
H627 C635 0.951 . S
C628 C622 1.265 . S
C628 H623 0.950 . S
C628 C629 1.478 1_455 S
C629 C616 1.394 . S
C629 C628 1.478 1_655 S
C629 C630 1.397 . S
C630 C629 1.397 . S
C630 C631 1.438 . S
C630 C635 1.429 1_655 S
C631 C614 1.394 . S
C631 C630 1.438 . S
C631 C632 1.428 . S
C632 H624 0.949 . S
C632 C631 1.428 . S
C632 C633 1.345 1_655 S
C633 H625 0.950 . S
C633 C632 1.345 1_455 S
C633 C634 1.424 . S
C634 H626 0.951 . S
C634 C633 1.424 . S
C634 C635 1.347 . S
C635 H627 0.951 . S
C635 C630 1.429 1_455 S
C635 C634 1.347 . S
H636 C637 0.951 1_455 S
C637 H636 0.951 1_655 S
C637 C643 1.265 . S
H638 C643 0.950 . S
H639 C647 0.949 . S
H640 C648 0.950 . S
H641 C649 0.951 . S
H642 C650 0.951 . S
C643 C637 1.265 . S
C643 H638 0.950 . S
C643 C644 1.478 1_655 S
C644 C643 1.478 1_455 S
C644 C645 1.397 . S
C644 C661 1.394 . S
C645 C644 1.397 . S
C645 C646 1.438 . S
C645 C650 1.429 . S
C646 C645 1.438 . S
C646 C647 1.428 . S
C646 C659 1.394 . S
C647 H639 0.949 . S
C647 C646 1.428 . S
C647 C648 1.345 . S
C648 H640 0.950 . S
C648 C647 1.345 . S
C648 C649 1.424 . S
C649 H641 0.951 . S
C649 C648 1.424 . S
C649 C650 1.347 . S
C650 H642 0.951 . S
C650 C645 1.429 . S
C650 C649 1.347 . S
H651 C652 0.951 . S
C652 H651 0.951 . S
C652 C658 1.265 . S
H653 C658 0.950 . S
H654 C662 0.949 1_655 S
H655 C663 0.950 . S
H656 C664 0.951 . S
H657 C665 0.951 . S
C658 C652 1.265 . S
C658 H653 0.950 . S
C658 C659 1.478 . S
C659 C646 1.394 . S
C659 C658 1.478 . S
C659 C660 1.397 . S
C660 C659 1.397 . S
C660 C661 1.438 . S
C660 C665 1.429 . S
C661 C644 1.394 . S
C661 C660 1.438 . S
C661 C662 1.428 . S
C662 H654 0.949 1_455 S
C662 C661 1.428 . S
C662 C663 1.345 . S
C663 H655 0.950 . S
C663 C662 1.345 . S
C663 C664 1.424 . S
C664 H656 0.951 . S
C664 C663 1.424 . S
C664 C665 1.347 . S
C665 H657 0.951 . S
C665 C660 1.429 . S
C665 C664 1.347 . S
H666 C667 0.951 . S
C667 H666 0.951 . S
C667 C673 1.265 . S
H668 C673 0.950 . S
H669 C677 0.949 . S
H670 C678 0.950 . S
H671 C679 0.951 . S
H672 C680 0.951 . S
C673 C667 1.265 . S
C673 H668 0.950 . S
C673 C674 1.478 . S
C674 C673 1.478 . S
C674 C675 1.397 . S
C674 C691 1.394 . S
C675 C674 1.397 . S
C675 C676 1.438 . S
C675 C680 1.429 . S
C676 C675 1.438 . S
C676 C677 1.428 . S
C676 C689 1.394 . S
C677 H669 0.949 . S
C677 C676 1.428 . S
C677 C678 1.345 . S
C678 H670 0.950 . S
C678 C677 1.345 . S
C678 C679 1.424 . S
C679 H671 0.951 . S
C679 C678 1.424 . S
C679 C680 1.347 . S
C680 H672 0.951 . S
C680 C675 1.429 . S
C680 C679 1.347 . S
H681 C682 0.950 1_455 S
C682 H681 0.950 1_655 S
C682 C688 1.265 . S
H683 C688 0.950 . S
H684 C692 0.949 . S
H685 C693 0.950 . S
H686 C694 0.951 . S
H687 C695 0.951 . S
C688 C682 1.265 . S
C688 H683 0.950 . S
C688 C689 1.478 1_655 S
C689 C676 1.394 . S
C689 C688 1.478 1_455 S
C689 C690 1.397 . S
C690 C689 1.397 . S
C690 C691 1.438 . S
C690 C695 1.429 1_455 S
C691 C674 1.394 . S
C691 C690 1.438 . S
C691 C692 1.428 . S
C692 H684 0.949 . S
C692 C691 1.428 . S
C692 C693 1.345 . S
C693 H685 0.950 . S
C693 C692 1.345 . S
C693 C694 1.424 1_455 S
C694 H686 0.951 . S
C694 C693 1.424 1_655 S
C694 C695 1.347 . S
C695 H687 0.951 . S
C695 C690 1.429 1_655 S
C695 C694 1.347 . S
C337 C140 1.490 1_554 S
C352 C68 1.493 1_556 S
C367 C236 1.487 . S
C382 C308 1.487 . S
C397 C56 1.502 . S
C412 C152 1.502 . S
C427 C320 1.484 . S
C442 C224 1.484 . S
C457 C322 1.184 . S
C472 C67 1.273 . S
C487 C154 1.275 . S
C502 C235 1.278 . S
C517 C139 1.300 . S
C532 C226 1.146 . S
C547 C307 1.316 . S
C562 C58 1.256 . S
C577 C151 1.277 . S
C592 C238 1.181 . S
C607 C319 1.305 . S
C622 C70 1.282 . S
C637 C310 1.204 . S
C652 C55 1.322 . S
C667 C223 1.318 . S
C682 C142 1.245 . S
