# Generated by pormake.
# Topology wjh, (4)-cn, num edge types: 1
# Building blocks:
#     Node 0, Type 0, BuildingBlock: AZAVOO_clean_sbu_0, # of connection points: 4
#     Node 1, Type 0, BuildingBlock: AZAVOO_clean_sbu_0, # of connection points: 4
#     Node 2, Type 0, BuildingBlock: AZAVOO_clean_sbu_0, # of connection points: 4
#     Node 3, Type 0, BuildingBlock: AZAVOO_clean_sbu_0, # of connection points: 4
#     Node 4, Type 0, BuildingBlock: AZAVOO_clean_sbu_0, # of connection points: 4
#     Node 5, Type 0, BuildingBlock: AZAVOO_clean_sbu_0, # of connection points: 4
#     Node 6, Type 0, BuildingBlock: AZAVOO_clean_sbu_0, # of connection points: 4
#     Node 7, Type 0, BuildingBlock: AZAVOO_clean_sbu_0, # of connection points: 4
#     Node 8, Type 0, BuildingBlock: AZAVOO_clean_sbu_0, # of connection points: 4
#     Node 9, Type 0, BuildingBlock: AZAVOO_clean_sbu_0, # of connection points: 4
#     Node 10, Type 0, BuildingBlock: AZAVOO_clean_sbu_0, # of connection points: 4
#     Node 11, Type 0, BuildingBlock: AZAVOO_clean_sbu_0, # of connection points: 4
#     Edge 12, Type (0, 0), BuildingBlock: XUDNAN_clean_linker_2, # of connection points: 2
#     Edge 13, Type (0, 0), BuildingBlock: XUDNAN_clean_linker_2, # of connection points: 2
#     Edge 14, Type (0, 0), BuildingBlock: XUDNAN_clean_linker_2, # of connection points: 2
#     Edge 15, Type (0, 0), BuildingBlock: XUDNAN_clean_linker_2, # of connection points: 2
#     Edge 16, Type (0, 0), BuildingBlock: XUDNAN_clean_linker_2, # of connection points: 2
#     Edge 17, Type (0, 0), BuildingBlock: XUDNAN_clean_linker_2, # of connection points: 2
#     Edge 18, Type (0, 0), BuildingBlock: XUDNAN_clean_linker_2, # of connection points: 2
#     Edge 19, Type (0, 0), BuildingBlock: XUDNAN_clean_linker_2, # of connection points: 2
#     Edge 20, Type (0, 0), BuildingBlock: XUDNAN_clean_linker_2, # of connection points: 2
#     Edge 21, Type (0, 0), BuildingBlock: XUDNAN_clean_linker_2, # of connection points: 2
#     Edge 22, Type (0, 0), BuildingBlock: XUDNAN_clean_linker_2, # of connection points: 2
#     Edge 23, Type (0, 0), BuildingBlock: XUDNAN_clean_linker_2, # of connection points: 2
#     Edge 24, Type (0, 0), BuildingBlock: XUDNAN_clean_linker_2, # of connection points: 2
#     Edge 25, Type (0, 0), BuildingBlock: XUDNAN_clean_linker_2, # of connection points: 2
#     Edge 26, Type (0, 0), BuildingBlock: XUDNAN_clean_linker_2, # of connection points: 2
#     Edge 27, Type (0, 0), BuildingBlock: XUDNAN_clean_linker_2, # of connection points: 2
#     Edge 28, Type (0, 0), BuildingBlock: XUDNAN_clean_linker_2, # of connection points: 2
#     Edge 29, Type (0, 0), BuildingBlock: XUDNAN_clean_linker_2, # of connection points: 2
#     Edge 30, Type (0, 0), BuildingBlock: XUDNAN_clean_linker_2, # of connection points: 2
#     Edge 31, Type (0, 0), BuildingBlock: XUDNAN_clean_linker_2, # of connection points: 2
#     Edge 32, Type (0, 0), BuildingBlock: XUDNAN_clean_linker_2, # of connection points: 2
#     Edge 33, Type (0, 0), BuildingBlock: XUDNAN_clean_linker_2, # of connection points: 2
#     Edge 34, Type (0, 0), BuildingBlock: XUDNAN_clean_linker_2, # of connection points: 2
#     Edge 35, Type (0, 0), BuildingBlock: XUDNAN_clean_linker_2, # of connection points: 2
# Relax obj value: 0.170
# Max RMSD: 0.150
# Mean RMSD: 0.150
data_MOF--net-wjh--node1-AZAVOO_clean_sbu_0--edge1-XUDNAN_clean_linker_2
_symmetry_space_group_name_H-M    P1
_symmetry_Int_Tables_number       1
_symmetry_cell_setting            triclinic
loop_
_symmetry_equiv_pos_as_xyz
'x, y, z'
_cell_length_a     63.138091
_cell_length_b     63.2069
_cell_length_c     23.684037
_cell_angle_alpha  90.040591
_cell_angle_beta   89.975977
_cell_angle_gamma 120.11394
loop_
_atom_site_label
_atom_site_type_symbol
_atom_site_fract_x
_atom_site_fract_y
_atom_site_fract_z
_atom_type_partial_charge
Mg0 Mg 0.49404 0.14226 0.04294 0.0
O1 O 0.51793 0.13144 0.09344 0.0
O2 O 0.50841 0.09334 0.07073 0.0
Mg3 Mg 0.48008 0.08105 0.99891 0.0
C4 C 0.5206 0.11287 0.0996 0.0
C5 C 0.5193 0.19869 0.04489 0.0
O6 O 0.50849 0.19394 0.99535 0.0
O7 O 0.51859 0.15012 0.9663 0.0
O8 O 0.50701 0.11176 0.94016 0.0
O9 O 0.46418 0.12335 0.10715 0.0
O10 O 0.46784 0.10577 0.03002 0.0
C11 C 0.51942 0.13488 0.93237 0.0
C12 C 0.45672 0.10384 0.07676 0.0
O13 O 0.51723 0.18109 0.0748 0.0
Mg14 Mg 0.33759 0.45603 0.22904 0.0
O15 O 0.36725 0.48001 0.2941 0.0
O16 O 0.40293 0.48832 0.25498 0.0
Mg17 Mg 0.39577 0.4648 0.17557 0.0
C18 C 0.39064 0.49099 0.29438 0.0
C19 C 0.29663 0.46612 0.22529 0.0
O20 O 0.29901 0.45927 0.17439 0.0
O21 O 0.35112 0.48816 0.16788 0.0
O22 O 0.38298 0.48773 0.1275 0.0
O23 O 0.33108 0.42093 0.27021 0.0
O24 O 0.35799 0.44066 0.20317 0.0
C25 C 0.36774 0.49538 0.13028 0.0
C26 C 0.34799 0.42233 0.23679 0.0
O27 O 0.31039 0.46611 0.26447 0.0
Mg28 Mg 0.87725 0.34955 0.39091 0.0
O29 O 0.87866 0.3724 0.4682 0.0
O30 O 0.91328 0.40857 0.46238 0.0
Mg31 Mg 0.93219 0.40987 0.37924 0.0
C32 C 0.89355 0.39362 0.48795 0.0
C33 C 0.82548 0.31102 0.36515 0.0
O34 O 0.83602 0.31862 0.31565 0.0
O35 O 0.86469 0.37081 0.33687 0.0
O36 O 0.89922 0.40699 0.33145 0.0
O37 O 0.90074 0.33764 0.43625 0.0
O38 O 0.91463 0.37003 0.38071 0.0
C39 C 0.87662 0.39284 0.31948 0.0
C40 C 0.91912 0.35685 0.41429 0.0
O41 O 0.83797 0.32086 0.4094 0.0
Mg42 Mg 0.49234 0.86164 0.61499 0.0
O43 O 0.47476 0.86804 0.69367 0.0
O44 O 0.47057 0.90057 0.67688 0.0
Mg45 Mg 0.48468 0.91439 0.58781 0.0
C46 C 0.46817 0.88328 0.70893 0.0
C47 C 0.50075 0.81971 0.64918 0.0
O48 O 0.52309 0.83706 0.63679 0.0
O49 O 0.45618 0.84524 0.56808 0.0
O50 O 0.454 0.87878 0.54863 0.0
O51 O 0.5307 0.88813 0.64401 0.0
O52 O 0.508 0.89782 0.59153 0.0
C53 C 0.44555 0.85573 0.54545 0.0
C54 C 0.52848 0.9046 0.61643 0.0
O55 O 0.48341 0.82436 0.64672 0.0
Mg56 Mg 0.63894 0.51579 0.75378 0.0
O57 O 0.60465 0.49651 0.81118 0.0
O58 O 0.57951 0.50987 0.78385 0.0
Mg59 Mg 0.59517 0.53373 0.70543 0.0
C60 C 0.58493 0.49735 0.81694 0.0
C61 C 0.66311 0.49581 0.83677 0.0
O62 O 0.6621 0.51194 0.87001 0.0
O63 O 0.619 0.48865 0.68208 0.0
O64 O 0.59324 0.50157 0.65742 0.0
O65 O 0.65305 0.54828 0.81202 0.0
O66 O 0.63168 0.54348 0.73449 0.0
C67 C 0.60171 0.48713 0.65122 0.0
C68 C 0.64151 0.55564 0.77966 0.0
O69 O 0.65349 0.49205 0.78806 0.0
Mg70 Mg 0.12798 0.64171 0.94532 0.0
O71 O 0.12396 0.6233 0.03237 0.0
O72 O 0.09774 0.5834 0.01893 0.0
Mg73 Mg 0.08182 0.57726 0.92975 0.0
C74 C 0.11241 0.60122 0.05024 0.0
C75 C 0.17547 0.6878 0.9275 0.0
O76 O 0.16702 0.67912 0.8769 0.0
O77 O 0.14916 0.62436 0.90959 0.0
O78 O 0.1192 0.58595 0.89411 0.0
O79 O 0.0983 0.65015 0.96388 0.0
O80 O 0.09239 0.61609 0.92382 0.0
C81 C 0.14162 0.60286 0.89061 0.0
C82 C 0.08333 0.62915 0.94143 0.0
O83 O 0.16325 0.67571 0.97029 0.0
Mg84 Mg 0.86813 0.51221 0.90023 0.0
O85 O 0.87217 0.48731 0.83577 0.0
O86 O 0.90691 0.48743 0.85547 0.0
Mg87 Mg 0.92519 0.51233 0.9318 0.0
C88 C 0.88762 0.48034 0.82576 0.0
C89 C 0.81508 0.49987 0.91131 0.0
O90 O 0.82492 0.51112 0.95906 0.0
O91 O 0.85665 0.4827 0.96755 0.0
O92 O 0.89327 0.48725 0.98912 0.0
O93 O 0.89124 0.54618 0.8472 0.0
O94 O 0.90544 0.53134 0.9117 0.0
C95 C 0.87029 0.4777 0.9977 0.0
C96 C 0.90974 0.54724 0.87337 0.0
O97 O 0.82848 0.49727 0.87522 0.0
Mg98 Mg 0.34342 0.88249 0.13876 0.0
O99 O 0.37071 0.8837 0.07309 0.0
O100 O 0.40892 0.9121 0.09536 0.0
Mg101 Mg 0.40601 0.92609 0.18277 0.0
C102 C 0.39356 0.89558 0.06236 0.0
C103 C 0.31132 0.84783 0.04214 0.0
O104 O 0.32594 0.86729 0.01228 0.0
O105 O 0.35277 0.8597 0.19656 0.0
O106 O 0.39128 0.88755 0.21998 0.0
O107 O 0.34324 0.91459 0.09847 0.0
O108 O 0.36805 0.91734 0.16757 0.0
C109 C 0.37276 0.86591 0.22255 0.0
C110 C 0.36075 0.92803 0.13319 0.0
O111 O 0.31362 0.84853 0.0955 0.0
Mg112 Mg 0.48402 0.35278 0.22318 0.0
O113 O 0.49647 0.38404 0.15841 0.0
O114 O 0.4811 0.40742 0.18587 0.0
Mg115 Mg 0.45998 0.39221 0.2684 0.0
C116 C 0.49347 0.4024 0.15126 0.0
C117 C 0.52389 0.33738 0.21307 0.0
O118 O 0.52546 0.34176 0.26758 0.0
O119 O 0.51294 0.37866 0.28648 0.0
O120 O 0.49494 0.39973 0.31362 0.0
O121 O 0.44797 0.33091 0.17695 0.0
O122 O 0.45452 0.35625 0.24773 0.0
C123 C 0.51213 0.39472 0.31777 0.0
C124 C 0.43996 0.34158 0.21029 0.0
O125 O 0.50949 0.34139 0.18345 0.0
Mg126 Mg 0.13838 0.49282 0.46582 0.0
O127 O 0.13025 0.51733 0.40889 0.0
O128 O 0.10171 0.52276 0.45123 0.0
Mg129 Mg 0.08906 0.49869 0.53089 0.0
C130 C 0.1166 0.52686 0.41068 0.0
C131 C 0.17225 0.50171 0.36308 0.0
O132 O 0.15188 0.49662 0.33693 0.0
O133 O 0.15875 0.52373 0.53004 0.0
O134 O 0.12635 0.52248 0.57229 0.0
O135 O 0.10925 0.45936 0.42207 0.0
O136 O 0.10321 0.47562 0.49873 0.0
C137 C 0.14933 0.53051 0.56871 0.0
C138 C 0.0945 0.45893 0.46063 0.0
O139 O 0.17297 0.5029 0.41663 0.0
Mg140 Mg 0.64255 0.11981 0.54473 0.0
O141 O 0.62009 0.11394 0.46403 0.0
O142 O 0.5825 0.08168 0.47232 0.0
Mg143 Mg 0.5805 0.06705 0.56178 0.0
C144 C 0.59887 0.09955 0.44385 0.0
C145 C 0.67789 0.15815 0.4598 0.0
O146 O 0.66754 0.13838 0.4283 0.0
O147 O 0.62184 0.1364 0.58767 0.0
O148 O 0.58523 0.10269 0.59831 0.0
O149 O 0.65425 0.09301 0.5172 0.0
O150 O 0.62044 0.08344 0.56471 0.0
C151 C 0.59971 0.12563 0.60519 0.0
C152 C 0.63404 0.07652 0.5401 0.0
O153 O 0.67187 0.1567 0.51146 0.0
Mg154 Mg 0.48925 0.61504 0.75013 0.0
O155 O 0.47637 0.59297 0.66747 0.0
O156 O 0.46737 0.55472 0.68622 0.0
Mg157 Mg 0.47804 0.5535 0.77811 0.0
C158 C 0.46839 0.57086 0.65225 0.0
C159 C 0.50025 0.66632 0.71314 0.0
O160 O 0.52192 0.67131 0.73147 0.0
O161 O 0.4506 0.59535 0.7862 0.0
O162 O 0.44642 0.55889 0.80663 0.0
O163 O 0.52847 0.62617 0.73294 0.0
O164 O 0.50256 0.59346 0.78145 0.0
C165 C 0.43836 0.57384 0.80672 0.0
C166 C 0.5243 0.60717 0.76226 0.0
O167 O 0.4829 0.64427 0.71284 0.0
H168 H 0.51433 0.07675 0.17315 0.0
H169 H 0.56488 0.15197 0.12631 0.0
H170 H 0.59228 0.15538 0.20468 0.0
H171 H 0.51937 0.08777 0.31928 0.0
H172 H 0.51688 0.05906 0.3389 0.0
H173 H 0.50291 0.06129 0.27467 0.0
H174 H 0.52701 0.04527 0.2175 0.0
H175 H 0.54101 0.04292 0.28169 0.0
H176 H 0.5599 0.06066 0.22333 0.0
H177 H 0.61309 0.15135 0.29034 0.0
H178 H 0.62459 0.14136 0.38168 0.0
H179 H 0.55916 0.06951 0.37726 0.0
C180 C 0.53148 0.0937 0.17866 0.0
C181 C 0.53779 0.11399 0.14328 0.0
C182 C 0.55991 0.13618 0.15279 0.0
C183 C 0.57558 0.13825 0.19701 0.0
C184 C 0.56869 0.11805 0.2318 0.0
C185 C 0.54709 0.09624 0.22347 0.0
C186 C 0.54286 0.07817 0.27028 0.0
C187 C 0.5191 0.07117 0.30269 0.0
C188 C 0.54269 0.05541 0.24678 0.0
C189 C 0.56528 0.09334 0.30654 0.0
C190 C 0.58013 0.11612 0.283 0.0
C191 C 0.60166 0.13353 0.3091 0.0
C192 C 0.60804 0.12765 0.36102 0.0
C193 C 0.59277 0.10466 0.38685 0.0
C194 C 0.57122 0.08725 0.35874 0.0
H195 H 0.38276 0.48148 0.4076 0.0
H196 H 0.42967 0.53703 0.2874 0.0
H197 H 0.45379 0.56435 0.36611 0.0
H198 H 0.38337 0.52176 0.51833 0.0
H199 H 0.38497 0.50346 0.57468 0.0
H200 H 0.37016 0.48922 0.50918 0.0
H201 H 0.39869 0.47099 0.49881 0.0
H202 H 0.41363 0.48522 0.56415 0.0
H203 H 0.43141 0.49109 0.50056 0.0
H204 H 0.47231 0.5858 0.45822 0.0
H205 H 0.48652 0.59826 0.5565 0.0
H206 H 0.43026 0.52712 0.6161 0.0
C207 C 0.3979 0.49955 0.39812 0.0
C208 C 0.40422 0.50743 0.34171 0.0
C209 C 0.42453 0.53085 0.33051 0.0
C210 C 0.43825 0.54646 0.37487 0.0
C211 C 0.43172 0.53813 0.43014 0.0
C212 C 0.41223 0.5151 0.44191 0.0
C213 C 0.41022 0.50991 0.50477 0.0
C214 C 0.38573 0.50585 0.5281 0.0
C215 C 0.4137 0.48801 0.51782 0.0
C216 C 0.43156 0.53362 0.52647 0.0
C217 C 0.44346 0.54982 0.48285 0.0
C218 C 0.46325 0.5732 0.49268 0.0
C219 C 0.47117 0.58014 0.54854 0.0
C220 C 0.45966 0.56357 0.59364 0.0
C221 C 0.43962 0.54002 0.58227 0.0
H222 H 0.9219 0.47779 0.7603 0.0
H223 H 0.8435 0.44585 0.78202 0.0
H224 H 0.83632 0.41823 0.70108 0.0
H225 H 0.92063 0.47847 0.61003 0.0
H226 H 0.9451 0.47186 0.60158 0.0
H227 H 0.94388 0.48766 0.66365 0.0
H228 H 0.94475 0.45465 0.72686 0.0
H229 H 0.94589 0.43869 0.66492 0.0
H230 H 0.92207 0.42291 0.71658 0.0
H231 H 0.83791 0.3939 0.61782 0.0
H232 H 0.84805 0.37784 0.53296 0.0
H233 H 0.92536 0.42787 0.56256 0.0
C234 C 0.90322 0.46478 0.7484 0.0
C235 C 0.88323 0.46372 0.77769 0.0
C236 C 0.85905 0.44688 0.76011 0.0
C237 C 0.85481 0.43107 0.71444 0.0
C238 C 0.87495 0.43259 0.68638 0.0
C239 C 0.89868 0.44924 0.70229 0.0
C240 C 0.91712 0.44839 0.66292 0.0
C241 C 0.93258 0.47306 0.63276 0.0
C242 C 0.93341 0.4407 0.69474 0.0
C243 C 0.90009 0.42869 0.62226 0.0
C244 C 0.87585 0.41951 0.63697 0.0
C245 C 0.85683 0.401 0.60582 0.0
C246 C 0.86276 0.39193 0.55786 0.0
C247 C 0.88746 0.4017 0.54108 0.0
C248 C 0.90629 0.42017 0.57413 0.0
H249 H 0.47167 0.91917 0.77979 0.0
H250 H 0.4375 0.84044 0.76263 0.0
H251 H 0.41471 0.83503 0.85152 0.0
H252 H 0.47905 0.91992 0.93312 0.0
H253 H 0.47336 0.9449 0.94325 0.0
H254 H 0.48692 0.94247 0.8784 0.0
H255 H 0.45238 0.94346 0.82156 0.0
H256 H 0.43862 0.94572 0.8862 0.0
H257 H 0.42088 0.92139 0.83697 0.0
H258 H 0.39284 0.83831 0.9371 0.0
H259 H 0.37768 0.84992 0.02117 0.0
H260 H 0.42916 0.92647 0.98831 0.0
C261 C 0.45949 0.90081 0.79504 0.0
C262 C 0.45619 0.88018 0.76435 0.0
C263 C 0.44033 0.85645 0.78573 0.0
C264 C 0.42724 0.85322 0.83596 0.0
C265 C 0.43066 0.87393 0.86486 0.0
C266 C 0.44679 0.89728 0.84586 0.0
C267 C 0.44761 0.91645 0.88577 0.0
C268 C 0.47326 0.93184 0.91167 0.0
C269 C 0.43937 0.93271 0.85582 0.0
C270 C 0.4291 0.90025 0.92969 0.0
C271 C 0.41928 0.87579 0.91634 0.0
C272 C 0.4007 0.85738 0.94853 0.0
C273 C 0.39214 0.86413 0.99596 0.0
C274 C 0.40249 0.88902 0.01141 0.0
C275 C 0.42126 0.90728 0.97789 0.0
H276 H 0.52984 0.40563 0.08067 0.0
H277 H 0.48179 0.43534 0.10819 0.0
H278 H 0.4993 0.46176 0.02481 0.0
H279 H 0.58229 0.46254 0.03806 0.0
H280 H 0.59238 0.44879 0.98575 0.0
H281 H 0.57552 0.43142 0.04661 0.0
H282 H 0.54351 0.39765 0.98122 0.0
H283 H 0.56025 0.41493 0.92014 0.0
H284 H 0.52835 0.40566 0.92797 0.0
H285 H 0.52145 0.48467 0.93861 0.0
H286 H 0.54848 0.50446 0.85725 0.0
H287 H 0.58376 0.46148 0.88624 0.0
C288 C 0.52292 0.4176 0.06898 0.0
C289 C 0.50429 0.41826 0.10096 0.0
C290 C 0.49598 0.43443 0.08453 0.0
C291 C 0.50579 0.4495 0.03709 0.0
C292 C 0.52409 0.44842 0.00662 0.0
C293 C 0.53275 0.43306 0.022 0.0
C294 C 0.55312 0.43612 0.98272 0.0
C295 C 0.57726 0.44527 0.01524 0.0
C296 C 0.54587 0.41216 0.95114 0.0
C297 C 0.55449 0.45558 0.9429 0.0
C298 C 0.53742 0.46222 0.95735 0.0
C299 C 0.53491 0.47965 0.92687 0.0
C300 C 0.55034 0.49073 0.88051 0.0
C301 C 0.56827 0.48453 0.86507 0.0
C302 C 0.5703 0.46667 0.8969 0.0
H303 H 0.11976 0.51963 0.29803 0.0
H304 H 0.11505 0.56922 0.41705 0.0
H305 H 0.11634 0.59545 0.33778 0.0
H306 H 0.15902 0.56436 0.19389 0.0
H307 H 0.14274 0.54505 0.13472 0.0
H308 H 0.1437 0.53156 0.20096 0.0
H309 H 0.09628 0.50657 0.20309 0.0
H310 H 0.09518 0.51994 0.13687 0.0
H311 H 0.07918 0.5223 0.19742 0.0
H312 H 0.11885 0.61658 0.24451 0.0
H313 H 0.11678 0.62788 0.1452 0.0
H314 H 0.11547 0.56209 0.08793 0.0
C315 C 0.11932 0.5362 0.30732 0.0
C316 C 0.11767 0.54268 0.36353 0.0
C317 C 0.11645 0.56408 0.37417 0.0
C318 C 0.11728 0.5791 0.32948 0.0
C319 C 0.11884 0.57217 0.27438 0.0
C320 C 0.11943 0.55099 0.26317 0.0
C321 C 0.11903 0.54653 0.20023 0.0
C322 C 0.14253 0.5469 0.18135 0.0
C323 C 0.09605 0.52241 0.18344 0.0
C324 C 0.1181 0.56847 0.1777 0.0
C325 C 0.11853 0.58335 0.22102 0.0
C326 C 0.11835 0.60497 0.2103 0.0
C327 C 0.11727 0.61132 0.15388 0.0
C328 C 0.11579 0.59577 0.10917 0.0
C329 C 0.11637 0.57419 0.12143 0.0
H330 H 0.51842 0.31976 0.10552 0.0
H331 H 0.5527 0.32241 0.26614 0.0
H332 H 0.56285 0.2918 0.23132 0.0
H333 H 0.48835 0.25945 0.09176 0.0
H334 H 0.49153 0.25794 0.01645 0.0
H335 H 0.49288 0.28452 0.04721 0.0
H336 H 0.53543 0.31216 0.00184 0.0
H337 H 0.53411 0.28556 0.97018 0.0
H338 H 0.55979 0.30567 0.01393 0.0
H339 H 0.56082 0.25497 0.18834 0.0
H340 H 0.54789 0.21586 0.13953 0.0
H341 H 0.51521 0.23716 0.00636 0.0
C342 C 0.52894 0.31465 0.1326 0.0
C343 C 0.53476 0.32346 0.18854 0.0
C344 C 0.54811 0.31597 0.22304 0.0
C345 C 0.55405 0.29864 0.20353 0.0
C346 C 0.54682 0.28927 0.14918 0.0
C347 C 0.53489 0.29732 0.11381 0.0
C348 C 0.52599 0.28201 0.06064 0.0
C349 C 0.49805 0.27029 0.05369 0.0
C350 C 0.53966 0.29726 0.00856 0.0
C351 C 0.53324 0.26305 0.07339 0.0
C352 C 0.54575 0.26788 0.12401 0.0
C353 C 0.55166 0.25135 0.1479 0.0
C354 C 0.54411 0.22911 0.12004 0.0
C355 C 0.53066 0.22356 0.06902 0.0
C356 C 0.5259 0.24112 0.04469 0.0
H357 H 0.28341 0.47763 0.32655 0.0
H358 H 0.2696 0.47333 0.1461 0.0
H359 H 0.23937 0.4865 0.16127 0.0
H360 H 0.22216 0.4533 0.36861 0.0
H361 H 0.22895 0.47278 0.42952 0.0
H362 H 0.25123 0.46529 0.40404 0.0
H363 H 0.2832 0.51146 0.3955 0.0
H364 H 0.26091 0.51908 0.42067 0.0
H365 H 0.27606 0.53098 0.35405 0.0
H366 H 0.20861 0.49707 0.19585 0.0
H367 H 0.17802 0.50265 0.24851 0.0
H368 H 0.21182 0.50041 0.40636 0.0
C369 C 0.27424 0.47974 0.29022 0.0
C370 C 0.27889 0.47447 0.23518 0.0
C371 C 0.26632 0.47721 0.18873 0.0
C372 C 0.24921 0.48484 0.19681 0.0
C373 C 0.24493 0.48975 0.25156 0.0
C374 C 0.25702 0.4873 0.29752 0.0
C375 C 0.2478 0.49217 0.35224 0.0
C376 C 0.23688 0.46953 0.39085 0.0
C377 C 0.26821 0.51477 0.38238 0.0
C378 C 0.22821 0.49707 0.32985 0.0
C379 C 0.22707 0.4959 0.27162 0.0
C380 C 0.20947 0.49833 0.24145 0.0
C381 C 0.19217 0.50147 0.27171 0.0
C382 C 0.19258 0.50205 0.33147 0.0
C383 C 0.21122 0.50039 0.36066 0.0
H384 H 0.71283 0.19852 0.51598 0.0
H385 H 0.68523 0.1704 0.34837 0.0
H386 H 0.7178 0.20877 0.30652 0.0
H387 H 0.73299 0.2634 0.48673 0.0
H388 H 0.76003 0.2743 0.5298 0.0
H389 H 0.73278 0.24592 0.54707 0.0
H390 H 0.75761 0.22343 0.54385 0.0
H391 H 0.78487 0.25168 0.52659 0.0
H392 H 0.77472 0.22547 0.48111 0.0
H393 H 0.75475 0.24842 0.2826 0.0
H394 H 0.79499 0.28607 0.27758 0.0
H395 H 0.79936 0.28812 0.46071 0.0
C396 C 0.71338 0.20066 0.47054 0.0
C397 C 0.6965 0.18161 0.43533 0.0
C398 C 0.69805 0.18481 0.37603 0.0
C399 C 0.71635 0.20657 0.35191 0.0
C400 C 0.73295 0.22487 0.38773 0.0
C401 C 0.7317 0.22216 0.44574 0.0
C402 C 0.75306 0.24374 0.47438 0.0
C403 C 0.74418 0.25767 0.51169 0.0
C404 C 0.76847 0.23559 0.50846 0.0
C405 C 0.76684 0.25869 0.42327 0.0
C406 C 0.75469 0.24766 0.37381 0.0
C407 C 0.76434 0.25738 0.32102 0.0
C408 C 0.78724 0.27875 0.31865 0.0
C409 C 0.80033 0.29001 0.36876 0.0
C410 C 0.78973 0.28003 0.4217 0.0
H411 H 0.53389 0.80459 0.6676 0.0
H412 H 0.45588 0.77807 0.65557 0.0
H413 H 0.44736 0.73573 0.66784 0.0
H414 H 0.53382 0.75561 0.59238 0.0
H415 H 0.55642 0.7546 0.63698 0.0
H416 H 0.55649 0.78292 0.62778 0.0
H417 H 0.55372 0.78676 0.73617 0.0
H418 H 0.55389 0.75859 0.74574 0.0
H419 H 0.52936 0.76193 0.77495 0.0
H420 H 0.44741 0.69631 0.678 0.0
H421 H 0.45579 0.66262 0.69377 0.0
H422 H 0.53373 0.71507 0.7015 0.0
C423 C 0.515 0.7899 0.6678 0.0
C424 C 0.49555 0.7946 0.66048 0.0
C425 C 0.47108 0.77489 0.66124 0.0
C426 C 0.46605 0.75078 0.66792 0.0
C427 C 0.48568 0.74676 0.67417 0.0
C428 C 0.50965 0.76577 0.67483 0.0
C429 C 0.52738 0.75653 0.68316 0.0
C430 C 0.54453 0.76279 0.63202 0.0
C431 C 0.54194 0.76655 0.73829 0.0
C432 C 0.50962 0.72933 0.68694 0.0
C433 C 0.48568 0.72407 0.6812 0.0
C434 C 0.46607 0.70019 0.6828 0.0
C435 C 0.47104 0.68118 0.69154 0.0
C436 C 0.49541 0.68624 0.699 0.0
C437 C 0.51491 0.71063 0.69607 0.0
H438 H 0.69467 0.50844 0.92605 0.0
H439 H 0.67001 0.4629 0.77596 0.0
H440 H 0.70381 0.45433 0.78666 0.0
H441 H 0.75486 0.53711 0.89632 0.0
H442 H 0.76587 0.53859 0.96724 0.0
H443 H 0.73695 0.53692 0.95585 0.0
H444 H 0.7152 0.49826 0.01875 0.0
H445 H 0.7442 0.50001 0.03121 0.0
H446 H 0.71882 0.47231 0.00347 0.0
H447 H 0.74426 0.45726 0.80243 0.0
H448 H 0.78685 0.46904 0.82664 0.0
H449 H 0.7849 0.51212 0.9672 0.0
C450 C 0.6958 0.49591 0.89667 0.0
C451 C 0.6797 0.48635 0.85019 0.0
C452 C 0.6821 0.47041 0.812 0.0
C453 C 0.70123 0.46539 0.81777 0.0
C454 C 0.71759 0.47617 0.86236 0.0
C455 C 0.71481 0.49074 0.90181 0.0
C456 C 0.7363 0.50223 0.94216 0.0
C457 C 0.74925 0.53037 0.94021 0.0
C458 C 0.72813 0.49262 0.00248 0.0
C459 C 0.75217 0.4929 0.9174 0.0
C460 C 0.74093 0.47762 0.87187 0.0
C461 C 0.75302 0.46869 0.83887 0.0
C462 C 0.77725 0.47562 0.85267 0.0
C463 C 0.7891 0.49136 0.89899 0.0
C464 C 0.77619 0.49973 0.93215 0.0
H465 H 0.19715 0.71221 0.02579 0.0
H466 H 0.2043 0.718 0.84323 0.0
H467 H 0.24032 0.75927 0.85277 0.0
H468 H 0.21273 0.77361 0.05144 0.0
H469 H 0.22965 0.7768 0.11522 0.0
H470 H 0.20508 0.74718 0.09437 0.0
H471 H 0.23458 0.72986 0.09721 0.0
H472 H 0.25924 0.75941 0.1184 0.0
H473 H 0.26251 0.74459 0.05668 0.0
H474 H 0.27429 0.80057 0.88172 0.0
H475 H 0.30495 0.83865 0.92861 0.0
H476 H 0.27588 0.80576 0.09214 0.0
C477 C 0.20641 0.72206 0.98783 0.0
C478 C 0.19789 0.71189 0.93377 0.0
C479 C 0.21049 0.72541 0.88513 0.0
C480 C 0.23097 0.74888 0.89006 0.0
C481 C 0.23869 0.7585 0.94391 0.0
C482 C 0.22692 0.74549 0.99196 0.0
C483 C 0.23869 0.76024 0.04478 0.0
C484 C 0.22045 0.76472 0.07841 0.0
C485 C 0.24939 0.74778 0.08142 0.0
C486 C 0.25871 0.78367 0.01884 0.0
C487 C 0.25841 0.78228 0.96062 0.0
C488 C 0.27482 0.80185 0.92732 0.0
C489 C 0.29211 0.82341 0.95433 0.0
C490 C 0.29283 0.82517 0.014 0.0
C491 C 0.27587 0.80497 0.04646 0.0
H492 H 0.55269 0.11131 0.63148 0.0
H493 H 0.62733 0.16857 0.66406 0.0
H494 H 0.61286 0.18301 0.74434 0.0
H495 H 0.52038 0.14476 0.68593 0.0
H496 H 0.49646 0.11662 0.71578 0.0
H497 H 0.51147 0.11604 0.65149 0.0
H498 H 0.52203 0.08532 0.69774 0.0
H499 H 0.50759 0.08613 0.76221 0.0
H500 H 0.53912 0.09351 0.76288 0.0
H501 H 0.59144 0.18521 0.83291 0.0
H502 H 0.56552 0.17477 0.91886 0.0
H503 H 0.50615 0.11434 0.8295 0.0
C504 C 0.5659 0.12753 0.65398 0.0
C505 C 0.5911 0.13879 0.64161 0.0
C506 C 0.60787 0.15981 0.67241 0.0
C507 C 0.59979 0.16812 0.71818 0.0
C508 C 0.57492 0.15539 0.73188 0.0
C509 C 0.55819 0.13573 0.69989 0.0
C510 C 0.53337 0.12243 0.7279 0.0
C511 C 0.5143 0.12514 0.69321 0.0
C512 C 0.52508 0.09527 0.73831 0.0
C513 C 0.5391 0.13656 0.78246 0.0
C514 C 0.56286 0.15603 0.78355 0.0
C515 C 0.57267 0.17035 0.83196 0.0
C516 C 0.55792 0.16429 0.88055 0.0
C517 C 0.53402 0.14371 0.8804 0.0
C518 C 0.52442 0.13016 0.83045 0.0
H519 H 0.39968 0.52858 0.82143 0.0
H520 H 0.42933 0.60387 0.87294 0.0
H521 H 0.40271 0.5903 0.95693 0.0
H522 H 0.33519 0.50276 0.89645 0.0
H523 H 0.33611 0.47548 0.91394 0.0
H524 H 0.34865 0.49089 0.84782 0.0
H525 H 0.38975 0.49335 0.87256 0.0
H526 H 0.37775 0.47864 0.93871 0.0
H527 H 0.40524 0.5082 0.93716 0.0
H528 H 0.3853 0.56918 0.04796 0.0
H529 H 0.37691 0.54267 0.13198 0.0
H530 H 0.35926 0.48118 0.02282 0.0
C531 C 0.39935 0.54215 0.84874 0.0
C532 C 0.41644 0.56713 0.84108 0.0
C533 C 0.41607 0.5846 0.87775 0.0
C534 C 0.40101 0.57701 0.92576 0.0
C535 C 0.3861 0.55196 0.93552 0.0
C536 C 0.38459 0.53476 0.89686 0.0
C537 C 0.37144 0.50925 0.9215 0.0
C538 C 0.34635 0.49368 0.89325 0.0
C539 C 0.387 0.49669 0.91728 0.0
C540 C 0.36856 0.51511 0.98183 0.0
C541 C 0.37606 0.53963 0.98887 0.0
C542 C 0.37849 0.54981 0.04264 0.0
C543 C 0.37383 0.53475 0.09012 0.0
C544 C 0.36736 0.51007 0.08301 0.0
C545 C 0.36383 0.50002 0.02857 0.0
H546 H 0.88925 0.48982 0.10125 0.0
H547 H 0.82988 0.43166 0.00696 0.0
H548 H 0.81905 0.4044 0.09063 0.0
H549 H 0.91045 0.4568 0.16017 0.0
H550 H 0.91856 0.472 0.22772 0.0
H551 H 0.9174 0.48807 0.16662 0.0
H552 H 0.8864 0.49728 0.21683 0.0
H553 H 0.88759 0.48128 0.27866 0.0
H554 H 0.85858 0.4725 0.24579 0.0
H555 H 0.82096 0.38173 0.17692 0.0
H556 H 0.83495 0.36616 0.25587 0.0
H557 H 0.8925 0.44019 0.29305 0.0
C558 C 0.87343 0.47157 0.09905 0.0
C559 C 0.86033 0.46263 0.04838 0.0
C560 C 0.8399 0.43873 0.04605 0.0
C561 C 0.83365 0.42324 0.09331 0.0
C562 C 0.8477 0.43235 0.14238 0.0
C563 C 0.86691 0.4562 0.14567 0.0
C564 C 0.88124 0.46096 0.19971 0.0
C565 C 0.90849 0.46995 0.18779 0.0
C566 C 0.87826 0.47907 0.23749 0.0
C567 C 0.86835 0.43561 0.22466 0.0
C568 C 0.84865 0.4194 0.19201 0.0
C569 C 0.83591 0.39438 0.20358 0.0
C570 C 0.844 0.38569 0.24845 0.0
C571 C 0.86486 0.40201 0.28038 0.0
C572 C 0.87644 0.4273 0.26953 0.0
H573 H 0.45381 0.85031 0.43805 0.0
H574 H 0.39583 0.83444 0.55692 0.0
H575 H 0.36622 0.82241 0.47796 0.0
H576 H 0.44083 0.88255 0.35435 0.0
H577 H 0.44851 0.87413 0.28791 0.0
H578 H 0.46238 0.87175 0.35158 0.0
H579 H 0.44653 0.82593 0.3311 0.0
H580 H 0.43256 0.82823 0.26672 0.0
H581 H 0.41436 0.80546 0.31868 0.0
H582 H 0.34583 0.82193 0.38807 0.0
H583 H 0.33817 0.83803 0.3002 0.0
H584 H 0.41058 0.85812 0.24016 0.0
C585 C 0.43455 0.84288 0.44719 0.0
C586 C 0.42668 0.84239 0.50293 0.0
C587 C 0.40181 0.83409 0.51424 0.0
C588 C 0.38495 0.82719 0.46962 0.0
C589 C 0.39347 0.82902 0.41429 0.0
C590 C 0.41782 0.83669 0.40306 0.0
C591 C 0.42389 0.84288 0.3413 0.0
C592 C 0.44511 0.86939 0.33341 0.0
C593 C 0.42966 0.82452 0.31277 0.0
C594 C 0.39983 0.83966 0.3204 0.0
C595 C 0.3821 0.83038 0.36221 0.0
C596 C 0.35933 0.82858 0.35464 0.0
C597 C 0.35508 0.8377 0.30453 0.0
C598 C 0.37382 0.84911 0.26375 0.0
C599 C 0.39592 0.84903 0.27061 0.0
H600 H 0.55926 0.47314 0.59598 0.0
H601 H 0.62089 0.46075 0.60077 0.0
H602 H 0.6047 0.43448 0.5154 0.0
H603 H 0.51365 0.41292 0.54697 0.0
H604 H 0.49877 0.42521 0.50417 0.0
H605 H 0.51446 0.44076 0.5678 0.0
H606 H 0.54066 0.48045 0.51008 0.0
H607 H 0.52534 0.46495 0.44619 0.0
H608 H 0.55824 0.47984 0.45072 0.0
H609 H 0.58162 0.41101 0.42435 0.0
H610 H 0.55403 0.39244 0.34178 0.0
H611 H 0.51009 0.42333 0.40025 0.0
C612 C 0.56936 0.46477 0.5797 0.0
C613 C 0.59139 0.46907 0.60488 0.0
C614 C 0.60387 0.45758 0.58221 0.0
C615 C 0.59487 0.44274 0.53367 0.0
C616 C 0.57339 0.43959 0.50889 0.0
C617 C 0.5608 0.45022 0.53179 0.0
C618 C 0.53878 0.44516 0.49713 0.0
C619 C 0.51501 0.43011 0.53103 0.0
C620 C 0.54091 0.46902 0.47471 0.0
C621 C 0.54099 0.43031 0.45025 0.0
C622 C 0.56082 0.42696 0.45744 0.0
C623 C 0.56604 0.41355 0.41854 0.0
C624 C 0.55036 0.40317 0.3717 0.0
C625 C 0.52998 0.40655 0.36417 0.0
C626 C 0.52557 0.42048 0.40405 0.0
H627 H 0.1449 0.51556 0.67498 0.0
H628 H 0.18465 0.57907 0.56873 0.0
H629 H 0.19825 0.60562 0.65357 0.0
H630 H 0.1181 0.53678 0.75002 0.0
H631 H 0.11823 0.52365 0.81751 0.0
H632 H 0.12026 0.50942 0.75416 0.0
H633 H 0.16064 0.5126 0.78893 0.0
H634 H 0.15861 0.52674 0.85332 0.0
H635 H 0.18583 0.5418 0.81044 0.0
H636 H 0.19705 0.62522 0.74362 0.0
H637 H 0.17969 0.63564 0.82509 0.0
H638 H 0.13909 0.55927 0.87279 0.0
C639 C 0.15772 0.53495 0.67028 0.0
C640 C 0.16427 0.5454 0.61616 0.0
C641 C 0.18012 0.57081 0.61029 0.0
C642 C 0.18786 0.58595 0.65832 0.0
C643 C 0.17967 0.57523 0.71148 0.0
C644 C 0.1652 0.55012 0.71763 0.0
C645 C 0.15429 0.54325 0.77624 0.0
C646 C 0.12608 0.5274 0.77427 0.0
C647 C 0.16552 0.53034 0.80918 0.0
C648 C 0.16262 0.56837 0.80027 0.0
C649 C 0.17823 0.58664 0.76355 0.0
C650 C 0.18548 0.61113 0.77337 0.0
C651 C 0.17553 0.61691 0.81989 0.0
C652 C 0.15804 0.59817 0.85503 0.0
C653 C 0.15264 0.5739 0.84678 0.0
H654 H 0.42872 0.06354 0.0131 0.0
H655 H 0.44432 0.08893 0.18647 0.0
H656 H 0.41817 0.04637 0.21982 0.0
H657 H 0.36425 0.01432 0.03738 0.0
H658 H 0.36675 0.99429 0.987 0.0
H659 H 0.38433 0.02697 0.97736 0.0
H660 H 0.42414 0.02467 0.97294 0.0
H661 H 0.40678 0.9921 0.98314 0.0
H662 H 0.43153 0.01087 0.03056 0.0
H663 H 0.39602 0.00104 0.23328 0.0
H664 H 0.37551 0.95604 0.22698 0.0
H665 H 0.37191 0.96009 0.04479 0.0
C666 C 0.42618 0.06018 0.05811 0.0
C667 C 0.43846 0.0794 0.09737 0.0
C668 C 0.43485 0.07443 0.15585 0.0
C669 C 0.42012 0.05034 0.17507 0.0
C670 C 0.40883 0.03169 0.13514 0.0
C671 C 0.4113 0.03639 0.07787 0.0
C672 C 0.39823 0.01301 0.04367 0.0
C673 C 0.37713 0.0121 0.00933 0.0
C674 C 0.41625 0.01 0.00534 0.0
C675 C 0.3887 0.99428 0.09063 0.0
C676 C 0.39507 0.00548 0.14305 0.0
C677 C 0.39041 0.99207 0.19263 0.0
C678 C 0.37891 0.96659 0.18859 0.0
C679 C 0.37193 0.95477 0.13546 0.0
C680 C 0.37659 0.96875 0.08592 0.0
H681 H 0.4308 0.36854 0.1375 0.0
H682 H 0.39903 0.31569 0.27234 0.0
H683 H 0.36731 0.32717 0.28662 0.0
H684 H 0.42906 0.41303 0.20423 0.0
H685 H 0.4218 0.42661 0.14593 0.0
H686 H 0.43695 0.40947 0.13307 0.0
H687 H 0.40287 0.38057 0.0643 0.0
H688 H 0.38785 0.39814 0.07475 0.0
H689 H 0.37133 0.36558 0.08667 0.0
H690 H 0.34545 0.35087 0.30037 0.0
H691 H 0.33275 0.38211 0.30578 0.0
H692 H 0.37977 0.41991 0.16308 0.0
C693 C 0.41606 0.35824 0.1671 0.0
C694 C 0.41655 0.34058 0.20227 0.0
C695 C 0.39817 0.32856 0.24357 0.0
C696 C 0.38027 0.33515 0.25228 0.0
C697 C 0.38115 0.35384 0.2193 0.0
C698 C 0.39828 0.36486 0.1766 0.0
C699 C 0.39784 0.38684 0.15294 0.0
C700 C 0.42289 0.41036 0.1595 0.0
C701 C 0.38946 0.38251 0.09099 0.0
C702 C 0.37876 0.38723 0.1908 0.0
C703 C 0.36904 0.36791 0.22831 0.0
C704 C 0.35252 0.36576 0.27029 0.0
C705 C 0.34557 0.38367 0.27342 0.0
C706 C 0.35538 0.40355 0.23518 0.0
C707 C 0.37201 0.40508 0.19325 0.0
H708 H 0.06214 0.44001 0.3728 0.0
H709 H 0.06886 0.43533 0.5538 0.0
H710 H 0.02509 0.4037 0.55979 0.0
H711 H 0.00571 0.4379 0.38033 0.0
H712 H 0.99362 0.42083 0.3159 0.0
H713 H 0.02615 0.43999 0.32464 0.0
H714 H 0.03188 0.40284 0.30424 0.0
H715 H -0.00073 0.38351 0.29578 0.0
H716 H 0.01548 0.37547 0.34607 0.0
H717 H 0.9802 0.37418 0.54685 0.0
H718 H 0.93658 0.35339 0.51772 0.0
H719 H 0.9588 0.38019 0.34709 0.0
C720 C 0.05441 0.43187 0.41334 0.0
C721 C 0.0687 0.43966 0.46273 0.0
C722 C 0.05802 0.42935 0.51552 0.0
C723 C 0.0333 0.41129 0.51926 0.0
C724 C 0.01949 0.40407 0.46987 0.0
C725 C 0.02957 0.4143 0.41801 0.0
C726 C 0.01013 0.40571 0.3727 0.0
C727 C 0.00883 0.42739 0.34691 0.0
C728 C 0.01445 0.39101 0.327 0.0
C729 C 0.98758 0.38946 0.40736 0.0
C730 C 0.99338 0.38819 0.46299 0.0
C731 C 0.9754 0.37487 0.5033 0.0
C732 C 0.95076 0.36306 0.48648 0.0
C733 C 0.94456 0.36527 0.43036 0.0
C734 C 0.9632 0.3782 0.39028 0.0
H735 H 0.52782 0.94131 0.55831 0.0
H736 H 0.57578 0.92477 0.65631 0.0
H737 H 0.61054 0.96625 0.6356 0.0
H738 H 0.57105 0.97699 0.45009 0.0
H739 H 0.56001 -0.00174 0.44492 0.0
H740 H 0.53944 0.96704 0.46546 0.0
H741 H 0.52843 0.98172 0.55754 0.0
H742 H 0.54843 0.01289 0.53642 0.0
H743 H 0.55267 0.0024 0.60395 0.0
H744 H 0.63967 0.01057 0.60575 0.0
H745 H 0.65861 0.05452 0.58062 0.0
H746 H 0.59081 0.04028 0.50222 0.0
C747 C 0.54553 0.94631 0.57594 0.0
C748 C 0.54904 0.92984 0.60926 0.0
C749 C 0.57265 0.93719 0.63095 0.0
C750 C 0.59251 0.96059 0.61893 0.0
C751 C 0.58839 0.97622 0.58499 0.0
C752 C 0.56535 0.96936 0.56441 0.0
C753 C 0.56509 0.98969 0.53164 0.0
C754 C 0.55851 0.98256 0.46933 0.0
C755 C 0.54764 -0.00288 0.55905 0.0
C756 C 0.59151 0.00942 0.53796 0.0
C757 C 0.60489 0.0013 0.56793 0.0
C758 C 0.62944 0.01699 0.58169 0.0
C759 C 0.64014 0.0418 0.56677 0.0
C760 C 0.6261 0.05044 0.53914 0.0
C761 C 0.60189 0.03392 0.52284 0.0
H762 H 0.63823 0.58937 0.71697 0.0
H763 H 0.62373 0.55685 0.88345 0.0
H764 H 0.59517 0.57204 0.90201 0.0
H765 H 0.62929 0.64393 0.75546 0.0
H766 H 0.61515 0.64151 0.68782 0.0
H767 H 0.63928 0.63428 0.69433 0.0
H768 H 0.61062 0.59182 0.65005 0.0
H769 H 0.58613 0.5984 0.64524 0.0
H770 H 0.58158 0.57169 0.68308 0.0
H771 H 0.56068 0.57994 0.89153 0.0
H772 H 0.52759 0.58719 0.86049 0.0
H773 H 0.56535 0.61666 0.70196 0.0
C774 C 0.63021 0.58689 0.75861 0.0
C775 C 0.63342 0.57244 0.79928 0.0
C776 C 0.62201 0.56854 0.85256 0.0
C777 C 0.60556 0.57688 0.86312 0.0
C778 C 0.60133 0.58952 0.82037 0.0
C779 C 0.61396 0.59528 0.7698 0.0
C780 C 0.60395 0.60631 0.72822 0.0
C781 C 0.62305 0.63311 0.71575 0.0
C782 C 0.59505 0.59114 0.67347 0.0
C783 C 0.58274 0.60446 0.76192 0.0
C784 C 0.58162 0.5948 0.81501 0.0
C785 C 0.56186 0.58832 0.85095 0.0
C786 C 0.543 0.5922 0.83262 0.0
C787 C 0.54412 0.60265 0.77906 0.0
C788 C 0.56436 0.60909 0.74353 0.0
H789 H 0.04734 0.58527 0.90004 0.0
H790 H 0.0609 0.65628 0.95699 0.0
H791 H 0.01878 0.64513 0.92953 0.0
H792 H 0.00887 0.57903 0.78005 0.0
H793 H 0.98864 0.54674 0.79115 0.0
H794 H 0.02033 0.56083 0.81187 0.0
H795 H 0.00757 0.54494 0.91439 0.0
H796 H 0.97599 0.53025 0.89325 0.0
H797 H 0.98656 0.55147 0.95152 0.0
H798 H 0.97448 0.62547 0.89878 0.0
H799 H 0.93032 0.59659 0.88248 0.0
H800 H 0.94636 0.53902 0.84556 0.0
C801 C 0.0415 0.59849 0.90691 0.0
C802 C 0.05742 0.62164 0.93069 0.0
C803 C 0.04897 0.63837 0.93908 0.0
C804 C 0.02518 0.63232 0.92299 0.0
C805 C 0.01011 0.60951 0.89851 0.0
C806 C 0.01786 0.59274 0.89134 0.0
C807 C -0.00236 0.56878 0.86812 0.0
C808 C 0.00428 0.56355 0.8093 0.0
C809 C 0.99158 0.54763 0.90929 0.0
C810 C 0.97707 0.57443 0.86471 0.0
C811 C 0.9847 0.59819 0.88115 0.0
C812 C 0.96838 0.60695 0.88509 0.0
C813 C 0.94341 0.59057 0.87506 0.0
C814 C 0.93523 0.56584 0.86205 0.0
C815 C 0.95236 0.55802 0.8545 0.0
loop_
_geom_bond_atom_site_label_1
_geom_bond_atom_site_label_2
_geom_bond_distance
_geom_bond_site_symmetry_2
_ccdc_geom_bond_type
Mg0 O1 2.028 . S
Mg0 O7 1.986 . S
Mg0 O9 2.114 . S
Mg0 O10 2.251 . S
Mg0 O13 2.010 . S
O1 Mg0 2.028 . S
O1 C4 1.250 . S
O2 Mg3 2.028 . S
O2 C4 1.248 . S
Mg3 O2 2.028 . S
Mg3 O8 2.032 . S
Mg3 O10 2.079 . S
C4 O1 1.250 . S
C4 O2 1.248 . S
C5 O6 1.264 . S
C5 O13 1.249 . S
O6 C5 1.264 . S
O7 Mg0 1.986 . S
O7 C11 1.246 1_554 S
O8 Mg3 2.032 . S
O8 C11 1.259 1_554 S
O9 Mg0 2.114 . S
O9 C12 1.252 . S
O10 Mg0 2.251 . S
O10 Mg3 2.079 . S
O10 C12 1.273 . S
C11 O7 1.246 1_556 S
C11 O8 1.259 1_556 S
C12 O9 1.252 . S
C12 O10 1.273 . S
O13 Mg0 2.010 . S
O13 C5 1.249 . S
Mg14 O15 2.028 . S
Mg14 O21 1.986 . S
Mg14 O23 2.114 . S
Mg14 O24 2.251 . S
Mg14 O27 2.010 . S
O15 Mg14 2.028 . S
O15 C18 1.250 . S
O16 Mg17 2.028 . S
O16 C18 1.248 . S
Mg17 O16 2.028 . S
Mg17 O22 2.032 . S
Mg17 O24 2.079 . S
C18 O15 1.250 . S
C18 O16 1.248 . S
C19 O20 1.264 . S
C19 O27 1.249 . S
O20 C19 1.264 . S
O21 Mg14 1.986 . S
O21 C25 1.246 . S
O22 Mg17 2.032 . S
O22 C25 1.259 . S
O23 Mg14 2.114 . S
O23 C26 1.252 . S
O24 Mg14 2.251 . S
O24 Mg17 2.079 . S
O24 C26 1.273 . S
C25 O21 1.246 . S
C25 O22 1.259 . S
C26 O23 1.252 . S
C26 O24 1.273 . S
O27 Mg14 2.010 . S
O27 C19 1.249 . S
Mg28 O29 2.028 . S
Mg28 O35 1.986 . S
Mg28 O37 2.114 . S
Mg28 O38 2.251 . S
Mg28 O41 2.010 . S
O29 Mg28 2.028 . S
O29 C32 1.250 . S
O30 Mg31 2.028 . S
O30 C32 1.248 . S
Mg31 O30 2.028 . S
Mg31 O36 2.032 . S
Mg31 O38 2.079 . S
C32 O29 1.250 . S
C32 O30 1.248 . S
C33 O34 1.264 . S
C33 O41 1.249 . S
O34 C33 1.264 . S
O35 Mg28 1.986 . S
O35 C39 1.246 . S
O36 Mg31 2.032 . S
O36 C39 1.259 . S
O37 Mg28 2.114 . S
O37 C40 1.252 . S
O38 Mg28 2.251 . S
O38 Mg31 2.079 . S
O38 C40 1.273 . S
C39 O35 1.246 . S
C39 O36 1.259 . S
C40 O37 1.252 . S
C40 O38 1.273 . S
O41 Mg28 2.010 . S
O41 C33 1.249 . S
Mg42 O43 2.028 . S
Mg42 O49 1.986 . S
Mg42 O51 2.114 . S
Mg42 O52 2.251 . S
Mg42 O55 2.010 . S
O43 Mg42 2.028 . S
O43 C46 1.250 . S
O44 Mg45 2.028 . S
O44 C46 1.248 . S
Mg45 O44 2.028 . S
Mg45 O50 2.032 . S
Mg45 O52 2.079 . S
C46 O43 1.250 . S
C46 O44 1.248 . S
C47 O48 1.264 . S
C47 O55 1.249 . S
O48 C47 1.264 . S
O49 Mg42 1.986 . S
O49 C53 1.246 . S
O50 Mg45 2.032 . S
O50 C53 1.259 . S
O51 Mg42 2.114 . S
O51 C54 1.252 . S
O52 Mg42 2.251 . S
O52 Mg45 2.079 . S
O52 C54 1.273 . S
C53 O49 1.246 . S
C53 O50 1.259 . S
C54 O51 1.252 . S
C54 O52 1.273 . S
O55 Mg42 2.010 . S
O55 C47 1.249 . S
Mg56 O57 2.028 . S
Mg56 O63 1.986 . S
Mg56 O65 2.114 . S
Mg56 O66 2.251 . S
Mg56 O69 2.010 . S
O57 Mg56 2.028 . S
O57 C60 1.250 . S
O58 Mg59 2.028 . S
O58 C60 1.248 . S
Mg59 O58 2.028 . S
Mg59 O64 2.032 . S
Mg59 O66 2.079 . S
C60 O57 1.250 . S
C60 O58 1.248 . S
C61 O62 1.264 . S
C61 O69 1.249 . S
O62 C61 1.264 . S
O63 Mg56 1.986 . S
O63 C67 1.246 . S
O64 Mg59 2.032 . S
O64 C67 1.259 . S
O65 Mg56 2.114 . S
O65 C68 1.252 . S
O66 Mg56 2.251 . S
O66 Mg59 2.079 . S
O66 C68 1.273 . S
C67 O63 1.246 . S
C67 O64 1.259 . S
C68 O65 1.252 . S
C68 O66 1.273 . S
O69 Mg56 2.010 . S
O69 C61 1.249 . S
Mg70 O71 2.028 . S
Mg70 O77 1.986 . S
Mg70 O79 2.114 . S
Mg70 O80 2.251 . S
Mg70 O83 2.010 . S
O71 Mg70 2.028 . S
O71 C74 1.250 . S
O72 Mg73 2.028 . S
O72 C74 1.248 . S
Mg73 O72 2.028 . S
Mg73 O78 2.032 . S
Mg73 O80 2.079 . S
C74 O71 1.250 . S
C74 O72 1.248 . S
C75 O76 1.264 . S
C75 O83 1.249 . S
O76 C75 1.264 . S
O77 Mg70 1.986 . S
O77 C81 1.246 . S
O78 Mg73 2.032 . S
O78 C81 1.259 . S
O79 Mg70 2.114 . S
O79 C82 1.252 . S
O80 Mg70 2.251 . S
O80 Mg73 2.079 . S
O80 C82 1.273 . S
C81 O77 1.246 . S
C81 O78 1.259 . S
C82 O79 1.252 . S
C82 O80 1.273 . S
O83 Mg70 2.010 . S
O83 C75 1.249 . S
Mg84 O85 2.028 . S
Mg84 O91 1.986 . S
Mg84 O93 2.114 . S
Mg84 O94 2.251 . S
Mg84 O97 2.010 . S
O85 Mg84 2.028 . S
O85 C88 1.250 . S
O86 Mg87 2.028 . S
O86 C88 1.248 . S
Mg87 O86 2.028 . S
Mg87 O92 2.032 . S
Mg87 O94 2.079 . S
C88 O85 1.250 . S
C88 O86 1.248 . S
C89 O90 1.264 . S
C89 O97 1.249 . S
O90 C89 1.264 . S
O91 Mg84 1.986 . S
O91 C95 1.242 1_556 S
O92 Mg87 2.032 . S
O92 C95 1.256 1_556 S
O93 Mg84 2.114 . S
O93 C96 1.252 . S
O94 Mg84 2.251 . S
O94 Mg87 2.079 . S
O94 C96 1.273 . S
C95 O91 1.242 1_554 S
C95 O92 1.256 1_554 S
C96 O93 1.252 . S
C96 O94 1.273 . S
O97 Mg84 2.010 . S
O97 C89 1.249 . S
Mg98 O99 2.028 . S
Mg98 O105 1.986 . S
Mg98 O107 2.114 . S
Mg98 O108 2.251 . S
Mg98 O111 2.010 . S
O99 Mg98 2.028 . S
O99 C102 1.250 1_554 S
O100 Mg101 2.028 . S
O100 C102 1.248 1_554 S
Mg101 O100 2.028 . S
Mg101 O106 2.032 . S
Mg101 O108 2.079 . S
C102 O99 1.250 1_556 S
C102 O100 1.248 1_556 S
C103 O104 1.264 . S
C103 O111 1.249 . S
O104 C103 1.264 . S
O105 Mg98 1.986 . S
O105 C109 1.246 . S
O106 Mg101 2.032 . S
O106 C109 1.259 . S
O107 Mg98 2.114 . S
O107 C110 1.252 . S
O108 Mg98 2.251 . S
O108 Mg101 2.079 . S
O108 C110 1.273 . S
C109 O105 1.246 . S
C109 O106 1.259 . S
C110 O107 1.252 . S
C110 O108 1.273 . S
O111 Mg98 2.010 . S
O111 C103 1.249 . S
Mg112 O113 2.028 . S
Mg112 O119 1.986 . S
Mg112 O121 2.114 . S
Mg112 O122 2.251 . S
Mg112 O125 2.010 . S
O113 Mg112 2.028 . S
O113 C116 1.250 . S
O114 Mg115 2.028 . S
O114 C116 1.248 . S
Mg115 O114 2.028 . S
Mg115 O120 2.032 . S
Mg115 O122 2.079 . S
C116 O113 1.250 . S
C116 O114 1.248 . S
C117 O118 1.264 . S
C117 O125 1.249 . S
O118 C117 1.264 . S
O119 Mg112 1.986 . S
O119 C123 1.246 . S
O120 Mg115 2.032 . S
O120 C123 1.259 . S
O121 Mg112 2.114 . S
O121 C124 1.252 . S
O122 Mg112 2.251 . S
O122 Mg115 2.079 . S
O122 C124 1.273 . S
C123 O119 1.246 . S
C123 O120 1.259 . S
C124 O121 1.252 . S
C124 O122 1.273 . S
O125 Mg112 2.010 . S
O125 C117 1.249 . S
Mg126 O127 2.028 . S
Mg126 O133 1.986 . S
Mg126 O135 2.114 . S
Mg126 O136 2.251 . S
Mg126 O139 2.010 . S
O127 Mg126 2.028 . S
O127 C130 1.250 . S
O128 Mg129 2.028 . S
O128 C130 1.248 . S
Mg129 O128 2.028 . S
Mg129 O134 2.032 . S
Mg129 O136 2.079 . S
C130 O127 1.250 . S
C130 O128 1.248 . S
C131 O132 1.264 . S
C131 O139 1.249 . S
O132 C131 1.264 . S
O133 Mg126 1.986 . S
O133 C137 1.246 . S
O134 Mg129 2.032 . S
O134 C137 1.259 . S
O135 Mg126 2.114 . S
O135 C138 1.252 . S
O136 Mg126 2.251 . S
O136 Mg129 2.079 . S
O136 C138 1.273 . S
C137 O133 1.246 . S
C137 O134 1.259 . S
C138 O135 1.252 . S
C138 O136 1.273 . S
O139 Mg126 2.010 . S
O139 C131 1.249 . S
Mg140 O141 2.028 . S
Mg140 O147 1.986 . S
Mg140 O149 2.114 . S
Mg140 O150 2.251 . S
Mg140 O153 2.010 . S
O141 Mg140 2.028 . S
O141 C144 1.250 . S
O142 Mg143 2.028 . S
O142 C144 1.248 . S
Mg143 O142 2.028 . S
Mg143 O148 2.032 . S
Mg143 O150 2.079 . S
C144 O141 1.250 . S
C144 O142 1.248 . S
C145 O146 1.264 . S
C145 O153 1.249 . S
O146 C145 1.264 . S
O147 Mg140 1.986 . S
O147 C151 1.246 . S
O148 Mg143 2.032 . S
O148 C151 1.259 . S
O149 Mg140 2.114 . S
O149 C152 1.252 . S
O150 Mg140 2.251 . S
O150 Mg143 2.079 . S
O150 C152 1.273 . S
C151 O147 1.246 . S
C151 O148 1.259 . S
C152 O149 1.252 . S
C152 O150 1.273 . S
O153 Mg140 2.010 . S
O153 C145 1.249 . S
Mg154 O155 2.028 . S
Mg154 O161 1.986 . S
Mg154 O163 2.114 . S
Mg154 O164 2.251 . S
Mg154 O167 2.010 . S
O155 Mg154 2.028 . S
O155 C158 1.250 . S
O156 Mg157 2.028 . S
O156 C158 1.248 . S
Mg157 O156 2.028 . S
Mg157 O162 2.032 . S
Mg157 O164 2.079 . S
C158 O155 1.250 . S
C158 O156 1.248 . S
C159 O160 1.264 . S
C159 O167 1.249 . S
O160 C159 1.264 . S
O161 Mg154 1.986 . S
O161 C165 1.246 . S
O162 Mg157 2.032 . S
O162 C165 1.259 . S
O163 Mg154 2.114 . S
O163 C166 1.252 . S
O164 Mg154 2.251 . S
O164 Mg157 2.079 . S
O164 C166 1.273 . S
C165 O161 1.246 . S
C165 O162 1.259 . S
C166 O163 1.252 . S
C166 O164 1.273 . S
O167 Mg154 2.010 . S
O167 C159 1.249 . S
H168 C180 0.930 . S
H169 C182 0.930 . S
H170 C183 0.930 . S
H171 C187 0.959 . S
H172 C187 0.959 . S
H173 C187 0.961 . S
H174 C188 0.960 . S
H175 C188 0.961 . S
H176 C188 0.959 . S
H177 C191 0.929 . S
H178 C192 0.931 . S
H179 C194 0.930 . S
C180 H168 0.930 . S
C180 C181 1.399 . S
C180 C185 1.399 . S
C181 C180 1.399 . S
C181 C182 1.376 . S
C182 H169 0.930 . S
C182 C181 1.376 . S
C182 C183 1.388 . S
C183 H170 0.930 . S
C183 C182 1.388 . S
C183 C184 1.390 . S
C184 C183 1.390 . S
C184 C185 1.394 . S
C184 C190 1.465 . S
C185 C180 1.399 . S
C185 C184 1.394 . S
C185 C186 1.516 . S
C186 C185 1.516 . S
C186 C187 1.502 . S
C186 C188 1.561 . S
C186 C189 1.526 . S
C187 H171 0.959 . S
C187 H172 0.959 . S
C187 H173 0.961 . S
C187 C186 1.502 . S
C188 H174 0.960 . S
C188 H175 0.961 . S
C188 H176 0.959 . S
C188 C186 1.561 . S
C189 C186 1.526 . S
C189 C190 1.396 . S
C189 C194 1.390 . S
C190 C184 1.465 . S
C190 C189 1.396 . S
C190 C191 1.399 . S
C191 H177 0.929 . S
C191 C190 1.399 . S
C191 C192 1.385 . S
C192 H178 0.931 . S
C192 C191 1.385 . S
C192 C193 1.389 . S
C193 C192 1.389 . S
C193 C194 1.387 . S
C194 H179 0.930 . S
C194 C189 1.390 . S
C194 C193 1.387 . S
H195 C207 0.930 . S
H196 C209 0.930 . S
H197 C210 0.930 . S
H198 C214 0.959 . S
H199 C214 0.959 . S
H200 C214 0.961 . S
H201 C215 0.960 . S
H202 C215 0.961 . S
H203 C215 0.959 . S
H204 C218 0.929 . S
H205 C219 0.931 . S
H206 C221 0.930 . S
C207 H195 0.930 . S
C207 C208 1.399 . S
C207 C212 1.399 . S
C208 C207 1.399 . S
C208 C209 1.376 . S
C209 H196 0.930 . S
C209 C208 1.376 . S
C209 C210 1.388 . S
C210 H197 0.930 . S
C210 C209 1.388 . S
C210 C211 1.390 . S
C211 C210 1.390 . S
C211 C212 1.394 . S
C211 C217 1.465 . S
C212 C207 1.399 . S
C212 C211 1.394 . S
C212 C213 1.516 . S
C213 C212 1.516 . S
C213 C214 1.502 . S
C213 C215 1.561 . S
C213 C216 1.526 . S
C214 H198 0.959 . S
C214 H199 0.959 . S
C214 H200 0.961 . S
C214 C213 1.502 . S
C215 H201 0.960 . S
C215 H202 0.961 . S
C215 H203 0.959 . S
C215 C213 1.561 . S
C216 C213 1.526 . S
C216 C217 1.396 . S
C216 C221 1.390 . S
C217 C211 1.465 . S
C217 C216 1.396 . S
C217 C218 1.399 . S
C218 H204 0.929 . S
C218 C217 1.399 . S
C218 C219 1.385 . S
C219 H205 0.931 . S
C219 C218 1.385 . S
C219 C220 1.389 . S
C220 C219 1.389 . S
C220 C221 1.387 . S
C221 H206 0.930 . S
C221 C216 1.390 . S
C221 C220 1.387 . S
H222 C234 0.930 . S
H223 C236 0.930 . S
H224 C237 0.930 . S
H225 C241 0.959 . S
H226 C241 0.959 . S
H227 C241 0.961 . S
H228 C242 0.960 . S
H229 C242 0.961 . S
H230 C242 0.959 . S
H231 C245 0.929 . S
H232 C246 0.931 . S
H233 C248 0.930 . S
C234 H222 0.930 . S
C234 C235 1.399 . S
C234 C239 1.399 . S
C235 C234 1.399 . S
C235 C236 1.376 . S
C236 H223 0.930 . S
C236 C235 1.376 . S
C236 C237 1.388 . S
C237 H224 0.930 . S
C237 C236 1.388 . S
C237 C238 1.390 . S
C238 C237 1.390 . S
C238 C239 1.394 . S
C238 C244 1.465 . S
C239 C234 1.399 . S
C239 C238 1.394 . S
C239 C240 1.516 . S
C240 C239 1.516 . S
C240 C241 1.502 . S
C240 C242 1.561 . S
C240 C243 1.526 . S
C241 H225 0.959 . S
C241 H226 0.959 . S
C241 H227 0.961 . S
C241 C240 1.502 . S
C242 H228 0.960 . S
C242 H229 0.961 . S
C242 H230 0.959 . S
C242 C240 1.561 . S
C243 C240 1.526 . S
C243 C244 1.396 . S
C243 C248 1.390 . S
C244 C238 1.465 . S
C244 C243 1.396 . S
C244 C245 1.399 . S
C245 H231 0.929 . S
C245 C244 1.399 . S
C245 C246 1.385 . S
C246 H232 0.931 . S
C246 C245 1.385 . S
C246 C247 1.389 . S
C247 C246 1.389 . S
C247 C248 1.387 . S
C248 H233 0.930 . S
C248 C243 1.390 . S
C248 C247 1.387 . S
H249 C261 0.930 . S
H250 C263 0.930 . S
H251 C264 0.930 . S
H252 C268 0.959 . S
H253 C268 0.959 . S
H254 C268 0.961 . S
H255 C269 0.960 . S
H256 C269 0.961 . S
H257 C269 0.959 . S
H258 C272 0.929 . S
H259 C273 0.931 . S
H260 C275 0.930 . S
C261 H249 0.930 . S
C261 C262 1.399 . S
C261 C266 1.399 . S
C262 C261 1.399 . S
C262 C263 1.376 . S
C263 H250 0.930 . S
C263 C262 1.376 . S
C263 C264 1.388 . S
C264 H251 0.930 . S
C264 C263 1.388 . S
C264 C265 1.390 . S
C265 C264 1.390 . S
C265 C266 1.394 . S
C265 C271 1.465 . S
C266 C261 1.399 . S
C266 C265 1.394 . S
C266 C267 1.516 . S
C267 C266 1.516 . S
C267 C268 1.502 . S
C267 C269 1.561 . S
C267 C270 1.526 . S
C268 H252 0.959 . S
C268 H253 0.959 . S
C268 H254 0.961 . S
C268 C267 1.502 . S
C269 H255 0.960 . S
C269 H256 0.961 . S
C269 H257 0.959 . S
C269 C267 1.561 . S
C270 C267 1.526 . S
C270 C271 1.396 . S
C270 C275 1.390 . S
C271 C265 1.465 . S
C271 C270 1.396 . S
C271 C272 1.399 . S
C272 H258 0.929 . S
C272 C271 1.399 . S
C272 C273 1.385 . S
C273 H259 0.931 . S
C273 C272 1.385 . S
C273 C274 1.389 . S
C274 C273 1.389 . S
C274 C275 1.387 . S
C275 H260 0.930 . S
C275 C270 1.390 . S
C275 C274 1.387 . S
H276 C288 0.930 . S
H277 C290 0.930 . S
H278 C291 0.930 . S
H279 C295 0.959 . S
H280 C295 0.959 . S
H281 C295 0.961 . S
H282 C296 0.960 . S
H283 C296 0.961 . S
H284 C296 0.959 . S
H285 C299 0.929 . S
H286 C300 0.931 . S
H287 C302 0.930 . S
C288 H276 0.930 . S
C288 C289 1.399 . S
C288 C293 1.399 . S
C289 C288 1.399 . S
C289 C290 1.376 . S
C290 H277 0.930 . S
C290 C289 1.376 . S
C290 C291 1.388 . S
C291 H278 0.930 . S
C291 C290 1.388 . S
C291 C292 1.390 . S
C292 C291 1.390 . S
C292 C293 1.394 . S
C292 C298 1.465 1_554 S
C293 C288 1.399 . S
C293 C292 1.394 . S
C293 C294 1.516 1_554 S
C294 C293 1.516 1_556 S
C294 C295 1.502 . S
C294 C296 1.561 . S
C294 C297 1.526 . S
C295 H279 0.959 . S
C295 H280 0.959 . S
C295 H281 0.961 . S
C295 C294 1.502 . S
C296 H282 0.960 . S
C296 H283 0.961 . S
C296 H284 0.959 . S
C296 C294 1.561 . S
C297 C294 1.526 . S
C297 C298 1.396 . S
C297 C302 1.390 . S
C298 C292 1.465 1_556 S
C298 C297 1.396 . S
C298 C299 1.399 . S
C299 H285 0.929 . S
C299 C298 1.399 . S
C299 C300 1.385 . S
C300 H286 0.931 . S
C300 C299 1.385 . S
C300 C301 1.389 . S
C301 C300 1.389 . S
C301 C302 1.387 . S
C302 H287 0.930 . S
C302 C297 1.390 . S
C302 C301 1.387 . S
H303 C315 0.930 . S
H304 C317 0.930 . S
H305 C318 0.930 . S
H306 C322 0.959 . S
H307 C322 0.959 . S
H308 C322 0.961 . S
H309 C323 0.960 . S
H310 C323 0.961 . S
H311 C323 0.959 . S
H312 C326 0.929 . S
H313 C327 0.931 . S
H314 C329 0.930 . S
C315 H303 0.930 . S
C315 C316 1.399 . S
C315 C320 1.399 . S
C316 C315 1.399 . S
C316 C317 1.376 . S
C317 H304 0.930 . S
C317 C316 1.376 . S
C317 C318 1.388 . S
C318 H305 0.930 . S
C318 C317 1.388 . S
C318 C319 1.390 . S
C319 C318 1.390 . S
C319 C320 1.394 . S
C319 C325 1.465 . S
C320 C315 1.399 . S
C320 C319 1.394 . S
C320 C321 1.516 . S
C321 C320 1.516 . S
C321 C322 1.502 . S
C321 C323 1.561 . S
C321 C324 1.526 . S
C322 H306 0.959 . S
C322 H307 0.959 . S
C322 H308 0.961 . S
C322 C321 1.502 . S
C323 H309 0.960 . S
C323 H310 0.961 . S
C323 H311 0.959 . S
C323 C321 1.561 . S
C324 C321 1.526 . S
C324 C325 1.396 . S
C324 C329 1.390 . S
C325 C319 1.465 . S
C325 C324 1.396 . S
C325 C326 1.399 . S
C326 H312 0.929 . S
C326 C325 1.399 . S
C326 C327 1.385 . S
C327 H313 0.931 . S
C327 C326 1.385 . S
C327 C328 1.389 . S
C328 C327 1.389 . S
C328 C329 1.387 . S
C329 H314 0.930 . S
C329 C324 1.390 . S
C329 C328 1.387 . S
H330 C342 0.930 . S
H331 C344 0.930 . S
H332 C345 0.930 . S
H333 C349 0.959 . S
H334 C349 0.959 . S
H335 C349 0.961 . S
H336 C350 0.960 . S
H337 C350 0.961 . S
H338 C350 0.959 . S
H339 C353 0.929 . S
H340 C354 0.931 . S
H341 C356 0.930 . S
C342 H330 0.930 . S
C342 C343 1.399 . S
C342 C347 1.399 . S
C343 C342 1.399 . S
C343 C344 1.376 . S
C344 H331 0.930 . S
C344 C343 1.376 . S
C344 C345 1.388 . S
C345 H332 0.930 . S
C345 C344 1.388 . S
C345 C346 1.390 . S
C346 C345 1.390 . S
C346 C347 1.394 . S
C346 C352 1.465 . S
C347 C342 1.399 . S
C347 C346 1.394 . S
C347 C348 1.516 . S
C348 C347 1.516 . S
C348 C349 1.502 . S
C348 C350 1.561 . S
C348 C351 1.526 . S
C349 H333 0.959 . S
C349 H334 0.959 . S
C349 H335 0.961 . S
C349 C348 1.502 . S
C350 H336 0.960 . S
C350 H337 0.961 . S
C350 H338 0.959 . S
C350 C348 1.561 . S
C351 C348 1.526 . S
C351 C352 1.396 . S
C351 C356 1.390 . S
C352 C346 1.465 . S
C352 C351 1.396 . S
C352 C353 1.399 . S
C353 H339 0.929 . S
C353 C352 1.399 . S
C353 C354 1.385 . S
C354 H340 0.931 . S
C354 C353 1.385 . S
C354 C355 1.389 . S
C355 C354 1.389 . S
C355 C356 1.387 . S
C356 H341 0.930 . S
C356 C351 1.390 . S
C356 C355 1.387 . S
H357 C369 0.930 . S
H358 C371 0.930 . S
H359 C372 0.930 . S
H360 C376 0.959 . S
H361 C376 0.959 . S
H362 C376 0.961 . S
H363 C377 0.960 . S
H364 C377 0.961 . S
H365 C377 0.959 . S
H366 C380 0.929 . S
H367 C381 0.931 . S
H368 C383 0.930 . S
C369 H357 0.930 . S
C369 C370 1.399 . S
C369 C374 1.399 . S
C370 C369 1.399 . S
C370 C371 1.376 . S
C371 H358 0.930 . S
C371 C370 1.376 . S
C371 C372 1.388 . S
C372 H359 0.930 . S
C372 C371 1.388 . S
C372 C373 1.390 . S
C373 C372 1.390 . S
C373 C374 1.394 . S
C373 C379 1.465 . S
C374 C369 1.399 . S
C374 C373 1.394 . S
C374 C375 1.516 . S
C375 C374 1.516 . S
C375 C376 1.502 . S
C375 C377 1.561 . S
C375 C378 1.526 . S
C376 H360 0.959 . S
C376 H361 0.959 . S
C376 H362 0.961 . S
C376 C375 1.502 . S
C377 H363 0.960 . S
C377 H364 0.961 . S
C377 H365 0.959 . S
C377 C375 1.561 . S
C378 C375 1.526 . S
C378 C379 1.396 . S
C378 C383 1.390 . S
C379 C373 1.465 . S
C379 C378 1.396 . S
C379 C380 1.399 . S
C380 H366 0.929 . S
C380 C379 1.399 . S
C380 C381 1.385 . S
C381 H367 0.931 . S
C381 C380 1.385 . S
C381 C382 1.389 . S
C382 C381 1.389 . S
C382 C383 1.387 . S
C383 H368 0.930 . S
C383 C378 1.390 . S
C383 C382 1.387 . S
H384 C396 0.930 . S
H385 C398 0.930 . S
H386 C399 0.930 . S
H387 C403 0.959 . S
H388 C403 0.959 . S
H389 C403 0.961 . S
H390 C404 0.960 . S
H391 C404 0.961 . S
H392 C404 0.959 . S
H393 C407 0.929 . S
H394 C408 0.931 . S
H395 C410 0.930 . S
C396 H384 0.930 . S
C396 C397 1.399 . S
C396 C401 1.399 . S
C397 C396 1.399 . S
C397 C398 1.376 . S
C398 H385 0.930 . S
C398 C397 1.376 . S
C398 C399 1.388 . S
C399 H386 0.930 . S
C399 C398 1.388 . S
C399 C400 1.390 . S
C400 C399 1.390 . S
C400 C401 1.394 . S
C400 C406 1.465 . S
C401 C396 1.399 . S
C401 C400 1.394 . S
C401 C402 1.516 . S
C402 C401 1.516 . S
C402 C403 1.502 . S
C402 C404 1.561 . S
C402 C405 1.526 . S
C403 H387 0.959 . S
C403 H388 0.959 . S
C403 H389 0.961 . S
C403 C402 1.502 . S
C404 H390 0.960 . S
C404 H391 0.961 . S
C404 H392 0.959 . S
C404 C402 1.561 . S
C405 C402 1.526 . S
C405 C406 1.396 . S
C405 C410 1.390 . S
C406 C400 1.465 . S
C406 C405 1.396 . S
C406 C407 1.399 . S
C407 H393 0.929 . S
C407 C406 1.399 . S
C407 C408 1.385 . S
C408 H394 0.931 . S
C408 C407 1.385 . S
C408 C409 1.389 . S
C409 C408 1.389 . S
C409 C410 1.387 . S
C410 H395 0.930 . S
C410 C405 1.390 . S
C410 C409 1.387 . S
H411 C423 0.930 . S
H412 C425 0.930 . S
H413 C426 0.930 . S
H414 C430 0.959 . S
H415 C430 0.959 . S
H416 C430 0.961 . S
H417 C431 0.960 . S
H418 C431 0.961 . S
H419 C431 0.959 . S
H420 C434 0.929 . S
H421 C435 0.931 . S
H422 C437 0.930 . S
C423 H411 0.930 . S
C423 C424 1.399 . S
C423 C428 1.399 . S
C424 C423 1.399 . S
C424 C425 1.376 . S
C425 H412 0.930 . S
C425 C424 1.376 . S
C425 C426 1.388 . S
C426 H413 0.930 . S
C426 C425 1.388 . S
C426 C427 1.390 . S
C427 C426 1.390 . S
C427 C428 1.394 . S
C427 C433 1.465 . S
C428 C423 1.399 . S
C428 C427 1.394 . S
C428 C429 1.516 . S
C429 C428 1.516 . S
C429 C430 1.502 . S
C429 C431 1.561 . S
C429 C432 1.526 . S
C430 H414 0.959 . S
C430 H415 0.959 . S
C430 H416 0.961 . S
C430 C429 1.502 . S
C431 H417 0.960 . S
C431 H418 0.961 . S
C431 H419 0.959 . S
C431 C429 1.561 . S
C432 C429 1.526 . S
C432 C433 1.396 . S
C432 C437 1.390 . S
C433 C427 1.465 . S
C433 C432 1.396 . S
C433 C434 1.399 . S
C434 H420 0.929 . S
C434 C433 1.399 . S
C434 C435 1.385 . S
C435 H421 0.931 . S
C435 C434 1.385 . S
C435 C436 1.389 . S
C436 C435 1.389 . S
C436 C437 1.387 . S
C437 H422 0.930 . S
C437 C432 1.390 . S
C437 C436 1.387 . S
H438 C450 0.930 . S
H439 C452 0.930 . S
H440 C453 0.930 . S
H441 C457 0.959 . S
H442 C457 0.959 . S
H443 C457 0.961 . S
H444 C458 0.960 . S
H445 C458 0.961 . S
H446 C458 0.959 . S
H447 C461 0.929 . S
H448 C462 0.931 . S
H449 C464 0.930 . S
C450 H438 0.930 . S
C450 C451 1.399 . S
C450 C455 1.399 . S
C451 C450 1.399 . S
C451 C452 1.376 . S
C452 H439 0.930 . S
C452 C451 1.376 . S
C452 C453 1.388 . S
C453 H440 0.930 . S
C453 C452 1.388 . S
C453 C454 1.390 . S
C454 C453 1.390 . S
C454 C455 1.394 . S
C454 C460 1.465 . S
C455 C450 1.399 . S
C455 C454 1.394 . S
C455 C456 1.516 . S
C456 C455 1.516 . S
C456 C457 1.502 . S
C456 C458 1.561 . S
C456 C459 1.526 . S
C457 H441 0.959 . S
C457 H442 0.959 . S
C457 H443 0.961 . S
C457 C456 1.502 . S
C458 H444 0.960 . S
C458 H445 0.961 . S
C458 H446 0.959 . S
C458 C456 1.561 . S
C459 C456 1.526 . S
C459 C460 1.396 . S
C459 C464 1.390 . S
C460 C454 1.465 . S
C460 C459 1.396 . S
C460 C461 1.399 . S
C461 H447 0.929 . S
C461 C460 1.399 . S
C461 C462 1.385 . S
C462 H448 0.931 . S
C462 C461 1.385 . S
C462 C463 1.389 . S
C463 C462 1.389 . S
C463 C464 1.387 . S
C464 H449 0.930 . S
C464 C459 1.390 . S
C464 C463 1.387 . S
H465 C477 0.918 1_554 S
H466 C479 0.930 . S
H467 C480 0.930 . S
H468 C484 0.959 . S
H469 C484 0.959 . S
H470 C484 0.961 . S
H471 C485 0.960 . S
H472 C485 0.961 . S
H473 C485 0.959 . S
H474 C488 0.929 . S
H475 C489 0.931 . S
H476 C491 0.930 . S
C477 H465 0.918 1_556 S
C477 C478 1.412 . S
C477 C482 1.398 1_556 S
C478 C477 1.412 . S
C478 C479 1.376 . S
C479 H466 0.930 . S
C479 C478 1.376 . S
C479 C480 1.388 . S
C480 H467 0.930 . S
C480 C479 1.388 . S
C480 C481 1.390 . S
C481 C480 1.390 . S
C481 C482 1.394 1_556 S
C481 C487 1.465 . S
C482 C477 1.398 1_554 S
C482 C481 1.394 1_554 S
C482 C483 1.516 . S
C483 C482 1.516 . S
C483 C484 1.502 . S
C483 C485 1.561 . S
C483 C486 1.526 . S
C484 H468 0.959 . S
C484 H469 0.959 . S
C484 H470 0.961 . S
C484 C483 1.502 . S
C485 H471 0.960 . S
C485 H472 0.961 . S
C485 H473 0.959 . S
C485 C483 1.561 . S
C486 C483 1.526 . S
C486 C487 1.396 1_554 S
C486 C491 1.390 . S
C487 C481 1.465 . S
C487 C486 1.396 1_556 S
C487 C488 1.399 . S
C488 H474 0.929 . S
C488 C487 1.399 . S
C488 C489 1.385 . S
C489 H475 0.931 . S
C489 C488 1.385 . S
C489 C490 1.389 1_556 S
C490 C489 1.389 1_554 S
C490 C491 1.387 . S
C491 H476 0.930 . S
C491 C486 1.390 . S
C491 C490 1.387 . S
H492 C504 0.930 . S
H493 C506 0.930 . S
H494 C507 0.930 . S
H495 C511 0.959 . S
H496 C511 0.959 . S
H497 C511 0.961 . S
H498 C512 0.960 . S
H499 C512 0.961 . S
H500 C512 0.959 . S
H501 C515 0.929 . S
H502 C516 0.931 . S
H503 C518 0.930 . S
C504 H492 0.930 . S
C504 C505 1.399 . S
C504 C509 1.399 . S
C505 C504 1.399 . S
C505 C506 1.376 . S
C506 H493 0.930 . S
C506 C505 1.376 . S
C506 C507 1.388 . S
C507 H494 0.930 . S
C507 C506 1.388 . S
C507 C508 1.390 . S
C508 C507 1.390 . S
C508 C509 1.394 . S
C508 C514 1.465 . S
C509 C504 1.399 . S
C509 C508 1.394 . S
C509 C510 1.516 . S
C510 C509 1.516 . S
C510 C511 1.502 . S
C510 C512 1.561 . S
C510 C513 1.526 . S
C511 H495 0.959 . S
C511 H496 0.959 . S
C511 H497 0.961 . S
C511 C510 1.502 . S
C512 H498 0.960 . S
C512 H499 0.961 . S
C512 H500 0.959 . S
C512 C510 1.561 . S
C513 C510 1.526 . S
C513 C514 1.396 . S
C513 C518 1.390 . S
C514 C508 1.465 . S
C514 C513 1.396 . S
C514 C515 1.399 . S
C515 H501 0.929 . S
C515 C514 1.399 . S
C515 C516 1.385 . S
C516 H502 0.931 . S
C516 C515 1.385 . S
C516 C517 1.389 . S
C517 C516 1.389 . S
C517 C518 1.387 . S
C518 H503 0.930 . S
C518 C513 1.390 . S
C518 C517 1.387 . S
H519 C531 0.930 . S
H520 C533 0.930 . S
H521 C534 0.930 1_554 S
H522 C538 0.959 . S
H523 C538 0.959 . S
H524 C538 0.961 . S
H525 C539 0.960 . S
H526 C539 0.961 . S
H527 C539 0.959 . S
H528 C542 0.929 . S
H529 C543 0.931 . S
H530 C545 0.930 . S
C531 H519 0.930 . S
C531 C532 1.399 . S
C531 C536 1.399 . S
C532 C531 1.399 . S
C532 C533 1.376 . S
C533 H520 0.930 . S
C533 C532 1.376 . S
C533 C534 1.388 . S
C534 H521 0.930 1_556 S
C534 C533 1.388 . S
C534 C535 1.390 . S
C535 C534 1.390 . S
C535 C536 1.394 . S
C535 C541 1.465 1_556 S
C536 C531 1.399 . S
C536 C535 1.394 . S
C536 C537 1.516 . S
C537 C536 1.516 . S
C537 C538 1.502 . S
C537 C539 1.561 . S
C537 C540 1.526 1_556 S
C538 H522 0.959 . S
C538 H523 0.959 . S
C538 H524 0.961 . S
C538 C537 1.502 . S
C539 H525 0.960 . S
C539 H526 0.961 . S
C539 H527 0.959 . S
C539 C537 1.561 . S
C540 C537 1.526 1_554 S
C540 C541 1.396 . S
C540 C545 1.390 . S
C541 C535 1.465 1_554 S
C541 C540 1.396 . S
C541 C542 1.399 . S
C542 H528 0.929 . S
C542 C541 1.399 . S
C542 C543 1.385 . S
C543 H529 0.931 . S
C543 C542 1.385 . S
C543 C544 1.389 . S
C544 C543 1.389 . S
C544 C545 1.387 . S
C545 H530 0.930 . S
C545 C540 1.390 . S
C545 C544 1.387 . S
H546 C558 0.930 . S
H547 C560 0.930 . S
H548 C561 0.930 . S
H549 C565 0.959 . S
H550 C565 0.959 . S
H551 C565 0.961 . S
H552 C566 0.960 . S
H553 C566 0.961 . S
H554 C566 0.959 . S
H555 C569 0.929 . S
H556 C570 0.931 . S
H557 C572 0.930 . S
C558 H546 0.930 . S
C558 C559 1.399 . S
C558 C563 1.399 . S
C559 C558 1.399 . S
C559 C560 1.376 . S
C560 H547 0.930 . S
C560 C559 1.376 . S
C560 C561 1.388 . S
C561 H548 0.930 . S
C561 C560 1.388 . S
C561 C562 1.390 . S
C562 C561 1.390 . S
C562 C563 1.394 . S
C562 C568 1.465 . S
C563 C558 1.399 . S
C563 C562 1.394 . S
C563 C564 1.516 . S
C564 C563 1.516 . S
C564 C565 1.502 . S
C564 C566 1.561 . S
C564 C567 1.526 . S
C565 H549 0.959 . S
C565 H550 0.959 . S
C565 H551 0.961 . S
C565 C564 1.502 . S
C566 H552 0.960 . S
C566 H553 0.961 . S
C566 H554 0.959 . S
C566 C564 1.561 . S
C567 C564 1.526 . S
C567 C568 1.396 . S
C567 C572 1.390 . S
C568 C562 1.465 . S
C568 C567 1.396 . S
C568 C569 1.399 . S
C569 H555 0.929 . S
C569 C568 1.399 . S
C569 C570 1.385 . S
C570 H556 0.931 . S
C570 C569 1.385 . S
C570 C571 1.389 . S
C571 C570 1.389 . S
C571 C572 1.387 . S
C572 H557 0.930 . S
C572 C567 1.390 . S
C572 C571 1.387 . S
H573 C585 0.930 . S
H574 C587 0.930 . S
H575 C588 0.930 . S
H576 C592 0.959 . S
H577 C592 0.959 . S
H578 C592 0.961 . S
H579 C593 0.960 . S
H580 C593 0.961 . S
H581 C593 0.959 . S
H582 C596 0.929 . S
H583 C597 0.931 . S
H584 C599 0.930 . S
C585 H573 0.930 . S
C585 C586 1.399 . S
C585 C590 1.399 . S
C586 C585 1.399 . S
C586 C587 1.376 . S
C587 H574 0.930 . S
C587 C586 1.376 . S
C587 C588 1.388 . S
C588 H575 0.930 . S
C588 C587 1.388 . S
C588 C589 1.390 . S
C589 C588 1.390 . S
C589 C590 1.394 . S
C589 C595 1.465 . S
C590 C585 1.399 . S
C590 C589 1.394 . S
C590 C591 1.516 . S
C591 C590 1.516 . S
C591 C592 1.502 . S
C591 C593 1.561 . S
C591 C594 1.526 . S
C592 H576 0.959 . S
C592 H577 0.959 . S
C592 H578 0.961 . S
C592 C591 1.502 . S
C593 H579 0.960 . S
C593 H580 0.961 . S
C593 H581 0.959 . S
C593 C591 1.561 . S
C594 C591 1.526 . S
C594 C595 1.396 . S
C594 C599 1.390 . S
C595 C589 1.465 . S
C595 C594 1.396 . S
C595 C596 1.399 . S
C596 H582 0.929 . S
C596 C595 1.399 . S
C596 C597 1.385 . S
C597 H583 0.931 . S
C597 C596 1.385 . S
C597 C598 1.389 . S
C598 C597 1.389 . S
C598 C599 1.387 . S
C599 H584 0.930 . S
C599 C594 1.390 . S
C599 C598 1.387 . S
H600 C612 0.930 . S
H601 C614 0.930 . S
H602 C615 0.930 . S
H603 C619 0.959 . S
H604 C619 0.959 . S
H605 C619 0.961 . S
H606 C620 0.960 . S
H607 C620 0.961 . S
H608 C620 0.959 . S
H609 C623 0.929 . S
H610 C624 0.931 . S
H611 C626 0.930 . S
C612 H600 0.930 . S
C612 C613 1.399 . S
C612 C617 1.399 . S
C613 C612 1.399 . S
C613 C614 1.376 . S
C614 H601 0.930 . S
C614 C613 1.376 . S
C614 C615 1.388 . S
C615 H602 0.930 . S
C615 C614 1.388 . S
C615 C616 1.390 . S
C616 C615 1.390 . S
C616 C617 1.394 . S
C616 C622 1.465 . S
C617 C612 1.399 . S
C617 C616 1.394 . S
C617 C618 1.516 . S
C618 C617 1.516 . S
C618 C619 1.502 . S
C618 C620 1.561 . S
C618 C621 1.526 . S
C619 H603 0.959 . S
C619 H604 0.959 . S
C619 H605 0.961 . S
C619 C618 1.502 . S
C620 H606 0.960 . S
C620 H607 0.961 . S
C620 H608 0.959 . S
C620 C618 1.561 . S
C621 C618 1.526 . S
C621 C622 1.396 . S
C621 C626 1.390 . S
C622 C616 1.465 . S
C622 C621 1.396 . S
C622 C623 1.399 . S
C623 H609 0.929 . S
C623 C622 1.399 . S
C623 C624 1.385 . S
C624 H610 0.931 . S
C624 C623 1.385 . S
C624 C625 1.389 . S
C625 C624 1.389 . S
C625 C626 1.387 . S
C626 H611 0.930 . S
C626 C621 1.390 . S
C626 C625 1.387 . S
H627 C639 0.930 . S
H628 C641 0.930 . S
H629 C642 0.930 . S
H630 C646 0.959 . S
H631 C646 0.959 . S
H632 C646 0.961 . S
H633 C647 0.960 . S
H634 C647 0.961 . S
H635 C647 0.959 . S
H636 C650 0.929 . S
H637 C651 0.931 . S
H638 C653 0.930 . S
C639 H627 0.930 . S
C639 C640 1.399 . S
C639 C644 1.399 . S
C640 C639 1.399 . S
C640 C641 1.376 . S
C641 H628 0.930 . S
C641 C640 1.376 . S
C641 C642 1.388 . S
C642 H629 0.930 . S
C642 C641 1.388 . S
C642 C643 1.390 . S
C643 C642 1.390 . S
C643 C644 1.394 . S
C643 C649 1.465 . S
C644 C639 1.399 . S
C644 C643 1.394 . S
C644 C645 1.516 . S
C645 C644 1.516 . S
C645 C646 1.502 . S
C645 C647 1.561 . S
C645 C648 1.526 . S
C646 H630 0.959 . S
C646 H631 0.959 . S
C646 H632 0.961 . S
C646 C645 1.502 . S
C647 H633 0.960 . S
C647 H634 0.961 . S
C647 H635 0.959 . S
C647 C645 1.561 . S
C648 C645 1.526 . S
C648 C649 1.396 . S
C648 C653 1.390 . S
C649 C643 1.465 . S
C649 C648 1.396 . S
C649 C650 1.399 . S
C650 H636 0.929 . S
C650 C649 1.399 . S
C650 C651 1.385 . S
C651 H637 0.931 . S
C651 C650 1.385 . S
C651 C652 1.389 . S
C652 C651 1.389 . S
C652 C653 1.387 . S
C653 H638 0.930 . S
C653 C648 1.390 . S
C653 C652 1.387 . S
H654 C666 0.930 . S
H655 C668 0.930 . S
H656 C669 0.930 . S
H657 C673 0.965 1_565 S
H658 C673 0.959 1_566 S
H659 C673 0.961 1_556 S
H660 C674 0.960 . S
H661 C674 0.961 1_565 S
H662 C674 0.959 . S
H663 C677 0.929 . S
H664 C678 0.931 . S
H665 C680 0.930 . S
C666 H654 0.930 . S
C666 C667 1.399 . S
C666 C671 1.399 . S
C667 C666 1.399 . S
C667 C668 1.376 . S
C668 H655 0.930 . S
C668 C667 1.376 . S
C668 C669 1.388 . S
C669 H656 0.930 . S
C669 C668 1.388 . S
C669 C670 1.390 . S
C670 C669 1.390 . S
C670 C671 1.394 . S
C670 C676 1.465 1_545 S
C671 C666 1.399 . S
C671 C670 1.394 . S
C671 C672 1.516 . S
C672 C671 1.516 . S
C672 C673 1.502 . S
C672 C674 1.561 1_554 S
C672 C675 1.526 1_545 S
C673 H657 0.965 1_545 S
C673 H658 0.959 1_544 S
C673 H659 0.961 1_554 S
C673 C672 1.502 . S
C674 H660 0.960 . S
C674 H661 0.961 1_545 S
C674 H662 0.959 . S
C674 C672 1.561 1_556 S
C675 C672 1.526 1_565 S
C675 C676 1.396 . S
C675 C680 1.390 . S
C676 C670 1.465 1_565 S
C676 C675 1.396 . S
C676 C677 1.399 . S
C677 H663 0.929 . S
C677 C676 1.399 . S
C677 C678 1.385 . S
C678 H664 0.931 . S
C678 C677 1.385 . S
C678 C679 1.389 . S
C679 C678 1.389 . S
C679 C680 1.387 . S
C680 H665 0.930 . S
C680 C675 1.390 . S
C680 C679 1.387 . S
H681 C693 0.930 . S
H682 C695 0.930 . S
H683 C696 0.930 . S
H684 C700 0.959 . S
H685 C700 0.959 . S
H686 C700 0.961 . S
H687 C701 0.960 . S
H688 C701 0.961 . S
H689 C701 0.959 . S
H690 C704 0.929 . S
H691 C705 0.931 . S
H692 C707 0.930 . S
C693 H681 0.930 . S
C693 C694 1.399 . S
C693 C698 1.399 . S
C694 C693 1.399 . S
C694 C695 1.376 . S
C695 H682 0.930 . S
C695 C694 1.376 . S
C695 C696 1.388 . S
C696 H683 0.930 . S
C696 C695 1.388 . S
C696 C697 1.390 . S
C697 C696 1.390 . S
C697 C698 1.394 . S
C697 C703 1.465 . S
C698 C693 1.399 . S
C698 C697 1.394 . S
C698 C699 1.516 . S
C699 C698 1.516 . S
C699 C700 1.502 . S
C699 C701 1.561 . S
C699 C702 1.526 . S
C700 H684 0.959 . S
C700 H685 0.959 . S
C700 H686 0.961 . S
C700 C699 1.502 . S
C701 H687 0.960 . S
C701 H688 0.961 . S
C701 H689 0.959 . S
C701 C699 1.561 . S
C702 C699 1.526 . S
C702 C703 1.396 . S
C702 C707 1.390 . S
C703 C697 1.465 . S
C703 C702 1.396 . S
C703 C704 1.399 . S
C704 H690 0.929 . S
C704 C703 1.399 . S
C704 C705 1.385 . S
C705 H691 0.931 . S
C705 C704 1.385 . S
C705 C706 1.389 . S
C706 C705 1.389 . S
C706 C707 1.387 . S
C707 H692 0.930 . S
C707 C702 1.390 . S
C707 C706 1.387 . S
H708 C720 0.930 . S
H709 C722 0.930 . S
H710 C723 0.930 . S
H711 C727 0.959 . S
H712 C727 0.959 . S
H713 C727 0.961 1_455 S
H714 C728 0.960 1_455 S
H715 C728 0.961 . S
H716 C728 0.959 . S
H717 C731 0.929 . S
H718 C732 0.931 . S
H719 C734 0.930 . S
C720 H708 0.930 . S
C720 C721 1.399 . S
C720 C725 1.399 . S
C721 C720 1.399 . S
C721 C722 1.376 . S
C722 H709 0.930 . S
C722 C721 1.376 . S
C722 C723 1.388 . S
C723 H710 0.930 . S
C723 C722 1.388 . S
C723 C724 1.390 . S
C724 C723 1.390 . S
C724 C725 1.394 . S
C724 C730 1.465 1_455 S
C725 C720 1.399 . S
C725 C724 1.394 . S
C725 C726 1.516 1_455 S
C726 C725 1.516 1_655 S
C726 C727 1.502 . S
C726 C728 1.561 . S
C726 C729 1.526 . S
C727 H711 0.959 . S
C727 H712 0.959 . S
C727 H713 0.961 1_655 S
C727 C726 1.502 . S
C728 H714 0.960 1_655 S
C728 H715 0.961 . S
C728 H716 0.959 . S
C728 C726 1.561 . S
C729 C726 1.526 . S
C729 C730 1.396 . S
C729 C734 1.390 . S
C730 C724 1.465 1_655 S
C730 C729 1.396 . S
C730 C731 1.399 . S
C731 H717 0.929 . S
C731 C730 1.399 . S
C731 C732 1.385 . S
C732 H718 0.931 . S
C732 C731 1.385 . S
C732 C733 1.389 . S
C733 C732 1.389 . S
C733 C734 1.387 . S
C734 H719 0.930 . S
C734 C729 1.390 . S
C734 C733 1.387 . S
H735 C747 0.930 . S
H736 C749 0.930 . S
H737 C750 0.930 . S
H738 C754 0.958 . S
H739 C754 0.959 1_545 S
H740 C754 0.961 . S
H741 C755 0.960 . S
H742 C755 0.961 1_545 S
H743 C755 0.959 . S
H744 C758 0.929 . S
H745 C759 0.931 . S
H746 C761 0.930 . S
C747 H735 0.930 . S
C747 C748 1.399 . S
C747 C752 1.399 . S
C748 C747 1.399 . S
C748 C749 1.376 . S
C749 H736 0.930 . S
C749 C748 1.376 . S
C749 C750 1.388 . S
C750 H737 0.930 . S
C750 C749 1.388 . S
C750 C751 1.390 . S
C751 C750 1.390 . S
C751 C752 1.394 . S
C751 C757 1.465 1_565 S
C752 C747 1.399 . S
C752 C751 1.394 . S
C752 C753 1.516 . S
C753 C752 1.516 . S
C753 C754 1.502 . S
C753 C755 1.561 . S
C753 C756 1.526 1_565 S
C754 H738 0.958 . S
C754 H739 0.959 1_565 S
C754 H740 0.961 . S
C754 C753 1.502 . S
C755 H741 0.960 . S
C755 H742 0.961 1_565 S
C755 H743 0.959 . S
C755 C753 1.561 . S
C756 C753 1.526 1_545 S
C756 C757 1.396 . S
C756 C761 1.390 . S
C757 C751 1.465 1_545 S
C757 C756 1.396 . S
C757 C758 1.399 . S
C758 H744 0.929 . S
C758 C757 1.399 . S
C758 C759 1.385 . S
C759 H745 0.931 . S
C759 C758 1.385 . S
C759 C760 1.389 . S
C760 C759 1.389 . S
C760 C761 1.387 . S
C761 H746 0.930 . S
C761 C756 1.390 . S
C761 C760 1.387 . S
H762 C774 0.930 . S
H763 C776 0.930 . S
H764 C777 0.930 . S
H765 C781 0.959 . S
H766 C781 0.959 . S
H767 C781 0.961 . S
H768 C782 0.960 . S
H769 C782 0.961 . S
H770 C782 0.959 . S
H771 C785 0.929 . S
H772 C786 0.931 . S
H773 C788 0.930 . S
C774 H762 0.930 . S
C774 C775 1.399 . S
C774 C779 1.399 . S
C775 C774 1.399 . S
C775 C776 1.376 . S
C776 H763 0.930 . S
C776 C775 1.376 . S
C776 C777 1.388 . S
C777 H764 0.930 . S
C777 C776 1.388 . S
C777 C778 1.390 . S
C778 C777 1.390 . S
C778 C779 1.394 . S
C778 C784 1.465 . S
C779 C774 1.399 . S
C779 C778 1.394 . S
C779 C780 1.516 . S
C780 C779 1.516 . S
C780 C781 1.502 . S
C780 C782 1.561 . S
C780 C783 1.526 . S
C781 H765 0.959 . S
C781 H766 0.959 . S
C781 H767 0.961 . S
C781 C780 1.502 . S
C782 H768 0.960 . S
C782 H769 0.961 . S
C782 H770 0.959 . S
C782 C780 1.561 . S
C783 C780 1.526 . S
C783 C784 1.396 . S
C783 C788 1.390 . S
C784 C778 1.465 . S
C784 C783 1.396 . S
C784 C785 1.399 . S
C785 H771 0.929 . S
C785 C784 1.399 . S
C785 C786 1.385 . S
C786 H772 0.931 . S
C786 C785 1.385 . S
C786 C787 1.389 . S
C787 C786 1.389 . S
C787 C788 1.387 . S
C788 H773 0.930 . S
C788 C783 1.390 . S
C788 C787 1.387 . S
H789 C801 0.930 . S
H790 C803 0.930 1_554 S
H791 C804 0.930 1_554 S
H792 C808 0.973 . S
H793 C808 0.959 1_655 S
H794 C808 0.961 . S
H795 C809 0.960 . S
H796 C809 0.961 1_655 S
H797 C809 0.945 . S
H798 C812 0.929 1_554 S
H799 C813 0.931 . S
H800 C815 0.930 . S
C801 H789 0.930 . S
C801 C802 1.399 . S
C801 C806 1.399 . S
C802 C801 1.399 . S
C802 C803 1.376 . S
C803 H790 0.930 1_556 S
C803 C802 1.376 . S
C803 C804 1.388 . S
C804 H791 0.930 1_556 S
C804 C803 1.388 . S
C804 C805 1.390 . S
C805 C804 1.390 . S
C805 C806 1.394 . S
C805 C811 1.465 1_455 S
C806 C801 1.399 . S
C806 C805 1.394 . S
C806 C807 1.516 . S
C807 C806 1.516 . S
C807 C808 1.502 . S
C807 C809 1.561 . S
C807 C810 1.526 1_455 S
C808 H792 0.973 . S
C808 H793 0.959 1_455 S
C808 H794 0.961 . S
C808 C807 1.502 . S
C809 H795 0.960 . S
C809 H796 0.961 1_455 S
C809 H797 0.945 . S
C809 C807 1.561 . S
C810 C807 1.526 1_655 S
C810 C811 1.396 . S
C810 C815 1.390 . S
C811 C805 1.465 1_655 S
C811 C810 1.396 . S
C811 C812 1.399 . S
C812 H798 0.929 1_556 S
C812 C811 1.399 . S
C812 C813 1.385 . S
C813 H799 0.931 . S
C813 C812 1.385 . S
C813 C814 1.389 . S
C814 C813 1.389 . S
C814 C815 1.387 . S
C815 H800 0.930 . S
C815 C810 1.390 . S
C815 C814 1.387 . S
C181 C4 1.599 . S
C193 C144 1.627 . S
C208 C18 1.561 . S
C220 C158 1.605 . S
C235 C88 1.576 . S
C247 C32 1.623 . S
C262 C46 1.602 . S
C274 C102 1.626 . S
C289 C116 1.562 . S
C301 C60 1.586 . S
C316 C130 1.577 . S
C328 C74 1.568 1_554 S
C343 C117 1.038 . S
C355 C5 1.144 . S
C370 C19 0.997 . S
C382 C131 1.047 . S
C397 C145 1.061 . S
C409 C33 0.993 . S
C424 C47 1.114 . S
C436 C159 1.127 . S
C451 C61 1.146 . S
C463 C89 1.073 . S
C478 C75 1.006 . S
C490 C103 1.128 . S
C505 C151 1.398 . S
C517 C11 1.379 . S
C532 C165 1.381 . S
C544 C25 1.345 . S
C559 C95 1.401 . S
C571 C39 1.395 . S
C586 C53 1.349 . S
C598 C109 1.384 . S
C613 C67 1.330 . S
C625 C123 1.320 . S
C640 C137 1.366 . S
C652 C81 1.394 . S
C667 C12 1.089 . S
C679 C110 1.085 . S
C694 C124 1.116 . S
C706 C26 1.122 . S
C721 C138 1.127 . S
C733 C40 1.132 . S
C748 C54 1.097 . S
C760 C152 1.092 . S
C775 C68 1.093 . S
C787 C166 1.088 . S
C802 C82 1.100 . S
C814 C96 1.095 . S
