# Generated by pormake.
# Topology umq, (4)-cn, num edge types: 1
# Building blocks:
#     Node 0, Type 0, BuildingBlock: NAHDIM_clean_sbu_0, # of connection points: 4
#     Node 1, Type 0, BuildingBlock: NAHDIM_clean_sbu_0, # of connection points: 4
#     Node 2, Type 0, BuildingBlock: NAHDIM_clean_sbu_0, # of connection points: 4
#     Node 3, Type 0, BuildingBlock: NAHDIM_clean_sbu_0, # of connection points: 4
#     Node 4, Type 0, BuildingBlock: NAHDIM_clean_sbu_0, # of connection points: 4
#     Node 5, Type 0, BuildingBlock: NAHDIM_clean_sbu_0, # of connection points: 4
#     Node 6, Type 0, BuildingBlock: NAHDIM_clean_sbu_0, # of connection points: 4
#     Node 7, Type 0, BuildingBlock: NAHDIM_clean_sbu_0, # of connection points: 4
#     Node 8, Type 0, BuildingBlock: NAHDIM_clean_sbu_0, # of connection points: 4
#     Node 9, Type 0, BuildingBlock: NAHDIM_clean_sbu_0, # of connection points: 4
#     Node 10, Type 0, BuildingBlock: NAHDIM_clean_sbu_0, # of connection points: 4
#     Node 11, Type 0, BuildingBlock: NAHDIM_clean_sbu_0, # of connection points: 4
#     Node 12, Type 0, BuildingBlock: NAHDIM_clean_sbu_0, # of connection points: 4
#     Node 13, Type 0, BuildingBlock: NAHDIM_clean_sbu_0, # of connection points: 4
#     Node 14, Type 0, BuildingBlock: NAHDIM_clean_sbu_0, # of connection points: 4
#     Node 15, Type 0, BuildingBlock: NAHDIM_clean_sbu_0, # of connection points: 4
#     Node 16, Type 0, BuildingBlock: NAHDIM_clean_sbu_0, # of connection points: 4
#     Node 17, Type 0, BuildingBlock: NAHDIM_clean_sbu_0, # of connection points: 4
#     Node 18, Type 0, BuildingBlock: NAHDIM_clean_sbu_0, # of connection points: 4
#     Node 19, Type 0, BuildingBlock: NAHDIM_clean_sbu_0, # of connection points: 4
#     Node 20, Type 0, BuildingBlock: NAHDIM_clean_sbu_0, # of connection points: 4
#     Node 21, Type 0, BuildingBlock: NAHDIM_clean_sbu_0, # of connection points: 4
#     Node 22, Type 0, BuildingBlock: NAHDIM_clean_sbu_0, # of connection points: 4
#     Node 23, Type 0, BuildingBlock: NAHDIM_clean_sbu_0, # of connection points: 4
#     Node 24, Type 0, BuildingBlock: NAHDIM_clean_sbu_0, # of connection points: 4
#     Node 25, Type 0, BuildingBlock: NAHDIM_clean_sbu_0, # of connection points: 4
#     Node 26, Type 0, BuildingBlock: NAHDIM_clean_sbu_0, # of connection points: 4
#     Node 27, Type 0, BuildingBlock: NAHDIM_clean_sbu_0, # of connection points: 4
#     Node 28, Type 0, BuildingBlock: NAHDIM_clean_sbu_0, # of connection points: 4
#     Node 29, Type 0, BuildingBlock: NAHDIM_clean_sbu_0, # of connection points: 4
#     Node 30, Type 0, BuildingBlock: NAHDIM_clean_sbu_0, # of connection points: 4
#     Node 31, Type 0, BuildingBlock: NAHDIM_clean_sbu_0, # of connection points: 4
#     Edge 32, Type (0, 0), BuildingBlock: XUDNAN_clean_linker_2, # of connection points: 2
#     Edge 33, Type (0, 0), BuildingBlock: XUDNAN_clean_linker_2, # of connection points: 2
#     Edge 34, Type (0, 0), BuildingBlock: XUDNAN_clean_linker_2, # of connection points: 2
#     Edge 35, Type (0, 0), BuildingBlock: XUDNAN_clean_linker_2, # of connection points: 2
#     Edge 36, Type (0, 0), BuildingBlock: XUDNAN_clean_linker_2, # of connection points: 2
#     Edge 37, Type (0, 0), BuildingBlock: XUDNAN_clean_linker_2, # of connection points: 2
#     Edge 38, Type (0, 0), BuildingBlock: XUDNAN_clean_linker_2, # of connection points: 2
#     Edge 39, Type (0, 0), BuildingBlock: XUDNAN_clean_linker_2, # of connection points: 2
#     Edge 40, Type (0, 0), BuildingBlock: XUDNAN_clean_linker_2, # of connection points: 2
#     Edge 41, Type (0, 0), BuildingBlock: XUDNAN_clean_linker_2, # of connection points: 2
#     Edge 42, Type (0, 0), BuildingBlock: XUDNAN_clean_linker_2, # of connection points: 2
#     Edge 43, Type (0, 0), BuildingBlock: XUDNAN_clean_linker_2, # of connection points: 2
#     Edge 44, Type (0, 0), BuildingBlock: XUDNAN_clean_linker_2, # of connection points: 2
#     Edge 45, Type (0, 0), BuildingBlock: XUDNAN_clean_linker_2, # of connection points: 2
#     Edge 46, Type (0, 0), BuildingBlock: XUDNAN_clean_linker_2, # of connection points: 2
#     Edge 47, Type (0, 0), BuildingBlock: XUDNAN_clean_linker_2, # of connection points: 2
#     Edge 48, Type (0, 0), BuildingBlock: XUDNAN_clean_linker_2, # of connection points: 2
#     Edge 49, Type (0, 0), BuildingBlock: XUDNAN_clean_linker_2, # of connection points: 2
#     Edge 50, Type (0, 0), BuildingBlock: XUDNAN_clean_linker_2, # of connection points: 2
#     Edge 51, Type (0, 0), BuildingBlock: XUDNAN_clean_linker_2, # of connection points: 2
#     Edge 52, Type (0, 0), BuildingBlock: XUDNAN_clean_linker_2, # of connection points: 2
#     Edge 53, Type (0, 0), BuildingBlock: XUDNAN_clean_linker_2, # of connection points: 2
#     Edge 54, Type (0, 0), BuildingBlock: XUDNAN_clean_linker_2, # of connection points: 2
#     Edge 55, Type (0, 0), BuildingBlock: XUDNAN_clean_linker_2, # of connection points: 2
#     Edge 56, Type (0, 0), BuildingBlock: XUDNAN_clean_linker_2, # of connection points: 2
#     Edge 57, Type (0, 0), BuildingBlock: XUDNAN_clean_linker_2, # of connection points: 2
#     Edge 58, Type (0, 0), BuildingBlock: XUDNAN_clean_linker_2, # of connection points: 2
#     Edge 59, Type (0, 0), BuildingBlock: XUDNAN_clean_linker_2, # of connection points: 2
#     Edge 60, Type (0, 0), BuildingBlock: XUDNAN_clean_linker_2, # of connection points: 2
#     Edge 61, Type (0, 0), BuildingBlock: XUDNAN_clean_linker_2, # of connection points: 2
#     Edge 62, Type (0, 0), BuildingBlock: XUDNAN_clean_linker_2, # of connection points: 2
#     Edge 63, Type (0, 0), BuildingBlock: XUDNAN_clean_linker_2, # of connection points: 2
#     Edge 64, Type (0, 0), BuildingBlock: XUDNAN_clean_linker_2, # of connection points: 2
#     Edge 65, Type (0, 0), BuildingBlock: XUDNAN_clean_linker_2, # of connection points: 2
#     Edge 66, Type (0, 0), BuildingBlock: XUDNAN_clean_linker_2, # of connection points: 2
#     Edge 67, Type (0, 0), BuildingBlock: XUDNAN_clean_linker_2, # of connection points: 2
#     Edge 68, Type (0, 0), BuildingBlock: XUDNAN_clean_linker_2, # of connection points: 2
#     Edge 69, Type (0, 0), BuildingBlock: XUDNAN_clean_linker_2, # of connection points: 2
#     Edge 70, Type (0, 0), BuildingBlock: XUDNAN_clean_linker_2, # of connection points: 2
#     Edge 71, Type (0, 0), BuildingBlock: XUDNAN_clean_linker_2, # of connection points: 2
#     Edge 72, Type (0, 0), BuildingBlock: XUDNAN_clean_linker_2, # of connection points: 2
#     Edge 73, Type (0, 0), BuildingBlock: XUDNAN_clean_linker_2, # of connection points: 2
#     Edge 74, Type (0, 0), BuildingBlock: XUDNAN_clean_linker_2, # of connection points: 2
#     Edge 75, Type (0, 0), BuildingBlock: XUDNAN_clean_linker_2, # of connection points: 2
#     Edge 76, Type (0, 0), BuildingBlock: XUDNAN_clean_linker_2, # of connection points: 2
#     Edge 77, Type (0, 0), BuildingBlock: XUDNAN_clean_linker_2, # of connection points: 2
#     Edge 78, Type (0, 0), BuildingBlock: XUDNAN_clean_linker_2, # of connection points: 2
#     Edge 79, Type (0, 0), BuildingBlock: XUDNAN_clean_linker_2, # of connection points: 2
#     Edge 80, Type (0, 0), BuildingBlock: XUDNAN_clean_linker_2, # of connection points: 2
#     Edge 81, Type (0, 0), BuildingBlock: XUDNAN_clean_linker_2, # of connection points: 2
#     Edge 82, Type (0, 0), BuildingBlock: XUDNAN_clean_linker_2, # of connection points: 2
#     Edge 83, Type (0, 0), BuildingBlock: XUDNAN_clean_linker_2, # of connection points: 2
#     Edge 84, Type (0, 0), BuildingBlock: XUDNAN_clean_linker_2, # of connection points: 2
#     Edge 85, Type (0, 0), BuildingBlock: XUDNAN_clean_linker_2, # of connection points: 2
#     Edge 86, Type (0, 0), BuildingBlock: XUDNAN_clean_linker_2, # of connection points: 2
#     Edge 87, Type (0, 0), BuildingBlock: XUDNAN_clean_linker_2, # of connection points: 2
#     Edge 88, Type (0, 0), BuildingBlock: XUDNAN_clean_linker_2, # of connection points: 2
#     Edge 89, Type (0, 0), BuildingBlock: XUDNAN_clean_linker_2, # of connection points: 2
#     Edge 90, Type (0, 0), BuildingBlock: XUDNAN_clean_linker_2, # of connection points: 2
#     Edge 91, Type (0, 0), BuildingBlock: XUDNAN_clean_linker_2, # of connection points: 2
#     Edge 92, Type (0, 0), BuildingBlock: XUDNAN_clean_linker_2, # of connection points: 2
#     Edge 93, Type (0, 0), BuildingBlock: XUDNAN_clean_linker_2, # of connection points: 2
#     Edge 94, Type (0, 0), BuildingBlock: XUDNAN_clean_linker_2, # of connection points: 2
#     Edge 95, Type (0, 0), BuildingBlock: XUDNAN_clean_linker_2, # of connection points: 2
# Relax obj value: 0.091
# Max RMSD: 0.104
# Mean RMSD: 0.104
data_MOF--net-umq--node1-NAHDIM_clean_sbu_0--edge1-XUDNAN_clean_linker_2
_symmetry_space_group_name_H-M    P1
_symmetry_Int_Tables_number       1
_symmetry_cell_setting            triclinic
loop_
_symmetry_equiv_pos_as_xyz
'x, y, z'
_cell_length_a     67.252209
_cell_length_b     67.250487
_cell_length_c     43.233448
_cell_angle_alpha  90.015355
_cell_angle_beta   89.998515
_cell_angle_gamma 89.983002
loop_
_atom_site_label
_atom_site_type_symbol
_atom_site_fract_x
_atom_site_fract_y
_atom_site_fract_z
_atom_type_partial_charge
C0 C 0.23153 0.05663 0.17149 0.0
O1 O 0.21766 0.06346 0.15295 0.0
O2 O 0.24035 0.09316 0.113 0.0
Zn3 Zn 0.24753 0.09473 0.15822 0.0
O4 O 0.22863 0.11309 0.17987 0.0
C5 C 0.28889 0.10271 0.14371 0.0
O6 O 0.28645 0.08871 0.12285 0.0
O7 O 0.24645 0.06755 0.17759 0.0
C8 C 0.22831 0.13106 0.17084 0.0
O9 O 0.24001 0.13647 0.14799 0.0
C10 C 0.22295 0.09673 0.1029 0.0
O11 O 0.20876 0.10135 0.12251 0.0
O12 O 0.27464 0.10693 0.16183 0.0
C13 C 0.94418 0.21181 0.19635 0.0
O14 O 0.93524 0.19658 0.18337 0.0
O15 O 0.91867 0.2284 0.12317 0.0
Zn16 Zn 0.91158 0.23043 0.16826 0.0
O17 O 0.89439 0.20739 0.18093 0.0
C18 C 0.88047 0.25806 0.16093 0.0
O19 O 0.87434 0.24352 0.14299 0.0
O20 O 0.93672 0.22906 0.19317 0.0
C21 C 0.88449 0.20783 0.20593 0.0
O22 O 0.8849 0.22395 0.22309 0.0
C23 C 0.91027 0.21623 0.10486 0.0
O24 O 0.89643 0.20428 0.11554 0.0
O25 O 0.89683 0.25607 0.17531 0.0
C26 C 0.75551 0.9467 0.18808 0.0
O27 O 0.7745 0.94221 0.18655 0.0
O28 O 0.75893 0.90918 0.11725 0.0
Zn29 Zn 0.75164 0.9076 0.16235 0.0
O30 O 0.77466 0.89816 0.18814 0.0
C31 C 0.72523 0.87473 0.14838 0.0
O32 O 0.73548 0.87392 0.12255 0.0
O33 O 0.74279 0.93426 0.17823 0.0
C34 C 0.78074 0.88031 0.18623 0.0
O35 O 0.77244 0.86832 0.16601 0.0
C36 C 0.77638 0.913 0.10765 0.0
O37 O 0.79054 0.91655 0.12782 0.0
O38 O 0.72932 0.88805 0.16825 0.0
C39 C 0.04998 0.76026 0.18675 0.0
O40 O 0.06006 0.77369 0.17122 0.0
O41 O 0.08577 0.74954 0.13336 0.0
Zn42 Zn 0.08696 0.74387 0.1792 0.0
O43 O 0.10178 0.76417 0.20421 0.0
C44 C 0.09562 0.70157 0.1728 0.0
O45 O 0.07933 0.70108 0.15603 0.0
O46 O 0.05867 0.7442 0.19438 0.0
C47 C 0.11997 0.76864 0.20056 0.0
O48 O 0.1301 0.76071 0.1777 0.0
C49 C 0.09297 0.76387 0.11782 0.0
O50 O 0.10362 0.77758 0.1317 0.0
O51 O 0.10085 0.71779 0.18545 0.0
C52 C 0.23639 0.93238 0.29042 0.0
O53 O 0.25102 0.93288 0.31055 0.0
O54 O 0.22533 0.90376 0.36255 0.0
Zn55 Zn 0.22825 0.89433 0.31852 0.0
O56 O 0.20837 0.87343 0.30642 0.0
C57 C 0.26273 0.87294 0.33649 0.0
O58 O 0.2524 0.87176 0.36222 0.0
O59 O 0.22496 0.91736 0.28973 0.0
C60 C 0.20296 0.85886 0.32311 0.0
O61 O 0.21006 0.85693 0.35125 0.0
C62 C 0.2103 0.90233 0.38023 0.0
O63 O 0.19373 0.89448 0.36978 0.0
O64 O 0.25549 0.88241 0.31368 0.0
C65 C 0.07331 0.21747 0.30138 0.0
O66 O 0.08484 0.2032 0.3118 0.0
O67 O 0.10957 0.22962 0.362 0.0
Zn68 Zn 0.10721 0.23957 0.31829 0.0
O69 O 0.12649 0.22548 0.29056 0.0
C70 C 0.10736 0.28239 0.33261 0.0
O71 O 0.09203 0.27882 0.3506 0.0
O72 O 0.07961 0.23527 0.30199 0.0
C73 C 0.13405 0.20849 0.29566 0.0
O74 O 0.1291 0.19869 0.32079 0.0
C75 C 0.09486 0.23082 0.38036 0.0
O76 O 0.07797 0.23814 0.37018 0.0
O77 O 0.11503 0.26828 0.31715 0.0
C78 C 0.73935 0.07077 0.30515 0.0
O79 O 0.7235 0.08114 0.31254 0.0
O80 O 0.76369 0.09846 0.38076 0.0
Zn81 Zn 0.76089 0.10311 0.33501 0.0
O82 O 0.78547 0.11626 0.31805 0.0
C83 C 0.72345 0.12497 0.34377 0.0
O84 O 0.72218 0.11552 0.37028 0.0
O85 O 0.75642 0.07712 0.31293 0.0
C86 C 0.79696 0.10768 0.29888 0.0
O87 O 0.79348 0.08914 0.29106 0.0
C88 C 0.76588 0.11288 0.39946 0.0
O89 O 0.76653 0.1311 0.38856 0.0
O90 O 0.73817 0.1217 0.32606 0.0
C91 C 0.91772 0.77579 0.27947 0.0
O92 O 0.90514 0.79058 0.27636 0.0
O93 O 0.89761 0.77134 0.37032 0.0
Zn94 Zn 0.88975 0.76474 0.3266 0.0
O95 O 0.87123 0.78571 0.3097 0.0
C96 C 0.86153 0.7379 0.34907 0.0
O97 O 0.85924 0.75308 0.36788 0.0
O98 O 0.91425 0.76245 0.2996 0.0
C99 C 0.8706 0.80353 0.31948 0.0
O100 O 0.88215 0.80887 0.34252 0.0
C101 C 0.913 0.78104 0.37823 0.0
O102 O 0.92512 0.78775 0.35681 0.0
O103 O 0.87455 0.73901 0.32782 0.0
C104 C 0.75324 0.93825 0.80487 0.0
O105 O 0.77252 0.9367 0.80911 0.0
O106 O 0.76016 0.89997 0.87126 0.0
Zn107 Zn 0.75349 0.89763 0.82593 0.0
O108 O 0.77784 0.89091 0.80101 0.0
C109 C 0.72635 0.86499 0.83976 0.0
O110 O 0.73356 0.86653 0.8679 0.0
O111 O 0.74217 0.92345 0.81085 0.0
C112 C 0.78579 0.87385 0.80347 0.0
O113 O 0.7781 0.86093 0.82287 0.0
C114 C 0.77726 0.90529 0.88065 0.0
O115 O 0.79118 0.90929 0.86026 0.0
O116 O 0.73278 0.8765 0.81871 0.0
C117 C 0.06855 0.74842 0.77687 0.0
O118 O 0.0854 0.73957 0.77006 0.0
O119 O 0.08289 0.76595 0.87276 0.0
Zn120 Zn 0.09147 0.76199 0.82859 0.0
O121 O 0.10814 0.78479 0.81298 0.0
C122 C 0.12308 0.73506 0.8435 0.0
O123 O 0.12853 0.74996 0.86122 0.0
O124 O 0.06747 0.75898 0.80121 0.0
C125 C 0.12121 0.7815 0.79234 0.0
O126 O 0.12362 0.7633 0.78197 0.0
C127 C 0.09235 0.77649 0.89224 0.0
O128 O 0.10798 0.78661 0.88309 0.0
O129 O 0.10747 0.73674 0.82717 0.0
C130 C 0.2306 0.06993 0.78913 0.0
O131 O 0.21654 0.08306 0.79447 0.0
O132 O 0.2432 0.09452 0.86739 0.0
Zn133 Zn 0.25193 0.09859 0.82331 0.0
O134 O 0.235 0.11974 0.80372 0.0
C135 C 0.2875 0.11666 0.84598 0.0
O136 O 0.27641 0.11818 0.87088 0.0
O137 O 0.248 0.07318 0.79947 0.0
C138 C 0.23218 0.13672 0.8158 0.0
O139 O 0.24093 0.14109 0.84211 0.0
C140 C 0.22531 0.09666 0.87626 0.0
O141 O 0.21153 0.10109 0.85586 0.0
O142 O 0.28045 0.10798 0.82226 0.0
C143 C 0.9399 0.20684 0.78331 0.0
O144 O 0.9298 0.19158 0.79394 0.0
O145 O 0.91826 0.22468 0.86088 0.0
Zn146 Zn 0.90997 0.22794 0.81638 0.0
O147 O 0.88888 0.20816 0.80426 0.0
C148 C 0.89175 0.26514 0.83345 0.0
O149 O 0.89406 0.25785 0.8614 0.0
O150 O 0.93401 0.22433 0.7896 0.0
C151 C 0.87155 0.20996 0.81564 0.0
O152 O 0.86818 0.2241 0.83595 0.0
C153 C 0.91222 0.21107 0.87896 0.0
O154 O 0.90018 0.19727 0.86845 0.0
O155 O 0.89817 0.2553 0.81039 0.0
C156 C 0.72267 0.06727 0.71012 0.0
O157 O 0.7061 0.07457 0.69871 0.0
O158 O 0.74907 0.10024 0.64332 0.0
Zn159 Zn 0.73994 0.10395 0.68728 0.0
O160 O 0.75865 0.12114 0.71148 0.0
C161 C 0.70243 0.12181 0.66602 0.0
O162 O 0.70789 0.11599 0.63829 0.0
O163 O 0.73863 0.07726 0.70785 0.0
C164 C 0.77742 0.12208 0.70875 0.0
O165 O 0.78642 0.11109 0.68787 0.0
C166 C 0.75345 0.11452 0.62532 0.0
O167 O 0.75239 0.13287 0.63563 0.0
O168 O 0.71334 0.1177 0.68916 0.0
C169 C 0.94075 0.75139 0.66702 0.0
O170 O 0.93424 0.74109 0.64327 0.0
O171 O 0.90427 0.77392 0.61585 0.0
Zn172 Zn 0.90209 0.76796 0.66143 0.0
O173 O 0.88746 0.78965 0.68405 0.0
C174 C 0.88068 0.73092 0.64746 0.0
O175 O 0.88506 0.73459 0.61841 0.0
O176 O 0.92939 0.76427 0.67929 0.0
C177 C 0.88726 0.80797 0.67687 0.0
O178 O 0.89769 0.81413 0.65304 0.0
C179 C 0.91881 0.7838 0.60504 0.0
O180 O 0.93233 0.79076 0.62411 0.0
O181 O 0.88658 0.74281 0.6684 0.0
C182 C 0.22325 0.94069 0.68408 0.0
O183 O 0.20856 0.93237 0.66877 0.0
O184 O 0.23595 0.90787 0.62214 0.0
Zn185 Zn 0.23948 0.90407 0.66793 0.0
O186 O 0.21697 0.88875 0.68703 0.0
C187 C 0.28172 0.89816 0.66728 0.0
O188 O 0.28135 0.91607 0.65515 0.0
O189 O 0.2394 0.93112 0.68732 0.0
C190 C 0.21593 0.86991 0.6876 0.0
O191 O 0.22992 0.85937 0.67411 0.0
C192 C 0.22166 0.90149 0.60566 0.0
O193 O 0.20747 0.89094 0.61855 0.0
O194 O 0.26545 0.89007 0.67534 0.0
C195 C 0.07068 0.21319 0.68369 0.0
O196 O 0.08241 0.1992 0.67284 0.0
O197 O 0.10726 0.22651 0.62499 0.0
Zn198 Zn 0.10416 0.23703 0.66817 0.0
O199 O 0.12447 0.22481 0.69651 0.0
C200 C 0.11755 0.27517 0.68911 0.0
O201 O 0.12179 0.26491 0.71411 0.0
O202 O 0.07681 0.23105 0.68406 0.0
C203 C 0.13324 0.2084 0.69154 0.0
O204 O 0.12891 0.19817 0.66655 0.0
C205 C 0.09332 0.22947 0.60572 0.0
O206 O 0.07713 0.23865 0.61502 0.0
O207 O 0.109 0.26652 0.66663 0.0
C208 C 0.75251 0.55488 0.70647 0.0
O209 O 0.73403 0.55645 0.69691 0.0
O210 O 0.74378 0.58927 0.64205 0.0
Zn211 Zn 0.75353 0.59489 0.68522 0.0
O212 O 0.73199 0.60525 0.7133 0.0
C213 C 0.78699 0.61946 0.66294 0.0
O214 O 0.78509 0.61004 0.63649 0.0
O215 O 0.76408 0.56968 0.70356 0.0
C216 C 0.71429 0.60999 0.70614 0.0
O217 O 0.70817 0.60777 0.6775 0.0
C218 C 0.73913 0.60289 0.62301 0.0
O219 O 0.74014 0.62156 0.63183 0.0
O220 O 0.77547 0.61523 0.68531 0.0
C221 C 0.43436 0.75582 0.69456 0.0
O222 O 0.43866 0.76379 0.66764 0.0
O223 O 0.40118 0.75092 0.6283 0.0
Zn224 Zn 0.39305 0.75474 0.67251 0.0
O225 O 0.37392 0.73302 0.68345 0.0
C226 C 0.38684 0.79745 0.66953 0.0
O227 O 0.40491 0.79764 0.65797 0.0
O228 O 0.4164 0.75174 0.70103 0.0
C229 C 0.36838 0.73137 0.71141 0.0
O230 O 0.37489 0.74426 0.73189 0.0
C231 C 0.40992 0.73498 0.62028 0.0
O232 O 0.41415 0.72162 0.64146 0.0
O233 O 0.37921 0.781 0.67773 0.0
C234 C 0.26083 0.4335 0.70593 0.0
O235 O 0.27789 0.42956 0.69243 0.0
O236 O 0.25672 0.40299 0.63493 0.0
Zn237 Zn 0.24946 0.39619 0.67896 0.0
O238 O 0.27046 0.37883 0.69815 0.0
C239 C 0.20781 0.38684 0.66683 0.0
O240 O 0.20808 0.40287 0.64948 0.0
O241 O 0.24659 0.42123 0.70337 0.0
C242 C 0.27133 0.3607 0.68994 0.0
O243 O 0.25891 0.35418 0.66882 0.0
C244 C 0.2515 0.3921 0.61232 0.0
O245 O 0.24123 0.37586 0.61769 0.0
O246 O 0.22353 0.38151 0.68087 0.0
C247 C 0.55458 0.28846 0.68505 0.0
O248 O 0.56287 0.3031 0.66959 0.0
O249 O 0.58562 0.27351 0.61942 0.0
Zn250 Zn 0.58991 0.26998 0.66513 0.0
O251 O 0.60697 0.29231 0.68137 0.0
C252 C 0.60728 0.23094 0.65327 0.0
O253 O 0.60321 0.23504 0.62426 0.0
O254 O 0.56351 0.27184 0.68647 0.0
C255 C 0.62387 0.28967 0.69388 0.0
O256 O 0.63114 0.27159 0.69588 0.0
C257 C 0.59969 0.27854 0.60145 0.0
O258 O 0.61748 0.28166 0.61303 0.0
O259 O 0.60266 0.24339 0.67422 0.0
C260 C 0.77105 0.42566 0.80763 0.0
O261 O 0.78571 0.41856 0.8244 0.0
O262 O 0.74739 0.39381 0.87133 0.0
Zn263 Zn 0.75217 0.38919 0.82584 0.0
O264 O 0.72917 0.37449 0.80677 0.0
C265 C 0.78733 0.36589 0.84083 0.0
O266 O 0.78156 0.36862 0.86954 0.0
O267 O 0.75522 0.41554 0.80475 0.0
C268 C 0.71401 0.38375 0.79671 0.0
O269 O 0.71319 0.40318 0.79965 0.0
C270 C 0.73744 0.40879 0.88041 0.0
O271 O 0.72992 0.42097 0.85974 0.0
O272 O 0.77713 0.37327 0.81892 0.0
C273 C 0.55653 0.72124 0.8071 0.0
O274 O 0.55921 0.70888 0.83024 0.0
O275 O 0.59074 0.72802 0.86636 0.0
Zn276 Zn 0.59707 0.72886 0.82069 0.0
O277 O 0.61226 0.70454 0.80699 0.0
C278 C 0.625 0.75994 0.83451 0.0
O279 O 0.62403 0.75177 0.86205 0.0
O280 O 0.57119 0.73145 0.79753 0.0
C281 C 0.62779 0.69961 0.8219 0.0
O282 O 0.63303 0.71009 0.84621 0.0
C283 C 0.59088 0.7129 0.884 0.0
O284 O 0.59516 0.69531 0.8726 0.0
O285 O 0.61444 0.75287 0.81271 0.0
C286 C 0.26486 0.56518 0.80353 0.0
O287 O 0.28282 0.57278 0.80181 0.0
O288 O 0.26495 0.60153 0.87524 0.0
Zn289 Zn 0.25537 0.60296 0.83134 0.0
O290 O 0.27489 0.61755 0.80451 0.0
C291 C 0.22652 0.63252 0.84784 0.0
O292 O 0.24042 0.63764 0.86764 0.0
O293 O 0.25091 0.57547 0.81516 0.0
C294 C 0.28431 0.63246 0.81502 0.0
O295 O 0.28174 0.63771 0.84402 0.0
C296 C 0.256 0.59002 0.89391 0.0
O297 O 0.24126 0.57903 0.88363 0.0
O298 O 0.22948 0.61779 0.83002 0.0
C299 C 0.42861 0.2826 0.79963 0.0
O300 O 0.41416 0.29567 0.80149 0.0
O301 O 0.40045 0.26869 0.87789 0.0
Zn302 Zn 0.40042 0.2594 0.83349 0.0
O303 O 0.37808 0.27187 0.80935 0.0
C304 C 0.38424 0.22243 0.85358 0.0
O305 O 0.37839 0.23383 0.87652 0.0
O306 O 0.42638 0.26566 0.81223 0.0
C307 C 0.3695 0.28831 0.81499 0.0
O308 O 0.3751 0.29892 0.83896 0.0
C309 C 0.409 0.28406 0.88863 0.0
O310 O 0.41895 0.29577 0.8699 0.0
O311 O 0.39497 0.22992 0.83237 0.0
C312 C 0.25963 0.43148 0.29757 0.0
O313 O 0.27751 0.4236 0.29708 0.0
O314 O 0.25293 0.39728 0.37481 0.0
Zn315 Zn 0.24816 0.39492 0.32903 0.0
O316 O 0.26973 0.37888 0.30815 0.0
C317 C 0.20686 0.38734 0.33779 0.0
O318 O 0.20835 0.40359 0.35452 0.0
O319 O 0.24542 0.42192 0.30994 0.0
C320 C 0.28341 0.37041 0.32359 0.0
O321 O 0.28381 0.37252 0.35378 0.0
C322 C 0.26287 0.41094 0.38795 0.0
O323 O 0.27124 0.42485 0.37106 0.0
O324 O 0.22218 0.38075 0.32396 0.0
C325 C 0.56019 0.27007 0.28783 0.0
O326 O 0.56212 0.28692 0.30295 0.0
O327 O 0.59283 0.26931 0.35544 0.0
Zn328 Zn 0.59953 0.26436 0.3108 0.0
O329 O 0.61196 0.28883 0.292 0.0
C330 C 0.62056 0.22786 0.32728 0.0
O331 O 0.60964 0.22841 0.35246 0.0
O332 O 0.57452 0.25779 0.2878 0.0
C333 C 0.63068 0.28992 0.2884 0.0
O334 O 0.6419 0.27507 0.29767 0.0
C335 C 0.60607 0.27411 0.37502 0.0
O336 O 0.62457 0.27612 0.3658 0.0
O337 O 0.61845 0.24131 0.30691 0.0
C338 C 0.7448 0.55513 0.30596 0.0
O339 O 0.72601 0.55517 0.3143 0.0
O340 O 0.73514 0.5833 0.38006 0.0
Zn341 Zn 0.74333 0.59212 0.3375 0.0
O342 O 0.71962 0.6028 0.31459 0.0
C343 C 0.77805 0.61893 0.32865 0.0
O344 O 0.78286 0.60831 0.30426 0.0
O345 O 0.75574 0.5697 0.31363 0.0
C346 C 0.72235 0.61247 0.28971 0.0
O347 O 0.74055 0.61472 0.27923 0.0
C348 C 0.72974 0.5972 0.39815 0.0
O349 O 0.72862 0.61541 0.38727 0.0
O350 O 0.76272 0.6144 0.34426 0.0
C351 C 0.43435 0.73428 0.30375 0.0
O352 O 0.42546 0.7169 0.30281 0.0
O353 O 0.40327 0.74218 0.38307 0.0
Zn354 Zn 0.39916 0.74603 0.33752 0.0
O355 O 0.38422 0.72274 0.31979 0.0
C356 C 0.37294 0.77885 0.35106 0.0
O357 O 0.37297 0.77086 0.37879 0.0
O358 O 0.4258 0.74877 0.31713 0.0
C359 C 0.36555 0.72119 0.32372 0.0
O360 O 0.3562 0.73477 0.34003 0.0
C361 C 0.4123 0.72712 0.39388 0.0
O362 O 0.41907 0.71352 0.37478 0.0
O363 O 0.3833 0.77093 0.32978 0.0
C364 C 0.26043 0.56443 0.20358 0.0
O365 O 0.27848 0.56939 0.19491 0.0
O366 O 0.25899 0.60205 0.13781 0.0
Zn367 Zn 0.25028 0.60395 0.18217 0.0
O368 O 0.27184 0.61812 0.20562 0.0
C369 C 0.20842 0.6093 0.17644 0.0
O370 O 0.20981 0.59055 0.16824 0.0
O371 O 0.24634 0.57681 0.20019 0.0
C372 C 0.26902 0.63239 0.22437 0.0
O373 O 0.25082 0.63861 0.22971 0.0
C374 C 0.25345 0.58828 0.11963 0.0
O375 O 0.24167 0.5742 0.12999 0.0
O376 O 0.22414 0.61865 0.18396 0.0
C377 C 0.42714 0.26313 0.19509 0.0
O378 O 0.41736 0.27949 0.20173 0.0
O379 O 0.39033 0.26395 0.12206 0.0
Zn380 Zn 0.39028 0.25311 0.1654 0.0
O381 O 0.37618 0.27123 0.19527 0.0
C382 C 0.38399 0.21259 0.14825 0.0
O383 O 0.40017 0.21599 0.13205 0.0
O384 O 0.41856 0.24959 0.17954 0.0
C385 C 0.36219 0.28315 0.18849 0.0
O386 O 0.35575 0.28409 0.15984 0.0
C387 C 0.39855 0.28026 0.11459 0.0
O388 O 0.40678 0.29126 0.13617 0.0
O389 O 0.37685 0.22646 0.16486 0.0
C390 C 0.77189 0.43444 0.18517 0.0
O391 O 0.78766 0.42843 0.16984 0.0
O392 O 0.75018 0.40132 0.11795 0.0
Zn393 Zn 0.75483 0.39732 0.16355 0.0
O394 O 0.73233 0.38158 0.1818 0.0
C395 C 0.781 0.36489 0.15608 0.0
O396 O 0.76595 0.35906 0.13893 0.0
O397 O 0.75645 0.42358 0.18553 0.0
C398 C 0.71497 0.38877 0.18488 0.0
O399 O 0.71142 0.407 0.17547 0.0
C400 C 0.74085 0.41627 0.10734 0.0
O401 O 0.73403 0.42974 0.12662 0.0
O402 O 0.77999 0.38165 0.16955 0.0
C403 C 0.5637 0.72636 0.19924 0.0
O404 O 0.56578 0.70893 0.18588 0.0
O405 O 0.59447 0.73137 0.12754 0.0
Zn406 Zn 0.60207 0.7333 0.17236 0.0
O407 O 0.6146 0.7082 0.18857 0.0
C408 C 0.63176 0.7627 0.1563 0.0
O409 O 0.63134 0.75368 0.12935 0.0
O410 O 0.57749 0.73914 0.19671 0.0
C411 C 0.63265 0.70395 0.18297 0.0
O412 O 0.64313 0.71581 0.16517 0.0
C413 C 0.59712 0.71651 0.10986 0.0
O414 O 0.60539 0.7003 0.12088 0.0
O415 O 0.62075 0.75637 0.17807 0.0
H416 H 0.35042 0.2008 0.17913 0.0
H417 H 0.39423 0.18053 0.1124 0.0
H418 H 0.37605 0.14881 0.10698 0.0
H419 H 0.34174 0.15243 0.21586 0.0
H420 H 0.31553 0.15708 0.22073 0.0
H421 H 0.33286 0.17751 0.22108 0.0
H422 H 0.31315 0.19462 0.17694 0.0
H423 H 0.29579 0.17428 0.17648 0.0
H424 H 0.30862 0.18122 0.1415 0.0
H425 H 0.3516 0.12034 0.10592 0.0
H426 H 0.32285 0.09752 0.10939 0.0
H427 H 0.29561 0.13646 0.1774 0.0
C428 C 0.35636 0.18962 0.16364 0.0
C429 C 0.37377 0.19315 0.14621 0.0
C430 C 0.38094 0.17815 0.12606 0.0
C431 C 0.37075 0.16006 0.12286 0.0
C432 C 0.3535 0.15716 0.14015 0.0
C433 C 0.34642 0.1715 0.16025 0.0
C434 C 0.32707 0.16514 0.17508 0.0
C435 C 0.32945 0.1629 0.21028 0.0
C436 C 0.31017 0.17967 0.167 0.0
C437 C 0.32412 0.14517 0.15965 0.0
C438 C 0.33957 0.14074 0.13975 0.0
C439 C 0.33953 0.12354 0.12172 0.0
C440 C 0.32314 0.11068 0.12383 0.0
C441 C 0.30703 0.11513 0.14378 0.0
C442 C 0.30778 0.13247 0.16221 0.0
H443 H 0.84493 0.26636 0.13312 0.0
H444 H 0.88877 0.29114 0.19595 0.0
H445 H 0.86841 0.32161 0.201 0.0
H446 H 0.83299 0.31199 0.09386 0.0
H447 H 0.80696 0.30606 0.09028 0.0
H448 H 0.82513 0.28641 0.09146 0.0
H449 H 0.80673 0.27042 0.13791 0.0
H450 H 0.78849 0.29 0.13686 0.0
H451 H 0.802 0.28509 0.17204 0.0
H452 H 0.84287 0.34932 0.19936 0.0
H453 H 0.81415 0.37175 0.19165 0.0
H454 H 0.78737 0.32839 0.12997 0.0
C455 C 0.85031 0.27818 0.14793 0.0
C456 C 0.86845 0.27637 0.16413 0.0
C457 C 0.87491 0.2922 0.1833 0.0
C458 C 0.86346 0.30957 0.18629 0.0
C459 C 0.84563 0.31084 0.16996 0.0
C460 C 0.83911 0.29555 0.15117 0.0
C461 C 0.81934 0.30046 0.13632 0.0
C462 C 0.82123 0.30128 0.10088 0.0
C463 C 0.80319 0.28561 0.1464 0.0
C464 C 0.81568 0.32088 0.14979 0.0
C465 C 0.83101 0.32667 0.16907 0.0
C466 C 0.8308 0.34494 0.18428 0.0
C467 C 0.81443 0.35758 0.17975 0.0
C468 C 0.79851 0.35183 0.16022 0.0
C469 C 0.79929 0.33325 0.14503 0.0
H470 H 0.65842 0.77902 0.11556 0.0
H471 H 0.63399 0.78624 0.20789 0.0
H472 H 0.65486 0.81601 0.21556 0.0
H473 H 0.70836 0.79363 0.1346 0.0
H474 H 0.71242 0.80639 0.09848 0.0
H475 H 0.69542 0.78573 0.1002 0.0
H476 H 0.66744 0.80792 0.07764 0.0
H477 H 0.68433 0.82867 0.07594 0.0
H478 H 0.66119 0.83094 0.09669 0.0
H479 H 0.67818 0.84507 0.21308 0.0
H480 H 0.70311 0.87087 0.20124 0.0
H481 H 0.7125 0.84447 0.11069 0.0
C482 C 0.65744 0.78684 0.13741 0.0
C483 C 0.64454 0.78031 0.16111 0.0
C484 C 0.64377 0.79095 0.18939 0.0
C485 C 0.65554 0.8079 0.19396 0.0
C486 C 0.66802 0.81397 0.17007 0.0
C487 C 0.66912 0.80374 0.1424 0.0
C488 C 0.68392 0.81327 0.12058 0.0
C489 C 0.70104 0.7989 0.11304 0.0
C490 C 0.6736 0.82064 0.09096 0.0
C491 C 0.69097 0.83047 0.14031 0.0
C492 C 0.68157 0.83064 0.16873 0.0
C493 C 0.68565 0.84509 0.19091 0.0
C494 C 0.69981 0.8597 0.18393 0.0
C495 C 0.70977 0.8597 0.15504 0.0
C496 C 0.70516 0.8449 0.13298 0.0
H497 H 0.19966 0.64718 0.19596 0.0
H498 H 0.17303 0.59438 0.15562 0.0
H499 H 0.14065 0.61157 0.15301 0.0
H500 H 0.15674 0.66158 0.24254 0.0
H501 H 0.16063 0.68778 0.23617 0.0
H502 H 0.1815 0.67099 0.23619 0.0
H503 H 0.19156 0.68331 0.18158 0.0
H504 H 0.17076 0.70015 0.18142 0.0
H505 H 0.17365 0.68233 0.1506 0.0
H506 H 0.11162 0.63524 0.15184 0.0
H507 H 0.08813 0.66354 0.15289 0.0
H508 H 0.13364 0.70037 0.19522 0.0
C509 C 0.187 0.63916 0.18679 0.0
C510 C 0.18889 0.61943 0.176 0.0
C511 C 0.17195 0.60949 0.16411 0.0
C512 C 0.15347 0.61912 0.16255 0.0
C513 C 0.15215 0.63862 0.1732 0.0
C514 C 0.16843 0.64849 0.18524 0.0
C515 C 0.16316 0.66957 0.19437 0.0
C516 C 0.16565 0.67265 0.2294 0.0
C517 C 0.17551 0.68473 0.17588 0.0
C518 C 0.14147 0.67011 0.18507 0.0
C519 C 0.13536 0.65211 0.17299 0.0
C520 C 0.11617 0.64935 0.16156 0.0
C521 C 0.10294 0.6655 0.16222 0.0
C522 C 0.10898 0.68412 0.17431 0.0
C523 C 0.12845 0.68628 0.18618 0.0
H524 H 0.28131 0.85071 0.38076 0.0
H525 H 0.28715 0.8707 0.28571 0.0
H526 H 0.3178 0.85071 0.28025 0.0
H527 H 0.33471 0.84935 0.39881 0.0
H528 H 0.33222 0.82731 0.42221 0.0
H529 H 0.31187 0.84465 0.41937 0.0
H530 H 0.28865 0.8162 0.40111 0.0
H531 H 0.3089 0.79881 0.4038 0.0
H532 H 0.29558 0.80155 0.36788 0.0
H533 H 0.34617 0.82633 0.28399 0.0
H534 H 0.37011 0.79968 0.29669 0.0
H535 H 0.34554 0.79606 0.38939 0.0
C536 C 0.28917 0.85116 0.35891 0.0
C537 C 0.28186 0.86228 0.33366 0.0
C538 C 0.29252 0.86231 0.3054 0.0
C539 C 0.30995 0.85104 0.3021 0.0
C540 C 0.31656 0.83997 0.32734 0.0
C541 C 0.30655 0.84004 0.35525 0.0
C542 C 0.31607 0.82605 0.37828 0.0
C543 C 0.3242 0.83753 0.40632 0.0
C544 C 0.30143 0.80969 0.38834 0.0
C545 C 0.33273 0.8177 0.35874 0.0
C546 C 0.33289 0.82601 0.32951 0.0
C547 C 0.34634 0.81988 0.30692 0.0
C548 C 0.35984 0.80471 0.31434 0.0
C549 C 0.35974 0.79583 0.34406 0.0
C550 C 0.34614 0.80266 0.36657 0.0
H551 H 0.1988 0.35392 0.30406 0.0
H552 H 0.1725 0.39495 0.36993 0.0
H553 H 0.14218 0.37422 0.37171 0.0
H554 H 0.15226 0.34123 0.26287 0.0
H555 H 0.15971 0.31567 0.25801 0.0
H556 H 0.17823 0.33501 0.25926 0.0
H557 H 0.19607 0.31676 0.30423 0.0
H558 H 0.17763 0.29744 0.30316 0.0
H559 H 0.18228 0.31065 0.33871 0.0
H560 H 0.11626 0.34697 0.37044 0.0
H561 H 0.09709 0.3157 0.366 0.0
H562 H 0.14054 0.29322 0.30044 0.0
C563 C 0.18654 0.35877 0.31846 0.0
C564 C 0.18801 0.37606 0.33683 0.0
C565 C 0.17168 0.38179 0.35554 0.0
C566 C 0.15438 0.37014 0.35666 0.0
C567 C 0.15359 0.35295 0.33869 0.0
C568 C 0.1692 0.3474 0.31975 0.0
C569 C 0.16529 0.32762 0.3043 0.0
C570 C 0.16378 0.33003 0.26902 0.0
C571 C 0.18126 0.31222 0.31315 0.0
C572 C 0.14534 0.32256 0.31831 0.0
C573 C 0.13867 0.33741 0.33781 0.0
C574 C 0.12118 0.33538 0.35485 0.0
C575 C 0.1104 0.31756 0.35222 0.0
C576 C 0.11727 0.30203 0.33282 0.0
C577 C 0.13476 0.30484 0.31527 0.0
H578 H 0.69261 0.1395 0.37888 0.0
H579 H 0.72013 0.14409 0.28826 0.0
H580 H 0.69579 0.1698 0.27356 0.0
H581 H 0.64143 0.14696 0.35324 0.0
H582 H 0.63481 0.16151 0.38672 0.0
H583 H 0.65374 0.14265 0.38967 0.0
H584 H 0.67857 0.16885 0.41065 0.0
H585 H 0.65974 0.18779 0.40772 0.0
H586 H 0.68329 0.19106 0.38848 0.0
H587 H 0.66969 0.19598 0.26937 0.0
H588 H 0.64328 0.22105 0.27593 0.0
H589 H 0.63253 0.19956 0.3692 0.0
C590 C 0.69338 0.14575 0.35583 0.0
C591 C 0.70826 0.13975 0.3347 0.0
C592 C 0.70888 0.14845 0.30486 0.0
C593 C 0.6951 0.16304 0.29625 0.0
C594 C 0.68077 0.16876 0.3177 0.0
C595 C 0.67976 0.16039 0.34685 0.0
C596 C 0.66331 0.16976 0.36586 0.0
C597 C 0.64738 0.1543 0.37436 0.0
C598 C 0.67174 0.17997 0.39489 0.0
C599 C 0.65538 0.18482 0.34292 0.0
C600 C 0.66563 0.18393 0.31526 0.0
C601 C 0.66145 0.19675 0.29084 0.0
C602 C 0.64644 0.21095 0.29482 0.0
C603 C 0.63578 0.21223 0.32304 0.0
C604 C 0.64028 0.19886 0.34727 0.0
H605 H 0.80906 0.63653 0.29716 0.0
H606 H 0.77381 0.64104 0.38111 0.0
H607 H 0.79247 0.67095 0.39625 0.0
H608 H 0.85594 0.65353 0.33097 0.0
H609 H 0.86309 0.66733 0.29701 0.0
H610 H 0.8477 0.64553 0.29329 0.0
H611 H 0.82118 0.66623 0.26405 0.0
H612 H 0.83647 0.68808 0.26771 0.0
H613 H 0.81124 0.68836 0.28181 0.0
H614 H 0.81352 0.70101 0.40141 0.0
H615 H 0.83599 0.72972 0.39631 0.0
H616 H 0.85796 0.70611 0.30922 0.0
C617 C 0.80542 0.64369 0.31887 0.0
C618 C 0.78998 0.63641 0.33794 0.0
C619 C 0.78555 0.64632 0.36605 0.0
C620 C 0.7961 0.66332 0.37494 0.0
C621 C 0.81106 0.67022 0.35552 0.0
C622 C 0.81579 0.66076 0.32811 0.0
C623 C 0.83212 0.67177 0.31104 0.0
C624 C 0.85082 0.65876 0.3079 0.0
C625 C 0.82481 0.67904 0.27928 0.0
C626 C 0.8356 0.689 0.33299 0.0
C627 C 0.82334 0.68772 0.35854 0.0
C628 C 0.82331 0.70214 0.38162 0.0
C629 C 0.8361 0.71842 0.37846 0.0
C630 C 0.84876 0.72016 0.3524 0.0
C631 C 0.84857 0.70513 0.32951 0.0
H632 H 0.70884 0.83849 0.87952 0.0
H633 H 0.70836 0.85817 0.78386 0.0
H634 H 0.68199 0.83378 0.7721 0.0
H635 H 0.70146 0.78664 0.86392 0.0
H636 H 0.68571 0.78274 0.8971 0.0
H637 H 0.70442 0.80187 0.89794 0.0
H638 H 0.67748 0.82806 0.91138 0.0
H639 H 0.65867 0.80901 0.91051 0.0
H640 H 0.65613 0.83077 0.88651 0.0
H641 H 0.65566 0.80708 0.77077 0.0
H642 H 0.63176 0.77978 0.77997 0.0
H643 H 0.64965 0.77784 0.87644 0.0
C644 C 0.70322 0.83769 0.85608 0.0
C645 C 0.71068 0.85025 0.83263 0.0
C646 C 0.70288 0.84871 0.80225 0.0
C647 C 0.68789 0.83491 0.79532 0.0
C648 C 0.68084 0.82279 0.81902 0.0
C649 C 0.68826 0.82403 0.84877 0.0
C650 C 0.67823 0.80923 0.87001 0.0
C651 C 0.69336 0.79423 0.88299 0.0
C652 C 0.66696 0.81991 0.89614 0.0
C653 C 0.66405 0.79943 0.84753 0.0
C654 C 0.66573 0.80746 0.81825 0.0
C655 C 0.6542 0.80068 0.79362 0.0
C656 C 0.64066 0.78519 0.79907 0.0
C657 C 0.63881 0.77667 0.82891 0.0
C658 C 0.65066 0.78402 0.85337 0.0
H659 H 0.15751 0.72707 0.87491 0.0
H660 H 0.11648 0.70201 0.80785 0.0
H661 H 0.13768 0.67215 0.80361 0.0
H662 H 0.20166 0.71066 0.83867 0.0
H663 H 0.21455 0.70538 0.87429 0.0
H664 H 0.19556 0.72423 0.87337 0.0
H665 H 0.17674 0.70632 0.91767 0.0
H666 H 0.19571 0.6874 0.91875 0.0
H667 H 0.17005 0.68052 0.91331 0.0
H668 H 0.16419 0.64581 0.80478 0.0
H669 H 0.19409 0.6249 0.81131 0.0
H670 H 0.21753 0.66724 0.87784 0.0
C671 C 0.15287 0.71525 0.85952 0.0
C672 C 0.13533 0.71686 0.84174 0.0
C673 C 0.12985 0.70108 0.82175 0.0
C674 C 0.14177 0.68405 0.81921 0.0
C675 C 0.15905 0.68302 0.8369 0.0
C676 C 0.16456 0.69816 0.85672 0.0
C677 C 0.18416 0.69368 0.87241 0.0
C678 C 0.19991 0.70942 0.86418 0.0
C679 C 0.1815 0.69187 0.90762 0.0
C680 C 0.18898 0.67378 0.85795 0.0
C681 C 0.17427 0.66783 0.83765 0.0
C682 C 0.17574 0.65023 0.82079 0.0
C683 C 0.19279 0.63848 0.82462 0.0
C684 C 0.20812 0.64441 0.84513 0.0
C685 C 0.20602 0.66221 0.86216 0.0
H686 H 0.36039 0.20281 0.89449 0.0
H687 H 0.38846 0.19671 0.80461 0.0
H688 H 0.36989 0.16552 0.79584 0.0
H689 H 0.35684 0.14823 0.91245 0.0
H690 H 0.33297 0.15153 0.93071 0.0
H691 H 0.35119 0.17117 0.93217 0.0
H692 H 0.32559 0.19557 0.90835 0.0
H693 H 0.30739 0.17606 0.9066 0.0
H694 H 0.31398 0.18945 0.87197 0.0
H695 H 0.34426 0.13828 0.79341 0.0
H696 H 0.31446 0.11698 0.79816 0.0
H697 H 0.30365 0.1409 0.88988 0.0
C698 C 0.3631 0.19464 0.87333 0.0
C699 C 0.37589 0.20219 0.85026 0.0
C700 C 0.37882 0.19115 0.82271 0.0
C701 C 0.36836 0.1734 0.81754 0.0
C702 C 0.35526 0.16676 0.84032 0.0
C703 C 0.35282 0.17694 0.86786 0.0
C704 C 0.33645 0.1679 0.8873 0.0
C705 C 0.34488 0.15919 0.91744 0.0
C706 C 0.31988 0.18315 0.89391 0.0
C707 C 0.32939 0.15166 0.86578 0.0
C708 C 0.34059 0.15099 0.83899 0.0
C709 C 0.33566 0.13837 0.81457 0.0
C710 C 0.31867 0.12637 0.81743 0.0
C711 C 0.30678 0.1272 0.84445 0.0
C712 C 0.31257 0.13969 0.86911 0.0
H713 H 0.87134 0.28617 0.8773 0.0
H714 H 0.88389 0.28438 0.77883 0.0
H715 H 0.86036 0.31209 0.77053 0.0
H716 H 0.82048 0.29365 0.87056 0.0
H717 H 0.81828 0.31005 0.90337 0.0
H718 H 0.83789 0.29188 0.90215 0.0
H719 H 0.86414 0.31966 0.90971 0.0
H720 H 0.84457 0.33795 0.91119 0.0
H721 H 0.8645 0.34057 0.88361 0.0
H722 H 0.83312 0.33765 0.77239 0.0
H723 H 0.80464 0.35952 0.78431 0.0
H724 H 0.80993 0.34436 0.88159 0.0
C725 C 0.8695 0.29187 0.85405 0.0
C726 C 0.87952 0.28316 0.82872 0.0
C727 C 0.87643 0.29088 0.79861 0.0
C728 C 0.86312 0.30662 0.79367 0.0
C729 C 0.85311 0.31452 0.81909 0.0
C730 C 0.85625 0.3075 0.84872 0.0
C731 C 0.84265 0.31758 0.8718 0.0
C732 C 0.82902 0.30238 0.8879 0.0
C733 C 0.85469 0.32966 0.89547 0.0
C734 C 0.831 0.33104 0.85041 0.0
C735 C 0.83737 0.3292 0.82015 0.0
C736 C 0.82817 0.3394 0.79605 0.0
C737 C 0.81196 0.35174 0.80305 0.0
C738 C 0.80508 0.35369 0.8339 0.0
C739 C 0.81493 0.34333 0.85783 0.0
H740 H 0.62579 0.2051 0.61364 0.0
H741 H 0.61419 0.21574 0.71104 0.0
H742 H 0.63465 0.18652 0.72454 0.0
H743 H 0.62675 0.15025 0.61731 0.0
H744 H 0.6468 0.1485 0.58977 0.0
H745 H 0.62941 0.16885 0.58756 0.0
H746 H 0.65857 0.19397 0.59048 0.0
H747 H 0.67601 0.17375 0.59269 0.0
H748 H 0.6758 0.19259 0.62235 0.0
H749 H 0.65859 0.15813 0.7277 0.0
H750 H 0.68497 0.13306 0.72042 0.0
H751 H 0.6811 0.141 0.62093 0.0
C752 C 0.62721 0.20106 0.63778 0.0
C753 C 0.61829 0.21263 0.66129 0.0
C754 C 0.62084 0.20706 0.69264 0.0
C755 C 0.63236 0.19044 0.70053 0.0
C756 C 0.6412 0.17954 0.67681 0.0
C757 C 0.63874 0.1846 0.64606 0.0
C758 C 0.65108 0.17138 0.62517 0.0
C759 C 0.6377 0.15901 0.60369 0.0
C760 C 0.66626 0.18366 0.6066 0.0
C761 C 0.66121 0.15839 0.64902 0.0
C762 C 0.65514 0.1632 0.67864 0.0
C763 C 0.66329 0.15406 0.7046 0.0
C764 C 0.67829 0.13986 0.70022 0.0
C765 C 0.68504 0.13501 0.6701 0.0
C766 C 0.67608 0.14416 0.64421 0.0
H767 H 0.80893 0.63808 0.61771 0.0
H768 H 0.79892 0.63677 0.71694 0.0
H769 H 0.8231 0.66395 0.72372 0.0
H770 H 0.86204 0.64944 0.62072 0.0
H771 H 0.86107 0.66584 0.58777 0.0
H772 H 0.84387 0.64539 0.59072 0.0
H773 H 0.81431 0.66984 0.58506 0.0
H774 H 0.83141 0.69035 0.58213 0.0
H775 H 0.81224 0.6906 0.61128 0.0
H776 H 0.8472 0.69188 0.71986 0.0
H777 H 0.86933 0.71954 0.70551 0.0
H778 H 0.86356 0.70333 0.60863 0.0
C779 C 0.81201 0.64335 0.64089 0.0
C780 C 0.80209 0.63525 0.66681 0.0
C781 C 0.80633 0.64275 0.69672 0.0
C782 C 0.82008 0.65814 0.70084 0.0
C783 C 0.82946 0.66592 0.67483 0.0
C784 C 0.82562 0.65884 0.64542 0.0
C785 C 0.83711 0.67048 0.62129 0.0
C786 C 0.8519 0.65698 0.60412 0.0
C787 C 0.82292 0.68094 0.59861 0.0
C788 C 0.84781 0.68532 0.64175 0.0
C789 C 0.84328 0.6823 0.67255 0.0
C790 C 0.85095 0.69436 0.69583 0.0
C791 C 0.8635 0.71005 0.6874 0.0
C792 C 0.8682 0.71363 0.65593 0.0
C793 C 0.86033 0.70095 0.63289 0.0
H794 H 0.287 0.85982 0.68708 0.0
H795 H 0.3191 0.911 0.65171 0.0
H796 H 0.3502 0.89143 0.65182 0.0
H797 H 0.3269 0.84074 0.73678 0.0
H798 H 0.32098 0.81518 0.72824 0.0
H799 H 0.30167 0.83376 0.7278 0.0
H800 H 0.29253 0.82375 0.67167 0.0
H801 H 0.31182 0.8052 0.6719 0.0
H802 H 0.31151 0.82402 0.64222 0.0
H803 H 0.37732 0.86547 0.65232 0.0
H804 H 0.39822 0.83523 0.65326 0.0
H805 H 0.34815 0.80131 0.68837 0.0
C806 C 0.30061 0.86704 0.67979 0.0
C807 C 0.30062 0.88697 0.66946 0.0
C808 C 0.31873 0.89576 0.6598 0.0
C809 C 0.33648 0.88478 0.65982 0.0
C810 C 0.33587 0.86507 0.66971 0.0
C811 C 0.31841 0.85631 0.67964 0.0
C812 C 0.32151 0.83463 0.68764 0.0
C813 C 0.31753 0.83086 0.72217 0.0
C814 C 0.30858 0.82111 0.66713 0.0
C815 C 0.34336 0.83243 0.68006 0.0
C816 C 0.35144 0.85017 0.66998 0.0
C817 C 0.3712 0.85154 0.66047 0.0
C818 C 0.38295 0.83428 0.66105 0.0
C819 C 0.37486 0.8159 0.67096 0.0
C820 C 0.35486 0.81513 0.68088 0.0
H821 H 0.1469 0.29285 0.72273 0.0
H822 H 0.10676 0.30291 0.64575 0.0
H823 H 0.12326 0.33508 0.63525 0.0
H824 H 0.1527 0.3456 0.74714 0.0
H825 H 0.17871 0.3421 0.75563 0.0
H826 H 0.16155 0.32173 0.76023 0.0
H827 H 0.18324 0.30014 0.72375 0.0
H828 H 0.20034 0.32044 0.71884 0.0
H829 H 0.18892 0.30913 0.68546 0.0
H830 H 0.14643 0.36443 0.62997 0.0
H831 H 0.1749 0.38773 0.62928 0.0
H832 H 0.20041 0.35725 0.70836 0.0
C833 C 0.14116 0.30208 0.70425 0.0
C834 C 0.12542 0.29551 0.68525 0.0
C835 C 0.11873 0.30776 0.66072 0.0
C836 C 0.12796 0.32607 0.65465 0.0
C837 C 0.14386 0.33184 0.6733 0.0
C838 C 0.15037 0.3202 0.69764 0.0
C839 C 0.16905 0.32857 0.7121 0.0
C840 C 0.16527 0.33488 0.74577 0.0
C841 C 0.1864 0.31369 0.70988 0.0
C842 C 0.1724 0.34642 0.69153 0.0
C843 C 0.15754 0.34831 0.66965 0.0
C844 C 0.15802 0.36322 0.64724 0.0
C845 C 0.17424 0.37637 0.647 0.0
C846 C 0.18986 0.37427 0.66873 0.0
C847 C 0.18869 0.35926 0.69146 0.0
H848 H 0.24957 0.09017 0.05606 0.0
H849 H 0.18709 0.10184 0.07383 0.0
H850 H 0.1805 0.10153 0.01763 0.0
H851 H 0.25382 0.12115 0.99015 0.0
H852 H 0.27062 0.10481 0.96988 0.0
H853 H 0.27016 0.10491 0.01151 0.0
H854 H 0.26339 0.06696 0.01169 0.0
H855 H 0.26383 0.06674 0.97002 0.0
H856 H 0.24247 0.05725 0.99043 0.0
H857 H 0.18103 0.10116 0.95931 0.0
H858 H 0.18873 0.10122 0.90343 0.0
H859 H 0.25086 0.08986 0.92439 0.0
C860 C 0.23446 0.0925 0.0482 0.0
C861 C 0.21883 0.09598 0.06935 0.0
C862 C 0.1993 0.09912 0.05806 0.0
C863 C 0.1954 0.09893 0.02619 0.0
C864 C 0.21118 0.09557 0.00598 0.0
C865 C 0.23031 0.0924 0.01655 0.0
C866 C 0.24477 0.08979 0.99005 0.0
C867 C 0.26078 0.10614 0.99043 0.0
C868 C 0.25416 0.06894 0.99059 0.0
C869 C 0.23082 0.0922 0.96289 0.0
C870 C 0.21149 0.09541 0.9725 0.0
C871 C 0.19609 0.09855 0.9515 0.0
C872 C 0.20062 0.09855 0.91982 0.0
C873 C 0.22038 0.0955 0.90952 0.0
C874 C 0.23558 0.09213 0.93146 0.0
H875 H 0.89459 0.1908 0.92664 0.0
H876 H 0.9407 0.23407 0.90643 0.0
H877 H 0.94697 0.23814 0.9623 0.0
H878 H 0.87458 0.21601 0.99003 0.0
H879 H 0.86905 0.19405 0.01233 0.0
H880 H 0.86972 0.19273 0.97078 0.0
H881 H 0.89591 0.16451 0.97363 0.0
H882 H 0.89525 0.16566 0.01527 0.0
H883 H 0.91855 0.16839 0.99512 0.0
H884 H 0.94639 0.23957 0.02007 0.0
H885 H 0.939 0.23827 0.07592 0.0
H886 H 0.89299 0.19435 0.05854 0.0
C887 C 0.90631 0.20081 0.93393 0.0
C888 C 0.91724 0.21203 0.91219 0.0
C889 C 0.93217 0.22528 0.92269 0.0
C890 C 0.93588 0.22766 0.95436 0.0
C891 C 0.92455 0.21668 0.97522 0.0
C892 C 0.91011 0.20347 0.96547 0.0
C893 C 0.89909 0.19452 0.99265 0.0
C894 C 0.87679 0.19964 0.99136 0.0
C895 C 0.90241 0.17193 0.99426 0.0
C896 C 0.90932 0.20508 0.01916 0.0
C897 C 0.92408 0.21766 0.00862 0.0
C898 C 0.93501 0.22963 0.02866 0.0
C899 C 0.93066 0.22881 0.06034 0.0
C900 C 0.91544 0.21618 0.07163 0.0
C901 C 0.90481 0.20405 0.05069 0.0
H902 H 0.75133 0.89918 0.92868 0.0
H903 H 0.81232 0.91593 0.90848 0.0
H904 H 0.81888 0.91964 0.96441 0.0
H905 H 0.74401 0.93309 0.99141 0.0
H906 H 0.72908 0.91605 0.01368 0.0
H907 H 0.72933 0.9144 0.97211 0.0
H908 H 0.73994 0.87741 0.97563 0.0
H909 H 0.73969 0.87894 0.01722 0.0
H910 H 0.76183 0.87081 0.9974 0.0
H911 H 0.81866 0.9217 0.02276 0.0
H912 H 0.81164 0.92194 0.07889 0.0
H913 H 0.75075 0.90403 0.06037 0.0
C914 C 0.76609 0.90358 0.93596 0.0
C915 C 0.78132 0.90726 0.91416 0.0
C916 C 0.80041 0.91303 0.92473 0.0
C917 C 0.80429 0.91517 0.95645 0.0
C918 C 0.78892 0.9115 0.97729 0.0
C919 C 0.77021 0.90582 0.96746 0.0
C920 C 0.75622 0.9029 0.9945 0.0
C921 C 0.73862 0.91749 0.99282 0.0
C922 C 0.749 0.88123 0.99629 0.0
C923 C 0.76996 0.90789 0.0211 0.0
C924 C 0.78877 0.91278 0.01075 0.0
C925 C 0.80398 0.9179 0.03114 0.0
C926 C 0.79985 0.91799 0.06297 0.0
C927 C 0.78065 0.91305 0.07406 0.0
C928 C 0.76558 0.90795 0.0527 0.0
H929 H 0.11221 0.7932 0.94143 0.0
H930 H 0.06124 0.75642 0.91832 0.0
H931 H 0.05481 0.751 0.97376 0.0
H932 H 0.12944 0.76416 0.00277 0.0
H933 H 0.13711 0.78464 0.02688 0.0
H934 H 0.13668 0.78746 0.98549 0.0
H935 H 0.11348 0.81803 0.99074 0.0
H936 H 0.11397 0.81542 0.03222 0.0
H937 H 0.09053 0.81575 0.012 0.0
H938 H 0.05586 0.74663 0.03081 0.0
H939 H 0.06314 0.7452 0.08662 0.0
H940 H 0.11292 0.78543 0.07351 0.0
C941 C 0.09945 0.78434 0.94802 0.0
C942 C 0.08722 0.77525 0.92548 0.0
C943 C 0.07081 0.76356 0.93511 0.0
C944 C 0.06702 0.7604 0.96657 0.0
C945 C 0.07965 0.76914 0.98815 0.0
C946 C 0.0954 0.78106 0.97939 0.0
C947 C 0.10724 0.7879 0.00729 0.0
C948 C 0.1289 0.7806 0.00549 0.0
C949 C 0.10623 0.81063 0.01076 0.0
C950 C 0.09595 0.77755 0.03299 0.0
C951 C 0.08006 0.76687 0.02138 0.0
C952 C 0.06808 0.75516 0.04026 0.0
C953 C 0.07241 0.75436 0.07191 0.0
C954 C 0.08855 0.76527 0.08441 0.0
C955 C 0.10035 0.77713 0.06466 0.0
H956 H 0.18861 0.88831 0.4294 0.0
H957 H 0.2375 0.92752 0.40549 0.0
H958 H 0.24392 0.9335 0.46087 0.0
H959 H 0.17187 0.91549 0.49944 0.0
H960 H 0.16653 0.89286 0.52016 0.0
H961 H 0.16413 0.89358 0.47865 0.0
H962 H 0.1882 0.86364 0.47408 0.0
H963 H 0.19081 0.86292 0.51549 0.0
H964 H 0.21255 0.8652 0.49136 0.0
H965 H 0.24707 0.93294 0.51803 0.0
H966 H 0.24663 0.92617 0.57398 0.0
H967 H 0.19603 0.88684 0.5615 0.0
C968 C 0.20031 0.89856 0.43585 0.0
C969 C 0.21246 0.9076 0.4132 0.0
C970 C 0.22798 0.9205 0.42251 0.0
C971 C 0.23171 0.92403 0.45388 0.0
C972 C 0.21981 0.9145 0.47567 0.0
C973 C 0.20438 0.90209 0.46715 0.0
C974 C 0.19487 0.89252 0.49526 0.0
C975 C 0.17306 0.89901 0.49857 0.0
C976 C 0.19673 0.86972 0.49396 0.0
C977 C 0.20764 0.90121 0.52078 0.0
C978 C 0.22181 0.91398 0.50893 0.0
C979 C 0.23591 0.92314 0.52767 0.0
C980 C 0.23558 0.91912 0.55943 0.0
C981 C 0.22128 0.90599 0.57217 0.0
C982 C 0.20704 0.89707 0.55252 0.0
H983 H 0.06697 0.23549 0.55843 0.0
H984 H 0.12592 0.21245 0.57827 0.0
H985 H 0.13156 0.2072 0.52243 0.0
H986 H 0.05626 0.20238 0.49187 0.0
H987 H 0.04338 0.22179 0.47125 0.0
H988 H 0.04313 0.22143 0.51294 0.0
H989 H 0.05708 0.25736 0.51386 0.0
H990 H 0.05746 0.25779 0.47228 0.0
H991 H 0.07991 0.2628 0.49369 0.0
H992 H 0.13209 0.20786 0.46431 0.0
H993 H 0.12728 0.21393 0.40847 0.0
H994 H 0.06789 0.2363 0.42695 0.0
C995 C 0.08092 0.22897 0.55113 0.0
C996 C 0.09599 0.22437 0.57272 0.0
C997 C 0.11412 0.21605 0.56215 0.0
C998 C 0.11745 0.21297 0.53049 0.0
C999 C 0.10244 0.21811 0.50976 0.0
C1000 C 0.08447 0.22578 0.51968 0.0
C1001 C 0.07128 0.23133 0.49267 0.0
C1002 C 0.0524 0.21846 0.49216 0.0
C1003 C 0.06615 0.25364 0.49317 0.0
C1004 C 0.08491 0.22624 0.46599 0.0
C1005 C 0.10273 0.21841 0.47628 0.0
C1006 C 0.11809 0.21369 0.45595 0.0
C1007 C 0.11524 0.21725 0.42429 0.0
C1008 C 0.09719 0.22553 0.41334 0.0
C1009 C 0.08178 0.22977 0.43452 0.0
H1010 H 0.75781 0.1415 0.57807 0.0
H1011 H 0.75921 0.07824 0.59815 0.0
H1012 H 0.76461 0.07112 0.54284 0.0
H1013 H 0.73086 0.13782 0.50859 0.0
H1014 H 0.74409 0.1574 0.48895 0.0
H1015 H 0.74204 0.15772 0.53045 0.0
H1016 H 0.78042 0.15942 0.53525 0.0
H1017 H 0.78259 0.15918 0.4937 0.0
H1018 H 0.79547 0.14079 0.51648 0.0
H1019 H 0.76751 0.07066 0.48518 0.0
H1020 H 0.76807 0.07694 0.42896 0.0
H1021 H 0.76489 0.14049 0.44624 0.0
C1022 C 0.75956 0.12616 0.57093 0.0
C1023 C 0.75813 0.11043 0.59248 0.0
C1024 C 0.76026 0.09055 0.58209 0.0
C1025 C 0.76338 0.08635 0.55072 0.0
C1026 C 0.76439 0.10217 0.53002 0.0
C1027 C 0.76264 0.12169 0.53967 0.0
C1028 C 0.76333 0.13588 0.51247 0.0
C1029 C 0.74393 0.1479 0.50998 0.0
C1030 C 0.78154 0.14963 0.51461 0.0
C1031 C 0.76538 0.12125 0.48601 0.0
C1032 C 0.76609 0.1019 0.49667 0.0
C1033 C 0.76717 0.08576 0.47655 0.0
C1034 C 0.76743 0.08949 0.44465 0.0
C1035 C 0.76659 0.1092 0.43318 0.0
C1036 C 0.76573 0.12525 0.45426 0.0
H1037 H 0.89435 0.7698 0.55926 0.0
H1038 H 0.94811 0.80419 0.57444 0.0
H1039 H 0.9522 0.80797 0.51796 0.0
H1040 H 0.9116 0.74328 0.49344 0.0
H1041 H 0.88793 0.7436 0.47388 0.0
H1042 H 0.88887 0.7443 0.51548 0.0
H1043 H 0.868 0.77671 0.51551 0.0
H1044 H 0.86697 0.77609 0.47389 0.0
H1045 H 0.87642 0.79782 0.49339 0.0
H1046 H 0.95089 0.80709 0.45951 0.0
H1047 H 0.94407 0.80181 0.40389 0.0
H1048 H 0.8912 0.76806 0.42768 0.0
C1049 C 0.90692 0.77826 0.55077 0.0
C1050 C 0.92089 0.78673 0.57129 0.0
C1051 C 0.93719 0.79758 0.55917 0.0
C1052 C 0.93964 0.79982 0.52713 0.0
C1053 C 0.92566 0.79114 0.50755 0.0
C1054 C 0.9096 0.78062 0.51893 0.0
C1055 C 0.89689 0.77241 0.49304 0.0
C1056 C 0.8963 0.74954 0.49403 0.0
C1057 C 0.87583 0.7813 0.49403 0.0
C1058 C 0.90839 0.77983 0.46529 0.0
C1059 C 0.92492 0.79064 0.47407 0.0
C1060 C 0.93795 0.79871 0.45236 0.0
C1061 C 0.93396 0.79562 0.42084 0.0
C1062 C 0.9171 0.78455 0.4114 0.0
C1063 C 0.90419 0.77664 0.43406 0.0
H1064 H 0.73177 0.62845 0.57498 0.0
H1065 H 0.73579 0.56569 0.59767 0.0
H1066 H 0.73044 0.55718 0.54277 0.0
H1067 H 0.69383 0.62351 0.5135 0.0
H1068 H 0.70518 0.64259 0.49016 0.0
H1069 H 0.70712 0.64363 0.53171 0.0
H1070 H 0.74553 0.64518 0.52733 0.0
H1071 H 0.74372 0.64411 0.48587 0.0
H1072 H 0.75851 0.62601 0.50628 0.0
H1073 H 0.72814 0.55562 0.48475 0.0
H1074 H 0.72879 0.56125 0.42824 0.0
H1075 H 0.72575 0.62495 0.44388 0.0
C1076 C 0.73114 0.6129 0.56854 0.0
C1077 C 0.73416 0.59775 0.59065 0.0
C1078 C 0.73348 0.57758 0.58116 0.0
C1079 C 0.7304 0.57258 0.55003 0.0
C1080 C 0.72786 0.5879 0.52873 0.0
C1081 C 0.72807 0.60765 0.53761 0.0
C1082 C 0.72629 0.62132 0.50995 0.0
C1083 C 0.70695 0.63348 0.51142 0.0
C1084 C 0.7446 0.63495 0.5072 0.0
C1085 C 0.72563 0.60619 0.48406 0.0
C1086 C 0.72637 0.58699 0.49533 0.0
C1087 C 0.72725 0.57058 0.47565 0.0
C1088 C 0.72765 0.57392 0.44361 0.0
C1089 C 0.7272 0.59352 0.43164 0.0
C1090 C 0.72582 0.60977 0.45224 0.0
H1091 H 0.40055 0.75309 0.43907 0.0
H1092 H 0.43021 0.69643 0.42509 0.0
H1093 H 0.43424 0.69289 0.48166 0.0
H1094 H 0.43072 0.76957 0.50361 0.0
H1095 H 0.41008 0.78113 0.52321 0.0
H1096 H 0.4102 0.77946 0.48163 0.0
H1097 H 0.37614 0.76144 0.48297 0.0
H1098 H 0.37589 0.76309 0.52452 0.0
H1099 H 0.37338 0.73923 0.50592 0.0
H1100 H 0.4339 0.69509 0.53995 0.0
H1101 H 0.42897 0.70268 0.59535 0.0
H1102 H 0.39978 0.75802 0.5705 0.0
C1103 C 0.40799 0.73996 0.44782 0.0
C1104 C 0.41508 0.72503 0.42765 0.0
C1105 C 0.42468 0.70807 0.44011 0.0
C1106 C 0.42706 0.70594 0.47219 0.0
C1107 C 0.41984 0.72094 0.49141 0.0
C1108 C 0.41053 0.73763 0.47967 0.0
C1109 C 0.40366 0.75138 0.50522 0.0
C1110 C 0.4143 0.77158 0.5033 0.0
C1111 C 0.38092 0.75392 0.50461 0.0
C1112 C 0.41033 0.7397 0.53324 0.0
C1113 C 0.41972 0.72224 0.52483 0.0
C1114 C 0.42668 0.70878 0.54681 0.0
C1115 C 0.4238 0.71322 0.57821 0.0
C1116 C 0.41402 0.73096 0.58727 0.0
C1117 C 0.40742 0.7444 0.56438 0.0
H1118 H 0.24674 0.38446 0.42883 0.0
H1119 H 0.28252 0.43812 0.42428 0.0
H1120 H 0.28428 0.4388 0.48142 0.0
H1121 H 0.21814 0.39833 0.49448 0.0
H1122 H 0.21736 0.37357 0.51038 0.0
H1123 H 0.21955 0.37703 0.46924 0.0
H1124 H 0.25155 0.35553 0.46879 0.0
H1125 H 0.24945 0.35197 0.50996 0.0
H1126 H 0.27198 0.36209 0.49378 0.0
H1127 H 0.28122 0.43399 0.53933 0.0
H1128 H 0.27378 0.42399 0.59312 0.0
H1129 H 0.24014 0.37347 0.55889 0.0
C1130 C 0.25505 0.39633 0.43976 0.0
C1131 C 0.26451 0.41124 0.42206 0.0
C1132 C 0.27517 0.42652 0.43736 0.0
C1133 C 0.27626 0.42703 0.46979 0.0
C1134 C 0.26665 0.41213 0.4865 0.0
C1135 C 0.25629 0.39705 0.47196 0.0
C1136 C 0.24695 0.38301 0.4951 0.0
C1137 C 0.22415 0.383 0.49212 0.0
C1138 C 0.2555 0.3619 0.4917 0.0
C1139 C 0.25357 0.39258 0.52501 0.0
C1140 C 0.26494 0.40935 0.51962 0.0
C1141 C 0.2724 0.42084 0.5438 0.0
C1142 C 0.26808 0.41505 0.57426 0.0
C1143 C 0.25641 0.39793 0.58023 0.0
C1144 C 0.24917 0.38658 0.55516 0.0
H1145 H 0.62749 0.28397 0.55576 0.0
H1146 H 0.56428 0.27493 0.57075 0.0
H1147 H 0.55883 0.27467 0.51432 0.0
H1148 H 0.62282 0.31598 0.48767 0.0
H1149 H 0.64421 0.30525 0.46889 0.0
H1150 H 0.64296 0.3061 0.51051 0.0
H1151 H 0.64841 0.26797 0.51283 0.0
H1152 H 0.64963 0.26699 0.47127 0.0
H1153 H 0.63191 0.25178 0.49171 0.0
H1154 H 0.56045 0.27357 0.45647 0.0
H1155 H 0.56906 0.27161 0.40109 0.0
H1156 H 0.63123 0.28125 0.42377 0.0
C1157 C 0.61246 0.28219 0.54721 0.0
C1158 C 0.59631 0.27952 0.56768 0.0
C1159 C 0.5769 0.27702 0.55552 0.0
C1160 C 0.57363 0.2769 0.5235 0.0
C1161 C 0.58992 0.27933 0.50397 0.0
C1162 C 0.60894 0.28198 0.51532 0.0
C1163 C 0.62398 0.2834 0.48933 0.0
C1164 C 0.63409 0.3039 0.48909 0.0
C1165 C 0.63938 0.26653 0.49142 0.0
C1166 C 0.61047 0.2808 0.46162 0.0
C1167 C 0.59087 0.27862 0.47056 0.0
C1168 C 0.57573 0.27541 0.44915 0.0
C1169 C 0.58078 0.27429 0.41775 0.0
C1170 C 0.60082 0.27631 0.40806 0.0
C1171 C 0.61577 0.27977 0.43038 0.0
H1172 H 0.75196 0.3871 0.92925 0.0
H1173 H 0.71748 0.43983 0.90718 0.0
H1174 H 0.71419 0.44726 0.96286 0.0
H1175 H 0.7243 0.37324 0.99776 0.0
H1176 H 0.74606 0.36486 0.01832 0.0
H1177 H 0.7453 0.36348 0.97673 0.0
H1178 H 0.77777 0.38412 0.97356 0.0
H1179 H 0.77861 0.38561 0.01512 0.0
H1180 H 0.77895 0.40804 0.99232 0.0
H1181 H 0.71533 0.44938 0.02094 0.0
H1182 H 0.72048 0.44578 0.07722 0.0
H1183 H 0.75412 0.39161 0.06115 0.0
C1184 C 0.74362 0.40016 0.93609 0.0
C1185 C 0.73496 0.41288 0.91382 0.0
C1186 C 0.72423 0.42985 0.92379 0.0
C1187 C 0.72227 0.4342 0.95537 0.0
C1188 C 0.7311 0.42142 0.97668 0.0
C1189 C 0.74151 0.40472 0.96748 0.0
C1190 C 0.74978 0.39354 0.99502 0.0
C1191 C 0.74082 0.37254 0.99707 0.0
C1192 C 0.77263 0.3928 0.99393 0.0
C1193 C 0.74249 0.40663 0.02115 0.0
C1194 C 0.73173 0.42263 0.0101 0.0
C1195 C 0.72368 0.43688 0.02987 0.0
C1196 C 0.72671 0.43472 0.0618 0.0
C1197 C 0.73769 0.41842 0.07363 0.0
C1198 C 0.74563 0.40423 0.05289 0.0
H1199 H 0.60461 0.68956 0.06339 0.0
H1200 H 0.57802 0.7473 0.08135 0.0
H1201 H 0.57116 0.75128 0.02577 0.0
H1202 H 0.62907 0.703 0.99489 0.0
H1203 H 0.62496 0.67971 0.97528 0.0
H1204 H 0.62613 0.6804 0.01684 0.0
H1205 H 0.59141 0.66382 0.02009 0.0
H1206 H 0.59015 0.66304 0.97846 0.0
H1207 H 0.57066 0.675 0.00023 0.0
H1208 H 0.56981 0.7505 0.96839 0.0
H1209 H 0.57362 0.74473 0.91238 0.0
H1210 H 0.60055 0.68729 0.93112 0.0
C1211 C 0.59706 0.70289 0.0557 0.0
C1212 C 0.59183 0.71809 0.07676 0.0
C1213 C 0.58217 0.73542 0.0657 0.0
C1214 C 0.57814 0.73782 0.03416 0.0
C1215 C 0.58376 0.72271 0.01397 0.0
C1216 C 0.59291 0.70553 0.02423 0.0
C1217 C 0.59837 0.69209 0.9974 0.0
C1218 C 0.62097 0.68861 0.99603 0.0
C1219 C 0.58696 0.67232 0.99916 0.0
C1220 C 0.59128 0.70463 0.97046 0.0
C1221 C 0.58279 0.72218 0.98061 0.0
C1222 C 0.57618 0.73671 0.96012 0.0
C1223 C 0.57847 0.73332 0.92837 0.0
C1224 C 0.58727 0.71552 0.91742 0.0
C1225 C 0.59349 0.7009 0.9388 0.0
H1226 H 0.23761 0.56672 0.07185 0.0
H1227 H 0.28178 0.61182 0.09279 0.0
H1228 H 0.28945 0.61493 0.03717 0.0
H1229 H 0.2641 0.54373 0.00601 0.0
H1230 H 0.24143 0.53984 0.98461 0.0
H1231 H 0.24107 0.5395 0.0263 0.0
H1232 H 0.21392 0.56687 0.0263 0.0
H1233 H 0.21424 0.56734 0.98471 0.0
H1234 H 0.21849 0.58991 0.00621 0.0
H1235 H 0.29041 0.6151 0.97925 0.0
H1236 H 0.28407 0.61282 0.92313 0.0
H1237 H 0.23893 0.56795 0.94005 0.0
C1238 C 0.24918 0.57696 0.06481 0.0
C1239 C 0.25916 0.58896 0.08665 0.0
C1240 C 0.27396 0.60245 0.07645 0.0
C1241 C 0.27848 0.60427 0.04493 0.0
C1242 C 0.2681 0.59248 0.02394 0.0
C1243 C 0.25378 0.57905 0.03344 0.0
C1244 C 0.24374 0.56923 0.00608 0.0
C1245 C 0.24784 0.54674 0.00573 0.0
C1246 C 0.22128 0.57362 0.00582 0.0
C1247 C 0.25429 0.57961 0.97971 0.0
C1248 C 0.26847 0.59276 0.99049 0.0
C1249 C 0.2795 0.60469 0.97051 0.0
C1250 C 0.27577 0.6033 0.93867 0.0
C1251 C 0.26103 0.59019 0.92719 0.0
C1252 C 0.25039 0.57803 0.94806 0.0
H1253 H 0.39095 0.26172 0.93342 0.0
H1254 H 0.4251 0.3158 0.91985 0.0
H1255 H 0.42442 0.32195 0.97624 0.0
H1256 H 0.35975 0.28005 0.99608 0.0
H1257 H 0.35998 0.25657 0.01616 0.0
H1258 H 0.36216 0.25718 0.97463 0.0
H1259 H 0.39499 0.2371 0.97795 0.0
H1260 H 0.39292 0.23641 0.01943 0.0
H1261 H 0.41506 0.24628 0.00164 0.0
H1262 H 0.42134 0.32118 0.03461 0.0
H1263 H 0.41658 0.31329 0.08996 0.0
H1264 H 0.38451 0.2597 0.06449 0.0
C1265 C 0.39814 0.27498 0.94219 0.0
C1266 C 0.40806 0.28831 0.92219 0.0
C1267 C 0.41739 0.3054 0.93471 0.0
C1268 C 0.41704 0.30903 0.9667 0.0
C1269 C 0.40726 0.29548 0.98577 0.0
C1270 C 0.39796 0.27881 0.97393 0.0
C1271 C 0.38917 0.2661 -0.00066 0.0
C1272 C 0.36641 0.26492 0.99637 0.0
C1273 C 0.3986 0.24525 -0.0004 0.0
C1274 C 0.39525 0.27804 0.02743 0.0
C1275 C 0.40554 0.29501 0.01918 0.0
C1276 C 0.41317 0.30801 0.04132 0.0
C1277 C 0.4104 0.3034 0.0727 0.0
C1278 C 0.40015 0.2859 0.0816 0.0
C1279 C 0.39232 0.27325 0.05852 0.0
H1280 H 0.2552 0.03938 0.21584 0.0
H1281 H 0.20328 0.02872 0.15843 0.0
H1282 H 0.19939 0.99555 0.18189 0.0
H1283 H 0.27455 0.98917 0.21354 0.0
H1284 H 0.28271 0.98954 0.25325 0.0
H1285 H 0.28179 0.0123 0.23135 0.0
H1286 H 0.25909 0.02808 0.27313 0.0
H1287 H 0.25992 0.00537 0.29513 0.0
H1288 H 0.2363 0.01575 0.28382 0.0
H1289 H 0.20074 0.96391 0.21187 0.0
H1290 H 0.20701 0.93577 0.24704 0.0
H1291 H 0.25789 0.96699 0.28545 0.0
C1292 C 0.24308 0.03003 0.20807 0.0
C1293 C 0.22956 0.03663 0.18526 0.0
C1294 C 0.21382 0.024 0.17588 0.0
C1295 C 0.21149 0.00511 0.18902 0.0
C1296 C 0.22501 -0.0009 0.21154 0.0
C1297 C 0.24048 0.01115 0.22104 0.0
C1298 C 0.25267 0.00124 0.24616 0.0
C1299 C 0.2742 0.99786 0.23542 0.0
C1300 C 0.25194 0.01333 0.27634 0.0
C1301 C 0.24156 0.98176 0.24933 0.0
C1302 C 0.2257 0.98083 0.22906 0.0
C1303 C 0.21313 0.96442 0.22782 0.0
C1304 C 0.21683 0.94852 0.24791 0.0
C1305 C 0.23294 0.94916 0.26902 0.0
C1306 C 0.24547 0.96603 0.26958 0.0
H1307 H 0.9697 0.2403 0.21871 0.0
H1308 H 0.96069 0.17643 0.21358 0.0
H1309 H 0.99208 0.17107 0.24182 0.0
H1310 H 0.02191 0.23921 0.20603 0.0
H1311 H 0.02731 0.25928 0.23237 0.0
H1312 H 0.00356 0.25821 0.21325 0.0
H1313 H 0.98572 0.25936 0.26636 0.0
H1314 H 0.00944 0.26044 0.28566 0.0
H1315 H 0.99191 0.24119 0.29547 0.0
H1316 H 0.0247 0.17251 0.26927 0.0
H1317 H 0.057 0.18065 0.2931 0.0
H1318 H 0.04514 0.24356 0.2797 0.0
C1319 C 0.97424 0.22519 0.22376 0.0
C1320 C 0.96273 0.20878 0.21401 0.0
C1321 C 0.96928 0.18924 0.2208 0.0
C1322 C 0.98706 0.18603 0.23691 0.0
C1323 C 0.99811 0.20251 0.24601 0.0
C1324 C 0.99201 0.22171 0.23967 0.0
C1325 C 0.00706 0.23678 0.25106 0.0
C1326 C 0.01546 0.24909 0.22406 0.0
C1327 C 0.99799 0.25023 0.27613 0.0
C1328 C 0.02265 0.22302 0.26449 0.0
C1329 C 0.01711 0.20333 0.26154 0.0
C1330 C 0.02919 0.18787 0.27182 0.0
C1331 C 0.0475 0.19266 0.28532 0.0
C1332 C 0.0536 0.21273 0.28824 0.0
C1333 C 0.0409 0.22807 0.27782 0.0
H1334 H 0.76944 0.04684 0.28412 0.0
H1335 H 0.70514 0.05283 0.2848 0.0
H1336 H 0.70225 0.02218 0.25359 0.0
H1337 H 0.77373 0.02877 0.20608 0.0
H1338 H 0.79367 0.01182 0.21507 0.0
H1339 H 0.79064 0.03428 0.23728 0.0
H1340 H 0.78893 0.01358 0.28778 0.0
H1341 H 0.79202 0.99107 0.26576 0.0
H1342 H 0.77089 0.99386 0.29104 0.0
H1343 H 0.70644 0.99067 0.22268 0.0
H1344 H 0.71735 0.96031 0.19535 0.0
H1345 H 0.77889 0.97528 0.21491 0.0
C1346 C 0.75472 0.04173 0.27777 0.0
C1347 C 0.7375 0.05224 0.28694 0.0
C1348 C 0.71855 0.04503 0.27806 0.0
C1349 C 0.71675 0.02766 0.2603 0.0
C1350 C 0.73405 0.01772 0.25157 0.0
C1351 C 0.75267 0.02448 0.26005 0.0
C1352 C 0.76892 0.01099 0.24796 0.0
C1353 C 0.78254 0.02213 0.22525 0.0
C1354 C 0.78089 0.00183 0.27473 0.0
C1355 C 0.75653 0.99547 0.23151 0.0
C1356 C 0.73646 -0.00035 0.23375 0.0
C1357 C 0.72212 0.98727 0.22072 0.0
C1358 C 0.72847 0.97007 0.20522 0.0
C1359 C 0.74898 0.96541 0.20295 0.0
C1360 C 0.76312 0.97843 0.21611 0.0
H1361 H 0.02622 0.73975 0.22791 0.0
H1362 H 0.02657 0.79005 0.16488 0.0
H1363 H 0.99228 0.7982 0.18 0.0
H1364 H 0.97395 0.72601 0.21621 0.0
H1365 H 0.97011 0.71966 0.25627 0.0
H1366 H 0.99437 0.71681 0.23912 0.0
H1367 H 0.00952 0.73918 0.28185 0.0
H1368 H 0.98533 0.74214 0.29907 0.0
H1369 H -0.00049 0.76374 0.28804 0.0
H1370 H 0.95891 0.80205 0.20312 0.0
H1371 H 0.92804 0.80158 0.23362 0.0
H1372 H 0.94879 0.74906 0.28247 0.0
C1373 C 0.01897 0.75232 0.21704 0.0
C1374 C 0.02907 0.76425 0.19517 0.0
C1375 C 0.01917 0.78071 0.18172 0.0
C1376 C -0.00035 0.78545 0.19007 0.0
C1377 C 0.9902 0.77358 0.21191 0.0
C1378 C -0.00056 0.75735 0.22525 0.0
C1379 C 0.98609 0.74764 0.24915 0.0
C1380 C 0.98082 0.72626 0.23961 0.0
C1381 C 0.99569 0.74822 0.28144 0.0
C1382 C 0.96808 0.76117 0.2474 0.0
C1383 C 0.97077 0.77591 0.22557 0.0
C1384 C 0.95653 0.79051 0.22016 0.0
C1385 C 0.93905 0.79012 0.23767 0.0
C1386 C 0.93596 0.77528 0.26041 0.0
C1387 C 0.95066 0.76053 0.26513 0.0
H1388 H 0.7728 0.97236 0.78815 0.0
H1389 H 0.71398 0.9459 0.79281 0.0
H1390 H 0.69957 0.97634 0.77014 0.0
H1391 H 0.75769 0.02262 0.80719 0.0
H1392 H 0.7752 0.03386 0.78092 0.0
H1393 H 0.78076 0.01019 0.79839 0.0
H1394 H 0.78589 0.99475 0.74402 0.0
H1395 H 0.78031 0.01834 0.72639 0.0
H1396 H 0.76629 0.99656 0.71571 0.0
H1397 H 0.69172 0.00931 0.74541 0.0
H1398 H 0.69102 0.04253 0.72103 0.0
H1399 H 0.75497 0.04727 0.73292 0.0
C1400 C 0.75687 0.97299 0.7846 0.0
C1401 C 0.74452 0.95674 0.79227 0.0
C1402 C 0.72375 0.95816 0.78714 0.0
C1403 C 0.71541 0.97539 0.77428 0.0
C1404 C 0.72804 0.99107 0.76677 0.0
C1405 C 0.74831 0.99005 0.77182 0.0
C1406 C 0.75865 0.00883 0.76122 0.0
C1407 C 0.76866 0.0195 0.78856 0.0
C1408 C 0.77367 0.00434 0.73529 0.0
C1409 C 0.74104 0.02051 0.7492 0.0
C1410 C 0.72351 0.01004 0.75264 0.0
C1411 C 0.70534 0.01769 0.74271 0.0
C1412 C 0.7051 0.03656 0.72887 0.0
C1413 C 0.72292 0.04752 0.72511 0.0
C1414 C 0.74107 0.03932 0.73555 0.0
H1415 H 0.95794 0.76857 0.718 0.0
H1416 H 0.96952 0.72695 0.6433 0.0
H1417 H 0.0035 0.72167 0.66328 0.0
H1418 H 0.00642 0.79083 0.71954 0.0
H1419 H 0.00698 0.79325 0.76105 0.0
H1420 H 0.98356 0.79375 0.74085 0.0
H1421 H 0.97073 0.7647 0.77481 0.0
H1422 H 0.9941 0.76411 0.79512 0.0
H1423 H 0.98482 0.74192 0.77671 0.0
H1424 H 0.03627 0.72112 0.69112 0.0
H1425 H 0.0654 0.72499 0.72533 0.0
H1426 H 0.03219 0.76668 0.78211 0.0
C1427 C 0.9676 0.75834 0.70581 0.0
C1428 C 0.96107 0.74818 0.67906 0.0
C1429 C 0.97418 0.73489 0.66385 0.0
C1430 C 0.99352 0.7318 0.67499 0.0
C1431 C -0.00053 0.74206 0.7014 0.0
C1432 C 0.9869 0.75503 0.71666 0.0
C1433 C 0.99692 0.76412 0.74464 0.0
C1434 C 0.99857 0.78684 0.7413 0.0
C1435 C 0.98599 0.75836 0.77459 0.0
C1436 C 0.01711 0.75427 0.74271 0.0
C1437 C 0.01829 0.74162 0.71759 0.0
C1438 C 0.03552 0.73096 0.71091 0.0
C1439 C 0.05199 0.73327 0.73047 0.0
C1440 C 0.05108 0.74611 0.75642 0.0
C1441 C 0.03336 0.75671 0.76252 0.0
H1442 H 0.25089 0.96271 0.71605 0.0
H1443 H 0.19 0.96397 0.68254 0.0
H1444 H 0.18552 0.99727 0.70532 0.0
H1445 H 0.24152 0.98704 0.78836 0.0
H1446 H 0.26446 0.0009 0.78809 0.0
H1447 H 0.26306 0.97722 0.76877 0.0
H1448 H 0.27491 0.9936 0.71775 0.0
H1449 H 0.27636 0.01734 0.73691 0.0
H1450 H 0.2615 0.01463 0.70247 0.0
H1451 H 0.18735 0.02998 0.7322 0.0
H1452 H 0.19546 0.06042 0.76127 0.0
H1453 H 0.25526 0.0382 0.77715 0.0
C1454 C 0.23663 0.97 0.71345 0.0
C1455 C 0.22079 0.96074 0.69752 0.0
C1456 C 0.20236 0.97077 0.69462 0.0
C1457 C 0.19965 0.98969 0.70748 0.0
C1458 C 0.21553 0.99838 0.72308 0.0
C1459 C 0.23367 0.98892 0.7261 0.0
C1460 C 0.24826 0.00156 0.74415 0.0
C1461 C 0.2547 0.99105 0.77412 0.0
C1462 C 0.26632 0.00711 0.72412 0.0
C1463 C 0.23544 0.01955 0.75091 0.0
C1464 C 0.21663 0.01738 0.73852 0.0
C1465 C 0.20204 0.0319 0.74196 0.0
C1466 C 0.20681 0.04913 0.75854 0.0
C1467 C 0.226 0.05171 0.77146 0.0
C1468 C 0.24048 0.0367 0.76747 0.0
H1469 H 0.96622 0.23515 0.76336 0.0
H1470 H 0.95566 0.17145 0.76365 0.0
H1471 H 0.98744 0.16618 0.73621 0.0
H1472 H 0.98968 0.23771 0.68756 0.0
H1473 H 0.0073 0.25637 0.69954 0.0
H1474 H 0.98319 0.25514 0.7176 0.0
H1475 H -4e-05 0.25223 0.7714 0.0
H1476 H 0.0241 0.25339 0.75352 0.0
H1477 H 0.01783 0.23272 0.77818 0.0
H1478 H 0.02099 0.16782 0.71057 0.0
H1479 H 0.05392 0.17622 0.68891 0.0
H1480 H 0.04244 0.23882 0.70605 0.0
C1481 C 0.97046 0.2201 0.75739 0.0
C1482 C 0.95843 0.20371 0.76558 0.0
C1483 C 0.96462 0.18424 0.75757 0.0
C1484 C 0.98263 0.18109 0.74195 0.0
C1485 C 0.99423 0.19758 0.73452 0.0
C1486 C 0.98837 0.21669 0.74192 0.0
C1487 C 0.00386 0.2318 0.73233 0.0
C1488 C 0.9955 0.24609 0.7078 0.0
C1489 C 0.01191 0.2432 0.76054 0.0
C1490 C 0.01946 0.21817 0.71872 0.0
C1491 C 0.01359 0.1985 0.72 0.0
C1492 C 0.02572 0.18318 0.70931 0.0
C1493 C 0.04439 0.1881 0.69707 0.0
C1494 C 0.05076 0.20817 0.69579 0.0
C1495 C 0.03802 0.22334 0.70666 0.0
H1496 H 0.73136 0.52071 0.71679 0.0
H1497 H 0.78961 0.54728 0.72992 0.0
H1498 H 0.80104 0.51674 0.75617 0.0
H1499 H 0.72889 0.49622 0.78955 0.0
H1500 H 0.71648 0.47447 0.77467 0.0
H1501 H 0.71313 0.49815 0.75596 0.0
H1502 H 0.72488 0.48295 0.70396 0.0
H1503 H 0.72824 0.45921 0.72251 0.0
H1504 H 0.74863 0.47057 0.70204 0.0
H1505 H 0.80574 0.48368 0.78253 0.0
H1506 H 0.80345 0.45039 0.80646 0.0
H1507 H 0.74218 0.44564 0.77558 0.0
C1508 C 0.74656 0.5201 0.725 0.0
C1509 C 0.75959 0.53638 0.72129 0.0
C1510 C 0.77935 0.53497 0.73248 0.0
C1511 C 0.78599 0.51769 0.74741 0.0
C1512 C 0.77271 0.50197 0.75087 0.0
C1513 C 0.75343 0.50299 0.7399 0.0
C1514 C 0.74201 0.48416 0.74703 0.0
C1515 C 0.72407 0.48852 0.76805 0.0
C1516 C 0.73557 0.4736 0.7171 0.0
C1517 C 0.75784 0.47245 0.76393 0.0
C1518 C 0.77545 0.48294 0.76589 0.0
C1519 C 0.79206 0.47527 0.78102 0.0
C1520 C 0.7906 0.45637 0.79456 0.0
C1521 C 0.77267 0.44539 0.79283 0.0
C1522 C 0.75614 0.45359 0.77719 0.0
H1523 H 0.54597 0.74255 0.75523 0.0
H1524 H 0.52158 0.70665 0.82963 0.0
H1525 H 0.48778 0.71249 0.80962 0.0
H1526 H 0.50691 0.77902 0.75305 0.0
H1527 H 0.50702 0.7813 0.71151 0.0
H1528 H 0.52947 0.77448 0.73164 0.0
H1529 H 0.53244 0.74267 0.69811 0.0
H1530 H 0.51008 0.74946 0.67776 0.0
H1531 H 0.51184 0.72555 0.69639 0.0
H1532 H 0.45674 0.72265 0.78263 0.0
H1533 H 0.43026 0.73461 0.74802 0.0
H1534 H 0.47454 0.76326 0.68999 0.0
C1535 C 0.53352 0.73589 0.76728 0.0
C1536 C 0.53642 0.72417 0.79405 0.0
C1537 C 0.51975 0.71565 0.80906 0.0
C1538 C 0.50047 0.71893 0.79794 0.0
C1539 C 0.49812 0.73067 0.77169 0.0
C1540 C 0.51415 0.73889 0.75635 0.0
C1541 C 0.50744 0.75057 0.72823 0.0
C1542 C 0.51304 0.77265 0.73131 0.0
C1543 C 0.51595 0.74151 0.69836 0.0
C1544 C 0.48514 0.74764 0.73025 0.0
C1545 C 0.48012 0.73623 0.75565 0.0
C1546 C 0.46047 0.73155 0.7626 0.0
C1547 C 0.44553 0.73847 0.7428 0.0
C1548 C 0.45031 0.74986 0.71622 0.0
C1549 C 0.4704 0.75459 0.71008 0.0
H1550 H 0.28788 0.46351 0.71523 0.0
H1551 H 0.22721 0.44576 0.73594 0.0
H1552 H 0.22199 0.47722 0.76403 0.0
H1553 H 0.29764 0.4879 0.78843 0.0
H1554 H 0.31216 0.50752 0.77121 0.0
H1555 H 0.31134 0.48335 0.75329 0.0
H1556 H 0.29941 0.49938 0.70203 0.0
H1557 H 0.30016 0.52359 0.7198 0.0
H1558 H 0.27751 0.51485 0.70213 0.0
H1559 H 0.22294 0.51077 0.78852 0.0
H1560 H 0.23013 0.54434 0.80847 0.0
H1561 H 0.29024 0.5403 0.77221 0.0
C1562 C 0.27353 0.46618 0.72579 0.0
C1563 C 0.25796 0.45217 0.72338 0.0
C1564 C 0.23937 0.45627 0.73747 0.0
C1565 C 0.23625 0.47409 0.75351 0.0
C1566 C 0.25186 0.48761 0.7553 0.0
C1567 C 0.27014 0.48389 0.74192 0.0
C1568 C 0.28432 0.50109 0.7469 0.0
C1569 C 0.30244 0.49457 0.76611 0.0
C1570 C 0.29072 0.51027 0.71587 0.0
C1571 C 0.27108 0.5151 0.76499 0.0
C1572 C 0.25243 0.50701 0.76959 0.0
C1573 C 0.2375 0.51725 0.78519 0.0
C1574 C 0.24174 0.53632 0.79638 0.0
C1575 C 0.26075 0.54494 0.79193 0.0
C1576 C 0.2756 0.53409 0.7761 0.0
H1577 H 0.46041 0.25813 0.78723 0.0
H1578 H 0.43815 0.31804 0.77261 0.0
H1579 H 0.46811 0.32608 0.74226 0.0
H1580 H 0.51236 0.27145 0.79495 0.0
H1581 H 0.5211 0.2497 0.77472 0.0
H1582 H 0.4981 0.24877 0.79601 0.0
H1583 H 0.47966 0.23702 0.74664 0.0
H1584 H 0.50258 0.23798 0.72518 0.0
H1585 H 0.48123 0.25174 0.71188 0.0
H1586 H 0.50001 0.32751 0.71271 0.0
H1587 H 0.53205 0.32229 0.68617 0.0
H1588 H 0.53357 0.26143 0.71975 0.0
C1589 C 0.46188 0.27298 0.77781 0.0
C1590 C 0.44693 0.28747 0.78233 0.0
C1591 C 0.44939 0.30669 0.76947 0.0
C1592 C 0.46636 0.31142 0.7522 0.0
C1593 C 0.48073 0.29676 0.74798 0.0
C1594 C 0.47871 0.27795 0.76044 0.0
C1595 C 0.49624 0.26487 0.75205 0.0
C1596 C 0.50762 0.25832 0.78117 0.0
C1597 C 0.48952 0.24684 0.73279 0.0
C1598 C 0.50836 0.27925 0.73282 0.0
C1599 C 0.49915 0.29757 0.73082 0.0
C1600 C 0.5074 0.31324 0.71414 0.0
C1601 C 0.5256 0.31012 0.69913 0.0
C1602 C 0.53533 0.29146 0.70087 0.0
C1603 C 0.52652 0.27587 0.71797 0.0
H1604 H 0.28717 0.53455 0.21616 0.0
H1605 H 0.22455 0.54991 0.22272 0.0
H1606 H 0.21767 0.51747 0.2469 0.0
H1607 H 0.27997 0.48251 0.19821 0.0
H1608 H 0.30094 0.47437 0.22088 0.0
H1609 H 0.30101 0.49875 0.20362 0.0
H1610 H 0.30723 0.51455 0.25744 0.0
H1611 H 0.30715 0.49023 0.27487 0.0
H1612 H 0.2904 0.50915 0.2888 0.0
H1613 H 0.21751 0.48388 0.27103 0.0
H1614 H 0.22402 0.45083 0.29337 0.0
H1615 H 0.28673 0.45699 0.27115 0.0
C1616 C 0.272 0.53107 0.22258 0.0
C1617 C 0.25641 0.54479 0.21756 0.0
C1618 C 0.23676 0.53967 0.22635 0.0
C1619 C 0.23268 0.52127 0.2401 0.0
C1620 C 0.24839 0.50815 0.24485 0.0
C1621 C 0.26765 0.51275 0.23635 0.0
C1622 C 0.2818 0.49599 0.24433 0.0
C1623 C 0.2915 0.4874 0.21501 0.0
C1624 C 0.29757 0.5029 0.26775 0.0
C1625 C 0.26747 0.4813 0.25876 0.0
C1626 C 0.24828 0.48864 0.25878 0.0
C1627 C 0.23246 0.47793 0.2711 0.0
C1628 C 0.23633 0.45917 0.28376 0.0
C1629 C 0.25589 0.4513 0.284 0.0
C1630 C 0.27162 0.46256 0.27126 0.0
H1631 H 0.52659 0.29301 0.28385 0.0
H1632 H 0.5516 0.23656 0.25433 0.0
H1633 H 0.52036 0.2287 0.22695 0.0
H1634 H 0.47715 0.27528 0.29739 0.0
H1635 H 0.46537 0.29759 0.28329 0.0
H1636 H 0.4898 0.29885 0.30022 0.0
H1637 H 0.50328 0.31561 0.25046 0.0
H1638 H 0.47888 0.3144 0.23338 0.0
H1639 H 0.49983 0.30351 0.21364 0.0
H1640 H 0.48625 0.22689 0.20316 0.0
H1641 H 0.45177 0.23131 0.1847 0.0
H1642 H 0.4493 0.28895 0.22987 0.0
C1643 C 0.52554 0.279 0.2716 0.0
C1644 C 0.54155 0.2654 0.27123 0.0
C1645 C 0.53953 0.24722 0.25493 0.0
C1646 C 0.52185 0.24262 0.2393 0.0
C1647 C 0.50636 0.25635 0.24018 0.0
C1648 C 0.50803 0.27417 0.25589 0.0
C1649 C 0.48915 0.28631 0.25342 0.0
C1650 C 0.47982 0.2897 0.28549 0.0
C1651 C 0.49303 0.30613 0.23672 0.0
C1652 C 0.47658 0.27251 0.23392 0.0
C1653 C 0.48676 0.25531 0.22649 0.0
C1654 C 0.47813 0.24031 0.20879 0.0
C1655 C 0.45855 0.24295 0.19843 0.0
C1656 C 0.44784 0.26048 0.20583 0.0
C1657 C 0.45707 0.2754 0.22377 0.0
H1658 H 0.72537 0.52146 0.28714 0.0
H1659 H 0.78262 0.55119 0.28291 0.0
H1660 H 0.79594 0.52353 0.25147 0.0
H1661 H 0.74438 0.47169 0.29372 0.0
H1662 H 0.72506 0.46099 0.27009 0.0
H1663 H 0.72015 0.48312 0.29228 0.0
H1664 H 0.70905 0.5014 0.24239 0.0
H1665 H 0.71395 0.47934 0.22005 0.0
H1666 H 0.72571 0.50249 0.20976 0.0
H1667 H 0.80284 0.49261 0.21995 0.0
H1668 H 0.80287 0.46071 0.19149 0.0
H1669 H 0.74108 0.45152 0.21691 0.0
C1670 C 0.74072 0.52218 0.27967 0.0
C1671 C 0.75295 0.5385 0.28749 0.0
C1672 C 0.77297 0.53883 0.27723 0.0
C1673 C 0.78067 0.5232 0.25934 0.0
C1674 C 0.76817 0.50736 0.25199 0.0
C1675 C 0.74864 0.50674 0.26188 0.0
C1676 C 0.73829 0.48807 0.25087 0.0
C1677 C 0.73158 0.47521 0.27838 0.0
C1678 C 0.72071 0.49314 0.2295 0.0
C1679 C 0.75503 0.47827 0.23317 0.0
C1680 C 0.77215 0.48961 0.23403 0.0
C1681 C 0.78953 0.48359 0.21916 0.0
C1682 C 0.7894 0.46546 0.20304 0.0
C1683 C 0.772 0.4536 0.20199 0.0
C1684 C 0.75465 0.46019 0.2173 0.0
H1685 H 0.45629 0.70682 0.27148 0.0
H1686 H 0.45736 0.76783 0.30446 0.0
H1687 H 0.49064 0.77231 0.28156 0.0
H1688 H 0.50792 0.69621 0.28502 0.0
H1689 H 0.51068 0.68128 0.25065 0.0
H1690 H 0.4869 0.68283 0.26965 0.0
H1691 H 0.47066 0.69469 0.21849 0.0
H1692 H 0.49439 0.69316 0.19933 0.0
H1693 H 0.48061 0.71615 0.19888 0.0
H1694 H 0.52375 0.77016 0.25545 0.0
H1695 H 0.55439 0.76171 0.22701 0.0
H1696 H 0.53167 0.70216 0.2107 0.0
C1697 C 0.4635 0.72113 0.27391 0.0
C1698 C 0.45422 0.73697 0.28979 0.0
C1699 C 0.46417 0.75547 0.29239 0.0
C1700 C 0.48309 0.75816 0.27949 0.0
C1701 C 0.49182 0.74223 0.26404 0.0
C1702 C 0.48236 0.72409 0.26112 0.0
C1703 C 0.495 0.70943 0.24322 0.0
C1704 C 0.50045 0.69137 0.26334 0.0
C1705 C 0.48454 0.70298 0.2132 0.0
C1706 C 0.51303 0.72218 0.23653 0.0
C1707 C 0.5109 0.74103 0.2488 0.0
C1708 C 0.5256 0.75545 0.2457 0.0
C1709 C 0.54295 0.75049 0.22952 0.0
C1710 C 0.54543 0.73127 0.2166 0.0
C1711 C 0.53023 0.71697 0.22026 0.0
H1712 H 0.20502 0.12577 0.22232 0.0
H1713 H 0.22127 0.16932 0.15258 0.0
H1714 H 0.19883 0.19375 0.17694 0.0
H1715 H 0.15347 0.13936 0.22828 0.0
H1716 H 0.15234 0.1356 0.26953 0.0
H1717 H 0.16961 0.12144 0.24651 0.0
H1718 H 0.19872 0.13375 0.28081 0.0
H1719 H 0.18155 0.14795 0.30393 0.0
H1720 H 0.20249 0.16008 0.28602 0.0
H1721 H 0.17452 0.21328 0.20832 0.0
H1722 H 0.15038 0.22702 0.24549 0.0
H1723 H 0.15034 0.17099 0.2955 0.0
C1724 C 0.20384 0.14043 0.21212 0.0
C1725 C 0.21486 0.14564 0.18551 0.0
C1726 C 0.21298 0.165 0.17297 0.0
C1727 C 0.20026 0.17898 0.18661 0.0
C1728 C 0.18962 0.17337 0.21282 0.0
C1729 C 0.1913 0.15461 0.22553 0.0
C1730 C 0.17835 0.15246 0.254 0.0
C1731 C 0.1625 0.13626 0.24928 0.0
C1732 C 0.19104 0.14832 0.28289 0.0
C1733 C 0.16908 0.17296 0.25524 0.0
C1734 C 0.17575 0.18475 0.23121 0.0
C1735 C 0.1692 0.20421 0.22728 0.0
C1736 C 0.15547 0.21186 0.24851 0.0
C1737 C 0.14848 0.20009 0.27344 0.0
C1738 C 0.15544 0.18039 0.27677 0.0
H1739 H 0.85778 0.20515 0.25366 0.0
H1740 H 0.88604 0.17039 0.18129 0.0
H1741 H 0.86796 0.14054 0.19895 0.0
H1742 H 0.85776 0.167 0.31244 0.0
H1743 H 0.83368 0.17383 0.32736 0.0
H1744 H 0.8493 0.19237 0.30966 0.0
H1745 H 0.82106 0.20125 0.27126 0.0
H1746 H 0.80532 0.18283 0.28895 0.0
H1747 H 0.81011 0.1819 0.24795 0.0
H1748 H 0.84664 0.11457 0.22418 0.0
H1749 H 0.82211 0.09471 0.2533 0.0
H1750 H 0.80745 0.14661 0.30865 0.0
C1751 C 0.86023 0.19125 0.24159 0.0
C1752 C 0.87336 0.19008 0.21616 0.0
C1753 C 0.87602 0.17164 0.20081 0.0
C1754 C 0.86589 0.15459 0.21074 0.0
C1755 C 0.85311 0.15624 0.23596 0.0
C1756 C 0.85015 0.17412 0.25105 0.0
C1757 C 0.83507 0.17203 0.27683 0.0
C1758 C 0.84452 0.17658 0.30844 0.0
C1759 C 0.81681 0.18529 0.27088 0.0
C1760 C 0.82995 0.15021 0.27378 0.0
C1761 C 0.84063 0.14133 0.25023 0.0
C1762 C 0.83821 0.12134 0.24272 0.0
C1763 C 0.82426 0.11018 0.25944 0.0
C1764 C 0.81285 0.11909 0.28325 0.0
C1765 C 0.81597 0.13932 0.29066 0.0
H1766 H 0.84656 0.79753 0.26918 0.0
H1767 H 0.86628 0.84308 0.33344 0.0
H1768 H 0.84608 0.86798 0.30551 0.0
H1769 H 0.84694 0.82808 0.20121 0.0
H1770 H 0.82502 0.81679 0.18486 0.0
H1771 H 0.84095 0.80257 0.20999 0.0
H1772 H 0.81099 0.79478 0.24572 0.0
H1773 H 0.79495 0.80887 0.22061 0.0
H1774 H 0.7964 0.81497 0.26115 0.0
H1775 H 0.82373 0.88789 0.27037 0.0
H1776 H 0.8001 0.90108 0.23176 0.0
H1777 H 0.79527 0.84234 0.19064 0.0
C1778 C 0.84661 0.81272 0.2775 0.0
C1779 C 0.85801 0.81836 0.30353 0.0
C1780 C 0.85766 0.83841 0.31357 0.0
C1781 C 0.84627 0.85267 0.29782 0.0
C1782 C 0.83534 0.84662 0.2721 0.0
C1783 C 0.83538 0.82711 0.26208 0.0
C1784 C 0.82227 0.8244 0.23394 0.0
C1785 C 0.83453 0.81756 0.20584 0.0
C1786 C 0.80514 0.8099 0.24078 0.0
C1787 C 0.81477 0.84543 0.22975 0.0
C1788 C 0.82252 0.85805 0.25191 0.0
C1789 C 0.81758 0.87815 0.25289 0.0
C1790 C 0.80416 0.8855 0.23082 0.0
C1791 C 0.79583 0.87275 0.20815 0.0
C1792 C 0.8014 0.8525 0.20758 0.0
H1793 H 0.19887 0.84753 0.26294 0.0
H1794 H 0.17558 0.83699 0.35505 0.0
H1795 H 0.15125 0.81308 0.33342 0.0
H1796 H 0.15305 0.84432 0.22126 0.0
H1797 H 0.16368 0.83131 0.18876 0.0
H1798 H 0.17885 0.84791 0.21139 0.0
H1799 H 0.20407 0.81948 0.22136 0.0
H1800 H 0.18903 0.80281 0.19867 0.0
H1801 H 0.1955 0.79641 0.23788 0.0
H1802 H 0.1284 0.7919 0.30122 0.0
H1803 H 0.11105 0.77178 0.26174 0.0
H1804 H 0.15129 0.79399 0.19133 0.0
C1805 C 0.18859 0.84022 0.27851 0.0
C1806 C 0.18888 0.84418 0.31058 0.0
C1807 C 0.17552 0.83411 0.33039 0.0
C1808 C 0.16164 0.82061 0.31831 0.0
C1809 C 0.16166 0.81712 0.28651 0.0
C1810 C 0.175 0.82639 0.26696 0.0
C1811 C 0.1725 0.81941 0.23388 0.0
C1812 C 0.16667 0.83678 0.21258 0.0
C1813 C 0.1914 0.8089 0.22228 0.0
C1814 C 0.1555 0.80491 0.23779 0.0
C1815 C 0.14928 0.80402 0.26826 0.0
C1816 C 0.13326 0.7923 0.27737 0.0
C1817 C 0.12346 0.78103 0.25478 0.0
C1818 C 0.12996 0.7813 0.22362 0.0
C1819 C 0.14619 0.79337 0.21508 0.0
H1820 H 0.8632 0.79942 0.72617 0.0
H1821 H 0.88221 0.84801 0.66704 0.0
H1822 H 0.85949 0.87073 0.69485 0.0
H1823 H 0.81252 0.81244 0.72895 0.0
H1824 H 0.80914 0.80525 0.76877 0.0
H1825 H 0.82786 0.79323 0.74562 0.0
H1826 H 0.85477 0.80277 0.7859 0.0
H1827 H 0.83611 0.8148 0.80925 0.0
H1828 H 0.85776 0.82846 0.7969 0.0
H1829 H 0.83328 0.88766 0.72742 0.0
H1830 H 0.80581 0.89747 0.76218 0.0
H1831 H 0.80426 0.83761 0.79974 0.0
C1832 C 0.86279 0.81488 0.71922 0.0
C1833 C 0.87453 0.82194 0.69443 0.0
C1834 C 0.8734 0.84226 0.686 0.0
C1835 C 0.86055 0.85529 0.70167 0.0
C1836 C 0.84902 0.84775 0.72577 0.0
C1837 C 0.85009 0.82803 0.73456 0.0
C1838 C 0.83564 0.82344 0.76042 0.0
C1839 C 0.82039 0.80766 0.75032 0.0
C1840 C 0.84674 0.81699 0.78986 0.0
C1841 C 0.82601 0.84359 0.76452 0.0
C1842 C 0.834 0.85746 0.74446 0.0
C1843 C 0.82702 0.87696 0.74338 0.0
C1844 C 0.8114 0.88238 0.76318 0.0
C1845 C 0.8029 0.86832 0.78373 0.0
C1846 C 0.81049 0.84875 0.78446 0.0
H1847 H 0.20825 0.82989 0.69216 0.0
H1848 H 0.18669 0.88772 0.72183 0.0
H1849 H 0.16016 0.87143 0.75195 0.0
H1850 H 0.15995 0.80695 0.68388 0.0
H1851 H 0.16822 0.78311 0.69797 0.0
H1852 H 0.18543 0.79937 0.67852 0.0
H1853 H 0.20902 0.79784 0.72587 0.0
H1854 H 0.19184 0.78164 0.74551 0.0
H1855 H 0.19969 0.80449 0.76358 0.0
H1856 H 0.13654 0.84884 0.78012 0.0
H1857 H 0.11662 0.8215 0.8024 0.0
H1858 H 0.15324 0.77856 0.75354 0.0
C1859 C 0.19792 0.83914 0.70488 0.0
C1860 C 0.19959 0.86008 0.70465 0.0
C1861 C 0.18572 0.87164 0.72161 0.0
C1862 C 0.17061 0.86254 0.73885 0.0
C1863 C 0.16949 0.84187 0.73879 0.0
C1864 C 0.18268 0.83031 0.72211 0.0
C1865 C 0.17818 0.80839 0.7259 0.0
C1866 C 0.17261 0.7989 0.69471 0.0
C1867 C 0.19573 0.79745 0.74113 0.0
C1868 C 0.16044 0.80945 0.74738 0.0
C1869 C 0.1557 0.82888 0.75465 0.0
C1870 C 0.14005 0.83356 0.77449 0.0
C1871 C 0.12885 0.81793 0.78708 0.0
C1872 C 0.13332 0.79791 0.77963 0.0
C1873 C 0.14937 0.79371 0.75956 0.0
H1874 H 0.1535 0.17298 0.68999 0.0
H1875 H 0.14708 0.22736 0.74328 0.0
H1876 H 0.17223 0.21529 0.78034 0.0
H1877 H 0.15906 0.14025 0.75473 0.0
H1878 H 0.17711 0.12457 0.73589 0.0
H1879 H 0.15887 0.13767 0.71322 0.0
H1880 H 0.18701 0.15386 0.6809 0.0
H1881 H 0.20534 0.14081 0.70351 0.0
H1882 H 0.20642 0.16751 0.70031 0.0
H1883 H 0.19789 0.19716 0.81192 0.0
H1884 H 0.2218 0.17396 0.83607 0.0
H1885 H 0.21122 0.13154 0.76211 0.0
C1886 C 0.1574 0.18238 0.7094 0.0
C1887 C 0.14832 0.20112 0.7137 0.0
C1888 C 0.15381 0.21293 0.73949 0.0
C1889 C 0.16811 0.20623 0.76066 0.0
C1890 C 0.17676 0.18769 0.75574 0.0
C1891 C 0.1716 0.17592 0.73078 0.0
C1892 C 0.18291 0.15647 0.73102 0.0
C1893 C 0.16863 0.13869 0.7339 0.0
C1894 C 0.19621 0.15456 0.70223 0.0
C1895 C 0.19518 0.15912 0.76006 0.0
C1896 C 0.19148 0.17724 0.77395 0.0
C1897 C 0.20095 0.18293 0.80123 0.0
C1898 C 0.2145 0.16966 0.81476 0.0
C1899 C 0.21841 0.15095 0.80098 0.0
C1900 C 0.20863 0.14575 0.7732 0.0
H1901 H 0.87254 0.18139 0.77018 0.0
H1902 H 0.8334 0.20932 0.8373 0.0
H1903 H 0.80547 0.189 0.81826 0.0
H1904 H 0.83769 0.17959 0.70876 0.0
H1905 H 0.84573 0.15576 0.69433 0.0
H1906 H 0.86303 0.17162 0.71434 0.0
H1907 H 0.87061 0.14334 0.75329 0.0
H1908 H 0.85338 0.12734 0.73332 0.0
H1909 H 0.85045 0.13186 0.77416 0.0
H1910 H 0.78156 0.16704 0.79065 0.0
H1911 H 0.76303 0.14427 0.75666 0.0
H1912 H 0.81754 0.13036 0.70721 0.0
C1913 C 0.85815 0.18308 0.78111 0.0
C1914 C 0.85516 0.19693 0.80528 0.0
C1915 C 0.83606 0.19881 0.81878 0.0
C1916 C 0.8201 0.18732 0.80815 0.0
C1917 C 0.82349 0.174 0.78406 0.0
C1918 C 0.84202 0.17174 0.77075 0.0
C1919 C 0.84147 0.15677 0.74454 0.0
C1920 C 0.84732 0.16652 0.71367 0.0
C1921 C 0.85476 0.13876 0.75177 0.0
C1922 C 0.81966 0.15116 0.74499 0.0
C1923 C 0.80961 0.16124 0.76805 0.0
C1924 C 0.78927 0.15896 0.77263 0.0
C1925 C 0.77888 0.14601 0.75311 0.0
C1926 C 0.78883 0.13549 0.72926 0.0
C1927 C 0.80953 0.1381 0.7253 0.0
H1928 H 0.67858 0.62904 0.69699 0.0
H1929 H 0.72115 0.61291 0.76823 0.0
H1930 H 0.7016 0.63157 0.8067 0.0
H1931 H 0.67151 0.67783 0.7211 0.0
H1932 H 0.64528 0.67886 0.71263 0.0
H1933 H 0.66111 0.6622 0.69133 0.0
H1934 H 0.63875 0.63246 0.70688 0.0
H1935 H 0.62277 0.64907 0.72816 0.0
H1936 H 0.63368 0.62787 0.7472 0.0
H1937 H 0.67984 0.65476 0.83606 0.0
H1938 H 0.65672 0.68059 0.85473 0.0
H1939 H 0.62785 0.68153 0.76494 0.0
C1940 C 0.68354 0.62906 0.72081 0.0
C1941 C 0.70138 0.61947 0.7296 0.0
C1942 C 0.70754 0.62013 0.76093 0.0
C1943 C 0.6965 0.63064 0.783 0.0
C1944 C 0.67926 0.64032 0.77346 0.0
C1945 C 0.6727 0.63952 0.74318 0.0
C1946 C 0.65444 0.65241 0.7386 0.0
C1947 C 0.65833 0.66879 0.7145 0.0
C1948 C 0.63634 0.63969 0.72969 0.0
C1949 C 0.65215 0.66101 0.7708 0.0
C1950 C 0.66653 0.65368 0.79059 0.0
C1951 C 0.66831 0.66039 0.82095 0.0
C1952 C 0.65517 0.67512 0.83129 0.0
C1953 C 0.64043 0.68298 0.81135 0.0
C1954 C 0.63876 0.67558 0.78086 0.0
H1955 H 0.30525 0.66609 0.82975 0.0
H1956 H 0.29203 0.62613 0.75354 0.0
H1957 H 0.31212 0.64711 0.71862 0.0
H1958 H 0.30266 0.71113 0.78646 0.0
H1959 H 0.32285 0.72292 0.80685 0.0
H1960 H 0.30786 0.70449 0.82604 0.0
H1961 H 0.33948 0.68398 0.8387 0.0
H1962 H 0.35458 0.70241 0.81969 0.0
H1963 H 0.35597 0.67675 0.8078 0.0
H1964 H 0.33302 0.67289 0.69178 0.0
H1965 H 0.354 0.7011 0.67532 0.0
H1966 H 0.35347 0.72401 0.76925 0.0
C1967 C 0.30666 0.66165 0.80577 0.0
C1968 C 0.29707 0.64446 0.79438 0.0
C1969 C 0.29926 0.63923 0.7628 0.0
C1970 C 0.31062 0.65106 0.74277 0.0
C1971 C 0.3197 0.66802 0.75471 0.0
C1972 C 0.31792 0.67326 0.78549 0.0
C1973 C 0.32904 0.6923 0.79246 0.0
C1974 C 0.31474 0.70867 0.8036 0.0
C1975 C 0.34576 0.68863 0.81605 0.0
C1976 C 0.33732 0.69698 0.76076 0.0
C1977 C 0.33175 0.68282 0.73929 0.0
C1978 C 0.33752 0.68405 0.7084 0.0
C1979 C 0.3494 0.70015 0.69928 0.0
C1980 C 0.35539 0.71475 0.72099 0.0
C1981 C 0.34917 0.7131 0.75209 0.0
H1982 H 0.35193 0.32525 0.81407 0.0
H1983 H 0.3522 0.26808 0.76726 0.0
H1984 H 0.32721 0.28047 0.73032 0.0
H1985 H 0.2993 0.335 0.80562 0.0
H1986 H 0.30264 0.36125 0.79905 0.0
H1987 H 0.32028 0.34776 0.82234 0.0
H1988 H 0.34889 0.35974 0.78677 0.0
H1989 H 0.33133 0.37319 0.76329 0.0
H1990 H 0.34753 0.35504 0.74576 0.0
H1991 H 0.30243 0.29891 0.69833 0.0
H1992 H 0.2793 0.32235 0.67323 0.0
H1993 H 0.29547 0.36779 0.74006 0.0
C1994 C 0.34665 0.3153 0.79618 0.0
C1995 C 0.35401 0.29569 0.7936 0.0
C1996 C 0.3468 0.28318 0.7697 0.0
C1997 C 0.3326 0.29006 0.74859 0.0
C1998 C 0.32578 0.3095 0.75161 0.0
C1999 C 0.33252 0.32196 0.77477 0.0
C2000 C 0.32293 0.3423 0.77254 0.0
C2001 C 0.31055 0.34683 0.80162 0.0
C2002 C 0.33861 0.35852 0.76674 0.0
C2003 C 0.30977 0.3393 0.74449 0.0
C2004 C 0.31161 0.32026 0.73285 0.0
C2005 C 0.30085 0.31388 0.7072 0.0
C2006 C 0.28776 0.32731 0.6931 0.0
C2007 C 0.2856 0.34691 0.70463 0.0
C2008 C 0.29686 0.35295 0.7306 0.0
H2009 H 0.66003 0.2892 0.72331 0.0
H2010 H 0.61242 0.32877 0.69464 0.0
H2011 H 0.63021 0.35711 0.71808 0.0
H2012 H 0.66945 0.31222 0.79647 0.0
H2013 H 0.69601 0.30878 0.79453 0.0
H2014 H 0.6797 0.29162 0.77505 0.0
H2015 H 0.69797 0.29828 0.7233 0.0
H2016 H 0.71439 0.3154 0.74264 0.0
H2017 H 0.70032 0.32345 0.70943 0.0
H2018 H 0.653 0.38109 0.74512 0.0
H2019 H 0.67949 0.3991 0.77301 0.0
H2020 H 0.71209 0.34379 0.78407 0.0
C2021 C 0.65335 0.30382 0.72184 0.0
C2022 C 0.63482 0.30675 0.70712 0.0
C2023 C 0.62661 0.32614 0.70577 0.0
C2024 C 0.63658 0.34234 0.71904 0.0
C2025 C 0.65475 0.33891 0.73355 0.0
C2026 C 0.66309 0.32015 0.73495 0.0
C2027 C 0.68277 0.32046 0.75196 0.0
C2028 C 0.68192 0.3075 0.78124 0.0
C2029 C 0.69987 0.31402 0.73055 0.0
C2030 C 0.68416 0.34233 0.75997 0.0
C2031 C 0.66786 0.35271 0.74914 0.0
C2032 C 0.66585 0.37312 0.75369 0.0
C2033 C 0.68097 0.38321 0.76959 0.0
C2034 C 0.69787 0.37287 0.78076 0.0
C2035 C 0.69936 0.35214 0.7759 0.0
H2036 H 0.33097 0.30942 0.1832 0.0
H2037 H 0.37334 0.28539 0.2492 0.0
H2038 H 0.35846 0.30592 0.29035 0.0
H2039 H 0.33 0.35958 0.21426 0.0
H2040 H 0.30375 0.36281 0.20747 0.0
H2041 H 0.31807 0.34663 0.18282 0.0
H2042 H 0.29395 0.31758 0.19482 0.0
H2043 H 0.27956 0.33367 0.21947 0.0
H2044 H 0.2894 0.31068 0.23449 0.0
H2045 H 0.33861 0.32829 0.32466 0.0
H2046 H 0.31479 0.35091 0.35003 0.0
H2047 H 0.2853 0.36056 0.2619 0.0
C2048 C 0.33718 0.30854 0.20627 0.0
C2049 C 0.35333 0.29577 0.21294 0.0
C2050 C 0.36097 0.29503 0.24348 0.0
C2051 C 0.35265 0.30666 0.26704 0.0
C2052 C 0.33672 0.31901 0.25972 0.0
C2053 C 0.32905 0.32006 0.23011 0.0
C2054 C 0.3116 0.33428 0.22862 0.0
C2055 C 0.31613 0.35187 0.20701 0.0
C2056 C 0.2925 0.3234 0.21877 0.0
C2057 C 0.31056 0.3409 0.26208 0.0
C2058 C 0.32524 0.33197 0.27957 0.0
C2059 C 0.32709 0.33545 0.3112 0.0
C2060 C 0.31347 0.34832 0.32539 0.0
C2061 C 0.29818 0.35754 0.30798 0.0
C2062 C 0.29686 0.35382 0.27585 0.0
H2063 H 0.66968 0.29487 0.27219 0.0
H2064 H 0.61223 0.3243 0.26971 0.0
H2065 H 0.62751 0.35303 0.24314 0.0
H2066 H 0.69919 0.33863 0.28604 0.0
H2067 H 0.71938 0.33041 0.26177 0.0
H2068 H 0.7039 0.31243 0.28108 0.0
H2069 H 0.69605 0.29575 0.2284 0.0
H2070 H 0.71146 0.3137 0.20893 0.0
H2071 H 0.6859 0.31054 0.19741 0.0
H2072 H 0.64924 0.37851 0.21654 0.0
H2073 H 0.6756 0.39856 0.19173 0.0
H2074 H 0.71846 0.35191 0.21123 0.0
C2075 C 0.66029 0.30738 0.26622 0.0
C2076 C 0.63976 0.30736 0.27309 0.0
C2077 C 0.628 0.32399 0.26469 0.0
C2078 C 0.63654 0.34038 0.24961 0.0
C2079 C 0.65683 0.33985 0.24305 0.0
C2080 C 0.66853 0.32377 0.25108 0.0
C2081 C 0.68988 0.32671 0.24106 0.0
C2082 C 0.70391 0.32707 0.26916 0.0
C2083 C 0.69618 0.31073 0.21755 0.0
C2084 C 0.68838 0.34697 0.22609 0.0
C2085 C 0.66923 0.35435 0.22752 0.0
C2086 C 0.66429 0.37288 0.21528 0.0
C2087 C 0.67936 0.38415 0.20124 0.0
C2088 C 0.69908 0.3768 0.19948 0.0
C2089 C 0.70353 0.35794 0.21209 0.0
H2090 H 0.72399 0.63923 0.2421 0.0
H2091 H 0.68261 0.60818 0.30216 0.0
H2092 H 0.65467 0.62632 0.2781 0.0
H2093 H 0.70075 0.68566 0.24647 0.0
H2094 H 0.70553 0.69248 0.20684 0.0
H2095 H 0.72198 0.67556 0.22642 0.0
H2096 H 0.71656 0.64938 0.18322 0.0
H2097 H 0.70008 0.66626 0.16344 0.0
H2098 H 0.69164 0.64168 0.1736 0.0
H2099 H 0.63157 0.64958 0.25019 0.0
H2100 H 0.61512 0.67661 0.22125 0.0
H2101 H 0.67175 0.6926 0.17988 0.0
C2102 C 0.70903 0.63597 0.24985 0.0
C2103 C 0.70547 0.62222 0.27392 0.0
C2104 C 0.68569 0.61862 0.2837 0.0
C2105 C 0.66971 0.6288 0.27012 0.0
C2106 C 0.67378 0.64249 0.24676 0.0
C2107 C 0.69295 0.64606 0.23667 0.0
C2108 C 0.69347 0.66243 0.21266 0.0
C2109 C 0.70618 0.68007 0.22378 0.0
C2110 C 0.70087 0.65445 0.18138 0.0
C2111 C 0.67165 0.66782 0.2113 0.0
C2112 C 0.66051 0.65601 0.23088 0.0
C2113 C 0.64011 0.65879 0.23455 0.0
C2114 C 0.63091 0.6742 0.21804 0.0
C2115 C 0.64214 0.68671 0.19825 0.0
C2116 C 0.66272 0.68322 0.19461 0.0
H2117 H 0.26879 0.66486 0.263 0.0
H2118 H 0.30831 0.6225 0.21853 0.0
H2119 H 0.33724 0.63978 0.24097 0.0
H2120 H 0.29892 0.7074 0.25101 0.0
H2121 H 0.29315 0.71869 0.28774 0.0
H2122 H 0.27544 0.70237 0.26957 0.0
H2123 H 0.27464 0.6804 0.31881 0.0
H2124 H 0.29234 0.69668 0.33716 0.0
H2125 H 0.29756 0.67047 0.33396 0.0
H2126 H 0.36194 0.66254 0.26605 0.0
H2127 H 0.38069 0.68911 0.29256 0.0
H2128 H 0.3251 0.71644 0.32104 0.0
C2129 C 0.28351 0.65909 0.2582 0.0
C2130 C 0.28626 0.6423 0.23901 0.0
C2131 C 0.3058 0.63532 0.23316 0.0
C2132 C 0.32235 0.64502 0.24584 0.0
C2133 C 0.31912 0.66163 0.2644 0.0
C2134 C 0.3002 0.66858 0.27067 0.0
C2135 C 0.30087 0.68709 0.29061 0.0
C2136 C 0.29155 0.70494 0.27372 0.0
C2137 C 0.29076 0.68343 0.322 0.0
C2138 C 0.32312 0.68958 0.29422 0.0
C2139 C 0.33338 0.6747 0.27901 0.0
C2140 C 0.35408 0.67419 0.27825 0.0
C2141 C 0.36459 0.68936 0.29333 0.0
C2142 C 0.35437 0.70481 0.30896 0.0
C2143 C 0.33336 0.70476 0.30952 0.0
loop_
_geom_bond_atom_site_label_1
_geom_bond_atom_site_label_2
_geom_bond_distance
_geom_bond_site_symmetry_2
_ccdc_geom_bond_type
C0 O1 1.160 . S
C0 O7 1.185 . S
O1 C0 1.160 . S
O2 Zn3 1.899 . S
O2 C10 1.284 . S
Zn3 O2 1.899 . S
Zn3 O4 2.032 . S
Zn3 O7 2.086 . S
Zn3 O12 1.977 . S
O4 Zn3 2.032 . S
O4 C8 1.278 . S
C5 O6 1.203 . S
C5 O12 1.267 . S
O6 C5 1.203 . S
O7 C0 1.185 . S
O7 Zn3 2.086 . S
C8 O4 1.278 . S
C8 O9 1.211 . S
O9 C8 1.211 . S
C10 O2 1.284 . S
C10 O11 1.273 . S
O11 C10 1.273 . S
O12 Zn3 1.977 . S
O12 C5 1.267 . S
C13 O14 1.160 . S
C13 O20 1.185 . S
O14 C13 1.160 . S
O15 Zn16 1.899 . S
O15 C23 1.284 . S
Zn16 O15 1.899 . S
Zn16 O17 2.032 . S
Zn16 O20 2.086 . S
Zn16 O25 1.977 . S
O17 Zn16 2.032 . S
O17 C21 1.278 . S
C18 O19 1.203 . S
C18 O25 1.267 . S
O19 C18 1.203 . S
O20 C13 1.185 . S
O20 Zn16 2.086 . S
C21 O17 1.278 . S
C21 O22 1.211 . S
O22 C21 1.211 . S
C23 O15 1.284 . S
C23 O24 1.273 . S
O24 C23 1.273 . S
O25 Zn16 1.977 . S
O25 C18 1.267 . S
C26 O27 1.160 . S
C26 O33 1.185 . S
O27 C26 1.160 . S
O28 Zn29 1.899 . S
O28 C36 1.284 . S
Zn29 O28 1.899 . S
Zn29 O30 2.032 . S
Zn29 O33 2.086 . S
Zn29 O38 1.977 . S
O30 Zn29 2.032 . S
O30 C34 1.278 . S
C31 O32 1.203 . S
C31 O38 1.267 . S
O32 C31 1.203 . S
O33 C26 1.185 . S
O33 Zn29 2.086 . S
C34 O30 1.278 . S
C34 O35 1.211 . S
O35 C34 1.211 . S
C36 O28 1.284 . S
C36 O37 1.273 . S
O37 C36 1.273 . S
O38 Zn29 1.977 . S
O38 C31 1.267 . S
C39 O40 1.160 . S
C39 O46 1.185 . S
O40 C39 1.160 . S
O41 Zn42 1.899 . S
O41 C49 1.284 . S
Zn42 O41 1.899 . S
Zn42 O43 2.032 . S
Zn42 O46 2.086 . S
Zn42 O51 1.977 . S
O43 Zn42 2.032 . S
O43 C47 1.278 . S
C44 O45 1.203 . S
C44 O51 1.267 . S
O45 C44 1.203 . S
O46 C39 1.185 . S
O46 Zn42 2.086 . S
C47 O43 1.278 . S
C47 O48 1.211 . S
O48 C47 1.211 . S
C49 O41 1.284 . S
C49 O50 1.273 . S
O50 C49 1.273 . S
O51 Zn42 1.977 . S
O51 C44 1.267 . S
C52 O53 1.160 . S
C52 O59 1.185 . S
O53 C52 1.160 . S
O54 Zn55 1.899 . S
O54 C62 1.284 . S
Zn55 O54 1.899 . S
Zn55 O56 2.032 . S
Zn55 O59 2.086 . S
Zn55 O64 1.977 . S
O56 Zn55 2.032 . S
O56 C60 1.278 . S
C57 O58 1.203 . S
C57 O64 1.267 . S
O58 C57 1.203 . S
O59 C52 1.185 . S
O59 Zn55 2.086 . S
C60 O56 1.278 . S
C60 O61 1.211 . S
O61 C60 1.211 . S
C62 O54 1.284 . S
C62 O63 1.273 . S
O63 C62 1.273 . S
O64 Zn55 1.977 . S
O64 C57 1.267 . S
C65 O66 1.160 . S
C65 O72 1.185 . S
O66 C65 1.160 . S
O67 Zn68 1.899 . S
O67 C75 1.284 . S
Zn68 O67 1.899 . S
Zn68 O69 2.032 . S
Zn68 O72 2.086 . S
Zn68 O77 1.977 . S
O69 Zn68 2.032 . S
O69 C73 1.278 . S
C70 O71 1.203 . S
C70 O77 1.267 . S
O71 C70 1.203 . S
O72 C65 1.185 . S
O72 Zn68 2.086 . S
C73 O69 1.278 . S
C73 O74 1.211 . S
O74 C73 1.211 . S
C75 O67 1.284 . S
C75 O76 1.273 . S
O76 C75 1.273 . S
O77 Zn68 1.977 . S
O77 C70 1.267 . S
C78 O79 1.160 . S
C78 O85 1.185 . S
O79 C78 1.160 . S
O80 Zn81 1.899 . S
O80 C88 1.284 . S
Zn81 O80 1.899 . S
Zn81 O82 2.032 . S
Zn81 O85 2.086 . S
Zn81 O90 1.977 . S
O82 Zn81 2.032 . S
O82 C86 1.278 . S
C83 O84 1.203 . S
C83 O90 1.267 . S
O84 C83 1.203 . S
O85 C78 1.185 . S
O85 Zn81 2.086 . S
C86 O82 1.278 . S
C86 O87 1.211 . S
O87 C86 1.211 . S
C88 O80 1.284 . S
C88 O89 1.273 . S
O89 C88 1.273 . S
O90 Zn81 1.977 . S
O90 C83 1.267 . S
C91 O92 1.160 . S
C91 O98 1.185 . S
O92 C91 1.160 . S
O93 Zn94 1.899 . S
O93 C101 1.284 . S
Zn94 O93 1.899 . S
Zn94 O95 2.032 . S
Zn94 O98 2.086 . S
Zn94 O103 1.977 . S
O95 Zn94 2.032 . S
O95 C99 1.278 . S
C96 O97 1.203 . S
C96 O103 1.267 . S
O97 C96 1.203 . S
O98 C91 1.185 . S
O98 Zn94 2.086 . S
C99 O95 1.278 . S
C99 O100 1.211 . S
O100 C99 1.211 . S
C101 O93 1.284 . S
C101 O102 1.273 . S
O102 C101 1.273 . S
O103 Zn94 1.977 . S
O103 C96 1.267 . S
C104 O105 1.160 . S
C104 O111 1.185 . S
O105 C104 1.160 . S
O106 Zn107 1.899 . S
O106 C114 1.284 . S
Zn107 O106 1.899 . S
Zn107 O108 2.032 . S
Zn107 O111 2.086 . S
Zn107 O116 1.977 . S
O108 Zn107 2.032 . S
O108 C112 1.278 . S
C109 O110 1.203 . S
C109 O116 1.267 . S
O110 C109 1.203 . S
O111 C104 1.185 . S
O111 Zn107 2.086 . S
C112 O108 1.278 . S
C112 O113 1.211 . S
O113 C112 1.211 . S
C114 O106 1.284 . S
C114 O115 1.273 . S
O115 C114 1.273 . S
O116 Zn107 1.977 . S
O116 C109 1.267 . S
C117 O118 1.160 . S
C117 O124 1.185 . S
O118 C117 1.160 . S
O119 Zn120 1.899 . S
O119 C127 1.284 . S
Zn120 O119 1.899 . S
Zn120 O121 2.032 . S
Zn120 O124 2.086 . S
Zn120 O129 1.977 . S
O121 Zn120 2.032 . S
O121 C125 1.278 . S
C122 O123 1.203 . S
C122 O129 1.267 . S
O123 C122 1.203 . S
O124 C117 1.185 . S
O124 Zn120 2.086 . S
C125 O121 1.278 . S
C125 O126 1.211 . S
O126 C125 1.211 . S
C127 O119 1.284 . S
C127 O128 1.273 . S
O128 C127 1.273 . S
O129 Zn120 1.977 . S
O129 C122 1.267 . S
C130 O131 1.160 . S
C130 O137 1.185 . S
O131 C130 1.160 . S
O132 Zn133 1.899 . S
O132 C140 1.284 . S
Zn133 O132 1.899 . S
Zn133 O134 2.032 . S
Zn133 O137 2.086 . S
Zn133 O142 1.977 . S
O134 Zn133 2.032 . S
O134 C138 1.278 . S
C135 O136 1.203 . S
C135 O142 1.267 . S
O136 C135 1.203 . S
O137 C130 1.185 . S
O137 Zn133 2.086 . S
C138 O134 1.278 . S
C138 O139 1.211 . S
O139 C138 1.211 . S
C140 O132 1.284 . S
C140 O141 1.273 . S
O141 C140 1.273 . S
O142 Zn133 1.977 . S
O142 C135 1.267 . S
C143 O144 1.160 . S
C143 O150 1.185 . S
O144 C143 1.160 . S
O145 Zn146 1.899 . S
O145 C153 1.284 . S
Zn146 O145 1.899 . S
Zn146 O147 2.032 . S
Zn146 O150 2.086 . S
Zn146 O155 1.977 . S
O147 Zn146 2.032 . S
O147 C151 1.278 . S
C148 O149 1.203 . S
C148 O155 1.267 . S
O149 C148 1.203 . S
O150 C143 1.185 . S
O150 Zn146 2.086 . S
C151 O147 1.278 . S
C151 O152 1.211 . S
O152 C151 1.211 . S
C153 O145 1.284 . S
C153 O154 1.273 . S
O154 C153 1.273 . S
O155 Zn146 1.977 . S
O155 C148 1.267 . S
C156 O157 1.160 . S
C156 O163 1.185 . S
O157 C156 1.160 . S
O158 Zn159 1.899 . S
O158 C166 1.284 . S
Zn159 O158 1.899 . S
Zn159 O160 2.032 . S
Zn159 O163 2.086 . S
Zn159 O168 1.977 . S
O160 Zn159 2.032 . S
O160 C164 1.278 . S
C161 O162 1.203 . S
C161 O168 1.267 . S
O162 C161 1.203 . S
O163 C156 1.185 . S
O163 Zn159 2.086 . S
C164 O160 1.278 . S
C164 O165 1.211 . S
O165 C164 1.211 . S
C166 O158 1.284 . S
C166 O167 1.273 . S
O167 C166 1.273 . S
O168 Zn159 1.977 . S
O168 C161 1.267 . S
C169 O170 1.160 . S
C169 O176 1.185 . S
O170 C169 1.160 . S
O171 Zn172 1.899 . S
O171 C179 1.284 . S
Zn172 O171 1.899 . S
Zn172 O173 2.032 . S
Zn172 O176 2.086 . S
Zn172 O181 1.977 . S
O173 Zn172 2.032 . S
O173 C177 1.278 . S
C174 O175 1.203 . S
C174 O181 1.267 . S
O175 C174 1.203 . S
O176 C169 1.185 . S
O176 Zn172 2.086 . S
C177 O173 1.278 . S
C177 O178 1.211 . S
O178 C177 1.211 . S
C179 O171 1.284 . S
C179 O180 1.273 . S
O180 C179 1.273 . S
O181 Zn172 1.977 . S
O181 C174 1.267 . S
C182 O183 1.160 . S
C182 O189 1.185 . S
O183 C182 1.160 . S
O184 Zn185 1.899 . S
O184 C192 1.284 . S
Zn185 O184 1.899 . S
Zn185 O186 2.032 . S
Zn185 O189 2.086 . S
Zn185 O194 1.977 . S
O186 Zn185 2.032 . S
O186 C190 1.278 . S
C187 O188 1.203 . S
C187 O194 1.267 . S
O188 C187 1.203 . S
O189 C182 1.185 . S
O189 Zn185 2.086 . S
C190 O186 1.278 . S
C190 O191 1.211 . S
O191 C190 1.211 . S
C192 O184 1.284 . S
C192 O193 1.273 . S
O193 C192 1.273 . S
O194 Zn185 1.977 . S
O194 C187 1.267 . S
C195 O196 1.160 . S
C195 O202 1.185 . S
O196 C195 1.160 . S
O197 Zn198 1.899 . S
O197 C205 1.284 . S
Zn198 O197 1.899 . S
Zn198 O199 2.032 . S
Zn198 O202 2.086 . S
Zn198 O207 1.977 . S
O199 Zn198 2.032 . S
O199 C203 1.278 . S
C200 O201 1.203 . S
C200 O207 1.267 . S
O201 C200 1.203 . S
O202 C195 1.185 . S
O202 Zn198 2.086 . S
C203 O199 1.278 . S
C203 O204 1.211 . S
O204 C203 1.211 . S
C205 O197 1.284 . S
C205 O206 1.273 . S
O206 C205 1.273 . S
O207 Zn198 1.977 . S
O207 C200 1.267 . S
C208 O209 1.160 . S
C208 O215 1.185 . S
O209 C208 1.160 . S
O210 Zn211 1.899 . S
O210 C218 1.284 . S
Zn211 O210 1.899 . S
Zn211 O212 2.032 . S
Zn211 O215 2.086 . S
Zn211 O220 1.977 . S
O212 Zn211 2.032 . S
O212 C216 1.278 . S
C213 O214 1.203 . S
C213 O220 1.267 . S
O214 C213 1.203 . S
O215 C208 1.185 . S
O215 Zn211 2.086 . S
C216 O212 1.278 . S
C216 O217 1.211 . S
O217 C216 1.211 . S
C218 O210 1.284 . S
C218 O219 1.273 . S
O219 C218 1.273 . S
O220 Zn211 1.977 . S
O220 C213 1.267 . S
C221 O222 1.160 . S
C221 O228 1.185 . S
O222 C221 1.160 . S
O223 Zn224 1.899 . S
O223 C231 1.284 . S
Zn224 O223 1.899 . S
Zn224 O225 2.032 . S
Zn224 O228 2.086 . S
Zn224 O233 1.977 . S
O225 Zn224 2.032 . S
O225 C229 1.278 . S
C226 O227 1.203 . S
C226 O233 1.267 . S
O227 C226 1.203 . S
O228 C221 1.185 . S
O228 Zn224 2.086 . S
C229 O225 1.278 . S
C229 O230 1.211 . S
O230 C229 1.211 . S
C231 O223 1.284 . S
C231 O232 1.273 . S
O232 C231 1.273 . S
O233 Zn224 1.977 . S
O233 C226 1.267 . S
C234 O235 1.160 . S
C234 O241 1.185 . S
O235 C234 1.160 . S
O236 Zn237 1.899 . S
O236 C244 1.284 . S
Zn237 O236 1.899 . S
Zn237 O238 2.032 . S
Zn237 O241 2.086 . S
Zn237 O246 1.977 . S
O238 Zn237 2.032 . S
O238 C242 1.278 . S
C239 O240 1.203 . S
C239 O246 1.267 . S
O240 C239 1.203 . S
O241 C234 1.185 . S
O241 Zn237 2.086 . S
C242 O238 1.278 . S
C242 O243 1.211 . S
O243 C242 1.211 . S
C244 O236 1.284 . S
C244 O245 1.273 . S
O245 C244 1.273 . S
O246 Zn237 1.977 . S
O246 C239 1.267 . S
C247 O248 1.160 . S
C247 O254 1.185 . S
O248 C247 1.160 . S
O249 Zn250 1.899 . S
O249 C257 1.284 . S
Zn250 O249 1.899 . S
Zn250 O251 2.032 . S
Zn250 O254 2.086 . S
Zn250 O259 1.977 . S
O251 Zn250 2.032 . S
O251 C255 1.278 . S
C252 O253 1.203 . S
C252 O259 1.267 . S
O253 C252 1.203 . S
O254 C247 1.185 . S
O254 Zn250 2.086 . S
C255 O251 1.278 . S
C255 O256 1.211 . S
O256 C255 1.211 . S
C257 O249 1.284 . S
C257 O258 1.273 . S
O258 C257 1.273 . S
O259 Zn250 1.977 . S
O259 C252 1.267 . S
C260 O261 1.160 . S
C260 O267 1.185 . S
O261 C260 1.160 . S
O262 Zn263 1.899 . S
O262 C270 1.284 . S
Zn263 O262 1.899 . S
Zn263 O264 2.032 . S
Zn263 O267 2.086 . S
Zn263 O272 1.977 . S
O264 Zn263 2.032 . S
O264 C268 1.278 . S
C265 O266 1.203 . S
C265 O272 1.267 . S
O266 C265 1.203 . S
O267 C260 1.185 . S
O267 Zn263 2.086 . S
C268 O264 1.278 . S
C268 O269 1.211 . S
O269 C268 1.211 . S
C270 O262 1.284 . S
C270 O271 1.273 . S
O271 C270 1.273 . S
O272 Zn263 1.977 . S
O272 C265 1.267 . S
C273 O274 1.160 . S
C273 O280 1.185 . S
O274 C273 1.160 . S
O275 Zn276 1.899 . S
O275 C283 1.284 . S
Zn276 O275 1.899 . S
Zn276 O277 2.032 . S
Zn276 O280 2.086 . S
Zn276 O285 1.977 . S
O277 Zn276 2.032 . S
O277 C281 1.278 . S
C278 O279 1.203 . S
C278 O285 1.267 . S
O279 C278 1.203 . S
O280 C273 1.185 . S
O280 Zn276 2.086 . S
C281 O277 1.278 . S
C281 O282 1.211 . S
O282 C281 1.211 . S
C283 O275 1.284 . S
C283 O284 1.273 . S
O284 C283 1.273 . S
O285 Zn276 1.977 . S
O285 C278 1.267 . S
C286 O287 1.160 . S
C286 O293 1.185 . S
O287 C286 1.160 . S
O288 Zn289 1.899 . S
O288 C296 1.284 . S
Zn289 O288 1.899 . S
Zn289 O290 2.032 . S
Zn289 O293 2.086 . S
Zn289 O298 1.977 . S
O290 Zn289 2.032 . S
O290 C294 1.278 . S
C291 O292 1.203 . S
C291 O298 1.267 . S
O292 C291 1.203 . S
O293 C286 1.185 . S
O293 Zn289 2.086 . S
C294 O290 1.278 . S
C294 O295 1.211 . S
O295 C294 1.211 . S
C296 O288 1.284 . S
C296 O297 1.273 . S
O297 C296 1.273 . S
O298 Zn289 1.977 . S
O298 C291 1.267 . S
C299 O300 1.160 . S
C299 O306 1.185 . S
O300 C299 1.160 . S
O301 Zn302 1.899 . S
O301 C309 1.284 . S
Zn302 O301 1.899 . S
Zn302 O303 2.032 . S
Zn302 O306 2.086 . S
Zn302 O311 1.977 . S
O303 Zn302 2.032 . S
O303 C307 1.278 . S
C304 O305 1.203 . S
C304 O311 1.267 . S
O305 C304 1.203 . S
O306 C299 1.185 . S
O306 Zn302 2.086 . S
C307 O303 1.278 . S
C307 O308 1.211 . S
O308 C307 1.211 . S
C309 O301 1.284 . S
C309 O310 1.273 . S
O310 C309 1.273 . S
O311 Zn302 1.977 . S
O311 C304 1.267 . S
C312 O313 1.160 . S
C312 O319 1.185 . S
O313 C312 1.160 . S
O314 Zn315 1.899 . S
O314 C322 1.284 . S
Zn315 O314 1.899 . S
Zn315 O316 2.032 . S
Zn315 O319 2.086 . S
Zn315 O324 1.977 . S
O316 Zn315 2.032 . S
O316 C320 1.278 . S
C317 O318 1.203 . S
C317 O324 1.267 . S
O318 C317 1.203 . S
O319 C312 1.185 . S
O319 Zn315 2.086 . S
C320 O316 1.278 . S
C320 O321 1.211 . S
O321 C320 1.211 . S
C322 O314 1.284 . S
C322 O323 1.273 . S
O323 C322 1.273 . S
O324 Zn315 1.977 . S
O324 C317 1.267 . S
C325 O326 1.160 . S
C325 O332 1.185 . S
O326 C325 1.160 . S
O327 Zn328 1.899 . S
O327 C335 1.284 . S
Zn328 O327 1.899 . S
Zn328 O329 2.032 . S
Zn328 O332 2.086 . S
Zn328 O337 1.977 . S
O329 Zn328 2.032 . S
O329 C333 1.278 . S
C330 O331 1.203 . S
C330 O337 1.267 . S
O331 C330 1.203 . S
O332 C325 1.185 . S
O332 Zn328 2.086 . S
C333 O329 1.278 . S
C333 O334 1.211 . S
O334 C333 1.211 . S
C335 O327 1.284 . S
C335 O336 1.273 . S
O336 C335 1.273 . S
O337 Zn328 1.977 . S
O337 C330 1.267 . S
C338 O339 1.160 . S
C338 O345 1.185 . S
O339 C338 1.160 . S
O340 Zn341 1.899 . S
O340 C348 1.284 . S
Zn341 O340 1.899 . S
Zn341 O342 2.032 . S
Zn341 O345 2.086 . S
Zn341 O350 1.977 . S
O342 Zn341 2.032 . S
O342 C346 1.278 . S
C343 O344 1.203 . S
C343 O350 1.267 . S
O344 C343 1.203 . S
O345 C338 1.185 . S
O345 Zn341 2.086 . S
C346 O342 1.278 . S
C346 O347 1.211 . S
O347 C346 1.211 . S
C348 O340 1.284 . S
C348 O349 1.273 . S
O349 C348 1.273 . S
O350 Zn341 1.977 . S
O350 C343 1.267 . S
C351 O352 1.160 . S
C351 O358 1.185 . S
O352 C351 1.160 . S
O353 Zn354 1.899 . S
O353 C361 1.284 . S
Zn354 O353 1.899 . S
Zn354 O355 2.032 . S
Zn354 O358 2.086 . S
Zn354 O363 1.977 . S
O355 Zn354 2.032 . S
O355 C359 1.278 . S
C356 O357 1.203 . S
C356 O363 1.267 . S
O357 C356 1.203 . S
O358 C351 1.185 . S
O358 Zn354 2.086 . S
C359 O355 1.278 . S
C359 O360 1.211 . S
O360 C359 1.211 . S
C361 O353 1.284 . S
C361 O362 1.273 . S
O362 C361 1.273 . S
O363 Zn354 1.977 . S
O363 C356 1.267 . S
C364 O365 1.160 . S
C364 O371 1.185 . S
O365 C364 1.160 . S
O366 Zn367 1.899 . S
O366 C374 1.284 . S
Zn367 O366 1.899 . S
Zn367 O368 2.032 . S
Zn367 O371 2.086 . S
Zn367 O376 1.977 . S
O368 Zn367 2.032 . S
O368 C372 1.278 . S
C369 O370 1.203 . S
C369 O376 1.267 . S
O370 C369 1.203 . S
O371 C364 1.185 . S
O371 Zn367 2.086 . S
C372 O368 1.278 . S
C372 O373 1.211 . S
O373 C372 1.211 . S
C374 O366 1.284 . S
C374 O375 1.273 . S
O375 C374 1.273 . S
O376 Zn367 1.977 . S
O376 C369 1.267 . S
C377 O378 1.160 . S
C377 O384 1.185 . S
O378 C377 1.160 . S
O379 Zn380 1.899 . S
O379 C387 1.284 . S
Zn380 O379 1.899 . S
Zn380 O381 2.032 . S
Zn380 O384 2.086 . S
Zn380 O389 1.977 . S
O381 Zn380 2.032 . S
O381 C385 1.278 . S
C382 O383 1.203 . S
C382 O389 1.267 . S
O383 C382 1.203 . S
O384 C377 1.185 . S
O384 Zn380 2.086 . S
C385 O381 1.278 . S
C385 O386 1.211 . S
O386 C385 1.211 . S
C387 O379 1.284 . S
C387 O388 1.273 . S
O388 C387 1.273 . S
O389 Zn380 1.977 . S
O389 C382 1.267 . S
C390 O391 1.160 . S
C390 O397 1.185 . S
O391 C390 1.160 . S
O392 Zn393 1.899 . S
O392 C400 1.284 . S
Zn393 O392 1.899 . S
Zn393 O394 2.032 . S
Zn393 O397 2.086 . S
Zn393 O402 1.977 . S
O394 Zn393 2.032 . S
O394 C398 1.278 . S
C395 O396 1.203 . S
C395 O402 1.267 . S
O396 C395 1.203 . S
O397 C390 1.185 . S
O397 Zn393 2.086 . S
C398 O394 1.278 . S
C398 O399 1.211 . S
O399 C398 1.211 . S
C400 O392 1.284 . S
C400 O401 1.273 . S
O401 C400 1.273 . S
O402 Zn393 1.977 . S
O402 C395 1.267 . S
C403 O404 1.160 . S
C403 O410 1.185 . S
O404 C403 1.160 . S
O405 Zn406 1.899 . S
O405 C413 1.284 . S
Zn406 O405 1.899 . S
Zn406 O407 2.032 . S
Zn406 O410 2.086 . S
Zn406 O415 1.977 . S
O407 Zn406 2.032 . S
O407 C411 1.278 . S
C408 O409 1.203 . S
C408 O415 1.267 . S
O409 C408 1.203 . S
O410 C403 1.185 . S
O410 Zn406 2.086 . S
C411 O407 1.278 . S
C411 O412 1.211 . S
O412 C411 1.211 . S
C413 O405 1.284 . S
C413 O414 1.273 . S
O414 C413 1.273 . S
O415 Zn406 1.977 . S
O415 C408 1.267 . S
H416 C428 0.930 . S
H417 C430 0.930 . S
H418 C431 0.930 . S
H419 C435 0.959 . S
H420 C435 0.959 . S
H421 C435 0.961 . S
H422 C436 0.960 . S
H423 C436 0.961 . S
H424 C436 0.959 . S
H425 C439 0.929 . S
H426 C440 0.931 . S
H427 C442 0.930 . S
C428 H416 0.930 . S
C428 C429 1.399 . S
C428 C433 1.399 . S
C429 C428 1.399 . S
C429 C430 1.376 . S
C430 H417 0.930 . S
C430 C429 1.376 . S
C430 C431 1.388 . S
C431 H418 0.930 . S
C431 C430 1.388 . S
C431 C432 1.390 . S
C432 C431 1.390 . S
C432 C433 1.394 . S
C432 C438 1.465 . S
C433 C428 1.399 . S
C433 C432 1.394 . S
C433 C434 1.516 . S
C434 C433 1.516 . S
C434 C435 1.502 . S
C434 C436 1.561 . S
C434 C437 1.526 . S
C435 H419 0.959 . S
C435 H420 0.959 . S
C435 H421 0.961 . S
C435 C434 1.502 . S
C436 H422 0.960 . S
C436 H423 0.961 . S
C436 H424 0.959 . S
C436 C434 1.561 . S
C437 C434 1.526 . S
C437 C438 1.396 . S
C437 C442 1.390 . S
C438 C432 1.465 . S
C438 C437 1.396 . S
C438 C439 1.399 . S
C439 H425 0.929 . S
C439 C438 1.399 . S
C439 C440 1.385 . S
C440 H426 0.931 . S
C440 C439 1.385 . S
C440 C441 1.389 . S
C441 C440 1.389 . S
C441 C442 1.387 . S
C442 H427 0.930 . S
C442 C437 1.390 . S
C442 C441 1.387 . S
H443 C455 0.930 . S
H444 C457 0.930 . S
H445 C458 0.930 . S
H446 C462 0.959 . S
H447 C462 0.959 . S
H448 C462 0.961 . S
H449 C463 0.960 . S
H450 C463 0.961 . S
H451 C463 0.959 . S
H452 C466 0.929 . S
H453 C467 0.931 . S
H454 C469 0.930 . S
C455 H443 0.930 . S
C455 C456 1.399 . S
C455 C460 1.399 . S
C456 C455 1.399 . S
C456 C457 1.376 . S
C457 H444 0.930 . S
C457 C456 1.376 . S
C457 C458 1.388 . S
C458 H445 0.930 . S
C458 C457 1.388 . S
C458 C459 1.390 . S
C459 C458 1.390 . S
C459 C460 1.394 . S
C459 C465 1.465 . S
C460 C455 1.399 . S
C460 C459 1.394 . S
C460 C461 1.516 . S
C461 C460 1.516 . S
C461 C462 1.502 . S
C461 C463 1.561 . S
C461 C464 1.526 . S
C462 H446 0.959 . S
C462 H447 0.959 . S
C462 H448 0.961 . S
C462 C461 1.502 . S
C463 H449 0.960 . S
C463 H450 0.961 . S
C463 H451 0.959 . S
C463 C461 1.561 . S
C464 C461 1.526 . S
C464 C465 1.396 . S
C464 C469 1.390 . S
C465 C459 1.465 . S
C465 C464 1.396 . S
C465 C466 1.399 . S
C466 H452 0.929 . S
C466 C465 1.399 . S
C466 C467 1.385 . S
C467 H453 0.931 . S
C467 C466 1.385 . S
C467 C468 1.389 . S
C468 C467 1.389 . S
C468 C469 1.387 . S
C469 H454 0.930 . S
C469 C464 1.390 . S
C469 C468 1.387 . S
H470 C482 0.930 . S
H471 C484 0.930 . S
H472 C485 0.930 . S
H473 C489 0.959 . S
H474 C489 0.959 . S
H475 C489 0.961 . S
H476 C490 0.960 . S
H477 C490 0.961 . S
H478 C490 0.959 . S
H479 C493 0.929 . S
H480 C494 0.931 . S
H481 C496 0.930 . S
C482 H470 0.930 . S
C482 C483 1.399 . S
C482 C487 1.399 . S
C483 C482 1.399 . S
C483 C484 1.376 . S
C484 H471 0.930 . S
C484 C483 1.376 . S
C484 C485 1.388 . S
C485 H472 0.930 . S
C485 C484 1.388 . S
C485 C486 1.390 . S
C486 C485 1.390 . S
C486 C487 1.394 . S
C486 C492 1.465 . S
C487 C482 1.399 . S
C487 C486 1.394 . S
C487 C488 1.516 . S
C488 C487 1.516 . S
C488 C489 1.502 . S
C488 C490 1.561 . S
C488 C491 1.526 . S
C489 H473 0.959 . S
C489 H474 0.959 . S
C489 H475 0.961 . S
C489 C488 1.502 . S
C490 H476 0.960 . S
C490 H477 0.961 . S
C490 H478 0.959 . S
C490 C488 1.561 . S
C491 C488 1.526 . S
C491 C492 1.396 . S
C491 C496 1.390 . S
C492 C486 1.465 . S
C492 C491 1.396 . S
C492 C493 1.399 . S
C493 H479 0.929 . S
C493 C492 1.399 . S
C493 C494 1.385 . S
C494 H480 0.931 . S
C494 C493 1.385 . S
C494 C495 1.389 . S
C495 C494 1.389 . S
C495 C496 1.387 . S
C496 H481 0.930 . S
C496 C491 1.390 . S
C496 C495 1.387 . S
H497 C509 0.930 . S
H498 C511 0.930 . S
H499 C512 0.930 . S
H500 C516 0.959 . S
H501 C516 0.959 . S
H502 C516 0.961 . S
H503 C517 0.960 . S
H504 C517 0.961 . S
H505 C517 0.959 . S
H506 C520 0.929 . S
H507 C521 0.931 . S
H508 C523 0.930 . S
C509 H497 0.930 . S
C509 C510 1.399 . S
C509 C514 1.399 . S
C510 C509 1.399 . S
C510 C511 1.376 . S
C511 H498 0.930 . S
C511 C510 1.376 . S
C511 C512 1.388 . S
C512 H499 0.930 . S
C512 C511 1.388 . S
C512 C513 1.390 . S
C513 C512 1.390 . S
C513 C514 1.394 . S
C513 C519 1.465 . S
C514 C509 1.399 . S
C514 C513 1.394 . S
C514 C515 1.516 . S
C515 C514 1.516 . S
C515 C516 1.502 . S
C515 C517 1.561 . S
C515 C518 1.526 . S
C516 H500 0.959 . S
C516 H501 0.959 . S
C516 H502 0.961 . S
C516 C515 1.502 . S
C517 H503 0.960 . S
C517 H504 0.961 . S
C517 H505 0.959 . S
C517 C515 1.561 . S
C518 C515 1.526 . S
C518 C519 1.396 . S
C518 C523 1.390 . S
C519 C513 1.465 . S
C519 C518 1.396 . S
C519 C520 1.399 . S
C520 H506 0.929 . S
C520 C519 1.399 . S
C520 C521 1.385 . S
C521 H507 0.931 . S
C521 C520 1.385 . S
C521 C522 1.389 . S
C522 C521 1.389 . S
C522 C523 1.387 . S
C523 H508 0.930 . S
C523 C518 1.390 . S
C523 C522 1.387 . S
H524 C536 0.930 . S
H525 C538 0.930 . S
H526 C539 0.930 . S
H527 C543 0.959 . S
H528 C543 0.959 . S
H529 C543 0.961 . S
H530 C544 0.960 . S
H531 C544 0.961 . S
H532 C544 0.959 . S
H533 C547 0.929 . S
H534 C548 0.931 . S
H535 C550 0.930 . S
C536 H524 0.930 . S
C536 C537 1.399 . S
C536 C541 1.399 . S
C537 C536 1.399 . S
C537 C538 1.376 . S
C538 H525 0.930 . S
C538 C537 1.376 . S
C538 C539 1.388 . S
C539 H526 0.930 . S
C539 C538 1.388 . S
C539 C540 1.390 . S
C540 C539 1.390 . S
C540 C541 1.394 . S
C540 C546 1.465 . S
C541 C536 1.399 . S
C541 C540 1.394 . S
C541 C542 1.516 . S
C542 C541 1.516 . S
C542 C543 1.502 . S
C542 C544 1.561 . S
C542 C545 1.526 . S
C543 H527 0.959 . S
C543 H528 0.959 . S
C543 H529 0.961 . S
C543 C542 1.502 . S
C544 H530 0.960 . S
C544 H531 0.961 . S
C544 H532 0.959 . S
C544 C542 1.561 . S
C545 C542 1.526 . S
C545 C546 1.396 . S
C545 C550 1.390 . S
C546 C540 1.465 . S
C546 C545 1.396 . S
C546 C547 1.399 . S
C547 H533 0.929 . S
C547 C546 1.399 . S
C547 C548 1.385 . S
C548 H534 0.931 . S
C548 C547 1.385 . S
C548 C549 1.389 . S
C549 C548 1.389 . S
C549 C550 1.387 . S
C550 H535 0.930 . S
C550 C545 1.390 . S
C550 C549 1.387 . S
H551 C563 0.930 . S
H552 C565 0.930 . S
H553 C566 0.930 . S
H554 C570 0.959 . S
H555 C570 0.959 . S
H556 C570 0.961 . S
H557 C571 0.960 . S
H558 C571 0.961 . S
H559 C571 0.959 . S
H560 C574 0.929 . S
H561 C575 0.931 . S
H562 C577 0.930 . S
C563 H551 0.930 . S
C563 C564 1.399 . S
C563 C568 1.399 . S
C564 C563 1.399 . S
C564 C565 1.376 . S
C565 H552 0.930 . S
C565 C564 1.376 . S
C565 C566 1.388 . S
C566 H553 0.930 . S
C566 C565 1.388 . S
C566 C567 1.390 . S
C567 C566 1.390 . S
C567 C568 1.394 . S
C567 C573 1.465 . S
C568 C563 1.399 . S
C568 C567 1.394 . S
C568 C569 1.516 . S
C569 C568 1.516 . S
C569 C570 1.502 . S
C569 C571 1.561 . S
C569 C572 1.526 . S
C570 H554 0.959 . S
C570 H555 0.959 . S
C570 H556 0.961 . S
C570 C569 1.502 . S
C571 H557 0.960 . S
C571 H558 0.961 . S
C571 H559 0.959 . S
C571 C569 1.561 . S
C572 C569 1.526 . S
C572 C573 1.396 . S
C572 C577 1.390 . S
C573 C567 1.465 . S
C573 C572 1.396 . S
C573 C574 1.399 . S
C574 H560 0.929 . S
C574 C573 1.399 . S
C574 C575 1.385 . S
C575 H561 0.931 . S
C575 C574 1.385 . S
C575 C576 1.389 . S
C576 C575 1.389 . S
C576 C577 1.387 . S
C577 H562 0.930 . S
C577 C572 1.390 . S
C577 C576 1.387 . S
H578 C590 0.930 . S
H579 C592 0.930 . S
H580 C593 0.930 . S
H581 C597 0.959 . S
H582 C597 0.959 . S
H583 C597 0.961 . S
H584 C598 0.960 . S
H585 C598 0.961 . S
H586 C598 0.959 . S
H587 C601 0.929 . S
H588 C602 0.931 . S
H589 C604 0.930 . S
C590 H578 0.930 . S
C590 C591 1.399 . S
C590 C595 1.399 . S
C591 C590 1.399 . S
C591 C592 1.376 . S
C592 H579 0.930 . S
C592 C591 1.376 . S
C592 C593 1.388 . S
C593 H580 0.930 . S
C593 C592 1.388 . S
C593 C594 1.390 . S
C594 C593 1.390 . S
C594 C595 1.394 . S
C594 C600 1.465 . S
C595 C590 1.399 . S
C595 C594 1.394 . S
C595 C596 1.516 . S
C596 C595 1.516 . S
C596 C597 1.502 . S
C596 C598 1.561 . S
C596 C599 1.526 . S
C597 H581 0.959 . S
C597 H582 0.959 . S
C597 H583 0.961 . S
C597 C596 1.502 . S
C598 H584 0.960 . S
C598 H585 0.961 . S
C598 H586 0.959 . S
C598 C596 1.561 . S
C599 C596 1.526 . S
C599 C600 1.396 . S
C599 C604 1.390 . S
C600 C594 1.465 . S
C600 C599 1.396 . S
C600 C601 1.399 . S
C601 H587 0.929 . S
C601 C600 1.399 . S
C601 C602 1.385 . S
C602 H588 0.931 . S
C602 C601 1.385 . S
C602 C603 1.389 . S
C603 C602 1.389 . S
C603 C604 1.387 . S
C604 H589 0.930 . S
C604 C599 1.390 . S
C604 C603 1.387 . S
H605 C617 0.930 . S
H606 C619 0.930 . S
H607 C620 0.930 . S
H608 C624 0.959 . S
H609 C624 0.959 . S
H610 C624 0.961 . S
H611 C625 0.960 . S
H612 C625 0.961 . S
H613 C625 0.959 . S
H614 C628 0.929 . S
H615 C629 0.931 . S
H616 C631 0.930 . S
C617 H605 0.930 . S
C617 C618 1.399 . S
C617 C622 1.399 . S
C618 C617 1.399 . S
C618 C619 1.376 . S
C619 H606 0.930 . S
C619 C618 1.376 . S
C619 C620 1.388 . S
C620 H607 0.930 . S
C620 C619 1.388 . S
C620 C621 1.390 . S
C621 C620 1.390 . S
C621 C622 1.394 . S
C621 C627 1.465 . S
C622 C617 1.399 . S
C622 C621 1.394 . S
C622 C623 1.516 . S
C623 C622 1.516 . S
C623 C624 1.502 . S
C623 C625 1.561 . S
C623 C626 1.526 . S
C624 H608 0.959 . S
C624 H609 0.959 . S
C624 H610 0.961 . S
C624 C623 1.502 . S
C625 H611 0.960 . S
C625 H612 0.961 . S
C625 H613 0.959 . S
C625 C623 1.561 . S
C626 C623 1.526 . S
C626 C627 1.396 . S
C626 C631 1.390 . S
C627 C621 1.465 . S
C627 C626 1.396 . S
C627 C628 1.399 . S
C628 H614 0.929 . S
C628 C627 1.399 . S
C628 C629 1.385 . S
C629 H615 0.931 . S
C629 C628 1.385 . S
C629 C630 1.389 . S
C630 C629 1.389 . S
C630 C631 1.387 . S
C631 H616 0.930 . S
C631 C626 1.390 . S
C631 C630 1.387 . S
H632 C644 0.930 . S
H633 C646 0.930 . S
H634 C647 0.930 . S
H635 C651 0.959 . S
H636 C651 0.959 . S
H637 C651 0.961 . S
H638 C652 0.960 . S
H639 C652 0.961 . S
H640 C652 0.959 . S
H641 C655 0.929 . S
H642 C656 0.931 . S
H643 C658 0.930 . S
C644 H632 0.930 . S
C644 C645 1.399 . S
C644 C649 1.399 . S
C645 C644 1.399 . S
C645 C646 1.376 . S
C646 H633 0.930 . S
C646 C645 1.376 . S
C646 C647 1.388 . S
C647 H634 0.930 . S
C647 C646 1.388 . S
C647 C648 1.390 . S
C648 C647 1.390 . S
C648 C649 1.394 . S
C648 C654 1.465 . S
C649 C644 1.399 . S
C649 C648 1.394 . S
C649 C650 1.516 . S
C650 C649 1.516 . S
C650 C651 1.502 . S
C650 C652 1.561 . S
C650 C653 1.526 . S
C651 H635 0.959 . S
C651 H636 0.959 . S
C651 H637 0.961 . S
C651 C650 1.502 . S
C652 H638 0.960 . S
C652 H639 0.961 . S
C652 H640 0.959 . S
C652 C650 1.561 . S
C653 C650 1.526 . S
C653 C654 1.396 . S
C653 C658 1.390 . S
C654 C648 1.465 . S
C654 C653 1.396 . S
C654 C655 1.399 . S
C655 H641 0.929 . S
C655 C654 1.399 . S
C655 C656 1.385 . S
C656 H642 0.931 . S
C656 C655 1.385 . S
C656 C657 1.389 . S
C657 C656 1.389 . S
C657 C658 1.387 . S
C658 H643 0.930 . S
C658 C653 1.390 . S
C658 C657 1.387 . S
H659 C671 0.930 . S
H660 C673 0.930 . S
H661 C674 0.930 . S
H662 C678 0.959 . S
H663 C678 0.959 . S
H664 C678 0.961 . S
H665 C679 0.960 . S
H666 C679 0.961 . S
H667 C679 0.959 . S
H668 C682 0.929 . S
H669 C683 0.931 . S
H670 C685 0.930 . S
C671 H659 0.930 . S
C671 C672 1.399 . S
C671 C676 1.399 . S
C672 C671 1.399 . S
C672 C673 1.376 . S
C673 H660 0.930 . S
C673 C672 1.376 . S
C673 C674 1.388 . S
C674 H661 0.930 . S
C674 C673 1.388 . S
C674 C675 1.390 . S
C675 C674 1.390 . S
C675 C676 1.394 . S
C675 C681 1.465 . S
C676 C671 1.399 . S
C676 C675 1.394 . S
C676 C677 1.516 . S
C677 C676 1.516 . S
C677 C678 1.502 . S
C677 C679 1.561 . S
C677 C680 1.526 . S
C678 H662 0.959 . S
C678 H663 0.959 . S
C678 H664 0.961 . S
C678 C677 1.502 . S
C679 H665 0.960 . S
C679 H666 0.961 . S
C679 H667 0.959 . S
C679 C677 1.561 . S
C680 C677 1.526 . S
C680 C681 1.396 . S
C680 C685 1.390 . S
C681 C675 1.465 . S
C681 C680 1.396 . S
C681 C682 1.399 . S
C682 H668 0.929 . S
C682 C681 1.399 . S
C682 C683 1.385 . S
C683 H669 0.931 . S
C683 C682 1.385 . S
C683 C684 1.389 . S
C684 C683 1.389 . S
C684 C685 1.387 . S
C685 H670 0.930 . S
C685 C680 1.390 . S
C685 C684 1.387 . S
H686 C698 0.930 . S
H687 C700 0.930 . S
H688 C701 0.930 . S
H689 C705 0.959 . S
H690 C705 0.959 . S
H691 C705 0.961 . S
H692 C706 0.960 . S
H693 C706 0.961 . S
H694 C706 0.959 . S
H695 C709 0.929 . S
H696 C710 0.931 . S
H697 C712 0.930 . S
C698 H686 0.930 . S
C698 C699 1.399 . S
C698 C703 1.399 . S
C699 C698 1.399 . S
C699 C700 1.376 . S
C700 H687 0.930 . S
C700 C699 1.376 . S
C700 C701 1.388 . S
C701 H688 0.930 . S
C701 C700 1.388 . S
C701 C702 1.390 . S
C702 C701 1.390 . S
C702 C703 1.394 . S
C702 C708 1.465 . S
C703 C698 1.399 . S
C703 C702 1.394 . S
C703 C704 1.516 . S
C704 C703 1.516 . S
C704 C705 1.502 . S
C704 C706 1.561 . S
C704 C707 1.526 . S
C705 H689 0.959 . S
C705 H690 0.959 . S
C705 H691 0.961 . S
C705 C704 1.502 . S
C706 H692 0.960 . S
C706 H693 0.961 . S
C706 H694 0.959 . S
C706 C704 1.561 . S
C707 C704 1.526 . S
C707 C708 1.396 . S
C707 C712 1.390 . S
C708 C702 1.465 . S
C708 C707 1.396 . S
C708 C709 1.399 . S
C709 H695 0.929 . S
C709 C708 1.399 . S
C709 C710 1.385 . S
C710 H696 0.931 . S
C710 C709 1.385 . S
C710 C711 1.389 . S
C711 C710 1.389 . S
C711 C712 1.387 . S
C712 H697 0.930 . S
C712 C707 1.390 . S
C712 C711 1.387 . S
H713 C725 0.930 . S
H714 C727 0.930 . S
H715 C728 0.930 . S
H716 C732 0.959 . S
H717 C732 0.959 . S
H718 C732 0.961 . S
H719 C733 0.960 . S
H720 C733 0.961 . S
H721 C733 0.959 . S
H722 C736 0.929 . S
H723 C737 0.931 . S
H724 C739 0.930 . S
C725 H713 0.930 . S
C725 C726 1.399 . S
C725 C730 1.399 . S
C726 C725 1.399 . S
C726 C727 1.376 . S
C727 H714 0.930 . S
C727 C726 1.376 . S
C727 C728 1.388 . S
C728 H715 0.930 . S
C728 C727 1.388 . S
C728 C729 1.390 . S
C729 C728 1.390 . S
C729 C730 1.394 . S
C729 C735 1.465 . S
C730 C725 1.399 . S
C730 C729 1.394 . S
C730 C731 1.516 . S
C731 C730 1.516 . S
C731 C732 1.502 . S
C731 C733 1.561 . S
C731 C734 1.526 . S
C732 H716 0.959 . S
C732 H717 0.959 . S
C732 H718 0.961 . S
C732 C731 1.502 . S
C733 H719 0.960 . S
C733 H720 0.961 . S
C733 H721 0.959 . S
C733 C731 1.561 . S
C734 C731 1.526 . S
C734 C735 1.396 . S
C734 C739 1.390 . S
C735 C729 1.465 . S
C735 C734 1.396 . S
C735 C736 1.399 . S
C736 H722 0.929 . S
C736 C735 1.399 . S
C736 C737 1.385 . S
C737 H723 0.931 . S
C737 C736 1.385 . S
C737 C738 1.389 . S
C738 C737 1.389 . S
C738 C739 1.387 . S
C739 H724 0.930 . S
C739 C734 1.390 . S
C739 C738 1.387 . S
H740 C752 0.930 . S
H741 C754 0.930 . S
H742 C755 0.930 . S
H743 C759 0.959 . S
H744 C759 0.959 . S
H745 C759 0.961 . S
H746 C760 0.960 . S
H747 C760 0.961 . S
H748 C760 0.959 . S
H749 C763 0.929 . S
H750 C764 0.931 . S
H751 C766 0.930 . S
C752 H740 0.930 . S
C752 C753 1.399 . S
C752 C757 1.399 . S
C753 C752 1.399 . S
C753 C754 1.376 . S
C754 H741 0.930 . S
C754 C753 1.376 . S
C754 C755 1.388 . S
C755 H742 0.930 . S
C755 C754 1.388 . S
C755 C756 1.390 . S
C756 C755 1.390 . S
C756 C757 1.394 . S
C756 C762 1.465 . S
C757 C752 1.399 . S
C757 C756 1.394 . S
C757 C758 1.516 . S
C758 C757 1.516 . S
C758 C759 1.502 . S
C758 C760 1.561 . S
C758 C761 1.526 . S
C759 H743 0.959 . S
C759 H744 0.959 . S
C759 H745 0.961 . S
C759 C758 1.502 . S
C760 H746 0.960 . S
C760 H747 0.961 . S
C760 H748 0.959 . S
C760 C758 1.561 . S
C761 C758 1.526 . S
C761 C762 1.396 . S
C761 C766 1.390 . S
C762 C756 1.465 . S
C762 C761 1.396 . S
C762 C763 1.399 . S
C763 H749 0.929 . S
C763 C762 1.399 . S
C763 C764 1.385 . S
C764 H750 0.931 . S
C764 C763 1.385 . S
C764 C765 1.389 . S
C765 C764 1.389 . S
C765 C766 1.387 . S
C766 H751 0.930 . S
C766 C761 1.390 . S
C766 C765 1.387 . S
H767 C779 0.930 . S
H768 C781 0.930 . S
H769 C782 0.930 . S
H770 C786 0.959 . S
H771 C786 0.959 . S
H772 C786 0.961 . S
H773 C787 0.960 . S
H774 C787 0.961 . S
H775 C787 0.959 . S
H776 C790 0.929 . S
H777 C791 0.931 . S
H778 C793 0.930 . S
C779 H767 0.930 . S
C779 C780 1.399 . S
C779 C784 1.399 . S
C780 C779 1.399 . S
C780 C781 1.376 . S
C781 H768 0.930 . S
C781 C780 1.376 . S
C781 C782 1.388 . S
C782 H769 0.930 . S
C782 C781 1.388 . S
C782 C783 1.390 . S
C783 C782 1.390 . S
C783 C784 1.394 . S
C783 C789 1.465 . S
C784 C779 1.399 . S
C784 C783 1.394 . S
C784 C785 1.516 . S
C785 C784 1.516 . S
C785 C786 1.502 . S
C785 C787 1.561 . S
C785 C788 1.526 . S
C786 H770 0.959 . S
C786 H771 0.959 . S
C786 H772 0.961 . S
C786 C785 1.502 . S
C787 H773 0.960 . S
C787 H774 0.961 . S
C787 H775 0.959 . S
C787 C785 1.561 . S
C788 C785 1.526 . S
C788 C789 1.396 . S
C788 C793 1.390 . S
C789 C783 1.465 . S
C789 C788 1.396 . S
C789 C790 1.399 . S
C790 H776 0.929 . S
C790 C789 1.399 . S
C790 C791 1.385 . S
C791 H777 0.931 . S
C791 C790 1.385 . S
C791 C792 1.389 . S
C792 C791 1.389 . S
C792 C793 1.387 . S
C793 H778 0.930 . S
C793 C788 1.390 . S
C793 C792 1.387 . S
H794 C806 0.930 . S
H795 C808 0.930 . S
H796 C809 0.930 . S
H797 C813 0.959 . S
H798 C813 0.959 . S
H799 C813 0.961 . S
H800 C814 0.960 . S
H801 C814 0.961 . S
H802 C814 0.959 . S
H803 C817 0.929 . S
H804 C818 0.931 . S
H805 C820 0.930 . S
C806 H794 0.930 . S
C806 C807 1.399 . S
C806 C811 1.399 . S
C807 C806 1.399 . S
C807 C808 1.376 . S
C808 H795 0.930 . S
C808 C807 1.376 . S
C808 C809 1.388 . S
C809 H796 0.930 . S
C809 C808 1.388 . S
C809 C810 1.390 . S
C810 C809 1.390 . S
C810 C811 1.394 . S
C810 C816 1.465 . S
C811 C806 1.399 . S
C811 C810 1.394 . S
C811 C812 1.516 . S
C812 C811 1.516 . S
C812 C813 1.502 . S
C812 C814 1.561 . S
C812 C815 1.526 . S
C813 H797 0.959 . S
C813 H798 0.959 . S
C813 H799 0.961 . S
C813 C812 1.502 . S
C814 H800 0.960 . S
C814 H801 0.961 . S
C814 H802 0.959 . S
C814 C812 1.561 . S
C815 C812 1.526 . S
C815 C816 1.396 . S
C815 C820 1.390 . S
C816 C810 1.465 . S
C816 C815 1.396 . S
C816 C817 1.399 . S
C817 H803 0.929 . S
C817 C816 1.399 . S
C817 C818 1.385 . S
C818 H804 0.931 . S
C818 C817 1.385 . S
C818 C819 1.389 . S
C819 C818 1.389 . S
C819 C820 1.387 . S
C820 H805 0.930 . S
C820 C815 1.390 . S
C820 C819 1.387 . S
H821 C833 0.930 . S
H822 C835 0.930 . S
H823 C836 0.930 . S
H824 C840 0.959 . S
H825 C840 0.959 . S
H826 C840 0.961 . S
H827 C841 0.960 . S
H828 C841 0.961 . S
H829 C841 0.959 . S
H830 C844 0.929 . S
H831 C845 0.931 . S
H832 C847 0.930 . S
C833 H821 0.930 . S
C833 C834 1.399 . S
C833 C838 1.399 . S
C834 C833 1.399 . S
C834 C835 1.376 . S
C835 H822 0.930 . S
C835 C834 1.376 . S
C835 C836 1.388 . S
C836 H823 0.930 . S
C836 C835 1.388 . S
C836 C837 1.390 . S
C837 C836 1.390 . S
C837 C838 1.394 . S
C837 C843 1.465 . S
C838 C833 1.399 . S
C838 C837 1.394 . S
C838 C839 1.516 . S
C839 C838 1.516 . S
C839 C840 1.502 . S
C839 C841 1.561 . S
C839 C842 1.526 . S
C840 H824 0.959 . S
C840 H825 0.959 . S
C840 H826 0.961 . S
C840 C839 1.502 . S
C841 H827 0.960 . S
C841 H828 0.961 . S
C841 H829 0.959 . S
C841 C839 1.561 . S
C842 C839 1.526 . S
C842 C843 1.396 . S
C842 C847 1.390 . S
C843 C837 1.465 . S
C843 C842 1.396 . S
C843 C844 1.399 . S
C844 H830 0.929 . S
C844 C843 1.399 . S
C844 C845 1.385 . S
C845 H831 0.931 . S
C845 C844 1.385 . S
C845 C846 1.389 . S
C846 C845 1.389 . S
C846 C847 1.387 . S
C847 H832 0.930 . S
C847 C842 1.390 . S
C847 C846 1.387 . S
H848 C860 0.930 . S
H849 C862 0.930 . S
H850 C863 0.930 . S
H851 C867 0.962 . S
H852 C867 0.980 . S
H853 C867 0.938 1_554 S
H854 C868 0.956 1_554 S
H855 C868 0.964 . S
H856 C868 0.959 . S
H857 C871 0.929 . S
H858 C872 0.931 . S
H859 C874 0.930 . S
C860 H848 0.930 . S
C860 C861 1.399 . S
C860 C865 1.399 . S
C861 C860 1.399 . S
C861 C862 1.376 . S
C862 H849 0.930 . S
C862 C861 1.376 . S
C862 C863 1.388 . S
C863 H850 0.930 . S
C863 C862 1.388 . S
C863 C864 1.390 . S
C864 C863 1.390 . S
C864 C865 1.394 . S
C864 C870 1.465 1_554 S
C865 C860 1.399 . S
C865 C864 1.394 . S
C865 C866 1.516 1_554 S
C866 C865 1.516 1_556 S
C866 C867 1.502 . S
C866 C868 1.561 . S
C866 C869 1.526 . S
C867 H851 0.962 . S
C867 H852 0.980 . S
C867 H853 0.938 1_556 S
C867 C866 1.502 . S
C868 H854 0.956 1_556 S
C868 H855 0.964 . S
C868 H856 0.959 . S
C868 C866 1.561 . S
C869 C866 1.526 . S
C869 C870 1.396 . S
C869 C874 1.390 . S
C870 C864 1.465 1_556 S
C870 C869 1.396 . S
C870 C871 1.399 . S
C871 H857 0.929 . S
C871 C870 1.399 . S
C871 C872 1.385 . S
C872 H858 0.931 . S
C872 C871 1.385 . S
C872 C873 1.389 . S
C873 C872 1.389 . S
C873 C874 1.387 . S
C874 H859 0.930 . S
C874 C869 1.390 . S
C874 C873 1.387 . S
H875 C887 0.930 . S
H876 C889 0.930 . S
H877 C890 0.930 . S
H878 C894 0.962 . S
H879 C894 0.980 . S
H880 C894 0.938 1_556 S
H881 C895 0.956 1_556 S
H882 C895 0.964 . S
H883 C895 0.959 . S
H884 C898 0.929 . S
H885 C899 0.931 . S
H886 C901 0.930 . S
C887 H875 0.930 . S
C887 C888 1.399 . S
C887 C892 1.399 . S
C888 C887 1.399 . S
C888 C889 1.376 . S
C889 H876 0.930 . S
C889 C888 1.376 . S
C889 C890 1.388 . S
C890 H877 0.930 . S
C890 C889 1.388 . S
C890 C891 1.390 . S
C891 C890 1.390 . S
C891 C892 1.394 . S
C891 C897 1.465 1_556 S
C892 C887 1.399 . S
C892 C891 1.394 . S
C892 C893 1.516 1_556 S
C893 C892 1.516 1_554 S
C893 C894 1.502 . S
C893 C895 1.561 . S
C893 C896 1.526 . S
C894 H878 0.962 . S
C894 H879 0.980 . S
C894 H880 0.938 1_554 S
C894 C893 1.502 . S
C895 H881 0.956 1_554 S
C895 H882 0.964 . S
C895 H883 0.959 . S
C895 C893 1.561 . S
C896 C893 1.526 . S
C896 C897 1.396 . S
C896 C901 1.390 . S
C897 C891 1.465 1_554 S
C897 C896 1.396 . S
C897 C898 1.399 . S
C898 H884 0.929 . S
C898 C897 1.399 . S
C898 C899 1.385 . S
C899 H885 0.931 . S
C899 C898 1.385 . S
C899 C900 1.389 . S
C900 C899 1.389 . S
C900 C901 1.387 . S
C901 H886 0.930 . S
C901 C896 1.390 . S
C901 C900 1.387 . S
H902 C914 0.930 . S
H903 C916 0.930 . S
H904 C917 0.930 . S
H905 C921 0.962 . S
H906 C921 0.980 . S
H907 C921 0.938 1_556 S
H908 C922 0.956 1_556 S
H909 C922 0.964 . S
H910 C922 0.959 . S
H911 C925 0.929 . S
H912 C926 0.931 . S
H913 C928 0.930 . S
C914 H902 0.930 . S
C914 C915 1.399 . S
C914 C919 1.399 . S
C915 C914 1.399 . S
C915 C916 1.376 . S
C916 H903 0.930 . S
C916 C915 1.376 . S
C916 C917 1.388 . S
C917 H904 0.930 . S
C917 C916 1.388 . S
C917 C918 1.390 . S
C918 C917 1.390 . S
C918 C919 1.394 . S
C918 C924 1.465 1_556 S
C919 C914 1.399 . S
C919 C918 1.394 . S
C919 C920 1.516 1_556 S
C920 C919 1.516 1_554 S
C920 C921 1.502 . S
C920 C922 1.561 . S
C920 C923 1.526 . S
C921 H905 0.962 . S
C921 H906 0.980 . S
C921 H907 0.938 1_554 S
C921 C920 1.502 . S
C922 H908 0.956 1_554 S
C922 H909 0.964 . S
C922 H910 0.959 . S
C922 C920 1.561 . S
C923 C920 1.526 . S
C923 C924 1.396 . S
C923 C928 1.390 . S
C924 C918 1.465 1_554 S
C924 C923 1.396 . S
C924 C925 1.399 . S
C925 H911 0.929 . S
C925 C924 1.399 . S
C925 C926 1.385 . S
C926 H912 0.931 . S
C926 C925 1.385 . S
C926 C927 1.389 . S
C927 C926 1.389 . S
C927 C928 1.387 . S
C928 H913 0.930 . S
C928 C923 1.390 . S
C928 C927 1.387 . S
H929 C941 0.930 . S
H930 C943 0.930 . S
H931 C944 0.930 . S
H932 C948 0.962 . S
H933 C948 0.980 . S
H934 C948 0.938 1_556 S
H935 C949 0.956 1_556 S
H936 C949 0.964 . S
H937 C949 0.959 . S
H938 C952 0.929 . S
H939 C953 0.931 . S
H940 C955 0.930 . S
C941 H929 0.930 . S
C941 C942 1.399 . S
C941 C946 1.399 . S
C942 C941 1.399 . S
C942 C943 1.376 . S
C943 H930 0.930 . S
C943 C942 1.376 . S
C943 C944 1.388 . S
C944 H931 0.930 . S
C944 C943 1.388 . S
C944 C945 1.390 . S
C945 C944 1.390 . S
C945 C946 1.394 . S
C945 C951 1.465 1_556 S
C946 C941 1.399 . S
C946 C945 1.394 . S
C946 C947 1.516 1_556 S
C947 C946 1.516 1_554 S
C947 C948 1.502 . S
C947 C949 1.561 . S
C947 C950 1.526 . S
C948 H932 0.962 . S
C948 H933 0.980 . S
C948 H934 0.938 1_554 S
C948 C947 1.502 . S
C949 H935 0.956 1_554 S
C949 H936 0.964 . S
C949 H937 0.959 . S
C949 C947 1.561 . S
C950 C947 1.526 . S
C950 C951 1.396 . S
C950 C955 1.390 . S
C951 C945 1.465 1_554 S
C951 C950 1.396 . S
C951 C952 1.399 . S
C952 H938 0.929 . S
C952 C951 1.399 . S
C952 C953 1.385 . S
C953 H939 0.931 . S
C953 C952 1.385 . S
C953 C954 1.389 . S
C954 C953 1.389 . S
C954 C955 1.387 . S
C955 H940 0.930 . S
C955 C950 1.390 . S
C955 C954 1.387 . S
H956 C968 0.930 . S
H957 C970 0.930 . S
H958 C971 0.930 . S
H959 C975 0.959 . S
H960 C975 0.959 . S
H961 C975 0.961 . S
H962 C976 0.960 . S
H963 C976 0.961 . S
H964 C976 0.959 . S
H965 C979 0.929 . S
H966 C980 0.931 . S
H967 C982 0.930 . S
C968 H956 0.930 . S
C968 C969 1.399 . S
C968 C973 1.399 . S
C969 C968 1.399 . S
C969 C970 1.376 . S
C970 H957 0.930 . S
C970 C969 1.376 . S
C970 C971 1.388 . S
C971 H958 0.930 . S
C971 C970 1.388 . S
C971 C972 1.390 . S
C972 C971 1.390 . S
C972 C973 1.394 . S
C972 C978 1.465 . S
C973 C968 1.399 . S
C973 C972 1.394 . S
C973 C974 1.516 . S
C974 C973 1.516 . S
C974 C975 1.502 . S
C974 C976 1.561 . S
C974 C977 1.526 . S
C975 H959 0.959 . S
C975 H960 0.959 . S
C975 H961 0.961 . S
C975 C974 1.502 . S
C976 H962 0.960 . S
C976 H963 0.961 . S
C976 H964 0.959 . S
C976 C974 1.561 . S
C977 C974 1.526 . S
C977 C978 1.396 . S
C977 C982 1.390 . S
C978 C972 1.465 . S
C978 C977 1.396 . S
C978 C979 1.399 . S
C979 H965 0.929 . S
C979 C978 1.399 . S
C979 C980 1.385 . S
C980 H966 0.931 . S
C980 C979 1.385 . S
C980 C981 1.389 . S
C981 C980 1.389 . S
C981 C982 1.387 . S
C982 H967 0.930 . S
C982 C977 1.390 . S
C982 C981 1.387 . S
H983 C995 0.930 . S
H984 C997 0.930 . S
H985 C998 0.930 . S
H986 C1002 0.959 . S
H987 C1002 0.959 . S
H988 C1002 0.961 . S
H989 C1003 0.960 . S
H990 C1003 0.961 . S
H991 C1003 0.959 . S
H992 C1006 0.929 . S
H993 C1007 0.931 . S
H994 C1009 0.930 . S
C995 H983 0.930 . S
C995 C996 1.399 . S
C995 C1000 1.399 . S
C996 C995 1.399 . S
C996 C997 1.376 . S
C997 H984 0.930 . S
C997 C996 1.376 . S
C997 C998 1.388 . S
C998 H985 0.930 . S
C998 C997 1.388 . S
C998 C999 1.390 . S
C999 C998 1.390 . S
C999 C1000 1.394 . S
C999 C1005 1.465 . S
C1000 C995 1.399 . S
C1000 C999 1.394 . S
C1000 C1001 1.516 . S
C1001 C1000 1.516 . S
C1001 C1002 1.502 . S
C1001 C1003 1.561 . S
C1001 C1004 1.526 . S
C1002 H986 0.959 . S
C1002 H987 0.959 . S
C1002 H988 0.961 . S
C1002 C1001 1.502 . S
C1003 H989 0.960 . S
C1003 H990 0.961 . S
C1003 H991 0.959 . S
C1003 C1001 1.561 . S
C1004 C1001 1.526 . S
C1004 C1005 1.396 . S
C1004 C1009 1.390 . S
C1005 C999 1.465 . S
C1005 C1004 1.396 . S
C1005 C1006 1.399 . S
C1006 H992 0.929 . S
C1006 C1005 1.399 . S
C1006 C1007 1.385 . S
C1007 H993 0.931 . S
C1007 C1006 1.385 . S
C1007 C1008 1.389 . S
C1008 C1007 1.389 . S
C1008 C1009 1.387 . S
C1009 H994 0.930 . S
C1009 C1004 1.390 . S
C1009 C1008 1.387 . S
H1010 C1022 0.930 . S
H1011 C1024 0.930 . S
H1012 C1025 0.930 . S
H1013 C1029 0.959 . S
H1014 C1029 0.959 . S
H1015 C1029 0.961 . S
H1016 C1030 0.960 . S
H1017 C1030 0.961 . S
H1018 C1030 0.959 . S
H1019 C1033 0.929 . S
H1020 C1034 0.931 . S
H1021 C1036 0.930 . S
C1022 H1010 0.930 . S
C1022 C1023 1.399 . S
C1022 C1027 1.399 . S
C1023 C1022 1.399 . S
C1023 C1024 1.376 . S
C1024 H1011 0.930 . S
C1024 C1023 1.376 . S
C1024 C1025 1.388 . S
C1025 H1012 0.930 . S
C1025 C1024 1.388 . S
C1025 C1026 1.390 . S
C1026 C1025 1.390 . S
C1026 C1027 1.394 . S
C1026 C1032 1.465 . S
C1027 C1022 1.399 . S
C1027 C1026 1.394 . S
C1027 C1028 1.516 . S
C1028 C1027 1.516 . S
C1028 C1029 1.502 . S
C1028 C1030 1.561 . S
C1028 C1031 1.526 . S
C1029 H1013 0.959 . S
C1029 H1014 0.959 . S
C1029 H1015 0.961 . S
C1029 C1028 1.502 . S
C1030 H1016 0.960 . S
C1030 H1017 0.961 . S
C1030 H1018 0.959 . S
C1030 C1028 1.561 . S
C1031 C1028 1.526 . S
C1031 C1032 1.396 . S
C1031 C1036 1.390 . S
C1032 C1026 1.465 . S
C1032 C1031 1.396 . S
C1032 C1033 1.399 . S
C1033 H1019 0.929 . S
C1033 C1032 1.399 . S
C1033 C1034 1.385 . S
C1034 H1020 0.931 . S
C1034 C1033 1.385 . S
C1034 C1035 1.389 . S
C1035 C1034 1.389 . S
C1035 C1036 1.387 . S
C1036 H1021 0.930 . S
C1036 C1031 1.390 . S
C1036 C1035 1.387 . S
H1037 C1049 0.930 . S
H1038 C1051 0.930 . S
H1039 C1052 0.930 . S
H1040 C1056 0.959 . S
H1041 C1056 0.959 . S
H1042 C1056 0.961 . S
H1043 C1057 0.960 . S
H1044 C1057 0.961 . S
H1045 C1057 0.959 . S
H1046 C1060 0.929 . S
H1047 C1061 0.931 . S
H1048 C1063 0.930 . S
C1049 H1037 0.930 . S
C1049 C1050 1.399 . S
C1049 C1054 1.399 . S
C1050 C1049 1.399 . S
C1050 C1051 1.376 . S
C1051 H1038 0.930 . S
C1051 C1050 1.376 . S
C1051 C1052 1.388 . S
C1052 H1039 0.930 . S
C1052 C1051 1.388 . S
C1052 C1053 1.390 . S
C1053 C1052 1.390 . S
C1053 C1054 1.394 . S
C1053 C1059 1.465 . S
C1054 C1049 1.399 . S
C1054 C1053 1.394 . S
C1054 C1055 1.516 . S
C1055 C1054 1.516 . S
C1055 C1056 1.502 . S
C1055 C1057 1.561 . S
C1055 C1058 1.526 . S
C1056 H1040 0.959 . S
C1056 H1041 0.959 . S
C1056 H1042 0.961 . S
C1056 C1055 1.502 . S
C1057 H1043 0.960 . S
C1057 H1044 0.961 . S
C1057 H1045 0.959 . S
C1057 C1055 1.561 . S
C1058 C1055 1.526 . S
C1058 C1059 1.396 . S
C1058 C1063 1.390 . S
C1059 C1053 1.465 . S
C1059 C1058 1.396 . S
C1059 C1060 1.399 . S
C1060 H1046 0.929 . S
C1060 C1059 1.399 . S
C1060 C1061 1.385 . S
C1061 H1047 0.931 . S
C1061 C1060 1.385 . S
C1061 C1062 1.389 . S
C1062 C1061 1.389 . S
C1062 C1063 1.387 . S
C1063 H1048 0.930 . S
C1063 C1058 1.390 . S
C1063 C1062 1.387 . S
H1064 C1076 0.930 . S
H1065 C1078 0.930 . S
H1066 C1079 0.930 . S
H1067 C1083 0.959 . S
H1068 C1083 0.959 . S
H1069 C1083 0.961 . S
H1070 C1084 0.960 . S
H1071 C1084 0.961 . S
H1072 C1084 0.959 . S
H1073 C1087 0.929 . S
H1074 C1088 0.931 . S
H1075 C1090 0.930 . S
C1076 H1064 0.930 . S
C1076 C1077 1.399 . S
C1076 C1081 1.399 . S
C1077 C1076 1.399 . S
C1077 C1078 1.376 . S
C1078 H1065 0.930 . S
C1078 C1077 1.376 . S
C1078 C1079 1.388 . S
C1079 H1066 0.930 . S
C1079 C1078 1.388 . S
C1079 C1080 1.390 . S
C1080 C1079 1.390 . S
C1080 C1081 1.394 . S
C1080 C1086 1.465 . S
C1081 C1076 1.399 . S
C1081 C1080 1.394 . S
C1081 C1082 1.516 . S
C1082 C1081 1.516 . S
C1082 C1083 1.502 . S
C1082 C1084 1.561 . S
C1082 C1085 1.526 . S
C1083 H1067 0.959 . S
C1083 H1068 0.959 . S
C1083 H1069 0.961 . S
C1083 C1082 1.502 . S
C1084 H1070 0.960 . S
C1084 H1071 0.961 . S
C1084 H1072 0.959 . S
C1084 C1082 1.561 . S
C1085 C1082 1.526 . S
C1085 C1086 1.396 . S
C1085 C1090 1.390 . S
C1086 C1080 1.465 . S
C1086 C1085 1.396 . S
C1086 C1087 1.399 . S
C1087 H1073 0.929 . S
C1087 C1086 1.399 . S
C1087 C1088 1.385 . S
C1088 H1074 0.931 . S
C1088 C1087 1.385 . S
C1088 C1089 1.389 . S
C1089 C1088 1.389 . S
C1089 C1090 1.387 . S
C1090 H1075 0.930 . S
C1090 C1085 1.390 . S
C1090 C1089 1.387 . S
H1091 C1103 0.930 . S
H1092 C1105 0.930 . S
H1093 C1106 0.930 . S
H1094 C1110 0.959 . S
H1095 C1110 0.959 . S
H1096 C1110 0.961 . S
H1097 C1111 0.960 . S
H1098 C1111 0.961 . S
H1099 C1111 0.959 . S
H1100 C1114 0.929 . S
H1101 C1115 0.931 . S
H1102 C1117 0.930 . S
C1103 H1091 0.930 . S
C1103 C1104 1.399 . S
C1103 C1108 1.399 . S
C1104 C1103 1.399 . S
C1104 C1105 1.376 . S
C1105 H1092 0.930 . S
C1105 C1104 1.376 . S
C1105 C1106 1.388 . S
C1106 H1093 0.930 . S
C1106 C1105 1.388 . S
C1106 C1107 1.390 . S
C1107 C1106 1.390 . S
C1107 C1108 1.394 . S
C1107 C1113 1.465 . S
C1108 C1103 1.399 . S
C1108 C1107 1.394 . S
C1108 C1109 1.516 . S
C1109 C1108 1.516 . S
C1109 C1110 1.502 . S
C1109 C1111 1.561 . S
C1109 C1112 1.526 . S
C1110 H1094 0.959 . S
C1110 H1095 0.959 . S
C1110 H1096 0.961 . S
C1110 C1109 1.502 . S
C1111 H1097 0.960 . S
C1111 H1098 0.961 . S
C1111 H1099 0.959 . S
C1111 C1109 1.561 . S
C1112 C1109 1.526 . S
C1112 C1113 1.396 . S
C1112 C1117 1.390 . S
C1113 C1107 1.465 . S
C1113 C1112 1.396 . S
C1113 C1114 1.399 . S
C1114 H1100 0.929 . S
C1114 C1113 1.399 . S
C1114 C1115 1.385 . S
C1115 H1101 0.931 . S
C1115 C1114 1.385 . S
C1115 C1116 1.389 . S
C1116 C1115 1.389 . S
C1116 C1117 1.387 . S
C1117 H1102 0.930 . S
C1117 C1112 1.390 . S
C1117 C1116 1.387 . S
H1118 C1130 0.930 . S
H1119 C1132 0.930 . S
H1120 C1133 0.930 . S
H1121 C1137 0.959 . S
H1122 C1137 0.959 . S
H1123 C1137 0.961 . S
H1124 C1138 0.960 . S
H1125 C1138 0.961 . S
H1126 C1138 0.959 . S
H1127 C1141 0.929 . S
H1128 C1142 0.931 . S
H1129 C1144 0.930 . S
C1130 H1118 0.930 . S
C1130 C1131 1.399 . S
C1130 C1135 1.399 . S
C1131 C1130 1.399 . S
C1131 C1132 1.376 . S
C1132 H1119 0.930 . S
C1132 C1131 1.376 . S
C1132 C1133 1.388 . S
C1133 H1120 0.930 . S
C1133 C1132 1.388 . S
C1133 C1134 1.390 . S
C1134 C1133 1.390 . S
C1134 C1135 1.394 . S
C1134 C1140 1.465 . S
C1135 C1130 1.399 . S
C1135 C1134 1.394 . S
C1135 C1136 1.516 . S
C1136 C1135 1.516 . S
C1136 C1137 1.502 . S
C1136 C1138 1.561 . S
C1136 C1139 1.526 . S
C1137 H1121 0.959 . S
C1137 H1122 0.959 . S
C1137 H1123 0.961 . S
C1137 C1136 1.502 . S
C1138 H1124 0.960 . S
C1138 H1125 0.961 . S
C1138 H1126 0.959 . S
C1138 C1136 1.561 . S
C1139 C1136 1.526 . S
C1139 C1140 1.396 . S
C1139 C1144 1.390 . S
C1140 C1134 1.465 . S
C1140 C1139 1.396 . S
C1140 C1141 1.399 . S
C1141 H1127 0.929 . S
C1141 C1140 1.399 . S
C1141 C1142 1.385 . S
C1142 H1128 0.931 . S
C1142 C1141 1.385 . S
C1142 C1143 1.389 . S
C1143 C1142 1.389 . S
C1143 C1144 1.387 . S
C1144 H1129 0.930 . S
C1144 C1139 1.390 . S
C1144 C1143 1.387 . S
H1145 C1157 0.930 . S
H1146 C1159 0.930 . S
H1147 C1160 0.930 . S
H1148 C1164 0.959 . S
H1149 C1164 0.959 . S
H1150 C1164 0.961 . S
H1151 C1165 0.960 . S
H1152 C1165 0.961 . S
H1153 C1165 0.959 . S
H1154 C1168 0.929 . S
H1155 C1169 0.931 . S
H1156 C1171 0.930 . S
C1157 H1145 0.930 . S
C1157 C1158 1.399 . S
C1157 C1162 1.399 . S
C1158 C1157 1.399 . S
C1158 C1159 1.376 . S
C1159 H1146 0.930 . S
C1159 C1158 1.376 . S
C1159 C1160 1.388 . S
C1160 H1147 0.930 . S
C1160 C1159 1.388 . S
C1160 C1161 1.390 . S
C1161 C1160 1.390 . S
C1161 C1162 1.394 . S
C1161 C1167 1.465 . S
C1162 C1157 1.399 . S
C1162 C1161 1.394 . S
C1162 C1163 1.516 . S
C1163 C1162 1.516 . S
C1163 C1164 1.502 . S
C1163 C1165 1.561 . S
C1163 C1166 1.526 . S
C1164 H1148 0.959 . S
C1164 H1149 0.959 . S
C1164 H1150 0.961 . S
C1164 C1163 1.502 . S
C1165 H1151 0.960 . S
C1165 H1152 0.961 . S
C1165 H1153 0.959 . S
C1165 C1163 1.561 . S
C1166 C1163 1.526 . S
C1166 C1167 1.396 . S
C1166 C1171 1.390 . S
C1167 C1161 1.465 . S
C1167 C1166 1.396 . S
C1167 C1168 1.399 . S
C1168 H1154 0.929 . S
C1168 C1167 1.399 . S
C1168 C1169 1.385 . S
C1169 H1155 0.931 . S
C1169 C1168 1.385 . S
C1169 C1170 1.389 . S
C1170 C1169 1.389 . S
C1170 C1171 1.387 . S
C1171 H1156 0.930 . S
C1171 C1166 1.390 . S
C1171 C1170 1.387 . S
H1172 C1184 0.930 . S
H1173 C1186 0.930 . S
H1174 C1187 0.930 . S
H1175 C1191 0.962 . S
H1176 C1191 0.980 . S
H1177 C1191 0.938 1_556 S
H1178 C1192 0.956 1_556 S
H1179 C1192 0.964 . S
H1180 C1192 0.959 . S
H1181 C1195 0.929 . S
H1182 C1196 0.931 . S
H1183 C1198 0.930 . S
C1184 H1172 0.930 . S
C1184 C1185 1.399 . S
C1184 C1189 1.399 . S
C1185 C1184 1.399 . S
C1185 C1186 1.376 . S
C1186 H1173 0.930 . S
C1186 C1185 1.376 . S
C1186 C1187 1.388 . S
C1187 H1174 0.930 . S
C1187 C1186 1.388 . S
C1187 C1188 1.390 . S
C1188 C1187 1.390 . S
C1188 C1189 1.394 . S
C1188 C1194 1.465 1_556 S
C1189 C1184 1.399 . S
C1189 C1188 1.394 . S
C1189 C1190 1.516 1_556 S
C1190 C1189 1.516 1_554 S
C1190 C1191 1.502 . S
C1190 C1192 1.561 . S
C1190 C1193 1.526 . S
C1191 H1175 0.962 . S
C1191 H1176 0.980 . S
C1191 H1177 0.938 1_554 S
C1191 C1190 1.502 . S
C1192 H1178 0.956 1_554 S
C1192 H1179 0.964 . S
C1192 H1180 0.959 . S
C1192 C1190 1.561 . S
C1193 C1190 1.526 . S
C1193 C1194 1.396 . S
C1193 C1198 1.390 . S
C1194 C1188 1.465 1_554 S
C1194 C1193 1.396 . S
C1194 C1195 1.399 . S
C1195 H1181 0.929 . S
C1195 C1194 1.399 . S
C1195 C1196 1.385 . S
C1196 H1182 0.931 . S
C1196 C1195 1.385 . S
C1196 C1197 1.389 . S
C1197 C1196 1.389 . S
C1197 C1198 1.387 . S
C1198 H1183 0.930 . S
C1198 C1193 1.390 . S
C1198 C1197 1.387 . S
H1199 C1211 0.930 . S
H1200 C1213 0.930 . S
H1201 C1214 0.930 . S
H1202 C1218 0.962 . S
H1203 C1218 0.980 . S
H1204 C1218 0.938 1_554 S
H1205 C1219 0.956 1_554 S
H1206 C1219 0.964 . S
H1207 C1219 0.959 . S
H1208 C1222 0.929 . S
H1209 C1223 0.931 . S
H1210 C1225 0.930 . S
C1211 H1199 0.930 . S
C1211 C1212 1.399 . S
C1211 C1216 1.399 . S
C1212 C1211 1.399 . S
C1212 C1213 1.376 . S
C1213 H1200 0.930 . S
C1213 C1212 1.376 . S
C1213 C1214 1.388 . S
C1214 H1201 0.930 . S
C1214 C1213 1.388 . S
C1214 C1215 1.390 . S
C1215 C1214 1.390 . S
C1215 C1216 1.394 . S
C1215 C1221 1.465 1_554 S
C1216 C1211 1.399 . S
C1216 C1215 1.394 . S
C1216 C1217 1.516 1_554 S
C1217 C1216 1.516 1_556 S
C1217 C1218 1.502 . S
C1217 C1219 1.561 . S
C1217 C1220 1.526 . S
C1218 H1202 0.962 . S
C1218 H1203 0.980 . S
C1218 H1204 0.938 1_556 S
C1218 C1217 1.502 . S
C1219 H1205 0.956 1_556 S
C1219 H1206 0.964 . S
C1219 H1207 0.959 . S
C1219 C1217 1.561 . S
C1220 C1217 1.526 . S
C1220 C1221 1.396 . S
C1220 C1225 1.390 . S
C1221 C1215 1.465 1_556 S
C1221 C1220 1.396 . S
C1221 C1222 1.399 . S
C1222 H1208 0.929 . S
C1222 C1221 1.399 . S
C1222 C1223 1.385 . S
C1223 H1209 0.931 . S
C1223 C1222 1.385 . S
C1223 C1224 1.389 . S
C1224 C1223 1.389 . S
C1224 C1225 1.387 . S
C1225 H1210 0.930 . S
C1225 C1220 1.390 . S
C1225 C1224 1.387 . S
H1226 C1238 0.930 . S
H1227 C1240 0.930 . S
H1228 C1241 0.930 . S
H1229 C1245 0.962 . S
H1230 C1245 0.980 . S
H1231 C1245 0.938 1_554 S
H1232 C1246 0.956 1_554 S
H1233 C1246 0.964 . S
H1234 C1246 0.959 . S
H1235 C1249 0.929 . S
H1236 C1250 0.931 . S
H1237 C1252 0.930 . S
C1238 H1226 0.930 . S
C1238 C1239 1.399 . S
C1238 C1243 1.399 . S
C1239 C1238 1.399 . S
C1239 C1240 1.376 . S
C1240 H1227 0.930 . S
C1240 C1239 1.376 . S
C1240 C1241 1.388 . S
C1241 H1228 0.930 . S
C1241 C1240 1.388 . S
C1241 C1242 1.390 . S
C1242 C1241 1.390 . S
C1242 C1243 1.394 . S
C1242 C1248 1.465 1_554 S
C1243 C1238 1.399 . S
C1243 C1242 1.394 . S
C1243 C1244 1.516 1_554 S
C1244 C1243 1.516 1_556 S
C1244 C1245 1.502 . S
C1244 C1246 1.561 . S
C1244 C1247 1.526 . S
C1245 H1229 0.962 . S
C1245 H1230 0.980 . S
C1245 H1231 0.938 1_556 S
C1245 C1244 1.502 . S
C1246 H1232 0.956 1_556 S
C1246 H1233 0.964 . S
C1246 H1234 0.959 . S
C1246 C1244 1.561 . S
C1247 C1244 1.526 . S
C1247 C1248 1.396 . S
C1247 C1252 1.390 . S
C1248 C1242 1.465 1_556 S
C1248 C1247 1.396 . S
C1248 C1249 1.399 . S
C1249 H1235 0.929 . S
C1249 C1248 1.399 . S
C1249 C1250 1.385 . S
C1250 H1236 0.931 . S
C1250 C1249 1.385 . S
C1250 C1251 1.389 . S
C1251 C1250 1.389 . S
C1251 C1252 1.387 . S
C1252 H1237 0.930 . S
C1252 C1247 1.390 . S
C1252 C1251 1.387 . S
H1253 C1265 0.930 . S
H1254 C1267 0.930 . S
H1255 C1268 0.930 . S
H1256 C1272 0.962 . S
H1257 C1272 0.980 . S
H1258 C1272 0.938 1_556 S
H1259 C1273 0.956 1_556 S
H1260 C1273 0.964 . S
H1261 C1273 0.959 . S
H1262 C1276 0.929 . S
H1263 C1277 0.931 . S
H1264 C1279 0.930 . S
C1265 H1253 0.930 . S
C1265 C1266 1.399 . S
C1265 C1270 1.399 . S
C1266 C1265 1.399 . S
C1266 C1267 1.376 . S
C1267 H1254 0.930 . S
C1267 C1266 1.376 . S
C1267 C1268 1.388 . S
C1268 H1255 0.930 . S
C1268 C1267 1.388 . S
C1268 C1269 1.390 . S
C1269 C1268 1.390 . S
C1269 C1270 1.394 . S
C1269 C1275 1.465 1_556 S
C1270 C1265 1.399 . S
C1270 C1269 1.394 . S
C1270 C1271 1.516 1_556 S
C1271 C1270 1.516 1_554 S
C1271 C1272 1.502 . S
C1271 C1273 1.561 . S
C1271 C1274 1.526 . S
C1272 H1256 0.962 . S
C1272 H1257 0.980 . S
C1272 H1258 0.938 1_554 S
C1272 C1271 1.502 . S
C1273 H1259 0.956 1_554 S
C1273 H1260 0.964 . S
C1273 H1261 0.959 . S
C1273 C1271 1.561 . S
C1274 C1271 1.526 . S
C1274 C1275 1.396 . S
C1274 C1279 1.390 . S
C1275 C1269 1.465 1_554 S
C1275 C1274 1.396 . S
C1275 C1276 1.399 . S
C1276 H1262 0.929 . S
C1276 C1275 1.399 . S
C1276 C1277 1.385 . S
C1277 H1263 0.931 . S
C1277 C1276 1.385 . S
C1277 C1278 1.389 . S
C1278 C1277 1.389 . S
C1278 C1279 1.387 . S
C1279 H1264 0.930 . S
C1279 C1274 1.390 . S
C1279 C1278 1.387 . S
H1280 C1292 0.930 . S
H1281 C1294 0.930 . S
H1282 C1295 0.930 . S
H1283 C1299 0.959 . S
H1284 C1299 0.959 . S
H1285 C1299 0.961 . S
H1286 C1300 0.960 . S
H1287 C1300 0.961 . S
H1288 C1300 0.959 . S
H1289 C1303 0.929 . S
H1290 C1304 0.931 . S
H1291 C1306 0.930 . S
C1292 H1280 0.930 . S
C1292 C1293 1.399 . S
C1292 C1297 1.399 . S
C1293 C1292 1.399 . S
C1293 C1294 1.376 . S
C1294 H1281 0.930 . S
C1294 C1293 1.376 . S
C1294 C1295 1.388 . S
C1295 H1282 0.930 . S
C1295 C1294 1.388 . S
C1295 C1296 1.390 . S
C1296 C1295 1.390 . S
C1296 C1297 1.394 . S
C1296 C1302 1.465 1_545 S
C1297 C1292 1.399 . S
C1297 C1296 1.394 . S
C1297 C1298 1.516 . S
C1298 C1297 1.516 . S
C1298 C1299 1.502 . S
C1298 C1300 1.561 . S
C1298 C1301 1.526 1_545 S
C1299 H1283 0.959 . S
C1299 H1284 0.959 . S
C1299 H1285 0.961 . S
C1299 C1298 1.502 . S
C1300 H1286 0.960 . S
C1300 H1287 0.961 . S
C1300 H1288 0.959 . S
C1300 C1298 1.561 . S
C1301 C1298 1.526 1_565 S
C1301 C1302 1.396 . S
C1301 C1306 1.390 . S
C1302 C1296 1.465 1_565 S
C1302 C1301 1.396 . S
C1302 C1303 1.399 . S
C1303 H1289 0.929 . S
C1303 C1302 1.399 . S
C1303 C1304 1.385 . S
C1304 H1290 0.931 . S
C1304 C1303 1.385 . S
C1304 C1305 1.389 . S
C1305 C1304 1.389 . S
C1305 C1306 1.387 . S
C1306 H1291 0.930 . S
C1306 C1301 1.390 . S
C1306 C1305 1.387 . S
H1307 C1319 0.930 . S
H1308 C1321 0.930 . S
H1309 C1322 0.930 . S
H1310 C1326 0.959 . S
H1311 C1326 0.959 . S
H1312 C1326 0.961 . S
H1313 C1327 0.960 . S
H1314 C1327 0.961 1_455 S
H1315 C1327 0.959 . S
H1316 C1330 0.929 . S
H1317 C1331 0.931 . S
H1318 C1333 0.930 . S
C1319 H1307 0.930 . S
C1319 C1320 1.399 . S
C1319 C1324 1.399 . S
C1320 C1319 1.399 . S
C1320 C1321 1.376 . S
C1321 H1308 0.930 . S
C1321 C1320 1.376 . S
C1321 C1322 1.388 . S
C1322 H1309 0.930 . S
C1322 C1321 1.388 . S
C1322 C1323 1.390 . S
C1323 C1322 1.390 . S
C1323 C1324 1.394 . S
C1323 C1329 1.465 1_655 S
C1324 C1319 1.399 . S
C1324 C1323 1.394 . S
C1324 C1325 1.516 1_655 S
C1325 C1324 1.516 1_455 S
C1325 C1326 1.502 . S
C1325 C1327 1.561 1_455 S
C1325 C1328 1.526 . S
C1326 H1310 0.959 . S
C1326 H1311 0.959 . S
C1326 H1312 0.961 . S
C1326 C1325 1.502 . S
C1327 H1313 0.960 . S
C1327 H1314 0.961 1_655 S
C1327 H1315 0.959 . S
C1327 C1325 1.561 1_655 S
C1328 C1325 1.526 . S
C1328 C1329 1.396 . S
C1328 C1333 1.390 . S
C1329 C1323 1.465 1_455 S
C1329 C1328 1.396 . S
C1329 C1330 1.399 . S
C1330 H1316 0.929 . S
C1330 C1329 1.399 . S
C1330 C1331 1.385 . S
C1331 H1317 0.931 . S
C1331 C1330 1.385 . S
C1331 C1332 1.389 . S
C1332 C1331 1.389 . S
C1332 C1333 1.387 . S
C1333 H1318 0.930 . S
C1333 C1328 1.390 . S
C1333 C1332 1.387 . S
H1334 C1346 0.930 . S
H1335 C1348 0.930 . S
H1336 C1349 0.950 . S
H1337 C1353 0.959 . S
H1338 C1353 0.959 . S
H1339 C1353 0.961 . S
H1340 C1354 0.960 . S
H1341 C1354 0.961 . S
H1342 C1354 0.959 . S
H1343 C1357 0.929 . S
H1344 C1358 0.931 . S
H1345 C1360 0.930 . S
C1346 H1334 0.930 . S
C1346 C1347 1.399 . S
C1346 C1351 1.399 . S
C1347 C1346 1.399 . S
C1347 C1348 1.376 . S
C1348 H1335 0.930 . S
C1348 C1347 1.376 . S
C1348 C1349 1.388 . S
C1349 H1336 0.950 . S
C1349 C1348 1.388 . S
C1349 C1350 1.390 . S
C1350 C1349 1.390 . S
C1350 C1351 1.394 . S
C1350 C1356 1.465 1_545 S
C1351 C1346 1.399 . S
C1351 C1350 1.394 . S
C1351 C1352 1.516 . S
C1352 C1351 1.516 . S
C1352 C1353 1.502 . S
C1352 C1354 1.561 . S
C1352 C1355 1.526 1_545 S
C1353 H1337 0.959 . S
C1353 H1338 0.959 . S
C1353 H1339 0.961 . S
C1353 C1352 1.502 . S
C1354 H1340 0.960 . S
C1354 H1341 0.961 . S
C1354 H1342 0.959 . S
C1354 C1352 1.561 . S
C1355 C1352 1.526 1_565 S
C1355 C1356 1.396 . S
C1355 C1360 1.390 . S
C1356 C1350 1.465 1_565 S
C1356 C1355 1.396 . S
C1356 C1357 1.399 . S
C1357 H1343 0.929 . S
C1357 C1356 1.399 . S
C1357 C1358 1.385 . S
C1358 H1344 0.931 . S
C1358 C1357 1.385 . S
C1358 C1359 1.389 . S
C1359 C1358 1.389 . S
C1359 C1360 1.387 . S
C1360 H1345 0.930 . S
C1360 C1355 1.390 . S
C1360 C1359 1.387 . S
H1361 C1373 0.930 . S
H1362 C1375 0.930 . S
H1363 C1376 0.930 . S
H1364 C1380 0.959 . S
H1365 C1380 0.959 . S
H1366 C1380 0.961 . S
H1367 C1381 0.960 . S
H1368 C1381 0.961 1_655 S
H1369 C1381 0.959 . S
H1370 C1384 0.929 . S
H1371 C1385 0.931 . S
H1372 C1387 0.930 . S
C1373 H1361 0.930 . S
C1373 C1374 1.399 . S
C1373 C1378 1.399 . S
C1374 C1373 1.399 . S
C1374 C1375 1.376 . S
C1375 H1362 0.930 . S
C1375 C1374 1.376 . S
C1375 C1376 1.388 . S
C1376 H1363 0.930 . S
C1376 C1375 1.388 . S
C1376 C1377 1.390 . S
C1377 C1376 1.390 . S
C1377 C1378 1.394 . S
C1377 C1383 1.465 1_455 S
C1378 C1373 1.399 . S
C1378 C1377 1.394 . S
C1378 C1379 1.516 1_455 S
C1379 C1378 1.516 1_655 S
C1379 C1380 1.502 . S
C1379 C1381 1.561 1_655 S
C1379 C1382 1.526 . S
C1380 H1364 0.959 . S
C1380 H1365 0.959 . S
C1380 H1366 0.961 . S
C1380 C1379 1.502 . S
C1381 H1367 0.960 . S
C1381 H1368 0.961 1_455 S
C1381 H1369 0.959 . S
C1381 C1379 1.561 1_455 S
C1382 C1379 1.526 . S
C1382 C1383 1.396 . S
C1382 C1387 1.390 . S
C1383 C1377 1.465 1_655 S
C1383 C1382 1.396 . S
C1383 C1384 1.399 . S
C1384 H1370 0.929 . S
C1384 C1383 1.399 . S
C1384 C1385 1.385 . S
C1385 H1371 0.931 . S
C1385 C1384 1.385 . S
C1385 C1386 1.389 . S
C1386 C1385 1.389 . S
C1386 C1387 1.387 . S
C1387 H1372 0.930 . S
C1387 C1382 1.390 . S
C1387 C1386 1.387 . S
H1388 C1400 0.930 . S
H1389 C1402 0.930 . S
H1390 C1403 0.930 . S
H1391 C1407 0.959 . S
H1392 C1407 0.959 . S
H1393 C1407 0.961 . S
H1394 C1408 0.960 . S
H1395 C1408 0.961 . S
H1396 C1408 0.959 . S
H1397 C1411 0.941 . S
H1398 C1412 0.931 . S
H1399 C1414 0.930 . S
C1400 H1388 0.930 . S
C1400 C1401 1.399 . S
C1400 C1405 1.399 . S
C1401 C1400 1.399 . S
C1401 C1402 1.376 . S
C1402 H1389 0.930 . S
C1402 C1401 1.376 . S
C1402 C1403 1.388 . S
C1403 H1390 0.930 . S
C1403 C1402 1.388 . S
C1403 C1404 1.390 . S
C1404 C1403 1.390 . S
C1404 C1405 1.394 . S
C1404 C1410 1.465 1_565 S
C1405 C1400 1.399 . S
C1405 C1404 1.394 . S
C1405 C1406 1.516 1_565 S
C1406 C1405 1.516 1_545 S
C1406 C1407 1.502 . S
C1406 C1408 1.561 . S
C1406 C1409 1.526 . S
C1407 H1391 0.959 . S
C1407 H1392 0.959 . S
C1407 H1393 0.961 . S
C1407 C1406 1.502 . S
C1408 H1394 0.960 . S
C1408 H1395 0.961 . S
C1408 H1396 0.959 . S
C1408 C1406 1.561 . S
C1409 C1406 1.526 . S
C1409 C1410 1.396 . S
C1409 C1414 1.390 . S
C1410 C1404 1.465 1_545 S
C1410 C1409 1.396 . S
C1410 C1411 1.399 . S
C1411 H1397 0.941 . S
C1411 C1410 1.399 . S
C1411 C1412 1.385 . S
C1412 H1398 0.931 . S
C1412 C1411 1.385 . S
C1412 C1413 1.389 . S
C1413 C1412 1.389 . S
C1413 C1414 1.387 . S
C1414 H1399 0.930 . S
C1414 C1409 1.390 . S
C1414 C1413 1.387 . S
H1415 C1427 0.930 . S
H1416 C1429 0.930 . S
H1417 C1430 0.930 . S
H1418 C1434 0.959 . S
H1419 C1434 0.959 . S
H1420 C1434 0.961 . S
H1421 C1435 0.960 . S
H1422 C1435 0.961 1_455 S
H1423 C1435 0.959 1_455 S
H1424 C1438 0.929 . S
H1425 C1439 0.931 . S
H1426 C1441 0.930 . S
C1427 H1415 0.930 . S
C1427 C1428 1.399 . S
C1427 C1432 1.399 . S
C1428 C1427 1.399 . S
C1428 C1429 1.376 . S
C1429 H1416 0.930 . S
C1429 C1428 1.376 . S
C1429 C1430 1.388 . S
C1430 H1417 0.930 . S
C1430 C1429 1.388 . S
C1430 C1431 1.390 . S
C1431 C1430 1.390 . S
C1431 C1432 1.394 . S
C1431 C1437 1.465 1_655 S
C1432 C1427 1.399 . S
C1432 C1431 1.394 . S
C1432 C1433 1.516 . S
C1433 C1432 1.516 . S
C1433 C1434 1.502 . S
C1433 C1435 1.561 . S
C1433 C1436 1.526 1_655 S
C1434 H1418 0.959 . S
C1434 H1419 0.959 . S
C1434 H1420 0.961 . S
C1434 C1433 1.502 . S
C1435 H1421 0.960 . S
C1435 H1422 0.961 1_655 S
C1435 H1423 0.959 1_655 S
C1435 C1433 1.561 . S
C1436 C1433 1.526 1_455 S
C1436 C1437 1.396 . S
C1436 C1441 1.390 . S
C1437 C1431 1.465 1_455 S
C1437 C1436 1.396 . S
C1437 C1438 1.399 . S
C1438 H1424 0.929 . S
C1438 C1437 1.399 . S
C1438 C1439 1.385 . S
C1439 H1425 0.931 . S
C1439 C1438 1.385 . S
C1439 C1440 1.389 . S
C1440 C1439 1.389 . S
C1440 C1441 1.387 . S
C1441 H1426 0.930 . S
C1441 C1436 1.390 . S
C1441 C1440 1.387 . S
H1442 C1454 0.930 . S
H1443 C1456 0.930 . S
H1444 C1457 0.930 . S
H1445 C1461 0.959 . S
H1446 C1461 0.959 . S
H1447 C1461 0.961 . S
H1448 C1462 0.960 . S
H1449 C1462 0.961 . S
H1450 C1462 0.959 . S
H1451 C1465 0.929 . S
H1452 C1466 0.931 . S
H1453 C1468 0.930 . S
C1454 H1442 0.930 . S
C1454 C1455 1.399 . S
C1454 C1459 1.399 . S
C1455 C1454 1.399 . S
C1455 C1456 1.376 . S
C1456 H1443 0.930 . S
C1456 C1455 1.376 . S
C1456 C1457 1.388 . S
C1457 H1444 0.930 . S
C1457 C1456 1.388 . S
C1457 C1458 1.390 . S
C1458 C1457 1.390 . S
C1458 C1459 1.394 . S
C1458 C1464 1.465 1_565 S
C1459 C1454 1.399 . S
C1459 C1458 1.394 . S
C1459 C1460 1.516 1_565 S
C1460 C1459 1.516 1_545 S
C1460 C1461 1.502 . S
C1460 C1462 1.561 . S
C1460 C1463 1.526 . S
C1461 H1445 0.959 . S
C1461 H1446 0.959 . S
C1461 H1447 0.961 . S
C1461 C1460 1.502 . S
C1462 H1448 0.960 . S
C1462 H1449 0.961 . S
C1462 H1450 0.959 . S
C1462 C1460 1.561 . S
C1463 C1460 1.526 . S
C1463 C1464 1.396 . S
C1463 C1468 1.390 . S
C1464 C1458 1.465 1_545 S
C1464 C1463 1.396 . S
C1464 C1465 1.399 . S
C1465 H1451 0.929 . S
C1465 C1464 1.399 . S
C1465 C1466 1.385 . S
C1466 H1452 0.931 . S
C1466 C1465 1.385 . S
C1466 C1467 1.389 . S
C1467 C1466 1.389 . S
C1467 C1468 1.387 . S
C1468 H1453 0.930 . S
C1468 C1463 1.390 . S
C1468 C1467 1.387 . S
H1469 C1481 0.930 . S
H1470 C1483 0.930 . S
H1471 C1484 0.930 . S
H1472 C1488 0.959 . S
H1473 C1488 0.959 1_455 S
H1474 C1488 0.961 . S
H1475 C1489 0.960 1_655 S
H1476 C1489 0.961 . S
H1477 C1489 0.959 . S
H1478 C1492 0.929 . S
H1479 C1493 0.931 . S
H1480 C1495 0.930 . S
C1481 H1469 0.930 . S
C1481 C1482 1.399 . S
C1481 C1486 1.399 . S
C1482 C1481 1.399 . S
C1482 C1483 1.376 . S
C1483 H1470 0.930 . S
C1483 C1482 1.376 . S
C1483 C1484 1.388 . S
C1484 H1471 0.930 . S
C1484 C1483 1.388 . S
C1484 C1485 1.390 . S
C1485 C1484 1.390 . S
C1485 C1486 1.394 . S
C1485 C1491 1.465 1_655 S
C1486 C1481 1.399 . S
C1486 C1485 1.394 . S
C1486 C1487 1.539 . S
C1487 C1486 1.539 . S
C1487 C1488 1.514 . S
C1487 C1489 1.549 1_655 S
C1487 C1490 1.502 1_655 S
C1488 H1472 0.959 . S
C1488 H1473 0.959 1_655 S
C1488 H1474 0.961 . S
C1488 C1487 1.514 . S
C1489 H1475 0.960 1_455 S
C1489 H1476 0.961 . S
C1489 H1477 0.959 . S
C1489 C1487 1.549 1_455 S
C1490 C1487 1.502 1_455 S
C1490 C1491 1.396 . S
C1490 C1495 1.390 . S
C1491 C1485 1.465 1_455 S
C1491 C1490 1.396 . S
C1491 C1492 1.399 . S
C1492 H1478 0.929 . S
C1492 C1491 1.399 . S
C1492 C1493 1.385 . S
C1493 H1479 0.931 . S
C1493 C1492 1.385 . S
C1493 C1494 1.389 . S
C1494 C1493 1.389 . S
C1494 C1495 1.387 . S
C1495 H1480 0.930 . S
C1495 C1490 1.390 . S
C1495 C1494 1.387 . S
H1496 C1508 0.930 . S
H1497 C1510 0.930 . S
H1498 C1511 0.930 . S
H1499 C1515 0.959 . S
H1500 C1515 0.959 . S
H1501 C1515 0.961 . S
H1502 C1516 0.960 . S
H1503 C1516 0.961 . S
H1504 C1516 0.959 . S
H1505 C1519 0.929 . S
H1506 C1520 0.931 . S
H1507 C1522 0.930 . S
C1508 H1496 0.930 . S
C1508 C1509 1.399 . S
C1508 C1513 1.399 . S
C1509 C1508 1.399 . S
C1509 C1510 1.376 . S
C1510 H1497 0.930 . S
C1510 C1509 1.376 . S
C1510 C1511 1.388 . S
C1511 H1498 0.930 . S
C1511 C1510 1.388 . S
C1511 C1512 1.390 . S
C1512 C1511 1.390 . S
C1512 C1513 1.394 . S
C1512 C1518 1.465 . S
C1513 C1508 1.399 . S
C1513 C1512 1.394 . S
C1513 C1514 1.516 . S
C1514 C1513 1.516 . S
C1514 C1515 1.502 . S
C1514 C1516 1.561 . S
C1514 C1517 1.526 . S
C1515 H1499 0.959 . S
C1515 H1500 0.959 . S
C1515 H1501 0.961 . S
C1515 C1514 1.502 . S
C1516 H1502 0.960 . S
C1516 H1503 0.961 . S
C1516 H1504 0.959 . S
C1516 C1514 1.561 . S
C1517 C1514 1.526 . S
C1517 C1518 1.396 . S
C1517 C1522 1.390 . S
C1518 C1512 1.465 . S
C1518 C1517 1.396 . S
C1518 C1519 1.399 . S
C1519 H1505 0.929 . S
C1519 C1518 1.399 . S
C1519 C1520 1.385 . S
C1520 H1506 0.931 . S
C1520 C1519 1.385 . S
C1520 C1521 1.389 . S
C1521 C1520 1.389 . S
C1521 C1522 1.387 . S
C1522 H1507 0.930 . S
C1522 C1517 1.390 . S
C1522 C1521 1.387 . S
H1523 C1535 0.930 . S
H1524 C1537 0.930 . S
H1525 C1538 0.930 . S
H1526 C1542 0.959 . S
H1527 C1542 0.959 . S
H1528 C1542 0.961 . S
H1529 C1543 0.960 . S
H1530 C1543 0.961 . S
H1531 C1543 0.959 . S
H1532 C1546 0.929 . S
H1533 C1547 0.931 . S
H1534 C1549 0.930 . S
C1535 H1523 0.930 . S
C1535 C1536 1.399 . S
C1535 C1540 1.399 . S
C1536 C1535 1.399 . S
C1536 C1537 1.376 . S
C1537 H1524 0.930 . S
C1537 C1536 1.376 . S
C1537 C1538 1.388 . S
C1538 H1525 0.930 . S
C1538 C1537 1.388 . S
C1538 C1539 1.390 . S
C1539 C1538 1.390 . S
C1539 C1540 1.394 . S
C1539 C1545 1.465 . S
C1540 C1535 1.399 . S
C1540 C1539 1.394 . S
C1540 C1541 1.516 . S
C1541 C1540 1.516 . S
C1541 C1542 1.502 . S
C1541 C1543 1.561 . S
C1541 C1544 1.526 . S
C1542 H1526 0.959 . S
C1542 H1527 0.959 . S
C1542 H1528 0.961 . S
C1542 C1541 1.502 . S
C1543 H1529 0.960 . S
C1543 H1530 0.961 . S
C1543 H1531 0.959 . S
C1543 C1541 1.561 . S
C1544 C1541 1.526 . S
C1544 C1545 1.396 . S
C1544 C1549 1.390 . S
C1545 C1539 1.465 . S
C1545 C1544 1.396 . S
C1545 C1546 1.399 . S
C1546 H1532 0.929 . S
C1546 C1545 1.399 . S
C1546 C1547 1.385 . S
C1547 H1533 0.931 . S
C1547 C1546 1.385 . S
C1547 C1548 1.389 . S
C1548 C1547 1.389 . S
C1548 C1549 1.387 . S
C1549 H1534 0.930 . S
C1549 C1544 1.390 . S
C1549 C1548 1.387 . S
H1550 C1562 0.930 . S
H1551 C1564 0.930 . S
H1552 C1565 0.930 . S
H1553 C1569 0.959 . S
H1554 C1569 0.959 . S
H1555 C1569 0.961 . S
H1556 C1570 0.960 . S
H1557 C1570 0.961 . S
H1558 C1570 0.959 . S
H1559 C1573 0.929 . S
H1560 C1574 0.931 . S
H1561 C1576 0.930 . S
C1562 H1550 0.930 . S
C1562 C1563 1.399 . S
C1562 C1567 1.399 . S
C1563 C1562 1.399 . S
C1563 C1564 1.376 . S
C1564 H1551 0.930 . S
C1564 C1563 1.376 . S
C1564 C1565 1.388 . S
C1565 H1552 0.930 . S
C1565 C1564 1.388 . S
C1565 C1566 1.390 . S
C1566 C1565 1.390 . S
C1566 C1567 1.394 . S
C1566 C1572 1.465 . S
C1567 C1562 1.399 . S
C1567 C1566 1.394 . S
C1567 C1568 1.516 . S
C1568 C1567 1.516 . S
C1568 C1569 1.502 . S
C1568 C1570 1.561 . S
C1568 C1571 1.526 . S
C1569 H1553 0.959 . S
C1569 H1554 0.959 . S
C1569 H1555 0.961 . S
C1569 C1568 1.502 . S
C1570 H1556 0.960 . S
C1570 H1557 0.961 . S
C1570 H1558 0.959 . S
C1570 C1568 1.561 . S
C1571 C1568 1.526 . S
C1571 C1572 1.396 . S
C1571 C1576 1.390 . S
C1572 C1566 1.465 . S
C1572 C1571 1.396 . S
C1572 C1573 1.399 . S
C1573 H1559 0.929 . S
C1573 C1572 1.399 . S
C1573 C1574 1.385 . S
C1574 H1560 0.931 . S
C1574 C1573 1.385 . S
C1574 C1575 1.389 . S
C1575 C1574 1.389 . S
C1575 C1576 1.387 . S
C1576 H1561 0.930 . S
C1576 C1571 1.390 . S
C1576 C1575 1.387 . S
H1577 C1589 0.930 . S
H1578 C1591 0.930 . S
H1579 C1592 0.930 . S
H1580 C1596 0.959 . S
H1581 C1596 0.959 . S
H1582 C1596 0.961 . S
H1583 C1597 0.960 . S
H1584 C1597 0.961 . S
H1585 C1597 0.959 . S
H1586 C1600 0.929 . S
H1587 C1601 0.931 . S
H1588 C1603 0.930 . S
C1589 H1577 0.930 . S
C1589 C1590 1.399 . S
C1589 C1594 1.399 . S
C1590 C1589 1.399 . S
C1590 C1591 1.376 . S
C1591 H1578 0.930 . S
C1591 C1590 1.376 . S
C1591 C1592 1.388 . S
C1592 H1579 0.930 . S
C1592 C1591 1.388 . S
C1592 C1593 1.390 . S
C1593 C1592 1.390 . S
C1593 C1594 1.394 . S
C1593 C1599 1.465 . S
C1594 C1589 1.399 . S
C1594 C1593 1.394 . S
C1594 C1595 1.516 . S
C1595 C1594 1.516 . S
C1595 C1596 1.502 . S
C1595 C1597 1.561 . S
C1595 C1598 1.526 . S
C1596 H1580 0.959 . S
C1596 H1581 0.959 . S
C1596 H1582 0.961 . S
C1596 C1595 1.502 . S
C1597 H1583 0.960 . S
C1597 H1584 0.961 . S
C1597 H1585 0.959 . S
C1597 C1595 1.561 . S
C1598 C1595 1.526 . S
C1598 C1599 1.396 . S
C1598 C1603 1.390 . S
C1599 C1593 1.465 . S
C1599 C1598 1.396 . S
C1599 C1600 1.399 . S
C1600 H1586 0.929 . S
C1600 C1599 1.399 . S
C1600 C1601 1.385 . S
C1601 H1587 0.931 . S
C1601 C1600 1.385 . S
C1601 C1602 1.389 . S
C1602 C1601 1.389 . S
C1602 C1603 1.387 . S
C1603 H1588 0.930 . S
C1603 C1598 1.390 . S
C1603 C1602 1.387 . S
H1604 C1616 0.930 . S
H1605 C1618 0.930 . S
H1606 C1619 0.930 . S
H1607 C1623 0.959 . S
H1608 C1623 0.959 . S
H1609 C1623 0.961 . S
H1610 C1624 0.960 . S
H1611 C1624 0.961 . S
H1612 C1624 0.959 . S
H1613 C1627 0.929 . S
H1614 C1628 0.931 . S
H1615 C1630 0.930 . S
C1616 H1604 0.930 . S
C1616 C1617 1.399 . S
C1616 C1621 1.399 . S
C1617 C1616 1.399 . S
C1617 C1618 1.376 . S
C1618 H1605 0.930 . S
C1618 C1617 1.376 . S
C1618 C1619 1.388 . S
C1619 H1606 0.930 . S
C1619 C1618 1.388 . S
C1619 C1620 1.390 . S
C1620 C1619 1.390 . S
C1620 C1621 1.394 . S
C1620 C1626 1.465 . S
C1621 C1616 1.399 . S
C1621 C1620 1.394 . S
C1621 C1622 1.516 . S
C1622 C1621 1.516 . S
C1622 C1623 1.502 . S
C1622 C1624 1.561 . S
C1622 C1625 1.526 . S
C1623 H1607 0.959 . S
C1623 H1608 0.959 . S
C1623 H1609 0.961 . S
C1623 C1622 1.502 . S
C1624 H1610 0.960 . S
C1624 H1611 0.961 . S
C1624 H1612 0.959 . S
C1624 C1622 1.561 . S
C1625 C1622 1.526 . S
C1625 C1626 1.396 . S
C1625 C1630 1.390 . S
C1626 C1620 1.465 . S
C1626 C1625 1.396 . S
C1626 C1627 1.399 . S
C1627 H1613 0.929 . S
C1627 C1626 1.399 . S
C1627 C1628 1.385 . S
C1628 H1614 0.931 . S
C1628 C1627 1.385 . S
C1628 C1629 1.389 . S
C1629 C1628 1.389 . S
C1629 C1630 1.387 . S
C1630 H1615 0.930 . S
C1630 C1625 1.390 . S
C1630 C1629 1.387 . S
H1631 C1643 0.930 . S
H1632 C1645 0.930 . S
H1633 C1646 0.930 . S
H1634 C1650 0.959 . S
H1635 C1650 0.959 . S
H1636 C1650 0.961 . S
H1637 C1651 0.960 . S
H1638 C1651 0.961 . S
H1639 C1651 0.959 . S
H1640 C1654 0.929 . S
H1641 C1655 0.931 . S
H1642 C1657 0.930 . S
C1643 H1631 0.930 . S
C1643 C1644 1.399 . S
C1643 C1648 1.399 . S
C1644 C1643 1.399 . S
C1644 C1645 1.376 . S
C1645 H1632 0.930 . S
C1645 C1644 1.376 . S
C1645 C1646 1.388 . S
C1646 H1633 0.930 . S
C1646 C1645 1.388 . S
C1646 C1647 1.390 . S
C1647 C1646 1.390 . S
C1647 C1648 1.394 . S
C1647 C1653 1.465 . S
C1648 C1643 1.399 . S
C1648 C1647 1.394 . S
C1648 C1649 1.516 . S
C1649 C1648 1.516 . S
C1649 C1650 1.502 . S
C1649 C1651 1.561 . S
C1649 C1652 1.526 . S
C1650 H1634 0.959 . S
C1650 H1635 0.959 . S
C1650 H1636 0.961 . S
C1650 C1649 1.502 . S
C1651 H1637 0.960 . S
C1651 H1638 0.961 . S
C1651 H1639 0.959 . S
C1651 C1649 1.561 . S
C1652 C1649 1.526 . S
C1652 C1653 1.396 . S
C1652 C1657 1.390 . S
C1653 C1647 1.465 . S
C1653 C1652 1.396 . S
C1653 C1654 1.399 . S
C1654 H1640 0.929 . S
C1654 C1653 1.399 . S
C1654 C1655 1.385 . S
C1655 H1641 0.931 . S
C1655 C1654 1.385 . S
C1655 C1656 1.389 . S
C1656 C1655 1.389 . S
C1656 C1657 1.387 . S
C1657 H1642 0.930 . S
C1657 C1652 1.390 . S
C1657 C1656 1.387 . S
H1658 C1670 0.930 . S
H1659 C1672 0.930 . S
H1660 C1673 0.930 . S
H1661 C1677 0.959 . S
H1662 C1677 0.959 . S
H1663 C1677 0.961 . S
H1664 C1678 0.960 . S
H1665 C1678 0.961 . S
H1666 C1678 0.959 . S
H1667 C1681 0.929 . S
H1668 C1682 0.931 . S
H1669 C1684 0.930 . S
C1670 H1658 0.930 . S
C1670 C1671 1.399 . S
C1670 C1675 1.399 . S
C1671 C1670 1.399 . S
C1671 C1672 1.376 . S
C1672 H1659 0.930 . S
C1672 C1671 1.376 . S
C1672 C1673 1.388 . S
C1673 H1660 0.930 . S
C1673 C1672 1.388 . S
C1673 C1674 1.390 . S
C1674 C1673 1.390 . S
C1674 C1675 1.394 . S
C1674 C1680 1.465 . S
C1675 C1670 1.399 . S
C1675 C1674 1.394 . S
C1675 C1676 1.516 . S
C1676 C1675 1.516 . S
C1676 C1677 1.502 . S
C1676 C1678 1.561 . S
C1676 C1679 1.526 . S
C1677 H1661 0.959 . S
C1677 H1662 0.959 . S
C1677 H1663 0.961 . S
C1677 C1676 1.502 . S
C1678 H1664 0.960 . S
C1678 H1665 0.961 . S
C1678 H1666 0.959 . S
C1678 C1676 1.561 . S
C1679 C1676 1.526 . S
C1679 C1680 1.396 . S
C1679 C1684 1.390 . S
C1680 C1674 1.465 . S
C1680 C1679 1.396 . S
C1680 C1681 1.399 . S
C1681 H1667 0.929 . S
C1681 C1680 1.399 . S
C1681 C1682 1.385 . S
C1682 H1668 0.931 . S
C1682 C1681 1.385 . S
C1682 C1683 1.389 . S
C1683 C1682 1.389 . S
C1683 C1684 1.387 . S
C1684 H1669 0.930 . S
C1684 C1679 1.390 . S
C1684 C1683 1.387 . S
H1685 C1697 0.930 . S
H1686 C1699 0.930 . S
H1687 C1700 0.930 . S
H1688 C1704 0.959 . S
H1689 C1704 0.959 . S
H1690 C1704 0.961 . S
H1691 C1705 0.960 . S
H1692 C1705 0.961 . S
H1693 C1705 0.959 . S
H1694 C1708 0.929 . S
H1695 C1709 0.931 . S
H1696 C1711 0.930 . S
C1697 H1685 0.930 . S
C1697 C1698 1.399 . S
C1697 C1702 1.399 . S
C1698 C1697 1.399 . S
C1698 C1699 1.376 . S
C1699 H1686 0.930 . S
C1699 C1698 1.376 . S
C1699 C1700 1.388 . S
C1700 H1687 0.930 . S
C1700 C1699 1.388 . S
C1700 C1701 1.390 . S
C1701 C1700 1.390 . S
C1701 C1702 1.394 . S
C1701 C1707 1.465 . S
C1702 C1697 1.399 . S
C1702 C1701 1.394 . S
C1702 C1703 1.516 . S
C1703 C1702 1.516 . S
C1703 C1704 1.502 . S
C1703 C1705 1.561 . S
C1703 C1706 1.526 . S
C1704 H1688 0.959 . S
C1704 H1689 0.959 . S
C1704 H1690 0.961 . S
C1704 C1703 1.502 . S
C1705 H1691 0.960 . S
C1705 H1692 0.961 . S
C1705 H1693 0.959 . S
C1705 C1703 1.561 . S
C1706 C1703 1.526 . S
C1706 C1707 1.396 . S
C1706 C1711 1.390 . S
C1707 C1701 1.465 . S
C1707 C1706 1.396 . S
C1707 C1708 1.399 . S
C1708 H1694 0.929 . S
C1708 C1707 1.399 . S
C1708 C1709 1.385 . S
C1709 H1695 0.931 . S
C1709 C1708 1.385 . S
C1709 C1710 1.389 . S
C1710 C1709 1.389 . S
C1710 C1711 1.387 . S
C1711 H1696 0.930 . S
C1711 C1706 1.390 . S
C1711 C1710 1.387 . S
H1712 C1724 0.930 . S
H1713 C1726 0.930 . S
H1714 C1727 0.930 . S
H1715 C1731 0.959 . S
H1716 C1731 0.959 . S
H1717 C1731 0.961 . S
H1718 C1732 0.960 . S
H1719 C1732 0.961 . S
H1720 C1732 0.959 . S
H1721 C1735 0.929 . S
H1722 C1736 0.931 . S
H1723 C1738 0.930 . S
C1724 H1712 0.930 . S
C1724 C1725 1.399 . S
C1724 C1729 1.399 . S
C1725 C1724 1.399 . S
C1725 C1726 1.376 . S
C1726 H1713 0.930 . S
C1726 C1725 1.376 . S
C1726 C1727 1.388 . S
C1727 H1714 0.930 . S
C1727 C1726 1.388 . S
C1727 C1728 1.390 . S
C1728 C1727 1.390 . S
C1728 C1729 1.394 . S
C1728 C1734 1.465 . S
C1729 C1724 1.399 . S
C1729 C1728 1.394 . S
C1729 C1730 1.516 . S
C1730 C1729 1.516 . S
C1730 C1731 1.502 . S
C1730 C1732 1.561 . S
C1730 C1733 1.526 . S
C1731 H1715 0.959 . S
C1731 H1716 0.959 . S
C1731 H1717 0.961 . S
C1731 C1730 1.502 . S
C1732 H1718 0.960 . S
C1732 H1719 0.961 . S
C1732 H1720 0.959 . S
C1732 C1730 1.561 . S
C1733 C1730 1.526 . S
C1733 C1734 1.396 . S
C1733 C1738 1.390 . S
C1734 C1728 1.465 . S
C1734 C1733 1.396 . S
C1734 C1735 1.399 . S
C1735 H1721 0.929 . S
C1735 C1734 1.399 . S
C1735 C1736 1.385 . S
C1736 H1722 0.931 . S
C1736 C1735 1.385 . S
C1736 C1737 1.389 . S
C1737 C1736 1.389 . S
C1737 C1738 1.387 . S
C1738 H1723 0.930 . S
C1738 C1733 1.390 . S
C1738 C1737 1.387 . S
H1739 C1751 0.930 . S
H1740 C1753 0.930 . S
H1741 C1754 0.930 . S
H1742 C1758 0.959 . S
H1743 C1758 0.959 . S
H1744 C1758 0.961 . S
H1745 C1759 0.960 . S
H1746 C1759 0.961 . S
H1747 C1759 0.959 . S
H1748 C1762 0.929 . S
H1749 C1763 0.931 . S
H1750 C1765 0.930 . S
C1751 H1739 0.930 . S
C1751 C1752 1.399 . S
C1751 C1756 1.399 . S
C1752 C1751 1.399 . S
C1752 C1753 1.376 . S
C1753 H1740 0.930 . S
C1753 C1752 1.376 . S
C1753 C1754 1.388 . S
C1754 H1741 0.930 . S
C1754 C1753 1.388 . S
C1754 C1755 1.390 . S
C1755 C1754 1.390 . S
C1755 C1756 1.394 . S
C1755 C1761 1.465 . S
C1756 C1751 1.399 . S
C1756 C1755 1.394 . S
C1756 C1757 1.516 . S
C1757 C1756 1.516 . S
C1757 C1758 1.502 . S
C1757 C1759 1.561 . S
C1757 C1760 1.526 . S
C1758 H1742 0.959 . S
C1758 H1743 0.959 . S
C1758 H1744 0.961 . S
C1758 C1757 1.502 . S
C1759 H1745 0.960 . S
C1759 H1746 0.961 . S
C1759 H1747 0.959 . S
C1759 C1757 1.561 . S
C1760 C1757 1.526 . S
C1760 C1761 1.396 . S
C1760 C1765 1.390 . S
C1761 C1755 1.465 . S
C1761 C1760 1.396 . S
C1761 C1762 1.399 . S
C1762 H1748 0.929 . S
C1762 C1761 1.399 . S
C1762 C1763 1.385 . S
C1763 H1749 0.931 . S
C1763 C1762 1.385 . S
C1763 C1764 1.389 . S
C1764 C1763 1.389 . S
C1764 C1765 1.387 . S
C1765 H1750 0.930 . S
C1765 C1760 1.390 . S
C1765 C1764 1.387 . S
H1766 C1778 0.930 . S
H1767 C1780 0.930 . S
H1768 C1781 0.930 . S
H1769 C1785 0.959 . S
H1770 C1785 0.959 . S
H1771 C1785 0.961 . S
H1772 C1786 0.960 . S
H1773 C1786 0.961 . S
H1774 C1786 0.959 . S
H1775 C1789 0.929 . S
H1776 C1790 0.931 . S
H1777 C1792 0.930 . S
C1778 H1766 0.930 . S
C1778 C1779 1.399 . S
C1778 C1783 1.399 . S
C1779 C1778 1.399 . S
C1779 C1780 1.376 . S
C1780 H1767 0.930 . S
C1780 C1779 1.376 . S
C1780 C1781 1.388 . S
C1781 H1768 0.930 . S
C1781 C1780 1.388 . S
C1781 C1782 1.390 . S
C1782 C1781 1.390 . S
C1782 C1783 1.394 . S
C1782 C1788 1.465 . S
C1783 C1778 1.399 . S
C1783 C1782 1.394 . S
C1783 C1784 1.516 . S
C1784 C1783 1.516 . S
C1784 C1785 1.502 . S
C1784 C1786 1.561 . S
C1784 C1787 1.526 . S
C1785 H1769 0.959 . S
C1785 H1770 0.959 . S
C1785 H1771 0.961 . S
C1785 C1784 1.502 . S
C1786 H1772 0.960 . S
C1786 H1773 0.961 . S
C1786 H1774 0.959 . S
C1786 C1784 1.561 . S
C1787 C1784 1.526 . S
C1787 C1788 1.396 . S
C1787 C1792 1.390 . S
C1788 C1782 1.465 . S
C1788 C1787 1.396 . S
C1788 C1789 1.399 . S
C1789 H1775 0.929 . S
C1789 C1788 1.399 . S
C1789 C1790 1.385 . S
C1790 H1776 0.931 . S
C1790 C1789 1.385 . S
C1790 C1791 1.389 . S
C1791 C1790 1.389 . S
C1791 C1792 1.387 . S
C1792 H1777 0.930 . S
C1792 C1787 1.390 . S
C1792 C1791 1.387 . S
H1793 C1805 0.930 . S
H1794 C1807 0.930 . S
H1795 C1808 0.930 . S
H1796 C1812 0.959 . S
H1797 C1812 0.959 . S
H1798 C1812 0.961 . S
H1799 C1813 0.960 . S
H1800 C1813 0.961 . S
H1801 C1813 0.959 . S
H1802 C1816 0.929 . S
H1803 C1817 0.931 . S
H1804 C1819 0.930 . S
C1805 H1793 0.930 . S
C1805 C1806 1.399 . S
C1805 C1810 1.399 . S
C1806 C1805 1.399 . S
C1806 C1807 1.376 . S
C1807 H1794 0.930 . S
C1807 C1806 1.376 . S
C1807 C1808 1.388 . S
C1808 H1795 0.930 . S
C1808 C1807 1.388 . S
C1808 C1809 1.390 . S
C1809 C1808 1.390 . S
C1809 C1810 1.394 . S
C1809 C1815 1.465 . S
C1810 C1805 1.399 . S
C1810 C1809 1.394 . S
C1810 C1811 1.516 . S
C1811 C1810 1.516 . S
C1811 C1812 1.502 . S
C1811 C1813 1.561 . S
C1811 C1814 1.526 . S
C1812 H1796 0.959 . S
C1812 H1797 0.959 . S
C1812 H1798 0.961 . S
C1812 C1811 1.502 . S
C1813 H1799 0.960 . S
C1813 H1800 0.961 . S
C1813 H1801 0.959 . S
C1813 C1811 1.561 . S
C1814 C1811 1.526 . S
C1814 C1815 1.396 . S
C1814 C1819 1.390 . S
C1815 C1809 1.465 . S
C1815 C1814 1.396 . S
C1815 C1816 1.399 . S
C1816 H1802 0.929 . S
C1816 C1815 1.399 . S
C1816 C1817 1.385 . S
C1817 H1803 0.931 . S
C1817 C1816 1.385 . S
C1817 C1818 1.389 . S
C1818 C1817 1.389 . S
C1818 C1819 1.387 . S
C1819 H1804 0.930 . S
C1819 C1814 1.390 . S
C1819 C1818 1.387 . S
H1820 C1832 0.930 . S
H1821 C1834 0.930 . S
H1822 C1835 0.930 . S
H1823 C1839 0.959 . S
H1824 C1839 0.959 . S
H1825 C1839 0.961 . S
H1826 C1840 0.960 . S
H1827 C1840 0.961 . S
H1828 C1840 0.959 . S
H1829 C1843 0.929 . S
H1830 C1844 0.931 . S
H1831 C1846 0.930 . S
C1832 H1820 0.930 . S
C1832 C1833 1.399 . S
C1832 C1837 1.399 . S
C1833 C1832 1.399 . S
C1833 C1834 1.376 . S
C1834 H1821 0.930 . S
C1834 C1833 1.376 . S
C1834 C1835 1.388 . S
C1835 H1822 0.930 . S
C1835 C1834 1.388 . S
C1835 C1836 1.390 . S
C1836 C1835 1.390 . S
C1836 C1837 1.394 . S
C1836 C1842 1.465 . S
C1837 C1832 1.399 . S
C1837 C1836 1.394 . S
C1837 C1838 1.516 . S
C1838 C1837 1.516 . S
C1838 C1839 1.502 . S
C1838 C1840 1.561 . S
C1838 C1841 1.526 . S
C1839 H1823 0.959 . S
C1839 H1824 0.959 . S
C1839 H1825 0.961 . S
C1839 C1838 1.502 . S
C1840 H1826 0.960 . S
C1840 H1827 0.961 . S
C1840 H1828 0.959 . S
C1840 C1838 1.561 . S
C1841 C1838 1.526 . S
C1841 C1842 1.396 . S
C1841 C1846 1.390 . S
C1842 C1836 1.465 . S
C1842 C1841 1.396 . S
C1842 C1843 1.399 . S
C1843 H1829 0.929 . S
C1843 C1842 1.399 . S
C1843 C1844 1.385 . S
C1844 H1830 0.931 . S
C1844 C1843 1.385 . S
C1844 C1845 1.389 . S
C1845 C1844 1.389 . S
C1845 C1846 1.387 . S
C1846 H1831 0.930 . S
C1846 C1841 1.390 . S
C1846 C1845 1.387 . S
H1847 C1859 0.930 . S
H1848 C1861 0.930 . S
H1849 C1862 0.930 . S
H1850 C1866 0.959 . S
H1851 C1866 0.959 . S
H1852 C1866 0.961 . S
H1853 C1867 0.960 . S
H1854 C1867 0.961 . S
H1855 C1867 0.959 . S
H1856 C1870 0.929 . S
H1857 C1871 0.931 . S
H1858 C1873 0.930 . S
C1859 H1847 0.930 . S
C1859 C1860 1.399 . S
C1859 C1864 1.399 . S
C1860 C1859 1.399 . S
C1860 C1861 1.376 . S
C1861 H1848 0.930 . S
C1861 C1860 1.376 . S
C1861 C1862 1.388 . S
C1862 H1849 0.930 . S
C1862 C1861 1.388 . S
C1862 C1863 1.390 . S
C1863 C1862 1.390 . S
C1863 C1864 1.394 . S
C1863 C1869 1.465 . S
C1864 C1859 1.399 . S
C1864 C1863 1.394 . S
C1864 C1865 1.516 . S
C1865 C1864 1.516 . S
C1865 C1866 1.502 . S
C1865 C1867 1.561 . S
C1865 C1868 1.526 . S
C1866 H1850 0.959 . S
C1866 H1851 0.959 . S
C1866 H1852 0.961 . S
C1866 C1865 1.502 . S
C1867 H1853 0.960 . S
C1867 H1854 0.961 . S
C1867 H1855 0.959 . S
C1867 C1865 1.561 . S
C1868 C1865 1.526 . S
C1868 C1869 1.396 . S
C1868 C1873 1.390 . S
C1869 C1863 1.465 . S
C1869 C1868 1.396 . S
C1869 C1870 1.399 . S
C1870 H1856 0.929 . S
C1870 C1869 1.399 . S
C1870 C1871 1.385 . S
C1871 H1857 0.931 . S
C1871 C1870 1.385 . S
C1871 C1872 1.389 . S
C1872 C1871 1.389 . S
C1872 C1873 1.387 . S
C1873 H1858 0.930 . S
C1873 C1868 1.390 . S
C1873 C1872 1.387 . S
H1874 C1886 0.930 . S
H1875 C1888 0.930 . S
H1876 C1889 0.930 . S
H1877 C1893 0.959 . S
H1878 C1893 0.959 . S
H1879 C1893 0.961 . S
H1880 C1894 0.960 . S
H1881 C1894 0.961 . S
H1882 C1894 0.959 . S
H1883 C1897 0.929 . S
H1884 C1898 0.931 . S
H1885 C1900 0.930 . S
C1886 H1874 0.930 . S
C1886 C1887 1.399 . S
C1886 C1891 1.399 . S
C1887 C1886 1.399 . S
C1887 C1888 1.376 . S
C1888 H1875 0.930 . S
C1888 C1887 1.376 . S
C1888 C1889 1.388 . S
C1889 H1876 0.930 . S
C1889 C1888 1.388 . S
C1889 C1890 1.390 . S
C1890 C1889 1.390 . S
C1890 C1891 1.394 . S
C1890 C1896 1.465 . S
C1891 C1886 1.399 . S
C1891 C1890 1.394 . S
C1891 C1892 1.516 . S
C1892 C1891 1.516 . S
C1892 C1893 1.502 . S
C1892 C1894 1.561 . S
C1892 C1895 1.526 . S
C1893 H1877 0.959 . S
C1893 H1878 0.959 . S
C1893 H1879 0.961 . S
C1893 C1892 1.502 . S
C1894 H1880 0.960 . S
C1894 H1881 0.961 . S
C1894 H1882 0.959 . S
C1894 C1892 1.561 . S
C1895 C1892 1.526 . S
C1895 C1896 1.396 . S
C1895 C1900 1.390 . S
C1896 C1890 1.465 . S
C1896 C1895 1.396 . S
C1896 C1897 1.399 . S
C1897 H1883 0.929 . S
C1897 C1896 1.399 . S
C1897 C1898 1.385 . S
C1898 H1884 0.931 . S
C1898 C1897 1.385 . S
C1898 C1899 1.389 . S
C1899 C1898 1.389 . S
C1899 C1900 1.387 . S
C1900 H1885 0.930 . S
C1900 C1895 1.390 . S
C1900 C1899 1.387 . S
H1901 C1913 0.930 . S
H1902 C1915 0.930 . S
H1903 C1916 0.930 . S
H1904 C1920 0.959 . S
H1905 C1920 0.959 . S
H1906 C1920 0.961 . S
H1907 C1921 0.960 . S
H1908 C1921 0.961 . S
H1909 C1921 0.959 . S
H1910 C1924 0.929 . S
H1911 C1925 0.931 . S
H1912 C1927 0.930 . S
C1913 H1901 0.930 . S
C1913 C1914 1.399 . S
C1913 C1918 1.399 . S
C1914 C1913 1.399 . S
C1914 C1915 1.376 . S
C1915 H1902 0.930 . S
C1915 C1914 1.376 . S
C1915 C1916 1.388 . S
C1916 H1903 0.930 . S
C1916 C1915 1.388 . S
C1916 C1917 1.390 . S
C1917 C1916 1.390 . S
C1917 C1918 1.394 . S
C1917 C1923 1.465 . S
C1918 C1913 1.399 . S
C1918 C1917 1.394 . S
C1918 C1919 1.516 . S
C1919 C1918 1.516 . S
C1919 C1920 1.502 . S
C1919 C1921 1.561 . S
C1919 C1922 1.526 . S
C1920 H1904 0.959 . S
C1920 H1905 0.959 . S
C1920 H1906 0.961 . S
C1920 C1919 1.502 . S
C1921 H1907 0.960 . S
C1921 H1908 0.961 . S
C1921 H1909 0.959 . S
C1921 C1919 1.561 . S
C1922 C1919 1.526 . S
C1922 C1923 1.396 . S
C1922 C1927 1.390 . S
C1923 C1917 1.465 . S
C1923 C1922 1.396 . S
C1923 C1924 1.399 . S
C1924 H1910 0.929 . S
C1924 C1923 1.399 . S
C1924 C1925 1.385 . S
C1925 H1911 0.931 . S
C1925 C1924 1.385 . S
C1925 C1926 1.389 . S
C1926 C1925 1.389 . S
C1926 C1927 1.387 . S
C1927 H1912 0.930 . S
C1927 C1922 1.390 . S
C1927 C1926 1.387 . S
H1928 C1940 0.930 . S
H1929 C1942 0.930 . S
H1930 C1943 0.930 . S
H1931 C1947 0.959 . S
H1932 C1947 0.959 . S
H1933 C1947 0.961 . S
H1934 C1948 0.960 . S
H1935 C1948 0.961 . S
H1936 C1948 0.959 . S
H1937 C1951 0.929 . S
H1938 C1952 0.931 . S
H1939 C1954 0.930 . S
C1940 H1928 0.930 . S
C1940 C1941 1.399 . S
C1940 C1945 1.399 . S
C1941 C1940 1.399 . S
C1941 C1942 1.376 . S
C1942 H1929 0.930 . S
C1942 C1941 1.376 . S
C1942 C1943 1.388 . S
C1943 H1930 0.930 . S
C1943 C1942 1.388 . S
C1943 C1944 1.390 . S
C1944 C1943 1.390 . S
C1944 C1945 1.394 . S
C1944 C1950 1.465 . S
C1945 C1940 1.399 . S
C1945 C1944 1.394 . S
C1945 C1946 1.516 . S
C1946 C1945 1.516 . S
C1946 C1947 1.502 . S
C1946 C1948 1.561 . S
C1946 C1949 1.526 . S
C1947 H1931 0.959 . S
C1947 H1932 0.959 . S
C1947 H1933 0.961 . S
C1947 C1946 1.502 . S
C1948 H1934 0.960 . S
C1948 H1935 0.961 . S
C1948 H1936 0.959 . S
C1948 C1946 1.561 . S
C1949 C1946 1.526 . S
C1949 C1950 1.396 . S
C1949 C1954 1.390 . S
C1950 C1944 1.465 . S
C1950 C1949 1.396 . S
C1950 C1951 1.399 . S
C1951 H1937 0.929 . S
C1951 C1950 1.399 . S
C1951 C1952 1.385 . S
C1952 H1938 0.931 . S
C1952 C1951 1.385 . S
C1952 C1953 1.389 . S
C1953 C1952 1.389 . S
C1953 C1954 1.387 . S
C1954 H1939 0.930 . S
C1954 C1949 1.390 . S
C1954 C1953 1.387 . S
H1955 C1967 0.930 . S
H1956 C1969 0.930 . S
H1957 C1970 0.930 . S
H1958 C1974 0.959 . S
H1959 C1974 0.959 . S
H1960 C1974 0.961 . S
H1961 C1975 0.960 . S
H1962 C1975 0.961 . S
H1963 C1975 0.959 . S
H1964 C1978 0.929 . S
H1965 C1979 0.931 . S
H1966 C1981 0.930 . S
C1967 H1955 0.930 . S
C1967 C1968 1.399 . S
C1967 C1972 1.399 . S
C1968 C1967 1.399 . S
C1968 C1969 1.376 . S
C1969 H1956 0.930 . S
C1969 C1968 1.376 . S
C1969 C1970 1.388 . S
C1970 H1957 0.930 . S
C1970 C1969 1.388 . S
C1970 C1971 1.390 . S
C1971 C1970 1.390 . S
C1971 C1972 1.394 . S
C1971 C1977 1.465 . S
C1972 C1967 1.399 . S
C1972 C1971 1.394 . S
C1972 C1973 1.516 . S
C1973 C1972 1.516 . S
C1973 C1974 1.502 . S
C1973 C1975 1.561 . S
C1973 C1976 1.526 . S
C1974 H1958 0.959 . S
C1974 H1959 0.959 . S
C1974 H1960 0.961 . S
C1974 C1973 1.502 . S
C1975 H1961 0.960 . S
C1975 H1962 0.961 . S
C1975 H1963 0.959 . S
C1975 C1973 1.561 . S
C1976 C1973 1.526 . S
C1976 C1977 1.396 . S
C1976 C1981 1.390 . S
C1977 C1971 1.465 . S
C1977 C1976 1.396 . S
C1977 C1978 1.399 . S
C1978 H1964 0.929 . S
C1978 C1977 1.399 . S
C1978 C1979 1.385 . S
C1979 H1965 0.931 . S
C1979 C1978 1.385 . S
C1979 C1980 1.389 . S
C1980 C1979 1.389 . S
C1980 C1981 1.387 . S
C1981 H1966 0.930 . S
C1981 C1976 1.390 . S
C1981 C1980 1.387 . S
H1982 C1994 0.930 . S
H1983 C1996 0.930 . S
H1984 C1997 0.930 . S
H1985 C2001 0.959 . S
H1986 C2001 0.959 . S
H1987 C2001 0.961 . S
H1988 C2002 0.960 . S
H1989 C2002 0.961 . S
H1990 C2002 0.959 . S
H1991 C2005 0.929 . S
H1992 C2006 0.931 . S
H1993 C2008 0.930 . S
C1994 H1982 0.930 . S
C1994 C1995 1.399 . S
C1994 C1999 1.399 . S
C1995 C1994 1.399 . S
C1995 C1996 1.376 . S
C1996 H1983 0.930 . S
C1996 C1995 1.376 . S
C1996 C1997 1.388 . S
C1997 H1984 0.930 . S
C1997 C1996 1.388 . S
C1997 C1998 1.390 . S
C1998 C1997 1.390 . S
C1998 C1999 1.394 . S
C1998 C2004 1.465 . S
C1999 C1994 1.399 . S
C1999 C1998 1.394 . S
C1999 C2000 1.516 . S
C2000 C1999 1.516 . S
C2000 C2001 1.502 . S
C2000 C2002 1.561 . S
C2000 C2003 1.526 . S
C2001 H1985 0.959 . S
C2001 H1986 0.959 . S
C2001 H1987 0.961 . S
C2001 C2000 1.502 . S
C2002 H1988 0.960 . S
C2002 H1989 0.961 . S
C2002 H1990 0.959 . S
C2002 C2000 1.561 . S
C2003 C2000 1.526 . S
C2003 C2004 1.396 . S
C2003 C2008 1.390 . S
C2004 C1998 1.465 . S
C2004 C2003 1.396 . S
C2004 C2005 1.399 . S
C2005 H1991 0.929 . S
C2005 C2004 1.399 . S
C2005 C2006 1.385 . S
C2006 H1992 0.931 . S
C2006 C2005 1.385 . S
C2006 C2007 1.389 . S
C2007 C2006 1.389 . S
C2007 C2008 1.387 . S
C2008 H1993 0.930 . S
C2008 C2003 1.390 . S
C2008 C2007 1.387 . S
H2009 C2021 0.930 . S
H2010 C2023 0.930 . S
H2011 C2024 0.930 . S
H2012 C2028 0.959 . S
H2013 C2028 0.959 . S
H2014 C2028 0.961 . S
H2015 C2029 0.960 . S
H2016 C2029 0.961 . S
H2017 C2029 0.959 . S
H2018 C2032 0.929 . S
H2019 C2033 0.931 . S
H2020 C2035 0.930 . S
C2021 H2009 0.930 . S
C2021 C2022 1.399 . S
C2021 C2026 1.399 . S
C2022 C2021 1.399 . S
C2022 C2023 1.376 . S
C2023 H2010 0.930 . S
C2023 C2022 1.376 . S
C2023 C2024 1.388 . S
C2024 H2011 0.930 . S
C2024 C2023 1.388 . S
C2024 C2025 1.390 . S
C2025 C2024 1.390 . S
C2025 C2026 1.394 . S
C2025 C2031 1.465 . S
C2026 C2021 1.399 . S
C2026 C2025 1.394 . S
C2026 C2027 1.516 . S
C2027 C2026 1.516 . S
C2027 C2028 1.502 . S
C2027 C2029 1.561 . S
C2027 C2030 1.526 . S
C2028 H2012 0.959 . S
C2028 H2013 0.959 . S
C2028 H2014 0.961 . S
C2028 C2027 1.502 . S
C2029 H2015 0.960 . S
C2029 H2016 0.961 . S
C2029 H2017 0.959 . S
C2029 C2027 1.561 . S
C2030 C2027 1.526 . S
C2030 C2031 1.396 . S
C2030 C2035 1.390 . S
C2031 C2025 1.465 . S
C2031 C2030 1.396 . S
C2031 C2032 1.399 . S
C2032 H2018 0.929 . S
C2032 C2031 1.399 . S
C2032 C2033 1.385 . S
C2033 H2019 0.931 . S
C2033 C2032 1.385 . S
C2033 C2034 1.389 . S
C2034 C2033 1.389 . S
C2034 C2035 1.387 . S
C2035 H2020 0.930 . S
C2035 C2030 1.390 . S
C2035 C2034 1.387 . S
H2036 C2048 0.930 . S
H2037 C2050 0.930 . S
H2038 C2051 0.930 . S
H2039 C2055 0.959 . S
H2040 C2055 0.959 . S
H2041 C2055 0.961 . S
H2042 C2056 0.960 . S
H2043 C2056 0.961 . S
H2044 C2056 0.959 . S
H2045 C2059 0.929 . S
H2046 C2060 0.931 . S
H2047 C2062 0.930 . S
C2048 H2036 0.930 . S
C2048 C2049 1.399 . S
C2048 C2053 1.399 . S
C2049 C2048 1.399 . S
C2049 C2050 1.376 . S
C2050 H2037 0.930 . S
C2050 C2049 1.376 . S
C2050 C2051 1.388 . S
C2051 H2038 0.930 . S
C2051 C2050 1.388 . S
C2051 C2052 1.390 . S
C2052 C2051 1.390 . S
C2052 C2053 1.394 . S
C2052 C2058 1.465 . S
C2053 C2048 1.399 . S
C2053 C2052 1.394 . S
C2053 C2054 1.516 . S
C2054 C2053 1.516 . S
C2054 C2055 1.502 . S
C2054 C2056 1.561 . S
C2054 C2057 1.526 . S
C2055 H2039 0.959 . S
C2055 H2040 0.959 . S
C2055 H2041 0.961 . S
C2055 C2054 1.502 . S
C2056 H2042 0.960 . S
C2056 H2043 0.961 . S
C2056 H2044 0.959 . S
C2056 C2054 1.561 . S
C2057 C2054 1.526 . S
C2057 C2058 1.396 . S
C2057 C2062 1.390 . S
C2058 C2052 1.465 . S
C2058 C2057 1.396 . S
C2058 C2059 1.399 . S
C2059 H2045 0.929 . S
C2059 C2058 1.399 . S
C2059 C2060 1.385 . S
C2060 H2046 0.931 . S
C2060 C2059 1.385 . S
C2060 C2061 1.389 . S
C2061 C2060 1.389 . S
C2061 C2062 1.387 . S
C2062 H2047 0.930 . S
C2062 C2057 1.390 . S
C2062 C2061 1.387 . S
H2063 C2075 0.930 . S
H2064 C2077 0.930 . S
H2065 C2078 0.930 . S
H2066 C2082 0.959 . S
H2067 C2082 0.959 . S
H2068 C2082 0.961 . S
H2069 C2083 0.960 . S
H2070 C2083 0.961 . S
H2071 C2083 0.959 . S
H2072 C2086 0.929 . S
H2073 C2087 0.931 . S
H2074 C2089 0.930 . S
C2075 H2063 0.930 . S
C2075 C2076 1.399 . S
C2075 C2080 1.399 . S
C2076 C2075 1.399 . S
C2076 C2077 1.376 . S
C2077 H2064 0.930 . S
C2077 C2076 1.376 . S
C2077 C2078 1.388 . S
C2078 H2065 0.930 . S
C2078 C2077 1.388 . S
C2078 C2079 1.390 . S
C2079 C2078 1.390 . S
C2079 C2080 1.394 . S
C2079 C2085 1.465 . S
C2080 C2075 1.399 . S
C2080 C2079 1.394 . S
C2080 C2081 1.516 . S
C2081 C2080 1.516 . S
C2081 C2082 1.502 . S
C2081 C2083 1.561 . S
C2081 C2084 1.526 . S
C2082 H2066 0.959 . S
C2082 H2067 0.959 . S
C2082 H2068 0.961 . S
C2082 C2081 1.502 . S
C2083 H2069 0.960 . S
C2083 H2070 0.961 . S
C2083 H2071 0.959 . S
C2083 C2081 1.561 . S
C2084 C2081 1.526 . S
C2084 C2085 1.396 . S
C2084 C2089 1.390 . S
C2085 C2079 1.465 . S
C2085 C2084 1.396 . S
C2085 C2086 1.399 . S
C2086 H2072 0.929 . S
C2086 C2085 1.399 . S
C2086 C2087 1.385 . S
C2087 H2073 0.931 . S
C2087 C2086 1.385 . S
C2087 C2088 1.389 . S
C2088 C2087 1.389 . S
C2088 C2089 1.387 . S
C2089 H2074 0.930 . S
C2089 C2084 1.390 . S
C2089 C2088 1.387 . S
H2090 C2102 0.930 . S
H2091 C2104 0.930 . S
H2092 C2105 0.930 . S
H2093 C2109 0.959 . S
H2094 C2109 0.959 . S
H2095 C2109 0.961 . S
H2096 C2110 0.960 . S
H2097 C2110 0.961 . S
H2098 C2110 0.959 . S
H2099 C2113 0.929 . S
H2100 C2114 0.931 . S
H2101 C2116 0.930 . S
C2102 H2090 0.930 . S
C2102 C2103 1.399 . S
C2102 C2107 1.399 . S
C2103 C2102 1.399 . S
C2103 C2104 1.376 . S
C2104 H2091 0.930 . S
C2104 C2103 1.376 . S
C2104 C2105 1.388 . S
C2105 H2092 0.930 . S
C2105 C2104 1.388 . S
C2105 C2106 1.390 . S
C2106 C2105 1.390 . S
C2106 C2107 1.394 . S
C2106 C2112 1.465 . S
C2107 C2102 1.399 . S
C2107 C2106 1.394 . S
C2107 C2108 1.516 . S
C2108 C2107 1.516 . S
C2108 C2109 1.502 . S
C2108 C2110 1.561 . S
C2108 C2111 1.526 . S
C2109 H2093 0.959 . S
C2109 H2094 0.959 . S
C2109 H2095 0.961 . S
C2109 C2108 1.502 . S
C2110 H2096 0.960 . S
C2110 H2097 0.961 . S
C2110 H2098 0.959 . S
C2110 C2108 1.561 . S
C2111 C2108 1.526 . S
C2111 C2112 1.396 . S
C2111 C2116 1.390 . S
C2112 C2106 1.465 . S
C2112 C2111 1.396 . S
C2112 C2113 1.399 . S
C2113 H2099 0.929 . S
C2113 C2112 1.399 . S
C2113 C2114 1.385 . S
C2114 H2100 0.931 . S
C2114 C2113 1.385 . S
C2114 C2115 1.389 . S
C2115 C2114 1.389 . S
C2115 C2116 1.387 . S
C2116 H2101 0.930 . S
C2116 C2111 1.390 . S
C2116 C2115 1.387 . S
H2117 C2129 0.930 . S
H2118 C2131 0.930 . S
H2119 C2132 0.930 . S
H2120 C2136 0.959 . S
H2121 C2136 0.959 . S
H2122 C2136 0.961 . S
H2123 C2137 0.960 . S
H2124 C2137 0.961 . S
H2125 C2137 0.959 . S
H2126 C2140 0.929 . S
H2127 C2141 0.931 . S
H2128 C2143 0.930 . S
C2129 H2117 0.930 . S
C2129 C2130 1.399 . S
C2129 C2134 1.399 . S
C2130 C2129 1.399 . S
C2130 C2131 1.376 . S
C2131 H2118 0.930 . S
C2131 C2130 1.376 . S
C2131 C2132 1.388 . S
C2132 H2119 0.930 . S
C2132 C2131 1.388 . S
C2132 C2133 1.390 . S
C2133 C2132 1.390 . S
C2133 C2134 1.394 . S
C2133 C2139 1.465 . S
C2134 C2129 1.399 . S
C2134 C2133 1.394 . S
C2134 C2135 1.516 . S
C2135 C2134 1.516 . S
C2135 C2136 1.502 . S
C2135 C2137 1.561 . S
C2135 C2138 1.526 . S
C2136 H2120 0.959 . S
C2136 H2121 0.959 . S
C2136 H2122 0.961 . S
C2136 C2135 1.502 . S
C2137 H2123 0.960 . S
C2137 H2124 0.961 . S
C2137 H2125 0.959 . S
C2137 C2135 1.561 . S
C2138 C2135 1.526 . S
C2138 C2139 1.396 . S
C2138 C2143 1.390 . S
C2139 C2133 1.465 . S
C2139 C2138 1.396 . S
C2139 C2140 1.399 . S
C2140 H2126 0.929 . S
C2140 C2139 1.399 . S
C2140 C2141 1.385 . S
C2141 H2127 0.931 . S
C2141 C2140 1.385 . S
C2141 C2142 1.389 . S
C2142 C2141 1.389 . S
C2142 C2143 1.387 . S
C2143 H2128 0.930 . S
C2143 C2138 1.390 . S
C2143 C2142 1.387 . S
C429 C382 1.312 . S
C441 C5 1.318 . S
C456 C18 1.363 . S
C468 C395 1.373 . S
C483 C408 1.391 . S
C495 C31 1.390 . S
C510 C369 1.311 . S
C522 C44 1.316 . S
C537 C57 1.353 . S
C549 C356 1.365 . S
C564 C317 1.311 . S
C576 C70 1.315 . S
C591 C83 1.352 . S
C603 C330 1.364 . S
C618 C343 1.325 . S
C630 C96 1.318 . S
C645 C109 1.391 . S
C657 C278 1.388 . S
C672 C122 1.391 . S
C684 C291 1.390 . S
C699 C304 1.357 . S
C711 C135 1.369 . S
C726 C148 1.376 . S
C738 C265 1.384 . S
C753 C252 1.372 . S
C765 C161 1.381 . S
C780 C213 1.323 . S
C792 C174 1.333 . S
C807 C187 1.311 . S
C819 C226 1.313 . S
C834 C200 1.324 . S
C846 C239 1.335 . S
C861 C10 1.366 . S
C873 C140 1.364 . S
C888 C153 1.395 . S
C900 C23 1.399 . S
C915 C114 1.372 . S
C927 C36 1.368 . S
C942 C127 1.401 . S
C954 C49 1.397 . S
C969 C62 1.401 . S
C981 C192 1.402 . S
C996 C205 1.402 . S
C1008 C75 1.399 . S
C1023 C166 1.389 . S
C1035 C88 1.395 . S
C1050 C179 1.367 . S
C1062 C101 1.372 . S
C1077 C218 1.402 . S
C1089 C348 1.402 . S
C1104 C361 1.367 . S
C1116 C231 1.372 . S
C1131 C322 1.390 . S
C1143 C244 1.395 . S
C1158 C257 1.380 . S
C1170 C335 1.386 . S
C1185 C270 1.368 . S
C1197 C400 1.366 . S
C1212 C413 1.403 . S
C1224 C283 1.401 . S
C1239 C374 1.376 . S
C1251 C296 1.371 . S
C1266 C309 1.389 . S
C1278 C387 1.383 . S
C1293 C0 1.181 . S
C1305 C52 1.230 . S
C1320 C13 1.223 . S
C1332 C65 1.189 . S
C1347 C78 1.172 . S
C1359 C26 1.239 . S
C1374 C39 1.228 . S
C1386 C91 1.184 . S
C1401 C104 1.232 . S
C1413 C156 1.173 . S
C1428 C169 1.173 . S
C1440 C117 1.227 . S
C1455 C182 1.218 . S
C1467 C130 1.178 . S
C1482 C143 1.182 . S
C1494 C195 1.211 . S
C1509 C208 1.240 . S
C1521 C260 1.173 . S
C1536 C273 1.184 . S
C1548 C221 1.227 . S
C1563 C234 1.230 . S
C1575 C286 1.184 . S
C1590 C299 1.224 . S
C1602 C247 1.188 . S
C1617 C364 1.208 . S
C1629 C312 1.225 . S
C1644 C325 1.228 . S
C1656 C377 1.204 . S
C1671 C338 1.238 . S
C1683 C390 1.175 . S
C1698 C351 1.235 . S
C1710 C403 1.194 . S
C1725 C8 1.351 . S
C1737 C73 1.354 . S
C1752 C21 1.399 . S
C1764 C86 1.393 . S
C1779 C99 1.378 . S
C1791 C34 1.384 . S
C1806 C60 1.360 . S
C1818 C47 1.365 . S
C1833 C177 1.424 . S
C1845 C112 1.406 . S
C1860 C190 1.392 . S
C1872 C125 1.412 . S
C1887 C203 1.356 . S
C1899 C138 1.371 . S
C1914 C151 1.410 . S
C1926 C164 1.390 . S
C1941 C216 1.415 . S
C1953 C281 1.410 . S
C1968 C294 1.427 . S
C1980 C229 1.423 . S
C1995 C307 1.394 . S
C2007 C242 1.389 . S
C2022 C255 1.406 . S
C2034 C268 1.401 . S
C2049 C385 1.358 . S
C2061 C320 1.375 . S
C2076 C333 1.357 . S
C2088 C398 1.373 . S
C2103 C346 1.431 . S
C2115 C411 1.436 . S
C2130 C372 1.435 . S
C2142 C359 1.434 . S
