# Generated by pormake.
# Topology lta, (4)-cn, num edge types: 1
# Building blocks:
#     Node 0, Type 0, BuildingBlock: ICAMEG_clean_sbu_1, # of connection points: 4
#     Node 1, Type 0, BuildingBlock: ICAMEG_clean_sbu_1, # of connection points: 4
#     Node 2, Type 0, BuildingBlock: ICAMEG_clean_sbu_1, # of connection points: 4
#     Node 3, Type 0, BuildingBlock: ICAMEG_clean_sbu_1, # of connection points: 4
#     Node 4, Type 0, BuildingBlock: ICAMEG_clean_sbu_1, # of connection points: 4
#     Node 5, Type 0, BuildingBlock: ICAMEG_clean_sbu_1, # of connection points: 4
#     Node 6, Type 0, BuildingBlock: ICAMEG_clean_sbu_1, # of connection points: 4
#     Node 7, Type 0, BuildingBlock: ICAMEG_clean_sbu_1, # of connection points: 4
#     Node 8, Type 0, BuildingBlock: ICAMEG_clean_sbu_1, # of connection points: 4
#     Node 9, Type 0, BuildingBlock: ICAMEG_clean_sbu_1, # of connection points: 4
#     Node 10, Type 0, BuildingBlock: ICAMEG_clean_sbu_1, # of connection points: 4
#     Node 11, Type 0, BuildingBlock: ICAMEG_clean_sbu_1, # of connection points: 4
#     Node 12, Type 0, BuildingBlock: ICAMEG_clean_sbu_1, # of connection points: 4
#     Node 13, Type 0, BuildingBlock: ICAMEG_clean_sbu_1, # of connection points: 4
#     Node 14, Type 0, BuildingBlock: ICAMEG_clean_sbu_1, # of connection points: 4
#     Node 15, Type 0, BuildingBlock: ICAMEG_clean_sbu_1, # of connection points: 4
#     Node 16, Type 0, BuildingBlock: ICAMEG_clean_sbu_1, # of connection points: 4
#     Node 17, Type 0, BuildingBlock: ICAMEG_clean_sbu_1, # of connection points: 4
#     Node 18, Type 0, BuildingBlock: ICAMEG_clean_sbu_1, # of connection points: 4
#     Node 19, Type 0, BuildingBlock: ICAMEG_clean_sbu_1, # of connection points: 4
#     Node 20, Type 0, BuildingBlock: ICAMEG_clean_sbu_1, # of connection points: 4
#     Node 21, Type 0, BuildingBlock: ICAMEG_clean_sbu_1, # of connection points: 4
#     Node 22, Type 0, BuildingBlock: ICAMEG_clean_sbu_1, # of connection points: 4
#     Node 23, Type 0, BuildingBlock: ICAMEG_clean_sbu_1, # of connection points: 4
#     Edge 24, Type (0, 0), BuildingBlock: OJICUG_clean_linker_0, # of connection points: 2
#     Edge 25, Type (0, 0), BuildingBlock: OJICUG_clean_linker_0, # of connection points: 2
#     Edge 26, Type (0, 0), BuildingBlock: OJICUG_clean_linker_0, # of connection points: 2
#     Edge 27, Type (0, 0), BuildingBlock: OJICUG_clean_linker_0, # of connection points: 2
#     Edge 28, Type (0, 0), BuildingBlock: OJICUG_clean_linker_0, # of connection points: 2
#     Edge 29, Type (0, 0), BuildingBlock: OJICUG_clean_linker_0, # of connection points: 2
#     Edge 30, Type (0, 0), BuildingBlock: OJICUG_clean_linker_0, # of connection points: 2
#     Edge 31, Type (0, 0), BuildingBlock: OJICUG_clean_linker_0, # of connection points: 2
#     Edge 32, Type (0, 0), BuildingBlock: OJICUG_clean_linker_0, # of connection points: 2
#     Edge 33, Type (0, 0), BuildingBlock: OJICUG_clean_linker_0, # of connection points: 2
#     Edge 34, Type (0, 0), BuildingBlock: OJICUG_clean_linker_0, # of connection points: 2
#     Edge 35, Type (0, 0), BuildingBlock: OJICUG_clean_linker_0, # of connection points: 2
#     Edge 36, Type (0, 0), BuildingBlock: OJICUG_clean_linker_0, # of connection points: 2
#     Edge 37, Type (0, 0), BuildingBlock: OJICUG_clean_linker_0, # of connection points: 2
#     Edge 38, Type (0, 0), BuildingBlock: OJICUG_clean_linker_0, # of connection points: 2
#     Edge 39, Type (0, 0), BuildingBlock: OJICUG_clean_linker_0, # of connection points: 2
#     Edge 40, Type (0, 0), BuildingBlock: OJICUG_clean_linker_0, # of connection points: 2
#     Edge 41, Type (0, 0), BuildingBlock: OJICUG_clean_linker_0, # of connection points: 2
#     Edge 42, Type (0, 0), BuildingBlock: OJICUG_clean_linker_0, # of connection points: 2
#     Edge 43, Type (0, 0), BuildingBlock: OJICUG_clean_linker_0, # of connection points: 2
#     Edge 44, Type (0, 0), BuildingBlock: OJICUG_clean_linker_0, # of connection points: 2
#     Edge 45, Type (0, 0), BuildingBlock: OJICUG_clean_linker_0, # of connection points: 2
#     Edge 46, Type (0, 0), BuildingBlock: OJICUG_clean_linker_0, # of connection points: 2
#     Edge 47, Type (0, 0), BuildingBlock: OJICUG_clean_linker_0, # of connection points: 2
#     Edge 48, Type (0, 0), BuildingBlock: OJICUG_clean_linker_0, # of connection points: 2
#     Edge 49, Type (0, 0), BuildingBlock: OJICUG_clean_linker_0, # of connection points: 2
#     Edge 50, Type (0, 0), BuildingBlock: OJICUG_clean_linker_0, # of connection points: 2
#     Edge 51, Type (0, 0), BuildingBlock: OJICUG_clean_linker_0, # of connection points: 2
#     Edge 52, Type (0, 0), BuildingBlock: OJICUG_clean_linker_0, # of connection points: 2
#     Edge 53, Type (0, 0), BuildingBlock: OJICUG_clean_linker_0, # of connection points: 2
#     Edge 54, Type (0, 0), BuildingBlock: OJICUG_clean_linker_0, # of connection points: 2
#     Edge 55, Type (0, 0), BuildingBlock: OJICUG_clean_linker_0, # of connection points: 2
#     Edge 56, Type (0, 0), BuildingBlock: OJICUG_clean_linker_0, # of connection points: 2
#     Edge 57, Type (0, 0), BuildingBlock: OJICUG_clean_linker_0, # of connection points: 2
#     Edge 58, Type (0, 0), BuildingBlock: OJICUG_clean_linker_0, # of connection points: 2
#     Edge 59, Type (0, 0), BuildingBlock: OJICUG_clean_linker_0, # of connection points: 2
#     Edge 60, Type (0, 0), BuildingBlock: OJICUG_clean_linker_0, # of connection points: 2
#     Edge 61, Type (0, 0), BuildingBlock: OJICUG_clean_linker_0, # of connection points: 2
#     Edge 62, Type (0, 0), BuildingBlock: OJICUG_clean_linker_0, # of connection points: 2
#     Edge 63, Type (0, 0), BuildingBlock: OJICUG_clean_linker_0, # of connection points: 2
#     Edge 64, Type (0, 0), BuildingBlock: OJICUG_clean_linker_0, # of connection points: 2
#     Edge 65, Type (0, 0), BuildingBlock: OJICUG_clean_linker_0, # of connection points: 2
#     Edge 66, Type (0, 0), BuildingBlock: OJICUG_clean_linker_0, # of connection points: 2
#     Edge 67, Type (0, 0), BuildingBlock: OJICUG_clean_linker_0, # of connection points: 2
#     Edge 68, Type (0, 0), BuildingBlock: OJICUG_clean_linker_0, # of connection points: 2
#     Edge 69, Type (0, 0), BuildingBlock: OJICUG_clean_linker_0, # of connection points: 2
#     Edge 70, Type (0, 0), BuildingBlock: OJICUG_clean_linker_0, # of connection points: 2
#     Edge 71, Type (0, 0), BuildingBlock: OJICUG_clean_linker_0, # of connection points: 2
# Relax obj value: 0.362
# Max RMSD: 0.251
# Mean RMSD: 0.251
data_MOF--net-lta--node1-ICAMEG_clean_sbu_1--edge1-OJICUG_clean_linker_0
_symmetry_space_group_name_H-M    P1
_symmetry_Int_Tables_number       1
_symmetry_cell_setting            triclinic
loop_
_symmetry_equiv_pos_as_xyz
'x, y, z'
_cell_length_a     44.666023
_cell_length_b     44.651478
_cell_length_c     44.659073
_cell_angle_alpha  89.990335
_cell_angle_beta   90.006709
_cell_angle_gamma 90.001682
loop_
_atom_site_label
_atom_site_type_symbol
_atom_site_fract_x
_atom_site_fract_y
_atom_site_fract_z
_atom_type_partial_charge
Co0 Co 0.10718 0.35436 0.48549 0.0
Co1 Co 0.12365 0.2843 0.5094 0.0
O2 O 0.13149 0.31806 0.48201 0.0
C3 C 0.12287 0.35173 0.41849 0.0
O4 O 0.14108 0.32873 0.42042 0.0
C5 C 0.19028 0.28287 0.49588 0.0
O6 O 0.18913 0.3083 0.48124 0.0
O7 O 0.13259 0.31093 0.54406 0.0
O8 O 0.10275 0.34849 0.52982 0.0
H9 H 0.07933 0.23622 0.60102 0.0
H10 H 0.16839 0.35933 0.45816 0.0
O11 O 0.10975 0.3623 0.44148 0.0
H12 H 0.16685 0.43253 0.54062 0.0
H13 H 0.076 0.45904 0.45939 0.0
H14 H 0.05166 0.36947 0.51899 0.0
H15 H 0.12268 0.40133 0.53014 0.0
H16 H 0.10889 0.41525 0.45831 0.0
O17 O 0.16694 0.2719 0.50812 0.0
H18 H 0.08842 0.27734 0.5653 0.0
H19 H 0.14415 0.2207 0.513 0.0
H20 H 0.01856 0.41343 0.52162 0.0
H21 H 0.21284 0.39036 0.46753 0.0
H22 H 0.02958 0.4582 0.49037 0.0
H23 H 0.21234 0.42735 0.50906 0.0
O24 O 0.07113 0.32995 0.47777 0.0
H25 H 0.141 0.24178 0.40639 0.0
H26 H 0.07546 0.2403 0.49517 0.0
H27 H 0.06341 0.20813 0.45202 0.0
H28 H 0.09639 0.20859 0.40725 0.0
H29 H 0.15202 0.27379 0.44981 0.0
H30 H 0.13589 0.17908 0.54833 0.0
H31 H 0.10316 0.18666 0.59265 0.0
O32 O 0.07956 0.29457 0.51203 0.0
C33 C 0.11804 0.33479 0.54967 0.0
C34 C 0.09357 0.23262 0.58174 0.0
C35 C 0.12534 0.20056 0.5522 0.0
N36 N 0.11663 0.2514 0.53697 0.0
C37 C 0.09874 0.2558 0.56139 0.0
C38 C 0.13 0.22425 0.53231 0.0
C39 C 0.10697 0.20482 0.57705 0.0
C40 C 0.16773 0.37543 0.47602 0.0
N41 N 0.14269 0.37851 0.49327 0.0
C42 C 0.19311 0.39293 0.48136 0.0
C43 C 0.19284 0.41364 0.50468 0.0
C44 C 0.16735 0.41655 0.52239 0.0
C45 C 0.1424 0.39869 0.51636 0.0
C46 C 0.07017 0.43951 0.47236 0.0
C47 C 0.05709 0.38912 0.50597 0.0
C48 C 0.08887 0.41455 0.4719 0.0
N49 N 0.08209 0.38966 0.48837 0.0
C50 C 0.03802 0.41384 0.50723 0.0
C51 C 0.04431 0.43898 0.48981 0.0
C52 C 0.06201 0.30895 0.49464 0.0
C53 C 0.12657 0.24122 0.42584 0.0
C54 C 0.08996 0.24068 0.4758 0.0
C55 C 0.08301 0.22238 0.45142 0.0
C56 C 0.10151 0.22265 0.42632 0.0
N57 N 0.11476 0.25866 0.47533 0.0
C58 C 0.13281 0.25922 0.45064 0.0
Co59 Co 0.64366 0.10953 0.48599 0.0
Co60 Co 0.71342 0.12617 0.51074 0.0
O61 O 0.67989 0.13399 0.4831 0.0
C62 C 0.64789 0.125 0.41917 0.0
O63 O 0.67109 0.14287 0.42173 0.0
C64 C 0.71421 0.19293 0.49803 0.0
O65 O 0.68883 0.19174 0.48331 0.0
O66 O 0.6865 0.13462 0.54522 0.0
O67 O 0.64893 0.10502 0.53039 0.0
H68 H 0.76114 0.08144 0.60236 0.0
H69 H 0.63861 0.17051 0.45822 0.0
O70 O 0.63641 0.11215 0.44188 0.0
H71 H 0.56471 0.16914 0.54004 0.0
H72 H 0.5391 0.07853 0.45912 0.0
H73 H 0.6285 0.05356 0.5187 0.0
H74 H 0.59629 0.12509 0.53022 0.0
H75 H 0.58298 0.11135 0.45833 0.0
O76 O 0.72544 0.16953 0.50991 0.0
H77 H 0.72022 0.09055 0.56644 0.0
H78 H 0.77681 0.1471 0.51495 0.0
H79 H 0.58461 0.02024 0.52064 0.0
H80 H 0.60717 0.21482 0.4669 0.0
H81 H 0.53983 0.03178 0.48969 0.0
H82 H 0.56983 0.21441 0.5081 0.0
O83 O 0.66826 0.0736 0.47852 0.0
H84 H 0.757 0.14499 0.40842 0.0
H85 H 0.75767 0.07825 0.49636 0.0
H86 H 0.79026 0.0668 0.45336 0.0
H87 H 0.7902 0.10038 0.40902 0.0
H88 H 0.72455 0.1554 0.45167 0.0
H89 H 0.81824 0.13882 0.55049 0.0
H90 H 0.81058 0.10567 0.59449 0.0
O91 O 0.70345 0.08203 0.51298 0.0
C92 C 0.66263 0.11998 0.55051 0.0
C93 C 0.76478 0.09586 0.58322 0.0
C94 C 0.79681 0.1281 0.55413 0.0
N95 N 0.74614 0.11917 0.5385 0.0
C96 C 0.7417 0.10105 0.56275 0.0
C97 C 0.77323 0.13276 0.53413 0.0
C98 C 0.7925 0.10949 0.57881 0.0
C99 C 0.62237 0.16989 0.47596 0.0
N100 N 0.61932 0.14498 0.49341 0.0
C101 C 0.60464 0.19519 0.4809 0.0
C102 C 0.58372 0.19497 0.50404 0.0
C103 C 0.58086 0.16961 0.52197 0.0
C104 C 0.59895 0.14474 0.51633 0.0
C105 C 0.5586 0.07255 0.47206 0.0
C106 C 0.60891 0.05909 0.50563 0.0
C107 C 0.5836 0.09122 0.47179 0.0
N108 N 0.6084 0.08431 0.48833 0.0
C109 C 0.58423 0.03992 0.50653 0.0
C110 C 0.55908 0.04649 0.48923 0.0
C111 C 0.68923 0.06454 0.49542 0.0
C112 C 0.75736 0.13028 0.42768 0.0
C113 C 0.75743 0.09299 0.47716 0.0
C114 C 0.77599 0.08639 0.45287 0.0
C115 C 0.77595 0.10523 0.42801 0.0
N116 N 0.73941 0.11776 0.47681 0.0
C117 C 0.7391 0.13617 0.45237 0.0
Co118 Co 0.8949 0.64456 0.48079 0.0
Co119 Co 0.87703 0.71466 0.5033 0.0
O120 O 0.87011 0.68026 0.47688 0.0
C121 C 0.87948 0.64723 0.41391 0.0
O122 O 0.86112 0.67008 0.41608 0.0
C123 C 0.81389 0.72731 0.52044 0.0
O124 O 0.82112 0.72161 0.54837 0.0
O125 O 0.86924 0.68859 0.5387 0.0
O126 O 0.89874 0.65053 0.52507 0.0
H127 H 0.91791 0.76733 0.59396 0.0
H128 H 0.83329 0.64077 0.45425 0.0
O129 O 0.89282 0.63661 0.43676 0.0
H130 H 0.83568 0.56493 0.53432 0.0
H131 H 0.92689 0.53982 0.45612 0.0
H132 H 0.95008 0.63006 0.51514 0.0
H133 H 0.87966 0.59665 0.52457 0.0
H134 H 0.89427 0.58372 0.45357 0.0
O135 O 0.83329 0.72429 0.49971 0.0
H136 H 0.91076 0.72467 0.55962 0.0
H137 H 0.85493 0.77779 0.50387 0.0
H138 H 0.98284 0.58594 0.51932 0.0
H139 H 0.78905 0.60918 0.46286 0.0
H140 H 0.97237 0.54077 0.48847 0.0
H141 H 0.79001 0.57082 0.50312 0.0
O142 O 0.93079 0.66947 0.47362 0.0
H143 H 0.85634 0.75464 0.40012 0.0
H144 H 0.92466 0.75868 0.48677 0.0
H145 H 0.93532 0.78962 0.44231 0.0
H146 H 0.90097 0.78781 0.3986 0.0
H147 H 0.84668 0.72385 0.44493 0.0
H148 H 0.86132 0.82097 0.5377 0.0
H149 H 0.89307 0.81591 0.58309 0.0
O150 O 0.92144 0.70593 0.50668 0.0
C151 C 0.8839 0.66492 0.54474 0.0
C152 C 0.90407 0.76983 0.57423 0.0
C153 C 0.8723 0.79994 0.54266 0.0
N154 N 0.88255 0.74876 0.52971 0.0
C155 C 0.89997 0.74576 0.55468 0.0
C156 C 0.86873 0.7754 0.52361 0.0
C157 C 0.89011 0.79708 0.56812 0.0
C158 C 0.83424 0.62389 0.4714 0.0
N159 N 0.85952 0.62012 0.48818 0.0
C160 C 0.80894 0.60617 0.47638 0.0
C161 C 0.80945 0.5847 0.49902 0.0
C162 C 0.83505 0.58137 0.51651 0.0
C163 C 0.85992 0.59946 0.51084 0.0
C164 C 0.9325 0.5595 0.46894 0.0
C165 C 0.94493 0.61027 0.50222 0.0
C166 C 0.91397 0.58454 0.46762 0.0
N167 N 0.92036 0.60956 0.48403 0.0
C168 C 0.96381 0.58546 0.50435 0.0
C169 C 0.95783 0.5601 0.48714 0.0
C170 C 0.93941 0.69103 0.49009 0.0
C171 C 0.87146 0.75566 0.41904 0.0
C172 C 0.9097 0.75759 0.46777 0.0
C173 C 0.9158 0.77526 0.4427 0.0
C174 C 0.89651 0.77424 0.41819 0.0
N175 N 0.88504 0.73946 0.46847 0.0
C176 C 0.86607 0.73831 0.4445 0.0
Co177 Co 0.35953 0.89186 0.48406 0.0
Co178 Co 0.28947 0.87519 0.50785 0.0
O179 O 0.32319 0.86761 0.48038 0.0
C180 C 0.35611 0.87732 0.41696 0.0
O181 O 0.33298 0.8593 0.41895 0.0
C182 C 0.28756 0.80874 0.49311 0.0
O183 O 0.31262 0.81006 0.47787 0.0
O184 O 0.31612 0.86586 0.5424 0.0
O185 O 0.3538 0.89571 0.5285 0.0
H186 H 0.24152 0.9185 0.6 0.0
H187 H 0.3643 0.83112 0.45578 0.0
O188 O 0.36728 0.88988 0.43999 0.0
H189 H 0.4377 0.83116 0.53808 0.0
H190 H 0.46459 0.92299 0.459 0.0
H191 H 0.37442 0.9473 0.5177 0.0
H192 H 0.40655 0.87555 0.52843 0.0
H193 H 0.42058 0.89028 0.45712 0.0
O194 O 0.27704 0.8319 0.50612 0.0
H195 H 0.28257 0.90984 0.56412 0.0
H196 H 0.2259 0.85462 0.5113 0.0
H197 H 0.41833 0.98052 0.52066 0.0
H198 H 0.3953 0.78646 0.46431 0.0
H199 H 0.46349 0.96925 0.49027 0.0
H200 H 0.43239 0.7862 0.50574 0.0
O201 O 0.33515 0.928 0.47679 0.0
H202 H 0.2468 0.85923 0.4046 0.0
H203 H 0.24541 0.9235 0.49432 0.0
H204 H 0.21316 0.93613 0.4514 0.0
H205 H 0.21358 0.9038 0.40616 0.0
H206 H 0.27889 0.84763 0.44779 0.0
H207 H 0.18436 0.86244 0.54678 0.0
H208 H 0.19199 0.8947 0.59145 0.0
O209 O 0.29972 0.91928 0.51091 0.0
C210 C 0.34005 0.88024 0.54819 0.0
C211 C 0.2379 0.90447 0.58057 0.0
C212 C 0.20582 0.87298 0.55073 0.0
N213 N 0.25662 0.88192 0.53552 0.0
C214 C 0.26104 0.89954 0.56013 0.0
C215 C 0.22947 0.86856 0.53076 0.0
C216 C 0.21012 0.89108 0.57578 0.0
C217 C 0.38045 0.83145 0.47361 0.0
N218 N 0.38362 0.8562 0.49127 0.0
C219 C 0.39792 0.80595 0.47847 0.0
C220 C 0.4187 0.8058 0.50174 0.0
C221 C 0.42168 0.83099 0.51988 0.0
C222 C 0.40384 0.85606 0.51433 0.0
C223 C 0.44491 0.92878 0.47178 0.0
C224 C 0.39418 0.94189 0.50485 0.0
C225 C 0.41986 0.91018 0.47089 0.0
N226 N 0.39486 0.91691 0.4872 0.0
C227 C 0.41889 0.96097 0.50637 0.0
C228 C 0.44426 0.95456 0.48937 0.0
C229 C 0.31399 0.93694 0.49352 0.0
C230 C 0.24626 0.87338 0.42427 0.0
C231 C 0.24577 0.90927 0.47475 0.0
C232 C 0.22742 0.91656 0.4505 0.0
C233 C 0.22766 0.89841 0.42513 0.0
N234 N 0.26377 0.88449 0.4739 0.0
C235 C 0.26431 0.8668 0.44895 0.0
Co236 Co 0.11056 0.64237 0.51296 0.0
Co237 Co 0.12973 0.71175 0.48964 0.0
O238 O 0.13618 0.67751 0.51643 0.0
C239 C 0.12675 0.64488 0.57972 0.0
O240 O 0.14583 0.6671 0.57724 0.0
C241 C 0.19295 0.72465 0.47288 0.0
O242 O 0.18593 0.71918 0.44485 0.0
O243 O 0.1374 0.68509 0.45456 0.0
O244 O 0.10668 0.64814 0.46862 0.0
H245 H 0.09002 0.76372 0.39804 0.0
H246 H 0.17246 0.63748 0.53873 0.0
O247 O 0.11275 0.63466 0.55706 0.0
H248 H 0.16722 0.5608 0.45963 0.0
H249 H 0.07547 0.53911 0.53949 0.0
H250 H 0.0549 0.62895 0.47891 0.0
H251 H 0.1241 0.59357 0.46964 0.0
H252 H 0.10971 0.5818 0.54078 0.0
O253 O 0.17351 0.72102 0.49346 0.0
H254 H 0.0966 0.72139 0.43291 0.0
H255 H 0.1522 0.77479 0.48861 0.0
H256 H 0.02053 0.58598 0.47596 0.0
H257 H 0.21587 0.60486 0.52983 0.0
H258 H 0.02958 0.54116 0.50781 0.0
H259 H 0.21348 0.56608 0.49005 0.0
O260 O 0.07532 0.66822 0.52016 0.0
H261 H 0.15016 0.75234 0.59261 0.0
H262 H 0.08261 0.75664 0.50538 0.0
H263 H 0.07209 0.78815 0.54945 0.0
H264 H 0.10605 0.78621 0.59345 0.0
H265 H 0.1597 0.72099 0.54819 0.0
H266 H 0.14639 0.81763 0.45425 0.0
H267 H 0.11505 0.81226 0.40861 0.0
O268 O 0.08524 0.70355 0.48612 0.0
C269 C 0.1221 0.66172 0.4488 0.0
C270 C 0.1037 0.76635 0.41787 0.0
C271 C 0.13534 0.79661 0.44941 0.0
N272 N 0.12469 0.74562 0.46281 0.0
C273 C 0.10747 0.74246 0.43772 0.0
C274 C 0.13858 0.77225 0.46876 0.0
C275 C 0.11776 0.79358 0.42381 0.0
C276 C 0.17087 0.62042 0.52183 0.0
N277 N 0.14526 0.617 0.50548 0.0
C278 C 0.19572 0.60211 0.51666 0.0
C279 C 0.1944 0.5804 0.49429 0.0
C280 C 0.16847 0.57742 0.47724 0.0
C281 C 0.14407 0.59608 0.48308 0.0
C282 C 0.07044 0.55872 0.52633 0.0
C283 C 0.0595 0.60923 0.49215 0.0
C284 C 0.0899 0.58306 0.52692 0.0
N285 N 0.08419 0.60802 0.51015 0.0
C286 C 0.03971 0.58509 0.49072 0.0
C287 C 0.04491 0.55991 0.50845 0.0
C288 C 0.06704 0.68954 0.5032 0.0
C289 C 0.13522 0.75342 0.57356 0.0
C290 C 0.09741 0.7555 0.52449 0.0
C291 C 0.09138 0.77348 0.54936 0.0
C292 C 0.11045 0.7724 0.57403 0.0
N293 N 0.1218 0.73699 0.52416 0.0
C294 C 0.14054 0.73575 0.54831 0.0
Co295 Co 0.36056 0.10902 0.51498 0.0
Co296 Co 0.29071 0.12698 0.49198 0.0
O297 O 0.32484 0.13382 0.51884 0.0
C298 C 0.35678 0.12335 0.58196 0.0
O299 O 0.3339 0.14164 0.57957 0.0
C300 C 0.27647 0.19008 0.47602 0.0
O301 O 0.28233 0.18354 0.44796 0.0
O302 O 0.31716 0.13586 0.4571 0.0
O303 O 0.35494 0.10584 0.47051 0.0
H304 H 0.23969 0.08744 0.39981 0.0
H305 H 0.36439 0.17017 0.54245 0.0
O306 O 0.36808 0.11053 0.55913 0.0
H307 H 0.44066 0.16878 0.4628 0.0
H308 H 0.46492 0.076 0.54029 0.0
H309 H 0.37479 0.05371 0.48074 0.0
H310 H 0.40885 0.12469 0.47179 0.0
H311 H 0.42139 0.10928 0.54233 0.0
O312 O 0.28039 0.17048 0.49641 0.0
H313 H 0.28186 0.09454 0.43475 0.0
H314 H 0.22716 0.14794 0.49132 0.0
H315 H 0.41823 0.01984 0.4777 0.0
H316 H 0.39606 0.21451 0.53461 0.0
H317 H 0.46341 0.03014 0.50851 0.0
H318 H 0.43463 0.21406 0.49455 0.0
O319 O 0.3355 0.07318 0.52164 0.0
H320 H 0.24956 0.14495 0.59519 0.0
H321 H 0.24703 0.0785 0.50706 0.0
H322 H 0.21585 0.06652 0.55099 0.0
H323 H 0.21691 0.09993 0.59544 0.0
H324 H 0.28061 0.15595 0.55089 0.0
H325 H 0.18445 0.14157 0.45691 0.0
H326 H 0.19056 0.11107 0.41079 0.0
O327 O 0.29991 0.08275 0.4878 0.0
C328 C 0.34098 0.12142 0.45104 0.0
C329 C 0.23674 0.10074 0.41985 0.0
C330 C 0.20574 0.13113 0.45188 0.0
N331 N 0.25697 0.12155 0.46509 0.0
C332 C 0.26053 0.10481 0.43973 0.0
C333 C 0.23001 0.13468 0.47127 0.0
C334 C 0.20918 0.11402 0.42602 0.0
C335 C 0.38134 0.16946 0.52537 0.0
N336 N 0.38515 0.14441 0.50824 0.0
C337 C 0.39912 0.19481 0.52083 0.0
C338 C 0.42071 0.19457 0.49831 0.0
C339 C 0.42411 0.16919 0.48051 0.0
C340 C 0.40598 0.14426 0.48574 0.0
C341 C 0.44525 0.07063 0.52734 0.0
C342 C 0.39455 0.05866 0.49379 0.0
C343 C 0.42046 0.08955 0.52833 0.0
N344 N 0.39548 0.0834 0.51176 0.0
C345 C 0.41899 0.03923 0.49221 0.0
C346 C 0.44435 0.04507 0.50944 0.0
C347 C 0.31421 0.0647 0.5048 0.0
C348 C 0.24888 0.13024 0.57595 0.0
C349 C 0.2478 0.09306 0.52638 0.0
C350 C 0.23 0.0862 0.55116 0.0
C351 C 0.23059 0.10496 0.57608 0.0
N352 N 0.26567 0.11793 0.52638 0.0
C353 C 0.26639 0.13638 0.55077 0.0
Co354 Co 0.89125 0.35925 0.51702 0.0
Co355 Co 0.87159 0.2895 0.49508 0.0
O356 O 0.86562 0.3242 0.52138 0.0
C357 C 0.87648 0.35732 0.58406 0.0
O358 O 0.85752 0.33494 0.58221 0.0
C359 C 0.80824 0.2773 0.47875 0.0
O360 O 0.81523 0.28267 0.4507 0.0
O361 O 0.8638 0.31558 0.45968 0.0
O362 O 0.89453 0.35288 0.47275 0.0
H363 H 0.91022 0.23572 0.40409 0.0
H364 H 0.83003 0.36481 0.54407 0.0
O365 O 0.88978 0.36754 0.561 0.0
H366 H 0.83359 0.43995 0.46338 0.0
H367 H 0.9263 0.46322 0.54086 0.0
H368 H 0.94662 0.37201 0.48227 0.0
H369 H 0.87687 0.40725 0.47304 0.0
H370 H 0.89237 0.42033 0.54371 0.0
O371 O 0.82779 0.28065 0.49927 0.0
H372 H 0.90425 0.27868 0.4383 0.0
H373 H 0.84857 0.22667 0.49524 0.0
H374 H 0.98082 0.41503 0.47797 0.0
H375 H 0.78649 0.39739 0.53555 0.0
H376 H 0.97175 0.46066 0.50854 0.0
H377 H 0.78805 0.4354 0.49498 0.0
O378 O 0.92653 0.33349 0.52412 0.0
H379 H 0.85155 0.25054 0.59877 0.0
H380 H 0.9186 0.24465 0.51125 0.0
H381 H 0.92925 0.21378 0.55576 0.0
H382 H 0.89554 0.21652 0.5999 0.0
H383 H 0.84188 0.28124 0.55391 0.0
H384 H 0.85378 0.18322 0.46156 0.0
H385 H 0.88486 0.18758 0.41563 0.0
O386 O 0.91606 0.29735 0.49108 0.0
C387 C 0.87894 0.33888 0.45336 0.0
C388 C 0.89666 0.23354 0.42406 0.0
C389 C 0.86498 0.20407 0.4563 0.0
N390 N 0.87617 0.25517 0.46878 0.0
C391 C 0.89323 0.25777 0.44353 0.0
C392 C 0.86209 0.22876 0.47526 0.0
C393 C 0.88241 0.20653 0.43054 0.0
C394 C 0.83123 0.38152 0.52677 0.0
N395 N 0.85645 0.38453 0.50975 0.0
C396 C 0.80633 0.39981 0.52185 0.0
C397 C 0.80718 0.42109 0.49904 0.0
C398 C 0.83271 0.42366 0.48133 0.0
C399 C 0.85718 0.40503 0.48694 0.0
C400 C 0.93129 0.44331 0.52813 0.0
C401 C 0.9421 0.39201 0.49511 0.0
C402 C 0.91199 0.41885 0.52961 0.0
N403 N 0.91759 0.39355 0.51333 0.0
C404 C 0.96177 0.41619 0.49287 0.0
C405 C 0.95659 0.44181 0.50995 0.0
C406 C 0.93448 0.3117 0.50763 0.0
C407 C 0.86639 0.24911 0.57966 0.0
C408 C 0.90392 0.24615 0.53043 0.0
C409 C 0.91002 0.22852 0.55554 0.0
C410 C 0.89109 0.23005 0.58029 0.0
N411 N 0.8796 0.26475 0.52995 0.0
C412 C 0.861 0.26642 0.55417 0.0
Co413 Co 0.64443 0.89114 0.5146 0.0
Co414 Co 0.71433 0.87554 0.48969 0.0
O415 O 0.68089 0.86693 0.51725 0.0
C416 C 0.64775 0.87437 0.58134 0.0
O417 O 0.67076 0.85624 0.57895 0.0
C418 C 0.71686 0.80872 0.50225 0.0
O419 O 0.6919 0.80927 0.51771 0.0
O420 O 0.68746 0.86717 0.45509 0.0
O421 O 0.64982 0.89643 0.47031 0.0
H422 H 0.76125 0.92202 0.39852 0.0
H423 H 0.64026 0.82941 0.5408 0.0
O424 O 0.6369 0.88778 0.55863 0.0
H425 H 0.56615 0.83187 0.45919 0.0
H426 H 0.53952 0.92103 0.54146 0.0
H427 H 0.62903 0.94751 0.48271 0.0
H428 H 0.5971 0.87611 0.47013 0.0
H429 H 0.5836 0.88845 0.5419 0.0
O430 O 0.72705 0.83238 0.48996 0.0
H431 H 0.72055 0.91196 0.43443 0.0
H432 H 0.77802 0.85554 0.48511 0.0
H433 H 0.58497 0.98057 0.4811 0.0
H434 H 0.60948 0.78487 0.53097 0.0
H435 H 0.54014 0.96829 0.51165 0.0
H436 H 0.57203 0.78584 0.48987 0.0
O437 O 0.66873 0.92718 0.52275 0.0
H438 H 0.75784 0.8567 0.59209 0.0
H439 H 0.75825 0.92367 0.50434 0.0
H440 H 0.79077 0.93515 0.54736 0.0
H441 H 0.79086 0.90145 0.59162 0.0
H442 H 0.72547 0.84627 0.54883 0.0
H443 H 0.81922 0.86476 0.44956 0.0
H444 H 0.81102 0.89833 0.40597 0.0
O445 O 0.7038 0.91955 0.48801 0.0
C446 C 0.66352 0.88179 0.44998 0.0
C447 C 0.76513 0.90742 0.41748 0.0
C448 C 0.79765 0.87525 0.4461 0.0
N449 N 0.74692 0.88335 0.46197 0.0
C450 C 0.74218 0.9017 0.43794 0.0
C451 C 0.77419 0.87005 0.4661 0.0
C452 C 0.79304 0.8941 0.42165 0.0
C453 C 0.62394 0.83028 0.52316 0.0
N454 N 0.62043 0.85562 0.50642 0.0
C455 C 0.60659 0.80485 0.51755 0.0
C456 C 0.58562 0.80538 0.49446 0.0
C457 C 0.58232 0.83117 0.47724 0.0
C458 C 0.60003 0.85616 0.48353 0.0
C459 C 0.55906 0.92733 0.52871 0.0
C460 C 0.60942 0.94165 0.49561 0.0
C461 C 0.58415 0.9088 0.52878 0.0
N462 N 0.60899 0.91614 0.51249 0.0
C463 C 0.58465 0.96068 0.49491 0.0
C464 C 0.55947 0.95368 0.51198 0.0
C465 C 0.68955 0.93669 0.50589 0.0
C466 C 0.75818 0.87145 0.57285 0.0
C467 C 0.75811 0.90884 0.52347 0.0
C468 C 0.77662 0.91548 0.54778 0.0
C469 C 0.77665 0.89658 0.5726 0.0
N470 N 0.74025 0.88395 0.52371 0.0
C471 C 0.73996 0.86552 0.54813 0.0
Co472 Co 0.48772 0.11195 0.3563 0.0
Co473 Co 0.51221 0.13036 0.28677 0.0
O474 O 0.48481 0.13743 0.3207 0.0
C475 C 0.42083 0.12826 0.35367 0.0
O476 O 0.42293 0.14714 0.33124 0.0
C477 C 0.50016 0.1973 0.28796 0.0
O478 O 0.48365 0.19517 0.31212 0.0
O479 O 0.54695 0.13749 0.31379 0.0
O480 O 0.53201 0.10707 0.3506 0.0
H481 H 0.60294 0.08578 0.23731 0.0
H482 H 0.46095 0.17321 0.36291 0.0
O483 O 0.44372 0.11479 0.36401 0.0
H484 H 0.54297 0.16876 0.43649 0.0
H485 H 0.46073 0.07811 0.46001 0.0
H486 H 0.52046 0.05562 0.37003 0.0
H487 H 0.53232 0.12564 0.40391 0.0
H488 H 0.46009 0.11219 0.41704 0.0
O489 O 0.51225 0.17425 0.27623 0.0
H490 H 0.56726 0.09408 0.27863 0.0
H491 H 0.5166 0.15334 0.2241 0.0
H492 H 0.52278 0.02146 0.41321 0.0
H493 H 0.47049 0.21664 0.39534 0.0
H494 H 0.49156 0.03164 0.45816 0.0
H495 H 0.51179 0.21466 0.43253 0.0
O496 O 0.4797 0.07673 0.33083 0.0
H497 H 0.40997 0.15192 0.24416 0.0
H498 H 0.49712 0.08428 0.24089 0.0
H499 H 0.45402 0.0746 0.20788 0.0
H500 H 0.41008 0.10866 0.20921 0.0
H501 H 0.45327 0.16052 0.277 0.0
H502 H 0.5519 0.14592 0.18232 0.0
H503 H 0.59537 0.11181 0.18874 0.0
O504 O 0.51371 0.08577 0.29532 0.0
C505 C 0.55219 0.12226 0.3373 0.0
C506 C 0.58403 0.10063 0.23421 0.0
C507 C 0.55541 0.13441 0.20336 0.0
N508 N 0.53975 0.124 0.25374 0.0
C509 C 0.56371 0.10535 0.25751 0.0
C510 C 0.53555 0.13859 0.22714 0.0
C511 C 0.57979 0.11526 0.20697 0.0
C512 C 0.47872 0.17193 0.37908 0.0
N513 N 0.49575 0.14666 0.3815 0.0
C514 C 0.48415 0.19672 0.39737 0.0
C515 C 0.50735 0.19563 0.41821 0.0
C516 C 0.52485 0.16991 0.42042 0.0
C517 C 0.51873 0.14556 0.40178 0.0
C518 C 0.47378 0.07276 0.44039 0.0
C519 C 0.50745 0.06069 0.38979 0.0
C520 C 0.47354 0.09209 0.41589 0.0
N521 N 0.49006 0.08583 0.3909 0.0
C522 C 0.50854 0.04103 0.41405 0.0
C523 C 0.49113 0.04684 0.4393 0.0
C524 C 0.49619 0.06803 0.30938 0.0
C525 C 0.42907 0.13703 0.2432 0.0
C526 C 0.47811 0.09923 0.24168 0.0
C527 C 0.45376 0.09362 0.22289 0.0
C528 C 0.42912 0.11273 0.22364 0.0
N529 N 0.47808 0.12332 0.26061 0.0
C530 C 0.45382 0.14193 0.26168 0.0
Co531 Co 0.89165 0.48469 0.35719 0.0
Co532 Co 0.87297 0.50638 0.28714 0.0
O533 O 0.86605 0.48068 0.3221 0.0
C534 C 0.87503 0.41812 0.35566 0.0
O535 O 0.85631 0.42042 0.33313 0.0
C536 C 0.80996 0.52388 0.27431 0.0
O537 O 0.8175 0.5519 0.27914 0.0
O538 O 0.86586 0.54225 0.31275 0.0
O539 O 0.89615 0.52884 0.35032 0.0
H540 H 0.91424 0.59575 0.23257 0.0
H541 H 0.82968 0.45942 0.36287 0.0
O542 O 0.88888 0.44084 0.36592 0.0
H543 H 0.83531 0.54091 0.43702 0.0
H544 H 0.92598 0.46062 0.46134 0.0
H545 H 0.94809 0.51777 0.36964 0.0
H546 H 0.87841 0.52958 0.40463 0.0
H547 H 0.89177 0.45876 0.4186 0.0
O548 O 0.82913 0.50306 0.278 0.0
H549 H 0.90709 0.56223 0.27589 0.0
H550 H 0.85039 0.50605 0.22417 0.0
H551 H 0.98281 0.52082 0.41234 0.0
H552 H 0.78627 0.46962 0.39514 0.0
H553 H 0.97272 0.49098 0.45829 0.0
H554 H 0.78886 0.51061 0.43264 0.0
O555 O 0.92677 0.47629 0.33165 0.0
H556 H 0.85078 0.40274 0.2492 0.0
H557 H 0.91995 0.48858 0.2429 0.0
H558 H 0.92981 0.44347 0.21266 0.0
H559 H 0.89503 0.40017 0.21561 0.0
H560 H 0.84192 0.44817 0.27929 0.0
H561 H 0.85677 0.53906 0.18035 0.0
H562 H 0.88896 0.58425 0.18438 0.0
O563 O 0.9175 0.50945 0.29532 0.0
C564 C 0.8811 0.54846 0.33604 0.0
C565 C 0.9002 0.5761 0.23052 0.0
C566 C 0.86794 0.54429 0.20121 0.0
N567 N 0.87844 0.53216 0.25254 0.0
C568 C 0.8961 0.55702 0.25496 0.0
C569 C 0.86438 0.52571 0.22611 0.0
C570 C 0.886 0.56964 0.20349 0.0
C571 C 0.83131 0.4769 0.37937 0.0
N572 N 0.857 0.49322 0.38227 0.0
C573 C 0.80649 0.48277 0.39748 0.0
C574 C 0.80793 0.50581 0.41847 0.0
C575 C 0.83396 0.5228 0.42095 0.0
C576 C 0.85833 0.51624 0.40249 0.0
C577 C 0.93135 0.473 0.44132 0.0
C578 C 0.9432 0.50523 0.38974 0.0
C579 C 0.91189 0.47212 0.41696 0.0
N580 N 0.91801 0.48798 0.39152 0.0
C581 C 0.96314 0.50676 0.41375 0.0
C582 C 0.95739 0.49011 0.43954 0.0
C583 C 0.93538 0.49255 0.30995 0.0
C584 C 0.86609 0.42147 0.24769 0.0
C585 C 0.9048 0.46977 0.24449 0.0
C586 C 0.91046 0.44432 0.22722 0.0
C587 C 0.89092 0.42003 0.22887 0.0
N588 N 0.88035 0.47104 0.26287 0.0
C589 C 0.86116 0.44729 0.26464 0.0
Co590 Co 0.51614 0.89579 0.35573 0.0
Co591 Co 0.49333 0.87778 0.28587 0.0
O592 O 0.52007 0.87099 0.32005 0.0
C593 C 0.58302 0.88048 0.3529 0.0
O594 O 0.58076 0.86216 0.33004 0.0
C595 C 0.47717 0.81438 0.27277 0.0
O596 O 0.44912 0.82101 0.27857 0.0
O597 O 0.4583 0.8693 0.31227 0.0
O598 O 0.4718 0.89944 0.34985 0.0
H599 H 0.40163 0.91774 0.23433 0.0
H600 H 0.54269 0.83418 0.35943 0.0
O601 O 0.5602 0.89383 0.3636 0.0
H602 H 0.46295 0.83655 0.43558 0.0
H603 H 0.54161 0.92859 0.46 0.0
H604 H 0.48161 0.95093 0.37021 0.0
H605 H 0.47266 0.8806 0.40393 0.0
H606 H 0.54358 0.89546 0.41646 0.0
O607 O 0.49752 0.83415 0.27596 0.0
H608 H 0.4365 0.91079 0.27661 0.0
H609 H 0.49244 0.85604 0.22261 0.0
H610 H 0.47804 0.98421 0.41403 0.0
H611 H 0.5341 0.78986 0.39094 0.0
H612 H 0.50949 0.97417 0.45892 0.0
H613 H 0.494 0.79081 0.42944 0.0
O614 O 0.52316 0.93161 0.3307 0.0
H615 H 0.59649 0.8589 0.24504 0.0
H616 H 0.50871 0.92577 0.2418 0.0
H617 H 0.55272 0.93724 0.21055 0.0
H618 H 0.597 0.90362 0.21196 0.0
H619 H 0.55211 0.84841 0.27616 0.0
H620 H 0.45809 0.86224 0.17981 0.0
H621 H 0.41234 0.89335 0.18551 0.0
O622 O 0.48953 0.92216 0.29481 0.0
C623 C 0.45227 0.88394 0.33596 0.0
C624 C 0.42152 0.90418 0.23156 0.0
C625 C 0.4532 0.87302 0.20096 0.0
N626 N 0.46652 0.88313 0.25206 0.0
C627 C 0.44136 0.9002 0.2554 0.0
C628 C 0.47254 0.86956 0.22528 0.0
C629 C 0.42753 0.89047 0.20417 0.0
C630 C 0.52562 0.83512 0.37638 0.0
N631 N 0.5089 0.86043 0.38026 0.0
C632 C 0.52065 0.80978 0.39405 0.0
C633 C 0.4981 0.81029 0.41561 0.0
C634 C 0.48069 0.83593 0.41907 0.0
C635 C 0.48635 0.86084 0.40103 0.0
C636 C 0.52853 0.93397 0.44044 0.0
C637 C 0.4947 0.94592 0.38993 0.0
C638 C 0.52953 0.91516 0.4156 0.0
N639 N 0.5129 0.92135 0.39067 0.0
C640 C 0.49286 0.96507 0.41458 0.0
C641 C 0.51038 0.95933 0.43978 0.0
C642 C 0.50651 0.94015 0.30924 0.0
C643 C 0.57733 0.8737 0.24421 0.0
C644 C 0.52795 0.91112 0.24271 0.0
C645 C 0.55278 0.91769 0.22488 0.0
C646 C 0.57761 0.89881 0.22567 0.0
N647 N 0.52781 0.88641 0.26081 0.0
C648 C 0.5521 0.86785 0.26174 0.0
Co649 Co 0.10822 0.51387 0.35691 0.0
Co650 Co 0.12491 0.48896 0.28725 0.0
O651 O 0.13241 0.51692 0.32054 0.0
C652 C 0.12353 0.58072 0.35245 0.0
O653 O 0.14134 0.57801 0.32924 0.0
C654 C 0.19132 0.50326 0.28599 0.0
O655 O 0.18986 0.51796 0.31136 0.0
O656 O 0.13396 0.45473 0.31443 0.0
O657 O 0.10411 0.46938 0.35183 0.0
H658 H 0.0814 0.39632 0.24041 0.0
H659 H 0.16909 0.54215 0.36164 0.0
O660 O 0.11053 0.5581 0.36399 0.0
H661 H 0.16862 0.46052 0.43577 0.0
H662 H 0.07825 0.54004 0.46189 0.0
H663 H 0.05283 0.48047 0.37261 0.0
H664 H 0.1244 0.4699 0.40432 0.0
H665 H 0.11016 0.54178 0.41741 0.0
O666 O 0.16824 0.49048 0.27505 0.0
H667 H 0.09003 0.43275 0.28099 0.0
H668 H 0.14579 0.4845 0.22385 0.0
H669 H 0.02049 0.47748 0.41715 0.0
H670 H 0.21353 0.53391 0.39295 0.0
H671 H 0.03216 0.50849 0.46184 0.0
H672 H 0.21358 0.49281 0.43043 0.0
O673 O 0.07204 0.52083 0.3324 0.0
H674 H 0.14173 0.59137 0.24292 0.0
H675 H 0.07677 0.50213 0.24289 0.0
H676 H 0.06452 0.54462 0.20993 0.0
H677 H 0.0972 0.58962 0.20966 0.0
H678 H 0.15294 0.5486 0.27574 0.0
H679 H 0.13799 0.44845 0.18277 0.0
H680 H 0.10549 0.40404 0.19088 0.0
O681 O 0.0808 0.48624 0.29738 0.0
C682 C 0.11937 0.44936 0.33833 0.0
C683 C 0.09555 0.41562 0.23658 0.0
C684 C 0.12734 0.44486 0.20424 0.0
N685 N 0.11823 0.46084 0.25477 0.0
C686 C 0.10046 0.43638 0.25946 0.0
C687 C 0.13174 0.46515 0.22763 0.0
C688 C 0.10909 0.41996 0.2088 0.0
C689 C 0.16864 0.52446 0.37792 0.0
N690 N 0.14387 0.50682 0.38111 0.0
C691 C 0.19403 0.51976 0.39559 0.0
C692 C 0.19407 0.49668 0.41658 0.0
C693 C 0.16888 0.47856 0.41957 0.0
C694 C 0.14391 0.48395 0.40154 0.0
C695 C 0.07213 0.52714 0.4424 0.0
C696 C 0.05843 0.49356 0.39217 0.0
C697 C 0.09029 0.52796 0.41706 0.0
N698 N 0.08329 0.51137 0.39232 0.0
C699 C 0.03981 0.49206 0.41722 0.0
C700 C 0.04647 0.50938 0.44232 0.0
C701 C 0.06313 0.5038 0.31143 0.0
C702 C 0.12742 0.57181 0.24269 0.0
C703 C 0.09113 0.5216 0.24298 0.0
C704 C 0.08407 0.54561 0.22422 0.0
C705 C 0.10241 0.57084 0.22407 0.0
N706 N 0.11588 0.52257 0.26102 0.0
C707 C 0.13377 0.54738 0.26116 0.0
Co708 Co 0.48691 0.88946 0.64336 0.0
Co709 Co 0.51115 0.87248 0.7132 0.0
O710 O 0.48352 0.86489 0.67955 0.0
C711 C 0.41976 0.87413 0.64598 0.0
O712 O 0.42148 0.85556 0.6687 0.0
C713 C 0.49672 0.80593 0.71516 0.0
O714 O 0.48139 0.80718 0.69014 0.0
O715 O 0.54562 0.86349 0.6863 0.0
O716 O 0.5313 0.89364 0.649 0.0
H717 H 0.60329 0.91622 0.76079 0.0
H718 H 0.45949 0.82832 0.6385 0.0
O719 O 0.44287 0.88718 0.6356 0.0
H720 H 0.5411 0.83003 0.56438 0.0
H721 H 0.46009 0.92186 0.53914 0.0
H722 H 0.52042 0.94504 0.62855 0.0
H723 H 0.53107 0.87409 0.59587 0.0
H724 H 0.45943 0.88832 0.58253 0.0
O725 O 0.50973 0.82913 0.72555 0.0
H726 H 0.56723 0.90745 0.7199 0.0
H727 H 0.51509 0.85172 0.77671 0.0
H728 H 0.52265 0.97874 0.58499 0.0
H729 H 0.46842 0.78396 0.60719 0.0
H730 H 0.49112 0.96824 0.54035 0.0
H731 H 0.50951 0.78455 0.56972 0.0
O732 O 0.47943 0.92537 0.66805 0.0
H733 H 0.40808 0.85593 0.75603 0.0
H734 H 0.49765 0.92041 0.7577 0.0
H735 H 0.45482 0.93265 0.79019 0.0
H736 H 0.40966 0.9002 0.78964 0.0
H737 H 0.45117 0.84473 0.72369 0.0
H738 H 0.55076 0.85965 0.81809 0.0
H739 H 0.59516 0.89222 0.8103 0.0
O740 O 0.51387 0.91663 0.70315 0.0
C741 C 0.55116 0.87813 0.66246 0.0
C742 C 0.58397 0.90205 0.76448 0.0
C743 C 0.55452 0.87027 0.79663 0.0
N744 N 0.53896 0.87926 0.74593 0.0
C745 C 0.56343 0.89706 0.74143 0.0
C746 C 0.53445 0.86579 0.77307 0.0
C747 C 0.57942 0.88855 0.79225 0.0
C748 C 0.47715 0.82902 0.62218 0.0
N749 N 0.49438 0.85406 0.61897 0.0
C750 C 0.48224 0.80369 0.60453 0.0
C751 C 0.50532 0.80401 0.58355 0.0
C752 C 0.52305 0.82949 0.58055 0.0
C753 C 0.51726 0.85439 0.59856 0.0
C754 C 0.47329 0.92736 0.55863 0.0
C755 C 0.50729 0.93982 0.60891 0.0
C756 C 0.47305 0.90832 0.58335 0.0
N757 N 0.4897 0.91481 0.60821 0.0
C758 C 0.50833 0.95922 0.58443 0.0
C759 C 0.49075 0.95322 0.55935 0.0
C760 C 0.49623 0.93428 0.68917 0.0
C761 C 0.42772 0.87012 0.75664 0.0
C762 C 0.47812 0.90611 0.75729 0.0
C763 C 0.45392 0.91318 0.77578 0.0
C764 C 0.42859 0.89498 0.77546 0.0
N765 N 0.47728 0.88147 0.7391 0.0
C766 C 0.45235 0.86375 0.73846 0.0
Co767 Co 0.10993 0.48355 0.64134 0.0
Co768 Co 0.12862 0.50734 0.71073 0.0
O769 O 0.13483 0.4799 0.67697 0.0
C770 C 0.12373 0.41637 0.64545 0.0
O771 O 0.14231 0.41861 0.6681 0.0
C772 C 0.19206 0.52279 0.72388 0.0
O773 O 0.18579 0.55087 0.71777 0.0
O774 O 0.13745 0.54187 0.68376 0.0
O775 O 0.1072 0.52806 0.64633 0.0
H776 H 0.09044 0.60052 0.76098 0.0
H777 H 0.17085 0.45548 0.63778 0.0
O778 O 0.1109 0.4393 0.63436 0.0
H779 H 0.1699 0.53392 0.56023 0.0
H780 H 0.07665 0.45743 0.53737 0.0
H781 H 0.05524 0.51856 0.62663 0.0
H782 H 0.12588 0.52589 0.59237 0.0
H783 H 0.10963 0.4552 0.58102 0.0
O784 O 0.17215 0.50263 0.72055 0.0
H785 H 0.09667 0.56493 0.71921 0.0
H786 H 0.15044 0.50873 0.77397 0.0
H787 H 0.02194 0.52216 0.58285 0.0
H788 H 0.21509 0.46236 0.60581 0.0
H789 H 0.03158 0.49038 0.53816 0.0
H790 H 0.21486 0.50179 0.56659 0.0
O791 O 0.07409 0.47775 0.66665 0.0
H792 H 0.14612 0.40452 0.75315 0.0
H793 H 0.08055 0.49334 0.75517 0.0
H794 H 0.06858 0.45 0.78718 0.0
H795 H 0.10155 0.4052 0.7864 0.0
H796 H 0.15711 0.44824 0.72127 0.0
H797 H 0.14495 0.5438 0.81627 0.0
H798 H 0.11471 0.59006 0.80992 0.0
O799 O 0.08438 0.51178 0.70191 0.0
C800 C 0.12271 0.54771 0.66006 0.0
C801 C 0.10364 0.58042 0.76403 0.0
C802 C 0.13424 0.5486 0.79506 0.0
N803 N 0.12382 0.53474 0.74415 0.0
C804 C 0.10721 0.56017 0.74047 0.0
C805 C 0.1373 0.52885 0.77102 0.0
C806 C 0.11727 0.57455 0.79148 0.0
C807 C 0.17021 0.47227 0.62054 0.0
N808 N 0.14531 0.48956 0.61653 0.0
C809 C 0.19551 0.47628 0.60259 0.0
C810 C 0.19541 0.49845 0.58064 0.0
C811 C 0.1702 0.51646 0.57706 0.0
C812 C 0.14531 0.51176 0.59538 0.0
C813 C 0.07141 0.4707 0.55685 0.0
C814 C 0.05997 0.50514 0.60706 0.0
C815 C 0.09017 0.46959 0.58173 0.0
N816 N 0.08428 0.48661 0.60647 0.0
C817 C 0.0408 0.50698 0.58246 0.0
C818 C 0.04631 0.48923 0.55736 0.0
C819 C 0.06599 0.49502 0.68778 0.0
C820 C 0.1316 0.42392 0.75372 0.0
C821 C 0.09492 0.47387 0.75452 0.0
C822 C 0.08807 0.44942 0.77279 0.0
C823 C 0.10658 0.42431 0.77235 0.0
N824 N 0.11955 0.47336 0.73635 0.0
C825 C 0.13775 0.44877 0.73575 0.0
Co826 Co 0.51553 0.10651 0.6447 0.0
Co827 Co 0.49244 0.12426 0.71452 0.0
O828 O 0.51904 0.13156 0.68029 0.0
C829 C 0.5822 0.12267 0.64746 0.0
O830 O 0.57981 0.14116 0.67017 0.0
C831 C 0.47507 0.18711 0.72836 0.0
O832 O 0.44717 0.17991 0.72247 0.0
O833 O 0.45729 0.13225 0.68812 0.0
O834 O 0.47129 0.10215 0.65066 0.0
H835 H 0.40135 0.08279 0.76594 0.0
H836 H 0.54115 0.16845 0.64055 0.0
O837 O 0.5595 0.10912 0.6368 0.0
H838 H 0.46124 0.16441 0.56462 0.0
H839 H 0.54149 0.07337 0.54063 0.0
H840 H 0.48205 0.05063 0.63067 0.0
H841 H 0.47172 0.12071 0.59651 0.0
H842 H 0.54281 0.10694 0.58387 0.0
O843 O 0.49588 0.16792 0.72467 0.0
H844 H 0.43603 0.09049 0.72365 0.0
H845 H 0.49141 0.14553 0.77797 0.0
H846 H 0.47928 0.01676 0.58727 0.0
H847 H 0.53179 0.21246 0.60881 0.0
H848 H 0.51033 0.0271 0.5422 0.0
H849 H 0.49159 0.21067 0.57042 0.0
O850 O 0.52325 0.07097 0.66988 0.0
H851 H 0.59535 0.14472 0.7552 0.0
H852 H 0.5087 0.07637 0.75843 0.0
H853 H 0.55298 0.06555 0.78955 0.0
H854 H 0.59669 0.09992 0.78815 0.0
H855 H 0.55073 0.15455 0.72422 0.0
H856 H 0.45724 0.13858 0.82078 0.0
H857 H 0.41186 0.10695 0.81493 0.0
O858 O 0.48925 0.07988 0.70548 0.0
C859 C 0.45153 0.11745 0.66444 0.0
C860 C 0.42107 0.09659 0.76878 0.0
C861 C 0.45243 0.1279 0.79956 0.0
N862 N 0.46576 0.11835 0.74835 0.0
C863 C 0.44081 0.101 0.74493 0.0
C864 C 0.47167 0.13178 0.77522 0.0
C865 C 0.42698 0.11016 0.79626 0.0
C866 C 0.52403 0.16717 0.62367 0.0
N867 N 0.50768 0.1416 0.61999 0.0
C868 C 0.51863 0.19233 0.60585 0.0
C869 C 0.49603 0.19134 0.58436 0.0
C870 C 0.47901 0.16541 0.58108 0.0
C871 C 0.4851 0.1407 0.59926 0.0
C872 C 0.52856 0.06789 0.56026 0.0
C873 C 0.49503 0.05571 0.61091 0.0
C874 C 0.52917 0.08697 0.58492 0.0
N875 N 0.51269 0.08067 0.60993 0.0
C876 C 0.49365 0.03624 0.5865 0.0
C877 C 0.51099 0.04212 0.5612 0.0
C878 C 0.50654 0.06214 0.69113 0.0
C879 C 0.57644 0.1296 0.75604 0.0
C880 C 0.52769 0.09135 0.75752 0.0
C881 C 0.55267 0.08515 0.77529 0.0
C882 C 0.57718 0.10444 0.7745 0.0
N883 N 0.5271 0.11611 0.73951 0.0
C884 C 0.55108 0.13508 0.73858 0.0
Co885 Co 0.89467 0.51917 0.64119 0.0
Co886 Co 0.87616 0.49783 0.71141 0.0
O887 O 0.86964 0.52385 0.67662 0.0
C888 C 0.87996 0.5862 0.64296 0.0
O889 O 0.86146 0.58444 0.66572 0.0
C890 C 0.81285 0.48189 0.72443 0.0
O891 O 0.81943 0.45382 0.71863 0.0
O892 O 0.86782 0.46226 0.68576 0.0
O893 O 0.89797 0.4749 0.64786 0.0
H894 H 0.9154 0.40709 0.76524 0.0
H895 H 0.83337 0.54623 0.63644 0.0
O896 O 0.89308 0.56311 0.63259 0.0
H897 H 0.83561 0.46493 0.56194 0.0
H898 H 0.92808 0.54224 0.53654 0.0
H899 H 0.94976 0.48423 0.62781 0.0
H900 H 0.87946 0.47485 0.59378 0.0
H901 H 0.8948 0.54539 0.57991 0.0
O902 O 0.83255 0.50225 0.72102 0.0
H903 H 0.90887 0.44104 0.72215 0.0
H904 H 0.85414 0.49849 0.77458 0.0
H905 H 0.98332 0.47966 0.58433 0.0
H906 H 0.78926 0.53745 0.60472 0.0
H907 H 0.97361 0.51003 0.53865 0.0
H908 H 0.79014 0.49656 0.56703 0.0
O909 O 0.93038 0.52641 0.66631 0.0
H910 H 0.85712 0.60188 0.7499 0.0
H911 H 0.92398 0.51418 0.75531 0.0
H912 H 0.93532 0.55889 0.78563 0.0
H913 H 0.90171 0.60313 0.78312 0.0
H914 H 0.84676 0.55681 0.71974 0.0
H915 H 0.85989 0.46506 0.81816 0.0
H916 H 0.89077 0.41901 0.81366 0.0
O917 O 0.92046 0.49363 0.70282 0.0
C918 C 0.88254 0.45568 0.66227 0.0
C919 C 0.90193 0.42712 0.76749 0.0
C920 C 0.87076 0.45964 0.79719 0.0
N921 N 0.88124 0.47177 0.74586 0.0
C922 C 0.89819 0.44645 0.74318 0.0
C923 C 0.86756 0.47846 0.77242 0.0
C924 C 0.88809 0.43381 0.79465 0.0
C925 C 0.83428 0.5288 0.61986 0.0
N926 N 0.85944 0.51174 0.61655 0.0
C927 C 0.80905 0.52372 0.60206 0.0
C928 C 0.80953 0.50074 0.58096 0.0
C929 C 0.83502 0.48301 0.57809 0.0
C930 C 0.85981 0.48877 0.59624 0.0
C931 C 0.93338 0.52967 0.55646 0.0
C932 C 0.94496 0.49695 0.6078 0.0
C933 C 0.91445 0.5313 0.58118 0.0
N934 N 0.92043 0.51518 0.6065 0.0
C935 C 0.96427 0.49458 0.58336 0.0
C936 C 0.95872 0.51151 0.55771 0.0
C937 C 0.93869 0.51 0.68803 0.0
C938 C 0.87192 0.58274 0.75121 0.0
C939 C 0.90934 0.5334 0.75392 0.0
C940 C 0.91583 0.55862 0.77123 0.0
C941 C 0.89695 0.58343 0.76983 0.0
N942 N 0.88471 0.53286 0.73574 0.0
C943 C 0.86614 0.55713 0.73422 0.0
Co944 Co 0.35722 0.48705 0.10981 0.0
Co945 Co 0.28785 0.51105 0.12814 0.0
O946 O 0.32159 0.48374 0.13471 0.0
C947 C 0.35206 0.42026 0.12416 0.0
O948 O 0.3291 0.4232 0.14225 0.0
C949 C 0.27464 0.52661 0.19164 0.0
O950 O 0.28037 0.55478 0.18539 0.0
O951 O 0.31482 0.54559 0.1368 0.0
O952 O 0.35231 0.53159 0.10666 0.0
H953 H 0.23771 0.60398 0.08921 0.0
H954 H 0.36089 0.45936 0.17088 0.0
O955 O 0.36393 0.4428 0.11134 0.0
H956 H 0.43859 0.53765 0.1692 0.0
H957 H 0.46066 0.45921 0.07609 0.0
H958 H 0.37203 0.52128 0.05462 0.0
H959 H 0.40628 0.52941 0.12532 0.0
H960 H 0.4174 0.45836 0.10974 0.0
O961 O 0.27803 0.50654 0.17166 0.0
H962 H 0.27943 0.56839 0.09574 0.0
H963 H 0.22461 0.51265 0.14991 0.0
H964 H 0.41541 0.52343 0.0206 0.0
H965 H 0.39304 0.46646 0.215 0.0
H966 H 0.45972 0.49115 0.03038 0.0
H967 H 0.43233 0.50581 0.21439 0.0
O968 O 0.33189 0.48084 0.07411 0.0
H969 H 0.24521 0.40842 0.14632 0.0
H970 H 0.24352 0.49674 0.08005 0.0
H971 H 0.21154 0.45334 0.06827 0.0
H972 H 0.21216 0.40879 0.10159 0.0
H973 H 0.27708 0.45219 0.1571 0.0
H974 H 0.18235 0.54772 0.14412 0.0
H975 H 0.18875 0.59375 0.11353 0.0
O976 O 0.29672 0.51512 0.08383 0.0
C977 C 0.33859 0.55131 0.12213 0.0
C978 C 0.23463 0.58398 0.10256 0.0
C979 C 0.20356 0.55241 0.13338 0.0
N980 N 0.25445 0.53843 0.12309 0.0
C981 C 0.25817 0.56373 0.1063 0.0
C982 C 0.22759 0.53266 0.1366 0.0
C983 C 0.20717 0.57823 0.11622 0.0
C984 C 0.37813 0.47616 0.17011 0.0
N985 N 0.38207 0.49331 0.1451 0.0
C986 C 0.39619 0.48027 0.19533 0.0
C987 C 0.41819 0.50239 0.19501 0.0
C988 C 0.42172 0.52024 0.16967 0.0
C989 C 0.40329 0.51545 0.14487 0.0
C990 C 0.44135 0.47278 0.07095 0.0
C991 C 0.3915 0.50775 0.05943 0.0
C992 C 0.4167 0.47244 0.09005 0.0
N993 N 0.3921 0.48965 0.08409 0.0
C994 C 0.41589 0.5088 0.0399 0.0
C995 C 0.44078 0.4908 0.04548 0.0
C996 C 0.31067 0.49784 0.06577 0.0
C997 C 0.24472 0.42771 0.13164 0.0
C998 C 0.24412 0.47737 0.09456 0.0
C999 C 0.22585 0.45289 0.08782 0.0
C1000 C 0.2262 0.42792 0.10653 0.0
N1001 N 0.26222 0.47702 0.11926 0.0
C1002 C 0.2627 0.45259 0.13766 0.0
Co1003 Co 0.35549 0.514 0.89294 0.0
Co1004 Co 0.28531 0.49043 0.87648 0.0
O1005 O 0.31941 0.51724 0.86832 0.0
C1006 C 0.35251 0.58057 0.8763 0.0
O1007 O 0.32946 0.57808 0.85824 0.0
C1008 C 0.28488 0.50238 0.80958 0.0
O1009 O 0.31054 0.5166 0.81069 0.0
O1010 O 0.31158 0.45527 0.86861 0.0
O1011 O 0.3493 0.46975 0.89815 0.0
H1012 H 0.23568 0.40047 0.92249 0.0
H1013 H 0.36135 0.54055 0.83148 0.0
O1014 O 0.36358 0.55792 0.88961 0.0
H1015 H 0.43366 0.45734 0.83475 0.0
H1016 H 0.46029 0.5396 0.92437 0.0
H1017 H 0.36983 0.48157 0.94923 0.0
H1018 H 0.40209 0.4686 0.87844 0.0
H1019 H 0.41663 0.5407 0.89118 0.0
O1020 O 0.27341 0.49087 0.83306 0.0
H1021 H 0.27733 0.43546 0.91295 0.0
H1022 H 0.22191 0.48712 0.8554 0.0
H1023 H 0.41353 0.47907 0.98271 0.0
H1024 H 0.3928 0.53039 0.78749 0.0
H1025 H 0.45874 0.50938 0.97129 0.0
H1026 H 0.42934 0.48849 0.78886 0.0
O1027 O 0.33094 0.52263 0.92863 0.0
H1028 H 0.2439 0.59337 0.85606 0.0
H1029 H 0.24112 0.50637 0.92396 0.0
H1030 H 0.20934 0.55016 0.93464 0.0
H1031 H 0.21046 0.59404 0.90048 0.0
H1032 H 0.27553 0.54935 0.84642 0.0
H1033 H 0.17979 0.45251 0.86408 0.0
H1034 H 0.18649 0.40889 0.89796 0.0
O1035 O 0.29509 0.48874 0.92075 0.0
C1036 C 0.33538 0.44972 0.88329 0.0
C1037 C 0.23246 0.41945 0.90775 0.0
C1038 C 0.2011 0.44863 0.87494 0.0
N1039 N 0.25203 0.46343 0.88381 0.0
C1040 C 0.25594 0.43938 0.90233 0.0
C1041 C 0.22508 0.4681 0.87005 0.0
C1042 C 0.20487 0.42417 0.89396 0.0
C1043 C 0.37724 0.5225 0.8325 0.0
N1044 N 0.37984 0.50546 0.85775 0.0
C1045 C 0.39498 0.51673 0.80739 0.0
C1046 C 0.41544 0.49319 0.80815 0.0
C1047 C 0.41786 0.47571 0.83386 0.0
C1048 C 0.39978 0.48217 0.85853 0.0
C1049 C 0.44056 0.52694 0.93025 0.0
C1050 C 0.38968 0.49421 0.94366 0.0
C1051 C 0.41569 0.52742 0.91141 0.0
N1052 N 0.39059 0.51134 0.91833 0.0
C1053 C 0.41426 0.49299 0.9629 0.0
C1054 C 0.43967 0.5099 0.95638 0.0
C1055 C 0.30953 0.50644 0.93795 0.0
C1056 C 0.24307 0.57432 0.87102 0.0
C1057 C 0.24182 0.52536 0.90896 0.0
C1058 C 0.22371 0.5501 0.91514 0.0
C1059 C 0.22435 0.5747 0.89597 0.0
N1060 N 0.25997 0.525 0.88429 0.0
C1061 C 0.26087 0.54918 0.86557 0.0
Co1062 Co 0.48233 0.35572 0.89413 0.0
Co1063 Co 0.50581 0.28476 0.87966 0.0
O1064 O 0.47874 0.3186 0.87102 0.0
C1065 C 0.41509 0.35213 0.87979 0.0
O1066 O 0.41675 0.32848 0.86241 0.0
C1067 C 0.4927 0.28193 0.81292 0.0
O1068 O 0.47767 0.30715 0.81345 0.0
O1069 O 0.54094 0.31076 0.87081 0.0
O1070 O 0.52663 0.35017 0.89831 0.0
H1071 H 0.59643 0.23651 0.92582 0.0
H1072 H 0.45382 0.35863 0.83337 0.0
O1073 O 0.43829 0.3634 0.89191 0.0
H1074 H 0.53661 0.43141 0.83063 0.0
H1075 H 0.45715 0.4619 0.92109 0.0
H1076 H 0.51597 0.37277 0.94898 0.0
H1077 H 0.5269 0.40187 0.87609 0.0
H1078 H 0.4553 0.41658 0.89019 0.0
O1079 O 0.50492 0.27161 0.83658 0.0
H1080 H 0.56125 0.27782 0.91565 0.0
H1081 H 0.50895 0.22078 0.86031 0.0
H1082 H 0.51909 0.41813 0.98024 0.0
H1083 H 0.46237 0.38806 0.78766 0.0
H1084 H 0.48845 0.46267 0.96727 0.0
H1085 H 0.50406 0.42483 0.786 0.0
O1086 O 0.47516 0.33259 0.93121 0.0
H1087 H 0.40254 0.24281 0.8621 0.0
H1088 H 0.49067 0.24189 0.92854 0.0
H1089 H 0.44712 0.21038 0.94084 0.0
H1090 H 0.40267 0.21056 0.90742 0.0
H1091 H 0.44634 0.27419 0.85086 0.0
H1092 H 0.54376 0.17896 0.86965 0.0
H1093 H 0.5878 0.18665 0.90273 0.0
O1094 O 0.50814 0.29578 0.92344 0.0
C1095 C 0.54649 0.33521 0.88437 0.0
C1096 C 0.57727 0.23286 0.91144 0.0
C1097 C 0.54774 0.20057 0.87988 0.0
N1098 N 0.53295 0.25171 0.88757 0.0
C1099 C 0.55722 0.25616 0.90565 0.0
C1100 C 0.52815 0.22438 0.87461 0.0
C1101 C 0.57244 0.2049 0.89845 0.0
C1102 C 0.47175 0.37467 0.83309 0.0
N1103 N 0.48953 0.37855 0.85765 0.0
C1104 C 0.47662 0.39124 0.80701 0.0
C1105 C 0.50004 0.41183 0.80606 0.0
C1106 C 0.5183 0.41553 0.83107 0.0
C1107 C 0.51272 0.3986 0.85675 0.0
C1108 C 0.47004 0.44249 0.92759 0.0
C1109 C 0.50313 0.39232 0.94277 0.0
C1110 C 0.4691 0.41668 0.91008 0.0
N1111 N 0.48541 0.39195 0.91784 0.0
C1112 C 0.50475 0.41784 0.96073 0.0
C1113 C 0.4877 0.44291 0.9533 0.0
C1114 C 0.49134 0.31118 0.94067 0.0
C1115 C 0.42186 0.24237 0.87674 0.0
C1116 C 0.47145 0.24215 0.91383 0.0
C1117 C 0.44684 0.22421 0.92093 0.0
C1118 C 0.42192 0.22432 0.90218 0.0
N1119 N 0.47139 0.25961 0.88865 0.0
C1120 C 0.44688 0.26001 0.87036 0.0
Co1121 Co 0.64874 0.47926 0.88948 0.0
Co1122 Co 0.7173 0.50938 0.87658 0.0
O1123 O 0.6863 0.47951 0.86702 0.0
C1124 C 0.64142 0.41503 0.9037 0.0
O1125 O 0.64469 0.42251 0.93195 0.0
C1126 C 0.71932 0.50042 0.80953 0.0
O1127 O 0.69303 0.48739 0.80949 0.0
O1128 O 0.68822 0.54203 0.86804 0.0
O1129 O 0.65052 0.52378 0.89552 0.0
H1130 H 0.75665 0.60305 0.92505 0.0
H1131 H 0.6481 0.4502 0.82969 0.0
O1132 O 0.64548 0.4347 0.88336 0.0
H1133 H 0.57162 0.52969 0.82429 0.0
H1134 H 0.54247 0.4487 0.91288 0.0
H1135 H 0.62927 0.50853 0.94553 0.0
H1136 H 0.60053 0.52173 0.87056 0.0
H1137 H 0.5889 0.44919 0.88306 0.0
O1138 O 0.73077 0.51034 0.8337 0.0
H1139 H 0.71879 0.56451 0.91366 0.0
H1140 H 0.78087 0.51872 0.85799 0.0
H1141 H 0.58308 0.5094 0.97542 0.0
H1142 H 0.61927 0.45707 0.78309 0.0
H1143 H 0.53955 0.47901 0.95968 0.0
H1144 H 0.58077 0.4971 0.78015 0.0
O1145 O 0.67215 0.47322 0.92662 0.0
H1146 H 0.76889 0.41138 0.85602 0.0
H1147 H 0.76083 0.49665 0.92569 0.0
H1148 H 0.79621 0.45576 0.93679 0.0
H1149 H 0.80055 0.41281 0.90172 0.0
H1150 H 0.73355 0.45252 0.84598 0.0
H1151 H 0.81928 0.55694 0.86855 0.0
H1152 H 0.80732 0.59941 0.90241 0.0
O1153 O 0.7057 0.50975 0.92031 0.0
C1154 C 0.6635 0.54526 0.88186 0.0
C1155 C 0.76216 0.5846 0.91032 0.0
C1156 C 0.7973 0.55875 0.87859 0.0
N1157 N 0.74764 0.53926 0.88535 0.0
C1158 C 0.74083 0.56266 0.90385 0.0
C1159 C 0.77541 0.53722 0.87263 0.0
C1160 C 0.79057 0.58256 0.8976 0.0
C1161 C 0.63131 0.4676 0.82863 0.0
N1162 N 0.62621 0.48563 0.85279 0.0
C1163 C 0.6151 0.47142 0.80216 0.0
C1164 C 0.59352 0.49391 0.80051 0.0
C1165 C 0.58841 0.51223 0.82524 0.0
C1166 C 0.60503 0.50773 0.85134 0.0
C1167 C 0.56145 0.46181 0.92027 0.0
C1168 C 0.61035 0.49534 0.93827 0.0
C1169 C 0.58783 0.46215 0.90348 0.0
N1170 N 0.6119 0.47873 0.91262 0.0
C1171 C 0.5843 0.49575 0.95545 0.0
C1172 C 0.5598 0.4787 0.94648 0.0
C1173 C 0.6916 0.49123 0.9369 0.0
C1174 C 0.76732 0.43005 0.87139 0.0
C1175 C 0.7625 0.47801 0.91034 0.0
C1176 C 0.78262 0.45493 0.91673 0.0
C1177 C 0.78505 0.43085 0.89705 0.0
N1178 N 0.74537 0.47722 0.88497 0.0
C1179 C 0.74743 0.45352 0.86574 0.0
Co1180 Co 0.51308 0.63904 0.89344 0.0
Co1181 Co 0.49194 0.70894 0.87329 0.0
O1182 O 0.5178 0.67384 0.8674 0.0
C1183 C 0.58004 0.64048 0.87884 0.0
O1184 O 0.57834 0.66323 0.86031 0.0
C1185 C 0.476 0.72195 0.80989 0.0
O1186 O 0.44786 0.71697 0.81679 0.0
O1187 O 0.45634 0.68318 0.86534 0.0
O1188 O 0.46885 0.64609 0.89663 0.0
H1189 H 0.40127 0.76354 0.9115 0.0
H1190 H 0.53999 0.6325 0.83238 0.0
O1191 O 0.5569 0.63018 0.8919 0.0
H1192 H 0.4583 0.55845 0.83677 0.0
H1193 H 0.53761 0.53609 0.93195 0.0
H1194 H 0.47791 0.62735 0.94874 0.0
H1195 H 0.46862 0.59129 0.87981 0.0
H1196 H 0.53958 0.57769 0.896 0.0
O1197 O 0.49642 0.71792 0.82944 0.0
H1198 H 0.43507 0.72026 0.90559 0.0
H1199 H 0.49293 0.77192 0.85054 0.0
H1200 H 0.47415 0.58556 0.98451 0.0
H1201 H 0.53076 0.5998 0.78903 0.0
H1202 H 0.50532 0.53998 0.97705 0.0
H1203 H 0.48966 0.56238 0.791 0.0
O1204 O 0.5207 0.66508 0.92832 0.0
H1205 H 0.59609 0.7468 0.85368 0.0
H1206 H 0.50841 0.75361 0.92039 0.0
H1207 H 0.5532 0.78396 0.93126 0.0
H1208 H 0.59744 0.78075 0.89772 0.0
H1209 H 0.55094 0.71661 0.8438 0.0
H1210 H 0.45967 0.81569 0.85571 0.0
H1211 H 0.41349 0.81167 0.88643 0.0
O1212 O 0.48769 0.70117 0.91781 0.0
C1213 C 0.44972 0.66003 0.88063 0.0
C1214 C 0.42135 0.76558 0.89809 0.0
C1215 C 0.45412 0.79485 0.86677 0.0
N1216 N 0.46599 0.74356 0.87782 0.0
C1217 C 0.4406 0.74116 0.8947 0.0
C1218 C 0.47285 0.76997 0.8639 0.0
C1219 C 0.42821 0.79258 0.88401 0.0
C1220 C 0.52242 0.61605 0.83372 0.0
N1221 N 0.50544 0.61344 0.85901 0.0
C1222 C 0.51713 0.59768 0.80895 0.0
C1223 C 0.49403 0.57673 0.81004 0.0
C1224 C 0.47644 0.57451 0.8357 0.0
C1225 C 0.48244 0.5932 0.86003 0.0
C1226 C 0.52444 0.55599 0.93587 0.0
C1227 C 0.49081 0.60728 0.94481 0.0
C1228 C 0.52547 0.5797 0.91556 0.0
N1229 N 0.50903 0.60509 0.92033 0.0
C1230 C 0.48887 0.58379 0.96535 0.0
C1231 C 0.50625 0.5582 0.9611 0.0
C1232 C 0.50444 0.68702 0.9362 0.0
C1233 C 0.57695 0.74841 0.86845 0.0
C1234 C 0.52763 0.7519 0.90579 0.0
C1235 C 0.5529 0.76924 0.91201 0.0
C1236 C 0.5777 0.76744 0.89317 0.0
N1237 N 0.52703 0.73331 0.88146 0.0
C1238 C 0.5513 0.7314 0.86294 0.0
Co1239 Co 0.64139 0.51293 0.10959 0.0
Co1240 Co 0.7109 0.48795 0.12661 0.0
O1241 O 0.67775 0.5162 0.13388 0.0
C1242 C 0.64561 0.58008 0.12396 0.0
O1243 O 0.66873 0.57783 0.14197 0.0
C1244 C 0.71335 0.50357 0.19279 0.0
O1245 O 0.68865 0.51938 0.19137 0.0
O1246 O 0.68353 0.45414 0.13643 0.0
O1247 O 0.64639 0.46836 0.10605 0.0
H1248 H 0.7568 0.39426 0.08438 0.0
H1249 H 0.6371 0.54152 0.17023 0.0
O1250 O 0.63428 0.55717 0.11132 0.0
H1251 H 0.56218 0.4606 0.17043 0.0
H1252 H 0.53683 0.53945 0.07842 0.0
H1253 H 0.62612 0.47953 0.05402 0.0
H1254 H 0.59354 0.46951 0.12603 0.0
H1255 H 0.58075 0.54059 0.11115 0.0
O1256 O 0.72344 0.48997 0.16981 0.0
H1257 H 0.71653 0.43111 0.09268 0.0
H1258 H 0.77443 0.48341 0.14712 0.0
H1259 H 0.58231 0.47759 0.02052 0.0
H1260 H 0.60591 0.53375 0.21488 0.0
H1261 H 0.53753 0.50857 0.03191 0.0
H1262 H 0.56805 0.49301 0.21525 0.0
O1263 O 0.66602 0.51951 0.07348 0.0
H1264 H 0.75567 0.59056 0.14104 0.0
H1265 H 0.75523 0.49987 0.07812 0.0
H1266 H 0.78834 0.54193 0.06487 0.0
H1267 H 0.78885 0.58766 0.09652 0.0
H1268 H 0.7227 0.54822 0.15326 0.0
H1269 H 0.8152 0.44695 0.13966 0.0
H1270 H 0.80656 0.40206 0.10797 0.0
O1271 O 0.70054 0.48456 0.08262 0.0
C1272 C 0.65956 0.44865 0.12201 0.0
C1273 C 0.76086 0.41378 0.09816 0.0
C1274 C 0.79363 0.44332 0.12922 0.0
N1275 N 0.74315 0.4595 0.12019 0.0
C1276 C 0.73817 0.43477 0.10288 0.0
C1277 C 0.77041 0.46385 0.13343 0.0
C1278 C 0.78877 0.41815 0.11143 0.0
C1279 C 0.62061 0.524 0.16994 0.0
N1280 N 0.61712 0.50632 0.14525 0.0
C1281 C 0.60303 0.51957 0.19544 0.0
C1282 C 0.58183 0.49669 0.19566 0.0
C1283 C 0.57854 0.4785 0.17054 0.0
C1284 C 0.59649 0.48363 0.14546 0.0
C1285 C 0.55631 0.52645 0.07255 0.0
C1286 C 0.60656 0.4927 0.0594 0.0
C1287 C 0.58131 0.52689 0.09119 0.0
N1288 N 0.60608 0.51023 0.08446 0.0
C1289 C 0.58191 0.49174 0.04017 0.0
C1290 C 0.55676 0.50907 0.04663 0.0
C1291 C 0.6868 0.50218 0.06479 0.0
C1292 C 0.75581 0.57067 0.12719 0.0
C1293 C 0.75527 0.51965 0.09207 0.0
C1294 C 0.77411 0.54342 0.08443 0.0
C1295 C 0.77438 0.56906 0.10218 0.0
N1296 N 0.73729 0.52124 0.11683 0.0
C1297 C 0.73726 0.54647 0.13413 0.0
Co1298 Co 0.48576 0.64419 0.1099 0.0
Co1299 Co 0.51104 0.71408 0.12496 0.0
O1300 O 0.48323 0.68089 0.13374 0.0
C1301 C 0.41902 0.64819 0.1263 0.0
O1302 O 0.42147 0.67126 0.14435 0.0
C1303 C 0.49789 0.71732 0.19163 0.0
O1304 O 0.48266 0.69222 0.19117 0.0
O1305 O 0.54542 0.687 0.13386 0.0
O1306 O 0.53011 0.64924 0.1048 0.0
H1307 H 0.60275 0.75993 0.07855 0.0
H1308 H 0.45928 0.64071 0.17156 0.0
O1309 O 0.4417 0.63706 0.11312 0.0
H1310 H 0.54034 0.56596 0.17003 0.0
H1311 H 0.45769 0.53939 0.08038 0.0
H1312 H 0.51816 0.6279 0.05416 0.0
H1313 H 0.52976 0.59662 0.1255 0.0
H1314 H 0.45761 0.58369 0.11277 0.0
O1315 O 0.5105 0.72727 0.16803 0.0
H1316 H 0.56653 0.71955 0.08885 0.0
H1317 H 0.51596 0.77795 0.14437 0.0
H1318 H 0.5198 0.58347 0.02163 0.0
H1319 H 0.46877 0.61026 0.21641 0.0
H1320 H 0.48827 0.53925 0.03369 0.0
H1321 H 0.50959 0.57249 0.21591 0.0
O1322 O 0.47791 0.66821 0.07362 0.0
H1323 H 0.40879 0.75834 0.14267 0.0
H1324 H 0.49701 0.75774 0.07638 0.0
H1325 H 0.45427 0.79043 0.06434 0.0
H1326 H 0.40978 0.79103 0.09769 0.0
H1327 H 0.45177 0.72578 0.15368 0.0
H1328 H 0.55182 0.81884 0.13492 0.0
H1329 H 0.59552 0.81 0.10167 0.0
O1330 O 0.51284 0.70313 0.08101 0.0
C1331 C 0.55041 0.6628 0.11961 0.0
C1332 C 0.58375 0.76408 0.09301 0.0
C1333 C 0.55519 0.79713 0.12467 0.0
N1334 N 0.53903 0.7464 0.11702 0.0
C1335 C 0.56312 0.74132 0.09886 0.0
C1336 C 0.53501 0.77384 0.13001 0.0
C1337 C 0.5797 0.79216 0.10601 0.0
C1338 C 0.47682 0.62426 0.17091 0.0
N1339 N 0.49361 0.62043 0.14566 0.0
C1340 C 0.48223 0.6071 0.19651 0.0
C1341 C 0.50516 0.58594 0.19624 0.0
C1342 C 0.52242 0.58228 0.17053 0.0
C1343 C 0.51633 0.59983 0.14537 0.0
C1344 C 0.47088 0.5587 0.07421 0.0
C1345 C 0.50498 0.60848 0.06003 0.0
C1346 C 0.47098 0.58392 0.09259 0.0
N1347 N 0.48772 0.60849 0.08528 0.0
C1348 C 0.50567 0.5835 0.04128 0.0
C1349 C 0.48806 0.55867 0.04816 0.0
C1350 C 0.49479 0.68895 0.06397 0.0
C1351 C 0.42813 0.75845 0.12808 0.0
C1352 C 0.47778 0.75782 0.09107 0.0
C1353 C 0.45362 0.77642 0.08411 0.0
C1354 C 0.42868 0.77674 0.10282 0.0
N1355 N 0.47726 0.74014 0.11609 0.0
C1356 C 0.4527 0.74013 0.13432 0.0
Co1357 Co 0.51091 0.35582 0.11216 0.0
Co1358 Co 0.48585 0.28656 0.13063 0.0
O1359 O 0.5134 0.32035 0.13789 0.0
C1360 C 0.57755 0.35293 0.12919 0.0
O1361 O 0.5751 0.3306 0.14814 0.0
C1362 C 0.49792 0.28723 0.19759 0.0
O1363 O 0.51496 0.31106 0.19561 0.0
O1364 O 0.45132 0.31383 0.13755 0.0
O1365 O 0.46667 0.35024 0.10684 0.0
H1366 H 0.395 0.23771 0.08556 0.0
H1367 H 0.53682 0.36255 0.17374 0.0
O1368 O 0.55489 0.3634 0.11545 0.0
H1369 H 0.45532 0.43663 0.16774 0.0
H1370 H 0.53881 0.45913 0.07765 0.0
H1371 H 0.47922 0.36908 0.0551 0.0
H1372 H 0.46647 0.40383 0.12491 0.0
H1373 H 0.53852 0.41662 0.11233 0.0
O1374 O 0.48551 0.27596 0.17448 0.0
H1375 H 0.43089 0.2788 0.09407 0.0
H1376 H 0.48093 0.22389 0.15352 0.0
H1377 H 0.47831 0.41155 0.01996 0.0
H1378 H 0.52676 0.39518 0.21692 0.0
H1379 H 0.50918 0.45668 0.03041 0.0
H1380 H 0.48571 0.43262 0.21415 0.0
O1381 O 0.51923 0.33006 0.07729 0.0
H1382 H 0.58784 0.24329 0.15225 0.0
H1383 H 0.5007 0.24061 0.08458 0.0
H1384 H 0.54358 0.20732 0.07491 0.0
H1385 H 0.58752 0.20836 0.10899 0.0
H1386 H 0.54476 0.2764 0.16085 0.0
H1387 H 0.44539 0.18233 0.14588 0.0
H1388 H 0.40213 0.18905 0.11157 0.0
O1389 O 0.48452 0.29521 0.08609 0.0
C1390 C 0.44632 0.33719 0.12202 0.0
C1391 C 0.41382 0.23448 0.10049 0.0
C1392 C 0.44207 0.20341 0.13438 0.0
N1393 N 0.45811 0.25371 0.1241 0.0
C1394 C 0.43426 0.25764 0.10534 0.0
C1395 C 0.46207 0.22707 0.13868 0.0
C1396 C 0.41781 0.20719 0.11512 0.0
C1397 C 0.51917 0.37884 0.17213 0.0
N1398 N 0.50258 0.3813 0.14658 0.0
C1399 C 0.51344 0.39724 0.19677 0.0
C1400 C 0.49039 0.41821 0.19523 0.0
C1401 C 0.47333 0.42047 0.16922 0.0
C1402 C 0.47974 0.40171 0.14504 0.0
C1403 C 0.52581 0.43948 0.07227 0.0
C1404 C 0.49224 0.38883 0.06014 0.0
C1405 C 0.5255 0.41526 0.09196 0.0
N1406 N 0.50902 0.39024 0.08568 0.0
C1407 C 0.49188 0.41273 0.03999 0.0
C1408 C 0.50916 0.43805 0.04591 0.0
C1409 C 0.5023 0.30902 0.06846 0.0
C1410 C 0.56873 0.24245 0.13737 0.0
C1411 C 0.5197 0.24126 0.09956 0.0
C1412 C 0.54393 0.22231 0.09395 0.0
C1413 C 0.56857 0.22291 0.11307 0.0
N1414 N 0.51984 0.26017 0.12366 0.0
C1415 C 0.5441 0.26109 0.14227 0.0
C1416 C 0.09287 0.40948 0.36614 0.0
C1417 C 0.11898 0.41907 0.35154 0.0
H1418 H 0.07364 0.37974 0.3982 0.0
C1419 C 0.14527 0.40196 0.35438 0.0
H1420 H 0.07222 0.42208 0.36411 0.0
C1421 C 0.14608 0.37741 0.3741 0.0
C1422 C 0.12057 0.36987 0.39096 0.0
H1423 H 0.16572 0.40907 0.34347 0.0
H1424 H 0.16719 0.36619 0.37814 0.0
C1425 C 0.09365 0.38515 0.38557 0.0
C1426 C 0.61559 0.09593 0.38511 0.0
C1427 C 0.63064 0.12285 0.39112 0.0
H1428 H 0.57914 0.07467 0.36269 0.0
C1429 C 0.62347 0.14851 0.37433 0.0
H1430 H 0.62074 0.07582 0.39772 0.0
C1431 C 0.59938 0.14786 0.35409 0.0
C1432 C 0.58237 0.12158 0.35067 0.0
H1433 H 0.63453 0.16962 0.37886 0.0
H1434 H 0.59244 0.16845 0.3433 0.0
C1435 C 0.59171 0.0953 0.36514 0.0
C1436 C 0.90818 0.61385 0.38056 0.0
C1437 C 0.88134 0.62909 0.3864 0.0
H1438 H 0.92908 0.57648 0.35934 0.0
C1439 C 0.85545 0.62128 0.37027 0.0
H1440 H 0.92846 0.61949 0.39265 0.0
C1441 C 0.8558 0.59638 0.35102 0.0
C1442 C 0.88201 0.57922 0.34795 0.0
H1443 H 0.8344 0.63249 0.37467 0.0
H1444 H 0.83506 0.58899 0.34084 0.0
C1445 C 0.90851 0.58917 0.36158 0.0
C1446 C 0.38767 0.90776 0.38341 0.0
C1447 C 0.37345 0.88031 0.38904 0.0
H1448 H 0.42356 0.93039 0.36145 0.0
C1449 C 0.38152 0.85508 0.37202 0.0
H1450 H 0.38182 0.92754 0.39621 0.0
C1451 C 0.40572 0.8567 0.35195 0.0
C1452 C 0.42191 0.88354 0.34893 0.0
H1453 H 0.3711 0.83358 0.37627 0.0
H1454 H 0.4134 0.83646 0.34102 0.0
C1455 C 0.41163 0.90936 0.36359 0.0
C1456 C 0.09642 0.58824 0.63307 0.0
C1457 C 0.12263 0.57811 0.64713 0.0
H1458 H 0.07722 0.61821 0.60119 0.0
C1459 C 0.14921 0.5946 0.64372 0.0
H1460 H 0.07556 0.57609 0.63557 0.0
C1461 C 0.15017 0.61902 0.62385 0.0
C1462 C 0.12451 0.62701 0.60741 0.0
H1463 H 0.16974 0.58706 0.65422 0.0
H1464 H 0.17145 0.62972 0.61933 0.0
C1465 C 0.09735 0.61242 0.61347 0.0
C1466 C 0.38791 0.09308 0.61609 0.0
C1467 C 0.37368 0.12045 0.61014 0.0
H1468 H 0.42347 0.07068 0.63881 0.0
C1469 C 0.38121 0.14573 0.62734 0.0
H1470 H 0.38243 0.07325 0.6032 0.0
C1471 C 0.40501 0.14427 0.64788 0.0
C1472 C 0.42129 0.11754 0.65123 0.0
H1473 H 0.37074 0.16715 0.62289 0.0
H1474 H 0.41237 0.16458 0.65891 0.0
C1475 C 0.41144 0.09164 0.63642 0.0
C1476 C 0.90821 0.4143 0.63603 0.0
C1477 C 0.88228 0.42498 0.65018 0.0
H1478 H 0.92665 0.38352 0.6045 0.0
C1479 C 0.8555 0.40866 0.64751 0.0
H1480 H 0.9292 0.42632 0.63797 0.0
C1481 C 0.85403 0.38388 0.62817 0.0
C1482 C 0.87936 0.37535 0.61154 0.0
H1483 H 0.83519 0.41664 0.65809 0.0
H1484 H 0.83257 0.37334 0.6241 0.0
C1485 C 0.90677 0.38973 0.61696 0.0
C1486 C 0.59798 0.85173 0.64569 0.0
C1487 C 0.58143 0.87829 0.64923 0.0
H1488 H 0.63299 0.82957 0.62106 0.0
C1489 C 0.59135 0.9045 0.63502 0.0
H1490 H 0.59057 0.83119 0.65625 0.0
C1491 C 0.6154 0.90362 0.61526 0.0
C1492 C 0.63008 0.87651 0.60917 0.0
H1493 H 0.57914 0.92533 0.63755 0.0
H1494 H 0.62102 0.92375 0.6029 0.0
C1495 C 0.62226 0.85083 0.62565 0.0
C1496 C 0.36828 0.0962 0.41003 0.0
C1497 C 0.35383 0.122 0.42062 0.0
H1498 H 0.40024 0.078 0.37955 0.0
C1499 C 0.35671 0.14891 0.4045 0.0
H1500 H 0.36624 0.07512 0.42189 0.0
C1501 C 0.37641 0.15059 0.37999 0.0
C1502 C 0.39318 0.12533 0.3715 0.0
H1503 H 0.34591 0.16914 0.41241 0.0
H1504 H 0.38054 0.17212 0.36961 0.0
C1505 C 0.38766 0.09784 0.38571 0.0
C1506 C 0.85242 0.35466 0.40638 0.0
C1507 C 0.87908 0.35123 0.42276 0.0
H1508 H 0.83016 0.37893 0.3712 0.0
C1509 C 0.90534 0.36496 0.41235 0.0
H1510 H 0.83186 0.34442 0.41415 0.0
C1511 C 0.90441 0.38436 0.38802 0.0
C1512 C 0.8772 0.3905 0.37358 0.0
H1513 H 0.92624 0.36244 0.42444 0.0
H1514 H 0.92458 0.39646 0.38202 0.0
C1515 C 0.85147 0.37431 0.38181 0.0
C1516 C 0.62752 0.85671 0.37774 0.0
C1517 C 0.61067 0.88242 0.37084 0.0
H1518 H 0.65826 0.83632 0.40879 0.0
C1519 C 0.61632 0.90906 0.38652 0.0
H1520 H 0.62332 0.83582 0.36616 0.0
C1521 C 0.63596 0.9093 0.41068 0.0
C1522 C 0.65046 0.88292 0.41969 0.0
H1523 H 0.60373 0.92922 0.38157 0.0
H1524 H 0.63816 0.92969 0.42367 0.0
C1525 C 0.64742 0.85698 0.40212 0.0
C1526 C 0.09475 0.63525 0.40865 0.0
C1527 C 0.12134 0.6489 0.41837 0.0
H1528 H 0.07467 0.60336 0.37926 0.0
C1529 C 0.14765 0.64488 0.40159 0.0
H1530 H 0.0741 0.63818 0.42105 0.0
C1531 C 0.14795 0.6248 0.37734 0.0
C1532 C 0.12191 0.60875 0.36981 0.0
H1533 H 0.16847 0.65501 0.40884 0.0
H1534 H 0.16902 0.61976 0.36645 0.0
C1535 C 0.09504 0.6154 0.38465 0.0
C1536 C 0.35558 0.85333 0.59518 0.0
C1537 C 0.35307 0.87997 0.57856 0.0
H1538 H 0.37899 0.83047 0.63059 0.0
C1539 C 0.36788 0.90576 0.5887 0.0
H1540 H 0.34451 0.83311 0.58764 0.0
C1541 C 0.38718 0.90433 0.6131 0.0
C1542 C 0.39226 0.87705 0.62788 0.0
H1543 H 0.36612 0.92666 0.57647 0.0
H1544 H 0.39999 0.92411 0.61893 0.0
C1545 C 0.37519 0.85185 0.61978 0.0
C1546 C 0.14603 0.37117 0.6206 0.0
C1547 C 0.12078 0.38838 0.62819 0.0
H1548 H 0.16495 0.33988 0.5892 0.0
C1549 C 0.09352 0.38281 0.61361 0.0
H1550 H 0.16738 0.37534 0.63131 0.0
C1551 C 0.09218 0.36285 0.58974 0.0
C1552 C 0.11806 0.34799 0.57993 0.0
H1553 H 0.07372 0.39572 0.61909 0.0
H1554 H 0.07131 0.36074 0.57751 0.0
C1555 C 0.14466 0.35096 0.5965 0.0
C1556 C 0.61573 0.09363 0.61454 0.0
C1557 C 0.60993 0.12055 0.62969 0.0
H1558 H 0.63758 0.07242 0.57773 0.0
C1559 C 0.6266 0.14622 0.62228 0.0
H1560 H 0.60326 0.0735 0.6199 0.0
C1561 C 0.64645 0.14559 0.59787 0.0
C1562 C 0.64959 0.11932 0.58081 0.0
H1563 H 0.62226 0.16732 0.63343 0.0
H1564 H 0.65716 0.16617 0.59079 0.0
C1565 C 0.63529 0.09303 0.59034 0.0
C1566 C 0.85702 0.63048 0.61703 0.0
C1567 C 0.88247 0.61366 0.62481 0.0
H1568 H 0.8375 0.66072 0.58494 0.0
C1569 C 0.90952 0.61899 0.60975 0.0
H1570 H 0.83583 0.6265 0.62813 0.0
C1571 C 0.91043 0.63822 0.58527 0.0
C1572 C 0.88432 0.65259 0.57535 0.0
H1573 H 0.92949 0.6064 0.61539 0.0
H1574 H 0.93113 0.64012 0.57274 0.0
C1575 C 0.85795 0.64996 0.59232 0.0
C1576 C 0.38378 0.38565 0.09513 0.0
C1577 C 0.36872 0.3919 0.12198 0.0
H1578 H 0.41998 0.36264 0.07412 0.0
C1579 C 0.37537 0.37494 0.14765 0.0
H1580 H 0.37897 0.39836 0.07502 0.0
C1581 C 0.39913 0.35434 0.14716 0.0
C1582 C 0.41627 0.35073 0.12102 0.0
H1583 H 0.36426 0.37963 0.16869 0.0
H1584 H 0.40578 0.34346 0.1678 0.0
C1585 C 0.40731 0.36528 0.09466 0.0
C1586 C 0.40819 0.63454 0.90678 0.0
C1587 C 0.41907 0.64782 0.88047 0.0
H1588 H 0.37759 0.60326 0.92597 0.0
C1589 C 0.40317 0.64392 0.85358 0.0
H1590 H 0.41992 0.63739 0.92784 0.0
C1591 C 0.37865 0.62422 0.85252 0.0
C1592 C 0.36998 0.60847 0.87837 0.0
H1593 H 0.41133 0.65378 0.83298 0.0
H1594 H 0.36848 0.61915 0.83109 0.0
C1595 C 0.3839 0.6151 0.90574 0.0
C1596 C 0.37038 0.37739 0.8569 0.0
C1597 C 0.38745 0.37 0.8823 0.0
H1598 H 0.33972 0.40901 0.83728 0.0
C1599 C 0.3823 0.38541 0.9092 0.0
H1600 H 0.37427 0.36607 0.8358 0.0
C1601 C 0.36293 0.40979 0.90999 0.0
C1602 C 0.34819 0.41927 0.88392 0.0
H1603 H 0.39514 0.38012 0.92911 0.0
H1604 H 0.36115 0.42256 0.93055 0.0
C1605 C 0.35073 0.40198 0.85772 0.0
C1606 C 0.6125 0.38341 0.86723 0.0
C1607 C 0.6241 0.38765 0.89628 0.0
H1608 H 0.57847 0.36244 0.84047 0.0
C1609 C 0.61416 0.36875 0.91943 0.0
H1610 H 0.61962 0.39756 0.84886 0.0
C1611 C 0.59068 0.34871 0.91449 0.0
C1612 C 0.57714 0.34678 0.88624 0.0
H1613 H 0.62265 0.37122 0.94201 0.0
H1614 H 0.58142 0.33656 0.93336 0.0
C1615 C 0.58908 0.36315 0.86229 0.0
C1616 C 0.63192 0.58203 0.90857 0.0
C1617 C 0.64863 0.5747 0.88301 0.0
H1618 H 0.59771 0.60947 0.92739 0.0
C1619 C 0.64692 0.59331 0.85767 0.0
H1620 H 0.63313 0.56828 0.92854 0.0
C1621 C 0.62637 0.61714 0.85697 0.0
C1622 C 0.60757 0.62245 0.88166 0.0
H1623 H 0.65956 0.58799 0.83767 0.0
H1624 H 0.62347 0.62964 0.83639 0.0
C1625 C 0.61171 0.60568 0.90793 0.0
C1626 C 0.61328 0.61372 0.09431 0.0
C1627 C 0.62834 0.60813 0.12132 0.0
H1628 H 0.57708 0.63613 0.07262 0.0
C1629 C 0.62136 0.62553 0.14662 0.0
H1630 H 0.61828 0.60068 0.07446 0.0
C1631 C 0.59746 0.64601 0.14558 0.0
C1632 C 0.58048 0.64911 0.11925 0.0
H1633 H 0.63243 0.62135 0.1678 0.0
H1634 H 0.59066 0.6573 0.16594 0.0
C1635 C 0.58963 0.63396 0.09329 0.0
C1636 C 0.35502 0.59809 0.14878 0.0
C1637 C 0.35155 0.58169 0.12212 0.0
H1638 H 0.37949 0.63311 0.1711 0.0
C1639 C 0.36549 0.59195 0.09591 0.0
H1640 H 0.34461 0.59042 0.1693 0.0
C1641 C 0.38499 0.6162 0.09688 0.0
C1642 C 0.39112 0.63068 0.12409 0.0
H1643 H 0.36296 0.57986 0.07502 0.0
H1644 H 0.39723 0.62208 0.07675 0.0
C1645 C 0.37484 0.62254 0.14978 0.0
C1646 C 0.64262 0.40267 0.14972 0.0
C1647 C 0.64586 0.41861 0.12275 0.0
H1648 H 0.61805 0.36837 0.17306 0.0
C1649 C 0.63116 0.40825 0.097 0.0
H1650 H 0.6536 0.41041 0.16992 0.0
C1651 C 0.61126 0.38437 0.09873 0.0
C1652 C 0.60546 0.37036 0.12627 0.0
H1653 H 0.63348 0.41997 0.07587 0.0
H1654 H 0.59858 0.37838 0.07891 0.0
C1655 C 0.62239 0.3786 0.1515 0.0
C1656 C 0.01644 0.30392 0.52639 0.0
C1657 C 0.02944 0.30503 0.49779 0.0
H1658 H 0.97575 0.30575 0.5519 0.0
C1659 C 0.01086 0.30555 0.47243 0.0
H1660 H 0.03037 0.3039 0.54627 0.0
C1661 C 0.97971 0.30565 0.47564 0.0
C1662 C 0.96678 0.30628 0.50427 0.0
H1663 H 0.02046 0.30657 0.45017 0.0
H1664 H 0.96578 0.30697 0.45581 0.0
C1665 C 0.98533 0.30508 0.52962 0.0
C1666 C 0.69367 0.01853 0.52654 0.0
C1667 C 0.69355 0.03203 0.49816 0.0
H1668 H 0.69188 0.97729 0.55119 0.0
C1669 C 0.69452 0.01399 0.47246 0.0
H1670 H 0.69254 0.03208 0.54664 0.0
C1671 C 0.69506 0.98281 0.47507 0.0
C1672 C 0.69357 0.96928 0.50341 0.0
H1673 H 0.69427 0.02403 0.45037 0.0
H1674 H 0.69504 0.96928 0.45493 0.0
C1675 C 0.69316 0.98733 0.52914 0.0
C1676 C 0.98486 0.69609 0.52202 0.0
C1677 C 0.9719 0.6955 0.49339 0.0
H1678 H 0.02555 0.69409 0.54755 0.0
C1679 C 0.99052 0.69569 0.46806 0.0
H1680 H 0.9709 0.69552 0.54186 0.0
C1681 C 0.02168 0.69581 0.47131 0.0
C1682 C 0.03462 0.69466 0.49994 0.0
H1683 H 0.98095 0.69502 0.44578 0.0
H1684 H 0.03561 0.69505 0.45146 0.0
C1685 C 0.01601 0.69515 0.52527 0.0
C1686 C 0.30804 0.01404 0.52735 0.0
C1687 C 0.30936 0.03227 0.50177 0.0
H1688 H 0.3074 0.96921 0.54464 0.0
C1689 C 0.30948 0.01893 0.47332 0.0
H1690 H 0.30811 0.02395 0.5495 0.0
C1691 C 0.31002 0.98773 0.47057 0.0
C1692 C 0.30942 0.96949 0.49619 0.0
H1693 H 0.3109 0.0326 0.45332 0.0
H1694 H 0.3116 0.97783 0.44848 0.0
C1695 C 0.30753 0.98285 0.52457 0.0
C1696 C 0.47538 0.98619 0.30427 0.0
C1697 C 0.50372 0.97262 0.30428 0.0
H1698 H 0.45083 0.02747 0.30639 0.0
C1699 C 0.52943 0.99068 0.30305 0.0
H1700 H 0.45528 0.97267 0.30562 0.0
C1701 C 0.52688 0.0219 0.30255 0.0
C1702 C 0.4986 0.0355 0.30435 0.0
H1703 H 0.55151 0.98062 0.30324 0.0
H1704 H 0.54705 0.03539 0.30257 0.0
C1705 C 0.47285 0.01742 0.30482 0.0
C1706 C 0.98121 0.52396 0.30562 0.0
C1707 C 0.96786 0.49551 0.30537 0.0
H1708 H 0.02225 0.54884 0.30837 0.0
C1709 C 0.98609 0.46991 0.30458 0.0
H1710 H 0.96752 0.54397 0.30672 0.0
C1711 C 0.01728 0.47271 0.30465 0.0
C1712 C 0.03062 0.50111 0.30663 0.0
H1713 H 0.97619 0.44776 0.30464 0.0
H1714 H 0.03092 0.45264 0.30485 0.0
C1715 C 0.01238 0.52673 0.30676 0.0
C1716 C 0.47288 0.98485 0.6937 0.0
C1717 C 0.49863 0.9668 0.69415 0.0
H1718 H 0.4553 0.0296 0.69354 0.0
C1719 C 0.52689 0.98035 0.69655 0.0
H1720 H 0.45088 0.97483 0.69176 0.0
C1721 C 0.52944 0.01157 0.6967 0.0
C1722 C 0.50373 0.02962 0.69554 0.0
H1723 H 0.54705 0.96686 0.69662 0.0
H1724 H 0.5515 0.02164 0.69698 0.0
C1725 C 0.47539 0.01606 0.69489 0.0
C1726 C 0.99006 0.53146 0.69223 0.0
C1727 C 0.97109 0.50639 0.69277 0.0
H1728 H 0.03539 0.54737 0.69133 0.0
C1729 C 0.9836 0.4776 0.69445 0.0
H1730 H 0.98082 0.55384 0.69075 0.0
C1731 C 0.01469 0.47389 0.69384 0.0
C1732 C 0.03365 0.49893 0.6926 0.0
H1733 H 0.96936 0.45795 0.69448 0.0
H1734 H 0.02393 0.45145 0.69361 0.0
C1735 C 0.02115 0.52777 0.69268 0.0
C1736 C 0.30678 0.53065 0.98823 0.0
C1737 C 0.30491 0.50469 0.97055 0.0
H1738 H 0.30897 0.54878 0.0327 0.0
C1739 C 0.30189 0.47671 0.98455 0.0
H1740 H 0.30924 0.55245 0.97785 0.0
C1741 C 0.30263 0.47457 0.01578 0.0
C1742 C 0.30532 0.50045 0.03341 0.0
H1743 H 0.30077 0.45637 0.97137 0.0
H1744 H 0.30189 0.45265 0.02617 0.0
C1745 C 0.30649 0.52859 0.01947 0.0
C1746 C 0.52198 0.30333 0.9866 0.0
C1747 C 0.49374 0.3068 0.97324 0.0
H1748 H 0.54683 0.3018 0.02772 0.0
C1749 C 0.46814 0.30823 0.99142 0.0
H1750 H 0.54204 0.30245 0.97298 0.0
C1751 C 0.47081 0.30679 0.02259 0.0
C1752 C 0.49919 0.30492 0.03596 0.0
H1753 H 0.44616 0.31096 0.98153 0.0
H1754 H 0.45087 0.30883 0.03626 0.0
C1755 C 0.52473 0.30295 0.01778 0.0
C1756 C 0.69478 0.52226 0.98312 0.0
C1757 C 0.69424 0.49386 0.96964 0.0
H1758 H 0.69221 0.5471 0.02418 0.0
C1759 C 0.69346 0.46819 0.98779 0.0
H1760 H 0.69502 0.54238 0.96954 0.0
C1761 C 0.69275 0.4709 0.01898 0.0
C1762 C 0.69177 0.49932 0.03236 0.0
H1763 H 0.6929 0.44608 0.97782 0.0
H1764 H 0.69148 0.45082 0.03256 0.0
C1765 C 0.69304 0.52498 0.01425 0.0
C1766 C 0.52726 0.69551 0.9863 0.0
C1767 C 0.50155 0.69266 0.96848 0.0
H1768 H 0.5451 0.69759 0.03084 0.0
C1769 C 0.47332 0.6913 0.98218 0.0
H1770 H 0.54925 0.69634 0.97609 0.0
C1771 C 0.471 0.69105 0.01341 0.0
C1772 C 0.4968 0.69311 0.0313 0.0
H1773 H 0.45327 0.68864 0.96879 0.0
H1774 H 0.44914 0.68851 0.02361 0.0
C1775 C 0.52487 0.69627 0.01751 0.0
C1776 C 0.22212 0.24147 0.51532 0.0
C1777 C 0.21682 0.26331 0.49335 0.0
H1778 H 0.24566 0.20172 0.52743 0.0
C1779 C 0.23431 0.26326 0.4672 0.0
H1780 H 0.20897 0.24103 0.53571 0.0
C1781 C 0.25509 0.24029 0.46211 0.0
C1782 C 0.25905 0.21736 0.48334 0.0
H1783 H 0.23053 0.27973 0.44979 0.0
H1784 H 0.26703 0.23976 0.44101 0.0
C1785 C 0.24321 0.21894 0.51053 0.0
C1786 C 0.75492 0.22506 0.51815 0.0
C1787 C 0.73363 0.21953 0.49572 0.0
H1788 H 0.7947 0.24826 0.53072 0.0
C1789 C 0.73448 0.23652 0.46925 0.0
H1790 H 0.75471 0.21226 0.53878 0.0
C1791 C 0.75784 0.25687 0.46429 0.0
C1792 C 0.78036 0.26085 0.48595 0.0
H1793 H 0.71844 0.23251 0.45151 0.0
H1794 H 0.75907 0.26831 0.44294 0.0
C1795 C 0.77784 0.24572 0.51347 0.0
C1796 C 0.76305 0.74624 0.53541 0.0
C1797 C 0.78557 0.74316 0.51361 0.0
H1798 H 0.72286 0.76906 0.54855 0.0
C1799 C 0.78237 0.75837 0.48621 0.0
H1800 H 0.76479 0.73469 0.55667 0.0
C1801 C 0.75865 0.77818 0.48174 0.0
C1802 C 0.73726 0.78281 0.5043 0.0
H1803 H 0.79921 0.7565 0.46885 0.0
H1804 H 0.75786 0.79105 0.46117 0.0
C1805 C 0.73893 0.76575 0.53069 0.0
C1806 C 0.22327 0.75627 0.50771 0.0
C1807 C 0.22074 0.74134 0.48008 0.0
H1808 H 0.24653 0.78934 0.53342 0.0
C1809 C 0.24323 0.74558 0.45845 0.0
H1810 H 0.20643 0.75356 0.52496 0.0
C1811 C 0.26666 0.76582 0.46363 0.0
C1812 C 0.26764 0.78249 0.49031 0.0
H1813 H 0.24199 0.73433 0.437 0.0
H1814 H 0.28274 0.76991 0.44594 0.0
C1815 C 0.24627 0.77682 0.51263 0.0
C1816 C 0.52593 0.23812 0.26004 0.0
C1817 C 0.49925 0.22475 0.26983 0.0
H1818 H 0.5462 0.26971 0.23001 0.0
C1819 C 0.47182 0.23469 0.25819 0.0
H1820 H 0.54733 0.23035 0.26842 0.0
C1821 C 0.47123 0.25639 0.23561 0.0
C1822 C 0.49798 0.26913 0.22513 0.0
H1823 H 0.45104 0.22418 0.26502 0.0
H1824 H 0.45 0.26237 0.22549 0.0
C1825 C 0.52526 0.2606 0.23821 0.0
C1826 C 0.75953 0.53881 0.25417 0.0
C1827 C 0.78166 0.51682 0.25848 0.0
H1828 H 0.71979 0.55155 0.23035 0.0
C1829 C 0.77819 0.48883 0.24444 0.0
H1830 H 0.76149 0.56054 0.26478 0.0
C1831 C 0.75461 0.48386 0.22458 0.0
C1832 C 0.73363 0.50651 0.21873 0.0
H1833 H 0.79471 0.4713 0.24726 0.0
H1834 H 0.75363 0.46274 0.21264 0.0
C1835 C 0.73555 0.5336 0.23462 0.0
C1836 C 0.51713 0.76009 0.22175 0.0
C1837 C 0.49517 0.73805 0.21726 0.0
H1838 H 0.52896 0.80106 0.24329 0.0
C1839 C 0.46874 0.73914 0.23429 0.0
H1840 H 0.53772 0.75979 0.20892 0.0
C1841 C 0.46339 0.7632 0.25371 0.0
C1842 C 0.4846 0.78628 0.25675 0.0
H1843 H 0.45132 0.72256 0.23109 0.0
H1844 H 0.44211 0.76441 0.26528 0.0
C1845 C 0.51204 0.78377 0.24148 0.0
C1846 C 0.23373 0.53377 0.26568 0.0
C1847 C 0.21752 0.50679 0.2662 0.0
H1848 H 0.26462 0.56143 0.2414 0.0
C1849 C 0.22345 0.48498 0.2444 0.0
H1850 H 0.2294 0.55107 0.28212 0.0
C1851 C 0.24377 0.49071 0.2214 0.0
C1852 C 0.25819 0.51866 0.21933 0.0
H1853 H 0.21128 0.46398 0.2443 0.0
H1854 H 0.24669 0.47382 0.20424 0.0
C1855 C 0.25374 0.53977 0.24227 0.0
C1856 C 0.46216 0.74254 0.75933 0.0
C1857 C 0.4835 0.73862 0.78216 0.0
H1858 H 0.44995 0.76655 0.71952 0.0
C1859 C 0.51097 0.75388 0.78 0.0
H1860 H 0.44083 0.73104 0.76028 0.0
C1861 C 0.51599 0.77441 0.75698 0.0
C1862 C 0.49393 0.77974 0.73522 0.0
H1863 H 0.52796 0.75144 0.79714 0.0
H1864 H 0.53663 0.78717 0.75698 0.0
C1865 C 0.46745 0.76275 0.73589 0.0
C1866 C 0.26552 0.53115 0.76554 0.0
C1867 C 0.26556 0.50491 0.78291 0.0
H1868 H 0.24193 0.5576 0.73309 0.0
C1869 C 0.24371 0.48298 0.77755 0.0
H1870 H 0.282 0.54853 0.76941 0.0
C1871 C 0.22112 0.48795 0.75658 0.0
C1872 C 0.21949 0.51527 0.74095 0.0
H1873 H 0.24327 0.46254 0.79062 0.0
H1874 H 0.20387 0.47108 0.75411 0.0
C1875 C 0.24249 0.53641 0.74488 0.0
C1876 C 0.46009 0.23742 0.74877 0.0
C1877 C 0.48175 0.2148 0.7454 0.0
H1878 H 0.44693 0.27713 0.77245 0.0
C1879 C 0.50878 0.21716 0.76141 0.0
H1880 H 0.4391 0.23629 0.73668 0.0
C1881 C 0.51303 0.2402 0.78208 0.0
C1882 C 0.49067 0.26177 0.78678 0.0
H1883 H 0.52599 0.20019 0.75941 0.0
H1884 H 0.53333 0.24037 0.79537 0.0
C1885 C 0.46464 0.26089 0.76911 0.0
C1886 C 0.76106 0.52045 0.77874 0.0
C1887 C 0.7389 0.49861 0.78305 0.0
H1888 H 0.80133 0.53268 0.7562 0.0
C1889 C 0.73881 0.47301 0.76478 0.0
H1890 H 0.76159 0.5404 0.79256 0.0
C1891 C 0.76203 0.46818 0.74426 0.0
C1892 C 0.78531 0.48919 0.74135 0.0
H1893 H 0.72206 0.45573 0.76785 0.0
H1894 H 0.7625 0.44741 0.73174 0.0
C1895 C 0.78383 0.51597 0.75787 0.0
loop_
_geom_bond_atom_site_label_1
_geom_bond_atom_site_label_2
_geom_bond_distance
_geom_bond_site_symmetry_2
_ccdc_geom_bond_type
Co0 O2 2.143 . S
Co0 O8 2.074 . S
Co0 O11 2.093 . S
Co0 O24 2.097 . S
Co0 N41 2.151 . S
Co0 N49 2.214 . S
Co1 O2 2.160 . S
Co1 O7 2.058 . S
Co1 O17 2.057 . S
Co1 O32 2.037 . S
Co1 N36 2.145 . S
Co1 N57 2.257 . S
O2 Co0 2.143 . S
O2 Co1 2.160 . S
C3 O4 1.278 . S
C3 O11 1.224 . S
O4 C3 1.278 . S
C5 O6 1.245 . S
C5 O17 1.232 . S
O6 C5 1.245 . S
O7 Co1 2.058 . S
O7 C33 1.269 . S
O8 Co0 2.074 . S
O8 C33 1.257 . S
H9 C34 0.930 . S
H10 C40 0.930 . S
O11 Co0 2.093 . S
O11 C3 1.224 . S
H12 C44 0.929 . S
H13 C46 0.930 . S
H14 C47 0.930 . S
H15 C45 0.929 . S
H16 C48 0.928 . S
O17 Co1 2.057 . S
O17 C5 1.232 . S
H18 C37 0.929 . S
H19 C38 0.929 . S
H20 C50 0.931 . S
H21 C42 0.929 . S
H22 C51 0.930 . S
H23 C43 0.931 . S
O24 Co0 2.097 . S
O24 C52 1.214 . S
H25 C53 0.929 . S
H26 C54 0.929 . S
H27 C55 0.930 . S
H28 C56 0.929 . S
H29 C58 0.930 . S
H30 C35 0.930 . S
H31 C39 0.930 . S
O32 Co1 2.037 . S
O32 C52 1.234 . S
C33 O7 1.269 . S
C33 O8 1.257 . S
C34 H9 0.930 . S
C34 C37 1.388 . S
C34 C39 1.418 . S
C35 H30 0.930 . S
C35 C38 1.404 . S
C35 C39 1.353 . S
N36 Co1 2.145 . S
N36 C37 1.397 . S
N36 C38 1.334 . S
C37 H18 0.929 . S
C37 C34 1.388 . S
C37 N36 1.397 . S
C38 H19 0.929 . S
C38 C35 1.404 . S
C38 N36 1.334 . S
C39 H31 0.930 . S
C39 C34 1.418 . S
C39 C35 1.353 . S
C40 H10 0.930 . S
C40 N41 1.330 . S
C40 C42 1.446 . S
N41 Co0 2.151 . S
N41 C40 1.330 . S
N41 C45 1.418 . S
C42 H21 0.929 . S
C42 C40 1.446 . S
C42 C43 1.332 . S
C43 H23 0.931 . S
C43 C42 1.332 . S
C43 C44 1.267 . S
C44 H12 0.929 . S
C44 C43 1.267 . S
C44 C45 1.251 . S
C45 H15 0.929 . S
C45 N41 1.418 . S
C45 C44 1.251 . S
C46 H13 0.930 . S
C46 C48 1.406 . S
C46 C51 1.261 . S
C47 H14 0.930 . S
C47 N49 1.325 . S
C47 C50 1.357 . S
C48 H16 0.928 . S
C48 C46 1.406 . S
C48 N49 1.261 . S
N49 Co0 2.214 . S
N49 C47 1.325 . S
N49 C48 1.261 . S
C50 H20 0.931 . S
C50 C47 1.357 . S
C50 C51 1.312 . S
C51 H22 0.930 . S
C51 C46 1.261 . S
C51 C50 1.312 . S
C52 O24 1.214 . S
C52 O32 1.234 . S
C53 H25 0.929 . S
C53 C56 1.391 . S
C53 C58 1.391 . S
C54 H26 0.929 . S
C54 C55 1.390 . S
C54 N57 1.391 . S
C55 H27 0.930 . S
C55 C54 1.390 . S
C55 C56 1.392 . S
C56 H28 0.929 . S
C56 C53 1.391 . S
C56 C55 1.392 . S
N57 Co1 2.257 . S
N57 C54 1.391 . S
N57 C58 1.388 . S
C58 H29 0.930 . S
C58 C53 1.391 . S
C58 N57 1.388 . S
Co59 O61 2.143 . S
Co59 O67 2.074 . S
Co59 O70 2.093 . S
Co59 O83 2.097 . S
Co59 N100 2.151 . S
Co59 N108 2.214 . S
Co60 O61 2.160 . S
Co60 O66 2.058 . S
Co60 O76 2.057 . S
Co60 O91 2.037 . S
Co60 N95 2.145 . S
Co60 N116 2.257 . S
O61 Co59 2.143 . S
O61 Co60 2.160 . S
C62 O63 1.278 . S
C62 O70 1.224 . S
O63 C62 1.278 . S
C64 O65 1.245 . S
C64 O76 1.232 . S
O65 C64 1.245 . S
O66 Co60 2.058 . S
O66 C92 1.269 . S
O67 Co59 2.074 . S
O67 C92 1.257 . S
H68 C93 0.930 . S
H69 C99 0.930 . S
O70 Co59 2.093 . S
O70 C62 1.224 . S
H71 C103 0.929 . S
H72 C105 0.930 . S
H73 C106 0.930 . S
H74 C104 0.929 . S
H75 C107 0.928 . S
O76 Co60 2.057 . S
O76 C64 1.232 . S
H77 C96 0.929 . S
H78 C97 0.929 . S
H79 C109 0.931 . S
H80 C101 0.929 . S
H81 C110 0.930 . S
H82 C102 0.931 . S
O83 Co59 2.097 . S
O83 C111 1.214 . S
H84 C112 0.929 . S
H85 C113 0.929 . S
H86 C114 0.930 . S
H87 C115 0.929 . S
H88 C117 0.930 . S
H89 C94 0.930 . S
H90 C98 0.930 . S
O91 Co60 2.037 . S
O91 C111 1.234 . S
C92 O66 1.269 . S
C92 O67 1.257 . S
C93 H68 0.930 . S
C93 C96 1.388 . S
C93 C98 1.418 . S
C94 H89 0.930 . S
C94 C97 1.404 . S
C94 C98 1.353 . S
N95 Co60 2.145 . S
N95 C96 1.397 . S
N95 C97 1.334 . S
C96 H77 0.929 . S
C96 C93 1.388 . S
C96 N95 1.397 . S
C97 H78 0.929 . S
C97 C94 1.404 . S
C97 N95 1.334 . S
C98 H90 0.930 . S
C98 C93 1.418 . S
C98 C94 1.353 . S
C99 H69 0.930 . S
C99 N100 1.330 . S
C99 C101 1.446 . S
N100 Co59 2.151 . S
N100 C99 1.330 . S
N100 C104 1.418 . S
C101 H80 0.929 . S
C101 C99 1.446 . S
C101 C102 1.332 . S
C102 H82 0.931 . S
C102 C101 1.332 . S
C102 C103 1.267 . S
C103 H71 0.929 . S
C103 C102 1.267 . S
C103 C104 1.251 . S
C104 H74 0.929 . S
C104 N100 1.418 . S
C104 C103 1.251 . S
C105 H72 0.930 . S
C105 C107 1.406 . S
C105 C110 1.261 . S
C106 H73 0.930 . S
C106 N108 1.325 . S
C106 C109 1.357 . S
C107 H75 0.928 . S
C107 C105 1.406 . S
C107 N108 1.261 . S
N108 Co59 2.214 . S
N108 C106 1.325 . S
N108 C107 1.261 . S
C109 H79 0.931 . S
C109 C106 1.357 . S
C109 C110 1.312 . S
C110 H81 0.930 . S
C110 C105 1.261 . S
C110 C109 1.312 . S
C111 O83 1.214 . S
C111 O91 1.234 . S
C112 H84 0.929 . S
C112 C115 1.391 . S
C112 C117 1.391 . S
C113 H85 0.929 . S
C113 C114 1.390 . S
C113 N116 1.391 . S
C114 H86 0.930 . S
C114 C113 1.390 . S
C114 C115 1.392 . S
C115 H87 0.929 . S
C115 C112 1.391 . S
C115 C114 1.392 . S
N116 Co60 2.257 . S
N116 C113 1.391 . S
N116 C117 1.388 . S
C117 H88 0.930 . S
C117 C112 1.391 . S
C117 N116 1.388 . S
Co118 O120 2.143 . S
Co118 O126 2.074 . S
Co118 O129 2.093 . S
Co118 O142 2.097 . S
Co118 N159 2.151 . S
Co118 N167 2.214 . S
Co119 O120 2.160 . S
Co119 O125 2.058 . S
Co119 O135 2.057 . S
Co119 O150 2.037 . S
Co119 N154 2.145 . S
Co119 N175 2.257 . S
O120 Co118 2.143 . S
O120 Co119 2.160 . S
C121 O122 1.278 . S
C121 O129 1.224 . S
O122 C121 1.278 . S
C123 O124 1.245 . S
C123 O135 1.232 . S
O124 C123 1.245 . S
O125 Co119 2.058 . S
O125 C151 1.269 . S
O126 Co118 2.074 . S
O126 C151 1.257 . S
H127 C152 0.930 . S
H128 C158 0.930 . S
O129 Co118 2.093 . S
O129 C121 1.224 . S
H130 C162 0.929 . S
H131 C164 0.930 . S
H132 C165 0.930 . S
H133 C163 0.929 . S
H134 C166 0.928 . S
O135 Co119 2.057 . S
O135 C123 1.232 . S
H136 C155 0.929 . S
H137 C156 0.929 . S
H138 C168 0.931 . S
H139 C160 0.929 . S
H140 C169 0.930 . S
H141 C161 0.931 . S
O142 Co118 2.097 . S
O142 C170 1.214 . S
H143 C171 0.929 . S
H144 C172 0.929 . S
H145 C173 0.930 . S
H146 C174 0.929 . S
H147 C176 0.930 . S
H148 C153 0.930 . S
H149 C157 0.930 . S
O150 Co119 2.037 . S
O150 C170 1.234 . S
C151 O125 1.269 . S
C151 O126 1.257 . S
C152 H127 0.930 . S
C152 C155 1.388 . S
C152 C157 1.418 . S
C153 H148 0.930 . S
C153 C156 1.404 . S
C153 C157 1.353 . S
N154 Co119 2.145 . S
N154 C155 1.397 . S
N154 C156 1.334 . S
C155 H136 0.929 . S
C155 C152 1.388 . S
C155 N154 1.397 . S
C156 H137 0.929 . S
C156 C153 1.404 . S
C156 N154 1.334 . S
C157 H149 0.930 . S
C157 C152 1.418 . S
C157 C153 1.353 . S
C158 H128 0.930 . S
C158 N159 1.330 . S
C158 C160 1.446 . S
N159 Co118 2.151 . S
N159 C158 1.330 . S
N159 C163 1.418 . S
C160 H139 0.929 . S
C160 C158 1.446 . S
C160 C161 1.332 . S
C161 H141 0.931 . S
C161 C160 1.332 . S
C161 C162 1.267 . S
C162 H130 0.929 . S
C162 C161 1.267 . S
C162 C163 1.251 . S
C163 H133 0.929 . S
C163 N159 1.418 . S
C163 C162 1.251 . S
C164 H131 0.930 . S
C164 C166 1.406 . S
C164 C169 1.261 . S
C165 H132 0.930 . S
C165 N167 1.325 . S
C165 C168 1.357 . S
C166 H134 0.928 . S
C166 C164 1.406 . S
C166 N167 1.261 . S
N167 Co118 2.214 . S
N167 C165 1.325 . S
N167 C166 1.261 . S
C168 H138 0.931 . S
C168 C165 1.357 . S
C168 C169 1.312 . S
C169 H140 0.930 . S
C169 C164 1.261 . S
C169 C168 1.312 . S
C170 O142 1.214 . S
C170 O150 1.234 . S
C171 H143 0.929 . S
C171 C174 1.391 . S
C171 C176 1.391 . S
C172 H144 0.929 . S
C172 C173 1.390 . S
C172 N175 1.391 . S
C173 H145 0.930 . S
C173 C172 1.390 . S
C173 C174 1.392 . S
C174 H146 0.929 . S
C174 C171 1.391 . S
C174 C173 1.392 . S
N175 Co119 2.257 . S
N175 C172 1.391 . S
N175 C176 1.388 . S
C176 H147 0.930 . S
C176 C171 1.391 . S
C176 N175 1.388 . S
Co177 O179 2.143 . S
Co177 O185 2.074 . S
Co177 O188 2.093 . S
Co177 O201 2.097 . S
Co177 N218 2.151 . S
Co177 N226 2.214 . S
Co178 O179 2.160 . S
Co178 O184 2.058 . S
Co178 O194 2.057 . S
Co178 O209 2.037 . S
Co178 N213 2.145 . S
Co178 N234 2.257 . S
O179 Co177 2.143 . S
O179 Co178 2.160 . S
C180 O181 1.278 . S
C180 O188 1.224 . S
O181 C180 1.278 . S
C182 O183 1.245 . S
C182 O194 1.232 . S
O183 C182 1.245 . S
O184 Co178 2.058 . S
O184 C210 1.269 . S
O185 Co177 2.074 . S
O185 C210 1.257 . S
H186 C211 0.930 . S
H187 C217 0.930 . S
O188 Co177 2.093 . S
O188 C180 1.224 . S
H189 C221 0.929 . S
H190 C223 0.930 . S
H191 C224 0.930 . S
H192 C222 0.929 . S
H193 C225 0.928 . S
O194 Co178 2.057 . S
O194 C182 1.232 . S
H195 C214 0.929 . S
H196 C215 0.929 . S
H197 C227 0.931 . S
H198 C219 0.929 . S
H199 C228 0.930 . S
H200 C220 0.931 . S
O201 Co177 2.097 . S
O201 C229 1.214 . S
H202 C230 0.929 . S
H203 C231 0.929 . S
H204 C232 0.930 . S
H205 C233 0.929 . S
H206 C235 0.930 . S
H207 C212 0.930 . S
H208 C216 0.930 . S
O209 Co178 2.037 . S
O209 C229 1.234 . S
C210 O184 1.269 . S
C210 O185 1.257 . S
C211 H186 0.930 . S
C211 C214 1.388 . S
C211 C216 1.418 . S
C212 H207 0.930 . S
C212 C215 1.404 . S
C212 C216 1.353 . S
N213 Co178 2.145 . S
N213 C214 1.397 . S
N213 C215 1.334 . S
C214 H195 0.929 . S
C214 C211 1.388 . S
C214 N213 1.397 . S
C215 H196 0.929 . S
C215 C212 1.404 . S
C215 N213 1.334 . S
C216 H208 0.930 . S
C216 C211 1.418 . S
C216 C212 1.353 . S
C217 H187 0.930 . S
C217 N218 1.330 . S
C217 C219 1.446 . S
N218 Co177 2.151 . S
N218 C217 1.330 . S
N218 C222 1.418 . S
C219 H198 0.929 . S
C219 C217 1.446 . S
C219 C220 1.332 . S
C220 H200 0.931 . S
C220 C219 1.332 . S
C220 C221 1.267 . S
C221 H189 0.929 . S
C221 C220 1.267 . S
C221 C222 1.251 . S
C222 H192 0.929 . S
C222 N218 1.418 . S
C222 C221 1.251 . S
C223 H190 0.930 . S
C223 C225 1.406 . S
C223 C228 1.261 . S
C224 H191 0.930 . S
C224 N226 1.325 . S
C224 C227 1.357 . S
C225 H193 0.928 . S
C225 C223 1.406 . S
C225 N226 1.261 . S
N226 Co177 2.214 . S
N226 C224 1.325 . S
N226 C225 1.261 . S
C227 H197 0.931 . S
C227 C224 1.357 . S
C227 C228 1.312 . S
C228 H199 0.930 . S
C228 C223 1.261 . S
C228 C227 1.312 . S
C229 O201 1.214 . S
C229 O209 1.234 . S
C230 H202 0.929 . S
C230 C233 1.391 . S
C230 C235 1.391 . S
C231 H203 0.929 . S
C231 C232 1.390 . S
C231 N234 1.391 . S
C232 H204 0.930 . S
C232 C231 1.390 . S
C232 C233 1.392 . S
C233 H205 0.929 . S
C233 C230 1.391 . S
C233 C232 1.392 . S
N234 Co178 2.257 . S
N234 C231 1.391 . S
N234 C235 1.388 . S
C235 H206 0.930 . S
C235 C230 1.391 . S
C235 N234 1.388 . S
Co236 O238 2.143 . S
Co236 O244 2.074 . S
Co236 O247 2.093 . S
Co236 O260 2.097 . S
Co236 N277 2.151 . S
Co236 N285 2.214 . S
Co237 O238 2.160 . S
Co237 O243 2.058 . S
Co237 O253 2.057 . S
Co237 O268 2.037 . S
Co237 N272 2.145 . S
Co237 N293 2.257 . S
O238 Co236 2.143 . S
O238 Co237 2.160 . S
C239 O240 1.278 . S
C239 O247 1.224 . S
O240 C239 1.278 . S
C241 O242 1.245 . S
C241 O253 1.232 . S
O242 C241 1.245 . S
O243 Co237 2.058 . S
O243 C269 1.269 . S
O244 Co236 2.074 . S
O244 C269 1.257 . S
H245 C270 0.930 . S
H246 C276 0.930 . S
O247 Co236 2.093 . S
O247 C239 1.224 . S
H248 C280 0.929 . S
H249 C282 0.930 . S
H250 C283 0.930 . S
H251 C281 0.929 . S
H252 C284 0.928 . S
O253 Co237 2.057 . S
O253 C241 1.232 . S
H254 C273 0.929 . S
H255 C274 0.929 . S
H256 C286 0.931 . S
H257 C278 0.929 . S
H258 C287 0.930 . S
H259 C279 0.931 . S
O260 Co236 2.097 . S
O260 C288 1.214 . S
H261 C289 0.929 . S
H262 C290 0.929 . S
H263 C291 0.930 . S
H264 C292 0.929 . S
H265 C294 0.930 . S
H266 C271 0.930 . S
H267 C275 0.930 . S
O268 Co237 2.037 . S
O268 C288 1.234 . S
C269 O243 1.269 . S
C269 O244 1.257 . S
C270 H245 0.930 . S
C270 C273 1.388 . S
C270 C275 1.418 . S
C271 H266 0.930 . S
C271 C274 1.404 . S
C271 C275 1.353 . S
N272 Co237 2.145 . S
N272 C273 1.397 . S
N272 C274 1.334 . S
C273 H254 0.929 . S
C273 C270 1.388 . S
C273 N272 1.397 . S
C274 H255 0.929 . S
C274 C271 1.404 . S
C274 N272 1.334 . S
C275 H267 0.930 . S
C275 C270 1.418 . S
C275 C271 1.353 . S
C276 H246 0.930 . S
C276 N277 1.330 . S
C276 C278 1.446 . S
N277 Co236 2.151 . S
N277 C276 1.330 . S
N277 C281 1.418 . S
C278 H257 0.929 . S
C278 C276 1.446 . S
C278 C279 1.332 . S
C279 H259 0.931 . S
C279 C278 1.332 . S
C279 C280 1.267 . S
C280 H248 0.929 . S
C280 C279 1.267 . S
C280 C281 1.251 . S
C281 H251 0.929 . S
C281 N277 1.418 . S
C281 C280 1.251 . S
C282 H249 0.930 . S
C282 C284 1.406 . S
C282 C287 1.261 . S
C283 H250 0.930 . S
C283 N285 1.325 . S
C283 C286 1.357 . S
C284 H252 0.928 . S
C284 C282 1.406 . S
C284 N285 1.261 . S
N285 Co236 2.214 . S
N285 C283 1.325 . S
N285 C284 1.261 . S
C286 H256 0.931 . S
C286 C283 1.357 . S
C286 C287 1.312 . S
C287 H258 0.930 . S
C287 C282 1.261 . S
C287 C286 1.312 . S
C288 O260 1.214 . S
C288 O268 1.234 . S
C289 H261 0.929 . S
C289 C292 1.391 . S
C289 C294 1.391 . S
C290 H262 0.929 . S
C290 C291 1.390 . S
C290 N293 1.391 . S
C291 H263 0.930 . S
C291 C290 1.390 . S
C291 C292 1.392 . S
C292 H264 0.929 . S
C292 C289 1.391 . S
C292 C291 1.392 . S
N293 Co237 2.257 . S
N293 C290 1.391 . S
N293 C294 1.388 . S
C294 H265 0.930 . S
C294 C289 1.391 . S
C294 N293 1.388 . S
Co295 O297 2.143 . S
Co295 O303 2.074 . S
Co295 O306 2.093 . S
Co295 O319 2.097 . S
Co295 N336 2.151 . S
Co295 N344 2.214 . S
Co296 O297 2.160 . S
Co296 O302 2.058 . S
Co296 O312 2.057 . S
Co296 O327 2.037 . S
Co296 N331 2.145 . S
Co296 N352 2.257 . S
O297 Co295 2.143 . S
O297 Co296 2.160 . S
C298 O299 1.278 . S
C298 O306 1.224 . S
O299 C298 1.278 . S
C300 O301 1.245 . S
C300 O312 1.232 . S
O301 C300 1.245 . S
O302 Co296 2.058 . S
O302 C328 1.269 . S
O303 Co295 2.074 . S
O303 C328 1.257 . S
H304 C329 0.930 . S
H305 C335 0.930 . S
O306 Co295 2.093 . S
O306 C298 1.224 . S
H307 C339 0.929 . S
H308 C341 0.930 . S
H309 C342 0.930 . S
H310 C340 0.929 . S
H311 C343 0.928 . S
O312 Co296 2.057 . S
O312 C300 1.232 . S
H313 C332 0.929 . S
H314 C333 0.929 . S
H315 C345 0.931 . S
H316 C337 0.929 . S
H317 C346 0.930 . S
H318 C338 0.931 . S
O319 Co295 2.097 . S
O319 C347 1.214 . S
H320 C348 0.929 . S
H321 C349 0.929 . S
H322 C350 0.930 . S
H323 C351 0.929 . S
H324 C353 0.930 . S
H325 C330 0.930 . S
H326 C334 0.930 . S
O327 Co296 2.037 . S
O327 C347 1.234 . S
C328 O302 1.269 . S
C328 O303 1.257 . S
C329 H304 0.930 . S
C329 C332 1.388 . S
C329 C334 1.418 . S
C330 H325 0.930 . S
C330 C333 1.404 . S
C330 C334 1.353 . S
N331 Co296 2.145 . S
N331 C332 1.397 . S
N331 C333 1.334 . S
C332 H313 0.929 . S
C332 C329 1.388 . S
C332 N331 1.397 . S
C333 H314 0.929 . S
C333 C330 1.404 . S
C333 N331 1.334 . S
C334 H326 0.930 . S
C334 C329 1.418 . S
C334 C330 1.353 . S
C335 H305 0.930 . S
C335 N336 1.330 . S
C335 C337 1.446 . S
N336 Co295 2.151 . S
N336 C335 1.330 . S
N336 C340 1.418 . S
C337 H316 0.929 . S
C337 C335 1.446 . S
C337 C338 1.332 . S
C338 H318 0.931 . S
C338 C337 1.332 . S
C338 C339 1.267 . S
C339 H307 0.929 . S
C339 C338 1.267 . S
C339 C340 1.251 . S
C340 H310 0.929 . S
C340 N336 1.418 . S
C340 C339 1.251 . S
C341 H308 0.930 . S
C341 C343 1.406 . S
C341 C346 1.261 . S
C342 H309 0.930 . S
C342 N344 1.325 . S
C342 C345 1.357 . S
C343 H311 0.928 . S
C343 C341 1.406 . S
C343 N344 1.261 . S
N344 Co295 2.214 . S
N344 C342 1.325 . S
N344 C343 1.261 . S
C345 H315 0.931 . S
C345 C342 1.357 . S
C345 C346 1.312 . S
C346 H317 0.930 . S
C346 C341 1.261 . S
C346 C345 1.312 . S
C347 O319 1.214 . S
C347 O327 1.234 . S
C348 H320 0.929 . S
C348 C351 1.391 . S
C348 C353 1.391 . S
C349 H321 0.929 . S
C349 C350 1.390 . S
C349 N352 1.391 . S
C350 H322 0.930 . S
C350 C349 1.390 . S
C350 C351 1.392 . S
C351 H323 0.929 . S
C351 C348 1.391 . S
C351 C350 1.392 . S
N352 Co296 2.257 . S
N352 C349 1.391 . S
N352 C353 1.388 . S
C353 H324 0.930 . S
C353 C348 1.391 . S
C353 N352 1.388 . S
Co354 O356 2.143 . S
Co354 O362 2.074 . S
Co354 O365 2.093 . S
Co354 O378 2.097 . S
Co354 N395 2.151 . S
Co354 N403 2.214 . S
Co355 O356 2.160 . S
Co355 O361 2.058 . S
Co355 O371 2.057 . S
Co355 O386 2.037 . S
Co355 N390 2.145 . S
Co355 N411 2.257 . S
O356 Co354 2.143 . S
O356 Co355 2.160 . S
C357 O358 1.278 . S
C357 O365 1.224 . S
O358 C357 1.278 . S
C359 O360 1.245 . S
C359 O371 1.232 . S
O360 C359 1.245 . S
O361 Co355 2.058 . S
O361 C387 1.269 . S
O362 Co354 2.074 . S
O362 C387 1.257 . S
H363 C388 0.930 . S
H364 C394 0.930 . S
O365 Co354 2.093 . S
O365 C357 1.224 . S
H366 C398 0.929 . S
H367 C400 0.930 . S
H368 C401 0.930 . S
H369 C399 0.929 . S
H370 C402 0.928 . S
O371 Co355 2.057 . S
O371 C359 1.232 . S
H372 C391 0.929 . S
H373 C392 0.929 . S
H374 C404 0.931 . S
H375 C396 0.929 . S
H376 C405 0.930 . S
H377 C397 0.931 . S
O378 Co354 2.097 . S
O378 C406 1.214 . S
H379 C407 0.929 . S
H380 C408 0.929 . S
H381 C409 0.930 . S
H382 C410 0.929 . S
H383 C412 0.930 . S
H384 C389 0.930 . S
H385 C393 0.930 . S
O386 Co355 2.037 . S
O386 C406 1.234 . S
C387 O361 1.269 . S
C387 O362 1.257 . S
C388 H363 0.930 . S
C388 C391 1.388 . S
C388 C393 1.418 . S
C389 H384 0.930 . S
C389 C392 1.404 . S
C389 C393 1.353 . S
N390 Co355 2.145 . S
N390 C391 1.397 . S
N390 C392 1.334 . S
C391 H372 0.929 . S
C391 C388 1.388 . S
C391 N390 1.397 . S
C392 H373 0.929 . S
C392 C389 1.404 . S
C392 N390 1.334 . S
C393 H385 0.930 . S
C393 C388 1.418 . S
C393 C389 1.353 . S
C394 H364 0.930 . S
C394 N395 1.330 . S
C394 C396 1.446 . S
N395 Co354 2.151 . S
N395 C394 1.330 . S
N395 C399 1.418 . S
C396 H375 0.929 . S
C396 C394 1.446 . S
C396 C397 1.332 . S
C397 H377 0.931 . S
C397 C396 1.332 . S
C397 C398 1.267 . S
C398 H366 0.929 . S
C398 C397 1.267 . S
C398 C399 1.251 . S
C399 H369 0.929 . S
C399 N395 1.418 . S
C399 C398 1.251 . S
C400 H367 0.930 . S
C400 C402 1.406 . S
C400 C405 1.261 . S
C401 H368 0.930 . S
C401 N403 1.325 . S
C401 C404 1.357 . S
C402 H370 0.928 . S
C402 C400 1.406 . S
C402 N403 1.261 . S
N403 Co354 2.214 . S
N403 C401 1.325 . S
N403 C402 1.261 . S
C404 H374 0.931 . S
C404 C401 1.357 . S
C404 C405 1.312 . S
C405 H376 0.930 . S
C405 C400 1.261 . S
C405 C404 1.312 . S
C406 O378 1.214 . S
C406 O386 1.234 . S
C407 H379 0.929 . S
C407 C410 1.391 . S
C407 C412 1.391 . S
C408 H380 0.929 . S
C408 C409 1.390 . S
C408 N411 1.391 . S
C409 H381 0.930 . S
C409 C408 1.390 . S
C409 C410 1.392 . S
C410 H382 0.929 . S
C410 C407 1.391 . S
C410 C409 1.392 . S
N411 Co355 2.257 . S
N411 C408 1.391 . S
N411 C412 1.388 . S
C412 H383 0.930 . S
C412 C407 1.391 . S
C412 N411 1.388 . S
Co413 O415 2.143 . S
Co413 O421 2.074 . S
Co413 O424 2.093 . S
Co413 O437 2.097 . S
Co413 N454 2.151 . S
Co413 N462 2.214 . S
Co414 O415 2.160 . S
Co414 O420 2.058 . S
Co414 O430 2.057 . S
Co414 O445 2.037 . S
Co414 N449 2.145 . S
Co414 N470 2.257 . S
O415 Co413 2.143 . S
O415 Co414 2.160 . S
C416 O417 1.278 . S
C416 O424 1.224 . S
O417 C416 1.278 . S
C418 O419 1.245 . S
C418 O430 1.232 . S
O419 C418 1.245 . S
O420 Co414 2.058 . S
O420 C446 1.269 . S
O421 Co413 2.074 . S
O421 C446 1.257 . S
H422 C447 0.930 . S
H423 C453 0.930 . S
O424 Co413 2.093 . S
O424 C416 1.224 . S
H425 C457 0.929 . S
H426 C459 0.930 . S
H427 C460 0.930 . S
H428 C458 0.929 . S
H429 C461 0.928 . S
O430 Co414 2.057 . S
O430 C418 1.232 . S
H431 C450 0.929 . S
H432 C451 0.929 . S
H433 C463 0.931 . S
H434 C455 0.929 . S
H435 C464 0.930 . S
H436 C456 0.931 . S
O437 Co413 2.097 . S
O437 C465 1.214 . S
H438 C466 0.929 . S
H439 C467 0.929 . S
H440 C468 0.930 . S
H441 C469 0.929 . S
H442 C471 0.930 . S
H443 C448 0.930 . S
H444 C452 0.930 . S
O445 Co414 2.037 . S
O445 C465 1.234 . S
C446 O420 1.269 . S
C446 O421 1.257 . S
C447 H422 0.930 . S
C447 C450 1.388 . S
C447 C452 1.418 . S
C448 H443 0.930 . S
C448 C451 1.404 . S
C448 C452 1.353 . S
N449 Co414 2.145 . S
N449 C450 1.397 . S
N449 C451 1.334 . S
C450 H431 0.929 . S
C450 C447 1.388 . S
C450 N449 1.397 . S
C451 H432 0.929 . S
C451 C448 1.404 . S
C451 N449 1.334 . S
C452 H444 0.930 . S
C452 C447 1.418 . S
C452 C448 1.353 . S
C453 H423 0.930 . S
C453 N454 1.330 . S
C453 C455 1.446 . S
N454 Co413 2.151 . S
N454 C453 1.330 . S
N454 C458 1.418 . S
C455 H434 0.929 . S
C455 C453 1.446 . S
C455 C456 1.332 . S
C456 H436 0.931 . S
C456 C455 1.332 . S
C456 C457 1.267 . S
C457 H425 0.929 . S
C457 C456 1.267 . S
C457 C458 1.251 . S
C458 H428 0.929 . S
C458 N454 1.418 . S
C458 C457 1.251 . S
C459 H426 0.930 . S
C459 C461 1.406 . S
C459 C464 1.261 . S
C460 H427 0.930 . S
C460 N462 1.325 . S
C460 C463 1.357 . S
C461 H429 0.928 . S
C461 C459 1.406 . S
C461 N462 1.261 . S
N462 Co413 2.214 . S
N462 C460 1.325 . S
N462 C461 1.261 . S
C463 H433 0.931 . S
C463 C460 1.357 . S
C463 C464 1.312 . S
C464 H435 0.930 . S
C464 C459 1.261 . S
C464 C463 1.312 . S
C465 O437 1.214 . S
C465 O445 1.234 . S
C466 H438 0.929 . S
C466 C469 1.391 . S
C466 C471 1.391 . S
C467 H439 0.929 . S
C467 C468 1.390 . S
C467 N470 1.391 . S
C468 H440 0.930 . S
C468 C467 1.390 . S
C468 C469 1.392 . S
C469 H441 0.929 . S
C469 C466 1.391 . S
C469 C468 1.392 . S
N470 Co414 2.257 . S
N470 C467 1.391 . S
N470 C471 1.388 . S
C471 H442 0.930 . S
C471 C466 1.391 . S
C471 N470 1.388 . S
Co472 O474 2.143 . S
Co472 O480 2.074 . S
Co472 O483 2.093 . S
Co472 O496 2.097 . S
Co472 N513 2.151 . S
Co472 N521 2.214 . S
Co473 O474 2.160 . S
Co473 O479 2.058 . S
Co473 O489 2.057 . S
Co473 O504 2.037 . S
Co473 N508 2.145 . S
Co473 N529 2.257 . S
O474 Co472 2.143 . S
O474 Co473 2.160 . S
C475 O476 1.278 . S
C475 O483 1.224 . S
O476 C475 1.278 . S
C477 O478 1.245 . S
C477 O489 1.232 . S
O478 C477 1.245 . S
O479 Co473 2.058 . S
O479 C505 1.269 . S
O480 Co472 2.074 . S
O480 C505 1.257 . S
H481 C506 0.930 . S
H482 C512 0.930 . S
O483 Co472 2.093 . S
O483 C475 1.224 . S
H484 C516 0.929 . S
H485 C518 0.930 . S
H486 C519 0.930 . S
H487 C517 0.929 . S
H488 C520 0.928 . S
O489 Co473 2.057 . S
O489 C477 1.232 . S
H490 C509 0.929 . S
H491 C510 0.929 . S
H492 C522 0.931 . S
H493 C514 0.929 . S
H494 C523 0.930 . S
H495 C515 0.931 . S
O496 Co472 2.097 . S
O496 C524 1.214 . S
H497 C525 0.929 . S
H498 C526 0.929 . S
H499 C527 0.930 . S
H500 C528 0.929 . S
H501 C530 0.930 . S
H502 C507 0.930 . S
H503 C511 0.930 . S
O504 Co473 2.037 . S
O504 C524 1.234 . S
C505 O479 1.269 . S
C505 O480 1.257 . S
C506 H481 0.930 . S
C506 C509 1.388 . S
C506 C511 1.418 . S
C507 H502 0.930 . S
C507 C510 1.404 . S
C507 C511 1.353 . S
N508 Co473 2.145 . S
N508 C509 1.397 . S
N508 C510 1.334 . S
C509 H490 0.929 . S
C509 C506 1.388 . S
C509 N508 1.397 . S
C510 H491 0.929 . S
C510 C507 1.404 . S
C510 N508 1.334 . S
C511 H503 0.930 . S
C511 C506 1.418 . S
C511 C507 1.353 . S
C512 H482 0.930 . S
C512 N513 1.330 . S
C512 C514 1.446 . S
N513 Co472 2.151 . S
N513 C512 1.330 . S
N513 C517 1.418 . S
C514 H493 0.929 . S
C514 C512 1.446 . S
C514 C515 1.332 . S
C515 H495 0.931 . S
C515 C514 1.332 . S
C515 C516 1.267 . S
C516 H484 0.929 . S
C516 C515 1.267 . S
C516 C517 1.251 . S
C517 H487 0.929 . S
C517 N513 1.418 . S
C517 C516 1.251 . S
C518 H485 0.930 . S
C518 C520 1.406 . S
C518 C523 1.261 . S
C519 H486 0.930 . S
C519 N521 1.325 . S
C519 C522 1.357 . S
C520 H488 0.928 . S
C520 C518 1.406 . S
C520 N521 1.261 . S
N521 Co472 2.214 . S
N521 C519 1.325 . S
N521 C520 1.261 . S
C522 H492 0.931 . S
C522 C519 1.357 . S
C522 C523 1.312 . S
C523 H494 0.930 . S
C523 C518 1.261 . S
C523 C522 1.312 . S
C524 O496 1.214 . S
C524 O504 1.234 . S
C525 H497 0.929 . S
C525 C528 1.391 . S
C525 C530 1.391 . S
C526 H498 0.929 . S
C526 C527 1.390 . S
C526 N529 1.391 . S
C527 H499 0.930 . S
C527 C526 1.390 . S
C527 C528 1.392 . S
C528 H500 0.929 . S
C528 C525 1.391 . S
C528 C527 1.392 . S
N529 Co473 2.257 . S
N529 C526 1.391 . S
N529 C530 1.388 . S
C530 H501 0.930 . S
C530 C525 1.391 . S
C530 N529 1.388 . S
Co531 O533 2.143 . S
Co531 O539 2.074 . S
Co531 O542 2.093 . S
Co531 O555 2.097 . S
Co531 N572 2.151 . S
Co531 N580 2.214 . S
Co532 O533 2.160 . S
Co532 O538 2.058 . S
Co532 O548 2.057 . S
Co532 O563 2.037 . S
Co532 N567 2.145 . S
Co532 N588 2.257 . S
O533 Co531 2.143 . S
O533 Co532 2.160 . S
C534 O535 1.278 . S
C534 O542 1.224 . S
O535 C534 1.278 . S
C536 O537 1.245 . S
C536 O548 1.232 . S
O537 C536 1.245 . S
O538 Co532 2.058 . S
O538 C564 1.269 . S
O539 Co531 2.074 . S
O539 C564 1.257 . S
H540 C565 0.930 . S
H541 C571 0.930 . S
O542 Co531 2.093 . S
O542 C534 1.224 . S
H543 C575 0.929 . S
H544 C577 0.930 . S
H545 C578 0.930 . S
H546 C576 0.929 . S
H547 C579 0.928 . S
O548 Co532 2.057 . S
O548 C536 1.232 . S
H549 C568 0.929 . S
H550 C569 0.929 . S
H551 C581 0.931 . S
H552 C573 0.929 . S
H553 C582 0.930 . S
H554 C574 0.931 . S
O555 Co531 2.097 . S
O555 C583 1.214 . S
H556 C584 0.929 . S
H557 C585 0.929 . S
H558 C586 0.930 . S
H559 C587 0.929 . S
H560 C589 0.930 . S
H561 C566 0.930 . S
H562 C570 0.930 . S
O563 Co532 2.037 . S
O563 C583 1.234 . S
C564 O538 1.269 . S
C564 O539 1.257 . S
C565 H540 0.930 . S
C565 C568 1.388 . S
C565 C570 1.418 . S
C566 H561 0.930 . S
C566 C569 1.404 . S
C566 C570 1.353 . S
N567 Co532 2.145 . S
N567 C568 1.397 . S
N567 C569 1.334 . S
C568 H549 0.929 . S
C568 C565 1.388 . S
C568 N567 1.397 . S
C569 H550 0.929 . S
C569 C566 1.404 . S
C569 N567 1.334 . S
C570 H562 0.930 . S
C570 C565 1.418 . S
C570 C566 1.353 . S
C571 H541 0.930 . S
C571 N572 1.330 . S
C571 C573 1.446 . S
N572 Co531 2.151 . S
N572 C571 1.330 . S
N572 C576 1.418 . S
C573 H552 0.929 . S
C573 C571 1.446 . S
C573 C574 1.332 . S
C574 H554 0.931 . S
C574 C573 1.332 . S
C574 C575 1.267 . S
C575 H543 0.929 . S
C575 C574 1.267 . S
C575 C576 1.251 . S
C576 H546 0.929 . S
C576 N572 1.418 . S
C576 C575 1.251 . S
C577 H544 0.930 . S
C577 C579 1.406 . S
C577 C582 1.261 . S
C578 H545 0.930 . S
C578 N580 1.325 . S
C578 C581 1.357 . S
C579 H547 0.928 . S
C579 C577 1.406 . S
C579 N580 1.261 . S
N580 Co531 2.214 . S
N580 C578 1.325 . S
N580 C579 1.261 . S
C581 H551 0.931 . S
C581 C578 1.357 . S
C581 C582 1.312 . S
C582 H553 0.930 . S
C582 C577 1.261 . S
C582 C581 1.312 . S
C583 O555 1.214 . S
C583 O563 1.234 . S
C584 H556 0.929 . S
C584 C587 1.391 . S
C584 C589 1.391 . S
C585 H557 0.929 . S
C585 C586 1.390 . S
C585 N588 1.391 . S
C586 H558 0.930 . S
C586 C585 1.390 . S
C586 C587 1.392 . S
C587 H559 0.929 . S
C587 C584 1.391 . S
C587 C586 1.392 . S
N588 Co532 2.257 . S
N588 C585 1.391 . S
N588 C589 1.388 . S
C589 H560 0.930 . S
C589 C584 1.391 . S
C589 N588 1.388 . S
Co590 O592 2.143 . S
Co590 O598 2.074 . S
Co590 O601 2.093 . S
Co590 O614 2.097 . S
Co590 N631 2.151 . S
Co590 N639 2.214 . S
Co591 O592 2.160 . S
Co591 O597 2.058 . S
Co591 O607 2.057 . S
Co591 O622 2.037 . S
Co591 N626 2.145 . S
Co591 N647 2.257 . S
O592 Co590 2.143 . S
O592 Co591 2.160 . S
C593 O594 1.278 . S
C593 O601 1.224 . S
O594 C593 1.278 . S
C595 O596 1.245 . S
C595 O607 1.232 . S
O596 C595 1.245 . S
O597 Co591 2.058 . S
O597 C623 1.269 . S
O598 Co590 2.074 . S
O598 C623 1.257 . S
H599 C624 0.930 . S
H600 C630 0.930 . S
O601 Co590 2.093 . S
O601 C593 1.224 . S
H602 C634 0.929 . S
H603 C636 0.930 . S
H604 C637 0.930 . S
H605 C635 0.929 . S
H606 C638 0.928 . S
O607 Co591 2.057 . S
O607 C595 1.232 . S
H608 C627 0.929 . S
H609 C628 0.929 . S
H610 C640 0.931 . S
H611 C632 0.929 . S
H612 C641 0.930 . S
H613 C633 0.931 . S
O614 Co590 2.097 . S
O614 C642 1.214 . S
H615 C643 0.929 . S
H616 C644 0.929 . S
H617 C645 0.930 . S
H618 C646 0.929 . S
H619 C648 0.930 . S
H620 C625 0.930 . S
H621 C629 0.930 . S
O622 Co591 2.037 . S
O622 C642 1.234 . S
C623 O597 1.269 . S
C623 O598 1.257 . S
C624 H599 0.930 . S
C624 C627 1.388 . S
C624 C629 1.418 . S
C625 H620 0.930 . S
C625 C628 1.404 . S
C625 C629 1.353 . S
N626 Co591 2.145 . S
N626 C627 1.397 . S
N626 C628 1.334 . S
C627 H608 0.929 . S
C627 C624 1.388 . S
C627 N626 1.397 . S
C628 H609 0.929 . S
C628 C625 1.404 . S
C628 N626 1.334 . S
C629 H621 0.930 . S
C629 C624 1.418 . S
C629 C625 1.353 . S
C630 H600 0.930 . S
C630 N631 1.330 . S
C630 C632 1.446 . S
N631 Co590 2.151 . S
N631 C630 1.330 . S
N631 C635 1.418 . S
C632 H611 0.929 . S
C632 C630 1.446 . S
C632 C633 1.332 . S
C633 H613 0.931 . S
C633 C632 1.332 . S
C633 C634 1.267 . S
C634 H602 0.929 . S
C634 C633 1.267 . S
C634 C635 1.251 . S
C635 H605 0.929 . S
C635 N631 1.418 . S
C635 C634 1.251 . S
C636 H603 0.930 . S
C636 C638 1.406 . S
C636 C641 1.261 . S
C637 H604 0.930 . S
C637 N639 1.325 . S
C637 C640 1.357 . S
C638 H606 0.928 . S
C638 C636 1.406 . S
C638 N639 1.261 . S
N639 Co590 2.214 . S
N639 C637 1.325 . S
N639 C638 1.261 . S
C640 H610 0.931 . S
C640 C637 1.357 . S
C640 C641 1.312 . S
C641 H612 0.930 . S
C641 C636 1.261 . S
C641 C640 1.312 . S
C642 O614 1.214 . S
C642 O622 1.234 . S
C643 H615 0.929 . S
C643 C646 1.391 . S
C643 C648 1.391 . S
C644 H616 0.929 . S
C644 C645 1.390 . S
C644 N647 1.391 . S
C645 H617 0.930 . S
C645 C644 1.390 . S
C645 C646 1.392 . S
C646 H618 0.929 . S
C646 C643 1.391 . S
C646 C645 1.392 . S
N647 Co591 2.257 . S
N647 C644 1.391 . S
N647 C648 1.388 . S
C648 H619 0.930 . S
C648 C643 1.391 . S
C648 N647 1.388 . S
Co649 O651 2.143 . S
Co649 O657 2.074 . S
Co649 O660 2.093 . S
Co649 O673 2.097 . S
Co649 N690 2.151 . S
Co649 N698 2.214 . S
Co650 O651 2.160 . S
Co650 O656 2.058 . S
Co650 O666 2.057 . S
Co650 O681 2.037 . S
Co650 N685 2.145 . S
Co650 N706 2.257 . S
O651 Co649 2.143 . S
O651 Co650 2.160 . S
C652 O653 1.278 . S
C652 O660 1.224 . S
O653 C652 1.278 . S
C654 O655 1.245 . S
C654 O666 1.232 . S
O655 C654 1.245 . S
O656 Co650 2.058 . S
O656 C682 1.269 . S
O657 Co649 2.074 . S
O657 C682 1.257 . S
H658 C683 0.930 . S
H659 C689 0.930 . S
O660 Co649 2.093 . S
O660 C652 1.224 . S
H661 C693 0.929 . S
H662 C695 0.930 . S
H663 C696 0.930 . S
H664 C694 0.929 . S
H665 C697 0.928 . S
O666 Co650 2.057 . S
O666 C654 1.232 . S
H667 C686 0.929 . S
H668 C687 0.929 . S
H669 C699 0.931 . S
H670 C691 0.929 . S
H671 C700 0.930 . S
H672 C692 0.931 . S
O673 Co649 2.097 . S
O673 C701 1.214 . S
H674 C702 0.929 . S
H675 C703 0.929 . S
H676 C704 0.930 . S
H677 C705 0.929 . S
H678 C707 0.930 . S
H679 C684 0.930 . S
H680 C688 0.930 . S
O681 Co650 2.037 . S
O681 C701 1.234 . S
C682 O656 1.269 . S
C682 O657 1.257 . S
C683 H658 0.930 . S
C683 C686 1.388 . S
C683 C688 1.418 . S
C684 H679 0.930 . S
C684 C687 1.404 . S
C684 C688 1.353 . S
N685 Co650 2.145 . S
N685 C686 1.397 . S
N685 C687 1.334 . S
C686 H667 0.929 . S
C686 C683 1.388 . S
C686 N685 1.397 . S
C687 H668 0.929 . S
C687 C684 1.404 . S
C687 N685 1.334 . S
C688 H680 0.930 . S
C688 C683 1.418 . S
C688 C684 1.353 . S
C689 H659 0.930 . S
C689 N690 1.330 . S
C689 C691 1.446 . S
N690 Co649 2.151 . S
N690 C689 1.330 . S
N690 C694 1.418 . S
C691 H670 0.929 . S
C691 C689 1.446 . S
C691 C692 1.332 . S
C692 H672 0.931 . S
C692 C691 1.332 . S
C692 C693 1.267 . S
C693 H661 0.929 . S
C693 C692 1.267 . S
C693 C694 1.251 . S
C694 H664 0.929 . S
C694 N690 1.418 . S
C694 C693 1.251 . S
C695 H662 0.930 . S
C695 C697 1.406 . S
C695 C700 1.261 . S
C696 H663 0.930 . S
C696 N698 1.325 . S
C696 C699 1.357 . S
C697 H665 0.928 . S
C697 C695 1.406 . S
C697 N698 1.261 . S
N698 Co649 2.214 . S
N698 C696 1.325 . S
N698 C697 1.261 . S
C699 H669 0.931 . S
C699 C696 1.357 . S
C699 C700 1.312 . S
C700 H671 0.930 . S
C700 C695 1.261 . S
C700 C699 1.312 . S
C701 O673 1.214 . S
C701 O681 1.234 . S
C702 H674 0.929 . S
C702 C705 1.391 . S
C702 C707 1.391 . S
C703 H675 0.929 . S
C703 C704 1.390 . S
C703 N706 1.391 . S
C704 H676 0.930 . S
C704 C703 1.390 . S
C704 C705 1.392 . S
C705 H677 0.929 . S
C705 C702 1.391 . S
C705 C704 1.392 . S
N706 Co650 2.257 . S
N706 C703 1.391 . S
N706 C707 1.388 . S
C707 H678 0.930 . S
C707 C702 1.391 . S
C707 N706 1.388 . S
Co708 O710 2.143 . S
Co708 O716 2.074 . S
Co708 O719 2.093 . S
Co708 O732 2.097 . S
Co708 N749 2.151 . S
Co708 N757 2.214 . S
Co709 O710 2.160 . S
Co709 O715 2.058 . S
Co709 O725 2.057 . S
Co709 O740 2.037 . S
Co709 N744 2.145 . S
Co709 N765 2.257 . S
O710 Co708 2.143 . S
O710 Co709 2.160 . S
C711 O712 1.278 . S
C711 O719 1.224 . S
O712 C711 1.278 . S
C713 O714 1.245 . S
C713 O725 1.232 . S
O714 C713 1.245 . S
O715 Co709 2.058 . S
O715 C741 1.269 . S
O716 Co708 2.074 . S
O716 C741 1.257 . S
H717 C742 0.930 . S
H718 C748 0.930 . S
O719 Co708 2.093 . S
O719 C711 1.224 . S
H720 C752 0.929 . S
H721 C754 0.930 . S
H722 C755 0.930 . S
H723 C753 0.929 . S
H724 C756 0.928 . S
O725 Co709 2.057 . S
O725 C713 1.232 . S
H726 C745 0.929 . S
H727 C746 0.929 . S
H728 C758 0.931 . S
H729 C750 0.929 . S
H730 C759 0.930 . S
H731 C751 0.931 . S
O732 Co708 2.097 . S
O732 C760 1.214 . S
H733 C761 0.929 . S
H734 C762 0.929 . S
H735 C763 0.930 . S
H736 C764 0.929 . S
H737 C766 0.930 . S
H738 C743 0.930 . S
H739 C747 0.930 . S
O740 Co709 2.037 . S
O740 C760 1.234 . S
C741 O715 1.269 . S
C741 O716 1.257 . S
C742 H717 0.930 . S
C742 C745 1.388 . S
C742 C747 1.418 . S
C743 H738 0.930 . S
C743 C746 1.404 . S
C743 C747 1.353 . S
N744 Co709 2.145 . S
N744 C745 1.397 . S
N744 C746 1.334 . S
C745 H726 0.929 . S
C745 C742 1.388 . S
C745 N744 1.397 . S
C746 H727 0.929 . S
C746 C743 1.404 . S
C746 N744 1.334 . S
C747 H739 0.930 . S
C747 C742 1.418 . S
C747 C743 1.353 . S
C748 H718 0.930 . S
C748 N749 1.330 . S
C748 C750 1.446 . S
N749 Co708 2.151 . S
N749 C748 1.330 . S
N749 C753 1.418 . S
C750 H729 0.929 . S
C750 C748 1.446 . S
C750 C751 1.332 . S
C751 H731 0.931 . S
C751 C750 1.332 . S
C751 C752 1.267 . S
C752 H720 0.929 . S
C752 C751 1.267 . S
C752 C753 1.251 . S
C753 H723 0.929 . S
C753 N749 1.418 . S
C753 C752 1.251 . S
C754 H721 0.930 . S
C754 C756 1.406 . S
C754 C759 1.261 . S
C755 H722 0.930 . S
C755 N757 1.325 . S
C755 C758 1.357 . S
C756 H724 0.928 . S
C756 C754 1.406 . S
C756 N757 1.261 . S
N757 Co708 2.214 . S
N757 C755 1.325 . S
N757 C756 1.261 . S
C758 H728 0.931 . S
C758 C755 1.357 . S
C758 C759 1.312 . S
C759 H730 0.930 . S
C759 C754 1.261 . S
C759 C758 1.312 . S
C760 O732 1.214 . S
C760 O740 1.234 . S
C761 H733 0.929 . S
C761 C764 1.391 . S
C761 C766 1.391 . S
C762 H734 0.929 . S
C762 C763 1.390 . S
C762 N765 1.391 . S
C763 H735 0.930 . S
C763 C762 1.390 . S
C763 C764 1.392 . S
C764 H736 0.929 . S
C764 C761 1.391 . S
C764 C763 1.392 . S
N765 Co709 2.257 . S
N765 C762 1.391 . S
N765 C766 1.388 . S
C766 H737 0.930 . S
C766 C761 1.391 . S
C766 N765 1.388 . S
Co767 O769 2.143 . S
Co767 O775 2.074 . S
Co767 O778 2.093 . S
Co767 O791 2.097 . S
Co767 N808 2.151 . S
Co767 N816 2.214 . S
Co768 O769 2.160 . S
Co768 O774 2.058 . S
Co768 O784 2.057 . S
Co768 O799 2.037 . S
Co768 N803 2.145 . S
Co768 N824 2.257 . S
O769 Co767 2.143 . S
O769 Co768 2.160 . S
C770 O771 1.278 . S
C770 O778 1.224 . S
O771 C770 1.278 . S
C772 O773 1.245 . S
C772 O784 1.232 . S
O773 C772 1.245 . S
O774 Co768 2.058 . S
O774 C800 1.269 . S
O775 Co767 2.074 . S
O775 C800 1.257 . S
H776 C801 0.930 . S
H777 C807 0.930 . S
O778 Co767 2.093 . S
O778 C770 1.224 . S
H779 C811 0.929 . S
H780 C813 0.930 . S
H781 C814 0.930 . S
H782 C812 0.929 . S
H783 C815 0.928 . S
O784 Co768 2.057 . S
O784 C772 1.232 . S
H785 C804 0.929 . S
H786 C805 0.929 . S
H787 C817 0.931 . S
H788 C809 0.929 . S
H789 C818 0.930 . S
H790 C810 0.931 . S
O791 Co767 2.097 . S
O791 C819 1.214 . S
H792 C820 0.929 . S
H793 C821 0.929 . S
H794 C822 0.930 . S
H795 C823 0.929 . S
H796 C825 0.930 . S
H797 C802 0.930 . S
H798 C806 0.930 . S
O799 Co768 2.037 . S
O799 C819 1.234 . S
C800 O774 1.269 . S
C800 O775 1.257 . S
C801 H776 0.930 . S
C801 C804 1.388 . S
C801 C806 1.418 . S
C802 H797 0.930 . S
C802 C805 1.404 . S
C802 C806 1.353 . S
N803 Co768 2.145 . S
N803 C804 1.397 . S
N803 C805 1.334 . S
C804 H785 0.929 . S
C804 C801 1.388 . S
C804 N803 1.397 . S
C805 H786 0.929 . S
C805 C802 1.404 . S
C805 N803 1.334 . S
C806 H798 0.930 . S
C806 C801 1.418 . S
C806 C802 1.353 . S
C807 H777 0.930 . S
C807 N808 1.330 . S
C807 C809 1.446 . S
N808 Co767 2.151 . S
N808 C807 1.330 . S
N808 C812 1.418 . S
C809 H788 0.929 . S
C809 C807 1.446 . S
C809 C810 1.332 . S
C810 H790 0.931 . S
C810 C809 1.332 . S
C810 C811 1.267 . S
C811 H779 0.929 . S
C811 C810 1.267 . S
C811 C812 1.251 . S
C812 H782 0.929 . S
C812 N808 1.418 . S
C812 C811 1.251 . S
C813 H780 0.930 . S
C813 C815 1.406 . S
C813 C818 1.261 . S
C814 H781 0.930 . S
C814 N816 1.325 . S
C814 C817 1.357 . S
C815 H783 0.928 . S
C815 C813 1.406 . S
C815 N816 1.261 . S
N816 Co767 2.214 . S
N816 C814 1.325 . S
N816 C815 1.261 . S
C817 H787 0.931 . S
C817 C814 1.357 . S
C817 C818 1.312 . S
C818 H789 0.930 . S
C818 C813 1.261 . S
C818 C817 1.312 . S
C819 O791 1.214 . S
C819 O799 1.234 . S
C820 H792 0.929 . S
C820 C823 1.391 . S
C820 C825 1.391 . S
C821 H793 0.929 . S
C821 C822 1.390 . S
C821 N824 1.391 . S
C822 H794 0.930 . S
C822 C821 1.390 . S
C822 C823 1.392 . S
C823 H795 0.929 . S
C823 C820 1.391 . S
C823 C822 1.392 . S
N824 Co768 2.257 . S
N824 C821 1.391 . S
N824 C825 1.388 . S
C825 H796 0.930 . S
C825 C820 1.391 . S
C825 N824 1.388 . S
Co826 O828 2.143 . S
Co826 O834 2.074 . S
Co826 O837 2.093 . S
Co826 O850 2.097 . S
Co826 N867 2.151 . S
Co826 N875 2.214 . S
Co827 O828 2.160 . S
Co827 O833 2.058 . S
Co827 O843 2.057 . S
Co827 O858 2.037 . S
Co827 N862 2.145 . S
Co827 N883 2.257 . S
O828 Co826 2.143 . S
O828 Co827 2.160 . S
C829 O830 1.278 . S
C829 O837 1.224 . S
O830 C829 1.278 . S
C831 O832 1.245 . S
C831 O843 1.232 . S
O832 C831 1.245 . S
O833 Co827 2.058 . S
O833 C859 1.269 . S
O834 Co826 2.074 . S
O834 C859 1.257 . S
H835 C860 0.930 . S
H836 C866 0.930 . S
O837 Co826 2.093 . S
O837 C829 1.224 . S
H838 C870 0.929 . S
H839 C872 0.930 . S
H840 C873 0.930 . S
H841 C871 0.929 . S
H842 C874 0.928 . S
O843 Co827 2.057 . S
O843 C831 1.232 . S
H844 C863 0.929 . S
H845 C864 0.929 . S
H846 C876 0.931 . S
H847 C868 0.929 . S
H848 C877 0.930 . S
H849 C869 0.931 . S
O850 Co826 2.097 . S
O850 C878 1.214 . S
H851 C879 0.929 . S
H852 C880 0.929 . S
H853 C881 0.930 . S
H854 C882 0.929 . S
H855 C884 0.930 . S
H856 C861 0.930 . S
H857 C865 0.930 . S
O858 Co827 2.037 . S
O858 C878 1.234 . S
C859 O833 1.269 . S
C859 O834 1.257 . S
C860 H835 0.930 . S
C860 C863 1.388 . S
C860 C865 1.418 . S
C861 H856 0.930 . S
C861 C864 1.404 . S
C861 C865 1.353 . S
N862 Co827 2.145 . S
N862 C863 1.397 . S
N862 C864 1.334 . S
C863 H844 0.929 . S
C863 C860 1.388 . S
C863 N862 1.397 . S
C864 H845 0.929 . S
C864 C861 1.404 . S
C864 N862 1.334 . S
C865 H857 0.930 . S
C865 C860 1.418 . S
C865 C861 1.353 . S
C866 H836 0.930 . S
C866 N867 1.330 . S
C866 C868 1.446 . S
N867 Co826 2.151 . S
N867 C866 1.330 . S
N867 C871 1.418 . S
C868 H847 0.929 . S
C868 C866 1.446 . S
C868 C869 1.332 . S
C869 H849 0.931 . S
C869 C868 1.332 . S
C869 C870 1.267 . S
C870 H838 0.929 . S
C870 C869 1.267 . S
C870 C871 1.251 . S
C871 H841 0.929 . S
C871 N867 1.418 . S
C871 C870 1.251 . S
C872 H839 0.930 . S
C872 C874 1.406 . S
C872 C877 1.261 . S
C873 H840 0.930 . S
C873 N875 1.325 . S
C873 C876 1.357 . S
C874 H842 0.928 . S
C874 C872 1.406 . S
C874 N875 1.261 . S
N875 Co826 2.214 . S
N875 C873 1.325 . S
N875 C874 1.261 . S
C876 H846 0.931 . S
C876 C873 1.357 . S
C876 C877 1.312 . S
C877 H848 0.930 . S
C877 C872 1.261 . S
C877 C876 1.312 . S
C878 O850 1.214 . S
C878 O858 1.234 . S
C879 H851 0.929 . S
C879 C882 1.391 . S
C879 C884 1.391 . S
C880 H852 0.929 . S
C880 C881 1.390 . S
C880 N883 1.391 . S
C881 H853 0.930 . S
C881 C880 1.390 . S
C881 C882 1.392 . S
C882 H854 0.929 . S
C882 C879 1.391 . S
C882 C881 1.392 . S
N883 Co827 2.257 . S
N883 C880 1.391 . S
N883 C884 1.388 . S
C884 H855 0.930 . S
C884 C879 1.391 . S
C884 N883 1.388 . S
Co885 O887 2.143 . S
Co885 O893 2.074 . S
Co885 O896 2.093 . S
Co885 O909 2.097 . S
Co885 N926 2.151 . S
Co885 N934 2.214 . S
Co886 O887 2.160 . S
Co886 O892 2.058 . S
Co886 O902 2.057 . S
Co886 O917 2.037 . S
Co886 N921 2.145 . S
Co886 N942 2.257 . S
O887 Co885 2.143 . S
O887 Co886 2.160 . S
C888 O889 1.278 . S
C888 O896 1.224 . S
O889 C888 1.278 . S
C890 O891 1.245 . S
C890 O902 1.232 . S
O891 C890 1.245 . S
O892 Co886 2.058 . S
O892 C918 1.269 . S
O893 Co885 2.074 . S
O893 C918 1.257 . S
H894 C919 0.930 . S
H895 C925 0.930 . S
O896 Co885 2.093 . S
O896 C888 1.224 . S
H897 C929 0.929 . S
H898 C931 0.930 . S
H899 C932 0.930 . S
H900 C930 0.929 . S
H901 C933 0.928 . S
O902 Co886 2.057 . S
O902 C890 1.232 . S
H903 C922 0.929 . S
H904 C923 0.929 . S
H905 C935 0.931 . S
H906 C927 0.929 . S
H907 C936 0.930 . S
H908 C928 0.931 . S
O909 Co885 2.097 . S
O909 C937 1.214 . S
H910 C938 0.929 . S
H911 C939 0.929 . S
H912 C940 0.930 . S
H913 C941 0.929 . S
H914 C943 0.930 . S
H915 C920 0.930 . S
H916 C924 0.930 . S
O917 Co886 2.037 . S
O917 C937 1.234 . S
C918 O892 1.269 . S
C918 O893 1.257 . S
C919 H894 0.930 . S
C919 C922 1.388 . S
C919 C924 1.418 . S
C920 H915 0.930 . S
C920 C923 1.404 . S
C920 C924 1.353 . S
N921 Co886 2.145 . S
N921 C922 1.397 . S
N921 C923 1.334 . S
C922 H903 0.929 . S
C922 C919 1.388 . S
C922 N921 1.397 . S
C923 H904 0.929 . S
C923 C920 1.404 . S
C923 N921 1.334 . S
C924 H916 0.930 . S
C924 C919 1.418 . S
C924 C920 1.353 . S
C925 H895 0.930 . S
C925 N926 1.330 . S
C925 C927 1.446 . S
N926 Co885 2.151 . S
N926 C925 1.330 . S
N926 C930 1.418 . S
C927 H906 0.929 . S
C927 C925 1.446 . S
C927 C928 1.332 . S
C928 H908 0.931 . S
C928 C927 1.332 . S
C928 C929 1.267 . S
C929 H897 0.929 . S
C929 C928 1.267 . S
C929 C930 1.251 . S
C930 H900 0.929 . S
C930 N926 1.418 . S
C930 C929 1.251 . S
C931 H898 0.930 . S
C931 C933 1.406 . S
C931 C936 1.261 . S
C932 H899 0.930 . S
C932 N934 1.325 . S
C932 C935 1.357 . S
C933 H901 0.928 . S
C933 C931 1.406 . S
C933 N934 1.261 . S
N934 Co885 2.214 . S
N934 C932 1.325 . S
N934 C933 1.261 . S
C935 H905 0.931 . S
C935 C932 1.357 . S
C935 C936 1.312 . S
C936 H907 0.930 . S
C936 C931 1.261 . S
C936 C935 1.312 . S
C937 O909 1.214 . S
C937 O917 1.234 . S
C938 H910 0.929 . S
C938 C941 1.391 . S
C938 C943 1.391 . S
C939 H911 0.929 . S
C939 C940 1.390 . S
C939 N942 1.391 . S
C940 H912 0.930 . S
C940 C939 1.390 . S
C940 C941 1.392 . S
C941 H913 0.929 . S
C941 C938 1.391 . S
C941 C940 1.392 . S
N942 Co886 2.257 . S
N942 C939 1.391 . S
N942 C943 1.388 . S
C943 H914 0.930 . S
C943 C938 1.391 . S
C943 N942 1.388 . S
Co944 O946 2.143 . S
Co944 O952 2.074 . S
Co944 O955 2.093 . S
Co944 O968 2.097 . S
Co944 N985 2.151 . S
Co944 N993 2.214 . S
Co945 O946 2.160 . S
Co945 O951 2.058 . S
Co945 O961 2.057 . S
Co945 O976 2.037 . S
Co945 N980 2.145 . S
Co945 N1001 2.257 . S
O946 Co944 2.143 . S
O946 Co945 2.160 . S
C947 O948 1.278 . S
C947 O955 1.224 . S
O948 C947 1.278 . S
C949 O950 1.245 . S
C949 O961 1.232 . S
O950 C949 1.245 . S
O951 Co945 2.058 . S
O951 C977 1.269 . S
O952 Co944 2.074 . S
O952 C977 1.257 . S
H953 C978 0.930 . S
H954 C984 0.930 . S
O955 Co944 2.093 . S
O955 C947 1.224 . S
H956 C988 0.929 . S
H957 C990 0.930 . S
H958 C991 0.930 . S
H959 C989 0.929 . S
H960 C992 0.928 . S
O961 Co945 2.057 . S
O961 C949 1.232 . S
H962 C981 0.929 . S
H963 C982 0.929 . S
H964 C994 0.931 . S
H965 C986 0.929 . S
H966 C995 0.930 . S
H967 C987 0.931 . S
O968 Co944 2.097 . S
O968 C996 1.214 . S
H969 C997 0.929 . S
H970 C998 0.929 . S
H971 C999 0.930 . S
H972 C1000 0.929 . S
H973 C1002 0.930 . S
H974 C979 0.930 . S
H975 C983 0.930 . S
O976 Co945 2.037 . S
O976 C996 1.234 . S
C977 O951 1.269 . S
C977 O952 1.257 . S
C978 H953 0.930 . S
C978 C981 1.388 . S
C978 C983 1.418 . S
C979 H974 0.930 . S
C979 C982 1.404 . S
C979 C983 1.353 . S
N980 Co945 2.145 . S
N980 C981 1.397 . S
N980 C982 1.334 . S
C981 H962 0.929 . S
C981 C978 1.388 . S
C981 N980 1.397 . S
C982 H963 0.929 . S
C982 C979 1.404 . S
C982 N980 1.334 . S
C983 H975 0.930 . S
C983 C978 1.418 . S
C983 C979 1.353 . S
C984 H954 0.930 . S
C984 N985 1.330 . S
C984 C986 1.446 . S
N985 Co944 2.151 . S
N985 C984 1.330 . S
N985 C989 1.418 . S
C986 H965 0.929 . S
C986 C984 1.446 . S
C986 C987 1.332 . S
C987 H967 0.931 . S
C987 C986 1.332 . S
C987 C988 1.267 . S
C988 H956 0.929 . S
C988 C987 1.267 . S
C988 C989 1.251 . S
C989 H959 0.929 . S
C989 N985 1.418 . S
C989 C988 1.251 . S
C990 H957 0.930 . S
C990 C992 1.406 . S
C990 C995 1.261 . S
C991 H958 0.930 . S
C991 N993 1.325 . S
C991 C994 1.357 . S
C992 H960 0.928 . S
C992 C990 1.406 . S
C992 N993 1.261 . S
N993 Co944 2.214 . S
N993 C991 1.325 . S
N993 C992 1.261 . S
C994 H964 0.931 . S
C994 C991 1.357 . S
C994 C995 1.312 . S
C995 H966 0.930 . S
C995 C990 1.261 . S
C995 C994 1.312 . S
C996 O968 1.214 . S
C996 O976 1.234 . S
C997 H969 0.929 . S
C997 C1000 1.391 . S
C997 C1002 1.391 . S
C998 H970 0.929 . S
C998 C999 1.390 . S
C998 N1001 1.391 . S
C999 H971 0.930 . S
C999 C998 1.390 . S
C999 C1000 1.392 . S
C1000 H972 0.929 . S
C1000 C997 1.391 . S
C1000 C999 1.392 . S
N1001 Co945 2.257 . S
N1001 C998 1.391 . S
N1001 C1002 1.388 . S
C1002 H973 0.930 . S
C1002 C997 1.391 . S
C1002 N1001 1.388 . S
Co1003 O1005 2.143 . S
Co1003 O1011 2.074 . S
Co1003 O1014 2.093 . S
Co1003 O1027 2.097 . S
Co1003 N1044 2.151 . S
Co1003 N1052 2.214 . S
Co1004 O1005 2.160 . S
Co1004 O1010 2.058 . S
Co1004 O1020 2.057 . S
Co1004 O1035 2.037 . S
Co1004 N1039 2.145 . S
Co1004 N1060 2.257 . S
O1005 Co1003 2.143 . S
O1005 Co1004 2.160 . S
C1006 O1007 1.278 . S
C1006 O1014 1.224 . S
O1007 C1006 1.278 . S
C1008 O1009 1.245 . S
C1008 O1020 1.232 . S
O1009 C1008 1.245 . S
O1010 Co1004 2.058 . S
O1010 C1036 1.269 . S
O1011 Co1003 2.074 . S
O1011 C1036 1.257 . S
H1012 C1037 0.930 . S
H1013 C1043 0.930 . S
O1014 Co1003 2.093 . S
O1014 C1006 1.224 . S
H1015 C1047 0.929 . S
H1016 C1049 0.930 . S
H1017 C1050 0.930 . S
H1018 C1048 0.929 . S
H1019 C1051 0.928 . S
O1020 Co1004 2.057 . S
O1020 C1008 1.232 . S
H1021 C1040 0.929 . S
H1022 C1041 0.929 . S
H1023 C1053 0.931 . S
H1024 C1045 0.929 . S
H1025 C1054 0.930 . S
H1026 C1046 0.931 . S
O1027 Co1003 2.097 . S
O1027 C1055 1.214 . S
H1028 C1056 0.929 . S
H1029 C1057 0.929 . S
H1030 C1058 0.930 . S
H1031 C1059 0.929 . S
H1032 C1061 0.930 . S
H1033 C1038 0.930 . S
H1034 C1042 0.930 . S
O1035 Co1004 2.037 . S
O1035 C1055 1.234 . S
C1036 O1010 1.269 . S
C1036 O1011 1.257 . S
C1037 H1012 0.930 . S
C1037 C1040 1.388 . S
C1037 C1042 1.418 . S
C1038 H1033 0.930 . S
C1038 C1041 1.404 . S
C1038 C1042 1.353 . S
N1039 Co1004 2.145 . S
N1039 C1040 1.397 . S
N1039 C1041 1.334 . S
C1040 H1021 0.929 . S
C1040 C1037 1.388 . S
C1040 N1039 1.397 . S
C1041 H1022 0.929 . S
C1041 C1038 1.404 . S
C1041 N1039 1.334 . S
C1042 H1034 0.930 . S
C1042 C1037 1.418 . S
C1042 C1038 1.353 . S
C1043 H1013 0.930 . S
C1043 N1044 1.330 . S
C1043 C1045 1.446 . S
N1044 Co1003 2.151 . S
N1044 C1043 1.330 . S
N1044 C1048 1.418 . S
C1045 H1024 0.929 . S
C1045 C1043 1.446 . S
C1045 C1046 1.332 . S
C1046 H1026 0.931 . S
C1046 C1045 1.332 . S
C1046 C1047 1.267 . S
C1047 H1015 0.929 . S
C1047 C1046 1.267 . S
C1047 C1048 1.251 . S
C1048 H1018 0.929 . S
C1048 N1044 1.418 . S
C1048 C1047 1.251 . S
C1049 H1016 0.930 . S
C1049 C1051 1.406 . S
C1049 C1054 1.261 . S
C1050 H1017 0.930 . S
C1050 N1052 1.325 . S
C1050 C1053 1.357 . S
C1051 H1019 0.928 . S
C1051 C1049 1.406 . S
C1051 N1052 1.261 . S
N1052 Co1003 2.214 . S
N1052 C1050 1.325 . S
N1052 C1051 1.261 . S
C1053 H1023 0.931 . S
C1053 C1050 1.357 . S
C1053 C1054 1.312 . S
C1054 H1025 0.930 . S
C1054 C1049 1.261 . S
C1054 C1053 1.312 . S
C1055 O1027 1.214 . S
C1055 O1035 1.234 . S
C1056 H1028 0.929 . S
C1056 C1059 1.391 . S
C1056 C1061 1.391 . S
C1057 H1029 0.929 . S
C1057 C1058 1.390 . S
C1057 N1060 1.391 . S
C1058 H1030 0.930 . S
C1058 C1057 1.390 . S
C1058 C1059 1.392 . S
C1059 H1031 0.929 . S
C1059 C1056 1.391 . S
C1059 C1058 1.392 . S
N1060 Co1004 2.257 . S
N1060 C1057 1.391 . S
N1060 C1061 1.388 . S
C1061 H1032 0.930 . S
C1061 C1056 1.391 . S
C1061 N1060 1.388 . S
Co1062 O1064 2.143 . S
Co1062 O1070 2.074 . S
Co1062 O1073 2.093 . S
Co1062 O1086 2.097 . S
Co1062 N1103 2.151 . S
Co1062 N1111 2.214 . S
Co1063 O1064 2.160 . S
Co1063 O1069 2.058 . S
Co1063 O1079 2.057 . S
Co1063 O1094 2.037 . S
Co1063 N1098 2.145 . S
Co1063 N1119 2.257 . S
O1064 Co1062 2.143 . S
O1064 Co1063 2.160 . S
C1065 O1066 1.278 . S
C1065 O1073 1.224 . S
O1066 C1065 1.278 . S
C1067 O1068 1.245 . S
C1067 O1079 1.232 . S
O1068 C1067 1.245 . S
O1069 Co1063 2.058 . S
O1069 C1095 1.269 . S
O1070 Co1062 2.074 . S
O1070 C1095 1.257 . S
H1071 C1096 0.930 . S
H1072 C1102 0.930 . S
O1073 Co1062 2.093 . S
O1073 C1065 1.224 . S
H1074 C1106 0.929 . S
H1075 C1108 0.930 . S
H1076 C1109 0.930 . S
H1077 C1107 0.929 . S
H1078 C1110 0.928 . S
O1079 Co1063 2.057 . S
O1079 C1067 1.232 . S
H1080 C1099 0.929 . S
H1081 C1100 0.929 . S
H1082 C1112 0.931 . S
H1083 C1104 0.929 . S
H1084 C1113 0.930 . S
H1085 C1105 0.931 . S
O1086 Co1062 2.097 . S
O1086 C1114 1.214 . S
H1087 C1115 0.929 . S
H1088 C1116 0.929 . S
H1089 C1117 0.930 . S
H1090 C1118 0.929 . S
H1091 C1120 0.930 . S
H1092 C1097 0.930 . S
H1093 C1101 0.930 . S
O1094 Co1063 2.037 . S
O1094 C1114 1.234 . S
C1095 O1069 1.269 . S
C1095 O1070 1.257 . S
C1096 H1071 0.930 . S
C1096 C1099 1.388 . S
C1096 C1101 1.418 . S
C1097 H1092 0.930 . S
C1097 C1100 1.404 . S
C1097 C1101 1.353 . S
N1098 Co1063 2.145 . S
N1098 C1099 1.397 . S
N1098 C1100 1.334 . S
C1099 H1080 0.929 . S
C1099 C1096 1.388 . S
C1099 N1098 1.397 . S
C1100 H1081 0.929 . S
C1100 C1097 1.404 . S
C1100 N1098 1.334 . S
C1101 H1093 0.930 . S
C1101 C1096 1.418 . S
C1101 C1097 1.353 . S
C1102 H1072 0.930 . S
C1102 N1103 1.330 . S
C1102 C1104 1.446 . S
N1103 Co1062 2.151 . S
N1103 C1102 1.330 . S
N1103 C1107 1.418 . S
C1104 H1083 0.929 . S
C1104 C1102 1.446 . S
C1104 C1105 1.332 . S
C1105 H1085 0.931 . S
C1105 C1104 1.332 . S
C1105 C1106 1.267 . S
C1106 H1074 0.929 . S
C1106 C1105 1.267 . S
C1106 C1107 1.251 . S
C1107 H1077 0.929 . S
C1107 N1103 1.418 . S
C1107 C1106 1.251 . S
C1108 H1075 0.930 . S
C1108 C1110 1.406 . S
C1108 C1113 1.261 . S
C1109 H1076 0.930 . S
C1109 N1111 1.325 . S
C1109 C1112 1.357 . S
C1110 H1078 0.928 . S
C1110 C1108 1.406 . S
C1110 N1111 1.261 . S
N1111 Co1062 2.214 . S
N1111 C1109 1.325 . S
N1111 C1110 1.261 . S
C1112 H1082 0.931 . S
C1112 C1109 1.357 . S
C1112 C1113 1.312 . S
C1113 H1084 0.930 . S
C1113 C1108 1.261 . S
C1113 C1112 1.312 . S
C1114 O1086 1.214 . S
C1114 O1094 1.234 . S
C1115 H1087 0.929 . S
C1115 C1118 1.391 . S
C1115 C1120 1.391 . S
C1116 H1088 0.929 . S
C1116 C1117 1.390 . S
C1116 N1119 1.391 . S
C1117 H1089 0.930 . S
C1117 C1116 1.390 . S
C1117 C1118 1.392 . S
C1118 H1090 0.929 . S
C1118 C1115 1.391 . S
C1118 C1117 1.392 . S
N1119 Co1063 2.257 . S
N1119 C1116 1.391 . S
N1119 C1120 1.388 . S
C1120 H1091 0.930 . S
C1120 C1115 1.391 . S
C1120 N1119 1.388 . S
Co1121 O1123 2.143 . S
Co1121 O1129 2.074 . S
Co1121 O1132 2.093 . S
Co1121 O1145 2.097 . S
Co1121 N1162 2.151 . S
Co1121 N1170 2.214 . S
Co1122 O1123 2.160 . S
Co1122 O1128 2.058 . S
Co1122 O1138 2.057 . S
Co1122 O1153 2.037 . S
Co1122 N1157 2.145 . S
Co1122 N1178 2.257 . S
O1123 Co1121 2.143 . S
O1123 Co1122 2.160 . S
C1124 O1125 1.278 . S
C1124 O1132 1.224 . S
O1125 C1124 1.278 . S
C1126 O1127 1.245 . S
C1126 O1138 1.232 . S
O1127 C1126 1.245 . S
O1128 Co1122 2.058 . S
O1128 C1154 1.269 . S
O1129 Co1121 2.074 . S
O1129 C1154 1.257 . S
H1130 C1155 0.930 . S
H1131 C1161 0.930 . S
O1132 Co1121 2.093 . S
O1132 C1124 1.224 . S
H1133 C1165 0.929 . S
H1134 C1167 0.930 . S
H1135 C1168 0.930 . S
H1136 C1166 0.929 . S
H1137 C1169 0.928 . S
O1138 Co1122 2.057 . S
O1138 C1126 1.232 . S
H1139 C1158 0.929 . S
H1140 C1159 0.929 . S
H1141 C1171 0.931 . S
H1142 C1163 0.929 . S
H1143 C1172 0.930 . S
H1144 C1164 0.931 . S
O1145 Co1121 2.097 . S
O1145 C1173 1.214 . S
H1146 C1174 0.929 . S
H1147 C1175 0.929 . S
H1148 C1176 0.930 . S
H1149 C1177 0.929 . S
H1150 C1179 0.930 . S
H1151 C1156 0.930 . S
H1152 C1160 0.930 . S
O1153 Co1122 2.037 . S
O1153 C1173 1.234 . S
C1154 O1128 1.269 . S
C1154 O1129 1.257 . S
C1155 H1130 0.930 . S
C1155 C1158 1.388 . S
C1155 C1160 1.418 . S
C1156 H1151 0.930 . S
C1156 C1159 1.404 . S
C1156 C1160 1.353 . S
N1157 Co1122 2.145 . S
N1157 C1158 1.397 . S
N1157 C1159 1.334 . S
C1158 H1139 0.929 . S
C1158 C1155 1.388 . S
C1158 N1157 1.397 . S
C1159 H1140 0.929 . S
C1159 C1156 1.404 . S
C1159 N1157 1.334 . S
C1160 H1152 0.930 . S
C1160 C1155 1.418 . S
C1160 C1156 1.353 . S
C1161 H1131 0.930 . S
C1161 N1162 1.330 . S
C1161 C1163 1.446 . S
N1162 Co1121 2.151 . S
N1162 C1161 1.330 . S
N1162 C1166 1.418 . S
C1163 H1142 0.929 . S
C1163 C1161 1.446 . S
C1163 C1164 1.332 . S
C1164 H1144 0.931 . S
C1164 C1163 1.332 . S
C1164 C1165 1.267 . S
C1165 H1133 0.929 . S
C1165 C1164 1.267 . S
C1165 C1166 1.251 . S
C1166 H1136 0.929 . S
C1166 N1162 1.418 . S
C1166 C1165 1.251 . S
C1167 H1134 0.930 . S
C1167 C1169 1.406 . S
C1167 C1172 1.261 . S
C1168 H1135 0.930 . S
C1168 N1170 1.325 . S
C1168 C1171 1.357 . S
C1169 H1137 0.928 . S
C1169 C1167 1.406 . S
C1169 N1170 1.261 . S
N1170 Co1121 2.214 . S
N1170 C1168 1.325 . S
N1170 C1169 1.261 . S
C1171 H1141 0.931 . S
C1171 C1168 1.357 . S
C1171 C1172 1.312 . S
C1172 H1143 0.930 . S
C1172 C1167 1.261 . S
C1172 C1171 1.312 . S
C1173 O1145 1.214 . S
C1173 O1153 1.234 . S
C1174 H1146 0.929 . S
C1174 C1177 1.391 . S
C1174 C1179 1.391 . S
C1175 H1147 0.929 . S
C1175 C1176 1.390 . S
C1175 N1178 1.391 . S
C1176 H1148 0.930 . S
C1176 C1175 1.390 . S
C1176 C1177 1.392 . S
C1177 H1149 0.929 . S
C1177 C1174 1.391 . S
C1177 C1176 1.392 . S
N1178 Co1122 2.257 . S
N1178 C1175 1.391 . S
N1178 C1179 1.388 . S
C1179 H1150 0.930 . S
C1179 C1174 1.391 . S
C1179 N1178 1.388 . S
Co1180 O1182 2.143 . S
Co1180 O1188 2.074 . S
Co1180 O1191 2.093 . S
Co1180 O1204 2.097 . S
Co1180 N1221 2.151 . S
Co1180 N1229 2.214 . S
Co1181 O1182 2.160 . S
Co1181 O1187 2.058 . S
Co1181 O1197 2.057 . S
Co1181 O1212 2.037 . S
Co1181 N1216 2.145 . S
Co1181 N1237 2.257 . S
O1182 Co1180 2.143 . S
O1182 Co1181 2.160 . S
C1183 O1184 1.278 . S
C1183 O1191 1.224 . S
O1184 C1183 1.278 . S
C1185 O1186 1.245 . S
C1185 O1197 1.232 . S
O1186 C1185 1.245 . S
O1187 Co1181 2.058 . S
O1187 C1213 1.269 . S
O1188 Co1180 2.074 . S
O1188 C1213 1.257 . S
H1189 C1214 0.930 . S
H1190 C1220 0.930 . S
O1191 Co1180 2.093 . S
O1191 C1183 1.224 . S
H1192 C1224 0.929 . S
H1193 C1226 0.930 . S
H1194 C1227 0.930 . S
H1195 C1225 0.929 . S
H1196 C1228 0.928 . S
O1197 Co1181 2.057 . S
O1197 C1185 1.232 . S
H1198 C1217 0.929 . S
H1199 C1218 0.929 . S
H1200 C1230 0.931 . S
H1201 C1222 0.929 . S
H1202 C1231 0.930 . S
H1203 C1223 0.931 . S
O1204 Co1180 2.097 . S
O1204 C1232 1.214 . S
H1205 C1233 0.929 . S
H1206 C1234 0.929 . S
H1207 C1235 0.930 . S
H1208 C1236 0.929 . S
H1209 C1238 0.930 . S
H1210 C1215 0.930 . S
H1211 C1219 0.930 . S
O1212 Co1181 2.037 . S
O1212 C1232 1.234 . S
C1213 O1187 1.269 . S
C1213 O1188 1.257 . S
C1214 H1189 0.930 . S
C1214 C1217 1.388 . S
C1214 C1219 1.418 . S
C1215 H1210 0.930 . S
C1215 C1218 1.404 . S
C1215 C1219 1.353 . S
N1216 Co1181 2.145 . S
N1216 C1217 1.397 . S
N1216 C1218 1.334 . S
C1217 H1198 0.929 . S
C1217 C1214 1.388 . S
C1217 N1216 1.397 . S
C1218 H1199 0.929 . S
C1218 C1215 1.404 . S
C1218 N1216 1.334 . S
C1219 H1211 0.930 . S
C1219 C1214 1.418 . S
C1219 C1215 1.353 . S
C1220 H1190 0.930 . S
C1220 N1221 1.330 . S
C1220 C1222 1.446 . S
N1221 Co1180 2.151 . S
N1221 C1220 1.330 . S
N1221 C1225 1.418 . S
C1222 H1201 0.929 . S
C1222 C1220 1.446 . S
C1222 C1223 1.332 . S
C1223 H1203 0.931 . S
C1223 C1222 1.332 . S
C1223 C1224 1.267 . S
C1224 H1192 0.929 . S
C1224 C1223 1.267 . S
C1224 C1225 1.251 . S
C1225 H1195 0.929 . S
C1225 N1221 1.418 . S
C1225 C1224 1.251 . S
C1226 H1193 0.930 . S
C1226 C1228 1.406 . S
C1226 C1231 1.261 . S
C1227 H1194 0.930 . S
C1227 N1229 1.325 . S
C1227 C1230 1.357 . S
C1228 H1196 0.928 . S
C1228 C1226 1.406 . S
C1228 N1229 1.261 . S
N1229 Co1180 2.214 . S
N1229 C1227 1.325 . S
N1229 C1228 1.261 . S
C1230 H1200 0.931 . S
C1230 C1227 1.357 . S
C1230 C1231 1.312 . S
C1231 H1202 0.930 . S
C1231 C1226 1.261 . S
C1231 C1230 1.312 . S
C1232 O1204 1.214 . S
C1232 O1212 1.234 . S
C1233 H1205 0.929 . S
C1233 C1236 1.391 . S
C1233 C1238 1.391 . S
C1234 H1206 0.929 . S
C1234 C1235 1.390 . S
C1234 N1237 1.391 . S
C1235 H1207 0.930 . S
C1235 C1234 1.390 . S
C1235 C1236 1.392 . S
C1236 H1208 0.929 . S
C1236 C1233 1.391 . S
C1236 C1235 1.392 . S
N1237 Co1181 2.257 . S
N1237 C1234 1.391 . S
N1237 C1238 1.388 . S
C1238 H1209 0.930 . S
C1238 C1233 1.391 . S
C1238 N1237 1.388 . S
Co1239 O1241 2.143 . S
Co1239 O1247 2.074 . S
Co1239 O1250 2.093 . S
Co1239 O1263 2.097 . S
Co1239 N1280 2.151 . S
Co1239 N1288 2.214 . S
Co1240 O1241 2.160 . S
Co1240 O1246 2.058 . S
Co1240 O1256 2.057 . S
Co1240 O1271 2.037 . S
Co1240 N1275 2.145 . S
Co1240 N1296 2.257 . S
O1241 Co1239 2.143 . S
O1241 Co1240 2.160 . S
C1242 O1243 1.278 . S
C1242 O1250 1.224 . S
O1243 C1242 1.278 . S
C1244 O1245 1.245 . S
C1244 O1256 1.232 . S
O1245 C1244 1.245 . S
O1246 Co1240 2.058 . S
O1246 C1272 1.269 . S
O1247 Co1239 2.074 . S
O1247 C1272 1.257 . S
H1248 C1273 0.930 . S
H1249 C1279 0.930 . S
O1250 Co1239 2.093 . S
O1250 C1242 1.224 . S
H1251 C1283 0.929 . S
H1252 C1285 0.930 . S
H1253 C1286 0.930 . S
H1254 C1284 0.929 . S
H1255 C1287 0.928 . S
O1256 Co1240 2.057 . S
O1256 C1244 1.232 . S
H1257 C1276 0.929 . S
H1258 C1277 0.929 . S
H1259 C1289 0.931 . S
H1260 C1281 0.929 . S
H1261 C1290 0.930 . S
H1262 C1282 0.931 . S
O1263 Co1239 2.097 . S
O1263 C1291 1.214 . S
H1264 C1292 0.929 . S
H1265 C1293 0.929 . S
H1266 C1294 0.930 . S
H1267 C1295 0.929 . S
H1268 C1297 0.930 . S
H1269 C1274 0.930 . S
H1270 C1278 0.930 . S
O1271 Co1240 2.037 . S
O1271 C1291 1.234 . S
C1272 O1246 1.269 . S
C1272 O1247 1.257 . S
C1273 H1248 0.930 . S
C1273 C1276 1.388 . S
C1273 C1278 1.418 . S
C1274 H1269 0.930 . S
C1274 C1277 1.404 . S
C1274 C1278 1.353 . S
N1275 Co1240 2.145 . S
N1275 C1276 1.397 . S
N1275 C1277 1.334 . S
C1276 H1257 0.929 . S
C1276 C1273 1.388 . S
C1276 N1275 1.397 . S
C1277 H1258 0.929 . S
C1277 C1274 1.404 . S
C1277 N1275 1.334 . S
C1278 H1270 0.930 . S
C1278 C1273 1.418 . S
C1278 C1274 1.353 . S
C1279 H1249 0.930 . S
C1279 N1280 1.330 . S
C1279 C1281 1.446 . S
N1280 Co1239 2.151 . S
N1280 C1279 1.330 . S
N1280 C1284 1.418 . S
C1281 H1260 0.929 . S
C1281 C1279 1.446 . S
C1281 C1282 1.332 . S
C1282 H1262 0.931 . S
C1282 C1281 1.332 . S
C1282 C1283 1.267 . S
C1283 H1251 0.929 . S
C1283 C1282 1.267 . S
C1283 C1284 1.251 . S
C1284 H1254 0.929 . S
C1284 N1280 1.418 . S
C1284 C1283 1.251 . S
C1285 H1252 0.930 . S
C1285 C1287 1.406 . S
C1285 C1290 1.261 . S
C1286 H1253 0.930 . S
C1286 N1288 1.325 . S
C1286 C1289 1.357 . S
C1287 H1255 0.928 . S
C1287 C1285 1.406 . S
C1287 N1288 1.261 . S
N1288 Co1239 2.214 . S
N1288 C1286 1.325 . S
N1288 C1287 1.261 . S
C1289 H1259 0.931 . S
C1289 C1286 1.357 . S
C1289 C1290 1.312 . S
C1290 H1261 0.930 . S
C1290 C1285 1.261 . S
C1290 C1289 1.312 . S
C1291 O1263 1.214 . S
C1291 O1271 1.234 . S
C1292 H1264 0.929 . S
C1292 C1295 1.391 . S
C1292 C1297 1.391 . S
C1293 H1265 0.929 . S
C1293 C1294 1.390 . S
C1293 N1296 1.391 . S
C1294 H1266 0.930 . S
C1294 C1293 1.390 . S
C1294 C1295 1.392 . S
C1295 H1267 0.929 . S
C1295 C1292 1.391 . S
C1295 C1294 1.392 . S
N1296 Co1240 2.257 . S
N1296 C1293 1.391 . S
N1296 C1297 1.388 . S
C1297 H1268 0.930 . S
C1297 C1292 1.391 . S
C1297 N1296 1.388 . S
Co1298 O1300 2.143 . S
Co1298 O1306 2.074 . S
Co1298 O1309 2.093 . S
Co1298 O1322 2.097 . S
Co1298 N1339 2.151 . S
Co1298 N1347 2.214 . S
Co1299 O1300 2.160 . S
Co1299 O1305 2.058 . S
Co1299 O1315 2.057 . S
Co1299 O1330 2.037 . S
Co1299 N1334 2.145 . S
Co1299 N1355 2.257 . S
O1300 Co1298 2.143 . S
O1300 Co1299 2.160 . S
C1301 O1302 1.278 . S
C1301 O1309 1.224 . S
O1302 C1301 1.278 . S
C1303 O1304 1.245 . S
C1303 O1315 1.232 . S
O1304 C1303 1.245 . S
O1305 Co1299 2.058 . S
O1305 C1331 1.269 . S
O1306 Co1298 2.074 . S
O1306 C1331 1.257 . S
H1307 C1332 0.930 . S
H1308 C1338 0.930 . S
O1309 Co1298 2.093 . S
O1309 C1301 1.224 . S
H1310 C1342 0.929 . S
H1311 C1344 0.930 . S
H1312 C1345 0.930 . S
H1313 C1343 0.929 . S
H1314 C1346 0.928 . S
O1315 Co1299 2.057 . S
O1315 C1303 1.232 . S
H1316 C1335 0.929 . S
H1317 C1336 0.929 . S
H1318 C1348 0.931 . S
H1319 C1340 0.929 . S
H1320 C1349 0.930 . S
H1321 C1341 0.931 . S
O1322 Co1298 2.097 . S
O1322 C1350 1.214 . S
H1323 C1351 0.929 . S
H1324 C1352 0.929 . S
H1325 C1353 0.930 . S
H1326 C1354 0.929 . S
H1327 C1356 0.930 . S
H1328 C1333 0.930 . S
H1329 C1337 0.930 . S
O1330 Co1299 2.037 . S
O1330 C1350 1.234 . S
C1331 O1305 1.269 . S
C1331 O1306 1.257 . S
C1332 H1307 0.930 . S
C1332 C1335 1.388 . S
C1332 C1337 1.418 . S
C1333 H1328 0.930 . S
C1333 C1336 1.404 . S
C1333 C1337 1.353 . S
N1334 Co1299 2.145 . S
N1334 C1335 1.397 . S
N1334 C1336 1.334 . S
C1335 H1316 0.929 . S
C1335 C1332 1.388 . S
C1335 N1334 1.397 . S
C1336 H1317 0.929 . S
C1336 C1333 1.404 . S
C1336 N1334 1.334 . S
C1337 H1329 0.930 . S
C1337 C1332 1.418 . S
C1337 C1333 1.353 . S
C1338 H1308 0.930 . S
C1338 N1339 1.330 . S
C1338 C1340 1.446 . S
N1339 Co1298 2.151 . S
N1339 C1338 1.330 . S
N1339 C1343 1.418 . S
C1340 H1319 0.929 . S
C1340 C1338 1.446 . S
C1340 C1341 1.332 . S
C1341 H1321 0.931 . S
C1341 C1340 1.332 . S
C1341 C1342 1.267 . S
C1342 H1310 0.929 . S
C1342 C1341 1.267 . S
C1342 C1343 1.251 . S
C1343 H1313 0.929 . S
C1343 N1339 1.418 . S
C1343 C1342 1.251 . S
C1344 H1311 0.930 . S
C1344 C1346 1.406 . S
C1344 C1349 1.261 . S
C1345 H1312 0.930 . S
C1345 N1347 1.325 . S
C1345 C1348 1.357 . S
C1346 H1314 0.928 . S
C1346 C1344 1.406 . S
C1346 N1347 1.261 . S
N1347 Co1298 2.214 . S
N1347 C1345 1.325 . S
N1347 C1346 1.261 . S
C1348 H1318 0.931 . S
C1348 C1345 1.357 . S
C1348 C1349 1.312 . S
C1349 H1320 0.930 . S
C1349 C1344 1.261 . S
C1349 C1348 1.312 . S
C1350 O1322 1.214 . S
C1350 O1330 1.234 . S
C1351 H1323 0.929 . S
C1351 C1354 1.391 . S
C1351 C1356 1.391 . S
C1352 H1324 0.929 . S
C1352 C1353 1.390 . S
C1352 N1355 1.391 . S
C1353 H1325 0.930 . S
C1353 C1352 1.390 . S
C1353 C1354 1.392 . S
C1354 H1326 0.929 . S
C1354 C1351 1.391 . S
C1354 C1353 1.392 . S
N1355 Co1299 2.257 . S
N1355 C1352 1.391 . S
N1355 C1356 1.388 . S
C1356 H1327 0.930 . S
C1356 C1351 1.391 . S
C1356 N1355 1.388 . S
Co1357 O1359 2.143 . S
Co1357 O1365 2.074 . S
Co1357 O1368 2.093 . S
Co1357 O1381 2.097 . S
Co1357 N1398 2.151 . S
Co1357 N1406 2.214 . S
Co1358 O1359 2.160 . S
Co1358 O1364 2.058 . S
Co1358 O1374 2.057 . S
Co1358 O1389 2.037 . S
Co1358 N1393 2.145 . S
Co1358 N1414 2.257 . S
O1359 Co1357 2.143 . S
O1359 Co1358 2.160 . S
C1360 O1361 1.278 . S
C1360 O1368 1.224 . S
O1361 C1360 1.278 . S
C1362 O1363 1.245 . S
C1362 O1374 1.232 . S
O1363 C1362 1.245 . S
O1364 Co1358 2.058 . S
O1364 C1390 1.269 . S
O1365 Co1357 2.074 . S
O1365 C1390 1.257 . S
H1366 C1391 0.930 . S
H1367 C1397 0.930 . S
O1368 Co1357 2.093 . S
O1368 C1360 1.224 . S
H1369 C1401 0.929 . S
H1370 C1403 0.930 . S
H1371 C1404 0.930 . S
H1372 C1402 0.929 . S
H1373 C1405 0.928 . S
O1374 Co1358 2.057 . S
O1374 C1362 1.232 . S
H1375 C1394 0.929 . S
H1376 C1395 0.929 . S
H1377 C1407 0.931 . S
H1378 C1399 0.929 . S
H1379 C1408 0.930 . S
H1380 C1400 0.931 . S
O1381 Co1357 2.097 . S
O1381 C1409 1.214 . S
H1382 C1410 0.929 . S
H1383 C1411 0.929 . S
H1384 C1412 0.930 . S
H1385 C1413 0.929 . S
H1386 C1415 0.930 . S
H1387 C1392 0.930 . S
H1388 C1396 0.930 . S
O1389 Co1358 2.037 . S
O1389 C1409 1.234 . S
C1390 O1364 1.269 . S
C1390 O1365 1.257 . S
C1391 H1366 0.930 . S
C1391 C1394 1.388 . S
C1391 C1396 1.418 . S
C1392 H1387 0.930 . S
C1392 C1395 1.404 . S
C1392 C1396 1.353 . S
N1393 Co1358 2.145 . S
N1393 C1394 1.397 . S
N1393 C1395 1.334 . S
C1394 H1375 0.929 . S
C1394 C1391 1.388 . S
C1394 N1393 1.397 . S
C1395 H1376 0.929 . S
C1395 C1392 1.404 . S
C1395 N1393 1.334 . S
C1396 H1388 0.930 . S
C1396 C1391 1.418 . S
C1396 C1392 1.353 . S
C1397 H1367 0.930 . S
C1397 N1398 1.330 . S
C1397 C1399 1.446 . S
N1398 Co1357 2.151 . S
N1398 C1397 1.330 . S
N1398 C1402 1.418 . S
C1399 H1378 0.929 . S
C1399 C1397 1.446 . S
C1399 C1400 1.332 . S
C1400 H1380 0.931 . S
C1400 C1399 1.332 . S
C1400 C1401 1.267 . S
C1401 H1369 0.929 . S
C1401 C1400 1.267 . S
C1401 C1402 1.251 . S
C1402 H1372 0.929 . S
C1402 N1398 1.418 . S
C1402 C1401 1.251 . S
C1403 H1370 0.930 . S
C1403 C1405 1.406 . S
C1403 C1408 1.261 . S
C1404 H1371 0.930 . S
C1404 N1406 1.325 . S
C1404 C1407 1.357 . S
C1405 H1373 0.928 . S
C1405 C1403 1.406 . S
C1405 N1406 1.261 . S
N1406 Co1357 2.214 . S
N1406 C1404 1.325 . S
N1406 C1405 1.261 . S
C1407 H1377 0.931 . S
C1407 C1404 1.357 . S
C1407 C1408 1.312 . S
C1408 H1379 0.930 . S
C1408 C1403 1.261 . S
C1408 C1407 1.312 . S
C1409 O1381 1.214 . S
C1409 O1389 1.234 . S
C1410 H1382 0.929 . S
C1410 C1413 1.391 . S
C1410 C1415 1.391 . S
C1411 H1383 0.929 . S
C1411 C1412 1.390 . S
C1411 N1414 1.391 . S
C1412 H1384 0.930 . S
C1412 C1411 1.390 . S
C1412 C1413 1.392 . S
C1413 H1385 0.929 . S
C1413 C1410 1.391 . S
C1413 C1412 1.392 . S
N1414 Co1358 2.257 . S
N1414 C1411 1.391 . S
N1414 C1415 1.388 . S
C1415 H1386 0.930 . S
C1415 C1410 1.391 . S
C1415 N1414 1.388 . S
C1416 C1417 1.387 . S
C1416 H1420 0.950 . S
C1416 C1425 1.390 . S
C1417 C1416 1.387 . S
C1417 C1419 1.387 . S
H1418 C1425 0.950 . S
C1419 C1417 1.387 . S
C1419 C1421 1.390 . S
C1419 H1423 0.950 . S
H1420 C1416 0.950 . S
C1421 C1419 1.390 . S
C1421 C1422 1.387 . S
C1421 H1424 0.950 . S
C1422 C1421 1.387 . S
C1422 C1425 1.387 . S
H1423 C1419 0.950 . S
H1424 C1421 0.950 . S
C1425 C1416 1.390 . S
C1425 H1418 0.950 . S
C1425 C1422 1.387 . S
C1426 C1427 1.387 . S
C1426 H1430 0.950 . S
C1426 C1435 1.390 . S
C1427 C1426 1.387 . S
C1427 C1429 1.387 . S
H1428 C1435 0.950 . S
C1429 C1427 1.387 . S
C1429 C1431 1.390 . S
C1429 H1433 0.950 . S
H1430 C1426 0.950 . S
C1431 C1429 1.390 . S
C1431 C1432 1.387 . S
C1431 H1434 0.950 . S
C1432 C1431 1.387 . S
C1432 C1435 1.387 . S
H1433 C1429 0.950 . S
H1434 C1431 0.950 . S
C1435 C1426 1.390 . S
C1435 H1428 0.950 . S
C1435 C1432 1.387 . S
C1436 C1437 1.387 . S
C1436 H1440 0.950 . S
C1436 C1445 1.390 . S
C1437 C1436 1.387 . S
C1437 C1439 1.387 . S
H1438 C1445 0.950 . S
C1439 C1437 1.387 . S
C1439 C1441 1.390 . S
C1439 H1443 0.950 . S
H1440 C1436 0.950 . S
C1441 C1439 1.390 . S
C1441 C1442 1.387 . S
C1441 H1444 0.950 . S
C1442 C1441 1.387 . S
C1442 C1445 1.387 . S
H1443 C1439 0.950 . S
H1444 C1441 0.950 . S
C1445 C1436 1.390 . S
C1445 H1438 0.950 . S
C1445 C1442 1.387 . S
C1446 C1447 1.387 . S
C1446 H1450 0.950 . S
C1446 C1455 1.390 . S
C1447 C1446 1.387 . S
C1447 C1449 1.387 . S
H1448 C1455 0.950 . S
C1449 C1447 1.387 . S
C1449 C1451 1.390 . S
C1449 H1453 0.950 . S
H1450 C1446 0.950 . S
C1451 C1449 1.390 . S
C1451 C1452 1.387 . S
C1451 H1454 0.950 . S
C1452 C1451 1.387 . S
C1452 C1455 1.387 . S
H1453 C1449 0.950 . S
H1454 C1451 0.950 . S
C1455 C1446 1.390 . S
C1455 H1448 0.950 . S
C1455 C1452 1.387 . S
C1456 C1457 1.387 . S
C1456 H1460 0.950 . S
C1456 C1465 1.390 . S
C1457 C1456 1.387 . S
C1457 C1459 1.387 . S
H1458 C1465 0.950 . S
C1459 C1457 1.387 . S
C1459 C1461 1.390 . S
C1459 H1463 0.950 . S
H1460 C1456 0.950 . S
C1461 C1459 1.390 . S
C1461 C1462 1.387 . S
C1461 H1464 0.950 . S
C1462 C1461 1.387 . S
C1462 C1465 1.387 . S
H1463 C1459 0.950 . S
H1464 C1461 0.950 . S
C1465 C1456 1.390 . S
C1465 H1458 0.950 . S
C1465 C1462 1.387 . S
C1466 C1467 1.387 . S
C1466 H1470 0.950 . S
C1466 C1475 1.390 . S
C1467 C1466 1.387 . S
C1467 C1469 1.387 . S
H1468 C1475 0.950 . S
C1469 C1467 1.387 . S
C1469 C1471 1.390 . S
C1469 H1473 0.950 . S
H1470 C1466 0.950 . S
C1471 C1469 1.390 . S
C1471 C1472 1.387 . S
C1471 H1474 0.950 . S
C1472 C1471 1.387 . S
C1472 C1475 1.387 . S
H1473 C1469 0.950 . S
H1474 C1471 0.950 . S
C1475 C1466 1.390 . S
C1475 H1468 0.950 . S
C1475 C1472 1.387 . S
C1476 C1477 1.387 . S
C1476 H1480 0.950 . S
C1476 C1485 1.390 . S
C1477 C1476 1.387 . S
C1477 C1479 1.387 . S
H1478 C1485 0.950 . S
C1479 C1477 1.387 . S
C1479 C1481 1.390 . S
C1479 H1483 0.950 . S
H1480 C1476 0.950 . S
C1481 C1479 1.390 . S
C1481 C1482 1.387 . S
C1481 H1484 0.950 . S
C1482 C1481 1.387 . S
C1482 C1485 1.387 . S
H1483 C1479 0.950 . S
H1484 C1481 0.950 . S
C1485 C1476 1.390 . S
C1485 H1478 0.950 . S
C1485 C1482 1.387 . S
C1486 C1487 1.387 . S
C1486 H1490 0.950 . S
C1486 C1495 1.390 . S
C1487 C1486 1.387 . S
C1487 C1489 1.387 . S
H1488 C1495 0.950 . S
C1489 C1487 1.387 . S
C1489 C1491 1.390 . S
C1489 H1493 0.950 . S
H1490 C1486 0.950 . S
C1491 C1489 1.390 . S
C1491 C1492 1.387 . S
C1491 H1494 0.950 . S
C1492 C1491 1.387 . S
C1492 C1495 1.387 . S
H1493 C1489 0.950 . S
H1494 C1491 0.950 . S
C1495 C1486 1.390 . S
C1495 H1488 0.950 . S
C1495 C1492 1.387 . S
C1496 C1497 1.387 . S
C1496 H1500 0.950 . S
C1496 C1505 1.390 . S
C1497 C1496 1.387 . S
C1497 C1499 1.387 . S
H1498 C1505 0.950 . S
C1499 C1497 1.387 . S
C1499 C1501 1.390 . S
C1499 H1503 0.950 . S
H1500 C1496 0.950 . S
C1501 C1499 1.390 . S
C1501 C1502 1.387 . S
C1501 H1504 0.950 . S
C1502 C1501 1.387 . S
C1502 C1505 1.387 . S
H1503 C1499 0.950 . S
H1504 C1501 0.950 . S
C1505 C1496 1.390 . S
C1505 H1498 0.950 . S
C1505 C1502 1.387 . S
C1506 C1507 1.387 . S
C1506 H1510 0.950 . S
C1506 C1515 1.390 . S
C1507 C1506 1.387 . S
C1507 C1509 1.387 . S
H1508 C1515 0.950 . S
C1509 C1507 1.387 . S
C1509 C1511 1.390 . S
C1509 H1513 0.950 . S
H1510 C1506 0.950 . S
C1511 C1509 1.390 . S
C1511 C1512 1.387 . S
C1511 H1514 0.950 . S
C1512 C1511 1.387 . S
C1512 C1515 1.387 . S
H1513 C1509 0.950 . S
H1514 C1511 0.950 . S
C1515 C1506 1.390 . S
C1515 H1508 0.950 . S
C1515 C1512 1.387 . S
C1516 C1517 1.387 . S
C1516 H1520 0.950 . S
C1516 C1525 1.390 . S
C1517 C1516 1.387 . S
C1517 C1519 1.387 . S
H1518 C1525 0.950 . S
C1519 C1517 1.387 . S
C1519 C1521 1.390 . S
C1519 H1523 0.950 . S
H1520 C1516 0.950 . S
C1521 C1519 1.390 . S
C1521 C1522 1.387 . S
C1521 H1524 0.950 . S
C1522 C1521 1.387 . S
C1522 C1525 1.387 . S
H1523 C1519 0.950 . S
H1524 C1521 0.950 . S
C1525 C1516 1.390 . S
C1525 H1518 0.950 . S
C1525 C1522 1.387 . S
C1526 C1527 1.387 . S
C1526 H1530 0.950 . S
C1526 C1535 1.390 . S
C1527 C1526 1.387 . S
C1527 C1529 1.387 . S
H1528 C1535 0.950 . S
C1529 C1527 1.387 . S
C1529 C1531 1.390 . S
C1529 H1533 0.950 . S
H1530 C1526 0.950 . S
C1531 C1529 1.390 . S
C1531 C1532 1.387 . S
C1531 H1534 0.950 . S
C1532 C1531 1.387 . S
C1532 C1535 1.387 . S
H1533 C1529 0.950 . S
H1534 C1531 0.950 . S
C1535 C1526 1.390 . S
C1535 H1528 0.950 . S
C1535 C1532 1.387 . S
C1536 C1537 1.387 . S
C1536 H1540 0.950 . S
C1536 C1545 1.390 . S
C1537 C1536 1.387 . S
C1537 C1539 1.387 . S
H1538 C1545 0.950 . S
C1539 C1537 1.387 . S
C1539 C1541 1.390 . S
C1539 H1543 0.950 . S
H1540 C1536 0.950 . S
C1541 C1539 1.390 . S
C1541 C1542 1.387 . S
C1541 H1544 0.950 . S
C1542 C1541 1.387 . S
C1542 C1545 1.387 . S
H1543 C1539 0.950 . S
H1544 C1541 0.950 . S
C1545 C1536 1.390 . S
C1545 H1538 0.950 . S
C1545 C1542 1.387 . S
C1546 C1547 1.387 . S
C1546 H1550 0.950 . S
C1546 C1555 1.390 . S
C1547 C1546 1.387 . S
C1547 C1549 1.387 . S
H1548 C1555 0.950 . S
C1549 C1547 1.387 . S
C1549 C1551 1.390 . S
C1549 H1553 0.950 . S
H1550 C1546 0.950 . S
C1551 C1549 1.390 . S
C1551 C1552 1.387 . S
C1551 H1554 0.950 . S
C1552 C1551 1.387 . S
C1552 C1555 1.387 . S
H1553 C1549 0.950 . S
H1554 C1551 0.950 . S
C1555 C1546 1.390 . S
C1555 H1548 0.950 . S
C1555 C1552 1.387 . S
C1556 C1557 1.387 . S
C1556 H1560 0.950 . S
C1556 C1565 1.390 . S
C1557 C1556 1.387 . S
C1557 C1559 1.387 . S
H1558 C1565 0.950 . S
C1559 C1557 1.387 . S
C1559 C1561 1.390 . S
C1559 H1563 0.950 . S
H1560 C1556 0.950 . S
C1561 C1559 1.390 . S
C1561 C1562 1.387 . S
C1561 H1564 0.950 . S
C1562 C1561 1.387 . S
C1562 C1565 1.387 . S
H1563 C1559 0.950 . S
H1564 C1561 0.950 . S
C1565 C1556 1.390 . S
C1565 H1558 0.950 . S
C1565 C1562 1.387 . S
C1566 C1567 1.387 . S
C1566 H1570 0.950 . S
C1566 C1575 1.390 . S
C1567 C1566 1.387 . S
C1567 C1569 1.387 . S
H1568 C1575 0.950 . S
C1569 C1567 1.387 . S
C1569 C1571 1.390 . S
C1569 H1573 0.950 . S
H1570 C1566 0.950 . S
C1571 C1569 1.390 . S
C1571 C1572 1.387 . S
C1571 H1574 0.950 . S
C1572 C1571 1.387 . S
C1572 C1575 1.387 . S
H1573 C1569 0.950 . S
H1574 C1571 0.950 . S
C1575 C1566 1.390 . S
C1575 H1568 0.950 . S
C1575 C1572 1.387 . S
C1576 C1577 1.387 . S
C1576 H1580 0.950 . S
C1576 C1585 1.390 . S
C1577 C1576 1.387 . S
C1577 C1579 1.387 . S
H1578 C1585 0.950 . S
C1579 C1577 1.387 . S
C1579 C1581 1.390 . S
C1579 H1583 0.950 . S
H1580 C1576 0.950 . S
C1581 C1579 1.390 . S
C1581 C1582 1.387 . S
C1581 H1584 0.950 . S
C1582 C1581 1.387 . S
C1582 C1585 1.387 . S
H1583 C1579 0.950 . S
H1584 C1581 0.950 . S
C1585 C1576 1.390 . S
C1585 H1578 0.950 . S
C1585 C1582 1.387 . S
C1586 C1587 1.387 . S
C1586 H1590 0.950 . S
C1586 C1595 1.390 . S
C1587 C1586 1.387 . S
C1587 C1589 1.387 . S
H1588 C1595 0.950 . S
C1589 C1587 1.387 . S
C1589 C1591 1.390 . S
C1589 H1593 0.950 . S
H1590 C1586 0.950 . S
C1591 C1589 1.390 . S
C1591 C1592 1.387 . S
C1591 H1594 0.950 . S
C1592 C1591 1.387 . S
C1592 C1595 1.387 . S
H1593 C1589 0.950 . S
H1594 C1591 0.950 . S
C1595 C1586 1.390 . S
C1595 H1588 0.950 . S
C1595 C1592 1.387 . S
C1596 C1597 1.387 . S
C1596 H1600 0.950 . S
C1596 C1605 1.390 . S
C1597 C1596 1.387 . S
C1597 C1599 1.387 . S
H1598 C1605 0.950 . S
C1599 C1597 1.387 . S
C1599 C1601 1.390 . S
C1599 H1603 0.950 . S
H1600 C1596 0.950 . S
C1601 C1599 1.390 . S
C1601 C1602 1.387 . S
C1601 H1604 0.950 . S
C1602 C1601 1.387 . S
C1602 C1605 1.387 . S
H1603 C1599 0.950 . S
H1604 C1601 0.950 . S
C1605 C1596 1.390 . S
C1605 H1598 0.950 . S
C1605 C1602 1.387 . S
C1606 C1607 1.387 . S
C1606 H1610 0.950 . S
C1606 C1615 1.390 . S
C1607 C1606 1.387 . S
C1607 C1609 1.387 . S
H1608 C1615 0.950 . S
C1609 C1607 1.387 . S
C1609 C1611 1.390 . S
C1609 H1613 0.950 . S
H1610 C1606 0.950 . S
C1611 C1609 1.390 . S
C1611 C1612 1.387 . S
C1611 H1614 0.950 . S
C1612 C1611 1.387 . S
C1612 C1615 1.387 . S
H1613 C1609 0.950 . S
H1614 C1611 0.950 . S
C1615 C1606 1.390 . S
C1615 H1608 0.950 . S
C1615 C1612 1.387 . S
C1616 C1617 1.387 . S
C1616 H1620 0.950 . S
C1616 C1625 1.390 . S
C1617 C1616 1.387 . S
C1617 C1619 1.387 . S
H1618 C1625 0.950 . S
C1619 C1617 1.387 . S
C1619 C1621 1.390 . S
C1619 H1623 0.950 . S
H1620 C1616 0.950 . S
C1621 C1619 1.390 . S
C1621 C1622 1.387 . S
C1621 H1624 0.950 . S
C1622 C1621 1.387 . S
C1622 C1625 1.387 . S
H1623 C1619 0.950 . S
H1624 C1621 0.950 . S
C1625 C1616 1.390 . S
C1625 H1618 0.950 . S
C1625 C1622 1.387 . S
C1626 C1627 1.387 . S
C1626 H1630 0.950 . S
C1626 C1635 1.390 . S
C1627 C1626 1.387 . S
C1627 C1629 1.387 . S
H1628 C1635 0.950 . S
C1629 C1627 1.387 . S
C1629 C1631 1.390 . S
C1629 H1633 0.950 . S
H1630 C1626 0.950 . S
C1631 C1629 1.390 . S
C1631 C1632 1.387 . S
C1631 H1634 0.950 . S
C1632 C1631 1.387 . S
C1632 C1635 1.387 . S
H1633 C1629 0.950 . S
H1634 C1631 0.950 . S
C1635 C1626 1.390 . S
C1635 H1628 0.950 . S
C1635 C1632 1.387 . S
C1636 C1637 1.387 . S
C1636 H1640 0.950 . S
C1636 C1645 1.390 . S
C1637 C1636 1.387 . S
C1637 C1639 1.387 . S
H1638 C1645 0.950 . S
C1639 C1637 1.387 . S
C1639 C1641 1.390 . S
C1639 H1643 0.950 . S
H1640 C1636 0.950 . S
C1641 C1639 1.390 . S
C1641 C1642 1.387 . S
C1641 H1644 0.950 . S
C1642 C1641 1.387 . S
C1642 C1645 1.387 . S
H1643 C1639 0.950 . S
H1644 C1641 0.950 . S
C1645 C1636 1.390 . S
C1645 H1638 0.950 . S
C1645 C1642 1.387 . S
C1646 C1647 1.387 . S
C1646 H1650 0.950 . S
C1646 C1655 1.390 . S
C1647 C1646 1.387 . S
C1647 C1649 1.387 . S
H1648 C1655 0.950 . S
C1649 C1647 1.387 . S
C1649 C1651 1.390 . S
C1649 H1653 0.950 . S
H1650 C1646 0.950 . S
C1651 C1649 1.390 . S
C1651 C1652 1.387 . S
C1651 H1654 0.950 . S
C1652 C1651 1.387 . S
C1652 C1655 1.387 . S
H1653 C1649 0.950 . S
H1654 C1651 0.950 . S
C1655 C1646 1.390 . S
C1655 H1648 0.950 . S
C1655 C1652 1.387 . S
C1656 C1657 1.387 . S
C1656 H1660 0.950 . S
C1656 C1665 1.390 1_455 S
C1657 C1656 1.387 . S
C1657 C1659 1.387 . S
H1658 C1665 0.950 . S
C1659 C1657 1.387 . S
C1659 C1661 1.390 1_455 S
C1659 H1663 0.950 . S
H1660 C1656 0.950 . S
C1661 C1659 1.390 1_655 S
C1661 C1662 1.387 . S
C1661 H1664 0.950 . S
C1662 C1661 1.387 . S
C1662 C1665 1.387 . S
H1663 C1659 0.950 . S
H1664 C1661 0.950 . S
C1665 C1656 1.390 1_655 S
C1665 H1658 0.950 . S
C1665 C1662 1.387 . S
C1666 C1667 1.387 . S
C1666 H1670 0.950 . S
C1666 C1675 1.390 1_545 S
C1667 C1666 1.387 . S
C1667 C1669 1.387 . S
H1668 C1675 0.950 . S
C1669 C1667 1.387 . S
C1669 C1671 1.390 1_545 S
C1669 H1673 0.950 . S
H1670 C1666 0.950 . S
C1671 C1669 1.390 1_565 S
C1671 C1672 1.387 . S
C1671 H1674 0.950 . S
C1672 C1671 1.387 . S
C1672 C1675 1.387 . S
H1673 C1669 0.950 . S
H1674 C1671 0.950 . S
C1675 C1666 1.390 1_565 S
C1675 H1668 0.950 . S
C1675 C1672 1.387 . S
C1676 C1677 1.387 . S
C1676 H1680 0.950 . S
C1676 C1685 1.390 1_655 S
C1677 C1676 1.387 . S
C1677 C1679 1.387 . S
H1678 C1685 0.950 . S
C1679 C1677 1.387 . S
C1679 C1681 1.390 1_655 S
C1679 H1683 0.950 . S
H1680 C1676 0.950 . S
C1681 C1679 1.390 1_455 S
C1681 C1682 1.387 . S
C1681 H1684 0.950 . S
C1682 C1681 1.387 . S
C1682 C1685 1.387 . S
H1683 C1679 0.950 . S
H1684 C1681 0.950 . S
C1685 C1676 1.390 1_455 S
C1685 H1678 0.950 . S
C1685 C1682 1.387 . S
C1686 C1687 1.387 . S
C1686 H1690 0.950 . S
C1686 C1695 1.390 1_545 S
C1687 C1686 1.387 . S
C1687 C1689 1.387 . S
H1688 C1695 0.950 . S
C1689 C1687 1.387 . S
C1689 C1691 1.390 1_545 S
C1689 H1693 0.950 . S
H1690 C1686 0.950 . S
C1691 C1689 1.390 1_565 S
C1691 C1692 1.387 . S
C1691 H1694 0.950 . S
C1692 C1691 1.387 . S
C1692 C1695 1.387 . S
H1693 C1689 0.950 . S
H1694 C1691 0.950 . S
C1695 C1686 1.390 1_565 S
C1695 H1688 0.950 . S
C1695 C1692 1.387 . S
C1696 C1697 1.387 . S
C1696 H1700 0.950 . S
C1696 C1705 1.390 1_565 S
C1697 C1696 1.387 . S
C1697 C1699 1.387 . S
H1698 C1705 0.950 . S
C1699 C1697 1.387 . S
C1699 C1701 1.390 1_565 S
C1699 H1703 0.950 . S
H1700 C1696 0.950 . S
C1701 C1699 1.390 1_545 S
C1701 C1702 1.387 . S
C1701 H1704 0.950 . S
C1702 C1701 1.387 . S
C1702 C1705 1.387 . S
H1703 C1699 0.950 . S
H1704 C1701 0.950 . S
C1705 C1696 1.390 1_545 S
C1705 H1698 0.950 . S
C1705 C1702 1.387 . S
C1706 C1707 1.387 . S
C1706 H1710 0.950 . S
C1706 C1715 1.390 1_655 S
C1707 C1706 1.387 . S
C1707 C1709 1.387 . S
H1708 C1715 0.950 . S
C1709 C1707 1.387 . S
C1709 C1711 1.390 1_655 S
C1709 H1713 0.950 . S
H1710 C1706 0.950 . S
C1711 C1709 1.390 1_455 S
C1711 C1712 1.387 . S
C1711 H1714 0.950 . S
C1712 C1711 1.387 . S
C1712 C1715 1.387 . S
H1713 C1709 0.950 . S
H1714 C1711 0.950 . S
C1715 C1706 1.390 1_455 S
C1715 H1708 0.950 . S
C1715 C1712 1.387 . S
C1716 C1717 1.387 . S
C1716 H1720 0.950 . S
C1716 C1725 1.390 1_565 S
C1717 C1716 1.387 . S
C1717 C1719 1.387 . S
H1718 C1725 0.950 . S
C1719 C1717 1.387 . S
C1719 C1721 1.390 1_565 S
C1719 H1723 0.950 . S
H1720 C1716 0.950 . S
C1721 C1719 1.390 1_545 S
C1721 C1722 1.387 . S
C1721 H1724 0.950 . S
C1722 C1721 1.387 . S
C1722 C1725 1.387 . S
H1723 C1719 0.950 . S
H1724 C1721 0.950 . S
C1725 C1716 1.390 1_545 S
C1725 H1718 0.950 . S
C1725 C1722 1.387 . S
C1726 C1727 1.387 . S
C1726 H1730 0.950 . S
C1726 C1735 1.390 1_655 S
C1727 C1726 1.387 . S
C1727 C1729 1.387 . S
H1728 C1735 0.950 . S
C1729 C1727 1.387 . S
C1729 C1731 1.390 1_655 S
C1729 H1733 0.950 . S
H1730 C1726 0.950 . S
C1731 C1729 1.390 1_455 S
C1731 C1732 1.387 . S
C1731 H1734 0.950 . S
C1732 C1731 1.387 . S
C1732 C1735 1.387 . S
H1733 C1729 0.950 . S
H1734 C1731 0.950 . S
C1735 C1726 1.390 1_455 S
C1735 H1728 0.950 . S
C1735 C1732 1.387 . S
C1736 C1737 1.387 . S
C1736 H1740 0.950 . S
C1736 C1745 1.390 1_556 S
C1737 C1736 1.387 . S
C1737 C1739 1.387 . S
H1738 C1745 0.950 . S
C1739 C1737 1.387 . S
C1739 C1741 1.390 1_556 S
C1739 H1743 0.950 . S
H1740 C1736 0.950 . S
C1741 C1739 1.390 1_554 S
C1741 C1742 1.387 . S
C1741 H1744 0.950 . S
C1742 C1741 1.387 . S
C1742 C1745 1.387 . S
H1743 C1739 0.950 . S
H1744 C1741 0.950 . S
C1745 C1736 1.390 1_554 S
C1745 H1738 0.950 . S
C1745 C1742 1.387 . S
C1746 C1747 1.387 . S
C1746 H1750 0.950 . S
C1746 C1755 1.390 1_556 S
C1747 C1746 1.387 . S
C1747 C1749 1.387 . S
H1748 C1755 0.950 . S
C1749 C1747 1.387 . S
C1749 C1751 1.390 1_556 S
C1749 H1753 0.950 . S
H1750 C1746 0.950 . S
C1751 C1749 1.390 1_554 S
C1751 C1752 1.387 . S
C1751 H1754 0.950 . S
C1752 C1751 1.387 . S
C1752 C1755 1.387 . S
H1753 C1749 0.950 . S
H1754 C1751 0.950 . S
C1755 C1746 1.390 1_554 S
C1755 H1748 0.950 . S
C1755 C1752 1.387 . S
C1756 C1757 1.387 . S
C1756 H1760 0.950 . S
C1756 C1765 1.390 1_556 S
C1757 C1756 1.387 . S
C1757 C1759 1.387 . S
H1758 C1765 0.950 . S
C1759 C1757 1.387 . S
C1759 C1761 1.390 1_556 S
C1759 H1763 0.950 . S
H1760 C1756 0.950 . S
C1761 C1759 1.390 1_554 S
C1761 C1762 1.387 . S
C1761 H1764 0.950 . S
C1762 C1761 1.387 . S
C1762 C1765 1.387 . S
H1763 C1759 0.950 . S
H1764 C1761 0.950 . S
C1765 C1756 1.390 1_554 S
C1765 H1758 0.950 . S
C1765 C1762 1.387 . S
C1766 C1767 1.387 . S
C1766 H1770 0.950 . S
C1766 C1775 1.390 1_556 S
C1767 C1766 1.387 . S
C1767 C1769 1.387 . S
H1768 C1775 0.950 . S
C1769 C1767 1.387 . S
C1769 C1771 1.390 1_556 S
C1769 H1773 0.950 . S
H1770 C1766 0.950 . S
C1771 C1769 1.390 1_554 S
C1771 C1772 1.387 . S
C1771 H1774 0.950 . S
C1772 C1771 1.387 . S
C1772 C1775 1.387 . S
H1773 C1769 0.950 . S
H1774 C1771 0.950 . S
C1775 C1766 1.390 1_554 S
C1775 H1768 0.950 . S
C1775 C1772 1.387 . S
C1776 C1777 1.387 . S
C1776 H1780 0.950 . S
C1776 C1785 1.390 . S
C1777 C1776 1.387 . S
C1777 C1779 1.387 . S
H1778 C1785 0.950 . S
C1779 C1777 1.387 . S
C1779 C1781 1.390 . S
C1779 H1783 0.950 . S
H1780 C1776 0.950 . S
C1781 C1779 1.390 . S
C1781 C1782 1.387 . S
C1781 H1784 0.950 . S
C1782 C1781 1.387 . S
C1782 C1785 1.387 . S
H1783 C1779 0.950 . S
H1784 C1781 0.950 . S
C1785 C1776 1.390 . S
C1785 H1778 0.950 . S
C1785 C1782 1.387 . S
C1786 C1787 1.387 . S
C1786 H1790 0.950 . S
C1786 C1795 1.390 . S
C1787 C1786 1.387 . S
C1787 C1789 1.387 . S
H1788 C1795 0.950 . S
C1789 C1787 1.387 . S
C1789 C1791 1.390 . S
C1789 H1793 0.950 . S
H1790 C1786 0.950 . S
C1791 C1789 1.390 . S
C1791 C1792 1.387 . S
C1791 H1794 0.950 . S
C1792 C1791 1.387 . S
C1792 C1795 1.387 . S
H1793 C1789 0.950 . S
H1794 C1791 0.950 . S
C1795 C1786 1.390 . S
C1795 H1788 0.950 . S
C1795 C1792 1.387 . S
C1796 C1797 1.387 . S
C1796 H1800 0.950 . S
C1796 C1805 1.390 . S
C1797 C1796 1.387 . S
C1797 C1799 1.387 . S
H1798 C1805 0.950 . S
C1799 C1797 1.387 . S
C1799 C1801 1.390 . S
C1799 H1803 0.950 . S
H1800 C1796 0.950 . S
C1801 C1799 1.390 . S
C1801 C1802 1.387 . S
C1801 H1804 0.950 . S
C1802 C1801 1.387 . S
C1802 C1805 1.387 . S
H1803 C1799 0.950 . S
H1804 C1801 0.950 . S
C1805 C1796 1.390 . S
C1805 H1798 0.950 . S
C1805 C1802 1.387 . S
C1806 C1807 1.387 . S
C1806 H1810 0.950 . S
C1806 C1815 1.390 . S
C1807 C1806 1.387 . S
C1807 C1809 1.387 . S
H1808 C1815 0.950 . S
C1809 C1807 1.387 . S
C1809 C1811 1.390 . S
C1809 H1813 0.950 . S
H1810 C1806 0.950 . S
C1811 C1809 1.390 . S
C1811 C1812 1.387 . S
C1811 H1814 0.950 . S
C1812 C1811 1.387 . S
C1812 C1815 1.387 . S
H1813 C1809 0.950 . S
H1814 C1811 0.950 . S
C1815 C1806 1.390 . S
C1815 H1808 0.950 . S
C1815 C1812 1.387 . S
C1816 C1817 1.387 . S
C1816 H1820 0.950 . S
C1816 C1825 1.390 . S
C1817 C1816 1.387 . S
C1817 C1819 1.387 . S
H1818 C1825 0.950 . S
C1819 C1817 1.387 . S
C1819 C1821 1.390 . S
C1819 H1823 0.950 . S
H1820 C1816 0.950 . S
C1821 C1819 1.390 . S
C1821 C1822 1.387 . S
C1821 H1824 0.950 . S
C1822 C1821 1.387 . S
C1822 C1825 1.387 . S
H1823 C1819 0.950 . S
H1824 C1821 0.950 . S
C1825 C1816 1.390 . S
C1825 H1818 0.950 . S
C1825 C1822 1.387 . S
C1826 C1827 1.387 . S
C1826 H1830 0.950 . S
C1826 C1835 1.390 . S
C1827 C1826 1.387 . S
C1827 C1829 1.387 . S
H1828 C1835 0.950 . S
C1829 C1827 1.387 . S
C1829 C1831 1.390 . S
C1829 H1833 0.950 . S
H1830 C1826 0.950 . S
C1831 C1829 1.390 . S
C1831 C1832 1.387 . S
C1831 H1834 0.950 . S
C1832 C1831 1.387 . S
C1832 C1835 1.387 . S
H1833 C1829 0.950 . S
H1834 C1831 0.950 . S
C1835 C1826 1.390 . S
C1835 H1828 0.950 . S
C1835 C1832 1.387 . S
C1836 C1837 1.387 . S
C1836 H1840 0.950 . S
C1836 C1845 1.390 . S
C1837 C1836 1.387 . S
C1837 C1839 1.387 . S
H1838 C1845 0.950 . S
C1839 C1837 1.387 . S
C1839 C1841 1.390 . S
C1839 H1843 0.950 . S
H1840 C1836 0.950 . S
C1841 C1839 1.390 . S
C1841 C1842 1.387 . S
C1841 H1844 0.950 . S
C1842 C1841 1.387 . S
C1842 C1845 1.387 . S
H1843 C1839 0.950 . S
H1844 C1841 0.950 . S
C1845 C1836 1.390 . S
C1845 H1838 0.950 . S
C1845 C1842 1.387 . S
C1846 C1847 1.387 . S
C1846 H1850 0.950 . S
C1846 C1855 1.390 . S
C1847 C1846 1.387 . S
C1847 C1849 1.387 . S
H1848 C1855 0.950 . S
C1849 C1847 1.387 . S
C1849 C1851 1.390 . S
C1849 H1853 0.950 . S
H1850 C1846 0.950 . S
C1851 C1849 1.390 . S
C1851 C1852 1.387 . S
C1851 H1854 0.950 . S
C1852 C1851 1.387 . S
C1852 C1855 1.387 . S
H1853 C1849 0.950 . S
H1854 C1851 0.950 . S
C1855 C1846 1.390 . S
C1855 H1848 0.950 . S
C1855 C1852 1.387 . S
C1856 C1857 1.387 . S
C1856 H1860 0.950 . S
C1856 C1865 1.390 . S
C1857 C1856 1.387 . S
C1857 C1859 1.387 . S
H1858 C1865 0.950 . S
C1859 C1857 1.387 . S
C1859 C1861 1.390 . S
C1859 H1863 0.950 . S
H1860 C1856 0.950 . S
C1861 C1859 1.390 . S
C1861 C1862 1.387 . S
C1861 H1864 0.950 . S
C1862 C1861 1.387 . S
C1862 C1865 1.387 . S
H1863 C1859 0.950 . S
H1864 C1861 0.950 . S
C1865 C1856 1.390 . S
C1865 H1858 0.950 . S
C1865 C1862 1.387 . S
C1866 C1867 1.387 . S
C1866 H1870 0.950 . S
C1866 C1875 1.390 . S
C1867 C1866 1.387 . S
C1867 C1869 1.387 . S
H1868 C1875 0.950 . S
C1869 C1867 1.387 . S
C1869 C1871 1.390 . S
C1869 H1873 0.950 . S
H1870 C1866 0.950 . S
C1871 C1869 1.390 . S
C1871 C1872 1.387 . S
C1871 H1874 0.950 . S
C1872 C1871 1.387 . S
C1872 C1875 1.387 . S
H1873 C1869 0.950 . S
H1874 C1871 0.950 . S
C1875 C1866 1.390 . S
C1875 H1868 0.950 . S
C1875 C1872 1.387 . S
C1876 C1877 1.387 . S
C1876 H1880 0.950 . S
C1876 C1885 1.390 . S
C1877 C1876 1.387 . S
C1877 C1879 1.387 . S
H1878 C1885 0.950 . S
C1879 C1877 1.387 . S
C1879 C1881 1.390 . S
C1879 H1883 0.950 . S
H1880 C1876 0.950 . S
C1881 C1879 1.390 . S
C1881 C1882 1.387 . S
C1881 H1884 0.950 . S
C1882 C1881 1.387 . S
C1882 C1885 1.387 . S
H1883 C1879 0.950 . S
H1884 C1881 0.950 . S
C1885 C1876 1.390 . S
C1885 H1878 0.950 . S
C1885 C1882 1.387 . S
C1886 C1887 1.387 . S
C1886 H1890 0.950 . S
C1886 C1895 1.390 . S
C1887 C1886 1.387 . S
C1887 C1889 1.387 . S
H1888 C1895 0.950 . S
C1889 C1887 1.387 . S
C1889 C1891 1.390 . S
C1889 H1893 0.950 . S
H1890 C1886 0.950 . S
C1891 C1889 1.390 . S
C1891 C1892 1.387 . S
C1891 H1894 0.950 . S
C1892 C1891 1.387 . S
C1892 C1895 1.387 . S
H1893 C1889 0.950 . S
H1894 C1891 0.950 . S
C1895 C1886 1.390 . S
C1895 H1888 0.950 . S
C1895 C1892 1.387 . S
C1417 C682 1.649 . S
C1422 C3 1.566 . S
C1427 C62 1.566 . S
C1432 C505 1.649 . S
C1437 C121 1.566 . S
C1442 C564 1.649 . S
C1447 C180 1.566 . S
C1452 C623 1.649 . S
C1457 C800 1.649 . S
C1462 C239 1.567 . S
C1467 C298 1.567 . S
C1472 C859 1.649 . S
C1477 C918 1.649 . S
C1482 C357 1.566 . S
C1487 C741 1.650 . S
C1492 C416 1.564 . S
C1497 C328 1.649 . S
C1502 C475 1.567 . S
C1507 C387 1.650 . S
C1512 C534 1.563 . S
C1517 C593 1.563 . S
C1522 C446 1.650 . S
C1527 C269 1.649 . S
C1532 C652 1.567 . S
C1537 C210 1.650 . S
C1542 C711 1.563 . S
C1547 C770 1.563 . S
C1552 C33 1.650 . S
C1557 C829 1.567 . S
C1562 C92 1.649 . S
C1567 C888 1.563 . S
C1572 C151 1.650 . S
C1577 C947 1.566 . S
C1582 C1390 1.649 . S
C1587 C1213 1.649 . S
C1592 C1006 1.566 . S
C1597 C1065 1.563 . S
C1602 C1036 1.650 . S
C1607 C1124 1.563 . S
C1612 C1095 1.650 . S
C1617 C1154 1.649 . S
C1622 C1183 1.567 . S
C1627 C1242 1.567 . S
C1632 C1331 1.649 . S
C1637 C977 1.650 . S
C1642 C1301 1.563 . S
C1647 C1272 1.650 . S
C1652 C1360 1.563 . S
C1657 C52 1.614 . S
C1662 C406 1.614 . S
C1667 C111 1.614 . S
C1672 C465 1.614 . S
C1677 C170 1.614 . S
C1682 C288 1.614 . S
C1687 C347 1.614 . S
C1692 C229 1.614 . S
C1697 C642 1.614 . S
C1702 C524 1.614 . S
C1707 C583 1.614 . S
C1712 C701 1.614 . S
C1717 C760 1.614 . S
C1722 C878 1.614 . S
C1727 C937 1.614 . S
C1732 C819 1.614 . S
C1737 C1055 1.614 . S
C1742 C996 1.614 . S
C1747 C1114 1.614 . S
C1752 C1409 1.614 . S
C1757 C1173 1.614 . S
C1762 C1291 1.614 . S
C1767 C1232 1.614 . S
C1772 C1350 1.614 . S
C1777 C5 1.241 . S
C1782 C300 1.241 . S
C1787 C64 1.241 . S
C1792 C359 1.241 . S
C1797 C123 1.242 . S
C1802 C418 1.242 . S
C1807 C241 1.241 . S
C1812 C182 1.242 . S
C1817 C477 1.242 . S
C1822 C1362 1.241 . S
C1827 C536 1.242 . S
C1832 C1244 1.241 . S
C1837 C1303 1.241 . S
C1842 C595 1.240 . S
C1847 C654 1.241 . S
C1852 C949 1.242 . S
C1857 C1185 1.242 . S
C1862 C713 1.242 . S
C1867 C1008 1.242 . S
C1872 C772 1.242 . S
C1877 C831 1.242 . S
C1882 C1067 1.242 . S
C1887 C1126 1.242 . S
C1892 C890 1.241 . S
