# Generated by pormake.
# Topology snz, (6)-cn, num edge types: 1
# Building blocks:
#     Node 0, Type 0, BuildingBlock: BETFEN_clean_sbu_0, # of connection points: 6
#     Node 1, Type 0, BuildingBlock: BETFEN_clean_sbu_0, # of connection points: 6
#     Node 2, Type 0, BuildingBlock: BETFEN_clean_sbu_0, # of connection points: 6
#     Node 3, Type 0, BuildingBlock: BETFEN_clean_sbu_0, # of connection points: 6
#     Node 4, Type 0, BuildingBlock: BETFEN_clean_sbu_0, # of connection points: 6
#     Node 5, Type 0, BuildingBlock: BETFEN_clean_sbu_0, # of connection points: 6
#     Node 6, Type 0, BuildingBlock: BETFEN_clean_sbu_0, # of connection points: 6
#     Node 7, Type 0, BuildingBlock: BETFEN_clean_sbu_0, # of connection points: 6
#     Node 8, Type 0, BuildingBlock: BETFEN_clean_sbu_0, # of connection points: 6
#     Edge 9, Type (0, 0), BuildingBlock: KIFKEQ_clean_linker_1, # of connection points: 2
#     Edge 10, Type (0, 0), BuildingBlock: KIFKEQ_clean_linker_1, # of connection points: 2
#     Edge 11, Type (0, 0), BuildingBlock: KIFKEQ_clean_linker_1, # of connection points: 2
#     Edge 12, Type (0, 0), BuildingBlock: KIFKEQ_clean_linker_1, # of connection points: 2
#     Edge 13, Type (0, 0), BuildingBlock: KIFKEQ_clean_linker_1, # of connection points: 2
#     Edge 14, Type (0, 0), BuildingBlock: KIFKEQ_clean_linker_1, # of connection points: 2
#     Edge 15, Type (0, 0), BuildingBlock: KIFKEQ_clean_linker_1, # of connection points: 2
#     Edge 16, Type (0, 0), BuildingBlock: KIFKEQ_clean_linker_1, # of connection points: 2
#     Edge 17, Type (0, 0), BuildingBlock: KIFKEQ_clean_linker_1, # of connection points: 2
#     Edge 18, Type (0, 0), BuildingBlock: KIFKEQ_clean_linker_1, # of connection points: 2
#     Edge 19, Type (0, 0), BuildingBlock: KIFKEQ_clean_linker_1, # of connection points: 2
#     Edge 20, Type (0, 0), BuildingBlock: KIFKEQ_clean_linker_1, # of connection points: 2
#     Edge 21, Type (0, 0), BuildingBlock: KIFKEQ_clean_linker_1, # of connection points: 2
#     Edge 22, Type (0, 0), BuildingBlock: KIFKEQ_clean_linker_1, # of connection points: 2
#     Edge 23, Type (0, 0), BuildingBlock: KIFKEQ_clean_linker_1, # of connection points: 2
#     Edge 24, Type (0, 0), BuildingBlock: KIFKEQ_clean_linker_1, # of connection points: 2
#     Edge 25, Type (0, 0), BuildingBlock: KIFKEQ_clean_linker_1, # of connection points: 2
#     Edge 26, Type (0, 0), BuildingBlock: KIFKEQ_clean_linker_1, # of connection points: 2
#     Edge 27, Type (0, 0), BuildingBlock: KIFKEQ_clean_linker_1, # of connection points: 2
#     Edge 28, Type (0, 0), BuildingBlock: KIFKEQ_clean_linker_1, # of connection points: 2
#     Edge 29, Type (0, 0), BuildingBlock: KIFKEQ_clean_linker_1, # of connection points: 2
#     Edge 30, Type (0, 0), BuildingBlock: KIFKEQ_clean_linker_1, # of connection points: 2
#     Edge 31, Type (0, 0), BuildingBlock: KIFKEQ_clean_linker_1, # of connection points: 2
#     Edge 32, Type (0, 0), BuildingBlock: KIFKEQ_clean_linker_1, # of connection points: 2
#     Edge 33, Type (0, 0), BuildingBlock: KIFKEQ_clean_linker_1, # of connection points: 2
#     Edge 34, Type (0, 0), BuildingBlock: KIFKEQ_clean_linker_1, # of connection points: 2
#     Edge 35, Type (0, 0), BuildingBlock: KIFKEQ_clean_linker_1, # of connection points: 2
# Relax obj value: 0.429
# Max RMSD: 0.269
# Mean RMSD: 0.177
data_MOF--net-snz--node1-BETFEN_clean_sbu_0--edge1-KIFKEQ_clean_linker_1
_symmetry_space_group_name_H-M    P1
_symmetry_Int_Tables_number       1
_symmetry_cell_setting            triclinic
loop_
_symmetry_equiv_pos_as_xyz
'x, y, z'
_cell_length_a     69.478257
_cell_length_b     56.140815
_cell_length_c     16.211332
_cell_angle_alpha  95.841168
_cell_angle_beta   97.384327
_cell_angle_gamma 121.14283
loop_
_atom_site_label
_atom_site_type_symbol
_atom_site_fract_x
_atom_site_fract_y
_atom_site_fract_z
_atom_type_partial_charge
Pr0 Pr 0.12383 0.49929 0.23492 0.0
Pr1 Pr 0.08855 0.50391 0.23356 0.0
C2 C 0.15642 0.48614 0.26305 0.0
C3 C 0.16211 0.46694 0.30102 0.0
C4 C 0.16948 0.45234 0.25215 0.0
C5 C 0.17688 0.43599 0.28792 0.0
C6 C 0.17723 0.4339 0.3739 0.0
C7 C 0.1692 0.44794 0.42225 0.0
C8 C 0.16175 0.46429 0.38629 0.0
C9 C 0.11425 0.5088 1.06695 0.0
C10 C 0.07264 0.43912 0.17724 0.0
C11 C 0.05613 0.51732 0.22718 0.0
C12 C 0.04793 0.53447 0.19163 0.0
C13 C 0.04173 0.5493 0.24575 0.0
C14 C 0.03244 0.56425 0.21374 0.0
C15 C 0.02905 0.56463 0.12658 0.0
C16 C 0.03582 0.5503 1.07264 0.0
C17 C 0.04517 0.53535 0.10485 0.0
C18 C 0.09943 0.49396 0.4002 0.0
C19 C 0.13768 0.56455 0.26432 0.0
O20 O 0.1405 0.47539 0.19398 0.0
O21 O 0.15607 0.50539 0.31383 0.0
O22 O 0.09892 0.49307 0.10681 0.0
O23 O 0.13439 0.52143 0.11715 0.0
O24 O 0.06549 0.45628 0.16683 0.0
O25 O 0.09422 0.45021 0.21568 0.0
O26 O 0.05365 0.49589 0.17651 0.0
O27 O 0.07531 0.53076 0.28393 0.0
O28 O 0.11387 0.51101 0.36045 0.0
O29 O 0.07944 0.47945 0.34894 0.0
O30 O 0.14594 0.54901 0.28458 0.0
O31 O 0.11587 0.5513 0.22684 0.0
H32 H 0.16994 0.454 0.18633 0.0
H33 H 0.18248 0.42511 0.24805 0.0
H34 H 0.16936 0.44706 0.48873 0.0
H35 H 0.15618 0.47531 0.42576 0.0
H36 H 0.04377 0.54897 0.31296 0.0
H37 H 0.02781 0.57542 0.25733 0.0
H38 H 0.03327 0.54992 1.00509 0.0
H39 H 0.04984 0.5241 1.06171 0.0
Pr40 Pr 0.62862 0.51457 1.06324 0.0
Pr41 Pr 0.59154 0.51533 1.03349 0.0
C42 C 0.67136 0.52333 1.07457 0.0
C43 C 0.69334 0.53903 1.04504 0.0
C44 C 0.71394 0.55796 0.10474 0.0
C45 C 0.73515 0.57144 0.07989 0.0
C46 C 0.73639 0.56624 0.9945 0.0
C47 C 0.71567 0.54756 0.9345 0.0
C48 C 0.69444 0.53413 0.95939 0.0
C49 C 0.61219 0.50787 0.22032 0.0
C50 C 0.63575 0.57787 0.09124 0.0
C51 C 0.54908 0.50675 1.02367 0.0
C52 C 0.53208 0.49706 0.07806 0.0
C53 C 0.51033 0.49254 1.04955 0.0
C54 C 0.49381 0.48241 0.09974 0.0
C55 C 0.49876 0.4766 0.17952 0.0
C56 C 0.52073 0.48139 0.20798 0.0
C57 C 0.53722 0.49149 0.15767 0.0
C58 C 0.60801 0.52141 0.87611 0.0
C59 C 0.58265 0.45152 1.01609 0.0
O60 O 0.65308 0.50278 1.02078 0.0
O61 O 0.6666 0.53781 0.12678 0.0
O62 O 0.61243 0.52491 0.17295 0.0
O63 O 0.61905 0.49286 0.18321 0.0
O64 O 0.61454 0.5631 0.10126 0.0
O65 O 0.64431 0.56365 1.05976 0.0
O66 O 0.56809 0.53138 1.05279 0.0
O67 O 0.55272 0.4878 0.98959 0.0
O68 O 0.60736 0.50432 0.92387 0.0
O69 O 0.60147 0.5368 0.91296 0.0
O70 O 0.60425 0.46506 1.00878 0.0
O71 O 0.57461 0.46692 1.04219 0.0
H72 H 0.7137 0.56193 0.17131 0.0
H73 H 0.75066 0.58534 0.1282 0.0
H74 H 0.71585 0.5433 0.86802 0.0
H75 H 0.67893 0.51967 0.9116 0.0
H76 H 0.50606 0.49671 0.98823 0.0
H77 H 0.47721 0.47934 1.07627 0.0
H78 H 0.52507 0.47682 0.26844 0.0
H79 H 0.55391 0.4947 0.1805 0.0
Pr80 Pr 0.5882 0.05042 0.86905 0.0
Pr81 Pr 0.62944 0.09668 0.91426 0.0
C82 C 0.5431 1.00872 0.84272 0.0
C83 C 0.52626 0.99507 0.89592 0.0
C84 C 0.5035 0.9736 0.85783 0.0
C85 C 0.48704 0.96148 0.90743 0.0
C86 C 0.49306 0.97064 0.99623 0.0
C87 C 0.51607 0.99196 1.03421 0.0
C88 C 0.53251 1.00408 0.98447 0.0
C89 C 0.60501 0.06422 0.71405 0.0
C90 C 0.58832 0.10832 0.90077 0.0
C91 C 0.67466 0.13587 0.91851 0.0
C92 C 0.69717 0.13838 0.91921 0.0
C93 C 0.71753 0.16538 0.93547 0.0
C94 C 0.73862 0.1685 0.92771 0.0
C95 C 0.74003 0.14467 0.90367 0.0
C96 C 0.71964 0.11754 0.88958 0.0
C97 C 0.69848 0.11446 0.89667 0.0
C98 C 0.61352 0.08504 1.07078 0.0
C99 C 0.6259 0.03598 0.92225 0.0
O100 O 0.5596 1.00386 0.84728 0.0
O101 O 0.55042 0.03524 0.84205 0.0
O102 O 0.6064 0.08161 0.77563 0.0
O103 O 0.59652 0.03975 0.73617 0.0
O104 O 0.60914 0.11957 0.88497 0.0
O105 O 0.57849 0.08279 0.9179 0.0
O106 O 0.65889 0.12157 0.84934 0.0
O107 O 0.66603 0.13133 0.98635 0.0
O108 O 0.61065 0.06636 1.00925 0.0
O109 O 0.6237 0.10982 1.04921 0.0
O110 O 0.6045 0.0268 0.92461 0.0
O111 O 0.63859 0.06122 0.90426 0.0
H112 H 0.49838 0.96639 0.78956 0.0
H113 H 0.46961 0.94484 0.87614 0.0
H114 H 0.52128 0.99977 0.10219 0.0
H115 H 0.55002 0.02078 1.01495 0.0
H116 H 0.71706 0.18421 0.9524 0.0
H117 H 0.75387 0.18972 0.94031 0.0
H118 H 0.71984 0.09865 0.87017 0.0
H119 H 0.68305 0.09341 0.88237 0.0
Pr120 Pr 0.78086 0.85579 0.30374 0.0
Pr121 Pr 0.74611 0.86133 0.3023 0.0
C122 C 0.81279 0.84155 0.31153 0.0
C123 C 0.82307 0.82793 0.35709 0.0
C124 C 0.8471 0.84215 0.38022 0.0
C125 C 0.85751 0.82881 0.41555 0.0
C126 C 0.84411 0.80082 0.42822 0.0
C127 C 0.81996 0.78686 0.40728 0.0
C128 C 0.80953 0.80027 0.37196 0.0
C129 C 0.77044 0.8658 0.13644 0.0
C130 C 0.7315 0.79568 0.27194 0.0
C131 C 0.71403 0.8754 0.27503 0.0
C132 C 0.70823 0.89449 0.23684 0.0
C133 C 0.7007 0.90895 0.28551 0.0
C134 C 0.69316 0.92516 0.24959 0.0
C135 C 0.69283 0.9273 0.16363 0.0
C136 C 0.70098 0.91337 0.11544 0.0
C137 C 0.70855 0.89713 0.15154 0.0
C138 C 0.75532 0.85129 0.46996 0.0
C139 C 0.79764 0.92052 0.36422 0.0
O140 O 0.81728 0.86609 0.34878 0.0
O141 O 0.79183 0.82536 0.26679 0.0
O142 O 0.75577 0.84923 0.17638 0.0
O143 O 0.79044 0.87966 0.18739 0.0
O144 O 0.72361 0.81156 0.25128 0.0
O145 O 0.75318 0.80862 0.31062 0.0
O146 O 0.71394 0.85575 0.22447 0.0
O147 O 0.73025 0.88629 0.34321 0.0
O148 O 0.77072 0.867 0.43038 0.0
O149 O 0.73522 0.839 0.41969 0.0
O150 O 0.80388 0.90265 0.37726 0.0
O151 O 0.77652 0.91013 0.32172 0.0
H152 H 0.85789 0.86346 0.36926 0.0
H153 H 0.87612 0.84042 0.43246 0.0
H154 H 0.80911 0.76526 0.41569 0.0
H155 H 0.79093 0.78875 0.35455 0.0
H156 H 0.70023 0.90729 0.35132 0.0
H157 H 0.68747 0.93595 0.28938 0.0
H158 H 0.70085 0.91427 1.04899 0.0
H159 H 0.71422 0.8862 0.11219 0.0
Pr160 Pr 0.27754 0.84496 0.48971 0.0
Pr161 Pr 0.24061 0.8458 0.45965 0.0
C162 C 0.32005 0.85369 0.50014 0.0
C163 C 0.33747 0.86466 0.44767 0.0
C164 C 0.3594 0.86982 0.4772 0.0
C165 C 0.37624 0.88105 0.42863 0.0
C166 C 0.37145 0.88737 0.34956 0.0
C167 C 0.34932 0.88199 0.3202 0.0
C168 C 0.33251 0.87078 0.36883 0.0
C169 C 0.26119 0.83896 0.64721 0.0
C170 C 0.28655 0.90867 0.50624 0.0
C171 C 0.19798 0.83746 0.44606 0.0
C172 C 0.1763 0.82317 0.47755 0.0
C173 C 0.16474 0.83726 0.48853 0.0
C174 C 0.14364 0.82396 0.51397 0.0
C175 C 0.13348 0.79611 0.52919 0.0
C176 C 0.14518 0.78203 0.51842 0.0
C177 C 0.16637 0.79542 0.493 0.0
C178 C 0.25715 0.85236 0.30278 0.0
C179 C 0.2333 0.78244 0.43481 0.0
O180 O 0.30109 0.82934 0.46719 0.0
O181 O 0.31626 0.87205 0.53757 0.0
O182 O 0.26166 0.85597 0.5994 0.0
O183 O 0.26771 0.82358 0.61029 0.0
O184 O 0.26508 0.89521 0.51509 0.0
O185 O 0.29441 0.89318 0.47917 0.0
O186 O 0.21631 0.85886 0.49727 0.0
O187 O 0.20258 0.82166 0.39874 0.0
O188 O 0.25667 0.83521 0.35012 0.0
O189 O 0.25042 0.8675 0.3398 0.0
O190 O 0.25449 0.79698 0.42449 0.0
O191 O 0.22481 0.79688 0.4653 0.0
H192 H 0.36357 0.8654 0.5382 0.0
H193 H 0.39315 0.88525 0.45378 0.0
H194 H 0.3449 0.88623 0.25923 0.0
H195 H 0.31564 0.86697 0.34506 0.0
H196 H 0.17191 0.85855 0.47625 0.0
H197 H 0.13508 0.83539 0.52015 0.0
H198 H 0.13808 0.76074 0.53046 0.0
H199 H 0.17491 0.78403 0.48502 0.0
Pr200 Pr 0.24479 0.269 0.62622 0.0
Pr201 Pr 0.28547 0.31637 0.67374 0.0
C202 C 0.19937 0.22931 0.6167 0.0
C203 C 0.17733 0.22783 0.61954 0.0
C204 C 0.15613 0.2027 0.58211 0.0
C205 C 0.13518 0.20011 0.5896 0.0
C206 C 0.13477 0.22261 0.63506 0.0
C207 C 0.15613 0.24804 0.67096 0.0
C208 C 0.17707 0.2506 0.66335 0.0
C209 C 0.2612 0.2814 0.47117 0.0
C210 C 0.24677 0.32869 0.61893 0.0
C211 C 0.33014 0.35941 0.69985 0.0
C212 C 0.34651 0.37323 0.64516 0.0
C213 C 0.36947 0.39449 0.68155 0.0
C214 C 0.38549 0.40646 0.63021 0.0
C215 C 0.37884 0.3973 0.54136 0.0
C216 C 0.35565 0.37619 0.5052 0.0
C217 C 0.33965 0.36426 0.55662 0.0
C218 C 0.26818 0.30185 0.82721 0.0
C219 C 0.28718 0.25938 0.6455 0.0
O220 O 0.21509 0.24108 0.68659 0.0
O221 O 0.20825 0.236 0.55017 0.0
O222 O 0.26356 0.29984 0.53232 0.0
O223 O 0.25152 0.25662 0.4928 0.0
O224 O 0.26817 0.33841 0.61529 0.0
O225 O 0.23472 0.30359 0.63851 0.0
O226 O 0.32356 0.33314 0.70127 0.0
O227 O 0.31315 0.36337 0.69572 0.0
O228 O 0.26739 0.28479 0.76612 0.0
O229 O 0.27635 0.32633 0.80532 0.0
O230 O 0.26554 0.24648 0.65354 0.0
O231 O 0.29699 0.28539 0.63224 0.0
H232 H 0.15575 0.18473 0.54839 0.0
H233 H 0.1193 0.18007 0.56176 0.0
H234 H 0.15674 0.26608 0.70524 0.0
H235 H 0.19308 0.27029 0.6929 0.0
H236 H 0.37511 0.4015 0.74983 0.0
H237 H 0.40322 0.42237 0.66036 0.0
H238 H 0.34984 0.36888 0.43707 0.0
H239 H 0.32197 0.34779 0.52739 0.0
Pr240 Pr 0.43765 0.18231 0.6936 0.0
Pr241 Pr 0.43127 0.17568 0.84283 0.0
C242 C 0.42636 0.1749 0.52544 0.0
C243 C 0.40416 0.15049 0.47437 0.0
C244 C 0.38366 0.15025 0.47083 0.0
C245 C 0.36222 0.12521 0.43758 0.0
C246 C 0.36082 0.09986 0.40803 0.0
C247 C 0.38129 0.1003 0.40968 0.0
C248 C 0.40265 0.12529 0.4419 0.0
C249 C 0.47156 0.23572 0.79854 0.0
C250 C 0.39997 0.19462 0.75483 0.0
C251 C 0.42779 0.16367 0.99861 0.0
C252 C 0.41347 0.13545 1.01824 0.0
C253 C 0.40219 0.11131 0.95245 0.0
C254 C 0.38583 0.08477 0.96661 0.0
C255 C 0.38116 0.0819 1.04765 0.0
C256 C 0.39335 0.1058 0.11456 0.0
C257 C 0.40927 0.13248 0.09975 0.0
C258 C 0.39789 0.12378 0.72732 0.0
C259 C 0.47347 0.17 0.79364 0.0
O260 O 0.44058 0.1686 0.56188 0.0
O261 O 0.42517 0.19347 0.57618 0.0
O262 O 0.45101 0.22073 0.80881 0.0
O263 O 0.47477 0.22311 0.73522 0.0
O264 O 0.41375 0.20182 0.82867 0.0
O265 O 0.40252 0.18036 0.69234 0.0
O266 O 0.44481 0.16729 0.96404 0.0
O267 O 0.41634 0.17331 0.96029 0.0
O268 O 0.41922 0.13805 0.72895 0.0
O269 O 0.39323 0.13737 0.78186 0.0
O270 O 0.46256 0.16582 0.71605 0.0
O271 O 0.46702 0.17888 0.85644 0.0
H272 H 0.38412 0.16922 0.49581 0.0
H273 H 0.34674 0.12561 0.43523 0.0
H274 H 0.38086 0.08139 0.3842 0.0
H275 H 0.41801 0.12462 0.44368 0.0
H276 H 0.40555 0.11316 0.88943 0.0
H277 H 0.37654 0.06668 0.91424 0.0
H278 H 0.38968 0.10406 0.17745 0.0
H279 H 0.41771 0.15085 0.15107 0.0
Pr280 Pr 0.93868 0.16768 0.83296 0.0
Pr281 Pr 0.93421 0.19211 0.70833 0.0
C282 C 0.94546 0.15009 0.97611 0.0
C283 C 0.9668 0.15832 1.03495 0.0
C284 C 0.98748 0.16864 1.00638 0.0
C285 C 1.00847 0.18141 1.06435 0.0
C286 C 1.00909 0.18396 0.15185 0.0
C287 C 0.98812 0.17162 0.17954 0.0
C288 C 0.96719 0.15902 0.12156 0.0
C289 C 0.91427 0.12508 0.6837 0.0
C290 C 0.89146 0.16997 0.7989 0.0
C291 C 0.93801 0.21699 0.57364 0.0
C292 C 0.95986 0.23913 0.5565 0.0
C293 C 0.96245 0.24121 0.47303 0.0
C294 C 0.98445 0.25687 0.45606 0.0
C295 C 1.00422 0.27052 0.52243 0.0
C296 C 1.00135 0.27027 0.60654 0.0
C297 C 0.97935 0.25464 0.62341 0.0
C298 C 0.95849 0.23421 0.85833 0.0
C299 C 0.98087 0.18989 0.73824 0.0
O300 O 0.94202 0.1363 0.90052 0.0
O301 O 0.94077 0.1698 0.97462 0.0
O302 O 0.91004 0.14388 0.70672 0.0
O303 O 0.93266 0.12999 0.73299 0.0
O304 O 0.89643 0.17396 0.72402 0.0
O305 O 0.9065 0.17009 0.85812 0.0
O306 O 0.93563 0.19223 0.56953 0.0
O307 O 0.93205 0.22422 0.64021 0.0
O308 O 0.96286 0.21569 0.83363 0.0
O309 O 0.93989 0.22909 0.81032 0.0
O310 O 0.9766 0.18777 0.8144 0.0
O311 O 0.9649 0.18745 0.67854 0.0
H312 H 0.98755 0.16807 0.93955 0.0
H313 H 0.02425 0.19059 1.04101 0.0
H314 H 0.98791 0.17363 0.24652 0.0
H315 H 0.95144 0.15127 0.14477 0.0
H316 H 0.94766 0.2291 0.42069 0.0
H317 H 0.98593 0.2561 0.3903 0.0
H318 H 1.01613 0.2806 0.65898 0.0
H319 H 0.97772 0.25304 0.68852 0.0
Pr320 Pr 0.92563 0.65769 0.70001 0.0
Pr321 Pr 0.94715 0.70434 0.83965 0.0
C322 C 0.91402 0.62075 0.55562 0.0
C323 C 0.92979 0.61559 0.51656 0.0
C324 C 0.92283 0.59873 0.43582 0.0
C325 C 0.93928 0.59852 0.39441 0.0
C326 C 0.96305 0.61617 0.43177 0.0
C327 C 0.96941 0.63087 0.51625 0.0
C328 C 0.95295 0.63023 0.55825 0.0
C329 C 0.94532 0.64725 0.84285 0.0
C330 C 0.98026 0.70662 0.71543 0.0
C331 C 0.96806 0.7399 0.99112 0.0
C332 C 0.98958 0.74744 1.04753 0.0
C333 C 1.00747 0.74838 1.01298 0.0
C334 C 0.02414 0.74581 1.06192 0.0
C335 C 0.023 0.74188 0.14583 0.0
C336 C 1.00678 0.74464 0.18296 0.0
C337 C 0.99018 0.7473 0.13404 0.0
C338 C 0.9277 0.71617 0.69973 0.0
C339 C 0.89125 0.6549 0.81882 0.0
O340 O 0.91773 0.64612 0.55649 0.0
O341 O 0.91102 0.61302 0.6285 0.0
O342 O 0.95498 0.66971 0.81401 0.0
O343 O 0.92438 0.62995 0.80064 0.0
O344 O 0.98024 0.71172 0.79622 0.0
O345 O 0.96045 0.68997 0.66117 0.0
O346 O 0.96992 0.74881 0.91939 0.0
O347 O 0.95128 0.71341 0.98211 0.0
O348 O 0.91798 0.69291 0.72477 0.0
O349 O 0.94804 0.73385 0.74651 0.0
O350 O 0.89155 0.64759 0.73942 0.0
O351 O 0.91078 0.67369 0.8733 0.0
H352 H 0.9049 0.58675 0.40344 0.0
H353 H 0.93332 0.58571 0.33128 0.0
H354 H 0.98721 0.64485 0.54876 0.0
H355 H 0.95857 0.64274 0.62177 0.0
H356 H 1.00747 0.7486 0.94629 0.0
H357 H 0.03659 0.74425 1.03175 0.0
H358 H 1.00516 0.74153 0.24713 0.0
H359 H 0.97651 0.74645 0.1618 0.0
H360 H 0.14784 0.53376 0.97273 0.0
H361 H 0.07436 0.47885 0.93417 0.0
H362 H 0.14496 0.53014 0.82037 0.0
H363 H 0.07108 0.47578 0.78059 0.0
H364 H 0.06843 0.45955 0.49263 0.0
H365 H 0.07143 0.46257 0.6452 0.0
H366 H 0.13986 0.53734 0.68792 0.0
H367 H 0.13684 0.53341 0.53443 0.0
C368 C 0.13084 0.52095 0.93198 0.0
C369 C 0.1114 0.50667 0.96905 0.0
C370 C 0.1291 0.51894 0.8424 0.0
C371 C 0.1077 0.50259 0.78289 0.0
C372 C 0.08815 0.48841 0.82047 0.0
C373 C 0.08996 0.49032 0.91048 0.0
C374 C 0.08428 0.47665 0.5342 0.0
C375 C 0.10237 0.49608 0.49805 0.0
C376 C 0.08601 0.47863 0.62383 0.0
C377 C 0.10594 0.50037 0.68415 0.0
C378 C 0.12411 0.51982 0.6474 0.0
C379 C 0.1224 0.51768 0.55744 0.0
H380 H 0.61007 0.48114 0.76368 0.0
H381 H 0.60832 0.5566 0.76679 0.0
H382 H 0.61029 0.47755 0.61212 0.0
H383 H 0.60935 0.55394 0.61675 0.0
H384 H 0.60011 0.5396 0.32429 0.0
H385 H 0.59883 0.54224 0.47499 0.0
H386 H 0.62149 0.48395 0.48867 0.0
H387 H 0.62186 0.48078 0.33819 0.0
C388 C 0.60994 0.49726 0.73266 0.0
C389 C 0.60917 0.51921 0.78053 0.0
C390 C 0.61017 0.49534 0.64383 0.0
C391 C 0.60982 0.51537 0.59689 0.0
C392 C 0.60926 0.53743 0.64594 0.0
C393 C 0.60885 0.53918 0.73428 0.0
C394 C 0.60478 0.52723 0.35917 0.0
C395 C 0.6111 0.50993 0.31599 0.0
C396 C 0.60422 0.52885 0.44772 0.0
C397 C 0.61012 0.51344 0.49935 0.0
C398 C 0.61641 0.49616 0.45514 0.0
C399 C 0.61678 0.49439 0.36678 0.0
H400 H 0.61327 0.11057 0.63508 0.0
H401 H 0.60048 0.02663 0.5757 0.0
H402 H 0.61457 0.11501 0.48682 0.0
H403 H 0.6024 0.03101 0.42861 0.0
H404 H 0.59552 0.03583 0.14321 0.0
H405 H 0.59328 0.03119 0.29081 0.0
H406 H 0.62617 0.12194 0.36352 0.0
H407 H 0.6276 0.12607 0.21601 0.0
C408 C 0.61088 0.09296 0.59094 0.0
C409 C 0.60674 0.06816 0.62064 0.0
C410 C 0.61172 0.0955 0.50388 0.0
C411 C 0.60861 0.07346 0.44035 0.0
C412 C 0.60463 0.04876 0.47117 0.0
C413 C 0.60366 0.04622 0.55781 0.0
C414 C 0.60226 0.0549 0.1904 0.0
C415 C 0.61178 0.08141 0.1644 0.0
C416 C 0.60113 0.05231 0.27727 0.0
C417 C 0.60956 0.0761 0.3445 0.0
C418 C 0.61904 0.10257 0.3175 0.0
C419 C 0.62003 0.10508 0.23084 0.0
H420 H 0.72167 0.82692 0.56435 0.0
H421 H 0.79525 0.88046 0.6023 0.0
H422 H 0.72462 0.83048 0.71672 0.0
H423 H 0.79859 0.88341 0.75579 0.0
H424 H 0.80173 0.89952 1.04389 0.0
H425 H 0.79864 0.89657 0.89137 0.0
H426 H 0.72947 0.82325 0.84904 0.0
H427 H 0.73261 0.82714 1.00254 0.0
C428 C 0.7387 0.8394 0.60497 0.0
C429 C 0.75815 0.85333 0.56778 0.0
C430 C 0.74048 0.84138 0.69455 0.0
C431 C 0.76193 0.85731 0.75386 0.0
C432 C 0.78148 0.87112 0.71611 0.0
C433 C 0.77964 0.86927 0.62613 0.0
C434 C 0.78571 0.88275 1.00241 0.0
C435 C 0.76746 0.86373 1.03865 0.0
C436 C 0.78392 0.88082 0.91279 0.0
C437 C 0.76375 0.8595 0.85259 0.0
C438 C 0.74541 0.84044 0.88945 0.0
C439 C 0.74719 0.84256 0.97942 0.0
H440 H 0.26056 0.80349 0.75593 0.0
H441 H 0.2595 0.87944 0.76012 0.0
H442 H 0.25958 0.8061 0.90598 0.0
H443 H 0.25936 0.883 0.91169 0.0
H444 H 0.24793 0.87988 0.18554 0.0
H445 H 0.24826 0.87674 1.03511 0.0
H446 H 0.27004 0.81755 1.04766 0.0
H447 H 0.26877 0.82017 0.19838 0.0
C448 C 0.2602 0.82101 0.7887 0.0
C449 C 0.26005 0.84113 0.74276 0.0
C450 C 0.25982 0.82273 0.87703 0.0
C451 C 0.25947 0.84491 0.92637 0.0
C452 C 0.2593 0.8651 0.87974 0.0
C453 C 0.25949 0.8632 0.79091 0.0
C454 C 0.2528 0.86607 0.1567 0.0
C455 C 0.25823 0.85027 0.20717 0.0
C456 C 0.25315 0.86432 1.06837 0.0
C457 C 0.25919 0.84681 1.02388 0.0
C458 C 0.26485 0.83114 1.07518 0.0
C459 C 0.2643 0.83274 0.16373 0.0
H460 H 0.27166 0.33883 0.96484 0.0
H461 H 0.2614 0.25615 0.90699 0.0
H462 H 0.27011 0.33454 0.11217 0.0
H463 H 0.2605 0.25184 1.05551 0.0
H464 H 0.2479 0.24051 0.32657 0.0
H465 H 0.24895 0.24453 0.17884 0.0
H466 H 0.27988 0.33497 0.25013 0.0
H467 H 0.278 0.3304 0.39799 0.0
C468 C 0.26911 0.31954 0.98312 0.0
C469 C 0.26662 0.29791 0.92067 0.0
C470 C 0.26838 0.31706 1.06989 0.0
C471 C 0.26523 0.29276 0.10119 0.0
C472 C 0.26268 0.27102 1.03804 0.0
C473 C 0.2633 0.27349 0.95084 0.0
C474 C 0.25497 0.26141 0.31139 0.0
C475 C 0.26278 0.28501 0.37749 0.0
C476 C 0.25573 0.26385 0.2246 0.0
C477 C 0.26453 0.2902 0.19716 0.0
C478 C 0.27254 0.31393 0.26406 0.0
C479 C 0.27163 0.3114 0.35106 0.0
H480 H 0.32773 0.09617 0.28695 0.0
H481 H 0.3432 0.04432 0.4251 0.0
H482 H 0.30777 0.05808 0.1651 0.0
H483 H 0.32288 1.0057 0.30169 0.0
H484 H 0.33568 0.05523 0.97419 0.0
H485 H 0.30492 0.02814 1.04738 0.0
H486 H 0.35291 0.02182 0.22766 0.0
H487 H 0.3831 0.04877 0.15502 0.0
C488 C 0.3258 0.07605 0.293 0.0
C489 C 0.33874 0.07397 0.36249 0.0
C490 C 0.31418 0.0538 0.22248 0.0
C491 C 0.31705 0.03061 0.22016 0.0
C492 C 0.32264 0.02475 0.29904 0.0
C493 C 0.33449 0.04699 0.36987 0.0
C494 C 0.3392 0.04668 1.02702 0.0
C495 C 0.36188 0.05526 1.0624 0.0
C496 C 0.32156 0.03109 1.06908 0.0
C497 C 0.32692 0.02537 0.14861 0.0
C498 C 0.34819 0.02744 0.16995 0.0
C499 C 0.36581 0.04312 0.12853 0.0
H500 H 0.02313 0.29866 0.39735 0.0
H501 H 0.03736 0.26258 0.60145 0.0
H502 H 0.04745 0.29025 0.32277 0.0
H503 H 0.06322 0.25591 0.52961 0.0
H504 H 0.04435 0.23647 0.13869 0.0
H505 H 0.06778 0.27548 0.25894 0.0
H506 H 0.0459 0.21583 0.42784 0.0
H507 H 0.02377 0.17711 0.30788 0.0
C508 C 0.03233 0.29009 0.42812 0.0
C509 C 0.02695 0.27932 0.50191 0.0
C510 C 0.04668 0.28545 0.38563 0.0
C511 C 0.05569 0.26976 0.41642 0.0
C512 C 0.05514 0.26604 0.50089 0.0
C513 C 0.04039 0.27015 0.54274 0.0
C514 C 0.04555 0.23154 0.20129 0.0
C515 C 0.03092 0.20392 0.21463 0.0
C516 C 0.05889 0.25407 0.27074 0.0
C517 C 0.05677 0.24921 0.35359 0.0
C518 C 0.04694 0.22097 0.36547 0.0
C519 C 0.03394 0.19844 0.29621 0.0
H520 H 0.95786 0.61316 0.25837 0.0
H521 H 1.00981 0.63676 0.4835 0.0
H522 H 0.98726 0.64142 0.1863 0.0
H523 H 0.03938 0.66762 0.41152 0.0
H524 H 0.0279 0.70025 1.06889 0.0
H525 H 0.0253 0.66225 0.13579 0.0
H526 H 0.03859 0.71194 0.38096 0.0
H527 H 0.04185 0.75037 0.31474 0.0
C528 C 0.97547 0.62335 0.29245 0.0
C529 C 0.98102 0.62378 0.37949 0.0
C530 C 0.99259 0.63979 0.25021 0.0
C531 C 1.01562 0.6575 0.29413 0.0
C532 C 1.02168 0.65458 0.37667 0.0
C533 C 1.00454 0.6373 0.41833 0.0
C534 C 0.03169 0.70393 0.13746 0.0
C535 C 0.0337 0.72765 0.18628 0.0
C536 C 0.0302 0.68201 0.17573 0.0
C537 C 0.03057 0.6836 0.26289 0.0
C538 C 0.03777 0.70985 0.31333 0.0
C539 C 0.03935 0.73183 0.27514 0.0
H540 H 0.2685 0.38284 0.59107 0.0
H541 H 0.20092 0.31096 0.58832 0.0
H542 H 0.25143 0.40811 0.53728 0.0
H543 H 0.18365 0.33609 0.53199 0.0
H544 H 0.16185 0.40004 0.49268 0.0
H545 H 0.17831 0.3754 0.55848 0.0
H546 H 0.23021 0.40654 0.40761 0.0
H547 H 0.2145 0.43202 0.34513 0.0
C548 C 0.24995 0.37242 0.57924 0.0
C549 C 0.23611 0.34478 0.59377 0.0
C550 C 0.24011 0.38687 0.54758 0.0
C551 C 0.21608 0.37408 0.5288 0.0
C552 C 0.20221 0.34674 0.54602 0.0
C553 C 0.21212 0.33227 0.5782 0.0
C554 C 0.17691 0.40184 0.47415 0.0
C555 C 0.18677 0.4181 0.4133 0.0
C556 C 0.18622 0.38743 0.5113 0.0
C557 C 0.20572 0.38899 0.48894 0.0
C558 C 0.21544 0.40512 0.42773 0.0
C559 C 0.20617 0.41947 0.39074 0.0
H560 H 0.62165 0.61298 0.1487 0.0
H561 H 0.68154 0.61574 0.0906 0.0
H562 H 0.64407 0.66458 0.19284 0.0
H563 H 0.70401 0.66753 0.13379 0.0
H564 H 0.74419 0.75755 0.29744 0.0
H565 H 0.72142 0.70596 0.25379 0.0
H566 H 0.66274 0.70901 0.14656 0.0
H567 H 0.68557 0.76077 0.19138 0.0
C568 C 0.6396 0.62456 0.14477 0.0
C569 C 0.64964 0.60986 0.11573 0.0
C570 C 0.65253 0.65439 0.16985 0.0
C571 C 0.67607 0.67073 0.16739 0.0
C572 C 0.68608 0.65597 0.13801 0.0
C573 C 0.6731 0.62611 0.11245 0.0
C574 C 0.72638 0.7473 0.265 0.0
C575 C 0.71684 0.76367 0.24849 0.0
C576 C 0.71329 0.71751 0.23907 0.0
C577 C 0.69006 0.70282 0.19582 0.0
C578 C 0.68042 0.7192 0.18029 0.0
C579 C 0.69359 0.74908 0.20591 0.0
H580 H 0.49734 0.95636 0.15169 0.0
H581 H 0.44854 0.95721 0.95981 0.0
H582 H 0.46838 0.93692 0.23793 0.0
H583 H 0.41938 0.93681 1.04442 0.0
H584 H 0.38077 0.9293 0.2584 0.0
H585 H 0.41011 0.94937 0.17426 0.0
H586 H 0.43248 0.89361 0.2405 0.0
H587 H 0.40309 0.87348 0.32461 0.0
C588 C 0.48045 0.95243 0.12787 0.0
C589 C 0.47531 0.95836 1.04866 0.0
C590 C 0.46375 0.94098 0.17694 0.0
C591 C 0.4415 0.93525 0.1482 0.0
C592 C 0.43639 0.94122 1.06904 0.0
C593 C 0.45305 0.9526 1.01996 0.0
C594 C 0.39179 0.92111 0.25443 0.0
C595 C 0.38948 0.8997 0.29827 0.0
C596 C 0.40865 0.93265 0.20615 0.0
C597 C 0.42368 0.92311 0.20038 0.0
C598 C 0.42144 0.90177 0.24447 0.0
C599 C 0.40456 0.89022 0.29275 0.0
H600 H 0.59241 0.1489 0.80711 0.0
H601 H 0.55221 0.09789 0.97415 0.0
H602 H 0.56615 0.16575 0.7817 0.0
H603 H 0.52632 0.1147 0.94964 0.0
H604 H 0.49423 0.16806 0.94681 0.0
H605 H 0.5235 0.15648 0.9759 0.0
H606 H 0.52516 0.1469 0.71001 0.0
H607 H 0.49566 0.15839 0.68071 0.0
C608 C 0.57829 0.14169 0.83972 0.0
C609 C 0.57465 0.12213 0.89326 0.0
C610 C 0.56302 0.1511 0.82441 0.0
C611 C 0.54391 0.14165 0.86339 0.0
C612 C 0.54083 0.1228 0.91892 0.0
C613 C 0.55577 0.11307 0.93297 0.0
C614 C 0.50087 0.16366 0.89433 0.0
C615 C 0.49236 0.16417 0.81119 0.0
C616 C 0.51767 0.15684 0.91106 0.0
C617 C 0.52686 0.1506 0.84548 0.0
C618 C 0.51876 0.15179 0.7625 0.0
C619 C 0.50168 0.15824 0.74556 0.0
H620 H 1.00057 0.25352 0.96507 0.0
H621 H 0.95543 0.28073 0.87384 0.0
H622 H 0.02814 0.30147 1.04976 0.0
H623 H 0.98298 0.32832 0.95289 0.0
H624 H 0.02568 0.40831 0.14562 0.0
H625 H 0.99894 0.35875 0.07926 0.0
H626 H 0.05605 0.34923 1.05689 0.0
H627 H 0.08286 0.39886 0.12882 0.0
C628 C 0.99652 0.26969 0.96299 0.0
C629 C 0.97558 0.263 0.91294 0.0
C630 C 1.01246 0.29741 1.01112 0.0
C631 C 1.00806 0.31937 1.00991 0.0
C632 C 0.9871 0.31236 0.95882 0.0
C633 C 0.97117 0.28478 0.91221 0.0
C634 C 0.03259 0.39561 0.12737 0.0
C635 C 0.05652 0.40782 0.14257 0.0
C636 C 1.01715 0.36698 0.08796 0.0
C637 C 0.02497 0.34945 1.05985 0.0
C638 C 0.04903 0.36154 1.07743 0.0
C639 C 0.06454 0.3902 0.11868 0.0
H640 H 0.88322 0.66302 0.97828 0.0
H641 H 0.8481 0.61822 0.72041 0.0
H642 H 0.84621 0.64183 1.02123 0.0
H643 H 0.81125 0.59765 0.76265 0.0
H644 H 0.75047 0.54222 0.87983 0.0
H645 H 0.78764 0.56357 0.83946 0.0
H646 H 0.81149 0.64213 1.01044 0.0
H647 H 0.77427 0.62066 1.0512 0.0
C648 C 0.86764 0.64876 0.93062 0.0
C649 C 0.86876 0.64232 0.84586 0.0
C650 C 0.84634 0.6367 0.95516 0.0
C651 C 0.82556 0.61786 0.89561 0.0
C652 C 0.82678 0.61161 0.81082 0.0
C653 C 0.84801 0.6236 0.78639 0.0
C654 C 0.76352 0.56415 0.90825 0.0
C655 C 0.75919 0.57966 0.96871 0.0
C656 C 0.78494 0.57645 0.88505 0.0
C657 C 0.80274 0.6047 0.92137 0.0
C658 C 0.79842 0.62022 0.98192 0.0
C659 C 0.77699 0.60788 1.00526 0.0
H660 H 0.92751 0.59908 0.9079 0.0
H661 H 0.9919 0.67398 0.8966 0.0
H662 H 0.9484 0.58076 0.98185 0.0
H663 H 1.01285 0.65554 0.96979 0.0
H664 H 0.03998 0.59685 1.00342 0.0
H665 H 1.02017 0.61832 0.94196 0.0
H666 H 0.97314 0.5872 0.11151 0.0
H667 H 0.99244 0.56499 0.17092 0.0
C668 C 0.94615 0.61179 0.92227 0.0
C669 C 0.95806 0.63787 0.89618 0.0
C670 C 0.95815 0.60136 0.96495 0.0
C671 C 0.98235 0.61667 0.98185 0.0
C672 C 0.99424 0.64313 0.95743 0.0
C673 C 0.98224 0.65376 0.91583 0.0
C674 C 0.02536 0.59451 1.02736 0.0
C675 C 1.01778 0.57906 0.09188 0.0
C676 C 1.01416 0.60711 0.99283 0.0
C677 C 0.99503 0.60452 1.02174 0.0
C678 C 0.98767 0.58943 0.08713 0.0
C679 C 0.99891 0.57693 0.12185 0.0
H680 H 0.53605 0.41834 1.00845 0.0
H681 H 0.59324 0.41166 0.96643 0.0
H682 H 0.50994 0.36725 0.96011 0.0
H683 H 0.5673 0.36025 0.92097 0.0
H684 H 0.51291 0.27251 0.75975 0.0
H685 H 0.53927 0.32318 0.81417 0.0
H686 H 0.4948 0.32101 0.9806 0.0
H687 H 0.46791 0.27018 0.92292 0.0
C688 C 0.5432 0.40595 0.98996 0.0
C689 C 0.56697 0.41954 0.99163 0.0
C690 C 0.52809 0.37631 0.9624 0.0
C691 C 0.53609 0.35886 0.93567 0.0
C692 C 0.56003 0.3725 0.939 0.0
C693 C 0.57513 0.40223 0.96606 0.0
C694 C 0.50869 0.28276 0.80809 0.0
C695 C 0.48806 0.26693 0.83639 0.0
C696 C 0.52406 0.31209 0.84021 0.0
C697 C 0.5196 0.32696 0.90273 0.0
C698 C 0.499 0.31093 0.93179 0.0
C699 C 0.48351 0.28151 0.89909 0.0
H700 H 0.85934 0.17428 0.69549 0.0
H701 H 0.87285 0.1559 0.94066 0.0
H702 H 0.82337 0.16791 0.72185 0.0
H703 H 0.8367 0.1496 0.96734 0.0
H704 H 0.7583 0.11279 0.94642 0.0
H705 H 0.79441 0.11843 0.9226 0.0
H706 H 0.80901 0.19056 0.80834 0.0
H707 H 0.77287 0.18463 0.83063 0.0
C708 C 0.85469 0.16887 0.75521 0.0
C709 C 0.86921 0.16567 0.81588 0.0
C710 C 0.834 0.16537 0.77062 0.0
C711 C 0.82695 0.15832 0.84703 0.0
C712 C 0.84135 0.15479 0.90745 0.0
C713 C 0.86221 0.15856 0.89231 0.0
C714 C 0.76914 0.12979 0.91583 0.0
C715 C 0.76245 0.14824 0.89066 0.0
C716 C 0.79004 0.1332 0.90285 0.0
C717 C 0.80482 0.15495 0.86326 0.0
C718 C 0.79811 0.17336 0.83818 0.0
C719 C 0.77738 0.17014 0.85189 0.0
H720 H 0.60316 0.98168 0.94975 0.0
H721 H 0.67142 0.05228 0.95376 0.0
H722 H 0.61933 0.95531 1.00255 0.0
H723 H 0.68776 0.0261 1.00871 0.0
H724 H 0.70834 0.96124 1.04515 0.0
H725 H 0.69229 0.98642 0.98039 0.0
H726 H 0.64024 0.95539 0.1306 0.0
H727 H 0.65558 0.92937 0.19216 0.0
C728 C 0.62166 0.99159 0.96156 0.0
C729 C 0.63595 0.01919 0.94743 0.0
C730 C 0.63099 0.9765 0.99266 0.0
C731 C 0.65495 0.98858 1.01115 0.0
C732 C 0.66923 0.01592 0.9947 0.0
C733 C 0.65985 0.03101 0.96323 0.0
C734 C 0.69333 0.95955 1.06374 0.0
C735 C 0.68335 0.9432 0.12427 0.0
C736 C 0.68425 0.97428 1.02719 0.0
C737 C 0.66486 0.97299 1.04979 0.0
C738 C 0.65495 0.95666 0.11036 0.0
C739 C 0.664 0.94199 0.14681 0.0
H740 H 0.24715 0.74705 0.3778 0.0
H741 H 0.18769 0.74489 0.43846 0.0
H742 H 0.22466 0.69541 0.33603 0.0
H743 H 0.16515 0.69303 0.39779 0.0
H744 H 0.12456 0.60228 0.23847 0.0
H745 H 0.14728 0.65395 0.27971 0.0
H746 H 0.20645 0.65159 0.38484 0.0
H747 H 0.18372 0.59981 0.3423 0.0
C748 C 0.22928 0.73559 0.38282 0.0
C749 C 0.21937 0.75046 0.41184 0.0
C750 C 0.21632 0.70574 0.35913 0.0
C751 C 0.19288 0.68955 0.36311 0.0
C752 C 0.18299 0.70447 0.39246 0.0
C753 C 0.19601 0.73437 0.41655 0.0
C754 C 0.14247 0.61271 0.26994 0.0
C755 C 0.15219 0.59654 0.2865 0.0
C756 C 0.15553 0.64254 0.29448 0.0
C757 C 0.17888 0.65743 0.33635 0.0
C758 C 0.18868 0.64123 0.35205 0.0
C759 C 0.17556 0.61134 0.32778 0.0
H760 H 0.45252 0.43676 0.12671 0.0
H761 H 0.50472 0.49071 0.35212 0.0
H762 H 0.42348 0.4184 0.21267 0.0
H763 H 0.47582 0.47152 0.4385 0.0
H764 H 0.41411 0.45268 0.55655 0.0
H765 H 0.4428 0.47197 0.46932 0.0
H766 H 0.41154 0.38826 0.31601 0.0
H767 H 0.38286 0.369 0.40311 0.0
C768 C 0.45781 0.44479 0.19459 0.0
C769 C 0.481 0.46529 0.23232 0.0
C770 C 0.44118 0.43399 0.24408 0.0
C771 C 0.44726 0.44341 0.33268 0.0
C772 C 0.47044 0.46398 0.3704 0.0
C773 C 0.48709 0.47475 0.32091 0.0
C774 C 0.41343 0.43835 0.50456 0.0
C775 C 0.39612 0.40926 0.48697 0.0
C776 C 0.42992 0.44941 0.45451 0.0
C777 C 0.42954 0.4317 0.38552 0.0
C778 C 0.41216 0.40264 0.36771 0.0
C779 C 0.39568 0.39157 0.41772 0.0
H780 H 0.94538 0.76684 0.64922 0.0
H781 H 0.88131 0.68787 0.63501 0.0
H782 H 0.92442 0.78554 0.57845 0.0
H783 H 0.86022 0.70648 0.56292 0.0
H784 H 0.83188 0.76547 0.54337 0.0
H785 H 0.85129 0.74285 0.60009 0.0
H786 H 0.9012 0.78026 0.44392 0.0
H787 H 0.8818 0.80271 0.38702 0.0
C788 C 0.92681 0.75333 0.62985 0.0
C789 C 0.91499 0.72595 0.64795 0.0
C790 C 0.91478 0.764 0.58895 0.0
C791 C 0.89061 0.74757 0.5653 0.0
C792 C 0.87881 0.71982 0.58129 0.0
C793 C 0.89089 0.70908 0.6219 0.0
C794 C 0.84683 0.7686 0.52039 0.0
C795 C 0.85539 0.78617 0.46121 0.0
C796 C 0.85794 0.75559 0.55281 0.0
C797 C 0.87788 0.75984 0.52686 0.0
C798 C 0.88613 0.77692 0.4664 0.0
C799 C 0.87503 0.78987 0.43396 0.0
H800 H 0.35634 0.08705 0.76374 0.0
H801 H 0.40187 0.08984 0.6025 0.0
H802 H 0.32986 0.03657 0.70727 0.0
H803 H 0.37481 0.03916 0.54242 0.0
H804 H 0.33311 0.94163 0.51329 0.0
H805 H 0.35932 0.99272 0.56135 0.0
H806 H 0.30204 1.00005 0.59941 0.0
H807 H 0.27602 0.94865 0.55451 0.0
C808 C 0.3606 0.07693 0.71518 0.0
C809 C 0.38142 0.09276 0.68819 0.0
C810 C 0.34519 0.04772 0.68192 0.0
C811 C 0.34976 0.03304 0.6193 0.0
C812 C 0.37056 0.0491 0.59141 0.0
C813 C 0.38614 0.0784 0.62552 0.0
C814 C 0.32601 0.9541 0.53152 0.0
C815 C 0.30226 0.94063 0.53001 0.0
C816 C 0.34117 0.98374 0.55887 0.0
C817 C 0.33321 1.00124 0.58545 0.0
C818 C 0.30927 0.98772 0.58173 0.0
C819 C 0.29413 0.95801 0.55501 0.0
H820 H 1.01681 0.19507 0.84892 0.0
H821 H 0.99639 0.19743 0.58855 0.0
H822 H 0.05327 0.20344 0.8222 0.0
H823 H 0.03316 0.20627 0.56184 0.0
H824 H 0.09248 0.19369 0.52229 0.0
H825 H 0.05591 0.18635 0.54532 0.0
H826 H 0.0894 0.2374 0.79771 0.0
H827 H 0.12565 0.24377 0.77592 0.0
C828 C 1.02009 0.19746 0.78582 0.0
C829 C 1.00341 0.19537 0.72094 0.0
C830 C 0.04123 0.20253 0.77051 0.0
C831 C 0.04657 0.20576 0.68968 0.0
C832 C 0.02983 0.20367 0.62469 0.0
C833 C 1.00865 0.19865 0.64011 0.0
C834 C 0.09209 0.20321 0.58305 0.0
C835 C 0.11231 0.21924 0.64725 0.0
C836 C 0.07102 0.19925 0.59599 0.0
C837 C 0.06934 0.21104 0.67382 0.0
C838 C 0.08966 0.22747 0.73736 0.0
C839 C 0.1107 0.23149 0.72436 0.0
H840 H 0.39706 0.23505 0.85381 0.0
H841 H 0.36172 0.17067 0.62501 0.0
H842 H 0.3687 0.24844 0.8277 0.0
H843 H 0.333 0.18364 0.60011 0.0
H844 H 0.27456 0.20303 0.64247 0.0
H845 H 0.30047 0.18553 0.66947 0.0
H846 H 0.35926 0.27116 0.71066 0.0
H847 H 0.33393 0.28836 0.68189 0.0
C848 C 0.38312 0.22351 0.79841 0.0
C849 C 0.38187 0.20183 0.7415 0.0
C850 C 0.36683 0.23124 0.78327 0.0
C851 C 0.34842 0.21713 0.71173 0.0
C852 C 0.34676 0.19485 0.65613 0.0
C853 C 0.36336 0.18754 0.67026 0.0
C854 C 0.293 0.21805 0.65677 0.0
C855 C 0.30196 0.24716 0.65936 0.0
C856 C 0.30789 0.20803 0.67219 0.0
C857 C 0.33207 0.22696 0.693 0.0
C858 C 0.34084 0.25594 0.69583 0.0
C859 C 0.32614 0.26577 0.67858 0.0
H860 H 0.84454 0.94965 0.40112 0.0
H861 H 0.78859 0.96215 0.40937 0.0
H862 H 0.87202 0.99898 0.46791 0.0
H863 H 0.81607 1.01155 0.48196 0.0
H864 H 0.87273 0.10651 0.57484 0.0
H865 H 0.84473 0.05868 0.4907 0.0
H866 H 0.88836 0.03023 0.59199 0.0
H867 H 0.91641 0.0778 0.67044 0.0
C868 C 0.83806 0.96298 0.41767 0.0
C869 C 0.81425 0.95169 0.39976 0.0
C870 C 0.85393 0.99149 0.45738 0.0
C871 C 0.84665 1.00985 0.48319 0.0
C872 C 0.82272 0.99863 0.4632 0.0
C873 C 0.8068 0.97009 0.42155 0.0
C874 C 0.87637 0.09001 0.578 0.0
C875 C 0.89703 0.09628 0.62917 0.0
C876 C 0.86016 0.06233 0.53019 0.0
C877 C 0.86396 0.03992 0.53283 0.0
C878 C 0.88467 0.04651 0.58493 0.0
C879 C 0.9009 0.07408 0.63122 0.0
H880 H 0.98747 0.69685 0.55563 0.0
H881 H 0.0236 0.74393 0.8109 0.0
H882 H 0.02418 0.71741 0.51034 0.0
H883 H 0.06011 0.76421 0.76598 0.0
H884 H 0.1185 0.82004 0.63964 0.0
H885 H 0.08151 0.79801 0.68123 0.0
H886 H 0.06022 0.7179 0.52556 0.0
H887 H 0.09701 0.74032 0.4806 0.0
C888 C 1.00321 0.71155 0.60212 0.0
C889 C 1.00249 0.71885 0.68687 0.0
C890 C 0.02431 0.72322 0.57624 0.0
C891 C 0.04521 0.74269 0.63427 0.0
C892 C 0.04441 0.74971 0.71909 0.0
C893 C 0.0234 0.73793 0.74501 0.0
C894 C 0.10589 0.79779 0.61332 0.0
C895 C 0.11087 0.78208 0.55636 0.0
C896 C 0.0847 0.78503 0.63807 0.0
C897 C 0.06776 0.75611 0.60684 0.0
C898 C 0.07269 0.7403 0.55003 0.0
C899 C 0.09396 0.75309 0.52516 0.0
loop_
_geom_bond_atom_site_label_1
_geom_bond_atom_site_label_2
_geom_bond_distance
_geom_bond_site_symmetry_2
_ccdc_geom_bond_type
Pr0 C2 2.880 . S
Pr0 O20 2.562 . S
Pr0 O21 2.490 . S
Pr0 O22 2.695 1_554 S
Pr0 O23 2.512 1_554 S
Pr0 O25 2.437 . S
Pr0 O28 2.436 . S
Pr0 O30 2.438 . S
Pr1 C11 2.880 . S
Pr1 O22 2.436 1_554 S
Pr1 O24 2.438 . S
Pr1 O26 2.562 1_554 S
Pr1 O27 2.490 1_455 S
Pr1 O28 2.695 . S
Pr1 O29 2.512 . S
Pr1 O31 2.437 . S
C2 Pr0 2.880 . S
C2 C3 1.491 . S
C2 O20 1.254 . S
C2 O21 1.225 . S
C3 C2 1.491 . S
C3 C4 1.392 . S
C3 C8 1.356 . S
C4 C3 1.392 . S
C4 C5 1.368 . S
C4 H32 0.929 . S
C5 C4 1.368 . S
C5 C6 1.386 . S
C5 H33 0.929 . S
C6 C5 1.386 . S
C6 C7 1.373 . S
C7 C6 1.373 . S
C7 C8 1.409 . S
C7 H34 0.931 . S
C8 C3 1.356 . S
C8 C7 1.409 . S
C8 H35 0.930 . S
C9 O22 1.270 . S
C9 O23 1.248 . S
C10 O24 1.267 . S
C10 O25 1.278 . S
C11 Pr1 2.880 . S
C11 C12 1.491 1_455 S
C11 O26 1.254 1_554 S
C11 O27 1.225 1_455 S
C12 C11 1.491 1_655 S
C12 C13 1.392 . S
C12 C17 1.356 1_654 S
C13 C12 1.392 . S
C13 C14 1.368 . S
C13 H36 0.929 . S
C14 C13 1.368 . S
C14 C15 1.386 1_554 S
C14 H37 0.929 . S
C15 C14 1.386 1_556 S
C15 C16 1.373 . S
C16 C15 1.373 . S
C16 C17 1.409 1_655 S
C16 H38 0.931 1_655 S
C17 C12 1.356 1_456 S
C17 C16 1.409 1_455 S
C17 H39 0.930 . S
C18 O28 1.270 . S
C18 O29 1.248 . S
C19 O30 1.267 . S
C19 O31 1.278 . S
O20 Pr0 2.562 . S
O20 C2 1.254 . S
O21 Pr0 2.490 . S
O21 C2 1.225 . S
O22 Pr0 2.695 1_556 S
O22 Pr1 2.436 1_556 S
O22 C9 1.270 . S
O23 Pr0 2.512 1_556 S
O23 C9 1.248 . S
O24 Pr1 2.438 . S
O24 C10 1.267 . S
O25 Pr0 2.437 . S
O25 C10 1.278 . S
O26 Pr1 2.562 1_556 S
O26 C11 1.254 1_556 S
O27 Pr1 2.490 1_655 S
O27 C11 1.225 1_655 S
O28 Pr0 2.436 . S
O28 Pr1 2.695 . S
O28 C18 1.270 . S
O29 Pr1 2.512 . S
O29 C18 1.248 . S
O30 Pr0 2.438 . S
O30 C19 1.267 . S
O31 Pr1 2.437 . S
O31 C19 1.278 . S
H32 C4 0.929 . S
H33 C5 0.929 . S
H34 C7 0.931 . S
H35 C8 0.930 . S
H36 C13 0.929 . S
H37 C14 0.929 . S
H38 C16 0.931 1_455 S
H39 C17 0.930 . S
Pr40 C42 2.880 . S
Pr40 O60 2.562 . S
Pr40 O61 2.490 . S
Pr40 O62 2.695 . S
Pr40 O63 2.512 . S
Pr40 O65 2.437 . S
Pr40 O68 2.436 . S
Pr40 O70 2.438 . S
Pr41 C51 2.880 . S
Pr41 O62 2.436 . S
Pr41 O64 2.438 . S
Pr41 O66 2.562 . S
Pr41 O67 2.490 . S
Pr41 O68 2.695 . S
Pr41 O69 2.512 1_554 S
Pr41 O71 2.437 . S
C42 Pr40 2.880 . S
C42 C43 1.491 . S
C42 O60 1.254 . S
C42 O61 1.225 . S
C43 C42 1.491 . S
C43 C44 1.392 . S
C43 C48 1.356 . S
C44 C43 1.392 . S
C44 C45 1.368 . S
C44 H72 0.929 . S
C45 C44 1.368 . S
C45 C46 1.386 . S
C45 H73 0.929 . S
C46 C45 1.386 . S
C46 C47 1.373 . S
C47 C46 1.373 . S
C47 C48 1.409 . S
C47 H74 0.931 . S
C48 C43 1.356 . S
C48 C47 1.409 . S
C48 H75 0.930 . S
C49 O62 1.270 . S
C49 O63 1.248 . S
C50 O64 1.267 . S
C50 O65 1.278 . S
C51 Pr41 2.880 . S
C51 C52 1.491 . S
C51 O66 1.254 . S
C51 O67 1.225 . S
C52 C51 1.491 . S
C52 C53 1.392 . S
C52 C57 1.356 . S
C53 C52 1.392 . S
C53 C54 1.368 . S
C53 H76 0.929 . S
C54 C53 1.368 . S
C54 C55 1.386 . S
C54 H77 0.929 . S
C55 C54 1.386 . S
C55 C56 1.373 . S
C56 C55 1.373 . S
C56 C57 1.409 . S
C56 H78 0.931 . S
C57 C52 1.356 . S
C57 C56 1.409 . S
C57 H79 0.930 . S
C58 O68 1.270 1_556 S
C58 O69 1.248 . S
C59 O70 1.267 . S
C59 O71 1.278 . S
O60 Pr40 2.562 . S
O60 C42 1.254 . S
O61 Pr40 2.490 . S
O61 C42 1.225 . S
O62 Pr40 2.695 . S
O62 Pr41 2.436 . S
O62 C49 1.270 . S
O63 Pr40 2.512 . S
O63 C49 1.248 . S
O64 Pr41 2.438 . S
O64 C50 1.267 . S
O65 Pr40 2.437 . S
O65 C50 1.278 . S
O66 Pr41 2.562 . S
O66 C51 1.254 . S
O67 Pr41 2.490 . S
O67 C51 1.225 . S
O68 Pr40 2.436 . S
O68 Pr41 2.695 . S
O68 C58 1.270 1_554 S
O69 Pr41 2.512 1_556 S
O69 C58 1.248 . S
O70 Pr40 2.438 . S
O70 C59 1.267 . S
O71 Pr41 2.437 . S
O71 C59 1.278 . S
H72 C44 0.929 . S
H73 C45 0.929 . S
H74 C47 0.931 . S
H75 C48 0.930 . S
H76 C53 0.929 . S
H77 C54 0.929 . S
H78 C56 0.931 . S
H79 C57 0.930 . S
Pr80 C82 2.880 . S
Pr80 O100 2.562 . S
Pr80 O101 2.490 . S
Pr80 O102 2.695 . S
Pr80 O103 2.512 . S
Pr80 O105 2.437 . S
Pr80 O108 2.436 . S
Pr80 O110 2.438 . S
Pr81 C91 2.880 . S
Pr81 O102 2.436 . S
Pr81 O104 2.438 . S
Pr81 O106 2.562 . S
Pr81 O107 2.490 . S
Pr81 O108 2.695 . S
Pr81 O109 2.512 . S
Pr81 O111 2.437 . S
C82 Pr80 2.880 . S
C82 C83 1.491 . S
C82 O100 1.254 . S
C82 O101 1.225 . S
C83 C82 1.491 . S
C83 C84 1.392 . S
C83 C88 1.356 . S
C84 C83 1.392 . S
C84 C85 1.368 . S
C84 H112 0.929 . S
C85 C84 1.368 . S
C85 C86 1.386 . S
C85 H113 0.929 . S
C86 C85 1.386 . S
C86 C87 1.373 . S
C87 C86 1.373 . S
C87 C88 1.409 . S
C87 H114 0.931 . S
C88 C83 1.356 . S
C88 C87 1.409 . S
C88 H115 0.930 . S
C89 O102 1.270 . S
C89 O103 1.248 . S
C90 O104 1.267 . S
C90 O105 1.278 . S
C91 Pr81 2.880 . S
C91 C92 1.491 . S
C91 O106 1.254 . S
C91 O107 1.225 . S
C92 C91 1.491 . S
C92 C93 1.392 . S
C92 C97 1.356 . S
C93 C92 1.392 . S
C93 C94 1.368 . S
C93 H116 0.929 . S
C94 C93 1.368 . S
C94 C95 1.386 . S
C94 H117 0.929 . S
C95 C94 1.386 . S
C95 C96 1.373 . S
C96 C95 1.373 . S
C96 C97 1.409 . S
C96 H118 0.931 . S
C97 C92 1.356 . S
C97 C96 1.409 . S
C97 H119 0.930 . S
C98 O108 1.270 . S
C98 O109 1.248 . S
C99 O110 1.267 . S
C99 O111 1.278 . S
O100 Pr80 2.562 . S
O100 C82 1.254 . S
O101 Pr80 2.490 . S
O101 C82 1.225 . S
O102 Pr80 2.695 . S
O102 Pr81 2.436 . S
O102 C89 1.270 . S
O103 Pr80 2.512 . S
O103 C89 1.248 . S
O104 Pr81 2.438 . S
O104 C90 1.267 . S
O105 Pr80 2.437 . S
O105 C90 1.278 . S
O106 Pr81 2.562 . S
O106 C91 1.254 . S
O107 Pr81 2.490 . S
O107 C91 1.225 . S
O108 Pr80 2.436 . S
O108 Pr81 2.695 . S
O108 C98 1.270 . S
O109 Pr81 2.512 . S
O109 C98 1.248 . S
O110 Pr80 2.438 . S
O110 C99 1.267 . S
O111 Pr81 2.437 . S
O111 C99 1.278 . S
H112 C84 0.929 . S
H113 C85 0.929 . S
H114 C87 0.931 . S
H115 C88 0.930 . S
H116 C93 0.929 . S
H117 C94 0.929 . S
H118 C96 0.931 . S
H119 C97 0.930 . S
Pr120 C122 2.880 . S
Pr120 O140 2.562 . S
Pr120 O141 2.490 . S
Pr120 O142 2.695 . S
Pr120 O143 2.512 . S
Pr120 O145 2.437 . S
Pr120 O148 2.436 . S
Pr120 O150 2.438 . S
Pr121 C131 2.880 . S
Pr121 O142 2.436 . S
Pr121 O144 2.438 . S
Pr121 O146 2.562 . S
Pr121 O147 2.490 . S
Pr121 O148 2.695 . S
Pr121 O149 2.512 . S
Pr121 O151 2.437 . S
C122 Pr120 2.880 . S
C122 C123 1.491 . S
C122 O140 1.254 . S
C122 O141 1.225 . S
C123 C122 1.491 . S
C123 C124 1.392 . S
C123 C128 1.356 . S
C124 C123 1.392 . S
C124 C125 1.368 . S
C124 H152 0.929 . S
C125 C124 1.368 . S
C125 C126 1.386 . S
C125 H153 0.929 . S
C126 C125 1.386 . S
C126 C127 1.373 . S
C127 C126 1.373 . S
C127 C128 1.409 . S
C127 H154 0.931 . S
C128 C123 1.356 . S
C128 C127 1.409 . S
C128 H155 0.930 . S
C129 O142 1.270 . S
C129 O143 1.248 . S
C130 O144 1.267 . S
C130 O145 1.278 . S
C131 Pr121 2.880 . S
C131 C132 1.491 . S
C131 O146 1.254 . S
C131 O147 1.225 . S
C132 C131 1.491 . S
C132 C133 1.392 . S
C132 C137 1.356 . S
C133 C132 1.392 . S
C133 C134 1.368 . S
C133 H156 0.929 . S
C134 C133 1.368 . S
C134 C135 1.386 . S
C134 H157 0.929 . S
C135 C134 1.386 . S
C135 C136 1.373 . S
C136 C135 1.373 . S
C136 C137 1.409 . S
C136 H158 0.931 . S
C137 C132 1.356 . S
C137 C136 1.409 . S
C137 H159 0.930 . S
C138 O148 1.270 . S
C138 O149 1.248 . S
C139 O150 1.267 . S
C139 O151 1.278 . S
O140 Pr120 2.562 . S
O140 C122 1.254 . S
O141 Pr120 2.490 . S
O141 C122 1.225 . S
O142 Pr120 2.695 . S
O142 Pr121 2.436 . S
O142 C129 1.270 . S
O143 Pr120 2.512 . S
O143 C129 1.248 . S
O144 Pr121 2.438 . S
O144 C130 1.267 . S
O145 Pr120 2.437 . S
O145 C130 1.278 . S
O146 Pr121 2.562 . S
O146 C131 1.254 . S
O147 Pr121 2.490 . S
O147 C131 1.225 . S
O148 Pr120 2.436 . S
O148 Pr121 2.695 . S
O148 C138 1.270 . S
O149 Pr121 2.512 . S
O149 C138 1.248 . S
O150 Pr120 2.438 . S
O150 C139 1.267 . S
O151 Pr121 2.437 . S
O151 C139 1.278 . S
H152 C124 0.929 . S
H153 C125 0.929 . S
H154 C127 0.931 . S
H155 C128 0.930 . S
H156 C133 0.929 . S
H157 C134 0.929 . S
H158 C136 0.931 . S
H159 C137 0.930 . S
Pr160 C162 2.880 . S
Pr160 O180 2.562 . S
Pr160 O181 2.490 . S
Pr160 O182 2.695 . S
Pr160 O183 2.512 . S
Pr160 O185 2.437 . S
Pr160 O188 2.436 . S
Pr160 O190 2.438 . S
Pr161 C171 2.880 . S
Pr161 O182 2.436 . S
Pr161 O184 2.438 . S
Pr161 O186 2.562 . S
Pr161 O187 2.490 . S
Pr161 O188 2.695 . S
Pr161 O189 2.512 . S
Pr161 O191 2.437 . S
C162 Pr160 2.880 . S
C162 C163 1.491 . S
C162 O180 1.254 . S
C162 O181 1.225 . S
C163 C162 1.491 . S
C163 C164 1.392 . S
C163 C168 1.356 . S
C164 C163 1.392 . S
C164 C165 1.368 . S
C164 H192 0.929 . S
C165 C164 1.368 . S
C165 C166 1.386 . S
C165 H193 0.929 . S
C166 C165 1.386 . S
C166 C167 1.373 . S
C167 C166 1.373 . S
C167 C168 1.409 . S
C167 H194 0.931 . S
C168 C163 1.356 . S
C168 C167 1.409 . S
C168 H195 0.930 . S
C169 O182 1.270 . S
C169 O183 1.248 . S
C170 O184 1.267 . S
C170 O185 1.278 . S
C171 Pr161 2.880 . S
C171 C172 1.491 . S
C171 O186 1.254 . S
C171 O187 1.225 . S
C172 C171 1.491 . S
C172 C173 1.392 . S
C172 C177 1.356 . S
C173 C172 1.392 . S
C173 C174 1.368 . S
C173 H196 0.929 . S
C174 C173 1.368 . S
C174 C175 1.386 . S
C174 H197 0.929 . S
C175 C174 1.386 . S
C175 C176 1.373 . S
C176 C175 1.373 . S
C176 C177 1.409 . S
C176 H198 0.931 . S
C177 C172 1.356 . S
C177 C176 1.409 . S
C177 H199 0.930 . S
C178 O188 1.270 . S
C178 O189 1.248 . S
C179 O190 1.267 . S
C179 O191 1.278 . S
O180 Pr160 2.562 . S
O180 C162 1.254 . S
O181 Pr160 2.490 . S
O181 C162 1.225 . S
O182 Pr160 2.695 . S
O182 Pr161 2.436 . S
O182 C169 1.270 . S
O183 Pr160 2.512 . S
O183 C169 1.248 . S
O184 Pr161 2.438 . S
O184 C170 1.267 . S
O185 Pr160 2.437 . S
O185 C170 1.278 . S
O186 Pr161 2.562 . S
O186 C171 1.254 . S
O187 Pr161 2.490 . S
O187 C171 1.225 . S
O188 Pr160 2.436 . S
O188 Pr161 2.695 . S
O188 C178 1.270 . S
O189 Pr161 2.512 . S
O189 C178 1.248 . S
O190 Pr160 2.438 . S
O190 C179 1.267 . S
O191 Pr161 2.437 . S
O191 C179 1.278 . S
H192 C164 0.929 . S
H193 C165 0.929 . S
H194 C167 0.931 . S
H195 C168 0.930 . S
H196 C173 0.929 . S
H197 C174 0.929 . S
H198 C176 0.931 . S
H199 C177 0.930 . S
Pr200 C202 2.880 . S
Pr200 O220 2.562 . S
Pr200 O221 2.490 . S
Pr200 O222 2.695 . S
Pr200 O223 2.512 . S
Pr200 O225 2.437 . S
Pr200 O228 2.436 . S
Pr200 O230 2.438 . S
Pr201 C211 2.880 . S
Pr201 O222 2.436 . S
Pr201 O224 2.438 . S
Pr201 O226 2.562 . S
Pr201 O227 2.490 . S
Pr201 O228 2.695 . S
Pr201 O229 2.512 . S
Pr201 O231 2.437 . S
C202 Pr200 2.880 . S
C202 C203 1.491 . S
C202 O220 1.254 . S
C202 O221 1.225 . S
C203 C202 1.491 . S
C203 C204 1.392 . S
C203 C208 1.356 . S
C204 C203 1.392 . S
C204 C205 1.368 . S
C204 H232 0.929 . S
C205 C204 1.368 . S
C205 C206 1.386 . S
C205 H233 0.929 . S
C206 C205 1.386 . S
C206 C207 1.373 . S
C207 C206 1.373 . S
C207 C208 1.409 . S
C207 H234 0.931 . S
C208 C203 1.356 . S
C208 C207 1.409 . S
C208 H235 0.930 . S
C209 O222 1.270 . S
C209 O223 1.248 . S
C210 O224 1.267 . S
C210 O225 1.278 . S
C211 Pr201 2.880 . S
C211 C212 1.491 . S
C211 O226 1.254 . S
C211 O227 1.225 . S
C212 C211 1.491 . S
C212 C213 1.392 . S
C212 C217 1.356 . S
C213 C212 1.392 . S
C213 C214 1.368 . S
C213 H236 0.929 . S
C214 C213 1.368 . S
C214 C215 1.386 . S
C214 H237 0.929 . S
C215 C214 1.386 . S
C215 C216 1.373 . S
C216 C215 1.373 . S
C216 C217 1.409 . S
C216 H238 0.931 . S
C217 C212 1.356 . S
C217 C216 1.409 . S
C217 H239 0.930 . S
C218 O228 1.270 . S
C218 O229 1.248 . S
C219 O230 1.267 . S
C219 O231 1.278 . S
O220 Pr200 2.562 . S
O220 C202 1.254 . S
O221 Pr200 2.490 . S
O221 C202 1.225 . S
O222 Pr200 2.695 . S
O222 Pr201 2.436 . S
O222 C209 1.270 . S
O223 Pr200 2.512 . S
O223 C209 1.248 . S
O224 Pr201 2.438 . S
O224 C210 1.267 . S
O225 Pr200 2.437 . S
O225 C210 1.278 . S
O226 Pr201 2.562 . S
O226 C211 1.254 . S
O227 Pr201 2.490 . S
O227 C211 1.225 . S
O228 Pr200 2.436 . S
O228 Pr201 2.695 . S
O228 C218 1.270 . S
O229 Pr201 2.512 . S
O229 C218 1.248 . S
O230 Pr200 2.438 . S
O230 C219 1.267 . S
O231 Pr201 2.437 . S
O231 C219 1.278 . S
H232 C204 0.929 . S
H233 C205 0.929 . S
H234 C207 0.931 . S
H235 C208 0.930 . S
H236 C213 0.929 . S
H237 C214 0.929 . S
H238 C216 0.931 . S
H239 C217 0.930 . S
Pr240 C242 2.880 . S
Pr240 O260 2.562 . S
Pr240 O261 2.490 . S
Pr240 O262 2.695 . S
Pr240 O263 2.512 . S
Pr240 O265 2.437 . S
Pr240 O268 2.436 . S
Pr240 O270 2.438 . S
Pr241 C251 2.880 . S
Pr241 O262 2.436 . S
Pr241 O264 2.438 . S
Pr241 O266 2.562 . S
Pr241 O267 2.490 . S
Pr241 O268 2.695 . S
Pr241 O269 2.512 . S
Pr241 O271 2.437 . S
C242 Pr240 2.880 . S
C242 C243 1.491 . S
C242 O260 1.254 . S
C242 O261 1.225 . S
C243 C242 1.491 . S
C243 C244 1.392 . S
C243 C248 1.356 . S
C244 C243 1.392 . S
C244 C245 1.368 . S
C244 H272 0.929 . S
C245 C244 1.368 . S
C245 C246 1.386 . S
C245 H273 0.929 . S
C246 C245 1.386 . S
C246 C247 1.373 . S
C247 C246 1.373 . S
C247 C248 1.409 . S
C247 H274 0.931 . S
C248 C243 1.356 . S
C248 C247 1.409 . S
C248 H275 0.930 . S
C249 O262 1.270 . S
C249 O263 1.248 . S
C250 O264 1.267 . S
C250 O265 1.278 . S
C251 Pr241 2.880 . S
C251 C252 1.491 1_556 S
C251 O266 1.254 . S
C251 O267 1.225 . S
C252 C251 1.491 1_554 S
C252 C253 1.392 . S
C252 C257 1.356 . S
C253 C252 1.392 . S
C253 C254 1.368 . S
C253 H276 0.929 1_554 S
C254 C253 1.368 . S
C254 C255 1.386 . S
C254 H277 0.929 . S
C255 C254 1.386 . S
C255 C256 1.373 . S
C256 C255 1.373 . S
C256 C257 1.409 . S
C256 H278 0.931 . S
C257 C252 1.356 . S
C257 C256 1.409 . S
C257 H279 0.930 . S
C258 O268 1.270 . S
C258 O269 1.248 . S
C259 O270 1.267 . S
C259 O271 1.278 . S
O260 Pr240 2.562 . S
O260 C242 1.254 . S
O261 Pr240 2.490 . S
O261 C242 1.225 . S
O262 Pr240 2.695 . S
O262 Pr241 2.436 . S
O262 C249 1.270 . S
O263 Pr240 2.512 . S
O263 C249 1.248 . S
O264 Pr241 2.438 . S
O264 C250 1.267 . S
O265 Pr240 2.437 . S
O265 C250 1.278 . S
O266 Pr241 2.562 . S
O266 C251 1.254 . S
O267 Pr241 2.490 . S
O267 C251 1.225 . S
O268 Pr240 2.436 . S
O268 Pr241 2.695 . S
O268 C258 1.270 . S
O269 Pr241 2.512 . S
O269 C258 1.248 . S
O270 Pr240 2.438 . S
O270 C259 1.267 . S
O271 Pr241 2.437 . S
O271 C259 1.278 . S
H272 C244 0.929 . S
H273 C245 0.929 . S
H274 C247 0.931 . S
H275 C248 0.930 . S
H276 C253 0.929 1_556 S
H277 C254 0.929 . S
H278 C256 0.931 . S
H279 C257 0.930 . S
Pr280 C282 2.880 . S
Pr280 O300 2.562 . S
Pr280 O301 2.490 . S
Pr280 O302 2.695 . S
Pr280 O303 2.512 . S
Pr280 O305 2.437 . S
Pr280 O308 2.436 . S
Pr280 O310 2.438 . S
Pr281 C291 2.880 . S
Pr281 O302 2.436 . S
Pr281 O304 2.438 . S
Pr281 O306 2.562 . S
Pr281 O307 2.490 . S
Pr281 O308 2.695 . S
Pr281 O309 2.512 . S
Pr281 O311 2.437 . S
C282 Pr280 2.880 . S
C282 C283 1.491 1_556 S
C282 O300 1.254 . S
C282 O301 1.225 . S
C283 C282 1.491 1_554 S
C283 C284 1.392 . S
C283 C288 1.356 . S
C284 C283 1.392 . S
C284 C285 1.368 . S
C284 H312 0.929 1_554 S
C285 C284 1.368 . S
C285 C286 1.386 . S
C285 H313 0.929 . S
C286 C285 1.386 . S
C286 C287 1.373 . S
C287 C286 1.373 . S
C287 C288 1.409 . S
C287 H314 0.931 . S
C288 C283 1.356 . S
C288 C287 1.409 . S
C288 H315 0.930 . S
C289 O302 1.270 . S
C289 O303 1.248 . S
C290 O304 1.267 . S
C290 O305 1.278 . S
C291 Pr281 2.880 . S
C291 C292 1.491 . S
C291 O306 1.254 . S
C291 O307 1.225 . S
C292 C291 1.491 . S
C292 C293 1.392 . S
C292 C297 1.356 . S
C293 C292 1.392 . S
C293 C294 1.368 . S
C293 H316 0.929 . S
C294 C293 1.368 . S
C294 C295 1.386 . S
C294 H317 0.929 . S
C295 C294 1.386 . S
C295 C296 1.373 . S
C296 C295 1.373 . S
C296 C297 1.409 . S
C296 H318 0.931 . S
C297 C292 1.356 . S
C297 C296 1.409 . S
C297 H319 0.930 . S
C298 O308 1.270 . S
C298 O309 1.248 . S
C299 O310 1.267 . S
C299 O311 1.278 . S
O300 Pr280 2.562 . S
O300 C282 1.254 . S
O301 Pr280 2.490 . S
O301 C282 1.225 . S
O302 Pr280 2.695 . S
O302 Pr281 2.436 . S
O302 C289 1.270 . S
O303 Pr280 2.512 . S
O303 C289 1.248 . S
O304 Pr281 2.438 . S
O304 C290 1.267 . S
O305 Pr280 2.437 . S
O305 C290 1.278 . S
O306 Pr281 2.562 . S
O306 C291 1.254 . S
O307 Pr281 2.490 . S
O307 C291 1.225 . S
O308 Pr280 2.436 . S
O308 Pr281 2.695 . S
O308 C298 1.270 . S
O309 Pr281 2.512 . S
O309 C298 1.248 . S
O310 Pr280 2.438 . S
O310 C299 1.267 . S
O311 Pr281 2.437 . S
O311 C299 1.278 . S
H312 C284 0.929 1_556 S
H313 C285 0.929 . S
H314 C287 0.931 . S
H315 C288 0.930 . S
H316 C293 0.929 . S
H317 C294 0.929 . S
H318 C296 0.931 . S
H319 C297 0.930 . S
Pr320 C322 2.880 . S
Pr320 O340 2.562 . S
Pr320 O341 2.490 . S
Pr320 O342 2.695 . S
Pr320 O343 2.512 . S
Pr320 O345 2.437 . S
Pr320 O348 2.436 . S
Pr320 O350 2.438 . S
Pr321 C331 2.880 . S
Pr321 O342 2.436 . S
Pr321 O344 2.438 . S
Pr321 O346 2.562 . S
Pr321 O347 2.490 . S
Pr321 O348 2.695 . S
Pr321 O349 2.512 . S
Pr321 O351 2.437 . S
C322 Pr320 2.880 . S
C322 C323 1.491 . S
C322 O340 1.254 . S
C322 O341 1.225 . S
C323 C322 1.491 . S
C323 C324 1.392 . S
C323 C328 1.356 . S
C324 C323 1.392 . S
C324 C325 1.368 . S
C324 H352 0.929 . S
C325 C324 1.368 . S
C325 C326 1.386 . S
C325 H353 0.929 . S
C326 C325 1.386 . S
C326 C327 1.373 . S
C327 C326 1.373 . S
C327 C328 1.409 . S
C327 H354 0.931 . S
C328 C323 1.356 . S
C328 C327 1.409 . S
C328 H355 0.930 . S
C329 O342 1.270 . S
C329 O343 1.248 . S
C330 O344 1.267 . S
C330 O345 1.278 . S
C331 Pr321 2.880 . S
C331 C332 1.491 1_556 S
C331 O346 1.254 . S
C331 O347 1.225 . S
C332 C331 1.491 1_554 S
C332 C333 1.392 . S
C332 C337 1.356 . S
C333 C332 1.392 . S
C333 C334 1.368 . S
C333 H356 0.929 . S
C334 C333 1.368 . S
C334 C335 1.386 . S
C334 H357 0.929 . S
C335 C334 1.386 . S
C335 C336 1.373 . S
C336 C335 1.373 . S
C336 C337 1.409 . S
C336 H358 0.931 . S
C337 C332 1.356 . S
C337 C336 1.409 . S
C337 H359 0.930 . S
C338 O348 1.270 . S
C338 O349 1.248 . S
C339 O350 1.267 . S
C339 O351 1.278 . S
O340 Pr320 2.562 . S
O340 C322 1.254 . S
O341 Pr320 2.490 . S
O341 C322 1.225 . S
O342 Pr320 2.695 . S
O342 Pr321 2.436 . S
O342 C329 1.270 . S
O343 Pr320 2.512 . S
O343 C329 1.248 . S
O344 Pr321 2.438 . S
O344 C330 1.267 . S
O345 Pr320 2.437 . S
O345 C330 1.278 . S
O346 Pr321 2.562 . S
O346 C331 1.254 . S
O347 Pr321 2.490 . S
O347 C331 1.225 . S
O348 Pr320 2.436 . S
O348 Pr321 2.695 . S
O348 C338 1.270 . S
O349 Pr321 2.512 . S
O349 C338 1.248 . S
O350 Pr320 2.438 . S
O350 C339 1.267 . S
O351 Pr321 2.437 . S
O351 C339 1.278 . S
H352 C324 0.929 . S
H353 C325 0.929 . S
H354 C327 0.931 . S
H355 C328 0.930 . S
H356 C333 0.929 . S
H357 C334 0.929 . S
H358 C336 0.931 . S
H359 C337 0.930 . S
H360 C368 0.950 . S
H361 C373 0.950 . S
H362 C370 0.950 . S
H363 C372 0.950 . S
H364 C374 0.950 . S
H365 C376 0.950 . S
H366 C378 0.950 . S
H367 C379 0.950 . S
C368 H360 0.950 . S
C368 C369 1.386 . S
C368 C370 1.391 . S
C369 C368 1.386 . S
C369 C373 1.393 . S
C370 H362 0.950 . S
C370 C368 1.391 . S
C370 C371 1.400 . S
C371 C370 1.400 . S
C371 C372 1.398 . S
C371 C377 1.491 . S
C372 H363 0.950 . S
C372 C371 1.398 . S
C372 C373 1.391 . S
C373 H361 0.950 . S
C373 C369 1.393 . S
C373 C372 1.391 . S
C374 H364 0.950 . S
C374 C375 1.386 . S
C374 C376 1.391 . S
C375 C374 1.386 . S
C375 C379 1.393 . S
C376 H365 0.950 . S
C376 C374 1.391 . S
C376 C377 1.400 . S
C377 C371 1.491 . S
C377 C376 1.400 . S
C377 C378 1.398 . S
C378 H366 0.950 . S
C378 C377 1.398 . S
C378 C379 1.391 . S
C379 H367 0.950 . S
C379 C375 1.393 . S
C379 C378 1.391 . S
H380 C388 0.950 . S
H381 C393 0.950 . S
H382 C390 0.950 . S
H383 C392 0.950 . S
H384 C394 0.950 . S
H385 C396 0.950 . S
H386 C398 0.950 . S
H387 C399 0.950 . S
C388 H380 0.950 . S
C388 C389 1.386 . S
C388 C390 1.391 . S
C389 C388 1.386 . S
C389 C393 1.393 . S
C390 H382 0.950 . S
C390 C388 1.391 . S
C390 C391 1.400 . S
C391 C390 1.400 . S
C391 C392 1.398 . S
C391 C397 1.491 . S
C392 H383 0.950 . S
C392 C391 1.398 . S
C392 C393 1.391 . S
C393 H381 0.950 . S
C393 C389 1.393 . S
C393 C392 1.391 . S
C394 H384 0.950 . S
C394 C395 1.386 . S
C394 C396 1.391 . S
C395 C394 1.386 . S
C395 C399 1.393 . S
C396 H385 0.950 . S
C396 C394 1.391 . S
C396 C397 1.400 . S
C397 C391 1.491 . S
C397 C396 1.400 . S
C397 C398 1.398 . S
C398 H386 0.950 . S
C398 C397 1.398 . S
C398 C399 1.391 . S
C399 H387 0.950 . S
C399 C395 1.393 . S
C399 C398 1.391 . S
H400 C408 0.950 . S
H401 C413 0.950 . S
H402 C410 0.950 . S
H403 C412 0.950 . S
H404 C414 0.950 . S
H405 C416 0.950 . S
H406 C418 0.950 . S
H407 C419 0.950 . S
C408 H400 0.950 . S
C408 C409 1.386 . S
C408 C410 1.391 . S
C409 C408 1.386 . S
C409 C413 1.393 . S
C410 H402 0.950 . S
C410 C408 1.391 . S
C410 C411 1.400 . S
C411 C410 1.400 . S
C411 C412 1.398 . S
C411 C417 1.491 . S
C412 H403 0.950 . S
C412 C411 1.398 . S
C412 C413 1.391 . S
C413 H401 0.950 . S
C413 C409 1.393 . S
C413 C412 1.391 . S
C414 H404 0.950 . S
C414 C415 1.386 . S
C414 C416 1.391 . S
C415 C414 1.386 . S
C415 C419 1.393 . S
C416 H405 0.950 . S
C416 C414 1.391 . S
C416 C417 1.400 . S
C417 C411 1.491 . S
C417 C416 1.400 . S
C417 C418 1.398 . S
C418 H406 0.950 . S
C418 C417 1.398 . S
C418 C419 1.391 . S
C419 H407 0.950 . S
C419 C415 1.393 . S
C419 C418 1.391 . S
H420 C428 0.950 . S
H421 C433 0.950 . S
H422 C430 0.950 . S
H423 C432 0.950 . S
H424 C434 0.950 1_554 S
H425 C436 0.950 . S
H426 C438 0.950 . S
H427 C439 0.950 1_554 S
C428 H420 0.950 . S
C428 C429 1.386 . S
C428 C430 1.391 . S
C429 C428 1.386 . S
C429 C433 1.393 . S
C430 H422 0.950 . S
C430 C428 1.391 . S
C430 C431 1.400 . S
C431 C430 1.400 . S
C431 C432 1.398 . S
C431 C437 1.491 . S
C432 H423 0.950 . S
C432 C431 1.398 . S
C432 C433 1.391 . S
C433 H421 0.950 . S
C433 C429 1.393 . S
C433 C432 1.391 . S
C434 H424 0.950 1_556 S
C434 C435 1.386 1_556 S
C434 C436 1.391 . S
C435 C434 1.386 1_554 S
C435 C439 1.393 1_554 S
C436 H425 0.950 . S
C436 C434 1.391 . S
C436 C437 1.400 . S
C437 C431 1.491 . S
C437 C436 1.400 . S
C437 C438 1.398 . S
C438 H426 0.950 . S
C438 C437 1.398 . S
C438 C439 1.391 . S
C439 H427 0.950 1_556 S
C439 C435 1.393 1_556 S
C439 C438 1.391 . S
H440 C448 0.950 . S
H441 C453 0.950 . S
H442 C450 0.950 . S
H443 C452 0.950 . S
H444 C454 0.950 . S
H445 C456 0.950 . S
H446 C458 0.950 . S
H447 C459 0.950 . S
C448 H440 0.950 . S
C448 C449 1.386 . S
C448 C450 1.391 . S
C449 C448 1.386 . S
C449 C453 1.393 . S
C450 H442 0.950 . S
C450 C448 1.391 . S
C450 C451 1.400 . S
C451 C450 1.400 . S
C451 C452 1.398 . S
C451 C457 1.491 . S
C452 H443 0.950 . S
C452 C451 1.398 . S
C452 C453 1.391 . S
C453 H441 0.950 . S
C453 C449 1.393 . S
C453 C452 1.391 . S
C454 H444 0.950 . S
C454 C455 1.386 . S
C454 C456 1.391 . S
C455 C454 1.386 . S
C455 C459 1.393 . S
C456 H445 0.950 . S
C456 C454 1.391 . S
C456 C457 1.400 . S
C457 C451 1.491 . S
C457 C456 1.400 . S
C457 C458 1.398 . S
C458 H446 0.950 . S
C458 C457 1.398 . S
C458 C459 1.391 . S
C459 H447 0.950 . S
C459 C455 1.393 . S
C459 C458 1.391 . S
H460 C468 0.950 . S
H461 C473 0.950 . S
H462 C470 0.950 . S
H463 C472 0.950 . S
H464 C474 0.950 . S
H465 C476 0.950 . S
H466 C478 0.950 . S
H467 C479 0.950 . S
C468 H460 0.950 . S
C468 C469 1.386 . S
C468 C470 1.391 . S
C469 C468 1.386 . S
C469 C473 1.393 . S
C470 H462 0.950 . S
C470 C468 1.391 . S
C470 C471 1.400 . S
C471 C470 1.400 . S
C471 C472 1.398 . S
C471 C477 1.491 . S
C472 H463 0.950 . S
C472 C471 1.398 . S
C472 C473 1.391 . S
C473 H461 0.950 . S
C473 C469 1.393 . S
C473 C472 1.391 . S
C474 H464 0.950 . S
C474 C475 1.386 . S
C474 C476 1.391 . S
C475 C474 1.386 . S
C475 C479 1.393 . S
C476 H465 0.950 . S
C476 C474 1.391 . S
C476 C477 1.400 . S
C477 C471 1.491 . S
C477 C476 1.400 . S
C477 C478 1.398 . S
C478 H466 0.950 . S
C478 C477 1.398 . S
C478 C479 1.391 . S
C479 H467 0.950 . S
C479 C475 1.393 . S
C479 C478 1.391 . S
H480 C488 0.950 . S
H481 C493 0.950 . S
H482 C490 0.950 . S
H483 C492 0.950 . S
H484 C494 0.950 . S
H485 C496 0.950 . S
H486 C498 0.950 . S
H487 C499 0.950 . S
C488 H480 0.950 . S
C488 C489 1.386 . S
C488 C490 1.391 . S
C489 C488 1.386 . S
C489 C493 1.393 . S
C490 H482 0.950 . S
C490 C488 1.391 . S
C490 C491 1.400 . S
C491 C490 1.400 . S
C491 C492 1.398 . S
C491 C497 1.491 . S
C492 H483 0.950 . S
C492 C491 1.398 . S
C492 C493 1.391 . S
C493 H481 0.950 . S
C493 C489 1.393 . S
C493 C492 1.391 . S
C494 H484 0.950 . S
C494 C495 1.386 . S
C494 C496 1.391 . S
C495 C494 1.386 . S
C495 C499 1.393 . S
C496 H485 0.950 . S
C496 C494 1.391 . S
C496 C497 1.400 . S
C497 C491 1.491 . S
C497 C496 1.400 . S
C497 C498 1.398 . S
C498 H486 0.950 . S
C498 C497 1.398 . S
C498 C499 1.391 . S
C499 H487 0.950 . S
C499 C495 1.393 . S
C499 C498 1.391 . S
H500 C508 0.950 . S
H501 C513 0.950 . S
H502 C510 0.950 . S
H503 C512 0.950 . S
H504 C514 0.950 . S
H505 C516 0.950 . S
H506 C518 0.950 . S
H507 C519 0.950 . S
C508 H500 0.950 . S
C508 C509 1.386 . S
C508 C510 1.391 . S
C509 C508 1.386 . S
C509 C513 1.393 . S
C510 H502 0.950 . S
C510 C508 1.391 . S
C510 C511 1.400 . S
C511 C510 1.400 . S
C511 C512 1.398 . S
C511 C517 1.491 . S
C512 H503 0.950 . S
C512 C511 1.398 . S
C512 C513 1.391 . S
C513 H501 0.950 . S
C513 C509 1.393 . S
C513 C512 1.391 . S
C514 H504 0.950 . S
C514 C515 1.386 . S
C514 C516 1.391 . S
C515 C514 1.386 . S
C515 C519 1.393 . S
C516 H505 0.950 . S
C516 C514 1.391 . S
C516 C517 1.400 . S
C517 C511 1.491 . S
C517 C516 1.400 . S
C517 C518 1.398 . S
C518 H506 0.950 . S
C518 C517 1.398 . S
C518 C519 1.391 . S
C519 H507 0.950 . S
C519 C515 1.393 . S
C519 C518 1.391 . S
H520 C528 0.950 . S
H521 C533 0.950 . S
H522 C530 0.950 . S
H523 C532 0.950 . S
H524 C534 0.950 . S
H525 C536 0.950 . S
H526 C538 0.950 . S
H527 C539 0.950 . S
C528 H520 0.950 . S
C528 C529 1.386 . S
C528 C530 1.391 . S
C529 C528 1.386 . S
C529 C533 1.393 . S
C530 H522 0.950 . S
C530 C528 1.391 . S
C530 C531 1.400 . S
C531 C530 1.400 . S
C531 C532 1.398 . S
C531 C537 1.491 . S
C532 H523 0.950 . S
C532 C531 1.398 . S
C532 C533 1.391 . S
C533 H521 0.950 . S
C533 C529 1.393 . S
C533 C532 1.391 . S
C534 H524 0.950 . S
C534 C535 1.386 . S
C534 C536 1.391 . S
C535 C534 1.386 . S
C535 C539 1.393 . S
C536 H525 0.950 . S
C536 C534 1.391 . S
C536 C537 1.400 . S
C537 C531 1.491 . S
C537 C536 1.400 . S
C537 C538 1.398 . S
C538 H526 0.950 . S
C538 C537 1.398 . S
C538 C539 1.391 . S
C539 H527 0.950 . S
C539 C535 1.393 . S
C539 C538 1.391 . S
H540 C548 0.950 . S
H541 C553 0.950 . S
H542 C550 0.950 . S
H543 C552 0.950 . S
H544 C554 0.950 . S
H545 C556 0.950 . S
H546 C558 0.950 . S
H547 C559 0.950 . S
C548 H540 0.950 . S
C548 C549 1.386 . S
C548 C550 1.391 . S
C549 C548 1.386 . S
C549 C553 1.393 . S
C550 H542 0.950 . S
C550 C548 1.391 . S
C550 C551 1.400 . S
C551 C550 1.400 . S
C551 C552 1.398 . S
C551 C557 1.491 . S
C552 H543 0.950 . S
C552 C551 1.398 . S
C552 C553 1.391 . S
C553 H541 0.950 . S
C553 C549 1.393 . S
C553 C552 1.391 . S
C554 H544 0.950 . S
C554 C555 1.386 . S
C554 C556 1.391 . S
C555 C554 1.386 . S
C555 C559 1.393 . S
C556 H545 0.950 . S
C556 C554 1.391 . S
C556 C557 1.400 . S
C557 C551 1.491 . S
C557 C556 1.400 . S
C557 C558 1.398 . S
C558 H546 0.950 . S
C558 C557 1.398 . S
C558 C559 1.391 . S
C559 H547 0.950 . S
C559 C555 1.393 . S
C559 C558 1.391 . S
H560 C568 0.950 . S
H561 C573 0.950 . S
H562 C570 0.950 . S
H563 C572 0.950 . S
H564 C574 0.950 . S
H565 C576 0.950 . S
H566 C578 0.950 . S
H567 C579 0.950 . S
C568 H560 0.950 . S
C568 C569 1.386 . S
C568 C570 1.391 . S
C569 C568 1.386 . S
C569 C573 1.393 . S
C570 H562 0.950 . S
C570 C568 1.391 . S
C570 C571 1.400 . S
C571 C570 1.400 . S
C571 C572 1.398 . S
C571 C577 1.491 . S
C572 H563 0.950 . S
C572 C571 1.398 . S
C572 C573 1.391 . S
C573 H561 0.950 . S
C573 C569 1.393 . S
C573 C572 1.391 . S
C574 H564 0.950 . S
C574 C575 1.386 . S
C574 C576 1.391 . S
C575 C574 1.386 . S
C575 C579 1.393 . S
C576 H565 0.950 . S
C576 C574 1.391 . S
C576 C577 1.400 . S
C577 C571 1.491 . S
C577 C576 1.400 . S
C577 C578 1.398 . S
C578 H566 0.950 . S
C578 C577 1.398 . S
C578 C579 1.391 . S
C579 H567 0.950 . S
C579 C575 1.393 . S
C579 C578 1.391 . S
H580 C588 0.950 . S
H581 C593 0.950 . S
H582 C590 0.950 . S
H583 C592 0.950 . S
H584 C594 0.950 . S
H585 C596 0.950 . S
H586 C598 0.950 . S
H587 C599 0.950 . S
C588 H580 0.950 . S
C588 C589 1.386 . S
C588 C590 1.391 1_545 S
C589 C588 1.386 . S
C589 C593 1.393 . S
C590 H582 0.950 . S
C590 C588 1.391 1_565 S
C590 C591 1.400 . S
C591 C590 1.400 . S
C591 C592 1.398 1_565 S
C591 C597 1.491 . S
C592 H583 0.950 . S
C592 C591 1.398 1_545 S
C592 C593 1.391 . S
C593 H581 0.950 . S
C593 C589 1.393 . S
C593 C592 1.391 . S
C594 H584 0.950 . S
C594 C595 1.386 . S
C594 C596 1.391 . S
C595 C594 1.386 . S
C595 C599 1.393 . S
C596 H585 0.950 . S
C596 C594 1.391 . S
C596 C597 1.400 . S
C597 C591 1.491 . S
C597 C596 1.400 . S
C597 C598 1.398 . S
C598 H586 0.950 . S
C598 C597 1.398 . S
C598 C599 1.391 . S
C599 H587 0.950 . S
C599 C595 1.393 . S
C599 C598 1.391 . S
H600 C608 0.950 1_556 S
H601 C613 0.950 . S
H602 C610 0.950 . S
H603 C612 0.950 . S
H604 C614 0.950 . S
H605 C616 0.950 1_554 S
H606 C618 0.950 . S
H607 C619 0.950 . S
C608 H600 0.950 1_554 S
C608 C609 1.386 . S
C608 C610 1.391 1_554 S
C609 C608 1.386 . S
C609 C613 1.393 . S
C610 H602 0.950 . S
C610 C608 1.391 1_556 S
C610 C611 1.409 . S
C611 C610 1.409 . S
C611 C612 1.381 1_556 S
C611 C617 1.498 . S
C612 H603 0.950 . S
C612 C611 1.381 1_554 S
C612 C613 1.391 . S
C613 H601 0.950 . S
C613 C609 1.393 . S
C613 C612 1.391 . S
C614 H604 0.950 . S
C614 C615 1.386 . S
C614 C616 1.391 . S
C615 C614 1.386 . S
C615 C619 1.393 . S
C616 H605 0.950 1_556 S
C616 C614 1.391 . S
C616 C617 1.400 . S
C617 C611 1.498 . S
C617 C616 1.400 . S
C617 C618 1.398 . S
C618 H606 0.950 . S
C618 C617 1.398 . S
C618 C619 1.391 . S
C619 H607 0.950 . S
C619 C615 1.393 . S
C619 C618 1.391 . S
H620 C628 0.950 . S
H621 C633 0.950 . S
H622 C630 0.950 . S
H623 C632 0.950 . S
H624 C634 0.950 . S
H625 C636 0.950 . S
H626 C638 0.950 . S
H627 C639 0.950 . S
C628 H620 0.950 . S
C628 C629 1.386 . S
C628 C630 1.391 . S
C629 C628 1.386 . S
C629 C633 1.393 . S
C630 H622 0.950 . S
C630 C628 1.391 . S
C630 C631 1.400 . S
C631 C630 1.400 . S
C631 C632 1.398 . S
C631 C637 1.491 . S
C632 H623 0.950 . S
C632 C631 1.398 . S
C632 C633 1.391 . S
C633 H621 0.950 . S
C633 C629 1.393 . S
C633 C632 1.391 . S
C634 H624 0.950 . S
C634 C635 1.386 1_656 S
C634 C636 1.391 . S
C635 C634 1.386 1_454 S
C635 C639 1.393 . S
C636 H625 0.950 . S
C636 C634 1.391 . S
C636 C637 1.400 . S
C637 C631 1.491 . S
C637 C636 1.400 . S
C637 C638 1.398 1_655 S
C638 H626 0.950 . S
C638 C637 1.398 1_455 S
C638 C639 1.391 1_556 S
C639 H627 0.950 . S
C639 C635 1.393 . S
C639 C638 1.391 1_554 S
H640 C648 0.950 . S
H641 C653 0.950 . S
H642 C650 0.950 . S
H643 C652 0.950 . S
H644 C654 0.950 . S
H645 C656 0.950 . S
H646 C658 0.950 . S
H647 C659 0.950 . S
C648 H640 0.950 . S
C648 C649 1.386 . S
C648 C650 1.391 . S
C649 C648 1.386 . S
C649 C653 1.393 . S
C650 H642 0.950 . S
C650 C648 1.391 . S
C650 C651 1.400 . S
C651 C650 1.400 . S
C651 C652 1.398 . S
C651 C657 1.491 . S
C652 H643 0.950 . S
C652 C651 1.398 . S
C652 C653 1.391 . S
C653 H641 0.950 . S
C653 C649 1.393 . S
C653 C652 1.391 . S
C654 H644 0.950 . S
C654 C655 1.386 . S
C654 C656 1.391 1_554 S
C655 C654 1.386 . S
C655 C659 1.393 . S
C656 H645 0.950 . S
C656 C654 1.391 1_556 S
C656 C657 1.400 . S
C657 C651 1.491 . S
C657 C656 1.400 . S
C657 C658 1.398 1_556 S
C658 H646 0.950 . S
C658 C657 1.398 1_554 S
C658 C659 1.391 . S
C659 H647 0.950 . S
C659 C655 1.393 . S
C659 C658 1.391 . S
H660 C668 0.950 . S
H661 C673 0.950 . S
H662 C670 0.950 . S
H663 C672 0.950 . S
H664 C674 0.950 . S
H665 C676 0.950 . S
H666 C678 0.950 . S
H667 C679 0.950 . S
C668 H660 0.950 . S
C668 C669 1.386 . S
C668 C670 1.391 . S
C669 C668 1.386 . S
C669 C673 1.393 . S
C670 H662 0.950 . S
C670 C668 1.391 . S
C670 C671 1.400 . S
C671 C670 1.400 . S
C671 C672 1.398 . S
C671 C677 1.491 . S
C672 H663 0.950 . S
C672 C671 1.398 . S
C672 C673 1.391 . S
C673 H661 0.950 . S
C673 C669 1.393 . S
C673 C672 1.391 . S
C674 H664 0.950 . S
C674 C675 1.386 1_554 S
C674 C676 1.391 1_554 S
C675 C674 1.386 1_556 S
C675 C679 1.393 . S
C676 H665 0.950 . S
C676 C674 1.391 1_556 S
C676 C677 1.400 . S
C677 C671 1.491 . S
C677 C676 1.400 . S
C677 C678 1.398 . S
C678 H666 0.950 . S
C678 C677 1.398 . S
C678 C679 1.391 . S
C679 H667 0.950 . S
C679 C675 1.393 . S
C679 C678 1.391 . S
H680 C688 0.950 . S
H681 C693 0.950 . S
H682 C690 0.950 . S
H683 C692 0.950 . S
H684 C694 0.950 . S
H685 C696 0.950 . S
H686 C698 0.950 . S
H687 C699 0.950 . S
C688 H680 0.950 . S
C688 C689 1.386 1_556 S
C688 C690 1.391 . S
C689 C688 1.386 1_554 S
C689 C693 1.393 . S
C690 H682 0.950 . S
C690 C688 1.391 . S
C690 C691 1.400 . S
C691 C690 1.400 . S
C691 C692 1.398 . S
C691 C697 1.491 . S
C692 H683 0.950 . S
C692 C691 1.398 . S
C692 C693 1.391 1_556 S
C693 H681 0.950 . S
C693 C689 1.393 . S
C693 C692 1.391 1_554 S
C694 H684 0.950 . S
C694 C695 1.386 . S
C694 C696 1.391 . S
C695 C694 1.386 . S
C695 C699 1.393 . S
C696 H685 0.950 . S
C696 C694 1.391 . S
C696 C697 1.400 . S
C697 C691 1.491 . S
C697 C696 1.400 . S
C697 C698 1.398 . S
C698 H686 0.950 . S
C698 C697 1.398 . S
C698 C699 1.391 . S
C699 H687 0.950 . S
C699 C695 1.393 . S
C699 C698 1.391 . S
H700 C708 0.950 . S
H701 C713 0.950 . S
H702 C710 0.950 . S
H703 C712 0.950 . S
H704 C714 0.950 . S
H705 C716 0.950 . S
H706 C718 0.950 . S
H707 C719 0.950 . S
C708 H700 0.950 . S
C708 C709 1.386 . S
C708 C710 1.391 . S
C709 C708 1.386 . S
C709 C713 1.393 . S
C710 H702 0.950 . S
C710 C708 1.391 . S
C710 C711 1.400 . S
C711 C710 1.400 . S
C711 C712 1.398 . S
C711 C717 1.491 1_556 S
C712 H703 0.950 . S
C712 C711 1.398 . S
C712 C713 1.391 . S
C713 H701 0.950 . S
C713 C709 1.393 . S
C713 C712 1.391 . S
C714 H704 0.950 . S
C714 C715 1.386 . S
C714 C716 1.391 . S
C715 C714 1.386 . S
C715 C719 1.393 . S
C716 H705 0.950 . S
C716 C714 1.391 . S
C716 C717 1.400 . S
C717 C711 1.491 1_554 S
C717 C716 1.400 . S
C717 C718 1.398 . S
C718 H706 0.950 . S
C718 C717 1.398 . S
C718 C719 1.391 . S
C719 H707 0.950 . S
C719 C715 1.393 . S
C719 C718 1.391 . S
H720 C728 0.950 . S
H721 C733 0.950 . S
H722 C730 0.950 . S
H723 C732 0.950 . S
H724 C734 0.950 . S
H725 C736 0.950 . S
H726 C738 0.950 . S
H727 C739 0.950 . S
C728 H720 0.950 . S
C728 C729 1.386 . S
C728 C730 1.391 . S
C729 C728 1.386 . S
C729 C733 1.393 . S
C730 H722 0.950 . S
C730 C728 1.391 . S
C730 C731 1.400 . S
C731 C730 1.400 . S
C731 C732 1.398 . S
C731 C737 1.491 . S
C732 H723 0.950 . S
C732 C731 1.398 . S
C732 C733 1.391 . S
C733 H721 0.950 . S
C733 C729 1.393 . S
C733 C732 1.391 . S
C734 H724 0.950 . S
C734 C735 1.386 1_545 S
C734 C736 1.391 . S
C735 C734 1.386 1_565 S
C735 C739 1.393 . S
C736 H725 0.950 . S
C736 C734 1.391 . S
C736 C737 1.400 . S
C737 C731 1.491 . S
C737 C736 1.400 . S
C737 C738 1.398 1_545 S
C738 H726 0.950 . S
C738 C737 1.398 1_565 S
C738 C739 1.391 . S
C739 H727 0.950 . S
C739 C735 1.393 . S
C739 C738 1.391 . S
H740 C748 0.950 . S
H741 C753 0.950 . S
H742 C750 0.950 . S
H743 C752 0.950 . S
H744 C754 0.950 . S
H745 C756 0.950 . S
H746 C758 0.950 . S
H747 C759 0.950 . S
C748 H740 0.950 . S
C748 C749 1.386 . S
C748 C750 1.391 . S
C749 C748 1.386 . S
C749 C753 1.393 . S
C750 H742 0.950 . S
C750 C748 1.391 . S
C750 C751 1.400 . S
C751 C750 1.400 . S
C751 C752 1.398 . S
C751 C757 1.491 . S
C752 H743 0.950 . S
C752 C751 1.398 . S
C752 C753 1.391 . S
C753 H741 0.950 . S
C753 C749 1.393 . S
C753 C752 1.391 . S
C754 H744 0.950 . S
C754 C755 1.386 . S
C754 C756 1.391 . S
C755 C754 1.386 . S
C755 C759 1.393 . S
C756 H745 0.950 . S
C756 C754 1.391 . S
C756 C757 1.400 . S
C757 C751 1.491 . S
C757 C756 1.400 . S
C757 C758 1.398 . S
C758 H746 0.950 . S
C758 C757 1.398 . S
C758 C759 1.391 . S
C759 H747 0.950 . S
C759 C755 1.393 . S
C759 C758 1.391 . S
H760 C768 0.950 . S
H761 C773 0.950 . S
H762 C770 0.950 . S
H763 C772 0.950 . S
H764 C774 0.950 . S
H765 C776 0.950 . S
H766 C778 0.950 . S
H767 C779 0.950 . S
C768 H760 0.950 . S
C768 C769 1.386 . S
C768 C770 1.391 . S
C769 C768 1.386 . S
C769 C773 1.393 . S
C770 H762 0.950 . S
C770 C768 1.391 . S
C770 C771 1.400 . S
C771 C770 1.400 . S
C771 C772 1.398 . S
C771 C777 1.491 . S
C772 H763 0.950 . S
C772 C771 1.398 . S
C772 C773 1.391 . S
C773 H761 0.950 . S
C773 C769 1.393 . S
C773 C772 1.391 . S
C774 H764 0.950 . S
C774 C775 1.386 . S
C774 C776 1.391 . S
C775 C774 1.386 . S
C775 C779 1.393 . S
C776 H765 0.950 . S
C776 C774 1.391 . S
C776 C777 1.400 . S
C777 C771 1.491 . S
C777 C776 1.400 . S
C777 C778 1.398 . S
C778 H766 0.950 . S
C778 C777 1.398 . S
C778 C779 1.391 . S
C779 H767 0.950 . S
C779 C775 1.393 . S
C779 C778 1.391 . S
H780 C788 0.950 . S
H781 C793 0.950 . S
H782 C790 0.950 . S
H783 C792 0.950 . S
H784 C794 0.950 . S
H785 C796 0.950 . S
H786 C798 0.950 . S
H787 C799 0.950 . S
C788 H780 0.950 . S
C788 C789 1.386 . S
C788 C790 1.391 . S
C789 C788 1.386 . S
C789 C793 1.393 . S
C790 H782 0.950 . S
C790 C788 1.391 . S
C790 C791 1.400 . S
C791 C790 1.400 . S
C791 C792 1.398 . S
C791 C797 1.491 . S
C792 H783 0.950 . S
C792 C791 1.398 . S
C792 C793 1.391 . S
C793 H781 0.950 . S
C793 C789 1.393 . S
C793 C792 1.391 . S
C794 H784 0.950 . S
C794 C795 1.386 . S
C794 C796 1.391 . S
C795 C794 1.386 . S
C795 C799 1.393 . S
C796 H785 0.950 . S
C796 C794 1.391 . S
C796 C797 1.400 . S
C797 C791 1.491 . S
C797 C796 1.400 . S
C797 C798 1.398 . S
C798 H786 0.950 . S
C798 C797 1.398 . S
C798 C799 1.391 . S
C799 H787 0.950 . S
C799 C795 1.393 . S
C799 C798 1.391 . S
H800 C808 0.950 . S
H801 C813 0.950 . S
H802 C810 0.950 . S
H803 C812 0.950 . S
H804 C814 0.950 . S
H805 C816 0.950 . S
H806 C818 0.950 . S
H807 C819 0.950 . S
C808 H800 0.950 . S
C808 C809 1.386 . S
C808 C810 1.391 . S
C809 C808 1.386 . S
C809 C813 1.393 . S
C810 H802 0.950 . S
C810 C808 1.391 . S
C810 C811 1.400 . S
C811 C810 1.400 . S
C811 C812 1.398 . S
C811 C817 1.491 1_545 S
C812 H803 0.950 . S
C812 C811 1.398 . S
C812 C813 1.391 . S
C813 H801 0.950 . S
C813 C809 1.393 . S
C813 C812 1.391 . S
C814 H804 0.950 . S
C814 C815 1.386 . S
C814 C816 1.391 . S
C815 C814 1.386 . S
C815 C819 1.393 . S
C816 H805 0.950 . S
C816 C814 1.391 . S
C816 C817 1.400 . S
C817 C811 1.491 1_565 S
C817 C816 1.400 . S
C817 C818 1.398 . S
C818 H806 0.950 . S
C818 C817 1.398 . S
C818 C819 1.391 . S
C819 H807 0.950 . S
C819 C815 1.393 . S
C819 C818 1.391 . S
H820 C828 0.947 1_455 S
H821 C833 0.950 . S
H822 C830 0.950 . S
H823 C832 0.950 . S
H824 C834 0.950 . S
H825 C836 0.993 . S
H826 C838 0.950 . S
H827 C839 0.950 . S
C828 H820 0.947 1_655 S
C828 C829 1.408 . S
C828 C830 1.372 1_655 S
C829 C828 1.408 . S
C829 C833 1.393 . S
C830 H822 0.950 . S
C830 C828 1.372 1_455 S
C830 C831 1.400 1_455 S
C831 C830 1.400 1_655 S
C831 C832 1.398 . S
C831 C837 1.491 1_655 S
C832 H823 0.950 . S
C832 C831 1.398 . S
C832 C833 1.391 . S
C833 H821 0.950 . S
C833 C829 1.393 . S
C833 C832 1.391 . S
C834 H824 0.950 . S
C834 C835 1.386 . S
C834 C836 1.354 1_455 S
C835 C834 1.386 . S
C835 C839 1.393 . S
C836 H825 0.993 . S
C836 C834 1.354 1_655 S
C836 C837 1.396 1_655 S
C837 C831 1.491 1_455 S
C837 C836 1.396 1_455 S
C837 C838 1.398 . S
C838 H826 0.950 . S
C838 C837 1.398 . S
C838 C839 1.391 . S
C839 H827 0.950 . S
C839 C835 1.393 . S
C839 C838 1.391 . S
H840 C848 0.950 . S
H841 C853 0.950 . S
H842 C850 0.950 . S
H843 C852 0.950 . S
H844 C854 0.950 . S
H845 C856 0.950 . S
H846 C858 0.950 . S
H847 C859 0.950 . S
C848 H840 0.950 . S
C848 C849 1.386 . S
C848 C850 1.391 . S
C849 C848 1.386 . S
C849 C853 1.393 . S
C850 H842 0.950 . S
C850 C848 1.391 . S
C850 C851 1.400 . S
C851 C850 1.400 . S
C851 C852 1.398 . S
C851 C857 1.491 . S
C852 H843 0.950 . S
C852 C851 1.398 . S
C852 C853 1.391 . S
C853 H841 0.950 . S
C853 C849 1.393 . S
C853 C852 1.391 . S
C854 H844 0.950 . S
C854 C855 1.386 . S
C854 C856 1.391 . S
C855 C854 1.386 . S
C855 C859 1.393 . S
C856 H845 0.950 . S
C856 C854 1.391 . S
C856 C857 1.400 . S
C857 C851 1.491 . S
C857 C856 1.400 . S
C857 C858 1.398 . S
C858 H846 0.950 . S
C858 C857 1.398 . S
C858 C859 1.391 . S
C859 H847 0.950 . S
C859 C855 1.393 . S
C859 C858 1.391 . S
H860 C868 0.950 . S
H861 C873 0.950 . S
H862 C870 0.950 . S
H863 C872 0.950 1_545 S
H864 C874 0.950 . S
H865 C876 0.950 . S
H866 C878 0.950 . S
H867 C879 0.950 . S
C868 H860 0.950 . S
C868 C869 1.386 . S
C868 C870 1.391 . S
C869 C868 1.386 . S
C869 C873 1.393 . S
C870 H862 0.950 . S
C870 C868 1.391 . S
C870 C871 1.400 1_565 S
C871 C870 1.400 1_545 S
C871 C872 1.398 1_545 S
C871 C877 1.491 . S
C872 H863 0.950 1_565 S
C872 C871 1.398 1_565 S
C872 C873 1.391 . S
C873 H861 0.950 . S
C873 C869 1.393 . S
C873 C872 1.391 . S
C874 H864 0.950 . S
C874 C875 1.386 . S
C874 C876 1.391 . S
C875 C874 1.386 . S
C875 C879 1.393 . S
C876 H865 0.950 . S
C876 C874 1.391 . S
C876 C877 1.400 . S
C877 C871 1.491 . S
C877 C876 1.400 . S
C877 C878 1.398 . S
C878 H866 0.950 . S
C878 C877 1.398 . S
C878 C879 1.391 . S
C879 H867 0.950 . S
C879 C875 1.393 . S
C879 C878 1.391 . S
H880 C888 0.950 . S
H881 C893 0.950 . S
H882 C890 0.950 . S
H883 C892 0.949 . S
H884 C894 0.950 . S
H885 C896 0.950 . S
H886 C898 0.950 . S
H887 C899 0.950 . S
C888 H880 0.950 . S
C888 C889 1.386 . S
C888 C890 1.391 . S
C889 C888 1.386 . S
C889 C893 1.393 . S
C890 H882 0.950 . S
C890 C888 1.391 . S
C890 C891 1.400 . S
C891 C890 1.400 . S
C891 C892 1.398 . S
C891 C897 1.491 1_655 S
C892 H883 0.949 . S
C892 C891 1.398 . S
C892 C893 1.391 . S
C893 H881 0.950 . S
C893 C889 1.393 . S
C893 C892 1.391 . S
C894 H884 0.950 . S
C894 C895 1.386 . S
C894 C896 1.391 . S
C895 C894 1.386 . S
C895 C899 1.393 . S
C896 H885 0.950 . S
C896 C894 1.391 . S
C896 C897 1.400 . S
C897 C891 1.491 1_455 S
C897 C896 1.400 . S
C897 C898 1.398 . S
C898 H886 0.950 . S
C898 C897 1.398 . S
C898 C899 1.391 . S
C899 H887 0.950 . S
C899 C895 1.393 . S
C899 C898 1.391 . S
C369 C9 3.353 . S
C375 C18 3.353 . S
C389 C58 3.434 . S
C395 C49 3.434 . S
C409 C89 3.478 1_556 S
C415 C98 3.478 . S
C429 C138 3.354 . S
C435 C129 3.354 . S
C449 C169 3.433 . S
C455 C178 3.433 1_556 S
C469 C218 3.477 . S
C475 C209 3.477 1_556 S
C489 C246 2.559 . S
C495 C255 2.559 . S
C509 C295 2.848 . S
C515 C286 2.848 . S
C529 C326 1.930 . S
C535 C335 1.930 . S
C549 C210 1.735 . S
C555 C6 1.770 . S
C569 C50 2.742 . S
C575 C130 2.767 . S
C589 C86 1.222 . S
C595 C166 1.226 . S
C609 C90 2.955 . S
C615 C259 3.108 . S
C629 C298 1.163 . S
C635 C10 1.143 . S
C649 C339 1.943 . S
C655 C46 1.840 . S
C669 C329 0.835 . S
C675 C15 0.826 . S
C689 C59 2.179 . S
C695 C249 2.244 . S
C709 C290 2.922 . S
C715 C95 2.758 . S
C729 C99 1.748 . S
C735 C135 1.772 . S
C749 C179 2.746 . S
C755 C19 2.772 . S
C769 C55 1.222 . S
C775 C215 1.211 . S
C789 C338 0.834 . S
C795 C126 0.815 . S
C809 C258 2.237 . S
C815 C170 2.175 . S
C829 C299 2.921 . S
C835 C206 2.747 . S
C849 C250 3.109 . S
C855 C219 2.957 . S
C869 C139 1.143 . S
C875 C289 1.163 . S
C889 C330 1.944 . S
C895 C175 1.819 . S
