# Generated by pormake.
# Topology smu, (6)-cn, num edge types: 1
# Building blocks:
#     Node 0, Type 0, BuildingBlock: GEDQOX_clean_sbu_0, # of connection points: 6
#     Node 1, Type 0, BuildingBlock: GEDQOX_clean_sbu_0, # of connection points: 6
#     Node 2, Type 0, BuildingBlock: GEDQOX_clean_sbu_0, # of connection points: 6
#     Node 3, Type 0, BuildingBlock: GEDQOX_clean_sbu_0, # of connection points: 6
#     Node 4, Type 0, BuildingBlock: GEDQOX_clean_sbu_0, # of connection points: 6
#     Node 5, Type 0, BuildingBlock: GEDQOX_clean_sbu_0, # of connection points: 6
#     Edge 6, Type (0, 0), BuildingBlock: EZIPEK_clean_linker_0, # of connection points: 2
#     Edge 7, Type (0, 0), BuildingBlock: EZIPEK_clean_linker_0, # of connection points: 2
#     Edge 8, Type (0, 0), BuildingBlock: EZIPEK_clean_linker_0, # of connection points: 2
#     Edge 9, Type (0, 0), BuildingBlock: EZIPEK_clean_linker_0, # of connection points: 2
#     Edge 10, Type (0, 0), BuildingBlock: EZIPEK_clean_linker_0, # of connection points: 2
#     Edge 11, Type (0, 0), BuildingBlock: EZIPEK_clean_linker_0, # of connection points: 2
#     Edge 12, Type (0, 0), BuildingBlock: EZIPEK_clean_linker_0, # of connection points: 2
#     Edge 13, Type (0, 0), BuildingBlock: EZIPEK_clean_linker_0, # of connection points: 2
#     Edge 14, Type (0, 0), BuildingBlock: EZIPEK_clean_linker_0, # of connection points: 2
#     Edge 15, Type (0, 0), BuildingBlock: EZIPEK_clean_linker_0, # of connection points: 2
#     Edge 16, Type (0, 0), BuildingBlock: EZIPEK_clean_linker_0, # of connection points: 2
#     Edge 17, Type (0, 0), BuildingBlock: EZIPEK_clean_linker_0, # of connection points: 2
#     Edge 18, Type (0, 0), BuildingBlock: EZIPEK_clean_linker_0, # of connection points: 2
#     Edge 19, Type (0, 0), BuildingBlock: EZIPEK_clean_linker_0, # of connection points: 2
#     Edge 20, Type (0, 0), BuildingBlock: EZIPEK_clean_linker_0, # of connection points: 2
#     Edge 21, Type (0, 0), BuildingBlock: EZIPEK_clean_linker_0, # of connection points: 2
#     Edge 22, Type (0, 0), BuildingBlock: EZIPEK_clean_linker_0, # of connection points: 2
#     Edge 23, Type (0, 0), BuildingBlock: EZIPEK_clean_linker_0, # of connection points: 2
# Relax obj value: 0.227
# Max RMSD: 0.337
# Mean RMSD: 0.337
data_MOF--net-smu--node1-GEDQOX_clean_sbu_0--edge1-EZIPEK_clean_linker_0
_symmetry_space_group_name_H-M    P1
_symmetry_Int_Tables_number       1
_symmetry_cell_setting            triclinic
loop_
_symmetry_equiv_pos_as_xyz
'x, y, z'
_cell_length_a     30.985009
_cell_length_b     31.106772
_cell_length_c     19.977901
_cell_angle_alpha  90.479892
_cell_angle_beta   89.428328
_cell_angle_gamma 119.99345
loop_
_atom_site_label
_atom_site_type_symbol
_atom_site_fract_x
_atom_site_fract_y
_atom_site_fract_z
_atom_type_partial_charge
Nd0 Nd 0.39949 0.15282 0.2679 0.0
Nd1 Nd 0.34375 0.05062 0.2682 0.0
C2 C 0.46208 0.24959 0.26565 0.0
C3 C 0.49723 0.30385 0.26431 0.0
C4 C 0.53811 0.32426 0.21982 0.0
C5 C 0.57035 0.37569 0.21715 0.0
C6 C 0.56227 0.40752 0.25896 0.0
C7 C 0.52212 0.38725 0.30426 0.0
C8 C 0.48981 0.33588 0.30683 0.0
C9 C 0.37346 0.10647 0.39563 0.0
C10 C 0.46338 0.10051 0.26027 0.0
C11 C 0.2718 0.95938 0.29287 0.0
C12 C 0.21706 0.93676 0.28837 0.0
C13 C 0.19129 0.95418 0.32847 0.0
C14 C 0.13982 0.93356 0.32242 0.0
C15 C 0.11321 0.89515 0.27642 0.0
C16 C 0.13872 0.87812 0.23563 0.0
C17 C 0.19032 0.89888 0.24147 0.0
C18 C 0.3677 0.07635 0.13898 0.0
C19 C 0.29083 0.11961 0.2465 0.0
O20 O 0.47128 0.21779 0.23483 0.0
O21 O 0.41945 0.2298 0.2976 0.0
O22 O 0.36545 0.14176 0.37761 0.0
O23 O 0.39293 0.09751 0.34696 0.0
O24 O 0.45954 0.13658 0.23373 0.0
O25 O 0.42345 0.06248 0.28778 0.0
O26 O 0.29392 0.99264 0.33979 0.0
O27 O 0.29633 0.97209 0.23623 0.0
O28 O 0.37493 0.0441 0.16981 0.0
O29 O 0.35447 0.1 0.17942 0.0
O30 O 0.28758 0.0813 0.27954 0.0
O31 O 0.33381 0.15067 0.22014 0.0
H32 H 0.54492 0.30054 0.18664 0.0
H33 H 0.60155 0.39071 0.18246 0.0
H34 H 0.51583 0.41127 0.33757 0.0
H35 H 0.45897 0.32125 0.34207 0.0
H36 H 0.21075 0.9836 0.36477 0.0
H37 H 0.12054 0.94691 0.35445 0.0
H38 H 0.11856 0.84831 0.20008 0.0
H39 H 0.20935 0.88526 0.20948 0.0
Nd40 Nd 0.81535 0.68033 0.26768 0.0
Nd41 Nd 0.77766 0.73685 0.26349 0.0
C42 C 0.84791 0.61633 0.27186 0.0
C43 C 0.86597 0.58029 0.27385 0.0
C44 C 0.84949 0.54166 0.2264 0.0
C45 C 0.86972 0.5102 0.22462 0.0
C46 C 0.9066 0.51674 0.27042 0.0
C47 C 0.92223 0.55442 0.31886 0.0
C48 C 0.90226 0.58607 0.32041 0.0
C49 C 0.77987 0.69687 0.39395 0.0
C50 C 0.70413 0.61793 0.24344 0.0
C51 C 0.76575 0.81309 0.29366 0.0
C52 C 0.79593 0.86735 0.28364 0.0
C53 C 0.82966 0.89739 0.33308 0.0
C54 C 0.85698 0.94879 0.3258 0.0
C55 C 0.8487 0.97255 0.27147 0.0
C56 C 0.82093 0.94125 0.21747 0.0
C57 C 0.79359 0.88964 0.22434 0.0
C58 C 0.78306 0.71895 0.13304 0.0
C59 C 0.89942 0.78463 0.26035 0.0
O60 O 0.80817 0.60768 0.23886 0.0
O61 O 0.86951 0.65849 0.30433 0.0
O62 O 0.82525 0.70778 0.3813 0.0
O63 O 0.75706 0.6815 0.34083 0.0
O64 O 0.745 0.62288 0.21794 0.0
O65 O 0.70685 0.65669 0.27575 0.0
O66 O 0.78536 0.79483 0.33374 0.0
O67 O 0.74454 0.78451 0.24171 0.0
O68 O 0.74453 0.71636 0.16248 0.0
O69 O 0.81845 0.72772 0.17416 0.0
O70 O 0.86288 0.78842 0.28842 0.0
O71 O 0.8881 0.74317 0.23104 0.0
H72 H 0.82172 0.53639 0.18973 0.0
H73 H 0.85685 0.48095 0.18733 0.0
H74 H 0.95023 0.55958 0.35508 0.0
H75 H 0.91563 0.6154 0.35761 0.0
H76 H 0.83528 0.88127 0.3777 0.0
H77 H 0.88467 0.96916 0.36341 0.0
H78 H 0.82013 0.95551 0.16884 0.0
H79 H 0.7709 0.86732 0.18297 0.0
Nd80 Nd 0.93053 0.2639 0.26896 0.0
Nd81 Nd 1.02765 0.30732 0.26856 0.0
C82 C 0.83308 0.2283 0.27254 0.0
C83 C 0.77856 0.20881 0.27351 0.0
C84 C 0.75601 0.22195 0.22299 0.0
C85 C 0.70424 0.20196 0.22231 0.0
C86 C 0.67421 0.16876 0.27236 0.0
C87 C 0.69665 0.15626 0.32347 0.0
C88 C 0.74837 0.17592 0.32388 0.0
C89 C 0.97805 0.28593 0.39756 0.0
C90 C 0.97903 0.37821 0.25676 0.0
C91 C 0.1163 0.31951 0.29671 0.0
C92 C 0.1385 0.28729 0.28677 0.0
C93 C 0.13074 0.25113 0.33446 0.0
C94 C 0.15286 0.22177 0.32677 0.0
C95 C 0.1868 0.22998 0.27391 0.0
C96 C 0.18706 0.26035 0.22102 0.0
C97 C 0.16497 0.28988 0.22839 0.0
C98 C 1.00763 0.30741 0.13911 0.0
C99 C 0.95766 0.186 0.24394 0.0
O100 O 0.8638 0.26842 0.23984 0.0
O101 O 0.85429 0.2073 0.30434 0.0
O102 O 0.94768 0.24181 0.37479 0.0
O103 O 0.98436 0.31436 0.35056 0.0
O104 O 0.94233 0.33745 0.23301 0.0
O105 O 1.01739 0.37699 0.28314 0.0
O106 O 0.07947 0.3029 0.33925 0.0
O107 O 0.10836 0.33918 0.24401 0.0
O108 O 1.03993 0.3461 0.17173 0.0
O109 O 0.98113 0.26999 0.17713 0.0
O110 O 0.99618 0.22088 0.27669 0.0
O111 O 0.9275 0.19863 0.21787 0.0
H112 H 0.77831 0.24718 0.18349 0.0
H113 H 0.68757 0.21241 0.18285 0.0
H114 H 0.67406 0.13121 0.36296 0.0
H115 H 0.76474 0.16543 0.36366 0.0
H116 H 0.10722 0.24508 0.37795 0.0
H117 H 0.14228 0.19244 0.36271 0.0
H118 H 0.20354 0.26161 0.17281 0.0
H119 H 0.16838 0.31444 0.188 0.0
Nd120 Nd 0.07328 0.33042 0.76813 0.0
Nd121 Nd 0.17222 0.38162 0.7666 0.0
C122 C 0.98309 0.25707 0.79777 0.0
C123 C 0.95925 0.20263 0.78864 0.0
C124 C 0.97132 0.17414 0.83048 0.0
C125 C 0.94759 0.12266 0.82323 0.0
C126 C 0.90857 0.09723 0.77686 0.0
C127 C 0.90303 0.12727 0.72849 0.0
C128 C 0.92638 0.17881 0.73585 0.0
C129 C 0.09529 0.34603 0.63758 0.0
C130 C 0.14013 0.27416 0.75346 0.0
C131 C 0.27006 0.44058 0.76354 0.0
C132 C 0.32491 0.47389 0.76134 0.0
C133 C 0.34708 0.51192 0.71339 0.0
C134 C 0.39892 0.5432 0.71121 0.0
C135 C 0.42948 0.53689 0.7568 0.0
C136 C 0.40748 0.49896 0.8046 0.0
C137 C 0.35571 0.46772 0.80682 0.0
C138 C 0.12458 0.36129 0.89552 0.0
C139 C 0.12367 0.44965 0.75284 0.0
O140 O 1.01949 0.27642 0.84042 0.0
O141 O 0.99254 0.28427 0.74423 0.0
O142 O 0.06429 0.35571 0.66839 0.0
O143 O 0.12018 0.33478 0.67795 0.0
O144 O 0.1011 0.27286 0.78267 0.0
O145 O 0.17274 0.31506 0.72509 0.0
O146 O 0.2399 0.44722 0.72539 0.0
O147 O 0.24799 0.40269 0.804 0.0
O148 O 0.15525 0.34694 0.87517 0.0
O149 O 0.11899 0.38244 0.84672 0.0
O150 O 0.1623 0.44574 0.73574 0.0
O151 O 0.08257 0.40991 0.77363 0.0
H152 H 0.99934 0.19143 0.86898 0.0
H153 H 0.96064 0.10337 0.85444 0.0
H154 H 0.88172 0.11236 0.68352 0.0
H155 H 0.91913 0.20006 0.69952 0.0
H156 H 0.32437 0.51771 0.67775 0.0
H157 H 0.41513 0.57286 0.67479 0.0
H158 H 0.4304 0.4942 0.84104 0.0
H159 H 0.33981 0.439 0.84455 0.0
Nd160 Nd 0.32366 1.01142 0.7622 0.0
Nd161 Nd 0.28285 0.91455 0.76461 0.0
C162 C 0.3377 0.10151 0.78439 0.0
C163 C 0.30394 0.12197 0.7778 0.0
C164 C 0.25678 0.09883 0.80935 0.0
C165 C 0.22539 0.11874 0.80382 0.0
C166 C 0.24049 0.16204 0.76671 0.0
C167 C 0.28683 0.18448 0.73366 0.0
C168 C 0.31833 0.16452 0.73913 0.0
C169 C 0.3189 0.98693 0.63214 0.0
C170 C 0.20005 0.93675 0.75954 0.0
C171 C 0.24942 0.81788 0.76913 0.0
C172 C 0.22911 0.76363 0.76803 0.0
C173 C 0.19991 0.73517 0.71402 0.0
C174 C 0.17956 0.68364 0.71318 0.0
C175 C 0.18904 0.65963 0.76552 0.0
C176 C 0.21868 0.68823 0.81941 0.0
C177 C 0.23795 0.73975 0.82109 0.0
C178 C 0.30853 0.96488 0.89186 0.0
C179 C 0.39808 0.96664 0.74687 0.0
O180 O 0.32619 0.06864 0.83126 0.0
O181 O 0.35167 0.0893 0.72908 0.0
O182 O 0.35895 1.01929 0.66212 0.0
O183 O 0.2829 0.96206 0.67363 0.0
O184 O 0.23711 0.97821 0.7846 0.0
O185 O 0.2109 0.90609 0.7304 0.0
O186 O 0.2685 0.84451 0.71542 0.0
O187 O 0.24883 0.84267 0.82166 0.0
O188 O 0.26398 0.93366 0.87198 0.0
O189 O 0.33597 0.9713 0.84253 0.0
O190 O 0.35707 0.92866 0.72571 0.0
O191 O 0.39609 1.00515 0.77193 0.0
H192 H 0.24417 0.06557 0.83888 0.0
H193 H 0.18967 0.10092 0.82944 0.0
H194 H 0.29888 0.21786 0.70457 0.0
H195 H 0.35411 0.18255 0.71371 0.0
H196 H 0.19237 0.75275 0.67272 0.0
H197 H 0.15692 0.66244 0.67109 0.0
H198 H 0.22678 0.67065 0.86015 0.0
H199 H 0.26031 0.76101 0.86333 0.0
Nd200 Nd 0.76311 0.76551 0.76308 0.0
Nd201 Nd 0.69744 0.80136 0.77567 0.0
C202 C 0.82907 0.73656 0.77748 0.0
C203 C 0.88367 0.76847 0.78342 0.0
C204 C 0.90543 0.80171 0.8374 0.0
C205 C 0.95669 0.83575 0.8374 0.0
C206 C 0.98655 0.83766 0.78293 0.0
C207 C 0.96482 0.80521 0.72872 0.0
C208 C 0.91397 0.77075 0.72915 0.0
C209 C 0.74045 0.77599 0.63613 0.0
C210 C 0.80934 0.88381 0.75185 0.0
C211 C 0.64909 0.85152 0.78839 0.0
C212 C 0.60697 0.86091 0.78156 0.0
C213 C 0.5892 0.86513 0.71925 0.0
C214 C 0.553 0.87953 0.71512 0.0
C215 C 0.53132 0.88793 0.77324 0.0
C216 C 0.55367 0.88809 0.83486 0.0
C217 C 0.58935 0.87328 0.83905 0.0
C218 C 0.73305 0.78372 0.89695 0.0
C219 C 0.6373 0.68911 0.76113 0.0
O220 O 0.80104 0.73615 0.8272 0.0
O221 O 0.812 0.73973 0.71977 0.0
O222 O 0.78514 0.79854 0.65986 0.0
O223 O 0.70836 0.75927 0.684 0.0
O224 O 0.81885 0.84992 0.7749 0.0
O225 O 0.76376 0.87042 0.73522 0.0
O226 O 0.67695 0.85556 0.73659 0.0
O227 O 0.64607 0.81924 0.83218 0.0
O228 O 0.68692 0.76831 0.88387 0.0
O229 O 0.75786 0.80763 0.84703 0.0
O230 O 0.63509 0.7282 0.74396 0.0
O231 O 0.68141 0.69353 0.77688 0.0
H232 H 0.88296 0.80173 0.87928 0.0
H233 H 0.9732 0.86002 0.88017 0.0
H234 H 0.98757 0.80566 0.68688 0.0
H235 H 0.89805 0.74632 0.68635 0.0
H236 H 0.60437 0.85892 0.67349 0.0
H237 H 0.54408 0.88583 0.66543 0.0
H238 H 0.54619 0.90172 0.88066 0.0
H239 H 0.60493 0.87367 0.88755 0.0
C240 C 0.28815 0.98591 1.00826 0.0
C241 C 0.32208 0.99931 0.95285 0.0
C242 C 0.38185 0.07492 0.01693 0.0
C243 C 0.34764 0.06082 0.07019 0.0
N244 N 0.26305 1.01255 0.10865 0.0
N245 N 0.403 0.06013 0.90675 0.0
C246 C 0.29895 1.01977 0.06265 0.0
C247 C 0.3692 0.04508 0.9577 0.0
N248 N 0.24811 0.93893 1.01328 0.0
N249 N 0.42575 0.11892 0.02214 0.0
H250 H 0.39267 0.05296 0.85734 0.0
H251 H 0.44119 0.08322 0.91283 0.0
H252 H 0.43449 0.14159 0.06452 0.0
H253 H 0.45178 0.13521 0.98376 0.0
H254 H 0.22513 0.92616 0.05544 0.0
H255 H 0.24151 0.91013 0.98064 0.0
H256 H 0.22549 0.98631 0.10273 0.0
H257 H 0.26994 0.03658 0.14892 0.0
C258 C 0.74943 0.70832 0.57818 0.0
C259 C 0.73521 0.74526 0.57495 0.0
C260 C 0.73035 0.73333 0.45366 0.0
C261 C 0.75987 0.70947 0.45628 0.0
N262 N 0.79567 0.67287 0.52706 0.0
N263 N 0.71462 0.79499 0.50551 0.0
C264 C 0.76924 0.69692 0.52044 0.0
C265 C 0.72652 0.75851 0.51142 0.0
N266 N 0.74096 0.68161 0.63517 0.0
N267 N 0.70296 0.72967 0.39886 0.0
H268 H 0.70939 0.8125 0.54707 0.0
H269 H 0.71297 0.80938 0.4592 0.0
H270 H 0.70088 0.70931 0.35671 0.0
H271 H 0.67817 0.74316 0.39829 0.0
H272 H 0.74607 0.65101 0.63839 0.0
H273 H 0.7241 0.68728 0.67684 0.0
H274 H 0.80777 0.66796 0.57342 0.0
H275 H 0.80742 0.65999 0.48645 0.0
C276 C 0.06091 0.29194 0.05979 0.0
C277 C 1.02317 0.30455 0.06959 0.0
C278 C 1.0445 0.34558 0.96061 0.0
C279 C 0.0887 0.34105 0.95541 0.0
N280 N 0.14314 0.31925 1.0148 0.0
N281 N 0.98394 0.34998 0.03366 0.0
C282 C 0.09781 0.31627 1.00874 0.0
C283 C 1.01659 0.33328 0.02121 0.0
N284 N 0.06305 0.25851 0.10145 0.0
N285 N 1.02627 0.35859 0.90755 0.0
H286 H 0.9596 0.33816 0.07466 0.0
H287 H 0.98341 0.37788 1.00573 0.0
H288 H 1.03851 0.36034 0.85939 0.0
H289 H 0.9925 0.35828 0.90854 0.0
H290 H 0.08721 0.24473 0.09354 0.0
H291 H 1.037 0.24059 0.13951 0.0
H292 H 0.15268 0.3053 0.0558 0.0
H293 H 0.17377 0.34153 0.98472 0.0
C294 C 0.30814 0.06139 0.48989 0.0
C295 C 0.35296 0.07184 0.45526 0.0
C296 C 0.35193 1.00321 0.51775 0.0
C297 C 0.31489 1.0006 0.56177 0.0
N298 N 0.25903 1.03063 0.59181 0.0
N299 N 0.42362 0.05828 0.45189 0.0
C300 C 0.29289 1.03024 0.548 0.0
C301 C 0.37626 0.04386 0.47301 0.0
N302 N 0.27891 0.07935 0.46694 0.0
N303 N 0.36592 0.96813 0.52175 0.0
H304 H 0.44579 0.09133 0.4266 0.0
H305 H 0.44336 0.04125 0.46779 0.0
H306 H 0.34853 0.93836 0.55496 0.0
H307 H 0.39055 0.96595 0.48781 0.0
H308 H 0.24361 0.06837 0.48651 0.0
H309 H 0.28717 0.10105 0.42441 0.0
H310 H 0.2472 0.05662 0.58972 0.0
H311 H 0.24439 1.0062 0.6319 0.0
C312 C 0.79792 0.79692 0.98502 0.0
C313 C 0.75262 0.76396 0.95122 0.0
C314 C 0.74507 0.69528 0.02203 0.0
C315 C 0.78656 0.7293 0.05969 0.0
N316 N 0.86272 0.8065 0.0623 0.0
N317 N 0.6848 0.67956 0.93631 0.0
C318 C 0.81633 0.77832 0.03623 0.0
C319 C 0.72705 0.71238 0.96895 0.0
N320 N 0.82146 0.84667 0.97195 0.0
N321 N 0.72329 0.64602 0.03779 0.0
H322 H 0.67415 0.68816 0.89223 0.0
H323 H 0.65983 0.64387 0.95267 0.0
H324 H 0.73719 0.63355 0.07582 0.0
H325 H 0.69471 0.61726 1.011 0.0
H326 H 0.85159 0.87319 0.99926 0.0
H327 H 0.80844 0.86235 0.9374 0.0
H328 H 0.88871 0.84159 0.04485 0.0
H329 H 0.87702 0.79146 0.09601 0.0
C330 C 0.99963 0.26575 0.51255 0.0
C331 C 1.01336 0.29892 0.45705 0.0
C332 C 0.09261 0.35599 0.51612 0.0
C333 C 0.07787 0.32346 0.57038 0.0
N334 N 1.02467 0.24213 0.61465 0.0
N335 N 0.07406 0.3804 0.4125 0.0
C336 C 1.03394 0.27643 0.56615 0.0
C337 C 0.06026 0.34513 0.46056 0.0
N338 N 0.9519 0.22697 0.51844 0.0
N339 N 0.13934 0.39684 0.5167 0.0
H340 H 0.06615 0.37181 0.36274 0.0
H341 H 0.09807 0.41808 0.42133 0.0
H342 H 0.16362 0.40463 0.55675 0.0
H343 H 0.15584 0.42002 0.47571 0.0
H344 H 0.93832 0.20471 0.56078 0.0
H345 H 0.92352 0.22049 0.48542 0.0
H346 H 0.99646 0.20519 0.61157 0.0
H347 H 0.04863 0.24953 0.65486 0.0
C348 C 0.53593 0.08914 0.22929 0.0
C349 C 0.51504 0.11095 0.27143 0.0
C350 C 0.59873 0.17197 0.31179 0.0
C351 C 0.61926 0.14831 0.27259 0.0
N352 N 0.60814 0.08171 0.19927 0.0
N353 N 0.52529 0.17027 0.35765 0.0
C354 C 0.58799 0.10598 0.23298 0.0
C355 C 0.54615 0.15133 0.31443 0.0
N356 N 0.50646 0.05424 0.18322 0.0
N357 N 0.62977 0.21573 0.34377 0.0
H358 H 0.48746 0.15878 0.35821 0.0
H359 H 0.54471 0.19509 0.3961 0.0
H360 H 0.66845 0.23171 0.34379 0.0
H361 H 0.61785 0.23836 0.36613 0.0
H362 H 0.52022 0.04147 0.14492 0.0
H363 H 0.46804 0.04001 0.18091 0.0
H364 H 0.587 0.04788 0.17484 0.0
H365 H 0.6462 0.09379 0.19936 0.0
C366 C 0.62421 0.54389 0.20584 0.0
C367 C 0.66292 0.56609 0.2536 0.0
C368 C 0.63632 0.48421 0.30346 0.0
C369 C 0.5968 0.46221 0.25692 0.0
N370 N 0.5519 0.46885 0.1637 0.0
N371 N 0.70466 0.55872 0.35082 0.0
C372 C 0.59033 0.49153 0.20809 0.0
C373 C 0.66842 0.53658 0.30342 0.0
N374 N 0.62086 0.5731 0.15769 0.0
N375 N 0.64478 0.45451 0.34523 0.0
H376 H 0.73177 0.59592 0.34948 0.0
H377 H 0.70677 0.54111 0.39367 0.0
H378 H 0.62172 0.41607 0.34737 0.0
H379 H 0.67631 0.46691 0.37472 0.0
H380 H 0.59574 0.56009 0.11837 0.0
H381 H 0.64418 0.61155 0.15661 0.0
H382 H 0.54351 0.48714 0.12732 0.0
H383 H 0.52701 0.4307 0.16373 0.0
C384 C 0.98456 0.45758 0.21834 0.0
C385 C 0.96923 0.41988 0.2672 0.0
C386 C 0.91029 0.44339 0.31455 0.0
C387 C 0.9282 0.48336 0.26887 0.0
N388 N 0.9864 0.53292 0.1825 0.0
N389 N 0.92319 0.38135 0.36831 0.0
C390 C 0.96665 0.49182 0.22233 0.0
C391 C 0.93397 0.41439 0.31745 0.0
N392 N 1.01443 0.4592 0.16648 0.0
N393 N 0.86916 0.43175 0.35312 0.0
H394 H 0.93978 0.35956 0.37221 0.0
H395 H 0.90155 0.3788 0.40991 0.0
H396 H 0.85095 0.45231 0.35271 0.0
H397 H 0.8504 0.39939 0.38121 0.0
H398 H 1.02186 0.48152 0.12452 0.0
H399 H 1.0296 0.4359 0.16371 0.0
H400 H 1.01778 0.54396 0.15236 0.0
H401 H 0.97347 0.55811 0.18305 0.0
C402 C 0.15711 0.53202 0.6986 0.0
C403 C 0.13077 0.50069 0.7533 0.0
C404 C 0.1364 0.57283 0.81271 0.0
C405 C 0.1691 0.6048 0.76221 0.0
N406 N 0.22038 0.61438 0.66529 0.0
N407 N 0.10505 0.49434 0.86947 0.0
C408 C 0.18214 0.58428 0.70726 0.0
C409 C 0.12263 0.52171 0.8123 0.0
N410 N 0.15817 0.51178 0.63806 0.0
N411 N 0.11764 0.59083 0.86042 0.0
H412 H 0.09572 0.45735 0.87273 0.0
H413 H 0.10415 0.50984 0.91556 0.0
H414 H 0.12581 0.62766 0.86166 0.0
H415 H 0.09013 0.56807 0.89456 0.0
H416 H 0.17368 0.53299 0.59512 0.0
H417 H 0.13871 0.47355 0.62922 0.0
H418 H 0.23454 0.60068 0.62861 0.0
H419 H 0.24162 0.65273 0.67191 0.0
C420 C 0.45529 0.95103 0.8174 0.0
C421 C 0.44122 0.95819 0.75282 0.0
C422 C 0.46921 0.90276 0.70638 0.0
C423 C 0.49086 0.90253 0.76853 0.0
N424 N 0.46405 0.89183 0.88378 0.0
N425 N 0.4406 0.94507 0.63391 0.0
C426 C 0.47356 0.91755 0.82539 0.0
C427 C 0.45073 0.9358 0.69674 0.0
N428 N 0.44965 0.9745 0.87188 0.0
N429 N 0.45724 0.86508 0.66174 0.0
H430 H 0.42782 0.96988 0.62544 0.0
H431 H 0.44969 0.93208 0.59079 0.0
H432 H 0.46106 0.83452 0.67367 0.0
H433 H 0.43686 0.86044 0.61841 0.0
H434 H 0.4629 0.97297 0.91908 0.0
H435 H 0.43693 0.9996 0.86843 0.0
H436 H 0.44725 0.89812 0.92528 0.0
H437 H 0.46514 0.85886 0.88625 0.0
C438 C 0.5173 0.57156 0.71123 0.0
C439 C 0.48402 0.57308 0.75938 0.0
C440 C 0.55439 0.64088 0.81795 0.0
C441 C 0.58788 0.64258 0.7671 0.0
N442 N 0.59941 0.6145 0.6593 0.0
N443 N 0.46956 0.61584 0.85019 0.0
C444 C 0.56887 0.6089 0.71228 0.0
C445 C 0.50226 0.60932 0.81071 0.0
N446 N 0.49959 0.5343 0.66466 0.0
N447 N 0.57231 0.67013 0.87345 0.0
H448 H 0.43095 0.59391 0.8463 0.0
H449 H 0.48035 0.64591 0.88248 0.0
H450 H 0.60948 0.69613 0.87888 0.0
H451 H 0.55104 0.6659 0.91619 0.0
H452 H 0.52245 0.52816 0.63216 0.0
H453 H 0.46202 0.50723 0.66161 0.0
H454 H 0.58672 0.59572 0.61398 0.0
H455 H 0.63734 0.64047 0.65932 0.0
C456 C 0.22663 0.13315 0.3077 0.0
C457 C 0.25254 0.13566 0.24777 0.0
C458 C 0.24799 0.20884 0.21475 0.0
C459 C 0.21733 0.20355 0.27084 0.0
N460 N 0.21382 0.18354 0.38814 0.0
N461 N 0.27298 0.16693 0.13499 0.0
C462 C 0.21575 0.17155 0.32278 0.0
C463 C 0.25748 0.17013 0.19805 0.0
N464 N 0.21145 0.09402 0.35001 0.0
N465 N 0.27666 0.25425 0.18613 0.0
H466 H 0.27872 0.1378 0.12054 0.0
H467 H 0.2747 0.19011 0.09632 0.0
H468 H 0.28005 0.28646 0.20781 0.0
H469 H 0.30275 0.26069 0.14846 0.0
H470 H 0.18965 0.08947 0.39239 0.0
H471 H 0.21466 0.06315 0.33781 0.0
H472 H 0.21681 0.16375 0.42798 0.0
H473 H 0.21783 0.21779 0.40189 0.0
C474 C 0.98072 0.85702 0.22274 0.0
C475 C 0.9529 0.82098 0.27207 0.0
C476 C 1.03 0.83436 0.32433 0.0
C477 C 0.058 0.87022 0.2748 0.0
N478 N 0.062 0.92002 0.18073 0.0
N479 N 0.95008 0.78435 0.37868 0.0
C480 C 1.03388 0.88288 0.225 0.0
C481 C 0.97736 0.81245 0.32561 0.0
N482 N 0.95586 0.8662 0.17398 0.0
N483 N 0.05368 0.81983 0.36858 0.0
H484 H 0.91187 0.77016 0.38217 0.0
H485 H 0.96548 0.77985 0.42228 0.0
H486 H 0.09229 0.83539 0.36993 0.0
H487 H 1.03513 0.78975 0.40071 0.0
H488 H 0.97254 0.88738 0.13152 0.0
H489 H 0.91748 0.85218 0.17674 0.0
H490 H 1.04742 0.93357 0.14544 0.0
H491 H 0.10088 0.93918 0.18093 0.0
C492 C 0.90753 0.10165 0.19608 0.0
C493 C 0.94019 0.13178 0.24748 0.0
C494 C 0.90119 0.0602 0.32263 0.0
C495 C 0.87278 1.029 0.26864 0.0
N496 N 0.82442 0.03476 0.17917 0.0
N497 N 0.97561 0.13489 0.35625 0.0
C498 C 0.86892 0.05316 0.21115 0.0
C499 C 0.93967 0.10961 0.30956 0.0
N500 N 0.91253 0.11981 0.13281 0.0
N501 N 0.88554 0.04629 0.38698 0.0
H502 H 1.00693 0.16928 0.34717 0.0
H503 H 0.97782 0.11838 0.40032 0.0
H504 H 0.85125 1.01494 0.39784 0.0
H505 H 0.90216 0.0695 0.42807 0.0
H506 H 0.89092 0.09786 0.09306 0.0
H507 H 0.94166 0.15486 0.11939 0.0
H508 H 0.81865 0.05347 0.14029 0.0
H509 H 0.79175 1.00533 0.19899 0.0
C510 C 0.15819 0.2112 0.70202 0.0
C511 C 0.15293 0.23444 0.76052 0.0
C512 C 0.20494 0.21005 0.82293 0.0
C513 C 0.20865 0.18522 0.76517 0.0
N514 N 0.18052 0.15287 0.65425 0.0
N515 N 0.16022 0.24483 0.88045 0.0
C516 C 0.18257 0.18282 0.70604 0.0
C517 C 0.17248 0.22995 0.82233 0.0
N518 N 0.14118 0.2176 0.64219 0.0
N519 N 0.23434 0.21688 0.87719 0.0
H520 H 0.13484 0.25746 0.88218 0.0
H521 H 0.17041 0.23917 0.92765 0.0
H522 H 0.25898 0.20329 0.87952 0.0
H523 H 0.23766 0.23977 0.91749 0.0
H524 H 0.14938 0.2071 0.59632 0.0
H525 H 0.12068 0.23575 0.63825 0.0
H526 H 0.15817 0.14582 0.61238 0.0
H527 H 0.19803 0.13166 0.65566 0.0
C528 C 0.12067 0.94108 0.75342 0.0
C529 C 0.14672 0.91765 0.77735 0.0
C530 C 0.06767 0.84438 0.81059 0.0
C531 C 1.04162 0.86756 0.78663 0.0
N532 N 1.04176 0.94013 0.74562 0.0
N533 N 0.14565 0.85261 0.84435 0.0
C534 C 0.06774 0.91683 0.7616 0.0
C535 C 0.12033 0.87107 0.81077 0.0
N536 N 0.14617 0.98512 0.7201 0.0
N537 N 1.04204 0.79583 0.8307 0.0
H538 H 0.18411 0.87004 0.84488 0.0
H539 H 0.12882 0.82249 0.87679 0.0
H540 H 1.00333 0.77541 0.83528 0.0
H541 H 0.05883 0.7745 0.83869 0.0
H542 H 0.12915 1.00161 0.69452 0.0
H543 H 0.18489 1.00442 0.71557 0.0
H544 H 0.05849 0.97742 0.7327 0.0
H545 H 1.00305 0.92277 0.74989 0.0
C546 C 0.88217 1.01113 0.82682 0.0
C547 C 0.87824 0.04052 0.77548 0.0
C548 C 0.83731 0.96676 0.70459 0.0
C549 C 0.84534 0.93831 0.75273 0.0
N550 N 0.8865 0.93796 0.85485 0.0
N551 N 0.81422 1.02921 0.69811 0.0
C552 C 0.87145 0.96187 0.81222 0.0
C553 C 0.84576 1.01438 0.72199 0.0
N554 N 0.88713 1.02662 0.89186 0.0
N555 N 0.8193 0.94736 0.64286 0.0
H556 H 0.80982 0.05663 0.72245 0.0
H557 H 0.78693 1.00886 0.66259 0.0
H558 H 0.81357 0.91263 0.62792 0.0
H559 H 0.81514 0.96811 0.60528 0.0
H560 H 0.88542 1.00475 0.93218 0.0
H561 H 0.88508 0.05798 0.90574 0.0
H562 H 0.90885 0.95542 0.89626 0.0
H563 H 0.88247 0.90334 0.84445 0.0
loop_
_geom_bond_atom_site_label_1
_geom_bond_atom_site_label_2
_geom_bond_distance
_geom_bond_site_symmetry_2
_ccdc_geom_bond_type
Nd0 C2 2.836 . S
Nd0 O20 2.500 . S
Nd0 O21 2.492 . S
Nd0 O22 2.487 . S
Nd0 O23 2.682 . S
Nd0 O24 2.410 . S
Nd0 O29 2.414 . S
Nd0 O31 2.424 . S
Nd1 C11 2.836 1_545 S
Nd1 O23 2.414 . S
Nd1 O25 2.424 . S
Nd1 O26 2.500 1_545 S
Nd1 O27 2.492 1_545 S
Nd1 O28 2.487 . S
Nd1 O29 2.682 . S
Nd1 O30 2.410 . S
C2 Nd0 2.836 . S
C2 C3 1.498 . S
C2 O20 1.258 . S
C2 O21 1.239 . S
C3 C2 1.498 . S
C3 C4 1.366 . S
C3 C8 1.407 . S
C4 C3 1.366 . S
C4 C5 1.392 . S
C4 H32 0.930 . S
C5 C4 1.392 . S
C5 C6 1.398 . S
C5 H33 0.929 . S
C6 C5 1.398 . S
C6 C7 1.352 . S
C7 C6 1.352 . S
C7 C8 1.384 . S
C7 H34 0.930 . S
C8 C3 1.407 . S
C8 C7 1.384 . S
C8 H35 0.929 . S
C9 O22 1.241 . S
C9 O23 1.273 . S
C10 O24 1.251 . S
C10 O25 1.268 . S
C11 Nd1 2.836 1_565 S
C11 C12 1.498 . S
C11 O26 1.258 . S
C11 O27 1.239 . S
C12 C11 1.498 . S
C12 C13 1.366 . S
C12 C17 1.407 . S
C13 C12 1.366 . S
C13 C14 1.392 . S
C13 H36 0.930 . S
C14 C13 1.392 . S
C14 C15 1.398 . S
C14 H37 0.929 . S
C15 C14 1.398 . S
C15 C16 1.352 . S
C16 C15 1.352 . S
C16 C17 1.384 . S
C16 H38 0.930 . S
C17 C12 1.407 . S
C17 C16 1.384 . S
C17 H39 0.929 . S
C18 O28 1.241 . S
C18 O29 1.273 . S
C19 O30 1.251 . S
C19 O31 1.268 . S
O20 Nd0 2.500 . S
O20 C2 1.258 . S
O21 Nd0 2.492 . S
O21 C2 1.239 . S
O22 Nd0 2.487 . S
O22 C9 1.241 . S
O23 Nd0 2.682 . S
O23 Nd1 2.414 . S
O23 C9 1.273 . S
O24 Nd0 2.410 . S
O24 C10 1.251 . S
O25 Nd1 2.424 . S
O25 C10 1.268 . S
O26 Nd1 2.500 1_565 S
O26 C11 1.258 . S
O27 Nd1 2.492 1_565 S
O27 C11 1.239 . S
O28 Nd1 2.487 . S
O28 C18 1.241 . S
O29 Nd0 2.414 . S
O29 Nd1 2.682 . S
O29 C18 1.273 . S
O30 Nd1 2.410 . S
O30 C19 1.251 . S
O31 Nd0 2.424 . S
O31 C19 1.268 . S
H32 C4 0.930 . S
H33 C5 0.929 . S
H34 C7 0.930 . S
H35 C8 0.929 . S
H36 C13 0.930 . S
H37 C14 0.929 . S
H38 C16 0.930 . S
H39 C17 0.929 . S
Nd40 C42 2.836 . S
Nd40 O60 2.500 . S
Nd40 O61 2.492 . S
Nd40 O62 2.487 . S
Nd40 O63 2.682 . S
Nd40 O64 2.410 . S
Nd40 O69 2.414 . S
Nd40 O71 2.424 . S
Nd41 C51 2.836 . S
Nd41 O63 2.414 . S
Nd41 O65 2.424 . S
Nd41 O66 2.500 . S
Nd41 O67 2.492 . S
Nd41 O68 2.487 . S
Nd41 O69 2.682 . S
Nd41 O70 2.410 . S
C42 Nd40 2.836 . S
C42 C43 1.498 . S
C42 O60 1.258 . S
C42 O61 1.239 . S
C43 C42 1.498 . S
C43 C44 1.366 . S
C43 C48 1.407 . S
C44 C43 1.366 . S
C44 C45 1.392 . S
C44 H72 0.930 . S
C45 C44 1.392 . S
C45 C46 1.398 . S
C45 H73 0.929 . S
C46 C45 1.398 . S
C46 C47 1.352 . S
C47 C46 1.352 . S
C47 C48 1.384 . S
C47 H74 0.930 . S
C48 C43 1.407 . S
C48 C47 1.384 . S
C48 H75 0.929 . S
C49 O62 1.241 . S
C49 O63 1.273 . S
C50 O64 1.251 . S
C50 O65 1.268 . S
C51 Nd41 2.836 . S
C51 C52 1.498 . S
C51 O66 1.258 . S
C51 O67 1.239 . S
C52 C51 1.498 . S
C52 C53 1.366 . S
C52 C57 1.407 . S
C53 C52 1.366 . S
C53 C54 1.392 . S
C53 H76 0.930 . S
C54 C53 1.392 . S
C54 C55 1.398 . S
C54 H77 0.929 . S
C55 C54 1.398 . S
C55 C56 1.352 . S
C56 C55 1.352 . S
C56 C57 1.384 . S
C56 H78 0.930 . S
C57 C52 1.407 . S
C57 C56 1.384 . S
C57 H79 0.929 . S
C58 O68 1.241 . S
C58 O69 1.273 . S
C59 O70 1.251 . S
C59 O71 1.268 . S
O60 Nd40 2.500 . S
O60 C42 1.258 . S
O61 Nd40 2.492 . S
O61 C42 1.239 . S
O62 Nd40 2.487 . S
O62 C49 1.241 . S
O63 Nd40 2.682 . S
O63 Nd41 2.414 . S
O63 C49 1.273 . S
O64 Nd40 2.410 . S
O64 C50 1.251 . S
O65 Nd41 2.424 . S
O65 C50 1.268 . S
O66 Nd41 2.500 . S
O66 C51 1.258 . S
O67 Nd41 2.492 . S
O67 C51 1.239 . S
O68 Nd41 2.487 . S
O68 C58 1.241 . S
O69 Nd40 2.414 . S
O69 Nd41 2.682 . S
O69 C58 1.273 . S
O70 Nd41 2.410 . S
O70 C59 1.251 . S
O71 Nd40 2.424 . S
O71 C59 1.268 . S
H72 C44 0.930 . S
H73 C45 0.929 . S
H74 C47 0.930 . S
H75 C48 0.929 . S
H76 C53 0.930 . S
H77 C54 0.929 . S
H78 C56 0.930 . S
H79 C57 0.929 . S
Nd80 C82 2.836 . S
Nd80 O100 2.500 . S
Nd80 O101 2.492 . S
Nd80 O102 2.487 . S
Nd80 O103 2.682 . S
Nd80 O104 2.410 . S
Nd80 O109 2.414 . S
Nd80 O111 2.424 . S
Nd81 C91 2.836 1_655 S
Nd81 O103 2.414 . S
Nd81 O105 2.424 . S
Nd81 O106 2.500 1_655 S
Nd81 O107 2.492 1_655 S
Nd81 O108 2.487 . S
Nd81 O109 2.682 . S
Nd81 O110 2.410 . S
C82 Nd80 2.836 . S
C82 C83 1.498 . S
C82 O100 1.258 . S
C82 O101 1.239 . S
C83 C82 1.498 . S
C83 C84 1.366 . S
C83 C88 1.407 . S
C84 C83 1.366 . S
C84 C85 1.392 . S
C84 H112 0.930 . S
C85 C84 1.392 . S
C85 C86 1.398 . S
C85 H113 0.929 . S
C86 C85 1.398 . S
C86 C87 1.352 . S
C87 C86 1.352 . S
C87 C88 1.384 . S
C87 H114 0.930 . S
C88 C83 1.407 . S
C88 C87 1.384 . S
C88 H115 0.929 . S
C89 O102 1.241 . S
C89 O103 1.273 . S
C90 O104 1.251 . S
C90 O105 1.268 . S
C91 Nd81 2.836 1_455 S
C91 C92 1.498 . S
C91 O106 1.258 . S
C91 O107 1.239 . S
C92 C91 1.498 . S
C92 C93 1.366 . S
C92 C97 1.407 . S
C93 C92 1.366 . S
C93 C94 1.392 . S
C93 H116 0.930 . S
C94 C93 1.392 . S
C94 C95 1.398 . S
C94 H117 0.929 . S
C95 C94 1.398 . S
C95 C96 1.352 . S
C96 C95 1.352 . S
C96 C97 1.384 . S
C96 H118 0.930 . S
C97 C92 1.407 . S
C97 C96 1.384 . S
C97 H119 0.929 . S
C98 O108 1.241 . S
C98 O109 1.273 . S
C99 O110 1.251 . S
C99 O111 1.268 . S
O100 Nd80 2.500 . S
O100 C82 1.258 . S
O101 Nd80 2.492 . S
O101 C82 1.239 . S
O102 Nd80 2.487 . S
O102 C89 1.241 . S
O103 Nd80 2.682 . S
O103 Nd81 2.414 . S
O103 C89 1.273 . S
O104 Nd80 2.410 . S
O104 C90 1.251 . S
O105 Nd81 2.424 . S
O105 C90 1.268 . S
O106 Nd81 2.500 1_455 S
O106 C91 1.258 . S
O107 Nd81 2.492 1_455 S
O107 C91 1.239 . S
O108 Nd81 2.487 . S
O108 C98 1.241 . S
O109 Nd80 2.414 . S
O109 Nd81 2.682 . S
O109 C98 1.273 . S
O110 Nd81 2.410 . S
O110 C99 1.251 . S
O111 Nd80 2.424 . S
O111 C99 1.268 . S
H112 C84 0.930 . S
H113 C85 0.929 . S
H114 C87 0.930 . S
H115 C88 0.929 . S
H116 C93 0.930 . S
H117 C94 0.929 . S
H118 C96 0.930 . S
H119 C97 0.929 . S
Nd120 C122 2.836 1_455 S
Nd120 O140 2.500 1_455 S
Nd120 O141 2.492 1_455 S
Nd120 O142 2.487 . S
Nd120 O143 2.682 . S
Nd120 O144 2.410 . S
Nd120 O149 2.414 . S
Nd120 O151 2.424 . S
Nd121 C131 2.836 . S
Nd121 O143 2.414 . S
Nd121 O145 2.424 . S
Nd121 O146 2.500 . S
Nd121 O147 2.492 . S
Nd121 O148 2.487 . S
Nd121 O149 2.682 . S
Nd121 O150 2.410 . S
C122 Nd120 2.836 1_655 S
C122 C123 1.498 . S
C122 O140 1.258 . S
C122 O141 1.239 . S
C123 C122 1.498 . S
C123 C124 1.366 . S
C123 C128 1.407 . S
C124 C123 1.366 . S
C124 C125 1.392 . S
C124 H152 0.930 . S
C125 C124 1.392 . S
C125 C126 1.398 . S
C125 H153 0.929 . S
C126 C125 1.398 . S
C126 C127 1.352 . S
C127 C126 1.352 . S
C127 C128 1.384 . S
C127 H154 0.930 . S
C128 C123 1.407 . S
C128 C127 1.384 . S
C128 H155 0.929 . S
C129 O142 1.241 . S
C129 O143 1.273 . S
C130 O144 1.251 . S
C130 O145 1.268 . S
C131 Nd121 2.836 . S
C131 C132 1.498 . S
C131 O146 1.258 . S
C131 O147 1.239 . S
C132 C131 1.498 . S
C132 C133 1.366 . S
C132 C137 1.407 . S
C133 C132 1.366 . S
C133 C134 1.392 . S
C133 H156 0.930 . S
C134 C133 1.392 . S
C134 C135 1.398 . S
C134 H157 0.929 . S
C135 C134 1.398 . S
C135 C136 1.352 . S
C136 C135 1.352 . S
C136 C137 1.384 . S
C136 H158 0.930 . S
C137 C132 1.407 . S
C137 C136 1.384 . S
C137 H159 0.929 . S
C138 O148 1.241 . S
C138 O149 1.273 . S
C139 O150 1.251 . S
C139 O151 1.268 . S
O140 Nd120 2.500 1_655 S
O140 C122 1.258 . S
O141 Nd120 2.492 1_655 S
O141 C122 1.239 . S
O142 Nd120 2.487 . S
O142 C129 1.241 . S
O143 Nd120 2.682 . S
O143 Nd121 2.414 . S
O143 C129 1.273 . S
O144 Nd120 2.410 . S
O144 C130 1.251 . S
O145 Nd121 2.424 . S
O145 C130 1.268 . S
O146 Nd121 2.500 . S
O146 C131 1.258 . S
O147 Nd121 2.492 . S
O147 C131 1.239 . S
O148 Nd121 2.487 . S
O148 C138 1.241 . S
O149 Nd120 2.414 . S
O149 Nd121 2.682 . S
O149 C138 1.273 . S
O150 Nd121 2.410 . S
O150 C139 1.251 . S
O151 Nd120 2.424 . S
O151 C139 1.268 . S
H152 C124 0.930 . S
H153 C125 0.929 . S
H154 C127 0.930 . S
H155 C128 0.929 . S
H156 C133 0.930 . S
H157 C134 0.929 . S
H158 C136 0.930 . S
H159 C137 0.929 . S
Nd160 C162 2.836 1_565 S
Nd160 O180 2.500 1_565 S
Nd160 O181 2.492 1_565 S
Nd160 O182 2.487 . S
Nd160 O183 2.682 . S
Nd160 O184 2.410 . S
Nd160 O189 2.414 . S
Nd160 O191 2.424 . S
Nd161 C171 2.836 . S
Nd161 O183 2.414 . S
Nd161 O185 2.424 . S
Nd161 O186 2.500 . S
Nd161 O187 2.492 . S
Nd161 O188 2.487 . S
Nd161 O189 2.682 . S
Nd161 O190 2.410 . S
C162 Nd160 2.836 1_545 S
C162 C163 1.498 . S
C162 O180 1.258 . S
C162 O181 1.239 . S
C163 C162 1.498 . S
C163 C164 1.366 . S
C163 C168 1.407 . S
C164 C163 1.366 . S
C164 C165 1.392 . S
C164 H192 0.930 . S
C165 C164 1.392 . S
C165 C166 1.398 . S
C165 H193 0.929 . S
C166 C165 1.398 . S
C166 C167 1.352 . S
C167 C166 1.352 . S
C167 C168 1.384 . S
C167 H194 0.930 . S
C168 C163 1.407 . S
C168 C167 1.384 . S
C168 H195 0.929 . S
C169 O182 1.241 . S
C169 O183 1.273 . S
C170 O184 1.251 . S
C170 O185 1.268 . S
C171 Nd161 2.836 . S
C171 C172 1.498 . S
C171 O186 1.258 . S
C171 O187 1.239 . S
C172 C171 1.498 . S
C172 C173 1.366 . S
C172 C177 1.407 . S
C173 C172 1.366 . S
C173 C174 1.392 . S
C173 H196 0.930 . S
C174 C173 1.392 . S
C174 C175 1.398 . S
C174 H197 0.929 . S
C175 C174 1.398 . S
C175 C176 1.352 . S
C176 C175 1.352 . S
C176 C177 1.384 . S
C176 H198 0.930 . S
C177 C172 1.407 . S
C177 C176 1.384 . S
C177 H199 0.929 . S
C178 O188 1.241 . S
C178 O189 1.273 . S
C179 O190 1.251 . S
C179 O191 1.268 . S
O180 Nd160 2.500 1_545 S
O180 C162 1.258 . S
O181 Nd160 2.492 1_545 S
O181 C162 1.239 . S
O182 Nd160 2.487 . S
O182 C169 1.241 . S
O183 Nd160 2.682 . S
O183 Nd161 2.414 . S
O183 C169 1.273 . S
O184 Nd160 2.410 . S
O184 C170 1.251 . S
O185 Nd161 2.424 . S
O185 C170 1.268 . S
O186 Nd161 2.500 . S
O186 C171 1.258 . S
O187 Nd161 2.492 . S
O187 C171 1.239 . S
O188 Nd161 2.487 . S
O188 C178 1.241 . S
O189 Nd160 2.414 . S
O189 Nd161 2.682 . S
O189 C178 1.273 . S
O190 Nd161 2.410 . S
O190 C179 1.251 . S
O191 Nd160 2.424 . S
O191 C179 1.268 . S
H192 C164 0.930 . S
H193 C165 0.929 . S
H194 C167 0.930 . S
H195 C168 0.929 . S
H196 C173 0.930 . S
H197 C174 0.929 . S
H198 C176 0.930 . S
H199 C177 0.929 . S
Nd200 C202 2.836 . S
Nd200 O220 2.500 . S
Nd200 O221 2.492 . S
Nd200 O222 2.487 . S
Nd200 O223 2.682 . S
Nd200 O224 2.410 . S
Nd200 O229 2.414 . S
Nd200 O231 2.424 . S
Nd201 C211 2.836 . S
Nd201 O223 2.414 . S
Nd201 O225 2.424 . S
Nd201 O226 2.500 . S
Nd201 O227 2.492 . S
Nd201 O228 2.487 . S
Nd201 O229 2.682 . S
Nd201 O230 2.410 . S
C202 Nd200 2.836 . S
C202 C203 1.498 . S
C202 O220 1.258 . S
C202 O221 1.239 . S
C203 C202 1.498 . S
C203 C204 1.366 . S
C203 C208 1.407 . S
C204 C203 1.366 . S
C204 C205 1.392 . S
C204 H232 0.930 . S
C205 C204 1.392 . S
C205 C206 1.398 . S
C205 H233 0.929 . S
C206 C205 1.398 . S
C206 C207 1.352 . S
C207 C206 1.352 . S
C207 C208 1.384 . S
C207 H234 0.930 . S
C208 C203 1.407 . S
C208 C207 1.384 . S
C208 H235 0.929 . S
C209 O222 1.241 . S
C209 O223 1.273 . S
C210 O224 1.251 . S
C210 O225 1.268 . S
C211 Nd201 2.836 . S
C211 C212 1.498 . S
C211 O226 1.258 . S
C211 O227 1.239 . S
C212 C211 1.498 . S
C212 C213 1.366 . S
C212 C217 1.407 . S
C213 C212 1.366 . S
C213 C214 1.392 . S
C213 H236 0.930 . S
C214 C213 1.392 . S
C214 C215 1.398 . S
C214 H237 0.929 . S
C215 C214 1.398 . S
C215 C216 1.352 . S
C216 C215 1.352 . S
C216 C217 1.384 . S
C216 H238 0.930 . S
C217 C212 1.407 . S
C217 C216 1.384 . S
C217 H239 0.929 . S
C218 O228 1.241 . S
C218 O229 1.273 . S
C219 O230 1.251 . S
C219 O231 1.268 . S
O220 Nd200 2.500 . S
O220 C202 1.258 . S
O221 Nd200 2.492 . S
O221 C202 1.239 . S
O222 Nd200 2.487 . S
O222 C209 1.241 . S
O223 Nd200 2.682 . S
O223 Nd201 2.414 . S
O223 C209 1.273 . S
O224 Nd200 2.410 . S
O224 C210 1.251 . S
O225 Nd201 2.424 . S
O225 C210 1.268 . S
O226 Nd201 2.500 . S
O226 C211 1.258 . S
O227 Nd201 2.492 . S
O227 C211 1.239 . S
O228 Nd201 2.487 . S
O228 C218 1.241 . S
O229 Nd200 2.414 . S
O229 Nd201 2.682 . S
O229 C218 1.273 . S
O230 Nd201 2.410 . S
O230 C219 1.251 . S
O231 Nd200 2.424 . S
O231 C219 1.268 . S
H232 C204 0.930 . S
H233 C205 0.929 . S
H234 C207 0.930 . S
H235 C208 0.929 . S
H236 C213 0.930 . S
H237 C214 0.929 . S
H238 C216 0.930 . S
H239 C217 0.929 . S
C240 C241 1.363 1_554 S
C240 C246 1.379 1_565 S
C240 N248 1.356 . S
C241 C240 1.363 1_556 S
C241 C247 1.363 . S
C242 C243 1.363 1_556 S
C242 C247 1.379 1_545 S
C242 N249 1.356 . S
C243 C242 1.363 1_554 S
C243 C246 1.363 . S
N244 C246 1.356 . S
N244 H256 0.984 . S
N244 H257 0.985 . S
N245 C247 1.356 . S
N245 H250 0.984 . S
N245 H251 0.985 . S
C246 C240 1.379 1_545 S
C246 C243 1.363 . S
C246 N244 1.356 . S
C247 C241 1.363 . S
C247 C242 1.379 1_565 S
C247 N245 1.356 . S
N248 C240 1.356 . S
N248 H254 0.984 . S
N248 H255 0.984 1_554 S
N249 C242 1.356 . S
N249 H252 0.984 1_556 S
N249 H253 0.985 . S
H250 N245 0.984 . S
H251 N245 0.985 . S
H252 N249 0.984 1_554 S
H253 N249 0.985 . S
H254 N248 0.984 . S
H255 N248 0.984 1_556 S
H256 N244 0.984 . S
H257 N244 0.985 . S
C258 C259 1.363 . S
C258 C264 1.379 . S
C258 N266 1.356 . S
C259 C258 1.363 . S
C259 C265 1.363 . S
C260 C261 1.363 . S
C260 C265 1.379 . S
C260 N267 1.356 . S
C261 C260 1.363 . S
C261 C264 1.363 . S
N262 C264 1.356 . S
N262 H274 0.984 . S
N262 H275 0.985 . S
N263 C265 1.356 . S
N263 H268 0.984 . S
N263 H269 0.985 . S
C264 C258 1.379 . S
C264 C261 1.363 . S
C264 N262 1.356 . S
C265 C259 1.363 . S
C265 C260 1.379 . S
C265 N263 1.356 . S
N266 C258 1.356 . S
N266 H272 0.984 . S
N266 H273 0.984 . S
N267 C260 1.356 . S
N267 H270 0.984 . S
N267 H271 0.985 . S
H268 N263 0.984 . S
H269 N263 0.985 . S
H270 N267 0.984 . S
H271 N267 0.985 . S
H272 N266 0.984 . S
H273 N266 0.984 . S
H274 N262 0.984 . S
H275 N262 0.985 . S
C276 C277 1.363 . S
C276 C282 1.379 1_655 S
C276 N284 1.356 . S
C277 C276 1.363 . S
C277 C283 1.363 1_554 S
C278 C279 1.387 . S
C278 C283 1.359 1_455 S
C278 N285 1.360 . S
C279 C278 1.387 . S
C279 C282 1.363 1_556 S
N280 C282 1.356 . S
N280 H292 0.984 . S
N280 H293 0.985 1_554 S
N281 C283 1.356 . S
N281 H286 0.984 1_556 S
N281 H287 0.985 . S
C282 C276 1.379 1_455 S
C282 C279 1.363 1_554 S
C282 N280 1.356 . S
C283 C277 1.363 1_556 S
C283 C278 1.359 1_655 S
C283 N281 1.356 . S
N284 C276 1.356 . S
N284 H290 0.984 . S
N284 H291 0.984 . S
N285 C278 1.360 . S
N285 H288 0.984 . S
N285 H289 0.985 1_455 S
H286 N281 0.984 1_554 S
H287 N281 0.985 . S
H288 N285 0.984 . S
H289 N285 0.985 1_655 S
H290 N284 0.984 . S
H291 N284 0.984 . S
H292 N280 0.984 . S
H293 N280 0.985 1_556 S
C294 C295 1.363 . S
C294 C300 1.379 1_545 S
C294 N302 1.356 . S
C295 C294 1.363 . S
C295 C301 1.363 . S
C296 C297 1.363 . S
C296 C301 1.379 1_565 S
C296 N303 1.356 . S
C297 C296 1.363 . S
C297 C300 1.363 . S
N298 C300 1.356 . S
N298 H310 0.984 . S
N298 H311 0.985 . S
N299 C301 1.356 . S
N299 H304 0.984 . S
N299 H305 0.985 . S
C300 C294 1.379 1_565 S
C300 C297 1.363 . S
C300 N298 1.356 . S
C301 C295 1.363 . S
C301 C296 1.379 1_545 S
C301 N299 1.356 . S
N302 C294 1.356 . S
N302 H308 0.984 . S
N302 H309 0.984 . S
N303 C296 1.356 . S
N303 H306 0.984 . S
N303 H307 0.985 . S
H304 N299 0.984 . S
H305 N299 0.985 . S
H306 N303 0.984 . S
H307 N303 0.985 . S
H308 N302 0.984 . S
H309 N302 0.984 . S
H310 N298 0.984 . S
H311 N298 0.985 . S
C312 C313 1.363 . S
C312 C318 1.379 1_556 S
C312 N320 1.356 . S
C313 C312 1.363 . S
C313 C319 1.363 . S
C314 C315 1.363 . S
C314 C319 1.379 1_554 S
C314 N321 1.356 . S
C315 C314 1.363 . S
C315 C318 1.363 . S
N316 C318 1.356 . S
N316 H328 0.984 . S
N316 H329 0.985 . S
N317 C319 1.356 . S
N317 H322 0.984 . S
N317 H323 0.985 . S
C318 C312 1.379 1_554 S
C318 C315 1.363 . S
C318 N316 1.356 . S
C319 C313 1.363 . S
C319 C314 1.379 1_556 S
C319 N317 1.356 . S
N320 C312 1.356 . S
N320 H326 0.984 . S
N320 H327 0.984 . S
N321 C314 1.356 . S
N321 H324 0.984 . S
N321 H325 0.985 . S
H322 N317 0.984 . S
H323 N317 0.985 . S
H324 N321 0.984 . S
H325 N321 0.985 . S
H326 N320 0.984 . S
H327 N320 0.984 . S
H328 N316 0.984 . S
H329 N316 0.985 . S
C330 C331 1.363 . S
C330 C336 1.379 1_655 S
C330 N338 1.356 . S
C331 C330 1.363 . S
C331 C337 1.363 1_655 S
C332 C333 1.363 . S
C332 C337 1.379 . S
C332 N339 1.356 . S
C333 C332 1.363 . S
C333 C336 1.363 . S
N334 C336 1.356 . S
N334 H346 0.984 1_455 S
N334 H347 0.985 . S
N335 C337 1.356 1_655 S
N335 H340 0.984 . S
N335 H341 0.985 1_655 S
C336 C330 1.379 1_455 S
C336 C333 1.363 . S
C336 N334 1.356 . S
C337 C331 1.363 1_455 S
C337 C332 1.379 . S
C337 N335 1.356 1_455 S
N338 C330 1.356 . S
N338 H344 0.984 . S
N338 H345 0.984 . S
N339 C332 1.356 . S
N339 H342 0.984 . S
N339 H343 0.985 . S
H340 N335 0.984 . S
H341 N335 0.985 1_455 S
H342 N339 0.984 . S
H343 N339 0.985 . S
H344 N338 0.984 . S
H345 N338 0.984 . S
H346 N334 0.984 1_655 S
H347 N334 0.985 . S
C348 C349 1.363 . S
C348 C354 1.379 . S
C348 N356 1.356 . S
C349 C348 1.363 . S
C349 C355 1.363 . S
C350 C351 1.363 . S
C350 C355 1.379 . S
C350 N357 1.356 . S
C351 C350 1.363 . S
C351 C354 1.363 . S
N352 C354 1.356 . S
N352 H364 0.984 . S
N352 H365 0.985 . S
N353 C355 1.356 . S
N353 H358 0.984 . S
N353 H359 0.985 . S
C354 C348 1.379 . S
C354 C351 1.363 . S
C354 N352 1.356 . S
C355 C349 1.363 . S
C355 C350 1.379 . S
C355 N353 1.356 . S
N356 C348 1.356 . S
N356 H362 0.984 . S
N356 H363 0.984 . S
N357 C350 1.356 . S
N357 H360 0.984 . S
N357 H361 0.985 . S
H358 N353 0.984 . S
H359 N353 0.985 . S
H360 N357 0.984 . S
H361 N357 0.985 . S
H362 N356 0.984 . S
H363 N356 0.984 . S
H364 N352 0.984 . S
H365 N352 0.985 . S
C366 C367 1.363 . S
C366 C372 1.379 . S
C366 N374 1.356 . S
C367 C366 1.363 . S
C367 C373 1.363 . S
C368 C369 1.363 . S
C368 C373 1.379 . S
C368 N375 1.356 . S
C369 C368 1.363 . S
C369 C372 1.363 . S
N370 C372 1.356 . S
N370 H382 0.984 . S
N370 H383 0.985 . S
N371 C373 1.356 . S
N371 H376 0.984 . S
N371 H377 0.985 . S
C372 C366 1.379 . S
C372 C369 1.363 . S
C372 N370 1.356 . S
C373 C367 1.363 . S
C373 C368 1.379 . S
C373 N371 1.356 . S
N374 C366 1.356 . S
N374 H380 0.984 . S
N374 H381 0.984 . S
N375 C368 1.356 . S
N375 H378 0.984 . S
N375 H379 0.985 . S
H376 N371 0.984 . S
H377 N371 0.985 . S
H378 N375 0.984 . S
H379 N375 0.985 . S
H380 N374 0.984 . S
H381 N374 0.984 . S
H382 N370 0.984 . S
H383 N370 0.985 . S
C384 C385 1.363 . S
C384 C390 1.379 . S
C384 N392 1.356 . S
C385 C384 1.363 . S
C385 C391 1.363 . S
C386 C387 1.363 . S
C386 C391 1.379 . S
C386 N393 1.356 . S
C387 C386 1.363 . S
C387 C390 1.363 . S
N388 C390 1.356 . S
N388 H400 0.984 . S
N388 H401 0.985 . S
N389 C391 1.356 . S
N389 H394 0.984 . S
N389 H395 0.985 . S
C390 C384 1.379 . S
C390 C387 1.363 . S
C390 N388 1.356 . S
C391 C385 1.363 . S
C391 C386 1.379 . S
C391 N389 1.356 . S
N392 C384 1.356 . S
N392 H398 0.984 . S
N392 H399 0.984 . S
N393 C386 1.356 . S
N393 H396 0.984 . S
N393 H397 0.985 . S
H394 N389 0.984 . S
H395 N389 0.985 . S
H396 N393 0.984 . S
H397 N393 0.985 . S
H398 N392 0.984 . S
H399 N392 0.984 . S
H400 N388 0.984 . S
H401 N388 0.985 . S
C402 C403 1.363 . S
C402 C408 1.379 . S
C402 N410 1.356 . S
C403 C402 1.363 . S
C403 C409 1.363 . S
C404 C405 1.363 . S
C404 C409 1.379 . S
C404 N411 1.356 . S
C405 C404 1.363 . S
C405 C408 1.363 . S
N406 C408 1.356 . S
N406 H418 0.984 . S
N406 H419 0.985 . S
N407 C409 1.356 . S
N407 H412 0.984 . S
N407 H413 0.985 . S
C408 C402 1.379 . S
C408 C405 1.363 . S
C408 N406 1.356 . S
C409 C403 1.363 . S
C409 C404 1.379 . S
C409 N407 1.356 . S
N410 C402 1.356 . S
N410 H416 0.984 . S
N410 H417 0.984 . S
N411 C404 1.356 . S
N411 H414 0.984 . S
N411 H415 0.985 . S
H412 N407 0.984 . S
H413 N407 0.985 . S
H414 N411 0.984 . S
H415 N411 0.985 . S
H416 N410 0.984 . S
H417 N410 0.984 . S
H418 N406 0.984 . S
H419 N406 0.985 . S
C420 C421 1.363 . S
C420 C426 1.379 . S
C420 N428 1.356 . S
C421 C420 1.363 . S
C421 C427 1.363 . S
C422 C423 1.363 . S
C422 C427 1.379 . S
C422 N429 1.356 . S
C423 C422 1.363 . S
C423 C426 1.363 . S
N424 C426 1.356 . S
N424 H436 0.984 . S
N424 H437 0.985 . S
N425 C427 1.356 . S
N425 H430 0.984 . S
N425 H431 0.985 . S
C426 C420 1.379 . S
C426 C423 1.363 . S
C426 N424 1.356 . S
C427 C421 1.363 . S
C427 C422 1.379 . S
C427 N425 1.356 . S
N428 C420 1.356 . S
N428 H434 0.984 . S
N428 H435 0.984 . S
N429 C422 1.356 . S
N429 H432 0.984 . S
N429 H433 0.985 . S
H430 N425 0.984 . S
H431 N425 0.985 . S
H432 N429 0.984 . S
H433 N429 0.985 . S
H434 N428 0.984 . S
H435 N428 0.984 . S
H436 N424 0.984 . S
H437 N424 0.985 . S
C438 C439 1.363 . S
C438 C444 1.379 . S
C438 N446 1.356 . S
C439 C438 1.363 . S
C439 C445 1.363 . S
C440 C441 1.363 . S
C440 C445 1.379 . S
C440 N447 1.356 . S
C441 C440 1.363 . S
C441 C444 1.363 . S
N442 C444 1.356 . S
N442 H454 0.984 . S
N442 H455 0.985 . S
N443 C445 1.356 . S
N443 H448 0.984 . S
N443 H449 0.985 . S
C444 C438 1.379 . S
C444 C441 1.363 . S
C444 N442 1.356 . S
C445 C439 1.363 . S
C445 C440 1.379 . S
C445 N443 1.356 . S
N446 C438 1.356 . S
N446 H452 0.984 . S
N446 H453 0.984 . S
N447 C440 1.356 . S
N447 H450 0.984 . S
N447 H451 0.985 . S
H448 N443 0.984 . S
H449 N443 0.985 . S
H450 N447 0.984 . S
H451 N447 0.985 . S
H452 N446 0.984 . S
H453 N446 0.984 . S
H454 N442 0.984 . S
H455 N442 0.985 . S
C456 C457 1.363 . S
C456 C462 1.379 . S
C456 N464 1.356 . S
C457 C456 1.363 . S
C457 C463 1.363 . S
C458 C459 1.363 . S
C458 C463 1.379 . S
C458 N465 1.356 . S
C459 C458 1.363 . S
C459 C462 1.363 . S
N460 C462 1.356 . S
N460 H472 0.984 . S
N460 H473 0.985 . S
N461 C463 1.356 . S
N461 H466 0.984 . S
N461 H467 0.985 . S
C462 C456 1.379 . S
C462 C459 1.363 . S
C462 N460 1.356 . S
C463 C457 1.363 . S
C463 C458 1.379 . S
C463 N461 1.356 . S
N464 C456 1.356 . S
N464 H470 0.984 . S
N464 H471 0.984 . S
N465 C458 1.356 . S
N465 H468 0.984 . S
N465 H469 0.985 . S
H466 N461 0.984 . S
H467 N461 0.985 . S
H468 N465 0.984 . S
H469 N465 0.985 . S
H470 N464 0.984 . S
H471 N464 0.984 . S
H472 N460 0.984 . S
H473 N460 0.985 . S
C474 C475 1.363 . S
C474 C480 1.379 . S
C474 N482 1.356 . S
C475 C474 1.363 . S
C475 C481 1.363 . S
C476 C477 1.363 1_655 S
C476 C481 1.379 . S
C476 N483 1.356 1_655 S
C477 C476 1.363 1_455 S
C477 C480 1.363 1_455 S
N478 C480 1.356 1_455 S
N478 H490 0.984 . S
N478 H491 0.985 . S
N479 C481 1.356 . S
N479 H484 0.984 . S
N479 H485 0.985 . S
C480 C474 1.379 . S
C480 C477 1.363 1_655 S
C480 N478 1.356 1_655 S
C481 C475 1.363 . S
C481 C476 1.379 . S
C481 N479 1.356 . S
N482 C474 1.356 . S
N482 H488 0.984 . S
N482 H489 0.984 . S
N483 C476 1.356 1_455 S
N483 H486 0.984 . S
N483 H487 0.985 1_455 S
H484 N479 0.984 . S
H485 N479 0.985 . S
H486 N483 0.984 . S
H487 N483 0.985 1_655 S
H488 N482 0.984 . S
H489 N482 0.984 . S
H490 N478 0.984 . S
H491 N478 0.985 . S
C492 C493 1.363 . S
C492 C498 1.379 . S
C492 N500 1.356 . S
C493 C492 1.363 . S
C493 C499 1.363 . S
C494 C495 1.363 1_545 S
C494 C499 1.379 . S
C494 N501 1.356 1_545 S
C495 C494 1.363 1_565 S
C495 C498 1.363 1_565 S
N496 C498 1.356 1_565 S
N496 H508 0.984 1_565 S
N496 H509 0.985 . S
N497 C499 1.356 . S
N497 H502 0.984 . S
N497 H503 0.985 . S
C498 C492 1.379 . S
C498 C495 1.363 1_545 S
C498 N496 1.356 1_545 S
C499 C493 1.363 . S
C499 C494 1.379 . S
C499 N497 1.356 . S
N500 C492 1.356 . S
N500 H506 0.984 . S
N500 H507 0.984 . S
N501 C494 1.356 1_565 S
N501 H504 0.984 . S
N501 H505 0.985 . S
H502 N497 0.984 . S
H503 N497 0.985 . S
H504 N501 0.984 . S
H505 N501 0.985 . S
H506 N500 0.984 . S
H507 N500 0.984 . S
H508 N496 0.984 1_545 S
H509 N496 0.985 . S
C510 C511 1.363 . S
C510 C516 1.379 . S
C510 N518 1.356 . S
C511 C510 1.363 . S
C511 C517 1.363 . S
C512 C513 1.363 . S
C512 C517 1.379 . S
C512 N519 1.356 . S
C513 C512 1.363 . S
C513 C516 1.363 . S
N514 C516 1.356 . S
N514 H526 0.984 . S
N514 H527 0.985 . S
N515 C517 1.356 . S
N515 H520 0.984 . S
N515 H521 0.985 . S
C516 C510 1.379 . S
C516 C513 1.363 . S
C516 N514 1.356 . S
C517 C511 1.363 . S
C517 C512 1.379 . S
C517 N515 1.356 . S
N518 C510 1.356 . S
N518 H524 0.984 . S
N518 H525 0.984 . S
N519 C512 1.356 . S
N519 H522 0.984 . S
N519 H523 0.985 . S
H520 N515 0.984 . S
H521 N515 0.985 . S
H522 N519 0.984 . S
H523 N519 0.985 . S
H524 N518 0.984 . S
H525 N518 0.984 . S
H526 N514 0.984 . S
H527 N514 0.985 . S
C528 C529 1.363 . S
C528 C534 1.379 . S
C528 N536 1.356 . S
C529 C528 1.363 . S
C529 C535 1.363 . S
C530 C531 1.363 1_455 S
C530 C535 1.379 . S
C530 N537 1.356 . S
C531 C530 1.363 1_655 S
C531 C534 1.363 1_655 S
N532 C534 1.356 1_655 S
N532 H544 0.984 . S
N532 H545 0.985 . S
N533 C535 1.356 . S
N533 H538 0.984 . S
N533 H539 0.985 . S
C534 C528 1.379 . S
C534 C531 1.363 1_455 S
C534 N532 1.356 1_455 S
C535 C529 1.363 . S
C535 C530 1.379 . S
C535 N533 1.356 . S
N536 C528 1.356 . S
N536 H542 0.984 . S
N536 H543 0.984 . S
N537 C530 1.356 . S
N537 H540 0.984 1_455 S
N537 H541 0.985 . S
H538 N533 0.984 . S
H539 N533 0.985 . S
H540 N537 0.984 1_655 S
H541 N537 0.985 . S
H542 N536 0.984 . S
H543 N536 0.984 . S
H544 N532 0.984 . S
H545 N532 0.985 . S
C546 C547 1.363 1_565 S
C546 C552 1.379 . S
C546 N554 1.356 1_565 S
C547 C546 1.363 1_545 S
C547 C553 1.363 1_545 S
C548 C549 1.363 . S
C548 C553 1.379 . S
C548 N555 1.356 . S
C549 C548 1.363 . S
C549 C552 1.363 . S
N550 C552 1.356 . S
N550 H562 0.984 . S
N550 H563 0.985 . S
N551 C553 1.356 1_545 S
N551 H556 0.984 . S
N551 H557 0.985 1_545 S
C552 C546 1.379 . S
C552 C549 1.363 . S
C552 N550 1.356 . S
C553 C547 1.363 1_565 S
C553 C548 1.379 . S
C553 N551 1.356 1_565 S
N554 C546 1.356 1_545 S
N554 H560 0.984 . S
N554 H561 0.984 . S
N555 C548 1.356 . S
N555 H558 0.984 . S
N555 H559 0.985 . S
H556 N551 0.984 . S
H557 N551 0.985 1_565 S
H558 N555 0.984 . S
H559 N555 0.985 . S
H560 N554 0.984 . S
H561 N554 0.984 . S
H562 N550 0.984 . S
H563 N550 0.985 . S
C241 C178 2.772 . S
C243 C18 2.240 . S
C259 C209 2.240 . S
C261 C49 2.772 . S
C277 C98 2.240 . S
C279 C138 2.772 . S
C295 C9 2.772 . S
C297 C169 2.240 . S
C313 C218 2.772 . S
C315 C58 2.240 . S
C331 C89 2.772 . S
C333 C129 2.240 . S
C349 C10 2.140 . S
C351 C86 2.035 . S
C367 C50 2.140 . S
C369 C6 2.035 . S
C385 C90 2.140 . S
C387 C46 2.035 . S
C403 C139 2.140 . S
C405 C175 2.035 . S
C421 C179 2.140 . S
C423 C215 2.035 . S
C439 C135 2.035 . S
C441 C219 2.140 . S
C457 C19 1.250 . S
C459 C95 1.331 . S
C475 C59 1.250 . S
C477 C15 1.331 . S
C493 C99 1.250 . S
C495 C55 1.331 . S
C511 C130 1.250 . S
C513 C166 1.331 . S
C529 C170 1.250 . S
C531 C206 1.331 . S
C547 C126 1.331 . S
C549 C210 1.250 . S
