# Generated by pormake.
# Topology wip, (6)-cn, num edge types: 1
# Building blocks:
#     Node 0, Type 0, BuildingBlock: MIFKUJ_clean_sbu_0, # of connection points: 6
#     Node 1, Type 0, BuildingBlock: MIFKUJ_clean_sbu_0, # of connection points: 6
#     Node 2, Type 0, BuildingBlock: MIFKUJ_clean_sbu_0, # of connection points: 6
#     Node 3, Type 0, BuildingBlock: MIFKUJ_clean_sbu_0, # of connection points: 6
#     Node 4, Type 0, BuildingBlock: MIFKUJ_clean_sbu_0, # of connection points: 6
#     Node 5, Type 0, BuildingBlock: MIFKUJ_clean_sbu_0, # of connection points: 6
#     Node 6, Type 0, BuildingBlock: MIFKUJ_clean_sbu_0, # of connection points: 6
#     Node 7, Type 0, BuildingBlock: MIFKUJ_clean_sbu_0, # of connection points: 6
#     Node 8, Type 0, BuildingBlock: MIFKUJ_clean_sbu_0, # of connection points: 6
#     Node 9, Type 0, BuildingBlock: MIFKUJ_clean_sbu_0, # of connection points: 6
#     Node 10, Type 0, BuildingBlock: MIFKUJ_clean_sbu_0, # of connection points: 6
#     Node 11, Type 0, BuildingBlock: MIFKUJ_clean_sbu_0, # of connection points: 6
#     Node 12, Type 0, BuildingBlock: MIFKUJ_clean_sbu_0, # of connection points: 6
#     Node 13, Type 0, BuildingBlock: MIFKUJ_clean_sbu_0, # of connection points: 6
#     Node 14, Type 0, BuildingBlock: MIFKUJ_clean_sbu_0, # of connection points: 6
#     Node 15, Type 0, BuildingBlock: MIFKUJ_clean_sbu_0, # of connection points: 6
#     Node 16, Type 0, BuildingBlock: MIFKUJ_clean_sbu_0, # of connection points: 6
#     Node 17, Type 0, BuildingBlock: MIFKUJ_clean_sbu_0, # of connection points: 6
#     Node 18, Type 0, BuildingBlock: MIFKUJ_clean_sbu_0, # of connection points: 6
#     Node 19, Type 0, BuildingBlock: MIFKUJ_clean_sbu_0, # of connection points: 6
#     Node 20, Type 0, BuildingBlock: MIFKUJ_clean_sbu_0, # of connection points: 6
#     Node 21, Type 0, BuildingBlock: MIFKUJ_clean_sbu_0, # of connection points: 6
#     Node 22, Type 0, BuildingBlock: MIFKUJ_clean_sbu_0, # of connection points: 6
#     Node 23, Type 0, BuildingBlock: MIFKUJ_clean_sbu_0, # of connection points: 6
#     Node 24, Type 0, BuildingBlock: MIFKUJ_clean_sbu_0, # of connection points: 6
#     Node 25, Type 0, BuildingBlock: MIFKUJ_clean_sbu_0, # of connection points: 6
#     Node 26, Type 0, BuildingBlock: MIFKUJ_clean_sbu_0, # of connection points: 6
#     Node 27, Type 0, BuildingBlock: MIFKUJ_clean_sbu_0, # of connection points: 6
#     Node 28, Type 0, BuildingBlock: MIFKUJ_clean_sbu_0, # of connection points: 6
#     Node 29, Type 0, BuildingBlock: MIFKUJ_clean_sbu_0, # of connection points: 6
#     Node 30, Type 0, BuildingBlock: MIFKUJ_clean_sbu_0, # of connection points: 6
#     Node 31, Type 0, BuildingBlock: MIFKUJ_clean_sbu_0, # of connection points: 6
#     Edge 32, Type (0, 0), BuildingBlock: ZUJKAS_clean_linker_0, # of connection points: 2
#     Edge 33, Type (0, 0), BuildingBlock: ZUJKAS_clean_linker_0, # of connection points: 2
#     Edge 34, Type (0, 0), BuildingBlock: ZUJKAS_clean_linker_0, # of connection points: 2
#     Edge 35, Type (0, 0), BuildingBlock: ZUJKAS_clean_linker_0, # of connection points: 2
#     Edge 36, Type (0, 0), BuildingBlock: ZUJKAS_clean_linker_0, # of connection points: 2
#     Edge 37, Type (0, 0), BuildingBlock: ZUJKAS_clean_linker_0, # of connection points: 2
#     Edge 38, Type (0, 0), BuildingBlock: ZUJKAS_clean_linker_0, # of connection points: 2
#     Edge 39, Type (0, 0), BuildingBlock: ZUJKAS_clean_linker_0, # of connection points: 2
#     Edge 40, Type (0, 0), BuildingBlock: ZUJKAS_clean_linker_0, # of connection points: 2
#     Edge 41, Type (0, 0), BuildingBlock: ZUJKAS_clean_linker_0, # of connection points: 2
#     Edge 42, Type (0, 0), BuildingBlock: ZUJKAS_clean_linker_0, # of connection points: 2
#     Edge 43, Type (0, 0), BuildingBlock: ZUJKAS_clean_linker_0, # of connection points: 2
#     Edge 44, Type (0, 0), BuildingBlock: ZUJKAS_clean_linker_0, # of connection points: 2
#     Edge 45, Type (0, 0), BuildingBlock: ZUJKAS_clean_linker_0, # of connection points: 2
#     Edge 46, Type (0, 0), BuildingBlock: ZUJKAS_clean_linker_0, # of connection points: 2
#     Edge 47, Type (0, 0), BuildingBlock: ZUJKAS_clean_linker_0, # of connection points: 2
#     Edge 48, Type (0, 0), BuildingBlock: ZUJKAS_clean_linker_0, # of connection points: 2
#     Edge 49, Type (0, 0), BuildingBlock: ZUJKAS_clean_linker_0, # of connection points: 2
#     Edge 50, Type (0, 0), BuildingBlock: ZUJKAS_clean_linker_0, # of connection points: 2
#     Edge 51, Type (0, 0), BuildingBlock: ZUJKAS_clean_linker_0, # of connection points: 2
#     Edge 52, Type (0, 0), BuildingBlock: ZUJKAS_clean_linker_0, # of connection points: 2
#     Edge 53, Type (0, 0), BuildingBlock: ZUJKAS_clean_linker_0, # of connection points: 2
#     Edge 54, Type (0, 0), BuildingBlock: ZUJKAS_clean_linker_0, # of connection points: 2
#     Edge 55, Type (0, 0), BuildingBlock: ZUJKAS_clean_linker_0, # of connection points: 2
#     Edge 56, Type (0, 0), BuildingBlock: ZUJKAS_clean_linker_0, # of connection points: 2
#     Edge 57, Type (0, 0), BuildingBlock: ZUJKAS_clean_linker_0, # of connection points: 2
#     Edge 58, Type (0, 0), BuildingBlock: ZUJKAS_clean_linker_0, # of connection points: 2
#     Edge 59, Type (0, 0), BuildingBlock: ZUJKAS_clean_linker_0, # of connection points: 2
#     Edge 60, Type (0, 0), BuildingBlock: ZUJKAS_clean_linker_0, # of connection points: 2
#     Edge 61, Type (0, 0), BuildingBlock: ZUJKAS_clean_linker_0, # of connection points: 2
#     Edge 62, Type (0, 0), BuildingBlock: ZUJKAS_clean_linker_0, # of connection points: 2
#     Edge 63, Type (0, 0), BuildingBlock: ZUJKAS_clean_linker_0, # of connection points: 2
#     Edge 64, Type (0, 0), BuildingBlock: ZUJKAS_clean_linker_0, # of connection points: 2
#     Edge 65, Type (0, 0), BuildingBlock: ZUJKAS_clean_linker_0, # of connection points: 2
#     Edge 66, Type (0, 0), BuildingBlock: ZUJKAS_clean_linker_0, # of connection points: 2
#     Edge 67, Type (0, 0), BuildingBlock: ZUJKAS_clean_linker_0, # of connection points: 2
#     Edge 68, Type (0, 0), BuildingBlock: ZUJKAS_clean_linker_0, # of connection points: 2
#     Edge 69, Type (0, 0), BuildingBlock: ZUJKAS_clean_linker_0, # of connection points: 2
#     Edge 70, Type (0, 0), BuildingBlock: ZUJKAS_clean_linker_0, # of connection points: 2
#     Edge 71, Type (0, 0), BuildingBlock: ZUJKAS_clean_linker_0, # of connection points: 2
#     Edge 72, Type (0, 0), BuildingBlock: ZUJKAS_clean_linker_0, # of connection points: 2
#     Edge 73, Type (0, 0), BuildingBlock: ZUJKAS_clean_linker_0, # of connection points: 2
#     Edge 74, Type (0, 0), BuildingBlock: ZUJKAS_clean_linker_0, # of connection points: 2
#     Edge 75, Type (0, 0), BuildingBlock: ZUJKAS_clean_linker_0, # of connection points: 2
#     Edge 76, Type (0, 0), BuildingBlock: ZUJKAS_clean_linker_0, # of connection points: 2
#     Edge 77, Type (0, 0), BuildingBlock: ZUJKAS_clean_linker_0, # of connection points: 2
#     Edge 78, Type (0, 0), BuildingBlock: ZUJKAS_clean_linker_0, # of connection points: 2
#     Edge 79, Type (0, 0), BuildingBlock: ZUJKAS_clean_linker_0, # of connection points: 2
#     Edge 80, Type (0, 0), BuildingBlock: ZUJKAS_clean_linker_0, # of connection points: 2
#     Edge 81, Type (0, 0), BuildingBlock: ZUJKAS_clean_linker_0, # of connection points: 2
#     Edge 82, Type (0, 0), BuildingBlock: ZUJKAS_clean_linker_0, # of connection points: 2
#     Edge 83, Type (0, 0), BuildingBlock: ZUJKAS_clean_linker_0, # of connection points: 2
#     Edge 84, Type (0, 0), BuildingBlock: ZUJKAS_clean_linker_0, # of connection points: 2
#     Edge 85, Type (0, 0), BuildingBlock: ZUJKAS_clean_linker_0, # of connection points: 2
#     Edge 86, Type (0, 0), BuildingBlock: ZUJKAS_clean_linker_0, # of connection points: 2
#     Edge 87, Type (0, 0), BuildingBlock: ZUJKAS_clean_linker_0, # of connection points: 2
#     Edge 88, Type (0, 0), BuildingBlock: ZUJKAS_clean_linker_0, # of connection points: 2
#     Edge 89, Type (0, 0), BuildingBlock: ZUJKAS_clean_linker_0, # of connection points: 2
#     Edge 90, Type (0, 0), BuildingBlock: ZUJKAS_clean_linker_0, # of connection points: 2
#     Edge 91, Type (0, 0), BuildingBlock: ZUJKAS_clean_linker_0, # of connection points: 2
#     Edge 92, Type (0, 0), BuildingBlock: ZUJKAS_clean_linker_0, # of connection points: 2
#     Edge 93, Type (0, 0), BuildingBlock: ZUJKAS_clean_linker_0, # of connection points: 2
#     Edge 94, Type (0, 0), BuildingBlock: ZUJKAS_clean_linker_0, # of connection points: 2
#     Edge 95, Type (0, 0), BuildingBlock: ZUJKAS_clean_linker_0, # of connection points: 2
#     Edge 96, Type (0, 0), BuildingBlock: ZUJKAS_clean_linker_0, # of connection points: 2
#     Edge 97, Type (0, 0), BuildingBlock: ZUJKAS_clean_linker_0, # of connection points: 2
#     Edge 98, Type (0, 0), BuildingBlock: ZUJKAS_clean_linker_0, # of connection points: 2
#     Edge 99, Type (0, 0), BuildingBlock: ZUJKAS_clean_linker_0, # of connection points: 2
#     Edge 100, Type (0, 0), BuildingBlock: ZUJKAS_clean_linker_0, # of connection points: 2
#     Edge 101, Type (0, 0), BuildingBlock: ZUJKAS_clean_linker_0, # of connection points: 2
#     Edge 102, Type (0, 0), BuildingBlock: ZUJKAS_clean_linker_0, # of connection points: 2
#     Edge 103, Type (0, 0), BuildingBlock: ZUJKAS_clean_linker_0, # of connection points: 2
#     Edge 104, Type (0, 0), BuildingBlock: ZUJKAS_clean_linker_0, # of connection points: 2
#     Edge 105, Type (0, 0), BuildingBlock: ZUJKAS_clean_linker_0, # of connection points: 2
#     Edge 106, Type (0, 0), BuildingBlock: ZUJKAS_clean_linker_0, # of connection points: 2
#     Edge 107, Type (0, 0), BuildingBlock: ZUJKAS_clean_linker_0, # of connection points: 2
#     Edge 108, Type (0, 0), BuildingBlock: ZUJKAS_clean_linker_0, # of connection points: 2
#     Edge 109, Type (0, 0), BuildingBlock: ZUJKAS_clean_linker_0, # of connection points: 2
#     Edge 110, Type (0, 0), BuildingBlock: ZUJKAS_clean_linker_0, # of connection points: 2
#     Edge 111, Type (0, 0), BuildingBlock: ZUJKAS_clean_linker_0, # of connection points: 2
#     Edge 112, Type (0, 0), BuildingBlock: ZUJKAS_clean_linker_0, # of connection points: 2
#     Edge 113, Type (0, 0), BuildingBlock: ZUJKAS_clean_linker_0, # of connection points: 2
#     Edge 114, Type (0, 0), BuildingBlock: ZUJKAS_clean_linker_0, # of connection points: 2
#     Edge 115, Type (0, 0), BuildingBlock: ZUJKAS_clean_linker_0, # of connection points: 2
#     Edge 116, Type (0, 0), BuildingBlock: ZUJKAS_clean_linker_0, # of connection points: 2
#     Edge 117, Type (0, 0), BuildingBlock: ZUJKAS_clean_linker_0, # of connection points: 2
#     Edge 118, Type (0, 0), BuildingBlock: ZUJKAS_clean_linker_0, # of connection points: 2
#     Edge 119, Type (0, 0), BuildingBlock: ZUJKAS_clean_linker_0, # of connection points: 2
#     Edge 120, Type (0, 0), BuildingBlock: ZUJKAS_clean_linker_0, # of connection points: 2
#     Edge 121, Type (0, 0), BuildingBlock: ZUJKAS_clean_linker_0, # of connection points: 2
#     Edge 122, Type (0, 0), BuildingBlock: ZUJKAS_clean_linker_0, # of connection points: 2
#     Edge 123, Type (0, 0), BuildingBlock: ZUJKAS_clean_linker_0, # of connection points: 2
#     Edge 124, Type (0, 0), BuildingBlock: ZUJKAS_clean_linker_0, # of connection points: 2
#     Edge 125, Type (0, 0), BuildingBlock: ZUJKAS_clean_linker_0, # of connection points: 2
#     Edge 126, Type (0, 0), BuildingBlock: ZUJKAS_clean_linker_0, # of connection points: 2
#     Edge 127, Type (0, 0), BuildingBlock: ZUJKAS_clean_linker_0, # of connection points: 2
# Relax obj value: 0.350
# Max RMSD: 0.230
# Mean RMSD: 0.218
data_MOF--net-wip--node1-MIFKUJ_clean_sbu_0--edge1-ZUJKAS_clean_linker_0
_symmetry_space_group_name_H-M    P1
_symmetry_Int_Tables_number       1
_symmetry_cell_setting            triclinic
loop_
_symmetry_equiv_pos_as_xyz
'x, y, z'
_cell_length_a     78.361394
_cell_length_b     86.507358
_cell_length_c     37.48658
_cell_angle_alpha  90.536422
_cell_angle_beta   89.82212
_cell_angle_gamma 90.88559
loop_
_atom_site_label
_atom_site_type_symbol
_atom_site_fract_x
_atom_site_fract_y
_atom_site_fract_z
_atom_type_partial_charge
Zn0 Zn 0.03889 0.41384 0.11692 0.0
Zn1 Zn 0.03542 0.40418 0.00837 0.0
C2 C 0.01912 0.41545 0.17634 0.0
O3 O 0.0216 0.42961 0.16477 0.0
C4 C 0.06239 0.42242 0.97717 0.0
O5 O 0.06977 0.40889 0.97716 0.0
O6 O 0.05655 0.42849 0.13821 0.0
O7 O 0.04769 0.40082 0.07601 0.0
O8 O 0.05294 0.38915 0.02527 0.0
C9 C 0.06542 0.42331 0.16369 0.0
O10 O 0.06427 0.4085 0.17105 0.0
O11 O 0.02604 0.40435 0.1592 0.0
C12 C 0.00661 0.39633 0.96444 0.0
O13 O -0.00204 0.39918 0.99377 0.0
O14 O 0.0228 0.3965 0.96543 0.0
O15 O 0.01916 0.40767 0.04982 0.0
O16 O 0.02118 0.42567 0.09161 0.0
O17 O 0.04775 0.42368 0.99169 0.0
C18 C 0.05636 0.39127 0.05804 0.0
C19 C 0.01487 0.42068 0.06238 0.0
Zn20 Zn 0.81204 0.8113 0.35914 0.0
Zn21 Zn 0.82096 0.81699 0.24729 0.0
C22 C 0.82712 0.8066 0.42724 0.0
O23 O 0.82024 0.82014 0.43315 0.0
C24 C 0.79965 0.83671 0.20796 0.0
O25 O 0.81454 0.84329 0.20145 0.0
O26 O 0.79293 0.82179 0.38599 0.0
O27 O 0.82447 0.82523 0.32319 0.0
O28 O 0.83408 0.83481 0.27248 0.0
C29 C 0.79039 0.83595 0.39317 0.0
O30 O 0.80098 0.84654 0.38079 0.0
O31 O 0.82674 0.80092 0.39581 0.0
C32 C 0.82121 0.79827 0.18532 0.0
O33 O 0.80491 0.80032 0.19164 0.0
O34 O 0.83207 0.80476 0.20617 0.0
O35 O 0.81597 0.80302 0.28718 0.0
O36 O 0.79989 0.7949 0.33031 0.0
O37 O 0.79891 0.82551 0.22955 0.0
C38 C 0.8328 0.83563 0.30656 0.0
C39 C 0.80288 0.79561 0.29712 0.0
Zn40 Zn 0.4605 0.59002 0.63049 0.0
Zn41 Zn 0.45949 0.59083 0.51578 0.0
C42 C 0.47539 0.58569 0.69436 0.0
O43 O 0.46814 0.57252 0.68462 0.0
C44 C 0.43537 0.58116 0.46298 0.0
O45 O 0.43845 0.59536 0.45231 0.0
O46 O 0.43851 0.58005 0.64874 0.0
O47 O 0.45878 0.60248 0.58604 0.0
O48 O 0.44564 0.60839 0.53751 0.0
C49 C 0.43174 0.58567 0.6768 0.0
O50 O 0.43763 0.59891 0.68945 0.0
O51 O 0.47426 0.59727 0.67364 0.0
C52 C 0.48225 0.585 0.46197 0.0
O53 O 0.47693 0.57144 0.47324 0.0
O54 O 0.4765 0.59705 0.47727 0.0
O55 O 0.47152 0.57774 0.55343 0.0
O56 O 0.47479 0.57338 0.61123 0.0
O57 O 0.44255 0.57651 0.49119 0.0
C58 C 0.44638 0.60903 0.57126 0.0
C59 C 0.47836 0.57034 0.57884 0.0
Zn60 Zn 0.6521 0.19808 0.869 0.0
Zn61 Zn 0.64085 0.19628 0.76028 0.0
C62 C 0.65624 0.21822 0.92459 0.0
O63 O 0.67169 0.21389 0.9156 0.0
C64 C 0.65696 0.17813 0.70834 0.0
O65 O 0.64109 0.17805 0.69711 0.0
O66 O 0.66465 0.18087 0.89339 0.0
O67 O 0.63658 0.19164 0.8299 0.0
O68 O 0.62495 0.17986 0.78545 0.0
C69 C 0.66102 0.17716 0.92531 0.0
O70 O 0.64818 0.18377 0.94166 0.0
O71 O 0.64367 0.21308 0.90635 0.0
C72 C 0.63023 0.22221 0.71646 0.0
O73 O 0.6327 0.23045 0.74565 0.0
O74 O 0.6309 0.20754 0.71798 0.0
O75 O 0.65085 0.21254 0.79539 0.0
O76 O 0.6692 0.20905 0.83909 0.0
O77 O 0.66048 0.18482 0.73782 0.0
C78 C 0.6276 0.1804 0.81889 0.0
C79 C 0.66612 0.2127 0.80691 0.0
Zn80 Zn 0.09866 0.53765 0.62 0.0
Zn81 Zn 0.09731 0.53651 0.50644 0.0
C82 C 0.08428 0.56102 0.66364 0.0
O83 O 0.10042 0.56254 0.67267 0.0
C84 C 0.11523 0.51439 0.46453 0.0
O85 O 0.11354 0.5061 0.49355 0.0
O86 O 0.10524 0.52435 0.66298 0.0
O87 O 0.08738 0.52406 0.58058 0.0
O88 O 0.08315 0.51877 0.52338 0.0
C89 C 0.09246 0.52099 0.68279 0.0
O90 O 0.07727 0.52548 0.67305 0.0
O91 O 0.08026 0.55154 0.63887 0.0
C92 C 0.08566 0.56158 0.4622 0.0
O93 O 0.10201 0.56306 0.45498 0.0
O94 O 0.08086 0.55188 0.48564 0.0
O95 O 0.10861 0.54246 0.55166 0.0
O96 O 0.11704 0.55293 0.60089 0.0
O97 O 0.11166 0.52865 0.466 0.0
C98 C 0.08046 0.5157 0.55615 0.0
C99 C 0.11657 0.55332 0.5671 0.0
Zn100 Zn 0.68011 0.82199 0.77048 0.0
Zn101 Zn 0.66389 0.81468 0.87032 0.0
C102 C 0.676 0.79535 0.72685 0.0
O103 O 0.69229 0.79524 0.73495 0.0
C104 C 0.67717 0.83132 0.92829 0.0
O105 O 0.66077 0.83114 0.93579 0.0
O106 O 0.69297 0.83566 0.73519 0.0
O107 O 0.66818 0.83163 0.81223 0.0
O108 O 0.64677 0.82878 0.84835 0.0
C109 C 0.68593 0.83679 0.70474 0.0
O110 O 0.67015 0.83174 0.70089 0.0
O111 O 0.66668 0.80588 0.74041 0.0
C112 C 0.65184 0.78554 0.90061 0.0
O113 O 0.6567 0.7796 0.86993 0.0
O114 O 0.65273 0.8001 0.90532 0.0
O115 O 0.67422 0.80204 0.82996 0.0
O116 O 0.69638 0.80971 0.79862 0.0
O117 O 0.68206 0.82581 0.8985 0.0
C118 C 0.65233 0.83269 0.81789 0.0
C119 C 0.69015 0.80152 0.8237 0.0
Zn120 Zn 0.39047 0.46262 0.11972 0.0
Zn121 Zn 0.39521 0.46722 0.00513 0.0
C122 C 0.40592 0.43641 0.15435 0.0
O123 O 0.39031 0.43065 0.15505 0.0
C124 C 0.39305 0.48792 0.95152 0.0
O125 O 0.40935 0.48724 0.95933 0.0
O126 O 0.38315 0.4771 0.1596 0.0
O127 O 0.40139 0.47371 0.07911 0.0
O128 O 0.41225 0.48182 0.02942 0.0
C129 C 0.39479 0.4867 0.16892 0.0
O130 O 0.40911 0.48702 0.15066 0.0
O131 O 0.40866 0.44943 0.14003 0.0
C132 C 0.40303 0.44265 0.95341 0.0
O133 O 0.38646 0.4426 0.9482 0.0
O134 O 0.40934 0.4515 0.97744 0.0
O135 O 0.38136 0.45764 0.04583 0.0
O136 O 0.37131 0.44941 0.09699 0.0
O137 O 0.38243 0.47957 0.96873 0.0
C138 C 0.41278 0.48147 0.0632 0.0
C139 C 0.37064 0.44941 0.06293 0.0
Zn140 Zn 0.79512 0.15352 0.36844 0.0
Zn141 Zn 0.79423 0.16194 0.25716 0.0
C142 C 0.82177 0.16687 0.41167 0.0
O143 O 0.82349 0.15241 0.42133 0.0
C144 C 0.77641 0.15916 0.19634 0.0
O145 O 0.77842 0.17405 0.20249 0.0
O146 O 0.78135 0.14594 0.41149 0.0
O147 O 0.77867 0.16556 0.33564 0.0
O148 O 0.77507 0.17282 0.27937 0.0
C149 C 0.77602 0.15745 0.42959 0.0
O150 O 0.78043 0.1714 0.41928 0.0
O151 O 0.81099 0.16999 0.38771 0.0
C152 C 0.81759 0.17312 0.20395 0.0
O153 O 0.81558 0.15859 0.19407 0.0
O154 O 0.81086 0.17752 0.2333 0.0
O155 O 0.8013 0.15036 0.29969 0.0
O156 O 0.81098 0.13767 0.34414 0.0
O157 O 0.78258 0.14962 0.2183 0.0
C158 C 0.77 0.17235 0.31169 0.0
C159 C 0.81202 0.141 0.31138 0.0
Zn160 Zn 0.95127 0.58028 0.11389 0.0
Zn161 Zn 0.94633 0.57389 0.99856 0.0
C162 C 0.92275 0.56523 0.15146 0.0
O163 O 0.91538 0.57875 0.15028 0.0
C164 C 0.96184 0.57612 0.9341 0.0
O165 O 0.95814 0.56138 0.9382 0.0
O166 O 0.96973 0.58736 0.14959 0.0
O167 O 0.96048 0.5709 0.06935 0.0
O168 O 0.96579 0.5611 0.01704 0.0
C169 C 0.9755 0.57672 0.16932 0.0
O170 O 0.96953 0.56258 0.16503 0.0
O171 O 0.93732 0.56358 0.13721 0.0
C172 C 0.91968 0.56505 0.94848 0.0
O173 O 0.92085 0.57994 0.94205 0.0
O174 O 0.928 0.55975 0.97481 0.0
O175 O 0.93877 0.58686 0.04196 0.0
O176 O 0.93575 0.59714 0.09556 0.0
O177 O 0.95775 0.58566 0.95864 0.0
C178 C 0.96951 0.56229 0.04994 0.0
C179 C 0.93197 0.59685 0.06241 0.0
Zn180 Zn 0.1617 0.1706 0.87585 0.0
Zn181 Zn 0.18106 0.16733 0.77311 0.0
C182 C 0.19409 0.15693 0.90132 0.0
O183 O 0.19857 0.15477 0.86787 0.0
C184 C 0.18092 0.18725 0.71588 0.0
O185 O 0.19708 0.18361 0.71864 0.0
O186 O 0.1478 0.18436 0.90954 0.0
O187 O 0.17338 0.185 0.83863 0.0
O188 O 0.19572 0.17989 0.8049 0.0
C189 C 0.15766 0.19504 0.92172 0.0
O190 O 0.1735 0.19559 0.91023 0.0
O191 O 0.17973 0.16279 0.90863 0.0
C192 C 0.18971 0.14802 0.7136 0.0
O193 O 0.17353 0.15031 0.70659 0.0
O194 O 0.19551 0.15245 0.74379 0.0
O195 O 0.16515 0.16001 0.81009 0.0
O196 O 0.1497 0.15107 0.85287 0.0
O197 O 0.17028 0.18189 0.73845 0.0
C198 C 0.18944 0.18604 0.83301 0.0
C199 C 0.15606 0.14918 0.82195 0.0
Zn200 Zn 0.532 0.40228 0.60781 0.0
Zn201 Zn 0.53141 0.40848 0.49613 0.0
C202 C 0.55931 0.4189 0.63935 0.0
O203 O 0.56525 0.40479 0.63867 0.0
C204 C 0.50839 0.4048 0.44283 0.0
O205 O 0.50737 0.41933 0.45285 0.0
O206 O 0.51998 0.39562 0.65344 0.0
O207 O 0.51411 0.40651 0.56903 0.0
O208 O 0.51448 0.42142 0.52157 0.0
C209 C 0.5039 0.39349 0.65538 0.0
O210 O 0.49492 0.39306 0.62585 0.0
O211 O 0.54513 0.42143 0.62415 0.0
C212 C 0.55408 0.41833 0.43966 0.0
O213 O 0.55131 0.40399 0.42916 0.0
O214 O 0.54789 0.42282 0.46942 0.0
O215 O 0.54033 0.39764 0.53877 0.0
O216 O 0.54958 0.38684 0.58655 0.0
O217 O 0.51859 0.39597 0.45891 0.0
C218 C 0.50961 0.4188 0.55343 0.0
C219 C 0.55047 0.38836 0.55284 0.0
Zn220 Zn 0.34791 0.79568 0.35844 0.0
Zn221 Zn 0.34987 0.79196 0.24375 0.0
C222 C 0.32365 0.8184 0.39175 0.0
O223 O 0.33076 0.82945 0.37273 0.0
C224 C 0.34722 0.7782 0.17881 0.0
O225 O 0.33178 0.78195 0.18916 0.0
O226 O 0.35916 0.78099 0.39303 0.0
O227 O 0.33779 0.78379 0.31701 0.0
O228 O 0.33313 0.77632 0.26192 0.0
C229 C 0.3491 0.76966 0.39967 0.0
O230 O 0.33482 0.76841 0.3816 0.0
O231 O 0.32877 0.8046 0.38812 0.0
C232 C 0.339 0.81629 0.19789 0.0
O233 O 0.35393 0.81369 0.18318 0.0
O234 O 0.33522 0.80955 0.22689 0.0
O235 O 0.36361 0.79738 0.2883 0.0
O236 O 0.36268 0.81259 0.33528 0.0
O237 O 0.35975 0.78123 0.19961 0.0
C238 C 0.3297 0.7753 0.2949 0.0
C239 C 0.36563 0.8108 0.30197 0.0
Zn240 Zn 0.90781 0.44674 0.58732 0.0
Zn241 Zn 0.8904 0.45777 0.51215 0.0
C242 C 0.90397 0.46713 0.64522 0.0
O243 O 0.92055 0.46551 0.6425 0.0
C244 C 0.90827 0.43308 0.47346 0.0
O245 O 0.89296 0.42675 0.47114 0.0
O246 O 0.92375 0.43493 0.61813 0.0
O247 O 0.8946 0.43095 0.55878 0.0
O248 O 0.87316 0.44458 0.54005 0.0
C249 C 0.91675 0.42812 0.64434 0.0
O250 O 0.90005 0.42819 0.64717 0.0
O251 O 0.89424 0.46001 0.62305 0.0
C252 C 0.88718 0.47978 0.45712 0.0
O253 O 0.89852 0.48664 0.47774 0.0
O254 O 0.88049 0.46698 0.46692 0.0
O255 O 0.90036 0.47551 0.54153 0.0
O256 O 0.92179 0.46112 0.5585 0.0
O257 O 0.91027 0.44545 0.49174 0.0
C258 C 0.87871 0.43245 0.55459 0.0
C259 C 0.91574 0.47422 0.55129 0.0
Zn260 Zn 0.32618 0.177 0.24524 0.0
Zn261 Zn 0.31174 0.17188 0.3496 0.0
C262 C 0.30977 0.15911 0.19285 0.0
O263 O 0.32571 0.15498 0.18836 0.0
C264 C 0.31516 0.19393 0.4039 0.0
O265 O 0.29873 0.19068 0.40382 0.0
O266 O 0.3385 0.19089 0.21015 0.0
O267 O 0.31823 0.19065 0.2872 0.0
O268 O 0.29637 0.185 0.3218 0.0
C269 C 0.33027 0.20317 0.20438 0.0
O270 O 0.31583 0.20531 0.22142 0.0
O271 O 0.30619 0.16833 0.21826 0.0
C272 C 0.30322 0.15499 0.41326 0.0
O273 O 0.31896 0.15921 0.42111 0.0
O274 O 0.29768 0.15754 0.38192 0.0
O275 O 0.32558 0.16388 0.30902 0.0
O276 O 0.34098 0.15939 0.26246 0.0
O277 O 0.32477 0.18715 0.3814 0.0
C278 C 0.3026 0.19241 0.29545 0.0
C279 C 0.33738 0.15625 0.29462 0.0
Zn280 Zn 0.60134 0.52511 0.12426 0.0
Zn281 Zn 0.60111 0.52321 0.01314 0.0
C282 C 0.62987 0.51283 0.16978 0.0
O283 O 0.64637 0.51172 0.17496 0.0
C284 C 0.58383 0.54616 0.97801 0.0
O285 O 0.6 0.54917 0.97131 0.0
O286 O 0.58656 0.5367 0.15929 0.0
O287 O 0.60329 0.53627 0.07678 0.0
O288 O 0.61879 0.53975 0.02905 0.0
C289 C 0.58172 0.55062 0.15707 0.0
O290 O 0.58631 0.5589 0.12937 0.0
O291 O 0.62471 0.52127 0.14447 0.0
C292 C 0.59351 0.5027 0.95911 0.0
O293 O 0.57963 0.50341 0.97878 0.0
O294 O 0.60675 0.51019 0.96949 0.0
O295 O 0.59895 0.50991 0.05771 0.0
O296 O 0.58934 0.50477 0.11055 0.0
O297 O 0.58008 0.53502 0.99871 0.0
C298 C 0.6162 0.5425 0.06208 0.0
C299 C 0.58782 0.50318 0.07688 0.0
Zn300 Zn 0.20037 0.82877 0.87598 0.0
Zn301 Zn 0.1994 0.83438 0.76212 0.0
C302 C 0.22509 0.84577 0.9175 0.0
O303 O 0.23422 0.84472 0.88815 0.0
C304 C 0.17175 0.81786 0.72762 0.0
O305 O 0.16454 0.83147 0.72885 0.0
O306 O 0.18416 0.81297 0.89906 0.0
O307 O 0.18959 0.84108 0.83563 0.0
O308 O 0.18254 0.85 0.78303 0.0
C309 C 0.17475 0.81713 0.92512 0.0
O310 O 0.17413 0.8319 0.93344 0.0
O311 O 0.20959 0.84136 0.91685 0.0
C312 C 0.22404 0.83091 0.70923 0.0
O313 O 0.22275 0.81717 0.7237 0.0
O314 O 0.21535 0.84185 0.72268 0.0
O315 O 0.21157 0.82702 0.80487 0.0
O316 O 0.21999 0.8167 0.85383 0.0
O317 O 0.18639 0.8163 0.74136 0.0
C318 C 0.18062 0.85002 0.81694 0.0
C319 C 0.22102 0.81751 0.82009 0.0
Zn320 Zn 0.54375 0.91409 0.61893 0.0
Zn321 Zn 0.53885 0.90785 0.50629 0.0
C322 C 0.5252 0.90877 0.67821 0.0
O323 O 0.52534 0.92376 0.67308 0.0
C324 C 0.56486 0.92002 0.46118 0.0
O325 O 0.56498 0.90541 0.45123 0.0
O326 O 0.55975 0.92986 0.64368 0.0
O327 O 0.55052 0.90575 0.57149 0.0
O328 O 0.55219 0.89008 0.5266 0.0
C329 C 0.56695 0.92573 0.67249 0.0
O330 O 0.56521 0.91131 0.68267 0.0
O331 O 0.53353 0.90008 0.65694 0.0
C332 C 0.51688 0.91215 0.4499 0.0
O333 O 0.52061 0.92624 0.46097 0.0
O334 O 0.52388 0.90084 0.46516 0.0
O335 O 0.52288 0.91797 0.54354 0.0
O336 O 0.52285 0.92405 0.60159 0.0
O337 O 0.55503 0.92403 0.48655 0.0
C338 C 0.55504 0.8928 0.55929 0.0
C339 C 0.51553 0.92355 0.57123 0.0
Zn340 Zn 0.30817 0.32089 0.85511 0.0
Zn341 Zn 0.3227 0.31819 0.74665 0.0
C342 C 0.31266 0.30319 0.91477 0.0
O343 O 0.29616 0.30564 0.91426 0.0
C344 C 0.29655 0.33754 0.71214 0.0
O345 O 0.30501 0.34986 0.72339 0.0
O346 O 0.29212 0.33492 0.88331 0.0
O347 O 0.32148 0.32965 0.8146 0.0
O348 O 0.33553 0.33741 0.76806 0.0
C349 C 0.29679 0.34121 0.91263 0.0
O350 O 0.31304 0.34106 0.92115 0.0
O351 O 0.32193 0.30858 0.88979 0.0
C352 C 0.32728 0.29428 0.6983 0.0
O353 O 0.31194 0.29201 0.71148 0.0
O354 O 0.33615 0.30568 0.71002 0.0
O355 O 0.31487 0.30428 0.78767 0.0
O356 O 0.29395 0.30618 0.82689 0.0
O357 O 0.30171 0.3242 0.72028 0.0
C358 C 0.33204 0.339 0.80108 0.0
C359 C 0.29924 0.30218 0.79602 0.0
Zn360 Zn 0.95822 0.07976 0.12482 0.0
Zn361 Zn 0.96227 0.08795 0.01417 0.0
C362 C 0.97684 0.07723 0.18539 0.0
O363 O 0.97038 0.06339 0.17875 0.0
C364 C 0.93484 0.07503 0.97385 0.0
O365 O 0.93145 0.08982 0.97153 0.0
O366 O 0.93799 0.0687 0.14832 0.0
O367 O 0.95333 0.09266 0.0828 0.0
O368 O 0.94672 0.10518 0.03546 0.0
C369 C 0.93165 0.07385 0.17732 0.0
O370 O 0.93659 0.08754 0.1891 0.0
O371 O 0.97377 0.08808 0.16369 0.0
C372 C 0.98728 0.08349 0.96259 0.0
O373 O 0.98824 0.07141 0.98331 0.0
O374 O 0.97694 0.09414 0.97125 0.0
O375 O 0.97787 0.07939 0.05366 0.0
O376 O 0.97122 0.06395 0.09869 0.0
O377 O 0.94718 0.07095 0.99341 0.0
C378 C 0.94508 0.1034 0.06898 0.0
C379 C 0.97708 0.06595 0.06728 0.0
Zn380 Zn 0.15106 0.69991 0.38119 0.0
Zn381 Zn 0.14562 0.69495 0.26603 0.0
C382 C 0.14976 0.71617 0.44195 0.0
O383 O 0.16583 0.71512 0.43228 0.0
C384 C 0.16101 0.67555 0.21399 0.0
O385 O 0.14484 0.67264 0.2071 0.0
O386 O 0.16822 0.68586 0.40496 0.0
O387 O 0.13877 0.69056 0.33892 0.0
O388 O 0.13075 0.67807 0.29129 0.0
C389 C 0.16389 0.67844 0.43282 0.0
O390 O 0.14769 0.67782 0.44196 0.0
O391 O 0.13828 0.71038 0.42156 0.0
C392 C 0.13892 0.72211 0.22429 0.0
O393 O 0.14732 0.72871 0.25072 0.0
O394 O 0.13483 0.70783 0.22663 0.0
O395 O 0.15675 0.70843 0.30432 0.0
O396 O 0.16438 0.71691 0.3574 0.0
O397 O 0.16479 0.68441 0.24009 0.0
C398 C 0.13203 0.67856 0.32521 0.0
C399 C 0.1651 0.718 0.32359 0.0
Zn400 Zn 0.60202 0.03309 0.11334 0.0
Zn401 Zn 0.5839 0.04069 0.02267 0.0
C402 C 0.58627 0.05793 0.15435 0.0
O403 O 0.60202 0.06316 0.15761 0.0
C404 C 0.59123 0.02101 0.9689 0.0
O405 O 0.57459 0.02064 0.97301 0.0
O406 O 0.61295 0.02284 0.15592 0.0
O407 O 0.58815 0.01541 0.08712 0.0
O408 O 0.57128 0.02337 0.04282 0.0
C409 C 0.60146 0.0148 0.1715 0.0
O410 O 0.58587 0.01484 0.15898 0.0
O411 O 0.58341 0.04584 0.13576 0.0
C412 C 0.57559 0.0601 0.96609 0.0
O413 O 0.59201 0.05839 0.96043 0.0
O414 O 0.56878 0.05407 0.99359 0.0
O415 O 0.59304 0.05012 0.06563 0.0
O416 O 0.6184 0.04816 0.08584 0.0
O417 O 0.60021 0.03006 0.98851 0.0
C418 C 0.57602 0.01315 0.06466 0.0
C419 C 0.60826 0.05482 0.06499 0.0
Zn420 Zn 0.1749 0.31711 0.27102 0.0
Zn421 Zn 0.16222 0.30641 0.37568 0.0
C422 C 0.16876 0.29867 0.21307 0.0
O423 O 0.18528 0.30146 0.21409 0.0
C424 C 0.18015 0.327 0.42221 0.0
O425 O 0.1651 0.33348 0.42316 0.0
O426 O 0.18912 0.33219 0.24092 0.0
O427 O 0.16587 0.32435 0.3194 0.0
O428 O 0.14659 0.32383 0.361 0.0
C429 C 0.18293 0.33717 0.21186 0.0
O430 O 0.16658 0.33489 0.20564 0.0
O431 O 0.15942 0.30447 0.23756 0.0
C432 C 0.15346 0.27698 0.40646 0.0
O433 O 0.16157 0.27178 0.37823 0.0
O434 O 0.15093 0.29141 0.40944 0.0
O435 O 0.16976 0.29658 0.32876 0.0
O436 O 0.19055 0.30135 0.29075 0.0
O437 O 0.18234 0.31532 0.40203 0.0
C438 C 0.15177 0.32911 0.33127 0.0
C439 C 0.18517 0.29491 0.31917 0.0
Zn440 Zn 0.89138 0.97013 0.6035 0.0
Zn441 Zn 0.90692 0.95981 0.52237 0.0
C442 C 0.90328 0.94396 0.64073 0.0
O443 O 0.88704 0.94376 0.64965 0.0
C444 C 0.88693 0.97182 0.46149 0.0
O445 O 0.88217 0.95756 0.45399 0.0
O446 O 0.88416 0.97972 0.6512 0.0
O447 O 0.90333 0.98757 0.57863 0.0
O448 O 0.92256 0.97359 0.55007 0.0
C449 C 0.89692 0.98206 0.67175 0.0
O450 O 0.91218 0.9783 0.66037 0.0
O451 O 0.90841 0.9537 0.61767 0.0
C452 C 0.9151 0.93514 0.47162 0.0
O453 O 0.89971 0.93001 0.47966 0.0
O454 O 0.92104 0.94701 0.48796 0.0
O455 O 0.8924 0.94577 0.55262 0.0
O456 O 0.87217 0.96038 0.57475 0.0
O457 O 0.89492 0.97476 0.49029 0.0
C458 C 0.91796 0.98623 0.56449 0.0
C459 C 0.8767 0.9484 0.55753 0.0
Zn460 Zn 0.28809 0.65572 0.85626 0.0
Zn461 Zn 0.28957 0.65815 0.74546 0.0
C462 C 0.30919 0.67483 0.89564 0.0
O463 O 0.31483 0.6608 0.90062 0.0
C464 C 0.28088 0.62859 0.70217 0.0
O465 O 0.28415 0.61379 0.699 0.0
O466 O 0.27609 0.6464 0.89897 0.0
O467 O 0.27266 0.65532 0.81201 0.0
O468 O 0.26574 0.6647 0.76065 0.0
C469 C 0.26111 0.6515 0.90382 0.0
O470 O 0.25442 0.66015 0.87906 0.0
O471 O 0.29662 0.6766 0.87466 0.0
C472 C 0.3068 0.66932 0.68121 0.0
O473 O 0.30606 0.65462 0.67226 0.0
O474 O 0.30066 0.67363 0.71111 0.0
O475 O 0.30202 0.65854 0.79295 0.0
O476 O 0.30933 0.64442 0.83786 0.0
O477 O 0.28884 0.63623 0.72632 0.0
C478 C 0.26405 0.66492 0.79446 0.0
C479 C 0.31167 0.64833 0.80549 0.0
Zn480 Zn 0.4476 0.07997 0.60895 0.0
Zn481 Zn 0.45116 0.07431 0.49601 0.0
C482 C 0.42048 0.07054 0.65486 0.0
O483 O 0.42301 0.08488 0.6657 0.0
C484 C 0.46817 0.07301 0.43372 0.0
O485 O 0.46509 0.05875 0.44395 0.0
O486 O 0.46254 0.08513 0.65081 0.0
O487 O 0.46334 0.06876 0.57355 0.0
O488 O 0.46956 0.06228 0.51784 0.0
C489 C 0.46546 0.07384 0.67125 0.0
O490 O 0.45805 0.0604 0.66459 0.0
O491 O 0.42868 0.06578 0.62762 0.0
C492 C 0.42421 0.06356 0.44985 0.0
O493 O 0.42361 0.07837 0.44248 0.0
O494 O 0.43348 0.05926 0.47564 0.0
O495 O 0.44446 0.0865 0.53929 0.0
O496 O 0.43842 0.09964 0.58698 0.0
O497 O 0.46293 0.08407 0.45341 0.0
C498 C 0.47291 0.06193 0.55102 0.0
C499 C 0.43969 0.09904 0.55327 0.0
Zn500 Zn 0.67073 0.67212 0.37657 0.0
Zn501 Zn 0.67413 0.67216 0.26289 0.0
C502 C 0.69372 0.65189 0.41337 0.0
O503 O 0.68074 0.64212 0.41134 0.0
C504 C 0.67255 0.69667 0.2143 0.0
O505 O 0.68879 0.69702 0.22295 0.0
O506 O 0.65943 0.68384 0.41792 0.0
O507 O 0.67745 0.6869 0.3368 0.0
O508 O 0.69292 0.68311 0.28857 0.0
C509 C 0.6565 0.69829 0.41693 0.0
O510 O 0.65807 0.70552 0.38641 0.0
O511 O 0.6926 0.66495 0.39844 0.0
C512 C 0.68331 0.65427 0.20033 0.0
O513 O 0.66915 0.6601 0.18795 0.0
O514 O 0.68683 0.65614 0.23325 0.0
O515 O 0.66069 0.66627 0.30636 0.0
O516 O 0.65757 0.65307 0.35463 0.0
O517 O 0.66263 0.68699 0.22957 0.0
C518 C 0.69197 0.68673 0.32155 0.0
C519 C 0.65681 0.65357 0.32068 0.0
Zn520 Zn 0.03221 0.89881 0.10676 0.0
Zn521 Zn 0.02536 0.90477 0.99292 0.0
C522 C 0.06154 0.91366 0.14213 0.0
O523 O 0.06834 0.8999 0.13955 0.0
C524 C 0.00608 0.90675 0.9345 0.0
O525 O 0.00805 0.92068 0.94829 0.0
O526 O 0.01754 0.89153 0.14815 0.0
O527 O 0.0182 0.9082 0.06863 0.0
O528 O 0.0074 0.91683 0.01962 0.0
C529 C 0.00137 0.8927 0.14852 0.0
O530 O 0.99349 0.89635 0.11899 0.0
O531 O 0.04702 0.91583 0.1282 0.0
C532 C 0.05488 0.91529 0.95274 0.0
O533 O 0.05733 0.90038 0.9493 0.0
O534 O 0.04262 0.91997 0.97216 0.0
O535 O 0.0363 0.89172 0.03145 0.0
O536 O 0.0463 0.88218 0.08094 0.0
O537 O 0.01323 0.89542 0.94974 0.0
C538 C 0.00738 0.91654 0.05348 0.0
C539 C 0.0457 0.88204 0.04684 0.0
Zn540 Zn 0.84865 0.29329 0.85752 0.0
Zn541 Zn 0.83927 0.29399 0.74706 0.0
C542 C 0.8306 0.31489 0.90018 0.0
O543 O 0.846 0.32106 0.90228 0.0
C544 C 0.84277 0.26569 0.70708 0.0
O545 O 0.83121 0.26084 0.72997 0.0
O546 O 0.85881 0.28097 0.89854 0.0
O547 O 0.83959 0.27834 0.81854 0.0
O548 O 0.82142 0.28319 0.77535 0.0
C549 C 0.84911 0.26961 0.90715 0.0
O550 O 0.83547 0.26674 0.88782 0.0
O551 O 0.82824 0.30298 0.88063 0.0
C552 C 0.83197 0.31377 0.68832 0.0
O553 O 0.84582 0.3074 0.67545 0.0
O554 O 0.82725 0.31057 0.71988 0.0
O555 O 0.85405 0.30045 0.7876 0.0
O556 O 0.86327 0.31148 0.83561 0.0
O557 O 0.84935 0.27912 0.71106 0.0
C558 C 0.82432 0.27864 0.80694 0.0
C559 C 0.86084 0.3122 0.80212 0.0
Zn560 Zn 0.38716 0.95491 0.1205 0.0
Zn561 Zn 0.39493 0.9537 0.00754 0.0
C562 C 0.35915 0.96805 0.16934 0.0
O563 O 0.34267 0.96775 0.17596 0.0
C564 C 0.41112 0.93582 0.9561 0.0
O565 O 0.39499 0.93522 0.94662 0.0
O566 O 0.40225 0.94016 0.14753 0.0
O567 O 0.38221 0.94756 0.07214 0.0
O568 O 0.37936 0.93524 0.02262 0.0
C569 C 0.39728 0.93196 0.17367 0.0
O570 O 0.38114 0.9322 0.18316 0.0
O571 O 0.36472 0.95921 0.14477 0.0
C572 C 0.39708 0.97501 0.95208 0.0
O573 O 0.41284 0.97358 0.96309 0.0
O574 O 0.38533 0.96728 0.96781 0.0
O575 O 0.40299 0.96753 0.05118 0.0
O576 O 0.40138 0.9736 0.10897 0.0
O577 O 0.41516 0.94327 0.98436 0.0
C578 C 0.37732 0.9355 0.05613 0.0
C579 C 0.40777 0.97587 0.07795 0.0
Zn580 Zn 0.82824 0.67713 0.75285 0.0
Zn581 Zn 0.81311 0.66615 0.85455 0.0
C582 C 0.80429 0.65577 0.71409 0.0
O583 O 0.81243 0.64407 0.72776 0.0
C584 C 0.81749 0.68898 0.90476 0.0
O585 O 0.80099 0.68637 0.90172 0.0
O586 O 0.84047 0.69291 0.7223 0.0
O587 O 0.81877 0.68615 0.79839 0.0
O588 O 0.79653 0.67996 0.83108 0.0
C589 C 0.83905 0.70735 0.72771 0.0
O590 O 0.83153 0.71218 0.75698 0.0
O591 O 0.80883 0.66948 0.72233 0.0
C592 C 0.80578 0.64948 0.9188 0.0
O593 O 0.82176 0.65335 0.92523 0.0
O594 O 0.7997 0.65204 0.88795 0.0
O595 O 0.82333 0.65719 0.80872 0.0
O596 O 0.84406 0.66059 0.77066 0.0
O597 O 0.82757 0.68099 0.88543 0.0
C598 C 0.80282 0.68657 0.80381 0.0
C599 C 0.83893 0.65563 0.80078 0.0
Zn600 Zn 0.08788 0.02161 0.59667 0.0
Zn601 Zn 0.09798 0.02511 0.50924 0.0
C602 C 0.10098 0.01147 0.6631 0.0
O603 O 0.10236 0.02643 0.66887 0.0
C604 C 0.08754 0.05174 0.47007 0.0
O605 O 0.10402 0.05293 0.46388 0.0
O606 O 0.06754 0.03124 0.62204 0.0
O607 O 0.10697 0.03621 0.59032 0.0
O608 O 0.11787 0.03615 0.5351 0.0
C609 C 0.06526 0.04554 0.62829 0.0
O610 O 0.07532 0.0558 0.61296 0.0
O611 O 0.09655 0.00648 0.63249 0.0
C612 C 0.09017 0.00812 0.44857 0.0
O613 O 0.07542 0.01267 0.46129 0.0
O614 O 0.10372 0.0121 0.46528 0.0
O615 O 0.08361 0.01088 0.54448 0.0
O616 O 0.08332 0.01076 0.54664 0.0
O617 O 0.08208 0.0413 0.49102 0.0
C618 C 0.11834 0.04033 0.56792 0.0
C619 C 0.07347 -5e-05 0.53526 0.0
Zn620 Zn 0.69765 0.32569 0.36076 0.0
Zn621 Zn 0.69761 0.33462 0.25113 0.0
C622 C 0.71788 0.33039 0.41724 0.0
O623 O 0.71824 0.3155 0.41001 0.0
C624 C 0.66819 0.32125 0.2156 0.0
O625 O 0.66415 0.33579 0.21118 0.0
O626 O 0.68193 0.30968 0.38473 0.0
O627 O 0.69094 0.33647 0.31763 0.0
O628 O 0.68238 0.35092 0.27538 0.0
C629 C 0.6745 0.31398 0.41337 0.0
O630 O 0.67579 0.32856 0.42322 0.0
O631 O 0.70836 0.33901 0.39891 0.0
C632 C 0.71445 0.33104 0.1865 0.0
O633 O 0.71037 0.31684 0.19563 0.0
O634 O 0.71034 0.34214 0.20724 0.0
O635 O 0.71497 0.32264 0.28182 0.0
O636 O 0.71729 0.31552 0.33869 0.0
O637 O 0.68138 0.31813 0.23354 0.0
C638 C 0.68117 0.34691 0.30762 0.0
C639 C 0.72313 0.31612 0.30695 0.0
H640 H 0.06537 0.45507 0.16441 0.0
H641 H 0.07656 0.47232 0.2113 0.0
H642 H 0.09628 0.4331 0.26705 0.0
H643 H 0.08513 0.41578 0.22059 0.0
H644 H 0.07438 0.45299 0.30802 0.0
H645 H 0.12609 0.48585 0.23857 0.0
H646 H 0.10562 0.48476 0.21702 0.0
H647 H 0.11788 0.46756 0.22178 0.0
C648 C 0.07241 0.45014 0.18625 0.0
C649 C 0.07434 0.43403 0.18875 0.0
C650 C 0.07882 0.46003 0.21299 0.0
C651 C 0.08733 0.45399 0.24252 0.0
C652 C 0.08978 0.43799 0.24442 0.0
H653 H 0.12181 0.48401 0.45051 0.0
H654 H 0.11611 0.46995 0.39484 0.0
C655 C 0.08342 0.42811 0.21778 0.0
C656 C 0.09252 0.46405 0.27295 0.0
H657 H 0.12042 0.49277 0.29849 0.0
C658 C 0.08448 0.46166 0.30597 0.0
C659 C 0.10543 0.47556 0.26998 0.0
C660 C 0.11438 0.4786 0.23503 0.0
C661 C 0.08914 0.47035 0.33627 0.0
C662 C 0.10261 0.48138 0.33374 0.0
C663 C 0.11031 0.48411 0.30047 0.0
C664 C 0.10871 0.49019 0.36548 0.0
C665 C 0.07936 0.4678 0.37055 0.0
C666 C 0.10763 0.50636 0.36663 0.0
C667 C 0.11117 0.51447 0.39826 0.0
C668 C 0.11577 0.50651 0.42932 0.0
C669 C 0.11815 0.49046 0.4272 0.0
C670 C 0.11473 0.48239 0.3955 0.0
H671 H 0.06659 0.46246 0.36551 0.0
H672 H 0.08656 0.45985 0.38777 0.0
H673 H 0.07761 0.47884 0.38536 0.0
H674 H 0.10318 0.51262 0.34365 0.0
H675 H 0.10925 0.52684 0.39888 0.0
H676 H 0.67795 0.82978 0.63602 0.0
H677 H 0.69565 0.83293 0.5832 0.0
H678 H 0.73453 0.85582 0.64661 0.0
H679 H 0.7171 0.85188 0.7004 0.0
H680 H 0.70757 0.85619 0.54804 0.0
H681 H 0.76274 0.8238 0.59963 0.0
H682 H 0.74268 0.82456 0.62313 0.0
H683 H 0.75775 0.84044 0.62632 0.0
C684 C 0.69022 0.83559 0.63885 0.0
C685 C 0.69614 0.84054 0.67252 0.0
C686 C 0.70037 0.83737 0.60849 0.0
C687 C 0.71662 0.84435 0.61082 0.0
C688 C 0.72228 0.84997 0.64419 0.0
H689 H 0.78817 0.86229 0.43437 0.0
H690 H 0.76962 0.86621 0.48647 0.0
C691 C 0.71224 0.84787 0.67488 0.0
C692 C 0.72748 0.84544 0.5782 0.0
H693 H 0.76606 0.83519 0.54296 0.0
C694 C 0.72039 0.85167 0.5471 0.0
C695 C 0.74419 0.83936 0.57664 0.0
C696 C 0.75224 0.83152 0.60808 0.0
C697 C 0.72943 0.85182 0.51465 0.0
C698 C 0.74606 0.84588 0.51338 0.0
C699 C 0.75333 0.83993 0.54436 0.0
C700 C 0.75572 0.84462 0.47955 0.0
C701 C 0.72106 0.85794 0.48161 0.0
C702 C 0.75373 0.83135 0.45818 0.0
C703 C 0.76444 0.82897 0.42884 0.0
C704 C 0.77729 0.83987 0.42024 0.0
C705 C 0.77852 0.85363 0.44044 0.0
C706 C 0.76793 0.8559 0.47017 0.0
H707 H 0.70851 0.86322 0.48748 0.0
H708 H 0.72953 0.8667 0.46883 0.0
H709 H 0.71912 0.84833 0.46213 0.0
H710 H 0.74433 0.82255 0.46504 0.0
H711 H 0.76304 0.81832 0.41362 0.0
H712 H 0.4236 0.59 0.7467 0.0
H713 H 0.40878 0.57203 0.786 0.0
H714 H 0.3981 0.5417 0.69653 0.0
H715 H 0.41381 0.5594 0.65708 0.0
H716 H 0.37791 0.56021 0.79242 0.0
H717 H 0.42246 0.51257 0.75952 0.0
H718 H 0.42594 0.53198 0.74382 0.0
H719 H 0.41039 0.51949 0.72254 0.0
C720 C 0.41794 0.57961 0.73518 0.0
C721 C 0.42009 0.57603 0.69882 0.0
C722 C 0.40943 0.56931 0.75776 0.0
C723 C 0.40265 0.55529 0.74448 0.0
C724 C 0.40369 0.55219 0.70766 0.0
H725 H 0.37218 0.48126 0.89484 0.0
H726 H 0.36932 0.49703 0.84071 0.0
C727 C 0.41252 0.56239 0.68507 0.0
C728 C 0.39547 0.54379 0.76997 0.0
H729 H 0.40263 0.50813 0.80501 0.0
C730 C 0.38312 0.54872 0.79472 0.0
C731 C 0.40223 0.52874 0.77309 0.0
C732 C 0.41608 0.52288 0.74858 0.0
C733 C 0.37816 0.53944 0.82359 0.0
C734 C 0.38554 0.52479 0.82754 0.0
C735 C 0.3969 0.51935 0.80153 0.0
C736 C 0.38432 0.51629 0.86148 0.0
C737 C 0.36577 0.54565 0.8508 0.0
C738 C 0.39347 0.52204 0.89093 0.0
C739 C 0.39533 0.51304 0.92121 0.0
C740 C 0.38784 0.49824 0.92282 0.0
C741 C 0.37779 0.49278 0.89428 0.0
C742 C 0.37623 0.50171 0.86345 0.0
H743 H 0.35807 0.55517 0.8398 0.0
H744 H 0.35704 0.53633 0.86038 0.0
H745 H 0.37299 0.55026 0.87411 0.0
H746 H 0.40001 0.53315 0.88968 0.0
H747 H 0.40325 0.51739 0.94285 0.0
H748 H 0.75481 0.13416 0.18892 0.0
H749 H 0.73513 0.1292 0.13879 0.0
H750 H 0.75701 0.16811 0.08284 0.0
H751 H 0.77629 0.17328 0.13272 0.0
H752 H 0.71348 0.15847 0.11511 0.0
H753 H 0.75085 0.1289 0.00893 0.0
H754 H 0.75506 0.12635 0.05594 0.0
H755 H 0.76144 0.14395 0.03444 0.0
C756 C 0.75567 0.14134 0.16544 0.0
C757 C 0.76692 0.15412 0.16453 0.0
C758 C 0.74447 0.13853 0.13699 0.0
C759 C 0.74481 0.14823 0.10719 0.0
C760 C 0.75675 0.16041 0.10548 0.0
H761 H 0.69561 0.17783 0.92208 0.0
H762 H 0.71514 0.16726 0.966 0.0
C763 C 0.76767 0.16338 0.134 0.0
C764 C 0.73129 0.14732 0.08004 0.0
H765 H 0.72483 0.1404 0.99142 0.0
C766 C 0.71569 0.15419 0.08821 0.0
C767 C 0.73457 0.14205 0.04504 0.0
C768 C 0.75135 0.13481 0.03535 0.0
C769 C 0.70354 0.15677 0.06167 0.0
C770 C 0.70684 0.15167 0.02626 0.0
C771 C 0.72222 0.14416 0.01855 0.0
C772 C 0.69533 0.15555 0.99642 0.0
C773 C 0.68795 0.16598 0.07146 0.0
C774 C 0.67782 0.15186 0.99785 0.0
C775 C 0.66662 0.15825 0.97334 0.0
C776 C 0.67286 0.1679 0.94623 0.0
C777 C 0.69052 0.17034 0.94267 0.0
C778 C 0.70167 0.16431 0.96778 0.0
H779 H 0.68958 0.17228 0.09722 0.0
H780 H 0.68504 0.17455 0.05054 0.0
H781 H 0.6768 0.15802 0.07427 0.0
H782 H 0.67272 0.14468 0.01897 0.0
H783 H 0.65303 0.15611 0.97629 0.0
H784 H 0.90546 0.57301 0.88493 0.0
H785 H 0.89748 0.55605 0.83516 0.0
H786 H 0.90896 0.51617 0.89818 0.0
H787 H 0.91725 0.53313 0.94836 0.0
H788 H 0.92262 0.53398 0.80559 0.0
H789 H 0.86129 0.50617 0.84683 0.0
H790 H 0.86847 0.52464 0.86459 0.0
H791 H 0.87816 0.5072 0.87939 0.0
C792 C 0.90601 0.56063 0.88866 0.0
C793 C 0.9121 0.55449 0.92082 0.0
C794 C 0.90143 0.55093 0.86002 0.0
C795 C 0.90254 0.53483 0.86289 0.0
C796 C 0.90781 0.52856 0.89546 0.0
H797 H 0.89962 0.45793 0.7134 0.0
H798 H 0.89696 0.47476 0.76617 0.0
C799 C 0.91258 0.53829 0.92414 0.0
C800 C 0.89996 0.52483 0.83065 0.0
H801 H 0.8739 0.49703 0.79328 0.0
C802 C 0.91191 0.52597 0.8028 0.0
C803 C 0.88603 0.51434 0.82711 0.0
C804 C 0.87263 0.51298 0.85588 0.0
C805 C 0.91054 0.51671 0.77187 0.0
C806 C 0.89654 0.50625 0.76808 0.0
C807 C 0.88453 0.50512 0.79596 0.0
C808 C 0.89484 0.49588 0.73614 0.0
C809 C 0.92445 0.51786 0.74402 0.0
C810 C 0.89366 0.502 0.70158 0.0
C811 C 0.89505 0.49236 0.67142 0.0
C812 C 0.89739 0.47641 0.67532 0.0
C813 C 0.89744 0.47016 0.70976 0.0
C814 C 0.89603 0.47978 0.73989 0.0
H815 H 0.9362 0.52353 0.75475 0.0
H816 H 0.9278 0.50623 0.73357 0.0
H817 H 0.9199 0.52485 0.72139 0.0
H818 H 0.89252 0.51435 0.69794 0.0
H819 H 0.89536 0.49748 0.64516 0.0
H820 H 0.18159 0.14073 0.64459 0.0
H821 H 0.20095 0.13909 0.59353 0.0
H822 H 0.24408 0.14561 0.66344 0.0
H823 H 0.22478 0.1473 0.71484 0.0
H824 H 0.22412 0.16383 0.57449 0.0
H825 H 0.25787 0.10882 0.59784 0.0
H826 H 0.23768 0.11318 0.61874 0.0
H827 H 0.25703 0.12203 0.63511 0.0
C828 C 0.19521 0.1415 0.64932 0.0
C829 C 0.2016 0.14416 0.68393 0.0
C830 C 0.20626 0.14062 0.62001 0.0
C831 C 0.22396 0.14218 0.62462 0.0
C832 C 0.23047 0.14417 0.65927 0.0
H833 H 0.31112 0.15006 0.48305 0.0
H834 H 0.29152 0.14654 0.53309 0.0
C835 C 0.21941 0.14513 0.68866 0.0
C836 C 0.23543 0.14287 0.59295 0.0
H837 H 0.26822 0.1245 0.5508 0.0
C838 C 0.23369 0.15518 0.56913 0.0
C839 C 0.24802 0.13167 0.58624 0.0
C840 C 0.25026 0.11809 0.61062 0.0
C841 C 0.24437 0.15674 0.53912 0.0
C842 C 0.25684 0.14541 0.53207 0.0
C843 C 0.25858 0.1331 0.55597 0.0
C844 C 0.26866 0.14647 0.50088 0.0
C845 C 0.24257 0.17081 0.51599 0.0
C846 C 0.26243 0.14711 0.46579 0.0
C847 C 0.27366 0.14917 0.43693 0.0
C848 C 0.29136 0.15049 0.44259 0.0
C849 C 0.29758 0.14911 0.4776 0.0
C850 C 0.28636 0.14711 0.50636 0.0
H851 H 0.23586 0.18027 0.53023 0.0
H852 H 0.25523 0.17525 0.50705 0.0
H853 H 0.23498 0.16764 0.492 0.0
H854 H 0.24885 0.14628 0.46074 0.0
H855 H 0.26842 0.15018 0.41037 0.0
H856 H 0.60238 0.52329 0.20756 0.0
H857 H 0.58559 0.50898 0.25231 0.0
H858 H 0.61545 0.46843 0.23126 0.0
H859 H 0.63191 0.4826 0.18616 0.0
H860 H 0.57725 0.46392 0.23967 0.0
H861 H 0.60934 0.49691 0.34963 0.0
H862 H 0.59984 0.50748 0.3138 0.0
H863 H 0.6183 0.49602 0.30522 0.0
C864 C 0.60479 0.51116 0.21141 0.0
C865 C 0.61807 0.5039 0.19274 0.0
C866 C 0.59545 0.50307 0.23743 0.0
C867 C 0.59934 0.48766 0.24518 0.0
C868 C 0.6122 0.48029 0.22561 0.0
H869 H 0.57405 0.41181 0.38205 0.0
H870 H 0.58406 0.42954 0.33594 0.0
C871 C 0.62158 0.48838 0.19988 0.0
C872 C 0.59094 0.47934 0.27507 0.0
H873 H 0.59159 0.47602 0.36582 0.0
C874 C 0.58021 0.46664 0.26729 0.0
C875 C 0.59472 0.48302 0.31106 0.0
C876 C 0.60623 0.49655 0.32074 0.0
C877 C 0.57344 0.4573 0.29453 0.0
C878 C 0.57803 0.46041 0.33049 0.0
C879 C 0.58822 0.47351 0.33832 0.0
C880 C 0.57293 0.44988 0.36007 0.0
C881 C 0.56136 0.44425 0.28439 0.0
C882 C 0.56427 0.45552 0.3903 0.0
C883 C 0.55886 0.44541 0.41726 0.0
C884 C 0.56195 0.42947 0.41437 0.0
C885 C 0.57129 0.42399 0.38489 0.0
C886 C 0.57686 0.43411 0.35826 0.0
H887 H 0.5547 0.44666 0.25895 0.0
H888 H 0.56871 0.4335 0.28045 0.0
H889 H 0.55161 0.44219 0.30546 0.0
H890 H 0.56127 0.46767 0.39257 0.0
H891 H 0.55165 0.44998 0.43958 0.0
H892 H 0.30472 0.81791 0.21312 0.0
H893 H 0.28195 0.82477 0.17168 0.0
H894 H 0.31972 0.83751 0.09294 0.0
H895 H 0.34231 0.82975 0.13283 0.0
H896 H 0.27285 0.85086 0.13297 0.0
H897 H 0.2926 0.80348 0.04276 0.0
H898 H 0.30045 0.80542 0.08779 0.0
H899 H 0.31011 0.81642 0.05227 0.0
C900 C 0.30818 0.82243 0.18719 0.0
C901 C 0.3254 0.82335 0.17638 0.0
C902 C 0.29514 0.82633 0.16357 0.0
C903 C 0.29916 0.8313 0.12899 0.0
C904 C 0.31633 0.83335 0.11924 0.0
H905 H 0.25792 0.8553 0.92966 0.0
H906 H 0.27386 0.85288 0.98517 0.0
C907 C 0.32929 0.82917 0.14241 0.0
C908 C 0.28568 0.83345 0.10195 0.0
H909 H 0.27497 0.82284 0.01698 0.0
C910 C 0.27315 0.84465 0.10773 0.0
C911 C 0.28581 0.82499 0.06945 0.0
C912 C 0.29784 0.81178 0.06285 0.0
C913 C 0.26153 0.84839 0.0807 0.0
C914 C 0.26264 0.84077 0.04728 0.0
C915 C 0.27449 0.82896 0.04236 0.0
C916 C 0.25214 0.84504 0.01626 0.0
C917 C 0.24857 0.86078 0.08753 0.0
C918 C 0.23453 0.84195 0.01576 0.0
C919 C 0.22535 0.84345 0.98409 0.0
C920 C 0.23371 0.84783 0.95232 0.0
C921 C 0.25112 0.85186 0.95357 0.0
C922 C 0.26025 0.85045 0.98526 0.0
H923 H 0.25118 0.86729 0.11266 0.0
H924 H 0.24835 0.86902 0.06502 0.0
H925 H 0.23569 0.85534 0.08965 0.0
H926 H 0.22809 0.83754 0.03925 0.0
H927 H 0.21194 0.84018 0.98403 0.0
H928 H 0.58747 0.99031 0.96163 0.0
H929 H 0.59022 0.97559 0.90598 0.0
H930 H 0.61208 0.01569 0.85469 0.0
H931 H 0.60951 0.03049 0.9109 0.0
H932 H 0.57189 0.99237 0.84226 0.0
H933 H 0.63843 0.97252 0.82005 0.0
H934 H 0.62973 0.97406 0.86463 0.0
H935 H 0.63434 0.99123 0.83989 0.0
C936 C 0.59361 -0.00425 0.93893 0.0
C937 C 0.59847 0.01141 0.94041 0.0
C938 C 0.59509 0.98738 0.90717 0.0
C939 C 0.60131 0.99458 0.87634 0.0
C940 C 0.60743 0.00992 0.8784 0.0
H941 H 0.56836 0.95752 0.66728 0.0
H942 H 0.57857 0.97602 0.71283 0.0
C943 C 0.60609 0.0183 0.91046 0.0
C944 C 0.59855 0.98684 0.84148 0.0
H945 H 0.61743 0.96372 0.7791 0.0
C946 C 0.58187 0.98631 0.828 0.0
C947 C 0.6116 0.97889 0.82341 0.0
C948 C 0.62959 0.97911 0.8375 0.0
C949 C 0.57775 0.97758 0.79743 0.0
C950 C 0.59074 0.96933 0.77954 0.0
C951 C 0.60754 0.97019 0.79259 0.0
C952 C 0.58665 0.9585 0.74971 0.0
C953 C 0.55935 0.97656 0.78569 0.0
C954 C 0.58839 0.94258 0.75478 0.0
C955 C 0.58267 0.93203 0.72887 0.0
C956 C 0.57509 0.93716 0.69719 0.0
C957 C 0.5741 0.95317 0.69135 0.0
C958 C 0.57986 0.96375 0.71743 0.0
H959 H 0.55053 0.98151 0.8059 0.0
H960 H 0.55783 0.98305 0.76054 0.0
H961 H 0.55548 0.96435 0.78047 0.0
H962 H 0.59356 0.93826 0.77948 0.0
H963 H 0.58369 0.91981 0.73431 0.0
H964 H 0.30219 0.3553 0.97741 0.0
H965 H 0.28206 0.35729 0.02724 0.0
H966 H 0.24214 0.33765 0.96136 0.0
H967 H 0.26221 0.33545 0.91146 0.0
H968 H 0.25002 0.37165 0.03697 0.0
H969 H 0.24453 0.30769 0.04588 0.0
H970 H 0.26089 0.31723 0.01975 0.0
H971 H 0.2395 0.31538 0.0029 0.0
C972 C 0.28907 0.3516 0.9733 0.0
C973 C 0.28389 0.34508 0.94045 0.0
C974 C 0.27756 0.35275 0.00188 0.0
C975 C 0.26067 0.34732 0.99833 0.0
C976 C 0.2552 0.34163 0.96497 0.0
H977 H 0.17402 0.34411 0.14341 0.0
H978 H 0.193 0.34785 0.09217 0.0
C979 C 0.26667 0.34052 0.93632 0.0
C980 C 0.24908 0.34692 0.02994 0.0
H981 H 0.22672 0.32224 0.08423 0.0
C982 C 0.24493 0.36085 0.04728 0.0
C983 C 0.24256 0.3328 0.04368 0.0
C984 C 0.24718 0.3174 0.02736 0.0
C985 C 0.23424 0.36102 0.07756 0.0
C986 C 0.22762 0.34694 0.09091 0.0
C987 C 0.23181 0.33302 0.07379 0.0
C988 C 0.21625 0.34637 0.12265 0.0
C989 C 0.22997 0.3762 0.09526 0.0
C990 C 0.22307 0.34458 0.15692 0.0
C991 C 0.21226 0.34242 0.18641 0.0
C992 C 0.19441 0.34199 0.18212 0.0
C993 C 0.18768 0.34443 0.14785 0.0
C994 C 0.19849 0.34653 0.11843 0.0
H995 H 0.23602 0.38621 0.08154 0.0
H996 H 0.21592 0.37768 0.09552 0.0
H997 H 0.2343 0.37613 0.12344 0.0
H998 H 0.23677 0.34439 0.16067 0.0
H999 H 0.2179 0.34054 0.21232 0.0
H1000 H 0.93151 0.04223 0.17793 0.0
H1001 H 0.92004 0.02542 0.22442 0.0
H1002 H 0.89852 0.06497 0.27809 0.0
H1003 H 0.9107 0.08192 0.23244 0.0
H1004 H 0.91486 0.04927 0.32353 0.0
H1005 H 0.87479 0.0074 0.24835 0.0
H1006 H 0.89611 0.00781 0.23097 0.0
H1007 H 0.88317 0.02482 0.22835 0.0
C1008 C 0.92396 0.04731 0.19914 0.0
C1009 C 0.92197 0.06342 0.20144 0.0
C1010 C 0.91732 0.03764 0.22573 0.0
C1011 C 0.90815 0.04382 0.25471 0.0
C1012 C 0.90551 0.05986 0.25608 0.0
H1013 H 0.86244 0.98086 0.41393 0.0
H1014 H 0.86619 -0.00065 0.36478 0.0
C1015 C 0.91242 0.06955 0.22987 0.0
C1016 C 0.90284 0.03388 0.28529 0.0
H1017 H 0.8836 -0.00053 0.3069 0.0
C1018 C 0.90778 0.03849 0.31984 0.0
C1019 C 0.8934 0.01989 0.28089 0.0
C1020 C 0.88641 0.01479 0.24516 0.0
C1021 C 0.90399 0.02942 0.34977 0.0
C1022 C 0.89564 0.01488 0.34507 0.0
C1023 C 0.8902 0.01047 0.31068 0.0
C1024 C 0.89302 0.0039 0.37519 0.0
C1025 C 0.90882 0.03574 0.38611 0.0
C1026 C 0.90679 8e-05 0.39712 0.0
C1027 C 0.90448 0.99009 0.42576 0.0
C1028 C 0.88849 0.98313 0.43237 0.0
C1029 C 0.87481 0.98632 0.40967 0.0
C1030 C 0.877 -0.00321 0.38154 0.0
H1031 H 0.90888 0.04858 0.38644 0.0
H1032 H 0.89994 0.03158 0.40717 0.0
H1033 H 0.92194 0.03206 0.3927 0.0
H1034 H 0.91946 0.00471 0.39194 0.0
H1035 H 0.91539 0.98741 0.44217 0.0
H1036 H 0.19775 0.68674 0.43512 0.0
H1037 H 0.21839 0.68076 0.48162 0.0
H1038 H 0.18039 0.65275 0.53519 0.0
H1039 H 0.15954 0.65901 0.48926 0.0
H1040 H 0.19742 0.67218 0.5816 0.0
H1041 H 0.24385 0.64113 0.49579 0.0
H1042 H 0.23934 0.6604 0.48171 0.0
H1043 H 0.22276 0.6458 0.48055 0.0
C1044 C 0.19386 0.67909 0.45645 0.0
C1045 C 0.17702 0.67324 0.4583 0.0
C1046 C 0.20569 0.67569 0.48309 0.0
C1047 C 0.20103 0.66617 0.51179 0.0
C1048 C 0.1843 0.66014 0.51336 0.0
H1049 H 0.26143 0.6136 0.65264 0.0
H1050 H 0.24237 0.62441 0.60876 0.0
C1051 C 0.17242 0.66365 0.48695 0.0
C1052 C 0.21344 0.66258 0.54046 0.0
H1053 H 0.25142 0.64502 0.55602 0.0
C1054 C 0.20926 0.66628 0.57602 0.0
C1055 C 0.22892 0.65492 0.53319 0.0
C1056 C 0.23397 0.6502 0.49581 0.0
C1057 C 0.21992 0.66221 0.60449 0.0
C1058 C 0.23526 0.65436 0.59717 0.0
C1059 C 0.23965 0.65105 0.56158 0.0
C1060 C 0.24623 0.64814 0.62587 0.0
C1061 C 0.21438 0.66581 0.6422 0.0
C1062 C 0.25465 0.65786 0.65061 0.0
C1063 C 0.26558 0.65163 0.6762 0.0
C1064 C 0.26847 0.63562 0.67723 0.0
C1065 C 0.25971 0.62599 0.65272 0.0
C1066 C 0.24877 0.63216 0.62744 0.0
H1067 H 0.2008 0.66928 0.64362 0.0
H1068 H 0.21616 0.65566 0.65962 0.0
H1069 H 0.22235 0.67549 0.65294 0.0
H1070 H 0.25309 0.67026 0.64966 0.0
H1071 H 0.272 0.65942 0.69445 0.0
H1072 H 0.39892 0.0671 0.40078 0.0
H1073 H 0.39142 0.04964 0.35131 0.0
H1074 H 0.42916 0.01744 0.3867 0.0
H1075 H 0.43605 0.03446 0.43712 0.0
H1076 H 0.41048 0.04102 0.29718 0.0
H1077 H 0.3908 0.98798 0.36972 0.0
H1078 H 0.3941 0.00628 0.39224 0.0
H1079 H 0.41203 0.99451 0.38021 0.0
C1080 C 0.4053 0.05611 0.39851 0.0
C1081 C 0.41791 0.05208 0.42316 0.0
C1082 C 0.4011 0.04618 0.37006 0.0
C1083 C 0.40957 0.03208 0.3653 0.0
C1084 C 0.42205 0.02798 0.39018 0.0
H1085 H 0.39276 0.96432 0.18911 0.0
H1086 H 0.40864 0.9799 0.23362 0.0
C1087 C 0.42601 0.03776 0.41906 0.0
C1088 C 0.40584 0.02217 0.33337 0.0
H1089 H 0.3925 0.98601 0.30694 0.0
C1090 C 0.4066 0.02898 0.29944 0.0
C1091 C 0.401 0.00635 0.33602 0.0
C1092 C 0.39927 -0.00163 0.37151 0.0
C1093 C 0.40211 0.02062 0.26846 0.0
C1094 C 0.39677 0.00502 0.27134 0.0
C1095 C 0.39677 -0.00205 0.30487 0.0
C1096 C 0.38863 -0.00339 0.24106 0.0
C1097 C 0.40269 0.0286 0.23288 0.0
C1098 C 0.37232 0.00097 0.23021 0.0
C1099 C 0.36323 0.99201 0.20546 0.0
C1100 C 0.37028 0.97856 0.19065 0.0
C1101 C 0.38703 0.97463 0.19995 0.0
C1102 C 0.39607 0.98349 0.22542 0.0
H1103 H 0.41088 0.03919 0.23371 0.0
H1104 H 0.40751 0.02069 0.21174 0.0
H1105 H 0.38958 0.032 0.22545 0.0
H1106 H 0.36629 0.01095 0.24216 0.0
H1107 H 0.35038 -0.00462 0.19874 0.0
H1108 H 0.81396 0.6473 0.98949 0.0
H1109 H 0.79433 0.64502 0.04017 0.0
H1110 H 0.75176 0.64128 0.96802 0.0
H1111 H 0.77125 0.64357 0.91698 0.0
H1112 H 0.75625 0.66773 0.03491 0.0
H1113 H 0.75765 0.60461 0.06325 0.0
H1114 H 0.77665 0.61487 0.04869 0.0
H1115 H 0.75948 0.61154 0.01804 0.0
C1116 C 0.80046 0.64569 0.98425 0.0
C1117 C 0.7942 0.64562 0.94904 0.0
C1118 C 0.78927 0.64443 0.01332 0.0
C1119 C 0.77164 0.64299 0.00776 0.0
C1120 C 0.76536 0.64235 0.97277 0.0
H1121 H 0.67916 0.64632 0.13024 0.0
H1122 H 0.70153 0.64247 0.08546 0.0
C1123 C 0.77653 0.64361 0.94365 0.0
C1124 C 0.75966 0.64316 0.03845 0.0
H1125 H 0.73924 0.61982 0.09864 0.0
C1126 C 0.75257 0.65729 0.04896 0.0
C1127 C 0.75504 0.62953 0.0568 0.0
C1128 C 0.76254 0.6142 0.04637 0.0
C1129 C 0.74071 0.65807 0.07709 0.0
C1130 C 0.73575 0.64437 0.09491 0.0
C1131 C 0.74308 0.63028 0.08485 0.0
C1132 C 0.72235 0.64458 0.12293 0.0
C1133 C 0.73336 0.67348 0.08755 0.0
C1134 C 0.72668 0.64656 0.159 0.0
C1135 C 0.71389 0.64868 0.18478 0.0
C1136 C 0.69659 0.64898 0.17479 0.0
C1137 C 0.69234 0.64621 0.13883 0.0
C1138 C 0.7051 0.64401 0.11319 0.0
H1139 H 0.7392 0.68318 0.07234 0.0
H1140 H 0.71938 0.67328 0.08276 0.0
H1141 H 0.73537 0.67566 0.11649 0.0
H1142 H 0.73995 0.64708 0.16697 0.0
H1143 H 0.71764 0.65089 0.21216 0.0
H1144 H 0.08462 0.91033 0.91626 0.0
H1145 H 0.09805 0.92711 0.87175 0.0
H1146 H 0.05918 0.96112 0.89012 0.0
H1147 H 0.0462 0.94475 0.93559 0.0
H1148 H 0.08565 0.93506 0.81163 0.0
H1149 H 0.09951 0.98911 0.88545 0.0
H1150 H 0.09374 0.97142 0.9079 0.0
H1151 H 0.07746 0.9839 0.89092 0.0
C1152 C 0.07919 0.92156 0.91141 0.0
C1153 C 0.06437 0.92623 0.92954 0.0
C1154 C 0.08686 0.93113 0.88589 0.0
C1155 C 0.0798 0.94552 0.87778 0.0
C1156 C 0.06523 0.95033 0.89654 0.0
H1157 H 0.07849 0.988 0.67332 0.0
H1158 H 0.07525 0.97192 0.7259 0.0
C1159 C 0.05773 0.94089 0.92245 0.0
C1160 C 0.0865 0.95474 0.84734 0.0
H1161 H 0.09602 0.99161 0.82147 0.0
C1162 C 0.08823 0.94738 0.81399 0.0
C1163 C 0.09025 0.97077 0.85028 0.0
C1164 C 0.09033 0.97919 0.8857 0.0
C1165 C 0.09278 0.95568 0.78334 0.0
C1166 C 0.09494 0.97195 0.78572 0.0
C1167 C 0.09408 0.9792 0.81935 0.0
C1168 C 0.09721 0.9817 0.75355 0.0
C1169 C 0.09525 0.94682 0.74886 0.0
C1170 C 0.11009 0.9932 0.75212 0.0
C1171 C 0.11155 0.00285 0.72245 0.0
C1172 C 0.10043 0.00087 0.69348 0.0
C1173 C 0.0876 0.9894 0.69486 0.0
C1174 C 0.0858 0.98013 0.72487 0.0
H1175 H 0.09975 0.93493 0.754 0.0
H1176 H 0.08283 0.94569 0.73484 0.0
H1177 H 0.10459 0.95268 0.73101 0.0
H1178 H 0.11893 0.9948 0.77405 0.0
H1179 H 0.12136 0.01182 0.72208 0.0
H1180 H 0.75056 0.32298 0.42689 0.0
H1181 H 0.7684 0.32913 0.47846 0.0
H1182 H 0.72835 0.35712 0.52293 0.0
H1183 H 0.71039 0.35114 0.47043 0.0
H1184 H 0.77837 0.35984 0.51448 0.0
H1185 H 0.73761 0.31879 0.59254 0.0
H1186 H 0.73762 0.31839 0.5444 0.0
H1187 H 0.72785 0.33409 0.56787 0.0
C1188 C 0.74572 0.33074 0.44728 0.0
C1189 C 0.72918 0.33657 0.44506 0.0
C1190 C 0.75592 0.33428 0.47658 0.0
C1191 C 0.74962 0.34348 0.50442 0.0
C1192 C 0.73338 0.35001 0.50153 0.0
H1193 H 0.80303 0.32949 0.70635 0.0
H1194 H 0.78238 0.34081 0.66555 0.0
C1195 C 0.72321 0.34666 0.47167 0.0
C1196 C 0.75958 0.34453 0.53764 0.0
H1197 H 0.76451 0.32532 0.61581 0.0
C1198 C 0.77517 0.35266 0.5372 0.0
C1199 C 0.75532 0.33511 0.56704 0.0
C1200 C 0.73872 0.32602 0.5683 0.0
C1201 C 0.78711 0.35095 0.56461 0.0
C1202 C 0.78347 0.34053 0.59261 0.0
C1203 C 0.76733 0.33326 0.59429 0.0
C1204 C 0.79681 0.33552 0.61778 0.0
C1205 C 0.80374 0.35991 0.56261 0.0
C1206 C 0.8118 0.32887 0.60449 0.0
C1207 C 0.82364 0.32254 0.62765 0.0
C1208 C 0.8206 0.32245 0.6646 0.0
C1209 C 0.80576 0.32942 0.67801 0.0
C1210 C 0.79395 0.33588 0.65476 0.0
H1211 H 0.80205 0.37108 0.54873 0.0
H1212 H 0.80909 0.36228 0.58954 0.0
H1213 H 0.81312 0.35312 0.54699 0.0
H1214 H 0.81403 0.32798 0.57603 0.0
H1215 H 0.83482 0.3171 0.61638 0.0
H1216 H 0.16107 0.35015 0.28293 0.0
H1217 H 0.14352 0.35994 0.23478 0.0
H1218 H 0.09975 0.33512 0.27666 0.0
H1219 H 0.11726 0.32558 0.32578 0.0
H1220 H 0.12774 0.33779 0.18755 0.0
H1221 H 0.08218 0.37886 0.25061 0.0
H1222 H 0.10189 0.37362 0.27184 0.0
H1223 H 0.08425 0.36017 0.27071 0.0
C1224 C 0.1476 0.34713 0.28229 0.0
C1225 C 0.14041 0.33709 0.30746 0.0
C1226 C 0.13766 0.35267 0.25493 0.0
C1227 C 0.12053 0.34806 0.25234 0.0
C1228 C 0.11299 0.33879 0.27867 0.0
H1229 H 0.06029 0.36029 0.06112 0.0
H1230 H 0.07819 0.34709 0.10468 0.0
C1231 C 0.12293 0.33341 0.30653 0.0
C1232 C 0.11123 0.35186 0.22009 0.0
H1233 H 0.08035 0.37511 0.18862 0.0
C1234 C 0.11727 0.34586 0.18758 0.0
C1235 C 0.09765 0.36231 0.22085 0.0
C1236 C 0.0911 0.36923 0.25528 0.0
C1237 C 0.11047 0.35065 0.15522 0.0
C1238 C 0.09724 0.36145 0.15599 0.0
C1239 C 0.09066 0.36687 0.18857 0.0
C1240 C 0.0905 0.3682 0.12356 0.0
C1241 C 0.1179 0.34476 0.12061 0.0
C1242 C 0.09221 0.3842 0.11925 0.0
C1243 C 0.08182 0.39167 0.09533 0.0
C1244 C 0.06997 0.3831 0.07518 0.0
C1245 C 0.06954 0.36694 0.07655 0.0
C1246 C 0.07974 0.35945 0.10115 0.0
H1247 H 0.12961 0.33793 0.12484 0.0
H1248 H 0.10832 0.33727 0.10683 0.0
H1249 H 0.12104 0.35457 0.10273 0.0
H1250 H 0.10051 0.39103 0.13653 0.0
H1251 H 0.08222 0.40419 0.09427 0.0
H1252 H 0.87774 0.91749 0.55719 0.0
H1253 H 0.86437 0.90032 0.51334 0.0
H1254 H 0.83548 0.93839 0.47277 0.0
H1255 H 0.84922 0.95582 0.51676 0.0
H1256 H 0.8315 0.89186 0.49233 0.0
H1257 H 0.86628 0.92576 0.38837 0.0
H1258 H 0.87094 0.92795 0.4352 0.0
H1259 H 0.85187 0.936 0.41721 0.0
C1260 C 0.86806 0.92207 0.53978 0.0
C1261 C 0.86447 0.9379 0.54008 0.0
C1262 C 0.86049 0.91229 0.51467 0.0
C1263 C 0.84927 0.9182 0.48938 0.0
C1264 C 0.84437 0.93373 0.49178 0.0
H1265 H 0.82621 0.86575 0.29354 0.0
H1266 H 0.82889 0.88705 0.33705 0.0
C1267 C 0.85197 0.94359 0.51716 0.0
C1268 C 0.84451 0.90827 0.45868 0.0
H1269 H 0.8542 0.90205 0.37094 0.0
C1270 C 0.83614 0.89419 0.46557 0.0
C1271 C 0.85079 0.91133 0.42397 0.0
C1272 C 0.86056 0.92602 0.41552 0.0
C1273 C 0.83446 0.88278 0.43908 0.0
C1274 C 0.84142 0.88554 0.40474 0.0
C1275 C 0.84895 0.89996 0.39729 0.0
C1276 C 0.84166 0.87338 0.37675 0.0
C1277 C 0.8256 0.86777 0.4487 0.0
C1278 C 0.84887 0.85899 0.38386 0.0
C1279 C 0.84713 0.84686 0.3594 0.0
C1280 C 0.83878 0.84913 0.32689 0.0
C1281 C 0.83297 0.86388 0.31827 0.0
C1282 C 0.83433 0.87595 0.34321 0.0
H1283 H 0.81595 0.86954 0.47007 0.0
H1284 H 0.81922 0.86239 0.4253 0.0
H1285 H 0.83516 0.8596 0.45895 0.0
H1286 H 0.85514 0.85692 0.40903 0.0
H1287 H 0.85158 0.8355 0.36656 0.0
H1288 H 0.32767 0.62042 0.81399 0.0
H1289 H 0.34976 0.60946 0.7745 0.0
H1290 H 0.3462 0.64901 0.7059 0.0
H1291 H 0.32483 0.66008 0.74524 0.0
H1292 H 0.34549 0.61308 0.6761 0.0
H1293 H 0.39934 0.63625 0.75866 0.0
H1294 H 0.38028 0.62832 0.77922 0.0
H1295 H 0.37947 0.64647 0.75673 0.0
C1296 C 0.33157 0.62665 0.79033 0.0
C1297 C 0.3243 0.64093 0.78213 0.0
C1298 C 0.34407 0.62039 0.76787 0.0
C1299 C 0.34935 0.62843 0.73732 0.0
C1300 C 0.34205 0.64259 0.72915 0.0
H1301 H 0.43594 0.63579 0.60166 0.0
H1302 H 0.41086 0.63924 0.64014 0.0
C1303 C 0.32973 0.64882 0.75146 0.0
C1304 C 0.36314 0.62278 0.71429 0.0
H1305 H 0.406 0.62663 0.70165 0.0
C1306 C 0.3588 0.61574 0.68171 0.0
C1307 C 0.38029 0.62665 0.72176 0.0
C1308 C 0.38528 0.63484 0.75597 0.0
C1309 C 0.37123 0.61297 0.65552 0.0
C1310 C 0.38846 0.61709 0.66271 0.0
C1311 C 0.39279 0.62357 0.69604 0.0
C1312 C 0.40225 0.61534 0.63595 0.0
C1313 C 0.36558 0.60641 0.61993 0.0
C1314 C 0.40541 0.60093 0.61996 0.0
C1315 C 0.4194 0.59914 0.59729 0.0
C1316 C 0.4307 0.61157 0.59137 0.0
C1317 C 0.42736 0.62607 0.60634 0.0
C1318 C 0.41313 0.62798 0.62831 0.0
H1319 H 0.35179 0.60836 0.61517 0.0
H1320 H 0.37298 0.6116 0.59764 0.0
H1321 H 0.36756 0.59374 0.6196 0.0
H1322 H 0.39754 0.59091 0.62615 0.0
H1323 H 0.42188 0.58786 0.58576 0.0
H1324 H 0.61971 0.14988 0.80206 0.0
H1325 H 0.61707 0.12834 0.84425 0.0
H1326 H 0.62644 0.16015 0.9316 0.0
H1327 H 0.62685 0.18157 0.89034 0.0
H1328 H 0.63742 0.11532 0.88551 0.0
H1329 H 0.58862 0.13934 0.97504 0.0
H1330 H 0.59407 0.1486 0.93376 0.0
H1331 H 0.60621 0.15269 0.97386 0.0
C1332 C 0.62066 0.15224 0.83041 0.0
C1333 C 0.62377 0.16737 0.84302 0.0
C1334 C 0.61939 0.13992 0.8545 0.0
C1335 C 0.62138 0.14255 0.89145 0.0
C1336 C 0.62433 0.15773 0.90361 0.0
H1337 H 0.64033 0.06461 0.04034 0.0
H1338 H 0.64604 0.08627 -0.00075 0.0
C1339 C 0.62493 0.16998 0.87987 0.0
C1340 C 0.62088 0.12959 0.91747 0.0
H1341 H 0.60616 0.11986 6e-05 0.0
C1342 C 0.6303 0.11618 0.91028 0.0
C1343 C 0.61162 0.13059 0.94995 0.0
C1344 C 0.59944 0.14352 0.95829 0.0
C1345 C 0.63046 0.10373 0.93425 0.0
C1346 C 0.62179 0.1051 0.96732 0.0
C1347 C 0.61294 0.11875 0.9749 0.0
C1348 C 0.61937 0.09196 0.99243 0.0
C1349 C 0.63931 0.08907 0.92324 0.0
C1350 C 0.60272 0.08836 0.00359 0.0
C1351 C 0.59963 0.07664 0.02776 0.0
C1352 C 0.61295 0.06757 0.0406 0.0
C1353 C 0.62978 0.07119 0.03022 0.0
C1354 C 0.63299 0.08343 0.00641 0.0
H1355 H 0.64174 0.08862 0.89403 0.0
H1356 H 0.65181 0.08854 0.93697 0.0
H1357 H 0.6316 0.07872 0.93071 0.0
H1358 H 0.59192 0.09463 0.99347 0.0
H1359 H 0.58654 0.07458 0.03608 0.0
H1360 H 0.14696 0.56442 0.54162 0.0
H1361 H 0.151 0.58673 0.50188 0.0
H1362 H 0.09706 0.59584 0.50823 0.0
H1363 H 0.09316 0.57383 0.54807 0.0
H1364 H 0.13566 0.58942 0.43597 0.0
H1365 H 0.11787 0.63867 0.52326 0.0
H1366 H 0.12295 0.6199 0.54065 0.0
H1367 H 0.10207 0.62344 0.52292 0.0
C1368 C 0.13615 0.57151 0.53515 0.0
C1369 C 0.11983 0.56771 0.54797 0.0
C1370 C 0.1384 0.58413 0.51243 0.0
C1371 C 0.12436 0.59306 0.50257 0.0
C1372 C 0.10813 0.58939 0.51625 0.0
H1373 H 0.10331 0.66187 0.34215 0.0
H1374 H 0.10151 0.64 0.38388 0.0
C1375 C 0.1059 0.57682 0.53882 0.0
C1376 C 0.12625 0.60536 0.47564 0.0
H1377 H 0.11833 0.64343 0.46046 0.0
C1378 C 0.13205 0.60127 0.44141 0.0
C1379 C 0.12144 0.62077 0.48282 0.0
C1380 C 0.11589 0.62601 0.51951 0.0
C1381 C 0.13284 0.61215 0.41393 0.0
C1382 C 0.12764 0.62743 0.42095 0.0
C1383 C 0.12203 0.63159 0.45519 0.0
C1384 C 0.12871 0.6395 0.39352 0.0
C1385 C 0.13898 0.60729 0.37742 0.0
C1386 C 0.14459 0.64619 0.3851 0.0
C1387 C 0.14558 0.65859 0.36168 0.0
C1388 C 0.13073 0.66444 0.34634 0.0
C1389 C 0.11489 0.65743 0.35369 0.0
C1390 C 0.11386 0.64505 0.37747 0.0
H1391 H 0.14055 0.59457 0.37514 0.0
H1392 H 0.12987 0.61105 0.35672 0.0
H1393 H 0.15148 0.61299 0.37184 0.0
H1394 H 0.15614 0.64211 0.39748 0.0
H1395 H 0.15792 0.66384 0.35605 0.0
H1396 H 0.55616 0.86154 0.54738 0.0
H1397 H 0.56807 0.84216 0.58755 0.0
H1398 H 0.58071 0.87828 0.66359 0.0
H1399 H 0.56938 0.89749 0.62342 0.0
H1400 H 0.60281 0.84329 0.61283 0.0
H1401 H 0.55637 0.84467 0.72406 0.0
H1402 H 0.55109 0.85066 0.67937 0.0
H1403 H 0.56209 0.86375 0.7094 0.0
C1404 C 0.56135 0.86524 0.57286 0.0
C1405 C 0.56154 0.88092 0.58296 0.0
C1406 C 0.56801 0.85421 0.5957 0.0
C1407 C 0.57474 0.85883 0.62876 0.0
C1408 C 0.57499 0.87448 0.63865 0.0
H1409 H 0.6552 0.85065 0.75984 0.0
H1410 H 0.63545 0.85171 0.70964 0.0
C1411 C 0.56849 0.88543 0.61586 0.0
C1412 C 0.58327 0.84785 0.65196 0.0
H1413 H 0.58587 0.83959 0.74011 0.0
C1414 C 0.5989 0.84191 0.64042 0.0
C1415 C 0.57795 0.84595 0.68764 0.0
C1416 C 0.56085 0.85147 0.70074 0.0
C1417 C 0.61028 0.83567 0.66483 0.0
C1418 C 0.60582 0.83558 0.70139 0.0
C1419 C 0.58936 0.83985 0.71208 0.0
C1420 C 0.61862 0.83355 0.72943 0.0
C1421 C 0.62734 0.83014 0.65152 0.0
C1422 C 0.61536 0.82339 0.75763 0.0
C1423 C 0.62629 0.8232 0.7868 0.0
C1424 C 0.64066 0.83306 0.7878 0.0
C1425 C 0.64414 0.84297 0.75934 0.0
C1426 C 0.63304 0.84338 0.73051 0.0
H1427 H 0.62613 0.82492 0.62443 0.0
H1428 H 0.63632 0.84014 0.64953 0.0
H1429 H 0.63287 0.82151 0.66969 0.0
H1430 H 0.60417 0.81587 0.75739 0.0
H1431 H 0.62356 0.81531 0.80843 0.0
H1432 H 0.36213 0.41992 0.0815 0.0
H1433 H 0.35226 0.39961 0.03992 0.0
H1434 H 0.34581 0.43373 0.95812 0.0
H1435 H 0.35589 0.45395 -0.00087 0.0
H1436 H 0.32035 0.40561 0.96227 0.0
H1437 H 0.39027 0.39449 0.95593 0.0
H1438 H 0.38003 0.39445 -0.00097 0.0
H1439 H 0.38194 0.41212 0.97467 0.0
C1440 C 0.35789 0.42313 0.05513 0.0
C1441 C 0.35988 0.43838 0.04314 0.0
C1442 C 0.35234 0.41155 0.03147 0.0
C1443 C 0.34852 0.41528 0.99608 0.0
C1444 C 0.3487 0.43074 0.98542 0.0
H1445 H 0.33285 0.3702 0.79188 0.0
H1446 H 0.33791 0.3894 0.83978 0.0
C1447 C 0.35447 0.44223 0.00878 0.0
C1448 C 0.34746 0.4032 0.96844 0.0
H1449 H 0.37273 0.38078 0.91561 0.0
C1450 C 0.33172 0.40004 0.95219 0.0
C1451 C 0.36244 0.39617 0.95542 0.0
C1452 C 0.37969 0.39946 0.97191 0.0
C1453 C 0.33057 0.38991 0.92288 0.0
C1454 C 0.34563 0.38325 0.90919 0.0
C1455 C 0.3613 0.38619 0.92594 0.0
C1456 C 0.3452 0.37243 0.87878 0.0
C1457 C 0.31327 0.38632 0.90696 0.0
C1458 C 0.34861 0.35684 0.88464 0.0
C1459 C 0.34583 0.34603 0.85758 0.0
C1460 C 0.33987 0.35072 0.8242 0.0
C1461 C 0.33777 0.36646 0.81731 0.0
C1462 C 0.34039 0.37732 0.84467 0.0
H1463 H 0.30273 0.38962 0.92526 0.0
H1464 H 0.31188 0.39286 0.88183 0.0
H1465 H 0.31194 0.37382 0.90044 0.0
H1466 H 0.3524 0.35292 0.91079 0.0
H1467 H 0.34729 0.33387 0.86341 0.0
H1468 H 0.82918 0.15959 0.26787 0.0
H1469 H 0.85162 0.15321 0.22582 0.0
H1470 H 0.85217 0.10662 0.26622 0.0
H1471 H 0.8283 0.11291 0.30679 0.0
H1472 H 0.88251 0.14514 0.23736 0.0
H1473 H 0.84958 0.09827 0.16039 0.0
H1474 H 0.83849 0.11038 0.19196 0.0
H1475 H 0.8514 0.09481 0.20737 0.0
C1476 C 0.83363 0.14785 0.26673 0.0
C1477 C 0.82652 0.13656 0.28897 0.0
C1478 C 0.8467 0.14426 0.24328 0.0
C1479 C 0.85333 0.12934 0.24222 0.0
C1480 C 0.84686 0.11809 0.26582 0.0
H1481 H 0.94848 0.1105 0.13839 0.0
H1482 H 0.92604 0.11814 0.17948 0.0
C1483 C 0.83342 0.12169 0.28916 0.0
C1484 C 0.86728 0.12613 0.21669 0.0
H1485 H 0.87811 0.10425 0.14415 0.0
C1486 C 0.88152 0.13619 0.21695 0.0
C1487 C 0.86583 0.11463 0.18976 0.0
C1488 C 0.85045 0.10398 0.18701 0.0
C1489 C 0.89419 0.13529 0.19073 0.0
C1490 C 0.89302 0.12353 0.16441 0.0
C1491 C 0.8789 0.11333 0.16426 0.0
C1492 C 0.90695 0.12087 0.13852 0.0
C1493 C 0.90847 0.14721 0.19108 0.0
C1494 C 0.90373 0.12006 0.10166 0.0
C1495 C 0.91664 0.11561 0.07794 0.0
C1496 C 0.93276 0.11178 0.09109 0.0
C1497 C 0.93614 0.11344 0.12766 0.0
C1498 C 0.92334 0.11786 0.15117 0.0
H1499 H 0.90433 0.15819 0.20379 0.0
H1500 H 0.91926 0.1428 0.20693 0.0
H1501 H 0.91311 0.14975 0.16372 0.0
H1502 H 0.8911 0.12232 0.09145 0.0
H1503 H 0.91371 0.1142 0.04987 0.0
H1504 H 0.92941 0.62727 0.08164 0.0
H1505 H 0.91416 0.64727 0.04842 0.0
H1506 H 0.89466 0.61223 0.97606 0.0
H1507 H 0.91001 0.59245 0.00831 0.0
H1508 H 0.91941 0.64305 0.95467 0.0
H1509 H 0.85621 0.64918 0.02062 0.0
H1510 H 0.87565 0.64593 0.04528 0.0
H1511 H 0.86558 0.63029 0.02113 0.0
C1512 C 0.92154 0.6239 0.05908 0.0
C1513 C 0.92094 0.60847 0.04703 0.0
C1514 C 0.91292 0.63526 0.04028 0.0
C1515 C 0.90341 0.63108 0.01005 0.0
C1516 C 0.90197 0.61555 -0.00051 0.0
H1517 H 0.83928 0.63334 0.84984 0.0
H1518 H 0.85675 0.63278 0.90366 0.0
C1519 C 0.91077 0.60432 0.01772 0.0
C1520 C 0.89644 0.64266 0.9862 0.0
H1521 H 0.85754 0.6541 0.95797 0.0
C1522 C 0.90604 0.64613 0.95563 0.0
C1523 C 0.87908 0.64649 0.98807 0.0
C1524 C 0.86848 0.6429 0.02064 0.0
C1525 C 0.89809 0.65137 0.92475 0.0
C1526 C 0.88027 0.65364 0.92542 0.0
C1527 C 0.87119 0.65219 0.95761 0.0
C1528 C 0.87035 0.65421 0.89228 0.0
C1529 C 0.90843 0.65267 0.89081 0.0
C1530 C 0.8726 0.66621 0.86777 0.0
C1531 C 0.86308 0.66618 0.83639 0.0
C1532 C 0.85101 0.65435 0.82988 0.0
C1533 C 0.84877 0.64239 0.85433 0.0
C1534 C 0.85855 0.64221 0.88512 0.0
H1535 H 0.92173 0.64867 0.8942 0.0
H1536 H 0.90235 0.64575 0.86908 0.0
H1537 H 0.90899 0.66491 0.8823 0.0
H1538 H 0.88142 0.67569 0.87319 0.0
H1539 H 0.86454 0.67575 0.81812 0.0
H1540 H 0.13353 0.03479 0.6298 0.0
H1541 H 0.14743 0.05379 0.66725 0.0
H1542 H 0.15108 0.08509 0.5782 0.0
H1543 H 0.13496 0.06628 0.54119 0.0
H1544 H 0.17266 0.0697 0.67834 0.0
H1545 H 0.12294 0.11148 0.63738 0.0
H1546 H 0.12292 0.09203 0.62019 0.0
H1547 H 0.13811 0.10617 0.60382 0.0
C1548 C 0.13757 0.04562 0.61788 0.0
C1549 C 0.13265 0.04933 0.5831 0.0
C1550 C 0.14567 0.05653 0.63937 0.0
C1551 C 0.14964 0.07129 0.62624 0.0
C1552 C 0.14729 0.07412 0.58958 0.0
H1553 H 0.18305 0.13423 0.79661 0.0
H1554 H 0.18309 0.11506 0.74878 0.0
C1555 C 0.13846 0.06326 0.56814 0.0
C1556 C 0.15383 0.0837 0.65274 0.0
H1557 H 0.13816 0.11703 0.68882 0.0
C1558 C 0.16513 0.08009 0.68046 0.0
C1559 C 0.14406 0.09735 0.6557 0.0
C1560 C 0.13126 0.10199 0.62787 0.0
C1561 C 0.16562 0.08869 0.71231 0.0
C1562 C 0.1556 0.10208 0.71545 0.0
C1563 C 0.14548 0.10652 0.68662 0.0
C1564 C 0.15562 0.11194 0.74796 0.0
C1565 C 0.176 0.08268 0.74296 0.0
C1566 C 0.14015 0.11652 0.76386 0.0
C1567 C 0.14011 0.12781 0.79089 0.0
C1568 C 0.15555 0.13454 0.80212 0.0
C1569 C 0.17099 0.12912 0.78814 0.0
C1570 C 0.17104 0.11807 0.76101 0.0
H1571 H 0.17767 0.06997 0.74082 0.0
H1572 H 0.18889 0.08816 0.74242 0.0
H1573 H 0.16993 0.0853 0.76908 0.0
H1574 H 0.12808 0.1119 0.75418 0.0
H1575 H 0.12807 0.13202 0.80106 0.0
H1576 H 0.6629 0.32939 0.35143 0.0
H1577 H 0.64149 0.33726 0.39456 0.0
H1578 H 0.6466 0.38445 0.3591 0.0
H1579 H 0.66912 0.37652 0.31658 0.0
H1580 H 0.64463 0.3811 0.43481 0.0
H1581 H 0.59338 0.34807 0.3661 0.0
H1582 H 0.61124 0.33604 0.37517 0.0
H1583 H 0.61373 0.35216 0.34538 0.0
C1584 C 0.65979 0.3415 0.35351 0.0
C1585 C 0.66787 0.35243 0.33169 0.0
C1586 C 0.64737 0.34594 0.37765 0.0
C1587 C 0.64241 0.36137 0.37968 0.0
C1588 C 0.65035 0.37246 0.35774 0.0
H1589 H 0.54881 0.38406 0.48205 0.0
H1590 H 0.57196 0.37786 0.44189 0.0
C1591 C 0.66303 0.36796 0.33347 0.0
C1592 C 0.62861 0.36544 0.40451 0.0
H1593 H 0.58834 0.35424 0.42772 0.0
C1594 C 0.63217 0.37551 0.43311 0.0
C1595 C 0.61243 0.35812 0.4019 0.0
C1596 C 0.60741 0.34813 0.37025 0.0
C1597 C 0.61994 0.37826 0.45975 0.0
C1598 C 0.60407 0.37019 0.45821 0.0
C1599 C 0.60059 0.36023 0.42929 0.0
C1600 C 0.59007 0.37309 0.48382 0.0
C1601 C 0.62404 0.38998 0.48865 0.0
C1602 C 0.59227 0.37194 0.52094 0.0
C1603 C 0.57901 0.37602 0.54421 0.0
C1604 C 0.56341 0.38094 0.53037 0.0
C1605 C 0.56088 0.38074 0.49337 0.0
C1606 C 0.5741 0.37709 0.47037 0.0
H1607 H 0.63462 0.39793 0.48061 0.0
H1608 H 0.61272 0.397 0.49541 0.0
H1609 H 0.62813 0.38387 0.51299 0.0
H1610 H 0.6043 0.36828 0.53189 0.0
H1611 H 0.58121 0.37597 0.57273 0.0
H1612 H 0.38529 0.81456 0.24306 0.0
H1613 H 0.38575 0.83653 0.20225 0.0
H1614 H 0.34706 0.85881 0.2658 0.0
H1615 H 0.34735 0.83727 0.30771 0.0
H1616 H 0.36084 0.84642 0.16163 0.0
H1617 H 0.38031 0.89396 0.25373 0.0
H1618 H 0.38177 0.87389 0.2656 0.0
H1619 H 0.36161 0.88354 0.26806 0.0
C1620 C 0.37715 0.82432 0.24859 0.0
C1621 C 0.36646 0.82437 0.27863 0.0
C1622 C 0.37737 0.83682 0.22528 0.0
C1623 C 0.36662 0.84944 0.2312 0.0
C1624 C 0.35583 0.84944 0.26119 0.0
H1625 H 0.34652 0.92305 0.07589 0.0
H1626 H 0.34188 0.90163 0.11814 0.0
C1627 C 0.35594 0.83711 0.28503 0.0
C1628 C 0.3662 0.86218 0.20497 0.0
H1629 H 0.3723 0.9011 0.19528 0.0
C1630 C 0.36303 0.85839 0.16906 0.0
C1631 C 0.36945 0.8778 0.2147 0.0
C1632 C 0.37363 0.88256 0.25254 0.0
C1633 C 0.363 0.86975 0.14261 0.0
C1634 C 0.36646 0.88526 0.15231 0.0
C1635 C 0.36948 0.88915 0.18816 0.0
C1636 C 0.36879 0.89732 0.12511 0.0
C1637 C 0.35984 0.86513 0.10428 0.0
C1638 C 0.38538 0.90166 0.11486 0.0
C1639 C 0.38797 0.91362 0.09069 0.0
C1640 C 0.37403 0.92141 0.07649 0.0
C1641 C 0.35739 0.91692 0.08613 0.0
C1642 C 0.35477 0.90484 0.11031 0.0
H1643 H 0.35752 0.8525 0.10103 0.0
H1644 H 0.3486 0.87134 0.09405 0.0
H1645 H 0.371 0.86856 0.08766 0.0
H1646 H 0.39632 0.89601 0.1262 0.0
H1647 H 0.40091 0.91716 0.08403 0.0
H1648 H 0.86785 0.40338 0.53817 0.0
H1649 H 0.85948 0.38372 0.58173 0.0
H1650 H 0.8603 0.41863 0.66487 0.0
H1651 H 0.86706 0.43829 0.62076 0.0
H1652 H 0.87903 0.37476 0.62906 0.0
H1653 H 0.82213 0.39442 0.70211 0.0
H1654 H 0.8289 0.40327 0.661 0.0
H1655 H 0.83817 0.40936 0.70298 0.0
C1656 C 0.86513 0.40692 0.56538 0.0
C1657 C 0.86768 0.42234 0.57611 0.0
C1658 C 0.86065 0.39567 0.59045 0.0
C1659 C 0.8592 0.39958 0.62687 0.0
C1660 C 0.86074 0.41523 0.63704 0.0
H1661 H 0.88799 0.33135 0.78669 0.0
H1662 H 0.88776 0.35373 0.74662 0.0
C1663 C 0.86463 0.42653 0.61175 0.0
C1664 C 0.85858 0.38721 0.65439 0.0
H1665 H 0.84015 0.37671 0.73343 0.0
C1666 C 0.8703 0.3751 0.65155 0.0
C1667 C 0.84722 0.38748 0.68387 0.0
C1668 C 0.8333 0.39925 0.68741 0.0
C1669 C 0.87105 0.3634 0.67715 0.0
C1670 C 0.86043 0.36421 0.70774 0.0
C1671 C 0.84859 0.37622 0.71046 0.0
C1672 C 0.86059 0.35216 0.73593 0.0
C1673 C 0.88284 0.35004 0.67034 0.0
C1674 C 0.84528 0.34466 0.74566 0.0
C1675 C 0.84539 0.33235 0.76944 0.0
C1676 C 0.86079 0.32707 0.7834 0.0
C1677 C 0.87599 0.33515 0.77582 0.0
C1678 C 0.87586 0.34775 0.7525 0.0
H1679 H 0.88597 0.34879 0.64153 0.0
H1680 H 0.89499 0.35213 0.68482 0.0
H1681 H 0.87709 0.33897 0.67961 0.0
H1682 H 0.83328 0.34792 0.73382 0.0
H1683 H 0.83346 0.32655 0.77602 0.0
H1684 H 0.36815 0.14389 0.27599 0.0
H1685 H 0.38918 0.13353 0.31739 0.0
H1686 H 0.35312 0.13847 0.40396 0.0
H1687 H 0.33202 0.14791 0.36274 0.0
H1688 H 0.40192 0.15093 0.37112 0.0
H1689 H 0.37309 0.09779 0.42674 0.0
H1690 H 0.3652 0.1064 0.38647 0.0
H1691 H 0.35815 0.1132 0.42962 0.0
C1692 C 0.36458 0.14224 0.30365 0.0
C1693 C 0.34863 0.14696 0.31655 0.0
C1694 C 0.37659 0.13641 0.32719 0.0
C1695 C 0.37264 0.13522 0.36358 0.0
C1696 C 0.35631 0.13898 0.37586 0.0
H1697 H 0.415 0.12025 0.56463 0.0
H1698 H 0.40153 0.13498 0.51726 0.0
C1699 C 0.34432 0.14458 0.35239 0.0
C1700 C 0.38596 0.13209 0.3898 0.0
H1701 H 0.39304 0.11162 0.46502 0.0
C1702 C 0.40018 0.14219 0.39142 0.0
C1703 C 0.3836 0.12066 0.416 0.0
C1704 C 0.36926 0.10882 0.41434 0.0
C1705 C 0.41167 0.14163 0.41987 0.0
C1706 C 0.40864 0.13082 0.4471 0.0
C1707 C 0.39487 0.12031 0.4446 0.0
C1708 C 0.42026 0.12888 0.47715 0.0
C1709 C 0.42671 0.15271 0.42106 0.0
C1710 C 0.43591 0.12183 0.47063 0.0
C1711 C 0.44355 0.1135 0.49755 0.0
C1712 C 0.43544 0.11205 0.53075 0.0
C1713 C 0.42128 0.1211 0.53891 0.0
C1714 C 0.41365 0.12953 0.51199 0.0
H1715 H 0.42499 0.16262 0.40286 0.0
H1716 H 0.42881 0.15718 0.44858 0.0
H1717 H 0.43837 0.14651 0.41263 0.0
H1718 H 0.44115 0.12117 0.44388 0.0
H1719 H 0.45492 0.10705 0.49152 0.0
H1720 H 0.64565 0.5361 0.09739 0.0
H1721 H 0.65779 0.55184 0.14662 0.0
H1722 H 0.622 0.58784 0.12416 0.0
H1723 H 0.60987 0.57216 0.07559 0.0
H1724 H 0.66924 0.58737 0.1489 0.0
H1725 H 0.61288 0.56989 0.23034 0.0
H1726 H 0.62006 0.55879 0.19218 0.0
H1727 H 0.60827 0.57619 0.18589 0.0
C1728 C 0.64086 0.5476 0.10238 0.0
C1729 C 0.62696 0.55306 0.08302 0.0
C1730 C 0.64768 0.55649 0.13048 0.0
C1731 C 0.64055 0.57083 0.13913 0.0
C1732 C 0.62754 0.57673 0.11791 0.0
H1733 H 0.6495 0.65262 0.25047 0.0
H1734 H 0.64835 0.63018 0.21091 0.0
C1735 C 0.62076 0.56788 0.09006 0.0
C1736 C 0.64555 0.57932 0.17177 0.0
H1737 H 0.62886 0.5921 0.25064 0.0
C1738 C 0.66069 0.58812 0.17162 0.0
C1739 C 0.63433 0.58017 0.20132 0.0
C1740 C 0.61802 0.57066 0.20275 0.0
C1741 C 0.66429 0.59867 0.19932 0.0
C1742 C 0.65243 0.60038 0.22755 0.0
C1743 C 0.63793 0.59072 0.22897 0.0
C1744 C 0.65345 0.61368 0.25237 0.0
C1745 C 0.68027 0.60857 0.19713 0.0
C1746 C 0.65617 0.61173 0.28905 0.0
C1747 C 0.65695 0.62465 0.31191 0.0
C1748 C 0.65487 0.63957 0.2982 0.0
C1749 C 0.65152 0.6413 0.26168 0.0
C1750 C 0.65089 0.62851 0.23901 0.0
H1751 H 0.69025 0.60294 0.18063 0.0
H1752 H 0.6771 0.61968 0.18443 0.0
H1753 H 0.68551 0.61112 0.22407 0.0
H1754 H 0.65791 0.60029 0.29981 0.0
H1755 H 0.65947 0.62299 0.34 0.0
H1756 H 0.14923 0.85642 0.79031 0.0
H1757 H 0.12422 0.86371 0.82594 0.0
H1758 H 0.15616 0.86918 0.91888 0.0
H1759 H 0.18101 0.86185 0.8837 0.0
H1760 H 0.11646 0.84393 0.88577 0.0
H1761 H 0.12244 0.90563 0.92605 0.0
H1762 H 0.13294 0.8978 0.88703 0.0
H1763 H 0.14185 0.89504 0.9306 0.0
C1764 C 0.15096 0.85982 0.81797 0.0
C1765 C 0.16692 0.85854 0.83448 0.0
C1766 C 0.13671 0.86388 0.83825 0.0
C1767 C 0.13845 0.867 0.87487 0.0
C1768 C 0.15465 0.86703 0.89053 0.0
H1769 H 0.07836 0.87519 0.06442 0.0
H1770 H 0.10097 0.86857 0.02188 0.0
C1771 C 0.1688 0.86279 0.87048 0.0
C1772 C 0.12336 0.86759 0.89817 0.0
H1773 H 0.10431 0.88961 0.96212 0.0
C1774 C 0.11358 0.85398 0.90212 0.0
C1775 C 0.1199 0.88066 0.91959 0.0
C1776 C 0.12974 0.89567 0.91546 0.0
C1777 C 0.10071 0.85293 0.92801 0.0
C1778 C 0.09756 0.86588 0.95006 0.0
C1779 C 0.10705 0.87962 0.94548 0.0
C1780 C 0.08388 0.86584 0.97696 0.0
C1781 C 0.09091 0.83792 0.93235 0.0
C1782 C 0.06684 0.8657 0.96587 0.0
C1783 C 0.05398 0.86952 0.98996 0.0
C1784 C 0.05807 0.87348 0.02534 0.0
C1785 C 0.07492 0.87208 0.03728 0.0
C1786 C 0.08782 0.86841 0.01303 0.0
H1787 H 0.09735 0.82813 0.91876 0.0
H1788 H 0.08927 0.83514 0.96103 0.0
H1789 H 0.07802 0.83907 0.92057 0.0
H1790 H 0.06362 0.86391 0.93803 0.0
H1791 H 0.04104 0.87056 0.98027 0.0
H1792 H 0.96455 0.54663 0.11065 0.0
H1793 H 0.97664 0.52165 0.12324 0.0
H1794 H 0.01081 0.52692 0.03356 0.0
H1795 H -0.00061 0.55242 0.02237 0.0
H1796 H 0.96618 0.50715 0.06051 0.0
H1797 H 0.03314 0.49256 0.09107 0.0
H1798 H 0.02355 0.5104 0.10583 0.0
H1799 H 0.03149 0.50849 0.06096 0.0
C1800 C 0.97572 0.54313 0.09585 0.0
C1801 C 0.98107 0.55127 0.06561 0.0
C1802 C 0.98256 0.52876 0.10287 0.0
C1803 C 0.99427 0.52238 0.07879 0.0
C1804 C 0.00177 0.53169 0.05245 0.0
H1805 H 0.01776 0.4348 0.99836 0.0
H1806 H 0.00638 0.46061 0.99008 0.0
C1807 C -0.00493 0.54615 0.0457 0.0
C1808 C 0.99319 0.50575 0.0715 0.0
H1809 H 0.0172 0.47413 0.0557 0.0
C1810 C 0.97729 0.49982 0.05998 0.0
C1811 C 0.00774 0.49647 0.07005 0.0
C1812 C 0.02491 0.50226 0.08295 0.0
C1813 C 0.97564 0.48482 0.04631 0.0
C1814 C 0.99024 0.47563 0.04424 0.0
C1815 C 0.0061 0.48148 0.05626 0.0
C1816 C 0.98921 0.45914 0.03529 0.0
C1817 C 0.95838 0.47898 0.03401 0.0
C1818 C 0.98171 0.44935 0.06061 0.0
C1819 C 0.98831 0.43473 0.06546 0.0
C1820 C 0.00225 0.43002 0.04485 0.0
C1821 C 0.00715 0.43844 0.01474 0.0
C1822 C 0.00061 0.45314 0.00996 0.0
H1823 H 0.94987 0.48866 0.02709 0.0
H1824 H 0.95957 0.47117 0.0105 0.0
H1825 H 0.95221 0.47237 0.0559 0.0
H1826 H 0.97291 0.4538 0.08041 0.0
H1827 H 0.98435 0.42821 0.0887 0.0
H1828 H 0.80573 0.7746 0.24362 0.0
H1829 H 0.78279 0.75582 0.23261 0.0
H1830 H 0.74753 0.78557 0.28784 0.0
H1831 H 0.77016 0.80449 0.29715 0.0
H1832 H 0.77838 0.7482 0.30149 0.0
H1833 H 0.71475 0.75606 0.24191 0.0
H1834 H 0.73313 0.76739 0.22801 0.0
H1835 H 0.72112 0.77285 0.26713 0.0
C1836 C 0.79278 0.77764 0.25066 0.0
C1837 C 0.78962 0.7905 0.27243 0.0
C1838 C 0.77964 0.76691 0.2444 0.0
C1839 C 0.76371 0.76901 0.26094 0.0
C1840 C 0.75975 0.78357 0.27518 0.0
H1841 H 0.69109 0.71162 0.36678 0.0
H1842 H 0.71249 0.73238 0.36483 0.0
C1843 C 0.77277 0.79438 0.28082 0.0
C1844 C 0.75497 0.7555 0.27668 0.0
H1845 H 0.71585 0.73979 0.29415 0.0
C1846 C 0.76472 0.74618 0.29923 0.0
C1847 C 0.73713 0.7533 0.27507 0.0
C1848 C 0.726 0.76289 0.25145 0.0
C1849 C 0.75712 0.73473 0.32022 0.0
C1850 C 0.73933 0.73246 0.31838 0.0
C1851 C 0.72952 0.7418 0.29604 0.0
C1852 C 0.73077 0.71903 0.33462 0.0
C1853 C 0.7682 0.72529 0.34434 0.0
C1854 C 0.73487 0.7043 0.32171 0.0
C1855 C 0.72273 0.69245 0.32298 0.0
C1856 C 0.70641 0.69541 0.33665 0.0
C1857 C 0.70351 0.70919 0.35557 0.0
C1858 C 0.71571 0.72107 0.35437 0.0
H1859 H 0.7797 0.73199 0.35296 0.0
H1860 H 0.76112 0.72137 0.36839 0.0
H1861 H 0.77264 0.71494 0.32946 0.0
H1862 H 0.74639 0.70248 0.30632 0.0
H1863 H 0.72528 0.68174 0.30885 0.0
H1864 H 0.5135 0.43016 0.62139 0.0
H1865 H 0.5065 0.4568 0.6382 0.0
H1866 H 0.47759 0.46101 0.54089 0.0
H1867 H 0.48428 0.4347 0.52477 0.0
H1868 H 0.52069 0.47719 0.59399 0.0
H1869 H 0.45217 0.48988 0.60202 0.0
H1870 H 0.45988 0.47042 0.60625 0.0
H1871 H 0.45597 0.47849 0.56284 0.0
C1872 C 0.50492 0.43658 0.60476 0.0
C1873 C 0.49985 0.43079 0.57137 0.0
C1874 C 0.50094 0.45176 0.61428 0.0
C1875 C 0.49169 0.46092 0.5906 0.0
C1876 C 0.48451 0.45417 0.55991 0.0
H1877 H 0.47711 0.55123 0.52066 0.0
H1878 H 0.48661 0.52459 0.51927 0.0
C1879 C 0.48846 0.43913 0.55051 0.0
C1880 C 0.49315 0.47789 0.59221 0.0
H1881 H 0.47035 0.51018 0.57629 0.0
C1882 C 0.50967 0.4845 0.59101 0.0
C1883 C 0.4788 0.48732 0.5877 0.0
C1884 C 0.46074 0.4811 0.59012 0.0
C1885 C 0.51221 0.50018 0.58348 0.0
C1886 C 0.49786 0.50937 0.57725 0.0
C1887 C 0.48137 0.50293 0.58004 0.0
C1888 C 0.49917 0.52604 0.57056 0.0
C1889 C 0.53016 0.50666 0.58106 0.0
C1890 C 0.50448 0.53589 0.59831 0.0
C1891 C 0.49938 0.55122 0.59872 0.0
C1892 C 0.48873 0.55669 0.57165 0.0
C1893 C 0.48546 0.5474 0.54155 0.0
C1894 C 0.49078 0.53212 0.5409 0.0
H1895 H 0.53963 0.4974 0.57658 0.0
H1896 H 0.53135 0.51519 0.55921 0.0
H1897 H 0.53341 0.51265 0.60651 0.0
H1898 H 0.51082 0.53138 0.62155 0.0
H1899 H 0.50227 0.55828 0.62202 0.0
H1900 H 0.6908 0.201 0.76517 0.0
H1901 H 0.71942 0.21261 0.76082 0.0
H1902 H 0.70073 0.25486 0.80747 0.0
H1903 H 0.67209 0.24331 0.81156 0.0
H1904 H 0.73482 0.24941 0.74374 0.0
H1905 H 0.73217 0.22407 0.88013 0.0
H1906 H 0.71999 0.21586 0.84362 0.0
H1907 H 0.71378 0.23389 0.86324 0.0
C1908 C 0.69262 0.21309 0.77224 0.0
C1909 C 0.67945 0.22137 0.78851 0.0
C1910 C 0.70894 0.21966 0.77 0.0
C1911 C 0.71205 0.23445 0.7843 0.0
C1912 C 0.69842 0.24344 0.79622 0.0
H1913 H 0.79741 0.28914 0.8441 0.0
H1914 H 0.7697 0.27571 0.84631 0.0
C1915 C 0.68209 0.2369 0.79829 0.0
C1916 C 0.72948 0.23897 0.79443 0.0
H1917 H 0.75714 0.23801 0.8646 0.0
C1918 C 0.73979 0.24688 0.76999 0.0
C1919 C 0.73574 0.23549 0.82877 0.0
C1920 C 0.72494 0.22682 0.8556 0.0
C1921 C 0.75632 0.25171 0.77937 0.0
C1922 C 0.76248 0.24847 0.81392 0.0
C1923 C 0.75225 0.24037 0.83819 0.0
C1924 C 0.77934 0.2542 0.82514 0.0
C1925 C 0.7671 0.26043 0.7526 0.0
C1926 C 0.79392 0.24603 0.81518 0.0
C1927 C 0.80975 0.25361 0.81448 0.0
C1928 C 0.81092 0.26935 0.8235 0.0
C1929 C 0.79671 0.27692 0.83759 0.0
C1930 C 0.78093 0.2693 0.83865 0.0
H1931 H 0.76028 0.26221 0.72706 0.0
H1932 H 0.77091 0.2719 0.7638 0.0
H1933 H 0.77896 0.25398 0.74698 0.0
H1934 H 0.79279 0.23437 0.80451 0.0
H1935 H 0.82059 0.24772 0.80291 0.0
H1936 H 0.92449 0.49226 0.60739 0.0
H1937 H 0.95353 0.5025 0.61493 0.0
H1938 H 0.96336 0.4946 0.503 0.0
H1939 H 0.9345 0.48404 0.49572 0.0
H1940 H 0.97704 0.4775 0.59452 0.0
H1941 H 0.99314 0.53372 0.53082 0.0
H1942 H 0.97205 0.52914 0.54785 0.0
H1943 H 0.97899 0.52106 0.50608 0.0
C1944 C 0.93255 0.49361 0.58408 0.0
C1945 C 0.92751 0.48734 0.55109 0.0
C1946 C 0.94911 0.49938 0.58843 0.0
C1947 C 0.96051 0.49911 0.55958 0.0
C1948 C 0.95462 0.49502 0.52545 0.0
H1949 H 0.06449 0.4952 0.51128 0.0
H1950 H 0.035 0.4864 0.51827 0.0
C1951 C 0.93811 0.48911 0.52121 0.0
C1952 C 0.97895 0.49911 0.56631 0.0
H1953 H 0.01622 0.51711 0.54362 0.0
C1954 C 0.98565 0.4863 0.58404 0.0
C1955 C 0.98997 0.51046 0.55198 0.0
C1956 C 0.98323 0.52445 0.5333 0.0
C1957 C 0.0033 0.48436 0.58688 0.0
C1958 C 0.01427 0.49552 0.57176 0.0
C1959 C 0.00758 0.50851 0.55488 0.0
C1960 C 0.03288 0.49431 0.57294 0.0
C1961 C 0.0102 0.47023 0.60475 0.0
C1962 C 0.04166 0.50045 0.6024 0.0
C1963 C 0.05849 0.50562 0.59843 0.0
C1964 C 0.06646 0.50483 0.56488 0.0
C1965 C 0.05849 0.49634 0.53724 0.0
C1966 C 0.04168 0.4912 0.54119 0.0
H1967 H -0.00012 0.46232 0.61419 0.0
H1968 H 0.01851 0.46385 0.58579 0.0
H1969 H 0.01821 0.47382 0.62786 0.0
H1970 H 0.03496 0.50288 0.62711 0.0
H1971 H 0.06442 0.51183 0.62029 0.0
H1972 H 0.77522 0.67987 0.76283 0.0
H1973 H 0.75315 0.69843 0.74708 0.0
H1974 H 0.78473 0.73552 0.78988 0.0
H1975 H 0.80666 0.7172 0.80427 0.0
H1976 H 0.73924 0.71105 0.80316 0.0
H1977 H 0.76007 0.75872 0.71653 0.0
H1978 H 0.77121 0.74059 0.7172 0.0
H1979 H 0.77627 0.75573 0.74912 0.0
C1980 C 0.77765 0.69212 0.76694 0.0
C1981 C 0.79247 0.69732 0.78432 0.0
C1982 C 0.76516 0.70267 0.75791 0.0
C1983 C 0.76735 0.71835 0.76711 0.0
C1984 C 0.78294 0.7236 0.78142 0.0
H1985 H 0.72165 0.7968 0.85001 0.0
H1986 H 0.73844 0.77353 0.83944 0.0
C1987 C 0.79547 0.71312 0.78986 0.0
C1988 C 0.75241 0.72825 0.77145 0.0
H1989 H 0.74122 0.76597 0.76675 0.0
C1990 C 0.73935 0.72296 0.79432 0.0
C1991 C 0.75266 0.74375 0.76008 0.0
C1992 C 0.76577 0.74992 0.73408 0.0
C1993 C 0.72743 0.73314 0.80872 0.0
C1994 C 0.72861 0.74886 0.79951 0.0
C1995 C 0.74076 0.7539 0.77446 0.0
C1996 C 0.71752 0.76053 0.81543 0.0
C1997 C 0.71437 0.72721 0.83514 0.0
C1998 C 0.70009 0.76034 0.8075 0.0
C1999 C 0.69048 0.77341 0.81434 0.0
C2000 C 0.69839 0.78678 0.82844 0.0
C2001 C 0.71543 0.7865 0.83929 0.0
C2002 C 0.72495 0.77331 0.83312 0.0
H2003 H 0.71754 0.71554 0.84509 0.0
H2004 H 0.71326 0.73524 0.85827 0.0
H2005 H 0.70172 0.72639 0.82199 0.0
H2006 H 0.69428 0.75068 0.79324 0.0
H2007 H 0.67738 0.77357 0.80518 0.0
H2008 H 0.43395 0.46208 0.09586 0.0
H2009 H 0.46461 0.46666 0.10394 0.0
H2010 H 0.45856 0.51441 0.07518 0.0
H2011 H 0.42792 0.50974 0.06607 0.0
H2012 H 0.47943 0.48301 0.03041 0.0
H2013 H 0.49739 0.50739 0.16361 0.0
H2014 H 0.47988 0.49369 0.15838 0.0
H2015 H 0.47768 0.51309 0.14296 0.0
C2016 C 0.43906 0.47373 0.09318 0.0
C2017 C 0.4288 0.48563 0.08057 0.0
C2018 C 0.45652 0.47629 0.09759 0.0
C2019 C 0.46366 0.49084 0.09007 0.0
C2020 C 0.45311 0.50316 0.08126 0.0
H2021 H 0.56582 0.52549 0.06084 0.0
H2022 H 0.53474 0.52241 0.05735 0.0
C2023 C 0.4357 0.50051 0.07617 0.0
C2024 C 0.48204 0.49234 0.08366 0.0
H2025 H 0.51929 0.50524 0.12042 0.0
C2026 C 0.48822 0.4878 0.05005 0.0
C2027 C 0.4932 0.4987 0.10938 0.0
C2028 C 0.48684 0.50351 0.14575 0.0
C2029 C 0.50551 0.48956 0.04138 0.0
C2030 C 0.51671 0.4959 0.06713 0.0
C2031 C 0.51051 0.50045 0.10076 0.0
C2032 C 0.5351 0.49746 0.06042 0.0
C2033 C 0.51173 0.48489 0.00478 0.0
C2034 C 0.54539 0.48437 0.06183 0.0
C2035 C 0.56308 0.48612 0.06378 0.0
C2036 C 0.5705 0.50094 0.06382 0.0
C2037 C 0.56026 0.51395 0.0597 0.0
C2038 C 0.54259 0.51222 0.05809 0.0
H2039 H 0.50101 0.48224 0.98625 0.0
H2040 H 0.51983 0.49424 0.99324 0.0
H2041 H 0.5197 0.47445 0.00697 0.0
H2042 H 0.53969 0.47292 0.06404 0.0
H2043 H 0.57085 0.47602 0.06771 0.0
H2044 H 0.76426 0.18634 0.3762 0.0
H2045 H 0.75164 0.21169 0.38208 0.0
H2046 H 0.73251 0.20767 0.27454 0.0
H2047 H 0.74445 0.1821 0.26925 0.0
H2048 H 0.77012 0.22842 0.33447 0.0
H2049 H 0.70169 0.2401 0.31486 0.0
H2050 H 0.70907 0.22165 0.33035 0.0
H2051 H 0.70906 0.22596 0.28342 0.0
C2052 C 0.75639 0.19036 0.3548 0.0
C2053 C 0.75602 0.18265 0.32173 0.0
C2054 C 0.74916 0.20491 0.35814 0.0
C2055 C 0.74168 0.21173 0.32832 0.0
C2056 C 0.7383 0.20269 0.29788 0.0
H2057 H 0.72917 0.30076 0.24436 0.0
H2058 H 0.74064 0.27475 0.24351 0.0
C2059 C 0.74534 0.18809 0.29472 0.0
C2060 C 0.743 0.22859 0.32409 0.0
H2061 H 0.72156 0.25971 0.29418 0.0
C2062 C 0.75943 0.23535 0.32626 0.0
C2063 C 0.72918 0.23745 0.31248 0.0
C2064 C 0.71125 0.23091 0.31046 0.0
C2065 C 0.76247 0.25068 0.31633 0.0
C2066 C 0.74871 0.25946 0.30418 0.0
C2067 C 0.73223 0.25278 0.30255 0.0
C2068 C 0.75029 0.27614 0.29749 0.0
C2069 C 0.78041 0.25721 0.31841 0.0
C2070 C 0.75391 0.28601 0.32642 0.0
C2071 C 0.7476 0.30093 0.32672 0.0
C2072 C 0.73727 0.3058 0.29851 0.0
C2073 C 0.73677 0.29712 0.26674 0.0
C2074 C 0.74326 0.28221 0.26629 0.0
H2075 H 0.79002 0.24796 0.31557 0.0
H2076 H 0.78281 0.26601 0.29753 0.0
H2077 H 0.78232 0.26279 0.34491 0.0
H2078 H 0.75935 0.28159 0.35075 0.0
H2079 H 0.74852 0.30766 0.3512 0.0
H2080 H 0.26779 0.30894 0.77279 0.0
H2081 H 0.2451 0.28938 0.76803 0.0
H2082 H 0.28266 0.2535 0.76932 0.0
H2083 H 0.30536 0.27302 0.77414 0.0
H2084 H 0.2419 0.24935 0.73698 0.0
H2085 H 0.25652 0.26888 0.87636 0.0
H2086 H 0.25551 0.28286 0.84116 0.0
H2087 H 0.2727 0.26945 0.84213 0.0
C2088 C 0.27121 0.29692 0.76956 0.0
C2089 C 0.28809 0.2923 0.77454 0.0
C2090 C 0.25828 0.28578 0.76669 0.0
C2091 C 0.26235 0.27014 0.76927 0.0
C2092 C 0.27941 0.26559 0.76739 0.0
H2093 H 0.22284 0.18769 0.8498 0.0
H2094 H 0.24031 0.2111 0.84263 0.0
C2095 C 0.29236 0.27673 0.77019 0.0
C2096 C 0.25007 0.25971 0.78651 0.0
H2097 H 0.23682 0.24848 0.86929 0.0
C2098 C 0.24057 0.24924 0.76579 0.0
C2099 C 0.24863 0.25969 0.82421 0.0
C2100 C 0.25886 0.27077 0.84747 0.0
C2101 C 0.2297 0.23842 0.7821 0.0
C2102 C 0.22852 0.23825 0.81979 0.0
C2103 C 0.23779 0.24889 0.84044 0.0
C2104 C 0.21868 0.22614 0.83774 0.0
C2105 C 0.21989 0.22692 0.75922 0.0
C2106 C 0.20095 0.22738 0.84063 0.0
C2107 C 0.19097 0.21408 0.84514 0.0
C2108 C 0.19883 0.1996 0.84616 0.0
C2109 C 0.21663 0.19878 0.84883 0.0
C2110 C 0.22657 0.21209 0.84462 0.0
H2111 H 0.22236 0.22858 0.73029 0.0
H2112 H 0.22344 0.21497 0.76637 0.0
H2113 H 0.206 0.22806 0.76425 0.0
H2114 H 0.19479 0.23826 0.83549 0.0
H2115 H 0.17723 0.21494 0.84305 0.0
H2116 H 0.18483 0.7122 0.26561 0.0
H2117 H 0.2132 0.72363 0.25626 0.0
H2118 H 0.20305 0.758 0.3374 0.0
H2119 H 0.1749 0.7463 0.34774 0.0
H2120 H 0.23056 0.75361 0.24754 0.0
H2121 H 0.23773 0.72731 0.38145 0.0
H2122 H 0.21937 0.72362 0.35356 0.0
H2123 H 0.22125 0.74143 0.37842 0.0
C2124 C 0.18837 0.72262 0.28024 0.0
C2125 C 0.17806 0.72819 0.30805 0.0
C2126 C 0.20455 0.7291 0.27494 0.0
C2127 C 0.21022 0.74127 0.29704 0.0
C2128 C 0.19887 0.74837 0.32073 0.0
H2129 H 0.30668 0.78225 0.34651 0.0
H2130 H 0.27771 0.77145 0.35038 0.0
C2131 C 0.18285 0.74174 0.32651 0.0
C2132 C 0.22857 0.74441 0.30048 0.0
H2133 H 0.26172 0.74085 0.35848 0.0
C2134 C 0.23743 0.75084 0.27167 0.0
C2135 C 0.23737 0.74045 0.33198 0.0
C2136 C 0.22851 0.73269 0.36303 0.0
C2137 C 0.25497 0.75392 0.27395 0.0
C2138 C 0.26369 0.75019 0.30566 0.0
C2139 C 0.25486 0.7436 0.33431 0.0
C2140 C 0.28188 0.75386 0.30996 0.0
C2141 C 0.26395 0.76147 0.24279 0.0
C2142 C 0.29389 0.74674 0.28783 0.0
C2143 C 0.31034 0.75289 0.2855 0.0
C2144 C 0.31488 0.76605 0.30569 0.0
C2145 C 0.30343 0.77202 0.33091 0.0
C2146 C 0.28691 0.76594 0.33298 0.0
H2147 H 0.2548 0.76633 0.22345 0.0
H2148 H 0.27268 0.77088 0.25212 0.0
H2149 H 0.27171 0.75273 0.22854 0.0
H2150 H 0.29018 0.73719 0.27046 0.0
H2151 H 0.3191 0.74808 0.26608 0.0
H2152 H 0.3182 0.22001 0.30739 0.0
H2153 H 0.30326 0.24386 0.32231 0.0
H2154 H 0.2557 0.22261 0.28889 0.0
H2155 H 0.27051 0.19857 0.27495 0.0
H2156 H 0.27288 0.26321 0.28506 0.0
H2157 H 0.25896 0.2283 0.40575 0.0
H2158 H 0.27729 0.225 0.37741 0.0
H2159 H 0.25647 0.21844 0.3636 0.0
C2160 C 0.3047 0.22072 0.3016 0.0
C2161 C 0.29531 0.20758 0.29048 0.0
C2162 C 0.29623 0.23428 0.31025 0.0
C2163 C 0.27847 0.23469 0.30725 0.0
C2164 C 0.26946 0.22228 0.29155 0.0
H2165 H 0.18759 0.26466 0.33149 0.0
H2166 H 0.21398 0.25201 0.34728 0.0
C2167 C 0.27785 0.20865 0.28351 0.0
C2168 C 0.26889 0.24653 0.32632 0.0
H2169 H 0.24087 0.2498 0.39538 0.0
C2170 C 0.26622 0.26064 0.30978 0.0
C2171 C 0.26057 0.24294 0.35875 0.0
C2172 C 0.26353 0.22789 0.37767 0.0
C2173 C 0.25385 0.27072 0.32286 0.0
C2174 C 0.2443 0.26648 0.35363 0.0
C2175 C 0.24833 0.25304 0.37213 0.0
C2176 C 0.22756 0.27334 0.36042 0.0
C2177 C 0.24989 0.28491 0.30137 0.0
C2178 C 0.22605 0.28929 0.36605 0.0
C2179 C 0.21104 0.29654 0.35624 0.0
C2180 C 0.19742 0.2877 0.34238 0.0
C2181 C 0.19798 0.27158 0.34254 0.0
C2182 C 0.21306 0.26438 0.3516 0.0
H2183 H 0.25772 0.28573 0.27669 0.0
H2184 H 0.23622 0.28482 0.29364 0.0
H2185 H 0.25246 0.29545 0.3177 0.0
H2186 H 0.23705 0.29629 0.37365 0.0
H2187 H 0.21068 0.30906 0.35615 0.0
H2188 H 0.28696 0.68704 0.81111 0.0
H2189 H 0.28108 0.71456 0.81553 0.0
H2190 H 0.22698 0.70442 0.81258 0.0
H2191 H 0.23297 0.67672 0.80759 0.0
H2192 H 0.2389 0.72221 0.7565 0.0
H2193 H 0.26249 0.74614 0.88553 0.0
H2194 H 0.27765 0.7344 0.86222 0.0
H2195 H 0.25819 0.72576 0.87868 0.0
C2196 C 0.27384 0.69067 0.8136 0.0
C2197 C 0.26036 0.67996 0.80983 0.0
C2198 C 0.27048 0.70637 0.81589 0.0
C2199 C 0.25361 0.71144 0.81453 0.0
C2200 C 0.24008 0.70062 0.81383 0.0
H2201 H 0.20241 0.79469 0.79093 0.0
H2202 H 0.21248 0.76876 0.77853 0.0
C2203 C 0.24346 0.68489 0.81126 0.0
C2204 C 0.25031 0.72778 0.80741 0.0
H2205 H 0.25612 0.76414 0.8405 0.0
C2206 C 0.24258 0.73143 0.77488 0.0
C2207 C 0.25558 0.73966 0.83106 0.0
C2208 C 0.26381 0.73632 0.86646 0.0
C2209 C 0.23974 0.74677 0.76547 0.0
C2210 C 0.24456 0.75868 0.78959 0.0
C2211 C 0.25266 0.755 0.82176 0.0
C2212 C 0.23928 0.77479 0.78496 0.0
C2213 C 0.23165 0.75 0.72988 0.0
C2214 C 0.25101 0.78694 0.79144 0.0
C2215 C 0.24516 0.80167 0.79982 0.0
C2216 C 0.22762 0.80435 0.80059 0.0
C2217 C 0.21604 0.79275 0.78988 0.0
C2218 C 0.22182 0.77796 0.78249 0.0
H2219 H 0.23519 0.7411 0.70973 0.0
H2220 H 0.21755 0.7495 0.73283 0.0
H2221 H 0.23542 0.76157 0.71969 0.0
H2222 H 0.26454 0.78468 0.7934 0.0
H2223 H 0.25418 0.81058 0.80826 0.0
H2224 H 0.48077 0.054 0.61941 0.0
H2225 H 0.49212 0.02888 0.63465 0.0
H2226 H 0.50757 0.02213 0.52509 0.0
H2227 H 0.49631 0.04705 0.50995 0.0
H2228 H 0.46979 0.01068 0.59459 0.0
H2229 H 0.5357 0.99032 0.57513 0.0
H2230 H 0.53107 0.01025 0.58584 0.0
H2231 H 0.52975 0.00329 0.54047 0.0
C2232 C 0.48728 0.04746 0.59904 0.0
C2233 C 0.48646 0.05175 0.56312 0.0
C2234 C 0.49402 0.03322 0.60787 0.0
C2235 C 0.49995 0.02345 0.58064 0.0
C2236 C 0.5028 0.0294 0.54646 0.0
H2237 H 0.50112 0.93455 0.51022 0.0
H2238 H 0.48625 0.95896 0.50973 0.0
C2239 C 0.49605 0.0436 0.53766 0.0
C2240 C 0.49647 0.00681 0.58308 0.0
H2241 H 0.51295 0.9721 0.55997 0.0
C2242 C 0.47931 0.00214 0.5879 0.0
C2243 C 0.50879 -0.00413 0.57342 0.0
C2244 C 0.52738 0.0002 0.56874 0.0
C2245 C 0.47405 0.98683 0.58192 0.0
C2246 C 0.48626 0.97609 0.5709 0.0
C2247 C 0.5035 0.98061 0.56734 0.0
C2248 C 0.48228 0.95958 0.56682 0.0
C2249 C 0.45553 0.98227 0.58635 0.0
C2250 C 0.48234 0.95092 0.59815 0.0
C2251 C 0.49112 0.93709 0.59858 0.0
C2252 C 0.49959 0.93206 0.56757 0.0
C2253 C 0.49543 0.93863 0.53473 0.0
C2254 C 0.48665 0.95249 0.53434 0.0
H2255 H 0.44722 0.99248 0.58968 0.0
H2256 H 0.4511 0.97538 0.5629 0.0
H2257 H 0.45407 0.97489 0.61026 0.0
H2258 H 0.47862 0.95611 0.62337 0.0
H2259 H 0.49344 0.93173 0.62409 0.0
H2260 H 0.97843 0.9305 0.03287 0.0
H2261 H 0.97192 0.95707 0.04878 0.0
H2262 H 0.00876 0.95595 0.13391 0.0
H2263 H 0.01525 0.9292 0.11832 0.0
H2264 H 0.96784 0.97997 0.10906 0.0
H2265 H 0.03188 0.97745 0.04342 0.0
H2266 H 0.01784 0.96076 0.04516 0.0
H2267 H 0.02871 0.96734 0.08468 0.0
C2268 C 0.98443 0.93562 0.05625 0.0
C2269 C -0.00211 0.92822 0.07335 0.0
C2270 C 0.98065 0.95077 0.06544 0.0
C2271 C 0.99038 0.95847 0.09154 0.0
C2272 C 0.00138 0.95012 0.11328 0.0
H2273 H 0.00793 0.05633 0.08731 0.0
H2274 H 0.01474 0.0289 0.08863 0.0
C2275 C 0.00508 0.93487 0.10427 0.0
C2276 C 0.99273 0.9752 0.08777 0.0
H2277 H 0.0185 0.00138 0.04521 0.0
C2278 C 0.97902 0.98477 0.09577 0.0
C2279 C 0.00733 0.98122 0.06995 0.0
C2280 C 0.02229 0.97121 0.06006 0.0
C2281 C 0.97933 0.00027 0.08562 0.0
C2282 C 0.99351 0.00604 0.06603 0.0
C2283 C 0.00756 -0.00332 0.05948 0.0
C2284 C 0.99403 0.02204 0.05361 0.0
C2285 C 0.96443 0.0103 0.09569 0.0
C2286 C 0.98137 0.02717 0.03036 0.0
C2287 C 0.97745 0.0428 0.02972 0.0
C2288 C 0.98642 0.05319 0.05181 0.0
C2289 C 0.001 0.04838 0.06991 0.0
C2290 C 0.0048 0.03274 0.07091 0.0
H2291 H 0.95674 0.00519 0.11772 0.0
H2292 H 0.96885 0.02204 0.10402 0.0
H2293 H 0.95595 0.01148 0.07224 0.0
H2294 H 0.97319 0.01895 0.01634 0.0
H2295 H 0.96606 0.04634 0.0159 0.0
H2296 H 0.42584 0.98979 0.13204 0.0
H2297 H 0.45604 -0.00317 0.12923 0.0
H2298 H 0.45544 0.99056 0.01497 0.0
H2299 H 0.42523 0.98382 0.01763 0.0
H2300 H 0.47603 0.97246 0.10401 0.0
H2301 H 0.48969 0.02616 0.02848 0.0
H2302 H 0.46917 0.02215 0.04878 0.0
H2303 H 0.47476 0.0132 0.00697 0.0
C2304 C 0.43192 0.99053 0.10611 0.0
C2305 C 0.42332 0.98563 0.07499 0.0
C2306 C 0.4492 0.99454 0.10461 0.0
C2307 C 0.45798 0.99391 0.072 0.0
C2308 C 0.44889 0.99112 0.04043 0.0
H2309 H 0.56309 -0.00493 0.01182 0.0
H2310 H 0.53392 0.98482 0.01346 0.0
C2311 C 0.43161 0.98713 0.04195 0.0
C2312 C 0.47673 0.99298 0.07171 0.0
H2313 H 0.51286 0.00912 0.03681 0.0
C2314 C 0.48413 0.98055 0.08957 0.0
C2315 C 0.48712 0.00335 0.05224 0.0
C2316 C 0.47982 0.01705 0.03326 0.0
C2317 C 0.50177 0.97821 0.08848 0.0
C2318 C 0.51217 0.98863 0.06926 0.0
C2319 C 0.50475 0.00099 0.05112 0.0
C2320 C 0.53094 0.98814 0.07037 0.0
C2321 C 0.50911 0.96459 0.1076 0.0
C2322 C 0.53934 0.99198 0.10231 0.0
C2323 C 0.55606 -0.00226 0.10142 0.0
C2324 C 0.5643 -0.00011 0.06854 0.0
C2325 C 0.55689 0.9936 0.03747 0.0
C2326 C 0.5402 0.98783 0.03833 0.0
H2327 H 0.49929 0.95543 0.11233 0.0
H2328 H 0.51983 0.95955 0.09218 0.0
H2329 H 0.51411 0.9685 0.13389 0.0
H2330 H 0.53235 0.99239 0.12727 0.0
H2331 H 0.56137 0.0026 0.12567 0.0
H2332 H 0.92228 0.0032 0.62542 0.0
H2333 H 0.94987 0.01367 0.6453 0.0
H2334 H 0.97029 0.00669 0.53941 0.0
H2335 H 0.94318 -0.00452 0.52015 0.0
H2336 H 0.97338 0.98854 0.63515 0.0
H2337 H -0.00023 0.04283 0.57981 0.0
H2338 H 0.97717 0.03984 0.58801 0.0
H2339 H 0.98688 0.03254 0.54773 0.0
C2340 C 0.93248 0.00453 0.6061 0.0
C2341 C 0.93103 -0.00196 0.57174 0.0
C2342 C 0.94813 0.01066 0.61742 0.0
C2343 C 0.96206 0.0108 0.5939 0.0
C2344 C 0.95962 0.00678 0.55789 0.0
H2345 H 0.04597 0.98377 0.51406 0.0
H2346 H 0.01868 0.98298 0.54592 0.0
C2347 C 0.9442 0.00023 0.54694 0.0
C2348 C 0.97948 0.00978 0.60771 0.0
H2349 H 0.01924 0.02071 0.58104 0.0
C2350 C 0.98354 -0.00408 0.62489 0.0
C2351 C 0.9926 0.01941 0.59431 0.0
C2352 C 0.98886 0.03457 0.57672 0.0
C2353 C 0.00021 0.99035 0.62403 0.0
C2354 C 0.01284 -0.0009 0.60644 0.0
C2355 C 0.00926 0.01395 0.59399 0.0
C2356 C 0.02902 0.99245 0.59508 0.0
C2357 C 0.00394 0.9746 0.63862 0.0
C2358 C 0.04382 -0.0033 0.61338 0.0
C2359 C 0.05928 -0.0029 0.59519 0.0
C2360 C 0.06001 0.99361 0.55859 0.0
C2361 C 0.04569 0.98683 0.54216 0.0
C2362 C 0.03014 0.98631 0.56036 0.0
H2363 H 0.99351 0.97031 0.65628 0.0
H2364 H 0.00546 0.9663 0.6161 0.0
H2365 H 0.0161 0.97494 0.65376 0.0
H2366 H 0.04315 0.00141 0.64024 0.0
H2367 H 0.0701 0.00162 0.60893 0.0
H2368 H 0.02121 0.39583 0.89816 0.0
H2369 H 0.00703 0.40003 0.84122 0.0
H2370 H 0.95824 0.40073 0.89475 0.0
H2371 H 0.97231 0.39685 0.95199 0.0
H2372 H 0.98168 0.38409 0.8042 0.0
H2373 H 0.96051 0.44256 0.84492 0.0
H2374 H 0.97606 0.43194 0.86981 0.0
H2375 H 0.95365 0.42772 0.87511 0.0
C2376 C 0.00743 0.39666 0.89781 0.0
C2377 C -0.00212 0.39617 0.92964 0.0
C2378 C -0.00062 0.3991 0.86526 0.0
C2379 C 0.98168 0.40106 0.86403 0.0
C2380 C 0.97199 0.39963 0.89539 0.0
H2381 H 0.90535 0.41648 0.70741 0.0
H2382 H 0.9224 0.40955 0.75908 0.0
C2383 C 0.98003 0.39728 0.92799 0.0
C2384 C 0.97337 0.40501 0.83011 0.0
H2385 H 0.94853 0.43214 0.79129 0.0
C2386 C 0.97453 0.39464 0.80122 0.0
C2387 C 0.96432 0.41892 0.82627 0.0
C2388 C 0.96368 0.43101 0.85554 0.0
C2389 C 0.96622 0.39753 0.76894 0.0
C2390 C 0.95661 0.4111 0.76572 0.0
C2391 C 0.95582 0.42167 0.7942 0.0
C2392 C 0.94665 0.41429 0.73348 0.0
C2393 C 0.96734 0.38593 0.73878 0.0
C2394 C 0.95477 0.41911 0.70205 0.0
C2395 C 0.94508 0.42313 0.67242 0.0
C2396 C 0.92715 0.42236 0.67396 0.0
C2397 C 0.91913 0.41714 0.7053 0.0
C2398 C 0.92882 0.41322 0.73488 0.0
H2399 H 0.97379 0.37518 0.74691 0.0
H2400 H 0.95436 0.38289 0.72886 0.0
H2401 H 0.9746 0.39113 0.71631 0.0
H2402 H 0.96856 0.42011 0.70076 0.0
H2403 H 0.95161 0.42719 0.6487 0.0
H2404 H 0.79848 0.71089 0.93682 0.0
H2405 H 0.80653 0.72864 0.98461 0.0
H2406 H 0.85791 0.71157 0.982 0.0
H2407 H 0.84986 0.69343 0.93334 0.0
H2408 H 0.82146 0.71708 0.05297 0.0
H2409 H 0.86063 0.76165 0.98222 0.0
H2410 H 0.84479 0.75013 0.95865 0.0
H2411 H 0.864 0.74135 0.97367 0.0
C2412 C 0.81157 0.7109 0.94603 0.0
C2413 C 0.82351 0.70064 0.93134 0.0
C2414 C 0.81614 0.72112 0.97341 0.0
C2415 C 0.83278 0.72143 0.98688 0.0
C2416 C 0.845 0.71157 0.97175 0.0
H2417 H 0.85279 0.78582 0.16975 0.0
H2418 H 0.8592 0.76652 0.12286 0.0
C2419 C 0.84041 0.70124 0.94401 0.0
C2420 C 0.83652 0.73155 0.01821 0.0
H2421 H 0.85165 0.7676 0.04084 0.0
C2422 C 0.82845 0.72795 0.05062 0.0
C2423 C 0.84558 0.74574 0.01504 0.0
C2424 C 0.85428 0.75009 0.98059 0.0
C2425 C 0.8284 0.7385 0.07927 0.0
C2426 C 0.83648 0.75312 0.07535 0.0
C2427 C 0.8455 0.75637 0.04378 0.0
C2428 C 0.83354 0.76571 0.10177 0.0
C2429 C 0.81894 0.73425 0.11297 0.0
C2430 C 0.81717 0.77189 0.10473 0.0
C2431 C 0.81351 0.78279 0.13116 0.0
C2432 C 0.82615 0.78786 0.15539 0.0
C2433 C 0.84279 0.78214 0.15155 0.0
C2434 C 0.84646 0.77113 0.12484 0.0
H2435 H 0.81733 0.72152 0.11549 0.0
H2436 H 0.82572 0.73883 0.1369 0.0
H2437 H 0.80605 0.73939 0.11243 0.0
H2438 H 0.80707 0.768 0.08695 0.0
H2439 H 0.8006 0.78702 0.13295 0.0
H2440 H 0.56851 0.53594 0.21521 0.0
H2441 H 0.55243 0.54716 0.26458 0.0
H2442 H 0.55559 0.59193 0.21524 0.0
H2443 H 0.5717 0.58075 0.16525 0.0
H2444 H 0.56509 0.57284 0.30919 0.0
H2445 H 0.50361 0.58514 0.24127 0.0
H2446 H 0.51825 0.57098 0.22391 0.0
H2447 H 0.52329 0.59118 0.22024 0.0
C2448 C 0.56574 0.54816 0.21462 0.0
C2449 C 0.57141 0.55745 0.18624 0.0
C2450 C 0.55653 0.55455 0.24289 0.0
C2451 C 0.55275 0.57034 0.24342 0.0
C2452 C 0.55821 0.57968 0.21506 0.0
H2453 H 0.49048 0.60988 0.41925 0.0
H2454 H 0.50898 0.60965 0.36589 0.0
C2455 C 0.56744 0.57327 0.18661 0.0
C2456 C 0.54374 0.57691 0.27471 0.0
H2457 H 0.50472 0.58908 0.30336 0.0
C2458 C 0.55198 0.57665 0.30784 0.0
C2459 C 0.52671 0.582 0.27277 0.0
C2460 C 0.51731 0.58234 0.23775 0.0
C2461 C 0.54339 0.58063 0.33937 0.0
C2462 C 0.52602 0.58476 0.33777 0.0
C2463 C 0.51805 0.58594 0.30444 0.0
C2464 C 0.51541 0.58552 0.37046 0.0
C2465 C 0.5528 0.57985 0.37435 0.0
C2466 C 0.51288 0.57205 0.39035 0.0
C2467 C 0.50241 0.57213 0.42039 0.0
C2468 C 0.49416 0.5857 0.43131 0.0
C2469 C 0.49679 0.5993 0.41162 0.0
C2470 C 0.50727 0.59917 0.38115 0.0
H2471 H 0.56678 0.58137 0.37047 0.0
H2472 H 0.54828 0.5888 0.39343 0.0
H2473 H 0.55049 0.56832 0.38636 0.0
H2474 H 0.5188 0.56133 0.38223 0.0
H2475 H 0.50066 0.56144 0.43487 0.0
H2476 H 0.62161 0.25191 0.70119 0.0
H2477 H 0.62658 0.26571 0.64528 0.0
H2478 H 0.64685 0.22422 0.59775 0.0
H2479 H 0.64113 0.21024 0.65286 0.0
H2480 H 0.65625 0.27159 0.61547 0.0
H2481 H 0.61796 0.23766 0.51741 0.0
H2482 H 0.61559 0.23509 0.56488 0.0
H2483 H 0.6329 0.22615 0.54112 0.0
C2484 C 0.62668 0.24564 0.67848 0.0
C2485 C 0.63077 0.22995 0.68134 0.0
C2486 C 0.62961 0.25355 0.64656 0.0
C2487 C 0.63689 0.246 0.61693 0.0
C2488 C 0.64072 0.23024 0.61963 0.0
H2489 H 0.67961 0.28263 0.41736 0.0
H2490 H 0.67013 0.26536 0.46551 0.0
C2491 C 0.63748 0.22225 0.65131 0.0
C2492 C 0.64172 0.25496 0.58451 0.0
H2493 H 0.63749 0.25632 0.49371 0.0
C2494 C 0.652 0.26828 0.58893 0.0
C2495 C 0.63646 0.25055 0.54964 0.0
C2496 C 0.625 0.23666 0.54295 0.0
C2497 C 0.65711 0.27731 0.55974 0.0
C2498 C 0.6516 0.27307 0.52501 0.0
C2499 C 0.64163 0.25959 0.52035 0.0
C2500 C 0.65574 0.28285 0.4936 0.0
C2501 C 0.66857 0.29123 0.56635 0.0
C2502 C 0.6502 0.29818 0.49259 0.0
C2503 C 0.65562 0.30803 0.46534 0.0
C2504 C 0.66654 0.30271 0.43819 0.0
C2505 C 0.67117 0.28706 0.43785 0.0
C2506 C 0.66582 0.2772 0.46541 0.0
H2507 H 0.6754 0.29043 0.59218 0.0
H2508 H 0.67815 0.29258 0.54466 0.0
H2509 H 0.6607 0.30178 0.56729 0.0
H2510 H 0.64208 0.30269 0.51355 0.0
H2511 H 0.65165 0.31997 0.46615 0.0
H2512 H 0.98733 0.59798 0.93023 0.0
H2513 H 0.00778 0.60116 0.88076 0.0
H2514 H 0.97949 0.56737 0.81857 0.0
H2515 H 0.95932 0.56397 0.86783 0.0
H2516 H 0.02537 0.57203 0.85375 0.0
H2517 H 0.99161 0.60469 0.74894 0.0
H2518 H 0.9865 0.60655 0.79587 0.0
H2519 H 0.97952 0.58975 0.7712 0.0
C2520 C 0.98523 0.59164 0.90554 0.0
C2521 C 0.97183 0.58075 0.90265 0.0
C2522 C -0.00309 0.5934 0.87747 0.0
C2523 C -0.00499 0.58457 0.84607 0.0
C2524 C 0.98102 0.57442 0.84244 0.0
H2525 H 0.04987 0.55525 0.66119 0.0
H2526 H 0.02854 0.563 0.70532 0.0
C2527 C 0.96956 0.57246 0.87058 0.0
C2528 C 0.00865 0.58429 0.8189 0.0
H2529 H 0.0169 0.59174 0.73127 0.0
C2530 C 0.02373 0.57659 0.82714 0.0
C2531 C 0.00617 0.58996 0.78416 0.0
C2532 C 0.99013 0.5983 0.77436 0.0
C2533 C 0.03623 0.57396 0.80107 0.0
C2534 C 0.03377 0.5796 0.76617 0.0
C2535 C 0.0188 0.58755 0.75813 0.0
C2536 C 0.04624 0.5766 0.73734 0.0
C2537 C 0.05155 0.56447 0.81064 0.0
C2538 C 0.0631 0.58215 0.74008 0.0
C2539 C 0.07534 0.5777 0.71501 0.0
C2540 C 0.07088 0.56773 0.6866 0.0
C2541 C 0.05373 0.56295 0.68275 0.0
C2542 C 0.04152 0.56735 0.70795 0.0
H2543 H 0.04955 0.55804 0.83587 0.0
H2544 H 0.05452 0.55604 0.78906 0.0
H2545 H 0.06282 0.57225 0.81421 0.0
H2546 H 0.0669 0.58953 0.76225 0.0
H2547 H 0.08841 0.58166 0.7186 0.0
H2548 H 0.68789 0.72252 0.18794 0.0
H2549 H 0.68014 0.73682 0.13476 0.0
H2550 H 0.63679 0.70623 0.1185 0.0
H2551 H 0.64422 0.69211 0.17255 0.0
H2552 H 0.67938 0.72551 0.0683 0.0
H2553 H 0.61544 0.74789 0.10372 0.0
H2554 H 0.62956 0.73987 0.13642 0.0
H2555 H 0.61727 0.72731 0.10752 0.0
C2556 C 0.67653 0.71899 0.1734 0.0
C2557 C 0.66662 0.70623 0.18447 0.0
C2558 C 0.67213 0.72715 0.14296 0.0
C2559 C 0.65781 0.72269 0.12275 0.0
C2560 C 0.64767 0.71011 0.13408 0.0
H2561 H 0.65138 0.75389 0.90171 0.0
H2562 H 0.65051 0.73739 0.95437 0.0
C2563 C 0.65196 0.70203 0.16491 0.0
C2564 C 0.65435 0.73063 0.08866 0.0
H2565 H 0.62491 0.75189 0.04432 0.0
C2566 C 0.66745 0.73124 0.06304 0.0
C2567 C 0.63879 0.73816 0.0819 0.0
C2568 C 0.6245 0.73843 0.10894 0.0
C2569 C 0.66558 0.73938 0.03118 0.0
C2570 C 0.64997 0.74678 0.02424 0.0
C2571 C 0.63677 0.74603 0.04958 0.0
C2572 C 0.64773 0.75631 0.99201 0.0
C2573 C 0.68058 0.74049 0.00589 0.0
C2574 C 0.64551 0.7723 0.99563 0.0
C2575 C 0.64584 0.78175 0.96562 0.0
C2576 C 0.64842 0.77535 0.93142 0.0
C2577 C 0.64951 0.7592 0.92769 0.0
C2578 C 0.64911 0.74976 0.95775 0.0
H2579 H 0.6927 0.73715 0.01885 0.0
H2580 H 0.67836 0.73258 0.98284 0.0
H2581 H 0.68214 0.75242 0.99557 0.0
H2582 H 0.64433 0.77757 0.02184 0.0
H2583 H 0.64487 0.79413 0.96945 0.0
H2584 H 0.52214 0.39477 0.38029 0.0
H2585 H 0.50799 0.39597 0.32187 0.0
H2586 H 0.46042 0.40643 0.3743 0.0
H2587 H 0.47458 0.40568 0.43227 0.0
H2588 H 0.47621 0.3828 0.28817 0.0
H2589 H 0.47489 0.44581 0.31663 0.0
H2590 H 0.48805 0.43275 0.34135 0.0
H2591 H 0.46569 0.43428 0.35155 0.0
C2592 C 0.5085 0.39662 0.37922 0.0
C2593 C 0.49931 0.40001 0.41046 0.0
C2594 C 0.50049 0.39742 0.34596 0.0
C2595 C 0.48327 0.40154 0.34395 0.0
C2596 C 0.47377 0.4034 0.37542 0.0
H2597 H 0.40393 0.41045 0.19529 0.0
H2598 H 0.4258 0.40071 0.23511 0.0
C2599 C 0.48179 0.40283 0.40845 0.0
C2600 C 0.47563 0.40595 0.30965 0.0
H2601 H 0.45714 0.43655 0.26922 0.0
C2602 C 0.47222 0.39457 0.28367 0.0
C2603 C 0.47089 0.42141 0.30354 0.0
C2604 C 0.47521 0.43431 0.32957 0.0
C2605 C 0.46314 0.39811 0.25259 0.0
C2606 C 0.45718 0.41332 0.24795 0.0
C2607 C 0.46157 0.42485 0.27295 0.0
C2608 C 0.44518 0.41739 0.21925 0.0
C2609 C 0.45983 0.38554 0.22525 0.0
C2610 C 0.44884 0.42996 0.19697 0.0
C2611 C 0.4363 0.43566 0.17447 0.0
C2612 C 0.41983 0.42894 0.17402 0.0
C2613 C 0.41648 0.41586 0.19499 0.0
C2614 C 0.42903 0.41019 0.21755 0.0
H2615 H 0.46967 0.37646 0.2265 0.0
H2616 H 0.44725 0.37999 0.23072 0.0
H2617 H 0.45963 0.39029 0.19783 0.0
H2618 H 0.46119 0.43576 0.19807 0.0
H2619 H 0.43934 0.44573 0.15853 0.0
H2620 H 0.83311 0.23591 0.69321 0.0
H2621 H 0.83366 0.2224 0.63583 0.0
H2622 H 0.85827 0.26196 0.58754 0.0
H2623 H 0.858 0.27556 0.64518 0.0
H2624 H 0.81721 0.2334 0.57468 0.0
H2625 H 0.88673 0.22516 0.55125 0.0
H2626 H 0.87817 0.22968 0.59485 0.0
H2627 H 0.87983 0.24443 0.56164 0.0
C2628 C 0.83895 0.24165 0.67059 0.0
C2629 C 0.84555 0.25679 0.67377 0.0
C2630 C 0.8392 0.23393 0.63779 0.0
C2631 C 0.84605 0.24117 0.60752 0.0
C2632 C 0.85316 0.2561 0.61072 0.0
H2633 H 0.81833 0.19801 0.40248 0.0
H2634 H 0.82638 0.21854 0.44473 0.0
C2635 C 0.853 0.26383 0.64368 0.0
C2636 C 0.84465 0.23325 0.57248 0.0
H2637 H 0.86784 0.21483 0.5081 0.0
C2638 C 0.82827 0.22949 0.55984 0.0
C2639 C 0.85913 0.22828 0.55323 0.0
C2640 C 0.877 0.23198 0.56588 0.0
C2641 C 0.82593 0.22024 0.52933 0.0
C2642 C 0.84041 0.21481 0.5107 0.0
C2643 C 0.85681 0.2191 0.52245 0.0
C2644 C 0.83862 0.20323 0.48169 0.0
C2645 C 0.808 0.21565 0.51842 0.0
C2646 C 0.84367 0.18799 0.48766 0.0
C2647 C 0.83916 0.17623 0.46357 0.0
C2648 C 0.82951 0.17955 0.43314 0.0
C2649 C 0.82563 0.19504 0.42586 0.0
C2650 C 0.83018 0.2068 0.44997 0.0
H2651 H 0.7984 0.21882 0.539 0.0
H2652 H 0.8047 0.2216 0.49333 0.0
H2653 H 0.80703 0.203 0.51338 0.0
H2654 H 0.85024 0.18504 0.512 0.0
H2655 H 0.84245 0.16445 0.46983 0.0
H2656 H 0.09015 0.58679 0.41952 0.0
H2657 H 0.07086 0.59581 0.37311 0.0
H2658 H 0.03384 0.56079 0.40294 0.0
H2659 H 0.0527 0.5522 0.45014 0.0
H2660 H 0.06186 0.57995 0.31715 0.0
H2661 H 0.0023 0.5954 0.38683 0.0
H2662 H 0.02197 0.59242 0.41057 0.0
H2663 H 0.00843 0.57621 0.39816 0.0
C2664 C 0.07769 0.5813 0.41677 0.0
C2665 C 0.07296 0.56878 0.43851 0.0
C2666 C 0.06667 0.58645 0.39018 0.0
C2667 C 0.05075 0.57912 0.38456 0.0
C2668 C 0.04577 0.56698 0.40722 0.0
H2669 H -0.00346 0.55597 0.19898 0.0
H2670 H 0.01548 0.55961 0.24987 0.0
C2671 C 0.05666 0.562 0.43417 0.0
C2672 C 0.04035 0.58279 0.35252 0.0
H2673 H -0.0005 0.5885 0.32403 0.0
C2674 C 0.0483 0.58216 0.31885 0.0
C2675 C 0.02263 0.58581 0.35439 0.0
C2676 C 0.0134 0.58766 0.3895 0.0
C2677 C 0.03891 0.58354 0.28723 0.0
C2678 C 0.02106 0.58543 0.28913 0.0
C2679 C 0.0132 0.58696 0.32264 0.0
C2680 C 0.0102 0.58391 0.25687 0.0
C2681 C 0.04807 0.58248 0.25187 0.0
C2682 C 0.00096 0.59643 0.24371 0.0
C2683 C 0.99015 0.59442 0.21411 0.0
C2684 C 0.9882 0.57977 0.19785 0.0
C2685 C -0.0023 0.56739 0.21093 0.0
C2686 C 0.00858 0.56945 0.23999 0.0
H2687 H 0.06195 0.58502 0.25468 0.0
H2688 H 0.04651 0.57059 0.24088 0.0
H2689 H 0.04261 0.59064 0.2324 0.0
H2690 H 0.00201 0.60768 0.25651 0.0
H2691 H 0.9829 0.60413 0.20478 0.0
H2692 H 0.13926 0.28065 0.21129 0.0
H2693 H 0.13116 0.26168 0.1644 0.0
H2694 H 0.17483 0.27596 0.10197 0.0
H2695 H 0.18298 0.29456 0.14815 0.0
H2696 H 0.1262 0.26469 0.08446 0.0
H2697 H 0.18131 0.2289 0.12181 0.0
H2698 H 0.17274 0.24358 0.15111 0.0
H2699 H 0.1868 0.24889 0.11509 0.0
C2700 C 0.14692 0.27986 0.18726 0.0
C2701 C 0.1619 0.28889 0.18363 0.0
C2702 C 0.14231 0.26904 0.16059 0.0
C2703 C 0.15261 0.26722 0.13007 0.0
C2704 C 0.16689 0.27696 0.12558 0.0
H2705 H 0.17335 0.22214 0.93879 0.0
H2706 H 0.16866 0.2385 0.99092 0.0
C2707 C 0.17152 0.28759 0.15207 0.0
C2708 C 0.1494 0.25468 0.10347 0.0
H2709 H 0.16938 0.22418 0.06386 0.0
C2710 C 0.13537 0.25558 0.08039 0.0
C2711 C 0.16138 0.24279 0.0983 0.0
C2712 C 0.17633 0.24085 0.12309 0.0
C2713 C 0.13368 0.24548 0.05081 0.0
C2714 C 0.14629 0.23425 0.04445 0.0
C2715 C 0.15974 0.23283 0.06874 0.0
C2716 C 0.14714 0.22517 0.0107 0.0
C2717 C 0.11907 0.2474 0.0253 0.0
C2718 C 0.1363 0.21238 0.004 0.0
C2719 C 0.13894 0.20288 0.97386 0.0
C2720 C 0.15256 0.20603 0.95033 0.0
C2721 C 0.16282 0.21927 0.95648 0.0
C2722 C 0.16016 0.22869 0.98628 0.0
H2723 H 0.1106 0.257 0.03335 0.0
H2724 H 0.12409 0.24967 0.99808 0.0
H2725 H 0.11139 0.23652 0.02398 0.0
H2726 H 0.12625 0.20941 0.02273 0.0
H2727 H 0.1309 0.19271 0.96995 0.0
H2728 H 0.43782 0.44542 0.94614 0.0
H2729 H 0.4557 0.43429 0.89906 0.0
H2730 H 0.41196 0.40955 0.85679 0.0
H2731 H 0.39393 0.42084 0.90331 0.0
H2732 H 0.46341 0.40425 0.87639 0.0
H2733 H 0.42781 0.43536 0.77214 0.0
H2734 H 0.42535 0.4396 0.81906 0.0
H2735 H 0.41461 0.42309 0.79942 0.0
C2736 C 0.43202 0.43747 0.92709 0.0
C2737 C 0.41436 0.43422 0.9282 0.0
C2738 C 0.44228 0.43111 0.90015 0.0
C2739 C 0.43511 0.42137 0.87384 0.0
C2740 C 0.4177 0.41736 0.87622 0.0
H2741 H 0.47113 0.38469 0.67114 0.0
H2742 H 0.45523 0.38989 0.7261 0.0
C2743 C 0.40742 0.42377 0.90297 0.0
C2744 C 0.44561 0.41604 0.84298 0.0
H2745 H 0.44845 0.41767 0.75212 0.0
C2746 C 0.46015 0.40717 0.8492 0.0
C2747 C 0.44145 0.41995 0.80749 0.0
C2748 C 0.42656 0.43014 0.79902 0.0
C2749 C 0.47039 0.40178 0.82085 0.0
C2750 C 0.46613 0.4056 0.78531 0.0
C2751 C 0.45165 0.41457 0.77924 0.0
C2752 C 0.47652 0.40072 0.75384 0.0
C2753 C 0.48542 0.39177 0.82926 0.0
C2754 C 0.49391 0.40479 0.75117 0.0
C2755 C 0.50311 0.40158 0.71991 0.0
C2756 C 0.49502 0.39453 0.69036 0.0
C2757 C 0.47775 0.39011 0.6934 0.0
C2758 C 0.46863 0.39313 0.72481 0.0
H2759 H 0.48386 0.38605 0.85551 0.0
H2760 H 0.48726 0.38274 0.80843 0.0
H2761 H 0.49715 0.39911 0.83053 0.0
H2762 H 0.50023 0.41103 0.77266 0.0
H2763 H 0.51634 0.40536 0.71829 0.0
H2764 H 0.3353 0.74109 0.40789 0.0
H2765 H 0.33447 0.72558 0.46179 0.0
H2766 H 0.36698 0.75905 0.5153 0.0
H2767 H 0.36787 0.77482 0.46088 0.0
H2768 H 0.36225 0.71313 0.50603 0.0
H2769 H 0.32142 0.75619 0.57593 0.0
H2770 H 0.32393 0.75627 0.52802 0.0
H2771 H 0.34124 0.76253 0.55604 0.0
C2772 C 0.34255 0.74506 0.43087 0.0
C2773 C 0.35161 0.75921 0.43018 0.0
C2774 C 0.34205 0.73617 0.46167 0.0
C2775 C 0.35046 0.74126 0.49264 0.0
C2776 C 0.36026 0.75501 0.49171 0.0
H2777 H 0.32214 0.69733 0.69671 0.0
H2778 H 0.3356 0.71537 0.65444 0.0
C2779 C 0.36089 0.76391 0.46056 0.0
C2780 C 0.3479 0.73239 0.52595 0.0
H2781 H 0.32361 0.73174 0.60174 0.0
C2782 C 0.35408 0.71729 0.52735 0.0
C2783 C 0.33737 0.73789 0.55387 0.0
C2784 C 0.3305 0.75408 0.55365 0.0
C2785 C 0.34939 0.70728 0.55511 0.0
C2786 C 0.33769 0.71233 0.58152 0.0
C2787 C 0.33239 0.72778 0.58133 0.0
C2788 C 0.32978 0.70145 0.60759 0.0
C2789 C 0.35691 0.69132 0.55543 0.0
C2790 C 0.32166 0.68781 0.5954 0.0
C2791 C 0.3143 0.67742 0.61943 0.0
C2792 C 0.31439 0.68064 0.6562 0.0
C2793 C 0.32192 0.69455 0.66847 0.0
C2794 C 0.32963 0.70484 0.64436 0.0
H2795 H 0.36979 0.69134 0.54299 0.0
H2796 H 0.35793 0.68681 0.58296 0.0
H2797 H 0.34867 0.68332 0.53955 0.0
H2798 H 0.32092 0.6852 0.56714 0.0
H2799 H 0.3083 0.66694 0.60913 0.0
H2800 H -0.00489 0.43485 0.20122 0.0
H2801 H 0.97819 0.4329 0.25552 0.0
H2802 H 0.00135 0.38933 0.27928 0.0
H2803 H 0.01854 0.39117 0.22405 0.0
H2804 H 0.95498 0.40696 0.27542 0.0
H2805 H 0.00794 0.41932 0.37081 0.0
H2806 H 0.00923 0.42499 0.32462 0.0
H2807 H 0.01092 0.40502 0.33611 0.0
C2808 C -0.00336 0.42479 0.21782 0.0
C2809 C 0.00822 0.41316 0.20833 0.0
C2810 C 0.98692 0.4237 0.24889 0.0
C2811 C 0.98861 0.41106 0.27158 0.0
C2812 C -3e-05 0.39925 0.26218 0.0
H2813 H 0.91106 0.4046 0.44176 0.0
H2814 H 0.93179 0.39665 0.39641 0.0
C2815 C 0.00966 0.40025 0.23058 0.0
C2816 C 0.97821 0.41059 0.30478 0.0
H2817 H 0.98007 0.41839 0.39426 0.0
C2818 C 0.96044 0.40915 0.30157 0.0
C2819 C 0.98541 0.41377 0.33864 0.0
C2820 C 0.00442 0.41595 0.3431 0.0
C2821 C 0.94958 0.41131 0.33105 0.0
C2822 C 0.95672 0.41467 0.36503 0.0
C2823 C 0.97458 0.41569 0.36838 0.0
C2824 C 0.94578 0.41842 0.39654 0.0
C2825 C 0.93054 0.41084 0.32493 0.0
C2826 C 0.9474 0.43292 0.41356 0.0
C2827 C 0.9358 0.43735 0.44013 0.0
C2828 C 0.92223 0.42742 0.45003 0.0
C2829 C 0.92123 0.41259 0.43443 0.0
C2830 C 0.93301 0.40807 0.40829 0.0
H2831 H 0.92731 0.41195 0.29623 0.0
H2832 H 0.92525 0.39961 0.33421 0.0
H2833 H 0.92415 0.42024 0.33998 0.0
H2834 H 0.95719 0.4411 0.40518 0.0
H2835 H 0.93695 0.44887 0.45156 0.0
H2836 H 0.30148 0.30303 0.98282 0.0
H2837 H 0.31084 0.28655 0.03116 0.0
H2838 H 0.34894 0.26669 0.9619 0.0
H2839 H 0.33997 0.28375 0.91355 0.0
H2840 H 0.30792 0.25561 0.02653 0.0
H2841 H 0.37547 0.27224 0.05435 0.0
H2842 H 0.36145 0.28431 0.02897 0.0
H2843 H 0.37068 0.26749 0.00866 0.0
C2844 C 0.31206 0.29534 0.97809 0.0
C2845 C 0.31994 0.29452 0.9445 0.0
C2846 C 0.31743 0.28597 0.00572 0.0
C2847 C 0.33061 0.2754 0.0002 0.0
C2848 C 0.33897 0.27495 0.96698 0.0
H2849 H 0.34992 0.19799 0.14472 0.0
H2850 H 0.35303 0.21534 0.09334 0.0
C2851 C 0.33378 0.28462 0.93936 0.0
C2852 C 0.334 0.26384 0.02811 0.0
H2853 H 0.36391 0.25109 0.08672 0.0
C2854 C 0.32021 0.25459 0.03951 0.0
C2855 C 0.35009 0.2624 0.04474 0.0
C2856 C 0.36527 0.2722 0.03383 0.0
C2857 C 0.32185 0.24433 0.06782 0.0
C2858 C 0.33772 0.24328 0.08532 0.0
C2859 C 0.35177 0.252 0.07314 0.0
C2860 C 0.33919 0.23407 0.11805 0.0
C2861 C 0.30644 0.23496 0.07951 0.0
C2862 C 0.33096 0.23916 0.14912 0.0
C2863 C 0.32904 0.22932 0.17807 0.0
C2864 C 0.33545 0.21425 0.17659 0.0
C2865 C 0.3449 0.20957 0.14654 0.0
C2866 C 0.34669 0.21944 0.11726 0.0
H2867 H 0.29637 0.23454 0.0587 0.0
H2868 H 0.31005 0.22295 0.08603 0.0
H2869 H 0.30094 0.24031 0.10391 0.0
H2870 H 0.32516 0.25045 0.15017 0.0
H2871 H 0.32184 0.23328 0.20105 0.0
H2872 H 0.58784 0.5728 0.94102 0.0
H2873 H 0.56798 0.58403 0.89894 0.0
H2874 H 0.53044 0.54888 0.92484 0.0
H2875 H 0.55027 0.53763 0.96757 0.0
H2876 H 0.55638 0.56804 0.84025 0.0
H2877 H 0.50183 0.588 0.92222 0.0
H2878 H 0.52239 0.5838 0.9412 0.0
H2879 H 0.50764 0.56835 0.93033 0.0
C2880 C 0.57522 0.56762 0.93837 0.0
C2881 C 0.57065 0.55427 0.9575 0.0
C2882 C 0.56389 0.57407 0.91427 0.0
C2883 C 0.54771 0.56735 0.90883 0.0
C2884 C 0.54276 0.55443 0.92908 0.0
H2885 H 0.47133 0.5663 0.7499 0.0
H2886 H 0.48898 0.56439 0.80291 0.0
C2887 C 0.55411 0.54798 0.95342 0.0
C2888 C 0.53689 0.57286 0.87926 0.0
H2889 H 0.49726 0.5861 0.85922 0.0
C2890 C 0.54354 0.57223 0.84444 0.0
C2891 C 0.52015 0.57827 0.8848 0.0
C2892 C 0.5126 0.5798 0.92169 0.0
C2893 C 0.53369 0.57629 0.81488 0.0
C2894 C 0.51682 0.58137 0.82033 0.0
C2895 C 0.51027 0.58234 0.85519 0.0
C2896 C 0.50521 0.58398 0.78993 0.0
C2897 C 0.5411 0.57438 0.77791 0.0
C2898 C 0.50821 0.59595 0.76541 0.0
C2899 C 0.49803 0.59712 0.73483 0.0
C2900 C 0.48486 0.58626 0.72839 0.0
C2901 C 0.4815 0.57476 0.75388 0.0
C2902 C 0.49153 0.57367 0.78433 0.0
H2903 H 0.55339 0.56814 0.7781 0.0
H2904 H 0.532 0.56796 0.76036 0.0
H2905 H 0.54342 0.58595 0.76612 0.0
H2906 H 0.51865 0.60411 0.76951 0.0
H2907 H 0.5009 0.60607 0.71562 0.0
H2908 H 0.14095 0.8174 0.69365 0.0
H2909 H 0.13003 0.79768 0.65213 0.0
H2910 H 0.17444 0.77009 0.67097 0.0
H2911 H 0.18528 0.78954 0.71299 0.0
H2912 H 0.14646 0.79013 0.59124 0.0
H2913 H 0.13702 0.73742 0.67174 0.0
H2914 H 0.13939 0.75642 0.69173 0.0
H2915 H 0.15789 0.74583 0.67768 0.0
C2916 C 0.14821 0.80698 0.68955 0.0
C2917 C 0.16402 0.80508 0.70645 0.0
C2918 C 0.14194 0.79572 0.66585 0.0
C2919 C 0.15131 0.78234 0.65875 0.0
C2920 C 0.16678 0.78014 0.67666 0.0
H2921 H 0.17048 0.71806 0.49899 0.0
H2922 H 0.16669 0.73329 0.55321 0.0
C2923 C 0.17303 0.79135 0.70048 0.0
C2924 C 0.14609 0.77169 0.62945 0.0
H2925 H 0.1405 0.73351 0.60813 0.0
C2926 C 0.14471 0.77779 0.59502 0.0
C2927 C 0.1439 0.7556 0.63447 0.0
C2928 C 0.14446 0.74846 0.67099 0.0
C2929 C 0.14225 0.76813 0.56517 0.0
C2930 C 0.14085 0.75198 0.57002 0.0
C2931 C 0.14143 0.74592 0.60459 0.0
C2932 C 0.14154 0.74119 0.53927 0.0
C2933 C 0.14235 0.77517 0.52847 0.0
C2934 C 0.12839 0.74022 0.51388 0.0
C2935 C 0.13051 0.73141 0.48259 0.0
C2936 C 0.14587 0.72367 0.47642 0.0
C2937 C 0.15858 0.72409 0.50281 0.0
C2938 C 0.15641 0.7327 0.53394 0.0
H2939 H 0.1455 0.78774 0.52919 0.0
H2940 H 0.15178 0.76928 0.51106 0.0
H2941 H 0.12958 0.77358 0.51616 0.0
H2942 H 0.11676 0.74664 0.51777 0.0
H2943 H 0.12053 0.73124 0.46265 0.0
H2944 H 0.39249 0.92009 0.24025 0.0
H2945 H 0.41435 0.9115 0.28157 0.0
H2946 H 0.45277 0.91762 0.20008 0.0
H2947 H 0.43098 0.92659 0.15877 0.0
H2948 H 0.43883 0.88926 0.28539 0.0
H2949 H 0.46882 0.94776 0.27609 0.0
H2950 H 0.44849 0.94315 0.25611 0.0
H2951 H 0.46793 0.93725 0.23465 0.0
C2952 C 0.40553 0.91934 0.23086 0.0
C2953 C 0.41002 0.92428 0.19641 0.0
C2954 C 0.41804 0.91441 0.25455 0.0
C2955 C 0.43528 0.91428 0.24426 0.0
C2956 C 0.43962 0.91801 0.20894 0.0
H2957 H 0.51486 0.88849 0.40046 0.0
H2958 H 0.49569 0.88685 0.34863 0.0
C2959 C 0.42713 0.92309 0.18531 0.0
C2960 C 0.44869 0.9118 0.27155 0.0
H2961 H 0.48142 0.93034 0.31498 0.0
C2962 C 0.44825 0.89818 0.29174 0.0
C2963 C 0.46089 0.92351 0.28002 0.0
C2964 C 0.46153 0.9388 0.26085 0.0
C2965 C 0.45934 0.89616 0.32079 0.0
C2966 C 0.47134 0.90798 0.32942 0.0
C2967 C 0.4722 0.92129 0.30834 0.0
C2968 C 0.48207 0.90773 0.36205 0.0
C2969 C 0.45759 0.88174 0.34292 0.0
C2970 C 0.48083 0.91996 0.38673 0.0
C2971 C 0.49193 0.92109 0.41559 0.0
C2972 C 0.50442 0.90989 0.42079 0.0
C2973 C 0.50527 0.89723 0.39708 0.0
C2974 C 0.49427 0.89625 0.36761 0.0
H2975 H 0.44554 0.87527 0.33714 0.0
H2976 H 0.46841 0.874 0.33689 0.0
H2977 H 0.45797 0.88464 0.37182 0.0
H2978 H 0.47146 0.9289 0.38317 0.0
H2979 H 0.49085 0.93087 0.4337 0.0
H2980 H 0.33935 0.21704 0.39753 0.0
H2981 H 0.34837 0.23565 0.44442 0.0
H2982 H 0.31561 0.21234 0.52 0.0
H2983 H 0.30627 0.19414 0.47338 0.0
H2984 H 0.32034 0.25372 0.49104 0.0
H2985 H 0.36699 0.21839 0.5647 0.0
H2986 H 0.36283 0.2157 0.51759 0.0
H2987 H 0.34777 0.20861 0.54992 0.0
C2988 C 0.33431 0.21583 0.42431 0.0
C2989 C 0.32214 0.20423 0.432 0.0
C2990 C 0.3394 0.22644 0.45094 0.0
C2991 C 0.3327 0.22527 0.48564 0.0
C2992 C 0.32097 0.21338 0.49344 0.0
H2993 H 0.31813 0.26445 0.68646 0.0
H2994 H 0.32312 0.24888 0.63291 0.0
C2995 C 0.31563 0.20304 0.46681 0.0
C2996 C 0.33694 0.23687 0.51366 0.0
H2997 H 0.35589 0.24036 0.59531 0.0
C2998 C 0.32849 0.25104 0.51342 0.0
C2999 C 0.34739 0.23319 0.54291 0.0
C3000 C 0.3569 0.21819 0.54393 0.0
C3001 C 0.32949 0.26129 0.5427 0.0
C3002 C 0.33938 0.25731 0.57266 0.0
C3003 C 0.34844 0.24344 0.57216 0.0
C3004 C 0.33847 0.26632 0.60644 0.0
C3005 C 0.31904 0.2758 0.54255 0.0
C3006 C 0.34593 0.28115 0.60976 0.0
C3007 C 0.34328 0.29006 0.64074 0.0
C3008 C 0.33293 0.2843 0.66844 0.0
C3009 C 0.32612 0.26921 0.66549 0.0
C3010 C 0.32897 0.26029 0.63493 0.0
H3011 H 0.31098 0.27661 0.51833 0.0
H3012 H 0.31065 0.27617 0.56647 0.0
H3013 H 0.32767 0.28608 0.54374 0.0
H3014 H 0.35336 0.28598 0.58802 0.0
H3015 H 0.34854 0.3017 0.64221 0.0
H3016 H 0.01229 0.06389 0.94221 0.0
H3017 H 0.02425 0.06017 0.88268 0.0
H3018 H 0.99493 0.09822 0.84396 0.0
H3019 H 0.98265 0.10203 0.90392 0.0
H3020 H -0.00278 0.05726 0.81575 0.0
H3021 H 0.05063 0.10048 0.81065 0.0
H3022 H 0.04453 0.09151 0.85222 0.0
H3023 H 0.03067 0.10517 0.83212 0.0
C3024 C 0.00851 0.07166 0.92126 0.0
C3025 C -0.00361 0.08321 0.92781 0.0
C3026 C 0.01539 0.06949 0.88723 0.0
C3027 C 0.01041 0.07886 0.85899 0.0
C3028 C -0.00107 0.09088 0.86555 0.0
H3029 H 0.05249 0.07428 0.6426 0.0
H3030 H 0.03703 0.08261 0.69618 0.0
C3031 C 0.99199 0.09308 0.8998 0.0
C3032 C 0.01633 0.07515 0.82235 0.0
H3033 H 0.04773 0.08332 0.76189 0.0
C3034 C 0.00815 0.06304 0.80368 0.0
C3035 C 0.03054 0.08273 0.80687 0.0
C3036 C 0.03972 0.09572 0.82628 0.0
C3037 C 0.01389 0.05821 0.76987 0.0
C3038 C 0.02856 0.06541 0.7547 0.0
C3039 C 0.0365 0.07777 0.77328 0.0
C3040 C 0.03631 0.05999 0.72043 0.0
C3041 C 0.00403 0.04551 0.75079 0.0
C3042 C 0.04085 0.04445 0.71571 0.0
C3043 C 0.04931 0.0396 0.68473 0.0
C3044 C 0.0539 0.05027 0.65813 0.0
C3045 C 0.04912 0.06577 0.66254 0.0
C3046 C 0.04034 0.07056 0.69327 0.0
H3047 H 0.99045 0.0452 0.75937 0.0
H3048 H 0.00452 0.04693 0.72141 0.0
H3049 H 0.00958 0.03418 0.75754 0.0
H3050 H 0.03844 0.03611 0.73656 0.0
H3051 H 0.05302 0.02761 0.68252 0.0
H3052 H 0.17657 0.78535 0.92163 0.0
H3053 H 0.16624 0.76673 0.96599 0.0
H3054 H 0.1453 0.80402 0.02853 0.0
H3055 H 0.15517 0.82255 0.9842 0.0
H3056 H 0.176 0.76507 0.03436 0.0
H3057 H 0.10628 0.77354 0.03237 0.0
H3058 H 0.12018 0.78079 0.99764 0.0
H3059 H 0.11759 0.79152 0.03868 0.0
C3060 C 0.16944 0.78955 0.94444 0.0
C3061 C 0.16671 0.80549 0.94924 0.0
C3062 C 0.16358 0.77888 0.96988 0.0
C3063 C 0.15476 0.78389 0.00052 0.0
C3064 C 0.15166 0.79975 0.00481 0.0
H3065 H 0.14276 0.75309 0.21361 0.0
H3066 H 0.14503 0.76658 0.15674 0.0
C3067 C 0.15745 0.81039 0.97943 0.0
C3068 C 0.15013 0.77286 0.02955 0.0
H3069 H 0.1176 0.76194 0.08559 0.0
C3070 C 0.16315 0.76418 0.04504 0.0
C3071 C 0.13335 0.77159 0.04364 0.0
C3072 C 0.11853 0.77974 0.02695 0.0
C3073 C 0.16002 0.75493 0.07512 0.0
C3074 C 0.14348 0.75434 0.09021 0.0
C3075 C 0.1303 0.7625 0.07405 0.0
C3076 C 0.14013 0.74623 0.12432 0.0
C3077 C 0.17453 0.74626 0.09158 0.0
C3078 C 0.13617 0.73034 0.12494 0.0
C3079 C 0.13473 0.72255 0.15755 0.0
C3080 C 0.13737 0.73053 0.19005 0.0
C3081 C 0.14065 0.74657 0.18916 0.0
C3082 C 0.14197 0.75432 0.15667 0.0
H3083 H 0.18655 0.74746 0.07598 0.0
H3084 H 0.17683 0.75065 0.1191 0.0
H3085 H 0.17107 0.7338 0.09348 0.0
H3086 H 0.13474 0.72389 0.1002 0.0
H3087 H 0.13236 0.71019 0.15722 0.0
H3088 H 0.55314 0.04774 0.15913 0.0
H3089 H 0.53153 0.05621 0.20168 0.0
H3090 H 0.56611 0.09157 0.24142 0.0
H3091 H 0.58796 0.083 0.19925 0.0
H3092 H 0.55399 0.07249 0.29349 0.0
H3093 H 0.50002 0.09293 0.21227 0.0
H3094 H 0.50727 0.07419 0.19869 0.0
H3095 H 0.52127 0.09074 0.19422 0.0
C3096 C 0.55605 0.05754 0.17636 0.0
C3097 C 0.57234 0.06462 0.176 0.0
C3098 C 0.5436 0.06246 0.2005 0.0
C3099 C 0.54714 0.07464 0.22445 0.0
C3100 C 0.5631 0.0822 0.22299 0.0
H3101 H 0.47959 0.10057 0.40483 0.0
H3102 H 0.49849 0.10366 0.35258 0.0
C3103 C 0.57558 0.07728 0.19891 0.0
C3104 C 0.53514 0.07801 0.25404 0.0
H3105 H 0.49348 0.08591 0.27307 0.0
C3106 C 0.54087 0.0758 0.28903 0.0
C3107 C 0.518 0.08223 0.24819 0.0
C3108 C 0.5113 0.0853 0.21131 0.0
C3109 C 0.52973 0.07697 0.31818 0.0
C3110 C 0.51245 0.08046 0.31218 0.0
C3111 C 0.5068 0.08333 0.27745 0.0
C3112 C 0.49982 0.07915 0.34126 0.0
C3113 C 0.53628 0.07372 0.35513 0.0
C3114 C 0.4942 0.06441 0.35141 0.0
C3115 C 0.48355 0.06262 0.38086 0.0
C3116 C 0.47831 0.07555 0.40092 0.0
C3117 C 0.48348 0.09041 0.38998 0.0
C3118 C 0.49421 0.09219 0.36021 0.0
H3119 H 0.55045 0.0739 0.35615 0.0
H3120 H 0.53135 0.08233 0.37459 0.0
H3121 H 0.53165 0.06212 0.36352 0.0
H3122 H 0.49843 0.05424 0.33702 0.0
H3123 H 0.47974 0.051 0.38828 0.0
H3124 H 0.16256 0.24682 0.41313 0.0
H3125 H 0.16293 0.23169 0.46783 0.0
H3126 H 0.13885 0.2689 0.52511 0.0
H3127 H 0.13846 0.28425 0.47052 0.0
H3128 H 0.18003 0.24918 0.53575 0.0
H3129 H 0.11489 0.22335 0.55206 0.0
H3130 H 0.12373 0.22691 0.50823 0.0
H3131 H 0.11767 0.24285 0.53603 0.0
C3132 C 0.15695 0.25168 0.43709 0.0
C3133 C 0.15061 0.2668 0.43751 0.0
C3134 C 0.15718 0.24301 0.4683 0.0
C3135 C 0.15089 0.24922 0.50029 0.0
C3136 C 0.14364 0.26392 0.50049 0.0
H3137 H 0.154 0.20702 0.71224 0.0
H3138 H 0.14607 0.22303 0.66118 0.0
C3139 C 0.14346 0.27266 0.46929 0.0
C3140 C 0.15395 0.24111 0.53406 0.0
H3141 H 0.13565 0.21666 0.59446 0.0
C3142 C 0.17034 0.24212 0.54876 0.0
C3143 C 0.14115 0.23221 0.55109 0.0
C3144 C 0.12331 0.23116 0.53625 0.0
C3145 C 0.17442 0.23417 0.57989 0.0
C3146 C 0.16189 0.22451 0.59602 0.0
C3147 C 0.14528 0.22393 0.5819 0.0
C3148 C 0.16607 0.21448 0.62656 0.0
C3149 C 0.1921 0.23634 0.59524 0.0
C3150 C 0.17959 0.2041 0.6237 0.0
C3151 C 0.18434 0.19529 0.65287 0.0
C3152 C 0.1753 0.19633 0.68517 0.0
C3153 C 0.1612 0.20611 0.68762 0.0
C3154 C 0.15667 0.21521 0.65852 0.0
H3155 H 0.19779 0.24769 0.58762 0.0
H3156 H 0.19196 0.2356 0.62479 0.0
H3157 H 0.20052 0.2272 0.58446 0.0
H3158 H 0.18661 0.20288 0.59893 0.0
H3159 H 0.19502 0.18756 0.65004 0.0
H3160 H 0.97685 0.92137 0.92193 0.0
H3161 H 0.96173 0.92333 0.86557 0.0
H3162 H -0.00318 0.89148 0.81667 0.0
H3163 H 0.0119 0.88919 0.87403 0.0
H3164 H 0.97702 0.93492 0.80536 0.0
H3165 H 0.94997 0.87598 0.78006 0.0
H3166 H 0.95732 0.88219 0.82358 0.0
H3167 H 0.97246 0.87737 0.78939 0.0
C3168 C 0.9811 0.91446 0.89941 0.0
C3169 C -0.00454 0.90507 0.90228 0.0
C3170 C 0.97249 0.91565 0.86716 0.0
C3171 C 0.97813 0.9076 0.83684 0.0
C3172 C 0.99209 0.89764 0.83986 0.0
H3173 H 0.93828 0.94402 0.63507 0.0
H3174 H 0.95853 0.93338 0.67767 0.0
C3175 C 0.00066 0.89629 0.87257 0.0
C3176 C 0.96996 0.9108 0.80201 0.0
H3177 H 0.94405 0.8951 0.73767 0.0
C3178 C 0.96998 0.92618 0.79027 0.0
C3179 C 0.96073 0.8994 0.78254 0.0
C3180 C 0.95994 0.88281 0.79449 0.0
C3181 C 0.96042 0.93061 0.76058 0.0
C3182 C 0.95095 0.91925 0.74132 0.0
C3183 C 0.95143 0.90376 0.75227 0.0
C3184 C 0.93911 0.92356 0.71225 0.0
C3185 C 0.95977 0.94757 0.75147 0.0
C3186 C 0.92153 0.92084 0.71641 0.0
C3187 C 0.90995 0.92671 0.69191 0.0
C3188 C 0.91571 0.93548 0.6627 0.0
C3189 C 0.9334 0.93739 0.65736 0.0
C3190 C 0.945 0.93141 0.68183 0.0
H3191 H 0.96476 0.95505 0.77345 0.0
H3192 H 0.96771 0.94977 0.72744 0.0
H3193 H 0.9465 0.95104 0.74555 0.0
H3194 H 0.91668 0.91478 0.73959 0.0
H3195 H 0.89644 0.92495 0.69684 0.0
H3196 H 0.37047 0.75628 0.15777 0.0
H3197 H 0.36907 0.74041 0.10286 0.0
H3198 H 0.32609 0.76663 0.06713 0.0
H3199 H 0.32751 0.7824 0.12111 0.0
H3200 H 0.34025 0.72245 0.08605 0.0
H3201 H 0.35404 0.76304 0.97609 0.0
H3202 H 0.35984 0.76723 0.02181 0.0
H3203 H 0.33837 0.77023 0.00676 0.0
C3204 C 0.36112 0.75892 0.1376 0.0
C3205 C 0.34909 0.77052 0.14369 0.0
C3206 C 0.36026 0.74982 0.10639 0.0
C3207 C 0.34758 0.75245 0.08068 0.0
C3208 C 0.33619 0.76458 0.08609 0.0
H3209 H 0.29577 0.70359 0.90908 0.0
H3210 H 0.30651 0.72297 0.95228 0.0
C3211 C 0.33695 0.77351 0.11717 0.0
C3212 C 0.34467 0.74149 0.05049 0.0
H3213 H 0.33867 0.73967 0.9602 0.0
C3214 C 0.34022 0.72613 0.05847 0.0
C3215 C 0.34435 0.74638 0.01456 0.0
C3216 C 0.34956 0.76259 0.00422 0.0
C3217 C 0.33487 0.71569 0.03173 0.0
C3218 C 0.33429 0.72065 0.99586 0.0
C3219 C 0.33905 0.73592 0.98771 0.0
C3220 C 0.32882 0.70999 0.96666 0.0
C3221 C 0.32925 0.6996 0.04233 0.0
C3222 C 0.33815 0.69663 0.95947 0.0
C3223 C 0.33204 0.6856 0.93514 0.0
C3224 C 0.31654 0.68774 0.91713 0.0
C3225 C 0.30772 0.7016 0.92261 0.0
C3226 C 0.31383 0.71266 0.94727 0.0
H3227 H 0.32639 0.69887 0.07132 0.0
H3228 H 0.31772 0.69582 0.02724 0.0
H3229 H 0.33962 0.6914 0.03617 0.0
H3230 H 0.34993 0.69451 0.97353 0.0
H3231 H 0.33928 0.67515 0.93118 0.0
H3232 H 0.47558 0.0512 0.71587 0.0
H3233 H 0.49615 0.05331 0.76431 0.0
H3234 H 0.50415 0.10167 0.74158 0.0
H3235 H 0.48333 0.09973 0.69294 0.0
H3236 H 0.53091 0.06295 0.76049 0.0
H3237 H 0.4918 0.10037 0.84939 0.0
H3238 H 0.4828 0.08985 0.81194 0.0
H3239 H 0.49539 0.10704 0.80464 0.0
C3240 C 0.48161 0.06233 0.7212 0.0
C3241 C 0.47773 0.07535 0.7008 0.0
C3242 C 0.49342 0.06348 0.74879 0.0
C3243 C 0.5015 0.07766 0.75658 0.0
C3244 C 0.49783 0.09068 0.73615 0.0
H3245 H 0.58624 0.0768 0.90871 0.0
H3246 H 0.56915 0.08391 0.85704 0.0
C3247 C 0.48598 0.08954 0.70842 0.0
C3248 C 0.51367 0.07861 0.78643 0.0
H3249 H 0.51831 0.09245 0.87138 0.0
C3250 C 0.52833 0.06955 0.78461 0.0
C3251 C 0.51005 0.08712 0.81782 0.0
C3252 C 0.49411 0.09659 0.82141 0.0
C3253 C 0.53926 0.06836 0.81391 0.0
C3254 C 0.53554 0.07676 0.8455 0.0
C3255 C 0.52115 0.08618 0.84693 0.0
C3256 C 0.54548 0.07464 0.87839 0.0
C3257 C 0.55416 0.05752 0.81143 0.0
C3258 C 0.53758 0.06786 0.90814 0.0
C3259 C 0.54723 0.06395 0.9378 0.0
C3260 C 0.56494 0.0667 0.93799 0.0
C3261 C 0.57263 0.07437 0.90906 0.0
C3262 C 0.56293 0.07838 0.87951 0.0
H3263 H 0.5532 0.04967 0.78786 0.0
H3264 H 0.56618 0.06438 0.80901 0.0
H3265 H 0.55501 0.05038 0.83581 0.0
H3266 H 0.52408 0.06495 0.90774 0.0
H3267 H 0.54096 0.05806 0.95971 0.0
H3268 H 0.66262 0.68926 0.48571 0.0
H3269 H 0.6628 0.70551 0.53969 0.0
H3270 H 0.64612 0.7443 0.47837 0.0
H3271 H 0.6461 0.72824 0.42414 0.0
H3272 H 0.68327 0.7386 0.5382 0.0
H3273 H 0.61453 0.73856 0.57658 0.0
H3274 H 0.62393 0.72222 0.55386 0.0
H3275 H 0.62051 0.73977 0.53014 0.0
C3276 C 0.65866 0.70116 0.48375 0.0
C3277 C 0.65429 0.70741 0.45051 0.0
C3278 C 0.65884 0.71044 0.51464 0.0
C3279 C 0.6544 0.72608 0.51305 0.0
C3280 C 0.64948 0.73223 0.48022 0.0
H3281 H 0.65133 0.79968 0.67602 0.0
H3282 H 0.64529 0.78295 0.62396 0.0
C3283 C 0.64947 0.72302 0.44925 0.0
C3284 C 0.65612 0.73625 0.54509 0.0
H3285 H 0.63346 0.75336 0.61243 0.0
C3286 C 0.6724 0.7418 0.55451 0.0
C3287 C 0.64189 0.74064 0.56587 0.0
C3288 C 0.62416 0.73503 0.5564 0.0
C3289 C 0.67487 0.75161 0.58425 0.0
C3290 C 0.66071 0.7556 0.60598 0.0
C3291 C 0.64434 0.75024 0.5961 0.0
C3292 C 0.66281 0.76507 0.63926 0.0
C3293 C 0.69262 0.75789 0.59151 0.0
C3294 C 0.67404 0.76034 0.66602 0.0
C3295 C 0.67759 0.76992 0.69539 0.0
C3296 C 0.66966 0.78431 0.69925 0.0
C3297 C 0.6575 0.78861 0.67386 0.0
C3298 C 0.65413 0.77908 0.64403 0.0
H3299 H 0.70061 0.75787 0.56696 0.0
H3300 H 0.69227 0.76988 0.60232 0.0
H3301 H 0.69893 0.75047 0.61135 0.0
H3302 H 0.68049 0.74939 0.66368 0.0
H3303 H 0.68691 0.76623 0.7147 0.0
H3304 H 0.9669 0.89448 0.15916 0.0
H3305 H 0.95198 0.89926 0.21559 0.0
H3306 H -0.00037 0.8971 0.27224 0.0
H3307 H 0.01471 0.89227 0.21603 0.0
H3308 H 0.96803 0.88082 0.30441 0.0
H3309 H 0.9604 0.94271 0.26884 0.0
H3310 H 0.95497 0.92837 0.23547 0.0
H3311 H 0.97675 0.93084 0.24913 0.0
C3312 C 0.9742 0.89476 0.18366 0.0
C3313 C 0.99202 0.89306 0.18301 0.0
C3314 C 0.96564 0.89754 0.21585 0.0
C3315 C 0.97475 0.89868 0.24795 0.0
C3316 C 0.9924 0.89624 0.2477 0.0
H3317 H 0.94641 0.94398 0.44568 0.0
H3318 H 0.96096 0.93418 0.39249 0.0
C3319 C 0.00097 0.89345 0.21553 0.0
C3320 C 0.96604 0.9034 0.28138 0.0
H3321 H 0.94819 0.93451 0.32301 0.0
C3322 C 0.96364 0.89253 0.30855 0.0
C3323 C 0.96053 0.91873 0.28672 0.0
C3324 C 0.96333 0.93093 0.2587 0.0
C3325 C 0.95569 0.89659 0.34095 0.0
C3326 C 0.94996 0.9119 0.34611 0.0
C3327 C 0.95252 0.92277 0.31896 0.0
C3328 C 0.94151 0.91702 0.37965 0.0
C3329 C 0.95377 0.88457 0.36961 0.0
C3330 C 0.92574 0.91059 0.3902 0.0
C3331 C 0.91738 0.91617 0.42067 0.0
C3332 C 0.9246 0.92832 0.44112 0.0
C3333 C 0.94051 0.93457 0.43071 0.0
C3334 C 0.94884 0.929 0.40024 0.0
H3335 H 0.96236 0.87464 0.36496 0.0
H3336 H 0.95652 0.88965 0.39634 0.0
H3337 H 0.94042 0.88009 0.36976 0.0
H3338 H 0.91969 0.90154 0.37435 0.0
H3339 H 0.90507 0.91118 0.4277 0.0
H3340 H 0.83708 0.2407 0.9202 0.0
H3341 H 0.83717 0.22676 0.97649 0.0
H3342 H 0.86609 0.26394 0.02568 0.0
H3343 H 0.8662 0.27806 0.9688 0.0
H3344 H 0.86864 0.21932 0.02445 0.0
H3345 H 0.81836 0.25651 0.08417 0.0
H3346 H 0.82056 0.25453 0.03636 0.0
H3347 H 0.83635 0.26517 0.06129 0.0
C3348 C 0.84371 0.24586 0.94279 0.0
C3349 C 0.85164 0.2605 0.94003 0.0
C3350 C 0.84372 0.23786 0.97497 0.0
C3351 C 0.85149 0.24437 0.0053 0.0
C3352 C 0.85995 0.25876 0.00254 0.0
H3353 H 0.82843 0.20332 0.21594 0.0
H3354 H 0.83943 0.22171 0.17136 0.0
C3355 C 0.86012 0.26675 0.97002 0.0
C3356 C 0.84998 0.23611 0.03977 0.0
H3357 H 0.82493 0.23369 0.11435 0.0
C3358 C 0.85931 0.22259 0.04448 0.0
C3359 C 0.83791 0.24047 0.06596 0.0
C3360 C 0.82763 0.25494 0.06199 0.0
C3361 C 0.85648 0.21301 0.07406 0.0
C3362 C 0.84349 0.21673 0.09902 0.0
C3363 C 0.83479 0.23072 0.09525 0.0
C3364 C 0.83765 0.20559 0.12692 0.0
C3365 C 0.86737 0.19889 0.07793 0.0
C3366 C 0.83277 0.19049 0.11693 0.0
C3367 C 0.82684 0.17997 0.14227 0.0
C3368 C 0.82515 0.18434 0.17833 0.0
C3369 C 0.82973 0.19955 0.18845 0.0
C3370 C 0.83597 0.21007 0.16297 0.0
H3371 H 0.88024 0.20085 0.06612 0.0
H3372 H 0.86889 0.19565 0.10631 0.0
H3373 H 0.86132 0.18905 0.06329 0.0
H3374 H 0.83322 0.18685 0.08923 0.0
H3375 H 0.82309 0.16848 0.13325 0.0
H3376 H 0.49101 0.90798 0.68114 0.0
H3377 H 0.47365 0.9068 0.73548 0.0
H3378 H 0.5186 0.89713 0.79694 0.0
H3379 H 0.53603 0.89818 0.7422 0.0
H3380 H 0.47032 0.88362 0.79704 0.0
H3381 H 0.4995 0.94125 0.82952 0.0
H3382 H 0.49976 0.93337 0.78476 0.0
H3383 H 0.51336 0.92552 0.81819 0.0
C3384 C 0.49701 0.90485 0.70601 0.0
C3385 C 0.51472 0.90281 0.70759 0.0
C3386 C 0.48714 0.9043 0.73702 0.0
C3387 C 0.49488 0.90197 0.77016 0.0
C3388 C 0.51242 0.89891 0.77154 0.0
H3389 H 0.44538 0.93239 0.96905 0.0
H3390 H 0.46689 0.9219 0.92807 0.0
C3391 C 0.52231 0.89933 0.74033 0.0
C3392 C 0.48488 0.90475 0.8031 0.0
H3393 H 0.47674 0.93281 0.86521 0.0
C3394 C 0.47188 0.89423 0.8124 0.0
C3395 C 0.48697 0.91863 0.82297 0.0
C3396 C 0.50058 0.93044 0.81349 0.0
C3397 C 0.4606 0.89739 0.84066 0.0
C3398 C 0.4621 0.91167 0.85936 0.0
C3399 C 0.47558 0.92188 0.85093 0.0
C3400 C 0.44901 0.91687 0.88544 0.0
C3401 C 0.44712 0.88544 0.84993 0.0
C3402 C 0.43186 0.91766 0.87505 0.0
C3403 C 0.4196 0.92348 0.89842 0.0
C3404 C 0.42423 0.92894 0.93254 0.0
C3405 C 0.44141 0.92822 0.94299 0.0
C3406 C 0.4537 0.92223 0.91962 0.0
H3407 H 0.45143 0.8736 0.84306 0.0
H3408 H 0.44379 0.88586 0.87873 0.0
H3409 H 0.43544 0.88762 0.83421 0.0
H3410 H 0.42799 0.91415 0.84845 0.0
H3411 H 0.40652 0.92404 0.88929 0.0
H3412 H 0.82216 0.81263 0.49799 0.0
H3413 H 0.82735 0.79551 0.54806 0.0
H3414 H 0.84836 0.76154 0.47619 0.0
H3415 H 0.84311 0.77859 0.4256 0.0
H3416 H 0.8129 0.76405 0.55198 0.0
H3417 H 0.88384 0.76641 0.56006 0.0
H3418 H 0.87171 0.78125 0.53851 0.0
H3419 H 0.87457 0.76291 0.51679 0.0
C3420 C 0.82817 0.80165 0.49277 0.0
C3421 C 0.83229 0.797 0.45775 0.0
C3422 C 0.83106 0.79185 0.52146 0.0
C3423 C 0.83833 0.77733 0.51581 0.0
C3424 C 0.84291 0.77279 0.48109 0.0
H3425 H 0.85378 0.70125 0.66274 0.0
H3426 H 0.85478 0.71825 0.61084 0.0
C3427 C 0.83989 0.78254 0.45225 0.0
C3428 C 0.84013 0.76665 0.54614 0.0
H3429 H 0.8694 0.74967 0.59994 0.0
C3430 C 0.82524 0.7609 0.56249 0.0
C3431 C 0.85625 0.76249 0.55948 0.0
C3432 C 0.87256 0.76862 0.54307 0.0
C3433 C 0.82605 0.75113 0.59205 0.0
C3434 C 0.84217 0.74729 0.60602 0.0
C3435 C 0.85708 0.75276 0.58925 0.0
C3436 C 0.84361 0.73772 0.63836 0.0
C3437 C 0.80966 0.74486 0.60795 0.0
C3438 C 0.83762 0.74328 0.67127 0.0
C3439 C 0.83709 0.73366 0.70099 0.0
C3440 C 0.84251 0.71827 0.69826 0.0
C3441 C 0.84944 0.71302 0.66571 0.0
C3442 C 0.85002 0.7227 0.63601 0.0
H3443 H 0.79873 0.74596 0.58937 0.0
H3444 H 0.81094 0.7325 0.61508 0.0
H3445 H 0.80667 0.75143 0.6327 0.0
H3446 H 0.83282 0.75493 0.67366 0.0
H3447 H 0.83172 0.7381 0.72562 0.0
H3448 H 0.09442 0.07576 0.42504 0.0
H3449 H 0.07512 0.08691 0.38139 0.0
H3450 H 0.03418 0.05748 0.41962 0.0
H3451 H 0.05318 0.04668 0.46388 0.0
H3452 H 0.06115 0.07091 0.32852 0.0
H3453 H 0.00889 0.09675 0.4069 0.0
H3454 H 0.02886 0.09145 0.42697 0.0
H3455 H 0.01223 0.07714 0.41977 0.0
C3456 C 0.08119 0.07197 0.42476 0.0
C3457 C 0.07535 0.06031 0.44789 0.0
C3458 C 0.07017 0.07834 0.39978 0.0
C3459 C 0.05312 0.07318 0.39742 0.0
C3460 C 0.04712 0.06199 0.42148 0.0
H3461 H 0.97747 0.05899 0.24363 0.0
H3462 H -0.00388 0.06128 0.29537 0.0
C3463 C 0.05807 0.05573 0.44668 0.0
C3464 C 0.04227 0.07792 0.36712 0.0
H3465 H 0.00204 0.08932 0.34584 0.0
C3466 C 0.04839 0.07533 0.33232 0.0
C3467 C 0.02558 0.08363 0.37201 0.0
C3468 C 0.01859 0.08755 0.40847 0.0
C3469 C 0.03795 0.07744 0.30248 0.0
C3470 C 0.02101 0.08235 0.30756 0.0
C3471 C 0.01508 0.08558 0.34213 0.0
C3472 C 0.00875 0.08225 0.27768 0.0
C3473 C 0.04472 0.07353 0.26581 0.0
C3474 C 0.0095 0.09349 0.2509 0.0
C3475 C -0.00126 0.09227 0.22115 0.0
C3476 C 0.98729 0.07967 0.21776 0.0
C3477 C 0.98629 0.06874 0.24525 0.0
C3478 C -0.00314 0.07006 0.27496 0.0
H3479 H 0.05787 0.06893 0.26665 0.0
H3480 H 0.03623 0.06481 0.25269 0.0
H3481 H 0.04482 0.08405 0.24908 0.0
H3482 H 0.01864 0.10299 0.25269 0.0
H3483 H -0.00024 0.10085 0.20038 0.0
H3484 H 0.68077 0.2283 0.97054 0.0
H3485 H 0.67746 0.24437 0.02358 0.0
H3486 H 0.62328 0.2466 0.00492 0.0
H3487 H 0.62643 0.23016 0.95153 0.0
H3488 H 0.66485 0.27419 0.02405 0.0
H3489 H 0.62686 0.23515 0.11198 0.0
H3490 H 0.63836 0.22821 0.07333 0.0
H3491 H 0.61856 0.23806 0.06788 0.0
C3492 C 0.6681 0.23212 0.97763 0.0
C3493 C 0.65385 0.22801 0.95668 0.0
C3494 C 0.66624 0.24128 0.00807 0.0
C3495 C 0.65012 0.24654 0.01833 0.0
C3496 C 0.63579 0.24242 0.99772 0.0
H3497 H 0.64299 0.32428 0.1659 0.0
H3498 H 0.63487 0.30527 0.12005 0.0
C3499 C 0.63763 0.23316 0.96712 0.0
C3500 C 0.64876 0.25712 0.04939 0.0
H3501 H 0.63346 0.26017 0.1346 0.0
C3502 C 0.65784 0.2712 0.04808 0.0
C3503 C 0.6398 0.25304 0.08081 0.0
C3504 C 0.63042 0.23775 0.08393 0.0
C3505 C 0.65841 0.28125 0.07752 0.0
C3506 C 0.64934 0.27726 0.10884 0.0
C3507 C 0.64013 0.26324 0.11023 0.0
C3508 C 0.65058 0.28716 0.14099 0.0
C3509 C 0.66923 0.29583 0.07543 0.0
C3510 C 0.66138 0.28291 0.16882 0.0
C3511 C 0.66607 0.29373 0.195 0.0
C3512 C 0.66005 0.30896 0.19359 0.0
C3513 C 0.64797 0.3127 0.16754 0.0
C3514 C 0.64329 0.30186 0.14135 0.0
H3515 H 0.6774 0.29606 0.05117 0.0
H3516 H 0.66081 0.30602 0.07494 0.0
H3517 H 0.67755 0.29697 0.09927 0.0
H3518 H 0.66713 0.2716 0.16887 0.0
H3519 H 0.67528 0.29042 0.21491 0.0
H3520 H 0.11717 0.50039 0.70357 0.0
H3521 H 0.1164 0.48414 0.7574 0.0
H3522 H 0.07034 0.50651 0.79192 0.0
H3523 H 0.07088 0.52242 0.73882 0.0
H3524 H 0.11351 0.49165 0.83555 0.0
H3525 H 0.05726 0.45989 0.78103 0.0
H3526 H 0.07116 0.47167 0.75361 0.0
H3527 H 0.05501 0.48051 0.78083 0.0
C3528 C 0.10706 0.50194 0.72298 0.0
C3529 C 0.09394 0.51248 0.7167 0.0
C3530 C 0.10662 0.49268 0.75362 0.0
C3531 C 0.09312 0.49395 0.77825 0.0
C3532 C 0.08068 0.50514 0.77295 0.0
H3533 H 0.04765 0.44988 0.95967 0.0
H3534 H 0.05736 0.46809 0.91404 0.0
C3535 C 0.08103 0.51422 0.7425 0.0
C3536 C 0.09105 0.48311 0.80846 0.0
H3537 H 0.06273 0.45682 0.84297 0.0
C3538 C 0.10256 0.48387 0.83708 0.0
C3539 C 0.07676 0.47295 0.8103 0.0
C3540 C 0.06442 0.47105 0.77967 0.0
C3541 C 0.09969 0.47517 0.86821 0.0
C3542 C 0.085 0.46551 0.8705 0.0
C3543 C 0.07384 0.46443 0.8414 0.0
C3544 C 0.08084 0.45616 0.90246 0.0
C3545 C 0.11204 0.47675 0.89884 0.0
C3546 C 0.09103 0.44365 0.91174 0.0
C3547 C 0.08549 0.4332 0.93776 0.0
C3548 C 0.06961 0.43503 0.95487 0.0
C3549 C 0.05992 0.44811 0.94703 0.0
C3550 C 0.06545 0.45852 0.92091 0.0
H3551 H 0.12075 0.4869 0.89577 0.0
H3552 H 0.10506 0.47784 0.92455 0.0
H3553 H 0.11991 0.46621 0.90007 0.0
H3554 H 0.10281 0.44147 0.89752 0.0
H3555 H 0.0933 0.42328 0.9432 0.0
H3556 H 0.67068 0.84296 0.99473 0.0
H3557 H 0.69078 0.84634 0.04393 0.0
H3558 H 0.73196 0.83181 0.97547 0.0
H3559 H 0.7119 0.82821 0.92604 0.0
H3560 H 0.72993 0.81602 0.0404 0.0
H3561 H 0.72789 0.87957 0.06156 0.0
H3562 H 0.70732 0.87011 0.06032 0.0
H3563 H 0.72051 0.87025 0.02102 0.0
C3564 C 0.68406 0.84073 0.9899 0.0
C3565 C 0.6897 0.83536 0.95642 0.0
C3566 C 0.69553 0.84273 0.01805 0.0
C3567 C 0.71286 0.83947 0.01321 0.0
C3568 C 0.71863 0.83445 0.97963 0.0
H3569 H 0.79837 0.85663 0.15203 0.0
H3570 H 0.77605 0.85795 0.10693 0.0
C3571 C 0.70716 0.83248 0.9514 0.0
C3572 C 0.72473 0.84036 0.04379 0.0
H3573 H 0.74186 0.86506 0.10604 0.0
C3574 C 0.73259 0.82674 0.05473 0.0
C3575 C 0.72821 0.85438 0.06222 0.0
C3576 C 0.72067 0.86945 0.05057 0.0
C3577 C 0.74381 0.82674 0.08379 0.0
C3578 C 0.74696 0.84071 0.10283 0.0
C3579 C 0.7392 0.85435 0.09171 0.0
C3580 C 0.75916 0.8415 0.13287 0.0
C3581 C 0.75251 0.81188 0.09324 0.0
C3582 C 0.75668 0.83238 0.16326 0.0
C3583 C 0.76946 0.83152 0.18903 0.0
C3584 C 0.78487 0.83989 0.1849 0.0
C3585 C 0.78672 0.84994 0.15586 0.0
C3586 C 0.77397 0.85072 0.13004 0.0
H3587 H 0.75192 0.8033 0.071 0.0
H3588 H 0.76611 0.81403 0.10022 0.0
H3589 H 0.74603 0.80667 0.1167 0.0
H3590 H 0.74513 0.82548 0.16637 0.0
H3591 H 0.76757 0.82378 0.2113 0.0
H3592 H 0.42639 0.55098 0.47671 0.0
H3593 H 0.41328 0.53224 0.43526 0.0
H3594 H 0.40964 0.56771 0.35569 0.0
H3595 H 0.4223 0.58652 0.39699 0.0
H3596 H 0.38101 0.54775 0.35721 0.0
H3597 H 0.44199 0.51542 0.35284 0.0
H3598 H 0.43203 0.51766 0.39576 0.0
H3599 H 0.44056 0.53431 0.37325 0.0
C3600 C 0.42256 0.55483 0.45056 0.0
C3601 C 0.42558 0.57021 0.43999 0.0
C3602 C 0.41513 0.54409 0.42688 0.0
C3603 C 0.41075 0.54853 0.3922 0.0
C3604 C 0.41292 0.56404 0.38233 0.0
H3605 H 0.41469 0.51129 0.18794 0.0
H3606 H 0.41561 0.52474 0.2453 0.0
C3607 C 0.42024 0.57477 0.40597 0.0
C3608 C 0.4053 0.53699 0.36484 0.0
H3609 H 0.4209 0.50815 0.31183 0.0
C3610 C 0.38957 0.53887 0.34766 0.0
C3611 C 0.41654 0.52544 0.35244 0.0
C3612 C 0.43378 0.52307 0.36926 0.0
C3613 C 0.38516 0.53006 0.31726 0.0
C3614 C 0.39679 0.51911 0.30388 0.0
C3615 C 0.41205 0.5166 0.32226 0.0
C3616 C 0.39464 0.51169 0.26838 0.0
C3617 C 0.36862 0.53313 0.29833 0.0
C3618 C 0.38223 0.50011 0.26206 0.0
C3619 C 0.38159 0.4924 0.22896 0.0
C3620 C 0.39347 0.4961 0.20199 0.0
C3621 C 0.40543 0.50809 0.20818 0.0
C3622 C 0.406 0.51578 0.24098 0.0
H3623 H 0.3615 0.54278 0.31085 0.0
H3624 H 0.37117 0.53594 0.26995 0.0
H3625 H 0.36041 0.52256 0.29884 0.0
H3626 H 0.37344 0.49671 0.28301 0.0
H3627 H 0.37231 0.48313 0.22505 0.0
H3628 H 0.75655 0.17963 0.45927 0.0
H3629 H 0.7392 0.1783 0.51286 0.0
H3630 H 0.75264 0.13056 0.52639 0.0
H3631 H 0.77006 0.13172 0.4715 0.0
H3632 H 0.71841 0.13569 0.53863 0.0
H3633 H 0.75668 0.17875 0.61419 0.0
H3634 H 0.75086 0.18624 0.57159 0.0
H3635 H 0.76444 0.16965 0.57386 0.0
C3636 C 0.75594 0.16881 0.47358 0.0
C3637 C 0.76489 0.15582 0.46136 0.0
C3638 C 0.74607 0.16812 0.50444 0.0
C3639 C 0.74505 0.1545 0.5243 0.0
C3640 C 0.75348 0.14127 0.51171 0.0
H3641 H 0.69 0.17119 0.72585 0.0
H3642 H 0.71253 0.1622 0.68535 0.0
C3643 C 0.76336 0.14192 0.48037 0.0
C3644 C 0.73465 0.15432 0.55748 0.0
H3645 H 0.72703 0.17597 0.63223 0.0
C3646 C 0.72049 0.14426 0.55954 0.0
C3647 C 0.73756 0.16522 0.5853 0.0
C3648 C 0.75334 0.17545 0.58633 0.0
C3649 C 0.70844 0.14563 0.58721 0.0
C3650 C 0.71039 0.15768 0.61286 0.0
C3651 C 0.72528 0.16691 0.61231 0.0
C3652 C 0.69655 0.16184 0.63828 0.0
C3653 C 0.69363 0.1343 0.58821 0.0
C3654 C 0.68012 0.16477 0.62539 0.0
C3655 C 0.66724 0.16961 0.64847 0.0
C3656 C 0.67056 0.17204 0.68492 0.0
C3657 C 0.68704 0.1693 0.69792 0.0
C3658 C 0.69991 0.16418 0.6748 0.0
H3659 H 0.69734 0.12289 0.57703 0.0
H3660 H 0.68878 0.13263 0.61578 0.0
H3661 H 0.68312 0.13868 0.57147 0.0
H3662 H 0.67733 0.16373 0.59719 0.0
H3663 H 0.65479 0.17191 0.63743 0.0
H3664 H 0.88135 0.46381 0.39452 0.0
H3665 H 0.88447 0.47432 0.33396 0.0
H3666 H 0.89099 0.52017 0.37845 0.0
H3667 H 0.88822 0.5098 0.43851 0.0
H3668 H 0.86838 0.49957 0.29389 0.0
H3669 H 0.9365 0.51078 0.32571 0.0
H3670 H 0.92302 0.49829 0.35234 0.0
H3671 H 0.92221 0.51894 0.35804 0.0
C3672 C 0.88292 0.47618 0.3912 0.0
C3673 C 0.88464 0.48602 0.4211 0.0
C3674 C 0.8848 0.48214 0.3567 0.0
C3675 C 0.88831 0.49796 0.35193 0.0
C3676 C 0.88859 0.50789 0.38167 0.0
H3677 H 0.89348 0.56542 0.19148 0.0
H3678 H 0.88409 0.546 0.23449 0.0
C3679 C 0.88692 0.50197 0.41593 0.0
C3680 C 0.89317 0.50414 0.31661 0.0
H3681 H 0.92543 0.52391 0.27515 0.0
C3682 C 0.88091 0.50469 0.28947 0.0
C3683 C 0.90966 0.51051 0.3107 0.0
C3684 C 0.92367 0.50948 0.33811 0.0
C3685 C 0.88444 0.51236 0.25729 0.0
C3686 C 0.90051 0.51975 0.2526 0.0
C3687 C 0.91306 0.51835 0.27891 0.0
C3688 C 0.90431 0.53002 0.22215 0.0
C3689 C 0.87093 0.51266 0.22878 0.0
C3690 C 0.91871 0.52743 0.20074 0.0
C3691 C 0.92419 0.53856 0.17635 0.0
C3692 C 0.91543 0.55256 0.17316 0.0
C3693 C 0.9005 0.55478 0.19331 0.0
C3694 C 0.89503 0.54362 0.21771 0.0
H3695 H 0.86171 0.50286 0.23156 0.0
H3696 H 0.86373 0.52357 0.23126 0.0
H3697 H 0.87674 0.51219 0.20173 0.0
H3698 H 0.92612 0.51706 0.20394 0.0
H3699 H 0.9357 0.53644 0.16112 0.0
H3700 H 0.22763 0.14834 0.89687 0.0
H3701 H 0.24755 0.14495 0.94648 0.0
H3702 H 0.20745 0.15538 0.02155 0.0
H3703 H 0.18752 0.15862 0.9726 0.0
H3704 H 0.25609 0.16796 0.99762 0.0
H3705 H 0.22804 0.116 0.06228 0.0
H3706 H 0.22306 0.12131 0.01703 0.0
H3707 H 0.21288 0.13088 0.05398 0.0
C3708 C 0.22301 0.14967 0.92397 0.0
C3709 C 0.20599 0.1537 0.93078 0.0
C3710 C 0.23439 0.14776 0.95223 0.0
C3711 C 0.22887 0.14968 0.98764 0.0
C3712 C 0.21186 0.1535 0.99446 0.0
H3713 H 0.2769 0.16917 0.18859 0.0
H3714 H 0.25713 0.16532 0.13868 0.0
C3715 C 0.20052 0.15545 0.96636 0.0
C3716 C 0.24107 0.14884 0.01755 0.0
H3717 H 0.24818 0.13087 0.09679 0.0
C3718 C 0.25452 0.15972 0.01904 0.0
C3719 C 0.23889 0.13811 0.04553 0.0
C3720 C 0.22503 0.12582 0.04457 0.0
C3721 C 0.26555 0.16044 0.04838 0.0
C3722 C 0.26309 0.14998 0.07668 0.0
C3723 C 0.2499 0.13889 0.07497 0.0
C3724 C 0.27409 0.15068 0.10843 0.0
C3725 C 0.27957 0.17259 0.04956 0.0
C3726 C 0.2899 0.14337 0.10803 0.0
C3727 C 0.30122 0.14552 0.1364 0.0
C3728 C 0.29687 0.15505 0.16555 0.0
C3729 C 0.28063 0.16176 0.16655 0.0
C3730 C 0.26933 0.15959 0.13812 0.0
H3731 H 0.27958 0.18009 0.02567 0.0
H3732 H 0.27807 0.17996 0.07375 0.0
H3733 H 0.29215 0.16693 0.0514 0.0
H3734 H 0.29371 0.13644 0.08521 0.0
H3735 H 0.31359 0.14014 0.13488 0.0
H3736 H 0.54652 0.4469 0.66101 0.0
H3737 H 0.55674 0.46293 0.7111 0.0
H3738 H 0.59954 0.43285 0.72431 0.0
H3739 H 0.5896 0.41687 0.6743 0.0
H3740 H 0.57422 0.43695 0.78538 0.0
H3741 H 0.60212 0.49137 0.73059 0.0
H3742 H 0.58291 0.48364 0.71037 0.0
H3743 H 0.60243 0.47324 0.7062 0.0
C3744 C 0.55838 0.44396 0.67385 0.0
C3745 C 0.56715 0.4305 0.66389 0.0
C3746 C 0.56421 0.45314 0.70245 0.0
C3747 C 0.57888 0.44903 0.72132 0.0
C3748 C 0.58822 0.43621 0.70998 0.0
H3749 H 0.61983 0.49681 0.91199 0.0
H3750 H 0.61779 0.48328 0.85406 0.0
C3751 C 0.58248 0.42709 0.6814 0.0
C3752 C 0.5831 0.45669 0.75572 0.0
H3753 H 0.59824 0.49028 0.79326 0.0
C3754 C 0.57958 0.44858 0.78715 0.0
C3755 C 0.59028 0.47174 0.75779 0.0
C3756 C 0.59479 0.48058 0.72453 0.0
C3757 C 0.58258 0.45529 0.82078 0.0
C3758 C 0.58907 0.47063 0.82303 0.0
C3759 C 0.59317 0.47856 0.7915 0.0
C3760 C 0.59058 0.47888 0.85781 0.0
C3761 C 0.57868 0.44587 0.85359 0.0
C3762 C 0.57598 0.48104 0.87882 0.0
C3763 C 0.57712 0.48856 0.91179 0.0
C3764 C 0.59289 0.49433 0.92442 0.0
C3765 C 0.60753 0.49241 0.90311 0.0
C3766 C 0.60637 0.48474 0.87001 0.0
H3767 H 0.57902 0.43327 0.84769 0.0
H3768 H 0.58785 0.44858 0.87538 0.0
H3769 H 0.56564 0.44857 0.86321 0.0
H3770 H 0.5636 0.47696 0.86959 0.0
H3771 H 0.56552 0.49 0.92717 0.0
H3772 H 0.22652 0.85634 0.66535 0.0
H3773 H 0.24118 0.85787 0.60726 0.0
H3774 H 0.25859 0.81121 0.61961 0.0
H3775 H 0.2442 0.80956 0.67713 0.0
H3776 H 0.27775 0.85175 0.58937 0.0
H3777 H 0.23213 0.81141 0.52252 0.0
H3778 H 0.22711 0.82149 0.56358 0.0
H3779 H 0.24012 0.80457 0.56427 0.0
C3780 C 0.23361 0.84647 0.6558 0.0
C3781 C 0.23407 0.83279 0.67581 0.0
C3782 C 0.24193 0.84735 0.62261 0.0
C3783 C 0.25068 0.83454 0.6089 0.0
C3784 C 0.25163 0.82112 0.62941 0.0
H3785 H 0.30981 0.79861 0.44052 0.0
H3786 H 0.29092 0.80467 0.4902 0.0
C3787 C 0.24343 0.82025 0.66242 0.0
C3788 C 0.25885 0.83486 0.57314 0.0
H3789 H 0.25883 0.81572 0.49308 0.0
C3790 C 0.27349 0.84411 0.56797 0.0
C3791 C 0.2532 0.82489 0.54535 0.0
C3792 C 0.23718 0.81511 0.54896 0.0
C3793 C 0.2833 0.84289 0.53656 0.0
C3794 C 0.27806 0.83237 0.50937 0.0
C3795 C 0.2629 0.82373 0.51392 0.0
C3796 C 0.28892 0.82895 0.4777 0.0
C3797 C 0.29968 0.8522 0.53373 0.0
C3798 C 0.29385 0.84051 0.4535 0.0
C3799 C 0.30486 0.8371 0.42502 0.0
C3800 C 0.31096 0.82201 0.42002 0.0
C3801 C 0.30544 0.81037 0.44354 0.0
C3802 C 0.29459 0.81381 0.47202 0.0
H3803 H 0.30365 0.85721 0.55987 0.0
H3804 H 0.31018 0.84496 0.52325 0.0
H3805 H 0.29783 0.86188 0.51499 0.0
H3806 H 0.28929 0.85219 0.45677 0.0
H3807 H 0.30874 0.8463 0.40722 0.0
H3808 H 0.58609 0.91516 0.40448 0.0
H3809 H 0.59785 0.93443 0.36382 0.0
H3810 H 0.57617 0.97084 0.42801 0.0
H3811 H 0.56413 0.95157 0.46879 0.0
H3812 H 0.56683 0.97204 0.35791 0.0
H3813 H 0.63687 0.96614 0.36661 0.0
H3814 H 0.62608 0.94783 0.36109 0.0
H3815 H 0.62248 0.95916 0.40084 0.0
C3816 C 0.58411 0.92727 0.41046 0.0
C3817 C 0.5741 0.93181 0.43982 0.0
C3818 C 0.59099 0.9383 0.3873 0.0
C3819 C 0.58811 0.95409 0.39314 0.0
C3820 C 0.57868 0.95871 0.42321 0.0
H3821 H 0.61965 0.0231 0.23138 0.0
H3822 H 0.61847 0.00967 0.28919 0.0
C3823 C 0.5718 0.94768 0.44646 0.0
C3824 C 0.59297 0.96542 0.36531 0.0
H3825 H 0.62613 0.9771 0.31206 0.0
C3826 C 0.57986 0.97341 0.34844 0.0
C3827 C 0.60998 0.96732 0.3531 0.0
C3828 C 0.62469 0.95978 0.37161 0.0
C3829 C 0.58313 0.98244 0.31829 0.0
C3830 C 0.59992 0.98334 0.3044 0.0
C3831 C 0.61324 0.97621 0.32256 0.0
C3832 C 0.6033 0.99036 0.26921 0.0
C3833 C 0.56846 0.99049 0.30073 0.0
C3834 C 0.59588 0.98354 0.23885 0.0
C3835 C 0.59645 0.99115 0.20634 0.0
C3836 C 0.60473 0.00558 0.2034 0.0
C3837 C 0.61338 0.01188 0.23304 0.0
C3838 C 0.61261 0.00429 0.26596 0.0
H3839 H 0.55771 0.99229 0.31965 0.0
H3840 H 0.57258 0.00187 0.28995 0.0
H3841 H 0.56364 0.98325 0.27822 0.0
H3842 H 0.58887 0.97268 0.24075 0.0
H3843 H 0.58973 0.98607 0.18377 0.0
H3844 H 0.21152 0.31421 0.43198 0.0
H3845 H 0.23128 0.31939 0.48127 0.0
H3846 H 0.19847 0.35523 0.52101 0.0
H3847 H 0.17863 0.35022 0.47187 0.0
H3848 H 0.24709 0.35084 0.5095 0.0
H3849 H 0.20248 0.31866 0.59916 0.0
H3850 H 0.20274 0.3156 0.55144 0.0
H3851 H 0.19367 0.33283 0.5698 0.0
C3852 C 0.20865 0.3234 0.45079 0.0
C3853 C 0.19339 0.33168 0.44829 0.0
C3854 C 0.21996 0.32634 0.47886 0.0
C3855 C 0.21617 0.33757 0.50477 0.0
C3856 C 0.2015 0.34646 0.50125 0.0
H3857 H 0.28299 0.36383 0.68383 0.0
H3858 H 0.2623 0.36526 0.63504 0.0
C3859 C 0.1902 0.34356 0.47318 0.0
C3860 C 0.22674 0.33902 0.53712 0.0
H3861 H 0.22754 0.32898 0.62484 0.0
C3862 C 0.24285 0.34619 0.53485 0.0
C3863 C 0.22111 0.33275 0.56983 0.0
C3864 C 0.2041 0.32443 0.57298 0.0
C3865 C 0.25363 0.34715 0.56466 0.0
C3866 C 0.24796 0.34096 0.59756 0.0
C3867 C 0.23175 0.33388 0.59973 0.0
C3868 C 0.25919 0.34045 0.62919 0.0
C3869 C 0.27123 0.35424 0.56034 0.0
C3870 C 0.26358 0.32609 0.6432 0.0
C3871 C 0.27512 0.32525 0.67127 0.0
C3872 C 0.28261 0.33877 0.68584 0.0
C3873 C 0.27758 0.35321 0.67294 0.0
C3874 C 0.26588 0.35404 0.6449 0.0
H3875 H 0.27492 0.35533 0.53182 0.0
H3876 H 0.27145 0.36598 0.57249 0.0
H3877 H 0.28093 0.34722 0.57404 0.0
H3878 H 0.25846 0.31547 0.63165 0.0
H3879 H 0.27859 0.31392 0.6807 0.0
H3880 H 0.94394 0.0452 0.95843 0.0
H3881 H 0.93239 0.02842 0.91108 0.0
H3882 H 0.89473 0.06257 0.88691 0.0
H3883 H 0.90641 0.07954 0.93358 0.0
H3884 H 0.90052 0.01534 0.89539 0.0
H3885 H 0.92009 0.05799 0.79259 0.0
H3886 H 0.92708 0.05946 0.83829 0.0
H3887 H 0.90605 0.06553 0.82619 0.0
C3888 C 0.93304 0.04905 0.9434 0.0
C3889 C 0.92624 0.0638 0.94948 0.0
C3890 C 0.92646 0.03945 0.91631 0.0
C3891 C 0.91295 0.0444 0.89489 0.0
C3892 C 0.90543 0.05868 0.90249 0.0
H3893 H 0.87317 0.00296 0.69548 0.0
H3894 H 0.87405 0.01767 0.75209 0.0
C3895 C 0.91207 0.06833 0.92935 0.0
C3896 C 0.90742 0.03504 0.86342 0.0
H3897 H 0.90527 0.0357 0.77237 0.0
C3898 C 0.90145 0.01983 0.86852 0.0
C3899 C 0.90872 0.04087 0.82829 0.0
C3900 C 0.91597 0.0568 0.82083 0.0
C3901 C 0.89687 0.01027 0.83941 0.0
C3902 C 0.89835 0.01607 0.80439 0.0
C3903 C 0.90392 0.03138 0.79932 0.0
C3904 C 0.89616 0.00599 0.77248 0.0
C3905 C 0.89068 0.99397 0.8462 0.0
C3906 C 0.90818 0.99453 0.76546 0.0
C3907 C 0.90782 0.98632 0.73327 0.0
C3908 C 0.89535 0.98932 0.70744 0.0
C3909 C 0.88281 0.00032 0.71506 0.0
C3910 C 0.88334 0.00874 0.74726 0.0
H3911 H 0.8863 0.99247 0.87419 0.0
H3912 H 0.88005 0.99076 0.82791 0.0
H3913 H 0.90128 0.98588 0.84117 0.0
H3914 H 0.91832 0.99238 0.78428 0.0
H3915 H 0.91764 0.97789 0.72818 0.0
H3916 H 0.15734 0.65531 0.15818 0.0
H3917 H 0.17844 0.64904 0.11236 0.0
H3918 H 0.21586 0.67783 0.16609 0.0
H3919 H 0.19485 0.68412 0.21241 0.0
H3920 H 0.20841 0.6843 0.08955 0.0
H3921 H 0.22408 0.62304 0.1158 0.0
H3922 H 0.20187 0.62789 0.11946 0.0
H3923 H 0.21696 0.6362 0.15033 0.0
C3924 C 0.17014 0.66009 0.1607 0.0
C3925 C 0.17439 0.67024 0.18892 0.0
C3926 C 0.1822 0.65643 0.13456 0.0
C3927 C 0.19871 0.66287 0.13607 0.0
C3928 C 0.20319 0.67266 0.16469 0.0
H3929 H 0.27495 0.64392 0.96852 0.0
H3930 H 0.26133 0.64648 0.02735 0.0
C3931 C 0.19117 0.67622 0.19109 0.0
C3932 C 0.21054 0.66061 0.10572 0.0
H3933 H 0.23156 0.6328 0.05848 0.0
C3934 C 0.21369 0.67311 0.08299 0.0
C3935 C 0.21753 0.64604 0.09752 0.0
C3936 C 0.21511 0.6325 0.12213 0.0
C3937 C 0.22296 0.67123 0.05122 0.0
C3938 C 0.22902 0.6564 0.04177 0.0
C3939 C 0.22669 0.64409 0.06553 0.0
C3940 C 0.23692 0.65339 0.00646 0.0
C3941 C 0.22593 0.68511 0.02776 0.0
C3942 C 0.22749 0.65579 0.97531 0.0
C3943 C 0.23519 0.65435 0.94187 0.0
C3944 C 0.25244 0.65031 0.93884 0.0
C3945 C 0.26161 0.64699 0.96999 0.0
C3946 C 0.25389 0.64852 0.00359 0.0
H3947 H 0.2251 0.69609 0.04324 0.0
H3948 H 0.23861 0.68468 0.01452 0.0
H3949 H 0.21598 0.68526 0.00678 0.0
H3950 H 0.21426 0.65917 0.97692 0.0
H3951 H 0.22774 0.65686 0.9184 0.0
H3952 H 0.37063 0.97307 0.90343 0.0
H3953 H 0.3688 0.98701 0.84647 0.0
H3954 H 0.4147 0.01268 0.87303 0.0
H3955 H 0.41672 -0.00118 0.92899 0.0
H3956 H 0.36805 0.01917 0.82783 0.0
H3957 H 0.42667 0.99143 0.77805 0.0
H3958 H 0.41504 0.98441 0.81642 0.0
H3959 H 0.42988 0.00041 0.82088 0.0
C3960 C 0.38014 0.98185 0.89724 0.0
C3961 C 0.39393 0.98471 0.92045 0.0
C3962 C 0.37914 0.98976 0.86469 0.0
C3963 C 0.39188 0.00059 0.85511 0.0
C3964 C 0.40499 0.00408 0.87938 0.0
H3965 H 0.40533 0.0766 0.719 0.0
H3966 H 0.39508 0.05805 0.76275 0.0
C3967 C 0.40607 -0.00382 0.91149 0.0
C3968 C 0.39216 0.00806 0.81955 0.0
H3969 H 0.4189 0.01504 0.74931 0.0
C3970 C 0.379 0.01808 0.81027 0.0
C3971 C 0.40622 0.00636 0.79612 0.0
C3972 C 0.42016 0.99493 0.80316 0.0
C3973 C 0.38016 0.02724 0.77946 0.0
C3974 C 0.39503 0.0266 0.75787 0.0
C3975 C 0.40757 0.01576 0.76592 0.0
C3976 C 0.39872 0.03792 0.72897 0.0
C3977 C 0.36551 0.03763 0.77067 0.0
C3978 C 0.40431 0.0329 0.69515 0.0
C3979 C 0.4105 0.04355 0.67008 0.0
C3980 C 0.41126 0.05945 0.67837 0.0
C3981 C 0.40487 0.06448 0.71155 0.0
C3982 C 0.39882 0.05384 0.73662 0.0
H3983 H 0.35321 0.03262 0.78028 0.0
H3984 H 0.36743 0.04894 0.78439 0.0
H3985 H 0.36457 0.03962 0.74153 0.0
H3986 H 0.40447 0.02068 0.68861 0.0
H3987 H 0.41535 0.03926 0.64484 0.0
H3988 H 0.7946 0.62851 0.6814 0.0
H3989 H 0.77608 0.62534 0.62909 0.0
H3990 H 0.76662 0.67428 0.62986 0.0
H3991 H 0.785 0.67763 0.68194 0.0
H3992 H 0.73638 0.65066 0.61977 0.0
H3993 H 0.79203 0.6455 0.5276 0.0
H3994 H 0.79215 0.63505 0.56901 0.0
H3995 H 0.79353 0.65574 0.56973 0.0
C3996 C 0.78842 0.63857 0.67072 0.0
C3997 C 0.79145 0.65334 0.68559 0.0
C3998 C 0.77791 0.63673 0.64081 0.0
C3999 C 0.77023 0.64961 0.62552 0.0
C4000 C 0.77254 0.66423 0.64127 0.0
H4001 H 0.72111 0.67087 0.42832 0.0
H4002 H 0.74092 0.66865 0.47822 0.0
C4003 C 0.78307 0.6661 0.67102 0.0
C4004 C 0.76029 0.64803 0.59224 0.0
H4005 H 0.76463 0.64445 0.50184 0.0
C4006 C 0.74249 0.64914 0.594 0.0
C4007 C 0.76842 0.64632 0.55876 0.0
C4008 C 0.7876 0.64563 0.55578 0.0
C4009 C 0.73255 0.64856 0.56294 0.0
C4010 C 0.74065 0.64669 0.52941 0.0
C4011 C 0.75848 0.64566 0.52766 0.0
C4012 C 0.73072 0.64664 0.49593 0.0
C4013 C 0.71348 0.65041 0.56607 0.0
C4014 C 0.719 0.63464 0.48847 0.0
C4015 C 0.70764 0.63586 0.45999 0.0
C4016 C 0.70784 0.64912 0.43857 0.0
C4017 C 0.72051 0.66057 0.4445 0.0
C4018 C 0.73186 0.65932 0.47298 0.0
H4019 H 0.70961 0.65456 0.593 0.0
H4020 H 0.70884 0.65867 0.54591 0.0
H4021 H 0.70706 0.63908 0.56098 0.0
H4022 H 0.71813 0.62466 0.50565 0.0
H4023 H 0.69818 0.62676 0.45594 0.0
H4024 H 0.04874 0.94208 0.15956 0.0
H4025 H 0.05841 0.95946 0.20748 0.0
H4026 H 0.10063 0.92955 0.22838 0.0
H4027 H 0.09113 0.91208 0.18047 0.0
H4028 H 0.07625 0.93578 0.28757 0.0
H4029 H 0.1016 0.98911 0.22307 0.0
H4030 H 0.08217 0.98078 0.2053 0.0
H4031 H 0.10172 0.97042 0.20105 0.0
C4032 C 0.06033 0.93936 0.17372 0.0
C4033 C 0.06906 0.92557 0.1664 0.0
C4034 C 0.06587 0.94936 0.20103 0.0
C4035 C 0.08026 0.9458 0.22137 0.0
C4036 C 0.08953 0.93251 0.21287 0.0
H4037 H 0.11787 -0.00093 0.40806 0.0
H4038 H 0.11723 0.98356 0.35257 0.0
C4039 C 0.08405 0.92254 0.18549 0.0
C4040 C 0.08423 0.95472 0.25432 0.0
H4041 H 0.0971 0.99022 0.28573 0.0
C4042 C 0.08102 0.94762 0.28719 0.0
C4043 C 0.09041 0.97015 0.25367 0.0
C4044 C 0.09431 0.97812 0.21895 0.0
C4045 C 0.08334 0.95568 0.31949 0.0
C4046 C 0.08904 0.97126 0.31889 0.0
C4047 C 0.09279 0.97825 0.28606 0.0
C4048 C 0.08975 0.98076 0.35197 0.0
C4049 C 0.07935 0.94755 0.35403 0.0
C4050 C 0.07454 0.98438 0.36965 0.0
C4051 C 0.07486 0.99317 0.40099 0.0
C4052 C 0.09042 -0.00141 0.41547 0.0
C4053 C 0.10571 -0.00499 0.39767 0.0
C4054 C 0.10536 0.98622 0.36598 0.0
H4055 H 0.07928 0.93477 0.35063 0.0
H4056 H 0.08876 0.95085 0.37497 0.0
H4057 H 0.06651 0.95099 0.36349 0.0
H4058 H 0.06237 0.98041 0.3591 0.0
H4059 H 0.06281 -0.00431 0.41387 0.0
H4060 H 0.73496 0.35586 0.16837 0.0
H4061 H 0.75331 0.35805 0.11516 0.0
H4062 H 0.73407 0.314 0.07681 0.0
H4063 H 0.71595 0.31169 0.12949 0.0
H4064 H 0.77853 0.33411 0.09709 0.0
H4065 H 0.73175 0.34314 0.98869 0.0
H4066 H 0.72727 0.34777 0.03488 0.0
H4067 H 0.72608 0.32807 0.01941 0.0
C4068 C 0.73445 0.34681 0.14822 0.0
C4069 C 0.7241 0.33358 0.15311 0.0
C4070 C 0.74492 0.34806 0.11796 0.0
C4071 C 0.74486 0.33626 0.09196 0.0
C4072 C 0.73409 0.32334 0.09629 0.0
H4073 H 0.79949 0.30121 0.91287 0.0
H4074 H 0.7786 0.30855 0.9583 0.0
C4075 C 0.72384 0.32199 0.12656 0.0
C4076 C 0.75712 0.3365 0.06191 0.0
H4077 H 0.75942 0.33466 0.97103 0.0
C4078 C 0.77446 0.33455 0.06949 0.0
C4079 C 0.75165 0.33683 0.02605 0.0
C4080 C 0.73319 0.33919 0.01662 0.0
C4081 C 0.78641 0.33218 0.0421 0.0
C4082 C 0.7809 0.33224 0.00615 0.0
C4083 C 0.76362 0.33467 0.99858 0.0
C4084 C 0.79273 0.32885 0.97627 0.0
C4085 C 0.80463 0.3288 0.05203 0.0
C4086 C 0.8073 0.33813 0.97049 0.0
C4087 C 0.81933 0.3339 0.94475 0.0
C4088 C 0.81688 0.32042 0.92403 0.0
C4089 C 0.80178 0.31164 0.92845 0.0
C4090 C 0.78982 0.31582 0.9544 0.0
H4091 H 0.8058 0.32551 0.08049 0.0
H4092 H 0.80977 0.3193 0.0352 0.0
H4093 H 0.81267 0.33928 0.04771 0.0
H4094 H 0.80957 0.34843 0.98649 0.0
H4095 H 0.83074 0.34099 0.94172 0.0
loop_
_geom_bond_atom_site_label_1
_geom_bond_atom_site_label_2
_geom_bond_distance
_geom_bond_site_symmetry_2
_ccdc_geom_bond_type
Zn0 O6 1.969 . S
Zn0 O7 1.965 . S
Zn0 O11 2.024 . S
Zn0 O16 1.969 . S
Zn1 O8 1.969 . S
Zn1 O14 1.969 . S
Zn1 O15 1.965 . S
Zn1 O17 2.024 . S
C2 O3 1.229 . S
C2 O11 1.058 . S
O3 C2 1.229 . S
C4 O5 1.229 . S
C4 O17 1.058 1_556 S
O5 C4 1.229 . S
O6 Zn0 1.969 . S
O6 C9 1.267 . S
O7 Zn0 1.965 . S
O7 C18 1.260 . S
O8 Zn1 1.969 . S
O8 C18 1.258 . S
C9 O6 1.267 . S
C9 O10 1.228 . S
O10 C9 1.228 . S
O11 Zn0 2.024 . S
O11 C2 1.058 . S
C12 O13 1.228 . S
C12 O14 1.267 1_556 S
O13 C12 1.228 . S
O14 Zn1 1.969 . S
O14 C12 1.267 1_554 S
O15 Zn1 1.965 . S
O15 C19 1.260 . S
O16 Zn0 1.969 . S
O16 C19 1.258 . S
O17 Zn1 2.024 . S
O17 C4 1.058 1_554 S
C18 O7 1.260 . S
C18 O8 1.258 . S
C19 O15 1.260 . S
C19 O16 1.258 . S
Zn20 O26 1.969 . S
Zn20 O27 1.965 . S
Zn20 O31 2.024 . S
Zn20 O36 1.969 . S
Zn21 O28 1.969 . S
Zn21 O34 1.969 . S
Zn21 O35 1.965 . S
Zn21 O37 2.024 . S
C22 O23 1.229 . S
C22 O31 1.058 . S
O23 C22 1.229 . S
C24 O25 1.229 . S
C24 O37 1.058 . S
O25 C24 1.229 . S
O26 Zn20 1.969 . S
O26 C29 1.267 . S
O27 Zn20 1.965 . S
O27 C38 1.260 . S
O28 Zn21 1.969 . S
O28 C38 1.258 . S
C29 O26 1.267 . S
C29 O30 1.228 . S
O30 C29 1.228 . S
O31 Zn20 2.024 . S
O31 C22 1.058 . S
C32 O33 1.228 . S
C32 O34 1.267 . S
O33 C32 1.228 . S
O34 Zn21 1.969 . S
O34 C32 1.267 . S
O35 Zn21 1.965 . S
O35 C39 1.260 . S
O36 Zn20 1.969 . S
O36 C39 1.258 . S
O37 Zn21 2.024 . S
O37 C24 1.058 . S
C38 O27 1.260 . S
C38 O28 1.258 . S
C39 O35 1.260 . S
C39 O36 1.258 . S
Zn40 O46 1.969 . S
Zn40 O47 1.965 . S
Zn40 O51 2.024 . S
Zn40 O56 1.969 . S
Zn41 O48 1.969 . S
Zn41 O54 1.969 . S
Zn41 O55 1.965 . S
Zn41 O57 2.024 . S
C42 O43 1.229 . S
C42 O51 1.058 . S
O43 C42 1.229 . S
C44 O45 1.229 . S
C44 O57 1.058 . S
O45 C44 1.229 . S
O46 Zn40 1.969 . S
O46 C49 1.267 . S
O47 Zn40 1.965 . S
O47 C58 1.260 . S
O48 Zn41 1.969 . S
O48 C58 1.258 . S
C49 O46 1.267 . S
C49 O50 1.228 . S
O50 C49 1.228 . S
O51 Zn40 2.024 . S
O51 C42 1.058 . S
C52 O53 1.228 . S
C52 O54 1.267 . S
O53 C52 1.228 . S
O54 Zn41 1.969 . S
O54 C52 1.267 . S
O55 Zn41 1.965 . S
O55 C59 1.260 . S
O56 Zn40 1.969 . S
O56 C59 1.258 . S
O57 Zn41 2.024 . S
O57 C44 1.058 . S
C58 O47 1.260 . S
C58 O48 1.258 . S
C59 O55 1.260 . S
C59 O56 1.258 . S
Zn60 O66 1.969 . S
Zn60 O67 1.965 . S
Zn60 O71 2.024 . S
Zn60 O76 1.969 . S
Zn61 O68 1.969 . S
Zn61 O74 1.969 . S
Zn61 O75 1.965 . S
Zn61 O77 2.024 . S
C62 O63 1.229 . S
C62 O71 1.058 . S
O63 C62 1.229 . S
C64 O65 1.229 . S
C64 O77 1.058 . S
O65 C64 1.229 . S
O66 Zn60 1.969 . S
O66 C69 1.267 . S
O67 Zn60 1.965 . S
O67 C78 1.260 . S
O68 Zn61 1.969 . S
O68 C78 1.258 . S
C69 O66 1.267 . S
C69 O70 1.228 . S
O70 C69 1.228 . S
O71 Zn60 2.024 . S
O71 C62 1.058 . S
C72 O73 1.228 . S
C72 O74 1.267 . S
O73 C72 1.228 . S
O74 Zn61 1.969 . S
O74 C72 1.267 . S
O75 Zn61 1.965 . S
O75 C79 1.260 . S
O76 Zn60 1.969 . S
O76 C79 1.258 . S
O77 Zn61 2.024 . S
O77 C64 1.058 . S
C78 O67 1.260 . S
C78 O68 1.258 . S
C79 O75 1.260 . S
C79 O76 1.258 . S
Zn80 O86 1.969 . S
Zn80 O87 1.965 . S
Zn80 O91 2.024 . S
Zn80 O96 1.969 . S
Zn81 O88 1.969 . S
Zn81 O94 1.969 . S
Zn81 O95 1.965 . S
Zn81 O97 2.024 . S
C82 O83 1.229 . S
C82 O91 1.058 . S
O83 C82 1.229 . S
C84 O85 1.229 . S
C84 O97 1.058 . S
O85 C84 1.229 . S
O86 Zn80 1.969 . S
O86 C89 1.267 . S
O87 Zn80 1.965 . S
O87 C98 1.260 . S
O88 Zn81 1.969 . S
O88 C98 1.258 . S
C89 O86 1.267 . S
C89 O90 1.228 . S
O90 C89 1.228 . S
O91 Zn80 2.024 . S
O91 C82 1.058 . S
C92 O93 1.228 . S
C92 O94 1.267 . S
O93 C92 1.228 . S
O94 Zn81 1.969 . S
O94 C92 1.267 . S
O95 Zn81 1.965 . S
O95 C99 1.260 . S
O96 Zn80 1.969 . S
O96 C99 1.258 . S
O97 Zn81 2.024 . S
O97 C84 1.058 . S
C98 O87 1.260 . S
C98 O88 1.258 . S
C99 O95 1.260 . S
C99 O96 1.258 . S
Zn100 O106 1.969 . S
Zn100 O107 1.965 . S
Zn100 O111 2.024 . S
Zn100 O116 1.969 . S
Zn101 O108 1.969 . S
Zn101 O114 1.969 . S
Zn101 O115 1.965 . S
Zn101 O117 2.024 . S
C102 O103 1.229 . S
C102 O111 1.058 . S
O103 C102 1.229 . S
C104 O105 1.229 . S
C104 O117 1.058 . S
O105 C104 1.229 . S
O106 Zn100 1.969 . S
O106 C109 1.267 . S
O107 Zn100 1.965 . S
O107 C118 1.260 . S
O108 Zn101 1.969 . S
O108 C118 1.258 . S
C109 O106 1.267 . S
C109 O110 1.228 . S
O110 C109 1.228 . S
O111 Zn100 2.024 . S
O111 C102 1.058 . S
C112 O113 1.228 . S
C112 O114 1.267 . S
O113 C112 1.228 . S
O114 Zn101 1.969 . S
O114 C112 1.267 . S
O115 Zn101 1.965 . S
O115 C119 1.260 . S
O116 Zn100 1.969 . S
O116 C119 1.258 . S
O117 Zn101 2.024 . S
O117 C104 1.058 . S
C118 O107 1.260 . S
C118 O108 1.258 . S
C119 O115 1.260 . S
C119 O116 1.258 . S
Zn120 O126 1.969 . S
Zn120 O127 1.965 . S
Zn120 O131 2.024 . S
Zn120 O136 1.969 . S
Zn121 O128 1.969 1_556 S
Zn121 O134 1.969 . S
Zn121 O135 1.965 1_556 S
Zn121 O137 2.024 . S
C122 O123 1.229 . S
C122 O131 1.058 . S
O123 C122 1.229 . S
C124 O125 1.229 . S
C124 O137 1.058 . S
O125 C124 1.229 . S
O126 Zn120 1.969 . S
O126 C129 1.267 . S
O127 Zn120 1.965 . S
O127 C138 1.260 . S
O128 Zn121 1.969 1_554 S
O128 C138 1.258 . S
C129 O126 1.267 . S
C129 O130 1.228 . S
O130 C129 1.228 . S
O131 Zn120 2.024 . S
O131 C122 1.058 . S
C132 O133 1.228 . S
C132 O134 1.267 . S
O133 C132 1.228 . S
O134 Zn121 1.969 . S
O134 C132 1.267 . S
O135 Zn121 1.965 1_554 S
O135 C139 1.260 . S
O136 Zn120 1.969 . S
O136 C139 1.258 . S
O137 Zn121 2.024 . S
O137 C124 1.058 . S
C138 O127 1.260 . S
C138 O128 1.258 . S
C139 O135 1.260 . S
C139 O136 1.258 . S
Zn140 O146 1.969 . S
Zn140 O147 1.965 . S
Zn140 O151 2.024 . S
Zn140 O156 1.969 . S
Zn141 O148 1.969 . S
Zn141 O154 1.969 . S
Zn141 O155 1.965 . S
Zn141 O157 2.024 . S
C142 O143 1.229 . S
C142 O151 1.058 . S
O143 C142 1.229 . S
C144 O145 1.229 . S
C144 O157 1.058 . S
O145 C144 1.229 . S
O146 Zn140 1.969 . S
O146 C149 1.267 . S
O147 Zn140 1.965 . S
O147 C158 1.260 . S
O148 Zn141 1.969 . S
O148 C158 1.258 . S
C149 O146 1.267 . S
C149 O150 1.228 . S
O150 C149 1.228 . S
O151 Zn140 2.024 . S
O151 C142 1.058 . S
C152 O153 1.228 . S
C152 O154 1.267 . S
O153 C152 1.228 . S
O154 Zn141 1.969 . S
O154 C152 1.267 . S
O155 Zn141 1.965 . S
O155 C159 1.260 . S
O156 Zn140 1.969 . S
O156 C159 1.258 . S
O157 Zn141 2.024 . S
O157 C144 1.058 . S
C158 O147 1.260 . S
C158 O148 1.258 . S
C159 O155 1.260 . S
C159 O156 1.258 . S
Zn160 O166 1.969 . S
Zn160 O167 1.965 . S
Zn160 O171 2.024 . S
Zn160 O176 1.969 . S
Zn161 O168 1.969 1_556 S
Zn161 O174 1.969 . S
Zn161 O175 1.965 1_556 S
Zn161 O177 2.024 . S
C162 O163 1.229 . S
C162 O171 1.058 . S
O163 C162 1.229 . S
C164 O165 1.229 . S
C164 O177 1.058 . S
O165 C164 1.229 . S
O166 Zn160 1.969 . S
O166 C169 1.267 . S
O167 Zn160 1.965 . S
O167 C178 1.260 . S
O168 Zn161 1.969 1_554 S
O168 C178 1.258 . S
C169 O166 1.267 . S
C169 O170 1.228 . S
O170 C169 1.228 . S
O171 Zn160 2.024 . S
O171 C162 1.058 . S
C172 O173 1.228 . S
C172 O174 1.267 . S
O173 C172 1.228 . S
O174 Zn161 1.969 . S
O174 C172 1.267 . S
O175 Zn161 1.965 1_554 S
O175 C179 1.260 . S
O176 Zn160 1.969 . S
O176 C179 1.258 . S
O177 Zn161 2.024 . S
O177 C164 1.058 . S
C178 O167 1.260 . S
C178 O168 1.258 . S
C179 O175 1.260 . S
C179 O176 1.258 . S
Zn180 O186 1.969 . S
Zn180 O187 1.965 . S
Zn180 O191 2.024 . S
Zn180 O196 1.969 . S
Zn181 O188 1.969 . S
Zn181 O194 1.969 . S
Zn181 O195 1.965 . S
Zn181 O197 2.024 . S
C182 O183 1.229 . S
C182 O191 1.058 . S
O183 C182 1.229 . S
C184 O185 1.229 . S
C184 O197 1.058 . S
O185 C184 1.229 . S
O186 Zn180 1.969 . S
O186 C189 1.267 . S
O187 Zn180 1.965 . S
O187 C198 1.260 . S
O188 Zn181 1.969 . S
O188 C198 1.258 . S
C189 O186 1.267 . S
C189 O190 1.228 . S
O190 C189 1.228 . S
O191 Zn180 2.024 . S
O191 C182 1.058 . S
C192 O193 1.228 . S
C192 O194 1.267 . S
O193 C192 1.228 . S
O194 Zn181 1.969 . S
O194 C192 1.267 . S
O195 Zn181 1.965 . S
O195 C199 1.260 . S
O196 Zn180 1.969 . S
O196 C199 1.258 . S
O197 Zn181 2.024 . S
O197 C184 1.058 . S
C198 O187 1.260 . S
C198 O188 1.258 . S
C199 O195 1.260 . S
C199 O196 1.258 . S
Zn200 O206 1.969 . S
Zn200 O207 1.965 . S
Zn200 O211 2.024 . S
Zn200 O216 1.969 . S
Zn201 O208 1.969 . S
Zn201 O214 1.969 . S
Zn201 O215 1.965 . S
Zn201 O217 2.024 . S
C202 O203 1.229 . S
C202 O211 1.058 . S
O203 C202 1.229 . S
C204 O205 1.229 . S
C204 O217 1.058 . S
O205 C204 1.229 . S
O206 Zn200 1.969 . S
O206 C209 1.267 . S
O207 Zn200 1.965 . S
O207 C218 1.260 . S
O208 Zn201 1.969 . S
O208 C218 1.258 . S
C209 O206 1.267 . S
C209 O210 1.228 . S
O210 C209 1.228 . S
O211 Zn200 2.024 . S
O211 C202 1.058 . S
C212 O213 1.228 . S
C212 O214 1.267 . S
O213 C212 1.228 . S
O214 Zn201 1.969 . S
O214 C212 1.267 . S
O215 Zn201 1.965 . S
O215 C219 1.260 . S
O216 Zn200 1.969 . S
O216 C219 1.258 . S
O217 Zn201 2.024 . S
O217 C204 1.058 . S
C218 O207 1.260 . S
C218 O208 1.258 . S
C219 O215 1.260 . S
C219 O216 1.258 . S
Zn220 O226 1.969 . S
Zn220 O227 1.965 . S
Zn220 O231 2.024 . S
Zn220 O236 1.969 . S
Zn221 O228 1.969 . S
Zn221 O234 1.969 . S
Zn221 O235 1.965 . S
Zn221 O237 2.024 . S
C222 O223 1.229 . S
C222 O231 1.058 . S
O223 C222 1.229 . S
C224 O225 1.229 . S
C224 O237 1.058 . S
O225 C224 1.229 . S
O226 Zn220 1.969 . S
O226 C229 1.267 . S
O227 Zn220 1.965 . S
O227 C238 1.260 . S
O228 Zn221 1.969 . S
O228 C238 1.258 . S
C229 O226 1.267 . S
C229 O230 1.228 . S
O230 C229 1.228 . S
O231 Zn220 2.024 . S
O231 C222 1.058 . S
C232 O233 1.228 . S
C232 O234 1.267 . S
O233 C232 1.228 . S
O234 Zn221 1.969 . S
O234 C232 1.267 . S
O235 Zn221 1.965 . S
O235 C239 1.260 . S
O236 Zn220 1.969 . S
O236 C239 1.258 . S
O237 Zn221 2.024 . S
O237 C224 1.058 . S
C238 O227 1.260 . S
C238 O228 1.258 . S
C239 O235 1.260 . S
C239 O236 1.258 . S
Zn240 O246 1.969 . S
Zn240 O247 1.965 . S
Zn240 O251 2.024 . S
Zn240 O256 1.969 . S
Zn241 O248 1.969 . S
Zn241 O254 1.969 . S
Zn241 O255 1.965 . S
Zn241 O257 2.024 . S
C242 O243 1.229 . S
C242 O251 1.058 . S
O243 C242 1.229 . S
C244 O245 1.229 . S
C244 O257 1.058 . S
O245 C244 1.229 . S
O246 Zn240 1.969 . S
O246 C249 1.267 . S
O247 Zn240 1.965 . S
O247 C258 1.260 . S
O248 Zn241 1.969 . S
O248 C258 1.258 . S
C249 O246 1.267 . S
C249 O250 1.228 . S
O250 C249 1.228 . S
O251 Zn240 2.024 . S
O251 C242 1.058 . S
C252 O253 1.228 . S
C252 O254 1.267 . S
O253 C252 1.228 . S
O254 Zn241 1.969 . S
O254 C252 1.267 . S
O255 Zn241 1.965 . S
O255 C259 1.260 . S
O256 Zn240 1.969 . S
O256 C259 1.258 . S
O257 Zn241 2.024 . S
O257 C244 1.058 . S
C258 O247 1.260 . S
C258 O248 1.258 . S
C259 O255 1.260 . S
C259 O256 1.258 . S
Zn260 O266 1.969 . S
Zn260 O267 1.965 . S
Zn260 O271 2.024 . S
Zn260 O276 1.969 . S
Zn261 O268 1.969 . S
Zn261 O274 1.969 . S
Zn261 O275 1.965 . S
Zn261 O277 2.024 . S
C262 O263 1.229 . S
C262 O271 1.058 . S
O263 C262 1.229 . S
C264 O265 1.229 . S
C264 O277 1.058 . S
O265 C264 1.229 . S
O266 Zn260 1.969 . S
O266 C269 1.267 . S
O267 Zn260 1.965 . S
O267 C278 1.260 . S
O268 Zn261 1.969 . S
O268 C278 1.258 . S
C269 O266 1.267 . S
C269 O270 1.228 . S
O270 C269 1.228 . S
O271 Zn260 2.024 . S
O271 C262 1.058 . S
C272 O273 1.228 . S
C272 O274 1.267 . S
O273 C272 1.228 . S
O274 Zn261 1.969 . S
O274 C272 1.267 . S
O275 Zn261 1.965 . S
O275 C279 1.260 . S
O276 Zn260 1.969 . S
O276 C279 1.258 . S
O277 Zn261 2.024 . S
O277 C264 1.058 . S
C278 O267 1.260 . S
C278 O268 1.258 . S
C279 O275 1.260 . S
C279 O276 1.258 . S
Zn280 O286 1.969 . S
Zn280 O287 1.965 . S
Zn280 O291 2.024 . S
Zn280 O296 1.969 . S
Zn281 O288 1.969 . S
Zn281 O294 1.969 . S
Zn281 O295 1.965 . S
Zn281 O297 2.024 . S
C282 O283 1.229 . S
C282 O291 1.058 . S
O283 C282 1.229 . S
C284 O285 1.229 . S
C284 O297 1.058 1_556 S
O285 C284 1.229 . S
O286 Zn280 1.969 . S
O286 C289 1.267 . S
O287 Zn280 1.965 . S
O287 C298 1.260 . S
O288 Zn281 1.969 . S
O288 C298 1.258 . S
C289 O286 1.267 . S
C289 O290 1.228 . S
O290 C289 1.228 . S
O291 Zn280 2.024 . S
O291 C282 1.058 . S
C292 O293 1.228 . S
C292 O294 1.267 1_556 S
O293 C292 1.228 . S
O294 Zn281 1.969 . S
O294 C292 1.267 1_554 S
O295 Zn281 1.965 . S
O295 C299 1.260 . S
O296 Zn280 1.969 . S
O296 C299 1.258 . S
O297 Zn281 2.024 . S
O297 C284 1.058 1_554 S
C298 O287 1.260 . S
C298 O288 1.258 . S
C299 O295 1.260 . S
C299 O296 1.258 . S
Zn300 O306 1.969 . S
Zn300 O307 1.965 . S
Zn300 O311 2.024 . S
Zn300 O316 1.969 . S
Zn301 O308 1.969 . S
Zn301 O314 1.969 . S
Zn301 O315 1.965 . S
Zn301 O317 2.024 . S
C302 O303 1.229 . S
C302 O311 1.058 . S
O303 C302 1.229 . S
C304 O305 1.229 . S
C304 O317 1.058 . S
O305 C304 1.229 . S
O306 Zn300 1.969 . S
O306 C309 1.267 . S
O307 Zn300 1.965 . S
O307 C318 1.260 . S
O308 Zn301 1.969 . S
O308 C318 1.258 . S
C309 O306 1.267 . S
C309 O310 1.228 . S
O310 C309 1.228 . S
O311 Zn300 2.024 . S
O311 C302 1.058 . S
C312 O313 1.228 . S
C312 O314 1.267 . S
O313 C312 1.228 . S
O314 Zn301 1.969 . S
O314 C312 1.267 . S
O315 Zn301 1.965 . S
O315 C319 1.260 . S
O316 Zn300 1.969 . S
O316 C319 1.258 . S
O317 Zn301 2.024 . S
O317 C304 1.058 . S
C318 O307 1.260 . S
C318 O308 1.258 . S
C319 O315 1.260 . S
C319 O316 1.258 . S
Zn320 O326 1.969 . S
Zn320 O327 1.965 . S
Zn320 O331 2.024 . S
Zn320 O336 1.969 . S
Zn321 O328 1.969 . S
Zn321 O334 1.969 . S
Zn321 O335 1.965 . S
Zn321 O337 2.024 . S
C322 O323 1.229 . S
C322 O331 1.058 . S
O323 C322 1.229 . S
C324 O325 1.229 . S
C324 O337 1.058 . S
O325 C324 1.229 . S
O326 Zn320 1.969 . S
O326 C329 1.267 . S
O327 Zn320 1.965 . S
O327 C338 1.260 . S
O328 Zn321 1.969 . S
O328 C338 1.258 . S
C329 O326 1.267 . S
C329 O330 1.228 . S
O330 C329 1.228 . S
O331 Zn320 2.024 . S
O331 C322 1.058 . S
C332 O333 1.228 . S
C332 O334 1.267 . S
O333 C332 1.228 . S
O334 Zn321 1.969 . S
O334 C332 1.267 . S
O335 Zn321 1.965 . S
O335 C339 1.260 . S
O336 Zn320 1.969 . S
O336 C339 1.258 . S
O337 Zn321 2.024 . S
O337 C324 1.058 . S
C338 O327 1.260 . S
C338 O328 1.258 . S
C339 O335 1.260 . S
C339 O336 1.258 . S
Zn340 O346 1.969 . S
Zn340 O347 1.965 . S
Zn340 O351 2.024 . S
Zn340 O356 1.969 . S
Zn341 O348 1.969 . S
Zn341 O354 1.969 . S
Zn341 O355 1.965 . S
Zn341 O357 2.024 . S
C342 O343 1.229 . S
C342 O351 1.058 . S
O343 C342 1.229 . S
C344 O345 1.229 . S
C344 O357 1.058 . S
O345 C344 1.229 . S
O346 Zn340 1.969 . S
O346 C349 1.267 . S
O347 Zn340 1.965 . S
O347 C358 1.260 . S
O348 Zn341 1.969 . S
O348 C358 1.258 . S
C349 O346 1.267 . S
C349 O350 1.228 . S
O350 C349 1.228 . S
O351 Zn340 2.024 . S
O351 C342 1.058 . S
C352 O353 1.228 . S
C352 O354 1.267 . S
O353 C352 1.228 . S
O354 Zn341 1.969 . S
O354 C352 1.267 . S
O355 Zn341 1.965 . S
O355 C359 1.260 . S
O356 Zn340 1.969 . S
O356 C359 1.258 . S
O357 Zn341 2.024 . S
O357 C344 1.058 . S
C358 O347 1.260 . S
C358 O348 1.258 . S
C359 O355 1.260 . S
C359 O356 1.258 . S
Zn360 O366 1.969 . S
Zn360 O367 1.965 . S
Zn360 O371 2.024 . S
Zn360 O376 1.969 . S
Zn361 O368 1.969 . S
Zn361 O374 1.969 . S
Zn361 O375 1.965 . S
Zn361 O377 2.024 . S
C362 O363 1.229 . S
C362 O371 1.058 . S
O363 C362 1.229 . S
C364 O365 1.229 . S
C364 O377 1.058 1_556 S
O365 C364 1.229 . S
O366 Zn360 1.969 . S
O366 C369 1.267 . S
O367 Zn360 1.965 . S
O367 C378 1.260 . S
O368 Zn361 1.969 . S
O368 C378 1.258 . S
C369 O366 1.267 . S
C369 O370 1.228 . S
O370 C369 1.228 . S
O371 Zn360 2.024 . S
O371 C362 1.058 . S
C372 O373 1.228 . S
C372 O374 1.267 1_556 S
O373 C372 1.228 . S
O374 Zn361 1.969 . S
O374 C372 1.267 1_554 S
O375 Zn361 1.965 . S
O375 C379 1.260 . S
O376 Zn360 1.969 . S
O376 C379 1.258 . S
O377 Zn361 2.024 . S
O377 C364 1.058 1_554 S
C378 O367 1.260 . S
C378 O368 1.258 . S
C379 O375 1.260 . S
C379 O376 1.258 . S
Zn380 O386 1.969 . S
Zn380 O387 1.965 . S
Zn380 O391 2.024 . S
Zn380 O396 1.969 . S
Zn381 O388 1.969 . S
Zn381 O394 1.969 . S
Zn381 O395 1.965 . S
Zn381 O397 2.024 . S
C382 O383 1.229 . S
C382 O391 1.058 . S
O383 C382 1.229 . S
C384 O385 1.229 . S
C384 O397 1.058 . S
O385 C384 1.229 . S
O386 Zn380 1.969 . S
O386 C389 1.267 . S
O387 Zn380 1.965 . S
O387 C398 1.260 . S
O388 Zn381 1.969 . S
O388 C398 1.258 . S
C389 O386 1.267 . S
C389 O390 1.228 . S
O390 C389 1.228 . S
O391 Zn380 2.024 . S
O391 C382 1.058 . S
C392 O393 1.228 . S
C392 O394 1.267 . S
O393 C392 1.228 . S
O394 Zn381 1.969 . S
O394 C392 1.267 . S
O395 Zn381 1.965 . S
O395 C399 1.260 . S
O396 Zn380 1.969 . S
O396 C399 1.258 . S
O397 Zn381 2.024 . S
O397 C384 1.058 . S
C398 O387 1.260 . S
C398 O388 1.258 . S
C399 O395 1.260 . S
C399 O396 1.258 . S
Zn400 O406 1.969 . S
Zn400 O407 1.965 . S
Zn400 O411 2.024 . S
Zn400 O416 1.969 . S
Zn401 O408 1.969 1_556 S
Zn401 O414 1.969 . S
Zn401 O415 1.965 1_556 S
Zn401 O417 2.024 . S
C402 O403 1.229 . S
C402 O411 1.058 . S
O403 C402 1.229 . S
C404 O405 1.229 . S
C404 O417 1.058 . S
O405 C404 1.229 . S
O406 Zn400 1.969 . S
O406 C409 1.267 . S
O407 Zn400 1.965 . S
O407 C418 1.260 . S
O408 Zn401 1.969 1_554 S
O408 C418 1.258 . S
C409 O406 1.267 . S
C409 O410 1.228 . S
O410 C409 1.228 . S
O411 Zn400 2.024 . S
O411 C402 1.058 . S
C412 O413 1.228 . S
C412 O414 1.267 . S
O413 C412 1.228 . S
O414 Zn401 1.969 . S
O414 C412 1.267 . S
O415 Zn401 1.965 1_554 S
O415 C419 1.260 . S
O416 Zn400 1.969 . S
O416 C419 1.258 . S
O417 Zn401 2.024 . S
O417 C404 1.058 . S
C418 O407 1.260 . S
C418 O408 1.258 . S
C419 O415 1.260 . S
C419 O416 1.258 . S
Zn420 O426 1.969 . S
Zn420 O427 1.965 . S
Zn420 O431 2.024 . S
Zn420 O436 1.969 . S
Zn421 O428 1.969 . S
Zn421 O434 1.969 . S
Zn421 O435 1.965 . S
Zn421 O437 2.024 . S
C422 O423 1.229 . S
C422 O431 1.058 . S
O423 C422 1.229 . S
C424 O425 1.229 . S
C424 O437 1.058 . S
O425 C424 1.229 . S
O426 Zn420 1.969 . S
O426 C429 1.267 . S
O427 Zn420 1.965 . S
O427 C438 1.260 . S
O428 Zn421 1.969 . S
O428 C438 1.258 . S
C429 O426 1.267 . S
C429 O430 1.228 . S
O430 C429 1.228 . S
O431 Zn420 2.024 . S
O431 C422 1.058 . S
C432 O433 1.228 . S
C432 O434 1.267 . S
O433 C432 1.228 . S
O434 Zn421 1.969 . S
O434 C432 1.267 . S
O435 Zn421 1.965 . S
O435 C439 1.260 . S
O436 Zn420 1.969 . S
O436 C439 1.258 . S
O437 Zn421 2.024 . S
O437 C424 1.058 . S
C438 O427 1.260 . S
C438 O428 1.258 . S
C439 O435 1.260 . S
C439 O436 1.258 . S
Zn440 O446 1.969 . S
Zn440 O447 1.965 . S
Zn440 O451 2.024 . S
Zn440 O456 1.969 . S
Zn441 O448 1.969 . S
Zn441 O454 1.969 . S
Zn441 O455 1.965 . S
Zn441 O457 2.024 . S
C442 O443 1.229 . S
C442 O451 1.058 . S
O443 C442 1.229 . S
C444 O445 1.229 . S
C444 O457 1.058 . S
O445 C444 1.229 . S
O446 Zn440 1.969 . S
O446 C449 1.267 . S
O447 Zn440 1.965 . S
O447 C458 1.260 . S
O448 Zn441 1.969 . S
O448 C458 1.258 . S
C449 O446 1.267 . S
C449 O450 1.228 . S
O450 C449 1.228 . S
O451 Zn440 2.024 . S
O451 C442 1.058 . S
C452 O453 1.228 . S
C452 O454 1.267 . S
O453 C452 1.228 . S
O454 Zn441 1.969 . S
O454 C452 1.267 . S
O455 Zn441 1.965 . S
O455 C459 1.260 . S
O456 Zn440 1.969 . S
O456 C459 1.258 . S
O457 Zn441 2.024 . S
O457 C444 1.058 . S
C458 O447 1.260 . S
C458 O448 1.258 . S
C459 O455 1.260 . S
C459 O456 1.258 . S
Zn460 O466 1.969 . S
Zn460 O467 1.965 . S
Zn460 O471 2.024 . S
Zn460 O476 1.969 . S
Zn461 O468 1.969 . S
Zn461 O474 1.969 . S
Zn461 O475 1.965 . S
Zn461 O477 2.024 . S
C462 O463 1.229 . S
C462 O471 1.058 . S
O463 C462 1.229 . S
C464 O465 1.229 . S
C464 O477 1.058 . S
O465 C464 1.229 . S
O466 Zn460 1.969 . S
O466 C469 1.267 . S
O467 Zn460 1.965 . S
O467 C478 1.260 . S
O468 Zn461 1.969 . S
O468 C478 1.258 . S
C469 O466 1.267 . S
C469 O470 1.228 . S
O470 C469 1.228 . S
O471 Zn460 2.024 . S
O471 C462 1.058 . S
C472 O473 1.228 . S
C472 O474 1.267 . S
O473 C472 1.228 . S
O474 Zn461 1.969 . S
O474 C472 1.267 . S
O475 Zn461 1.965 . S
O475 C479 1.260 . S
O476 Zn460 1.969 . S
O476 C479 1.258 . S
O477 Zn461 2.024 . S
O477 C464 1.058 . S
C478 O467 1.260 . S
C478 O468 1.258 . S
C479 O475 1.260 . S
C479 O476 1.258 . S
Zn480 O486 1.969 . S
Zn480 O487 1.965 . S
Zn480 O491 2.024 . S
Zn480 O496 1.969 . S
Zn481 O488 1.969 . S
Zn481 O494 1.969 . S
Zn481 O495 1.965 . S
Zn481 O497 2.024 . S
C482 O483 1.229 . S
C482 O491 1.058 . S
O483 C482 1.229 . S
C484 O485 1.229 . S
C484 O497 1.058 . S
O485 C484 1.229 . S
O486 Zn480 1.969 . S
O486 C489 1.267 . S
O487 Zn480 1.965 . S
O487 C498 1.260 . S
O488 Zn481 1.969 . S
O488 C498 1.258 . S
C489 O486 1.267 . S
C489 O490 1.228 . S
O490 C489 1.228 . S
O491 Zn480 2.024 . S
O491 C482 1.058 . S
C492 O493 1.228 . S
C492 O494 1.267 . S
O493 C492 1.228 . S
O494 Zn481 1.969 . S
O494 C492 1.267 . S
O495 Zn481 1.965 . S
O495 C499 1.260 . S
O496 Zn480 1.969 . S
O496 C499 1.258 . S
O497 Zn481 2.024 . S
O497 C484 1.058 . S
C498 O487 1.260 . S
C498 O488 1.258 . S
C499 O495 1.260 . S
C499 O496 1.258 . S
Zn500 O506 1.969 . S
Zn500 O507 1.965 . S
Zn500 O511 2.024 . S
Zn500 O516 1.969 . S
Zn501 O508 1.969 . S
Zn501 O514 1.969 . S
Zn501 O515 1.965 . S
Zn501 O517 2.024 . S
C502 O503 1.229 . S
C502 O511 1.058 . S
O503 C502 1.229 . S
C504 O505 1.229 . S
C504 O517 1.058 . S
O505 C504 1.229 . S
O506 Zn500 1.969 . S
O506 C509 1.267 . S
O507 Zn500 1.965 . S
O507 C518 1.260 . S
O508 Zn501 1.969 . S
O508 C518 1.258 . S
C509 O506 1.267 . S
C509 O510 1.228 . S
O510 C509 1.228 . S
O511 Zn500 2.024 . S
O511 C502 1.058 . S
C512 O513 1.228 . S
C512 O514 1.267 . S
O513 C512 1.228 . S
O514 Zn501 1.969 . S
O514 C512 1.267 . S
O515 Zn501 1.965 . S
O515 C519 1.260 . S
O516 Zn500 1.969 . S
O516 C519 1.258 . S
O517 Zn501 2.024 . S
O517 C504 1.058 . S
C518 O507 1.260 . S
C518 O508 1.258 . S
C519 O515 1.260 . S
C519 O516 1.258 . S
Zn520 O526 1.969 . S
Zn520 O527 1.965 . S
Zn520 O531 2.024 . S
Zn520 O536 1.969 . S
Zn521 O528 1.969 1_556 S
Zn521 O534 1.969 . S
Zn521 O535 1.965 1_556 S
Zn521 O537 2.024 . S
C522 O523 1.229 . S
C522 O531 1.058 . S
O523 C522 1.229 . S
C524 O525 1.229 . S
C524 O537 1.058 . S
O525 C524 1.229 . S
O526 Zn520 1.969 . S
O526 C529 1.267 . S
O527 Zn520 1.965 . S
O527 C538 1.260 . S
O528 Zn521 1.969 1_554 S
O528 C538 1.258 . S
C529 O526 1.267 . S
C529 O530 1.228 . S
O530 C529 1.228 . S
O531 Zn520 2.024 . S
O531 C522 1.058 . S
C532 O533 1.228 . S
C532 O534 1.267 . S
O533 C532 1.228 . S
O534 Zn521 1.969 . S
O534 C532 1.267 . S
O535 Zn521 1.965 1_554 S
O535 C539 1.260 . S
O536 Zn520 1.969 . S
O536 C539 1.258 . S
O537 Zn521 2.024 . S
O537 C524 1.058 . S
C538 O527 1.260 . S
C538 O528 1.258 . S
C539 O535 1.260 . S
C539 O536 1.258 . S
Zn540 O546 1.969 . S
Zn540 O547 1.965 . S
Zn540 O551 2.024 . S
Zn540 O556 1.969 . S
Zn541 O548 1.969 . S
Zn541 O554 1.969 . S
Zn541 O555 1.965 . S
Zn541 O557 2.024 . S
C542 O543 1.229 . S
C542 O551 1.058 . S
O543 C542 1.229 . S
C544 O545 1.229 . S
C544 O557 1.058 . S
O545 C544 1.229 . S
O546 Zn540 1.969 . S
O546 C549 1.267 . S
O547 Zn540 1.965 . S
O547 C558 1.260 . S
O548 Zn541 1.969 . S
O548 C558 1.258 . S
C549 O546 1.267 . S
C549 O550 1.228 . S
O550 C549 1.228 . S
O551 Zn540 2.024 . S
O551 C542 1.058 . S
C552 O553 1.228 . S
C552 O554 1.267 . S
O553 C552 1.228 . S
O554 Zn541 1.969 . S
O554 C552 1.267 . S
O555 Zn541 1.965 . S
O555 C559 1.260 . S
O556 Zn540 1.969 . S
O556 C559 1.258 . S
O557 Zn541 2.024 . S
O557 C544 1.058 . S
C558 O547 1.260 . S
C558 O548 1.258 . S
C559 O555 1.260 . S
C559 O556 1.258 . S
Zn560 O566 1.969 . S
Zn560 O567 1.965 . S
Zn560 O571 2.024 . S
Zn560 O576 1.969 . S
Zn561 O568 1.969 . S
Zn561 O574 1.969 1_554 S
Zn561 O575 1.965 . S
Zn561 O577 2.024 . S
C562 O563 1.229 . S
C562 O571 1.058 . S
O563 C562 1.229 . S
C564 O565 1.229 . S
C564 O577 1.058 1_556 S
O565 C564 1.229 . S
O566 Zn560 1.969 . S
O566 C569 1.267 . S
O567 Zn560 1.965 . S
O567 C578 1.260 . S
O568 Zn561 1.969 . S
O568 C578 1.258 . S
C569 O566 1.267 . S
C569 O570 1.228 . S
O570 C569 1.228 . S
O571 Zn560 2.024 . S
O571 C562 1.058 . S
C572 O573 1.228 . S
C572 O574 1.267 . S
O573 C572 1.228 . S
O574 Zn561 1.969 1_556 S
O574 C572 1.267 . S
O575 Zn561 1.965 . S
O575 C579 1.260 . S
O576 Zn560 1.969 . S
O576 C579 1.258 . S
O577 Zn561 2.024 . S
O577 C564 1.058 1_554 S
C578 O567 1.260 . S
C578 O568 1.258 . S
C579 O575 1.260 . S
C579 O576 1.258 . S
Zn580 O586 1.969 . S
Zn580 O587 1.965 . S
Zn580 O591 2.024 . S
Zn580 O596 1.969 . S
Zn581 O588 1.969 . S
Zn581 O594 1.969 . S
Zn581 O595 1.965 . S
Zn581 O597 2.024 . S
C582 O583 1.229 . S
C582 O591 1.058 . S
O583 C582 1.229 . S
C584 O585 1.229 . S
C584 O597 1.058 . S
O585 C584 1.229 . S
O586 Zn580 1.969 . S
O586 C589 1.267 . S
O587 Zn580 1.965 . S
O587 C598 1.260 . S
O588 Zn581 1.969 . S
O588 C598 1.258 . S
C589 O586 1.267 . S
C589 O590 1.228 . S
O590 C589 1.228 . S
O591 Zn580 2.024 . S
O591 C582 1.058 . S
C592 O593 1.228 . S
C592 O594 1.267 . S
O593 C592 1.228 . S
O594 Zn581 1.969 . S
O594 C592 1.267 . S
O595 Zn581 1.965 . S
O595 C599 1.260 . S
O596 Zn580 1.969 . S
O596 C599 1.258 . S
O597 Zn581 2.024 . S
O597 C584 1.058 . S
C598 O587 1.260 . S
C598 O588 1.258 . S
C599 O595 1.260 . S
C599 O596 1.258 . S
Zn600 O606 1.969 . S
Zn600 O607 1.965 . S
Zn600 O611 2.024 . S
Zn600 O616 1.969 . S
Zn601 O608 1.969 . S
Zn601 O614 1.969 . S
Zn601 O615 1.965 . S
Zn601 O617 2.024 . S
C602 O603 1.229 . S
C602 O611 1.058 . S
O603 C602 1.229 . S
C604 O605 1.229 . S
C604 O617 1.058 . S
O605 C604 1.229 . S
O606 Zn600 1.969 . S
O606 C609 1.267 . S
O607 Zn600 1.965 . S
O607 C618 1.260 . S
O608 Zn601 1.969 . S
O608 C618 1.258 . S
C609 O606 1.267 . S
C609 O610 1.228 . S
O610 C609 1.228 . S
O611 Zn600 2.024 . S
O611 C602 1.058 . S
C612 O613 1.228 . S
C612 O614 1.267 . S
O613 C612 1.228 . S
O614 Zn601 1.969 . S
O614 C612 1.267 . S
O615 Zn601 1.965 . S
O615 C619 1.260 . S
O616 Zn600 1.969 . S
O616 C619 1.258 . S
O617 Zn601 2.024 . S
O617 C604 1.058 . S
C618 O607 1.260 . S
C618 O608 1.258 . S
C619 O615 1.260 . S
C619 O616 1.258 . S
Zn620 O626 1.969 . S
Zn620 O627 1.965 . S
Zn620 O631 2.024 . S
Zn620 O636 1.969 . S
Zn621 O628 1.969 . S
Zn621 O634 1.969 . S
Zn621 O635 1.965 . S
Zn621 O637 2.024 . S
C622 O623 1.229 . S
C622 O631 1.058 . S
O623 C622 1.229 . S
C624 O625 1.229 . S
C624 O637 1.058 . S
O625 C624 1.229 . S
O626 Zn620 1.969 . S
O626 C629 1.267 . S
O627 Zn620 1.965 . S
O627 C638 1.260 . S
O628 Zn621 1.969 . S
O628 C638 1.258 . S
C629 O626 1.267 . S
C629 O630 1.228 . S
O630 C629 1.228 . S
O631 Zn620 2.024 . S
O631 C622 1.058 . S
C632 O633 1.228 . S
C632 O634 1.267 . S
O633 C632 1.228 . S
O634 Zn621 1.969 . S
O634 C632 1.267 . S
O635 Zn621 1.965 . S
O635 C639 1.260 . S
O636 Zn620 1.969 . S
O636 C639 1.258 . S
O637 Zn621 2.024 . S
O637 C624 1.058 . S
C638 O627 1.260 . S
C638 O628 1.258 . S
C639 O635 1.260 . S
C639 O636 1.258 . S
H640 C648 0.929 . S
H641 C650 0.930 . S
H642 C652 0.930 . S
H643 C655 0.929 . S
H644 C658 0.930 . S
H645 C660 0.960 . S
H646 C660 0.960 . S
H647 C660 0.960 . S
C648 H640 0.929 . S
C648 C649 1.377 . S
C648 C650 1.384 . S
C649 C648 1.377 . S
C649 C655 1.390 . S
C650 H641 0.930 . S
C650 C648 1.384 . S
C650 C651 1.372 . S
C651 C650 1.372 . S
C651 C652 1.400 . S
C651 C656 1.490 . S
C652 H642 0.930 . S
C652 C651 1.400 . S
C652 C655 1.386 . S
H653 C669 0.930 . S
H654 C670 0.931 . S
C655 H643 0.929 . S
C655 C649 1.390 . S
C655 C652 1.386 . S
C656 C651 1.490 . S
C656 C658 1.395 . S
C656 C659 1.403 . S
H657 C663 0.930 . S
C658 H644 0.930 . S
C658 C656 1.395 . S
C658 C661 1.403 . S
C659 C656 1.403 . S
C659 C660 1.524 . S
C659 C663 1.400 . S
C660 H645 0.960 . S
C660 H646 0.960 . S
C660 H647 0.960 . S
C660 C659 1.524 . S
C661 C658 1.403 . S
C661 C662 1.392 . S
C661 C665 1.495 . S
C662 C661 1.392 . S
C662 C663 1.385 . S
C662 C664 1.478 . S
C663 H657 0.930 . S
C663 C659 1.400 . S
C663 C662 1.385 . S
C664 C662 1.478 . S
C664 C666 1.381 . S
C664 C670 1.383 . S
C665 C661 1.495 . S
C665 H671 0.959 . S
C665 H672 0.961 . S
C665 H673 0.960 . S
C666 C664 1.381 . S
C666 C667 1.394 . S
C666 H674 0.930 . S
C667 C666 1.394 . S
C667 C668 1.383 . S
C667 H675 0.929 . S
C668 C667 1.383 . S
C668 C669 1.377 . S
C669 H653 0.930 . S
C669 C668 1.377 . S
C669 C670 1.379 . S
C670 H654 0.931 . S
C670 C664 1.383 . S
C670 C669 1.379 . S
H671 C665 0.959 . S
H672 C665 0.961 . S
H673 C665 0.960 . S
H674 C666 0.930 . S
H675 C667 0.929 . S
H676 C684 0.929 . S
H677 C686 0.930 . S
H678 C688 0.930 . S
H679 C691 0.929 . S
H680 C694 0.930 . S
H681 C696 0.960 . S
H682 C696 0.960 . S
H683 C696 0.960 . S
C684 H676 0.929 . S
C684 C685 1.377 . S
C684 C686 1.384 . S
C685 C684 1.377 . S
C685 C691 1.390 . S
C686 H677 0.930 . S
C686 C684 1.384 . S
C686 C687 1.372 . S
C687 C686 1.372 . S
C687 C688 1.400 . S
C687 C692 1.490 . S
C688 H678 0.930 . S
C688 C687 1.400 . S
C688 C691 1.386 . S
H689 C705 0.930 . S
H690 C706 0.931 . S
C691 H679 0.929 . S
C691 C685 1.390 . S
C691 C688 1.386 . S
C692 C687 1.490 . S
C692 C694 1.395 . S
C692 C695 1.403 . S
H693 C699 0.930 . S
C694 H680 0.930 . S
C694 C692 1.395 . S
C694 C697 1.403 . S
C695 C692 1.403 . S
C695 C696 1.524 . S
C695 C699 1.400 . S
C696 H681 0.960 . S
C696 H682 0.960 . S
C696 H683 0.960 . S
C696 C695 1.524 . S
C697 C694 1.403 . S
C697 C698 1.392 . S
C697 C701 1.495 . S
C698 C697 1.392 . S
C698 C699 1.385 . S
C698 C700 1.478 . S
C699 H693 0.930 . S
C699 C695 1.400 . S
C699 C698 1.385 . S
C700 C698 1.478 . S
C700 C702 1.381 . S
C700 C706 1.383 . S
C701 C697 1.495 . S
C701 H707 0.959 . S
C701 H708 0.961 . S
C701 H709 0.960 . S
C702 C700 1.381 . S
C702 C703 1.394 . S
C702 H710 0.930 . S
C703 C702 1.394 . S
C703 C704 1.383 . S
C703 H711 0.929 . S
C704 C703 1.383 . S
C704 C705 1.377 . S
C705 H689 0.930 . S
C705 C704 1.377 . S
C705 C706 1.379 . S
C706 H690 0.931 . S
C706 C700 1.383 . S
C706 C705 1.379 . S
H707 C701 0.959 . S
H708 C701 0.961 . S
H709 C701 0.960 . S
H710 C702 0.930 . S
H711 C703 0.929 . S
H712 C720 0.929 . S
H713 C722 0.930 . S
H714 C724 0.930 . S
H715 C727 0.929 . S
H716 C730 0.930 . S
H717 C732 0.960 . S
H718 C732 0.960 . S
H719 C732 0.960 . S
C720 H712 0.929 . S
C720 C721 1.377 . S
C720 C722 1.384 . S
C721 C720 1.377 . S
C721 C727 1.390 . S
C722 H713 0.930 . S
C722 C720 1.384 . S
C722 C723 1.372 . S
C723 C722 1.372 . S
C723 C724 1.400 . S
C723 C728 1.490 . S
C724 H714 0.930 . S
C724 C723 1.400 . S
C724 C727 1.386 . S
H725 C741 0.930 . S
H726 C742 0.931 . S
C727 H715 0.929 . S
C727 C721 1.390 . S
C727 C724 1.386 . S
C728 C723 1.490 . S
C728 C730 1.395 . S
C728 C731 1.403 . S
H729 C735 0.930 . S
C730 H716 0.930 . S
C730 C728 1.395 . S
C730 C733 1.403 . S
C731 C728 1.403 . S
C731 C732 1.524 . S
C731 C735 1.400 . S
C732 H717 0.960 . S
C732 H718 0.960 . S
C732 H719 0.960 . S
C732 C731 1.524 . S
C733 C730 1.403 . S
C733 C734 1.392 . S
C733 C737 1.495 . S
C734 C733 1.392 . S
C734 C735 1.385 . S
C734 C736 1.478 . S
C735 H729 0.930 . S
C735 C731 1.400 . S
C735 C734 1.385 . S
C736 C734 1.478 . S
C736 C738 1.381 . S
C736 C742 1.383 . S
C737 C733 1.495 . S
C737 H743 0.959 . S
C737 H744 0.961 . S
C737 H745 0.960 . S
C738 C736 1.381 . S
C738 C739 1.394 . S
C738 H746 0.930 . S
C739 C738 1.394 . S
C739 C740 1.383 . S
C739 H747 0.929 . S
C740 C739 1.383 . S
C740 C741 1.377 . S
C741 H725 0.930 . S
C741 C740 1.377 . S
C741 C742 1.379 . S
C742 H726 0.931 . S
C742 C736 1.383 . S
C742 C741 1.379 . S
H743 C737 0.959 . S
H744 C737 0.961 . S
H745 C737 0.960 . S
H746 C738 0.930 . S
H747 C739 0.929 . S
H748 C756 0.929 . S
H749 C758 0.930 . S
H750 C760 0.930 . S
H751 C763 0.929 . S
H752 C766 0.930 . S
H753 C768 0.960 . S
H754 C768 0.960 . S
H755 C768 0.960 . S
C756 H748 0.929 . S
C756 C757 1.377 . S
C756 C758 1.384 . S
C757 C756 1.377 . S
C757 C763 1.390 . S
C758 H749 0.930 . S
C758 C756 1.384 . S
C758 C759 1.372 . S
C759 C758 1.372 . S
C759 C760 1.400 . S
C759 C764 1.490 . S
C760 H750 0.930 . S
C760 C759 1.400 . S
C760 C763 1.386 . S
H761 C777 0.930 . S
H762 C778 0.931 . S
C763 H751 0.929 . S
C763 C757 1.390 . S
C763 C760 1.386 . S
C764 C759 1.490 . S
C764 C766 1.395 . S
C764 C767 1.403 . S
H765 C771 0.930 . S
C766 H752 0.930 . S
C766 C764 1.395 . S
C766 C769 1.403 . S
C767 C764 1.403 . S
C767 C768 1.524 . S
C767 C771 1.400 . S
C768 H753 0.960 . S
C768 H754 0.960 . S
C768 H755 0.960 . S
C768 C767 1.524 . S
C769 C766 1.403 . S
C769 C770 1.392 . S
C769 C773 1.495 . S
C770 C769 1.392 . S
C770 C771 1.385 . S
C770 C772 1.478 . S
C771 H765 0.930 . S
C771 C767 1.400 . S
C771 C770 1.385 . S
C772 C770 1.478 . S
C772 C774 1.381 . S
C772 C778 1.383 1_554 S
C773 C769 1.495 . S
C773 H779 0.959 . S
C773 H780 0.961 . S
C773 H781 0.960 . S
C774 C772 1.381 . S
C774 C775 1.394 1_554 S
C774 H782 0.930 . S
C775 C774 1.394 1_556 S
C775 C776 1.383 . S
C775 H783 0.929 . S
C776 C775 1.383 . S
C776 C777 1.377 . S
C777 H761 0.930 . S
C777 C776 1.377 . S
C777 C778 1.379 . S
C778 H762 0.931 . S
C778 C772 1.383 1_556 S
C778 C777 1.379 . S
H779 C773 0.959 . S
H780 C773 0.961 . S
H781 C773 0.960 . S
H782 C774 0.930 . S
H783 C775 0.929 . S
H784 C792 0.929 . S
H785 C794 0.930 . S
H786 C796 0.930 . S
H787 C799 0.929 . S
H788 C802 0.930 . S
H789 C804 0.960 . S
H790 C804 0.960 . S
H791 C804 0.960 . S
C792 H784 0.929 . S
C792 C793 1.377 . S
C792 C794 1.384 . S
C793 C792 1.377 . S
C793 C799 1.390 . S
C794 H785 0.930 . S
C794 C792 1.384 . S
C794 C795 1.372 . S
C795 C794 1.372 . S
C795 C796 1.400 . S
C795 C800 1.490 . S
C796 H786 0.930 . S
C796 C795 1.400 . S
C796 C799 1.386 . S
H797 C813 0.930 . S
H798 C814 0.931 . S
C799 H787 0.929 . S
C799 C793 1.390 . S
C799 C796 1.386 . S
C800 C795 1.490 . S
C800 C802 1.395 . S
C800 C803 1.403 . S
H801 C807 0.930 . S
C802 H788 0.930 . S
C802 C800 1.395 . S
C802 C805 1.403 . S
C803 C800 1.403 . S
C803 C804 1.524 . S
C803 C807 1.400 . S
C804 H789 0.960 . S
C804 H790 0.960 . S
C804 H791 0.960 . S
C804 C803 1.524 . S
C805 C802 1.403 . S
C805 C806 1.392 . S
C805 C809 1.495 . S
C806 C805 1.392 . S
C806 C807 1.385 . S
C806 C808 1.478 . S
C807 H801 0.930 . S
C807 C803 1.400 . S
C807 C806 1.385 . S
C808 C806 1.478 . S
C808 C810 1.381 . S
C808 C814 1.383 . S
C809 C805 1.495 . S
C809 H815 0.959 . S
C809 H816 0.961 . S
C809 H817 0.960 . S
C810 C808 1.381 . S
C810 C811 1.394 . S
C810 H818 0.930 . S
C811 C810 1.394 . S
C811 C812 1.383 . S
C811 H819 0.929 . S
C812 C811 1.383 . S
C812 C813 1.377 . S
C813 H797 0.930 . S
C813 C812 1.377 . S
C813 C814 1.379 . S
C814 H798 0.931 . S
C814 C808 1.383 . S
C814 C813 1.379 . S
H815 C809 0.959 . S
H816 C809 0.961 . S
H817 C809 0.960 . S
H818 C810 0.930 . S
H819 C811 0.929 . S
H820 C828 0.929 . S
H821 C830 0.930 . S
H822 C832 0.930 . S
H823 C835 0.929 . S
H824 C838 0.930 . S
H825 C840 0.960 . S
H826 C840 0.960 . S
H827 C840 0.960 . S
C828 H820 0.929 . S
C828 C829 1.377 . S
C828 C830 1.384 . S
C829 C828 1.377 . S
C829 C835 1.390 . S
C830 H821 0.930 . S
C830 C828 1.384 . S
C830 C831 1.372 . S
C831 C830 1.372 . S
C831 C832 1.400 . S
C831 C836 1.490 . S
C832 H822 0.930 . S
C832 C831 1.400 . S
C832 C835 1.386 . S
H833 C849 0.930 . S
H834 C850 0.931 . S
C835 H823 0.929 . S
C835 C829 1.390 . S
C835 C832 1.386 . S
C836 C831 1.490 . S
C836 C838 1.395 . S
C836 C839 1.403 . S
H837 C843 0.930 . S
C838 H824 0.930 . S
C838 C836 1.395 . S
C838 C841 1.403 . S
C839 C836 1.403 . S
C839 C840 1.524 . S
C839 C843 1.400 . S
C840 H825 0.960 . S
C840 H826 0.960 . S
C840 H827 0.960 . S
C840 C839 1.524 . S
C841 C838 1.403 . S
C841 C842 1.392 . S
C841 C845 1.495 . S
C842 C841 1.392 . S
C842 C843 1.385 . S
C842 C844 1.478 . S
C843 H837 0.930 . S
C843 C839 1.400 . S
C843 C842 1.385 . S
C844 C842 1.478 . S
C844 C846 1.381 . S
C844 C850 1.383 . S
C845 C841 1.495 . S
C845 H851 0.959 . S
C845 H852 0.961 . S
C845 H853 0.960 . S
C846 C844 1.381 . S
C846 C847 1.394 . S
C846 H854 0.930 . S
C847 C846 1.394 . S
C847 C848 1.383 . S
C847 H855 0.929 . S
C848 C847 1.383 . S
C848 C849 1.377 . S
C849 H833 0.930 . S
C849 C848 1.377 . S
C849 C850 1.379 . S
C850 H834 0.931 . S
C850 C844 1.383 . S
C850 C849 1.379 . S
H851 C845 0.959 . S
H852 C845 0.961 . S
H853 C845 0.960 . S
H854 C846 0.930 . S
H855 C847 0.929 . S
H856 C864 0.929 . S
H857 C866 0.930 . S
H858 C868 0.930 . S
H859 C871 0.929 . S
H860 C874 0.930 . S
H861 C876 0.960 . S
H862 C876 0.960 . S
H863 C876 0.960 . S
C864 H856 0.929 . S
C864 C865 1.377 . S
C864 C866 1.384 . S
C865 C864 1.377 . S
C865 C871 1.390 . S
C866 H857 0.930 . S
C866 C864 1.384 . S
C866 C867 1.372 . S
C867 C866 1.372 . S
C867 C868 1.400 . S
C867 C872 1.490 . S
C868 H858 0.930 . S
C868 C867 1.400 . S
C868 C871 1.386 . S
H869 C885 0.930 . S
H870 C886 0.931 . S
C871 H859 0.929 . S
C871 C865 1.390 . S
C871 C868 1.386 . S
C872 C867 1.490 . S
C872 C874 1.395 . S
C872 C875 1.403 . S
H873 C879 0.930 . S
C874 H860 0.930 . S
C874 C872 1.395 . S
C874 C877 1.403 . S
C875 C872 1.403 . S
C875 C876 1.524 . S
C875 C879 1.400 . S
C876 H861 0.960 . S
C876 H862 0.960 . S
C876 H863 0.960 . S
C876 C875 1.524 . S
C877 C874 1.403 . S
C877 C878 1.392 . S
C877 C881 1.495 . S
C878 C877 1.392 . S
C878 C879 1.385 . S
C878 C880 1.478 . S
C879 H873 0.930 . S
C879 C875 1.400 . S
C879 C878 1.385 . S
C880 C878 1.478 . S
C880 C882 1.381 . S
C880 C886 1.383 . S
C881 C877 1.495 . S
C881 H887 0.959 . S
C881 H888 0.961 . S
C881 H889 0.960 . S
C882 C880 1.381 . S
C882 C883 1.394 . S
C882 H890 0.930 . S
C883 C882 1.394 . S
C883 C884 1.383 . S
C883 H891 0.929 . S
C884 C883 1.383 . S
C884 C885 1.377 . S
C885 H869 0.930 . S
C885 C884 1.377 . S
C885 C886 1.379 . S
C886 H870 0.931 . S
C886 C880 1.383 . S
C886 C885 1.379 . S
H887 C881 0.959 . S
H888 C881 0.961 . S
H889 C881 0.960 . S
H890 C882 0.930 . S
H891 C883 0.929 . S
H892 C900 0.929 . S
H893 C902 0.930 . S
H894 C904 0.930 . S
H895 C907 0.929 . S
H896 C910 0.930 . S
H897 C912 0.960 . S
H898 C912 0.960 . S
H899 C912 0.960 . S
C900 H892 0.929 . S
C900 C901 1.377 . S
C900 C902 1.384 . S
C901 C900 1.377 . S
C901 C907 1.390 . S
C902 H893 0.930 . S
C902 C900 1.384 . S
C902 C903 1.372 . S
C903 C902 1.372 . S
C903 C904 1.400 . S
C903 C908 1.490 . S
C904 H894 0.930 . S
C904 C903 1.400 . S
C904 C907 1.386 . S
H905 C921 0.930 . S
H906 C922 0.931 . S
C907 H895 0.929 . S
C907 C901 1.390 . S
C907 C904 1.386 . S
C908 C903 1.490 . S
C908 C910 1.395 . S
C908 C911 1.403 . S
H909 C915 0.930 1_556 S
C910 H896 0.930 . S
C910 C908 1.395 . S
C910 C913 1.403 . S
C911 C908 1.403 . S
C911 C912 1.524 . S
C911 C915 1.400 . S
C912 H897 0.960 . S
C912 H898 0.960 . S
C912 H899 0.960 . S
C912 C911 1.524 . S
C913 C910 1.403 . S
C913 C914 1.392 . S
C913 C917 1.495 . S
C914 C913 1.392 . S
C914 C915 1.385 . S
C914 C916 1.478 1_554 S
C915 H909 0.930 1_554 S
C915 C911 1.400 . S
C915 C914 1.385 . S
C916 C914 1.478 1_556 S
C916 C918 1.381 . S
C916 C922 1.383 . S
C917 C913 1.495 . S
C917 H923 0.959 . S
C917 H924 0.961 . S
C917 H925 0.960 . S
C918 C916 1.381 . S
C918 C919 1.394 . S
C918 H926 0.930 . S
C919 C918 1.394 . S
C919 C920 1.383 . S
C919 H927 0.929 . S
C920 C919 1.383 . S
C920 C921 1.377 . S
C921 H905 0.930 . S
C921 C920 1.377 . S
C921 C922 1.379 . S
C922 H906 0.931 . S
C922 C916 1.383 . S
C922 C921 1.379 . S
H923 C917 0.959 . S
H924 C917 0.961 . S
H925 C917 0.960 . S
H926 C918 0.930 . S
H927 C919 0.929 . S
H928 C936 0.916 1_565 S
H929 C938 0.930 . S
H930 C940 0.930 . S
H931 C943 0.929 . S
H932 C946 0.930 . S
H933 C948 0.960 . S
H934 C948 0.960 . S
H935 C948 0.960 . S
C936 H928 0.916 1_545 S
C936 C937 1.377 . S
C936 C938 1.384 1_545 S
C937 C936 1.377 . S
C937 C943 1.390 . S
C938 H929 0.930 . S
C938 C936 1.384 1_565 S
C938 C939 1.372 . S
C939 C938 1.372 . S
C939 C940 1.400 1_565 S
C939 C944 1.490 . S
C940 H930 0.930 . S
C940 C939 1.400 1_545 S
C940 C943 1.386 . S
H941 C957 0.930 . S
H942 C958 0.931 . S
C943 H931 0.929 . S
C943 C937 1.390 . S
C943 C940 1.386 . S
C944 C939 1.490 . S
C944 C946 1.395 . S
C944 C947 1.403 . S
H945 C951 0.930 . S
C946 H932 0.930 . S
C946 C944 1.395 . S
C946 C949 1.403 . S
C947 C944 1.403 . S
C947 C948 1.524 . S
C947 C951 1.400 . S
C948 H933 0.960 . S
C948 H934 0.960 . S
C948 H935 0.960 . S
C948 C947 1.524 . S
C949 C946 1.403 . S
C949 C950 1.392 . S
C949 C953 1.495 . S
C950 C949 1.392 . S
C950 C951 1.385 . S
C950 C952 1.478 . S
C951 H945 0.930 . S
C951 C947 1.400 . S
C951 C950 1.385 . S
C952 C950 1.478 . S
C952 C954 1.381 . S
C952 C958 1.383 . S
C953 C949 1.495 . S
C953 H959 0.959 . S
C953 H960 0.961 . S
C953 H961 0.960 . S
C954 C952 1.381 . S
C954 C955 1.394 . S
C954 H962 0.930 . S
C955 C954 1.394 . S
C955 C956 1.383 . S
C955 H963 0.929 . S
C956 C955 1.383 . S
C956 C957 1.377 . S
C957 H941 0.930 . S
C957 C956 1.377 . S
C957 C958 1.379 . S
C958 H942 0.931 . S
C958 C952 1.383 . S
C958 C957 1.379 . S
H959 C953 0.959 . S
H960 C953 0.961 . S
H961 C953 0.960 . S
H962 C954 0.930 . S
H963 C955 0.929 . S
H964 C972 0.929 . S
H965 C974 0.930 1_554 S
H966 C976 0.930 . S
H967 C979 0.929 . S
H968 C982 0.930 . S
H969 C984 0.960 . S
H970 C984 0.960 . S
H971 C984 0.960 . S
C972 H964 0.929 . S
C972 C973 1.377 . S
C972 C974 1.384 . S
C973 C972 1.377 . S
C973 C979 1.390 . S
C974 H965 0.930 1_556 S
C974 C972 1.384 . S
C974 C975 1.372 . S
C975 C974 1.372 . S
C975 C976 1.400 . S
C975 C980 1.490 1_556 S
C976 H966 0.930 . S
C976 C975 1.400 . S
C976 C979 1.386 . S
H977 C993 0.930 . S
H978 C994 0.931 . S
C979 H967 0.929 . S
C979 C973 1.390 . S
C979 C976 1.386 . S
C980 C975 1.490 1_554 S
C980 C982 1.395 . S
C980 C983 1.403 . S
H981 C987 0.930 . S
C982 H968 0.930 . S
C982 C980 1.395 . S
C982 C985 1.403 . S
C983 C980 1.403 . S
C983 C984 1.524 . S
C983 C987 1.400 . S
C984 H969 0.960 . S
C984 H970 0.960 . S
C984 H971 0.960 . S
C984 C983 1.524 . S
C985 C982 1.403 . S
C985 C986 1.392 . S
C985 C989 1.495 . S
C986 C985 1.392 . S
C986 C987 1.385 . S
C986 C988 1.478 . S
C987 H981 0.930 . S
C987 C983 1.400 . S
C987 C986 1.385 . S
C988 C986 1.478 . S
C988 C990 1.381 . S
C988 C994 1.383 . S
C989 C985 1.495 . S
C989 H995 0.959 . S
C989 H996 0.961 . S
C989 H997 0.960 . S
C990 C988 1.381 . S
C990 C991 1.394 . S
C990 H998 0.930 . S
C991 C990 1.394 . S
C991 C992 1.383 . S
C991 H999 0.929 . S
C992 C991 1.383 . S
C992 C993 1.377 . S
C993 H977 0.930 . S
C993 C992 1.377 . S
C993 C994 1.379 . S
C994 H978 0.931 . S
C994 C988 1.383 . S
C994 C993 1.379 . S
H995 C989 0.959 . S
H996 C989 0.961 . S
H997 C989 0.960 . S
H998 C990 0.930 . S
H999 C991 0.929 . S
H1000 C1008 0.929 . S
H1001 C1010 0.930 . S
H1002 C1012 0.930 . S
H1003 C1015 0.929 . S
H1004 C1018 0.930 . S
H1005 C1020 0.960 . S
H1006 C1020 0.960 . S
H1007 C1020 0.960 . S
C1008 H1000 0.929 . S
C1008 C1009 1.377 . S
C1008 C1010 1.384 . S
C1009 C1008 1.377 . S
C1009 C1015 1.390 . S
C1010 H1001 0.930 . S
C1010 C1008 1.384 . S
C1010 C1011 1.372 . S
C1011 C1010 1.372 . S
C1011 C1012 1.400 . S
C1011 C1016 1.490 . S
C1012 H1002 0.930 . S
C1012 C1011 1.400 . S
C1012 C1015 1.386 . S
H1013 C1029 0.930 . S
H1014 C1030 0.931 . S
C1015 H1003 0.929 . S
C1015 C1009 1.390 . S
C1015 C1012 1.386 . S
C1016 C1011 1.490 . S
C1016 C1018 1.395 . S
C1016 C1019 1.403 . S
H1017 C1023 0.930 . S
C1018 H1004 0.930 . S
C1018 C1016 1.395 . S
C1018 C1021 1.403 . S
C1019 C1016 1.403 . S
C1019 C1020 1.524 . S
C1019 C1023 1.400 . S
C1020 H1005 0.960 . S
C1020 H1006 0.960 . S
C1020 H1007 0.960 . S
C1020 C1019 1.524 . S
C1021 C1018 1.403 . S
C1021 C1022 1.392 . S
C1021 C1025 1.495 . S
C1022 C1021 1.392 . S
C1022 C1023 1.385 . S
C1022 C1024 1.478 . S
C1023 H1017 0.930 . S
C1023 C1019 1.400 . S
C1023 C1022 1.385 . S
C1024 C1022 1.478 . S
C1024 C1026 1.381 . S
C1024 C1030 1.383 . S
C1025 C1021 1.495 . S
C1025 H1031 0.959 . S
C1025 H1032 0.961 . S
C1025 H1033 0.960 . S
C1026 C1024 1.381 . S
C1026 C1027 1.394 1_545 S
C1026 H1034 0.930 . S
C1027 C1026 1.394 1_565 S
C1027 C1028 1.383 . S
C1027 H1035 0.929 . S
C1028 C1027 1.383 . S
C1028 C1029 1.377 1_565 S
C1029 H1013 0.930 . S
C1029 C1028 1.377 1_545 S
C1029 C1030 1.379 . S
C1030 H1014 0.931 . S
C1030 C1024 1.383 . S
C1030 C1029 1.379 . S
H1031 C1025 0.959 . S
H1032 C1025 0.961 . S
H1033 C1025 0.960 . S
H1034 C1026 0.930 . S
H1035 C1027 0.929 . S
H1036 C1044 0.929 . S
H1037 C1046 0.930 . S
H1038 C1048 0.930 . S
H1039 C1051 0.929 . S
H1040 C1054 0.930 . S
H1041 C1056 0.960 . S
H1042 C1056 0.960 . S
H1043 C1056 0.960 . S
C1044 H1036 0.929 . S
C1044 C1045 1.377 . S
C1044 C1046 1.384 . S
C1045 C1044 1.377 . S
C1045 C1051 1.390 . S
C1046 H1037 0.930 . S
C1046 C1044 1.384 . S
C1046 C1047 1.372 . S
C1047 C1046 1.372 . S
C1047 C1048 1.400 . S
C1047 C1052 1.490 . S
C1048 H1038 0.930 . S
C1048 C1047 1.400 . S
C1048 C1051 1.386 . S
H1049 C1065 0.930 . S
H1050 C1066 0.931 . S
C1051 H1039 0.929 . S
C1051 C1045 1.390 . S
C1051 C1048 1.386 . S
C1052 C1047 1.490 . S
C1052 C1054 1.395 . S
C1052 C1055 1.403 . S
H1053 C1059 0.930 . S
C1054 H1040 0.930 . S
C1054 C1052 1.395 . S
C1054 C1057 1.403 . S
C1055 C1052 1.403 . S
C1055 C1056 1.524 . S
C1055 C1059 1.400 . S
C1056 H1041 0.960 . S
C1056 H1042 0.960 . S
C1056 H1043 0.960 . S
C1056 C1055 1.524 . S
C1057 C1054 1.403 . S
C1057 C1058 1.392 . S
C1057 C1061 1.495 . S
C1058 C1057 1.392 . S
C1058 C1059 1.385 . S
C1058 C1060 1.478 . S
C1059 H1053 0.930 . S
C1059 C1055 1.400 . S
C1059 C1058 1.385 . S
C1060 C1058 1.478 . S
C1060 C1062 1.381 . S
C1060 C1066 1.383 . S
C1061 C1057 1.495 . S
C1061 H1067 0.959 . S
C1061 H1068 0.961 . S
C1061 H1069 0.960 . S
C1062 C1060 1.381 . S
C1062 C1063 1.394 . S
C1062 H1070 0.930 . S
C1063 C1062 1.394 . S
C1063 C1064 1.383 . S
C1063 H1071 0.929 . S
C1064 C1063 1.383 . S
C1064 C1065 1.377 . S
C1065 H1049 0.930 . S
C1065 C1064 1.377 . S
C1065 C1066 1.379 . S
C1066 H1050 0.931 . S
C1066 C1060 1.383 . S
C1066 C1065 1.379 . S
H1067 C1061 0.959 . S
H1068 C1061 0.961 . S
H1069 C1061 0.960 . S
H1070 C1062 0.930 . S
H1071 C1063 0.929 . S
H1072 C1080 0.929 . S
H1073 C1082 0.930 . S
H1074 C1084 0.930 . S
H1075 C1087 0.929 . S
H1076 C1090 0.930 . S
H1077 C1092 0.960 1_565 S
H1078 C1092 0.960 . S
H1079 C1092 0.960 . S
C1080 H1072 0.929 . S
C1080 C1081 1.377 . S
C1080 C1082 1.384 . S
C1081 C1080 1.377 . S
C1081 C1087 1.390 . S
C1082 H1073 0.930 . S
C1082 C1080 1.384 . S
C1082 C1083 1.372 . S
C1083 C1082 1.372 . S
C1083 C1084 1.400 . S
C1083 C1088 1.490 . S
C1084 H1074 0.930 . S
C1084 C1083 1.400 . S
C1084 C1087 1.386 . S
H1085 C1101 0.930 . S
H1086 C1102 0.931 . S
C1087 H1075 0.929 . S
C1087 C1081 1.390 . S
C1087 C1084 1.386 . S
C1088 C1083 1.490 . S
C1088 C1090 1.395 . S
C1088 C1091 1.403 . S
H1089 C1095 0.930 1_565 S
C1090 H1076 0.930 . S
C1090 C1088 1.395 . S
C1090 C1093 1.403 . S
C1091 C1088 1.403 . S
C1091 C1092 1.524 . S
C1091 C1095 1.400 . S
C1092 H1077 0.960 1_545 S
C1092 H1078 0.960 . S
C1092 H1079 0.960 . S
C1092 C1091 1.524 . S
C1093 C1090 1.403 . S
C1093 C1094 1.392 . S
C1093 C1097 1.495 . S
C1094 C1093 1.392 . S
C1094 C1095 1.385 . S
C1094 C1096 1.478 . S
C1095 H1089 0.930 1_545 S
C1095 C1091 1.400 . S
C1095 C1094 1.385 . S
C1096 C1094 1.478 . S
C1096 C1098 1.381 . S
C1096 C1102 1.383 1_545 S
C1097 C1093 1.495 . S
C1097 H1103 0.959 . S
C1097 H1104 0.961 . S
C1097 H1105 0.960 . S
C1098 C1096 1.381 . S
C1098 C1099 1.394 1_545 S
C1098 H1106 0.930 . S
C1099 C1098 1.394 1_565 S
C1099 C1100 1.383 . S
C1099 H1107 0.929 . S
C1100 C1099 1.383 . S
C1100 C1101 1.377 . S
C1101 H1085 0.930 . S
C1101 C1100 1.377 . S
C1101 C1102 1.379 . S
C1102 H1086 0.931 . S
C1102 C1096 1.383 1_565 S
C1102 C1101 1.379 . S
H1103 C1097 0.959 . S
H1104 C1097 0.961 . S
H1105 C1097 0.960 . S
H1106 C1098 0.930 . S
H1107 C1099 0.929 . S
H1108 C1116 0.929 . S
H1109 C1118 0.930 1_554 S
H1110 C1120 0.930 . S
H1111 C1123 0.929 . S
H1112 C1126 0.930 . S
H1113 C1128 0.960 . S
H1114 C1128 0.960 . S
H1115 C1128 0.960 . S
C1116 H1108 0.929 . S
C1116 C1117 1.377 . S
C1116 C1118 1.384 . S
C1117 C1116 1.377 . S
C1117 C1123 1.390 . S
C1118 H1109 0.930 1_556 S
C1118 C1116 1.384 . S
C1118 C1119 1.372 . S
C1119 C1118 1.372 . S
C1119 C1120 1.400 . S
C1119 C1124 1.490 1_556 S
C1120 H1110 0.930 . S
C1120 C1119 1.400 . S
C1120 C1123 1.386 . S
H1121 C1137 0.930 . S
H1122 C1138 0.931 . S
C1123 H1111 0.929 . S
C1123 C1117 1.390 . S
C1123 C1120 1.386 . S
C1124 C1119 1.490 1_554 S
C1124 C1126 1.395 . S
C1124 C1127 1.403 . S
H1125 C1131 0.930 . S
C1126 H1112 0.930 . S
C1126 C1124 1.395 . S
C1126 C1129 1.403 . S
C1127 C1124 1.403 . S
C1127 C1128 1.524 . S
C1127 C1131 1.400 . S
C1128 H1113 0.960 . S
C1128 H1114 0.960 . S
C1128 H1115 0.960 . S
C1128 C1127 1.524 . S
C1129 C1126 1.403 . S
C1129 C1130 1.392 . S
C1129 C1133 1.495 . S
C1130 C1129 1.392 . S
C1130 C1131 1.385 . S
C1130 C1132 1.478 . S
C1131 H1125 0.930 . S
C1131 C1127 1.400 . S
C1131 C1130 1.385 . S
C1132 C1130 1.478 . S
C1132 C1134 1.381 . S
C1132 C1138 1.383 . S
C1133 C1129 1.495 . S
C1133 H1139 0.959 . S
C1133 H1140 0.961 . S
C1133 H1141 0.960 . S
C1134 C1132 1.381 . S
C1134 C1135 1.394 . S
C1134 H1142 0.930 . S
C1135 C1134 1.394 . S
C1135 C1136 1.383 . S
C1135 H1143 0.929 . S
C1136 C1135 1.383 . S
C1136 C1137 1.377 . S
C1137 H1121 0.930 . S
C1137 C1136 1.377 . S
C1137 C1138 1.379 . S
C1138 H1122 0.931 . S
C1138 C1132 1.383 . S
C1138 C1137 1.379 . S
H1139 C1133 0.959 . S
H1140 C1133 0.961 . S
H1141 C1133 0.960 . S
H1142 C1134 0.930 . S
H1143 C1135 0.929 . S
H1144 C1152 0.929 . S
H1145 C1154 0.930 . S
H1146 C1156 0.930 . S
H1147 C1159 0.929 . S
H1148 C1162 0.930 . S
H1149 C1164 0.960 1_545 S
H1150 C1164 0.960 . S
H1151 C1164 0.960 . S
C1152 H1144 0.929 . S
C1152 C1153 1.377 . S
C1152 C1154 1.384 . S
C1153 C1152 1.377 . S
C1153 C1159 1.390 . S
C1154 H1145 0.930 . S
C1154 C1152 1.384 . S
C1154 C1155 1.372 . S
C1155 C1154 1.372 . S
C1155 C1156 1.400 . S
C1155 C1160 1.490 . S
C1156 H1146 0.930 . S
C1156 C1155 1.400 . S
C1156 C1159 1.386 . S
H1157 C1173 0.930 . S
H1158 C1174 0.931 . S
C1159 H1147 0.929 . S
C1159 C1153 1.390 . S
C1159 C1156 1.386 . S
C1160 C1155 1.490 . S
C1160 C1162 1.395 . S
C1160 C1163 1.403 . S
H1161 C1167 0.930 . S
C1162 H1148 0.930 . S
C1162 C1160 1.395 . S
C1162 C1165 1.403 . S
C1163 C1160 1.403 . S
C1163 C1164 1.524 . S
C1163 C1167 1.400 . S
C1164 H1149 0.960 1_565 S
C1164 H1150 0.960 . S
C1164 H1151 0.960 . S
C1164 C1163 1.524 . S
C1165 C1162 1.403 . S
C1165 C1166 1.392 . S
C1165 C1169 1.495 . S
C1166 C1165 1.392 . S
C1166 C1167 1.385 . S
C1166 C1168 1.478 . S
C1167 H1161 0.930 . S
C1167 C1163 1.400 . S
C1167 C1166 1.385 . S
C1168 C1166 1.478 . S
C1168 C1170 1.381 . S
C1168 C1174 1.383 . S
C1169 C1165 1.495 . S
C1169 H1175 0.959 . S
C1169 H1176 0.961 . S
C1169 H1177 0.960 . S
C1170 C1168 1.381 . S
C1170 C1171 1.394 . S
C1170 H1178 0.930 . S
C1171 C1170 1.394 . S
C1171 C1172 1.383 1_565 S
C1171 H1179 0.929 . S
C1172 C1171 1.383 1_545 S
C1172 C1173 1.377 . S
C1173 H1157 0.930 . S
C1173 C1172 1.377 . S
C1173 C1174 1.379 1_545 S
C1174 H1158 0.931 . S
C1174 C1168 1.383 . S
C1174 C1173 1.379 1_565 S
H1175 C1169 0.959 . S
H1176 C1169 0.961 . S
H1177 C1169 0.960 . S
H1178 C1170 0.930 . S
H1179 C1171 0.929 . S
H1180 C1188 0.929 . S
H1181 C1190 0.930 . S
H1182 C1192 0.930 . S
H1183 C1195 0.929 . S
H1184 C1198 0.930 . S
H1185 C1200 0.960 . S
H1186 C1200 0.960 . S
H1187 C1200 0.960 . S
C1188 H1180 0.929 . S
C1188 C1189 1.377 . S
C1188 C1190 1.384 . S
C1189 C1188 1.377 . S
C1189 C1195 1.390 . S
C1190 H1181 0.930 . S
C1190 C1188 1.384 . S
C1190 C1191 1.372 . S
C1191 C1190 1.372 . S
C1191 C1192 1.400 . S
C1191 C1196 1.490 . S
C1192 H1182 0.930 . S
C1192 C1191 1.400 . S
C1192 C1195 1.386 . S
H1193 C1209 0.930 . S
H1194 C1210 0.931 . S
C1195 H1183 0.929 . S
C1195 C1189 1.390 . S
C1195 C1192 1.386 . S
C1196 C1191 1.490 . S
C1196 C1198 1.395 . S
C1196 C1199 1.403 . S
H1197 C1203 0.930 . S
C1198 H1184 0.930 . S
C1198 C1196 1.395 . S
C1198 C1201 1.403 . S
C1199 C1196 1.403 . S
C1199 C1200 1.524 . S
C1199 C1203 1.400 . S
C1200 H1185 0.960 . S
C1200 H1186 0.960 . S
C1200 H1187 0.960 . S
C1200 C1199 1.524 . S
C1201 C1198 1.403 . S
C1201 C1202 1.392 . S
C1201 C1205 1.495 . S
C1202 C1201 1.392 . S
C1202 C1203 1.385 . S
C1202 C1204 1.478 . S
C1203 H1197 0.930 . S
C1203 C1199 1.400 . S
C1203 C1202 1.385 . S
C1204 C1202 1.478 . S
C1204 C1206 1.381 . S
C1204 C1210 1.383 . S
C1205 C1201 1.495 . S
C1205 H1211 0.959 . S
C1205 H1212 0.961 . S
C1205 H1213 0.960 . S
C1206 C1204 1.381 . S
C1206 C1207 1.394 . S
C1206 H1214 0.930 . S
C1207 C1206 1.394 . S
C1207 C1208 1.383 . S
C1207 H1215 0.929 . S
C1208 C1207 1.383 . S
C1208 C1209 1.377 . S
C1209 H1193 0.930 . S
C1209 C1208 1.377 . S
C1209 C1210 1.379 . S
C1210 H1194 0.931 . S
C1210 C1204 1.383 . S
C1210 C1209 1.379 . S
H1211 C1205 0.959 . S
H1212 C1205 0.961 . S
H1213 C1205 0.960 . S
H1214 C1206 0.930 . S
H1215 C1207 0.929 . S
H1216 C1224 0.929 . S
H1217 C1226 0.930 . S
H1218 C1228 0.930 . S
H1219 C1231 0.929 . S
H1220 C1234 0.930 . S
H1221 C1236 0.960 . S
H1222 C1236 0.960 . S
H1223 C1236 0.960 . S
C1224 H1216 0.929 . S
C1224 C1225 1.377 . S
C1224 C1226 1.384 . S
C1225 C1224 1.377 . S
C1225 C1231 1.390 . S
C1226 H1217 0.930 . S
C1226 C1224 1.384 . S
C1226 C1227 1.372 . S
C1227 C1226 1.372 . S
C1227 C1228 1.400 . S
C1227 C1232 1.490 . S
C1228 H1218 0.930 . S
C1228 C1227 1.400 . S
C1228 C1231 1.386 . S
H1229 C1245 0.930 . S
H1230 C1246 0.931 . S
C1231 H1219 0.929 . S
C1231 C1225 1.390 . S
C1231 C1228 1.386 . S
C1232 C1227 1.490 . S
C1232 C1234 1.395 . S
C1232 C1235 1.403 . S
H1233 C1239 0.930 . S
C1234 H1220 0.930 . S
C1234 C1232 1.395 . S
C1234 C1237 1.403 . S
C1235 C1232 1.403 . S
C1235 C1236 1.524 . S
C1235 C1239 1.400 . S
C1236 H1221 0.960 . S
C1236 H1222 0.960 . S
C1236 H1223 0.960 . S
C1236 C1235 1.524 . S
C1237 C1234 1.403 . S
C1237 C1238 1.392 . S
C1237 C1241 1.495 . S
C1238 C1237 1.392 . S
C1238 C1239 1.385 . S
C1238 C1240 1.478 . S
C1239 H1233 0.930 . S
C1239 C1235 1.400 . S
C1239 C1238 1.385 . S
C1240 C1238 1.478 . S
C1240 C1242 1.381 . S
C1240 C1246 1.383 . S
C1241 C1237 1.495 . S
C1241 H1247 0.959 . S
C1241 H1248 0.961 . S
C1241 H1249 0.960 . S
C1242 C1240 1.381 . S
C1242 C1243 1.394 . S
C1242 H1250 0.930 . S
C1243 C1242 1.394 . S
C1243 C1244 1.383 . S
C1243 H1251 0.929 . S
C1244 C1243 1.383 . S
C1244 C1245 1.377 . S
C1245 H1229 0.930 . S
C1245 C1244 1.377 . S
C1245 C1246 1.379 . S
C1246 H1230 0.931 . S
C1246 C1240 1.383 . S
C1246 C1245 1.379 . S
H1247 C1241 0.959 . S
H1248 C1241 0.961 . S
H1249 C1241 0.960 . S
H1250 C1242 0.930 . S
H1251 C1243 0.929 . S
H1252 C1260 0.929 . S
H1253 C1262 0.930 . S
H1254 C1264 0.930 . S
H1255 C1267 0.929 . S
H1256 C1270 0.930 . S
H1257 C1272 0.960 . S
H1258 C1272 0.960 . S
H1259 C1272 0.960 . S
C1260 H1252 0.929 . S
C1260 C1261 1.377 . S
C1260 C1262 1.384 . S
C1261 C1260 1.377 . S
C1261 C1267 1.390 . S
C1262 H1253 0.930 . S
C1262 C1260 1.384 . S
C1262 C1263 1.372 . S
C1263 C1262 1.372 . S
C1263 C1264 1.400 . S
C1263 C1268 1.490 . S
C1264 H1254 0.930 . S
C1264 C1263 1.400 . S
C1264 C1267 1.386 . S
H1265 C1281 0.930 . S
H1266 C1282 0.931 . S
C1267 H1255 0.929 . S
C1267 C1261 1.390 . S
C1267 C1264 1.386 . S
C1268 C1263 1.490 . S
C1268 C1270 1.395 . S
C1268 C1271 1.403 . S
H1269 C1275 0.930 . S
C1270 H1256 0.930 . S
C1270 C1268 1.395 . S
C1270 C1273 1.403 . S
C1271 C1268 1.403 . S
C1271 C1272 1.524 . S
C1271 C1275 1.400 . S
C1272 H1257 0.960 . S
C1272 H1258 0.960 . S
C1272 H1259 0.960 . S
C1272 C1271 1.524 . S
C1273 C1270 1.403 . S
C1273 C1274 1.392 . S
C1273 C1277 1.495 . S
C1274 C1273 1.392 . S
C1274 C1275 1.385 . S
C1274 C1276 1.478 . S
C1275 H1269 0.930 . S
C1275 C1271 1.400 . S
C1275 C1274 1.385 . S
C1276 C1274 1.478 . S
C1276 C1278 1.381 . S
C1276 C1282 1.383 . S
C1277 C1273 1.495 . S
C1277 H1283 0.959 . S
C1277 H1284 0.961 . S
C1277 H1285 0.960 . S
C1278 C1276 1.381 . S
C1278 C1279 1.394 . S
C1278 H1286 0.930 . S
C1279 C1278 1.394 . S
C1279 C1280 1.383 . S
C1279 H1287 0.929 . S
C1280 C1279 1.383 . S
C1280 C1281 1.377 . S
C1281 H1265 0.930 . S
C1281 C1280 1.377 . S
C1281 C1282 1.379 . S
C1282 H1266 0.931 . S
C1282 C1276 1.383 . S
C1282 C1281 1.379 . S
H1283 C1277 0.959 . S
H1284 C1277 0.961 . S
H1285 C1277 0.960 . S
H1286 C1278 0.930 . S
H1287 C1279 0.929 . S
H1288 C1296 0.929 . S
H1289 C1298 0.930 . S
H1290 C1300 0.930 . S
H1291 C1303 0.929 . S
H1292 C1306 0.930 . S
H1293 C1308 0.960 . S
H1294 C1308 0.960 . S
H1295 C1308 0.960 . S
C1296 H1288 0.929 . S
C1296 C1297 1.377 . S
C1296 C1298 1.384 . S
C1297 C1296 1.377 . S
C1297 C1303 1.390 . S
C1298 H1289 0.930 . S
C1298 C1296 1.384 . S
C1298 C1299 1.372 . S
C1299 C1298 1.372 . S
C1299 C1300 1.400 . S
C1299 C1304 1.490 . S
C1300 H1290 0.930 . S
C1300 C1299 1.400 . S
C1300 C1303 1.386 . S
H1301 C1317 0.930 . S
H1302 C1318 0.931 . S
C1303 H1291 0.929 . S
C1303 C1297 1.390 . S
C1303 C1300 1.386 . S
C1304 C1299 1.490 . S
C1304 C1306 1.395 . S
C1304 C1307 1.403 . S
H1305 C1311 0.930 . S
C1306 H1292 0.930 . S
C1306 C1304 1.395 . S
C1306 C1309 1.403 . S
C1307 C1304 1.403 . S
C1307 C1308 1.524 . S
C1307 C1311 1.400 . S
C1308 H1293 0.960 . S
C1308 H1294 0.960 . S
C1308 H1295 0.960 . S
C1308 C1307 1.524 . S
C1309 C1306 1.403 . S
C1309 C1310 1.392 . S
C1309 C1313 1.495 . S
C1310 C1309 1.392 . S
C1310 C1311 1.385 . S
C1310 C1312 1.478 . S
C1311 H1305 0.930 . S
C1311 C1307 1.400 . S
C1311 C1310 1.385 . S
C1312 C1310 1.478 . S
C1312 C1314 1.381 . S
C1312 C1318 1.383 . S
C1313 C1309 1.495 . S
C1313 H1319 0.959 . S
C1313 H1320 0.961 . S
C1313 H1321 0.960 . S
C1314 C1312 1.381 . S
C1314 C1315 1.394 . S
C1314 H1322 0.930 . S
C1315 C1314 1.394 . S
C1315 C1316 1.383 . S
C1315 H1323 0.929 . S
C1316 C1315 1.383 . S
C1316 C1317 1.377 . S
C1317 H1301 0.930 . S
C1317 C1316 1.377 . S
C1317 C1318 1.379 . S
C1318 H1302 0.931 . S
C1318 C1312 1.383 . S
C1318 C1317 1.379 . S
H1319 C1313 0.959 . S
H1320 C1313 0.961 . S
H1321 C1313 0.960 . S
H1322 C1314 0.930 . S
H1323 C1315 0.929 . S
H1324 C1332 0.929 . S
H1325 C1334 0.930 . S
H1326 C1336 0.930 . S
H1327 C1339 0.929 . S
H1328 C1342 0.930 . S
H1329 C1344 0.960 . S
H1330 C1344 0.960 . S
H1331 C1344 0.960 . S
C1332 H1324 0.929 . S
C1332 C1333 1.377 . S
C1332 C1334 1.384 . S
C1333 C1332 1.377 . S
C1333 C1339 1.390 . S
C1334 H1325 0.930 . S
C1334 C1332 1.384 . S
C1334 C1335 1.372 . S
C1335 C1334 1.372 . S
C1335 C1336 1.400 . S
C1335 C1340 1.490 . S
C1336 H1326 0.930 . S
C1336 C1335 1.400 . S
C1336 C1339 1.386 . S
H1337 C1353 0.930 . S
H1338 C1354 0.931 . S
C1339 H1327 0.929 . S
C1339 C1333 1.390 . S
C1339 C1336 1.386 . S
C1340 C1335 1.490 . S
C1340 C1342 1.395 . S
C1340 C1343 1.403 . S
H1341 C1347 0.930 . S
C1342 H1328 0.930 . S
C1342 C1340 1.395 . S
C1342 C1345 1.403 . S
C1343 C1340 1.403 . S
C1343 C1344 1.524 . S
C1343 C1347 1.400 . S
C1344 H1329 0.960 . S
C1344 H1330 0.960 . S
C1344 H1331 0.960 . S
C1344 C1343 1.524 . S
C1345 C1342 1.403 . S
C1345 C1346 1.392 . S
C1345 C1349 1.495 . S
C1346 C1345 1.392 . S
C1346 C1347 1.385 . S
C1346 C1348 1.478 . S
C1347 H1341 0.930 . S
C1347 C1343 1.400 . S
C1347 C1346 1.385 . S
C1348 C1346 1.478 . S
C1348 C1350 1.381 . S
C1348 C1354 1.383 1_556 S
C1349 C1345 1.495 . S
C1349 H1355 0.959 . S
C1349 H1356 0.961 . S
C1349 H1357 0.960 . S
C1350 C1348 1.381 . S
C1350 C1351 1.394 . S
C1350 H1358 0.930 . S
C1351 C1350 1.394 . S
C1351 C1352 1.383 1_556 S
C1351 H1359 0.929 . S
C1352 C1351 1.383 1_554 S
C1352 C1353 1.377 . S
C1353 H1337 0.930 . S
C1353 C1352 1.377 . S
C1353 C1354 1.379 . S
C1354 H1338 0.931 . S
C1354 C1348 1.383 1_554 S
C1354 C1353 1.379 . S
H1355 C1349 0.959 . S
H1356 C1349 0.961 . S
H1357 C1349 0.960 . S
H1358 C1350 0.930 . S
H1359 C1351 0.929 . S
H1360 C1368 0.929 . S
H1361 C1370 0.930 . S
H1362 C1372 0.930 . S
H1363 C1375 0.929 . S
H1364 C1378 0.930 . S
H1365 C1380 0.960 . S
H1366 C1380 0.960 . S
H1367 C1380 0.960 . S
C1368 H1360 0.929 . S
C1368 C1369 1.377 . S
C1368 C1370 1.384 . S
C1369 C1368 1.377 . S
C1369 C1375 1.390 . S
C1370 H1361 0.930 . S
C1370 C1368 1.384 . S
C1370 C1371 1.372 . S
C1371 C1370 1.372 . S
C1371 C1372 1.400 . S
C1371 C1376 1.490 . S
C1372 H1362 0.930 . S
C1372 C1371 1.400 . S
C1372 C1375 1.386 . S
H1373 C1389 0.930 . S
H1374 C1390 0.931 . S
C1375 H1363 0.929 . S
C1375 C1369 1.390 . S
C1375 C1372 1.386 . S
C1376 C1371 1.490 . S
C1376 C1378 1.395 . S
C1376 C1379 1.403 . S
H1377 C1383 0.930 . S
C1378 H1364 0.930 . S
C1378 C1376 1.395 . S
C1378 C1381 1.403 . S
C1379 C1376 1.403 . S
C1379 C1380 1.524 . S
C1379 C1383 1.400 . S
C1380 H1365 0.960 . S
C1380 H1366 0.960 . S
C1380 H1367 0.960 . S
C1380 C1379 1.524 . S
C1381 C1378 1.403 . S
C1381 C1382 1.392 . S
C1381 C1385 1.495 . S
C1382 C1381 1.392 . S
C1382 C1383 1.385 . S
C1382 C1384 1.478 . S
C1383 H1377 0.930 . S
C1383 C1379 1.400 . S
C1383 C1382 1.385 . S
C1384 C1382 1.478 . S
C1384 C1386 1.381 . S
C1384 C1390 1.383 . S
C1385 C1381 1.495 . S
C1385 H1391 0.959 . S
C1385 H1392 0.961 . S
C1385 H1393 0.960 . S
C1386 C1384 1.381 . S
C1386 C1387 1.394 . S
C1386 H1394 0.930 . S
C1387 C1386 1.394 . S
C1387 C1388 1.383 . S
C1387 H1395 0.929 . S
C1388 C1387 1.383 . S
C1388 C1389 1.377 . S
C1389 H1373 0.930 . S
C1389 C1388 1.377 . S
C1389 C1390 1.379 . S
C1390 H1374 0.931 . S
C1390 C1384 1.383 . S
C1390 C1389 1.379 . S
H1391 C1385 0.959 . S
H1392 C1385 0.961 . S
H1393 C1385 0.960 . S
H1394 C1386 0.930 . S
H1395 C1387 0.929 . S
H1396 C1404 0.929 . S
H1397 C1406 0.930 . S
H1398 C1408 0.930 . S
H1399 C1411 0.929 . S
H1400 C1414 0.930 . S
H1401 C1416 0.960 . S
H1402 C1416 0.960 . S
H1403 C1416 0.960 . S
C1404 H1396 0.929 . S
C1404 C1405 1.377 . S
C1404 C1406 1.384 . S
C1405 C1404 1.377 . S
C1405 C1411 1.390 . S
C1406 H1397 0.930 . S
C1406 C1404 1.384 . S
C1406 C1407 1.372 . S
C1407 C1406 1.372 . S
C1407 C1408 1.400 . S
C1407 C1412 1.490 . S
C1408 H1398 0.930 . S
C1408 C1407 1.400 . S
C1408 C1411 1.386 . S
H1409 C1425 0.930 . S
H1410 C1426 0.931 . S
C1411 H1399 0.929 . S
C1411 C1405 1.390 . S
C1411 C1408 1.386 . S
C1412 C1407 1.490 . S
C1412 C1414 1.395 . S
C1412 C1415 1.403 . S
H1413 C1419 0.930 . S
C1414 H1400 0.930 . S
C1414 C1412 1.395 . S
C1414 C1417 1.403 . S
C1415 C1412 1.403 . S
C1415 C1416 1.524 . S
C1415 C1419 1.400 . S
C1416 H1401 0.960 . S
C1416 H1402 0.960 . S
C1416 H1403 0.960 . S
C1416 C1415 1.524 . S
C1417 C1414 1.403 . S
C1417 C1418 1.392 . S
C1417 C1421 1.495 . S
C1418 C1417 1.392 . S
C1418 C1419 1.385 . S
C1418 C1420 1.478 . S
C1419 H1413 0.930 . S
C1419 C1415 1.400 . S
C1419 C1418 1.385 . S
C1420 C1418 1.478 . S
C1420 C1422 1.381 . S
C1420 C1426 1.383 . S
C1421 C1417 1.495 . S
C1421 H1427 0.959 . S
C1421 H1428 0.961 . S
C1421 H1429 0.960 . S
C1422 C1420 1.381 . S
C1422 C1423 1.394 . S
C1422 H1430 0.930 . S
C1423 C1422 1.394 . S
C1423 C1424 1.383 . S
C1423 H1431 0.929 . S
C1424 C1423 1.383 . S
C1424 C1425 1.377 . S
C1425 H1409 0.930 . S
C1425 C1424 1.377 . S
C1425 C1426 1.379 . S
C1426 H1410 0.931 . S
C1426 C1420 1.383 . S
C1426 C1425 1.379 . S
H1427 C1421 0.959 . S
H1428 C1421 0.961 . S
H1429 C1421 0.960 . S
H1430 C1422 0.930 . S
H1431 C1423 0.929 . S
H1432 C1440 0.929 . S
H1433 C1442 0.930 . S
H1434 C1444 0.930 . S
H1435 C1447 0.929 . S
H1436 C1450 0.930 . S
H1437 C1452 0.960 . S
H1438 C1452 0.960 . S
H1439 C1452 0.960 . S
C1440 H1432 0.929 . S
C1440 C1441 1.377 . S
C1440 C1442 1.384 . S
C1441 C1440 1.377 . S
C1441 C1447 1.390 1_554 S
C1442 H1433 0.930 . S
C1442 C1440 1.384 . S
C1442 C1443 1.372 1_554 S
C1443 C1442 1.372 1_556 S
C1443 C1444 1.400 . S
C1443 C1448 1.490 . S
C1444 H1434 0.930 . S
C1444 C1443 1.400 . S
C1444 C1447 1.386 . S
H1445 C1461 0.930 . S
H1446 C1462 0.931 . S
C1447 H1435 0.929 . S
C1447 C1441 1.390 1_556 S
C1447 C1444 1.386 . S
C1448 C1443 1.490 . S
C1448 C1450 1.395 . S
C1448 C1451 1.403 . S
H1449 C1455 0.930 . S
C1450 H1436 0.930 . S
C1450 C1448 1.395 . S
C1450 C1453 1.403 . S
C1451 C1448 1.403 . S
C1451 C1452 1.524 . S
C1451 C1455 1.400 . S
C1452 H1437 0.960 . S
C1452 H1438 0.960 . S
C1452 H1439 0.960 . S
C1452 C1451 1.524 . S
C1453 C1450 1.403 . S
C1453 C1454 1.392 . S
C1453 C1457 1.495 . S
C1454 C1453 1.392 . S
C1454 C1455 1.385 . S
C1454 C1456 1.478 . S
C1455 H1449 0.930 . S
C1455 C1451 1.400 . S
C1455 C1454 1.385 . S
C1456 C1454 1.478 . S
C1456 C1458 1.381 . S
C1456 C1462 1.383 . S
C1457 C1453 1.495 . S
C1457 H1463 0.959 . S
C1457 H1464 0.961 . S
C1457 H1465 0.960 . S
C1458 C1456 1.381 . S
C1458 C1459 1.394 . S
C1458 H1466 0.930 . S
C1459 C1458 1.394 . S
C1459 C1460 1.383 . S
C1459 H1467 0.929 . S
C1460 C1459 1.383 . S
C1460 C1461 1.377 . S
C1461 H1445 0.930 . S
C1461 C1460 1.377 . S
C1461 C1462 1.379 . S
C1462 H1446 0.931 . S
C1462 C1456 1.383 . S
C1462 C1461 1.379 . S
H1463 C1457 0.959 . S
H1464 C1457 0.961 . S
H1465 C1457 0.960 . S
H1466 C1458 0.930 . S
H1467 C1459 0.929 . S
H1468 C1476 0.929 . S
H1469 C1478 0.930 . S
H1470 C1480 0.930 . S
H1471 C1483 0.929 . S
H1472 C1486 0.930 . S
H1473 C1488 0.960 . S
H1474 C1488 0.960 . S
H1475 C1488 0.960 . S
C1476 H1468 0.929 . S
C1476 C1477 1.377 . S
C1476 C1478 1.384 . S
C1477 C1476 1.377 . S
C1477 C1483 1.390 . S
C1478 H1469 0.930 . S
C1478 C1476 1.384 . S
C1478 C1479 1.372 . S
C1479 C1478 1.372 . S
C1479 C1480 1.400 . S
C1479 C1484 1.490 . S
C1480 H1470 0.930 . S
C1480 C1479 1.400 . S
C1480 C1483 1.386 . S
H1481 C1497 0.930 . S
H1482 C1498 0.931 . S
C1483 H1471 0.929 . S
C1483 C1477 1.390 . S
C1483 C1480 1.386 . S
C1484 C1479 1.490 . S
C1484 C1486 1.395 . S
C1484 C1487 1.403 . S
H1485 C1491 0.930 . S
C1486 H1472 0.930 . S
C1486 C1484 1.395 . S
C1486 C1489 1.403 . S
C1487 C1484 1.403 . S
C1487 C1488 1.524 . S
C1487 C1491 1.400 . S
C1488 H1473 0.960 . S
C1488 H1474 0.960 . S
C1488 H1475 0.960 . S
C1488 C1487 1.524 . S
C1489 C1486 1.403 . S
C1489 C1490 1.392 . S
C1489 C1493 1.495 . S
C1490 C1489 1.392 . S
C1490 C1491 1.385 . S
C1490 C1492 1.478 . S
C1491 H1485 0.930 . S
C1491 C1487 1.400 . S
C1491 C1490 1.385 . S
C1492 C1490 1.478 . S
C1492 C1494 1.381 . S
C1492 C1498 1.383 . S
C1493 C1489 1.495 . S
C1493 H1499 0.959 . S
C1493 H1500 0.961 . S
C1493 H1501 0.960 . S
C1494 C1492 1.381 . S
C1494 C1495 1.394 . S
C1494 H1502 0.930 . S
C1495 C1494 1.394 . S
C1495 C1496 1.383 . S
C1495 H1503 0.929 . S
C1496 C1495 1.383 . S
C1496 C1497 1.377 . S
C1497 H1481 0.930 . S
C1497 C1496 1.377 . S
C1497 C1498 1.379 . S
C1498 H1482 0.931 . S
C1498 C1492 1.383 . S
C1498 C1497 1.379 . S
H1499 C1493 0.959 . S
H1500 C1493 0.961 . S
H1501 C1493 0.960 . S
H1502 C1494 0.930 . S
H1503 C1495 0.929 . S
H1504 C1512 0.929 . S
H1505 C1514 0.930 . S
H1506 C1516 0.930 . S
H1507 C1519 0.928 1_554 S
H1508 C1522 0.930 . S
H1509 C1524 0.960 . S
H1510 C1524 0.960 1_554 S
H1511 C1524 0.960 . S
C1512 H1504 0.929 . S
C1512 C1513 1.377 . S
C1512 C1514 1.384 1_554 S
C1513 C1512 1.377 . S
C1513 C1519 1.378 1_554 S
C1514 H1505 0.930 . S
C1514 C1512 1.384 1_556 S
C1514 C1515 1.372 . S
C1515 C1514 1.372 . S
C1515 C1516 1.400 . S
C1515 C1520 1.490 . S
C1516 H1506 0.930 . S
C1516 C1515 1.400 . S
C1516 C1519 1.399 . S
H1517 C1533 0.930 . S
H1518 C1534 0.931 . S
C1519 H1507 0.928 1_556 S
C1519 C1513 1.378 1_556 S
C1519 C1516 1.399 . S
C1520 C1515 1.490 . S
C1520 C1522 1.395 . S
C1520 C1523 1.403 . S
H1521 C1527 0.930 . S
C1522 H1508 0.930 . S
C1522 C1520 1.395 . S
C1522 C1525 1.403 . S
C1523 C1520 1.403 . S
C1523 C1524 1.524 . S
C1523 C1527 1.400 . S
C1524 H1509 0.960 . S
C1524 H1510 0.960 1_556 S
C1524 H1511 0.960 . S
C1524 C1523 1.524 . S
C1525 C1522 1.403 . S
C1525 C1526 1.392 . S
C1525 C1529 1.495 . S
C1526 C1525 1.392 . S
C1526 C1527 1.385 . S
C1526 C1528 1.478 . S
C1527 H1521 0.930 . S
C1527 C1523 1.400 . S
C1527 C1526 1.385 . S
C1528 C1526 1.478 . S
C1528 C1530 1.381 . S
C1528 C1534 1.383 . S
C1529 C1525 1.495 . S
C1529 H1535 0.959 . S
C1529 H1536 0.961 . S
C1529 H1537 0.960 . S
C1530 C1528 1.381 . S
C1530 C1531 1.394 . S
C1530 H1538 0.930 . S
C1531 C1530 1.394 . S
C1531 C1532 1.383 . S
C1531 H1539 0.929 . S
C1532 C1531 1.383 . S
C1532 C1533 1.377 . S
C1533 H1517 0.930 . S
C1533 C1532 1.377 . S
C1533 C1534 1.379 . S
C1534 H1518 0.931 . S
C1534 C1528 1.383 . S
C1534 C1533 1.379 . S
H1535 C1529 0.959 . S
H1536 C1529 0.961 . S
H1537 C1529 0.960 . S
H1538 C1530 0.930 . S
H1539 C1531 0.929 . S
H1540 C1548 0.929 . S
H1541 C1550 0.930 . S
H1542 C1552 0.930 . S
H1543 C1555 0.929 . S
H1544 C1558 0.930 . S
H1545 C1560 0.960 . S
H1546 C1560 0.960 . S
H1547 C1560 0.960 . S
C1548 H1540 0.929 . S
C1548 C1549 1.377 . S
C1548 C1550 1.384 . S
C1549 C1548 1.377 . S
C1549 C1555 1.390 . S
C1550 H1541 0.930 . S
C1550 C1548 1.384 . S
C1550 C1551 1.372 . S
C1551 C1550 1.372 . S
C1551 C1552 1.400 . S
C1551 C1556 1.490 . S
C1552 H1542 0.930 . S
C1552 C1551 1.400 . S
C1552 C1555 1.386 . S
H1553 C1569 0.930 . S
H1554 C1570 0.931 . S
C1555 H1543 0.929 . S
C1555 C1549 1.390 . S
C1555 C1552 1.386 . S
C1556 C1551 1.490 . S
C1556 C1558 1.395 . S
C1556 C1559 1.403 . S
H1557 C1563 0.930 . S
C1558 H1544 0.930 . S
C1558 C1556 1.395 . S
C1558 C1561 1.403 . S
C1559 C1556 1.403 . S
C1559 C1560 1.524 . S
C1559 C1563 1.400 . S
C1560 H1545 0.960 . S
C1560 H1546 0.960 . S
C1560 H1547 0.960 . S
C1560 C1559 1.524 . S
C1561 C1558 1.403 . S
C1561 C1562 1.392 . S
C1561 C1565 1.495 . S
C1562 C1561 1.392 . S
C1562 C1563 1.385 . S
C1562 C1564 1.478 . S
C1563 H1557 0.930 . S
C1563 C1559 1.400 . S
C1563 C1562 1.385 . S
C1564 C1562 1.478 . S
C1564 C1566 1.381 . S
C1564 C1570 1.383 . S
C1565 C1561 1.495 . S
C1565 H1571 0.959 . S
C1565 H1572 0.961 . S
C1565 H1573 0.960 . S
C1566 C1564 1.381 . S
C1566 C1567 1.394 . S
C1566 H1574 0.930 . S
C1567 C1566 1.394 . S
C1567 C1568 1.383 . S
C1567 H1575 0.929 . S
C1568 C1567 1.383 . S
C1568 C1569 1.377 . S
C1569 H1553 0.930 . S
C1569 C1568 1.377 . S
C1569 C1570 1.379 . S
C1570 H1554 0.931 . S
C1570 C1564 1.383 . S
C1570 C1569 1.379 . S
H1571 C1565 0.959 . S
H1572 C1565 0.961 . S
H1573 C1565 0.960 . S
H1574 C1566 0.930 . S
H1575 C1567 0.929 . S
H1576 C1584 0.929 . S
H1577 C1586 0.930 . S
H1578 C1588 0.930 . S
H1579 C1591 0.929 . S
H1580 C1594 0.930 . S
H1581 C1596 0.960 . S
H1582 C1596 0.960 . S
H1583 C1596 0.960 . S
C1584 H1576 0.929 . S
C1584 C1585 1.377 . S
C1584 C1586 1.384 . S
C1585 C1584 1.377 . S
C1585 C1591 1.390 . S
C1586 H1577 0.930 . S
C1586 C1584 1.384 . S
C1586 C1587 1.372 . S
C1587 C1586 1.372 . S
C1587 C1588 1.400 . S
C1587 C1592 1.490 . S
C1588 H1578 0.930 . S
C1588 C1587 1.400 . S
C1588 C1591 1.386 . S
H1589 C1605 0.930 . S
H1590 C1606 0.931 . S
C1591 H1579 0.929 . S
C1591 C1585 1.390 . S
C1591 C1588 1.386 . S
C1592 C1587 1.490 . S
C1592 C1594 1.395 . S
C1592 C1595 1.403 . S
H1593 C1599 0.930 . S
C1594 H1580 0.930 . S
C1594 C1592 1.395 . S
C1594 C1597 1.403 . S
C1595 C1592 1.403 . S
C1595 C1596 1.524 . S
C1595 C1599 1.400 . S
C1596 H1581 0.960 . S
C1596 H1582 0.960 . S
C1596 H1583 0.960 . S
C1596 C1595 1.524 . S
C1597 C1594 1.403 . S
C1597 C1598 1.392 . S
C1597 C1601 1.495 . S
C1598 C1597 1.392 . S
C1598 C1599 1.385 . S
C1598 C1600 1.478 . S
C1599 H1593 0.930 . S
C1599 C1595 1.400 . S
C1599 C1598 1.385 . S
C1600 C1598 1.478 . S
C1600 C1602 1.381 . S
C1600 C1606 1.383 . S
C1601 C1597 1.495 . S
C1601 H1607 0.959 . S
C1601 H1608 0.961 . S
C1601 H1609 0.960 . S
C1602 C1600 1.381 . S
C1602 C1603 1.394 . S
C1602 H1610 0.930 . S
C1603 C1602 1.394 . S
C1603 C1604 1.383 . S
C1603 H1611 0.929 . S
C1604 C1603 1.383 . S
C1604 C1605 1.377 . S
C1605 H1589 0.930 . S
C1605 C1604 1.377 . S
C1605 C1606 1.379 . S
C1606 H1590 0.931 . S
C1606 C1600 1.383 . S
C1606 C1605 1.379 . S
H1607 C1601 0.959 . S
H1608 C1601 0.961 . S
H1609 C1601 0.960 . S
H1610 C1602 0.930 . S
H1611 C1603 0.929 . S
H1612 C1620 0.929 . S
H1613 C1622 0.930 . S
H1614 C1624 0.930 . S
H1615 C1627 0.929 . S
H1616 C1630 0.930 . S
H1617 C1632 0.960 . S
H1618 C1632 0.960 . S
H1619 C1632 0.960 . S
C1620 H1612 0.929 . S
C1620 C1621 1.377 . S
C1620 C1622 1.384 . S
C1621 C1620 1.377 . S
C1621 C1627 1.390 . S
C1622 H1613 0.930 . S
C1622 C1620 1.384 . S
C1622 C1623 1.372 . S
C1623 C1622 1.372 . S
C1623 C1624 1.400 . S
C1623 C1628 1.490 . S
C1624 H1614 0.930 . S
C1624 C1623 1.400 . S
C1624 C1627 1.386 . S
H1625 C1641 0.930 . S
H1626 C1642 0.931 . S
C1627 H1615 0.929 . S
C1627 C1621 1.390 . S
C1627 C1624 1.386 . S
C1628 C1623 1.490 . S
C1628 C1630 1.395 . S
C1628 C1631 1.403 . S
H1629 C1635 0.930 . S
C1630 H1616 0.930 . S
C1630 C1628 1.395 . S
C1630 C1633 1.403 . S
C1631 C1628 1.403 . S
C1631 C1632 1.524 . S
C1631 C1635 1.400 . S
C1632 H1617 0.960 . S
C1632 H1618 0.960 . S
C1632 H1619 0.960 . S
C1632 C1631 1.524 . S
C1633 C1630 1.403 . S
C1633 C1634 1.392 . S
C1633 C1637 1.495 . S
C1634 C1633 1.392 . S
C1634 C1635 1.385 . S
C1634 C1636 1.478 . S
C1635 H1629 0.930 . S
C1635 C1631 1.400 . S
C1635 C1634 1.385 . S
C1636 C1634 1.478 . S
C1636 C1638 1.381 . S
C1636 C1642 1.383 . S
C1637 C1633 1.495 . S
C1637 H1643 0.959 . S
C1637 H1644 0.961 . S
C1637 H1645 0.960 . S
C1638 C1636 1.381 . S
C1638 C1639 1.394 . S
C1638 H1646 0.930 . S
C1639 C1638 1.394 . S
C1639 C1640 1.383 . S
C1639 H1647 0.929 . S
C1640 C1639 1.383 . S
C1640 C1641 1.377 . S
C1641 H1625 0.930 . S
C1641 C1640 1.377 . S
C1641 C1642 1.379 . S
C1642 H1626 0.931 . S
C1642 C1636 1.383 . S
C1642 C1641 1.379 . S
H1643 C1637 0.959 . S
H1644 C1637 0.961 . S
H1645 C1637 0.960 . S
H1646 C1638 0.930 . S
H1647 C1639 0.929 . S
H1648 C1656 0.929 . S
H1649 C1658 0.930 . S
H1650 C1660 0.930 . S
H1651 C1663 0.929 . S
H1652 C1666 0.930 . S
H1653 C1668 0.960 . S
H1654 C1668 0.960 . S
H1655 C1668 0.960 . S
C1656 H1648 0.929 . S
C1656 C1657 1.377 . S
C1656 C1658 1.384 . S
C1657 C1656 1.377 . S
C1657 C1663 1.390 . S
C1658 H1649 0.930 . S
C1658 C1656 1.384 . S
C1658 C1659 1.372 . S
C1659 C1658 1.372 . S
C1659 C1660 1.400 . S
C1659 C1664 1.490 . S
C1660 H1650 0.930 . S
C1660 C1659 1.400 . S
C1660 C1663 1.386 . S
H1661 C1677 0.930 . S
H1662 C1678 0.931 . S
C1663 H1651 0.929 . S
C1663 C1657 1.390 . S
C1663 C1660 1.386 . S
C1664 C1659 1.490 . S
C1664 C1666 1.395 . S
C1664 C1667 1.403 . S
H1665 C1671 0.930 . S
C1666 H1652 0.930 . S
C1666 C1664 1.395 . S
C1666 C1669 1.403 . S
C1667 C1664 1.403 . S
C1667 C1668 1.524 . S
C1667 C1671 1.400 . S
C1668 H1653 0.960 . S
C1668 H1654 0.960 . S
C1668 H1655 0.960 . S
C1668 C1667 1.524 . S
C1669 C1666 1.403 . S
C1669 C1670 1.392 . S
C1669 C1673 1.495 . S
C1670 C1669 1.392 . S
C1670 C1671 1.385 . S
C1670 C1672 1.478 . S
C1671 H1665 0.930 . S
C1671 C1667 1.400 . S
C1671 C1670 1.385 . S
C1672 C1670 1.478 . S
C1672 C1674 1.381 . S
C1672 C1678 1.383 . S
C1673 C1669 1.495 . S
C1673 H1679 0.959 . S
C1673 H1680 0.961 . S
C1673 H1681 0.960 . S
C1674 C1672 1.381 . S
C1674 C1675 1.394 . S
C1674 H1682 0.930 . S
C1675 C1674 1.394 . S
C1675 C1676 1.383 . S
C1675 H1683 0.929 . S
C1676 C1675 1.383 . S
C1676 C1677 1.377 . S
C1677 H1661 0.930 . S
C1677 C1676 1.377 . S
C1677 C1678 1.379 . S
C1678 H1662 0.931 . S
C1678 C1672 1.383 . S
C1678 C1677 1.379 . S
H1679 C1673 0.959 . S
H1680 C1673 0.961 . S
H1681 C1673 0.960 . S
H1682 C1674 0.930 . S
H1683 C1675 0.929 . S
H1684 C1692 0.929 . S
H1685 C1694 0.930 . S
H1686 C1696 0.930 . S
H1687 C1699 0.929 . S
H1688 C1702 0.930 . S
H1689 C1704 0.960 . S
H1690 C1704 0.960 . S
H1691 C1704 0.960 . S
C1692 H1684 0.929 . S
C1692 C1693 1.377 . S
C1692 C1694 1.384 . S
C1693 C1692 1.377 . S
C1693 C1699 1.390 . S
C1694 H1685 0.930 . S
C1694 C1692 1.384 . S
C1694 C1695 1.372 . S
C1695 C1694 1.372 . S
C1695 C1696 1.400 . S
C1695 C1700 1.490 . S
C1696 H1686 0.930 . S
C1696 C1695 1.400 . S
C1696 C1699 1.386 . S
H1697 C1713 0.930 . S
H1698 C1714 0.931 . S
C1699 H1687 0.929 . S
C1699 C1693 1.390 . S
C1699 C1696 1.386 . S
C1700 C1695 1.490 . S
C1700 C1702 1.395 . S
C1700 C1703 1.403 . S
H1701 C1707 0.930 . S
C1702 H1688 0.930 . S
C1702 C1700 1.395 . S
C1702 C1705 1.403 . S
C1703 C1700 1.403 . S
C1703 C1704 1.524 . S
C1703 C1707 1.400 . S
C1704 H1689 0.960 . S
C1704 H1690 0.960 . S
C1704 H1691 0.960 . S
C1704 C1703 1.524 . S
C1705 C1702 1.403 . S
C1705 C1706 1.392 . S
C1705 C1709 1.495 . S
C1706 C1705 1.392 . S
C1706 C1707 1.385 . S
C1706 C1708 1.478 . S
C1707 H1701 0.930 . S
C1707 C1703 1.400 . S
C1707 C1706 1.385 . S
C1708 C1706 1.478 . S
C1708 C1710 1.381 . S
C1708 C1714 1.383 . S
C1709 C1705 1.495 . S
C1709 H1715 0.959 . S
C1709 H1716 0.961 . S
C1709 H1717 0.960 . S
C1710 C1708 1.381 . S
C1710 C1711 1.394 . S
C1710 H1718 0.930 . S
C1711 C1710 1.394 . S
C1711 C1712 1.383 . S
C1711 H1719 0.929 . S
C1712 C1711 1.383 . S
C1712 C1713 1.377 . S
C1713 H1697 0.930 . S
C1713 C1712 1.377 . S
C1713 C1714 1.379 . S
C1714 H1698 0.931 . S
C1714 C1708 1.383 . S
C1714 C1713 1.379 . S
H1715 C1709 0.959 . S
H1716 C1709 0.961 . S
H1717 C1709 0.960 . S
H1718 C1710 0.930 . S
H1719 C1711 0.929 . S
H1720 C1728 0.929 . S
H1721 C1730 0.930 . S
H1722 C1732 0.930 . S
H1723 C1735 0.929 . S
H1724 C1738 0.930 . S
H1725 C1740 0.960 . S
H1726 C1740 0.960 . S
H1727 C1740 0.960 . S
C1728 H1720 0.929 . S
C1728 C1729 1.377 . S
C1728 C1730 1.384 . S
C1729 C1728 1.377 . S
C1729 C1735 1.390 . S
C1730 H1721 0.930 . S
C1730 C1728 1.384 . S
C1730 C1731 1.372 . S
C1731 C1730 1.372 . S
C1731 C1732 1.400 . S
C1731 C1736 1.490 . S
C1732 H1722 0.930 . S
C1732 C1731 1.400 . S
C1732 C1735 1.386 . S
H1733 C1749 0.930 . S
H1734 C1750 0.931 . S
C1735 H1723 0.929 . S
C1735 C1729 1.390 . S
C1735 C1732 1.386 . S
C1736 C1731 1.490 . S
C1736 C1738 1.395 . S
C1736 C1739 1.403 . S
H1737 C1743 0.930 . S
C1738 H1724 0.930 . S
C1738 C1736 1.395 . S
C1738 C1741 1.403 . S
C1739 C1736 1.403 . S
C1739 C1740 1.524 . S
C1739 C1743 1.400 . S
C1740 H1725 0.960 . S
C1740 H1726 0.960 . S
C1740 H1727 0.960 . S
C1740 C1739 1.524 . S
C1741 C1738 1.403 . S
C1741 C1742 1.392 . S
C1741 C1745 1.495 . S
C1742 C1741 1.392 . S
C1742 C1743 1.385 . S
C1742 C1744 1.478 . S
C1743 H1737 0.930 . S
C1743 C1739 1.400 . S
C1743 C1742 1.385 . S
C1744 C1742 1.478 . S
C1744 C1746 1.381 . S
C1744 C1750 1.383 . S
C1745 C1741 1.495 . S
C1745 H1751 0.959 . S
C1745 H1752 0.961 . S
C1745 H1753 0.960 . S
C1746 C1744 1.381 . S
C1746 C1747 1.394 . S
C1746 H1754 0.930 . S
C1747 C1746 1.394 . S
C1747 C1748 1.383 . S
C1747 H1755 0.929 . S
C1748 C1747 1.383 . S
C1748 C1749 1.377 . S
C1749 H1733 0.930 . S
C1749 C1748 1.377 . S
C1749 C1750 1.379 . S
C1750 H1734 0.931 . S
C1750 C1744 1.383 . S
C1750 C1749 1.379 . S
H1751 C1745 0.959 . S
H1752 C1745 0.961 . S
H1753 C1745 0.960 . S
H1754 C1746 0.930 . S
H1755 C1747 0.929 . S
H1756 C1764 0.929 . S
H1757 C1766 0.930 . S
H1758 C1768 0.930 . S
H1759 C1771 0.929 . S
H1760 C1774 0.930 . S
H1761 C1776 0.960 . S
H1762 C1776 0.960 . S
H1763 C1776 0.960 . S
C1764 H1756 0.929 . S
C1764 C1765 1.377 . S
C1764 C1766 1.384 . S
C1765 C1764 1.377 . S
C1765 C1771 1.390 . S
C1766 H1757 0.930 . S
C1766 C1764 1.384 . S
C1766 C1767 1.372 . S
C1767 C1766 1.372 . S
C1767 C1768 1.400 . S
C1767 C1772 1.490 . S
C1768 H1758 0.930 . S
C1768 C1767 1.400 . S
C1768 C1771 1.386 . S
H1769 C1785 0.930 . S
H1770 C1786 0.931 . S
C1771 H1759 0.929 . S
C1771 C1765 1.390 . S
C1771 C1768 1.386 . S
C1772 C1767 1.490 . S
C1772 C1774 1.395 . S
C1772 C1775 1.403 . S
H1773 C1779 0.930 . S
C1774 H1760 0.930 . S
C1774 C1772 1.395 . S
C1774 C1777 1.403 . S
C1775 C1772 1.403 . S
C1775 C1776 1.524 . S
C1775 C1779 1.400 . S
C1776 H1761 0.960 . S
C1776 H1762 0.960 . S
C1776 H1763 0.960 . S
C1776 C1775 1.524 . S
C1777 C1774 1.403 . S
C1777 C1778 1.392 . S
C1777 C1781 1.495 . S
C1778 C1777 1.392 . S
C1778 C1779 1.385 . S
C1778 C1780 1.478 . S
C1779 H1773 0.930 . S
C1779 C1775 1.400 . S
C1779 C1778 1.385 . S
C1780 C1778 1.478 . S
C1780 C1782 1.381 . S
C1780 C1786 1.383 1_556 S
C1781 C1777 1.495 . S
C1781 H1787 0.959 . S
C1781 H1788 0.961 . S
C1781 H1789 0.960 . S
C1782 C1780 1.381 . S
C1782 C1783 1.394 . S
C1782 H1790 0.930 . S
C1783 C1782 1.394 . S
C1783 C1784 1.383 1_556 S
C1783 H1791 0.929 . S
C1784 C1783 1.383 1_554 S
C1784 C1785 1.377 . S
C1785 H1769 0.930 . S
C1785 C1784 1.377 . S
C1785 C1786 1.379 . S
C1786 H1770 0.931 . S
C1786 C1780 1.383 1_554 S
C1786 C1785 1.379 . S
H1787 C1781 0.959 . S
H1788 C1781 0.961 . S
H1789 C1781 0.960 . S
H1790 C1782 0.930 . S
H1791 C1783 0.929 . S
H1792 C1800 0.929 . S
H1793 C1802 0.930 . S
H1794 C1804 0.930 . S
H1795 C1807 0.920 1_556 S
H1796 C1810 0.930 . S
H1797 C1812 0.960 . S
H1798 C1812 0.960 . S
H1799 C1812 0.960 . S
C1800 H1792 0.929 . S
C1800 C1801 1.377 . S
C1800 C1802 1.384 . S
C1801 C1800 1.377 . S
C1801 C1807 1.390 . S
C1802 H1793 0.930 . S
C1802 C1800 1.384 . S
C1802 C1803 1.372 . S
C1803 C1802 1.372 . S
C1803 C1804 1.400 . S
C1803 C1808 1.490 . S
C1804 H1794 0.930 . S
C1804 C1803 1.400 . S
C1804 C1807 1.386 . S
H1805 C1821 0.930 . S
H1806 C1822 0.931 . S
C1807 H1795 0.920 1_554 S
C1807 C1801 1.390 . S
C1807 C1804 1.386 . S
C1808 C1803 1.490 . S
C1808 C1810 1.395 . S
C1808 C1811 1.403 1_655 S
H1809 C1815 0.930 . S
C1810 H1796 0.930 . S
C1810 C1808 1.395 . S
C1810 C1813 1.403 . S
C1811 C1808 1.403 1_455 S
C1811 C1812 1.524 . S
C1811 C1815 1.400 . S
C1812 H1797 0.960 . S
C1812 H1798 0.960 . S
C1812 H1799 0.960 . S
C1812 C1811 1.524 . S
C1813 C1810 1.403 . S
C1813 C1814 1.392 1_655 S
C1813 C1817 1.495 . S
C1814 C1813 1.392 1_455 S
C1814 C1815 1.385 . S
C1814 C1816 1.478 . S
C1815 H1809 0.930 . S
C1815 C1811 1.400 . S
C1815 C1814 1.385 . S
C1816 C1814 1.478 . S
C1816 C1818 1.381 . S
C1816 C1822 1.383 . S
C1817 C1813 1.495 . S
C1817 H1823 0.959 . S
C1817 H1824 0.961 . S
C1817 H1825 0.960 . S
C1818 C1816 1.381 . S
C1818 C1819 1.394 . S
C1818 H1826 0.930 . S
C1819 C1818 1.394 . S
C1819 C1820 1.383 . S
C1819 H1827 0.929 . S
C1820 C1819 1.383 . S
C1820 C1821 1.377 . S
C1821 H1805 0.930 . S
C1821 C1820 1.377 . S
C1821 C1822 1.379 . S
C1822 H1806 0.931 . S
C1822 C1816 1.383 . S
C1822 C1821 1.379 . S
H1823 C1817 0.959 . S
H1824 C1817 0.961 . S
H1825 C1817 0.960 . S
H1826 C1818 0.930 . S
H1827 C1819 0.929 . S
H1828 C1836 0.929 . S
H1829 C1838 0.930 . S
H1830 C1840 0.930 . S
H1831 C1843 0.929 . S
H1832 C1846 0.930 . S
H1833 C1848 0.960 . S
H1834 C1848 0.960 . S
H1835 C1848 0.960 . S
C1836 H1828 0.929 . S
C1836 C1837 1.377 . S
C1836 C1838 1.384 . S
C1837 C1836 1.377 . S
C1837 C1843 1.390 . S
C1838 H1829 0.930 . S
C1838 C1836 1.384 . S
C1838 C1839 1.372 . S
C1839 C1838 1.372 . S
C1839 C1840 1.400 . S
C1839 C1844 1.490 . S
C1840 H1830 0.930 . S
C1840 C1839 1.400 . S
C1840 C1843 1.386 . S
H1841 C1857 0.930 . S
H1842 C1858 0.931 . S
C1843 H1831 0.929 . S
C1843 C1837 1.390 . S
C1843 C1840 1.386 . S
C1844 C1839 1.490 . S
C1844 C1846 1.395 . S
C1844 C1847 1.403 . S
H1845 C1851 0.930 . S
C1846 H1832 0.930 . S
C1846 C1844 1.395 . S
C1846 C1849 1.403 . S
C1847 C1844 1.403 . S
C1847 C1848 1.524 . S
C1847 C1851 1.400 . S
C1848 H1833 0.960 . S
C1848 H1834 0.960 . S
C1848 H1835 0.960 . S
C1848 C1847 1.524 . S
C1849 C1846 1.403 . S
C1849 C1850 1.392 . S
C1849 C1853 1.495 . S
C1850 C1849 1.392 . S
C1850 C1851 1.385 . S
C1850 C1852 1.478 . S
C1851 H1845 0.930 . S
C1851 C1847 1.400 . S
C1851 C1850 1.385 . S
C1852 C1850 1.478 . S
C1852 C1854 1.381 . S
C1852 C1858 1.383 . S
C1853 C1849 1.495 . S
C1853 H1859 0.959 . S
C1853 H1860 0.961 . S
C1853 H1861 0.960 . S
C1854 C1852 1.381 . S
C1854 C1855 1.394 . S
C1854 H1862 0.930 . S
C1855 C1854 1.394 . S
C1855 C1856 1.383 . S
C1855 H1863 0.929 . S
C1856 C1855 1.383 . S
C1856 C1857 1.377 . S
C1857 H1841 0.930 . S
C1857 C1856 1.377 . S
C1857 C1858 1.379 . S
C1858 H1842 0.931 . S
C1858 C1852 1.383 . S
C1858 C1857 1.379 . S
H1859 C1853 0.959 . S
H1860 C1853 0.961 . S
H1861 C1853 0.960 . S
H1862 C1854 0.930 . S
H1863 C1855 0.929 . S
H1864 C1872 0.929 . S
H1865 C1874 0.930 . S
H1866 C1876 0.930 . S
H1867 C1879 0.929 . S
H1868 C1882 0.930 . S
H1869 C1884 0.960 . S
H1870 C1884 0.960 . S
H1871 C1884 0.960 . S
C1872 H1864 0.929 . S
C1872 C1873 1.377 . S
C1872 C1874 1.384 . S
C1873 C1872 1.377 . S
C1873 C1879 1.390 . S
C1874 H1865 0.930 . S
C1874 C1872 1.384 . S
C1874 C1875 1.372 . S
C1875 C1874 1.372 . S
C1875 C1876 1.400 . S
C1875 C1880 1.490 . S
C1876 H1866 0.930 . S
C1876 C1875 1.400 . S
C1876 C1879 1.386 . S
H1877 C1893 0.930 . S
H1878 C1894 0.931 . S
C1879 H1867 0.929 . S
C1879 C1873 1.390 . S
C1879 C1876 1.386 . S
C1880 C1875 1.490 . S
C1880 C1882 1.395 . S
C1880 C1883 1.403 . S
H1881 C1887 0.930 . S
C1882 H1868 0.930 . S
C1882 C1880 1.395 . S
C1882 C1885 1.403 . S
C1883 C1880 1.403 . S
C1883 C1884 1.524 . S
C1883 C1887 1.400 . S
C1884 H1869 0.960 . S
C1884 H1870 0.960 . S
C1884 H1871 0.960 . S
C1884 C1883 1.524 . S
C1885 C1882 1.403 . S
C1885 C1886 1.392 . S
C1885 C1889 1.495 . S
C1886 C1885 1.392 . S
C1886 C1887 1.385 . S
C1886 C1888 1.478 . S
C1887 H1881 0.930 . S
C1887 C1883 1.400 . S
C1887 C1886 1.385 . S
C1888 C1886 1.478 . S
C1888 C1890 1.381 . S
C1888 C1894 1.383 . S
C1889 C1885 1.495 . S
C1889 H1895 0.959 . S
C1889 H1896 0.961 . S
C1889 H1897 0.960 . S
C1890 C1888 1.381 . S
C1890 C1891 1.394 . S
C1890 H1898 0.930 . S
C1891 C1890 1.394 . S
C1891 C1892 1.383 . S
C1891 H1899 0.929 . S
C1892 C1891 1.383 . S
C1892 C1893 1.377 . S
C1893 H1877 0.930 . S
C1893 C1892 1.377 . S
C1893 C1894 1.379 . S
C1894 H1878 0.931 . S
C1894 C1888 1.383 . S
C1894 C1893 1.379 . S
H1895 C1889 0.959 . S
H1896 C1889 0.961 . S
H1897 C1889 0.960 . S
H1898 C1890 0.930 . S
H1899 C1891 0.929 . S
H1900 C1908 0.929 . S
H1901 C1910 0.930 . S
H1902 C1912 0.930 . S
H1903 C1915 0.929 . S
H1904 C1918 0.930 . S
H1905 C1920 0.960 . S
H1906 C1920 0.960 . S
H1907 C1920 0.960 . S
C1908 H1900 0.929 . S
C1908 C1909 1.377 . S
C1908 C1910 1.384 . S
C1909 C1908 1.377 . S
C1909 C1915 1.390 . S
C1910 H1901 0.930 . S
C1910 C1908 1.384 . S
C1910 C1911 1.372 . S
C1911 C1910 1.372 . S
C1911 C1912 1.400 . S
C1911 C1916 1.490 . S
C1912 H1902 0.930 . S
C1912 C1911 1.400 . S
C1912 C1915 1.386 . S
H1913 C1929 0.930 . S
H1914 C1930 0.931 . S
C1915 H1903 0.929 . S
C1915 C1909 1.390 . S
C1915 C1912 1.386 . S
C1916 C1911 1.490 . S
C1916 C1918 1.395 . S
C1916 C1919 1.403 . S
H1917 C1923 0.930 . S
C1918 H1904 0.930 . S
C1918 C1916 1.395 . S
C1918 C1921 1.403 . S
C1919 C1916 1.403 . S
C1919 C1920 1.524 . S
C1919 C1923 1.400 . S
C1920 H1905 0.960 . S
C1920 H1906 0.960 . S
C1920 H1907 0.960 . S
C1920 C1919 1.524 . S
C1921 C1918 1.403 . S
C1921 C1922 1.392 . S
C1921 C1925 1.495 . S
C1922 C1921 1.392 . S
C1922 C1923 1.385 . S
C1922 C1924 1.478 . S
C1923 H1917 0.930 . S
C1923 C1919 1.400 . S
C1923 C1922 1.385 . S
C1924 C1922 1.478 . S
C1924 C1926 1.381 . S
C1924 C1930 1.383 . S
C1925 C1921 1.495 . S
C1925 H1931 0.959 . S
C1925 H1932 0.961 . S
C1925 H1933 0.960 . S
C1926 C1924 1.381 . S
C1926 C1927 1.394 . S
C1926 H1934 0.930 . S
C1927 C1926 1.394 . S
C1927 C1928 1.383 . S
C1927 H1935 0.929 . S
C1928 C1927 1.383 . S
C1928 C1929 1.377 . S
C1929 H1913 0.930 . S
C1929 C1928 1.377 . S
C1929 C1930 1.379 . S
C1930 H1914 0.931 . S
C1930 C1924 1.383 . S
C1930 C1929 1.379 . S
H1931 C1925 0.959 . S
H1932 C1925 0.961 . S
H1933 C1925 0.960 . S
H1934 C1926 0.930 . S
H1935 C1927 0.929 . S
H1936 C1944 0.929 . S
H1937 C1946 0.930 . S
H1938 C1948 0.930 . S
H1939 C1951 0.929 . S
H1940 C1954 0.930 . S
H1941 C1956 0.960 . S
H1942 C1956 0.960 . S
H1943 C1956 0.960 . S
C1944 H1936 0.929 . S
C1944 C1945 1.377 . S
C1944 C1946 1.384 . S
C1945 C1944 1.377 . S
C1945 C1951 1.390 . S
C1946 H1937 0.930 . S
C1946 C1944 1.384 . S
C1946 C1947 1.372 . S
C1947 C1946 1.372 . S
C1947 C1948 1.400 . S
C1947 C1952 1.490 . S
C1948 H1938 0.930 . S
C1948 C1947 1.400 . S
C1948 C1951 1.386 . S
H1949 C1965 0.930 . S
H1950 C1966 0.931 . S
C1951 H1939 0.929 . S
C1951 C1945 1.390 . S
C1951 C1948 1.386 . S
C1952 C1947 1.490 . S
C1952 C1954 1.395 . S
C1952 C1955 1.403 . S
H1953 C1959 0.930 . S
C1954 H1940 0.930 . S
C1954 C1952 1.395 . S
C1954 C1957 1.403 1_655 S
C1955 C1952 1.403 . S
C1955 C1956 1.524 . S
C1955 C1959 1.400 1_655 S
C1956 H1941 0.960 . S
C1956 H1942 0.960 . S
C1956 H1943 0.960 . S
C1956 C1955 1.524 . S
C1957 C1954 1.403 1_455 S
C1957 C1958 1.392 . S
C1957 C1961 1.495 . S
C1958 C1957 1.392 . S
C1958 C1959 1.385 . S
C1958 C1960 1.478 . S
C1959 H1953 0.930 . S
C1959 C1955 1.400 1_455 S
C1959 C1958 1.385 . S
C1960 C1958 1.478 . S
C1960 C1962 1.381 . S
C1960 C1966 1.383 . S
C1961 C1957 1.495 . S
C1961 H1967 0.959 . S
C1961 H1968 0.961 . S
C1961 H1969 0.960 . S
C1962 C1960 1.381 . S
C1962 C1963 1.394 . S
C1962 H1970 0.930 . S
C1963 C1962 1.394 . S
C1963 C1964 1.383 . S
C1963 H1971 0.929 . S
C1964 C1963 1.383 . S
C1964 C1965 1.377 . S
C1965 H1949 0.930 . S
C1965 C1964 1.377 . S
C1965 C1966 1.379 . S
C1966 H1950 0.931 . S
C1966 C1960 1.383 . S
C1966 C1965 1.379 . S
H1967 C1961 0.959 . S
H1968 C1961 0.961 . S
H1969 C1961 0.960 . S
H1970 C1962 0.930 . S
H1971 C1963 0.929 . S
H1972 C1980 0.929 . S
H1973 C1982 0.930 . S
H1974 C1984 0.930 . S
H1975 C1987 0.929 . S
H1976 C1990 0.930 . S
H1977 C1992 0.960 . S
H1978 C1992 0.960 . S
H1979 C1992 0.960 . S
C1980 H1972 0.929 . S
C1980 C1981 1.377 . S
C1980 C1982 1.384 . S
C1981 C1980 1.377 . S
C1981 C1987 1.390 . S
C1982 H1973 0.930 . S
C1982 C1980 1.384 . S
C1982 C1983 1.372 . S
C1983 C1982 1.372 . S
C1983 C1984 1.400 . S
C1983 C1988 1.490 . S
C1984 H1974 0.930 . S
C1984 C1983 1.400 . S
C1984 C1987 1.386 . S
H1985 C2001 0.930 . S
H1986 C2002 0.931 . S
C1987 H1975 0.929 . S
C1987 C1981 1.390 . S
C1987 C1984 1.386 . S
C1988 C1983 1.490 . S
C1988 C1990 1.395 . S
C1988 C1991 1.403 . S
H1989 C1995 0.930 . S
C1990 H1976 0.930 . S
C1990 C1988 1.395 . S
C1990 C1993 1.403 . S
C1991 C1988 1.403 . S
C1991 C1992 1.524 . S
C1991 C1995 1.400 . S
C1992 H1977 0.960 . S
C1992 H1978 0.960 . S
C1992 H1979 0.960 . S
C1992 C1991 1.524 . S
C1993 C1990 1.403 . S
C1993 C1994 1.392 . S
C1993 C1997 1.495 . S
C1994 C1993 1.392 . S
C1994 C1995 1.385 . S
C1994 C1996 1.478 . S
C1995 H1989 0.930 . S
C1995 C1991 1.400 . S
C1995 C1994 1.385 . S
C1996 C1994 1.478 . S
C1996 C1998 1.381 . S
C1996 C2002 1.383 . S
C1997 C1993 1.495 . S
C1997 H2003 0.959 . S
C1997 H2004 0.961 . S
C1997 H2005 0.960 . S
C1998 C1996 1.381 . S
C1998 C1999 1.394 . S
C1998 H2006 0.930 . S
C1999 C1998 1.394 . S
C1999 C2000 1.383 . S
C1999 H2007 0.929 . S
C2000 C1999 1.383 . S
C2000 C2001 1.377 . S
C2001 H1985 0.930 . S
C2001 C2000 1.377 . S
C2001 C2002 1.379 . S
C2002 H1986 0.931 . S
C2002 C1996 1.383 . S
C2002 C2001 1.379 . S
H2003 C1997 0.959 . S
H2004 C1997 0.961 . S
H2005 C1997 0.960 . S
H2006 C1998 0.930 . S
H2007 C1999 0.929 . S
H2008 C2016 0.929 . S
H2009 C2018 0.930 . S
H2010 C2020 0.930 . S
H2011 C2023 0.929 . S
H2012 C2026 0.930 . S
H2013 C2028 0.960 . S
H2014 C2028 0.960 . S
H2015 C2028 0.960 . S
C2016 H2008 0.929 . S
C2016 C2017 1.377 . S
C2016 C2018 1.384 . S
C2017 C2016 1.377 . S
C2017 C2023 1.390 . S
C2018 H2009 0.930 . S
C2018 C2016 1.384 . S
C2018 C2019 1.372 . S
C2019 C2018 1.372 . S
C2019 C2020 1.400 . S
C2019 C2024 1.490 . S
C2020 H2010 0.930 . S
C2020 C2019 1.400 . S
C2020 C2023 1.386 . S
H2021 C2037 0.930 . S
H2022 C2038 0.931 . S
C2023 H2011 0.929 . S
C2023 C2017 1.390 . S
C2023 C2020 1.386 . S
C2024 C2019 1.490 . S
C2024 C2026 1.395 . S
C2024 C2027 1.403 . S
H2025 C2031 0.930 . S
C2026 H2012 0.930 . S
C2026 C2024 1.395 . S
C2026 C2029 1.403 . S
C2027 C2024 1.403 . S
C2027 C2028 1.524 . S
C2027 C2031 1.400 . S
C2028 H2013 0.960 . S
C2028 H2014 0.960 . S
C2028 H2015 0.960 . S
C2028 C2027 1.524 . S
C2029 C2026 1.403 . S
C2029 C2030 1.392 . S
C2029 C2033 1.495 1_554 S
C2030 C2029 1.392 . S
C2030 C2031 1.385 . S
C2030 C2032 1.478 . S
C2031 H2025 0.930 . S
C2031 C2027 1.400 . S
C2031 C2030 1.385 . S
C2032 C2030 1.478 . S
C2032 C2034 1.381 . S
C2032 C2038 1.383 . S
C2033 C2029 1.495 1_556 S
C2033 H2039 0.959 . S
C2033 H2040 0.961 . S
C2033 H2041 0.960 . S
C2034 C2032 1.381 . S
C2034 C2035 1.394 . S
C2034 H2042 0.930 . S
C2035 C2034 1.394 . S
C2035 C2036 1.383 . S
C2035 H2043 0.929 . S
C2036 C2035 1.383 . S
C2036 C2037 1.377 . S
C2037 H2021 0.930 . S
C2037 C2036 1.377 . S
C2037 C2038 1.379 . S
C2038 H2022 0.931 . S
C2038 C2032 1.383 . S
C2038 C2037 1.379 . S
H2039 C2033 0.959 . S
H2040 C2033 0.961 . S
H2041 C2033 0.960 . S
H2042 C2034 0.930 . S
H2043 C2035 0.929 . S
H2044 C2052 0.929 . S
H2045 C2054 0.930 . S
H2046 C2056 0.930 . S
H2047 C2059 0.929 . S
H2048 C2062 0.930 . S
H2049 C2064 0.960 . S
H2050 C2064 0.960 . S
H2051 C2064 0.960 . S
C2052 H2044 0.929 . S
C2052 C2053 1.377 . S
C2052 C2054 1.384 . S
C2053 C2052 1.377 . S
C2053 C2059 1.390 . S
C2054 H2045 0.930 . S
C2054 C2052 1.384 . S
C2054 C2055 1.372 . S
C2055 C2054 1.372 . S
C2055 C2056 1.400 . S
C2055 C2060 1.490 . S
C2056 H2046 0.930 . S
C2056 C2055 1.400 . S
C2056 C2059 1.386 . S
H2057 C2073 0.930 . S
H2058 C2074 0.931 . S
C2059 H2047 0.929 . S
C2059 C2053 1.390 . S
C2059 C2056 1.386 . S
C2060 C2055 1.490 . S
C2060 C2062 1.395 . S
C2060 C2063 1.403 . S
H2061 C2067 0.930 . S
C2062 H2048 0.930 . S
C2062 C2060 1.395 . S
C2062 C2065 1.403 . S
C2063 C2060 1.403 . S
C2063 C2064 1.524 . S
C2063 C2067 1.400 . S
C2064 H2049 0.960 . S
C2064 H2050 0.960 . S
C2064 H2051 0.960 . S
C2064 C2063 1.524 . S
C2065 C2062 1.403 . S
C2065 C2066 1.392 . S
C2065 C2069 1.495 . S
C2066 C2065 1.392 . S
C2066 C2067 1.385 . S
C2066 C2068 1.478 . S
C2067 H2061 0.930 . S
C2067 C2063 1.400 . S
C2067 C2066 1.385 . S
C2068 C2066 1.478 . S
C2068 C2070 1.381 . S
C2068 C2074 1.383 . S
C2069 C2065 1.495 . S
C2069 H2075 0.959 . S
C2069 H2076 0.961 . S
C2069 H2077 0.960 . S
C2070 C2068 1.381 . S
C2070 C2071 1.394 . S
C2070 H2078 0.930 . S
C2071 C2070 1.394 . S
C2071 C2072 1.383 . S
C2071 H2079 0.929 . S
C2072 C2071 1.383 . S
C2072 C2073 1.377 . S
C2073 H2057 0.930 . S
C2073 C2072 1.377 . S
C2073 C2074 1.379 . S
C2074 H2058 0.931 . S
C2074 C2068 1.383 . S
C2074 C2073 1.379 . S
H2075 C2069 0.959 . S
H2076 C2069 0.961 . S
H2077 C2069 0.960 . S
H2078 C2070 0.930 . S
H2079 C2071 0.929 . S
H2080 C2088 0.929 . S
H2081 C2090 0.930 . S
H2082 C2092 0.930 . S
H2083 C2095 0.929 . S
H2084 C2098 0.930 . S
H2085 C2100 0.960 . S
H2086 C2100 0.960 . S
H2087 C2100 0.960 . S
C2088 H2080 0.929 . S
C2088 C2089 1.377 . S
C2088 C2090 1.384 . S
C2089 C2088 1.377 . S
C2089 C2095 1.390 . S
C2090 H2081 0.930 . S
C2090 C2088 1.384 . S
C2090 C2091 1.372 . S
C2091 C2090 1.372 . S
C2091 C2092 1.400 . S
C2091 C2096 1.490 . S
C2092 H2082 0.930 . S
C2092 C2091 1.400 . S
C2092 C2095 1.386 . S
H2093 C2109 0.930 . S
H2094 C2110 0.931 . S
C2095 H2083 0.929 . S
C2095 C2089 1.390 . S
C2095 C2092 1.386 . S
C2096 C2091 1.490 . S
C2096 C2098 1.395 . S
C2096 C2099 1.403 . S
H2097 C2103 0.930 . S
C2098 H2084 0.930 . S
C2098 C2096 1.395 . S
C2098 C2101 1.403 . S
C2099 C2096 1.403 . S
C2099 C2100 1.524 . S
C2099 C2103 1.400 . S
C2100 H2085 0.960 . S
C2100 H2086 0.960 . S
C2100 H2087 0.960 . S
C2100 C2099 1.524 . S
C2101 C2098 1.403 . S
C2101 C2102 1.392 . S
C2101 C2105 1.495 . S
C2102 C2101 1.392 . S
C2102 C2103 1.385 . S
C2102 C2104 1.478 . S
C2103 H2097 0.930 . S
C2103 C2099 1.400 . S
C2103 C2102 1.385 . S
C2104 C2102 1.478 . S
C2104 C2106 1.381 . S
C2104 C2110 1.383 . S
C2105 C2101 1.495 . S
C2105 H2111 0.959 . S
C2105 H2112 0.961 . S
C2105 H2113 0.960 . S
C2106 C2104 1.381 . S
C2106 C2107 1.394 . S
C2106 H2114 0.930 . S
C2107 C2106 1.394 . S
C2107 C2108 1.383 . S
C2107 H2115 0.929 . S
C2108 C2107 1.383 . S
C2108 C2109 1.377 . S
C2109 H2093 0.930 . S
C2109 C2108 1.377 . S
C2109 C2110 1.379 . S
C2110 H2094 0.931 . S
C2110 C2104 1.383 . S
C2110 C2109 1.379 . S
H2111 C2105 0.959 . S
H2112 C2105 0.961 . S
H2113 C2105 0.960 . S
H2114 C2106 0.930 . S
H2115 C2107 0.929 . S
H2116 C2124 0.929 . S
H2117 C2126 0.930 . S
H2118 C2128 0.930 . S
H2119 C2131 0.929 . S
H2120 C2134 0.930 . S
H2121 C2136 0.960 . S
H2122 C2136 0.960 . S
H2123 C2136 0.960 . S
C2124 H2116 0.929 . S
C2124 C2125 1.377 . S
C2124 C2126 1.384 . S
C2125 C2124 1.377 . S
C2125 C2131 1.390 . S
C2126 H2117 0.930 . S
C2126 C2124 1.384 . S
C2126 C2127 1.372 . S
C2127 C2126 1.372 . S
C2127 C2128 1.400 . S
C2127 C2132 1.490 . S
C2128 H2118 0.930 . S
C2128 C2127 1.400 . S
C2128 C2131 1.386 . S
H2129 C2145 0.930 . S
H2130 C2146 0.931 . S
C2131 H2119 0.929 . S
C2131 C2125 1.390 . S
C2131 C2128 1.386 . S
C2132 C2127 1.490 . S
C2132 C2134 1.395 . S
C2132 C2135 1.403 . S
H2133 C2139 0.930 . S
C2134 H2120 0.930 . S
C2134 C2132 1.395 . S
C2134 C2137 1.403 . S
C2135 C2132 1.403 . S
C2135 C2136 1.524 . S
C2135 C2139 1.400 . S
C2136 H2121 0.960 . S
C2136 H2122 0.960 . S
C2136 H2123 0.960 . S
C2136 C2135 1.524 . S
C2137 C2134 1.403 . S
C2137 C2138 1.392 . S
C2137 C2141 1.495 . S
C2138 C2137 1.392 . S
C2138 C2139 1.385 . S
C2138 C2140 1.478 . S
C2139 H2133 0.930 . S
C2139 C2135 1.400 . S
C2139 C2138 1.385 . S
C2140 C2138 1.478 . S
C2140 C2142 1.381 . S
C2140 C2146 1.383 . S
C2141 C2137 1.495 . S
C2141 H2147 0.959 . S
C2141 H2148 0.961 . S
C2141 H2149 0.960 . S
C2142 C2140 1.381 . S
C2142 C2143 1.394 . S
C2142 H2150 0.930 . S
C2143 C2142 1.394 . S
C2143 C2144 1.383 . S
C2143 H2151 0.929 . S
C2144 C2143 1.383 . S
C2144 C2145 1.377 . S
C2145 H2129 0.930 . S
C2145 C2144 1.377 . S
C2145 C2146 1.379 . S
C2146 H2130 0.931 . S
C2146 C2140 1.383 . S
C2146 C2145 1.379 . S
H2147 C2141 0.959 . S
H2148 C2141 0.961 . S
H2149 C2141 0.960 . S
H2150 C2142 0.930 . S
H2151 C2143 0.929 . S
H2152 C2160 0.929 . S
H2153 C2162 0.930 . S
H2154 C2164 0.930 . S
H2155 C2167 0.929 . S
H2156 C2170 0.930 . S
H2157 C2172 0.960 . S
H2158 C2172 0.960 . S
H2159 C2172 0.960 . S
C2160 H2152 0.929 . S
C2160 C2161 1.377 . S
C2160 C2162 1.384 . S
C2161 C2160 1.377 . S
C2161 C2167 1.390 . S
C2162 H2153 0.930 . S
C2162 C2160 1.384 . S
C2162 C2163 1.372 . S
C2163 C2162 1.372 . S
C2163 C2164 1.400 . S
C2163 C2168 1.490 . S
C2164 H2154 0.930 . S
C2164 C2163 1.400 . S
C2164 C2167 1.386 . S
H2165 C2181 0.930 . S
H2166 C2182 0.931 . S
C2167 H2155 0.929 . S
C2167 C2161 1.390 . S
C2167 C2164 1.386 . S
C2168 C2163 1.490 . S
C2168 C2170 1.395 . S
C2168 C2171 1.403 . S
H2169 C2175 0.930 . S
C2170 H2156 0.930 . S
C2170 C2168 1.395 . S
C2170 C2173 1.403 . S
C2171 C2168 1.403 . S
C2171 C2172 1.524 . S
C2171 C2175 1.400 . S
C2172 H2157 0.960 . S
C2172 H2158 0.960 . S
C2172 H2159 0.960 . S
C2172 C2171 1.524 . S
C2173 C2170 1.403 . S
C2173 C2174 1.392 . S
C2173 C2177 1.495 . S
C2174 C2173 1.392 . S
C2174 C2175 1.385 . S
C2174 C2176 1.478 . S
C2175 H2169 0.930 . S
C2175 C2171 1.400 . S
C2175 C2174 1.385 . S
C2176 C2174 1.478 . S
C2176 C2178 1.381 . S
C2176 C2182 1.383 . S
C2177 C2173 1.495 . S
C2177 H2183 0.959 . S
C2177 H2184 0.961 . S
C2177 H2185 0.960 . S
C2178 C2176 1.381 . S
C2178 C2179 1.394 . S
C2178 H2186 0.930 . S
C2179 C2178 1.394 . S
C2179 C2180 1.383 . S
C2179 H2187 0.929 . S
C2180 C2179 1.383 . S
C2180 C2181 1.377 . S
C2181 H2165 0.930 . S
C2181 C2180 1.377 . S
C2181 C2182 1.379 . S
C2182 H2166 0.931 . S
C2182 C2176 1.383 . S
C2182 C2181 1.379 . S
H2183 C2177 0.959 . S
H2184 C2177 0.961 . S
H2185 C2177 0.960 . S
H2186 C2178 0.930 . S
H2187 C2179 0.929 . S
H2188 C2196 0.929 . S
H2189 C2198 0.930 . S
H2190 C2200 0.930 . S
H2191 C2203 0.929 . S
H2192 C2206 0.930 . S
H2193 C2208 0.960 . S
H2194 C2208 0.960 . S
H2195 C2208 0.960 . S
C2196 H2188 0.929 . S
C2196 C2197 1.377 . S
C2196 C2198 1.384 . S
C2197 C2196 1.377 . S
C2197 C2203 1.390 . S
C2198 H2189 0.930 . S
C2198 C2196 1.384 . S
C2198 C2199 1.372 . S
C2199 C2198 1.372 . S
C2199 C2200 1.400 . S
C2199 C2204 1.490 . S
C2200 H2190 0.930 . S
C2200 C2199 1.400 . S
C2200 C2203 1.386 . S
H2201 C2217 0.930 . S
H2202 C2218 0.931 . S
C2203 H2191 0.929 . S
C2203 C2197 1.390 . S
C2203 C2200 1.386 . S
C2204 C2199 1.490 . S
C2204 C2206 1.395 . S
C2204 C2207 1.403 . S
H2205 C2211 0.930 . S
C2206 H2192 0.930 . S
C2206 C2204 1.395 . S
C2206 C2209 1.403 . S
C2207 C2204 1.403 . S
C2207 C2208 1.524 . S
C2207 C2211 1.400 . S
C2208 H2193 0.960 . S
C2208 H2194 0.960 . S
C2208 H2195 0.960 . S
C2208 C2207 1.524 . S
C2209 C2206 1.403 . S
C2209 C2210 1.392 . S
C2209 C2213 1.495 . S
C2210 C2209 1.392 . S
C2210 C2211 1.385 . S
C2210 C2212 1.478 . S
C2211 H2205 0.930 . S
C2211 C2207 1.400 . S
C2211 C2210 1.385 . S
C2212 C2210 1.478 . S
C2212 C2214 1.381 . S
C2212 C2218 1.383 . S
C2213 C2209 1.495 . S
C2213 H2219 0.959 . S
C2213 H2220 0.961 . S
C2213 H2221 0.960 . S
C2214 C2212 1.381 . S
C2214 C2215 1.394 . S
C2214 H2222 0.930 . S
C2215 C2214 1.394 . S
C2215 C2216 1.383 . S
C2215 H2223 0.929 . S
C2216 C2215 1.383 . S
C2216 C2217 1.377 . S
C2217 H2201 0.930 . S
C2217 C2216 1.377 . S
C2217 C2218 1.379 . S
C2218 H2202 0.931 . S
C2218 C2212 1.383 . S
C2218 C2217 1.379 . S
H2219 C2213 0.959 . S
H2220 C2213 0.961 . S
H2221 C2213 0.960 . S
H2222 C2214 0.930 . S
H2223 C2215 0.929 . S
H2224 C2232 0.929 . S
H2225 C2234 0.930 . S
H2226 C2236 0.930 . S
H2227 C2239 0.929 . S
H2228 C2242 0.930 . S
H2229 C2244 0.960 . S
H2230 C2244 0.960 . S
H2231 C2244 0.960 . S
C2232 H2224 0.929 . S
C2232 C2233 1.377 . S
C2232 C2234 1.384 . S
C2233 C2232 1.377 . S
C2233 C2239 1.390 . S
C2234 H2225 0.930 . S
C2234 C2232 1.384 . S
C2234 C2235 1.372 . S
C2235 C2234 1.372 . S
C2235 C2236 1.400 . S
C2235 C2240 1.490 . S
C2236 H2226 0.930 . S
C2236 C2235 1.400 . S
C2236 C2239 1.386 . S
H2237 C2253 0.930 . S
H2238 C2254 0.931 . S
C2239 H2227 0.929 . S
C2239 C2233 1.390 . S
C2239 C2236 1.386 . S
C2240 C2235 1.490 . S
C2240 C2242 1.395 . S
C2240 C2243 1.403 . S
H2241 C2247 0.930 . S
C2242 H2228 0.930 . S
C2242 C2240 1.395 . S
C2242 C2245 1.403 1_545 S
C2243 C2240 1.403 . S
C2243 C2244 1.524 . S
C2243 C2247 1.400 1_545 S
C2244 H2229 0.960 . S
C2244 H2230 0.960 . S
C2244 H2231 0.960 . S
C2244 C2243 1.524 . S
C2245 C2242 1.403 1_565 S
C2245 C2246 1.392 . S
C2245 C2249 1.495 . S
C2246 C2245 1.392 . S
C2246 C2247 1.385 . S
C2246 C2248 1.478 . S
C2247 H2241 0.930 . S
C2247 C2243 1.400 1_565 S
C2247 C2246 1.385 . S
C2248 C2246 1.478 . S
C2248 C2250 1.381 . S
C2248 C2254 1.383 . S
C2249 C2245 1.495 . S
C2249 H2255 0.959 . S
C2249 H2256 0.961 . S
C2249 H2257 0.960 . S
C2250 C2248 1.381 . S
C2250 C2251 1.394 . S
C2250 H2258 0.930 . S
C2251 C2250 1.394 . S
C2251 C2252 1.383 . S
C2251 H2259 0.929 . S
C2252 C2251 1.383 . S
C2252 C2253 1.377 . S
C2253 H2237 0.930 . S
C2253 C2252 1.377 . S
C2253 C2254 1.379 . S
C2254 H2238 0.931 . S
C2254 C2248 1.383 . S
C2254 C2253 1.379 . S
H2255 C2249 0.959 . S
H2256 C2249 0.961 . S
H2257 C2249 0.960 . S
H2258 C2250 0.930 . S
H2259 C2251 0.929 . S
H2260 C2268 0.929 1_556 S
H2261 C2270 0.930 1_655 S
H2262 C2272 0.930 . S
H2263 C2275 0.929 . S
H2264 C2278 0.930 . S
H2265 C2280 0.960 1_545 S
H2266 C2280 0.960 . S
H2267 C2280 0.960 . S
C2268 H2260 0.929 1_554 S
C2268 C2269 1.377 . S
C2268 C2270 1.384 . S
C2269 C2268 1.377 . S
C2269 C2275 1.390 . S
C2270 H2261 0.930 1_455 S
C2270 C2268 1.384 . S
C2270 C2271 1.372 . S
C2271 C2270 1.372 . S
C2271 C2272 1.400 . S
C2271 C2276 1.490 . S
C2272 H2262 0.930 . S
C2272 C2271 1.400 . S
C2272 C2275 1.386 . S
H2273 C2289 0.930 . S
H2274 C2290 0.931 . S
C2275 H2263 0.929 . S
C2275 C2269 1.390 . S
C2275 C2272 1.386 . S
C2276 C2271 1.490 . S
C2276 C2278 1.395 1_455 S
C2276 C2279 1.403 . S
H2277 C2283 0.930 . S
C2278 H2264 0.930 . S
C2278 C2276 1.395 1_655 S
C2278 C2281 1.403 1_565 S
C2279 C2276 1.403 . S
C2279 C2280 1.524 . S
C2279 C2283 1.400 1_565 S
C2280 H2265 0.960 1_565 S
C2280 H2266 0.960 . S
C2280 H2267 0.960 . S
C2280 C2279 1.524 . S
C2281 C2278 1.403 1_545 S
C2281 C2282 1.392 . S
C2281 C2285 1.495 . S
C2282 C2281 1.392 . S
C2282 C2283 1.385 1_655 S
C2282 C2284 1.478 . S
C2283 H2277 0.930 . S
C2283 C2279 1.400 1_545 S
C2283 C2282 1.385 1_455 S
C2284 C2282 1.478 . S
C2284 C2286 1.381 . S
C2284 C2290 1.383 . S
C2285 C2281 1.495 . S
C2285 H2291 0.959 1_545 S
C2285 H2292 0.961 . S
C2285 H2293 0.960 . S
C2286 C2284 1.381 . S
C2286 C2287 1.394 . S
C2286 H2294 0.930 . S
C2287 C2286 1.394 . S
C2287 C2288 1.383 . S
C2287 H2295 0.929 . S
C2288 C2287 1.383 . S
C2288 C2289 1.377 . S
C2289 H2273 0.930 . S
C2289 C2288 1.377 . S
C2289 C2290 1.379 . S
C2290 H2274 0.931 . S
C2290 C2284 1.383 . S
C2290 C2289 1.379 . S
H2291 C2285 0.959 1_565 S
H2292 C2285 0.961 . S
H2293 C2285 0.960 . S
H2294 C2286 0.930 . S
H2295 C2287 0.929 . S
H2296 C2304 0.929 . S
H2297 C2306 0.930 . S
H2298 C2308 0.930 . S
H2299 C2311 0.929 . S
H2300 C2314 0.930 . S
H2301 C2316 0.960 . S
H2302 C2316 0.960 . S
H2303 C2316 0.960 . S
C2304 H2296 0.929 . S
C2304 C2305 1.377 . S
C2304 C2306 1.384 . S
C2305 C2304 1.377 . S
C2305 C2311 1.390 . S
C2306 H2297 0.930 . S
C2306 C2304 1.384 . S
C2306 C2307 1.372 . S
C2307 C2306 1.372 . S
C2307 C2308 1.400 . S
C2307 C2312 1.490 . S
C2308 H2298 0.930 . S
C2308 C2307 1.400 . S
C2308 C2311 1.386 . S
H2309 C2325 0.930 . S
H2310 C2326 0.931 . S
C2311 H2299 0.929 . S
C2311 C2305 1.390 . S
C2311 C2308 1.386 . S
C2312 C2307 1.490 . S
C2312 C2314 1.395 . S
C2312 C2315 1.403 1_565 S
H2313 C2319 0.930 . S
C2314 H2300 0.930 . S
C2314 C2312 1.395 . S
C2314 C2317 1.403 . S
C2315 C2312 1.403 1_545 S
C2315 C2316 1.524 . S
C2315 C2319 1.400 . S
C2316 H2301 0.960 . S
C2316 H2302 0.960 . S
C2316 H2303 0.960 . S
C2316 C2315 1.524 . S
C2317 C2314 1.403 . S
C2317 C2318 1.392 1_565 S
C2317 C2321 1.495 . S
C2318 C2317 1.392 1_545 S
C2318 C2319 1.385 . S
C2318 C2320 1.478 . S
C2319 H2313 0.930 . S
C2319 C2315 1.400 . S
C2319 C2318 1.385 . S
C2320 C2318 1.478 . S
C2320 C2322 1.381 . S
C2320 C2326 1.383 . S
C2321 C2317 1.495 . S
C2321 H2327 0.959 . S
C2321 H2328 0.961 . S
C2321 H2329 0.960 . S
C2322 C2320 1.381 . S
C2322 C2323 1.394 . S
C2322 H2330 0.930 . S
C2323 C2322 1.394 . S
C2323 C2324 1.383 . S
C2323 H2331 0.929 . S
C2324 C2323 1.383 . S
C2324 C2325 1.377 . S
C2325 H2309 0.930 . S
C2325 C2324 1.377 . S
C2325 C2326 1.379 . S
C2326 H2310 0.931 . S
C2326 C2320 1.383 . S
C2326 C2325 1.379 . S
H2327 C2321 0.959 . S
H2328 C2321 0.961 . S
H2329 C2321 0.960 . S
H2330 C2322 0.930 . S
H2331 C2323 0.929 . S
H2332 C2340 0.929 . S
H2333 C2342 0.930 . S
H2334 C2344 0.930 . S
H2335 C2347 0.929 . S
H2336 C2350 0.930 . S
H2337 C2352 0.960 . S
H2338 C2352 0.960 . S
H2339 C2352 0.960 . S
C2340 H2332 0.929 . S
C2340 C2341 1.377 . S
C2340 C2342 1.384 . S
C2341 C2340 1.377 . S
C2341 C2347 1.390 . S
C2342 H2333 0.930 . S
C2342 C2340 1.384 . S
C2342 C2343 1.372 . S
C2343 C2342 1.372 . S
C2343 C2344 1.400 . S
C2343 C2348 1.490 . S
C2344 H2334 0.930 . S
C2344 C2343 1.400 . S
C2344 C2347 1.386 . S
H2345 C2361 0.930 . S
H2346 C2362 0.931 . S
C2347 H2335 0.929 . S
C2347 C2341 1.390 . S
C2347 C2344 1.386 . S
C2348 C2343 1.490 . S
C2348 C2350 1.395 . S
C2348 C2351 1.403 1_565 S
H2349 C2355 0.930 . S
C2350 H2336 0.930 . S
C2350 C2348 1.395 . S
C2350 C2353 1.403 1_655 S
C2351 C2348 1.403 1_545 S
C2351 C2352 1.524 . S
C2351 C2355 1.400 1_655 S
C2352 H2337 0.960 . S
C2352 H2338 0.960 . S
C2352 H2339 0.960 . S
C2352 C2351 1.524 . S
C2353 C2350 1.403 1_455 S
C2353 C2354 1.392 1_565 S
C2353 C2357 1.495 . S
C2354 C2353 1.392 1_545 S
C2354 C2355 1.385 . S
C2354 C2356 1.478 . S
C2355 H2349 0.930 . S
C2355 C2351 1.400 1_455 S
C2355 C2354 1.385 . S
C2356 C2354 1.478 . S
C2356 C2358 1.381 . S
C2356 C2362 1.383 . S
C2357 C2353 1.495 . S
C2357 H2363 0.959 . S
C2357 H2364 0.961 . S
C2357 H2365 0.960 . S
C2358 C2356 1.381 . S
C2358 C2359 1.394 . S
C2358 H2366 0.930 . S
C2359 C2358 1.394 . S
C2359 C2360 1.383 . S
C2359 H2367 0.929 . S
C2360 C2359 1.383 . S
C2360 C2361 1.377 . S
C2361 H2345 0.930 . S
C2361 C2360 1.377 . S
C2361 C2362 1.379 . S
C2362 H2346 0.931 . S
C2362 C2356 1.383 . S
C2362 C2361 1.379 . S
H2363 C2357 0.959 . S
H2364 C2357 0.961 . S
H2365 C2357 0.960 . S
H2366 C2358 0.930 . S
H2367 C2359 0.929 . S
H2368 C2376 0.929 . S
H2369 C2378 0.930 . S
H2370 C2380 0.930 . S
H2371 C2383 0.929 . S
H2372 C2386 0.930 . S
H2373 C2388 0.960 . S
H2374 C2388 0.960 . S
H2375 C2388 0.960 . S
C2376 H2368 0.929 . S
C2376 C2377 1.377 . S
C2376 C2378 1.384 . S
C2377 C2376 1.377 . S
C2377 C2383 1.390 1_455 S
C2378 H2369 0.930 . S
C2378 C2376 1.384 . S
C2378 C2379 1.372 1_455 S
C2379 C2378 1.372 1_655 S
C2379 C2380 1.400 . S
C2379 C2384 1.490 . S
C2380 H2370 0.930 . S
C2380 C2379 1.400 . S
C2380 C2383 1.386 . S
H2381 C2397 0.930 . S
H2382 C2398 0.931 . S
C2383 H2371 0.929 . S
C2383 C2377 1.390 1_655 S
C2383 C2380 1.386 . S
C2384 C2379 1.490 . S
C2384 C2386 1.395 . S
C2384 C2387 1.403 . S
H2385 C2391 0.930 . S
C2386 H2372 0.930 . S
C2386 C2384 1.395 . S
C2386 C2389 1.403 . S
C2387 C2384 1.403 . S
C2387 C2388 1.524 . S
C2387 C2391 1.400 . S
C2388 H2373 0.960 . S
C2388 H2374 0.960 . S
C2388 H2375 0.960 . S
C2388 C2387 1.524 . S
C2389 C2386 1.403 . S
C2389 C2390 1.392 . S
C2389 C2393 1.495 . S
C2390 C2389 1.392 . S
C2390 C2391 1.385 . S
C2390 C2392 1.478 . S
C2391 H2385 0.930 . S
C2391 C2387 1.400 . S
C2391 C2390 1.385 . S
C2392 C2390 1.478 . S
C2392 C2394 1.381 . S
C2392 C2398 1.383 . S
C2393 C2389 1.495 . S
C2393 H2399 0.959 . S
C2393 H2400 0.961 . S
C2393 H2401 0.960 . S
C2394 C2392 1.381 . S
C2394 C2395 1.394 . S
C2394 H2402 0.930 . S
C2395 C2394 1.394 . S
C2395 C2396 1.383 . S
C2395 H2403 0.929 . S
C2396 C2395 1.383 . S
C2396 C2397 1.377 . S
C2397 H2381 0.930 . S
C2397 C2396 1.377 . S
C2397 C2398 1.379 . S
C2398 H2382 0.931 . S
C2398 C2392 1.383 . S
C2398 C2397 1.379 . S
H2399 C2393 0.959 . S
H2400 C2393 0.961 . S
H2401 C2393 0.960 . S
H2402 C2394 0.930 . S
H2403 C2395 0.929 . S
H2404 C2412 0.929 . S
H2405 C2414 0.925 1_554 S
H2406 C2416 0.930 1_554 S
H2407 C2419 0.929 . S
H2408 C2422 0.930 . S
H2409 C2424 0.960 . S
H2410 C2424 0.960 1_556 S
H2411 C2424 0.960 . S
C2412 H2404 0.929 . S
C2412 C2413 1.377 . S
C2412 C2414 1.384 . S
C2413 C2412 1.377 . S
C2413 C2419 1.390 . S
C2414 H2405 0.925 1_556 S
C2414 C2412 1.384 . S
C2414 C2415 1.372 1_556 S
C2415 C2414 1.372 1_554 S
C2415 C2416 1.400 1_554 S
C2415 C2420 1.490 . S
C2416 H2406 0.930 1_556 S
C2416 C2415 1.400 1_556 S
C2416 C2419 1.386 . S
H2417 C2433 0.930 . S
H2418 C2434 0.931 . S
C2419 H2407 0.929 . S
C2419 C2413 1.390 . S
C2419 C2416 1.386 . S
C2420 C2415 1.490 . S
C2420 C2422 1.395 . S
C2420 C2423 1.403 . S
H2421 C2427 0.930 . S
C2422 H2408 0.930 . S
C2422 C2420 1.395 . S
C2422 C2425 1.403 . S
C2423 C2420 1.403 . S
C2423 C2424 1.524 . S
C2423 C2427 1.400 . S
C2424 H2409 0.960 . S
C2424 H2410 0.960 1_554 S
C2424 H2411 0.960 . S
C2424 C2423 1.524 . S
C2425 C2422 1.403 . S
C2425 C2426 1.392 . S
C2425 C2429 1.495 . S
C2426 C2425 1.392 . S
C2426 C2427 1.385 . S
C2426 C2428 1.478 . S
C2427 H2421 0.930 . S
C2427 C2423 1.400 . S
C2427 C2426 1.385 . S
C2428 C2426 1.478 . S
C2428 C2430 1.381 . S
C2428 C2434 1.383 . S
C2429 C2425 1.495 . S
C2429 H2435 0.959 . S
C2429 H2436 0.961 . S
C2429 H2437 0.960 . S
C2430 C2428 1.381 . S
C2430 C2431 1.394 . S
C2430 H2438 0.930 . S
C2431 C2430 1.394 . S
C2431 C2432 1.383 . S
C2431 H2439 0.929 . S
C2432 C2431 1.383 . S
C2432 C2433 1.377 . S
C2433 H2417 0.930 . S
C2433 C2432 1.377 . S
C2433 C2434 1.379 . S
C2434 H2418 0.931 . S
C2434 C2428 1.383 . S
C2434 C2433 1.379 . S
H2435 C2429 0.959 . S
H2436 C2429 0.961 . S
H2437 C2429 0.960 . S
H2438 C2430 0.930 . S
H2439 C2431 0.929 . S
H2440 C2448 0.929 . S
H2441 C2450 0.930 . S
H2442 C2452 0.930 . S
H2443 C2455 0.929 . S
H2444 C2458 0.930 . S
H2445 C2460 0.960 . S
H2446 C2460 0.960 . S
H2447 C2460 0.960 . S
C2448 H2440 0.929 . S
C2448 C2449 1.377 . S
C2448 C2450 1.384 . S
C2449 C2448 1.377 . S
C2449 C2455 1.390 . S
C2450 H2441 0.930 . S
C2450 C2448 1.384 . S
C2450 C2451 1.372 . S
C2451 C2450 1.372 . S
C2451 C2452 1.400 . S
C2451 C2456 1.490 . S
C2452 H2442 0.930 . S
C2452 C2451 1.400 . S
C2452 C2455 1.386 . S
H2453 C2469 0.930 . S
H2454 C2470 0.931 . S
C2455 H2443 0.929 . S
C2455 C2449 1.390 . S
C2455 C2452 1.386 . S
C2456 C2451 1.490 . S
C2456 C2458 1.395 . S
C2456 C2459 1.403 . S
H2457 C2463 0.930 . S
C2458 H2444 0.930 . S
C2458 C2456 1.395 . S
C2458 C2461 1.403 . S
C2459 C2456 1.403 . S
C2459 C2460 1.524 . S
C2459 C2463 1.400 . S
C2460 H2445 0.960 . S
C2460 H2446 0.960 . S
C2460 H2447 0.960 . S
C2460 C2459 1.524 . S
C2461 C2458 1.403 . S
C2461 C2462 1.392 . S
C2461 C2465 1.495 . S
C2462 C2461 1.392 . S
C2462 C2463 1.385 . S
C2462 C2464 1.478 . S
C2463 H2457 0.930 . S
C2463 C2459 1.400 . S
C2463 C2462 1.385 . S
C2464 C2462 1.478 . S
C2464 C2466 1.381 . S
C2464 C2470 1.383 . S
C2465 C2461 1.495 . S
C2465 H2471 0.959 . S
C2465 H2472 0.961 . S
C2465 H2473 0.960 . S
C2466 C2464 1.381 . S
C2466 C2467 1.394 . S
C2466 H2474 0.930 . S
C2467 C2466 1.394 . S
C2467 C2468 1.383 . S
C2467 H2475 0.929 . S
C2468 C2467 1.383 . S
C2468 C2469 1.377 . S
C2469 H2453 0.930 . S
C2469 C2468 1.377 . S
C2469 C2470 1.379 . S
C2470 H2454 0.931 . S
C2470 C2464 1.383 . S
C2470 C2469 1.379 . S
H2471 C2465 0.959 . S
H2472 C2465 0.961 . S
H2473 C2465 0.960 . S
H2474 C2466 0.930 . S
H2475 C2467 0.929 . S
H2476 C2484 0.929 . S
H2477 C2486 0.930 . S
H2478 C2488 0.930 . S
H2479 C2491 0.929 . S
H2480 C2494 0.930 . S
H2481 C2496 0.960 . S
H2482 C2496 0.960 . S
H2483 C2496 0.960 . S
C2484 H2476 0.929 . S
C2484 C2485 1.377 . S
C2484 C2486 1.384 . S
C2485 C2484 1.377 . S
C2485 C2491 1.390 . S
C2486 H2477 0.930 . S
C2486 C2484 1.384 . S
C2486 C2487 1.372 . S
C2487 C2486 1.372 . S
C2487 C2488 1.400 . S
C2487 C2492 1.490 . S
C2488 H2478 0.930 . S
C2488 C2487 1.400 . S
C2488 C2491 1.386 . S
H2489 C2505 0.930 . S
H2490 C2506 0.931 . S
C2491 H2479 0.929 . S
C2491 C2485 1.390 . S
C2491 C2488 1.386 . S
C2492 C2487 1.490 . S
C2492 C2494 1.395 . S
C2492 C2495 1.403 . S
H2493 C2499 0.930 . S
C2494 H2480 0.930 . S
C2494 C2492 1.395 . S
C2494 C2497 1.403 . S
C2495 C2492 1.403 . S
C2495 C2496 1.524 . S
C2495 C2499 1.400 . S
C2496 H2481 0.960 . S
C2496 H2482 0.960 . S
C2496 H2483 0.960 . S
C2496 C2495 1.524 . S
C2497 C2494 1.403 . S
C2497 C2498 1.392 . S
C2497 C2501 1.495 . S
C2498 C2497 1.392 . S
C2498 C2499 1.385 . S
C2498 C2500 1.478 . S
C2499 H2493 0.930 . S
C2499 C2495 1.400 . S
C2499 C2498 1.385 . S
C2500 C2498 1.478 . S
C2500 C2502 1.381 . S
C2500 C2506 1.383 . S
C2501 C2497 1.495 . S
C2501 H2507 0.959 . S
C2501 H2508 0.961 . S
C2501 H2509 0.960 . S
C2502 C2500 1.381 . S
C2502 C2503 1.394 . S
C2502 H2510 0.930 . S
C2503 C2502 1.394 . S
C2503 C2504 1.383 . S
C2503 H2511 0.929 . S
C2504 C2503 1.383 . S
C2504 C2505 1.377 . S
C2505 H2489 0.930 . S
C2505 C2504 1.377 . S
C2505 C2506 1.379 . S
C2506 H2490 0.931 . S
C2506 C2500 1.383 . S
C2506 C2505 1.379 . S
H2507 C2501 0.959 . S
H2508 C2501 0.961 . S
H2509 C2501 0.960 . S
H2510 C2502 0.930 . S
H2511 C2503 0.929 . S
H2512 C2520 0.929 . S
H2513 C2522 0.930 . S
H2514 C2524 0.930 . S
H2515 C2527 0.929 . S
H2516 C2530 0.930 . S
H2517 C2532 0.960 . S
H2518 C2532 0.959 1_455 S
H2519 C2532 0.960 . S
C2520 H2512 0.929 . S
C2520 C2521 1.377 1_455 S
C2520 C2522 1.384 . S
C2521 C2520 1.377 1_655 S
C2521 C2527 1.390 . S
C2522 H2513 0.930 . S
C2522 C2520 1.384 . S
C2522 C2523 1.372 . S
C2523 C2522 1.372 . S
C2523 C2524 1.400 1_455 S
C2523 C2528 1.490 . S
C2524 H2514 0.930 . S
C2524 C2523 1.400 1_655 S
C2524 C2527 1.386 . S
H2525 C2541 0.930 . S
H2526 C2542 0.931 . S
C2527 H2515 0.929 . S
C2527 C2521 1.390 . S
C2527 C2524 1.386 . S
C2528 C2523 1.490 . S
C2528 C2530 1.395 . S
C2528 C2531 1.403 . S
H2529 C2535 0.930 . S
C2530 H2516 0.930 . S
C2530 C2528 1.395 . S
C2530 C2533 1.403 . S
C2531 C2528 1.403 . S
C2531 C2532 1.524 1_455 S
C2531 C2535 1.400 . S
C2532 H2517 0.960 . S
C2532 H2518 0.959 1_655 S
C2532 H2519 0.960 . S
C2532 C2531 1.524 1_655 S
C2533 C2530 1.403 . S
C2533 C2534 1.392 . S
C2533 C2537 1.495 . S
C2534 C2533 1.392 . S
C2534 C2535 1.385 . S
C2534 C2536 1.478 . S
C2535 H2529 0.930 . S
C2535 C2531 1.400 . S
C2535 C2534 1.385 . S
C2536 C2534 1.478 . S
C2536 C2538 1.381 . S
C2536 C2542 1.383 . S
C2537 C2533 1.495 . S
C2537 H2543 0.959 . S
C2537 H2544 0.961 . S
C2537 H2545 0.960 . S
C2538 C2536 1.381 . S
C2538 C2539 1.394 . S
C2538 H2546 0.930 . S
C2539 C2538 1.394 . S
C2539 C2540 1.383 . S
C2539 H2547 0.929 . S
C2540 C2539 1.383 . S
C2540 C2541 1.377 . S
C2541 H2525 0.930 . S
C2541 C2540 1.377 . S
C2541 C2542 1.379 . S
C2542 H2526 0.931 . S
C2542 C2536 1.383 . S
C2542 C2541 1.379 . S
H2543 C2537 0.959 . S
H2544 C2537 0.961 . S
H2545 C2537 0.960 . S
H2546 C2538 0.930 . S
H2547 C2539 0.929 . S
H2548 C2556 0.929 . S
H2549 C2558 0.930 . S
H2550 C2560 0.930 . S
H2551 C2563 0.929 . S
H2552 C2566 0.930 . S
H2553 C2568 0.960 . S
H2554 C2568 0.960 . S
H2555 C2568 0.960 . S
C2556 H2548 0.929 . S
C2556 C2557 1.377 . S
C2556 C2558 1.384 . S
C2557 C2556 1.377 . S
C2557 C2563 1.390 . S
C2558 H2549 0.930 . S
C2558 C2556 1.384 . S
C2558 C2559 1.372 . S
C2559 C2558 1.372 . S
C2559 C2560 1.400 . S
C2559 C2564 1.490 . S
C2560 H2550 0.930 . S
C2560 C2559 1.400 . S
C2560 C2563 1.386 . S
H2561 C2577 0.930 . S
H2562 C2578 0.931 . S
C2563 H2551 0.929 . S
C2563 C2557 1.390 . S
C2563 C2560 1.386 . S
C2564 C2559 1.490 . S
C2564 C2566 1.395 . S
C2564 C2567 1.403 . S
H2565 C2571 0.930 . S
C2566 H2552 0.930 . S
C2566 C2564 1.395 . S
C2566 C2569 1.403 . S
C2567 C2564 1.403 . S
C2567 C2568 1.524 . S
C2567 C2571 1.400 . S
C2568 H2553 0.960 . S
C2568 H2554 0.960 . S
C2568 H2555 0.960 . S
C2568 C2567 1.524 . S
C2569 C2566 1.403 . S
C2569 C2570 1.392 . S
C2569 C2573 1.495 . S
C2570 C2569 1.392 . S
C2570 C2571 1.385 . S
C2570 C2572 1.478 1_554 S
C2571 H2565 0.930 . S
C2571 C2567 1.400 . S
C2571 C2570 1.385 . S
C2572 C2570 1.478 1_556 S
C2572 C2574 1.381 . S
C2572 C2578 1.383 . S
C2573 C2569 1.495 . S
C2573 H2579 0.959 . S
C2573 H2580 0.961 1_554 S
C2573 H2581 0.960 . S
C2574 C2572 1.381 . S
C2574 C2575 1.394 . S
C2574 H2582 0.930 1_556 S
C2575 C2574 1.394 . S
C2575 C2576 1.383 . S
C2575 H2583 0.929 . S
C2576 C2575 1.383 . S
C2576 C2577 1.377 . S
C2577 H2561 0.930 . S
C2577 C2576 1.377 . S
C2577 C2578 1.379 . S
C2578 H2562 0.931 . S
C2578 C2572 1.383 . S
C2578 C2577 1.379 . S
H2579 C2573 0.959 . S
H2580 C2573 0.961 1_556 S
H2581 C2573 0.960 . S
H2582 C2574 0.930 1_554 S
H2583 C2575 0.929 . S
H2584 C2592 0.929 . S
H2585 C2594 0.930 . S
H2586 C2596 0.930 . S
H2587 C2599 0.929 . S
H2588 C2602 0.930 . S
H2589 C2604 0.960 . S
H2590 C2604 0.960 . S
H2591 C2604 0.960 . S
C2592 H2584 0.929 . S
C2592 C2593 1.377 . S
C2592 C2594 1.384 . S
C2593 C2592 1.377 . S
C2593 C2599 1.390 . S
C2594 H2585 0.930 . S
C2594 C2592 1.384 . S
C2594 C2595 1.372 . S
C2595 C2594 1.372 . S
C2595 C2596 1.400 . S
C2595 C2600 1.490 . S
C2596 H2586 0.930 . S
C2596 C2595 1.400 . S
C2596 C2599 1.386 . S
H2597 C2613 0.930 . S
H2598 C2614 0.931 . S
C2599 H2587 0.929 . S
C2599 C2593 1.390 . S
C2599 C2596 1.386 . S
C2600 C2595 1.490 . S
C2600 C2602 1.395 . S
C2600 C2603 1.403 . S
H2601 C2607 0.930 . S
C2602 H2588 0.930 . S
C2602 C2600 1.395 . S
C2602 C2605 1.403 . S
C2603 C2600 1.403 . S
C2603 C2604 1.524 . S
C2603 C2607 1.400 . S
C2604 H2589 0.960 . S
C2604 H2590 0.960 . S
C2604 H2591 0.960 . S
C2604 C2603 1.524 . S
C2605 C2602 1.403 . S
C2605 C2606 1.392 . S
C2605 C2609 1.495 . S
C2606 C2605 1.392 . S
C2606 C2607 1.385 . S
C2606 C2608 1.478 . S
C2607 H2601 0.930 . S
C2607 C2603 1.400 . S
C2607 C2606 1.385 . S
C2608 C2606 1.478 . S
C2608 C2610 1.381 . S
C2608 C2614 1.383 . S
C2609 C2605 1.495 . S
C2609 H2615 0.959 . S
C2609 H2616 0.961 . S
C2609 H2617 0.960 . S
C2610 C2608 1.381 . S
C2610 C2611 1.394 . S
C2610 H2618 0.930 . S
C2611 C2610 1.394 . S
C2611 C2612 1.383 . S
C2611 H2619 0.929 . S
C2612 C2611 1.383 . S
C2612 C2613 1.377 . S
C2613 H2597 0.930 . S
C2613 C2612 1.377 . S
C2613 C2614 1.379 . S
C2614 H2598 0.931 . S
C2614 C2608 1.383 . S
C2614 C2613 1.379 . S
H2615 C2609 0.959 . S
H2616 C2609 0.961 . S
H2617 C2609 0.960 . S
H2618 C2610 0.930 . S
H2619 C2611 0.929 . S
H2620 C2628 0.929 . S
H2621 C2630 0.930 . S
H2622 C2632 0.930 . S
H2623 C2635 0.929 . S
H2624 C2638 0.930 . S
H2625 C2640 0.960 . S
H2626 C2640 0.960 . S
H2627 C2640 0.960 . S
C2628 H2620 0.929 . S
C2628 C2629 1.377 . S
C2628 C2630 1.384 . S
C2629 C2628 1.377 . S
C2629 C2635 1.390 . S
C2630 H2621 0.930 . S
C2630 C2628 1.384 . S
C2630 C2631 1.372 . S
C2631 C2630 1.372 . S
C2631 C2632 1.400 . S
C2631 C2636 1.490 . S
C2632 H2622 0.930 . S
C2632 C2631 1.400 . S
C2632 C2635 1.386 . S
H2633 C2649 0.930 . S
H2634 C2650 0.931 . S
C2635 H2623 0.929 . S
C2635 C2629 1.390 . S
C2635 C2632 1.386 . S
C2636 C2631 1.490 . S
C2636 C2638 1.395 . S
C2636 C2639 1.403 . S
H2637 C2643 0.930 . S
C2638 H2624 0.930 . S
C2638 C2636 1.395 . S
C2638 C2641 1.403 . S
C2639 C2636 1.403 . S
C2639 C2640 1.524 . S
C2639 C2643 1.400 . S
C2640 H2625 0.960 . S
C2640 H2626 0.960 . S
C2640 H2627 0.960 . S
C2640 C2639 1.524 . S
C2641 C2638 1.403 . S
C2641 C2642 1.392 . S
C2641 C2645 1.495 . S
C2642 C2641 1.392 . S
C2642 C2643 1.385 . S
C2642 C2644 1.478 . S
C2643 H2637 0.930 . S
C2643 C2639 1.400 . S
C2643 C2642 1.385 . S
C2644 C2642 1.478 . S
C2644 C2646 1.381 . S
C2644 C2650 1.383 . S
C2645 C2641 1.495 . S
C2645 H2651 0.959 . S
C2645 H2652 0.961 . S
C2645 H2653 0.960 . S
C2646 C2644 1.381 . S
C2646 C2647 1.394 . S
C2646 H2654 0.930 . S
C2647 C2646 1.394 . S
C2647 C2648 1.383 . S
C2647 H2655 0.929 . S
C2648 C2647 1.383 . S
C2648 C2649 1.377 . S
C2649 H2633 0.930 . S
C2649 C2648 1.377 . S
C2649 C2650 1.379 . S
C2650 H2634 0.931 . S
C2650 C2644 1.383 . S
C2650 C2649 1.379 . S
H2651 C2645 0.959 . S
H2652 C2645 0.961 . S
H2653 C2645 0.960 . S
H2654 C2646 0.930 . S
H2655 C2647 0.929 . S
H2656 C2664 0.929 . S
H2657 C2666 0.930 . S
H2658 C2668 0.930 . S
H2659 C2671 0.929 . S
H2660 C2674 0.930 . S
H2661 C2676 0.960 1_655 S
H2662 C2676 0.960 . S
H2663 C2676 0.960 . S
C2664 H2656 0.929 . S
C2664 C2665 1.377 . S
C2664 C2666 1.384 . S
C2665 C2664 1.377 . S
C2665 C2671 1.390 . S
C2666 H2657 0.930 . S
C2666 C2664 1.384 . S
C2666 C2667 1.372 . S
C2667 C2666 1.372 . S
C2667 C2668 1.400 . S
C2667 C2672 1.490 . S
C2668 H2658 0.930 . S
C2668 C2667 1.400 . S
C2668 C2671 1.386 . S
H2669 C2685 0.930 . S
H2670 C2686 0.934 . S
C2671 H2659 0.929 . S
C2671 C2665 1.390 . S
C2671 C2668 1.386 . S
C2672 C2667 1.490 . S
C2672 C2674 1.395 . S
C2672 C2675 1.403 . S
H2673 C2679 0.930 1_655 S
C2674 H2660 0.930 . S
C2674 C2672 1.395 . S
C2674 C2677 1.403 . S
C2675 C2672 1.403 . S
C2675 C2676 1.524 . S
C2675 C2679 1.400 . S
C2676 H2661 0.960 1_455 S
C2676 H2662 0.960 . S
C2676 H2663 0.960 . S
C2676 C2675 1.524 . S
C2677 C2674 1.403 . S
C2677 C2678 1.392 . S
C2677 C2681 1.495 . S
C2678 C2677 1.392 . S
C2678 C2679 1.385 . S
C2678 C2680 1.478 . S
C2679 H2673 0.930 1_455 S
C2679 C2675 1.400 . S
C2679 C2678 1.385 . S
C2680 C2678 1.478 . S
C2680 C2682 1.381 . S
C2680 C2686 1.395 . S
C2681 C2677 1.495 . S
C2681 H2687 0.959 . S
C2681 H2688 0.961 . S
C2681 H2689 0.960 . S
C2682 C2680 1.381 . S
C2682 C2683 1.394 1_455 S
C2682 H2690 0.930 . S
C2683 C2682 1.394 1_655 S
C2683 C2684 1.383 . S
C2683 H2691 0.929 . S
C2684 C2683 1.383 . S
C2684 C2685 1.377 . S
C2685 H2669 0.930 . S
C2685 C2684 1.377 . S
C2685 C2686 1.365 1_655 S
C2686 H2670 0.934 . S
C2686 C2680 1.395 . S
C2686 C2685 1.365 1_455 S
H2687 C2681 0.959 . S
H2688 C2681 0.961 . S
H2689 C2681 0.960 . S
H2690 C2682 0.930 . S
H2691 C2683 0.929 . S
H2692 C2700 0.929 . S
H2693 C2702 0.930 . S
H2694 C2704 0.930 . S
H2695 C2707 0.929 . S
H2696 C2710 0.930 . S
H2697 C2712 0.960 . S
H2698 C2712 0.960 . S
H2699 C2712 0.960 . S
C2700 H2692 0.929 . S
C2700 C2701 1.377 . S
C2700 C2702 1.384 . S
C2701 C2700 1.377 . S
C2701 C2707 1.390 . S
C2702 H2693 0.930 . S
C2702 C2700 1.384 . S
C2702 C2703 1.372 . S
C2703 C2702 1.372 . S
C2703 C2704 1.400 . S
C2703 C2708 1.490 . S
C2704 H2694 0.930 . S
C2704 C2703 1.400 . S
C2704 C2707 1.386 . S
H2705 C2721 0.930 . S
H2706 C2722 0.931 . S
C2707 H2695 0.929 . S
C2707 C2701 1.390 . S
C2707 C2704 1.386 . S
C2708 C2703 1.490 . S
C2708 C2710 1.395 . S
C2708 C2711 1.403 . S
H2709 C2715 0.930 . S
C2710 H2696 0.930 . S
C2710 C2708 1.395 . S
C2710 C2713 1.403 . S
C2711 C2708 1.403 . S
C2711 C2712 1.524 . S
C2711 C2715 1.400 . S
C2712 H2697 0.960 . S
C2712 H2698 0.960 . S
C2712 H2699 0.960 . S
C2712 C2711 1.524 . S
C2713 C2710 1.403 . S
C2713 C2714 1.392 . S
C2713 C2717 1.495 . S
C2714 C2713 1.392 . S
C2714 C2715 1.385 . S
C2714 C2716 1.478 1_554 S
C2715 H2709 0.930 . S
C2715 C2711 1.400 . S
C2715 C2714 1.385 . S
C2716 C2714 1.478 1_556 S
C2716 C2718 1.381 . S
C2716 C2722 1.383 . S
C2717 C2713 1.495 . S
C2717 H2723 0.959 . S
C2717 H2724 0.961 1_554 S
C2717 H2725 0.960 . S
C2718 C2716 1.381 . S
C2718 C2719 1.394 . S
C2718 H2726 0.930 . S
C2719 C2718 1.394 . S
C2719 C2720 1.383 . S
C2719 H2727 0.929 . S
C2720 C2719 1.383 . S
C2720 C2721 1.377 . S
C2721 H2705 0.930 . S
C2721 C2720 1.377 . S
C2721 C2722 1.379 . S
C2722 H2706 0.931 . S
C2722 C2716 1.383 . S
C2722 C2721 1.379 . S
H2723 C2717 0.959 . S
H2724 C2717 0.961 1_556 S
H2725 C2717 0.960 . S
H2726 C2718 0.930 . S
H2727 C2719 0.929 . S
H2728 C2736 0.929 . S
H2729 C2738 0.930 . S
H2730 C2740 0.930 . S
H2731 C2743 0.929 . S
H2732 C2746 0.930 . S
H2733 C2748 0.960 . S
H2734 C2748 0.960 . S
H2735 C2748 0.960 . S
C2736 H2728 0.929 . S
C2736 C2737 1.377 . S
C2736 C2738 1.384 . S
C2737 C2736 1.377 . S
C2737 C2743 1.390 . S
C2738 H2729 0.930 . S
C2738 C2736 1.384 . S
C2738 C2739 1.372 . S
C2739 C2738 1.372 . S
C2739 C2740 1.400 . S
C2739 C2744 1.490 . S
C2740 H2730 0.930 . S
C2740 C2739 1.400 . S
C2740 C2743 1.386 . S
H2741 C2757 0.930 . S
H2742 C2758 0.931 . S
C2743 H2731 0.929 . S
C2743 C2737 1.390 . S
C2743 C2740 1.386 . S
C2744 C2739 1.490 . S
C2744 C2746 1.395 . S
C2744 C2747 1.403 . S
H2745 C2751 0.930 . S
C2746 H2732 0.930 . S
C2746 C2744 1.395 . S
C2746 C2749 1.403 . S
C2747 C2744 1.403 . S
C2747 C2748 1.524 . S
C2747 C2751 1.400 . S
C2748 H2733 0.960 . S
C2748 H2734 0.960 . S
C2748 H2735 0.960 . S
C2748 C2747 1.524 . S
C2749 C2746 1.403 . S
C2749 C2750 1.392 . S
C2749 C2753 1.495 . S
C2750 C2749 1.392 . S
C2750 C2751 1.385 . S
C2750 C2752 1.478 . S
C2751 H2745 0.930 . S
C2751 C2747 1.400 . S
C2751 C2750 1.385 . S
C2752 C2750 1.478 . S
C2752 C2754 1.381 . S
C2752 C2758 1.383 . S
C2753 C2749 1.495 . S
C2753 H2759 0.959 . S
C2753 H2760 0.961 . S
C2753 H2761 0.960 . S
C2754 C2752 1.381 . S
C2754 C2755 1.394 . S
C2754 H2762 0.930 . S
C2755 C2754 1.394 . S
C2755 C2756 1.383 . S
C2755 H2763 0.929 . S
C2756 C2755 1.383 . S
C2756 C2757 1.377 . S
C2757 H2741 0.930 . S
C2757 C2756 1.377 . S
C2757 C2758 1.379 . S
C2758 H2742 0.931 . S
C2758 C2752 1.383 . S
C2758 C2757 1.379 . S
H2759 C2753 0.959 . S
H2760 C2753 0.961 . S
H2761 C2753 0.960 . S
H2762 C2754 0.930 . S
H2763 C2755 0.929 . S
H2764 C2772 0.929 . S
H2765 C2774 0.930 . S
H2766 C2776 0.930 . S
H2767 C2779 0.929 . S
H2768 C2782 0.930 . S
H2769 C2784 0.960 . S
H2770 C2784 0.960 . S
H2771 C2784 0.960 . S
C2772 H2764 0.929 . S
C2772 C2773 1.377 . S
C2772 C2774 1.384 . S
C2773 C2772 1.377 . S
C2773 C2779 1.390 . S
C2774 H2765 0.930 . S
C2774 C2772 1.384 . S
C2774 C2775 1.372 . S
C2775 C2774 1.372 . S
C2775 C2776 1.400 . S
C2775 C2780 1.490 . S
C2776 H2766 0.930 . S
C2776 C2775 1.400 . S
C2776 C2779 1.386 . S
H2777 C2793 0.930 . S
H2778 C2794 0.931 . S
C2779 H2767 0.929 . S
C2779 C2773 1.390 . S
C2779 C2776 1.386 . S
C2780 C2775 1.490 . S
C2780 C2782 1.395 . S
C2780 C2783 1.403 . S
H2781 C2787 0.930 . S
C2782 H2768 0.930 . S
C2782 C2780 1.395 . S
C2782 C2785 1.403 . S
C2783 C2780 1.403 . S
C2783 C2784 1.524 . S
C2783 C2787 1.400 . S
C2784 H2769 0.960 . S
C2784 H2770 0.960 . S
C2784 H2771 0.960 . S
C2784 C2783 1.524 . S
C2785 C2782 1.403 . S
C2785 C2786 1.392 . S
C2785 C2789 1.495 . S
C2786 C2785 1.392 . S
C2786 C2787 1.385 . S
C2786 C2788 1.478 . S
C2787 H2781 0.930 . S
C2787 C2783 1.400 . S
C2787 C2786 1.385 . S
C2788 C2786 1.478 . S
C2788 C2790 1.381 . S
C2788 C2794 1.383 . S
C2789 C2785 1.495 . S
C2789 H2795 0.959 . S
C2789 H2796 0.961 . S
C2789 H2797 0.960 . S
C2790 C2788 1.381 . S
C2790 C2791 1.394 . S
C2790 H2798 0.930 . S
C2791 C2790 1.394 . S
C2791 C2792 1.383 . S
C2791 H2799 0.929 . S
C2792 C2791 1.383 . S
C2792 C2793 1.377 . S
C2793 H2777 0.930 . S
C2793 C2792 1.377 . S
C2793 C2794 1.379 . S
C2794 H2778 0.931 . S
C2794 C2788 1.383 . S
C2794 C2793 1.379 . S
H2795 C2789 0.959 . S
H2796 C2789 0.961 . S
H2797 C2789 0.960 . S
H2798 C2790 0.930 . S
H2799 C2791 0.929 . S
H2800 C2808 0.929 . S
H2801 C2810 0.930 . S
H2802 C2812 0.930 . S
H2803 C2815 0.929 . S
H2804 C2818 0.930 . S
H2805 C2820 0.960 . S
H2806 C2820 0.960 . S
H2807 C2820 0.960 . S
C2808 H2800 0.929 . S
C2808 C2809 1.377 1_655 S
C2808 C2810 1.384 . S
C2809 C2808 1.377 1_455 S
C2809 C2815 1.390 . S
C2810 H2801 0.930 . S
C2810 C2808 1.384 . S
C2810 C2811 1.372 . S
C2811 C2810 1.372 . S
C2811 C2812 1.400 1_655 S
C2811 C2816 1.490 . S
C2812 H2802 0.930 . S
C2812 C2811 1.400 1_455 S
C2812 C2815 1.386 . S
H2813 C2829 0.930 . S
H2814 C2830 0.931 . S
C2815 H2803 0.929 . S
C2815 C2809 1.390 . S
C2815 C2812 1.386 . S
C2816 C2811 1.490 . S
C2816 C2818 1.395 . S
C2816 C2819 1.403 . S
H2817 C2823 0.930 . S
C2818 H2804 0.930 . S
C2818 C2816 1.395 . S
C2818 C2821 1.403 . S
C2819 C2816 1.403 . S
C2819 C2820 1.524 1_655 S
C2819 C2823 1.400 . S
C2820 H2805 0.960 . S
C2820 H2806 0.960 . S
C2820 H2807 0.960 . S
C2820 C2819 1.524 1_455 S
C2821 C2818 1.403 . S
C2821 C2822 1.392 . S
C2821 C2825 1.495 . S
C2822 C2821 1.392 . S
C2822 C2823 1.385 . S
C2822 C2824 1.478 . S
C2823 H2817 0.930 . S
C2823 C2819 1.400 . S
C2823 C2822 1.385 . S
C2824 C2822 1.478 . S
C2824 C2826 1.381 . S
C2824 C2830 1.383 . S
C2825 C2821 1.495 . S
C2825 H2831 0.959 . S
C2825 H2832 0.961 . S
C2825 H2833 0.960 . S
C2826 C2824 1.381 . S
C2826 C2827 1.394 . S
C2826 H2834 0.930 . S
C2827 C2826 1.394 . S
C2827 C2828 1.383 . S
C2827 H2835 0.929 . S
C2828 C2827 1.383 . S
C2828 C2829 1.377 . S
C2829 H2813 0.930 . S
C2829 C2828 1.377 . S
C2829 C2830 1.379 . S
C2830 H2814 0.931 . S
C2830 C2824 1.383 . S
C2830 C2829 1.379 . S
H2831 C2825 0.959 . S
H2832 C2825 0.961 . S
H2833 C2825 0.960 . S
H2834 C2826 0.930 . S
H2835 C2827 0.929 . S
H2836 C2844 0.929 . S
H2837 C2846 0.930 . S
H2838 C2848 0.930 . S
H2839 C2851 0.929 . S
H2840 C2854 0.930 . S
H2841 C2856 0.960 . S
H2842 C2856 0.960 . S
H2843 C2856 0.960 . S
C2844 H2836 0.929 . S
C2844 C2845 1.377 . S
C2844 C2846 1.384 1_556 S
C2845 C2844 1.377 . S
C2845 C2851 1.390 . S
C2846 H2837 0.930 . S
C2846 C2844 1.384 1_554 S
C2846 C2847 1.372 . S
C2847 C2846 1.372 . S
C2847 C2848 1.400 1_554 S
C2847 C2852 1.490 . S
C2848 H2838 0.930 . S
C2848 C2847 1.400 1_556 S
C2848 C2851 1.386 . S
H2849 C2865 0.930 . S
H2850 C2866 0.931 . S
C2851 H2839 0.929 . S
C2851 C2845 1.390 . S
C2851 C2848 1.386 . S
C2852 C2847 1.490 . S
C2852 C2854 1.395 . S
C2852 C2855 1.403 . S
H2853 C2859 0.930 . S
C2854 H2840 0.930 . S
C2854 C2852 1.395 . S
C2854 C2857 1.403 . S
C2855 C2852 1.403 . S
C2855 C2856 1.524 . S
C2855 C2859 1.400 . S
C2856 H2841 0.960 . S
C2856 H2842 0.960 . S
C2856 H2843 0.960 . S
C2856 C2855 1.524 . S
C2857 C2854 1.403 . S
C2857 C2858 1.392 . S
C2857 C2861 1.495 . S
C2858 C2857 1.392 . S
C2858 C2859 1.385 . S
C2858 C2860 1.478 . S
C2859 H2853 0.930 . S
C2859 C2855 1.400 . S
C2859 C2858 1.385 . S
C2860 C2858 1.478 . S
C2860 C2862 1.381 . S
C2860 C2866 1.383 . S
C2861 C2857 1.495 . S
C2861 H2867 0.959 . S
C2861 H2868 0.961 . S
C2861 H2869 0.960 . S
C2862 C2860 1.381 . S
C2862 C2863 1.394 . S
C2862 H2870 0.930 . S
C2863 C2862 1.394 . S
C2863 C2864 1.383 . S
C2863 H2871 0.929 . S
C2864 C2863 1.383 . S
C2864 C2865 1.377 . S
C2865 H2849 0.930 . S
C2865 C2864 1.377 . S
C2865 C2866 1.379 . S
C2866 H2850 0.931 . S
C2866 C2860 1.383 . S
C2866 C2865 1.379 . S
H2867 C2861 0.959 . S
H2868 C2861 0.961 . S
H2869 C2861 0.960 . S
H2870 C2862 0.930 . S
H2871 C2863 0.929 . S
H2872 C2880 0.929 . S
H2873 C2882 0.930 . S
H2874 C2884 0.930 . S
H2875 C2887 0.929 . S
H2876 C2890 0.930 . S
H2877 C2892 0.960 . S
H2878 C2892 0.960 . S
H2879 C2892 0.960 . S
C2880 H2872 0.929 . S
C2880 C2881 1.377 . S
C2880 C2882 1.384 . S
C2881 C2880 1.377 . S
C2881 C2887 1.390 . S
C2882 H2873 0.930 . S
C2882 C2880 1.384 . S
C2882 C2883 1.372 . S
C2883 C2882 1.372 . S
C2883 C2884 1.400 . S
C2883 C2888 1.490 . S
C2884 H2874 0.930 . S
C2884 C2883 1.400 . S
C2884 C2887 1.386 . S
H2885 C2901 0.930 . S
H2886 C2902 0.931 . S
C2887 H2875 0.929 . S
C2887 C2881 1.390 . S
C2887 C2884 1.386 . S
C2888 C2883 1.490 . S
C2888 C2890 1.395 . S
C2888 C2891 1.403 . S
H2889 C2895 0.930 . S
C2890 H2876 0.930 . S
C2890 C2888 1.395 . S
C2890 C2893 1.403 . S
C2891 C2888 1.403 . S
C2891 C2892 1.524 . S
C2891 C2895 1.400 . S
C2892 H2877 0.960 . S
C2892 H2878 0.960 . S
C2892 H2879 0.960 . S
C2892 C2891 1.524 . S
C2893 C2890 1.403 . S
C2893 C2894 1.392 . S
C2893 C2897 1.495 . S
C2894 C2893 1.392 . S
C2894 C2895 1.385 . S
C2894 C2896 1.478 . S
C2895 H2889 0.930 . S
C2895 C2891 1.400 . S
C2895 C2894 1.385 . S
C2896 C2894 1.478 . S
C2896 C2898 1.381 . S
C2896 C2902 1.383 . S
C2897 C2893 1.495 . S
C2897 H2903 0.959 . S
C2897 H2904 0.961 . S
C2897 H2905 0.960 . S
C2898 C2896 1.381 . S
C2898 C2899 1.394 . S
C2898 H2906 0.930 . S
C2899 C2898 1.394 . S
C2899 C2900 1.383 . S
C2899 H2907 0.929 . S
C2900 C2899 1.383 . S
C2900 C2901 1.377 . S
C2901 H2885 0.930 . S
C2901 C2900 1.377 . S
C2901 C2902 1.379 . S
C2902 H2886 0.931 . S
C2902 C2896 1.383 . S
C2902 C2901 1.379 . S
H2903 C2897 0.959 . S
H2904 C2897 0.961 . S
H2905 C2897 0.960 . S
H2906 C2898 0.930 . S
H2907 C2899 0.929 . S
H2908 C2916 0.929 . S
H2909 C2918 0.930 . S
H2910 C2920 0.930 . S
H2911 C2923 0.929 . S
H2912 C2926 0.930 . S
H2913 C2928 0.960 . S
H2914 C2928 0.960 . S
H2915 C2928 0.960 . S
C2916 H2908 0.929 . S
C2916 C2917 1.377 . S
C2916 C2918 1.384 . S
C2917 C2916 1.377 . S
C2917 C2923 1.390 . S
C2918 H2909 0.930 . S
C2918 C2916 1.384 . S
C2918 C2919 1.372 . S
C2919 C2918 1.372 . S
C2919 C2920 1.400 . S
C2919 C2924 1.490 . S
C2920 H2910 0.930 . S
C2920 C2919 1.400 . S
C2920 C2923 1.386 . S
H2921 C2937 0.930 . S
H2922 C2938 0.931 . S
C2923 H2911 0.929 . S
C2923 C2917 1.390 . S
C2923 C2920 1.386 . S
C2924 C2919 1.490 . S
C2924 C2926 1.395 . S
C2924 C2927 1.403 . S
H2925 C2931 0.930 . S
C2926 H2912 0.930 . S
C2926 C2924 1.395 . S
C2926 C2929 1.403 . S
C2927 C2924 1.403 . S
C2927 C2928 1.524 . S
C2927 C2931 1.400 . S
C2928 H2913 0.960 . S
C2928 H2914 0.960 . S
C2928 H2915 0.960 . S
C2928 C2927 1.524 . S
C2929 C2926 1.403 . S
C2929 C2930 1.392 . S
C2929 C2933 1.495 . S
C2930 C2929 1.392 . S
C2930 C2931 1.385 . S
C2930 C2932 1.478 . S
C2931 H2925 0.930 . S
C2931 C2927 1.400 . S
C2931 C2930 1.385 . S
C2932 C2930 1.478 . S
C2932 C2934 1.381 . S
C2932 C2938 1.383 . S
C2933 C2929 1.495 . S
C2933 H2939 0.959 . S
C2933 H2940 0.961 . S
C2933 H2941 0.960 . S
C2934 C2932 1.381 . S
C2934 C2935 1.394 . S
C2934 H2942 0.930 . S
C2935 C2934 1.394 . S
C2935 C2936 1.383 . S
C2935 H2943 0.929 . S
C2936 C2935 1.383 . S
C2936 C2937 1.377 . S
C2937 H2921 0.930 . S
C2937 C2936 1.377 . S
C2937 C2938 1.379 . S
C2938 H2922 0.931 . S
C2938 C2932 1.383 . S
C2938 C2937 1.379 . S
H2939 C2933 0.959 . S
H2940 C2933 0.961 . S
H2941 C2933 0.960 . S
H2942 C2934 0.930 . S
H2943 C2935 0.929 . S
H2944 C2952 0.929 . S
H2945 C2954 0.930 . S
H2946 C2956 0.930 . S
H2947 C2959 0.929 . S
H2948 C2962 0.930 . S
H2949 C2964 0.960 . S
H2950 C2964 0.960 . S
H2951 C2964 0.960 . S
C2952 H2944 0.929 . S
C2952 C2953 1.377 . S
C2952 C2954 1.384 . S
C2953 C2952 1.377 . S
C2953 C2959 1.390 . S
C2954 H2945 0.930 . S
C2954 C2952 1.384 . S
C2954 C2955 1.372 . S
C2955 C2954 1.372 . S
C2955 C2956 1.400 . S
C2955 C2960 1.490 . S
C2956 H2946 0.930 . S
C2956 C2955 1.400 . S
C2956 C2959 1.386 . S
H2957 C2973 0.930 . S
H2958 C2974 0.931 . S
C2959 H2947 0.929 . S
C2959 C2953 1.390 . S
C2959 C2956 1.386 . S
C2960 C2955 1.490 . S
C2960 C2962 1.395 . S
C2960 C2963 1.403 . S
H2961 C2967 0.930 . S
C2962 H2948 0.930 . S
C2962 C2960 1.395 . S
C2962 C2965 1.403 . S
C2963 C2960 1.403 . S
C2963 C2964 1.524 . S
C2963 C2967 1.400 . S
C2964 H2949 0.960 . S
C2964 H2950 0.960 . S
C2964 H2951 0.960 . S
C2964 C2963 1.524 . S
C2965 C2962 1.403 . S
C2965 C2966 1.392 . S
C2965 C2969 1.495 . S
C2966 C2965 1.392 . S
C2966 C2967 1.385 . S
C2966 C2968 1.478 . S
C2967 H2961 0.930 . S
C2967 C2963 1.400 . S
C2967 C2966 1.385 . S
C2968 C2966 1.478 . S
C2968 C2970 1.381 . S
C2968 C2974 1.383 . S
C2969 C2965 1.495 . S
C2969 H2975 0.959 . S
C2969 H2976 0.961 . S
C2969 H2977 0.960 . S
C2970 C2968 1.381 . S
C2970 C2971 1.394 . S
C2970 H2978 0.930 . S
C2971 C2970 1.394 . S
C2971 C2972 1.383 . S
C2971 H2979 0.929 . S
C2972 C2971 1.383 . S
C2972 C2973 1.377 . S
C2973 H2957 0.930 . S
C2973 C2972 1.377 . S
C2973 C2974 1.379 . S
C2974 H2958 0.931 . S
C2974 C2968 1.383 . S
C2974 C2973 1.379 . S
H2975 C2969 0.959 . S
H2976 C2969 0.961 . S
H2977 C2969 0.960 . S
H2978 C2970 0.930 . S
H2979 C2971 0.929 . S
H2980 C2988 0.929 . S
H2981 C2990 0.930 . S
H2982 C2992 0.930 . S
H2983 C2995 0.929 . S
H2984 C2998 0.930 . S
H2985 C3000 0.960 . S
H2986 C3000 0.960 . S
H2987 C3000 0.960 . S
C2988 H2980 0.929 . S
C2988 C2989 1.377 . S
C2988 C2990 1.384 . S
C2989 C2988 1.377 . S
C2989 C2995 1.390 . S
C2990 H2981 0.930 . S
C2990 C2988 1.384 . S
C2990 C2991 1.372 . S
C2991 C2990 1.372 . S
C2991 C2992 1.400 . S
C2991 C2996 1.490 . S
C2992 H2982 0.930 . S
C2992 C2991 1.400 . S
C2992 C2995 1.386 . S
H2993 C3009 0.930 . S
H2994 C3010 0.931 . S
C2995 H2983 0.929 . S
C2995 C2989 1.390 . S
C2995 C2992 1.386 . S
C2996 C2991 1.490 . S
C2996 C2998 1.395 . S
C2996 C2999 1.403 . S
H2997 C3003 0.930 . S
C2998 H2984 0.930 . S
C2998 C2996 1.395 . S
C2998 C3001 1.403 . S
C2999 C2996 1.403 . S
C2999 C3000 1.524 . S
C2999 C3003 1.400 . S
C3000 H2985 0.960 . S
C3000 H2986 0.960 . S
C3000 H2987 0.960 . S
C3000 C2999 1.524 . S
C3001 C2998 1.403 . S
C3001 C3002 1.392 . S
C3001 C3005 1.495 . S
C3002 C3001 1.392 . S
C3002 C3003 1.385 . S
C3002 C3004 1.478 . S
C3003 H2997 0.930 . S
C3003 C2999 1.400 . S
C3003 C3002 1.385 . S
C3004 C3002 1.478 . S
C3004 C3006 1.381 . S
C3004 C3010 1.383 . S
C3005 C3001 1.495 . S
C3005 H3011 0.959 . S
C3005 H3012 0.961 . S
C3005 H3013 0.960 . S
C3006 C3004 1.381 . S
C3006 C3007 1.394 . S
C3006 H3014 0.930 . S
C3007 C3006 1.394 . S
C3007 C3008 1.383 . S
C3007 H3015 0.929 . S
C3008 C3007 1.383 . S
C3008 C3009 1.377 . S
C3009 H2993 0.930 . S
C3009 C3008 1.377 . S
C3009 C3010 1.379 . S
C3010 H2994 0.931 . S
C3010 C3004 1.383 . S
C3010 C3009 1.379 . S
H3011 C3005 0.959 . S
H3012 C3005 0.961 . S
H3013 C3005 0.960 . S
H3014 C3006 0.930 . S
H3015 C3007 0.929 . S
H3016 C3024 0.929 . S
H3017 C3026 0.930 . S
H3018 C3028 0.930 . S
H3019 C3031 0.929 . S
H3020 C3034 0.930 . S
H3021 C3036 0.960 . S
H3022 C3036 0.960 . S
H3023 C3036 0.960 . S
C3024 H3016 0.929 . S
C3024 C3025 1.377 1_455 S
C3024 C3026 1.384 . S
C3025 C3024 1.377 1_655 S
C3025 C3031 1.390 . S
C3026 H3017 0.930 . S
C3026 C3024 1.384 . S
C3026 C3027 1.372 . S
C3027 C3026 1.372 . S
C3027 C3028 1.400 . S
C3027 C3032 1.490 . S
C3028 H3018 0.930 . S
C3028 C3027 1.400 . S
C3028 C3031 1.386 1_455 S
H3029 C3045 0.930 . S
H3030 C3046 0.931 . S
C3031 H3019 0.929 . S
C3031 C3025 1.390 . S
C3031 C3028 1.386 1_655 S
C3032 C3027 1.490 . S
C3032 C3034 1.395 . S
C3032 C3035 1.403 . S
H3033 C3039 0.930 . S
C3034 H3020 0.930 . S
C3034 C3032 1.395 . S
C3034 C3037 1.403 . S
C3035 C3032 1.403 . S
C3035 C3036 1.524 . S
C3035 C3039 1.400 . S
C3036 H3021 0.960 . S
C3036 H3022 0.960 . S
C3036 H3023 0.960 . S
C3036 C3035 1.524 . S
C3037 C3034 1.403 . S
C3037 C3038 1.392 . S
C3037 C3041 1.495 . S
C3038 C3037 1.392 . S
C3038 C3039 1.385 . S
C3038 C3040 1.478 . S
C3039 H3033 0.930 . S
C3039 C3035 1.400 . S
C3039 C3038 1.385 . S
C3040 C3038 1.478 . S
C3040 C3042 1.381 . S
C3040 C3046 1.383 . S
C3041 C3037 1.495 . S
C3041 H3047 0.959 . S
C3041 H3048 0.961 . S
C3041 H3049 0.960 . S
C3042 C3040 1.381 . S
C3042 C3043 1.394 . S
C3042 H3050 0.930 . S
C3043 C3042 1.394 . S
C3043 C3044 1.383 . S
C3043 H3051 0.929 . S
C3044 C3043 1.383 . S
C3044 C3045 1.377 . S
C3045 H3029 0.930 . S
C3045 C3044 1.377 . S
C3045 C3046 1.379 . S
C3046 H3030 0.931 . S
C3046 C3040 1.383 . S
C3046 C3045 1.379 . S
H3047 C3041 0.959 . S
H3048 C3041 0.961 . S
H3049 C3041 0.960 . S
H3050 C3042 0.930 . S
H3051 C3043 0.929 . S
H3052 C3060 0.929 . S
H3053 C3062 0.930 . S
H3054 C3064 0.930 . S
H3055 C3067 0.929 . S
H3056 C3070 0.930 . S
H3057 C3072 0.960 . S
H3058 C3072 0.960 . S
H3059 C3072 0.960 . S
C3060 H3052 0.929 . S
C3060 C3061 1.377 . S
C3060 C3062 1.384 . S
C3061 C3060 1.377 . S
C3061 C3067 1.390 . S
C3062 H3053 0.930 . S
C3062 C3060 1.384 . S
C3062 C3063 1.372 1_556 S
C3063 C3062 1.372 1_554 S
C3063 C3064 1.400 . S
C3063 C3068 1.490 . S
C3064 H3054 0.930 . S
C3064 C3063 1.400 . S
C3064 C3067 1.386 1_554 S
H3065 C3081 0.930 . S
H3066 C3082 0.931 . S
C3067 H3055 0.929 . S
C3067 C3061 1.390 . S
C3067 C3064 1.386 1_556 S
C3068 C3063 1.490 . S
C3068 C3070 1.395 . S
C3068 C3071 1.403 . S
H3069 C3075 0.930 . S
C3070 H3056 0.930 . S
C3070 C3068 1.395 . S
C3070 C3073 1.403 . S
C3071 C3068 1.403 . S
C3071 C3072 1.524 . S
C3071 C3075 1.400 . S
C3072 H3057 0.960 . S
C3072 H3058 0.960 . S
C3072 H3059 0.960 . S
C3072 C3071 1.524 . S
C3073 C3070 1.403 . S
C3073 C3074 1.392 . S
C3073 C3077 1.495 . S
C3074 C3073 1.392 . S
C3074 C3075 1.385 . S
C3074 C3076 1.478 . S
C3075 H3069 0.930 . S
C3075 C3071 1.400 . S
C3075 C3074 1.385 . S
C3076 C3074 1.478 . S
C3076 C3078 1.381 . S
C3076 C3082 1.383 . S
C3077 C3073 1.495 . S
C3077 H3083 0.959 . S
C3077 H3084 0.961 . S
C3077 H3085 0.960 . S
C3078 C3076 1.381 . S
C3078 C3079 1.394 . S
C3078 H3086 0.930 . S
C3079 C3078 1.394 . S
C3079 C3080 1.383 . S
C3079 H3087 0.929 . S
C3080 C3079 1.383 . S
C3080 C3081 1.377 . S
C3081 H3065 0.930 . S
C3081 C3080 1.377 . S
C3081 C3082 1.379 . S
C3082 H3066 0.931 . S
C3082 C3076 1.383 . S
C3082 C3081 1.379 . S
H3083 C3077 0.959 . S
H3084 C3077 0.961 . S
H3085 C3077 0.960 . S
H3086 C3078 0.930 . S
H3087 C3079 0.929 . S
H3088 C3096 0.929 . S
H3089 C3098 0.930 . S
H3090 C3100 0.930 . S
H3091 C3103 0.929 . S
H3092 C3106 0.930 . S
H3093 C3108 0.960 . S
H3094 C3108 0.960 . S
H3095 C3108 0.960 . S
C3096 H3088 0.929 . S
C3096 C3097 1.377 . S
C3096 C3098 1.384 . S
C3097 C3096 1.377 . S
C3097 C3103 1.390 . S
C3098 H3089 0.930 . S
C3098 C3096 1.384 . S
C3098 C3099 1.372 . S
C3099 C3098 1.372 . S
C3099 C3100 1.400 . S
C3099 C3104 1.490 . S
C3100 H3090 0.930 . S
C3100 C3099 1.400 . S
C3100 C3103 1.386 . S
H3101 C3117 0.930 . S
H3102 C3118 0.931 . S
C3103 H3091 0.929 . S
C3103 C3097 1.390 . S
C3103 C3100 1.386 . S
C3104 C3099 1.490 . S
C3104 C3106 1.395 . S
C3104 C3107 1.403 . S
H3105 C3111 0.930 . S
C3106 H3092 0.930 . S
C3106 C3104 1.395 . S
C3106 C3109 1.403 . S
C3107 C3104 1.403 . S
C3107 C3108 1.524 . S
C3107 C3111 1.400 . S
C3108 H3093 0.960 . S
C3108 H3094 0.960 . S
C3108 H3095 0.960 . S
C3108 C3107 1.524 . S
C3109 C3106 1.403 . S
C3109 C3110 1.392 . S
C3109 C3113 1.495 . S
C3110 C3109 1.392 . S
C3110 C3111 1.385 . S
C3110 C3112 1.478 . S
C3111 H3105 0.930 . S
C3111 C3107 1.400 . S
C3111 C3110 1.385 . S
C3112 C3110 1.478 . S
C3112 C3114 1.381 . S
C3112 C3118 1.383 . S
C3113 C3109 1.495 . S
C3113 H3119 0.959 . S
C3113 H3120 0.961 . S
C3113 H3121 0.960 . S
C3114 C3112 1.381 . S
C3114 C3115 1.394 . S
C3114 H3122 0.930 . S
C3115 C3114 1.394 . S
C3115 C3116 1.383 . S
C3115 H3123 0.929 . S
C3116 C3115 1.383 . S
C3116 C3117 1.377 . S
C3117 H3101 0.930 . S
C3117 C3116 1.377 . S
C3117 C3118 1.379 . S
C3118 H3102 0.931 . S
C3118 C3112 1.383 . S
C3118 C3117 1.379 . S
H3119 C3113 0.959 . S
H3120 C3113 0.961 . S
H3121 C3113 0.960 . S
H3122 C3114 0.930 . S
H3123 C3115 0.929 . S
H3124 C3132 0.929 . S
H3125 C3134 0.930 . S
H3126 C3136 0.930 . S
H3127 C3139 0.929 . S
H3128 C3142 0.930 . S
H3129 C3144 0.960 . S
H3130 C3144 0.960 . S
H3131 C3144 0.960 . S
C3132 H3124 0.929 . S
C3132 C3133 1.377 . S
C3132 C3134 1.384 . S
C3133 C3132 1.377 . S
C3133 C3139 1.390 . S
C3134 H3125 0.930 . S
C3134 C3132 1.384 . S
C3134 C3135 1.372 . S
C3135 C3134 1.372 . S
C3135 C3136 1.400 . S
C3135 C3140 1.490 . S
C3136 H3126 0.930 . S
C3136 C3135 1.400 . S
C3136 C3139 1.386 . S
H3137 C3153 0.930 . S
H3138 C3154 0.931 . S
C3139 H3127 0.929 . S
C3139 C3133 1.390 . S
C3139 C3136 1.386 . S
C3140 C3135 1.490 . S
C3140 C3142 1.395 . S
C3140 C3143 1.403 . S
H3141 C3147 0.930 . S
C3142 H3128 0.930 . S
C3142 C3140 1.395 . S
C3142 C3145 1.403 . S
C3143 C3140 1.403 . S
C3143 C3144 1.524 . S
C3143 C3147 1.400 . S
C3144 H3129 0.960 . S
C3144 H3130 0.960 . S
C3144 H3131 0.960 . S
C3144 C3143 1.524 . S
C3145 C3142 1.403 . S
C3145 C3146 1.392 . S
C3145 C3149 1.495 . S
C3146 C3145 1.392 . S
C3146 C3147 1.385 . S
C3146 C3148 1.478 . S
C3147 H3141 0.930 . S
C3147 C3143 1.400 . S
C3147 C3146 1.385 . S
C3148 C3146 1.478 . S
C3148 C3150 1.381 . S
C3148 C3154 1.383 . S
C3149 C3145 1.495 . S
C3149 H3155 0.959 . S
C3149 H3156 0.961 . S
C3149 H3157 0.960 . S
C3150 C3148 1.381 . S
C3150 C3151 1.394 . S
C3150 H3158 0.930 . S
C3151 C3150 1.394 . S
C3151 C3152 1.383 . S
C3151 H3159 0.929 . S
C3152 C3151 1.383 . S
C3152 C3153 1.377 . S
C3153 H3137 0.930 . S
C3153 C3152 1.377 . S
C3153 C3154 1.379 . S
C3154 H3138 0.931 . S
C3154 C3148 1.383 . S
C3154 C3153 1.379 . S
H3155 C3149 0.959 . S
H3156 C3149 0.961 . S
H3157 C3149 0.960 . S
H3158 C3150 0.930 . S
H3159 C3151 0.929 . S
H3160 C3168 0.929 . S
H3161 C3170 0.930 . S
H3162 C3172 0.914 1_455 S
H3163 C3175 0.929 . S
H3164 C3178 0.930 . S
H3165 C3180 0.960 . S
H3166 C3180 0.960 . S
H3167 C3180 0.960 . S
C3168 H3160 0.929 . S
C3168 C3169 1.377 1_655 S
C3168 C3170 1.384 . S
C3169 C3168 1.377 1_455 S
C3169 C3175 1.390 . S
C3170 H3161 0.930 . S
C3170 C3168 1.384 . S
C3170 C3171 1.372 . S
C3171 C3170 1.372 . S
C3171 C3172 1.445 . S
C3171 C3176 1.490 . S
C3172 H3162 0.914 1_655 S
C3172 C3171 1.445 . S
C3172 C3175 1.358 1_655 S
H3173 C3189 0.930 . S
H3174 C3190 0.931 . S
C3175 H3163 0.929 . S
C3175 C3169 1.390 . S
C3175 C3172 1.358 1_455 S
C3176 C3171 1.490 . S
C3176 C3178 1.395 . S
C3176 C3179 1.403 . S
H3177 C3183 0.930 . S
C3178 H3164 0.930 . S
C3178 C3176 1.395 . S
C3178 C3181 1.403 . S
C3179 C3176 1.403 . S
C3179 C3180 1.524 . S
C3179 C3183 1.400 . S
C3180 H3165 0.960 . S
C3180 H3166 0.960 . S
C3180 H3167 0.960 . S
C3180 C3179 1.524 . S
C3181 C3178 1.403 . S
C3181 C3182 1.392 . S
C3181 C3185 1.495 . S
C3182 C3181 1.392 . S
C3182 C3183 1.385 . S
C3182 C3184 1.478 . S
C3183 H3177 0.930 . S
C3183 C3179 1.400 . S
C3183 C3182 1.385 . S
C3184 C3182 1.478 . S
C3184 C3186 1.381 . S
C3184 C3190 1.383 . S
C3185 C3181 1.495 . S
C3185 H3191 0.959 . S
C3185 H3192 0.961 . S
C3185 H3193 0.960 . S
C3186 C3184 1.381 . S
C3186 C3187 1.394 . S
C3186 H3194 0.930 . S
C3187 C3186 1.394 . S
C3187 C3188 1.383 . S
C3187 H3195 0.929 . S
C3188 C3187 1.383 . S
C3188 C3189 1.377 . S
C3189 H3173 0.930 . S
C3189 C3188 1.377 . S
C3189 C3190 1.379 . S
C3190 H3174 0.931 . S
C3190 C3184 1.383 . S
C3190 C3189 1.379 . S
H3191 C3185 0.959 . S
H3192 C3185 0.961 . S
H3193 C3185 0.960 . S
H3194 C3186 0.930 . S
H3195 C3187 0.929 . S
H3196 C3204 0.929 . S
H3197 C3206 0.930 . S
H3198 C3208 0.930 . S
H3199 C3211 0.929 . S
H3200 C3214 0.930 . S
H3201 C3216 0.960 . S
H3202 C3216 0.960 . S
H3203 C3216 0.960 . S
C3204 H3196 0.929 . S
C3204 C3205 1.377 . S
C3204 C3206 1.384 . S
C3205 C3204 1.377 . S
C3205 C3211 1.390 . S
C3206 H3197 0.930 . S
C3206 C3204 1.384 . S
C3206 C3207 1.372 . S
C3207 C3206 1.372 . S
C3207 C3208 1.400 . S
C3207 C3212 1.490 . S
C3208 H3198 0.930 . S
C3208 C3207 1.400 . S
C3208 C3211 1.386 . S
H3209 C3225 0.930 . S
H3210 C3226 0.931 . S
C3211 H3199 0.929 . S
C3211 C3205 1.390 . S
C3211 C3208 1.386 . S
C3212 C3207 1.490 . S
C3212 C3214 1.395 . S
C3212 C3215 1.403 . S
H3213 C3219 0.930 1_556 S
C3214 H3200 0.930 . S
C3214 C3212 1.395 . S
C3214 C3217 1.403 . S
C3215 C3212 1.403 . S
C3215 C3216 1.524 . S
C3215 C3219 1.400 . S
C3216 H3201 0.960 . S
C3216 H3202 0.960 . S
C3216 H3203 0.960 . S
C3216 C3215 1.524 . S
C3217 C3214 1.403 . S
C3217 C3218 1.392 . S
C3217 C3221 1.495 . S
C3218 C3217 1.392 . S
C3218 C3219 1.385 . S
C3218 C3220 1.478 1_554 S
C3219 H3213 0.930 1_554 S
C3219 C3215 1.400 . S
C3219 C3218 1.385 . S
C3220 C3218 1.478 1_556 S
C3220 C3222 1.381 . S
C3220 C3226 1.383 . S
C3221 C3217 1.495 . S
C3221 H3227 0.959 . S
C3221 H3228 0.961 . S
C3221 H3229 0.960 . S
C3222 C3220 1.381 . S
C3222 C3223 1.394 . S
C3222 H3230 0.930 . S
C3223 C3222 1.394 . S
C3223 C3224 1.383 . S
C3223 H3231 0.929 . S
C3224 C3223 1.383 . S
C3224 C3225 1.377 . S
C3225 H3209 0.930 . S
C3225 C3224 1.377 . S
C3225 C3226 1.379 . S
C3226 H3210 0.931 . S
C3226 C3220 1.383 . S
C3226 C3225 1.379 . S
H3227 C3221 0.959 . S
H3228 C3221 0.961 . S
H3229 C3221 0.960 . S
H3230 C3222 0.930 . S
H3231 C3223 0.929 . S
H3232 C3240 0.929 . S
H3233 C3242 0.930 . S
H3234 C3244 0.930 . S
H3235 C3247 0.929 . S
H3236 C3250 0.930 . S
H3237 C3252 0.960 . S
H3238 C3252 0.960 . S
H3239 C3252 0.960 . S
C3240 H3232 0.929 . S
C3240 C3241 1.377 . S
C3240 C3242 1.384 . S
C3241 C3240 1.377 . S
C3241 C3247 1.390 . S
C3242 H3233 0.930 . S
C3242 C3240 1.384 . S
C3242 C3243 1.372 . S
C3243 C3242 1.372 . S
C3243 C3244 1.400 . S
C3243 C3248 1.490 . S
C3244 H3234 0.930 . S
C3244 C3243 1.400 . S
C3244 C3247 1.386 . S
H3245 C3261 0.930 . S
H3246 C3262 0.931 . S
C3247 H3235 0.929 . S
C3247 C3241 1.390 . S
C3247 C3244 1.386 . S
C3248 C3243 1.490 . S
C3248 C3250 1.395 . S
C3248 C3251 1.403 . S
H3249 C3255 0.930 . S
C3250 H3236 0.930 . S
C3250 C3248 1.395 . S
C3250 C3253 1.403 . S
C3251 C3248 1.403 . S
C3251 C3252 1.524 . S
C3251 C3255 1.400 . S
C3252 H3237 0.960 . S
C3252 H3238 0.960 . S
C3252 H3239 0.960 . S
C3252 C3251 1.524 . S
C3253 C3250 1.403 . S
C3253 C3254 1.392 . S
C3253 C3257 1.495 . S
C3254 C3253 1.392 . S
C3254 C3255 1.385 . S
C3254 C3256 1.478 . S
C3255 H3249 0.930 . S
C3255 C3251 1.400 . S
C3255 C3254 1.385 . S
C3256 C3254 1.478 . S
C3256 C3258 1.381 . S
C3256 C3262 1.383 . S
C3257 C3253 1.495 . S
C3257 H3263 0.959 . S
C3257 H3264 0.961 . S
C3257 H3265 0.960 . S
C3258 C3256 1.381 . S
C3258 C3259 1.394 . S
C3258 H3266 0.930 . S
C3259 C3258 1.394 . S
C3259 C3260 1.383 . S
C3259 H3267 0.929 . S
C3260 C3259 1.383 . S
C3260 C3261 1.377 . S
C3261 H3245 0.930 . S
C3261 C3260 1.377 . S
C3261 C3262 1.379 . S
C3262 H3246 0.931 . S
C3262 C3256 1.383 . S
C3262 C3261 1.379 . S
H3263 C3257 0.959 . S
H3264 C3257 0.961 . S
H3265 C3257 0.960 . S
H3266 C3258 0.930 . S
H3267 C3259 0.929 . S
H3268 C3276 0.929 . S
H3269 C3278 0.930 . S
H3270 C3280 0.930 . S
H3271 C3283 0.929 . S
H3272 C3286 0.930 . S
H3273 C3288 0.960 . S
H3274 C3288 0.960 . S
H3275 C3288 0.960 . S
C3276 H3268 0.929 . S
C3276 C3277 1.377 . S
C3276 C3278 1.384 . S
C3277 C3276 1.377 . S
C3277 C3283 1.390 . S
C3278 H3269 0.930 . S
C3278 C3276 1.384 . S
C3278 C3279 1.372 . S
C3279 C3278 1.372 . S
C3279 C3280 1.400 . S
C3279 C3284 1.490 . S
C3280 H3270 0.930 . S
C3280 C3279 1.400 . S
C3280 C3283 1.386 . S
H3281 C3297 0.930 . S
H3282 C3298 0.931 . S
C3283 H3271 0.929 . S
C3283 C3277 1.390 . S
C3283 C3280 1.386 . S
C3284 C3279 1.490 . S
C3284 C3286 1.395 . S
C3284 C3287 1.403 . S
H3285 C3291 0.930 . S
C3286 H3272 0.930 . S
C3286 C3284 1.395 . S
C3286 C3289 1.403 . S
C3287 C3284 1.403 . S
C3287 C3288 1.524 . S
C3287 C3291 1.400 . S
C3288 H3273 0.960 . S
C3288 H3274 0.960 . S
C3288 H3275 0.960 . S
C3288 C3287 1.524 . S
C3289 C3286 1.403 . S
C3289 C3290 1.392 . S
C3289 C3293 1.495 . S
C3290 C3289 1.392 . S
C3290 C3291 1.385 . S
C3290 C3292 1.478 . S
C3291 H3285 0.930 . S
C3291 C3287 1.400 . S
C3291 C3290 1.385 . S
C3292 C3290 1.478 . S
C3292 C3294 1.381 . S
C3292 C3298 1.383 . S
C3293 C3289 1.495 . S
C3293 H3299 0.959 . S
C3293 H3300 0.961 . S
C3293 H3301 0.960 . S
C3294 C3292 1.381 . S
C3294 C3295 1.394 . S
C3294 H3302 0.930 . S
C3295 C3294 1.394 . S
C3295 C3296 1.383 . S
C3295 H3303 0.929 . S
C3296 C3295 1.383 . S
C3296 C3297 1.377 . S
C3297 H3281 0.930 . S
C3297 C3296 1.377 . S
C3297 C3298 1.379 . S
C3298 H3282 0.931 . S
C3298 C3292 1.383 . S
C3298 C3297 1.379 . S
H3299 C3293 0.959 . S
H3300 C3293 0.961 . S
H3301 C3293 0.960 . S
H3302 C3294 0.930 . S
H3303 C3295 0.929 . S
H3304 C3312 0.929 . S
H3305 C3314 0.930 . S
H3306 C3316 0.930 . S
H3307 C3319 0.929 . S
H3308 C3322 0.930 . S
H3309 C3324 0.960 . S
H3310 C3324 0.960 . S
H3311 C3324 0.960 . S
C3312 H3304 0.929 . S
C3312 C3313 1.377 1_655 S
C3312 C3314 1.384 . S
C3313 C3312 1.377 1_455 S
C3313 C3319 1.390 . S
C3314 H3305 0.930 . S
C3314 C3312 1.384 . S
C3314 C3315 1.372 . S
C3315 C3314 1.372 . S
C3315 C3316 1.400 1_655 S
C3315 C3320 1.490 . S
C3316 H3306 0.930 . S
C3316 C3315 1.400 1_455 S
C3316 C3319 1.386 . S
H3317 C3333 0.930 . S
H3318 C3334 0.931 . S
C3319 H3307 0.929 . S
C3319 C3313 1.390 . S
C3319 C3316 1.386 . S
C3320 C3315 1.490 . S
C3320 C3322 1.395 . S
C3320 C3323 1.403 . S
H3321 C3327 0.930 . S
C3322 H3308 0.930 . S
C3322 C3320 1.395 . S
C3322 C3325 1.403 . S
C3323 C3320 1.403 . S
C3323 C3324 1.524 . S
C3323 C3327 1.400 . S
C3324 H3309 0.960 . S
C3324 H3310 0.960 . S
C3324 H3311 0.960 . S
C3324 C3323 1.524 . S
C3325 C3322 1.403 . S
C3325 C3326 1.392 . S
C3325 C3329 1.495 . S
C3326 C3325 1.392 . S
C3326 C3327 1.385 . S
C3326 C3328 1.478 . S
C3327 H3321 0.930 . S
C3327 C3323 1.400 . S
C3327 C3326 1.385 . S
C3328 C3326 1.478 . S
C3328 C3330 1.381 . S
C3328 C3334 1.383 . S
C3329 C3325 1.495 . S
C3329 H3335 0.959 . S
C3329 H3336 0.961 . S
C3329 H3337 0.960 . S
C3330 C3328 1.381 . S
C3330 C3331 1.394 . S
C3330 H3338 0.930 . S
C3331 C3330 1.394 . S
C3331 C3332 1.383 . S
C3331 H3339 0.929 . S
C3332 C3331 1.383 . S
C3332 C3333 1.377 . S
C3333 H3317 0.930 . S
C3333 C3332 1.377 . S
C3333 C3334 1.379 . S
C3334 H3318 0.931 . S
C3334 C3328 1.383 . S
C3334 C3333 1.379 . S
H3335 C3329 0.959 . S
H3336 C3329 0.961 . S
H3337 C3329 0.960 . S
H3338 C3330 0.930 . S
H3339 C3331 0.929 . S
H3340 C3348 0.929 . S
H3341 C3350 0.930 . S
H3342 C3352 0.930 . S
H3343 C3355 0.929 . S
H3344 C3358 0.930 1_556 S
H3345 C3360 0.960 . S
H3346 C3360 0.960 . S
H3347 C3360 0.960 . S
C3348 H3340 0.929 . S
C3348 C3349 1.377 . S
C3348 C3350 1.384 . S
C3349 C3348 1.377 . S
C3349 C3355 1.390 . S
C3350 H3341 0.930 . S
C3350 C3348 1.384 . S
C3350 C3351 1.372 . S
C3351 C3350 1.372 . S
C3351 C3352 1.400 . S
C3351 C3356 1.490 1_556 S
C3352 H3342 0.930 . S
C3352 C3351 1.400 . S
C3352 C3355 1.386 . S
H3353 C3369 0.930 . S
H3354 C3370 0.931 . S
C3355 H3343 0.929 . S
C3355 C3349 1.390 . S
C3355 C3352 1.386 . S
C3356 C3351 1.490 1_554 S
C3356 C3358 1.395 . S
C3356 C3359 1.403 . S
H3357 C3363 0.930 . S
C3358 H3344 0.930 1_554 S
C3358 C3356 1.395 . S
C3358 C3361 1.403 . S
C3359 C3356 1.403 . S
C3359 C3360 1.524 . S
C3359 C3363 1.400 . S
C3360 H3345 0.960 . S
C3360 H3346 0.960 . S
C3360 H3347 0.960 . S
C3360 C3359 1.524 . S
C3361 C3358 1.403 . S
C3361 C3362 1.392 . S
C3361 C3365 1.495 . S
C3362 C3361 1.392 . S
C3362 C3363 1.385 . S
C3362 C3364 1.478 . S
C3363 H3357 0.930 . S
C3363 C3359 1.400 . S
C3363 C3362 1.385 . S
C3364 C3362 1.478 . S
C3364 C3366 1.381 . S
C3364 C3370 1.383 . S
C3365 C3361 1.495 . S
C3365 H3371 0.959 . S
C3365 H3372 0.961 . S
C3365 H3373 0.960 . S
C3366 C3364 1.381 . S
C3366 C3367 1.394 . S
C3366 H3374 0.930 . S
C3367 C3366 1.394 . S
C3367 C3368 1.383 . S
C3367 H3375 0.929 . S
C3368 C3367 1.383 . S
C3368 C3369 1.377 . S
C3369 H3353 0.930 . S
C3369 C3368 1.377 . S
C3369 C3370 1.379 . S
C3370 H3354 0.931 . S
C3370 C3364 1.383 . S
C3370 C3369 1.379 . S
H3371 C3365 0.959 . S
H3372 C3365 0.961 . S
H3373 C3365 0.960 . S
H3374 C3366 0.930 . S
H3375 C3367 0.929 . S
H3376 C3384 0.929 . S
H3377 C3386 0.930 . S
H3378 C3388 0.930 . S
H3379 C3391 0.929 . S
H3380 C3394 0.930 . S
H3381 C3396 0.960 . S
H3382 C3396 0.960 . S
H3383 C3396 0.960 . S
C3384 H3376 0.929 . S
C3384 C3385 1.377 . S
C3384 C3386 1.384 . S
C3385 C3384 1.377 . S
C3385 C3391 1.390 . S
C3386 H3377 0.930 . S
C3386 C3384 1.384 . S
C3386 C3387 1.372 . S
C3387 C3386 1.372 . S
C3387 C3388 1.400 . S
C3387 C3392 1.490 . S
C3388 H3378 0.930 . S
C3388 C3387 1.400 . S
C3388 C3391 1.386 . S
H3389 C3405 0.930 . S
H3390 C3406 0.931 . S
C3391 H3379 0.929 . S
C3391 C3385 1.390 . S
C3391 C3388 1.386 . S
C3392 C3387 1.490 . S
C3392 C3394 1.395 . S
C3392 C3395 1.403 . S
H3393 C3399 0.930 . S
C3394 H3380 0.930 . S
C3394 C3392 1.395 . S
C3394 C3397 1.403 . S
C3395 C3392 1.403 . S
C3395 C3396 1.524 . S
C3395 C3399 1.400 . S
C3396 H3381 0.960 . S
C3396 H3382 0.960 . S
C3396 H3383 0.960 . S
C3396 C3395 1.524 . S
C3397 C3394 1.403 . S
C3397 C3398 1.392 . S
C3397 C3401 1.495 . S
C3398 C3397 1.392 . S
C3398 C3399 1.385 . S
C3398 C3400 1.478 . S
C3399 H3393 0.930 . S
C3399 C3395 1.400 . S
C3399 C3398 1.385 . S
C3400 C3398 1.478 . S
C3400 C3402 1.381 . S
C3400 C3406 1.383 . S
C3401 C3397 1.495 . S
C3401 H3407 0.959 . S
C3401 H3408 0.961 . S
C3401 H3409 0.960 . S
C3402 C3400 1.381 . S
C3402 C3403 1.394 . S
C3402 H3410 0.930 . S
C3403 C3402 1.394 . S
C3403 C3404 1.383 . S
C3403 H3411 0.929 . S
C3404 C3403 1.383 . S
C3404 C3405 1.377 . S
C3405 H3389 0.930 . S
C3405 C3404 1.377 . S
C3405 C3406 1.379 . S
C3406 H3390 0.931 . S
C3406 C3400 1.383 . S
C3406 C3405 1.379 . S
H3407 C3401 0.959 . S
H3408 C3401 0.961 . S
H3409 C3401 0.960 . S
H3410 C3402 0.930 . S
H3411 C3403 0.929 . S
H3412 C3420 0.929 . S
H3413 C3422 0.930 . S
H3414 C3424 0.930 . S
H3415 C3427 0.929 . S
H3416 C3430 0.930 . S
H3417 C3432 0.960 . S
H3418 C3432 0.960 . S
H3419 C3432 0.960 . S
C3420 H3412 0.929 . S
C3420 C3421 1.377 . S
C3420 C3422 1.384 . S
C3421 C3420 1.377 . S
C3421 C3427 1.390 . S
C3422 H3413 0.930 . S
C3422 C3420 1.384 . S
C3422 C3423 1.372 . S
C3423 C3422 1.372 . S
C3423 C3424 1.400 . S
C3423 C3428 1.490 . S
C3424 H3414 0.930 . S
C3424 C3423 1.400 . S
C3424 C3427 1.386 . S
H3425 C3441 0.930 . S
H3426 C3442 0.931 . S
C3427 H3415 0.929 . S
C3427 C3421 1.390 . S
C3427 C3424 1.386 . S
C3428 C3423 1.490 . S
C3428 C3430 1.395 . S
C3428 C3431 1.403 . S
H3429 C3435 0.930 . S
C3430 H3416 0.930 . S
C3430 C3428 1.395 . S
C3430 C3433 1.403 . S
C3431 C3428 1.403 . S
C3431 C3432 1.524 . S
C3431 C3435 1.400 . S
C3432 H3417 0.960 . S
C3432 H3418 0.960 . S
C3432 H3419 0.960 . S
C3432 C3431 1.524 . S
C3433 C3430 1.403 . S
C3433 C3434 1.392 . S
C3433 C3437 1.495 . S
C3434 C3433 1.392 . S
C3434 C3435 1.385 . S
C3434 C3436 1.478 . S
C3435 H3429 0.930 . S
C3435 C3431 1.400 . S
C3435 C3434 1.385 . S
C3436 C3434 1.478 . S
C3436 C3438 1.381 . S
C3436 C3442 1.383 . S
C3437 C3433 1.495 . S
C3437 H3443 0.959 . S
C3437 H3444 0.961 . S
C3437 H3445 0.960 . S
C3438 C3436 1.381 . S
C3438 C3439 1.394 . S
C3438 H3446 0.930 . S
C3439 C3438 1.394 . S
C3439 C3440 1.383 . S
C3439 H3447 0.929 . S
C3440 C3439 1.383 . S
C3440 C3441 1.377 . S
C3441 H3425 0.930 . S
C3441 C3440 1.377 . S
C3441 C3442 1.379 . S
C3442 H3426 0.931 . S
C3442 C3436 1.383 . S
C3442 C3441 1.379 . S
H3443 C3437 0.959 . S
H3444 C3437 0.961 . S
H3445 C3437 0.960 . S
H3446 C3438 0.930 . S
H3447 C3439 0.929 . S
H3448 C3456 0.929 . S
H3449 C3458 0.930 . S
H3450 C3460 0.930 . S
H3451 C3463 0.929 . S
H3452 C3466 0.930 . S
H3453 C3468 0.960 . S
H3454 C3468 0.960 . S
H3455 C3468 0.960 . S
C3456 H3448 0.929 . S
C3456 C3457 1.377 . S
C3456 C3458 1.384 . S
C3457 C3456 1.377 . S
C3457 C3463 1.390 . S
C3458 H3449 0.930 . S
C3458 C3456 1.384 . S
C3458 C3459 1.372 . S
C3459 C3458 1.372 . S
C3459 C3460 1.400 . S
C3459 C3464 1.490 . S
C3460 H3450 0.930 . S
C3460 C3459 1.400 . S
C3460 C3463 1.386 . S
H3461 C3477 0.930 . S
H3462 C3478 0.931 1_655 S
C3463 H3451 0.929 . S
C3463 C3457 1.390 . S
C3463 C3460 1.386 . S
C3464 C3459 1.490 . S
C3464 C3466 1.395 . S
C3464 C3467 1.403 . S
H3465 C3471 0.930 . S
C3466 H3452 0.930 . S
C3466 C3464 1.395 . S
C3466 C3469 1.403 . S
C3467 C3464 1.403 . S
C3467 C3468 1.524 . S
C3467 C3471 1.400 . S
C3468 H3453 0.960 . S
C3468 H3454 0.960 . S
C3468 H3455 0.960 . S
C3468 C3467 1.524 . S
C3469 C3466 1.403 . S
C3469 C3470 1.392 . S
C3469 C3473 1.495 . S
C3470 C3469 1.392 . S
C3470 C3471 1.385 . S
C3470 C3472 1.478 . S
C3471 H3465 0.930 . S
C3471 C3467 1.400 . S
C3471 C3470 1.385 . S
C3472 C3470 1.478 . S
C3472 C3474 1.381 . S
C3472 C3478 1.383 . S
C3473 C3469 1.495 . S
C3473 H3479 0.959 . S
C3473 H3480 0.961 . S
C3473 H3481 0.960 . S
C3474 C3472 1.381 . S
C3474 C3475 1.394 . S
C3474 H3482 0.930 . S
C3475 C3474 1.394 . S
C3475 C3476 1.383 1_455 S
C3475 H3483 0.929 . S
C3476 C3475 1.383 1_655 S
C3476 C3477 1.377 . S
C3477 H3461 0.930 . S
C3477 C3476 1.377 . S
C3477 C3478 1.379 1_655 S
C3478 H3462 0.931 1_455 S
C3478 C3472 1.383 . S
C3478 C3477 1.379 1_455 S
H3479 C3473 0.959 . S
H3480 C3473 0.961 . S
H3481 C3473 0.960 . S
H3482 C3474 0.930 . S
H3483 C3475 0.929 . S
H3484 C3492 0.929 . S
H3485 C3494 0.930 . S
H3486 C3496 0.930 . S
H3487 C3499 0.929 . S
H3488 C3502 0.930 . S
H3489 C3504 0.960 . S
H3490 C3504 0.960 . S
H3491 C3504 0.960 . S
C3492 H3484 0.929 . S
C3492 C3493 1.377 . S
C3492 C3494 1.384 1_556 S
C3493 C3492 1.377 . S
C3493 C3499 1.390 . S
C3494 H3485 0.930 . S
C3494 C3492 1.384 1_554 S
C3494 C3495 1.372 . S
C3495 C3494 1.372 . S
C3495 C3496 1.400 . S
C3495 C3500 1.490 . S
C3496 H3486 0.930 . S
C3496 C3495 1.400 . S
C3496 C3499 1.386 1_554 S
H3497 C3513 0.930 . S
H3498 C3514 0.931 . S
C3499 H3487 0.929 . S
C3499 C3493 1.390 . S
C3499 C3496 1.386 1_556 S
C3500 C3495 1.490 . S
C3500 C3502 1.395 . S
C3500 C3503 1.403 . S
H3501 C3507 0.930 . S
C3502 H3488 0.930 . S
C3502 C3500 1.395 . S
C3502 C3505 1.403 . S
C3503 C3500 1.403 . S
C3503 C3504 1.524 . S
C3503 C3507 1.400 . S
C3504 H3489 0.960 . S
C3504 H3490 0.960 . S
C3504 H3491 0.960 . S
C3504 C3503 1.524 . S
C3505 C3502 1.403 . S
C3505 C3506 1.392 . S
C3505 C3509 1.495 . S
C3506 C3505 1.392 . S
C3506 C3507 1.385 . S
C3506 C3508 1.478 . S
C3507 H3501 0.930 . S
C3507 C3503 1.400 . S
C3507 C3506 1.385 . S
C3508 C3506 1.478 . S
C3508 C3510 1.381 . S
C3508 C3514 1.383 . S
C3509 C3505 1.495 . S
C3509 H3515 0.959 . S
C3509 H3516 0.961 . S
C3509 H3517 0.960 . S
C3510 C3508 1.381 . S
C3510 C3511 1.394 . S
C3510 H3518 0.930 . S
C3511 C3510 1.394 . S
C3511 C3512 1.383 . S
C3511 H3519 0.929 . S
C3512 C3511 1.383 . S
C3512 C3513 1.377 . S
C3513 H3497 0.930 . S
C3513 C3512 1.377 . S
C3513 C3514 1.379 . S
C3514 H3498 0.931 . S
C3514 C3508 1.383 . S
C3514 C3513 1.379 . S
H3515 C3509 0.959 . S
H3516 C3509 0.961 . S
H3517 C3509 0.960 . S
H3518 C3510 0.930 . S
H3519 C3511 0.929 . S
H3520 C3528 0.929 . S
H3521 C3530 0.930 . S
H3522 C3532 0.930 . S
H3523 C3535 0.929 . S
H3524 C3538 0.930 . S
H3525 C3540 0.960 . S
H3526 C3540 0.960 . S
H3527 C3540 0.960 . S
C3528 H3520 0.929 . S
C3528 C3529 1.377 . S
C3528 C3530 1.384 . S
C3529 C3528 1.377 . S
C3529 C3535 1.390 . S
C3530 H3521 0.930 . S
C3530 C3528 1.384 . S
C3530 C3531 1.372 . S
C3531 C3530 1.372 . S
C3531 C3532 1.400 . S
C3531 C3536 1.490 . S
C3532 H3522 0.930 . S
C3532 C3531 1.400 . S
C3532 C3535 1.386 . S
H3533 C3549 0.930 . S
H3534 C3550 0.931 . S
C3535 H3523 0.929 . S
C3535 C3529 1.390 . S
C3535 C3532 1.386 . S
C3536 C3531 1.490 . S
C3536 C3538 1.395 . S
C3536 C3539 1.403 . S
H3537 C3543 0.930 . S
C3538 H3524 0.930 . S
C3538 C3536 1.395 . S
C3538 C3541 1.403 . S
C3539 C3536 1.403 . S
C3539 C3540 1.524 . S
C3539 C3543 1.400 . S
C3540 H3525 0.960 . S
C3540 H3526 0.960 . S
C3540 H3527 0.960 . S
C3540 C3539 1.524 . S
C3541 C3538 1.403 . S
C3541 C3542 1.392 . S
C3541 C3545 1.495 . S
C3542 C3541 1.392 . S
C3542 C3543 1.385 . S
C3542 C3544 1.478 . S
C3543 H3537 0.930 . S
C3543 C3539 1.400 . S
C3543 C3542 1.385 . S
C3544 C3542 1.478 . S
C3544 C3546 1.381 . S
C3544 C3550 1.383 . S
C3545 C3541 1.495 . S
C3545 H3551 0.959 . S
C3545 H3552 0.961 . S
C3545 H3553 0.960 . S
C3546 C3544 1.381 . S
C3546 C3547 1.394 . S
C3546 H3554 0.930 . S
C3547 C3546 1.394 . S
C3547 C3548 1.383 . S
C3547 H3555 0.929 . S
C3548 C3547 1.383 . S
C3548 C3549 1.377 . S
C3549 H3533 0.930 . S
C3549 C3548 1.377 . S
C3549 C3550 1.379 . S
C3550 H3534 0.931 . S
C3550 C3544 1.383 . S
C3550 C3549 1.379 . S
H3551 C3545 0.959 . S
H3552 C3545 0.961 . S
H3553 C3545 0.960 . S
H3554 C3546 0.930 . S
H3555 C3547 0.929 . S
H3556 C3564 0.929 . S
H3557 C3566 0.930 1_554 S
H3558 C3568 0.930 . S
H3559 C3571 0.929 . S
H3560 C3574 0.930 . S
H3561 C3576 0.960 . S
H3562 C3576 0.960 . S
H3563 C3576 0.960 . S
C3564 H3556 0.929 . S
C3564 C3565 1.377 . S
C3564 C3566 1.384 . S
C3565 C3564 1.377 . S
C3565 C3571 1.390 . S
C3566 H3557 0.930 1_556 S
C3566 C3564 1.384 . S
C3566 C3567 1.372 . S
C3567 C3566 1.372 . S
C3567 C3568 1.400 . S
C3567 C3572 1.490 1_556 S
C3568 H3558 0.930 . S
C3568 C3567 1.400 . S
C3568 C3571 1.386 . S
H3569 C3585 0.930 . S
H3570 C3586 0.931 . S
C3571 H3559 0.929 . S
C3571 C3565 1.390 . S
C3571 C3568 1.386 . S
C3572 C3567 1.490 1_554 S
C3572 C3574 1.395 . S
C3572 C3575 1.403 . S
H3573 C3579 0.930 . S
C3574 H3560 0.930 . S
C3574 C3572 1.395 . S
C3574 C3577 1.403 . S
C3575 C3572 1.403 . S
C3575 C3576 1.524 . S
C3575 C3579 1.400 . S
C3576 H3561 0.960 . S
C3576 H3562 0.960 . S
C3576 H3563 0.960 . S
C3576 C3575 1.524 . S
C3577 C3574 1.403 . S
C3577 C3578 1.392 . S
C3577 C3581 1.495 . S
C3578 C3577 1.392 . S
C3578 C3579 1.385 . S
C3578 C3580 1.478 . S
C3579 H3573 0.930 . S
C3579 C3575 1.400 . S
C3579 C3578 1.385 . S
C3580 C3578 1.478 . S
C3580 C3582 1.381 . S
C3580 C3586 1.383 . S
C3581 C3577 1.495 . S
C3581 H3587 0.959 . S
C3581 H3588 0.961 . S
C3581 H3589 0.960 . S
C3582 C3580 1.381 . S
C3582 C3583 1.394 . S
C3582 H3590 0.930 . S
C3583 C3582 1.394 . S
C3583 C3584 1.383 . S
C3583 H3591 0.929 . S
C3584 C3583 1.383 . S
C3584 C3585 1.377 . S
C3585 H3569 0.930 . S
C3585 C3584 1.377 . S
C3585 C3586 1.379 . S
C3586 H3570 0.931 . S
C3586 C3580 1.383 . S
C3586 C3585 1.379 . S
H3587 C3581 0.959 . S
H3588 C3581 0.961 . S
H3589 C3581 0.960 . S
H3590 C3582 0.930 . S
H3591 C3583 0.929 . S
H3592 C3600 0.929 . S
H3593 C3602 0.930 . S
H3594 C3604 0.930 . S
H3595 C3607 0.929 . S
H3596 C3610 0.930 . S
H3597 C3612 0.960 . S
H3598 C3612 0.960 . S
H3599 C3612 0.960 . S
C3600 H3592 0.929 . S
C3600 C3601 1.377 . S
C3600 C3602 1.384 . S
C3601 C3600 1.377 . S
C3601 C3607 1.390 . S
C3602 H3593 0.930 . S
C3602 C3600 1.384 . S
C3602 C3603 1.372 . S
C3603 C3602 1.372 . S
C3603 C3604 1.400 . S
C3603 C3608 1.490 . S
C3604 H3594 0.930 . S
C3604 C3603 1.400 . S
C3604 C3607 1.386 . S
H3605 C3621 0.930 . S
H3606 C3622 0.931 . S
C3607 H3595 0.929 . S
C3607 C3601 1.390 . S
C3607 C3604 1.386 . S
C3608 C3603 1.490 . S
C3608 C3610 1.395 . S
C3608 C3611 1.403 . S
H3609 C3615 0.930 . S
C3610 H3596 0.930 . S
C3610 C3608 1.395 . S
C3610 C3613 1.403 . S
C3611 C3608 1.403 . S
C3611 C3612 1.524 . S
C3611 C3615 1.400 . S
C3612 H3597 0.960 . S
C3612 H3598 0.960 . S
C3612 H3599 0.960 . S
C3612 C3611 1.524 . S
C3613 C3610 1.403 . S
C3613 C3614 1.392 . S
C3613 C3617 1.495 . S
C3614 C3613 1.392 . S
C3614 C3615 1.385 . S
C3614 C3616 1.478 . S
C3615 H3609 0.930 . S
C3615 C3611 1.400 . S
C3615 C3614 1.385 . S
C3616 C3614 1.478 . S
C3616 C3618 1.381 . S
C3616 C3622 1.383 . S
C3617 C3613 1.495 . S
C3617 H3623 0.959 . S
C3617 H3624 0.961 . S
C3617 H3625 0.960 . S
C3618 C3616 1.381 . S
C3618 C3619 1.394 . S
C3618 H3626 0.930 . S
C3619 C3618 1.394 . S
C3619 C3620 1.383 . S
C3619 H3627 0.929 . S
C3620 C3619 1.383 . S
C3620 C3621 1.377 . S
C3621 H3605 0.930 . S
C3621 C3620 1.377 . S
C3621 C3622 1.379 . S
C3622 H3606 0.931 . S
C3622 C3616 1.383 . S
C3622 C3621 1.379 . S
H3623 C3617 0.959 . S
H3624 C3617 0.961 . S
H3625 C3617 0.960 . S
H3626 C3618 0.930 . S
H3627 C3619 0.929 . S
H3628 C3636 0.929 . S
H3629 C3638 0.930 . S
H3630 C3640 0.930 . S
H3631 C3643 0.929 . S
H3632 C3646 0.930 . S
H3633 C3648 0.960 . S
H3634 C3648 0.960 . S
H3635 C3648 0.960 . S
C3636 H3628 0.929 . S
C3636 C3637 1.377 . S
C3636 C3638 1.384 . S
C3637 C3636 1.377 . S
C3637 C3643 1.390 . S
C3638 H3629 0.930 . S
C3638 C3636 1.384 . S
C3638 C3639 1.372 . S
C3639 C3638 1.372 . S
C3639 C3640 1.400 . S
C3639 C3644 1.490 . S
C3640 H3630 0.930 . S
C3640 C3639 1.400 . S
C3640 C3643 1.386 . S
H3641 C3657 0.930 . S
H3642 C3658 0.931 . S
C3643 H3631 0.929 . S
C3643 C3637 1.390 . S
C3643 C3640 1.386 . S
C3644 C3639 1.490 . S
C3644 C3646 1.395 . S
C3644 C3647 1.403 . S
H3645 C3651 0.930 . S
C3646 H3632 0.930 . S
C3646 C3644 1.395 . S
C3646 C3649 1.403 . S
C3647 C3644 1.403 . S
C3647 C3648 1.524 . S
C3647 C3651 1.400 . S
C3648 H3633 0.960 . S
C3648 H3634 0.960 . S
C3648 H3635 0.960 . S
C3648 C3647 1.524 . S
C3649 C3646 1.403 . S
C3649 C3650 1.392 . S
C3649 C3653 1.495 . S
C3650 C3649 1.392 . S
C3650 C3651 1.385 . S
C3650 C3652 1.478 . S
C3651 H3645 0.930 . S
C3651 C3647 1.400 . S
C3651 C3650 1.385 . S
C3652 C3650 1.478 . S
C3652 C3654 1.381 . S
C3652 C3658 1.383 . S
C3653 C3649 1.495 . S
C3653 H3659 0.959 . S
C3653 H3660 0.961 . S
C3653 H3661 0.960 . S
C3654 C3652 1.381 . S
C3654 C3655 1.394 . S
C3654 H3662 0.930 . S
C3655 C3654 1.394 . S
C3655 C3656 1.383 . S
C3655 H3663 0.929 . S
C3656 C3655 1.383 . S
C3656 C3657 1.377 . S
C3657 H3641 0.930 . S
C3657 C3656 1.377 . S
C3657 C3658 1.379 . S
C3658 H3642 0.931 . S
C3658 C3652 1.383 . S
C3658 C3657 1.379 . S
H3659 C3653 0.959 . S
H3660 C3653 0.961 . S
H3661 C3653 0.960 . S
H3662 C3654 0.930 . S
H3663 C3655 0.929 . S
H3664 C3672 0.929 . S
H3665 C3674 0.930 . S
H3666 C3676 0.930 . S
H3667 C3679 0.929 . S
H3668 C3682 0.930 . S
H3669 C3684 0.960 . S
H3670 C3684 0.960 . S
H3671 C3684 0.960 . S
C3672 H3664 0.929 . S
C3672 C3673 1.377 . S
C3672 C3674 1.384 . S
C3673 C3672 1.377 . S
C3673 C3679 1.390 . S
C3674 H3665 0.930 . S
C3674 C3672 1.384 . S
C3674 C3675 1.372 . S
C3675 C3674 1.372 . S
C3675 C3676 1.400 . S
C3675 C3680 1.490 . S
C3676 H3666 0.930 . S
C3676 C3675 1.400 . S
C3676 C3679 1.386 . S
H3677 C3693 0.930 . S
H3678 C3694 0.931 . S
C3679 H3667 0.929 . S
C3679 C3673 1.390 . S
C3679 C3676 1.386 . S
C3680 C3675 1.490 . S
C3680 C3682 1.395 . S
C3680 C3683 1.403 . S
H3681 C3687 0.930 . S
C3682 H3668 0.930 . S
C3682 C3680 1.395 . S
C3682 C3685 1.403 . S
C3683 C3680 1.403 . S
C3683 C3684 1.524 . S
C3683 C3687 1.400 . S
C3684 H3669 0.960 . S
C3684 H3670 0.960 . S
C3684 H3671 0.960 . S
C3684 C3683 1.524 . S
C3685 C3682 1.403 . S
C3685 C3686 1.392 . S
C3685 C3689 1.495 . S
C3686 C3685 1.392 . S
C3686 C3687 1.385 . S
C3686 C3688 1.478 . S
C3687 H3681 0.930 . S
C3687 C3683 1.400 . S
C3687 C3686 1.385 . S
C3688 C3686 1.478 . S
C3688 C3690 1.381 . S
C3688 C3694 1.383 . S
C3689 C3685 1.495 . S
C3689 H3695 0.959 . S
C3689 H3696 0.961 . S
C3689 H3697 0.960 . S
C3690 C3688 1.381 . S
C3690 C3691 1.394 . S
C3690 H3698 0.930 . S
C3691 C3690 1.394 . S
C3691 C3692 1.383 . S
C3691 H3699 0.929 . S
C3692 C3691 1.383 . S
C3692 C3693 1.377 . S
C3693 H3677 0.930 . S
C3693 C3692 1.377 . S
C3693 C3694 1.379 . S
C3694 H3678 0.931 . S
C3694 C3688 1.383 . S
C3694 C3693 1.379 . S
H3695 C3689 0.959 . S
H3696 C3689 0.961 . S
H3697 C3689 0.960 . S
H3698 C3690 0.930 . S
H3699 C3691 0.929 . S
H3700 C3708 0.929 . S
H3701 C3710 0.930 . S
H3702 C3712 0.930 1_554 S
H3703 C3715 0.929 . S
H3704 C3718 0.930 . S
H3705 C3720 0.960 . S
H3706 C3720 0.960 . S
H3707 C3720 0.960 . S
C3708 H3700 0.929 . S
C3708 C3709 1.377 . S
C3708 C3710 1.384 . S
C3709 C3708 1.377 . S
C3709 C3715 1.390 . S
C3710 H3701 0.930 . S
C3710 C3708 1.384 . S
C3710 C3711 1.372 . S
C3711 C3710 1.372 . S
C3711 C3712 1.400 . S
C3711 C3716 1.490 1_556 S
C3712 H3702 0.930 1_556 S
C3712 C3711 1.400 . S
C3712 C3715 1.386 . S
H3713 C3729 0.930 . S
H3714 C3730 0.931 . S
C3715 H3703 0.929 . S
C3715 C3709 1.390 . S
C3715 C3712 1.386 . S
C3716 C3711 1.490 1_554 S
C3716 C3718 1.395 . S
C3716 C3719 1.403 . S
H3717 C3723 0.930 . S
C3718 H3704 0.930 . S
C3718 C3716 1.395 . S
C3718 C3721 1.403 . S
C3719 C3716 1.403 . S
C3719 C3720 1.524 . S
C3719 C3723 1.400 . S
C3720 H3705 0.960 . S
C3720 H3706 0.960 . S
C3720 H3707 0.960 . S
C3720 C3719 1.524 . S
C3721 C3718 1.403 . S
C3721 C3722 1.392 . S
C3721 C3725 1.495 . S
C3722 C3721 1.392 . S
C3722 C3723 1.385 . S
C3722 C3724 1.478 . S
C3723 H3717 0.930 . S
C3723 C3719 1.400 . S
C3723 C3722 1.385 . S
C3724 C3722 1.478 . S
C3724 C3726 1.381 . S
C3724 C3730 1.383 . S
C3725 C3721 1.495 . S
C3725 H3731 0.959 . S
C3725 H3732 0.961 . S
C3725 H3733 0.960 . S
C3726 C3724 1.381 . S
C3726 C3727 1.394 . S
C3726 H3734 0.930 . S
C3727 C3726 1.394 . S
C3727 C3728 1.383 . S
C3727 H3735 0.929 . S
C3728 C3727 1.383 . S
C3728 C3729 1.377 . S
C3729 H3713 0.930 . S
C3729 C3728 1.377 . S
C3729 C3730 1.379 . S
C3730 H3714 0.931 . S
C3730 C3724 1.383 . S
C3730 C3729 1.379 . S
H3731 C3725 0.959 . S
H3732 C3725 0.961 . S
H3733 C3725 0.960 . S
H3734 C3726 0.930 . S
H3735 C3727 0.929 . S
H3736 C3744 0.929 . S
H3737 C3746 0.930 . S
H3738 C3748 0.930 . S
H3739 C3751 0.929 . S
H3740 C3754 0.930 . S
H3741 C3756 0.960 . S
H3742 C3756 0.960 . S
H3743 C3756 0.960 . S
C3744 H3736 0.929 . S
C3744 C3745 1.377 . S
C3744 C3746 1.384 . S
C3745 C3744 1.377 . S
C3745 C3751 1.390 . S
C3746 H3737 0.930 . S
C3746 C3744 1.384 . S
C3746 C3747 1.372 . S
C3747 C3746 1.372 . S
C3747 C3748 1.400 . S
C3747 C3752 1.490 . S
C3748 H3738 0.930 . S
C3748 C3747 1.400 . S
C3748 C3751 1.386 . S
H3749 C3765 0.930 . S
H3750 C3766 0.931 . S
C3751 H3739 0.929 . S
C3751 C3745 1.390 . S
C3751 C3748 1.386 . S
C3752 C3747 1.490 . S
C3752 C3754 1.395 . S
C3752 C3755 1.403 . S
H3753 C3759 0.930 . S
C3754 H3740 0.930 . S
C3754 C3752 1.395 . S
C3754 C3757 1.403 . S
C3755 C3752 1.403 . S
C3755 C3756 1.524 . S
C3755 C3759 1.400 . S
C3756 H3741 0.960 . S
C3756 H3742 0.960 . S
C3756 H3743 0.960 . S
C3756 C3755 1.524 . S
C3757 C3754 1.403 . S
C3757 C3758 1.392 . S
C3757 C3761 1.495 . S
C3758 C3757 1.392 . S
C3758 C3759 1.385 . S
C3758 C3760 1.478 . S
C3759 H3753 0.930 . S
C3759 C3755 1.400 . S
C3759 C3758 1.385 . S
C3760 C3758 1.478 . S
C3760 C3762 1.381 . S
C3760 C3766 1.383 . S
C3761 C3757 1.495 . S
C3761 H3767 0.959 . S
C3761 H3768 0.961 . S
C3761 H3769 0.960 . S
C3762 C3760 1.381 . S
C3762 C3763 1.394 . S
C3762 H3770 0.930 . S
C3763 C3762 1.394 . S
C3763 C3764 1.383 . S
C3763 H3771 0.929 . S
C3764 C3763 1.383 . S
C3764 C3765 1.377 . S
C3765 H3749 0.930 . S
C3765 C3764 1.377 . S
C3765 C3766 1.379 . S
C3766 H3750 0.931 . S
C3766 C3760 1.383 . S
C3766 C3765 1.379 . S
H3767 C3761 0.959 . S
H3768 C3761 0.961 . S
H3769 C3761 0.960 . S
H3770 C3762 0.930 . S
H3771 C3763 0.929 . S
H3772 C3780 0.929 . S
H3773 C3782 0.930 . S
H3774 C3784 0.930 . S
H3775 C3787 0.929 . S
H3776 C3790 0.930 . S
H3777 C3792 0.960 . S
H3778 C3792 0.960 . S
H3779 C3792 0.960 . S
C3780 H3772 0.929 . S
C3780 C3781 1.377 . S
C3780 C3782 1.384 . S
C3781 C3780 1.377 . S
C3781 C3787 1.390 . S
C3782 H3773 0.930 . S
C3782 C3780 1.384 . S
C3782 C3783 1.372 . S
C3783 C3782 1.372 . S
C3783 C3784 1.400 . S
C3783 C3788 1.490 . S
C3784 H3774 0.930 . S
C3784 C3783 1.400 . S
C3784 C3787 1.386 . S
H3785 C3801 0.930 . S
H3786 C3802 0.931 . S
C3787 H3775 0.929 . S
C3787 C3781 1.390 . S
C3787 C3784 1.386 . S
C3788 C3783 1.490 . S
C3788 C3790 1.395 . S
C3788 C3791 1.403 . S
H3789 C3795 0.930 . S
C3790 H3776 0.930 . S
C3790 C3788 1.395 . S
C3790 C3793 1.403 . S
C3791 C3788 1.403 . S
C3791 C3792 1.524 . S
C3791 C3795 1.400 . S
C3792 H3777 0.960 . S
C3792 H3778 0.960 . S
C3792 H3779 0.960 . S
C3792 C3791 1.524 . S
C3793 C3790 1.403 . S
C3793 C3794 1.392 . S
C3793 C3797 1.495 . S
C3794 C3793 1.392 . S
C3794 C3795 1.385 . S
C3794 C3796 1.478 . S
C3795 H3789 0.930 . S
C3795 C3791 1.400 . S
C3795 C3794 1.385 . S
C3796 C3794 1.478 . S
C3796 C3798 1.381 . S
C3796 C3802 1.383 . S
C3797 C3793 1.495 . S
C3797 H3803 0.959 . S
C3797 H3804 0.961 . S
C3797 H3805 0.960 . S
C3798 C3796 1.381 . S
C3798 C3799 1.394 . S
C3798 H3806 0.930 . S
C3799 C3798 1.394 . S
C3799 C3800 1.383 . S
C3799 H3807 0.929 . S
C3800 C3799 1.383 . S
C3800 C3801 1.377 . S
C3801 H3785 0.930 . S
C3801 C3800 1.377 . S
C3801 C3802 1.379 . S
C3802 H3786 0.931 . S
C3802 C3796 1.383 . S
C3802 C3801 1.379 . S
H3803 C3797 0.959 . S
H3804 C3797 0.961 . S
H3805 C3797 0.960 . S
H3806 C3798 0.930 . S
H3807 C3799 0.929 . S
H3808 C3816 0.929 . S
H3809 C3818 0.930 . S
H3810 C3820 0.930 . S
H3811 C3823 0.929 . S
H3812 C3826 0.930 . S
H3813 C3828 0.960 . S
H3814 C3828 0.960 . S
H3815 C3828 0.960 . S
C3816 H3808 0.929 . S
C3816 C3817 1.377 . S
C3816 C3818 1.384 . S
C3817 C3816 1.377 . S
C3817 C3823 1.390 . S
C3818 H3809 0.930 . S
C3818 C3816 1.384 . S
C3818 C3819 1.372 . S
C3819 C3818 1.372 . S
C3819 C3820 1.400 . S
C3819 C3824 1.490 . S
C3820 H3810 0.930 . S
C3820 C3819 1.400 . S
C3820 C3823 1.386 . S
H3821 C3837 0.930 . S
H3822 C3838 0.931 . S
C3823 H3811 0.929 . S
C3823 C3817 1.390 . S
C3823 C3820 1.386 . S
C3824 C3819 1.490 . S
C3824 C3826 1.395 . S
C3824 C3827 1.403 . S
H3825 C3831 0.930 . S
C3826 H3812 0.930 . S
C3826 C3824 1.395 . S
C3826 C3829 1.403 . S
C3827 C3824 1.403 . S
C3827 C3828 1.524 . S
C3827 C3831 1.400 . S
C3828 H3813 0.960 . S
C3828 H3814 0.960 . S
C3828 H3815 0.960 . S
C3828 C3827 1.524 . S
C3829 C3826 1.403 . S
C3829 C3830 1.392 . S
C3829 C3833 1.495 . S
C3830 C3829 1.392 . S
C3830 C3831 1.385 . S
C3830 C3832 1.478 . S
C3831 H3825 0.930 . S
C3831 C3827 1.400 . S
C3831 C3830 1.385 . S
C3832 C3830 1.478 . S
C3832 C3834 1.381 . S
C3832 C3838 1.383 1_565 S
C3833 C3829 1.495 . S
C3833 H3839 0.959 . S
C3833 H3840 0.961 . S
C3833 H3841 0.960 . S
C3834 C3832 1.381 . S
C3834 C3835 1.394 . S
C3834 H3842 0.930 . S
C3835 C3834 1.394 . S
C3835 C3836 1.383 1_565 S
C3835 H3843 0.929 . S
C3836 C3835 1.383 1_545 S
C3836 C3837 1.377 . S
C3837 H3821 0.930 . S
C3837 C3836 1.377 . S
C3837 C3838 1.379 . S
C3838 H3822 0.931 . S
C3838 C3832 1.383 1_545 S
C3838 C3837 1.379 . S
H3839 C3833 0.959 . S
H3840 C3833 0.961 . S
H3841 C3833 0.960 . S
H3842 C3834 0.930 . S
H3843 C3835 0.929 . S
H3844 C3852 0.929 . S
H3845 C3854 0.930 . S
H3846 C3856 0.930 . S
H3847 C3859 0.929 . S
H3848 C3862 0.930 . S
H3849 C3864 0.960 . S
H3850 C3864 0.960 . S
H3851 C3864 0.960 . S
C3852 H3844 0.929 . S
C3852 C3853 1.377 . S
C3852 C3854 1.384 . S
C3853 C3852 1.377 . S
C3853 C3859 1.390 . S
C3854 H3845 0.930 . S
C3854 C3852 1.384 . S
C3854 C3855 1.372 . S
C3855 C3854 1.372 . S
C3855 C3856 1.400 . S
C3855 C3860 1.490 . S
C3856 H3846 0.930 . S
C3856 C3855 1.400 . S
C3856 C3859 1.386 . S
H3857 C3873 0.930 . S
H3858 C3874 0.931 . S
C3859 H3847 0.929 . S
C3859 C3853 1.390 . S
C3859 C3856 1.386 . S
C3860 C3855 1.490 . S
C3860 C3862 1.395 . S
C3860 C3863 1.403 . S
H3861 C3867 0.930 . S
C3862 H3848 0.930 . S
C3862 C3860 1.395 . S
C3862 C3865 1.403 . S
C3863 C3860 1.403 . S
C3863 C3864 1.524 . S
C3863 C3867 1.400 . S
C3864 H3849 0.960 . S
C3864 H3850 0.960 . S
C3864 H3851 0.960 . S
C3864 C3863 1.524 . S
C3865 C3862 1.403 . S
C3865 C3866 1.392 . S
C3865 C3869 1.495 . S
C3866 C3865 1.392 . S
C3866 C3867 1.385 . S
C3866 C3868 1.478 . S
C3867 H3861 0.930 . S
C3867 C3863 1.400 . S
C3867 C3866 1.385 . S
C3868 C3866 1.478 . S
C3868 C3870 1.381 . S
C3868 C3874 1.383 . S
C3869 C3865 1.495 . S
C3869 H3875 0.959 . S
C3869 H3876 0.961 . S
C3869 H3877 0.960 . S
C3870 C3868 1.381 . S
C3870 C3871 1.394 . S
C3870 H3878 0.930 . S
C3871 C3870 1.394 . S
C3871 C3872 1.383 . S
C3871 H3879 0.929 . S
C3872 C3871 1.383 . S
C3872 C3873 1.377 . S
C3873 H3857 0.930 . S
C3873 C3872 1.377 . S
C3873 C3874 1.379 . S
C3874 H3858 0.931 . S
C3874 C3868 1.383 . S
C3874 C3873 1.379 . S
H3875 C3869 0.959 . S
H3876 C3869 0.961 . S
H3877 C3869 0.960 . S
H3878 C3870 0.930 . S
H3879 C3871 0.929 . S
H3880 C3888 0.929 . S
H3881 C3890 0.930 . S
H3882 C3892 0.930 . S
H3883 C3895 0.929 . S
H3884 C3898 0.930 . S
H3885 C3900 0.960 . S
H3886 C3900 0.960 . S
H3887 C3900 0.960 . S
C3888 H3880 0.929 . S
C3888 C3889 1.377 . S
C3888 C3890 1.384 . S
C3889 C3888 1.377 . S
C3889 C3895 1.390 . S
C3890 H3881 0.930 . S
C3890 C3888 1.384 . S
C3890 C3891 1.372 . S
C3891 C3890 1.372 . S
C3891 C3892 1.400 . S
C3891 C3896 1.490 . S
C3892 H3882 0.930 . S
C3892 C3891 1.400 . S
C3892 C3895 1.386 . S
H3893 C3909 0.930 . S
H3894 C3910 0.931 . S
C3895 H3883 0.929 . S
C3895 C3889 1.390 . S
C3895 C3892 1.386 . S
C3896 C3891 1.490 . S
C3896 C3898 1.395 . S
C3896 C3899 1.403 . S
H3897 C3903 0.930 . S
C3898 H3884 0.930 . S
C3898 C3896 1.395 . S
C3898 C3901 1.403 . S
C3899 C3896 1.403 . S
C3899 C3900 1.524 . S
C3899 C3903 1.400 . S
C3900 H3885 0.960 . S
C3900 H3886 0.960 . S
C3900 H3887 0.960 . S
C3900 C3899 1.524 . S
C3901 C3898 1.403 . S
C3901 C3902 1.392 . S
C3901 C3905 1.495 1_545 S
C3902 C3901 1.392 . S
C3902 C3903 1.385 . S
C3902 C3904 1.478 . S
C3903 H3897 0.930 . S
C3903 C3899 1.400 . S
C3903 C3902 1.385 . S
C3904 C3902 1.478 . S
C3904 C3906 1.381 1_545 S
C3904 C3910 1.383 . S
C3905 C3901 1.495 1_565 S
C3905 H3911 0.959 . S
C3905 H3912 0.961 . S
C3905 H3913 0.960 . S
C3906 C3904 1.381 1_565 S
C3906 C3907 1.394 . S
C3906 H3914 0.930 . S
C3907 C3906 1.394 . S
C3907 C3908 1.383 . S
C3907 H3915 0.929 . S
C3908 C3907 1.383 . S
C3908 C3909 1.377 1_565 S
C3909 H3893 0.930 . S
C3909 C3908 1.377 1_545 S
C3909 C3910 1.379 . S
C3910 H3894 0.931 . S
C3910 C3904 1.383 . S
C3910 C3909 1.379 . S
H3911 C3905 0.959 . S
H3912 C3905 0.961 . S
H3913 C3905 0.960 . S
H3914 C3906 0.930 . S
H3915 C3907 0.929 . S
H3916 C3924 0.929 . S
H3917 C3926 0.930 . S
H3918 C3928 0.930 . S
H3919 C3931 0.929 . S
H3920 C3934 0.930 . S
H3921 C3936 0.960 . S
H3922 C3936 0.960 . S
H3923 C3936 0.960 . S
C3924 H3916 0.929 . S
C3924 C3925 1.377 . S
C3924 C3926 1.384 . S
C3925 C3924 1.377 . S
C3925 C3931 1.390 . S
C3926 H3917 0.930 . S
C3926 C3924 1.384 . S
C3926 C3927 1.372 . S
C3927 C3926 1.372 . S
C3927 C3928 1.400 . S
C3927 C3932 1.490 . S
C3928 H3918 0.930 . S
C3928 C3927 1.400 . S
C3928 C3931 1.386 . S
H3929 C3945 0.930 . S
H3930 C3946 0.931 . S
C3931 H3919 0.929 . S
C3931 C3925 1.390 . S
C3931 C3928 1.386 . S
C3932 C3927 1.490 . S
C3932 C3934 1.395 . S
C3932 C3935 1.403 . S
H3933 C3939 0.930 . S
C3934 H3920 0.930 . S
C3934 C3932 1.395 . S
C3934 C3937 1.403 . S
C3935 C3932 1.403 . S
C3935 C3936 1.524 . S
C3935 C3939 1.400 . S
C3936 H3921 0.960 . S
C3936 H3922 0.960 . S
C3936 H3923 0.960 . S
C3936 C3935 1.524 . S
C3937 C3934 1.403 . S
C3937 C3938 1.392 . S
C3937 C3941 1.495 . S
C3938 C3937 1.392 . S
C3938 C3939 1.385 . S
C3938 C3940 1.478 . S
C3939 H3933 0.930 . S
C3939 C3935 1.400 . S
C3939 C3938 1.385 . S
C3940 C3938 1.478 . S
C3940 C3942 1.381 1_554 S
C3940 C3946 1.383 . S
C3941 C3937 1.495 . S
C3941 H3947 0.959 . S
C3941 H3948 0.961 . S
C3941 H3949 0.960 1_554 S
C3942 C3940 1.381 1_556 S
C3942 C3943 1.394 . S
C3942 H3950 0.930 . S
C3943 C3942 1.394 . S
C3943 C3944 1.383 . S
C3943 H3951 0.929 . S
C3944 C3943 1.383 . S
C3944 C3945 1.377 . S
C3945 H3929 0.930 . S
C3945 C3944 1.377 . S
C3945 C3946 1.379 1_556 S
C3946 H3930 0.931 . S
C3946 C3940 1.383 . S
C3946 C3945 1.379 1_554 S
H3947 C3941 0.959 . S
H3948 C3941 0.961 . S
H3949 C3941 0.960 1_556 S
H3950 C3942 0.930 . S
H3951 C3943 0.929 . S
H3952 C3960 0.929 . S
H3953 C3962 0.930 . S
H3954 C3964 0.930 . S
H3955 C3967 0.929 . S
H3956 C3970 0.930 . S
H3957 C3972 0.960 . S
H3958 C3972 0.960 1_565 S
H3959 C3972 0.960 . S
C3960 H3952 0.929 . S
C3960 C3961 1.377 . S
C3960 C3962 1.384 . S
C3961 C3960 1.377 . S
C3961 C3967 1.390 1_565 S
C3962 H3953 0.930 . S
C3962 C3960 1.384 . S
C3962 C3963 1.372 1_565 S
C3963 C3962 1.372 1_545 S
C3963 C3964 1.400 . S
C3963 C3968 1.490 . S
C3964 H3954 0.930 . S
C3964 C3963 1.400 . S
C3964 C3967 1.386 . S
H3965 C3981 0.930 . S
H3966 C3982 0.931 . S
C3967 H3955 0.929 . S
C3967 C3961 1.390 1_545 S
C3967 C3964 1.386 . S
C3968 C3963 1.490 . S
C3968 C3970 1.395 . S
C3968 C3971 1.403 . S
H3969 C3975 0.930 . S
C3970 H3956 0.930 . S
C3970 C3968 1.395 . S
C3970 C3973 1.403 . S
C3971 C3968 1.403 . S
C3971 C3972 1.524 . S
C3971 C3975 1.400 . S
C3972 H3957 0.960 . S
C3972 H3958 0.960 1_545 S
C3972 H3959 0.960 . S
C3972 C3971 1.524 . S
C3973 C3970 1.403 . S
C3973 C3974 1.392 . S
C3973 C3977 1.495 . S
C3974 C3973 1.392 . S
C3974 C3975 1.385 . S
C3974 C3976 1.478 . S
C3975 H3969 0.930 . S
C3975 C3971 1.400 . S
C3975 C3974 1.385 . S
C3976 C3974 1.478 . S
C3976 C3978 1.381 . S
C3976 C3982 1.383 . S
C3977 C3973 1.495 . S
C3977 H3983 0.959 . S
C3977 H3984 0.961 . S
C3977 H3985 0.960 . S
C3978 C3976 1.381 . S
C3978 C3979 1.394 . S
C3978 H3986 0.930 . S
C3979 C3978 1.394 . S
C3979 C3980 1.383 . S
C3979 H3987 0.929 . S
C3980 C3979 1.383 . S
C3980 C3981 1.377 . S
C3981 H3965 0.930 . S
C3981 C3980 1.377 . S
C3981 C3982 1.379 . S
C3982 H3966 0.931 . S
C3982 C3976 1.383 . S
C3982 C3981 1.379 . S
H3983 C3977 0.959 . S
H3984 C3977 0.961 . S
H3985 C3977 0.960 . S
H3986 C3978 0.930 . S
H3987 C3979 0.929 . S
H3988 C3996 0.929 . S
H3989 C3998 0.930 . S
H3990 C4000 0.930 . S
H3991 C4003 0.929 . S
H3992 C4006 0.930 . S
H3993 C4008 0.960 . S
H3994 C4008 0.960 . S
H3995 C4008 0.960 . S
C3996 H3988 0.929 . S
C3996 C3997 1.377 . S
C3996 C3998 1.384 . S
C3997 C3996 1.377 . S
C3997 C4003 1.390 . S
C3998 H3989 0.930 . S
C3998 C3996 1.384 . S
C3998 C3999 1.372 . S
C3999 C3998 1.372 . S
C3999 C4000 1.400 . S
C3999 C4004 1.490 . S
C4000 H3990 0.930 . S
C4000 C3999 1.400 . S
C4000 C4003 1.386 . S
H4001 C4017 0.930 . S
H4002 C4018 0.931 . S
C4003 H3991 0.929 . S
C4003 C3997 1.390 . S
C4003 C4000 1.386 . S
C4004 C3999 1.490 . S
C4004 C4006 1.395 . S
C4004 C4007 1.403 . S
H4005 C4011 0.930 . S
C4006 H3992 0.930 . S
C4006 C4004 1.395 . S
C4006 C4009 1.403 . S
C4007 C4004 1.403 . S
C4007 C4008 1.524 . S
C4007 C4011 1.400 . S
C4008 H3993 0.960 . S
C4008 H3994 0.960 . S
C4008 H3995 0.960 . S
C4008 C4007 1.524 . S
C4009 C4006 1.403 . S
C4009 C4010 1.392 . S
C4009 C4013 1.495 . S
C4010 C4009 1.392 . S
C4010 C4011 1.385 . S
C4010 C4012 1.478 . S
C4011 H4005 0.930 . S
C4011 C4007 1.400 . S
C4011 C4010 1.385 . S
C4012 C4010 1.478 . S
C4012 C4014 1.381 . S
C4012 C4018 1.383 . S
C4013 C4009 1.495 . S
C4013 H4019 0.959 . S
C4013 H4020 0.961 . S
C4013 H4021 0.960 . S
C4014 C4012 1.381 . S
C4014 C4015 1.394 . S
C4014 H4022 0.930 . S
C4015 C4014 1.394 . S
C4015 C4016 1.383 . S
C4015 H4023 0.929 . S
C4016 C4015 1.383 . S
C4016 C4017 1.377 . S
C4017 H4001 0.930 . S
C4017 C4016 1.377 . S
C4017 C4018 1.379 . S
C4018 H4002 0.931 . S
C4018 C4012 1.383 . S
C4018 C4017 1.379 . S
H4019 C4013 0.959 . S
H4020 C4013 0.961 . S
H4021 C4013 0.960 . S
H4022 C4014 0.930 . S
H4023 C4015 0.929 . S
H4024 C4032 0.929 . S
H4025 C4034 0.930 . S
H4026 C4036 0.930 . S
H4027 C4039 0.929 . S
H4028 C4042 0.930 . S
H4029 C4044 0.960 . S
H4030 C4044 0.960 . S
H4031 C4044 0.960 . S
C4032 H4024 0.929 . S
C4032 C4033 1.377 . S
C4032 C4034 1.384 . S
C4033 C4032 1.377 . S
C4033 C4039 1.390 . S
C4034 H4025 0.930 . S
C4034 C4032 1.384 . S
C4034 C4035 1.372 . S
C4035 C4034 1.372 . S
C4035 C4036 1.400 . S
C4035 C4040 1.490 . S
C4036 H4026 0.930 . S
C4036 C4035 1.400 . S
C4036 C4039 1.386 . S
H4037 C4053 0.930 . S
H4038 C4054 0.931 . S
C4039 H4027 0.929 . S
C4039 C4033 1.390 . S
C4039 C4036 1.386 . S
C4040 C4035 1.490 . S
C4040 C4042 1.395 . S
C4040 C4043 1.403 . S
H4041 C4047 0.930 . S
C4042 H4028 0.930 . S
C4042 C4040 1.395 . S
C4042 C4045 1.403 . S
C4043 C4040 1.403 . S
C4043 C4044 1.524 . S
C4043 C4047 1.400 . S
C4044 H4029 0.960 . S
C4044 H4030 0.960 . S
C4044 H4031 0.960 . S
C4044 C4043 1.524 . S
C4045 C4042 1.403 . S
C4045 C4046 1.392 . S
C4045 C4049 1.495 . S
C4046 C4045 1.392 . S
C4046 C4047 1.385 . S
C4046 C4048 1.478 . S
C4047 H4041 0.930 . S
C4047 C4043 1.400 . S
C4047 C4046 1.385 . S
C4048 C4046 1.478 . S
C4048 C4050 1.381 . S
C4048 C4054 1.383 . S
C4049 C4045 1.495 . S
C4049 H4055 0.959 . S
C4049 H4056 0.961 . S
C4049 H4057 0.960 . S
C4050 C4048 1.381 . S
C4050 C4051 1.394 . S
C4050 H4058 0.930 . S
C4051 C4050 1.394 . S
C4051 C4052 1.384 . S
C4051 H4059 0.929 1_565 S
C4052 C4051 1.384 . S
C4052 C4053 1.379 . S
C4053 H4037 0.930 . S
C4053 C4052 1.379 . S
C4053 C4054 1.379 . S
C4054 H4038 0.931 . S
C4054 C4048 1.383 . S
C4054 C4053 1.379 . S
H4055 C4049 0.959 . S
H4056 C4049 0.961 . S
H4057 C4049 0.960 . S
H4058 C4050 0.930 . S
H4059 C4051 0.929 1_545 S
H4060 C4068 0.929 . S
H4061 C4070 0.930 . S
H4062 C4072 0.930 . S
H4063 C4075 0.929 . S
H4064 C4078 0.930 . S
H4065 C4080 0.960 . S
H4066 C4080 0.960 . S
H4067 C4080 0.960 . S
C4068 H4060 0.929 . S
C4068 C4069 1.377 . S
C4068 C4070 1.384 . S
C4069 C4068 1.377 . S
C4069 C4075 1.390 . S
C4070 H4061 0.930 . S
C4070 C4068 1.384 . S
C4070 C4071 1.372 . S
C4071 C4070 1.372 . S
C4071 C4072 1.400 . S
C4071 C4076 1.490 . S
C4072 H4062 0.930 . S
C4072 C4071 1.400 . S
C4072 C4075 1.386 . S
H4073 C4089 0.930 . S
H4074 C4090 0.931 . S
C4075 H4063 0.929 . S
C4075 C4069 1.390 . S
C4075 C4072 1.386 . S
C4076 C4071 1.490 . S
C4076 C4078 1.395 . S
C4076 C4079 1.403 . S
H4077 C4083 0.930 1_556 S
C4078 H4064 0.930 . S
C4078 C4076 1.395 . S
C4078 C4081 1.403 . S
C4079 C4076 1.403 . S
C4079 C4080 1.524 . S
C4079 C4083 1.400 . S
C4080 H4065 0.960 . S
C4080 H4066 0.960 . S
C4080 H4067 0.960 . S
C4080 C4079 1.524 . S
C4081 C4078 1.403 . S
C4081 C4082 1.392 . S
C4081 C4085 1.495 . S
C4082 C4081 1.392 . S
C4082 C4083 1.385 . S
C4082 C4084 1.478 1_554 S
C4083 H4077 0.930 1_554 S
C4083 C4079 1.400 . S
C4083 C4082 1.385 . S
C4084 C4082 1.478 1_556 S
C4084 C4086 1.381 . S
C4084 C4090 1.383 . S
C4085 C4081 1.495 . S
C4085 H4091 0.959 . S
C4085 H4092 0.961 . S
C4085 H4093 0.960 . S
C4086 C4084 1.381 . S
C4086 C4087 1.394 . S
C4086 H4094 0.930 . S
C4087 C4086 1.394 . S
C4087 C4088 1.383 . S
C4087 H4095 0.929 . S
C4088 C4087 1.383 . S
C4088 C4089 1.377 . S
C4089 H4073 0.930 . S
C4089 C4088 1.377 . S
C4089 C4090 1.379 . S
C4090 H4074 0.931 . S
C4090 C4084 1.383 . S
C4090 C4089 1.379 . S
H4091 C4085 0.959 . S
H4092 C4085 0.961 . S
H4093 C4085 0.960 . S
H4094 C4086 0.930 . S
H4095 C4087 0.929 . S
C649 C9 0.502 . S
C668 C84 0.630 . S
C685 C109 0.447 . S
C704 C29 0.539 . S
C721 C49 0.469 . S
C740 C124 0.733 . S
C757 C144 0.647 . S
C776 C69 0.405 . S
C793 C172 0.508 . S
C812 C242 0.599 . S
C829 C192 0.458 . S
C848 C272 0.413 . S
C865 C282 0.622 . S
C884 C212 0.416 . S
C901 C232 0.455 . S
C920 C302 0.632 . S
C937 C404 0.663 . S
C956 C329 0.440 . S
C973 C349 0.434 . S
C992 C429 0.547 . S
C1009 C369 0.484 . S
C1028 C444 0.651 . S
C1045 C389 0.468 . S
C1064 C464 0.650 . S
C1081 C492 0.516 . S
C1100 C562 0.699 . S
C1117 C592 0.453 . S
C1136 C512 0.359 . S
C1153 C532 0.501 . S
C1172 C602 0.705 . S
C1189 C622 0.611 . S
C1208 C552 0.456 . S
C1225 C438 0.966 . S
C1244 C18 0.967 . S
C1261 C459 1.062 . S
C1280 C38 1.085 . S
C1297 C479 1.224 . S
C1316 C58 1.178 . S
C1333 C78 1.333 . S
C1352 C419 1.334 . S
C1369 C99 1.320 . S
C1388 C398 1.304 . S
C1405 C338 0.963 . S
C1424 C118 0.951 . S
C1441 C139 1.065 . S
C1460 C358 1.075 . S
C1477 C159 1.225 . S
C1496 C378 1.246 . S
C1513 C179 0.960 . S
C1532 C599 0.980 . S
C1549 C618 1.061 . S
C1568 C199 1.086 . S
C1585 C638 1.217 . S
C1604 C219 1.189 . S
C1621 C239 1.332 . S
C1640 C578 1.315 . S
C1657 C258 1.324 . S
C1676 C559 1.345 . S
C1693 C279 0.967 . S
C1712 C499 0.979 . S
C1729 C298 1.070 . S
C1748 C519 1.075 . S
C1765 C318 1.229 . S
C1784 C539 1.247 . S
C1801 C178 0.626 . S
C1820 C19 0.638 . S
C1837 C39 0.643 . S
C1856 C518 0.662 . S
C1873 C218 0.430 . S
C1892 C59 0.429 . S
C1909 C79 0.385 . S
C1928 C558 0.335 . S
C1945 C259 0.350 . S
C1964 C98 0.425 . S
C1981 C598 0.652 . S
C2000 C119 0.639 . S
C2017 C138 0.412 . S
C2036 C299 0.491 . S
C2053 C158 0.498 . S
C2072 C639 0.503 . S
C2089 C359 0.633 . S
C2108 C198 0.600 . S
C2125 C399 0.381 . S
C2144 C238 0.335 . S
C2161 C278 0.636 . S
C2180 C439 0.671 . S
C2197 C478 0.482 . S
C2216 C319 0.542 . S
C2233 C498 0.625 . S
C2252 C339 0.627 . S
C2269 C538 0.405 . S
C2288 C379 0.407 . S
C2305 C579 0.354 . S
C2324 C418 0.436 . S
C2341 C458 0.421 . S
C2360 C619 0.409 . S
C2377 C12 1.080 . S
C2396 C249 1.192 . S
C2413 C584 1.317 . S
C2432 C32 1.293 . S
C2449 C289 1.203 . S
C2468 C52 1.126 . S
C2485 C72 1.154 . S
C2504 C629 1.220 . S
C2521 C164 1.252 . S
C2540 C82 1.218 . S
C2557 C504 1.305 . S
C2576 C112 1.266 . S
C2593 C204 1.250 . S
C2612 C122 1.340 . S
C2629 C544 1.241 . S
C2648 C142 1.227 . S
C2665 C92 1.169 . S
C2684 C169 1.117 . S
C2701 C422 1.323 . S
C2720 C189 1.350 . S
C2737 C132 1.200 . S
C2756 C209 1.105 . S
C2773 C229 1.133 . S
C2792 C472 1.236 . S
C2809 C2 1.234 . S
C2828 C244 1.249 . S
C2845 C342 1.301 . S
C2864 C269 1.261 . S
C2881 C284 1.309 . S
C2900 C42 1.266 . S
C2917 C304 1.279 . S
C2936 C382 1.245 . S
C2953 C569 1.156 . S
C2972 C332 1.142 . S
C2989 C264 1.327 . S
C3008 C352 1.275 . S
C3025 C372 1.113 . S
C3044 C609 1.193 . S
C3061 C309 1.250 . S
C3080 C392 1.088 . S
C3097 C402 1.260 . S
C3116 C484 1.255 . S
C3133 C432 1.311 . S
C3152 C184 1.259 . S
C3169 C524 1.268 . S
C3188 C442 1.263 . S
C3205 C224 1.239 . S
C3224 C462 1.235 . S
C3241 C489 1.083 . S
C3260 C412 1.130 . S
C3277 C509 1.315 . S
C3296 C102 1.273 . S
C3313 C529 1.114 . S
C3332 C452 1.233 . S
C3349 C549 1.134 . S
C3368 C152 1.245 . S
C3385 C322 1.239 . S
C3404 C564 1.279 . S
C3421 C22 1.301 . S
C3440 C589 1.261 . S
C3457 C604 1.308 . S
C3476 C362 1.263 . S
C3493 C62 1.223 . S
C3512 C624 1.228 . S
C3529 C89 1.925 . S
C3548 C4 1.991 . S
C3565 C104 1.771 . S
C3584 C24 1.747 . S
C3601 C44 1.985 . S
C3620 C129 1.964 . S
C3637 C149 1.912 . S
C3656 C64 1.940 . S
C3673 C252 1.916 . S
C3692 C162 1.991 . S
C3709 C182 1.782 . S
C3728 C262 1.735 . S
C3745 C202 1.981 . S
C3764 C292 1.932 . S
C3781 C312 1.917 . S
C3800 C222 1.946 . S
C3817 C324 1.967 . S
C3836 C409 1.888 . S
C3853 C424 1.767 . S
C3872 C344 1.768 . S
C3889 C364 1.977 . S
C3908 C449 1.937 . S
C3925 C384 1.946 . S
C3944 C469 1.891 . S
C3961 C572 1.921 . S
C3980 C482 1.979 . S
C3997 C582 1.776 . S
C4016 C502 1.746 . S
C4033 C522 1.981 . S
C4052 C612 1.931 1_565 S
C4069 C632 1.923 . S
C4088 C542 1.920 . S
