# Generated by pormake.
# Topology upa, (4)-cn, num edge types: 1
# Building blocks:
#     Node 0, Type 0, BuildingBlock: NAHDIM_clean_sbu_0, # of connection points: 4
#     Node 1, Type 0, BuildingBlock: NAHDIM_clean_sbu_0, # of connection points: 4
#     Node 2, Type 0, BuildingBlock: NAHDIM_clean_sbu_0, # of connection points: 4
#     Node 3, Type 0, BuildingBlock: NAHDIM_clean_sbu_0, # of connection points: 4
#     Node 4, Type 0, BuildingBlock: NAHDIM_clean_sbu_0, # of connection points: 4
#     Node 5, Type 0, BuildingBlock: NAHDIM_clean_sbu_0, # of connection points: 4
#     Node 6, Type 0, BuildingBlock: NAHDIM_clean_sbu_0, # of connection points: 4
#     Node 7, Type 0, BuildingBlock: NAHDIM_clean_sbu_0, # of connection points: 4
#     Edge 8, Type (0, 0), BuildingBlock: AJUNOK_clean_linker_0, # of connection points: 2
#     Edge 9, Type (0, 0), BuildingBlock: AJUNOK_clean_linker_0, # of connection points: 2
#     Edge 10, Type (0, 0), BuildingBlock: AJUNOK_clean_linker_0, # of connection points: 2
#     Edge 11, Type (0, 0), BuildingBlock: AJUNOK_clean_linker_0, # of connection points: 2
#     Edge 12, Type (0, 0), BuildingBlock: AJUNOK_clean_linker_0, # of connection points: 2
#     Edge 13, Type (0, 0), BuildingBlock: AJUNOK_clean_linker_0, # of connection points: 2
#     Edge 14, Type (0, 0), BuildingBlock: AJUNOK_clean_linker_0, # of connection points: 2
#     Edge 15, Type (0, 0), BuildingBlock: AJUNOK_clean_linker_0, # of connection points: 2
#     Edge 16, Type (0, 0), BuildingBlock: AJUNOK_clean_linker_0, # of connection points: 2
#     Edge 17, Type (0, 0), BuildingBlock: AJUNOK_clean_linker_0, # of connection points: 2
#     Edge 18, Type (0, 0), BuildingBlock: AJUNOK_clean_linker_0, # of connection points: 2
#     Edge 19, Type (0, 0), BuildingBlock: AJUNOK_clean_linker_0, # of connection points: 2
#     Edge 20, Type (0, 0), BuildingBlock: AJUNOK_clean_linker_0, # of connection points: 2
#     Edge 21, Type (0, 0), BuildingBlock: AJUNOK_clean_linker_0, # of connection points: 2
#     Edge 22, Type (0, 0), BuildingBlock: AJUNOK_clean_linker_0, # of connection points: 2
#     Edge 23, Type (0, 0), BuildingBlock: AJUNOK_clean_linker_0, # of connection points: 2
# Relax obj value: 0.275
# Max RMSD: 0.207
# Mean RMSD: 0.207
data_MOF--net-upa--node1-NAHDIM_clean_sbu_0--edge1-AJUNOK_clean_linker_0
_symmetry_space_group_name_H-M    P1
_symmetry_Int_Tables_number       1
_symmetry_cell_setting            triclinic
loop_
_symmetry_equiv_pos_as_xyz
'x, y, z'
_cell_length_a     19.742745
_cell_length_b     19.736648
_cell_length_c     30.631201
_cell_angle_alpha  89.996716
_cell_angle_beta   90.016791
_cell_angle_gamma 89.912289
loop_
_atom_site_label
_atom_site_type_symbol
_atom_site_fract_x
_atom_site_fract_y
_atom_site_fract_z
_atom_type_partial_charge
C0 C 0.30233 0.18663 0.2445 0.0
O1 O 0.24947 0.18756 0.21847 0.0
O2 O 0.13679 0.26044 0.29372 0.0
Zn3 Zn 0.20295 0.19037 0.31614 0.0
O4 O 0.21852 0.20161 0.38076 0.0
C5 C 0.11391 0.09505 0.27533 0.0
O6 O 0.11644 0.13882 0.24309 0.0
O7 O 0.29334 0.18879 0.28553 0.0
C8 C 0.23952 0.14984 0.40144 0.0
O9 O 0.25171 0.09386 0.37957 0.0
C10 C 0.08007 0.2567 0.31336 0.0
O11 O 0.07622 0.2182 0.34826 0.0
O12 O 0.15234 0.10316 0.30822 0.0
C13 C 0.34906 0.79895 0.76734 0.0
O14 O 0.40136 0.7615 0.7563 0.0
O15 O 0.24062 0.61166 0.79279 0.0
Zn16 Zn 0.30774 0.6791 0.81773 0.0
O17 O 0.297 0.68497 0.88385 0.0
C18 C 0.4056 0.59873 0.77058 0.0
O19 O 0.36112 0.60224 0.73877 0.0
O20 O 0.30298 0.77356 0.79137 0.0
C21 C 0.34725 0.67117 0.90837 0.0
O22 O 0.40581 0.65654 0.89038 0.0
C23 C 0.23318 0.55789 0.81529 0.0
O24 O 0.26007 0.55527 0.85447 0.0
O25 O 0.39612 0.63316 0.80511 0.0
C26 C 0.68378 0.83931 0.27557 0.0
O27 O 0.69123 0.89667 0.2967 0.0
O28 O 0.88693 0.73934 0.30049 0.0
Zn29 Zn 0.81149 0.80303 0.31789 0.0
O30 O 0.78621 0.79093 0.38141 0.0
C31 C 0.89114 0.90351 0.27732 0.0
O32 O 0.88649 0.86083 0.24455 0.0
O33 O 0.72919 0.79371 0.27901 0.0
C34 C 0.76058 0.84141 0.40127 0.0
O35 O 0.75153 0.89819 0.37971 0.0
C36 C 0.93982 0.7427 0.32415 0.0
O37 O 0.9374 0.7783 0.36036 0.0
O38 O 0.85595 0.89323 0.31138 0.0
C39 C 0.67576 0.18994 0.79196 0.0
O40 O 0.61517 0.21674 0.78792 0.0
O41 O 0.77444 0.38795 0.80064 0.0
Zn42 Zn 0.71122 0.32122 0.82979 0.0
O43 O 0.72336 0.32499 0.89586 0.0
C44 C 0.60844 0.38588 0.77767 0.0
O45 O 0.65375 0.37974 0.74652 0.0
O46 O 0.72345 0.22539 0.80808 0.0
C47 C 0.67997 0.35651 0.91899 0.0
O48 O 0.62699 0.38351 0.89984 0.0
C49 C 0.76524 0.44848 0.81369 0.0
O50 O 0.72532 0.4585 0.84737 0.0
O51 O 0.61943 0.35804 0.81443 0.0
C52 C 0.83329 0.32572 0.21913 0.0
O53 O 0.83575 0.36418 0.18415 0.0
O54 O 0.62374 0.23678 0.20305 0.0
Zn55 Zn 0.6926 0.31093 0.19362 0.0
O56 O 0.71234 0.31629 0.12879 0.0
C57 C 0.59592 0.39083 0.24132 0.0
O58 O 0.58606 0.33319 0.26171 0.0
O59 O 0.7777 0.29709 0.22913 0.0
C60 C 0.70104 0.37106 0.10817 0.0
O61 O 0.68312 0.42523 0.13021 0.0
C62 C 0.57147 0.24129 0.17888 0.0
O63 O 0.57274 0.28414 0.14606 0.0
O64 O 0.64307 0.3955 0.21316 0.0
C65 C 0.185 0.29301 0.73942 0.0
O66 O 0.14363 0.24799 0.75623 0.0
O67 O 0.27389 0.11177 0.71221 0.0
Zn68 Zn 0.2197 0.18315 0.67909 0.0
O69 O 0.2476 0.19035 0.61587 0.0
C70 C 0.10603 0.10496 0.70721 0.0
O71 O 0.14414 0.09738 0.74196 0.0
O72 O 0.22213 0.27626 0.70722 0.0
C73 C 0.23342 0.14071 0.59105 0.0
O74 O 0.20679 0.08591 0.6083 0.0
C75 C 0.31696 0.07093 0.69596 0.0
O76 O 0.33854 0.08122 0.65596 0.0
O77 O 0.12491 0.14569 0.67748 0.0
C78 C 0.20801 0.68732 0.25406 0.0
O79 O 0.2562 0.65794 0.27678 0.0
O80 O 0.38088 0.76777 0.20313 0.0
Zn81 Zn 0.31267 0.69506 0.18694 0.0
O82 O 0.30172 0.69484 0.12095 0.0
C83 C 0.39986 0.60822 0.23759 0.0
O84 O 0.41008 0.66452 0.25942 0.0
O85 O 0.22098 0.70796 0.21561 0.0
C86 C 0.33007 0.64962 0.09764 0.0
O87 O 0.36459 0.60118 0.11693 0.0
C88 C 0.43811 0.76026 0.18455 0.0
O89 O 0.44342 0.71483 0.15341 0.0
O90 O 0.35649 0.60721 0.20682 0.0
C91 C 0.81701 0.68367 0.70427 0.0
O92 O 0.85927 0.68434 0.67116 0.0
O93 O 0.72267 0.89238 0.70173 0.0
Zn94 Zn 0.78568 0.82172 0.67668 0.0
O95 O 0.76999 0.80544 0.61239 0.0
C96 C 0.88146 0.92465 0.66807 0.0
O97 O 0.83043 0.94918 0.64548 0.0
O98 O 0.781 0.73584 0.71189 0.0
C99 C 0.73091 0.84335 0.59018 0.0
O100 O 0.6964 0.89082 0.61042 0.0
C101 C 0.74188 0.91474 0.73864 0.0
O102 O 0.79189 0.88356 0.75867 0.0
O103 O 0.87692 0.86501 0.68349 0.0
C104 C 0.02792 0.02314 0.23764 0.0
C105 C 0.05882 0.0445 0.27665 0.0
C106 C 0.97291 0.97834 0.23815 0.0
C107 C 0.94581 0.95455 0.27773 0.0
H108 H 0.04658 0.04087 0.20641 0.0
H109 H 0.95135 0.96237 0.2073 0.0
S110 S 0.00765 0.99617 0.38908 0.0
N111 N 0.05801 0.03878 0.35604 0.0
N112 N 0.95416 0.95556 0.35704 0.0
C113 C 0.97581 0.97608 0.31703 0.0
C114 C 0.03251 0.02071 0.31648 0.0
C115 C 0.48123 0.51958 0.81062 0.0
C116 C 0.45817 0.5454 0.7705 0.0
C117 C 0.52764 0.46627 0.81234 0.0
C118 C 0.55398 0.43711 0.77403 0.0
H119 H 0.46256 0.53992 0.84119 0.0
H120 H 0.54401 0.44901 0.84418 0.0
S121 S 0.50969 0.48586 0.66055 0.0
N122 N 0.46405 0.53721 0.69139 0.0
N123 N 0.55313 0.43758 0.69461 0.0
C124 C 0.5314 0.46227 0.73358 0.0
C125 C 0.48303 0.51618 0.73182 0.0
C126 C 0.56554 0.51319 0.2462 0.0
C127 C 0.54507 0.44517 0.24466 0.0
C128 C 0.51763 0.56564 0.24594 0.0
C129 C 0.44792 0.5517 0.24259 0.0
H130 H 0.61889 0.52589 0.24728 0.0
H131 H 0.53546 0.61754 0.24659 0.0
S132 S 0.36848 0.38205 0.23737 0.0
N133 N 0.45055 0.36642 0.24066 0.0
N134 N 0.36073 0.46541 0.23807 0.0
C135 C 0.42681 0.48397 0.24116 0.0
C136 C 0.4754 0.43052 0.24278 0.0
C137 C 0.00151 0.07428 0.6658 0.0
C138 C 0.0475 0.05966 0.69957 0.0
C139 C 0.9485 0.02995 0.65571 0.0
C140 C 0.93975 0.96879 0.67864 0.0
H141 H 0.00654 0.12029 0.64679 0.0
H142 H 0.91435 0.04373 0.62948 0.0
S143 S 0.04643 0.90645 0.77012 0.0
N144 N 0.08072 0.97951 0.75618 0.0
N145 N 0.98128 0.89611 0.73703 0.0
C146 C 0.9853 0.95345 0.71257 0.0
C147 C 0.039 0.99896 0.72314 0.0
C148 C 0.24397 0.08783 0.47238 0.0
C149 C 0.24392 0.1499 0.44977 0.0
C150 C 0.24245 0.08562 0.51804 0.0
C151 C 0.24181 0.14535 0.54307 0.0
H152 H 0.24307 0.04028 0.45473 0.0
H153 H 0.24077 0.03651 0.5338 0.0
S154 S 0.24619 0.32109 0.49991 0.0
N155 N 0.24643 0.27276 0.45591 0.0
N156 N 0.24449 0.26862 0.54189 0.0
C157 C 0.24445 0.20787 0.521 0.0
C158 C 0.24514 0.21013 0.47434 0.0
C159 C 0.38763 0.62881 0.98045 0.0
C160 C 0.33994 0.6666 0.95645 0.0
C161 C 0.38295 0.62274 0.02584 0.0
C162 C 0.33099 0.65508 0.04937 0.0
H163 H 0.42895 0.60309 0.96407 0.0
H164 H 0.42131 0.5933 0.04262 0.0
S165 S 0.19279 0.75975 0.00221 0.0
N166 N 0.23826 0.73618 0.95956 0.0
N167 N 0.23016 0.72581 0.04525 0.0
C168 C 0.28276 0.69305 0.0259 0.0
C169 C 0.28699 0.69845 0.97939 0.0
C170 C 0.77053 0.78961 0.52051 0.0
C171 C 0.73122 0.83937 0.54171 0.0
C172 C 0.77774 0.78903 0.47496 0.0
C173 C 0.74637 0.83851 0.44877 0.0
H174 H 0.7975 0.75164 0.53925 0.0
H175 H 0.81012 0.75089 0.46037 0.0
S176 S 0.63217 0.97566 0.48735 0.0
N177 N 0.65606 0.93627 0.53233 0.0
N178 N 0.67002 0.93532 0.44695 0.0
C179 C 0.70457 0.88677 0.46928 0.0
C180 C 0.69683 0.88713 0.51564 0.0
C181 C 0.72801 0.31658 0.99034 0.0
C182 C 0.68856 0.36347 0.96683 0.0
C183 C 0.73292 0.32008 0.03602 0.0
C184 C 0.69963 0.37136 0.05977 0.0
H185 H 0.75376 0.27573 0.9735 0.0
H186 H 0.76253 0.28192 0.05287 0.0
S187 S 0.59308 0.50895 0.01324 0.0
N188 N 0.61777 0.46438 0.97053 0.0
N189 N 0.62758 0.47144 0.05597 0.0
C190 C 0.6618 0.41985 0.03644 0.0
C191 C 0.65607 0.41573 0.99009 0.0
C192 C 0.44744 0.22437 0.16731 0.0
C193 C 0.50525 0.21362 0.19341 0.0
C194 C 0.38214 0.21231 0.18338 0.0
C195 C 0.3719 0.18949 0.22633 0.0
H196 H 0.45224 0.24531 0.13478 0.0
H197 H 0.33935 0.2243 0.16261 0.0
S198 S 0.50624 0.14229 0.30563 0.0
N199 N 0.548 0.17026 0.26258 0.0
N200 N 0.42521 0.14821 0.29286 0.0
C201 C 0.42927 0.1738 0.25175 0.0
C202 C 0.49593 0.18553 0.23524 0.0
C203 C 0.37921 0.89054 0.71409 0.0
C204 C 0.34406 0.87011 0.75181 0.0
C205 C 0.37269 0.95652 0.69745 0.0
C206 C 0.33144 0.0052 0.71816 0.0
H207 H 0.41045 0.8547 0.69639 0.0
H208 H 0.39883 0.96871 0.66738 0.0
S209 S 0.23659 0.97987 0.82176 0.0
N210 N 0.27143 0.90543 0.8117 0.0
N211 N 0.26075 0.02973 0.78143 0.0
C212 C 0.29927 0.98642 0.75746 0.0
C213 C 0.30502 0.91887 0.77395 0.0
C214 C 0.62183 0.77333 0.21879 0.0
C215 C 0.62159 0.82577 0.24981 0.0
C216 C 0.56288 0.75528 0.19632 0.0
C217 C 0.50072 0.78811 0.20439 0.0
H218 H 0.66778 0.74504 0.21221 0.0
H219 H 0.56581 0.71315 0.17373 0.0
S220 S 0.47346 0.93214 0.28022 0.0
N221 N 0.55462 0.91346 0.28555 0.0
N222 N 0.4433 0.87834 0.24379 0.0
C223 C 0.50004 0.84221 0.23424 0.0
C224 C 0.56056 0.86137 0.25678 0.0
C225 C 0.74752 0.08582 0.79425 0.0
C226 C 0.68864 0.11852 0.77918 0.0
C227 C 0.76248 0.01909 0.78228 0.0
C228 C 0.71972 0.9823 0.75422 0.0
H229 H 0.78281 0.11201 0.81541 0.0
H230 H 0.80927 0.99706 0.79417 0.0
S231 S 0.55749 0.04303 0.70706 0.0
N232 N 0.58558 0.10782 0.73597 0.0
N233 N 0.61458 0.98243 0.71288 0.0
C234 C 0.65996 0.01368 0.73945 0.0
C235 C 0.64418 0.08168 0.75211 0.0
C236 C 0.01924 0.31205 0.25072 0.0
C237 C 0.01696 0.28234 0.29249 0.0
C238 C 0.95965 0.32764 0.22777 0.0
C239 C 0.89534 0.31366 0.24549 0.0
H240 H 0.0674 0.3214 0.23491 0.0
H241 H 0.96422 0.34879 0.19528 0.0
S242 S 0.86098 0.24309 0.35562 0.0
N243 N 0.94435 0.24495 0.35211 0.0
N244 N 0.83292 0.27352 0.30881 0.0
C245 C 0.89223 0.28672 0.28795 0.0
C246 C 0.95282 0.27136 0.31148 0.0
C247 C 0.21504 0.41602 0.73283 0.0
C248 C 0.18971 0.36223 0.75824 0.0
C249 C 0.22421 0.48092 0.75064 0.0
C250 C 0.2097 0.49412 0.7948 0.0
H251 H 0.22899 0.40772 0.69905 0.0
H252 H 0.2461 0.51995 0.73022 0.0
S253 S 0.13791 0.37248 0.87458 0.0
N254 N 0.14607 0.32808 0.82919 0.0
N255 N 0.16501 0.44944 0.8628 0.0
C256 C 0.18203 0.44159 0.8201 0.0
C257 C 0.17157 0.37584 0.80181 0.0
C258 C 0.08346 0.70804 0.245 0.0
C259 C 0.13913 0.69624 0.27277 0.0
C260 C 0.01826 0.71915 0.26181 0.0
C261 C 0.00633 0.71999 0.30709 0.0
H262 H 0.09031 0.70937 0.20993 0.0
H263 H 0.97753 0.72994 0.23913 0.0
S264 S 0.13371 0.68867 0.39387 0.0
N265 N 0.17703 0.683 0.34792 0.0
N266 N 0.05484 0.70515 0.37937 0.0
C267 C 0.06107 0.7066 0.33519 0.0
C268 C 0.1273 0.69435 0.31809 0.0
C269 C 0.76493 0.57275 0.79943 0.0
C270 C 0.7871 0.50761 0.78723 0.0
C271 C 0.77603 0.62906 0.77273 0.0
C272 C 0.81037 0.62311 0.73271 0.0
H273 H 0.73673 0.58044 0.82936 0.0
H274 H 0.75653 0.67763 0.78346 0.0
S275 S 0.88374 0.46492 0.68695 0.0
N276 N 0.84851 0.44099 0.73333 0.0
N277 N 0.87008 0.54729 0.68318 0.0
C278 C 0.83552 0.55885 0.72081 0.0
C279 C 0.82374 0.50107 0.74802 0.0
loop_
_geom_bond_atom_site_label_1
_geom_bond_atom_site_label_2
_geom_bond_distance
_geom_bond_site_symmetry_2
_ccdc_geom_bond_type
C0 O1 1.160 . S
C0 O7 1.185 . S
O1 C0 1.160 . S
O2 Zn3 1.899 . S
O2 C10 1.284 . S
Zn3 O2 1.899 . S
Zn3 O4 2.032 . S
Zn3 O7 2.086 . S
Zn3 O12 1.977 . S
O4 Zn3 2.032 . S
O4 C8 1.278 . S
C5 O6 1.203 . S
C5 O12 1.267 . S
O6 C5 1.203 . S
O7 C0 1.185 . S
O7 Zn3 2.086 . S
C8 O4 1.278 . S
C8 O9 1.211 . S
O9 C8 1.211 . S
C10 O2 1.284 . S
C10 O11 1.273 . S
O11 C10 1.273 . S
O12 Zn3 1.977 . S
O12 C5 1.267 . S
C13 O14 1.160 . S
C13 O20 1.185 . S
O14 C13 1.160 . S
O15 Zn16 1.899 . S
O15 C23 1.284 . S
Zn16 O15 1.899 . S
Zn16 O17 2.032 . S
Zn16 O20 2.086 . S
Zn16 O25 1.977 . S
O17 Zn16 2.032 . S
O17 C21 1.278 . S
C18 O19 1.203 . S
C18 O25 1.267 . S
O19 C18 1.203 . S
O20 C13 1.185 . S
O20 Zn16 2.086 . S
C21 O17 1.278 . S
C21 O22 1.211 . S
O22 C21 1.211 . S
C23 O15 1.284 . S
C23 O24 1.273 . S
O24 C23 1.273 . S
O25 Zn16 1.977 . S
O25 C18 1.267 . S
C26 O27 1.160 . S
C26 O33 1.185 . S
O27 C26 1.160 . S
O28 Zn29 1.899 . S
O28 C36 1.284 . S
Zn29 O28 1.899 . S
Zn29 O30 2.032 . S
Zn29 O33 2.086 . S
Zn29 O38 1.977 . S
O30 Zn29 2.032 . S
O30 C34 1.278 . S
C31 O32 1.203 . S
C31 O38 1.267 . S
O32 C31 1.203 . S
O33 C26 1.185 . S
O33 Zn29 2.086 . S
C34 O30 1.278 . S
C34 O35 1.211 . S
O35 C34 1.211 . S
C36 O28 1.284 . S
C36 O37 1.273 . S
O37 C36 1.273 . S
O38 Zn29 1.977 . S
O38 C31 1.267 . S
C39 O40 1.160 . S
C39 O46 1.185 . S
O40 C39 1.160 . S
O41 Zn42 1.899 . S
O41 C49 1.284 . S
Zn42 O41 1.899 . S
Zn42 O43 2.032 . S
Zn42 O46 2.086 . S
Zn42 O51 1.977 . S
O43 Zn42 2.032 . S
O43 C47 1.278 . S
C44 O45 1.203 . S
C44 O51 1.267 . S
O45 C44 1.203 . S
O46 C39 1.185 . S
O46 Zn42 2.086 . S
C47 O43 1.278 . S
C47 O48 1.211 . S
O48 C47 1.211 . S
C49 O41 1.284 . S
C49 O50 1.273 . S
O50 C49 1.273 . S
O51 Zn42 1.977 . S
O51 C44 1.267 . S
C52 O53 1.160 . S
C52 O59 1.185 . S
O53 C52 1.160 . S
O54 Zn55 1.899 . S
O54 C62 1.284 . S
Zn55 O54 1.899 . S
Zn55 O56 2.032 . S
Zn55 O59 2.086 . S
Zn55 O64 1.977 . S
O56 Zn55 2.032 . S
O56 C60 1.278 . S
C57 O58 1.203 . S
C57 O64 1.267 . S
O58 C57 1.203 . S
O59 C52 1.185 . S
O59 Zn55 2.086 . S
C60 O56 1.278 . S
C60 O61 1.211 . S
O61 C60 1.211 . S
C62 O54 1.284 . S
C62 O63 1.273 . S
O63 C62 1.273 . S
O64 Zn55 1.977 . S
O64 C57 1.267 . S
C65 O66 1.160 . S
C65 O72 1.185 . S
O66 C65 1.160 . S
O67 Zn68 1.899 . S
O67 C75 1.284 . S
Zn68 O67 1.899 . S
Zn68 O69 2.032 . S
Zn68 O72 2.086 . S
Zn68 O77 1.977 . S
O69 Zn68 2.032 . S
O69 C73 1.278 . S
C70 O71 1.203 . S
C70 O77 1.267 . S
O71 C70 1.203 . S
O72 C65 1.185 . S
O72 Zn68 2.086 . S
C73 O69 1.278 . S
C73 O74 1.211 . S
O74 C73 1.211 . S
C75 O67 1.284 . S
C75 O76 1.273 . S
O76 C75 1.273 . S
O77 Zn68 1.977 . S
O77 C70 1.267 . S
C78 O79 1.160 . S
C78 O85 1.185 . S
O79 C78 1.160 . S
O80 Zn81 1.899 . S
O80 C88 1.284 . S
Zn81 O80 1.899 . S
Zn81 O82 2.032 . S
Zn81 O85 2.086 . S
Zn81 O90 1.977 . S
O82 Zn81 2.032 . S
O82 C86 1.278 . S
C83 O84 1.203 . S
C83 O90 1.267 . S
O84 C83 1.203 . S
O85 C78 1.185 . S
O85 Zn81 2.086 . S
C86 O82 1.278 . S
C86 O87 1.211 . S
O87 C86 1.211 . S
C88 O80 1.284 . S
C88 O89 1.273 . S
O89 C88 1.273 . S
O90 Zn81 1.977 . S
O90 C83 1.267 . S
C91 O92 1.160 . S
C91 O98 1.185 . S
O92 C91 1.160 . S
O93 Zn94 1.899 . S
O93 C101 1.284 . S
Zn94 O93 1.899 . S
Zn94 O95 2.032 . S
Zn94 O98 2.086 . S
Zn94 O103 1.977 . S
O95 Zn94 2.032 . S
O95 C99 1.278 . S
C96 O97 1.203 . S
C96 O103 1.267 . S
O97 C96 1.203 . S
O98 C91 1.185 . S
O98 Zn94 2.086 . S
C99 O95 1.278 . S
C99 O100 1.211 . S
O100 C99 1.211 . S
C101 O93 1.284 . S
C101 O102 1.273 . S
O102 C101 1.273 . S
O103 Zn94 1.977 . S
O103 C96 1.267 . S
C104 C105 1.369 . S
C104 C106 1.419 1_455 S
C104 H108 0.930 . S
C105 C104 1.369 . S
C105 C114 1.429 1_545 S
C106 C104 1.419 1_655 S
C106 C107 1.363 1_545 S
C106 H109 0.929 . S
C107 C106 1.363 1_565 S
C107 C113 1.428 . S
H108 C104 0.930 . S
H109 C106 0.929 . S
S110 N111 1.613 . S
S110 N112 1.610 1_455 S
N111 S110 1.613 . S
N111 C114 1.350 . S
N112 S110 1.610 1_655 S
N112 C113 1.351 . S
C113 C107 1.428 . S
C113 N112 1.351 . S
C113 C114 1.434 1_655 S
C114 C105 1.429 1_565 S
C114 N111 1.350 . S
C114 C113 1.434 1_455 S
C115 C116 1.369 . S
C115 C117 1.419 . S
C115 H119 0.930 . S
C116 C115 1.369 . S
C116 C125 1.429 . S
C117 C115 1.419 . S
C117 C118 1.363 . S
C117 H120 0.929 . S
C118 C117 1.363 . S
C118 C124 1.428 . S
H119 C115 0.930 . S
H120 C117 0.929 . S
S121 N122 1.613 . S
S121 N123 1.610 . S
N122 S121 1.613 . S
N122 C125 1.350 . S
N123 S121 1.610 . S
N123 C124 1.351 . S
C124 C118 1.428 . S
C124 N123 1.351 . S
C124 C125 1.434 . S
C125 C116 1.429 . S
C125 N122 1.350 . S
C125 C124 1.434 . S
C126 C127 1.369 . S
C126 C128 1.419 . S
C126 H130 0.930 . S
C127 C126 1.369 . S
C127 C136 1.429 . S
C128 C126 1.419 . S
C128 C129 1.363 . S
C128 H131 0.929 . S
C129 C128 1.363 . S
C129 C135 1.428 . S
H130 C126 0.930 . S
H131 C128 0.929 . S
S132 N133 1.613 . S
S132 N134 1.610 . S
N133 S132 1.613 . S
N133 C136 1.350 . S
N134 S132 1.610 . S
N134 C135 1.351 . S
C135 C129 1.428 . S
C135 N134 1.351 . S
C135 C136 1.434 . S
C136 C127 1.429 . S
C136 N133 1.350 . S
C136 C135 1.434 . S
C137 C138 1.369 . S
C137 C139 1.419 1_545 S
C137 H141 0.930 . S
C138 C137 1.369 . S
C138 C147 1.429 1_455 S
C139 C137 1.419 1_565 S
C139 C140 1.363 1_455 S
C139 H142 0.929 . S
C140 C139 1.363 1_655 S
C140 C146 1.428 . S
H141 C137 0.930 . S
H142 C139 0.929 . S
S143 N144 1.613 . S
S143 N145 1.610 . S
N144 S143 1.613 . S
N144 C147 1.350 . S
N145 S143 1.610 . S
N145 C146 1.351 1_545 S
C146 C140 1.428 . S
C146 N145 1.351 1_565 S
C146 C147 1.434 1_565 S
C147 C138 1.429 1_655 S
C147 N144 1.350 . S
C147 C146 1.434 1_545 S
C148 C149 1.369 . S
C148 C150 1.419 . S
C148 H152 0.930 . S
C149 C148 1.369 . S
C149 C158 1.429 . S
C150 C148 1.419 . S
C150 C151 1.363 . S
C150 H153 0.929 . S
C151 C150 1.363 . S
C151 C157 1.428 . S
H152 C148 0.930 . S
H153 C150 0.929 . S
S154 N155 1.613 . S
S154 N156 1.610 . S
N155 S154 1.613 . S
N155 C158 1.350 . S
N156 S154 1.610 . S
N156 C157 1.351 . S
C157 C151 1.428 . S
C157 N156 1.351 . S
C157 C158 1.434 . S
C158 C149 1.429 . S
C158 N155 1.350 . S
C158 C157 1.434 . S
C159 C160 1.369 . S
C159 C161 1.419 1_556 S
C159 H163 0.930 . S
C160 C159 1.369 . S
C160 C169 1.429 . S
C161 C159 1.419 1_554 S
C161 C162 1.363 . S
C161 H164 0.929 . S
C162 C161 1.363 . S
C162 C168 1.428 . S
H163 C159 0.930 . S
H164 C161 0.929 . S
S165 N166 1.613 1_554 S
S165 N167 1.610 . S
N166 S165 1.613 1_556 S
N166 C169 1.350 . S
N167 S165 1.610 . S
N167 C168 1.351 . S
C168 C162 1.428 . S
C168 N167 1.351 . S
C168 C169 1.434 1_554 S
C169 C160 1.429 . S
C169 N166 1.350 . S
C169 C168 1.434 1_556 S
C170 C171 1.369 . S
C170 C172 1.419 . S
C170 H174 0.930 . S
C171 C170 1.369 . S
C171 C180 1.429 . S
C172 C170 1.419 . S
C172 C173 1.363 . S
C172 H175 0.929 . S
C173 C172 1.363 . S
C173 C179 1.428 . S
H174 C170 0.930 . S
H175 C172 0.929 . S
S176 N177 1.613 . S
S176 N178 1.610 . S
N177 S176 1.613 . S
N177 C180 1.350 . S
N178 S176 1.610 . S
N178 C179 1.351 . S
C179 C173 1.428 . S
C179 N178 1.351 . S
C179 C180 1.434 . S
C180 C171 1.429 . S
C180 N177 1.350 . S
C180 C179 1.434 . S
C181 C182 1.369 . S
C181 C183 1.419 1_556 S
C181 H185 0.930 . S
C182 C181 1.369 . S
C182 C191 1.429 . S
C183 C181 1.419 1_554 S
C183 C184 1.363 . S
C183 H186 0.929 . S
C184 C183 1.363 . S
C184 C190 1.428 . S
H185 C181 0.930 . S
H186 C183 0.929 . S
S187 N188 1.613 . S
S187 N189 1.610 1_556 S
N188 S187 1.613 . S
N188 C191 1.350 . S
N189 S187 1.610 1_554 S
N189 C190 1.351 . S
C190 C184 1.428 . S
C190 N189 1.351 . S
C190 C191 1.434 1_554 S
C191 C182 1.429 . S
C191 N188 1.350 . S
C191 C190 1.434 1_556 S
C192 C193 1.369 . S
C192 C194 1.419 . S
C192 H196 0.930 . S
C193 C192 1.369 . S
C193 C202 1.429 . S
C194 C192 1.419 . S
C194 C195 1.363 . S
C194 H197 0.929 . S
C195 C194 1.363 . S
C195 C201 1.428 . S
H196 C192 0.930 . S
H197 C194 0.929 . S
S198 N199 1.613 . S
S198 N200 1.610 . S
N199 S198 1.613 . S
N199 C202 1.350 . S
N200 S198 1.610 . S
N200 C201 1.351 . S
C201 C195 1.428 . S
C201 N200 1.351 . S
C201 C202 1.434 . S
C202 C193 1.429 . S
C202 N199 1.350 . S
C202 C201 1.434 . S
C203 C204 1.369 . S
C203 C205 1.419 . S
C203 H207 0.930 . S
C204 C203 1.369 . S
C204 C213 1.429 . S
C205 C203 1.419 . S
C205 C206 1.363 . S
C205 H208 0.929 . S
C206 C205 1.363 . S
C206 C212 1.428 . S
H207 C203 0.930 . S
H208 C205 0.929 . S
S209 N210 1.613 . S
S209 N211 1.610 . S
N210 S209 1.613 . S
N210 C213 1.350 . S
N211 S209 1.610 . S
N211 C212 1.351 . S
C212 C206 1.428 . S
C212 N211 1.351 . S
C212 C213 1.434 . S
C213 C204 1.429 . S
C213 N210 1.350 . S
C213 C212 1.434 . S
C214 C215 1.369 . S
C214 C216 1.419 . S
C214 H218 0.930 . S
C215 C214 1.369 . S
C215 C224 1.429 . S
C216 C214 1.419 . S
C216 C217 1.363 . S
C216 H219 0.929 . S
C217 C216 1.363 . S
C217 C223 1.428 . S
H218 C214 0.930 . S
H219 C216 0.929 . S
S220 N221 1.613 . S
S220 N222 1.610 . S
N221 S220 1.613 . S
N221 C224 1.350 . S
N222 S220 1.610 . S
N222 C223 1.351 . S
C223 C217 1.428 . S
C223 N222 1.351 . S
C223 C224 1.434 . S
C224 C215 1.429 . S
C224 N221 1.350 . S
C224 C223 1.434 . S
C225 C226 1.369 . S
C225 C227 1.419 . S
C225 H229 0.930 . S
C226 C225 1.369 . S
C226 C235 1.429 . S
C227 C225 1.419 . S
C227 C228 1.363 . S
C227 H230 0.929 . S
C228 C227 1.363 . S
C228 C234 1.428 . S
H229 C225 0.930 . S
H230 C227 0.929 . S
S231 N232 1.613 . S
S231 N233 1.610 . S
N232 S231 1.613 . S
N232 C235 1.350 . S
N233 S231 1.610 . S
N233 C234 1.351 . S
C234 C228 1.428 . S
C234 N233 1.351 . S
C234 C235 1.434 . S
C235 C226 1.429 . S
C235 N232 1.350 . S
C235 C234 1.434 . S
C236 C237 1.369 . S
C236 C238 1.419 . S
C236 H240 0.930 . S
C237 C236 1.369 . S
C237 C246 1.429 . S
C238 C236 1.419 . S
C238 C239 1.363 . S
C238 H241 0.929 . S
C239 C238 1.363 . S
C239 C245 1.428 . S
H240 C236 0.930 . S
H241 C238 0.929 . S
S242 N243 1.613 . S
S242 N244 1.610 . S
N243 S242 1.613 . S
N243 C246 1.350 . S
N244 S242 1.610 . S
N244 C245 1.351 . S
C245 C239 1.428 . S
C245 N244 1.351 . S
C245 C246 1.434 . S
C246 C237 1.429 . S
C246 N243 1.350 . S
C246 C245 1.434 . S
C247 C248 1.369 . S
C247 C249 1.419 . S
C247 H251 0.930 . S
C248 C247 1.369 . S
C248 C257 1.429 . S
C249 C247 1.419 . S
C249 C250 1.363 . S
C249 H252 0.929 . S
C250 C249 1.363 . S
C250 C256 1.428 . S
H251 C247 0.930 . S
H252 C249 0.929 . S
S253 N254 1.613 . S
S253 N255 1.610 . S
N254 S253 1.613 . S
N254 C257 1.350 . S
N255 S253 1.610 . S
N255 C256 1.351 . S
C256 C250 1.428 . S
C256 N255 1.351 . S
C256 C257 1.434 . S
C257 C248 1.429 . S
C257 N254 1.350 . S
C257 C256 1.434 . S
C258 C259 1.369 . S
C258 C260 1.419 . S
C258 H262 0.930 . S
C259 C258 1.369 . S
C259 C268 1.429 . S
C260 C258 1.419 . S
C260 C261 1.363 . S
C260 H263 0.929 . S
C261 C260 1.363 . S
C261 C267 1.428 . S
H262 C258 0.930 . S
H263 C260 0.929 . S
S264 N265 1.613 . S
S264 N266 1.610 . S
N265 S264 1.613 . S
N265 C268 1.350 . S
N266 S264 1.610 . S
N266 C267 1.351 . S
C267 C261 1.428 . S
C267 N266 1.351 . S
C267 C268 1.434 . S
C268 C259 1.429 . S
C268 N265 1.350 . S
C268 C267 1.434 . S
C269 C270 1.369 . S
C269 C271 1.419 . S
C269 H273 0.930 . S
C270 C269 1.369 . S
C270 C279 1.429 . S
C271 C269 1.419 . S
C271 C272 1.363 . S
C271 H274 0.929 . S
C272 C271 1.363 . S
C272 C278 1.428 . S
H273 C269 0.930 . S
H274 C271 0.929 . S
S275 N276 1.613 . S
S275 N277 1.610 . S
N276 S275 1.613 . S
N276 C279 1.350 . S
N277 S275 1.610 . S
N277 C278 1.351 . S
C278 C272 1.428 . S
C278 N277 1.351 . S
C278 C279 1.434 . S
C279 C270 1.429 . S
C279 N276 1.350 . S
C279 C278 1.434 . S
C105 C5 0.767 . S
C107 C31 0.745 . S
C116 C18 0.767 . S
C118 C44 0.747 . S
C127 C57 0.748 . S
C129 C83 0.762 . S
C138 C70 0.769 . S
C140 C96 0.746 . S
C149 C8 1.461 . S
C151 C73 1.458 . S
C160 C21 1.462 . S
C162 C86 1.457 . S
C171 C99 1.455 . S
C173 C34 1.450 . S
C182 C47 1.452 . S
C184 C60 1.451 . S
C193 C62 1.584 . S
C195 C0 1.655 . S
C204 C13 1.656 . S
C206 C75 1.582 1_565 S
C215 C26 1.656 . S
C217 C88 1.578 . S
C226 C39 1.653 . S
C228 C101 1.576 1_545 S
C237 C10 1.577 1_655 S
C239 C52 1.652 . S
C248 C65 1.652 . S
C250 C23 1.577 . S
C259 C78 1.651 . S
C261 C36 1.579 1_455 S
C270 C49 1.583 . S
C272 C91 1.655 . S
