# Generated by pormake.
# Topology zfd, (5)-cn, num edge types: 1
# Building blocks:
#     Node 0, Type 0, BuildingBlock: XOMCOT_clean_sbu_1, # of connection points: 5
#     Node 1, Type 0, BuildingBlock: XOMCOT_clean_sbu_1, # of connection points: 5
#     Node 2, Type 0, BuildingBlock: XOMCOT_clean_sbu_1, # of connection points: 5
#     Node 3, Type 0, BuildingBlock: XOMCOT_clean_sbu_1, # of connection points: 5
#     Node 4, Type 0, BuildingBlock: XOMCOT_clean_sbu_1, # of connection points: 5
#     Node 5, Type 0, BuildingBlock: XOMCOT_clean_sbu_1, # of connection points: 5
#     Node 6, Type 0, BuildingBlock: XOMCOT_clean_sbu_1, # of connection points: 5
#     Node 7, Type 0, BuildingBlock: XOMCOT_clean_sbu_1, # of connection points: 5
#     Node 8, Type 0, BuildingBlock: XOMCOT_clean_sbu_1, # of connection points: 5
#     Node 9, Type 0, BuildingBlock: XOMCOT_clean_sbu_1, # of connection points: 5
#     Node 10, Type 0, BuildingBlock: XOMCOT_clean_sbu_1, # of connection points: 5
#     Node 11, Type 0, BuildingBlock: XOMCOT_clean_sbu_1, # of connection points: 5
#     Node 12, Type 0, BuildingBlock: XOMCOT_clean_sbu_1, # of connection points: 5
#     Node 13, Type 0, BuildingBlock: XOMCOT_clean_sbu_1, # of connection points: 5
#     Node 14, Type 0, BuildingBlock: XOMCOT_clean_sbu_1, # of connection points: 5
#     Node 15, Type 0, BuildingBlock: XOMCOT_clean_sbu_1, # of connection points: 5
#     Edge 16, Type (0, 0), BuildingBlock: CIFDUS_clean_linker_0, # of connection points: 2
#     Edge 17, Type (0, 0), BuildingBlock: CIFDUS_clean_linker_0, # of connection points: 2
#     Edge 18, Type (0, 0), BuildingBlock: CIFDUS_clean_linker_0, # of connection points: 2
#     Edge 19, Type (0, 0), BuildingBlock: CIFDUS_clean_linker_0, # of connection points: 2
#     Edge 20, Type (0, 0), BuildingBlock: CIFDUS_clean_linker_0, # of connection points: 2
#     Edge 21, Type (0, 0), BuildingBlock: CIFDUS_clean_linker_0, # of connection points: 2
#     Edge 22, Type (0, 0), BuildingBlock: CIFDUS_clean_linker_0, # of connection points: 2
#     Edge 23, Type (0, 0), BuildingBlock: CIFDUS_clean_linker_0, # of connection points: 2
#     Edge 24, Type (0, 0), BuildingBlock: CIFDUS_clean_linker_0, # of connection points: 2
#     Edge 25, Type (0, 0), BuildingBlock: CIFDUS_clean_linker_0, # of connection points: 2
#     Edge 26, Type (0, 0), BuildingBlock: CIFDUS_clean_linker_0, # of connection points: 2
#     Edge 27, Type (0, 0), BuildingBlock: CIFDUS_clean_linker_0, # of connection points: 2
#     Edge 28, Type (0, 0), BuildingBlock: CIFDUS_clean_linker_0, # of connection points: 2
#     Edge 29, Type (0, 0), BuildingBlock: CIFDUS_clean_linker_0, # of connection points: 2
#     Edge 30, Type (0, 0), BuildingBlock: CIFDUS_clean_linker_0, # of connection points: 2
#     Edge 31, Type (0, 0), BuildingBlock: CIFDUS_clean_linker_0, # of connection points: 2
#     Edge 32, Type (0, 0), BuildingBlock: CIFDUS_clean_linker_0, # of connection points: 2
#     Edge 33, Type (0, 0), BuildingBlock: CIFDUS_clean_linker_0, # of connection points: 2
#     Edge 34, Type (0, 0), BuildingBlock: CIFDUS_clean_linker_0, # of connection points: 2
#     Edge 35, Type (0, 0), BuildingBlock: CIFDUS_clean_linker_0, # of connection points: 2
#     Edge 36, Type (0, 0), BuildingBlock: CIFDUS_clean_linker_0, # of connection points: 2
#     Edge 37, Type (0, 0), BuildingBlock: CIFDUS_clean_linker_0, # of connection points: 2
#     Edge 38, Type (0, 0), BuildingBlock: CIFDUS_clean_linker_0, # of connection points: 2
#     Edge 39, Type (0, 0), BuildingBlock: CIFDUS_clean_linker_0, # of connection points: 2
#     Edge 40, Type (0, 0), BuildingBlock: CIFDUS_clean_linker_0, # of connection points: 2
#     Edge 41, Type (0, 0), BuildingBlock: CIFDUS_clean_linker_0, # of connection points: 2
#     Edge 42, Type (0, 0), BuildingBlock: CIFDUS_clean_linker_0, # of connection points: 2
#     Edge 43, Type (0, 0), BuildingBlock: CIFDUS_clean_linker_0, # of connection points: 2
#     Edge 44, Type (0, 0), BuildingBlock: CIFDUS_clean_linker_0, # of connection points: 2
#     Edge 45, Type (0, 0), BuildingBlock: CIFDUS_clean_linker_0, # of connection points: 2
#     Edge 46, Type (0, 0), BuildingBlock: CIFDUS_clean_linker_0, # of connection points: 2
#     Edge 47, Type (0, 0), BuildingBlock: CIFDUS_clean_linker_0, # of connection points: 2
#     Edge 48, Type (0, 0), BuildingBlock: CIFDUS_clean_linker_0, # of connection points: 2
#     Edge 49, Type (0, 0), BuildingBlock: CIFDUS_clean_linker_0, # of connection points: 2
#     Edge 50, Type (0, 0), BuildingBlock: CIFDUS_clean_linker_0, # of connection points: 2
#     Edge 51, Type (0, 0), BuildingBlock: CIFDUS_clean_linker_0, # of connection points: 2
#     Edge 52, Type (0, 0), BuildingBlock: CIFDUS_clean_linker_0, # of connection points: 2
#     Edge 53, Type (0, 0), BuildingBlock: CIFDUS_clean_linker_0, # of connection points: 2
#     Edge 54, Type (0, 0), BuildingBlock: CIFDUS_clean_linker_0, # of connection points: 2
#     Edge 55, Type (0, 0), BuildingBlock: CIFDUS_clean_linker_0, # of connection points: 2
# Relax obj value: 0.235
# Max RMSD: 0.191
# Mean RMSD: 0.191
data_MOF--net-zfd--node1-XOMCOT_clean_sbu_1--edge1-CIFDUS_clean_linker_0
_symmetry_space_group_name_H-M    P1
_symmetry_Int_Tables_number       1
_symmetry_cell_setting            triclinic
loop_
_symmetry_equiv_pos_as_xyz
'x, y, z'
_cell_length_a     60.979136
_cell_length_b     61.367812
_cell_length_c     17.983029
_cell_angle_alpha  89.988426
_cell_angle_beta   89.848545
_cell_angle_gamma 90.424441
loop_
_atom_site_label
_atom_site_type_symbol
_atom_site_fract_x
_atom_site_fract_y
_atom_site_fract_z
_atom_type_partial_charge
C0 C 0.11699 0.24444 0.13844 0.0
C1 C 0.12923 0.23714 0.1969 0.0
N2 N 0.13129 0.21548 0.18908 0.0
N3 N 0.11172 0.22736 0.09454 0.0
C4 C 0.1205 0.20992 0.1267 0.0
H5 H 0.11243 0.26114 0.12767 0.0
Co6 Co 0.0962 0.23018 1.01056 0.0
C7 C 0.12007 0.20047 0.89368 0.0
O8 O 0.12054 0.21792 0.85137 0.0
N9 N 0.07955 0.23474 0.9272 0.0
C10 C 0.06117 0.23434 0.82124 0.0
C11 C 0.0746 0.22258 0.86696 0.0
C12 C 0.06755 0.2529 0.9196 0.0
N13 N 0.05707 0.25355 0.8543 0.0
O14 O 0.06941 0.21396 0.06166 0.0
H15 H 0.0791 0.20579 0.85846 0.0
H16 H 0.06524 0.26474 0.96347 0.0
O17 O 0.11084 0.202 0.95957 0.0
C18 C 0.06098 0.22111 0.12418 0.0
O19 O 0.07032 0.23808 0.15545 0.0
N20 N 0.1201 0.24843 0.97222 0.0
C21 C 0.15467 0.27902 0.94856 0.0
C22 C 0.15897 0.25677 0.96 0.0
C23 C 0.14158 0.24187 0.97241 0.0
C24 C 0.11584 0.27012 0.96316 0.0
C25 C 0.13261 0.28542 0.94999 0.0
H26 H 0.1456 0.22523 0.98604 0.0
H27 H 0.09957 0.27624 0.97148 0.0
H28 H 0.11985 0.1937 0.1031 0.0
H29 H 0.13644 0.24695 0.24062 0.0
H30 H 0.05317 0.22839 0.77144 0.0
H31 H 0.17566 0.25091 0.96069 0.0
H32 H 0.12829 0.30244 0.94492 0.0
C33 C 0.80325 0.10065 0.17078 0.0
C34 C 0.81095 0.11772 0.2126 0.0
N35 N 0.82128 0.13172 0.16644 0.0
N36 N 0.80903 0.10391 0.09919 0.0
C37 C 0.82023 0.12276 0.09865 0.0
H38 H 0.79271 0.08773 0.19087 0.0
Co39 Co 0.79785 0.09013 1.01824 0.0
C40 C 0.82989 0.10249 0.88148 0.0
O41 O 0.82223 0.08695 0.83843 0.0
N42 N 0.78516 0.07631 0.93679 0.0
C43 C 0.76199 0.07208 0.84249 0.0
C44 C 0.77623 0.08618 0.87691 0.0
C45 C 0.77651 0.05611 0.93605 0.0
N46 N 0.76195 0.05323 0.88073 0.0
O47 O 0.81294 0.06242 0.05441 0.0
H48 H 0.77888 0.10301 0.86134 0.0
H49 H 0.78063 0.04363 0.97542 0.0
O50 O 0.82304 0.10339 0.95019 0.0
C51 C 0.80001 0.05168 0.09961 0.0
O52 O 0.77957 0.05817 0.10464 0.0
N53 N 0.78024 0.11466 1.00033 0.0
C54 C 0.749 0.14779 1.00724 0.0
C55 C 0.76983 0.15169 0.97559 0.0
C56 C 0.78529 0.1348 0.97235 0.0
C57 C 0.75993 0.11049 0.02865 0.0
C58 C 0.74405 0.1266 0.03165 0.0
H59 H 0.80138 0.13819 0.94975 0.0
H60 H 0.75621 0.09447 0.0506 0.0
H61 H 0.82563 0.13085 0.04862 0.0
H62 H 0.80821 0.12009 0.2715 0.0
H63 H 0.75211 0.07572 0.79427 0.0
H64 H 0.77445 0.16776 0.956 0.0
H65 H 0.72808 0.12245 0.05423 0.0
C66 C 0.90015 0.77553 0.15931 0.0
C67 C 0.88681 0.7852 0.2104 0.0
N68 N 0.88348 0.80584 0.18805 0.0
N69 N 0.90489 0.78999 0.10483 0.0
C70 C 0.89477 0.80826 0.1239 0.0
H71 H 0.90588 0.7589 0.16126 0.0
Co72 Co 0.9206 0.78397 1.02228 0.0
C73 C 0.89531 0.80571 0.88419 0.0
O74 O 0.90368 0.79172 0.83739 0.0
N75 N 0.93685 0.77642 0.941 0.0
C76 C 0.95157 0.75794 0.84801 0.0
C77 C 0.93262 0.76205 0.88587 0.0
C78 C 0.95838 0.78071 0.93587 0.0
N79 N 0.96782 0.76932 0.88084 0.0
O80 O 0.94325 0.76886 0.09148 0.0
H81 H 0.91699 0.75424 0.87532 0.0
H82 H 0.96726 0.79048 0.97592 0.0
O83 O 0.89991 0.80378 0.95468 0.0
C84 C 0.95653 0.78179 0.12756 0.0
O85 O 0.95442 0.80279 0.11556 0.0
N86 N 0.9016 0.75889 1.00964 0.0
C87 C 0.87048 0.72525 0.98968 0.0
C88 C 0.86424 0.74712 0.99146 0.0
C89 C 0.87981 0.76346 1.00136 0.0
C90 C 0.90809 0.73758 1.01241 0.0
C91 C 0.89276 0.72046 1.00189 0.0
H92 H 0.87391 0.77993 1.0051 0.0
H93 H 0.92518 0.7338 1.02116 0.0
H94 H 0.89643 0.8231 0.092 0.0
H95 H 0.88049 0.77766 0.26048 0.0
H96 H 0.95339 0.74667 0.80218 0.0
H97 H 0.8472 0.75174 0.98629 0.0
H98 H 0.89836 0.70376 1.00205 0.0
C99 C 0.23705 0.89649 0.18136 0.0
C100 C 0.22811 0.896 0.25116 0.0
N101 N 0.20724 0.90269 0.24578 0.0
N102 N 0.22165 0.90296 0.13236 0.0
C103 C 0.20357 0.90637 0.17318 0.0
H104 H 0.25416 0.894 0.1683 0.0
Co105 Co 0.22898 0.91553 0.04452 0.0
C106 C 0.18764 0.88702 0.98251 0.0
O107 O 0.183 0.87638 0.04401 0.0
N108 N 0.23773 0.92825 0.9576 0.0
C109 C 0.2516 0.93074 0.84425 0.0
C110 C 0.23871 0.91845 0.89063 0.0
C111 C 0.25003 0.94635 0.95097 0.0
N112 N 0.25887 0.94834 0.88225 0.0
O113 O 0.21278 0.9436 0.07867 0.0
H114 H 0.2319 0.90258 0.87788 0.0
H115 H 0.25276 0.95745 0.99671 0.0
O116 O 0.20312 0.90169 0.98393 0.0
C117 C 0.22102 0.95343 0.13683 0.0
O118 O 0.23908 0.94546 0.16521 0.0
N119 N 0.24695 0.89108 1.02155 0.0
C120 C 0.2783 0.85803 1.00715 0.0
C121 C 0.25581 0.85297 1.01166 0.0
C122 C 0.24038 0.86975 1.01893 0.0
C123 C 0.26876 0.89618 1.01807 0.0
C124 C 0.28459 0.88004 1.00993 0.0
H125 H 0.22336 0.86542 0.02574 0.0
H126 H 0.27403 0.91294 1.02405 0.0
H127 H 0.18833 0.91241 0.15064 0.0
H128 H 0.23627 0.89131 0.30206 0.0
H129 H 0.25537 0.92671 0.78718 0.0
H130 H 0.2502 0.8362 1.01034 0.0
H131 H 0.30173 0.88477 1.00864 0.0
C132 C 0.09504 0.81249 0.38933 0.0
C133 C 0.1015 0.83063 0.35078 0.0
N134 N 0.10696 0.84631 0.39998 0.0
N135 N 0.0957 0.81691 0.46264 0.0
C136 C 0.10117 0.83807 0.46671 0.0
H137 H 0.09241 0.79649 0.36563 0.0
Co138 Co 0.09271 0.79643 0.53626 0.0
C139 C 0.13074 0.82723 0.61954 0.0
O140 O 0.14003 0.83594 0.56068 0.0
N141 N 0.0899 0.7756 0.60875 0.0
C142 C 0.0986 0.75396 0.70306 0.0
C143 C 0.10665 0.76808 0.65055 0.0
C144 C 0.07198 0.76569 0.63586 0.0
N145 N 0.07688 0.75233 0.69284 0.0
O146 O 0.0679 0.78289 0.46923 0.0
H147 H 0.12355 0.77333 0.64546 0.0
H148 H 0.05546 0.76971 0.61899 0.0
O149 O 0.11477 0.81314 0.61034 0.0
C150 C 0.05379 0.76887 0.44294 0.0
O151 O 0.05275 0.74944 0.47343 0.0
N152 N 0.1154 0.77834 0.49271 0.0
C153 C 0.15004 0.74869 0.46967 0.0
C154 C 0.15398 0.77121 0.47624 0.0
C155 C 0.13654 0.78559 0.48791 0.0
C156 C 0.11106 0.75675 0.47941 0.0
C157 C 0.12804 0.74171 0.46848 0.0
H158 H 0.14025 0.80235 0.49716 0.0
H159 H 0.09456 0.75056 0.48423 0.0
H160 H 0.10381 0.84657 0.5185 0.0
H161 H 0.10621 0.83067 0.29263 0.0
H162 H 0.10757 0.74699 0.74905 0.0
H163 H 0.17054 0.7777 0.4752 0.0
H164 H 0.12391 0.72458 0.46407 0.0
C165 C 0.23185 0.11034 0.39462 0.0
C166 C 0.22284 0.12083 0.33509 0.0
N167 N 0.20099 0.12096 0.34514 0.0
N168 N 0.21561 0.10454 0.44185 0.0
C169 C 0.19698 0.11096 0.41007 0.0
H170 H 0.2491 0.10749 0.40398 0.0
Co171 Co 0.21944 0.0894 0.52596 0.0
C172 C 0.1927 0.11511 0.64594 0.0
O173 O 0.2108 0.11434 0.68534 0.0
N174 N 0.22438 0.07274 0.60861 0.0
C175 C 0.22435 0.05372 0.71335 0.0
C176 C 0.21289 0.06838 0.67126 0.0
C177 C 0.24159 0.05922 0.61098 0.0
N178 N 0.24246 0.04827 0.67514 0.0
O179 O 0.20264 0.06351 0.47818 0.0
H180 H 0.1967 0.0743 0.6842 0.0
H181 H 0.25281 0.05676 0.56507 0.0
O182 O 0.19254 0.1054 0.58075 0.0
C183 C 0.21287 0.05443 0.42234 0.0
O184 O 0.23202 0.0626 0.4033 0.0
N185 N 0.23882 0.11234 0.56008 0.0
C186 C 0.27138 0.14519 0.57045 0.0
C187 C 0.24914 0.15053 0.5624 0.0
C188 C 0.23319 0.13393 0.5567 0.0
C189 C 0.26043 0.10707 0.5677 0.0
C190 C 0.27675 0.12305 0.57424 0.0
H191 H 0.21652 0.13853 0.54447 0.0
H192 H 0.26569 0.09051 0.56242 0.0
H193 H 0.18097 0.1094 0.43575 0.0
H194 H 0.2316 0.1288 0.29011 0.0
H195 H 0.21904 0.04642 0.76525 0.0
H196 H 0.24413 0.16737 0.55828 0.0
H197 H 0.29369 0.11797 0.57739 0.0
C198 C 0.90672 0.24189 0.38679 0.0
C199 C 0.88883 0.24177 0.34102 0.0
N200 N 0.87614 0.22489 0.36151 0.0
N201 N 0.90554 0.22466 0.4335 0.0
C202 C 0.88673 0.21447 0.41635 0.0
H203 H 0.91877 0.25483 0.38992 0.0
Co204 Co 0.92147 0.22407 0.51812 0.0
C205 C 0.89944 0.19265 0.63213 0.0
O206 O 0.90268 0.20897 0.67817 0.0
N207 N 0.93809 0.22488 0.60305 0.0
C208 C 0.95746 0.2147 0.70097 0.0
C209 C 0.94842 0.20792 0.63495 0.0
C210 C 0.94188 0.24189 0.64862 0.0
N211 N 0.95299 0.236 0.70941 0.0
O212 O 0.94691 0.20801 0.46128 0.0
H213 H 0.94911 0.19166 0.61192 0.0
H214 H 0.93744 0.25851 0.63721 0.0
O215 O 0.90571 0.19529 0.56264 0.0
C216 C 0.9591 0.21921 0.41469 0.0
O217 O 0.95559 0.24021 0.41007 0.0
N218 N 0.89868 0.24236 0.56098 0.0
C219 C 0.86463 0.27317 0.58289 0.0
C220 C 0.86053 0.25059 0.58573 0.0
C221 C 0.87749 0.23564 0.57356 0.0
C222 C 0.90282 0.26426 0.55579 0.0
C223 C 0.88634 0.27981 0.56815 0.0
H224 H 0.87284 0.21876 0.56835 0.0
H225 H 0.9188 0.26985 0.5375 0.0
H226 H 0.88043 0.20025 0.44517 0.0
H227 H 0.8851 0.25334 0.29746 0.0
H228 H 0.96763 0.20514 0.7377 0.0
H229 H 0.84403 0.24433 0.59287 0.0
H230 H 0.89062 0.29691 0.56412 0.0
C231 C 0.81092 0.92459 0.37493 0.0
C232 C 0.82633 0.9206 0.32238 0.0
N233 N 0.8447 0.91409 0.35692 0.0
N234 N 0.81962 0.92139 0.44292 0.0
C235 C 0.84036 0.9154 0.43048 0.0
H236 H 0.79389 0.92799 0.36373 0.0
Co237 Co 0.80394 0.92554 0.52735 0.0
C238 C 0.81935 0.88265 0.62075 0.0
O239 O 0.80065 0.872 0.61899 0.0
N240 N 0.7871 0.93063 0.61185 0.0
C241 C 0.76162 0.92783 0.70064 0.0
C242 C 0.77617 0.91659 0.65706 0.0
C243 C 0.77909 0.95026 0.62972 0.0
N244 N 0.7632 0.94887 0.68151 0.0
O245 O 0.79048 0.95177 0.4723 0.0
H246 H 0.77669 0.89919 0.6539 0.0
H247 H 0.78418 0.9653 0.60326 0.0
O248 O 0.8213 0.90115 0.58563 0.0
C249 C 0.78211 0.96825 0.43735 0.0
O250 O 0.76537 0.97811 0.46814 0.0
N251 N 0.78186 0.90539 0.49248 0.0
C252 C 0.74927 0.87383 0.4628 0.0
C253 C 0.77166 0.86891 0.45582 0.0
C254 C 0.78762 0.8849 0.47048 0.0
C255 C 0.76018 0.91099 0.49357 0.0
C256 C 0.74368 0.89542 0.4802 0.0
H257 H 0.80474 0.88051 0.4671 0.0
H258 H 0.75547 0.92738 0.50845 0.0
H259 H 0.85133 0.91005 0.47395 0.0
H260 H 0.8231 0.91931 0.26331 0.0
H261 H 0.74989 0.92102 0.7397 0.0
H262 H 0.7769 0.85257 0.44218 0.0
H263 H 0.72667 0.90023 0.4843 0.0
C264 C 0.62134 0.74634 0.67373 0.0
C265 C 0.63981 0.74372 0.716 0.0
N266 N 0.64961 0.72535 0.69329 0.0
N267 N 0.61931 0.72929 0.62667 0.0
C268 C 0.63677 0.71681 0.63988 0.0
H269 H 0.61052 0.7602 0.67521 0.0
Co270 Co 0.6009 0.7293 0.54757 0.0
C271 C 0.62388 0.70099 0.42719 0.0
O272 O 0.62006 0.7173 0.38176 0.0
N273 N 0.58189 0.73064 0.4682 0.0
C274 C 0.56102 0.72285 0.37075 0.0
C275 C 0.57449 0.71432 0.42432 0.0
C276 C 0.57158 0.74855 0.44345 0.0
N277 N 0.55949 0.74439 0.38309 0.0
O278 O 0.5781 0.71046 0.60497 0.0
H279 H 0.5784 0.69729 0.43122 0.0
H280 H 0.57201 0.76426 0.47005 0.0
O281 O 0.61709 0.70271 0.49593 0.0
C282 C 0.56809 0.71902 0.66199 0.0
O283 O 0.57368 0.73889 0.68132 0.0
N284 N 0.62099 0.75002 0.50304 0.0
C285 C 0.65098 0.7851 0.48657 0.0
C286 C 0.65762 0.76345 0.476 0.0
C287 C 0.64258 0.74619 0.48608 0.0
C288 C 0.61446 0.77104 0.51366 0.0
C289 C 0.62885 0.78866 0.50381 0.0
H290 H 0.64903 0.7299 0.48709 0.0
H291 H 0.59868 0.77426 0.53816 0.0
H292 H 0.64 0.70159 0.61164 0.0
H293 H 0.64537 0.75412 0.76087 0.0
H294 H 0.55216 0.71387 0.32845 0.0
H295 H 0.67469 0.75971 0.46578 0.0
H296 H 0.62285 0.80495 0.51406 0.0
C297 C 0.26661 0.61175 0.64617 0.0
C298 C 0.26966 0.62427 0.7086 0.0
N299 N 0.29064 0.63091 0.70789 0.0
N300 N 0.28559 0.61094 0.60728 0.0
C301 C 0.30001 0.62268 0.64645 0.0
H302 H 0.25151 0.60378 0.62967 0.0
Co303 Co 0.28804 0.59666 0.51995 0.0
C304 C 0.33119 0.61006 0.43608 0.0
O305 O 0.33389 0.58978 0.41489 0.0
N306 N 0.28891 0.58186 0.43157 0.0
C307 C 0.28575 0.57281 0.31251 0.0
C308 C 0.28725 0.58987 0.3617 0.0
C309 C 0.28863 0.56014 0.42361 0.0
N310 N 0.2868 0.55432 0.35219 0.0
O311 O 0.30442 0.57221 0.57555 0.0
H312 H 0.28653 0.60698 0.34758 0.0
H313 H 0.28852 0.54865 0.46906 0.0
O314 O 0.31583 0.61425 0.48437 0.0
C315 C 0.29179 0.55882 0.61271 0.0
O316 O 0.27054 0.56125 0.60498 0.0
N317 N 0.26981 0.61845 0.47718 0.0
C318 C 0.23721 0.64992 0.45167 0.0
C319 C 0.25932 0.656 0.4613 0.0
C320 C 0.2753 0.6401 0.4746 0.0
C321 C 0.24861 0.61213 0.46544 0.0
C322 C 0.23214 0.6275 0.45249 0.0
H323 H 0.29176 0.64544 0.48742 0.0
H324 H 0.2442 0.59509 0.47067 0.0
H325 H 0.31695 0.62527 0.63038 0.0
H326 H 0.25772 0.628 0.7513 0.0
H327 H 0.28355 0.57382 0.25289 0.0
H328 H 0.26425 0.67298 0.46059 0.0
H329 H 0.21538 0.62182 0.44698 0.0
C330 C 0.39919 0.27495 0.68685 0.0
C331 C 0.39594 0.28211 0.75846 0.0
N332 N 0.39777 0.30396 0.75796 0.0
N333 N 0.4025 0.29232 0.64205 0.0
C334 C 0.4012 0.30972 0.68656 0.0
H335 H 0.40114 0.25816 0.67003 0.0
Co336 Co 0.41702 0.29161 0.55381 0.0
C337 C 0.39208 0.31887 0.43985 0.0
O338 O 0.39454 0.30115 0.39974 0.0
N339 N 0.43293 0.29067 0.46615 0.0
C340 C 0.45195 0.30315 0.36974 0.0
C341 C 0.44063 0.30884 0.4323 0.0
C342 C 0.44098 0.27407 0.42546 0.0
N343 N 0.45202 0.28132 0.36538 0.0
O344 O 0.44204 0.3087 0.60455 0.0
H345 H 0.43871 0.32524 0.4532 0.0
H346 H 0.44036 0.25716 0.4417 0.0
O347 O 0.40011 0.31888 0.50758 0.0
C348 C 0.45942 0.29827 0.62599 0.0
O349 O 0.46236 0.27856 0.59959 0.0
N350 N 0.39427 0.27251 0.51743 0.0
C351 C 0.36035 0.24116 0.50658 0.0
C352 C 0.35566 0.26342 0.51187 0.0
C353 C 0.37269 0.27865 0.51962 0.0
C354 C 0.39909 0.25083 0.51278 0.0
C355 C 0.38247 0.23496 0.50662 0.0
H356 H 0.36828 0.29518 0.53303 0.0
H357 H 0.41571 0.24548 0.52102 0.0
H358 H 0.40453 0.32616 0.66762 0.0
H359 H 0.39405 0.27206 0.80756 0.0
H360 H 0.46123 0.31407 0.33407 0.0
H361 H 0.33885 0.26893 0.51538 0.0
H362 H 0.38688 0.2179 0.50487 0.0
C363 C 0.70051 0.41125 0.65512 0.0
C364 C 0.6805 0.40785 0.68801 0.0
N365 N 0.66527 0.4066 0.63405 0.0
N366 N 0.69779 0.41202 0.58085 0.0
C367 C 0.6762 0.40915 0.56959 0.0
H368 H 0.71608 0.4128 0.68331 0.0
Co369 Co 0.7184 0.4197 0.5129 0.0
C370 C 0.69302 0.40058 0.38248 0.0
O371 O 0.68767 0.42083 0.36808 0.0
N372 N 0.73929 0.42767 0.44396 0.0
C373 C 0.76736 0.42705 0.36479 0.0
C374 C 0.75215 0.41452 0.40241 0.0
C375 C 0.74629 0.4479 0.42872 0.0
N376 N 0.76389 0.44791 0.38366 0.0
O377 O 0.7277 0.44406 0.58863 0.0
H378 H 0.75088 0.39694 0.401 0.0
H379 H 0.73828 0.46245 0.44874 0.0
O380 O 0.70604 0.39701 0.43816 0.0
C381 C 0.73986 0.46031 0.61027 0.0
O382 O 0.75691 0.46613 0.57015 0.0
N383 N 0.73902 0.39883 0.55283 0.0
C384 C 0.77328 0.36858 0.57107 0.0
C385 C 0.75153 0.36155 0.55977 0.0
C386 C 0.73466 0.37692 0.55066 0.0
C387 C 0.7597 0.40581 0.57095 0.0
C388 C 0.77698 0.39106 0.57927 0.0
H389 H 0.71832 0.37116 0.5377 0.0
H390 H 0.7635 0.42298 0.57236 0.0
H391 H 0.66867 0.40826 0.51529 0.0
H392 H 0.67757 0.40482 0.74654 0.0
H393 H 0.77983 0.42141 0.32656 0.0
H394 H 0.74778 0.34438 0.55348 0.0
H395 H 0.79337 0.39733 0.58914 0.0
C396 C 0.60728 0.2792 0.85354 0.0
C397 C 0.60968 0.28869 0.78522 0.0
N398 N 0.61048 0.31043 0.79502 0.0
N399 N 0.60697 0.29483 0.90614 0.0
C400 C 0.60893 0.31372 0.86924 0.0
H401 H 0.60464 0.26204 0.86411 0.0
Co402 Co 0.59806 0.28806 0.99944 0.0
C403 C 0.62703 0.31527 0.10817 0.0
O404 O 0.63265 0.29625 0.1343 0.0
N405 N 0.58787 0.27911 0.09479 0.0
C406 C 0.58465 0.26186 0.20385 0.0
C407 C 0.59848 0.26713 0.14696 0.0
C408 C 0.56728 0.28058 0.12221 0.0
N409 N 0.565 0.27014 0.18795 0.0
O410 O 0.56945 0.30391 0.97321 0.0
H411 H 0.61517 0.26154 0.14434 0.0
H412 H 0.55404 0.28877 0.09424 0.0
O413 O 0.61362 0.31569 0.05124 0.0
C414 C 0.55421 0.29276 0.93925 0.0
O415 O 0.55574 0.27144 0.94112 0.0
N416 N 0.6239 0.27108 1.00876 0.0
C417 C 0.65974 0.24306 0.99645 0.0
C418 C 0.66259 0.26566 0.9896 0.0
C419 C 0.6444 0.27938 0.99487 0.0
C420 C 0.62073 0.24902 1.01007 0.0
C421 C 0.63847 0.23477 1.00669 0.0
H422 H 0.6467 0.29664 0.98551 0.0
H423 H 0.60425 0.24245 1.01374 0.0
H424 H 0.60845 0.32945 0.89628 0.0
H425 H 0.60982 0.28026 0.73242 0.0
H426 H 0.58851 0.25186 0.2516 0.0
H427 H 0.67868 0.27264 0.97947 0.0
H428 H 0.63549 0.21736 1.00943 0.0
C429 C 0.69089 0.59081 0.90517 0.0
C430 C 0.68017 0.60606 0.86346 0.0
N431 N 0.67751 0.6238 0.90604 0.0
N432 N 0.69547 0.59929 0.97295 0.0
C433 C 0.68618 0.61906 0.97223 0.0
H434 H 0.69594 0.5751 0.88468 0.0
Co435 Co 0.71362 0.58838 0.04619 0.0
C436 C 0.69156 0.60994 0.18397 0.0
O437 O 0.68877 0.59051 0.21323 0.0
N438 N 0.73139 0.57744 0.11925 0.0
C439 C 0.75825 0.57363 0.20107 0.0
C440 C 0.74546 0.58838 0.16383 0.0
C441 C 0.73503 0.55633 0.13293 0.0
N442 N 0.75187 0.55352 0.18007 0.0
O443 O 0.72292 0.56406 0.96984 0.0
H444 H 0.74713 0.60593 0.16598 0.0
H445 H 0.72589 0.54323 0.10693 0.0
O446 O 0.70193 0.61145 0.12109 0.0
C447 C 0.73511 0.54776 0.9501 0.0
O448 O 0.75154 0.54202 0.99235 0.0
N449 N 0.73764 0.60766 1.01561 0.0
C450 C 0.77555 0.63398 1.00025 0.0
C451 C 0.75508 0.64324 1.01519 0.0
C452 C 0.73648 0.62984 1.02366 0.0
C453 C 0.75743 0.59868 0.99707 0.0
C454 C 0.77648 0.61142 0.98994 0.0
H455 H 0.72157 0.63754 0.0411 0.0
H456 H 0.75923 0.58139 0.99366 0.0
H457 H 0.68721 0.63072 1.0168 0.0
H458 H 0.67602 0.6048 0.8051 0.0
H459 H 0.77176 0.5774 0.23794 0.0
H460 H 0.75367 0.66061 0.02456 0.0
H461 H 0.79198 0.60356 0.97859 0.0
C462 C 0.40972 0.71663 0.89023 0.0
C463 C 0.3952 0.70567 0.84588 0.0
N464 N 0.3901 0.68676 0.87983 0.0
N465 N 0.41363 0.70453 0.95126 0.0
C466 C 0.40182 0.6862 0.94279 0.0
H467 H 0.41546 0.73317 0.88201 0.0
Co468 Co 0.42741 0.71546 0.032 0.0
C469 C 0.40239 0.69214 0.16247 0.0
O470 O 0.3991 0.71187 0.18842 0.0
N471 N 0.44222 0.72759 0.11124 0.0
C472 C 0.45852 0.73581 0.21744 0.0
C473 C 0.44548 0.72092 0.18179 0.0
C474 C 0.45464 0.74573 0.10421 0.0
N475 N 0.46419 0.7515 0.16852 0.0
O476 O 0.45574 0.70029 0.99828 0.0
H477 H 0.44046 0.70547 0.20496 0.0
H478 H 0.45769 0.75383 0.05167 0.0
O479 O 0.41439 0.69014 0.10223 0.0
C480 C 0.46517 0.70991 0.94175 0.0
O481 O 0.45607 0.72769 0.91623 0.0
N482 N 0.4019 0.73301 0.05113 0.0
C483 C 0.36588 0.76157 0.05103 0.0
C484 C 0.36273 0.73889 0.05413 0.0
C485 C 0.38087 0.72493 0.05247 0.0
C486 C 0.40506 0.75503 0.04613 0.0
C487 C 0.38746 0.7695 0.04733 0.0
H488 H 0.37785 0.70759 0.05015 0.0
H489 H 0.42119 0.76167 0.03685 0.0
H490 H 0.39984 0.67387 0.98534 0.0
H491 H 0.38758 0.71187 0.7959 0.0
H492 H 0.46533 0.73394 0.27263 0.0
H493 H 0.34637 0.73192 0.05469 0.0
H494 H 0.39081 0.78682 0.04386 0.0
C495 C 0.32907 0.41476 0.88081 0.0
C496 C 0.34967 0.40932 0.85666 0.0
N497 N 0.36256 0.40642 0.9166 0.0
N498 N 0.32911 0.41526 0.95564 0.0
C499 C 0.34972 0.41048 0.9757 0.0
H500 H 0.31476 0.41708 0.84638 0.0
Co501 Co 0.30643 0.42111 1.0185 0.0
C502 C 0.32782 0.40267 0.16007 0.0
O503 O 0.3287 0.42275 0.1852 0.0
N504 N 0.28384 0.42709 0.08226 0.0
C505 C 0.25944 0.42511 0.17366 0.0
C506 C 0.27316 0.41329 0.12859 0.0
C507 C 0.27612 0.44688 0.09852 0.0
N508 N 0.26122 0.44616 0.15373 0.0
O509 O 0.29578 0.44446 0.94228 0.0
H510 H 0.27624 0.39599 0.13265 0.0
H511 H 0.28306 0.4618 0.0761 0.0
O512 O 0.31888 0.39928 0.09567 0.0
C513 C 0.30762 0.46118 0.92192 0.0
O514 O 0.3267 0.46392 0.95448 0.0
N515 N 0.28835 0.39832 0.97521 0.0
C516 C 0.2577 0.36381 0.95714 0.0
C517 C 0.28016 0.35978 0.96895 0.0
C518 C 0.29513 0.37714 0.97765 0.0
C519 C 0.26708 0.40262 0.95611 0.0
C520 C 0.25154 0.3857 0.94762 0.0
H521 H 0.312 0.37347 0.99066 0.0
H522 H 0.2615 0.41928 0.95393 0.0
H523 H 0.35491 0.4082 0.0326 0.0
H524 H 0.35413 0.40529 0.79999 0.0
H525 H 0.25055 0.41909 0.22173 0.0
H526 H 0.28613 0.34328 0.974 0.0
H527 H 0.23457 0.38995 0.93839 0.0
H528 H 0.19495 0.28175 1.01856 0.0
H529 H 0.15522 0.31451 0.85557 0.0
H530 H 0.18303 0.34307 0.84314 0.0
H531 H 0.21868 0.35933 0.879 0.0
H532 H 0.25806 0.32688 0.04402 0.0
H533 H 0.23084 0.29779 0.05326 0.0
C534 C 0.19245 0.29496 0.97952 0.0
C535 C 0.17274 0.29577 0.93832 0.0
C536 C 0.20864 0.31156 0.97254 0.0
C537 C 0.16992 0.31338 0.88895 0.0
C538 C 0.18594 0.32979 0.88148 0.0
C539 C 0.22138 0.34598 0.91729 0.0
C540 C 0.24084 0.34554 0.96008 0.0
C541 C 0.20535 0.32919 0.92335 0.0
C542 C 0.24374 0.32774 1.00874 0.0
C543 C 0.22797 0.31104 1.01473 0.0
H544 H 0.67094 0.21073 0.09124 0.0
H545 H 0.69081 0.24174 0.88672 0.0
H546 H 0.72065 0.21551 0.8722 0.0
H547 H 0.73999 0.18253 0.9152 0.0
H548 H 0.72105 0.15338 0.12468 0.0
H549 H 0.69197 0.17986 0.13905 0.0
C550 C 0.68186 0.21174 0.04362 0.0
C551 C 0.67863 0.22801 0.98991 0.0
C552 C 0.69908 0.19679 0.03613 0.0
C553 C 0.69305 0.22937 0.92895 0.0
C554 C 0.71005 0.21432 0.92051 0.0
C555 C 0.72973 0.18212 0.96447 0.0
C556 C 0.73253 0.1655 1.01771 0.0
C557 C 0.71312 0.19781 0.97347 0.0
C558 C 0.71894 0.16541 0.08128 0.0
C559 C 0.70234 0.18071 0.09006 0.0
H560 H 0.78424 0.67095 0.9213 0.0
H561 H 0.81271 0.62732 0.08123 0.0
H562 H 0.84541 0.65066 0.08935 0.0
H563 H 0.86499 0.68499 0.05648 0.0
H564 H 0.83695 0.72708 0.89012 0.0
H565 H 0.80534 0.70295 0.87898 0.0
C566 C 0.79767 0.66653 0.95759 0.0
C567 C 0.79598 0.64752 1.00092 0.0
C568 C 0.81657 0.67985 0.96113 0.0
C569 C 0.81364 0.64185 0.0471 0.0
C570 C 0.83233 0.65523 0.05193 0.0
C571 C 0.85218 0.68866 1.0168 0.0
C572 C 0.85325 0.7082 0.97559 0.0
C573 C 0.83391 0.67446 1.0098 0.0
C574 C 0.83639 0.71254 0.92426 0.0
C575 C 0.81825 0.69869 0.91754 0.0
H576 H 0.36124 0.79779 0.96436 0.0
H577 H 0.32761 0.75976 0.13173 0.0
H578 H 0.29706 0.7854 0.13017 0.0
H579 H 0.28055 0.81965 0.08504 0.0
H580 H 0.31471 0.8576 0.91857 0.0
H581 H 0.3444 0.83116 0.91676 0.0
C582 C 0.34732 0.79515 1.00098 0.0
C583 C 0.3469 0.77688 0.04855 0.0
C584 C 0.32986 0.81003 1.00009 0.0
C585 C 0.3284 0.77355 0.09422 0.0
C586 C 0.31094 0.78829 0.0936 0.0
C587 C 0.29434 0.82197 0.04761 0.0
C588 C 0.29537 0.84072 1.00225 0.0
C589 C 0.31153 0.80668 0.04709 0.0
C590 C 0.31356 0.84353 0.95477 0.0
C591 C 0.33055 0.82837 0.95354 0.0
H592 H 0.15359 0.70943 0.39515 0.0
H593 H 0.18857 0.75139 0.54761 0.0
H594 H 0.21842 0.72537 0.55345 0.0
H595 H 0.23431 0.69001 0.51968 0.0
H596 H 0.19959 0.64785 0.36733 0.0
H597 H 0.16994 0.67422 0.3593 0.0
C598 C 0.16768 0.71292 0.4299 0.0
C599 C 0.16865 0.73267 0.47026 0.0
C600 C 0.18491 0.69764 0.43387 0.0
C601 C 0.18733 0.73673 0.51438 0.0
C602 C 0.20444 0.72168 0.51843 0.0
C603 C 0.22048 0.68664 0.48365 0.0
C604 C 0.21944 0.66673 0.44424 0.0
C605 C 0.20342 0.70203 0.47866 0.0
C606 C 0.20093 0.66274 0.39929 0.0
C607 C 0.18393 0.67794 0.39423 0.0
H608 H 0.35689 0.20459 0.59256 0.0
H609 H 0.32254 0.24105 0.42492 0.0
H610 H 0.29175 0.21529 0.43146 0.0
H611 H 0.27459 0.18209 0.48423 0.0
H612 H 0.30868 0.14641 0.65483 0.0
H613 H 0.33939 0.172 0.64741 0.0
C614 C 0.34277 0.20675 0.55683 0.0
C615 C 0.34216 0.22467 0.50784 0.0
C616 C 0.32494 0.19203 0.56169 0.0
C617 C 0.32348 0.22744 0.46312 0.0
C618 C 0.30584 0.21271 0.4669 0.0
C619 C 0.28858 0.18007 0.52063 0.0
C620 C 0.2892 0.16217 0.56988 0.0
C621 C 0.30631 0.19497 0.51624 0.0
C622 C 0.30774 0.15978 0.61569 0.0
C623 C 0.32536 0.17447 0.61161 0.0
H624 H 0.77789 0.32876 0.64076 0.0
H625 H 0.81149 0.37331 0.49332 0.0
H626 H 0.84242 0.34839 0.4844 0.0
H627 H 0.85978 0.31347 0.51556 0.0
H628 H 0.82726 0.26972 0.66911 0.0
H629 H 0.79631 0.29447 0.67726 0.0
C630 C 0.79198 0.333 0.60669 0.0
C631 C 0.79224 0.35304 0.568 0.0
C632 C 0.81002 0.3186 0.60238 0.0
C633 C 0.81082 0.35822 0.52453 0.0
C634 C 0.82855 0.34388 0.51907 0.0
C635 C 0.84617 0.30937 0.55192 0.0
C636 C 0.84615 0.28935 0.59104 0.0
C637 C 0.82838 0.32399 0.55769 0.0
C638 C 0.82787 0.28458 0.63672 0.0
C639 C 0.81007 0.29888 0.64196 0.0
H640 H 0.71214 0.86755 0.5464 0.0
H641 H 0.74759 0.84054 0.36058 0.0
H642 H 0.7206 0.81103 0.35081 0.0
H643 H 0.68695 0.79239 0.39616 0.0
H644 H 0.65217 0.81947 0.58358 0.0
H645 H 0.67846 0.84939 0.59028 0.0
C646 C 0.71385 0.8554 0.50304 0.0
C647 C 0.73203 0.8564 0.45438 0.0
C648 C 0.69825 0.83836 0.49779 0.0
C649 C 0.73401 0.84016 0.39948 0.0
C650 C 0.71848 0.82327 0.39363 0.0
C651 C 0.68513 0.8048 0.43855 0.0
C652 C 0.66727 0.80361 0.4886 0.0
C653 C 0.70059 0.82207 0.44285 0.0
C654 C 0.66529 0.82004 0.54295 0.0
C655 C 0.6805 0.83717 0.54737 0.0
H656 H 0.964 0.22048 0.26126 0.0
H657 H 0.99865 0.20141 0.45874 0.0
H658 H 0.03265 0.19832 0.38585 0.0
H659 H 0.05395 0.20557 0.26784 0.0
H660 H 0.0188 0.22233 0.06886 0.0
H661 H 0.98419 0.22148 0.13899 0.0
C662 C 0.97877 0.21478 0.2882 0.0
C663 C 0.97809 0.21064 0.36658 0.0
C664 C 0.99856 0.21286 0.24497 0.0
C665 C 0.99797 0.20404 0.39924 0.0
C666 C 0.01768 0.20259 0.35717 0.0
C667 C 0.03864 0.20815 0.23873 0.0
C668 C 0.03948 0.21341 0.16112 0.0
C669 C 0.01841 0.20747 0.28018 0.0
C670 C 0.01914 0.21746 0.12675 0.0
C671 C 0.99918 0.2173 0.1677 0.0
H672 H 0.81333 1.00052 0.40383 0.0
H673 H 0.76602 0.95771 0.30147 0.0
H674 H 0.76948 0.97791 0.18467 0.0
H675 H 0.78201 0.01086 0.11555 0.0
H676 H 0.82993 0.0536 0.2145 0.0
H677 H 0.8305 0.0305 0.32623 0.0
C678 C 0.80444 0.99503 0.35513 0.0
C679 C 0.7898 0.97689 0.36212 0.0
C680 C 0.80648 0.00705 0.2868 0.0
C681 C 0.77785 0.97093 0.29828 0.0
C682 C 0.77966 0.98276 0.23118 0.0
C683 C 0.79338 0.01465 0.16009 0.0
C684 C 0.80647 0.03389 0.15424 0.0
C685 C 0.79345 1.00122 0.22507 0.0
C686 C 0.82031 0.03869 0.21486 0.0
C687 C 0.82031 0.02556 0.27987 0.0
H688 H 0.02346 0.74175 0.37073 0.0
H689 H 0.04613 0.80851 0.37347 0.0
H690 H 0.01911 0.81765 0.27807 0.0
H691 H 0.98834 0.80731 0.19475 0.0
H692 H 0.96537 0.74071 0.18947 0.0
H693 H 0.99296 0.73111 0.28358 0.0
C694 C 0.02266 0.75836 0.35057 0.0
C695 C 0.03735 0.77437 0.38091 0.0
C696 C 1.00678 0.76361 0.29458 0.0
C697 C 0.03555 0.79568 0.35248 0.0
C698 C 0.01989 0.80096 0.29748 0.0
C699 C 0.98922 0.79057 0.21358 0.0
C700 C 0.97424 0.77482 0.18353 0.0
C701 C 1.00531 0.78514 0.2682 0.0
C702 C 0.97628 0.75332 0.21005 0.0
C703 C 0.99219 0.74783 0.26453 0.0
H704 H 0.20793 0.04896 0.2708 0.0
H705 H 0.20496 0.0129 0.47595 0.0
H706 H 0.2053 0.97858 0.40556 0.0
H707 H 0.21117 0.95853 0.28555 0.0
H708 H 0.21228 0.99445 0.07992 0.0
H709 H 0.2076 0.02861 0.1495 0.0
C710 C 0.20645 0.03362 0.30033 0.0
C711 C 0.20582 0.03397 0.37981 0.0
C712 C 0.20661 0.01367 0.25871 0.0
C713 C 0.20468 0.01359 0.41578 0.0
C714 C 0.20524 0.9938 0.37505 0.0
C715 C 0.20962 0.97374 0.25544 0.0
C716 C 0.21172 0.97346 0.17625 0.0
C717 C 0.20678 0.99356 0.2965 0.0
C718 C 0.21017 0.99368 0.13968 0.0
C719 C 0.20777 0.01339 0.18006 0.0
H720 H 0.06643 0.77768 0.80394 0.0
H721 H 0.05231 0.71612 0.70049 0.0
H722 H 0.01686 0.71414 0.76507 0.0
H723 H 0.9877 0.73389 0.82744 0.0
H724 H 0.99961 0.79901 0.90946 0.0
H725 H 0.03839 0.79588 0.87797 0.0
C726 C 0.05584 0.76347 0.79889 0.0
C727 C 0.06146 0.74701 0.74888 0.0
C728 C 0.035 0.76359 0.83028 0.0
C729 C 0.04797 0.72872 0.73992 0.0
C730 C 0.02772 0.72785 0.77566 0.0
C731 C 0.99874 0.74743 0.83813 0.0
C732 C 0.9908 0.76689 0.8684 0.0
C733 C 0.02059 0.74588 0.81681 0.0
C734 C 1.00541 0.78396 0.88531 0.0
C735 C 0.02752 0.78218 0.86737 0.0
H736 H 0.26928 0.95616 0.73766 0.0
H737 H 0.27514 0.98364 0.95794 0.0
H738 H 0.27657 0.02001 0.90537 0.0
H739 H 0.26297 0.0429 0.80338 0.0
H740 H 0.25388 0.01509 0.58601 0.0
H741 H 0.26707 0.97993 0.6303 0.0
C742 C 0.27133 0.96992 0.77459 0.0
C743 C 0.26977 0.96728 0.85211 0.0
C744 C 0.27113 0.99082 0.74422 0.0
C745 C 0.27442 0.98527 0.89817 0.0
C746 C 0.27534 1.00616 0.86818 0.0
C747 C 0.26478 0.02925 0.76559 0.0
C748 C 0.2569 0.03096 0.69299 0.0
C749 C 0.27147 0.00906 0.79225 0.0
C750 C 0.25964 0.01373 0.64273 0.0
C751 C 0.26702 0.99367 0.66818 0.0
H752 H 0.97951 0.26802 0.66906 0.0
H753 H 0.95194 0.23507 0.85866 0.0
H754 H 0.98194 0.24841 0.93689 0.0
H755 H 0.02112 0.25611 0.93493 0.0
H756 H 0.05186 0.27879 0.73398 0.0
H757 H 0.016 0.2842 0.67663 0.0
C758 C 0.97965 0.26484 0.72841 0.0
C759 C 0.96421 0.25035 0.75865 0.0
C760 C 0.99804 0.27057 0.77013 0.0
C761 C 0.96411 0.246 0.83503 0.0
C762 C 0.9813 0.25348 0.87919 0.0
C763 C 0.01968 0.26346 0.88028 0.0
C764 C 0.03861 0.26663 0.83745 0.0
C765 C 0.99931 0.26386 0.84538 0.0
C766 C 0.03717 0.27608 0.76682 0.0
C767 C 0.01673 0.27881 0.73399 0.0
H768 H 0.74401 0.04248 0.74905 0.0
H769 H 0.75373 0.01864 0.97233 0.0
H770 H 0.74875 0.98138 0.9295 0.0
H771 H 0.75316 0.95646 0.82334 0.0
H772 H 0.74527 0.98083 0.60084 0.0
H773 H 0.73702 0.01706 0.64865 0.0
C774 C 0.74429 0.02931 0.78906 0.0
C775 C 0.75094 0.03318 0.86242 0.0
C776 C 0.74191 0.00796 0.76383 0.0
C777 C 0.75021 0.01594 0.91413 0.0
C778 C 0.74717 0.99459 0.88991 0.0
C779 C 0.74866 0.96954 0.78596 0.0
C780 C 0.75073 0.96664 0.70919 0.0
C781 C 0.7449 0.99042 0.81388 0.0
C782 C 0.74455 0.9833 0.66035 0.0
C783 C 0.73986 1.00391 0.68763 0.0
H784 H 0.5624 0.71563 0.81383 0.0
H785 H 0.52907 0.70195 0.60813 0.0
H786 H 0.49474 0.69566 0.67713 0.0
H787 H 0.4729 0.69865 0.79542 0.0
H788 H 0.5067 0.71041 1.00152 0.0
H789 H 0.54171 0.71245 0.93403 0.0
C790 C 0.54783 0.71049 0.784 0.0
C791 C 0.54884 0.70894 0.70483 0.0
C792 C 0.52794 0.70669 0.82476 0.0
C793 C 0.52935 0.70276 0.66829 0.0
C794 C 0.5095 0.69942 0.70814 0.0
C795 C 0.48802 0.70071 0.82624 0.0
C796 C 0.48681 0.70368 0.90495 0.0
C797 C 0.50839 0.70186 0.78633 0.0
C798 C 0.50679 0.70722 0.94228 0.0
C799 C 0.52694 0.70875 0.90304 0.0
H800 H 0.33297 0.49401 0.85767 0.0
H801 H 0.26819 0.46553 0.8451 0.0
H802 H 0.25843 0.49217 0.7489 0.0
H803 H 0.26774 0.52429 0.66967 0.0
H804 H 0.33267 0.55242 0.67979 0.0
H805 H 0.34277 0.5253 0.77432 0.0
C806 C 0.31663 0.49347 0.83418 0.0
C807 C 0.30133 0.47739 0.8605 0.0
C808 C 0.31114 0.50894 0.77765 0.0
C809 C 0.28041 0.47736 0.82751 0.0
C810 C 0.27481 0.49275 0.77201 0.0
C811 C 0.28424 0.52456 0.69183 0.0
C812 C 0.29939 0.54084 0.66604 0.0
C813 C 0.28996 0.50872 0.74673 0.0
C814 C 0.32061 0.54036 0.69672 0.0
C815 C 0.32634 0.52478 0.75157 0.0
H816 H 0.50874 0.30067 0.93999 0.0
H817 H 0.56539 0.3025 0.79702 0.0
H818 H 0.54183 0.30569 0.6882 0.0
H819 H 0.50461 0.30366 0.63044 0.0
H820 H 0.44763 0.30532 0.77179 0.0
H821 H 0.47128 0.30555 0.88213 0.0
C822 C 0.51603 0.30273 0.88541 0.0
C823 C 0.53935 0.30193 0.87848 0.0
C824 C 0.50202 0.30498 0.82153 0.0
C825 C 0.54792 0.30376 0.80584 0.0
C826 C 0.53425 0.30531 0.74277 0.0
C827 C 0.49729 0.30493 0.68524 0.0
C828 C 0.474 0.305 0.69131 0.0
C829 C 0.51122 0.30542 0.74938 0.0
C830 C 0.46524 0.30595 0.76394 0.0
C831 C 0.47892 0.30576 0.82767 0.0
H832 H 0.72654 0.50392 0.93185 0.0
H833 H 0.73827 0.56258 0.80612 0.0
H834 H 0.74065 0.54103 0.69122 0.0
H835 H 0.74189 0.50496 0.62663 0.0
H836 H 0.72676 0.44663 0.75034 0.0
H837 H 0.72298 0.46832 0.86436 0.0
C838 C 0.72906 0.51208 0.87902 0.0
C839 C 0.73193 0.53512 0.87833 0.0
C840 C 0.72999 0.49946 0.81233 0.0
C841 C 0.73554 0.54514 0.80896 0.0
C842 C 0.73712 0.53269 0.74303 0.0
C843 C 0.73747 0.49696 0.67833 0.0
C844 C 0.7347 0.47389 0.67892 0.0
C845 C 0.73474 0.50977 0.74397 0.0
C846 C 0.72885 0.46413 0.74703 0.0
C847 C 0.72681 0.47664 0.81273 0.0
H848 H 0.52405 0.26611 0.13584 0.0
H849 H 0.56243 0.26701 0.33695 0.0
H850 H 0.52916 0.26408 0.41178 0.0
H851 H 0.48937 0.2676 0.41963 0.0
H852 H 0.45103 0.27165 0.22025 0.0
H853 H 0.48385 0.26536 0.14409 0.0
C854 C 0.52503 0.26562 0.19599 0.0
C855 C 0.54548 0.26718 0.23109 0.0
C856 C 0.50586 0.26444 0.23851 0.0
C857 C 0.54677 0.2659 0.30894 0.0
C858 C 0.5278 0.26422 0.35168 0.0
C859 C 0.48827 0.26605 0.35964 0.0
C860 C 0.46821 0.26982 0.32475 0.0
C861 C 0.50729 0.26417 0.31706 0.0
C862 C 0.46653 0.26847 0.24728 0.0
C863 C 0.48526 0.26529 0.20416 0.0
H864 H 0.77105 0.54388 0.30969 0.0
H865 H 0.75415 0.51714 0.09553 0.0
H866 H 0.76426 0.48111 0.13603 0.0
H867 H 0.76856 0.45642 0.24059 0.0
H868 H 0.78017 0.48211 0.45922 0.0
H869 H 0.78236 0.51917 0.40946 0.0
C870 C 0.77021 0.53024 0.27148 0.0
C871 C 0.76147 0.53314 0.20026 0.0
C872 C 0.775 0.50925 0.29656 0.0
C873 C 0.76046 0.51538 0.15099 0.0
C874 C 0.76628 0.49467 0.17412 0.0
C875 C 0.77261 0.47011 0.27627 0.0
C876 C 0.77372 0.46699 0.35293 0.0
C877 C 0.77227 0.49126 0.24798 0.0
C878 C 0.77887 0.48455 0.39984 0.0
C879 C 0.77992 0.50565 0.37152 0.0
H880 H 0.55675 0.75164 0.23795 0.0
H881 H 0.52943 0.76943 0.44989 0.0
H882 H 0.49667 0.78357 0.38914 0.0
H883 H 0.47222 0.77765 0.28319 0.0
H884 H 0.49858 0.75568 0.0746 0.0
H885 H 0.53565 0.7581 0.12367 0.0
C886 C 0.54394 0.75951 0.26989 0.0
C887 C 0.54475 0.75893 0.34752 0.0
C888 C 0.52502 0.76687 0.23469 0.0
C889 C 0.52865 0.76948 0.38973 0.0
C890 C 0.50996 0.77746 0.35505 0.0
C891 C 0.4863 0.77473 0.24759 0.0
C892 C 0.48293 0.76531 0.1776 0.0
C893 C 0.50727 0.77441 0.27838 0.0
C894 C 0.50091 0.7623 0.12986 0.0
C895 C 0.5221 0.76324 0.15845 0.0
H896 H 0.25428 0.54037 0.26597 0.0
H897 H 0.31175 0.52017 0.38523 0.0
H898 H 0.30586 0.48241 0.34523 0.0
H899 H 0.28614 0.45632 0.26702 0.0
H900 H 0.2303 0.47669 0.14042 0.0
H901 H 0.2327 0.5133 0.19546 0.0
C902 C 0.26544 0.52757 0.28252 0.0
C903 C 0.2836 0.53264 0.32669 0.0
C904 C 0.26177 0.50611 0.25993 0.0
C905 C 0.29783 0.51624 0.35027 0.0
C906 C 0.29437 0.49482 0.328 0.0
C907 C 0.27407 0.46867 0.2543 0.0
C908 C 0.2579 0.46421 0.20144 0.0
C909 C 0.27653 0.48967 0.28224 0.0
C910 C 0.24257 0.48008 0.18235 0.0
C911 C 0.24423 0.50093 0.21266 0.0
H912 H 0.20728 0.16301 0.3264 0.0
H913 H 0.16122 0.11049 0.29329 0.0
H914 H 0.13373 0.1363 0.24767 0.0
H915 H 0.12363 0.1737 0.21723 0.0
H916 H 0.17006 0.22609 0.2508 0.0
H917 H 0.19671 0.20047 0.30045 0.0
C918 C 0.19134 0.15735 0.30754 0.0
C919 C 0.1861 0.1352 0.31039 0.0
C920 C 0.17578 0.17218 0.28416 0.0
C921 C 0.16533 0.12765 0.28934 0.0
C922 C 0.14974 0.14231 0.26435 0.0
C923 C 0.13958 0.17939 0.23583 0.0
C924 C 0.14516 0.20145 0.23003 0.0
C925 C 0.15485 0.1646 0.26182 0.0
C926 C 0.16552 0.20907 0.25561 0.0
C927 C 0.1808 0.19446 0.28278 0.0
H928 H 0.80821 0.15741 0.27857 0.0
H929 H 0.85162 0.1546 0.08854 0.0
H930 H 0.86735 0.18964 0.12156 0.0
H931 H 0.87478 0.2159 0.21924 0.0
H932 H 0.83719 0.21436 0.42156 0.0
H933 H 0.8125 0.18675 0.36885 0.0
C934 C 0.82111 0.16444 0.2445 0.0
C935 C 0.82916 0.15317 0.18259 0.0
C936 C 0.83092 0.18399 0.26599 0.0
C937 C 0.84523 0.16289 0.13693 0.0
C938 C 0.85427 0.18293 0.15573 0.0
C939 C 0.86051 0.21015 0.24983 0.0
C940 C 0.85762 0.21656 0.32349 0.0
C941 C 0.84801 0.193 0.22203 0.0
C942 C 0.83944 0.20923 0.36442 0.0
C943 C 0.82567 0.19332 0.33478 0.0
H944 H 0.85645 0.87605 0.41642 0.0
H945 H 0.86205 0.91621 0.22016 0.0
H946 H 0.87036 0.88411 0.14546 0.0
H947 H 0.87225 0.84509 0.13587 0.0
H948 H 0.87165 0.80536 0.3346 0.0
H949 H 0.86252 0.83711 0.40858 0.0
C950 C 0.8605 0.878 0.35807 0.0
C951 C 0.85852 0.89834 0.32327 0.0
C952 C 0.86472 0.8596 0.31584 0.0
C953 C 0.86361 0.90058 0.24752 0.0
C954 C 0.86778 0.88227 0.20482 0.0
C955 C 0.87085 0.8433 0.19554 0.0
C956 C 0.8737 0.82303 0.22968 0.0
C957 C 0.86766 0.86172 0.23833 0.0
C958 C 0.86994 0.82082 0.30653 0.0
C959 C 0.86513 0.83902 0.34926 0.0
H960 H 0.20326 0.87014 0.339 0.0
H961 H 0.17392 0.93051 0.2725 0.0
H962 H 0.13909 0.91954 0.33094 0.0
H963 H 0.1153 0.88874 0.37315 0.0
H964 H 0.14495 0.82614 0.4062 0.0
H965 H 0.18125 0.84144 0.38932 0.0
C966 C 0.18948 0.88123 0.3403 0.0
C967 C 0.19067 0.90073 0.30107 0.0
C968 C 0.16937 0.87392 0.36652 0.0
C969 C 0.1729 0.91515 0.30198 0.0
C970 C 0.15304 0.90876 0.33435 0.0
C971 C 0.12987 0.87883 0.3778 0.0
C972 C 0.12784 0.85659 0.39284 0.0
C973 C 0.15069 0.88752 0.36198 0.0
C974 C 0.14653 0.84346 0.39743 0.0
C975 C 0.1672 0.85216 0.3872 0.0
H976 H 0.89387 0.81914 0.73873 0.0
H977 H 0.86395 0.83289 0.95092 0.0
H978 H 0.83915 0.85888 0.88973 0.0
H979 H 0.82393 0.87589 0.77268 0.0
H980 H 0.85569 0.86281 0.56332 0.0
H981 H 0.88145 0.83851 0.62615 0.0
C982 C 0.88205 0.82783 0.77242 0.0
C983 C 0.88094 0.82352 0.85035 0.0
C984 C 0.86798 0.84302 0.73667 0.0
C985 C 0.86545 0.83549 0.89155 0.0
C986 C 0.85114 0.85041 0.85611 0.0
C987 C 0.83691 0.86822 0.74105 0.0
C988 C 0.83799 0.87184 0.66266 0.0
C989 C 0.85199 0.85414 0.77836 0.0
C990 C 0.85466 0.8611 0.6232 0.0
C991 C 0.86931 0.84691 0.65937 0.0
H992 H 0.1579 0.8624 0.64924 0.0
H993 H 0.12164 0.81187 0.76347 0.0
H994 H 0.1353 0.8259 0.88316 0.0
H995 H 0.15836 0.85238 0.95675 0.0
H996 H 0.1934 0.9033 0.83999 0.0
H997 H 0.17949 0.88931 0.72176 0.0
C998 C 0.15284 0.85426 0.70002 0.0
C999 C 0.13858 0.83571 0.6955 0.0
C1000 C 0.16069 0.86263 0.76927 0.0
C1001 C 0.13243 0.82597 0.7635 0.0
C1002 C 0.14035 0.83408 0.83249 0.0
C1003 C 0.16292 0.86063 0.90567 0.0
C1004 C 0.17735 0.87912 0.90917 0.0
C1005 C 0.15458 0.85241 0.83641 0.0
C1006 C 0.18272 0.88915 0.84092 0.0
C1007 C 0.17464 0.88107 0.77257 0.0
H1008 H 0.18234 0.12107 0.79443 0.0
H1009 H 0.16151 0.14127 0.57638 0.0
H1010 H 0.13686 0.16807 0.63378 0.0
H1011 H 0.12327 0.18814 0.74609 0.0
H1012 H 0.14287 0.16693 0.96436 0.0
H1013 H 0.1655 0.13836 0.90723 0.0
C1014 C 0.17212 0.131 0.75896 0.0
C1015 C 0.17405 0.12867 0.67988 0.0
C1016 C 0.15773 0.1465 0.79298 0.0
C1017 C 0.16048 0.14205 0.63645 0.0
C1018 C 0.14643 0.15767 0.66975 0.0
C1019 C 0.13217 0.17707 0.78177 0.0
C1020 C 0.131 0.18008 0.86074 0.0
C1021 C 0.14517 0.16038 0.74795 0.0
C1022 C 0.1429 0.16526 0.90441 0.0
C1023 C 0.1561 0.1489 0.87123 0.0
H1024 H 0.8427 0.10763 0.73264 0.0
H1025 H 0.85063 0.13807 0.94727 0.0
H1026 H 0.87251 0.16713 0.88971 0.0
H1027 H 0.88902 0.18475 0.77897 0.0
H1028 H 0.88131 0.15535 0.5627 0.0
H1029 H 0.86011 0.12534 0.6202 0.0
C1030 C 0.84929 0.1205 0.76745 0.0
C1031 C 0.84466 0.12014 0.84577 0.0
C1032 C 0.86204 0.13758 0.73319 0.0
C1033 C 0.85354 0.13741 0.88796 0.0
C1034 C 0.86618 0.15421 0.85458 0.0
C1035 C 0.88285 0.17184 0.74346 0.0
C1036 C 0.88715 0.17281 0.66513 0.0
C1037 C 0.87048 0.1546 0.77726 0.0
C1038 C 0.8787 0.15546 0.62227 0.0
C1039 C 0.86641 0.13821 0.65562 0.0
H1040 H 0.69303 0.64178 0.78193 0.0
H1041 H 0.65505 0.65438 0.97935 0.0
H1042 H 0.64921 0.69202 0.93924 0.0
H1043 H 0.64948 0.7183 0.83794 0.0
H1044 H 0.68387 0.70415 0.63475 0.0
H1045 H 0.69801 0.67044 0.68851 0.0
C1046 C 0.68332 0.6528 0.81547 0.0
C1047 C 0.67359 0.64543 0.88145 0.0
C1048 C 0.68007 0.67412 0.79196 0.0
C1049 C 0.66199 0.65986 0.92704 0.0
C1050 C 0.65892 0.68129 0.90465 0.0
C1051 C 0.66097 0.70832 0.80717 0.0
C1052 C 0.66543 0.7131 0.7327 0.0
C1053 C 0.66728 0.68831 0.83606 0.0
C1054 C 0.68027 0.70035 0.69235 0.0
C1055 C 0.68789 0.68097 0.72244 0.0
H1056 H 0.32107 0.61649 0.79737 0.0
H1057 H 0.2855 0.6735 0.73215 0.0
H1058 H 0.31344 0.69703 0.78956 0.0
H1059 H 0.35085 0.70063 0.83725 0.0
H1060 H 0.38769 0.64334 0.89367 0.0
H1061 H 0.35626 0.62014 0.86143 0.0
C1062 C 0.31922 0.63406 0.79895 0.0
C1063 C 0.30174 0.64359 0.76162 0.0
C1064 C 0.33574 0.64714 0.82829 0.0
C1065 C 0.29899 0.66619 0.76199 0.0
C1066 C 0.31505 0.67949 0.7935 0.0
C1067 C 0.35191 0.68305 0.84205 0.0
C1068 C 0.37152 0.67339 0.86468 0.0
C1069 C 0.33402 0.67007 0.82297 0.0
C1070 C 0.3727 0.6508 0.87447 0.0
C1071 C 0.35482 0.63767 0.8565 0.0
H1072 H 0.36229 0.36805 0.98338 0.0
H1073 H 0.40121 0.41078 0.84586 0.0
H1074 H 0.42228 0.37972 0.80015 0.0
H1075 H 0.42081 0.34101 0.77124 0.0
H1076 H 0.37477 0.29915 0.88565 0.0
H1077 H 0.36578 0.32871 0.97117 0.0
C1078 C 0.37617 0.37055 0.94639 0.0
C1079 C 0.38021 0.39136 0.91678 0.0
C1080 C 0.38638 0.35253 0.91488 0.0
C1081 C 0.39797 0.39473 0.86861 0.0
C1082 C 0.4097 0.37698 0.84191 0.0
C1083 C 0.40901 0.33834 0.81554 0.0
C1084 C 0.39756 0.31846 0.82019 0.0
C1085 C 0.40266 0.3558 0.85981 0.0
C1086 C 0.38334 0.31458 0.88022 0.0
C1087 C 0.37811 0.33151 0.92863 0.0
H1088 H 0.653 0.3706 0.56488 0.0
H1089 H 0.63281 0.41778 0.72747 0.0
H1090 H 0.60725 0.3913 0.78223 0.0
H1091 H 0.5997 0.35279 0.80425 0.0
H1092 H 0.62708 0.3046 0.65637 0.0
H1093 H 0.64012 0.33314 0.57385 0.0
C1094 C 0.64212 0.3753 0.60984 0.0
C1095 C 0.64475 0.39574 0.64328 0.0
C1096 C 0.62928 0.35947 0.6449 0.0
C1097 C 0.6309 0.40193 0.70172 0.0
C1098 C 0.61662 0.38672 0.73345 0.0
C1099 C 0.60837 0.34852 0.75376 0.0
C1100 C 0.61328 0.32667 0.7384 0.0
C1101 C 0.61715 0.36502 0.70921 0.0
C1102 C 0.62341 0.3213 0.67054 0.0
C1103 C 0.631 0.33765 0.62329 0.0
H1104 H 0.34607 0.40458 0.30237 0.0
H1105 H 0.33401 0.35951 0.12257 0.0
H1106 H 0.35209 0.33069 0.19319 0.0
H1107 H 0.37176 0.31803 0.30406 0.0
H1108 H 0.38439 0.36213 0.48605 0.0
H1109 H 0.36563 0.39128 0.41694 0.0
C1110 C 0.34726 0.38844 0.2784 0.0
C1111 C 0.33836 0.38455 0.20596 0.0
C1112 C 0.35787 0.37164 0.32007 0.0
C1113 C 0.34036 0.36332 0.17729 0.0
C1114 C 0.35083 0.34673 0.218 0.0
C1115 C 0.37054 0.33396 0.32964 0.0
C1116 C 0.37986 0.3375 0.40156 0.0
C1117 C 0.35972 0.35066 0.28924 0.0
C1118 C 0.37762 0.35853 0.4318 0.0
C1119 C 0.36683 0.3753 0.39175 0.0
H1120 H 0.66542 0.40366 0.25884 0.0
H1121 H 0.69658 0.35599 0.39915 0.0
H1122 H 0.67919 0.32675 0.32738 0.0
H1123 H 0.65514 0.3143 0.22677 0.0
H1124 H 0.62334 0.36079 0.0837 0.0
H1125 H 0.64097 0.39065 0.15429 0.0
C1126 C 0.66855 0.38687 0.2739 0.0
C1127 C 0.68267 0.38238 0.33559 0.0
C1128 C 0.65828 0.36981 0.23161 0.0
C1129 C 0.68614 0.36032 0.35288 0.0
C1130 C 0.67606 0.34348 0.31153 0.0
C1131 C 0.65185 0.3309 0.20991 0.0
C1132 C 0.63753 0.33483 0.14843 0.0
C1133 C 0.66208 0.34797 0.25098 0.0
C1134 C 0.634 0.35682 0.12971 0.0
C1135 C 0.64419 0.37399 0.17056 0.0
H1136 H 0.67372 0.61304 0.32674 0.0
H1137 H 0.68479 0.65155 0.12924 0.0
H1138 H 0.66511 0.68191 0.186 0.0
H1139 H 0.64398 0.69777 0.2902 0.0
H1140 H 0.63382 0.66052 0.49089 0.0
H1141 H 0.65391 0.62991 0.43502 0.0
C1142 C 0.67201 0.6281 0.29592 0.0
C1143 C 0.68094 0.62953 0.22241 0.0
C1144 C 0.66069 0.64593 0.32986 0.0
C1145 C 0.67836 0.64951 0.18496 0.0
C1146 C 0.66696 0.66703 0.21774 0.0
C1147 C 0.64605 0.68302 0.32248 0.0
C1148 C 0.6369 0.6818 0.3956 0.0
C1149 C 0.6579 0.66545 0.28992 0.0
C1150 C 0.64032 0.66229 0.43511 0.0
C1151 C 0.6519 0.64467 0.40275 0.0
H1152 H 0.35988 0.60605 0.3157 0.0
H1153 H 0.33202 0.65482 0.45987 0.0
H1154 H 0.35131 0.68332 0.38937 0.0
H1155 H 0.37564 0.6949 0.28603 0.0
H1156 H 0.40332 0.64677 0.13906 0.0
H1157 H 0.38467 0.61787 0.21104 0.0
C1158 C 0.35806 0.62289 0.33254 0.0
C1159 C 0.34426 0.62788 0.39483 0.0
C1160 C 0.36924 0.63949 0.29058 0.0
C1161 C 0.34231 0.65006 0.41357 0.0
C1162 C 0.35342 0.6665 0.37271 0.0
C1163 C 0.37783 0.67811 0.26909 0.0
C1164 C 0.39133 0.67343 0.20588 0.0
C1165 C 0.36687 0.66149 0.31094 0.0
C1166 C 0.39339 0.65129 0.18652 0.0
C1167 C 0.3826 0.63466 0.22814 0.0
loop_
_geom_bond_atom_site_label_1
_geom_bond_atom_site_label_2
_geom_bond_distance
_geom_bond_site_symmetry_2
_ccdc_geom_bond_type
C0 C1 1.351 . S
C0 N3 1.368 . S
C0 H5 0.931 . S
C1 C0 1.351 . S
C1 N2 1.373 . S
C1 H29 0.930 . S
N2 C1 1.373 . S
N2 C4 1.340 . S
N3 C0 1.368 . S
N3 C4 1.321 . S
N3 Co6 2.135 . S
C4 N2 1.340 . S
C4 N3 1.321 . S
C4 H28 0.930 . S
H5 C0 0.931 . S
Co6 N3 2.135 . S
Co6 N9 2.121 1_554 S
Co6 O14 2.055 . S
Co6 O17 2.039 1_554 S
Co6 N20 2.140 . S
C7 O8 1.227 . S
C7 O17 1.265 . S
O8 C7 1.227 . S
N9 Co6 2.121 1_556 S
N9 C11 1.375 . S
N9 C12 1.313 . S
C10 C11 1.338 . S
C10 N13 1.377 . S
C10 H30 0.930 . S
C11 N9 1.375 . S
C11 C10 1.338 . S
C11 H15 0.931 . S
C12 N9 1.313 . S
C12 N13 1.344 . S
C12 H16 0.930 . S
N13 C10 1.377 . S
N13 C12 1.344 . S
O14 Co6 2.055 . S
O14 C18 1.253 . S
H15 C11 0.931 . S
H16 C12 0.930 . S
O17 Co6 2.039 1_556 S
O17 C7 1.265 . S
C18 O14 1.253 . S
C18 O19 1.227 . S
O19 C18 1.227 . S
N20 Co6 2.140 . S
N20 C23 1.346 . S
N20 C24 1.345 1_554 S
C21 C22 1.386 1_556 S
C21 C25 1.392 . S
C22 C21 1.386 1_554 S
C22 C23 1.369 . S
C22 H31 0.929 . S
C23 N20 1.346 . S
C23 C22 1.369 . S
C23 H26 0.928 . S
C24 N20 1.345 1_556 S
C24 C25 1.371 . S
C24 H27 0.931 . S
C25 C21 1.392 . S
C25 C24 1.371 . S
C25 H32 0.930 . S
H26 C23 0.928 . S
H27 C24 0.931 . S
H28 C4 0.930 . S
H29 C1 0.930 . S
H30 C10 0.930 . S
H31 C22 0.929 . S
H32 C25 0.930 . S
C33 C34 1.351 . S
C33 N36 1.368 . S
C33 H38 0.931 . S
C34 C33 1.351 . S
C34 N35 1.373 . S
C34 H62 0.930 . S
N35 C34 1.373 . S
N35 C37 1.340 . S
N36 C33 1.368 . S
N36 C37 1.321 . S
N36 Co39 2.135 . S
C37 N35 1.340 . S
C37 N36 1.321 . S
C37 H61 0.930 . S
H38 C33 0.931 . S
Co39 N36 2.135 . S
Co39 N42 2.121 1_554 S
Co39 O47 2.055 . S
Co39 O50 2.039 1_554 S
Co39 N53 2.140 . S
C40 O41 1.227 . S
C40 O50 1.265 . S
O41 C40 1.227 . S
N42 Co39 2.121 1_556 S
N42 C44 1.375 . S
N42 C45 1.313 . S
C43 C44 1.338 . S
C43 N46 1.377 . S
C43 H63 0.930 . S
C44 N42 1.375 . S
C44 C43 1.338 . S
C44 H48 0.931 . S
C45 N42 1.313 . S
C45 N46 1.344 . S
C45 H49 0.930 . S
N46 C43 1.377 . S
N46 C45 1.344 . S
O47 Co39 2.055 . S
O47 C51 1.253 . S
H48 C44 0.931 . S
H49 C45 0.930 . S
O50 Co39 2.039 1_556 S
O50 C40 1.265 . S
C51 O47 1.253 . S
C51 O52 1.227 . S
O52 C51 1.227 . S
N53 Co39 2.140 . S
N53 C56 1.346 . S
N53 C57 1.345 1_554 S
C54 C55 1.386 1_556 S
C54 C58 1.392 . S
C55 C54 1.386 1_554 S
C55 C56 1.369 . S
C55 H64 0.929 . S
C56 N53 1.346 . S
C56 C55 1.369 . S
C56 H59 0.928 . S
C57 N53 1.345 1_556 S
C57 C58 1.371 . S
C57 H60 0.931 . S
C58 C54 1.392 . S
C58 C57 1.371 . S
C58 H65 0.930 . S
H59 C56 0.928 . S
H60 C57 0.931 . S
H61 C37 0.930 . S
H62 C34 0.930 . S
H63 C43 0.930 . S
H64 C55 0.929 . S
H65 C58 0.930 . S
C66 C67 1.351 . S
C66 N69 1.368 . S
C66 H71 0.931 . S
C67 C66 1.351 . S
C67 N68 1.373 . S
C67 H95 0.930 . S
N68 C67 1.373 . S
N68 C70 1.340 . S
N69 C66 1.368 . S
N69 C70 1.321 . S
N69 Co72 2.135 . S
C70 N68 1.340 . S
C70 N69 1.321 . S
C70 H94 0.930 . S
H71 C66 0.931 . S
Co72 N69 2.135 . S
Co72 N75 2.121 1_554 S
Co72 O80 2.055 . S
Co72 O83 2.039 1_554 S
Co72 N86 2.140 . S
C73 O74 1.227 . S
C73 O83 1.265 . S
O74 C73 1.227 . S
N75 Co72 2.121 1_556 S
N75 C77 1.375 . S
N75 C78 1.313 . S
C76 C77 1.338 . S
C76 N79 1.377 . S
C76 H96 0.930 . S
C77 N75 1.375 . S
C77 C76 1.338 . S
C77 H81 0.931 . S
C78 N75 1.313 . S
C78 N79 1.344 . S
C78 H82 0.930 . S
N79 C76 1.377 . S
N79 C78 1.344 . S
O80 Co72 2.055 . S
O80 C84 1.253 . S
H81 C77 0.931 . S
H82 C78 0.930 . S
O83 Co72 2.039 1_556 S
O83 C73 1.265 . S
C84 O80 1.253 . S
C84 O85 1.227 . S
O85 C84 1.227 . S
N86 Co72 2.140 . S
N86 C89 1.346 . S
N86 C90 1.345 1_554 S
C87 C88 1.386 1_556 S
C87 C91 1.392 . S
C88 C87 1.386 1_554 S
C88 C89 1.369 . S
C88 H97 0.929 . S
C89 N86 1.346 . S
C89 C88 1.369 . S
C89 H92 0.928 . S
C90 N86 1.345 1_556 S
C90 C91 1.371 . S
C90 H93 0.931 . S
C91 C87 1.392 . S
C91 C90 1.371 . S
C91 H98 0.930 . S
H92 C89 0.928 . S
H93 C90 0.931 . S
H94 C70 0.930 . S
H95 C67 0.930 . S
H96 C76 0.930 . S
H97 C88 0.929 . S
H98 C91 0.930 . S
C99 C100 1.351 . S
C99 N102 1.368 . S
C99 H104 0.931 . S
C100 C99 1.351 . S
C100 N101 1.373 . S
C100 H128 0.930 . S
N101 C100 1.373 . S
N101 C103 1.340 . S
N102 C99 1.368 . S
N102 C103 1.321 . S
N102 Co105 2.135 . S
C103 N101 1.340 . S
C103 N102 1.321 . S
C103 H127 0.930 . S
H104 C99 0.931 . S
Co105 N102 2.135 . S
Co105 N108 2.121 1_554 S
Co105 O113 2.055 . S
Co105 O116 2.039 1_554 S
Co105 N119 2.140 . S
C106 O107 1.227 . S
C106 O116 1.265 . S
O107 C106 1.227 . S
N108 Co105 2.121 1_556 S
N108 C110 1.375 . S
N108 C111 1.313 . S
C109 C110 1.338 . S
C109 N112 1.377 . S
C109 H129 0.930 . S
C110 N108 1.375 . S
C110 C109 1.338 . S
C110 H114 0.931 . S
C111 N108 1.313 . S
C111 N112 1.344 . S
C111 H115 0.930 . S
N112 C109 1.377 . S
N112 C111 1.344 . S
O113 Co105 2.055 . S
O113 C117 1.253 . S
H114 C110 0.931 . S
H115 C111 0.930 . S
O116 Co105 2.039 1_556 S
O116 C106 1.265 . S
C117 O113 1.253 . S
C117 O118 1.227 . S
O118 C117 1.227 . S
N119 Co105 2.140 . S
N119 C122 1.346 . S
N119 C123 1.345 1_554 S
C120 C121 1.386 1_556 S
C120 C124 1.392 . S
C121 C120 1.386 1_554 S
C121 C122 1.369 . S
C121 H130 0.929 . S
C122 N119 1.346 . S
C122 C121 1.369 . S
C122 H125 0.928 . S
C123 N119 1.345 1_556 S
C123 C124 1.371 . S
C123 H126 0.931 . S
C124 C120 1.392 . S
C124 C123 1.371 . S
C124 H131 0.930 . S
H125 C122 0.928 . S
H126 C123 0.931 . S
H127 C103 0.930 . S
H128 C100 0.930 . S
H129 C109 0.930 . S
H130 C121 0.929 . S
H131 C124 0.930 . S
C132 C133 1.351 . S
C132 N135 1.368 . S
C132 H137 0.931 . S
C133 C132 1.351 . S
C133 N134 1.373 . S
C133 H161 0.930 . S
N134 C133 1.373 . S
N134 C136 1.340 . S
N135 C132 1.368 . S
N135 C136 1.321 . S
N135 Co138 2.135 . S
C136 N134 1.340 . S
C136 N135 1.321 . S
C136 H160 0.930 . S
H137 C132 0.931 . S
Co138 N135 2.135 . S
Co138 N141 2.121 . S
Co138 O146 2.055 . S
Co138 O149 2.039 . S
Co138 N152 2.140 . S
C139 O140 1.227 . S
C139 O149 1.265 . S
O140 C139 1.227 . S
N141 Co138 2.121 . S
N141 C143 1.375 . S
N141 C144 1.313 . S
C142 C143 1.338 . S
C142 N145 1.377 . S
C142 H162 0.930 . S
C143 N141 1.375 . S
C143 C142 1.338 . S
C143 H147 0.931 . S
C144 N141 1.313 . S
C144 N145 1.344 . S
C144 H148 0.930 . S
N145 C142 1.377 . S
N145 C144 1.344 . S
O146 Co138 2.055 . S
O146 C150 1.253 . S
H147 C143 0.931 . S
H148 C144 0.930 . S
O149 Co138 2.039 . S
O149 C139 1.265 . S
C150 O146 1.253 . S
C150 O151 1.227 . S
O151 C150 1.227 . S
N152 Co138 2.140 . S
N152 C155 1.346 . S
N152 C156 1.345 . S
C153 C154 1.387 . S
C153 C157 1.391 . S
C154 C153 1.387 . S
C154 C155 1.369 . S
C154 H163 0.929 . S
C155 N152 1.346 . S
C155 C154 1.369 . S
C155 H158 0.928 . S
C156 N152 1.345 . S
C156 C157 1.371 . S
C156 H159 0.931 . S
C157 C153 1.391 . S
C157 C156 1.371 . S
C157 H164 0.930 . S
H158 C155 0.928 . S
H159 C156 0.931 . S
H160 C136 0.930 . S
H161 C133 0.930 . S
H162 C142 0.930 . S
H163 C154 0.929 . S
H164 C157 0.930 . S
C165 C166 1.351 . S
C165 N168 1.368 . S
C165 H170 0.931 . S
C166 C165 1.351 . S
C166 N167 1.373 . S
C166 H194 0.930 . S
N167 C166 1.373 . S
N167 C169 1.340 . S
N168 C165 1.368 . S
N168 C169 1.321 . S
N168 Co171 2.135 . S
C169 N167 1.340 . S
C169 N168 1.321 . S
C169 H193 0.930 . S
H170 C165 0.931 . S
Co171 N168 2.135 . S
Co171 N174 2.121 . S
Co171 O179 2.055 . S
Co171 O182 2.039 . S
Co171 N185 2.140 . S
C172 O173 1.227 . S
C172 O182 1.265 . S
O173 C172 1.227 . S
N174 Co171 2.121 . S
N174 C176 1.375 . S
N174 C177 1.313 . S
C175 C176 1.338 . S
C175 N178 1.377 . S
C175 H195 0.930 . S
C176 N174 1.375 . S
C176 C175 1.338 . S
C176 H180 0.931 . S
C177 N174 1.313 . S
C177 N178 1.344 . S
C177 H181 0.930 . S
N178 C175 1.377 . S
N178 C177 1.344 . S
O179 Co171 2.055 . S
O179 C183 1.253 . S
H180 C176 0.931 . S
H181 C177 0.930 . S
O182 Co171 2.039 . S
O182 C172 1.265 . S
C183 O179 1.253 . S
C183 O184 1.227 . S
O184 C183 1.227 . S
N185 Co171 2.140 . S
N185 C188 1.346 . S
N185 C189 1.345 . S
C186 C187 1.387 . S
C186 C190 1.391 . S
C187 C186 1.387 . S
C187 C188 1.369 . S
C187 H196 0.929 . S
C188 N185 1.346 . S
C188 C187 1.369 . S
C188 H191 0.928 . S
C189 N185 1.345 . S
C189 C190 1.371 . S
C189 H192 0.931 . S
C190 C186 1.391 . S
C190 C189 1.371 . S
C190 H197 0.930 . S
H191 C188 0.928 . S
H192 C189 0.931 . S
H193 C169 0.930 . S
H194 C166 0.930 . S
H195 C175 0.930 . S
H196 C187 0.929 . S
H197 C190 0.930 . S
C198 C199 1.351 . S
C198 N201 1.368 . S
C198 H203 0.931 . S
C199 C198 1.351 . S
C199 N200 1.373 . S
C199 H227 0.930 . S
N200 C199 1.373 . S
N200 C202 1.340 . S
N201 C198 1.368 . S
N201 C202 1.321 . S
N201 Co204 2.135 . S
C202 N200 1.340 . S
C202 N201 1.321 . S
C202 H226 0.930 . S
H203 C198 0.931 . S
Co204 N201 2.135 . S
Co204 N207 2.121 . S
Co204 O212 2.055 . S
Co204 O215 2.039 . S
Co204 N218 2.140 . S
C205 O206 1.227 . S
C205 O215 1.265 . S
O206 C205 1.227 . S
N207 Co204 2.121 . S
N207 C209 1.375 . S
N207 C210 1.313 . S
C208 C209 1.338 . S
C208 N211 1.377 . S
C208 H228 0.930 . S
C209 N207 1.375 . S
C209 C208 1.338 . S
C209 H213 0.931 . S
C210 N207 1.313 . S
C210 N211 1.344 . S
C210 H214 0.930 . S
N211 C208 1.377 . S
N211 C210 1.344 . S
O212 Co204 2.055 . S
O212 C216 1.253 . S
H213 C209 0.931 . S
H214 C210 0.930 . S
O215 Co204 2.039 . S
O215 C205 1.265 . S
C216 O212 1.253 . S
C216 O217 1.227 . S
O217 C216 1.227 . S
N218 Co204 2.140 . S
N218 C221 1.346 . S
N218 C222 1.345 . S
C219 C220 1.387 . S
C219 C223 1.391 . S
C220 C219 1.387 . S
C220 C221 1.369 . S
C220 H229 0.929 . S
C221 N218 1.346 . S
C221 C220 1.369 . S
C221 H224 0.928 . S
C222 N218 1.345 . S
C222 C223 1.371 . S
C222 H225 0.931 . S
C223 C219 1.391 . S
C223 C222 1.371 . S
C223 H230 0.930 . S
H224 C221 0.928 . S
H225 C222 0.931 . S
H226 C202 0.930 . S
H227 C199 0.930 . S
H228 C208 0.930 . S
H229 C220 0.929 . S
H230 C223 0.930 . S
C231 C232 1.351 . S
C231 N234 1.368 . S
C231 H236 0.931 . S
C232 C231 1.351 . S
C232 N233 1.373 . S
C232 H260 0.930 . S
N233 C232 1.373 . S
N233 C235 1.340 . S
N234 C231 1.368 . S
N234 C235 1.321 . S
N234 Co237 2.135 . S
C235 N233 1.340 . S
C235 N234 1.321 . S
C235 H259 0.930 . S
H236 C231 0.931 . S
Co237 N234 2.135 . S
Co237 N240 2.121 . S
Co237 O245 2.055 . S
Co237 O248 2.039 . S
Co237 N251 2.140 . S
C238 O239 1.227 . S
C238 O248 1.265 . S
O239 C238 1.227 . S
N240 Co237 2.121 . S
N240 C242 1.375 . S
N240 C243 1.313 . S
C241 C242 1.338 . S
C241 N244 1.377 . S
C241 H261 0.930 . S
C242 N240 1.375 . S
C242 C241 1.338 . S
C242 H246 0.931 . S
C243 N240 1.313 . S
C243 N244 1.344 . S
C243 H247 0.930 . S
N244 C241 1.377 . S
N244 C243 1.344 . S
O245 Co237 2.055 . S
O245 C249 1.253 . S
H246 C242 0.931 . S
H247 C243 0.930 . S
O248 Co237 2.039 . S
O248 C238 1.265 . S
C249 O245 1.253 . S
C249 O250 1.227 . S
O250 C249 1.227 . S
N251 Co237 2.140 . S
N251 C254 1.346 . S
N251 C255 1.345 . S
C252 C253 1.387 . S
C252 C256 1.391 . S
C253 C252 1.387 . S
C253 C254 1.369 . S
C253 H262 0.929 . S
C254 N251 1.346 . S
C254 C253 1.369 . S
C254 H257 0.928 . S
C255 N251 1.345 . S
C255 C256 1.371 . S
C255 H258 0.931 . S
C256 C252 1.391 . S
C256 C255 1.371 . S
C256 H263 0.930 . S
H257 C254 0.928 . S
H258 C255 0.931 . S
H259 C235 0.930 . S
H260 C232 0.930 . S
H261 C241 0.930 . S
H262 C253 0.929 . S
H263 C256 0.930 . S
C264 C265 1.351 . S
C264 N267 1.368 . S
C264 H269 0.931 . S
C265 C264 1.351 . S
C265 N266 1.373 . S
C265 H293 0.930 . S
N266 C265 1.373 . S
N266 C268 1.340 . S
N267 C264 1.368 . S
N267 C268 1.321 . S
N267 Co270 2.135 . S
C268 N266 1.340 . S
C268 N267 1.321 . S
C268 H292 0.930 . S
H269 C264 0.931 . S
Co270 N267 2.135 . S
Co270 N273 2.121 . S
Co270 O278 2.055 . S
Co270 O281 2.039 . S
Co270 N284 2.140 . S
C271 O272 1.227 . S
C271 O281 1.265 . S
O272 C271 1.227 . S
N273 Co270 2.121 . S
N273 C275 1.375 . S
N273 C276 1.313 . S
C274 C275 1.338 . S
C274 N277 1.377 . S
C274 H294 0.930 . S
C275 N273 1.375 . S
C275 C274 1.338 . S
C275 H279 0.931 . S
C276 N273 1.313 . S
C276 N277 1.344 . S
C276 H280 0.930 . S
N277 C274 1.377 . S
N277 C276 1.344 . S
O278 Co270 2.055 . S
O278 C282 1.253 . S
H279 C275 0.931 . S
H280 C276 0.930 . S
O281 Co270 2.039 . S
O281 C271 1.265 . S
C282 O278 1.253 . S
C282 O283 1.227 . S
O283 C282 1.227 . S
N284 Co270 2.140 . S
N284 C287 1.346 . S
N284 C288 1.345 . S
C285 C286 1.387 . S
C285 C289 1.391 . S
C286 C285 1.387 . S
C286 C287 1.369 . S
C286 H295 0.929 . S
C287 N284 1.346 . S
C287 C286 1.369 . S
C287 H290 0.928 . S
C288 N284 1.345 . S
C288 C289 1.371 . S
C288 H291 0.931 . S
C289 C285 1.391 . S
C289 C288 1.371 . S
C289 H296 0.930 . S
H290 C287 0.928 . S
H291 C288 0.931 . S
H292 C268 0.930 . S
H293 C265 0.930 . S
H294 C274 0.930 . S
H295 C286 0.929 . S
H296 C289 0.930 . S
C297 C298 1.351 . S
C297 N300 1.368 . S
C297 H302 0.931 . S
C298 C297 1.351 . S
C298 N299 1.373 . S
C298 H326 0.930 . S
N299 C298 1.373 . S
N299 C301 1.340 . S
N300 C297 1.368 . S
N300 C301 1.321 . S
N300 Co303 2.135 . S
C301 N299 1.340 . S
C301 N300 1.321 . S
C301 H325 0.930 . S
H302 C297 0.931 . S
Co303 N300 2.135 . S
Co303 N306 2.121 . S
Co303 O311 2.055 . S
Co303 O314 2.039 . S
Co303 N317 2.140 . S
C304 O305 1.227 . S
C304 O314 1.265 . S
O305 C304 1.227 . S
N306 Co303 2.121 . S
N306 C308 1.375 . S
N306 C309 1.313 . S
C307 C308 1.338 . S
C307 N310 1.377 . S
C307 H327 0.930 . S
C308 N306 1.375 . S
C308 C307 1.338 . S
C308 H312 0.931 . S
C309 N306 1.313 . S
C309 N310 1.344 . S
C309 H313 0.930 . S
N310 C307 1.377 . S
N310 C309 1.344 . S
O311 Co303 2.055 . S
O311 C315 1.253 . S
H312 C308 0.931 . S
H313 C309 0.930 . S
O314 Co303 2.039 . S
O314 C304 1.265 . S
C315 O311 1.253 . S
C315 O316 1.227 . S
O316 C315 1.227 . S
N317 Co303 2.140 . S
N317 C320 1.346 . S
N317 C321 1.345 . S
C318 C319 1.387 . S
C318 C322 1.391 . S
C319 C318 1.387 . S
C319 C320 1.369 . S
C319 H328 0.929 . S
C320 N317 1.346 . S
C320 C319 1.369 . S
C320 H323 0.928 . S
C321 N317 1.345 . S
C321 C322 1.371 . S
C321 H324 0.931 . S
C322 C318 1.391 . S
C322 C321 1.371 . S
C322 H329 0.930 . S
H323 C320 0.928 . S
H324 C321 0.931 . S
H325 C301 0.930 . S
H326 C298 0.930 . S
H327 C307 0.930 . S
H328 C319 0.929 . S
H329 C322 0.930 . S
C330 C331 1.351 . S
C330 N333 1.368 . S
C330 H335 0.931 . S
C331 C330 1.351 . S
C331 N332 1.373 . S
C331 H359 0.930 . S
N332 C331 1.373 . S
N332 C334 1.340 . S
N333 C330 1.368 . S
N333 C334 1.321 . S
N333 Co336 2.135 . S
C334 N332 1.340 . S
C334 N333 1.321 . S
C334 H358 0.930 . S
H335 C330 0.931 . S
Co336 N333 2.135 . S
Co336 N339 2.121 . S
Co336 O344 2.055 . S
Co336 O347 2.039 . S
Co336 N350 2.140 . S
C337 O338 1.227 . S
C337 O347 1.265 . S
O338 C337 1.227 . S
N339 Co336 2.121 . S
N339 C341 1.375 . S
N339 C342 1.313 . S
C340 C341 1.338 . S
C340 N343 1.377 . S
C340 H360 0.930 . S
C341 N339 1.375 . S
C341 C340 1.338 . S
C341 H345 0.931 . S
C342 N339 1.313 . S
C342 N343 1.344 . S
C342 H346 0.930 . S
N343 C340 1.377 . S
N343 C342 1.344 . S
O344 Co336 2.055 . S
O344 C348 1.253 . S
H345 C341 0.931 . S
H346 C342 0.930 . S
O347 Co336 2.039 . S
O347 C337 1.265 . S
C348 O344 1.253 . S
C348 O349 1.227 . S
O349 C348 1.227 . S
N350 Co336 2.140 . S
N350 C353 1.346 . S
N350 C354 1.345 . S
C351 C352 1.387 . S
C351 C355 1.391 . S
C352 C351 1.387 . S
C352 C353 1.369 . S
C352 H361 0.929 . S
C353 N350 1.346 . S
C353 C352 1.369 . S
C353 H356 0.928 . S
C354 N350 1.345 . S
C354 C355 1.371 . S
C354 H357 0.931 . S
C355 C351 1.391 . S
C355 C354 1.371 . S
C355 H362 0.930 . S
H356 C353 0.928 . S
H357 C354 0.931 . S
H358 C334 0.930 . S
H359 C331 0.930 . S
H360 C340 0.930 . S
H361 C352 0.929 . S
H362 C355 0.930 . S
C363 C364 1.351 . S
C363 N366 1.368 . S
C363 H368 0.931 . S
C364 C363 1.351 . S
C364 N365 1.373 . S
C364 H392 0.930 . S
N365 C364 1.373 . S
N365 C367 1.340 . S
N366 C363 1.368 . S
N366 C367 1.321 . S
N366 Co369 2.135 . S
C367 N365 1.340 . S
C367 N366 1.321 . S
C367 H391 0.930 . S
H368 C363 0.931 . S
Co369 N366 2.135 . S
Co369 N372 2.121 . S
Co369 O377 2.055 . S
Co369 O380 2.039 . S
Co369 N383 2.140 . S
C370 O371 1.227 . S
C370 O380 1.265 . S
O371 C370 1.227 . S
N372 Co369 2.121 . S
N372 C374 1.375 . S
N372 C375 1.313 . S
C373 C374 1.338 . S
C373 N376 1.377 . S
C373 H393 0.930 . S
C374 N372 1.375 . S
C374 C373 1.338 . S
C374 H378 0.931 . S
C375 N372 1.313 . S
C375 N376 1.344 . S
C375 H379 0.930 . S
N376 C373 1.377 . S
N376 C375 1.344 . S
O377 Co369 2.055 . S
O377 C381 1.253 . S
H378 C374 0.931 . S
H379 C375 0.930 . S
O380 Co369 2.039 . S
O380 C370 1.265 . S
C381 O377 1.253 . S
C381 O382 1.227 . S
O382 C381 1.227 . S
N383 Co369 2.140 . S
N383 C386 1.346 . S
N383 C387 1.345 . S
C384 C385 1.387 . S
C384 C388 1.391 . S
C385 C384 1.387 . S
C385 C386 1.369 . S
C385 H394 0.929 . S
C386 N383 1.346 . S
C386 C385 1.369 . S
C386 H389 0.928 . S
C387 N383 1.345 . S
C387 C388 1.371 . S
C387 H390 0.931 . S
C388 C384 1.391 . S
C388 C387 1.371 . S
C388 H395 0.930 . S
H389 C386 0.928 . S
H390 C387 0.931 . S
H391 C367 0.930 . S
H392 C364 0.930 . S
H393 C373 0.930 . S
H394 C385 0.929 . S
H395 C388 0.930 . S
C396 C397 1.351 . S
C396 N399 1.368 . S
C396 H401 0.931 . S
C397 C396 1.351 . S
C397 N398 1.373 . S
C397 H425 0.930 . S
N398 C397 1.373 . S
N398 C400 1.340 . S
N399 C396 1.368 . S
N399 C400 1.321 . S
N399 Co402 2.135 . S
C400 N398 1.340 . S
C400 N399 1.321 . S
C400 H424 0.930 . S
H401 C396 0.931 . S
Co402 N399 2.135 . S
Co402 N405 2.121 1_556 S
Co402 O410 2.055 . S
Co402 O413 2.039 1_556 S
Co402 N416 2.140 . S
C403 O404 1.227 . S
C403 O413 1.265 . S
O404 C403 1.227 . S
N405 Co402 2.121 1_554 S
N405 C407 1.375 . S
N405 C408 1.313 . S
C406 C407 1.338 . S
C406 N409 1.377 . S
C406 H426 0.930 . S
C407 N405 1.375 . S
C407 C406 1.338 . S
C407 H411 0.931 . S
C408 N405 1.313 . S
C408 N409 1.344 . S
C408 H412 0.930 . S
N409 C406 1.377 . S
N409 C408 1.344 . S
O410 Co402 2.055 . S
O410 C414 1.253 . S
H411 C407 0.931 . S
H412 C408 0.930 . S
O413 Co402 2.039 1_554 S
O413 C403 1.265 . S
C414 O410 1.253 . S
C414 O415 1.227 . S
O415 C414 1.227 . S
N416 Co402 2.140 . S
N416 C419 1.346 . S
N416 C420 1.345 1_556 S
C417 C418 1.385 1_554 S
C417 C421 1.393 . S
C418 C417 1.385 1_556 S
C418 C419 1.369 . S
C418 H427 0.929 . S
C419 N416 1.346 . S
C419 C418 1.369 . S
C419 H422 0.928 . S
C420 N416 1.345 1_554 S
C420 C421 1.371 . S
C420 H423 0.931 . S
C421 C417 1.393 . S
C421 C420 1.371 . S
C421 H428 0.930 . S
H422 C419 0.928 . S
H423 C420 0.931 . S
H424 C400 0.930 . S
H425 C397 0.930 . S
H426 C406 0.930 . S
H427 C418 0.929 . S
H428 C421 0.930 . S
C429 C430 1.351 . S
C429 N432 1.368 . S
C429 H434 0.931 . S
C430 C429 1.351 . S
C430 N431 1.373 . S
C430 H458 0.930 . S
N431 C430 1.373 . S
N431 C433 1.340 . S
N432 C429 1.368 . S
N432 C433 1.321 . S
N432 Co435 2.135 . S
C433 N431 1.340 . S
C433 N432 1.321 . S
C433 H457 0.930 . S
H434 C429 0.931 . S
Co435 N432 2.135 . S
Co435 N438 2.121 1_556 S
Co435 O443 2.055 . S
Co435 O446 2.039 1_556 S
Co435 N449 2.140 . S
C436 O437 1.227 . S
C436 O446 1.265 . S
O437 C436 1.227 . S
N438 Co435 2.121 1_554 S
N438 C440 1.375 . S
N438 C441 1.313 . S
C439 C440 1.338 . S
C439 N442 1.377 . S
C439 H459 0.930 . S
C440 N438 1.375 . S
C440 C439 1.338 . S
C440 H444 0.931 . S
C441 N438 1.313 . S
C441 N442 1.344 . S
C441 H445 0.930 . S
N442 C439 1.377 . S
N442 C441 1.344 . S
O443 Co435 2.055 . S
O443 C447 1.253 . S
H444 C440 0.931 . S
H445 C441 0.930 . S
O446 Co435 2.039 1_554 S
O446 C436 1.265 . S
C447 O443 1.253 . S
C447 O448 1.227 . S
O448 C447 1.227 . S
N449 Co435 2.140 . S
N449 C452 1.346 . S
N449 C453 1.345 1_556 S
C450 C451 1.385 1_554 S
C450 C454 1.393 . S
C451 C450 1.385 1_556 S
C451 C452 1.369 . S
C451 H460 0.929 . S
C452 N449 1.346 . S
C452 C451 1.369 . S
C452 H455 0.928 . S
C453 N449 1.345 1_554 S
C453 C454 1.371 . S
C453 H456 0.931 . S
C454 C450 1.393 . S
C454 C453 1.371 . S
C454 H461 0.930 . S
H455 C452 0.928 . S
H456 C453 0.931 . S
H457 C433 0.930 . S
H458 C430 0.930 . S
H459 C439 0.930 . S
H460 C451 0.929 . S
H461 C454 0.930 . S
C462 C463 1.351 . S
C462 N465 1.368 . S
C462 H467 0.931 . S
C463 C462 1.351 . S
C463 N464 1.373 . S
C463 H491 0.930 . S
N464 C463 1.373 . S
N464 C466 1.340 . S
N465 C462 1.368 . S
N465 C466 1.321 . S
N465 Co468 2.135 . S
C466 N464 1.340 . S
C466 N465 1.321 . S
C466 H490 0.930 . S
H467 C462 0.931 . S
Co468 N465 2.135 . S
Co468 N471 2.121 1_556 S
Co468 O476 2.055 . S
Co468 O479 2.039 1_556 S
Co468 N482 2.140 . S
C469 O470 1.227 . S
C469 O479 1.265 . S
O470 C469 1.227 . S
N471 Co468 2.121 1_554 S
N471 C473 1.375 . S
N471 C474 1.313 . S
C472 C473 1.338 . S
C472 N475 1.377 . S
C472 H492 0.930 . S
C473 N471 1.375 . S
C473 C472 1.338 . S
C473 H477 0.931 . S
C474 N471 1.313 . S
C474 N475 1.344 . S
C474 H478 0.930 . S
N475 C472 1.377 . S
N475 C474 1.344 . S
O476 Co468 2.055 . S
O476 C480 1.253 . S
H477 C473 0.931 . S
H478 C474 0.930 . S
O479 Co468 2.039 1_554 S
O479 C469 1.265 . S
C480 O476 1.253 . S
C480 O481 1.227 . S
O481 C480 1.227 . S
N482 Co468 2.140 . S
N482 C485 1.346 . S
N482 C486 1.345 1_556 S
C483 C484 1.385 1_554 S
C483 C487 1.393 . S
C484 C483 1.385 1_556 S
C484 C485 1.369 . S
C484 H493 0.929 . S
C485 N482 1.346 . S
C485 C484 1.369 . S
C485 H488 0.928 . S
C486 N482 1.345 1_554 S
C486 C487 1.371 . S
C486 H489 0.931 . S
C487 C483 1.393 . S
C487 C486 1.371 . S
C487 H494 0.930 . S
H488 C485 0.928 . S
H489 C486 0.931 . S
H490 C466 0.930 . S
H491 C463 0.930 . S
H492 C472 0.930 . S
H493 C484 0.929 . S
H494 C487 0.930 . S
C495 C496 1.351 . S
C495 N498 1.368 . S
C495 H500 0.931 . S
C496 C495 1.351 . S
C496 N497 1.373 . S
C496 H524 0.930 . S
N497 C496 1.373 . S
N497 C499 1.340 . S
N498 C495 1.368 . S
N498 C499 1.321 . S
N498 Co501 2.135 . S
C499 N497 1.340 . S
C499 N498 1.321 . S
C499 H523 0.930 . S
H500 C495 0.931 . S
Co501 N498 2.135 . S
Co501 N504 2.121 1_556 S
Co501 O509 2.055 . S
Co501 O512 2.039 1_556 S
Co501 N515 2.140 . S
C502 O503 1.227 . S
C502 O512 1.265 . S
O503 C502 1.227 . S
N504 Co501 2.121 1_554 S
N504 C506 1.375 . S
N504 C507 1.313 . S
C505 C506 1.338 . S
C505 N508 1.377 . S
C505 H525 0.930 . S
C506 N504 1.375 . S
C506 C505 1.338 . S
C506 H510 0.931 . S
C507 N504 1.313 . S
C507 N508 1.344 . S
C507 H511 0.930 . S
N508 C505 1.377 . S
N508 C507 1.344 . S
O509 Co501 2.055 . S
O509 C513 1.253 . S
H510 C506 0.931 . S
H511 C507 0.930 . S
O512 Co501 2.039 1_554 S
O512 C502 1.265 . S
C513 O509 1.253 . S
C513 O514 1.227 . S
O514 C513 1.227 . S
N515 Co501 2.140 . S
N515 C518 1.346 . S
N515 C519 1.345 1_556 S
C516 C517 1.385 1_554 S
C516 C520 1.393 . S
C517 C516 1.385 1_556 S
C517 C518 1.369 . S
C517 H526 0.929 . S
C518 N515 1.346 . S
C518 C517 1.369 . S
C518 H521 0.928 . S
C519 N515 1.345 1_554 S
C519 C520 1.371 . S
C519 H522 0.931 . S
C520 C516 1.393 . S
C520 C519 1.371 . S
C520 H527 0.930 . S
H521 C518 0.928 . S
H522 C519 0.931 . S
H523 C499 0.930 . S
H524 C496 0.930 . S
H525 C505 0.930 . S
H526 C517 0.929 . S
H527 C520 0.930 . S
H528 C534 0.930 . S
H529 C537 0.930 . S
H530 C538 0.930 . S
H531 C539 0.930 . S
H532 C542 0.930 . S
H533 C543 0.930 . S
C534 H528 0.930 . S
C534 C535 1.355 1_554 S
C534 C536 1.415 . S
C535 C534 1.355 1_556 S
C535 C537 1.419 . S
C536 C534 1.415 . S
C536 C541 1.425 1_554 S
C536 C543 1.409 . S
C537 H529 0.930 . S
C537 C535 1.419 . S
C537 C538 1.362 . S
C538 H530 0.930 . S
C538 C537 1.362 . S
C538 C541 1.409 . S
C539 H531 0.930 . S
C539 C540 1.355 1_556 S
C539 C541 1.415 . S
C540 C539 1.355 1_554 S
C540 C542 1.419 . S
C541 C536 1.425 1_556 S
C541 C538 1.409 . S
C541 C539 1.415 . S
C542 H532 0.930 . S
C542 C540 1.419 . S
C542 C543 1.362 . S
C543 H533 0.930 . S
C543 C536 1.409 . S
C543 C542 1.362 . S
H544 C550 0.930 . S
H545 C553 0.930 . S
H546 C554 0.930 . S
H547 C555 0.930 . S
H548 C558 0.930 . S
H549 C559 0.930 . S
C550 H544 0.930 . S
C550 C551 1.355 1_554 S
C550 C552 1.415 . S
C551 C550 1.355 1_556 S
C551 C553 1.419 . S
C552 C550 1.415 . S
C552 C557 1.425 1_554 S
C552 C559 1.409 . S
C553 H545 0.930 . S
C553 C551 1.419 . S
C553 C554 1.362 . S
C554 H546 0.930 . S
C554 C553 1.362 . S
C554 C557 1.409 . S
C555 H547 0.930 . S
C555 C556 1.355 1_556 S
C555 C557 1.415 . S
C556 C555 1.355 1_554 S
C556 C558 1.419 . S
C557 C552 1.425 1_556 S
C557 C554 1.409 . S
C557 C555 1.415 . S
C558 H548 0.930 . S
C558 C556 1.419 . S
C558 C559 1.362 . S
C559 H549 0.930 . S
C559 C552 1.409 . S
C559 C558 1.362 . S
H560 C566 0.930 . S
H561 C569 0.930 . S
H562 C570 0.930 . S
H563 C571 0.930 . S
H564 C574 0.930 . S
H565 C575 0.930 . S
C566 H560 0.930 . S
C566 C567 1.355 1_554 S
C566 C568 1.415 . S
C567 C566 1.355 1_556 S
C567 C569 1.419 . S
C568 C566 1.415 . S
C568 C573 1.425 1_554 S
C568 C575 1.409 . S
C569 H561 0.930 . S
C569 C567 1.419 . S
C569 C570 1.362 . S
C570 H562 0.930 . S
C570 C569 1.362 . S
C570 C573 1.409 . S
C571 H563 0.930 . S
C571 C572 1.354 1_556 S
C571 C573 1.415 . S
C572 C571 1.354 1_554 S
C572 C574 1.419 . S
C573 C568 1.425 1_556 S
C573 C570 1.409 . S
C573 C571 1.415 . S
C574 H564 0.930 . S
C574 C572 1.419 . S
C574 C575 1.362 . S
C575 H565 0.930 . S
C575 C568 1.409 . S
C575 C574 1.362 . S
H576 C582 0.930 . S
H577 C585 0.930 . S
H578 C586 0.930 . S
H579 C587 0.930 . S
H580 C590 0.930 . S
H581 C591 0.930 . S
C582 H576 0.930 . S
C582 C583 1.355 1_556 S
C582 C584 1.415 . S
C583 C582 1.355 1_554 S
C583 C585 1.419 . S
C584 C582 1.415 . S
C584 C589 1.425 1_556 S
C584 C591 1.409 . S
C585 H577 0.930 . S
C585 C583 1.419 . S
C585 C586 1.362 . S
C586 H578 0.930 . S
C586 C585 1.362 . S
C586 C589 1.409 . S
C587 H579 0.930 . S
C587 C588 1.355 1_554 S
C587 C589 1.415 . S
C588 C587 1.355 1_556 S
C588 C590 1.419 . S
C589 C584 1.425 1_554 S
C589 C586 1.409 . S
C589 C587 1.415 . S
C590 H580 0.930 . S
C590 C588 1.419 . S
C590 C591 1.362 . S
C591 H581 0.930 . S
C591 C584 1.409 . S
C591 C590 1.362 . S
H592 C598 0.930 . S
H593 C601 0.930 . S
H594 C602 0.930 . S
H595 C603 0.930 . S
H596 C606 0.930 . S
H597 C607 0.930 . S
C598 H592 0.930 . S
C598 C599 1.355 . S
C598 C600 1.415 . S
C599 C598 1.355 . S
C599 C601 1.419 . S
C600 C598 1.415 . S
C600 C605 1.425 . S
C600 C607 1.409 . S
C601 H593 0.930 . S
C601 C599 1.419 . S
C601 C602 1.362 . S
C602 H594 0.930 . S
C602 C601 1.362 . S
C602 C605 1.409 . S
C603 H595 0.930 . S
C603 C604 1.355 . S
C603 C605 1.415 . S
C604 C603 1.355 . S
C604 C606 1.419 . S
C605 C600 1.425 . S
C605 C602 1.409 . S
C605 C603 1.415 . S
C606 H596 0.930 . S
C606 C604 1.419 . S
C606 C607 1.362 . S
C607 H597 0.930 . S
C607 C600 1.409 . S
C607 C606 1.362 . S
H608 C614 0.930 . S
H609 C617 0.930 . S
H610 C618 0.930 . S
H611 C619 0.930 . S
H612 C622 0.930 . S
H613 C623 0.930 . S
C614 H608 0.930 . S
C614 C615 1.355 . S
C614 C616 1.415 . S
C615 C614 1.355 . S
C615 C617 1.419 . S
C616 C614 1.415 . S
C616 C621 1.425 . S
C616 C623 1.409 . S
C617 H609 0.930 . S
C617 C615 1.419 . S
C617 C618 1.362 . S
C618 H610 0.930 . S
C618 C617 1.362 . S
C618 C621 1.409 . S
C619 H611 0.930 . S
C619 C620 1.355 . S
C619 C621 1.415 . S
C620 C619 1.355 . S
C620 C622 1.419 . S
C621 C616 1.425 . S
C621 C618 1.409 . S
C621 C619 1.415 . S
C622 H612 0.930 . S
C622 C620 1.419 . S
C622 C623 1.362 . S
C623 H613 0.930 . S
C623 C616 1.409 . S
C623 C622 1.362 . S
H624 C630 0.930 . S
H625 C633 0.930 . S
H626 C634 0.930 . S
H627 C635 0.930 . S
H628 C638 0.930 . S
H629 C639 0.930 . S
C630 H624 0.930 . S
C630 C631 1.355 . S
C630 C632 1.415 . S
C631 C630 1.355 . S
C631 C633 1.419 . S
C632 C630 1.415 . S
C632 C637 1.425 . S
C632 C639 1.409 . S
C633 H625 0.930 . S
C633 C631 1.419 . S
C633 C634 1.362 . S
C634 H626 0.930 . S
C634 C633 1.362 . S
C634 C637 1.409 . S
C635 H627 0.930 . S
C635 C636 1.355 . S
C635 C637 1.415 . S
C636 C635 1.355 . S
C636 C638 1.419 . S
C637 C632 1.425 . S
C637 C634 1.409 . S
C637 C635 1.415 . S
C638 H628 0.930 . S
C638 C636 1.419 . S
C638 C639 1.362 . S
C639 H629 0.930 . S
C639 C632 1.409 . S
C639 C638 1.362 . S
H640 C646 0.930 . S
H641 C649 0.930 . S
H642 C650 0.930 . S
H643 C651 0.930 . S
H644 C654 0.930 . S
H645 C655 0.930 . S
C646 H640 0.930 . S
C646 C647 1.355 . S
C646 C648 1.415 . S
C647 C646 1.355 . S
C647 C649 1.419 . S
C648 C646 1.415 . S
C648 C653 1.425 . S
C648 C655 1.409 . S
C649 H641 0.930 . S
C649 C647 1.419 . S
C649 C650 1.362 . S
C650 H642 0.930 . S
C650 C649 1.362 . S
C650 C653 1.409 . S
C651 H643 0.930 . S
C651 C652 1.355 . S
C651 C653 1.415 . S
C652 C651 1.355 . S
C652 C654 1.419 . S
C653 C648 1.425 . S
C653 C650 1.409 . S
C653 C651 1.415 . S
C654 H644 0.930 . S
C654 C652 1.419 . S
C654 C655 1.362 . S
C655 H645 0.930 . S
C655 C648 1.409 . S
C655 C654 1.362 . S
H656 C662 0.930 . S
H657 C665 0.930 . S
H658 C666 0.943 . S
H659 C667 0.930 . S
H660 C670 0.930 . S
H661 C671 0.943 . S
C662 H656 0.930 . S
C662 C663 1.355 . S
C662 C664 1.415 . S
C663 C662 1.355 . S
C663 C665 1.419 . S
C664 C662 1.415 . S
C664 C669 1.425 1_655 S
C664 C671 1.409 1_655 S
C665 H657 0.930 . S
C665 C663 1.419 . S
C665 C666 1.362 . S
C666 H658 0.943 . S
C666 C665 1.362 . S
C666 C669 1.409 1_655 S
C667 H659 0.930 . S
C667 C668 1.355 . S
C667 C669 1.415 . S
C668 C667 1.355 . S
C668 C670 1.419 . S
C669 C664 1.425 1_455 S
C669 C666 1.409 1_455 S
C669 C667 1.415 . S
C670 H660 0.930 . S
C670 C668 1.419 . S
C670 C671 1.362 . S
C671 H661 0.943 . S
C671 C664 1.409 1_455 S
C671 C670 1.362 . S
H672 C678 0.930 . S
H673 C681 0.930 . S
H674 C682 0.930 . S
H675 C683 0.930 . S
H676 C686 0.930 . S
H677 C687 0.930 . S
C678 H672 0.930 . S
C678 C679 1.355 . S
C678 C680 1.415 1_565 S
C679 C678 1.355 . S
C679 C681 1.419 . S
C680 C678 1.415 1_545 S
C680 C685 1.425 1_545 S
C680 C687 1.409 . S
C681 H673 0.930 . S
C681 C679 1.419 . S
C681 C682 1.362 . S
C682 H674 0.930 . S
C682 C681 1.362 . S
C682 C685 1.409 . S
C683 H675 0.930 . S
C683 C684 1.355 . S
C683 C685 1.415 1_545 S
C684 C683 1.355 . S
C684 C686 1.419 . S
C685 C680 1.425 1_565 S
C685 C682 1.409 . S
C685 C683 1.415 1_565 S
C686 H676 0.930 . S
C686 C684 1.419 . S
C686 C687 1.362 . S
C687 H677 0.930 . S
C687 C680 1.409 . S
C687 C686 1.362 . S
H688 C694 0.930 . S
H689 C697 0.930 . S
H690 C698 0.930 . S
H691 C699 0.930 . S
H692 C702 0.930 . S
H693 C703 0.930 . S
C694 H688 0.930 . S
C694 C695 1.355 . S
C694 C696 1.415 1_455 S
C695 C694 1.355 . S
C695 C697 1.419 . S
C696 C694 1.415 1_655 S
C696 C701 1.425 1_655 S
C696 C703 1.409 . S
C697 H689 0.930 . S
C697 C695 1.419 . S
C697 C698 1.362 . S
C698 H690 0.930 . S
C698 C697 1.362 . S
C698 C701 1.409 . S
C699 H691 0.930 . S
C699 C700 1.355 . S
C699 C701 1.415 1_655 S
C700 C699 1.355 . S
C700 C702 1.419 . S
C701 C696 1.425 1_455 S
C701 C698 1.409 . S
C701 C699 1.415 1_455 S
C702 H692 0.930 . S
C702 C700 1.419 . S
C702 C703 1.362 . S
C703 H693 0.930 . S
C703 C696 1.409 . S
C703 C702 1.362 . S
H704 C710 0.930 . S
H705 C713 0.930 . S
H706 C714 0.930 . S
H707 C715 0.930 . S
H708 C718 0.930 . S
H709 C719 0.930 . S
C710 H704 0.930 . S
C710 C711 1.355 . S
C710 C712 1.415 . S
C711 C710 1.355 . S
C711 C713 1.419 . S
C712 C710 1.415 . S
C712 C717 1.425 1_545 S
C712 C719 1.409 . S
C713 H705 0.930 . S
C713 C711 1.419 . S
C713 C714 1.362 1_545 S
C714 H706 0.930 . S
C714 C713 1.362 1_565 S
C714 C717 1.409 . S
C715 H707 0.930 . S
C715 C716 1.355 . S
C715 C717 1.415 . S
C716 C715 1.355 . S
C716 C718 1.419 . S
C717 C712 1.425 1_565 S
C717 C714 1.409 . S
C717 C715 1.415 . S
C718 H708 0.930 . S
C718 C716 1.419 . S
C718 C719 1.362 1_565 S
C719 H709 0.930 . S
C719 C712 1.409 . S
C719 C718 1.362 1_545 S
H720 C726 0.930 . S
H721 C729 0.930 . S
H722 C730 0.915 1_655 S
H723 C731 0.930 . S
H724 C734 0.930 . S
H725 C735 0.915 1_455 S
C726 H720 0.930 . S
C726 C727 1.355 . S
C726 C728 1.415 . S
C727 C726 1.355 . S
C727 C729 1.419 . S
C728 C726 1.415 . S
C728 C733 1.425 1_455 S
C728 C735 1.400 1_455 S
C729 H721 0.930 . S
C729 C727 1.419 . S
C729 C730 1.387 . S
C730 H722 0.915 1_455 S
C730 C729 1.387 . S
C730 C733 1.400 1_455 S
C731 H723 0.930 . S
C731 C732 1.355 . S
C731 C733 1.415 . S
C732 C731 1.355 . S
C732 C734 1.419 . S
C733 C728 1.425 1_655 S
C733 C730 1.400 1_655 S
C733 C731 1.415 . S
C734 H724 0.930 . S
C734 C732 1.419 . S
C734 C735 1.387 . S
C735 H725 0.915 1_655 S
C735 C728 1.400 1_655 S
C735 C734 1.387 . S
H736 C742 0.930 . S
H737 C745 0.930 . S
H738 C746 0.930 1_545 S
H739 C747 0.930 . S
H740 C750 0.930 . S
H741 C751 0.930 1_565 S
C742 H736 0.930 . S
C742 C743 1.355 . S
C742 C744 1.415 . S
C743 C742 1.355 . S
C743 C745 1.419 . S
C744 C742 1.415 . S
C744 C749 1.425 1_565 S
C744 C751 1.409 1_565 S
C745 H737 0.930 . S
C745 C743 1.419 . S
C745 C746 1.362 . S
C746 H738 0.930 1_565 S
C746 C745 1.362 . S
C746 C749 1.409 1_565 S
C747 H739 0.930 . S
C747 C748 1.355 . S
C747 C749 1.415 . S
C748 C747 1.355 . S
C748 C750 1.419 . S
C749 C744 1.425 1_545 S
C749 C746 1.409 1_545 S
C749 C747 1.415 . S
C750 H740 0.930 . S
C750 C748 1.419 . S
C750 C751 1.362 . S
C751 H741 0.930 1_545 S
C751 C744 1.409 1_545 S
C751 C750 1.362 . S
H752 C758 0.930 . S
H753 C761 0.930 . S
H754 C762 0.930 . S
H755 C763 0.930 . S
H756 C766 0.930 . S
H757 C767 0.930 . S
C758 H752 0.930 . S
C758 C759 1.355 . S
C758 C760 1.415 1_655 S
C759 C758 1.355 . S
C759 C761 1.419 . S
C760 C758 1.415 1_455 S
C760 C765 1.425 1_455 S
C760 C767 1.409 . S
C761 H753 0.930 . S
C761 C759 1.419 . S
C761 C762 1.362 . S
C762 H754 0.930 . S
C762 C761 1.362 . S
C762 C765 1.409 . S
C763 H755 0.930 . S
C763 C764 1.355 . S
C763 C765 1.415 1_455 S
C764 C763 1.355 . S
C764 C766 1.419 . S
C765 C760 1.425 1_655 S
C765 C762 1.409 . S
C765 C763 1.415 1_655 S
C766 H756 0.930 . S
C766 C764 1.419 . S
C766 C767 1.362 . S
C767 H757 0.930 . S
C767 C760 1.409 . S
C767 C766 1.362 . S
H768 C774 0.930 . S
H769 C777 0.930 . S
H770 C778 0.942 . S
H771 C779 0.930 . S
H772 C782 0.930 . S
H773 C783 0.942 . S
C774 H768 0.930 . S
C774 C775 1.355 . S
C774 C776 1.415 . S
C775 C774 1.355 . S
C775 C777 1.419 . S
C776 C774 1.415 . S
C776 C781 1.425 1_545 S
C776 C783 1.415 . S
C777 H769 0.930 . S
C777 C775 1.419 . S
C777 C778 1.346 1_545 S
C778 H770 0.942 . S
C778 C777 1.346 1_565 S
C778 C781 1.415 . S
C779 H771 0.930 . S
C779 C780 1.355 . S
C779 C781 1.415 . S
C780 C779 1.355 . S
C780 C782 1.419 . S
C781 C776 1.425 1_565 S
C781 C778 1.415 . S
C781 C779 1.415 . S
C782 H772 0.930 . S
C782 C780 1.419 . S
C782 C783 1.346 1_565 S
C783 H773 0.942 . S
C783 C776 1.415 . S
C783 C782 1.346 1_545 S
H784 C790 0.930 . S
H785 C793 0.930 . S
H786 C794 0.930 . S
H787 C795 0.930 . S
H788 C798 0.930 . S
H789 C799 0.930 . S
C790 H784 0.930 . S
C790 C791 1.355 . S
C790 C792 1.415 . S
C791 C790 1.355 . S
C791 C793 1.419 . S
C792 C790 1.415 . S
C792 C797 1.425 . S
C792 C799 1.409 . S
C793 H785 0.930 . S
C793 C791 1.419 . S
C793 C794 1.362 . S
C794 H786 0.930 . S
C794 C793 1.362 . S
C794 C797 1.409 . S
C795 H787 0.930 . S
C795 C796 1.355 . S
C795 C797 1.415 . S
C796 C795 1.355 . S
C796 C798 1.419 . S
C797 C792 1.425 . S
C797 C794 1.409 . S
C797 C795 1.415 . S
C798 H788 0.930 . S
C798 C796 1.419 . S
C798 C799 1.362 . S
C799 H789 0.930 . S
C799 C792 1.409 . S
C799 C798 1.362 . S
H800 C806 0.930 . S
H801 C809 0.930 . S
H802 C810 0.930 . S
H803 C811 0.930 . S
H804 C814 0.930 . S
H805 C815 0.930 . S
C806 H800 0.930 . S
C806 C807 1.355 . S
C806 C808 1.415 . S
C807 C806 1.355 . S
C807 C809 1.419 . S
C808 C806 1.415 . S
C808 C813 1.425 . S
C808 C815 1.409 . S
C809 H801 0.930 . S
C809 C807 1.419 . S
C809 C810 1.362 . S
C810 H802 0.930 . S
C810 C809 1.362 . S
C810 C813 1.409 . S
C811 H803 0.930 . S
C811 C812 1.355 . S
C811 C813 1.415 . S
C812 C811 1.355 . S
C812 C814 1.419 . S
C813 C808 1.425 . S
C813 C810 1.409 . S
C813 C811 1.415 . S
C814 H804 0.930 . S
C814 C812 1.419 . S
C814 C815 1.362 . S
C815 H805 0.930 . S
C815 C808 1.409 . S
C815 C814 1.362 . S
H816 C822 0.930 . S
H817 C825 0.930 . S
H818 C826 0.930 . S
H819 C827 0.930 . S
H820 C830 0.930 . S
H821 C831 0.930 . S
C822 H816 0.930 . S
C822 C823 1.355 . S
C822 C824 1.415 . S
C823 C822 1.355 . S
C823 C825 1.419 . S
C824 C822 1.415 . S
C824 C829 1.425 . S
C824 C831 1.409 . S
C825 H817 0.930 . S
C825 C823 1.419 . S
C825 C826 1.362 . S
C826 H818 0.930 . S
C826 C825 1.362 . S
C826 C829 1.409 . S
C827 H819 0.930 . S
C827 C828 1.355 . S
C827 C829 1.415 . S
C828 C827 1.355 . S
C828 C830 1.419 . S
C829 C824 1.425 . S
C829 C826 1.409 . S
C829 C827 1.415 . S
C830 H820 0.930 . S
C830 C828 1.419 . S
C830 C831 1.362 . S
C831 H821 0.930 . S
C831 C824 1.409 . S
C831 C830 1.362 . S
H832 C838 0.930 . S
H833 C841 0.930 . S
H834 C842 0.930 . S
H835 C843 0.930 . S
H836 C846 0.930 . S
H837 C847 0.930 . S
C838 H832 0.930 . S
C838 C839 1.355 . S
C838 C840 1.415 . S
C839 C838 1.355 . S
C839 C841 1.419 . S
C840 C838 1.415 . S
C840 C845 1.425 . S
C840 C847 1.409 . S
C841 H833 0.930 . S
C841 C839 1.419 . S
C841 C842 1.362 . S
C842 H834 0.930 . S
C842 C841 1.362 . S
C842 C845 1.409 . S
C843 H835 0.930 . S
C843 C844 1.355 . S
C843 C845 1.415 . S
C844 C843 1.355 . S
C844 C846 1.419 . S
C845 C840 1.425 . S
C845 C842 1.409 . S
C845 C843 1.415 . S
C846 H836 0.930 . S
C846 C844 1.419 . S
C846 C847 1.362 . S
C847 H837 0.930 . S
C847 C840 1.409 . S
C847 C846 1.362 . S
H848 C854 0.930 . S
H849 C857 0.930 . S
H850 C858 0.930 . S
H851 C859 0.930 . S
H852 C862 0.930 . S
H853 C863 0.930 . S
C854 H848 0.930 . S
C854 C855 1.355 . S
C854 C856 1.415 . S
C855 C854 1.355 . S
C855 C857 1.419 . S
C856 C854 1.415 . S
C856 C861 1.425 . S
C856 C863 1.409 . S
C857 H849 0.930 . S
C857 C855 1.419 . S
C857 C858 1.362 . S
C858 H850 0.930 . S
C858 C857 1.362 . S
C858 C861 1.409 . S
C859 H851 0.930 . S
C859 C860 1.355 . S
C859 C861 1.415 . S
C860 C859 1.355 . S
C860 C862 1.419 . S
C861 C856 1.425 . S
C861 C858 1.409 . S
C861 C859 1.415 . S
C862 H852 0.930 . S
C862 C860 1.419 . S
C862 C863 1.362 . S
C863 H853 0.930 . S
C863 C856 1.409 . S
C863 C862 1.362 . S
H864 C870 0.930 . S
H865 C873 0.930 . S
H866 C874 0.930 . S
H867 C875 0.930 . S
H868 C878 0.930 . S
H869 C879 0.930 . S
C870 H864 0.930 . S
C870 C871 1.355 . S
C870 C872 1.415 . S
C871 C870 1.355 . S
C871 C873 1.419 . S
C872 C870 1.415 . S
C872 C877 1.425 . S
C872 C879 1.409 . S
C873 H865 0.930 . S
C873 C871 1.419 . S
C873 C874 1.362 . S
C874 H866 0.930 . S
C874 C873 1.362 . S
C874 C877 1.409 . S
C875 H867 0.930 . S
C875 C876 1.355 . S
C875 C877 1.415 . S
C876 C875 1.355 . S
C876 C878 1.419 . S
C877 C872 1.425 . S
C877 C874 1.409 . S
C877 C875 1.415 . S
C878 H868 0.930 . S
C878 C876 1.419 . S
C878 C879 1.362 . S
C879 H869 0.930 . S
C879 C872 1.409 . S
C879 C878 1.362 . S
H880 C886 0.930 . S
H881 C889 0.930 . S
H882 C890 0.930 . S
H883 C891 0.930 . S
H884 C894 0.930 . S
H885 C895 0.930 . S
C886 H880 0.930 . S
C886 C887 1.355 . S
C886 C888 1.415 . S
C887 C886 1.355 . S
C887 C889 1.419 . S
C888 C886 1.415 . S
C888 C893 1.425 . S
C888 C895 1.409 . S
C889 H881 0.930 . S
C889 C887 1.419 . S
C889 C890 1.362 . S
C890 H882 0.930 . S
C890 C889 1.362 . S
C890 C893 1.409 . S
C891 H883 0.930 . S
C891 C892 1.355 . S
C891 C893 1.415 . S
C892 C891 1.355 . S
C892 C894 1.419 . S
C893 C888 1.425 . S
C893 C890 1.409 . S
C893 C891 1.415 . S
C894 H884 0.930 . S
C894 C892 1.419 . S
C894 C895 1.362 . S
C895 H885 0.930 . S
C895 C888 1.409 . S
C895 C894 1.362 . S
H896 C902 0.930 . S
H897 C905 0.930 . S
H898 C906 0.930 . S
H899 C907 0.930 . S
H900 C910 0.930 . S
H901 C911 0.930 . S
C902 H896 0.930 . S
C902 C903 1.355 . S
C902 C904 1.415 . S
C903 C902 1.355 . S
C903 C905 1.419 . S
C904 C902 1.415 . S
C904 C909 1.425 . S
C904 C911 1.409 . S
C905 H897 0.930 . S
C905 C903 1.419 . S
C905 C906 1.362 . S
C906 H898 0.930 . S
C906 C905 1.362 . S
C906 C909 1.409 . S
C907 H899 0.930 . S
C907 C908 1.355 . S
C907 C909 1.415 . S
C908 C907 1.355 . S
C908 C910 1.419 . S
C909 C904 1.425 . S
C909 C906 1.409 . S
C909 C907 1.415 . S
C910 H900 0.930 . S
C910 C908 1.419 . S
C910 C911 1.362 . S
C911 H901 0.930 . S
C911 C904 1.409 . S
C911 C910 1.362 . S
H912 C918 0.930 . S
H913 C921 0.930 . S
H914 C922 0.930 . S
H915 C923 0.930 . S
H916 C926 0.930 . S
H917 C927 0.930 . S
C918 H912 0.930 . S
C918 C919 1.355 . S
C918 C920 1.415 . S
C919 C918 1.355 . S
C919 C921 1.419 . S
C920 C918 1.415 . S
C920 C925 1.425 . S
C920 C927 1.409 . S
C921 H913 0.930 . S
C921 C919 1.419 . S
C921 C922 1.362 . S
C922 H914 0.930 . S
C922 C921 1.362 . S
C922 C925 1.409 . S
C923 H915 0.930 . S
C923 C924 1.355 . S
C923 C925 1.415 . S
C924 C923 1.355 . S
C924 C926 1.419 . S
C925 C920 1.425 . S
C925 C922 1.409 . S
C925 C923 1.415 . S
C926 H916 0.930 . S
C926 C924 1.419 . S
C926 C927 1.362 . S
C927 H917 0.930 . S
C927 C920 1.409 . S
C927 C926 1.362 . S
H928 C934 0.930 . S
H929 C937 0.930 . S
H930 C938 0.930 . S
H931 C939 0.930 . S
H932 C942 0.930 . S
H933 C943 0.930 . S
C934 H928 0.930 . S
C934 C935 1.355 . S
C934 C936 1.415 . S
C935 C934 1.355 . S
C935 C937 1.419 . S
C936 C934 1.415 . S
C936 C941 1.425 . S
C936 C943 1.409 . S
C937 H929 0.930 . S
C937 C935 1.419 . S
C937 C938 1.362 . S
C938 H930 0.930 . S
C938 C937 1.362 . S
C938 C941 1.409 . S
C939 H931 0.930 . S
C939 C940 1.355 . S
C939 C941 1.415 . S
C940 C939 1.355 . S
C940 C942 1.419 . S
C941 C936 1.425 . S
C941 C938 1.409 . S
C941 C939 1.415 . S
C942 H932 0.930 . S
C942 C940 1.419 . S
C942 C943 1.362 . S
C943 H933 0.930 . S
C943 C936 1.409 . S
C943 C942 1.362 . S
H944 C950 0.930 . S
H945 C953 0.930 . S
H946 C954 0.930 . S
H947 C955 0.930 . S
H948 C958 0.930 . S
H949 C959 0.930 . S
C950 H944 0.930 . S
C950 C951 1.355 . S
C950 C952 1.415 . S
C951 C950 1.355 . S
C951 C953 1.419 . S
C952 C950 1.415 . S
C952 C957 1.425 . S
C952 C959 1.409 . S
C953 H945 0.930 . S
C953 C951 1.419 . S
C953 C954 1.362 . S
C954 H946 0.930 . S
C954 C953 1.362 . S
C954 C957 1.409 . S
C955 H947 0.930 . S
C955 C956 1.355 . S
C955 C957 1.415 . S
C956 C955 1.355 . S
C956 C958 1.419 . S
C957 C952 1.425 . S
C957 C954 1.409 . S
C957 C955 1.415 . S
C958 H948 0.930 . S
C958 C956 1.419 . S
C958 C959 1.362 . S
C959 H949 0.930 . S
C959 C952 1.409 . S
C959 C958 1.362 . S
H960 C966 0.930 . S
H961 C969 0.930 . S
H962 C970 0.930 . S
H963 C971 0.930 . S
H964 C974 0.930 . S
H965 C975 0.930 . S
C966 H960 0.930 . S
C966 C967 1.355 . S
C966 C968 1.415 . S
C967 C966 1.355 . S
C967 C969 1.419 . S
C968 C966 1.415 . S
C968 C973 1.425 . S
C968 C975 1.409 . S
C969 H961 0.930 . S
C969 C967 1.419 . S
C969 C970 1.362 . S
C970 H962 0.930 . S
C970 C969 1.362 . S
C970 C973 1.409 . S
C971 H963 0.930 . S
C971 C972 1.355 . S
C971 C973 1.415 . S
C972 C971 1.355 . S
C972 C974 1.419 . S
C973 C968 1.425 . S
C973 C970 1.409 . S
C973 C971 1.415 . S
C974 H964 0.930 . S
C974 C972 1.419 . S
C974 C975 1.362 . S
C975 H965 0.930 . S
C975 C968 1.409 . S
C975 C974 1.362 . S
H976 C982 0.930 . S
H977 C985 0.930 . S
H978 C986 0.930 . S
H979 C987 0.930 . S
H980 C990 0.930 . S
H981 C991 0.930 . S
C982 H976 0.930 . S
C982 C983 1.355 . S
C982 C984 1.415 . S
C983 C982 1.355 . S
C983 C985 1.419 . S
C984 C982 1.415 . S
C984 C989 1.425 . S
C984 C991 1.409 . S
C985 H977 0.930 . S
C985 C983 1.419 . S
C985 C986 1.362 . S
C986 H978 0.930 . S
C986 C985 1.362 . S
C986 C989 1.409 . S
C987 H979 0.930 . S
C987 C988 1.355 . S
C987 C989 1.415 . S
C988 C987 1.355 . S
C988 C990 1.419 . S
C989 C984 1.425 . S
C989 C986 1.409 . S
C989 C987 1.415 . S
C990 H980 0.930 . S
C990 C988 1.419 . S
C990 C991 1.362 . S
C991 H981 0.930 . S
C991 C984 1.409 . S
C991 C990 1.362 . S
H992 C998 0.930 . S
H993 C1001 0.930 . S
H994 C1002 0.930 . S
H995 C1003 0.930 . S
H996 C1006 0.930 . S
H997 C1007 0.930 . S
C998 H992 0.930 . S
C998 C999 1.355 . S
C998 C1000 1.415 . S
C999 C998 1.355 . S
C999 C1001 1.419 . S
C1000 C998 1.415 . S
C1000 C1005 1.425 . S
C1000 C1007 1.409 . S
C1001 H993 0.930 . S
C1001 C999 1.419 . S
C1001 C1002 1.362 . S
C1002 H994 0.930 . S
C1002 C1001 1.362 . S
C1002 C1005 1.409 . S
C1003 H995 0.930 . S
C1003 C1004 1.355 . S
C1003 C1005 1.415 . S
C1004 C1003 1.355 . S
C1004 C1006 1.419 . S
C1005 C1000 1.425 . S
C1005 C1002 1.409 . S
C1005 C1003 1.415 . S
C1006 H996 0.930 . S
C1006 C1004 1.419 . S
C1006 C1007 1.362 . S
C1007 H997 0.930 . S
C1007 C1000 1.409 . S
C1007 C1006 1.362 . S
H1008 C1014 0.930 . S
H1009 C1017 0.930 . S
H1010 C1018 0.930 . S
H1011 C1019 0.930 . S
H1012 C1022 0.930 . S
H1013 C1023 0.930 . S
C1014 H1008 0.930 . S
C1014 C1015 1.355 . S
C1014 C1016 1.415 . S
C1015 C1014 1.355 . S
C1015 C1017 1.419 . S
C1016 C1014 1.415 . S
C1016 C1021 1.425 . S
C1016 C1023 1.409 . S
C1017 H1009 0.930 . S
C1017 C1015 1.419 . S
C1017 C1018 1.362 . S
C1018 H1010 0.930 . S
C1018 C1017 1.362 . S
C1018 C1021 1.409 . S
C1019 H1011 0.930 . S
C1019 C1020 1.355 . S
C1019 C1021 1.415 . S
C1020 C1019 1.355 . S
C1020 C1022 1.419 . S
C1021 C1016 1.425 . S
C1021 C1018 1.409 . S
C1021 C1019 1.415 . S
C1022 H1012 0.930 . S
C1022 C1020 1.419 . S
C1022 C1023 1.362 . S
C1023 H1013 0.930 . S
C1023 C1016 1.409 . S
C1023 C1022 1.362 . S
H1024 C1030 0.930 . S
H1025 C1033 0.930 . S
H1026 C1034 0.930 . S
H1027 C1035 0.930 . S
H1028 C1038 0.930 . S
H1029 C1039 0.930 . S
C1030 H1024 0.930 . S
C1030 C1031 1.355 . S
C1030 C1032 1.415 . S
C1031 C1030 1.355 . S
C1031 C1033 1.419 . S
C1032 C1030 1.415 . S
C1032 C1037 1.425 . S
C1032 C1039 1.409 . S
C1033 H1025 0.930 . S
C1033 C1031 1.419 . S
C1033 C1034 1.362 . S
C1034 H1026 0.930 . S
C1034 C1033 1.362 . S
C1034 C1037 1.409 . S
C1035 H1027 0.930 . S
C1035 C1036 1.355 . S
C1035 C1037 1.415 . S
C1036 C1035 1.355 . S
C1036 C1038 1.419 . S
C1037 C1032 1.425 . S
C1037 C1034 1.409 . S
C1037 C1035 1.415 . S
C1038 H1028 0.930 . S
C1038 C1036 1.419 . S
C1038 C1039 1.362 . S
C1039 H1029 0.930 . S
C1039 C1032 1.409 . S
C1039 C1038 1.362 . S
H1040 C1046 0.930 . S
H1041 C1049 0.930 . S
H1042 C1050 0.930 . S
H1043 C1051 0.930 . S
H1044 C1054 0.930 . S
H1045 C1055 0.930 . S
C1046 H1040 0.930 . S
C1046 C1047 1.355 . S
C1046 C1048 1.415 . S
C1047 C1046 1.355 . S
C1047 C1049 1.419 . S
C1048 C1046 1.415 . S
C1048 C1053 1.425 . S
C1048 C1055 1.409 . S
C1049 H1041 0.930 . S
C1049 C1047 1.419 . S
C1049 C1050 1.362 . S
C1050 H1042 0.930 . S
C1050 C1049 1.362 . S
C1050 C1053 1.409 . S
C1051 H1043 0.930 . S
C1051 C1052 1.355 . S
C1051 C1053 1.415 . S
C1052 C1051 1.355 . S
C1052 C1054 1.419 . S
C1053 C1048 1.425 . S
C1053 C1050 1.409 . S
C1053 C1051 1.415 . S
C1054 H1044 0.930 . S
C1054 C1052 1.419 . S
C1054 C1055 1.362 . S
C1055 H1045 0.930 . S
C1055 C1048 1.409 . S
C1055 C1054 1.362 . S
H1056 C1062 0.930 . S
H1057 C1065 0.930 . S
H1058 C1066 0.930 . S
H1059 C1067 0.930 . S
H1060 C1070 0.930 . S
H1061 C1071 0.930 . S
C1062 H1056 0.930 . S
C1062 C1063 1.355 . S
C1062 C1064 1.415 . S
C1063 C1062 1.355 . S
C1063 C1065 1.419 . S
C1064 C1062 1.415 . S
C1064 C1069 1.425 . S
C1064 C1071 1.409 . S
C1065 H1057 0.930 . S
C1065 C1063 1.419 . S
C1065 C1066 1.362 . S
C1066 H1058 0.930 . S
C1066 C1065 1.362 . S
C1066 C1069 1.409 . S
C1067 H1059 0.930 . S
C1067 C1068 1.355 . S
C1067 C1069 1.415 . S
C1068 C1067 1.355 . S
C1068 C1070 1.419 . S
C1069 C1064 1.425 . S
C1069 C1066 1.409 . S
C1069 C1067 1.415 . S
C1070 H1060 0.930 . S
C1070 C1068 1.419 . S
C1070 C1071 1.362 . S
C1071 H1061 0.930 . S
C1071 C1064 1.409 . S
C1071 C1070 1.362 . S
H1072 C1078 0.930 . S
H1073 C1081 0.930 . S
H1074 C1082 0.930 . S
H1075 C1083 0.930 . S
H1076 C1086 0.930 . S
H1077 C1087 0.930 . S
C1078 H1072 0.930 . S
C1078 C1079 1.355 . S
C1078 C1080 1.415 . S
C1079 C1078 1.355 . S
C1079 C1081 1.419 . S
C1080 C1078 1.415 . S
C1080 C1085 1.425 . S
C1080 C1087 1.409 . S
C1081 H1073 0.930 . S
C1081 C1079 1.419 . S
C1081 C1082 1.362 . S
C1082 H1074 0.930 . S
C1082 C1081 1.362 . S
C1082 C1085 1.409 . S
C1083 H1075 0.930 . S
C1083 C1084 1.355 . S
C1083 C1085 1.415 . S
C1084 C1083 1.355 . S
C1084 C1086 1.419 . S
C1085 C1080 1.425 . S
C1085 C1082 1.409 . S
C1085 C1083 1.415 . S
C1086 H1076 0.930 . S
C1086 C1084 1.419 . S
C1086 C1087 1.362 . S
C1087 H1077 0.930 . S
C1087 C1080 1.409 . S
C1087 C1086 1.362 . S
H1088 C1094 0.930 . S
H1089 C1097 0.930 . S
H1090 C1098 0.930 . S
H1091 C1099 0.930 . S
H1092 C1102 0.930 . S
H1093 C1103 0.930 . S
C1094 H1088 0.930 . S
C1094 C1095 1.355 . S
C1094 C1096 1.415 . S
C1095 C1094 1.355 . S
C1095 C1097 1.419 . S
C1096 C1094 1.415 . S
C1096 C1101 1.425 . S
C1096 C1103 1.409 . S
C1097 H1089 0.930 . S
C1097 C1095 1.419 . S
C1097 C1098 1.362 . S
C1098 H1090 0.930 . S
C1098 C1097 1.362 . S
C1098 C1101 1.409 . S
C1099 H1091 0.930 . S
C1099 C1100 1.355 . S
C1099 C1101 1.415 . S
C1100 C1099 1.355 . S
C1100 C1102 1.419 . S
C1101 C1096 1.425 . S
C1101 C1098 1.409 . S
C1101 C1099 1.415 . S
C1102 H1092 0.930 . S
C1102 C1100 1.419 . S
C1102 C1103 1.362 . S
C1103 H1093 0.930 . S
C1103 C1096 1.409 . S
C1103 C1102 1.362 . S
H1104 C1110 0.930 . S
H1105 C1113 0.930 . S
H1106 C1114 0.930 . S
H1107 C1115 0.930 . S
H1108 C1118 0.930 . S
H1109 C1119 0.930 . S
C1110 H1104 0.930 . S
C1110 C1111 1.355 . S
C1110 C1112 1.415 . S
C1111 C1110 1.355 . S
C1111 C1113 1.419 . S
C1112 C1110 1.415 . S
C1112 C1117 1.425 . S
C1112 C1119 1.409 . S
C1113 H1105 0.930 . S
C1113 C1111 1.419 . S
C1113 C1114 1.362 . S
C1114 H1106 0.930 . S
C1114 C1113 1.362 . S
C1114 C1117 1.409 . S
C1115 H1107 0.930 . S
C1115 C1116 1.355 . S
C1115 C1117 1.415 . S
C1116 C1115 1.355 . S
C1116 C1118 1.419 . S
C1117 C1112 1.425 . S
C1117 C1114 1.409 . S
C1117 C1115 1.415 . S
C1118 H1108 0.930 . S
C1118 C1116 1.419 . S
C1118 C1119 1.362 . S
C1119 H1109 0.930 . S
C1119 C1112 1.409 . S
C1119 C1118 1.362 . S
H1120 C1126 0.930 . S
H1121 C1129 0.930 . S
H1122 C1130 0.930 . S
H1123 C1131 0.930 . S
H1124 C1134 0.930 . S
H1125 C1135 0.930 . S
C1126 H1120 0.930 . S
C1126 C1127 1.355 . S
C1126 C1128 1.415 . S
C1127 C1126 1.355 . S
C1127 C1129 1.419 . S
C1128 C1126 1.415 . S
C1128 C1133 1.425 . S
C1128 C1135 1.409 . S
C1129 H1121 0.930 . S
C1129 C1127 1.419 . S
C1129 C1130 1.362 . S
C1130 H1122 0.930 . S
C1130 C1129 1.362 . S
C1130 C1133 1.409 . S
C1131 H1123 0.930 . S
C1131 C1132 1.355 . S
C1131 C1133 1.415 . S
C1132 C1131 1.355 . S
C1132 C1134 1.419 . S
C1133 C1128 1.425 . S
C1133 C1130 1.409 . S
C1133 C1131 1.415 . S
C1134 H1124 0.930 . S
C1134 C1132 1.419 . S
C1134 C1135 1.362 . S
C1135 H1125 0.930 . S
C1135 C1128 1.409 . S
C1135 C1134 1.362 . S
H1136 C1142 0.930 . S
H1137 C1145 0.930 . S
H1138 C1146 0.930 . S
H1139 C1147 0.930 . S
H1140 C1150 0.930 . S
H1141 C1151 0.930 . S
C1142 H1136 0.930 . S
C1142 C1143 1.355 . S
C1142 C1144 1.415 . S
C1143 C1142 1.355 . S
C1143 C1145 1.419 . S
C1144 C1142 1.415 . S
C1144 C1149 1.425 . S
C1144 C1151 1.409 . S
C1145 H1137 0.930 . S
C1145 C1143 1.419 . S
C1145 C1146 1.362 . S
C1146 H1138 0.930 . S
C1146 C1145 1.362 . S
C1146 C1149 1.409 . S
C1147 H1139 0.930 . S
C1147 C1148 1.355 . S
C1147 C1149 1.415 . S
C1148 C1147 1.355 . S
C1148 C1150 1.419 . S
C1149 C1144 1.425 . S
C1149 C1146 1.409 . S
C1149 C1147 1.415 . S
C1150 H1140 0.930 . S
C1150 C1148 1.419 . S
C1150 C1151 1.362 . S
C1151 H1141 0.930 . S
C1151 C1144 1.409 . S
C1151 C1150 1.362 . S
H1152 C1158 0.930 . S
H1153 C1161 0.930 . S
H1154 C1162 0.930 . S
H1155 C1163 0.930 . S
H1156 C1166 0.930 . S
H1157 C1167 0.930 . S
C1158 H1152 0.930 . S
C1158 C1159 1.355 . S
C1158 C1160 1.415 . S
C1159 C1158 1.355 . S
C1159 C1161 1.419 . S
C1160 C1158 1.415 . S
C1160 C1165 1.425 . S
C1160 C1167 1.409 . S
C1161 H1153 0.930 . S
C1161 C1159 1.419 . S
C1161 C1162 1.362 . S
C1162 H1154 0.930 . S
C1162 C1161 1.362 . S
C1162 C1165 1.409 . S
C1163 H1155 0.930 . S
C1163 C1164 1.355 . S
C1163 C1165 1.415 . S
C1164 C1163 1.355 . S
C1164 C1166 1.419 . S
C1165 C1160 1.425 . S
C1165 C1162 1.409 . S
C1165 C1163 1.415 . S
C1166 H1156 0.930 . S
C1166 C1164 1.419 . S
C1166 C1167 1.362 . S
C1167 H1157 0.930 . S
C1167 C1160 1.409 . S
C1167 C1166 1.362 . S
C535 C21 1.276 . S
C540 C516 1.238 . S
C551 C417 1.243 1_556 S
C556 C54 1.266 1_554 S
C567 C450 1.274 1_556 S
C572 C87 1.238 1_554 S
C583 C483 1.252 . S
C588 C120 1.266 . S
C599 C153 1.238 . S
C604 C318 1.276 . S
C615 C351 1.249 . S
C620 C186 1.266 . S
C631 C384 1.275 . S
C636 C219 1.237 . S
C647 C252 1.242 . S
C652 C285 1.270 . S
C663 C216 1.981 . S
C668 C18 1.968 . S
C679 C249 1.966 . S
C684 C51 1.972 . S
C695 C150 1.966 . S
C700 C84 1.970 . S
C711 C183 1.982 . S
C716 C117 1.986 . S
C727 N145 0.917 . S
C732 N79 0.824 . S
C743 N112 0.915 . S
C748 N178 0.821 . S
C759 N211 0.818 . S
C764 N13 0.841 . S
C775 N46 0.863 . S
C780 N244 0.919 . S
C791 C282 1.987 . S
C796 C480 1.975 . S
C807 C513 1.966 . S
C812 C315 1.975 . S
C823 C414 1.966 . S
C828 C348 1.975 . S
C839 C447 1.966 . S
C844 C381 1.973 . S
C855 N409 0.814 . S
C860 N343 0.910 . S
C871 N442 0.915 . S
C876 N376 0.874 . S
C887 N277 0.914 . S
C892 N475 0.876 . S
C903 N310 0.829 . S
C908 N508 0.919 . S
C919 N167 0.850 . S
C924 N2 0.916 . S
C935 N35 0.888 . S
C940 N200 0.908 . S
C951 N233 0.820 . S
C956 N68 0.848 . S
C967 N101 0.813 . S
C972 N134 0.871 . S
C983 C73 2.224 . S
C988 C238 2.200 . S
C999 C139 2.200 . S
C1004 C106 2.232 . S
C1015 C172 2.200 . S
C1020 C7 2.224 . S
C1031 C40 2.215 . S
C1036 C205 2.206 . S
C1047 N431 0.916 . S
C1052 N266 0.865 . S
C1063 N299 0.915 . S
C1068 N464 0.846 . S
C1079 N497 0.824 . S
C1084 N332 0.903 . S
C1095 N365 0.824 . S
C1100 N398 0.903 . S
C1111 C502 2.198 . S
C1116 C337 2.228 . S
C1127 C370 2.199 . S
C1132 C403 2.224 . S
C1143 C436 2.199 . S
C1148 C271 2.224 . S
C1159 C304 2.198 . S
C1164 C469 2.231 . S
