# Generated by pormake.
# Topology unj, (4)-cn, num edge types: 1
# Building blocks:
#     Node 0, Type 0, BuildingBlock: UXUYUI_clean_sbu_0, # of connection points: 4
#     Node 1, Type 0, BuildingBlock: UXUYUI_clean_sbu_0, # of connection points: 4
#     Node 2, Type 0, BuildingBlock: UXUYUI_clean_sbu_0, # of connection points: 4
#     Node 3, Type 0, BuildingBlock: UXUYUI_clean_sbu_0, # of connection points: 4
#     Node 4, Type 0, BuildingBlock: UXUYUI_clean_sbu_0, # of connection points: 4
#     Node 5, Type 0, BuildingBlock: UXUYUI_clean_sbu_0, # of connection points: 4
#     Edge 6, Type (0, 0), BuildingBlock: MIFKUJ_clean_linker_0, # of connection points: 2
#     Edge 7, Type (0, 0), BuildingBlock: MIFKUJ_clean_linker_0, # of connection points: 2
#     Edge 8, Type (0, 0), BuildingBlock: MIFKUJ_clean_linker_0, # of connection points: 2
#     Edge 9, Type (0, 0), BuildingBlock: MIFKUJ_clean_linker_0, # of connection points: 2
#     Edge 10, Type (0, 0), BuildingBlock: MIFKUJ_clean_linker_0, # of connection points: 2
#     Edge 11, Type (0, 0), BuildingBlock: MIFKUJ_clean_linker_0, # of connection points: 2
#     Edge 12, Type (0, 0), BuildingBlock: MIFKUJ_clean_linker_0, # of connection points: 2
#     Edge 13, Type (0, 0), BuildingBlock: MIFKUJ_clean_linker_0, # of connection points: 2
#     Edge 14, Type (0, 0), BuildingBlock: MIFKUJ_clean_linker_0, # of connection points: 2
#     Edge 15, Type (0, 0), BuildingBlock: MIFKUJ_clean_linker_0, # of connection points: 2
#     Edge 16, Type (0, 0), BuildingBlock: MIFKUJ_clean_linker_0, # of connection points: 2
#     Edge 17, Type (0, 0), BuildingBlock: MIFKUJ_clean_linker_0, # of connection points: 2
# Relax obj value: 0.030
# Max RMSD: 0.052
# Mean RMSD: 0.052
data_MOF--net-unj--node1-UXUYUI_clean_sbu_0--edge1-MIFKUJ_clean_linker_0
_symmetry_space_group_name_H-M    P1
_symmetry_Int_Tables_number       1
_symmetry_cell_setting            triclinic
loop_
_symmetry_equiv_pos_as_xyz
'x, y, z'
_cell_length_a     61.219474
_cell_length_b     61.202993
_cell_length_c     59.261461
_cell_angle_alpha  90.096175
_cell_angle_beta   89.889053
_cell_angle_gamma 119.95609
loop_
_atom_site_label
_atom_site_type_symbol
_atom_site_fract_x
_atom_site_fract_y
_atom_site_fract_z
_atom_type_partial_charge
Li0 Li 0.45964 0.21257 0.57846 0.0
Li1 Li 0.49267 0.2381 0.60614 0.0
Li2 Li 0.45965 0.24848 0.59665 0.0
Li3 Li 0.49275 0.25661 0.56941 0.0
C4 C 0.43102 0.20252 0.61798 0.0
N5 N 0.38145 0.17314 0.63152 0.0
C6 C 0.42542 0.19299 0.63994 0.0
C7 C 0.41142 0.19712 0.6029 0.0
C8 C 0.40023 0.17816 0.64647 0.0
C9 C 0.38649 0.18223 0.61008 0.0
C10 C 0.51327 0.21902 0.57224 0.0
C11 C 0.55535 0.22764 0.56355 0.0
N12 N 0.54735 0.20258 0.565 0.0
C13 C 0.50539 0.19331 0.57338 0.0
C14 C 0.53839 0.23631 0.56705 0.0
C15 C 0.52293 0.18539 0.56978 0.0
C16 C 0.43494 0.17647 0.544 0.0
N17 N 0.44009 0.17935 0.56646 0.0
C18 C 0.41861 0.13464 0.57162 0.0
C19 C 0.43226 0.15909 0.5803 0.0
C20 C 0.41311 0.131 0.54844 0.0
C21 C 0.42142 0.15234 0.53458 0.0
H22 H 0.44151 0.19295 0.53339 0.0
H23 H 0.43694 0.16192 0.59805 0.0
C24 C 0.52106 0.25524 0.64637 0.0
N25 N 0.5132 0.23718 0.63009 0.0
C26 C 0.53655 0.25575 0.6639 0.0
C27 C 0.53494 0.21859 0.64807 0.0
C28 C 0.51945 0.21878 0.63087 0.0
C29 C 0.54385 0.23735 0.66482 0.0
H30 H 0.51542 0.26939 0.64567 0.0
H31 H 0.5123 0.20411 0.61827 0.0
C32 C 0.45046 0.25571 0.55163 0.0
N33 N 0.44051 0.288 0.52694 0.0
C34 C 0.46087 0.28093 0.55812 0.0
C35 C 0.43498 0.24689 0.53261 0.0
C36 C 0.45562 0.29696 0.54541 0.0
C37 C 0.43018 0.26352 0.52034 0.0
C38 C 0.51874 0.29335 0.6029 0.0
C39 C 0.51915 0.31594 0.60756 0.0
C40 C 0.54139 0.29313 0.60125 0.0
C41 C 0.54232 0.33805 0.6103 0.0
C42 C 0.56417 0.31561 0.60413 0.0
N43 N 0.56416 0.33742 0.60854 0.0
C44 C 0.4485 0.27629 0.62754 0.0
C45 C 0.41705 0.25595 0.59958 0.0
C46 C 0.43526 0.28717 0.637 0.0
N47 N 0.43937 0.26121 0.60908 0.0
C48 C 0.40316 0.26643 0.60851 0.0
C49 C 0.41233 0.28246 0.62738 0.0
H50 H 0.46623 0.28002 0.63482 0.0
H51 H 0.41019 0.24391 0.58487 0.0
C52 C 0.51875 0.26687 0.52802 0.0
N53 N 0.5137 0.27797 0.5456 0.0
C54 C 0.53426 0.28149 0.51031 0.0
C55 C 0.5388 0.31867 0.52893 0.0
C56 C 0.52312 0.30334 0.5462 0.0
C57 C 0.54466 0.3078 0.51071 0.0
H58 H 0.51083 0.24663 0.52784 0.0
H59 H 0.5184 0.31176 0.56 0.0
O60 O 0.45561 0.21715 0.61143 0.0
O61 O 0.49626 0.22705 0.57545 0.0
O62 O 0.45533 0.23961 0.56375 0.0
O63 O 0.4962 0.27162 0.59997 0.0
H64 H 0.4404 0.19704 0.65181 0.0
H65 H 0.41537 0.20431 0.58584 0.0
H66 H 0.39561 0.17066 0.66341 0.0
H67 H 0.37114 0.17791 0.59859 0.0
H68 H 0.57486 0.24083 0.55957 0.0
H69 H 0.48601 0.17964 0.57721 0.0
H70 H 0.54473 0.2562 0.5655 0.0
H71 H 0.51713 0.16558 0.57078 0.0
H72 H 0.41293 0.11877 0.58287 0.0
H73 H 0.41741 0.15043 0.51667 0.0
H74 H 0.54303 0.27064 0.67638 0.0
H75 H 0.53962 0.2037 0.64839 0.0
H76 H 0.4728 0.28808 0.57283 0.0
H77 H 0.42676 0.2274 0.52739 0.0
H78 H 0.46355 0.31652 0.55024 0.0
H79 H 0.41823 0.25695 0.50557 0.0
H80 H 0.50176 0.31643 0.60886 0.0
H81 H 0.54136 0.27576 0.59799 0.0
H82 H 0.54294 0.3557 0.61382 0.0
H83 H 0.58185 0.3157 0.6029 0.0
H84 H 0.44287 0.29907 0.65176 0.0
H85 H 0.38572 0.26246 0.60039 0.0
H86 H 0.5384 0.27233 0.49665 0.0
H87 H 0.546 0.33881 0.52971 0.0
Li88 Li 0.26009 0.49138 0.77271 0.0
Li89 Li 0.25164 0.45752 0.74569 0.0
Li90 Li 0.24126 0.49143 0.7355 0.0
Li91 Li 0.21577 0.45772 0.76255 0.0
C92 C 0.29772 0.51501 0.73776 0.0
N93 N 0.3444 0.55652 0.72884 0.0
C94 C 0.31892 0.51223 0.73527 0.0
C95 C 0.30024 0.53887 0.73527 0.0
C96 C 0.34236 0.53344 0.7309 0.0
C97 C 0.32399 0.55963 0.73087 0.0
C98 C 0.24943 0.43766 0.78612 0.0
C99 C 0.24264 0.39538 0.78839 0.0
N100 N 0.26405 0.40408 0.80083 0.0
C101 C 0.27125 0.44617 0.79908 0.0
C102 C 0.23488 0.41204 0.78087 0.0
C103 C 0.27836 0.42889 0.80631 0.0
C104 C 0.27111 0.51777 0.81408 0.0
N105 N 0.28168 0.51214 0.79644 0.0
C106 C 0.32268 0.53647 0.81272 0.0
C107 C 0.3069 0.52083 0.79564 0.0
C108 C 0.31238 0.54301 0.83096 0.0
C109 C 0.28617 0.53328 0.83158 0.0
H110 H 0.25095 0.51036 0.81445 0.0
H111 H 0.31479 0.51547 0.78187 0.0
C112 C 0.25332 0.42062 0.71734 0.0
N113 N 0.26511 0.43733 0.73438 0.0
C114 C 0.26361 0.40644 0.70863 0.0
C115 C 0.29784 0.42682 0.73527 0.0
C116 C 0.28694 0.4406 0.74341 0.0
C117 C 0.28629 0.40958 0.71751 0.0
H118 H 0.23612 0.41855 0.71028 0.0
H119 H 0.29601 0.45407 0.75688 0.0
C120 C 0.22792 0.51561 0.77044 0.0
N121 N 0.22386 0.55783 0.77927 0.0
C122 C 0.20421 0.51335 0.77342 0.0
C123 C 0.24956 0.53931 0.77236 0.0
C124 C 0.20255 0.53492 0.77774 0.0
C125 C 0.24713 0.56043 0.77673 0.0
C126 C 0.19795 0.43786 0.7222 0.0
C127 C 0.18461 0.44658 0.70955 0.0
C128 C 0.18683 0.4122 0.72725 0.0
C129 C 0.16015 0.42947 0.70242 0.0
C130 C 0.16232 0.3957 0.71985 0.0
N131 N 0.1496 0.40461 0.70771 0.0
C132 C 0.25635 0.51714 0.69387 0.0
C133 C 0.22449 0.52143 0.71265 0.0
C134 C 0.25682 0.53253 0.67626 0.0
N135 N 0.24055 0.51216 0.71172 0.0
C136 C 0.22441 0.53698 0.69547 0.0
C137 C 0.24081 0.54282 0.67699 0.0
H138 H 0.26874 0.5093 0.69343 0.0
H139 H 0.21154 0.51659 0.7266 0.0
C140 C 0.17683 0.42056 0.7904 0.0
N141 N 0.18209 0.43777 0.77376 0.0
C142 C 0.1523 0.40648 0.79892 0.0
C143 C 0.1391 0.42803 0.77295 0.0
C144 C 0.16383 0.44167 0.76499 0.0
C145 C 0.13304 0.41025 0.79028 0.0
H146 H 0.19173 0.41798 0.79727 0.0
H147 H 0.1685 0.45552 0.75182 0.0
O148 O 0.2746 0.49436 0.74199 0.0
O149 O 0.24237 0.45435 0.77862 0.0
O150 O 0.22983 0.49461 0.76621 0.0
O151 O 0.22176 0.45439 0.72963 0.0
H152 H 0.31735 0.49391 0.7368 0.0
H153 H 0.28401 0.54136 0.73636 0.0
H154 H 0.35893 0.53156 0.72911 0.0
H155 H 0.32617 0.57819 0.72896 0.0
H156 H 0.23166 0.37553 0.78431 0.0
H157 H 0.28267 0.46591 0.80337 0.0
H158 H 0.21788 0.40514 0.77096 0.0
H159 H 0.29528 0.43523 0.81624 0.0
H160 H 0.3427 0.5431 0.8118 0.0
H161 H 0.27744 0.53794 0.84524 0.0
H162 H 0.2542 0.39362 0.69476 0.0
H163 H 0.31512 0.42962 0.74289 0.0
H164 H 0.18725 0.49517 0.77232 0.0
H165 H 0.26807 0.54139 0.77088 0.0
H166 H 0.18431 0.53344 0.77992 0.0
H167 H 0.26375 0.57887 0.77823 0.0
H168 H 0.19297 0.46636 0.70542 0.0
H169 H 0.19695 0.40513 0.73692 0.0
H170 H 0.14954 0.43597 0.69273 0.0
H171 H 0.15341 0.37581 0.72377 0.0
H172 H 0.26986 0.53664 0.66239 0.0
H173 H 0.21139 0.54408 0.69649 0.0
H174 H 0.1486 0.39322 0.81246 0.0
H175 H 0.12485 0.43132 0.76552 0.0
Li176 Li 0.79856 0.24844 0.91057 0.0
Li177 Li 0.77374 0.25536 0.93833 0.0
Li178 Li 0.76381 0.21266 0.92864 0.0
Li179 Li 0.75538 0.23742 0.90197 0.0
C180 C 0.81603 0.25585 0.95502 0.0
N181 N 0.85861 0.28888 0.97894 0.0
C182 C 0.83013 0.28113 0.9485 0.0
C183 C 0.8236 0.24737 0.97368 0.0
C184 C 0.85159 0.29753 0.96082 0.0
C185 C 0.84518 0.26436 0.98557 0.0
C186 C 0.77741 0.28907 0.90484 0.0
C187 C 0.74757 0.3035 0.91002 0.0
N188 N 0.76288 0.32465 0.89801 0.0
C189 C 0.79284 0.31094 0.89255 0.0
C190 C 0.75458 0.28529 0.91366 0.0
C191 C 0.78517 0.32871 0.88928 0.0
C192 C 0.83734 0.27714 0.87967 0.0
N193 N 0.83151 0.26166 0.89782 0.0
C194 C 0.87287 0.26674 0.89775 0.0
C195 C 0.84862 0.25618 0.90686 0.0
C196 C 0.8796 0.28312 0.87916 0.0
C197 C 0.86137 0.28814 0.87004 0.0
H198 H 0.8233 0.28104 0.87274 0.0
H199 H 0.84356 0.24386 0.92134 0.0
C200 C 0.76019 0.2657 0.98094 0.0
N201 N 0.7747 0.27668 0.96242 0.0
C202 C 0.75994 0.28055 0.99879 0.0
C203 C 0.78969 0.31772 0.97823 0.0
C204 C 0.78951 0.30217 0.96088 0.0
C205 C 0.7747 0.30695 0.99748 0.0
H206 H 0.74871 0.24538 0.98177 0.0
H207 H 0.80117 0.31049 0.94614 0.0
C208 C 0.78222 0.20302 0.88878 0.0
N209 N 0.80318 0.17453 0.87448 0.0
C210 C 0.77843 0.19387 0.86668 0.0
C211 C 0.79667 0.1977 0.90361 0.0
C212 C 0.78918 0.17949 0.85977 0.0
C213 C 0.80711 0.18326 0.89606 0.0
C214 C 0.71595 0.20594 0.93189 0.0
C215 C 0.70798 0.18852 0.91419 0.0
C216 C 0.69922 0.20277 0.94931 0.0
C217 C 0.68332 0.1682 0.9142 0.0
C218 C 0.6747 0.1822 0.94872 0.0
N219 N 0.66733 0.16548 0.93132 0.0
C220 C 0.75236 0.17689 0.96325 0.0
C221 C 0.73959 0.15891 0.92685 0.0
C222 C 0.74187 0.15292 0.97296 0.0
N223 N 0.75095 0.17942 0.9406 0.0
C224 C 0.72887 0.13462 0.93582 0.0
C225 C 0.72977 0.13134 0.95921 0.0
H226 H 0.76137 0.19352 0.9738 0.0
H227 H 0.73839 0.16138 0.90892 0.0
C228 C 0.7429 0.24074 0.85697 0.0
N229 N 0.73394 0.23727 0.87843 0.0
C230 C 0.72846 0.24144 0.83902 0.0
C231 C 0.69572 0.23473 0.8656 0.0
C232 C 0.71096 0.23459 0.88304 0.0
C233 C 0.70439 0.23828 0.84315 0.0
H234 H 0.76142 0.24322 0.85383 0.0
H235 H 0.7044 0.23239 0.90027 0.0
O236 O 0.7949 0.23934 0.9433 0.0
O237 O 0.78472 0.27151 0.90804 0.0
O238 O 0.77184 0.2172 0.89567 0.0
O239 O 0.74014 0.22576 0.93249 0.0
H240 H 0.82465 0.28805 0.93406 0.0
H241 H 0.81288 0.22785 0.97892 0.0
H242 H 0.86267 0.31713 0.95596 0.0
H243 H 0.85126 0.25805 1.00006 0.0
H244 H 0.72996 0.30081 0.91675 0.0
H245 H 0.81059 0.31416 0.88563 0.0
H246 H 0.7424 0.26855 0.92328 0.0
H247 H 0.79693 0.34573 0.87981 0.0
H248 H 0.88637 0.26255 0.90549 0.0
H249 H 0.86558 0.30034 0.85553 0.0
H250 H 0.74799 0.27149 0.01327 0.0
H251 H 0.80163 0.33796 0.97668 0.0
H252 H 0.76729 0.19786 0.85499 0.0
H253 H 0.79979 0.20458 0.92079 0.0
H254 H 0.7864 0.17227 0.84271 0.0
H255 H 0.81834 0.179 0.90736 0.0
H256 H 0.72069 0.19064 0.90058 0.0
H257 H 0.70512 0.21606 0.96317 0.0
H258 H 0.67691 0.15457 0.90061 0.0
H259 H 0.66154 0.1795 0.96209 0.0
H260 H 0.74325 0.15132 0.99103 0.0
H261 H 0.71941 0.11858 0.9246 0.0
H262 H 0.73631 0.24479 0.82216 0.0
H263 H 0.67724 0.23184 0.86975 0.0
Li264 Li 0.55449 0.79653 0.07912 0.0
Li265 Li 0.52178 0.77111 0.10539 0.0
Li266 Li 0.55326 0.75928 0.09725 0.0
Li267 Li 0.52165 0.75457 0.06906 0.0
C268 C 0.58276 0.80452 0.11888 0.0
N269 N 0.63228 0.83215 0.13298 0.0
C270 C 0.58836 0.81475 0.14061 0.0
C271 C 0.60235 0.80831 0.10432 0.0
C272 C 0.61352 0.82869 0.14742 0.0
C273 C 0.62726 0.82233 0.11177 0.0
C274 C 0.51387 0.80392 0.07861 0.0
C275 C 0.49503 0.82829 0.06623 0.0
N276 N 0.50601 0.84434 0.08388 0.0
C277 C 0.52496 0.82067 0.09663 0.0
C278 C 0.49879 0.80775 0.06328 0.0
C279 C 0.52076 0.84098 0.09899 0.0
C280 C 0.57532 0.83392 0.04527 0.0
N281 N 0.575 0.83028 0.06792 0.0
C282 C 0.60082 0.87472 0.074 0.0
C283 C 0.58723 0.85011 0.0823 0.0
C284 C 0.60164 0.87907 0.05065 0.0
C285 C 0.58869 0.85822 0.03622 0.0
H286 H 0.56464 0.81798 0.03428 0.0
H287 H 0.58608 0.84698 0.1003 0.0
C288 C 0.50814 0.77195 0.15082 0.0
N289 N 0.50068 0.77133 0.12914 0.0
C290 C 0.49298 0.77151 0.16868 0.0
C291 C 0.46275 0.76979 0.14152 0.0
C292 C 0.47847 0.77021 0.12421 0.0
C293 C 0.4699 0.77041 0.16415 0.0
H294 H 0.52578 0.77253 0.15423 0.0
H295 H 0.47285 0.76948 0.10682 0.0
C296 C 0.55905 0.75524 0.0472 0.0
N297 N 0.55691 0.72522 0.01141 0.0
C298 C 0.55231 0.73007 0.05083 0.0
C299 C 0.56475 0.76514 0.02536 0.0
C300 C 0.55134 0.7152 0.03252 0.0
C301 C 0.56355 0.74966 0.00749 0.0
C302 C 0.49353 0.72196 0.1083 0.0
C303 C 0.49234 0.71045 0.12896 0.0
C304 C 0.4714 0.7189 0.09853 0.0
C305 C 0.469 0.69611 0.13956 0.0
C306 C 0.44843 0.70439 0.10964 0.0
N307 N 0.44771 0.69341 0.12976 0.0
C308 C 0.56784 0.7365 0.13079 0.0
C309 C 0.59205 0.74631 0.09726 0.0
C310 C 0.5813 0.7259 0.14028 0.0
N311 N 0.57309 0.74599 0.10951 0.0
C312 C 0.60607 0.73599 0.10611 0.0
C313 C 0.60058 0.72533 0.12782 0.0
H314 H 0.55321 0.73722 0.14042 0.0
H315 H 0.59621 0.75444 0.08053 0.0
C316 C 0.49819 0.74523 0.02618 0.0
N317 N 0.50137 0.73407 0.04471 0.0
C318 C 0.48331 0.73052 0.00822 0.0
C319 C 0.47536 0.69316 0.02877 0.0
C320 C 0.49046 0.70858 0.04627 0.0
C321 C 0.47152 0.70408 0.00944 0.0
H322 H 0.50718 0.76557 0.02541 0.0
H323 H 0.49353 0.70022 0.06112 0.0
O324 O 0.55815 0.79068 0.11216 0.0
O325 O 0.51782 0.78397 0.07571 0.0
O326 O 0.55929 0.7698 0.06485 0.0
O327 O 0.51628 0.7367 0.09795 0.0
H328 H 0.5734 0.81195 0.15208 0.0
H329 H 0.59846 0.8006 0.08744 0.0
H330 H 0.61813 0.83673 0.16419 0.0
H331 H 0.6426 0.82542 0.10068 0.0
H332 H 0.48341 0.83148 0.05449 0.0
H333 H 0.5367 0.81807 0.10868 0.0
H334 H 0.49012 0.79497 0.04922 0.0
H335 H 0.52924 0.85409 0.11285 0.0
H336 H 0.61055 0.89016 0.08577 0.0
H337 H 0.58832 0.8607 0.01816 0.0
H338 H 0.49909 0.77164 0.18583 0.0
H339 H 0.4453 0.76923 0.13719 0.0
H340 H 0.54741 0.72196 0.06756 0.0
H341 H 0.57 0.78453 0.0222 0.0
H342 H 0.546 0.69566 0.03508 0.0
H343 H 0.56786 0.75706 0.9905 0.0
H344 H 0.50922 0.71262 0.13681 0.0
H345 H 0.472 0.72805 0.08275 0.0
H346 H 0.46781 0.68716 0.15559 0.0
H347 H 0.43119 0.70201 0.10233 0.0
H348 H 0.57679 0.7184 0.15725 0.0
H349 H 0.6207 0.7359 0.09588 0.0
H350 H 0.4807 0.73971 0.99371 0.0
H351 H 0.46697 0.67291 0.03028 0.0
Li352 Li 0.76288 0.55194 0.24572 0.0
Li353 Li 0.75529 0.51811 0.27255 0.0
Li354 Li 0.79941 0.55214 0.26182 0.0
Li355 Li 0.77355 0.51827 0.23492 0.0
C356 C 0.76632 0.57189 0.28695 0.0
N357 N 0.75302 0.60571 0.30391 0.0
C358 C 0.7449 0.56339 0.30051 0.0
C359 C 0.78117 0.59761 0.28225 0.0
C360 C 0.73844 0.58079 0.30887 0.0
C361 C 0.77407 0.6144 0.29091 0.0
C362 C 0.71683 0.49459 0.23862 0.0
C363 C 0.68966 0.44987 0.23306 0.0
N364 N 0.66949 0.45341 0.23138 0.0
C365 C 0.69587 0.49783 0.23656 0.0
C366 C 0.71374 0.47046 0.23663 0.0
C367 C 0.67208 0.47676 0.23302 0.0
C368 C 0.75935 0.58689 0.21648 0.0
N369 N 0.74899 0.57184 0.23481 0.0
C370 C 0.71715 0.58353 0.23715 0.0
C371 C 0.72824 0.56989 0.24513 0.0
C372 C 0.7272 0.59906 0.21807 0.0
C373 C 0.74871 0.6007 0.20777 0.0
H374 H 0.77562 0.58782 0.20835 0.0
H375 H 0.72008 0.55747 0.25943 0.0
C376 C 0.74535 0.49167 0.31376 0.0
N377 N 0.73431 0.49721 0.29651 0.0
C378 C 0.73075 0.47622 0.3315 0.0
C379 C 0.69372 0.47276 0.31359 0.0
C380 C 0.70906 0.48842 0.29631 0.0
C381 C 0.70453 0.4664 0.33146 0.0
H382 H 0.76552 0.49915 0.31365 0.0
H383 H 0.70079 0.49373 0.28287 0.0
C384 C 0.81575 0.57257 0.22078 0.0
N385 N 0.86262 0.60738 0.20419 0.0
C386 C 0.82906 0.56473 0.20694 0.0
C387 C 0.82611 0.59813 0.22594 0.0
C388 C 0.85277 0.58262 0.19877 0.0
C389 C 0.84988 0.61544 0.21746 0.0
C390 C 0.78888 0.495 0.26865 0.0
C391 C 0.81318 0.49844 0.27022 0.0
C392 C 0.76803 0.47082 0.271 0.0
C393 C 0.8162 0.47752 0.27362 0.0
C394 C 0.77182 0.45038 0.27442 0.0
N395 N 0.79563 0.45412 0.27561 0.0
C396 C 0.83766 0.58718 0.29123 0.0
C397 C 0.85206 0.57069 0.26233 0.0
C398 C 0.86208 0.60117 0.29993 0.0
N399 N 0.83313 0.5723 0.27277 0.0
C400 C 0.87677 0.58452 0.27028 0.0
C401 C 0.88209 0.59989 0.28949 0.0
H402 H 0.82222 0.58785 0.29945 0.0
H403 H 0.84794 0.55841 0.24791 0.0
C404 C 0.75684 0.49075 0.19412 0.0
N405 N 0.7741 0.49756 0.21096 0.0
C406 C 0.75638 0.47531 0.1765 0.0
C407 C 0.79181 0.4746 0.19361 0.0
C408 C 0.79165 0.49014 0.21082 0.0
C409 C 0.77393 0.46687 0.17619 0.0
H410 H 0.74331 0.49721 0.19444 0.0
H411 H 0.80573 0.49648 0.22392 0.0
O412 O 0.7728 0.55512 0.27843 0.0
O413 O 0.74025 0.51506 0.24213 0.0
O414 O 0.79264 0.55529 0.22912 0.0
O415 O 0.78562 0.51533 0.26533 0.0
H416 H 0.73328 0.54357 0.3044 0.0
H417 H 0.79795 0.60451 0.27199 0.0
H418 H 0.72183 0.57446 0.31928 0.0
H419 H 0.7853 0.63434 0.2873 0.0
H420 H 0.68702 0.43109 0.23153 0.0
H421 H 0.6979 0.51637 0.23781 0.0
H422 H 0.72978 0.46765 0.23752 0.0
H423 H 0.65569 0.47898 0.23155 0.0
H424 H 0.70085 0.58186 0.2459 0.0
H425 H 0.75692 0.61203 0.19281 0.0
H426 H 0.73982 0.47171 0.34492 0.0
H427 H 0.67366 0.46602 0.31315 0.0
H428 H 0.82124 0.54502 0.20268 0.0
H429 H 0.81594 0.60452 0.23643 0.0
H430 H 0.86336 0.57681 0.18815 0.0
H431 H 0.8582 0.63527 0.22143 0.0
H432 H 0.82954 0.51703 0.2687 0.0
H433 H 0.74911 0.46786 0.27051 0.0
H434 H 0.83491 0.4799 0.27471 0.0
H435 H 0.75584 0.43156 0.27622 0.0
H436 H 0.86509 0.61237 0.31498 0.0
H437 H 0.89151 0.58315 0.26141 0.0
H438 H 0.74221 0.46974 0.16346 0.0
H439 H 0.80602 0.46899 0.19377 0.0
Li440 Li 0.21572 0.75859 0.4106 0.0
Li441 Li 0.24258 0.75378 0.43877 0.0
Li442 Li 0.25166 0.79579 0.42889 0.0
Li443 Li 0.259 0.77045 0.40253 0.0
C444 C 0.2059 0.7545 0.46072 0.0
N445 N 0.17811 0.72462 0.49654 0.0
C446 C 0.18747 0.72934 0.45711 0.0
C447 C 0.21015 0.76447 0.48254 0.0
C448 C 0.17362 0.71454 0.47544 0.0
C449 C 0.19592 0.74906 0.50043 0.0
C450 C 0.23822 0.72141 0.3992 0.0
C451 C 0.2656 0.70364 0.39761 0.0
N452 N 0.25568 0.69325 0.3772 0.0
C453 C 0.22825 0.71051 0.37824 0.0
C454 C 0.25703 0.71795 0.40899 0.0
C455 C 0.23735 0.69636 0.36738 0.0
C456 C 0.17852 0.73633 0.37684 0.0
N457 N 0.18263 0.74539 0.39829 0.0
C458 C 0.13963 0.73528 0.4017 0.0
C459 C 0.16391 0.74545 0.41064 0.0
C460 C 0.13462 0.72507 0.3798 0.0
C461 C 0.15454 0.72591 0.36726 0.0
H462 H 0.19394 0.73727 0.36715 0.0
H463 H 0.16777 0.75328 0.42749 0.0
C464 C 0.25693 0.74436 0.48149 0.0
N465 N 0.24238 0.73323 0.46305 0.0
C466 C 0.2571 0.72963 0.49942 0.0
C467 C 0.22726 0.69233 0.47904 0.0
C468 C 0.22762 0.70776 0.46155 0.0
C469 C 0.24221 0.70321 0.49828 0.0
H470 H 0.26843 0.76469 0.48221 0.0
H471 H 0.21606 0.69944 0.44676 0.0
C472 C 0.23142 0.80392 0.38919 0.0
N473 N 0.2095 0.83161 0.37524 0.0
C474 C 0.23614 0.81432 0.36754 0.0
C475 C 0.21551 0.80757 0.40375 0.0
C476 C 0.2249 0.82828 0.36081 0.0
C477 C 0.20462 0.82163 0.39638 0.0
C478 C 0.29964 0.80314 0.42942 0.0
C479 C 0.30527 0.82003 0.41155 0.0
C480 C 0.31854 0.80681 0.44469 0.0
C481 C 0.32977 0.84033 0.40926 0.0
C482 C 0.34283 0.82735 0.44181 0.0
N483 N 0.34789 0.84354 0.42431 0.0
C484 C 0.26842 0.83302 0.46292 0.0
C485 C 0.27224 0.84938 0.42604 0.0
C486 C 0.27935 0.85727 0.47213 0.0
N487 N 0.26486 0.82948 0.44028 0.0
C488 C 0.28325 0.87394 0.4345 0.0
C489 C 0.28701 0.87818 0.45785 0.0
H490 H 0.26335 0.81703 0.4738 0.0
H491 H 0.27011 0.84634 0.40804 0.0
C492 C 0.27384 0.77181 0.35711 0.0
N493 N 0.28044 0.77086 0.37881 0.0
C494 C 0.28877 0.77166 0.3393 0.0
C495 C 0.31701 0.76959 0.36654 0.0
C496 C 0.3015 0.76967 0.3838 0.0
C497 C 0.31074 0.77061 0.34392 0.0
H498 H 0.25689 0.77257 0.35366 0.0
H499 H 0.30612 0.76854 0.40119 0.0
O500 O 0.22015 0.76901 0.44304 0.0
O501 O 0.23013 0.73598 0.40981 0.0
O502 O 0.24219 0.79005 0.39583 0.0
O503 O 0.27576 0.78319 0.43224 0.0
H504 H 0.18421 0.72118 0.44039 0.0
H505 H 0.2243 0.78387 0.48568 0.0
H506 H 0.15942 0.695 0.4729 0.0
H507 H 0.19905 0.75651 0.51742 0.0
H508 H 0.28026 0.70095 0.40493 0.0
H509 H 0.21375 0.71301 0.37038 0.0
H510 H 0.26531 0.72663 0.42499 0.0
H511 H 0.22987 0.68788 0.35112 0.0
H512 H 0.12486 0.73498 0.412 0.0
H513 H 0.15167 0.71878 0.35015 0.0
H514 H 0.26908 0.73881 0.51384 0.0
H515 H 0.21519 0.6721 0.47759 0.0
H516 H 0.24838 0.81163 0.35606 0.0
H517 H 0.21163 0.79974 0.42057 0.0
H518 H 0.2284 0.83645 0.3441 0.0
H519 H 0.19229 0.82461 0.40746 0.0
H520 H 0.29094 0.81755 0.39955 0.0
H521 H 0.31447 0.79393 0.45864 0.0
H522 H 0.33438 0.85354 0.39552 0.0
H523 H 0.35764 0.83042 0.45351 0.0
H524 H 0.28239 0.85966 0.49017 0.0
H525 H 0.28877 0.88944 0.42284 0.0
H526 H 0.28333 0.77267 0.32213 0.0
H527 H 0.33353 0.76833 0.37087 0.0
H528 H 0.37202 0.08934 0.56604 0.0
H529 H 0.34999 0.04656 0.55063 0.0
H530 H 0.40064 0.07118 0.49362 0.0
H531 H 0.42272 0.11403 0.50891 0.0
H532 H 0.35334 0.0409 0.48012 0.0
H533 H 0.40719 0.03814 0.53744 0.0
H534 H 0.42511 0.04383 0.57567 0.0
H535 H 0.35186 0.99196 0.60223 0.0
H536 H 0.33344 0.98622 0.56419 0.0
H537 H 0.32742 0.92072 0.44059 0.0
H538 H 0.34767 0.96351 0.45585 0.0
H539 H 0.29529 0.93762 0.51158 0.0
H540 H 0.27481 0.89472 0.49634 0.0
H541 H 0.34273 0.9684 0.52588 0.0
H542 H 0.28912 0.97066 0.46808 0.0
H543 H 0.27163 0.96491 0.42967 0.0
H544 H 0.34494 0.01769 0.40381 0.0
H545 H 0.36295 0.02349 0.44203 0.0
C546 C 0.37857 0.08563 0.55029 0.0
C547 C 0.39921 0.1051 0.53877 0.0
C548 C 0.36594 0.06115 0.54148 0.0
C549 C 0.37385 0.05555 0.5211 0.0
C550 C 0.39417 0.07504 0.50937 0.0
C551 C 0.40674 0.09955 0.5181 0.0
C552 C 0.36103 0.02937 0.51205 0.0
C553 C 0.3513 0.0251 0.49003 0.0
C554 C 0.35785 0.00862 0.52513 0.0
C555 C 0.3689 0.01195 0.548 0.0
C556 C 0.39487 0.0281 0.55146 0.0
C557 C 0.40512 0.03131 0.57309 0.0
C558 C 0.38962 0.01832 0.59138 0.0
C559 C 0.36384 1.00203 0.58806 0.0
C560 C 0.35349 0.99878 0.56646 0.0
C561 C 0.31999 0.92415 0.45596 0.0
C562 C 0.29936 0.90427 0.46716 0.0
C563 C 0.33163 0.94864 0.46469 0.0
C564 C 0.32282 0.95386 0.48473 0.0
C565 C 0.30242 0.93404 0.49609 0.0
C566 C 0.29077 0.90951 0.48739 0.0
C567 C 0.33508 0.97994 0.49395 0.0
C568 C 0.34471 0.98419 0.51599 0.0
C569 C 0.33823 1.00067 0.48087 0.0
C570 C 0.32742 0.99733 0.45789 0.0
C571 C 0.30155 0.9809 0.45417 0.0
C572 C 0.29153 0.97766 0.43244 0.0
C573 C 0.30717 0.99088 0.41431 0.0
C574 C 0.33285 0.00743 0.41787 0.0
C575 C 0.34297 0.01072 0.43957 0.0
H576 H 0.29938 0.98835 0.39749 0.0
H577 H 0.39759 0.02083 0.60811 0.0
H578 H 0.36123 0.26152 0.63322 0.0
H579 H 0.33849 0.28169 0.6485 0.0
H580 H 0.40895 0.3508 0.65815 0.0
H581 H 0.43178 0.33085 0.64281 0.0
H582 H 0.37937 0.34023 0.69451 0.0
H583 H 0.36958 0.34369 0.61431 0.0
H584 H 0.35773 0.32623 0.57587 0.0
H585 H 0.28098 0.27934 0.59724 0.0
H586 H 0.29246 0.29627 0.6359 0.0
H587 H 0.33642 0.427 0.70972 0.0
H588 H 0.35609 0.40371 0.69494 0.0
H589 H 0.283 0.33695 0.68866 0.0
H590 H 0.2631 0.36011 0.7037 0.0
H591 H 0.31198 0.34417 0.65148 0.0
H592 H 0.32157 0.34204 0.73141 0.0
H593 H 0.3335 0.35983 0.76972 0.0
H594 H 0.41073 0.40437 0.74882 0.0
H595 H 0.3992 0.38711 0.71027 0.0
C596 C 0.37188 0.28108 0.63841 0.0
C597 C 0.39835 0.29455 0.63677 0.0
C598 C 0.35885 0.29258 0.64718 0.0
C599 C 0.37199 0.31784 0.65431 0.0
C600 C 0.3984 0.33127 0.65283 0.0
C601 C 0.41144 0.31979 0.64411 0.0
C602 C 0.35834 0.33033 0.66346 0.0
C603 C 0.36484 0.34133 0.68498 0.0
C604 C 0.33888 0.3312 0.6513 0.0
C605 C 0.33194 0.32105 0.62806 0.0
C606 C 0.35022 0.3295 0.61086 0.0
C607 C 0.34357 0.31973 0.58902 0.0
C608 C 0.31864 0.30163 0.58413 0.0
C609 C 0.3003 0.29332 0.60106 0.0
C610 C 0.30686 0.30302 0.62293 0.0
C611 C 0.32449 0.40729 0.70545 0.0
C612 C 0.29816 0.39539 0.7081 0.0
C613 C 0.33579 0.39401 0.69693 0.0
C614 C 0.32105 0.36849 0.69097 0.0
C615 C 0.29474 0.35663 0.69318 0.0
C616 C 0.2834 0.36992 0.70172 0.0
C617 C 0.33323 0.3543 0.68241 0.0
C618 C 0.32643 0.34296 0.66103 0.0
C619 C 0.35244 0.35312 0.69469 0.0
C620 C 0.35947 0.36344 0.71789 0.0
C621 C 0.34106 0.35577 0.73493 0.0
C622 C 0.34776 0.36573 0.7567 0.0
C623 C 0.37285 0.38326 0.76169 0.0
C624 C 0.3913 0.39081 0.74493 0.0
C625 C 0.3847 0.38092 0.72312 0.0
H626 H 0.378 0.39096 0.77856 0.0
H627 H 0.31352 0.29409 0.56721 0.0
H628 H 0.90931 0.26187 0.87203 0.0
H629 H 0.95216 0.28209 0.85676 0.0
H630 H 0.95149 0.35185 0.84931 0.0
H631 H 0.90872 0.33181 0.86461 0.0
H632 H 0.97071 0.34237 0.81253 0.0
H633 H 0.98322 0.34283 0.89267 0.0
H634 H 0.97708 0.32396 0.93054 0.0
H635 H 1.0063 0.27708 0.90726 0.0
H636 H 0.01229 0.29543 0.86915 0.0
H637 H 0.10083 0.42814 0.79884 0.0
H638 H 0.05776 0.40495 0.81324 0.0
H639 H 0.06293 0.33734 0.81743 0.0
H640 H 0.1061 0.36041 0.80279 0.0
H641 H 0.04119 0.34376 0.85496 0.0
H642 H 0.03016 0.34453 0.7751 0.0
H643 H 0.03653 0.36368 0.73736 0.0
H644 H 1.0046 0.40837 0.76012 0.0
H645 H 0.99837 0.38974 0.79812 0.0
C646 C 0.91835 0.28157 0.86731 0.0
C647 C 0.90556 0.29522 0.8696 0.0
C648 C 0.94285 0.2931 0.85855 0.0
C649 C 0.95517 0.31858 0.85208 0.0
C650 C 0.94236 0.33216 0.85413 0.0
C651 C 0.91786 0.32064 0.86282 0.0
C652 C 0.98137 0.33114 0.84311 0.0
C653 C 0.98617 0.34291 0.82193 0.0
C654 C 1.00145 0.3313 0.85509 0.0
C655 C 0.99795 0.32031 0.87801 0.0
C656 C 0.98815 0.32835 0.89558 0.0
C657 C 0.98473 0.31778 0.9171 0.0
C658 C 0.99123 0.29929 0.92129 0.0
C659 C 1.00123 0.29138 0.90398 0.0
C660 C 1.00466 0.30187 0.88243 0.0
C661 C 0.09276 0.40827 0.80257 0.0
C662 C 0.10691 0.39611 0.79946 0.0
C663 C 0.06812 0.39504 0.81088 0.0
C664 C 0.05697 0.36931 0.81614 0.0
C665 C 0.07114 0.35718 0.81346 0.0
C666 C 0.09584 0.37042 0.80515 0.0
C667 C 0.03055 0.35519 0.82449 0.0
C668 C 0.02571 0.34311 0.84552 0.0
C669 C 0.01041 0.35475 0.81239 0.0
C670 C 0.014 0.36589 0.78952 0.0
C671 C 0.02467 0.35858 0.77211 0.0
C672 C 0.02822 0.36932 0.75066 0.0
C673 C 0.02102 0.38727 0.74636 0.0
C674 C 0.01019 0.39448 0.76349 0.0
C675 C 1.00662 0.38382 0.78498 0.0
H676 H 0.02379 0.39557 0.72974 0.0
H677 H 0.98857 0.29113 0.93795 0.0
H678 H 0.631 0.89586 0.01257 0.0
H679 H 0.65311 0.93872 0.99737 0.0
H680 H 0.62606 0.96439 0.05291 0.0
H681 H 0.60326 0.92146 0.06783 0.0
H682 H 0.62136 0.98353 0.01377 0.0
H683 H 0.68686 0.97641 0.05135 0.0
H684 H 0.71292 0.9572 0.06018 0.0
H685 H 0.73804 0.9667 0.99133 0.0
H686 H 0.71184 0.98566 0.98202 0.0
H687 H 0.70216 0.11484 0.99824 0.0
H688 H 0.68136 0.07231 0.01407 0.0
H689 H 0.70822 0.04672 0.95834 0.0
H690 H 0.7298 0.08943 0.94276 0.0
H691 H 0.71315 0.02757 0.9976 0.0
H692 H 0.64754 0.03456 0.96002 0.0
H693 H 0.62152 0.05382 0.9512 0.0
H694 H 0.59658 0.04452 0.0201 0.0
H695 H 0.62275 0.02552 0.0294 0.0
C696 C 0.62961 0.91059 0.02148 0.0
C697 C 0.61542 0.90521 0.04148 0.0
C698 C 0.64246 0.93514 0.01287 0.0
C699 C 0.64151 0.95486 0.02414 0.0
C700 C 0.62717 0.94951 0.04398 0.0
C701 C 0.61433 0.92498 0.0526 0.0
C702 C 0.6552 0.98102 0.01511 0.0
C703 C 0.6415 0.99328 0.01053 0.0
C704 C 0.68137 0.99356 0.01037 0.0
C705 C 0.69719 0.98222 0.01594 0.0
C706 C 0.69778 0.97422 0.03805 0.0
C707 C 0.71261 0.96341 0.04315 0.0
C708 C 0.72708 0.96067 0.02631 0.0
C709 C 0.72679 0.9688 0.00435 0.0
C710 C 0.71198 0.9796 0.99915 0.0
C711 C 0.70393 0.10026 0.98948 0.0
C712 C 0.71761 0.10557 0.96918 0.0
C713 C 0.6918 0.07587 0.99844 0.0
C714 C 0.69293 0.05622 0.98724 0.0
C715 C 0.70699 0.06155 0.96723 0.0
C716 C 0.71914 0.08594 0.95825 0.0
C717 C 0.67932 0.03008 0.9963 0.0
C718 C 0.69302 0.01782 1.00086 0.0
C719 C 0.65314 0.01753 1.00102 0.0
C720 C 0.6373 0.02885 0.99545 0.0
C721 C 0.63666 0.0368 0.97333 0.0
C722 C 0.62186 0.04764 0.96824 0.0
C723 C 0.60746 0.05046 0.98509 0.0
C724 C 0.60778 0.04237 0.00706 0.0
C725 C 0.62257 0.03154 0.01225 0.0
H726 H 0.59601 0.05885 0.98112 0.0
H727 H 0.73855 0.9523 0.03029 0.0
H728 H 0.74983 0.6463 0.19884 0.0
H729 H 0.72947 0.66835 0.18286 0.0
H730 H 0.65661 0.60597 0.20097 0.0
H731 H 0.67666 0.58318 0.21571 0.0
H732 H 0.6542 0.62108 0.16068 0.0
H733 H 0.68668 0.66299 0.23157 0.0
H734 H 0.71925 0.68603 0.26041 0.0
H735 H 0.76083 0.74629 0.2135 0.0
H736 H 0.72866 0.72345 0.18428 0.0
H737 H 0.58137 0.68117 0.15146 0.0
H738 H 0.60407 0.66098 0.16648 0.0
H739 H 0.67386 0.7216 0.14026 0.0
H740 H 0.65132 0.74223 0.12556 0.0
H741 H 0.67899 0.70846 0.18352 0.0
H742 H 0.64494 0.6663 0.11307 0.0
H743 H 0.61145 0.64307 0.08502 0.0
H744 H 0.57172 0.58283 0.13238 0.0
H745 H 0.60481 0.60587 0.16083 0.0
C746 C 0.72945 0.63711 0.19922 0.0
C747 C 0.71496 0.61293 0.20871 0.0
C748 C 0.71783 0.64992 0.19032 0.0
C749 C 0.69148 0.63903 0.191 0.0
C750 C 0.67697 0.61486 0.20032 0.0
C751 C 0.68853 0.60195 0.20901 0.0
C752 C 0.67889 0.65255 0.18174 0.0
C753 C 0.65944 0.64007 0.16592 0.0
C754 C 0.68607 0.67759 0.18811 0.0
C755 C 0.70539 0.69139 0.20567 0.0
C756 C 0.70287 0.68107 0.22735 0.0
C757 C 0.72124 0.69411 0.24378 0.0
C758 C 0.74213 0.71758 0.23877 0.0
C759 C 0.74466 0.72809 0.21735 0.0
C760 C 0.72635 0.71512 0.20085 0.0
C761 C 0.60159 0.69036 0.14907 0.0
C762 C 0.61452 0.7133 0.13726 0.0
C763 C 0.61451 0.67868 0.15751 0.0
C764 C 0.64062 0.68964 0.15428 0.0
C765 C 0.6537 0.71276 0.14286 0.0
C766 C 0.64076 0.72442 0.13433 0.0
C767 C 0.6542 0.67684 0.16272 0.0
C768 C 0.67384 0.68948 0.1783 0.0
C769 C 0.64709 0.65189 0.15628 0.0
C770 C 0.62725 0.63792 0.13914 0.0
C771 C 0.62897 0.64818 0.11756 0.0
C772 C 0.61007 0.63504 0.10158 0.0
C773 C 0.58944 0.61152 0.10693 0.0
C774 C 0.5877 0.60106 0.12826 0.0
C775 C 0.60653 0.61414 0.14431 0.0
H776 H 0.57483 0.60137 0.09454 0.0
H777 H 0.75634 0.72765 0.25151 0.0
H778 H 0.10076 0.74194 0.38273 0.0
H779 H 0.05802 0.72214 0.36733 0.0
H780 H 0.06715 0.66187 0.33982 0.0
H781 H 0.10988 0.6816 0.35509 0.0
H782 H 0.0454 0.67675 0.30978 0.0
H783 H 0.03247 0.65411 0.38811 0.0
H784 H 0.03673 0.66173 0.42916 0.0
H785 H 1.00068 0.70631 0.42376 0.0
H786 H 0.99651 0.69924 0.3826 0.0
H787 H 0.91733 0.58468 0.29135 0.0
H788 H 0.96023 0.60793 0.30598 0.0
H789 H 0.94898 0.66978 0.32436 0.0
H790 H 0.90618 0.64703 0.30903 0.0
H791 H 0.9716 0.65596 0.3586 0.0
H792 H 0.98313 0.67646 0.27985 0.0
H793 H 0.97831 0.66733 0.23905 0.0
H794 H 0.01658 0.62498 0.24569 0.0
H795 H 0.0213 0.63354 0.28662 0.0
C796 C 0.0936 0.72438 0.37353 0.0
C797 C 0.10873 0.71333 0.3702 0.0
C798 C 0.06916 0.71309 0.36472 0.0
C799 C 0.05922 0.69035 0.35262 0.0
C800 C 0.07439 0.67943 0.34905 0.0
C801 C 0.09886 0.69077 0.35775 0.0
C802 C 0.03306 0.67789 0.34361 0.0
C803 C 0.02926 0.67196 0.32053 0.0
C804 C 0.01198 0.67212 0.3575 0.0
C805 C 0.01443 0.67638 0.38224 0.0
C806 C 0.02564 0.66571 0.39565 0.0
C807 C 0.028 0.6699 0.41894 0.0
C808 C 0.01905 0.68456 0.42905 0.0
C809 C 1.00765 0.695 0.41589 0.0
C810 C 1.00526 0.6909 0.39259 0.0
C811 C 0.924 0.60338 0.29815 0.0
C812 C 0.90821 0.614 0.29879 0.0
C813 C 0.94853 0.61659 0.30665 0.0
C814 C 0.95785 0.64065 0.31609 0.0
C815 C 0.94212 0.6512 0.31716 0.0
C816 C 0.91761 0.63809 0.30847 0.0
C817 C 0.98403 0.65469 0.32488 0.0
C818 C 0.98779 0.66089 0.34788 0.0
C819 C 1.00506 0.66054 0.31097 0.0
C820 C 1.00236 0.65545 0.28634 0.0
C821 C 0.99033 0.66502 0.27264 0.0
C822 C 0.98765 0.65998 0.24949 0.0
C823 C 0.99708 0.64553 0.23979 0.0
C824 C 0.00926 0.63614 0.25323 0.0
C825 C 0.01196 0.6411 0.2764 0.0
H826 H 0.99499 0.64166 0.22186 0.0
H827 H 0.02089 0.68777 0.44709 0.0
H828 H 0.53889 0.29906 0.46518 0.0
H829 H 0.56657 0.32569 0.43493 0.0
H830 H 0.61626 0.37937 0.48426 0.0
H831 H 0.58854 0.35292 0.51456 0.0
H832 H 0.60919 0.40323 0.45064 0.0
H833 H 0.63117 0.33864 0.45669 0.0
H834 H 0.62352 0.2951 0.45801 0.0
H835 H 0.59285 0.28166 0.39102 0.0
H836 H 0.59999 0.32503 0.38942 0.0
H837 H 0.7135 0.47245 0.37691 0.0
H838 H 0.68668 0.44516 0.40736 0.0
H839 H 0.63255 0.39552 0.35835 0.0
H840 H 0.65939 0.4226 0.32781 0.0
H841 H 0.64245 0.36976 0.39179 0.0
H842 H 0.62072 0.43503 0.38643 0.0
H843 H 0.62941 0.47894 0.38554 0.0
H844 H 0.66115 0.49143 0.45206 0.0
H845 H 0.65297 0.44767 0.45323 0.0
C846 C 0.55583 0.31643 0.46959 0.0
C847 C 0.56154 0.32384 0.49228 0.0
C848 C 0.57165 0.33164 0.45228 0.0
C849 C 0.5937 0.35442 0.45731 0.0
C850 C 0.59936 0.36192 0.47995 0.0
C851 C 0.58347 0.3468 0.49725 0.0
C852 C 0.61065 0.37062 0.43897 0.0
C853 C 0.61674 0.39597 0.43798 0.0
C854 C 0.62016 0.36109 0.42215 0.0
C855 C 0.61589 0.33501 0.42303 0.0
C856 C 0.62261 0.32634 0.44231 0.0
C857 C 0.6184 0.3017 0.4431 0.0
C858 C 0.60765 0.2856 0.42464 0.0
C859 C 0.60114 0.29414 0.40532 0.0
C860 C 0.60529 0.31875 0.40446 0.0
C861 C 0.69597 0.45562 0.37262 0.0
C862 C 0.68851 0.44971 0.34997 0.0
C863 C 0.68061 0.44014 0.39003 0.0
C864 C 0.65754 0.41842 0.38511 0.0
C865 C 0.65025 0.41222 0.36251 0.0
C866 C 0.6655 0.4278 0.3451 0.0
C867 C 0.64091 0.40226 0.40355 0.0
C868 C 0.6349 0.37696 0.40452 0.0
C869 C 0.63162 0.41187 0.42045 0.0
C870 C 0.63647 0.43816 0.41982 0.0
C871 C 0.62975 0.4472 0.4008 0.0
C872 C 0.63454 0.47205 0.40025 0.0
C873 C 0.64589 0.48799 0.41871 0.0
C874 C 0.6524 0.47908 0.43777 0.0
C875 C 0.64767 0.45425 0.43838 0.0
H876 H 0.64958 0.50722 0.41826 0.0
H877 H 0.60441 0.26654 0.42528 0.0
H878 H 0.24291 0.65897 0.4949 0.0
H879 H 0.24257 0.63207 0.52546 0.0
H880 H 0.24176 0.6839 0.57442 0.0
H881 H 0.24206 0.71093 0.54388 0.0
H882 H 0.27444 0.66894 0.58647 0.0
H883 H 0.18833 0.62836 0.56249 0.0
H884 H 0.15326 0.60936 0.53526 0.0
H885 H 0.17294 0.55316 0.51811 0.0
H886 H 0.20838 0.57206 0.54502 0.0
H887 H 0.2393 0.58659 0.68103 0.0
H888 H 0.23968 0.61394 0.65079 0.0
H889 H 0.2439 0.56447 0.60123 0.0
H890 H 0.24305 0.53676 0.6314 0.0
H891 H 0.20923 0.57832 0.58981 0.0
H892 H 0.29556 0.61932 0.61398 0.0
H893 H 0.33031 0.63838 0.64152 0.0
H894 H 0.30964 0.69384 0.65876 0.0
H895 H 0.27451 0.67487 0.63154 0.0
C896 C 0.24243 0.66455 0.51216 0.0
C897 C 0.24235 0.68704 0.51694 0.0
C898 C 0.24227 0.64916 0.52962 0.0
C899 C 0.24181 0.65578 0.55225 0.0
C900 C 0.24212 0.6784 0.55709 0.0
C901 C 0.24235 0.69387 0.53962 0.0
C902 C 0.24108 0.63913 0.57081 0.0
C903 C 0.25997 0.64921 0.58737 0.0
C904 C 0.22251 0.61325 0.57176 0.0
C905 C 0.20116 0.60178 0.55561 0.0
C906 C 0.1853 0.61207 0.55278 0.0
C907 C 0.16534 0.6013 0.53743 0.0
C908 C 0.16092 0.58011 0.52492 0.0
C909 C 0.17641 0.5696 0.52778 0.0
C910 C 0.19643 0.58032 0.5431 0.0
C911 C 0.24014 0.58144 0.66369 0.0
C912 C 0.24118 0.55952 0.65861 0.0
C913 C 0.24056 0.5972 0.64643 0.0
C914 C 0.24205 0.59137 0.62376 0.0
C915 C 0.24282 0.56937 0.61862 0.0
C916 C 0.24253 0.55366 0.63587 0.0
C917 C 0.24261 0.60812 0.6054 0.0
C918 C 0.22368 0.59805 0.58889 0.0
C919 C 0.26109 0.63402 0.60456 0.0
C920 C 0.28225 0.64551 0.62089 0.0
C921 C 0.29829 0.63545 0.62378 0.0
C922 C 0.31808 0.64626 0.63931 0.0
C923 C 0.32214 0.66727 0.65193 0.0
C924 C 0.30645 0.67755 0.649 0.0
C925 C 0.28661 0.66678 0.63351 0.0
H926 H 0.33748 0.67562 0.66394 0.0
H927 H 0.14545 0.57179 0.51304 0.0
H928 H 0.67135 0.25648 0.84368 0.0
H929 H 0.6442 0.25565 0.81322 0.0
H930 H 0.67487 0.22182 0.7689 0.0
H931 H 0.70117 0.22117 0.79956 0.0
H932 H 0.67186 0.26493 0.7505 0.0
H933 H 0.62129 0.1848 0.78699 0.0
H934 H 0.60091 0.15671 0.81946 0.0
H935 H 0.5585 0.19384 0.8331 0.0
H936 H 0.57895 0.22245 0.80088 0.0
H937 H 0.5832 0.22821 0.66131 0.0
H938 H 0.61067 0.22866 0.69141 0.0
H939 H 0.57052 0.24838 0.73969 0.0
H940 H 0.54248 0.24723 0.70978 0.0
H941 H 0.57875 0.2125 0.75624 0.0
H942 H 0.62823 0.29241 0.72059 0.0
H943 H 0.64884 0.32195 0.68905 0.0
H944 H 0.69356 0.28741 0.67482 0.0
H945 H 0.67292 0.2574 0.70609 0.0
C946 C 0.67213 0.24845 0.82762 0.0
C947 C 0.68846 0.23871 0.82428 0.0
C948 C 0.65672 0.24823 0.81016 0.0
C949 C 0.65752 0.23862 0.78888 0.0
C950 C 0.67409 0.22941 0.78522 0.0
C951 C 0.68923 0.22922 0.80278 0.0
C952 C 0.64074 0.2379 0.77055 0.0
C953 C 0.65152 0.25322 0.75154 0.0
C954 C 0.61421 0.22314 0.77232 0.0
C955 C 0.60187 0.20596 0.79168 0.0
C956 C 0.60781 0.18715 0.79705 0.0
C957 C 0.59621 0.1711 0.81538 0.0
C958 C 0.57848 0.17354 0.82838 0.0
C959 C 0.57228 0.19201 0.82304 0.0
C960 C 0.58386 0.20814 0.80473 0.0
C961 C 0.58007 0.23243 0.67837 0.0
C962 C 0.56065 0.23772 0.68312 0.0
C963 C 0.59595 0.23293 0.69552 0.0
C964 C 0.59285 0.23884 0.71778 0.0
C965 C 0.57333 0.24386 0.72263 0.0
C966 C 0.55745 0.2434 0.70548 0.0
C967 C 0.60981 0.23953 0.73602 0.0
C968 C 0.59909 0.22422 0.75508 0.0
C969 C 0.63639 0.25449 0.73438 0.0
C970 C 0.64882 0.27247 0.71553 0.0
C971 C 0.64229 0.29096 0.71061 0.0
C972 C 0.65401 0.30782 0.6928 0.0
C973 C 0.67245 0.30651 0.6799 0.0
C974 C 0.67924 0.28837 0.68481 0.0
C975 C 0.66755 0.27144 0.70258 0.0
H976 H 0.68151 0.3196 0.66613 0.0
H977 H 0.56951 0.16107 0.84256 0.0
H978 H 0.30388 0.53818 0.87655 0.0
H979 H 0.33098 0.56609 0.90644 0.0
H980 H 0.38525 0.61388 0.85657 0.0
H981 H 0.35828 0.58595 0.8266 0.0
H982 H 0.40848 0.60664 0.89104 0.0
H983 H 0.34555 0.63077 0.88278 0.0
H984 H 0.3024 0.62407 0.88075 0.0
H985 H 0.28785 0.59502 0.94837 0.0
H986 H 0.33082 0.60122 0.95069 0.0
H987 H 0.47983 0.7112 0.96388 0.0
H988 H 0.45283 0.68438 0.93335 0.0
H989 H 0.39949 0.6335 0.98226 0.0
H990 H 0.42608 0.6605 0.01285 0.0
H991 H 0.37609 0.64304 0.94792 0.0
H992 H 0.43922 0.61872 0.95574 0.0
H993 H 0.48255 0.62588 0.95755 0.0
H994 H 0.4969 0.65608 0.89034 0.0
H995 H 0.45374 0.64943 0.88825 0.0
C996 C 0.32149 0.55475 0.87194 0.0
C997 C 0.32888 0.55989 0.84919 0.0
C998 C 0.33698 0.57069 0.88904 0.0
C999 C 0.36003 0.59229 0.88375 0.0
C1000 C 0.36757 0.59733 0.86107 0.0
C1001 C 0.35215 0.58132 0.84396 0.0
C1002 C 0.37638 0.6095 0.90187 0.0
C1003 C 0.40148 0.61489 0.90327 0.0
C1004 C 0.36715 0.61989 0.91813 0.0
C1005 C 0.34133 0.61624 0.91682 0.0
C1006 C 0.33309 0.62278 0.89716 0.0
C1007 C 0.30867 0.6191 0.89596 0.0
C1008 C 0.29237 0.60907 0.9144 0.0
C1009 C 0.30049 0.60276 0.93409 0.0
C1010 C 0.32488 0.60637 0.93536 0.0
C1011 C 0.46226 0.69441 0.96813 0.0
C1012 C 0.45516 0.68794 0.9908 0.0
C1013 C 0.44695 0.67899 0.95067 0.0
C1014 C 0.42426 0.65679 0.95553 0.0
C1015 C 0.41695 0.65049 0.97812 0.0
C1016 C 0.43228 0.66583 0.99558 0.0
C1017 C 0.40812 0.6401 0.93709 0.0
C1018 C 0.38306 0.63483 0.93564 0.0
C1019 C 0.41741 0.6299 0.92074 0.0
C1020 C 0.44333 0.63381 0.92193 0.0
C1021 C 0.45168 0.62708 0.94141 0.0
C1022 C 0.4762 0.63101 0.94248 0.0
C1023 C 0.49249 0.64149 0.9241 0.0
C1024 C 0.48427 0.648 0.90458 0.0
C1025 C 0.45978 0.64413 0.90344 0.0
H1026 H 0.51146 0.64452 0.92495 0.0
H1027 H 0.27348 0.60624 0.91344 0.0
H1028 H 0.77655 0.30058 0.04302 0.0
H1029 H 0.77618 0.32754 0.07335 0.0
H1030 H 0.77149 0.37689 0.0241 0.0
H1031 H 0.77222 0.35018 0.99371 0.0
H1032 H 0.80424 0.40386 0.05541 0.0
H1033 H 0.71959 0.33424 0.05559 0.0
H1034 H 0.68635 0.2895 0.05689 0.0
H1035 H 0.71184 0.28194 0.12232 0.0
H1036 H 0.74547 0.32657 0.12129 0.0
H1037 H 0.76788 0.47067 0.13085 0.0
H1038 H 0.76772 0.44324 0.10066 0.0
H1039 H 0.77956 0.39817 0.14967 0.0
H1040 H 0.7793 0.42526 0.17999 0.0
H1041 H 0.74309 0.36912 0.11868 0.0
H1042 H 0.82778 0.43945 0.11803 0.0
H1043 H 0.86031 0.48444 0.1164 0.0
H1044 H 0.83353 0.49084 0.0512 0.0
H1045 H 0.80059 0.44595 0.05259 0.0
C1046 C 0.77526 0.31708 0.03867 0.0
C1047 C 0.77435 0.32321 0.01597 0.0
C1048 C 0.77503 0.33248 0.05603 0.0
C1049 C 0.77347 0.35411 0.05105 0.0
C1050 C 0.77273 0.36034 0.02838 0.0
C1051 C 0.77318 0.34507 0.01103 0.0
C1052 C 0.77288 0.37039 0.06944 0.0
C1053 C 0.79063 0.39629 0.06906 0.0
C1054 C 0.75547 0.3605 0.08755 0.0
C1055 C 0.7352 0.33369 0.08826 0.0
C1056 C 0.71822 0.32299 0.07019 0.0
C1057 C 0.69929 0.29766 0.07088 0.0
C1058 C 0.69702 0.28287 0.08965 0.0
C1059 C 0.71364 0.29341 0.10778 0.0
C1060 C 0.73262 0.31873 0.10716 0.0
C1061 C 0.77026 0.45481 0.13521 0.0
C1062 C 0.77368 0.45018 0.15781 0.0
C1063 C 0.77035 0.43927 0.11793 0.0
C1064 C 0.77386 0.4188 0.1229 0.0
C1065 C 0.7769 0.4139 0.14546 0.0
C1066 C 0.77694 0.42951 0.16273 0.0
C1067 C 0.77439 0.4025 0.10458 0.0
C1068 C 0.75666 0.37663 0.10499 0.0
C1069 C 0.7917 0.41243 0.08643 0.0
C1070 C 0.81156 0.4394 0.08551 0.0
C1071 C 0.8287 0.4505 0.10342 0.0
C1072 C 0.84723 0.47598 0.10253 0.0
C1073 C 0.84894 0.49051 0.08373 0.0
C1074 C 0.83216 0.47957 0.06576 0.0
C1075 C 0.81357 0.45411 0.06659 0.0
H1076 H 0.8633 0.51023 0.08307 0.0
H1077 H 0.68235 0.26326 0.09016 0.0
H1078 H 0.29606 0.74467 0.30395 0.0
H1079 H 0.323 0.74457 0.27344 0.0
H1080 H 0.38909 0.79577 0.3114 0.0
H1081 H 0.36228 0.79646 0.34174 0.0
H1082 H 0.39306 0.80978 0.26751 0.0
H1083 H 0.37069 0.73378 0.30853 0.0
H1084 H 0.34156 0.69286 0.32612 0.0
H1085 H 0.30734 0.6633 0.26174 0.0
H1086 H 0.33605 0.70419 0.24381 0.0
H1087 H 0.48406 0.79709 0.2038 0.0
H1088 H 0.45689 0.79653 0.23431 0.0
H1089 H 0.39125 0.74293 0.19714 0.0
H1090 H 0.41835 0.74261 0.16695 0.0
H1091 H 0.38675 0.73005 0.2405 0.0
H1092 H 0.40867 0.80562 0.19934 0.0
H1093 H 0.43732 0.8465 0.18146 0.0
H1094 H 0.47175 0.87687 0.24559 0.0
H1095 H 0.44352 0.83603 0.26382 0.0
C1096 C 0.31633 0.75608 0.30572 0.0
C1097 C 0.32703 0.77053 0.3253 0.0
C1098 C 0.3317 0.75582 0.28836 0.0
C1099 C 0.35807 0.76996 0.29024 0.0
C1100 C 0.3688 0.78466 0.30963 0.0
C1101 C 0.35345 0.78487 0.32702 0.0
C1102 C 0.3745 0.76953 0.27197 0.0
C1103 C 0.39192 0.79239 0.2618 0.0
C1104 C 0.37256 0.74676 0.26415 0.0
C1105 C 0.35536 0.72213 0.27487 0.0
C1106 C 0.35682 0.71862 0.29816 0.0
C1107 C 0.34041 0.69542 0.30818 0.0
C1108 C 0.32257 0.67551 0.29507 0.0
C1109 C 0.32115 0.67875 0.27189 0.0
C1110 C 0.3375 0.70192 0.26178 0.0
C1111 C 0.46386 0.78496 0.2022 0.0
C1112 C 0.45341 0.76997 0.18284 0.0
C1113 C 0.44833 0.78486 0.21957 0.0
C1114 C 0.42199 0.76997 0.21788 0.0
C1115 C 0.41151 0.75468 0.19877 0.0
C1116 C 0.42703 0.7547 0.18142 0.0
C1117 C 0.40538 0.77033 0.23604 0.0
C1118 C 0.3879 0.74745 0.24619 0.0
C1119 C 0.4072 0.79308 0.2438 0.0
C1120 C 0.42414 0.81769 0.2329 0.0
C1121 C 0.42248 0.82095 0.2096 0.0
C1122 C 0.43862 0.84413 0.19941 0.0
C1123 C 0.45639 0.86426 0.21237 0.0
C1124 C 0.458 0.86126 0.23557 0.0
C1125 C 0.44192 0.83811 0.24584 0.0
H1126 H 0.46887 0.88219 0.20445 0.0
H1127 H 0.30988 0.65757 0.30286 0.0
loop_
_geom_bond_atom_site_label_1
_geom_bond_atom_site_label_2
_geom_bond_distance
_geom_bond_site_symmetry_2
_ccdc_geom_bond_type
Li0 N17 1.990 . S
Li0 O60 1.956 . S
Li0 O61 1.970 . S
Li0 O62 1.961 . S
Li1 N25 1.990 . S
Li1 O60 1.970 . S
Li1 O61 1.956 . S
Li1 O63 1.961 . S
Li2 N47 1.990 . S
Li2 O60 1.961 . S
Li2 O62 1.956 . S
Li2 O63 1.970 . S
Li3 N53 1.990 . S
Li3 O61 1.961 . S
Li3 O62 1.970 . S
Li3 O63 1.956 . S
C4 C6 1.348 . S
C4 C7 1.356 . S
C4 O60 1.325 . S
N5 C8 1.314 . S
N5 C9 1.279 . S
C6 C4 1.348 . S
C6 C8 1.353 . S
C6 H64 0.929 . S
C7 C4 1.356 . S
C7 C9 1.358 . S
C7 H65 0.930 . S
C8 N5 1.314 . S
C8 C6 1.353 . S
C8 H66 0.930 . S
C9 N5 1.279 . S
C9 C7 1.358 . S
C9 H67 0.930 . S
C10 C13 1.348 . S
C10 C14 1.356 . S
C10 O61 1.325 . S
C11 N12 1.279 . S
C11 C14 1.358 . S
C11 H68 0.930 . S
N12 C11 1.279 . S
N12 C15 1.314 . S
C13 C10 1.348 . S
C13 C15 1.353 . S
C13 H69 0.929 . S
C14 C10 1.356 . S
C14 C11 1.358 . S
C14 H70 0.930 . S
C15 N12 1.314 . S
C15 C13 1.353 . S
C15 H71 0.930 . S
C16 N17 1.314 . S
C16 C21 1.353 . S
C16 H22 0.930 . S
N17 Li0 1.990 . S
N17 C16 1.314 . S
N17 C19 1.279 . S
C18 C19 1.358 . S
C18 C20 1.356 . S
C18 H72 0.930 . S
C19 N17 1.279 . S
C19 C18 1.358 . S
C19 H23 0.930 . S
C20 C18 1.356 . S
C20 C21 1.348 . S
C21 C16 1.353 . S
C21 C20 1.348 . S
C21 H73 0.929 . S
H22 C16 0.930 . S
H23 C19 0.930 . S
C24 N25 1.314 . S
C24 C26 1.353 . S
C24 H30 0.930 . S
N25 Li1 1.990 . S
N25 C24 1.314 . S
N25 C28 1.279 . S
C26 C24 1.353 . S
C26 C29 1.348 . S
C26 H74 0.929 . S
C27 C28 1.358 . S
C27 C29 1.356 . S
C27 H75 0.930 . S
C28 N25 1.279 . S
C28 C27 1.358 . S
C28 H31 0.930 . S
C29 C26 1.348 . S
C29 C27 1.356 . S
H30 C24 0.930 . S
H31 C28 0.930 . S
C32 C34 1.348 . S
C32 C35 1.356 . S
C32 O62 1.325 . S
N33 C36 1.314 . S
N33 C37 1.279 . S
C34 C32 1.348 . S
C34 C36 1.353 . S
C34 H76 0.929 . S
C35 C32 1.356 . S
C35 C37 1.358 . S
C35 H77 0.930 . S
C36 N33 1.314 . S
C36 C34 1.353 . S
C36 H78 0.930 . S
C37 N33 1.279 . S
C37 C35 1.358 . S
C37 H79 0.930 . S
C38 C39 1.348 . S
C38 C40 1.356 . S
C38 O63 1.325 . S
C39 C38 1.348 . S
C39 C41 1.353 . S
C39 H80 0.929 . S
C40 C38 1.356 . S
C40 C42 1.358 . S
C40 H81 0.930 . S
C41 C39 1.353 . S
C41 N43 1.314 . S
C41 H82 0.930 . S
C42 C40 1.358 . S
C42 N43 1.279 . S
C42 H83 0.930 . S
N43 C41 1.314 . S
N43 C42 1.279 . S
C44 C46 1.353 . S
C44 N47 1.314 . S
C44 H50 0.930 . S
C45 N47 1.279 . S
C45 C48 1.358 . S
C45 H51 0.930 . S
C46 C44 1.353 . S
C46 C49 1.348 . S
C46 H84 0.929 . S
N47 Li2 1.990 . S
N47 C44 1.314 . S
N47 C45 1.279 . S
C48 C45 1.358 . S
C48 C49 1.356 . S
C48 H85 0.930 . S
C49 C46 1.348 . S
C49 C48 1.356 . S
H50 C44 0.930 . S
H51 C45 0.930 . S
C52 N53 1.314 . S
C52 C54 1.353 . S
C52 H58 0.930 . S
N53 Li3 1.990 . S
N53 C52 1.314 . S
N53 C56 1.279 . S
C54 C52 1.353 . S
C54 C57 1.348 . S
C54 H86 0.929 . S
C55 C56 1.358 . S
C55 C57 1.356 . S
C55 H87 0.930 . S
C56 N53 1.279 . S
C56 C55 1.358 . S
C56 H59 0.930 . S
C57 C54 1.348 . S
C57 C55 1.356 . S
H58 C52 0.930 . S
H59 C56 0.930 . S
O60 Li0 1.956 . S
O60 Li1 1.970 . S
O60 Li2 1.961 . S
O60 C4 1.325 . S
O61 Li0 1.970 . S
O61 Li1 1.956 . S
O61 Li3 1.961 . S
O61 C10 1.325 . S
O62 Li0 1.961 . S
O62 Li2 1.956 . S
O62 Li3 1.970 . S
O62 C32 1.325 . S
O63 Li1 1.961 . S
O63 Li2 1.970 . S
O63 Li3 1.956 . S
O63 C38 1.325 . S
H64 C6 0.929 . S
H65 C7 0.930 . S
H66 C8 0.930 . S
H67 C9 0.930 . S
H68 C11 0.930 . S
H69 C13 0.929 . S
H70 C14 0.930 . S
H71 C15 0.930 . S
H72 C18 0.930 . S
H73 C21 0.929 . S
H74 C26 0.929 . S
H75 C27 0.930 . S
H76 C34 0.929 . S
H77 C35 0.930 . S
H78 C36 0.930 . S
H79 C37 0.930 . S
H80 C39 0.929 . S
H81 C40 0.930 . S
H82 C41 0.930 . S
H83 C42 0.930 . S
H84 C46 0.929 . S
H85 C48 0.930 . S
H86 C54 0.929 . S
H87 C55 0.930 . S
Li88 N105 1.990 . S
Li88 O148 1.956 . S
Li88 O149 1.970 . S
Li88 O150 1.961 . S
Li89 N113 1.990 . S
Li89 O148 1.970 . S
Li89 O149 1.956 . S
Li89 O151 1.961 . S
Li90 N135 1.990 . S
Li90 O148 1.961 . S
Li90 O150 1.956 . S
Li90 O151 1.970 . S
Li91 N141 1.990 . S
Li91 O149 1.961 . S
Li91 O150 1.970 . S
Li91 O151 1.956 . S
C92 C94 1.348 . S
C92 C95 1.356 . S
C92 O148 1.325 . S
N93 C96 1.314 . S
N93 C97 1.279 . S
C94 C92 1.348 . S
C94 C96 1.353 . S
C94 H152 0.929 . S
C95 C92 1.356 . S
C95 C97 1.358 . S
C95 H153 0.930 . S
C96 N93 1.314 . S
C96 C94 1.353 . S
C96 H154 0.930 . S
C97 N93 1.279 . S
C97 C95 1.358 . S
C97 H155 0.930 . S
C98 C101 1.348 . S
C98 C102 1.356 . S
C98 O149 1.325 . S
C99 N100 1.279 . S
C99 C102 1.358 . S
C99 H156 0.930 . S
N100 C99 1.279 . S
N100 C103 1.314 . S
C101 C98 1.348 . S
C101 C103 1.353 . S
C101 H157 0.929 . S
C102 C98 1.356 . S
C102 C99 1.358 . S
C102 H158 0.930 . S
C103 N100 1.314 . S
C103 C101 1.353 . S
C103 H159 0.930 . S
C104 N105 1.314 . S
C104 C109 1.353 . S
C104 H110 0.930 . S
N105 Li88 1.990 . S
N105 C104 1.314 . S
N105 C107 1.279 . S
C106 C107 1.358 . S
C106 C108 1.356 . S
C106 H160 0.930 . S
C107 N105 1.279 . S
C107 C106 1.358 . S
C107 H111 0.930 . S
C108 C106 1.356 . S
C108 C109 1.348 . S
C109 C104 1.353 . S
C109 C108 1.348 . S
C109 H161 0.929 . S
H110 C104 0.930 . S
H111 C107 0.930 . S
C112 N113 1.314 . S
C112 C114 1.353 . S
C112 H118 0.930 . S
N113 Li89 1.990 . S
N113 C112 1.314 . S
N113 C116 1.279 . S
C114 C112 1.353 . S
C114 C117 1.348 . S
C114 H162 0.929 . S
C115 C116 1.358 . S
C115 C117 1.356 . S
C115 H163 0.930 . S
C116 N113 1.279 . S
C116 C115 1.358 . S
C116 H119 0.930 . S
C117 C114 1.348 . S
C117 C115 1.356 . S
H118 C112 0.930 . S
H119 C116 0.930 . S
C120 C122 1.348 . S
C120 C123 1.356 . S
C120 O150 1.325 . S
N121 C124 1.314 . S
N121 C125 1.279 . S
C122 C120 1.348 . S
C122 C124 1.353 . S
C122 H164 0.929 . S
C123 C120 1.356 . S
C123 C125 1.358 . S
C123 H165 0.930 . S
C124 N121 1.314 . S
C124 C122 1.353 . S
C124 H166 0.930 . S
C125 N121 1.279 . S
C125 C123 1.358 . S
C125 H167 0.930 . S
C126 C127 1.348 . S
C126 C128 1.356 . S
C126 O151 1.325 . S
C127 C126 1.348 . S
C127 C129 1.353 . S
C127 H168 0.929 . S
C128 C126 1.356 . S
C128 C130 1.358 . S
C128 H169 0.930 . S
C129 C127 1.353 . S
C129 N131 1.314 . S
C129 H170 0.930 . S
C130 C128 1.358 . S
C130 N131 1.279 . S
C130 H171 0.930 . S
N131 C129 1.314 . S
N131 C130 1.279 . S
C132 C134 1.353 . S
C132 N135 1.314 . S
C132 H138 0.930 . S
C133 N135 1.279 . S
C133 C136 1.358 . S
C133 H139 0.930 . S
C134 C132 1.353 . S
C134 C137 1.348 . S
C134 H172 0.929 . S
N135 Li90 1.990 . S
N135 C132 1.314 . S
N135 C133 1.279 . S
C136 C133 1.358 . S
C136 C137 1.356 . S
C136 H173 0.930 . S
C137 C134 1.348 . S
C137 C136 1.356 . S
H138 C132 0.930 . S
H139 C133 0.930 . S
C140 N141 1.314 . S
C140 C142 1.353 . S
C140 H146 0.930 . S
N141 Li91 1.990 . S
N141 C140 1.314 . S
N141 C144 1.279 . S
C142 C140 1.353 . S
C142 C145 1.348 . S
C142 H174 0.929 . S
C143 C144 1.358 . S
C143 C145 1.356 . S
C143 H175 0.930 . S
C144 N141 1.279 . S
C144 C143 1.358 . S
C144 H147 0.930 . S
C145 C142 1.348 . S
C145 C143 1.356 . S
H146 C140 0.930 . S
H147 C144 0.930 . S
O148 Li88 1.956 . S
O148 Li89 1.970 . S
O148 Li90 1.961 . S
O148 C92 1.325 . S
O149 Li88 1.970 . S
O149 Li89 1.956 . S
O149 Li91 1.961 . S
O149 C98 1.325 . S
O150 Li88 1.961 . S
O150 Li90 1.956 . S
O150 Li91 1.970 . S
O150 C120 1.325 . S
O151 Li89 1.961 . S
O151 Li90 1.970 . S
O151 Li91 1.956 . S
O151 C126 1.325 . S
H152 C94 0.929 . S
H153 C95 0.930 . S
H154 C96 0.930 . S
H155 C97 0.930 . S
H156 C99 0.930 . S
H157 C101 0.929 . S
H158 C102 0.930 . S
H159 C103 0.930 . S
H160 C106 0.930 . S
H161 C109 0.929 . S
H162 C114 0.929 . S
H163 C115 0.930 . S
H164 C122 0.929 . S
H165 C123 0.930 . S
H166 C124 0.930 . S
H167 C125 0.930 . S
H168 C127 0.929 . S
H169 C128 0.930 . S
H170 C129 0.930 . S
H171 C130 0.930 . S
H172 C134 0.929 . S
H173 C136 0.930 . S
H174 C142 0.929 . S
H175 C143 0.930 . S
Li176 N193 1.990 . S
Li176 O236 1.956 . S
Li176 O237 1.970 . S
Li176 O238 1.961 . S
Li177 N201 1.990 . S
Li177 O236 1.970 . S
Li177 O237 1.956 . S
Li177 O239 1.961 . S
Li178 N223 1.990 . S
Li178 O236 1.961 . S
Li178 O238 1.956 . S
Li178 O239 1.970 . S
Li179 N229 1.990 . S
Li179 O237 1.961 . S
Li179 O238 1.970 . S
Li179 O239 1.956 . S
C180 C182 1.348 . S
C180 C183 1.356 . S
C180 O236 1.325 . S
N181 C184 1.314 . S
N181 C185 1.279 . S
C182 C180 1.348 . S
C182 C184 1.353 . S
C182 H240 0.929 . S
C183 C180 1.356 . S
C183 C185 1.358 . S
C183 H241 0.930 . S
C184 N181 1.314 . S
C184 C182 1.353 . S
C184 H242 0.930 . S
C185 N181 1.279 . S
C185 C183 1.358 . S
C185 H243 0.930 . S
C186 C189 1.348 . S
C186 C190 1.356 . S
C186 O237 1.325 . S
C187 N188 1.279 . S
C187 C190 1.358 . S
C187 H244 0.930 . S
N188 C187 1.279 . S
N188 C191 1.314 . S
C189 C186 1.348 . S
C189 C191 1.353 . S
C189 H245 0.929 . S
C190 C186 1.356 . S
C190 C187 1.358 . S
C190 H246 0.930 . S
C191 N188 1.314 . S
C191 C189 1.353 . S
C191 H247 0.930 . S
C192 N193 1.314 . S
C192 C197 1.353 . S
C192 H198 0.930 . S
N193 Li176 1.990 . S
N193 C192 1.314 . S
N193 C195 1.279 . S
C194 C195 1.358 . S
C194 C196 1.356 . S
C194 H248 0.930 . S
C195 N193 1.279 . S
C195 C194 1.358 . S
C195 H199 0.930 . S
C196 C194 1.356 . S
C196 C197 1.348 . S
C197 C192 1.353 . S
C197 C196 1.348 . S
C197 H249 0.929 . S
H198 C192 0.930 . S
H199 C195 0.930 . S
C200 N201 1.314 . S
C200 C202 1.353 . S
C200 H206 0.930 . S
N201 Li177 1.990 . S
N201 C200 1.314 . S
N201 C204 1.279 . S
C202 C200 1.353 . S
C202 C205 1.348 . S
C202 H250 0.929 1_556 S
C203 C204 1.358 . S
C203 C205 1.356 . S
C203 H251 0.930 . S
C204 N201 1.279 . S
C204 C203 1.358 . S
C204 H207 0.930 . S
C205 C202 1.348 . S
C205 C203 1.356 . S
H206 C200 0.930 . S
H207 C204 0.930 . S
C208 C210 1.348 . S
C208 C211 1.356 . S
C208 O238 1.325 . S
N209 C212 1.314 . S
N209 C213 1.279 . S
C210 C208 1.348 . S
C210 C212 1.353 . S
C210 H252 0.929 . S
C211 C208 1.356 . S
C211 C213 1.358 . S
C211 H253 0.930 . S
C212 N209 1.314 . S
C212 C210 1.353 . S
C212 H254 0.930 . S
C213 N209 1.279 . S
C213 C211 1.358 . S
C213 H255 0.930 . S
C214 C215 1.348 . S
C214 C216 1.356 . S
C214 O239 1.325 . S
C215 C214 1.348 . S
C215 C217 1.353 . S
C215 H256 0.929 . S
C216 C214 1.356 . S
C216 C218 1.358 . S
C216 H257 0.930 . S
C217 C215 1.353 . S
C217 N219 1.314 . S
C217 H258 0.930 . S
C218 C216 1.358 . S
C218 N219 1.279 . S
C218 H259 0.930 . S
N219 C217 1.314 . S
N219 C218 1.279 . S
C220 C222 1.353 . S
C220 N223 1.314 . S
C220 H226 0.930 . S
C221 N223 1.279 . S
C221 C224 1.358 . S
C221 H227 0.930 . S
C222 C220 1.353 . S
C222 C225 1.348 . S
C222 H260 0.929 . S
N223 Li178 1.990 . S
N223 C220 1.314 . S
N223 C221 1.279 . S
C224 C221 1.358 . S
C224 C225 1.356 . S
C224 H261 0.930 . S
C225 C222 1.348 . S
C225 C224 1.356 . S
H226 C220 0.930 . S
H227 C221 0.930 . S
C228 N229 1.314 . S
C228 C230 1.353 . S
C228 H234 0.930 . S
N229 Li179 1.990 . S
N229 C228 1.314 . S
N229 C232 1.279 . S
C230 C228 1.353 . S
C230 C233 1.348 . S
C230 H262 0.929 . S
C231 C232 1.358 . S
C231 C233 1.356 . S
C231 H263 0.930 . S
C232 N229 1.279 . S
C232 C231 1.358 . S
C232 H235 0.930 . S
C233 C230 1.348 . S
C233 C231 1.356 . S
H234 C228 0.930 . S
H235 C232 0.930 . S
O236 Li176 1.956 . S
O236 Li177 1.970 . S
O236 Li178 1.961 . S
O236 C180 1.325 . S
O237 Li176 1.970 . S
O237 Li177 1.956 . S
O237 Li179 1.961 . S
O237 C186 1.325 . S
O238 Li176 1.961 . S
O238 Li178 1.956 . S
O238 Li179 1.970 . S
O238 C208 1.325 . S
O239 Li177 1.961 . S
O239 Li178 1.970 . S
O239 Li179 1.956 . S
O239 C214 1.325 . S
H240 C182 0.929 . S
H241 C183 0.930 . S
H242 C184 0.930 . S
H243 C185 0.930 . S
H244 C187 0.930 . S
H245 C189 0.929 . S
H246 C190 0.930 . S
H247 C191 0.930 . S
H248 C194 0.930 . S
H249 C197 0.929 . S
H250 C202 0.929 1_554 S
H251 C203 0.930 . S
H252 C210 0.929 . S
H253 C211 0.930 . S
H254 C212 0.930 . S
H255 C213 0.930 . S
H256 C215 0.929 . S
H257 C216 0.930 . S
H258 C217 0.930 . S
H259 C218 0.930 . S
H260 C222 0.929 . S
H261 C224 0.930 . S
H262 C230 0.929 . S
H263 C231 0.930 . S
Li264 N281 1.990 . S
Li264 O324 1.956 . S
Li264 O325 1.970 . S
Li264 O326 1.961 . S
Li265 N289 1.990 . S
Li265 O324 1.970 . S
Li265 O325 1.956 . S
Li265 O327 1.961 . S
Li266 N311 1.990 . S
Li266 O324 1.961 . S
Li266 O326 1.956 . S
Li266 O327 1.970 . S
Li267 N317 1.990 . S
Li267 O325 1.961 . S
Li267 O326 1.970 . S
Li267 O327 1.956 . S
C268 C270 1.348 . S
C268 C271 1.356 . S
C268 O324 1.325 . S
N269 C272 1.314 . S
N269 C273 1.279 . S
C270 C268 1.348 . S
C270 C272 1.353 . S
C270 H328 0.929 . S
C271 C268 1.356 . S
C271 C273 1.358 . S
C271 H329 0.930 . S
C272 N269 1.314 . S
C272 C270 1.353 . S
C272 H330 0.930 . S
C273 N269 1.279 . S
C273 C271 1.358 . S
C273 H331 0.930 . S
C274 C277 1.348 . S
C274 C278 1.356 . S
C274 O325 1.325 . S
C275 N276 1.279 . S
C275 C278 1.358 . S
C275 H332 0.930 . S
N276 C275 1.279 . S
N276 C279 1.314 . S
C277 C274 1.348 . S
C277 C279 1.353 . S
C277 H333 0.929 . S
C278 C274 1.356 . S
C278 C275 1.358 . S
C278 H334 0.930 . S
C279 N276 1.314 . S
C279 C277 1.353 . S
C279 H335 0.930 . S
C280 N281 1.314 . S
C280 C285 1.353 . S
C280 H286 0.930 . S
N281 Li264 1.990 . S
N281 C280 1.314 . S
N281 C283 1.279 . S
C282 C283 1.358 . S
C282 C284 1.356 . S
C282 H336 0.930 . S
C283 N281 1.279 . S
C283 C282 1.358 . S
C283 H287 0.930 . S
C284 C282 1.356 . S
C284 C285 1.348 . S
C285 C280 1.353 . S
C285 C284 1.348 . S
C285 H337 0.929 . S
H286 C280 0.930 . S
H287 C283 0.930 . S
C288 N289 1.314 . S
C288 C290 1.353 . S
C288 H294 0.930 . S
N289 Li265 1.990 . S
N289 C288 1.314 . S
N289 C292 1.279 . S
C290 C288 1.353 . S
C290 C293 1.348 . S
C290 H338 0.929 . S
C291 C292 1.358 . S
C291 C293 1.356 . S
C291 H339 0.930 . S
C292 N289 1.279 . S
C292 C291 1.358 . S
C292 H295 0.930 . S
C293 C290 1.348 . S
C293 C291 1.356 . S
H294 C288 0.930 . S
H295 C292 0.930 . S
C296 C298 1.348 . S
C296 C299 1.356 . S
C296 O326 1.325 . S
N297 C300 1.314 . S
N297 C301 1.279 . S
C298 C296 1.348 . S
C298 C300 1.353 . S
C298 H340 0.929 . S
C299 C296 1.356 . S
C299 C301 1.358 . S
C299 H341 0.930 . S
C300 N297 1.314 . S
C300 C298 1.353 . S
C300 H342 0.930 . S
C301 N297 1.279 . S
C301 C299 1.358 . S
C301 H343 0.930 . S
C302 C303 1.348 . S
C302 C304 1.356 . S
C302 O327 1.325 . S
C303 C302 1.348 . S
C303 C305 1.353 . S
C303 H344 0.929 . S
C304 C302 1.356 . S
C304 C306 1.358 . S
C304 H345 0.930 . S
C305 C303 1.353 . S
C305 N307 1.314 . S
C305 H346 0.930 . S
C306 C304 1.358 . S
C306 N307 1.279 . S
C306 H347 0.930 . S
N307 C305 1.314 . S
N307 C306 1.279 . S
C308 C310 1.353 . S
C308 N311 1.314 . S
C308 H314 0.930 . S
C309 N311 1.279 . S
C309 C312 1.358 . S
C309 H315 0.930 . S
C310 C308 1.353 . S
C310 C313 1.348 . S
C310 H348 0.929 . S
N311 Li266 1.990 . S
N311 C308 1.314 . S
N311 C309 1.279 . S
C312 C309 1.358 . S
C312 C313 1.356 . S
C312 H349 0.930 . S
C313 C310 1.348 . S
C313 C312 1.356 . S
H314 C308 0.930 . S
H315 C309 0.930 . S
C316 N317 1.314 . S
C316 C318 1.353 . S
C316 H322 0.930 . S
N317 Li267 1.990 . S
N317 C316 1.314 . S
N317 C320 1.279 . S
C318 C316 1.353 . S
C318 C321 1.348 . S
C318 H350 0.929 1_554 S
C319 C320 1.358 . S
C319 C321 1.356 . S
C319 H351 0.930 . S
C320 N317 1.279 . S
C320 C319 1.358 . S
C320 H323 0.930 . S
C321 C318 1.348 . S
C321 C319 1.356 . S
H322 C316 0.930 . S
H323 C320 0.930 . S
O324 Li264 1.956 . S
O324 Li265 1.970 . S
O324 Li266 1.961 . S
O324 C268 1.325 . S
O325 Li264 1.970 . S
O325 Li265 1.956 . S
O325 Li267 1.961 . S
O325 C274 1.325 . S
O326 Li264 1.961 . S
O326 Li266 1.956 . S
O326 Li267 1.970 . S
O326 C296 1.325 . S
O327 Li265 1.961 . S
O327 Li266 1.970 . S
O327 Li267 1.956 . S
O327 C302 1.325 . S
H328 C270 0.929 . S
H329 C271 0.930 . S
H330 C272 0.930 . S
H331 C273 0.930 . S
H332 C275 0.930 . S
H333 C277 0.929 . S
H334 C278 0.930 . S
H335 C279 0.930 . S
H336 C282 0.930 . S
H337 C285 0.929 . S
H338 C290 0.929 . S
H339 C291 0.930 . S
H340 C298 0.929 . S
H341 C299 0.930 . S
H342 C300 0.930 . S
H343 C301 0.930 . S
H344 C303 0.929 . S
H345 C304 0.930 . S
H346 C305 0.930 . S
H347 C306 0.930 . S
H348 C310 0.929 . S
H349 C312 0.930 . S
H350 C318 0.929 1_556 S
H351 C319 0.930 . S
Li352 N369 1.990 . S
Li352 O412 1.956 . S
Li352 O413 1.970 . S
Li352 O414 1.961 . S
Li353 N377 1.990 . S
Li353 O412 1.970 . S
Li353 O413 1.956 . S
Li353 O415 1.961 . S
Li354 N399 1.990 . S
Li354 O412 1.961 . S
Li354 O414 1.956 . S
Li354 O415 1.970 . S
Li355 N405 1.990 . S
Li355 O413 1.961 . S
Li355 O414 1.970 . S
Li355 O415 1.956 . S
C356 C358 1.348 . S
C356 C359 1.356 . S
C356 O412 1.325 . S
N357 C360 1.314 . S
N357 C361 1.279 . S
C358 C356 1.348 . S
C358 C360 1.353 . S
C358 H416 0.929 . S
C359 C356 1.356 . S
C359 C361 1.358 . S
C359 H417 0.930 . S
C360 N357 1.314 . S
C360 C358 1.353 . S
C360 H418 0.930 . S
C361 N357 1.279 . S
C361 C359 1.358 . S
C361 H419 0.930 . S
C362 C365 1.348 . S
C362 C366 1.356 . S
C362 O413 1.325 . S
C363 N364 1.279 . S
C363 C366 1.358 . S
C363 H420 0.930 . S
N364 C363 1.279 . S
N364 C367 1.314 . S
C365 C362 1.348 . S
C365 C367 1.353 . S
C365 H421 0.929 . S
C366 C362 1.356 . S
C366 C363 1.358 . S
C366 H422 0.930 . S
C367 N364 1.314 . S
C367 C365 1.353 . S
C367 H423 0.930 . S
C368 N369 1.314 . S
C368 C373 1.353 . S
C368 H374 0.930 . S
N369 Li352 1.990 . S
N369 C368 1.314 . S
N369 C371 1.279 . S
C370 C371 1.358 . S
C370 C372 1.356 . S
C370 H424 0.930 . S
C371 N369 1.279 . S
C371 C370 1.358 . S
C371 H375 0.930 . S
C372 C370 1.356 . S
C372 C373 1.348 . S
C373 C368 1.353 . S
C373 C372 1.348 . S
C373 H425 0.929 . S
H374 C368 0.930 . S
H375 C371 0.930 . S
C376 N377 1.314 . S
C376 C378 1.353 . S
C376 H382 0.930 . S
N377 Li353 1.990 . S
N377 C376 1.314 . S
N377 C380 1.279 . S
C378 C376 1.353 . S
C378 C381 1.348 . S
C378 H426 0.929 . S
C379 C380 1.358 . S
C379 C381 1.356 . S
C379 H427 0.930 . S
C380 N377 1.279 . S
C380 C379 1.358 . S
C380 H383 0.930 . S
C381 C378 1.348 . S
C381 C379 1.356 . S
H382 C376 0.930 . S
H383 C380 0.930 . S
C384 C386 1.348 . S
C384 C387 1.356 . S
C384 O414 1.325 . S
N385 C388 1.314 . S
N385 C389 1.279 . S
C386 C384 1.348 . S
C386 C388 1.353 . S
C386 H428 0.929 . S
C387 C384 1.356 . S
C387 C389 1.358 . S
C387 H429 0.930 . S
C388 N385 1.314 . S
C388 C386 1.353 . S
C388 H430 0.930 . S
C389 N385 1.279 . S
C389 C387 1.358 . S
C389 H431 0.930 . S
C390 C391 1.348 . S
C390 C392 1.356 . S
C390 O415 1.325 . S
C391 C390 1.348 . S
C391 C393 1.353 . S
C391 H432 0.929 . S
C392 C390 1.356 . S
C392 C394 1.358 . S
C392 H433 0.930 . S
C393 C391 1.353 . S
C393 N395 1.314 . S
C393 H434 0.930 . S
C394 C392 1.358 . S
C394 N395 1.279 . S
C394 H435 0.930 . S
N395 C393 1.314 . S
N395 C394 1.279 . S
C396 C398 1.353 . S
C396 N399 1.314 . S
C396 H402 0.930 . S
C397 N399 1.279 . S
C397 C400 1.358 . S
C397 H403 0.930 . S
C398 C396 1.353 . S
C398 C401 1.348 . S
C398 H436 0.929 . S
N399 Li354 1.990 . S
N399 C396 1.314 . S
N399 C397 1.279 . S
C400 C397 1.358 . S
C400 C401 1.356 . S
C400 H437 0.930 . S
C401 C398 1.348 . S
C401 C400 1.356 . S
H402 C396 0.930 . S
H403 C397 0.930 . S
C404 N405 1.314 . S
C404 C406 1.353 . S
C404 H410 0.930 . S
N405 Li355 1.990 . S
N405 C404 1.314 . S
N405 C408 1.279 . S
C406 C404 1.353 . S
C406 C409 1.348 . S
C406 H438 0.929 . S
C407 C408 1.358 . S
C407 C409 1.356 . S
C407 H439 0.930 . S
C408 N405 1.279 . S
C408 C407 1.358 . S
C408 H411 0.930 . S
C409 C406 1.348 . S
C409 C407 1.356 . S
H410 C404 0.930 . S
H411 C408 0.930 . S
O412 Li352 1.956 . S
O412 Li353 1.970 . S
O412 Li354 1.961 . S
O412 C356 1.325 . S
O413 Li352 1.970 . S
O413 Li353 1.956 . S
O413 Li355 1.961 . S
O413 C362 1.325 . S
O414 Li352 1.961 . S
O414 Li354 1.956 . S
O414 Li355 1.970 . S
O414 C384 1.325 . S
O415 Li353 1.961 . S
O415 Li354 1.970 . S
O415 Li355 1.956 . S
O415 C390 1.325 . S
H416 C358 0.929 . S
H417 C359 0.930 . S
H418 C360 0.930 . S
H419 C361 0.930 . S
H420 C363 0.930 . S
H421 C365 0.929 . S
H422 C366 0.930 . S
H423 C367 0.930 . S
H424 C370 0.930 . S
H425 C373 0.929 . S
H426 C378 0.929 . S
H427 C379 0.930 . S
H428 C386 0.929 . S
H429 C387 0.930 . S
H430 C388 0.930 . S
H431 C389 0.930 . S
H432 C391 0.929 . S
H433 C392 0.930 . S
H434 C393 0.930 . S
H435 C394 0.930 . S
H436 C398 0.929 . S
H437 C400 0.930 . S
H438 C406 0.929 . S
H439 C407 0.930 . S
Li440 N457 1.990 . S
Li440 O500 1.956 . S
Li440 O501 1.970 . S
Li440 O502 1.961 . S
Li441 N465 1.990 . S
Li441 O500 1.970 . S
Li441 O501 1.956 . S
Li441 O503 1.961 . S
Li442 N487 1.990 . S
Li442 O500 1.961 . S
Li442 O502 1.956 . S
Li442 O503 1.970 . S
Li443 N493 1.990 . S
Li443 O501 1.961 . S
Li443 O502 1.970 . S
Li443 O503 1.956 . S
C444 C446 1.348 . S
C444 C447 1.356 . S
C444 O500 1.325 . S
N445 C448 1.314 . S
N445 C449 1.279 . S
C446 C444 1.348 . S
C446 C448 1.353 . S
C446 H504 0.929 . S
C447 C444 1.356 . S
C447 C449 1.358 . S
C447 H505 0.930 . S
C448 N445 1.314 . S
C448 C446 1.353 . S
C448 H506 0.930 . S
C449 N445 1.279 . S
C449 C447 1.358 . S
C449 H507 0.930 . S
C450 C453 1.348 . S
C450 C454 1.356 . S
C450 O501 1.325 . S
C451 N452 1.279 . S
C451 C454 1.358 . S
C451 H508 0.930 . S
N452 C451 1.279 . S
N452 C455 1.314 . S
C453 C450 1.348 . S
C453 C455 1.353 . S
C453 H509 0.929 . S
C454 C450 1.356 . S
C454 C451 1.358 . S
C454 H510 0.930 . S
C455 N452 1.314 . S
C455 C453 1.353 . S
C455 H511 0.930 . S
C456 N457 1.314 . S
C456 C461 1.353 . S
C456 H462 0.930 . S
N457 Li440 1.990 . S
N457 C456 1.314 . S
N457 C459 1.279 . S
C458 C459 1.358 . S
C458 C460 1.356 . S
C458 H512 0.930 . S
C459 N457 1.279 . S
C459 C458 1.358 . S
C459 H463 0.930 . S
C460 C458 1.356 . S
C460 C461 1.348 . S
C461 C456 1.353 . S
C461 C460 1.348 . S
C461 H513 0.929 . S
H462 C456 0.930 . S
H463 C459 0.930 . S
C464 N465 1.314 . S
C464 C466 1.353 . S
C464 H470 0.930 . S
N465 Li441 1.990 . S
N465 C464 1.314 . S
N465 C468 1.279 . S
C466 C464 1.353 . S
C466 C469 1.348 . S
C466 H514 0.929 . S
C467 C468 1.358 . S
C467 C469 1.356 . S
C467 H515 0.930 . S
C468 N465 1.279 . S
C468 C467 1.358 . S
C468 H471 0.930 . S
C469 C466 1.348 . S
C469 C467 1.356 . S
H470 C464 0.930 . S
H471 C468 0.930 . S
C472 C474 1.348 . S
C472 C475 1.356 . S
C472 O502 1.325 . S
N473 C476 1.314 . S
N473 C477 1.279 . S
C474 C472 1.348 . S
C474 C476 1.353 . S
C474 H516 0.929 . S
C475 C472 1.356 . S
C475 C477 1.358 . S
C475 H517 0.930 . S
C476 N473 1.314 . S
C476 C474 1.353 . S
C476 H518 0.930 . S
C477 N473 1.279 . S
C477 C475 1.358 . S
C477 H519 0.930 . S
C478 C479 1.348 . S
C478 C480 1.356 . S
C478 O503 1.325 . S
C479 C478 1.348 . S
C479 C481 1.353 . S
C479 H520 0.929 . S
C480 C478 1.356 . S
C480 C482 1.358 . S
C480 H521 0.930 . S
C481 C479 1.353 . S
C481 N483 1.314 . S
C481 H522 0.930 . S
C482 C480 1.358 . S
C482 N483 1.279 . S
C482 H523 0.930 . S
N483 C481 1.314 . S
N483 C482 1.279 . S
C484 C486 1.353 . S
C484 N487 1.314 . S
C484 H490 0.930 . S
C485 N487 1.279 . S
C485 C488 1.358 . S
C485 H491 0.930 . S
C486 C484 1.353 . S
C486 C489 1.348 . S
C486 H524 0.929 . S
N487 Li442 1.990 . S
N487 C484 1.314 . S
N487 C485 1.279 . S
C488 C485 1.358 . S
C488 C489 1.356 . S
C488 H525 0.930 . S
C489 C486 1.348 . S
C489 C488 1.356 . S
H490 C484 0.930 . S
H491 C485 0.930 . S
C492 N493 1.314 . S
C492 C494 1.353 . S
C492 H498 0.930 . S
N493 Li443 1.990 . S
N493 C492 1.314 . S
N493 C496 1.279 . S
C494 C492 1.353 . S
C494 C497 1.348 . S
C494 H526 0.929 . S
C495 C496 1.358 . S
C495 C497 1.356 . S
C495 H527 0.930 . S
C496 N493 1.279 . S
C496 C495 1.358 . S
C496 H499 0.930 . S
C497 C494 1.348 . S
C497 C495 1.356 . S
H498 C492 0.930 . S
H499 C496 0.930 . S
O500 Li440 1.956 . S
O500 Li441 1.970 . S
O500 Li442 1.961 . S
O500 C444 1.325 . S
O501 Li440 1.970 . S
O501 Li441 1.956 . S
O501 Li443 1.961 . S
O501 C450 1.325 . S
O502 Li440 1.961 . S
O502 Li442 1.956 . S
O502 Li443 1.970 . S
O502 C472 1.325 . S
O503 Li441 1.961 . S
O503 Li442 1.970 . S
O503 Li443 1.956 . S
O503 C478 1.325 . S
H504 C446 0.929 . S
H505 C447 0.930 . S
H506 C448 0.930 . S
H507 C449 0.930 . S
H508 C451 0.930 . S
H509 C453 0.929 . S
H510 C454 0.930 . S
H511 C455 0.930 . S
H512 C458 0.930 . S
H513 C461 0.929 . S
H514 C466 0.929 . S
H515 C467 0.930 . S
H516 C474 0.929 . S
H517 C475 0.930 . S
H518 C476 0.930 . S
H519 C477 0.930 . S
H520 C479 0.929 . S
H521 C480 0.930 . S
H522 C481 0.930 . S
H523 C482 0.930 . S
H524 C486 0.929 . S
H525 C488 0.930 . S
H526 C494 0.929 . S
H527 C495 0.930 . S
H528 C546 0.951 . S
H529 C548 0.951 . S
H530 C550 0.950 . S
H531 C551 0.950 . S
H532 C553 0.950 . S
H533 C556 0.950 . S
H534 C557 0.950 . S
H535 C559 0.950 . S
H536 C560 0.950 . S
H537 C561 0.951 . S
H538 C563 0.951 . S
H539 C565 0.950 . S
H540 C566 0.950 . S
H541 C568 0.950 . S
H542 C571 0.950 . S
H543 C572 0.950 . S
H544 C574 0.950 . S
H545 C575 0.950 . S
C546 H528 0.951 . S
C546 C547 1.366 . S
C546 C548 1.388 . S
C547 C546 1.366 . S
C547 C551 1.385 . S
C548 H529 0.951 . S
C548 C546 1.388 . S
C548 C549 1.366 . S
C549 C548 1.366 . S
C549 C550 1.414 . S
C549 C552 1.499 . S
C550 H530 0.950 . S
C550 C549 1.414 . S
C550 C551 1.374 . S
C551 H531 0.950 . S
C551 C547 1.385 . S
C551 C550 1.374 . S
C552 C549 1.499 . S
C552 C553 1.373 . S
C552 C554 1.389 . S
C553 H532 0.950 . S
C553 C552 1.373 . S
C553 C569 1.377 1_545 S
C554 C552 1.389 . S
C554 C555 1.524 . S
C554 C568 1.377 1_545 S
C555 C554 1.524 . S
C555 C556 1.397 . S
C555 C560 1.363 1_545 S
C556 H533 0.950 . S
C556 C555 1.397 . S
C556 C557 1.334 . S
C557 H534 0.950 . S
C557 C556 1.334 . S
C557 C558 1.287 . S
C558 C557 1.287 . S
C558 C559 1.524 1_545 S
C558 H577 0.913 . S
C559 H535 0.950 . S
C559 C558 1.524 1_565 S
C559 C560 1.415 . S
C560 H536 0.950 . S
C560 C555 1.363 1_565 S
C560 C559 1.415 . S
C561 H537 0.951 . S
C561 C562 1.366 . S
C561 C563 1.388 . S
C562 C561 1.366 . S
C562 C566 1.385 . S
C563 H538 0.951 . S
C563 C561 1.388 . S
C563 C564 1.366 . S
C564 C563 1.366 . S
C564 C565 1.414 . S
C564 C567 1.499 . S
C565 H539 0.950 . S
C565 C564 1.414 . S
C565 C566 1.374 . S
C566 H540 0.950 . S
C566 C562 1.385 . S
C566 C565 1.374 . S
C567 C564 1.499 . S
C567 C568 1.373 . S
C567 C569 1.389 . S
C568 H541 0.950 . S
C568 C554 1.377 1_565 S
C568 C567 1.373 . S
C569 C553 1.377 1_565 S
C569 C567 1.389 . S
C569 C570 1.524 . S
C570 C569 1.524 . S
C570 C571 1.397 . S
C570 C575 1.363 1_565 S
C571 H542 0.950 . S
C571 C570 1.397 . S
C571 C572 1.334 . S
C572 H543 0.950 . S
C572 C571 1.334 . S
C572 C573 1.287 . S
C573 C572 1.287 . S
C573 C574 1.524 1_565 S
C573 H576 0.999 . S
C574 H544 0.950 . S
C574 C573 1.524 1_545 S
C574 C575 1.415 . S
C575 H545 0.950 . S
C575 C570 1.363 1_545 S
C575 C574 1.415 . S
H576 C573 0.999 . S
H577 C558 0.913 . S
H578 C596 0.951 . S
H579 C598 0.951 . S
H580 C600 0.950 . S
H581 C601 0.950 . S
H582 C603 0.950 . S
H583 C606 0.950 . S
H584 C607 0.950 . S
H585 C609 0.950 . S
H586 C610 0.950 . S
H587 C611 0.951 . S
H588 C613 0.951 . S
H589 C615 0.950 . S
H590 C616 0.950 . S
H591 C618 0.950 . S
H592 C621 0.950 . S
H593 C622 0.950 . S
H594 C624 0.950 . S
H595 C625 0.950 . S
C596 H578 0.951 . S
C596 C597 1.366 . S
C596 C598 1.388 . S
C597 C596 1.366 . S
C597 C601 1.385 . S
C598 H579 0.951 . S
C598 C596 1.388 . S
C598 C599 1.366 . S
C599 C598 1.366 . S
C599 C600 1.414 . S
C599 C602 1.499 . S
C600 H580 0.950 . S
C600 C599 1.414 . S
C600 C601 1.374 . S
C601 H581 0.950 . S
C601 C597 1.385 . S
C601 C600 1.374 . S
C602 C599 1.499 . S
C602 C603 1.373 . S
C602 C604 1.389 . S
C603 H582 0.950 . S
C603 C602 1.373 . S
C603 C619 1.377 . S
C604 C602 1.389 . S
C604 C605 1.524 . S
C604 C618 1.377 . S
C605 C604 1.524 . S
C605 C606 1.397 . S
C605 C610 1.363 . S
C606 H583 0.950 . S
C606 C605 1.397 . S
C606 C607 1.334 . S
C607 H584 0.950 . S
C607 C606 1.334 . S
C607 C608 1.287 . S
C608 C607 1.287 . S
C608 C609 1.524 . S
C608 H627 0.913 . S
C609 H585 0.950 . S
C609 C608 1.524 . S
C609 C610 1.415 . S
C610 H586 0.950 . S
C610 C605 1.363 . S
C610 C609 1.415 . S
C611 H587 0.951 . S
C611 C612 1.366 . S
C611 C613 1.388 . S
C612 C611 1.366 . S
C612 C616 1.385 . S
C613 H588 0.951 . S
C613 C611 1.388 . S
C613 C614 1.366 . S
C614 C613 1.366 . S
C614 C615 1.414 . S
C614 C617 1.499 . S
C615 H589 0.950 . S
C615 C614 1.414 . S
C615 C616 1.374 . S
C616 H590 0.950 . S
C616 C612 1.385 . S
C616 C615 1.374 . S
C617 C614 1.499 . S
C617 C618 1.373 . S
C617 C619 1.389 . S
C618 H591 0.950 . S
C618 C604 1.377 . S
C618 C617 1.373 . S
C619 C603 1.377 . S
C619 C617 1.389 . S
C619 C620 1.524 . S
C620 C619 1.524 . S
C620 C621 1.397 . S
C620 C625 1.363 . S
C621 H592 0.950 . S
C621 C620 1.397 . S
C621 C622 1.334 . S
C622 H593 0.950 . S
C622 C621 1.334 . S
C622 C623 1.287 . S
C623 C622 1.287 . S
C623 C624 1.524 . S
C623 H626 0.999 . S
C624 H594 0.950 . S
C624 C623 1.524 . S
C624 C625 1.415 . S
C625 H595 0.950 . S
C625 C620 1.363 . S
C625 C624 1.415 . S
H626 C623 0.999 . S
H627 C608 0.913 . S
H628 C646 0.951 . S
H629 C648 0.951 . S
H630 C650 0.950 . S
H631 C651 0.950 . S
H632 C653 0.950 . S
H633 C656 0.950 . S
H634 C657 0.950 . S
H635 C659 0.950 . S
H636 C660 0.950 . S
H637 C661 0.951 . S
H638 C663 0.951 . S
H639 C665 0.950 . S
H640 C666 0.950 . S
H641 C668 0.950 . S
H642 C671 0.950 . S
H643 C672 0.950 . S
H644 C674 0.950 . S
H645 C675 0.950 . S
C646 H628 0.951 . S
C646 C647 1.366 . S
C646 C648 1.388 . S
C647 C646 1.366 . S
C647 C651 1.385 . S
C648 H629 0.951 . S
C648 C646 1.388 . S
C648 C649 1.366 . S
C649 C648 1.366 . S
C649 C650 1.414 . S
C649 C652 1.499 . S
C650 H630 0.950 . S
C650 C649 1.414 . S
C650 C651 1.374 . S
C651 H631 0.950 . S
C651 C647 1.385 . S
C651 C650 1.374 . S
C652 C649 1.499 . S
C652 C653 1.373 . S
C652 C654 1.389 . S
C653 H632 0.950 . S
C653 C652 1.373 . S
C653 C669 1.377 1_655 S
C654 C652 1.389 . S
C654 C655 1.524 . S
C654 C668 1.377 1_655 S
C655 C654 1.524 . S
C655 C656 1.397 . S
C655 C660 1.363 1_655 S
C656 H633 0.950 . S
C656 C655 1.397 . S
C656 C657 1.334 . S
C657 H634 0.950 . S
C657 C656 1.334 . S
C657 C658 1.287 . S
C658 C657 1.287 . S
C658 C659 1.524 1_655 S
C658 H677 0.913 . S
C659 H635 0.950 . S
C659 C658 1.524 1_455 S
C659 C660 1.415 . S
C660 H636 0.950 . S
C660 C655 1.363 1_455 S
C660 C659 1.415 . S
C661 H637 0.951 . S
C661 C662 1.366 . S
C661 C663 1.388 . S
C662 C661 1.366 . S
C662 C666 1.385 . S
C663 H638 0.951 . S
C663 C661 1.388 . S
C663 C664 1.366 . S
C664 C663 1.366 . S
C664 C665 1.414 . S
C664 C667 1.499 . S
C665 H639 0.950 . S
C665 C664 1.414 . S
C665 C666 1.374 . S
C666 H640 0.950 . S
C666 C662 1.385 . S
C666 C665 1.374 . S
C667 C664 1.499 . S
C667 C668 1.373 . S
C667 C669 1.389 . S
C668 H641 0.950 . S
C668 C654 1.377 1_455 S
C668 C667 1.373 . S
C669 C653 1.377 1_455 S
C669 C667 1.389 . S
C669 C670 1.524 . S
C670 C669 1.524 . S
C670 C671 1.397 . S
C670 C675 1.363 1_455 S
C671 H642 0.950 . S
C671 C670 1.397 . S
C671 C672 1.334 . S
C672 H643 0.950 . S
C672 C671 1.334 . S
C672 C673 1.287 . S
C673 C672 1.287 . S
C673 C674 1.524 1_455 S
C673 H676 0.999 . S
C674 H644 0.950 . S
C674 C673 1.524 1_655 S
C674 C675 1.415 . S
C675 H645 0.950 . S
C675 C670 1.363 1_655 S
C675 C674 1.415 . S
H676 C673 0.999 . S
H677 C658 0.913 . S
H678 C696 0.951 . S
H679 C698 0.951 1_556 S
H680 C700 0.950 . S
H681 C701 0.950 . S
H682 C703 0.950 . S
H683 C706 0.950 . S
H684 C707 0.950 . S
H685 C709 0.950 1_556 S
H686 C710 0.950 . S
H687 C711 0.951 . S
H688 C713 0.951 1_554 S
H689 C715 0.950 . S
H690 C716 0.950 . S
H691 C718 0.950 . S
H692 C721 0.950 . S
H693 C722 0.950 . S
H694 C724 0.950 1_554 S
H695 C725 0.950 . S
C696 H678 0.951 . S
C696 C697 1.366 . S
C696 C698 1.388 . S
C697 C696 1.366 . S
C697 C701 1.385 . S
C698 H679 0.951 1_554 S
C698 C696 1.388 . S
C698 C699 1.366 . S
C699 C698 1.366 . S
C699 C700 1.414 . S
C699 C702 1.499 . S
C700 H680 0.950 . S
C700 C699 1.414 . S
C700 C701 1.374 . S
C701 H681 0.950 . S
C701 C697 1.385 . S
C701 C700 1.374 . S
C702 C699 1.499 . S
C702 C703 1.373 . S
C702 C704 1.389 . S
C703 H682 0.950 . S
C703 C702 1.373 . S
C703 C719 1.377 1_564 S
C704 C702 1.389 . S
C704 C705 1.524 . S
C704 C718 1.377 1_564 S
C705 C704 1.524 . S
C705 C706 1.397 . S
C705 C710 1.363 1_554 S
C706 H683 0.950 . S
C706 C705 1.397 . S
C706 C707 1.334 . S
C707 H684 0.950 . S
C707 C706 1.334 . S
C707 C708 1.287 . S
C708 C707 1.287 . S
C708 C709 1.524 . S
C708 H727 0.913 . S
C709 H685 0.950 1_554 S
C709 C708 1.524 . S
C709 C710 1.415 1_554 S
C710 H686 0.950 . S
C710 C705 1.363 1_556 S
C710 C709 1.415 1_556 S
C711 H687 0.951 . S
C711 C712 1.366 . S
C711 C713 1.388 . S
C712 C711 1.366 . S
C712 C716 1.385 . S
C713 H688 0.951 1_556 S
C713 C711 1.388 . S
C713 C714 1.366 . S
C714 C713 1.366 . S
C714 C715 1.414 . S
C714 C717 1.499 . S
C715 H689 0.950 . S
C715 C714 1.414 . S
C715 C716 1.374 . S
C716 H690 0.950 . S
C716 C712 1.385 . S
C716 C715 1.374 . S
C717 C714 1.499 . S
C717 C718 1.373 . S
C717 C719 1.389 . S
C718 H691 0.950 . S
C718 C704 1.377 1_546 S
C718 C717 1.373 . S
C719 C703 1.377 1_546 S
C719 C717 1.389 . S
C719 C720 1.524 . S
C720 C719 1.524 . S
C720 C721 1.397 . S
C720 C725 1.363 1_556 S
C721 H692 0.950 . S
C721 C720 1.397 . S
C721 C722 1.334 . S
C722 H693 0.950 . S
C722 C721 1.334 . S
C722 C723 1.287 . S
C723 C722 1.287 . S
C723 C724 1.524 . S
C723 H726 0.999 . S
C724 H694 0.950 1_556 S
C724 C723 1.524 . S
C724 C725 1.415 1_556 S
C725 H695 0.950 . S
C725 C720 1.363 1_554 S
C725 C724 1.415 1_554 S
H726 C723 0.999 . S
H727 C708 0.913 . S
H728 C746 0.951 . S
H729 C748 0.951 . S
H730 C750 0.950 . S
H731 C751 0.950 . S
H732 C753 0.950 . S
H733 C756 0.950 . S
H734 C757 0.950 . S
H735 C759 0.950 . S
H736 C760 0.950 . S
H737 C761 0.951 . S
H738 C763 0.951 . S
H739 C765 0.950 . S
H740 C766 0.950 . S
H741 C768 0.950 . S
H742 C771 0.950 . S
H743 C772 0.950 . S
H744 C774 0.950 . S
H745 C775 0.950 . S
C746 H728 0.951 . S
C746 C747 1.366 . S
C746 C748 1.388 . S
C747 C746 1.366 . S
C747 C751 1.385 . S
C748 H729 0.951 . S
C748 C746 1.388 . S
C748 C749 1.366 . S
C749 C748 1.366 . S
C749 C750 1.414 . S
C749 C752 1.499 . S
C750 H730 0.950 . S
C750 C749 1.414 . S
C750 C751 1.374 . S
C751 H731 0.950 . S
C751 C747 1.385 . S
C751 C750 1.374 . S
C752 C749 1.499 . S
C752 C753 1.373 . S
C752 C754 1.389 . S
C753 H732 0.950 . S
C753 C752 1.373 . S
C753 C769 1.377 . S
C754 C752 1.389 . S
C754 C755 1.524 . S
C754 C768 1.377 . S
C755 C754 1.524 . S
C755 C756 1.397 . S
C755 C760 1.363 . S
C756 H733 0.950 . S
C756 C755 1.397 . S
C756 C757 1.334 . S
C757 H734 0.950 . S
C757 C756 1.334 . S
C757 C758 1.287 . S
C758 C757 1.287 . S
C758 C759 1.524 . S
C758 H777 0.913 . S
C759 H735 0.950 . S
C759 C758 1.524 . S
C759 C760 1.415 . S
C760 H736 0.950 . S
C760 C755 1.363 . S
C760 C759 1.415 . S
C761 H737 0.951 . S
C761 C762 1.366 . S
C761 C763 1.388 . S
C762 C761 1.366 . S
C762 C766 1.385 . S
C763 H738 0.951 . S
C763 C761 1.388 . S
C763 C764 1.366 . S
C764 C763 1.366 . S
C764 C765 1.414 . S
C764 C767 1.499 . S
C765 H739 0.950 . S
C765 C764 1.414 . S
C765 C766 1.374 . S
C766 H740 0.950 . S
C766 C762 1.385 . S
C766 C765 1.374 . S
C767 C764 1.499 . S
C767 C768 1.373 . S
C767 C769 1.389 . S
C768 H741 0.950 . S
C768 C754 1.377 . S
C768 C767 1.373 . S
C769 C753 1.377 . S
C769 C767 1.389 . S
C769 C770 1.524 . S
C770 C769 1.524 . S
C770 C771 1.397 . S
C770 C775 1.363 . S
C771 H742 0.950 . S
C771 C770 1.397 . S
C771 C772 1.334 . S
C772 H743 0.950 . S
C772 C771 1.334 . S
C772 C773 1.287 . S
C773 C772 1.287 . S
C773 C774 1.524 . S
C773 H776 0.999 . S
C774 H744 0.950 . S
C774 C773 1.524 . S
C774 C775 1.415 . S
C775 H745 0.950 . S
C775 C770 1.363 . S
C775 C774 1.415 . S
H776 C773 0.999 . S
H777 C758 0.913 . S
H778 C796 0.951 . S
H779 C798 0.951 . S
H780 C800 0.950 . S
H781 C801 0.950 . S
H782 C803 0.950 . S
H783 C806 0.950 . S
H784 C807 0.950 . S
H785 C809 0.950 . S
H786 C810 0.950 . S
H787 C811 0.951 . S
H788 C813 0.951 . S
H789 C815 0.950 . S
H790 C816 0.950 . S
H791 C818 0.950 . S
H792 C821 0.950 . S
H793 C822 0.950 . S
H794 C824 0.950 . S
H795 C825 0.950 . S
C796 H778 0.951 . S
C796 C797 1.366 . S
C796 C798 1.388 . S
C797 C796 1.366 . S
C797 C801 1.385 . S
C798 H779 0.951 . S
C798 C796 1.388 . S
C798 C799 1.366 . S
C799 C798 1.366 . S
C799 C800 1.414 . S
C799 C802 1.499 . S
C800 H780 0.950 . S
C800 C799 1.414 . S
C800 C801 1.374 . S
C801 H781 0.950 . S
C801 C797 1.385 . S
C801 C800 1.374 . S
C802 C799 1.499 . S
C802 C803 1.373 . S
C802 C804 1.389 . S
C803 H782 0.950 . S
C803 C802 1.373 . S
C803 C819 1.377 1_455 S
C804 C802 1.389 . S
C804 C805 1.524 . S
C804 C818 1.377 1_455 S
C805 C804 1.524 . S
C805 C806 1.397 . S
C805 C810 1.363 1_455 S
C806 H783 0.950 . S
C806 C805 1.397 . S
C806 C807 1.334 . S
C807 H784 0.950 . S
C807 C806 1.334 . S
C807 C808 1.287 . S
C808 C807 1.287 . S
C808 C809 1.524 1_455 S
C808 H827 0.913 . S
C809 H785 0.950 . S
C809 C808 1.524 1_655 S
C809 C810 1.415 . S
C810 H786 0.950 . S
C810 C805 1.363 1_655 S
C810 C809 1.415 . S
C811 H787 0.951 . S
C811 C812 1.366 . S
C811 C813 1.388 . S
C812 C811 1.366 . S
C812 C816 1.385 . S
C813 H788 0.951 . S
C813 C811 1.388 . S
C813 C814 1.366 . S
C814 C813 1.366 . S
C814 C815 1.414 . S
C814 C817 1.499 . S
C815 H789 0.950 . S
C815 C814 1.414 . S
C815 C816 1.374 . S
C816 H790 0.950 . S
C816 C812 1.385 . S
C816 C815 1.374 . S
C817 C814 1.499 . S
C817 C818 1.373 . S
C817 C819 1.389 . S
C818 H791 0.950 . S
C818 C804 1.377 1_655 S
C818 C817 1.373 . S
C819 C803 1.377 1_655 S
C819 C817 1.389 . S
C819 C820 1.524 . S
C820 C819 1.524 . S
C820 C821 1.397 . S
C820 C825 1.363 1_655 S
C821 H792 0.950 . S
C821 C820 1.397 . S
C821 C822 1.334 . S
C822 H793 0.950 . S
C822 C821 1.334 . S
C822 C823 1.287 . S
C823 C822 1.287 . S
C823 C824 1.524 1_655 S
C823 H826 0.999 . S
C824 H794 0.950 . S
C824 C823 1.524 1_455 S
C824 C825 1.415 . S
C825 H795 0.950 . S
C825 C820 1.363 1_455 S
C825 C824 1.415 . S
H826 C823 0.999 . S
H827 C808 0.913 . S
H828 C846 0.951 . S
H829 C848 0.951 . S
H830 C850 0.950 . S
H831 C851 0.950 . S
H832 C853 0.950 . S
H833 C856 0.950 . S
H834 C857 0.950 . S
H835 C859 0.950 . S
H836 C860 0.950 . S
H837 C861 0.951 . S
H838 C863 0.951 . S
H839 C865 0.950 . S
H840 C866 0.950 . S
H841 C868 0.950 . S
H842 C871 0.950 . S
H843 C872 0.950 . S
H844 C874 0.950 . S
H845 C875 0.950 . S
C846 H828 0.951 . S
C846 C847 1.366 . S
C846 C848 1.388 . S
C847 C846 1.366 . S
C847 C851 1.385 . S
C848 H829 0.951 . S
C848 C846 1.388 . S
C848 C849 1.366 . S
C849 C848 1.366 . S
C849 C850 1.414 . S
C849 C852 1.499 . S
C850 H830 0.950 . S
C850 C849 1.414 . S
C850 C851 1.374 . S
C851 H831 0.950 . S
C851 C847 1.385 . S
C851 C850 1.374 . S
C852 C849 1.499 . S
C852 C853 1.373 . S
C852 C854 1.389 . S
C853 H832 0.950 . S
C853 C852 1.373 . S
C853 C869 1.377 . S
C854 C852 1.389 . S
C854 C855 1.524 . S
C854 C868 1.377 . S
C855 C854 1.524 . S
C855 C856 1.397 . S
C855 C860 1.363 . S
C856 H833 0.950 . S
C856 C855 1.397 . S
C856 C857 1.334 . S
C857 H834 0.950 . S
C857 C856 1.334 . S
C857 C858 1.287 . S
C858 C857 1.287 . S
C858 C859 1.524 . S
C858 H877 0.913 . S
C859 H835 0.950 . S
C859 C858 1.524 . S
C859 C860 1.415 . S
C860 H836 0.950 . S
C860 C855 1.363 . S
C860 C859 1.415 . S
C861 H837 0.951 . S
C861 C862 1.366 . S
C861 C863 1.388 . S
C862 C861 1.366 . S
C862 C866 1.385 . S
C863 H838 0.951 . S
C863 C861 1.388 . S
C863 C864 1.366 . S
C864 C863 1.366 . S
C864 C865 1.414 . S
C864 C867 1.499 . S
C865 H839 0.950 . S
C865 C864 1.414 . S
C865 C866 1.374 . S
C866 H840 0.950 . S
C866 C862 1.385 . S
C866 C865 1.374 . S
C867 C864 1.499 . S
C867 C868 1.373 . S
C867 C869 1.389 . S
C868 H841 0.950 . S
C868 C854 1.377 . S
C868 C867 1.373 . S
C869 C853 1.377 . S
C869 C867 1.389 . S
C869 C870 1.524 . S
C870 C869 1.524 . S
C870 C871 1.397 . S
C870 C875 1.363 . S
C871 H842 0.950 . S
C871 C870 1.397 . S
C871 C872 1.334 . S
C872 H843 0.950 . S
C872 C871 1.334 . S
C872 C873 1.287 . S
C873 C872 1.287 . S
C873 C874 1.524 . S
C873 H876 0.999 . S
C874 H844 0.950 . S
C874 C873 1.524 . S
C874 C875 1.415 . S
C875 H845 0.950 . S
C875 C870 1.363 . S
C875 C874 1.415 . S
H876 C873 0.999 . S
H877 C858 0.913 . S
H878 C896 0.951 . S
H879 C898 0.951 . S
H880 C900 0.950 . S
H881 C901 0.950 . S
H882 C903 0.950 . S
H883 C906 0.950 . S
H884 C907 0.950 . S
H885 C909 0.950 . S
H886 C910 0.950 . S
H887 C911 0.951 . S
H888 C913 0.951 . S
H889 C915 0.950 . S
H890 C916 0.950 . S
H891 C918 0.950 . S
H892 C921 0.950 . S
H893 C922 0.950 . S
H894 C924 0.950 . S
H895 C925 0.950 . S
C896 H878 0.951 . S
C896 C897 1.366 . S
C896 C898 1.388 . S
C897 C896 1.366 . S
C897 C901 1.385 . S
C898 H879 0.951 . S
C898 C896 1.388 . S
C898 C899 1.366 . S
C899 C898 1.366 . S
C899 C900 1.414 . S
C899 C902 1.499 . S
C900 H880 0.950 . S
C900 C899 1.414 . S
C900 C901 1.374 . S
C901 H881 0.950 . S
C901 C897 1.385 . S
C901 C900 1.374 . S
C902 C899 1.499 . S
C902 C903 1.373 . S
C902 C904 1.389 . S
C903 H882 0.950 . S
C903 C902 1.373 . S
C903 C919 1.377 . S
C904 C902 1.389 . S
C904 C905 1.524 . S
C904 C918 1.377 . S
C905 C904 1.524 . S
C905 C906 1.397 . S
C905 C910 1.363 . S
C906 H883 0.950 . S
C906 C905 1.397 . S
C906 C907 1.334 . S
C907 H884 0.950 . S
C907 C906 1.334 . S
C907 C908 1.287 . S
C908 C907 1.287 . S
C908 C909 1.524 . S
C908 H927 0.913 . S
C909 H885 0.950 . S
C909 C908 1.524 . S
C909 C910 1.415 . S
C910 H886 0.950 . S
C910 C905 1.363 . S
C910 C909 1.415 . S
C911 H887 0.951 . S
C911 C912 1.366 . S
C911 C913 1.388 . S
C912 C911 1.366 . S
C912 C916 1.385 . S
C913 H888 0.951 . S
C913 C911 1.388 . S
C913 C914 1.366 . S
C914 C913 1.366 . S
C914 C915 1.414 . S
C914 C917 1.499 . S
C915 H889 0.950 . S
C915 C914 1.414 . S
C915 C916 1.374 . S
C916 H890 0.950 . S
C916 C912 1.385 . S
C916 C915 1.374 . S
C917 C914 1.499 . S
C917 C918 1.373 . S
C917 C919 1.389 . S
C918 H891 0.950 . S
C918 C904 1.377 . S
C918 C917 1.373 . S
C919 C903 1.377 . S
C919 C917 1.389 . S
C919 C920 1.524 . S
C920 C919 1.524 . S
C920 C921 1.397 . S
C920 C925 1.363 . S
C921 H892 0.950 . S
C921 C920 1.397 . S
C921 C922 1.334 . S
C922 H893 0.950 . S
C922 C921 1.334 . S
C922 C923 1.287 . S
C923 C922 1.287 . S
C923 C924 1.524 . S
C923 H926 0.999 . S
C924 H894 0.950 . S
C924 C923 1.524 . S
C924 C925 1.415 . S
C925 H895 0.950 . S
C925 C920 1.363 . S
C925 C924 1.415 . S
H926 C923 0.999 . S
H927 C908 0.913 . S
H928 C946 0.951 . S
H929 C948 0.951 . S
H930 C950 0.950 . S
H931 C951 0.950 . S
H932 C953 0.950 . S
H933 C956 0.950 . S
H934 C957 0.950 . S
H935 C959 0.950 . S
H936 C960 0.950 . S
H937 C961 0.951 . S
H938 C963 0.951 . S
H939 C965 0.950 . S
H940 C966 0.950 . S
H941 C968 0.950 . S
H942 C971 0.950 . S
H943 C972 0.950 . S
H944 C974 0.950 . S
H945 C975 0.950 . S
C946 H928 0.951 . S
C946 C947 1.366 . S
C946 C948 1.388 . S
C947 C946 1.366 . S
C947 C951 1.385 . S
C948 H929 0.951 . S
C948 C946 1.388 . S
C948 C949 1.366 . S
C949 C948 1.366 . S
C949 C950 1.414 . S
C949 C952 1.499 . S
C950 H930 0.950 . S
C950 C949 1.414 . S
C950 C951 1.374 . S
C951 H931 0.950 . S
C951 C947 1.385 . S
C951 C950 1.374 . S
C952 C949 1.499 . S
C952 C953 1.373 . S
C952 C954 1.389 . S
C953 H932 0.950 . S
C953 C952 1.373 . S
C953 C969 1.377 . S
C954 C952 1.389 . S
C954 C955 1.524 . S
C954 C968 1.377 . S
C955 C954 1.524 . S
C955 C956 1.397 . S
C955 C960 1.363 . S
C956 H933 0.950 . S
C956 C955 1.397 . S
C956 C957 1.334 . S
C957 H934 0.950 . S
C957 C956 1.334 . S
C957 C958 1.287 . S
C958 C957 1.287 . S
C958 C959 1.524 . S
C958 H977 0.913 . S
C959 H935 0.950 . S
C959 C958 1.524 . S
C959 C960 1.415 . S
C960 H936 0.950 . S
C960 C955 1.363 . S
C960 C959 1.415 . S
C961 H937 0.951 . S
C961 C962 1.366 . S
C961 C963 1.388 . S
C962 C961 1.366 . S
C962 C966 1.385 . S
C963 H938 0.951 . S
C963 C961 1.388 . S
C963 C964 1.366 . S
C964 C963 1.366 . S
C964 C965 1.414 . S
C964 C967 1.499 . S
C965 H939 0.950 . S
C965 C964 1.414 . S
C965 C966 1.374 . S
C966 H940 0.950 . S
C966 C962 1.385 . S
C966 C965 1.374 . S
C967 C964 1.499 . S
C967 C968 1.373 . S
C967 C969 1.389 . S
C968 H941 0.950 . S
C968 C954 1.377 . S
C968 C967 1.373 . S
C969 C953 1.377 . S
C969 C967 1.389 . S
C969 C970 1.524 . S
C970 C969 1.524 . S
C970 C971 1.397 . S
C970 C975 1.363 . S
C971 H942 0.950 . S
C971 C970 1.397 . S
C971 C972 1.334 . S
C972 H943 0.950 . S
C972 C971 1.334 . S
C972 C973 1.287 . S
C973 C972 1.287 . S
C973 C974 1.524 . S
C973 H976 0.999 . S
C974 H944 0.950 . S
C974 C973 1.524 . S
C974 C975 1.415 . S
C975 H945 0.950 . S
C975 C970 1.363 . S
C975 C974 1.415 . S
H976 C973 0.999 . S
H977 C958 0.913 . S
H978 C996 0.951 . S
H979 C998 0.951 . S
H980 C1000 0.950 . S
H981 C1001 0.950 . S
H982 C1003 0.950 . S
H983 C1006 0.950 . S
H984 C1007 0.950 . S
H985 C1009 0.950 . S
H986 C1010 0.950 . S
H987 C1011 0.951 . S
H988 C1013 0.951 . S
H989 C1015 0.950 . S
H990 C1016 0.950 1_554 S
H991 C1018 0.950 . S
H992 C1021 0.950 . S
H993 C1022 0.950 . S
H994 C1024 0.950 . S
H995 C1025 0.950 . S
C996 H978 0.951 . S
C996 C997 1.366 . S
C996 C998 1.388 . S
C997 C996 1.366 . S
C997 C1001 1.385 . S
C998 H979 0.951 . S
C998 C996 1.388 . S
C998 C999 1.366 . S
C999 C998 1.366 . S
C999 C1000 1.414 . S
C999 C1002 1.499 . S
C1000 H980 0.950 . S
C1000 C999 1.414 . S
C1000 C1001 1.374 . S
C1001 H981 0.950 . S
C1001 C997 1.385 . S
C1001 C1000 1.374 . S
C1002 C999 1.499 . S
C1002 C1003 1.373 . S
C1002 C1004 1.389 . S
C1003 H982 0.950 . S
C1003 C1002 1.373 . S
C1003 C1019 1.377 . S
C1004 C1002 1.389 . S
C1004 C1005 1.524 . S
C1004 C1018 1.377 . S
C1005 C1004 1.524 . S
C1005 C1006 1.397 . S
C1005 C1010 1.363 . S
C1006 H983 0.950 . S
C1006 C1005 1.397 . S
C1006 C1007 1.334 . S
C1007 H984 0.950 . S
C1007 C1006 1.334 . S
C1007 C1008 1.287 . S
C1008 C1007 1.287 . S
C1008 C1009 1.524 . S
C1008 H1027 0.913 . S
C1009 H985 0.950 . S
C1009 C1008 1.524 . S
C1009 C1010 1.415 . S
C1010 H986 0.950 . S
C1010 C1005 1.363 . S
C1010 C1009 1.415 . S
C1011 H987 0.951 . S
C1011 C1012 1.366 . S
C1011 C1013 1.388 . S
C1012 C1011 1.366 . S
C1012 C1016 1.385 . S
C1013 H988 0.951 . S
C1013 C1011 1.388 . S
C1013 C1014 1.366 . S
C1014 C1013 1.366 . S
C1014 C1015 1.414 . S
C1014 C1017 1.499 . S
C1015 H989 0.950 . S
C1015 C1014 1.414 . S
C1015 C1016 1.374 . S
C1016 H990 0.950 1_556 S
C1016 C1012 1.385 . S
C1016 C1015 1.374 . S
C1017 C1014 1.499 . S
C1017 C1018 1.373 . S
C1017 C1019 1.389 . S
C1018 H991 0.950 . S
C1018 C1004 1.377 . S
C1018 C1017 1.373 . S
C1019 C1003 1.377 . S
C1019 C1017 1.389 . S
C1019 C1020 1.524 . S
C1020 C1019 1.524 . S
C1020 C1021 1.397 . S
C1020 C1025 1.363 . S
C1021 H992 0.950 . S
C1021 C1020 1.397 . S
C1021 C1022 1.334 . S
C1022 H993 0.950 . S
C1022 C1021 1.334 . S
C1022 C1023 1.287 . S
C1023 C1022 1.287 . S
C1023 C1024 1.524 . S
C1023 H1026 0.999 . S
C1024 H994 0.950 . S
C1024 C1023 1.524 . S
C1024 C1025 1.415 . S
C1025 H995 0.950 . S
C1025 C1020 1.363 . S
C1025 C1024 1.415 . S
H1026 C1023 0.999 . S
H1027 C1008 0.913 . S
H1028 C1046 0.951 . S
H1029 C1048 0.951 . S
H1030 C1050 0.950 . S
H1031 C1051 0.950 1_556 S
H1032 C1053 0.950 . S
H1033 C1056 0.950 . S
H1034 C1057 0.950 . S
H1035 C1059 0.950 . S
H1036 C1060 0.950 . S
H1037 C1061 0.951 . S
H1038 C1063 0.951 . S
H1039 C1065 0.950 . S
H1040 C1066 0.950 . S
H1041 C1068 0.950 . S
H1042 C1071 0.950 . S
H1043 C1072 0.950 . S
H1044 C1074 0.950 . S
H1045 C1075 0.950 . S
C1046 H1028 0.951 . S
C1046 C1047 1.366 . S
C1046 C1048 1.388 . S
C1047 C1046 1.366 . S
C1047 C1051 1.385 . S
C1048 H1029 0.951 . S
C1048 C1046 1.388 . S
C1048 C1049 1.366 . S
C1049 C1048 1.366 . S
C1049 C1050 1.414 . S
C1049 C1052 1.499 . S
C1050 H1030 0.950 . S
C1050 C1049 1.414 . S
C1050 C1051 1.374 . S
C1051 H1031 0.950 1_554 S
C1051 C1047 1.385 . S
C1051 C1050 1.374 . S
C1052 C1049 1.499 . S
C1052 C1053 1.373 . S
C1052 C1054 1.389 . S
C1053 H1032 0.950 . S
C1053 C1052 1.373 . S
C1053 C1069 1.377 . S
C1054 C1052 1.389 . S
C1054 C1055 1.524 . S
C1054 C1068 1.377 . S
C1055 C1054 1.524 . S
C1055 C1056 1.397 . S
C1055 C1060 1.363 . S
C1056 H1033 0.950 . S
C1056 C1055 1.397 . S
C1056 C1057 1.334 . S
C1057 H1034 0.950 . S
C1057 C1056 1.334 . S
C1057 C1058 1.287 . S
C1058 C1057 1.287 . S
C1058 C1059 1.524 . S
C1058 H1077 0.913 . S
C1059 H1035 0.950 . S
C1059 C1058 1.524 . S
C1059 C1060 1.415 . S
C1060 H1036 0.950 . S
C1060 C1055 1.363 . S
C1060 C1059 1.415 . S
C1061 H1037 0.951 . S
C1061 C1062 1.366 . S
C1061 C1063 1.388 . S
C1062 C1061 1.366 . S
C1062 C1066 1.385 . S
C1063 H1038 0.951 . S
C1063 C1061 1.388 . S
C1063 C1064 1.366 . S
C1064 C1063 1.366 . S
C1064 C1065 1.414 . S
C1064 C1067 1.499 . S
C1065 H1039 0.950 . S
C1065 C1064 1.414 . S
C1065 C1066 1.374 . S
C1066 H1040 0.950 . S
C1066 C1062 1.385 . S
C1066 C1065 1.374 . S
C1067 C1064 1.499 . S
C1067 C1068 1.373 . S
C1067 C1069 1.389 . S
C1068 H1041 0.950 . S
C1068 C1054 1.377 . S
C1068 C1067 1.373 . S
C1069 C1053 1.377 . S
C1069 C1067 1.389 . S
C1069 C1070 1.524 . S
C1070 C1069 1.524 . S
C1070 C1071 1.397 . S
C1070 C1075 1.363 . S
C1071 H1042 0.950 . S
C1071 C1070 1.397 . S
C1071 C1072 1.334 . S
C1072 H1043 0.950 . S
C1072 C1071 1.334 . S
C1072 C1073 1.287 . S
C1073 C1072 1.287 . S
C1073 C1074 1.524 . S
C1073 H1076 0.999 . S
C1074 H1044 0.950 . S
C1074 C1073 1.524 . S
C1074 C1075 1.415 . S
C1075 H1045 0.950 . S
C1075 C1070 1.363 . S
C1075 C1074 1.415 . S
H1076 C1073 0.999 . S
H1077 C1058 0.913 . S
H1078 C1096 0.951 . S
H1079 C1098 0.951 . S
H1080 C1100 0.950 . S
H1081 C1101 0.950 . S
H1082 C1103 0.950 . S
H1083 C1106 0.950 . S
H1084 C1107 0.950 . S
H1085 C1109 0.950 . S
H1086 C1110 0.950 . S
H1087 C1111 0.951 . S
H1088 C1113 0.951 . S
H1089 C1115 0.950 . S
H1090 C1116 0.950 . S
H1091 C1118 0.950 . S
H1092 C1121 0.950 . S
H1093 C1122 0.950 . S
H1094 C1124 0.950 . S
H1095 C1125 0.950 . S
C1096 H1078 0.951 . S
C1096 C1097 1.366 . S
C1096 C1098 1.388 . S
C1097 C1096 1.366 . S
C1097 C1101 1.385 . S
C1098 H1079 0.951 . S
C1098 C1096 1.388 . S
C1098 C1099 1.366 . S
C1099 C1098 1.366 . S
C1099 C1100 1.414 . S
C1099 C1102 1.499 . S
C1100 H1080 0.950 . S
C1100 C1099 1.414 . S
C1100 C1101 1.374 . S
C1101 H1081 0.950 . S
C1101 C1097 1.385 . S
C1101 C1100 1.374 . S
C1102 C1099 1.499 . S
C1102 C1103 1.373 . S
C1102 C1104 1.389 . S
C1103 H1082 0.950 . S
C1103 C1102 1.373 . S
C1103 C1119 1.377 . S
C1104 C1102 1.389 . S
C1104 C1105 1.524 . S
C1104 C1118 1.377 . S
C1105 C1104 1.524 . S
C1105 C1106 1.397 . S
C1105 C1110 1.363 . S
C1106 H1083 0.950 . S
C1106 C1105 1.397 . S
C1106 C1107 1.334 . S
C1107 H1084 0.950 . S
C1107 C1106 1.334 . S
C1107 C1108 1.287 . S
C1108 C1107 1.287 . S
C1108 C1109 1.524 . S
C1108 H1127 0.913 . S
C1109 H1085 0.950 . S
C1109 C1108 1.524 . S
C1109 C1110 1.415 . S
C1110 H1086 0.950 . S
C1110 C1105 1.363 . S
C1110 C1109 1.415 . S
C1111 H1087 0.951 . S
C1111 C1112 1.366 . S
C1111 C1113 1.388 . S
C1112 C1111 1.366 . S
C1112 C1116 1.385 . S
C1113 H1088 0.951 . S
C1113 C1111 1.388 . S
C1113 C1114 1.366 . S
C1114 C1113 1.366 . S
C1114 C1115 1.414 . S
C1114 C1117 1.499 . S
C1115 H1089 0.950 . S
C1115 C1114 1.414 . S
C1115 C1116 1.374 . S
C1116 H1090 0.950 . S
C1116 C1112 1.385 . S
C1116 C1115 1.374 . S
C1117 C1114 1.499 . S
C1117 C1118 1.373 . S
C1117 C1119 1.389 . S
C1118 H1091 0.950 . S
C1118 C1104 1.377 . S
C1118 C1117 1.373 . S
C1119 C1103 1.377 . S
C1119 C1117 1.389 . S
C1119 C1120 1.524 . S
C1120 C1119 1.524 . S
C1120 C1121 1.397 . S
C1120 C1125 1.363 . S
C1121 H1092 0.950 . S
C1121 C1120 1.397 . S
C1121 C1122 1.334 . S
C1122 H1093 0.950 . S
C1122 C1121 1.334 . S
C1122 C1123 1.287 . S
C1123 C1122 1.287 . S
C1123 C1124 1.524 . S
C1123 H1126 0.999 . S
C1124 H1094 0.950 . S
C1124 C1123 1.524 . S
C1124 C1125 1.415 . S
C1125 H1095 0.950 . S
C1125 C1120 1.363 . S
C1125 C1124 1.415 . S
H1126 C1123 0.999 . S
H1127 C1108 0.913 . S
C547 C20 1.311 . S
C562 C489 1.311 . S
C597 C49 1.312 . S
C612 C117 1.312 . S
C647 C196 1.311 . S
C662 C145 1.311 . S
C697 C284 1.311 . S
C712 C225 1.312 . S
C747 C372 1.312 . S
C762 C313 1.312 . S
C797 C460 1.311 . S
C812 C401 1.311 . S
C847 C57 1.606 . S
C862 C381 1.606 . S
C897 C469 1.606 . S
C912 C137 1.606 . S
C947 C233 1.606 . S
C962 C29 1.606 . S
C997 C108 1.606 . S
C1012 C321 1.606 1_556 S
C1047 C205 1.606 1_554 S
C1062 C409 1.606 . S
C1097 C497 1.606 . S
C1112 C293 1.606 . S
