# Generated by pormake.
# Topology vbn, (6)-cn, num edge types: 1
# Building blocks:
#     Node 0, Type 0, BuildingBlock: MIDCAF_clean_sbu_0, # of connection points: 6
#     Node 1, Type 0, BuildingBlock: MIDCAF_clean_sbu_0, # of connection points: 6
#     Node 2, Type 0, BuildingBlock: MIDCAF_clean_sbu_0, # of connection points: 6
#     Node 3, Type 0, BuildingBlock: MIDCAF_clean_sbu_0, # of connection points: 6
#     Node 4, Type 0, BuildingBlock: MIDCAF_clean_sbu_0, # of connection points: 6
#     Node 5, Type 0, BuildingBlock: MIDCAF_clean_sbu_0, # of connection points: 6
#     Node 6, Type 0, BuildingBlock: MIDCAF_clean_sbu_0, # of connection points: 6
#     Node 7, Type 0, BuildingBlock: MIDCAF_clean_sbu_0, # of connection points: 6
#     Edge 8, Type (0, 0), BuildingBlock: TEMPAE_clean_linker_10, # of connection points: 2
#     Edge 9, Type (0, 0), BuildingBlock: TEMPAE_clean_linker_10, # of connection points: 2
#     Edge 10, Type (0, 0), BuildingBlock: TEMPAE_clean_linker_10, # of connection points: 2
#     Edge 11, Type (0, 0), BuildingBlock: TEMPAE_clean_linker_10, # of connection points: 2
#     Edge 12, Type (0, 0), BuildingBlock: TEMPAE_clean_linker_10, # of connection points: 2
#     Edge 13, Type (0, 0), BuildingBlock: TEMPAE_clean_linker_10, # of connection points: 2
#     Edge 14, Type (0, 0), BuildingBlock: TEMPAE_clean_linker_10, # of connection points: 2
#     Edge 15, Type (0, 0), BuildingBlock: TEMPAE_clean_linker_10, # of connection points: 2
#     Edge 16, Type (0, 0), BuildingBlock: TEMPAE_clean_linker_10, # of connection points: 2
#     Edge 17, Type (0, 0), BuildingBlock: TEMPAE_clean_linker_10, # of connection points: 2
#     Edge 18, Type (0, 0), BuildingBlock: TEMPAE_clean_linker_10, # of connection points: 2
#     Edge 19, Type (0, 0), BuildingBlock: TEMPAE_clean_linker_10, # of connection points: 2
#     Edge 20, Type (0, 0), BuildingBlock: TEMPAE_clean_linker_10, # of connection points: 2
#     Edge 21, Type (0, 0), BuildingBlock: TEMPAE_clean_linker_10, # of connection points: 2
#     Edge 22, Type (0, 0), BuildingBlock: TEMPAE_clean_linker_10, # of connection points: 2
#     Edge 23, Type (0, 0), BuildingBlock: TEMPAE_clean_linker_10, # of connection points: 2
#     Edge 24, Type (0, 0), BuildingBlock: TEMPAE_clean_linker_10, # of connection points: 2
#     Edge 25, Type (0, 0), BuildingBlock: TEMPAE_clean_linker_10, # of connection points: 2
#     Edge 26, Type (0, 0), BuildingBlock: TEMPAE_clean_linker_10, # of connection points: 2
#     Edge 27, Type (0, 0), BuildingBlock: TEMPAE_clean_linker_10, # of connection points: 2
#     Edge 28, Type (0, 0), BuildingBlock: TEMPAE_clean_linker_10, # of connection points: 2
#     Edge 29, Type (0, 0), BuildingBlock: TEMPAE_clean_linker_10, # of connection points: 2
#     Edge 30, Type (0, 0), BuildingBlock: TEMPAE_clean_linker_10, # of connection points: 2
#     Edge 31, Type (0, 0), BuildingBlock: TEMPAE_clean_linker_10, # of connection points: 2
# Relax obj value: 0.265
# Max RMSD: 0.222
# Mean RMSD: 0.222
data_MOF--net-vbn--node1-MIDCAF_clean_sbu_0--edge1-TEMPAE_clean_linker_10
_symmetry_space_group_name_H-M    P1
_symmetry_Int_Tables_number       1
_symmetry_cell_setting            triclinic
loop_
_symmetry_equiv_pos_as_xyz
'x, y, z'
_cell_length_a     25.626711
_cell_length_b     27.032609
_cell_length_c     45.99136
_cell_angle_alpha  90.05292
_cell_angle_beta   90.049731
_cell_angle_gamma 90.254566
loop_
_atom_site_label
_atom_site_type_symbol
_atom_site_fract_x
_atom_site_fract_y
_atom_site_fract_z
_atom_type_partial_charge
Zn0 Zn 0.27964 0.40731 0.4045 0.0
Zn1 Zn 0.44395 0.24184 0.38912 0.0
Zn2 Zn 0.39046 0.31168 0.40243 0.0
C3 C 0.34165 0.21056 0.38098 0.0
C4 C 0.46568 0.31297 0.349 0.0
O5 O 0.36956 0.37863 0.41931 0.0
O6 O 0.33231 0.44811 0.4294 0.0
C7 C 0.27265 0.30242 0.43137 0.0
O8 O 0.33428 0.24947 0.39663 0.0
O9 O 0.38721 0.20038 0.37255 0.0
O10 O 0.48921 0.27715 0.36065 0.0
O11 O 0.42279 0.3281 0.35998 0.0
O12 O 0.26 0.34735 0.42725 0.0
O13 O 0.31465 0.28306 0.4204 0.0
O14 O 0.38806 0.37233 0.36976 0.0
O15 O 0.30478 0.3635 0.37143 0.0
C16 C 0.34302 0.38703 0.36136 0.0
O17 O 0.45527 0.30541 0.43267 0.0
O18 O 0.47489 0.22701 0.42784 0.0
C19 C 0.36945 0.4183 0.43388 0.0
C20 C 0.48107 0.26766 0.44098 0.0
Zn21 Zn 0.05705 0.23859 0.88443 0.0
Zn22 Zn 0.25027 0.10244 0.90682 0.0
Zn23 Zn 0.11947 0.17559 0.9071 0.0
C24 C 0.17086 0.09706 0.86745 0.0
C25 C 0.24091 0.20591 0.93147 0.0
O26 O 0.05787 0.18447 0.93816 0.0
O27 O 0.02275 0.25353 0.92226 0.0
C28 C 0.04303 0.15315 0.85374 0.0
O29 O 0.12732 0.10986 0.87905 0.0
O30 O 0.20931 0.12552 0.87142 0.0
O31 O 0.26712 0.16685 0.92668 0.0
O32 O 0.19244 0.21074 0.924 0.0
O33 O 0.01784 0.19218 0.85885 0.0
O34 O 0.08511 0.1443 0.86771 0.0
O35 O 0.16764 0.239 0.89652 0.0
O36 O 0.11517 0.27961 0.86714 0.0
C37 C 0.16003 0.27343 0.87794 0.0
O38 O 0.15952 0.11838 0.92532 0.0
O39 O 0.21123 0.05929 0.93792 0.0
C40 C 0.02523 0.21959 0.94114 0.0
C41 C 0.16895 0.0824 0.94199 0.0
Zn42 Zn 0.94837 0.25087 0.61632 0.0
Zn43 Zn 0.76815 0.09587 0.59148 0.0
Zn44 Zn 0.89302 0.17618 0.59689 0.0
C45 C 0.84053 0.1029 0.63426 0.0
C46 C 0.77188 0.19783 0.56696 0.0
O47 O 0.96114 0.17894 0.56919 0.0
O48 O 0.00179 0.24519 0.58572 0.0
C49 C 0.94902 0.18103 0.65988 0.0
O50 O 0.88712 0.11805 0.62983 0.0
O51 O 0.80496 0.12985 0.62427 0.0
O52 O 0.748 0.15683 0.57006 0.0
O53 O 0.81868 0.20621 0.57681 0.0
O54 O 0.96717 0.22344 0.65438 0.0
O55 O 0.92028 0.15875 0.64113 0.0
O56 O 0.84247 0.24123 0.59873 0.0
O57 O 0.8929 0.30115 0.61591 0.0
C58 C 0.84883 0.28603 0.60741 0.0
O59 O 0.87098 0.1141 0.57331 0.0
O60 O 0.81447 0.05483 0.56417 0.0
C61 C 0.99997 0.20868 0.56856 0.0
C62 C 0.85765 0.07616 0.55885 0.0
Zn63 Zn 0.52942 0.21338 0.14254 0.0
Zn64 Zn 0.65964 0.34911 0.05966 0.0
Zn65 Zn 0.62162 0.30445 0.09452 0.0
C66 C 0.6326 0.41792 0.09818 0.0
C67 C 0.73905 0.29599 0.07359 0.0
O68 O 0.53939 0.27873 0.08231 0.0
O69 O 0.48367 0.22861 0.10746 0.0
C70 C 0.58673 0.31481 0.14944 0.0
O71 O 0.63603 0.37842 0.1136 0.0
O72 O 0.62717 0.41363 0.07101 0.0
O73 O 0.73436 0.34155 0.06843 0.0
O74 O 0.69827 0.27102 0.08126 0.0
O75 O 0.57712 0.27307 0.13813 0.0
O76 O 0.61524 0.34378 0.13453 0.0
O77 O 0.67041 0.24126 0.10035 0.0
O78 O 0.60174 0.2208 0.12466 0.0
C79 C 0.64744 0.21004 0.11659 0.0
O80 O 0.56714 0.31331 0.05947 0.0
O81 O 0.62997 0.30314 0.02896 0.0
C82 C 0.49502 0.25573 0.08547 0.0
C83 C 0.58321 0.31517 0.03319 0.0
Zn84 Zn 0.63401 0.66064 0.55304 0.0
Zn85 Zn 0.5608 0.75893 0.62025 0.0
Zn86 Zn 0.60885 0.69599 0.59349 0.0
C87 C 0.66853 0.7859 0.61995 0.0
C88 C 0.56262 0.66368 0.65125 0.0
O89 O 0.57308 0.62083 0.59451 0.0
O90 O 0.56558 0.62563 0.54684 0.0
C91 C 0.69501 0.73187 0.55051 0.0
O92 O 0.67211 0.74467 0.60635 0.0
O93 O 0.62422 0.80255 0.62707 0.0
O94 O 0.54748 0.70826 0.65151 0.0
O95 O 0.58772 0.64666 0.62924 0.0
O96 O 0.6611 0.72029 0.53164 0.0
O97 O 0.68652 0.72068 0.57733 0.0
O98 O 0.62706 0.62142 0.60915 0.0
O99 O 0.68809 0.61865 0.57577 0.0
C100 C 0.66963 0.60217 0.59943 0.0
O101 O 0.55098 0.71779 0.56332 0.0
O102 O 0.50634 0.77154 0.58864 0.0
C103 C 0.55251 0.60522 0.57055 0.0
C104 C 0.51241 0.74693 0.56544 0.0
Zn105 Zn 0.86169 0.84532 0.0591 0.0
Zn106 Zn 0.9499 0.74788 0.12105 0.0
Zn107 Zn 0.89516 0.80772 0.09678 0.0
C108 C 0.84471 0.71272 0.12328 0.0
C109 C 0.9443 0.83752 0.15552 0.0
O110 O 0.92861 0.88468 0.09684 0.0
O111 O 0.92191 0.88704 0.049 0.0
C112 C 0.80971 0.76885 0.05341 0.0
O113 O 0.8366 0.75373 0.10996 0.0
O114 O 0.89108 0.69961 0.12883 0.0
O115 O 0.96405 0.79477 0.15391 0.0
O116 O 0.91538 0.85364 0.13476 0.0
O117 O 0.841 0.78739 0.03522 0.0
O118 O 0.81794 0.77678 0.08072 0.0
O119 O 0.87608 0.87857 0.11591 0.0
O120 O 0.80827 0.87863 0.08671 0.0
C121 C 0.83009 0.89434 0.10969 0.0
O122 O 0.95376 0.794 0.06524 0.0
O123 O 0.00281 0.74088 0.08846 0.0
C124 C 0.9412 0.90426 0.0722 0.0
C125 C 0.9945 0.76738 0.06625 0.0
Zn126 Zn 0.13312 0.82402 0.44348 0.0
Zn127 Zn 0.06035 0.73403 0.36957 0.0
Zn128 Zn 0.11032 0.79097 0.40106 0.0
C129 C 0.168 0.70298 0.372 0.0
C130 C 0.06659 0.83357 0.34419 0.0
O131 O 0.07324 0.86467 0.40136 0.0
O132 O 0.06235 0.85487 0.44858 0.0
C133 C 0.19465 0.75219 0.44316 0.0
O134 O 0.17264 0.74282 0.3869 0.0
O135 O 0.12336 0.68891 0.36332 0.0
O136 O 0.051 0.78948 0.34034 0.0
O137 O 0.09053 0.8457 0.36777 0.0
O138 O 0.16027 0.76188 0.46206 0.0
O139 O 0.18696 0.76588 0.41671 0.0
O140 O 0.12928 0.8678 0.38876 0.0
O141 O 0.18683 0.87088 0.4241 0.0
C142 C 0.16979 0.88844 0.40038 0.0
O143 O 0.05217 0.76518 0.4299 0.0
O144 O 0.0034 0.72151 0.40032 0.0
C145 C 0.04962 0.8763 0.42514 0.0
C146 C 0.01095 0.74016 0.42529 0.0
Zn147 Zn 0.32636 0.62578 0.93567 0.0
Zn148 Zn 0.44443 0.7383 0.87435 0.0
Zn149 Zn 0.38575 0.67617 0.9031 0.0
C150 C 0.34591 0.78039 0.87925 0.0
C151 C 0.43723 0.65084 0.84149 0.0
O152 O 0.43089 0.64653 0.93932 0.0
O153 O 0.37413 0.60482 0.96613 0.0
C154 C 0.27406 0.70903 0.93446 0.0
O155 O 0.34142 0.74443 0.89741 0.0
O156 O 0.38647 0.78496 0.86391 0.0
O157 O 0.46551 0.68894 0.84427 0.0
O158 O 0.40109 0.64133 0.86015 0.0
O159 O 0.26998 0.66797 0.94706 0.0
O160 O 0.3132 0.71802 0.91751 0.0
O161 O 0.36605 0.61141 0.8757 0.0
O162 O 0.30944 0.5765 0.90564 0.0
C163 C 0.33281 0.57705 0.88152 0.0
O164 O 0.45945 0.68877 0.92857 0.0
O165 O 0.49407 0.75402 0.90701 0.0
C166 C 0.42035 0.61798 0.96098 0.0
C167 C 0.49463 0.72313 0.92764 0.0
C168 C 0.23824 0.95378 0.39965 0.0
C169 C 0.18958 0.93672 0.39001 0.0
C170 C 0.25547 0.00176 0.39327 0.0
C171 C 0.22313 0.03375 0.37688 0.0
C172 C 0.17478 0.01608 0.366 0.0
C173 C 0.15851 0.96763 0.37271 0.0
C174 C 0.30782 0.01863 0.40485 0.0
C175 C 0.1395 0.04872 0.34815 0.0
C176 C 0.25871 0.16621 0.39415 0.0
C177 C 0.30001 0.17362 0.37485 0.0
C178 C 0.22937 0.12216 0.39362 0.0
C179 C 0.24034 0.08584 0.37227 0.0
C180 C 0.2763 0.09685 0.34987 0.0
C181 C 0.30639 0.14022 0.35171 0.0
C182 C 0.19093 0.1125 0.41781 0.0
C183 C 0.28695 0.06073 0.32559 0.0
H184 H 0.26256 0.92983 0.41277 0.0
H185 H 0.12066 0.95466 0.36531 0.0
H186 H 0.33322 0.0307 0.38665 0.0
H187 H 0.30256 0.05084 0.41952 0.0
H188 H 0.3283 0.98902 0.41703 0.0
H189 H 0.10784 0.02722 0.3374 0.0
H190 H 0.12132 0.07684 0.36246 0.0
H191 H 0.16211 0.06882 0.33129 0.0
H192 H 0.25203 0.19284 0.41101 0.0
H193 H 0.33708 0.14649 0.3359 0.0
H194 H 0.20981 0.08915 0.43461 0.0
H195 H 0.15605 0.09229 0.4098 0.0
H196 H 0.17813 0.14746 0.42823 0.0
H197 H 0.3151 0.03251 0.33325 0.0
H198 H 0.30413 0.07959 0.30637 0.0
H199 H 0.25076 0.04123 0.31878 0.0
C200 C 0.23209 0.33103 0.8914 0.0
C201 C 0.20219 0.30802 0.86985 0.0
C202 C 0.26447 0.37141 0.88461 0.0
C203 C 0.26761 0.38834 0.85541 0.0
C204 C 0.2425 0.36105 0.83314 0.0
C205 C 0.20888 0.32194 0.84071 0.0
C206 C 0.29132 0.3987 0.90913 0.0
C207 C 0.24827 0.37501 0.80155 0.0
C208 C 0.26699 0.52685 0.85699 0.0
C209 C 0.32002 0.53679 0.86126 0.0
C210 C 0.24938 0.47865 0.85182 0.0
C211 C 0.28617 0.4398 0.84985 0.0
C212 C 0.34019 0.45137 0.84887 0.0
C213 C 0.35675 0.50002 0.85516 0.0
C214 C 0.1913 0.46874 0.85273 0.0
C215 C 0.38068 0.41193 0.84414 0.0
H216 H 0.22687 0.32013 0.91388 0.0
H217 H 0.18656 0.30324 0.8239 0.0
H218 H 0.33357 0.40255 0.90451 0.0
H219 H 0.27494 0.4365 0.91113 0.0
H220 H 0.28673 0.37949 0.93033 0.0
H221 H 0.24185 0.34246 0.7872 0.0
H222 H 0.2188 0.40325 0.79578 0.0
H223 H 0.28753 0.39079 0.79711 0.0
H224 H 0.23881 0.5557 0.86151 0.0
H225 H 0.39794 0.50781 0.85824 0.0
H226 H 0.18155 0.4475 0.87267 0.0
H227 H 0.17901 0.44625 0.83378 0.0
H228 H 0.16816 0.5034 0.85279 0.0
H229 H 0.39445 0.39802 0.86547 0.0
H230 H 0.41506 0.42739 0.83251 0.0
H231 H 0.36478 0.38026 0.8315 0.0
C232 C 0.6521 0.51619 0.61606 0.0
C233 C 0.68801 0.55402 0.60991 0.0
C234 C 0.66843 0.46675 0.61789 0.0
C235 C 0.72213 0.45576 0.615 0.0
C236 C 0.75887 0.49471 0.61171 0.0
C237 C 0.7412 0.54329 0.60857 0.0
C238 C 0.62791 0.42633 0.62053 0.0
C239 C 0.81675 0.48487 0.60977 0.0
C240 C 0.79057 0.33862 0.63651 0.0
C241 C 0.80494 0.32036 0.60921 0.0
C242 C 0.75843 0.38016 0.63898 0.0
C243 C 0.74077 0.40391 0.61343 0.0
C244 C 0.75093 0.38239 0.58588 0.0
C245 C 0.78399 0.34126 0.58406 0.0
C246 C 0.74824 0.40145 0.66877 0.0
C247 C 0.73121 0.40545 0.55813 0.0
H248 H 0.61082 0.52465 0.617 0.0
H249 H 0.76883 0.57277 0.60395 0.0
H250 H 0.62318 0.40787 0.59913 0.0
H251 H 0.64033 0.39773 0.63633 0.0
H252 H 0.58935 0.44107 0.62726 0.0
H253 H 0.84019 0.51953 0.61048 0.0
H254 H 0.8294 0.46066 0.62791 0.0
H255 H 0.82548 0.46535 0.58912 0.0
H256 H 0.80728 0.32228 0.65592 0.0
H257 H 0.79601 0.32752 0.56296 0.0
H258 H 0.70804 0.41618 0.67044 0.0
H259 H 0.77572 0.43259 0.67274 0.0
H260 H 0.75405 0.37343 0.68612 0.0
H261 H 0.7307 0.37834 0.53995 0.0
H262 H 0.75725 0.43662 0.55197 0.0
H263 H 0.69132 0.42039 0.56103 0.0
C264 C 0.69779 0.15408 0.14859 0.0
C265 C 0.6707 0.16196 0.12261 0.0
C266 C 0.72501 0.1098 0.15318 0.0
C267 C 0.7248 0.07315 0.13117 0.0
C268 C 0.69572 0.08066 0.10531 0.0
C269 C 0.66921 0.12528 0.10129 0.0
C270 C 0.75545 0.10308 0.18099 0.0
C271 C 0.69427 0.04238 0.08135 0.0
C272 C 0.83462 0.98419 0.11727 0.0
C273 C 0.80977 0.93922 0.12317 0.0
C274 C 0.80873 0.02901 0.12186 0.0
C275 C 0.7577 0.02837 0.13369 0.0
C276 C 0.73523 0.98308 0.14293 0.0
C277 C 0.76108 0.93865 0.13679 0.0
C278 C 0.83369 0.07629 0.11111 0.0
C279 C 0.68203 0.98116 0.15689 0.0
H280 H 0.69893 0.18311 0.16487 0.0
H281 H 0.64819 0.13202 0.08121 0.0
H282 H 0.74808 0.06587 0.19033 0.0
H283 H 0.79782 0.10582 0.17634 0.0
H284 H 0.74547 0.13154 0.1975 0.0
H285 H 0.66843 0.05338 0.06308 0.0
H286 H 0.73421 0.03657 0.07272 0.0
H287 H 0.68028 0.00642 0.09003 0.0
H288 H 0.87233 0.98412 0.10662 0.0
H289 H 0.7422 0.90352 0.14134 0.0
H290 H 0.83101 0.10574 0.12782 0.0
H291 H 0.81244 0.08943 0.09158 0.0
H292 H 0.87535 0.07113 0.10519 0.0
H293 H 0.6774 0.01171 0.1728 0.0
H294 H 0.67515 0.94536 0.16815 0.0
H295 H 0.65161 0.98565 0.13993 0.0
C296 C 0.77661 0.03562 0.64243 0.0
C297 C 0.82892 0.04992 0.63941 0.0
C298 C 0.76175 0.98593 0.64145 0.0
C299 C 0.80049 0.949 0.63887 0.0
C300 C 0.85394 0.9628 0.63874 0.0
C301 C 0.86762 0.01337 0.63848 0.0
C302 C 0.70414 0.97339 0.64148 0.0
C303 C 0.89656 0.92456 0.63764 0.0
C304 C 0.72953 0.82997 0.65304 0.0
C305 C 0.71474 0.81713 0.62473 0.0
C306 C 0.76481 0.86893 0.65801 0.0
C307 C 0.78328 0.89698 0.63412 0.0
C308 C 0.77247 0.88071 0.6054 0.0
C309 C 0.7384 0.84058 0.60107 0.0
C310 C 0.77798 0.88315 0.68889 0.0
C311 C 0.79122 0.90931 0.5792 0.0
H312 H 0.7466 0.06367 0.64389 0.0
H313 H 0.90826 0.02409 0.63651 0.0
H314 H 0.69382 0.95262 0.62144 0.0
H315 H 0.69462 0.94946 0.66031 0.0
H316 H 0.67918 0.00683 0.64262 0.0
H317 H 0.93404 0.93969 0.64604 0.0
H318 H 0.88588 0.89125 0.65045 0.0
H319 H 0.90278 0.91287 0.61479 0.0
H320 H 0.7114 0.81129 0.67132 0.0
H321 H 0.72652 0.83066 0.5792 0.0
H322 H 0.7518 0.91332 0.69612 0.0
H323 H 0.81877 0.89685 0.69053 0.0
H324 H 0.77276 0.85139 0.70395 0.0
H325 H 0.76715 0.94309 0.5767 0.0
H326 H 0.78796 0.88715 0.55891 0.0
H327 H 0.83234 0.92127 0.58193 0.0
C328 C 0.80999 0.63782 0.14872 0.0
C329 C 0.80115 0.67851 0.13045 0.0
C330 C 0.77289 0.59979 0.15133 0.0
C331 C 0.72644 0.60203 0.13472 0.0
C332 C 0.71452 0.64591 0.11929 0.0
C333 C 0.75199 0.68386 0.11755 0.0
C334 C 0.78678 0.55453 0.16885 0.0
C335 C 0.66515 0.65039 0.1016 0.0
C336 C 0.69597 0.48512 0.09335 0.0
C337 C 0.654 0.46507 0.10883 0.0
C338 C 0.71964 0.52925 0.10189 0.0
C339 C 0.70014 0.555 0.12635 0.0
C340 C 0.65741 0.53511 0.14224 0.0
C341 C 0.63505 0.48964 0.13344 0.0
C342 C 0.7661 0.54786 0.08472 0.0
C343 C 0.6352 0.56198 0.16814 0.0
H344 H 0.84717 0.63416 0.15976 0.0
H345 H 0.74405 0.716 0.10442 0.0
H346 H 0.75167 0.537 0.17851 0.0
H347 H 0.80552 0.527 0.15434 0.0
H348 H 0.81472 0.56377 0.18655 0.0
H349 H 0.65517 0.68972 0.09747 0.0
H350 H 0.67081 0.63195 0.08026 0.0
H351 H 0.63181 0.6321 0.11265 0.0
H352 H 0.71113 0.4655 0.07459 0.0
H353 H 0.60246 0.47392 0.14533 0.0
H354 H 0.80066 0.55119 0.09915 0.0
H355 H 0.75788 0.58509 0.07575 0.0
H356 H 0.77634 0.52295 0.06639 0.0
H357 H 0.66644 0.57042 0.18411 0.0
H358 H 0.60406 0.54025 0.17912 0.0
H359 H 0.61864 0.59784 0.16102 0.0
C360 C 0.37047 0.47702 0.35741 0.0
C361 C 0.33332 0.43938 0.35333 0.0
C362 C 0.3555 0.52724 0.35666 0.0
C363 C 0.30205 0.53952 0.35298 0.0
C364 C 0.26552 0.50155 0.34671 0.0
C365 C 0.28203 0.4524 0.34601 0.0
C366 C 0.39651 0.56654 0.36144 0.0
C367 C 0.2079 0.51208 0.34324 0.0
C368 C 0.2326 0.64349 0.39151 0.0
C369 C 0.21295 0.66993 0.36782 0.0
C370 C 0.26654 0.60345 0.38727 0.0
C371 C 0.28194 0.5904 0.35865 0.0
C372 C 0.26692 0.62091 0.33507 0.0
C373 C 0.23135 0.65958 0.33982 0.0
C374 C 0.28123 0.57204 0.41312 0.0
C375 C 0.28529 0.61048 0.30453 0.0
H376 H 0.41041 0.4674 0.36265 0.0
H377 H 0.25334 0.42351 0.34213 0.0
H378 H 0.38599 0.60176 0.35057 0.0
H379 H 0.4007 0.57373 0.38507 0.0
H380 H 0.43504 0.55414 0.35319 0.0
H381 H 0.18459 0.478 0.3392 0.0
H382 H 0.19274 0.53012 0.36319 0.0
H383 H 0.2014 0.5378 0.32486 0.0
H384 H 0.21808 0.65153 0.41313 0.0
H385 H 0.21645 0.68049 0.32152 0.0
H386 H 0.32363 0.56421 0.41307 0.0
H387 H 0.26035 0.53603 0.41182 0.0
H388 H 0.27107 0.5901 0.43407 0.0
H389 H 0.32656 0.59817 0.30455 0.0
H390 H 0.28162 0.64363 0.29042 0.0
H391 H 0.26134 0.58039 0.29487 0.0
C392 C 0.14517 0.0071 0.8684 0.0
C393 C 0.18144 0.04432 0.86154 0.0
C394 C 0.15997 0.95705 0.86833 0.0
C395 C 0.21237 0.94457 0.86189 0.0
C396 C 0.24756 0.9818 0.85252 0.0
C397 C 0.23133 0.031 0.85202 0.0
C398 C 0.12024 0.91841 0.87687 0.0
C399 C 0.30382 0.97043 0.84528 0.0
C400 C 0.28956 0.84592 0.89984 0.0
C401 C 0.30363 0.81638 0.87622 0.0
C402 C 0.25483 0.88536 0.89618 0.0
C403 C 0.23348 0.89468 0.86826 0.0
C404 C 0.24307 0.86123 0.84522 0.0
C405 C 0.2792 0.82301 0.84928 0.0
C406 C 0.24491 0.91963 0.9215 0.0
C407 C 0.21789 0.86773 0.81582 0.0
H408 H 0.10609 0.01705 0.8752 0.0
H409 H 0.25909 0.05954 0.84591 0.0
H410 H 0.12939 0.88166 0.86743 0.0
H411 H 0.11953 0.9149 0.9009 0.0
H412 H 0.08051 0.92945 0.86978 0.0
H413 H 0.32587 0.00376 0.83816 0.0
H414 H 0.32363 0.95476 0.86464 0.0
H415 H 0.30584 0.94245 0.8277 0.0
H416 H 0.30842 0.84023 0.92067 0.0
H417 H 0.28932 0.79906 0.83123 0.0
H418 H 0.20252 0.92634 0.92401 0.0
H419 H 0.26398 0.9559 0.91733 0.0
H420 H 0.26021 0.90455 0.94227 0.0
H421 H 0.17686 0.88013 0.81815 0.0
H422 H 0.21853 0.83283 0.80304 0.0
H423 H 0.23929 0.89643 0.80334 0.0
C424 C 0.4166 0.39679 0.47923 0.0
C425 C 0.40955 0.42907 0.45574 0.0
C426 C 0.44503 0.41191 0.50386 0.0
C427 C 0.46763 0.45974 0.50433 0.0
C428 C 0.46618 0.4895 0.47895 0.0
C429 C 0.43572 0.47443 0.45523 0.0
C430 C 0.44759 0.37836 0.53 0.0
C431 C 0.4942 0.5387 0.47755 0.0
C432 C 0.47396 0.55422 0.56352 0.0
C433 C 0.52778 0.55663 0.56793 0.0
C434 C 0.45229 0.51684 0.54604 0.0
C435 C 0.48577 0.48267 0.53197 0.0
C436 C 0.53903 0.4809 0.53995 0.0
C437 C 0.55934 0.51789 0.5581 0.0
C438 C 0.39471 0.51858 0.53924 0.0
C439 C 0.57666 0.44467 0.52672 0.0
H440 H 0.39656 0.36136 0.47928 0.0
H441 H 0.43096 0.49875 0.43668 0.0
H442 H 0.48821 0.37578 0.5382 0.0
H443 H 0.42348 0.3941 0.54775 0.0
H444 H 0.43317 0.34048 0.52499 0.0
H445 H 0.49421 0.55445 0.45524 0.0
H446 H 0.47506 0.56544 0.49235 0.0
H447 H 0.53521 0.5345 0.48491 0.0
H448 H 0.4497 0.58455 0.57084 0.0
H449 H 0.60126 0.52025 0.5611 0.0
H450 H 0.37839 0.48067 0.53691 0.0
H451 H 0.38875 0.53834 0.51836 0.0
H452 H 0.37273 0.53852 0.55641 0.0
H453 H 0.59895 0.42619 0.54429 0.0
H454 H 0.60534 0.46494 0.51305 0.0
H455 H 0.55728 0.41599 0.51328 0.0
C456 C 0.95487 0.98995 0.05695 0.0
C457 C 0.9761 0.9469 0.06901 0.0
C458 C 0.98509 0.02129 0.03938 0.0
C459 C 0.03773 0.00906 0.03374 0.0
C460 C 0.06067 0.96842 0.0484 0.0
C461 C 0.02947 0.93783 0.066 0.0
C462 C 0.95849 0.06384 0.0244 0.0
C463 C 0.11655 0.95386 0.04279 0.0
C464 C 0.09451 0.03095 0.95864 0.0
C465 C 0.13189 0.06729 0.96453 0.0
C466 C 0.06134 0.01367 0.9807 0.0
C467 C 0.06639 0.03301 0.00931 0.0
C468 C 0.10172 0.0724 0.01464 0.0
C469 C 0.13446 0.08886 0.99215 0.0
C470 C 0.02061 0.97531 0.97302 0.0
C471 C 0.1062 0.09635 0.04417 0.0
H472 H 0.91317 -0.00385 0.05849 0.0
H473 H 0.04542 0.90369 0.07454 0.0
H474 H 0.98642 0.09337 0.01811 0.0
H475 H 0.93892 0.05008 0.00441 0.0
H476 H 0.92798 0.07977 0.03869 0.0
H477 H 0.12921 0.92263 0.05676 0.0
H478 H 0.12107 0.94277 0.01969 0.0
H479 H 0.14286 0.98589 0.04666 0.0
H480 H 0.09175 0.0156 0.93689 0.0
H481 H 0.16284 0.11792 0.9963 0.0
H482 H 0.9833 -0.00563 0.9683 0.0
H483 H 0.01348 0.94906 0.9911 0.0
H484 H 0.03173 0.95406 0.9533 0.0
H485 H 0.06808 0.09686 0.0556 0.0
H486 H 0.1211 0.1349 0.04244 0.0
H487 H 0.13405 0.07501 0.05766 0.0
C488 C 0.92068 0.01492 0.54016 0.0
C489 C 0.89163 0.0578 0.53588 0.0
C490 C 0.95022 -0.00495 0.51739 0.0
C491 C 0.94873 0.01781 0.48962 0.0
C492 C 0.92178 0.06289 0.48585 0.0
C493 C 0.89368 0.08266 0.50925 0.0
C494 C 0.9816 0.9488 0.52275 0.0
C495 C 0.92071 0.08886 0.45686 0.0
C496 C 0.04706 0.96365 0.43753 0.0
C497 C 0.01964 0.92162 0.42831 0.0
C498 C 0.0236 -0.00189 0.45607 0.0
C499 C 0.9708 0.99123 0.46424 0.0
C500 C 0.9411 0.95264 0.45136 0.0
C501 C 0.96626 0.91755 0.43392 0.0
C502 C 0.05791 0.03762 0.46925 0.0
C503 C 0.88426 0.94506 0.45878 0.0
H504 H 0.91966 -0.00334 0.56116 0.0
H505 H 0.87155 0.11644 0.50642 0.0
H506 H 0.96405 0.91735 0.51063 0.0
H507 H 0.02207 0.95389 0.51465 0.0
H508 H 0.98317 0.93891 0.54618 0.0
H509 H 0.90364 0.12647 0.45847 0.0
H510 H 0.96073 0.09194 0.44784 0.0
H511 H 0.8971 0.06673 0.44129 0.0
H512 H 0.08875 0.96611 0.43355 0.0
H513 H 0.94549 0.88439 0.4272 0.0
H514 H 0.08786 0.01996 0.48323 0.0
H515 H 0.03617 0.06473 0.48257 0.0
H516 H 0.07907 0.05737 0.45166 0.0
H517 H 0.8808 0.93174 0.48152 0.0
H518 H 0.86522 0.91756 0.44422 0.0
H519 H 0.8629 0.9806 0.45727 0.0
C520 C 0.48669 0.55583 0.95211 0.0
C521 C 0.46088 0.58579 0.97222 0.0
C522 C 0.51302 0.51363 0.96123 0.0
C523 C 0.51561 0.50307 0.99126 0.0
C524 C 0.49545 0.53693 0.01187 0.0
C525 C 0.46625 0.57728 0.00201 0.0
C526 C 0.53366 0.47818 0.93862 0.0
C527 C 0.5025 0.52919 0.04412 0.0
C528 C 0.5121 0.36908 0.01451 0.0
C529 C 0.56521 0.35865 0.0169 0.0
C530 C 0.49553 0.41605 0.00562 0.0
C531 C 0.53309 0.45375 0.00062 0.0
C532 C 0.58675 0.4433 0.00284 0.0
C533 C 0.60212 0.3952 0.00946 0.0
C534 C 0.43796 0.42567 0.00177 0.0
C535 C 0.62837 0.48268 0.99935 0.0
H536 H 0.48191 0.56271 0.92902 0.0
H537 H 0.4464 0.60108 0.0174 0.0
H538 H 0.57615 0.47292 0.94167 0.0
H539 H 0.51457 0.44148 0.94115 0.0
H540 H 0.52684 0.49144 0.91609 0.0
H541 H 0.49486 0.56365 0.05657 0.0
H542 H 0.47509 0.50019 0.05182 0.0
H543 H 0.54276 0.51652 0.04893 0.0
H544 H 0.4838 0.34082 0.01997 0.0
H545 H 0.64351 0.3877 0.0114 0.0
H546 H 0.43025 0.43929 0.97942 0.0
H547 H 0.42487 0.45464 0.01716 0.0
H548 H 0.41412 0.39213 0.0055 0.0
H549 H 0.64348 0.4818 0.97677 0.0
H550 H 0.66186 0.47544 0.01409 0.0
H551 H 0.61356 0.52039 0.00395 0.0
C552 C 0.52712 0.29886 0.19093 0.0
C553 C 0.56332 0.32996 0.17727 0.0
C554 C 0.50857 0.30948 0.21873 0.0
C555 C 0.52663 0.35247 0.23322 0.0
C556 C 0.55975 0.38628 0.21864 0.0
C557 C 0.57808 0.37444 0.19075 0.0
C558 C 0.47264 0.27262 0.23337 0.0
C559 C 0.57833 0.43329 0.23309 0.0
C560 C 0.45464 0.36395 0.30405 0.0
C561 C 0.48605 0.33411 0.32174 0.0
C562 C 0.4701 0.37559 0.27561 0.0
C563 C 0.51763 0.35647 0.26487 0.0
C564 C 0.55189 0.33105 0.28375 0.0
C565 C 0.53566 0.32026 0.31202 0.0
C566 C 0.4332 0.40409 0.25639 0.0
C567 C 0.60322 0.31036 0.27323 0.0
H568 H 0.51444 0.26516 0.18041 0.0
H569 H 0.60542 0.39908 0.18003 0.0
H570 H 0.49343 0.25462 0.25168 0.0
H571 H 0.43806 0.29162 0.24249 0.0
H572 H 0.4589 0.24331 0.2182 0.0
H573 H 0.59413 0.46012 0.21703 0.0
H574 H 0.54617 0.45106 0.24534 0.0
H575 H 0.6097 0.42445 0.24886 0.0
H576 H 0.41658 0.37555 0.31159 0.0
H577 H 0.5607 0.29828 0.32589 0.0
H578 H 0.40851 0.37768 0.24397 0.0
H579 H 0.45473 0.42735 0.24052 0.0
H580 H 0.40701 0.42806 0.26944 0.0
H581 H 0.59559 0.2785 0.25855 0.0
H582 H 0.62813 0.29745 0.29146 0.0
H583 H 0.6252 0.33853 0.26066 0.0
C584 C 0.06397 0.10421 0.80957 0.0
C585 C 0.02673 0.12194 0.82919 0.0
C586 C 0.04932 0.09249 0.78098 0.0
C587 C 0.99675 0.09918 0.77244 0.0
C588 C 0.95807 0.10646 0.7939 0.0
C589 C 0.97368 0.11875 0.82215 0.0
C590 C 0.09119 0.08156 0.75895 0.0
C591 C 0.90113 0.11039 0.78598 0.0
C592 C 0.97947 0.18875 0.71062 0.0
C593 C 0.96091 0.15839 0.68823 0.0
C594 C 0.99199 0.16938 0.73777 0.0
C595 C 0.98589 0.11791 0.74281 0.0
C596 C 0.96744 0.08669 0.72027 0.0
C597 C 0.95517 0.10742 0.69309 0.0
C598 C 0.01114 0.20461 0.76111 0.0
C599 C 0.96166 0.03158 0.72438 0.0
H600 H 0.105 0.10542 0.81524 0.0
H601 H 0.9447 0.1307 0.8378 0.0
H602 H 0.07653 0.05571 0.74203 0.0
H603 H 0.10298 0.1165 0.74806 0.0
H604 H 0.12629 0.06542 0.76944 0.0
H605 H 0.87574 0.10366 0.80516 0.0
H606 H 0.89318 0.14822 0.77776 0.0
H607 H 0.89068 0.08366 0.76858 0.0
H608 H 0.98383 0.2282 0.70704 0.0
H609 H 0.94176 0.08362 0.67564 0.0
H610 H 0.05018 0.19315 0.76897 0.0
H611 H 0.98406 0.20405 0.77991 0.0
H612 H 0.01421 0.24336 0.75326 0.0
H613 H 0.9998 0.01375 0.72008 0.0
H614 H 0.93268 0.01565 0.70896 0.0
H615 H 0.94985 0.02204 0.7469 0.0
C616 C 0.41771 0.63857 0.78966 0.0
C617 C 0.44321 0.62187 0.81462 0.0
C618 C 0.43695 0.62725 0.76189 0.0
C619 C 0.4826 0.59807 0.75915 0.0
C620 C 0.50373 0.57527 0.78426 0.0
C621 C 0.48445 0.58835 0.81188 0.0
C622 C 0.41274 0.65239 0.7359 0.0
C623 C 0.55032 0.54159 0.78232 0.0
C624 C 0.52472 0.59262 0.67978 0.0
C625 C 0.55542 0.63556 0.67842 0.0
C626 C 0.50479 0.57601 0.70673 0.0
C627 C 0.51501 0.60383 0.73235 0.0
C628 C 0.55052 0.64411 0.73111 0.0
C629 C 0.57042 0.65909 0.70423 0.0
C630 C 0.46984 0.53106 0.70734 0.0
C631 C 0.56337 0.67496 0.75765 0.0
H632 H 0.38612 0.66489 0.79189 0.0
H633 H 0.50434 0.57555 0.83127 0.0
H634 H 0.43889 0.68263 0.72838 0.0
H635 H 0.40793 0.62594 0.71767 0.0
H636 H 0.37406 0.66853 0.74111 0.0
H637 H 0.55108 0.51521 0.80083 0.0
H638 H 0.55027 0.52045 0.76162 0.0
H639 H 0.58666 0.56399 0.7832 0.0
H640 H 0.51319 0.57429 0.65979 0.0
H641 H 0.59462 0.69209 0.70309 0.0
H642 H 0.4286 0.54274 0.70511 0.0
H643 H 0.47378 0.51068 0.72816 0.0
H644 H 0.47883 0.50561 0.68904 0.0
H645 H 0.52765 0.69381 0.76549 0.0
H646 H 0.59351 0.70359 0.75311 0.0
H647 H 0.57775 0.65112 0.7755 0.0
C648 C 0.93716 0.83577 0.20859 0.0
C649 C 0.94945 0.86318 0.18371 0.0
C650 C 0.95561 0.84971 0.23602 0.0
C651 C 0.98679 0.8929 0.23884 0.0
C652 C 0.99399 0.92406 0.21428 0.0
C653 C 0.97571 0.90846 0.18672 0.0
C654 C 0.94623 0.81507 0.26132 0.0
C655 C 0.02418 0.97186 0.21652 0.0
C656 C 0.01616 0.8994 0.31887 0.0
C657 C 0.05962 0.8682 0.31984 0.0
C658 C 0.99607 0.91556 0.29195 0.0
C659 C 0.01905 0.89843 0.26578 0.0
C660 C 0.06723 0.87292 0.26713 0.0
C661 C 0.0869 0.85822 0.29421 0.0
C662 C 0.94683 0.94579 0.29157 0.0
C663 C 0.09391 0.8543 0.24001 0.0
H664 H 0.91641 0.80091 0.2062 0.0
H665 H 0.98515 0.9298 0.16747 0.0
H666 H 0.98381 0.7989 0.26854 0.0
H667 H 0.92946 0.83547 0.27998 0.0
H668 H 0.91924 0.78426 0.25564 0.0
H669 H 0.0104 -0.00107 0.20009 0.0
H670 H 0.0207 0.98851 0.2385 0.0
H671 H 0.06606 0.96472 0.21222 0.0
H672 H 0.99499 0.9072 0.33875 0.0
H673 H 0.12051 0.834 0.29507 0.0
H674 H 0.91246 0.92071 0.29101 0.0
H675 H 0.94524 0.96995 0.27209 0.0
H676 H 0.94383 0.96905 0.31143 0.0
H677 H 0.07124 0.82281 0.23089 0.0
H678 H 0.13423 0.84143 0.24452 0.0
H679 H 0.09567 0.88363 0.22324 0.0
C680 C 0.53908 0.22954 0.47778 0.0
C681 C 0.52373 0.27179 0.46249 0.0
C682 C 0.58474 0.22935 0.4945 0.0
C683 C 0.61633 0.27247 0.4958 0.0
C684 C 0.60081 0.31558 0.48068 0.0
C685 C 0.55414 0.31499 0.46447 0.0
C686 C 0.60001 0.18229 0.51001 0.0
C687 C 0.63489 0.36122 0.4803 0.0
C688 C 0.70167 0.25919 0.56156 0.0
C689 C 0.7446 0.23491 0.54952 0.0
C690 C 0.66248 0.27867 0.54367 0.0
C691 C 0.66528 0.27121 0.51323 0.0
C692 C 0.71141 0.25147 0.5009 0.0
C693 C 0.75081 0.23373 0.51932 0.0
C694 C 0.61513 0.30144 0.55767 0.0
C695 C 0.71648 0.24273 0.46862 0.0
H696 H 0.51589 0.196 0.47607 0.0
H697 H 0.54302 0.34739 0.45209 0.0
H698 H 0.63836 0.1693 0.5019 0.0
H699 H 0.60413 0.18937 0.53366 0.0
H700 H 0.57098 0.15211 0.50684 0.0
H701 H 0.61445 0.39355 0.47079 0.0
H702 H 0.64833 0.37059 0.50258 0.0
H703 H 0.6702 0.35397 0.46707 0.0
H704 H 0.69674 0.25954 0.58498 0.0
H705 H 0.7837 0.21405 0.51009 0.0
H706 H 0.58435 0.27271 0.56005 0.0
H707 H 0.59911 0.33167 0.54409 0.0
H708 H 0.62444 0.31631 0.57961 0.0
H709 H 0.69798 0.20674 0.46305 0.0
H710 H 0.75809 0.24113 0.46193 0.0
H711 H 0.69664 0.27192 0.45587 0.0
C712 C 0.9975 0.20194 0.99252 0.0
C713 C 0.9859 0.21886 0.96447 0.0
C714 C 0.96027 0.2057 0.01491 0.0
C715 C 0.91036 0.22543 0.00869 0.0
C716 C 0.8977 0.23948 0.97992 0.0
C717 C 0.93579 0.23651 0.95829 0.0
C718 C 0.9749 0.19088 0.04544 0.0
C719 C 0.84471 0.26001 0.97217 0.0
C720 C 0.78919 0.22286 0.05577 0.0
C721 C 0.78852 0.27204 0.06541 0.0
C722 C 0.83128 0.20512 0.03924 0.0
C723 C 0.87324 0.23747 0.03241 0.0
C724 C 0.8749 0.28546 0.04469 0.0
C725 C 0.83277 0.30189 0.0613 0.0
C726 C 0.8275 0.15373 0.02661 0.0
C727 C 0.91808 0.32169 0.03748 0.0
H728 H 0.03614 0.18782 0.99719 0.0
H729 H 0.92642 0.24853 0.93641 0.0
H730 H 0.97759 0.2243 0.05938 0.0
H731 H 0.94421 0.16668 0.05488 0.0
H732 H 0.01294 0.17146 0.04623 0.0
H733 H 0.84001 0.26566 0.94839 0.0
H734 H 0.81345 0.23461 0.97974 0.0
H735 H 0.839 0.29606 0.98326 0.0
H736 H 0.75509 0.19956 0.0589 0.0
H737 H 0.83263 0.33981 0.06903 0.0
H738 H 0.86621 0.13877 0.0206 0.0
H739 H 0.80293 0.15482 0.00674 0.0
H740 H 0.80838 0.12809 0.04219 0.0
H741 H 0.95685 0.3041 0.03977 0.0
H742 H 0.91695 0.3551 0.05155 0.0
H743 H 0.91403 0.33372 0.01452 0.0
C744 C 0.09395 0.21842 0.55823 0.0
C745 C 0.04499 0.20089 0.54916 0.0
C746 C 0.13584 0.22158 0.53894 0.0
C747 C 0.12863 0.20649 0.50977 0.0
C748 C 0.08092 0.18389 0.50124 0.0
C749 C 0.03939 0.181 0.52121 0.0
C750 C 0.18512 0.24746 0.54891 0.0
C751 C 0.07247 0.16709 0.47031 0.0
C752 C 0.18646 0.29429 0.45518 0.0
C753 C 0.23551 0.27343 0.44937 0.0
C754 C 0.15183 0.27266 0.4747 0.0
C755 C 0.16444 0.22664 0.48736 0.0
C756 C 0.21249 0.20356 0.48052 0.0
C757 C 0.24861 0.22837 0.46254 0.0
C758 C 0.10272 0.30056 0.48268 0.0
C759 C 0.22597 0.1532 0.49236 0.0
H760 H 0.09872 0.23263 0.58015 0.0
H761 H 0.00178 0.16663 0.51434 0.0
H762 H 0.22029 0.22816 0.54088 0.0
H763 H 0.1859 0.28557 0.53993 0.0
H764 H 0.18747 0.25 0.57299 0.0
H765 H 0.03393 0.14896 0.46722 0.0
H766 H 0.07478 0.19903 0.45525 0.0
H767 H 0.10397 0.14123 0.46402 0.0
H768 H 0.17545 0.32907 0.44526 0.0
H769 H 0.28663 0.21231 0.45857 0.0
H770 H 0.10098 0.30628 0.50656 0.0
H771 H 0.06767 0.27898 0.4763 0.0
H772 H 0.10054 0.33735 0.47201 0.0
H773 H 0.23892 0.15659 0.51527 0.0
H774 H 0.25793 0.13571 0.47975 0.0
H775 H 0.1913 0.12843 0.49191 0.0
C776 C 0.45031 0.22181 0.04216 0.0
C777 C 0.4555 0.25979 0.06254 0.0
C778 C 0.41049 0.22291 0.02126 0.0
C779 C 0.37538 0.26335 0.02063 0.0
C780 C 0.38054 0.30187 0.04141 0.0
C781 C 0.4205 0.29937 0.06233 0.0
C782 C 0.40524 0.18006 0.00032 0.0
C783 C 0.34347 0.34508 0.04225 0.0
C784 C 0.31007 0.26431 0.94694 0.0
C785 C 0.2636 0.2393 0.95319 0.0
C786 C 0.34458 0.27788 0.9693 0.0
C787 C 0.33311 0.26395 0.99837 0.0
C788 C 0.28398 0.24245 0.0049 0.0
C789 C 0.2493 0.23138 0.98218 0.0
C790 C 0.39568 0.30177 0.96094 0.0
C791 C 0.27081 0.22482 0.03518 0.0
H792 H 0.47703 0.19083 0.04289 0.0
H793 H 0.42423 0.3282 0.07862 0.0
H794 H 0.36518 0.16438 0.00138 0.0
H795 H 0.41174 0.19311 0.97776 0.0
H796 H 0.43355 0.15007 0.00498 0.0
H797 H 0.36236 0.37823 0.05203 0.0
H798 H 0.32891 0.35475 0.02025 0.0
H799 H 0.30941 0.33545 0.056 0.0
H800 H 0.32146 0.26963 0.92444 0.0
H801 H 0.21385 0.21075 0.98683 0.0
H802 H 0.42196 0.27323 0.95176 0.0
H803 H 0.41565 0.31936 0.97962 0.0
H804 H 0.38931 0.33003 0.94378 0.0
H805 H 0.29551 0.19249 0.04063 0.0
H806 H 0.22921 0.21356 0.03719 0.0
H807 H 0.27914 0.25401 0.05146 0.0
C808 C 0.47396 0.71326 0.51935 0.0
C809 C 0.4719 0.74739 0.54239 0.0
C810 C 0.43258 0.70856 0.49951 0.0
C811 C 0.38827 0.73907 0.50261 0.0
C812 C 0.38688 0.77505 0.52503 0.0
C813 C 0.4286 0.77864 0.54471 0.0
C814 C 0.43538 0.66939 0.47615 0.0
C815 C 0.34054 0.80881 0.5288 0.0
C816 C 0.29065 0.76236 0.44239 0.0
C817 C 0.2468 0.73737 0.45318 0.0
C818 C 0.33831 0.76103 0.45738 0.0
C819 C 0.34231 0.73276 0.48318 0.0
C820 C 0.29967 0.70306 0.49225 0.0
C821 C 0.25198 0.70643 0.4774 0.0
C822 C 0.38273 0.79339 0.4471 0.0
C823 C 0.30321 0.67068 0.5189 0.0
H824 H 0.5072 0.68894 0.51728 0.0
H825 H 0.42665 0.80517 0.56236 0.0
H826 H 0.40987 0.63781 0.48227 0.0
H827 H 0.42116 0.68374 0.45501 0.0
H828 H 0.47573 0.65541 0.47322 0.0
H829 H 0.34697 0.83688 0.54611 0.0
H830 H 0.33197 0.82824 0.50811 0.0
H831 H 0.3055 0.78661 0.53452 0.0
H832 H 0.28649 0.78664 0.42378 0.0
H833 H 0.218 0.68689 0.48561 0.0
H834 H 0.41986 0.77248 0.44698 0.0
H835 H 0.38767 0.82494 0.46233 0.0
H836 H 0.37567 0.80837 0.42496 0.0
H837 H 0.33956 0.64855 0.51843 0.0
H838 H 0.26932 0.64509 0.52073 0.0
H839 H 0.30458 0.69423 0.53866 0.0
C840 C 0.03056 0.80664 0.02106 0.0
C841 C 0.03374 0.77003 0.04265 0.0
C842 C 0.06848 0.81032 0.9991 0.0
C843 C 0.11074 0.77689 0.99888 0.0
C844 C 0.11457 0.74038 0.0209 0.0
C845 C 0.07612 0.73748 0.04249 0.0
C846 C 0.06335 0.85023 0.9764 0.0
C847 C 0.15879 0.70356 0.02137 0.0
C848 C 0.18162 0.72976 0.93338 0.0
C849 C 0.23254 0.74482 0.94005 0.0
C850 C 0.13957 0.74484 0.95058 0.0
C851 C 0.14899 0.77644 0.97457 0.0
C852 C 0.19888 0.79837 0.97816 0.0
C853 C 0.24063 0.78159 0.96103 0.0
C854 C 0.08682 0.7212 0.94562 0.0
C855 C 0.20958 0.83469 0.00235 0.0
H856 H 0.99856 0.83269 0.02134 0.0
H857 H 0.07918 0.7094 0.05921 0.0
H858 H 0.08937 0.88159 0.98225 0.0
H859 H 0.07521 0.837 0.95456 0.0
H860 H 0.02268 0.864 0.97502 0.0
H861 H 0.15617 0.67771 0.04009 0.0
H862 H 0.15863 0.68153 0.00099 0.0
H863 H 0.19676 0.72332 0.02256 0.0
H864 H 0.17562 0.70109 0.91717 0.0
H865 H 0.28015 0.79298 0.96632 0.0
H866 H 0.05521 0.74879 0.94799 0.0
H867 H 0.08035 0.69197 0.96219 0.0
H868 H 0.08386 0.70399 0.92373 0.0
H869 H 0.17615 0.86017 0.00529 0.0
H870 H 0.2454 0.8568 0.99803 0.0
H871 H 0.21521 0.81425 0.02302 0.0
C872 C 0.97533 0.76517 0.47392 0.0
C873 C 0.96951 0.73842 0.44787 0.0
C874 C 0.93413 0.76915 0.49391 0.0
C875 C 0.88617 0.74508 0.488 0.0
C876 C 0.88047 0.7169 0.46217 0.0
C877 C 0.92209 0.71406 0.44239 0.0
C878 C 0.94148 0.80012 0.52097 0.0
C879 C 0.82995 0.69047 0.45511 0.0
C880 C 0.78866 0.71217 0.54691 0.0
C881 C 0.74776 0.74444 0.54035 0.0
C882 C 0.83525 0.71343 0.53093 0.0
C883 C 0.84158 0.74903 0.50862 0.0
C884 C 0.80222 0.78486 0.50397 0.0
C885 C 0.75512 0.78139 0.51946 0.0
C886 C 0.8756 0.6739 0.53619 0.0
C887 C 0.80858 0.82487 0.48138 0.0
H888 H 0.01175 0.78414 0.47845 0.0
H889 H 0.91704 0.6935 0.42233 0.0
H890 H 0.91317 0.83106 0.521 0.0
H891 H 0.93355 0.77758 0.54062 0.0
H892 H 0.98152 0.81579 0.52264 0.0
H893 H 0.83248 0.66855 0.43472 0.0
H894 H 0.81903 0.66529 0.47317 0.0
H895 H 0.79807 0.71781 0.45272 0.0
H896 H 0.78243 0.68304 0.56276 0.0
H897 H 0.72325 0.80622 0.51442 0.0
H898 H 0.91502 0.69058 0.53832 0.0
H899 H 0.87656 0.6484 0.51726 0.0
H900 H 0.86709 0.65188 0.55603 0.0
H901 H 0.84664 0.84391 0.48427 0.0
H902 H 0.77694 0.85277 0.48252 0.0
H903 H 0.80851 0.80816 0.45934 0.0
C904 C 0.71229 0.76231 0.05365 0.0
C905 C 0.76037 0.74814 0.04185 0.0
C906 C 0.66556 0.755 0.03803 0.0
C907 C 0.66732 0.73415 0.00974 0.0
C908 C 0.7155 0.7172 0.99856 0.0
C909 C 0.76126 0.72412 0.01483 0.0
C910 C 0.61484 0.77233 0.05106 0.0
C911 C 0.71939 0.69489 0.96851 0.0
C912 C 0.54831 0.68723 0.96847 0.0
C913 C 0.53665 0.72699 0.95012 0.0
C914 C 0.58892 0.68977 0.989 0.0
C915 C 0.61996 0.73301 0.99079 0.0
C916 C 0.60857 0.77365 0.9724 0.0
C917 C 0.56693 0.77028 0.9525 0.0
C918 C 0.59918 0.64582 0.00842 0.0
C919 C 0.64146 0.82013 0.97306 0.0
H920 H 0.7115 0.78215 0.07414 0.0
H921 H 0.79847 0.71356 0.00553 0.0
H922 H 0.60117 0.80569 0.03933 0.0
H923 H 0.5843 0.7434 0.04863 0.0
H924 H 0.61899 0.78168 0.07448 0.0
H925 H 0.75923 0.68108 0.96369 0.0
H926 H 0.69137 0.66378 0.96611 0.0
H927 H 0.70902 0.72315 0.95202 0.0
H928 H 0.52703 0.65341 0.96609 0.0
H929 H 0.55866 0.80144 0.93845 0.0
H930 H 0.59174 0.65624 0.03139 0.0
H931 H 0.64058 0.63432 0.00693 0.0
H932 H 0.5742 0.6136 0.0028 0.0
H933 H 0.64146 0.83623 0.99525 0.0
H934 H 0.62732 0.84855 0.95754 0.0
H935 H 0.6825 0.81108 0.96759 0.0
loop_
_geom_bond_atom_site_label_1
_geom_bond_atom_site_label_2
_geom_bond_distance
_geom_bond_site_symmetry_2
_ccdc_geom_bond_type
Zn0 O6 1.920 . S
Zn0 O12 1.898 . S
Zn0 O15 1.905 . S
Zn1 O9 1.905 . S
Zn1 O10 1.898 . S
Zn1 O18 1.920 . S
Zn2 O5 2.080 . S
Zn2 O8 2.114 . S
Zn2 O11 2.120 . S
Zn2 O13 2.120 . S
Zn2 O14 2.114 . S
Zn2 O17 2.080 . S
C3 O8 1.166 . S
C3 O9 1.182 . S
C4 O10 1.167 . S
C4 O11 1.299 . S
O5 Zn2 2.080 . S
O5 C19 1.305 . S
O6 Zn0 1.920 . S
O6 C19 1.234 . S
C7 O12 1.167 . S
C7 O13 1.299 . S
O8 Zn2 2.114 . S
O8 C3 1.166 . S
O9 Zn1 1.905 . S
O9 C3 1.182 . S
O10 Zn1 1.898 . S
O10 C4 1.167 . S
O11 Zn2 2.120 . S
O11 C4 1.299 . S
O12 Zn0 1.898 . S
O12 C7 1.167 . S
O13 Zn2 2.120 . S
O13 C7 1.299 . S
O14 Zn2 2.114 . S
O14 C16 1.166 . S
O15 Zn0 1.905 . S
O15 C16 1.182 . S
C16 O14 1.166 . S
C16 O15 1.182 . S
O17 Zn2 2.080 . S
O17 C20 1.305 . S
O18 Zn1 1.920 . S
O18 C20 1.234 . S
C19 O5 1.305 . S
C19 O6 1.234 . S
C20 O17 1.305 . S
C20 O18 1.234 . S
Zn21 O27 1.920 . S
Zn21 O33 1.898 . S
Zn21 O36 1.905 . S
Zn22 O30 1.905 . S
Zn22 O31 1.898 . S
Zn22 O39 1.920 . S
Zn23 O26 2.080 . S
Zn23 O29 2.114 . S
Zn23 O32 2.120 . S
Zn23 O34 2.120 . S
Zn23 O35 2.114 . S
Zn23 O38 2.080 . S
C24 O29 1.166 . S
C24 O30 1.182 . S
C25 O31 1.167 . S
C25 O32 1.299 . S
O26 Zn23 2.080 . S
O26 C40 1.305 . S
O27 Zn21 1.920 . S
O27 C40 1.234 . S
C28 O33 1.167 . S
C28 O34 1.299 . S
O29 Zn23 2.114 . S
O29 C24 1.166 . S
O30 Zn22 1.905 . S
O30 C24 1.182 . S
O31 Zn22 1.898 . S
O31 C25 1.167 . S
O32 Zn23 2.120 . S
O32 C25 1.299 . S
O33 Zn21 1.898 . S
O33 C28 1.167 . S
O34 Zn23 2.120 . S
O34 C28 1.299 . S
O35 Zn23 2.114 . S
O35 C37 1.166 . S
O36 Zn21 1.905 . S
O36 C37 1.182 . S
C37 O35 1.166 . S
C37 O36 1.182 . S
O38 Zn23 2.080 . S
O38 C41 1.305 . S
O39 Zn22 1.920 . S
O39 C41 1.234 . S
C40 O26 1.305 . S
C40 O27 1.234 . S
C41 O38 1.305 . S
C41 O39 1.234 . S
Zn42 O48 1.920 . S
Zn42 O54 1.898 . S
Zn42 O57 1.905 . S
Zn43 O51 1.905 . S
Zn43 O52 1.898 . S
Zn43 O60 1.920 . S
Zn44 O47 2.080 . S
Zn44 O50 2.114 . S
Zn44 O53 2.120 . S
Zn44 O55 2.120 . S
Zn44 O56 2.114 . S
Zn44 O59 2.080 . S
C45 O50 1.166 . S
C45 O51 1.182 . S
C46 O52 1.167 . S
C46 O53 1.299 . S
O47 Zn44 2.080 . S
O47 C61 1.305 . S
O48 Zn42 1.920 . S
O48 C61 1.234 . S
C49 O54 1.167 . S
C49 O55 1.299 . S
O50 Zn44 2.114 . S
O50 C45 1.166 . S
O51 Zn43 1.905 . S
O51 C45 1.182 . S
O52 Zn43 1.898 . S
O52 C46 1.167 . S
O53 Zn44 2.120 . S
O53 C46 1.299 . S
O54 Zn42 1.898 . S
O54 C49 1.167 . S
O55 Zn44 2.120 . S
O55 C49 1.299 . S
O56 Zn44 2.114 . S
O56 C58 1.166 . S
O57 Zn42 1.905 . S
O57 C58 1.182 . S
C58 O56 1.166 . S
C58 O57 1.182 . S
O59 Zn44 2.080 . S
O59 C62 1.305 . S
O60 Zn43 1.920 . S
O60 C62 1.234 . S
C61 O47 1.305 . S
C61 O48 1.234 . S
C62 O59 1.305 . S
C62 O60 1.234 . S
Zn63 O69 1.920 . S
Zn63 O75 1.898 . S
Zn63 O78 1.905 . S
Zn64 O72 1.905 . S
Zn64 O73 1.898 . S
Zn64 O81 1.920 . S
Zn65 O68 2.080 . S
Zn65 O71 2.114 . S
Zn65 O74 2.120 . S
Zn65 O76 2.120 . S
Zn65 O77 2.114 . S
Zn65 O80 2.080 . S
C66 O71 1.166 . S
C66 O72 1.182 . S
C67 O73 1.167 . S
C67 O74 1.299 . S
O68 Zn65 2.080 . S
O68 C82 1.305 . S
O69 Zn63 1.920 . S
O69 C82 1.234 . S
C70 O75 1.167 . S
C70 O76 1.299 . S
O71 Zn65 2.114 . S
O71 C66 1.166 . S
O72 Zn64 1.905 . S
O72 C66 1.182 . S
O73 Zn64 1.898 . S
O73 C67 1.167 . S
O74 Zn65 2.120 . S
O74 C67 1.299 . S
O75 Zn63 1.898 . S
O75 C70 1.167 . S
O76 Zn65 2.120 . S
O76 C70 1.299 . S
O77 Zn65 2.114 . S
O77 C79 1.166 . S
O78 Zn63 1.905 . S
O78 C79 1.182 . S
C79 O77 1.166 . S
C79 O78 1.182 . S
O80 Zn65 2.080 . S
O80 C83 1.305 . S
O81 Zn64 1.920 . S
O81 C83 1.234 . S
C82 O68 1.305 . S
C82 O69 1.234 . S
C83 O80 1.305 . S
C83 O81 1.234 . S
Zn84 O90 1.920 . S
Zn84 O96 1.898 . S
Zn84 O99 1.905 . S
Zn85 O93 1.905 . S
Zn85 O94 1.898 . S
Zn85 O102 1.920 . S
Zn86 O89 2.080 . S
Zn86 O92 2.114 . S
Zn86 O95 2.120 . S
Zn86 O97 2.120 . S
Zn86 O98 2.114 . S
Zn86 O101 2.080 . S
C87 O92 1.166 . S
C87 O93 1.182 . S
C88 O94 1.167 . S
C88 O95 1.299 . S
O89 Zn86 2.080 . S
O89 C103 1.305 . S
O90 Zn84 1.920 . S
O90 C103 1.234 . S
C91 O96 1.167 . S
C91 O97 1.299 . S
O92 Zn86 2.114 . S
O92 C87 1.166 . S
O93 Zn85 1.905 . S
O93 C87 1.182 . S
O94 Zn85 1.898 . S
O94 C88 1.167 . S
O95 Zn86 2.120 . S
O95 C88 1.299 . S
O96 Zn84 1.898 . S
O96 C91 1.167 . S
O97 Zn86 2.120 . S
O97 C91 1.299 . S
O98 Zn86 2.114 . S
O98 C100 1.166 . S
O99 Zn84 1.905 . S
O99 C100 1.182 . S
C100 O98 1.166 . S
C100 O99 1.182 . S
O101 Zn86 2.080 . S
O101 C104 1.305 . S
O102 Zn85 1.920 . S
O102 C104 1.234 . S
C103 O89 1.305 . S
C103 O90 1.234 . S
C104 O101 1.305 . S
C104 O102 1.234 . S
Zn105 O111 1.920 . S
Zn105 O117 1.898 . S
Zn105 O120 1.905 . S
Zn106 O114 1.905 . S
Zn106 O115 1.898 . S
Zn106 O123 1.920 . S
Zn107 O110 2.080 . S
Zn107 O113 2.114 . S
Zn107 O116 2.120 . S
Zn107 O118 2.120 . S
Zn107 O119 2.114 . S
Zn107 O122 2.080 . S
C108 O113 1.166 . S
C108 O114 1.182 . S
C109 O115 1.167 . S
C109 O116 1.299 . S
O110 Zn107 2.080 . S
O110 C124 1.305 . S
O111 Zn105 1.920 . S
O111 C124 1.234 . S
C112 O117 1.167 . S
C112 O118 1.299 . S
O113 Zn107 2.114 . S
O113 C108 1.166 . S
O114 Zn106 1.905 . S
O114 C108 1.182 . S
O115 Zn106 1.898 . S
O115 C109 1.167 . S
O116 Zn107 2.120 . S
O116 C109 1.299 . S
O117 Zn105 1.898 . S
O117 C112 1.167 . S
O118 Zn107 2.120 . S
O118 C112 1.299 . S
O119 Zn107 2.114 . S
O119 C121 1.166 . S
O120 Zn105 1.905 . S
O120 C121 1.182 . S
C121 O119 1.166 . S
C121 O120 1.182 . S
O122 Zn107 2.080 . S
O122 C125 1.305 . S
O123 Zn106 1.920 . S
O123 C125 1.234 . S
C124 O110 1.305 . S
C124 O111 1.234 . S
C125 O122 1.305 . S
C125 O123 1.234 . S
Zn126 O132 1.920 . S
Zn126 O138 1.898 . S
Zn126 O141 1.905 . S
Zn127 O135 1.905 . S
Zn127 O136 1.898 . S
Zn127 O144 1.920 . S
Zn128 O131 2.080 . S
Zn128 O134 2.114 . S
Zn128 O137 2.120 . S
Zn128 O139 2.120 . S
Zn128 O140 2.114 . S
Zn128 O143 2.080 . S
C129 O134 1.166 . S
C129 O135 1.182 . S
C130 O136 1.167 . S
C130 O137 1.299 . S
O131 Zn128 2.080 . S
O131 C145 1.305 . S
O132 Zn126 1.920 . S
O132 C145 1.234 . S
C133 O138 1.167 . S
C133 O139 1.299 . S
O134 Zn128 2.114 . S
O134 C129 1.166 . S
O135 Zn127 1.905 . S
O135 C129 1.182 . S
O136 Zn127 1.898 . S
O136 C130 1.167 . S
O137 Zn128 2.120 . S
O137 C130 1.299 . S
O138 Zn126 1.898 . S
O138 C133 1.167 . S
O139 Zn128 2.120 . S
O139 C133 1.299 . S
O140 Zn128 2.114 . S
O140 C142 1.166 . S
O141 Zn126 1.905 . S
O141 C142 1.182 . S
C142 O140 1.166 . S
C142 O141 1.182 . S
O143 Zn128 2.080 . S
O143 C146 1.305 . S
O144 Zn127 1.920 . S
O144 C146 1.234 . S
C145 O131 1.305 . S
C145 O132 1.234 . S
C146 O143 1.305 . S
C146 O144 1.234 . S
Zn147 O153 1.920 . S
Zn147 O159 1.898 . S
Zn147 O162 1.905 . S
Zn148 O156 1.905 . S
Zn148 O157 1.898 . S
Zn148 O165 1.920 . S
Zn149 O152 2.080 . S
Zn149 O155 2.114 . S
Zn149 O158 2.120 . S
Zn149 O160 2.120 . S
Zn149 O161 2.114 . S
Zn149 O164 2.080 . S
C150 O155 1.166 . S
C150 O156 1.182 . S
C151 O157 1.167 . S
C151 O158 1.299 . S
O152 Zn149 2.080 . S
O152 C166 1.305 . S
O153 Zn147 1.920 . S
O153 C166 1.234 . S
C154 O159 1.167 . S
C154 O160 1.299 . S
O155 Zn149 2.114 . S
O155 C150 1.166 . S
O156 Zn148 1.905 . S
O156 C150 1.182 . S
O157 Zn148 1.898 . S
O157 C151 1.167 . S
O158 Zn149 2.120 . S
O158 C151 1.299 . S
O159 Zn147 1.898 . S
O159 C154 1.167 . S
O160 Zn149 2.120 . S
O160 C154 1.299 . S
O161 Zn149 2.114 . S
O161 C163 1.166 . S
O162 Zn147 1.905 . S
O162 C163 1.182 . S
C163 O161 1.166 . S
C163 O162 1.182 . S
O164 Zn149 2.080 . S
O164 C167 1.305 . S
O165 Zn148 1.920 . S
O165 C167 1.234 . S
C166 O152 1.305 . S
C166 O153 1.234 . S
C167 O164 1.305 . S
C167 O165 1.234 . S
C168 C169 1.391 . S
C168 C170 1.394 1_565 S
C168 H184 0.931 . S
C169 C168 1.391 . S
C169 C173 1.376 . S
C170 C168 1.394 1_545 S
C170 C171 1.369 . S
C170 C174 1.531 . S
C171 C170 1.369 . S
C171 C172 1.410 . S
C171 C179 1.503 . S
C172 C171 1.410 . S
C172 C173 1.392 1_545 S
C172 C175 1.511 . S
C173 C169 1.376 . S
C173 C172 1.392 1_565 S
C173 H185 0.929 . S
C174 C170 1.531 . S
C174 H186 0.960 . S
C174 H187 0.962 . S
C174 H188 0.960 1_545 S
C175 C172 1.511 . S
C175 H189 0.961 . S
C175 H190 0.961 . S
C175 H191 0.961 . S
C176 C177 1.370 . S
C176 C178 1.363 . S
C176 H192 0.931 . S
C177 C176 1.370 . S
C177 C181 1.408 . S
C178 C176 1.363 . S
C178 C179 1.370 . S
C178 C182 1.524 . S
C179 C171 1.503 . S
C179 C178 1.370 . S
C179 C180 1.403 . S
C180 C179 1.403 . S
C180 C181 1.404 . S
C180 C183 1.539 . S
C181 C177 1.408 . S
C181 C180 1.404 . S
C181 H193 0.930 . S
C182 C178 1.524 . S
C182 H194 0.956 . S
C182 H195 0.961 . S
C182 H196 0.961 . S
C183 C180 1.539 . S
C183 H197 0.958 . S
C183 H198 0.961 . S
C183 H199 0.960 . S
H184 C168 0.931 . S
H185 C173 0.929 . S
H186 C174 0.960 . S
H187 C174 0.962 . S
H188 C174 0.960 1_565 S
H189 C175 0.961 . S
H190 C175 0.961 . S
H191 C175 0.961 . S
H192 C176 0.931 . S
H193 C181 0.930 . S
H194 C182 0.956 . S
H195 C182 0.961 . S
H196 C182 0.961 . S
H197 C183 0.958 . S
H198 C183 0.961 . S
H199 C183 0.960 . S
C200 C201 1.391 . S
C200 C202 1.394 . S
C200 H216 0.931 . S
C201 C200 1.391 . S
C201 C205 1.376 . S
C202 C200 1.394 . S
C202 C203 1.369 . S
C202 C206 1.531 . S
C203 C202 1.369 . S
C203 C204 1.410 . S
C203 C211 1.503 . S
C204 C203 1.410 . S
C204 C205 1.392 . S
C204 C207 1.511 . S
C205 C201 1.376 . S
C205 C204 1.392 . S
C205 H217 0.929 . S
C206 C202 1.531 . S
C206 H218 0.960 . S
C206 H219 0.962 . S
C206 H220 0.960 . S
C207 C204 1.511 . S
C207 H221 0.961 . S
C207 H222 0.961 . S
C207 H223 0.961 . S
C208 C209 1.370 . S
C208 C210 1.363 . S
C208 H224 0.931 . S
C209 C208 1.370 . S
C209 C213 1.408 . S
C210 C208 1.363 . S
C210 C211 1.370 . S
C210 C214 1.524 . S
C211 C203 1.503 . S
C211 C210 1.370 . S
C211 C212 1.403 . S
C212 C211 1.403 . S
C212 C213 1.404 . S
C212 C215 1.539 . S
C213 C209 1.408 . S
C213 C212 1.404 . S
C213 H225 0.930 . S
C214 C210 1.524 . S
C214 H226 0.956 . S
C214 H227 0.961 . S
C214 H228 0.961 . S
C215 C212 1.539 . S
C215 H229 0.958 . S
C215 H230 0.961 . S
C215 H231 0.960 . S
H216 C200 0.931 . S
H217 C205 0.929 . S
H218 C206 0.960 . S
H219 C206 0.962 . S
H220 C206 0.960 . S
H221 C207 0.961 . S
H222 C207 0.961 . S
H223 C207 0.961 . S
H224 C208 0.931 . S
H225 C213 0.930 . S
H226 C214 0.956 . S
H227 C214 0.961 . S
H228 C214 0.961 . S
H229 C215 0.958 . S
H230 C215 0.961 . S
H231 C215 0.960 . S
C232 C233 1.391 . S
C232 C234 1.394 . S
C232 H248 0.931 . S
C233 C232 1.391 . S
C233 C237 1.376 . S
C234 C232 1.394 . S
C234 C235 1.369 . S
C234 C238 1.531 . S
C235 C234 1.369 . S
C235 C236 1.410 . S
C235 C243 1.503 . S
C236 C235 1.410 . S
C236 C237 1.392 . S
C236 C239 1.511 . S
C237 C233 1.376 . S
C237 C236 1.392 . S
C237 H249 0.929 . S
C238 C234 1.531 . S
C238 H250 0.960 . S
C238 H251 0.962 . S
C238 H252 0.960 . S
C239 C236 1.511 . S
C239 H253 0.961 . S
C239 H254 0.961 . S
C239 H255 0.961 . S
C240 C241 1.370 . S
C240 C242 1.363 . S
C240 H256 0.931 . S
C241 C240 1.370 . S
C241 C245 1.408 . S
C242 C240 1.363 . S
C242 C243 1.370 . S
C242 C246 1.524 . S
C243 C235 1.503 . S
C243 C242 1.370 . S
C243 C244 1.403 . S
C244 C243 1.403 . S
C244 C245 1.404 . S
C244 C247 1.539 . S
C245 C241 1.408 . S
C245 C244 1.404 . S
C245 H257 0.930 . S
C246 C242 1.524 . S
C246 H258 0.956 . S
C246 H259 0.961 . S
C246 H260 0.961 . S
C247 C244 1.539 . S
C247 H261 0.958 . S
C247 H262 0.961 . S
C247 H263 0.960 . S
H248 C232 0.931 . S
H249 C237 0.929 . S
H250 C238 0.960 . S
H251 C238 0.962 . S
H252 C238 0.960 . S
H253 C239 0.961 . S
H254 C239 0.961 . S
H255 C239 0.961 . S
H256 C240 0.931 . S
H257 C245 0.930 . S
H258 C246 0.956 . S
H259 C246 0.961 . S
H260 C246 0.961 . S
H261 C247 0.958 . S
H262 C247 0.961 . S
H263 C247 0.960 . S
C264 C265 1.391 . S
C264 C266 1.394 . S
C264 H280 0.931 . S
C265 C264 1.391 . S
C265 C269 1.376 . S
C266 C264 1.394 . S
C266 C267 1.369 . S
C266 C270 1.531 . S
C267 C266 1.369 . S
C267 C268 1.410 . S
C267 C275 1.503 . S
C268 C267 1.410 . S
C268 C269 1.392 . S
C268 C271 1.511 . S
C269 C265 1.376 . S
C269 C268 1.392 . S
C269 H281 0.929 . S
C270 C266 1.531 . S
C270 H282 0.960 . S
C270 H283 0.962 . S
C270 H284 0.960 . S
C271 C268 1.511 . S
C271 H285 0.961 . S
C271 H286 0.961 . S
C271 H287 0.961 . S
C272 C273 1.370 . S
C272 C274 1.363 1_565 S
C272 H288 0.931 . S
C273 C272 1.370 . S
C273 C277 1.408 . S
C274 C272 1.363 1_545 S
C274 C275 1.370 . S
C274 C278 1.524 . S
C275 C267 1.503 . S
C275 C274 1.370 . S
C275 C276 1.403 . S
C276 C275 1.403 . S
C276 C277 1.404 1_545 S
C276 C279 1.539 . S
C277 C273 1.408 . S
C277 C276 1.404 1_565 S
C277 H289 0.930 . S
C278 C274 1.524 . S
C278 H290 0.956 . S
C278 H291 0.961 . S
C278 H292 0.961 . S
C279 C276 1.539 . S
C279 H293 0.958 . S
C279 H294 0.961 1_545 S
C279 H295 0.960 . S
H280 C264 0.931 . S
H281 C269 0.929 . S
H282 C270 0.960 . S
H283 C270 0.962 . S
H284 C270 0.960 . S
H285 C271 0.961 . S
H286 C271 0.961 . S
H287 C271 0.961 . S
H288 C272 0.931 . S
H289 C277 0.930 . S
H290 C278 0.956 . S
H291 C278 0.961 . S
H292 C278 0.961 . S
H293 C279 0.958 . S
H294 C279 0.961 1_565 S
H295 C279 0.960 . S
C296 C297 1.391 . S
C296 C298 1.394 1_545 S
C296 H312 0.931 . S
C297 C296 1.391 . S
C297 C301 1.376 . S
C298 C296 1.394 1_565 S
C298 C299 1.369 . S
C298 C302 1.531 . S
C299 C298 1.369 . S
C299 C300 1.410 . S
C299 C307 1.503 . S
C300 C299 1.410 . S
C300 C301 1.392 1_565 S
C300 C303 1.511 . S
C301 C297 1.376 . S
C301 C300 1.392 1_545 S
C301 H313 0.929 . S
C302 C298 1.531 . S
C302 H314 0.960 . S
C302 H315 0.962 . S
C302 H316 0.960 1_565 S
C303 C300 1.511 . S
C303 H317 0.961 . S
C303 H318 0.961 . S
C303 H319 0.961 . S
C304 C305 1.370 . S
C304 C306 1.363 . S
C304 H320 0.931 . S
C305 C304 1.370 . S
C305 C309 1.408 . S
C306 C304 1.363 . S
C306 C307 1.370 . S
C306 C310 1.524 . S
C307 C299 1.503 . S
C307 C306 1.370 . S
C307 C308 1.403 . S
C308 C307 1.403 . S
C308 C309 1.404 . S
C308 C311 1.539 . S
C309 C305 1.408 . S
C309 C308 1.404 . S
C309 H321 0.930 . S
C310 C306 1.524 . S
C310 H322 0.956 . S
C310 H323 0.961 . S
C310 H324 0.961 . S
C311 C308 1.539 . S
C311 H325 0.958 . S
C311 H326 0.961 . S
C311 H327 0.960 . S
H312 C296 0.931 . S
H313 C301 0.929 . S
H314 C302 0.960 . S
H315 C302 0.962 . S
H316 C302 0.960 1_545 S
H317 C303 0.961 . S
H318 C303 0.961 . S
H319 C303 0.961 . S
H320 C304 0.931 . S
H321 C309 0.930 . S
H322 C310 0.956 . S
H323 C310 0.961 . S
H324 C310 0.961 . S
H325 C311 0.958 . S
H326 C311 0.961 . S
H327 C311 0.960 . S
C328 C329 1.391 . S
C328 C330 1.394 . S
C328 H344 0.931 . S
C329 C328 1.391 . S
C329 C333 1.376 . S
C330 C328 1.394 . S
C330 C331 1.369 . S
C330 C334 1.531 . S
C331 C330 1.369 . S
C331 C332 1.410 . S
C331 C339 1.503 . S
C332 C331 1.410 . S
C332 C333 1.392 . S
C332 C335 1.511 . S
C333 C329 1.376 . S
C333 C332 1.392 . S
C333 H345 0.929 . S
C334 C330 1.531 . S
C334 H346 0.960 . S
C334 H347 0.962 . S
C334 H348 0.960 . S
C335 C332 1.511 . S
C335 H349 0.961 . S
C335 H350 0.961 . S
C335 H351 0.961 . S
C336 C337 1.370 . S
C336 C338 1.363 . S
C336 H352 0.931 . S
C337 C336 1.370 . S
C337 C341 1.408 . S
C338 C336 1.363 . S
C338 C339 1.370 . S
C338 C342 1.524 . S
C339 C331 1.503 . S
C339 C338 1.370 . S
C339 C340 1.403 . S
C340 C339 1.403 . S
C340 C341 1.404 . S
C340 C343 1.539 . S
C341 C337 1.408 . S
C341 C340 1.404 . S
C341 H353 0.930 . S
C342 C338 1.524 . S
C342 H354 0.956 . S
C342 H355 0.961 . S
C342 H356 0.961 . S
C343 C340 1.539 . S
C343 H357 0.958 . S
C343 H358 0.961 . S
C343 H359 0.960 . S
H344 C328 0.931 . S
H345 C333 0.929 . S
H346 C334 0.960 . S
H347 C334 0.962 . S
H348 C334 0.960 . S
H349 C335 0.961 . S
H350 C335 0.961 . S
H351 C335 0.961 . S
H352 C336 0.931 . S
H353 C341 0.930 . S
H354 C342 0.956 . S
H355 C342 0.961 . S
H356 C342 0.961 . S
H357 C343 0.958 . S
H358 C343 0.961 . S
H359 C343 0.960 . S
C360 C361 1.391 . S
C360 C362 1.394 . S
C360 H376 0.931 . S
C361 C360 1.391 . S
C361 C365 1.376 . S
C362 C360 1.394 . S
C362 C363 1.369 . S
C362 C366 1.531 . S
C363 C362 1.369 . S
C363 C364 1.410 . S
C363 C371 1.503 . S
C364 C363 1.410 . S
C364 C365 1.392 . S
C364 C367 1.511 . S
C365 C361 1.376 . S
C365 C364 1.392 . S
C365 H377 0.929 . S
C366 C362 1.531 . S
C366 H378 0.960 . S
C366 H379 0.962 . S
C366 H380 0.960 . S
C367 C364 1.511 . S
C367 H381 0.961 . S
C367 H382 0.961 . S
C367 H383 0.961 . S
C368 C369 1.370 . S
C368 C370 1.363 . S
C368 H384 0.931 . S
C369 C368 1.370 . S
C369 C373 1.408 . S
C370 C368 1.363 . S
C370 C371 1.370 . S
C370 C374 1.524 . S
C371 C363 1.503 . S
C371 C370 1.370 . S
C371 C372 1.403 . S
C372 C371 1.403 . S
C372 C373 1.404 . S
C372 C375 1.539 . S
C373 C369 1.408 . S
C373 C372 1.404 . S
C373 H385 0.930 . S
C374 C370 1.524 . S
C374 H386 0.956 . S
C374 H387 0.961 . S
C374 H388 0.961 . S
C375 C372 1.539 . S
C375 H389 0.958 . S
C375 H390 0.961 . S
C375 H391 0.960 . S
H376 C360 0.931 . S
H377 C365 0.929 . S
H378 C366 0.960 . S
H379 C366 0.962 . S
H380 C366 0.960 . S
H381 C367 0.961 . S
H382 C367 0.961 . S
H383 C367 0.961 . S
H384 C368 0.931 . S
H385 C373 0.930 . S
H386 C374 0.956 . S
H387 C374 0.961 . S
H388 C374 0.961 . S
H389 C375 0.958 . S
H390 C375 0.961 . S
H391 C375 0.960 . S
C392 C393 1.391 . S
C392 C394 1.394 1_545 S
C392 H408 0.931 . S
C393 C392 1.391 . S
C393 C397 1.376 . S
C394 C392 1.394 1_565 S
C394 C395 1.369 . S
C394 C398 1.531 . S
C395 C394 1.369 . S
C395 C396 1.410 . S
C395 C403 1.503 . S
C396 C395 1.410 . S
C396 C397 1.392 1_565 S
C396 C399 1.511 . S
C397 C393 1.376 . S
C397 C396 1.392 1_545 S
C397 H409 0.929 . S
C398 C394 1.531 . S
C398 H410 0.960 . S
C398 H411 0.962 . S
C398 H412 0.960 . S
C399 C396 1.511 . S
C399 H413 0.961 1_565 S
C399 H414 0.961 . S
C399 H415 0.961 . S
C400 C401 1.370 . S
C400 C402 1.363 . S
C400 H416 0.931 . S
C401 C400 1.370 . S
C401 C405 1.408 . S
C402 C400 1.363 . S
C402 C403 1.370 . S
C402 C406 1.524 . S
C403 C395 1.503 . S
C403 C402 1.370 . S
C403 C404 1.403 . S
C404 C403 1.403 . S
C404 C405 1.404 . S
C404 C407 1.539 . S
C405 C401 1.408 . S
C405 C404 1.404 . S
C405 H417 0.930 . S
C406 C402 1.524 . S
C406 H418 0.956 . S
C406 H419 0.961 . S
C406 H420 0.961 . S
C407 C404 1.539 . S
C407 H421 0.958 . S
C407 H422 0.961 . S
C407 H423 0.960 . S
H408 C392 0.931 . S
H409 C397 0.929 . S
H410 C398 0.960 . S
H411 C398 0.962 . S
H412 C398 0.960 . S
H413 C399 0.961 1_545 S
H414 C399 0.961 . S
H415 C399 0.961 . S
H416 C400 0.931 . S
H417 C405 0.930 . S
H418 C406 0.956 . S
H419 C406 0.961 . S
H420 C406 0.961 . S
H421 C407 0.958 . S
H422 C407 0.961 . S
H423 C407 0.960 . S
C424 C425 1.391 . S
C424 C426 1.394 . S
C424 H440 0.931 . S
C425 C424 1.391 . S
C425 C429 1.376 . S
C426 C424 1.394 . S
C426 C427 1.369 . S
C426 C430 1.531 . S
C427 C426 1.369 . S
C427 C428 1.410 . S
C427 C435 1.503 . S
C428 C427 1.410 . S
C428 C429 1.392 . S
C428 C431 1.511 . S
C429 C425 1.376 . S
C429 C428 1.392 . S
C429 H441 0.929 . S
C430 C426 1.531 . S
C430 H442 0.960 . S
C430 H443 0.962 . S
C430 H444 0.960 . S
C431 C428 1.511 . S
C431 H445 0.961 . S
C431 H446 0.961 . S
C431 H447 0.961 . S
C432 C433 1.370 . S
C432 C434 1.363 . S
C432 H448 0.931 . S
C433 C432 1.370 . S
C433 C437 1.408 . S
C434 C432 1.363 . S
C434 C435 1.370 . S
C434 C438 1.524 . S
C435 C427 1.503 . S
C435 C434 1.370 . S
C435 C436 1.403 . S
C436 C435 1.403 . S
C436 C437 1.404 . S
C436 C439 1.539 . S
C437 C433 1.408 . S
C437 C436 1.404 . S
C437 H449 0.930 . S
C438 C434 1.524 . S
C438 H450 0.956 . S
C438 H451 0.961 . S
C438 H452 0.961 . S
C439 C436 1.539 . S
C439 H453 0.958 . S
C439 H454 0.961 . S
C439 H455 0.960 . S
H440 C424 0.931 . S
H441 C429 0.929 . S
H442 C430 0.960 . S
H443 C430 0.962 . S
H444 C430 0.960 . S
H445 C431 0.961 . S
H446 C431 0.961 . S
H447 C431 0.961 . S
H448 C432 0.931 . S
H449 C437 0.930 . S
H450 C438 0.956 . S
H451 C438 0.961 . S
H452 C438 0.961 . S
H453 C439 0.958 . S
H454 C439 0.961 . S
H455 C439 0.960 . S
C456 C457 1.391 . S
C456 C458 1.394 . S
C456 H472 0.931 . S
C457 C456 1.391 . S
C457 C461 1.376 . S
C458 C456 1.394 . S
C458 C459 1.369 . S
C458 C462 1.531 1_565 S
C459 C458 1.369 . S
C459 C460 1.410 1_655 S
C459 C467 1.503 1_664 S
C460 C459 1.410 1_455 S
C460 C461 1.392 1_455 S
C460 C463 1.511 . S
C461 C457 1.376 . S
C461 C460 1.392 1_655 S
C461 H473 0.929 1_655 S
C462 C458 1.531 1_545 S
C462 H474 0.960 . S
C462 H475 0.962 1_554 S
C462 H476 0.960 . S
C463 C460 1.511 . S
C463 H477 0.961 . S
C463 H478 0.961 1_554 S
C463 H479 0.961 . S
C464 C465 1.370 . S
C464 C466 1.363 . S
C464 H480 0.931 . S
C465 C464 1.370 . S
C465 C469 1.408 . S
C466 C464 1.363 . S
C466 C467 1.370 . S
C466 C470 1.524 1_445 S
C467 C459 1.503 1_446 S
C467 C466 1.370 . S
C467 C468 1.403 1_556 S
C468 C467 1.403 1_554 S
C468 C469 1.404 1_554 S
C468 C471 1.539 . S
C469 C465 1.408 . S
C469 C468 1.404 1_556 S
C469 H481 0.930 . S
C470 C466 1.524 1_665 S
C470 H482 0.956 . S
C470 H483 0.961 . S
C470 H484 0.961 . S
C471 C468 1.539 . S
C471 H485 0.958 . S
C471 H486 0.961 . S
C471 H487 0.960 . S
H472 C456 0.931 . S
H473 C461 0.929 1_455 S
H474 C462 0.960 . S
H475 C462 0.962 1_556 S
H476 C462 0.960 . S
H477 C463 0.961 . S
H478 C463 0.961 1_556 S
H479 C463 0.961 . S
H480 C464 0.931 . S
H481 C469 0.930 . S
H482 C470 0.956 . S
H483 C470 0.961 . S
H484 C470 0.961 . S
H485 C471 0.958 . S
H486 C471 0.961 . S
H487 C471 0.960 . S
C488 C489 1.391 . S
C488 C490 1.394 . S
C488 H504 0.931 . S
C489 C488 1.391 . S
C489 C493 1.376 . S
C490 C488 1.394 . S
C490 C491 1.369 . S
C490 C494 1.531 1_645 S
C491 C490 1.369 . S
C491 C492 1.410 . S
C491 C499 1.503 1_645 S
C492 C491 1.410 . S
C492 C493 1.392 . S
C492 C495 1.511 . S
C493 C489 1.376 . S
C493 C492 1.392 . S
C493 H505 0.929 . S
C494 C490 1.531 1_465 S
C494 H506 0.960 . S
C494 H507 0.962 . S
C494 H508 0.960 . S
C495 C492 1.511 . S
C495 H509 0.961 . S
C495 H510 0.961 . S
C495 H511 0.961 . S
C496 C497 1.370 . S
C496 C498 1.363 . S
C496 H512 0.931 . S
C497 C496 1.370 . S
C497 C501 1.408 . S
C498 C496 1.363 . S
C498 C499 1.370 . S
C498 C502 1.524 1_565 S
C499 C491 1.503 1_465 S
C499 C498 1.370 . S
C499 C500 1.403 1_455 S
C500 C499 1.403 1_655 S
C500 C501 1.404 1_655 S
C500 C503 1.539 . S
C501 C497 1.408 . S
C501 C500 1.404 1_455 S
C501 H513 0.930 1_455 S
C502 C498 1.524 1_545 S
C502 H514 0.956 . S
C502 H515 0.961 . S
C502 H516 0.961 . S
C503 C500 1.539 . S
C503 H517 0.958 . S
C503 H518 0.961 . S
C503 H519 0.960 . S
H504 C488 0.931 . S
H505 C493 0.929 . S
H506 C494 0.960 . S
H507 C494 0.962 . S
H508 C494 0.960 . S
H509 C495 0.961 . S
H510 C495 0.961 . S
H511 C495 0.961 . S
H512 C496 0.931 . S
H513 C501 0.930 1_655 S
H514 C502 0.956 . S
H515 C502 0.961 . S
H516 C502 0.961 . S
H517 C503 0.958 . S
H518 C503 0.961 . S
H519 C503 0.960 . S
C520 C521 1.391 . S
C520 C522 1.394 . S
C520 H536 0.931 . S
C521 C520 1.391 . S
C521 C525 1.376 . S
C522 C520 1.394 . S
C522 C523 1.369 . S
C522 C526 1.531 . S
C523 C522 1.369 . S
C523 C524 1.410 . S
C523 C531 1.503 1_556 S
C524 C523 1.410 . S
C524 C525 1.392 . S
C524 C527 1.511 1_556 S
C525 C521 1.376 . S
C525 C524 1.392 . S
C525 H537 0.929 . S
C526 C522 1.531 . S
C526 H538 0.960 . S
C526 H539 0.962 . S
C526 H540 0.960 . S
C527 C524 1.511 1_554 S
C527 H541 0.961 . S
C527 H542 0.961 . S
C527 H543 0.961 . S
C528 C529 1.370 . S
C528 C530 1.363 . S
C528 H544 0.931 . S
C529 C528 1.370 . S
C529 C533 1.408 . S
C530 C528 1.363 . S
C530 C531 1.370 . S
C530 C534 1.524 . S
C531 C523 1.503 1_554 S
C531 C530 1.370 . S
C531 C532 1.403 . S
C532 C531 1.403 . S
C532 C533 1.404 . S
C532 C535 1.539 . S
C533 C529 1.408 . S
C533 C532 1.404 . S
C533 H545 0.930 . S
C534 C530 1.524 . S
C534 H546 0.956 1_554 S
C534 H547 0.961 . S
C534 H548 0.961 . S
C535 C532 1.539 . S
C535 H549 0.958 1_554 S
C535 H550 0.961 . S
C535 H551 0.959 1_554 S
H536 C520 0.931 . S
H537 C525 0.929 . S
H538 C526 0.960 . S
H539 C526 0.962 . S
H540 C526 0.960 . S
H541 C527 0.961 . S
H542 C527 0.961 . S
H543 C527 0.961 . S
H544 C528 0.931 . S
H545 C533 0.930 . S
H546 C534 0.956 1_556 S
H547 C534 0.961 . S
H548 C534 0.961 . S
H549 C535 0.958 1_556 S
H550 C535 0.961 . S
H551 C535 0.959 1_556 S
C552 C553 1.391 . S
C552 C554 1.394 . S
C552 H568 0.931 . S
C553 C552 1.391 . S
C553 C557 1.376 . S
C554 C552 1.394 . S
C554 C555 1.369 . S
C554 C558 1.531 . S
C555 C554 1.369 . S
C555 C556 1.410 . S
C555 C563 1.503 . S
C556 C555 1.410 . S
C556 C557 1.392 . S
C556 C559 1.511 . S
C557 C553 1.376 . S
C557 C556 1.392 . S
C557 H569 0.929 . S
C558 C554 1.531 . S
C558 H570 0.960 . S
C558 H571 0.962 . S
C558 H572 0.960 . S
C559 C556 1.511 . S
C559 H573 0.961 . S
C559 H574 0.961 . S
C559 H575 0.961 . S
C560 C561 1.370 . S
C560 C562 1.363 . S
C560 H576 0.931 . S
C561 C560 1.370 . S
C561 C565 1.408 . S
C562 C560 1.363 . S
C562 C563 1.370 . S
C562 C566 1.524 . S
C563 C555 1.503 . S
C563 C562 1.370 . S
C563 C564 1.403 . S
C564 C563 1.403 . S
C564 C565 1.404 . S
C564 C567 1.539 . S
C565 C561 1.408 . S
C565 C564 1.404 . S
C565 H577 0.930 . S
C566 C562 1.524 . S
C566 H578 0.956 . S
C566 H579 0.961 . S
C566 H580 0.961 . S
C567 C564 1.539 . S
C567 H581 0.958 . S
C567 H582 0.961 . S
C567 H583 0.960 . S
H568 C552 0.931 . S
H569 C557 0.929 . S
H570 C558 0.960 . S
H571 C558 0.962 . S
H572 C558 0.960 . S
H573 C559 0.961 . S
H574 C559 0.961 . S
H575 C559 0.961 . S
H576 C560 0.931 . S
H577 C565 0.930 . S
H578 C566 0.956 . S
H579 C566 0.961 . S
H580 C566 0.961 . S
H581 C567 0.958 . S
H582 C567 0.961 . S
H583 C567 0.960 . S
C584 C585 1.391 . S
C584 C586 1.394 . S
C584 H600 0.931 . S
C585 C584 1.391 . S
C585 C589 1.376 1_455 S
C586 C584 1.394 . S
C586 C587 1.369 . S
C586 C590 1.531 . S
C587 C586 1.369 . S
C587 C588 1.410 1_455 S
C587 C595 1.503 1_455 S
C588 C587 1.410 1_655 S
C588 C589 1.392 . S
C588 C591 1.511 . S
C589 C585 1.376 1_655 S
C589 C588 1.392 . S
C589 H601 0.929 . S
C590 C586 1.531 . S
C590 H602 0.960 . S
C590 H603 0.962 . S
C590 H604 0.960 . S
C591 C588 1.511 . S
C591 H605 0.961 . S
C591 H606 0.961 . S
C591 H607 0.961 . S
C592 C593 1.370 . S
C592 C594 1.363 . S
C592 H608 0.931 . S
C593 C592 1.370 . S
C593 C597 1.408 . S
C594 C592 1.363 . S
C594 C595 1.370 . S
C594 C598 1.524 1_655 S
C595 C587 1.503 1_655 S
C595 C594 1.370 . S
C595 C596 1.403 . S
C596 C595 1.403 . S
C596 C597 1.404 . S
C596 C599 1.539 . S
C597 C593 1.408 . S
C597 C596 1.404 . S
C597 H609 0.930 . S
C598 C594 1.524 1_455 S
C598 H610 0.956 . S
C598 H611 0.961 1_455 S
C598 H612 0.961 . S
C599 C596 1.539 . S
C599 H613 0.958 . S
C599 H614 0.961 . S
C599 H615 0.960 . S
H600 C584 0.931 . S
H601 C589 0.929 . S
H602 C590 0.960 . S
H603 C590 0.962 . S
H604 C590 0.960 . S
H605 C591 0.961 . S
H606 C591 0.961 . S
H607 C591 0.961 . S
H608 C592 0.931 . S
H609 C597 0.930 . S
H610 C598 0.956 . S
H611 C598 0.961 1_655 S
H612 C598 0.961 . S
H613 C599 0.958 . S
H614 C599 0.961 . S
H615 C599 0.960 . S
C616 C617 1.391 . S
C616 C618 1.394 . S
C616 H632 0.931 . S
C617 C616 1.391 . S
C617 C621 1.376 . S
C618 C616 1.394 . S
C618 C619 1.369 . S
C618 C622 1.531 . S
C619 C618 1.369 . S
C619 C620 1.410 . S
C619 C627 1.503 . S
C620 C619 1.410 . S
C620 C621 1.392 . S
C620 C623 1.511 . S
C621 C617 1.376 . S
C621 C620 1.392 . S
C621 H633 0.929 . S
C622 C618 1.531 . S
C622 H634 0.960 . S
C622 H635 0.962 . S
C622 H636 0.960 . S
C623 C620 1.511 . S
C623 H637 0.961 . S
C623 H638 0.961 . S
C623 H639 0.961 . S
C624 C625 1.370 . S
C624 C626 1.363 . S
C624 H640 0.931 . S
C625 C624 1.370 . S
C625 C629 1.408 . S
C626 C624 1.363 . S
C626 C627 1.370 . S
C626 C630 1.524 . S
C627 C619 1.503 . S
C627 C626 1.370 . S
C627 C628 1.403 . S
C628 C627 1.403 . S
C628 C629 1.404 . S
C628 C631 1.539 . S
C629 C625 1.408 . S
C629 C628 1.404 . S
C629 H641 0.930 . S
C630 C626 1.524 . S
C630 H642 0.956 . S
C630 H643 0.961 . S
C630 H644 0.961 . S
C631 C628 1.539 . S
C631 H645 0.958 . S
C631 H646 0.961 . S
C631 H647 0.960 . S
H632 C616 0.931 . S
H633 C621 0.929 . S
H634 C622 0.960 . S
H635 C622 0.962 . S
H636 C622 0.960 . S
H637 C623 0.961 . S
H638 C623 0.961 . S
H639 C623 0.961 . S
H640 C624 0.931 . S
H641 C629 0.930 . S
H642 C630 0.956 . S
H643 C630 0.961 . S
H644 C630 0.961 . S
H645 C631 0.958 . S
H646 C631 0.961 . S
H647 C631 0.960 . S
C648 C649 1.391 . S
C648 C650 1.394 . S
C648 H664 0.931 . S
C649 C648 1.391 . S
C649 C653 1.376 . S
C650 C648 1.394 . S
C650 C651 1.369 . S
C650 C654 1.531 . S
C651 C650 1.369 . S
C651 C652 1.410 1_655 S
C651 C659 1.503 1_655 S
C652 C651 1.410 1_455 S
C652 C653 1.392 1_455 S
C652 C655 1.511 . S
C653 C649 1.376 . S
C653 C652 1.392 1_655 S
C653 H665 0.929 . S
C654 C650 1.531 . S
C654 H666 0.960 . S
C654 H667 0.962 . S
C654 H668 0.960 . S
C655 C652 1.511 . S
C655 H669 0.961 . S
C655 H670 0.961 . S
C655 H671 0.961 . S
C656 C657 1.370 . S
C656 C658 1.363 1_455 S
C656 H672 0.931 1_455 S
C657 C656 1.370 . S
C657 C661 1.408 . S
C658 C656 1.363 1_655 S
C658 C659 1.370 1_655 S
C658 C662 1.524 . S
C659 C651 1.503 1_455 S
C659 C658 1.370 1_455 S
C659 C660 1.403 . S
C660 C659 1.403 . S
C660 C661 1.404 . S
C660 C663 1.539 . S
C661 C657 1.408 . S
C661 C660 1.404 . S
C661 H673 0.930 . S
C662 C658 1.524 . S
C662 H674 0.956 . S
C662 H675 0.961 . S
C662 H676 0.961 . S
C663 C660 1.539 . S
C663 H677 0.958 . S
C663 H678 0.961 . S
C663 H679 0.960 . S
H664 C648 0.931 . S
H665 C653 0.929 . S
H666 C654 0.960 . S
H667 C654 0.962 . S
H668 C654 0.960 . S
H669 C655 0.961 . S
H670 C655 0.961 . S
H671 C655 0.961 . S
H672 C656 0.931 1_655 S
H673 C661 0.930 . S
H674 C662 0.956 . S
H675 C662 0.961 . S
H676 C662 0.961 . S
H677 C663 0.958 . S
H678 C663 0.961 . S
H679 C663 0.960 . S
C680 C681 1.391 . S
C680 C682 1.394 . S
C680 H696 0.931 . S
C681 C680 1.391 . S
C681 C685 1.376 . S
C682 C680 1.394 . S
C682 C683 1.369 . S
C682 C686 1.531 . S
C683 C682 1.369 . S
C683 C684 1.410 . S
C683 C691 1.503 . S
C684 C683 1.410 . S
C684 C685 1.392 . S
C684 C687 1.511 . S
C685 C681 1.376 . S
C685 C684 1.392 . S
C685 H697 0.929 . S
C686 C682 1.531 . S
C686 H698 0.960 . S
C686 H699 0.962 . S
C686 H700 0.960 . S
C687 C684 1.511 . S
C687 H701 0.961 . S
C687 H702 0.961 . S
C687 H703 0.961 . S
C688 C689 1.370 . S
C688 C690 1.363 . S
C688 H704 0.931 . S
C689 C688 1.370 . S
C689 C693 1.408 . S
C690 C688 1.363 . S
C690 C691 1.370 . S
C690 C694 1.524 . S
C691 C683 1.503 . S
C691 C690 1.370 . S
C691 C692 1.403 . S
C692 C691 1.403 . S
C692 C693 1.404 . S
C692 C695 1.539 . S
C693 C689 1.408 . S
C693 C692 1.404 . S
C693 H705 0.930 . S
C694 C690 1.524 . S
C694 H706 0.956 . S
C694 H707 0.961 . S
C694 H708 0.961 . S
C695 C692 1.539 . S
C695 H709 0.958 . S
C695 H710 0.961 . S
C695 H711 0.960 . S
H696 C680 0.931 . S
H697 C685 0.929 . S
H698 C686 0.960 . S
H699 C686 0.962 . S
H700 C686 0.960 . S
H701 C687 0.961 . S
H702 C687 0.961 . S
H703 C687 0.961 . S
H704 C688 0.931 . S
H705 C693 0.930 . S
H706 C694 0.956 . S
H707 C694 0.961 . S
H708 C694 0.961 . S
H709 C695 0.958 . S
H710 C695 0.961 . S
H711 C695 0.960 . S
C712 C713 1.391 . S
C712 C714 1.394 . S
C712 H728 0.931 1_655 S
C713 C712 1.391 . S
C713 C717 1.376 . S
C714 C712 1.394 . S
C714 C715 1.369 . S
C714 C718 1.531 1_556 S
C715 C714 1.369 . S
C715 C716 1.410 . S
C715 C723 1.503 . S
C716 C715 1.410 . S
C716 C717 1.392 . S
C716 C719 1.511 . S
C717 C713 1.376 . S
C717 C716 1.392 . S
C717 H729 0.929 . S
C718 C714 1.531 1_554 S
C718 H730 0.960 . S
C718 H731 0.962 . S
C718 H732 0.960 . S
C719 C716 1.511 . S
C719 H733 0.961 . S
C719 H734 0.961 . S
C719 H735 0.961 . S
C720 C721 1.370 . S
C720 C722 1.363 . S
C720 H736 0.931 . S
C721 C720 1.370 . S
C721 C725 1.408 . S
C722 C720 1.363 . S
C722 C723 1.370 1_554 S
C722 C726 1.524 1_554 S
C723 C715 1.503 . S
C723 C722 1.370 1_556 S
C723 C724 1.403 1_556 S
C724 C723 1.403 1_554 S
C724 C725 1.404 . S
C724 C727 1.539 . S
C725 C721 1.408 . S
C725 C724 1.404 . S
C725 H737 0.930 . S
C726 C722 1.524 1_556 S
C726 H738 0.956 . S
C726 H739 0.961 . S
C726 H740 0.961 . S
C727 C724 1.539 . S
C727 H741 0.958 . S
C727 H742 0.961 . S
C727 H743 0.960 1_554 S
H728 C712 0.931 1_455 S
H729 C717 0.929 . S
H730 C718 0.960 . S
H731 C718 0.962 . S
H732 C718 0.960 . S
H733 C719 0.961 . S
H734 C719 0.961 . S
H735 C719 0.961 . S
H736 C720 0.931 . S
H737 C725 0.930 . S
H738 C726 0.956 . S
H739 C726 0.961 . S
H740 C726 0.961 . S
H741 C727 0.958 . S
H742 C727 0.961 . S
H743 C727 0.960 1_556 S
C744 C745 1.391 . S
C744 C746 1.394 . S
C744 H760 0.931 . S
C745 C744 1.391 . S
C745 C749 1.376 . S
C746 C744 1.394 . S
C746 C747 1.369 . S
C746 C750 1.531 . S
C747 C746 1.369 . S
C747 C748 1.410 . S
C747 C755 1.503 . S
C748 C747 1.410 . S
C748 C749 1.392 . S
C748 C751 1.511 . S
C749 C745 1.376 . S
C749 C748 1.392 . S
C749 H761 0.929 . S
C750 C746 1.531 . S
C750 H762 0.960 . S
C750 H763 0.962 . S
C750 H764 0.960 . S
C751 C748 1.511 . S
C751 H765 0.961 . S
C751 H766 0.961 . S
C751 H767 0.961 . S
C752 C753 1.370 . S
C752 C754 1.363 . S
C752 H768 0.931 . S
C753 C752 1.370 . S
C753 C757 1.408 . S
C754 C752 1.363 . S
C754 C755 1.370 . S
C754 C758 1.524 . S
C755 C747 1.503 . S
C755 C754 1.370 . S
C755 C756 1.403 . S
C756 C755 1.403 . S
C756 C757 1.404 . S
C756 C759 1.539 . S
C757 C753 1.408 . S
C757 C756 1.404 . S
C757 H769 0.930 . S
C758 C754 1.524 . S
C758 H770 0.956 . S
C758 H771 0.961 . S
C758 H772 0.961 . S
C759 C756 1.539 . S
C759 H773 0.958 . S
C759 H774 0.961 . S
C759 H775 0.960 . S
H760 C744 0.931 . S
H761 C749 0.929 . S
H762 C750 0.960 . S
H763 C750 0.962 . S
H764 C750 0.960 . S
H765 C751 0.961 . S
H766 C751 0.961 . S
H767 C751 0.961 . S
H768 C752 0.931 . S
H769 C757 0.930 . S
H770 C758 0.956 . S
H771 C758 0.961 . S
H772 C758 0.961 . S
H773 C759 0.958 . S
H774 C759 0.961 . S
H775 C759 0.960 . S
C776 C777 1.391 . S
C776 C778 1.394 . S
C776 H792 0.931 . S
C777 C776 1.391 . S
C777 C781 1.376 . S
C778 C776 1.394 . S
C778 C779 1.369 . S
C778 C782 1.531 . S
C779 C778 1.369 . S
C779 C780 1.410 . S
C779 C787 1.503 . S
C780 C779 1.410 . S
C780 C781 1.392 . S
C780 C783 1.511 . S
C781 C777 1.376 . S
C781 C780 1.392 . S
C781 H793 0.929 . S
C782 C778 1.531 . S
C782 H794 0.960 . S
C782 H795 0.962 1_554 S
C782 H796 0.960 . S
C783 C780 1.511 . S
C783 H797 0.961 . S
C783 H798 0.961 . S
C783 H799 0.961 . S
C784 C785 1.370 . S
C784 C786 1.363 . S
C784 H800 0.931 . S
C785 C784 1.370 . S
C785 C789 1.446 . S
C786 C784 1.363 . S
C786 C787 1.370 1_556 S
C786 C790 1.524 . S
C787 C779 1.503 . S
C787 C786 1.370 1_554 S
C787 C788 1.403 . S
C788 C787 1.403 . S
C788 C789 1.380 1_554 S
C788 C791 1.539 . S
C789 C785 1.446 . S
C789 C788 1.380 1_556 S
C789 H801 0.917 1_556 S
C790 C786 1.524 . S
C790 H802 0.956 . S
C790 H803 0.961 . S
C790 H804 0.961 . S
C791 C788 1.539 . S
C791 H805 0.958 . S
C791 H806 0.961 . S
C791 H807 0.960 . S
H792 C776 0.931 . S
H793 C781 0.929 . S
H794 C782 0.960 . S
H795 C782 0.962 1_556 S
H796 C782 0.960 . S
H797 C783 0.961 . S
H798 C783 0.961 . S
H799 C783 0.961 . S
H800 C784 0.931 . S
H801 C789 0.917 1_554 S
H802 C790 0.956 . S
H803 C790 0.961 . S
H804 C790 0.961 . S
H805 C791 0.958 . S
H806 C791 0.961 . S
H807 C791 0.960 . S
C808 C809 1.391 . S
C808 C810 1.394 . S
C808 H824 0.931 . S
C809 C808 1.391 . S
C809 C813 1.376 . S
C810 C808 1.394 . S
C810 C811 1.369 . S
C810 C814 1.531 . S
C811 C810 1.369 . S
C811 C812 1.410 . S
C811 C819 1.503 . S
C812 C811 1.410 . S
C812 C813 1.392 . S
C812 C815 1.511 . S
C813 C809 1.376 . S
C813 C812 1.392 . S
C813 H825 0.929 . S
C814 C810 1.531 . S
C814 H826 0.960 . S
C814 H827 0.962 . S
C814 H828 0.960 . S
C815 C812 1.511 . S
C815 H829 0.961 . S
C815 H830 0.961 . S
C815 H831 0.961 . S
C816 C817 1.370 . S
C816 C818 1.363 . S
C816 H832 0.931 . S
C817 C816 1.370 . S
C817 C821 1.408 . S
C818 C816 1.363 . S
C818 C819 1.370 . S
C818 C822 1.524 . S
C819 C811 1.503 . S
C819 C818 1.370 . S
C819 C820 1.403 . S
C820 C819 1.403 . S
C820 C821 1.404 . S
C820 C823 1.539 . S
C821 C817 1.408 . S
C821 C820 1.404 . S
C821 H833 0.930 . S
C822 C818 1.524 . S
C822 H834 0.956 . S
C822 H835 0.961 . S
C822 H836 0.961 . S
C823 C820 1.539 . S
C823 H837 0.958 . S
C823 H838 0.961 . S
C823 H839 0.960 . S
H824 C808 0.931 . S
H825 C813 0.929 . S
H826 C814 0.960 . S
H827 C814 0.962 . S
H828 C814 0.960 . S
H829 C815 0.961 . S
H830 C815 0.961 . S
H831 C815 0.961 . S
H832 C816 0.931 . S
H833 C821 0.930 . S
H834 C822 0.956 . S
H835 C822 0.961 . S
H836 C822 0.961 . S
H837 C823 0.958 . S
H838 C823 0.961 . S
H839 C823 0.960 . S
C840 C841 1.391 . S
C840 C842 1.394 . S
C840 H856 0.931 . S
C841 C840 1.391 . S
C841 C845 1.376 . S
C842 C840 1.394 . S
C842 C843 1.369 . S
C842 C846 1.531 1_554 S
C843 C842 1.369 . S
C843 C844 1.410 . S
C843 C851 1.503 . S
C844 C843 1.410 . S
C844 C845 1.392 . S
C844 C847 1.511 . S
C845 C841 1.376 . S
C845 C844 1.392 . S
C845 H857 0.929 . S
C846 C842 1.531 1_556 S
C846 H858 0.960 . S
C846 H859 0.962 . S
C846 H860 0.960 . S
C847 C844 1.511 . S
C847 H861 0.961 . S
C847 H862 0.961 . S
C847 H863 0.961 . S
C848 C849 1.370 . S
C848 C850 1.363 . S
C848 H864 0.931 . S
C849 C848 1.370 . S
C849 C853 1.408 . S
C850 C848 1.363 . S
C850 C851 1.370 1_556 S
C850 C854 1.524 . S
C851 C843 1.503 . S
C851 C850 1.370 1_554 S
C851 C852 1.403 . S
C852 C851 1.403 . S
C852 C853 1.404 1_554 S
C852 C855 1.539 . S
C853 C849 1.408 . S
C853 C852 1.404 1_556 S
C853 H865 0.930 . S
C854 C850 1.524 . S
C854 H866 0.956 . S
C854 H867 0.976 . S
C854 H868 0.961 . S
C855 C852 1.539 . S
C855 H869 0.958 . S
C855 H870 0.961 . S
C855 H871 0.960 . S
H856 C840 0.931 . S
H857 C845 0.929 . S
H858 C846 0.960 . S
H859 C846 0.962 . S
H860 C846 0.960 . S
H861 C847 0.961 . S
H862 C847 0.961 . S
H863 C847 0.961 . S
H864 C848 0.931 . S
H865 C853 0.930 . S
H866 C854 0.956 . S
H867 C854 0.976 . S
H868 C854 0.961 . S
H869 C855 0.958 . S
H870 C855 0.961 . S
H871 C855 0.960 . S
C872 C873 1.391 . S
C872 C874 1.394 . S
C872 H888 0.931 . S
C873 C872 1.391 . S
C873 C877 1.376 . S
C874 C872 1.394 . S
C874 C875 1.369 . S
C874 C878 1.531 . S
C875 C874 1.369 . S
C875 C876 1.410 . S
C875 C883 1.503 . S
C876 C875 1.410 . S
C876 C877 1.392 . S
C876 C879 1.511 . S
C877 C873 1.376 . S
C877 C876 1.392 . S
C877 H889 0.929 . S
C878 C874 1.531 . S
C878 H890 0.960 . S
C878 H891 0.962 . S
C878 H892 0.960 . S
C879 C876 1.511 . S
C879 H893 0.961 . S
C879 H894 0.961 . S
C879 H895 0.961 . S
C880 C881 1.370 . S
C880 C882 1.363 . S
C880 H896 0.931 . S
C881 C880 1.370 . S
C881 C885 1.408 . S
C882 C880 1.363 . S
C882 C883 1.370 . S
C882 C886 1.524 . S
C883 C875 1.503 . S
C883 C882 1.370 . S
C883 C884 1.403 . S
C884 C883 1.403 . S
C884 C885 1.404 . S
C884 C887 1.539 . S
C885 C881 1.408 . S
C885 C884 1.404 . S
C885 H897 0.930 . S
C886 C882 1.524 . S
C886 H898 0.956 . S
C886 H899 0.961 . S
C886 H900 0.961 . S
C887 C884 1.539 . S
C887 H901 0.958 . S
C887 H902 0.961 . S
C887 H903 0.960 . S
H888 C872 0.931 . S
H889 C877 0.929 . S
H890 C878 0.960 . S
H891 C878 0.962 . S
H892 C878 0.960 . S
H893 C879 0.961 . S
H894 C879 0.961 . S
H895 C879 0.961 . S
H896 C880 0.931 . S
H897 C885 0.930 . S
H898 C886 0.956 . S
H899 C886 0.961 . S
H900 C886 0.961 . S
H901 C887 0.958 . S
H902 C887 0.961 . S
H903 C887 0.960 . S
C904 C905 1.391 . S
C904 C906 1.394 . S
C904 H920 0.931 . S
C905 C904 1.391 . S
C905 C909 1.376 . S
C906 C904 1.394 . S
C906 C907 1.369 1_554 S
C906 C910 1.531 . S
C907 C906 1.369 1_556 S
C907 C908 1.410 . S
C907 C915 1.503 . S
C908 C907 1.410 . S
C908 C909 1.392 1_556 S
C908 C911 1.511 . S
C909 C905 1.376 . S
C909 C908 1.392 1_554 S
C909 H921 0.929 1_554 S
C910 C906 1.531 . S
C910 H922 0.960 . S
C910 H923 0.962 . S
C910 H924 0.960 . S
C911 C908 1.511 . S
C911 H925 0.961 . S
C911 H926 0.961 . S
C911 H927 0.961 . S
C912 C913 1.370 . S
C912 C914 1.363 . S
C912 H928 0.931 . S
C913 C912 1.370 . S
C913 C917 1.408 . S
C914 C912 1.363 . S
C914 C915 1.370 . S
C914 C918 1.524 1_556 S
C915 C907 1.503 . S
C915 C914 1.370 . S
C915 C916 1.403 . S
C916 C915 1.403 . S
C916 C917 1.404 . S
C916 C919 1.539 . S
C917 C913 1.408 . S
C917 C916 1.404 . S
C917 H929 0.930 . S
C918 C914 1.524 1_554 S
C918 H930 0.956 . S
C918 H931 0.961 . S
C918 H932 0.961 . S
C919 C916 1.539 . S
C919 H933 0.958 . S
C919 H934 0.961 . S
C919 H935 0.960 . S
H920 C904 0.931 . S
H921 C909 0.929 1_556 S
H922 C910 0.960 . S
H923 C910 0.962 . S
H924 C910 0.960 . S
H925 C911 0.961 . S
H926 C911 0.961 . S
H927 C911 0.961 . S
H928 C912 0.931 . S
H929 C917 0.930 . S
H930 C918 0.956 . S
H931 C918 0.961 . S
H932 C918 0.961 . S
H933 C919 0.958 . S
H934 C919 0.961 . S
H935 C919 0.960 . S
C169 C142 1.216 . S
C177 C3 1.363 . S
C201 C37 1.399 . S
C209 C163 1.176 . S
C233 C100 1.077 . S
C241 C58 1.376 . S
C265 C79 1.334 . S
C273 C121 1.176 . S
C297 C45 1.076 . S
C305 C87 1.387 . S
C329 C108 1.382 . S
C337 C66 1.178 . S
C361 C16 1.227 . S
C369 C129 1.368 . S
C393 C24 1.222 . S
C401 C150 1.373 . S
C425 C19 0.746 . S
C433 C103 0.599 . S
C457 C124 0.673 . S
C465 C41 0.628 . S
C489 C62 0.551 . S
C497 C145 0.685 . S
C521 C166 0.748 . S
C529 C83 0.600 . S
C553 C70 1.226 . S
C561 C4 1.229 . S
C585 C28 1.295 . S
C593 C49 1.271 . S
C617 C151 1.186 . S
C625 C88 1.234 . S
C649 C109 1.200 . S
C657 C130 1.246 . S
C681 C20 1.665 . S
C689 C46 1.619 . S
C713 C40 1.676 1_655 S
C721 C67 1.604 . S
C745 C61 1.695 1_455 S
C753 C7 1.636 . S
C777 C82 1.662 . S
C785 C25 1.614 . S
C809 C104 1.689 . S
C817 C133 1.630 . S
C841 C125 1.687 1_455 S
C849 C154 1.629 . S
C873 C146 1.698 1_655 S
C881 C91 1.634 . S
C905 C112 1.583 . S
C913 C167 1.682 . S
