# Generated by pormake.
# Topology ukn, (4)-cn, num edge types: 1
# Building blocks:
#     Node 0, Type 0, BuildingBlock: QUQFOY_clean_sbu_3, # of connection points: 4
#     Node 1, Type 0, BuildingBlock: QUQFOY_clean_sbu_3, # of connection points: 4
#     Node 2, Type 0, BuildingBlock: QUQFOY_clean_sbu_3, # of connection points: 4
#     Node 3, Type 0, BuildingBlock: QUQFOY_clean_sbu_3, # of connection points: 4
#     Node 4, Type 0, BuildingBlock: QUQFOY_clean_sbu_3, # of connection points: 4
#     Node 5, Type 0, BuildingBlock: QUQFOY_clean_sbu_3, # of connection points: 4
#     Node 6, Type 0, BuildingBlock: QUQFOY_clean_sbu_3, # of connection points: 4
#     Node 7, Type 0, BuildingBlock: QUQFOY_clean_sbu_3, # of connection points: 4
#     Node 8, Type 0, BuildingBlock: QUQFOY_clean_sbu_3, # of connection points: 4
#     Node 9, Type 0, BuildingBlock: QUQFOY_clean_sbu_3, # of connection points: 4
#     Node 10, Type 0, BuildingBlock: QUQFOY_clean_sbu_3, # of connection points: 4
#     Node 11, Type 0, BuildingBlock: QUQFOY_clean_sbu_3, # of connection points: 4
#     Node 12, Type 0, BuildingBlock: QUQFOY_clean_sbu_3, # of connection points: 4
#     Node 13, Type 0, BuildingBlock: QUQFOY_clean_sbu_3, # of connection points: 4
#     Node 14, Type 0, BuildingBlock: QUQFOY_clean_sbu_3, # of connection points: 4
#     Node 15, Type 0, BuildingBlock: QUQFOY_clean_sbu_3, # of connection points: 4
#     Node 16, Type 0, BuildingBlock: QUQFOY_clean_sbu_3, # of connection points: 4
#     Node 17, Type 0, BuildingBlock: QUQFOY_clean_sbu_3, # of connection points: 4
#     Node 18, Type 0, BuildingBlock: QUQFOY_clean_sbu_3, # of connection points: 4
#     Node 19, Type 0, BuildingBlock: QUQFOY_clean_sbu_3, # of connection points: 4
#     Node 20, Type 0, BuildingBlock: QUQFOY_clean_sbu_3, # of connection points: 4
#     Node 21, Type 0, BuildingBlock: QUQFOY_clean_sbu_3, # of connection points: 4
#     Node 22, Type 0, BuildingBlock: QUQFOY_clean_sbu_3, # of connection points: 4
#     Node 23, Type 0, BuildingBlock: QUQFOY_clean_sbu_3, # of connection points: 4
#     Node 24, Type 0, BuildingBlock: QUQFOY_clean_sbu_3, # of connection points: 4
#     Node 25, Type 0, BuildingBlock: QUQFOY_clean_sbu_3, # of connection points: 4
#     Node 26, Type 0, BuildingBlock: QUQFOY_clean_sbu_3, # of connection points: 4
#     Node 27, Type 0, BuildingBlock: QUQFOY_clean_sbu_3, # of connection points: 4
#     Node 28, Type 0, BuildingBlock: QUQFOY_clean_sbu_3, # of connection points: 4
#     Node 29, Type 0, BuildingBlock: QUQFOY_clean_sbu_3, # of connection points: 4
#     Node 30, Type 0, BuildingBlock: QUQFOY_clean_sbu_3, # of connection points: 4
#     Node 31, Type 0, BuildingBlock: QUQFOY_clean_sbu_3, # of connection points: 4
#     Node 32, Type 0, BuildingBlock: QUQFOY_clean_sbu_3, # of connection points: 4
#     Node 33, Type 0, BuildingBlock: QUQFOY_clean_sbu_3, # of connection points: 4
#     Node 34, Type 0, BuildingBlock: QUQFOY_clean_sbu_3, # of connection points: 4
#     Node 35, Type 0, BuildingBlock: QUQFOY_clean_sbu_3, # of connection points: 4
#     Edge 36, Type (0, 0), BuildingBlock: XIVTED_clean_linker_0, # of connection points: 2
#     Edge 37, Type (0, 0), BuildingBlock: XIVTED_clean_linker_0, # of connection points: 2
#     Edge 38, Type (0, 0), BuildingBlock: XIVTED_clean_linker_0, # of connection points: 2
#     Edge 39, Type (0, 0), BuildingBlock: XIVTED_clean_linker_0, # of connection points: 2
#     Edge 40, Type (0, 0), BuildingBlock: XIVTED_clean_linker_0, # of connection points: 2
#     Edge 41, Type (0, 0), BuildingBlock: XIVTED_clean_linker_0, # of connection points: 2
#     Edge 42, Type (0, 0), BuildingBlock: XIVTED_clean_linker_0, # of connection points: 2
#     Edge 43, Type (0, 0), BuildingBlock: XIVTED_clean_linker_0, # of connection points: 2
#     Edge 44, Type (0, 0), BuildingBlock: XIVTED_clean_linker_0, # of connection points: 2
#     Edge 45, Type (0, 0), BuildingBlock: XIVTED_clean_linker_0, # of connection points: 2
#     Edge 46, Type (0, 0), BuildingBlock: XIVTED_clean_linker_0, # of connection points: 2
#     Edge 47, Type (0, 0), BuildingBlock: XIVTED_clean_linker_0, # of connection points: 2
#     Edge 48, Type (0, 0), BuildingBlock: XIVTED_clean_linker_0, # of connection points: 2
#     Edge 49, Type (0, 0), BuildingBlock: XIVTED_clean_linker_0, # of connection points: 2
#     Edge 50, Type (0, 0), BuildingBlock: XIVTED_clean_linker_0, # of connection points: 2
#     Edge 51, Type (0, 0), BuildingBlock: XIVTED_clean_linker_0, # of connection points: 2
#     Edge 52, Type (0, 0), BuildingBlock: XIVTED_clean_linker_0, # of connection points: 2
#     Edge 53, Type (0, 0), BuildingBlock: XIVTED_clean_linker_0, # of connection points: 2
#     Edge 54, Type (0, 0), BuildingBlock: XIVTED_clean_linker_0, # of connection points: 2
#     Edge 55, Type (0, 0), BuildingBlock: XIVTED_clean_linker_0, # of connection points: 2
#     Edge 56, Type (0, 0), BuildingBlock: XIVTED_clean_linker_0, # of connection points: 2
#     Edge 57, Type (0, 0), BuildingBlock: XIVTED_clean_linker_0, # of connection points: 2
#     Edge 58, Type (0, 0), BuildingBlock: XIVTED_clean_linker_0, # of connection points: 2
#     Edge 59, Type (0, 0), BuildingBlock: XIVTED_clean_linker_0, # of connection points: 2
#     Edge 60, Type (0, 0), BuildingBlock: XIVTED_clean_linker_0, # of connection points: 2
#     Edge 61, Type (0, 0), BuildingBlock: XIVTED_clean_linker_0, # of connection points: 2
#     Edge 62, Type (0, 0), BuildingBlock: XIVTED_clean_linker_0, # of connection points: 2
#     Edge 63, Type (0, 0), BuildingBlock: XIVTED_clean_linker_0, # of connection points: 2
#     Edge 64, Type (0, 0), BuildingBlock: XIVTED_clean_linker_0, # of connection points: 2
#     Edge 65, Type (0, 0), BuildingBlock: XIVTED_clean_linker_0, # of connection points: 2
#     Edge 66, Type (0, 0), BuildingBlock: XIVTED_clean_linker_0, # of connection points: 2
#     Edge 67, Type (0, 0), BuildingBlock: XIVTED_clean_linker_0, # of connection points: 2
#     Edge 68, Type (0, 0), BuildingBlock: XIVTED_clean_linker_0, # of connection points: 2
#     Edge 69, Type (0, 0), BuildingBlock: XIVTED_clean_linker_0, # of connection points: 2
#     Edge 70, Type (0, 0), BuildingBlock: XIVTED_clean_linker_0, # of connection points: 2
#     Edge 71, Type (0, 0), BuildingBlock: XIVTED_clean_linker_0, # of connection points: 2
#     Edge 72, Type (0, 0), BuildingBlock: XIVTED_clean_linker_0, # of connection points: 2
#     Edge 73, Type (0, 0), BuildingBlock: XIVTED_clean_linker_0, # of connection points: 2
#     Edge 74, Type (0, 0), BuildingBlock: XIVTED_clean_linker_0, # of connection points: 2
#     Edge 75, Type (0, 0), BuildingBlock: XIVTED_clean_linker_0, # of connection points: 2
#     Edge 76, Type (0, 0), BuildingBlock: XIVTED_clean_linker_0, # of connection points: 2
#     Edge 77, Type (0, 0), BuildingBlock: XIVTED_clean_linker_0, # of connection points: 2
#     Edge 78, Type (0, 0), BuildingBlock: XIVTED_clean_linker_0, # of connection points: 2
#     Edge 79, Type (0, 0), BuildingBlock: XIVTED_clean_linker_0, # of connection points: 2
#     Edge 80, Type (0, 0), BuildingBlock: XIVTED_clean_linker_0, # of connection points: 2
#     Edge 81, Type (0, 0), BuildingBlock: XIVTED_clean_linker_0, # of connection points: 2
#     Edge 82, Type (0, 0), BuildingBlock: XIVTED_clean_linker_0, # of connection points: 2
#     Edge 83, Type (0, 0), BuildingBlock: XIVTED_clean_linker_0, # of connection points: 2
#     Edge 84, Type (0, 0), BuildingBlock: XIVTED_clean_linker_0, # of connection points: 2
#     Edge 85, Type (0, 0), BuildingBlock: XIVTED_clean_linker_0, # of connection points: 2
#     Edge 86, Type (0, 0), BuildingBlock: XIVTED_clean_linker_0, # of connection points: 2
#     Edge 87, Type (0, 0), BuildingBlock: XIVTED_clean_linker_0, # of connection points: 2
#     Edge 88, Type (0, 0), BuildingBlock: XIVTED_clean_linker_0, # of connection points: 2
#     Edge 89, Type (0, 0), BuildingBlock: XIVTED_clean_linker_0, # of connection points: 2
#     Edge 90, Type (0, 0), BuildingBlock: XIVTED_clean_linker_0, # of connection points: 2
#     Edge 91, Type (0, 0), BuildingBlock: XIVTED_clean_linker_0, # of connection points: 2
#     Edge 92, Type (0, 0), BuildingBlock: XIVTED_clean_linker_0, # of connection points: 2
#     Edge 93, Type (0, 0), BuildingBlock: XIVTED_clean_linker_0, # of connection points: 2
#     Edge 94, Type (0, 0), BuildingBlock: XIVTED_clean_linker_0, # of connection points: 2
#     Edge 95, Type (0, 0), BuildingBlock: XIVTED_clean_linker_0, # of connection points: 2
#     Edge 96, Type (0, 0), BuildingBlock: XIVTED_clean_linker_0, # of connection points: 2
#     Edge 97, Type (0, 0), BuildingBlock: XIVTED_clean_linker_0, # of connection points: 2
#     Edge 98, Type (0, 0), BuildingBlock: XIVTED_clean_linker_0, # of connection points: 2
#     Edge 99, Type (0, 0), BuildingBlock: XIVTED_clean_linker_0, # of connection points: 2
#     Edge 100, Type (0, 0), BuildingBlock: XIVTED_clean_linker_0, # of connection points: 2
#     Edge 101, Type (0, 0), BuildingBlock: XIVTED_clean_linker_0, # of connection points: 2
#     Edge 102, Type (0, 0), BuildingBlock: XIVTED_clean_linker_0, # of connection points: 2
#     Edge 103, Type (0, 0), BuildingBlock: XIVTED_clean_linker_0, # of connection points: 2
#     Edge 104, Type (0, 0), BuildingBlock: XIVTED_clean_linker_0, # of connection points: 2
#     Edge 105, Type (0, 0), BuildingBlock: XIVTED_clean_linker_0, # of connection points: 2
#     Edge 106, Type (0, 0), BuildingBlock: XIVTED_clean_linker_0, # of connection points: 2
#     Edge 107, Type (0, 0), BuildingBlock: XIVTED_clean_linker_0, # of connection points: 2
# Relax obj value: 0.072
# Max RMSD: 0.095
# Mean RMSD: 0.095
data_MOF--net-ukn--node1-QUQFOY_clean_sbu_3--edge1-XIVTED_clean_linker_0
_symmetry_space_group_name_H-M    P1
_symmetry_Int_Tables_number       1
_symmetry_cell_setting            triclinic
loop_
_symmetry_equiv_pos_as_xyz
'x, y, z'
_cell_length_a     110.03414
_cell_length_b     109.62522
_cell_length_c     27.222139
_cell_angle_alpha  89.943696
_cell_angle_beta   90.139107
_cell_angle_gamma 120.09772
loop_
_atom_site_label
_atom_site_type_symbol
_atom_site_fract_x
_atom_site_fract_y
_atom_site_fract_z
_atom_type_partial_charge
C0 C 0.07401 0.31181 0.14991 0.0
O1 O 0.08042 0.32129 0.1177 0.0
Cd2 Cd 0.081 0.31868 0.03179 0.0
O3 O 0.06671 0.2988 0.13777 0.0
Cd4 Cd 0.06104 0.28565 0.05719 0.0
C5 C 0.09525 0.29699 0.03157 0.0
O6 O 0.05712 0.30275 0.01469 0.0
O7 O 0.05828 0.2877 0.96792 0.0
O8 O 0.03705 0.2683 0.08222 0.0
C9 C 0.05579 0.29773 0.9721 0.0
O10 O 0.09612 0.30864 0.01962 0.0
C11 C 0.03701 0.25806 0.06023 0.0
O12 O 0.08398 0.28702 0.04991 0.0
O13 O 0.04862 0.26033 0.04252 0.0
C14 C 0.67212 0.75923 0.14258 0.0
O15 O 0.6627 0.75653 0.11056 0.0
Cd16 Cd 0.66557 0.76163 0.02597 0.0
O17 O 0.68514 0.76543 0.13081 0.0
Cd18 Cd 0.69881 0.77449 0.05181 0.0
C19 C 0.68745 0.79779 0.03611 0.0
O20 O 0.68171 0.75425 0.00671 0.0
O21 O 0.69681 0.77091 0.96156 0.0
O22 O 0.7156 0.76728 0.07845 0.0
C23 C 0.68661 0.75841 0.96433 0.0
O24 O 0.67585 0.78714 0.02302 0.0
C25 C 0.72592 0.77711 0.05553 0.0
O26 O 0.69758 0.7963 0.05145 0.0
O27 O 0.72397 0.7865 0.03594 0.0
C28 C 0.22628 0.91589 0.15211 0.0
O29 O 0.22928 0.90953 0.11965 0.0
Cd30 Cd 0.22217 0.90603 0.03669 0.0
O31 O 0.21905 0.92172 0.14118 0.0
Cd32 Cd 0.20858 0.92497 0.063 0.0
C33 C 0.18606 0.89031 0.05288 0.0
O34 O 0.22742 0.92846 0.00808 0.0
O35 O 0.20752 0.92169 0.9737 0.0
O36 O 0.2169 0.94977 0.08146 0.0
C37 C 0.22049 0.92602 0.96873 0.0
O38 O 0.19685 0.88995 0.03811 0.0
C39 C 0.2063 0.9498 0.06316 0.0
O40 O 0.18714 0.90176 0.0688 0.0
O41 O 0.19609 0.93796 0.05001 0.0
C42 C 0.30619 0.07257 0.82262 0.0
O43 O 0.31574 0.07963 0.85386 0.0
Cd44 Cd 0.31221 0.08579 0.93295 0.0
O45 O 0.29321 0.06741 0.83359 0.0
Cd46 Cd 0.27965 0.06634 0.90996 0.0
C47 C 0.29189 0.10097 0.90279 0.0
O48 O 0.2952 0.0642 0.96792 0.0
O49 O 0.28262 0.07221 -0.002 0.0
O50 O 0.26315 0.04134 0.89438 0.0
C51 C 0.29107 0.06775 0.00561 0.0
O52 O 0.30318 0.10181 0.91886 0.0
C53 C 0.25267 0.04135 0.91373 0.0
O54 O 0.2812 0.08904 0.89272 0.0
O55 O 0.25438 0.05321 0.92689 0.0
C56 C 0.91106 0.23174 0.82667 0.0
O57 O 0.9047 0.2347 0.85913 0.0
Cd58 Cd 0.90127 0.22756 0.94195 0.0
O59 O 0.91694 0.22454 0.83761 0.0
Cd60 Cd 0.92028 0.21409 0.91584 0.0
C61 C 0.88579 0.19134 0.92492 0.0
O62 O 0.92372 0.23308 0.9704 0.0
O63 O 0.91692 0.21316 0.00505 0.0
O64 O 0.94487 0.22219 0.89609 0.0
C65 C 0.92125 0.22618 0.00985 0.0
O66 O 0.88534 0.20211 0.93995 0.0
C67 C 0.945 0.21178 0.91607 0.0
O68 O 0.89725 0.19252 0.9092 0.0
O69 O 0.93331 0.20178 0.93101 0.0
C70 C 0.75696 0.67663 0.83544 0.0
O71 O 0.75399 0.66717 0.86768 0.0
Cd72 Cd 0.7571 0.66982 0.95355 0.0
O73 O 0.7625 0.68963 0.84757 0.0
Cd74 Cd 0.76974 0.70283 0.92811 0.0
C75 C 0.79298 0.69195 0.95419 0.0
O76 O 0.74874 0.68546 0.96943 0.0
O77 O 0.76461 0.70057 0.01718 0.0
O78 O 0.76286 0.71992 0.90163 0.0
C79 C 0.75218 0.69041 0.01221 0.0
O80 O 0.78231 0.68021 0.96592 0.0
C81 C 0.77279 0.73023 0.92448 0.0
O82 O 0.79151 0.70184 0.93595 0.0
O83 O 0.78211 0.72811 0.94353 0.0
C84 C 0.90411 0.67597 0.8353 0.0
O85 O 0.89768 0.66651 0.86755 0.0
Cd86 Cd 0.89742 0.66925 0.95352 0.0
O87 O 0.91155 0.68897 0.84744 0.0
Cd88 Cd 0.91751 0.7022 0.9279 0.0
C89 C 0.88344 0.69117 0.9546 0.0
O90 O 0.92142 0.68498 0.96975 0.0
O91 O 0.92068 0.7002 0.01687 0.0
O92 O 0.94125 0.71947 0.89995 0.0
C93 C 0.923 0.69007 0.01235 0.0
O94 O 0.88252 0.6795 0.96649 0.0
C95 C 0.94167 0.7297 0.92342 0.0
O96 O 0.89469 0.70107 0.9359 0.0
O97 O 0.93037 0.72745 0.94371 0.0
C98 C 0.3046 0.23425 0.82116 0.0
O99 O 0.31425 0.23696 0.85216 0.0
Cd100 Cd 0.31107 0.22748 0.93156 0.0
O101 O 0.29167 0.22633 0.83264 0.0
Cd102 Cd 0.27838 0.21403 0.90992 0.0
C103 C 0.2906 0.19173 0.90255 0.0
O104 O 0.29419 0.232 0.96687 0.0
O105 O 0.28185 0.2113 -0.00251 0.0
O106 O 0.26188 0.22245 0.89515 0.0
C107 C 0.29024 0.2243 0.0047 0.0
O108 O 0.30192 0.2023 0.91815 0.0
C109 C 0.2515 0.21198 0.91532 0.0
O110 O 0.27987 0.19286 0.89274 0.0
O111 O 0.25322 0.20184 0.92847 0.0
C112 C 0.75546 0.07658 0.82554 0.0
O113 O 0.7528 0.08346 0.857 0.0
Cd114 Cd 0.75771 0.08595 0.9418 0.0
O115 O 0.76162 0.06976 0.83801 0.0
Cd116 Cd 0.77067 0.06553 0.91785 0.0
C117 C 0.79374 0.10038 0.93346 0.0
O118 O 0.75049 0.06246 0.96248 0.0
O119 O 0.76717 0.06428 0.00808 0.0
O120 O 0.76334 0.0412 0.89464 0.0
C121 C 0.7547 0.06191 0.00504 0.0
O122 O 0.78308 0.1013 0.94596 0.0
C123 C 0.77346 0.04104 0.91662 0.0
O124 O 0.79233 0.08873 0.91831 0.0
O125 O 0.78306 0.05271 0.9337 0.0
C126 C 0.67208 0.91443 0.14532 0.0
O127 O 0.66274 0.90802 0.11274 0.0
Cd128 Cd 0.66639 0.9047 0.02968 0.0
O129 O 0.68514 0.92036 0.1345 0.0
Cd130 Cd 0.69901 0.92373 0.05678 0.0
C131 C 0.6869 0.88906 0.0464 0.0
O132 O 0.68355 0.92717 0.00171 0.0
O133 O 0.69702 0.92081 0.96757 0.0
O134 O 0.71556 0.94836 0.07754 0.0
C135 C 0.6882 0.92493 0.96244 0.0
O136 O 0.67574 0.88868 0.03125 0.0
C137 C 0.72613 0.94847 0.05845 0.0
O138 O 0.69722 0.9005 0.06264 0.0
O139 O 0.7244 0.93675 0.04345 0.0
C140 C 0.07112 0.76029 0.14763 0.0
O141 O 0.07788 0.75758 0.11587 0.0
Cd142 Cd 0.08029 0.76275 0.03133 0.0
O143 O 0.06432 0.7665 0.13555 0.0
Cd144 Cd 0.05979 0.7755 0.05604 0.0
C145 C 0.09444 0.79889 0.04151 0.0
O146 O 0.05684 0.75536 0.01076 0.0
O147 O 0.05865 0.77218 0.96572 0.0
O148 O 0.03554 0.76787 0.07979 0.0
C149 C 0.05629 0.75966 0.96835 0.0
O150 O 0.09545 0.78826 0.02866 0.0
C151 C 0.03517 0.7779 0.0577 0.0
O152 O 0.08278 0.79736 0.05636 0.0
O153 O 0.04668 0.7876 0.04029 0.0
C154 C 0.22168 0.31123 0.15331 0.0
O155 O 0.22473 0.3208 0.12147 0.0
Cd156 Cd 0.22173 0.31845 0.03545 0.0
O157 O 0.21612 0.29826 0.14065 0.0
Cd158 Cd 0.20894 0.28531 0.05969 0.0
C159 C 0.18584 0.29641 0.0341 0.0
O160 O 0.22998 0.30276 0.01858 0.0
O161 O 0.21411 0.28771 0.97068 0.0
O162 O 0.21565 0.26806 0.08589 0.0
C163 C 0.22652 0.2979 0.9757 0.0
O164 O 0.19655 0.30817 0.0228 0.0
C165 C 0.20572 0.25784 0.06272 0.0
O166 O 0.18724 0.28644 0.05194 0.0
O167 O 0.1965 0.26008 0.04355 0.0
C168 C 0.74212 0.64593 0.48311 0.0
O169 O 0.7487 0.65539 0.45099 0.0
Cd170 Cd 0.74917 0.6528 0.36513 0.0
O171 O 0.7346 0.63295 0.47089 0.0
Cd172 Cd 0.72874 0.61983 0.39018 0.0
C173 C 0.76284 0.63061 0.3645 0.0
O174 O 0.72515 0.63727 0.34884 0.0
O175 O 0.72591 0.6222 0.30105 0.0
O176 O 0.70469 0.6027 0.41554 0.0
C177 C 0.72363 0.63235 0.30604 0.0
O178 O 0.76394 0.64237 0.35274 0.0
C179 C 0.70442 0.59241 0.39297 0.0
O180 O 0.75146 0.62074 0.38266 0.0
O181 O 0.71592 0.59455 0.37471 0.0
C182 C 0.3394 0.08848 0.47842 0.0
O183 O 0.32984 0.08569 0.44695 0.0
Cd184 Cd 0.33339 0.09527 0.3676 0.0
O185 O 0.35236 0.0965 0.46745 0.0
Cd186 Cd 0.36596 0.10895 0.39093 0.0
C187 C 0.3534 0.13099 0.39721 0.0
O188 O 0.35057 0.091 0.33316 0.0
O189 O 0.36295 0.11169 0.3028 0.0
O190 O 0.38253 0.10076 0.40805 0.0
C191 C 0.35461 0.09869 0.29536 0.0
O192 O 0.34219 0.12036 0.38122 0.0
C193 C 0.39299 0.11124 0.38828 0.0
O194 O 0.36418 0.12999 0.4075 0.0
O195 O 0.39124 0.12128 0.37402 0.0
C196 C 0.89417 0.24761 0.47836 0.0
O197 O 0.89708 0.2412 0.44587 0.0
Cd198 Cd 0.88984 0.2376 0.36308 0.0
O199 O 0.88694 0.25345 0.46753 0.0
Cd200 Cd 0.87635 0.25663 0.38944 0.0
C201 C 0.85376 0.22197 0.38011 0.0
O202 O 0.89511 0.26002 0.3343 0.0
O203 O 0.87516 0.2532 0.30023 0.0
O204 O 0.88464 0.28144 0.40764 0.0
C205 C 0.88812 0.25752 0.29506 0.0
O206 O 0.86452 0.22156 0.36514 0.0
C207 C 0.87404 0.28144 0.38906 0.0
O208 O 0.85489 0.23345 0.39588 0.0
O209 O 0.86386 0.26959 0.37588 0.0
C210 C 0.97283 0.4106 0.15604 0.0
O211 O 0.98238 0.41744 0.1876 0.0
Cd212 Cd 0.97998 0.41945 0.27263 0.0
O213 O 0.95988 0.40354 0.16858 0.0
Cd214 Cd 0.94672 0.39877 0.24873 0.0
C215 C 0.95798 0.43345 0.26594 0.0
O216 O 0.96412 0.39572 0.29193 0.0
O217 O 0.94927 0.39711 0.33866 0.0
O218 O 0.92972 0.3746 0.22335 0.0
C219 C 0.95944 0.39487 0.33472 0.0
O220 O 0.96966 0.43453 0.27817 0.0
C221 C 0.91954 0.37416 0.24685 0.0
O222 O 0.94785 0.42178 0.2505 0.0
O223 O 0.92164 0.3856 0.26605 0.0
C224 C 0.5776 0.56578 0.16196 0.0
O225 O 0.57136 0.56896 0.19423 0.0
Cd226 Cd 0.56823 0.56238 0.27772 0.0
O227 O 0.58352 0.55867 0.1734 0.0
Cd228 Cd 0.5871 0.54865 0.2522 0.0
C229 C 0.5526 0.52606 0.26325 0.0
O230 O 0.59068 0.56787 0.30598 0.0
O231 O 0.5841 0.54808 0.3414 0.0
O232 O 0.61164 0.55668 0.23179 0.0
C233 C 0.58834 0.5611 0.3457 0.0
O234 O 0.55226 0.53694 0.27768 0.0
C235 C 0.61182 0.54633 0.25202 0.0
O236 O 0.56396 0.5271 0.24714 0.0
O237 O 0.60017 0.53636 0.26743 0.0
C238 C 0.42386 0.0123 0.1624 0.0
O239 O 0.42057 0.00273 0.19443 0.0
Cd240 Cd 0.42356 0.00514 0.28057 0.0
O241 O 0.42965 0.0253 0.17485 0.0
Cd242 Cd 0.43697 0.03846 0.25531 0.0
C243 C 0.45957 0.02683 0.28226 0.0
O244 O 0.41598 0.02133 0.29759 0.0
O245 O 0.43211 0.03654 0.34441 0.0
O246 O 0.43014 0.05554 0.22859 0.0
C247 C 0.41967 0.02634 0.34023 0.0
O248 O 0.44869 0.0152 0.29351 0.0
C249 C 0.44025 0.06593 0.25047 0.0
O250 O 0.45846 0.03693 0.26384 0.0
O251 O 0.44963 0.06384 0.26914 0.0
C252 C 0.56992 0.00875 0.17076 0.0
O253 O 0.56311 -0.00058 0.20301 0.0
Cd254 Cd 0.56261 0.00249 0.28863 0.0
O255 O 0.5776 0.02174 0.18274 0.0
Cd256 Cd 0.58357 0.03522 0.26271 0.0
C257 C 0.54963 0.02528 0.28679 0.0
O258 O 0.58671 0.01764 0.30534 0.0
O259 O 0.58635 0.03314 0.35206 0.0
O260 O 0.60748 0.05185 0.23444 0.0
C261 C 0.58833 0.02277 0.34786 0.0
O262 O 0.54826 0.01346 0.29927 0.0
C263 C 0.60832 0.06229 0.2578 0.0
O264 O 0.56113 0.03494 0.26866 0.0
O265 O 0.5972 0.06045 0.27838 0.0
C266 C 0.97286 0.56536 0.16284 0.0
O267 O 0.98219 0.5684 0.19551 0.0
Cd268 Cd 0.97856 0.56128 0.27843 0.0
O269 O 0.95979 0.55811 0.17353 0.0
Cd270 Cd 0.946 0.5476 0.25164 0.0
C271 C 0.95799 0.52503 0.26144 0.0
O272 O 0.9615 0.56651 0.30677 0.0
O273 O 0.94829 0.54646 0.34062 0.0
O274 O 0.92961 0.55592 0.23319 0.0
C275 C 0.95696 0.55947 0.34592 0.0
O276 O 0.96917 0.53585 0.27658 0.0
C277 C 0.919 0.54531 0.25179 0.0
O278 O 0.94768 0.52611 0.24537 0.0
O279 O 0.9206 0.5351 0.26501 0.0
C280 C 0.42277 0.41221 0.15915 0.0
O281 O 0.42029 0.41915 0.19092 0.0
Cd282 Cd 0.42495 0.42107 0.27581 0.0
O283 O 0.42861 0.40505 0.17129 0.0
Cd284 Cd 0.4372 0.4002 0.25103 0.0
C285 C 0.46087 0.4348 0.26871 0.0
O286 O 0.41692 0.39727 0.29439 0.0
O287 O 0.43314 0.3985 0.34114 0.0
O288 O 0.42956 0.37588 0.22637 0.0
C289 C 0.42074 0.39631 0.33714 0.0
O290 O 0.45036 0.43597 0.28123 0.0
C291 C 0.43947 0.3754 0.24867 0.0
O292 O 0.45918 0.4231 0.25293 0.0
O293 O 0.4491 0.38689 0.26669 0.0
C294 C 0.33799 0.25003 0.47719 0.0
O295 O 0.32855 0.24286 0.44573 0.0
Cd296 Cd 0.33244 0.23701 0.36664 0.0
O297 O 0.35101 0.25542 0.46654 0.0
Cd298 Cd 0.3649 0.25685 0.39071 0.0
C299 C 0.35318 0.2223 0.39715 0.0
O300 O 0.34931 0.25882 0.3325 0.0
O301 O 0.36224 0.25119 0.30247 0.0
O302 O 0.38104 0.28185 0.40752 0.0
C303 C 0.35366 0.25548 0.29482 0.0
O304 O 0.34186 0.22132 0.38071 0.0
C305 C 0.39165 0.28215 0.38806 0.0
O306 O 0.36372 0.23429 0.40774 0.0
O307 O 0.39019 0.27044 0.37416 0.0
C308 C 0.73846 0.09212 0.47651 0.0
O309 O 0.74526 0.08941 0.445 0.0
Cd310 Cd 0.74778 0.09451 0.36038 0.0
O311 O 0.73168 0.09833 0.4641 0.0
Cd312 Cd 0.72728 0.10739 0.38452 0.0
C313 C 0.76198 0.13068 0.37027 0.0
O314 O 0.72439 0.08725 0.33942 0.0
O315 O 0.7261 0.10401 0.29423 0.0
O316 O 0.70308 0.09981 0.40865 0.0
C317 C 0.72385 0.09152 0.29695 0.0
O318 O 0.76296 0.12002 0.35766 0.0
C319 C 0.70267 0.10981 0.38646 0.0
O320 O 0.75032 0.12921 0.3849 0.0
O321 O 0.71414 0.11946 0.36864 0.0
C322 C 0.88952 0.64549 0.48253 0.0
O323 O 0.89266 0.65497 0.45027 0.0
Cd324 Cd 0.8896 0.65231 0.36428 0.0
O325 O 0.88385 0.63248 0.47038 0.0
Cd326 Cd 0.87657 0.61929 0.3898 0.0
C327 C 0.85367 0.63055 0.3632 0.0
O328 O 0.89766 0.63644 0.34784 0.0
O329 O 0.88155 0.62132 0.3008 0.0
O330 O 0.8831 0.60198 0.4171 0.0
C331 C 0.89404 0.63139 0.30523 0.0
O332 O 0.86445 0.6422 0.35142 0.0
C333 C 0.87321 0.59177 0.39381 0.0
O334 O 0.85496 0.62058 0.38177 0.0
O335 O 0.86406 0.59403 0.37408 0.0
C336 C 0.40894 0.98044 0.81134 0.0
O337 O 0.41563 0.98998 0.77957 0.0
Cd338 Cd 0.41644 0.98745 0.69369 0.0
O339 O 0.40149 0.96748 0.79865 0.0
Cd340 Cd 0.39588 0.95447 0.71789 0.0
C341 C 0.43003 0.96519 0.6941 0.0
O342 O 0.39253 0.97195 0.67544 0.0
O343 O 0.39342 0.95676 0.62855 0.0
O344 O 0.3718 0.93759 0.7435 0.0
C345 C 0.3912 0.96698 0.63277 0.0
O346 O 0.43118 0.97696 0.6823 0.0
C347 C 0.37136 0.9272 0.72113 0.0
O348 O 0.4186 0.9553 0.71179 0.0
O349 O 0.38278 0.92917 0.7026 0.0
C350 C 0.00508 0.42726 0.80682 0.0
O351 O -0.00441 0.42461 0.77514 0.0
Cd352 Cd -0.00175 0.42916 0.69018 0.0
O353 O 0.01804 0.43317 0.79445 0.0
Cd354 Cd 0.03138 0.44174 0.71466 0.0
C355 C 0.02038 0.46528 0.69745 0.0
O356 O 0.01399 0.42121 0.67146 0.0
O357 O 0.02889 0.43752 0.62471 0.0
O358 O 0.04815 0.43454 0.74171 0.0
C359 C 0.01871 0.42504 0.6287 0.0
O360 O 0.00871 0.45465 0.6848 0.0
C361 C 0.0584 0.44411 0.71768 0.0
O362 O 0.03043 0.46371 0.71326 0.0
O363 O 0.05645 0.45339 0.69721 0.0
C364 C 0.5598 0.58177 0.81427 0.0
O365 O 0.56283 0.57537 0.7821 0.0
Cd366 Cd 0.55619 0.572 0.69861 0.0
O367 O 0.55273 0.58773 0.80281 0.0
Cd368 Cd 0.54258 0.59108 0.72399 0.0
C369 C 0.52002 0.55644 0.71277 0.0
O370 O 0.56161 0.59449 0.67001 0.0
O371 O 0.54185 0.58796 0.63478 0.0
O372 O 0.55084 0.61587 0.7423 0.0
C373 C 0.55481 0.59217 0.63037 0.0
O374 O 0.53085 0.55605 0.69851 0.0
C375 C 0.54032 0.61592 0.72321 0.0
O376 O 0.52109 0.56786 0.72883 0.0
O377 O 0.53017 0.60408 0.7097 0.0
C378 C 0.64096 0.74423 0.49276 0.0
O379 O 0.6504 0.75101 0.52472 0.0
Cd380 Cd 0.64769 0.75322 0.60941 0.0
O381 O 0.62794 0.73736 0.50459 0.0
Cd382 Cd 0.6144 0.73286 0.5838 0.0
C383 C 0.6261 0.76767 0.60029 0.0
O384 O 0.63142 0.7296 0.62862 0.0
O385 O 0.61642 0.73115 0.67402 0.0
O386 O 0.59729 0.70874 0.55815 0.0
C387 C 0.62656 0.72882 0.67106 0.0
O388 O 0.63766 0.76858 0.61326 0.0
C389 C 0.58707 0.70848 0.58075 0.0
O390 O 0.61593 0.75604 0.58471 0.0
O391 O 0.58923 0.71999 0.59954 0.0
C392 C 0.24319 0.90022 0.50076 0.0
O393 O 0.23684 0.90317 0.53334 0.0
Cd394 Cd 0.23372 0.89613 0.61629 0.0
O395 O 0.24919 0.89314 0.51163 0.0
Cd396 Cd 0.25287 0.88287 0.58961 0.0
C397 C 0.21846 0.85991 0.59973 0.0
O398 O 0.2563 0.90188 0.64405 0.0
O399 O 0.24987 0.88207 0.67901 0.0
O400 O 0.27738 0.89115 0.56799 0.0
C401 C 0.25403 0.89507 0.68361 0.0
O402 O 0.21794 0.87065 0.61483 0.0
C403 C 0.27777 0.88088 0.58791 0.0
O404 O 0.22991 0.86117 0.58361 0.0
O405 O 0.26625 0.87086 0.60395 0.0
C406 C 0.08901 0.34255 0.50232 0.0
O407 O 0.08601 0.33311 0.53468 0.0
Cd408 Cd 0.0891 0.33584 0.62064 0.0
O409 O 0.09458 0.35556 0.51432 0.0
Cd410 Cd 0.10185 0.36888 0.59461 0.0
C411 C 0.125 0.35795 0.62161 0.0
O412 O 0.08092 0.35161 0.63675 0.0
O413 O 0.09691 0.36691 0.68371 0.0
O414 O 0.09486 0.38584 0.56758 0.0
C415 C 0.08449 0.35669 0.67934 0.0
O416 O 0.11428 0.34626 0.63339 0.0
C417 C 0.10482 0.39624 0.58996 0.0
O418 O 0.12361 0.36785 0.60288 0.0
O419 O 0.1142 0.39422 0.60906 0.0
C420 C 0.23687 0.34309 0.50433 0.0
O421 O 0.23018 0.33355 0.53608 0.0
Cd422 Cd 0.22954 0.33603 0.62197 0.0
O423 O 0.24438 0.35603 0.51707 0.0
Cd424 Cd 0.25015 0.369 0.598 0.0
C425 C 0.21606 0.3584 0.62256 0.0
O426 O 0.25354 0.3514 0.63924 0.0
O427 O 0.25281 0.36648 0.68712 0.0
O428 O 0.27416 0.38592 0.57175 0.0
C429 C 0.255 0.35627 0.68211 0.0
O430 O 0.21489 0.3466 0.63408 0.0
C431 C 0.27472 0.39625 0.5949 0.0
O432 O 0.2275 0.36828 0.60481 0.0
O433 O 0.26338 0.39425 0.61423 0.0
C434 C 0.63827 0.8983 0.49213 0.0
O435 O 0.64781 0.90146 0.52406 0.0
Cd436 Cd 0.64485 0.89462 0.60721 0.0
O437 O 0.62528 0.89103 0.50381 0.0
Cd438 Cd 0.61209 0.88073 0.58301 0.0
C439 C 0.62432 0.85833 0.5913 0.0
O440 O 0.62787 0.89988 0.63679 0.0
O441 O 0.6151 0.87996 0.67186 0.0
O442 O 0.5952 0.88852 0.56556 0.0
C443 C 0.62371 0.89301 0.67635 0.0
O444 O 0.63557 0.86919 0.60572 0.0
C445 C 0.58488 0.87795 0.58564 0.0
O446 O 0.61388 0.85935 0.57623 0.0
O447 O 0.58684 0.86802 0.59945 0.0
C448 C 0.08818 0.74595 0.49803 0.0
O449 O 0.08561 0.75278 0.53002 0.0
Cd450 Cd 0.09043 0.75474 0.61484 0.0
O451 O 0.09421 0.73895 0.50987 0.0
Cd452 Cd 0.10317 0.73426 0.58913 0.0
C453 C 0.12643 0.76897 0.60688 0.0
O454 O 0.0829 0.73105 0.63347 0.0
O455 O 0.09935 0.73243 0.67927 0.0
O456 O 0.09602 0.71015 0.563 0.0
C457 C 0.08692 0.73017 0.67599 0.0
O458 O 0.11581 0.76991 0.61977 0.0
C459 C 0.10587 0.70972 0.58596 0.0
O460 O 0.12494 0.75737 0.59076 0.0
O461 O 0.11524 0.72115 0.60516 0.0
C462 C 0.0058 0.58174 0.81489 0.0
O463 O -0.00349 0.57528 0.78222 0.0
Cd464 Cd 0.00014 0.57222 0.69898 0.0
O465 O 0.01888 0.5879 0.80413 0.0
Cd466 Cd 0.03265 0.5916 0.72574 0.0
C467 C 0.02117 0.55709 0.71387 0.0
O468 O 0.01692 0.59489 0.67165 0.0
O469 O 0.03022 0.58846 0.63658 0.0
O470 O 0.04893 0.61642 0.74468 0.0
C471 C 0.02144 0.59264 0.63208 0.0
O472 O 0.0099 0.55654 0.69902 0.0
C473 C 0.05957 0.61662 0.72575 0.0
O474 O 0.03134 0.56856 0.73057 0.0
O475 O 0.05803 0.60486 0.71204 0.0
C476 C 0.40611 0.42672 0.80843 0.0
O477 O 0.41286 0.42406 0.77654 0.0
Cd478 Cd 0.41474 0.42883 0.69176 0.0
O479 O 0.39909 0.43271 0.7964 0.0
Cd480 Cd 0.39404 0.44135 0.71711 0.0
C481 C 0.42855 0.46495 0.7004 0.0
O482 O 0.39105 0.421 0.67348 0.0
O483 O 0.39212 0.43723 0.62704 0.0
O484 O 0.37011 0.43401 0.74461 0.0
C485 C 0.39006 0.42483 0.63078 0.0
O486 O 0.42965 0.45437 0.68771 0.0
C487 C 0.36935 0.44362 0.72105 0.0
O488 O 0.4169 0.46334 0.71581 0.0
O489 O 0.38051 0.45296 0.70057 0.0
C490 C 0.55601 0.97778 0.8188 0.0
O491 O 0.5592 0.9873 0.78659 0.0
Cd492 Cd 0.55591 0.9848 0.70069 0.0
O493 O 0.55015 0.96476 0.80665 0.0
Cd494 Cd 0.54262 0.95161 0.72603 0.0
C495 C 0.51992 0.9632 0.70052 0.0
O496 O 0.56359 0.96869 0.68347 0.0
O497 O 0.54732 0.95362 0.6368 0.0
O498 O 0.54912 0.93415 0.75159 0.0
C499 C 0.55982 0.9637 0.64086 0.0
O500 O 0.53074 0.97483 0.68887 0.0
C501 C 0.53897 0.92397 0.72908 0.0
O502 O 0.52113 0.95313 0.71858 0.0
O503 O 0.52973 0.92634 0.7108 0.0
H504 H 0.11949 0.31463 0.98308 0.0
H505 H 0.16037 0.2749 0.06724 0.0
H506 H 0.09972 0.27595 0.06671 0.0
H507 H 0.17906 0.31425 0.98753 0.0
H508 H 0.13753 0.27369 0.06179 0.0
H509 H 0.14078 0.3132 0.97854 0.0
C510 C 0.11959 0.30578 0.00039 0.0
C511 C 0.1078 0.29547 0.02574 0.0
C512 C 0.14663 0.28252 0.04526 0.0
C513 C 0.13234 0.2938 0.02085 0.0
C514 C 0.15967 0.28321 0.04826 0.0
C515 C 0.1717 0.29476 0.02819 0.0
C516 C 0.14565 0.29344 0.02191 0.0
C517 C 0.17014 0.30521 0.00399 0.0
C518 C 0.13179 0.30497 -0.00226 0.0
C519 C 0.10857 0.28417 0.04695 0.0
N520 N 0.15741 0.30432 0.00176 0.0
N521 N 0.12068 0.28369 0.04438 0.0
H522 H 0.70897 0.82311 0.07145 0.0
H523 H 0.66724 0.86363 0.00942 0.0
H524 H 0.66863 0.80462 -0.00114 0.0
H525 H 0.70821 0.88449 0.07788 0.0
H526 H 0.6682 0.84208 0.005 0.0
H527 H 0.70961 0.84584 0.07321 0.0
C528 C 0.7003 0.82383 0.05563 0.0
C529 C 0.68869 0.81189 0.0352 0.0
C530 C 0.67702 0.85133 0.02101 0.0
C531 C 0.68935 0.83777 0.0373 0.0
C532 C 0.67647 0.8637 0.02366 0.0
C533 C 0.68765 0.87594 0.04422 0.0
C534 C 0.68883 0.85104 0.03913 0.0
C535 C 0.69934 0.8753 0.06181 0.0
C536 C 0.70067 0.83679 0.05676 0.0
C537 C 0.67777 0.81345 0.01529 0.0
N538 N 0.69962 0.86302 0.05897 0.0
N539 N 0.67837 0.82609 0.017 0.0
H540 H 0.09812 0.8242 0.07642 0.0
H541 H 0.1804 0.86486 0.01657 0.0
H542 H 0.12014 0.80577 0.00519 0.0
H543 H 0.16012 0.8857 0.08351 0.0
H544 H 0.15794 0.84328 0.01195 0.0
H545 H 0.12016 0.84697 0.07851 0.0
C546 C 0.10753 0.82494 0.06098 0.0
C547 C 0.10727 0.81301 0.04083 0.0
C548 C 0.15832 0.85253 0.02767 0.0
C549 C 0.13244 0.83893 0.04329 0.0
C550 C 0.17121 0.86492 0.03043 0.0
C551 C 0.17222 0.87717 0.05062 0.0
C552 C 0.1462 0.85222 0.0453 0.0
C553 C 0.15985 0.87651 0.06773 0.0
C554 C 0.1201 0.83792 0.06229 0.0
C555 C 0.11979 0.8146 0.02139 0.0
N556 N 0.14733 0.86421 0.06479 0.0
N557 N 0.1318 0.82726 0.02327 0.0
H558 H 0.31388 0.12785 0.90718 0.0
H559 H 0.26776 0.16542 0.88295 0.0
H560 H 0.26898 0.10428 0.88458 0.0
H561 H 0.31252 0.1869 0.90876 0.0
H562 H 0.26768 0.14298 0.87799 0.0
H563 H 0.31328 0.1496 0.9021 0.0
C564 C 0.30385 0.12723 0.90104 0.0
C565 C 0.29144 0.11417 0.8967 0.0
C566 C 0.2775 0.15265 0.8845 0.0
C567 C 0.29066 0.13927 0.891 0.0
C568 C 0.27756 0.16545 0.88727 0.0
C569 C 0.29015 0.17807 0.89663 0.0
C570 C 0.29012 0.15253 0.89098 0.0
C571 C 0.30253 0.17747 0.90189 0.0
C572 C 0.30352 0.13971 0.89809 0.0
C573 C 0.2788 0.11411 0.88826 0.0
N574 N 0.30217 0.16496 0.89913 0.0
N575 N 0.27871 0.1265 0.886 0.0
H576 H 0.80044 0.1259 0.97219 0.0
H577 H 0.88141 0.16549 0.89305 0.0
H578 H 0.81906 0.10438 0.89858 0.0
H579 H 0.86032 0.1854 0.96075 0.0
H580 H 0.85934 0.14277 0.89691 0.0
H581 H 0.823 0.14747 0.97126 0.0
C582 C 0.80929 0.12568 0.95586 0.0
C583 C 0.80778 0.11328 0.93515 0.0
C584 C 0.85961 0.15214 0.9109 0.0
C585 C 0.83387 0.13819 0.93378 0.0
C586 C 0.87218 0.1651 0.9087 0.0
C587 C 0.87274 0.17741 0.92645 0.0
C588 C 0.84757 0.15153 0.93112 0.0
C589 C 0.86046 0.17627 0.94641 0.0
C590 C 0.82223 0.13806 0.95532 0.0
C591 C 0.81973 0.1137 0.91489 0.0
N592 N 0.84845 0.16361 0.94815 0.0
N593 N 0.83229 0.126 0.91449 0.0
H594 H 0.81834 0.71332 0.91971 0.0
H595 H 0.8594 0.67383 0.0046 0.0
H596 H 0.79992 0.67437 0.00175 0.0
H597 H 0.87895 0.71215 0.91901 0.0
H598 H 0.83818 0.67537 0.00979 0.0
H599 H 0.8412 0.71454 0.92475 0.0
C600 C 0.81911 0.7051 0.93912 0.0
C601 C 0.80715 0.69365 0.95995 0.0
C602 C 0.84711 0.68351 -0.00998 0.0
C603 C 0.83321 0.69499 0.96576 0.0
C604 C 0.85926 0.68263 0.987 0.0
C605 C 0.87096 0.69281 0.9609 0.0
C606 C 0.84651 0.6946 0.96652 0.0
C607 C 0.87016 0.70404 0.93935 0.0
C608 C 0.83215 0.70579 0.94189 0.0
C609 C 0.80878 0.68332 0.98469 0.0
N610 N 0.85808 0.70458 0.94228 0.0
N611 N 0.82152 0.68422 0.98667 0.0
H612 H 0.84707 0.64807 0.31351 0.0
H613 H 0.76669 0.60908 0.39866 0.0
H614 H 0.82819 0.60968 0.39877 0.0
H615 H 0.78736 0.64814 0.31727 0.0
H616 H 0.78821 0.60767 0.39342 0.0
H617 H 0.82441 0.64675 0.30862 0.0
C618 C 0.83813 0.6393 0.33109 0.0
C619 C 0.8396 0.62904 0.35702 0.0
C620 C 0.78796 0.61648 0.37647 0.0
C621 C 0.81345 0.62751 0.35176 0.0
C622 C 0.77568 0.61729 0.37935 0.0
C623 C 0.77524 0.62882 0.35875 0.0
C624 C 0.79984 0.62726 0.3527 0.0
C625 C 0.78721 0.63912 0.33414 0.0
C626 C 0.82515 0.63855 0.32825 0.0
C627 C 0.82756 0.61786 0.37856 0.0
N628 N 0.79899 0.63812 0.33204 0.0
N629 N 0.81499 0.61745 0.37581 0.0
H630 H 0.33119 0.13536 0.39183 0.0
H631 H 0.37621 0.21938 0.41786 0.0
H632 H 0.37604 0.1575 0.41589 0.0
H633 H 0.33157 0.19528 0.38994 0.0
H634 H 0.37666 0.19721 0.42278 0.0
H635 H 0.33142 0.15754 0.39681 0.0
C636 C 0.34113 0.14491 0.39826 0.0
C637 C 0.35364 0.14454 0.40306 0.0
C638 C 0.36679 0.19683 0.41581 0.0
C639 C 0.35399 0.17022 0.40866 0.0
C640 C 0.36651 0.20946 0.41308 0.0
C641 C 0.35385 0.20921 0.40312 0.0
C642 C 0.35431 0.18392 0.40872 0.0
C643 C 0.34161 0.19606 0.39726 0.0
C644 C 0.34125 0.15763 0.40115 0.0
C645 C 0.36615 0.1573 0.41185 0.0
N646 N 0.34217 0.18402 0.40002 0.0
N647 N 0.36603 0.16966 0.41406 0.0
H648 H 0.84803 0.19641 0.34471 0.0
H649 H 0.76575 0.15608 0.40463 0.0
H650 H 0.82787 0.21749 0.41072 0.0
H651 H 0.78768 0.13742 0.33431 0.0
H652 H 0.78784 0.17881 0.40648 0.0
H653 H 0.82554 0.17484 0.34061 0.0
C654 C 0.83886 0.19653 0.35848 0.0
C655 C 0.83991 0.20884 0.37823 0.0
C656 C 0.78774 0.16972 0.39052 0.0
C657 C 0.81385 0.18392 0.3735 0.0
C658 C 0.77515 0.15676 0.38934 0.0
C659 C 0.77485 0.14477 0.36951 0.0
C660 C 0.80006 0.17065 0.37171 0.0
C661 C 0.78735 0.14629 0.35027 0.0
C662 C 0.82595 0.18415 0.35601 0.0
C663 C 0.82757 0.20825 0.39527 0.0
N664 N 0.79939 0.15892 0.35201 0.0
N665 N 0.81502 0.19597 0.3926 0.0
H666 H 0.9775 0.51926 0.29916 0.0
H667 H 0.93634 0.4371 0.23175 0.0
H668 H 0.93683 0.49911 0.2285 0.0
H669 H 0.97663 0.45905 0.30472 0.0
H670 H 0.93551 0.45909 0.2318 0.0
H671 H 0.97662 0.49676 0.30253 0.0
C672 C 0.96834 0.51009 0.28423 0.0
C673 C 0.95724 0.51114 0.26331 0.0
C674 C 0.94448 0.45902 0.24794 0.0
C675 C 0.95616 0.48509 0.26715 0.0
C676 C 0.94495 0.44648 0.24804 0.0
C677 C 0.95662 0.44622 0.26801 0.0
C678 C 0.95573 0.47133 0.26801 0.0
C679 C 0.96746 0.4587 0.28858 0.0
C680 C 0.96784 0.49718 0.28627 0.0
C681 C 0.94564 0.4988 0.24486 0.0
N682 N 0.96676 0.47069 0.28787 0.0
N683 N 0.94541 0.48626 0.24708 0.0
H684 H 0.5276 0.52033 0.30292 0.0
H685 H 0.48598 0.43832 0.23355 0.0
H686 H 0.54764 0.50012 0.22987 0.0
H687 H 0.46812 0.46033 0.30873 0.0
H688 H 0.50888 0.4602 0.23374 0.0
H689 H 0.50598 0.49788 0.30679 0.0
C690 C 0.52748 0.51116 0.28758 0.0
C691 C 0.5395 0.51218 0.26579 0.0
C692 C 0.49993 0.46016 0.25035 0.0
C693 C 0.51451 0.48618 0.27018 0.0
C694 C 0.48687 0.44769 0.25036 0.0
C695 C 0.47506 0.44748 0.27089 0.0
C696 C 0.50114 0.47247 0.27107 0.0
C697 C 0.47685 0.45994 0.29213 0.0
C698 C 0.51507 0.49827 0.28991 0.0
C699 C 0.53863 0.49983 0.2469 0.0
N700 N 0.48958 0.47187 0.29149 0.0
N701 N 0.52631 0.48732 0.24936 0.0
H702 H 0.54626 0.0469 0.25039 0.0
H703 H 0.46576 0.00927 0.33352 0.0
H704 H 0.52499 0.00832 0.33422 0.0
H705 H 0.48525 0.04738 0.24679 0.0
H706 H 0.48826 0.01029 0.33979 0.0
H707 H 0.52494 0.04874 0.2541 0.0
C708 C 0.53718 0.03889 0.26992 0.0
C709 C 0.53739 0.02737 0.29164 0.0
C710 C 0.48769 0.01849 0.31952 0.0
C711 C 0.51303 0.0294 0.29595 0.0
C712 C 0.4748 0.01791 0.31588 0.0
C713 C 0.47356 0.02818 0.28915 0.0
C714 C 0.49952 0.02937 0.296 0.0
C715 C 0.48572 0.03921 0.26761 0.0
C716 C 0.52501 0.03994 0.27193 0.0
C717 C 0.52531 0.01732 0.31648 0.0
N718 N 0.49819 0.03945 0.27113 0.0
N719 N 0.51366 0.01855 0.31772 0.0
H720 H 0.45446 0.98251 0.64616 0.0
H721 H 0.49428 0.942 0.73378 0.0
H722 H 0.43403 0.94394 0.73025 0.0
H723 H 0.51354 0.98125 0.65344 0.0
H724 H 0.47159 0.94112 0.72754 0.0
H725 H 0.47558 0.98076 0.64284 0.0
C726 C 0.45438 0.97361 0.66382 0.0
C727 C 0.44246 0.96342 0.68893 0.0
C728 C 0.48079 0.94986 0.71106 0.0
C729 C 0.46681 0.96138 0.68548 0.0
C730 C 0.49373 0.95036 0.71453 0.0
C731 C 0.50588 0.96178 0.69447 0.0
C732 C 0.48002 0.96084 0.68725 0.0
C733 C 0.50453 0.97231 0.6699 0.0
C734 C 0.46649 0.97261 0.66188 0.0
C735 C 0.443 0.95206 0.71063 0.0
N736 N 0.49189 0.9716 0.6672 0.0
N737 N 0.45503 0.9514 0.70876 0.0
H738 H 0.04251 0.5527 0.74644 0.0
H739 H 0.00242 0.47243 0.65484 0.0
H740 H 0.00218 0.5319 0.67346 0.0
H741 H 0.04136 0.49038 0.73626 0.0
H742 H 0.00348 0.49505 0.65704 0.0
H743 H 0.04343 0.53081 0.73983 0.0
C744 C 0.03388 0.54358 0.72905 0.0
C745 C 0.02222 0.54415 0.71069 0.0
C746 C 0.01185 0.49413 0.67439 0.0
C747 C 0.02326 0.5192 0.70281 0.0
C748 C 0.01125 0.48116 0.6731 0.0
C749 C 0.02176 0.47943 0.69573 0.0
C750 C 0.02301 0.50557 0.69868 0.0
C751 C 0.03301 0.49122 0.71841 0.0
C752 C 0.03442 0.53111 0.72527 0.0
C753 C 0.01136 0.53201 0.68842 0.0
N754 N 0.0333 0.5038 0.7196 0.0
N755 N 0.01216 0.5201 0.68518 0.0
H756 H 0.43219 0.49015 0.73635 0.0
H757 H 0.51431 0.53122 0.67409 0.0
H758 H 0.45409 0.47209 0.66181 0.0
H759 H 0.49409 0.5517 0.74401 0.0
H760 H 0.49184 0.50966 0.66865 0.0
H761 H 0.45416 0.51298 0.73817 0.0
C762 C 0.44155 0.49098 0.72008 0.0
C763 C 0.44129 0.47914 0.69916 0.0
C764 C 0.49223 0.51883 0.68518 0.0
C765 C 0.46638 0.50513 0.70133 0.0
C766 C 0.50514 0.53121 0.68843 0.0
C767 C 0.50616 0.54334 0.70975 0.0
C768 C 0.48013 0.51843 0.7035 0.0
C769 C 0.49381 0.5426 0.72738 0.0
C770 C 0.45408 0.504 0.72125 0.0
C771 C 0.45375 0.48085 0.67866 0.0
N772 N 0.48128 0.53032 0.724 0.0
N773 N 0.46573 0.49354 0.68045 0.0
H774 H 0.60283 0.83233 0.56063 0.0
H775 H 0.64499 0.79329 0.63829 0.0
H776 H 0.64423 0.85267 0.62584 0.0
H777 H 0.60462 0.77152 0.56579 0.0
H778 H 0.64388 0.81482 0.63717 0.0
H779 H 0.6024 0.80971 0.56453 0.0
C780 C 0.6118 0.83206 0.57574 0.0
C781 C 0.6236 0.84446 0.5928 0.0
C782 C 0.63522 0.80536 0.62152 0.0
C783 C 0.62313 0.81869 0.59752 0.0
C784 C 0.63584 0.79301 0.62218 0.0
C785 C 0.62492 0.78055 0.60185 0.0
C786 C 0.6236 0.8054 0.60025 0.0
C787 C 0.6133 0.78089 0.58182 0.0
C788 C 0.61154 0.81916 0.57796 0.0
C789 C 0.63491 0.84346 0.61206 0.0
N790 N 0.61297 0.79315 0.58132 0.0
N791 N 0.63438 0.83085 0.61385 0.0
H792 H 0.13333 0.79418 0.64874 0.0
H793 H 0.21402 0.83419 0.56605 0.0
H794 H 0.15164 0.7731 0.57032 0.0
H795 H 0.19317 0.85373 0.63804 0.0
H796 H 0.192 0.81143 0.56991 0.0
H797 H 0.15594 0.81571 0.64858 0.0
C798 C 0.14213 0.79405 0.63153 0.0
C799 C 0.14051 0.78179 0.60921 0.0
C800 C 0.19231 0.82073 0.58487 0.0
C801 C 0.16665 0.80665 0.6087 0.0
C802 C 0.20486 0.83371 0.58267 0.0
C803 C 0.20546 0.84593 0.60155 0.0
C804 C 0.18035 0.82 0.60624 0.0
C805 C 0.19326 0.84467 0.62275 0.0
C806 C 0.1551 0.80641 0.63143 0.0
C807 C 0.1524 0.78231 0.58788 0.0
N808 N 0.18128 0.83199 0.62445 0.0
N809 N 0.16498 0.79459 0.5879 0.0
H810 H 0.21216 0.37981 0.58739 0.0
H811 H 0.13178 0.34077 0.67259 0.0
H812 H 0.1916 0.34101 0.67025 0.0
H813 H 0.15042 0.37882 0.58549 0.0
H814 H 0.15452 0.34228 0.67808 0.0
H815 H 0.19058 0.38116 0.59205 0.0
C816 C 0.20318 0.37165 0.60691 0.0
C817 C 0.20366 0.36021 0.62806 0.0
C818 C 0.15371 0.35037 0.65791 0.0
C819 C 0.17902 0.36169 0.63347 0.0
C820 C 0.14068 0.34951 0.65472 0.0
C821 C 0.13913 0.35961 0.6281 0.0
C822 C 0.16536 0.36137 0.63406 0.0
C823 C 0.15112 0.37076 0.60623 0.0
C824 C 0.19087 0.37242 0.60946 0.0
C825 C 0.19171 0.34996 0.65292 0.0
N826 N 0.16374 0.37128 0.60933 0.0
N827 N 0.17991 0.35093 0.6547 0.0
H828 H 0.03264 0.24044 0.98319 0.0
H829 H 0.97037 0.22544 0.86912 0.0
H830 H 0.0109 0.24758 0.10148 0.0
H831 H 0.95014 0.20147 -0.00057 0.0
H832 H -0.00673 0.23212 0.90583 0.0
H833 H 0.00997 0.22465 0.94427 0.0
C834 C 0.0231 0.23831 0.00193 0.0
C835 C 0.02365 0.24549 0.04539 0.0
C836 C 0.98379 0.22502 0.92563 0.0
C837 C -0.00217 0.22748 0.001 0.0
C838 C 0.97075 0.22123 0.90475 0.0
C839 C 0.95839 0.21285 0.93119 0.0
C840 C 0.98441 0.22077 0.97384 0.0
C841 C 0.95944 0.20784 0.97764 0.0
C842 C 0.01021 0.22941 0.97938 0.0
C843 C 0.01094 0.24237 0.06778 0.0
N844 N 0.97226 0.21225 -0.00179 0.0
N845 N -0.00149 0.23367 0.04507 0.0
H846 H 0.78511 0.74776 0.00255 0.0
H847 H 0.73737 0.76376 0.10682 0.0
H848 H 0.75741 0.74054 0.87976 0.0
H849 H 0.7418 0.7867 0.97293 0.0
H850 H 0.75373 0.75675 0.07397 0.0
H851 H 0.77784 0.76356 0.03864 0.0
C852 C 0.77787 0.74986 0.9823 0.0
C853 C 0.7717 0.74268 0.9383 0.0
C854 C 0.75145 0.7637 0.05253 0.0
C855 C 0.76343 0.76069 0.97949 0.0
C856 C 0.74212 0.76767 0.07121 0.0
C857 C 0.73827 0.77584 0.04263 0.0
C858 C 0.75656 0.76757 0.00442 0.0
C859 C 0.74458 0.78048 -0.00366 0.0
C860 C 0.77365 0.75876 0.00324 0.0
C861 C 0.76231 0.74576 0.91392 0.0
N862 N 0.75308 0.77591 0.978 0.0
N863 N 0.75836 0.75447 0.93506 0.0
H864 H 0.19292 0.95385 0.98592 0.0
H865 H 0.24065 0.01563 0.86838 0.0
H866 H 0.2225 0.97617 0.1024 0.0
H867 H 0.23749 0.03672 -0.00281 0.0
H868 H 0.22426 0.99287 0.90616 0.0
H869 H 0.19998 0.97644 0.94549 0.0
C870 C 0.20051 0.96352 0.00395 0.0
C871 C 0.20726 0.96316 0.04735 0.0
C872 C 0.22681 0.00251 0.92538 0.0
C873 C 0.21529 0.98886 0.00137 0.0
C874 C 0.23616 0.01546 0.90391 0.0
C875 C 0.24033 0.02803 0.92963 0.0
C876 C 0.22205 0.00218 0.97347 0.0
C877 C 0.23439 0.02726 0.97597 0.0
C878 C 0.20461 0.97635 0.98057 0.0
C879 C 0.21713 0.976 0.0688 0.0
N880 N 0.22589 0.01451 -0.00286 0.0
N881 N 0.22094 0.98836 0.04536 0.0
H882 H 0.9665 0.74136 0.87259 0.0
H883 H 0.03007 0.78994 0.97857 0.0
H884 H 0.94782 0.74586 0.00548 0.0
H885 H 0.00939 0.76226 0.1012 0.0
H886 H 0.00707 0.78233 0.94122 0.0
H887 H -0.0102 0.75803 0.90583 0.0
C888 C 0.96728 0.74619 0.90803 0.0
C889 C 0.95523 0.74225 0.93626 0.0
C890 C 0.00762 0.77822 0.97685 0.0
C891 C 0.98173 0.76091 0.97491 0.0
C892 C 0.02069 0.78264 -0.0015 0.0
C893 C 0.02163 0.77659 0.04288 0.0
C894 C -0.00457 0.76793 0.00029 0.0
C895 C 0.00912 0.76709 0.0668 0.0
C896 C 0.98055 0.7557 0.92694 0.0
C897 C 0.95684 0.74868 0.98234 0.0
N898 N -0.00349 0.76297 0.04501 0.0
N899 N 0.96988 0.75736 0.00092 0.0
H900 H 0.23933 0.2256 0.87085 0.0
H901 H 0.22021 0.24676 0.10899 0.0
H902 H 0.23678 0.20158 -0.00012 0.0
H903 H 0.19433 0.24123 0.98218 0.0
H904 H 0.22697 0.23062 0.07191 0.0
H905 H 0.2233 0.23212 0.90986 0.0
C906 C 0.23507 0.22139 0.90678 0.0
C907 C 0.23932 0.21302 0.93217 0.0
C908 C 0.21949 0.23265 0.05298 0.0
C909 C 0.22156 0.22087 0.97754 0.0
C910 C 0.21563 0.24183 0.0741 0.0
C911 C 0.20676 0.24538 0.04854 0.0
C912 C 0.21482 0.22744 0.0054 0.0
C913 C 0.20119 0.23877 0.0032 0.0
C914 C 0.22596 0.2251 0.929 0.0
C915 C 0.23365 0.20796 0.97895 0.0
N916 N 0.20565 0.23044 0.98235 0.0
N917 N 0.22537 0.2123 0.00081 0.0
H918 H 0.78611 0.03648 -0.00494 0.0
H919 H 0.73778 0.97385 0.10612 0.0
H920 H 0.75772 0.0149 0.87482 0.0
H921 H 0.742 0.95372 0.97643 0.0
H922 H 0.75437 -0.00312 0.07055 0.0
H923 H 0.77879 0.01366 0.0339 0.0
C924 C 0.77872 0.02694 0.97592 0.0
C925 C 0.77237 0.02758 0.93187 0.0
C926 C 0.75199 0.98738 0.05067 0.0
C927 C 0.76405 0.00158 0.97613 0.0
C928 C 0.74255 0.97428 0.0709 0.0
C929 C 0.7386 0.96191 0.04427 0.0
C930 C 0.7571 0.98807 0.00289 0.0
C931 C 0.7449 0.96302 -0.00164 0.0
C932 C 0.77448 0.01397 -0.0016 0.0
C933 C 0.76277 0.01487 0.90897 0.0
N934 N 0.7535 0.97592 0.97837 0.0
N935 N 0.7588 0.00235 0.9316 0.0
H936 H 0.63704 0.55983 0.20408 0.0
H937 H 0.69962 0.57473 0.31573 0.0
H938 H 0.61721 0.53626 0.33549 0.0
H939 H 0.67845 0.58226 0.43507 0.0
H940 H 0.67679 0.55907 0.27765 0.0
H941 H 0.66005 0.56654 0.23991 0.0
C942 C 0.63753 0.55571 0.23978 0.0
C943 C 0.62525 0.54742 0.26676 0.0
C944 C 0.67719 0.56389 0.31279 0.0
C945 C 0.6514 0.55539 0.30841 0.0
C946 C 0.69017 0.57272 0.33485 0.0
C947 C 0.69094 0.57997 0.37839 0.0
C948 C 0.66492 0.56209 0.33495 0.0
C949 C 0.67833 0.57699 0.4013 0.0
C950 C 0.65062 0.55952 0.26016 0.0
C951 C 0.62644 0.54254 0.31328 0.0
N952 N 0.6658 0.56835 0.37905 0.0
N953 N 0.63933 0.54697 0.33334 0.0
H954 H 0.45326 0.08399 0.32677 0.0
H955 H 0.40521 0.09825 0.43656 0.0
H956 H 0.42444 0.07593 0.20691 0.0
H957 H 0.40817 0.12131 0.30444 0.0
H958 H 0.42183 0.09197 0.4012 0.0
H959 H 0.44598 0.09968 0.36373 0.0
C960 C 0.44577 0.0859 0.30727 0.0
C961 C 0.43927 0.07847 0.26399 0.0
C962 C 0.41918 0.09879 0.38067 0.0
C963 C 0.43099 0.09635 0.30616 0.0
C964 C 0.4097 0.10234 0.40077 0.0
C965 C 0.40541 0.11036 0.37346 0.0
C966 C 0.42398 0.10289 0.33236 0.0
C967 C 0.41135 0.11523 0.32686 0.0
C968 C 0.44156 0.09474 0.3287 0.0
C969 C 0.42959 0.08132 0.24054 0.0
N970 N 0.42001 0.11104 0.30708 0.0
N971 N 0.42563 0.08996 0.26221 0.0
H972 H 0.86107 0.28555 0.31069 0.0
H973 H 0.90801 0.34889 0.19804 0.0
H974 H 0.88975 0.30771 0.42958 0.0
H975 H 0.90388 0.36835 0.32977 0.0
H976 H 0.89192 0.32565 0.23339 0.0
H977 H 0.86792 0.30825 0.27138 0.0
C978 C 0.86842 0.2952 0.32942 0.0
C979 C 0.87496 0.29478 0.37329 0.0
C980 C 0.8942 0.33505 0.25378 0.0
C981 C 0.88275 0.3206 0.32858 0.0
C982 C 0.90337 0.34828 0.23367 0.0
C983 C 0.90725 0.36054 0.26097 0.0
C984 C 0.88928 0.33413 0.30199 0.0
C985 C 0.90108 0.35916 0.30733 0.0
C986 C 0.8724 0.30809 0.30668 0.0
C987 C 0.88454 0.30759 0.39563 0.0
N988 N 0.89275 0.34617 0.32707 0.0
N989 N 0.88822 0.32001 0.37286 0.0
H990 H 0.69732 0.12161 0.30722 0.0
H991 H 0.63288 0.07326 0.20564 0.0
H992 H 0.67708 0.09447 0.43147 0.0
H993 H 0.61521 0.07868 0.33952 0.0
H994 H 0.65646 0.08969 0.23734 0.0
H995 H 0.67417 0.11409 0.27125 0.0
C996 C 0.68802 0.11445 0.32777 0.0
C997 C 0.68911 0.10853 0.37222 0.0
C998 C 0.64738 0.08761 0.25901 0.0
C999 C 0.66275 0.09997 0.33123 0.0
C1000 C 0.63395 0.07823 0.24099 0.0
C1001 C 0.6221 0.07464 0.26993 0.0
C1002 C 0.64891 0.09302 0.30681 0.0
C1003 C 0.62407 0.08125 0.31585 0.0
C1004 C 0.67486 0.11008 0.30692 0.0
C1005 C 0.67669 0.0992 0.39698 0.0
N1006 N 0.63725 0.08979 0.33355 0.0
N1007 N 0.66399 0.09513 0.37597 0.0
H1008 H 0.88678 0.58015 0.44282 0.0
H1009 H 0.90214 0.53251 0.33062 0.0
H1010 H 0.8628 0.5757 0.31167 0.0
H1011 H 0.9085 0.56101 0.21124 0.0
H1012 H 0.88658 0.53955 0.37017 0.0
H1013 H 0.89352 0.56377 0.40771 0.0
C1014 C 0.88257 0.57538 0.4074 0.0
C1015 C 0.87422 0.57926 0.38016 0.0
C1016 C 0.89112 0.54394 0.33472 0.0
C1017 C 0.88219 0.56096 0.33939 0.0
C1018 C 0.89987 0.53986 0.31183 0.0
C1019 C 0.9067 0.5463 0.26774 0.0
C1020 C 0.88899 0.55429 0.31273 0.0
C1021 C 0.90351 0.55587 0.24534 0.0
C1022 C 0.8864 0.56604 0.38743 0.0
C1023 C 0.86919 0.57291 0.33407 0.0
N1024 N 0.89492 0.55966 0.26826 0.0
N1025 N 0.87363 0.56443 0.31442 0.0
H1026 H 0.45197 0.37021 0.32613 0.0
H1027 H 0.40334 0.30749 0.43583 0.0
H1028 H 0.42325 0.34945 0.20593 0.0
H1029 H 0.407 0.28758 0.30458 0.0
H1030 H 0.41983 0.33058 0.40045 0.0
H1031 H 0.44431 0.34717 0.36368 0.0
C1032 C 0.44442 0.3608 0.30672 0.0
C1033 C 0.43809 0.36175 0.26309 0.0
C1034 C 0.41734 0.32112 0.38012 0.0
C1035 C 0.42938 0.33549 0.3059 0.0
C1036 C 0.40795 0.30798 0.40023 0.0
C1037 C 0.40391 0.29566 0.37319 0.0
C1038 C 0.42231 0.32189 0.33207 0.0
C1039 C 0.40999 0.29685 0.32681 0.0
C1040 C 0.43999 0.3477 0.32848 0.0
C1041 C 0.42829 0.34919 0.2398 0.0
N1042 N 0.41857 0.30978 0.307 0.0
N1043 N 0.42413 0.33654 0.26173 0.0
H1044 H 0.30265 0.89442 0.53795 0.0
H1045 H 0.36603 0.90949 0.64358 0.0
H1046 H 0.28379 0.87098 0.67048 0.0
H1047 H 0.34569 0.91715 0.76532 0.0
H1048 H 0.34294 0.89379 0.60723 0.0
H1049 H 0.32592 0.90122 0.57158 0.0
C1050 C 0.3034 0.89036 0.57343 0.0
C1051 C 0.29132 0.88208 0.60138 0.0
C1052 C 0.34358 0.89865 0.64249 0.0
C1053 C 0.31777 0.89014 0.64052 0.0
C1054 C 0.35671 0.9075 0.66357 0.0
C1055 C 0.35777 0.91478 0.7073 0.0
C1056 C 0.33147 0.89688 0.66586 0.0
C1057 C 0.34533 0.91185 0.73136 0.0
C1058 C 0.31664 0.89422 0.59255 0.0
C1059 C 0.29286 0.87726 0.64755 0.0
N1060 N 0.33266 0.90319 0.71009 0.0
N1061 N 0.30588 0.88173 0.6664 0.0
H1062 H 0.06985 0.43092 0.77002 0.0
H1063 H 0.11717 0.41404 0.66739 0.0
H1064 H 0.07402 0.45304 0.63433 0.0
H1065 H 0.08939 0.40638 0.54449 0.0
H1066 H 0.10996 0.43 0.70243 0.0
H1067 H 0.08602 0.42359 0.73785 0.0
C1068 C 0.0745 0.43459 0.73413 0.0
C1069 C 0.07064 0.44263 0.70487 0.0
C1070 C 0.10573 0.42506 0.66724 0.0
C1071 C 0.08872 0.43398 0.66747 0.0
C1072 C 0.10992 0.41607 0.64689 0.0
C1073 C 0.10372 0.40873 0.60317 0.0
C1074 C 0.09551 0.42693 0.64317 0.0
C1075 C 0.09432 0.41173 0.57845 0.0
C1076 C 0.08372 0.43043 0.71583 0.0
C1077 C 0.07682 0.44694 0.65826 0.0
N1078 N 0.09041 0.42054 0.599 0.0
N1079 N 0.08522 0.4422 0.64036 0.0
H1080 H 0.52768 0.6201 0.64401 0.0
H1081 H 0.57547 0.68317 0.53215 0.0
H1082 H 0.55597 0.64216 0.76394 0.0
H1083 H 0.57106 0.7029 0.66267 0.0
H1084 H 0.55903 0.66002 0.56731 0.0
H1085 H 0.53483 0.64282 0.60434 0.0
C1086 C 0.535 0.62973 0.66289 0.0
C1087 C 0.54135 0.62928 0.70717 0.0
C1088 C 0.56133 0.66946 0.58744 0.0
C1089 C 0.54948 0.65512 0.66204 0.0
C1090 C 0.5707 0.68264 0.56745 0.0
C1091 C 0.5746 0.69495 0.59449 0.0
C1092 C 0.55623 0.66864 0.63532 0.0
C1093 C 0.56826 0.69367 0.64043 0.0
C1094 C 0.53915 0.64264 0.63994 0.0
C1095 C 0.5509 0.64207 0.72968 0.0
N1096 N 0.55973 0.68072 0.66012 0.0
N1097 N 0.55475 0.6545 0.7067 0.0
H1098 H 0.34488 0.43029 0.77381 0.0
H1099 H 0.2804 0.41375 0.67335 0.0
H1100 H 0.36243 0.45277 0.63853 0.0
H1101 H 0.30016 0.40644 0.54896 0.0
H1102 H 0.30367 0.42956 0.70827 0.0
H1103 H 0.32129 0.42304 0.74239 0.0
C1104 C 0.34378 0.43404 0.73818 0.0
C1105 C 0.3556 0.44216 0.7088 0.0
C1106 C 0.30286 0.42473 0.6728 0.0
C1107 C 0.32877 0.43363 0.67224 0.0
C1108 C 0.28962 0.41583 0.65254 0.0
C1109 C 0.28836 0.40864 0.60839 0.0
C1110 C 0.31487 0.42665 0.64823 0.0
C1111 C 0.30068 0.41168 0.58325 0.0
C1112 C 0.33035 0.42994 0.72031 0.0
C1113 C 0.35359 0.4466 0.66253 0.0
N1114 N 0.31346 0.42041 0.60373 0.0
N1115 N 0.3404 0.44191 0.64502 0.0
H1116 H 0.56977 0.86683 0.66905 0.0
H1117 H 0.52723 0.90757 0.64831 0.0
H1118 H 0.57265 0.89169 0.54204 0.0
H1119 H 0.55321 0.91242 0.77418 0.0
H1120 H 0.53432 0.89176 0.61111 0.0
H1121 H 0.55407 0.8738 0.70788 0.0
C1122 C 0.56666 0.87329 0.64852 0.0
C1123 C 0.57254 0.87876 0.60231 0.0
C1124 C 0.53807 0.89596 0.64753 0.0
C1125 C 0.55453 0.88653 0.64623 0.0
C1126 C 0.53398 0.90489 0.66904 0.0
C1127 C 0.53976 0.91142 0.7143 0.0
C1128 C 0.54766 0.89325 0.67209 0.0
C1129 C 0.54859 0.90767 0.73915 0.0
C1130 C 0.55781 0.87733 0.67091 0.0
C1131 C 0.56836 0.88729 0.57772 0.0
N1132 N 0.55238 0.89889 0.71751 0.0
N1133 N 0.55964 0.89099 0.60012 0.0
H1134 H 0.07656 0.62109 0.64711 0.0
H1135 H 0.09214 0.68454 0.53657 0.0
H1136 H 0.06987 0.64277 0.76695 0.0
H1137 H 0.11594 0.70381 0.66835 0.0
H1138 H 0.08518 0.66126 0.5712 0.0
H1139 H 0.09214 0.64392 0.60829 0.0
C1140 C 0.07876 0.63066 0.66614 0.0
C1141 C 0.07183 0.63006 0.71015 0.0
C1142 C 0.0923 0.67063 0.59175 0.0
C1143 C 0.08957 0.65604 0.66601 0.0
C1144 C 0.09625 0.68388 0.57206 0.0
C1145 C 0.10464 0.6961 0.59958 0.0
C1146 C 0.09642 0.66964 0.63979 0.0
C1147 C 0.10954 0.69465 0.64574 0.0
C1148 C 0.08752 0.64363 0.64368 0.0
C1149 C 0.07494 0.64278 0.73289 0.0
N1150 N 0.10499 0.68164 0.6651 0.0
N1151 N 0.08354 0.65528 0.71039 0.0
H1152 H 0.08813 0.36553 0.77471 0.0
H1153 H 0.05081 0.28889 0.87669 0.0
H1154 H 0.06247 0.32972 0.68189 0.0
H1155 H 0.05996 0.32443 0.96941 0.0
H1156 H 0.05394 0.30345 0.80444 0.0
H1157 H 0.07703 0.35084 0.84691 0.0
C1158 C 0.08001 0.35464 0.76959 0.0
C1159 C 0.07636 0.34875 0.72249 0.0
C1160 C 0.05499 0.30797 0.84064 0.0
C1161 C 0.06381 0.3319 0.80445 0.0
C1162 C 0.05327 0.29969 0.88178 0.0
C1163 C 0.05537 0.30556 0.92887 0.0
C1164 C 0.05912 0.32225 0.84686 0.0
C1165 C 0.05839 0.31955 0.93364 0.0
C1166 C 0.07364 0.34628 0.8107 0.0
C1167 C 0.06568 0.33463 0.71768 0.0
N1168 N 0.06047 0.32753 0.89303 0.0
N1169 N 0.05996 0.32658 0.75827 0.0
H1170 H 0.69496 0.76322 0.86842 0.0
H1171 H 0.61822 0.7251 0.767 0.0
H1172 H 0.65968 0.73651 0.96108 0.0
H1173 H 0.65339 0.73373 0.67404 0.0
H1174 H 0.6331 0.72918 0.83919 0.0
H1175 H 0.68004 0.75262 0.79612 0.0
C1176 C 0.68414 0.755 0.87345 0.0
C1177 C 0.67847 0.75085 0.9206 0.0
C1178 C 0.63747 0.72993 0.80295 0.0
C1179 C 0.6614 0.73888 0.83865 0.0
C1180 C 0.62901 0.72767 0.76187 0.0
C1181 C 0.63466 0.72927 0.71468 0.0
C1182 C 0.65169 0.73409 0.79651 0.0
C1183 C 0.64866 0.7325 0.70987 0.0
C1184 C 0.67566 0.74893 0.83231 0.0
C1185 C 0.66442 0.74008 0.92529 0.0
N1186 N 0.65679 0.73507 0.75035 0.0
N1187 N 0.65627 0.73464 0.88476 0.0
H1188 H 0.20543 0.90748 0.89615 0.0
H1189 H 0.26638 0.9224 0.71449 0.0
H1190 H 0.24776 0.93826 0.9387 0.0
H1191 H 0.23481 0.88001 0.75396 0.0
H1192 H 0.25884 0.93136 0.78407 0.0
H1193 H 0.21484 0.9005 0.82729 0.0
C1194 C 0.21669 0.91297 0.89039 0.0
C1195 C 0.22589 0.92341 0.92308 0.0
C1196 C 0.25374 0.92011 0.77752 0.0
C1197 C 0.23658 0.91551 0.84482 0.0
C1198 C 0.25802 0.91501 0.73821 0.0
C1199 C 0.25122 0.90048 0.72884 0.0
C1200 C 0.24233 0.91059 0.80617 0.0
C1201 C 0.24039 0.89128 0.76022 0.0
C1202 C 0.22202 0.90888 0.85153 0.0
C1203 C 0.24039 0.93011 0.91424 0.0
N1204 N 0.23611 0.89652 0.79709 0.0
N1205 N 0.24535 0.92606 0.87564 0.0
H1206 H 0.29511 0.08757 0.07401 0.0
H1207 H 0.34069 0.07189 0.25957 0.0
H1208 H 0.30556 0.05544 0.04049 0.0
H1209 H 0.34955 0.11421 0.22895 0.0
H1210 H 0.3245 0.06338 0.18914 0.0
H1211 H 0.31125 0.09495 0.14404 0.0
C1212 C 0.30062 0.08192 0.08193 0.0
C1213 C 0.29909 0.07092 0.05156 0.0
C1214 C 0.33012 0.07453 0.19778 0.0
C1215 C 0.31744 0.07929 0.13103 0.0
C1216 C 0.33933 0.07938 0.23764 0.0
C1217 C 0.34644 0.09374 0.24973 0.0
C1218 C 0.32778 0.0841 0.17106 0.0
C1219 C 0.34434 0.10306 0.22053 0.0
C1220 C 0.3099 0.08622 0.12144 0.0
C1221 C 0.30654 0.06401 0.0631 0.0
N1222 N 0.33501 0.09804 0.18284 0.0
N1223 N 0.31542 0.06829 0.1022 0.0
H1224 H 0.87295 0.23899 0.22261 0.0
H1225 H 0.93383 0.2535 0.04105 0.0
H1226 H 0.91537 0.26962 0.26482 0.0
H1227 H 0.90186 0.21121 0.07981 0.0
H1228 H 0.92638 0.26254 0.11064 0.0
H1229 H 0.88222 0.2319 0.15371 0.0
C1230 C 0.88419 0.24442 0.21677 0.0
C1231 C 0.89345 0.25485 0.24938 0.0
C1232 C 0.92117 0.25129 0.10392 0.0
C1233 C 0.904 0.24682 0.17107 0.0
C1234 C 0.92539 0.24614 0.06461 0.0
C1235 C 0.91845 0.23162 0.05504 0.0
C1236 C 0.90968 0.24183 0.13237 0.0
C1237 C 0.90754 0.22247 0.08622 0.0
C1238 C 0.88945 0.24027 0.17788 0.0
C1239 C 0.90794 0.26147 0.24041 0.0
N1240 N 0.90331 0.22776 0.12311 0.0
N1241 N 0.91283 0.25736 0.2018 0.0
H1242 H 0.72781 0.65906 0.30523 0.0
H1243 H 0.72976 0.66364 0.01315 0.0
H1244 H 0.71855 0.62392 0.21014 0.0
H1245 H 0.75564 0.69885 0.10808 0.0
H1246 H 0.7186 0.64912 0.08558 0.0
H1247 H 0.73091 0.67355 0.23287 0.0
C1248 C 0.72617 0.65432 0.26915 0.0
C1249 C 0.7232 0.64036 0.26343 0.0
C1250 C 0.72656 0.66009 0.09039 0.0
C1251 C 0.7266 0.65682 0.18108 0.0
C1252 C 0.73291 0.6684 0.04921 0.0
C1253 C 0.74383 0.68238 0.05486 0.0
C1254 C 0.73106 0.66589 0.1373 0.0
C1255 C 0.74742 0.68804 0.10231 0.0
C1256 C 0.72796 0.6626 0.22802 0.0
C1257 C 0.72108 0.63472 0.21597 0.0
N1258 N 0.74113 0.67971 0.14189 0.0
N1259 N 0.72296 0.64302 0.17643 0.0
H1260 H 0.92846 0.69902 0.10758 0.0
H1261 H 0.89035 0.62245 0.21 0.0
H1262 H 0.91852 0.66325 0.01493 0.0
H1263 H 0.91634 0.65821 0.30253 0.0
H1264 H 0.90161 0.63701 0.1377 0.0
H1265 H 0.92535 0.68447 0.17982 0.0
C1266 C 0.92584 0.68817 0.10249 0.0
C1267 C 0.9235 0.68224 0.05544 0.0
C1268 C 0.90504 0.64158 0.17387 0.0
C1269 C 0.91976 0.66555 0.13747 0.0
C1270 C 0.89858 0.6333 0.21504 0.0
C1271 C 0.90227 0.63923 0.26209 0.0
C1272 C 0.91501 0.65593 0.17998 0.0
C1273 C 0.91309 0.65329 0.26679 0.0
C1274 C 0.92412 0.67989 0.14363 0.0
C1275 C 0.92027 0.66818 0.05068 0.0
N1276 N 0.91889 0.66127 0.22613 0.0
N1277 N 0.9182 0.66021 0.09131 0.0
H1278 H 0.30402 0.2511 0.04058 0.0
H1279 H 0.35 0.23589 0.22601 0.0
H1280 H 0.29564 0.2089 0.07059 0.0
H1281 H 0.33902 0.26762 0.25983 0.0
H1282 H 0.33399 0.22847 0.15564 0.0
H1283 H 0.32026 0.2597 0.11085 0.0
C1284 C 0.30549 0.24365 0.06233 0.0
C1285 C 0.29849 0.22929 0.05014 0.0
C1286 C 0.3352 0.23712 0.17837 0.0
C1287 C 0.31722 0.23905 0.12864 0.0
C1288 C 0.34442 0.24145 0.21808 0.0
C1289 C 0.34574 0.25233 0.24865 0.0
C1290 C 0.32753 0.24393 0.16877 0.0
C1291 C 0.33818 0.25913 0.23705 0.0
C1292 C 0.31474 0.24856 0.1021 0.0
C1293 C 0.30076 0.22004 0.07911 0.0
N1294 N 0.32938 0.25483 0.19777 0.0
N1295 N 0.31011 0.22512 0.11673 0.0
H1296 H 0.75947 0.05849 0.10123 0.0
H1297 H 0.72053 0.09644 0.20081 0.0
H1298 H 0.7328 0.06686 0.00738 0.0
H1299 H 0.72911 0.06976 0.29419 0.0
H1300 H 0.72507 0.08595 0.12884 0.0
H1301 H 0.7487 0.06268 0.17305 0.0
C1302 C 0.75123 0.06103 0.09583 0.0
C1303 C 0.74712 0.0625 0.0485 0.0
C1304 C 0.72572 0.08224 0.16511 0.0
C1305 C 0.73496 0.06746 0.12988 0.0
C1306 C 0.72319 0.08825 0.20606 0.0
C1307 C 0.72462 0.08407 0.25333 0.0
C1308 C 0.72998 0.07223 0.17177 0.0
C1309 C 0.72799 0.07335 0.2583 0.0
C1310 C 0.74506 0.06336 0.13669 0.0
C1311 C 0.73633 0.06571 0.04333 0.0
N1312 N 0.73081 0.06797 0.21796 0.0
N1313 N 0.73079 0.06834 0.0836 0.0
H1314 H 0.63806 0.92034 0.70757 0.0
H1315 H 0.68564 0.90706 0.88868 0.0
H1316 H 0.62879 0.87831 0.74575 0.0
H1317 H 0.67249 0.93651 0.93265 0.0
H1318 H 0.66935 0.8999 0.81925 0.0
H1319 H 0.65463 0.92963 0.77714 0.0
C1320 C 0.6394 0.9131 0.73097 0.0
C1321 C 0.63208 0.89857 0.7213 0.0
C1322 C 0.67019 0.90804 0.84391 0.0
C1323 C 0.65115 0.90908 0.7986 0.0
C1324 C 0.67954 0.91223 0.88314 0.0
C1325 C 0.6803 0.92233 0.91645 0.0
C1326 C 0.66182 0.91422 0.83745 0.0
C1327 C 0.67209 0.92863 0.90777 0.0
C1328 C 0.64881 0.91838 0.77028 0.0
C1329 C 0.63417 0.88957 0.75228 0.0
N1330 N 0.66314 0.92447 0.86883 0.0
N1331 N 0.64371 0.895 0.78915 0.0
H1332 H 0.09144 0.72635 0.77207 0.0
H1333 H 0.05298 0.76466 0.87231 0.0
H1334 H 0.06506 0.73518 0.67839 0.0
H1335 H 0.06127 0.73771 0.96529 0.0
H1336 H 0.05735 0.7541 0.80017 0.0
H1337 H 0.08062 0.73043 0.84397 0.0
C1338 C 0.08325 0.72896 0.76672 0.0
C1339 C 0.07925 0.73061 0.71942 0.0
C1340 C 0.05797 0.75035 0.83639 0.0
C1341 C 0.06704 0.73545 0.80091 0.0
C1342 C 0.05554 0.7564 0.87744 0.0
C1343 C 0.05695 0.75216 0.92464 0.0
C1344 C 0.06211 0.74024 0.84289 0.0
C1345 C 0.06018 0.74135 0.92946 0.0
C1346 C 0.07705 0.73123 0.80763 0.0
C1347 C 0.06852 0.7339 0.71432 0.0
N1348 N 0.06291 0.73593 0.88903 0.0
N1349 N 0.06295 0.73648 0.75464 0.0
H1350 H 0.24878 0.32476 0.9749 0.0
H1351 H 0.25073 0.32953 0.68278 0.0
H1352 H 0.22309 0.28954 0.87974 0.0
H1353 H 0.25998 0.36461 0.77812 0.0
H1354 H 0.24759 0.31499 0.75504 0.0
H1355 H 0.25983 0.33937 0.90254 0.0
C1356 C 0.24565 0.32003 0.9388 0.0
C1357 C 0.23482 0.30601 0.93308 0.0
C1358 C 0.25053 0.32593 0.75998 0.0
C1359 C 0.24746 0.3226 0.85071 0.0
C1360 C 0.25236 0.33425 0.7189 0.0
C1361 C 0.25535 0.34821 0.7247 0.0
C1362 C 0.25188 0.33169 0.80696 0.0
C1363 C 0.25744 0.35382 0.77221 0.0
C1364 C 0.25194 0.32838 0.89766 0.0
C1365 C 0.23124 0.30038 0.88558 0.0
N1366 N 0.25554 0.34549 0.8117 0.0
N1367 N 0.23747 0.30875 0.84605 0.0
H1368 H -0.00805 0.40276 0.62765 0.0
H1369 H 0.98632 0.39984 0.3358 0.0
H1370 H 0.02664 0.42919 0.53226 0.0
H1371 H 0.95153 0.391 0.43114 0.0
H1372 H 0.00113 0.40399 0.40805 0.0
H1373 H 0.9772 0.39186 0.55542 0.0
C1374 C -0.00346 0.4061 0.59149 0.0
C1375 C 0.01046 0.41705 0.58573 0.0
C1376 C -0.0098 0.40094 0.413 0.0
C1377 C -0.00629 0.40456 0.50351 0.0
C1378 C 0.98173 0.39853 0.37195 0.0
C1379 C 0.96775 0.3953 0.3777 0.0
C1380 C 0.98457 0.3999 0.45994 0.0
C1381 C 0.96232 0.39367 0.42527 0.0
C1382 C 0.9881 0.3999 0.55045 0.0
C1383 C 0.01589 0.42092 0.53815 0.0
N1384 N 0.97079 0.39609 0.46474 0.0
N1385 N 0.00745 0.41473 0.49868 0.0
H1386 H 0.60071 0.58851 0.37599 0.0
H1387 H 0.53982 0.57399 0.55684 0.0
H1388 H 0.56919 0.54618 0.41634 0.0
H1389 H 0.58217 0.60417 0.60147 0.0
H1390 H 0.54931 0.56708 0.48802 0.0
H1391 H 0.59326 0.59757 0.44556 0.0
C1392 C 0.59238 0.58115 0.39988 0.0
C1393 C 0.58556 0.5666 0.39076 0.0
C1394 C 0.55647 0.57532 0.5127 0.0
C1395 C 0.57678 0.57683 0.46805 0.0
C1396 C 0.55112 0.57938 0.55156 0.0
C1397 C 0.5603 0.58962 0.58486 0.0
C1398 C 0.57104 0.58179 0.50659 0.0
C1399 C 0.57482 0.59618 0.5766 0.0
C1400 C 0.58815 0.58631 0.43918 0.0
C1401 C 0.57477 0.55746 0.42237 0.0
N1402 N 0.57981 0.59216 0.53797 0.0
N1403 N 0.57054 0.56276 0.45921 0.0
H1404 H 0.38626 0.95827 0.53718 0.0
H1405 H 0.42351 0.0351 0.43572 0.0
H1406 H 0.39572 0.9938 0.63043 0.0
H1407 H 0.39774 -0.00068 0.34292 0.0
H1408 H 0.41264 0.02033 0.50795 0.0
H1409 H 0.38946 0.97294 0.46515 0.0
C1410 C 0.38882 0.9691 0.54243 0.0
C1411 C 0.39096 0.97492 0.58962 0.0
C1412 C 0.40918 0.01579 0.47175 0.0
C1413 C 0.39478 0.99173 0.50784 0.0
C1414 C 0.41541 0.02419 0.43062 0.0
C1415 C 0.41166 0.01834 0.38348 0.0
C1416 C 0.39938 0.00141 0.46549 0.0
C1417 C 0.40102 0.0042 0.37872 0.0
C1418 C 0.39058 0.97744 0.50142 0.0
C1419 C 0.39411 0.98895 0.59458 0.0
N1420 N 0.39544 -0.00388 0.41931 0.0
N1421 N 0.3962 -0.00302 0.55409 0.0
H1422 H 0.55588 0.95488 0.54547 0.0
H1423 H 0.5935 0.0316 0.44333 0.0
H1424 H 0.58189 0.99065 0.63797 0.0
H1425 H 0.58372 -0.00408 0.35044 0.0
H1426 H 0.59032 0.01699 0.5155 0.0
H1427 H 0.5668 0.96956 0.47312 0.0
C1428 C 0.56404 0.96576 0.55048 0.0
C1429 C 0.56784 0.97164 0.59755 0.0
C1430 C 0.58913 0.01244 0.47927 0.0
C1431 C 0.5802 0.98848 0.51542 0.0
C1432 C 0.59088 0.02076 0.43818 0.0
C1433 C 0.58863 0.01487 0.39106 0.0
C1434 C 0.58483 -0.00188 0.47299 0.0
C1435 C 0.5854 0.00082 0.38623 0.0
C1436 C 0.57031 0.97412 0.50928 0.0
C1437 C 0.57857 0.98575 0.60221 0.0
N1438 N 0.58332 0.99282 0.4268 0.0
N1439 N 0.58418 0.99379 0.56155 0.0
H1440 H 0.96025 0.54425 0.41835 0.0
H1441 H 0.00669 0.60516 0.60137 0.0
H1442 H 0.97218 0.58682 0.37656 0.0
H1443 H 0.0171 0.57341 0.5613 0.0
H1444 H -0.0098 0.59773 0.53157 0.0
H1445 H 0.97665 0.55358 0.48743 0.0
C1446 C 0.9661 0.55554 0.42432 0.0
C1447 C 0.96495 0.56482 0.39177 0.0
C1448 C -0.00374 0.59257 0.53803 0.0
C1449 C 0.98357 0.57543 0.47031 0.0
C1450 C 0.00563 0.59679 0.57747 0.0
C1451 C 0.01324 0.5899 0.58674 0.0
C1452 C -0.00575 0.58114 0.50913 0.0
C1453 C 0.0115 0.57906 0.55511 0.0
C1454 C 0.97552 0.56083 0.46332 0.0
C1455 C 0.97287 0.57937 0.40091 0.0
N1456 N 0.00198 0.57483 0.51811 0.0
N1457 N 0.98189 0.58429 0.43963 0.0
H1458 H 0.39853 0.40079 0.33789 0.0
H1459 H 0.39522 0.40299 0.6296 0.0
H1460 H 0.42495 0.39258 0.43373 0.0
H1461 H 0.38632 0.42907 0.53428 0.0
H1462 H 0.39963 0.39256 0.55738 0.0
H1463 H 0.38759 0.40454 0.40989 0.0
C1464 C 0.40187 0.39955 0.3741 0.0
C1465 C 0.41282 0.3966 0.38005 0.0
C1466 C 0.39651 0.40042 0.55242 0.0
C1467 C 0.40028 0.40074 0.46203 0.0
C1468 C 0.39396 0.40635 0.59345 0.0
C1469 C 0.39063 0.41707 0.58772 0.0
C1470 C 0.39553 0.40512 0.50551 0.0
C1471 C 0.38906 0.42097 0.54015 0.0
C1472 C 0.39565 0.40172 0.41501 0.0
C1473 C 0.41668 0.39504 0.42769 0.0
N1474 N 0.39162 0.41504 0.50069 0.0
N1475 N 0.41046 0.39723 0.46705 0.0
H1476 H 0.08664 0.3387 0.1853 0.0
H1477 H 0.07519 0.31563 0.46697 0.0
H1478 H 0.06437 0.29527 0.233 0.0
H1479 H 0.09572 0.35904 0.41914 0.0
H1480 H 0.0707 0.30805 0.38176 0.0
H1481 H 0.08954 0.34626 0.27049 0.0
C1482 C 0.08232 0.33071 0.21369 0.0
C1483 C 0.07529 0.31628 0.20185 0.0
C1484 C 0.07615 0.31923 0.38979 0.0
C1485 C 0.07864 0.32498 0.29995 0.0
C1486 C 0.07876 0.32361 0.43855 0.0
C1487 C 0.08594 0.33805 0.45036 0.0
C1488 C 0.08077 0.32932 0.35225 0.0
C1489 C 0.09019 0.34783 0.41181 0.0
C1490 C 0.08399 0.33508 0.26244 0.0
C1491 C 0.06988 0.30648 0.24036 0.0
N1492 N 0.08759 0.34327 0.36443 0.0
N1493 N 0.07172 0.31102 0.28775 0.0
H1494 H 0.66775 0.75546 0.4588 0.0
H1495 H 0.64533 0.74349 0.17658 0.0
H1496 H 0.62459 0.73413 0.40942 0.0
H1497 H 0.68848 0.76589 0.22602 0.0
H1498 H 0.63763 0.7383 0.26143 0.0
H1499 H 0.67544 0.75764 0.37408 0.0
C1500 C 0.65984 0.75118 0.43014 0.0
C1501 C 0.64546 0.74471 0.44132 0.0
C1502 C 0.64878 0.74429 0.25382 0.0
C1503 C 0.6543 0.74722 0.34381 0.0
C1504 C 0.65323 0.7473 0.20528 0.0
C1505 C 0.66761 0.75529 0.19408 0.0
C1506 C 0.65876 0.74933 0.29172 0.0
C1507 C 0.6773 0.75976 0.23292 0.0
C1508 C 0.66428 0.75243 0.38167 0.0
C1509 C 0.63577 0.73925 0.40254 0.0
N1510 N 0.67268 0.7568 0.28009 0.0
N1511 N 0.64038 0.74072 0.35541 0.0
H1512 H 0.24329 0.90611 0.18472 0.0
H1513 H 0.2329 0.91683 0.46812 0.0
H1514 H 0.21975 0.9254 0.23613 0.0
H1515 H 0.25272 0.89377 0.41668 0.0
H1516 H 0.23051 0.92252 0.3836 0.0
H1517 H 0.24925 0.90405 0.26919 0.0
C1518 C 0.23941 0.91 0.21375 0.0
C1519 C 0.23085 0.91582 0.20323 0.0
C1520 C 0.23545 0.91628 0.39072 0.0
C1521 C 0.23769 0.91344 0.30043 0.0
C1522 C 0.23684 0.91301 0.43907 0.0
C1523 C 0.24291 0.90466 0.4496 0.0
C1524 C 0.24014 0.91118 0.35236 0.0
C1525 C 0.24792 0.90016 0.41032 0.0
C1526 C 0.24284 0.90881 0.26207 0.0
C1527 C 0.2263 0.92079 0.24249 0.0
N1528 N 0.24633 0.9034 0.36337 0.0
N1529 N 0.2297 0.91939 0.28943 0.0
H1530 H 0.35589 0.0945 0.56121 0.0
H1531 H 0.28971 0.06147 0.74006 0.0
H1532 H 0.31293 0.07019 0.51093 0.0
H1533 H 0.3327 0.08103 0.79049 0.0
H1534 H 0.29795 0.06256 0.65584 0.0
H1535 H 0.34767 0.08773 0.64568 0.0
C1536 C 0.34477 0.08761 0.56781 0.0
C1537 C 0.33509 0.0831 0.52897 0.0
C1538 C 0.30555 0.06647 0.68548 0.0
C1539 C 0.32558 0.07542 0.6254 0.0
C1540 C 0.30084 0.06582 0.73356 0.0
C1541 C 0.31053 0.07135 0.77233 0.0
C1542 C 0.32005 0.07276 0.67621 0.0
C1543 C 0.32484 0.07682 0.76172 0.0
C1544 C 0.34007 0.08375 0.61604 0.0
C1545 C 0.32079 0.07411 0.53973 0.0
N1546 N 0.32917 0.07753 0.71468 0.0
N1547 N 0.31647 0.07071 0.5869 0.0
H1548 H 0.90124 0.24875 0.79422 0.0
H1549 H 0.91112 0.23773 0.51066 0.0
H1550 H 0.92039 0.22508 0.74249 0.0
H1551 H 0.88785 0.25726 0.56252 0.0
H1552 H 0.91716 0.23567 0.59502 0.0
H1553 H 0.89891 0.25452 0.70976 0.0
C1554 C 0.90505 0.24481 0.76511 0.0
C1555 C 0.9109 0.23626 0.77555 0.0
C1556 C 0.9108 0.24047 0.58802 0.0
C1557 C 0.9082 0.24288 0.67837 0.0
C1558 C 0.90733 0.24168 0.53977 0.0
C1559 C 0.89881 0.24756 0.5294 0.0
C1560 C 0.90574 0.24517 0.62648 0.0
C1561 C 0.89436 0.25259 0.56875 0.0
C1562 C 0.9037 0.24814 0.71681 0.0
C1563 C 0.91576 0.23163 0.7362 0.0
N1564 N 0.8978 0.25119 0.61563 0.0
N1565 N 0.9142 0.23492 0.68927 0.0
H1566 H 0.74285 0.64973 0.80006 0.0
H1567 H 0.75517 0.67283 0.51854 0.0
H1568 H 0.76392 0.69316 0.75231 0.0
H1569 H 0.73208 0.6294 0.56612 0.0
H1570 H 0.758 0.68039 0.60368 0.0
H1571 H 0.73839 0.64217 0.71484 0.0
C1572 C 0.74654 0.65772 0.77165 0.0
C1573 C 0.75387 0.67216 0.78348 0.0
C1574 C 0.75228 0.66921 0.59561 0.0
C1575 C 0.74875 0.66345 0.68537 0.0
C1576 C 0.75066 0.66484 0.54689 0.0
C1577 C 0.74342 0.65041 0.53504 0.0
C1578 C 0.74668 0.65911 0.63308 0.0
C1579 C 0.73776 0.64062 0.57349 0.0
C1580 C 0.74395 0.65335 0.72289 0.0
C1581 C 0.75828 0.68195 0.74496 0.0
N1582 N 0.73957 0.64516 0.62087 0.0
N1583 N 0.7557 0.67741 0.69756 0.0
H1584 H 0.90371 0.67235 0.5182 0.0
H1585 H 0.89089 0.64908 0.79964 0.0
H1586 H 0.88227 0.62889 0.56559 0.0
H1587 H 0.91418 0.69252 0.75236 0.0
H1588 H 0.88804 0.64156 0.71441 0.0
H1589 H 0.90801 0.67985 0.60352 0.0
C1590 C 0.8999 0.66434 0.54655 0.0
C1591 C 0.89253 0.64992 0.53458 0.0
C1592 C 0.89381 0.65273 0.72257 0.0
C1593 C 0.89747 0.65855 0.63282 0.0
C1594 C 0.89544 0.65708 0.77134 0.0
C1595 C 0.90275 0.6715 0.78332 0.0
C1596 C 0.89948 0.66285 0.68517 0.0
C1597 C 0.90845 0.68131 0.74491 0.0
C1598 C 0.9024 0.66867 0.59537 0.0
C1599 C 0.88797 0.6401 0.57304 0.0
N1600 N 0.90664 0.67679 0.6975 0.0
N1601 N 0.89047 0.6446 0.6205 0.0
H1602 H 0.28803 0.22775 0.73836 0.0
H1603 H 0.35429 0.26171 0.55974 0.0
H1604 H 0.33091 0.25299 0.78849 0.0
H1605 H 0.31128 0.24079 0.50898 0.0
H1606 H 0.34591 0.26063 0.64371 0.0
H1607 H 0.29619 0.23442 0.65374 0.0
C1608 C 0.29911 0.23483 0.73169 0.0
C1609 C 0.3088 0.23961 0.77053 0.0
C1610 C 0.33833 0.25642 0.61405 0.0
C1611 C 0.31824 0.24718 0.67398 0.0
C1612 C 0.34312 0.25705 0.56612 0.0
C1613 C 0.33349 0.25115 0.52733 0.0
C1614 C 0.3238 0.24978 0.62319 0.0
C1615 C 0.31911 0.2453 0.53777 0.0
C1616 C 0.30378 0.23862 0.68338 0.0
C1617 C 0.32305 0.24884 0.75969 0.0
N1618 N 0.31471 0.24462 0.58469 0.0
N1619 N 0.32734 0.25218 0.71247 0.0
H1620 H 0.7614 0.06589 0.74329 0.0
H1621 H 0.72824 0.09853 0.55888 0.0
H1622 H 0.74025 0.0881 0.79011 0.0
H1623 H 0.74979 0.07674 0.51191 0.0
H1624 H 0.73086 0.09312 0.64423 0.0
H1625 H 0.7556 0.0681 0.65803 0.0
C1626 C 0.75548 0.07114 0.73573 0.0
C1627 C 0.75144 0.07693 0.77389 0.0
C1628 C 0.73494 0.08947 0.61513 0.0
C1629 C 0.74479 0.07952 0.67668 0.0
C1630 C 0.73342 0.09254 0.56644 0.0
C1631 C 0.73892 0.08822 0.5282 0.0
C1632 C 0.742 0.08203 0.62552 0.0
C1633 C 0.74551 0.08044 0.54016 0.0
C1634 C 0.75218 0.07242 0.68709 0.0
C1635 C 0.74373 0.08359 0.76192 0.0
N1636 N 0.74693 0.07767 0.5877 0.0
N1637 N 0.74073 0.08476 0.71444 0.0
H1638 H 0.68826 0.92521 0.22872 0.0
H1639 H 0.62183 0.89109 0.4087 0.0
H1640 H 0.64518 0.90327 0.17846 0.0
H1641 H 0.66485 0.91544 0.45826 0.0
H1642 H 0.63006 0.89682 0.32372 0.0
H1643 H 0.67982 0.92308 0.31318 0.0
C1644 C 0.67706 0.92005 0.23534 0.0
C1645 C 0.66744 0.91431 0.19642 0.0
C1646 C 0.63767 0.90099 0.35331 0.0
C1647 C 0.6577 0.91176 0.29288 0.0
C1648 C 0.63296 0.89773 0.4018 0.0
C1649 C 0.64265 0.90265 0.44069 0.0
C1650 C 0.65216 0.90917 0.34374 0.0
C1651 C 0.65698 0.91126 0.42952 0.0
C1652 C 0.67223 0.91882 0.28356 0.0
C1653 C 0.65302 0.90776 0.20725 0.0
N1654 N 0.66129 0.91415 0.38217 0.0
N1655 N 0.6486 0.90659 0.25439 0.0
H1656 H 0.07313 0.75778 0.4639 0.0
H1657 H 0.08171 0.74413 0.18197 0.0
H1658 H 0.09381 0.73532 0.41487 0.0
H1659 H 0.06196 0.7675 0.23094 0.0
H1660 H 0.08447 0.73917 0.26697 0.0
H1661 H 0.06735 0.7598 0.37924 0.0
C1662 C 0.07645 0.75322 0.43533 0.0
C1663 C 0.08411 0.74647 0.44659 0.0
C1664 C 0.07947 0.74532 0.25923 0.0
C1665 C 0.07746 0.74878 0.34914 0.0
C1666 C 0.07789 0.74819 0.21061 0.0
C1667 C 0.07171 0.75639 0.19923 0.0
C1668 C 0.0749 0.75071 0.29703 0.0
C1669 C 0.06683 0.76119 0.23798 0.0
C1670 C 0.0731 0.75438 0.3869 0.0
C1671 C 0.08796 0.74067 0.40793 0.0
N1672 N 0.06863 0.75836 0.28524 0.0
N1673 N 0.08466 0.74204 0.36082 0.0
H1674 H 0.21465 0.29437 0.23559 0.0
H1675 H 0.24745 0.3599 0.42225 0.0
H1676 H 0.23564 0.33798 0.18991 0.0
H1677 H 0.22362 0.31633 0.46771 0.0
H1678 H 0.24459 0.35205 0.33663 0.0
H1679 H 0.21923 0.3022 0.32132 0.0
C1680 C 0.22025 0.30556 0.24352 0.0
C1681 C 0.22468 0.31551 0.20548 0.0
C1682 C 0.24002 0.34423 0.36546 0.0
C1683 C 0.22996 0.32455 0.30325 0.0
C1684 C 0.24167 0.34871 0.4143 0.0
C1685 C 0.23571 0.33879 0.45224 0.0
C1686 C 0.23241 0.32972 0.35459 0.0
C1687 C 0.22833 0.3244 0.43974 0.0
C1688 C 0.22285 0.31004 0.29242 0.0
C1689 C 0.23193 0.3299 0.21795 0.0
N1690 N 0.22688 0.32032 0.39208 0.0
N1691 N 0.2343 0.33397 0.26567 0.0
H1692 H 0.02172 0.43322 0.88922 0.0
H1693 H 0.95611 0.40038 0.07358 0.0
H1694 H 0.97836 0.41258 0.84224 0.0
H1695 H -0.00051 0.42232 0.12051 0.0
H1696 H 0.96403 0.40308 -0.01181 0.0
H1697 H 0.01375 0.42767 0.97448 0.0
C1698 C 0.01056 0.42747 0.89675 0.0
C1699 C 0.00072 0.42348 0.85854 0.0
C1700 C 0.9718 0.40724 0.01729 0.0
C1701 C -0.00848 0.41711 0.95575 0.0
C1702 C 0.96726 0.40568 0.066 0.0
C1703 C 0.97712 0.41124 0.10425 0.0
C1704 C 0.98627 0.41439 0.0069 0.0
C1705 C -0.00852 0.41798 0.09226 0.0
C1706 C 0.006 0.42431 0.94539 0.0
C1707 C 0.98636 0.416 0.87047 0.0
N1708 N -0.0044 0.41941 0.04472 0.0
N1709 N 0.98221 0.41312 0.91796 0.0
H1710 H 0.58728 0.55914 0.07868 0.0
H1711 H 0.55368 0.59199 0.89744 0.0
H1712 H 0.567 0.58198 0.12784 0.0
H1713 H 0.57595 0.57113 0.84827 0.0
H1714 H 0.55979 0.58978 0.98229 0.0
H1715 H 0.58459 0.56478 -0.0063 0.0
C1716 C 0.58238 0.56542 0.07169 0.0
C1717 C 0.57725 0.56996 0.11047 0.0
C1718 C 0.56341 0.58577 0.95282 0.0
C1719 C 0.57406 0.5764 0.01348 0.0
C1720 C 0.55993 0.58705 0.90439 0.0
C1721 C 0.56418 0.58163 0.86565 0.0
C1722 C 0.57115 0.579 0.9625 0.0
C1723 C 0.5723 0.57536 0.87689 0.0
C1724 C 0.58082 0.56863 0.02319 0.0
C1725 C 0.57101 0.57812 0.09918 0.0
N1726 N 0.57543 0.57414 0.9242 0.0
N1727 N 0.56951 0.58098 0.0518 0.0
H1728 H 0.43114 0.02914 0.08006 0.0
H1729 H 0.39828 0.96362 0.89338 0.0
H1730 H 0.40978 0.98553 0.12583 0.0
H1731 H 0.42215 0.0072 0.84798 0.0
H1732 H 0.40109 0.97147 0.979 0.0
H1733 H 0.42663 0.02132 -0.00565 0.0
C1734 C 0.42547 0.01795 0.07216 0.0
C1735 C 0.42091 0.00801 0.11023 0.0
C1736 C 0.40568 0.97929 0.95019 0.0
C1737 C 0.41572 -0.00103 0.01243 0.0
C1738 C 0.40406 0.97481 0.90134 0.0
C1739 C 0.41004 0.98474 0.86341 0.0
C1740 C 0.4133 0.99379 0.96108 0.0
C1741 C 0.41741 -0.00087 0.87593 0.0
C1742 C 0.42291 0.01348 0.02325 0.0
C1743 C 0.41358 0.99361 0.09777 0.0
N1744 N 0.41885 0.0032 0.9236 0.0
N1745 N 0.41125 0.98954 0.05003 0.0
H1746 H 0.57112 0.00461 0.85415 0.0
H1747 H 0.55617 0.98181 0.13563 0.0
H1748 H 0.54806 0.96122 0.90205 0.0
H1749 H 0.58091 0.02508 0.0878 0.0
H1750 H 0.55364 0.97411 0.05068 0.0
H1751 H 0.57535 0.01218 0.93938 0.0
C1752 C 0.56695 -0.00337 0.8826 0.0
C1753 C 0.55912 0.98222 0.8708 0.0
C1754 C 0.55966 0.98529 0.05867 0.0
C1755 C 0.56397 0.99093 0.96894 0.0
C1756 C 0.56111 0.98973 0.10727 0.0
C1757 C 0.56873 0.00417 0.11899 0.0
C1758 C 0.56583 -0.00469 0.02119 0.0
C1759 C 0.57492 0.01387 0.08054 0.0
C1760 C 0.56941 0.00101 0.93137 0.0
C1761 C 0.55412 0.97243 0.90939 0.0
N1762 N 0.57328 0.00926 0.03329 0.0
N1763 N 0.55657 0.97698 0.9568 0.0
H1764 H 0.97889 0.57125 0.84686 0.0
H1765 H -0.00032 0.58251 0.13083 0.0
H1766 H 0.02172 0.59148 0.89941 0.0
H1767 H 0.95692 0.55857 0.07827 0.0
H1768 H 0.0078 0.58828 0.04649 0.0
H1769 H 0.97074 0.56898 0.93107 0.0
C1770 C 0.98663 0.5753 0.87609 0.0
C1771 C 0.00105 0.58145 0.86594 0.0
C1772 C -0.00336 0.58183 0.05333 0.0
C1773 C -0.00833 0.57883 0.96289 0.0
C1774 C -0.00805 0.57851 0.10157 0.0
C1775 C 0.97756 0.56989 0.11175 0.0
C1776 C 0.98691 0.57651 0.0147 0.0
C1777 C 0.9681 0.56518 0.0722 0.0
C1778 C 0.98192 0.57398 0.92427 0.0
C1779 C 0.01052 0.58661 0.90546 0.0
N1780 N 0.97296 0.56848 0.02535 0.0
N1781 N 0.00565 0.58509 0.95227 0.0
H1782 H 0.4077 0.42397 0.12466 0.0
H1783 H 0.4174 0.4112 0.84292 0.0
H1784 H 0.4287 0.40178 0.07615 0.0
H1785 H 0.39658 0.43356 0.89162 0.0
H1786 H 0.42012 0.40623 0.92793 0.0
H1787 H 0.40214 0.42611 0.03986 0.0
C1788 C 0.41114 0.4195 0.09617 0.0
C1789 C 0.41882 0.41278 0.10761 0.0
C1790 C 0.4149 0.41216 0.92012 0.0
C1791 C 0.41243 0.41524 0.01 0.0
C1792 C 0.41334 0.41505 0.8715 0.0
C1793 C 0.40685 0.42295 0.86005 0.0
C1794 C 0.40999 0.41725 0.95784 0.0
C1795 C 0.40169 0.42749 0.89872 0.0
C1796 C 0.40792 0.42072 0.04765 0.0
C1797 C 0.42283 0.40709 0.06905 0.0
N1798 N 0.40346 0.42464 0.94598 0.0
N1799 N 0.41965 0.40853 0.02185 0.0
loop_
_geom_bond_atom_site_label_1
_geom_bond_atom_site_label_2
_geom_bond_distance
_geom_bond_site_symmetry_2
_ccdc_geom_bond_type
C0 O1 1.306 . S
C0 O3 1.160 . S
O1 C0 1.306 . S
O1 Cd2 2.228 . S
Cd2 O1 2.228 . S
Cd2 O6 2.273 . S
Cd2 O10 2.277 . S
O3 C0 1.160 . S
O3 Cd4 2.203 . S
Cd4 O3 2.203 . S
Cd4 O6 2.411 . S
Cd4 O7 2.333 1_554 S
Cd4 O8 2.352 . S
Cd4 O12 2.277 . S
Cd4 O13 2.356 . S
C5 O10 1.209 . S
C5 O12 1.226 . S
O6 Cd2 2.273 . S
O6 Cd4 2.411 . S
O6 C9 1.320 1_554 S
O7 Cd4 2.333 1_556 S
O7 C9 1.214 . S
O8 Cd4 2.352 . S
O8 C11 1.258 . S
C9 O6 1.320 1_556 S
C9 O7 1.214 . S
O10 Cd2 2.277 . S
O10 C5 1.209 . S
C11 O8 1.258 . S
C11 O13 1.282 . S
O12 Cd4 2.277 . S
O12 C5 1.226 . S
O13 Cd4 2.356 . S
O13 C11 1.282 . S
C14 O15 1.306 . S
C14 O17 1.160 . S
O15 C14 1.306 . S
O15 Cd16 2.228 . S
Cd16 O15 2.228 . S
Cd16 O20 2.273 . S
Cd16 O24 2.277 . S
O17 C14 1.160 . S
O17 Cd18 2.203 . S
Cd18 O17 2.203 . S
Cd18 O20 2.411 . S
Cd18 O21 2.333 1_554 S
Cd18 O22 2.352 . S
Cd18 O26 2.277 . S
Cd18 O27 2.356 . S
C19 O24 1.209 . S
C19 O26 1.226 . S
O20 Cd16 2.273 . S
O20 Cd18 2.411 . S
O20 C23 1.320 1_554 S
O21 Cd18 2.333 1_556 S
O21 C23 1.214 . S
O22 Cd18 2.352 . S
O22 C25 1.258 . S
C23 O20 1.320 1_556 S
C23 O21 1.214 . S
O24 Cd16 2.277 . S
O24 C19 1.209 . S
C25 O22 1.258 . S
C25 O27 1.282 . S
O26 Cd18 2.277 . S
O26 C19 1.226 . S
O27 Cd18 2.356 . S
O27 C25 1.282 . S
C28 O29 1.306 . S
C28 O31 1.160 . S
O29 C28 1.306 . S
O29 Cd30 2.228 . S
Cd30 O29 2.228 . S
Cd30 O34 2.273 . S
Cd30 O38 2.277 . S
O31 C28 1.160 . S
O31 Cd32 2.203 . S
Cd32 O31 2.203 . S
Cd32 O34 2.411 . S
Cd32 O35 2.333 1_554 S
Cd32 O36 2.352 . S
Cd32 O40 2.277 . S
Cd32 O41 2.356 . S
C33 O38 1.209 . S
C33 O40 1.226 . S
O34 Cd30 2.273 . S
O34 Cd32 2.411 . S
O34 C37 1.320 1_554 S
O35 Cd32 2.333 1_556 S
O35 C37 1.214 . S
O36 Cd32 2.352 . S
O36 C39 1.258 . S
C37 O34 1.320 1_556 S
C37 O35 1.214 . S
O38 Cd30 2.277 . S
O38 C33 1.209 . S
C39 O36 1.258 . S
C39 O41 1.282 . S
O40 Cd32 2.277 . S
O40 C33 1.226 . S
O41 Cd32 2.356 . S
O41 C39 1.282 . S
C42 O43 1.306 . S
C42 O45 1.160 . S
O43 C42 1.306 . S
O43 Cd44 2.228 . S
Cd44 O43 2.228 . S
Cd44 O48 2.273 . S
Cd44 O52 2.277 . S
O45 C42 1.160 . S
O45 Cd46 2.203 . S
Cd46 O45 2.203 . S
Cd46 O48 2.411 . S
Cd46 O49 2.333 1_556 S
Cd46 O50 2.352 . S
Cd46 O54 2.277 . S
Cd46 O55 2.356 . S
C47 O52 1.209 . S
C47 O54 1.226 . S
O48 Cd44 2.273 . S
O48 Cd46 2.411 . S
O48 C51 1.320 1_556 S
O49 Cd46 2.333 1_554 S
O49 C51 1.214 . S
O50 Cd46 2.352 . S
O50 C53 1.258 . S
C51 O48 1.320 1_554 S
C51 O49 1.214 . S
O52 Cd44 2.277 . S
O52 C47 1.209 . S
C53 O50 1.258 . S
C53 O55 1.282 . S
O54 Cd46 2.277 . S
O54 C47 1.226 . S
O55 Cd46 2.356 . S
O55 C53 1.282 . S
C56 O57 1.306 . S
C56 O59 1.160 . S
O57 C56 1.306 . S
O57 Cd58 2.228 . S
Cd58 O57 2.228 . S
Cd58 O62 2.273 . S
Cd58 O66 2.277 . S
O59 C56 1.160 . S
O59 Cd60 2.203 . S
Cd60 O59 2.203 . S
Cd60 O62 2.411 . S
Cd60 O63 2.333 1_556 S
Cd60 O64 2.352 . S
Cd60 O68 2.277 . S
Cd60 O69 2.356 . S
C61 O66 1.209 . S
C61 O68 1.226 . S
O62 Cd58 2.273 . S
O62 Cd60 2.411 . S
O62 C65 1.320 1_556 S
O63 Cd60 2.333 1_554 S
O63 C65 1.214 . S
O64 Cd60 2.352 . S
O64 C67 1.258 . S
C65 O62 1.320 1_554 S
C65 O63 1.214 . S
O66 Cd58 2.277 . S
O66 C61 1.209 . S
C67 O64 1.258 . S
C67 O69 1.282 . S
O68 Cd60 2.277 . S
O68 C61 1.226 . S
O69 Cd60 2.356 . S
O69 C67 1.282 . S
C70 O71 1.306 . S
C70 O73 1.160 . S
O71 C70 1.306 . S
O71 Cd72 2.228 . S
Cd72 O71 2.228 . S
Cd72 O76 2.273 . S
Cd72 O80 2.277 . S
O73 C70 1.160 . S
O73 Cd74 2.203 . S
Cd74 O73 2.203 . S
Cd74 O76 2.411 . S
Cd74 O77 2.333 1_556 S
Cd74 O78 2.352 . S
Cd74 O82 2.277 . S
Cd74 O83 2.356 . S
C75 O80 1.209 . S
C75 O82 1.226 . S
O76 Cd72 2.273 . S
O76 Cd74 2.411 . S
O76 C79 1.320 1_556 S
O77 Cd74 2.333 1_554 S
O77 C79 1.214 . S
O78 Cd74 2.352 . S
O78 C81 1.258 . S
C79 O76 1.320 1_554 S
C79 O77 1.214 . S
O80 Cd72 2.277 . S
O80 C75 1.209 . S
C81 O78 1.258 . S
C81 O83 1.282 . S
O82 Cd74 2.277 . S
O82 C75 1.226 . S
O83 Cd74 2.356 . S
O83 C81 1.282 . S
C84 O85 1.306 . S
C84 O87 1.160 . S
O85 C84 1.306 . S
O85 Cd86 2.228 . S
Cd86 O85 2.228 . S
Cd86 O90 2.273 . S
Cd86 O94 2.277 . S
O87 C84 1.160 . S
O87 Cd88 2.203 . S
Cd88 O87 2.203 . S
Cd88 O90 2.411 . S
Cd88 O91 2.333 1_556 S
Cd88 O92 2.352 . S
Cd88 O96 2.277 . S
Cd88 O97 2.356 . S
C89 O94 1.209 . S
C89 O96 1.226 . S
O90 Cd86 2.273 . S
O90 Cd88 2.411 . S
O90 C93 1.320 1_556 S
O91 Cd88 2.333 1_554 S
O91 C93 1.214 . S
O92 Cd88 2.352 . S
O92 C95 1.258 . S
C93 O90 1.320 1_554 S
C93 O91 1.214 . S
O94 Cd86 2.277 . S
O94 C89 1.209 . S
C95 O92 1.258 . S
C95 O97 1.282 . S
O96 Cd88 2.277 . S
O96 C89 1.226 . S
O97 Cd88 2.356 . S
O97 C95 1.282 . S
C98 O99 1.306 . S
C98 O101 1.160 . S
O99 C98 1.306 . S
O99 Cd100 2.228 . S
Cd100 O99 2.228 . S
Cd100 O104 2.273 . S
Cd100 O108 2.277 . S
O101 C98 1.160 . S
O101 Cd102 2.203 . S
Cd102 O101 2.203 . S
Cd102 O104 2.411 . S
Cd102 O105 2.333 1_556 S
Cd102 O106 2.352 . S
Cd102 O110 2.277 . S
Cd102 O111 2.356 . S
C103 O108 1.209 . S
C103 O110 1.226 . S
O104 Cd100 2.273 . S
O104 Cd102 2.411 . S
O104 C107 1.320 1_556 S
O105 Cd102 2.333 1_554 S
O105 C107 1.214 . S
O106 Cd102 2.352 . S
O106 C109 1.258 . S
C107 O104 1.320 1_554 S
C107 O105 1.214 . S
O108 Cd100 2.277 . S
O108 C103 1.209 . S
C109 O106 1.258 . S
C109 O111 1.282 . S
O110 Cd102 2.277 . S
O110 C103 1.226 . S
O111 Cd102 2.356 . S
O111 C109 1.282 . S
C112 O113 1.306 . S
C112 O115 1.160 . S
O113 C112 1.306 . S
O113 Cd114 2.228 . S
Cd114 O113 2.228 . S
Cd114 O118 2.273 . S
Cd114 O122 2.277 . S
O115 C112 1.160 . S
O115 Cd116 2.203 . S
Cd116 O115 2.203 . S
Cd116 O118 2.411 . S
Cd116 O119 2.333 1_556 S
Cd116 O120 2.352 . S
Cd116 O124 2.277 . S
Cd116 O125 2.356 . S
C117 O122 1.209 . S
C117 O124 1.226 . S
O118 Cd114 2.273 . S
O118 Cd116 2.411 . S
O118 C121 1.320 1_556 S
O119 Cd116 2.333 1_554 S
O119 C121 1.214 . S
O120 Cd116 2.352 . S
O120 C123 1.258 . S
C121 O118 1.320 1_554 S
C121 O119 1.214 . S
O122 Cd114 2.277 . S
O122 C117 1.209 . S
C123 O120 1.258 . S
C123 O125 1.282 . S
O124 Cd116 2.277 . S
O124 C117 1.226 . S
O125 Cd116 2.356 . S
O125 C123 1.282 . S
C126 O127 1.306 . S
C126 O129 1.160 . S
O127 C126 1.306 . S
O127 Cd128 2.228 . S
Cd128 O127 2.228 . S
Cd128 O132 2.273 . S
Cd128 O136 2.277 . S
O129 C126 1.160 . S
O129 Cd130 2.203 . S
Cd130 O129 2.203 . S
Cd130 O132 2.411 . S
Cd130 O133 2.333 1_554 S
Cd130 O134 2.352 . S
Cd130 O138 2.277 . S
Cd130 O139 2.356 . S
C131 O136 1.209 . S
C131 O138 1.226 . S
O132 Cd128 2.273 . S
O132 Cd130 2.411 . S
O132 C135 1.320 1_554 S
O133 Cd130 2.333 1_556 S
O133 C135 1.214 . S
O134 Cd130 2.352 . S
O134 C137 1.258 . S
C135 O132 1.320 1_556 S
C135 O133 1.214 . S
O136 Cd128 2.277 . S
O136 C131 1.209 . S
C137 O134 1.258 . S
C137 O139 1.282 . S
O138 Cd130 2.277 . S
O138 C131 1.226 . S
O139 Cd130 2.356 . S
O139 C137 1.282 . S
C140 O141 1.306 . S
C140 O143 1.160 . S
O141 C140 1.306 . S
O141 Cd142 2.228 . S
Cd142 O141 2.228 . S
Cd142 O146 2.273 . S
Cd142 O150 2.277 . S
O143 C140 1.160 . S
O143 Cd144 2.203 . S
Cd144 O143 2.203 . S
Cd144 O146 2.411 . S
Cd144 O147 2.333 1_554 S
Cd144 O148 2.352 . S
Cd144 O152 2.277 . S
Cd144 O153 2.356 . S
C145 O150 1.209 . S
C145 O152 1.226 . S
O146 Cd142 2.273 . S
O146 Cd144 2.411 . S
O146 C149 1.320 1_554 S
O147 Cd144 2.333 1_556 S
O147 C149 1.214 . S
O148 Cd144 2.352 . S
O148 C151 1.258 . S
C149 O146 1.320 1_556 S
C149 O147 1.214 . S
O150 Cd142 2.277 . S
O150 C145 1.209 . S
C151 O148 1.258 . S
C151 O153 1.282 . S
O152 Cd144 2.277 . S
O152 C145 1.226 . S
O153 Cd144 2.356 . S
O153 C151 1.282 . S
C154 O155 1.306 . S
C154 O157 1.160 . S
O155 C154 1.306 . S
O155 Cd156 2.228 . S
Cd156 O155 2.228 . S
Cd156 O160 2.273 . S
Cd156 O164 2.277 . S
O157 C154 1.160 . S
O157 Cd158 2.203 . S
Cd158 O157 2.203 . S
Cd158 O160 2.411 . S
Cd158 O161 2.333 1_554 S
Cd158 O162 2.352 . S
Cd158 O166 2.277 . S
Cd158 O167 2.356 . S
C159 O164 1.209 . S
C159 O166 1.226 . S
O160 Cd156 2.273 . S
O160 Cd158 2.411 . S
O160 C163 1.320 1_554 S
O161 Cd158 2.333 1_556 S
O161 C163 1.214 . S
O162 Cd158 2.352 . S
O162 C165 1.258 . S
C163 O160 1.320 1_556 S
C163 O161 1.214 . S
O164 Cd156 2.277 . S
O164 C159 1.209 . S
C165 O162 1.258 . S
C165 O167 1.282 . S
O166 Cd158 2.277 . S
O166 C159 1.226 . S
O167 Cd158 2.356 . S
O167 C165 1.282 . S
C168 O169 1.306 . S
C168 O171 1.160 . S
O169 C168 1.306 . S
O169 Cd170 2.228 . S
Cd170 O169 2.228 . S
Cd170 O174 2.273 . S
Cd170 O178 2.277 . S
O171 C168 1.160 . S
O171 Cd172 2.203 . S
Cd172 O171 2.203 . S
Cd172 O174 2.411 . S
Cd172 O175 2.333 . S
Cd172 O176 2.352 . S
Cd172 O180 2.277 . S
Cd172 O181 2.356 . S
C173 O178 1.209 . S
C173 O180 1.226 . S
O174 Cd170 2.273 . S
O174 Cd172 2.411 . S
O174 C177 1.320 . S
O175 Cd172 2.333 . S
O175 C177 1.214 . S
O176 Cd172 2.352 . S
O176 C179 1.258 . S
C177 O174 1.320 . S
C177 O175 1.214 . S
O178 Cd170 2.277 . S
O178 C173 1.209 . S
C179 O176 1.258 . S
C179 O181 1.282 . S
O180 Cd172 2.277 . S
O180 C173 1.226 . S
O181 Cd172 2.356 . S
O181 C179 1.282 . S
C182 O183 1.306 . S
C182 O185 1.160 . S
O183 C182 1.306 . S
O183 Cd184 2.228 . S
Cd184 O183 2.228 . S
Cd184 O188 2.273 . S
Cd184 O192 2.277 . S
O185 C182 1.160 . S
O185 Cd186 2.203 . S
Cd186 O185 2.203 . S
Cd186 O188 2.411 . S
Cd186 O189 2.333 . S
Cd186 O190 2.352 . S
Cd186 O194 2.277 . S
Cd186 O195 2.356 . S
C187 O192 1.209 . S
C187 O194 1.226 . S
O188 Cd184 2.273 . S
O188 Cd186 2.411 . S
O188 C191 1.320 . S
O189 Cd186 2.333 . S
O189 C191 1.214 . S
O190 Cd186 2.352 . S
O190 C193 1.258 . S
C191 O188 1.320 . S
C191 O189 1.214 . S
O192 Cd184 2.277 . S
O192 C187 1.209 . S
C193 O190 1.258 . S
C193 O195 1.282 . S
O194 Cd186 2.277 . S
O194 C187 1.226 . S
O195 Cd186 2.356 . S
O195 C193 1.282 . S
C196 O197 1.306 . S
C196 O199 1.160 . S
O197 C196 1.306 . S
O197 Cd198 2.228 . S
Cd198 O197 2.228 . S
Cd198 O202 2.273 . S
Cd198 O206 2.277 . S
O199 C196 1.160 . S
O199 Cd200 2.203 . S
Cd200 O199 2.203 . S
Cd200 O202 2.411 . S
Cd200 O203 2.333 . S
Cd200 O204 2.352 . S
Cd200 O208 2.277 . S
Cd200 O209 2.356 . S
C201 O206 1.209 . S
C201 O208 1.226 . S
O202 Cd198 2.273 . S
O202 Cd200 2.411 . S
O202 C205 1.320 . S
O203 Cd200 2.333 . S
O203 C205 1.214 . S
O204 Cd200 2.352 . S
O204 C207 1.258 . S
C205 O202 1.320 . S
C205 O203 1.214 . S
O206 Cd198 2.277 . S
O206 C201 1.209 . S
C207 O204 1.258 . S
C207 O209 1.282 . S
O208 Cd200 2.277 . S
O208 C201 1.226 . S
O209 Cd200 2.356 . S
O209 C207 1.282 . S
C210 O211 1.306 . S
C210 O213 1.160 . S
O211 C210 1.306 . S
O211 Cd212 2.228 . S
Cd212 O211 2.228 . S
Cd212 O216 2.273 . S
Cd212 O220 2.277 . S
O213 C210 1.160 . S
O213 Cd214 2.203 . S
Cd214 O213 2.203 . S
Cd214 O216 2.411 . S
Cd214 O217 2.333 . S
Cd214 O218 2.352 . S
Cd214 O222 2.277 . S
Cd214 O223 2.356 . S
C215 O220 1.209 . S
C215 O222 1.226 . S
O216 Cd212 2.273 . S
O216 Cd214 2.411 . S
O216 C219 1.320 . S
O217 Cd214 2.333 . S
O217 C219 1.214 . S
O218 Cd214 2.352 . S
O218 C221 1.258 . S
C219 O216 1.320 . S
C219 O217 1.214 . S
O220 Cd212 2.277 . S
O220 C215 1.209 . S
C221 O218 1.258 . S
C221 O223 1.282 . S
O222 Cd214 2.277 . S
O222 C215 1.226 . S
O223 Cd214 2.356 . S
O223 C221 1.282 . S
C224 O225 1.306 . S
C224 O227 1.160 . S
O225 C224 1.306 . S
O225 Cd226 2.228 . S
Cd226 O225 2.228 . S
Cd226 O230 2.273 . S
Cd226 O234 2.277 . S
O227 C224 1.160 . S
O227 Cd228 2.203 . S
Cd228 O227 2.203 . S
Cd228 O230 2.411 . S
Cd228 O231 2.333 . S
Cd228 O232 2.352 . S
Cd228 O236 2.277 . S
Cd228 O237 2.356 . S
C229 O234 1.209 . S
C229 O236 1.226 . S
O230 Cd226 2.273 . S
O230 Cd228 2.411 . S
O230 C233 1.320 . S
O231 Cd228 2.333 . S
O231 C233 1.214 . S
O232 Cd228 2.352 . S
O232 C235 1.258 . S
C233 O230 1.320 . S
C233 O231 1.214 . S
O234 Cd226 2.277 . S
O234 C229 1.209 . S
C235 O232 1.258 . S
C235 O237 1.282 . S
O236 Cd228 2.277 . S
O236 C229 1.226 . S
O237 Cd228 2.356 . S
O237 C235 1.282 . S
C238 O239 1.306 . S
C238 O241 1.160 . S
O239 C238 1.306 . S
O239 Cd240 2.228 . S
Cd240 O239 2.228 . S
Cd240 O244 2.273 . S
Cd240 O248 2.277 . S
O241 C238 1.160 . S
O241 Cd242 2.203 . S
Cd242 O241 2.203 . S
Cd242 O244 2.411 . S
Cd242 O245 2.333 . S
Cd242 O246 2.352 . S
Cd242 O250 2.277 . S
Cd242 O251 2.356 . S
C243 O248 1.209 . S
C243 O250 1.226 . S
O244 Cd240 2.273 . S
O244 Cd242 2.411 . S
O244 C247 1.320 . S
O245 Cd242 2.333 . S
O245 C247 1.214 . S
O246 Cd242 2.352 . S
O246 C249 1.258 . S
C247 O244 1.320 . S
C247 O245 1.214 . S
O248 Cd240 2.277 . S
O248 C243 1.209 . S
C249 O246 1.258 . S
C249 O251 1.282 . S
O250 Cd242 2.277 . S
O250 C243 1.226 . S
O251 Cd242 2.356 . S
O251 C249 1.282 . S
C252 O253 1.306 . S
C252 O255 1.160 . S
O253 C252 1.306 . S
O253 Cd254 2.228 . S
Cd254 O253 2.228 . S
Cd254 O258 2.273 . S
Cd254 O262 2.277 . S
O255 C252 1.160 . S
O255 Cd256 2.203 . S
Cd256 O255 2.203 . S
Cd256 O258 2.411 . S
Cd256 O259 2.333 . S
Cd256 O260 2.352 . S
Cd256 O264 2.277 . S
Cd256 O265 2.356 . S
C257 O262 1.209 . S
C257 O264 1.226 . S
O258 Cd254 2.273 . S
O258 Cd256 2.411 . S
O258 C261 1.320 . S
O259 Cd256 2.333 . S
O259 C261 1.214 . S
O260 Cd256 2.352 . S
O260 C263 1.258 . S
C261 O258 1.320 . S
C261 O259 1.214 . S
O262 Cd254 2.277 . S
O262 C257 1.209 . S
C263 O260 1.258 . S
C263 O265 1.282 . S
O264 Cd256 2.277 . S
O264 C257 1.226 . S
O265 Cd256 2.356 . S
O265 C263 1.282 . S
C266 O267 1.306 . S
C266 O269 1.160 . S
O267 C266 1.306 . S
O267 Cd268 2.228 . S
Cd268 O267 2.228 . S
Cd268 O272 2.273 . S
Cd268 O276 2.277 . S
O269 C266 1.160 . S
O269 Cd270 2.203 . S
Cd270 O269 2.203 . S
Cd270 O272 2.411 . S
Cd270 O273 2.333 . S
Cd270 O274 2.352 . S
Cd270 O278 2.277 . S
Cd270 O279 2.356 . S
C271 O276 1.209 . S
C271 O278 1.226 . S
O272 Cd268 2.273 . S
O272 Cd270 2.411 . S
O272 C275 1.320 . S
O273 Cd270 2.333 . S
O273 C275 1.214 . S
O274 Cd270 2.352 . S
O274 C277 1.258 . S
C275 O272 1.320 . S
C275 O273 1.214 . S
O276 Cd268 2.277 . S
O276 C271 1.209 . S
C277 O274 1.258 . S
C277 O279 1.282 . S
O278 Cd270 2.277 . S
O278 C271 1.226 . S
O279 Cd270 2.356 . S
O279 C277 1.282 . S
C280 O281 1.306 . S
C280 O283 1.160 . S
O281 C280 1.306 . S
O281 Cd282 2.228 . S
Cd282 O281 2.228 . S
Cd282 O286 2.273 . S
Cd282 O290 2.277 . S
O283 C280 1.160 . S
O283 Cd284 2.203 . S
Cd284 O283 2.203 . S
Cd284 O286 2.411 . S
Cd284 O287 2.333 . S
Cd284 O288 2.352 . S
Cd284 O292 2.277 . S
Cd284 O293 2.356 . S
C285 O290 1.209 . S
C285 O292 1.226 . S
O286 Cd282 2.273 . S
O286 Cd284 2.411 . S
O286 C289 1.320 . S
O287 Cd284 2.333 . S
O287 C289 1.214 . S
O288 Cd284 2.352 . S
O288 C291 1.258 . S
C289 O286 1.320 . S
C289 O287 1.214 . S
O290 Cd282 2.277 . S
O290 C285 1.209 . S
C291 O288 1.258 . S
C291 O293 1.282 . S
O292 Cd284 2.277 . S
O292 C285 1.226 . S
O293 Cd284 2.356 . S
O293 C291 1.282 . S
C294 O295 1.306 . S
C294 O297 1.160 . S
O295 C294 1.306 . S
O295 Cd296 2.228 . S
Cd296 O295 2.228 . S
Cd296 O300 2.273 . S
Cd296 O304 2.277 . S
O297 C294 1.160 . S
O297 Cd298 2.203 . S
Cd298 O297 2.203 . S
Cd298 O300 2.411 . S
Cd298 O301 2.333 . S
Cd298 O302 2.352 . S
Cd298 O306 2.277 . S
Cd298 O307 2.356 . S
C299 O304 1.209 . S
C299 O306 1.226 . S
O300 Cd296 2.273 . S
O300 Cd298 2.411 . S
O300 C303 1.320 . S
O301 Cd298 2.333 . S
O301 C303 1.214 . S
O302 Cd298 2.352 . S
O302 C305 1.258 . S
C303 O300 1.320 . S
C303 O301 1.214 . S
O304 Cd296 2.277 . S
O304 C299 1.209 . S
C305 O302 1.258 . S
C305 O307 1.282 . S
O306 Cd298 2.277 . S
O306 C299 1.226 . S
O307 Cd298 2.356 . S
O307 C305 1.282 . S
C308 O309 1.306 . S
C308 O311 1.160 . S
O309 C308 1.306 . S
O309 Cd310 2.228 . S
Cd310 O309 2.228 . S
Cd310 O314 2.273 . S
Cd310 O318 2.277 . S
O311 C308 1.160 . S
O311 Cd312 2.203 . S
Cd312 O311 2.203 . S
Cd312 O314 2.411 . S
Cd312 O315 2.333 . S
Cd312 O316 2.352 . S
Cd312 O320 2.277 . S
Cd312 O321 2.356 . S
C313 O318 1.209 . S
C313 O320 1.226 . S
O314 Cd310 2.273 . S
O314 Cd312 2.411 . S
O314 C317 1.320 . S
O315 Cd312 2.333 . S
O315 C317 1.214 . S
O316 Cd312 2.352 . S
O316 C319 1.258 . S
C317 O314 1.320 . S
C317 O315 1.214 . S
O318 Cd310 2.277 . S
O318 C313 1.209 . S
C319 O316 1.258 . S
C319 O321 1.282 . S
O320 Cd312 2.277 . S
O320 C313 1.226 . S
O321 Cd312 2.356 . S
O321 C319 1.282 . S
C322 O323 1.306 . S
C322 O325 1.160 . S
O323 C322 1.306 . S
O323 Cd324 2.228 . S
Cd324 O323 2.228 . S
Cd324 O328 2.273 . S
Cd324 O332 2.277 . S
O325 C322 1.160 . S
O325 Cd326 2.203 . S
Cd326 O325 2.203 . S
Cd326 O328 2.411 . S
Cd326 O329 2.333 . S
Cd326 O330 2.352 . S
Cd326 O334 2.277 . S
Cd326 O335 2.356 . S
C327 O332 1.209 . S
C327 O334 1.226 . S
O328 Cd324 2.273 . S
O328 Cd326 2.411 . S
O328 C331 1.320 . S
O329 Cd326 2.333 . S
O329 C331 1.214 . S
O330 Cd326 2.352 . S
O330 C333 1.258 . S
C331 O328 1.320 . S
C331 O329 1.214 . S
O332 Cd324 2.277 . S
O332 C327 1.209 . S
C333 O330 1.258 . S
C333 O335 1.282 . S
O334 Cd326 2.277 . S
O334 C327 1.226 . S
O335 Cd326 2.356 . S
O335 C333 1.282 . S
C336 O337 1.306 . S
C336 O339 1.160 . S
O337 C336 1.306 . S
O337 Cd338 2.228 . S
Cd338 O337 2.228 . S
Cd338 O342 2.273 . S
Cd338 O346 2.277 . S
O339 C336 1.160 . S
O339 Cd340 2.203 . S
Cd340 O339 2.203 . S
Cd340 O342 2.411 . S
Cd340 O343 2.333 . S
Cd340 O344 2.352 . S
Cd340 O348 2.277 . S
Cd340 O349 2.356 . S
C341 O346 1.209 . S
C341 O348 1.226 . S
O342 Cd338 2.273 . S
O342 Cd340 2.411 . S
O342 C345 1.320 . S
O343 Cd340 2.333 . S
O343 C345 1.214 . S
O344 Cd340 2.352 . S
O344 C347 1.258 . S
C345 O342 1.320 . S
C345 O343 1.214 . S
O346 Cd338 2.277 . S
O346 C341 1.209 . S
C347 O344 1.258 . S
C347 O349 1.282 . S
O348 Cd340 2.277 . S
O348 C341 1.226 . S
O349 Cd340 2.356 . S
O349 C347 1.282 . S
C350 O351 1.306 . S
C350 O353 1.160 . S
O351 C350 1.306 . S
O351 Cd352 2.228 . S
Cd352 O351 2.228 . S
Cd352 O356 2.273 . S
Cd352 O360 2.277 . S
O353 C350 1.160 . S
O353 Cd354 2.203 . S
Cd354 O353 2.203 . S
Cd354 O356 2.411 . S
Cd354 O357 2.333 . S
Cd354 O358 2.352 . S
Cd354 O362 2.277 . S
Cd354 O363 2.356 . S
C355 O360 1.209 . S
C355 O362 1.226 . S
O356 Cd352 2.273 . S
O356 Cd354 2.411 . S
O356 C359 1.320 . S
O357 Cd354 2.333 . S
O357 C359 1.214 . S
O358 Cd354 2.352 . S
O358 C361 1.258 . S
C359 O356 1.320 . S
C359 O357 1.214 . S
O360 Cd352 2.277 . S
O360 C355 1.209 . S
C361 O358 1.258 . S
C361 O363 1.282 . S
O362 Cd354 2.277 . S
O362 C355 1.226 . S
O363 Cd354 2.356 . S
O363 C361 1.282 . S
C364 O365 1.306 . S
C364 O367 1.160 . S
O365 C364 1.306 . S
O365 Cd366 2.228 . S
Cd366 O365 2.228 . S
Cd366 O370 2.273 . S
Cd366 O374 2.277 . S
O367 C364 1.160 . S
O367 Cd368 2.203 . S
Cd368 O367 2.203 . S
Cd368 O370 2.411 . S
Cd368 O371 2.333 . S
Cd368 O372 2.352 . S
Cd368 O376 2.277 . S
Cd368 O377 2.356 . S
C369 O374 1.209 . S
C369 O376 1.226 . S
O370 Cd366 2.273 . S
O370 Cd368 2.411 . S
O370 C373 1.320 . S
O371 Cd368 2.333 . S
O371 C373 1.214 . S
O372 Cd368 2.352 . S
O372 C375 1.258 . S
C373 O370 1.320 . S
C373 O371 1.214 . S
O374 Cd366 2.277 . S
O374 C369 1.209 . S
C375 O372 1.258 . S
C375 O377 1.282 . S
O376 Cd368 2.277 . S
O376 C369 1.226 . S
O377 Cd368 2.356 . S
O377 C375 1.282 . S
C378 O379 1.306 . S
C378 O381 1.160 . S
O379 C378 1.306 . S
O379 Cd380 2.228 . S
Cd380 O379 2.228 . S
Cd380 O384 2.273 . S
Cd380 O388 2.277 . S
O381 C378 1.160 . S
O381 Cd382 2.203 . S
Cd382 O381 2.203 . S
Cd382 O384 2.411 . S
Cd382 O385 2.333 . S
Cd382 O386 2.352 . S
Cd382 O390 2.277 . S
Cd382 O391 2.356 . S
C383 O388 1.209 . S
C383 O390 1.226 . S
O384 Cd380 2.273 . S
O384 Cd382 2.411 . S
O384 C387 1.320 . S
O385 Cd382 2.333 . S
O385 C387 1.214 . S
O386 Cd382 2.352 . S
O386 C389 1.258 . S
C387 O384 1.320 . S
C387 O385 1.214 . S
O388 Cd380 2.277 . S
O388 C383 1.209 . S
C389 O386 1.258 . S
C389 O391 1.282 . S
O390 Cd382 2.277 . S
O390 C383 1.226 . S
O391 Cd382 2.356 . S
O391 C389 1.282 . S
C392 O393 1.306 . S
C392 O395 1.160 . S
O393 C392 1.306 . S
O393 Cd394 2.228 . S
Cd394 O393 2.228 . S
Cd394 O398 2.273 . S
Cd394 O402 2.277 . S
O395 C392 1.160 . S
O395 Cd396 2.203 . S
Cd396 O395 2.203 . S
Cd396 O398 2.411 . S
Cd396 O399 2.333 . S
Cd396 O400 2.352 . S
Cd396 O404 2.277 . S
Cd396 O405 2.356 . S
C397 O402 1.209 . S
C397 O404 1.226 . S
O398 Cd394 2.273 . S
O398 Cd396 2.411 . S
O398 C401 1.320 . S
O399 Cd396 2.333 . S
O399 C401 1.214 . S
O400 Cd396 2.352 . S
O400 C403 1.258 . S
C401 O398 1.320 . S
C401 O399 1.214 . S
O402 Cd394 2.277 . S
O402 C397 1.209 . S
C403 O400 1.258 . S
C403 O405 1.282 . S
O404 Cd396 2.277 . S
O404 C397 1.226 . S
O405 Cd396 2.356 . S
O405 C403 1.282 . S
C406 O407 1.306 . S
C406 O409 1.160 . S
O407 C406 1.306 . S
O407 Cd408 2.228 . S
Cd408 O407 2.228 . S
Cd408 O412 2.273 . S
Cd408 O416 2.277 . S
O409 C406 1.160 . S
O409 Cd410 2.203 . S
Cd410 O409 2.203 . S
Cd410 O412 2.411 . S
Cd410 O413 2.333 . S
Cd410 O414 2.352 . S
Cd410 O418 2.277 . S
Cd410 O419 2.356 . S
C411 O416 1.209 . S
C411 O418 1.226 . S
O412 Cd408 2.273 . S
O412 Cd410 2.411 . S
O412 C415 1.320 . S
O413 Cd410 2.333 . S
O413 C415 1.214 . S
O414 Cd410 2.352 . S
O414 C417 1.258 . S
C415 O412 1.320 . S
C415 O413 1.214 . S
O416 Cd408 2.277 . S
O416 C411 1.209 . S
C417 O414 1.258 . S
C417 O419 1.282 . S
O418 Cd410 2.277 . S
O418 C411 1.226 . S
O419 Cd410 2.356 . S
O419 C417 1.282 . S
C420 O421 1.306 . S
C420 O423 1.160 . S
O421 C420 1.306 . S
O421 Cd422 2.228 . S
Cd422 O421 2.228 . S
Cd422 O426 2.273 . S
Cd422 O430 2.277 . S
O423 C420 1.160 . S
O423 Cd424 2.203 . S
Cd424 O423 2.203 . S
Cd424 O426 2.411 . S
Cd424 O427 2.333 . S
Cd424 O428 2.352 . S
Cd424 O432 2.277 . S
Cd424 O433 2.356 . S
C425 O430 1.209 . S
C425 O432 1.226 . S
O426 Cd422 2.273 . S
O426 Cd424 2.411 . S
O426 C429 1.320 . S
O427 Cd424 2.333 . S
O427 C429 1.214 . S
O428 Cd424 2.352 . S
O428 C431 1.258 . S
C429 O426 1.320 . S
C429 O427 1.214 . S
O430 Cd422 2.277 . S
O430 C425 1.209 . S
C431 O428 1.258 . S
C431 O433 1.282 . S
O432 Cd424 2.277 . S
O432 C425 1.226 . S
O433 Cd424 2.356 . S
O433 C431 1.282 . S
C434 O435 1.306 . S
C434 O437 1.160 . S
O435 C434 1.306 . S
O435 Cd436 2.228 . S
Cd436 O435 2.228 . S
Cd436 O440 2.273 . S
Cd436 O444 2.277 . S
O437 C434 1.160 . S
O437 Cd438 2.203 . S
Cd438 O437 2.203 . S
Cd438 O440 2.411 . S
Cd438 O441 2.333 . S
Cd438 O442 2.352 . S
Cd438 O446 2.277 . S
Cd438 O447 2.356 . S
C439 O444 1.209 . S
C439 O446 1.226 . S
O440 Cd436 2.273 . S
O440 Cd438 2.411 . S
O440 C443 1.320 . S
O441 Cd438 2.333 . S
O441 C443 1.214 . S
O442 Cd438 2.352 . S
O442 C445 1.258 . S
C443 O440 1.320 . S
C443 O441 1.214 . S
O444 Cd436 2.277 . S
O444 C439 1.209 . S
C445 O442 1.258 . S
C445 O447 1.282 . S
O446 Cd438 2.277 . S
O446 C439 1.226 . S
O447 Cd438 2.356 . S
O447 C445 1.282 . S
C448 O449 1.306 . S
C448 O451 1.160 . S
O449 C448 1.306 . S
O449 Cd450 2.228 . S
Cd450 O449 2.228 . S
Cd450 O454 2.273 . S
Cd450 O458 2.277 . S
O451 C448 1.160 . S
O451 Cd452 2.203 . S
Cd452 O451 2.203 . S
Cd452 O454 2.411 . S
Cd452 O455 2.333 . S
Cd452 O456 2.352 . S
Cd452 O460 2.277 . S
Cd452 O461 2.356 . S
C453 O458 1.209 . S
C453 O460 1.226 . S
O454 Cd450 2.273 . S
O454 Cd452 2.411 . S
O454 C457 1.320 . S
O455 Cd452 2.333 . S
O455 C457 1.214 . S
O456 Cd452 2.352 . S
O456 C459 1.258 . S
C457 O454 1.320 . S
C457 O455 1.214 . S
O458 Cd450 2.277 . S
O458 C453 1.209 . S
C459 O456 1.258 . S
C459 O461 1.282 . S
O460 Cd452 2.277 . S
O460 C453 1.226 . S
O461 Cd452 2.356 . S
O461 C459 1.282 . S
C462 O463 1.306 . S
C462 O465 1.160 . S
O463 C462 1.306 . S
O463 Cd464 2.228 . S
Cd464 O463 2.228 . S
Cd464 O468 2.273 . S
Cd464 O472 2.277 . S
O465 C462 1.160 . S
O465 Cd466 2.203 . S
Cd466 O465 2.203 . S
Cd466 O468 2.411 . S
Cd466 O469 2.333 . S
Cd466 O470 2.352 . S
Cd466 O474 2.277 . S
Cd466 O475 2.356 . S
C467 O472 1.209 . S
C467 O474 1.226 . S
O468 Cd464 2.273 . S
O468 Cd466 2.411 . S
O468 C471 1.320 . S
O469 Cd466 2.333 . S
O469 C471 1.214 . S
O470 Cd466 2.352 . S
O470 C473 1.258 . S
C471 O468 1.320 . S
C471 O469 1.214 . S
O472 Cd464 2.277 . S
O472 C467 1.209 . S
C473 O470 1.258 . S
C473 O475 1.282 . S
O474 Cd466 2.277 . S
O474 C467 1.226 . S
O475 Cd466 2.356 . S
O475 C473 1.282 . S
C476 O477 1.306 . S
C476 O479 1.160 . S
O477 C476 1.306 . S
O477 Cd478 2.228 . S
Cd478 O477 2.228 . S
Cd478 O482 2.273 . S
Cd478 O486 2.277 . S
O479 C476 1.160 . S
O479 Cd480 2.203 . S
Cd480 O479 2.203 . S
Cd480 O482 2.411 . S
Cd480 O483 2.333 . S
Cd480 O484 2.352 . S
Cd480 O488 2.277 . S
Cd480 O489 2.356 . S
C481 O486 1.209 . S
C481 O488 1.226 . S
O482 Cd478 2.273 . S
O482 Cd480 2.411 . S
O482 C485 1.320 . S
O483 Cd480 2.333 . S
O483 C485 1.214 . S
O484 Cd480 2.352 . S
O484 C487 1.258 . S
C485 O482 1.320 . S
C485 O483 1.214 . S
O486 Cd478 2.277 . S
O486 C481 1.209 . S
C487 O484 1.258 . S
C487 O489 1.282 . S
O488 Cd480 2.277 . S
O488 C481 1.226 . S
O489 Cd480 2.356 . S
O489 C487 1.282 . S
C490 O491 1.306 . S
C490 O493 1.160 . S
O491 C490 1.306 . S
O491 Cd492 2.228 . S
Cd492 O491 2.228 . S
Cd492 O496 2.273 . S
Cd492 O500 2.277 . S
O493 C490 1.160 . S
O493 Cd494 2.203 . S
Cd494 O493 2.203 . S
Cd494 O496 2.411 . S
Cd494 O497 2.333 . S
Cd494 O498 2.352 . S
Cd494 O502 2.277 . S
Cd494 O503 2.356 . S
C495 O500 1.209 . S
C495 O502 1.226 . S
O496 Cd492 2.273 . S
O496 Cd494 2.411 . S
O496 C499 1.320 . S
O497 Cd494 2.333 . S
O497 C499 1.214 . S
O498 Cd494 2.352 . S
O498 C501 1.258 . S
C499 O496 1.320 . S
C499 O497 1.214 . S
O500 Cd492 2.277 . S
O500 C495 1.209 . S
C501 O498 1.258 . S
C501 O503 1.282 . S
O502 Cd494 2.277 . S
O502 C495 1.226 . S
O503 Cd494 2.356 . S
O503 C501 1.282 . S
H504 C510 0.930 . S
H505 C514 0.930 . S
H506 C519 0.929 . S
H507 C517 0.929 . S
H508 C512 0.929 . S
H509 C518 0.929 . S
C510 H504 0.930 . S
C510 C511 1.367 . S
C510 C518 1.378 . S
C511 C510 1.367 . S
C511 C519 1.433 . S
C512 H508 0.929 . S
C512 C514 1.378 . S
C512 C516 1.350 . S
C513 C516 1.463 . S
C513 C518 1.350 . S
C513 N521 1.427 . S
C514 H505 0.930 . S
C514 C512 1.378 . S
C514 C515 1.367 . S
C515 C514 1.367 . S
C515 C517 1.433 . S
C516 C512 1.350 . S
C516 C513 1.463 . S
C516 N520 1.427 . S
C517 H507 0.929 . S
C517 C515 1.433 . S
C517 N520 1.384 . S
C518 H509 0.929 . S
C518 C510 1.378 . S
C518 C513 1.350 . S
C519 H506 0.929 . S
C519 C511 1.433 . S
C519 N521 1.384 . S
N520 C516 1.427 . S
N520 C517 1.384 . S
N521 C513 1.427 . S
N521 C519 1.384 . S
H522 C528 0.930 . S
H523 C532 0.930 . S
H524 C537 0.929 . S
H525 C535 0.929 . S
H526 C530 0.929 . S
H527 C536 0.929 . S
C528 H522 0.930 . S
C528 C529 1.367 . S
C528 C536 1.378 . S
C529 C528 1.367 . S
C529 C537 1.433 . S
C530 H526 0.929 . S
C530 C532 1.378 . S
C530 C534 1.350 . S
C531 C534 1.463 . S
C531 C536 1.350 . S
C531 N539 1.427 . S
C532 H523 0.930 . S
C532 C530 1.378 . S
C532 C533 1.367 . S
C533 C532 1.367 . S
C533 C535 1.433 . S
C534 C530 1.350 . S
C534 C531 1.463 . S
C534 N538 1.427 . S
C535 H525 0.929 . S
C535 C533 1.433 . S
C535 N538 1.384 . S
C536 H527 0.929 . S
C536 C528 1.378 . S
C536 C531 1.350 . S
C537 H524 0.929 . S
C537 C529 1.433 . S
C537 N539 1.384 . S
N538 C534 1.427 . S
N538 C535 1.384 . S
N539 C531 1.427 . S
N539 C537 1.384 . S
H540 C546 0.930 . S
H541 C550 0.930 . S
H542 C555 0.929 . S
H543 C553 0.929 . S
H544 C548 0.929 . S
H545 C554 0.929 . S
C546 H540 0.930 . S
C546 C547 1.367 . S
C546 C554 1.378 . S
C547 C546 1.367 . S
C547 C555 1.433 . S
C548 H544 0.929 . S
C548 C550 1.378 . S
C548 C552 1.350 . S
C549 C552 1.463 . S
C549 C554 1.350 . S
C549 N557 1.427 . S
C550 H541 0.930 . S
C550 C548 1.378 . S
C550 C551 1.367 . S
C551 C550 1.367 . S
C551 C553 1.433 . S
C552 C548 1.350 . S
C552 C549 1.463 . S
C552 N556 1.427 . S
C553 H543 0.929 . S
C553 C551 1.433 . S
C553 N556 1.384 . S
C554 H545 0.929 . S
C554 C546 1.378 . S
C554 C549 1.350 . S
C555 H542 0.929 . S
C555 C547 1.433 . S
C555 N557 1.384 . S
N556 C552 1.427 . S
N556 C553 1.384 . S
N557 C549 1.427 . S
N557 C555 1.384 . S
H558 C564 0.930 . S
H559 C568 0.930 . S
H560 C573 0.929 . S
H561 C571 0.929 . S
H562 C566 0.929 . S
H563 C572 0.929 . S
C564 H558 0.930 . S
C564 C565 1.367 . S
C564 C572 1.378 . S
C565 C564 1.367 . S
C565 C573 1.433 . S
C566 H562 0.929 . S
C566 C568 1.378 . S
C566 C570 1.350 . S
C567 C570 1.463 . S
C567 C572 1.350 . S
C567 N575 1.427 . S
C568 H559 0.930 . S
C568 C566 1.378 . S
C568 C569 1.367 . S
C569 C568 1.367 . S
C569 C571 1.433 . S
C570 C566 1.350 . S
C570 C567 1.463 . S
C570 N574 1.427 . S
C571 H561 0.929 . S
C571 C569 1.433 . S
C571 N574 1.384 . S
C572 H563 0.929 . S
C572 C564 1.378 . S
C572 C567 1.350 . S
C573 H560 0.929 . S
C573 C565 1.433 . S
C573 N575 1.384 . S
N574 C570 1.427 . S
N574 C571 1.384 . S
N575 C567 1.427 . S
N575 C573 1.384 . S
H576 C582 0.930 . S
H577 C586 0.930 . S
H578 C591 0.929 . S
H579 C589 0.929 . S
H580 C584 0.929 . S
H581 C590 0.929 . S
C582 H576 0.930 . S
C582 C583 1.367 . S
C582 C590 1.378 . S
C583 C582 1.367 . S
C583 C591 1.433 . S
C584 H580 0.929 . S
C584 C586 1.378 . S
C584 C588 1.350 . S
C585 C588 1.463 . S
C585 C590 1.350 . S
C585 N593 1.427 . S
C586 H577 0.930 . S
C586 C584 1.378 . S
C586 C587 1.367 . S
C587 C586 1.367 . S
C587 C589 1.433 . S
C588 C584 1.350 . S
C588 C585 1.463 . S
C588 N592 1.427 . S
C589 H579 0.929 . S
C589 C587 1.433 . S
C589 N592 1.384 . S
C590 H581 0.929 . S
C590 C582 1.378 . S
C590 C585 1.350 . S
C591 H578 0.929 . S
C591 C583 1.433 . S
C591 N593 1.384 . S
N592 C588 1.427 . S
N592 C589 1.384 . S
N593 C585 1.427 . S
N593 C591 1.384 . S
H594 C600 0.930 . S
H595 C604 0.930 . S
H596 C609 0.929 . S
H597 C607 0.929 . S
H598 C602 0.929 . S
H599 C608 0.929 . S
C600 H594 0.930 . S
C600 C601 1.367 . S
C600 C608 1.378 . S
C601 C600 1.367 . S
C601 C609 1.433 . S
C602 H598 0.929 . S
C602 C604 1.378 . S
C602 C606 1.350 . S
C603 C606 1.463 . S
C603 C608 1.350 . S
C603 N611 1.427 . S
C604 H595 0.930 . S
C604 C602 1.378 . S
C604 C605 1.367 . S
C605 C604 1.367 . S
C605 C607 1.433 . S
C606 C602 1.350 . S
C606 C603 1.463 . S
C606 N610 1.427 . S
C607 H597 0.929 . S
C607 C605 1.433 . S
C607 N610 1.384 . S
C608 H599 0.929 . S
C608 C600 1.378 . S
C608 C603 1.350 . S
C609 H596 0.929 . S
C609 C601 1.433 . S
C609 N611 1.384 . S
N610 C606 1.427 . S
N610 C607 1.384 . S
N611 C603 1.427 . S
N611 C609 1.384 . S
H612 C618 0.930 . S
H613 C622 0.930 . S
H614 C627 0.929 . S
H615 C625 0.929 . S
H616 C620 0.929 . S
H617 C626 0.929 . S
C618 H612 0.930 . S
C618 C619 1.367 . S
C618 C626 1.378 . S
C619 C618 1.367 . S
C619 C627 1.433 . S
C620 H616 0.929 . S
C620 C622 1.378 . S
C620 C624 1.350 . S
C621 C624 1.463 . S
C621 C626 1.350 . S
C621 N629 1.427 . S
C622 H613 0.930 . S
C622 C620 1.378 . S
C622 C623 1.367 . S
C623 C622 1.367 . S
C623 C625 1.433 . S
C624 C620 1.350 . S
C624 C621 1.463 . S
C624 N628 1.427 . S
C625 H615 0.929 . S
C625 C623 1.433 . S
C625 N628 1.384 . S
C626 H617 0.929 . S
C626 C618 1.378 . S
C626 C621 1.350 . S
C627 H614 0.929 . S
C627 C619 1.433 . S
C627 N629 1.384 . S
N628 C624 1.427 . S
N628 C625 1.384 . S
N629 C621 1.427 . S
N629 C627 1.384 . S
H630 C636 0.930 . S
H631 C640 0.930 . S
H632 C645 0.929 . S
H633 C643 0.929 . S
H634 C638 0.929 . S
H635 C644 0.929 . S
C636 H630 0.930 . S
C636 C637 1.367 . S
C636 C644 1.378 . S
C637 C636 1.367 . S
C637 C645 1.433 . S
C638 H634 0.929 . S
C638 C640 1.378 . S
C638 C642 1.350 . S
C639 C642 1.463 . S
C639 C644 1.350 . S
C639 N647 1.427 . S
C640 H631 0.930 . S
C640 C638 1.378 . S
C640 C641 1.367 . S
C641 C640 1.367 . S
C641 C643 1.433 . S
C642 C638 1.350 . S
C642 C639 1.463 . S
C642 N646 1.427 . S
C643 H633 0.929 . S
C643 C641 1.433 . S
C643 N646 1.384 . S
C644 H635 0.929 . S
C644 C636 1.378 . S
C644 C639 1.350 . S
C645 H632 0.929 . S
C645 C637 1.433 . S
C645 N647 1.384 . S
N646 C642 1.427 . S
N646 C643 1.384 . S
N647 C639 1.427 . S
N647 C645 1.384 . S
H648 C654 0.930 . S
H649 C658 0.930 . S
H650 C663 0.929 . S
H651 C661 0.929 . S
H652 C656 0.929 . S
H653 C662 0.929 . S
C654 H648 0.930 . S
C654 C655 1.367 . S
C654 C662 1.378 . S
C655 C654 1.367 . S
C655 C663 1.433 . S
C656 H652 0.929 . S
C656 C658 1.378 . S
C656 C660 1.350 . S
C657 C660 1.463 . S
C657 C662 1.350 . S
C657 N665 1.427 . S
C658 H649 0.930 . S
C658 C656 1.378 . S
C658 C659 1.367 . S
C659 C658 1.367 . S
C659 C661 1.433 . S
C660 C656 1.350 . S
C660 C657 1.463 . S
C660 N664 1.427 . S
C661 H651 0.929 . S
C661 C659 1.433 . S
C661 N664 1.384 . S
C662 H653 0.929 . S
C662 C654 1.378 . S
C662 C657 1.350 . S
C663 H650 0.929 . S
C663 C655 1.433 . S
C663 N665 1.384 . S
N664 C660 1.427 . S
N664 C661 1.384 . S
N665 C657 1.427 . S
N665 C663 1.384 . S
H666 C672 0.930 . S
H667 C676 0.930 . S
H668 C681 0.929 . S
H669 C679 0.929 . S
H670 C674 0.929 . S
H671 C680 0.929 . S
C672 H666 0.930 . S
C672 C673 1.367 . S
C672 C680 1.378 . S
C673 C672 1.367 . S
C673 C681 1.433 . S
C674 H670 0.929 . S
C674 C676 1.378 . S
C674 C678 1.350 . S
C675 C678 1.463 . S
C675 C680 1.350 . S
C675 N683 1.427 . S
C676 H667 0.930 . S
C676 C674 1.378 . S
C676 C677 1.367 . S
C677 C676 1.367 . S
C677 C679 1.433 . S
C678 C674 1.350 . S
C678 C675 1.463 . S
C678 N682 1.427 . S
C679 H669 0.929 . S
C679 C677 1.433 . S
C679 N682 1.384 . S
C680 H671 0.929 . S
C680 C672 1.378 . S
C680 C675 1.350 . S
C681 H668 0.929 . S
C681 C673 1.433 . S
C681 N683 1.384 . S
N682 C678 1.427 . S
N682 C679 1.384 . S
N683 C675 1.427 . S
N683 C681 1.384 . S
H684 C690 0.930 . S
H685 C694 0.930 . S
H686 C699 0.929 . S
H687 C697 0.929 . S
H688 C692 0.929 . S
H689 C698 0.929 . S
C690 H684 0.930 . S
C690 C691 1.367 . S
C690 C698 1.378 . S
C691 C690 1.367 . S
C691 C699 1.433 . S
C692 H688 0.929 . S
C692 C694 1.378 . S
C692 C696 1.350 . S
C693 C696 1.463 . S
C693 C698 1.350 . S
C693 N701 1.427 . S
C694 H685 0.930 . S
C694 C692 1.378 . S
C694 C695 1.367 . S
C695 C694 1.367 . S
C695 C697 1.433 . S
C696 C692 1.350 . S
C696 C693 1.463 . S
C696 N700 1.427 . S
C697 H687 0.929 . S
C697 C695 1.433 . S
C697 N700 1.384 . S
C698 H689 0.929 . S
C698 C690 1.378 . S
C698 C693 1.350 . S
C699 H686 0.929 . S
C699 C691 1.433 . S
C699 N701 1.384 . S
N700 C696 1.427 . S
N700 C697 1.384 . S
N701 C693 1.427 . S
N701 C699 1.384 . S
H702 C708 0.930 . S
H703 C712 0.930 . S
H704 C717 0.929 . S
H705 C715 0.929 . S
H706 C710 0.929 . S
H707 C716 0.929 . S
C708 H702 0.930 . S
C708 C709 1.367 . S
C708 C716 1.378 . S
C709 C708 1.367 . S
C709 C717 1.433 . S
C710 H706 0.929 . S
C710 C712 1.378 . S
C710 C714 1.350 . S
C711 C714 1.463 . S
C711 C716 1.350 . S
C711 N719 1.427 . S
C712 H703 0.930 . S
C712 C710 1.378 . S
C712 C713 1.367 . S
C713 C712 1.367 . S
C713 C715 1.433 . S
C714 C710 1.350 . S
C714 C711 1.463 . S
C714 N718 1.427 . S
C715 H705 0.929 . S
C715 C713 1.433 . S
C715 N718 1.384 . S
C716 H707 0.929 . S
C716 C708 1.378 . S
C716 C711 1.350 . S
C717 H704 0.929 . S
C717 C709 1.433 . S
C717 N719 1.384 . S
N718 C714 1.427 . S
N718 C715 1.384 . S
N719 C711 1.427 . S
N719 C717 1.384 . S
H720 C726 0.930 . S
H721 C730 0.930 . S
H722 C735 0.929 . S
H723 C733 0.929 . S
H724 C728 0.929 . S
H725 C734 0.929 . S
C726 H720 0.930 . S
C726 C727 1.367 . S
C726 C734 1.378 . S
C727 C726 1.367 . S
C727 C735 1.433 . S
C728 H724 0.929 . S
C728 C730 1.378 . S
C728 C732 1.350 . S
C729 C732 1.463 . S
C729 C734 1.350 . S
C729 N737 1.427 . S
C730 H721 0.930 . S
C730 C728 1.378 . S
C730 C731 1.367 . S
C731 C730 1.367 . S
C731 C733 1.433 . S
C732 C728 1.350 . S
C732 C729 1.463 . S
C732 N736 1.427 . S
C733 H723 0.929 . S
C733 C731 1.433 . S
C733 N736 1.384 . S
C734 H725 0.929 . S
C734 C726 1.378 . S
C734 C729 1.350 . S
C735 H722 0.929 . S
C735 C727 1.433 . S
C735 N737 1.384 . S
N736 C732 1.427 . S
N736 C733 1.384 . S
N737 C729 1.427 . S
N737 C735 1.384 . S
H738 C744 0.930 . S
H739 C748 0.930 . S
H740 C753 0.929 . S
H741 C751 0.929 . S
H742 C746 0.929 . S
H743 C752 0.929 . S
C744 H738 0.930 . S
C744 C745 1.367 . S
C744 C752 1.378 . S
C745 C744 1.367 . S
C745 C753 1.433 . S
C746 H742 0.929 . S
C746 C748 1.378 . S
C746 C750 1.350 . S
C747 C750 1.463 . S
C747 C752 1.350 . S
C747 N755 1.427 . S
C748 H739 0.930 . S
C748 C746 1.378 . S
C748 C749 1.367 . S
C749 C748 1.367 . S
C749 C751 1.433 . S
C750 C746 1.350 . S
C750 C747 1.463 . S
C750 N754 1.427 . S
C751 H741 0.929 . S
C751 C749 1.433 . S
C751 N754 1.384 . S
C752 H743 0.929 . S
C752 C744 1.378 . S
C752 C747 1.350 . S
C753 H740 0.929 . S
C753 C745 1.433 . S
C753 N755 1.384 . S
N754 C750 1.427 . S
N754 C751 1.384 . S
N755 C747 1.427 . S
N755 C753 1.384 . S
H756 C762 0.930 . S
H757 C766 0.930 . S
H758 C771 0.929 . S
H759 C769 0.929 . S
H760 C764 0.929 . S
H761 C770 0.929 . S
C762 H756 0.930 . S
C762 C763 1.367 . S
C762 C770 1.378 . S
C763 C762 1.367 . S
C763 C771 1.433 . S
C764 H760 0.929 . S
C764 C766 1.378 . S
C764 C768 1.350 . S
C765 C768 1.463 . S
C765 C770 1.350 . S
C765 N773 1.427 . S
C766 H757 0.930 . S
C766 C764 1.378 . S
C766 C767 1.367 . S
C767 C766 1.367 . S
C767 C769 1.433 . S
C768 C764 1.350 . S
C768 C765 1.463 . S
C768 N772 1.427 . S
C769 H759 0.929 . S
C769 C767 1.433 . S
C769 N772 1.384 . S
C770 H761 0.929 . S
C770 C762 1.378 . S
C770 C765 1.350 . S
C771 H758 0.929 . S
C771 C763 1.433 . S
C771 N773 1.384 . S
N772 C768 1.427 . S
N772 C769 1.384 . S
N773 C765 1.427 . S
N773 C771 1.384 . S
H774 C780 0.930 . S
H775 C784 0.930 . S
H776 C789 0.929 . S
H777 C787 0.929 . S
H778 C782 0.929 . S
H779 C788 0.929 . S
C780 H774 0.930 . S
C780 C781 1.367 . S
C780 C788 1.378 . S
C781 C780 1.367 . S
C781 C789 1.433 . S
C782 H778 0.929 . S
C782 C784 1.378 . S
C782 C786 1.350 . S
C783 C786 1.463 . S
C783 C788 1.350 . S
C783 N791 1.427 . S
C784 H775 0.930 . S
C784 C782 1.378 . S
C784 C785 1.367 . S
C785 C784 1.367 . S
C785 C787 1.433 . S
C786 C782 1.350 . S
C786 C783 1.463 . S
C786 N790 1.427 . S
C787 H777 0.929 . S
C787 C785 1.433 . S
C787 N790 1.384 . S
C788 H779 0.929 . S
C788 C780 1.378 . S
C788 C783 1.350 . S
C789 H776 0.929 . S
C789 C781 1.433 . S
C789 N791 1.384 . S
N790 C786 1.427 . S
N790 C787 1.384 . S
N791 C783 1.427 . S
N791 C789 1.384 . S
H792 C798 0.930 . S
H793 C802 0.930 . S
H794 C807 0.929 . S
H795 C805 0.929 . S
H796 C800 0.929 . S
H797 C806 0.929 . S
C798 H792 0.930 . S
C798 C799 1.367 . S
C798 C806 1.378 . S
C799 C798 1.367 . S
C799 C807 1.433 . S
C800 H796 0.929 . S
C800 C802 1.378 . S
C800 C804 1.350 . S
C801 C804 1.463 . S
C801 C806 1.350 . S
C801 N809 1.427 . S
C802 H793 0.930 . S
C802 C800 1.378 . S
C802 C803 1.367 . S
C803 C802 1.367 . S
C803 C805 1.433 . S
C804 C800 1.350 . S
C804 C801 1.463 . S
C804 N808 1.427 . S
C805 H795 0.929 . S
C805 C803 1.433 . S
C805 N808 1.384 . S
C806 H797 0.929 . S
C806 C798 1.378 . S
C806 C801 1.350 . S
C807 H794 0.929 . S
C807 C799 1.433 . S
C807 N809 1.384 . S
N808 C804 1.427 . S
N808 C805 1.384 . S
N809 C801 1.427 . S
N809 C807 1.384 . S
H810 C816 0.930 . S
H811 C820 0.930 . S
H812 C825 0.929 . S
H813 C823 0.929 . S
H814 C818 0.929 . S
H815 C824 0.929 . S
C816 H810 0.930 . S
C816 C817 1.367 . S
C816 C824 1.378 . S
C817 C816 1.367 . S
C817 C825 1.433 . S
C818 H814 0.929 . S
C818 C820 1.378 . S
C818 C822 1.350 . S
C819 C822 1.463 . S
C819 C824 1.350 . S
C819 N827 1.427 . S
C820 H811 0.930 . S
C820 C818 1.378 . S
C820 C821 1.367 . S
C821 C820 1.367 . S
C821 C823 1.433 . S
C822 C818 1.350 . S
C822 C819 1.463 . S
C822 N826 1.427 . S
C823 H813 0.929 . S
C823 C821 1.433 . S
C823 N826 1.384 . S
C824 H815 0.929 . S
C824 C816 1.378 . S
C824 C819 1.350 . S
C825 H812 0.929 . S
C825 C817 1.433 . S
C825 N827 1.384 . S
N826 C822 1.427 . S
N826 C823 1.384 . S
N827 C819 1.427 . S
N827 C825 1.384 . S
H828 C834 0.930 1_556 S
H829 C838 0.930 1_554 S
H830 C843 0.929 . S
H831 C841 0.929 . S
H832 C836 0.929 . S
H833 C842 0.929 . S
C834 H828 0.930 1_554 S
C834 C835 1.367 . S
C834 C842 1.378 1_554 S
C835 C834 1.367 . S
C835 C843 1.433 . S
C836 H832 0.929 . S
C836 C838 1.378 1_554 S
C836 C840 1.350 1_554 S
C837 C840 1.463 1_454 S
C837 C842 1.350 1_554 S
C837 N845 1.427 . S
C838 H829 0.930 1_556 S
C838 C836 1.378 1_556 S
C838 C839 1.367 . S
C839 C838 1.367 . S
C839 C841 1.433 . S
C840 C836 1.350 1_556 S
C840 C837 1.463 1_656 S
C840 N844 1.427 . S
C841 H831 0.929 . S
C841 C839 1.433 . S
C841 N844 1.384 . S
C842 H833 0.929 . S
C842 C834 1.378 1_556 S
C842 C837 1.350 1_556 S
C843 H830 0.929 . S
C843 C835 1.433 . S
C843 N845 1.384 . S
N844 C840 1.427 . S
N844 C841 1.384 . S
N845 C837 1.427 . S
N845 C843 1.384 . S
H846 C852 0.930 . S
H847 C856 0.930 . S
H848 C861 0.929 1_554 S
H849 C859 0.929 1_556 S
H850 C854 0.929 . S
H851 C860 0.929 . S
C852 H846 0.930 . S
C852 C853 1.367 . S
C852 C860 1.378 . S
C853 C852 1.367 . S
C853 C861 1.433 . S
C854 H850 0.929 . S
C854 C856 1.378 . S
C854 C858 1.350 . S
C855 C858 1.463 1_556 S
C855 C860 1.350 . S
C855 N863 1.427 1_556 S
C856 H847 0.930 . S
C856 C854 1.378 . S
C856 C857 1.367 . S
C857 C856 1.367 . S
C857 C859 1.433 . S
C858 C854 1.350 . S
C858 C855 1.463 1_554 S
C858 N862 1.427 1_554 S
C859 H849 0.929 1_554 S
C859 C857 1.433 . S
C859 N862 1.384 1_554 S
C860 H851 0.929 . S
C860 C852 1.378 . S
C860 C855 1.350 . S
C861 H848 0.929 1_556 S
C861 C853 1.433 . S
C861 N863 1.384 1_556 S
N862 C858 1.427 1_556 S
N862 C859 1.384 1_556 S
N863 C855 1.427 1_554 S
N863 C861 1.384 1_554 S
H864 C870 0.930 . S
H865 C874 0.930 . S
H866 C879 0.929 . S
H867 C877 0.929 . S
H868 C872 0.929 1_554 S
H869 C878 0.929 1_556 S
C870 H864 0.930 . S
C870 C871 1.367 . S
C870 C878 1.378 . S
C871 C870 1.367 . S
C871 C879 1.433 . S
C872 H868 0.929 1_556 S
C872 C874 1.378 . S
C872 C876 1.350 . S
C873 C876 1.463 1_564 S
C873 C878 1.350 . S
C873 N881 1.427 . S
C874 H865 0.930 . S
C874 C872 1.378 . S
C874 C875 1.367 . S
C875 C874 1.367 . S
C875 C877 1.433 . S
C876 C872 1.350 . S
C876 C873 1.463 1_546 S
C876 N880 1.427 . S
C877 H867 0.929 . S
C877 C875 1.433 . S
C877 N880 1.384 . S
C878 H869 0.929 1_554 S
C878 C870 1.378 . S
C878 C873 1.350 . S
C879 H866 0.929 . S
C879 C871 1.433 . S
C879 N881 1.384 . S
N880 C876 1.427 . S
N880 C877 1.384 . S
N881 C873 1.427 . S
N881 C879 1.384 . S
H882 C888 0.925 1_554 S
H883 C892 0.926 1_556 S
H884 C897 0.929 . S
H885 C895 0.929 . S
H886 C890 0.929 . S
H887 C896 0.929 . S
C888 H882 0.925 1_556 S
C888 C889 1.367 . S
C888 C896 1.378 1_556 S
C889 C888 1.367 . S
C889 C897 1.433 . S
C890 H886 0.929 . S
C890 C892 1.378 1_556 S
C890 C894 1.350 1_556 S
C891 C894 1.463 1_656 S
C891 C896 1.350 1_556 S
C891 N899 1.427 . S
C892 H883 0.926 1_554 S
C892 C890 1.378 1_554 S
C892 C893 1.367 . S
C893 C892 1.367 . S
C893 C895 1.433 . S
C894 C890 1.350 1_554 S
C894 C891 1.463 1_454 S
C894 N898 1.427 . S
C895 H885 0.929 . S
C895 C893 1.433 . S
C895 N898 1.384 . S
C896 H887 0.929 . S
C896 C888 1.378 1_554 S
C896 C891 1.350 1_554 S
C897 H884 0.929 . S
C897 C889 1.433 . S
C897 N899 1.384 . S
N898 C894 1.427 . S
N898 C895 1.384 . S
N899 C891 1.427 . S
N899 C897 1.384 . S
H900 C906 0.930 . S
H901 C910 0.930 . S
H902 C915 0.929 . S
H903 C913 0.929 . S
H904 C908 0.929 . S
H905 C914 0.929 . S
C906 H900 0.930 . S
C906 C907 1.367 . S
C906 C914 1.378 . S
C907 C906 1.367 . S
C907 C915 1.433 1_556 S
C908 H904 0.929 . S
C908 C910 1.378 . S
C908 C912 1.350 . S
C909 C912 1.463 1_556 S
C909 C914 1.350 . S
C909 N917 1.427 1_556 S
C910 H901 0.930 . S
C910 C908 1.378 . S
C910 C911 1.367 . S
C911 C910 1.367 . S
C911 C913 1.433 1_554 S
C912 C908 1.350 . S
C912 C909 1.463 1_554 S
C912 N916 1.427 1_554 S
C913 H903 0.929 . S
C913 C911 1.433 1_556 S
C913 N916 1.384 . S
C914 H905 0.929 . S
C914 C906 1.378 . S
C914 C909 1.350 . S
C915 H902 0.929 . S
C915 C907 1.433 1_554 S
C915 N917 1.384 . S
N916 C912 1.427 1_556 S
N916 C913 1.384 . S
N917 C909 1.427 1_554 S
N917 C915 1.384 . S
H918 C924 0.930 . S
H919 C928 0.930 . S
H920 C933 0.929 1_554 S
H921 C931 0.929 1_556 S
H922 C926 0.929 . S
H923 C932 0.929 . S
C924 H918 0.930 . S
C924 C925 1.367 . S
C924 C932 1.378 . S
C925 C924 1.367 . S
C925 C933 1.433 . S
C926 H922 0.929 . S
C926 C928 1.378 . S
C926 C930 1.350 . S
C927 C930 1.463 1_546 S
C927 C932 1.350 . S
C927 N935 1.427 1_556 S
C928 H919 0.930 . S
C928 C926 1.378 . S
C928 C929 1.367 . S
C929 C928 1.367 . S
C929 C931 1.433 . S
C930 C926 1.350 . S
C930 C927 1.463 1_564 S
C930 N934 1.427 1_554 S
C931 H921 0.929 1_554 S
C931 C929 1.433 . S
C931 N934 1.384 1_554 S
C932 H923 0.929 . S
C932 C924 1.378 . S
C932 C927 1.350 . S
C933 H920 0.929 1_556 S
C933 C925 1.433 . S
C933 N935 1.384 1_556 S
N934 C930 1.427 1_556 S
N934 C931 1.384 1_556 S
N935 C927 1.427 1_554 S
N935 C933 1.384 1_554 S
H936 C942 0.930 . S
H937 C946 0.930 . S
H938 C951 0.929 . S
H939 C949 0.929 . S
H940 C944 0.929 . S
H941 C950 0.929 . S
C942 H936 0.930 . S
C942 C943 1.367 . S
C942 C950 1.378 . S
C943 C942 1.367 . S
C943 C951 1.433 . S
C944 H940 0.929 . S
C944 C946 1.378 . S
C944 C948 1.350 . S
C945 C948 1.463 . S
C945 C950 1.350 . S
C945 N953 1.427 . S
C946 H937 0.930 . S
C946 C944 1.378 . S
C946 C947 1.367 . S
C947 C946 1.367 . S
C947 C949 1.433 . S
C948 C944 1.350 . S
C948 C945 1.463 . S
C948 N952 1.427 . S
C949 H939 0.929 . S
C949 C947 1.433 . S
C949 N952 1.384 . S
C950 H941 0.929 . S
C950 C942 1.378 . S
C950 C945 1.350 . S
C951 H938 0.929 . S
C951 C943 1.433 . S
C951 N953 1.384 . S
N952 C948 1.427 . S
N952 C949 1.384 . S
N953 C945 1.427 . S
N953 C951 1.384 . S
H954 C960 0.930 . S
H955 C964 0.930 . S
H956 C969 0.929 . S
H957 C967 0.929 . S
H958 C962 0.929 . S
H959 C968 0.929 . S
C960 H954 0.930 . S
C960 C961 1.367 . S
C960 C968 1.378 . S
C961 C960 1.367 . S
C961 C969 1.433 . S
C962 H958 0.929 . S
C962 C964 1.378 . S
C962 C966 1.350 . S
C963 C966 1.463 . S
C963 C968 1.350 . S
C963 N971 1.427 . S
C964 H955 0.930 . S
C964 C962 1.378 . S
C964 C965 1.367 . S
C965 C964 1.367 . S
C965 C967 1.433 . S
C966 C962 1.350 . S
C966 C963 1.463 . S
C966 N970 1.427 . S
C967 H957 0.929 . S
C967 C965 1.433 . S
C967 N970 1.384 . S
C968 H959 0.929 . S
C968 C960 1.378 . S
C968 C963 1.350 . S
C969 H956 0.929 . S
C969 C961 1.433 . S
C969 N971 1.384 . S
N970 C966 1.427 . S
N970 C967 1.384 . S
N971 C963 1.427 . S
N971 C969 1.384 . S
H972 C978 0.930 . S
H973 C982 0.930 . S
H974 C987 0.929 . S
H975 C985 0.929 . S
H976 C980 0.929 . S
H977 C986 0.929 . S
C978 H972 0.930 . S
C978 C979 1.367 . S
C978 C986 1.378 . S
C979 C978 1.367 . S
C979 C987 1.433 . S
C980 H976 0.929 . S
C980 C982 1.378 . S
C980 C984 1.350 . S
C981 C984 1.463 . S
C981 C986 1.350 . S
C981 N989 1.427 . S
C982 H973 0.930 . S
C982 C980 1.378 . S
C982 C983 1.367 . S
C983 C982 1.367 . S
C983 C985 1.433 . S
C984 C980 1.350 . S
C984 C981 1.463 . S
C984 N988 1.427 . S
C985 H975 0.929 . S
C985 C983 1.433 . S
C985 N988 1.384 . S
C986 H977 0.929 . S
C986 C978 1.378 . S
C986 C981 1.350 . S
C987 H974 0.929 . S
C987 C979 1.433 . S
C987 N989 1.384 . S
N988 C984 1.427 . S
N988 C985 1.384 . S
N989 C981 1.427 . S
N989 C987 1.384 . S
H990 C996 0.930 . S
H991 C1000 0.930 . S
H992 C1005 0.929 . S
H993 C1003 0.929 . S
H994 C998 0.929 . S
H995 C1004 0.929 . S
C996 H990 0.930 . S
C996 C997 1.367 . S
C996 C1004 1.378 . S
C997 C996 1.367 . S
C997 C1005 1.433 . S
C998 H994 0.929 . S
C998 C1000 1.378 . S
C998 C1002 1.350 . S
C999 C1002 1.463 . S
C999 C1004 1.350 . S
C999 N1007 1.427 . S
C1000 H991 0.930 . S
C1000 C998 1.378 . S
C1000 C1001 1.367 . S
C1001 C1000 1.367 . S
C1001 C1003 1.433 . S
C1002 C998 1.350 . S
C1002 C999 1.463 . S
C1002 N1006 1.427 . S
C1003 H993 0.929 . S
C1003 C1001 1.433 . S
C1003 N1006 1.384 . S
C1004 H995 0.929 . S
C1004 C996 1.378 . S
C1004 C999 1.350 . S
C1005 H992 0.929 . S
C1005 C997 1.433 . S
C1005 N1007 1.384 . S
N1006 C1002 1.427 . S
N1006 C1003 1.384 . S
N1007 C999 1.427 . S
N1007 C1005 1.384 . S
H1008 C1014 0.930 . S
H1009 C1018 0.930 . S
H1010 C1023 0.929 . S
H1011 C1021 0.929 . S
H1012 C1016 0.929 . S
H1013 C1022 0.929 . S
C1014 H1008 0.930 . S
C1014 C1015 1.367 . S
C1014 C1022 1.378 . S
C1015 C1014 1.367 . S
C1015 C1023 1.433 . S
C1016 H1012 0.929 . S
C1016 C1018 1.378 . S
C1016 C1020 1.350 . S
C1017 C1020 1.463 . S
C1017 C1022 1.350 . S
C1017 N1025 1.427 . S
C1018 H1009 0.930 . S
C1018 C1016 1.378 . S
C1018 C1019 1.367 . S
C1019 C1018 1.367 . S
C1019 C1021 1.433 . S
C1020 C1016 1.350 . S
C1020 C1017 1.463 . S
C1020 N1024 1.427 . S
C1021 H1011 0.929 . S
C1021 C1019 1.433 . S
C1021 N1024 1.384 . S
C1022 H1013 0.929 . S
C1022 C1014 1.378 . S
C1022 C1017 1.350 . S
C1023 H1010 0.929 . S
C1023 C1015 1.433 . S
C1023 N1025 1.384 . S
N1024 C1020 1.427 . S
N1024 C1021 1.384 . S
N1025 C1017 1.427 . S
N1025 C1023 1.384 . S
H1026 C1032 0.930 . S
H1027 C1036 0.930 . S
H1028 C1041 0.929 . S
H1029 C1039 0.929 . S
H1030 C1034 0.929 . S
H1031 C1040 0.929 . S
C1032 H1026 0.930 . S
C1032 C1033 1.367 . S
C1032 C1040 1.378 . S
C1033 C1032 1.367 . S
C1033 C1041 1.433 . S
C1034 H1030 0.929 . S
C1034 C1036 1.378 . S
C1034 C1038 1.350 . S
C1035 C1038 1.463 . S
C1035 C1040 1.350 . S
C1035 N1043 1.427 . S
C1036 H1027 0.930 . S
C1036 C1034 1.378 . S
C1036 C1037 1.367 . S
C1037 C1036 1.367 . S
C1037 C1039 1.433 . S
C1038 C1034 1.350 . S
C1038 C1035 1.463 . S
C1038 N1042 1.427 . S
C1039 H1029 0.929 . S
C1039 C1037 1.433 . S
C1039 N1042 1.384 . S
C1040 H1031 0.929 . S
C1040 C1032 1.378 . S
C1040 C1035 1.350 . S
C1041 H1028 0.929 . S
C1041 C1033 1.433 . S
C1041 N1043 1.384 . S
N1042 C1038 1.427 . S
N1042 C1039 1.384 . S
N1043 C1035 1.427 . S
N1043 C1041 1.384 . S
H1044 C1050 0.930 . S
H1045 C1054 0.930 . S
H1046 C1059 0.929 . S
H1047 C1057 0.929 . S
H1048 C1052 0.929 . S
H1049 C1058 0.929 . S
C1050 H1044 0.930 . S
C1050 C1051 1.367 . S
C1050 C1058 1.378 . S
C1051 C1050 1.367 . S
C1051 C1059 1.433 . S
C1052 H1048 0.929 . S
C1052 C1054 1.378 . S
C1052 C1056 1.350 . S
C1053 C1056 1.463 . S
C1053 C1058 1.350 . S
C1053 N1061 1.427 . S
C1054 H1045 0.930 . S
C1054 C1052 1.378 . S
C1054 C1055 1.367 . S
C1055 C1054 1.367 . S
C1055 C1057 1.433 . S
C1056 C1052 1.350 . S
C1056 C1053 1.463 . S
C1056 N1060 1.427 . S
C1057 H1047 0.929 . S
C1057 C1055 1.433 . S
C1057 N1060 1.384 . S
C1058 H1049 0.929 . S
C1058 C1050 1.378 . S
C1058 C1053 1.350 . S
C1059 H1046 0.929 . S
C1059 C1051 1.433 . S
C1059 N1061 1.384 . S
N1060 C1056 1.427 . S
N1060 C1057 1.384 . S
N1061 C1053 1.427 . S
N1061 C1059 1.384 . S
H1062 C1068 0.930 . S
H1063 C1072 0.930 . S
H1064 C1077 0.929 . S
H1065 C1075 0.929 . S
H1066 C1070 0.929 . S
H1067 C1076 0.929 . S
C1068 H1062 0.930 . S
C1068 C1069 1.367 . S
C1068 C1076 1.378 . S
C1069 C1068 1.367 . S
C1069 C1077 1.433 . S
C1070 H1066 0.929 . S
C1070 C1072 1.378 . S
C1070 C1074 1.350 . S
C1071 C1074 1.463 . S
C1071 C1076 1.350 . S
C1071 N1079 1.427 . S
C1072 H1063 0.930 . S
C1072 C1070 1.378 . S
C1072 C1073 1.367 . S
C1073 C1072 1.367 . S
C1073 C1075 1.433 . S
C1074 C1070 1.350 . S
C1074 C1071 1.463 . S
C1074 N1078 1.427 . S
C1075 H1065 0.929 . S
C1075 C1073 1.433 . S
C1075 N1078 1.384 . S
C1076 H1067 0.929 . S
C1076 C1068 1.378 . S
C1076 C1071 1.350 . S
C1077 H1064 0.929 . S
C1077 C1069 1.433 . S
C1077 N1079 1.384 . S
N1078 C1074 1.427 . S
N1078 C1075 1.384 . S
N1079 C1071 1.427 . S
N1079 C1077 1.384 . S
H1080 C1086 0.930 . S
H1081 C1090 0.930 . S
H1082 C1095 0.929 . S
H1083 C1093 0.929 . S
H1084 C1088 0.929 . S
H1085 C1094 0.929 . S
C1086 H1080 0.930 . S
C1086 C1087 1.367 . S
C1086 C1094 1.378 . S
C1087 C1086 1.367 . S
C1087 C1095 1.433 . S
C1088 H1084 0.929 . S
C1088 C1090 1.378 . S
C1088 C1092 1.350 . S
C1089 C1092 1.463 . S
C1089 C1094 1.350 . S
C1089 N1097 1.427 . S
C1090 H1081 0.930 . S
C1090 C1088 1.378 . S
C1090 C1091 1.367 . S
C1091 C1090 1.367 . S
C1091 C1093 1.433 . S
C1092 C1088 1.350 . S
C1092 C1089 1.463 . S
C1092 N1096 1.427 . S
C1093 H1083 0.929 . S
C1093 C1091 1.433 . S
C1093 N1096 1.384 . S
C1094 H1085 0.929 . S
C1094 C1086 1.378 . S
C1094 C1089 1.350 . S
C1095 H1082 0.929 . S
C1095 C1087 1.433 . S
C1095 N1097 1.384 . S
N1096 C1092 1.427 . S
N1096 C1093 1.384 . S
N1097 C1089 1.427 . S
N1097 C1095 1.384 . S
H1098 C1104 0.930 . S
H1099 C1108 0.930 . S
H1100 C1113 0.929 . S
H1101 C1111 0.929 . S
H1102 C1106 0.929 . S
H1103 C1112 0.929 . S
C1104 H1098 0.930 . S
C1104 C1105 1.367 . S
C1104 C1112 1.378 . S
C1105 C1104 1.367 . S
C1105 C1113 1.433 . S
C1106 H1102 0.929 . S
C1106 C1108 1.378 . S
C1106 C1110 1.350 . S
C1107 C1110 1.463 . S
C1107 C1112 1.350 . S
C1107 N1115 1.427 . S
C1108 H1099 0.930 . S
C1108 C1106 1.378 . S
C1108 C1109 1.367 . S
C1109 C1108 1.367 . S
C1109 C1111 1.433 . S
C1110 C1106 1.350 . S
C1110 C1107 1.463 . S
C1110 N1114 1.427 . S
C1111 H1101 0.929 . S
C1111 C1109 1.433 . S
C1111 N1114 1.384 . S
C1112 H1103 0.929 . S
C1112 C1104 1.378 . S
C1112 C1107 1.350 . S
C1113 H1100 0.929 . S
C1113 C1105 1.433 . S
C1113 N1115 1.384 . S
N1114 C1110 1.427 . S
N1114 C1111 1.384 . S
N1115 C1107 1.427 . S
N1115 C1113 1.384 . S
H1116 C1122 0.930 . S
H1117 C1126 0.930 . S
H1118 C1131 0.929 . S
H1119 C1129 0.929 . S
H1120 C1124 0.929 . S
H1121 C1130 0.929 . S
C1122 H1116 0.930 . S
C1122 C1123 1.367 . S
C1122 C1130 1.378 . S
C1123 C1122 1.367 . S
C1123 C1131 1.433 . S
C1124 H1120 0.929 . S
C1124 C1126 1.378 . S
C1124 C1128 1.350 . S
C1125 C1128 1.463 . S
C1125 C1130 1.350 . S
C1125 N1133 1.427 . S
C1126 H1117 0.930 . S
C1126 C1124 1.378 . S
C1126 C1127 1.367 . S
C1127 C1126 1.367 . S
C1127 C1129 1.433 . S
C1128 C1124 1.350 . S
C1128 C1125 1.463 . S
C1128 N1132 1.427 . S
C1129 H1119 0.929 . S
C1129 C1127 1.433 . S
C1129 N1132 1.384 . S
C1130 H1121 0.929 . S
C1130 C1122 1.378 . S
C1130 C1125 1.350 . S
C1131 H1118 0.929 . S
C1131 C1123 1.433 . S
C1131 N1133 1.384 . S
N1132 C1128 1.427 . S
N1132 C1129 1.384 . S
N1133 C1125 1.427 . S
N1133 C1131 1.384 . S
H1134 C1140 0.930 . S
H1135 C1144 0.930 . S
H1136 C1149 0.929 . S
H1137 C1147 0.929 . S
H1138 C1142 0.929 . S
H1139 C1148 0.929 . S
C1140 H1134 0.930 . S
C1140 C1141 1.367 . S
C1140 C1148 1.378 . S
C1141 C1140 1.367 . S
C1141 C1149 1.433 . S
C1142 H1138 0.929 . S
C1142 C1144 1.378 . S
C1142 C1146 1.350 . S
C1143 C1146 1.463 . S
C1143 C1148 1.350 . S
C1143 N1151 1.427 . S
C1144 H1135 0.930 . S
C1144 C1142 1.378 . S
C1144 C1145 1.367 . S
C1145 C1144 1.367 . S
C1145 C1147 1.433 . S
C1146 C1142 1.350 . S
C1146 C1143 1.463 . S
C1146 N1150 1.427 . S
C1147 H1137 0.929 . S
C1147 C1145 1.433 . S
C1147 N1150 1.384 . S
C1148 H1139 0.929 . S
C1148 C1140 1.378 . S
C1148 C1143 1.350 . S
C1149 H1136 0.929 . S
C1149 C1141 1.433 . S
C1149 N1151 1.384 . S
N1150 C1146 1.427 . S
N1150 C1147 1.384 . S
N1151 C1143 1.427 . S
N1151 C1149 1.384 . S
H1152 C1158 0.930 . S
H1153 C1162 0.930 . S
H1154 C1167 0.929 . S
H1155 C1165 0.929 . S
H1156 C1160 0.929 . S
H1157 C1166 0.929 . S
C1158 H1152 0.930 . S
C1158 C1159 1.367 . S
C1158 C1166 1.378 . S
C1159 C1158 1.367 . S
C1159 C1167 1.433 . S
C1160 H1156 0.929 . S
C1160 C1162 1.378 . S
C1160 C1164 1.350 . S
C1161 C1164 1.463 . S
C1161 C1166 1.350 . S
C1161 N1169 1.427 . S
C1162 H1153 0.930 . S
C1162 C1160 1.378 . S
C1162 C1163 1.367 . S
C1163 C1162 1.367 . S
C1163 C1165 1.433 . S
C1164 C1160 1.350 . S
C1164 C1161 1.463 . S
C1164 N1168 1.427 . S
C1165 H1155 0.929 . S
C1165 C1163 1.433 . S
C1165 N1168 1.384 . S
C1166 H1157 0.929 . S
C1166 C1158 1.378 . S
C1166 C1161 1.350 . S
C1167 H1154 0.929 . S
C1167 C1159 1.433 . S
C1167 N1169 1.384 . S
N1168 C1164 1.427 . S
N1168 C1165 1.384 . S
N1169 C1161 1.427 . S
N1169 C1167 1.384 . S
H1170 C1176 0.930 . S
H1171 C1180 0.930 . S
H1172 C1185 0.929 . S
H1173 C1183 0.929 . S
H1174 C1178 0.929 . S
H1175 C1184 0.929 . S
C1176 H1170 0.930 . S
C1176 C1177 1.367 . S
C1176 C1184 1.378 . S
C1177 C1176 1.367 . S
C1177 C1185 1.433 . S
C1178 H1174 0.929 . S
C1178 C1180 1.378 . S
C1178 C1182 1.350 . S
C1179 C1182 1.463 . S
C1179 C1184 1.350 . S
C1179 N1187 1.427 . S
C1180 H1171 0.930 . S
C1180 C1178 1.378 . S
C1180 C1181 1.367 . S
C1181 C1180 1.367 . S
C1181 C1183 1.433 . S
C1182 C1178 1.350 . S
C1182 C1179 1.463 . S
C1182 N1186 1.427 . S
C1183 H1173 0.929 . S
C1183 C1181 1.433 . S
C1183 N1186 1.384 . S
C1184 H1175 0.929 . S
C1184 C1176 1.378 . S
C1184 C1179 1.350 . S
C1185 H1172 0.929 . S
C1185 C1177 1.433 . S
C1185 N1187 1.384 . S
N1186 C1182 1.427 . S
N1186 C1183 1.384 . S
N1187 C1179 1.427 . S
N1187 C1185 1.384 . S
H1188 C1194 0.930 . S
H1189 C1198 0.930 . S
H1190 C1203 0.929 . S
H1191 C1201 0.929 . S
H1192 C1196 0.929 . S
H1193 C1202 0.929 . S
C1194 H1188 0.930 . S
C1194 C1195 1.367 . S
C1194 C1202 1.378 . S
C1195 C1194 1.367 . S
C1195 C1203 1.433 . S
C1196 H1192 0.929 . S
C1196 C1198 1.378 . S
C1196 C1200 1.350 . S
C1197 C1200 1.463 . S
C1197 C1202 1.350 . S
C1197 N1205 1.427 . S
C1198 H1189 0.930 . S
C1198 C1196 1.378 . S
C1198 C1199 1.367 . S
C1199 C1198 1.367 . S
C1199 C1201 1.433 . S
C1200 C1196 1.350 . S
C1200 C1197 1.463 . S
C1200 N1204 1.427 . S
C1201 H1191 0.929 . S
C1201 C1199 1.433 . S
C1201 N1204 1.384 . S
C1202 H1193 0.929 . S
C1202 C1194 1.378 . S
C1202 C1197 1.350 . S
C1203 H1190 0.929 . S
C1203 C1195 1.433 . S
C1203 N1205 1.384 . S
N1204 C1200 1.427 . S
N1204 C1201 1.384 . S
N1205 C1197 1.427 . S
N1205 C1203 1.384 . S
H1206 C1212 0.930 . S
H1207 C1216 0.930 . S
H1208 C1221 0.929 . S
H1209 C1219 0.929 . S
H1210 C1214 0.929 . S
H1211 C1220 0.929 . S
C1212 H1206 0.930 . S
C1212 C1213 1.367 . S
C1212 C1220 1.378 . S
C1213 C1212 1.367 . S
C1213 C1221 1.433 . S
C1214 H1210 0.929 . S
C1214 C1216 1.378 . S
C1214 C1218 1.350 . S
C1215 C1218 1.463 . S
C1215 C1220 1.350 . S
C1215 N1223 1.427 . S
C1216 H1207 0.930 . S
C1216 C1214 1.378 . S
C1216 C1217 1.367 . S
C1217 C1216 1.367 . S
C1217 C1219 1.433 . S
C1218 C1214 1.350 . S
C1218 C1215 1.463 . S
C1218 N1222 1.427 . S
C1219 H1209 0.929 . S
C1219 C1217 1.433 . S
C1219 N1222 1.384 . S
C1220 H1211 0.929 . S
C1220 C1212 1.378 . S
C1220 C1215 1.350 . S
C1221 H1208 0.929 . S
C1221 C1213 1.433 . S
C1221 N1223 1.384 . S
N1222 C1218 1.427 . S
N1222 C1219 1.384 . S
N1223 C1215 1.427 . S
N1223 C1221 1.384 . S
H1224 C1230 0.930 . S
H1225 C1234 0.930 . S
H1226 C1239 0.929 . S
H1227 C1237 0.929 . S
H1228 C1232 0.929 . S
H1229 C1238 0.929 . S
C1230 H1224 0.930 . S
C1230 C1231 1.367 . S
C1230 C1238 1.378 . S
C1231 C1230 1.367 . S
C1231 C1239 1.433 . S
C1232 H1228 0.929 . S
C1232 C1234 1.378 . S
C1232 C1236 1.350 . S
C1233 C1236 1.463 . S
C1233 C1238 1.350 . S
C1233 N1241 1.427 . S
C1234 H1225 0.930 . S
C1234 C1232 1.378 . S
C1234 C1235 1.367 . S
C1235 C1234 1.367 . S
C1235 C1237 1.433 . S
C1236 C1232 1.350 . S
C1236 C1233 1.463 . S
C1236 N1240 1.427 . S
C1237 H1227 0.929 . S
C1237 C1235 1.433 . S
C1237 N1240 1.384 . S
C1238 H1229 0.929 . S
C1238 C1230 1.378 . S
C1238 C1233 1.350 . S
C1239 H1226 0.929 . S
C1239 C1231 1.433 . S
C1239 N1241 1.384 . S
N1240 C1236 1.427 . S
N1240 C1237 1.384 . S
N1241 C1233 1.427 . S
N1241 C1239 1.384 . S
H1242 C1248 0.930 . S
H1243 C1252 0.930 . S
H1244 C1257 0.929 . S
H1245 C1255 0.929 . S
H1246 C1250 0.929 . S
H1247 C1256 0.929 . S
C1248 H1242 0.930 . S
C1248 C1249 1.367 . S
C1248 C1256 1.378 . S
C1249 C1248 1.367 . S
C1249 C1257 1.433 . S
C1250 H1246 0.929 . S
C1250 C1252 1.378 . S
C1250 C1254 1.350 . S
C1251 C1254 1.463 . S
C1251 C1256 1.350 . S
C1251 N1259 1.427 . S
C1252 H1243 0.930 . S
C1252 C1250 1.378 . S
C1252 C1253 1.367 . S
C1253 C1252 1.367 . S
C1253 C1255 1.433 . S
C1254 C1250 1.350 . S
C1254 C1251 1.463 . S
C1254 N1258 1.427 . S
C1255 H1245 0.929 . S
C1255 C1253 1.433 . S
C1255 N1258 1.384 . S
C1256 H1247 0.929 . S
C1256 C1248 1.378 . S
C1256 C1251 1.350 . S
C1257 H1244 0.929 . S
C1257 C1249 1.433 . S
C1257 N1259 1.384 . S
N1258 C1254 1.427 . S
N1258 C1255 1.384 . S
N1259 C1251 1.427 . S
N1259 C1257 1.384 . S
H1260 C1266 0.930 . S
H1261 C1270 0.930 . S
H1262 C1275 0.929 . S
H1263 C1273 0.929 . S
H1264 C1268 0.929 . S
H1265 C1274 0.929 . S
C1266 H1260 0.930 . S
C1266 C1267 1.367 . S
C1266 C1274 1.378 . S
C1267 C1266 1.367 . S
C1267 C1275 1.433 . S
C1268 H1264 0.929 . S
C1268 C1270 1.378 . S
C1268 C1272 1.350 . S
C1269 C1272 1.463 . S
C1269 C1274 1.350 . S
C1269 N1277 1.427 . S
C1270 H1261 0.930 . S
C1270 C1268 1.378 . S
C1270 C1271 1.367 . S
C1271 C1270 1.367 . S
C1271 C1273 1.433 . S
C1272 C1268 1.350 . S
C1272 C1269 1.463 . S
C1272 N1276 1.427 . S
C1273 H1263 0.929 . S
C1273 C1271 1.433 . S
C1273 N1276 1.384 . S
C1274 H1265 0.929 . S
C1274 C1266 1.378 . S
C1274 C1269 1.350 . S
C1275 H1262 0.929 . S
C1275 C1267 1.433 . S
C1275 N1277 1.384 . S
N1276 C1272 1.427 . S
N1276 C1273 1.384 . S
N1277 C1269 1.427 . S
N1277 C1275 1.384 . S
H1278 C1284 0.930 . S
H1279 C1288 0.930 . S
H1280 C1293 0.929 . S
H1281 C1291 0.929 . S
H1282 C1286 0.929 . S
H1283 C1292 0.929 . S
C1284 H1278 0.930 . S
C1284 C1285 1.367 . S
C1284 C1292 1.378 . S
C1285 C1284 1.367 . S
C1285 C1293 1.433 . S
C1286 H1282 0.929 . S
C1286 C1288 1.378 . S
C1286 C1290 1.350 . S
C1287 C1290 1.463 . S
C1287 C1292 1.350 . S
C1287 N1295 1.427 . S
C1288 H1279 0.930 . S
C1288 C1286 1.378 . S
C1288 C1289 1.367 . S
C1289 C1288 1.367 . S
C1289 C1291 1.433 . S
C1290 C1286 1.350 . S
C1290 C1287 1.463 . S
C1290 N1294 1.427 . S
C1291 H1281 0.929 . S
C1291 C1289 1.433 . S
C1291 N1294 1.384 . S
C1292 H1283 0.929 . S
C1292 C1284 1.378 . S
C1292 C1287 1.350 . S
C1293 H1280 0.929 . S
C1293 C1285 1.433 . S
C1293 N1295 1.384 . S
N1294 C1290 1.427 . S
N1294 C1291 1.384 . S
N1295 C1287 1.427 . S
N1295 C1293 1.384 . S
H1296 C1302 0.930 . S
H1297 C1306 0.930 . S
H1298 C1311 0.929 . S
H1299 C1309 0.929 . S
H1300 C1304 0.929 . S
H1301 C1310 0.929 . S
C1302 H1296 0.930 . S
C1302 C1303 1.367 . S
C1302 C1310 1.378 . S
C1303 C1302 1.367 . S
C1303 C1311 1.433 . S
C1304 H1300 0.929 . S
C1304 C1306 1.378 . S
C1304 C1308 1.350 . S
C1305 C1308 1.463 . S
C1305 C1310 1.350 . S
C1305 N1313 1.427 . S
C1306 H1297 0.930 . S
C1306 C1304 1.378 . S
C1306 C1307 1.367 . S
C1307 C1306 1.367 . S
C1307 C1309 1.433 . S
C1308 C1304 1.350 . S
C1308 C1305 1.463 . S
C1308 N1312 1.427 . S
C1309 H1299 0.929 . S
C1309 C1307 1.433 . S
C1309 N1312 1.384 . S
C1310 H1301 0.929 . S
C1310 C1302 1.378 . S
C1310 C1305 1.350 . S
C1311 H1298 0.929 . S
C1311 C1303 1.433 . S
C1311 N1313 1.384 . S
N1312 C1308 1.427 . S
N1312 C1309 1.384 . S
N1313 C1305 1.427 . S
N1313 C1311 1.384 . S
H1314 C1320 0.930 . S
H1315 C1324 0.930 . S
H1316 C1329 0.929 . S
H1317 C1327 0.929 . S
H1318 C1322 0.929 . S
H1319 C1328 0.929 . S
C1320 H1314 0.930 . S
C1320 C1321 1.367 . S
C1320 C1328 1.378 . S
C1321 C1320 1.367 . S
C1321 C1329 1.433 . S
C1322 H1318 0.929 . S
C1322 C1324 1.378 . S
C1322 C1326 1.350 . S
C1323 C1326 1.463 . S
C1323 C1328 1.350 . S
C1323 N1331 1.427 . S
C1324 H1315 0.930 . S
C1324 C1322 1.378 . S
C1324 C1325 1.367 . S
C1325 C1324 1.367 . S
C1325 C1327 1.433 . S
C1326 C1322 1.350 . S
C1326 C1323 1.463 . S
C1326 N1330 1.427 . S
C1327 H1317 0.929 . S
C1327 C1325 1.433 . S
C1327 N1330 1.384 . S
C1328 H1319 0.929 . S
C1328 C1320 1.378 . S
C1328 C1323 1.350 . S
C1329 H1316 0.929 . S
C1329 C1321 1.433 . S
C1329 N1331 1.384 . S
N1330 C1326 1.427 . S
N1330 C1327 1.384 . S
N1331 C1323 1.427 . S
N1331 C1329 1.384 . S
H1332 C1338 0.930 . S
H1333 C1342 0.930 . S
H1334 C1347 0.929 . S
H1335 C1345 0.929 . S
H1336 C1340 0.929 . S
H1337 C1346 0.929 . S
C1338 H1332 0.930 . S
C1338 C1339 1.367 . S
C1338 C1346 1.378 . S
C1339 C1338 1.367 . S
C1339 C1347 1.433 . S
C1340 H1336 0.929 . S
C1340 C1342 1.378 . S
C1340 C1344 1.350 . S
C1341 C1344 1.463 . S
C1341 C1346 1.350 . S
C1341 N1349 1.427 . S
C1342 H1333 0.930 . S
C1342 C1340 1.378 . S
C1342 C1343 1.367 . S
C1343 C1342 1.367 . S
C1343 C1345 1.433 . S
C1344 C1340 1.350 . S
C1344 C1341 1.463 . S
C1344 N1348 1.427 . S
C1345 H1335 0.929 . S
C1345 C1343 1.433 . S
C1345 N1348 1.384 . S
C1346 H1337 0.929 . S
C1346 C1338 1.378 . S
C1346 C1341 1.350 . S
C1347 H1334 0.929 . S
C1347 C1339 1.433 . S
C1347 N1349 1.384 . S
N1348 C1344 1.427 . S
N1348 C1345 1.384 . S
N1349 C1341 1.427 . S
N1349 C1347 1.384 . S
H1350 C1356 0.930 . S
H1351 C1360 0.930 . S
H1352 C1365 0.929 . S
H1353 C1363 0.929 . S
H1354 C1358 0.929 . S
H1355 C1364 0.929 . S
C1356 H1350 0.930 . S
C1356 C1357 1.367 . S
C1356 C1364 1.378 . S
C1357 C1356 1.367 . S
C1357 C1365 1.433 . S
C1358 H1354 0.929 . S
C1358 C1360 1.378 . S
C1358 C1362 1.350 . S
C1359 C1362 1.463 . S
C1359 C1364 1.350 . S
C1359 N1367 1.427 . S
C1360 H1351 0.930 . S
C1360 C1358 1.378 . S
C1360 C1361 1.367 . S
C1361 C1360 1.367 . S
C1361 C1363 1.433 . S
C1362 C1358 1.350 . S
C1362 C1359 1.463 . S
C1362 N1366 1.427 . S
C1363 H1353 0.929 . S
C1363 C1361 1.433 . S
C1363 N1366 1.384 . S
C1364 H1355 0.929 . S
C1364 C1356 1.378 . S
C1364 C1359 1.350 . S
C1365 H1352 0.929 . S
C1365 C1357 1.433 . S
C1365 N1367 1.384 . S
N1366 C1362 1.427 . S
N1366 C1363 1.384 . S
N1367 C1359 1.427 . S
N1367 C1365 1.384 . S
H1368 C1374 0.930 1_655 S
H1369 C1378 0.930 1_455 S
H1370 C1383 0.929 . S
H1371 C1381 0.929 . S
H1372 C1376 0.929 . S
H1373 C1382 0.929 . S
C1374 H1368 0.930 1_455 S
C1374 C1375 1.367 . S
C1374 C1382 1.378 1_455 S
C1375 C1374 1.367 . S
C1375 C1383 1.433 . S
C1376 H1372 0.929 . S
C1376 C1378 1.378 1_455 S
C1376 C1380 1.350 1_455 S
C1377 C1380 1.463 1_455 S
C1377 C1382 1.350 1_455 S
C1377 N1385 1.427 . S
C1378 H1369 0.930 1_655 S
C1378 C1376 1.378 1_655 S
C1378 C1379 1.367 . S
C1379 C1378 1.367 . S
C1379 C1381 1.433 . S
C1380 C1376 1.350 1_655 S
C1380 C1377 1.463 1_655 S
C1380 N1384 1.427 . S
C1381 H1371 0.929 . S
C1381 C1379 1.433 . S
C1381 N1384 1.384 . S
C1382 H1373 0.929 . S
C1382 C1374 1.378 1_655 S
C1382 C1377 1.350 1_655 S
C1383 H1370 0.929 . S
C1383 C1375 1.433 . S
C1383 N1385 1.384 . S
N1384 C1380 1.427 . S
N1384 C1381 1.384 . S
N1385 C1377 1.427 . S
N1385 C1383 1.384 . S
H1386 C1392 0.930 . S
H1387 C1396 0.930 . S
H1388 C1401 0.929 . S
H1389 C1399 0.929 . S
H1390 C1394 0.929 . S
H1391 C1400 0.929 . S
C1392 H1386 0.930 . S
C1392 C1393 1.367 . S
C1392 C1400 1.378 . S
C1393 C1392 1.367 . S
C1393 C1401 1.433 . S
C1394 H1390 0.929 . S
C1394 C1396 1.378 . S
C1394 C1398 1.350 . S
C1395 C1398 1.463 . S
C1395 C1400 1.350 . S
C1395 N1403 1.427 . S
C1396 H1387 0.930 . S
C1396 C1394 1.378 . S
C1396 C1397 1.367 . S
C1397 C1396 1.367 . S
C1397 C1399 1.433 . S
C1398 C1394 1.350 . S
C1398 C1395 1.463 . S
C1398 N1402 1.427 . S
C1399 H1389 0.929 . S
C1399 C1397 1.433 . S
C1399 N1402 1.384 . S
C1400 H1391 0.929 . S
C1400 C1392 1.378 . S
C1400 C1395 1.350 . S
C1401 H1388 0.929 . S
C1401 C1393 1.433 . S
C1401 N1403 1.384 . S
N1402 C1398 1.427 . S
N1402 C1399 1.384 . S
N1403 C1395 1.427 . S
N1403 C1401 1.384 . S
H1404 C1410 0.930 . S
H1405 C1414 0.930 . S
H1406 C1419 0.937 . S
H1407 C1417 0.935 . S
H1408 C1412 0.929 . S
H1409 C1418 0.929 . S
C1410 H1404 0.930 . S
C1410 C1411 1.367 . S
C1410 C1418 1.378 . S
C1411 C1410 1.367 . S
C1411 C1419 1.433 . S
C1412 H1408 0.929 . S
C1412 C1414 1.378 . S
C1412 C1416 1.350 . S
C1413 C1416 1.463 1_565 S
C1413 C1418 1.350 . S
C1413 N1421 1.427 1_565 S
C1414 H1405 0.930 . S
C1414 C1412 1.378 . S
C1414 C1415 1.367 . S
C1415 C1414 1.367 . S
C1415 C1417 1.433 . S
C1416 C1412 1.350 . S
C1416 C1413 1.463 1_545 S
C1416 N1420 1.427 1_545 S
C1417 H1407 0.935 . S
C1417 C1415 1.433 . S
C1417 N1420 1.384 1_545 S
C1418 H1409 0.929 . S
C1418 C1410 1.378 . S
C1418 C1413 1.350 . S
C1419 H1406 0.937 . S
C1419 C1411 1.433 . S
C1419 N1421 1.384 1_565 S
N1420 C1416 1.427 1_565 S
N1420 C1417 1.384 1_565 S
N1421 C1413 1.427 1_545 S
N1421 C1419 1.384 1_545 S
H1422 C1428 0.930 . S
H1423 C1432 0.930 . S
H1424 C1437 0.929 1_545 S
H1425 C1435 0.929 1_565 S
H1426 C1430 0.929 . S
H1427 C1436 0.929 . S
C1428 H1422 0.930 . S
C1428 C1429 1.367 . S
C1428 C1436 1.378 . S
C1429 C1428 1.367 . S
C1429 C1437 1.433 . S
C1430 H1426 0.929 . S
C1430 C1432 1.378 . S
C1430 C1434 1.350 . S
C1431 C1434 1.463 1_565 S
C1431 C1436 1.350 . S
C1431 N1439 1.427 1_565 S
C1432 H1423 0.930 . S
C1432 C1430 1.378 . S
C1432 C1433 1.367 . S
C1433 C1432 1.367 . S
C1433 C1435 1.433 . S
C1434 C1430 1.350 . S
C1434 C1431 1.463 1_545 S
C1434 N1438 1.427 1_545 S
C1435 H1425 0.929 1_545 S
C1435 C1433 1.433 . S
C1435 N1438 1.384 1_545 S
C1436 H1427 0.929 . S
C1436 C1428 1.378 . S
C1436 C1431 1.350 . S
C1437 H1424 0.929 1_565 S
C1437 C1429 1.433 . S
C1437 N1439 1.384 1_565 S
N1438 C1434 1.427 1_565 S
N1438 C1435 1.384 1_565 S
N1439 C1431 1.427 1_545 S
N1439 C1437 1.384 1_545 S
H1440 C1446 0.930 . S
H1441 C1450 0.930 . S
H1442 C1455 0.929 . S
H1443 C1453 0.929 . S
H1444 C1448 0.929 . S
H1445 C1454 0.929 . S
C1446 H1440 0.930 . S
C1446 C1447 1.367 . S
C1446 C1454 1.378 . S
C1447 C1446 1.367 . S
C1447 C1455 1.433 . S
C1448 H1444 0.929 . S
C1448 C1450 1.378 . S
C1448 C1452 1.350 . S
C1449 C1452 1.463 1_655 S
C1449 C1454 1.350 . S
C1449 N1457 1.427 . S
C1450 H1441 0.930 . S
C1450 C1448 1.378 . S
C1450 C1451 1.367 . S
C1451 C1450 1.367 . S
C1451 C1453 1.433 . S
C1452 C1448 1.350 . S
C1452 C1449 1.463 1_455 S
C1452 N1456 1.427 . S
C1453 H1443 0.929 . S
C1453 C1451 1.433 . S
C1453 N1456 1.384 . S
C1454 H1445 0.929 . S
C1454 C1446 1.378 . S
C1454 C1449 1.350 . S
C1455 H1442 0.929 . S
C1455 C1447 1.433 . S
C1455 N1457 1.384 . S
N1456 C1452 1.427 . S
N1456 C1453 1.384 . S
N1457 C1449 1.427 . S
N1457 C1455 1.384 . S
H1458 C1464 0.930 . S
H1459 C1468 0.930 . S
H1460 C1473 0.929 . S
H1461 C1471 0.929 . S
H1462 C1466 0.929 . S
H1463 C1472 0.929 . S
C1464 H1458 0.930 . S
C1464 C1465 1.367 . S
C1464 C1472 1.378 . S
C1465 C1464 1.367 . S
C1465 C1473 1.433 . S
C1466 H1462 0.929 . S
C1466 C1468 1.378 . S
C1466 C1470 1.350 . S
C1467 C1470 1.463 . S
C1467 C1472 1.350 . S
C1467 N1475 1.427 . S
C1468 H1459 0.930 . S
C1468 C1466 1.378 . S
C1468 C1469 1.367 . S
C1469 C1468 1.367 . S
C1469 C1471 1.433 . S
C1470 C1466 1.350 . S
C1470 C1467 1.463 . S
C1470 N1474 1.427 . S
C1471 H1461 0.929 . S
C1471 C1469 1.433 . S
C1471 N1474 1.384 . S
C1472 H1463 0.929 . S
C1472 C1464 1.378 . S
C1472 C1467 1.350 . S
C1473 H1460 0.929 . S
C1473 C1465 1.433 . S
C1473 N1475 1.384 . S
N1474 C1470 1.427 . S
N1474 C1471 1.384 . S
N1475 C1467 1.427 . S
N1475 C1473 1.384 . S
H1476 C1482 0.930 . S
H1477 C1486 0.930 . S
H1478 C1491 0.929 . S
H1479 C1489 0.929 . S
H1480 C1484 0.929 . S
H1481 C1490 0.929 . S
C1482 H1476 0.930 . S
C1482 C1483 1.367 . S
C1482 C1490 1.378 . S
C1483 C1482 1.367 . S
C1483 C1491 1.433 . S
C1484 H1480 0.929 . S
C1484 C1486 1.378 . S
C1484 C1488 1.350 . S
C1485 C1488 1.463 . S
C1485 C1490 1.350 . S
C1485 N1493 1.427 . S
C1486 H1477 0.930 . S
C1486 C1484 1.378 . S
C1486 C1487 1.367 . S
C1487 C1486 1.367 . S
C1487 C1489 1.433 . S
C1488 C1484 1.350 . S
C1488 C1485 1.463 . S
C1488 N1492 1.427 . S
C1489 H1479 0.929 . S
C1489 C1487 1.433 . S
C1489 N1492 1.384 . S
C1490 H1481 0.929 . S
C1490 C1482 1.378 . S
C1490 C1485 1.350 . S
C1491 H1478 0.929 . S
C1491 C1483 1.433 . S
C1491 N1493 1.384 . S
N1492 C1488 1.427 . S
N1492 C1489 1.384 . S
N1493 C1485 1.427 . S
N1493 C1491 1.384 . S
H1494 C1500 0.930 . S
H1495 C1504 0.930 . S
H1496 C1509 0.929 . S
H1497 C1507 0.929 . S
H1498 C1502 0.929 . S
H1499 C1508 0.929 . S
C1500 H1494 0.930 . S
C1500 C1501 1.367 . S
C1500 C1508 1.378 . S
C1501 C1500 1.367 . S
C1501 C1509 1.433 . S
C1502 H1498 0.929 . S
C1502 C1504 1.378 . S
C1502 C1506 1.350 . S
C1503 C1506 1.463 . S
C1503 C1508 1.350 . S
C1503 N1511 1.427 . S
C1504 H1495 0.930 . S
C1504 C1502 1.378 . S
C1504 C1505 1.367 . S
C1505 C1504 1.367 . S
C1505 C1507 1.433 . S
C1506 C1502 1.350 . S
C1506 C1503 1.463 . S
C1506 N1510 1.427 . S
C1507 H1497 0.929 . S
C1507 C1505 1.433 . S
C1507 N1510 1.384 . S
C1508 H1499 0.929 . S
C1508 C1500 1.378 . S
C1508 C1503 1.350 . S
C1509 H1496 0.929 . S
C1509 C1501 1.433 . S
C1509 N1511 1.384 . S
N1510 C1506 1.427 . S
N1510 C1507 1.384 . S
N1511 C1503 1.427 . S
N1511 C1509 1.384 . S
H1512 C1518 0.930 . S
H1513 C1522 0.930 . S
H1514 C1527 0.929 . S
H1515 C1525 0.929 . S
H1516 C1520 0.929 . S
H1517 C1526 0.929 . S
C1518 H1512 0.930 . S
C1518 C1519 1.367 . S
C1518 C1526 1.378 . S
C1519 C1518 1.367 . S
C1519 C1527 1.433 . S
C1520 H1516 0.929 . S
C1520 C1522 1.378 . S
C1520 C1524 1.350 . S
C1521 C1524 1.463 . S
C1521 C1526 1.350 . S
C1521 N1529 1.427 . S
C1522 H1513 0.930 . S
C1522 C1520 1.378 . S
C1522 C1523 1.367 . S
C1523 C1522 1.367 . S
C1523 C1525 1.433 . S
C1524 C1520 1.350 . S
C1524 C1521 1.463 . S
C1524 N1528 1.427 . S
C1525 H1515 0.929 . S
C1525 C1523 1.433 . S
C1525 N1528 1.384 . S
C1526 H1517 0.929 . S
C1526 C1518 1.378 . S
C1526 C1521 1.350 . S
C1527 H1514 0.929 . S
C1527 C1519 1.433 . S
C1527 N1529 1.384 . S
N1528 C1524 1.427 . S
N1528 C1525 1.384 . S
N1529 C1521 1.427 . S
N1529 C1527 1.384 . S
H1530 C1536 0.930 . S
H1531 C1540 0.930 . S
H1532 C1545 0.929 . S
H1533 C1543 0.929 . S
H1534 C1538 0.929 . S
H1535 C1544 0.929 . S
C1536 H1530 0.930 . S
C1536 C1537 1.367 . S
C1536 C1544 1.378 . S
C1537 C1536 1.367 . S
C1537 C1545 1.433 . S
C1538 H1534 0.929 . S
C1538 C1540 1.378 . S
C1538 C1542 1.350 . S
C1539 C1542 1.463 . S
C1539 C1544 1.350 . S
C1539 N1547 1.427 . S
C1540 H1531 0.930 . S
C1540 C1538 1.378 . S
C1540 C1541 1.367 . S
C1541 C1540 1.367 . S
C1541 C1543 1.433 . S
C1542 C1538 1.350 . S
C1542 C1539 1.463 . S
C1542 N1546 1.427 . S
C1543 H1533 0.929 . S
C1543 C1541 1.433 . S
C1543 N1546 1.384 . S
C1544 H1535 0.929 . S
C1544 C1536 1.378 . S
C1544 C1539 1.350 . S
C1545 H1532 0.929 . S
C1545 C1537 1.433 . S
C1545 N1547 1.384 . S
N1546 C1542 1.427 . S
N1546 C1543 1.384 . S
N1547 C1539 1.427 . S
N1547 C1545 1.384 . S
H1548 C1554 0.930 . S
H1549 C1558 0.930 . S
H1550 C1563 0.929 . S
H1551 C1561 0.929 . S
H1552 C1556 0.929 . S
H1553 C1562 0.929 . S
C1554 H1548 0.930 . S
C1554 C1555 1.367 . S
C1554 C1562 1.378 . S
C1555 C1554 1.367 . S
C1555 C1563 1.433 . S
C1556 H1552 0.929 . S
C1556 C1558 1.378 . S
C1556 C1560 1.350 . S
C1557 C1560 1.463 . S
C1557 C1562 1.350 . S
C1557 N1565 1.427 . S
C1558 H1549 0.930 . S
C1558 C1556 1.378 . S
C1558 C1559 1.367 . S
C1559 C1558 1.367 . S
C1559 C1561 1.433 . S
C1560 C1556 1.350 . S
C1560 C1557 1.463 . S
C1560 N1564 1.427 . S
C1561 H1551 0.929 . S
C1561 C1559 1.433 . S
C1561 N1564 1.384 . S
C1562 H1553 0.929 . S
C1562 C1554 1.378 . S
C1562 C1557 1.350 . S
C1563 H1550 0.929 . S
C1563 C1555 1.433 . S
C1563 N1565 1.384 . S
N1564 C1560 1.427 . S
N1564 C1561 1.384 . S
N1565 C1557 1.427 . S
N1565 C1563 1.384 . S
H1566 C1572 0.930 . S
H1567 C1576 0.930 . S
H1568 C1581 0.929 . S
H1569 C1579 0.929 . S
H1570 C1574 0.929 . S
H1571 C1580 0.929 . S
C1572 H1566 0.930 . S
C1572 C1573 1.367 . S
C1572 C1580 1.378 . S
C1573 C1572 1.367 . S
C1573 C1581 1.433 . S
C1574 H1570 0.929 . S
C1574 C1576 1.378 . S
C1574 C1578 1.350 . S
C1575 C1578 1.463 . S
C1575 C1580 1.350 . S
C1575 N1583 1.427 . S
C1576 H1567 0.930 . S
C1576 C1574 1.378 . S
C1576 C1577 1.367 . S
C1577 C1576 1.367 . S
C1577 C1579 1.433 . S
C1578 C1574 1.350 . S
C1578 C1575 1.463 . S
C1578 N1582 1.427 . S
C1579 H1569 0.929 . S
C1579 C1577 1.433 . S
C1579 N1582 1.384 . S
C1580 H1571 0.929 . S
C1580 C1572 1.378 . S
C1580 C1575 1.350 . S
C1581 H1568 0.929 . S
C1581 C1573 1.433 . S
C1581 N1583 1.384 . S
N1582 C1578 1.427 . S
N1582 C1579 1.384 . S
N1583 C1575 1.427 . S
N1583 C1581 1.384 . S
H1584 C1590 0.930 . S
H1585 C1594 0.930 . S
H1586 C1599 0.929 . S
H1587 C1597 0.929 . S
H1588 C1592 0.929 . S
H1589 C1598 0.929 . S
C1590 H1584 0.930 . S
C1590 C1591 1.367 . S
C1590 C1598 1.378 . S
C1591 C1590 1.367 . S
C1591 C1599 1.433 . S
C1592 H1588 0.929 . S
C1592 C1594 1.378 . S
C1592 C1596 1.350 . S
C1593 C1596 1.463 . S
C1593 C1598 1.350 . S
C1593 N1601 1.427 . S
C1594 H1585 0.930 . S
C1594 C1592 1.378 . S
C1594 C1595 1.367 . S
C1595 C1594 1.367 . S
C1595 C1597 1.433 . S
C1596 C1592 1.350 . S
C1596 C1593 1.463 . S
C1596 N1600 1.427 . S
C1597 H1587 0.929 . S
C1597 C1595 1.433 . S
C1597 N1600 1.384 . S
C1598 H1589 0.929 . S
C1598 C1590 1.378 . S
C1598 C1593 1.350 . S
C1599 H1586 0.929 . S
C1599 C1591 1.433 . S
C1599 N1601 1.384 . S
N1600 C1596 1.427 . S
N1600 C1597 1.384 . S
N1601 C1593 1.427 . S
N1601 C1599 1.384 . S
H1602 C1608 0.930 . S
H1603 C1612 0.930 . S
H1604 C1617 0.929 . S
H1605 C1615 0.929 . S
H1606 C1610 0.929 . S
H1607 C1616 0.929 . S
C1608 H1602 0.930 . S
C1608 C1609 1.367 . S
C1608 C1616 1.378 . S
C1609 C1608 1.367 . S
C1609 C1617 1.433 . S
C1610 H1606 0.929 . S
C1610 C1612 1.378 . S
C1610 C1614 1.350 . S
C1611 C1614 1.463 . S
C1611 C1616 1.350 . S
C1611 N1619 1.427 . S
C1612 H1603 0.930 . S
C1612 C1610 1.378 . S
C1612 C1613 1.367 . S
C1613 C1612 1.367 . S
C1613 C1615 1.433 . S
C1614 C1610 1.350 . S
C1614 C1611 1.463 . S
C1614 N1618 1.427 . S
C1615 H1605 0.929 . S
C1615 C1613 1.433 . S
C1615 N1618 1.384 . S
C1616 H1607 0.929 . S
C1616 C1608 1.378 . S
C1616 C1611 1.350 . S
C1617 H1604 0.929 . S
C1617 C1609 1.433 . S
C1617 N1619 1.384 . S
N1618 C1614 1.427 . S
N1618 C1615 1.384 . S
N1619 C1611 1.427 . S
N1619 C1617 1.384 . S
H1620 C1626 0.930 . S
H1621 C1630 0.930 . S
H1622 C1635 0.929 . S
H1623 C1633 0.929 . S
H1624 C1628 0.929 . S
H1625 C1634 0.929 . S
C1626 H1620 0.930 . S
C1626 C1627 1.367 . S
C1626 C1634 1.378 . S
C1627 C1626 1.367 . S
C1627 C1635 1.433 . S
C1628 H1624 0.929 . S
C1628 C1630 1.378 . S
C1628 C1632 1.350 . S
C1629 C1632 1.463 . S
C1629 C1634 1.350 . S
C1629 N1637 1.427 . S
C1630 H1621 0.930 . S
C1630 C1628 1.378 . S
C1630 C1631 1.367 . S
C1631 C1630 1.367 . S
C1631 C1633 1.433 . S
C1632 C1628 1.350 . S
C1632 C1629 1.463 . S
C1632 N1636 1.427 . S
C1633 H1623 0.929 . S
C1633 C1631 1.433 . S
C1633 N1636 1.384 . S
C1634 H1625 0.929 . S
C1634 C1626 1.378 . S
C1634 C1629 1.350 . S
C1635 H1622 0.929 . S
C1635 C1627 1.433 . S
C1635 N1637 1.384 . S
N1636 C1632 1.427 . S
N1636 C1633 1.384 . S
N1637 C1629 1.427 . S
N1637 C1635 1.384 . S
H1638 C1644 0.930 . S
H1639 C1648 0.930 . S
H1640 C1653 0.929 . S
H1641 C1651 0.929 . S
H1642 C1646 0.929 . S
H1643 C1652 0.929 . S
C1644 H1638 0.930 . S
C1644 C1645 1.367 . S
C1644 C1652 1.378 . S
C1645 C1644 1.367 . S
C1645 C1653 1.433 . S
C1646 H1642 0.929 . S
C1646 C1648 1.378 . S
C1646 C1650 1.350 . S
C1647 C1650 1.463 . S
C1647 C1652 1.350 . S
C1647 N1655 1.427 . S
C1648 H1639 0.930 . S
C1648 C1646 1.378 . S
C1648 C1649 1.367 . S
C1649 C1648 1.367 . S
C1649 C1651 1.433 . S
C1650 C1646 1.350 . S
C1650 C1647 1.463 . S
C1650 N1654 1.427 . S
C1651 H1641 0.929 . S
C1651 C1649 1.433 . S
C1651 N1654 1.384 . S
C1652 H1643 0.929 . S
C1652 C1644 1.378 . S
C1652 C1647 1.350 . S
C1653 H1640 0.929 . S
C1653 C1645 1.433 . S
C1653 N1655 1.384 . S
N1654 C1650 1.427 . S
N1654 C1651 1.384 . S
N1655 C1647 1.427 . S
N1655 C1653 1.384 . S
H1656 C1662 0.930 . S
H1657 C1666 0.930 . S
H1658 C1671 0.929 . S
H1659 C1669 0.929 . S
H1660 C1664 0.929 . S
H1661 C1670 0.929 . S
C1662 H1656 0.930 . S
C1662 C1663 1.367 . S
C1662 C1670 1.378 . S
C1663 C1662 1.367 . S
C1663 C1671 1.433 . S
C1664 H1660 0.929 . S
C1664 C1666 1.378 . S
C1664 C1668 1.350 . S
C1665 C1668 1.463 . S
C1665 C1670 1.350 . S
C1665 N1673 1.427 . S
C1666 H1657 0.930 . S
C1666 C1664 1.378 . S
C1666 C1667 1.367 . S
C1667 C1666 1.367 . S
C1667 C1669 1.433 . S
C1668 C1664 1.350 . S
C1668 C1665 1.463 . S
C1668 N1672 1.427 . S
C1669 H1659 0.929 . S
C1669 C1667 1.433 . S
C1669 N1672 1.384 . S
C1670 H1661 0.929 . S
C1670 C1662 1.378 . S
C1670 C1665 1.350 . S
C1671 H1658 0.929 . S
C1671 C1663 1.433 . S
C1671 N1673 1.384 . S
N1672 C1668 1.427 . S
N1672 C1669 1.384 . S
N1673 C1665 1.427 . S
N1673 C1671 1.384 . S
H1674 C1680 0.930 . S
H1675 C1684 0.930 . S
H1676 C1689 0.929 . S
H1677 C1687 0.929 . S
H1678 C1682 0.929 . S
H1679 C1688 0.929 . S
C1680 H1674 0.930 . S
C1680 C1681 1.367 . S
C1680 C1688 1.378 . S
C1681 C1680 1.367 . S
C1681 C1689 1.433 . S
C1682 H1678 0.929 . S
C1682 C1684 1.378 . S
C1682 C1686 1.350 . S
C1683 C1686 1.463 . S
C1683 C1688 1.350 . S
C1683 N1691 1.427 . S
C1684 H1675 0.930 . S
C1684 C1682 1.378 . S
C1684 C1685 1.367 . S
C1685 C1684 1.367 . S
C1685 C1687 1.433 . S
C1686 C1682 1.350 . S
C1686 C1683 1.463 . S
C1686 N1690 1.427 . S
C1687 H1677 0.929 . S
C1687 C1685 1.433 . S
C1687 N1690 1.384 . S
C1688 H1679 0.929 . S
C1688 C1680 1.378 . S
C1688 C1683 1.350 . S
C1689 H1676 0.929 . S
C1689 C1681 1.433 . S
C1689 N1691 1.384 . S
N1690 C1686 1.427 . S
N1690 C1687 1.384 . S
N1691 C1683 1.427 . S
N1691 C1689 1.384 . S
H1692 C1698 0.930 . S
H1693 C1702 0.930 . S
H1694 C1707 0.929 . S
H1695 C1705 0.929 . S
H1696 C1700 0.929 . S
H1697 C1706 0.929 . S
C1698 H1692 0.930 . S
C1698 C1699 1.367 . S
C1698 C1706 1.378 . S
C1699 C1698 1.367 . S
C1699 C1707 1.433 . S
C1700 H1696 0.929 . S
C1700 C1702 1.378 . S
C1700 C1704 1.350 . S
C1701 C1704 1.463 1_456 S
C1701 C1706 1.350 . S
C1701 N1709 1.427 . S
C1702 H1693 0.930 . S
C1702 C1700 1.378 . S
C1702 C1703 1.367 . S
C1703 C1702 1.367 . S
C1703 C1705 1.433 . S
C1704 C1700 1.350 . S
C1704 C1701 1.463 1_654 S
C1704 N1708 1.427 . S
C1705 H1695 0.929 . S
C1705 C1703 1.433 . S
C1705 N1708 1.384 . S
C1706 H1697 0.929 . S
C1706 C1698 1.378 . S
C1706 C1701 1.350 . S
C1707 H1694 0.929 . S
C1707 C1699 1.433 . S
C1707 N1709 1.384 . S
N1708 C1704 1.427 . S
N1708 C1705 1.384 . S
N1709 C1701 1.427 . S
N1709 C1707 1.384 . S
H1710 C1716 0.930 . S
H1711 C1720 0.930 . S
H1712 C1725 0.929 . S
H1713 C1723 0.929 . S
H1714 C1718 0.929 . S
H1715 C1724 0.929 . S
C1716 H1710 0.930 . S
C1716 C1717 1.367 . S
C1716 C1724 1.378 . S
C1717 C1716 1.367 . S
C1717 C1725 1.433 . S
C1718 H1714 0.929 . S
C1718 C1720 1.378 . S
C1718 C1722 1.350 . S
C1719 C1722 1.463 1_554 S
C1719 C1724 1.350 . S
C1719 N1727 1.427 . S
C1720 H1711 0.930 . S
C1720 C1718 1.378 . S
C1720 C1721 1.367 . S
C1721 C1720 1.367 . S
C1721 C1723 1.433 . S
C1722 C1718 1.350 . S
C1722 C1719 1.463 1_556 S
C1722 N1726 1.427 . S
C1723 H1713 0.929 . S
C1723 C1721 1.433 . S
C1723 N1726 1.384 . S
C1724 H1715 0.929 . S
C1724 C1716 1.378 . S
C1724 C1719 1.350 . S
C1725 H1712 0.929 . S
C1725 C1717 1.433 . S
C1725 N1727 1.384 . S
N1726 C1722 1.427 . S
N1726 C1723 1.384 . S
N1727 C1719 1.427 . S
N1727 C1725 1.384 . S
H1728 C1734 0.930 . S
H1729 C1738 0.930 . S
H1730 C1743 0.929 . S
H1731 C1741 0.929 . S
H1732 C1736 0.929 . S
H1733 C1742 0.929 . S
C1734 H1728 0.930 . S
C1734 C1735 1.367 . S
C1734 C1742 1.378 . S
C1735 C1734 1.367 . S
C1735 C1743 1.433 . S
C1736 H1732 0.929 . S
C1736 C1738 1.378 . S
C1736 C1740 1.350 . S
C1737 C1740 1.463 1_544 S
C1737 C1742 1.350 . S
C1737 N1745 1.427 1_545 S
C1738 H1729 0.930 . S
C1738 C1736 1.378 . S
C1738 C1739 1.367 . S
C1739 C1738 1.367 . S
C1739 C1741 1.433 . S
C1740 C1736 1.350 . S
C1740 C1737 1.463 1_566 S
C1740 N1744 1.427 1_565 S
C1741 H1731 0.929 . S
C1741 C1739 1.433 . S
C1741 N1744 1.384 1_565 S
C1742 H1733 0.929 . S
C1742 C1734 1.378 . S
C1742 C1737 1.350 . S
C1743 H1730 0.929 . S
C1743 C1735 1.433 . S
C1743 N1745 1.384 1_545 S
N1744 C1740 1.427 1_545 S
N1744 C1741 1.384 1_545 S
N1745 C1737 1.427 1_565 S
N1745 C1743 1.384 1_565 S
H1746 C1752 0.930 . S
H1747 C1756 0.930 . S
H1748 C1761 0.929 . S
H1749 C1759 0.929 . S
H1750 C1754 0.858 1_565 S
H1751 C1760 0.869 1_545 S
C1752 H1746 0.930 . S
C1752 C1753 1.367 . S
C1752 C1760 1.405 . S
C1753 C1752 1.367 . S
C1753 C1761 1.433 . S
C1754 H1750 0.858 1_545 S
C1754 C1756 1.411 . S
C1754 C1758 1.392 . S
C1755 C1758 1.463 1_566 S
C1755 C1760 1.385 . S
C1755 N1763 1.427 . S
C1756 H1747 0.930 . S
C1756 C1754 1.411 . S
C1756 C1757 1.367 . S
C1757 C1756 1.367 . S
C1757 C1759 1.433 . S
C1758 C1754 1.392 . S
C1758 C1755 1.463 1_544 S
C1758 N1762 1.427 . S
C1759 H1749 0.929 . S
C1759 C1757 1.433 . S
C1759 N1762 1.384 . S
C1760 H1751 0.869 1_565 S
C1760 C1752 1.405 . S
C1760 C1755 1.385 . S
C1761 H1748 0.929 . S
C1761 C1753 1.433 . S
C1761 N1763 1.384 . S
N1762 C1758 1.427 . S
N1762 C1759 1.384 . S
N1763 C1755 1.427 . S
N1763 C1761 1.384 . S
H1764 C1770 0.930 1_655 S
H1765 C1774 0.930 1_455 S
H1766 C1779 0.929 . S
H1767 C1777 0.929 . S
H1768 C1772 0.929 . S
H1769 C1778 0.929 . S
C1770 H1764 0.930 1_455 S
C1770 C1771 1.367 . S
C1770 C1778 1.378 1_455 S
C1771 C1770 1.367 . S
C1771 C1779 1.433 . S
C1772 H1768 0.929 . S
C1772 C1774 1.378 1_455 S
C1772 C1776 1.350 1_455 S
C1773 C1776 1.463 1_456 S
C1773 C1778 1.350 1_455 S
C1773 N1781 1.427 . S
C1774 H1765 0.930 1_655 S
C1774 C1772 1.378 1_655 S
C1774 C1775 1.367 . S
C1775 C1774 1.367 . S
C1775 C1777 1.433 . S
C1776 C1772 1.350 1_655 S
C1776 C1773 1.463 1_654 S
C1776 N1780 1.427 . S
C1777 H1767 0.929 . S
C1777 C1775 1.433 . S
C1777 N1780 1.384 . S
C1778 H1769 0.929 . S
C1778 C1770 1.378 1_655 S
C1778 C1773 1.350 1_655 S
C1779 H1766 0.929 . S
C1779 C1771 1.433 . S
C1779 N1781 1.384 . S
N1780 C1776 1.427 . S
N1780 C1777 1.384 . S
N1781 C1773 1.427 . S
N1781 C1779 1.384 . S
H1782 C1788 0.930 . S
H1783 C1792 0.930 . S
H1784 C1797 0.929 . S
H1785 C1795 0.929 . S
H1786 C1790 0.929 . S
H1787 C1796 0.929 . S
C1788 H1782 0.930 . S
C1788 C1789 1.367 . S
C1788 C1796 1.378 . S
C1789 C1788 1.367 . S
C1789 C1797 1.433 . S
C1790 H1786 0.929 . S
C1790 C1792 1.378 . S
C1790 C1794 1.350 . S
C1791 C1794 1.463 1_554 S
C1791 C1796 1.350 . S
C1791 N1799 1.427 . S
C1792 H1783 0.930 . S
C1792 C1790 1.378 . S
C1792 C1793 1.367 . S
C1793 C1792 1.367 . S
C1793 C1795 1.433 . S
C1794 C1790 1.350 . S
C1794 C1791 1.463 1_556 S
C1794 N1798 1.427 . S
C1795 H1785 0.929 . S
C1795 C1793 1.433 . S
C1795 N1798 1.384 . S
C1796 H1787 0.929 . S
C1796 C1788 1.378 . S
C1796 C1791 1.350 . S
C1797 H1784 0.929 . S
C1797 C1789 1.433 . S
C1797 N1799 1.384 . S
N1798 C1794 1.427 . S
N1798 C1795 1.384 . S
N1799 C1791 1.427 . S
N1799 C1797 1.384 . S
C511 C5 1.328 . S
C515 C159 1.336 . S
C529 C19 1.335 . S
C533 C131 1.329 . S
C547 C145 1.335 . S
C551 C33 1.331 . S
C565 C47 1.328 . S
C569 C103 1.336 . S
C583 C117 1.330 . S
C587 C61 1.336 . S
C601 C75 1.335 . S
C605 C89 1.329 . S
C619 C327 1.329 . S
C623 C173 1.335 . S
C637 C187 1.330 . S
C641 C299 1.334 . S
C655 C201 1.330 . S
C659 C313 1.335 . S
C673 C271 1.330 . S
C677 C215 1.334 . S
C691 C229 1.330 . S
C695 C285 1.336 . S
C709 C257 1.333 . S
C713 C243 1.331 . S
C727 C341 1.332 . S
C731 C495 1.332 . S
C745 C467 1.332 . S
C749 C355 1.332 . S
C763 C481 1.335 . S
C767 C369 1.331 . S
C781 C439 1.335 . S
C785 C383 1.329 . S
C799 C453 1.333 . S
C803 C397 1.333 . S
C817 C425 1.334 . S
C821 C411 1.330 . S
C835 C11 1.356 . S
C839 C67 1.355 . S
C853 C81 1.361 . S
C857 C25 1.360 . S
C871 C39 1.357 . S
C875 C53 1.356 . S
C889 C95 1.355 . S
C893 C151 1.356 . S
C907 C109 1.362 . S
C911 C165 1.362 . S
C925 C123 1.363 . S
C929 C137 1.362 . S
C943 C235 1.360 . S
C947 C179 1.361 . S
C961 C249 1.362 . S
C965 C193 1.361 . S
C979 C207 1.357 . S
C983 C221 1.355 . S
C997 C319 1.354 . S
C1001 C263 1.354 . S
C1015 C333 1.354 . S
C1019 C277 1.355 . S
C1033 C291 1.362 . S
C1037 C305 1.361 . S
C1051 C403 1.361 . S
C1055 C347 1.362 . S
C1069 C361 1.353 . S
C1073 C417 1.354 . S
C1087 C375 1.355 . S
C1091 C389 1.354 . S
C1105 C487 1.354 . S
C1109 C431 1.354 . S
C1123 C445 1.352 . S
C1127 C501 1.352 . S
C1141 C473 1.363 . S
C1145 C459 1.363 . S
C1159 C415 1.046 . S
C1163 C9 1.046 . S
C1177 C23 1.047 . S
C1181 C387 1.047 . S
C1195 C37 1.052 . S
C1199 C401 1.051 . S
C1213 C51 1.051 . S
C1217 C191 1.051 . S
C1231 C205 1.051 . S
C1235 C65 1.050 . S
C1249 C177 1.053 . S
C1253 C79 1.053 . S
C1267 C93 1.047 . S
C1271 C331 1.046 . S
C1285 C107 1.050 . S
C1289 C303 1.051 . S
C1303 C121 1.047 . S
C1307 C317 1.047 . S
C1321 C443 1.049 . S
C1325 C135 1.050 . S
C1339 C457 1.047 . S
C1343 C149 1.048 . S
C1357 C163 1.053 . S
C1361 C429 1.053 . S
C1375 C359 1.053 . S
C1379 C219 1.053 . S
C1393 C233 1.050 . S
C1397 C373 1.051 . S
C1411 C345 1.046 . S
C1415 C247 1.047 . S
C1429 C499 1.046 . S
C1433 C261 1.047 . S
C1447 C275 1.050 . S
C1451 C471 1.049 . S
C1465 C289 1.054 . S
C1469 C485 1.053 . S
C1483 C0 1.686 . S
C1487 C406 1.686 . S
C1501 C378 1.685 . S
C1505 C14 1.687 . S
C1519 C28 1.685 . S
C1523 C392 1.688 . S
C1537 C182 1.693 . S
C1541 C42 1.690 . S
C1555 C56 1.685 . S
C1559 C196 1.689 . S
C1573 C70 1.686 . S
C1577 C168 1.685 . S
C1591 C322 1.685 . S
C1595 C84 1.690 . S
C1609 C98 1.688 . S
C1613 C294 1.693 . S
C1627 C112 1.686 . S
C1631 C308 1.692 . S
C1645 C126 1.693 . S
C1649 C434 1.687 . S
C1663 C448 1.686 . S
C1667 C140 1.692 . S
C1681 C154 1.693 . S
C1685 C420 1.687 . S
C1699 C350 1.692 . S
C1703 C210 1.686 . S
C1717 C224 1.693 . S
C1721 C364 1.687 . S
C1735 C238 1.689 . S
C1739 C336 1.693 . S
C1753 C490 1.685 . S
C1757 C252 1.690 . S
C1771 C462 1.685 . S
C1775 C266 1.687 . S
C1789 C280 1.686 . S
C1793 C476 1.692 . S
