# Generated by pormake.
# Topology afw, (4)-cn, num edge types: 1
# Building blocks:
#     Node 0, Type 0, BuildingBlock: ESEHIV_clean_sbu_0, # of connection points: 4
#     Node 1, Type 0, BuildingBlock: ESEHIV_clean_sbu_0, # of connection points: 4
#     Node 2, Type 0, BuildingBlock: ESEHIV_clean_sbu_0, # of connection points: 4
#     Node 3, Type 0, BuildingBlock: ESEHIV_clean_sbu_0, # of connection points: 4
#     Node 4, Type 0, BuildingBlock: ESEHIV_clean_sbu_0, # of connection points: 4
#     Node 5, Type 0, BuildingBlock: ESEHIV_clean_sbu_0, # of connection points: 4
#     Node 6, Type 0, BuildingBlock: ESEHIV_clean_sbu_0, # of connection points: 4
#     Node 7, Type 0, BuildingBlock: ESEHIV_clean_sbu_0, # of connection points: 4
#     Node 8, Type 0, BuildingBlock: ESEHIV_clean_sbu_0, # of connection points: 4
#     Edge 9, Type (0, 0), BuildingBlock: XIVTED_clean_linker_0, # of connection points: 2
#     Edge 10, Type (0, 0), BuildingBlock: XIVTED_clean_linker_0, # of connection points: 2
#     Edge 11, Type (0, 0), BuildingBlock: XIVTED_clean_linker_0, # of connection points: 2
#     Edge 12, Type (0, 0), BuildingBlock: XIVTED_clean_linker_0, # of connection points: 2
#     Edge 13, Type (0, 0), BuildingBlock: XIVTED_clean_linker_0, # of connection points: 2
#     Edge 14, Type (0, 0), BuildingBlock: XIVTED_clean_linker_0, # of connection points: 2
#     Edge 15, Type (0, 0), BuildingBlock: XIVTED_clean_linker_0, # of connection points: 2
#     Edge 16, Type (0, 0), BuildingBlock: XIVTED_clean_linker_0, # of connection points: 2
#     Edge 17, Type (0, 0), BuildingBlock: XIVTED_clean_linker_0, # of connection points: 2
#     Edge 18, Type (0, 0), BuildingBlock: XIVTED_clean_linker_0, # of connection points: 2
#     Edge 19, Type (0, 0), BuildingBlock: XIVTED_clean_linker_0, # of connection points: 2
#     Edge 20, Type (0, 0), BuildingBlock: XIVTED_clean_linker_0, # of connection points: 2
#     Edge 21, Type (0, 0), BuildingBlock: XIVTED_clean_linker_0, # of connection points: 2
#     Edge 22, Type (0, 0), BuildingBlock: XIVTED_clean_linker_0, # of connection points: 2
#     Edge 23, Type (0, 0), BuildingBlock: XIVTED_clean_linker_0, # of connection points: 2
#     Edge 24, Type (0, 0), BuildingBlock: XIVTED_clean_linker_0, # of connection points: 2
#     Edge 25, Type (0, 0), BuildingBlock: XIVTED_clean_linker_0, # of connection points: 2
#     Edge 26, Type (0, 0), BuildingBlock: XIVTED_clean_linker_0, # of connection points: 2
# Relax obj value: 0.053
# Max RMSD: 0.171
# Mean RMSD: 0.158
data_MOF--net-afw--node1-ESEHIV_clean_sbu_0--edge1-XIVTED_clean_linker_0
_symmetry_space_group_name_H-M    P1
_symmetry_Int_Tables_number       1
_symmetry_cell_setting            triclinic
loop_
_symmetry_equiv_pos_as_xyz
'x, y, z'
_cell_length_a     49.668566
_cell_length_b     54.453688
_cell_length_c     20.667281
_cell_angle_alpha  96.890953
_cell_angle_beta   91.254432
_cell_angle_gamma 118.14086
loop_
_atom_site_label
_atom_site_type_symbol
_atom_site_fract_x
_atom_site_fract_y
_atom_site_fract_z
_atom_type_partial_charge
Cu0 Cu 0.0294 0.20737 0.12017 0.0
N1 N 0.99473 0.17241 0.09457 0.0
N2 N 0.96276 0.12625 0.08966 0.0
C3 C 0.99185 0.14729 0.10442 0.0
C4 C 0.9468 0.13875 0.06959 0.0
C5 C 0.96651 0.16719 0.07306 0.0
O6 O 0.06334 0.19897 0.12382 0.0
C7 C 0.03298 0.24735 0.23243 0.0
O8 O 0.05841 0.26626 0.2125 0.0
H9 H 1.0104 0.14482 0.12558 0.0
H10 H 0.96043 0.1831 0.06327 0.0
N11 N 0.03561 0.23112 0.05649 0.0
N12 N 0.05627 0.26815 0.00149 0.0
C13 C 0.05848 0.25763 0.05645 0.0
C14 C 1.01863 0.22452 -0.00075 0.0
C15 C 0.03115 0.24717 0.9655 0.0
C16 C 0.07642 0.19588 0.17346 0.0
O17 O 0.06957 0.2016 0.23242 0.0
H18 H 0.07645 0.26883 0.09583 0.0
H19 H 0.99879 0.2044 0.9824 0.0
O20 O 1.01987 0.22221 0.20234 0.0
H21 H 0.92247 0.12827 0.05487 0.0
H22 H 1.02263 0.24771 0.91738 0.0
Cu23 Cu 0.87765 0.8501 0.12881 0.0
N24 N 0.87494 0.88264 0.15903 0.0
N25 N 0.88304 0.92706 0.16825 0.0
C26 C 0.89263 0.90863 0.14391 0.0
C27 C 0.85844 0.91201 0.20036 0.0
C28 C 0.85352 0.88467 0.19456 0.0
O29 O 0.92044 0.86201 0.11378 0.0
C30 C 0.83157 0.83755 0.02582 0.0
O31 O 0.84032 0.8646 0.03734 0.0
H32 H 0.9113 0.9136 0.11315 0.0
H33 H 0.8351 0.86728 0.2133 0.0
N34 N 0.86786 0.82667 0.1933 0.0
N35 N 0.85326 0.7875 0.23914 0.0
C36 C 0.85918 0.79894 0.18307 0.0
C37 C 0.86755 0.83319 0.25798 0.0
C38 C 0.85854 0.80913 0.28637 0.0
C39 C 0.93455 0.87475 0.06743 0.0
O40 O 0.91902 0.8778 0.0196 0.0
H41 H 0.85756 0.78758 0.13523 0.0
H42 H 0.87334 0.85394 0.28272 0.0
O43 O 0.84679 0.828 0.05487 0.0
H44 H 0.84472 0.92005 0.22565 0.0
H45 H 0.85573 0.80776 0.33778 0.0
Cu46 Cu 0.22115 0.03341 0.08053 0.0
N47 N 0.23643 0.02452 0.00432 0.0
N48 N 0.25909 1.00676 0.93493 0.0
C49 C 0.2544 0.01209 -0.00185 0.0
C50 C 0.24358 0.01638 0.90033 0.0
C51 C 0.22971 0.02732 0.94318 0.0
O52 O 0.25028 0.03942 0.15375 0.0
C53 C 0.16329 0.99863 0.1304 0.0
O54 O 0.17568 0.01417 0.18752 0.0
H55 H 0.26292 1.00616 0.03892 0.0
H56 H 0.2152 0.03618 0.93061 0.0
N57 N 0.21972 0.06707 0.07776 0.0
N58 N 0.20412 0.09962 0.0912 0.0
C59 C 0.19571 0.07192 0.08685 0.0
C60 C 0.24395 0.09248 0.07558 0.0
C61 C 0.23444 0.1126 0.08416 0.0
C62 C 0.25706 0.05837 0.20319 0.0
O63 O 0.24032 0.07113 0.21132 0.0
H64 H 0.17291 0.05572 0.09341 0.0
H65 H 0.26717 0.09619 0.0709 0.0
O66 O 0.17936 1.00308 0.08171 0.0
H67 H 0.24219 0.01542 0.84767 0.0
H68 H 0.24876 0.13508 0.08607 0.0
Cu69 Cu 0.732 0.51936 0.3817 0.0
N70 N 0.70045 0.48806 0.32931 0.0
N71 N 0.66945 0.44313 0.28578 0.0
C72 C 0.69315 0.46094 0.33023 0.0
C73 C 0.66172 0.45993 0.2557 0.0
C74 C 0.6809 0.48758 0.28254 0.0
O75 O 0.75577 0.50568 0.42814 0.0
C76 C 0.68772 0.53031 0.44985 0.0
O77 O 0.6676 0.50415 0.42707 0.0
H78 H 0.7054 0.45459 0.36246 0.0
H79 H 0.6806 0.50605 0.26912 0.0
N80 N 0.75631 0.5452 0.32816 0.0
N81 N 0.78041 0.58576 0.28758 0.0
C82 C 0.76486 0.5729 0.33699 0.0
C83 C 0.76681 0.54026 0.27132 0.0
C84 C 0.78168 0.56525 0.24611 0.0
C85 C 0.78468 0.51937 0.44226 0.0
O86 O 0.79984 0.54539 0.43008 0.0
H87 H 0.75883 0.58318 0.37782 0.0
H88 H 0.76335 0.51983 0.24923 0.0
O89 O 0.7158 0.53932 0.43958 0.0
H90 H 0.64329 0.45287 0.21759 0.0
H91 H 0.79248 0.56803 0.20068 0.0
Cu92 Cu 0.53608 0.16482 0.30539 0.0
N93 N 0.54443 0.18983 0.24464 0.0
N94 N 0.56518 0.23276 0.21457 0.0
C95 C 0.56027 0.21775 0.26449 0.0
C96 C 0.55157 0.21336 0.16063 0.0
C97 C 0.53891 0.1868 0.1793 0.0
O98 O 0.5755 0.18133 0.35765 0.0
C99 C 0.4772 0.1552 0.30972 0.0
O100 O 0.48054 0.15472 0.24688 0.0
H101 H 0.56787 0.22681 0.31529 0.0
H102 H 0.52667 0.16689 0.14749 0.0
N103 N 0.52444 0.12733 0.27254 0.0
N104 N 0.50393 0.08129 0.27889 0.0
C105 C 0.51535 0.10752 0.31223 0.0
C106 C 0.51869 0.11326 0.2114 0.0
C107 C 0.50601 0.08478 0.2152 0.0
C108 C 0.59587 0.17756 0.32817 0.0
O109 O 0.58734 0.16012 0.27289 0.0
H110 H 0.51553 0.1123 0.36465 0.0
H111 H 0.52238 0.12279 0.16724 0.0
O112 O 0.5003 0.16135 0.34927 0.0
H113 H 0.55122 0.21796 0.1112 0.0
H114 H 0.4984 0.06799 0.1742 0.0
Cu115 Cu 0.90113 0.36455 0.43779 0.0
N116 N 0.93731 0.38725 0.40171 0.0
N117 N 0.98822 0.41088 0.39867 0.0
C118 C 0.96484 0.39374 0.43056 0.0
C119 C 0.97487 0.41569 0.3475 0.0
C120 C 0.9433 0.40087 0.34925 0.0
O121 O 0.91328 0.34085 0.48151 0.0
C122 C 0.90079 0.41458 0.49822 0.0
O123 O 0.92905 0.42785 0.48213 0.0
H124 H 0.96764 0.3868 0.47591 0.0
H125 H 0.92608 0.40041 0.31544 0.0
N126 N 0.8682 0.34168 0.37548 0.0
N127 N 0.81959 0.31067 0.33933 0.0
C128 C 0.83874 0.32955 0.38963 0.0
C129 C 0.86782 0.33047 0.31363 0.0
C130 C 0.83781 0.31127 0.29119 0.0
C131 C 0.90195 0.31447 0.46242 0.0
O132 O 0.87388 0.30044 0.43409 0.0
H133 H 0.83184 0.33311 0.43766 0.0
H134 H 0.88799 0.33491 0.28796 0.0
O135 O 0.88698 0.38773 0.49112 0.0
H136 H 0.98699 0.42892 0.31158 0.0
H137 H 0.83018 0.29817 0.24385 0.0
Cu138 Cu 0.37199 0.86443 0.6434 0.0
N139 N 0.33889 0.82785 0.62879 0.0
N140 N 0.30846 0.78221 0.63482 0.0
C141 C 0.33725 0.80406 0.64577 0.0
C142 C 0.2915 0.79264 0.60889 0.0
C143 C 0.3103 0.82071 0.60529 0.0
O144 O 0.40837 0.86274 0.67476 0.0
C145 C 0.37269 0.90761 0.7453 0.0
O146 O 0.40167 0.91601 0.76254 0.0
H147 H 0.35645 0.803 0.66816 0.0
H148 H 0.30345 0.83521 0.58866 0.0
N149 N 0.37978 0.87826 0.56346 0.0
N150 N 0.39778 0.90744 0.48867 0.0
C151 C 0.39633 0.90522 0.55325 0.0
C152 C 0.3705 0.86288 0.50361 0.0
C153 C 0.38149 0.88074 0.45748 0.0
C154 C 0.41026 0.85094 0.72301 0.0
O155 O 0.38831 0.843 0.76265 0.0
H156 H 0.40692 0.92279 0.59252 0.0
H157 H 0.35695 0.84018 0.49423 0.0
O158 O 0.35829 0.88707 0.69949 0.0
H159 H 0.26712 0.78101 0.5946 0.0
H160 H 0.37822 0.87439 0.40503 0.0
Cu161 Cu 0.22871 0.517 0.75632 0.0
N162 N 0.22458 0.54932 0.77699 0.0
N163 N 0.23127 0.5928 0.77476 0.0
C164 C 0.242 0.57451 0.75776 0.0
C165 C 0.20631 0.57856 0.80673 0.0
C166 C 0.20227 0.55176 0.80802 0.0
O167 O 0.27257 0.52979 0.75312 0.0
C168 C 0.19683 0.50687 0.63124 0.0
O169 O 0.21291 0.53427 0.63353 0.0
H170 H 0.26117 0.57876 0.72875 0.0
H171 H 0.18387 0.53496 0.82841 0.0
N172 N 0.21524 0.49509 0.82397 0.0
N173 N 0.19164 0.45866 0.87936 0.0
C174 C 0.19463 0.46753 0.82012 0.0
C175 C 0.22547 0.50396 0.88758 0.0
C176 C 0.21103 0.48163 0.92179 0.0
C177 C 0.28832 0.53917 0.70544 0.0
O178 O 0.27431 0.53781 0.64943 0.0
H179 H 0.18261 0.45417 0.77463 0.0
H180 H 0.24243 0.52522 0.90755 0.0
O181 O 0.20217 0.49527 0.67636 0.0
H182 H 0.19168 0.5867 0.82688 0.0
H183 H 0.21441 0.48238 0.97404 0.0
Cu184 Cu 0.5726 0.70245 0.7129 0.0
N185 N 0.58962 0.69049 0.64369 0.0
N186 N 0.60984 0.66635 0.58729 0.0
C187 C 0.59222 0.66674 0.63593 0.0
C188 C 0.61806 0.69051 0.5626 0.0
C189 C 0.60553 0.70527 0.59726 0.0
O190 O 0.60326 0.71784 0.78835 0.0
C191 C 0.51536 0.66981 0.76762 0.0
O192 O 0.52542 0.69046 0.81694 0.0
H193 H 0.5828 0.65081 0.66773 0.0
H194 H 0.60881 0.72582 0.59044 0.0
N195 N 0.56689 0.7327 0.69424 0.0
N196 N 0.54778 0.76259 0.69083 0.0
C197 C 0.54203 0.73649 0.70102 0.0
C198 C 0.58908 0.75728 0.68011 0.0
C199 C 0.57738 0.77559 0.67744 0.0
C200 C 0.61977 0.70712 0.80541 0.0
O201 O 0.61262 0.68135 0.77959 0.0
H202 H 0.52043 0.72068 0.71455 0.0
H203 H 0.6126 0.76203 0.67511 0.0
O204 O 0.53272 0.6708 0.72246 0.0
H205 H 0.63269 0.69737 0.52325 0.0
H206 H 0.59019 0.79728 0.66934 0.0
H207 H 0.14542 0.08066 0.04345 0.0
H208 H 0.12214 0.19961 0.25838 0.0
H209 H 0.21983 0.14875 0.16989 0.0
H210 H 0.0756 0.16125 0.06567 0.0
H211 H 0.15358 0.17588 0.23981 0.0
H212 H 0.11421 0.10441 0.06463 0.0
C213 C 0.15505 0.10051 0.07597 0.0
C214 C 0.18524 0.11288 0.10464 0.0
C215 C 0.13651 0.17281 0.20168 0.0
C216 C 0.14972 0.1399 0.12979 0.0
C217 C 0.11857 0.18627 0.21225 0.0
C218 C 0.09641 0.1826 0.16331 0.0
C219 C 0.13162 0.15497 0.14253 0.0
C220 C 0.09266 0.16496 0.10448 0.0
C221 C 0.13737 0.1141 0.08775 0.0
C222 C 0.19676 0.13872 0.14625 0.0
N223 N 0.10986 0.15162 0.09598 0.0
N224 N 0.17893 0.1513 0.15799 0.0
H225 H 0.94104 0.96277 0.14203 0.0
H226 H 0.9042 0.08938 0.11016 0.0
H227 H 0.85289 0.95786 0.17016 0.0
H228 H 0.9939 0.09642 0.09216 0.0
H229 H 0.88481 0.04079 0.12909 0.0
H230 H 0.96063 1.0113 0.12137 0.0
C231 C 0.92574 0.97181 0.14371 0.0
C232 C 0.8952 0.95606 0.15788 0.0
C233 C 0.90874 0.05293 0.12096 0.0
C234 C 0.91761 1.01185 0.13452 0.0
C235 C 0.91983 0.08071 0.10962 0.0
C236 C 0.95081 0.09719 0.09941 0.0
C237 C 0.92868 0.04132 0.12199 0.0
C238 C 0.96996 0.08472 0.10047 0.0
C239 C 0.93701 0.99962 0.13218 0.0
C240 C 0.87665 0.96917 0.16026 0.0
N241 N 0.9586 0.05759 0.11149 0.0
N242 N 0.88811 0.9962 0.14854 0.0
H243 H 0.97306 0.90008 0.97435 0.0
H244 H 0.1236 0.97747 0.22441 0.0
H245 H 0.974 0.884 0.17362 0.0
H246 H 0.12706 0.97231 0.01502 0.0
H247 H 0.0684 0.94503 0.20757 0.0
H248 H 0.02909 0.92818 0.98848 0.0
C249 C 0.98501 0.90223 0.02087 0.0
C250 C 0.96867 0.8896 0.07281 0.0
C251 C 0.08128 0.95084 0.1653 0.0
C252 C 0.03287 0.92217 0.08967 0.0
C253 C 0.11282 0.96943 0.17489 0.0
C254 C 0.1301 0.97768 0.1211 0.0
C255 C 0.0667 0.94071 0.10144 0.0
C256 C 0.11476 0.9665 0.05802 0.0
C257 C 1.01703 0.91829 0.0289 0.0
C258 C 0.98552 0.89322 0.13205 0.0
N259 N 0.08397 0.94882 0.04997 0.0
N260 N 1.01658 0.90935 0.13902 0.0
H261 H 0.83853 0.39342 0.50415 0.0
H262 H 0.84632 0.54209 0.47651 0.0
H263 H 0.9228 0.4717 0.51548 0.0
H264 H 0.76161 0.46395 0.46013 0.0
H265 H 0.87425 0.51738 0.50392 0.0
H266 H 0.80974 0.41953 0.50226 0.0
C267 C 0.85105 0.41614 0.50754 0.0
C268 C 0.88322 0.43031 0.50949 0.0
C269 C 0.84952 0.50564 0.4949 0.0
C270 C 0.85026 0.46034 0.50638 0.0
C271 C 0.83351 0.51978 0.47925 0.0
C272 C 0.80152 0.5051 0.46547 0.0
C273 C 0.83354 0.4765 0.49661 0.0
C274 C 0.78626 0.47617 0.4701 0.0
C275 C 0.83455 0.43103 0.50602 0.0
C276 C 0.89806 0.45979 0.51348 0.0
N277 N 0.8024 0.46281 0.48472 0.0
N278 N 0.8815 0.47373 0.51116 0.0
H279 H 0.5585 0.26567 0.13268 0.0
H280 H 0.67327 0.40837 0.36591 0.0
H281 H 0.61002 0.2695 0.30793 0.0
H282 H 0.63284 0.40758 0.17796 0.0
H283 H 0.64941 0.35734 0.34498 0.0
H284 H 0.58489 0.31736 0.14714 0.0
C285 C 0.57545 0.2773 0.17386 0.0
C286 C 0.58168 0.2631 0.21958 0.0
C287 C 0.64579 0.3683 0.30814 0.0
C288 C 0.61175 0.32223 0.2368 0.0
C289 C 0.65961 0.39764 0.31996 0.0
C290 C 0.65529 0.41267 0.27368 0.0
C291 C 0.62725 0.35357 0.24968 0.0
C292 C 0.63667 0.39711 0.21556 0.0
C293 C 0.59041 0.30681 0.18228 0.0
C294 C 0.60382 0.27938 0.27225 0.0
N295 N 0.62332 0.36846 0.2053 0.0
N296 N 0.61787 0.30793 0.27949 0.0
H297 H 0.62578 0.23078 0.40084 0.0
H298 H 0.787 0.25785 0.2722 0.0
H299 H 0.64193 0.16682 0.29283 0.0
H300 H 0.77844 0.31914 0.41057 0.0
H301 H 0.73312 0.22487 0.2784 0.0
H302 H 0.68115 0.26366 0.40806 0.0
C303 C 0.641 0.22344 0.38012 0.0
C304 C 0.62919 0.19602 0.34604 0.0
C305 C 0.74295 0.24551 0.30759 0.0
C306 C 0.69225 0.23359 0.3526 0.0
C307 C 0.77373 0.26449 0.30348 0.0
C308 C 0.78734 0.29139 0.3407 0.0
C309 C 0.72533 0.25341 0.34884 0.0
C310 C 0.76897 0.29855 0.38136 0.0
C311 C 0.67255 0.24228 0.38365 0.0
C312 C 0.64995 0.1878 0.31919 0.0
N313 N 0.73888 0.27975 0.38415 0.0
N314 N 0.68027 0.20651 0.32251 0.0
H315 H 0.46037 0.86524 0.65262 0.0
H316 H 0.49911 0.74848 0.76482 0.0
H317 H 0.41262 0.81328 0.79758 0.0
H318 H 0.55057 0.80563 0.63195 0.0
H319 H 0.46696 0.77147 0.77753 0.0
H320 H 0.49422 0.84413 0.64661 0.0
C321 C 0.4572 0.84962 0.68381 0.0
C322 C 0.43352 0.84107 0.72566 0.0
C323 C 0.48534 0.77899 0.74569 0.0
C324 C 0.47209 0.81634 0.71822 0.0
C325 C 0.50357 0.7657 0.73797 0.0
C326 C 0.52773 0.77511 0.6973 0.0
C327 C 0.49114 0.80178 0.71223 0.0
C328 C 0.53256 0.79783 0.66448 0.0
C329 C 0.4765 0.83746 0.68016 0.0
C330 C 0.43059 0.82065 0.76478 0.0
N331 N 0.51448 0.81029 0.67258 0.0
N332 N 0.44945 0.80885 0.75973 0.0
H333 H 0.34142 0.75481 0.65118 0.0
H334 H 0.19914 0.62112 0.76108 0.0
H335 H 0.25071 0.74617 0.66174 0.0
H336 H 0.28902 0.62822 0.74665 0.0
H337 H 0.21806 0.66735 0.72688 0.0
H338 H 0.323 0.70882 0.68709 0.0
C339 C 0.31766 0.74332 0.66108 0.0
C340 C 0.29764 0.75453 0.65329 0.0
C341 C 0.23368 0.65883 0.73125 0.0
C342 C 0.27632 0.70165 0.69427 0.0
C343 C 0.22292 0.63245 0.75133 0.0
C344 C 0.24247 0.62061 0.75685 0.0
C345 C 0.26428 0.67366 0.71661 0.0
C346 C 0.27299 0.63626 0.74235 0.0
C347 C 0.30712 0.71697 0.68138 0.0
C348 C 0.26695 0.73837 0.6661 0.0
N349 N 0.28293 0.66193 0.72293 0.0
N350 N 0.2573 0.71286 0.68607 0.0
H351 H 0.32448 0.55857 0.82175 0.0
H352 H 0.48323 0.63164 0.65871 0.0
H353 H 0.32993 0.55601 0.61314 0.0
H354 H 0.47297 0.65677 0.8588 0.0
H355 H 0.42859 0.59747 0.64407 0.0
H356 H 0.38022 0.58808 0.83846 0.0
C357 C 0.33739 0.5639 0.77935 0.0
C358 C 0.32238 0.5548 0.71584 0.0
C359 C 0.43834 0.61035 0.69128 0.0
C360 C 0.38636 0.58864 0.73486 0.0
C361 C 0.46961 0.6298 0.69986 0.0
C362 C 0.48281 0.64726 0.76012 0.0
C363 C 0.42005 0.60799 0.74348 0.0
C364 C 0.46383 0.64388 0.81145 0.0
C365 C 0.36922 0.5809 0.78903 0.0
C366 C 0.34043 0.56259 0.66294 0.0
N367 N 0.43346 0.62467 0.80198 0.0
N368 N 0.37142 0.57902 0.67362 0.0
H369 H 0.11417 0.30612 0.0559 0.0
H370 H 0.13793 0.41796 0.81338 0.0
H371 H 0.04489 0.29395 0.90685 0.0
H372 H 0.2009 0.4351 0.98069 0.0
H373 H 0.10504 0.37114 0.84225 0.0
H374 H 0.14734 0.3523 0.02549 0.0
C375 C 0.10573 0.31301 0.01702 0.0
C376 C 0.07641 0.29571 0.9841 0.0
C377 C 0.12606 0.38517 0.87267 0.0
C378 C 0.11482 0.34888 0.94829 0.0
C379 C 0.14496 0.41187 0.85593 0.0
C380 C 0.17224 0.43067 0.89474 0.0
C381 C 0.13454 0.37701 0.9284 0.0
C382 C 0.17993 0.42159 0.9498 0.0
C383 C 0.12486 0.33948 -0.00056 0.0
C384 C 0.06728 0.30607 0.93336 0.0
N385 N 0.16126 0.39549 0.96486 0.0
N386 N 0.08636 0.33184 0.91709 0.0
H387 H 0.7915 0.8511 0.96684 0.0
H388 H 0.6614 0.69182 0.85043 0.0
H389 H 0.80229 0.77944 0.00112 0.0
H390 H 0.64735 0.76409 0.84726 0.0
H391 H 0.71335 0.72304 0.90226 0.0
H392 H 0.73974 0.81917 0.91668 0.0
C393 C 0.78315 0.82862 0.96328 0.0
C394 C 0.80145 0.81803 0.98843 0.0
C395 C 0.69881 0.73203 0.89064 0.0
C396 C 0.74164 0.78113 0.93122 0.0
C397 C 0.66905 0.71419 0.86126 0.0
C398 C 0.64982 0.72527 0.84435 0.0
C399 C 0.70964 0.76124 0.9028 0.0
C400 C 0.66119 0.7545 0.85947 0.0
C401 C 0.75341 0.81037 0.93493 0.0
C402 C 0.78913 0.78862 0.98235 0.0
N403 N 0.69033 0.77141 0.88732 0.0
N404 N 0.76001 0.77123 0.95451 0.0
H405 H 0.39296 0.94947 0.85255 0.0
H406 H 0.24647 0.97346 0.81787 0.0
H407 H 0.31546 0.89963 0.70962 0.0
H408 H 0.30913 1.00691 0.9923 0.0
H409 H 0.27447 0.94953 0.77348 0.0
H410 H 0.3655 0.97373 0.90099 0.0
C411 C 0.37022 0.94358 0.83138 0.0
C412 C 0.35657 0.92241 0.77682 0.0
C413 C 0.28215 0.96207 0.82152 0.0
C414 C 0.32516 0.95025 0.83173 0.0
C415 C 0.26626 0.97592 0.84674 0.0
C416 C 0.27549 0.99233 0.90888 0.0
C417 C 0.30782 0.96478 0.85819 0.0
C418 C 0.30109 0.99432 0.94443 0.0
C419 C 0.35455 0.9574 0.85917 0.0
C420 C 0.327 0.91572 0.75161 0.0
N421 N 0.31648 0.98086 0.91845 0.0
N422 N 0.31245 0.92964 0.77898 0.0
H423 H 0.44314 0.10071 0.32565 0.0
H424 H 0.28654 0.10804 0.28719 0.0
H425 H 0.43911 0.17805 0.32769 0.0
H426 H 0.29656 0.03612 0.20741 0.0
H427 H 0.33959 0.13117 0.33556 0.0
H428 H 0.38686 0.07464 0.31722 0.0
C429 C 0.43036 0.11229 0.32744 0.0
C430 C 0.44563 0.14158 0.32875 0.0
C431 C 0.32998 0.11013 0.3084 0.0
C432 C 0.38149 0.11196 0.31715 0.0
C433 C 0.29962 0.09681 0.28093 0.0
C434 C 0.28708 0.07015 0.24242 0.0
C435 C 0.34792 0.09663 0.29812 0.0
C436 C 0.3053 0.05674 0.23617 0.0
C437 C 0.3983 0.0974 0.32162 0.0
C438 C 0.42811 0.15554 0.32821 0.0
N439 N 0.33486 0.0702 0.26328 0.0
N440 N 0.39693 0.1406 0.32202 0.0
H441 H 0.05232 0.29958 0.3047 0.0
H442 H 0.88658 0.25948 0.41986 0.0
H443 H 0.97669 0.21491 0.27502 0.0
H444 H 0.96518 0.34128 0.47697 0.0
H445 H 0.92052 0.24173 0.37697 0.0
H446 H 1.02242 0.31444 0.37638 0.0
C447 C 0.02961 0.28401 0.31388 0.0
C448 C 1.01698 0.25597 0.2831 0.0
C449 C 0.93045 0.26349 0.39971 0.0
C450 C 0.98241 0.27295 0.36488 0.0
C451 C 0.91104 0.27364 0.42457 0.0
C452 C 0.92288 0.30211 0.45123 0.0
C453 C 0.96201 0.28196 0.40068 0.0
C454 C 0.95488 0.31931 0.45616 0.0
C455 C 1.01252 0.29253 0.35488 0.0
C456 C 0.9874 0.23678 0.29718 0.0
N457 N 0.97324 0.30912 0.43008 0.0
N458 N 0.97107 0.24568 0.33627 0.0
H459 H 0.7886 0.60774 0.17362 0.0
H460 H 0.85471 0.76647 0.35201 0.0
H461 H 0.79837 0.63066 0.38327 0.0
H462 H 0.82884 0.74133 0.14415 0.0
H463 H 0.83735 0.71741 0.36388 0.0
H464 H 0.80705 0.65712 0.16142 0.0
C465 C 0.79482 0.62315 0.21713 0.0
C466 C 0.79187 0.61494 0.27961 0.0
C467 C 0.83548 0.72266 0.31567 0.0
C468 C 0.81288 0.67164 0.26595 0.0
C469 C 0.8453 0.75078 0.30877 0.0
C470 C 0.84331 0.75842 0.24688 0.0
C471 C 0.82369 0.70182 0.26033 0.0
C472 C 0.83128 0.73682 0.19278 0.0
C473 C 0.80516 0.65135 0.21011 0.0
C474 C 0.79991 0.6359 0.33417 0.0
N475 N 0.82199 0.70962 0.20079 0.0
N476 N 0.81009 0.66323 0.32608 0.0
H477 H 0.17686 0.52599 0.53373 0.0
H478 H 1.01491 0.38596 0.46142 0.0
H479 H 0.15368 0.45097 0.62038 0.0
H480 H 0.03515 0.46205 0.38276 0.0
H481 H 0.06795 0.40753 0.50808 0.0
H482 H 0.12791 0.5011 0.46651 0.0
C483 C 0.1617 0.50415 0.53806 0.0
C484 C 0.1694 0.49066 0.58338 0.0
C485 C 0.06095 0.41952 0.48027 0.0
C486 C 0.11301 0.46205 0.50656 0.0
C487 C 0.03059 0.40723 0.45378 0.0
C488 C 1.0204 0.42238 0.41901 0.0
C489 C 0.0815 0.44733 0.47235 0.0
C490 C 0.04198 0.44962 0.40925 0.0
C491 C 0.13366 0.48997 0.49968 0.0
C492 C 0.14876 0.46231 0.58645 0.0
N493 N 0.07143 0.46135 0.43643 0.0
N494 N 0.12145 0.44907 0.54909 0.0
H495 H 0.72112 0.58777 0.47961 0.0
H496 H 0.58039 0.61036 0.59601 0.0
H497 H 0.63029 0.51869 0.48511 0.0
H498 H 0.66427 0.67623 0.54116 0.0
H499 H 0.59973 0.57674 0.56842 0.0
H500 H 0.70229 0.62074 0.5164 0.0
C501 C 0.69728 0.57947 0.48927 0.0
C502 C 0.67726 0.55033 0.47899 0.0
C503 C 0.61386 0.59856 0.56239 0.0
C504 C 0.65546 0.58816 0.52091 0.0
C505 C 0.60287 0.61776 0.57832 0.0
C506 C 0.62062 0.64614 0.57047 0.0
C507 C 0.643 0.60788 0.53928 0.0
C508 C 0.64956 0.65452 0.547 0.0
C509 C 0.68649 0.59836 0.5099 0.0
C510 C 0.64655 0.54094 0.49214 0.0
N511 N 0.65984 0.63554 0.53249 0.0
N512 N 0.63658 0.55978 0.51229 0.0
H513 H 0.44548 0.95789 0.54364 0.0
H514 H 0.45965 0.02976 0.22007 0.0
H515 H 0.38678 0.91509 0.36486 0.0
H516 H 0.51592 0.07328 0.40124 0.0
H517 H 0.43416 0.98693 0.27059 0.0
H518 H 0.47227 0.99999 0.49155 0.0
C519 C 0.43805 0.95729 0.49362 0.0
C520 C 0.41372 0.9327 0.45882 0.0
C521 C 0.45214 1.00585 0.29926 0.0
C522 C 0.44471 0.98099 0.39832 0.0
C523 C 0.46688 0.03029 0.27021 0.0
C524 C 0.48991 0.05531 0.30643 0.0
C525 C 0.46052 1.00632 0.36503 0.0
C526 C 0.49799 0.05469 0.37164 0.0
C527 C 0.45353 0.98136 0.46368 0.0
C528 C 0.40558 0.93329 0.39359 0.0
N529 N 0.48331 0.03068 0.39877 0.0
N530 N 0.42099 0.95698 0.3656 0.0
loop_
_geom_bond_atom_site_label_1
_geom_bond_atom_site_label_2
_geom_bond_distance
_geom_bond_site_symmetry_2
_ccdc_geom_bond_type
Cu0 N1 1.999 1_455 S
Cu0 O6 1.974 . S
Cu0 N11 1.985 . S
Cu0 O20 1.959 1_455 S
N1 Cu0 1.999 1_655 S
N1 C3 1.263 . S
N1 C5 1.389 . S
N2 C3 1.358 . S
N2 C4 1.400 . S
C3 N1 1.263 . S
C3 N2 1.358 . S
C3 H9 0.930 1_655 S
C4 N2 1.400 . S
C4 C5 1.351 . S
C4 H21 0.930 . S
C5 N1 1.389 . S
C5 C4 1.351 . S
C5 H10 0.930 . S
O6 Cu0 1.974 . S
O6 C16 1.282 . S
C7 O8 1.261 1_655 S
C7 O20 1.251 . S
O8 C7 1.261 1_455 S
H9 C3 0.930 1_455 S
H10 C5 0.930 . S
N11 Cu0 1.985 . S
N11 C13 1.335 . S
N11 C14 1.390 . S
N12 C13 1.345 . S
N12 C15 1.336 . S
C13 N11 1.335 . S
C13 N12 1.345 . S
C13 H18 0.930 . S
C14 N11 1.390 . S
C14 C15 1.346 . S
C14 H19 0.930 . S
C15 N12 1.336 . S
C15 C14 1.346 . S
C15 H22 0.929 . S
C16 O6 1.282 . S
C16 O17 1.216 . S
O17 C16 1.216 . S
H18 C13 0.930 . S
H19 C14 0.930 . S
O20 Cu0 1.959 1_655 S
O20 C7 1.251 . S
H21 C4 0.930 . S
H22 C15 0.929 . S
Cu23 N24 1.999 . S
Cu23 O29 1.974 . S
Cu23 N34 1.985 . S
Cu23 O43 1.959 . S
N24 Cu23 1.999 . S
N24 C26 1.263 . S
N24 C28 1.389 . S
N25 C26 1.358 . S
N25 C27 1.400 . S
C26 N24 1.263 . S
C26 N25 1.358 . S
C26 H32 0.930 . S
C27 N25 1.400 . S
C27 C28 1.351 . S
C27 H44 0.930 . S
C28 N24 1.389 . S
C28 C27 1.351 . S
C28 H33 0.930 . S
O29 Cu23 1.974 . S
O29 C39 1.282 . S
C30 O31 1.261 1_554 S
C30 O43 1.251 . S
O31 C30 1.261 1_556 S
H32 C26 0.930 . S
H33 C28 0.930 . S
N34 Cu23 1.985 . S
N34 C36 1.335 . S
N34 C37 1.390 . S
N35 C36 1.345 . S
N35 C38 1.336 . S
C36 N34 1.335 . S
C36 N35 1.345 . S
C36 H41 0.930 . S
C37 N34 1.390 . S
C37 C38 1.346 . S
C37 H42 0.930 . S
C38 N35 1.336 . S
C38 C37 1.346 . S
C38 H45 0.929 . S
C39 O29 1.282 . S
C39 O40 1.216 . S
O40 C39 1.216 . S
H41 C36 0.930 . S
H42 C37 0.930 . S
O43 Cu23 1.959 . S
O43 C30 1.251 . S
H44 C27 0.930 . S
H45 C38 0.929 . S
Cu46 N47 1.999 1_545 S
Cu46 O52 1.974 . S
Cu46 N57 1.985 . S
Cu46 O66 1.959 1_545 S
N47 Cu46 1.999 1_565 S
N47 C49 1.263 . S
N47 C51 1.389 1_554 S
N48 C49 1.358 1_556 S
N48 C50 1.400 . S
C49 N47 1.263 . S
C49 N48 1.358 1_554 S
C49 H55 0.930 . S
C50 N48 1.400 . S
C50 C51 1.351 . S
C50 H67 0.930 . S
C51 N47 1.389 1_556 S
C51 C50 1.351 . S
C51 H56 0.930 . S
O52 Cu46 1.974 . S
O52 C62 1.282 . S
C53 O54 1.261 . S
C53 O66 1.251 . S
O54 C53 1.261 . S
H55 C49 0.930 . S
H56 C51 0.930 . S
N57 Cu46 1.985 . S
N57 C59 1.335 . S
N57 C60 1.390 . S
N58 C59 1.345 . S
N58 C61 1.336 . S
C59 N57 1.335 . S
C59 N58 1.345 . S
C59 H64 0.930 . S
C60 N57 1.390 . S
C60 C61 1.346 . S
C60 H65 0.930 . S
C61 N58 1.336 . S
C61 C60 1.346 . S
C61 H68 0.929 . S
C62 O52 1.282 . S
C62 O63 1.216 . S
O63 C62 1.216 . S
H64 C59 0.930 . S
H65 C60 0.930 . S
O66 Cu46 1.959 1_565 S
O66 C53 1.251 . S
H67 C50 0.930 . S
H68 C61 0.929 . S
Cu69 N70 1.999 . S
Cu69 O75 1.974 . S
Cu69 N80 1.985 . S
Cu69 O89 1.959 . S
N70 Cu69 1.999 . S
N70 C72 1.263 . S
N70 C74 1.389 . S
N71 C72 1.358 . S
N71 C73 1.400 . S
C72 N70 1.263 . S
C72 N71 1.358 . S
C72 H78 0.930 . S
C73 N71 1.400 . S
C73 C74 1.351 . S
C73 H90 0.930 . S
C74 N70 1.389 . S
C74 C73 1.351 . S
C74 H79 0.930 . S
O75 Cu69 1.974 . S
O75 C85 1.282 . S
C76 O77 1.261 . S
C76 O89 1.251 . S
O77 C76 1.261 . S
H78 C72 0.930 . S
H79 C74 0.930 . S
N80 Cu69 1.985 . S
N80 C82 1.335 . S
N80 C83 1.390 . S
N81 C82 1.345 . S
N81 C84 1.336 . S
C82 N80 1.335 . S
C82 N81 1.345 . S
C82 H87 0.930 . S
C83 N80 1.390 . S
C83 C84 1.346 . S
C83 H88 0.930 . S
C84 N81 1.336 . S
C84 C83 1.346 . S
C84 H91 0.929 . S
C85 O75 1.282 . S
C85 O86 1.216 . S
O86 C85 1.216 . S
H87 C82 0.930 . S
H88 C83 0.930 . S
O89 Cu69 1.959 . S
O89 C76 1.251 . S
H90 C73 0.930 . S
H91 C84 0.929 . S
Cu92 N93 1.999 . S
Cu92 O98 1.974 . S
Cu92 N103 1.985 . S
Cu92 O112 1.959 . S
N93 Cu92 1.999 . S
N93 C95 1.263 . S
N93 C97 1.389 . S
N94 C95 1.358 . S
N94 C96 1.400 . S
C95 N93 1.263 . S
C95 N94 1.358 . S
C95 H101 0.930 . S
C96 N94 1.400 . S
C96 C97 1.351 . S
C96 H113 0.930 . S
C97 N93 1.389 . S
C97 C96 1.351 . S
C97 H102 0.930 . S
O98 Cu92 1.974 . S
O98 C108 1.282 . S
C99 O100 1.261 . S
C99 O112 1.251 . S
O100 C99 1.261 . S
H101 C95 0.930 . S
H102 C97 0.930 . S
N103 Cu92 1.985 . S
N103 C105 1.335 . S
N103 C106 1.390 . S
N104 C105 1.345 . S
N104 C107 1.336 . S
C105 N103 1.335 . S
C105 N104 1.345 . S
C105 H110 0.930 . S
C106 N103 1.390 . S
C106 C107 1.346 . S
C106 H111 0.930 . S
C107 N104 1.336 . S
C107 C106 1.346 . S
C107 H114 0.929 . S
C108 O98 1.282 . S
C108 O109 1.216 . S
O109 C108 1.216 . S
H110 C105 0.930 . S
H111 C106 0.930 . S
O112 Cu92 1.959 . S
O112 C99 1.251 . S
H113 C96 0.930 . S
H114 C107 0.929 . S
Cu115 N116 1.999 . S
Cu115 O121 1.974 . S
Cu115 N126 1.985 . S
Cu115 O135 1.959 . S
N116 Cu115 1.999 . S
N116 C118 1.263 . S
N116 C120 1.389 . S
N117 C118 1.358 . S
N117 C119 1.400 . S
C118 N116 1.263 . S
C118 N117 1.358 . S
C118 H124 0.930 . S
C119 N117 1.400 . S
C119 C120 1.351 . S
C119 H136 0.930 . S
C120 N116 1.389 . S
C120 C119 1.351 . S
C120 H125 0.930 . S
O121 Cu115 1.974 . S
O121 C131 1.282 . S
C122 O123 1.261 . S
C122 O135 1.251 . S
O123 C122 1.261 . S
H124 C118 0.930 . S
H125 C120 0.930 . S
N126 Cu115 1.985 . S
N126 C128 1.335 . S
N126 C129 1.390 . S
N127 C128 1.345 . S
N127 C130 1.336 . S
C128 N126 1.335 . S
C128 N127 1.345 . S
C128 H133 0.930 . S
C129 N126 1.390 . S
C129 C130 1.346 . S
C129 H134 0.930 . S
C130 N127 1.336 . S
C130 C129 1.346 . S
C130 H137 0.929 . S
C131 O121 1.282 . S
C131 O132 1.216 . S
O132 C131 1.216 . S
H133 C128 0.930 . S
H134 C129 0.930 . S
O135 Cu115 1.959 . S
O135 C122 1.251 . S
H136 C119 0.930 . S
H137 C130 0.929 . S
Cu138 N139 1.999 . S
Cu138 O144 1.974 . S
Cu138 N149 1.985 . S
Cu138 O158 1.959 . S
N139 Cu138 1.999 . S
N139 C141 1.263 . S
N139 C143 1.389 . S
N140 C141 1.358 . S
N140 C142 1.400 . S
C141 N139 1.263 . S
C141 N140 1.358 . S
C141 H147 0.930 . S
C142 N140 1.400 . S
C142 C143 1.351 . S
C142 H159 0.930 . S
C143 N139 1.389 . S
C143 C142 1.351 . S
C143 H148 0.930 . S
O144 Cu138 1.974 . S
O144 C154 1.282 . S
C145 O146 1.261 . S
C145 O158 1.251 . S
O146 C145 1.261 . S
H147 C141 0.930 . S
H148 C143 0.930 . S
N149 Cu138 1.985 . S
N149 C151 1.335 . S
N149 C152 1.390 . S
N150 C151 1.345 . S
N150 C153 1.336 . S
C151 N149 1.335 . S
C151 N150 1.345 . S
C151 H156 0.930 . S
C152 N149 1.390 . S
C152 C153 1.346 . S
C152 H157 0.930 . S
C153 N150 1.336 . S
C153 C152 1.346 . S
C153 H160 0.929 . S
C154 O144 1.282 . S
C154 O155 1.216 . S
O155 C154 1.216 . S
H156 C151 0.930 . S
H157 C152 0.930 . S
O158 Cu138 1.959 . S
O158 C145 1.251 . S
H159 C142 0.930 . S
H160 C153 0.929 . S
Cu161 N162 1.999 . S
Cu161 O167 1.974 . S
Cu161 N172 1.985 . S
Cu161 O181 1.959 . S
N162 Cu161 1.999 . S
N162 C164 1.263 . S
N162 C166 1.389 . S
N163 C164 1.358 . S
N163 C165 1.400 . S
C164 N162 1.263 . S
C164 N163 1.358 . S
C164 H170 0.930 . S
C165 N163 1.400 . S
C165 C166 1.351 . S
C165 H182 0.930 . S
C166 N162 1.389 . S
C166 C165 1.351 . S
C166 H171 0.930 . S
O167 Cu161 1.974 . S
O167 C177 1.282 . S
C168 O169 1.261 . S
C168 O181 1.251 . S
O169 C168 1.261 . S
H170 C164 0.930 . S
H171 C166 0.930 . S
N172 Cu161 1.985 . S
N172 C174 1.335 . S
N172 C175 1.390 . S
N173 C174 1.345 . S
N173 C176 1.336 . S
C174 N172 1.335 . S
C174 N173 1.345 . S
C174 H179 0.930 . S
C175 N172 1.390 . S
C175 C176 1.346 . S
C175 H180 0.930 . S
C176 N173 1.336 . S
C176 C175 1.346 . S
C176 H183 0.929 . S
C177 O167 1.282 . S
C177 O178 1.216 . S
O178 C177 1.216 . S
H179 C174 0.930 . S
H180 C175 0.930 . S
O181 Cu161 1.959 . S
O181 C168 1.251 . S
H182 C165 0.930 . S
H183 C176 0.929 . S
Cu184 N185 1.999 . S
Cu184 O190 1.974 . S
Cu184 N195 1.985 . S
Cu184 O204 1.959 . S
N185 Cu184 1.999 . S
N185 C187 1.263 . S
N185 C189 1.389 . S
N186 C187 1.358 . S
N186 C188 1.400 . S
C187 N185 1.263 . S
C187 N186 1.358 . S
C187 H193 0.930 . S
C188 N186 1.400 . S
C188 C189 1.351 . S
C188 H205 0.930 . S
C189 N185 1.389 . S
C189 C188 1.351 . S
C189 H194 0.930 . S
O190 Cu184 1.974 . S
O190 C200 1.282 . S
C191 O192 1.261 . S
C191 O204 1.251 . S
O192 C191 1.261 . S
H193 C187 0.930 . S
H194 C189 0.930 . S
N195 Cu184 1.985 . S
N195 C197 1.335 . S
N195 C198 1.390 . S
N196 C197 1.345 . S
N196 C199 1.336 . S
C197 N195 1.335 . S
C197 N196 1.345 . S
C197 H202 0.930 . S
C198 N195 1.390 . S
C198 C199 1.346 . S
C198 H203 0.930 . S
C199 N196 1.336 . S
C199 C198 1.346 . S
C199 H206 0.929 . S
C200 O190 1.282 . S
C200 O201 1.216 . S
O201 C200 1.216 . S
H202 C197 0.930 . S
H203 C198 0.930 . S
O204 Cu184 1.959 . S
O204 C191 1.251 . S
H205 C188 0.930 . S
H206 C199 0.929 . S
H207 C213 0.930 . S
H208 C217 0.930 . S
H209 C222 0.929 . S
H210 C220 0.943 . S
H211 C215 0.929 . S
H212 C221 0.929 1_556 S
C213 H207 0.930 . S
C213 C214 1.367 . S
C213 C221 1.378 . S
C214 C213 1.367 . S
C214 C222 1.433 . S
C215 H211 0.929 . S
C215 C217 1.378 . S
C215 C219 1.350 . S
C216 C219 1.463 . S
C216 C221 1.350 . S
C216 N224 1.427 . S
C217 H208 0.930 . S
C217 C215 1.378 . S
C217 C218 1.367 . S
C218 C217 1.367 . S
C218 C220 1.423 1_554 S
C219 C215 1.350 . S
C219 C216 1.463 . S
C219 N223 1.427 . S
C220 H210 0.943 . S
C220 C218 1.423 1_556 S
C220 N223 1.380 1_556 S
C221 H212 0.929 1_554 S
C221 C213 1.378 . S
C221 C216 1.350 . S
C222 H209 0.929 . S
C222 C214 1.433 . S
C222 N224 1.384 . S
N223 C219 1.427 . S
N223 C220 1.380 1_554 S
N224 C216 1.427 . S
N224 C222 1.384 . S
H225 C231 0.930 . S
H226 C235 0.930 1_556 S
H227 C240 0.929 . S
H228 C238 0.929 . S
H229 C233 0.929 1_556 S
H230 C239 0.929 . S
C231 H225 0.930 . S
C231 C232 1.367 . S
C231 C239 1.378 . S
C232 C231 1.367 . S
C232 C240 1.433 1_554 S
C233 H229 0.929 1_554 S
C233 C235 1.378 . S
C233 C237 1.350 . S
C234 C237 1.463 . S
C234 C239 1.350 1_545 S
C234 N242 1.427 1_544 S
C235 H226 0.930 1_554 S
C235 C233 1.378 . S
C235 C236 1.367 . S
C236 C235 1.367 . S
C236 C238 1.433 . S
C237 C233 1.350 . S
C237 C234 1.463 . S
C237 N241 1.427 . S
C238 H228 0.929 . S
C238 C236 1.433 . S
C238 N241 1.384 . S
C239 H230 0.929 . S
C239 C231 1.378 . S
C239 C234 1.350 1_565 S
C240 H227 0.929 . S
C240 C232 1.433 1_556 S
C240 N242 1.384 . S
N241 C237 1.427 . S
N241 C238 1.384 . S
N242 C234 1.427 1_566 S
N242 C240 1.384 . S
H243 C249 0.930 1_556 S
H244 C253 0.930 . S
H245 C258 0.929 . S
H246 C256 0.929 . S
H247 C251 0.929 . S
H248 C257 0.929 1_556 S
C249 H243 0.930 1_554 S
C249 C250 1.367 . S
C249 C257 1.378 . S
C250 C249 1.367 . S
C250 C258 1.433 . S
C251 H247 0.929 . S
C251 C253 1.378 . S
C251 C255 1.350 . S
C252 C255 1.463 . S
C252 C257 1.350 1_455 S
C252 N260 1.440 . S
C253 H244 0.930 . S
C253 C251 1.378 . S
C253 C254 1.367 . S
C254 C253 1.367 . S
C254 C256 1.433 1_554 S
C255 C251 1.350 . S
C255 C252 1.463 . S
C255 N259 1.427 . S
C256 H246 0.929 . S
C256 C254 1.433 1_556 S
C256 N259 1.384 1_556 S
C257 H248 0.929 1_554 S
C257 C249 1.378 . S
C257 C252 1.350 1_655 S
C258 H245 0.929 . S
C258 C250 1.433 . S
C258 N260 1.353 1_655 S
N259 C255 1.427 . S
N259 C256 1.384 1_554 S
N260 C252 1.440 . S
N260 C258 1.353 1_455 S
H261 C267 0.930 . S
H262 C271 0.930 . S
H263 C276 0.929 . S
H264 C274 0.929 . S
H265 C269 0.929 . S
H266 C275 0.929 . S
C267 H261 0.930 . S
C267 C268 1.367 . S
C267 C275 1.378 . S
C268 C267 1.367 . S
C268 C276 1.433 . S
C269 H265 0.929 . S
C269 C271 1.378 . S
C269 C273 1.350 . S
C270 C273 1.463 . S
C270 C275 1.350 . S
C270 N278 1.427 . S
C271 H262 0.930 . S
C271 C269 1.378 . S
C271 C272 1.367 . S
C272 C271 1.367 . S
C272 C274 1.433 . S
C273 C269 1.350 . S
C273 C270 1.463 . S
C273 N277 1.427 . S
C274 H264 0.929 . S
C274 C272 1.433 . S
C274 N277 1.384 . S
C275 H266 0.929 . S
C275 C267 1.378 . S
C275 C270 1.350 . S
C276 H263 0.929 . S
C276 C268 1.433 . S
C276 N278 1.384 . S
N277 C273 1.427 . S
N277 C274 1.384 . S
N278 C270 1.427 . S
N278 C276 1.384 . S
H279 C285 0.930 . S
H280 C289 0.930 . S
H281 C294 0.929 . S
H282 C292 0.929 . S
H283 C287 0.929 . S
H284 C293 0.929 . S
C285 H279 0.930 . S
C285 C286 1.367 . S
C285 C293 1.378 . S
C286 C285 1.367 . S
C286 C294 1.433 . S
C287 H283 0.929 . S
C287 C289 1.378 . S
C287 C291 1.350 . S
C288 C291 1.463 . S
C288 C293 1.350 . S
C288 N296 1.427 . S
C289 H280 0.930 . S
C289 C287 1.378 . S
C289 C290 1.367 . S
C290 C289 1.367 . S
C290 C292 1.433 . S
C291 C287 1.350 . S
C291 C288 1.463 . S
C291 N295 1.427 . S
C292 H282 0.929 . S
C292 C290 1.433 . S
C292 N295 1.384 . S
C293 H284 0.929 . S
C293 C285 1.378 . S
C293 C288 1.350 . S
C294 H281 0.929 . S
C294 C286 1.433 . S
C294 N296 1.384 . S
N295 C291 1.427 . S
N295 C292 1.384 . S
N296 C288 1.427 . S
N296 C294 1.384 . S
H297 C303 0.930 . S
H298 C307 0.930 . S
H299 C312 0.929 . S
H300 C310 0.929 . S
H301 C305 0.929 . S
H302 C311 0.929 . S
C303 H297 0.930 . S
C303 C304 1.367 . S
C303 C311 1.378 . S
C304 C303 1.367 . S
C304 C312 1.433 . S
C305 H301 0.929 . S
C305 C307 1.378 . S
C305 C309 1.350 . S
C306 C309 1.463 . S
C306 C311 1.350 . S
C306 N314 1.427 . S
C307 H298 0.930 . S
C307 C305 1.378 . S
C307 C308 1.367 . S
C308 C307 1.367 . S
C308 C310 1.433 . S
C309 C305 1.350 . S
C309 C306 1.463 . S
C309 N313 1.427 . S
C310 H300 0.929 . S
C310 C308 1.433 . S
C310 N313 1.384 . S
C311 H302 0.929 . S
C311 C303 1.378 . S
C311 C306 1.350 . S
C312 H299 0.929 . S
C312 C304 1.433 . S
C312 N314 1.384 . S
N313 C309 1.427 . S
N313 C310 1.384 . S
N314 C306 1.427 . S
N314 C312 1.384 . S
H315 C321 0.930 . S
H316 C325 0.930 . S
H317 C330 0.929 . S
H318 C328 0.929 . S
H319 C323 0.929 . S
H320 C329 0.929 . S
C321 H315 0.930 . S
C321 C322 1.367 . S
C321 C329 1.378 . S
C322 C321 1.367 . S
C322 C330 1.433 . S
C323 H319 0.929 . S
C323 C325 1.378 . S
C323 C327 1.350 . S
C324 C327 1.463 . S
C324 C329 1.350 . S
C324 N332 1.427 . S
C325 H316 0.930 . S
C325 C323 1.378 . S
C325 C326 1.367 . S
C326 C325 1.367 . S
C326 C328 1.433 . S
C327 C323 1.350 . S
C327 C324 1.463 . S
C327 N331 1.427 . S
C328 H318 0.929 . S
C328 C326 1.433 . S
C328 N331 1.384 . S
C329 H320 0.929 . S
C329 C321 1.378 . S
C329 C324 1.350 . S
C330 H317 0.929 . S
C330 C322 1.433 . S
C330 N332 1.384 . S
N331 C327 1.427 . S
N331 C328 1.384 . S
N332 C324 1.427 . S
N332 C330 1.384 . S
H333 C339 0.930 . S
H334 C343 0.930 . S
H335 C348 0.929 . S
H336 C346 0.929 . S
H337 C341 0.929 . S
H338 C347 0.929 . S
C339 H333 0.930 . S
C339 C340 1.367 . S
C339 C347 1.378 . S
C340 C339 1.367 . S
C340 C348 1.433 . S
C341 H337 0.929 . S
C341 C343 1.378 . S
C341 C345 1.350 . S
C342 C345 1.463 . S
C342 C347 1.350 . S
C342 N350 1.427 . S
C343 H334 0.930 . S
C343 C341 1.378 . S
C343 C344 1.367 . S
C344 C343 1.367 . S
C344 C346 1.433 . S
C345 C341 1.350 . S
C345 C342 1.463 . S
C345 N349 1.427 . S
C346 H336 0.929 . S
C346 C344 1.433 . S
C346 N349 1.384 . S
C347 H338 0.929 . S
C347 C339 1.378 . S
C347 C342 1.350 . S
C348 H335 0.929 . S
C348 C340 1.433 . S
C348 N350 1.384 . S
N349 C345 1.427 . S
N349 C346 1.384 . S
N350 C342 1.427 . S
N350 C348 1.384 . S
H351 C357 0.930 . S
H352 C361 0.930 . S
H353 C366 0.929 . S
H354 C364 0.929 . S
H355 C359 0.929 . S
H356 C365 0.929 . S
C357 H351 0.930 . S
C357 C358 1.367 . S
C357 C365 1.378 . S
C358 C357 1.367 . S
C358 C366 1.433 . S
C359 H355 0.929 . S
C359 C361 1.378 . S
C359 C363 1.350 . S
C360 C363 1.463 . S
C360 C365 1.350 . S
C360 N368 1.427 . S
C361 H352 0.930 . S
C361 C359 1.378 . S
C361 C362 1.367 . S
C362 C361 1.367 . S
C362 C364 1.433 . S
C363 C359 1.350 . S
C363 C360 1.463 . S
C363 N367 1.427 . S
C364 H354 0.929 . S
C364 C362 1.433 . S
C364 N367 1.384 . S
C365 H356 0.929 . S
C365 C357 1.378 . S
C365 C360 1.350 . S
C366 H353 0.929 . S
C366 C358 1.433 . S
C366 N368 1.384 . S
N367 C363 1.427 . S
N367 C364 1.384 . S
N368 C360 1.427 . S
N368 C366 1.384 . S
H369 C375 0.930 . S
H370 C379 0.930 . S
H371 C384 0.929 . S
H372 C382 0.929 . S
H373 C377 0.929 . S
H374 C383 0.929 1_554 S
C375 H369 0.930 . S
C375 C376 1.367 1_554 S
C375 C383 1.378 1_554 S
C376 C375 1.367 1_556 S
C376 C384 1.433 . S
C377 H373 0.929 . S
C377 C379 1.378 . S
C377 C381 1.350 . S
C378 C381 1.463 . S
C378 C383 1.350 . S
C378 N386 1.427 . S
C379 H370 0.930 . S
C379 C377 1.378 . S
C379 C380 1.367 . S
C380 C379 1.367 . S
C380 C382 1.433 . S
C381 C377 1.350 . S
C381 C378 1.463 . S
C381 N385 1.427 . S
C382 H372 0.929 . S
C382 C380 1.433 . S
C382 N385 1.384 . S
C383 H374 0.929 1_556 S
C383 C375 1.378 1_556 S
C383 C378 1.350 . S
C384 H371 0.929 . S
C384 C376 1.433 . S
C384 N386 1.384 . S
N385 C381 1.427 . S
N385 C382 1.384 . S
N386 C378 1.427 . S
N386 C384 1.384 . S
H387 C393 0.930 . S
H388 C397 0.930 . S
H389 C402 0.929 . S
H390 C400 0.929 . S
H391 C395 0.929 . S
H392 C401 0.929 . S
C393 H387 0.930 . S
C393 C394 1.367 . S
C393 C401 1.378 . S
C394 C393 1.367 . S
C394 C402 1.433 . S
C395 H391 0.929 . S
C395 C397 1.378 . S
C395 C399 1.350 . S
C396 C399 1.463 . S
C396 C401 1.350 . S
C396 N404 1.427 . S
C397 H388 0.930 . S
C397 C395 1.378 . S
C397 C398 1.367 . S
C398 C397 1.367 . S
C398 C400 1.433 . S
C399 C395 1.350 . S
C399 C396 1.463 . S
C399 N403 1.427 . S
C400 H390 0.929 . S
C400 C398 1.433 . S
C400 N403 1.384 . S
C401 H392 0.929 . S
C401 C393 1.378 . S
C401 C396 1.350 . S
C402 H389 0.929 . S
C402 C394 1.433 . S
C402 N404 1.384 . S
N403 C399 1.427 . S
N403 C400 1.384 . S
N404 C396 1.427 . S
N404 C402 1.384 . S
H405 C411 0.930 . S
H406 C415 0.930 . S
H407 C420 0.929 . S
H408 C418 0.929 1_554 S
H409 C413 0.929 . S
H410 C419 0.929 . S
C411 H405 0.930 . S
C411 C412 1.367 . S
C411 C419 1.378 . S
C412 C411 1.367 . S
C412 C420 1.433 . S
C413 H409 0.929 . S
C413 C415 1.378 . S
C413 C417 1.350 . S
C414 C417 1.463 . S
C414 C419 1.350 . S
C414 N422 1.427 . S
C415 H406 0.930 . S
C415 C413 1.378 . S
C415 C416 1.367 . S
C416 C415 1.367 . S
C416 C418 1.433 . S
C417 C413 1.350 . S
C417 C414 1.463 . S
C417 N421 1.427 . S
C418 H408 0.929 1_556 S
C418 C416 1.433 . S
C418 N421 1.384 . S
C419 H410 0.929 . S
C419 C411 1.378 . S
C419 C414 1.350 . S
C420 H407 0.929 . S
C420 C412 1.433 . S
C420 N422 1.384 . S
N421 C417 1.427 . S
N421 C418 1.384 . S
N422 C414 1.427 . S
N422 C420 1.384 . S
H423 C429 0.930 . S
H424 C433 0.930 . S
H425 C438 0.929 . S
H426 C436 0.929 . S
H427 C431 0.929 . S
H428 C437 0.929 . S
C429 H423 0.930 . S
C429 C430 1.367 . S
C429 C437 1.378 . S
C430 C429 1.367 . S
C430 C438 1.433 . S
C431 H427 0.929 . S
C431 C433 1.378 . S
C431 C435 1.350 . S
C432 C435 1.463 . S
C432 C437 1.350 . S
C432 N440 1.427 . S
C433 H424 0.930 . S
C433 C431 1.378 . S
C433 C434 1.367 . S
C434 C433 1.367 . S
C434 C436 1.433 . S
C435 C431 1.350 . S
C435 C432 1.463 . S
C435 N439 1.427 . S
C436 H426 0.929 . S
C436 C434 1.433 . S
C436 N439 1.384 . S
C437 H428 0.929 . S
C437 C429 1.378 . S
C437 C432 1.350 . S
C438 H425 0.929 . S
C438 C430 1.433 . S
C438 N440 1.384 . S
N439 C435 1.427 . S
N439 C436 1.384 . S
N440 C432 1.427 . S
N440 C438 1.384 . S
H441 C447 0.930 1_455 S
H442 C451 0.930 . S
H443 C456 0.929 . S
H444 C454 0.929 . S
H445 C449 0.929 . S
H446 C455 0.929 . S
C447 H441 0.930 1_655 S
C447 C448 1.367 . S
C447 C455 1.378 . S
C448 C447 1.367 . S
C448 C456 1.433 . S
C449 H445 0.929 . S
C449 C451 1.378 . S
C449 C453 1.350 . S
C450 C453 1.463 . S
C450 C455 1.350 . S
C450 N458 1.427 . S
C451 H442 0.930 . S
C451 C449 1.378 . S
C451 C452 1.367 . S
C452 C451 1.367 . S
C452 C454 1.433 . S
C453 C449 1.350 . S
C453 C450 1.463 . S
C453 N457 1.427 . S
C454 H444 0.929 . S
C454 C452 1.433 . S
C454 N457 1.384 . S
C455 H446 0.929 . S
C455 C447 1.378 . S
C455 C450 1.350 . S
C456 H443 0.929 . S
C456 C448 1.433 . S
C456 N458 1.384 . S
N457 C453 1.427 . S
N457 C454 1.384 . S
N458 C450 1.427 . S
N458 C456 1.384 . S
H459 C465 0.930 . S
H460 C469 0.930 . S
H461 C474 0.929 . S
H462 C472 0.929 . S
H463 C467 0.929 . S
H464 C473 0.929 . S
C465 H459 0.930 . S
C465 C466 1.367 . S
C465 C473 1.378 . S
C466 C465 1.367 . S
C466 C474 1.433 . S
C467 H463 0.929 . S
C467 C469 1.378 . S
C467 C471 1.350 . S
C468 C471 1.463 . S
C468 C473 1.350 . S
C468 N476 1.427 . S
C469 H460 0.930 . S
C469 C467 1.378 . S
C469 C470 1.367 . S
C470 C469 1.367 . S
C470 C472 1.433 . S
C471 C467 1.350 . S
C471 C468 1.463 . S
C471 N475 1.427 . S
C472 H462 0.929 . S
C472 C470 1.433 . S
C472 N475 1.384 . S
C473 H464 0.929 . S
C473 C465 1.378 . S
C473 C468 1.350 . S
C474 H461 0.929 . S
C474 C466 1.433 . S
C474 N476 1.384 . S
N475 C471 1.427 . S
N475 C472 1.384 . S
N476 C468 1.427 . S
N476 C474 1.384 . S
H477 C483 0.930 . S
H478 C487 0.930 . S
H479 C492 0.929 . S
H480 C490 0.929 . S
H481 C485 0.929 . S
H482 C491 0.929 . S
C483 H477 0.930 . S
C483 C484 1.367 . S
C483 C491 1.378 . S
C484 C483 1.367 . S
C484 C492 1.433 . S
C485 H481 0.929 . S
C485 C487 1.378 1_455 S
C485 C489 1.350 . S
C486 C489 1.463 . S
C486 C491 1.350 . S
C486 N494 1.427 . S
C487 H478 0.930 . S
C487 C485 1.378 1_655 S
C487 C488 1.367 . S
C488 C487 1.367 . S
C488 C490 1.433 1_655 S
C489 C485 1.350 . S
C489 C486 1.463 . S
C489 N493 1.427 . S
C490 H480 0.929 . S
C490 C488 1.433 1_455 S
C490 N493 1.384 . S
C491 H482 0.929 . S
C491 C483 1.378 . S
C491 C486 1.350 . S
C492 H479 0.929 . S
C492 C484 1.433 . S
C492 N494 1.384 . S
N493 C489 1.427 . S
N493 C490 1.384 . S
N494 C486 1.427 . S
N494 C492 1.384 . S
H495 C501 0.930 . S
H496 C505 0.930 . S
H497 C510 0.929 . S
H498 C508 0.929 . S
H499 C503 0.929 . S
H500 C509 0.929 . S
C501 H495 0.930 . S
C501 C502 1.367 . S
C501 C509 1.378 . S
C502 C501 1.367 . S
C502 C510 1.433 . S
C503 H499 0.929 . S
C503 C505 1.378 . S
C503 C507 1.350 . S
C504 C507 1.463 . S
C504 C509 1.350 . S
C504 N512 1.427 . S
C505 H496 0.930 . S
C505 C503 1.378 . S
C505 C506 1.367 . S
C506 C505 1.367 . S
C506 C508 1.433 . S
C507 C503 1.350 . S
C507 C504 1.463 . S
C507 N511 1.427 . S
C508 H498 0.929 . S
C508 C506 1.433 . S
C508 N511 1.384 . S
C509 H500 0.929 . S
C509 C501 1.378 . S
C509 C504 1.350 . S
C510 H497 0.929 . S
C510 C502 1.433 . S
C510 N512 1.384 . S
N511 C507 1.427 . S
N511 C508 1.384 . S
N512 C504 1.427 . S
N512 C510 1.384 . S
H513 C519 0.930 . S
H514 C523 0.930 . S
H515 C528 0.929 . S
H516 C526 0.929 . S
H517 C521 0.929 . S
H518 C527 0.929 . S
C519 H513 0.930 . S
C519 C520 1.367 . S
C519 C527 1.378 1_565 S
C520 C519 1.367 . S
C520 C528 1.433 . S
C521 H517 0.929 . S
C521 C523 1.378 . S
C521 C525 1.350 . S
C522 C525 1.483 . S
C522 C527 1.344 . S
C522 N530 1.414 1_545 S
C523 H514 0.930 . S
C523 C521 1.378 . S
C523 C524 1.367 . S
C524 C523 1.367 . S
C524 C526 1.433 . S
C525 C521 1.350 . S
C525 C522 1.483 . S
C525 N529 1.427 . S
C526 H516 0.929 . S
C526 C524 1.433 . S
C526 N529 1.384 . S
C527 H518 0.929 . S
C527 C519 1.378 1_545 S
C527 C522 1.344 . S
C528 H515 0.929 . S
C528 C520 1.433 . S
C528 N530 1.384 . S
N529 C525 1.427 . S
N529 C526 1.384 . S
N530 C522 1.414 1_565 S
N530 C528 1.384 . S
C214 N58 1.335 . S
C218 C16 1.309 . S
C232 N25 1.236 . S
C236 N2 1.245 . S
C250 C39 1.501 . S
C254 C53 1.529 . S
C268 C122 1.582 . S
C272 C85 1.549 . S
C286 N94 1.180 . S
C290 N71 1.173 . S
C304 C108 1.354 . S
C308 N127 1.373 . S
C322 C154 1.377 . S
C326 N196 1.403 . S
C340 N140 1.084 . S
C344 N163 1.067 . S
C358 C177 1.576 . S
C362 C191 1.608 . S
C376 N12 1.524 1_556 S
C380 N173 1.551 . S
C394 C30 1.573 1_556 S
C398 C200 1.541 . S
C412 C145 1.522 . S
C416 N48 1.439 . S
C430 C99 1.488 . S
C434 C62 1.461 . S
C448 C7 1.538 . S
C452 C131 1.513 . S
C466 N81 1.566 . S
C470 N35 1.555 . S
C484 C168 1.568 . S
C488 N117 1.472 . S
C502 C76 1.596 . S
C506 N186 1.511 . S
C520 N150 1.492 . S
C524 N104 1.488 . S
