# Generated by pormake.
# Topology umq, (4)-cn, num edge types: 1
# Building blocks:
#     Node 0, Type 0, BuildingBlock: GALJAG_clean_sbu_0, # of connection points: 4
#     Node 1, Type 0, BuildingBlock: GALJAG_clean_sbu_0, # of connection points: 4
#     Node 2, Type 0, BuildingBlock: GALJAG_clean_sbu_0, # of connection points: 4
#     Node 3, Type 0, BuildingBlock: GALJAG_clean_sbu_0, # of connection points: 4
#     Node 4, Type 0, BuildingBlock: GALJAG_clean_sbu_0, # of connection points: 4
#     Node 5, Type 0, BuildingBlock: GALJAG_clean_sbu_0, # of connection points: 4
#     Node 6, Type 0, BuildingBlock: GALJAG_clean_sbu_0, # of connection points: 4
#     Node 7, Type 0, BuildingBlock: GALJAG_clean_sbu_0, # of connection points: 4
#     Node 8, Type 0, BuildingBlock: GALJAG_clean_sbu_0, # of connection points: 4
#     Node 9, Type 0, BuildingBlock: GALJAG_clean_sbu_0, # of connection points: 4
#     Node 10, Type 0, BuildingBlock: GALJAG_clean_sbu_0, # of connection points: 4
#     Node 11, Type 0, BuildingBlock: GALJAG_clean_sbu_0, # of connection points: 4
#     Node 12, Type 0, BuildingBlock: GALJAG_clean_sbu_0, # of connection points: 4
#     Node 13, Type 0, BuildingBlock: GALJAG_clean_sbu_0, # of connection points: 4
#     Node 14, Type 0, BuildingBlock: GALJAG_clean_sbu_0, # of connection points: 4
#     Node 15, Type 0, BuildingBlock: GALJAG_clean_sbu_0, # of connection points: 4
#     Node 16, Type 0, BuildingBlock: GALJAG_clean_sbu_0, # of connection points: 4
#     Node 17, Type 0, BuildingBlock: GALJAG_clean_sbu_0, # of connection points: 4
#     Node 18, Type 0, BuildingBlock: GALJAG_clean_sbu_0, # of connection points: 4
#     Node 19, Type 0, BuildingBlock: GALJAG_clean_sbu_0, # of connection points: 4
#     Node 20, Type 0, BuildingBlock: GALJAG_clean_sbu_0, # of connection points: 4
#     Node 21, Type 0, BuildingBlock: GALJAG_clean_sbu_0, # of connection points: 4
#     Node 22, Type 0, BuildingBlock: GALJAG_clean_sbu_0, # of connection points: 4
#     Node 23, Type 0, BuildingBlock: GALJAG_clean_sbu_0, # of connection points: 4
#     Node 24, Type 0, BuildingBlock: GALJAG_clean_sbu_0, # of connection points: 4
#     Node 25, Type 0, BuildingBlock: GALJAG_clean_sbu_0, # of connection points: 4
#     Node 26, Type 0, BuildingBlock: GALJAG_clean_sbu_0, # of connection points: 4
#     Node 27, Type 0, BuildingBlock: GALJAG_clean_sbu_0, # of connection points: 4
#     Node 28, Type 0, BuildingBlock: GALJAG_clean_sbu_0, # of connection points: 4
#     Node 29, Type 0, BuildingBlock: GALJAG_clean_sbu_0, # of connection points: 4
#     Node 30, Type 0, BuildingBlock: GALJAG_clean_sbu_0, # of connection points: 4
#     Node 31, Type 0, BuildingBlock: GALJAG_clean_sbu_0, # of connection points: 4
#     Edge 32, Type (0, 0), BuildingBlock: TEMPAE_clean_linker_10, # of connection points: 2
#     Edge 33, Type (0, 0), BuildingBlock: TEMPAE_clean_linker_10, # of connection points: 2
#     Edge 34, Type (0, 0), BuildingBlock: TEMPAE_clean_linker_10, # of connection points: 2
#     Edge 35, Type (0, 0), BuildingBlock: TEMPAE_clean_linker_10, # of connection points: 2
#     Edge 36, Type (0, 0), BuildingBlock: TEMPAE_clean_linker_10, # of connection points: 2
#     Edge 37, Type (0, 0), BuildingBlock: TEMPAE_clean_linker_10, # of connection points: 2
#     Edge 38, Type (0, 0), BuildingBlock: TEMPAE_clean_linker_10, # of connection points: 2
#     Edge 39, Type (0, 0), BuildingBlock: TEMPAE_clean_linker_10, # of connection points: 2
#     Edge 40, Type (0, 0), BuildingBlock: TEMPAE_clean_linker_10, # of connection points: 2
#     Edge 41, Type (0, 0), BuildingBlock: TEMPAE_clean_linker_10, # of connection points: 2
#     Edge 42, Type (0, 0), BuildingBlock: TEMPAE_clean_linker_10, # of connection points: 2
#     Edge 43, Type (0, 0), BuildingBlock: TEMPAE_clean_linker_10, # of connection points: 2
#     Edge 44, Type (0, 0), BuildingBlock: TEMPAE_clean_linker_10, # of connection points: 2
#     Edge 45, Type (0, 0), BuildingBlock: TEMPAE_clean_linker_10, # of connection points: 2
#     Edge 46, Type (0, 0), BuildingBlock: TEMPAE_clean_linker_10, # of connection points: 2
#     Edge 47, Type (0, 0), BuildingBlock: TEMPAE_clean_linker_10, # of connection points: 2
#     Edge 48, Type (0, 0), BuildingBlock: TEMPAE_clean_linker_10, # of connection points: 2
#     Edge 49, Type (0, 0), BuildingBlock: TEMPAE_clean_linker_10, # of connection points: 2
#     Edge 50, Type (0, 0), BuildingBlock: TEMPAE_clean_linker_10, # of connection points: 2
#     Edge 51, Type (0, 0), BuildingBlock: TEMPAE_clean_linker_10, # of connection points: 2
#     Edge 52, Type (0, 0), BuildingBlock: TEMPAE_clean_linker_10, # of connection points: 2
#     Edge 53, Type (0, 0), BuildingBlock: TEMPAE_clean_linker_10, # of connection points: 2
#     Edge 54, Type (0, 0), BuildingBlock: TEMPAE_clean_linker_10, # of connection points: 2
#     Edge 55, Type (0, 0), BuildingBlock: TEMPAE_clean_linker_10, # of connection points: 2
#     Edge 56, Type (0, 0), BuildingBlock: TEMPAE_clean_linker_10, # of connection points: 2
#     Edge 57, Type (0, 0), BuildingBlock: TEMPAE_clean_linker_10, # of connection points: 2
#     Edge 58, Type (0, 0), BuildingBlock: TEMPAE_clean_linker_10, # of connection points: 2
#     Edge 59, Type (0, 0), BuildingBlock: TEMPAE_clean_linker_10, # of connection points: 2
#     Edge 60, Type (0, 0), BuildingBlock: TEMPAE_clean_linker_10, # of connection points: 2
#     Edge 61, Type (0, 0), BuildingBlock: TEMPAE_clean_linker_10, # of connection points: 2
#     Edge 62, Type (0, 0), BuildingBlock: TEMPAE_clean_linker_10, # of connection points: 2
#     Edge 63, Type (0, 0), BuildingBlock: TEMPAE_clean_linker_10, # of connection points: 2
#     Edge 64, Type (0, 0), BuildingBlock: TEMPAE_clean_linker_10, # of connection points: 2
#     Edge 65, Type (0, 0), BuildingBlock: TEMPAE_clean_linker_10, # of connection points: 2
#     Edge 66, Type (0, 0), BuildingBlock: TEMPAE_clean_linker_10, # of connection points: 2
#     Edge 67, Type (0, 0), BuildingBlock: TEMPAE_clean_linker_10, # of connection points: 2
#     Edge 68, Type (0, 0), BuildingBlock: TEMPAE_clean_linker_10, # of connection points: 2
#     Edge 69, Type (0, 0), BuildingBlock: TEMPAE_clean_linker_10, # of connection points: 2
#     Edge 70, Type (0, 0), BuildingBlock: TEMPAE_clean_linker_10, # of connection points: 2
#     Edge 71, Type (0, 0), BuildingBlock: TEMPAE_clean_linker_10, # of connection points: 2
#     Edge 72, Type (0, 0), BuildingBlock: TEMPAE_clean_linker_10, # of connection points: 2
#     Edge 73, Type (0, 0), BuildingBlock: TEMPAE_clean_linker_10, # of connection points: 2
#     Edge 74, Type (0, 0), BuildingBlock: TEMPAE_clean_linker_10, # of connection points: 2
#     Edge 75, Type (0, 0), BuildingBlock: TEMPAE_clean_linker_10, # of connection points: 2
#     Edge 76, Type (0, 0), BuildingBlock: TEMPAE_clean_linker_10, # of connection points: 2
#     Edge 77, Type (0, 0), BuildingBlock: TEMPAE_clean_linker_10, # of connection points: 2
#     Edge 78, Type (0, 0), BuildingBlock: TEMPAE_clean_linker_10, # of connection points: 2
#     Edge 79, Type (0, 0), BuildingBlock: TEMPAE_clean_linker_10, # of connection points: 2
#     Edge 80, Type (0, 0), BuildingBlock: TEMPAE_clean_linker_10, # of connection points: 2
#     Edge 81, Type (0, 0), BuildingBlock: TEMPAE_clean_linker_10, # of connection points: 2
#     Edge 82, Type (0, 0), BuildingBlock: TEMPAE_clean_linker_10, # of connection points: 2
#     Edge 83, Type (0, 0), BuildingBlock: TEMPAE_clean_linker_10, # of connection points: 2
#     Edge 84, Type (0, 0), BuildingBlock: TEMPAE_clean_linker_10, # of connection points: 2
#     Edge 85, Type (0, 0), BuildingBlock: TEMPAE_clean_linker_10, # of connection points: 2
#     Edge 86, Type (0, 0), BuildingBlock: TEMPAE_clean_linker_10, # of connection points: 2
#     Edge 87, Type (0, 0), BuildingBlock: TEMPAE_clean_linker_10, # of connection points: 2
#     Edge 88, Type (0, 0), BuildingBlock: TEMPAE_clean_linker_10, # of connection points: 2
#     Edge 89, Type (0, 0), BuildingBlock: TEMPAE_clean_linker_10, # of connection points: 2
#     Edge 90, Type (0, 0), BuildingBlock: TEMPAE_clean_linker_10, # of connection points: 2
#     Edge 91, Type (0, 0), BuildingBlock: TEMPAE_clean_linker_10, # of connection points: 2
#     Edge 92, Type (0, 0), BuildingBlock: TEMPAE_clean_linker_10, # of connection points: 2
#     Edge 93, Type (0, 0), BuildingBlock: TEMPAE_clean_linker_10, # of connection points: 2
#     Edge 94, Type (0, 0), BuildingBlock: TEMPAE_clean_linker_10, # of connection points: 2
#     Edge 95, Type (0, 0), BuildingBlock: TEMPAE_clean_linker_10, # of connection points: 2
# Relax obj value: 0.107
# Max RMSD: 0.085
# Mean RMSD: 0.085
data_MOF--net-umq--node1-GALJAG_clean_sbu_0--edge1-TEMPAE_clean_linker_10
_symmetry_space_group_name_H-M    P1
_symmetry_Int_Tables_number       1
_symmetry_cell_setting            triclinic
loop_
_symmetry_equiv_pos_as_xyz
'x, y, z'
_cell_length_a     63.82228
_cell_length_b     63.818129
_cell_length_c     48.508563
_cell_angle_alpha  90.005017
_cell_angle_beta   90.00092
_cell_angle_gamma 89.984125
loop_
_atom_site_label
_atom_site_type_symbol
_atom_site_fract_x
_atom_site_fract_y
_atom_site_fract_z
_atom_type_partial_charge
In0 In 0.23547 0.09355 0.15679 0.0
O1 O 0.21312 0.12085 0.16592 0.0
O2 O 0.21287 0.09497 0.1932 0.0
C3 C 0.22248 0.08702 0.10441 0.0
C4 C 0.24279 0.05654 0.18143 0.0
C5 C 0.27088 0.11695 0.15597 0.0
O6 O 0.21758 0.10315 0.11797 0.0
O7 O 0.23348 0.07396 0.11748 0.0
O8 O 0.2594 0.1153 0.17698 0.0
O9 O 0.26476 0.10647 0.1355 0.0
C10 C 0.20568 0.11281 0.18754 0.0
O11 O 0.25628 0.07102 0.18081 0.0
O12 O 0.22589 0.06058 0.16897 0.0
In13 In 0.90395 0.22941 0.15652 0.0
O14 O 0.88235 0.2011 0.16236 0.0
O15 O 0.90079 0.21107 0.1964 0.0
C16 C 0.90822 0.22284 0.10161 0.0
C17 C 0.94159 0.23796 0.17932 0.0
C18 C 0.87539 0.2603 0.16142 0.0
O19 O 0.91232 0.20876 0.11905 0.0
O20 O 0.90218 0.23989 0.1119 0.0
O21 O 0.89363 0.26347 0.15226 0.0
O22 O 0.87164 0.24163 0.16835 0.0
C23 C 0.8873 0.1984 0.18735 0.0
O24 O 0.92566 0.24927 0.18312 0.0
O25 O 0.93872 0.22271 0.16324 0.0
In26 In 0.76068 0.90354 0.15543 0.0
O27 O 0.74207 0.92476 0.18424 0.0
O28 O 0.76824 0.938 0.16384 0.0
C29 C 0.72941 0.87525 0.15308 0.0
C30 C 0.7896 0.88468 0.18762 0.0
C31 C 0.76872 0.91018 0.10138 0.0
O32 O 0.72632 0.89469 0.15038 0.0
O33 O 0.74829 0.87008 0.15687 0.0
O34 O 0.78278 0.91165 0.11957 0.0
O35 O 0.75082 0.90568 0.11054 0.0
C36 C 0.75348 0.94062 0.18074 0.0
O37 O 0.79168 0.88607 0.16179 0.0
O38 O 0.77307 0.89279 0.197 0.0
In39 In 0.09381 0.77043 0.15749 0.0
O40 O 0.12064 0.79353 0.16569 0.0
O41 O 0.09301 0.79691 0.18925 0.0
C42 C 0.08396 0.77499 0.10378 0.0
C43 C 0.05749 0.75961 0.182 0.0
C44 C 0.12288 0.73971 0.15998 0.0
O45 O 0.08847 0.79048 0.11891 0.0
O46 O 0.08385 0.75754 0.11599 0.0
O47 O 0.11096 0.74397 0.17997 0.0
O48 O 0.12015 0.75096 0.13894 0.0
C49 C 0.11135 0.80321 0.18472 0.0
O50 O 0.07454 0.75028 0.18676 0.0
O51 O 0.05865 0.77402 0.16424 0.0
In52 In 0.23283 0.90154 0.34374 0.0
O53 O 0.21268 0.87358 0.33123 0.0
O54 O 0.2027 0.90366 0.31825 0.0
C55 C 0.2226 0.90721 0.39738 0.0
C56 C 0.24198 0.93501 0.3121 0.0
C57 C 0.26874 0.87908 0.34454 0.0
O58 O 0.21883 0.89045 0.38456 0.0
O59 O 0.23112 0.92129 0.38301 0.0
O60 O 0.2653 0.89381 0.36128 0.0
O61 O 0.25428 0.87599 0.32733 0.0
C62 C 0.19955 0.88418 0.31774 0.0
O63 O 0.24988 0.91717 0.30798 0.0
O64 O 0.22977 0.93607 0.33254 0.0
In65 In 0.09621 0.23013 0.34307 0.0
O66 O 0.06128 0.22906 0.333 0.0
O67 O 0.08173 0.2431 0.3038 0.0
C68 C 0.12025 0.26458 0.34883 0.0
C69 C 0.11853 0.2002 0.31639 0.0
C70 C 0.08422 0.22123 0.39518 0.0
O71 O 0.10484 0.26389 0.33254 0.0
O72 O 0.12343 0.24795 0.36227 0.0
O73 O 0.09153 0.20745 0.37917 0.0
O74 O 0.08242 0.23919 0.38461 0.0
C75 C 0.06325 0.23788 0.30985 0.0
O76 O 0.0989 0.19941 0.31884 0.0
O77 O 0.12692 0.21567 0.32811 0.0
In78 In 0.76349 0.09711 0.34188 0.0
O79 O 0.79508 0.09733 0.31939 0.0
O80 O 0.78003 0.12644 0.32632 0.0
C81 C 0.77397 0.09243 0.3955 0.0
C82 C 0.756 0.06318 0.31018 0.0
C83 C 0.72653 0.1176 0.34401 0.0
O84 O 0.77661 0.10936 0.38255 0.0
O85 O 0.76646 0.0777 0.38126 0.0
O86 O 0.73997 0.12068 0.32539 0.0
O87 O 0.73147 0.10372 0.36138 0.0
C88 C 0.79538 0.11689 0.3159 0.0
O89 O 0.74627 0.08021 0.30719 0.0
O90 O 0.7692 0.06312 0.32953 0.0
In91 In 0.89863 0.76383 0.33913 0.0
O92 O 0.89005 0.79759 0.32712 0.0
O93 O 0.87864 0.77262 0.30237 0.0
C94 C 0.9065 0.77274 0.39267 0.0
C95 C 0.93323 0.75828 0.3082 0.0
C96 C 0.87304 0.73065 0.34596 0.0
O97 O 0.88976 0.77802 0.38076 0.0
O98 O 0.91949 0.76338 0.37746 0.0
O99 O 0.89273 0.7287 0.34541 0.0
O100 O 0.86652 0.74918 0.34336 0.0
C101 C 0.87938 0.7921 0.3064 0.0
O102 O 0.9187 0.7449 0.30926 0.0
O103 O 0.93044 0.77426 0.3231 0.0
In104 In 0.77308 0.90563 0.84269 0.0
O105 O 0.80599 0.89519 0.82929 0.0
O106 O 0.77978 0.88237 0.80842 0.0
C107 C 0.7824 0.91306 0.89609 0.0
C108 C 0.76947 0.9427 0.81646 0.0
C109 C 0.73865 0.8812 0.84603 0.0
O110 O 0.78976 0.89768 0.88288 0.0
O111 O 0.77076 0.92503 0.88213 0.0
O112 O 0.7417 0.8938 0.8264 0.0
O113 O 0.75279 0.88115 0.86418 0.0
C114 C 0.79941 0.88315 0.81057 0.0
O115 O 0.75387 0.93292 0.8259 0.0
O116 O 0.78692 0.93409 0.82099 0.0
In117 In 0.09715 0.7655 0.84475 0.0
O118 O 0.08082 0.74982 0.80858 0.0
O119 O 0.06363 0.77254 0.8313 0.0
C120 C 0.12047 0.73096 0.85407 0.0
C121 C 0.11735 0.79396 0.81325 0.0
C122 C 0.08885 0.77562 0.89768 0.0
O123 O 0.10134 0.72989 0.84756 0.0
O124 O 0.12755 0.74932 0.85623 0.0
O125 O 0.10472 0.7823 0.88495 0.0
O126 O 0.07682 0.76419 0.88355 0.0
C127 C 0.06396 0.75993 0.81124 0.0
O128 O 0.10309 0.79918 0.82992 0.0
O129 O 0.12144 0.77467 0.8129 0.0
In130 In 0.23607 0.09402 0.84517 0.0
O131 O 0.20453 0.10921 0.83455 0.0
O132 O 0.22648 0.10396 0.80228 0.0
C133 C 0.22852 0.08602 0.8989 0.0
C134 C 0.24414 0.05759 0.81911 0.0
C135 C 0.26416 0.12528 0.84955 0.0
O136 O 0.21385 0.08854 0.88175 0.0
O137 O 0.24666 0.08698 0.88874 0.0
O138 O 0.26947 0.10623 0.84922 0.0
O139 O 0.24471 0.12854 0.84783 0.0
C140 C 0.20874 0.11087 0.80916 0.0
O141 O 0.25619 0.0732 0.81788 0.0
O142 O 0.22842 0.06 0.83456 0.0
In143 In 0.90288 0.2315 0.8429 0.0
O144 O 0.88498 0.20213 0.83014 0.0
O145 O 0.88657 0.2274 0.80159 0.0
C146 C 0.91074 0.21999 0.89559 0.0
C147 C 0.93967 0.22939 0.81603 0.0
C148 C 0.87939 0.26657 0.84827 0.0
O149 O 0.89613 0.21218 0.88147 0.0
O150 O 0.92177 0.23326 0.88293 0.0
O151 O 0.89703 0.26663 0.83656 0.0
O152 O 0.8738 0.24896 0.85738 0.0
C153 C 0.88018 0.20908 0.80659 0.0
O154 O 0.9329 0.24628 0.82628 0.0
O155 O 0.92837 0.21353 0.82046 0.0
In156 In 0.76071 0.1002 0.65491 0.0
O157 O 0.79439 0.10781 0.66815 0.0
O158 O 0.77084 0.13076 0.6746 0.0
C159 C 0.76796 0.09059 0.60157 0.0
C160 C 0.759 0.0667 0.68899 0.0
C161 C 0.72459 0.12198 0.65313 0.0
O162 O 0.78222 0.09727 0.61732 0.0
O163 O 0.75036 0.08821 0.61297 0.0
O164 O 0.72661 0.10564 0.66758 0.0
O165 O 0.7406 0.12697 0.63937 0.0
C166 C 0.78977 0.12568 0.67752 0.0
O167 O 0.76055 0.06479 0.66319 0.0
O168 O 0.758 0.08533 0.69734 0.0
In169 In 0.90642 0.7648 0.65259 0.0
O170 O 0.93066 0.74509 0.67527 0.0
O171 O 0.93863 0.77658 0.66599 0.0
C172 C 0.87617 0.7355 0.64954 0.0
C173 C 0.88697 0.7926 0.68595 0.0
C174 C 0.91572 0.7694 0.59872 0.0
O175 O 0.89244 0.7332 0.664 0.0
O176 O 0.87513 0.75259 0.63652 0.0
O177 O 0.91063 0.78469 0.61383 0.0
O178 O 0.91676 0.752 0.61102 0.0
C179 C 0.94393 0.75962 0.67734 0.0
O180 O 0.89179 0.79701 0.6614 0.0
O181 O 0.89194 0.77438 0.69339 0.0
In182 In 0.23432 0.90203 0.65786 0.0
O183 O 0.20217 0.88694 0.66494 0.0
O184 O 0.22165 0.89268 0.69967 0.0
C185 C 0.22839 0.91021 0.60371 0.0
C186 C 0.24277 0.938 0.68493 0.0
C187 C 0.26261 0.87069 0.65594 0.0
O188 O 0.21328 0.90823 0.6203 0.0
O189 O 0.24624 0.90862 0.6146 0.0
O190 O 0.26778 0.88976 0.65543 0.0
O191 O 0.24315 0.8674 0.65713 0.0
C192 C 0.20449 0.88563 0.69076 0.0
O193 O 0.25389 0.92179 0.68704 0.0
O194 O 0.22769 0.93642 0.66822 0.0
In195 In 0.09578 0.22317 0.65211 0.0
O196 O 0.10652 0.19031 0.66444 0.0
O197 O 0.12463 0.21631 0.67795 0.0
C198 C 0.08791 0.21071 0.5999 0.0
C199 C 0.0612 0.22427 0.68403 0.0
C200 C 0.11492 0.26096 0.64938 0.0
O201 O 0.1056 0.20889 0.61121 0.0
O202 O 0.07379 0.21813 0.6153 0.0
O203 O 0.10633 0.25429 0.67106 0.0
O204 O 0.11341 0.24883 0.62901 0.0
C205 C 0.12204 0.19672 0.67821 0.0
O206 O 0.06403 0.23719 0.66466 0.0
O207 O 0.07536 0.21068 0.68654 0.0
In208 In 0.73392 0.59593 0.65716 0.0
O209 O 0.70089 0.60744 0.66801 0.0
O210 O 0.72551 0.61288 0.69668 0.0
C211 C 0.72629 0.58745 0.6035 0.0
C212 C 0.74145 0.56033 0.68577 0.0
C213 C 0.76311 0.62587 0.64993 0.0
O214 O 0.7119 0.59274 0.61994 0.0
O215 O 0.74418 0.58598 0.6143 0.0
O216 O 0.76764 0.60664 0.65107 0.0
O217 O 0.74384 0.62999 0.65215 0.0
C218 C 0.70637 0.6151 0.69094 0.0
O219 O 0.75323 0.57611 0.68685 0.0
O220 O 0.72606 0.56224 0.66969 0.0
In221 In 0.40233 0.72765 0.6566 0.0
O222 O 0.37955 0.70007 0.66273 0.0
O223 O 0.40024 0.70756 0.6953 0.0
C224 C 0.41324 0.72372 0.60314 0.0
C225 C 0.43908 0.73839 0.67971 0.0
C226 C 0.37126 0.75633 0.65809 0.0
O227 O 0.41093 0.70796 0.61864 0.0
O228 O 0.41068 0.74116 0.61486 0.0
O229 O 0.38551 0.75559 0.67607 0.0
O230 O 0.37258 0.74251 0.63962 0.0
C231 C 0.38556 0.6961 0.68692 0.0
O232 O 0.42322 0.75021 0.68024 0.0
O233 O 0.43661 0.72146 0.66661 0.0
In234 In 0.25408 0.40322 0.65707 0.0
O235 O 0.2371 0.42405 0.68801 0.0
O236 O 0.26282 0.43724 0.66658 0.0
C237 C 0.22285 0.37517 0.65143 0.0
C238 C 0.28197 0.38456 0.69098 0.0
C239 C 0.26217 0.40952 0.60303 0.0
O240 O 0.2195 0.39457 0.654 0.0
O241 O 0.24194 0.37 0.65138 0.0
O242 O 0.27563 0.40213 0.61941 0.0
O243 O 0.24485 0.4141 0.61401 0.0
C244 C 0.24878 0.43971 0.68455 0.0
O245 O 0.28743 0.39342 0.66885 0.0
O246 O 0.26258 0.38508 0.69579 0.0
In247 In 0.59832 0.27304 0.66394 0.0
O248 O 0.58186 0.26177 0.70259 0.0
O249 O 0.56279 0.27055 0.66855 0.0
C250 C 0.61869 0.23626 0.66872 0.0
C251 C 0.61666 0.30666 0.68813 0.0
C252 C 0.59496 0.28108 0.60926 0.0
O253 O 0.60166 0.23798 0.65564 0.0
O254 O 0.62512 0.25298 0.67974 0.0
O255 O 0.58202 0.28822 0.62653 0.0
O256 O 0.60958 0.27049 0.61968 0.0
C257 C 0.5636 0.26415 0.69317 0.0
O258 O 0.62639 0.29453 0.67215 0.0
O259 O 0.59753 0.30243 0.69085 0.0
In260 In 0.73705 0.40513 0.84836 0.0
O261 O 0.70787 0.40738 0.82117 0.0
O262 O 0.71619 0.37744 0.83655 0.0
C263 C 0.72772 0.41029 0.90239 0.0
C264 C 0.74505 0.43998 0.81884 0.0
C265 C 0.77215 0.38146 0.84618 0.0
O266 O 0.72209 0.39442 0.88879 0.0
O267 O 0.73769 0.42375 0.88864 0.0
O268 O 0.7576 0.38014 0.82872 0.0
O269 O 0.76925 0.39509 0.86463 0.0
C270 C 0.70396 0.38804 0.82166 0.0
O271 O 0.75516 0.42316 0.81556 0.0
O272 O 0.73135 0.43937 0.83759 0.0
In273 In 0.59748 0.74019 0.83684 0.0
O274 O 0.61224 0.70764 0.83143 0.0
O275 O 0.61208 0.72831 0.79714 0.0
C276 C 0.58858 0.73397 0.89072 0.0
C277 C 0.56176 0.74681 0.80806 0.0
C278 C 0.62644 0.77066 0.84144 0.0
O279 O 0.5895 0.71904 0.87369 0.0
O280 O 0.59173 0.75183 0.88046 0.0
O281 O 0.60704 0.77446 0.8402 0.0
O282 O 0.63122 0.75147 0.84055 0.0
C283 C 0.6171 0.7106 0.8065 0.0
O284 O 0.57816 0.75738 0.80441 0.0
O285 O 0.56311 0.73325 0.82686 0.0
In286 In 0.26471 0.59555 0.84626 0.0
O287 O 0.24582 0.57789 0.81387 0.0
O288 O 0.27083 0.56172 0.83337 0.0
C289 C 0.22872 0.61778 0.84772 0.0
C290 C 0.29637 0.61493 0.81931 0.0
C291 C 0.2752 0.58981 0.89974 0.0
O292 O 0.23391 0.60535 0.86676 0.0
O293 O 0.24146 0.61864 0.82788 0.0
O294 O 0.28036 0.60596 0.88637 0.0
O295 O 0.26518 0.57637 0.88597 0.0
C296 C 0.25637 0.56125 0.81565 0.0
O297 O 0.29531 0.59529 0.82159 0.0
O298 O 0.28198 0.62475 0.83152 0.0
In299 In 0.39986 0.27151 0.84214 0.0
O300 O 0.38437 0.30351 0.83444 0.0
O301 O 0.38223 0.2803 0.80326 0.0
C302 C 0.4107 0.27596 0.89557 0.0
C303 C 0.43685 0.26747 0.81573 0.0
C304 C 0.37105 0.24089 0.84573 0.0
O305 O 0.40403 0.29111 0.8813 0.0
O306 O 0.41242 0.25889 0.88266 0.0
O307 O 0.38611 0.24029 0.8289 0.0
O308 O 0.37047 0.25699 0.86083 0.0
C309 C 0.37765 0.2986 0.81083 0.0
O310 O 0.42511 0.25212 0.82095 0.0
O311 O 0.43022 0.28485 0.82449 0.0
In312 In 0.26564 0.40044 0.34264 0.0
O313 O 0.29976 0.3907 0.33403 0.0
O314 O 0.27676 0.38509 0.30331 0.0
C315 C 0.27415 0.40497 0.39693 0.0
C316 C 0.25843 0.43594 0.31414 0.0
C317 C 0.23236 0.37456 0.34557 0.0
O318 O 0.27598 0.38775 0.38442 0.0
O319 O 0.26863 0.42012 0.3819 0.0
O320 O 0.23126 0.39352 0.35291 0.0
O321 O 0.25009 0.36887 0.33693 0.0
C322 C 0.29567 0.38355 0.31035 0.0
O323 O 0.24533 0.42118 0.31537 0.0
O324 O 0.2749 0.4331 0.32806 0.0
In325 In 0.59331 0.26297 0.35103 0.0
O326 O 0.55861 0.26715 0.34072 0.0
O327 O 0.57746 0.24966 0.31292 0.0
C328 C 0.61628 0.22802 0.35905 0.0
C329 C 0.61451 0.29076 0.31961 0.0
C330 C 0.58539 0.27432 0.4037 0.0
O331 O 0.59791 0.22745 0.34942 0.0
O332 O 0.62278 0.24612 0.36506 0.0
O333 O 0.59684 0.28501 0.38785 0.0
O334 O 0.57753 0.2582 0.39277 0.0
C335 C 0.55963 0.25708 0.31836 0.0
O336 O 0.59716 0.29518 0.33064 0.0
O337 O 0.62124 0.27267 0.32501 0.0
In338 In 0.72732 0.5966 0.34413 0.0
O339 O 0.69418 0.60636 0.33053 0.0
O340 O 0.72001 0.62185 0.31242 0.0
C341 C 0.71765 0.59001 0.39755 0.0
C342 C 0.73142 0.56 0.31686 0.0
C343 C 0.76348 0.61837 0.34825 0.0
O344 O 0.71309 0.60672 0.38496 0.0
O345 O 0.72677 0.57634 0.38301 0.0
O346 O 0.7581 0.60889 0.32656 0.0
O347 O 0.75074 0.61669 0.36799 0.0
C348 C 0.70044 0.61985 0.31346 0.0
O349 O 0.74682 0.57143 0.32295 0.0
O350 O 0.71397 0.56658 0.32544 0.0
In351 In 0.40099 0.73241 0.34478 0.0
O352 O 0.39663 0.69909 0.32796 0.0
O353 O 0.37289 0.72157 0.32001 0.0
C354 C 0.41075 0.72206 0.39721 0.0
C355 C 0.43304 0.73697 0.30912 0.0
C356 C 0.37897 0.76803 0.35326 0.0
O357 O 0.39594 0.71358 0.38411 0.0
O358 O 0.42105 0.73542 0.38365 0.0
O359 O 0.39683 0.76809 0.34209 0.0
O360 O 0.37257 0.75019 0.36047 0.0
C361 C 0.37931 0.70309 0.31657 0.0
O362 O 0.41468 0.74308 0.30388 0.0
O363 O 0.4354 0.72893 0.33271 0.0
In364 In 0.26209 0.59595 0.16056 0.0
O365 O 0.24373 0.57539 0.19018 0.0
O366 O 0.26824 0.56101 0.16743 0.0
C367 C 0.23233 0.62596 0.16209 0.0
C368 C 0.29279 0.61219 0.19232 0.0
C369 C 0.26805 0.58924 0.10605 0.0
O370 O 0.22801 0.60673 0.16016 0.0
O371 O 0.25164 0.63006 0.16314 0.0
O372 O 0.28296 0.58878 0.12314 0.0
O373 O 0.25032 0.59262 0.11658 0.0
C374 C 0.25416 0.55901 0.18552 0.0
O375 O 0.29246 0.61459 0.16647 0.0
O376 O 0.27786 0.60151 0.20184 0.0
In377 In 0.40377 0.26534 0.15596 0.0
O378 O 0.39505 0.29896 0.1682 0.0
O379 O 0.38639 0.27417 0.19504 0.0
C380 C 0.40936 0.27461 0.10202 0.0
C381 C 0.43956 0.25978 0.18435 0.0
C382 C 0.37828 0.23179 0.15131 0.0
O383 O 0.39272 0.27871 0.11489 0.0
O384 O 0.42345 0.26614 0.11643 0.0
O385 O 0.39799 0.23004 0.15196 0.0
O386 O 0.37162 0.25035 0.15275 0.0
C387 C 0.38633 0.2936 0.19047 0.0
O388 O 0.42552 0.2459 0.18288 0.0
O389 O 0.4358 0.27625 0.17079 0.0
In390 In 0.7315 0.39913 0.16318 0.0
O391 O 0.70128 0.37971 0.16794 0.0
O392 O 0.71619 0.39101 0.20398 0.0
C393 C 0.72839 0.40908 0.10924 0.0
C394 C 0.7368 0.43595 0.18936 0.0
C395 C 0.76201 0.36991 0.16339 0.0
O396 O 0.71247 0.40682 0.12443 0.0
O397 O 0.74569 0.40693 0.12147 0.0
O398 O 0.76469 0.38819 0.17261 0.0
O399 O 0.74394 0.36633 0.15396 0.0
C400 C 0.70124 0.38073 0.19391 0.0
O401 O 0.74837 0.42025 0.19344 0.0
O402 O 0.72289 0.43342 0.17114 0.0
In403 In 0.59069 0.73188 0.15049 0.0
O404 O 0.60313 0.69949 0.16316 0.0
O405 O 0.60882 0.72521 0.18978 0.0
C406 C 0.58373 0.72366 0.09666 0.0
C407 C 0.55281 0.7347 0.17464 0.0
C408 C 0.61664 0.76522 0.14727 0.0
O409 O 0.5982 0.71504 0.11029 0.0
O410 O 0.57236 0.73605 0.11037 0.0
O411 O 0.60129 0.76459 0.1636 0.0
O412 O 0.61872 0.74921 0.13232 0.0
C413 C 0.61108 0.70591 0.18543 0.0
O414 O 0.56362 0.75058 0.1685 0.0
O415 O 0.56076 0.71738 0.16761 0.0
C416 C 0.37167 0.19312 0.15233 0.0
C417 C 0.36397 0.21362 0.15003 0.0
C418 C 0.35795 0.1759 0.15267 0.0
C419 C 0.33609 0.17934 0.15049 0.0
C420 C 0.32832 0.19999 0.14752 0.0
C421 C 0.34234 0.21688 0.14742 0.0
C422 C 0.36678 0.1541 0.15598 0.0
C423 C 0.30512 0.2043 0.14493 0.0
C424 C 0.29851 0.13608 0.12958 0.0
C425 C 0.28912 0.13117 0.1549 0.0
C426 C 0.31439 0.15124 0.12792 0.0
C427 C 0.32114 0.16153 0.1522 0.0
C428 C 0.31238 0.1559 0.17798 0.0
C429 C 0.29637 0.14087 0.17899 0.0
C430 C 0.32325 0.15692 0.10005 0.0
C431 C 0.31934 0.16635 0.20437 0.0
H432 H 0.38838 0.19055 0.15439 0.0
H433 H 0.33632 0.23269 0.14553 0.0
H434 H 0.36097 0.1471 0.17547 0.0
H435 H 0.36135 0.1439 0.1389 0.0
H436 H 0.38419 0.15401 0.15632 0.0
H437 H 0.30171 0.22119 0.14164 0.0
H438 H 0.29848 0.19528 0.12744 0.0
H439 H 0.29692 0.19909 0.16389 0.0
H440 H 0.29292 0.12862 0.11089 0.0
H441 H 0.28924 0.13701 0.19863 0.0
H442 H 0.34062 0.15635 0.10051 0.0
H443 H 0.3187 0.17321 0.09475 0.0
H444 H 0.31756 0.14632 0.08349 0.0
H445 H 0.33665 0.16572 0.20626 0.0
H446 H 0.31229 0.15893 0.2229 0.0
H447 H 0.31476 0.18312 0.20402 0.0
C448 C 0.86149 0.29514 0.14707 0.0
C449 C 0.85937 0.27691 0.16289 0.0
C450 C 0.84579 0.31054 0.14711 0.0
C451 C 0.82783 0.30779 0.16386 0.0
C452 C 0.82588 0.28961 0.18039 0.0
C453 C 0.84159 0.27425 0.17946 0.0
C454 C 0.84822 0.32953 0.12881 0.0
C455 C 0.80717 0.28635 0.19895 0.0
C456 C 0.79591 0.35617 0.18137 0.0
C457 C 0.77877 0.35402 0.16355 0.0
C458 C 0.8119 0.34109 0.18194 0.0
C459 C 0.81091 0.32377 0.16376 0.0
C460 C 0.79373 0.32167 0.14549 0.0
C461 C 0.77771 0.33672 0.14585 0.0
C462 C 0.82974 0.3436 0.20212 0.0
C463 C 0.79237 0.30363 0.12541 0.0
H464 H 0.87518 0.29714 0.1341 0.0
H465 H 0.83999 0.26018 0.19181 0.0
H466 H 0.83496 0.33034 0.11404 0.0
H467 H 0.84776 0.34403 0.14139 0.0
H468 H 0.86312 0.32928 0.11697 0.0
H469 H 0.80851 0.27182 0.21144 0.0
H470 H 0.8054 0.29989 0.21312 0.0
H471 H 0.79267 0.28541 0.18641 0.0
H472 H 0.79667 0.3695 0.1952 0.0
H473 H 0.76451 0.33513 0.13193 0.0
H474 H 0.84481 0.34478 0.19086 0.0
H475 H 0.83073 0.32959 0.21561 0.0
H476 H 0.82791 0.35772 0.2153 0.0
H477 H 0.80649 0.30338 0.11207 0.0
H478 H 0.77825 0.3046 0.11207 0.0
H479 H 0.79196 0.28856 0.13678 0.0
C480 C 0.64599 0.78466 0.12497 0.0
C481 C 0.63174 0.78272 0.14679 0.0
C482 C 0.66128 0.80045 0.12506 0.0
C483 C 0.66256 0.81432 0.14778 0.0
C484 C 0.64799 0.81261 0.16967 0.0
C485 C 0.63261 0.79692 0.16879 0.0
C486 C 0.6763 0.80204 0.1011 0.0
C487 C 0.64907 0.82692 0.19443 0.0
C488 C 0.71542 0.83938 0.16167 0.0
C489 C 0.7123 0.85975 0.15175 0.0
C490 C 0.69927 0.8245 0.16077 0.0
C491 C 0.67968 0.83006 0.14916 0.0
C492 C 0.67651 0.85057 0.13887 0.0
C493 C 0.69282 0.86526 0.14054 0.0
C494 C 0.70313 0.80288 0.17236 0.0
C495 C 0.65596 0.85693 0.1259 0.0
H496 H 0.64527 0.77375 0.10787 0.0
H497 H 0.62166 0.79538 0.18575 0.0
H498 H 0.67626 0.81821 0.09269 0.0
H499 H 0.69247 0.79866 0.1082 0.0
H500 H 0.67233 0.79096 0.08423 0.0
H501 H 0.63621 0.82391 0.20935 0.0
H502 H 0.66427 0.82474 0.20515 0.0
H503 H 0.64825 0.84353 0.1878 0.0
H504 H 0.73045 0.83512 0.17048 0.0
H505 H 0.69042 0.88099 0.13271 0.0
H506 H 0.70118 0.79095 0.15593 0.0
H507 H 0.69143 0.79936 0.18864 0.0
H508 H 0.71907 0.80124 0.1813 0.0
H509 H 0.65239 0.84651 0.1082 0.0
H510 H 0.65614 0.87341 0.11852 0.0
H511 H 0.64304 0.85512 0.14101 0.0
C512 C 0.19508 0.63742 0.15756 0.0
C513 C 0.21608 0.64242 0.1628 0.0
C514 C 0.17956 0.653 0.15757 0.0
C515 C 0.18521 0.67401 0.16324 0.0
C516 C 0.20636 0.6791 0.16894 0.0
C517 C 0.22157 0.66324 0.16851 0.0
C518 C 0.15719 0.64703 0.15115 0.0
C519 C 0.21293 0.70131 0.17528 0.0
C520 C 0.15004 0.71764 0.13716 0.0
C521 C 0.13872 0.72287 0.16095 0.0
C522 C 0.16513 0.70167 0.1376 0.0
C523 C 0.16908 0.69079 0.16249 0.0
C524 C 0.15772 0.69602 0.1866 0.0
C525 C 0.1426 0.71198 0.18552 0.0
C526 C 0.17683 0.69643 0.11142 0.0
C527 C 0.16163 0.68484 0.21354 0.0
H528 H 0.19078 0.62134 0.15308 0.0
H529 H 0.23779 0.66715 0.17269 0.0
H530 H 0.14677 0.65175 0.16837 0.0
H531 H 0.1518 0.6555 0.13248 0.0
H532 H 0.15535 0.62993 0.1476 0.0
H533 H 0.22989 0.70253 0.18017 0.0
H534 H 0.20949 0.71157 0.15738 0.0
H535 H 0.20382 0.70742 0.19303 0.0
H536 H 0.14705 0.72598 0.11809 0.0
H537 H 0.13389 0.716 0.20396 0.0
H538 H 0.17447 0.67969 0.1061 0.0
H539 H 0.19388 0.69881 0.11452 0.0
H540 H 0.17168 0.70618 0.0937 0.0
H541 H 0.15873 0.66781 0.21105 0.0
H542 H 0.1515 0.69082 0.23043 0.0
H543 H 0.17826 0.68674 0.21972 0.0
C544 C 0.30209 0.86778 0.36731 0.0
C545 C 0.28759 0.86568 0.34577 0.0
C546 C 0.31901 0.85382 0.36989 0.0
C547 C 0.3214 0.83745 0.35044 0.0
C548 C 0.30726 0.8358 0.32805 0.0
C549 C 0.29052 0.84992 0.32602 0.0
C550 C 0.3338 0.85607 0.39398 0.0
C551 C 0.30931 0.8186 0.30682 0.0
C552 C 0.37131 0.80561 0.34244 0.0
C553 C 0.36567 0.78689 0.35562 0.0
C554 C 0.35743 0.8227 0.34168 0.0
C555 C 0.33756 0.82095 0.35446 0.0
C556 C 0.3323 0.80248 0.36904 0.0
C557 C 0.34641 0.78566 0.36939 0.0
C558 C 0.3636 0.84218 0.32602 0.0
C559 C 0.31132 0.80003 0.38309 0.0
H560 H 0.2999 0.87998 0.3826 0.0
H561 H 0.27942 0.8483 0.30923 0.0
H562 H 0.33177 0.84262 0.40821 0.0
H563 H 0.3503 0.85584 0.38677 0.0
H564 H 0.33105 0.87078 0.40568 0.0
H565 H 0.29787 0.82035 0.2897 0.0
H566 H 0.32535 0.8185 0.29802 0.0
H567 H 0.30673 0.80316 0.31676 0.0
H568 H 0.38621 0.80664 0.33181 0.0
H569 H 0.34205 0.77127 0.37979 0.0
H570 H 0.36049 0.85638 0.33857 0.0
H571 H 0.354 0.84344 0.30703 0.0
H572 H 0.3804 0.84204 0.32005 0.0
H573 H 0.3082 0.81361 0.39677 0.0
H574 H 0.3104 0.78545 0.39553 0.0
H575 H 0.29871 0.79965 0.36735 0.0
C576 C 0.21591 0.34039 0.33392 0.0
C577 C 0.21445 0.35997 0.34684 0.0
C578 C 0.19933 0.32606 0.33506 0.0
C579 C 0.18092 0.33134 0.34977 0.0
C580 C 0.17931 0.35112 0.36283 0.0
C581 C 0.19609 0.3653 0.36106 0.0
C582 C 0.20158 0.3052 0.3206 0.0
C583 C 0.15999 0.35715 0.37895 0.0
C584 C 0.13325 0.2989 0.33108 0.0
C585 C 0.13424 0.28292 0.35085 0.0
C586 C 0.14786 0.31533 0.33114 0.0
C587 C 0.16362 0.31585 0.35166 0.0
C588 C 0.164 0.30033 0.3725 0.0
C589 C 0.14938 0.28395 0.37173 0.0
C590 C 0.14708 0.33149 0.30843 0.0
C591 C 0.1804 0.30052 0.39494 0.0
H592 H 0.23005 0.33625 0.32279 0.0
H593 H 0.19497 0.38042 0.37114 0.0
H594 H 0.20059 0.29228 0.33584 0.0
H595 H 0.18858 0.30301 0.30569 0.0
H596 H 0.21668 0.3038 0.30936 0.0
H597 H 0.16109 0.37323 0.38759 0.0
H598 H 0.14594 0.35625 0.36554 0.0
H599 H 0.15759 0.34595 0.39615 0.0
H600 H 0.12154 0.29816 0.31492 0.0
H601 H 0.15006 0.2717 0.3872 0.0
H602 H 0.16104 0.32974 0.29498 0.0
H603 H 0.14754 0.34753 0.31721 0.0
H604 H 0.1328 0.32994 0.29549 0.0
H605 H 0.19601 0.2972 0.38588 0.0
H606 H 0.17719 0.28868 0.41118 0.0
H607 H 0.18123 0.31623 0.4047 0.0
C608 C 0.7027 0.14522 0.32584 0.0
C609 C 0.70739 0.13049 0.34635 0.0
C610 C 0.68601 0.15928 0.329 0.0
C611 C 0.67375 0.15863 0.35331 0.0
C612 C 0.67781 0.14317 0.37355 0.0
C613 C 0.69462 0.12923 0.36981 0.0
C614 C 0.68211 0.17546 0.30685 0.0
C615 C 0.66503 0.14196 0.39968 0.0
C616 C 0.65013 0.21117 0.37178 0.0
C617 C 0.62987 0.20934 0.36089 0.0
C618 C 0.66423 0.19436 0.37067 0.0
C619 C 0.65793 0.17528 0.35831 0.0
C620 C 0.63716 0.17298 0.34854 0.0
C621 C 0.62333 0.19008 0.34996 0.0
C622 C 0.68622 0.19741 0.38147 0.0
C623 C 0.62986 0.15284 0.33536 0.0
H624 H 0.71245 0.14617 0.30759 0.0
H625 H 0.69819 0.11784 0.38571 0.0
H626 H 0.66543 0.17519 0.30044 0.0
H627 H 0.68544 0.19133 0.31511 0.0
H628 H 0.69206 0.17289 0.28836 0.0
H629 H 0.66868 0.1277 0.41191 0.0
H630 H 0.66826 0.15593 0.41263 0.0
H631 H 0.64805 0.14206 0.39482 0.0
H632 H 0.65521 0.22599 0.38042 0.0
H633 H 0.60766 0.18858 0.34158 0.0
H634 H 0.69748 0.19704 0.36405 0.0
H635 H 0.69049 0.18448 0.39569 0.0
H636 H 0.68809 0.21254 0.39254 0.0
H637 H 0.63786 0.15074 0.31524 0.0
H638 H 0.61266 0.15273 0.33179 0.0
H639 H 0.63405 0.13922 0.34845 0.0
C640 C 0.79387 0.63607 0.32583 0.0
C641 C 0.78234 0.63172 0.34974 0.0
C642 C 0.8103 0.65064 0.32622 0.0
C643 C 0.8154 0.66094 0.35118 0.0
C644 C 0.80458 0.65572 0.37571 0.0
C645 C 0.78808 0.64123 0.37467 0.0
C646 C 0.82139 0.65588 0.2996 0.0
C647 C 0.80974 0.6662 0.40278 0.0
C648 C 0.86597 0.69244 0.35351 0.0
C649 C 0.85851 0.71274 0.34838 0.0
C650 C 0.8521 0.67538 0.355 0.0
C651 C 0.83038 0.67875 0.35095 0.0
C652 C 0.82282 0.69925 0.34599 0.0
C653 C 0.83696 0.71599 0.34491 0.0
C654 C 0.86065 0.65375 0.36064 0.0
C655 C 0.79978 0.70349 0.34137 0.0
H656 H 0.78952 0.6287 0.30652 0.0
H657 H 0.7793 0.63777 0.39326 0.0
H658 H 0.81746 0.67215 0.29338 0.0
H659 H 0.83862 0.65513 0.30243 0.0
H660 H 0.81691 0.64514 0.28257 0.0
H661 H 0.80167 0.65862 0.42045 0.0
H662 H 0.82689 0.66585 0.40655 0.0
H663 H 0.80492 0.68289 0.40199 0.0
H664 H 0.88263 0.6899 0.35628 0.0
H665 H 0.83111 0.73165 0.34089 0.0
H666 H 0.85738 0.64332 0.34285 0.0
H667 H 0.85273 0.64685 0.37886 0.0
H668 H 0.87782 0.65389 0.36442 0.0
H669 H 0.79418 0.69455 0.32319 0.0
H670 H 0.79646 0.72038 0.33792 0.0
H671 H 0.79058 0.69813 0.35944 0.0
C672 C 0.70856 0.8634 0.82308 0.0
C673 C 0.72072 0.86662 0.84676 0.0
C674 C 0.6926 0.8483 0.82272 0.0
C675 C 0.68852 0.83642 0.84677 0.0
C676 C 0.70026 0.84014 0.87104 0.0
C677 C 0.71636 0.8551 0.87067 0.0
C678 C 0.68057 0.8446 0.79636 0.0
C679 C 0.69611 0.82801 0.89721 0.0
C680 C 0.63641 0.80785 0.85049 0.0
C681 C 0.64232 0.78738 0.84347 0.0
C682 C 0.65134 0.82394 0.85214 0.0
C683 C 0.67258 0.81946 0.84613 0.0
C684 C 0.67861 0.7988 0.83904 0.0
C685 C 0.66341 0.78295 0.83804 0.0
C686 C 0.64441 0.84571 0.86023 0.0
C687 C 0.70107 0.79349 0.83213 0.0
H688 H 0.71195 0.87223 0.80452 0.0
H689 H 0.72568 0.85764 0.88906 0.0
H690 H 0.68327 0.82834 0.78908 0.0
H691 H 0.66351 0.84631 0.8001 0.0
H692 H 0.68523 0.85562 0.77972 0.0
H693 H 0.70565 0.83379 0.91479 0.0
H694 H 0.6793 0.82909 0.90283 0.0
H695 H 0.69974 0.81119 0.8939 0.0
H696 H 0.6201 0.81128 0.85486 0.0
H697 H 0.668 0.76715 0.83249 0.0
H698 H 0.64769 0.85684 0.84321 0.0
H699 H 0.65342 0.85112 0.87845 0.0
H700 H 0.62743 0.84642 0.86518 0.0
H701 H 0.70639 0.80307 0.81437 0.0
H702 H 0.70315 0.77666 0.8269 0.0
H703 H 0.71139 0.79732 0.84982 0.0
C704 C 0.12682 0.69239 0.84962 0.0
C705 C 0.13407 0.71237 0.85694 0.0
C706 C 0.14043 0.67508 0.84947 0.0
C707 C 0.1617 0.6779 0.85689 0.0
C708 C 0.16882 0.69786 0.8655 0.0
C709 C 0.15493 0.71485 0.86537 0.0
C710 C 0.13229 0.65402 0.84023 0.0
C711 C 0.19136 0.70149 0.87374 0.0
C712 C 0.19823 0.63266 0.87354 0.0
C713 C 0.21 0.63134 0.8492 0.0
C714 C 0.18178 0.64717 0.87603 0.0
C715 C 0.17704 0.66055 0.8536 0.0
C716 C 0.18826 0.65856 0.82856 0.0
C717 C 0.20464 0.64401 0.8267 0.0
C718 C 0.17016 0.64885 0.90304 0.0
C719 C 0.18359 0.67245 0.80411 0.0
H720 H 0.11069 0.69041 0.84312 0.0
H721 H 0.16058 0.73024 0.87123 0.0
H722 H 0.13948 0.6498 0.82016 0.0
H723 H 0.13676 0.64168 0.85523 0.0
H724 H 0.11498 0.65395 0.83782 0.0
H725 H 0.194 0.71756 0.88182 0.0
H726 H 0.19617 0.69003 0.88973 0.0
H727 H 0.20171 0.69909 0.85562 0.0
H728 H 0.20231 0.62286 0.89099 0.0
H729 H 0.21361 0.64295 0.80777 0.0
H730 H 0.15299 0.64869 0.89948 0.0
H731 H 0.17404 0.66397 0.91311 0.0
H732 H 0.17423 0.63592 0.91742 0.0
H733 H 0.16663 0.67197 0.79912 0.0
H734 H 0.19259 0.66779 0.78549 0.0
H735 H 0.18756 0.68893 0.80922 0.0
C736 C 0.34282 0.22189 0.87101 0.0
C737 C 0.3553 0.22408 0.84743 0.0
C738 C 0.32794 0.20576 0.8729 0.0
C739 C 0.32524 0.19189 0.8504 0.0
C740 C 0.33769 0.1942 0.82644 0.0
C741 C 0.35276 0.21014 0.82538 0.0
C742 C 0.31523 0.20349 0.89897 0.0
C743 C 0.33496 0.17996 0.80183 0.0
C744 C 0.30004 0.13857 0.85991 0.0
C745 C 0.27952 0.14247 0.85104 0.0
C746 C 0.31495 0.1547 0.86064 0.0
C747 C 0.30926 0.17504 0.85169 0.0
C748 C 0.28849 0.17907 0.84292 0.0
C749 C 0.27379 0.16276 0.84298 0.0
C750 C 0.33684 0.14994 0.87067 0.0
C751 C 0.28195 0.20047 0.83276 0.0
H752 H 0.34489 0.2326 0.88814 0.0
H753 H 0.36234 0.21191 0.80707 0.0
H754 H 0.29832 0.20534 0.8943 0.0
H755 H 0.31739 0.18756 0.90769 0.0
H756 H 0.31967 0.21521 0.91488 0.0
H757 H 0.34563 0.18412 0.78459 0.0
H758 H 0.338 0.16347 0.80786 0.0
H759 H 0.31856 0.18079 0.79431 0.0
H760 H 0.30443 0.12291 0.86635 0.0
H761 H 0.25793 0.16576 0.83601 0.0
H762 H 0.34129 0.16101 0.88732 0.0
H763 H 0.34819 0.1521 0.85359 0.0
H764 H 0.33835 0.13368 0.87859 0.0
H765 H 0.285 0.21244 0.84883 0.0
H766 H 0.2651 0.20109 0.82709 0.0
H767 H 0.2914 0.20481 0.81442 0.0
C768 C 0.87184 0.30424 0.83781 0.0
C769 C 0.86578 0.28526 0.84999 0.0
C770 C 0.85827 0.32158 0.83765 0.0
C771 C 0.83823 0.31981 0.84993 0.0
C772 C 0.83233 0.30089 0.86302 0.0
C773 C 0.84619 0.28385 0.86289 0.0
C774 C 0.86511 0.34154 0.82359 0.0
C775 C 0.8111 0.29839 0.87639 0.0
C776 C 0.80492 0.36731 0.86756 0.0
C777 C 0.79038 0.36719 0.84589 0.0
C778 C 0.82114 0.35244 0.86868 0.0
C779 C 0.82278 0.33716 0.84762 0.0
C780 C 0.80862 0.33752 0.82516 0.0
C781 C 0.79259 0.35252 0.82459 0.0
C782 C 0.83598 0.35257 0.8929 0.0
C783 C 0.80989 0.32153 0.80225 0.0
H784 H 0.88701 0.30541 0.82787 0.0
H785 H 0.84145 0.26924 0.87244 0.0
H786 H 0.85519 0.34436 0.80518 0.0
H787 H 0.86298 0.35511 0.8376 0.0
H788 H 0.88176 0.34093 0.81695 0.0
H789 H 0.8094 0.28307 0.88703 0.0
H790 H 0.80843 0.3111 0.8916 0.0
H791 H 0.79865 0.29967 0.86051 0.0
H792 H 0.80329 0.37865 0.88406 0.0
H793 H 0.78144 0.35241 0.80772 0.0
H794 H 0.85246 0.35219 0.88564 0.0
H795 H 0.83344 0.33832 0.90558 0.0
H796 H 0.83378 0.36656 0.90623 0.0
H797 H 0.82593 0.32116 0.79346 0.0
H798 H 0.79859 0.32482 0.78538 0.0
H799 H 0.80656 0.30569 0.81061 0.0
C800 C 0.65001 0.21602 0.68384 0.0
C801 C 0.63109 0.21673 0.66922 0.0
C802 C 0.66327 0.19859 0.68198 0.0
C803 C 0.65747 0.18147 0.66507 0.0
C804 C 0.6379 0.18164 0.65135 0.0
C805 C 0.6249 0.19931 0.65359 0.0
C806 C 0.68399 0.19897 0.69705 0.0
C807 C 0.63116 0.16362 0.63324 0.0
C808 C 0.70405 0.15237 0.63581 0.0
C809 C 0.70578 0.13541 0.654 0.0
C810 C 0.68773 0.1669 0.63838 0.0
C811 C 0.67285 0.16448 0.65979 0.0
C812 C 0.67392 0.14682 0.67741 0.0
C813 C 0.6904 0.13242 0.67425 0.0
C814 C 0.68702 0.18543 0.61901 0.0
C815 C 0.65832 0.14372 0.70043 0.0
H816 H 0.6548 0.2294 0.69608 0.0
H817 H 0.61024 0.19977 0.64233 0.0
H818 H 0.68603 0.18442 0.70927 0.0
H819 H 0.697 0.19966 0.6819 0.0
H820 H 0.68537 0.21264 0.71112 0.0
H821 H 0.61455 0.16505 0.62667 0.0
H822 H 0.64116 0.16313 0.61455 0.0
H823 H 0.63323 0.1485 0.64418 0.0
H824 H 0.71582 0.15464 0.61998 0.0
H825 H 0.69169 0.11931 0.68835 0.0
H826 H 0.69022 0.20004 0.63067 0.0
H827 H 0.6712 0.18697 0.60977 0.0
H828 H 0.6987 0.1841 0.60212 0.0
H829 H 0.66079 0.15586 0.71647 0.0
H830 H 0.65984 0.12805 0.71021 0.0
H831 H 0.64208 0.14556 0.69264 0.0
C832 C 0.79892 0.63759 0.63646 0.0
C833 C 0.77918 0.64232 0.64741 0.0
C834 C 0.81463 0.65293 0.63502 0.0
C835 C 0.81061 0.67324 0.64551 0.0
C836 C 0.79061 0.67811 0.65639 0.0
C837 C 0.77502 0.66264 0.65686 0.0
C838 C 0.8356 0.64732 0.62263 0.0
C839 C 0.78589 0.69945 0.66833 0.0
C840 C 0.85748 0.70485 0.66955 0.0
C841 C 0.85955 0.71952 0.64825 0.0
C842 C 0.84148 0.68982 0.66901 0.0
C843 C 0.8276 0.68912 0.64624 0.0
C844 C 0.82987 0.70368 0.62443 0.0
C845 C 0.84568 0.71893 0.62588 0.0
C846 C 0.83925 0.67486 0.69295 0.0
C847 C 0.81569 0.70307 0.59952 0.0
H848 H 0.80207 0.6219 0.62896 0.0
H849 H 0.75977 0.66625 0.66549 0.0
H850 H 0.83985 0.65877 0.60635 0.0
H851 H 0.84794 0.64809 0.6387 0.0
H852 H 0.83567 0.63134 0.61353 0.0
H853 H 0.76943 0.70081 0.67559 0.0
H854 H 0.7965 0.70259 0.68598 0.0
H855 H 0.78879 0.7118 0.65271 0.0
H856 H 0.86813 0.7054 0.68694 0.0
H857 H 0.8474 0.7302 0.60931 0.0
H858 H 0.84104 0.65847 0.6857 0.0
H859 H 0.82336 0.67628 0.70205 0.0
H860 H 0.85103 0.67781 0.70937 0.0
H861 H 0.81639 0.68736 0.58976 0.0
H862 H 0.82001 0.71505 0.5839 0.0
H863 H 0.79922 0.70576 0.60589 0.0
C864 C 0.27224 0.8332 0.66309 0.0
C865 C 0.27816 0.85359 0.65573 0.0
C866 C 0.28701 0.81693 0.66384 0.0
C867 C 0.30808 0.82114 0.65659 0.0
C868 C 0.31406 0.84165 0.64874 0.0
C869 C 0.29904 0.85769 0.64864 0.0
C870 C 0.28014 0.79531 0.67268 0.0
C871 C 0.33631 0.84665 0.64043 0.0
C872 C 0.35138 0.78499 0.68138 0.0
C873 C 0.35471 0.77247 0.65807 0.0
C874 C 0.33598 0.80068 0.68135 0.0
C875 C 0.32392 0.8041 0.65726 0.0
C876 C 0.32722 0.79147 0.63368 0.0
C877 C 0.34248 0.77567 0.63445 0.0
C878 C 0.33267 0.81365 0.70703 0.0
C879 C 0.31488 0.79488 0.60749 0.0
H880 H 0.25611 0.83003 0.66873 0.0
H881 H 0.30362 0.87344 0.64282 0.0
H882 H 0.28328 0.78386 0.65598 0.0
H883 H 0.2893 0.79025 0.69094 0.0
H884 H 0.26321 0.7947 0.67791 0.0
H885 H 0.33826 0.86328 0.63419 0.0
H886 H 0.3471 0.84335 0.65782 0.0
H887 H 0.34114 0.83648 0.62298 0.0
H888 H 0.36078 0.78248 0.69971 0.0
H889 H 0.3451 0.76607 0.61633 0.0
H890 H 0.31606 0.81264 0.71368 0.0
H891 H 0.33602 0.83036 0.7026 0.0
H892 H 0.34282 0.80849 0.72435 0.0
H893 H 0.29787 0.79318 0.61166 0.0
H894 H 0.31934 0.78367 0.59098 0.0
H895 H 0.31744 0.81105 0.59982 0.0
C896 C 0.13627 0.28719 0.6236 0.0
C897 C 0.12761 0.2803 0.64856 0.0
C898 C 0.15042 0.30399 0.62293 0.0
C899 C 0.15615 0.31398 0.64787 0.0
C900 C 0.14674 0.30768 0.67297 0.0
C901 C 0.13249 0.29094 0.67299 0.0
C902 C 0.15993 0.31044 0.59572 0.0
C903 C 0.15251 0.31791 0.7 0.0
C904 C 0.2103 0.33821 0.65177 0.0
C905 C 0.20578 0.35962 0.64959 0.0
C906 C 0.19426 0.32322 0.65119 0.0
C907 C 0.17321 0.32982 0.64803 0.0
C908 C 0.16857 0.35141 0.64535 0.0
C909 C 0.18493 0.3661 0.64633 0.0
C910 C 0.19982 0.30033 0.65433 0.0
C911 C 0.14633 0.35898 0.6416 0.0
H912 H 0.13245 0.27906 0.60462 0.0
H913 H 0.12582 0.28566 0.69234 0.0
H914 H 0.15866 0.32765 0.5929 0.0
H915 H 0.17685 0.30644 0.59555 0.0
H916 H 0.15229 0.30254 0.57796 0.0
H917 H 0.14262 0.31229 0.71733 0.0
H918 H 0.16915 0.31448 0.7049 0.0
H919 H 0.15092 0.33518 0.69844 0.0
H920 H 0.22639 0.33314 0.65439 0.0
H921 H 0.18139 0.38266 0.64456 0.0
H922 H 0.19432 0.2914 0.6361 0.0
H923 H 0.1918 0.29373 0.67266 0.0
H924 H 0.21696 0.29782 0.65664 0.0
H925 H 0.13923 0.35142 0.62325 0.0
H926 H 0.14543 0.37625 0.63905 0.0
H927 H 0.13673 0.35442 0.6597 0.0
C928 C 0.22144 0.06556 0.06137 0.0
C929 C 0.21789 0.08471 0.07472 0.0
C930 C 0.22017 0.06398 0.03255 0.0
C931 C 0.21569 0.0821 0.01677 0.0
C932 C 0.21091 0.10119 0.03029 0.0
C933 C 0.21189 0.10221 0.05915 0.0
C934 C 0.22489 0.04324 0.01895 0.0
C935 C 0.2063 0.12093 0.01423 0.0
C936 C 0.2419 0.08669 0.947 0.0
C937 C 0.22508 0.08368 0.92887 0.0
C938 C 0.239 0.08604 0.97559 0.0
C939 C 0.21882 0.08187 0.98639 0.0
C940 C 0.20185 0.07818 0.96821 0.0
C941 C 0.20514 0.07936 0.93957 0.0
C942 C 0.25747 0.09036 0.99424 0.0
C943 C 0.18024 0.07323 0.97901 0.0
H944 H 0.22588 0.05194 0.07338 0.0
H945 H 0.20912 0.11705 0.0694 0.0
H946 H 0.2133 0.03987 0.00248 0.0
H947 H 0.24058 0.04391 0.00914 0.0
H948 H 0.22481 0.0301 0.03397 0.0
H949 H 0.20074 0.13385 0.02773 0.0
H950 H 0.22075 0.12618 0.00353 0.0
H951 H 0.19429 0.11793 0.9982 0.0
H952 H 0.25734 0.09014 0.93883 0.0
H953 H 0.19211 0.07696 0.92558 0.0
H954 H 0.26018 0.07684 0.00814 0.0
H955 H 0.25413 0.10419 0.00741 0.0
H956 H 0.27211 0.09341 0.98251 0.0
H957 H 0.18097 0.0598 0.99351 0.0
H958 H 0.16906 0.0694 0.9622 0.0
H959 H 0.17405 0.08684 0.99069 0.0
C960 C 0.9303 0.22399 0.93992 0.0
C961 C 0.91324 0.2157 0.92535 0.0
C962 C 0.93129 0.22257 0.96877 0.0
C963 C 0.91467 0.2129 0.98334 0.0
C964 C 0.89802 0.20345 0.9686 0.0
C965 C 0.89757 0.20486 0.93974 0.0
C966 C 0.94948 0.23254 0.98372 0.0
C967 C 0.87993 0.19313 0.98336 0.0
C968 C 0.9197 0.20208 0.06031 0.0
C969 C 0.91004 0.2199 0.07148 0.0
C970 C 0.92153 0.19957 0.03159 0.0
C971 C 0.91328 0.21512 0.01381 0.0
C972 C 0.90341 0.23305 0.02508 0.0
C973 C 0.90203 0.23526 0.05373 0.0
C974 C 0.93235 0.18038 0.02028 0.0
C975 C 0.8942 0.24991 0.00685 0.0
H976 H 0.94254 0.23223 0.92885 0.0
H977 H 0.88437 0.19838 0.92857 0.0
H978 H 0.94408 0.24701 0.99424 0.0
H979 H 0.95566 0.22183 0.99979 0.0
H980 H 0.96243 0.23676 0.96946 0.0
H981 H 0.86953 0.18444 0.96898 0.0
H982 H 0.88573 0.18212 0.99931 0.0
H983 H 0.87048 0.20527 0.99402 0.0
H984 H 0.92597 0.19021 0.074 0.0
H985 H 0.89448 0.24903 0.06225 0.0
H986 H 0.94583 0.18513 0.00726 0.0
H987 H 0.92143 0.17145 0.00692 0.0
H988 H 0.93811 0.16984 0.03686 0.0
H989 H 0.90662 0.25679 0.99366 0.0
H990 H 0.88679 0.26272 0.01892 0.0
H991 H 0.88223 0.24303 0.99296 0.0
C992 C 0.77746 0.9332 0.93979 0.0
C993 C 0.7851 0.91539 0.92619 0.0
C994 C 0.77717 0.93424 0.9687 0.0
C995 C 0.78441 0.91693 0.98428 0.0
C996 C 0.7932 0.8994 0.97062 0.0
C997 C 0.79356 0.89891 0.94171 0.0
C998 C 0.76802 0.95337 0.98252 0.0
C999 C 0.80091 0.88054 0.98645 0.0
C1000 C 0.79185 0.92081 0.062 0.0
C1001 C 0.7728 0.91266 0.07158 0.0
C1002 C 0.79579 0.92272 0.03358 0.0
C1003 C 0.78042 0.916 0.01446 0.0
C1004 C 0.76115 0.90782 0.02411 0.0
C1005 C 0.75753 0.90641 0.05252 0.0
C1006 C 0.81636 0.93182 0.02401 0.0
C1007 C 0.74445 0.90022 0.00442 0.0
H1008 H 0.77105 0.94606 0.92786 0.0
H1009 H 0.79952 0.8851 0.93129 0.0
H1010 H 0.75256 0.94937 0.99156 0.0
H1011 H 0.77828 0.95867 0.99962 0.0
H1012 H 0.76584 0.96654 0.96783 0.0
H1013 H 0.80925 0.86918 0.97301 0.0
H1014 H 0.81161 0.88542 0.00329 0.0
H1015 H 0.78739 0.87245 0.99612 0.0
H1016 H 0.80366 0.92573 0.0767 0.0
H1017 H 0.7428 0.90002 0.05983 0.0
H1018 H 0.81348 0.94533 0.01012 0.0
H1019 H 0.82517 0.91994 0.01199 0.0
H1020 H 0.8263 0.93711 0.04148 0.0
H1021 H 0.73956 0.91316 0.99057 0.0
H1022 H 0.73036 0.89422 0.01531 0.0
H1023 H 0.75082 0.88751 0.99125 0.0
C1024 C 0.10275 0.78492 0.94403 0.0
C1025 C 0.08569 0.77927 0.92745 0.0
C1026 C 0.1008 0.78591 0.97279 0.0
C1027 C 0.08116 0.78166 0.98519 0.0
C1028 C 0.06357 0.77718 0.96839 0.0
C1029 C 0.06612 0.77573 0.93968 0.0
C1030 C 0.12004 0.79032 0.98997 0.0
C1031 C 0.04227 0.77313 0.9808 0.0
C1032 C 0.0835 0.7588 0.05719 0.0
C1033 C 0.08109 0.77668 0.07366 0.0
C1034 C 0.08309 0.76018 0.02837 0.0
C1035 C 0.07967 0.77987 0.01569 0.0
C1036 C 0.07622 0.79784 0.03223 0.0
C1037 C 0.07727 0.79608 0.0611 0.0
C1038 C 0.08726 0.74071 0.01152 0.0
C1039 C 0.07194 0.81897 0.01944 0.0
H1040 H 0.11793 0.78759 0.93463 0.0
H1041 H 0.05286 0.77153 0.92685 0.0
H1042 H 0.117 0.80338 0.0045 0.0
H1043 H 0.12395 0.77629 0.00249 0.0
H1044 H 0.13386 0.79439 0.97712 0.0
H1045 H 0.02975 0.77268 0.9649 0.0
H1046 H 0.04239 0.75789 0.99179 0.0
H1047 H 0.03837 0.78542 0.99615 0.0
H1048 H 0.08657 0.74377 0.06682 0.0
H1049 H 0.07528 0.80991 0.07381 0.0
H1050 H 0.10172 0.74287 0.99913 0.0
H1051 H 0.07421 0.73793 0.99688 0.0
H1052 H 0.08919 0.72653 0.02457 0.0
H1053 H 0.08617 0.82462 0.00863 0.0
H1054 H 0.06733 0.83084 0.03506 0.0
H1055 H 0.05929 0.81769 0.00384 0.0
C1056 C 0.22158 0.929 0.44021 0.0
C1057 C 0.21922 0.90945 0.42738 0.0
C1058 C 0.22078 0.93087 0.46904 0.0
C1059 C 0.21793 0.91271 0.48537 0.0
C1060 C 0.21464 0.89308 0.47243 0.0
C1061 C 0.21517 0.89172 0.44357 0.0
C1062 C 0.22393 0.95213 0.48204 0.0
C1063 C 0.21177 0.8733 0.48909 0.0
C1064 C 0.24303 0.91079 0.55614 0.0
C1065 C 0.22563 0.9126 0.5736 0.0
C1066 C 0.24072 0.91119 0.52742 0.0
C1067 C 0.22053 0.91376 0.51582 0.0
C1068 C 0.20296 0.91635 0.53333 0.0
C1069 C 0.20569 0.91558 0.56208 0.0
C1070 C 0.25985 0.90818 0.50949 0.0
C1071 C 0.18125 0.91948 0.52169 0.0
H1072 H 0.22456 0.94278 0.42774 0.0
H1073 H 0.21334 0.87658 0.43375 0.0
H1074 H 0.21184 0.95504 0.49803 0.0
H1075 H 0.23943 0.95264 0.49239 0.0
H1076 H 0.22329 0.96497 0.4666 0.0
H1077 H 0.20784 0.85959 0.47596 0.0
H1078 H 0.22643 0.86978 0.50051 0.0
H1079 H 0.19917 0.87541 0.50458 0.0
H1080 H 0.25847 0.90845 0.56491 0.0
H1081 H 0.1922 0.91706 0.57552 0.0
H1082 H 0.26152 0.92153 0.49502 0.0
H1083 H 0.25804 0.89378 0.4969 0.0
H1084 H 0.27449 0.90683 0.52176 0.0
H1085 H 0.18126 0.93255 0.5066 0.0
H1086 H 0.16952 0.92292 0.538 0.0
H1087 H 0.17627 0.90516 0.5105 0.0
C1088 C 0.06479 0.2077 0.55833 0.0
C1089 C 0.08486 0.20717 0.57006 0.0
C1090 C 0.06215 0.2073 0.52956 0.0
C1091 C 0.08002 0.20689 0.51227 0.0
C1092 C 0.10025 0.20537 0.52409 0.0
C1093 C 0.10239 0.20529 0.55283 0.0
C1094 C 0.04031 0.20831 0.51771 0.0
C1095 C 0.11975 0.20521 0.50643 0.0
C1096 C 0.07921 0.19683 0.43508 0.0
C1097 C 0.08024 0.21732 0.42473 0.0
C1098 C 0.07777 0.19313 0.46359 0.0
C1099 C 0.07795 0.21032 0.48206 0.0
C1100 C 0.07822 0.23103 0.47158 0.0
C1101 C 0.07911 0.23426 0.44303 0.0
C1102 C 0.07688 0.17086 0.47396 0.0
C1103 C 0.07879 0.2498 0.49055 0.0
H1104 H 0.05119 0.20901 0.5716 0.0
H1105 H 0.11795 0.2049 0.56179 0.0
H1106 H 0.03751 0.22409 0.50887 0.0
H1107 H 0.03849 0.19677 0.50077 0.0
H1108 H 0.02814 0.20524 0.53358 0.0
H1109 H 0.13421 0.20275 0.51876 0.0
H1110 H 0.11874 0.1927 0.49063 0.0
H1111 H 0.12114 0.22037 0.49537 0.0
H1112 H 0.07992 0.18369 0.42095 0.0
H1113 H 0.07995 0.25013 0.43512 0.0
H1114 H 0.06451 0.16918 0.48988 0.0
H1115 H 0.09203 0.1667 0.48375 0.0
H1116 H 0.07377 0.15951 0.45708 0.0
H1117 H 0.06557 0.2492 0.50534 0.0
H1118 H 0.07799 0.26486 0.4791 0.0
H1119 H 0.0935 0.24957 0.50275 0.0
C1120 C 0.79114 0.08743 0.56012 0.0
C1121 C 0.77099 0.08764 0.57163 0.0
C1122 C 0.79395 0.08646 0.53141 0.0
C1123 C 0.77618 0.08619 0.51392 0.0
C1124 C 0.75583 0.08589 0.52554 0.0
C1125 C 0.7535 0.08639 0.55426 0.0
C1126 C 0.81588 0.08628 0.51977 0.0
C1127 C 0.73646 0.08591 0.50762 0.0
C1128 C 0.77884 0.10873 0.44173 0.0
C1129 C 0.77734 0.09062 0.42552 0.0
C1130 C 0.77926 0.10746 0.47058 0.0
C1131 C 0.77861 0.08756 0.48349 0.0
C1132 C 0.77836 0.06917 0.46716 0.0
C1133 C 0.77748 0.07093 0.43832 0.0
C1134 C 0.7792 0.12746 0.48725 0.0
C1135 C 0.77818 0.04768 0.48015 0.0
H1136 H 0.8047 0.08828 0.57353 0.0
H1137 H 0.73789 0.08663 0.56307 0.0
H1138 H 0.81762 0.07339 0.50458 0.0
H1139 H 0.81892 0.10119 0.50872 0.0
H1140 H 0.82795 0.08436 0.53608 0.0
H1141 H 0.72179 0.08512 0.51991 0.0
H1142 H 0.7361 0.10039 0.49494 0.0
H1143 H 0.73679 0.07242 0.49323 0.0
H1144 H 0.77868 0.12399 0.4319 0.0
H1145 H 0.77648 0.05688 0.42582 0.0
H1146 H 0.79208 0.12726 0.50259 0.0
H1147 H 0.76426 0.12873 0.49883 0.0
H1148 H 0.78095 0.14161 0.47411 0.0
H1149 H 0.7905 0.04651 0.49622 0.0
H1150 H 0.78068 0.03506 0.46473 0.0
H1151 H 0.76288 0.04499 0.49041 0.0
C1152 C 0.91678 0.75332 0.55199 0.0
C1153 C 0.91809 0.77126 0.56854 0.0
C1154 C 0.91641 0.75488 0.52317 0.0
C1155 C 0.91784 0.77485 0.51059 0.0
C1156 C 0.92023 0.79295 0.52718 0.0
C1157 C 0.92007 0.79097 0.55603 0.0
C1158 C 0.91352 0.73522 0.50624 0.0
C1159 C 0.92231 0.81444 0.51449 0.0
C1160 C 0.92992 0.77345 0.43396 0.0
C1161 C 0.90986 0.77562 0.42254 0.0
C1162 C 0.93295 0.77425 0.46261 0.0
C1163 C 0.91542 0.77674 0.4802 0.0
C1164 C 0.89521 0.77952 0.46869 0.0
C1165 C 0.89272 0.77916 0.43997 0.0
C1166 C 0.9548 0.77177 0.4741 0.0
C1167 C 0.87607 0.78187 0.48674 0.0
H1168 H 0.91514 0.73806 0.56158 0.0
H1169 H 0.92119 0.80487 0.56879 0.0
H1170 H 0.89851 0.73612 0.49473 0.0
H1171 H 0.92626 0.73377 0.49081 0.0
H1172 H 0.91335 0.72084 0.51915 0.0
H1173 H 0.92626 0.82659 0.53005 0.0
H1174 H 0.93462 0.81436 0.49833 0.0
H1175 H 0.90737 0.81889 0.50438 0.0
H1176 H 0.94323 0.77085 0.42049 0.0
H1177 H 0.87717 0.78076 0.43121 0.0
H1178 H 0.9561 0.75654 0.48498 0.0
H1179 H 0.95811 0.78428 0.48938 0.0
H1180 H 0.96695 0.77233 0.45771 0.0
H1181 H 0.87384 0.76742 0.49913 0.0
H1182 H 0.86161 0.78473 0.47456 0.0
H1183 H 0.87821 0.79502 0.5014 0.0
C1184 C 0.74023 0.58539 0.5557 0.0
C1185 C 0.72298 0.5848 0.57355 0.0
C1186 C 0.73753 0.58481 0.52705 0.0
C1187 C 0.71708 0.58313 0.51595 0.0
C1188 C 0.69964 0.58163 0.5339 0.0
C1189 C 0.70277 0.58275 0.56256 0.0
C1190 C 0.75653 0.58684 0.50866 0.0
C1191 C 0.67766 0.5793 0.52282 0.0
C1192 C 0.7114 0.60547 0.44397 0.0
C1193 C 0.71467 0.58767 0.4276 0.0
C1194 C 0.71132 0.60407 0.47281 0.0
C1195 C 0.7141 0.5843 0.48557 0.0
C1196 C 0.71611 0.56609 0.4691 0.0
C1197 C 0.71664 0.56802 0.44025 0.0
C1198 C 0.70951 0.62392 0.4896 0.0
C1199 C 0.71857 0.54469 0.48194 0.0
H1200 H 0.75588 0.58706 0.56411 0.0
H1201 H 0.68941 0.58217 0.57634 0.0
H1202 H 0.75742 0.57334 0.49431 0.0
H1203 H 0.75519 0.60123 0.49594 0.0
H1204 H 0.77137 0.58762 0.52058 0.0
H1205 H 0.66608 0.57625 0.53943 0.0
H1206 H 0.67301 0.59381 0.51182 0.0
H1207 H 0.67699 0.56627 0.50769 0.0
H1208 H 0.70993 0.6207 0.43427 0.0
H1209 H 0.71901 0.55421 0.42762 0.0
H1210 H 0.7244 0.62671 0.50085 0.0
H1211 H 0.69694 0.62237 0.50524 0.0
H1212 H 0.70612 0.63785 0.4766 0.0
H1213 H 0.7342 0.54346 0.4918 0.0
H1214 H 0.71709 0.53193 0.46647 0.0
H1215 H 0.70665 0.54229 0.49828 0.0
C1216 C 0.43298 0.72457 0.43955 0.0
C1217 C 0.41425 0.71833 0.4269 0.0
C1218 C 0.4354 0.72333 0.46829 0.0
C1219 C 0.41847 0.71625 0.48471 0.0
C1220 C 0.39984 0.70916 0.47188 0.0
C1221 C 0.39807 0.71004 0.44309 0.0
C1222 C 0.45572 0.73046 0.48115 0.0
C1223 C 0.38126 0.7019 0.48863 0.0
C1224 C 0.42339 0.7033 0.56102 0.0
C1225 C 0.4166 0.72207 0.57309 0.0
C1226 C 0.42505 0.70141 0.53221 0.0
C1227 C 0.41919 0.71849 0.51522 0.0
C1228 C 0.41271 0.73758 0.52742 0.0
C1229 C 0.41176 0.7392 0.55618 0.0
C1230 C 0.43259 0.68103 0.51994 0.0
C1231 C 0.40594 0.75606 0.51008 0.0
H1232 H 0.44558 0.73083 0.42704 0.0
H1233 H 0.38354 0.70526 0.43338 0.0
H1234 H 0.45328 0.74566 0.49177 0.0
H1235 H 0.46107 0.71902 0.49688 0.0
H1236 H 0.4683 0.73249 0.46555 0.0
H1237 H 0.36848 0.69557 0.47549 0.0
H1238 H 0.38606 0.68963 0.50351 0.0
H1239 H 0.37496 0.71526 0.50073 0.0
H1240 H 0.42725 0.69006 0.57407 0.0
H1241 H 0.40639 0.75371 0.56542 0.0
H1242 H 0.44516 0.68402 0.50463 0.0
H1243 H 0.41953 0.67323 0.50889 0.0
H1244 H 0.43866 0.67011 0.5359 0.0
H1245 H 0.4187 0.76069 0.49582 0.0
H1246 H 0.4016 0.76987 0.52281 0.0
H1247 H 0.39223 0.75161 0.49728 0.0
C1248 C 0.27696 0.42646 0.43992 0.0
C1249 C 0.27622 0.40675 0.42718 0.0
C1250 C 0.27676 0.42828 0.46878 0.0
C1251 C 0.27532 0.40998 0.48518 0.0
C1252 C 0.27523 0.39003 0.47239 0.0
C1253 C 0.27589 0.38866 0.44355 0.0
C1254 C 0.27737 0.4498 0.48168 0.0
C1255 C 0.2734 0.37014 0.48911 0.0
C1256 C 0.28618 0.41006 0.56225 0.0
C1257 C 0.26585 0.41133 0.57306 0.0
C1258 C 0.28962 0.41044 0.53364 0.0
C1259 C 0.27227 0.41162 0.51551 0.0
C1260 C 0.25174 0.41326 0.52639 0.0
C1261 C 0.24881 0.41332 0.55504 0.0
C1262 C 0.31176 0.40914 0.52281 0.0
C1263 C 0.2328 0.4142 0.50776 0.0
H1264 H 0.27733 0.44048 0.42731 0.0
H1265 H 0.27525 0.37339 0.43379 0.0
H1266 H 0.26204 0.45328 0.49143 0.0
H1267 H 0.28942 0.45038 0.49815 0.0
H1268 H 0.2808 0.46224 0.46632 0.0
H1269 H 0.27454 0.35585 0.47611 0.0
H1270 H 0.28586 0.36954 0.50502 0.0
H1271 H 0.25812 0.36992 0.50003 0.0
H1272 H 0.2994 0.40864 0.57616 0.0
H1273 H 0.23305 0.41421 0.56332 0.0
H1274 H 0.31469 0.42197 0.50786 0.0
H1275 H 0.31401 0.39413 0.51167 0.0
H1276 H 0.32358 0.41013 0.53957 0.0
H1277 H 0.23419 0.42758 0.49328 0.0
H1278 H 0.21794 0.41589 0.5195 0.0
H1279 H 0.2319 0.3997 0.49518 0.0
C1280 C 0.57604 0.29504 0.56776 0.0
C1281 C 0.59266 0.28353 0.57909 0.0
C1282 C 0.57314 0.29607 0.53904 0.0
C1283 C 0.58709 0.28519 0.52141 0.0
C1284 C 0.60413 0.27393 0.53279 0.0
C1285 C 0.60674 0.27331 0.56144 0.0
C1286 C 0.55492 0.30839 0.5276 0.0
C1287 C 0.61934 0.26204 0.51474 0.0
C1288 C 0.57177 0.26554 0.45054 0.0
C1289 C 0.58311 0.27909 0.43339 0.0
C1290 C 0.5719 0.26811 0.47926 0.0
C1291 C 0.58363 0.28466 0.49109 0.0
C1292 C 0.59404 0.29916 0.47376 0.0
C1293 C 0.59369 0.29617 0.44508 0.0
C1294 C 0.56054 0.25233 0.49701 0.0
C1295 C 0.60658 0.3171 0.48556 0.0
H1296 H 0.56513 0.30299 0.58133 0.0
H1297 H 0.61962 0.26438 0.57006 0.0
H1298 H 0.56048 0.31968 0.51182 0.0
H1299 H 0.54378 0.29761 0.51726 0.0
H1300 H 0.54638 0.31714 0.5439 0.0
H1301 H 0.63208 0.25452 0.52681 0.0
H1302 H 0.61087 0.24968 0.50313 0.0
H1303 H 0.6265 0.27275 0.4994 0.0
H1304 H 0.56346 0.25237 0.44161 0.0
H1305 H 0.60239 0.30678 0.43191 0.0
H1306 H 0.55077 0.26041 0.51266 0.0
H1307 H 0.57215 0.2426 0.50825 0.0
H1308 H 0.55035 0.24179 0.48467 0.0
H1309 H 0.59742 0.32547 0.50157 0.0
H1310 H 0.61138 0.32849 0.46945 0.0
H1311 H 0.62091 0.31089 0.49562 0.0
C1312 C 0.71873 0.39449 0.94793 0.0
C1313 C 0.72447 0.41213 0.93247 0.0
C1314 C 0.71788 0.39532 0.97681 0.0
C1315 C 0.72254 0.41436 0.99051 0.0
C1316 C 0.72728 0.4325 0.97492 0.0
C1317 C 0.7284 0.43112 0.94605 0.0
C1318 C 0.71301 0.37556 0.99269 0.0
C1319 C 0.73193 0.45318 0.98875 0.0
C1320 C 0.70782 0.41698 0.06646 0.0
C1321 C 0.72701 0.41226 0.0791 0.0
C1322 C 0.70622 0.41847 0.03762 0.0
C1323 C 0.72415 0.41475 0.02112 0.0
C1324 C 0.74363 0.41038 0.03386 0.0
C1325 C 0.74485 0.40938 0.06268 0.0
C1326 C 0.68529 0.42357 0.02478 0.0
C1327 C 0.76307 0.40606 0.01702 0.0
H1328 H 0.71572 0.37977 0.93751 0.0
H1329 H 0.7327 0.44483 0.93415 0.0
H1330 H 0.72693 0.37083 0.00492 0.0
H1331 H 0.70003 0.37838 0.00743 0.0
H1332 H 0.70859 0.36236 0.97895 0.0
H1333 H 0.73305 0.46625 0.9737 0.0
H1334 H 0.71956 0.45696 0.00404 0.0
H1335 H 0.74698 0.45209 9e-05 0.0
H1336 H 0.69401 0.41931 0.0791 0.0
H1337 H 0.75971 0.40564 0.07233 0.0
H1338 H 0.67956 0.4099 0.01284 0.0
H1339 H 0.68693 0.43683 0.01014 0.0
H1340 H 0.67331 0.42772 0.04047 0.0
H1341 H 0.76055 0.39201 0.00394 0.0
H1342 H 0.7771 0.40335 0.03011 0.0
H1343 H 0.76633 0.41941 0.00302 0.0
C1344 C 0.5639 0.72852 0.05265 0.0
C1345 C 0.58175 0.72122 0.06647 0.0
C1346 C 0.56298 0.72856 0.02371 0.0
C1347 C 0.58051 0.72159 0.00834 0.0
C1348 C 0.59822 0.7134 0.02226 0.0
C1349 C 0.59853 0.71312 0.05117 0.0
C1350 C 0.54362 0.73694 0.00962 0.0
C1351 C 0.61737 0.70612 0.00667 0.0
C1352 C 0.5777 0.71187 0.93099 0.0
C1353 C 0.58533 0.7309 0.92061 0.0
C1354 C 0.57538 0.70877 0.95953 0.0
C1355 C 0.58132 0.72491 0.978 0.0
C1356 C 0.58889 0.74418 0.96753 0.0
C1357 C 0.59058 0.74701 0.93897 0.0
C1358 C 0.56682 0.6882 0.96994 0.0
C1359 C 0.59574 0.76167 0.98651 0.0
H1360 H 0.55083 0.73465 0.06443 0.0
H1361 H 0.61238 0.7075 0.06178 0.0
H1362 H 0.5472 0.7523 1.00002 0.0
H1363 H 0.53858 0.7262 0.99291 0.0
H1364 H 0.5304 0.73909 0.02425 0.0
H1365 H 0.62917 0.69872 0.02041 0.0
H1366 H 0.61292 0.6947 0.99046 0.0
H1367 H 0.62477 0.7197 0.99621 0.0
H1368 H 0.57352 0.69943 0.9168 0.0
H1369 H 0.59659 0.76171 0.93104 0.0
H1370 H 0.55338 0.69104 0.98396 0.0
H1371 H 0.579 0.67988 0.98202 0.0
H1372 H 0.56159 0.67782 0.95288 0.0
H1373 H 0.58259 0.76639 9e-05 0.0
H1374 H 0.60124 0.77569 0.97503 0.0
H1375 H 0.60865 0.75612 1.0 0.0
C1376 C 0.29057 0.58171 0.06484 0.0
C1377 C 0.27103 0.58717 0.07594 0.0
C1378 C 0.29356 0.58067 0.03614 0.0
C1379 C 0.27668 0.58547 0.01827 0.0
C1380 C 0.25688 0.59078 0.02945 0.0
C1381 C 0.25428 0.59143 0.05812 0.0
C1382 C 0.31479 0.57467 0.02494 0.0
C1383 C 0.23851 0.59619 0.01113 0.0
C1384 C 0.28495 0.60513 0.94532 0.0
C1385 C 0.2786 0.58775 0.92977 0.0
C1386 C 0.28539 0.6043 0.97423 0.0
C1387 C 0.27958 0.58555 0.98784 0.0
C1388 C 0.27442 0.56756 0.97216 0.0
C1389 C 0.27384 0.56892 0.94328 0.0
C1390 C 0.29084 0.62387 0.99019 0.0
C1391 C 0.26846 0.54719 0.98589 0.0
H1392 H 0.30355 0.57836 0.07856 0.0
H1393 H 0.23915 0.59571 0.06658 0.0
H1394 H 0.31326 0.56122 0.01059 0.0
H1395 H 0.32146 0.58791 0.01302 0.0
H1396 H 0.32599 0.57039 0.04155 0.0
H1397 H 0.22414 0.59987 0.02311 0.0
H1398 H 0.24246 0.60992 0.9981 0.0
H1399 H 0.23503 0.58293 0.99706 0.0
H1400 H 0.28866 0.61972 0.93497 0.0
H1401 H 0.26908 0.55539 0.93132 0.0
H1402 H 0.30282 0.62038 0.00611 0.0
H1403 H 0.27668 0.62971 0.00105 0.0
H1404 H 0.29684 0.63655 0.97664 0.0
H1405 H 0.28001 0.54307 0.00211 0.0
H1406 H 0.26747 0.53405 0.97093 0.0
H1407 H 0.253 0.54894 0.99608 0.0
C1408 C 0.41528 0.29694 0.93879 0.0
C1409 C 0.41419 0.27742 0.92561 0.0
C1410 C 0.4166 0.2983 0.96765 0.0
C1411 C 0.41631 0.27972 0.98361 0.0
C1412 C 0.4158 0.25998 0.97031 0.0
C1413 C 0.41498 0.25908 0.94146 0.0
C1414 C 0.41766 0.3196 0.98109 0.0
C1415 C 0.4151 0.23979 0.98656 0.0
C1416 C 0.43123 0.27751 0.05938 0.0
C1417 C 0.4115 0.27799 0.07204 0.0
C1418 C 0.43317 0.27915 0.03061 0.0
C1419 C 0.41489 0.28075 0.01419 0.0
C1420 C 0.39497 0.28175 0.02698 0.0
C1421 C 0.39354 0.28061 0.05578 0.0
C1422 C 0.45469 0.27858 0.01775 0.0
C1423 C 0.37507 0.28306 0.0102 0.0
H1424 H 0.41479 0.31115 0.92656 0.0
H1425 H 0.41406 0.24395 0.93136 0.0
H1426 H 0.40283 0.32276 0.99227 0.0
H1427 H 0.43052 0.32006 0.99648 0.0
H1428 H 0.42018 0.33233 0.96582 0.0
H1429 H 0.41553 0.22573 0.97306 0.0
H1430 H 0.42849 0.23901 0.00108 0.0
H1431 H 0.40053 0.23926 0.99904 0.0
H1432 H 0.44515 0.27564 0.07196 0.0
H1433 H 0.37825 0.28091 0.0655 0.0
H1434 H 0.45652 0.29165 0.00286 0.0
H1435 H 0.45672 0.26375 0.00611 0.0
H1436 H 0.46734 0.27966 0.03342 0.0
H1437 H 0.37567 0.29672 0.99609 0.0
H1438 H 0.36088 0.28447 0.02334 0.0
H1439 H 0.3735 0.26881 0.99724 0.0
C1440 C 0.23006 0.02177 0.19774 0.0
C1441 C 0.24565 0.03722 0.19776 0.0
C1442 C 0.23128 0.00451 0.21553 0.0
C1443 C 0.24846 0.00274 0.23385 0.0
C1444 C 0.26469 0.01783 0.23315 0.0
C1445 C 0.26311 0.03491 0.21503 0.0
C1446 C 0.21374 0.98862 0.21551 0.0
C1447 C 0.28326 0.01644 0.25235 0.0
C1448 C 0.23699 0.97254 0.29939 0.0
C1449 C 0.24543 0.95283 0.29323 0.0
C1450 C 0.23853 0.98914 0.28057 0.0
C1451 C 0.24861 0.98587 0.25492 0.0
C1452 C 0.25773 0.96617 0.24895 0.0
C1453 C 0.25609 0.94987 0.26825 0.0
C1454 C 0.22876 0.01 0.28778 0.0
C1455 C 0.26853 0.96209 0.22178 0.0
H1456 H 0.21657 0.02344 0.18433 0.0
H1457 H 0.27521 0.04683 0.2151 0.0
H1458 H 0.22017 0.97255 0.21329 0.0
H1459 H 0.20527 0.98925 0.23547 0.0
H1460 H 0.20231 0.99142 0.19863 0.0
H1461 H 0.29538 0.0284 0.24761 0.0
H1462 H 0.27794 0.01872 0.27393 0.0
H1463 H 0.29052 0.00067 0.25113 0.0
H1464 H 0.22881 0.97491 0.31873 0.0
H1465 H 0.26262 0.93463 0.2634 0.0
H1466 H 0.21564 0.01337 0.27345 0.0
H1467 H 0.24043 0.02275 0.28535 0.0
H1468 H 0.22265 0.01036 0.30922 0.0
H1469 H 0.25695 0.96303 0.20477 0.0
H1470 H 0.27612 0.94642 0.22113 0.0
H1471 H 0.2806 0.97423 0.21783 0.0
C1472 C 0.97688 0.22556 0.19417 0.0
C1473 C 0.96117 0.24088 0.19506 0.0
C1474 C 0.99419 0.22657 0.21192 0.0
C1475 C 0.99586 0.2434 0.23082 0.0
C1476 C 0.9806 0.25949 0.2308 0.0
C1477 C 0.96336 0.25799 0.21297 0.0
C1478 C 0.01017 0.20911 0.21134 0.0
C1479 C 0.982 0.2778 0.25043 0.0
C1480 C 0.02592 0.23215 0.29659 0.0
C1481 C 0.0456 0.24071 0.29055 0.0
C1482 C 0.00948 0.23328 0.27748 0.0
C1483 C 0.01279 0.24334 0.25182 0.0
C1484 C 0.03243 0.25257 0.24595 0.0
C1485 C 0.04865 0.25108 0.26537 0.0
C1486 C 0.98873 0.22321 0.28446 0.0
C1487 C 0.03646 0.26358 0.21891 0.0
H1488 H 0.97524 0.2123 0.18036 0.0
H1489 H 0.95128 0.26992 0.21364 0.0
H1490 H 0.02619 0.21562 0.20919 0.0
H1491 H 0.00965 0.20036 0.2311 0.0
H1492 H 0.00735 0.19791 0.1942 0.0
H1493 H 0.97 0.28996 0.246 0.0
H1494 H 0.97977 0.27221 0.27188 0.0
H1495 H 0.99775 0.28511 0.2493 0.0
H1496 H 0.0235 0.22411 0.31602 0.0
H1497 H 0.06384 0.25778 0.26065 0.0
H1498 H 0.98535 0.21043 0.26959 0.0
H1499 H 0.9759 0.23486 0.28265 0.0
H1500 H 0.98851 0.21658 0.30563 0.0
H1501 H 0.03532 0.25218 0.2017 0.0
H1502 H 0.05217 0.27105 0.21823 0.0
H1503 H 0.02439 0.27578 0.21531 0.0
C1504 C 0.73986 0.04684 0.26848 0.0
C1505 C 0.75315 0.0452 0.2914 0.0
C1506 C 0.73818 0.0304 0.2494 0.0
C1507 C 0.75003 0.01191 0.25346 0.0
C1508 C 0.76308 0.00999 0.27693 0.0
C1509 C 0.76451 0.02668 0.29561 0.0
C1510 C 0.72411 0.03298 0.22461 0.0
C1511 C 0.77587 0.99045 0.28202 0.0
C1512 C 0.73577 0.96095 0.21798 0.0
C1513 C 0.75098 0.95993 0.19716 0.0
C1514 C 0.73478 0.97815 0.23591 0.0
C1515 C 0.74932 0.99472 0.23285 0.0
C1516 C 0.76411 0.9942 0.21111 0.0
C1517 C 0.76479 0.97677 0.19352 0.0
C1518 C 0.71877 0.97818 0.25884 0.0
C1519 C 0.77978 0.01167 0.20709 0.0
H1520 H 0.73107 0.06115 0.26514 0.0
H1521 H 0.77478 0.02534 0.31332 0.0
H1522 H 0.73363 0.0325 0.20548 0.0
H1523 H 0.71276 0.01984 0.22349 0.0
H1524 H 0.71527 0.04797 0.22509 0.0
H1525 H 0.78468 0.99117 0.30175 0.0
H1526 H 0.76551 0.9765 0.28244 0.0
H1527 H 0.78721 0.98817 0.26495 0.0
H1528 H 0.72503 0.94797 0.22085 0.0
H1529 H 0.77653 0.97607 0.1774 0.0
H1530 H 0.70984 0.99309 0.25882 0.0
H1531 H 0.72686 0.97701 0.27902 0.0
H1532 H 0.70755 0.96495 0.25706 0.0
H1533 H 0.77163 0.02701 0.20609 0.0
H1534 H 0.78919 0.00963 0.18801 0.0
H1535 H 0.79061 0.01223 0.22496 0.0
C1536 C 0.01952 0.76571 0.19123 0.0
C1537 C 0.03829 0.75559 0.19811 0.0
C1538 C 0.00188 0.76416 0.20835 0.0
C1539 C 0.00317 0.75239 0.23304 0.0
C1540 C 0.02179 0.74138 0.23945 0.0
C1541 C 0.03913 0.74303 0.2218 0.0
C1542 C 0.98219 0.77589 0.20064 0.0
C1543 C 0.02379 0.72876 0.26565 0.0
C1544 C 0.96796 0.77059 0.29121 0.0
C1545 C 0.95163 0.75596 0.29001 0.0
C1546 C 0.98502 0.76932 0.27311 0.0
C1547 C 0.98567 0.7531 0.2532 0.0
C1548 C 0.9694 0.73806 0.25218 0.0
C1549 C 0.95257 0.73963 0.2707 0.0
C1550 C 0.00219 0.78554 0.27501 0.0
C1551 C 0.96954 0.72063 0.23113 0.0
H1552 H 0.01879 0.77533 0.17285 0.0
H1553 H 0.05362 0.73518 0.2272 0.0
H1554 H 0.96839 0.76536 0.20179 0.0
H1555 H 0.97955 0.78885 0.2155 0.0
H1556 H 0.98306 0.78264 0.17956 0.0
H1557 H 0.03859 0.71961 0.26636 0.0
H1558 H 0.0234 0.73945 0.28368 0.0
H1559 H 0.0104 0.7178 0.26778 0.0
H1560 H 0.96732 0.7832 0.30617 0.0
H1561 H 0.93994 0.7283 0.26968 0.0
H1562 H 0.00296 0.79463 0.25554 0.0
H1563 H 0.0176 0.77776 0.27778 0.0
H1564 H -0.00027 0.79664 0.29236 0.0
H1565 H 0.9689 0.72737 0.21007 0.0
H1566 H 0.95612 0.70974 0.23376 0.0
H1567 H 0.98432 0.71154 0.23266 0.0
C1568 C 0.74749 0.96945 0.79247 0.0
C1569 C 0.76738 0.96192 0.79973 0.0
C1570 C 0.74529 0.98675 0.77485 0.0
C1571 C 0.76342 0.99676 0.7644 0.0
C1572 C 0.78353 0.98951 0.77219 0.0
C1573 C 0.78527 0.97213 0.78973 0.0
C1574 C 0.7236 0.99406 0.76698 0.0
C1575 C 0.80322 -0.00011 0.76162 0.0
C1576 C 0.7599 0.02815 0.69808 0.0
C1577 C 0.75918 0.04871 0.70813 0.0
C1578 C 0.76095 0.01104 0.71621 0.0
C1579 C 0.7614 0.01465 0.74501 0.0
C1580 C 0.7604 0.03538 0.75526 0.0
C1581 C 0.75925 0.05217 0.73669 0.0
C1582 C 0.76188 0.98912 0.70455 0.0
C1583 C 0.76092 0.03984 0.78584 0.0
H1584 H 0.73361 0.96157 0.80011 0.0
H1585 H 0.80067 0.96636 0.79531 0.0
H1586 H 0.72161 0.01085 0.77231 0.0
H1587 H 0.72144 0.99262 0.74436 0.0
H1588 H 0.71111 0.9849 0.77744 0.0
H1589 H 0.81764 0.99273 0.77031 0.0
H1590 H 0.80387 0.99868 0.73882 0.0
H1591 H 0.80308 0.01681 0.76688 0.0
H1592 H 0.75982 0.02542 0.67602 0.0
H1593 H 0.75872 0.06805 0.74457 0.0
H1594 H 0.74895 0.9795 0.71315 0.0
H1595 H 0.77681 0.98151 0.71063 0.0
H1596 H 0.76071 0.98895 0.6817 0.0
H1597 H 0.74799 0.03142 0.79635 0.0
H1598 H 0.7595 0.05684 0.79046 0.0
H1599 H 0.77583 0.03401 0.79476 0.0
C1600 C 0.97829 0.7734 0.69388 0.0
C1601 C 0.96305 0.75761 0.69424 0.0
C1602 C 0.99541 0.77278 0.71201 0.0
C1603 C 0.99708 0.75613 0.73118 0.0
C1604 C 0.98205 0.73983 0.73108 0.0
C1605 C 0.96528 0.74069 0.71244 0.0
C1606 C 0.01134 0.79025 0.71121 0.0
C1607 C 0.98321 0.72194 0.7514 0.0
C1608 C 0.04933 0.74713 0.76662 0.0
C1609 C 0.04649 0.758 0.79148 0.0
C1610 C 0.03334 0.74628 0.74682 0.0
C1611 C 0.014 0.75632 0.7522 0.0
C1612 C 0.01089 0.76689 0.77755 0.0
C1613 C 0.02724 0.76772 0.79683 0.0
C1614 C 0.03729 0.73504 0.71992 0.0
C1615 C 0.99036 0.77754 0.78416 0.0
H1616 H 0.97664 0.78647 0.67976 0.0
H1617 H 0.95346 0.7285 0.71286 0.0
H1618 H 0.0107 0.79929 0.73073 0.0
H1619 H 0.02739 0.78369 0.7094 0.0
H1620 H 0.00863 0.80119 0.69376 0.0
H1621 H 0.97089 0.70997 0.74769 0.0
H1622 H 0.99876 0.71422 0.75027 0.0
H1623 H 0.98138 0.72807 0.77267 0.0
H1624 H 0.06425 0.73967 0.76236 0.0
H1625 H 0.02499 0.77608 0.81605 0.0
H1626 H 0.03589 0.74625 0.70252 0.0
H1627 H 0.02531 0.72269 0.7167 0.0
H1628 H 0.05306 0.7277 0.71916 0.0
H1629 H 0.98734 0.79025 0.76906 0.0
H1630 H 0.9902 0.78438 0.80522 0.0
H1631 H 0.97727 0.76617 0.78243 0.0
C1632 C 0.26011 0.95538 0.72487 0.0
C1633 C 0.24581 0.95639 0.70294 0.0
C1634 C 0.26151 0.97164 0.7442 0.0
C1635 C 0.24846 0.98943 0.74133 0.0
C1636 C 0.2346 0.99092 0.7186 0.0
C1637 C 0.23336 0.9743 0.69973 0.0
C1638 C 0.27637 0.96945 0.76826 0.0
C1639 C 0.22065 0.0098 0.71466 0.0
C1640 C 0.23363 0.02171 0.80402 0.0
C1641 C 0.24686 0.03909 0.8012 0.0
C1642 C 0.23444 0.00511 0.78509 0.0
C1643 C 0.24864 0.0061 0.76268 0.0
C1644 C 0.26245 0.02333 0.76021 0.0
C1645 C 0.26148 0.03958 0.77963 0.0
C1646 C 0.21969 0.98681 0.78863 0.0
C1647 C 0.27768 0.02498 0.73649 0.0
H1648 H 0.26973 0.94152 0.72749 0.0
H1649 H 0.22232 0.97515 0.68278 0.0
H1650 H 0.2868 0.98331 0.76956 0.0
H1651 H 0.26732 0.96874 0.78777 0.0
H1652 H 0.28622 0.95514 0.76671 0.0
H1653 H 0.21174 0.00913 0.69501 0.0
H1654 H 0.20933 0.01087 0.73196 0.0
H1655 H 0.23016 0.02436 0.71488 0.0
H1656 H 0.22234 0.02128 0.8207 0.0
H1657 H 0.27167 0.05305 0.77729 0.0
H1658 H 0.22861 0.97188 0.78861 0.0
H1659 H 0.20859 0.98621 0.77104 0.0
H1660 H 0.21053 0.98783 0.80805 0.0
H1661 H 0.28756 0.01071 0.73533 0.0
H1662 H 0.28808 0.03888 0.73832 0.0
H1663 H 0.26891 0.02611 0.7168 0.0
C1664 C 0.97304 0.24473 0.79821 0.0
C1665 C 0.95823 0.22854 0.79798 0.0
C1666 C 0.9901 0.24451 0.77994 0.0
C1667 C 0.99201 0.22797 0.76062 0.0
C1668 C 0.97703 0.21164 0.76029 0.0
C1669 C 0.96045 0.21199 0.77921 0.0
C1670 C 0.00608 0.26191 0.78133 0.0
C1671 C 0.97833 0.19394 0.73967 0.0
C1672 C 0.02528 0.23671 0.69666 0.0
C1673 C 0.04338 0.22539 0.70332 0.0
C1674 C 0.00835 0.23768 0.71513 0.0
C1675 C 0.00987 0.2275 0.74102 0.0
C1676 C 0.0283 0.21636 0.74796 0.0
C1677 C 0.04473 0.21525 0.72889 0.0
C1678 C 0.98875 0.24932 0.70682 0.0
C1679 C 0.03067 0.20565 0.77556 0.0
H1680 H 0.97131 0.25753 0.81273 0.0
H1681 H 0.94886 0.19957 0.77878 0.0
H1682 H 0.02192 0.25525 0.78488 0.0
H1683 H 0.00659 0.27043 0.76141 0.0
H1684 H 0.0026 0.27332 0.79802 0.0
H1685 H 0.96507 0.18277 0.74166 0.0
H1686 H 0.97839 0.20034 0.7184 0.0
H1687 H 0.99319 0.18519 0.74247 0.0
H1688 H 0.02423 0.24452 0.67687 0.0
H1689 H 0.05882 0.20665 0.7342 0.0
H1690 H 0.98543 0.26202 0.72181 0.0
H1691 H 0.97514 0.2385 0.70713 0.0
H1692 H 0.99004 0.2563 0.68591 0.0
H1693 H 0.02812 0.21709 0.79246 0.0
H1694 H 0.04638 0.19843 0.7782 0.0
H1695 H 0.01863 0.19323 0.77779 0.0
C1696 C 0.76039 0.54182 0.72362 0.0
C1697 C 0.74456 0.54181 0.70356 0.0
C1698 C 0.76234 0.52523 0.7424 0.0
C1699 C 0.74818 0.50821 0.74095 0.0
C1700 C 0.73264 0.50777 0.72011 0.0
C1701 C 0.73098 0.52463 0.70169 0.0
C1702 C 0.77907 0.52625 0.76437 0.0
C1703 C 0.71737 0.48978 0.71779 0.0
C1704 C 0.76037 0.45683 0.77697 0.0
C1705 C 0.74756 0.45821 0.80039 0.0
C1706 C 0.76111 0.4732 0.75768 0.0
C1707 C 0.74885 0.49137 0.76207 0.0
C1708 C 0.73649 0.49315 0.7862 0.0
C1709 C 0.73595 0.47651 0.80505 0.0
C1710 C 0.77445 0.47075 0.73218 0.0
C1711 C 0.72334 0.51238 0.79171 0.0
H1712 H 0.77093 0.55508 0.72514 0.0
H1713 H 0.71877 0.52454 0.68616 0.0
H1714 H 0.77162 0.52737 0.78499 0.0
H1715 H 0.78863 0.51173 0.76419 0.0
H1716 H 0.78964 0.53992 0.76163 0.0
H1717 H 0.70705 0.49122 0.69944 0.0
H1718 H 0.72595 0.47469 0.71654 0.0
H1719 H 0.70739 0.48916 0.7365 0.0
H1720 H 0.76934 0.44268 0.77327 0.0
H1721 H 0.72607 0.47765 0.82316 0.0
H1722 H 0.7851 0.48437 0.72988 0.0
H1723 H 0.76426 0.47033 0.71365 0.0
H1724 H 0.78401 0.4562 0.73265 0.0
H1725 H 0.73323 0.52667 0.7908 0.0
H1726 H 0.71551 0.51178 0.81215 0.0
H1727 H 0.71114 0.51394 0.77554 0.0
C1728 C 0.54416 0.76126 0.76625 0.0
C1729 C 0.54322 0.74883 0.79006 0.0
C1730 C 0.52751 0.76161 0.74738 0.0
C1731 C 0.50948 0.74936 0.75261 0.0
C1732 C 0.50811 0.73743 0.77717 0.0
C1733 C 0.52507 0.73723 0.79556 0.0
C1734 C 0.52956 0.77444 0.72136 0.0
C1735 C 0.489 0.72436 0.78361 0.0
C1736 C 0.45838 0.75941 0.71488 0.0
C1737 C 0.45817 0.74286 0.69585 0.0
C1738 C 0.4753 0.76214 0.733 0.0
C1739 C 0.49243 0.74809 0.73183 0.0
C1740 C 0.49274 0.73199 0.71175 0.0
C1741 C 0.47554 0.72951 0.69406 0.0
C1742 C 0.4744 0.77945 0.75419 0.0
C1743 C 0.51088 0.71687 0.70964 0.0
H1744 H 0.5582 0.77023 0.7619 0.0
H1745 H 0.52426 0.72766 0.81399 0.0
H1746 H 0.52992 0.76386 0.70321 0.0
H1747 H 0.51579 0.78488 0.71889 0.0
H1748 H 0.544 0.78416 0.72124 0.0
H1749 H 0.48987 0.71704 0.80436 0.0
H1750 H 0.47467 0.73416 0.78255 0.0
H1751 H 0.48734 0.71175 0.76801 0.0
H1752 H 0.44496 0.76975 0.71637 0.0
H1753 H 0.47547 0.71675 0.6793 0.0
H1754 H 0.48896 0.78893 0.75357 0.0
H1755 H 0.47325 0.77254 0.77512 0.0
H1756 H 0.46078 0.79002 0.75098 0.0
H1757 H 0.52587 0.72557 0.70796 0.0
H1758 H 0.50942 0.70623 0.69161 0.0
H1759 H 0.51172 0.7072 0.72862 0.0
C1760 C 0.23329 0.45919 0.7242 0.0
C1761 C 0.2473 0.45864 0.70193 0.0
C1762 C 0.23321 0.47609 0.74268 0.0
C1763 C 0.24739 0.49285 0.73865 0.0
C1764 C 0.26101 0.49275 0.7156 0.0
C1765 C 0.26084 0.47559 0.69754 0.0
C1766 C 0.21849 0.47565 0.76705 0.0
C1767 C 0.27622 0.51046 0.71051 0.0
C1768 C 0.23854 0.5446 0.77543 0.0
C1769 C 0.253 0.54321 0.79713 0.0
C1770 C 0.23632 0.52819 0.7564 0.0
C1771 C 0.24877 0.50998 0.75929 0.0
C1772 C 0.263 0.50829 0.78157 0.0
C1773 C 0.26498 0.52497 0.8002 0.0
C1774 C 0.22102 0.53055 0.73285 0.0
C1775 C 0.27643 0.48902 0.78543 0.0
H1776 H 0.2228 0.44611 0.72769 0.0
H1777 H 0.27165 0.47524 0.68031 0.0
H1778 H 0.22768 0.47472 0.78643 0.0
H1779 H 0.20917 0.4903 0.7679 0.0
H1780 H 0.20757 0.46211 0.76629 0.0
H1781 H 0.28479 0.50863 0.69073 0.0
H1782 H 0.2678 0.52567 0.71026 0.0
H1783 H 0.28782 0.51113 0.72752 0.0
H1784 H 0.22927 0.5587 0.77295 0.0
H1785 H 0.27615 0.52384 0.81697 0.0
H1786 H 0.20989 0.51721 0.73264 0.0
H1787 H 0.2296 0.53028 0.71296 0.0
H1788 H 0.21195 0.54538 0.73413 0.0
H1789 H 0.26642 0.47484 0.78655 0.0
H1790 H 0.28614 0.48985 0.80442 0.0
H1791 H 0.287 0.48707 0.76745 0.0
C1792 C 0.46879 0.28293 0.79418 0.0
C1793 C 0.4561 0.26542 0.79909 0.0
C1794 C 0.4864 0.2815 0.777 0.0
C1795 C 0.49133 0.26211 0.76437 0.0
C1796 C 0.47875 0.2443 0.76958 0.0
C1797 C 0.46129 0.24616 0.78697 0.0
C1798 C 0.49957 0.3008 0.77208 0.0
C1799 C 0.48353 0.22339 0.75641 0.0
C1800 C 0.52483 0.2656 0.69994 0.0
C1801 C 0.54482 0.26147 0.71056 0.0
C1802 C 0.50713 0.2652 0.71709 0.0
C1803 C 0.50957 0.26064 0.74548 0.0
C1804 C 0.52962 0.25572 0.75608 0.0
C1805 C 0.54702 0.25616 0.73846 0.0
C1806 C 0.48593 0.27036 0.70503 0.0
C1807 C 0.53282 0.25076 0.78624 0.0
H1808 H 0.46483 0.29785 0.80353 0.0
H1809 H 0.45148 0.23258 0.79066 0.0
H1810 H 0.51609 0.29768 0.77789 0.0
H1811 H 0.49941 0.30486 0.74984 0.0
H1812 H 0.49389 0.31455 0.78399 0.0
H1813 H 0.47247 0.21095 0.76309 0.0
H1814 H 0.4827 0.22483 0.73364 0.0
H1815 H 0.4997 0.21842 0.76164 0.0
H1816 H 0.52306 0.26966 0.67837 0.0
H1817 H 0.56245 0.25292 0.74677 0.0
H1818 H 0.48001 0.28516 0.71416 0.0
H1819 H 0.47449 0.25787 0.71019 0.0
H1820 H 0.48649 0.27219 0.68227 0.0
H1821 H 0.52896 0.26474 0.79886 0.0
H1822 H 0.5492 0.24599 0.79084 0.0
H1823 H 0.52213 0.23799 0.79276 0.0
C1824 C 0.26336 0.52183 0.19621 0.0
C1825 C 0.25167 0.53984 0.20223 0.0
C1826 C 0.26294 0.50442 0.21387 0.0
C1827 C 0.25073 0.5052 0.23822 0.0
C1828 C 0.23831 0.52305 0.24387 0.0
C1829 C 0.23884 0.54013 0.22571 0.0
C1830 C 0.27616 0.4855 0.20697 0.0
C1831 C 0.2252 0.52451 0.26972 0.0
C1832 C 0.23957 0.45437 0.27614 0.0
C1833 C 0.25548 0.45432 0.29608 0.0
C1834 C 0.23771 0.4709 0.25724 0.0
C1835 C 0.25195 0.48787 0.2586 0.0
C1836 C 0.26767 0.48817 0.2792 0.0
C1837 C 0.26933 0.4713 0.2976 0.0
C1838 C 0.22088 0.46997 0.2354 0.0
C1839 C 0.28295 0.50615 0.28154 0.0
H1840 H 0.27324 0.52153 0.17803 0.0
H1841 H 0.2298 0.55404 0.23048 0.0
H1842 H 0.28883 0.48378 0.22246 0.0
H1843 H 0.26651 0.47106 0.20781 0.0
H1844 H 0.2834 0.48669 0.1862 0.0
H1845 H 0.21538 0.53889 0.27016 0.0
H1846 H 0.21481 0.51065 0.27153 0.0
H1847 H 0.23558 0.52458 0.28806 0.0
H1848 H 0.2289 0.44119 0.27481 0.0
H1849 H 0.28162 0.47132 0.31302 0.0
H1850 H 0.22821 0.46962 0.21466 0.0
H1851 H 0.21094 0.48421 0.23636 0.0
H1852 H 0.21069 0.45597 0.23764 0.0
H1853 H 0.29249 0.50722 0.26247 0.0
H1854 H 0.29369 0.50439 0.29941 0.0
H1855 H 0.27432 0.52116 0.2837 0.0
C1856 C 0.52228 0.26387 0.30585 0.0
C1857 C 0.54181 0.25523 0.29912 0.0
C1858 C 0.50568 0.26348 0.28691 0.0
C1859 C 0.50875 0.25431 0.26063 0.0
C1860 C 0.52829 0.24515 0.25397 0.0
C1861 C 0.54459 0.24568 0.27334 0.0
C1862 C 0.48499 0.27329 0.29478 0.0
C1863 C 0.53215 0.23527 0.22613 0.0
C1864 C 0.46027 0.24004 0.21944 0.0
C1865 C 0.45814 0.25756 0.20222 0.0
C1866 C 0.47688 0.23858 0.23827 0.0
C1867 C 0.49173 0.25501 0.23978 0.0
C1868 C 0.49 0.27245 0.22189 0.0
C1869 C 0.47318 0.27354 0.20334 0.0
C1870 C 0.47824 0.21975 0.25703 0.0
C1871 C 0.50564 0.29019 0.22278 0.0
H1872 H 0.52007 0.27124 0.32577 0.0
H1873 H 0.55967 0.23898 0.26805 0.0
H1874 H 0.48162 0.28675 0.281 0.0
H1875 H 0.47211 0.2618 0.29209 0.0
H1876 H 0.48486 0.27893 0.31645 0.0
H1877 H 0.54794 0.22802 0.22465 0.0
H1878 H 0.52019 0.22307 0.22192 0.0
H1879 H 0.53068 0.24731 0.20976 0.0
H1880 H 0.44866 0.22766 0.21866 0.0
H1881 H 0.47161 0.2871 0.19004 0.0
H1882 H 0.47654 0.2248 0.2788 0.0
H1883 H 0.49383 0.2122 0.25506 0.0
H1884 H 0.46596 0.20792 0.25244 0.0
H1885 H 0.5051 0.29791 0.24326 0.0
H1886 H 0.50256 0.30219 0.20668 0.0
H1887 H 0.52175 0.28404 0.21993 0.0
C1888 C 0.71741 0.52641 0.29809 0.0
C1889 C 0.73344 0.54137 0.2991 0.0
C1890 C 0.71869 0.50925 0.2801 0.0
C1891 C 0.73616 0.50736 0.26226 0.0
C1892 C 0.75239 0.52244 0.26323 0.0
C1893 C 0.75095 0.53915 0.28191 0.0
C1894 C 0.70132 0.49318 0.28011 0.0
C1895 C 0.77105 0.52116 0.24415 0.0
C1896 C 0.74816 0.45381 0.23238 0.0
C1897 C 0.73806 0.45485 0.20676 0.0
C1898 C 0.74777 0.47085 0.25059 0.0
C1899 C 0.73746 0.48952 0.24268 0.0
C1900 C 0.72789 0.49093 0.21638 0.0
C1901 C 0.72808 0.47344 0.19883 0.0
C1902 C 0.75779 0.46861 0.27866 0.0
C1903 C 0.71718 0.51079 0.207 0.0
H1904 H 0.70388 0.52812 0.31142 0.0
H1905 H 0.76327 0.55084 0.28247 0.0
H1906 H 0.69361 0.49279 0.25962 0.0
H1907 H 0.70788 0.47734 0.28394 0.0
H1908 H 0.68924 0.49652 0.296 0.0
H1909 H 0.78222 0.53428 0.24735 0.0
H1910 H 0.77949 0.50617 0.24735 0.0
H1911 H 0.76568 0.52142 0.22239 0.0
H1912 H 0.75574 0.43938 0.23867 0.0
H1913 H 0.72031 0.47426 0.17898 0.0
H1914 H 0.74572 0.47054 0.29493 0.0
H1915 H 0.76965 0.48107 0.28182 0.0
H1916 H 0.76548 0.45314 0.28144 0.0
H1917 H 0.70346 0.51405 0.22035 0.0
H1918 H 0.71175 0.50978 0.18528 0.0
H1919 H 0.72803 0.52429 0.20897 0.0
C1920 C 0.47074 0.73332 0.29624 0.0
C1921 C 0.45012 0.73816 0.28866 0.0
C1922 C 0.48694 0.73353 0.27668 0.0
C1923 C 0.48231 0.73844 0.24887 0.0
C1924 C 0.46154 0.74351 0.24115 0.0
C1925 C 0.4457 0.74343 0.2612 0.0
C1926 C 0.50896 0.72828 0.28574 0.0
C1927 C 0.45599 0.74863 0.21165 0.0
C1928 C 0.52794 0.75513 0.20382 0.0
C1929 C 0.53345 0.73615 0.1912 0.0
C1930 C 0.51102 0.75622 0.22222 0.0
C1931 C 0.49922 0.73795 0.22783 0.0
C1932 C 0.50417 0.71894 0.21425 0.0
C1933 C 0.52134 0.71824 0.19619 0.0
C1934 C 0.50629 0.77674 0.23644 0.0
C1935 C 0.49174 0.6992 0.21941 0.0
H1936 H 0.47422 0.72929 0.31746 0.0
H1937 H 0.42974 0.74709 0.25524 0.0
H1938 H 0.5145 0.71403 0.27485 0.0
H1939 H 0.51976 0.74124 0.28017 0.0
H1940 H 0.51005 0.7255 0.3083 0.0
H1941 H 0.43914 0.75256 0.20914 0.0
H1942 H 0.46549 0.76206 0.20429 0.0
H1943 H 0.45972 0.73507 0.1982 0.0
H1944 H 0.53731 0.76901 0.20008 0.0
H1945 H 0.52551 0.70355 0.1864 0.0
H1946 H 0.50887 0.77504 0.25896 0.0
H1947 H 0.48961 0.78106 0.23342 0.0
H1948 H 0.51627 0.78974 0.22875 0.0
H1949 H 0.49373 0.69422 0.24116 0.0
H1950 H 0.49669 0.68611 0.20579 0.0
H1951 H 0.4748 0.70218 0.21611 0.0
C1952 C 0.18241 0.14328 0.19806 0.0
C1953 C 0.19092 0.12393 0.20588 0.0
C1954 C 0.16962 0.15469 0.21619 0.0
C1955 C 0.16545 0.14664 0.24284 0.0
C1956 C 0.1736 0.12687 0.25059 0.0
C1957 C 0.18617 0.11571 0.23195 0.0
C1958 C 0.16101 0.17562 0.20709 0.0
C1959 C 0.16962 0.11784 0.27888 0.0
C1960 C 0.15245 0.18675 0.29797 0.0
C1961 C 0.13056 0.18528 0.29931 0.0
C1962 C 0.16402 0.17392 0.2801 0.0
C1963 C 0.15341 0.15938 0.26303 0.0
C1964 C 0.13135 0.15748 0.26476 0.0
C1965 C 0.12018 0.17043 0.28298 0.0
C1966 C 0.18755 0.17627 0.27903 0.0
C1967 C 0.11952 0.14218 0.24684 0.0
H1968 H 0.186 0.14966 0.17789 0.0
H1969 H 0.19275 0.10076 0.23811 0.0
H1970 H 0.14376 0.17601 0.20988 0.0
H1971 H 0.16771 0.18827 0.22007 0.0
H1972 H 0.16466 0.17908 0.18516 0.0
H1973 H 0.17621 0.10182 0.2812 0.0
H1974 H 0.17676 0.12811 0.29477 0.0
H1975 H 0.15255 0.11723 0.28309 0.0
H1976 H 0.16055 0.19819 0.3106 0.0
H1977 H 0.10325 0.16928 0.28389 0.0
H1978 H 0.19238 0.18166 0.25823 0.0
H1979 H 0.1952 0.16091 0.28268 0.0
H1980 H 0.19347 0.18765 0.29452 0.0
H1981 H 0.12168 0.14636 0.22482 0.0
H1982 H 0.10247 0.14202 0.25148 0.0
H1983 H 0.12581 0.12612 0.24967 0.0
C1984 C 0.88315 0.18087 0.23296 0.0
C1985 C 0.87666 0.18317 0.2055 0.0
C1986 C 0.8717 0.16852 0.25153 0.0
C1987 C 0.85328 0.15833 0.24241 0.0
C1988 C 0.84722 0.15978 0.21438 0.0
C1989 C 0.85903 0.17216 0.19622 0.0
C1990 C 0.87878 0.16721 0.28119 0.0
C1991 C 0.82766 0.14912 0.2039 0.0
C1992 C 0.82747 0.11624 0.28626 0.0
C1993 C 0.81134 0.12762 0.29896 0.0
C1994 C 0.84156 0.12607 0.26816 0.0
C1995 C 0.83935 0.14774 0.26263 0.0
C1996 C 0.8234 0.15938 0.27595 0.0
C1997 C 0.80962 0.14919 0.29399 0.0
C1998 C 0.85849 0.11322 0.25451 0.0
C1999 C 0.82055 0.18253 0.27061 0.0
H2000 H 0.89685 0.18926 0.24021 0.0
H2001 H 0.85398 0.17387 0.175 0.0
H2002 H 0.86744 0.17563 0.29454 0.0
H2003 H 0.87916 0.15065 0.28815 0.0
H2004 H 0.89454 0.1742 0.2843 0.0
H2005 H 0.82607 0.15034 0.18115 0.0
H2006 H 0.8277 0.13231 0.20972 0.0
H2007 H 0.81367 0.15638 0.21357 0.0
H2008 H 0.82884 0.09955 0.29003 0.0
H2009 H 0.79718 0.15806 0.30374 0.0
H2010 H 0.87405 0.12044 0.25817 0.0
H2011 H 0.85594 0.11296 0.23189 0.0
H2012 H 0.85882 0.09681 0.26216 0.0
H2013 H 0.83526 0.19108 0.27531 0.0
H2014 H 0.80769 0.1894 0.28313 0.0
H2015 H 0.81699 0.18516 0.24849 0.0
C2016 C 0.85326 0.79946 0.2696 0.0
C2017 C 0.86799 0.80702 0.28858 0.0
C2018 C 0.84164 0.8132 0.25307 0.0
C2019 C 0.84503 0.83504 0.25527 0.0
C2020 C 0.86023 0.84278 0.27396 0.0
C2021 C 0.87145 0.82865 0.2906 0.0
C2022 C 0.82537 0.80432 0.23368 0.0
C2023 C 0.86447 0.86597 0.27655 0.0
C2024 C 0.82401 0.86672 0.19505 0.0
C2025 C 0.80467 0.87348 0.20544 0.0
C2026 C 0.83782 0.85499 0.2115 0.0
C2027 C 0.83194 0.84966 0.23876 0.0
C2028 C 0.81266 0.85693 0.24955 0.0
C2029 C 0.79932 0.86888 0.23281 0.0
C2030 C 0.8584 0.84778 0.19945 0.0
C2031 C 0.80569 0.85135 0.27839 0.0
H2032 H 0.85049 0.78275 0.26801 0.0
H2033 H 0.88291 0.83453 0.30516 0.0
H2034 H 0.80964 0.81041 0.23925 0.0
H2035 H 0.82866 0.80939 0.21225 0.0
H2036 H 0.82486 0.78692 0.23419 0.0
H2037 H 0.87762 0.86936 0.29088 0.0
H2038 H 0.86825 0.87268 0.25604 0.0
H2039 H 0.85024 0.87409 0.28416 0.0
H2040 H 0.82826 0.87039 0.17396 0.0
H2041 H 0.78438 0.87408 0.24094 0.0
H2042 H 0.85826 0.83049 0.19707 0.0
H2043 H 0.87149 0.85175 0.21356 0.0
H2044 H 0.86154 0.85493 0.17898 0.0
H2045 H 0.80344 0.83415 0.27997 0.0
H2046 H 0.79079 0.8592 0.28418 0.0
H2047 H 0.81791 0.85577 0.29356 0.0
C2048 C 0.18032 0.85261 0.30113 0.0
C2049 C 0.18329 0.87435 0.30034 0.0
C2050 C 0.16688 0.84264 0.2824 0.0
C2051 C 0.15624 0.85472 0.26229 0.0
C2052 C 0.15851 0.87678 0.2621 0.0
C2053 C 0.17199 0.88636 0.28121 0.0
C2054 C 0.1647 0.81909 0.28347 0.0
C2055 C 0.14742 0.89016 0.24099 0.0
C2056 C 0.14279 0.82436 0.19748 0.0
C2057 C 0.12188 0.81885 0.20242 0.0
C2058 C 0.15389 0.83688 0.21624 0.0
C2059 C 0.14382 0.84398 0.24054 0.0
C2060 C 0.1224 0.83933 0.24494 0.0
C2061 C 0.11166 0.82683 0.22578 0.0
C2062 C 0.17667 0.84166 0.2107 0.0
C2063 C 0.11112 0.84665 0.27054 0.0
H2064 H 0.18896 0.84327 0.31594 0.0
H2065 H 0.17427 0.90318 0.28048 0.0
H2066 H 0.14792 0.81463 0.28449 0.0
H2067 H 0.17126 0.8121 0.26438 0.0
H2068 H 0.17294 0.81216 0.30147 0.0
H2069 H 0.14937 0.90717 0.24512 0.0
H2070 H 0.15375 0.8867 0.22017 0.0
H2071 H 0.13045 0.88644 0.24059 0.0
H2072 H 0.15074 0.81829 0.17941 0.0
H2073 H 0.09547 0.82264 0.22967 0.0
H2074 H 0.1866 0.83361 0.22622 0.0
H2075 H 0.17964 0.85872 0.21268 0.0
H2076 H 0.18167 0.8365 0.18984 0.0
H2077 H 0.11756 0.8384 0.28881 0.0
H2078 H 0.094 0.8436 0.2695 0.0
H2079 H 0.11365 0.86367 0.27379 0.0
C2080 C 0.87005 0.80061 0.73099 0.0
C2081 C 0.87592 0.80723 0.70453 0.0
C2082 C 0.8587 0.81379 0.74861 0.0
C2083 C 0.85315 0.83413 0.73958 0.0
C2084 C 0.8595 0.84113 0.71316 0.0
C2085 C 0.87079 0.82754 0.69588 0.0
C2086 C 0.85213 0.80572 0.77657 0.0
C2087 C 0.85392 0.86276 0.70292 0.0
C2088 C 0.80469 0.85768 0.77234 0.0
C2089 C 0.81336 0.87102 0.79226 0.0
C2090 C 0.8175 0.84587 0.75478 0.0
C2091 C 0.83954 0.84747 0.75716 0.0
C2092 C 0.84842 0.8611 0.77701 0.0
C2093 C 0.8352 0.87272 0.79441 0.0
C2094 C 0.80743 0.83144 0.73394 0.0
C2095 C 0.87187 0.8632 0.78007 0.0
H2096 H 0.87402 0.78493 0.73782 0.0
H2097 H 0.87538 0.83274 0.67548 0.0
H2098 H 0.85737 0.81665 0.79297 0.0
H2099 H 0.83478 0.80487 0.77767 0.0
H2100 H 0.85861 0.78992 0.78101 0.0
H2101 H 0.86123 0.86631 0.68266 0.0
H2102 H 0.83667 0.86414 0.7008 0.0
H2103 H 0.85901 0.87477 0.71804 0.0
H2104 H 0.78781 0.85634 0.77055 0.0
H2105 H 0.84195 0.88308 0.80973 0.0
H2106 H 0.81206 0.81499 0.73819 0.0
H2107 H 0.81299 0.83532 0.71289 0.0
H2108 H 0.79005 0.83245 0.73424 0.0
H2109 H 0.87872 0.84791 0.78616 0.0
H2110 H 0.87627 0.8751 0.79575 0.0
H2111 H 0.87899 0.86764 0.76004 0.0
C2112 C 0.17052 0.86694 0.69861 0.0
C2113 C 0.18918 0.87532 0.70912 0.0
C2114 C 0.15696 0.85537 0.71558 0.0
C2115 C 0.16232 0.85203 0.74358 0.0
C2116 C 0.18069 0.86125 0.75452 0.0
C2117 C 0.19386 0.87283 0.73717 0.0
C2118 C 0.13739 0.84595 0.70328 0.0
C2119 C 0.18701 0.85797 0.78422 0.0
C2120 C 0.12285 0.83024 0.79484 0.0
C2121 C 0.12841 0.80899 0.79524 0.0
C2122 C 0.13346 0.84447 0.77768 0.0
C2123 C 0.15001 0.83721 0.76073 0.0
C2124 C 0.15551 0.81573 0.76093 0.0
C2125 C 0.14462 0.80189 0.77814 0.0
C2126 C 0.12713 0.86726 0.77787 0.0
C2127 C 0.17314 0.80738 0.74327 0.0
H2128 H 0.16679 0.86894 0.67697 0.0
H2129 H 0.20822 0.87937 0.74545 0.0
H2130 H 0.13907 0.82866 0.70225 0.0
H2131 H 0.12362 0.84937 0.71648 0.0
H2132 H 0.13425 0.85192 0.68216 0.0
H2133 H 0.20079 0.86763 0.79009 0.0
H2134 H 0.17382 0.86187 0.79819 0.0
H2135 H 0.19096 0.84123 0.78759 0.0
H2136 H 0.11026 0.83576 0.80796 0.0
H2137 H 0.14895 0.78546 0.77832 0.0
H2138 H 0.12337 0.87251 0.75664 0.0
H2139 H 0.14038 0.87701 0.78526 0.0
H2140 H 0.11335 0.87022 0.7913 0.0
H2141 H 0.17016 0.81105 0.72127 0.0
H2142 H 0.17514 0.79016 0.7454 0.0
H2143 H 0.18808 0.8151 0.74908 0.0
C2144 C 0.13056 0.16126 0.6971 0.0
C2145 C 0.13505 0.18273 0.69538 0.0
C2146 C 0.14183 0.1482 0.71506 0.0
C2147 C 0.1579 0.15687 0.73163 0.0
C2148 C 0.1627 0.17847 0.72962 0.0
C2149 C 0.15122 0.19113 0.71149 0.0
C2150 C 0.13638 0.12521 0.7166 0.0
C2151 C 0.17979 0.18827 0.74689 0.0
C2152 C 0.17576 0.13016 0.7975 0.0
C2153 C 0.19472 0.12115 0.78907 0.0
C2154 C 0.16322 0.1413 0.77876 0.0
C2155 C 0.16987 0.14344 0.75104 0.0
C2156 C 0.18868 0.1338 0.74227 0.0
C2157 C 0.20087 0.12276 0.76139 0.0
C2158 C 0.14319 0.15133 0.78881 0.0
C2159 C 0.19629 0.13575 0.71289 0.0
H2160 H 0.11802 0.15473 0.68473 0.0
H2161 H 0.15472 0.20773 0.71028 0.0
H2162 H 0.15042 0.11557 0.712 0.0
H2163 H 0.13126 0.12118 0.7378 0.0
H2164 H 0.12371 0.12086 0.70197 0.0
H2165 H 0.18167 0.20527 0.74268 0.0
H2166 H 0.1762 0.18618 0.7691 0.0
H2167 H 0.19495 0.18033 0.74284 0.0
H2168 H 0.17094 0.1289 0.81887 0.0
H2169 H 0.21549 0.11576 0.75473 0.0
H2170 H 0.12987 0.14657 0.77553 0.0
H2171 H 0.14455 0.16863 0.78744 0.0
H2172 H 0.13954 0.14704 0.81048 0.0
H2173 H 0.18385 0.13076 0.69834 0.0
H2174 H 0.21055 0.12621 0.70898 0.0
H2175 H 0.19995 0.15238 0.70828 0.0
C2176 C 0.85762 0.17856 0.79437 0.0
C2177 C 0.86834 0.19667 0.78623 0.0
C2178 C 0.84586 0.16693 0.77532 0.0
C2179 C 0.84514 0.17343 0.74742 0.0
C2180 C 0.85641 0.1914 0.73895 0.0
C2181 C 0.86774 0.20293 0.75854 0.0
C2182 C 0.83378 0.14802 0.78519 0.0
C2183 C 0.85627 0.1986 0.7093 0.0
C2184 C 0.82568 0.13298 0.69595 0.0
C2185 C 0.80464 0.13887 0.69308 0.0
C2186 C 0.83931 0.1445 0.7129 0.0
C2187 C 0.83157 0.16209 0.72752 0.0
C2188 C 0.81048 0.1684 0.72407 0.0
C2189 C 0.79732 0.15679 0.70675 0.0
C2190 C 0.86182 0.13755 0.71575 0.0
C2191 C 0.80159 0.18698 0.73945 0.0
H2192 H 0.85807 0.17369 0.81578 0.0
H2193 H 0.8762 0.21683 0.75214 0.0
H2194 H 0.81677 0.15055 0.78186 0.0
H2195 H 0.83835 0.13398 0.77313 0.0
H2196 H 0.83645 0.14474 0.80741 0.0
H2197 H 0.86699 0.21204 0.70574 0.0
H2198 H 0.86093 0.18554 0.6955 0.0
H2199 H 0.84018 0.20337 0.70331 0.0
H2200 H 0.8314 0.11917 0.68535 0.0
H2201 H 0.78105 0.1614 0.70463 0.0
H2202 H 0.86474 0.13215 0.73715 0.0
H2203 H 0.87254 0.15089 0.71179 0.0
H2204 H 0.86579 0.12459 0.70137 0.0
H2205 H 0.80238 0.18405 0.76197 0.0
H2206 H 0.78504 0.19021 0.73378 0.0
H2207 H 0.81104 0.2012 0.73517 0.0
C2208 C 0.67032 0.627 0.70413 0.0
C2209 C 0.69195 0.62681 0.70912 0.0
C2210 C 0.65678 0.63905 0.72059 0.0
C2211 C 0.66517 0.65142 0.74218 0.0
C2212 C 0.68695 0.65092 0.74761 0.0
C2213 C 0.70004 0.6385 0.73115 0.0
C2214 C 0.63359 0.63894 0.71447 0.0
C2215 C 0.69656 0.66409 0.77019 0.0
C2216 C 0.63684 0.70088 0.76411 0.0
C2217 C 0.62842 0.69498 0.78965 0.0
C2218 C 0.64848 0.6867 0.74824 0.0
C2219 C 0.65152 0.66601 0.75795 0.0
C2220 C 0.64254 0.65976 0.78335 0.0
C2221 C 0.63122 0.6744 0.79905 0.0
C2222 C 0.65804 0.69406 0.72144 0.0
C2223 C 0.64521 0.63774 0.79415 0.0
H2224 H 0.664 0.61787 0.68721 0.0
H2225 H 0.71677 0.63844 0.73508 0.0
H2226 H 0.62458 0.6356 0.73354 0.0
H2227 H 0.62867 0.65464 0.70707 0.0
H2228 H 0.62935 0.62715 0.69858 0.0
H2229 H 0.71365 0.66129 0.77245 0.0
H2230 H 0.69404 0.68095 0.76565 0.0
H2231 H 0.68884 0.66073 0.79019 0.0
H2232 H 0.63474 0.71678 0.75676 0.0
H2233 H 0.62461 0.66976 0.81871 0.0
H2234 H 0.65294 0.68381 0.70424 0.0
H2235 H 0.67537 0.69301 0.72267 0.0
H2236 H 0.65369 0.71048 0.71644 0.0
H2237 H 0.64031 0.62622 0.77827 0.0
H2238 H 0.63598 0.63494 0.81321 0.0
H2239 H 0.66198 0.63475 0.79871 0.0
C2240 C 0.31111 0.6473 0.79808 0.0
C2241 C 0.31195 0.62552 0.8016 0.0
C2242 C 0.32436 0.65745 0.7793 0.0
C2243 C 0.33887 0.64554 0.76374 0.0
C2244 C 0.34023 0.62361 0.76778 0.0
C2245 C 0.32671 0.61384 0.78666 0.0
C2246 C 0.32246 0.68088 0.77563 0.0
C2247 C 0.35562 0.61044 0.75169 0.0
C2248 C 0.35629 0.67123 0.69701 0.0
C2249 C 0.37502 0.68084 0.70515 0.0
C2250 C 0.34475 0.65892 0.71558 0.0
C2251 C 0.35222 0.65613 0.74285 0.0
C2252 C 0.37166 0.66493 0.75071 0.0
C2253 C 0.38281 0.67723 0.73177 0.0
C2254 C 0.32408 0.64975 0.70644 0.0
C2255 C 0.38022 0.66219 0.7795 0.0
H2256 H 0.29971 0.6564 0.80954 0.0
H2257 H 0.3274 0.59699 0.78929 0.0
H2258 H 0.33784 0.68849 0.77932 0.0
H2259 H 0.3178 0.6845 0.75411 0.0
H2260 H 0.31074 0.68792 0.78981 0.0
H2261 H 0.35546 0.59376 0.75827 0.0
H2262 H 0.35181 0.61118 0.7294 0.0
H2263 H 0.37172 0.61669 0.75423 0.0
H2264 H 0.35022 0.67398 0.67645 0.0
H2265 H 0.39736 0.68455 0.73813 0.0
H2266 H 0.31111 0.65739 0.7179 0.0
H2267 H 0.32348 0.63277 0.71123 0.0
H2268 H 0.32132 0.65191 0.684 0.0
H2269 H 0.37009 0.67065 0.79439 0.0
H2270 H 0.39646 0.66826 0.78151 0.0
H2271 H 0.38011 0.6454 0.78542 0.0
C2272 C 0.35624 0.30521 0.76883 0.0
C2273 C 0.36494 0.31274 0.79344 0.0
C2274 C 0.34349 0.31796 0.75237 0.0
C2275 C 0.33947 0.33885 0.7606 0.0
C2276 C 0.34856 0.34673 0.78515 0.0
C2277 C 0.36115 0.33352 0.80139 0.0
C2278 C 0.33397 0.30892 0.72645 0.0
C2279 C 0.34474 0.36898 0.79442 0.0
C2280 C 0.31852 0.37468 0.70447 0.0
C2281 C 0.29691 0.37393 0.70958 0.0
C2282 C 0.33269 0.36392 0.72152 0.0
C2283 C 0.325 0.35203 0.74399 0.0
C2284 C 0.30324 0.3516 0.74955 0.0
C2285 C 0.28947 0.36262 0.73232 0.0
C2286 C 0.35581 0.36486 0.7151 0.0
C2287 C 0.29442 0.33897 0.77319 0.0
H2288 H 0.35912 0.28915 0.76258 0.0
H2289 H 0.36792 0.33942 0.82035 0.0
H2290 H 0.31662 0.30917 0.72804 0.0
H2291 H 0.33833 0.31862 0.70837 0.0
H2292 H 0.33908 0.29254 0.72261 0.0
H2293 H 0.35382 0.37302 0.81323 0.0
H2294 H 0.34904 0.38008 0.77775 0.0
H2295 H 0.32784 0.37127 0.79881 0.0
H2296 H 0.32434 0.38351 0.68699 0.0
H2297 H 0.27278 0.36202 0.7364 0.0
H2298 H 0.36147 0.34909 0.70901 0.0
H2299 H 0.36474 0.3696 0.7337 0.0
H2300 H 0.35938 0.37602 0.69816 0.0
H2301 H 0.29767 0.32208 0.76981 0.0
H2302 H 0.27723 0.34109 0.77551 0.0
H2303 H 0.30213 0.34351 0.79278 0.0
C2304 C 0.61676 0.33203 0.72729 0.0
C2305 C 0.62736 0.32255 0.70523 0.0
C2306 C 0.62751 0.34454 0.74642 0.0
C2307 C 0.64931 0.34777 0.74323 0.0
C2308 C 0.65982 0.33922 0.7201 0.0
C2309 C 0.64873 0.32662 0.70143 0.0
C2310 C 0.61576 0.35334 0.77084 0.0
C2311 C 0.68302 0.34255 0.71577 0.0
C2312 C 0.678 0.39013 0.78322 0.0
C2313 C 0.68796 0.3783 0.80378 0.0
C2314 C 0.66485 0.38052 0.76376 0.0
C2315 C 0.6615 0.35863 0.76509 0.0
C2316 C 0.67076 0.34679 0.78657 0.0
C2317 C 0.68396 0.35676 0.8056 0.0
C2318 C 0.65529 0.39364 0.74111 0.0
C2319 C 0.66735 0.32343 0.78888 0.0
H2320 H 0.60023 0.3289 0.73035 0.0
H2321 H 0.65696 0.31939 0.68435 0.0
H2322 H 0.6211 0.34541 0.78995 0.0
H2323 H 0.6191 0.37029 0.77326 0.0
H2324 H 0.59855 0.35115 0.7689 0.0
H2325 H 0.68844 0.33645 0.69554 0.0
H2326 H 0.68688 0.35948 0.71702 0.0
H2327 H 0.69191 0.33448 0.73232 0.0
H2328 H 0.68109 0.40679 0.78168 0.0
H2329 H 0.69158 0.34758 0.8215 0.0
H2330 H 0.63816 0.39085 0.73988 0.0
H2331 H 0.66211 0.389 0.72097 0.0
H2332 H 0.65807 0.41066 0.74424 0.0
H2333 H 0.65035 0.31984 0.78899 0.0
H2334 H 0.67453 0.31677 0.80781 0.0
H2335 H 0.67427 0.31545 0.77071 0.0
C2336 C 0.36562 0.30118 0.23279 0.0
C2337 C 0.37613 0.30861 0.20938 0.0
C2338 C 0.35451 0.31485 0.25002 0.0
C2339 C 0.354 0.33651 0.24377 0.0
C2340 C 0.36534 0.34425 0.22084 0.0
C2341 C 0.37624 0.33016 0.20381 0.0
C2342 C 0.34252 0.30595 0.27418 0.0
C2343 C 0.36531 0.36727 0.21372 0.0
C2344 C 0.30479 0.36411 0.2676 0.0
C2345 C 0.31129 0.37316 0.29251 0.0
C2346 C 0.31876 0.35276 0.25112 0.0
C2347 C 0.33984 0.35051 0.25964 0.0
C2348 C 0.34676 0.3603 0.28422 0.0
C2349 C 0.33233 0.37146 0.30049 0.0
C2350 C 0.31071 0.34246 0.22514 0.0
C2351 C 0.36919 0.35843 0.29373 0.0
H2352 H 0.36558 0.28454 0.23729 0.0
H2353 H 0.38449 0.33598 0.18583 0.0
H2354 H 0.34658 0.31449 0.29336 0.0
H2355 H 0.32545 0.308 0.27072 0.0
H2356 H 0.34573 0.28901 0.27734 0.0
H2357 H 0.37675 0.37107 0.19721 0.0
H2358 H 0.34946 0.37196 0.20662 0.0
H2359 H 0.36902 0.3768 0.23221 0.0
H2360 H 0.28855 0.36543 0.26125 0.0
H2361 H 0.33744 0.37853 0.31967 0.0
H2362 H 0.31184 0.32517 0.22717 0.0
H2363 H 0.32046 0.34709 0.20723 0.0
H2364 H 0.29415 0.34662 0.22072 0.0
H2365 H 0.37253 0.34196 0.29959 0.0
H2366 H 0.37255 0.36865 0.31174 0.0
H2367 H 0.38006 0.36259 0.27675 0.0
C2368 C 0.61705 0.32446 0.29336 0.0
C2369 C 0.62584 0.30519 0.30105 0.0
C2370 C 0.62759 0.33793 0.27513 0.0
C2371 C 0.64738 0.33196 0.26452 0.0
C2372 C 0.65628 0.31251 0.27221 0.0
C2373 C 0.64538 0.29935 0.29034 0.0
C2374 C 0.61764 0.35855 0.26732 0.0
C2375 C 0.67741 0.30563 0.26146 0.0
C2376 C 0.67087 0.35632 0.20011 0.0
C2377 C 0.68583 0.36984 0.21154 0.0
C2378 C 0.65755 0.34449 0.21712 0.0
C2379 C 0.65931 0.34627 0.24615 0.0
C2380 C 0.6738 0.36056 0.2577 0.0
C2381 C 0.68687 0.37216 0.24025 0.0
C2382 C 0.6422 0.32947 0.20408 0.0
C2383 C 0.67614 0.36293 0.28853 0.0
H2384 H 0.60188 0.32898 0.30149 0.0
H2385 H 0.65223 0.28445 0.29617 0.0
H2386 H 0.62782 0.3717 0.27398 0.0
H2387 H 0.61606 0.35963 0.24459 0.0
H2388 H 0.60192 0.36062 0.27677 0.0
H2389 H 0.68194 0.28985 0.26907 0.0
H2390 H 0.67726 0.30533 0.2386 0.0
H2391 H 0.68961 0.31701 0.26788 0.0
H2392 H 0.66997 0.35454 0.17792 0.0
H2393 H 0.69833 0.3827 0.2492 0.0
H2394 H 0.62631 0.33181 0.21282 0.0
H2395 H 0.64694 0.31312 0.20877 0.0
H2396 H 0.64139 0.33135 0.18134 0.0
H2397 H 0.66068 0.36594 0.2982 0.0
H2398 H 0.68695 0.37589 0.29416 0.0
H2399 H 0.68231 0.34815 0.29744 0.0
C2400 C 0.69464 0.64487 0.27483 0.0
C2401 C 0.68625 0.63186 0.29533 0.0
C2402 C 0.68158 0.65611 0.25693 0.0
C2403 C 0.65958 0.65444 0.25975 0.0
C2404 C 0.65098 0.64134 0.28042 0.0
C2405 C 0.66445 0.63012 0.29795 0.0
C2406 C 0.69136 0.66985 0.23507 0.0
C2407 C 0.62758 0.63933 0.28414 0.0
C2408 C 0.62875 0.70006 0.23055 0.0
C2409 C 0.62239 0.69218 0.2049 0.0
C2410 C 0.64026 0.68768 0.24898 0.0
C2411 C 0.6457 0.66696 0.24148 0.0
C2412 C 0.63894 0.65873 0.21585 0.0
C2413 C 0.62727 0.67145 0.19787 0.0
C2414 C 0.64706 0.69697 0.2762 0.0
C2415 C 0.64456 0.63673 0.20711 0.0
H2416 H 0.71149 0.64619 0.27263 0.0
H2417 H 0.65791 0.62006 0.31376 0.0
H2418 H 0.68562 0.66516 0.21438 0.0
H2419 H 0.68665 0.6864 0.23836 0.0
H2420 H 0.70874 0.66897 0.23515 0.0
H2421 H 0.6234 0.62825 0.30093 0.0
H2422 H 0.62072 0.65488 0.28895 0.0
H2423 H 0.62026 0.63383 0.2647 0.0
H2424 H 0.62489 0.71605 0.23617 0.0
H2425 H 0.62235 0.66529 0.17807 0.0
H2426 H 0.6644 0.6981 0.27686 0.0
H2427 H 0.64217 0.68665 0.29344 0.0
H2428 H 0.6404 0.71284 0.27965 0.0
H2429 H 0.66181 0.63536 0.20488 0.0
H2430 H 0.63713 0.63231 0.18723 0.0
H2431 H 0.63965 0.62535 0.22313 0.0
C2432 C 0.32354 0.63588 0.19945 0.0
C2433 C 0.30832 0.62244 0.21043 0.0
C2434 C 0.33679 0.64745 0.21682 0.0
C2435 C 0.33468 0.64553 0.24578 0.0
C2436 C 0.32002 0.63121 0.25691 0.0
C2437 C 0.30703 0.61982 0.23908 0.0
C2438 C 0.35234 0.66248 0.20421 0.0
C2439 C 0.3173 0.62871 0.28766 0.0
C2440 C 0.37659 0.66838 0.29273 0.0
C2441 C 0.36776 0.68785 0.29943 0.0
C2442 C 0.36603 0.65436 0.27523 0.0
C2443 C 0.34621 0.65997 0.26439 0.0
C2444 C 0.33716 0.6795 0.27142 0.0
C2445 C 0.34806 0.69321 0.2888 0.0
C2446 C 0.37615 0.63367 0.26811 0.0
C2447 C 0.31597 0.68601 0.26044 0.0
H2448 H 0.32465 0.63787 0.17731 0.0
H2449 H 0.29536 0.60935 0.24768 0.0
H2450 H 0.34746 0.67882 0.20868 0.0
H2451 H 0.36808 0.6602 0.21344 0.0
H2452 H 0.35356 0.66055 0.18151 0.0
H2453 H 0.3067 0.6155 0.29295 0.0
H2454 H 0.33267 0.62605 0.29774 0.0
H2455 H 0.31064 0.64333 0.29643 0.0
H2456 H 0.39186 0.66423 0.30083 0.0
H2457 H 0.34117 0.70824 0.29394 0.0
H2458 H 0.3785 0.63258 0.2455 0.0
H2459 H 0.36571 0.62056 0.27416 0.0
H2460 H 0.39153 0.63158 0.27848 0.0
H2461 H 0.31633 0.68643 0.23758 0.0
H2462 H 0.31107 0.70166 0.2681 0.0
H2463 H 0.30393 0.67436 0.26656 0.0
loop_
_geom_bond_atom_site_label_1
_geom_bond_atom_site_label_2
_geom_bond_distance
_geom_bond_site_symmetry_2
_ccdc_geom_bond_type
In0 O1 2.294 . S
In0 O2 2.326 . S
In0 O6 2.266 . S
In0 O7 2.326 . S
In0 O8 2.266 . S
In0 O9 2.326 . S
In0 O11 2.294 . S
In0 O12 2.326 . S
O1 In0 2.294 . S
O1 C10 1.240 . S
O2 In0 2.326 . S
O2 C10 1.252 . S
C3 O6 1.252 . S
C3 O7 1.260 . S
C4 O11 1.240 . S
C4 O12 1.252 . S
C5 O8 1.252 . S
C5 O9 1.260 . S
O6 In0 2.266 . S
O6 C3 1.252 . S
O7 In0 2.326 . S
O7 C3 1.260 . S
O8 In0 2.266 . S
O8 C5 1.252 . S
O9 In0 2.326 . S
O9 C5 1.260 . S
C10 O1 1.240 . S
C10 O2 1.252 . S
O11 In0 2.294 . S
O11 C4 1.240 . S
O12 In0 2.326 . S
O12 C4 1.252 . S
In13 O14 2.294 . S
In13 O15 2.326 . S
In13 O19 2.266 . S
In13 O20 2.326 . S
In13 O21 2.266 . S
In13 O22 2.326 . S
In13 O24 2.294 . S
In13 O25 2.326 . S
O14 In13 2.294 . S
O14 C23 1.240 . S
O15 In13 2.326 . S
O15 C23 1.252 . S
C16 O19 1.252 . S
C16 O20 1.260 . S
C17 O24 1.240 . S
C17 O25 1.252 . S
C18 O21 1.252 . S
C18 O22 1.260 . S
O19 In13 2.266 . S
O19 C16 1.252 . S
O20 In13 2.326 . S
O20 C16 1.260 . S
O21 In13 2.266 . S
O21 C18 1.252 . S
O22 In13 2.326 . S
O22 C18 1.260 . S
C23 O14 1.240 . S
C23 O15 1.252 . S
O24 In13 2.294 . S
O24 C17 1.240 . S
O25 In13 2.326 . S
O25 C17 1.252 . S
In26 O27 2.294 . S
In26 O28 2.326 . S
In26 O32 2.266 . S
In26 O33 2.326 . S
In26 O34 2.266 . S
In26 O35 2.326 . S
In26 O37 2.294 . S
In26 O38 2.326 . S
O27 In26 2.294 . S
O27 C36 1.240 . S
O28 In26 2.326 . S
O28 C36 1.252 . S
C29 O32 1.252 . S
C29 O33 1.260 . S
C30 O37 1.240 . S
C30 O38 1.252 . S
C31 O34 1.252 . S
C31 O35 1.260 . S
O32 In26 2.266 . S
O32 C29 1.252 . S
O33 In26 2.326 . S
O33 C29 1.260 . S
O34 In26 2.266 . S
O34 C31 1.252 . S
O35 In26 2.326 . S
O35 C31 1.260 . S
C36 O27 1.240 . S
C36 O28 1.252 . S
O37 In26 2.294 . S
O37 C30 1.240 . S
O38 In26 2.326 . S
O38 C30 1.252 . S
In39 O40 2.294 . S
In39 O41 2.326 . S
In39 O45 2.266 . S
In39 O46 2.326 . S
In39 O47 2.266 . S
In39 O48 2.326 . S
In39 O50 2.294 . S
In39 O51 2.326 . S
O40 In39 2.294 . S
O40 C49 1.240 . S
O41 In39 2.326 . S
O41 C49 1.252 . S
C42 O45 1.252 . S
C42 O46 1.260 . S
C43 O50 1.240 . S
C43 O51 1.252 . S
C44 O47 1.252 . S
C44 O48 1.260 . S
O45 In39 2.266 . S
O45 C42 1.252 . S
O46 In39 2.326 . S
O46 C42 1.260 . S
O47 In39 2.266 . S
O47 C44 1.252 . S
O48 In39 2.326 . S
O48 C44 1.260 . S
C49 O40 1.240 . S
C49 O41 1.252 . S
O50 In39 2.294 . S
O50 C43 1.240 . S
O51 In39 2.326 . S
O51 C43 1.252 . S
In52 O53 2.294 . S
In52 O54 2.326 . S
In52 O58 2.266 . S
In52 O59 2.326 . S
In52 O60 2.266 . S
In52 O61 2.326 . S
In52 O63 2.294 . S
In52 O64 2.326 . S
O53 In52 2.294 . S
O53 C62 1.240 . S
O54 In52 2.326 . S
O54 C62 1.252 . S
C55 O58 1.252 . S
C55 O59 1.260 . S
C56 O63 1.240 . S
C56 O64 1.252 . S
C57 O60 1.252 . S
C57 O61 1.260 . S
O58 In52 2.266 . S
O58 C55 1.252 . S
O59 In52 2.326 . S
O59 C55 1.260 . S
O60 In52 2.266 . S
O60 C57 1.252 . S
O61 In52 2.326 . S
O61 C57 1.260 . S
C62 O53 1.240 . S
C62 O54 1.252 . S
O63 In52 2.294 . S
O63 C56 1.240 . S
O64 In52 2.326 . S
O64 C56 1.252 . S
In65 O66 2.294 . S
In65 O67 2.326 . S
In65 O71 2.266 . S
In65 O72 2.326 . S
In65 O73 2.266 . S
In65 O74 2.326 . S
In65 O76 2.294 . S
In65 O77 2.326 . S
O66 In65 2.294 . S
O66 C75 1.240 . S
O67 In65 2.326 . S
O67 C75 1.252 . S
C68 O71 1.252 . S
C68 O72 1.260 . S
C69 O76 1.240 . S
C69 O77 1.252 . S
C70 O73 1.252 . S
C70 O74 1.260 . S
O71 In65 2.266 . S
O71 C68 1.252 . S
O72 In65 2.326 . S
O72 C68 1.260 . S
O73 In65 2.266 . S
O73 C70 1.252 . S
O74 In65 2.326 . S
O74 C70 1.260 . S
C75 O66 1.240 . S
C75 O67 1.252 . S
O76 In65 2.294 . S
O76 C69 1.240 . S
O77 In65 2.326 . S
O77 C69 1.252 . S
In78 O79 2.294 . S
In78 O80 2.326 . S
In78 O84 2.266 . S
In78 O85 2.326 . S
In78 O86 2.266 . S
In78 O87 2.326 . S
In78 O89 2.294 . S
In78 O90 2.326 . S
O79 In78 2.294 . S
O79 C88 1.240 . S
O80 In78 2.326 . S
O80 C88 1.252 . S
C81 O84 1.252 . S
C81 O85 1.260 . S
C82 O89 1.240 . S
C82 O90 1.252 . S
C83 O86 1.252 . S
C83 O87 1.260 . S
O84 In78 2.266 . S
O84 C81 1.252 . S
O85 In78 2.326 . S
O85 C81 1.260 . S
O86 In78 2.266 . S
O86 C83 1.252 . S
O87 In78 2.326 . S
O87 C83 1.260 . S
C88 O79 1.240 . S
C88 O80 1.252 . S
O89 In78 2.294 . S
O89 C82 1.240 . S
O90 In78 2.326 . S
O90 C82 1.252 . S
In91 O92 2.294 . S
In91 O93 2.326 . S
In91 O97 2.266 . S
In91 O98 2.326 . S
In91 O99 2.266 . S
In91 O100 2.326 . S
In91 O102 2.294 . S
In91 O103 2.326 . S
O92 In91 2.294 . S
O92 C101 1.240 . S
O93 In91 2.326 . S
O93 C101 1.252 . S
C94 O97 1.252 . S
C94 O98 1.260 . S
C95 O102 1.240 . S
C95 O103 1.252 . S
C96 O99 1.252 . S
C96 O100 1.260 . S
O97 In91 2.266 . S
O97 C94 1.252 . S
O98 In91 2.326 . S
O98 C94 1.260 . S
O99 In91 2.266 . S
O99 C96 1.252 . S
O100 In91 2.326 . S
O100 C96 1.260 . S
C101 O92 1.240 . S
C101 O93 1.252 . S
O102 In91 2.294 . S
O102 C95 1.240 . S
O103 In91 2.326 . S
O103 C95 1.252 . S
In104 O105 2.294 . S
In104 O106 2.326 . S
In104 O110 2.266 . S
In104 O111 2.326 . S
In104 O112 2.266 . S
In104 O113 2.326 . S
In104 O115 2.294 . S
In104 O116 2.326 . S
O105 In104 2.294 . S
O105 C114 1.240 . S
O106 In104 2.326 . S
O106 C114 1.252 . S
C107 O110 1.252 . S
C107 O111 1.260 . S
C108 O115 1.240 . S
C108 O116 1.252 . S
C109 O112 1.252 . S
C109 O113 1.260 . S
O110 In104 2.266 . S
O110 C107 1.252 . S
O111 In104 2.326 . S
O111 C107 1.260 . S
O112 In104 2.266 . S
O112 C109 1.252 . S
O113 In104 2.326 . S
O113 C109 1.260 . S
C114 O105 1.240 . S
C114 O106 1.252 . S
O115 In104 2.294 . S
O115 C108 1.240 . S
O116 In104 2.326 . S
O116 C108 1.252 . S
In117 O118 2.294 . S
In117 O119 2.326 . S
In117 O123 2.266 . S
In117 O124 2.326 . S
In117 O125 2.266 . S
In117 O126 2.326 . S
In117 O128 2.294 . S
In117 O129 2.326 . S
O118 In117 2.294 . S
O118 C127 1.240 . S
O119 In117 2.326 . S
O119 C127 1.252 . S
C120 O123 1.252 . S
C120 O124 1.260 . S
C121 O128 1.240 . S
C121 O129 1.252 . S
C122 O125 1.252 . S
C122 O126 1.260 . S
O123 In117 2.266 . S
O123 C120 1.252 . S
O124 In117 2.326 . S
O124 C120 1.260 . S
O125 In117 2.266 . S
O125 C122 1.252 . S
O126 In117 2.326 . S
O126 C122 1.260 . S
C127 O118 1.240 . S
C127 O119 1.252 . S
O128 In117 2.294 . S
O128 C121 1.240 . S
O129 In117 2.326 . S
O129 C121 1.252 . S
In130 O131 2.294 . S
In130 O132 2.326 . S
In130 O136 2.266 . S
In130 O137 2.326 . S
In130 O138 2.266 . S
In130 O139 2.326 . S
In130 O141 2.294 . S
In130 O142 2.326 . S
O131 In130 2.294 . S
O131 C140 1.240 . S
O132 In130 2.326 . S
O132 C140 1.252 . S
C133 O136 1.252 . S
C133 O137 1.260 . S
C134 O141 1.240 . S
C134 O142 1.252 . S
C135 O138 1.252 . S
C135 O139 1.260 . S
O136 In130 2.266 . S
O136 C133 1.252 . S
O137 In130 2.326 . S
O137 C133 1.260 . S
O138 In130 2.266 . S
O138 C135 1.252 . S
O139 In130 2.326 . S
O139 C135 1.260 . S
C140 O131 1.240 . S
C140 O132 1.252 . S
O141 In130 2.294 . S
O141 C134 1.240 . S
O142 In130 2.326 . S
O142 C134 1.252 . S
In143 O144 2.294 . S
In143 O145 2.326 . S
In143 O149 2.266 . S
In143 O150 2.326 . S
In143 O151 2.266 . S
In143 O152 2.326 . S
In143 O154 2.294 . S
In143 O155 2.326 . S
O144 In143 2.294 . S
O144 C153 1.240 . S
O145 In143 2.326 . S
O145 C153 1.252 . S
C146 O149 1.252 . S
C146 O150 1.260 . S
C147 O154 1.240 . S
C147 O155 1.252 . S
C148 O151 1.252 . S
C148 O152 1.260 . S
O149 In143 2.266 . S
O149 C146 1.252 . S
O150 In143 2.326 . S
O150 C146 1.260 . S
O151 In143 2.266 . S
O151 C148 1.252 . S
O152 In143 2.326 . S
O152 C148 1.260 . S
C153 O144 1.240 . S
C153 O145 1.252 . S
O154 In143 2.294 . S
O154 C147 1.240 . S
O155 In143 2.326 . S
O155 C147 1.252 . S
In156 O157 2.294 . S
In156 O158 2.326 . S
In156 O162 2.266 . S
In156 O163 2.326 . S
In156 O164 2.266 . S
In156 O165 2.326 . S
In156 O167 2.294 . S
In156 O168 2.326 . S
O157 In156 2.294 . S
O157 C166 1.240 . S
O158 In156 2.326 . S
O158 C166 1.252 . S
C159 O162 1.252 . S
C159 O163 1.260 . S
C160 O167 1.240 . S
C160 O168 1.252 . S
C161 O164 1.252 . S
C161 O165 1.260 . S
O162 In156 2.266 . S
O162 C159 1.252 . S
O163 In156 2.326 . S
O163 C159 1.260 . S
O164 In156 2.266 . S
O164 C161 1.252 . S
O165 In156 2.326 . S
O165 C161 1.260 . S
C166 O157 1.240 . S
C166 O158 1.252 . S
O167 In156 2.294 . S
O167 C160 1.240 . S
O168 In156 2.326 . S
O168 C160 1.252 . S
In169 O170 2.294 . S
In169 O171 2.326 . S
In169 O175 2.266 . S
In169 O176 2.326 . S
In169 O177 2.266 . S
In169 O178 2.326 . S
In169 O180 2.294 . S
In169 O181 2.326 . S
O170 In169 2.294 . S
O170 C179 1.240 . S
O171 In169 2.326 . S
O171 C179 1.252 . S
C172 O175 1.252 . S
C172 O176 1.260 . S
C173 O180 1.240 . S
C173 O181 1.252 . S
C174 O177 1.252 . S
C174 O178 1.260 . S
O175 In169 2.266 . S
O175 C172 1.252 . S
O176 In169 2.326 . S
O176 C172 1.260 . S
O177 In169 2.266 . S
O177 C174 1.252 . S
O178 In169 2.326 . S
O178 C174 1.260 . S
C179 O170 1.240 . S
C179 O171 1.252 . S
O180 In169 2.294 . S
O180 C173 1.240 . S
O181 In169 2.326 . S
O181 C173 1.252 . S
In182 O183 2.294 . S
In182 O184 2.326 . S
In182 O188 2.266 . S
In182 O189 2.326 . S
In182 O190 2.266 . S
In182 O191 2.326 . S
In182 O193 2.294 . S
In182 O194 2.326 . S
O183 In182 2.294 . S
O183 C192 1.240 . S
O184 In182 2.326 . S
O184 C192 1.252 . S
C185 O188 1.252 . S
C185 O189 1.260 . S
C186 O193 1.240 . S
C186 O194 1.252 . S
C187 O190 1.252 . S
C187 O191 1.260 . S
O188 In182 2.266 . S
O188 C185 1.252 . S
O189 In182 2.326 . S
O189 C185 1.260 . S
O190 In182 2.266 . S
O190 C187 1.252 . S
O191 In182 2.326 . S
O191 C187 1.260 . S
C192 O183 1.240 . S
C192 O184 1.252 . S
O193 In182 2.294 . S
O193 C186 1.240 . S
O194 In182 2.326 . S
O194 C186 1.252 . S
In195 O196 2.294 . S
In195 O197 2.326 . S
In195 O201 2.266 . S
In195 O202 2.326 . S
In195 O203 2.266 . S
In195 O204 2.326 . S
In195 O206 2.294 . S
In195 O207 2.326 . S
O196 In195 2.294 . S
O196 C205 1.240 . S
O197 In195 2.326 . S
O197 C205 1.252 . S
C198 O201 1.252 . S
C198 O202 1.260 . S
C199 O206 1.240 . S
C199 O207 1.252 . S
C200 O203 1.252 . S
C200 O204 1.260 . S
O201 In195 2.266 . S
O201 C198 1.252 . S
O202 In195 2.326 . S
O202 C198 1.260 . S
O203 In195 2.266 . S
O203 C200 1.252 . S
O204 In195 2.326 . S
O204 C200 1.260 . S
C205 O196 1.240 . S
C205 O197 1.252 . S
O206 In195 2.294 . S
O206 C199 1.240 . S
O207 In195 2.326 . S
O207 C199 1.252 . S
In208 O209 2.294 . S
In208 O210 2.326 . S
In208 O214 2.266 . S
In208 O215 2.326 . S
In208 O216 2.266 . S
In208 O217 2.326 . S
In208 O219 2.294 . S
In208 O220 2.326 . S
O209 In208 2.294 . S
O209 C218 1.240 . S
O210 In208 2.326 . S
O210 C218 1.252 . S
C211 O214 1.252 . S
C211 O215 1.260 . S
C212 O219 1.240 . S
C212 O220 1.252 . S
C213 O216 1.252 . S
C213 O217 1.260 . S
O214 In208 2.266 . S
O214 C211 1.252 . S
O215 In208 2.326 . S
O215 C211 1.260 . S
O216 In208 2.266 . S
O216 C213 1.252 . S
O217 In208 2.326 . S
O217 C213 1.260 . S
C218 O209 1.240 . S
C218 O210 1.252 . S
O219 In208 2.294 . S
O219 C212 1.240 . S
O220 In208 2.326 . S
O220 C212 1.252 . S
In221 O222 2.294 . S
In221 O223 2.326 . S
In221 O227 2.266 . S
In221 O228 2.326 . S
In221 O229 2.266 . S
In221 O230 2.326 . S
In221 O232 2.294 . S
In221 O233 2.326 . S
O222 In221 2.294 . S
O222 C231 1.240 . S
O223 In221 2.326 . S
O223 C231 1.252 . S
C224 O227 1.252 . S
C224 O228 1.260 . S
C225 O232 1.240 . S
C225 O233 1.252 . S
C226 O229 1.252 . S
C226 O230 1.260 . S
O227 In221 2.266 . S
O227 C224 1.252 . S
O228 In221 2.326 . S
O228 C224 1.260 . S
O229 In221 2.266 . S
O229 C226 1.252 . S
O230 In221 2.326 . S
O230 C226 1.260 . S
C231 O222 1.240 . S
C231 O223 1.252 . S
O232 In221 2.294 . S
O232 C225 1.240 . S
O233 In221 2.326 . S
O233 C225 1.252 . S
In234 O235 2.294 . S
In234 O236 2.326 . S
In234 O240 2.266 . S
In234 O241 2.326 . S
In234 O242 2.266 . S
In234 O243 2.326 . S
In234 O245 2.294 . S
In234 O246 2.326 . S
O235 In234 2.294 . S
O235 C244 1.240 . S
O236 In234 2.326 . S
O236 C244 1.252 . S
C237 O240 1.252 . S
C237 O241 1.260 . S
C238 O245 1.240 . S
C238 O246 1.252 . S
C239 O242 1.252 . S
C239 O243 1.260 . S
O240 In234 2.266 . S
O240 C237 1.252 . S
O241 In234 2.326 . S
O241 C237 1.260 . S
O242 In234 2.266 . S
O242 C239 1.252 . S
O243 In234 2.326 . S
O243 C239 1.260 . S
C244 O235 1.240 . S
C244 O236 1.252 . S
O245 In234 2.294 . S
O245 C238 1.240 . S
O246 In234 2.326 . S
O246 C238 1.252 . S
In247 O248 2.294 . S
In247 O249 2.326 . S
In247 O253 2.266 . S
In247 O254 2.326 . S
In247 O255 2.266 . S
In247 O256 2.326 . S
In247 O258 2.294 . S
In247 O259 2.326 . S
O248 In247 2.294 . S
O248 C257 1.240 . S
O249 In247 2.326 . S
O249 C257 1.252 . S
C250 O253 1.252 . S
C250 O254 1.260 . S
C251 O258 1.240 . S
C251 O259 1.252 . S
C252 O255 1.252 . S
C252 O256 1.260 . S
O253 In247 2.266 . S
O253 C250 1.252 . S
O254 In247 2.326 . S
O254 C250 1.260 . S
O255 In247 2.266 . S
O255 C252 1.252 . S
O256 In247 2.326 . S
O256 C252 1.260 . S
C257 O248 1.240 . S
C257 O249 1.252 . S
O258 In247 2.294 . S
O258 C251 1.240 . S
O259 In247 2.326 . S
O259 C251 1.252 . S
In260 O261 2.294 . S
In260 O262 2.326 . S
In260 O266 2.266 . S
In260 O267 2.326 . S
In260 O268 2.266 . S
In260 O269 2.326 . S
In260 O271 2.294 . S
In260 O272 2.326 . S
O261 In260 2.294 . S
O261 C270 1.240 . S
O262 In260 2.326 . S
O262 C270 1.252 . S
C263 O266 1.252 . S
C263 O267 1.260 . S
C264 O271 1.240 . S
C264 O272 1.252 . S
C265 O268 1.252 . S
C265 O269 1.260 . S
O266 In260 2.266 . S
O266 C263 1.252 . S
O267 In260 2.326 . S
O267 C263 1.260 . S
O268 In260 2.266 . S
O268 C265 1.252 . S
O269 In260 2.326 . S
O269 C265 1.260 . S
C270 O261 1.240 . S
C270 O262 1.252 . S
O271 In260 2.294 . S
O271 C264 1.240 . S
O272 In260 2.326 . S
O272 C264 1.252 . S
In273 O274 2.294 . S
In273 O275 2.326 . S
In273 O279 2.266 . S
In273 O280 2.326 . S
In273 O281 2.266 . S
In273 O282 2.326 . S
In273 O284 2.294 . S
In273 O285 2.326 . S
O274 In273 2.294 . S
O274 C283 1.240 . S
O275 In273 2.326 . S
O275 C283 1.252 . S
C276 O279 1.252 . S
C276 O280 1.260 . S
C277 O284 1.240 . S
C277 O285 1.252 . S
C278 O281 1.252 . S
C278 O282 1.260 . S
O279 In273 2.266 . S
O279 C276 1.252 . S
O280 In273 2.326 . S
O280 C276 1.260 . S
O281 In273 2.266 . S
O281 C278 1.252 . S
O282 In273 2.326 . S
O282 C278 1.260 . S
C283 O274 1.240 . S
C283 O275 1.252 . S
O284 In273 2.294 . S
O284 C277 1.240 . S
O285 In273 2.326 . S
O285 C277 1.252 . S
In286 O287 2.294 . S
In286 O288 2.326 . S
In286 O292 2.266 . S
In286 O293 2.326 . S
In286 O294 2.266 . S
In286 O295 2.326 . S
In286 O297 2.294 . S
In286 O298 2.326 . S
O287 In286 2.294 . S
O287 C296 1.240 . S
O288 In286 2.326 . S
O288 C296 1.252 . S
C289 O292 1.252 . S
C289 O293 1.260 . S
C290 O297 1.240 . S
C290 O298 1.252 . S
C291 O294 1.252 . S
C291 O295 1.260 . S
O292 In286 2.266 . S
O292 C289 1.252 . S
O293 In286 2.326 . S
O293 C289 1.260 . S
O294 In286 2.266 . S
O294 C291 1.252 . S
O295 In286 2.326 . S
O295 C291 1.260 . S
C296 O287 1.240 . S
C296 O288 1.252 . S
O297 In286 2.294 . S
O297 C290 1.240 . S
O298 In286 2.326 . S
O298 C290 1.252 . S
In299 O300 2.294 . S
In299 O301 2.326 . S
In299 O305 2.266 . S
In299 O306 2.326 . S
In299 O307 2.266 . S
In299 O308 2.326 . S
In299 O310 2.294 . S
In299 O311 2.326 . S
O300 In299 2.294 . S
O300 C309 1.240 . S
O301 In299 2.326 . S
O301 C309 1.252 . S
C302 O305 1.252 . S
C302 O306 1.260 . S
C303 O310 1.240 . S
C303 O311 1.252 . S
C304 O307 1.252 . S
C304 O308 1.260 . S
O305 In299 2.266 . S
O305 C302 1.252 . S
O306 In299 2.326 . S
O306 C302 1.260 . S
O307 In299 2.266 . S
O307 C304 1.252 . S
O308 In299 2.326 . S
O308 C304 1.260 . S
C309 O300 1.240 . S
C309 O301 1.252 . S
O310 In299 2.294 . S
O310 C303 1.240 . S
O311 In299 2.326 . S
O311 C303 1.252 . S
In312 O313 2.294 . S
In312 O314 2.326 . S
In312 O318 2.266 . S
In312 O319 2.326 . S
In312 O320 2.266 . S
In312 O321 2.326 . S
In312 O323 2.294 . S
In312 O324 2.326 . S
O313 In312 2.294 . S
O313 C322 1.240 . S
O314 In312 2.326 . S
O314 C322 1.252 . S
C315 O318 1.252 . S
C315 O319 1.260 . S
C316 O323 1.240 . S
C316 O324 1.252 . S
C317 O320 1.252 . S
C317 O321 1.260 . S
O318 In312 2.266 . S
O318 C315 1.252 . S
O319 In312 2.326 . S
O319 C315 1.260 . S
O320 In312 2.266 . S
O320 C317 1.252 . S
O321 In312 2.326 . S
O321 C317 1.260 . S
C322 O313 1.240 . S
C322 O314 1.252 . S
O323 In312 2.294 . S
O323 C316 1.240 . S
O324 In312 2.326 . S
O324 C316 1.252 . S
In325 O326 2.294 . S
In325 O327 2.326 . S
In325 O331 2.266 . S
In325 O332 2.326 . S
In325 O333 2.266 . S
In325 O334 2.326 . S
In325 O336 2.294 . S
In325 O337 2.326 . S
O326 In325 2.294 . S
O326 C335 1.240 . S
O327 In325 2.326 . S
O327 C335 1.252 . S
C328 O331 1.252 . S
C328 O332 1.260 . S
C329 O336 1.240 . S
C329 O337 1.252 . S
C330 O333 1.252 . S
C330 O334 1.260 . S
O331 In325 2.266 . S
O331 C328 1.252 . S
O332 In325 2.326 . S
O332 C328 1.260 . S
O333 In325 2.266 . S
O333 C330 1.252 . S
O334 In325 2.326 . S
O334 C330 1.260 . S
C335 O326 1.240 . S
C335 O327 1.252 . S
O336 In325 2.294 . S
O336 C329 1.240 . S
O337 In325 2.326 . S
O337 C329 1.252 . S
In338 O339 2.294 . S
In338 O340 2.326 . S
In338 O344 2.266 . S
In338 O345 2.326 . S
In338 O346 2.266 . S
In338 O347 2.326 . S
In338 O349 2.294 . S
In338 O350 2.326 . S
O339 In338 2.294 . S
O339 C348 1.240 . S
O340 In338 2.326 . S
O340 C348 1.252 . S
C341 O344 1.252 . S
C341 O345 1.260 . S
C342 O349 1.240 . S
C342 O350 1.252 . S
C343 O346 1.252 . S
C343 O347 1.260 . S
O344 In338 2.266 . S
O344 C341 1.252 . S
O345 In338 2.326 . S
O345 C341 1.260 . S
O346 In338 2.266 . S
O346 C343 1.252 . S
O347 In338 2.326 . S
O347 C343 1.260 . S
C348 O339 1.240 . S
C348 O340 1.252 . S
O349 In338 2.294 . S
O349 C342 1.240 . S
O350 In338 2.326 . S
O350 C342 1.252 . S
In351 O352 2.294 . S
In351 O353 2.326 . S
In351 O357 2.266 . S
In351 O358 2.326 . S
In351 O359 2.266 . S
In351 O360 2.326 . S
In351 O362 2.294 . S
In351 O363 2.326 . S
O352 In351 2.294 . S
O352 C361 1.240 . S
O353 In351 2.326 . S
O353 C361 1.252 . S
C354 O357 1.252 . S
C354 O358 1.260 . S
C355 O362 1.240 . S
C355 O363 1.252 . S
C356 O359 1.252 . S
C356 O360 1.260 . S
O357 In351 2.266 . S
O357 C354 1.252 . S
O358 In351 2.326 . S
O358 C354 1.260 . S
O359 In351 2.266 . S
O359 C356 1.252 . S
O360 In351 2.326 . S
O360 C356 1.260 . S
C361 O352 1.240 . S
C361 O353 1.252 . S
O362 In351 2.294 . S
O362 C355 1.240 . S
O363 In351 2.326 . S
O363 C355 1.252 . S
In364 O365 2.294 . S
In364 O366 2.326 . S
In364 O370 2.266 . S
In364 O371 2.326 . S
In364 O372 2.266 . S
In364 O373 2.326 . S
In364 O375 2.294 . S
In364 O376 2.326 . S
O365 In364 2.294 . S
O365 C374 1.240 . S
O366 In364 2.326 . S
O366 C374 1.252 . S
C367 O370 1.252 . S
C367 O371 1.260 . S
C368 O375 1.240 . S
C368 O376 1.252 . S
C369 O372 1.252 . S
C369 O373 1.260 . S
O370 In364 2.266 . S
O370 C367 1.252 . S
O371 In364 2.326 . S
O371 C367 1.260 . S
O372 In364 2.266 . S
O372 C369 1.252 . S
O373 In364 2.326 . S
O373 C369 1.260 . S
C374 O365 1.240 . S
C374 O366 1.252 . S
O375 In364 2.294 . S
O375 C368 1.240 . S
O376 In364 2.326 . S
O376 C368 1.252 . S
In377 O378 2.294 . S
In377 O379 2.326 . S
In377 O383 2.266 . S
In377 O384 2.326 . S
In377 O385 2.266 . S
In377 O386 2.326 . S
In377 O388 2.294 . S
In377 O389 2.326 . S
O378 In377 2.294 . S
O378 C387 1.240 . S
O379 In377 2.326 . S
O379 C387 1.252 . S
C380 O383 1.252 . S
C380 O384 1.260 . S
C381 O388 1.240 . S
C381 O389 1.252 . S
C382 O385 1.252 . S
C382 O386 1.260 . S
O383 In377 2.266 . S
O383 C380 1.252 . S
O384 In377 2.326 . S
O384 C380 1.260 . S
O385 In377 2.266 . S
O385 C382 1.252 . S
O386 In377 2.326 . S
O386 C382 1.260 . S
C387 O378 1.240 . S
C387 O379 1.252 . S
O388 In377 2.294 . S
O388 C381 1.240 . S
O389 In377 2.326 . S
O389 C381 1.252 . S
In390 O391 2.294 . S
In390 O392 2.326 . S
In390 O396 2.266 . S
In390 O397 2.326 . S
In390 O398 2.266 . S
In390 O399 2.326 . S
In390 O401 2.294 . S
In390 O402 2.326 . S
O391 In390 2.294 . S
O391 C400 1.240 . S
O392 In390 2.326 . S
O392 C400 1.252 . S
C393 O396 1.252 . S
C393 O397 1.260 . S
C394 O401 1.240 . S
C394 O402 1.252 . S
C395 O398 1.252 . S
C395 O399 1.260 . S
O396 In390 2.266 . S
O396 C393 1.252 . S
O397 In390 2.326 . S
O397 C393 1.260 . S
O398 In390 2.266 . S
O398 C395 1.252 . S
O399 In390 2.326 . S
O399 C395 1.260 . S
C400 O391 1.240 . S
C400 O392 1.252 . S
O401 In390 2.294 . S
O401 C394 1.240 . S
O402 In390 2.326 . S
O402 C394 1.252 . S
In403 O404 2.294 . S
In403 O405 2.326 . S
In403 O409 2.266 . S
In403 O410 2.326 . S
In403 O411 2.266 . S
In403 O412 2.326 . S
In403 O414 2.294 . S
In403 O415 2.326 . S
O404 In403 2.294 . S
O404 C413 1.240 . S
O405 In403 2.326 . S
O405 C413 1.252 . S
C406 O409 1.252 . S
C406 O410 1.260 . S
C407 O414 1.240 . S
C407 O415 1.252 . S
C408 O411 1.252 . S
C408 O412 1.260 . S
O409 In403 2.266 . S
O409 C406 1.252 . S
O410 In403 2.326 . S
O410 C406 1.260 . S
O411 In403 2.266 . S
O411 C408 1.252 . S
O412 In403 2.326 . S
O412 C408 1.260 . S
C413 O404 1.240 . S
C413 O405 1.252 . S
O414 In403 2.294 . S
O414 C407 1.240 . S
O415 In403 2.326 . S
O415 C407 1.252 . S
C416 C417 1.391 . S
C416 C418 1.394 . S
C416 H432 0.931 . S
C417 C416 1.391 . S
C417 C421 1.376 . S
C418 C416 1.394 . S
C418 C419 1.369 . S
C418 C422 1.531 . S
C419 C418 1.369 . S
C419 C420 1.410 . S
C419 C427 1.503 . S
C420 C419 1.410 . S
C420 C421 1.392 . S
C420 C423 1.511 . S
C421 C417 1.376 . S
C421 C420 1.392 . S
C421 H433 0.929 . S
C422 C418 1.531 . S
C422 H434 0.960 . S
C422 H435 0.962 . S
C422 H436 0.960 . S
C423 C420 1.511 . S
C423 H437 0.961 . S
C423 H438 0.961 . S
C423 H439 0.961 . S
C424 C425 1.370 . S
C424 C426 1.363 . S
C424 H440 0.931 . S
C425 C424 1.370 . S
C425 C429 1.408 . S
C426 C424 1.363 . S
C426 C427 1.370 . S
C426 C430 1.524 . S
C427 C419 1.503 . S
C427 C426 1.370 . S
C427 C428 1.403 . S
C428 C427 1.403 . S
C428 C429 1.404 . S
C428 C431 1.539 . S
C429 C425 1.408 . S
C429 C428 1.404 . S
C429 H441 0.930 . S
C430 C426 1.524 . S
C430 H442 0.956 . S
C430 H443 0.961 . S
C430 H444 0.961 . S
C431 C428 1.539 . S
C431 H445 0.958 . S
C431 H446 0.961 . S
C431 H447 0.960 . S
H432 C416 0.931 . S
H433 C421 0.929 . S
H434 C422 0.960 . S
H435 C422 0.962 . S
H436 C422 0.960 . S
H437 C423 0.961 . S
H438 C423 0.961 . S
H439 C423 0.961 . S
H440 C424 0.931 . S
H441 C429 0.930 . S
H442 C430 0.956 . S
H443 C430 0.961 . S
H444 C430 0.961 . S
H445 C431 0.958 . S
H446 C431 0.961 . S
H447 C431 0.960 . S
C448 C449 1.391 . S
C448 C450 1.394 . S
C448 H464 0.931 . S
C449 C448 1.391 . S
C449 C453 1.376 . S
C450 C448 1.394 . S
C450 C451 1.369 . S
C450 C454 1.531 . S
C451 C450 1.369 . S
C451 C452 1.410 . S
C451 C459 1.503 . S
C452 C451 1.410 . S
C452 C453 1.392 . S
C452 C455 1.511 . S
C453 C449 1.376 . S
C453 C452 1.392 . S
C453 H465 0.929 . S
C454 C450 1.531 . S
C454 H466 0.960 . S
C454 H467 0.962 . S
C454 H468 0.960 . S
C455 C452 1.511 . S
C455 H469 0.961 . S
C455 H470 0.961 . S
C455 H471 0.961 . S
C456 C457 1.370 . S
C456 C458 1.363 . S
C456 H472 0.931 . S
C457 C456 1.370 . S
C457 C461 1.408 . S
C458 C456 1.363 . S
C458 C459 1.370 . S
C458 C462 1.524 . S
C459 C451 1.503 . S
C459 C458 1.370 . S
C459 C460 1.403 . S
C460 C459 1.403 . S
C460 C461 1.404 . S
C460 C463 1.539 . S
C461 C457 1.408 . S
C461 C460 1.404 . S
C461 H473 0.930 . S
C462 C458 1.524 . S
C462 H474 0.956 . S
C462 H475 0.961 . S
C462 H476 0.961 . S
C463 C460 1.539 . S
C463 H477 0.958 . S
C463 H478 0.961 . S
C463 H479 0.960 . S
H464 C448 0.931 . S
H465 C453 0.929 . S
H466 C454 0.960 . S
H467 C454 0.962 . S
H468 C454 0.960 . S
H469 C455 0.961 . S
H470 C455 0.961 . S
H471 C455 0.961 . S
H472 C456 0.931 . S
H473 C461 0.930 . S
H474 C462 0.956 . S
H475 C462 0.961 . S
H476 C462 0.961 . S
H477 C463 0.958 . S
H478 C463 0.961 . S
H479 C463 0.960 . S
C480 C481 1.391 . S
C480 C482 1.394 . S
C480 H496 0.931 . S
C481 C480 1.391 . S
C481 C485 1.376 . S
C482 C480 1.394 . S
C482 C483 1.369 . S
C482 C486 1.531 . S
C483 C482 1.369 . S
C483 C484 1.410 . S
C483 C491 1.503 . S
C484 C483 1.410 . S
C484 C485 1.392 . S
C484 C487 1.511 . S
C485 C481 1.376 . S
C485 C484 1.392 . S
C485 H497 0.929 . S
C486 C482 1.531 . S
C486 H498 0.960 . S
C486 H499 0.962 . S
C486 H500 0.960 . S
C487 C484 1.511 . S
C487 H501 0.961 . S
C487 H502 0.961 . S
C487 H503 0.961 . S
C488 C489 1.370 . S
C488 C490 1.363 . S
C488 H504 0.931 . S
C489 C488 1.370 . S
C489 C493 1.408 . S
C490 C488 1.363 . S
C490 C491 1.370 . S
C490 C494 1.524 . S
C491 C483 1.503 . S
C491 C490 1.370 . S
C491 C492 1.403 . S
C492 C491 1.403 . S
C492 C493 1.404 . S
C492 C495 1.539 . S
C493 C489 1.408 . S
C493 C492 1.404 . S
C493 H505 0.930 . S
C494 C490 1.524 . S
C494 H506 0.956 . S
C494 H507 0.961 . S
C494 H508 0.961 . S
C495 C492 1.539 . S
C495 H509 0.958 . S
C495 H510 0.961 . S
C495 H511 0.960 . S
H496 C480 0.931 . S
H497 C485 0.929 . S
H498 C486 0.960 . S
H499 C486 0.962 . S
H500 C486 0.960 . S
H501 C487 0.961 . S
H502 C487 0.961 . S
H503 C487 0.961 . S
H504 C488 0.931 . S
H505 C493 0.930 . S
H506 C494 0.956 . S
H507 C494 0.961 . S
H508 C494 0.961 . S
H509 C495 0.958 . S
H510 C495 0.961 . S
H511 C495 0.960 . S
C512 C513 1.391 . S
C512 C514 1.394 . S
C512 H528 0.931 . S
C513 C512 1.391 . S
C513 C517 1.376 . S
C514 C512 1.394 . S
C514 C515 1.369 . S
C514 C518 1.531 . S
C515 C514 1.369 . S
C515 C516 1.410 . S
C515 C523 1.503 . S
C516 C515 1.410 . S
C516 C517 1.392 . S
C516 C519 1.511 . S
C517 C513 1.376 . S
C517 C516 1.392 . S
C517 H529 0.929 . S
C518 C514 1.531 . S
C518 H530 0.960 . S
C518 H531 0.962 . S
C518 H532 0.960 . S
C519 C516 1.511 . S
C519 H533 0.961 . S
C519 H534 0.961 . S
C519 H535 0.961 . S
C520 C521 1.370 . S
C520 C522 1.363 . S
C520 H536 0.931 . S
C521 C520 1.370 . S
C521 C525 1.408 . S
C522 C520 1.363 . S
C522 C523 1.370 . S
C522 C526 1.524 . S
C523 C515 1.503 . S
C523 C522 1.370 . S
C523 C524 1.403 . S
C524 C523 1.403 . S
C524 C525 1.404 . S
C524 C527 1.539 . S
C525 C521 1.408 . S
C525 C524 1.404 . S
C525 H537 0.930 . S
C526 C522 1.524 . S
C526 H538 0.956 . S
C526 H539 0.961 . S
C526 H540 0.961 . S
C527 C524 1.539 . S
C527 H541 0.958 . S
C527 H542 0.961 . S
C527 H543 0.960 . S
H528 C512 0.931 . S
H529 C517 0.929 . S
H530 C518 0.960 . S
H531 C518 0.962 . S
H532 C518 0.960 . S
H533 C519 0.961 . S
H534 C519 0.961 . S
H535 C519 0.961 . S
H536 C520 0.931 . S
H537 C525 0.930 . S
H538 C526 0.956 . S
H539 C526 0.961 . S
H540 C526 0.961 . S
H541 C527 0.958 . S
H542 C527 0.961 . S
H543 C527 0.960 . S
C544 C545 1.391 . S
C544 C546 1.394 . S
C544 H560 0.931 . S
C545 C544 1.391 . S
C545 C549 1.376 . S
C546 C544 1.394 . S
C546 C547 1.369 . S
C546 C550 1.531 . S
C547 C546 1.369 . S
C547 C548 1.410 . S
C547 C555 1.503 . S
C548 C547 1.410 . S
C548 C549 1.392 . S
C548 C551 1.511 . S
C549 C545 1.376 . S
C549 C548 1.392 . S
C549 H561 0.929 . S
C550 C546 1.531 . S
C550 H562 0.960 . S
C550 H563 0.962 . S
C550 H564 0.960 . S
C551 C548 1.511 . S
C551 H565 0.961 . S
C551 H566 0.961 . S
C551 H567 0.961 . S
C552 C553 1.370 . S
C552 C554 1.363 . S
C552 H568 0.931 . S
C553 C552 1.370 . S
C553 C557 1.408 . S
C554 C552 1.363 . S
C554 C555 1.370 . S
C554 C558 1.524 . S
C555 C547 1.503 . S
C555 C554 1.370 . S
C555 C556 1.403 . S
C556 C555 1.403 . S
C556 C557 1.404 . S
C556 C559 1.539 . S
C557 C553 1.408 . S
C557 C556 1.404 . S
C557 H569 0.930 . S
C558 C554 1.524 . S
C558 H570 0.956 . S
C558 H571 0.961 . S
C558 H572 0.961 . S
C559 C556 1.539 . S
C559 H573 0.958 . S
C559 H574 0.961 . S
C559 H575 0.960 . S
H560 C544 0.931 . S
H561 C549 0.929 . S
H562 C550 0.960 . S
H563 C550 0.962 . S
H564 C550 0.960 . S
H565 C551 0.961 . S
H566 C551 0.961 . S
H567 C551 0.961 . S
H568 C552 0.931 . S
H569 C557 0.930 . S
H570 C558 0.956 . S
H571 C558 0.961 . S
H572 C558 0.961 . S
H573 C559 0.958 . S
H574 C559 0.961 . S
H575 C559 0.960 . S
C576 C577 1.391 . S
C576 C578 1.394 . S
C576 H592 0.931 . S
C577 C576 1.391 . S
C577 C581 1.376 . S
C578 C576 1.394 . S
C578 C579 1.369 . S
C578 C582 1.531 . S
C579 C578 1.369 . S
C579 C580 1.410 . S
C579 C587 1.503 . S
C580 C579 1.410 . S
C580 C581 1.392 . S
C580 C583 1.511 . S
C581 C577 1.376 . S
C581 C580 1.392 . S
C581 H593 0.929 . S
C582 C578 1.531 . S
C582 H594 0.960 . S
C582 H595 0.962 . S
C582 H596 0.960 . S
C583 C580 1.511 . S
C583 H597 0.961 . S
C583 H598 0.961 . S
C583 H599 0.961 . S
C584 C585 1.370 . S
C584 C586 1.363 . S
C584 H600 0.931 . S
C585 C584 1.370 . S
C585 C589 1.408 . S
C586 C584 1.363 . S
C586 C587 1.370 . S
C586 C590 1.524 . S
C587 C579 1.503 . S
C587 C586 1.370 . S
C587 C588 1.403 . S
C588 C587 1.403 . S
C588 C589 1.404 . S
C588 C591 1.539 . S
C589 C585 1.408 . S
C589 C588 1.404 . S
C589 H601 0.930 . S
C590 C586 1.524 . S
C590 H602 0.956 . S
C590 H603 0.961 . S
C590 H604 0.961 . S
C591 C588 1.539 . S
C591 H605 0.958 . S
C591 H606 0.961 . S
C591 H607 0.960 . S
H592 C576 0.931 . S
H593 C581 0.929 . S
H594 C582 0.960 . S
H595 C582 0.962 . S
H596 C582 0.960 . S
H597 C583 0.961 . S
H598 C583 0.961 . S
H599 C583 0.961 . S
H600 C584 0.931 . S
H601 C589 0.930 . S
H602 C590 0.956 . S
H603 C590 0.961 . S
H604 C590 0.961 . S
H605 C591 0.958 . S
H606 C591 0.961 . S
H607 C591 0.960 . S
C608 C609 1.391 . S
C608 C610 1.394 . S
C608 H624 0.931 . S
C609 C608 1.391 . S
C609 C613 1.376 . S
C610 C608 1.394 . S
C610 C611 1.369 . S
C610 C614 1.531 . S
C611 C610 1.369 . S
C611 C612 1.410 . S
C611 C619 1.503 . S
C612 C611 1.410 . S
C612 C613 1.392 . S
C612 C615 1.511 . S
C613 C609 1.376 . S
C613 C612 1.392 . S
C613 H625 0.929 . S
C614 C610 1.531 . S
C614 H626 0.960 . S
C614 H627 0.962 . S
C614 H628 0.960 . S
C615 C612 1.511 . S
C615 H629 0.961 . S
C615 H630 0.961 . S
C615 H631 0.961 . S
C616 C617 1.370 . S
C616 C618 1.363 . S
C616 H632 0.931 . S
C617 C616 1.370 . S
C617 C621 1.408 . S
C618 C616 1.363 . S
C618 C619 1.370 . S
C618 C622 1.524 . S
C619 C611 1.503 . S
C619 C618 1.370 . S
C619 C620 1.403 . S
C620 C619 1.403 . S
C620 C621 1.404 . S
C620 C623 1.539 . S
C621 C617 1.408 . S
C621 C620 1.404 . S
C621 H633 0.930 . S
C622 C618 1.524 . S
C622 H634 0.956 . S
C622 H635 0.961 . S
C622 H636 0.961 . S
C623 C620 1.539 . S
C623 H637 0.958 . S
C623 H638 0.961 . S
C623 H639 0.960 . S
H624 C608 0.931 . S
H625 C613 0.929 . S
H626 C614 0.960 . S
H627 C614 0.962 . S
H628 C614 0.960 . S
H629 C615 0.961 . S
H630 C615 0.961 . S
H631 C615 0.961 . S
H632 C616 0.931 . S
H633 C621 0.930 . S
H634 C622 0.956 . S
H635 C622 0.961 . S
H636 C622 0.961 . S
H637 C623 0.958 . S
H638 C623 0.961 . S
H639 C623 0.960 . S
C640 C641 1.391 . S
C640 C642 1.394 . S
C640 H656 0.931 . S
C641 C640 1.391 . S
C641 C645 1.376 . S
C642 C640 1.394 . S
C642 C643 1.369 . S
C642 C646 1.531 . S
C643 C642 1.369 . S
C643 C644 1.410 . S
C643 C651 1.503 . S
C644 C643 1.410 . S
C644 C645 1.392 . S
C644 C647 1.511 . S
C645 C641 1.376 . S
C645 C644 1.392 . S
C645 H657 0.929 . S
C646 C642 1.531 . S
C646 H658 0.960 . S
C646 H659 0.962 . S
C646 H660 0.960 . S
C647 C644 1.511 . S
C647 H661 0.961 . S
C647 H662 0.961 . S
C647 H663 0.961 . S
C648 C649 1.370 . S
C648 C650 1.363 . S
C648 H664 0.931 . S
C649 C648 1.370 . S
C649 C653 1.408 . S
C650 C648 1.363 . S
C650 C651 1.370 . S
C650 C654 1.524 . S
C651 C643 1.503 . S
C651 C650 1.370 . S
C651 C652 1.403 . S
C652 C651 1.403 . S
C652 C653 1.404 . S
C652 C655 1.539 . S
C653 C649 1.408 . S
C653 C652 1.404 . S
C653 H665 0.930 . S
C654 C650 1.524 . S
C654 H666 0.956 . S
C654 H667 0.961 . S
C654 H668 0.961 . S
C655 C652 1.539 . S
C655 H669 0.958 . S
C655 H670 0.961 . S
C655 H671 0.960 . S
H656 C640 0.931 . S
H657 C645 0.929 . S
H658 C646 0.960 . S
H659 C646 0.962 . S
H660 C646 0.960 . S
H661 C647 0.961 . S
H662 C647 0.961 . S
H663 C647 0.961 . S
H664 C648 0.931 . S
H665 C653 0.930 . S
H666 C654 0.956 . S
H667 C654 0.961 . S
H668 C654 0.961 . S
H669 C655 0.958 . S
H670 C655 0.961 . S
H671 C655 0.960 . S
C672 C673 1.391 . S
C672 C674 1.394 . S
C672 H688 0.931 . S
C673 C672 1.391 . S
C673 C677 1.376 . S
C674 C672 1.394 . S
C674 C675 1.369 . S
C674 C678 1.531 . S
C675 C674 1.369 . S
C675 C676 1.410 . S
C675 C683 1.503 . S
C676 C675 1.410 . S
C676 C677 1.392 . S
C676 C679 1.511 . S
C677 C673 1.376 . S
C677 C676 1.392 . S
C677 H689 0.929 . S
C678 C674 1.531 . S
C678 H690 0.960 . S
C678 H691 0.962 . S
C678 H692 0.960 . S
C679 C676 1.511 . S
C679 H693 0.961 . S
C679 H694 0.961 . S
C679 H695 0.961 . S
C680 C681 1.370 . S
C680 C682 1.363 . S
C680 H696 0.931 . S
C681 C680 1.370 . S
C681 C685 1.408 . S
C682 C680 1.363 . S
C682 C683 1.370 . S
C682 C686 1.524 . S
C683 C675 1.503 . S
C683 C682 1.370 . S
C683 C684 1.403 . S
C684 C683 1.403 . S
C684 C685 1.404 . S
C684 C687 1.539 . S
C685 C681 1.408 . S
C685 C684 1.404 . S
C685 H697 0.930 . S
C686 C682 1.524 . S
C686 H698 0.956 . S
C686 H699 0.961 . S
C686 H700 0.961 . S
C687 C684 1.539 . S
C687 H701 0.958 . S
C687 H702 0.961 . S
C687 H703 0.960 . S
H688 C672 0.931 . S
H689 C677 0.929 . S
H690 C678 0.960 . S
H691 C678 0.962 . S
H692 C678 0.960 . S
H693 C679 0.961 . S
H694 C679 0.961 . S
H695 C679 0.961 . S
H696 C680 0.931 . S
H697 C685 0.930 . S
H698 C686 0.956 . S
H699 C686 0.961 . S
H700 C686 0.961 . S
H701 C687 0.958 . S
H702 C687 0.961 . S
H703 C687 0.960 . S
C704 C705 1.391 . S
C704 C706 1.394 . S
C704 H720 0.931 . S
C705 C704 1.391 . S
C705 C709 1.376 . S
C706 C704 1.394 . S
C706 C707 1.369 . S
C706 C710 1.531 . S
C707 C706 1.369 . S
C707 C708 1.410 . S
C707 C715 1.503 . S
C708 C707 1.410 . S
C708 C709 1.392 . S
C708 C711 1.511 . S
C709 C705 1.376 . S
C709 C708 1.392 . S
C709 H721 0.929 . S
C710 C706 1.531 . S
C710 H722 0.960 . S
C710 H723 0.962 . S
C710 H724 0.960 . S
C711 C708 1.511 . S
C711 H725 0.961 . S
C711 H726 0.961 . S
C711 H727 0.961 . S
C712 C713 1.370 . S
C712 C714 1.363 . S
C712 H728 0.931 . S
C713 C712 1.370 . S
C713 C717 1.408 . S
C714 C712 1.363 . S
C714 C715 1.370 . S
C714 C718 1.524 . S
C715 C707 1.503 . S
C715 C714 1.370 . S
C715 C716 1.403 . S
C716 C715 1.403 . S
C716 C717 1.404 . S
C716 C719 1.539 . S
C717 C713 1.408 . S
C717 C716 1.404 . S
C717 H729 0.930 . S
C718 C714 1.524 . S
C718 H730 0.956 . S
C718 H731 0.961 . S
C718 H732 0.961 . S
C719 C716 1.539 . S
C719 H733 0.958 . S
C719 H734 0.961 . S
C719 H735 0.960 . S
H720 C704 0.931 . S
H721 C709 0.929 . S
H722 C710 0.960 . S
H723 C710 0.962 . S
H724 C710 0.960 . S
H725 C711 0.961 . S
H726 C711 0.961 . S
H727 C711 0.961 . S
H728 C712 0.931 . S
H729 C717 0.930 . S
H730 C718 0.956 . S
H731 C718 0.961 . S
H732 C718 0.961 . S
H733 C719 0.958 . S
H734 C719 0.961 . S
H735 C719 0.960 . S
C736 C737 1.391 . S
C736 C738 1.394 . S
C736 H752 0.931 . S
C737 C736 1.391 . S
C737 C741 1.376 . S
C738 C736 1.394 . S
C738 C739 1.369 . S
C738 C742 1.531 . S
C739 C738 1.369 . S
C739 C740 1.410 . S
C739 C747 1.503 . S
C740 C739 1.410 . S
C740 C741 1.392 . S
C740 C743 1.511 . S
C741 C737 1.376 . S
C741 C740 1.392 . S
C741 H753 0.929 . S
C742 C738 1.531 . S
C742 H754 0.960 . S
C742 H755 0.962 . S
C742 H756 0.960 . S
C743 C740 1.511 . S
C743 H757 0.961 . S
C743 H758 0.961 . S
C743 H759 0.961 . S
C744 C745 1.370 . S
C744 C746 1.363 . S
C744 H760 0.931 . S
C745 C744 1.370 . S
C745 C749 1.408 . S
C746 C744 1.363 . S
C746 C747 1.370 . S
C746 C750 1.524 . S
C747 C739 1.503 . S
C747 C746 1.370 . S
C747 C748 1.403 . S
C748 C747 1.403 . S
C748 C749 1.404 . S
C748 C751 1.539 . S
C749 C745 1.408 . S
C749 C748 1.404 . S
C749 H761 0.930 . S
C750 C746 1.524 . S
C750 H762 0.956 . S
C750 H763 0.961 . S
C750 H764 0.961 . S
C751 C748 1.539 . S
C751 H765 0.958 . S
C751 H766 0.961 . S
C751 H767 0.960 . S
H752 C736 0.931 . S
H753 C741 0.929 . S
H754 C742 0.960 . S
H755 C742 0.962 . S
H756 C742 0.960 . S
H757 C743 0.961 . S
H758 C743 0.961 . S
H759 C743 0.961 . S
H760 C744 0.931 . S
H761 C749 0.930 . S
H762 C750 0.956 . S
H763 C750 0.961 . S
H764 C750 0.961 . S
H765 C751 0.958 . S
H766 C751 0.961 . S
H767 C751 0.960 . S
C768 C769 1.391 . S
C768 C770 1.394 . S
C768 H784 0.931 . S
C769 C768 1.391 . S
C769 C773 1.376 . S
C770 C768 1.394 . S
C770 C771 1.369 . S
C770 C774 1.531 . S
C771 C770 1.369 . S
C771 C772 1.410 . S
C771 C779 1.503 . S
C772 C771 1.410 . S
C772 C773 1.392 . S
C772 C775 1.511 . S
C773 C769 1.376 . S
C773 C772 1.392 . S
C773 H785 0.929 . S
C774 C770 1.531 . S
C774 H786 0.960 . S
C774 H787 0.962 . S
C774 H788 0.960 . S
C775 C772 1.511 . S
C775 H789 0.961 . S
C775 H790 0.961 . S
C775 H791 0.961 . S
C776 C777 1.370 . S
C776 C778 1.363 . S
C776 H792 0.931 . S
C777 C776 1.370 . S
C777 C781 1.408 . S
C778 C776 1.363 . S
C778 C779 1.370 . S
C778 C782 1.524 . S
C779 C771 1.503 . S
C779 C778 1.370 . S
C779 C780 1.403 . S
C780 C779 1.403 . S
C780 C781 1.404 . S
C780 C783 1.539 . S
C781 C777 1.408 . S
C781 C780 1.404 . S
C781 H793 0.930 . S
C782 C778 1.524 . S
C782 H794 0.956 . S
C782 H795 0.961 . S
C782 H796 0.961 . S
C783 C780 1.539 . S
C783 H797 0.958 . S
C783 H798 0.961 . S
C783 H799 0.960 . S
H784 C768 0.931 . S
H785 C773 0.929 . S
H786 C774 0.960 . S
H787 C774 0.962 . S
H788 C774 0.960 . S
H789 C775 0.961 . S
H790 C775 0.961 . S
H791 C775 0.961 . S
H792 C776 0.931 . S
H793 C781 0.930 . S
H794 C782 0.956 . S
H795 C782 0.961 . S
H796 C782 0.961 . S
H797 C783 0.958 . S
H798 C783 0.961 . S
H799 C783 0.960 . S
C800 C801 1.391 . S
C800 C802 1.394 . S
C800 H816 0.931 . S
C801 C800 1.391 . S
C801 C805 1.376 . S
C802 C800 1.394 . S
C802 C803 1.369 . S
C802 C806 1.531 . S
C803 C802 1.369 . S
C803 C804 1.410 . S
C803 C811 1.503 . S
C804 C803 1.410 . S
C804 C805 1.392 . S
C804 C807 1.511 . S
C805 C801 1.376 . S
C805 C804 1.392 . S
C805 H817 0.929 . S
C806 C802 1.531 . S
C806 H818 0.960 . S
C806 H819 0.962 . S
C806 H820 0.960 . S
C807 C804 1.511 . S
C807 H821 0.961 . S
C807 H822 0.961 . S
C807 H823 0.961 . S
C808 C809 1.370 . S
C808 C810 1.363 . S
C808 H824 0.931 . S
C809 C808 1.370 . S
C809 C813 1.408 . S
C810 C808 1.363 . S
C810 C811 1.370 . S
C810 C814 1.524 . S
C811 C803 1.503 . S
C811 C810 1.370 . S
C811 C812 1.403 . S
C812 C811 1.403 . S
C812 C813 1.404 . S
C812 C815 1.539 . S
C813 C809 1.408 . S
C813 C812 1.404 . S
C813 H825 0.930 . S
C814 C810 1.524 . S
C814 H826 0.956 . S
C814 H827 0.961 . S
C814 H828 0.961 . S
C815 C812 1.539 . S
C815 H829 0.958 . S
C815 H830 0.961 . S
C815 H831 0.960 . S
H816 C800 0.931 . S
H817 C805 0.929 . S
H818 C806 0.960 . S
H819 C806 0.962 . S
H820 C806 0.960 . S
H821 C807 0.961 . S
H822 C807 0.961 . S
H823 C807 0.961 . S
H824 C808 0.931 . S
H825 C813 0.930 . S
H826 C814 0.956 . S
H827 C814 0.961 . S
H828 C814 0.961 . S
H829 C815 0.958 . S
H830 C815 0.961 . S
H831 C815 0.960 . S
C832 C833 1.391 . S
C832 C834 1.394 . S
C832 H848 0.931 . S
C833 C832 1.391 . S
C833 C837 1.376 . S
C834 C832 1.394 . S
C834 C835 1.369 . S
C834 C838 1.531 . S
C835 C834 1.369 . S
C835 C836 1.410 . S
C835 C843 1.503 . S
C836 C835 1.410 . S
C836 C837 1.392 . S
C836 C839 1.511 . S
C837 C833 1.376 . S
C837 C836 1.392 . S
C837 H849 0.929 . S
C838 C834 1.531 . S
C838 H850 0.960 . S
C838 H851 0.962 . S
C838 H852 0.960 . S
C839 C836 1.511 . S
C839 H853 0.961 . S
C839 H854 0.961 . S
C839 H855 0.961 . S
C840 C841 1.370 . S
C840 C842 1.363 . S
C840 H856 0.931 . S
C841 C840 1.370 . S
C841 C845 1.408 . S
C842 C840 1.363 . S
C842 C843 1.370 . S
C842 C846 1.524 . S
C843 C835 1.503 . S
C843 C842 1.370 . S
C843 C844 1.403 . S
C844 C843 1.403 . S
C844 C845 1.404 . S
C844 C847 1.539 . S
C845 C841 1.408 . S
C845 C844 1.404 . S
C845 H857 0.930 . S
C846 C842 1.524 . S
C846 H858 0.956 . S
C846 H859 0.961 . S
C846 H860 0.961 . S
C847 C844 1.539 . S
C847 H861 0.958 . S
C847 H862 0.961 . S
C847 H863 0.960 . S
H848 C832 0.931 . S
H849 C837 0.929 . S
H850 C838 0.960 . S
H851 C838 0.962 . S
H852 C838 0.960 . S
H853 C839 0.961 . S
H854 C839 0.961 . S
H855 C839 0.961 . S
H856 C840 0.931 . S
H857 C845 0.930 . S
H858 C846 0.956 . S
H859 C846 0.961 . S
H860 C846 0.961 . S
H861 C847 0.958 . S
H862 C847 0.961 . S
H863 C847 0.960 . S
C864 C865 1.391 . S
C864 C866 1.394 . S
C864 H880 0.931 . S
C865 C864 1.391 . S
C865 C869 1.376 . S
C866 C864 1.394 . S
C866 C867 1.369 . S
C866 C870 1.531 . S
C867 C866 1.369 . S
C867 C868 1.410 . S
C867 C875 1.503 . S
C868 C867 1.410 . S
C868 C869 1.392 . S
C868 C871 1.511 . S
C869 C865 1.376 . S
C869 C868 1.392 . S
C869 H881 0.929 . S
C870 C866 1.531 . S
C870 H882 0.960 . S
C870 H883 0.962 . S
C870 H884 0.960 . S
C871 C868 1.511 . S
C871 H885 0.961 . S
C871 H886 0.961 . S
C871 H887 0.961 . S
C872 C873 1.370 . S
C872 C874 1.363 . S
C872 H888 0.931 . S
C873 C872 1.370 . S
C873 C877 1.408 . S
C874 C872 1.363 . S
C874 C875 1.370 . S
C874 C878 1.524 . S
C875 C867 1.503 . S
C875 C874 1.370 . S
C875 C876 1.403 . S
C876 C875 1.403 . S
C876 C877 1.404 . S
C876 C879 1.539 . S
C877 C873 1.408 . S
C877 C876 1.404 . S
C877 H889 0.930 . S
C878 C874 1.524 . S
C878 H890 0.956 . S
C878 H891 0.961 . S
C878 H892 0.961 . S
C879 C876 1.539 . S
C879 H893 0.958 . S
C879 H894 0.961 . S
C879 H895 0.960 . S
H880 C864 0.931 . S
H881 C869 0.929 . S
H882 C870 0.960 . S
H883 C870 0.962 . S
H884 C870 0.960 . S
H885 C871 0.961 . S
H886 C871 0.961 . S
H887 C871 0.961 . S
H888 C872 0.931 . S
H889 C877 0.930 . S
H890 C878 0.956 . S
H891 C878 0.961 . S
H892 C878 0.961 . S
H893 C879 0.958 . S
H894 C879 0.961 . S
H895 C879 0.960 . S
C896 C897 1.391 . S
C896 C898 1.394 . S
C896 H912 0.931 . S
C897 C896 1.391 . S
C897 C901 1.376 . S
C898 C896 1.394 . S
C898 C899 1.369 . S
C898 C902 1.531 . S
C899 C898 1.369 . S
C899 C900 1.410 . S
C899 C907 1.503 . S
C900 C899 1.410 . S
C900 C901 1.392 . S
C900 C903 1.511 . S
C901 C897 1.376 . S
C901 C900 1.392 . S
C901 H913 0.929 . S
C902 C898 1.531 . S
C902 H914 0.960 . S
C902 H915 0.962 . S
C902 H916 0.960 . S
C903 C900 1.511 . S
C903 H917 0.961 . S
C903 H918 0.961 . S
C903 H919 0.961 . S
C904 C905 1.370 . S
C904 C906 1.363 . S
C904 H920 0.931 . S
C905 C904 1.370 . S
C905 C909 1.408 . S
C906 C904 1.363 . S
C906 C907 1.370 . S
C906 C910 1.524 . S
C907 C899 1.503 . S
C907 C906 1.370 . S
C907 C908 1.403 . S
C908 C907 1.403 . S
C908 C909 1.404 . S
C908 C911 1.539 . S
C909 C905 1.408 . S
C909 C908 1.404 . S
C909 H921 0.930 . S
C910 C906 1.524 . S
C910 H922 0.956 . S
C910 H923 0.961 . S
C910 H924 0.961 . S
C911 C908 1.539 . S
C911 H925 0.958 . S
C911 H926 0.961 . S
C911 H927 0.960 . S
H912 C896 0.931 . S
H913 C901 0.929 . S
H914 C902 0.960 . S
H915 C902 0.962 . S
H916 C902 0.960 . S
H917 C903 0.961 . S
H918 C903 0.961 . S
H919 C903 0.961 . S
H920 C904 0.931 . S
H921 C909 0.930 . S
H922 C910 0.956 . S
H923 C910 0.961 . S
H924 C910 0.961 . S
H925 C911 0.958 . S
H926 C911 0.961 . S
H927 C911 0.960 . S
C928 C929 1.391 . S
C928 C930 1.394 . S
C928 H944 0.931 . S
C929 C928 1.391 . S
C929 C933 1.376 . S
C930 C928 1.394 . S
C930 C931 1.369 . S
C930 C934 1.531 . S
C931 C930 1.369 . S
C931 C932 1.410 . S
C931 C939 1.503 1_554 S
C932 C931 1.410 . S
C932 C933 1.392 . S
C932 C935 1.511 . S
C933 C929 1.376 . S
C933 C932 1.392 . S
C933 H945 0.929 . S
C934 C930 1.531 . S
C934 H946 0.960 1_554 S
C934 H947 0.962 . S
C934 H948 0.960 . S
C935 C932 1.511 . S
C935 H949 0.961 . S
C935 H950 0.961 1_554 S
C935 H951 0.961 . S
C936 C937 1.370 . S
C936 C938 1.363 . S
C936 H952 0.931 . S
C937 C936 1.370 . S
C937 C941 1.408 . S
C938 C936 1.363 . S
C938 C939 1.370 . S
C938 C942 1.524 . S
C939 C931 1.503 1_556 S
C939 C938 1.370 . S
C939 C940 1.403 . S
C940 C939 1.403 . S
C940 C941 1.404 . S
C940 C943 1.539 . S
C941 C937 1.408 . S
C941 C940 1.404 . S
C941 H953 0.930 . S
C942 C938 1.524 . S
C942 H954 0.956 . S
C942 H955 0.961 1_556 S
C942 H956 0.961 . S
C943 C940 1.539 . S
C943 H957 0.958 . S
C943 H958 0.961 . S
C943 H959 0.971 . S
H944 C928 0.931 . S
H945 C933 0.929 . S
H946 C934 0.960 1_556 S
H947 C934 0.962 . S
H948 C934 0.960 . S
H949 C935 0.961 . S
H950 C935 0.961 1_556 S
H951 C935 0.961 . S
H952 C936 0.931 . S
H953 C941 0.930 . S
H954 C942 0.956 . S
H955 C942 0.961 1_554 S
H956 C942 0.961 . S
H957 C943 0.958 . S
H958 C943 0.961 . S
H959 C943 0.971 . S
C960 C961 1.391 . S
C960 C962 1.394 . S
C960 H976 0.931 . S
C961 C960 1.391 . S
C961 C965 1.376 . S
C962 C960 1.394 . S
C962 C963 1.369 . S
C962 C966 1.531 . S
C963 C962 1.369 . S
C963 C964 1.410 . S
C963 C971 1.503 1_556 S
C964 C963 1.410 . S
C964 C965 1.392 . S
C964 C967 1.511 . S
C965 C961 1.376 . S
C965 C964 1.392 . S
C965 H977 0.929 . S
C966 C962 1.531 . S
C966 H978 0.960 1_556 S
C966 H979 0.962 . S
C966 H980 0.960 . S
C967 C964 1.511 . S
C967 H981 0.961 . S
C967 H982 0.961 1_556 S
C967 H983 0.961 . S
C968 C969 1.370 . S
C968 C970 1.363 . S
C968 H984 0.931 . S
C969 C968 1.370 . S
C969 C973 1.408 . S
C970 C968 1.363 . S
C970 C971 1.370 . S
C970 C974 1.524 . S
C971 C963 1.503 1_554 S
C971 C970 1.370 . S
C971 C972 1.403 . S
C972 C971 1.403 . S
C972 C973 1.404 . S
C972 C975 1.539 . S
C973 C969 1.408 . S
C973 C972 1.404 . S
C973 H985 0.930 . S
C974 C970 1.524 . S
C974 H986 0.956 . S
C974 H987 0.961 1_554 S
C974 H988 0.961 . S
C975 C972 1.539 . S
C975 H989 0.958 . S
C975 H990 0.961 . S
C975 H991 0.971 . S
H976 C960 0.931 . S
H977 C965 0.929 . S
H978 C966 0.960 1_554 S
H979 C966 0.962 . S
H980 C966 0.960 . S
H981 C967 0.961 . S
H982 C967 0.961 1_554 S
H983 C967 0.961 . S
H984 C968 0.931 . S
H985 C973 0.930 . S
H986 C974 0.956 . S
H987 C974 0.961 1_556 S
H988 C974 0.961 . S
H989 C975 0.958 . S
H990 C975 0.961 . S
H991 C975 0.971 . S
C992 C993 1.391 . S
C992 C994 1.394 . S
C992 H1008 0.931 . S
C993 C992 1.391 . S
C993 C997 1.376 . S
C994 C992 1.394 . S
C994 C995 1.369 . S
C994 C998 1.531 . S
C995 C994 1.369 . S
C995 C996 1.410 . S
C995 C1003 1.503 1_556 S
C996 C995 1.410 . S
C996 C997 1.392 . S
C996 C999 1.511 . S
C997 C993 1.376 . S
C997 C996 1.392 . S
C997 H1009 0.929 . S
C998 C994 1.531 . S
C998 H1010 0.960 1_556 S
C998 H1011 0.962 . S
C998 H1012 0.960 . S
C999 C996 1.511 . S
C999 H1013 0.961 . S
C999 H1014 0.961 1_556 S
C999 H1015 0.961 . S
C1000 C1001 1.370 . S
C1000 C1002 1.363 . S
C1000 H1016 0.931 . S
C1001 C1000 1.370 . S
C1001 C1005 1.408 . S
C1002 C1000 1.363 . S
C1002 C1003 1.370 . S
C1002 C1006 1.524 . S
C1003 C995 1.503 1_554 S
C1003 C1002 1.370 . S
C1003 C1004 1.403 . S
C1004 C1003 1.403 . S
C1004 C1005 1.404 . S
C1004 C1007 1.539 . S
C1005 C1001 1.408 . S
C1005 C1004 1.404 . S
C1005 H1017 0.930 . S
C1006 C1002 1.524 . S
C1006 H1018 0.956 . S
C1006 H1019 0.961 1_554 S
C1006 H1020 0.961 . S
C1007 C1004 1.539 . S
C1007 H1021 0.958 . S
C1007 H1022 0.961 . S
C1007 H1023 0.971 . S
H1008 C992 0.931 . S
H1009 C997 0.929 . S
H1010 C998 0.960 1_554 S
H1011 C998 0.962 . S
H1012 C998 0.960 . S
H1013 C999 0.961 . S
H1014 C999 0.961 1_554 S
H1015 C999 0.961 . S
H1016 C1000 0.931 . S
H1017 C1005 0.930 . S
H1018 C1006 0.956 . S
H1019 C1006 0.961 1_556 S
H1020 C1006 0.961 . S
H1021 C1007 0.958 . S
H1022 C1007 0.961 . S
H1023 C1007 0.971 . S
C1024 C1025 1.391 . S
C1024 C1026 1.394 . S
C1024 H1040 0.931 . S
C1025 C1024 1.391 . S
C1025 C1029 1.376 . S
C1026 C1024 1.394 . S
C1026 C1027 1.369 . S
C1026 C1030 1.531 . S
C1027 C1026 1.369 . S
C1027 C1028 1.410 . S
C1027 C1035 1.503 1_556 S
C1028 C1027 1.410 . S
C1028 C1029 1.392 . S
C1028 C1031 1.511 . S
C1029 C1025 1.376 . S
C1029 C1028 1.392 . S
C1029 H1041 0.929 . S
C1030 C1026 1.531 . S
C1030 H1042 0.960 1_556 S
C1030 H1043 0.962 . S
C1030 H1044 0.960 . S
C1031 C1028 1.511 . S
C1031 H1045 0.961 . S
C1031 H1046 0.961 1_556 S
C1031 H1047 0.961 . S
C1032 C1033 1.370 . S
C1032 C1034 1.363 . S
C1032 H1048 0.931 . S
C1033 C1032 1.370 . S
C1033 C1037 1.408 . S
C1034 C1032 1.363 . S
C1034 C1035 1.370 . S
C1034 C1038 1.524 . S
C1035 C1027 1.503 1_554 S
C1035 C1034 1.370 . S
C1035 C1036 1.403 . S
C1036 C1035 1.403 . S
C1036 C1037 1.404 . S
C1036 C1039 1.539 . S
C1037 C1033 1.408 . S
C1037 C1036 1.404 . S
C1037 H1049 0.930 . S
C1038 C1034 1.524 . S
C1038 H1050 0.956 . S
C1038 H1051 0.961 1_554 S
C1038 H1052 0.961 . S
C1039 C1036 1.539 . S
C1039 H1053 0.958 . S
C1039 H1054 0.961 . S
C1039 H1055 0.971 . S
H1040 C1024 0.931 . S
H1041 C1029 0.929 . S
H1042 C1030 0.960 1_554 S
H1043 C1030 0.962 . S
H1044 C1030 0.960 . S
H1045 C1031 0.961 . S
H1046 C1031 0.961 1_554 S
H1047 C1031 0.961 . S
H1048 C1032 0.931 . S
H1049 C1037 0.930 . S
H1050 C1038 0.956 . S
H1051 C1038 0.961 1_556 S
H1052 C1038 0.961 . S
H1053 C1039 0.958 . S
H1054 C1039 0.961 . S
H1055 C1039 0.971 . S
C1056 C1057 1.391 . S
C1056 C1058 1.394 . S
C1056 H1072 0.931 . S
C1057 C1056 1.391 . S
C1057 C1061 1.376 . S
C1058 C1056 1.394 . S
C1058 C1059 1.369 . S
C1058 C1062 1.531 . S
C1059 C1058 1.369 . S
C1059 C1060 1.410 . S
C1059 C1067 1.503 . S
C1060 C1059 1.410 . S
C1060 C1061 1.392 . S
C1060 C1063 1.511 . S
C1061 C1057 1.376 . S
C1061 C1060 1.392 . S
C1061 H1073 0.929 . S
C1062 C1058 1.531 . S
C1062 H1074 0.960 . S
C1062 H1075 0.962 . S
C1062 H1076 0.960 . S
C1063 C1060 1.511 . S
C1063 H1077 0.961 . S
C1063 H1078 0.961 . S
C1063 H1079 0.961 . S
C1064 C1065 1.370 . S
C1064 C1066 1.363 . S
C1064 H1080 0.931 . S
C1065 C1064 1.370 . S
C1065 C1069 1.408 . S
C1066 C1064 1.363 . S
C1066 C1067 1.370 . S
C1066 C1070 1.524 . S
C1067 C1059 1.503 . S
C1067 C1066 1.370 . S
C1067 C1068 1.403 . S
C1068 C1067 1.403 . S
C1068 C1069 1.404 . S
C1068 C1071 1.539 . S
C1069 C1065 1.408 . S
C1069 C1068 1.404 . S
C1069 H1081 0.930 . S
C1070 C1066 1.524 . S
C1070 H1082 0.956 . S
C1070 H1083 0.961 . S
C1070 H1084 0.961 . S
C1071 C1068 1.539 . S
C1071 H1085 0.958 . S
C1071 H1086 0.961 . S
C1071 H1087 0.960 . S
H1072 C1056 0.931 . S
H1073 C1061 0.929 . S
H1074 C1062 0.960 . S
H1075 C1062 0.962 . S
H1076 C1062 0.960 . S
H1077 C1063 0.961 . S
H1078 C1063 0.961 . S
H1079 C1063 0.961 . S
H1080 C1064 0.931 . S
H1081 C1069 0.930 . S
H1082 C1070 0.956 . S
H1083 C1070 0.961 . S
H1084 C1070 0.961 . S
H1085 C1071 0.958 . S
H1086 C1071 0.961 . S
H1087 C1071 0.960 . S
C1088 C1089 1.391 . S
C1088 C1090 1.394 . S
C1088 H1104 0.931 . S
C1089 C1088 1.391 . S
C1089 C1093 1.376 . S
C1090 C1088 1.394 . S
C1090 C1091 1.369 . S
C1090 C1094 1.531 . S
C1091 C1090 1.369 . S
C1091 C1092 1.410 . S
C1091 C1099 1.503 . S
C1092 C1091 1.410 . S
C1092 C1093 1.392 . S
C1092 C1095 1.511 . S
C1093 C1089 1.376 . S
C1093 C1092 1.392 . S
C1093 H1105 0.929 . S
C1094 C1090 1.531 . S
C1094 H1106 0.960 . S
C1094 H1107 0.962 . S
C1094 H1108 0.960 . S
C1095 C1092 1.511 . S
C1095 H1109 0.961 . S
C1095 H1110 0.961 . S
C1095 H1111 0.961 . S
C1096 C1097 1.370 . S
C1096 C1098 1.363 . S
C1096 H1112 0.931 . S
C1097 C1096 1.370 . S
C1097 C1101 1.408 . S
C1098 C1096 1.363 . S
C1098 C1099 1.370 . S
C1098 C1102 1.524 . S
C1099 C1091 1.503 . S
C1099 C1098 1.370 . S
C1099 C1100 1.403 . S
C1100 C1099 1.403 . S
C1100 C1101 1.404 . S
C1100 C1103 1.539 . S
C1101 C1097 1.408 . S
C1101 C1100 1.404 . S
C1101 H1113 0.930 . S
C1102 C1098 1.524 . S
C1102 H1114 0.956 . S
C1102 H1115 0.961 . S
C1102 H1116 0.961 . S
C1103 C1100 1.539 . S
C1103 H1117 0.958 . S
C1103 H1118 0.961 . S
C1103 H1119 0.960 . S
H1104 C1088 0.931 . S
H1105 C1093 0.929 . S
H1106 C1094 0.960 . S
H1107 C1094 0.962 . S
H1108 C1094 0.960 . S
H1109 C1095 0.961 . S
H1110 C1095 0.961 . S
H1111 C1095 0.961 . S
H1112 C1096 0.931 . S
H1113 C1101 0.930 . S
H1114 C1102 0.956 . S
H1115 C1102 0.961 . S
H1116 C1102 0.961 . S
H1117 C1103 0.958 . S
H1118 C1103 0.961 . S
H1119 C1103 0.960 . S
C1120 C1121 1.391 . S
C1120 C1122 1.394 . S
C1120 H1136 0.931 . S
C1121 C1120 1.391 . S
C1121 C1125 1.376 . S
C1122 C1120 1.394 . S
C1122 C1123 1.369 . S
C1122 C1126 1.531 . S
C1123 C1122 1.369 . S
C1123 C1124 1.410 . S
C1123 C1131 1.503 . S
C1124 C1123 1.410 . S
C1124 C1125 1.392 . S
C1124 C1127 1.511 . S
C1125 C1121 1.376 . S
C1125 C1124 1.392 . S
C1125 H1137 0.929 . S
C1126 C1122 1.531 . S
C1126 H1138 0.960 . S
C1126 H1139 0.962 . S
C1126 H1140 0.960 . S
C1127 C1124 1.511 . S
C1127 H1141 0.961 . S
C1127 H1142 0.961 . S
C1127 H1143 0.961 . S
C1128 C1129 1.370 . S
C1128 C1130 1.363 . S
C1128 H1144 0.931 . S
C1129 C1128 1.370 . S
C1129 C1133 1.408 . S
C1130 C1128 1.363 . S
C1130 C1131 1.370 . S
C1130 C1134 1.524 . S
C1131 C1123 1.503 . S
C1131 C1130 1.370 . S
C1131 C1132 1.403 . S
C1132 C1131 1.403 . S
C1132 C1133 1.404 . S
C1132 C1135 1.539 . S
C1133 C1129 1.408 . S
C1133 C1132 1.404 . S
C1133 H1145 0.930 . S
C1134 C1130 1.524 . S
C1134 H1146 0.956 . S
C1134 H1147 0.961 . S
C1134 H1148 0.961 . S
C1135 C1132 1.539 . S
C1135 H1149 0.958 . S
C1135 H1150 0.961 . S
C1135 H1151 0.960 . S
H1136 C1120 0.931 . S
H1137 C1125 0.929 . S
H1138 C1126 0.960 . S
H1139 C1126 0.962 . S
H1140 C1126 0.960 . S
H1141 C1127 0.961 . S
H1142 C1127 0.961 . S
H1143 C1127 0.961 . S
H1144 C1128 0.931 . S
H1145 C1133 0.930 . S
H1146 C1134 0.956 . S
H1147 C1134 0.961 . S
H1148 C1134 0.961 . S
H1149 C1135 0.958 . S
H1150 C1135 0.961 . S
H1151 C1135 0.960 . S
C1152 C1153 1.391 . S
C1152 C1154 1.394 . S
C1152 H1168 0.931 . S
C1153 C1152 1.391 . S
C1153 C1157 1.376 . S
C1154 C1152 1.394 . S
C1154 C1155 1.369 . S
C1154 C1158 1.531 . S
C1155 C1154 1.369 . S
C1155 C1156 1.410 . S
C1155 C1163 1.503 . S
C1156 C1155 1.410 . S
C1156 C1157 1.392 . S
C1156 C1159 1.511 . S
C1157 C1153 1.376 . S
C1157 C1156 1.392 . S
C1157 H1169 0.929 . S
C1158 C1154 1.531 . S
C1158 H1170 0.960 . S
C1158 H1171 0.962 . S
C1158 H1172 0.960 . S
C1159 C1156 1.511 . S
C1159 H1173 0.961 . S
C1159 H1174 0.961 . S
C1159 H1175 0.961 . S
C1160 C1161 1.370 . S
C1160 C1162 1.363 . S
C1160 H1176 0.931 . S
C1161 C1160 1.370 . S
C1161 C1165 1.408 . S
C1162 C1160 1.363 . S
C1162 C1163 1.370 . S
C1162 C1166 1.524 . S
C1163 C1155 1.503 . S
C1163 C1162 1.370 . S
C1163 C1164 1.403 . S
C1164 C1163 1.403 . S
C1164 C1165 1.404 . S
C1164 C1167 1.539 . S
C1165 C1161 1.408 . S
C1165 C1164 1.404 . S
C1165 H1177 0.930 . S
C1166 C1162 1.524 . S
C1166 H1178 0.956 . S
C1166 H1179 0.961 . S
C1166 H1180 0.961 . S
C1167 C1164 1.539 . S
C1167 H1181 0.958 . S
C1167 H1182 0.961 . S
C1167 H1183 0.960 . S
H1168 C1152 0.931 . S
H1169 C1157 0.929 . S
H1170 C1158 0.960 . S
H1171 C1158 0.962 . S
H1172 C1158 0.960 . S
H1173 C1159 0.961 . S
H1174 C1159 0.961 . S
H1175 C1159 0.961 . S
H1176 C1160 0.931 . S
H1177 C1165 0.930 . S
H1178 C1166 0.956 . S
H1179 C1166 0.961 . S
H1180 C1166 0.961 . S
H1181 C1167 0.958 . S
H1182 C1167 0.961 . S
H1183 C1167 0.960 . S
C1184 C1185 1.391 . S
C1184 C1186 1.394 . S
C1184 H1200 0.931 . S
C1185 C1184 1.391 . S
C1185 C1189 1.376 . S
C1186 C1184 1.394 . S
C1186 C1187 1.369 . S
C1186 C1190 1.531 . S
C1187 C1186 1.369 . S
C1187 C1188 1.410 . S
C1187 C1195 1.503 . S
C1188 C1187 1.410 . S
C1188 C1189 1.392 . S
C1188 C1191 1.511 . S
C1189 C1185 1.376 . S
C1189 C1188 1.392 . S
C1189 H1201 0.929 . S
C1190 C1186 1.531 . S
C1190 H1202 0.960 . S
C1190 H1203 0.962 . S
C1190 H1204 0.960 . S
C1191 C1188 1.511 . S
C1191 H1205 0.961 . S
C1191 H1206 0.961 . S
C1191 H1207 0.961 . S
C1192 C1193 1.370 . S
C1192 C1194 1.363 . S
C1192 H1208 0.931 . S
C1193 C1192 1.370 . S
C1193 C1197 1.408 . S
C1194 C1192 1.363 . S
C1194 C1195 1.370 . S
C1194 C1198 1.524 . S
C1195 C1187 1.503 . S
C1195 C1194 1.370 . S
C1195 C1196 1.403 . S
C1196 C1195 1.403 . S
C1196 C1197 1.404 . S
C1196 C1199 1.539 . S
C1197 C1193 1.408 . S
C1197 C1196 1.404 . S
C1197 H1209 0.930 . S
C1198 C1194 1.524 . S
C1198 H1210 0.956 . S
C1198 H1211 0.961 . S
C1198 H1212 0.961 . S
C1199 C1196 1.539 . S
C1199 H1213 0.958 . S
C1199 H1214 0.961 . S
C1199 H1215 0.960 . S
H1200 C1184 0.931 . S
H1201 C1189 0.929 . S
H1202 C1190 0.960 . S
H1203 C1190 0.962 . S
H1204 C1190 0.960 . S
H1205 C1191 0.961 . S
H1206 C1191 0.961 . S
H1207 C1191 0.961 . S
H1208 C1192 0.931 . S
H1209 C1197 0.930 . S
H1210 C1198 0.956 . S
H1211 C1198 0.961 . S
H1212 C1198 0.961 . S
H1213 C1199 0.958 . S
H1214 C1199 0.961 . S
H1215 C1199 0.960 . S
C1216 C1217 1.391 . S
C1216 C1218 1.394 . S
C1216 H1232 0.931 . S
C1217 C1216 1.391 . S
C1217 C1221 1.376 . S
C1218 C1216 1.394 . S
C1218 C1219 1.369 . S
C1218 C1222 1.531 . S
C1219 C1218 1.369 . S
C1219 C1220 1.410 . S
C1219 C1227 1.503 . S
C1220 C1219 1.410 . S
C1220 C1221 1.392 . S
C1220 C1223 1.511 . S
C1221 C1217 1.376 . S
C1221 C1220 1.392 . S
C1221 H1233 0.929 . S
C1222 C1218 1.531 . S
C1222 H1234 0.960 . S
C1222 H1235 0.962 . S
C1222 H1236 0.960 . S
C1223 C1220 1.511 . S
C1223 H1237 0.961 . S
C1223 H1238 0.961 . S
C1223 H1239 0.961 . S
C1224 C1225 1.370 . S
C1224 C1226 1.363 . S
C1224 H1240 0.931 . S
C1225 C1224 1.370 . S
C1225 C1229 1.408 . S
C1226 C1224 1.363 . S
C1226 C1227 1.370 . S
C1226 C1230 1.524 . S
C1227 C1219 1.503 . S
C1227 C1226 1.370 . S
C1227 C1228 1.403 . S
C1228 C1227 1.403 . S
C1228 C1229 1.404 . S
C1228 C1231 1.539 . S
C1229 C1225 1.408 . S
C1229 C1228 1.404 . S
C1229 H1241 0.930 . S
C1230 C1226 1.524 . S
C1230 H1242 0.956 . S
C1230 H1243 0.961 . S
C1230 H1244 0.961 . S
C1231 C1228 1.539 . S
C1231 H1245 0.958 . S
C1231 H1246 0.961 . S
C1231 H1247 0.960 . S
H1232 C1216 0.931 . S
H1233 C1221 0.929 . S
H1234 C1222 0.960 . S
H1235 C1222 0.962 . S
H1236 C1222 0.960 . S
H1237 C1223 0.961 . S
H1238 C1223 0.961 . S
H1239 C1223 0.961 . S
H1240 C1224 0.931 . S
H1241 C1229 0.930 . S
H1242 C1230 0.956 . S
H1243 C1230 0.961 . S
H1244 C1230 0.961 . S
H1245 C1231 0.958 . S
H1246 C1231 0.961 . S
H1247 C1231 0.960 . S
C1248 C1249 1.391 . S
C1248 C1250 1.394 . S
C1248 H1264 0.931 . S
C1249 C1248 1.391 . S
C1249 C1253 1.376 . S
C1250 C1248 1.394 . S
C1250 C1251 1.369 . S
C1250 C1254 1.531 . S
C1251 C1250 1.369 . S
C1251 C1252 1.410 . S
C1251 C1259 1.503 . S
C1252 C1251 1.410 . S
C1252 C1253 1.392 . S
C1252 C1255 1.511 . S
C1253 C1249 1.376 . S
C1253 C1252 1.392 . S
C1253 H1265 0.929 . S
C1254 C1250 1.531 . S
C1254 H1266 0.960 . S
C1254 H1267 0.962 . S
C1254 H1268 0.960 . S
C1255 C1252 1.511 . S
C1255 H1269 0.961 . S
C1255 H1270 0.961 . S
C1255 H1271 0.961 . S
C1256 C1257 1.370 . S
C1256 C1258 1.363 . S
C1256 H1272 0.931 . S
C1257 C1256 1.370 . S
C1257 C1261 1.408 . S
C1258 C1256 1.363 . S
C1258 C1259 1.370 . S
C1258 C1262 1.524 . S
C1259 C1251 1.503 . S
C1259 C1258 1.370 . S
C1259 C1260 1.403 . S
C1260 C1259 1.403 . S
C1260 C1261 1.404 . S
C1260 C1263 1.539 . S
C1261 C1257 1.408 . S
C1261 C1260 1.404 . S
C1261 H1273 0.930 . S
C1262 C1258 1.524 . S
C1262 H1274 0.956 . S
C1262 H1275 0.961 . S
C1262 H1276 0.961 . S
C1263 C1260 1.539 . S
C1263 H1277 0.958 . S
C1263 H1278 0.961 . S
C1263 H1279 0.960 . S
H1264 C1248 0.931 . S
H1265 C1253 0.929 . S
H1266 C1254 0.960 . S
H1267 C1254 0.962 . S
H1268 C1254 0.960 . S
H1269 C1255 0.961 . S
H1270 C1255 0.961 . S
H1271 C1255 0.961 . S
H1272 C1256 0.931 . S
H1273 C1261 0.930 . S
H1274 C1262 0.956 . S
H1275 C1262 0.961 . S
H1276 C1262 0.961 . S
H1277 C1263 0.958 . S
H1278 C1263 0.961 . S
H1279 C1263 0.960 . S
C1280 C1281 1.391 . S
C1280 C1282 1.394 . S
C1280 H1296 0.931 . S
C1281 C1280 1.391 . S
C1281 C1285 1.376 . S
C1282 C1280 1.394 . S
C1282 C1283 1.369 . S
C1282 C1286 1.531 . S
C1283 C1282 1.369 . S
C1283 C1284 1.410 . S
C1283 C1291 1.503 . S
C1284 C1283 1.410 . S
C1284 C1285 1.392 . S
C1284 C1287 1.511 . S
C1285 C1281 1.376 . S
C1285 C1284 1.392 . S
C1285 H1297 0.929 . S
C1286 C1282 1.531 . S
C1286 H1298 0.960 . S
C1286 H1299 0.962 . S
C1286 H1300 0.960 . S
C1287 C1284 1.511 . S
C1287 H1301 0.961 . S
C1287 H1302 0.961 . S
C1287 H1303 0.961 . S
C1288 C1289 1.370 . S
C1288 C1290 1.363 . S
C1288 H1304 0.931 . S
C1289 C1288 1.370 . S
C1289 C1293 1.408 . S
C1290 C1288 1.363 . S
C1290 C1291 1.370 . S
C1290 C1294 1.524 . S
C1291 C1283 1.503 . S
C1291 C1290 1.370 . S
C1291 C1292 1.403 . S
C1292 C1291 1.403 . S
C1292 C1293 1.404 . S
C1292 C1295 1.539 . S
C1293 C1289 1.408 . S
C1293 C1292 1.404 . S
C1293 H1305 0.930 . S
C1294 C1290 1.524 . S
C1294 H1306 0.956 . S
C1294 H1307 0.961 . S
C1294 H1308 0.961 . S
C1295 C1292 1.539 . S
C1295 H1309 0.958 . S
C1295 H1310 0.961 . S
C1295 H1311 0.960 . S
H1296 C1280 0.931 . S
H1297 C1285 0.929 . S
H1298 C1286 0.960 . S
H1299 C1286 0.962 . S
H1300 C1286 0.960 . S
H1301 C1287 0.961 . S
H1302 C1287 0.961 . S
H1303 C1287 0.961 . S
H1304 C1288 0.931 . S
H1305 C1293 0.930 . S
H1306 C1294 0.956 . S
H1307 C1294 0.961 . S
H1308 C1294 0.961 . S
H1309 C1295 0.958 . S
H1310 C1295 0.961 . S
H1311 C1295 0.960 . S
C1312 C1313 1.391 . S
C1312 C1314 1.394 . S
C1312 H1328 0.931 . S
C1313 C1312 1.391 . S
C1313 C1317 1.376 . S
C1314 C1312 1.394 . S
C1314 C1315 1.369 . S
C1314 C1318 1.531 . S
C1315 C1314 1.369 . S
C1315 C1316 1.410 . S
C1315 C1323 1.503 1_556 S
C1316 C1315 1.410 . S
C1316 C1317 1.392 . S
C1316 C1319 1.511 . S
C1317 C1313 1.376 . S
C1317 C1316 1.392 . S
C1317 H1329 0.929 . S
C1318 C1314 1.531 . S
C1318 H1330 0.960 1_556 S
C1318 H1331 0.962 . S
C1318 H1332 0.960 . S
C1319 C1316 1.511 . S
C1319 H1333 0.961 . S
C1319 H1334 0.961 1_556 S
C1319 H1335 0.961 . S
C1320 C1321 1.370 . S
C1320 C1322 1.363 . S
C1320 H1336 0.931 . S
C1321 C1320 1.370 . S
C1321 C1325 1.408 . S
C1322 C1320 1.363 . S
C1322 C1323 1.370 . S
C1322 C1326 1.524 . S
C1323 C1315 1.503 1_554 S
C1323 C1322 1.370 . S
C1323 C1324 1.403 . S
C1324 C1323 1.403 . S
C1324 C1325 1.404 . S
C1324 C1327 1.539 . S
C1325 C1321 1.408 . S
C1325 C1324 1.404 . S
C1325 H1337 0.930 . S
C1326 C1322 1.524 . S
C1326 H1338 0.956 . S
C1326 H1339 0.961 1_554 S
C1326 H1340 0.961 . S
C1327 C1324 1.539 . S
C1327 H1341 0.958 . S
C1327 H1342 0.961 . S
C1327 H1343 0.971 . S
H1328 C1312 0.931 . S
H1329 C1317 0.929 . S
H1330 C1318 0.960 1_554 S
H1331 C1318 0.962 . S
H1332 C1318 0.960 . S
H1333 C1319 0.961 . S
H1334 C1319 0.961 1_554 S
H1335 C1319 0.961 . S
H1336 C1320 0.931 . S
H1337 C1325 0.930 . S
H1338 C1326 0.956 . S
H1339 C1326 0.961 1_556 S
H1340 C1326 0.961 . S
H1341 C1327 0.958 . S
H1342 C1327 0.961 . S
H1343 C1327 0.971 . S
C1344 C1345 1.391 . S
C1344 C1346 1.394 . S
C1344 H1360 0.931 . S
C1345 C1344 1.391 . S
C1345 C1349 1.376 . S
C1346 C1344 1.394 . S
C1346 C1347 1.369 . S
C1346 C1350 1.531 . S
C1347 C1346 1.369 . S
C1347 C1348 1.410 . S
C1347 C1355 1.503 1_554 S
C1348 C1347 1.410 . S
C1348 C1349 1.392 . S
C1348 C1351 1.511 . S
C1349 C1345 1.376 . S
C1349 C1348 1.392 . S
C1349 H1361 0.929 . S
C1350 C1346 1.531 . S
C1350 H1362 0.960 1_554 S
C1350 H1363 0.962 . S
C1350 H1364 0.960 . S
C1351 C1348 1.511 . S
C1351 H1365 0.961 . S
C1351 H1366 0.961 1_554 S
C1351 H1367 0.961 . S
C1352 C1353 1.370 . S
C1352 C1354 1.363 . S
C1352 H1368 0.931 . S
C1353 C1352 1.370 . S
C1353 C1357 1.408 . S
C1354 C1352 1.363 . S
C1354 C1355 1.370 . S
C1354 C1358 1.524 . S
C1355 C1347 1.503 1_556 S
C1355 C1354 1.370 . S
C1355 C1356 1.403 . S
C1356 C1355 1.403 . S
C1356 C1357 1.404 . S
C1356 C1359 1.539 . S
C1357 C1353 1.408 . S
C1357 C1356 1.404 . S
C1357 H1369 0.930 . S
C1358 C1354 1.524 . S
C1358 H1370 0.956 . S
C1358 H1371 0.961 1_556 S
C1358 H1372 0.961 . S
C1359 C1356 1.539 . S
C1359 H1373 0.958 . S
C1359 H1374 0.961 . S
C1359 H1375 0.971 . S
H1360 C1344 0.931 . S
H1361 C1349 0.929 . S
H1362 C1350 0.960 1_556 S
H1363 C1350 0.962 . S
H1364 C1350 0.960 . S
H1365 C1351 0.961 . S
H1366 C1351 0.961 1_556 S
H1367 C1351 0.961 . S
H1368 C1352 0.931 . S
H1369 C1357 0.930 . S
H1370 C1358 0.956 . S
H1371 C1358 0.961 1_554 S
H1372 C1358 0.961 . S
H1373 C1359 0.958 . S
H1374 C1359 0.961 . S
H1375 C1359 0.971 . S
C1376 C1377 1.391 . S
C1376 C1378 1.394 . S
C1376 H1392 0.931 . S
C1377 C1376 1.391 . S
C1377 C1381 1.376 . S
C1378 C1376 1.394 . S
C1378 C1379 1.369 . S
C1378 C1382 1.531 . S
C1379 C1378 1.369 . S
C1379 C1380 1.410 . S
C1379 C1387 1.503 1_554 S
C1380 C1379 1.410 . S
C1380 C1381 1.392 . S
C1380 C1383 1.511 . S
C1381 C1377 1.376 . S
C1381 C1380 1.392 . S
C1381 H1393 0.929 . S
C1382 C1378 1.531 . S
C1382 H1394 0.960 1_554 S
C1382 H1395 0.962 . S
C1382 H1396 0.960 . S
C1383 C1380 1.511 . S
C1383 H1397 0.961 . S
C1383 H1398 0.961 1_554 S
C1383 H1399 0.961 . S
C1384 C1385 1.370 . S
C1384 C1386 1.363 . S
C1384 H1400 0.931 . S
C1385 C1384 1.370 . S
C1385 C1389 1.408 . S
C1386 C1384 1.363 . S
C1386 C1387 1.370 . S
C1386 C1390 1.524 . S
C1387 C1379 1.503 1_556 S
C1387 C1386 1.370 . S
C1387 C1388 1.403 . S
C1388 C1387 1.403 . S
C1388 C1389 1.404 . S
C1388 C1391 1.539 . S
C1389 C1385 1.408 . S
C1389 C1388 1.404 . S
C1389 H1401 0.930 . S
C1390 C1386 1.524 . S
C1390 H1402 0.956 . S
C1390 H1403 0.961 1_556 S
C1390 H1404 0.961 . S
C1391 C1388 1.539 . S
C1391 H1405 0.958 . S
C1391 H1406 0.961 . S
C1391 H1407 0.971 . S
H1392 C1376 0.931 . S
H1393 C1381 0.929 . S
H1394 C1382 0.960 1_556 S
H1395 C1382 0.962 . S
H1396 C1382 0.960 . S
H1397 C1383 0.961 . S
H1398 C1383 0.961 1_556 S
H1399 C1383 0.961 . S
H1400 C1384 0.931 . S
H1401 C1389 0.930 . S
H1402 C1390 0.956 . S
H1403 C1390 0.961 1_554 S
H1404 C1390 0.961 . S
H1405 C1391 0.958 . S
H1406 C1391 0.961 . S
H1407 C1391 0.971 . S
C1408 C1409 1.391 . S
C1408 C1410 1.394 . S
C1408 H1424 0.931 . S
C1409 C1408 1.391 . S
C1409 C1413 1.376 . S
C1410 C1408 1.394 . S
C1410 C1411 1.369 . S
C1410 C1414 1.531 . S
C1411 C1410 1.369 . S
C1411 C1412 1.410 . S
C1411 C1419 1.503 1_556 S
C1412 C1411 1.410 . S
C1412 C1413 1.392 . S
C1412 C1415 1.511 . S
C1413 C1409 1.376 . S
C1413 C1412 1.392 . S
C1413 H1425 0.929 . S
C1414 C1410 1.531 . S
C1414 H1426 0.960 1_556 S
C1414 H1427 0.962 . S
C1414 H1428 0.960 . S
C1415 C1412 1.511 . S
C1415 H1429 0.961 . S
C1415 H1430 0.961 1_556 S
C1415 H1431 0.961 . S
C1416 C1417 1.370 . S
C1416 C1418 1.363 . S
C1416 H1432 0.931 . S
C1417 C1416 1.370 . S
C1417 C1421 1.408 . S
C1418 C1416 1.363 . S
C1418 C1419 1.370 . S
C1418 C1422 1.524 . S
C1419 C1411 1.503 1_554 S
C1419 C1418 1.370 . S
C1419 C1420 1.403 . S
C1420 C1419 1.403 . S
C1420 C1421 1.404 . S
C1420 C1423 1.539 . S
C1421 C1417 1.408 . S
C1421 C1420 1.404 . S
C1421 H1433 0.930 . S
C1422 C1418 1.524 . S
C1422 H1434 0.956 . S
C1422 H1435 0.961 1_554 S
C1422 H1436 0.961 . S
C1423 C1420 1.539 . S
C1423 H1437 0.958 . S
C1423 H1438 0.961 . S
C1423 H1439 0.971 . S
H1424 C1408 0.931 . S
H1425 C1413 0.929 . S
H1426 C1414 0.960 1_554 S
H1427 C1414 0.962 . S
H1428 C1414 0.960 . S
H1429 C1415 0.961 . S
H1430 C1415 0.961 1_554 S
H1431 C1415 0.961 . S
H1432 C1416 0.931 . S
H1433 C1421 0.930 . S
H1434 C1422 0.956 . S
H1435 C1422 0.961 1_556 S
H1436 C1422 0.961 . S
H1437 C1423 0.958 . S
H1438 C1423 0.961 . S
H1439 C1423 0.971 . S
C1440 C1441 1.391 . S
C1440 C1442 1.394 . S
C1440 H1456 0.931 . S
C1441 C1440 1.391 . S
C1441 C1445 1.376 . S
C1442 C1440 1.394 . S
C1442 C1443 1.369 . S
C1442 C1446 1.531 1_545 S
C1443 C1442 1.369 . S
C1443 C1444 1.410 . S
C1443 C1451 1.503 1_545 S
C1444 C1443 1.410 . S
C1444 C1445 1.392 . S
C1444 C1447 1.511 . S
C1445 C1441 1.376 . S
C1445 C1444 1.392 . S
C1445 H1457 0.929 . S
C1446 C1442 1.531 1_565 S
C1446 H1458 0.960 . S
C1446 H1459 0.962 . S
C1446 H1460 0.960 . S
C1447 C1444 1.511 . S
C1447 H1461 0.961 . S
C1447 H1462 0.961 . S
C1447 H1463 0.961 . S
C1448 C1449 1.370 . S
C1448 C1450 1.363 . S
C1448 H1464 0.931 . S
C1449 C1448 1.370 . S
C1449 C1453 1.408 . S
C1450 C1448 1.363 . S
C1450 C1451 1.370 . S
C1450 C1454 1.524 1_565 S
C1451 C1443 1.503 1_565 S
C1451 C1450 1.370 . S
C1451 C1452 1.403 . S
C1452 C1451 1.403 . S
C1452 C1453 1.404 . S
C1452 C1455 1.539 . S
C1453 C1449 1.408 . S
C1453 C1452 1.404 . S
C1453 H1465 0.930 . S
C1454 C1450 1.524 1_545 S
C1454 H1466 0.956 . S
C1454 H1467 0.961 . S
C1454 H1468 0.961 . S
C1455 C1452 1.539 . S
C1455 H1469 0.958 . S
C1455 H1470 0.961 . S
C1455 H1471 0.960 . S
H1456 C1440 0.931 . S
H1457 C1445 0.929 . S
H1458 C1446 0.960 . S
H1459 C1446 0.962 . S
H1460 C1446 0.960 . S
H1461 C1447 0.961 . S
H1462 C1447 0.961 . S
H1463 C1447 0.961 . S
H1464 C1448 0.931 . S
H1465 C1453 0.930 . S
H1466 C1454 0.956 . S
H1467 C1454 0.961 . S
H1468 C1454 0.961 . S
H1469 C1455 0.958 . S
H1470 C1455 0.961 . S
H1471 C1455 0.960 . S
C1472 C1473 1.391 . S
C1472 C1474 1.394 . S
C1472 H1488 0.931 . S
C1473 C1472 1.391 . S
C1473 C1477 1.376 . S
C1474 C1472 1.394 . S
C1474 C1475 1.369 . S
C1474 C1478 1.531 . S
C1475 C1474 1.369 . S
C1475 C1476 1.410 . S
C1475 C1483 1.503 1_655 S
C1476 C1475 1.410 . S
C1476 C1477 1.392 . S
C1476 C1479 1.511 1_655 S
C1477 C1473 1.376 . S
C1477 C1476 1.392 . S
C1477 H1489 0.929 . S
C1478 C1474 1.531 . S
C1478 H1490 0.960 . S
C1478 H1491 0.962 . S
C1478 H1492 0.960 . S
C1479 C1476 1.511 1_455 S
C1479 H1493 0.961 . S
C1479 H1494 0.961 . S
C1479 H1495 0.961 . S
C1480 C1481 1.370 . S
C1480 C1482 1.363 . S
C1480 H1496 0.931 . S
C1481 C1480 1.370 . S
C1481 C1485 1.408 . S
C1482 C1480 1.363 . S
C1482 C1483 1.370 . S
C1482 C1486 1.524 1_455 S
C1483 C1475 1.503 1_455 S
C1483 C1482 1.370 . S
C1483 C1484 1.403 . S
C1484 C1483 1.403 . S
C1484 C1485 1.404 . S
C1484 C1487 1.539 . S
C1485 C1481 1.408 . S
C1485 C1484 1.404 . S
C1485 H1497 0.930 . S
C1486 C1482 1.524 1_655 S
C1486 H1498 0.956 . S
C1486 H1499 0.961 . S
C1486 H1500 0.961 . S
C1487 C1484 1.539 . S
C1487 H1501 0.958 . S
C1487 H1502 0.961 . S
C1487 H1503 0.960 . S
H1488 C1472 0.931 . S
H1489 C1477 0.929 . S
H1490 C1478 0.960 . S
H1491 C1478 0.962 . S
H1492 C1478 0.960 . S
H1493 C1479 0.961 . S
H1494 C1479 0.961 . S
H1495 C1479 0.961 . S
H1496 C1480 0.931 . S
H1497 C1485 0.930 . S
H1498 C1486 0.956 . S
H1499 C1486 0.961 . S
H1500 C1486 0.961 . S
H1501 C1487 0.958 . S
H1502 C1487 0.961 . S
H1503 C1487 0.960 . S
C1504 C1505 1.391 . S
C1504 C1506 1.394 . S
C1504 H1520 0.931 . S
C1505 C1504 1.391 . S
C1505 C1509 1.376 . S
C1506 C1504 1.394 . S
C1506 C1507 1.369 . S
C1506 C1510 1.531 . S
C1507 C1506 1.369 . S
C1507 C1508 1.410 . S
C1507 C1515 1.503 1_545 S
C1508 C1507 1.410 . S
C1508 C1509 1.392 . S
C1508 C1511 1.511 1_545 S
C1509 C1505 1.376 . S
C1509 C1508 1.392 . S
C1509 H1521 0.929 . S
C1510 C1506 1.531 . S
C1510 H1522 0.960 . S
C1510 H1523 0.962 . S
C1510 H1524 0.960 . S
C1511 C1508 1.511 1_565 S
C1511 H1525 0.961 . S
C1511 H1526 0.961 . S
C1511 H1527 0.961 . S
C1512 C1513 1.370 . S
C1512 C1514 1.363 . S
C1512 H1528 0.931 . S
C1513 C1512 1.370 . S
C1513 C1517 1.408 . S
C1514 C1512 1.363 . S
C1514 C1515 1.370 . S
C1514 C1518 1.524 . S
C1515 C1507 1.503 1_565 S
C1515 C1514 1.370 . S
C1515 C1516 1.403 . S
C1516 C1515 1.403 . S
C1516 C1517 1.404 . S
C1516 C1519 1.514 1_565 S
C1517 C1513 1.408 . S
C1517 C1516 1.404 . S
C1517 H1529 0.930 . S
C1518 C1514 1.524 . S
C1518 H1530 0.956 . S
C1518 H1531 0.961 . S
C1518 H1532 0.961 . S
C1519 C1516 1.514 1_545 S
C1519 H1533 0.999 . S
C1519 H1534 0.931 1_545 S
C1519 H1535 0.978 . S
H1520 C1504 0.931 . S
H1521 C1509 0.929 . S
H1522 C1510 0.960 . S
H1523 C1510 0.962 . S
H1524 C1510 0.960 . S
H1525 C1511 0.961 . S
H1526 C1511 0.961 . S
H1527 C1511 0.961 . S
H1528 C1512 0.931 . S
H1529 C1517 0.930 . S
H1530 C1518 0.956 . S
H1531 C1518 0.961 . S
H1532 C1518 0.961 . S
H1533 C1519 0.999 . S
H1534 C1519 0.931 1_565 S
H1535 C1519 0.978 . S
C1536 C1537 1.391 . S
C1536 C1538 1.394 . S
C1536 H1552 0.931 . S
C1537 C1536 1.391 . S
C1537 C1541 1.376 . S
C1538 C1536 1.394 . S
C1538 C1539 1.369 . S
C1538 C1542 1.531 1_455 S
C1539 C1538 1.369 . S
C1539 C1540 1.410 . S
C1539 C1547 1.503 1_455 S
C1540 C1539 1.410 . S
C1540 C1541 1.392 . S
C1540 C1543 1.511 . S
C1541 C1537 1.376 . S
C1541 C1540 1.392 . S
C1541 H1553 0.929 . S
C1542 C1538 1.531 1_655 S
C1542 H1554 0.960 . S
C1542 H1555 0.962 . S
C1542 H1556 0.960 . S
C1543 C1540 1.511 . S
C1543 H1557 0.961 . S
C1543 H1558 0.961 . S
C1543 H1559 0.961 . S
C1544 C1545 1.370 . S
C1544 C1546 1.363 . S
C1544 H1560 0.931 . S
C1545 C1544 1.370 . S
C1545 C1549 1.408 . S
C1546 C1544 1.363 . S
C1546 C1547 1.370 . S
C1546 C1550 1.524 1_655 S
C1547 C1539 1.503 1_655 S
C1547 C1546 1.370 . S
C1547 C1548 1.403 . S
C1548 C1547 1.403 . S
C1548 C1549 1.404 . S
C1548 C1551 1.539 . S
C1549 C1545 1.408 . S
C1549 C1548 1.404 . S
C1549 H1561 0.930 . S
C1550 C1546 1.524 1_455 S
C1550 H1562 0.961 . S
C1550 H1563 0.961 . S
C1550 H1564 0.963 . S
C1551 C1548 1.539 . S
C1551 H1565 0.958 . S
C1551 H1566 0.961 . S
C1551 H1567 0.960 . S
H1552 C1536 0.931 . S
H1553 C1541 0.929 . S
H1554 C1542 0.960 . S
H1555 C1542 0.962 . S
H1556 C1542 0.960 . S
H1557 C1543 0.961 . S
H1558 C1543 0.961 . S
H1559 C1543 0.961 . S
H1560 C1544 0.931 . S
H1561 C1549 0.930 . S
H1562 C1550 0.961 . S
H1563 C1550 0.961 . S
H1564 C1550 0.963 . S
H1565 C1551 0.958 . S
H1566 C1551 0.961 . S
H1567 C1551 0.960 . S
C1568 C1569 1.391 . S
C1568 C1570 1.394 . S
C1568 H1584 0.931 . S
C1569 C1568 1.391 . S
C1569 C1573 1.376 . S
C1570 C1568 1.394 . S
C1570 C1571 1.369 . S
C1570 C1574 1.531 1_565 S
C1571 C1570 1.369 . S
C1571 C1572 1.410 . S
C1571 C1579 1.503 1_565 S
C1572 C1571 1.410 . S
C1572 C1573 1.392 . S
C1572 C1575 1.511 . S
C1573 C1569 1.376 . S
C1573 C1572 1.392 . S
C1573 H1585 0.929 . S
C1574 C1570 1.531 1_545 S
C1574 H1586 0.960 . S
C1574 H1587 0.962 . S
C1574 H1588 0.960 . S
C1575 C1572 1.511 . S
C1575 H1589 0.961 . S
C1575 H1590 0.961 . S
C1575 H1591 0.961 . S
C1576 C1577 1.370 . S
C1576 C1578 1.363 . S
C1576 H1592 0.931 . S
C1577 C1576 1.370 . S
C1577 C1581 1.408 . S
C1578 C1576 1.363 . S
C1578 C1579 1.370 . S
C1578 C1582 1.524 1_545 S
C1579 C1571 1.503 1_545 S
C1579 C1578 1.370 . S
C1579 C1580 1.403 . S
C1580 C1579 1.403 . S
C1580 C1581 1.404 . S
C1580 C1583 1.539 . S
C1581 C1577 1.408 . S
C1581 C1580 1.404 . S
C1581 H1593 0.930 . S
C1582 C1578 1.524 1_565 S
C1582 H1594 0.956 . S
C1582 H1595 0.961 . S
C1582 H1596 0.961 . S
C1583 C1580 1.539 . S
C1583 H1597 0.958 . S
C1583 H1598 0.961 . S
C1583 H1599 0.960 . S
H1584 C1568 0.931 . S
H1585 C1573 0.929 . S
H1586 C1574 0.960 . S
H1587 C1574 0.962 . S
H1588 C1574 0.960 . S
H1589 C1575 0.961 . S
H1590 C1575 0.961 . S
H1591 C1575 0.961 . S
H1592 C1576 0.931 . S
H1593 C1581 0.930 . S
H1594 C1582 0.956 . S
H1595 C1582 0.961 . S
H1596 C1582 0.961 . S
H1597 C1583 0.958 . S
H1598 C1583 0.961 . S
H1599 C1583 0.960 . S
C1600 C1601 1.391 . S
C1600 C1602 1.394 . S
C1600 H1616 0.931 . S
C1601 C1600 1.391 . S
C1601 C1605 1.376 . S
C1602 C1600 1.394 . S
C1602 C1603 1.369 . S
C1602 C1606 1.531 1_655 S
C1603 C1602 1.369 . S
C1603 C1604 1.410 . S
C1603 C1611 1.503 1_655 S
C1604 C1603 1.410 . S
C1604 C1605 1.392 . S
C1604 C1607 1.511 . S
C1605 C1601 1.376 . S
C1605 C1604 1.392 . S
C1605 H1617 0.929 . S
C1606 C1602 1.531 1_455 S
C1606 H1618 0.960 . S
C1606 H1619 0.962 . S
C1606 H1620 0.960 . S
C1607 C1604 1.511 . S
C1607 H1621 0.961 . S
C1607 H1622 0.961 . S
C1607 H1623 0.961 . S
C1608 C1609 1.370 . S
C1608 C1610 1.363 . S
C1608 H1624 0.931 . S
C1609 C1608 1.370 . S
C1609 C1613 1.408 . S
C1610 C1608 1.363 . S
C1610 C1611 1.370 . S
C1610 C1614 1.524 . S
C1611 C1603 1.503 1_455 S
C1611 C1610 1.370 . S
C1611 C1612 1.403 . S
C1612 C1611 1.403 . S
C1612 C1613 1.404 . S
C1612 C1615 1.539 1_455 S
C1613 C1609 1.408 . S
C1613 C1612 1.404 . S
C1613 H1625 0.930 . S
C1614 C1610 1.524 . S
C1614 H1626 0.956 . S
C1614 H1627 0.961 . S
C1614 H1628 0.961 . S
C1615 C1612 1.539 1_655 S
C1615 H1629 0.958 . S
C1615 H1630 0.961 . S
C1615 H1631 0.960 . S
H1616 C1600 0.931 . S
H1617 C1605 0.929 . S
H1618 C1606 0.960 . S
H1619 C1606 0.962 . S
H1620 C1606 0.960 . S
H1621 C1607 0.961 . S
H1622 C1607 0.961 . S
H1623 C1607 0.961 . S
H1624 C1608 0.931 . S
H1625 C1613 0.930 . S
H1626 C1614 0.956 . S
H1627 C1614 0.961 . S
H1628 C1614 0.961 . S
H1629 C1615 0.958 . S
H1630 C1615 0.961 . S
H1631 C1615 0.960 . S
C1632 C1633 1.391 . S
C1632 C1634 1.394 . S
C1632 H1648 0.931 . S
C1633 C1632 1.391 . S
C1633 C1637 1.376 . S
C1634 C1632 1.394 . S
C1634 C1635 1.369 . S
C1634 C1638 1.531 1_565 S
C1635 C1634 1.369 . S
C1635 C1636 1.410 . S
C1635 C1643 1.503 1_565 S
C1636 C1635 1.410 . S
C1636 C1637 1.392 . S
C1636 C1639 1.511 . S
C1637 C1633 1.376 . S
C1637 C1636 1.392 . S
C1637 H1649 0.929 . S
C1638 C1634 1.531 1_545 S
C1638 H1650 0.960 . S
C1638 H1651 0.962 1_545 S
C1638 H1652 0.960 . S
C1639 C1636 1.511 . S
C1639 H1653 0.961 . S
C1639 H1654 0.961 . S
C1639 H1655 0.964 . S
C1640 C1641 1.370 . S
C1640 C1642 1.363 . S
C1640 H1656 0.931 . S
C1641 C1640 1.370 . S
C1641 C1645 1.408 . S
C1642 C1640 1.363 . S
C1642 C1643 1.370 . S
C1642 C1646 1.524 1_545 S
C1643 C1635 1.503 1_545 S
C1643 C1642 1.370 . S
C1643 C1644 1.403 . S
C1644 C1643 1.403 . S
C1644 C1645 1.404 . S
C1644 C1647 1.539 . S
C1645 C1641 1.408 . S
C1645 C1644 1.404 . S
C1645 H1657 0.930 . S
C1646 C1642 1.524 1_565 S
C1646 H1658 0.956 . S
C1646 H1659 0.961 . S
C1646 H1660 0.961 . S
C1647 C1644 1.539 . S
C1647 H1661 0.958 . S
C1647 H1662 0.961 . S
C1647 H1663 0.960 . S
H1648 C1632 0.931 . S
H1649 C1637 0.929 . S
H1650 C1638 0.960 . S
H1651 C1638 0.962 1_565 S
H1652 C1638 0.960 . S
H1653 C1639 0.961 . S
H1654 C1639 0.961 . S
H1655 C1639 0.964 . S
H1656 C1640 0.931 . S
H1657 C1645 0.930 . S
H1658 C1646 0.956 . S
H1659 C1646 0.961 . S
H1660 C1646 0.961 . S
H1661 C1647 0.958 . S
H1662 C1647 0.961 . S
H1663 C1647 0.960 . S
C1664 C1665 1.391 . S
C1664 C1666 1.394 . S
C1664 H1680 0.931 . S
C1665 C1664 1.391 . S
C1665 C1669 1.376 . S
C1666 C1664 1.394 . S
C1666 C1667 1.369 . S
C1666 C1670 1.531 1_655 S
C1667 C1666 1.369 . S
C1667 C1668 1.410 . S
C1667 C1675 1.503 1_655 S
C1668 C1667 1.410 . S
C1668 C1669 1.392 . S
C1668 C1671 1.511 . S
C1669 C1665 1.376 . S
C1669 C1668 1.392 . S
C1669 H1681 0.929 . S
C1670 C1666 1.531 1_455 S
C1670 H1682 0.960 . S
C1670 H1683 0.962 1_455 S
C1670 H1684 0.960 . S
C1671 C1668 1.511 . S
C1671 H1685 0.961 . S
C1671 H1686 0.961 . S
C1671 H1687 0.961 . S
C1672 C1673 1.370 . S
C1672 C1674 1.363 . S
C1672 H1688 0.931 . S
C1673 C1672 1.370 . S
C1673 C1677 1.408 . S
C1674 C1672 1.363 . S
C1674 C1675 1.370 . S
C1674 C1678 1.524 1_455 S
C1675 C1667 1.503 1_455 S
C1675 C1674 1.370 . S
C1675 C1676 1.403 . S
C1676 C1675 1.403 . S
C1676 C1677 1.404 . S
C1676 C1679 1.539 . S
C1677 C1673 1.408 . S
C1677 C1676 1.404 . S
C1677 H1689 0.930 . S
C1678 C1674 1.524 1_655 S
C1678 H1690 0.956 . S
C1678 H1691 0.961 . S
C1678 H1692 0.961 . S
C1679 C1676 1.539 . S
C1679 H1693 0.958 . S
C1679 H1694 0.961 . S
C1679 H1695 0.960 . S
H1680 C1664 0.931 . S
H1681 C1669 0.929 . S
H1682 C1670 0.960 . S
H1683 C1670 0.962 1_655 S
H1684 C1670 0.960 . S
H1685 C1671 0.961 . S
H1686 C1671 0.961 . S
H1687 C1671 0.961 . S
H1688 C1672 0.931 . S
H1689 C1677 0.930 . S
H1690 C1678 0.956 . S
H1691 C1678 0.961 . S
H1692 C1678 0.961 . S
H1693 C1679 0.958 . S
H1694 C1679 0.961 . S
H1695 C1679 0.960 . S
C1696 C1697 1.391 . S
C1696 C1698 1.394 . S
C1696 H1712 0.931 . S
C1697 C1696 1.391 . S
C1697 C1701 1.376 . S
C1698 C1696 1.394 . S
C1698 C1699 1.369 . S
C1698 C1702 1.531 . S
C1699 C1698 1.369 . S
C1699 C1700 1.410 . S
C1699 C1707 1.503 . S
C1700 C1699 1.410 . S
C1700 C1701 1.392 . S
C1700 C1703 1.511 . S
C1701 C1697 1.376 . S
C1701 C1700 1.392 . S
C1701 H1713 0.929 . S
C1702 C1698 1.531 . S
C1702 H1714 0.960 . S
C1702 H1715 0.962 . S
C1702 H1716 0.960 . S
C1703 C1700 1.511 . S
C1703 H1717 0.961 . S
C1703 H1718 0.961 . S
C1703 H1719 0.961 . S
C1704 C1705 1.370 . S
C1704 C1706 1.363 . S
C1704 H1720 0.931 . S
C1705 C1704 1.370 . S
C1705 C1709 1.408 . S
C1706 C1704 1.363 . S
C1706 C1707 1.370 . S
C1706 C1710 1.524 . S
C1707 C1699 1.503 . S
C1707 C1706 1.370 . S
C1707 C1708 1.403 . S
C1708 C1707 1.403 . S
C1708 C1709 1.404 . S
C1708 C1711 1.539 . S
C1709 C1705 1.408 . S
C1709 C1708 1.404 . S
C1709 H1721 0.930 . S
C1710 C1706 1.524 . S
C1710 H1722 0.956 . S
C1710 H1723 0.961 . S
C1710 H1724 0.961 . S
C1711 C1708 1.539 . S
C1711 H1725 0.958 . S
C1711 H1726 0.961 . S
C1711 H1727 0.960 . S
H1712 C1696 0.931 . S
H1713 C1701 0.929 . S
H1714 C1702 0.960 . S
H1715 C1702 0.962 . S
H1716 C1702 0.960 . S
H1717 C1703 0.961 . S
H1718 C1703 0.961 . S
H1719 C1703 0.961 . S
H1720 C1704 0.931 . S
H1721 C1709 0.930 . S
H1722 C1710 0.956 . S
H1723 C1710 0.961 . S
H1724 C1710 0.961 . S
H1725 C1711 0.958 . S
H1726 C1711 0.961 . S
H1727 C1711 0.960 . S
C1728 C1729 1.391 . S
C1728 C1730 1.394 . S
C1728 H1744 0.931 . S
C1729 C1728 1.391 . S
C1729 C1733 1.376 . S
C1730 C1728 1.394 . S
C1730 C1731 1.369 . S
C1730 C1734 1.531 . S
C1731 C1730 1.369 . S
C1731 C1732 1.410 . S
C1731 C1739 1.503 . S
C1732 C1731 1.410 . S
C1732 C1733 1.392 . S
C1732 C1735 1.511 . S
C1733 C1729 1.376 . S
C1733 C1732 1.392 . S
C1733 H1745 0.929 . S
C1734 C1730 1.531 . S
C1734 H1746 0.960 . S
C1734 H1747 0.962 . S
C1734 H1748 0.960 . S
C1735 C1732 1.511 . S
C1735 H1749 0.961 . S
C1735 H1750 0.961 . S
C1735 H1751 0.961 . S
C1736 C1737 1.370 . S
C1736 C1738 1.363 . S
C1736 H1752 0.931 . S
C1737 C1736 1.370 . S
C1737 C1741 1.408 . S
C1738 C1736 1.363 . S
C1738 C1739 1.370 . S
C1738 C1742 1.524 . S
C1739 C1731 1.503 . S
C1739 C1738 1.370 . S
C1739 C1740 1.403 . S
C1740 C1739 1.403 . S
C1740 C1741 1.404 . S
C1740 C1743 1.539 . S
C1741 C1737 1.408 . S
C1741 C1740 1.404 . S
C1741 H1753 0.930 . S
C1742 C1738 1.524 . S
C1742 H1754 0.956 . S
C1742 H1755 0.961 . S
C1742 H1756 0.961 . S
C1743 C1740 1.539 . S
C1743 H1757 0.958 . S
C1743 H1758 0.961 . S
C1743 H1759 0.960 . S
H1744 C1728 0.931 . S
H1745 C1733 0.929 . S
H1746 C1734 0.960 . S
H1747 C1734 0.962 . S
H1748 C1734 0.960 . S
H1749 C1735 0.961 . S
H1750 C1735 0.961 . S
H1751 C1735 0.961 . S
H1752 C1736 0.931 . S
H1753 C1741 0.930 . S
H1754 C1742 0.956 . S
H1755 C1742 0.961 . S
H1756 C1742 0.961 . S
H1757 C1743 0.958 . S
H1758 C1743 0.961 . S
H1759 C1743 0.960 . S
C1760 C1761 1.391 . S
C1760 C1762 1.394 . S
C1760 H1776 0.931 . S
C1761 C1760 1.391 . S
C1761 C1765 1.376 . S
C1762 C1760 1.394 . S
C1762 C1763 1.369 . S
C1762 C1766 1.531 . S
C1763 C1762 1.369 . S
C1763 C1764 1.410 . S
C1763 C1771 1.503 . S
C1764 C1763 1.410 . S
C1764 C1765 1.392 . S
C1764 C1767 1.511 . S
C1765 C1761 1.376 . S
C1765 C1764 1.392 . S
C1765 H1777 0.929 . S
C1766 C1762 1.531 . S
C1766 H1778 0.960 . S
C1766 H1779 0.962 . S
C1766 H1780 0.960 . S
C1767 C1764 1.511 . S
C1767 H1781 0.961 . S
C1767 H1782 0.961 . S
C1767 H1783 0.961 . S
C1768 C1769 1.370 . S
C1768 C1770 1.363 . S
C1768 H1784 0.931 . S
C1769 C1768 1.370 . S
C1769 C1773 1.408 . S
C1770 C1768 1.363 . S
C1770 C1771 1.370 . S
C1770 C1774 1.524 . S
C1771 C1763 1.503 . S
C1771 C1770 1.370 . S
C1771 C1772 1.403 . S
C1772 C1771 1.403 . S
C1772 C1773 1.404 . S
C1772 C1775 1.539 . S
C1773 C1769 1.408 . S
C1773 C1772 1.404 . S
C1773 H1785 0.930 . S
C1774 C1770 1.524 . S
C1774 H1786 0.956 . S
C1774 H1787 0.961 . S
C1774 H1788 0.961 . S
C1775 C1772 1.539 . S
C1775 H1789 0.958 . S
C1775 H1790 0.961 . S
C1775 H1791 0.960 . S
H1776 C1760 0.931 . S
H1777 C1765 0.929 . S
H1778 C1766 0.960 . S
H1779 C1766 0.962 . S
H1780 C1766 0.960 . S
H1781 C1767 0.961 . S
H1782 C1767 0.961 . S
H1783 C1767 0.961 . S
H1784 C1768 0.931 . S
H1785 C1773 0.930 . S
H1786 C1774 0.956 . S
H1787 C1774 0.961 . S
H1788 C1774 0.961 . S
H1789 C1775 0.958 . S
H1790 C1775 0.961 . S
H1791 C1775 0.960 . S
C1792 C1793 1.391 . S
C1792 C1794 1.394 . S
C1792 H1808 0.931 . S
C1793 C1792 1.391 . S
C1793 C1797 1.376 . S
C1794 C1792 1.394 . S
C1794 C1795 1.369 . S
C1794 C1798 1.531 . S
C1795 C1794 1.369 . S
C1795 C1796 1.410 . S
C1795 C1803 1.503 . S
C1796 C1795 1.410 . S
C1796 C1797 1.392 . S
C1796 C1799 1.511 . S
C1797 C1793 1.376 . S
C1797 C1796 1.392 . S
C1797 H1809 0.929 . S
C1798 C1794 1.531 . S
C1798 H1810 0.960 . S
C1798 H1811 0.962 . S
C1798 H1812 0.960 . S
C1799 C1796 1.511 . S
C1799 H1813 0.961 . S
C1799 H1814 0.961 . S
C1799 H1815 0.961 . S
C1800 C1801 1.370 . S
C1800 C1802 1.363 . S
C1800 H1816 0.931 . S
C1801 C1800 1.370 . S
C1801 C1805 1.408 . S
C1802 C1800 1.363 . S
C1802 C1803 1.370 . S
C1802 C1806 1.524 . S
C1803 C1795 1.503 . S
C1803 C1802 1.370 . S
C1803 C1804 1.403 . S
C1804 C1803 1.403 . S
C1804 C1805 1.404 . S
C1804 C1807 1.539 . S
C1805 C1801 1.408 . S
C1805 C1804 1.404 . S
C1805 H1817 0.930 . S
C1806 C1802 1.524 . S
C1806 H1818 0.956 . S
C1806 H1819 0.961 . S
C1806 H1820 0.961 . S
C1807 C1804 1.539 . S
C1807 H1821 0.958 . S
C1807 H1822 0.961 . S
C1807 H1823 0.960 . S
H1808 C1792 0.931 . S
H1809 C1797 0.929 . S
H1810 C1798 0.960 . S
H1811 C1798 0.962 . S
H1812 C1798 0.960 . S
H1813 C1799 0.961 . S
H1814 C1799 0.961 . S
H1815 C1799 0.961 . S
H1816 C1800 0.931 . S
H1817 C1805 0.930 . S
H1818 C1806 0.956 . S
H1819 C1806 0.961 . S
H1820 C1806 0.961 . S
H1821 C1807 0.958 . S
H1822 C1807 0.961 . S
H1823 C1807 0.960 . S
C1824 C1825 1.391 . S
C1824 C1826 1.394 . S
C1824 H1840 0.931 . S
C1825 C1824 1.391 . S
C1825 C1829 1.376 . S
C1826 C1824 1.394 . S
C1826 C1827 1.369 . S
C1826 C1830 1.531 . S
C1827 C1826 1.369 . S
C1827 C1828 1.410 . S
C1827 C1835 1.503 . S
C1828 C1827 1.410 . S
C1828 C1829 1.392 . S
C1828 C1831 1.511 . S
C1829 C1825 1.376 . S
C1829 C1828 1.392 . S
C1829 H1841 0.929 . S
C1830 C1826 1.531 . S
C1830 H1842 0.960 . S
C1830 H1843 0.962 . S
C1830 H1844 0.960 . S
C1831 C1828 1.511 . S
C1831 H1845 0.961 . S
C1831 H1846 0.961 . S
C1831 H1847 0.961 . S
C1832 C1833 1.370 . S
C1832 C1834 1.363 . S
C1832 H1848 0.931 . S
C1833 C1832 1.370 . S
C1833 C1837 1.408 . S
C1834 C1832 1.363 . S
C1834 C1835 1.370 . S
C1834 C1838 1.524 . S
C1835 C1827 1.503 . S
C1835 C1834 1.370 . S
C1835 C1836 1.403 . S
C1836 C1835 1.403 . S
C1836 C1837 1.404 . S
C1836 C1839 1.539 . S
C1837 C1833 1.408 . S
C1837 C1836 1.404 . S
C1837 H1849 0.930 . S
C1838 C1834 1.524 . S
C1838 H1850 0.956 . S
C1838 H1851 0.961 . S
C1838 H1852 0.961 . S
C1839 C1836 1.539 . S
C1839 H1853 0.958 . S
C1839 H1854 0.961 . S
C1839 H1855 0.960 . S
H1840 C1824 0.931 . S
H1841 C1829 0.929 . S
H1842 C1830 0.960 . S
H1843 C1830 0.962 . S
H1844 C1830 0.960 . S
H1845 C1831 0.961 . S
H1846 C1831 0.961 . S
H1847 C1831 0.961 . S
H1848 C1832 0.931 . S
H1849 C1837 0.930 . S
H1850 C1838 0.956 . S
H1851 C1838 0.961 . S
H1852 C1838 0.961 . S
H1853 C1839 0.958 . S
H1854 C1839 0.961 . S
H1855 C1839 0.960 . S
C1856 C1857 1.391 . S
C1856 C1858 1.394 . S
C1856 H1872 0.931 . S
C1857 C1856 1.391 . S
C1857 C1861 1.376 . S
C1858 C1856 1.394 . S
C1858 C1859 1.369 . S
C1858 C1862 1.531 . S
C1859 C1858 1.369 . S
C1859 C1860 1.410 . S
C1859 C1867 1.503 . S
C1860 C1859 1.410 . S
C1860 C1861 1.392 . S
C1860 C1863 1.511 . S
C1861 C1857 1.376 . S
C1861 C1860 1.392 . S
C1861 H1873 0.929 . S
C1862 C1858 1.531 . S
C1862 H1874 0.960 . S
C1862 H1875 0.962 . S
C1862 H1876 0.960 . S
C1863 C1860 1.511 . S
C1863 H1877 0.961 . S
C1863 H1878 0.961 . S
C1863 H1879 0.961 . S
C1864 C1865 1.370 . S
C1864 C1866 1.363 . S
C1864 H1880 0.931 . S
C1865 C1864 1.370 . S
C1865 C1869 1.408 . S
C1866 C1864 1.363 . S
C1866 C1867 1.370 . S
C1866 C1870 1.524 . S
C1867 C1859 1.503 . S
C1867 C1866 1.370 . S
C1867 C1868 1.403 . S
C1868 C1867 1.403 . S
C1868 C1869 1.404 . S
C1868 C1871 1.539 . S
C1869 C1865 1.408 . S
C1869 C1868 1.404 . S
C1869 H1881 0.930 . S
C1870 C1866 1.524 . S
C1870 H1882 0.956 . S
C1870 H1883 0.961 . S
C1870 H1884 0.961 . S
C1871 C1868 1.539 . S
C1871 H1885 0.958 . S
C1871 H1886 0.961 . S
C1871 H1887 0.960 . S
H1872 C1856 0.931 . S
H1873 C1861 0.929 . S
H1874 C1862 0.960 . S
H1875 C1862 0.962 . S
H1876 C1862 0.960 . S
H1877 C1863 0.961 . S
H1878 C1863 0.961 . S
H1879 C1863 0.961 . S
H1880 C1864 0.931 . S
H1881 C1869 0.930 . S
H1882 C1870 0.956 . S
H1883 C1870 0.961 . S
H1884 C1870 0.961 . S
H1885 C1871 0.958 . S
H1886 C1871 0.961 . S
H1887 C1871 0.960 . S
C1888 C1889 1.391 . S
C1888 C1890 1.394 . S
C1888 H1904 0.931 . S
C1889 C1888 1.391 . S
C1889 C1893 1.376 . S
C1890 C1888 1.394 . S
C1890 C1891 1.369 . S
C1890 C1894 1.531 . S
C1891 C1890 1.369 . S
C1891 C1892 1.410 . S
C1891 C1899 1.503 . S
C1892 C1891 1.410 . S
C1892 C1893 1.392 . S
C1892 C1895 1.511 . S
C1893 C1889 1.376 . S
C1893 C1892 1.392 . S
C1893 H1905 0.929 . S
C1894 C1890 1.531 . S
C1894 H1906 0.960 . S
C1894 H1907 0.962 . S
C1894 H1908 0.960 . S
C1895 C1892 1.511 . S
C1895 H1909 0.961 . S
C1895 H1910 0.961 . S
C1895 H1911 0.961 . S
C1896 C1897 1.370 . S
C1896 C1898 1.363 . S
C1896 H1912 0.931 . S
C1897 C1896 1.370 . S
C1897 C1901 1.408 . S
C1898 C1896 1.363 . S
C1898 C1899 1.370 . S
C1898 C1902 1.524 . S
C1899 C1891 1.503 . S
C1899 C1898 1.370 . S
C1899 C1900 1.403 . S
C1900 C1899 1.403 . S
C1900 C1901 1.404 . S
C1900 C1903 1.539 . S
C1901 C1897 1.408 . S
C1901 C1900 1.404 . S
C1901 H1913 0.930 . S
C1902 C1898 1.524 . S
C1902 H1914 0.956 . S
C1902 H1915 0.961 . S
C1902 H1916 0.961 . S
C1903 C1900 1.539 . S
C1903 H1917 0.958 . S
C1903 H1918 0.961 . S
C1903 H1919 0.960 . S
H1904 C1888 0.931 . S
H1905 C1893 0.929 . S
H1906 C1894 0.960 . S
H1907 C1894 0.962 . S
H1908 C1894 0.960 . S
H1909 C1895 0.961 . S
H1910 C1895 0.961 . S
H1911 C1895 0.961 . S
H1912 C1896 0.931 . S
H1913 C1901 0.930 . S
H1914 C1902 0.956 . S
H1915 C1902 0.961 . S
H1916 C1902 0.961 . S
H1917 C1903 0.958 . S
H1918 C1903 0.961 . S
H1919 C1903 0.960 . S
C1920 C1921 1.391 . S
C1920 C1922 1.394 . S
C1920 H1936 0.931 . S
C1921 C1920 1.391 . S
C1921 C1925 1.376 . S
C1922 C1920 1.394 . S
C1922 C1923 1.369 . S
C1922 C1926 1.531 . S
C1923 C1922 1.369 . S
C1923 C1924 1.410 . S
C1923 C1931 1.503 . S
C1924 C1923 1.410 . S
C1924 C1925 1.392 . S
C1924 C1927 1.511 . S
C1925 C1921 1.376 . S
C1925 C1924 1.392 . S
C1925 H1937 0.929 . S
C1926 C1922 1.531 . S
C1926 H1938 0.960 . S
C1926 H1939 0.962 . S
C1926 H1940 0.960 . S
C1927 C1924 1.511 . S
C1927 H1941 0.961 . S
C1927 H1942 0.961 . S
C1927 H1943 0.961 . S
C1928 C1929 1.370 . S
C1928 C1930 1.363 . S
C1928 H1944 0.931 . S
C1929 C1928 1.370 . S
C1929 C1933 1.408 . S
C1930 C1928 1.363 . S
C1930 C1931 1.370 . S
C1930 C1934 1.524 . S
C1931 C1923 1.503 . S
C1931 C1930 1.370 . S
C1931 C1932 1.403 . S
C1932 C1931 1.403 . S
C1932 C1933 1.404 . S
C1932 C1935 1.539 . S
C1933 C1929 1.408 . S
C1933 C1932 1.404 . S
C1933 H1945 0.930 . S
C1934 C1930 1.524 . S
C1934 H1946 0.956 . S
C1934 H1947 0.961 . S
C1934 H1948 0.961 . S
C1935 C1932 1.539 . S
C1935 H1949 0.958 . S
C1935 H1950 0.961 . S
C1935 H1951 0.960 . S
H1936 C1920 0.931 . S
H1937 C1925 0.929 . S
H1938 C1926 0.960 . S
H1939 C1926 0.962 . S
H1940 C1926 0.960 . S
H1941 C1927 0.961 . S
H1942 C1927 0.961 . S
H1943 C1927 0.961 . S
H1944 C1928 0.931 . S
H1945 C1933 0.930 . S
H1946 C1934 0.956 . S
H1947 C1934 0.961 . S
H1948 C1934 0.961 . S
H1949 C1935 0.958 . S
H1950 C1935 0.961 . S
H1951 C1935 0.960 . S
C1952 C1953 1.391 . S
C1952 C1954 1.394 . S
C1952 H1968 0.931 . S
C1953 C1952 1.391 . S
C1953 C1957 1.376 . S
C1954 C1952 1.394 . S
C1954 C1955 1.369 . S
C1954 C1958 1.531 . S
C1955 C1954 1.369 . S
C1955 C1956 1.410 . S
C1955 C1963 1.503 . S
C1956 C1955 1.410 . S
C1956 C1957 1.392 . S
C1956 C1959 1.511 . S
C1957 C1953 1.376 . S
C1957 C1956 1.392 . S
C1957 H1969 0.929 . S
C1958 C1954 1.531 . S
C1958 H1970 0.960 . S
C1958 H1971 0.962 . S
C1958 H1972 0.960 . S
C1959 C1956 1.511 . S
C1959 H1973 0.961 . S
C1959 H1974 0.961 . S
C1959 H1975 0.961 . S
C1960 C1961 1.370 . S
C1960 C1962 1.363 . S
C1960 H1976 0.931 . S
C1961 C1960 1.370 . S
C1961 C1965 1.408 . S
C1962 C1960 1.363 . S
C1962 C1963 1.370 . S
C1962 C1966 1.524 . S
C1963 C1955 1.503 . S
C1963 C1962 1.370 . S
C1963 C1964 1.403 . S
C1964 C1963 1.403 . S
C1964 C1965 1.404 . S
C1964 C1967 1.539 . S
C1965 C1961 1.408 . S
C1965 C1964 1.404 . S
C1965 H1977 0.930 . S
C1966 C1962 1.524 . S
C1966 H1978 0.956 . S
C1966 H1979 0.961 . S
C1966 H1980 0.961 . S
C1967 C1964 1.539 . S
C1967 H1981 0.958 . S
C1967 H1982 0.961 . S
C1967 H1983 0.960 . S
H1968 C1952 0.931 . S
H1969 C1957 0.929 . S
H1970 C1958 0.960 . S
H1971 C1958 0.962 . S
H1972 C1958 0.960 . S
H1973 C1959 0.961 . S
H1974 C1959 0.961 . S
H1975 C1959 0.961 . S
H1976 C1960 0.931 . S
H1977 C1965 0.930 . S
H1978 C1966 0.956 . S
H1979 C1966 0.961 . S
H1980 C1966 0.961 . S
H1981 C1967 0.958 . S
H1982 C1967 0.961 . S
H1983 C1967 0.960 . S
C1984 C1985 1.391 . S
C1984 C1986 1.394 . S
C1984 H2000 0.931 . S
C1985 C1984 1.391 . S
C1985 C1989 1.376 . S
C1986 C1984 1.394 . S
C1986 C1987 1.369 . S
C1986 C1990 1.531 . S
C1987 C1986 1.369 . S
C1987 C1988 1.410 . S
C1987 C1995 1.503 . S
C1988 C1987 1.410 . S
C1988 C1989 1.392 . S
C1988 C1991 1.511 . S
C1989 C1985 1.376 . S
C1989 C1988 1.392 . S
C1989 H2001 0.929 . S
C1990 C1986 1.531 . S
C1990 H2002 0.960 . S
C1990 H2003 0.962 . S
C1990 H2004 0.960 . S
C1991 C1988 1.511 . S
C1991 H2005 0.961 . S
C1991 H2006 0.961 . S
C1991 H2007 0.961 . S
C1992 C1993 1.370 . S
C1992 C1994 1.363 . S
C1992 H2008 0.931 . S
C1993 C1992 1.370 . S
C1993 C1997 1.408 . S
C1994 C1992 1.363 . S
C1994 C1995 1.370 . S
C1994 C1998 1.524 . S
C1995 C1987 1.503 . S
C1995 C1994 1.370 . S
C1995 C1996 1.403 . S
C1996 C1995 1.403 . S
C1996 C1997 1.404 . S
C1996 C1999 1.539 . S
C1997 C1993 1.408 . S
C1997 C1996 1.404 . S
C1997 H2009 0.930 . S
C1998 C1994 1.524 . S
C1998 H2010 0.956 . S
C1998 H2011 0.961 . S
C1998 H2012 0.961 . S
C1999 C1996 1.539 . S
C1999 H2013 0.958 . S
C1999 H2014 0.961 . S
C1999 H2015 0.960 . S
H2000 C1984 0.931 . S
H2001 C1989 0.929 . S
H2002 C1990 0.960 . S
H2003 C1990 0.962 . S
H2004 C1990 0.960 . S
H2005 C1991 0.961 . S
H2006 C1991 0.961 . S
H2007 C1991 0.961 . S
H2008 C1992 0.931 . S
H2009 C1997 0.930 . S
H2010 C1998 0.956 . S
H2011 C1998 0.961 . S
H2012 C1998 0.961 . S
H2013 C1999 0.958 . S
H2014 C1999 0.961 . S
H2015 C1999 0.960 . S
C2016 C2017 1.391 . S
C2016 C2018 1.394 . S
C2016 H2032 0.931 . S
C2017 C2016 1.391 . S
C2017 C2021 1.376 . S
C2018 C2016 1.394 . S
C2018 C2019 1.369 . S
C2018 C2022 1.531 . S
C2019 C2018 1.369 . S
C2019 C2020 1.410 . S
C2019 C2027 1.503 . S
C2020 C2019 1.410 . S
C2020 C2021 1.392 . S
C2020 C2023 1.511 . S
C2021 C2017 1.376 . S
C2021 C2020 1.392 . S
C2021 H2033 0.929 . S
C2022 C2018 1.531 . S
C2022 H2034 0.960 . S
C2022 H2035 0.962 . S
C2022 H2036 0.960 . S
C2023 C2020 1.511 . S
C2023 H2037 0.961 . S
C2023 H2038 0.961 . S
C2023 H2039 0.961 . S
C2024 C2025 1.370 . S
C2024 C2026 1.363 . S
C2024 H2040 0.931 . S
C2025 C2024 1.370 . S
C2025 C2029 1.408 . S
C2026 C2024 1.363 . S
C2026 C2027 1.370 . S
C2026 C2030 1.524 . S
C2027 C2019 1.503 . S
C2027 C2026 1.370 . S
C2027 C2028 1.403 . S
C2028 C2027 1.403 . S
C2028 C2029 1.404 . S
C2028 C2031 1.539 . S
C2029 C2025 1.408 . S
C2029 C2028 1.404 . S
C2029 H2041 0.930 . S
C2030 C2026 1.524 . S
C2030 H2042 0.956 . S
C2030 H2043 0.961 . S
C2030 H2044 0.961 . S
C2031 C2028 1.539 . S
C2031 H2045 0.958 . S
C2031 H2046 0.961 . S
C2031 H2047 0.960 . S
H2032 C2016 0.931 . S
H2033 C2021 0.929 . S
H2034 C2022 0.960 . S
H2035 C2022 0.962 . S
H2036 C2022 0.960 . S
H2037 C2023 0.961 . S
H2038 C2023 0.961 . S
H2039 C2023 0.961 . S
H2040 C2024 0.931 . S
H2041 C2029 0.930 . S
H2042 C2030 0.956 . S
H2043 C2030 0.961 . S
H2044 C2030 0.961 . S
H2045 C2031 0.958 . S
H2046 C2031 0.961 . S
H2047 C2031 0.960 . S
C2048 C2049 1.391 . S
C2048 C2050 1.394 . S
C2048 H2064 0.931 . S
C2049 C2048 1.391 . S
C2049 C2053 1.376 . S
C2050 C2048 1.394 . S
C2050 C2051 1.369 . S
C2050 C2054 1.531 . S
C2051 C2050 1.369 . S
C2051 C2052 1.410 . S
C2051 C2059 1.503 . S
C2052 C2051 1.410 . S
C2052 C2053 1.392 . S
C2052 C2055 1.511 . S
C2053 C2049 1.376 . S
C2053 C2052 1.392 . S
C2053 H2065 0.929 . S
C2054 C2050 1.531 . S
C2054 H2066 0.960 . S
C2054 H2067 0.962 . S
C2054 H2068 0.960 . S
C2055 C2052 1.511 . S
C2055 H2069 0.961 . S
C2055 H2070 0.961 . S
C2055 H2071 0.961 . S
C2056 C2057 1.370 . S
C2056 C2058 1.363 . S
C2056 H2072 0.931 . S
C2057 C2056 1.370 . S
C2057 C2061 1.408 . S
C2058 C2056 1.363 . S
C2058 C2059 1.370 . S
C2058 C2062 1.524 . S
C2059 C2051 1.503 . S
C2059 C2058 1.370 . S
C2059 C2060 1.403 . S
C2060 C2059 1.403 . S
C2060 C2061 1.404 . S
C2060 C2063 1.539 . S
C2061 C2057 1.408 . S
C2061 C2060 1.404 . S
C2061 H2073 0.930 . S
C2062 C2058 1.524 . S
C2062 H2074 0.956 . S
C2062 H2075 0.961 . S
C2062 H2076 0.961 . S
C2063 C2060 1.539 . S
C2063 H2077 0.958 . S
C2063 H2078 0.961 . S
C2063 H2079 0.960 . S
H2064 C2048 0.931 . S
H2065 C2053 0.929 . S
H2066 C2054 0.960 . S
H2067 C2054 0.962 . S
H2068 C2054 0.960 . S
H2069 C2055 0.961 . S
H2070 C2055 0.961 . S
H2071 C2055 0.961 . S
H2072 C2056 0.931 . S
H2073 C2061 0.930 . S
H2074 C2062 0.956 . S
H2075 C2062 0.961 . S
H2076 C2062 0.961 . S
H2077 C2063 0.958 . S
H2078 C2063 0.961 . S
H2079 C2063 0.960 . S
C2080 C2081 1.391 . S
C2080 C2082 1.394 . S
C2080 H2096 0.931 . S
C2081 C2080 1.391 . S
C2081 C2085 1.376 . S
C2082 C2080 1.394 . S
C2082 C2083 1.369 . S
C2082 C2086 1.531 . S
C2083 C2082 1.369 . S
C2083 C2084 1.410 . S
C2083 C2091 1.503 . S
C2084 C2083 1.410 . S
C2084 C2085 1.392 . S
C2084 C2087 1.511 . S
C2085 C2081 1.376 . S
C2085 C2084 1.392 . S
C2085 H2097 0.929 . S
C2086 C2082 1.531 . S
C2086 H2098 0.960 . S
C2086 H2099 0.962 . S
C2086 H2100 0.960 . S
C2087 C2084 1.511 . S
C2087 H2101 0.961 . S
C2087 H2102 0.961 . S
C2087 H2103 0.961 . S
C2088 C2089 1.370 . S
C2088 C2090 1.363 . S
C2088 H2104 0.931 . S
C2089 C2088 1.370 . S
C2089 C2093 1.408 . S
C2090 C2088 1.363 . S
C2090 C2091 1.370 . S
C2090 C2094 1.524 . S
C2091 C2083 1.503 . S
C2091 C2090 1.370 . S
C2091 C2092 1.403 . S
C2092 C2091 1.403 . S
C2092 C2093 1.404 . S
C2092 C2095 1.539 . S
C2093 C2089 1.408 . S
C2093 C2092 1.404 . S
C2093 H2105 0.930 . S
C2094 C2090 1.524 . S
C2094 H2106 0.956 . S
C2094 H2107 0.961 . S
C2094 H2108 0.961 . S
C2095 C2092 1.539 . S
C2095 H2109 0.958 . S
C2095 H2110 0.961 . S
C2095 H2111 0.960 . S
H2096 C2080 0.931 . S
H2097 C2085 0.929 . S
H2098 C2086 0.960 . S
H2099 C2086 0.962 . S
H2100 C2086 0.960 . S
H2101 C2087 0.961 . S
H2102 C2087 0.961 . S
H2103 C2087 0.961 . S
H2104 C2088 0.931 . S
H2105 C2093 0.930 . S
H2106 C2094 0.956 . S
H2107 C2094 0.961 . S
H2108 C2094 0.961 . S
H2109 C2095 0.958 . S
H2110 C2095 0.961 . S
H2111 C2095 0.960 . S
C2112 C2113 1.391 . S
C2112 C2114 1.394 . S
C2112 H2128 0.931 . S
C2113 C2112 1.391 . S
C2113 C2117 1.376 . S
C2114 C2112 1.394 . S
C2114 C2115 1.369 . S
C2114 C2118 1.531 . S
C2115 C2114 1.369 . S
C2115 C2116 1.410 . S
C2115 C2123 1.503 . S
C2116 C2115 1.410 . S
C2116 C2117 1.392 . S
C2116 C2119 1.511 . S
C2117 C2113 1.376 . S
C2117 C2116 1.392 . S
C2117 H2129 0.929 . S
C2118 C2114 1.531 . S
C2118 H2130 0.960 . S
C2118 H2131 0.962 . S
C2118 H2132 0.960 . S
C2119 C2116 1.511 . S
C2119 H2133 0.961 . S
C2119 H2134 0.961 . S
C2119 H2135 0.961 . S
C2120 C2121 1.370 . S
C2120 C2122 1.363 . S
C2120 H2136 0.931 . S
C2121 C2120 1.370 . S
C2121 C2125 1.408 . S
C2122 C2120 1.363 . S
C2122 C2123 1.370 . S
C2122 C2126 1.524 . S
C2123 C2115 1.503 . S
C2123 C2122 1.370 . S
C2123 C2124 1.403 . S
C2124 C2123 1.403 . S
C2124 C2125 1.404 . S
C2124 C2127 1.539 . S
C2125 C2121 1.408 . S
C2125 C2124 1.404 . S
C2125 H2137 0.930 . S
C2126 C2122 1.524 . S
C2126 H2138 0.956 . S
C2126 H2139 0.961 . S
C2126 H2140 0.961 . S
C2127 C2124 1.539 . S
C2127 H2141 0.958 . S
C2127 H2142 0.961 . S
C2127 H2143 0.960 . S
H2128 C2112 0.931 . S
H2129 C2117 0.929 . S
H2130 C2118 0.960 . S
H2131 C2118 0.962 . S
H2132 C2118 0.960 . S
H2133 C2119 0.961 . S
H2134 C2119 0.961 . S
H2135 C2119 0.961 . S
H2136 C2120 0.931 . S
H2137 C2125 0.930 . S
H2138 C2126 0.956 . S
H2139 C2126 0.961 . S
H2140 C2126 0.961 . S
H2141 C2127 0.958 . S
H2142 C2127 0.961 . S
H2143 C2127 0.960 . S
C2144 C2145 1.391 . S
C2144 C2146 1.394 . S
C2144 H2160 0.931 . S
C2145 C2144 1.391 . S
C2145 C2149 1.376 . S
C2146 C2144 1.394 . S
C2146 C2147 1.369 . S
C2146 C2150 1.531 . S
C2147 C2146 1.369 . S
C2147 C2148 1.410 . S
C2147 C2155 1.503 . S
C2148 C2147 1.410 . S
C2148 C2149 1.392 . S
C2148 C2151 1.511 . S
C2149 C2145 1.376 . S
C2149 C2148 1.392 . S
C2149 H2161 0.929 . S
C2150 C2146 1.531 . S
C2150 H2162 0.960 . S
C2150 H2163 0.962 . S
C2150 H2164 0.960 . S
C2151 C2148 1.511 . S
C2151 H2165 0.961 . S
C2151 H2166 0.961 . S
C2151 H2167 0.961 . S
C2152 C2153 1.370 . S
C2152 C2154 1.363 . S
C2152 H2168 0.931 . S
C2153 C2152 1.370 . S
C2153 C2157 1.408 . S
C2154 C2152 1.363 . S
C2154 C2155 1.370 . S
C2154 C2158 1.524 . S
C2155 C2147 1.503 . S
C2155 C2154 1.370 . S
C2155 C2156 1.403 . S
C2156 C2155 1.403 . S
C2156 C2157 1.404 . S
C2156 C2159 1.539 . S
C2157 C2153 1.408 . S
C2157 C2156 1.404 . S
C2157 H2169 0.930 . S
C2158 C2154 1.524 . S
C2158 H2170 0.956 . S
C2158 H2171 0.961 . S
C2158 H2172 0.961 . S
C2159 C2156 1.539 . S
C2159 H2173 0.958 . S
C2159 H2174 0.961 . S
C2159 H2175 0.960 . S
H2160 C2144 0.931 . S
H2161 C2149 0.929 . S
H2162 C2150 0.960 . S
H2163 C2150 0.962 . S
H2164 C2150 0.960 . S
H2165 C2151 0.961 . S
H2166 C2151 0.961 . S
H2167 C2151 0.961 . S
H2168 C2152 0.931 . S
H2169 C2157 0.930 . S
H2170 C2158 0.956 . S
H2171 C2158 0.961 . S
H2172 C2158 0.961 . S
H2173 C2159 0.958 . S
H2174 C2159 0.961 . S
H2175 C2159 0.960 . S
C2176 C2177 1.391 . S
C2176 C2178 1.394 . S
C2176 H2192 0.931 . S
C2177 C2176 1.391 . S
C2177 C2181 1.376 . S
C2178 C2176 1.394 . S
C2178 C2179 1.369 . S
C2178 C2182 1.531 . S
C2179 C2178 1.369 . S
C2179 C2180 1.410 . S
C2179 C2187 1.503 . S
C2180 C2179 1.410 . S
C2180 C2181 1.392 . S
C2180 C2183 1.511 . S
C2181 C2177 1.376 . S
C2181 C2180 1.392 . S
C2181 H2193 0.929 . S
C2182 C2178 1.531 . S
C2182 H2194 0.960 . S
C2182 H2195 0.962 . S
C2182 H2196 0.960 . S
C2183 C2180 1.511 . S
C2183 H2197 0.961 . S
C2183 H2198 0.961 . S
C2183 H2199 0.961 . S
C2184 C2185 1.370 . S
C2184 C2186 1.363 . S
C2184 H2200 0.931 . S
C2185 C2184 1.370 . S
C2185 C2189 1.408 . S
C2186 C2184 1.363 . S
C2186 C2187 1.370 . S
C2186 C2190 1.524 . S
C2187 C2179 1.503 . S
C2187 C2186 1.370 . S
C2187 C2188 1.403 . S
C2188 C2187 1.403 . S
C2188 C2189 1.404 . S
C2188 C2191 1.539 . S
C2189 C2185 1.408 . S
C2189 C2188 1.404 . S
C2189 H2201 0.930 . S
C2190 C2186 1.524 . S
C2190 H2202 0.956 . S
C2190 H2203 0.961 . S
C2190 H2204 0.961 . S
C2191 C2188 1.539 . S
C2191 H2205 0.958 . S
C2191 H2206 0.961 . S
C2191 H2207 0.960 . S
H2192 C2176 0.931 . S
H2193 C2181 0.929 . S
H2194 C2182 0.960 . S
H2195 C2182 0.962 . S
H2196 C2182 0.960 . S
H2197 C2183 0.961 . S
H2198 C2183 0.961 . S
H2199 C2183 0.961 . S
H2200 C2184 0.931 . S
H2201 C2189 0.930 . S
H2202 C2190 0.956 . S
H2203 C2190 0.961 . S
H2204 C2190 0.961 . S
H2205 C2191 0.958 . S
H2206 C2191 0.961 . S
H2207 C2191 0.960 . S
C2208 C2209 1.391 . S
C2208 C2210 1.394 . S
C2208 H2224 0.931 . S
C2209 C2208 1.391 . S
C2209 C2213 1.376 . S
C2210 C2208 1.394 . S
C2210 C2211 1.369 . S
C2210 C2214 1.531 . S
C2211 C2210 1.369 . S
C2211 C2212 1.410 . S
C2211 C2219 1.503 . S
C2212 C2211 1.410 . S
C2212 C2213 1.392 . S
C2212 C2215 1.511 . S
C2213 C2209 1.376 . S
C2213 C2212 1.392 . S
C2213 H2225 0.929 . S
C2214 C2210 1.531 . S
C2214 H2226 0.960 . S
C2214 H2227 0.962 . S
C2214 H2228 0.960 . S
C2215 C2212 1.511 . S
C2215 H2229 0.961 . S
C2215 H2230 0.961 . S
C2215 H2231 0.961 . S
C2216 C2217 1.370 . S
C2216 C2218 1.363 . S
C2216 H2232 0.931 . S
C2217 C2216 1.370 . S
C2217 C2221 1.408 . S
C2218 C2216 1.363 . S
C2218 C2219 1.370 . S
C2218 C2222 1.524 . S
C2219 C2211 1.503 . S
C2219 C2218 1.370 . S
C2219 C2220 1.403 . S
C2220 C2219 1.403 . S
C2220 C2221 1.404 . S
C2220 C2223 1.539 . S
C2221 C2217 1.408 . S
C2221 C2220 1.404 . S
C2221 H2233 0.930 . S
C2222 C2218 1.524 . S
C2222 H2234 0.956 . S
C2222 H2235 0.961 . S
C2222 H2236 0.961 . S
C2223 C2220 1.539 . S
C2223 H2237 0.958 . S
C2223 H2238 0.961 . S
C2223 H2239 0.960 . S
H2224 C2208 0.931 . S
H2225 C2213 0.929 . S
H2226 C2214 0.960 . S
H2227 C2214 0.962 . S
H2228 C2214 0.960 . S
H2229 C2215 0.961 . S
H2230 C2215 0.961 . S
H2231 C2215 0.961 . S
H2232 C2216 0.931 . S
H2233 C2221 0.930 . S
H2234 C2222 0.956 . S
H2235 C2222 0.961 . S
H2236 C2222 0.961 . S
H2237 C2223 0.958 . S
H2238 C2223 0.961 . S
H2239 C2223 0.960 . S
C2240 C2241 1.391 . S
C2240 C2242 1.394 . S
C2240 H2256 0.931 . S
C2241 C2240 1.391 . S
C2241 C2245 1.376 . S
C2242 C2240 1.394 . S
C2242 C2243 1.369 . S
C2242 C2246 1.531 . S
C2243 C2242 1.369 . S
C2243 C2244 1.410 . S
C2243 C2251 1.503 . S
C2244 C2243 1.410 . S
C2244 C2245 1.392 . S
C2244 C2247 1.511 . S
C2245 C2241 1.376 . S
C2245 C2244 1.392 . S
C2245 H2257 0.929 . S
C2246 C2242 1.531 . S
C2246 H2258 0.960 . S
C2246 H2259 0.962 . S
C2246 H2260 0.960 . S
C2247 C2244 1.511 . S
C2247 H2261 0.961 . S
C2247 H2262 0.961 . S
C2247 H2263 0.961 . S
C2248 C2249 1.370 . S
C2248 C2250 1.363 . S
C2248 H2264 0.931 . S
C2249 C2248 1.370 . S
C2249 C2253 1.408 . S
C2250 C2248 1.363 . S
C2250 C2251 1.370 . S
C2250 C2254 1.524 . S
C2251 C2243 1.503 . S
C2251 C2250 1.370 . S
C2251 C2252 1.403 . S
C2252 C2251 1.403 . S
C2252 C2253 1.404 . S
C2252 C2255 1.539 . S
C2253 C2249 1.408 . S
C2253 C2252 1.404 . S
C2253 H2265 0.930 . S
C2254 C2250 1.524 . S
C2254 H2266 0.956 . S
C2254 H2267 0.961 . S
C2254 H2268 0.961 . S
C2255 C2252 1.539 . S
C2255 H2269 0.958 . S
C2255 H2270 0.961 . S
C2255 H2271 0.960 . S
H2256 C2240 0.931 . S
H2257 C2245 0.929 . S
H2258 C2246 0.960 . S
H2259 C2246 0.962 . S
H2260 C2246 0.960 . S
H2261 C2247 0.961 . S
H2262 C2247 0.961 . S
H2263 C2247 0.961 . S
H2264 C2248 0.931 . S
H2265 C2253 0.930 . S
H2266 C2254 0.956 . S
H2267 C2254 0.961 . S
H2268 C2254 0.961 . S
H2269 C2255 0.958 . S
H2270 C2255 0.961 . S
H2271 C2255 0.960 . S
C2272 C2273 1.391 . S
C2272 C2274 1.394 . S
C2272 H2288 0.931 . S
C2273 C2272 1.391 . S
C2273 C2277 1.376 . S
C2274 C2272 1.394 . S
C2274 C2275 1.369 . S
C2274 C2278 1.531 . S
C2275 C2274 1.369 . S
C2275 C2276 1.410 . S
C2275 C2283 1.503 . S
C2276 C2275 1.410 . S
C2276 C2277 1.392 . S
C2276 C2279 1.511 . S
C2277 C2273 1.376 . S
C2277 C2276 1.392 . S
C2277 H2289 0.929 . S
C2278 C2274 1.531 . S
C2278 H2290 0.960 . S
C2278 H2291 0.962 . S
C2278 H2292 0.960 . S
C2279 C2276 1.511 . S
C2279 H2293 0.961 . S
C2279 H2294 0.961 . S
C2279 H2295 0.961 . S
C2280 C2281 1.370 . S
C2280 C2282 1.363 . S
C2280 H2296 0.931 . S
C2281 C2280 1.370 . S
C2281 C2285 1.408 . S
C2282 C2280 1.363 . S
C2282 C2283 1.370 . S
C2282 C2286 1.524 . S
C2283 C2275 1.503 . S
C2283 C2282 1.370 . S
C2283 C2284 1.403 . S
C2284 C2283 1.403 . S
C2284 C2285 1.404 . S
C2284 C2287 1.539 . S
C2285 C2281 1.408 . S
C2285 C2284 1.404 . S
C2285 H2297 0.930 . S
C2286 C2282 1.524 . S
C2286 H2298 0.956 . S
C2286 H2299 0.961 . S
C2286 H2300 0.961 . S
C2287 C2284 1.539 . S
C2287 H2301 0.958 . S
C2287 H2302 0.961 . S
C2287 H2303 0.960 . S
H2288 C2272 0.931 . S
H2289 C2277 0.929 . S
H2290 C2278 0.960 . S
H2291 C2278 0.962 . S
H2292 C2278 0.960 . S
H2293 C2279 0.961 . S
H2294 C2279 0.961 . S
H2295 C2279 0.961 . S
H2296 C2280 0.931 . S
H2297 C2285 0.930 . S
H2298 C2286 0.956 . S
H2299 C2286 0.961 . S
H2300 C2286 0.961 . S
H2301 C2287 0.958 . S
H2302 C2287 0.961 . S
H2303 C2287 0.960 . S
C2304 C2305 1.391 . S
C2304 C2306 1.394 . S
C2304 H2320 0.931 . S
C2305 C2304 1.391 . S
C2305 C2309 1.376 . S
C2306 C2304 1.394 . S
C2306 C2307 1.369 . S
C2306 C2310 1.531 . S
C2307 C2306 1.369 . S
C2307 C2308 1.410 . S
C2307 C2315 1.503 . S
C2308 C2307 1.410 . S
C2308 C2309 1.392 . S
C2308 C2311 1.511 . S
C2309 C2305 1.376 . S
C2309 C2308 1.392 . S
C2309 H2321 0.929 . S
C2310 C2306 1.531 . S
C2310 H2322 0.960 . S
C2310 H2323 0.962 . S
C2310 H2324 0.960 . S
C2311 C2308 1.511 . S
C2311 H2325 0.961 . S
C2311 H2326 0.961 . S
C2311 H2327 0.961 . S
C2312 C2313 1.370 . S
C2312 C2314 1.363 . S
C2312 H2328 0.931 . S
C2313 C2312 1.370 . S
C2313 C2317 1.408 . S
C2314 C2312 1.363 . S
C2314 C2315 1.370 . S
C2314 C2318 1.524 . S
C2315 C2307 1.503 . S
C2315 C2314 1.370 . S
C2315 C2316 1.403 . S
C2316 C2315 1.403 . S
C2316 C2317 1.404 . S
C2316 C2319 1.539 . S
C2317 C2313 1.408 . S
C2317 C2316 1.404 . S
C2317 H2329 0.930 . S
C2318 C2314 1.524 . S
C2318 H2330 0.956 . S
C2318 H2331 0.961 . S
C2318 H2332 0.961 . S
C2319 C2316 1.539 . S
C2319 H2333 0.958 . S
C2319 H2334 0.961 . S
C2319 H2335 0.960 . S
H2320 C2304 0.931 . S
H2321 C2309 0.929 . S
H2322 C2310 0.960 . S
H2323 C2310 0.962 . S
H2324 C2310 0.960 . S
H2325 C2311 0.961 . S
H2326 C2311 0.961 . S
H2327 C2311 0.961 . S
H2328 C2312 0.931 . S
H2329 C2317 0.930 . S
H2330 C2318 0.956 . S
H2331 C2318 0.961 . S
H2332 C2318 0.961 . S
H2333 C2319 0.958 . S
H2334 C2319 0.961 . S
H2335 C2319 0.960 . S
C2336 C2337 1.391 . S
C2336 C2338 1.394 . S
C2336 H2352 0.931 . S
C2337 C2336 1.391 . S
C2337 C2341 1.376 . S
C2338 C2336 1.394 . S
C2338 C2339 1.369 . S
C2338 C2342 1.531 . S
C2339 C2338 1.369 . S
C2339 C2340 1.410 . S
C2339 C2347 1.503 . S
C2340 C2339 1.410 . S
C2340 C2341 1.392 . S
C2340 C2343 1.511 . S
C2341 C2337 1.376 . S
C2341 C2340 1.392 . S
C2341 H2353 0.929 . S
C2342 C2338 1.531 . S
C2342 H2354 0.960 . S
C2342 H2355 0.962 . S
C2342 H2356 0.960 . S
C2343 C2340 1.511 . S
C2343 H2357 0.961 . S
C2343 H2358 0.961 . S
C2343 H2359 0.961 . S
C2344 C2345 1.370 . S
C2344 C2346 1.363 . S
C2344 H2360 0.931 . S
C2345 C2344 1.370 . S
C2345 C2349 1.408 . S
C2346 C2344 1.363 . S
C2346 C2347 1.370 . S
C2346 C2350 1.524 . S
C2347 C2339 1.503 . S
C2347 C2346 1.370 . S
C2347 C2348 1.403 . S
C2348 C2347 1.403 . S
C2348 C2349 1.404 . S
C2348 C2351 1.539 . S
C2349 C2345 1.408 . S
C2349 C2348 1.404 . S
C2349 H2361 0.930 . S
C2350 C2346 1.524 . S
C2350 H2362 0.956 . S
C2350 H2363 0.961 . S
C2350 H2364 0.961 . S
C2351 C2348 1.539 . S
C2351 H2365 0.958 . S
C2351 H2366 0.961 . S
C2351 H2367 0.960 . S
H2352 C2336 0.931 . S
H2353 C2341 0.929 . S
H2354 C2342 0.960 . S
H2355 C2342 0.962 . S
H2356 C2342 0.960 . S
H2357 C2343 0.961 . S
H2358 C2343 0.961 . S
H2359 C2343 0.961 . S
H2360 C2344 0.931 . S
H2361 C2349 0.930 . S
H2362 C2350 0.956 . S
H2363 C2350 0.961 . S
H2364 C2350 0.961 . S
H2365 C2351 0.958 . S
H2366 C2351 0.961 . S
H2367 C2351 0.960 . S
C2368 C2369 1.391 . S
C2368 C2370 1.394 . S
C2368 H2384 0.931 . S
C2369 C2368 1.391 . S
C2369 C2373 1.376 . S
C2370 C2368 1.394 . S
C2370 C2371 1.369 . S
C2370 C2374 1.531 . S
C2371 C2370 1.369 . S
C2371 C2372 1.410 . S
C2371 C2379 1.503 . S
C2372 C2371 1.410 . S
C2372 C2373 1.392 . S
C2372 C2375 1.511 . S
C2373 C2369 1.376 . S
C2373 C2372 1.392 . S
C2373 H2385 0.929 . S
C2374 C2370 1.531 . S
C2374 H2386 0.960 . S
C2374 H2387 0.962 . S
C2374 H2388 0.960 . S
C2375 C2372 1.511 . S
C2375 H2389 0.961 . S
C2375 H2390 0.961 . S
C2375 H2391 0.961 . S
C2376 C2377 1.370 . S
C2376 C2378 1.363 . S
C2376 H2392 0.931 . S
C2377 C2376 1.370 . S
C2377 C2381 1.408 . S
C2378 C2376 1.363 . S
C2378 C2379 1.370 . S
C2378 C2382 1.524 . S
C2379 C2371 1.503 . S
C2379 C2378 1.370 . S
C2379 C2380 1.403 . S
C2380 C2379 1.403 . S
C2380 C2381 1.404 . S
C2380 C2383 1.539 . S
C2381 C2377 1.408 . S
C2381 C2380 1.404 . S
C2381 H2393 0.930 . S
C2382 C2378 1.524 . S
C2382 H2394 0.956 . S
C2382 H2395 0.961 . S
C2382 H2396 0.961 . S
C2383 C2380 1.539 . S
C2383 H2397 0.958 . S
C2383 H2398 0.961 . S
C2383 H2399 0.960 . S
H2384 C2368 0.931 . S
H2385 C2373 0.929 . S
H2386 C2374 0.960 . S
H2387 C2374 0.962 . S
H2388 C2374 0.960 . S
H2389 C2375 0.961 . S
H2390 C2375 0.961 . S
H2391 C2375 0.961 . S
H2392 C2376 0.931 . S
H2393 C2381 0.930 . S
H2394 C2382 0.956 . S
H2395 C2382 0.961 . S
H2396 C2382 0.961 . S
H2397 C2383 0.958 . S
H2398 C2383 0.961 . S
H2399 C2383 0.960 . S
C2400 C2401 1.391 . S
C2400 C2402 1.394 . S
C2400 H2416 0.931 . S
C2401 C2400 1.391 . S
C2401 C2405 1.376 . S
C2402 C2400 1.394 . S
C2402 C2403 1.369 . S
C2402 C2406 1.531 . S
C2403 C2402 1.369 . S
C2403 C2404 1.410 . S
C2403 C2411 1.503 . S
C2404 C2403 1.410 . S
C2404 C2405 1.392 . S
C2404 C2407 1.511 . S
C2405 C2401 1.376 . S
C2405 C2404 1.392 . S
C2405 H2417 0.929 . S
C2406 C2402 1.531 . S
C2406 H2418 0.960 . S
C2406 H2419 0.962 . S
C2406 H2420 0.960 . S
C2407 C2404 1.511 . S
C2407 H2421 0.961 . S
C2407 H2422 0.961 . S
C2407 H2423 0.961 . S
C2408 C2409 1.370 . S
C2408 C2410 1.363 . S
C2408 H2424 0.931 . S
C2409 C2408 1.370 . S
C2409 C2413 1.408 . S
C2410 C2408 1.363 . S
C2410 C2411 1.370 . S
C2410 C2414 1.524 . S
C2411 C2403 1.503 . S
C2411 C2410 1.370 . S
C2411 C2412 1.403 . S
C2412 C2411 1.403 . S
C2412 C2413 1.404 . S
C2412 C2415 1.539 . S
C2413 C2409 1.408 . S
C2413 C2412 1.404 . S
C2413 H2425 0.930 . S
C2414 C2410 1.524 . S
C2414 H2426 0.956 . S
C2414 H2427 0.961 . S
C2414 H2428 0.961 . S
C2415 C2412 1.539 . S
C2415 H2429 0.958 . S
C2415 H2430 0.961 . S
C2415 H2431 0.960 . S
H2416 C2400 0.931 . S
H2417 C2405 0.929 . S
H2418 C2406 0.960 . S
H2419 C2406 0.962 . S
H2420 C2406 0.960 . S
H2421 C2407 0.961 . S
H2422 C2407 0.961 . S
H2423 C2407 0.961 . S
H2424 C2408 0.931 . S
H2425 C2413 0.930 . S
H2426 C2414 0.956 . S
H2427 C2414 0.961 . S
H2428 C2414 0.961 . S
H2429 C2415 0.958 . S
H2430 C2415 0.961 . S
H2431 C2415 0.960 . S
C2432 C2433 1.391 . S
C2432 C2434 1.394 . S
C2432 H2448 0.931 . S
C2433 C2432 1.391 . S
C2433 C2437 1.376 . S
C2434 C2432 1.394 . S
C2434 C2435 1.369 . S
C2434 C2438 1.531 . S
C2435 C2434 1.369 . S
C2435 C2436 1.410 . S
C2435 C2443 1.503 . S
C2436 C2435 1.410 . S
C2436 C2437 1.392 . S
C2436 C2439 1.511 . S
C2437 C2433 1.376 . S
C2437 C2436 1.392 . S
C2437 H2449 0.929 . S
C2438 C2434 1.531 . S
C2438 H2450 0.960 . S
C2438 H2451 0.962 . S
C2438 H2452 0.960 . S
C2439 C2436 1.511 . S
C2439 H2453 0.961 . S
C2439 H2454 0.961 . S
C2439 H2455 0.961 . S
C2440 C2441 1.370 . S
C2440 C2442 1.363 . S
C2440 H2456 0.931 . S
C2441 C2440 1.370 . S
C2441 C2445 1.408 . S
C2442 C2440 1.363 . S
C2442 C2443 1.370 . S
C2442 C2446 1.524 . S
C2443 C2435 1.503 . S
C2443 C2442 1.370 . S
C2443 C2444 1.403 . S
C2444 C2443 1.403 . S
C2444 C2445 1.404 . S
C2444 C2447 1.539 . S
C2445 C2441 1.408 . S
C2445 C2444 1.404 . S
C2445 H2457 0.930 . S
C2446 C2442 1.524 . S
C2446 H2458 0.956 . S
C2446 H2459 0.961 . S
C2446 H2460 0.961 . S
C2447 C2444 1.539 . S
C2447 H2461 0.958 . S
C2447 H2462 0.961 . S
C2447 H2463 0.960 . S
H2448 C2432 0.931 . S
H2449 C2437 0.929 . S
H2450 C2438 0.960 . S
H2451 C2438 0.962 . S
H2452 C2438 0.960 . S
H2453 C2439 0.961 . S
H2454 C2439 0.961 . S
H2455 C2439 0.961 . S
H2456 C2440 0.931 . S
H2457 C2445 0.930 . S
H2458 C2446 0.956 . S
H2459 C2446 0.961 . S
H2460 C2446 0.961 . S
H2461 C2447 0.958 . S
H2462 C2447 0.961 . S
H2463 C2447 0.960 . S
C417 C382 1.676 . S
C425 C5 1.682 . S
C449 C18 1.683 . S
C457 C395 1.684 . S
C481 C408 1.686 . S
C489 C29 1.686 . S
C513 C367 1.679 . S
C521 C44 1.683 . S
C545 C57 1.682 . S
C553 C356 1.684 . S
C577 C317 1.685 . S
C585 C68 1.686 . S
C609 C83 1.681 . S
C617 C328 1.684 . S
C641 C343 1.672 . S
C649 C96 1.680 . S
C673 C109 1.671 . S
C681 C278 1.680 . S
C705 C120 1.672 . S
C713 C289 1.680 . S
C737 C304 1.677 . S
C745 C135 1.682 . S
C769 C148 1.672 . S
C777 C265 1.680 . S
C801 C250 1.674 . S
C809 C161 1.681 . S
C833 C213 1.680 . S
C841 C172 1.683 . S
C865 C187 1.684 . S
C873 C226 1.686 . S
C897 C200 1.686 . S
C905 C237 1.686 . S
C929 C3 1.373 . S
C937 C133 1.370 . S
C961 C146 1.357 . S
C969 C16 1.363 . S
C993 C107 1.353 . S
C1001 C31 1.362 . S
C1025 C122 1.368 . S
C1033 C42 1.369 . S
C1057 C55 1.370 . S
C1065 C185 1.368 . S
C1089 C198 1.356 . S
C1097 C70 1.362 . S
C1121 C159 1.371 . S
C1129 C81 1.369 . S
C1153 C174 1.357 . S
C1161 C94 1.364 . S
C1185 C211 1.373 . S
C1193 C341 1.370 . S
C1217 C354 1.356 . S
C1225 C224 1.362 . S
C1249 C315 1.358 . S
C1257 C239 1.363 . S
C1281 C252 1.354 . S
C1289 C330 1.362 . S
C1313 C263 1.354 . S
C1321 C393 1.363 . S
C1345 C406 1.355 . S
C1353 C276 1.362 . S
C1377 C369 1.372 . S
C1385 C291 1.369 . S
C1409 C302 1.355 . S
C1417 C380 1.362 . S
C1441 C4 1.662 . S
C1449 C56 1.655 . S
C1473 C17 1.671 . S
C1481 C75 1.654 . S
C1505 C82 1.653 . S
C1513 C36 1.663 . S
C1537 C43 1.658 . S
C1545 C95 1.657 . S
C1569 C108 1.672 . S
C1577 C160 1.656 . S
C1601 C179 1.648 . S
C1609 C127 1.666 . S
C1633 C186 1.672 . S
C1641 C134 1.654 . S
C1665 C147 1.672 . S
C1673 C199 1.655 . S
C1697 C212 1.644 . S
C1705 C264 1.666 . S
C1729 C277 1.664 . S
C1737 C225 1.658 . S
C1761 C244 1.642 . S
C1769 C296 1.666 . S
C1793 C303 1.672 . S
C1801 C257 1.654 . S
C1825 C374 1.639 . S
C1833 C316 1.664 . S
C1857 C335 1.667 . S
C1865 C381 1.659 . S
C1889 C342 1.639 . S
C1897 C394 1.666 . S
C1921 C355 1.646 . S
C1929 C407 1.666 . S
C1953 C10 1.414 . S
C1961 C69 1.414 . S
C1985 C23 1.398 . S
C1993 C88 1.407 . S
C2017 C101 1.399 . S
C2025 C30 1.411 . S
C2049 C62 1.410 . S
C2057 C49 1.414 . S
C2081 C173 1.413 . S
C2089 C114 1.410 . S
C2113 C192 1.405 . S
C2121 C121 1.413 . S
C2145 C205 1.399 . S
C2153 C140 1.407 . S
C2177 C153 1.401 . S
C2185 C166 1.407 . S
C2209 C218 1.415 . S
C2217 C283 1.410 . S
C2241 C290 1.407 . S
C2249 C231 1.414 . S
C2273 C309 1.398 . S
C2281 C238 1.407 . S
C2305 C251 1.402 . S
C2313 C270 1.406 . S
C2337 C387 1.410 . S
C2345 C322 1.409 . S
C2369 C329 1.405 . S
C2377 C400 1.413 . S
C2401 C348 1.414 . S
C2409 C413 1.411 . S
C2433 C368 1.400 . S
C2441 C361 1.406 . S
