# Generated by pormake.
# Topology uoz, (4)-cn, num edge types: 1
# Building blocks:
#     Node 0, Type 0, BuildingBlock: GALJAG_clean_sbu_0, # of connection points: 4
#     Node 1, Type 0, BuildingBlock: GALJAG_clean_sbu_0, # of connection points: 4
#     Node 2, Type 0, BuildingBlock: GALJAG_clean_sbu_0, # of connection points: 4
#     Node 3, Type 0, BuildingBlock: GALJAG_clean_sbu_0, # of connection points: 4
#     Node 4, Type 0, BuildingBlock: GALJAG_clean_sbu_0, # of connection points: 4
#     Node 5, Type 0, BuildingBlock: GALJAG_clean_sbu_0, # of connection points: 4
#     Node 6, Type 0, BuildingBlock: GALJAG_clean_sbu_0, # of connection points: 4
#     Node 7, Type 0, BuildingBlock: GALJAG_clean_sbu_0, # of connection points: 4
#     Node 8, Type 0, BuildingBlock: GALJAG_clean_sbu_0, # of connection points: 4
#     Node 9, Type 0, BuildingBlock: GALJAG_clean_sbu_0, # of connection points: 4
#     Node 10, Type 0, BuildingBlock: GALJAG_clean_sbu_0, # of connection points: 4
#     Node 11, Type 0, BuildingBlock: GALJAG_clean_sbu_0, # of connection points: 4
#     Node 12, Type 0, BuildingBlock: GALJAG_clean_sbu_0, # of connection points: 4
#     Node 13, Type 0, BuildingBlock: GALJAG_clean_sbu_0, # of connection points: 4
#     Node 14, Type 0, BuildingBlock: GALJAG_clean_sbu_0, # of connection points: 4
#     Node 15, Type 0, BuildingBlock: GALJAG_clean_sbu_0, # of connection points: 4
#     Edge 16, Type (0, 0), BuildingBlock: TEMPAE_clean_linker_10, # of connection points: 2
#     Edge 17, Type (0, 0), BuildingBlock: TEMPAE_clean_linker_10, # of connection points: 2
#     Edge 18, Type (0, 0), BuildingBlock: TEMPAE_clean_linker_10, # of connection points: 2
#     Edge 19, Type (0, 0), BuildingBlock: TEMPAE_clean_linker_10, # of connection points: 2
#     Edge 20, Type (0, 0), BuildingBlock: TEMPAE_clean_linker_10, # of connection points: 2
#     Edge 21, Type (0, 0), BuildingBlock: TEMPAE_clean_linker_10, # of connection points: 2
#     Edge 22, Type (0, 0), BuildingBlock: TEMPAE_clean_linker_10, # of connection points: 2
#     Edge 23, Type (0, 0), BuildingBlock: TEMPAE_clean_linker_10, # of connection points: 2
#     Edge 24, Type (0, 0), BuildingBlock: TEMPAE_clean_linker_10, # of connection points: 2
#     Edge 25, Type (0, 0), BuildingBlock: TEMPAE_clean_linker_10, # of connection points: 2
#     Edge 26, Type (0, 0), BuildingBlock: TEMPAE_clean_linker_10, # of connection points: 2
#     Edge 27, Type (0, 0), BuildingBlock: TEMPAE_clean_linker_10, # of connection points: 2
#     Edge 28, Type (0, 0), BuildingBlock: TEMPAE_clean_linker_10, # of connection points: 2
#     Edge 29, Type (0, 0), BuildingBlock: TEMPAE_clean_linker_10, # of connection points: 2
#     Edge 30, Type (0, 0), BuildingBlock: TEMPAE_clean_linker_10, # of connection points: 2
#     Edge 31, Type (0, 0), BuildingBlock: TEMPAE_clean_linker_10, # of connection points: 2
#     Edge 32, Type (0, 0), BuildingBlock: TEMPAE_clean_linker_10, # of connection points: 2
#     Edge 33, Type (0, 0), BuildingBlock: TEMPAE_clean_linker_10, # of connection points: 2
#     Edge 34, Type (0, 0), BuildingBlock: TEMPAE_clean_linker_10, # of connection points: 2
#     Edge 35, Type (0, 0), BuildingBlock: TEMPAE_clean_linker_10, # of connection points: 2
#     Edge 36, Type (0, 0), BuildingBlock: TEMPAE_clean_linker_10, # of connection points: 2
#     Edge 37, Type (0, 0), BuildingBlock: TEMPAE_clean_linker_10, # of connection points: 2
#     Edge 38, Type (0, 0), BuildingBlock: TEMPAE_clean_linker_10, # of connection points: 2
#     Edge 39, Type (0, 0), BuildingBlock: TEMPAE_clean_linker_10, # of connection points: 2
#     Edge 40, Type (0, 0), BuildingBlock: TEMPAE_clean_linker_10, # of connection points: 2
#     Edge 41, Type (0, 0), BuildingBlock: TEMPAE_clean_linker_10, # of connection points: 2
#     Edge 42, Type (0, 0), BuildingBlock: TEMPAE_clean_linker_10, # of connection points: 2
#     Edge 43, Type (0, 0), BuildingBlock: TEMPAE_clean_linker_10, # of connection points: 2
#     Edge 44, Type (0, 0), BuildingBlock: TEMPAE_clean_linker_10, # of connection points: 2
#     Edge 45, Type (0, 0), BuildingBlock: TEMPAE_clean_linker_10, # of connection points: 2
#     Edge 46, Type (0, 0), BuildingBlock: TEMPAE_clean_linker_10, # of connection points: 2
#     Edge 47, Type (0, 0), BuildingBlock: TEMPAE_clean_linker_10, # of connection points: 2
# Relax obj value: 0.135
# Max RMSD: 0.159
# Mean RMSD: 0.159
data_MOF--net-uoz--node1-GALJAG_clean_sbu_0--edge1-TEMPAE_clean_linker_10
_symmetry_space_group_name_H-M    P1
_symmetry_Int_Tables_number       1
_symmetry_cell_setting            triclinic
loop_
_symmetry_equiv_pos_as_xyz
'x, y, z'
_cell_length_a     64.702108
_cell_length_b     64.633018
_cell_length_c     19.177209
_cell_angle_alpha  90.02681
_cell_angle_beta   90.016773
_cell_angle_gamma 89.97831
loop_
_atom_site_label
_atom_site_type_symbol
_atom_site_fract_x
_atom_site_fract_y
_atom_site_fract_z
_atom_type_partial_charge
In0 In 0.99411 0.5868 0.26109 0.0
O1 O 0.98927 0.56219 0.17932 0.0
O2 O 0.01721 0.56134 0.23851 0.0
C3 C 0.96089 0.60938 0.2237 0.0
C4 C 0.98792 0.56528 0.38041 0.0
C5 C 0.02339 0.61385 0.21974 0.0
O6 O 0.96635 0.59312 0.19238 0.0
O7 O 0.97159 0.61377 0.27696 0.0
O8 O 0.01718 0.61333 0.2824 0.0
O9 O 0.01511 0.60069 0.18023 0.0
C10 C 0.00621 0.55315 0.19169 0.0
O11 O 0.00346 0.57689 0.37204 0.0
O12 O 0.97476 0.56635 0.33205 0.0
In13 In 0.66044 0.75056 0.52952 0.0
O14 O 0.67871 0.739 0.43622 0.0
O15 O 0.6881 0.76714 0.4844 0.0
C16 C 0.63902 0.71492 0.52327 0.0
C17 C 0.68467 0.75429 0.64436 0.0
C18 C 0.63235 0.77822 0.48243 0.0
O19 O 0.65659 0.71726 0.49596 0.0
O20 O 0.63267 0.73027 0.55835 0.0
O21 O 0.63464 0.7747 0.54689 0.0
O22 O 0.64413 0.76795 0.44337 0.0
C23 C 0.69134 0.75385 0.43765 0.0
O24 O 0.67747 0.76956 0.61158 0.0
O25 O 0.67784 0.73702 0.62409 0.0
In26 In 0.4966 0.41298 0.80274 0.0
O27 O 0.50149 0.43474 0.71222 0.0
O28 O 0.47531 0.43977 0.77789 0.0
C29 C 0.52955 0.38979 0.76586 0.0
C30 C 0.5037 0.43551 0.91998 0.0
C31 C 0.4661 0.38619 0.76888 0.0
O32 O 0.52467 0.40634 0.73513 0.0
O33 O 0.51826 0.38528 0.81747 0.0
O34 O 0.47545 0.38501 0.82676 0.0
O35 O 0.47182 0.40089 0.73058 0.0
C36 C 0.48572 0.44558 0.72578 0.0
O37 O 0.48751 0.42481 0.91215 0.0
O38 O 0.51684 0.43319 0.87215 0.0
In39 In 0.8389 0.25792 0.02908 0.0
O40 O 0.82121 0.26414 0.92986 0.0
O41 O 0.81202 0.23838 0.99224 0.0
C42 C 0.86345 0.29114 0.00833 0.0
C43 C 0.81291 0.26397 0.13838 0.0
C44 C 0.86458 0.22629 0.99728 0.0
O45 O 0.84684 0.28815 0.97555 0.0
O46 O 0.86747 0.27768 0.05419 0.0
O47 O 0.86377 0.23366 0.05847 0.0
O48 O 0.85264 0.23481 0.95425 0.0
C49 C 0.80893 0.24914 0.9383 0.0
O50 O 0.82462 0.24833 0.13496 0.0
O51 O 0.81586 0.27707 0.09088 0.0
In52 In 0.00497 0.4101 0.78908 0.0
O53 O 0.00749 0.42404 0.67763 0.0
O54 O 0.98802 0.43873 0.75105 0.0
C55 C 0.03422 0.38004 0.78467 0.0
C56 C 0.02025 0.43122 0.89768 0.0
C57 C 0.96985 0.39043 0.82435 0.0
O58 O 0.03853 0.39894 0.79074 0.0
O59 O 0.01535 0.37647 0.77406 0.0
O60 O 0.97819 0.40403 0.86235 0.0
O61 O 0.97884 0.38724 0.76667 0.0
C62 C 0.99575 0.43918 0.69098 0.0
O63 O 0.00617 0.41786 0.90438 0.0
O64 O 0.02674 0.43368 0.83623 0.0
In65 In 0.84402 0.75266 0.02552 0.0
O66 O 0.82504 0.7393 0.11417 0.0
O67 O 0.81844 0.76998 0.08077 0.0
C68 C 0.86474 0.71665 0.02799 0.0
C69 C 0.81899 0.75722 0.91278 0.0
C70 C 0.87332 0.77893 0.07305 0.0
O71 O 0.84716 0.71908 0.0553 0.0
O72 O 0.87145 0.73217 0.99456 0.0
O73 O 0.86912 0.77761 0.00871 0.0
O74 O 0.86284 0.76722 0.11164 0.0
C75 C 0.81404 0.75526 0.12109 0.0
O76 O 0.82441 0.77201 0.95135 0.0
O77 O 0.82798 0.74036 0.92613 0.0
In78 In 0.50031 0.59124 0.33204 0.0
O79 O 0.50034 0.57925 0.44283 0.0
O80 O 0.47465 0.57158 0.37887 0.0
C81 C 0.53723 0.60961 0.35048 0.0
C82 C 0.50674 0.56124 0.23486 0.0
C83 C 0.47352 0.62338 0.33739 0.0
O84 O 0.53019 0.59588 0.39074 0.0
O85 O 0.52611 0.61332 0.29751 0.0
O86 O 0.47052 0.60809 0.29751 0.0
O87 O 0.49019 0.6227 0.37098 0.0
C88 C 0.48332 0.56991 0.43745 0.0
O89 O 0.49812 0.57823 0.21938 0.0
O90 O 0.51283 0.56014 0.29706 0.0
In91 In 0.65628 0.25519 0.53619 0.0
O92 O 0.67053 0.24679 0.42907 0.0
O93 O 0.67892 0.27524 0.47564 0.0
C94 C 0.63061 0.22265 0.55719 0.0
C95 C 0.6857 0.24671 0.62932 0.0
C96 C 0.63214 0.28798 0.56853 0.0
O97 O 0.62815 0.23483 0.50626 0.0
O98 O 0.64601 0.22664 0.59472 0.0
O99 O 0.64825 0.28327 0.60181 0.0
O100 O 0.62838 0.27649 0.51669 0.0
C101 C 0.68201 0.26259 0.42687 0.0
O102 O 0.67217 0.2605 0.63951 0.0
O103 O 0.68411 0.23696 0.57246 0.0
In104 In 0.33941 0.25029 0.54359 0.0
O105 O 0.32492 0.26059 0.43868 0.0
O106 O 0.317 0.23117 0.47925 0.0
C107 C 0.36534 0.28166 0.57666 0.0
C108 C 0.30922 0.25809 0.63429 0.0
C109 C 0.36337 0.21672 0.56561 0.0
O110 O 0.36599 0.27307 0.51733 0.0
O111 O 0.35167 0.27468 0.61676 0.0
O112 O 0.34714 0.22045 0.59965 0.0
O113 O 0.36733 0.22966 0.51803 0.0
C114 C 0.31365 0.24467 0.43336 0.0
O115 O 0.32219 0.2437 0.64331 0.0
O116 O 0.31174 0.26878 0.57982 0.0
In117 In 0.15983 0.74429 0.04662 0.0
O118 O 0.1728 0.74047 0.93475 0.0
O119 O 0.18475 0.76447 0.99795 0.0
C120 C 0.13101 0.71381 0.04556 0.0
C121 C 0.18618 0.72945 0.14164 0.0
C122 C 0.13969 0.778 0.09476 0.0
O123 O 0.14912 0.71142 0.06768 0.0
O124 O 0.12758 0.73134 0.01905 0.0
O125 O 0.15446 0.7696 0.127 0.0
O126 O 0.13534 0.76973 0.03678 0.0
C127 C 0.18601 0.75473 0.94134 0.0
O128 O 0.1872 0.72461 0.07796 0.0
O129 O 0.17159 0.74158 0.15749 0.0
In130 In 0.15648 0.24344 0.03282 0.0
O131 O 0.17013 0.25436 0.1384 0.0
O132 O 0.18171 0.22685 0.09212 0.0
C133 C 0.12981 0.27242 0.98658 0.0
C134 C 0.18574 0.25277 0.9404 0.0
C135 C 0.13232 0.20952 0.02793 0.0
O136 O 0.13377 0.27059 0.05113 0.0
O137 O 0.139 0.25966 0.94787 0.0
O138 O 0.14861 0.21152 0.99254 0.0
O139 O 0.1286 0.22434 0.0692 0.0
C140 C 0.18348 0.24 0.14022 0.0
O141 O 0.17515 0.23638 0.93638 0.0
O142 O 0.18139 0.26452 0.99093 0.0
In143 In 0.33821 0.75648 0.52291 0.0
O144 O 0.32615 0.74785 0.63258 0.0
O145 O 0.31321 0.77389 0.58136 0.0
C146 C 0.3677 0.72878 0.48887 0.0
C147 C 0.30897 0.74244 0.43658 0.0
C148 C 0.35987 0.79164 0.50458 0.0
O149 O 0.36164 0.73092 0.55133 0.0
O150 O 0.35903 0.74057 0.44554 0.0
O151 O 0.34405 0.78711 0.46938 0.0
O152 O 0.36439 0.77878 0.55195 0.0
C153 C 0.31255 0.76194 0.63315 0.0
O154 O 0.3176 0.75979 0.42865 0.0
O155 O 0.31534 0.73199 0.48779 0.0
In156 In 0.49997 0.08975 0.77664 0.0
O157 O 0.50957 0.07869 0.88608 0.0
O158 O 0.47993 0.07023 0.84836 0.0
C159 C 0.52993 0.11652 0.73827 0.0
C160 C 0.51053 0.05604 0.70459 0.0
C161 C 0.46679 0.11289 0.74291 0.0
O162 O 0.52224 0.11686 0.79898 0.0
O163 O 0.52286 0.1026 0.69912 0.0
O164 O 0.47168 0.09662 0.7105 0.0
O165 O 0.4782 0.11711 0.79452 0.0
C166 C 0.49333 0.06816 0.89555 0.0
O167 O 0.49466 0.06664 0.69012 0.0
O168 O 0.52128 0.06274 0.75467 0.0
In169 In 0.00789 0.9064 0.29337 0.0
O170 O 0.00183 0.91932 0.40434 0.0
O171 O 0.02092 0.93643 0.33541 0.0
C172 C 0.98044 0.87574 0.27074 0.0
C173 C 0.99356 0.93014 0.1896 0.0
C174 C 0.04378 0.88535 0.28864 0.0
O175 O 0.97834 0.88827 0.32107 0.0
O176 O 0.99646 0.87841 0.23459 0.0
O177 O 0.0397 0.90034 0.24882 0.0
O178 O 0.03016 0.88166 0.33437 0.0
C179 C 0.01207 0.93572 0.39381 0.0
O180 O 0.01122 0.92185 0.18787 0.0
O181 O 0.9831 0.92626 0.24347 0.0
In182 In 0.50062 0.91227 0.30408 0.0
O183 O 0.50226 0.92567 0.19182 0.0
O184 O 0.4871 0.94303 0.27015 0.0
C185 C 0.52896 0.88135 0.29972 0.0
C186 C 0.51638 0.93184 0.41561 0.0
C187 C 0.46414 0.89379 0.32848 0.0
O188 O 0.53352 0.89991 0.28684 0.0
O189 O 0.50999 0.87825 0.30942 0.0
O190 O 0.47201 0.90696 0.3693 0.0
O191 O 0.47432 0.89052 0.27308 0.0
C192 C 0.49314 0.94231 0.20794 0.0
O193 O 0.50047 0.92063 0.41919 0.0
O194 O 0.52451 0.93279 0.35603 0.0
In195 In 0.99243 0.08635 0.81482 0.0
O196 O 0.99628 0.06798 0.91391 0.0
O197 O 0.97323 0.05812 0.84147 0.0
C198 C 0.02521 0.10906 0.85637 0.0
C199 C 0.00132 0.06239 0.70222 0.0
C200 C 0.96143 0.11405 0.83296 0.0
O201 O 0.01817 0.09406 0.89101 0.0
O202 O 0.01608 0.11232 0.79911 0.0
O203 O 0.97437 0.11579 0.78398 0.0
O204 O 0.96365 0.09809 0.8696 0.0
C205 C 0.98241 0.05497 0.89862 0.0
O206 O 0.98484 0.07283 0.70631 0.0
O207 O 0.0138 0.06555 0.75147 0.0
C208 C 0.09374 0.70365 0.05398 0.0
C209 C 0.11468 0.69841 0.06013 0.0
C210 C 0.07825 0.69021 0.07834 0.0
C211 C 0.0839 0.67111 0.1092 0.0
C212 C 0.105 0.66545 0.11305 0.0
C213 C 0.12011 0.67916 0.08854 0.0
C214 C 0.05589 0.69671 0.07299 0.0
C215 C 0.11166 0.64512 0.1448 0.0
C216 C 0.04735 0.6441 0.23537 0.0
C217 C 0.0388 0.62874 0.19266 0.0
C218 C 0.06182 0.65826 0.20859 0.0
C219 C 0.06784 0.65695 0.13761 0.0
C220 C 0.05913 0.64155 0.09432 0.0
C221 C 0.04474 0.62766 0.12233 0.0
C222 C 0.0708 0.67451 0.25632 0.0
C223 C 0.06519 0.63957 0.01853 0.0
H224 H 0.08947 0.71857 0.03258 0.0
H225 H 0.13629 0.67503 0.09348 0.0
H226 H 0.04683 0.68472 0.0451 0.0
H227 H 0.04919 0.69822 0.12601 0.0
H228 H 0.05402 0.71169 0.04529 0.0
H229 H 0.12865 0.64278 0.14194 0.0
H230 H 0.10689 0.64452 0.20033 0.0
H231 H 0.10394 0.63207 0.11772 0.0
H232 H 0.04274 0.64504 0.28961 0.0
H233 H 0.03817 0.61585 0.08885 0.0
H234 H 0.06809 0.69015 0.23428 0.0
H235 H 0.08778 0.67238 0.26046 0.0
H236 H 0.06405 0.67389 0.30952 0.0
H237 H 0.06237 0.65438 0.99093 0.0
H238 H 0.05652 0.62711 0.99137 0.0
H239 H 0.08196 0.63619 0.0144 0.0
C240 C 0.5656 0.87059 0.31967 0.0
C241 C 0.54465 0.86528 0.31452 0.0
C242 C 0.5802 0.85636 0.34499 0.0
C243 C 0.57367 0.83632 0.36523 0.0
C244 C 0.55268 0.83061 0.35729 0.0
C245 C 0.53842 0.84517 0.33216 0.0
C246 C 0.60246 0.863 0.35248 0.0
C247 C 0.54516 0.80932 0.37748 0.0
C248 C 0.61401 0.79393 0.38117 0.0
C249 C 0.61717 0.79306 0.45354 0.0
C250 C 0.59987 0.80788 0.35181 0.0
C251 C 0.58872 0.82144 0.39579 0.0
C252 C 0.59185 0.82068 0.46894 0.0
C253 C 0.60599 0.8064 0.49703 0.0
C254 C 0.59684 0.80806 0.27371 0.0
C255 C 0.58031 0.83499 0.51745 0.0
H256 H 0.57049 0.88615 0.30654 0.0
H257 H 0.52223 0.84099 0.32842 0.0
H258 H 0.60694 0.86273 0.40832 0.0
H259 H 0.61275 0.85203 0.32467 0.0
H260 H 0.60518 0.87881 0.33174 0.0
H261 H 0.52857 0.80698 0.36479 0.0
H262 H 0.55437 0.79729 0.35031 0.0
H263 H 0.54733 0.80696 0.43431 0.0
H264 H 0.62255 0.7836 0.3472 0.0
H265 H 0.60842 0.80581 0.55292 0.0
H266 H 0.60053 0.8236 0.25258 0.0
H267 H 0.58043 0.80484 0.26097 0.0
H268 H 0.60667 0.79644 0.24681 0.0
H269 H 0.58346 0.85133 0.50323 0.0
H270 H 0.58466 0.83262 0.57292 0.0
H271 H 0.56342 0.8325 0.51201 0.0
C272 C 0.44982 0.35098 0.77089 0.0
C273 C 0.45048 0.37116 0.74442 0.0
C274 C 0.43631 0.33618 0.74219 0.0
C275 C 0.42294 0.34189 0.6868 0.0
C276 C 0.42325 0.36241 0.66122 0.0
C277 C 0.43714 0.37671 0.68989 0.0
C278 C 0.43656 0.31438 0.77033 0.0
C279 C 0.40892 0.36927 0.60347 0.0
C280 C 0.3992 0.30053 0.56968 0.0
C281 C 0.37977 0.29792 0.60056 0.0
C282 C 0.41356 0.31465 0.59759 0.0
C283 C 0.40813 0.32663 0.65685 0.0
C284 C 0.38831 0.32437 0.68694 0.0
C285 C 0.37447 0.30995 0.65879 0.0
C286 C 0.43464 0.31651 0.56454 0.0
C287 C 0.38173 0.33714 0.74913 0.0
H288 H 0.46029 0.3466 0.81249 0.0
H289 H 0.43758 0.39234 0.66938 0.0
H290 H 0.4211 0.31029 0.79112 0.0
H291 H 0.44007 0.30332 0.72764 0.0
H292 H 0.44817 0.31231 0.81246 0.0
H293 H 0.4109 0.38588 0.59023 0.0
H294 H 0.41176 0.35993 0.55589 0.0
H295 H 0.39261 0.36666 0.61907 0.0
H296 H 0.4034 0.2911 0.52512 0.0
H297 H 0.35941 0.30803 0.68274 0.0
H298 H 0.44677 0.31293 0.60364 0.0
H299 H 0.43725 0.33263 0.54674 0.0
H300 H 0.43655 0.30594 0.5193 0.0
H301 H 0.39214 0.33404 0.79388 0.0
H302 H 0.3656 0.3338 0.76541 0.0
H303 H 0.38299 0.35386 0.73674 0.0
C304 C 0.89596 0.20393 0.01431 0.0
C305 C 0.8784 0.20923 0.97552 0.0
C306 C 0.90967 0.18856 0.99036 0.0
C307 C 0.90544 0.17808 0.92692 0.0
C308 C 0.88748 0.18314 0.88849 0.0
C309 C 0.8743 0.19874 0.91295 0.0
C310 C 0.9288 0.18373 0.03235 0.0
C311 C 0.88216 0.17207 0.82143 0.0
C312 C 0.94875 0.15065 0.82915 0.0
C313 C 0.94619 0.13019 0.85158 0.0
C314 C 0.93572 0.16647 0.85378 0.0
C315 C 0.91957 0.16159 0.90092 0.0
C316 C 0.91659 0.14083 0.92208 0.0
C317 C 0.93004 0.12543 0.89761 0.0
C318 C 0.93948 0.18846 0.83048 0.0
C319 C 0.89929 0.1349 0.97102 0.0
H320 H 0.89923 0.21211 0.06242 0.0
H321 H 0.86067 0.20271 0.8829 0.0
H322 H 0.92873 0.16722 0.04813 0.0
H323 H 0.94277 0.18622 -0.0001 0.0
H324 H 0.93002 0.19345 0.07995 0.0
H325 H 0.86739 0.17759 0.7985 0.0
H326 H 0.89466 0.17438 0.78261 0.0
H327 H 0.88092 0.15518 0.83098 0.0
H328 H 0.96137 0.15442 0.79424 0.0
H329 H 0.92801 0.10961 0.9151 0.0
H330 H 0.94244 0.19843 0.87654 0.0
H331 H 0.92553 0.19462 0.80402 0.0
H332 H 0.95281 0.18972 0.79427 0.0
H333 H 0.90116 0.14308 0.02149 0.0
H334 H 0.89881 0.11799 0.9812 0.0
H335 H 0.88421 0.13973 0.9488 0.0
C336 C 0.06967 0.36866 0.81922 0.0
C337 C 0.04915 0.36357 0.80308 0.0
C338 C 0.08311 0.35394 0.84834 0.0
C339 C 0.0758 0.3337 0.86206 0.0
C340 C 0.0553 0.32829 0.84371 0.0
C341 C 0.04224 0.34327 0.81415 0.0
C342 C 0.10496 0.36021 0.86614 0.0
C343 C 0.04695 0.30685 0.85733 0.0
C344 C 0.11475 0.29032 0.88358 0.0
C345 C 0.11592 0.28829 0.9564 0.0
C346 C 0.10187 0.30508 0.8524 0.0
C347 C 0.08967 0.31811 0.89495 0.0
C348 C 0.09073 0.31618 0.96857 0.0
C349 C 0.10394 0.30131 0.99853 0.0
C350 C 0.10134 0.30673 0.77382 0.0
C351 C 0.07784 0.32976 0.01557 0.0
H352 H 0.07507 0.38435 0.81108 0.0
H353 H 0.02635 0.33928 0.80236 0.0
H354 H 0.10745 0.35892 0.92321 0.0
H355 H 0.11612 0.34963 0.84048 0.0
H356 H 0.10847 0.37633 0.84985 0.0
H357 H 0.03079 0.30501 0.83879 0.0
H358 H 0.05676 0.29512 0.83109 0.0
H359 H 0.04744 0.30353 0.91407 0.0
H360 H 0.12404 0.28038 0.85053 0.0
H361 H 0.10478 0.29979 0.05475 0.0
H362 H 0.10568 0.32261 0.7575 0.0
H363 H 0.08544 0.30385 0.75453 0.0
H364 H 0.11198 0.29557 0.74821 0.0
H365 H 0.08161 0.34627 0.00617 0.0
H366 H 0.08035 0.32628 0.07166 0.0
H367 H 0.0612 0.32767 0.00339 0.0
C368 C 0.94379 0.8635 0.26547 0.0
C369 C 0.96472 0.86033 0.25029 0.0
C370 C 0.92854 0.85041 0.23734 0.0
C371 C 0.93449 0.83356 0.19443 0.0
C372 C 0.95571 0.82987 0.18141 0.0
C373 C 0.97053 0.84344 0.20884 0.0
C374 C 0.90606 0.85499 0.25164 0.0
C375 C 0.96274 0.81177 0.13753 0.0
C376 C 0.8968 0.78917 0.16989 0.0
C377 C 0.88921 0.79288 0.10249 0.0
C378 C 0.91154 0.80225 0.2003 0.0
C379 C 0.91861 0.81974 0.16298 0.0
C380 C 0.9109 0.82367 0.09501 0.0
C381 C 0.89642 0.81003 0.0652 0.0
C382 C 0.91972 0.79722 0.27213 0.0
C383 C 0.91786 0.84234 0.05401 0.0
H384 H 0.93926 0.87672 0.29678 0.0
H385 H 0.98674 0.84095 0.19714 0.0
H386 H 0.89791 0.8581 0.20181 0.0
H387 H 0.89853 0.84137 0.27588 0.0
H388 H 0.90401 0.86854 0.28662 0.0
H389 H 0.97985 0.81048 0.1353 0.0
H390 H 0.95639 0.79713 0.15881 0.0
H391 H 0.95678 0.81344 0.0836 0.0
H392 H 0.89134 0.77584 0.19883 0.0
H393 H 0.89048 0.81301 0.01331 0.0
H394 H 0.91654 0.81022 0.30833 0.0
H395 H 0.93674 0.79518 0.27004 0.0
H396 H 0.91273 0.78293 0.29397 0.0
H397 H 0.91491 0.85664 0.08446 0.0
H398 H 0.90984 0.84362 0.00296 0.0
H399 H 0.93475 0.84149 0.04452 0.0
C400 C 0.39193 0.71508 0.39918 0.0
C401 C 0.38344 0.71356 0.46632 0.0
C402 C 0.40644 0.70064 0.37504 0.0
C403 C 0.41245 0.68408 0.41875 0.0
C404 C 0.40389 0.6824 0.4866 0.0
C405 C 0.38957 0.69728 0.50983 0.0
C406 C 0.41545 0.70321 0.30289 0.0
C407 C 0.40982 0.66484 0.53449 0.0
C408 C 0.43714 0.63665 0.33511 0.0
C409 C 0.45805 0.63975 0.35081 0.0
C410 C 0.42207 0.65097 0.35677 0.0
C411 C 0.42817 0.66891 0.39407 0.0
C412 C 0.44937 0.67243 0.40776 0.0
C413 C 0.46402 0.65775 0.38637 0.0
C414 C 0.3996 0.64665 0.34153 0.0
C415 C 0.45656 0.69153 0.44616 0.0
H416 H 0.38731 0.72768 0.36532 0.0
H417 H 0.38295 0.69598 0.56156 0.0
H418 H 0.43249 0.70484 0.30631 0.0
H419 H 0.41223 0.68925 0.27102 0.0
H420 H 0.40911 0.71694 0.27538 0.0
H421 H 0.40133 0.66539 0.58481 0.0
H422 H 0.4066 0.6498 0.50876 0.0
H423 H 0.42664 0.66539 0.54545 0.0
H424 H 0.43245 0.62264 0.30827 0.0
H425 H 0.48019 0.66023 0.39857 0.0
H426 H 0.39272 0.6597 0.312 0.0
H427 H 0.39091 0.64527 0.39119 0.0
H428 H 0.39743 0.63219 0.31104 0.0
H429 H 0.45098 0.70564 0.41911 0.0
H430 H 0.47367 0.69233 0.45033 0.0
H431 H 0.44994 0.69172 0.49951 0.0
C432 C 0.5955 0.20626 0.55369 0.0
C433 C 0.61609 0.20594 0.57622 0.0
C434 C 0.58116 0.19176 0.57926 0.0
C435 C 0.58771 0.17648 0.6275 0.0
C436 C 0.60867 0.17572 0.64839 0.0
C437 C 0.62254 0.19053 0.6229 0.0
C438 C 0.55889 0.19313 0.55619 0.0
C439 C 0.61639 0.15944 0.69857 0.0
C440 C 0.54885 0.15028 0.74766 0.0
C441 C 0.54527 0.13164 0.7124 0.0
C442 C 0.56239 0.1652 0.72004 0.0
C443 C 0.57276 0.1612 0.6563 0.0
C444 C 0.56939 0.14226 0.62115 0.0
C445 C 0.5556 0.12779 0.64939 0.0
C446 C 0.5655 0.1853 0.75875 0.0
C447 C 0.58042 0.13722 0.55381 0.0
H448 H 0.59044 0.21828 0.51816 0.0
H449 H 0.63848 0.19021 0.64031 0.0
H450 H 0.55397 0.17826 0.53253 0.0
H451 H 0.54883 0.19592 0.60208 0.0
H452 H 0.55633 0.20572 0.51773 0.0
H453 H 0.63332 0.16054 0.70757 0.0
H454 H 0.60839 0.16108 0.74943 0.0
H455 H 0.6128 0.14377 0.6783 0.0
H456 H 0.54076 0.15338 0.79604 0.0
H457 H 0.55291 0.11337 0.62194 0.0
H458 H 0.56162 0.19853 0.72429 0.0
H459 H 0.58197 0.18699 0.7738 0.0
H460 H 0.55586 0.18628 0.80656 0.0
H461 H 0.57678 0.14908 0.51384 0.0
H462 H 0.57607 0.12178 0.53299 0.0
H463 H 0.59738 0.13753 0.56216 0.0
C464 C 0.94685 0.35949 0.81491 0.0
C465 C 0.95224 0.37785 0.8492 0.0
C466 C 0.93175 0.34623 0.84262 0.0
C467 C 0.92166 0.35161 0.90565 0.0
C468 C 0.92654 0.3705 0.93915 0.0
C469 C 0.94187 0.38334 0.91073 0.0
C470 C 0.92703 0.32617 0.80552 0.0
C471 C 0.91591 0.37693 0.0058 0.0
C472 C 0.87133 0.32357 0.94312 0.0
C473 C 0.87784 0.30794 0.98887 0.0
C474 C 0.88529 0.3383 0.91736 0.0
C475 C 0.90633 0.33722 0.93717 0.0
C476 C 0.91287 0.32185 0.98505 0.0
C477 C 0.8985 0.30745 0.01069 0.0
C478 C 0.87764 0.35464 0.86732 0.0
C479 C 0.93521 0.32014 0.00714 0.0
H480 H 0.95491 0.35513 0.76758 0.0
H481 H 0.94597 0.39755 0.9374 0.0
H482 H 0.93077 0.31291 0.84007 0.0
H483 H 0.9103 0.32523 0.79327 0.0
H484 H 0.93591 0.32447 0.75628 0.0
H485 H 0.92066 0.39262 0.02324 0.0
H486 H 0.89889 0.37678 0.9986 0.0
H487 H 0.91958 0.36573 0.04782 0.0
H488 H 0.85534 0.32405 0.92626 0.0
H489 H 0.90362 0.29533 0.04574 0.0
H490 H 0.88484 0.35228 0.81542 0.0
H491 H 0.88224 0.37024 0.88573 0.0
H492 H 0.86058 0.35427 0.86106 0.0
H493 H 0.94497 0.31663 0.96105 0.0
H494 H 0.93764 0.30786 0.04681 0.0
H495 H 0.94064 0.33509 0.0289 0.0
C496 C 0.43783 0.12105 0.66122 0.0
C497 C 0.4501 0.12674 0.71841 0.0
C498 C 0.42305 0.13468 0.6336 0.0
C499 C 0.42057 0.15452 0.6637 0.0
C500 C 0.43267 0.16022 0.72221 0.0
C501 C 0.44726 0.14623 0.749 0.0
C502 C 0.4103 0.12797 0.57161 0.0
C503 C 0.43047 0.18125 0.75575 0.0
C504 C 0.39738 0.19839 0.55717 0.0
C505 C 0.37738 0.19956 0.58487 0.0
C506 C 0.4115 0.1835 0.58131 0.0
C507 C 0.40538 0.1694 0.63398 0.0
C508 C 0.38495 0.17004 0.66018 0.0
C509 C 0.37123 0.18515 0.63547 0.0
C510 C 0.43317 0.18329 0.55214 0.0
C511 C 0.37777 0.15516 0.71582 0.0
H512 H 0.43996 0.10599 0.63731 0.0
H513 H 0.45676 0.15075 0.793 0.0
H514 H 0.3936 0.12923 0.58394 0.0
H515 H 0.41338 0.13834 0.52674 0.0
H516 H 0.41369 0.1118 0.5556 0.0
H517 H 0.44088 0.18321 0.80135 0.0
H518 H 0.43402 0.19351 0.71709 0.0
H519 H 0.41429 0.18365 0.77314 0.0
H520 H 0.40222 0.20953 0.51823 0.0
H521 H 0.35575 0.18595 0.65694 0.0
H522 H 0.43705 0.16764 0.53226 0.0
H523 H 0.44439 0.18696 0.59414 0.0
H524 H 0.43521 0.19464 0.5092 0.0
H525 H 0.3807 0.13898 0.69925 0.0
H526 H 0.36105 0.1569 0.72763 0.0
H527 H 0.38666 0.1578 0.7645 0.0
C528 C 0.56634 0.61762 0.43139 0.0
C529 C 0.55525 0.6224 0.37056 0.0
C530 C 0.58121 0.63125 0.45825 0.0
C531 C 0.58511 0.65014 0.42346 0.0
C532 C 0.57467 0.65462 0.36023 0.0
C533 C 0.55986 0.64066 0.33446 0.0
C534 C 0.59211 0.62583 0.52546 0.0
C535 C 0.57852 0.67455 0.32134 0.0
C536 C 0.60502 0.69644 0.52587 0.0
C537 C 0.62587 0.69688 0.50616 0.0
C538 C 0.59169 0.68099 0.50065 0.0
C539 C 0.59941 0.66564 0.4547 0.0
C540 C 0.62063 0.66552 0.43702 0.0
C541 C 0.6336 0.68113 0.46298 0.0
C542 C 0.56916 0.68154 0.52116 0.0
C543 C 0.62949 0.64937 0.38855 0.0
H544 H 0.56287 0.6035 0.45957 0.0
H545 H 0.5513 0.64448 0.28761 0.0
H546 H 0.60909 0.62723 0.519 0.0
H547 H 0.58745 0.63687 0.56692 0.0
H548 H 0.58847 0.60989 0.54328 0.0
H549 H 0.5701 0.67515 0.27089 0.0
H550 H 0.57352 0.68786 0.35381 0.0
H551 H 0.59528 0.67648 0.31105 0.0
H552 H 0.59894 0.7086 0.55898 0.0
H553 H 0.64971 0.68137 0.44746 0.0
H554 H 0.56446 0.66642 0.54342 0.0
H555 H 0.55949 0.68427 0.47426 0.0
H556 H 0.56581 0.69386 0.55995 0.0
H557 H 0.62562 0.63363 0.40747 0.0
H558 H 0.64655 0.65064 0.38353 0.0
H559 H 0.62251 0.65107 0.33601 0.0
C560 C 0.10877 0.80122 0.09548 0.0
C561 C 0.12764 0.79525 0.12515 0.0
C562 C 0.09645 0.8165 0.12689 0.0
C563 C 0.1033 0.82621 0.18903 0.0
C564 C 0.12257 0.82059 0.21831 0.0
C565 C 0.13446 0.80508 0.18624 0.0
C566 C 0.07592 0.82198 0.09426 0.0
C567 C 0.13053 0.83079 0.28388 0.0
C568 C 0.07685 0.87736 0.22758 0.0
C569 C 0.06128 0.87127 0.27409 0.0
C570 C 0.09137 0.86306 0.20232 0.0
C571 C 0.09009 0.84211 0.22334 0.0
C572 C 0.07509 0.83612 0.27325 0.0
C573 C 0.06093 0.85083 0.29843 0.0
C574 C 0.10736 0.87017 0.15025 0.0
C575 C 0.07316 0.81392 0.29678 0.0
H576 H 0.10338 0.7936 0.0485 0.0
H577 H 0.14906 0.80054 0.20937 0.0
H578 H 0.06325 0.81897 0.13191 0.0
H579 H 0.0755 0.8387 0.0814 0.0
H580 H 0.07285 0.813 0.04594 0.0
H581 H 0.14618 0.8252 0.29853 0.0
H582 H 0.13114 0.84781 0.27678 0.0
H583 H 0.11981 0.82767 0.32777 0.0
H584 H 0.07722 0.89317 0.20878 0.0
H585 H 0.04884 0.84601 0.33402 0.0
H586 H 0.10382 0.8635 0.09829 0.0
H587 H 0.12294 0.86461 0.16553 0.0
H588 H 0.1078 0.88729 0.14537 0.0
H589 H 0.06803 0.8042 0.25231 0.0
H590 H 0.06189 0.81211 0.34005 0.0
H591 H 0.08837 0.8079 0.31413 0.0
C592 C 0.93517 0.61844 0.13154 0.0
C593 C 0.9448 0.62328 0.1951 0.0
C594 C 0.92153 0.63239 0.09945 0.0
C595 C 0.91734 0.6516 0.13185 0.0
C596 C 0.92658 0.65634 0.19695 0.0
C597 C 0.94024 0.64213 0.22776 0.0
C598 C 0.91199 0.62677 0.03012 0.0
C599 C 0.92234 0.67662 0.23343 0.0
C600 C 0.8986 0.69784 0.02681 0.0
C601 C 0.87757 0.69831 0.04428 0.0
C602 C 0.91163 0.68226 0.05296 0.0
C603 C 0.9034 0.66686 0.09764 0.0
C604 C 0.88199 0.66669 0.11246 0.0
C605 C 0.86934 0.68239 0.0855 0.0
C606 C 0.93436 0.68283 0.03538 0.0
C607 C 0.8726 0.65051 0.15959 0.0
H608 H 0.93869 0.60392 0.10584 0.0
H609 H 0.94768 0.64597 0.27673 0.0
H610 H 0.8949 0.6277 0.0334 0.0
H611 H 0.917 0.63798 0.98974 0.0
H612 H 0.91635 0.61095 0.01283 0.0
H613 H 0.93032 0.67771 0.28461 0.0
H614 H 0.92753 0.68966 0.20018 0.0
H615 H 0.90549 0.67852 0.2419 0.0
H616 H 0.90506 0.71013 0.99516 0.0
H617 H 0.85308 0.68263 0.09918 0.0
H618 H 0.9395 0.66755 0.0155 0.0
H619 H 0.94343 0.68615 0.08322 0.0
H620 H 0.93803 0.69481 0.99575 0.0
H621 H 0.87688 0.63477 0.14159 0.0
H622 H 0.85548 0.65163 0.16177 0.0
H623 H 0.87878 0.65237 0.21321 0.0
C624 C 0.04734 0.1407 0.84856 0.0
C625 C 0.04197 0.12242 0.8833 0.0
C626 C 0.06233 0.15412 0.87614 0.0
C627 C 0.07227 0.14904 0.93974 0.0
C628 C 0.06712 0.13043 0.97448 0.0
C629 C 0.05199 0.11737 0.94594 0.0
C630 C 0.06737 0.17385 0.83761 0.0
C631 C 0.07751 0.1244 0.04201 0.0
C632 C 0.12351 0.17593 0.97145 0.0
C633 C 0.11762 0.19247 0.01445 0.0
C634 C 0.10905 0.16122 0.94889 0.0
C635 C 0.08814 0.16319 0.96942 0.0
C636 C 0.08226 0.17934 0.01534 0.0
C637 C 0.09711 0.19376 0.03758 0.0
C638 C 0.116 0.14409 0.90072 0.0
C639 C 0.0601 0.18194 0.03835 0.0
H640 H 0.03957 0.14472 0.80033 0.0
H641 H 0.0479 0.10325 0.97307 0.0
H642 H 0.06429 0.1874 0.87162 0.0
H643 H 0.08403 0.17418 0.82406 0.0
H644 H 0.05822 0.17557 0.78892 0.0
H645 H 0.07198 0.10924 0.06194 0.0
H646 H 0.09449 0.12355 0.0345 0.0
H647 H 0.07455 0.13636 0.08229 0.0
H648 H 0.13937 0.17482 0.95357 0.0
H649 H 0.09246 0.20658 0.07053 0.0
H650 H 0.1088 0.14618 0.84867 0.0
H651 H 0.11086 0.12886 0.92094 0.0
H652 H 0.13305 0.14375 0.89418 0.0
H653 H 0.05031 0.18574 0.99257 0.0
H654 H 0.05831 0.19442 0.07777 0.0
H655 H 0.05416 0.16728 0.06069 0.0
C656 C 0.62424 0.31775 0.64701 0.0
C657 C 0.61812 0.30462 0.5925 0.0
C658 C 0.61059 0.33242 0.67509 0.0
C659 C 0.59026 0.33391 0.64841 0.0
C660 C 0.58412 0.32103 0.59228 0.0
C661 C 0.59817 0.30657 0.56476 0.0
C662 C 0.61781 0.34603 0.73435 0.0
C663 C 0.56253 0.32211 0.56259 0.0
C664 C 0.54841 0.35598 0.76628 0.0
C665 C 0.54606 0.37601 0.73942 0.0
C666 C 0.5628 0.34215 0.73731 0.0
C667 C 0.57524 0.34857 0.68052 0.0
C668 C 0.57327 0.36894 0.6543 0.0
C669 C 0.55865 0.38239 0.68389 0.0
C670 C 0.56441 0.32052 0.76661 0.0
C671 C 0.5864 0.37645 0.59436 0.0
H672 H 0.63966 0.31634 0.6686 0.0
H673 H 0.59334 0.2964 0.52286 0.0
H674 H 0.61538 0.36256 0.72111 0.0
H675 H 0.60856 0.34273 0.78177 0.0
H676 H 0.63441 0.34363 0.74682 0.0
H677 H 0.56038 0.31149 0.51762 0.0
H678 H 0.55113 0.31803 0.60355 0.0
H679 H 0.55903 0.33812 0.54541 0.0
H680 H 0.53865 0.35093 0.80892 0.0
H681 H 0.5569 0.39786 0.66289 0.0
H682 H 0.58046 0.31746 0.78417 0.0
H683 H 0.56075 0.30905 0.72538 0.0
H684 H 0.55378 0.31801 0.81129 0.0
H685 H 0.60303 0.37461 0.60718 0.0
H686 H 0.58342 0.39293 0.58147 0.0
H687 H 0.58331 0.36694 0.54733 0.0
C688 C 0.36632 0.82392 0.43669 0.0
C689 C 0.37323 0.80931 0.48555 0.0
C690 C 0.37963 0.83923 0.41076 0.0
C691 C 0.40041 0.83979 0.43366 0.0
C692 C 0.40727 0.82553 0.4848 0.0
C693 C 0.39355 0.81052 0.51047 0.0
C694 C 0.37163 0.85436 0.35717 0.0
C695 C 0.42935 0.82558 0.51033 0.0
C696 C 0.44179 0.8625 0.31582 0.0
C697 C 0.44599 0.88134 0.3491 0.0
C698 C 0.42663 0.84902 0.34191 0.0
C699 C 0.41524 0.85468 0.4021 0.0
C700 C 0.41871 0.87415 0.43373 0.0
C701 C 0.43416 0.88719 0.40714 0.0
C702 C 0.42344 0.82834 0.30687 0.0
C703 C 0.40663 0.88091 0.49713 0.0
H704 H 0.35059 0.82308 0.41737 0.0
H705 H 0.39899 0.7992 0.54792 0.0
H706 H 0.37515 0.87045 0.37338 0.0
H707 H 0.37951 0.85167 0.3066 0.0
H708 H 0.35469 0.8529 0.34902 0.0
H709 H 0.43203 0.814 0.55215 0.0
H710 H 0.43993 0.82214 0.46627 0.0
H711 H 0.43351 0.84111 0.53055 0.0
H712 H 0.45098 0.85786 0.27122 0.0
H713 H 0.43732 0.90178 0.43293 0.0
H714 H 0.40693 0.82625 0.29305 0.0
H715 H 0.42765 0.81572 0.34347 0.0
H716 H 0.43288 0.82666 0.25883 0.0
H717 H 0.3898 0.87931 0.48746 0.0
H718 H 0.40995 0.89719 0.51189 0.0
H719 H 0.41053 0.87079 0.54196 0.0
C720 C 0.02971 0.52288 0.17688 0.0
C721 C 0.01244 0.53425 0.15483 0.0
C722 C 0.03528 0.50445 0.14312 0.0
C723 C 0.02328 0.49748 0.08617 0.0
C724 C 0.00599 0.50909 0.06329 0.0
C725 C 0.00076 0.52732 0.09813 0.0
C726 C 0.05369 0.49232 0.16894 0.0
C727 C 0.99289 0.50221 0.00224 0.0
C728 C 0.03899 0.46217 0.94091 0.0
C729 C 0.02617 0.4452 0.95469 0.0
C730 C 0.04018 0.47867 0.98794 0.0
C731 C 0.02831 0.47797 0.04979 0.0
C732 C 0.01754 0.45971 0.06793 0.0
C733 C 0.01656 0.44346 0.01982 0.0
C734 C 0.05208 0.4978 0.96727 0.0
C735 C 0.00502 0.45825 0.13417 0.0
H736 H 0.03871 0.52822 0.22105 0.0
H737 H 0.98744 0.53614 0.08095 0.0
H738 H 0.04847 0.47722 0.18997 0.0
H739 H 0.06445 0.48899 0.12531 0.0
H740 H 0.06228 0.50066 0.21053 0.0
H741 H 0.98019 0.51326 0.99056 0.0
H742 H 0.00262 0.50057 0.95493 0.0
H743 H 0.98597 0.48686 0.01332 0.0
H744 H 0.04677 0.46337 0.89099 0.0
H745 H 0.00694 0.43014 0.03112 0.0
H746 H 0.06004 0.50472 0.01288 0.0
H747 H 0.04116 0.50952 0.94651 0.0
H748 H 0.06372 0.49439 0.92626 0.0
H749 H 0.01339 0.46535 0.17862 0.0
H750 H 0.00126 0.44195 0.14742 0.0
H751 H 0.9903 0.46683 0.12728 0.0
C752 C 0.78125 0.77123 0.1607 0.0
C753 C 0.79668 0.75629 0.16993 0.0
C754 C 0.76388 0.77159 0.20404 0.0
C755 C 0.76224 0.7569 0.25833 0.0
C756 C 0.77806 0.74212 0.269 0.0
C757 C 0.79508 0.74187 0.22405 0.0
C758 C 0.74709 0.78735 0.19074 0.0
C759 C 0.77689 0.72646 0.3273 0.0
C760 C 0.7257 0.7681 0.40704 0.0
C761 C 0.70903 0.75521 0.3903 0.0
C762 C 0.74319 0.76884 0.36435 0.0
C763 C 0.74373 0.75666 0.30314 0.0
C764 C 0.72673 0.74395 0.28522 0.0
C765 C 0.70959 0.74323 0.32958 0.0
C766 C 0.76123 0.78231 0.38539 0.0
C767 C 0.72674 0.73102 0.21957 0.0
H768 H 0.78247 0.78228 0.11839 0.0
H769 H 0.80711 0.73038 0.23118 0.0
H770 H 0.73234 0.77934 0.17876 0.0
H771 H 0.74447 0.79684 0.23814 0.0
H772 H 0.7509 0.79784 0.14671 0.0
H773 H 0.79097 0.71665 0.33034 0.0
H774 H 0.77479 0.73445 0.37802 0.0
H775 H 0.7633 0.71625 0.31954 0.0
H776 H 0.72528 0.77726 0.45443 0.0
H777 H 0.69661 0.73333 0.31667 0.0
H778 H 0.76466 0.79366 0.3436 0.0
H779 H 0.77525 0.77263 0.39239 0.0
H780 H 0.75826 0.79087 0.43463 0.0
H781 H 0.72953 0.741 0.17347 0.0
H782 H 0.71193 0.72263 0.21191 0.0
H783 H 0.73946 0.71954 0.22166 0.0
C784 C 0.48646 0.55446 0.55519 0.0
C785 C 0.47609 0.55546 0.49122 0.0
C786 C 0.48367 0.53756 0.59965 0.0
C787 C 0.47026 0.52138 0.57908 0.0
C788 C 0.458 0.5235 0.51845 0.0
C789 C 0.46105 0.54064 0.47501 0.0
C790 C 0.49677 0.536 0.66463 0.0
C791 C 0.4433 0.50669 0.49555 0.0
C792 C 0.49156 0.46888 0.62509 0.0
C793 C 0.48027 0.46403 0.68503 0.0
C794 C 0.48777 0.48717 0.58854 0.0
C795 C 0.47233 0.50094 0.61287 0.0
C796 C 0.46027 0.49575 0.67174 0.0
C797 C 0.46441 0.47727 0.70734 0.0
C798 C 0.50086 0.49212 0.52541 0.0
C799 C 0.44366 0.51005 0.69878 0.0
H800 H 0.49785 0.56614 0.56833 0.0
H801 H 0.45281 0.54153 0.42585 0.0
H802 H 0.4875 0.53027 0.70924 0.0
H803 H 0.50947 0.52476 0.6556 0.0
H804 H 0.50373 0.55112 0.67904 0.0
H805 H 0.43196 0.51246 0.4566 0.0
H806 H 0.45223 0.4939 0.47138 0.0
H807 H 0.43478 0.50019 0.5407 0.0
H808 H 0.50371 0.45856 0.60747 0.0
H809 H 0.4556 0.47348 0.75369 0.0
H810 H 0.51033 0.50609 0.53585 0.0
H811 H 0.49085 0.49556 0.47989 0.0
H812 H 0.51141 0.47921 0.51127 0.0
H813 H 0.45095 0.52369 0.72381 0.0
H814 H 0.43359 0.50233 0.73783 0.0
H815 H 0.43389 0.51583 0.65541 0.0
C816 C 0.7893 0.25734 0.83069 0.0
C817 C 0.79173 0.2451 0.8903 0.0
C818 C 0.772 0.25503 0.78778 0.0
C819 C 0.75685 0.24014 0.80524 0.0
C820 C 0.75964 0.22712 0.86369 0.0
C821 C 0.77713 0.22976 0.90574 0.0
C822 C 0.76953 0.26912 0.72546 0.0
C823 C 0.74376 0.21104 0.88344 0.0
C824 C 0.70374 0.25437 0.74055 0.0
C825 C 0.70268 0.24302 0.6785 0.0
C826 C 0.72095 0.25276 0.78429 0.0
C827 C 0.73739 0.23948 0.76517 0.0
C828 C 0.73593 0.22716 0.70445 0.0
C829 C 0.71851 0.22908 0.66163 0.0
C830 C 0.72199 0.26606 0.84901 0.0
C831 C 0.75318 0.21278 0.68288 0.0
H832 H 0.80067 0.26912 0.81848 0.0
H833 H 0.77905 0.22023 0.95178 0.0
H834 H 0.76657 0.25989 0.67772 0.0
H835 H 0.756 0.27941 0.7334 0.0
H836 H 0.78339 0.27891 0.71657 0.0
H837 H 0.74927 0.20078 0.92602 0.0
H838 H 0.72939 0.21883 0.90098 0.0
H839 H 0.73971 0.20138 0.83761 0.0
H840 H 0.69142 0.26504 0.75389 0.0
H841 H 0.71764 0.2202 0.61375 0.0
H842 H 0.73436 0.27781 0.84292 0.0
H843 H 0.72596 0.2565 0.89514 0.0
H844 H 0.70719 0.27421 0.85944 0.0
H845 H 0.76677 0.22201 0.66635 0.0
H846 H 0.74859 0.20253 0.63901 0.0
H847 H 0.75811 0.20304 0.72748 0.0
C848 C 0.2055 0.2448 0.83294 0.0
C849 C 0.20258 0.25733 0.89163 0.0
C850 C 0.2226 0.24765 0.78957 0.0
C851 C 0.23711 0.26329 0.80591 0.0
C852 C 0.23375 0.27661 0.86329 0.0
C853 C 0.2164 0.27349 0.90558 0.0
C854 C 0.22565 0.23329 0.72823 0.0
C855 C 0.24897 0.29342 0.88203 0.0
C856 C 0.29085 0.25034 0.74461 0.0
C857 C 0.29187 0.26145 0.68212 0.0
C858 C 0.27342 0.25166 0.78737 0.0
C859 C 0.25666 0.2643 0.76656 0.0
C860 C 0.258 0.27633 0.70519 0.0
C861 C 0.27571 0.27479 0.66356 0.0
C862 C 0.27254 0.23876 0.853 0.0
C863 C 0.24037 0.28995 0.68168 0.0
H864 H 0.19468 0.23243 0.82181 0.0
H865 H 0.21409 0.28323 0.95095 0.0
H866 H 0.22857 0.24231 0.68004 0.0
H867 H 0.23939 0.22338 0.73741 0.0
H868 H 0.21207 0.22311 0.71938 0.0
H869 H 0.24292 0.30388 0.92326 0.0
H870 H 0.26352 0.28631 0.90107 0.0
H871 H 0.25289 0.30279 0.83542 0.0
H872 H 0.30344 0.24016 0.75926 0.0
H873 H 0.27654 0.28344 0.61522 0.0
H874 H 0.26057 0.22659 0.84725 0.0
H875 H 0.26811 0.2485 0.89823 0.0
H876 H 0.28755 0.23115 0.86466 0.0
H877 H 0.22717 0.28014 0.6652 0.0
H878 H 0.24479 0.30006 0.63729 0.0
H879 H 0.2349 0.29982 0.72529 0.0
C880 C 0.28179 0.71675 0.40481 0.0
C881 C 0.29183 0.73559 0.392 0.0
C882 C 0.26423 0.7111 0.3664 0.0
C883 C 0.25665 0.72473 0.31477 0.0
C884 C 0.26722 0.7434 0.30004 0.0
C885 C 0.28474 0.74857 0.33879 0.0
C886 C 0.25342 0.69099 0.38277 0.0
C887 C 0.25959 0.75834 0.24507 0.0
C888 C 0.21987 0.71284 0.16881 0.0
C889 C 0.20227 0.72349 0.19177 0.0
C890 C 0.23733 0.71121 0.21154 0.0
C891 C 0.237 0.72047 0.27833 0.0
C892 C 0.2185 0.72923 0.3044 0.0
C893 C 0.20129 0.73066 0.26057 0.0
C894 C 0.2567 0.70145 0.18249 0.0
C895 C 0.21751 0.73904 0.37582 0.0
H896 H 0.28734 0.70666 0.44589 0.0
H897 H 0.29255 0.7631 0.32863 0.0
H898 H 0.2385 0.69427 0.40904 0.0
H899 H 0.24988 0.6824 0.33412 0.0
H900 H 0.26282 0.68092 0.41741 0.0
H901 H 0.27008 0.7718 0.23843 0.0
H902 H 0.25809 0.75035 0.19413 0.0
H903 H 0.24405 0.76419 0.25959 0.0
H904 H 0.22055 0.707 0.11585 0.0
H905 H 0.18754 0.73861 0.27877 0.0
H906 H 0.26471 0.69211 0.22278 0.0
H907 H 0.26749 0.71381 0.16557 0.0
H908 H 0.25332 0.69143 0.13681 0.0
H909 H 0.22506 0.72903 0.41528 0.0
H910 H 0.20134 0.74207 0.39242 0.0
H911 H 0.22595 0.75399 0.37493 0.0
C912 C 0.51142 0.9458 0.53513 0.0
C913 C 0.52268 0.94561 0.4728 0.0
C914 C 0.51329 0.96233 0.58187 0.0
C915 C 0.52666 0.97892 0.56525 0.0
C916 C 0.53987 0.97753 0.50671 0.0
C917 C 0.53774 0.96078 0.461 0.0
C918 C 0.49925 0.96309 0.64468 0.0
C919 C 0.55455 0.9948 0.48788 0.0
C920 C 0.50464 0.03151 0.60722 0.0
C921 C 0.51567 0.03687 0.66727 0.0
C922 C 0.50847 0.01283 0.57291 0.0
C923 C 0.52362 0.99915 0.59977 0.0
C924 C 0.53511 0.00463 0.65966 0.0
C925 C 0.53101 0.02353 0.6928 0.0
C926 C 0.49601 0.0076 0.50856 0.0
C927 C 0.55128 0.99034 0.68972 0.0
H928 H 0.5 0.93387 0.54495 0.0
H929 H 0.54673 0.96049 0.41329 0.0
H930 H 0.50759 0.96911 0.69096 0.0
H931 H 0.48617 0.97375 0.63387 0.0
H932 H 0.49281 0.94761 0.65737 0.0
H933 H 0.56646 0.98961 0.45 0.0
H934 H 0.54569 0.00767 0.46391 0.0
H935 H 0.56238 0.00098 0.53492 0.0
H936 H 0.49285 0.04186 0.58729 0.0
H937 H 0.53951 0.02766 0.73951 0.0
H938 H 0.4868 0.99339 0.51793 0.0
H939 H 0.50649 0.00442 0.46404 0.0
H940 H 0.48529 0.02025 0.49345 0.0
H941 H 0.54367 0.97641 0.71166 0.0
H942 H 0.56041 0.99788 0.73172 0.0
H943 H 0.56201 0.98498 0.64836 0.0
C944 C 0.96668 0.02016 0.91562 0.0
C945 C 0.97855 0.03659 0.94163 0.0
C946 C 0.96536 0.00144 0.95219 0.0
C947 C 0.97612 0.9993 0.01595 0.0
C948 C 0.98709 0.01629 0.04429 0.0
C949 C 0.9882 0.03474 0.0066 0.0
C950 C 0.95344 0.98366 0.92077 0.0
C951 C 0.99861 0.01463 0.11265 0.0
C952 C 0.96872 0.95678 0.14788 0.0
C953 C 0.9867 0.94513 0.13689 0.0
C954 C 0.96407 0.97372 0.10514 0.0
C955 C 0.97775 0.97894 0.05047 0.0
C956 C 0.99494 0.96613 0.03554 0.0
C957 C 0.99924 0.94934 0.07917 0.0
C958 C 0.94549 0.98693 0.12203 0.0
C959 C 0.00975 0.97111 0.97702 0.0
H960 H 0.95917 0.0216 0.86532 0.0
H961 H 0.99723 0.04752 0.02703 0.0
H962 H 0.96444 0.97191 0.90068 0.0
H963 H 0.94371 0.976 0.96076 0.0
H964 H 0.9434 0.98875 0.877 0.0
H965 H 0.00507 0.02973 0.1298 0.0
H966 H 0.98823 0.00873 0.15412 0.0
H967 H 0.01154 0.00346 0.10719 0.0
H968 H 0.95887 0.95341 0.19219 0.0
H969 H 0.01301 0.94016 0.07009 0.0
H970 H 0.93716 0.99143 0.07378 0.0
H971 H 0.95068 0.00137 0.14798 0.0
H972 H 0.93455 0.97886 0.15741 0.0
H973 H 0.00118 0.97451 0.92826 0.0
H974 H 0.02074 0.95824 0.96687 0.0
H975 H 0.01878 0.98513 0.99073 0.0
C976 C 0.00194 0.45806 0.57796 0.0
C977 C 0.99285 0.4573 0.64425 0.0
C978 C 0.0005 0.476 0.53647 0.0
C979 C 0.98991 0.49366 0.5622 0.0
C980 C 0.98051 0.49284 0.62874 0.0
C981 C 0.982 0.47469 0.66865 0.0
C982 C 0.01051 0.47616 0.46539 0.0
C983 C 0.96919 0.51129 0.65843 0.0
C984 C 0.00331 0.54595 0.48156 0.0
C985 C 0.98704 0.54873 0.4341 0.0
C986 C 0.00423 0.52832 0.52457 0.0
C987 C 0.98861 0.513 0.5196 0.0
C988 C 0.97182 0.51608 0.47344 0.0
C989 C 0.97118 0.53391 0.43161 0.0
C990 C 0.02223 0.5258 0.57391 0.0
C991 C 0.95485 0.50017 0.46638 0.0
H992 H 0.0104 0.44474 0.55886 0.0
H993 H 0.975 0.47432 0.71999 0.0
H994 H 0.99887 0.48 0.42493 0.0
H995 H 0.02261 0.48831 0.46342 0.0
H996 H 0.01769 0.46105 0.45214 0.0
H997 H 0.96261 0.50811 0.71084 0.0
H998 H 0.97988 0.52465 0.66258 0.0
H999 H 0.95645 0.51594 0.62303 0.0
H1000 H 0.01568 0.55724 0.48356 0.0
H1001 H 0.95861 0.53583 0.39481 0.0
H1002 H 0.03148 0.51206 0.55867 0.0
H1003 H 0.01655 0.52309 0.62772 0.0
H1004 H 0.03252 0.53955 0.57422 0.0
H1005 H 0.96146 0.48536 0.44732 0.0
H1006 H 0.94253 0.50516 0.42973 0.0
H1007 H 0.94775 0.49705 0.51795 0.0
C1008 C 0.78411 0.77165 0.88835 0.0
C1009 C 0.80027 0.75843 0.86845 0.0
C1010 C 0.7649 0.77115 0.85427 0.0
C1011 C 0.76197 0.75764 0.79699 0.0
C1012 C 0.77852 0.74479 0.77495 0.0
C1013 C 0.79734 0.745 0.81196 0.0
C1014 C 0.74754 0.7846 0.88109 0.0
C1015 C 0.7763 0.73072 0.71255 0.0
C1016 C 0.70749 0.74179 0.74171 0.0
C1017 C 0.70327 0.75616 0.68897 0.0
C1018 C 0.72632 0.7424 0.77862 0.0
C1019 C 0.74162 0.75714 0.76005 0.0
C1020 C 0.7374 0.77157 0.7064 0.0
C1021 C 0.71816 0.77116 0.67255 0.0
C1022 C 0.72988 0.72724 0.83721 0.0
C1023 C 0.75347 0.78705 0.68312 0.0
H1024 H 0.78613 0.78175 0.93302 0.0
H1025 H 0.80976 0.73467 0.79682 0.0
H1026 H 0.74238 0.79543 0.8398 0.0
H1027 H 0.73407 0.77482 0.8951 0.0
H1028 H 0.75214 0.79376 0.92762 0.0
H1029 H 0.79102 0.72278 0.69926 0.0
H1030 H 0.76437 0.71882 0.72305 0.0
H1031 H 0.77108 0.73975 0.66657 0.0
H1032 H 0.69607 0.73007 0.75402 0.0
H1033 H 0.71516 0.782 0.63061 0.0
H1034 H 0.73431 0.73564 0.88544 0.0
H1035 H 0.74284 0.71674 0.82379 0.0
H1036 H 0.71596 0.71772 0.84825 0.0
H1037 H 0.75771 0.79737 0.72704 0.0
H1038 H 0.74801 0.79675 0.63897 0.0
H1039 H 0.76773 0.77882 0.66679 0.0
C1040 C 0.51668 0.52451 0.21141 0.0
C1041 C 0.50803 0.54311 0.1872 0.0
C1042 C 0.51658 0.50651 0.17031 0.0
C1043 C 0.5077 0.50703 0.10289 0.0
C1044 C 0.49931 0.52587 0.07745 0.0
C1045 C 0.49953 0.54368 0.11996 0.0
C1046 C 0.52568 0.48683 0.19961 0.0
C1047 C 0.48984 0.52712 0.00564 0.0
C1048 C 0.52294 0.46538 0.97179 0.0
C1049 C 0.50571 0.45217 0.97308 0.0
C1050 C 0.52385 0.48315 0.01403 0.0
C1051 C 0.50719 0.48784 0.05921 0.0
C1052 C 0.49006 0.47419 0.06254 0.0
C1053 C 0.4895 0.45656 0.01933 0.0
C1054 C 0.54242 0.49721 0.00883 0.0
C1055 C 0.47208 0.47848 0.11055 0.0
H1056 H 0.52324 0.52386 0.26339 0.0
H1057 H 0.49275 0.55794 0.10097 0.0
H1058 H 0.51361 0.47467 0.20222 0.0
H1059 H 0.53807 0.481 0.16476 0.0
H1060 H 0.53224 0.48905 0.25263 0.0
H1061 H 0.48441 0.54298 0.99285 0.0
H1062 H 0.50129 0.52225 0.96581 0.0
H1063 H 0.47654 0.51635 0.00197 0.0
H1064 H 0.5355 0.46222 0.93595 0.0
H1065 H 0.47607 0.44653 0.02036 0.0
H1066 H 0.54955 0.4993 0.06096 0.0
H1067 H 0.53751 0.51272 0.99039 0.0
H1068 H 0.55433 0.49112 0.97251 0.0
H1069 H 0.47762 0.48019 0.165 0.0
H1070 H 0.46028 0.466 0.10892 0.0
H1071 H 0.4646 0.49328 0.09569 0.0
C1072 C 0.77868 0.27918 0.16941 0.0
C1073 C 0.7947 0.26529 0.18535 0.0
C1074 C 0.76001 0.27908 0.20675 0.0
C1075 C 0.75737 0.26507 0.26274 0.0
C1076 C 0.77374 0.25145 0.28065 0.0
C1077 C 0.79212 0.25153 0.24117 0.0
C1078 C 0.7429 0.29361 0.185 0.0
C1079 C 0.77175 0.23664 0.34108 0.0
C1080 C 0.71613 0.27826 0.39715 0.0
C1081 C 0.70018 0.26442 0.37997 0.0
C1082 C 0.73481 0.27849 0.35991 0.0
C1083 C 0.73754 0.26489 0.30278 0.0
C1084 C 0.72124 0.25134 0.28363 0.0
C1085 C 0.70285 0.25108 0.323 0.0
C1086 C 0.75185 0.29292 0.38293 0.0
C1087 C 0.72332 0.23697 0.22198 0.0
H1088 H 0.7804 0.2897 0.12579 0.0
H1089 H 0.80437 0.2407 0.25354 0.0
H1090 H 0.72891 0.2846 0.17086 0.0
H1091 H 0.73862 0.30387 0.22908 0.0
H1092 H 0.74732 0.30341 0.13982 0.0
H1093 H 0.78617 0.22771 0.35024 0.0
H1094 H 0.76782 0.24526 0.38936 0.0
H1095 H 0.75897 0.2256 0.33106 0.0
H1096 H 0.71434 0.28844 0.44166 0.0
H1097 H 0.69065 0.24029 0.30968 0.0
H1098 H 0.7561 0.30351 0.33975 0.0
H1099 H 0.76587 0.28387 0.39637 0.0
H1100 H 0.74737 0.30238 0.4289 0.0
H1101 H 0.72722 0.24595 0.17445 0.0
H1102 H 0.70895 0.22805 0.21202 0.0
H1103 H 0.73616 0.22592 0.23111 0.0
C1104 C 0.29244 0.25754 0.33199 0.0
C1105 C 0.29547 0.24331 0.38621 0.0
C1106 C 0.27414 0.25732 0.29202 0.0
C1107 C 0.2583 0.24287 0.30784 0.0
C1108 C 0.26134 0.22851 0.36257 0.0
C1109 C 0.27992 0.22875 0.40038 0.0
C1110 C 0.27172 0.27255 0.23297 0.0
C1111 C 0.2448 0.21307 0.38203 0.0
C1112 C 0.20326 0.25347 0.2442 0.0
C1113 C 0.20182 0.24007 0.1869 0.0
C1114 C 0.22149 0.25449 0.28444 0.0
C1115 C 0.23882 0.2422 0.26584 0.0
C1116 C 0.2374 0.22871 0.20792 0.0
C1117 C 0.21891 0.22764 0.16984 0.0
C1118 C 0.22222 0.2687 0.34683 0.0
C1119 C 0.25554 0.21559 0.18541 0.0
H1120 H 0.30431 0.26891 0.32106 0.0
H1121 H 0.28197 0.21787 0.44283 0.0
H1122 H 0.26882 0.26415 0.18345 0.0
H1123 H 0.25815 0.28264 0.2426 0.0
H1124 H 0.2856 0.28247 0.22632 0.0
H1125 H 0.24928 0.20341 0.4275 0.0
H1126 H 0.23021 0.22128 0.39465 0.0
H1127 H 0.24156 0.2027 0.33725 0.0
H1128 H 0.19018 0.26319 0.25743 0.0
H1129 H 0.21807 0.21742 0.12509 0.0
H1130 H 0.23461 0.28038 0.33982 0.0
H1131 H 0.22603 0.25971 0.39442 0.0
H1132 H 0.20734 0.2769 0.35534 0.0
H1133 H 0.26914 0.22557 0.17504 0.0
H1134 H 0.25215 0.20642 0.13774 0.0
H1135 H 0.2599 0.20477 0.22782 0.0
C1136 C 0.29341 0.7481 0.73737 0.0
C1137 C 0.2952 0.76275 0.68381 0.0
C1138 C 0.27563 0.74734 0.77971 0.0
C1139 C 0.25919 0.76142 0.76773 0.0
C1140 C 0.26116 0.77653 0.71477 0.0
C1141 C 0.27914 0.77707 0.67383 0.0
C1142 C 0.27426 0.7312 0.83637 0.0
C1143 C 0.24402 0.79178 0.7 0.0
C1144 C 0.20532 0.74631 0.83106 0.0
C1145 C 0.20363 0.75782 0.8928 0.0
C1146 C 0.22319 0.74754 0.78932 0.0
C1147 C 0.23987 0.76036 0.81032 0.0
C1148 C 0.23806 0.77226 0.87198 0.0
C1149 C 0.21995 0.77095 0.9121 0.0
C1150 C 0.22437 0.73488 0.7233 0.0
C1151 C 0.25548 0.786 0.89658 0.0
H1152 H 0.30569 0.73692 0.7452 0.0
H1153 H 0.28031 0.7884 0.63234 0.0
H1154 H 0.27107 0.7387 0.88731 0.0
H1155 H 0.26123 0.72053 0.82539 0.0
H1156 H 0.28868 0.72196 0.84097 0.0
H1157 H 0.24811 0.8028 0.65776 0.0
H1158 H 0.2298 0.78335 0.6846 0.0
H1159 H 0.24031 0.80074 0.74774 0.0
H1160 H 0.19284 0.73607 0.81599 0.0
H1161 H 0.21888 0.77979 0.96001 0.0
H1162 H 0.23728 0.72363 0.72707 0.0
H1163 H 0.22764 0.74508 0.67811 0.0
H1164 H 0.20985 0.72624 0.71294 0.0
H1165 H 0.26952 0.77656 0.90601 0.0
H1166 H 0.25156 0.79442 0.94534 0.0
H1167 H 0.25939 0.79749 0.85572 0.0
C1168 C 0.4992 0.96018 0.09306 0.0
C1169 C 0.49134 0.96054 0.16115 0.0
C1170 C 0.49894 0.97809 0.0512 0.0
C1171 C 0.49076 0.99682 0.0783 0.0
C1172 C 0.48255 0.99714 0.14664 0.0
C1173 C 0.48287 0.97903 0.187 0.0
C1174 C 0.50766 0.97706 0.97828 0.0
C1175 C 0.47375 0.01674 0.1777 0.0
C1176 C 0.50824 0.04732 0.99396 0.0
C1177 C 0.49162 0.05174 0.94939 0.0
C1178 C 0.50802 0.0297 0.03708 0.0
C1179 C 0.49083 0.01611 0.03535 0.0
C1180 C 0.47373 0.02089 0.99219 0.0
C1181 C 0.47431 0.03864 0.95 0.0
C1182 C 0.52645 0.0253 0.08302 0.0
C1183 C 0.45508 0.00688 0.98884 0.0
H1184 H 0.50583 0.94599 0.07283 0.0
H1185 H 0.47682 0.97951 0.23969 0.0
H1186 H 0.49581 0.98205 0.93999 0.0
H1187 H 0.52092 0.98785 0.97348 0.0
H1188 H 0.51296 0.96125 0.96427 0.0
H1189 H 0.46773 0.01435 0.23135 0.0
H1190 H 0.48585 0.02889 0.17942 0.0
H1191 H 0.46102 0.02267 0.14451 0.0
H1192 H 0.52172 0.05727 0.9935 0.0
H1193 H 0.46143 0.04185 0.91548 0.0
H1194 H 0.53385 0.01059 0.06669 0.0
H1195 H 0.52143 0.02336 0.13794 0.0
H1196 H 0.53818 0.03783 0.08074 0.0
H1197 H 0.45975 0.99142 0.9691 0.0
H1198 H 0.44277 0.01312 0.95436 0.0
H1199 H 0.44855 0.00461 0.04176 0.0
C1200 C 0.02137 0.03194 0.65862 0.0
C1201 C 0.00439 0.04531 0.65136 0.0
C1202 C 0.02322 0.01397 0.61779 0.0
C1203 C 0.00782 0.00927 0.56778 0.0
C1204 C 0.99096 0.02304 0.55862 0.0
C1205 C 0.98939 0.04084 0.60073 0.0
C1206 C 0.04141 0.99974 0.62944 0.0
C1207 C 0.97437 0.01877 0.50518 0.0
C1208 C 0.02162 0.97233 0.42034 0.0
C1209 C 0.0121 0.95385 0.44159 0.0
C1210 C 0.02035 0.9904 0.46082 0.0
C1211 C 0.00946 0.99003 0.52477 0.0
C1212 C 0.0002 0.9713 0.54744 0.0
C1213 C 0.00154 0.95345 0.50541 0.0
C1214 C 0.03035 0.00999 0.43441 0.0
C1215 C 0.98866 0.97021 0.61573 0.0
H1216 H 0.03297 0.03516 0.69794 0.0
H1217 H 0.97617 0.051 0.59505 0.0
H1218 H 0.03584 0.98426 0.64596 0.0
H1219 H 0.05009 0.9976 0.58007 0.0
H1220 H 0.0522 0.00572 0.66976 0.0
H1221 H 0.96264 0.0313 0.50287 0.0
H1222 H 0.9814 0.01696 0.45276 0.0
H1223 H 0.96644 0.00402 0.51776 0.0
H1224 H 0.02973 0.97286 0.37093 0.0
H1225 H 0.99408 0.93927 0.52206 0.0
H1226 H 0.04174 0.01577 0.47302 0.0
H1227 H 0.01848 0.02223 0.42778 0.0
H1228 H 0.03837 0.00768 0.38377 0.0
H1229 H 0.9989 0.97511 0.65912 0.0
H1230 H 0.98283 0.95439 0.62691 0.0
H1231 H 0.97536 0.98103 0.61472 0.0
loop_
_geom_bond_atom_site_label_1
_geom_bond_atom_site_label_2
_geom_bond_distance
_geom_bond_site_symmetry_2
_ccdc_geom_bond_type
In0 O1 2.294 1_455 S
In0 O2 2.326 . S
In0 O6 2.266 1_455 S
In0 O7 2.326 1_455 S
In0 O8 2.266 . S
In0 O9 2.326 . S
In0 O11 2.294 . S
In0 O12 2.326 1_455 S
O1 In0 2.294 1_655 S
O1 C10 1.240 1_655 S
O2 In0 2.326 . S
O2 C10 1.252 . S
C3 O6 1.252 . S
C3 O7 1.260 . S
C4 O11 1.240 1_655 S
C4 O12 1.252 . S
C5 O8 1.252 . S
C5 O9 1.260 . S
O6 In0 2.266 1_655 S
O6 C3 1.252 . S
O7 In0 2.326 1_655 S
O7 C3 1.260 . S
O8 In0 2.266 . S
O8 C5 1.252 . S
O9 In0 2.326 . S
O9 C5 1.260 . S
C10 O1 1.240 1_455 S
C10 O2 1.252 . S
O11 In0 2.294 . S
O11 C4 1.240 1_455 S
O12 In0 2.326 1_655 S
O12 C4 1.252 . S
In13 O14 2.294 . S
In13 O15 2.326 . S
In13 O19 2.266 . S
In13 O20 2.326 . S
In13 O21 2.266 . S
In13 O22 2.326 . S
In13 O24 2.294 . S
In13 O25 2.326 . S
O14 In13 2.294 . S
O14 C23 1.240 . S
O15 In13 2.326 . S
O15 C23 1.252 . S
C16 O19 1.252 . S
C16 O20 1.260 . S
C17 O24 1.240 . S
C17 O25 1.252 . S
C18 O21 1.252 . S
C18 O22 1.260 . S
O19 In13 2.266 . S
O19 C16 1.252 . S
O20 In13 2.326 . S
O20 C16 1.260 . S
O21 In13 2.266 . S
O21 C18 1.252 . S
O22 In13 2.326 . S
O22 C18 1.260 . S
C23 O14 1.240 . S
C23 O15 1.252 . S
O24 In13 2.294 . S
O24 C17 1.240 . S
O25 In13 2.326 . S
O25 C17 1.252 . S
In26 O27 2.294 . S
In26 O28 2.326 . S
In26 O32 2.266 . S
In26 O33 2.326 . S
In26 O34 2.266 . S
In26 O35 2.326 . S
In26 O37 2.294 . S
In26 O38 2.326 . S
O27 In26 2.294 . S
O27 C36 1.240 . S
O28 In26 2.326 . S
O28 C36 1.252 . S
C29 O32 1.252 . S
C29 O33 1.260 . S
C30 O37 1.240 . S
C30 O38 1.252 . S
C31 O34 1.252 . S
C31 O35 1.260 . S
O32 In26 2.266 . S
O32 C29 1.252 . S
O33 In26 2.326 . S
O33 C29 1.260 . S
O34 In26 2.266 . S
O34 C31 1.252 . S
O35 In26 2.326 . S
O35 C31 1.260 . S
C36 O27 1.240 . S
C36 O28 1.252 . S
O37 In26 2.294 . S
O37 C30 1.240 . S
O38 In26 2.326 . S
O38 C30 1.252 . S
In39 O40 2.293 1_554 S
In39 O41 2.326 1_554 S
In39 O45 2.266 1_554 S
In39 O46 2.326 . S
In39 O47 2.266 . S
In39 O48 2.325 1_554 S
In39 O50 2.295 . S
In39 O51 2.327 . S
O40 In39 2.293 1_556 S
O40 C49 1.240 . S
O41 In39 2.326 1_556 S
O41 C49 1.252 . S
C42 O45 1.252 1_554 S
C42 O46 1.260 . S
C43 O50 1.240 . S
C43 O51 1.252 . S
C44 O47 1.252 1_556 S
C44 O48 1.260 . S
O45 In39 2.266 1_556 S
O45 C42 1.252 1_556 S
O46 In39 2.326 . S
O46 C42 1.260 . S
O47 In39 2.266 . S
O47 C44 1.252 1_554 S
O48 In39 2.325 1_556 S
O48 C44 1.260 . S
C49 O40 1.240 . S
C49 O41 1.252 . S
O50 In39 2.295 . S
O50 C43 1.240 . S
O51 In39 2.327 . S
O51 C43 1.252 . S
In52 O53 2.294 . S
In52 O54 2.326 1_455 S
In52 O58 2.266 . S
In52 O59 2.326 . S
In52 O60 2.266 1_455 S
In52 O61 2.326 1_455 S
In52 O63 2.294 1_455 S
In52 O64 2.326 . S
O53 In52 2.294 . S
O53 C62 1.240 1_455 S
O54 In52 2.326 1_655 S
O54 C62 1.252 . S
C55 O58 1.252 . S
C55 O59 1.260 . S
C56 O63 1.240 1_455 S
C56 O64 1.252 . S
C57 O60 1.252 . S
C57 O61 1.260 . S
O58 In52 2.266 . S
O58 C55 1.252 . S
O59 In52 2.326 . S
O59 C55 1.260 . S
O60 In52 2.266 1_655 S
O60 C57 1.252 . S
O61 In52 2.326 1_655 S
O61 C57 1.260 . S
C62 O53 1.240 1_655 S
C62 O54 1.252 . S
O63 In52 2.294 1_655 S
O63 C56 1.240 1_655 S
O64 In52 2.326 . S
O64 C56 1.252 . S
In65 O66 2.294 . S
In65 O67 2.326 . S
In65 O71 2.266 . S
In65 O72 2.326 . S
In65 O73 2.266 . S
In65 O74 2.326 . S
In65 O76 2.294 1_554 S
In65 O77 2.326 . S
O66 In65 2.294 . S
O66 C75 1.240 . S
O67 In65 2.326 . S
O67 C75 1.252 . S
C68 O71 1.252 . S
C68 O72 1.260 . S
C69 O76 1.240 . S
C69 O77 1.252 1_556 S
C70 O73 1.252 . S
C70 O74 1.260 . S
O71 In65 2.266 . S
O71 C68 1.252 . S
O72 In65 2.326 . S
O72 C68 1.260 . S
O73 In65 2.266 . S
O73 C70 1.252 . S
O74 In65 2.326 . S
O74 C70 1.260 . S
C75 O66 1.240 . S
C75 O67 1.252 . S
O76 In65 2.294 1_556 S
O76 C69 1.240 . S
O77 In65 2.326 . S
O77 C69 1.252 1_554 S
In78 O79 2.294 . S
In78 O80 2.326 . S
In78 O84 2.266 . S
In78 O85 2.326 . S
In78 O86 2.266 . S
In78 O87 2.326 . S
In78 O89 2.294 . S
In78 O90 2.326 . S
O79 In78 2.294 . S
O79 C88 1.240 . S
O80 In78 2.326 . S
O80 C88 1.252 . S
C81 O84 1.252 . S
C81 O85 1.260 . S
C82 O89 1.240 . S
C82 O90 1.252 . S
C83 O86 1.252 . S
C83 O87 1.260 . S
O84 In78 2.266 . S
O84 C81 1.252 . S
O85 In78 2.326 . S
O85 C81 1.260 . S
O86 In78 2.266 . S
O86 C83 1.252 . S
O87 In78 2.326 . S
O87 C83 1.260 . S
C88 O79 1.240 . S
C88 O80 1.252 . S
O89 In78 2.294 . S
O89 C82 1.240 . S
O90 In78 2.326 . S
O90 C82 1.252 . S
In91 O92 2.294 . S
In91 O93 2.326 . S
In91 O97 2.266 . S
In91 O98 2.326 . S
In91 O99 2.266 . S
In91 O100 2.326 . S
In91 O102 2.294 . S
In91 O103 2.326 . S
O92 In91 2.294 . S
O92 C101 1.240 . S
O93 In91 2.326 . S
O93 C101 1.252 . S
C94 O97 1.252 . S
C94 O98 1.260 . S
C95 O102 1.240 . S
C95 O103 1.252 . S
C96 O99 1.252 . S
C96 O100 1.260 . S
O97 In91 2.266 . S
O97 C94 1.252 . S
O98 In91 2.326 . S
O98 C94 1.260 . S
O99 In91 2.266 . S
O99 C96 1.252 . S
O100 In91 2.326 . S
O100 C96 1.260 . S
C101 O92 1.240 . S
C101 O93 1.252 . S
O102 In91 2.294 . S
O102 C95 1.240 . S
O103 In91 2.326 . S
O103 C95 1.252 . S
In104 O105 2.294 . S
In104 O106 2.326 . S
In104 O110 2.266 . S
In104 O111 2.326 . S
In104 O112 2.266 . S
In104 O113 2.326 . S
In104 O115 2.294 . S
In104 O116 2.326 . S
O105 In104 2.294 . S
O105 C114 1.240 . S
O106 In104 2.326 . S
O106 C114 1.252 . S
C107 O110 1.252 . S
C107 O111 1.260 . S
C108 O115 1.240 . S
C108 O116 1.252 . S
C109 O112 1.252 . S
C109 O113 1.260 . S
O110 In104 2.266 . S
O110 C107 1.252 . S
O111 In104 2.326 . S
O111 C107 1.260 . S
O112 In104 2.266 . S
O112 C109 1.252 . S
O113 In104 2.326 . S
O113 C109 1.260 . S
C114 O105 1.240 . S
C114 O106 1.252 . S
O115 In104 2.294 . S
O115 C108 1.240 . S
O116 In104 2.326 . S
O116 C108 1.252 . S
In117 O118 2.294 1_554 S
In117 O119 2.326 . S
In117 O123 2.266 . S
In117 O124 2.326 . S
In117 O125 2.266 . S
In117 O126 2.326 . S
In117 O128 2.294 . S
In117 O129 2.326 . S
O118 In117 2.294 1_556 S
O118 C127 1.240 . S
O119 In117 2.326 . S
O119 C127 1.252 1_554 S
C120 O123 1.252 . S
C120 O124 1.260 . S
C121 O128 1.240 . S
C121 O129 1.252 . S
C122 O125 1.252 . S
C122 O126 1.260 . S
O123 In117 2.266 . S
O123 C120 1.252 . S
O124 In117 2.326 . S
O124 C120 1.260 . S
O125 In117 2.266 . S
O125 C122 1.252 . S
O126 In117 2.326 . S
O126 C122 1.260 . S
C127 O118 1.240 . S
C127 O119 1.252 1_556 S
O128 In117 2.294 . S
O128 C121 1.240 . S
O129 In117 2.326 . S
O129 C121 1.252 . S
In130 O131 2.295 . S
In130 O132 2.327 . S
In130 O136 2.266 . S
In130 O137 2.325 1_554 S
In130 O138 2.266 1_554 S
In130 O139 2.326 . S
In130 O141 2.293 1_554 S
In130 O142 2.326 1_554 S
O131 In130 2.295 . S
O131 C140 1.240 . S
O132 In130 2.327 . S
O132 C140 1.252 . S
C133 O136 1.252 1_556 S
C133 O137 1.260 . S
C134 O141 1.240 . S
C134 O142 1.252 . S
C135 O138 1.252 1_554 S
C135 O139 1.260 . S
O136 In130 2.266 . S
O136 C133 1.252 1_554 S
O137 In130 2.325 1_556 S
O137 C133 1.260 . S
O138 In130 2.266 1_556 S
O138 C135 1.252 1_556 S
O139 In130 2.326 . S
O139 C135 1.260 . S
C140 O131 1.240 . S
C140 O132 1.252 . S
O141 In130 2.293 1_556 S
O141 C134 1.240 . S
O142 In130 2.326 1_556 S
O142 C134 1.252 . S
In143 O144 2.294 . S
In143 O145 2.326 . S
In143 O149 2.266 . S
In143 O150 2.326 . S
In143 O151 2.266 . S
In143 O152 2.326 . S
In143 O154 2.294 . S
In143 O155 2.326 . S
O144 In143 2.294 . S
O144 C153 1.240 . S
O145 In143 2.326 . S
O145 C153 1.252 . S
C146 O149 1.252 . S
C146 O150 1.260 . S
C147 O154 1.240 . S
C147 O155 1.252 . S
C148 O151 1.252 . S
C148 O152 1.260 . S
O149 In143 2.266 . S
O149 C146 1.252 . S
O150 In143 2.326 . S
O150 C146 1.260 . S
O151 In143 2.266 . S
O151 C148 1.252 . S
O152 In143 2.326 . S
O152 C148 1.260 . S
C153 O144 1.240 . S
C153 O145 1.252 . S
O154 In143 2.294 . S
O154 C147 1.240 . S
O155 In143 2.326 . S
O155 C147 1.252 . S
In156 O157 2.294 . S
In156 O158 2.326 . S
In156 O162 2.266 . S
In156 O163 2.326 . S
In156 O164 2.266 . S
In156 O165 2.326 . S
In156 O167 2.294 . S
In156 O168 2.326 . S
O157 In156 2.294 . S
O157 C166 1.240 . S
O158 In156 2.326 . S
O158 C166 1.252 . S
C159 O162 1.252 . S
C159 O163 1.260 . S
C160 O167 1.240 . S
C160 O168 1.252 . S
C161 O164 1.252 . S
C161 O165 1.260 . S
O162 In156 2.266 . S
O162 C159 1.252 . S
O163 In156 2.326 . S
O163 C159 1.260 . S
O164 In156 2.266 . S
O164 C161 1.252 . S
O165 In156 2.326 . S
O165 C161 1.260 . S
C166 O157 1.240 . S
C166 O158 1.252 . S
O167 In156 2.294 . S
O167 C160 1.240 . S
O168 In156 2.326 . S
O168 C160 1.252 . S
In169 O170 2.294 1_455 S
In169 O171 2.326 . S
In169 O175 2.266 1_455 S
In169 O176 2.326 1_455 S
In169 O177 2.266 . S
In169 O178 2.326 . S
In169 O180 2.294 . S
In169 O181 2.326 1_455 S
O170 In169 2.294 1_655 S
O170 C179 1.240 1_655 S
O171 In169 2.326 . S
O171 C179 1.252 . S
C172 O175 1.252 . S
C172 O176 1.260 . S
C173 O180 1.240 1_655 S
C173 O181 1.252 . S
C174 O177 1.252 . S
C174 O178 1.260 . S
O175 In169 2.266 1_655 S
O175 C172 1.252 . S
O176 In169 2.326 1_655 S
O176 C172 1.260 . S
O177 In169 2.266 . S
O177 C174 1.252 . S
O178 In169 2.326 . S
O178 C174 1.260 . S
C179 O170 1.240 1_455 S
C179 O171 1.252 . S
O180 In169 2.294 . S
O180 C173 1.240 1_455 S
O181 In169 2.326 1_655 S
O181 C173 1.252 . S
In182 O183 2.294 . S
In182 O184 2.326 . S
In182 O188 2.266 . S
In182 O189 2.326 . S
In182 O190 2.266 . S
In182 O191 2.326 . S
In182 O193 2.294 . S
In182 O194 2.326 . S
O183 In182 2.294 . S
O183 C192 1.240 . S
O184 In182 2.326 . S
O184 C192 1.252 . S
C185 O188 1.252 . S
C185 O189 1.260 . S
C186 O193 1.240 . S
C186 O194 1.252 . S
C187 O190 1.252 . S
C187 O191 1.260 . S
O188 In182 2.266 . S
O188 C185 1.252 . S
O189 In182 2.326 . S
O189 C185 1.260 . S
O190 In182 2.266 . S
O190 C187 1.252 . S
O191 In182 2.326 . S
O191 C187 1.260 . S
C192 O183 1.240 . S
C192 O184 1.252 . S
O193 In182 2.294 . S
O193 C186 1.240 . S
O194 In182 2.326 . S
O194 C186 1.252 . S
In195 O196 2.294 . S
In195 O197 2.326 1_455 S
In195 O201 2.266 . S
In195 O202 2.326 . S
In195 O203 2.266 1_455 S
In195 O204 2.326 1_455 S
In195 O206 2.294 1_455 S
In195 O207 2.326 . S
O196 In195 2.294 . S
O196 C205 1.240 1_455 S
O197 In195 2.326 1_655 S
O197 C205 1.252 . S
C198 O201 1.252 . S
C198 O202 1.260 . S
C199 O206 1.240 1_455 S
C199 O207 1.252 . S
C200 O203 1.252 . S
C200 O204 1.260 . S
O201 In195 2.266 . S
O201 C198 1.252 . S
O202 In195 2.326 . S
O202 C198 1.260 . S
O203 In195 2.266 1_655 S
O203 C200 1.252 . S
O204 In195 2.326 1_655 S
O204 C200 1.260 . S
C205 O196 1.240 1_655 S
C205 O197 1.252 . S
O206 In195 2.294 1_655 S
O206 C199 1.240 1_655 S
O207 In195 2.326 . S
O207 C199 1.252 . S
C208 C209 1.391 . S
C208 C210 1.394 . S
C208 H224 0.931 . S
C209 C208 1.391 . S
C209 C213 1.376 . S
C210 C208 1.394 . S
C210 C211 1.369 . S
C210 C214 1.531 . S
C211 C210 1.369 . S
C211 C212 1.410 . S
C211 C219 1.503 . S
C212 C211 1.410 . S
C212 C213 1.392 . S
C212 C215 1.511 . S
C213 C209 1.376 . S
C213 C212 1.392 . S
C213 H225 0.929 . S
C214 C210 1.531 . S
C214 H226 0.960 . S
C214 H227 0.962 . S
C214 H228 0.960 . S
C215 C212 1.511 . S
C215 H229 0.961 . S
C215 H230 0.961 . S
C215 H231 0.961 . S
C216 C217 1.370 . S
C216 C218 1.363 . S
C216 H232 0.931 . S
C217 C216 1.370 . S
C217 C221 1.408 . S
C218 C216 1.363 . S
C218 C219 1.370 . S
C218 C222 1.524 . S
C219 C211 1.503 . S
C219 C218 1.370 . S
C219 C220 1.403 . S
C220 C219 1.403 . S
C220 C221 1.404 . S
C220 C223 1.539 . S
C221 C217 1.408 . S
C221 C220 1.404 . S
C221 H233 0.930 . S
C222 C218 1.524 . S
C222 H234 0.956 . S
C222 H235 0.961 . S
C222 H236 0.961 . S
C223 C220 1.539 . S
C223 H237 0.958 . S
C223 H238 0.961 . S
C223 H239 0.960 . S
H224 C208 0.931 . S
H225 C213 0.929 . S
H226 C214 0.960 . S
H227 C214 0.962 . S
H228 C214 0.960 . S
H229 C215 0.961 . S
H230 C215 0.961 . S
H231 C215 0.961 . S
H232 C216 0.931 . S
H233 C221 0.930 . S
H234 C222 0.956 . S
H235 C222 0.961 . S
H236 C222 0.961 . S
H237 C223 0.958 . S
H238 C223 0.961 . S
H239 C223 0.960 . S
C240 C241 1.391 . S
C240 C242 1.394 . S
C240 H256 0.931 . S
C241 C240 1.391 . S
C241 C245 1.376 . S
C242 C240 1.394 . S
C242 C243 1.369 . S
C242 C246 1.531 . S
C243 C242 1.369 . S
C243 C244 1.410 . S
C243 C251 1.503 . S
C244 C243 1.410 . S
C244 C245 1.392 . S
C244 C247 1.511 . S
C245 C241 1.376 . S
C245 C244 1.392 . S
C245 H257 0.929 . S
C246 C242 1.531 . S
C246 H258 0.960 . S
C246 H259 0.962 . S
C246 H260 0.960 . S
C247 C244 1.511 . S
C247 H261 0.961 . S
C247 H262 0.961 . S
C247 H263 0.961 . S
C248 C249 1.370 . S
C248 C250 1.363 . S
C248 H264 0.931 . S
C249 C248 1.370 . S
C249 C253 1.408 . S
C250 C248 1.363 . S
C250 C251 1.370 . S
C250 C254 1.524 . S
C251 C243 1.503 . S
C251 C250 1.370 . S
C251 C252 1.403 . S
C252 C251 1.403 . S
C252 C253 1.404 . S
C252 C255 1.539 . S
C253 C249 1.408 . S
C253 C252 1.404 . S
C253 H265 0.930 . S
C254 C250 1.524 . S
C254 H266 0.956 . S
C254 H267 0.961 . S
C254 H268 0.961 . S
C255 C252 1.539 . S
C255 H269 0.958 . S
C255 H270 0.961 . S
C255 H271 0.960 . S
H256 C240 0.931 . S
H257 C245 0.929 . S
H258 C246 0.960 . S
H259 C246 0.962 . S
H260 C246 0.960 . S
H261 C247 0.961 . S
H262 C247 0.961 . S
H263 C247 0.961 . S
H264 C248 0.931 . S
H265 C253 0.930 . S
H266 C254 0.956 . S
H267 C254 0.961 . S
H268 C254 0.961 . S
H269 C255 0.958 . S
H270 C255 0.961 . S
H271 C255 0.960 . S
C272 C273 1.391 . S
C272 C274 1.394 . S
C272 H288 0.931 . S
C273 C272 1.391 . S
C273 C277 1.376 . S
C274 C272 1.394 . S
C274 C275 1.369 . S
C274 C278 1.531 . S
C275 C274 1.369 . S
C275 C276 1.410 . S
C275 C283 1.503 . S
C276 C275 1.410 . S
C276 C277 1.392 . S
C276 C279 1.511 . S
C277 C273 1.376 . S
C277 C276 1.392 . S
C277 H289 0.929 . S
C278 C274 1.531 . S
C278 H290 0.960 . S
C278 H291 0.962 . S
C278 H292 0.960 . S
C279 C276 1.511 . S
C279 H293 0.961 . S
C279 H294 0.961 . S
C279 H295 0.961 . S
C280 C281 1.370 . S
C280 C282 1.363 . S
C280 H296 0.931 . S
C281 C280 1.370 . S
C281 C285 1.408 . S
C282 C280 1.363 . S
C282 C283 1.370 . S
C282 C286 1.524 . S
C283 C275 1.503 . S
C283 C282 1.370 . S
C283 C284 1.403 . S
C284 C283 1.403 . S
C284 C285 1.404 . S
C284 C287 1.539 . S
C285 C281 1.408 . S
C285 C284 1.404 . S
C285 H297 0.930 . S
C286 C282 1.524 . S
C286 H298 0.956 . S
C286 H299 0.961 . S
C286 H300 0.961 . S
C287 C284 1.539 . S
C287 H301 0.958 . S
C287 H302 0.961 . S
C287 H303 0.960 . S
H288 C272 0.931 . S
H289 C277 0.929 . S
H290 C278 0.960 . S
H291 C278 0.962 . S
H292 C278 0.960 . S
H293 C279 0.961 . S
H294 C279 0.961 . S
H295 C279 0.961 . S
H296 C280 0.931 . S
H297 C285 0.930 . S
H298 C286 0.956 . S
H299 C286 0.961 . S
H300 C286 0.961 . S
H301 C287 0.958 . S
H302 C287 0.961 . S
H303 C287 0.960 . S
C304 C305 1.391 . S
C304 C306 1.394 . S
C304 H320 0.931 . S
C305 C304 1.391 . S
C305 C309 1.376 . S
C306 C304 1.394 . S
C306 C307 1.369 . S
C306 C310 1.531 . S
C307 C306 1.369 . S
C307 C308 1.410 . S
C307 C315 1.503 . S
C308 C307 1.410 . S
C308 C309 1.392 . S
C308 C311 1.511 . S
C309 C305 1.376 . S
C309 C308 1.392 . S
C309 H321 0.929 . S
C310 C306 1.531 . S
C310 H322 0.960 . S
C310 H323 0.962 . S
C310 H324 0.960 1_556 S
C311 C308 1.511 . S
C311 H325 0.961 . S
C311 H326 0.961 . S
C311 H327 0.961 . S
C312 C313 1.370 . S
C312 C314 1.363 . S
C312 H328 0.931 . S
C313 C312 1.370 . S
C313 C317 1.408 . S
C314 C312 1.363 . S
C314 C315 1.370 . S
C314 C318 1.524 . S
C315 C307 1.503 . S
C315 C314 1.370 . S
C315 C316 1.403 . S
C316 C315 1.403 . S
C316 C317 1.404 . S
C316 C319 1.539 1_556 S
C317 C313 1.408 . S
C317 C316 1.404 . S
C317 H329 0.930 . S
C318 C314 1.524 . S
C318 H330 0.956 . S
C318 H331 0.961 . S
C318 H332 0.961 . S
C319 C316 1.539 1_554 S
C319 H333 0.958 . S
C319 H334 0.961 . S
C319 H335 0.960 . S
H320 C304 0.931 . S
H321 C309 0.929 . S
H322 C310 0.960 . S
H323 C310 0.962 . S
H324 C310 0.960 1_554 S
H325 C311 0.961 . S
H326 C311 0.961 . S
H327 C311 0.961 . S
H328 C312 0.931 . S
H329 C317 0.930 . S
H330 C318 0.956 . S
H331 C318 0.961 . S
H332 C318 0.961 . S
H333 C319 0.958 . S
H334 C319 0.961 . S
H335 C319 0.960 . S
C336 C337 1.391 . S
C336 C338 1.394 . S
C336 H352 0.931 . S
C337 C336 1.391 . S
C337 C341 1.376 . S
C338 C336 1.394 . S
C338 C339 1.369 . S
C338 C342 1.531 . S
C339 C338 1.369 . S
C339 C340 1.410 . S
C339 C347 1.503 . S
C340 C339 1.410 . S
C340 C341 1.392 . S
C340 C343 1.511 . S
C341 C337 1.376 . S
C341 C340 1.392 . S
C341 H353 0.929 . S
C342 C338 1.531 . S
C342 H354 0.960 . S
C342 H355 0.962 . S
C342 H356 0.960 . S
C343 C340 1.511 . S
C343 H357 0.961 . S
C343 H358 0.961 . S
C343 H359 0.961 1_556 S
C344 C345 1.370 . S
C344 C346 1.363 . S
C344 H360 0.931 . S
C345 C344 1.370 . S
C345 C349 1.408 1_556 S
C346 C344 1.363 . S
C346 C347 1.370 . S
C346 C350 1.524 . S
C347 C339 1.503 . S
C347 C346 1.370 . S
C347 C348 1.396 1_556 S
C348 C347 1.396 1_554 S
C348 C349 1.405 . S
C348 C351 1.545 . S
C349 C345 1.408 1_554 S
C349 C348 1.405 . S
C349 H361 0.930 . S
C350 C346 1.524 . S
C350 H362 0.956 . S
C350 H363 0.961 . S
C350 H364 0.961 . S
C351 C348 1.545 . S
C351 H365 0.958 . S
C351 H366 0.961 . S
C351 H367 0.960 . S
H352 C336 0.931 . S
H353 C341 0.929 . S
H354 C342 0.960 . S
H355 C342 0.962 . S
H356 C342 0.960 . S
H357 C343 0.961 . S
H358 C343 0.961 . S
H359 C343 0.961 1_554 S
H360 C344 0.931 . S
H361 C349 0.930 . S
H362 C350 0.956 . S
H363 C350 0.961 . S
H364 C350 0.961 . S
H365 C351 0.958 . S
H366 C351 0.961 . S
H367 C351 0.960 . S
C368 C369 1.391 . S
C368 C370 1.394 . S
C368 H384 0.931 . S
C369 C368 1.391 . S
C369 C373 1.376 . S
C370 C368 1.394 . S
C370 C371 1.369 . S
C370 C374 1.531 . S
C371 C370 1.369 . S
C371 C372 1.410 . S
C371 C379 1.503 . S
C372 C371 1.410 . S
C372 C373 1.392 . S
C372 C375 1.511 . S
C373 C369 1.376 . S
C373 C372 1.392 . S
C373 H385 0.929 . S
C374 C370 1.531 . S
C374 H386 0.960 . S
C374 H387 0.962 . S
C374 H388 0.960 . S
C375 C372 1.511 . S
C375 H389 0.961 . S
C375 H390 0.961 . S
C375 H391 0.961 . S
C376 C377 1.370 . S
C376 C378 1.363 . S
C376 H392 0.931 . S
C377 C376 1.370 . S
C377 C381 1.408 . S
C378 C376 1.363 . S
C378 C379 1.370 . S
C378 C382 1.524 . S
C379 C371 1.503 . S
C379 C378 1.370 . S
C379 C380 1.403 . S
C380 C379 1.403 . S
C380 C381 1.404 . S
C380 C383 1.539 . S
C381 C377 1.408 . S
C381 C380 1.404 . S
C381 H393 0.930 . S
C382 C378 1.524 . S
C382 H394 0.956 . S
C382 H395 0.961 . S
C382 H396 0.961 . S
C383 C380 1.539 . S
C383 H397 0.958 . S
C383 H398 0.961 . S
C383 H399 0.960 . S
H384 C368 0.931 . S
H385 C373 0.929 . S
H386 C374 0.960 . S
H387 C374 0.962 . S
H388 C374 0.960 . S
H389 C375 0.961 . S
H390 C375 0.961 . S
H391 C375 0.961 . S
H392 C376 0.931 . S
H393 C381 0.930 . S
H394 C382 0.956 . S
H395 C382 0.961 . S
H396 C382 0.961 . S
H397 C383 0.958 . S
H398 C383 0.961 . S
H399 C383 0.960 . S
C400 C401 1.391 . S
C400 C402 1.394 . S
C400 H416 0.931 . S
C401 C400 1.391 . S
C401 C405 1.376 . S
C402 C400 1.394 . S
C402 C403 1.369 . S
C402 C406 1.531 . S
C403 C402 1.369 . S
C403 C404 1.410 . S
C403 C411 1.503 . S
C404 C403 1.410 . S
C404 C405 1.392 . S
C404 C407 1.511 . S
C405 C401 1.376 . S
C405 C404 1.392 . S
C405 H417 0.929 . S
C406 C402 1.531 . S
C406 H418 0.960 . S
C406 H419 0.962 . S
C406 H420 0.960 . S
C407 C404 1.511 . S
C407 H421 0.961 . S
C407 H422 0.961 . S
C407 H423 0.961 . S
C408 C409 1.370 . S
C408 C410 1.363 . S
C408 H424 0.931 . S
C409 C408 1.370 . S
C409 C413 1.408 . S
C410 C408 1.363 . S
C410 C411 1.370 . S
C410 C414 1.524 . S
C411 C403 1.503 . S
C411 C410 1.370 . S
C411 C412 1.403 . S
C412 C411 1.403 . S
C412 C413 1.404 . S
C412 C415 1.539 . S
C413 C409 1.408 . S
C413 C412 1.404 . S
C413 H425 0.930 . S
C414 C410 1.524 . S
C414 H426 0.956 . S
C414 H427 0.961 . S
C414 H428 0.961 . S
C415 C412 1.539 . S
C415 H429 0.958 . S
C415 H430 0.961 . S
C415 H431 0.960 . S
H416 C400 0.931 . S
H417 C405 0.929 . S
H418 C406 0.960 . S
H419 C406 0.962 . S
H420 C406 0.960 . S
H421 C407 0.961 . S
H422 C407 0.961 . S
H423 C407 0.961 . S
H424 C408 0.931 . S
H425 C413 0.930 . S
H426 C414 0.956 . S
H427 C414 0.961 . S
H428 C414 0.961 . S
H429 C415 0.958 . S
H430 C415 0.961 . S
H431 C415 0.960 . S
C432 C433 1.391 . S
C432 C434 1.394 . S
C432 H448 0.931 . S
C433 C432 1.391 . S
C433 C437 1.376 . S
C434 C432 1.394 . S
C434 C435 1.369 . S
C434 C438 1.531 . S
C435 C434 1.369 . S
C435 C436 1.410 . S
C435 C443 1.503 . S
C436 C435 1.410 . S
C436 C437 1.392 . S
C436 C439 1.511 . S
C437 C433 1.376 . S
C437 C436 1.392 . S
C437 H449 0.929 . S
C438 C434 1.531 . S
C438 H450 0.960 . S
C438 H451 0.962 . S
C438 H452 0.960 . S
C439 C436 1.511 . S
C439 H453 0.961 . S
C439 H454 0.961 . S
C439 H455 0.961 . S
C440 C441 1.370 . S
C440 C442 1.363 . S
C440 H456 0.931 . S
C441 C440 1.370 . S
C441 C445 1.408 . S
C442 C440 1.363 . S
C442 C443 1.370 . S
C442 C446 1.524 . S
C443 C435 1.503 . S
C443 C442 1.370 . S
C443 C444 1.403 . S
C444 C443 1.403 . S
C444 C445 1.404 . S
C444 C447 1.539 . S
C445 C441 1.408 . S
C445 C444 1.404 . S
C445 H457 0.930 . S
C446 C442 1.524 . S
C446 H458 0.956 . S
C446 H459 0.961 . S
C446 H460 0.961 . S
C447 C444 1.539 . S
C447 H461 0.958 . S
C447 H462 0.961 . S
C447 H463 0.960 . S
H448 C432 0.931 . S
H449 C437 0.929 . S
H450 C438 0.960 . S
H451 C438 0.962 . S
H452 C438 0.960 . S
H453 C439 0.961 . S
H454 C439 0.961 . S
H455 C439 0.961 . S
H456 C440 0.931 . S
H457 C445 0.930 . S
H458 C446 0.956 . S
H459 C446 0.961 . S
H460 C446 0.961 . S
H461 C447 0.958 . S
H462 C447 0.961 . S
H463 C447 0.960 . S
C464 C465 1.391 . S
C464 C466 1.394 . S
C464 H480 0.931 . S
C465 C464 1.391 . S
C465 C469 1.376 . S
C466 C464 1.394 . S
C466 C467 1.369 . S
C466 C470 1.531 . S
C467 C466 1.369 . S
C467 C468 1.410 . S
C467 C475 1.503 . S
C468 C467 1.410 . S
C468 C469 1.392 . S
C468 C471 1.511 1_556 S
C469 C465 1.376 . S
C469 C468 1.392 . S
C469 H481 0.929 . S
C470 C466 1.531 . S
C470 H482 0.960 . S
C470 H483 0.962 . S
C470 H484 0.960 . S
C471 C468 1.511 1_554 S
C471 H485 0.961 . S
C471 H486 0.961 . S
C471 H487 0.961 . S
C472 C473 1.370 . S
C472 C474 1.363 . S
C472 H488 0.931 . S
C473 C472 1.370 . S
C473 C477 1.408 . S
C474 C472 1.363 . S
C474 C475 1.370 . S
C474 C478 1.524 . S
C475 C467 1.503 . S
C475 C474 1.370 . S
C475 C476 1.403 . S
C476 C475 1.403 . S
C476 C477 1.404 . S
C476 C479 1.539 . S
C477 C473 1.408 . S
C477 C476 1.404 . S
C477 H489 0.933 . S
C478 C474 1.524 . S
C478 H490 0.956 . S
C478 H491 0.961 . S
C478 H492 0.961 . S
C479 C476 1.539 . S
C479 H493 0.958 . S
C479 H494 0.961 . S
C479 H495 0.960 . S
H480 C464 0.931 . S
H481 C469 0.929 . S
H482 C470 0.960 . S
H483 C470 0.962 . S
H484 C470 0.960 . S
H485 C471 0.961 . S
H486 C471 0.961 . S
H487 C471 0.961 . S
H488 C472 0.931 . S
H489 C477 0.933 . S
H490 C478 0.956 . S
H491 C478 0.961 . S
H492 C478 0.961 . S
H493 C479 0.958 . S
H494 C479 0.961 . S
H495 C479 0.960 . S
C496 C497 1.391 . S
C496 C498 1.394 . S
C496 H512 0.931 . S
C497 C496 1.391 . S
C497 C501 1.376 . S
C498 C496 1.394 . S
C498 C499 1.369 . S
C498 C502 1.531 . S
C499 C498 1.369 . S
C499 C500 1.410 . S
C499 C507 1.503 . S
C500 C499 1.410 . S
C500 C501 1.392 . S
C500 C503 1.511 . S
C501 C497 1.376 . S
C501 C500 1.392 . S
C501 H513 0.929 . S
C502 C498 1.531 . S
C502 H514 0.960 . S
C502 H515 0.962 . S
C502 H516 0.960 . S
C503 C500 1.511 . S
C503 H517 0.961 . S
C503 H518 0.961 . S
C503 H519 0.961 . S
C504 C505 1.370 . S
C504 C506 1.363 . S
C504 H520 0.931 . S
C505 C504 1.370 . S
C505 C509 1.408 . S
C506 C504 1.363 . S
C506 C507 1.370 . S
C506 C510 1.524 . S
C507 C499 1.503 . S
C507 C506 1.370 . S
C507 C508 1.403 . S
C508 C507 1.403 . S
C508 C509 1.404 . S
C508 C511 1.539 . S
C509 C505 1.408 . S
C509 C508 1.404 . S
C509 H521 0.930 . S
C510 C506 1.524 . S
C510 H522 0.956 . S
C510 H523 0.961 . S
C510 H524 0.961 . S
C511 C508 1.539 . S
C511 H525 0.958 . S
C511 H526 0.961 . S
C511 H527 0.960 . S
H512 C496 0.931 . S
H513 C501 0.929 . S
H514 C502 0.960 . S
H515 C502 0.962 . S
H516 C502 0.960 . S
H517 C503 0.961 . S
H518 C503 0.961 . S
H519 C503 0.961 . S
H520 C504 0.931 . S
H521 C509 0.930 . S
H522 C510 0.956 . S
H523 C510 0.961 . S
H524 C510 0.961 . S
H525 C511 0.958 . S
H526 C511 0.961 . S
H527 C511 0.960 . S
C528 C529 1.391 . S
C528 C530 1.394 . S
C528 H544 0.931 . S
C529 C528 1.391 . S
C529 C533 1.376 . S
C530 C528 1.394 . S
C530 C531 1.369 . S
C530 C534 1.531 . S
C531 C530 1.369 . S
C531 C532 1.410 . S
C531 C539 1.503 . S
C532 C531 1.410 . S
C532 C533 1.392 . S
C532 C535 1.511 . S
C533 C529 1.376 . S
C533 C532 1.392 . S
C533 H545 0.929 . S
C534 C530 1.531 . S
C534 H546 0.960 . S
C534 H547 0.962 . S
C534 H548 0.960 . S
C535 C532 1.511 . S
C535 H549 0.961 . S
C535 H550 0.961 . S
C535 H551 0.961 . S
C536 C537 1.370 . S
C536 C538 1.363 . S
C536 H552 0.931 . S
C537 C536 1.370 . S
C537 C541 1.408 . S
C538 C536 1.363 . S
C538 C539 1.370 . S
C538 C542 1.524 . S
C539 C531 1.503 . S
C539 C538 1.370 . S
C539 C540 1.403 . S
C540 C539 1.403 . S
C540 C541 1.404 . S
C540 C543 1.539 . S
C541 C537 1.408 . S
C541 C540 1.404 . S
C541 H553 0.930 . S
C542 C538 1.524 . S
C542 H554 0.956 . S
C542 H555 0.961 . S
C542 H556 0.961 . S
C543 C540 1.539 . S
C543 H557 0.958 . S
C543 H558 0.961 . S
C543 H559 0.960 . S
H544 C528 0.931 . S
H545 C533 0.929 . S
H546 C534 0.960 . S
H547 C534 0.962 . S
H548 C534 0.960 . S
H549 C535 0.961 . S
H550 C535 0.961 . S
H551 C535 0.961 . S
H552 C536 0.931 . S
H553 C541 0.930 . S
H554 C542 0.956 . S
H555 C542 0.961 . S
H556 C542 0.961 . S
H557 C543 0.958 . S
H558 C543 0.961 . S
H559 C543 0.960 . S
C560 C561 1.391 . S
C560 C562 1.394 . S
C560 H576 0.931 . S
C561 C560 1.391 . S
C561 C565 1.376 . S
C562 C560 1.394 . S
C562 C563 1.369 . S
C562 C566 1.531 . S
C563 C562 1.369 . S
C563 C564 1.410 . S
C563 C571 1.503 . S
C564 C563 1.410 . S
C564 C565 1.392 . S
C564 C567 1.511 . S
C565 C561 1.376 . S
C565 C564 1.392 . S
C565 H577 0.929 . S
C566 C562 1.531 . S
C566 H578 0.960 . S
C566 H579 0.962 . S
C566 H580 0.960 . S
C567 C564 1.511 . S
C567 H581 0.961 . S
C567 H582 0.961 . S
C567 H583 0.961 . S
C568 C569 1.370 . S
C568 C570 1.363 . S
C568 H584 0.931 . S
C569 C568 1.370 . S
C569 C573 1.408 . S
C570 C568 1.363 . S
C570 C571 1.370 . S
C570 C574 1.524 . S
C571 C563 1.503 . S
C571 C570 1.370 . S
C571 C572 1.403 . S
C572 C571 1.403 . S
C572 C573 1.404 . S
C572 C575 1.539 . S
C573 C569 1.408 . S
C573 C572 1.404 . S
C573 H585 0.930 . S
C574 C570 1.524 . S
C574 H586 0.956 . S
C574 H587 0.961 . S
C574 H588 0.961 . S
C575 C572 1.539 . S
C575 H589 0.958 . S
C575 H590 0.961 . S
C575 H591 0.960 . S
H576 C560 0.931 . S
H577 C565 0.929 . S
H578 C566 0.960 . S
H579 C566 0.962 . S
H580 C566 0.960 . S
H581 C567 0.961 . S
H582 C567 0.961 . S
H583 C567 0.961 . S
H584 C568 0.931 . S
H585 C573 0.930 . S
H586 C574 0.956 . S
H587 C574 0.961 . S
H588 C574 0.961 . S
H589 C575 0.958 . S
H590 C575 0.961 . S
H591 C575 0.960 . S
C592 C593 1.391 . S
C592 C594 1.394 . S
C592 H608 0.931 . S
C593 C592 1.391 . S
C593 C597 1.376 . S
C594 C592 1.394 . S
C594 C595 1.369 . S
C594 C598 1.531 . S
C595 C594 1.369 . S
C595 C596 1.410 . S
C595 C603 1.503 . S
C596 C595 1.410 . S
C596 C597 1.392 . S
C596 C599 1.511 . S
C597 C593 1.376 . S
C597 C596 1.392 . S
C597 H609 0.929 . S
C598 C594 1.531 . S
C598 H610 0.960 . S
C598 H611 0.962 . S
C598 H612 0.960 . S
C599 C596 1.511 . S
C599 H613 0.961 . S
C599 H614 0.961 . S
C599 H615 0.961 . S
C600 C601 1.370 . S
C600 C602 1.363 . S
C600 H616 0.931 . S
C601 C600 1.370 . S
C601 C605 1.408 . S
C602 C600 1.363 . S
C602 C603 1.370 . S
C602 C606 1.524 . S
C603 C595 1.503 . S
C603 C602 1.370 . S
C603 C604 1.403 . S
C604 C603 1.403 . S
C604 C605 1.404 . S
C604 C607 1.539 . S
C605 C601 1.408 . S
C605 C604 1.404 . S
C605 H617 0.930 . S
C606 C602 1.524 . S
C606 H618 0.956 . S
C606 H619 0.961 . S
C606 H620 0.961 . S
C607 C604 1.539 . S
C607 H621 0.958 . S
C607 H622 0.961 . S
C607 H623 0.960 . S
H608 C592 0.931 . S
H609 C597 0.929 . S
H610 C598 0.960 . S
H611 C598 0.962 . S
H612 C598 0.960 . S
H613 C599 0.961 . S
H614 C599 0.961 . S
H615 C599 0.961 . S
H616 C600 0.931 . S
H617 C605 0.930 . S
H618 C606 0.956 . S
H619 C606 0.961 . S
H620 C606 0.961 . S
H621 C607 0.958 . S
H622 C607 0.961 . S
H623 C607 0.960 . S
C624 C625 1.391 . S
C624 C626 1.394 . S
C624 H640 0.931 . S
C625 C624 1.391 . S
C625 C629 1.376 . S
C626 C624 1.394 . S
C626 C627 1.369 . S
C626 C630 1.531 . S
C627 C626 1.369 . S
C627 C628 1.410 . S
C627 C635 1.503 . S
C628 C627 1.410 . S
C628 C629 1.392 . S
C628 C631 1.511 . S
C629 C625 1.376 . S
C629 C628 1.392 . S
C629 H641 0.929 . S
C630 C626 1.531 . S
C630 H642 0.960 . S
C630 H643 0.962 . S
C630 H644 0.960 . S
C631 C628 1.511 . S
C631 H645 0.961 1_556 S
C631 H646 0.961 1_556 S
C631 H647 0.961 . S
C632 C633 1.368 1_554 S
C632 C634 1.360 1_554 S
C632 H648 0.936 . S
C633 C632 1.368 1_556 S
C633 C637 1.408 . S
C634 C632 1.360 1_556 S
C634 C635 1.370 . S
C634 C638 1.524 . S
C635 C627 1.503 . S
C635 C634 1.370 . S
C635 C636 1.403 . S
C636 C635 1.403 . S
C636 C637 1.404 . S
C636 C639 1.539 . S
C637 C633 1.408 . S
C637 C636 1.404 . S
C637 H649 0.930 . S
C638 C634 1.524 . S
C638 H650 0.956 . S
C638 H651 0.961 1_556 S
C638 H652 0.961 1_556 S
C639 C636 1.539 . S
C639 H653 0.958 . S
C639 H654 0.961 . S
C639 H655 0.960 . S
H640 C624 0.931 . S
H641 C629 0.929 . S
H642 C630 0.960 . S
H643 C630 0.962 . S
H644 C630 0.960 . S
H645 C631 0.961 1_554 S
H646 C631 0.961 1_554 S
H647 C631 0.961 . S
H648 C632 0.936 . S
H649 C637 0.930 . S
H650 C638 0.956 . S
H651 C638 0.961 1_554 S
H652 C638 0.961 1_554 S
H653 C639 0.958 . S
H654 C639 0.961 . S
H655 C639 0.960 . S
C656 C657 1.391 . S
C656 C658 1.394 . S
C656 H672 0.931 . S
C657 C656 1.391 . S
C657 C661 1.376 . S
C658 C656 1.394 . S
C658 C659 1.369 . S
C658 C662 1.531 . S
C659 C658 1.369 . S
C659 C660 1.410 . S
C659 C667 1.503 . S
C660 C659 1.410 . S
C660 C661 1.392 . S
C660 C663 1.511 . S
C661 C657 1.376 . S
C661 C660 1.392 . S
C661 H673 0.929 . S
C662 C658 1.531 . S
C662 H674 0.960 . S
C662 H675 0.962 . S
C662 H676 0.960 . S
C663 C660 1.511 . S
C663 H677 0.961 . S
C663 H678 0.961 . S
C663 H679 0.961 . S
C664 C665 1.370 . S
C664 C666 1.363 . S
C664 H680 0.931 . S
C665 C664 1.370 . S
C665 C669 1.408 . S
C666 C664 1.363 . S
C666 C667 1.370 . S
C666 C670 1.524 . S
C667 C659 1.503 . S
C667 C666 1.370 . S
C667 C668 1.403 . S
C668 C667 1.403 . S
C668 C669 1.404 . S
C668 C671 1.539 . S
C669 C665 1.408 . S
C669 C668 1.404 . S
C669 H681 0.930 . S
C670 C666 1.524 . S
C670 H682 0.956 . S
C670 H683 0.961 . S
C670 H684 0.961 . S
C671 C668 1.539 . S
C671 H685 0.958 . S
C671 H686 0.961 . S
C671 H687 0.960 . S
H672 C656 0.931 . S
H673 C661 0.929 . S
H674 C662 0.960 . S
H675 C662 0.962 . S
H676 C662 0.960 . S
H677 C663 0.961 . S
H678 C663 0.961 . S
H679 C663 0.961 . S
H680 C664 0.931 . S
H681 C669 0.930 . S
H682 C670 0.956 . S
H683 C670 0.961 . S
H684 C670 0.961 . S
H685 C671 0.958 . S
H686 C671 0.961 . S
H687 C671 0.960 . S
C688 C689 1.391 . S
C688 C690 1.394 . S
C688 H704 0.931 . S
C689 C688 1.391 . S
C689 C693 1.376 . S
C690 C688 1.394 . S
C690 C691 1.369 . S
C690 C694 1.531 . S
C691 C690 1.369 . S
C691 C692 1.410 . S
C691 C699 1.503 . S
C692 C691 1.410 . S
C692 C693 1.392 . S
C692 C695 1.511 . S
C693 C689 1.376 . S
C693 C692 1.392 . S
C693 H705 0.929 . S
C694 C690 1.531 . S
C694 H706 0.960 . S
C694 H707 0.962 . S
C694 H708 0.960 . S
C695 C692 1.511 . S
C695 H709 0.961 . S
C695 H710 0.961 . S
C695 H711 0.961 . S
C696 C697 1.370 . S
C696 C698 1.363 . S
C696 H712 0.931 . S
C697 C696 1.370 . S
C697 C701 1.408 . S
C698 C696 1.363 . S
C698 C699 1.370 . S
C698 C702 1.524 . S
C699 C691 1.503 . S
C699 C698 1.370 . S
C699 C700 1.403 . S
C700 C699 1.403 . S
C700 C701 1.404 . S
C700 C703 1.539 . S
C701 C697 1.408 . S
C701 C700 1.404 . S
C701 H713 0.930 . S
C702 C698 1.524 . S
C702 H714 0.956 . S
C702 H715 0.961 . S
C702 H716 0.961 . S
C703 C700 1.539 . S
C703 H717 0.958 . S
C703 H718 0.961 . S
C703 H719 0.960 . S
H704 C688 0.931 . S
H705 C693 0.929 . S
H706 C694 0.960 . S
H707 C694 0.962 . S
H708 C694 0.960 . S
H709 C695 0.961 . S
H710 C695 0.961 . S
H711 C695 0.961 . S
H712 C696 0.931 . S
H713 C701 0.930 . S
H714 C702 0.956 . S
H715 C702 0.961 . S
H716 C702 0.961 . S
H717 C703 0.958 . S
H718 C703 0.961 . S
H719 C703 0.960 . S
C720 C721 1.391 . S
C720 C722 1.394 . S
C720 H736 0.931 . S
C721 C720 1.391 . S
C721 C725 1.376 1_455 S
C722 C720 1.394 . S
C722 C723 1.369 . S
C722 C726 1.531 . S
C723 C722 1.369 . S
C723 C724 1.410 1_455 S
C723 C731 1.503 . S
C724 C723 1.410 1_655 S
C724 C725 1.392 . S
C724 C727 1.511 . S
C725 C721 1.376 1_655 S
C725 C724 1.392 . S
C725 H737 0.929 . S
C726 C722 1.531 . S
C726 H738 0.960 . S
C726 H739 0.962 . S
C726 H740 0.960 . S
C727 C724 1.511 . S
C727 H741 0.961 . S
C727 H742 0.961 1_554 S
C727 H743 0.961 . S
C728 C729 1.370 . S
C728 C730 1.363 . S
C728 H744 0.931 . S
C729 C728 1.370 . S
C729 C733 1.408 1_455 S
C730 C728 1.363 . S
C730 C731 1.370 1_556 S
C730 C734 1.524 . S
C731 C723 1.503 . S
C731 C730 1.370 1_554 S
C731 C732 1.403 1_455 S
C732 C731 1.403 1_655 S
C732 C733 1.404 1_554 S
C732 C735 1.539 . S
C733 C729 1.408 1_655 S
C733 C732 1.404 1_556 S
C733 H745 0.930 1_556 S
C734 C730 1.524 . S
C734 H746 0.956 . S
C734 H747 0.961 . S
C734 H748 0.961 . S
C735 C732 1.539 . S
C735 H749 0.958 . S
C735 H750 0.961 . S
C735 H751 0.960 . S
H736 C720 0.931 . S
H737 C725 0.929 . S
H738 C726 0.960 . S
H739 C726 0.962 . S
H740 C726 0.960 . S
H741 C727 0.961 . S
H742 C727 0.961 1_556 S
H743 C727 0.961 . S
H744 C728 0.931 . S
H745 C733 0.930 1_554 S
H746 C734 0.956 . S
H747 C734 0.961 . S
H748 C734 0.961 . S
H749 C735 0.958 . S
H750 C735 0.961 . S
H751 C735 0.960 . S
C752 C753 1.391 . S
C752 C754 1.394 . S
C752 H768 0.931 . S
C753 C752 1.391 . S
C753 C757 1.376 . S
C754 C752 1.394 . S
C754 C755 1.369 . S
C754 C758 1.531 . S
C755 C754 1.369 . S
C755 C756 1.410 . S
C755 C763 1.503 . S
C756 C755 1.410 . S
C756 C757 1.392 . S
C756 C759 1.511 . S
C757 C753 1.376 . S
C757 C756 1.392 . S
C757 H769 0.929 . S
C758 C754 1.531 . S
C758 H770 0.960 . S
C758 H771 0.962 . S
C758 H772 0.960 . S
C759 C756 1.511 . S
C759 H773 0.961 . S
C759 H774 0.961 . S
C759 H775 0.961 . S
C760 C761 1.370 . S
C760 C762 1.363 . S
C760 H776 0.931 . S
C761 C760 1.370 . S
C761 C765 1.408 . S
C762 C760 1.363 . S
C762 C763 1.370 . S
C762 C766 1.524 . S
C763 C755 1.503 . S
C763 C762 1.370 . S
C763 C764 1.403 . S
C764 C763 1.403 . S
C764 C765 1.404 . S
C764 C767 1.539 . S
C765 C761 1.408 . S
C765 C764 1.404 . S
C765 H777 0.930 . S
C766 C762 1.524 . S
C766 H778 0.956 . S
C766 H779 0.961 . S
C766 H780 0.961 . S
C767 C764 1.539 . S
C767 H781 0.958 . S
C767 H782 0.961 . S
C767 H783 0.960 . S
H768 C752 0.931 . S
H769 C757 0.929 . S
H770 C758 0.960 . S
H771 C758 0.962 . S
H772 C758 0.960 . S
H773 C759 0.961 . S
H774 C759 0.961 . S
H775 C759 0.961 . S
H776 C760 0.931 . S
H777 C765 0.930 . S
H778 C766 0.956 . S
H779 C766 0.961 . S
H780 C766 0.961 . S
H781 C767 0.958 . S
H782 C767 0.961 . S
H783 C767 0.960 . S
C784 C785 1.391 . S
C784 C786 1.394 . S
C784 H800 0.931 . S
C785 C784 1.391 . S
C785 C789 1.376 . S
C786 C784 1.394 . S
C786 C787 1.369 . S
C786 C790 1.531 . S
C787 C786 1.369 . S
C787 C788 1.410 . S
C787 C795 1.503 . S
C788 C787 1.410 . S
C788 C789 1.392 . S
C788 C791 1.511 . S
C789 C785 1.376 . S
C789 C788 1.392 . S
C789 H801 0.929 . S
C790 C786 1.531 . S
C790 H802 0.960 . S
C790 H803 0.962 . S
C790 H804 0.960 . S
C791 C788 1.511 . S
C791 H805 0.961 . S
C791 H806 0.961 . S
C791 H807 0.961 . S
C792 C793 1.370 . S
C792 C794 1.363 . S
C792 H808 0.931 . S
C793 C792 1.370 . S
C793 C797 1.408 . S
C794 C792 1.363 . S
C794 C795 1.370 . S
C794 C798 1.524 . S
C795 C787 1.503 . S
C795 C794 1.370 . S
C795 C796 1.403 . S
C796 C795 1.403 . S
C796 C797 1.404 . S
C796 C799 1.539 . S
C797 C793 1.408 . S
C797 C796 1.404 . S
C797 H809 0.930 . S
C798 C794 1.524 . S
C798 H810 0.956 . S
C798 H811 0.961 . S
C798 H812 0.961 . S
C799 C796 1.539 . S
C799 H813 0.958 . S
C799 H814 0.961 . S
C799 H815 0.960 . S
H800 C784 0.931 . S
H801 C789 0.929 . S
H802 C790 0.960 . S
H803 C790 0.962 . S
H804 C790 0.960 . S
H805 C791 0.961 . S
H806 C791 0.961 . S
H807 C791 0.961 . S
H808 C792 0.931 . S
H809 C797 0.930 . S
H810 C798 0.956 . S
H811 C798 0.961 . S
H812 C798 0.961 . S
H813 C799 0.958 . S
H814 C799 0.961 . S
H815 C799 0.960 . S
C816 C817 1.391 . S
C816 C818 1.394 . S
C816 H832 0.931 . S
C817 C816 1.391 . S
C817 C821 1.376 . S
C818 C816 1.394 . S
C818 C819 1.369 . S
C818 C822 1.531 . S
C819 C818 1.369 . S
C819 C820 1.410 . S
C819 C827 1.503 . S
C820 C819 1.410 . S
C820 C821 1.392 . S
C820 C823 1.511 . S
C821 C817 1.376 . S
C821 C820 1.392 . S
C821 H833 0.929 . S
C822 C818 1.531 . S
C822 H834 0.960 . S
C822 H835 0.962 . S
C822 H836 0.960 . S
C823 C820 1.511 . S
C823 H837 0.961 . S
C823 H838 0.961 . S
C823 H839 0.961 . S
C824 C825 1.370 . S
C824 C826 1.363 . S
C824 H840 0.931 . S
C825 C824 1.370 . S
C825 C829 1.408 . S
C826 C824 1.363 . S
C826 C827 1.370 . S
C826 C830 1.524 . S
C827 C819 1.503 . S
C827 C826 1.370 . S
C827 C828 1.403 . S
C828 C827 1.403 . S
C828 C829 1.404 . S
C828 C831 1.539 . S
C829 C825 1.408 . S
C829 C828 1.404 . S
C829 H841 0.930 . S
C830 C826 1.524 . S
C830 H842 0.956 . S
C830 H843 0.961 . S
C830 H844 0.961 . S
C831 C828 1.539 . S
C831 H845 0.958 . S
C831 H846 0.961 . S
C831 H847 0.960 . S
H832 C816 0.931 . S
H833 C821 0.929 . S
H834 C822 0.960 . S
H835 C822 0.962 . S
H836 C822 0.960 . S
H837 C823 0.961 . S
H838 C823 0.961 . S
H839 C823 0.961 . S
H840 C824 0.931 . S
H841 C829 0.930 . S
H842 C830 0.956 . S
H843 C830 0.961 . S
H844 C830 0.961 . S
H845 C831 0.958 . S
H846 C831 0.961 . S
H847 C831 0.960 . S
C848 C849 1.391 . S
C848 C850 1.394 . S
C848 H864 0.931 . S
C849 C848 1.391 . S
C849 C853 1.376 . S
C850 C848 1.394 . S
C850 C851 1.369 . S
C850 C854 1.531 . S
C851 C850 1.369 . S
C851 C852 1.410 . S
C851 C859 1.503 . S
C852 C851 1.410 . S
C852 C853 1.392 . S
C852 C855 1.511 . S
C853 C849 1.376 . S
C853 C852 1.392 . S
C853 H865 0.929 . S
C854 C850 1.531 . S
C854 H866 0.960 . S
C854 H867 0.962 . S
C854 H868 0.960 . S
C855 C852 1.511 . S
C855 H869 0.961 . S
C855 H870 0.961 . S
C855 H871 0.961 . S
C856 C857 1.370 . S
C856 C858 1.363 . S
C856 H872 0.931 . S
C857 C856 1.370 . S
C857 C861 1.408 . S
C858 C856 1.363 . S
C858 C859 1.370 . S
C858 C862 1.524 . S
C859 C851 1.503 . S
C859 C858 1.370 . S
C859 C860 1.403 . S
C860 C859 1.403 . S
C860 C861 1.404 . S
C860 C863 1.539 . S
C861 C857 1.408 . S
C861 C860 1.404 . S
C861 H873 0.930 . S
C862 C858 1.524 . S
C862 H874 0.956 . S
C862 H875 0.961 . S
C862 H876 0.961 . S
C863 C860 1.539 . S
C863 H877 0.958 . S
C863 H878 0.961 . S
C863 H879 0.960 . S
H864 C848 0.931 . S
H865 C853 0.929 . S
H866 C854 0.960 . S
H867 C854 0.962 . S
H868 C854 0.960 . S
H869 C855 0.961 . S
H870 C855 0.961 . S
H871 C855 0.961 . S
H872 C856 0.931 . S
H873 C861 0.930 . S
H874 C862 0.956 . S
H875 C862 0.961 . S
H876 C862 0.961 . S
H877 C863 0.958 . S
H878 C863 0.961 . S
H879 C863 0.960 . S
C880 C881 1.391 . S
C880 C882 1.394 . S
C880 H896 0.931 . S
C881 C880 1.391 . S
C881 C885 1.376 . S
C882 C880 1.394 . S
C882 C883 1.369 . S
C882 C886 1.531 . S
C883 C882 1.369 . S
C883 C884 1.410 . S
C883 C891 1.503 . S
C884 C883 1.410 . S
C884 C885 1.392 . S
C884 C887 1.511 . S
C885 C881 1.376 . S
C885 C884 1.392 . S
C885 H897 0.929 . S
C886 C882 1.531 . S
C886 H898 0.960 . S
C886 H899 0.962 . S
C886 H900 0.960 . S
C887 C884 1.511 . S
C887 H901 0.961 . S
C887 H902 0.961 . S
C887 H903 0.961 . S
C888 C889 1.370 . S
C888 C890 1.363 . S
C888 H904 0.931 . S
C889 C888 1.370 . S
C889 C893 1.408 . S
C890 C888 1.363 . S
C890 C891 1.370 . S
C890 C894 1.524 . S
C891 C883 1.503 . S
C891 C890 1.370 . S
C891 C892 1.403 . S
C892 C891 1.403 . S
C892 C893 1.404 . S
C892 C895 1.539 . S
C893 C889 1.408 . S
C893 C892 1.404 . S
C893 H905 0.930 . S
C894 C890 1.524 . S
C894 H906 0.956 . S
C894 H907 0.961 . S
C894 H908 0.961 . S
C895 C892 1.539 . S
C895 H909 0.958 . S
C895 H910 0.961 . S
C895 H911 0.960 . S
H896 C880 0.931 . S
H897 C885 0.929 . S
H898 C886 0.960 . S
H899 C886 0.962 . S
H900 C886 0.960 . S
H901 C887 0.961 . S
H902 C887 0.961 . S
H903 C887 0.961 . S
H904 C888 0.931 . S
H905 C893 0.930 . S
H906 C894 0.956 . S
H907 C894 0.961 . S
H908 C894 0.961 . S
H909 C895 0.958 . S
H910 C895 0.961 . S
H911 C895 0.960 . S
C912 C913 1.391 . S
C912 C914 1.394 . S
C912 H928 0.931 . S
C913 C912 1.391 . S
C913 C917 1.376 . S
C914 C912 1.394 . S
C914 C915 1.369 . S
C914 C918 1.531 . S
C915 C914 1.369 . S
C915 C916 1.410 . S
C915 C923 1.503 1_565 S
C916 C915 1.410 . S
C916 C917 1.392 . S
C916 C919 1.511 1_565 S
C917 C913 1.376 . S
C917 C916 1.392 . S
C917 H929 0.929 . S
C918 C914 1.531 . S
C918 H930 0.960 . S
C918 H931 0.962 . S
C918 H932 0.960 . S
C919 C916 1.511 1_545 S
C919 H933 0.961 . S
C919 H934 0.961 . S
C919 H935 0.961 . S
C920 C921 1.370 . S
C920 C922 1.363 . S
C920 H936 0.931 . S
C921 C920 1.370 . S
C921 C925 1.408 . S
C922 C920 1.363 . S
C922 C923 1.370 . S
C922 C926 1.524 . S
C923 C915 1.503 1_545 S
C923 C922 1.370 . S
C923 C924 1.403 . S
C924 C923 1.403 . S
C924 C925 1.404 . S
C924 C927 1.539 1_545 S
C925 C921 1.408 . S
C925 C924 1.404 . S
C925 H937 0.930 . S
C926 C922 1.524 . S
C926 H938 0.956 . S
C926 H939 0.961 . S
C926 H940 0.961 . S
C927 C924 1.539 1_565 S
C927 H941 0.958 . S
C927 H942 0.961 1_565 S
C927 H943 0.960 . S
H928 C912 0.931 . S
H929 C917 0.929 . S
H930 C918 0.960 . S
H931 C918 0.962 . S
H932 C918 0.960 . S
H933 C919 0.961 . S
H934 C919 0.961 . S
H935 C919 0.961 . S
H936 C920 0.931 . S
H937 C925 0.930 . S
H938 C926 0.956 . S
H939 C926 0.961 . S
H940 C926 0.961 . S
H941 C927 0.958 . S
H942 C927 0.961 1_545 S
H943 C927 0.960 . S
C944 C945 1.391 . S
C944 C946 1.394 . S
C944 H960 0.931 . S
C945 C944 1.391 . S
C945 C949 1.376 1_655 S
C946 C944 1.394 . S
C946 C947 1.369 1_556 S
C946 C950 1.531 1_556 S
C947 C946 1.369 1_554 S
C947 C948 1.410 1_654 S
C947 C955 1.503 1_545 S
C948 C947 1.410 1_456 S
C948 C949 1.392 . S
C948 C951 1.541 . S
C949 C945 1.376 1_455 S
C949 C948 1.392 . S
C949 H961 0.929 . S
C950 C946 1.531 1_554 S
C950 H962 0.960 1_545 S
C950 H963 0.962 . S
C950 H964 0.960 1_554 S
C951 C948 1.541 . S
C951 H965 0.996 . S
C951 H966 0.938 1_546 S
C951 H967 0.923 1_545 S
C952 C953 1.370 . S
C952 C954 1.363 . S
C952 H968 0.931 . S
C953 C952 1.370 . S
C953 C957 1.408 . S
C954 C952 1.363 . S
C954 C955 1.370 . S
C954 C958 1.524 1_565 S
C955 C947 1.503 1_565 S
C955 C954 1.370 . S
C955 C956 1.403 . S
C956 C955 1.403 . S
C956 C957 1.404 . S
C956 C959 1.539 1_554 S
C957 C953 1.408 . S
C957 C956 1.404 . S
C957 H969 0.930 . S
C958 C954 1.524 1_545 S
C958 H970 0.956 . S
C958 H971 0.961 1_655 S
C958 H972 0.961 1_655 S
C959 C956 1.539 1_556 S
C959 H973 0.958 . S
C959 H974 0.961 . S
C959 H975 0.960 . S
H960 C944 0.931 . S
H961 C949 0.929 . S
H962 C950 0.960 1_565 S
H963 C950 0.962 . S
H964 C950 0.960 1_556 S
H965 C951 0.996 . S
H966 C951 0.938 1_564 S
H967 C951 0.923 1_565 S
H968 C952 0.931 . S
H969 C957 0.930 . S
H970 C958 0.956 . S
H971 C958 0.961 1_455 S
H972 C958 0.961 1_455 S
H973 C959 0.958 . S
H974 C959 0.961 . S
H975 C959 0.960 . S
C976 C977 1.391 . S
C976 C978 1.394 . S
C976 H992 0.931 . S
C977 C976 1.391 . S
C977 C981 1.376 . S
C978 C976 1.394 . S
C978 C979 1.369 . S
C978 C982 1.531 . S
C979 C978 1.369 . S
C979 C980 1.410 . S
C979 C987 1.503 . S
C980 C979 1.410 . S
C980 C981 1.392 . S
C980 C983 1.511 . S
C981 C977 1.376 . S
C981 C980 1.392 . S
C981 H993 0.929 . S
C982 C978 1.531 . S
C982 H994 0.960 . S
C982 H995 0.962 1_655 S
C982 H996 0.960 . S
C983 C980 1.511 . S
C983 H997 0.961 . S
C983 H998 0.961 . S
C983 H999 0.961 . S
C984 C985 1.370 1_455 S
C984 C986 1.363 . S
C984 H1000 0.931 . S
C985 C984 1.370 1_655 S
C985 C989 1.408 . S
C986 C984 1.363 . S
C986 C987 1.370 1_455 S
C986 C990 1.524 . S
C987 C979 1.503 . S
C987 C986 1.370 1_655 S
C987 C988 1.403 . S
C988 C987 1.403 . S
C988 C989 1.404 . S
C988 C991 1.539 . S
C989 C985 1.408 . S
C989 C988 1.404 . S
C989 H1001 0.930 . S
C990 C986 1.524 . S
C990 H1002 0.956 . S
C990 H1003 0.961 . S
C990 H1004 0.961 . S
C991 C988 1.539 . S
C991 H1005 0.958 . S
C991 H1006 0.961 . S
C991 H1007 0.960 . S
H992 C976 0.931 . S
H993 C981 0.929 . S
H994 C982 0.960 . S
H995 C982 0.962 1_455 S
H996 C982 0.960 . S
H997 C983 0.961 . S
H998 C983 0.961 . S
H999 C983 0.961 . S
H1000 C984 0.931 . S
H1001 C989 0.930 . S
H1002 C990 0.956 . S
H1003 C990 0.961 . S
H1004 C990 0.961 . S
H1005 C991 0.958 . S
H1006 C991 0.961 . S
H1007 C991 0.960 . S
C1008 C1009 1.391 . S
C1008 C1010 1.394 . S
C1008 H1024 0.931 . S
C1009 C1008 1.391 . S
C1009 C1013 1.376 . S
C1010 C1008 1.394 . S
C1010 C1011 1.369 . S
C1010 C1014 1.531 . S
C1011 C1010 1.369 . S
C1011 C1012 1.410 . S
C1011 C1019 1.503 . S
C1012 C1011 1.410 . S
C1012 C1013 1.392 . S
C1012 C1015 1.511 . S
C1013 C1009 1.376 . S
C1013 C1012 1.392 . S
C1013 H1025 0.929 . S
C1014 C1010 1.531 . S
C1014 H1026 0.960 . S
C1014 H1027 0.962 . S
C1014 H1028 0.960 . S
C1015 C1012 1.511 . S
C1015 H1029 0.961 . S
C1015 H1030 0.961 . S
C1015 H1031 0.961 . S
C1016 C1017 1.370 . S
C1016 C1018 1.363 . S
C1016 H1032 0.931 . S
C1017 C1016 1.370 . S
C1017 C1021 1.408 . S
C1018 C1016 1.363 . S
C1018 C1019 1.370 . S
C1018 C1022 1.524 . S
C1019 C1011 1.503 . S
C1019 C1018 1.370 . S
C1019 C1020 1.403 . S
C1020 C1019 1.403 . S
C1020 C1021 1.404 . S
C1020 C1023 1.539 . S
C1021 C1017 1.408 . S
C1021 C1020 1.404 . S
C1021 H1033 0.930 . S
C1022 C1018 1.524 . S
C1022 H1034 0.956 . S
C1022 H1035 0.961 . S
C1022 H1036 0.961 . S
C1023 C1020 1.539 . S
C1023 H1037 0.958 . S
C1023 H1038 0.961 . S
C1023 H1039 0.960 . S
H1024 C1008 0.931 . S
H1025 C1013 0.929 . S
H1026 C1014 0.960 . S
H1027 C1014 0.962 . S
H1028 C1014 0.960 . S
H1029 C1015 0.961 . S
H1030 C1015 0.961 . S
H1031 C1015 0.961 . S
H1032 C1016 0.931 . S
H1033 C1021 0.930 . S
H1034 C1022 0.956 . S
H1035 C1022 0.961 . S
H1036 C1022 0.961 . S
H1037 C1023 0.958 . S
H1038 C1023 0.961 . S
H1039 C1023 0.960 . S
C1040 C1041 1.391 . S
C1040 C1042 1.394 . S
C1040 H1056 0.931 . S
C1041 C1040 1.391 . S
C1041 C1045 1.376 . S
C1042 C1040 1.394 . S
C1042 C1043 1.369 . S
C1042 C1046 1.531 . S
C1043 C1042 1.369 . S
C1043 C1044 1.410 . S
C1043 C1051 1.503 . S
C1044 C1043 1.410 . S
C1044 C1045 1.392 . S
C1044 C1047 1.511 . S
C1045 C1041 1.376 . S
C1045 C1044 1.392 . S
C1045 H1057 0.929 . S
C1046 C1042 1.531 . S
C1046 H1058 0.960 . S
C1046 H1059 0.962 . S
C1046 H1060 0.960 . S
C1047 C1044 1.511 . S
C1047 H1061 0.961 . S
C1047 H1062 0.961 1_554 S
C1047 H1063 0.961 . S
C1048 C1049 1.370 . S
C1048 C1050 1.363 . S
C1048 H1064 0.931 . S
C1049 C1048 1.370 . S
C1049 C1053 1.408 . S
C1050 C1048 1.363 . S
C1050 C1051 1.370 1_556 S
C1050 C1054 1.524 . S
C1051 C1043 1.503 . S
C1051 C1050 1.370 1_554 S
C1051 C1052 1.403 . S
C1052 C1051 1.403 . S
C1052 C1053 1.404 1_554 S
C1052 C1055 1.539 . S
C1053 C1049 1.408 . S
C1053 C1052 1.404 1_556 S
C1053 H1065 0.930 1_556 S
C1054 C1050 1.524 . S
C1054 H1066 0.956 . S
C1054 H1067 0.961 . S
C1054 H1068 0.961 . S
C1055 C1052 1.539 . S
C1055 H1069 0.958 . S
C1055 H1070 0.961 . S
C1055 H1071 0.960 . S
H1056 C1040 0.931 . S
H1057 C1045 0.929 . S
H1058 C1046 0.960 . S
H1059 C1046 0.962 . S
H1060 C1046 0.960 . S
H1061 C1047 0.961 . S
H1062 C1047 0.961 1_556 S
H1063 C1047 0.961 . S
H1064 C1048 0.931 . S
H1065 C1053 0.930 1_554 S
H1066 C1054 0.956 . S
H1067 C1054 0.961 . S
H1068 C1054 0.961 . S
H1069 C1055 0.958 . S
H1070 C1055 0.961 . S
H1071 C1055 0.960 . S
C1072 C1073 1.391 . S
C1072 C1074 1.394 . S
C1072 H1088 0.931 . S
C1073 C1072 1.391 . S
C1073 C1077 1.376 . S
C1074 C1072 1.394 . S
C1074 C1075 1.369 . S
C1074 C1078 1.531 . S
C1075 C1074 1.369 . S
C1075 C1076 1.410 . S
C1075 C1083 1.503 . S
C1076 C1075 1.410 . S
C1076 C1077 1.392 . S
C1076 C1079 1.511 . S
C1077 C1073 1.376 . S
C1077 C1076 1.392 . S
C1077 H1089 0.929 . S
C1078 C1074 1.531 . S
C1078 H1090 0.960 . S
C1078 H1091 0.962 . S
C1078 H1092 0.960 . S
C1079 C1076 1.511 . S
C1079 H1093 0.961 . S
C1079 H1094 0.961 . S
C1079 H1095 0.961 . S
C1080 C1081 1.370 . S
C1080 C1082 1.363 . S
C1080 H1096 0.931 . S
C1081 C1080 1.370 . S
C1081 C1085 1.408 . S
C1082 C1080 1.363 . S
C1082 C1083 1.370 . S
C1082 C1086 1.524 . S
C1083 C1075 1.503 . S
C1083 C1082 1.370 . S
C1083 C1084 1.403 . S
C1084 C1083 1.403 . S
C1084 C1085 1.404 . S
C1084 C1087 1.539 . S
C1085 C1081 1.408 . S
C1085 C1084 1.404 . S
C1085 H1097 0.930 . S
C1086 C1082 1.524 . S
C1086 H1098 0.956 . S
C1086 H1099 0.961 . S
C1086 H1100 0.961 . S
C1087 C1084 1.539 . S
C1087 H1101 0.958 . S
C1087 H1102 0.961 . S
C1087 H1103 0.960 . S
H1088 C1072 0.931 . S
H1089 C1077 0.929 . S
H1090 C1078 0.960 . S
H1091 C1078 0.962 . S
H1092 C1078 0.960 . S
H1093 C1079 0.961 . S
H1094 C1079 0.961 . S
H1095 C1079 0.961 . S
H1096 C1080 0.931 . S
H1097 C1085 0.930 . S
H1098 C1086 0.956 . S
H1099 C1086 0.961 . S
H1100 C1086 0.961 . S
H1101 C1087 0.958 . S
H1102 C1087 0.961 . S
H1103 C1087 0.960 . S
C1104 C1105 1.391 . S
C1104 C1106 1.394 . S
C1104 H1120 0.931 . S
C1105 C1104 1.391 . S
C1105 C1109 1.376 . S
C1106 C1104 1.394 . S
C1106 C1107 1.369 . S
C1106 C1110 1.531 . S
C1107 C1106 1.369 . S
C1107 C1108 1.410 . S
C1107 C1115 1.503 . S
C1108 C1107 1.410 . S
C1108 C1109 1.392 . S
C1108 C1111 1.511 . S
C1109 C1105 1.376 . S
C1109 C1108 1.392 . S
C1109 H1121 0.929 . S
C1110 C1106 1.531 . S
C1110 H1122 0.960 . S
C1110 H1123 0.962 . S
C1110 H1124 0.960 . S
C1111 C1108 1.511 . S
C1111 H1125 0.961 . S
C1111 H1126 0.961 . S
C1111 H1127 0.961 . S
C1112 C1113 1.370 . S
C1112 C1114 1.363 . S
C1112 H1128 0.931 . S
C1113 C1112 1.370 . S
C1113 C1117 1.408 . S
C1114 C1112 1.363 . S
C1114 C1115 1.370 . S
C1114 C1118 1.524 . S
C1115 C1107 1.503 . S
C1115 C1114 1.370 . S
C1115 C1116 1.403 . S
C1116 C1115 1.403 . S
C1116 C1117 1.404 . S
C1116 C1119 1.539 . S
C1117 C1113 1.408 . S
C1117 C1116 1.404 . S
C1117 H1129 0.930 . S
C1118 C1114 1.524 . S
C1118 H1130 0.956 . S
C1118 H1131 0.961 . S
C1118 H1132 0.961 . S
C1119 C1116 1.539 . S
C1119 H1133 0.958 . S
C1119 H1134 0.961 . S
C1119 H1135 0.960 . S
H1120 C1104 0.931 . S
H1121 C1109 0.929 . S
H1122 C1110 0.960 . S
H1123 C1110 0.962 . S
H1124 C1110 0.960 . S
H1125 C1111 0.961 . S
H1126 C1111 0.961 . S
H1127 C1111 0.961 . S
H1128 C1112 0.931 . S
H1129 C1117 0.930 . S
H1130 C1118 0.956 . S
H1131 C1118 0.961 . S
H1132 C1118 0.961 . S
H1133 C1119 0.958 . S
H1134 C1119 0.961 . S
H1135 C1119 0.960 . S
C1136 C1137 1.391 . S
C1136 C1138 1.394 . S
C1136 H1152 0.931 . S
C1137 C1136 1.391 . S
C1137 C1141 1.376 . S
C1138 C1136 1.394 . S
C1138 C1139 1.369 . S
C1138 C1142 1.531 . S
C1139 C1138 1.369 . S
C1139 C1140 1.410 . S
C1139 C1147 1.503 . S
C1140 C1139 1.410 . S
C1140 C1141 1.392 . S
C1140 C1143 1.511 . S
C1141 C1137 1.376 . S
C1141 C1140 1.392 . S
C1141 H1153 0.929 . S
C1142 C1138 1.531 . S
C1142 H1154 0.960 . S
C1142 H1155 0.962 . S
C1142 H1156 0.960 . S
C1143 C1140 1.511 . S
C1143 H1157 0.961 . S
C1143 H1158 0.961 . S
C1143 H1159 0.961 . S
C1144 C1145 1.370 . S
C1144 C1146 1.363 . S
C1144 H1160 0.931 . S
C1145 C1144 1.370 . S
C1145 C1149 1.408 . S
C1146 C1144 1.363 . S
C1146 C1147 1.370 . S
C1146 C1150 1.524 . S
C1147 C1139 1.503 . S
C1147 C1146 1.370 . S
C1147 C1148 1.403 . S
C1148 C1147 1.403 . S
C1148 C1149 1.404 . S
C1148 C1151 1.539 . S
C1149 C1145 1.408 . S
C1149 C1148 1.404 . S
C1149 H1161 0.930 . S
C1150 C1146 1.524 . S
C1150 H1162 0.956 . S
C1150 H1163 0.961 . S
C1150 H1164 0.961 . S
C1151 C1148 1.539 . S
C1151 H1165 0.958 . S
C1151 H1166 0.961 . S
C1151 H1167 0.960 . S
H1152 C1136 0.931 . S
H1153 C1141 0.929 . S
H1154 C1142 0.960 . S
H1155 C1142 0.962 . S
H1156 C1142 0.960 . S
H1157 C1143 0.961 . S
H1158 C1143 0.961 . S
H1159 C1143 0.961 . S
H1160 C1144 0.931 . S
H1161 C1149 0.930 . S
H1162 C1150 0.956 . S
H1163 C1150 0.961 . S
H1164 C1150 0.961 . S
H1165 C1151 0.958 . S
H1166 C1151 0.961 . S
H1167 C1151 0.960 . S
C1168 C1169 1.391 . S
C1168 C1170 1.394 . S
C1168 H1184 0.931 . S
C1169 C1168 1.391 . S
C1169 C1173 1.376 . S
C1170 C1168 1.394 . S
C1170 C1171 1.369 . S
C1170 C1174 1.531 1_554 S
C1171 C1170 1.369 . S
C1171 C1172 1.410 . S
C1171 C1179 1.503 1_565 S
C1172 C1171 1.410 . S
C1172 C1173 1.392 . S
C1172 C1175 1.511 1_565 S
C1173 C1169 1.376 . S
C1173 C1172 1.392 . S
C1173 H1185 0.929 . S
C1174 C1170 1.531 1_556 S
C1174 H1186 0.960 . S
C1174 H1187 0.962 . S
C1174 H1188 0.960 . S
C1175 C1172 1.511 1_545 S
C1175 H1189 0.961 . S
C1175 H1190 0.961 . S
C1175 H1191 0.961 . S
C1176 C1177 1.370 . S
C1176 C1178 1.363 1_556 S
C1176 H1192 0.931 . S
C1177 C1176 1.370 . S
C1177 C1181 1.408 . S
C1178 C1176 1.363 1_554 S
C1178 C1179 1.370 . S
C1178 C1182 1.524 . S
C1179 C1171 1.503 1_545 S
C1179 C1178 1.370 . S
C1179 C1180 1.403 1_554 S
C1180 C1179 1.403 1_556 S
C1180 C1181 1.404 . S
C1180 C1183 1.539 1_545 S
C1181 C1177 1.408 . S
C1181 C1180 1.404 . S
C1181 H1193 0.930 . S
C1182 C1178 1.524 . S
C1182 H1194 0.956 . S
C1182 H1195 0.961 . S
C1182 H1196 0.961 . S
C1183 C1180 1.539 1_565 S
C1183 H1197 0.958 . S
C1183 H1198 0.976 . S
C1183 H1199 0.960 . S
H1184 C1168 0.931 . S
H1185 C1173 0.929 . S
H1186 C1174 0.960 . S
H1187 C1174 0.962 . S
H1188 C1174 0.960 . S
H1189 C1175 0.961 . S
H1190 C1175 0.961 . S
H1191 C1175 0.961 . S
H1192 C1176 0.931 . S
H1193 C1181 0.930 . S
H1194 C1182 0.956 . S
H1195 C1182 0.961 . S
H1196 C1182 0.961 . S
H1197 C1183 0.958 . S
H1198 C1183 0.976 . S
H1199 C1183 0.960 . S
C1200 C1201 1.391 . S
C1200 C1202 1.394 . S
C1200 H1216 0.931 . S
C1201 C1200 1.391 . S
C1201 C1205 1.376 1_455 S
C1202 C1200 1.394 . S
C1202 C1203 1.369 . S
C1202 C1206 1.531 1_545 S
C1203 C1202 1.369 . S
C1203 C1204 1.410 1_455 S
C1203 C1211 1.503 1_545 S
C1204 C1203 1.410 1_655 S
C1204 C1205 1.392 . S
C1204 C1207 1.511 . S
C1205 C1201 1.376 1_655 S
C1205 C1204 1.392 . S
C1205 H1217 0.929 . S
C1206 C1202 1.531 1_565 S
C1206 H1218 0.960 . S
C1206 H1219 0.962 . S
C1206 H1220 0.960 . S
C1207 C1204 1.511 . S
C1207 H1221 0.961 . S
C1207 H1222 0.961 . S
C1207 H1223 0.961 . S
C1208 C1209 1.370 . S
C1208 C1210 1.363 . S
C1208 H1224 0.931 . S
C1209 C1208 1.370 . S
C1209 C1213 1.408 1_455 S
C1210 C1208 1.363 . S
C1210 C1211 1.370 . S
C1210 C1214 1.524 1_565 S
C1211 C1203 1.503 1_565 S
C1211 C1210 1.370 . S
C1211 C1212 1.403 1_455 S
C1212 C1211 1.403 1_655 S
C1212 C1213 1.404 . S
C1212 C1215 1.539 . S
C1213 C1209 1.408 1_655 S
C1213 C1212 1.404 . S
C1213 H1225 0.930 . S
C1214 C1210 1.524 1_545 S
C1214 H1226 0.956 . S
C1214 H1227 0.961 . S
C1214 H1228 0.961 . S
C1215 C1212 1.539 . S
C1215 H1229 0.958 . S
C1215 H1230 0.961 . S
C1215 H1231 0.960 . S
H1216 C1200 0.931 . S
H1217 C1205 0.929 . S
H1218 C1206 0.960 . S
H1219 C1206 0.962 . S
H1220 C1206 0.960 . S
H1221 C1207 0.961 . S
H1222 C1207 0.961 . S
H1223 C1207 0.961 . S
H1224 C1208 0.931 . S
H1225 C1213 0.930 . S
H1226 C1214 0.956 . S
H1227 C1214 0.961 . S
H1228 C1214 0.961 . S
H1229 C1215 0.958 . S
H1230 C1215 0.961 . S
H1231 C1215 0.960 . S
C209 C120 1.484 . S
C217 C5 1.489 . S
C241 C185 1.491 . S
C249 C18 1.491 . S
C273 C31 1.485 . S
C281 C107 1.493 . S
C305 C44 1.485 . S
C313 C200 1.498 . S
C337 C55 1.491 . S
C345 C133 1.486 . S
C369 C172 1.490 . S
C377 C70 1.496 . S
C401 C146 1.484 . S
C409 C83 1.493 . S
C433 C94 1.484 . S
C441 C159 1.493 . S
C465 C57 1.621 . S
C473 C42 1.636 1_556 S
C497 C161 1.643 . S
C505 C109 1.621 . S
C529 C81 1.629 . S
C537 C16 1.625 . S
C561 C122 1.639 . S
C569 C174 1.619 . S
C593 C3 1.617 . S
C601 C68 1.634 . S
C625 C198 1.636 . S
C633 C135 1.620 1_556 S
C657 C96 1.636 . S
C665 C29 1.622 . S
C689 C148 1.639 . S
C697 C187 1.621 . S
C721 C10 0.731 . S
C729 C56 0.739 . S
C753 C75 0.731 . S
C761 C23 0.740 . S
C785 C88 0.749 . S
C793 C36 0.745 . S
C817 C49 0.765 . S
C825 C95 0.754 . S
C849 C134 0.757 . S
C857 C108 0.750 . S
C881 C147 0.761 . S
C889 C121 0.752 . S
C913 C186 0.762 . S
C921 C160 0.751 . S
C945 C205 0.746 . S
C953 C173 0.745 . S
C977 C62 1.799 . S
C985 C4 1.799 . S
C1009 C69 1.794 . S
C1017 C17 1.788 . S
C1041 C82 1.774 . S
C1049 C30 1.797 . S
C1073 C43 1.786 . S
C1081 C101 1.787 . S
C1105 C114 1.797 . S
C1113 C140 1.797 . S
C1137 C153 1.806 . S
C1145 C127 1.791 . S
C1169 C192 1.806 . S
C1177 C166 1.795 . S
C1201 C199 1.775 . S
C1209 C179 1.795 . S
