# Generated by pormake.
# Topology uoq, (4)-cn, num edge types: 1
# Building blocks:
#     Node 0, Type 0, BuildingBlock: QUQFOY_clean_sbu_3, # of connection points: 4
#     Node 1, Type 0, BuildingBlock: QUQFOY_clean_sbu_3, # of connection points: 4
#     Node 2, Type 0, BuildingBlock: QUQFOY_clean_sbu_3, # of connection points: 4
#     Node 3, Type 0, BuildingBlock: QUQFOY_clean_sbu_3, # of connection points: 4
#     Node 4, Type 0, BuildingBlock: QUQFOY_clean_sbu_3, # of connection points: 4
#     Node 5, Type 0, BuildingBlock: QUQFOY_clean_sbu_3, # of connection points: 4
#     Node 6, Type 0, BuildingBlock: QUQFOY_clean_sbu_3, # of connection points: 4
#     Node 7, Type 0, BuildingBlock: QUQFOY_clean_sbu_3, # of connection points: 4
#     Node 8, Type 0, BuildingBlock: QUQFOY_clean_sbu_3, # of connection points: 4
#     Node 9, Type 0, BuildingBlock: QUQFOY_clean_sbu_3, # of connection points: 4
#     Node 10, Type 0, BuildingBlock: QUQFOY_clean_sbu_3, # of connection points: 4
#     Node 11, Type 0, BuildingBlock: QUQFOY_clean_sbu_3, # of connection points: 4
#     Edge 12, Type (0, 0), BuildingBlock: EZIPEK_clean_linker_0, # of connection points: 2
#     Edge 13, Type (0, 0), BuildingBlock: EZIPEK_clean_linker_0, # of connection points: 2
#     Edge 14, Type (0, 0), BuildingBlock: EZIPEK_clean_linker_0, # of connection points: 2
#     Edge 15, Type (0, 0), BuildingBlock: EZIPEK_clean_linker_0, # of connection points: 2
#     Edge 16, Type (0, 0), BuildingBlock: EZIPEK_clean_linker_0, # of connection points: 2
#     Edge 17, Type (0, 0), BuildingBlock: EZIPEK_clean_linker_0, # of connection points: 2
#     Edge 18, Type (0, 0), BuildingBlock: EZIPEK_clean_linker_0, # of connection points: 2
#     Edge 19, Type (0, 0), BuildingBlock: EZIPEK_clean_linker_0, # of connection points: 2
#     Edge 20, Type (0, 0), BuildingBlock: EZIPEK_clean_linker_0, # of connection points: 2
#     Edge 21, Type (0, 0), BuildingBlock: EZIPEK_clean_linker_0, # of connection points: 2
#     Edge 22, Type (0, 0), BuildingBlock: EZIPEK_clean_linker_0, # of connection points: 2
#     Edge 23, Type (0, 0), BuildingBlock: EZIPEK_clean_linker_0, # of connection points: 2
#     Edge 24, Type (0, 0), BuildingBlock: EZIPEK_clean_linker_0, # of connection points: 2
#     Edge 25, Type (0, 0), BuildingBlock: EZIPEK_clean_linker_0, # of connection points: 2
#     Edge 26, Type (0, 0), BuildingBlock: EZIPEK_clean_linker_0, # of connection points: 2
#     Edge 27, Type (0, 0), BuildingBlock: EZIPEK_clean_linker_0, # of connection points: 2
#     Edge 28, Type (0, 0), BuildingBlock: EZIPEK_clean_linker_0, # of connection points: 2
#     Edge 29, Type (0, 0), BuildingBlock: EZIPEK_clean_linker_0, # of connection points: 2
#     Edge 30, Type (0, 0), BuildingBlock: EZIPEK_clean_linker_0, # of connection points: 2
#     Edge 31, Type (0, 0), BuildingBlock: EZIPEK_clean_linker_0, # of connection points: 2
#     Edge 32, Type (0, 0), BuildingBlock: EZIPEK_clean_linker_0, # of connection points: 2
#     Edge 33, Type (0, 0), BuildingBlock: EZIPEK_clean_linker_0, # of connection points: 2
#     Edge 34, Type (0, 0), BuildingBlock: EZIPEK_clean_linker_0, # of connection points: 2
#     Edge 35, Type (0, 0), BuildingBlock: EZIPEK_clean_linker_0, # of connection points: 2
# Relax obj value: 0.154
# Max RMSD: 0.152
# Mean RMSD: 0.152
data_MOF--net-uoq--node1-QUQFOY_clean_sbu_3--edge1-EZIPEK_clean_linker_0
_symmetry_space_group_name_H-M    P1
_symmetry_Int_Tables_number       1
_symmetry_cell_setting            triclinic
loop_
_symmetry_equiv_pos_as_xyz
'x, y, z'
_cell_length_a     44.703199
_cell_length_b     44.733765
_cell_length_c     17.538138
_cell_angle_alpha  89.974671
_cell_angle_beta   90.009175
_cell_angle_gamma 120.12108
loop_
_atom_site_label
_atom_site_type_symbol
_atom_site_fract_x
_atom_site_fract_y
_atom_site_fract_z
_atom_type_partial_charge
C0 C 0.32057 0.40491 0.35176 0.0
O1 O 0.33119 0.42046 0.4151 0.0
Cd2 Cd 0.31549 0.45787 0.47401 0.0
O3 O 0.29943 0.40877 0.30927 0.0
Cd4 Cd 0.26843 0.44279 0.3167 0.0
C5 C 0.34554 0.51907 0.33261 0.0
O6 O 0.25617 0.42392 0.44423 0.0
O7 O 0.23637 0.45722 0.41335 0.0
O8 O 0.22019 0.39755 0.24185 0.0
C9 C 0.23825 0.43725 0.46191 0.0
O10 O 0.3484 0.5105 0.40016 0.0
C11 C 0.21553 0.41865 0.20223 0.0
O12 O 0.3199 0.49928 0.29059 0.0
O13 O 0.236 0.45061 0.21386 0.0
C14 C 0.88629 0.32052 0.66163 0.0
O15 O 0.87617 0.3247 0.72622 0.0
Cd16 Cd 0.82724 0.3302 0.75075 0.0
O17 O 0.86908 0.31734 0.60093 0.0
Cd18 Cd 0.81495 0.31745 0.5623 0.0
C19 C 0.8477 0.39897 0.62856 0.0
O20 O 0.78207 0.28971 0.67287 0.0
O21 O 0.76102 0.31503 0.60494 0.0
O22 O 0.79497 0.26611 0.48232 0.0
C23 C 0.75831 0.29681 0.66257 0.0
O24 O 0.8436 0.38595 0.69491 0.0
C25 C 0.78916 0.27913 0.42379 0.0
O26 O 0.84155 0.38078 0.56826 0.0
O27 O 0.79748 0.31077 0.42771 0.0
C28 C 0.63703 0.96386 0.88459 0.0
O29 O 0.63451 0.95156 0.95098 0.0
Cd30 Cd 0.60503 0.89278 -0.00999 0.0
O31 O 0.62378 0.94421 0.82664 0.0
Cd32 Cd 0.58938 0.88003 0.80829 0.0
C33 C 0.52509 0.87347 0.92382 0.0
O34 O 0.61719 0.8613 0.89926 0.0
O35 O 0.56593 0.82372 0.86555 0.0
O36 O 0.61802 0.87224 0.69741 0.0
C37 C 0.59335 0.82996 0.90004 0.0
O38 O 0.54417 0.87624 0.98043 0.0
C39 C 0.59019 0.85448 0.6601 0.0
O40 O 0.53575 0.87629 0.85524 0.0
O41 O 0.56292 0.85268 0.68683 0.0
C42 C 0.65183 0.5778 0.35274 0.0
O43 O 0.64507 0.56875 0.42208 0.0
Cd44 Cd 0.66517 0.53828 0.49519 0.0
O45 O 0.67122 0.57056 0.3123 0.0
Cd46 Cd 0.70507 0.53987 0.33229 0.0
C47 C 0.62989 0.46583 0.38119 0.0
O48 O 0.72278 0.56763 0.45152 0.0
O49 O 0.73772 0.52931 0.43406 0.0
O50 O 0.75367 0.58187 0.25405 0.0
C51 C 0.73943 0.55363 0.47444 0.0
O52 O 0.63024 0.48038 0.44373 0.0
C53 C 0.75686 0.55976 0.21493 0.0
O54 O 0.65322 0.48143 0.33065 0.0
O55 O 0.73466 0.5282 0.2269 0.0
C56 C 0.09073 0.67135 0.67423 0.0
O57 O 0.10461 0.67131 0.73723 0.0
Cd58 Cd 0.15345 0.66452 0.75226 0.0
O59 O 0.10458 0.67108 0.61054 0.0
Cd60 Cd 0.15849 0.67199 0.56388 0.0
C61 C 0.126 0.5922 0.63598 0.0
O62 O 0.19692 0.70168 0.66689 0.0
O63 O 0.21065 0.66972 0.60075 0.0
O64 O 0.17869 0.72222 0.47966 0.0
C65 C 0.21802 0.69115 0.65452 0.0
O66 O 0.13324 0.60696 0.70085 0.0
C67 C 0.1832 0.70776 0.42198 0.0
O68 O 0.1298 0.60892 0.57429 0.0
O69 O 0.17332 0.67579 0.42794 0.0
C70 C 0.3429 0.01678 0.95275 0.0
O71 O 0.35194 0.02106 0.02227 0.0
Cd72 Cd 0.38391 0.07252 0.09304 0.0
O73 O 0.34985 0.04235 0.90898 0.0
Cd74 Cd 0.38245 0.10681 0.92554 0.0
C75 C 0.4552 0.10527 0.97735 0.0
O76 O 0.36224 0.10846 0.05304 0.0
O77 O 0.40644 0.15535 0.01368 0.0
O78 O 0.34911 0.12458 0.84276 0.0
C79 C 0.38408 0.13985 0.06521 0.0
O80 O 0.44198 0.09402 0.04274 0.0
C81 C 0.37532 0.14497 0.80293 0.0
O82 O 0.43858 0.11006 0.92437 0.0
O83 O 0.40351 0.14573 0.81706 0.0
C84 C 0.58488 0.65295 0.26119 0.0
O85 O 0.57424 0.64858 0.1928 0.0
Cd86 Cd 0.54646 0.6755 0.13344 0.0
O87 O 0.58019 0.67234 0.30749 0.0
Cd88 Cd 0.55124 0.70806 0.29943 0.0
C89 C 0.47468 0.63815 0.24567 0.0
O90 O 0.57995 0.73234 0.18241 0.0
O91 O 0.53907 0.7429 0.2076 0.0
O92 O 0.59166 0.75206 0.38961 0.0
C93 C 0.56495 0.74898 0.16696 0.0
O94 O 0.48695 0.64229 0.17854 0.0
C95 C 0.56832 0.75461 0.42533 0.0
O96 O 0.49306 0.657 0.30069 0.0
O97 O 0.5372 0.73413 0.40601 0.0
C98 C 0.95051 0.64162 0.7178 0.0
O99 O 0.93493 0.6459 0.66205 0.0
Cd100 Cd 0.87447 0.61187 0.6397 0.0
O101 O 0.93392 0.62287 0.77508 0.0
Cd102 Cd 0.8722 0.58968 0.82174 0.0
C103 C 0.86765 0.53315 0.68829 0.0
O104 O 0.84488 0.61428 0.74799 0.0
O105 O 0.81229 0.562 0.78358 0.0
O106 O 0.87475 0.61866 0.94146 0.0
C107 C 0.81464 0.58819 0.75013 0.0
O108 O 0.86752 0.55392 0.63859 0.0
C109 C 0.85871 0.59128 0.98102 0.0
O110 O 0.87037 0.53996 0.75954 0.0
O111 O 0.85274 0.56349 0.94802 0.0
C112 C 0.30681 0.87652 0.9115 0.0
O113 O 0.30669 0.86389 0.84672 0.0
Cd114 Cd 0.31313 0.81527 0.8275 0.0
O115 O 0.30624 0.86103 0.97331 0.0
Cd116 Cd 0.30144 0.80471 0.0149 0.0
C117 C 0.38283 0.83753 0.94971 0.0
O118 O 0.27233 0.77097 0.90628 0.0
O119 O 0.29895 0.75068 0.97184 0.0
O120 O 0.25046 0.78746 0.09545 0.0
C121 C 0.27962 0.74732 0.91589 0.0
O122 O 0.36985 0.83326 0.8832 0.0
C123 C 0.26267 0.78042 0.15371 0.0
O124 O 0.36444 0.83074 0.00983 0.0
O125 O 0.29377 0.78693 0.14946 0.0
C126 C 0.38598 0.32355 0.32593 0.0
O127 O 0.39618 0.31886 0.26176 0.0
Cd128 Cd 0.42706 0.28953 0.2375 0.0
O129 O 0.39163 0.31208 0.38803 0.0
Cd130 Cd 0.42047 0.27832 0.42624 0.0
C131 C 0.4979 0.34055 0.35021 0.0
O132 O 0.39597 0.24199 0.31893 0.0
O133 O 0.4315 0.23223 0.38139 0.0
O134 O 0.37605 0.24497 0.52234 0.0
C135 C 0.40976 0.22369 0.32782 0.0
O136 O 0.48512 0.32936 0.28439 0.0
C137 C 0.39723 0.2442 0.56954 0.0
O138 O 0.47995 0.32793 0.41065 0.0
O139 O 0.42923 0.26304 0.55477 0.0
C140 C 0.02462 0.34551 0.69791 0.0
O141 O 0.04179 0.34466 0.64119 0.0
Cd142 Cd 0.10225 0.38154 0.62562 0.0
O143 O 0.03965 0.36209 0.75862 0.0
Cd144 Cd 0.10057 0.39597 0.80787 0.0
C145 C 0.10452 0.45641 0.68855 0.0
O146 O 0.13183 0.37653 0.73091 0.0
O147 O 0.16013 0.42912 0.7676 0.0
O148 O 0.10097 0.36459 0.92165 0.0
C149 C 0.1608 0.40426 0.73483 0.0
O150 O 0.10748 0.43858 0.63544 0.0
C151 C 0.11671 0.39169 0.96235 0.0
O152 O 0.09988 0.44646 0.75795 0.0
O153 O 0.11936 0.41933 0.93556 0.0
C154 C 0.67688 0.10695 0.90888 0.0
O155 O 0.67628 0.12011 0.84529 0.0
Cd156 Cd 0.66922 0.16862 0.82735 0.0
O157 O 0.67679 0.12128 0.97191 0.0
Cd158 Cd 0.67893 0.17602 0.01506 0.0
C159 C 0.59785 0.14226 0.94486 0.0
O160 O 0.7082 0.21257 0.90983 0.0
O161 O 0.67876 0.2291 0.97722 0.0
O162 O 0.72899 0.19523 0.09906 0.0
C163 C 0.69923 0.23485 0.92213 0.0
O164 O 0.61128 0.14843 0.87853 0.0
C165 C 0.71494 0.20069 0.15624 0.0
O166 O 0.61602 0.14812 0.0051 0.0
O167 O 0.68321 0.19186 0.15003 0.0
C168 C 0.36519 0.3951 0.29268 0.0
C169 C 0.33293 0.38122 0.3299 0.0
C170 C 0.33295 0.32731 0.35437 0.0
C171 C 0.36753 0.34324 0.32744 0.0
N172 N 0.41831 0.3938 0.27878 0.0
N173 N 0.28598 0.33509 0.39935 0.0
C174 C 0.38404 0.37744 0.29781 0.0
C175 C 0.3166 0.34744 0.36116 0.0
N176 N 0.37777 0.42528 0.25274 0.0
N177 N 0.31539 0.29278 0.37095 0.0
H178 H 0.27241 0.34845 0.40162 0.0
H179 H 0.2749 0.31254 0.43177 0.0
H180 H 0.32641 0.27711 0.36589 0.0
H181 H 0.28907 0.27899 0.3834 0.0
H182 H 0.39969 0.43528 0.21834 0.0
H183 H 0.36416 0.4385 0.24809 0.0
H184 H 0.43267 0.41989 0.2646 0.0
H185 H 0.43337 0.38216 0.28391 0.0
C186 C 0.92618 0.29941 0.70273 0.0
C187 C 0.92041 0.32267 0.65824 0.0
C188 C 0.98272 0.35959 0.63811 0.0
C189 C -0.01148 0.33656 0.6833 0.0
N190 N 0.96691 0.28232 0.7484 0.0
N191 N 0.94226 0.37154 0.57239 0.0
C192 C 0.96053 0.30571 0.71259 0.0
C193 C 0.94836 0.35147 0.62174 0.0
N194 N 0.89869 0.27159 0.73629 0.0
N195 N 0.0102 0.39033 0.6144 0.0
H196 H 0.91801 0.36873 0.56305 0.0
H197 H 0.96094 0.38974 0.5361 0.0
H198 H 0.03592 0.39741 0.62406 0.0
H199 H 0.00787 0.41029 0.59015 0.0
H200 H 0.90099 0.2558 0.77661 0.0
H201 H 0.8731 0.26471 0.72505 0.0
H202 H 0.94776 0.25781 0.76538 0.0
H203 H -0.00811 0.28671 0.75717 0.0
C204 C 0.62334 0.01098 0.88243 0.0
C205 C 0.64884 0.00109 0.87941 0.0
C206 C 0.69429 0.06164 0.89625 0.0
C207 C 0.66833 0.07054 0.90784 0.0
N208 N 0.60828 0.05258 0.92832 0.0
N209 N 0.7084 0.0158 0.88972 0.0
C210 C 0.63289 0.04485 0.9058 0.0
C211 C 0.68437 0.02612 0.88813 0.0
N212 N 0.58995 0.98812 0.86216 0.0
N213 N 0.72817 0.08711 0.89219 0.0
H214 H 0.70197 0.99024 0.87996 0.0
H215 H 0.73424 0.03212 0.90406 0.0
H216 H 0.73611 0.11311 0.90119 0.0
H217 H 0.74807 0.08273 0.87607 0.0
H218 H 0.57111 -0.00487 0.85577 0.0
H219 H 0.58183 0.96302 0.84403 0.0
H220 H 0.58237 0.03395 0.93593 0.0
H221 H 0.61428 0.07707 0.94717 0.0
C222 C 0.59983 0.57896 0.30748 0.0
C223 C 0.63603 0.59691 0.31985 0.0
C224 C 0.63908 0.65201 0.29154 0.0
C225 C 0.60247 0.63432 0.28648 0.0
N226 N 0.54731 0.58203 0.2988 0.0
N227 N 0.6902 0.65036 0.33152 0.0
C228 C 0.58263 0.59802 0.29674 0.0
C229 C 0.65578 0.63342 0.31358 0.0
N230 N 0.5821 0.54363 0.30478 0.0
N231 N 0.65786 0.68632 0.2732 0.0
H232 H 0.70353 0.63749 0.34528 0.0
H233 H 0.70514 0.67708 0.33714 0.0
H234 H 0.64644 0.70096 0.25884 0.0
H235 H 0.68464 0.69978 0.26724 0.0
H236 H 0.5563 0.52894 0.28848 0.0
H237 H 0.5941 0.52898 0.31242 0.0
H238 H 0.53136 0.5562 0.31356 0.0
H239 H 0.5339 0.59537 0.29213 0.0
C240 C -0.00701 0.62803 0.65886 0.0
C241 C 0.98672 0.65044 0.70499 0.0
C242 C 0.04913 0.6903 0.71592 0.0
C243 C 0.05528 0.66605 0.67689 0.0
N244 N 0.03284 0.60883 0.62367 0.0
N245 N 0.00797 0.70137 0.78273 0.0
C246 C 0.02719 0.63424 0.651 0.0
C247 C 0.01459 0.68121 0.73509 0.0
N248 N 0.96623 0.60078 0.62194 0.0
N249 N 0.07636 0.72227 0.73285 0.0
H250 H 0.9829 0.69569 0.79608 0.0
H251 H 0.02704 0.7223 0.81293 0.0
H252 H 0.10182 0.72973 0.71839 0.0
H253 H 0.07361 0.74232 0.75512 0.0
H254 H 0.96983 0.58638 0.58005 0.0
H255 H 0.9404 0.59389 0.62887 0.0
H256 H 0.01306 0.58359 0.61371 0.0
H257 H 0.05733 0.61176 0.61714 0.0
C258 C 0.34517 0.93929 0.88454 0.0
C259 C 0.3134 0.91233 0.91399 0.0
C260 C 0.29679 0.95462 0.95251 0.0
C261 C 0.32843 0.9814 0.92237 0.0
N262 N 0.37825 -0.00135 0.84192 0.0
N263 N 0.25605 0.89296 0.96189 0.0
C264 C 0.35092 0.97344 0.88174 0.0
C265 C 0.2882 0.91956 0.94359 0.0
N266 N 0.37092 0.93276 0.86424 0.0
N267 N 0.27556 0.96299 -0.00842 0.0
H268 H 0.24921 0.86706 0.95642 0.0
H269 H 0.23545 0.89636 0.97704 0.0
H270 H 0.28023 0.98829 -0.00552 0.0
H271 H 0.25422 0.9453 0.02309 0.0
H272 H 0.39601 0.95207 0.85114 0.0
H273 H 0.36846 0.90835 0.86757 0.0
H274 H 0.39349 -0.00639 0.80516 0.0
H275 H 0.38371 0.02416 0.83938 0.0
C276 C 0.13383 0.40445 0.10037 0.0
C277 C 0.13852 0.39332 0.02801 0.0
C278 C 0.1892 0.39144 0.07658 0.0
C279 C 0.18718 0.40687 0.14542 0.0
N280 N 0.15821 0.42869 0.22435 0.0
N281 N 0.17421 0.38168 0.94303 0.0
C282 C 0.15957 0.41346 0.15785 0.0
C283 C 0.16683 0.38774 0.0152 0.0
N284 N 0.10435 0.40562 0.11437 0.0
N285 N 0.2129 0.38083 0.06909 0.0
H286 H 0.15948 0.37963 0.89528 0.0
H287 H 0.19692 0.38185 0.92885 0.0
H288 H 0.23111 0.38478 0.11086 0.0
H289 H 0.21271 0.36559 0.02399 0.0
H290 H 0.09754 0.41042 0.16781 0.0
H291 H 0.0851 0.39893 0.07335 0.0
H292 H 0.14138 0.43803 0.23362 0.0
H293 H 0.17512 0.43341 0.26971 0.0
C294 C 0.73912 0.22668 0.3636 0.0
C295 C 0.77143 0.25779 0.3556 0.0
C296 C 0.76587 0.25225 0.21657 0.0
C297 C 0.73538 0.21942 0.22473 0.0
N298 N 0.69734 0.17214 0.30656 0.0
N299 N 0.8192 0.29585 0.27479 0.0
C300 C 0.72333 0.20563 0.29848 0.0
C301 C 0.78593 0.26926 0.28214 0.0
N302 N 0.72239 0.2181 0.43229 0.0
N303 N 0.77471 0.26832 0.14713 0.0
H304 H 0.83498 0.30846 0.32151 0.0
H305 H 0.83221 0.30293 0.22277 0.0
H306 H 0.76011 0.2578 0.09788 0.0
H307 H 0.79458 0.29377 0.13997 0.0
H308 H 0.69718 0.19767 0.43907 0.0
H309 H 0.73206 0.23336 0.48098 0.0
H310 H 0.68991 0.15969 0.35917 0.0
H311 H 0.68564 0.15572 0.26022 0.0
C312 C 0.59321 0.80293 0.61428 0.0
C313 C 0.58809 0.83119 0.59741 0.0
C314 C 0.57059 0.80947 0.46699 0.0
C315 C 0.57692 0.78195 0.48327 0.0
N316 N 0.60002 0.75574 0.56697 0.0
N317 N 0.57725 0.8647 0.50604 0.0
C318 C 0.5903 0.77989 0.55506 0.0
C319 C 0.57823 0.83538 0.52319 0.0
N320 N 0.59859 0.79667 0.68798 0.0
N321 N 0.5571 0.81071 0.39782 0.0
H322 H 0.58284 0.88407 0.54607 0.0
H323 H 0.57361 0.87128 0.45131 0.0
H324 H 0.55361 0.79386 0.35318 0.0
H325 H 0.54789 0.82739 0.38538 0.0
H326 H 0.59817 0.77421 0.70533 0.0
H327 H 0.60059 0.81245 0.73366 0.0
H328 H 0.61388 0.75566 0.61463 0.0
H329 H 0.59652 0.73715 0.52661 0.0
C330 C 0.80742 0.5549 0.165 0.0
C331 C 0.78637 0.57043 0.16093 0.0
C332 C 0.82614 0.61101 0.06567 0.0
C333 C 0.84149 0.59011 0.05557 0.0
N334 N 0.85014 0.54459 0.1037 0.0
N335 N 0.77363 0.61091 0.09824 0.0
C336 C 0.83312 0.56274 0.10791 0.0
C337 C 0.79528 0.598 0.10908 0.0
N338 N 0.80419 0.53415 0.22542 0.0
N339 N 0.84141 0.64374 0.03674 0.0
H340 H 0.74988 0.60113 0.12585 0.0
H341 H 0.77756 0.62873 0.05551 0.0
H342 H 0.86628 0.65618 0.01408 0.0
H343 H 0.83196 0.66045 0.04698 0.0
H344 H 0.82087 0.52466 0.23529 0.0
H345 H 0.78703 0.52918 0.2703 0.0
H346 H 0.84212 0.52136 0.13227 0.0
H347 H 0.8722 0.55274 0.0702 0.0
C348 C 0.18784 0.71662 0.27972 0.0
C349 C 0.2022 0.72798 0.35333 0.0
C350 C 0.25315 0.77734 0.29556 0.0
C351 C 0.24095 0.76334 0.22205 0.0
N352 N 0.19927 0.71554 0.14526 0.0
N353 N 0.25213 0.76554 0.4303 0.0
C354 C 0.20887 0.73195 0.21422 0.0
C355 C 0.23578 0.7575 0.36117 0.0
N356 N 0.15386 0.69173 0.27217 0.0
N357 N 0.28085 0.80998 0.30293 0.0
H358 H 0.24129 0.75104 0.47955 0.0
H359 H 0.27797 0.78454 0.43717 0.0
H360 H 0.29378 0.82561 0.25621 0.0
H361 H 0.28865 0.8228 0.35506 0.0
H362 H 0.14108 0.68494 0.21987 0.0
H363 H 0.13752 0.68037 0.31882 0.0
H364 H 0.178 0.69084 0.1384 0.0
H365 H 0.21434 0.72487 0.09621 0.0
C366 C 0.36032 0.15789 0.67388 0.0
C367 C 0.37455 0.16957 0.74725 0.0
C368 C 0.39506 0.22964 0.70838 0.0
C369 C 0.38553 0.21836 0.63219 0.0
N370 N 0.36229 0.1718 0.53996 0.0
N371 N 0.40528 0.21619 0.83653 0.0
C372 C 0.36843 0.18243 0.61434 0.0
C373 C 0.39166 0.20538 0.76529 0.0
N374 N 0.33943 0.1233 0.66087 0.0
N375 N 0.40669 0.26347 0.72631 0.0
H376 H 0.40129 0.1991 0.88105 0.0
H377 H 0.42173 0.24197 0.85091 0.0
H378 H 0.40905 0.2816 0.68573 0.0
H379 H 0.41114 0.27298 0.78179 0.0
H380 H 0.32524 0.1133 0.61095 0.0
H381 H 0.33386 0.10465 0.70273 0.0
H382 H 0.35384 0.14649 0.52295 0.0
H383 H 0.36829 0.18859 0.49397 0.0
C384 C 0.18412 0.38487 0.62857 0.0
C385 C 0.1887 0.41129 0.67926 0.0
C386 C 0.2307 0.45514 0.59252 0.0
C387 C 0.22074 0.42907 0.53618 0.0
N388 N 0.18616 0.36919 0.49793 0.0
N389 N 0.22878 0.46805 0.72639 0.0
C390 C 0.19734 0.39384 0.55376 0.0
C391 C 0.21577 0.44564 0.6664 0.0
N392 N 0.16872 0.35148 0.65357 0.0
N393 N 0.25406 0.48878 0.57524 0.0
H394 H 0.22107 0.45999 0.78241 0.0
H395 H 0.24991 0.49297 0.72266 0.0
H396 H 0.26704 0.49638 0.52322 0.0
H397 H 0.25935 0.50949 0.61078 0.0
H398 H 0.1671 0.33126 0.62096 0.0
H399 H 0.16187 0.34505 0.71066 0.0
H400 H 0.16639 0.34379 0.5062 0.0
H401 H 0.19419 0.37474 0.44128 0.0
C402 C 0.70108 0.26104 0.72397 0.0
C403 C 0.73402 0.29107 0.72462 0.0
C404 C 0.7346 0.29262 0.86317 0.0
C405 C 0.70439 0.25985 0.86223 0.0
N406 N 0.65111 0.22142 0.79912 0.0
N407 N 0.7733 0.34348 0.78934 0.0
C408 C 0.68477 0.24708 0.7947 0.0
C409 C 0.7477 0.30978 0.79286 0.0
N410 N 0.68677 0.24492 0.65664 0.0
N411 N 0.75161 0.30603 0.93017 0.0
H412 H 0.78138 0.35616 0.73701 0.0
H413 H 0.78347 0.35928 0.83705 0.0
H414 H 0.74146 0.294 0.98245 0.0
H415 H 0.77589 0.32821 0.93337 0.0
H416 H 0.66446 0.22076 0.65314 0.0
H417 H 0.69818 0.25566 0.60419 0.0
H418 H 0.6347 0.21191 0.75214 0.0
H419 H 0.63902 0.21255 0.85182 0.0
C420 C 0.56299 0.77134 0.95994 0.0
C421 C 0.59211 0.80512 0.958 0.0
C422 C 0.60547 0.79999 0.09039 0.0
C423 C 0.57343 0.76865 0.09573 0.0
N424 N 0.52164 0.72323 0.03678 0.0
N425 N 0.64968 0.84175 0.00642 0.0
C426 C 0.55223 0.75374 0.03065 0.0
C427 C 0.61613 0.81671 0.01881 0.0
N428 N 0.54737 0.75548 0.89311 0.0
N429 N 0.62501 0.81444 0.1543 0.0
H430 H 0.65915 0.85088 0.95187 0.0
H431 H 0.66907 0.84964 0.04734 0.0
H432 H 0.61799 0.80291 0.20802 0.0
H433 H 0.64665 0.83915 0.15534 0.0
H434 H 0.52754 0.72989 0.88917 0.0
H435 H 0.55733 0.76684 0.84021 0.0
H436 H 0.50324 0.71311 -0.00645 0.0
H437 H 0.51351 0.70883 0.08698 0.0
C438 C 0.74265 0.53966 0.6113 0.0
C439 C 0.7563 0.5632 0.54935 0.0
C440 C 0.7969 0.60854 0.6349 0.0
C441 C 0.78829 0.58331 0.6921 0.0
N442 N 0.7427 0.53144 0.74834 0.0
N443 N 0.79708 0.61986 0.50023 0.0
C444 C 0.75793 0.55061 0.68449 0.0
C445 C 0.78327 0.59779 0.56079 0.0
N446 N 0.71549 0.50697 0.59995 0.0
N447 N 0.81643 0.64277 0.65284 0.0
H448 H 0.78829 0.61285 0.44439 0.0
H449 H 0.81925 0.64411 0.50431 0.0
H450 H 0.82343 0.65109 0.70899 0.0
H451 H 0.82143 0.66263 0.6148 0.0
H452 H 0.7069 0.48737 0.64045 0.0
H453 H 0.70222 0.49876 0.54834 0.0
H454 H 0.71933 0.50821 0.74846 0.0
H455 H 0.75167 0.54107 0.80293 0.0
C456 C 0.22995 0.67511 0.78069 0.0
C457 C 0.24291 0.6954 0.7141 0.0
C458 C 0.29292 0.73756 0.78517 0.0
C459 C 0.27394 0.72343 0.85297 0.0
N460 N 0.2271 0.67589 0.91879 0.0
N461 N 0.2895 0.74313 0.64828 0.0
C462 C 0.24364 0.69072 0.85213 0.0
C463 C 0.27583 0.72542 0.71443 0.0
N464 N 0.20454 0.64143 0.77476 0.0
N465 N 0.32679 0.76271 0.78947 0.0
H466 H 0.27752 0.73366 0.59564 0.0
H467 H 0.31184 0.76732 0.64621 0.0
H468 H 0.33936 0.7703 0.842 0.0
H469 H 0.34275 0.77306 0.742 0.0
H470 H 0.19488 0.62463 0.82108 0.0
H471 H 0.19637 0.62974 0.72149 0.0
H472 H 0.20278 0.65372 0.92116 0.0
H473 H 0.23766 0.68677 0.97171 0.0
C474 C 0.36144 0.15623 0.17933 0.0
C475 C 0.38891 0.15512 0.14183 0.0
C476 C 0.43043 0.19563 0.23362 0.0
C477 C 0.40297 0.19645 0.27208 0.0
N478 N 0.34166 0.16892 0.29683 0.0
N479 N 0.44576 0.16195 0.15242 0.0
C480 C 0.36817 0.17379 0.24997 0.0
C481 C 0.42224 0.17103 0.17521 0.0
N482 N 0.3296 0.14236 0.14598 0.0
N483 N 0.46419 0.21952 0.2483 0.0
H484 H 0.43943 0.14217 0.11326 0.0
H485 H 0.46955 0.1708 0.1793 0.0
H486 H 0.47193 0.23926 0.28816 0.0
H487 H 0.48458 0.22169 0.21524 0.0
H488 H 0.3099 0.14598 0.16738 0.0
H489 H 0.32362 0.12955 0.09375 0.0
H490 H 0.31592 0.15046 0.28648 0.0
H491 H 0.34588 0.1807 0.35019 0.0
C492 C 0.39917 0.54587 0.25406 0.0
C493 C 0.37544 0.55017 0.29971 0.0
C494 C 0.41426 0.61303 0.29786 0.0
C495 C 0.43989 0.60818 0.26149 0.0
N496 N 0.45893 0.56904 0.21828 0.0
N497 N 0.36053 0.58717 0.36962 0.0
C498 C 0.43286 0.57438 0.24233 0.0
C499 C 0.38299 0.58362 0.32283 0.0
N500 N 0.38977 0.51439 0.22264 0.0
N501 N 0.41939 0.64565 0.3064 0.0
H502 H 0.3366 0.56631 0.38542 0.0
H503 H 0.36632 0.61033 0.39588 0.0
H504 H 0.44174 0.66765 0.28758 0.0
H505 H 0.4004 0.65075 0.32586 0.0
H506 H 0.40471 0.51071 0.18225 0.0
H507 H 0.36562 0.49254 0.23123 0.0
H508 H 0.45607 0.54457 0.21228 0.0
H509 H 0.48449 0.58878 0.21189 0.0
C510 C 0.89221 0.49405 0.67036 0.0
C511 C 0.86402 0.50006 0.66229 0.0
C512 C 0.82714 0.44113 0.61453 0.0
C513 C 0.85511 0.43497 0.62406 0.0
N514 N 0.91559 0.45629 0.64428 0.0
N515 N 0.80669 0.4821 0.61471 0.0
C516 C 0.88817 0.46182 0.64653 0.0
C517 C 0.83224 0.47457 0.62973 0.0
N518 N 0.92252 0.51887 0.70225 0.0
N519 N 0.79507 0.41433 0.596 0.0
H520 H 0.80801 0.50516 0.63081 0.0
H521 H 0.78483 0.46631 0.58236 0.0
H522 H 0.7905 0.38977 0.58167 0.0
H523 H 0.77253 0.41572 0.59846 0.0
H524 H 0.94283 0.51497 0.71713 0.0
H525 H 0.92689 0.54325 0.71764 0.0
H526 H 0.94113 0.47539 0.6538 0.0
H527 H 0.91303 0.43287 0.62622 0.0
C528 C 0.46352 0.8299 0.952 0.0
C529 C 0.48906 0.86483 0.93827 0.0
C530 C 0.44543 0.88256 0.95002 0.0
C531 C 0.41953 0.84729 0.95555 0.0
N532 N 0.40249 0.78692 0.9588 0.0
N533 N 0.50574 0.9248 0.92557 0.0
C534 C 0.42821 0.82082 0.95664 0.0
C535 C 0.48042 0.89135 0.93806 0.0
N536 N 0.47314 0.8055 0.96121 0.0
N537 N 0.43639 0.90746 0.95725 0.0
H538 H 0.53179 0.93214 0.92182 0.0
H539 H 0.50118 0.94515 0.91651 0.0
H540 H 0.41092 0.90156 0.96625 0.0
H541 H 0.45397 0.93384 0.95948 0.0
H542 H 0.45648 0.78038 0.97974 0.0
H543 H 0.4986 0.81089 0.95526 0.0
H544 H 0.40651 0.76621 0.94986 0.0
H545 H 0.37645 0.7793 0.96581 0.0
C546 C 0.57316 0.43144 0.31528 0.0
C547 C 0.59877 0.43208 0.36406 0.0
C548 C 0.5598 0.37096 0.39628 0.0
C549 C 0.53289 0.37174 0.35493 0.0
N550 N 0.51222 0.40479 0.28668 0.0
N551 N 0.61647 0.40367 0.45518 0.0
C552 C 0.53918 0.40243 0.31687 0.0
C553 C 0.59209 0.40212 0.40574 0.0
N554 N 0.58103 0.45875 0.26805 0.0
N555 N 0.55485 0.34028 0.42426 0.0
H556 H 0.64109 0.4254 0.45992 0.0
H557 H 0.61179 0.38419 0.49404 0.0
H558 H 0.53164 0.31702 0.41779 0.0
H559 H 0.57447 0.33728 0.4483 0.0
H560 H 0.56457 0.45799 0.22509 0.0
H561 H 0.60513 0.48123 0.26696 0.0
H562 H 0.51453 0.42774 0.26644 0.0
H563 H 0.48667 0.38469 0.28882 0.0
C564 C 0.14326 0.54804 0.61346 0.0
C565 C 0.11712 0.55568 0.63393 0.0
C566 C 0.08057 0.49649 0.68084 0.0
C567 C 0.10844 0.49032 0.66899 0.0
N568 N 0.16803 0.51141 0.6343 0.0
N569 N 0.06138 0.53847 0.68851 0.0
C570 C 0.14012 0.51624 0.63711 0.0
C571 C 0.08577 0.53014 0.66757 0.0
N572 N 0.17142 0.57141 0.57256 0.0
N573 N 0.049 0.47 0.70314 0.0
H574 H 0.0635 0.56218 0.67505 0.0
H575 H 0.03985 0.52264 0.72175 0.0
H576 H 0.04451 0.44528 0.71541 0.0
H577 H 0.02663 0.47171 0.70454 0.0
H578 H 0.18933 0.56575 0.54866 0.0
H579 H 0.1755 0.5956 0.55656 0.0
H580 H 0.1929 0.5308 0.62003 0.0
H581 H 0.16727 0.48892 0.6531 0.0
C582 C 0.55314 0.15757 0.97936 0.0
C583 C 0.56119 0.1326 0.95178 0.0
C584 C 0.49959 0.0913 0.93078 0.0
C585 C 0.49158 0.1152 0.96462 0.0
N586 N 0.50935 0.17054 0.02215 0.0
N587 N 0.5433 0.076 0.90122 0.0
C588 C 0.518 0.1482 -0.01083 0.0
C589 C 0.53473 0.09958 0.92691 0.0
N590 N 0.57911 0.1908 -0.00788 0.0
N591 N 0.47355 0.06105 0.90129 0.0
H592 H 0.5688 0.08195 0.89385 0.0
H593 H 0.52551 0.05021 0.89008 0.0
H594 H 0.44753 0.054 0.90486 0.0
H595 H 0.47748 0.04373 0.86936 0.0
H596 H 0.57499 0.21123 0.004 0.0
H597 H 0.60524 0.19887 0.98514 0.0
H598 H 0.52676 0.19281 0.05135 0.0
H599 H 0.48415 0.16613 0.02275 0.0
loop_
_geom_bond_atom_site_label_1
_geom_bond_atom_site_label_2
_geom_bond_distance
_geom_bond_site_symmetry_2
_ccdc_geom_bond_type
C0 O1 1.306 . S
C0 O3 1.160 . S
O1 C0 1.306 . S
O1 Cd2 2.228 . S
Cd2 O1 2.228 . S
Cd2 O6 2.273 . S
Cd2 O10 2.277 . S
O3 C0 1.160 . S
O3 Cd4 2.203 . S
Cd4 O3 2.203 . S
Cd4 O6 2.411 . S
Cd4 O7 2.333 . S
Cd4 O8 2.352 . S
Cd4 O12 2.277 . S
Cd4 O13 2.356 . S
C5 O10 1.209 . S
C5 O12 1.226 . S
O6 Cd2 2.273 . S
O6 Cd4 2.411 . S
O6 C9 1.320 . S
O7 Cd4 2.333 . S
O7 C9 1.214 . S
O8 Cd4 2.352 . S
O8 C11 1.258 . S
C9 O6 1.320 . S
C9 O7 1.214 . S
O10 Cd2 2.277 . S
O10 C5 1.209 . S
C11 O8 1.258 . S
C11 O13 1.282 . S
O12 Cd4 2.277 . S
O12 C5 1.226 . S
O13 Cd4 2.356 . S
O13 C11 1.282 . S
C14 O15 1.306 . S
C14 O17 1.160 . S
O15 C14 1.306 . S
O15 Cd16 2.228 . S
Cd16 O15 2.228 . S
Cd16 O20 2.273 . S
Cd16 O24 2.277 . S
O17 C14 1.160 . S
O17 Cd18 2.203 . S
Cd18 O17 2.203 . S
Cd18 O20 2.411 . S
Cd18 O21 2.333 . S
Cd18 O22 2.352 . S
Cd18 O26 2.277 . S
Cd18 O27 2.356 . S
C19 O24 1.209 . S
C19 O26 1.226 . S
O20 Cd16 2.273 . S
O20 Cd18 2.411 . S
O20 C23 1.320 . S
O21 Cd18 2.333 . S
O21 C23 1.214 . S
O22 Cd18 2.352 . S
O22 C25 1.258 . S
C23 O20 1.320 . S
C23 O21 1.214 . S
O24 Cd16 2.277 . S
O24 C19 1.209 . S
C25 O22 1.258 . S
C25 O27 1.282 . S
O26 Cd18 2.277 . S
O26 C19 1.226 . S
O27 Cd18 2.356 . S
O27 C25 1.282 . S
C28 O29 1.306 1_556 S
C28 O31 1.160 . S
O29 C28 1.306 1_554 S
O29 Cd30 2.228 . S
Cd30 O29 2.228 . S
Cd30 O34 2.273 . S
Cd30 O38 2.277 . S
O31 C28 1.160 . S
O31 Cd32 2.203 . S
Cd32 O31 2.203 . S
Cd32 O34 2.411 1_556 S
Cd32 O35 2.333 . S
Cd32 O36 2.352 . S
Cd32 O40 2.277 . S
Cd32 O41 2.356 . S
C33 O38 1.209 1_556 S
C33 O40 1.226 . S
O34 Cd30 2.273 . S
O34 Cd32 2.411 1_554 S
O34 C37 1.320 . S
O35 Cd32 2.333 . S
O35 C37 1.214 1_556 S
O36 Cd32 2.352 . S
O36 C39 1.258 . S
C37 O34 1.320 . S
C37 O35 1.214 1_554 S
O38 Cd30 2.277 . S
O38 C33 1.209 1_554 S
C39 O36 1.258 . S
C39 O41 1.282 . S
O40 Cd32 2.277 . S
O40 C33 1.226 . S
O41 Cd32 2.356 . S
O41 C39 1.282 . S
C42 O43 1.306 . S
C42 O45 1.160 . S
O43 C42 1.306 . S
O43 Cd44 2.228 . S
Cd44 O43 2.228 . S
Cd44 O48 2.273 . S
Cd44 O52 2.277 . S
O45 C42 1.160 . S
O45 Cd46 2.203 . S
Cd46 O45 2.203 . S
Cd46 O48 2.411 . S
Cd46 O49 2.333 . S
Cd46 O50 2.352 . S
Cd46 O54 2.277 . S
Cd46 O55 2.356 . S
C47 O52 1.209 . S
C47 O54 1.226 . S
O48 Cd44 2.273 . S
O48 Cd46 2.411 . S
O48 C51 1.320 . S
O49 Cd46 2.333 . S
O49 C51 1.214 . S
O50 Cd46 2.352 . S
O50 C53 1.258 . S
C51 O48 1.320 . S
C51 O49 1.214 . S
O52 Cd44 2.277 . S
O52 C47 1.209 . S
C53 O50 1.258 . S
C53 O55 1.282 . S
O54 Cd46 2.277 . S
O54 C47 1.226 . S
O55 Cd46 2.356 . S
O55 C53 1.282 . S
C56 O57 1.306 . S
C56 O59 1.160 . S
O57 C56 1.306 . S
O57 Cd58 2.228 . S
Cd58 O57 2.228 . S
Cd58 O62 2.273 . S
Cd58 O66 2.277 . S
O59 C56 1.160 . S
O59 Cd60 2.203 . S
Cd60 O59 2.203 . S
Cd60 O62 2.411 . S
Cd60 O63 2.333 . S
Cd60 O64 2.352 . S
Cd60 O68 2.277 . S
Cd60 O69 2.356 . S
C61 O66 1.209 . S
C61 O68 1.226 . S
O62 Cd58 2.273 . S
O62 Cd60 2.411 . S
O62 C65 1.320 . S
O63 Cd60 2.333 . S
O63 C65 1.214 . S
O64 Cd60 2.352 . S
O64 C67 1.258 . S
C65 O62 1.320 . S
C65 O63 1.214 . S
O66 Cd58 2.277 . S
O66 C61 1.209 . S
C67 O64 1.258 . S
C67 O69 1.282 . S
O68 Cd60 2.277 . S
O68 C61 1.226 . S
O69 Cd60 2.356 . S
O69 C67 1.282 . S
C70 O71 1.306 1_556 S
C70 O73 1.160 . S
O71 C70 1.306 1_554 S
O71 Cd72 2.228 . S
Cd72 O71 2.228 . S
Cd72 O76 2.273 . S
Cd72 O80 2.277 . S
O73 C70 1.160 . S
O73 Cd74 2.203 . S
Cd74 O73 2.203 . S
Cd74 O76 2.411 1_556 S
Cd74 O77 2.333 . S
Cd74 O78 2.352 . S
Cd74 O82 2.277 . S
Cd74 O83 2.356 . S
C75 O80 1.209 1_556 S
C75 O82 1.226 . S
O76 Cd72 2.273 . S
O76 Cd74 2.411 1_554 S
O76 C79 1.320 . S
O77 Cd74 2.333 . S
O77 C79 1.214 1_556 S
O78 Cd74 2.352 . S
O78 C81 1.258 . S
C79 O76 1.320 . S
C79 O77 1.214 1_554 S
O80 Cd72 2.277 . S
O80 C75 1.209 1_554 S
C81 O78 1.258 . S
C81 O83 1.282 . S
O82 Cd74 2.277 . S
O82 C75 1.226 . S
O83 Cd74 2.356 . S
O83 C81 1.282 . S
C84 O85 1.306 . S
C84 O87 1.160 . S
O85 C84 1.306 . S
O85 Cd86 2.228 . S
Cd86 O85 2.228 . S
Cd86 O90 2.273 . S
Cd86 O94 2.277 . S
O87 C84 1.160 . S
O87 Cd88 2.203 . S
Cd88 O87 2.203 . S
Cd88 O90 2.411 . S
Cd88 O91 2.333 . S
Cd88 O92 2.352 . S
Cd88 O96 2.277 . S
Cd88 O97 2.356 . S
C89 O94 1.209 . S
C89 O96 1.226 . S
O90 Cd86 2.273 . S
O90 Cd88 2.411 . S
O90 C93 1.320 . S
O91 Cd88 2.333 . S
O91 C93 1.214 . S
O92 Cd88 2.352 . S
O92 C95 1.258 . S
C93 O90 1.320 . S
C93 O91 1.214 . S
O94 Cd86 2.277 . S
O94 C89 1.209 . S
C95 O92 1.258 . S
C95 O97 1.282 . S
O96 Cd88 2.277 . S
O96 C89 1.226 . S
O97 Cd88 2.356 . S
O97 C95 1.282 . S
C98 O99 1.306 . S
C98 O101 1.160 . S
O99 C98 1.306 . S
O99 Cd100 2.228 . S
Cd100 O99 2.228 . S
Cd100 O104 2.273 . S
Cd100 O108 2.277 . S
O101 C98 1.160 . S
O101 Cd102 2.203 . S
Cd102 O101 2.203 . S
Cd102 O104 2.411 . S
Cd102 O105 2.333 . S
Cd102 O106 2.352 . S
Cd102 O110 2.277 . S
Cd102 O111 2.356 . S
C103 O108 1.209 . S
C103 O110 1.226 . S
O104 Cd100 2.273 . S
O104 Cd102 2.411 . S
O104 C107 1.320 . S
O105 Cd102 2.333 . S
O105 C107 1.214 . S
O106 Cd102 2.352 . S
O106 C109 1.258 . S
C107 O104 1.320 . S
C107 O105 1.214 . S
O108 Cd100 2.277 . S
O108 C103 1.209 . S
C109 O106 1.258 . S
C109 O111 1.282 . S
O110 Cd102 2.277 . S
O110 C103 1.226 . S
O111 Cd102 2.356 . S
O111 C109 1.282 . S
C112 O113 1.306 1_554 S
C112 O115 1.160 . S
O113 C112 1.306 1_556 S
O113 Cd114 2.228 . S
Cd114 O113 2.228 . S
Cd114 O118 2.273 . S
Cd114 O122 2.277 . S
O115 C112 1.160 . S
O115 Cd116 2.203 . S
Cd116 O115 2.203 . S
Cd116 O118 2.411 1_554 S
Cd116 O119 2.333 . S
Cd116 O120 2.352 . S
Cd116 O124 2.277 . S
Cd116 O125 2.356 . S
C117 O122 1.209 1_554 S
C117 O124 1.226 . S
O118 Cd114 2.273 . S
O118 Cd116 2.411 1_556 S
O118 C121 1.320 . S
O119 Cd116 2.333 . S
O119 C121 1.214 1_554 S
O120 Cd116 2.352 . S
O120 C123 1.258 . S
C121 O118 1.320 . S
C121 O119 1.214 1_556 S
O122 Cd114 2.277 . S
O122 C117 1.209 1_556 S
C123 O120 1.258 . S
C123 O125 1.282 . S
O124 Cd116 2.277 . S
O124 C117 1.226 . S
O125 Cd116 2.356 . S
O125 C123 1.282 . S
C126 O127 1.306 . S
C126 O129 1.160 . S
O127 C126 1.306 . S
O127 Cd128 2.228 . S
Cd128 O127 2.228 . S
Cd128 O132 2.273 . S
Cd128 O136 2.277 . S
O129 C126 1.160 . S
O129 Cd130 2.203 . S
Cd130 O129 2.203 . S
Cd130 O132 2.411 . S
Cd130 O133 2.333 . S
Cd130 O134 2.352 . S
Cd130 O138 2.277 . S
Cd130 O139 2.356 . S
C131 O136 1.209 . S
C131 O138 1.226 . S
O132 Cd128 2.273 . S
O132 Cd130 2.411 . S
O132 C135 1.320 . S
O133 Cd130 2.333 . S
O133 C135 1.214 . S
O134 Cd130 2.352 . S
O134 C137 1.258 . S
C135 O132 1.320 . S
C135 O133 1.214 . S
O136 Cd128 2.277 . S
O136 C131 1.209 . S
C137 O134 1.258 . S
C137 O139 1.282 . S
O138 Cd130 2.277 . S
O138 C131 1.226 . S
O139 Cd130 2.356 . S
O139 C137 1.282 . S
C140 O141 1.306 . S
C140 O143 1.160 . S
O141 C140 1.306 . S
O141 Cd142 2.228 . S
Cd142 O141 2.228 . S
Cd142 O146 2.273 . S
Cd142 O150 2.277 . S
O143 C140 1.160 . S
O143 Cd144 2.203 . S
Cd144 O143 2.203 . S
Cd144 O146 2.411 . S
Cd144 O147 2.333 . S
Cd144 O148 2.352 . S
Cd144 O152 2.277 . S
Cd144 O153 2.356 . S
C145 O150 1.209 . S
C145 O152 1.226 . S
O146 Cd142 2.273 . S
O146 Cd144 2.411 . S
O146 C149 1.320 . S
O147 Cd144 2.333 . S
O147 C149 1.214 . S
O148 Cd144 2.352 . S
O148 C151 1.258 . S
C149 O146 1.320 . S
C149 O147 1.214 . S
O150 Cd142 2.277 . S
O150 C145 1.209 . S
C151 O148 1.258 . S
C151 O153 1.282 . S
O152 Cd144 2.277 . S
O152 C145 1.226 . S
O153 Cd144 2.356 . S
O153 C151 1.282 . S
C154 O155 1.306 1_554 S
C154 O157 1.160 . S
O155 C154 1.306 1_556 S
O155 Cd156 2.228 . S
Cd156 O155 2.228 . S
Cd156 O160 2.273 . S
Cd156 O164 2.277 . S
O157 C154 1.160 . S
O157 Cd158 2.203 . S
Cd158 O157 2.203 . S
Cd158 O160 2.411 1_554 S
Cd158 O161 2.333 . S
Cd158 O162 2.352 . S
Cd158 O166 2.277 . S
Cd158 O167 2.356 . S
C159 O164 1.209 1_554 S
C159 O166 1.226 . S
O160 Cd156 2.273 . S
O160 Cd158 2.411 1_556 S
O160 C163 1.320 . S
O161 Cd158 2.333 . S
O161 C163 1.214 1_554 S
O162 Cd158 2.352 . S
O162 C165 1.258 . S
C163 O160 1.320 . S
C163 O161 1.214 1_556 S
O164 Cd156 2.277 . S
O164 C159 1.209 1_556 S
C165 O162 1.258 . S
C165 O167 1.282 . S
O166 Cd158 2.277 . S
O166 C159 1.226 . S
O167 Cd158 2.356 . S
O167 C165 1.282 . S
C168 C169 1.363 . S
C168 C174 1.379 . S
C168 N176 1.356 . S
C169 C168 1.363 . S
C169 C175 1.363 . S
C170 C171 1.363 . S
C170 C175 1.379 . S
C170 N177 1.356 . S
C171 C170 1.363 . S
C171 C174 1.363 . S
N172 C174 1.356 . S
N172 H184 0.984 . S
N172 H185 0.985 . S
N173 C175 1.356 . S
N173 H178 0.984 . S
N173 H179 0.985 . S
C174 C168 1.379 . S
C174 C171 1.363 . S
C174 N172 1.356 . S
C175 C169 1.363 . S
C175 C170 1.379 . S
C175 N173 1.356 . S
N176 C168 1.356 . S
N176 H182 0.984 . S
N176 H183 0.984 . S
N177 C170 1.356 . S
N177 H180 0.984 . S
N177 H181 0.985 . S
H178 N173 0.984 . S
H179 N173 0.985 . S
H180 N177 0.984 . S
H181 N177 0.985 . S
H182 N176 0.984 . S
H183 N176 0.984 . S
H184 N172 0.984 . S
H185 N172 0.985 . S
C186 C187 1.363 . S
C186 C192 1.379 1_655 S
C186 N194 1.356 . S
C187 C186 1.363 . S
C187 C193 1.363 . S
C188 C189 1.363 . S
C188 C193 1.379 1_455 S
C188 N195 1.356 . S
C189 C188 1.363 . S
C189 C192 1.363 . S
N190 C192 1.356 . S
N190 H202 0.984 . S
N190 H203 0.985 . S
N191 C193 1.356 . S
N191 H196 0.984 . S
N191 H197 0.985 . S
C192 C186 1.379 1_455 S
C192 C189 1.363 . S
C192 N190 1.356 . S
C193 C187 1.363 . S
C193 C188 1.379 1_655 S
C193 N191 1.356 . S
N194 C186 1.356 . S
N194 H200 0.984 . S
N194 H201 0.984 . S
N195 C188 1.356 . S
N195 H198 0.984 . S
N195 H199 0.985 . S
H196 N191 0.984 . S
H197 N191 0.985 . S
H198 N195 0.984 . S
H199 N195 0.985 . S
H200 N194 0.984 . S
H201 N194 0.984 . S
H202 N190 0.984 . S
H203 N190 0.985 . S
C204 C205 1.363 1_554 S
C204 C210 1.379 1_565 S
C204 N212 1.356 1_554 S
C205 C204 1.363 1_556 S
C205 C211 1.363 . S
C206 C207 1.363 1_556 S
C206 C211 1.379 1_545 S
C206 N213 1.356 1_556 S
C207 C206 1.363 1_554 S
C207 C210 1.363 . S
N208 C210 1.356 . S
N208 H220 0.984 . S
N208 H221 0.985 . S
N209 C211 1.356 . S
N209 H214 0.984 . S
N209 H215 0.985 . S
C210 C204 1.379 1_545 S
C210 C207 1.363 . S
C210 N208 1.356 . S
C211 C205 1.363 . S
C211 C206 1.379 1_565 S
C211 N209 1.356 . S
N212 C204 1.356 1_556 S
N212 H218 0.984 1_556 S
N212 H219 0.984 . S
N213 C206 1.356 1_554 S
N213 H216 0.984 . S
N213 H217 0.985 1_554 S
H214 N209 0.984 . S
H215 N209 0.985 . S
H216 N213 0.984 . S
H217 N213 0.985 1_556 S
H218 N212 0.984 1_554 S
H219 N212 0.984 . S
H220 N208 0.984 . S
H221 N208 0.985 . S
C222 C223 1.363 . S
C222 C228 1.379 . S
C222 N230 1.356 . S
C223 C222 1.363 . S
C223 C229 1.363 . S
C224 C225 1.363 . S
C224 C229 1.379 . S
C224 N231 1.356 . S
C225 C224 1.363 . S
C225 C228 1.363 . S
N226 C228 1.356 . S
N226 H238 0.984 . S
N226 H239 0.985 . S
N227 C229 1.356 . S
N227 H232 0.984 . S
N227 H233 0.985 . S
C228 C222 1.379 . S
C228 C225 1.363 . S
C228 N226 1.356 . S
C229 C223 1.363 . S
C229 C224 1.379 . S
C229 N227 1.356 . S
N230 C222 1.356 . S
N230 H236 0.984 . S
N230 H237 0.984 . S
N231 C224 1.356 . S
N231 H234 0.984 . S
N231 H235 0.985 . S
H232 N227 0.984 . S
H233 N227 0.985 . S
H234 N231 0.984 . S
H235 N231 0.985 . S
H236 N230 0.984 . S
H237 N230 0.984 . S
H238 N226 0.984 . S
H239 N226 0.985 . S
C240 C241 1.363 . S
C240 C246 1.379 1_655 S
C240 N248 1.356 . S
C241 C240 1.363 . S
C241 C247 1.363 . S
C242 C243 1.363 . S
C242 C247 1.379 1_455 S
C242 N249 1.356 . S
C243 C242 1.363 . S
C243 C246 1.363 . S
N244 C246 1.356 . S
N244 H256 0.984 . S
N244 H257 0.985 . S
N245 C247 1.356 . S
N245 H250 0.984 . S
N245 H251 0.985 . S
C246 C240 1.379 1_455 S
C246 C243 1.363 . S
C246 N244 1.356 . S
C247 C241 1.363 . S
C247 C242 1.379 1_655 S
C247 N245 1.356 . S
N248 C240 1.356 . S
N248 H254 0.984 . S
N248 H255 0.984 . S
N249 C242 1.356 . S
N249 H252 0.984 . S
N249 H253 0.985 . S
H250 N245 0.984 . S
H251 N245 0.985 . S
H252 N249 0.984 . S
H253 N249 0.985 . S
H254 N248 0.984 . S
H255 N248 0.984 . S
H256 N244 0.984 . S
H257 N244 0.985 . S
C258 C259 1.363 1_556 S
C258 C264 1.379 1_565 S
C258 N266 1.356 . S
C259 C258 1.363 1_554 S
C259 C265 1.363 . S
C260 C261 1.363 1_554 S
C260 C265 1.379 1_545 S
C260 N267 1.356 . S
C261 C260 1.363 1_556 S
C261 C264 1.363 . S
N262 C264 1.356 . S
N262 H274 0.984 1_545 S
N262 H275 0.985 . S
N263 C265 1.356 . S
N263 H268 0.984 . S
N263 H269 0.985 1_565 S
C264 C258 1.379 1_545 S
C264 C261 1.363 . S
C264 N262 1.356 . S
C265 C259 1.363 . S
C265 C260 1.379 1_565 S
C265 N263 1.356 . S
N266 C258 1.356 . S
N266 H272 0.984 . S
N266 H273 0.984 . S
N267 C260 1.356 . S
N267 H270 0.984 . S
N267 H271 0.985 . S
H268 N263 0.984 . S
H269 N263 0.985 1_545 S
H270 N267 0.984 . S
H271 N267 0.985 . S
H272 N266 0.984 . S
H273 N266 0.984 . S
H274 N262 0.984 1_565 S
H275 N262 0.985 . S
C276 C277 1.363 . S
C276 C282 1.379 1_556 S
C276 N284 1.356 . S
C277 C276 1.363 . S
C277 C283 1.363 . S
C278 C279 1.363 . S
C278 C283 1.379 1_554 S
C278 N285 1.356 . S
C279 C278 1.363 . S
C279 C282 1.363 . S
N280 C282 1.356 . S
N280 H292 0.984 . S
N280 H293 0.985 . S
N281 C283 1.356 . S
N281 H286 0.984 . S
N281 H287 0.985 . S
C282 C276 1.379 1_554 S
C282 C279 1.363 . S
C282 N280 1.356 . S
C283 C277 1.363 . S
C283 C278 1.379 1_556 S
C283 N281 1.356 . S
N284 C276 1.356 . S
N284 H290 0.984 1_556 S
N284 H291 0.984 . S
N285 C278 1.356 . S
N285 H288 0.984 . S
N285 H289 0.985 1_554 S
H286 N281 0.984 . S
H287 N281 0.985 . S
H288 N285 0.984 . S
H289 N285 0.985 1_556 S
H290 N284 0.984 1_554 S
H291 N284 0.984 . S
H292 N280 0.984 . S
H293 N280 0.985 . S
C294 C295 1.363 . S
C294 C300 1.379 . S
C294 N302 1.356 . S
C295 C294 1.363 . S
C295 C301 1.363 . S
C296 C297 1.363 . S
C296 C301 1.379 . S
C296 N303 1.356 . S
C297 C296 1.363 . S
C297 C300 1.363 . S
N298 C300 1.356 . S
N298 H310 0.984 . S
N298 H311 0.985 . S
N299 C301 1.356 . S
N299 H304 0.984 . S
N299 H305 0.985 . S
C300 C294 1.379 . S
C300 C297 1.363 . S
C300 N298 1.356 . S
C301 C295 1.363 . S
C301 C296 1.379 . S
C301 N299 1.356 . S
N302 C294 1.356 . S
N302 H308 0.984 . S
N302 H309 0.984 . S
N303 C296 1.356 . S
N303 H306 0.984 . S
N303 H307 0.985 . S
H304 N299 0.984 . S
H305 N299 0.985 . S
H306 N303 0.984 . S
H307 N303 0.985 . S
H308 N302 0.984 . S
H309 N302 0.984 . S
H310 N298 0.984 . S
H311 N298 0.985 . S
C312 C313 1.363 . S
C312 C318 1.379 . S
C312 N320 1.356 . S
C313 C312 1.363 . S
C313 C319 1.363 . S
C314 C315 1.363 . S
C314 C319 1.379 . S
C314 N321 1.356 . S
C315 C314 1.363 . S
C315 C318 1.363 . S
N316 C318 1.356 . S
N316 H328 0.984 . S
N316 H329 0.985 . S
N317 C319 1.356 . S
N317 H322 0.984 . S
N317 H323 0.985 . S
C318 C312 1.379 . S
C318 C315 1.363 . S
C318 N316 1.356 . S
C319 C313 1.363 . S
C319 C314 1.379 . S
C319 N317 1.356 . S
N320 C312 1.356 . S
N320 H326 0.984 . S
N320 H327 0.984 . S
N321 C314 1.356 . S
N321 H324 0.984 . S
N321 H325 0.985 . S
H322 N317 0.984 . S
H323 N317 0.985 . S
H324 N321 0.984 . S
H325 N321 0.985 . S
H326 N320 0.984 . S
H327 N320 0.984 . S
H328 N316 0.984 . S
H329 N316 0.985 . S
C330 C331 1.363 . S
C330 C336 1.379 1_554 S
C330 N338 1.356 . S
C331 C330 1.363 . S
C331 C337 1.363 . S
C332 C333 1.363 . S
C332 C337 1.379 1_556 S
C332 N339 1.356 . S
C333 C332 1.363 . S
C333 C336 1.363 . S
N334 C336 1.356 . S
N334 H346 0.984 1_556 S
N334 H347 0.985 . S
N335 C337 1.356 . S
N335 H340 0.984 . S
N335 H341 0.985 1_554 S
C336 C330 1.379 1_556 S
C336 C333 1.363 . S
C336 N334 1.356 . S
C337 C331 1.363 . S
C337 C332 1.379 1_554 S
C337 N335 1.356 . S
N338 C330 1.356 . S
N338 H344 0.984 . S
N338 H345 0.984 . S
N339 C332 1.356 . S
N339 H342 0.984 . S
N339 H343 0.985 . S
H340 N335 0.984 . S
H341 N335 0.985 1_556 S
H342 N339 0.984 . S
H343 N339 0.985 . S
H344 N338 0.984 . S
H345 N338 0.984 . S
H346 N334 0.984 1_554 S
H347 N334 0.985 . S
C348 C349 1.363 . S
C348 C354 1.379 . S
C348 N356 1.356 . S
C349 C348 1.363 . S
C349 C355 1.363 . S
C350 C351 1.363 . S
C350 C355 1.379 . S
C350 N357 1.356 . S
C351 C350 1.363 . S
C351 C354 1.363 . S
N352 C354 1.356 . S
N352 H364 0.984 . S
N352 H365 0.985 . S
N353 C355 1.356 . S
N353 H358 0.984 . S
N353 H359 0.985 . S
C354 C348 1.379 . S
C354 C351 1.363 . S
C354 N352 1.356 . S
C355 C349 1.363 . S
C355 C350 1.379 . S
C355 N353 1.356 . S
N356 C348 1.356 . S
N356 H362 0.984 . S
N356 H363 0.984 . S
N357 C350 1.356 . S
N357 H360 0.984 . S
N357 H361 0.985 . S
H358 N353 0.984 . S
H359 N353 0.985 . S
H360 N357 0.984 . S
H361 N357 0.985 . S
H362 N356 0.984 . S
H363 N356 0.984 . S
H364 N352 0.984 . S
H365 N352 0.985 . S
C366 C367 1.363 . S
C366 C372 1.379 . S
C366 N374 1.356 . S
C367 C366 1.363 . S
C367 C373 1.363 . S
C368 C369 1.363 . S
C368 C373 1.379 . S
C368 N375 1.356 . S
C369 C368 1.363 . S
C369 C372 1.363 . S
N370 C372 1.356 . S
N370 H382 0.984 . S
N370 H383 0.985 . S
N371 C373 1.356 . S
N371 H376 0.984 . S
N371 H377 0.985 . S
C372 C366 1.379 . S
C372 C369 1.363 . S
C372 N370 1.356 . S
C373 C367 1.363 . S
C373 C368 1.379 . S
C373 N371 1.356 . S
N374 C366 1.356 . S
N374 H380 0.984 . S
N374 H381 0.984 . S
N375 C368 1.356 . S
N375 H378 0.984 . S
N375 H379 0.985 . S
H376 N371 0.984 . S
H377 N371 0.985 . S
H378 N375 0.984 . S
H379 N375 0.985 . S
H380 N374 0.984 . S
H381 N374 0.984 . S
H382 N370 0.984 . S
H383 N370 0.985 . S
C384 C385 1.363 . S
C384 C390 1.379 . S
C384 N392 1.356 . S
C385 C384 1.363 . S
C385 C391 1.363 . S
C386 C387 1.363 . S
C386 C391 1.379 . S
C386 N393 1.356 . S
C387 C386 1.363 . S
C387 C390 1.363 . S
N388 C390 1.356 . S
N388 H400 0.984 . S
N388 H401 0.985 . S
N389 C391 1.356 . S
N389 H394 0.984 . S
N389 H395 0.985 . S
C390 C384 1.379 . S
C390 C387 1.363 . S
C390 N388 1.356 . S
C391 C385 1.363 . S
C391 C386 1.379 . S
C391 N389 1.356 . S
N392 C384 1.356 . S
N392 H398 0.984 . S
N392 H399 0.984 . S
N393 C386 1.356 . S
N393 H396 0.984 . S
N393 H397 0.985 . S
H394 N389 0.984 . S
H395 N389 0.985 . S
H396 N393 0.984 . S
H397 N393 0.985 . S
H398 N392 0.984 . S
H399 N392 0.984 . S
H400 N388 0.984 . S
H401 N388 0.985 . S
C402 C403 1.363 . S
C402 C408 1.379 . S
C402 N410 1.356 . S
C403 C402 1.363 . S
C403 C409 1.363 . S
C404 C405 1.363 . S
C404 C409 1.379 . S
C404 N411 1.356 . S
C405 C404 1.363 . S
C405 C408 1.363 . S
N406 C408 1.356 . S
N406 H418 0.984 . S
N406 H419 0.985 . S
N407 C409 1.356 . S
N407 H412 0.984 . S
N407 H413 0.985 . S
C408 C402 1.379 . S
C408 C405 1.363 . S
C408 N406 1.356 . S
C409 C403 1.363 . S
C409 C404 1.379 . S
C409 N407 1.356 . S
N410 C402 1.356 . S
N410 H416 0.984 . S
N410 H417 0.984 . S
N411 C404 1.356 . S
N411 H414 0.984 1_556 S
N411 H415 0.985 1_556 S
H412 N407 0.984 . S
H413 N407 0.985 . S
H414 N411 0.984 1_554 S
H415 N411 0.985 1_554 S
H416 N410 0.984 . S
H417 N410 0.984 . S
H418 N406 0.984 . S
H419 N406 0.985 . S
C420 C421 1.363 . S
C420 C426 1.379 . S
C420 N428 1.356 . S
C421 C420 1.363 . S
C421 C427 1.363 . S
C422 C423 1.363 . S
C422 C427 1.379 . S
C422 N429 1.356 . S
C423 C422 1.363 . S
C423 C426 1.363 . S
N424 C426 1.356 . S
N424 H436 0.984 . S
N424 H437 0.985 . S
N425 C427 1.356 . S
N425 H430 0.984 . S
N425 H431 0.985 . S
C426 C420 1.379 . S
C426 C423 1.363 . S
C426 N424 1.356 . S
C427 C421 1.363 . S
C427 C422 1.379 . S
C427 N425 1.356 . S
N428 C420 1.356 . S
N428 H434 0.984 . S
N428 H435 0.984 . S
N429 C422 1.356 . S
N429 H432 0.984 . S
N429 H433 0.985 . S
H430 N425 0.984 . S
H431 N425 0.985 . S
H432 N429 0.984 . S
H433 N429 0.985 . S
H434 N428 0.984 . S
H435 N428 0.984 . S
H436 N424 0.984 . S
H437 N424 0.985 . S
C438 C439 1.363 . S
C438 C444 1.379 . S
C438 N446 1.356 . S
C439 C438 1.363 . S
C439 C445 1.363 . S
C440 C441 1.363 . S
C440 C445 1.379 . S
C440 N447 1.356 . S
C441 C440 1.363 . S
C441 C444 1.363 . S
N442 C444 1.356 . S
N442 H454 0.984 . S
N442 H455 0.985 . S
N443 C445 1.356 . S
N443 H448 0.984 . S
N443 H449 0.985 . S
C444 C438 1.379 . S
C444 C441 1.363 . S
C444 N442 1.356 . S
C445 C439 1.363 . S
C445 C440 1.379 . S
C445 N443 1.356 . S
N446 C438 1.356 . S
N446 H452 0.984 . S
N446 H453 0.984 . S
N447 C440 1.356 . S
N447 H450 0.984 . S
N447 H451 0.985 . S
H448 N443 0.984 . S
H449 N443 0.985 . S
H450 N447 0.984 . S
H451 N447 0.985 . S
H452 N446 0.984 . S
H453 N446 0.984 . S
H454 N442 0.984 . S
H455 N442 0.985 . S
C456 C457 1.363 . S
C456 C462 1.379 . S
C456 N464 1.356 . S
C457 C456 1.363 . S
C457 C463 1.363 . S
C458 C459 1.363 . S
C458 C463 1.379 . S
C458 N465 1.356 . S
C459 C458 1.363 . S
C459 C462 1.363 . S
N460 C462 1.356 . S
N460 H472 0.984 1_556 S
N460 H473 0.985 1_556 S
N461 C463 1.356 . S
N461 H466 0.984 . S
N461 H467 0.985 . S
C462 C456 1.379 . S
C462 C459 1.363 . S
C462 N460 1.356 . S
C463 C457 1.363 . S
C463 C458 1.379 . S
C463 N461 1.356 . S
N464 C456 1.356 . S
N464 H470 0.984 . S
N464 H471 0.984 . S
N465 C458 1.356 . S
N465 H468 0.984 . S
N465 H469 0.985 . S
H466 N461 0.984 . S
H467 N461 0.985 . S
H468 N465 0.984 . S
H469 N465 0.985 . S
H470 N464 0.984 . S
H471 N464 0.984 . S
H472 N460 0.984 1_554 S
H473 N460 0.985 1_554 S
C474 C475 1.363 . S
C474 C480 1.379 . S
C474 N482 1.356 . S
C475 C474 1.363 . S
C475 C481 1.363 . S
C476 C477 1.363 . S
C476 C481 1.379 . S
C476 N483 1.356 . S
C477 C476 1.363 . S
C477 C480 1.363 . S
N478 C480 1.356 . S
N478 H490 0.984 . S
N478 H491 0.985 . S
N479 C481 1.356 . S
N479 H484 0.984 . S
N479 H485 0.985 . S
C480 C474 1.379 . S
C480 C477 1.363 . S
C480 N478 1.356 . S
C481 C475 1.363 . S
C481 C476 1.379 . S
C481 N479 1.356 . S
N482 C474 1.356 . S
N482 H488 0.984 . S
N482 H489 0.984 . S
N483 C476 1.356 . S
N483 H486 0.984 . S
N483 H487 0.985 . S
H484 N479 0.984 . S
H485 N479 0.985 . S
H486 N483 0.984 . S
H487 N483 0.985 . S
H488 N482 0.984 . S
H489 N482 0.984 . S
H490 N478 0.984 . S
H491 N478 0.985 . S
C492 C493 1.363 . S
C492 C498 1.379 . S
C492 N500 1.356 . S
C493 C492 1.363 . S
C493 C499 1.363 . S
C494 C495 1.363 . S
C494 C499 1.379 . S
C494 N501 1.356 . S
C495 C494 1.363 . S
C495 C498 1.363 . S
N496 C498 1.356 . S
N496 H508 0.984 . S
N496 H509 0.985 . S
N497 C499 1.356 . S
N497 H502 0.984 . S
N497 H503 0.985 . S
C498 C492 1.379 . S
C498 C495 1.363 . S
C498 N496 1.356 . S
C499 C493 1.363 . S
C499 C494 1.379 . S
C499 N497 1.356 . S
N500 C492 1.356 . S
N500 H506 0.984 . S
N500 H507 0.984 . S
N501 C494 1.356 . S
N501 H504 0.984 . S
N501 H505 0.985 . S
H502 N497 0.984 . S
H503 N497 0.985 . S
H504 N501 0.984 . S
H505 N501 0.985 . S
H506 N500 0.984 . S
H507 N500 0.984 . S
H508 N496 0.984 . S
H509 N496 0.985 . S
C510 C511 1.363 . S
C510 C516 1.379 . S
C510 N518 1.356 . S
C511 C510 1.363 . S
C511 C517 1.363 . S
C512 C513 1.363 . S
C512 C517 1.379 . S
C512 N519 1.356 . S
C513 C512 1.363 . S
C513 C516 1.363 . S
N514 C516 1.356 . S
N514 H526 0.984 . S
N514 H527 0.985 . S
N515 C517 1.356 . S
N515 H520 0.984 . S
N515 H521 0.985 . S
C516 C510 1.379 . S
C516 C513 1.363 . S
C516 N514 1.356 . S
C517 C511 1.363 . S
C517 C512 1.379 . S
C517 N515 1.356 . S
N518 C510 1.356 . S
N518 H524 0.984 . S
N518 H525 0.984 . S
N519 C512 1.356 . S
N519 H522 0.984 . S
N519 H523 0.985 . S
H520 N515 0.984 . S
H521 N515 0.985 . S
H522 N519 0.984 . S
H523 N519 0.985 . S
H524 N518 0.984 . S
H525 N518 0.984 . S
H526 N514 0.984 . S
H527 N514 0.985 . S
C528 C529 1.363 1_556 S
C528 C534 1.379 . S
C528 N536 1.356 . S
C529 C528 1.363 1_554 S
C529 C535 1.363 . S
C530 C531 1.363 1_554 S
C530 C535 1.379 . S
C530 N537 1.356 . S
C531 C530 1.363 1_556 S
C531 C534 1.363 . S
N532 C534 1.356 . S
N532 H544 0.984 . S
N532 H545 0.985 . S
N533 C535 1.356 . S
N533 H538 0.984 . S
N533 H539 0.985 . S
C534 C528 1.379 . S
C534 C531 1.363 . S
C534 N532 1.356 . S
C535 C529 1.363 . S
C535 C530 1.379 . S
C535 N533 1.356 . S
N536 C528 1.356 . S
N536 H542 0.984 . S
N536 H543 0.984 . S
N537 C530 1.356 . S
N537 H540 0.984 . S
N537 H541 0.985 . S
H538 N533 0.984 . S
H539 N533 0.985 . S
H540 N537 0.984 . S
H541 N537 0.985 . S
H542 N536 0.984 . S
H543 N536 0.984 . S
H544 N532 0.984 . S
H545 N532 0.985 . S
C546 C547 1.363 . S
C546 C552 1.379 . S
C546 N554 1.356 . S
C547 C546 1.363 . S
C547 C553 1.363 . S
C548 C549 1.363 . S
C548 C553 1.379 . S
C548 N555 1.356 . S
C549 C548 1.363 . S
C549 C552 1.363 . S
N550 C552 1.356 . S
N550 H562 0.984 . S
N550 H563 0.985 . S
N551 C553 1.356 . S
N551 H556 0.984 . S
N551 H557 0.985 . S
C552 C546 1.379 . S
C552 C549 1.363 . S
C552 N550 1.356 . S
C553 C547 1.363 . S
C553 C548 1.379 . S
C553 N551 1.356 . S
N554 C546 1.356 . S
N554 H560 0.984 . S
N554 H561 0.984 . S
N555 C548 1.356 . S
N555 H558 0.984 . S
N555 H559 0.985 . S
H556 N551 0.984 . S
H557 N551 0.985 . S
H558 N555 0.984 . S
H559 N555 0.985 . S
H560 N554 0.984 . S
H561 N554 0.984 . S
H562 N550 0.984 . S
H563 N550 0.985 . S
C564 C565 1.363 . S
C564 C570 1.379 . S
C564 N572 1.356 . S
C565 C564 1.363 . S
C565 C571 1.363 . S
C566 C567 1.363 . S
C566 C571 1.379 . S
C566 N573 1.356 . S
C567 C566 1.363 . S
C567 C570 1.363 . S
N568 C570 1.356 . S
N568 H580 0.984 . S
N568 H581 0.985 . S
N569 C571 1.356 . S
N569 H574 0.984 . S
N569 H575 0.985 . S
C570 C564 1.379 . S
C570 C567 1.363 . S
C570 N568 1.356 . S
C571 C565 1.363 . S
C571 C566 1.379 . S
C571 N569 1.356 . S
N572 C564 1.356 . S
N572 H578 0.984 . S
N572 H579 0.984 . S
N573 C566 1.356 . S
N573 H576 0.984 . S
N573 H577 0.985 . S
H574 N569 0.984 . S
H575 N569 0.985 . S
H576 N573 0.984 . S
H577 N573 0.985 . S
H578 N572 0.984 . S
H579 N572 0.984 . S
H580 N568 0.984 . S
H581 N568 0.985 . S
C582 C583 1.363 1_554 S
C582 C588 1.379 . S
C582 N590 1.356 . S
C583 C582 1.363 1_556 S
C583 C589 1.363 . S
C584 C585 1.363 1_556 S
C584 C589 1.379 . S
C584 N591 1.356 . S
C585 C584 1.363 1_554 S
C585 C588 1.363 . S
N586 C588 1.356 . S
N586 H598 0.984 . S
N586 H599 0.985 . S
N587 C589 1.356 . S
N587 H592 0.984 . S
N587 H593 0.985 . S
C588 C582 1.379 . S
C588 C585 1.363 . S
C588 N586 1.356 . S
C589 C583 1.363 . S
C589 C584 1.379 . S
C589 N587 1.356 . S
N590 C582 1.356 . S
N590 H596 0.984 . S
N590 H597 0.984 . S
N591 C584 1.356 . S
N591 H594 0.984 . S
N591 H595 0.985 . S
H592 N587 0.984 . S
H593 N587 0.985 . S
H594 N591 0.984 . S
H595 N591 0.985 . S
H596 N590 0.984 . S
H597 N590 0.984 . S
H598 N586 0.984 . S
H599 N586 0.985 . S
C169 C0 1.432 . S
C171 C126 1.432 . S
C187 C14 1.432 . S
C189 C140 1.432 . S
C205 C28 1.432 . S
C207 C154 1.432 . S
C223 C42 1.432 . S
C225 C84 1.432 . S
C241 C98 1.432 . S
C243 C56 1.432 . S
C259 C112 1.432 . S
C261 C70 1.432 . S
C277 C151 1.700 . S
C279 C11 1.700 . S
C295 C25 1.700 . S
C297 C165 1.700 . S
C313 C39 1.700 . S
C315 C95 1.700 . S
C331 C53 1.700 . S
C333 C109 1.700 . S
C349 C67 1.700 . S
C351 C123 1.700 . S
C367 C81 1.700 . S
C369 C137 1.700 . S
C385 C149 1.139 . S
C387 C9 1.139 . S
C403 C23 1.139 . S
C405 C163 1.139 . S
C421 C37 1.139 . S
C423 C93 1.139 . S
C439 C51 1.139 . S
C441 C107 1.139 . S
C457 C65 1.139 . S
C459 C121 1.139 . S
C475 C79 1.139 . S
C477 C135 1.139 . S
C493 C5 1.629 . S
C495 C89 1.629 . S
C511 C103 1.629 . S
C513 C19 1.629 . S
C529 C33 1.629 1_554 S
C531 C117 1.629 1_556 S
C547 C47 1.629 . S
C549 C131 1.629 . S
C565 C61 1.629 . S
C567 C145 1.629 . S
C583 C159 1.629 1_556 S
C585 C75 1.629 1_554 S
