# Generated by pormake.
# Topology wht, (6)-cn, num edge types: 1
# Building blocks:
#     Node 0, Type 0, BuildingBlock: VOLQOD_clean_sbu_1, # of connection points: 6
#     Node 1, Type 0, BuildingBlock: VOLQOD_clean_sbu_1, # of connection points: 6
#     Node 2, Type 0, BuildingBlock: VOLQOD_clean_sbu_1, # of connection points: 6
#     Node 3, Type 0, BuildingBlock: VOLQOD_clean_sbu_1, # of connection points: 6
#     Node 4, Type 0, BuildingBlock: VOLQOD_clean_sbu_1, # of connection points: 6
#     Node 5, Type 0, BuildingBlock: VOLQOD_clean_sbu_1, # of connection points: 6
#     Node 6, Type 0, BuildingBlock: VOLQOD_clean_sbu_1, # of connection points: 6
#     Node 7, Type 0, BuildingBlock: VOLQOD_clean_sbu_1, # of connection points: 6
#     Edge 8, Type (0, 0), BuildingBlock: XIVTED_clean_linker_0, # of connection points: 2
#     Edge 9, Type (0, 0), BuildingBlock: XIVTED_clean_linker_0, # of connection points: 2
#     Edge 10, Type (0, 0), BuildingBlock: XIVTED_clean_linker_0, # of connection points: 2
#     Edge 11, Type (0, 0), BuildingBlock: XIVTED_clean_linker_0, # of connection points: 2
#     Edge 12, Type (0, 0), BuildingBlock: XIVTED_clean_linker_0, # of connection points: 2
#     Edge 13, Type (0, 0), BuildingBlock: XIVTED_clean_linker_0, # of connection points: 2
#     Edge 14, Type (0, 0), BuildingBlock: XIVTED_clean_linker_0, # of connection points: 2
#     Edge 15, Type (0, 0), BuildingBlock: XIVTED_clean_linker_0, # of connection points: 2
#     Edge 16, Type (0, 0), BuildingBlock: XIVTED_clean_linker_0, # of connection points: 2
#     Edge 17, Type (0, 0), BuildingBlock: XIVTED_clean_linker_0, # of connection points: 2
#     Edge 18, Type (0, 0), BuildingBlock: XIVTED_clean_linker_0, # of connection points: 2
#     Edge 19, Type (0, 0), BuildingBlock: XIVTED_clean_linker_0, # of connection points: 2
#     Edge 20, Type (0, 0), BuildingBlock: XIVTED_clean_linker_0, # of connection points: 2
#     Edge 21, Type (0, 0), BuildingBlock: XIVTED_clean_linker_0, # of connection points: 2
#     Edge 22, Type (0, 0), BuildingBlock: XIVTED_clean_linker_0, # of connection points: 2
#     Edge 23, Type (0, 0), BuildingBlock: XIVTED_clean_linker_0, # of connection points: 2
#     Edge 24, Type (0, 0), BuildingBlock: XIVTED_clean_linker_0, # of connection points: 2
#     Edge 25, Type (0, 0), BuildingBlock: XIVTED_clean_linker_0, # of connection points: 2
#     Edge 26, Type (0, 0), BuildingBlock: XIVTED_clean_linker_0, # of connection points: 2
#     Edge 27, Type (0, 0), BuildingBlock: XIVTED_clean_linker_0, # of connection points: 2
#     Edge 28, Type (0, 0), BuildingBlock: XIVTED_clean_linker_0, # of connection points: 2
#     Edge 29, Type (0, 0), BuildingBlock: XIVTED_clean_linker_0, # of connection points: 2
#     Edge 30, Type (0, 0), BuildingBlock: XIVTED_clean_linker_0, # of connection points: 2
#     Edge 31, Type (0, 0), BuildingBlock: XIVTED_clean_linker_0, # of connection points: 2
# Relax obj value: 0.362
# Max RMSD: 0.253
# Mean RMSD: 0.253
data_MOF--net-wht--node1-VOLQOD_clean_sbu_1--edge1-XIVTED_clean_linker_0
_symmetry_space_group_name_H-M    P1
_symmetry_Int_Tables_number       1
_symmetry_cell_setting            triclinic
loop_
_symmetry_equiv_pos_as_xyz
'x, y, z'
_cell_length_a     27.728718
_cell_length_b     27.691287
_cell_length_c     49.458785
_cell_angle_alpha  90.513127
_cell_angle_beta   90.041273
_cell_angle_gamma 90.004381
loop_
_atom_site_label
_atom_site_type_symbol
_atom_site_fract_x
_atom_site_fract_y
_atom_site_fract_z
_atom_type_partial_charge
O0 O 0.1226 0.29011 0.18244 0.0
Zn1 Zn 0.12604 0.27387 0.14258 0.0
O2 O 0.06039 0.27175 0.12892 0.0
Zn3 Zn 0.04165 0.2077 0.11763 0.0
Zn4 Zn 0.01497 0.29414 0.15572 0.0
Zn5 Zn 0.05593 0.31115 0.09774 0.0
O6 O 0.02035 0.20389 0.07885 0.0
O7 O 0.05903 0.26908 0.06477 0.0
O8 O 0.16052 0.2087 0.13577 0.0
O9 O 0.09975 0.16657 0.11808 0.0
O10 O 0.9955 0.1771 0.14364 0.0
O11 O 0.98307 0.23756 0.17249 0.0
O12 O 0.96214 0.33495 0.13892 0.0
O13 O 0.16208 0.33087 0.12577 0.0
O14 O 0.99319 0.34495 0.09785 0.0
O15 O 0.1083 0.36037 0.09701 0.0
C16 C 0.09196 0.31463 0.19614 0.0
C17 C 0.03925 0.22836 0.05992 0.0
C18 C 0.97745 0.19366 0.16549 0.0
C19 C 0.14358 0.16979 0.12531 0.0
C20 C 0.95986 0.35184 0.11508 0.0
C21 C 0.14893 0.363 0.10888 0.0
O22 O 0.05058 0.32545 0.18657 0.0
O23 O 0.26943 0.63635 0.3343 0.0
Zn24 Zn 0.2361 0.65037 0.3692 0.0
O25 O 0.24275 0.59499 0.39217 0.0
Zn26 Zn 0.18114 0.56643 0.39929 0.0
Zn27 Zn 0.28465 0.54778 0.37542 0.0
Zn28 Zn 0.27145 0.61533 0.42558 0.0
O29 O 0.17437 0.55697 0.43945 0.0
O30 O 0.22334 0.61416 0.45568 0.0
O31 O 0.16522 0.66749 0.36288 0.0
O32 O 0.12823 0.61018 0.38634 0.0
O33 O 0.17294 0.50446 0.37775 0.0
O34 O 0.24483 0.49598 0.35847 0.0
O35 O 0.32811 0.51623 0.40269 0.0
O36 O 0.27735 0.70596 0.38295 0.0
O37 O 0.31927 0.56679 0.43731 0.0
O38 O 0.3083 0.67696 0.42086 0.0
C39 C 0.30812 0.6126 0.33003 0.0
C40 C 0.19102 0.58198 0.45918 0.0
C41 C 0.20144 0.48228 0.36167 0.0
C42 C 0.12663 0.64756 0.37151 0.0
C43 C 0.33791 0.5292 0.42683 0.0
C44 C 0.30719 0.70899 0.40255 0.0
O45 O 0.32235 0.57955 0.34592 0.0
O46 O 0.87538 0.71249 0.69132 0.0
Zn47 Zn 0.8626 0.72255 0.65132 0.0
O48 O 0.92497 0.72184 0.63265 0.0
Zn49 Zn 0.94275 0.78595 0.62127 0.0
Zn50 Zn 0.97581 0.69729 0.65558 0.0
Zn51 Zn 0.92105 0.6811 0.60135 0.0
O52 O 0.95863 0.78858 0.58172 0.0
O53 O 0.92565 0.71963 0.5677 0.0
O54 O 0.82757 0.78765 0.64543 0.0
O55 O 0.88628 0.82864 0.62549 0.0
O56 O 0.99497 0.81466 0.64445 0.0
O57 O 0.02067 0.74984 0.66613 0.0
O58 O 0.01576 0.6443 0.63858 0.0
O59 O 0.82184 0.66473 0.63823 0.0
O60 O 0.97528 0.63476 0.60027 0.0
O61 O 0.86228 0.64069 0.6018 0.0
C62 C 0.91014 0.69125 0.70332 0.0
C63 C 0.94489 0.76036 0.56276 0.0
C64 C 0.02324 0.79468 0.66123 0.0
C65 C 0.84361 0.82636 0.6347 0.0
C66 C 0.00964 0.62324 0.6159 0.0
C67 C 0.82704 0.63616 0.61798 0.0
O68 O 0.94801 0.67795 0.69074 0.0
O69 O 0.77161 0.3774 0.94058 0.0
Zn70 Zn 0.75986 0.366 0.90029 0.0
O71 O 0.7564 0.42931 0.88326 0.0
Zn72 Zn 0.69122 0.44654 0.87362 0.0
Zn73 Zn 0.78237 0.47884 0.90645 0.0
Zn74 Zn 0.79256 0.4286 0.85067 0.0
O75 O 0.6834 0.46056 0.83397 0.0
O76 O 0.74782 0.4205 0.81951 0.0
O77 O 0.69591 0.32848 0.89354 0.0
O78 O 0.65123 0.38849 0.87751 0.0
O79 O 0.66336 0.49801 0.89805 0.0
O80 O 0.72986 0.52095 0.91954 0.0
O81 O 0.82926 0.52298 0.88791 0.0
O82 O 0.81945 0.32975 0.88547 0.0
O83 O 0.82892 0.48978 0.8468 0.0
O84 O 0.84091 0.37597 0.85102 0.0
C85 C 0.79417 0.41165 0.95267 0.0
C86 C 0.7064 0.43877 0.81519 0.0
C87 C 0.68489 0.52465 0.91534 0.0
C88 C 0.6559 0.34467 0.88433 0.0
C89 C 0.84226 0.52264 0.86328 0.0
C90 C 0.84798 0.3395 0.86591 0.0
O91 O 0.80711 0.44971 0.9403 0.0
O92 O 0.62358 0.20393 0.54322 0.0
Zn93 Zn 0.627 0.2201 0.58306 0.0
O94 O 0.56135 0.22277 0.5965 0.0
Zn95 Zn 0.54273 0.28696 0.60757 0.0
Zn96 Zn 0.51585 0.19996 0.56984 0.0
Zn97 Zn 0.55702 0.18442 0.62803 0.0
O98 O 0.52209 0.2915 0.64642 0.0
O99 O 0.56274 0.22757 0.66044 0.0
O100 O 0.66174 0.28507 0.58985 0.0
O101 O 0.60083 0.32808 0.60663 0.0
O102 O 0.49595 0.31698 0.58175 0.0
O103 O 0.48318 0.25627 0.5531 0.0
O104 O 0.46356 0.15889 0.58694 0.0
O105 O 0.66254 0.16282 0.59993 0.0
O106 O 0.49371 0.15173 0.62849 0.0
O107 O 0.60843 0.13429 0.62875 0.0
C108 C 0.5929 0.17958 0.52944 0.0
C109 C 0.54307 0.26835 0.6652 0.0
C110 C 0.47745 0.30017 0.56007 0.0
C111 C 0.64479 0.32442 0.59974 0.0
C112 C 0.46081 0.14362 0.61112 0.0
C113 C 0.64897 0.13099 0.61689 0.0
O114 O 0.55146 0.16883 0.53892 0.0
O115 O 0.27158 0.11916 0.78495 0.0
Zn116 Zn 0.25971 0.13139 0.8251 0.0
O117 O 0.25612 0.06842 0.84232 0.0
Zn118 Zn 0.19093 0.05091 0.85156 0.0
Zn119 Zn 0.28296 0.01873 0.81974 0.0
Zn120 Zn 0.29116 0.07012 0.87523 0.0
O121 O 0.18261 0.03736 0.89124 0.0
O122 O 0.24496 0.08086 0.90541 0.0
O123 O 0.19575 0.16892 0.83166 0.0
O124 O 0.15082 0.10878 0.84735 0.0
O125 O 0.16386 -0.001 0.8271 0.0
O126 O 0.23111 0.9759 0.80646 0.0
O127 O 0.32927 0.9753 0.83919 0.0
O128 O 0.31937 0.16767 0.83983 0.0
O129 O 0.32632 0.00851 0.88029 0.0
O130 O 0.34036 0.12201 0.87462 0.0
C131 C 0.2948 0.08499 0.77321 0.0
C132 C 0.20379 0.06198 0.90962 0.0
C133 C 0.18605 0.97207 0.81024 0.0
C134 C 0.15561 0.15266 0.84063 0.0
C135 C 0.34059 0.97559 0.8641 0.0
C136 C 0.34781 0.15809 0.85948 0.0
O137 O 0.30831 0.04746 0.78592 0.0
O138 O 0.3749 0.78379 0.03479 0.0
Zn139 Zn 0.36177 0.77287 0.07472 0.0
O140 O 0.42399 0.77262 0.09364 0.0
Zn141 Zn 0.44116 0.70793 0.10432 0.0
Zn142 Zn 0.47532 0.7974 0.07117 0.0
Zn143 Zn 0.42015 0.81259 0.1253 0.0
O144 O 0.45722 0.70402 0.14381 0.0
O145 O 0.4259 0.77324 0.15862 0.0
O146 O 0.32616 0.70787 0.07995 0.0
O147 O 0.38441 0.66572 0.09958 0.0
O148 O 0.49332 0.6797 0.08097 0.0
O149 O 0.52094 0.74538 0.06092 0.0
O150 O 0.51435 0.85084 0.08823 0.0
O151 O 0.32139 0.8306 0.08824 0.0
O152 O 0.47386 0.85969 0.12654 0.0
O153 O 0.36093 0.85254 0.12543 0.0
C154 C 0.41033 0.80434 0.02305 0.0
C155 C 0.44464 0.73209 0.16308 0.0
C156 C 0.52269 0.70026 0.06505 0.0
C157 C 0.3418 0.66866 0.0903 0.0
C158 C 0.50803 0.87174 0.11092 0.0
C159 C 0.32612 0.85803 0.10902 0.0
O160 O 0.44831 0.81656 0.03586 0.0
O161 O 0.76846 0.85736 0.3909 0.0
Zn162 Zn 0.73561 0.84418 0.35572 0.0
O163 O 0.74331 0.89986 0.33305 0.0
Zn164 Zn 0.68216 0.92923 0.32582 0.0
Zn165 Zn 0.78553 0.94636 0.35022 0.0
Zn166 Zn 0.77208 0.87972 0.29963 0.0
O167 O 0.67598 0.93973 0.28578 0.0
O168 O 0.72438 0.88234 0.26929 0.0
O169 O 0.66441 0.82763 0.3615 0.0
O170 O 0.62859 0.88575 0.33809 0.0
O171 O 0.67428 0.99079 0.34768 0.0
O172 O 0.74611 -0.00153 0.36719 0.0
O173 O 0.8299 0.97768 0.32332 0.0
O174 O 0.77655 0.78843 0.34191 0.0
O175 O 0.82084 0.92767 0.28846 0.0
O176 O 0.80802 0.81752 0.30419 0.0
C177 C 0.80734 0.88064 0.39552 0.0
C178 C 0.69248 0.91499 0.26593 0.0
C179 C 0.70284 0.01255 0.36391 0.0
C180 C 0.62625 0.84811 0.35267 0.0
C181 C 0.83991 0.96483 0.29919 0.0
C182 C 0.80648 0.78532 0.32239 0.0
O183 O 0.82224 0.9137 0.37983 0.0
H184 H 0.93839 0.21573 0.2148 0.0
H185 H 0.88153 0.94151 0.25096 0.0
H186 H 0.96611 0.09561 0.16064 0.0
H187 H 0.86282 0.06018 0.30723 0.0
H188 H 0.91568 0.99713 0.21832 0.0
H189 H 0.91039 0.15932 0.24885 0.0
C190 C 0.93815 0.17752 0.20993 0.0
C191 C 0.95469 0.16038 0.18479 0.0
C192 C 0.90456 0.01099 0.23788 0.0
C193 C 0.92326 0.09559 0.2239 0.0
C194 C 0.88526 0.97922 0.2566 0.0
C195 C 0.86891 0.99637 0.28176 0.0
C196 C 0.90724 0.06036 0.24427 0.0
C197 C 0.87495 0.04546 0.28805 0.0
C198 C 0.92249 0.14531 0.2295 0.0
C199 C 0.95362 0.11047 0.1797 0.0
N200 N 0.89316 0.07591 0.26927 0.0
N201 N 0.93829 0.07981 0.19915 0.0
H202 H 0.37788 0.55202 0.47562 0.0
H203 H 0.43831 0.27802 0.51073 0.0
H204 H 0.36115 0.43394 0.41874 0.0
H205 H 0.46438 0.39789 0.56535 0.0
H206 H 0.40901 0.33443 0.47698 0.0
H207 H 0.41189 0.49626 0.50824 0.0
C208 C 0.38197 0.51441 0.46985 0.0
C209 C 0.36631 0.49748 0.4445 0.0
C210 C 0.42102 0.34837 0.49637 0.0
C211 C 0.40453 0.43331 0.48195 0.0
C212 C 0.43743 0.31616 0.51577 0.0
C213 C 0.45393 0.33326 0.54094 0.0
C214 C 0.42101 0.39803 0.50218 0.0
C215 C 0.45199 0.38306 0.54625 0.0
C216 C 0.4012 0.48255 0.48856 0.0
C217 C 0.37276 0.44849 0.43806 0.0
N218 N 0.43598 0.41372 0.52697 0.0
N219 N 0.39096 0.41796 0.45682 0.0
H220 H 0.01025 0.88934 0.67535 0.0
H221 H 0.21741 0.88894 0.78681 0.0
H222 H 0.1031 0.76679 0.68902 0.0
H223 H 0.09549 0.98566 0.79001 0.0
H224 H 0.18069 0.84715 0.74834 0.0
H225 H 0.04892 0.93143 0.71331 0.0
C226 C 0.03958 0.8718 0.68589 0.0
C227 C 0.05344 0.82449 0.67919 0.0
C228 C 0.16167 0.87712 0.75766 0.0
C229 C 0.09681 0.87178 0.72274 0.0
C230 C 0.18239 0.90071 0.7797 0.0
C231 C 0.15926 0.94062 0.79154 0.0
C232 C 0.11794 0.89413 0.74715 0.0
C233 C 0.11415 0.95469 0.78156 0.0
C234 C 0.06103 0.89549 0.70779 0.0
C235 C 0.09122 0.80318 0.69368 0.0
N236 N 0.09513 0.93178 0.75962 0.0
N237 N 0.11146 0.82692 0.7149 0.0
H238 H 0.60551 0.72782 0.04012 0.0
H239 H 0.59232 0.51208 0.93285 0.0
H240 H 0.50715 0.60785 0.04759 0.0
H241 H 0.71616 0.60545 0.94134 0.0
H242 H 0.5548 0.5533 0.97152 0.0
H243 H 0.64398 0.68691 0.00193 0.0
C244 C 0.59273 0.69236 0.03405 0.0
C245 C 0.55315 0.67112 0.04695 0.0
C246 C 0.59003 0.56493 0.96472 0.0
C247 C 0.59581 0.62499 0.00286 0.0
C248 C 0.61103 0.54201 0.94243 0.0
C249 C 0.65734 0.55544 0.93403 0.0
C250 C 0.61545 0.60168 0.97834 0.0
C251 C 0.68043 0.59394 0.94733 0.0
C252 C 0.6144 0.66924 0.01215 0.0
C253 C 0.53782 0.62526 0.03829 0.0
N254 N 0.65931 0.61563 0.96893 0.0
N255 N 0.55879 0.60394 0.01645 0.0
H256 H 0.03483 0.36209 0.23301 0.0
H257 H 0.25289 0.415 0.33324 0.0
H258 H 0.17825 0.30402 0.22241 0.0
H259 H 0.10736 0.46388 0.348 0.0
H260 H 0.22352 0.365 0.29595 0.0
H261 H 0.0582 0.39202 0.27769 0.0
C262 C 0.07119 0.35546 0.24008 0.0
C263 C 0.10484 0.33107 0.22373 0.0
C264 C 0.19782 0.38605 0.30757 0.0
C265 C 0.13171 0.36511 0.27495 0.0
C266 C 0.21457 0.41454 0.32893 0.0
C267 C 0.18261 0.44423 0.34346 0.0
C268 C 0.14884 0.38775 0.30044 0.0
C269 C 0.1333 0.44177 0.33721 0.0
C270 C 0.08442 0.37236 0.26568 0.0
C271 C 0.15122 0.32305 0.23415 0.0
N272 N 0.11801 0.41469 0.31582 0.0
N273 N 0.16338 0.34041 0.25898 0.0
H274 H 0.10702 0.63341 0.62057 0.0
H275 H 0.12344 0.51588 0.475 0.0
H276 H 0.99722 0.54395 0.58406 0.0
H277 H 0.22011 0.62507 0.50652 0.0
H278 H 0.09178 0.50423 0.52046 0.0
H279 H 0.16411 0.6057 0.5861 0.0
C280 C 0.0956 0.60617 0.60606 0.0
C281 C 0.04721 0.59187 0.60451 0.0
C282 C 0.12037 0.53029 0.51747 0.0
C283 C 0.11138 0.56131 0.56485 0.0
C284 C 0.13819 0.53728 0.49148 0.0
C285 C 0.17346 0.57257 0.4868 0.0
C286 C 0.13769 0.55899 0.53892 0.0
C287 C 0.19203 0.59834 0.50906 0.0
C288 C 0.12798 0.59083 0.58618 0.0
C289 C 0.03412 0.55658 0.58541 0.0
N290 N 0.17339 0.59154 0.5341 0.0
N291 N 0.06573 0.54338 0.56583 0.0
H292 H 0.93066 0.52288 0.84039 0.0
H293 H 0.83473 0.70887 0.7382 0.0
H294 H 0.80865 0.61371 0.85852 0.0
H295 H 0.98008 0.65283 0.73537 0.0
H296 H 0.82942 0.68454 0.78553 0.0
H297 H 0.95721 0.58081 0.80667 0.0
C298 C 0.91069 0.55621 0.83797 0.0
C299 C 0.8676 0.5639 0.85198 0.0
C300 C 0.86278 0.67844 0.77465 0.0
C301 C 0.8957 0.62868 0.81253 0.0
C302 C 0.86565 0.69192 0.74757 0.0
C303 C 0.90733 0.68152 0.73256 0.0
C304 C 0.90168 0.654 0.7866 0.0
C305 C 0.94667 0.66038 0.74589 0.0
C306 C 0.92548 0.58913 0.81859 0.0
C307 C 0.84228 0.60698 0.84802 0.0
N308 N 0.94256 0.64661 0.77199 0.0
N309 N 0.85591 0.63727 0.82798 0.0
H310 H 0.87409 0.30701 0.10825 0.0
H311 H 0.82701 0.48373 0.98574 0.0
H312 H 0.94745 0.44202 0.0958 0.0
H313 H 0.78313 0.33406 0.98671 0.0
H314 H 0.84873 0.47841 0.03322 0.0
H315 H 0.81696 0.32781 0.07232 0.0
C316 C 0.87643 0.34222 0.09896 0.0
C317 C 0.91529 0.37296 0.10477 0.0
C318 C 0.83391 0.44684 0.02314 0.0
C319 C 0.85166 0.39615 0.06339 0.0
C320 C 0.82182 0.44965 -0.00408 0.0
C321 C 0.80444 0.40882 0.98196 0.0
C322 C 0.82901 0.4028 0.03661 0.0
C323 C 0.79729 0.36615 -0.00347 0.0
C324 C 0.84441 0.3537 0.07817 0.0
C325 C 0.91774 0.41757 0.09182 0.0
N326 N 0.81033 0.36401 0.02302 0.0
N327 N 0.88688 0.42751 0.07134 0.0
H328 H 0.53587 0.13243 0.49234 0.0
H329 H 0.75456 0.07898 0.39287 0.0
H330 H 0.67933 0.19019 0.50342 0.0
H331 H 0.60878 0.03164 0.37719 0.0
H332 H 0.72514 0.12888 0.43016 0.0
H333 H 0.55948 0.10268 0.44766 0.0
C334 C 0.57228 0.13903 0.48537 0.0
C335 C 0.60587 0.16326 0.50185 0.0
C336 C 0.6994 0.1082 0.41834 0.0
C337 C 0.63302 0.12945 0.45066 0.0
C338 C 0.71619 0.07976 0.39698 0.0
C339 C 0.68415 0.05054 0.38219 0.0
C340 C 0.6503 0.1069 0.4252 0.0
C341 C 0.63478 0.05339 0.38819 0.0
C342 C 0.58565 0.12224 0.45978 0.0
C343 C 0.65234 0.17127 0.49158 0.0
N344 N 0.61943 0.08039 0.40959 0.0
N345 N 0.66464 0.15401 0.46676 0.0
H346 H 0.32885 0.01268 0.74072 0.0
H347 H 0.37471 0.18795 0.61756 0.0
H348 H 0.2827 0.1616 0.73864 0.0
H349 H 0.44892 0.05359 0.63062 0.0
H350 H 0.31737 0.16699 0.6533 0.0
H351 H 0.35061 0.01729 0.69323 0.0
C352 C 0.32318 0.04644 0.73029 0.0
C353 C 0.30516 0.08731 0.74394 0.0
C354 C 0.34507 0.14126 0.64762 0.0
C355 C 0.32978 0.09252 0.6893 0.0
C356 C 0.37722 0.15283 0.62695 0.0
C357 C 0.41634 0.12233 0.62137 0.0
C358 C 0.35251 0.099 0.66255 0.0
C359 C 0.419 0.07784 0.63443 0.0
C360 C 0.33528 0.04885 0.70307 0.0
C361 C 0.29738 0.12953 0.72907 0.0
N362 N 0.38802 0.06784 0.65482 0.0
N363 N 0.31046 0.13129 0.70259 0.0
H364 H 0.48237 0.83997 -0.0085 0.0
H365 H 0.30809 0.88371 0.86677 0.0
H366 H 0.33461 0.79066 -0.01228 0.0
H367 H 0.42654 0.97596 0.88982 0.0
H368 H 0.33398 0.825 0.90078 0.0
H369 H 0.47676 0.86505 0.94462 0.0
C370 C 0.44877 0.83403 0.98079 0.0
C371 C 0.4083 0.81457 -0.00615 0.0
C372 C 0.35528 0.85726 0.89764 0.0
C373 C 0.40218 0.84274 0.94003 0.0
C374 C 0.3409 0.89036 0.87812 0.0
C375 C 0.36537 0.93437 0.87583 0.0
C376 C 0.39442 0.86859 0.91454 0.0
C377 C 0.40696 0.94222 0.89119 0.0
C378 C 0.44584 0.84806 0.95396 0.0
C379 C 0.36629 0.80655 0.97863 0.0
N380 N 0.41992 0.90983 0.91023 0.0
N381 N 0.36403 0.82144 0.95255 0.0
H382 H 0.60547 0.86425 0.10516 0.0
H383 H 0.62502 0.98158 0.25061 0.0
H384 H 0.49477 0.94995 0.14353 0.0
H385 H 0.72112 0.87273 0.21828 0.0
H386 H 0.59222 0.99338 0.2054 0.0
H387 H 0.66334 0.89339 0.1389 0.0
C388 C 0.59391 0.89095 0.11993 0.0
C389 C 0.54519 0.90373 0.12222 0.0
C390 C 0.62097 0.96741 0.20815 0.0
C391 C 0.61034 0.93599 0.161 0.0
C392 C 0.63945 0.96033 0.23401 0.0
C393 C 0.6748 0.92498 0.23839 0.0
C394 C 0.6377 0.93873 0.18658 0.0
C395 C 0.69296 0.89945 0.21597 0.0
C396 C 0.62677 0.90712 0.13938 0.0
C397 C 0.53195 0.93842 0.14162 0.0
N398 N 0.67365 0.90629 0.19108 0.0
N399 N 0.56411 0.95248 0.16075 0.0
H400 H 0.11404 0.03188 0.9268 0.0
H401 H 0.08302 0.26725 0.01585 0.0
H402 H 0.22983 0.13078 0.94633 0.0
H403 H 0.01747 0.13531 0.04399 0.0
H404 H 0.11867 0.22227 0.97836 0.0
H405 H 0.0637 0.07231 0.96124 0.0
C406 C 0.12914 0.06142 0.93854 0.0
C407 C 0.17618 0.07812 0.93355 0.0
C408 C 0.09577 0.20346 -0.00744 0.0
C409 C 0.1185 0.12507 0.97168 0.0
C410 C 0.07509 0.22908 0.01384 0.0
C411 C 0.04823 0.20479 0.03351 0.0
C412 C 0.0891 0.1534 -0.00927 0.0
C413 C 0.0386 0.15532 0.0295 0.0
C414 C 0.10032 0.08452 0.95793 0.0
C415 C 0.19384 0.11663 0.94931 0.0
N416 N 0.0597 0.13089 0.00866 0.0
N417 N 0.16473 0.13925 0.96732 0.0
H418 H 0.4384 0.78546 0.20943 0.0
H419 H 0.37245 0.55844 0.30028 0.0
H420 H 0.45199 0.63855 0.18038 0.0
H421 H 0.3164 0.70288 0.31047 0.0
H422 H 0.42298 0.58736 0.26279 0.0
H423 H 0.4187 0.7551 0.25413 0.0
C424 C 0.43814 0.74679 0.21259 0.0
C425 C 0.4454 0.71442 0.19104 0.0
C426 C 0.39986 0.61257 0.2735 0.0
C427 C 0.42222 0.67958 0.24192 0.0
C428 C 0.37101 0.59614 0.29468 0.0
C429 C 0.33952 0.62816 0.30789 0.0
C430 C 0.39768 0.6614 0.26616 0.0
C431 C 0.33927 0.67676 0.30028 0.0
C432 C 0.4268 0.7295 0.23807 0.0
C433 C 0.44579 0.66471 0.19639 0.0
N434 N 0.36782 0.69184 0.27989 0.0
N435 N 0.43318 0.64865 0.22128 0.0
H436 H 0.87334 0.93345 0.42492 0.0
H437 H 0.93482 0.7064 0.51683 0.0
H438 H 0.81246 0.79068 0.41602 0.0
H439 H 0.95392 0.85336 0.54481 0.0
H440 H 0.9139 0.7365 0.47224 0.0
H441 H 0.92327 0.90382 0.4625 0.0
C442 C 0.87067 0.89597 0.43083 0.0
C443 C 0.83808 0.86465 0.41789 0.0
C444 C 0.92344 0.76214 0.48803 0.0
C445 C 0.89556 0.83058 0.45978 0.0
C446 C 0.93551 0.745 0.51345 0.0
C447 C 0.94474 0.77752 0.5347 0.0
C448 C 0.9202 0.81209 0.48393 0.0
C449 C 0.94623 0.8271 0.52904 0.0
C450 C 0.89918 0.87914 0.45207 0.0
C451 C 0.83625 0.81631 0.42594 0.0
N452 N 0.93297 0.84307 0.50423 0.0
N453 N 0.86452 0.80082 0.44638 0.0
H454 H 0.51206 0.35784 0.68283 0.0
H455 H 0.74218 0.38713 0.77261 0.0
H456 H 0.60331 0.23802 0.70508 0.0
H457 H 0.61227 0.4578 0.80068 0.0
H458 H 0.69544 0.34704 0.73736 0.0
H459 H 0.5496 0.40654 0.71898 0.0
C460 C 0.5391 0.34142 0.69561 0.0
C461 C 0.55507 0.29393 0.69064 0.0
C462 C 0.67739 0.3718 0.7511 0.0
C463 C 0.59864 0.34969 0.73093 0.0
C464 C 0.70403 0.39509 0.77108 0.0
C465 C 0.68096 0.4252 0.79001 0.0
C466 C 0.62751 0.37917 0.74971 0.0
C467 C 0.63141 0.43447 0.78667 0.0
C468 C 0.56054 0.36931 0.71604 0.0
C469 C 0.59013 0.27451 0.70788 0.0
N470 N 0.60602 0.41111 0.76695 0.0
N471 N 0.61146 0.30282 0.72687 0.0
H472 H 0.13105 0.09898 0.08774 0.0
H473 H 0.32734 0.92257 0.15117 0.0
H474 H 0.22388 0.14065 0.15401 0.0
H475 H 0.25548 0.89356 0.07523 0.0
H476 H 0.28537 -0.00042 0.1544 0.0
H477 H 0.17357 0.02231 0.08406 0.0
C478 C 0.1607 0.09209 0.10146 0.0
C479 C 0.17379 0.12623 0.12136 0.0
C480 C 0.27863 0.97635 0.13708 0.0
C481 C 0.22239 0.03783 0.11738 0.0
C482 C 0.30231 0.93204 0.13526 0.0
C483 C 0.29513 0.90131 0.11279 0.0
C484 C 0.24713 0.99024 0.1164 0.0
C485 C 0.26213 0.91585 0.09293 0.0
C486 C 0.18493 0.04821 0.09932 0.0
C487 C 0.21273 0.11546 0.13836 0.0
N488 N 0.23947 0.95934 0.09518 0.0
N489 N 0.23541 0.07192 0.13615 0.0
H490 H 0.38563 0.717 0.43619 0.0
H491 H 0.53877 0.87217 0.33093 0.0
H492 H 0.32567 0.77531 0.36276 0.0
H493 H 0.60289 0.78453 0.39312 0.0
H494 H 0.45892 0.84681 0.34597 0.0
H495 H 0.46289 0.75423 0.42525 0.0
C496 C 0.3882 0.73861 0.4181 0.0
C497 C 0.34891 0.74245 0.40023 0.0
C498 C 0.49043 0.83312 0.35633 0.0
C499 C 0.43794 0.78456 0.3874 0.0
C500 C 0.53615 0.84745 0.34772 0.0
C501 C 0.57782 0.83028 0.36068 0.0
C502 C 0.48605 0.80169 0.37828 0.0
C503 C 0.57191 0.79839 0.38235 0.0
C504 C 0.43263 0.7594 0.41173 0.0
C505 C 0.35481 0.77105 0.37712 0.0
N506 N 0.52692 0.78525 0.39051 0.0
N507 N 0.39859 0.79052 0.37123 0.0
H508 H 0.62912 0.0546 0.65003 0.0
H509 H 0.86427 0.9071 0.60606 0.0
H510 H 0.73636 0.10697 0.5942 0.0
H511 H 0.75459 0.84701 0.65784 0.0
H512 H 0.81818 0.981 0.60297 0.0
H513 H 0.67523 0.98005 0.65489 0.0
C514 C 0.66255 0.05068 0.63891 0.0
C515 C 0.67881 0.08734 0.62161 0.0
C516 C 0.80397 0.95181 0.61502 0.0
C517 C 0.73163 0.00159 0.62706 0.0
C518 C 0.83035 0.90931 0.61686 0.0
C519 C 0.81347 0.87048 0.63237 0.0
C520 C 0.76005 0.95617 0.6288 0.0
C521 C 0.76902 0.87588 0.64564 0.0
C522 C 0.68873 0.00791 0.64167 0.0
C523 C 0.72234 0.07992 0.60777 0.0
N524 N 0.74385 0.91806 0.64361 0.0
N525 N 0.7471 0.03791 0.61076 0.0
H526 H 0.41586 0.14544 0.89894 0.0
H527 H 0.5865 0.357 0.84664 0.0
H528 H 0.38312 0.23457 0.8301 0.0
H529 H 0.62815 0.26105 0.91086 0.0
H530 H 0.51227 0.3119 0.84062 0.0
H531 H 0.49248 0.18757 0.90434 0.0
C532 C 0.42453 0.17411 0.885 0.0
C533 C 0.39266 0.18646 0.86397 0.0
C534 C 0.5375 0.3004 0.856 0.0
C535 C 0.48106 0.2347 0.8701 0.0
C536 C 0.58006 0.32621 0.85952 0.0
C537 C 0.6135 0.31311 0.87955 0.0
C538 C 0.52764 0.26105 0.8727 0.0
C539 C 0.6034 0.2724 0.89522 0.0
C540 C 0.46855 0.19797 0.88809 0.0
C541 C 0.40626 0.22385 0.84663 0.0
N542 N 0.56105 0.24799 0.89162 0.0
N543 N 0.44939 0.24657 0.85008 0.0
H544 H 0.75329 0.6043 0.65078 0.0
H545 H 0.72839 0.34972 0.57301 0.0
H546 H 0.83105 0.5681 0.57771 0.0
H547 H 0.62978 0.39864 0.63495 0.0
H548 H 0.77182 0.42685 0.57718 0.0
H549 H 0.71059 0.527 0.64716 0.0
C550 C 0.76098 0.58051 0.63383 0.0
C551 C 0.79589 0.5929 0.61458 0.0
C552 C 0.74071 0.42051 0.58989 0.0
C553 C 0.74796 0.50396 0.6106 0.0
C554 C 0.71624 0.37638 0.58764 0.0
C555 C 0.67524 0.3679 0.60346 0.0
C556 C 0.72426 0.45602 0.60827 0.0
C557 C 0.6609 0.40384 0.62207 0.0
C558 C 0.73684 0.53623 0.63185 0.0
C559 C 0.80455 0.56027 0.59312 0.0
N560 N 0.68527 0.44621 0.62392 0.0
N561 N 0.78106 0.5173 0.59183 0.0
H562 H 0.08676 0.14064 0.87859 0.0
H563 H 0.91558 0.35181 0.82625 0.0
H564 H 0.12754 0.23599 0.81395 0.0
H565 H 0.88329 0.26286 0.8952 0.0
H566 H 0.99207 0.30958 0.82073 0.0
H567 H 0.01254 0.18571 0.88469 0.0
C568 C 0.08012 0.17129 0.86563 0.0
C569 C 0.11328 0.18422 0.84545 0.0
C570 C 0.96827 0.29923 0.83703 0.0
C571 C 0.02746 0.23623 0.85239 0.0
C572 C 0.92431 0.32315 0.84019 0.0
C573 C 0.89262 0.31091 0.86129 0.0
C574 C 0.98089 0.26255 0.85503 0.0
C575 C 0.90629 0.2735 0.87862 0.0
C576 C 0.03757 0.19708 0.86919 0.0
C577 C 0.10297 0.22477 0.82969 0.0
N578 N 0.94937 0.25073 0.87511 0.0
N579 N 0.06064 0.24916 0.83333 0.0
H580 H 0.25149 0.65073 0.06803 0.0
H581 H 0.23779 0.38425 0.1306 0.0
H582 H 0.36281 0.58565 0.11681 0.0
H583 H 0.129 0.44123 0.0771 0.0
H584 H 0.28382 0.45873 0.12541 0.0
H585 H 0.20479 0.57538 0.07122 0.0
C586 C 0.26605 0.62085 0.07941 0.0
C587 C 0.31124 0.6247 0.09207 0.0
C588 C 0.24995 0.45489 0.11469 0.0
C589 C 0.25829 0.53861 0.09576 0.0
C590 C 0.22371 0.41221 0.11761 0.0
C591 C 0.17939 0.40629 0.10432 0.0
C592 C 0.23177 0.49222 0.09845 0.0
C593 C 0.16299 0.44405 0.08777 0.0
C594 C 0.23951 0.57782 0.08116 0.0
C595 C 0.32833 0.58463 0.10654 0.0
N596 N 0.18904 0.48543 0.08541 0.0
N597 N 0.30194 0.54355 0.10797 0.0
H598 H 0.82287 0.71684 0.36132 0.0
H599 H 0.10537 0.7125 0.3314 0.0
H600 H 0.88651 0.77895 0.28994 0.0
H601 H 0.03805 0.62317 0.39171 0.0
H602 H 0.02526 0.73778 0.31618 0.0
H603 H 0.90038 0.67965 0.37195 0.0
C604 C 0.85268 0.7217 0.34747 0.0
C605 C 0.84799 0.7516 0.3248 0.0
C606 C 0.02806 0.71253 0.33269 0.0
C607 C 0.93748 0.71012 0.33736 0.0
C608 C 0.07384 0.69843 0.34156 0.0
C609 C 0.07862 0.66578 0.36295 0.0
C610 C 0.98666 0.69427 0.34546 0.0
C611 C 0.03628 0.64843 0.37516 0.0
C612 C 0.89716 0.70076 0.35372 0.0
C613 C 0.88824 0.75652 0.30773 0.0
N614 N 0.99222 0.66303 0.36633 0.0
N615 N 0.93139 0.73676 0.3146 0.0
loop_
_geom_bond_atom_site_label_1
_geom_bond_atom_site_label_2
_geom_bond_distance
_geom_bond_site_symmetry_2
_ccdc_geom_bond_type
O0 Zn1 1.953 . S
O0 C16 1.225 . S
Zn1 O0 1.953 . S
Zn1 O2 1.949 . S
Zn1 O8 1.919 . S
Zn1 O13 1.924 . S
O2 Zn1 1.949 . S
O2 Zn3 1.923 . S
O2 Zn4 1.950 . S
O2 Zn5 1.945 . S
Zn3 O2 1.923 . S
Zn3 O6 1.933 . S
Zn3 O9 1.941 . S
Zn3 O10 1.956 1_455 S
Zn4 O2 1.950 . S
Zn4 O11 1.938 1_455 S
Zn4 O12 1.906 1_455 S
Zn4 O22 1.953 . S
Zn5 O2 1.945 . S
Zn5 O7 1.932 . S
Zn5 O14 1.977 . S
Zn5 O15 1.910 . S
O6 Zn3 1.933 . S
O6 C17 1.226 . S
O7 Zn5 1.932 . S
O7 C17 1.307 . S
O8 Zn1 1.919 . S
O8 C19 1.253 . S
O9 Zn3 1.941 . S
O9 C19 1.283 . S
O10 Zn3 1.956 1_655 S
O10 C18 1.309 . S
O11 Zn4 1.938 1_655 S
O11 C18 1.247 . S
O12 Zn4 1.906 1_655 S
O12 C20 1.304 . S
O13 Zn1 1.924 . S
O13 C21 1.311 . S
O14 Zn5 1.977 . S
O14 C20 1.272 1_455 S
O15 Zn5 1.910 . S
O15 C21 1.231 . S
C16 O0 1.225 . S
C16 O22 1.298 . S
C17 O6 1.226 . S
C17 O7 1.307 . S
C18 O10 1.309 . S
C18 O11 1.247 . S
C19 O8 1.253 . S
C19 O9 1.283 . S
C20 O12 1.304 . S
C20 O14 1.272 1_655 S
C21 O13 1.311 . S
C21 O15 1.231 . S
O22 Zn4 1.953 . S
O22 C16 1.298 . S
O23 Zn24 1.953 . S
O23 C39 1.225 . S
Zn24 O23 1.953 . S
Zn24 O25 1.949 . S
Zn24 O31 1.919 . S
Zn24 O36 1.924 . S
O25 Zn24 1.949 . S
O25 Zn26 1.923 . S
O25 Zn27 1.950 . S
O25 Zn28 1.945 . S
Zn26 O25 1.923 . S
Zn26 O29 1.933 . S
Zn26 O32 1.941 . S
Zn26 O33 1.965 . S
Zn27 O25 1.950 . S
Zn27 O34 1.938 . S
Zn27 O35 1.906 . S
Zn27 O45 1.953 . S
Zn28 O25 1.945 . S
Zn28 O30 1.932 . S
Zn28 O37 1.977 . S
Zn28 O38 1.910 . S
O29 Zn26 1.933 . S
O29 C40 1.226 . S
O30 Zn28 1.932 . S
O30 C40 1.307 . S
O31 Zn24 1.919 . S
O31 C42 1.253 . S
O32 Zn26 1.941 . S
O32 C42 1.283 . S
O33 Zn26 1.965 . S
O33 C41 1.303 . S
O34 Zn27 1.938 . S
O34 C41 1.247 . S
O35 Zn27 1.906 . S
O35 C43 1.304 . S
O36 Zn24 1.924 . S
O36 C44 1.311 . S
O37 Zn28 1.977 . S
O37 C43 1.272 . S
O38 Zn28 1.910 . S
O38 C44 1.231 . S
C39 O23 1.225 . S
C39 O45 1.298 . S
C40 O29 1.226 . S
C40 O30 1.307 . S
C41 O33 1.303 . S
C41 O34 1.247 . S
C42 O31 1.253 . S
C42 O32 1.283 . S
C43 O35 1.304 . S
C43 O37 1.272 . S
C44 O36 1.311 . S
C44 O38 1.231 . S
O45 Zn27 1.953 . S
O45 C39 1.298 . S
O46 Zn47 1.953 . S
O46 C62 1.225 . S
Zn47 O46 1.953 . S
Zn47 O48 1.949 . S
Zn47 O54 1.919 . S
Zn47 O59 1.924 . S
O48 Zn47 1.949 . S
O48 Zn49 1.923 . S
O48 Zn50 1.950 . S
O48 Zn51 1.945 . S
Zn49 O48 1.923 . S
Zn49 O52 1.933 . S
Zn49 O55 1.941 . S
Zn49 O56 1.964 . S
Zn50 O48 1.950 . S
Zn50 O57 1.938 1_655 S
Zn50 O58 1.906 1_655 S
Zn50 O68 1.953 . S
Zn51 O48 1.945 . S
Zn51 O53 1.932 . S
Zn51 O60 1.977 . S
Zn51 O61 1.910 . S
O52 Zn49 1.933 . S
O52 C63 1.226 . S
O53 Zn51 1.932 . S
O53 C63 1.307 . S
O54 Zn47 1.919 . S
O54 C65 1.253 . S
O55 Zn49 1.941 . S
O55 C65 1.283 . S
O56 Zn49 1.964 . S
O56 C64 1.304 1_655 S
O57 Zn50 1.938 1_455 S
O57 C64 1.247 . S
O58 Zn50 1.906 1_455 S
O58 C66 1.304 . S
O59 Zn47 1.924 . S
O59 C67 1.311 . S
O60 Zn51 1.977 . S
O60 C66 1.272 1_655 S
O61 Zn51 1.910 . S
O61 C67 1.231 . S
C62 O46 1.225 . S
C62 O68 1.298 . S
C63 O52 1.226 . S
C63 O53 1.307 . S
C64 O56 1.304 1_455 S
C64 O57 1.247 . S
C65 O54 1.253 . S
C65 O55 1.283 . S
C66 O58 1.304 . S
C66 O60 1.272 1_455 S
C67 O59 1.311 . S
C67 O61 1.231 . S
O68 Zn50 1.953 . S
O68 C62 1.298 . S
O69 Zn70 1.953 . S
O69 C85 1.225 . S
Zn70 O69 1.953 . S
Zn70 O71 1.949 . S
Zn70 O77 1.919 . S
Zn70 O82 1.924 . S
O71 Zn70 1.949 . S
O71 Zn72 1.923 . S
O71 Zn73 1.950 . S
O71 Zn74 1.945 . S
Zn72 O71 1.923 . S
Zn72 O75 1.933 . S
Zn72 O78 1.941 . S
Zn72 O79 1.965 . S
Zn73 O71 1.950 . S
Zn73 O80 1.938 . S
Zn73 O81 1.906 . S
Zn73 O91 1.953 . S
Zn74 O71 1.945 . S
Zn74 O76 1.932 . S
Zn74 O83 1.977 . S
Zn74 O84 1.910 . S
O75 Zn72 1.933 . S
O75 C86 1.226 . S
O76 Zn74 1.932 . S
O76 C86 1.307 . S
O77 Zn70 1.919 . S
O77 C88 1.253 . S
O78 Zn72 1.941 . S
O78 C88 1.283 . S
O79 Zn72 1.965 . S
O79 C87 1.303 . S
O80 Zn73 1.938 . S
O80 C87 1.247 . S
O81 Zn73 1.906 . S
O81 C89 1.304 . S
O82 Zn70 1.924 . S
O82 C90 1.311 . S
O83 Zn74 1.977 . S
O83 C89 1.272 . S
O84 Zn74 1.910 . S
O84 C90 1.231 . S
C85 O69 1.225 . S
C85 O91 1.298 . S
C86 O75 1.226 . S
C86 O76 1.307 . S
C87 O79 1.303 . S
C87 O80 1.247 . S
C88 O77 1.253 . S
C88 O78 1.283 . S
C89 O81 1.304 . S
C89 O83 1.272 . S
C90 O82 1.311 . S
C90 O84 1.231 . S
O91 Zn73 1.953 . S
O91 C85 1.298 . S
O92 Zn93 1.953 . S
O92 C108 1.225 . S
Zn93 O92 1.953 . S
Zn93 O94 1.949 . S
Zn93 O100 1.919 . S
Zn93 O105 1.924 . S
O94 Zn93 1.949 . S
O94 Zn95 1.923 . S
O94 Zn96 1.950 . S
O94 Zn97 1.945 . S
Zn95 O94 1.923 . S
Zn95 O98 1.933 . S
Zn95 O101 1.941 . S
Zn95 O102 1.965 . S
Zn96 O94 1.950 . S
Zn96 O103 1.938 . S
Zn96 O104 1.906 . S
Zn96 O114 1.953 . S
Zn97 O94 1.945 . S
Zn97 O99 1.932 . S
Zn97 O106 1.977 . S
Zn97 O107 1.910 . S
O98 Zn95 1.933 . S
O98 C109 1.226 . S
O99 Zn97 1.932 . S
O99 C109 1.307 . S
O100 Zn93 1.919 . S
O100 C111 1.253 . S
O101 Zn95 1.941 . S
O101 C111 1.283 . S
O102 Zn95 1.965 . S
O102 C110 1.303 . S
O103 Zn96 1.938 . S
O103 C110 1.247 . S
O104 Zn96 1.906 . S
O104 C112 1.304 . S
O105 Zn93 1.924 . S
O105 C113 1.311 . S
O106 Zn97 1.977 . S
O106 C112 1.272 . S
O107 Zn97 1.910 . S
O107 C113 1.231 . S
C108 O92 1.225 . S
C108 O114 1.298 . S
C109 O98 1.226 . S
C109 O99 1.307 . S
C110 O102 1.303 . S
C110 O103 1.247 . S
C111 O100 1.253 . S
C111 O101 1.283 . S
C112 O104 1.304 . S
C112 O106 1.272 . S
C113 O105 1.311 . S
C113 O107 1.231 . S
O114 Zn96 1.953 . S
O114 C108 1.298 . S
O115 Zn116 1.953 . S
O115 C131 1.225 . S
Zn116 O115 1.953 . S
Zn116 O117 1.949 . S
Zn116 O123 1.919 . S
Zn116 O128 1.924 . S
O117 Zn116 1.949 . S
O117 Zn118 1.923 . S
O117 Zn119 1.950 . S
O117 Zn120 1.945 . S
Zn118 O117 1.923 . S
Zn118 O121 1.933 . S
Zn118 O124 1.941 . S
Zn118 O125 1.954 1_545 S
Zn119 O117 1.950 . S
Zn119 O126 1.938 1_545 S
Zn119 O127 1.906 1_545 S
Zn119 O137 1.953 . S
Zn120 O117 1.945 . S
Zn120 O122 1.932 . S
Zn120 O129 1.977 . S
Zn120 O130 1.910 . S
O121 Zn118 1.933 . S
O121 C132 1.226 . S
O122 Zn120 1.932 . S
O122 C132 1.307 . S
O123 Zn116 1.919 . S
O123 C134 1.253 . S
O124 Zn118 1.941 . S
O124 C134 1.283 . S
O125 Zn118 1.954 1_565 S
O125 C133 1.310 . S
O126 Zn119 1.938 1_565 S
O126 C133 1.247 . S
O127 Zn119 1.906 1_565 S
O127 C135 1.304 . S
O128 Zn116 1.924 . S
O128 C136 1.311 . S
O129 Zn120 1.977 . S
O129 C135 1.272 1_545 S
O130 Zn120 1.910 . S
O130 C136 1.231 . S
C131 O115 1.225 . S
C131 O137 1.298 . S
C132 O121 1.226 . S
C132 O122 1.307 . S
C133 O125 1.310 . S
C133 O126 1.247 . S
C134 O123 1.253 . S
C134 O124 1.283 . S
C135 O127 1.304 . S
C135 O129 1.272 1_565 S
C136 O128 1.311 . S
C136 O130 1.231 . S
O137 Zn119 1.953 . S
O137 C131 1.298 . S
O138 Zn139 1.953 . S
O138 C154 1.225 . S
Zn139 O138 1.953 . S
Zn139 O140 1.949 . S
Zn139 O146 1.919 . S
Zn139 O151 1.924 . S
O140 Zn139 1.949 . S
O140 Zn141 1.923 . S
O140 Zn142 1.950 . S
O140 Zn143 1.945 . S
Zn141 O140 1.923 . S
Zn141 O144 1.933 . S
Zn141 O147 1.941 . S
Zn141 O148 1.965 . S
Zn142 O140 1.950 . S
Zn142 O149 1.938 . S
Zn142 O150 1.906 . S
Zn142 O160 1.953 . S
Zn143 O140 1.945 . S
Zn143 O145 1.932 . S
Zn143 O152 1.977 . S
Zn143 O153 1.910 . S
O144 Zn141 1.933 . S
O144 C155 1.226 . S
O145 Zn143 1.932 . S
O145 C155 1.307 . S
O146 Zn139 1.919 . S
O146 C157 1.253 . S
O147 Zn141 1.941 . S
O147 C157 1.283 . S
O148 Zn141 1.965 . S
O148 C156 1.303 . S
O149 Zn142 1.938 . S
O149 C156 1.247 . S
O150 Zn142 1.906 . S
O150 C158 1.304 . S
O151 Zn139 1.924 . S
O151 C159 1.311 . S
O152 Zn143 1.977 . S
O152 C158 1.272 . S
O153 Zn143 1.910 . S
O153 C159 1.231 . S
C154 O138 1.225 . S
C154 O160 1.298 . S
C155 O144 1.226 . S
C155 O145 1.307 . S
C156 O148 1.303 . S
C156 O149 1.247 . S
C157 O146 1.253 . S
C157 O147 1.283 . S
C158 O150 1.304 . S
C158 O152 1.272 . S
C159 O151 1.311 . S
C159 O153 1.231 . S
O160 Zn142 1.953 . S
O160 C154 1.298 . S
O161 Zn162 1.953 . S
O161 C177 1.225 . S
Zn162 O161 1.953 . S
Zn162 O163 1.949 . S
Zn162 O169 1.919 . S
Zn162 O174 1.924 . S
O163 Zn162 1.949 . S
O163 Zn164 1.923 . S
O163 Zn165 1.950 . S
O163 Zn166 1.945 . S
Zn164 O163 1.923 . S
Zn164 O167 1.933 . S
Zn164 O170 1.941 . S
Zn164 O171 1.965 1_565 S
Zn165 O163 1.950 . S
Zn165 O172 1.938 1_565 S
Zn165 O173 1.906 1_565 S
Zn165 O183 1.953 . S
Zn166 O163 1.945 . S
Zn166 O168 1.932 . S
Zn166 O175 1.977 . S
Zn166 O176 1.910 . S
O167 Zn164 1.933 . S
O167 C178 1.226 . S
O168 Zn166 1.932 . S
O168 C178 1.307 . S
O169 Zn162 1.919 . S
O169 C180 1.253 . S
O170 Zn164 1.941 . S
O170 C180 1.283 . S
O171 Zn164 1.965 1_545 S
O171 C179 1.303 . S
O172 Zn165 1.938 1_545 S
O172 C179 1.247 . S
O173 Zn165 1.906 1_545 S
O173 C181 1.304 . S
O174 Zn162 1.924 . S
O174 C182 1.311 . S
O175 Zn166 1.977 . S
O175 C181 1.272 1_565 S
O176 Zn166 1.910 . S
O176 C182 1.231 . S
C177 O161 1.225 . S
C177 O183 1.298 . S
C178 O167 1.226 . S
C178 O168 1.307 . S
C179 O171 1.303 . S
C179 O172 1.247 . S
C180 O169 1.253 . S
C180 O170 1.283 . S
C181 O173 1.304 . S
C181 O175 1.272 1_545 S
C182 O174 1.311 . S
C182 O176 1.231 . S
O183 Zn165 1.953 . S
O183 C177 1.298 . S
H184 C190 0.930 . S
H185 C194 0.930 . S
H186 C199 0.929 1_455 S
H187 C197 0.929 . S
H188 C192 0.929 . S
H189 C198 0.929 . S
C190 H184 0.930 . S
C190 C191 1.367 . S
C190 C198 1.378 . S
C191 C190 1.367 . S
C191 C199 1.433 . S
C192 H188 0.929 . S
C192 C194 1.378 . S
C192 C196 1.350 . S
C193 C196 1.463 . S
C193 C198 1.350 . S
C193 N201 1.427 . S
C194 H185 0.930 . S
C194 C192 1.378 . S
C194 C195 1.367 . S
C195 C194 1.367 . S
C195 C197 1.433 . S
C196 C192 1.350 . S
C196 C193 1.463 . S
C196 N200 1.427 . S
C197 H187 0.929 . S
C197 C195 1.433 . S
C197 N200 1.384 . S
C198 H189 0.929 . S
C198 C190 1.378 . S
C198 C193 1.350 . S
C199 H186 0.929 1_655 S
C199 C191 1.433 . S
C199 N201 1.384 . S
N200 C196 1.427 . S
N200 C197 1.384 . S
N201 C193 1.427 . S
N201 C199 1.384 . S
H202 C208 0.930 . S
H203 C212 0.930 . S
H204 C217 0.929 . S
H205 C215 0.929 . S
H206 C210 0.929 . S
H207 C216 0.929 . S
C208 H202 0.930 . S
C208 C209 1.367 . S
C208 C216 1.378 . S
C209 C208 1.367 . S
C209 C217 1.433 . S
C210 H206 0.929 . S
C210 C212 1.378 . S
C210 C214 1.350 . S
C211 C214 1.463 . S
C211 C216 1.350 . S
C211 N219 1.427 . S
C212 H203 0.930 . S
C212 C210 1.378 . S
C212 C213 1.367 . S
C213 C212 1.367 . S
C213 C215 1.433 . S
C214 C210 1.350 . S
C214 C211 1.463 . S
C214 N218 1.427 . S
C215 H205 0.929 . S
C215 C213 1.433 . S
C215 N218 1.384 . S
C216 H207 0.929 . S
C216 C208 1.378 . S
C216 C211 1.350 . S
C217 H204 0.929 . S
C217 C209 1.433 . S
C217 N219 1.384 . S
N218 C214 1.427 . S
N218 C215 1.384 . S
N219 C211 1.427 . S
N219 C217 1.384 . S
H220 C226 0.930 . S
H221 C230 0.930 . S
H222 C235 0.929 . S
H223 C233 0.929 1_545 S
H224 C228 0.929 . S
H225 C234 0.929 . S
C226 H220 0.930 . S
C226 C227 1.367 . S
C226 C234 1.378 . S
C227 C226 1.367 . S
C227 C235 1.433 . S
C228 H224 0.929 . S
C228 C230 1.378 . S
C228 C232 1.350 . S
C229 C232 1.463 . S
C229 C234 1.350 . S
C229 N237 1.427 . S
C230 H221 0.930 . S
C230 C228 1.378 . S
C230 C231 1.367 . S
C231 C230 1.367 . S
C231 C233 1.433 . S
C232 C228 1.350 . S
C232 C229 1.463 . S
C232 N236 1.427 . S
C233 H223 0.929 1_565 S
C233 C231 1.433 . S
C233 N236 1.384 . S
C234 H225 0.929 . S
C234 C226 1.378 . S
C234 C229 1.350 . S
C235 H222 0.929 . S
C235 C227 1.433 . S
C235 N237 1.384 . S
N236 C232 1.427 . S
N236 C233 1.384 . S
N237 C229 1.427 . S
N237 C235 1.384 . S
H238 C244 0.930 . S
H239 C248 0.930 . S
H240 C253 0.929 . S
H241 C251 0.929 . S
H242 C246 0.929 . S
H243 C252 0.929 . S
C244 H238 0.930 . S
C244 C245 1.367 . S
C244 C252 1.378 . S
C245 C244 1.367 . S
C245 C253 1.433 . S
C246 H242 0.929 . S
C246 C248 1.378 . S
C246 C250 1.350 . S
C247 C250 1.463 1_554 S
C247 C252 1.350 . S
C247 N255 1.427 . S
C248 H239 0.930 . S
C248 C246 1.378 . S
C248 C249 1.367 . S
C249 C248 1.367 . S
C249 C251 1.433 . S
C250 C246 1.350 . S
C250 C247 1.463 1_556 S
C250 N254 1.427 . S
C251 H241 0.929 . S
C251 C249 1.433 . S
C251 N254 1.384 . S
C252 H243 0.929 . S
C252 C244 1.378 . S
C252 C247 1.350 . S
C253 H240 0.929 . S
C253 C245 1.433 . S
C253 N255 1.384 . S
N254 C250 1.427 . S
N254 C251 1.384 . S
N255 C247 1.427 . S
N255 C253 1.384 . S
H256 C262 0.930 . S
H257 C266 0.930 . S
H258 C271 0.929 . S
H259 C269 0.929 . S
H260 C264 0.929 . S
H261 C270 0.929 . S
C262 H256 0.930 . S
C262 C263 1.367 . S
C262 C270 1.378 . S
C263 C262 1.367 . S
C263 C271 1.433 . S
C264 H260 0.929 . S
C264 C266 1.378 . S
C264 C268 1.350 . S
C265 C268 1.463 . S
C265 C270 1.350 . S
C265 N273 1.427 . S
C266 H257 0.930 . S
C266 C264 1.378 . S
C266 C267 1.367 . S
C267 C266 1.367 . S
C267 C269 1.433 . S
C268 C264 1.350 . S
C268 C265 1.463 . S
C268 N272 1.427 . S
C269 H259 0.929 . S
C269 C267 1.433 . S
C269 N272 1.384 . S
C270 H261 0.929 . S
C270 C262 1.378 . S
C270 C265 1.350 . S
C271 H258 0.929 . S
C271 C263 1.433 . S
C271 N273 1.384 . S
N272 C268 1.427 . S
N272 C269 1.384 . S
N273 C265 1.427 . S
N273 C271 1.384 . S
H274 C280 0.930 . S
H275 C284 0.930 . S
H276 C289 0.929 . S
H277 C287 0.929 . S
H278 C282 0.929 . S
H279 C288 0.929 . S
C280 H274 0.930 . S
C280 C281 1.367 . S
C280 C288 1.378 . S
C281 C280 1.367 . S
C281 C289 1.433 . S
C282 H278 0.929 . S
C282 C284 1.378 . S
C282 C286 1.350 . S
C283 C286 1.463 . S
C283 C288 1.350 . S
C283 N291 1.427 . S
C284 H275 0.930 . S
C284 C282 1.378 . S
C284 C285 1.367 . S
C285 C284 1.367 . S
C285 C287 1.433 . S
C286 C282 1.350 . S
C286 C283 1.463 . S
C286 N290 1.427 . S
C287 H277 0.929 . S
C287 C285 1.433 . S
C287 N290 1.384 . S
C288 H279 0.929 . S
C288 C280 1.378 . S
C288 C283 1.350 . S
C289 H276 0.929 . S
C289 C281 1.433 . S
C289 N291 1.384 . S
N290 C286 1.427 . S
N290 C287 1.384 . S
N291 C283 1.427 . S
N291 C289 1.384 . S
H292 C298 0.930 . S
H293 C302 0.930 . S
H294 C307 0.929 . S
H295 C305 0.929 . S
H296 C300 0.929 . S
H297 C306 0.929 . S
C298 H292 0.930 . S
C298 C299 1.367 . S
C298 C306 1.378 . S
C299 C298 1.367 . S
C299 C307 1.433 . S
C300 H296 0.929 . S
C300 C302 1.378 . S
C300 C304 1.350 . S
C301 C304 1.463 . S
C301 C306 1.350 . S
C301 N309 1.427 . S
C302 H293 0.930 . S
C302 C300 1.378 . S
C302 C303 1.367 . S
C303 C302 1.367 . S
C303 C305 1.433 . S
C304 C300 1.350 . S
C304 C301 1.463 . S
C304 N308 1.427 . S
C305 H295 0.929 . S
C305 C303 1.433 . S
C305 N308 1.384 . S
C306 H297 0.929 . S
C306 C298 1.378 . S
C306 C301 1.350 . S
C307 H294 0.929 . S
C307 C299 1.433 . S
C307 N309 1.384 . S
N308 C304 1.427 . S
N308 C305 1.384 . S
N309 C301 1.427 . S
N309 C307 1.384 . S
H310 C316 0.930 . S
H311 C320 0.930 . S
H312 C325 0.929 . S
H313 C323 0.929 . S
H314 C318 0.929 . S
H315 C324 0.929 . S
C316 H310 0.930 . S
C316 C317 1.367 . S
C316 C324 1.378 . S
C317 C316 1.367 . S
C317 C325 1.433 . S
C318 H314 0.929 . S
C318 C320 1.378 1_554 S
C318 C322 1.350 . S
C319 C322 1.463 . S
C319 C324 1.350 . S
C319 N327 1.427 . S
C320 H311 0.930 . S
C320 C318 1.378 1_556 S
C320 C321 1.367 . S
C321 C320 1.367 . S
C321 C323 1.433 . S
C322 C318 1.350 . S
C322 C319 1.463 . S
C322 N326 1.427 . S
C323 H313 0.929 . S
C323 C321 1.433 . S
C323 N326 1.384 1_556 S
C324 H315 0.929 . S
C324 C316 1.378 . S
C324 C319 1.350 . S
C325 H312 0.929 . S
C325 C317 1.433 . S
C325 N327 1.384 . S
N326 C322 1.427 . S
N326 C323 1.384 1_554 S
N327 C319 1.427 . S
N327 C325 1.384 . S
H328 C334 0.930 . S
H329 C338 0.930 . S
H330 C343 0.929 . S
H331 C341 0.929 1_565 S
H332 C336 0.929 . S
H333 C342 0.929 . S
C334 H328 0.930 . S
C334 C335 1.367 . S
C334 C342 1.378 . S
C335 C334 1.367 . S
C335 C343 1.433 . S
C336 H332 0.929 . S
C336 C338 1.378 . S
C336 C340 1.350 . S
C337 C340 1.463 . S
C337 C342 1.350 . S
C337 N345 1.427 . S
C338 H329 0.930 . S
C338 C336 1.378 . S
C338 C339 1.367 . S
C339 C338 1.367 . S
C339 C341 1.433 . S
C340 C336 1.350 . S
C340 C337 1.463 . S
C340 N344 1.427 . S
C341 H331 0.929 1_545 S
C341 C339 1.433 . S
C341 N344 1.384 . S
C342 H333 0.929 . S
C342 C334 1.378 . S
C342 C337 1.350 . S
C343 H330 0.929 . S
C343 C335 1.433 . S
C343 N345 1.384 . S
N344 C340 1.427 . S
N344 C341 1.384 . S
N345 C337 1.427 . S
N345 C343 1.384 . S
H346 C352 0.930 . S
H347 C356 0.930 . S
H348 C361 0.929 . S
H349 C359 0.929 . S
H350 C354 0.929 . S
H351 C360 0.929 . S
C352 H346 0.930 . S
C352 C353 1.367 . S
C352 C360 1.378 . S
C353 C352 1.367 . S
C353 C361 1.433 . S
C354 H350 0.929 . S
C354 C356 1.378 . S
C354 C358 1.350 . S
C355 C358 1.463 . S
C355 C360 1.350 . S
C355 N363 1.427 . S
C356 H347 0.930 . S
C356 C354 1.378 . S
C356 C357 1.367 . S
C357 C356 1.367 . S
C357 C359 1.433 . S
C358 C354 1.350 . S
C358 C355 1.463 . S
C358 N362 1.427 . S
C359 H349 0.929 . S
C359 C357 1.433 . S
C359 N362 1.384 . S
C360 H351 0.929 . S
C360 C352 1.378 . S
C360 C355 1.350 . S
C361 H348 0.929 . S
C361 C353 1.433 . S
C361 N363 1.384 . S
N362 C358 1.427 . S
N362 C359 1.384 . S
N363 C355 1.427 . S
N363 C361 1.384 . S
H364 C370 0.930 . S
H365 C374 0.930 . S
H366 C379 0.929 . S
H367 C377 0.913 1_545 S
H368 C372 0.929 . S
H369 C378 0.929 . S
C370 H364 0.930 . S
C370 C371 1.367 . S
C370 C378 1.378 1_554 S
C371 C370 1.367 . S
C371 C379 1.433 . S
C372 H368 0.929 . S
C372 C374 1.378 . S
C372 C376 1.350 . S
C373 C376 1.463 . S
C373 C378 1.350 . S
C373 N381 1.427 . S
C374 H365 0.930 . S
C374 C372 1.378 . S
C374 C375 1.367 . S
C375 C374 1.367 . S
C375 C377 1.433 . S
C376 C372 1.350 . S
C376 C373 1.463 . S
C376 N380 1.427 . S
C377 H367 0.913 1_565 S
C377 C375 1.433 . S
C377 N380 1.384 . S
C378 H369 0.929 . S
C378 C370 1.378 1_556 S
C378 C373 1.350 . S
C379 H366 0.929 . S
C379 C371 1.433 . S
C379 N381 1.384 1_554 S
N380 C376 1.427 . S
N380 C377 1.384 . S
N381 C373 1.427 . S
N381 C379 1.384 1_556 S
H382 C388 0.930 . S
H383 C392 0.930 . S
H384 C397 0.929 . S
H385 C395 0.929 . S
H386 C390 0.929 . S
H387 C396 0.929 . S
C388 H382 0.930 . S
C388 C389 1.367 . S
C388 C396 1.378 . S
C389 C388 1.367 . S
C389 C397 1.433 . S
C390 H386 0.929 . S
C390 C392 1.378 . S
C390 C394 1.350 . S
C391 C394 1.463 . S
C391 C396 1.350 . S
C391 N399 1.427 . S
C392 H383 0.930 . S
C392 C390 1.378 . S
C392 C393 1.367 . S
C393 C392 1.367 . S
C393 C395 1.433 . S
C394 C390 1.350 . S
C394 C391 1.463 . S
C394 N398 1.427 . S
C395 H385 0.929 . S
C395 C393 1.433 . S
C395 N398 1.384 . S
C396 H387 0.929 . S
C396 C388 1.378 . S
C396 C391 1.350 . S
C397 H384 0.929 . S
C397 C389 1.433 . S
C397 N399 1.384 . S
N398 C394 1.427 . S
N398 C395 1.384 . S
N399 C391 1.427 . S
N399 C397 1.384 . S
H400 C406 0.930 . S
H401 C410 0.930 . S
H402 C415 0.929 . S
H403 C413 0.929 . S
H404 C408 0.943 . S
H405 C414 0.933 . S
C406 H400 0.930 . S
C406 C407 1.367 . S
C406 C414 1.378 . S
C407 C406 1.367 . S
C407 C415 1.433 . S
C408 H404 0.943 . S
C408 C410 1.378 . S
C408 C412 1.350 . S
C409 C412 1.463 1_556 S
C409 C414 1.350 . S
C409 N417 1.427 . S
C410 H401 0.930 . S
C410 C408 1.378 . S
C410 C411 1.367 . S
C411 C410 1.367 . S
C411 C413 1.433 . S
C412 C408 1.350 . S
C412 C409 1.463 1_554 S
C412 N416 1.427 . S
C413 H403 0.929 . S
C413 C411 1.433 . S
C413 N416 1.384 . S
C414 H405 0.933 . S
C414 C406 1.378 . S
C414 C409 1.350 . S
C415 H402 0.929 . S
C415 C407 1.433 . S
C415 N417 1.384 . S
N416 C412 1.427 . S
N416 C413 1.384 . S
N417 C409 1.427 . S
N417 C415 1.384 . S
H418 C424 0.930 . S
H419 C428 0.930 . S
H420 C433 0.929 . S
H421 C431 0.929 . S
H422 C426 0.929 . S
H423 C432 0.929 . S
C424 H418 0.930 . S
C424 C425 1.367 . S
C424 C432 1.378 . S
C425 C424 1.367 . S
C425 C433 1.433 . S
C426 H422 0.929 . S
C426 C428 1.378 . S
C426 C430 1.350 . S
C427 C430 1.463 . S
C427 C432 1.350 . S
C427 N435 1.427 . S
C428 H419 0.930 . S
C428 C426 1.378 . S
C428 C429 1.367 . S
C429 C428 1.367 . S
C429 C431 1.433 . S
C430 C426 1.350 . S
C430 C427 1.463 . S
C430 N434 1.427 . S
C431 H421 0.929 . S
C431 C429 1.433 . S
C431 N434 1.384 . S
C432 H423 0.929 . S
C432 C424 1.378 . S
C432 C427 1.350 . S
C433 H420 0.929 . S
C433 C425 1.433 . S
C433 N435 1.384 . S
N434 C430 1.427 . S
N434 C431 1.384 . S
N435 C427 1.427 . S
N435 C433 1.384 . S
H436 C442 0.930 . S
H437 C446 0.930 . S
H438 C451 0.929 . S
H439 C449 0.929 . S
H440 C444 0.929 . S
H441 C450 0.929 . S
C442 H436 0.930 . S
C442 C443 1.367 . S
C442 C450 1.378 . S
C443 C442 1.367 . S
C443 C451 1.433 . S
C444 H440 0.929 . S
C444 C446 1.378 . S
C444 C448 1.350 . S
C445 C448 1.463 . S
C445 C450 1.350 . S
C445 N453 1.427 . S
C446 H437 0.930 . S
C446 C444 1.378 . S
C446 C447 1.367 . S
C447 C446 1.367 . S
C447 C449 1.433 . S
C448 C444 1.350 . S
C448 C445 1.463 . S
C448 N452 1.427 . S
C449 H439 0.929 . S
C449 C447 1.433 . S
C449 N452 1.384 . S
C450 H441 0.929 . S
C450 C442 1.378 . S
C450 C445 1.350 . S
C451 H438 0.929 . S
C451 C443 1.433 . S
C451 N453 1.384 . S
N452 C448 1.427 . S
N452 C449 1.384 . S
N453 C445 1.427 . S
N453 C451 1.384 . S
H454 C460 0.930 . S
H455 C464 0.930 . S
H456 C469 0.929 . S
H457 C467 0.929 . S
H458 C462 0.929 . S
H459 C468 0.929 . S
C460 H454 0.930 . S
C460 C461 1.367 . S
C460 C468 1.378 . S
C461 C460 1.367 . S
C461 C469 1.433 . S
C462 H458 0.929 . S
C462 C464 1.378 . S
C462 C466 1.350 . S
C463 C466 1.463 . S
C463 C468 1.350 . S
C463 N471 1.427 . S
C464 H455 0.930 . S
C464 C462 1.378 . S
C464 C465 1.367 . S
C465 C464 1.367 . S
C465 C467 1.433 . S
C466 C462 1.350 . S
C466 C463 1.463 . S
C466 N470 1.427 . S
C467 H457 0.929 . S
C467 C465 1.433 . S
C467 N470 1.384 . S
C468 H459 0.929 . S
C468 C460 1.378 . S
C468 C463 1.350 . S
C469 H456 0.929 . S
C469 C461 1.433 . S
C469 N471 1.384 . S
N470 C466 1.427 . S
N470 C467 1.384 . S
N471 C463 1.427 . S
N471 C469 1.384 . S
H472 C478 0.930 . S
H473 C482 0.930 . S
H474 C487 0.929 . S
H475 C485 0.929 . S
H476 C480 0.929 . S
H477 C486 0.929 . S
C478 H472 0.930 . S
C478 C479 1.367 . S
C478 C486 1.378 . S
C479 C478 1.367 . S
C479 C487 1.433 . S
C480 H476 0.929 . S
C480 C482 1.378 . S
C480 C484 1.350 . S
C481 C484 1.463 1_545 S
C481 C486 1.350 . S
C481 N489 1.427 . S
C482 H473 0.930 . S
C482 C480 1.378 . S
C482 C483 1.367 . S
C483 C482 1.367 . S
C483 C485 1.433 . S
C484 C480 1.350 . S
C484 C481 1.463 1_565 S
C484 N488 1.427 . S
C485 H475 0.929 . S
C485 C483 1.433 . S
C485 N488 1.384 . S
C486 H477 0.929 . S
C486 C478 1.378 . S
C486 C481 1.350 . S
C487 H474 0.929 . S
C487 C479 1.433 . S
C487 N489 1.384 . S
N488 C484 1.427 . S
N488 C485 1.384 . S
N489 C481 1.427 . S
N489 C487 1.384 . S
H490 C496 0.930 . S
H491 C500 0.930 . S
H492 C505 0.929 . S
H493 C503 0.929 . S
H494 C498 0.929 . S
H495 C504 0.929 . S
C496 H490 0.930 . S
C496 C497 1.367 . S
C496 C504 1.378 . S
C497 C496 1.367 . S
C497 C505 1.433 . S
C498 H494 0.929 . S
C498 C500 1.378 . S
C498 C502 1.350 . S
C499 C502 1.463 . S
C499 C504 1.350 . S
C499 N507 1.427 . S
C500 H491 0.930 . S
C500 C498 1.378 . S
C500 C501 1.367 . S
C501 C500 1.367 . S
C501 C503 1.433 . S
C502 C498 1.350 . S
C502 C499 1.463 . S
C502 N506 1.427 . S
C503 H493 0.929 . S
C503 C501 1.433 . S
C503 N506 1.384 . S
C504 H495 0.929 . S
C504 C496 1.378 . S
C504 C499 1.350 . S
C505 H492 0.929 . S
C505 C497 1.433 . S
C505 N507 1.384 . S
N506 C502 1.427 . S
N506 C503 1.384 . S
N507 C499 1.427 . S
N507 C505 1.384 . S
H508 C514 0.930 . S
H509 C518 0.930 . S
H510 C523 0.929 . S
H511 C521 0.929 . S
H512 C516 0.929 . S
H513 C522 0.929 . S
C514 H508 0.930 . S
C514 C515 1.367 . S
C514 C522 1.378 . S
C515 C514 1.367 . S
C515 C523 1.433 . S
C516 H512 0.929 . S
C516 C518 1.378 . S
C516 C520 1.350 . S
C517 C520 1.463 1_545 S
C517 C522 1.350 . S
C517 N525 1.427 . S
C518 H509 0.930 . S
C518 C516 1.378 . S
C518 C519 1.367 . S
C519 C518 1.367 . S
C519 C521 1.433 . S
C520 C516 1.350 . S
C520 C517 1.463 1_565 S
C520 N524 1.427 . S
C521 H511 0.929 . S
C521 C519 1.433 . S
C521 N524 1.384 . S
C522 H513 0.929 . S
C522 C514 1.378 . S
C522 C517 1.350 . S
C523 H510 0.929 . S
C523 C515 1.433 . S
C523 N525 1.384 . S
N524 C520 1.427 . S
N524 C521 1.384 . S
N525 C517 1.427 . S
N525 C523 1.384 . S
H526 C532 0.930 . S
H527 C536 0.930 . S
H528 C541 0.929 . S
H529 C539 0.929 . S
H530 C534 0.929 . S
H531 C540 0.929 . S
C532 H526 0.930 . S
C532 C533 1.367 . S
C532 C540 1.378 . S
C533 C532 1.367 . S
C533 C541 1.433 . S
C534 H530 0.929 . S
C534 C536 1.378 . S
C534 C538 1.350 . S
C535 C538 1.463 . S
C535 C540 1.350 . S
C535 N543 1.427 . S
C536 H527 0.930 . S
C536 C534 1.378 . S
C536 C537 1.367 . S
C537 C536 1.367 . S
C537 C539 1.433 . S
C538 C534 1.350 . S
C538 C535 1.463 . S
C538 N542 1.427 . S
C539 H529 0.929 . S
C539 C537 1.433 . S
C539 N542 1.384 . S
C540 H531 0.929 . S
C540 C532 1.378 . S
C540 C535 1.350 . S
C541 H528 0.929 . S
C541 C533 1.433 . S
C541 N543 1.384 . S
N542 C538 1.427 . S
N542 C539 1.384 . S
N543 C535 1.427 . S
N543 C541 1.384 . S
H544 C550 0.930 . S
H545 C554 0.930 . S
H546 C559 0.929 . S
H547 C557 0.929 . S
H548 C552 0.929 . S
H549 C558 0.929 . S
C550 H544 0.930 . S
C550 C551 1.367 . S
C550 C558 1.378 . S
C551 C550 1.367 . S
C551 C559 1.433 . S
C552 H548 0.929 . S
C552 C554 1.378 . S
C552 C556 1.350 . S
C553 C556 1.463 . S
C553 C558 1.350 . S
C553 N561 1.427 . S
C554 H545 0.930 . S
C554 C552 1.378 . S
C554 C555 1.367 . S
C555 C554 1.367 . S
C555 C557 1.433 . S
C556 C552 1.350 . S
C556 C553 1.463 . S
C556 N560 1.427 . S
C557 H547 0.929 . S
C557 C555 1.433 . S
C557 N560 1.384 . S
C558 H549 0.929 . S
C558 C550 1.378 . S
C558 C553 1.350 . S
C559 H546 0.929 . S
C559 C551 1.433 . S
C559 N561 1.384 . S
N560 C556 1.427 . S
N560 C557 1.384 . S
N561 C553 1.427 . S
N561 C559 1.384 . S
H562 C568 0.930 . S
H563 C572 0.930 . S
H564 C577 0.929 . S
H565 C575 0.929 . S
H566 C570 0.929 . S
H567 C576 0.929 . S
C568 H562 0.930 . S
C568 C569 1.367 . S
C568 C576 1.378 . S
C569 C568 1.367 . S
C569 C577 1.433 . S
C570 H566 0.929 . S
C570 C572 1.378 . S
C570 C574 1.350 . S
C571 C574 1.463 1_455 S
C571 C576 1.350 . S
C571 N579 1.427 . S
C572 H563 0.930 . S
C572 C570 1.378 . S
C572 C573 1.367 . S
C573 C572 1.367 . S
C573 C575 1.433 . S
C574 C570 1.350 . S
C574 C571 1.463 1_655 S
C574 N578 1.427 . S
C575 H565 0.929 . S
C575 C573 1.433 . S
C575 N578 1.384 . S
C576 H567 0.929 . S
C576 C568 1.378 . S
C576 C571 1.350 . S
C577 H564 0.929 . S
C577 C569 1.433 . S
C577 N579 1.384 . S
N578 C574 1.427 . S
N578 C575 1.384 . S
N579 C571 1.427 . S
N579 C577 1.384 . S
H580 C586 0.930 . S
H581 C590 0.930 . S
H582 C595 0.929 . S
H583 C593 0.929 . S
H584 C588 0.929 . S
H585 C594 0.929 . S
C586 H580 0.930 . S
C586 C587 1.367 . S
C586 C594 1.378 . S
C587 C586 1.367 . S
C587 C595 1.433 . S
C588 H584 0.929 . S
C588 C590 1.378 . S
C588 C592 1.350 . S
C589 C592 1.463 . S
C589 C594 1.350 . S
C589 N597 1.427 . S
C590 H581 0.930 . S
C590 C588 1.378 . S
C590 C591 1.367 . S
C591 C590 1.367 . S
C591 C593 1.433 . S
C592 C588 1.350 . S
C592 C589 1.463 . S
C592 N596 1.427 . S
C593 H583 0.929 . S
C593 C591 1.433 . S
C593 N596 1.384 . S
C594 H585 0.929 . S
C594 C586 1.378 . S
C594 C589 1.350 . S
C595 H582 0.929 . S
C595 C587 1.433 . S
C595 N597 1.384 . S
N596 C592 1.427 . S
N596 C593 1.384 . S
N597 C589 1.427 . S
N597 C595 1.384 . S
H598 C604 0.930 . S
H599 C608 0.930 . S
H600 C613 0.929 . S
H601 C611 0.929 . S
H602 C606 0.929 . S
H603 C612 0.929 . S
C604 H598 0.930 . S
C604 C605 1.367 . S
C604 C612 1.378 . S
C605 C604 1.367 . S
C605 C613 1.433 . S
C606 H602 0.929 . S
C606 C608 1.378 . S
C606 C610 1.350 . S
C607 C610 1.463 1_655 S
C607 C612 1.350 . S
C607 N615 1.427 . S
C608 H599 0.930 . S
C608 C606 1.378 . S
C608 C609 1.367 . S
C609 C608 1.367 . S
C609 C611 1.433 . S
C610 C606 1.350 . S
C610 C607 1.463 1_455 S
C610 N614 1.427 . S
C611 H601 0.929 . S
C611 C609 1.433 . S
C611 N614 1.384 . S
C612 H603 0.929 . S
C612 C604 1.378 . S
C612 C607 1.350 . S
C613 H600 0.929 . S
C613 C605 1.433 . S
C613 N615 1.384 . S
N614 C610 1.427 . S
N614 C611 1.384 . S
N615 C607 1.427 . S
N615 C613 1.384 . S
C191 C18 1.184 . S
C195 C181 1.165 . S
C209 C43 1.161 . S
C213 C110 1.183 . S
C227 C64 1.210 . S
C231 C133 1.205 . S
C245 C156 1.204 . S
C249 C87 1.209 . S
C263 C16 1.281 . S
C267 C41 1.306 . S
C281 C66 1.223 . S
C285 C40 1.236 . S
C299 C89 1.268 . S
C303 C62 1.255 . S
C317 C20 1.260 . S
C321 C85 1.261 . S
C335 C108 1.281 . S
C339 C179 1.306 . S
C353 C131 1.261 . S
C357 C112 1.259 . S
C371 C154 1.264 . S
C375 C135 1.272 . S
C389 C158 1.222 . S
C393 C178 1.236 . S
C407 C132 0.883 . S
C411 C17 0.873 . S
C425 C155 0.912 . S
C429 C39 0.915 . S
C443 C177 0.913 . S
C447 C63 0.915 . S
C461 C109 0.881 . S
C465 C86 0.868 . S
C479 C19 1.884 . S
C483 C159 1.902 . S
C497 C44 1.881 . S
C501 C180 1.852 . S
C515 C113 1.838 . S
C519 C65 1.819 . S
C533 C136 1.877 . S
C537 C88 1.858 . S
C551 C67 1.906 . S
C555 C111 1.887 . S
C569 C134 1.860 . S
C573 C90 1.877 . S
C587 C157 1.821 . S
C591 C21 1.842 . S
C605 C182 1.880 . S
C609 C42 1.851 . S
