# Generated by pormake.
# Topology mon, (4)-cn, num edge types: 1
# Building blocks:
#     Node 0, Type 0, BuildingBlock: QUQFOY_clean_sbu_3, # of connection points: 4
#     Node 1, Type 0, BuildingBlock: QUQFOY_clean_sbu_3, # of connection points: 4
#     Node 2, Type 0, BuildingBlock: QUQFOY_clean_sbu_3, # of connection points: 4
#     Node 3, Type 0, BuildingBlock: QUQFOY_clean_sbu_3, # of connection points: 4
#     Node 4, Type 0, BuildingBlock: QUQFOY_clean_sbu_3, # of connection points: 4
#     Node 5, Type 0, BuildingBlock: QUQFOY_clean_sbu_3, # of connection points: 4
#     Node 6, Type 0, BuildingBlock: QUQFOY_clean_sbu_3, # of connection points: 4
#     Node 7, Type 0, BuildingBlock: QUQFOY_clean_sbu_3, # of connection points: 4
#     Node 8, Type 0, BuildingBlock: QUQFOY_clean_sbu_3, # of connection points: 4
#     Node 9, Type 0, BuildingBlock: QUQFOY_clean_sbu_3, # of connection points: 4
#     Node 10, Type 0, BuildingBlock: QUQFOY_clean_sbu_3, # of connection points: 4
#     Node 11, Type 0, BuildingBlock: QUQFOY_clean_sbu_3, # of connection points: 4
#     Node 12, Type 0, BuildingBlock: QUQFOY_clean_sbu_3, # of connection points: 4
#     Node 13, Type 0, BuildingBlock: QUQFOY_clean_sbu_3, # of connection points: 4
#     Node 14, Type 0, BuildingBlock: QUQFOY_clean_sbu_3, # of connection points: 4
#     Node 15, Type 0, BuildingBlock: QUQFOY_clean_sbu_3, # of connection points: 4
#     Edge 16, Type (0, 0), BuildingBlock: XIVTED_clean_linker_0, # of connection points: 2
#     Edge 17, Type (0, 0), BuildingBlock: XIVTED_clean_linker_0, # of connection points: 2
#     Edge 18, Type (0, 0), BuildingBlock: XIVTED_clean_linker_0, # of connection points: 2
#     Edge 19, Type (0, 0), BuildingBlock: XIVTED_clean_linker_0, # of connection points: 2
#     Edge 20, Type (0, 0), BuildingBlock: XIVTED_clean_linker_0, # of connection points: 2
#     Edge 21, Type (0, 0), BuildingBlock: XIVTED_clean_linker_0, # of connection points: 2
#     Edge 22, Type (0, 0), BuildingBlock: XIVTED_clean_linker_0, # of connection points: 2
#     Edge 23, Type (0, 0), BuildingBlock: XIVTED_clean_linker_0, # of connection points: 2
#     Edge 24, Type (0, 0), BuildingBlock: XIVTED_clean_linker_0, # of connection points: 2
#     Edge 25, Type (0, 0), BuildingBlock: XIVTED_clean_linker_0, # of connection points: 2
#     Edge 26, Type (0, 0), BuildingBlock: XIVTED_clean_linker_0, # of connection points: 2
#     Edge 27, Type (0, 0), BuildingBlock: XIVTED_clean_linker_0, # of connection points: 2
#     Edge 28, Type (0, 0), BuildingBlock: XIVTED_clean_linker_0, # of connection points: 2
#     Edge 29, Type (0, 0), BuildingBlock: XIVTED_clean_linker_0, # of connection points: 2
#     Edge 30, Type (0, 0), BuildingBlock: XIVTED_clean_linker_0, # of connection points: 2
#     Edge 31, Type (0, 0), BuildingBlock: XIVTED_clean_linker_0, # of connection points: 2
#     Edge 32, Type (0, 0), BuildingBlock: XIVTED_clean_linker_0, # of connection points: 2
#     Edge 33, Type (0, 0), BuildingBlock: XIVTED_clean_linker_0, # of connection points: 2
#     Edge 34, Type (0, 0), BuildingBlock: XIVTED_clean_linker_0, # of connection points: 2
#     Edge 35, Type (0, 0), BuildingBlock: XIVTED_clean_linker_0, # of connection points: 2
#     Edge 36, Type (0, 0), BuildingBlock: XIVTED_clean_linker_0, # of connection points: 2
#     Edge 37, Type (0, 0), BuildingBlock: XIVTED_clean_linker_0, # of connection points: 2
#     Edge 38, Type (0, 0), BuildingBlock: XIVTED_clean_linker_0, # of connection points: 2
#     Edge 39, Type (0, 0), BuildingBlock: XIVTED_clean_linker_0, # of connection points: 2
#     Edge 40, Type (0, 0), BuildingBlock: XIVTED_clean_linker_0, # of connection points: 2
#     Edge 41, Type (0, 0), BuildingBlock: XIVTED_clean_linker_0, # of connection points: 2
#     Edge 42, Type (0, 0), BuildingBlock: XIVTED_clean_linker_0, # of connection points: 2
#     Edge 43, Type (0, 0), BuildingBlock: XIVTED_clean_linker_0, # of connection points: 2
#     Edge 44, Type (0, 0), BuildingBlock: XIVTED_clean_linker_0, # of connection points: 2
#     Edge 45, Type (0, 0), BuildingBlock: XIVTED_clean_linker_0, # of connection points: 2
#     Edge 46, Type (0, 0), BuildingBlock: XIVTED_clean_linker_0, # of connection points: 2
#     Edge 47, Type (0, 0), BuildingBlock: XIVTED_clean_linker_0, # of connection points: 2
# Relax obj value: 0.180
# Max RMSD: 0.173
# Mean RMSD: 0.173
data_MOF--net-mon--node1-QUQFOY_clean_sbu_3--edge1-XIVTED_clean_linker_0
_symmetry_space_group_name_H-M    P1
_symmetry_Int_Tables_number       1
_symmetry_cell_setting            triclinic
loop_
_symmetry_equiv_pos_as_xyz
'x, y, z'
_cell_length_a     34.856051
_cell_length_b     34.846419
_cell_length_c     86.479183
_cell_angle_alpha  90.03381
_cell_angle_beta   90.011649
_cell_angle_gamma 89.931281
loop_
_atom_site_label
_atom_site_type_symbol
_atom_site_fract_x
_atom_site_fract_y
_atom_site_fract_z
_atom_type_partial_charge
C0 C 0.11104 0.96536 0.57393 0.0
O1 O 0.10478 0.93845 0.56433 0.0
Cd2 Cd 0.04833 0.9295 0.54925 0.0
O3 O 0.08664 -0.00773 0.57593 0.0
Cd4 Cd 0.02394 0.01382 0.56506 0.0
C5 C 0.98191 0.93322 0.57906 0.0
O6 O 0.03757 -0.00822 0.53984 0.0
O7 O 0.97886 0.00892 0.54259 0.0
O8 O 0.04798 0.07916 0.56504 0.0
C9 C 0.00474 -0.00474 0.53387 0.0
O10 O -0.00205 0.91452 0.56814 0.0
C11 C 0.01931 0.09346 0.57205 0.0
O12 O 0.98847 0.96883 0.58112 0.0
O13 O -0.00727 0.07049 0.57596 0.0
C14 C 0.22169 0.83408 0.83957 0.0
O15 O 0.23788 0.83412 0.82642 0.0
Cd16 Cd 0.23794 0.78026 0.80965 0.0
O17 O 0.2016 0.80556 0.84398 0.0
Cd18 Cd 0.17589 0.74396 0.83391 0.0
C19 C 0.26585 0.70934 0.83561 0.0
O20 O 0.1717 0.76494 0.80786 0.0
O21 O 0.16642 0.70394 0.81029 0.0
O22 O 0.11606 0.76593 0.84458 0.0
C23 C 0.16666 0.73285 0.8014 0.0
O24 O 0.27385 0.73104 0.82419 0.0
C25 C 0.10739 0.73464 0.8512 0.0
O26 O 0.23255 0.70925 0.84164 0.0
O27 O 0.13089 0.70694 0.84978 0.0
C28 C 0.40991 0.00864 0.07924 0.0
O29 O 0.41416 0.0336 0.06868 0.0
Cd30 Cd 0.47129 0.04362 0.05442 0.0
O31 O 0.43642 0.9845 0.08235 0.0
Cd32 Cd 0.50031 0.96254 0.07269 0.0
C33 C 0.53669 0.04761 0.08497 0.0
O34 O 0.48435 0.9798 0.04732 0.0
O35 O 0.54228 0.95945 0.04901 0.0
O36 O 0.47199 0.90026 0.07682 0.0
C37 C 0.51587 0.97347 0.04065 0.0
O38 O 0.51727 0.06394 0.07433 0.0
C39 C 0.50148 0.88518 0.08293 0.0
O40 O 0.53543 0.0114 0.08697 0.0
O41 O 0.53101 0.9063 0.08433 0.0
C42 C 0.21948 0.16534 0.33689 0.0
O43 O 0.1972 0.17017 0.32545 0.0
Cd44 Cd 0.19255 0.22997 0.31281 0.0
O45 O 0.24221 0.19191 0.34122 0.0
Cd46 Cd 0.26386 0.25633 0.33234 0.0
C47 C 0.17927 0.29062 0.34407 0.0
O48 O 0.258 0.2402 0.30567 0.0
O49 O 0.26557 0.30076 0.30978 0.0
O50 O 0.32515 0.2283 0.33852 0.0
C51 C 0.26442 0.27318 0.30022 0.0
O52 O 0.16504 0.27283 0.33255 0.0
C53 C 0.34033 0.25883 0.34361 0.0
O54 O 0.21503 0.28933 0.34686 0.0
O55 O 0.3195 0.28877 0.34381 0.0
C56 C 0.09177 0.98144 0.39984 0.0
O57 O 0.08407 -0.00582 0.41324 0.0
Cd58 Cd 0.02687 0.97825 0.42684 0.0
O59 O 0.06904 0.95828 0.39305 0.0
Cd60 Cd 0.00853 0.9237 0.39817 0.0
C61 C 0.95882 0.00622 0.4003 0.0
O62 O 0.02237 0.90991 0.42458 0.0
O63 O 0.96315 0.90234 0.41862 0.0
O64 O 0.03519 0.86868 0.38477 0.0
C65 C 0.98931 0.89932 0.42872 0.0
O66 O 0.97406 0.01195 0.4135 0.0
C67 C 0.00556 0.86244 0.3766 0.0
O68 O 0.96851 0.97759 0.39206 0.0
O69 O 0.97754 0.88536 0.37827 0.0
C70 C 0.24939 0.84313 0.65365 0.0
O71 O 0.22484 0.84124 0.66447 0.0
Cd72 Cd 0.21669 0.78814 0.68128 0.0
O73 O 0.27443 0.81673 0.65179 0.0
Cd74 Cd 0.2977 0.757 0.66485 0.0
C75 C 0.2148 0.71482 0.65374 0.0
O76 O 0.27982 0.77754 0.68998 0.0
O77 O 0.29541 0.71806 0.68908 0.0
O78 O 0.36138 0.78345 0.66144 0.0
C79 C 0.28363 0.74616 0.69709 0.0
O80 O 0.19799 0.73587 0.66374 0.0
C81 C 0.3766 0.75269 0.6565 0.0
O82 O 0.25083 0.7174 0.65141 0.0
O83 O 0.35493 0.72352 0.6553 0.0
C84 C 0.38564 0.97809 0.90531 0.0
O85 O 0.39599 0.95994 0.91732 0.0
Cd86 Cd 0.45943 0.96571 0.92734 0.0
O87 O 0.40862 0.00111 0.89861 0.0
Cd88 Cd 0.47354 0.02833 0.90168 0.0
C89 C 0.51089 0.94167 0.89463 0.0
O90 O 0.47033 0.03337 0.92915 0.0
O91 O 0.52775 0.03672 0.92002 0.0
O92 O 0.44285 0.08767 0.89433 0.0
C93 C 0.50545 0.04017 0.93151 0.0
O94 O 0.50114 0.93317 0.90841 0.0
C95 C 0.46941 0.099 0.88543 0.0
O96 O 0.50217 0.97403 0.88881 0.0
O97 O 0.4982 0.07695 0.88381 0.0
C98 C 0.27318 0.15161 0.15052 0.0
O99 O 0.29846 0.15859 0.16073 0.0
Cd100 Cd 0.30587 0.21805 0.17377 0.0
O101 O 0.2477 0.1765 0.14702 0.0
Cd102 Cd 0.22372 0.24089 0.15518 0.0
C103 C 0.30685 0.27961 0.142 0.0
O104 O 0.24148 0.22854 0.18089 0.0
O105 O 0.21793 0.28505 0.17806 0.0
O106 O 0.16222 0.21029 0.15158 0.0
C107 C 0.23287 0.26028 0.18696 0.0
O108 O 0.32421 0.2623 0.15296 0.0
C109 C 0.14634 0.23865 0.14495 0.0
O110 O 0.27073 0.27646 0.14015 0.0
O111 O 0.1667 0.26848 0.14294 0.0
C112 C 0.73841 0.33982 0.15254 0.0
O113 O 0.71748 0.33633 0.16446 0.0
Cd114 Cd 0.71777 0.27986 0.17978 0.0
O115 O 0.7628 0.31396 0.149 0.0
Cd116 Cd 0.78932 0.25329 0.15971 0.0
C117 C 0.70523 0.21098 0.15142 0.0
O118 O 0.78378 0.27118 0.18635 0.0
O119 O 0.79383 0.21093 0.18267 0.0
O120 O 0.85205 0.27922 0.15385 0.0
C121 C 0.79056 0.23857 0.19212 0.0
O122 O 0.69119 0.23028 0.16259 0.0
C123 C 0.86468 0.24927 0.14722 0.0
O124 O 0.74028 0.21447 0.1476 0.0
O125 O 0.84187 0.22098 0.14616 0.0
C126 C 0.79366 0.65272 0.6628 0.0
O127 O 0.81754 0.66373 0.67298 0.0
Cd128 Cd 0.82007 0.7252 0.68499 0.0
O129 O 0.76619 0.67444 0.65843 0.0
Cd130 Cd 0.7386 0.73856 0.66506 0.0
C131 C 0.81978 0.78126 0.65189 0.0
O132 O 0.75557 0.73549 0.69159 0.0
O133 O 0.73399 0.79076 0.6849 0.0
O134 O 0.6747 0.71059 0.664 0.0
C135 C 0.74775 0.76955 0.69543 0.0
O136 O 0.83651 0.76986 0.66418 0.0
C137 C 0.6606 0.73647 0.65535 0.0
O138 O 0.78523 0.77189 0.64889 0.0
O139 O 0.68317 0.76283 0.65086 0.0
C140 C 0.72006 0.30339 0.35055 0.0
O141 O 0.68554 0.29237 0.35092 0.0
Cd142 Cd 0.70495 0.23077 0.33862 0.0
O143 O 0.74438 0.28043 0.3449 0.0
Cd144 Cd 0.7032 0.22272 0.33523 0.0
C145 C 0.75651 0.17533 0.35483 0.0
O146 O 0.72925 0.24553 0.31224 0.0
O147 O 0.70787 0.18789 0.30997 0.0
O148 O 0.63971 0.25259 0.3302 0.0
C149 C 0.72426 0.21652 0.30372 0.0
O150 O 0.76 0.21128 0.35533 0.0
C151 C 0.62189 0.23552 0.34095 0.0
O152 O 0.72962 0.16253 0.34653 0.0
O153 O 0.641 0.21183 0.349 0.0
C154 C 0.729 0.65865 0.81441 0.0
O155 O 0.71412 0.67439 0.80262 0.0
Cd156 Cd 0.72442 0.74121 0.79803 0.0
O157 O 0.7494 0.67817 0.82377 0.0
Cd158 Cd 0.77622 0.74279 0.82789 0.0
C159 C 0.68811 0.77934 0.83183 0.0
O160 O 0.79217 0.75062 0.80136 0.0
O161 O 0.79276 0.80356 0.81413 0.0
O162 O 0.82977 0.70584 0.83737 0.0
C163 C 0.80019 0.78592 0.80167 0.0
O164 O 0.68518 0.77587 0.8172 0.0
C165 C 0.83868 0.72855 0.84825 0.0
O166 O 0.71755 0.76696 0.83895 0.0
O167 O 0.81802 0.75834 0.84989 0.0
C168 C 0.59851 0.47694 0.07486 0.0
O169 O 0.59605 0.45596 0.06289 0.0
Cd170 Cd 0.54143 0.45595 0.04654 0.0
O171 O 0.57239 0.50137 0.07807 0.0
Cd172 Cd 0.51258 0.52884 0.06688 0.0
C173 C 0.46999 0.44406 0.07413 0.0
O174 O 0.53401 0.52236 0.04093 0.0
O175 O 0.47406 0.53596 0.04274 0.0
O176 O 0.54079 0.5893 0.07448 0.0
C177 C 0.50293 0.53016 0.03413 0.0
O178 O 0.49049 0.43022 0.06326 0.0
C179 C 0.51021 0.60366 0.07995 0.0
O180 O 0.47274 0.47916 0.07805 0.0
O181 O 0.48027 0.5829 0.07951 0.0
C182 C 0.94115 0.48209 0.59919 0.0
O183 O 0.95586 0.44932 0.60107 0.0
Cd184 Cd 0.00676 0.46459 0.58117 0.0
O185 O 0.95755 0.50386 0.58964 0.0
Cd186 Cd 0.01305 0.46282 0.5786 0.0
C187 C 0.0592 0.52126 0.59547 0.0
O188 O 0.98278 0.47621 0.5548 0.0
O189 O 0.04354 0.48659 0.55412 0.0
O190 O 0.98022 0.39884 0.58058 0.0
C191 C 0.01153 0.48709 0.54708 0.0
O192 O 0.02857 0.53072 0.58872 0.0
C193 C 0.0109 0.37931 0.58059 0.0
O194 O 0.06765 0.48606 0.59511 0.0
O195 O 0.04206 0.39795 0.57981 0.0
C196 C 0.5906 0.49515 0.87743 0.0
O197 O 0.59213 0.51722 0.88911 0.0
Cd198 Cd 0.54222 0.52566 0.90739 0.0
O199 O 0.56214 0.47282 0.87532 0.0
Cd200 Cd 0.50382 0.45204 0.88958 0.0
C201 C 0.46537 0.5391 0.88244 0.0
O202 O 0.52979 0.46149 0.91472 0.0
O203 O 0.46907 0.45112 0.91476 0.0
O204 O 0.52441 0.38753 0.8838 0.0
C205 C 0.49937 0.45743 0.92247 0.0
O206 O 0.48906 0.55286 0.89221 0.0
C207 C 0.49237 0.3763 0.87851 0.0
O208 O 0.46527 0.50352 0.8791 0.0
O209 O 0.46519 0.40065 0.87827 0.0
C210 C 0.87394 0.48632 0.40517 0.0
O211 O 0.87957 0.47165 0.41842 0.0
Cd212 Cd 0.93627 0.48072 0.43327 0.0
O213 O 0.89834 0.50913 0.39916 0.0
Cd214 Cd 0.95928 0.54181 0.40582 0.0
C215 C 0.00488 0.45585 0.40636 0.0
O216 O 0.94264 0.54892 0.43228 0.0
O217 O 0.00063 0.56533 0.42738 0.0
O218 O 0.93462 0.59743 0.39216 0.0
C219 C 0.97419 0.56153 0.43731 0.0
O220 O 0.98665 0.4465 0.41856 0.0
C221 C 0.96488 0.60269 0.38424 0.0
O222 O -0.00084 0.48785 0.39973 0.0
O223 O -0.00745 0.57964 0.38649 0.0
H224 H 0.9606 0.13288 0.58592 0.0
H225 H 0.94832 0.33235 0.58247 0.0
H226 H 0.07216 0.14873 0.56523 0.0
H227 H 0.07191 0.32995 0.5795 0.0
H228 H 0.94754 0.26251 0.58176 0.0
H229 H 0.95606 0.20202 0.58994 0.0
C230 C 0.98406 0.15097 0.58215 0.0
C231 C 0.01663 0.13507 0.57508 0.0
C232 C 0.97493 0.27703 0.58162 0.0
C233 C 0.01127 0.21445 0.57926 0.0
C234 C 0.97535 0.31705 0.58188 0.0
C235 C 0.01024 0.33698 0.58106 0.0
C236 C 0.00974 0.25677 0.58058 0.0
C237 C 0.04436 0.31573 0.58018 0.0
C238 C 0.98129 0.19058 0.58431 0.0
C239 C 0.04637 0.15978 0.57061 0.0
N240 N 0.04322 0.27678 0.57986 0.0
N241 N 0.04294 0.19822 0.57276 0.0
H242 H 0.88156 0.66338 0.85018 0.0
H243 H 0.07366 0.66839 0.86166 0.0
H244 H 0.87746 0.78074 0.86599 0.0
H245 H 0.05589 0.79069 0.85832 0.0
H246 H 0.00647 0.66077 0.86914 0.0
H247 H 0.94795 0.65928 0.85837 0.0
C248 C 0.8944 0.68797 0.85583 0.0
C249 C 0.8744 0.72278 0.85704 0.0
C250 C 0.01723 0.68928 0.8668 0.0
C251 C 0.95066 0.7184 0.86658 0.0
C252 C 0.05571 0.69366 0.86268 0.0
C253 C 0.06988 0.73007 0.85881 0.0
C254 C -0.00708 0.72155 0.86683 0.0
C255 C 0.04577 0.76194 0.86072 0.0
C256 C 0.93244 0.68555 0.86067 0.0
C257 C 0.89213 0.75355 0.86462 0.0
N258 N 0.00829 0.75686 0.86432 0.0
N259 N 0.92966 0.75097 0.86872 0.0
H260 H 0.57095 0.65109 0.08537 0.0
H261 H 0.44022 0.83696 0.08517 0.0
H262 H 0.44723 0.64752 0.08677 0.0
H263 H 0.5633 0.84035 0.09047 0.0
H264 H 0.4418 0.76765 0.08897 0.0
H265 H 0.56864 0.71987 0.09053 0.0
C266 C 0.54329 0.66473 0.08696 0.0
C267 C 0.50919 0.64375 0.08538 0.0
C268 C 0.46844 0.78355 0.08951 0.0
C269 C 0.50632 0.72251 0.09114 0.0
C270 C 0.46757 0.82313 0.0873 0.0
C271 C 0.50177 0.84428 0.08726 0.0
C272 C 0.50383 0.76492 0.09148 0.0
C273 C 0.53631 0.82503 0.09027 0.0
C274 C 0.54199 0.704 0.08994 0.0
C275 C 0.47419 0.66272 0.08775 0.0
N276 N 0.53653 0.78629 0.09203 0.0
N277 N 0.47363 0.7012 0.09026 0.0
H278 H 0.5792 0.29537 0.33024 0.0
H279 H 0.38681 0.32165 0.34667 0.0
H280 H 0.57201 0.19373 0.35859 0.0
H281 H 0.38708 0.19799 0.34955 0.0
H282 H 0.45685 0.32121 0.34902 0.0
H283 H 0.51084 0.30646 0.33425 0.0
C284 C 0.56325 0.27561 0.33745 0.0
C285 C 0.58112 0.24344 0.34402 0.0
C286 C 0.44151 0.29423 0.34915 0.0
C287 C 0.50312 0.25632 0.3489 0.0
C288 C 0.40158 0.29448 0.348 0.0
C289 C 0.38133 0.25976 0.34762 0.0
C290 C 0.46103 0.25898 0.34996 0.0
C291 C 0.40174 0.22536 0.34951 0.0
C292 C 0.52433 0.28226 0.33992 0.0
C293 C 0.55923 0.21883 0.3533 0.0
N294 N 0.44056 0.22582 0.3505 0.0
N295 N 0.52113 0.22544 0.35527 0.0
H296 H 0.06178 0.8112 0.36889 0.0
H297 H 0.90904 0.65243 0.37472 0.0
H298 H 0.94031 0.83207 0.36411 0.0
H299 H 0.03038 0.62971 0.37078 0.0
H300 H 0.91918 0.71558 0.36336 0.0
H301 H 0.05148 0.74441 0.36169 0.0
C302 C 0.03305 0.80193 0.36592 0.0
C303 C 0.00164 0.8267 0.36767 0.0
C304 C 0.94354 0.69652 0.36462 0.0
C305 C 0.98947 0.75025 0.35982 0.0
C306 C 0.93774 0.66049 0.37118 0.0
C307 C 0.96913 0.63648 0.37419 0.0
C308 C 0.98109 0.70883 0.36143 0.0
C309 C 0.00551 0.64784 0.36903 0.0
C310 C 0.02713 0.76375 0.3618 0.0
C311 C 0.9652 0.81355 0.36332 0.0
N312 N 0.01068 0.68367 0.36326 0.0
N313 N 0.95991 0.77585 0.36004 0.0
H314 H 0.42631 0.81248 0.65328 0.0
H315 H 0.62089 0.79221 0.63981 0.0
H316 H 0.42117 0.68878 0.652 0.0
H317 H 0.606 0.68306 0.66261 0.0
H318 H 0.5514 0.79692 0.63669 0.0
H319 H 0.49558 0.80915 0.6499 0.0
C320 C 0.43974 0.7846 0.65204 0.0
C321 C 0.41799 0.75085 0.65296 0.0
C322 C 0.5633 0.77206 0.64246 0.0
C323 C 0.49738 0.74676 0.64884 0.0
C324 C 0.60301 0.76915 0.6441 0.0
C325 C 0.61919 0.7375 0.65172 0.0
C326 C 0.53964 0.74317 0.64855 0.0
C327 C 0.59468 0.70822 0.65685 0.0
C328 C 0.47933 0.78271 0.64993 0.0
C329 C 0.43689 0.7155 0.65132 0.0
N330 N 0.55608 0.71187 0.65525 0.0
N331 N 0.47565 0.71435 0.64957 0.0
H332 H 0.42559 0.34129 0.8695 0.0
H333 H 0.40859 0.1481 0.88434 0.0
H334 H 0.54612 0.31956 0.87701 0.0
H335 H 0.52772 0.13821 0.87134 0.0
H336 H 0.4102 0.2158 0.87777 0.0
H337 H 0.4156 0.27259 0.86556 0.0
C338 C 0.44996 0.32206 0.87024 0.0
C339 C 0.48655 0.33596 0.87398 0.0
C340 C 0.43571 0.1988 0.87581 0.0
C341 C 0.47523 0.25736 0.86995 0.0
C342 C 0.43488 0.16005 0.87972 0.0
C343 C 0.46824 0.13769 0.87859 0.0
C344 C 0.47029 0.21534 0.87081 0.0
C345 C 0.50143 0.15454 0.87249 0.0
C346 C 0.44419 0.28278 0.86814 0.0
C347 C 0.51726 0.30995 0.87448 0.0
N348 N 0.50183 0.1926 0.86913 0.0
N349 N 0.51082 0.27185 0.87267 0.0
H350 H 0.09889 0.17652 0.14488 0.0
H351 H 0.90244 0.18686 0.13533 0.0
H352 H 0.10046 0.29826 0.13576 0.0
H353 H 0.91863 0.30594 0.14745 0.0
H354 H 0.97117 0.18142 0.13024 0.0
H355 H 0.02968 0.17643 0.14141 0.0
C356 C 0.08469 0.20314 0.14184 0.0
C357 C 0.10537 0.23753 0.14074 0.0
C358 C 0.95977 0.20867 0.1341 0.0
C359 C 0.02598 0.23762 0.13648 0.0
C360 C 0.92044 0.21189 0.13685 0.0
C361 C 0.90498 0.24668 0.14214 0.0
C362 C 0.9837 0.24043 0.1368 0.0
C363 C 0.92947 0.27838 0.14365 0.0
C364 C 0.04508 0.20301 0.13968 0.0
C365 C 0.08556 0.27114 0.13676 0.0
N366 N 0.96768 0.27439 0.14113 0.0
N367 N 0.04682 0.27046 0.13503 0.0
H368 H 0.03203 0.86671 0.45115 0.0
H369 H 0.93802 -0.00247 0.5167 0.0
H370 H 0.92814 0.93138 0.44377 0.0
H371 H 0.05096 0.94654 0.5181 0.0
H372 H 0.9256 0.96307 0.49233 0.0
H373 H 0.02893 0.88207 0.4786 0.0
C374 C 0.00793 0.88325 0.45545 0.0
C375 C 0.98055 0.89815 0.44528 0.0
C376 C 0.95289 0.95929 0.49812 0.0
C377 C 0.97765 0.91741 0.47646 0.0
C378 C 0.96005 0.97905 0.51192 0.0
C379 C -0.00426 0.9753 0.51929 0.0
C380 C 0.98151 0.93543 0.49186 0.0
C381 C 0.0232 0.95076 0.51274 0.0
C382 C 0.00631 0.89237 0.47108 0.0
C383 C 0.94981 0.91942 0.45133 0.0
N384 N 0.01552 0.93192 0.49943 0.0
N385 N 0.94964 0.92928 0.46656 0.0
H386 H 0.15423 0.78687 0.77958 0.0
H387 H 0.27731 0.68 0.71439 0.0
H388 H 0.19696 0.67157 0.78548 0.0
H389 H 0.24754 0.80033 0.7143 0.0
H390 H 0.24216 0.67253 0.73886 0.0
H391 H 0.17953 0.78739 0.75337 0.0
C392 C 0.16838 0.76136 0.77521 0.0
C393 C 0.17389 0.72931 0.78471 0.0
C394 C 0.24341 0.70048 0.73342 0.0
C395 C 0.20396 0.72998 0.75485 0.0
C396 C 0.26361 0.70482 0.71955 0.0
C397 C 0.26545 0.74087 0.71234 0.0
C398 C 0.22483 0.73239 0.73998 0.0
C399 C 0.24702 0.77202 0.71944 0.0
C400 C 0.18311 0.76174 0.76029 0.0
C401 C 0.19219 0.69688 0.77848 0.0
N402 N 0.22748 0.76701 0.73281 0.0
N403 N 0.20717 0.69823 0.76396 0.0
H404 H 0.57584 0.95818 0.02066 0.0
H405 H 0.47529 0.08229 0.95452 0.0
H406 H 0.47147 0.02411 0.02517 0.0
H407 H 0.56573 0.00151 0.94462 0.0
H408 H 0.48664 0.07355 0.98206 0.0
H409 H 0.5833 0.98337 -0.00583 0.0
C410 C 0.55478 0.97811 0.01614 0.0
C411 C 0.52276 0.98871 0.02502 0.0
C412 C 0.50454 0.05809 0.97393 0.0
C413 C 0.53144 0.01796 -0.00483 0.0
C414 C 0.49821 0.06335 0.95823 0.0
C415 C 0.51941 0.04234 0.94744 0.0
C416 C 0.53151 0.03072 0.97887 0.0
C417 C 0.54886 0.01819 0.95271 0.0
C418 C 0.55909 -0.00749 0.00111 0.0
C419 C 0.49638 0.01474 0.01872 0.0
N420 N 0.55354 0.01229 0.96816 0.0
N421 N 0.50129 0.02831 0.00422 0.0
H422 H 0.28207 0.21949 0.20465 0.0
H423 H 0.24396 0.33607 0.28272 0.0
H424 H 0.20915 0.3197 0.20581 0.0
H425 H 0.29075 0.22167 0.27966 0.0
H426 H 0.24174 0.33882 0.25423 0.0
H427 H 0.29699 0.22891 0.23172 0.0
C428 C 0.26919 0.24362 0.21062 0.0
C429 C 0.24376 0.26848 0.20306 0.0
C430 C 0.25288 0.3134 0.25987 0.0
C431 C 0.26053 0.27926 0.23427 0.0
C432 C 0.25432 0.31193 0.27605 0.0
C433 C 0.26715 0.27845 0.28343 0.0
C434 C 0.26496 0.2814 0.25124 0.0
C435 C 0.28019 0.24783 0.27437 0.0
C436 C 0.2778 0.24902 0.22612 0.0
C437 C 0.22859 0.29969 0.21132 0.0
N438 N 0.27862 0.25001 0.25879 0.0
N439 N 0.23684 0.30398 0.22662 0.0
H440 H 0.79748 0.2925 0.21446 0.0
H441 H 0.71916 0.15859 0.28215 0.0
H442 H 0.77613 0.17163 0.20786 0.0
H443 H 0.75955 0.27463 0.2885 0.0
H444 H 0.74053 0.16123 0.2551 0.0
H445 H 0.78519 0.285 0.24195 0.0
C446 C 0.79049 0.26425 0.21886 0.0
C447 C 0.78753 0.2327 0.20891 0.0
C448 C 0.74487 0.18595 0.26249 0.0
C449 C 0.77288 0.22387 0.24039 0.0
C450 C 0.73257 0.18451 0.27787 0.0
C451 C 0.73732 0.21655 0.28752 0.0
C452 C 0.76181 0.21971 0.25681 0.0
C453 C 0.75505 0.24934 0.28146 0.0
C454 C 0.78347 0.25994 0.23457 0.0
C455 C 0.77867 0.19668 0.2152 0.0
N456 N 0.76644 0.2501 0.2665 0.0
N457 N 0.77117 0.19328 0.23058 0.0
H458 H 0.72209 0.83271 0.7116 0.0
H459 H 0.85844 0.77616 0.78164 0.0
H460 H 0.80663 0.74217 0.71256 0.0
H461 H 0.75223 0.83739 0.78805 0.0
H462 H 0.85383 0.78711 0.75384 0.0
H463 H 0.74469 0.85396 0.73727 0.0
C464 C 0.7457 0.81775 0.7171 0.0
C465 C 0.7621 0.78526 0.71013 0.0
C466 C 0.83207 0.79925 0.76134 0.0
C467 C 0.78862 0.80989 0.73892 0.0
C468 C 0.83499 0.79337 0.77719 0.0
C469 C 0.80559 0.80578 0.78697 0.0
C470 C 0.79883 0.81643 0.75527 0.0
C471 C 0.77549 0.82755 0.78075 0.0
C472 C 0.75863 0.82994 0.73163 0.0
C473 C 0.79274 0.76697 0.71759 0.0
N474 N 0.77221 0.8313 0.76515 0.0
N475 N 0.80485 0.77945 0.73157 0.0
H476 H 0.56039 0.47382 0.94071 0.0
H477 H 0.43763 0.521 0.01655 0.0
H478 H 0.43687 0.46492 0.94176 0.0
H479 H 0.56114 0.52601 0.01354 0.0
H480 H 0.43514 0.5039 0.98898 0.0
H481 H 0.55979 0.49496 0.96741 0.0
C482 C 0.53306 0.47613 0.94661 0.0
C483 C 0.49862 0.46757 0.93901 0.0
C484 C 0.46269 0.50902 -0.00562 0.0
C485 C 0.49765 0.49212 0.96973 0.0
C486 C 0.46411 0.51899 0.01005 0.0
C487 C 0.49967 0.5246 0.01731 0.0
C488 C 0.49707 0.50487 0.98605 0.0
C489 C 0.53313 0.52157 0.00843 0.0
C490 C 0.53271 0.48837 0.96188 0.0
C491 C 0.46408 0.47114 0.94724 0.0
N492 N 0.53099 0.51175 -0.00669 0.0
N493 N 0.46444 0.48323 0.96221 0.0
H494 H 0.94501 0.49945 0.53155 0.0
H495 H 0.04404 0.55981 0.45215 0.0
H496 H 0.06787 0.50908 0.52665 0.0
H497 H 0.92196 0.56074 0.46048 0.0
H498 H 0.05465 0.54618 0.47966 0.0
H499 H 0.93708 0.52502 0.50566 0.0
C500 C 0.9704 0.50686 0.52498 0.0
C501 C 0.00717 0.50186 0.53121 0.0
C502 C 0.0256 0.54993 0.47548 0.0
C503 C -0.00169 0.53143 0.50143 0.0
C504 C 0.01955 0.55793 0.45982 0.0
C505 C 0.98204 0.56089 0.45404 0.0
C506 C -0.00613 0.54488 0.48529 0.0
C507 C 0.95134 0.55816 0.46443 0.0
C508 C 0.96585 0.52172 0.51019 0.0
C509 C 0.03901 0.51231 0.52222 0.0
N510 N 0.95793 0.54993 0.4795 0.0
N511 N 0.03387 0.52642 0.50769 0.0
H512 H 0.27884 0.84583 0.62426 0.0
H513 H 0.12438 0.00274 0.60133 0.0
H514 H 0.21059 0.9108 0.65669 0.0
H515 H 0.17492 0.92113 0.56973 0.0
H516 H 0.17274 0.98545 0.62059 0.0
H517 H 0.25827 0.88926 0.60365 0.0
C518 C 0.26033 0.86978 0.62713 0.0
C519 C 0.24543 0.87405 0.6421 0.0
C520 C 0.17373 0.97197 0.60931 0.0
C521 C 0.22167 0.92352 0.61863 0.0
C522 C 0.14619 0.98189 0.59829 0.0
C523 C 0.14495 0.96246 0.58409 0.0
C524 C 0.20005 0.94246 0.60605 0.0
C525 C 0.1742 0.93604 0.58071 0.0
C526 C 0.24851 0.8945 0.61536 0.0
C527 C 0.2219 0.90585 0.6452 0.0
N528 N 0.20014 0.92629 0.59173 0.0
N529 N 0.21016 0.92896 0.63351 0.0
H530 H 0.20974 0.83594 0.87088 0.0
H531 H 0.35517 0.0092 0.87896 0.0
H532 H 0.25225 0.90428 0.83295 0.0
H533 H 0.33089 0.92721 0.91509 0.0
H534 H 0.30067 0.98463 0.86434 0.0
H535 H 0.2367 0.88251 0.88901 0.0
C536 C 0.22397 0.86116 0.86635 0.0
C537 C 0.22982 0.86571 0.85041 0.0
C538 C 0.30685 0.97251 0.8756 0.0
C539 C 0.26071 0.9188 0.87103 0.0
C540 C 0.33799 0.98649 0.88396 0.0
C541 C 0.34834 0.96937 0.89805 0.0
C542 C 0.28613 0.94106 0.88133 0.0
C543 C 0.32452 0.94062 0.9041 0.0
C544 C 0.2394 0.88768 0.87671 0.0
C545 C 0.24801 0.89915 0.84518 0.0
N546 N 0.29493 0.92681 0.89555 0.0
N547 N 0.2634 0.9241 0.85547 0.0
H548 H 0.39974 0.97894 0.1083 0.0
H549 H 0.23919 0.13417 0.1228 0.0
H550 H 0.34189 0.04396 0.07277 0.0
H551 H 0.31423 0.08728 0.15775 0.0
H552 H 0.25804 0.08219 0.1054 0.0
H553 H 0.35036 -0.00132 0.12673 0.0
C554 C 0.3761 -0.00351 0.10427 0.0
C555 C 0.37561 0.01106 0.08916 0.0
C556 C 0.26964 0.08278 0.11702 0.0
C557 C 0.31942 0.03386 0.11013 0.0
C558 C 0.25888 0.11243 0.12696 0.0
C559 C 0.27631 0.1158 0.14151 0.0
C560 C 0.29805 0.0566 0.1217 0.0
C561 C 0.30109 0.08645 0.14641 0.0
C562 C 0.34796 0.0078 0.1148 0.0
C563 C 0.344 0.03315 0.08448 0.0
N564 N 0.31186 0.0585 0.1364 0.0
N565 N 0.31757 0.04459 0.09502 0.0
H566 H 0.11498 0.96428 0.3704 0.0
H567 H 0.24259 0.1523 0.36672 0.0
H568 H 0.14489 0.03352 0.41005 0.0
H569 H 0.18999 0.09691 0.32742 0.0
H570 H 0.2257 0.09682 0.38268 0.0
H571 H 0.16137 -6e-05 0.35498 0.0
C572 C 0.13177 0.98651 0.37595 0.0
C573 C 0.12515 -0.00319 0.3914 0.0
C574 C 0.21859 0.09654 0.37048 0.0
C575 C 0.17803 0.03778 0.3738 0.0
C576 C 0.22825 0.12813 0.36138 0.0
C577 C 0.21665 0.12956 0.34586 0.0
C578 C 0.19741 0.06634 0.36395 0.0
C579 C 0.19853 0.09736 0.33946 0.0
C580 C 0.15826 0.00684 0.36713 0.0
C581 C 0.14835 0.02529 0.39806 0.0
N582 N 0.18895 0.06728 0.34859 0.0
N583 N 0.17326 0.04534 0.38913 0.0
H584 H 0.93818 0.07759 0.41112 0.0
H585 H 0.76258 0.09753 0.35218 0.0
H586 H 0.90958 -0.00696 0.37645 0.0
H587 H 0.81216 0.19493 0.37568 0.0
H588 H 0.81061 0.05612 0.36422 0.0
H589 H 0.8867 0.11883 0.40113 0.0
C590 C 0.92111 0.0677 0.40144 0.0
C591 C 0.92831 0.03194 0.39455 0.0
C592 C 0.8109 0.08655 0.36678 0.0
C593 C 0.86941 0.07854 0.38326 0.0
C594 C 0.78341 0.11014 0.35997 0.0
C595 C 0.7836 0.14971 0.36287 0.0
C596 C 0.83858 0.10259 0.37665 0.0
C597 C 0.81121 0.16456 0.37307 0.0
C598 C 0.89184 0.09122 0.39575 0.0
C599 C 0.9053 0.02051 0.38205 0.0
N600 N 0.8377 0.14096 0.37959 0.0
N601 N 0.87685 0.04367 0.37685 0.0
H602 H 0.52716 0.12315 0.09238 0.0
H603 H 0.72625 0.14765 0.13481 0.0
H604 H 0.60104 0.02589 0.10083 0.0
H605 H 0.62762 0.21579 0.14745 0.0
H606 H 0.68454 0.10656 0.1191 0.0
H607 H 0.56772 0.1621 0.10937 0.0
C608 C 0.55197 0.11005 0.09778 0.0
C609 C 0.56082 0.07128 0.09522 0.0
C610 C 0.67211 0.13041 0.1254 0.0
C611 C 0.60733 0.11567 0.11443 0.0
C612 C 0.69583 0.1539 0.13429 0.0
C613 C 0.68028 0.18509 0.14243 0.0
C614 C 0.63283 0.13879 0.12436 0.0
C615 C 0.64068 0.19189 0.14141 0.0
C616 C 0.57489 0.1322 0.10752 0.0
C617 C 0.59316 0.05565 0.10257 0.0
N618 N 0.61832 0.16915 0.13238 0.0
N619 N 0.61554 0.07803 0.11175 0.0
H620 H 0.62946 0.82385 0.82066 0.0
H621 H 0.54773 0.87655 0.90445 0.0
H622 H 0.67772 0.7802 0.86316 0.0
H623 H 0.52486 0.9438 0.86353 0.0
H624 H 0.58736 0.83326 0.8889 0.0
H625 H 0.58254 0.86026 0.83577 0.0
C626 C 0.62999 0.82165 0.83315 0.0
C627 C 0.65776 0.79923 0.84067 0.0
C628 C 0.5735 0.85743 0.88334 0.0
C629 C 0.6042 0.84066 0.85797 0.0
C630 C 0.55082 0.88207 0.89219 0.0
C631 C 0.53324 0.91403 0.88531 0.0
C632 C 0.5783 0.86459 0.86749 0.0
C633 C 0.53819 0.91974 0.86936 0.0
C634 C 0.60331 0.84253 0.84175 0.0
C635 C 0.65707 0.79743 0.85689 0.0
N636 N 0.56031 0.89529 0.86099 0.0
N637 N 0.63078 0.81795 0.865 0.0
H638 H 0.80868 0.78821 0.6207 0.0
H639 H 0.96438 0.95202 0.60891 0.0
H640 H 0.87956 0.82922 0.65815 0.0
H641 H 0.94016 0.86841 0.57338 0.0
H642 H 0.92279 0.91642 0.62668 0.0
H643 H 0.8466 0.82696 0.6026 0.0
C644 C 0.83201 0.80558 0.62511 0.0
C645 C 0.8412 0.80543 0.64091 0.0
C646 C 0.92657 0.90604 0.61497 0.0
C647 C 0.884 0.84991 0.62041 0.0
C648 C 0.95009 0.92635 0.60482 0.0
C649 C 0.95582 0.91296 0.5897 0.0
C650 C 0.90807 0.87267 0.60982 0.0
C651 C 0.93673 0.87948 0.585 0.0
C652 C 0.85365 0.82745 0.6148 0.0
C653 C 0.87177 0.8283 0.64604 0.0
N654 N 0.91349 0.86053 0.59502 0.0
N655 N 0.89199 0.84983 0.63582 0.0
H656 H 0.76684 0.3499 0.12328 0.0
H657 H 0.606 0.50443 0.10441 0.0
H658 H 0.69354 0.40314 0.15738 0.0
H659 H 0.66336 0.43424 0.07032 0.0
H660 H 0.65215 0.48267 0.1238 0.0
H661 H 0.7437 0.39578 0.10408 0.0
C662 C 0.74648 0.3717 0.12682 0.0
C663 C 0.73124 0.37201 0.14184 0.0
C664 C 0.65501 0.4726 0.112 0.0
C665 C 0.70458 0.42433 0.11993 0.0
C666 C 0.62871 0.48503 0.10092 0.0
C667 C 0.63021 0.47026 0.08584 0.0
C668 C 0.68288 0.44527 0.10793 0.0
C669 C 0.66057 0.44562 0.08192 0.0
C670 C 0.73324 0.39784 0.11584 0.0
C671 C 0.70534 0.40125 0.14583 0.0
N672 N 0.68535 0.4334 0.09297 0.0
N673 N 0.69231 0.42585 0.13486 0.0
H674 H 0.68887 0.34433 0.37448 0.0
H675 H 0.86362 0.49168 0.37391 0.0
H676 H 0.77868 0.34711 0.34019 0.0
H677 H 0.80869 0.45149 0.41561 0.0
H678 H 0.81537 0.45768 0.35864 0.0
H679 H 0.71677 0.40178 0.38661 0.0
C680 C 0.71391 0.35757 0.36934 0.0
C681 C 0.73214 0.3408 0.35657 0.0
C682 C 0.81347 0.4571 0.37114 0.0
C683 C 0.76335 0.40616 0.37004 0.0
C684 C 0.8409 0.47651 0.37986 0.0
C685 C 0.84069 0.47345 0.39603 0.0
C686 C 0.78565 0.43487 0.37868 0.0
C687 C 0.81038 0.45373 0.40315 0.0
C688 C 0.72973 0.39017 0.37623 0.0
C689 C 0.76435 0.35889 0.35024 0.0
N690 N 0.7843 0.43464 0.39441 0.0
N691 N 0.77915 0.3905 0.35711 0.0
H692 H 0.88748 0.53303 0.58967 0.0
H693 H 0.83478 0.59129 0.67328 0.0
H694 H 0.9191 0.46229 0.62854 0.0
H695 H 0.77021 0.63128 0.63386 0.0
H696 H 0.8596 0.53844 0.65767 0.0
H697 H 0.83861 0.56407 0.6055 0.0
C698 C 0.88363 0.52367 0.60152 0.0
C699 C 0.90763 0.49562 0.60794 0.0
C700 C 0.83927 0.55819 0.65253 0.0
C701 C 0.85232 0.53143 0.62621 0.0
C702 C 0.82519 0.58845 0.66141 0.0
C703 C 0.80112 0.61617 0.65473 0.0
C704 C 0.82987 0.5562 0.63677 0.0
C705 C 0.78911 0.61081 0.63941 0.0
C706 C 0.8556 0.54123 0.61053 0.0
C707 C 0.90126 0.48408 0.62324 0.0
N708 N 0.80438 0.58195 0.63081 0.0
N709 N 0.87475 0.50274 0.63202 0.0
H710 H 0.67149 0.61393 0.8025 0.0
H711 H 0.58505 0.47894 0.84645 0.0
H712 H 0.7642 0.61248 0.83558 0.0
H713 H 0.66379 0.52027 0.88115 0.0
H714 H 0.62857 0.50205 0.82634 0.0
H715 H 0.64569 0.55614 0.81421 0.0
C716 C 0.6871 0.60071 0.81193 0.0
C717 C 0.71922 0.61875 0.81845 0.0
C718 C 0.63652 0.50584 0.83833 0.0
C719 C 0.69016 0.55217 0.83189 0.0
C720 C 0.61188 0.4922 0.84982 0.0
C721 C 0.62027 0.49912 0.86544 0.0
C722 C 0.66939 0.52665 0.84264 0.0
C723 C 0.65566 0.5156 0.86921 0.0
C724 C 0.67246 0.56735 0.81861 0.0
C725 C 0.7386 0.60016 0.83051 0.0
N726 N 0.6786 0.52943 0.85789 0.0
N727 N 0.72326 0.56838 0.83708 0.0
H728 H 0.47057 0.6166 0.87776 0.0
H729 H 0.2552 0.64213 0.85108 0.0
H730 H 0.39586 0.51959 0.87034 0.0
H731 H 0.34382 0.71849 0.83478 0.0
H732 H 0.30464 0.60032 0.86203 0.0
H733 H 0.4224 0.65833 0.86565 0.0
C734 C 0.44404 0.60413 0.87361 0.0
C735 C 0.4371 0.56464 0.87503 0.0
C736 C 0.31319 0.62618 0.85601 0.0
C737 C 0.3821 0.61204 0.86146 0.0
C738 C 0.28508 0.6501 0.84983 0.0
C739 C 0.29553 0.68375 0.84201 0.0
C740 C 0.35193 0.63642 0.85465 0.0
C741 C 0.33464 0.69266 0.84066 0.0
C742 C 0.41678 0.62787 0.86665 0.0
C743 C 0.40239 0.54987 0.86939 0.0
N744 N 0.36152 0.66928 0.84706 0.0
N745 N 0.37597 0.57367 0.86298 0.0
H746 H 0.13273 0.51252 0.60603 0.0
H747 H 0.13703 0.71346 0.64976 0.0
H748 H 0.0402 0.59466 0.60336 0.0
H749 H 0.24049 0.6526 0.63728 0.0
H750 H 0.09956 0.66662 0.63516 0.0
H751 H 0.17146 0.56017 0.61985 0.0
C752 C 0.1206 0.54057 0.60835 0.0
C753 C 0.08324 0.54972 0.60356 0.0
C754 C 0.13048 0.66362 0.63558 0.0
C755 C 0.1271 0.604 0.61943 0.0
C756 C 0.15188 0.69023 0.64396 0.0
C757 C 0.19196 0.68693 0.64474 0.0
C758 C 0.14919 0.63312 0.62811 0.0
C759 C 0.20966 0.65631 0.63693 0.0
C760 C 0.14273 0.56774 0.61617 0.0
C761 C 0.06892 0.58648 0.60681 0.0
N762 N 0.18811 0.6304 0.62902 0.0
N763 N 0.09078 0.61221 0.61465 0.0
H764 H 0.07253 0.47495 0.39313 0.0
H765 H 0.10255 0.28032 0.34932 0.0
H766 H 0.00082 0.37762 0.40366 0.0
H767 H 0.19878 0.35109 0.36245 0.0
H768 H 0.06133 0.3182 0.36658 0.0
H769 H 0.11663 0.43247 0.37929 0.0
C770 C 0.06632 0.44451 0.39262 0.0
C771 C 0.03316 0.42959 0.3995 0.0
C772 C 0.09154 0.32512 0.36572 0.0
C773 C 0.08279 0.38124 0.38345 0.0
C774 C 0.11495 0.30384 0.35581 0.0
C775 C 0.15403 0.3128 0.35442 0.0
C776 C 0.10725 0.35603 0.37396 0.0
C777 C 0.16878 0.34327 0.36319 0.0
C778 C 0.09147 0.42036 0.38478 0.0
C779 C 0.0263 0.39003 0.39856 0.0
N780 N 0.14525 0.36414 0.37245 0.0
N781 N 0.05068 0.36715 0.39041 0.0
H782 H 0.47581 0.36652 0.07795 0.0
H783 H 0.28223 0.34154 0.12528 0.0
H784 H 0.40525 0.46383 0.09013 0.0
H785 H 0.38219 0.27167 0.13411 0.0
H786 H 0.32062 0.38132 0.10771 0.0
H787 H 0.43466 0.32544 0.09386 0.0
C788 C 0.45143 0.37914 0.08383 0.0
C789 C 0.44396 0.41862 0.0828 0.0
C790 C 0.33398 0.3572 0.1135 0.0
C791 C 0.39684 0.37187 0.10079 0.0
C792 C 0.31216 0.33448 0.12345 0.0
C793 C 0.32919 0.30346 0.1312 0.0
C794 C 0.37272 0.34818 0.11102 0.0
C795 C 0.36808 0.29555 0.12846 0.0
C796 C 0.42819 0.35576 0.09295 0.0
C797 C 0.41213 0.43356 0.09073 0.0
N798 N 0.38852 0.31764 0.1185 0.0
N799 N 0.38956 0.4101 0.09936 0.0
loop_
_geom_bond_atom_site_label_1
_geom_bond_atom_site_label_2
_geom_bond_distance
_geom_bond_site_symmetry_2
_ccdc_geom_bond_type
C0 O1 1.306 . S
C0 O3 1.160 1_565 S
O1 C0 1.306 . S
O1 Cd2 2.228 . S
Cd2 O1 2.228 . S
Cd2 O6 2.273 1_565 S
Cd2 O10 2.277 1_455 S
O3 C0 1.160 1_545 S
O3 Cd4 2.203 1_455 S
Cd4 O3 2.203 1_655 S
Cd4 O6 2.411 1_655 S
Cd4 O7 2.333 . S
Cd4 O8 2.352 1_655 S
Cd4 O12 2.277 . S
Cd4 O13 2.356 . S
C5 O10 1.209 . S
C5 O12 1.226 1_565 S
O6 Cd2 2.273 1_545 S
O6 Cd4 2.411 1_455 S
O6 C9 1.320 1_455 S
O7 Cd4 2.333 . S
O7 C9 1.214 . S
O8 Cd4 2.352 1_455 S
O8 C11 1.258 . S
C9 O6 1.320 1_655 S
C9 O7 1.214 . S
O10 Cd2 2.277 1_655 S
O10 C5 1.209 . S
C11 O8 1.258 . S
C11 O13 1.282 1_455 S
O12 Cd4 2.277 . S
O12 C5 1.226 1_545 S
O13 Cd4 2.356 . S
O13 C11 1.282 1_655 S
C14 O15 1.306 . S
C14 O17 1.160 . S
O15 C14 1.306 . S
O15 Cd16 2.228 . S
Cd16 O15 2.228 . S
Cd16 O20 2.273 . S
Cd16 O24 2.277 . S
O17 C14 1.160 . S
O17 Cd18 2.203 . S
Cd18 O17 2.203 . S
Cd18 O20 2.411 . S
Cd18 O21 2.333 . S
Cd18 O22 2.352 . S
Cd18 O26 2.277 . S
Cd18 O27 2.356 . S
C19 O24 1.209 . S
C19 O26 1.226 . S
O20 Cd16 2.273 . S
O20 Cd18 2.411 . S
O20 C23 1.320 . S
O21 Cd18 2.333 . S
O21 C23 1.214 . S
O22 Cd18 2.352 . S
O22 C25 1.258 . S
C23 O20 1.320 . S
C23 O21 1.214 . S
O24 Cd16 2.277 . S
O24 C19 1.209 . S
C25 O22 1.258 . S
C25 O27 1.282 . S
O26 Cd18 2.277 . S
O26 C19 1.226 . S
O27 Cd18 2.356 . S
O27 C25 1.282 . S
C28 O29 1.306 . S
C28 O31 1.160 1_545 S
O29 C28 1.306 . S
O29 Cd30 2.228 . S
Cd30 O29 2.228 . S
Cd30 O34 2.273 1_545 S
Cd30 O38 2.277 . S
O31 C28 1.160 1_565 S
O31 Cd32 2.203 . S
Cd32 O31 2.203 . S
Cd32 O34 2.411 . S
Cd32 O35 2.333 . S
Cd32 O36 2.352 . S
Cd32 O40 2.277 . S
Cd32 O41 2.356 . S
C33 O38 1.209 . S
C33 O40 1.226 1_545 S
O34 Cd30 2.273 1_565 S
O34 Cd32 2.411 . S
O34 C37 1.320 . S
O35 Cd32 2.333 . S
O35 C37 1.214 . S
O36 Cd32 2.352 . S
O36 C39 1.258 . S
C37 O34 1.320 . S
C37 O35 1.214 . S
O38 Cd30 2.277 . S
O38 C33 1.209 . S
C39 O36 1.258 . S
C39 O41 1.282 . S
O40 Cd32 2.277 . S
O40 C33 1.226 1_565 S
O41 Cd32 2.356 . S
O41 C39 1.282 . S
C42 O43 1.306 . S
C42 O45 1.160 . S
O43 C42 1.306 . S
O43 Cd44 2.228 . S
Cd44 O43 2.228 . S
Cd44 O48 2.273 . S
Cd44 O52 2.277 . S
O45 C42 1.160 . S
O45 Cd46 2.203 . S
Cd46 O45 2.203 . S
Cd46 O48 2.411 . S
Cd46 O49 2.333 . S
Cd46 O50 2.352 . S
Cd46 O54 2.277 . S
Cd46 O55 2.356 . S
C47 O52 1.209 . S
C47 O54 1.226 . S
O48 Cd44 2.273 . S
O48 Cd46 2.411 . S
O48 C51 1.320 . S
O49 Cd46 2.333 . S
O49 C51 1.214 . S
O50 Cd46 2.352 . S
O50 C53 1.258 . S
C51 O48 1.320 . S
C51 O49 1.214 . S
O52 Cd44 2.277 . S
O52 C47 1.209 . S
C53 O50 1.258 . S
C53 O55 1.282 . S
O54 Cd46 2.277 . S
O54 C47 1.226 . S
O55 Cd46 2.356 . S
O55 C53 1.282 . S
C56 O57 1.306 . S
C56 O59 1.160 1_545 S
O57 C56 1.306 . S
O57 Cd58 2.228 . S
Cd58 O57 2.228 . S
Cd58 O62 2.273 1_545 S
Cd58 O66 2.277 1_455 S
O59 C56 1.160 1_565 S
O59 Cd60 2.203 1_455 S
Cd60 O59 2.203 1_655 S
Cd60 O62 2.411 1_655 S
Cd60 O63 2.333 . S
Cd60 O64 2.352 1_655 S
Cd60 O68 2.277 . S
Cd60 O69 2.356 . S
C61 O66 1.209 . S
C61 O68 1.226 1_545 S
O62 Cd58 2.273 1_565 S
O62 Cd60 2.411 1_455 S
O62 C65 1.320 1_455 S
O63 Cd60 2.333 . S
O63 C65 1.214 . S
O64 Cd60 2.352 1_455 S
O64 C67 1.258 . S
C65 O62 1.320 1_655 S
C65 O63 1.214 . S
O66 Cd58 2.277 1_655 S
O66 C61 1.209 . S
C67 O64 1.258 . S
C67 O69 1.282 1_455 S
O68 Cd60 2.277 . S
O68 C61 1.226 1_565 S
O69 Cd60 2.356 . S
O69 C67 1.282 1_655 S
C70 O71 1.306 . S
C70 O73 1.160 . S
O71 C70 1.306 . S
O71 Cd72 2.228 . S
Cd72 O71 2.228 . S
Cd72 O76 2.273 . S
Cd72 O80 2.277 . S
O73 C70 1.160 . S
O73 Cd74 2.203 . S
Cd74 O73 2.203 . S
Cd74 O76 2.411 . S
Cd74 O77 2.333 . S
Cd74 O78 2.352 . S
Cd74 O82 2.277 . S
Cd74 O83 2.356 . S
C75 O80 1.209 . S
C75 O82 1.226 . S
O76 Cd72 2.273 . S
O76 Cd74 2.411 . S
O76 C79 1.320 . S
O77 Cd74 2.333 . S
O77 C79 1.214 . S
O78 Cd74 2.352 . S
O78 C81 1.258 . S
C79 O76 1.320 . S
C79 O77 1.214 . S
O80 Cd72 2.277 . S
O80 C75 1.209 . S
C81 O78 1.258 . S
C81 O83 1.282 . S
O82 Cd74 2.277 . S
O82 C75 1.226 . S
O83 Cd74 2.356 . S
O83 C81 1.282 . S
C84 O85 1.306 . S
C84 O87 1.160 1_565 S
O85 C84 1.306 . S
O85 Cd86 2.228 . S
Cd86 O85 2.228 . S
Cd86 O90 2.273 1_565 S
Cd86 O94 2.277 . S
O87 C84 1.160 1_545 S
O87 Cd88 2.203 . S
Cd88 O87 2.203 . S
Cd88 O90 2.411 . S
Cd88 O91 2.333 . S
Cd88 O92 2.352 . S
Cd88 O96 2.277 . S
Cd88 O97 2.356 . S
C89 O94 1.209 . S
C89 O96 1.226 1_565 S
O90 Cd86 2.273 1_545 S
O90 Cd88 2.411 . S
O90 C93 1.320 . S
O91 Cd88 2.333 . S
O91 C93 1.214 . S
O92 Cd88 2.352 . S
O92 C95 1.258 . S
C93 O90 1.320 . S
C93 O91 1.214 . S
O94 Cd86 2.277 . S
O94 C89 1.209 . S
C95 O92 1.258 . S
C95 O97 1.282 . S
O96 Cd88 2.277 . S
O96 C89 1.226 1_545 S
O97 Cd88 2.356 . S
O97 C95 1.282 . S
C98 O99 1.306 . S
C98 O101 1.160 . S
O99 C98 1.306 . S
O99 Cd100 2.228 . S
Cd100 O99 2.228 . S
Cd100 O104 2.273 . S
Cd100 O108 2.277 . S
O101 C98 1.160 . S
O101 Cd102 2.203 . S
Cd102 O101 2.203 . S
Cd102 O104 2.411 . S
Cd102 O105 2.333 . S
Cd102 O106 2.352 . S
Cd102 O110 2.277 . S
Cd102 O111 2.356 . S
C103 O108 1.209 . S
C103 O110 1.226 . S
O104 Cd100 2.273 . S
O104 Cd102 2.411 . S
O104 C107 1.320 . S
O105 Cd102 2.333 . S
O105 C107 1.214 . S
O106 Cd102 2.352 . S
O106 C109 1.258 . S
C107 O104 1.320 . S
C107 O105 1.214 . S
O108 Cd100 2.277 . S
O108 C103 1.209 . S
C109 O106 1.258 . S
C109 O111 1.282 . S
O110 Cd102 2.277 . S
O110 C103 1.226 . S
O111 Cd102 2.356 . S
O111 C109 1.282 . S
C112 O113 1.306 . S
C112 O115 1.160 . S
O113 C112 1.306 . S
O113 Cd114 2.228 . S
Cd114 O113 2.228 . S
Cd114 O118 2.273 . S
Cd114 O122 2.277 . S
O115 C112 1.160 . S
O115 Cd116 2.203 . S
Cd116 O115 2.203 . S
Cd116 O118 2.411 . S
Cd116 O119 2.333 . S
Cd116 O120 2.352 . S
Cd116 O124 2.277 . S
Cd116 O125 2.356 . S
C117 O122 1.209 . S
C117 O124 1.226 . S
O118 Cd114 2.273 . S
O118 Cd116 2.411 . S
O118 C121 1.320 . S
O119 Cd116 2.333 . S
O119 C121 1.214 . S
O120 Cd116 2.352 . S
O120 C123 1.258 . S
C121 O118 1.320 . S
C121 O119 1.214 . S
O122 Cd114 2.277 . S
O122 C117 1.209 . S
C123 O120 1.258 . S
C123 O125 1.282 . S
O124 Cd116 2.277 . S
O124 C117 1.226 . S
O125 Cd116 2.356 . S
O125 C123 1.282 . S
C126 O127 1.306 . S
C126 O129 1.160 . S
O127 C126 1.306 . S
O127 Cd128 2.228 . S
Cd128 O127 2.228 . S
Cd128 O132 2.273 . S
Cd128 O136 2.277 . S
O129 C126 1.160 . S
O129 Cd130 2.203 . S
Cd130 O129 2.203 . S
Cd130 O132 2.411 . S
Cd130 O133 2.333 . S
Cd130 O134 2.352 . S
Cd130 O138 2.277 . S
Cd130 O139 2.356 . S
C131 O136 1.209 . S
C131 O138 1.226 . S
O132 Cd128 2.273 . S
O132 Cd130 2.411 . S
O132 C135 1.320 . S
O133 Cd130 2.333 . S
O133 C135 1.214 . S
O134 Cd130 2.352 . S
O134 C137 1.258 . S
C135 O132 1.320 . S
C135 O133 1.214 . S
O136 Cd128 2.277 . S
O136 C131 1.209 . S
C137 O134 1.258 . S
C137 O139 1.282 . S
O138 Cd130 2.277 . S
O138 C131 1.226 . S
O139 Cd130 2.356 . S
O139 C137 1.282 . S
C140 O141 1.306 . S
C140 O143 1.160 . S
O141 C140 1.306 . S
O141 Cd142 2.228 . S
Cd142 O141 2.228 . S
Cd142 O146 2.273 . S
Cd142 O150 2.277 . S
O143 C140 1.160 . S
O143 Cd144 2.203 . S
Cd144 O143 2.203 . S
Cd144 O146 2.411 . S
Cd144 O147 2.333 . S
Cd144 O148 2.352 . S
Cd144 O152 2.277 . S
Cd144 O153 2.356 . S
C145 O150 1.209 . S
C145 O152 1.226 . S
O146 Cd142 2.273 . S
O146 Cd144 2.411 . S
O146 C149 1.320 . S
O147 Cd144 2.333 . S
O147 C149 1.214 . S
O148 Cd144 2.352 . S
O148 C151 1.258 . S
C149 O146 1.320 . S
C149 O147 1.214 . S
O150 Cd142 2.277 . S
O150 C145 1.209 . S
C151 O148 1.258 . S
C151 O153 1.282 . S
O152 Cd144 2.277 . S
O152 C145 1.226 . S
O153 Cd144 2.356 . S
O153 C151 1.282 . S
C154 O155 1.306 . S
C154 O157 1.160 . S
O155 C154 1.306 . S
O155 Cd156 2.228 . S
Cd156 O155 2.228 . S
Cd156 O160 2.273 . S
Cd156 O164 2.277 . S
O157 C154 1.160 . S
O157 Cd158 2.203 . S
Cd158 O157 2.203 . S
Cd158 O160 2.411 . S
Cd158 O161 2.333 . S
Cd158 O162 2.352 . S
Cd158 O166 2.277 . S
Cd158 O167 2.356 . S
C159 O164 1.209 . S
C159 O166 1.226 . S
O160 Cd156 2.273 . S
O160 Cd158 2.411 . S
O160 C163 1.320 . S
O161 Cd158 2.333 . S
O161 C163 1.214 . S
O162 Cd158 2.352 . S
O162 C165 1.258 . S
C163 O160 1.320 . S
C163 O161 1.214 . S
O164 Cd156 2.277 . S
O164 C159 1.209 . S
C165 O162 1.258 . S
C165 O167 1.282 . S
O166 Cd158 2.277 . S
O166 C159 1.226 . S
O167 Cd158 2.356 . S
O167 C165 1.282 . S
C168 O169 1.306 . S
C168 O171 1.160 . S
O169 C168 1.306 . S
O169 Cd170 2.228 . S
Cd170 O169 2.228 . S
Cd170 O174 2.273 . S
Cd170 O178 2.277 . S
O171 C168 1.160 . S
O171 Cd172 2.203 . S
Cd172 O171 2.203 . S
Cd172 O174 2.411 . S
Cd172 O175 2.333 . S
Cd172 O176 2.352 . S
Cd172 O180 2.277 . S
Cd172 O181 2.356 . S
C173 O178 1.209 . S
C173 O180 1.226 . S
O174 Cd170 2.273 . S
O174 Cd172 2.411 . S
O174 C177 1.320 . S
O175 Cd172 2.333 . S
O175 C177 1.214 . S
O176 Cd172 2.352 . S
O176 C179 1.258 . S
C177 O174 1.320 . S
C177 O175 1.214 . S
O178 Cd170 2.277 . S
O178 C173 1.209 . S
C179 O176 1.258 . S
C179 O181 1.282 . S
O180 Cd172 2.277 . S
O180 C173 1.226 . S
O181 Cd172 2.356 . S
O181 C179 1.282 . S
C182 O183 1.306 . S
C182 O185 1.160 . S
O183 C182 1.306 . S
O183 Cd184 2.228 . S
Cd184 O183 2.228 . S
Cd184 O188 2.273 . S
Cd184 O192 2.277 1_655 S
O185 C182 1.160 . S
O185 Cd186 2.203 1_655 S
Cd186 O185 2.203 1_455 S
Cd186 O188 2.411 1_455 S
Cd186 O189 2.333 . S
Cd186 O190 2.352 1_455 S
Cd186 O194 2.277 . S
Cd186 O195 2.356 . S
C187 O192 1.209 . S
C187 O194 1.226 . S
O188 Cd184 2.273 . S
O188 Cd186 2.411 1_655 S
O188 C191 1.320 1_655 S
O189 Cd186 2.333 . S
O189 C191 1.214 . S
O190 Cd186 2.352 1_655 S
O190 C193 1.258 . S
C191 O188 1.320 1_455 S
C191 O189 1.214 . S
O192 Cd184 2.277 1_455 S
O192 C187 1.209 . S
C193 O190 1.258 . S
C193 O195 1.282 1_655 S
O194 Cd186 2.277 . S
O194 C187 1.226 . S
O195 Cd186 2.356 . S
O195 C193 1.282 1_455 S
C196 O197 1.306 . S
C196 O199 1.160 . S
O197 C196 1.306 . S
O197 Cd198 2.228 . S
Cd198 O197 2.228 . S
Cd198 O202 2.273 . S
Cd198 O206 2.277 . S
O199 C196 1.160 . S
O199 Cd200 2.203 . S
Cd200 O199 2.203 . S
Cd200 O202 2.411 . S
Cd200 O203 2.333 . S
Cd200 O204 2.352 . S
Cd200 O208 2.277 . S
Cd200 O209 2.356 . S
C201 O206 1.209 . S
C201 O208 1.226 . S
O202 Cd198 2.273 . S
O202 Cd200 2.411 . S
O202 C205 1.320 . S
O203 Cd200 2.333 . S
O203 C205 1.214 . S
O204 Cd200 2.352 . S
O204 C207 1.258 . S
C205 O202 1.320 . S
C205 O203 1.214 . S
O206 Cd198 2.277 . S
O206 C201 1.209 . S
C207 O204 1.258 . S
C207 O209 1.282 . S
O208 Cd200 2.277 . S
O208 C201 1.226 . S
O209 Cd200 2.356 . S
O209 C207 1.282 . S
C210 O211 1.306 . S
C210 O213 1.160 . S
O211 C210 1.306 . S
O211 Cd212 2.228 . S
Cd212 O211 2.228 . S
Cd212 O216 2.273 . S
Cd212 O220 2.277 1_655 S
O213 C210 1.160 . S
O213 Cd214 2.203 1_655 S
Cd214 O213 2.203 1_455 S
Cd214 O216 2.411 1_455 S
Cd214 O217 2.333 . S
Cd214 O218 2.352 1_455 S
Cd214 O222 2.277 . S
Cd214 O223 2.356 . S
C215 O220 1.209 . S
C215 O222 1.226 . S
O216 Cd212 2.273 . S
O216 Cd214 2.411 1_655 S
O216 C219 1.320 1_655 S
O217 Cd214 2.333 . S
O217 C219 1.214 . S
O218 Cd214 2.352 1_655 S
O218 C221 1.258 . S
C219 O216 1.320 1_455 S
C219 O217 1.214 . S
O220 Cd212 2.277 1_455 S
O220 C215 1.209 . S
C221 O218 1.258 . S
C221 O223 1.282 1_655 S
O222 Cd214 2.277 . S
O222 C215 1.226 . S
O223 Cd214 2.356 . S
O223 C221 1.282 1_455 S
H224 C230 0.930 . S
H225 C234 0.930 . S
H226 C239 0.929 . S
H227 C237 0.929 . S
H228 C232 0.929 . S
H229 C238 0.929 . S
C230 H224 0.930 . S
C230 C231 1.367 . S
C230 C238 1.378 . S
C231 C230 1.367 . S
C231 C239 1.433 . S
C232 H228 0.929 . S
C232 C234 1.378 . S
C232 C236 1.350 1_655 S
C233 C236 1.463 . S
C233 C238 1.350 . S
C233 N241 1.427 . S
C234 H225 0.930 . S
C234 C232 1.378 . S
C234 C235 1.367 . S
C235 C234 1.367 . S
C235 C237 1.433 1_655 S
C236 C232 1.350 1_455 S
C236 C233 1.463 . S
C236 N240 1.427 . S
C237 H227 0.929 . S
C237 C235 1.433 1_455 S
C237 N240 1.384 . S
C238 H229 0.929 . S
C238 C230 1.378 . S
C238 C233 1.350 . S
C239 H226 0.929 . S
C239 C231 1.433 . S
C239 N241 1.384 . S
N240 C236 1.427 . S
N240 C237 1.384 . S
N241 C233 1.427 . S
N241 C239 1.384 . S
H242 C248 0.930 . S
H243 C252 0.930 . S
H244 C257 0.929 . S
H245 C255 0.929 . S
H246 C250 0.929 . S
H247 C256 0.929 . S
C248 H242 0.930 . S
C248 C249 1.367 . S
C248 C256 1.378 . S
C249 C248 1.367 . S
C249 C257 1.433 . S
C250 H246 0.929 . S
C250 C252 1.378 . S
C250 C254 1.350 . S
C251 C254 1.463 1_655 S
C251 C256 1.350 . S
C251 N259 1.427 . S
C252 H243 0.930 . S
C252 C250 1.378 . S
C252 C253 1.367 . S
C253 C252 1.367 . S
C253 C255 1.433 . S
C254 C250 1.350 . S
C254 C251 1.463 1_455 S
C254 N258 1.427 . S
C255 H245 0.929 . S
C255 C253 1.433 . S
C255 N258 1.384 . S
C256 H247 0.929 . S
C256 C248 1.378 . S
C256 C251 1.350 . S
C257 H244 0.929 . S
C257 C249 1.433 . S
C257 N259 1.384 . S
N258 C254 1.427 . S
N258 C255 1.384 . S
N259 C251 1.427 . S
N259 C257 1.384 . S
H260 C266 0.930 . S
H261 C270 0.930 . S
H262 C275 0.929 . S
H263 C273 0.929 . S
H264 C268 0.929 . S
H265 C274 0.929 . S
C266 H260 0.930 . S
C266 C267 1.367 . S
C266 C274 1.378 . S
C267 C266 1.367 . S
C267 C275 1.433 . S
C268 H264 0.929 . S
C268 C270 1.378 . S
C268 C272 1.350 . S
C269 C272 1.463 . S
C269 C274 1.350 . S
C269 N277 1.427 . S
C270 H261 0.930 . S
C270 C268 1.378 . S
C270 C271 1.367 . S
C271 C270 1.367 . S
C271 C273 1.433 . S
C272 C268 1.350 . S
C272 C269 1.463 . S
C272 N276 1.427 . S
C273 H263 0.929 . S
C273 C271 1.433 . S
C273 N276 1.384 . S
C274 H265 0.929 . S
C274 C266 1.378 . S
C274 C269 1.350 . S
C275 H262 0.929 . S
C275 C267 1.433 . S
C275 N277 1.384 . S
N276 C272 1.427 . S
N276 C273 1.384 . S
N277 C269 1.427 . S
N277 C275 1.384 . S
H278 C284 0.930 . S
H279 C288 0.930 . S
H280 C293 0.929 . S
H281 C291 0.929 . S
H282 C286 0.929 . S
H283 C292 0.929 . S
C284 H278 0.930 . S
C284 C285 1.367 . S
C284 C292 1.378 . S
C285 C284 1.367 . S
C285 C293 1.433 . S
C286 H282 0.929 . S
C286 C288 1.378 . S
C286 C290 1.350 . S
C287 C290 1.463 . S
C287 C292 1.350 . S
C287 N295 1.427 . S
C288 H279 0.930 . S
C288 C286 1.378 . S
C288 C289 1.367 . S
C289 C288 1.367 . S
C289 C291 1.433 . S
C290 C286 1.350 . S
C290 C287 1.463 . S
C290 N294 1.427 . S
C291 H281 0.929 . S
C291 C289 1.433 . S
C291 N294 1.384 . S
C292 H283 0.929 . S
C292 C284 1.378 . S
C292 C287 1.350 . S
C293 H280 0.929 . S
C293 C285 1.433 . S
C293 N295 1.384 . S
N294 C290 1.427 . S
N294 C291 1.384 . S
N295 C287 1.427 . S
N295 C293 1.384 . S
H296 C302 0.930 . S
H297 C306 0.930 . S
H298 C311 0.929 . S
H299 C309 0.929 . S
H300 C304 0.929 . S
H301 C310 0.929 . S
C302 H296 0.930 . S
C302 C303 1.367 . S
C302 C310 1.378 . S
C303 C302 1.367 . S
C303 C311 1.433 1_455 S
C304 H300 0.929 . S
C304 C306 1.378 . S
C304 C308 1.350 1_655 S
C305 C308 1.463 . S
C305 C310 1.350 . S
C305 N313 1.427 1_455 S
C306 H297 0.930 . S
C306 C304 1.378 . S
C306 C307 1.367 . S
C307 C306 1.367 . S
C307 C309 1.433 1_655 S
C308 C304 1.350 1_455 S
C308 C305 1.463 . S
C308 N312 1.427 . S
C309 H299 0.929 . S
C309 C307 1.433 1_455 S
C309 N312 1.384 . S
C310 H301 0.929 . S
C310 C302 1.378 . S
C310 C305 1.350 . S
C311 H298 0.929 . S
C311 C303 1.433 1_655 S
C311 N313 1.384 . S
N312 C308 1.427 . S
N312 C309 1.384 . S
N313 C305 1.427 1_655 S
N313 C311 1.384 . S
H314 C320 0.930 . S
H315 C324 0.930 . S
H316 C329 0.929 . S
H317 C327 0.929 . S
H318 C322 0.929 . S
H319 C328 0.929 . S
C320 H314 0.930 . S
C320 C321 1.367 . S
C320 C328 1.378 . S
C321 C320 1.367 . S
C321 C329 1.433 . S
C322 H318 0.929 . S
C322 C324 1.378 . S
C322 C326 1.350 . S
C323 C326 1.463 . S
C323 C328 1.350 . S
C323 N331 1.427 . S
C324 H315 0.930 . S
C324 C322 1.378 . S
C324 C325 1.367 . S
C325 C324 1.367 . S
C325 C327 1.433 . S
C326 C322 1.350 . S
C326 C323 1.463 . S
C326 N330 1.427 . S
C327 H317 0.929 . S
C327 C325 1.433 . S
C327 N330 1.384 . S
C328 H319 0.929 . S
C328 C320 1.378 . S
C328 C323 1.350 . S
C329 H316 0.929 . S
C329 C321 1.433 . S
C329 N331 1.384 . S
N330 C326 1.427 . S
N330 C327 1.384 . S
N331 C323 1.427 . S
N331 C329 1.384 . S
H332 C338 0.930 . S
H333 C342 0.930 . S
H334 C347 0.929 . S
H335 C345 0.929 . S
H336 C340 0.929 . S
H337 C346 0.929 . S
C338 H332 0.930 . S
C338 C339 1.367 . S
C338 C346 1.378 . S
C339 C338 1.367 . S
C339 C347 1.433 . S
C340 H336 0.929 . S
C340 C342 1.378 . S
C340 C344 1.350 . S
C341 C344 1.463 . S
C341 C346 1.350 . S
C341 N349 1.427 . S
C342 H333 0.930 . S
C342 C340 1.378 . S
C342 C343 1.367 . S
C343 C342 1.367 . S
C343 C345 1.433 . S
C344 C340 1.350 . S
C344 C341 1.463 . S
C344 N348 1.427 . S
C345 H335 0.929 . S
C345 C343 1.433 . S
C345 N348 1.384 . S
C346 H337 0.929 . S
C346 C338 1.378 . S
C346 C341 1.350 . S
C347 H334 0.929 . S
C347 C339 1.433 . S
C347 N349 1.384 . S
N348 C344 1.427 . S
N348 C345 1.384 . S
N349 C341 1.427 . S
N349 C347 1.384 . S
H350 C356 0.930 . S
H351 C360 0.930 . S
H352 C365 0.929 . S
H353 C363 0.929 . S
H354 C358 0.929 . S
H355 C364 0.929 . S
C356 H350 0.930 . S
C356 C357 1.367 . S
C356 C364 1.378 . S
C357 C356 1.367 . S
C357 C365 1.433 . S
C358 H354 0.929 . S
C358 C360 1.378 . S
C358 C362 1.350 . S
C359 C362 1.463 1_455 S
C359 C364 1.350 . S
C359 N367 1.427 . S
C360 H351 0.930 . S
C360 C358 1.378 . S
C360 C361 1.367 . S
C361 C360 1.367 . S
C361 C363 1.433 . S
C362 C358 1.350 . S
C362 C359 1.463 1_655 S
C362 N366 1.427 . S
C363 H353 0.929 . S
C363 C361 1.433 . S
C363 N366 1.384 . S
C364 H355 0.929 . S
C364 C356 1.378 . S
C364 C359 1.350 . S
C365 H352 0.929 . S
C365 C357 1.433 . S
C365 N367 1.384 . S
N366 C362 1.427 . S
N366 C363 1.384 . S
N367 C359 1.427 . S
N367 C365 1.384 . S
H368 C374 0.930 . S
H369 C378 0.930 . S
H370 C383 0.929 . S
H371 C381 0.929 . S
H372 C376 0.929 . S
H373 C382 0.929 . S
C374 H368 0.930 . S
C374 C375 1.367 1_455 S
C374 C382 1.378 . S
C375 C374 1.367 1_655 S
C375 C383 1.433 1_565 S
C376 H372 0.929 . S
C376 C378 1.378 . S
C376 C380 1.350 . S
C377 C380 1.463 1_565 S
C377 C382 1.350 1_655 S
C377 N385 1.427 1_565 S
C378 H369 0.930 . S
C378 C376 1.378 . S
C378 C379 1.367 . S
C379 C378 1.367 . S
C379 C381 1.433 1_645 S
C380 C376 1.350 . S
C380 C377 1.463 1_545 S
C380 N384 1.427 1_645 S
C381 H371 0.929 . S
C381 C379 1.433 1_465 S
C381 N384 1.384 . S
C382 H373 0.929 . S
C382 C374 1.378 . S
C382 C377 1.350 1_455 S
C383 H370 0.929 . S
C383 C375 1.433 1_545 S
C383 N385 1.384 . S
N384 C380 1.427 1_465 S
N384 C381 1.384 . S
N385 C377 1.427 1_545 S
N385 C383 1.384 . S
H386 C392 0.930 . S
H387 C396 0.930 . S
H388 C401 0.929 . S
H389 C399 0.929 . S
H390 C394 0.929 . S
H391 C400 0.929 . S
C392 H386 0.930 . S
C392 C393 1.367 . S
C392 C400 1.378 . S
C393 C392 1.367 . S
C393 C401 1.433 . S
C394 H390 0.929 . S
C394 C396 1.378 . S
C394 C398 1.350 . S
C395 C398 1.463 . S
C395 C400 1.350 . S
C395 N403 1.427 . S
C396 H387 0.930 . S
C396 C394 1.378 . S
C396 C397 1.367 . S
C397 C396 1.367 . S
C397 C399 1.433 . S
C398 C394 1.350 . S
C398 C395 1.463 . S
C398 N402 1.427 . S
C399 H389 0.929 . S
C399 C397 1.433 . S
C399 N402 1.384 . S
C400 H391 0.929 . S
C400 C392 1.378 . S
C400 C395 1.350 . S
C401 H388 0.929 . S
C401 C393 1.433 . S
C401 N403 1.384 . S
N402 C398 1.427 . S
N402 C399 1.384 . S
N403 C395 1.427 . S
N403 C401 1.384 . S
H404 C410 0.930 . S
H405 C414 0.930 . S
H406 C419 0.929 . S
H407 C417 0.929 . S
H408 C412 0.929 . S
H409 C418 0.929 . S
C410 H404 0.930 . S
C410 C411 1.367 1_545 S
C410 C418 1.378 . S
C411 C410 1.367 1_565 S
C411 C419 1.433 . S
C412 H408 0.929 . S
C412 C414 1.378 . S
C412 C416 1.350 1_565 S
C413 C416 1.463 1_564 S
C413 C418 1.350 1_565 S
C413 N421 1.427 . S
C414 H405 0.930 . S
C414 C412 1.378 . S
C414 C415 1.367 1_565 S
C415 C414 1.367 1_545 S
C415 C417 1.433 . S
C416 C412 1.350 1_545 S
C416 C413 1.463 1_546 S
C416 N420 1.427 . S
C417 H407 0.929 . S
C417 C415 1.433 . S
C417 N420 1.384 . S
C418 H409 0.929 . S
C418 C410 1.378 . S
C418 C413 1.350 1_545 S
C419 H406 0.929 . S
C419 C411 1.433 . S
C419 N421 1.384 . S
N420 C416 1.427 . S
N420 C417 1.384 . S
N421 C413 1.427 . S
N421 C419 1.384 . S
H422 C428 0.930 . S
H423 C432 0.930 . S
H424 C437 0.929 . S
H425 C435 0.929 . S
H426 C430 0.929 . S
H427 C436 0.929 . S
C428 H422 0.930 . S
C428 C429 1.367 . S
C428 C436 1.378 . S
C429 C428 1.367 . S
C429 C437 1.433 . S
C430 H426 0.929 . S
C430 C432 1.378 . S
C430 C434 1.350 . S
C431 C434 1.463 . S
C431 C436 1.350 . S
C431 N439 1.427 . S
C432 H423 0.930 . S
C432 C430 1.378 . S
C432 C433 1.367 . S
C433 C432 1.367 . S
C433 C435 1.433 . S
C434 C430 1.350 . S
C434 C431 1.463 . S
C434 N438 1.427 . S
C435 H425 0.929 . S
C435 C433 1.433 . S
C435 N438 1.384 . S
C436 H427 0.929 . S
C436 C428 1.378 . S
C436 C431 1.350 . S
C437 H424 0.929 . S
C437 C429 1.433 . S
C437 N439 1.384 . S
N438 C434 1.427 . S
N438 C435 1.384 . S
N439 C431 1.427 . S
N439 C437 1.384 . S
H440 C446 0.930 . S
H441 C450 0.930 . S
H442 C455 0.929 . S
H443 C453 0.929 . S
H444 C448 0.929 . S
H445 C454 0.929 . S
C446 H440 0.930 . S
C446 C447 1.367 . S
C446 C454 1.378 . S
C447 C446 1.367 . S
C447 C455 1.433 . S
C448 H444 0.929 . S
C448 C450 1.378 . S
C448 C452 1.350 . S
C449 C452 1.463 . S
C449 C454 1.350 . S
C449 N457 1.427 . S
C450 H441 0.930 . S
C450 C448 1.378 . S
C450 C451 1.367 . S
C451 C450 1.367 . S
C451 C453 1.433 . S
C452 C448 1.350 . S
C452 C449 1.463 . S
C452 N456 1.427 . S
C453 H443 0.929 . S
C453 C451 1.433 . S
C453 N456 1.384 . S
C454 H445 0.929 . S
C454 C446 1.378 . S
C454 C449 1.350 . S
C455 H442 0.929 . S
C455 C447 1.433 . S
C455 N457 1.384 . S
N456 C452 1.427 . S
N456 C453 1.384 . S
N457 C449 1.427 . S
N457 C455 1.384 . S
H458 C464 0.930 . S
H459 C468 0.930 . S
H460 C473 0.929 . S
H461 C471 0.929 . S
H462 C466 0.929 . S
H463 C472 0.929 . S
C464 H458 0.930 . S
C464 C465 1.367 . S
C464 C472 1.378 . S
C465 C464 1.367 . S
C465 C473 1.433 . S
C466 H462 0.929 . S
C466 C468 1.378 . S
C466 C470 1.350 . S
C467 C470 1.463 . S
C467 C472 1.350 . S
C467 N475 1.427 . S
C468 H459 0.930 . S
C468 C466 1.378 . S
C468 C469 1.367 . S
C469 C468 1.367 . S
C469 C471 1.433 . S
C470 C466 1.350 . S
C470 C467 1.463 . S
C470 N474 1.427 . S
C471 H461 0.929 . S
C471 C469 1.433 . S
C471 N474 1.384 . S
C472 H463 0.929 . S
C472 C464 1.378 . S
C472 C467 1.350 . S
C473 H460 0.929 . S
C473 C465 1.433 . S
C473 N475 1.384 . S
N474 C470 1.427 . S
N474 C471 1.384 . S
N475 C467 1.427 . S
N475 C473 1.384 . S
H476 C482 0.930 . S
H477 C486 0.930 . S
H478 C491 0.929 . S
H479 C489 0.929 . S
H480 C484 0.929 . S
H481 C490 0.929 . S
C482 H476 0.930 . S
C482 C483 1.367 . S
C482 C490 1.378 . S
C483 C482 1.367 . S
C483 C491 1.433 . S
C484 H480 0.929 . S
C484 C486 1.378 . S
C484 C488 1.350 . S
C485 C488 1.463 1_556 S
C485 C490 1.350 . S
C485 N493 1.427 . S
C486 H477 0.930 . S
C486 C484 1.378 . S
C486 C487 1.367 . S
C487 C486 1.367 . S
C487 C489 1.433 . S
C488 C484 1.350 . S
C488 C485 1.463 1_554 S
C488 N492 1.427 . S
C489 H479 0.929 . S
C489 C487 1.433 . S
C489 N492 1.384 . S
C490 H481 0.929 . S
C490 C482 1.378 . S
C490 C485 1.350 . S
C491 H478 0.929 . S
C491 C483 1.433 . S
C491 N493 1.384 . S
N492 C488 1.427 . S
N492 C489 1.384 . S
N493 C485 1.427 . S
N493 C491 1.384 . S
H494 C500 0.930 . S
H495 C504 0.930 . S
H496 C509 0.929 . S
H497 C507 0.929 . S
H498 C502 0.929 . S
H499 C508 0.929 . S
C500 H494 0.930 . S
C500 C501 1.367 . S
C500 C508 1.378 . S
C501 C500 1.367 . S
C501 C509 1.433 . S
C502 H498 0.929 . S
C502 C504 1.378 . S
C502 C506 1.350 . S
C503 C506 1.463 . S
C503 C508 1.350 . S
C503 N511 1.427 . S
C504 H495 0.930 . S
C504 C502 1.378 . S
C504 C505 1.367 . S
C505 C504 1.367 . S
C505 C507 1.433 . S
C506 C502 1.350 . S
C506 C503 1.463 . S
C506 N510 1.427 . S
C507 H497 0.929 . S
C507 C505 1.433 . S
C507 N510 1.384 . S
C508 H499 0.929 . S
C508 C500 1.378 . S
C508 C503 1.350 . S
C509 H496 0.929 . S
C509 C501 1.433 . S
C509 N511 1.384 . S
N510 C506 1.427 . S
N510 C507 1.384 . S
N511 C503 1.427 . S
N511 C509 1.384 . S
H512 C518 0.930 . S
H513 C522 0.930 1_545 S
H514 C527 0.929 . S
H515 C525 0.929 . S
H516 C520 0.929 . S
H517 C526 0.929 . S
C518 H512 0.930 . S
C518 C519 1.367 . S
C518 C526 1.378 . S
C519 C518 1.367 . S
C519 C527 1.433 . S
C520 H516 0.929 . S
C520 C522 1.378 . S
C520 C524 1.350 . S
C521 C524 1.463 . S
C521 C526 1.350 . S
C521 N529 1.427 . S
C522 H513 0.930 1_565 S
C522 C520 1.378 . S
C522 C523 1.367 . S
C523 C522 1.367 . S
C523 C525 1.433 . S
C524 C520 1.350 . S
C524 C521 1.463 . S
C524 N528 1.427 . S
C525 H515 0.929 . S
C525 C523 1.433 . S
C525 N528 1.384 . S
C526 H517 0.929 . S
C526 C518 1.378 . S
C526 C521 1.350 . S
C527 H514 0.929 . S
C527 C519 1.433 . S
C527 N529 1.384 . S
N528 C524 1.427 . S
N528 C525 1.384 . S
N529 C521 1.427 . S
N529 C527 1.384 . S
H530 C536 0.930 . S
H531 C540 0.954 . S
H532 C545 0.929 . S
H533 C543 0.929 . S
H534 C538 0.929 . S
H535 C544 0.929 . S
C536 H530 0.930 . S
C536 C537 1.367 . S
C536 C544 1.378 . S
C537 C536 1.367 . S
C537 C545 1.433 . S
C538 H534 0.929 . S
C538 C540 1.378 . S
C538 C542 1.350 . S
C539 C542 1.463 . S
C539 C544 1.350 . S
C539 N547 1.427 . S
C540 H531 0.954 . S
C540 C538 1.378 . S
C540 C541 1.367 . S
C541 C540 1.367 . S
C541 C543 1.433 . S
C542 C538 1.350 . S
C542 C539 1.463 . S
C542 N546 1.427 . S
C543 H533 0.929 . S
C543 C541 1.433 . S
C543 N546 1.384 . S
C544 H535 0.929 . S
C544 C536 1.378 . S
C544 C539 1.350 . S
C545 H532 0.929 . S
C545 C537 1.433 . S
C545 N547 1.384 . S
N546 C542 1.427 . S
N546 C543 1.384 . S
N547 C539 1.427 . S
N547 C545 1.384 . S
H548 C554 0.930 . S
H549 C558 0.930 . S
H550 C563 0.929 . S
H551 C561 0.929 . S
H552 C556 0.929 . S
H553 C562 0.929 . S
C554 H548 0.930 . S
C554 C555 1.367 . S
C554 C562 1.378 . S
C555 C554 1.367 . S
C555 C563 1.433 . S
C556 H552 0.929 . S
C556 C558 1.378 . S
C556 C560 1.350 . S
C557 C560 1.463 . S
C557 C562 1.350 . S
C557 N565 1.427 . S
C558 H549 0.930 . S
C558 C556 1.378 . S
C558 C559 1.367 . S
C559 C558 1.367 . S
C559 C561 1.433 . S
C560 C556 1.350 . S
C560 C557 1.463 . S
C560 N564 1.427 . S
C561 H551 0.929 . S
C561 C559 1.433 . S
C561 N564 1.384 . S
C562 H553 0.929 . S
C562 C554 1.378 . S
C562 C557 1.350 . S
C563 H550 0.929 . S
C563 C555 1.433 . S
C563 N565 1.384 . S
N564 C560 1.427 . S
N564 C561 1.384 . S
N565 C557 1.427 . S
N565 C563 1.384 . S
H566 C572 0.930 . S
H567 C576 0.930 . S
H568 C581 0.929 . S
H569 C579 0.929 . S
H570 C574 0.929 . S
H571 C580 0.929 . S
C572 H566 0.930 . S
C572 C573 1.367 . S
C572 C580 1.378 . S
C573 C572 1.367 . S
C573 C581 1.433 . S
C574 H570 0.929 . S
C574 C576 1.378 . S
C574 C578 1.350 . S
C575 C578 1.463 . S
C575 C580 1.350 . S
C575 N583 1.427 . S
C576 H567 0.930 . S
C576 C574 1.378 . S
C576 C577 1.367 . S
C577 C576 1.367 . S
C577 C579 1.433 . S
C578 C574 1.350 . S
C578 C575 1.463 . S
C578 N582 1.427 . S
C579 H569 0.929 . S
C579 C577 1.433 . S
C579 N582 1.384 . S
C580 H571 0.929 . S
C580 C572 1.378 . S
C580 C575 1.350 . S
C581 H568 0.929 . S
C581 C573 1.433 . S
C581 N583 1.384 . S
N582 C578 1.427 . S
N582 C579 1.384 . S
N583 C575 1.427 . S
N583 C581 1.384 . S
H584 C590 0.930 . S
H585 C594 0.930 . S
H586 C599 0.929 . S
H587 C597 0.929 . S
H588 C592 0.929 . S
H589 C598 0.929 . S
C590 H584 0.930 . S
C590 C591 1.367 . S
C590 C598 1.378 . S
C591 C590 1.367 . S
C591 C599 1.433 . S
C592 H588 0.929 . S
C592 C594 1.378 . S
C592 C596 1.350 . S
C593 C596 1.463 . S
C593 C598 1.350 . S
C593 N601 1.427 . S
C594 H585 0.930 . S
C594 C592 1.378 . S
C594 C595 1.367 . S
C595 C594 1.367 . S
C595 C597 1.433 . S
C596 C592 1.350 . S
C596 C593 1.463 . S
C596 N600 1.427 . S
C597 H587 0.929 . S
C597 C595 1.433 . S
C597 N600 1.384 . S
C598 H589 0.929 . S
C598 C590 1.378 . S
C598 C593 1.350 . S
C599 H586 0.929 . S
C599 C591 1.433 . S
C599 N601 1.384 . S
N600 C596 1.427 . S
N600 C597 1.384 . S
N601 C593 1.427 . S
N601 C599 1.384 . S
H602 C608 0.930 . S
H603 C612 0.930 . S
H604 C617 0.945 . S
H605 C615 0.929 . S
H606 C610 0.929 . S
H607 C616 0.929 . S
C608 H602 0.930 . S
C608 C609 1.367 . S
C608 C616 1.378 . S
C609 C608 1.367 . S
C609 C617 1.433 . S
C610 H606 0.929 . S
C610 C612 1.378 . S
C610 C614 1.350 . S
C611 C614 1.463 . S
C611 C616 1.350 . S
C611 N619 1.427 . S
C612 H603 0.930 . S
C612 C610 1.378 . S
C612 C613 1.367 . S
C613 C612 1.367 . S
C613 C615 1.433 . S
C614 C610 1.350 . S
C614 C611 1.463 . S
C614 N618 1.427 . S
C615 H605 0.929 . S
C615 C613 1.433 . S
C615 N618 1.384 . S
C616 H607 0.929 . S
C616 C608 1.378 . S
C616 C611 1.350 . S
C617 H604 0.945 . S
C617 C609 1.433 . S
C617 N619 1.384 . S
N618 C614 1.427 . S
N618 C615 1.384 . S
N619 C611 1.427 . S
N619 C617 1.384 . S
H620 C626 0.930 . S
H621 C630 0.930 . S
H622 C635 0.929 . S
H623 C633 0.929 . S
H624 C628 0.929 . S
H625 C634 0.929 . S
C626 H620 0.930 . S
C626 C627 1.367 . S
C626 C634 1.378 . S
C627 C626 1.367 . S
C627 C635 1.433 . S
C628 H624 0.929 . S
C628 C630 1.378 . S
C628 C632 1.350 . S
C629 C632 1.463 . S
C629 C634 1.350 . S
C629 N637 1.427 . S
C630 H621 0.930 . S
C630 C628 1.378 . S
C630 C631 1.367 . S
C631 C630 1.367 . S
C631 C633 1.433 . S
C632 C628 1.350 . S
C632 C629 1.463 . S
C632 N636 1.427 . S
C633 H623 0.929 . S
C633 C631 1.433 . S
C633 N636 1.384 . S
C634 H625 0.929 . S
C634 C626 1.378 . S
C634 C629 1.350 . S
C635 H622 0.929 . S
C635 C627 1.433 . S
C635 N637 1.384 . S
N636 C632 1.427 . S
N636 C633 1.384 . S
N637 C629 1.427 . S
N637 C635 1.384 . S
H638 C644 0.930 . S
H639 C648 0.930 . S
H640 C653 0.929 . S
H641 C651 0.929 . S
H642 C646 0.929 . S
H643 C652 0.929 . S
C644 H638 0.930 . S
C644 C645 1.367 . S
C644 C652 1.378 . S
C645 C644 1.367 . S
C645 C653 1.433 . S
C646 H642 0.929 . S
C646 C648 1.378 . S
C646 C650 1.350 . S
C647 C650 1.463 . S
C647 C652 1.350 . S
C647 N655 1.427 . S
C648 H639 0.930 . S
C648 C646 1.378 . S
C648 C649 1.367 . S
C649 C648 1.367 . S
C649 C651 1.433 . S
C650 C646 1.350 . S
C650 C647 1.463 . S
C650 N654 1.427 . S
C651 H641 0.929 . S
C651 C649 1.433 . S
C651 N654 1.384 . S
C652 H643 0.929 . S
C652 C644 1.378 . S
C652 C647 1.350 . S
C653 H640 0.929 . S
C653 C645 1.433 . S
C653 N655 1.384 . S
N654 C650 1.427 . S
N654 C651 1.384 . S
N655 C647 1.427 . S
N655 C653 1.384 . S
H656 C662 0.930 . S
H657 C666 0.930 . S
H658 C671 0.929 . S
H659 C669 0.929 . S
H660 C664 0.929 . S
H661 C670 0.929 . S
C662 H656 0.930 . S
C662 C663 1.367 . S
C662 C670 1.378 . S
C663 C662 1.367 . S
C663 C671 1.433 . S
C664 H660 0.929 . S
C664 C666 1.378 . S
C664 C668 1.350 . S
C665 C668 1.463 . S
C665 C670 1.350 . S
C665 N673 1.427 . S
C666 H657 0.930 . S
C666 C664 1.378 . S
C666 C667 1.367 . S
C667 C666 1.367 . S
C667 C669 1.433 . S
C668 C664 1.350 . S
C668 C665 1.463 . S
C668 N672 1.427 . S
C669 H659 0.929 . S
C669 C667 1.433 . S
C669 N672 1.384 . S
C670 H661 0.929 . S
C670 C662 1.378 . S
C670 C665 1.350 . S
C671 H658 0.929 . S
C671 C663 1.433 . S
C671 N673 1.384 . S
N672 C668 1.427 . S
N672 C669 1.384 . S
N673 C665 1.427 . S
N673 C671 1.384 . S
H674 C680 0.930 . S
H675 C684 0.930 . S
H676 C689 0.929 . S
H677 C687 0.929 . S
H678 C682 0.929 . S
H679 C688 0.929 . S
C680 H674 0.930 . S
C680 C681 1.367 . S
C680 C688 1.378 . S
C681 C680 1.367 . S
C681 C689 1.433 . S
C682 H678 0.929 . S
C682 C684 1.378 . S
C682 C686 1.350 . S
C683 C686 1.463 . S
C683 C688 1.350 . S
C683 N691 1.427 . S
C684 H675 0.930 . S
C684 C682 1.378 . S
C684 C685 1.367 . S
C685 C684 1.367 . S
C685 C687 1.433 . S
C686 C682 1.350 . S
C686 C683 1.463 . S
C686 N690 1.427 . S
C687 H677 0.929 . S
C687 C685 1.433 . S
C687 N690 1.384 . S
C688 H679 0.929 . S
C688 C680 1.378 . S
C688 C683 1.350 . S
C689 H676 0.929 . S
C689 C681 1.433 . S
C689 N691 1.384 . S
N690 C686 1.427 . S
N690 C687 1.384 . S
N691 C683 1.427 . S
N691 C689 1.384 . S
H692 C698 0.930 . S
H693 C702 0.930 . S
H694 C707 0.929 . S
H695 C705 0.929 . S
H696 C700 0.929 . S
H697 C706 0.929 . S
C698 H692 0.930 . S
C698 C699 1.367 . S
C698 C706 1.378 . S
C699 C698 1.367 . S
C699 C707 1.433 . S
C700 H696 0.929 . S
C700 C702 1.378 . S
C700 C704 1.350 . S
C701 C704 1.463 . S
C701 C706 1.350 . S
C701 N709 1.427 . S
C702 H693 0.930 . S
C702 C700 1.378 . S
C702 C703 1.367 . S
C703 C702 1.367 . S
C703 C705 1.433 . S
C704 C700 1.350 . S
C704 C701 1.463 . S
C704 N708 1.427 . S
C705 H695 0.929 . S
C705 C703 1.433 . S
C705 N708 1.384 . S
C706 H697 0.929 . S
C706 C698 1.378 . S
C706 C701 1.350 . S
C707 H694 0.929 . S
C707 C699 1.433 . S
C707 N709 1.384 . S
N708 C704 1.427 . S
N708 C705 1.384 . S
N709 C701 1.427 . S
N709 C707 1.384 . S
H710 C716 0.930 . S
H711 C720 0.930 . S
H712 C725 0.929 . S
H713 C723 0.929 . S
H714 C718 0.929 . S
H715 C724 0.929 . S
C716 H710 0.930 . S
C716 C717 1.367 . S
C716 C724 1.378 . S
C717 C716 1.367 . S
C717 C725 1.433 . S
C718 H714 0.929 . S
C718 C720 1.378 . S
C718 C722 1.350 . S
C719 C722 1.463 . S
C719 C724 1.350 . S
C719 N727 1.427 . S
C720 H711 0.930 . S
C720 C718 1.378 . S
C720 C721 1.367 . S
C721 C720 1.367 . S
C721 C723 1.433 . S
C722 C718 1.350 . S
C722 C719 1.463 . S
C722 N726 1.427 . S
C723 H713 0.929 . S
C723 C721 1.433 . S
C723 N726 1.384 . S
C724 H715 0.929 . S
C724 C716 1.378 . S
C724 C719 1.350 . S
C725 H712 0.929 . S
C725 C717 1.433 . S
C725 N727 1.384 . S
N726 C722 1.427 . S
N726 C723 1.384 . S
N727 C719 1.427 . S
N727 C725 1.384 . S
H728 C734 0.930 . S
H729 C738 0.930 . S
H730 C743 0.929 . S
H731 C741 0.929 . S
H732 C736 0.929 . S
H733 C742 0.929 . S
C734 H728 0.930 . S
C734 C735 1.367 . S
C734 C742 1.378 . S
C735 C734 1.367 . S
C735 C743 1.433 . S
C736 H732 0.929 . S
C736 C738 1.378 . S
C736 C740 1.350 . S
C737 C740 1.463 . S
C737 C742 1.350 . S
C737 N745 1.427 . S
C738 H729 0.930 . S
C738 C736 1.378 . S
C738 C739 1.367 . S
C739 C738 1.367 . S
C739 C741 1.433 . S
C740 C736 1.350 . S
C740 C737 1.463 . S
C740 N744 1.427 . S
C741 H731 0.929 . S
C741 C739 1.433 . S
C741 N744 1.384 . S
C742 H733 0.929 . S
C742 C734 1.378 . S
C742 C737 1.350 . S
C743 H730 0.929 . S
C743 C735 1.433 . S
C743 N745 1.384 . S
N744 C740 1.427 . S
N744 C741 1.384 . S
N745 C737 1.427 . S
N745 C743 1.384 . S
H746 C752 0.930 . S
H747 C756 0.930 . S
H748 C761 0.929 . S
H749 C759 0.929 . S
H750 C754 0.929 . S
H751 C760 0.929 . S
C752 H746 0.930 . S
C752 C753 1.367 . S
C752 C760 1.378 . S
C753 C752 1.367 . S
C753 C761 1.433 . S
C754 H750 0.929 . S
C754 C756 1.378 . S
C754 C758 1.350 . S
C755 C758 1.463 . S
C755 C760 1.350 . S
C755 N763 1.427 . S
C756 H747 0.930 . S
C756 C754 1.378 . S
C756 C757 1.367 . S
C757 C756 1.367 . S
C757 C759 1.433 . S
C758 C754 1.350 . S
C758 C755 1.463 . S
C758 N762 1.427 . S
C759 H749 0.929 . S
C759 C757 1.433 . S
C759 N762 1.384 . S
C760 H751 0.929 . S
C760 C752 1.378 . S
C760 C755 1.350 . S
C761 H748 0.929 . S
C761 C753 1.433 . S
C761 N763 1.384 . S
N762 C758 1.427 . S
N762 C759 1.384 . S
N763 C755 1.427 . S
N763 C761 1.384 . S
H764 C770 0.930 . S
H765 C774 0.930 . S
H766 C779 0.929 . S
H767 C777 0.929 . S
H768 C772 0.929 . S
H769 C778 0.929 . S
C770 H764 0.930 . S
C770 C771 1.367 . S
C770 C778 1.378 . S
C771 C770 1.367 . S
C771 C779 1.433 . S
C772 H768 0.929 . S
C772 C774 1.378 . S
C772 C776 1.350 . S
C773 C776 1.463 . S
C773 C778 1.350 . S
C773 N781 1.427 . S
C774 H765 0.930 . S
C774 C772 1.378 . S
C774 C775 1.367 . S
C775 C774 1.367 . S
C775 C777 1.433 . S
C776 C772 1.350 . S
C776 C773 1.463 . S
C776 N780 1.427 . S
C777 H767 0.929 . S
C777 C775 1.433 . S
C777 N780 1.384 . S
C778 H769 0.929 . S
C778 C770 1.378 . S
C778 C773 1.350 . S
C779 H766 0.929 . S
C779 C771 1.433 . S
C779 N781 1.384 . S
N780 C776 1.427 . S
N780 C777 1.384 . S
N781 C773 1.427 . S
N781 C779 1.384 . S
H782 C788 0.930 . S
H783 C792 0.930 . S
H784 C797 0.929 . S
H785 C795 0.929 . S
H786 C790 0.929 . S
H787 C796 0.929 . S
C788 H782 0.930 . S
C788 C789 1.367 . S
C788 C796 1.378 . S
C789 C788 1.367 . S
C789 C797 1.433 . S
C790 H786 0.929 . S
C790 C792 1.378 . S
C790 C794 1.350 . S
C791 C794 1.463 . S
C791 C796 1.350 . S
C791 N799 1.427 . S
C792 H783 0.930 . S
C792 C790 1.378 . S
C792 C793 1.367 . S
C793 C792 1.367 . S
C793 C795 1.433 . S
C794 C790 1.350 . S
C794 C791 1.463 . S
C794 N798 1.427 . S
C795 H785 0.929 . S
C795 C793 1.433 . S
C795 N798 1.384 . S
C796 H787 0.929 . S
C796 C788 1.378 . S
C796 C791 1.350 . S
C797 H784 0.929 . S
C797 C789 1.433 . S
C797 N799 1.384 . S
N798 C794 1.427 . S
N798 C795 1.384 . S
N799 C791 1.427 . S
N799 C797 1.384 . S
C231 C11 1.249 . S
C235 C193 1.245 . S
C249 C165 1.247 . S
C253 C25 1.250 . S
C267 C179 1.252 . S
C271 C39 1.252 . S
C285 C151 1.244 . S
C289 C53 1.248 . S
C303 C67 1.252 . S
C307 C221 1.250 . S
C321 C81 1.247 . S
C325 C137 1.250 . S
C339 C207 1.250 . S
C343 C95 1.247 . S
C357 C109 1.241 . S
C361 C123 1.244 . S
C375 C65 1.641 . S
C379 C9 1.642 . S
C393 C23 1.641 . S
C397 C79 1.642 . S
C411 C37 1.643 . S
C415 C93 1.642 . S
C429 C107 1.642 . S
C433 C51 1.643 . S
C447 C121 1.642 . S
C451 C149 1.643 . S
C465 C135 1.643 . S
C469 C163 1.641 . S
C483 C205 1.641 . S
C487 C177 1.642 . S
C501 C191 1.641 . S
C505 C219 1.642 . S
C519 C70 1.411 . S
C523 C0 1.422 . S
C537 C14 1.418 . S
C541 C84 1.423 . S
C555 C28 1.422 . S
C559 C98 1.421 . S
C573 C56 1.419 . S
C577 C42 1.422 . S
C591 C61 1.233 . S
C595 C145 1.238 . S
C609 C33 1.235 . S
C613 C117 1.239 . S
C627 C159 1.237 . S
C631 C89 1.239 . S
C645 C131 1.232 . S
C649 C5 1.232 . S
C663 C112 1.420 . S
C667 C168 1.409 . S
C681 C140 1.423 . S
C685 C210 1.412 . S
C699 C182 1.408 . S
C703 C126 1.414 . S
C717 C154 1.421 . S
C721 C196 1.409 . S
C735 C201 1.234 . S
C739 C19 1.238 . S
C753 C187 1.236 . S
C757 C75 1.232 . S
C771 C215 1.238 . S
C775 C47 1.234 . S
C789 C173 1.232 . S
C793 C103 1.236 . S
