# Generated by pormake.
# Topology wmi, (6)-cn, num edge types: 1
# Building blocks:
#     Node 0, Type 0, BuildingBlock: PAMTOO_clean_sbu_0, # of connection points: 6
#     Node 1, Type 0, BuildingBlock: PAMTOO_clean_sbu_0, # of connection points: 6
#     Node 2, Type 0, BuildingBlock: PAMTOO_clean_sbu_0, # of connection points: 6
#     Node 3, Type 0, BuildingBlock: PAMTOO_clean_sbu_0, # of connection points: 6
#     Node 4, Type 0, BuildingBlock: PAMTOO_clean_sbu_0, # of connection points: 6
#     Node 5, Type 0, BuildingBlock: PAMTOO_clean_sbu_0, # of connection points: 6
#     Node 6, Type 0, BuildingBlock: PAMTOO_clean_sbu_0, # of connection points: 6
#     Node 7, Type 0, BuildingBlock: PAMTOO_clean_sbu_0, # of connection points: 6
#     Node 8, Type 0, BuildingBlock: PAMTOO_clean_sbu_0, # of connection points: 6
#     Node 9, Type 0, BuildingBlock: PAMTOO_clean_sbu_0, # of connection points: 6
#     Node 10, Type 0, BuildingBlock: PAMTOO_clean_sbu_0, # of connection points: 6
#     Node 11, Type 0, BuildingBlock: PAMTOO_clean_sbu_0, # of connection points: 6
#     Node 12, Type 0, BuildingBlock: PAMTOO_clean_sbu_0, # of connection points: 6
#     Node 13, Type 0, BuildingBlock: PAMTOO_clean_sbu_0, # of connection points: 6
#     Node 14, Type 0, BuildingBlock: PAMTOO_clean_sbu_0, # of connection points: 6
#     Node 15, Type 0, BuildingBlock: PAMTOO_clean_sbu_0, # of connection points: 6
#     Node 16, Type 0, BuildingBlock: PAMTOO_clean_sbu_0, # of connection points: 6
#     Node 17, Type 0, BuildingBlock: PAMTOO_clean_sbu_0, # of connection points: 6
#     Edge 18, Type (0, 0), BuildingBlock: MIFKUJ_clean_linker_0, # of connection points: 2
#     Edge 19, Type (0, 0), BuildingBlock: MIFKUJ_clean_linker_0, # of connection points: 2
#     Edge 20, Type (0, 0), BuildingBlock: MIFKUJ_clean_linker_0, # of connection points: 2
#     Edge 21, Type (0, 0), BuildingBlock: MIFKUJ_clean_linker_0, # of connection points: 2
#     Edge 22, Type (0, 0), BuildingBlock: MIFKUJ_clean_linker_0, # of connection points: 2
#     Edge 23, Type (0, 0), BuildingBlock: MIFKUJ_clean_linker_0, # of connection points: 2
#     Edge 24, Type (0, 0), BuildingBlock: MIFKUJ_clean_linker_0, # of connection points: 2
#     Edge 25, Type (0, 0), BuildingBlock: MIFKUJ_clean_linker_0, # of connection points: 2
#     Edge 26, Type (0, 0), BuildingBlock: MIFKUJ_clean_linker_0, # of connection points: 2
#     Edge 27, Type (0, 0), BuildingBlock: MIFKUJ_clean_linker_0, # of connection points: 2
#     Edge 28, Type (0, 0), BuildingBlock: MIFKUJ_clean_linker_0, # of connection points: 2
#     Edge 29, Type (0, 0), BuildingBlock: MIFKUJ_clean_linker_0, # of connection points: 2
#     Edge 30, Type (0, 0), BuildingBlock: MIFKUJ_clean_linker_0, # of connection points: 2
#     Edge 31, Type (0, 0), BuildingBlock: MIFKUJ_clean_linker_0, # of connection points: 2
#     Edge 32, Type (0, 0), BuildingBlock: MIFKUJ_clean_linker_0, # of connection points: 2
#     Edge 33, Type (0, 0), BuildingBlock: MIFKUJ_clean_linker_0, # of connection points: 2
#     Edge 34, Type (0, 0), BuildingBlock: MIFKUJ_clean_linker_0, # of connection points: 2
#     Edge 35, Type (0, 0), BuildingBlock: MIFKUJ_clean_linker_0, # of connection points: 2
#     Edge 36, Type (0, 0), BuildingBlock: MIFKUJ_clean_linker_0, # of connection points: 2
#     Edge 37, Type (0, 0), BuildingBlock: MIFKUJ_clean_linker_0, # of connection points: 2
#     Edge 38, Type (0, 0), BuildingBlock: MIFKUJ_clean_linker_0, # of connection points: 2
#     Edge 39, Type (0, 0), BuildingBlock: MIFKUJ_clean_linker_0, # of connection points: 2
#     Edge 40, Type (0, 0), BuildingBlock: MIFKUJ_clean_linker_0, # of connection points: 2
#     Edge 41, Type (0, 0), BuildingBlock: MIFKUJ_clean_linker_0, # of connection points: 2
#     Edge 42, Type (0, 0), BuildingBlock: MIFKUJ_clean_linker_0, # of connection points: 2
#     Edge 43, Type (0, 0), BuildingBlock: MIFKUJ_clean_linker_0, # of connection points: 2
#     Edge 44, Type (0, 0), BuildingBlock: MIFKUJ_clean_linker_0, # of connection points: 2
#     Edge 45, Type (0, 0), BuildingBlock: MIFKUJ_clean_linker_0, # of connection points: 2
#     Edge 46, Type (0, 0), BuildingBlock: MIFKUJ_clean_linker_0, # of connection points: 2
#     Edge 47, Type (0, 0), BuildingBlock: MIFKUJ_clean_linker_0, # of connection points: 2
#     Edge 48, Type (0, 0), BuildingBlock: MIFKUJ_clean_linker_0, # of connection points: 2
#     Edge 49, Type (0, 0), BuildingBlock: MIFKUJ_clean_linker_0, # of connection points: 2
#     Edge 50, Type (0, 0), BuildingBlock: MIFKUJ_clean_linker_0, # of connection points: 2
#     Edge 51, Type (0, 0), BuildingBlock: MIFKUJ_clean_linker_0, # of connection points: 2
#     Edge 52, Type (0, 0), BuildingBlock: MIFKUJ_clean_linker_0, # of connection points: 2
#     Edge 53, Type (0, 0), BuildingBlock: MIFKUJ_clean_linker_0, # of connection points: 2
#     Edge 54, Type (0, 0), BuildingBlock: MIFKUJ_clean_linker_0, # of connection points: 2
#     Edge 55, Type (0, 0), BuildingBlock: MIFKUJ_clean_linker_0, # of connection points: 2
#     Edge 56, Type (0, 0), BuildingBlock: MIFKUJ_clean_linker_0, # of connection points: 2
#     Edge 57, Type (0, 0), BuildingBlock: MIFKUJ_clean_linker_0, # of connection points: 2
#     Edge 58, Type (0, 0), BuildingBlock: MIFKUJ_clean_linker_0, # of connection points: 2
#     Edge 59, Type (0, 0), BuildingBlock: MIFKUJ_clean_linker_0, # of connection points: 2
#     Edge 60, Type (0, 0), BuildingBlock: MIFKUJ_clean_linker_0, # of connection points: 2
#     Edge 61, Type (0, 0), BuildingBlock: MIFKUJ_clean_linker_0, # of connection points: 2
#     Edge 62, Type (0, 0), BuildingBlock: MIFKUJ_clean_linker_0, # of connection points: 2
#     Edge 63, Type (0, 0), BuildingBlock: MIFKUJ_clean_linker_0, # of connection points: 2
#     Edge 64, Type (0, 0), BuildingBlock: MIFKUJ_clean_linker_0, # of connection points: 2
#     Edge 65, Type (0, 0), BuildingBlock: MIFKUJ_clean_linker_0, # of connection points: 2
#     Edge 66, Type (0, 0), BuildingBlock: MIFKUJ_clean_linker_0, # of connection points: 2
#     Edge 67, Type (0, 0), BuildingBlock: MIFKUJ_clean_linker_0, # of connection points: 2
#     Edge 68, Type (0, 0), BuildingBlock: MIFKUJ_clean_linker_0, # of connection points: 2
#     Edge 69, Type (0, 0), BuildingBlock: MIFKUJ_clean_linker_0, # of connection points: 2
#     Edge 70, Type (0, 0), BuildingBlock: MIFKUJ_clean_linker_0, # of connection points: 2
#     Edge 71, Type (0, 0), BuildingBlock: MIFKUJ_clean_linker_0, # of connection points: 2
# Relax obj value: 0.077
# Max RMSD: 0.194
# Mean RMSD: 0.194
data_MOF--net-wmi--node1-PAMTOO_clean_sbu_0--edge1-MIFKUJ_clean_linker_0
_symmetry_space_group_name_H-M    P1
_symmetry_Int_Tables_number       1
_symmetry_cell_setting            triclinic
loop_
_symmetry_equiv_pos_as_xyz
'x, y, z'
_cell_length_a     49.623579
_cell_length_b     49.593319
_cell_length_c     106.73675
_cell_angle_alpha  90.19449
_cell_angle_beta   89.741456
_cell_angle_gamma 119.95658
loop_
_atom_site_label
_atom_site_type_symbol
_atom_site_fract_x
_atom_site_fract_y
_atom_site_fract_z
_atom_type_partial_charge
Dy0 Dy 0.44644 1.0015 0.09209 0.0
Dy1 Dy 0.52182 0.04355 0.09936 0.0
C2 C 0.46734 0.02217 0.11913 0.0
O3 O 0.4571 0.05039 0.08785 0.0
O4 O 0.50695 0.07858 0.096 0.0
O5 O 0.40053 0.9744 0.09996 0.0
O6 O 0.40642 0.9773 0.07982 0.0
O7 O 0.52082 0.04692 0.07832 0.0
O8 O 0.47143 0.00579 0.07424 0.0
O9 O 0.51405 0.99667 0.09467 0.0
O10 O 0.46157 0.96761 0.09824 0.0
O11 O 0.56914 0.05223 0.09873 0.0
O12 O 0.55756 0.08033 0.11066 0.0
C13 C 0.482 0.07702 0.09097 0.0
O14 O 0.45316 0.02693 0.10992 0.0
O15 O 0.49238 0.02033 0.11666 0.0
C16 C 0.36658 0.9296 0.08842 0.0
C17 C 0.324 0.86466 0.08908 0.0
C18 C 0.3538 0.87712 0.09442 0.0
C19 C 0.37483 0.90921 0.09409 0.0
C20 C 0.33734 0.91725 0.08276 0.0
C21 C 0.3163 0.88516 0.08306 0.0
C22 C 0.38729 0.96373 0.08915 0.0
C23 C 0.4992 0.02741 0.07052 0.0
C24 C 0.48884 0.96978 0.09644 0.0
C25 C 0.61009 0.10332 0.10331 0.0
C26 C 0.66958 0.15547 0.09814 0.0
C27 C 0.64214 0.15522 0.09449 0.0
C28 C 0.61268 0.12938 0.09703 0.0
C29 C 0.63732 0.10348 0.10691 0.0
C30 C 0.66664 0.12916 0.10438 0.0
C31 C 0.57965 0.07575 0.10641 0.0
H32 H 0.36053 0.86225 0.09926 0.0
H33 H 0.39724 0.91821 0.09858 0.0
H34 H 0.3305 0.93253 0.07832 0.0
H35 H 0.29385 0.87645 0.07864 0.0
H36 H 0.6434 0.17486 0.08956 0.0
H37 H 0.59199 0.12976 0.09412 0.0
H38 H 0.63591 0.08371 0.11181 0.0
H39 H 0.68704 0.12856 0.10754 0.0
Dy40 Dy 0.04743 0.4738 0.09366 0.0
Dy41 Dy 1.00367 0.50293 0.10364 0.0
C42 C 0.02824 0.46925 0.12162 0.0
O43 O 0.99867 0.43657 0.08836 0.0
O44 O 0.97045 0.45256 0.10051 0.0
O45 O 0.07531 0.45375 0.09911 0.0
O46 O 0.0716 0.46216 0.07948 0.0
O47 O 0.99854 0.49777 0.08266 0.0
O48 O 0.04671 0.50413 0.0785 0.0
O49 O 0.05058 0.54382 0.10023 0.0
O50 O 0.08055 0.52075 0.10191 0.0
O51 O 0.99287 0.53999 0.1034 0.0
O52 O 0.96665 0.50028 0.11551 0.0
C53 C 0.97213 0.43187 0.09329 0.0
O54 O 0.02495 0.45232 0.11174 0.0
O55 O 0.02709 0.49508 0.12036 0.0
C56 C 0.11992 0.46901 0.08676 0.0
C57 C 0.18502 0.49274 0.08719 0.0
C58 C 0.17183 0.50868 0.09327 0.0
C59 C 0.13965 0.49691 0.09306 0.0
C60 C 0.13298 0.45363 0.08029 0.0
C61 C 0.16519 0.46538 0.08048 0.0
C62 C 0.08577 0.45451 0.08782 0.0
C63 C 0.02183 0.50478 0.07492 0.0
C64 C 0.07777 0.54578 0.1015 0.0
C65 C 0.94036 0.52639 0.10781 0.0
C66 C 0.88769 0.53315 0.10309 0.0
C67 C 0.91067 0.54068 0.09383 0.0
C68 C 0.93664 0.53729 0.09615 0.0
C69 C 0.91715 0.5183 0.11696 0.0
C70 C 0.89112 0.52152 0.11463 0.0
C71 C 0.9693 0.52597 0.11103 0.0
H72 H 0.18619 0.52958 0.09864 0.0
H73 H 0.13003 0.50901 0.09821 0.0
H74 H 0.11819 0.43207 0.07537 0.0
H75 H 0.17452 0.45276 0.07551 0.0
H76 H 0.90864 0.5493 0.08478 0.0
H77 H 0.95407 0.54379 0.08887 0.0
H78 H 0.91954 0.51018 0.12608 0.0
H79 H 0.87416 0.51583 0.12205 0.0
Dy80 Dy 0.57537 0.60183 0.09439 0.0
Dy81 Dy 0.54165 0.52755 0.10255 0.0
C82 C 0.57259 0.58253 0.12206 0.0
O83 O 0.61185 0.58864 0.08975 0.0
O84 O 0.59222 0.54349 0.10139 0.0
O85 O 0.59526 0.6487 0.10141 0.0
O86 O 0.59281 0.64049 0.08137 0.0
O87 O 0.55 0.5301 0.08168 0.0
O88 O 0.54722 0.57419 0.07808 0.0
O89 O 0.5027 0.53612 0.09856 0.0
O90 O 0.5273 0.58915 0.10106 0.0
O91 O 0.5041 0.4802 0.1006 0.0
O92 O 0.54016 0.49109 0.11428 0.0
C93 C 0.61475 0.56593 0.09485 0.0
O94 O 0.59217 0.5965 0.11293 0.0
O95 O 0.54625 0.55688 0.11967 0.0
C96 C 0.58728 0.68298 0.08895 0.0
C97 C 0.56448 0.72523 0.08837 0.0
C98 C 0.59231 0.73282 0.09464 0.0
C99 C 0.60357 0.71202 0.09488 0.0
C100 C 0.55944 0.67507 0.08268 0.0
C101 C 0.54823 0.69605 0.08235 0.0
C102 C 0.59882 0.66084 0.09029 0.0
C103 C 0.54536 0.54828 0.07409 0.0
C104 C 0.50175 0.5619 0.1 0.0
C105 C 0.515 0.43953 0.10538 0.0
C106 C 0.50872 0.38005 0.10083 0.0
C107 C 0.49112 0.3901 0.09403 0.0
C108 C 0.49414 0.41934 0.09629 0.0
C109 C 0.53298 0.42974 0.11206 0.0
C110 C 0.52999 0.40047 0.10977 0.0
C111 C 0.51557 0.46906 0.10871 0.0
H112 H 0.60519 0.75464 0.09964 0.0
H113 H 0.62483 0.71841 0.09993 0.0
H114 H 0.54621 0.65261 0.07816 0.0
H115 H 0.5269 0.68943 0.07732 0.0
H116 H 0.47483 0.3753 0.08695 0.0
H117 H 0.47962 0.42584 0.09106 0.0
H118 H 0.54889 0.44441 0.11927 0.0
H119 H 0.54368 0.39347 0.11531 0.0
Dy120 Dy 1.00261 0.44204 0.92177 0.0
Dy121 Dy 0.04795 0.51448 0.91255 0.0
C122 C 0.0094 0.45824 0.89352 0.0
O123 O 0.0499 0.44778 0.91706 0.0
O124 O 0.07936 0.49996 0.92117 0.0
O125 O 0.98178 0.393 0.91742 0.0
O126 O 0.97088 0.40771 0.93492 0.0
O127 O 0.0412 0.51661 0.93344 0.0
O128 O 0.02813 0.46665 0.93891 0.0
O129 O 0.99932 0.50465 0.90962 0.0
O130 O 0.97528 0.46656 0.92445 0.0
O131 O 0.05895 0.56241 0.91153 0.0
O132 O 0.08788 0.54782 0.90172 0.0
C133 C 0.07706 0.47269 0.91947 0.0
O134 O 0.98894 0.44627 0.90251 0.0
O135 O 0.03728 0.48191 0.89591 0.0
C136 C 0.92954 0.36338 0.92489 0.0
C137 C 0.86513 0.32248 0.92065 0.0
C138 C 0.88762 0.32333 0.91231 0.0
C139 C 0.91939 0.34345 0.91442 0.0
C140 C 0.90706 0.36259 0.93321 0.0
C141 C 0.8753 0.34248 0.93109 0.0
C142 C 0.96333 0.38462 0.92716 0.0
C143 C 0.03608 0.49532 0.94199 0.0
C144 C 0.97579 0.4882 0.91719 0.0
C145 C 0.11206 0.60117 0.90797 0.0
C146 C 0.16362 0.66142 0.91241 0.0
C147 C 0.14102 0.64581 0.92179 0.0
C148 C 0.11553 0.61599 0.9196 0.0
C149 C 0.13482 0.61648 0.89871 0.0
C150 C 0.16026 0.64616 0.90088 0.0
C151 C 0.08399 0.57114 0.90482 0.0
H152 H 0.88068 0.30851 0.9041 0.0
H153 H 0.93602 0.34334 0.90784 0.0
H154 H 0.91396 0.37738 0.94143 0.0
H155 H 0.85873 0.34213 0.93782 0.0
H156 H 0.14301 0.65664 0.93082 0.0
H157 H 0.09834 0.60478 0.92694 0.0
H158 H 0.13253 0.60574 0.88962 0.0
H159 H 0.17683 0.65752 0.89336 0.0
Dy160 Dy 0.60616 0.57506 0.92043 0.0
Dy161 Dy 0.53351 0.54678 0.91081 0.0
C162 C 0.59104 0.56555 0.89208 0.0
O163 O 0.59954 0.61588 0.91559 0.0
O164 O 0.54715 0.59272 0.91934 0.0
O165 O 0.65529 0.60389 0.91625 0.0
O166 O 0.64031 0.57921 0.9339 0.0
O167 O 0.53071 0.53855 0.93176 0.0
O168 O 0.58061 0.57534 0.93742 0.0
O169 O 0.54441 0.5085 0.90815 0.0
O170 O 0.58248 0.52328 0.92302 0.0
O171 O 0.48575 0.50948 0.90965 0.0
O172 O 0.50022 0.55251 0.89964 0.0
C173 C 0.57434 0.61781 0.91779 0.0
O174 O 0.603 0.55733 0.90113 0.0
O175 O 0.56676 0.56897 0.89434 0.0
C176 C 0.68636 0.58466 0.9248 0.0
C177 C 0.73055 0.56476 0.92223 0.0
C178 C 0.69858 0.54292 0.92314 0.0
C179 C 0.67669 0.55277 0.92435 0.0
C180 C 0.71815 0.60648 0.92379 0.0
C181 C 0.74002 0.59666 0.9225 0.0
C182 C 0.66373 0.59553 0.92641 0.0
C183 C 0.55188 0.55466 0.94036 0.0
C184 C 0.56099 0.50185 0.91578 0.0
C185 C 0.44628 0.52195 0.90491 0.0
C186 C 0.38502 0.51123 0.90882 0.0
C187 C 0.40583 0.51883 0.91894 0.0
C188 C 0.43615 0.52403 0.91701 0.0
C189 C 0.42587 0.51511 0.89482 0.0
C190 C 0.39568 0.50981 0.89673 0.0
C191 C 0.47713 0.52504 0.90248 0.0
H192 H 0.69047 0.5182 0.92282 0.0
H193 H 0.65222 0.53547 0.92499 0.0
H194 H 0.7261 0.63117 0.92411 0.0
H195 H 0.76445 0.61409 0.92195 0.0
H196 H 0.39844 0.51998 0.92839 0.0
H197 H 0.45146 0.52918 0.92496 0.0
H198 H 0.43317 0.51342 0.8854 0.0
H199 H 0.38065 0.50463 0.88868 0.0
Dy200 Dy 0.47238 0.04404 0.91612 0.0
Dy201 Dy 0.50635 1.00308 0.90794 0.0
C202 C 0.47378 0.02563 0.88868 0.0
O203 O 0.43547 0.99486 0.92073 0.0
O204 O 0.45613 0.96804 0.91045 0.0
O205 O 0.44983 0.06847 0.90915 0.0
O206 O 0.4584 0.0689 0.92902 0.0
O207 O 0.50089 0.99787 0.92893 0.0
O208 O 0.4937 0.03942 0.93362 0.0
O209 O 0.54531 0.05031 0.9121 0.0
O210 O 0.5209 0.07894 0.90972 0.0
O211 O 0.54328 0.99218 0.9092 0.0
O212 O 0.50742 0.96938 0.89518 0.0
C213 C 0.43328 0.96873 0.9165 0.0
O214 O 0.45451 0.02037 0.89789 0.0
O215 O 0.50064 0.02752 0.89107 0.0
C216 C 0.4628 0.11511 0.92017 0.0
C217 C 0.4834 0.17968 0.9203 0.0
C218 C 0.48622 0.16517 0.90944 0.0
C219 C 0.47633 0.13336 0.9094 0.0
C220 C 0.46037 0.1297 0.93108 0.0
C221 C 0.4708 0.16171 0.93118 0.0
C222 C 0.45019 0.08091 0.91997 0.0
C223 C 0.49914 0.01715 0.93701 0.0
C224 C 0.54634 0.07702 0.91069 0.0
C225 C 0.53332 0.94249 0.90216 0.0
C226 C 0.54138 0.89025 0.9057 0.0
C227 C 0.52969 0.90087 0.91544 0.0
C228 C 0.52578 0.92679 0.9137 0.0
C229 C 0.54416 0.93147 0.89236 0.0
C230 C 0.54815 0.90571 0.89409 0.0
C231 C 0.53229 0.97151 0.90026 0.0
H232 H 0.49617 0.17849 0.90096 0.0
H233 H 0.47893 0.12304 0.90085 0.0
H234 H 0.45003 0.11626 0.9395 0.0
H235 H 0.46821 0.17226 0.93967 0.0
H236 H 0.52441 0.88971 0.92453 0.0
H237 H 0.51748 0.93494 0.92142 0.0
H238 H 0.55014 0.94321 0.88338 0.0
H239 H 0.55663 0.89794 0.8863 0.0
Dy240 Dy 0.11906 0.33591 0.4287 0.0
Dy241 Dy 0.19389 0.37642 0.4358 0.0
C242 C 0.14005 0.35627 0.45569 0.0
O243 O 0.13174 0.3849 0.4234 0.0
O244 O 0.17965 0.41215 0.43312 0.0
O245 O 0.07271 0.31147 0.43632 0.0
O246 O 0.0794 0.31224 0.41624 0.0
O247 O 0.19183 0.37986 0.41476 0.0
O248 O 0.1442 0.33607 0.41146 0.0
O249 O 0.18484 0.32857 0.43222 0.0
O250 O 0.13221 0.30103 0.43572 0.0
O251 O 0.24132 0.38624 0.43392 0.0
O252 O 0.22977 0.41067 0.44787 0.0
C253 C 0.15598 0.41126 0.42721 0.0
O254 O 0.12637 0.36172 0.44647 0.0
O255 O 0.16468 0.35377 0.45319 0.0
C256 C 0.03797 0.26573 0.42514 0.0
C257 C 0.99402 0.20122 0.42462 0.0
C258 C 0.01017 0.21553 0.43569 0.0
C259 C 0.03189 0.24733 0.43595 0.0
C260 C 0.02211 0.2514 0.41403 0.0
C261 C 1.00048 0.21944 0.41375 0.0
C262 C 0.05982 0.29983 0.42554 0.0
C263 C 0.17082 0.35866 0.40725 0.0
C264 C 0.15924 0.30227 0.43442 0.0
C265 C 0.28191 0.43709 0.43965 0.0
C266 C 0.34212 0.49001 0.43665 0.0
C267 C 0.33372 0.46211 0.43021 0.0
C268 C 0.30409 0.43601 0.43172 0.0
C269 C 0.29004 0.46515 0.44589 0.0
C270 C 0.3197 0.4913 0.44437 0.0
C271 C 0.25199 0.40818 0.44237 0.0
H272 H 1.00604 0.20208 0.44417 0.0
H273 H 0.04368 0.25747 0.44469 0.0
H274 H 0.02617 0.265 0.40559 0.0
H275 H 0.98824 0.20914 0.40511 0.0
H276 H 0.35016 0.46032 0.42405 0.0
H277 H 0.29883 0.4147 0.42688 0.0
H278 H 0.27377 0.46673 0.45223 0.0
H279 H 0.32539 0.51221 0.44961 0.0
Dy280 Dy 0.72026 0.80672 0.42496 0.0
Dy281 Dy 0.67821 0.8372 0.43529 0.0
C282 C 0.71751 0.8182 0.45352 0.0
O283 O 0.67327 0.76663 0.43068 0.0
O284 O 0.6444 0.79056 0.42783 0.0
O285 O 0.73944 0.77667 0.42847 0.0
O286 O 0.74983 0.8026 0.41111 0.0
O287 O 0.68406 0.84498 0.41426 0.0
O288 O 0.69096 0.80396 0.40885 0.0
O289 O 0.72776 0.87418 0.43762 0.0
O290 O 0.7484 0.85839 0.4219 0.0
O291 O 0.66808 0.87489 0.43581 0.0
O292 O 0.64088 0.8338 0.44711 0.0
C293 C 0.64616 0.76524 0.42929 0.0
O294 O 0.73654 0.82459 0.44409 0.0
O295 O 0.69018 0.81607 0.45181 0.0
C296 C 0.78986 0.79609 0.41999 0.0
C297 C 0.85365 0.81553 0.42304 0.0
C298 C 0.84356 0.83748 0.42267 0.0
C299 C 0.81196 0.82785 0.42123 0.0
C300 C 0.79978 0.77415 0.42043 0.0
C301 C 0.83133 0.78373 0.42197 0.0
C302 C 0.7565 0.78556 0.41834 0.0
C303 C 0.68498 0.82601 0.40576 0.0
C304 C 0.74995 0.88016 0.42946 0.0
C305 C 0.6167 0.86328 0.44139 0.0
C306 C 0.565 0.87238 0.43782 0.0
C307 C 0.57719 0.86311 0.42777 0.0
C308 C 0.60284 0.8587 0.42953 0.0
C309 C 0.60423 0.87189 0.45143 0.0
C310 C 0.57879 0.87639 0.44969 0.0
C311 C 0.64483 0.8607 0.4436 0.0
H312 H 0.86007 0.8621 0.42362 0.0
H313 H 0.8048 0.84522 0.42106 0.0
H314 H 0.78311 0.74954 0.41956 0.0
H315 H 0.8383 0.76624 0.42212 0.0
H316 H 0.56738 0.85997 0.41848 0.0
H317 H 0.61208 0.85212 0.42162 0.0
H318 H 0.61446 0.87551 0.46067 0.0
H319 H 0.56983 0.88292 0.4577 0.0
Dy320 Dy 0.24793 0.93596 0.42545 0.0
Dy321 Dy 0.21959 0.8632 0.43467 0.0
C322 C 0.23607 0.91934 0.45368 0.0
O323 O 0.28886 0.9296 0.43051 0.0
O324 O 0.266 0.87741 0.42639 0.0
O325 O 0.27688 0.9848 0.42986 0.0
O326 O 0.25115 0.97081 0.41245 0.0
O327 O 0.21138 0.86172 0.41377 0.0
O328 O 0.24997 0.91106 0.4085 0.0
O329 O 0.18106 0.87363 0.43731 0.0
O330 O 0.19621 0.91205 0.42255 0.0
O331 O 0.18145 0.81568 0.43596 0.0
O332 O 0.22561 0.8287 0.4447 0.0
C333 C 0.29101 0.90454 0.42818 0.0
O334 O 0.22873 0.93169 0.44451 0.0
O335 O 0.24008 0.89538 0.45151 0.0
C336 C 0.25609 0.01552 0.42249 0.0
C337 C 0.23353 0.05721 0.42664 0.0
C338 C 0.21881 0.02753 0.43224 0.0
C339 C 0.23 0.00691 0.43019 0.0
C340 C 0.27081 0.04498 0.41689 0.0
C341 C 0.25968 0.06562 0.41894 0.0
C342 C 0.26775 0.99381 0.42007 0.0
C343 C 0.22898 0.88261 0.40531 0.0
C344 C 0.1746 0.89043 0.42972 0.0
C345 C 0.19411 0.77556 0.4383 0.0
C346 C 0.1862 0.71602 0.43257 0.0
C347 C 0.21372 0.74348 0.42916 0.0
C348 C 0.21762 0.77294 0.43198 0.0
C349 C 0.16661 0.74831 0.44157 0.0
C350 C 0.16267 0.71896 0.43876 0.0
C351 C 0.19775 0.80604 0.44205 0.0
H352 H 0.19886 0.02038 0.43832 0.0
H353 H 0.21829 0.98421 0.4346 0.0
H354 H 0.29087 0.05201 0.41088 0.0
H355 H 0.27137 0.08806 0.41433 0.0
H356 H 0.23221 0.74222 0.42427 0.0
H357 H 0.23906 0.7936 0.42931 0.0
H358 H 0.14822 0.74971 0.44651 0.0
H359 H 0.1414 0.69853 0.44172 0.0
Dy360 Dy 0.67045 0.78084 0.24985 0.0
Dy361 Dy 0.70994 0.85636 0.24313 0.0
C362 C 0.68669 0.80321 0.22277 0.0
O363 O 0.72003 0.79413 0.25428 0.0
O364 O 0.74562 0.84167 0.24414 0.0
O365 O 0.64458 0.73493 0.24184 0.0
O366 O 0.6487 0.74032 0.26199 0.0
O367 O 0.71472 0.85309 0.26401 0.0
O368 O 0.67083 0.80553 0.26732 0.0
O369 O 0.66224 0.8466 0.24753 0.0
O370 O 0.63484 0.79392 0.24396 0.0
O371 O 0.72067 0.90392 0.24595 0.0
O372 O 0.74224 0.89275 0.23065 0.0
C373 C 0.74574 0.81828 0.24991 0.0
O374 O 0.69367 0.78913 0.23134 0.0
O375 O 0.68451 0.82765 0.22602 0.0
C376 C 0.6007 0.69913 0.25365 0.0
C377 C 0.53577 0.65653 0.25497 0.0
C378 C 0.55226 0.66093 0.24371 0.0
C379 C 0.58426 0.68179 0.24308 0.0
C380 C 0.58432 0.69467 0.26496 0.0
C381 C 0.55223 0.67358 0.26561 0.0
C382 C 0.63474 0.72129 0.25266 0.0
C383 C 0.69359 0.83203 0.27157 0.0
C384 C 0.63596 0.82083 0.24554 0.0
C385 C 0.76889 0.94497 0.23838 0.0
C386 C 0.82209 1.00459 0.24192 0.0
C387 C 0.81908 0.97828 0.24826 0.0
C388 C 0.79266 0.94874 0.24653 0.0
C389 C 0.77201 0.97099 0.23195 0.0
C390 C 0.79822 1.00039 0.23368 0.0
C391 C 0.74013 0.91469 0.23657 0.0
H392 H 0.5405 0.64781 0.23539 0.0
H393 H 0.59619 0.68431 0.23426 0.0
H394 H 0.59622 0.70747 0.27331 0.0
H395 H 0.54024 0.67088 0.27442 0.0
H396 H 0.83685 0.98061 0.25474 0.0
H397 H 0.79066 0.92896 0.25163 0.0
H398 H 0.75397 0.9686 0.22559 0.0
H399 H 0.79986 0.01983 0.22845 0.0
Dy400 Dy 0.27158 0.91167 0.25216 0.0
Dy401 Dy 0.19915 0.88317 0.24309 0.0
C402 C 0.25553 0.90095 0.2239 0.0
O403 O 0.26521 0.95254 0.24698 0.0
O404 O 0.21327 0.92939 0.25152 0.0
O405 O 0.32067 0.93983 0.24784 0.0
O406 O 0.30574 0.91598 0.26567 0.0
O407 O 0.19782 0.87431 0.26397 0.0
O408 O 0.24656 0.91397 0.26899 0.0
O409 O 0.2095 0.84459 0.2402 0.0
O410 O 0.24785 0.85982 0.25496 0.0
O411 O 0.1511 0.84636 0.24253 0.0
O412 O 0.16549 0.88913 0.23233 0.0
C413 C 0.24018 0.95452 0.24953 0.0
O414 O 0.26801 0.89338 0.23295 0.0
O415 O 0.23127 0.90434 0.22624 0.0
C416 C 0.35061 0.91871 0.25617 0.0
C417 C 0.39216 0.89561 0.25258 0.0
C418 C 0.39578 0.9215 0.24577 0.0
C419 C 0.37534 0.93295 0.24758 0.0
C420 C 0.34692 0.8928 0.26298 0.0
C421 C 0.36743 0.88143 0.26121 0.0
C422 C 0.32897 0.93099 0.25792 0.0
C423 C 0.2186 0.89226 0.27236 0.0
C424 C 0.22637 0.83817 0.24777 0.0
C425 C 0.11274 0.86158 0.23943 0.0
C426 C 0.05345 0.85499 0.24453 0.0
C427 C 0.06773 0.84476 0.25321 0.0
C428 C 0.09701 0.848 0.2507 0.0
C429 C 0.09886 0.87243 0.2309 0.0
C430 C 0.06967 0.86923 0.23341 0.0
C431 C 0.14216 0.86245 0.23585 0.0
H432 H 0.41427 0.93281 0.23893 0.0
H433 H 0.37882 0.95294 0.2422 0.0
H434 H 0.32822 0.88127 0.26972 0.0
H435 H 0.36415 0.86179 0.26676 0.0
H436 H 0.05623 0.8341 0.26195 0.0
H437 H 0.10704 0.83939 0.25749 0.0
H438 H 0.11028 0.88272 0.2221 0.0
H439 H 0.0594 0.87704 0.22639 0.0
Dy440 Dy 0.14084 0.3827 0.25491 0.0
Dy441 Dy 0.17135 0.34116 0.24386 0.0
C442 C 0.15057 0.37998 0.22618 0.0
O443 O 0.10052 0.33536 0.24953 0.0
O444 O 0.12511 0.30682 0.25154 0.0
O445 O 0.1106 0.40193 0.25191 0.0
O446 O 0.13739 0.41216 0.26901 0.0
O447 O 0.17977 0.34634 0.26483 0.0
O448 O 0.13926 0.35348 0.27087 0.0
O449 O 0.20824 0.3909 0.2416 0.0
O450 O 0.19264 0.4112 0.25753 0.0
O451 O 0.20891 0.3309 0.24298 0.0
O452 O 0.16788 0.3045 0.23161 0.0
C453 C 0.09954 0.30831 0.25053 0.0
O454 O 0.15753 0.39899 0.23565 0.0
O455 O 0.14913 0.3529 0.22771 0.0
C456 C 0.1303 0.45236 0.26054 0.0
C457 C 0.14912 0.51619 0.25767 0.0
C458 C 0.11737 0.49342 0.25819 0.0
C459 C 0.1081 0.46188 0.25964 0.0
C460 C 0.16204 0.47494 0.2599 0.0
C461 C 0.17134 0.50653 0.25854 0.0
C462 C 0.12001 0.41892 0.26205 0.0
C463 C 0.16135 0.34729 0.27359 0.0
C464 C 0.21429 0.41298 0.24983 0.0
C465 C 0.19669 0.27948 0.23708 0.0
C466 C 0.20469 0.22696 0.24021 0.0
C467 C 0.19768 0.24027 0.25054 0.0
C468 C 0.1938 0.26631 0.249 0.0
C469 C 0.20304 0.26592 0.22677 0.0
C470 C 0.20699 0.24005 0.22829 0.0
C471 C 0.19461 0.30799 0.23507 0.0
H472 H 0.09963 0.50001 0.25768 0.0
H473 H 0.08351 0.44488 0.26009 0.0
H474 H 0.17966 0.46817 0.26043 0.0
H475 H 0.19595 0.52336 0.25801 0.0
H476 H 0.19592 0.23103 0.25988 0.0
H477 H 0.18895 0.27638 0.25712 0.0
H478 H 0.20531 0.2756 0.21748 0.0
H479 H 0.21174 0.23023 0.22007 0.0
Dy480 Dy 0.78631 0.66855 0.7592 0.0
Dy481 Dy 0.85981 0.71031 0.76829 0.0
C482 C 0.80295 0.68664 0.78703 0.0
O483 O 0.79938 0.71763 0.75385 0.0
O484 O 0.84359 0.74448 0.76596 0.0
O485 O 0.73834 0.64519 0.76497 0.0
O486 O 0.74972 0.64294 0.74556 0.0
O487 O 0.85938 0.71563 0.74729 0.0
O488 O 0.81566 0.66877 0.74332 0.0
O489 O 0.85184 0.66273 0.76476 0.0
O490 O 0.79884 0.63424 0.7672 0.0
O491 O 0.90806 0.72277 0.76671 0.0
O492 O 0.89386 0.74367 0.78127 0.0
C493 C 0.82155 0.74369 0.75889 0.0
O494 O 0.78919 0.69103 0.77753 0.0
O495 O 0.829 0.68629 0.78514 0.0
C496 C 0.70597 0.59794 0.75425 0.0
C497 C 0.66087 0.53378 0.75476 0.0
C498 C 0.67764 0.54893 0.7656 0.0
C499 C 0.7 0.58056 0.76535 0.0
C500 C 0.68961 0.58271 0.74335 0.0
C501 C 0.66741 0.5509 0.74358 0.0
C502 C 0.72799 0.63199 0.75413 0.0
C503 C 0.84169 0.6929 0.73953 0.0
C504 C 0.8262 0.63603 0.76642 0.0
C505 C 0.94659 0.77274 0.77416 0.0
C506 C 1.00624 0.82648 0.77134 0.0
C507 C 0.98648 0.81313 0.76093 0.0
C508 C 0.95699 0.7865 0.76232 0.0
C509 C 0.96585 0.7865 0.78457 0.0
C510 C 0.99525 0.813 0.7832 0.0
C511 C 0.9171 0.7429 0.77586 0.0
H512 H 0.67347 0.53629 0.77432 0.0
H513 H 0.71228 0.59142 0.77392 0.0
H514 H 0.69366 0.59554 0.73469 0.0
H515 H 0.65474 0.5399 0.73509 0.0
H516 H 0.99415 0.82267 0.75164 0.0
H517 H 0.94264 0.77632 0.75411 0.0
H518 H 0.95838 0.77632 0.7938 0.0
H519 H 0.00944 0.82287 0.79147 0.0
Dy520 Dy 0.38784 0.13964 0.75798 0.0
Dy521 Dy 0.34358 0.16808 0.76744 0.0
C522 C 0.38175 0.14967 0.78627 0.0
O523 O 0.34047 0.09895 0.76299 0.0
O524 O 0.31194 0.1224 0.75859 0.0
O525 O 0.40689 0.10983 0.76206 0.0
O526 O 0.41994 0.13691 0.74497 0.0
O527 O 0.35153 0.17757 0.74665 0.0
O528 O 0.36141 0.13847 0.74104 0.0
O529 O 0.39247 0.2064 0.77032 0.0
O530 O 0.41563 0.19143 0.75532 0.0
O531 O 0.33274 0.20517 0.76862 0.0
O532 O 0.30325 0.16142 0.77803 0.0
C533 C 0.31363 0.09719 0.76044 0.0
O534 O 0.40205 0.15771 0.77723 0.0
O535 O 0.35405 0.14605 0.784 0.0
C536 C 0.45865 0.13048 0.75497 0.0
C537 C 0.52247 0.15203 0.75937 0.0
C538 C 0.50726 0.16604 0.76541 0.0
C539 C 0.47566 0.15536 0.76323 0.0
C540 C 0.47361 0.11639 0.74895 0.0
C541 C 0.50517 0.12703 0.75112 0.0
C542 C 0.42556 0.11946 0.75239 0.0
C543 C 0.3545 0.15998 0.73806 0.0
C544 C 0.4157 0.2129 0.76263 0.0
C545 C 0.27901 0.19024 0.7713 0.0
C546 C 0.22707 0.19821 0.76639 0.0
C547 C 0.25378 0.21236 0.75871 0.0
C548 C 0.27942 0.20847 0.76114 0.0
C549 C 0.2521 0.17552 0.77878 0.0
C550 C 0.22648 0.17937 0.77636 0.0
C551 C 0.30708 0.18856 0.77494 0.0
H552 H 0.51967 0.18503 0.77194 0.0
H553 H 0.4645 0.16654 0.76799 0.0
H554 H 0.46092 0.09726 0.7425 0.0
H555 H 0.51613 0.11593 0.74617 0.0
H556 H 0.25498 0.2266 0.75083 0.0
H557 H 0.29975 0.22023 0.75517 0.0
H558 H 0.25116 0.1616 0.78676 0.0
H559 H 0.20659 0.16836 0.78259 0.0
Dy560 Dy 0.9155 0.26909 0.76155 0.0
Dy561 Dy 0.8823 0.1941 0.76864 0.0
C562 C 0.91536 0.24782 0.78859 0.0
O563 O 0.95327 0.25785 0.75675 0.0
O564 O 0.93242 0.20923 0.76597 0.0
O565 O 0.93444 0.3153 0.76914 0.0
O566 O 0.93133 0.3087 0.74903 0.0
O567 O 0.88925 0.19654 0.74773 0.0
O568 O 0.89164 0.24349 0.74424 0.0
O569 O 0.84328 0.20232 0.76452 0.0
O570 O 0.86715 0.25456 0.76862 0.0
O571 O 0.84446 0.14681 0.76705 0.0
O572 O 0.88173 0.15776 0.78013 0.0
C573 C 0.95545 0.23349 0.76038 0.0
O574 O 0.93422 0.26263 0.77937 0.0
O575 O 0.88852 0.22283 0.78613 0.0
C576 C 0.92277 0.34839 0.7574 0.0
C577 C 0.89924 0.39007 0.75718 0.0
C578 C 0.88428 0.36229 0.76416 0.0
C579 C 0.89585 0.34166 0.76423 0.0
C580 C 0.93734 0.37561 0.75019 0.0
C581 C 0.92568 0.39618 0.75004 0.0
C582 C 0.93667 0.32809 0.75825 0.0
C583 C 0.88859 0.21712 0.74012 0.0
C584 C 0.84181 0.22745 0.76691 0.0
C585 C 0.85594 0.10631 0.77136 0.0
C586 C 0.84944 0.047 0.76641 0.0
C587 C 0.83538 0.0592 0.75859 0.0
C588 C 0.83856 0.08844 0.76103 0.0
C589 C 0.87037 0.09433 0.77907 0.0
C590 C 0.86728 0.06514 0.7766 0.0
C591 C 0.85663 0.13574 0.77486 0.0
H592 H 0.86413 0.35683 0.76989 0.0
H593 H 0.88414 0.32078 0.76988 0.0
H594 H 0.95805 0.38121 0.7448 0.0
H595 H 0.93751 0.41695 0.74435 0.0
H596 H 0.82177 0.04608 0.75058 0.0
H597 H 0.82686 0.09673 0.75493 0.0
H598 H 0.88347 0.10722 0.78721 0.0
H599 H 0.87808 0.05637 0.78294 0.0
Dy600 Dy 0.33803 0.11443 0.5827 0.0
Dy601 Dy 0.38012 0.18978 0.57601 0.0
C602 C 0.35865 0.13645 0.55583 0.0
O603 O 0.38689 0.12499 0.58717 0.0
O604 O 0.41508 0.17453 0.57873 0.0
O605 O 0.31069 0.0689 0.57455 0.0
O606 O 0.31379 0.07385 0.59473 0.0
O607 O 0.38397 0.18712 0.59696 0.0
O608 O 0.34047 0.13912 0.60041 0.0
O609 O 0.33321 0.18192 0.58075 0.0
O610 O 0.30441 0.12986 0.57639 0.0
O611 O 0.3893 0.23717 0.57746 0.0
O612 O 0.41631 0.22607 0.56465 0.0
C613 C 0.41358 0.14969 0.58387 0.0
O614 O 0.36374 0.1221 0.56488 0.0
O615 O 0.35674 0.16132 0.55856 0.0
C616 C 0.26576 0.03488 0.58606 0.0
C617 C 0.20059 0.99314 0.58562 0.0
C618 C 0.21355 0.02277 0.58003 0.0
C619 C 0.24571 0.04341 0.58029 0.0
C620 C 0.25299 0.00577 0.5919 0.0
C621 C 0.2208 0.98519 0.59174 0.0
C622 C 0.29995 0.05521 0.58529 0.0
C623 C 0.36316 0.16584 0.60453 0.0
C624 C 0.30643 0.157 0.57848 0.0
C625 C 0.44008 0.27807 0.57257 0.0
C626 C 0.49247 0.33692 0.57815 0.0
C627 C 0.49124 0.30915 0.58204 0.0
C628 C 0.46524 0.27998 0.5793 0.0
C629 C 0.44127 0.30562 0.56868 0.0
C630 C 0.46708 0.33464 0.57141 0.0
C631 C 0.4122 0.248 0.56945 0.0
H632 H 0.19902 0.02973 0.57508 0.0
H633 H 0.25502 0.0657 0.57565 0.0
H634 H 0.268 0.9987 0.59641 0.0
H635 H 0.21181 0.96294 0.59637 0.0
H636 H 0.51018 0.30995 0.58733 0.0
H637 H 0.46476 0.259 0.58245 0.0
H638 H 0.42216 0.30468 0.56345 0.0
H639 H 0.46731 0.35534 0.56806 0.0
Dy640 Dy 0.93765 0.24209 0.58767 0.0
Dy641 Dy 0.86543 0.2114 0.57715 0.0
C642 C 0.92421 0.23182 0.55897 0.0
O643 O 0.93087 0.28244 0.58225 0.0
O644 O 0.87784 0.25799 0.58466 0.0
O645 O 0.98702 0.27216 0.5847 0.0
O646 O 0.97034 0.24442 0.60158 0.0
O647 O 0.86309 0.20313 0.59809 0.0
O648 O 0.91032 0.24466 0.60365 0.0
O649 O 0.87906 0.17515 0.57444 0.0
O650 O 0.91363 0.19043 0.59067 0.0
O651 O 0.81831 0.17233 0.57606 0.0
O652 O 0.83074 0.21516 0.56627 0.0
C653 C 0.90486 0.28349 0.58338 0.0
O654 O 0.93694 0.22546 0.56833 0.0
O655 O 0.89862 0.23329 0.5607 0.0
C656 C 0.01697 0.25115 0.59272 0.0
C657 C 0.06022 0.23024 0.58917 0.0
C658 C 0.03157 0.21595 0.58279 0.0
C659 C 0.01018 0.22629 0.58455 0.0
C660 C 0.04533 0.26535 0.59915 0.0
C661 C 0.06674 0.25505 0.5974 0.0
C662 C 0.99453 0.26214 0.59465 0.0
C663 C 0.88237 0.22225 0.60664 0.0
C664 C 0.89455 0.16897 0.5828 0.0
C665 C 0.77761 0.18382 0.57268 0.0
C666 C 0.71768 0.1761 0.5775 0.0
C667 C 0.74494 0.20388 0.58083 0.0
C668 C 0.77456 0.20769 0.57845 0.0
C669 C 0.75055 0.15602 0.56952 0.0
C670 C 0.72103 0.15218 0.57189 0.0
C671 C 0.80835 0.18747 0.56933 0.0
H672 H 0.02584 0.19706 0.57629 0.0
H673 H 0.98835 0.21496 0.57951 0.0
H674 H 0.05091 0.28442 0.60556 0.0
H675 H 0.08827 0.26632 0.60263 0.0
H676 H 0.74343 0.2227 0.58531 0.0
H677 H 0.79504 0.22937 0.58103 0.0
H678 H 0.75225 0.13733 0.56499 0.0
H679 H 0.7008 0.13066 0.569 0.0
Dy680 Dy 0.8078 0.71432 0.5849 0.0
Dy681 Dy 0.84058 0.67291 0.5767 0.0
C682 C 0.80748 0.69513 0.55741 0.0
O683 O 0.77168 0.66533 0.59033 0.0
O684 O 0.79043 0.63796 0.57923 0.0
O685 O 0.78657 0.74019 0.57826 0.0
O686 O 0.79221 0.73694 0.59823 0.0
O687 O 0.83491 0.66926 0.59777 0.0
O688 O 0.83689 0.71592 0.60098 0.0
O689 O 0.8799 0.7207 0.57994 0.0
O690 O 0.85526 0.749 0.57733 0.0
O691 O 0.87796 0.66271 0.57828 0.0
O692 O 0.84146 0.63797 0.56468 0.0
C693 C 0.7685 0.639 0.58584 0.0
O694 O 0.78884 0.69029 0.56684 0.0
O695 O 0.83401 0.69596 0.5595 0.0
C696 C 0.79805 0.78438 0.59039 0.0
C697 C 0.81903 0.8488 0.59084 0.0
C698 C 0.83312 0.83683 0.58285 0.0
C699 C 0.82293 0.80497 0.58271 0.0
C700 C 0.78445 0.79636 0.5986 0.0
C701 C 0.795 0.82836 0.59889 0.0
C702 C 0.78514 0.75043 0.58937 0.0
C703 C 0.83927 0.6924 0.60521 0.0
C704 C 0.88088 0.7473 0.57815 0.0
C705 C 0.86725 0.61149 0.57276 0.0
C706 C 0.87465 0.55859 0.57585 0.0
C707 C 0.89348 0.58633 0.58247 0.0
C708 C 0.8899 0.61241 0.58092 0.0
C709 C 0.84798 0.58359 0.56632 0.0
C710 C 0.85154 0.55746 0.56789 0.0
C711 C 0.86628 0.64043 0.56998 0.0
H712 H 0.85192 0.85211 0.57665 0.0
H713 H 0.83401 0.79636 0.57636 0.0
H714 H 0.76527 0.78089 0.6046 0.0
H715 H 0.78369 0.83699 0.6051 0.0
H716 H 0.91123 0.58801 0.58882 0.0
H717 H 0.90544 0.63358 0.58593 0.0
H718 H 0.83066 0.58215 0.5598 0.0
H719 H 0.83685 0.53668 0.5625 0.0
H720 H 0.4425 0.9079 0.09602 0.0
H721 H 0.4491 0.86214 0.09397 0.0
H722 H 0.54873 0.92201 0.09404 0.0
H723 H 0.54246 0.96736 0.09594 0.0
H724 H 0.5312 0.88091 0.0753 0.0
H725 H 0.50799 0.87773 0.11981 0.0
H726 H 0.47518 0.87451 0.13781 0.0
H727 H 0.40148 0.78709 0.12425 0.0
H728 H 0.43375 0.78998 0.10607 0.0
H729 H 0.59833 0.78898 0.08694 0.0
H730 H 0.57962 0.82583 0.08792 0.0
H731 H 0.48497 0.74999 0.08988 0.0
H732 H 0.50372 0.71272 0.08969 0.0
H733 H 0.49186 0.79376 0.10565 0.0
H734 H 0.51621 0.79352 0.06248 0.0
H735 H 0.54795 0.79614 0.04418 0.0
H736 H 0.61739 0.88905 0.0544 0.0
H737 H 0.58628 0.88685 0.07286 0.0
C738 C 0.46578 0.91125 0.09571 0.0
C739 C 0.49191 0.94141 0.0961 0.0
C740 C 0.46953 0.88506 0.09454 0.0
C741 C 0.49946 0.88859 0.09383 0.0
C742 C 0.52542 0.91862 0.09446 0.0
C743 C 0.52173 0.94462 0.09559 0.0
C744 C 0.50439 0.86149 0.09213 0.0
C745 C 0.52275 0.86196 0.08199 0.0
C746 C 0.49239 0.83607 0.10055 0.0
C747 C 0.47314 0.83424 0.11152 0.0
C748 C 0.4847 0.85794 0.12062 0.0
C749 C 0.46622 0.85615 0.13086 0.0
C750 C 0.43623 0.83066 0.13215 0.0
C751 C 0.42469 0.80684 0.12323 0.0
C752 C 0.44307 0.80853 0.11296 0.0
C753 C 0.57352 0.77996 0.08772 0.0
C754 C 0.55262 0.74769 0.08827 0.0
C755 C 0.56278 0.80117 0.0881 0.0
C756 C 0.53078 0.79081 0.08875 0.0
C757 C 0.50976 0.75864 0.0893 0.0
C758 C 0.52054 0.73731 0.08905 0.0
C759 C 0.51965 0.81378 0.08905 0.0
C760 C 0.50002 0.81248 0.09887 0.0
C761 C 0.53028 0.8384 0.08026 0.0
C762 C 0.54897 0.83993 0.0691 0.0
C763 C 0.53833 0.81445 0.06087 0.0
C764 C 0.5562 0.81587 0.05046 0.0
C765 C 0.58469 0.84272 0.04814 0.0
C766 C 0.59532 0.86826 0.05621 0.0
C767 C 0.57756 0.86695 0.06663 0.0
H768 H 0.5985 0.84377 0.04009 0.0
H769 H 0.42195 0.82932 0.14009 0.0
H770 H 0.26124 0.83774 0.09337 0.0
H771 H 0.22319 0.78274 0.09597 0.0
H772 H 0.29531 0.75933 0.09079 0.0
H773 H 0.33352 0.81445 0.08766 0.0
H774 H 0.24341 0.71822 0.0787 0.0
H775 H 0.26735 0.76001 0.12007 0.0
H776 H 0.27507 0.79684 0.13712 0.0
H777 H 0.17936 0.77304 0.13457 0.0
H778 H 0.17116 0.73637 0.11738 0.0
H779 H 0.13968 0.56209 0.09987 0.0
H780 H 0.18494 0.61473 0.09868 0.0
H781 H 0.12454 0.65359 0.10226 0.0
H782 H 0.07957 0.60149 0.10361 0.0
H783 H 0.17532 0.68541 0.11632 0.0
H784 H 0.15332 0.64665 0.07361 0.0
H785 H 0.14614 0.60951 0.05673 0.0
H786 H 0.23917 0.62704 0.06232 0.0
H787 H 0.24675 0.66398 0.07934 0.0
C788 C 0.26907 0.82097 0.09258 0.0
C789 C 0.30061 0.83075 0.0903 0.0
C790 C 0.24726 0.78943 0.09423 0.0
C791 C 0.25638 0.76679 0.09379 0.0
C792 C 0.28768 0.77631 0.09125 0.0
C793 C 0.30957 0.80792 0.08956 0.0
C794 C 0.23316 0.73334 0.09613 0.0
C795 C 0.22889 0.71098 0.08703 0.0
C796 C 0.21396 0.72375 0.10695 0.0
C797 C 0.21871 0.74561 0.11736 0.0
C798 C 0.248 0.76277 0.12308 0.0
C799 C 0.25246 0.78361 0.13278 0.0
C800 C 0.22774 0.78733 0.13691 0.0
C801 C 0.19849 0.77015 0.13136 0.0
C802 C 0.19391 0.74931 0.12165 0.0
C803 C 0.13607 0.58183 0.10053 0.0
C804 C 0.10586 0.5774 0.10178 0.0
C805 C 0.16198 0.61196 0.09977 0.0
C806 C 0.15817 0.63823 0.10023 0.0
C807 C 0.12816 0.63379 0.10186 0.0
C808 C 0.10237 0.60384 0.1026 0.0
C809 C 0.18505 0.67046 0.09876 0.0
C810 C 0.19006 0.69261 0.10805 0.0
C811 C 0.20496 0.67976 0.08816 0.0
C812 C 0.20049 0.65783 0.07783 0.0
C813 C 0.17217 0.64243 0.07129 0.0
C814 C 0.16803 0.62144 0.06169 0.0
C815 C 0.19216 0.61588 0.05848 0.0
C816 C 0.22049 0.63135 0.06484 0.0
C817 C 0.22473 0.65232 0.07445 0.0
H818 H 0.18896 0.59967 0.05105 0.0
H819 H 0.23124 0.80348 0.14441 0.0
H820 H 0.23444 0.55289 0.08711 0.0
H821 H 0.28955 0.5702 0.09035 0.0
H822 H 0.26763 0.47461 0.09315 0.0
H823 H 0.21257 0.45722 0.0904 0.0
H824 H 0.30638 0.50844 0.11129 0.0
H825 H 0.30118 0.51963 0.06647 0.0
H826 H 0.28961 0.53968 0.04734 0.0
H827 H 0.35255 0.63346 0.05906 0.0
H828 H 0.3642 0.61395 0.07835 0.0
H829 H 0.44518 0.50893 0.10042 0.0
H830 H 0.39397 0.5037 0.0993 0.0
H831 H 0.43537 0.60356 0.09843 0.0
H832 H 0.48746 0.60913 0.09935 0.0
H833 H 0.38904 0.57531 0.08105 0.0
H834 H 0.39869 0.56383 0.12474 0.0
H835 H 0.41063 0.54371 0.14375 0.0
H836 H 0.33944 0.4509 0.13435 0.0
H837 H 0.32736 0.47038 0.11518 0.0
C838 C 0.24132 0.53554 0.08846 0.0
C839 C 0.21893 0.50359 0.08844 0.0
C840 C 0.27293 0.54549 0.09021 0.0
C841 C 0.28289 0.52373 0.0919 0.0
C842 C 0.26061 0.49189 0.09185 0.0
C843 C 0.22908 0.48194 0.09013 0.0
C844 C 0.31634 0.53382 0.09396 0.0
C845 C 0.32438 0.52286 0.10462 0.0
C846 C 0.34015 0.55363 0.08553 0.0
C847 C 0.33328 0.56534 0.07392 0.0
C848 C 0.31236 0.54453 0.06501 0.0
C849 C 0.30583 0.55579 0.05413 0.0
C850 C 0.32026 0.58782 0.052 0.0
C851 C 0.34134 0.60865 0.06073 0.0
C852 C 0.34793 0.59751 0.07164 0.0
C853 C 0.44364 0.52994 0.10006 0.0
C854 C 0.47063 0.55951 0.10003 0.0
C855 C 0.41416 0.52685 0.09948 0.0
C856 C 0.41066 0.5532 0.09896 0.0
C857 C 0.43747 0.58287 0.09889 0.0
C858 C 0.46721 0.58602 0.09949 0.0
C859 C 0.37884 0.54914 0.09818 0.0
C860 C 0.3711 0.56124 0.08781 0.0
C861 C 0.35524 0.5304 0.10689 0.0
C862 C 0.36224 0.51857 0.11848 0.0
C863 C 0.38571 0.5391 0.12668 0.0
C864 C 0.39248 0.52781 0.1375 0.0
C865 C 0.37583 0.49605 0.14025 0.0
C866 C 0.35232 0.47551 0.13221 0.0
C867 C 0.34546 0.48667 0.12137 0.0
H868 H 0.38112 0.48735 0.14862 0.0
H869 H 0.31517 0.5965 0.04358 0.0
H870 H 0.9236 0.46047 0.93209 0.0
H871 H 0.88073 0.47145 0.93284 0.0
H872 H 0.9247 0.54006 0.90372 0.0
H873 H 0.96784 0.52964 0.90303 0.0
H874 H 0.90485 0.56212 0.92221 0.0
H875 H 0.8609 0.46757 0.89788 0.0
H876 H 0.84621 0.41292 0.89387 0.0
H877 H 0.7869 0.38411 0.92631 0.0
H878 H 0.80155 0.43868 0.93061 0.0
H879 H 0.78162 0.58791 0.90685 0.0
H880 H 0.82143 0.57269 0.90583 0.0
H881 H 0.77275 0.50323 0.93427 0.0
H882 H 0.7326 0.51816 0.93522 0.0
H883 H 0.79437 0.48058 0.91679 0.0
H884 H 0.83757 0.57386 0.9413 0.0
H885 H 0.85285 0.62833 0.94607 0.0
H886 H 0.91408 0.65921 0.9142 0.0
H887 H 0.89883 0.60485 0.90914 0.0
C888 C 0.92413 0.47783 0.9258 0.0
C889 C 0.94923 0.49413 0.91748 0.0
C890 C 0.89949 0.48399 0.92621 0.0
C891 C 0.89927 0.50639 0.91825 0.0
C892 C 0.9243 0.52268 0.90995 0.0
C893 C 0.94895 0.5166 0.90955 0.0
C894 C 0.8734 0.51347 0.91871 0.0
C895 C 0.88074 0.54434 0.92085 0.0
C896 C 0.8418 0.49014 0.91732 0.0
C897 C 0.83255 0.45726 0.91463 0.0
C898 C 0.84487 0.44961 0.9042 0.0
C899 C 0.83653 0.41864 0.90187 0.0
C900 C 0.8157 0.39507 0.90985 0.0
C901 C 0.80306 0.4024 0.92015 0.0
C902 C 0.81134 0.43335 0.92253 0.0
C903 C 0.77941 0.56945 0.91291 0.0
C904 C 0.75404 0.55445 0.92119 0.0
C905 C 0.80221 0.56074 0.91232 0.0
C906 C 0.80047 0.53714 0.92013 0.0
C907 C 0.7747 0.52152 0.92816 0.0
C908 C 0.75172 0.53006 0.92868 0.0
C909 C 0.82589 0.52935 0.92012 0.0
C910 C 0.81848 0.49836 0.91813 0.0
C911 C 0.85747 0.55253 0.92172 0.0
C912 C 0.86683 0.58526 0.92478 0.0
C913 C 0.85413 0.59225 0.93526 0.0
C914 C 0.86281 0.62311 0.93802 0.0
C915 C 0.88436 0.64721 0.93043 0.0
C916 C 0.89735 0.64051 0.92007 0.0
C917 C 0.88872 0.60969 0.91726 0.0
H918 H 0.89105 0.67109 0.93258 0.0
H919 H 0.80929 0.37111 0.90804 0.0
H920 H 0.52024 0.22504 0.93708 0.0
H921 H 0.53611 0.2804 0.93654 0.0
H922 H 0.48274 0.26512 0.90278 0.0
H923 H 0.46799 0.21014 0.90305 0.0
H924 H 0.53396 0.31587 0.90016 0.0
H925 H 0.45855 0.27503 0.9335 0.0
H926 H 0.43561 0.24771 0.95336 0.0
H927 H 0.51766 0.31335 0.97317 0.0
H928 H 0.54127 0.34083 0.95339 0.0
H929 H 0.5214 0.45233 0.90117 0.0
H930 H 0.51091 0.39877 0.90223 0.0
H931 H 0.57667 0.42386 0.93242 0.0
H932 H 0.58727 0.47763 0.93148 0.0
H933 H 0.52216 0.36966 0.93725 0.0
H934 H 0.5957 0.4119 0.90339 0.0
H935 H 0.61642 0.43936 0.88337 0.0
H936 H 0.53468 0.37058 0.86431 0.0
H937 H 0.51325 0.34294 0.88425 0.0
C938 C 0.51187 0.23356 0.92958 0.0
C939 C 0.49285 0.21327 0.92012 0.0
C940 C 0.52083 0.2652 0.92929 0.0
C941 C 0.51026 0.27708 0.91973 0.0
C942 C 0.49131 0.25673 0.91026 0.0
C943 C 0.48284 0.22526 0.91042 0.0
C944 C 0.51906 0.31065 0.91944 0.0
C945 C 0.53097 0.32743 0.90825 0.0
C946 C 0.51598 0.32624 0.93005 0.0
C947 C 0.5018 0.30977 0.94195 0.0
C948 C 0.47179 0.2835 0.94208 0.0
C949 C 0.45865 0.26801 0.95332 0.0
C950 C 0.4752 0.27874 0.96452 0.0
C951 C 0.50489 0.30504 0.96449 0.0
C952 C 0.51815 0.32058 0.95327 0.0
C953 C 0.53377 0.44659 0.90802 0.0
C954 C 0.55526 0.46942 0.91622 0.0
C955 C 0.5278 0.4159 0.90858 0.0
C956 C 0.54319 0.40729 0.91733 0.0
C957 C 0.56454 0.42995 0.92558 0.0
C958 C 0.57065 0.46073 0.92499 0.0
C959 C 0.53659 0.37453 0.91796 0.0
C960 C 0.52518 0.358 0.9292 0.0
C961 C 0.53978 0.35906 0.90737 0.0
C962 C 0.55276 0.37549 0.89534 0.0
C963 C 0.58204 0.40275 0.89495 0.0
C964 C 0.59393 0.41833 0.88361 0.0
C965 C 0.57685 0.40676 0.87258 0.0
C966 C 0.54787 0.37953 0.87286 0.0
C967 C 0.53587 0.36388 0.88418 0.0
H968 H 0.58608 0.41887 0.86381 0.0
H969 H 0.46499 0.26671 0.97321 0.0
H970 H 0.5619 0.13821 0.91466 0.0
H971 H 0.61455 0.18366 0.91607 0.0
H972 H 0.65362 0.12526 0.90721 0.0
H973 H 0.60172 0.08017 0.90607 0.0
H974 H 0.68164 0.15932 0.92677 0.0
H975 H 0.6523 0.17873 0.88603 0.0
H976 H 0.61936 0.18768 0.87133 0.0
H977 H 0.63554 0.26851 0.89225 0.0
H978 H 0.66829 0.25981 0.90717 0.0
H979 H 0.83798 0.26189 0.91274 0.0
H980 H 0.78271 0.22433 0.91053 0.0
H981 H 0.75998 0.29386 0.92234 0.0
H982 H 0.81552 0.33204 0.92422 0.0
H983 H 0.72221 0.25801 0.90307 0.0
H984 H 0.75426 0.24038 0.94294 0.0
H985 H 0.78733 0.23148 0.95759 0.0
H986 H 0.76549 0.14685 0.93832 0.0
H987 H 0.73264 0.15547 0.92345 0.0
C988 C 0.58175 0.13521 0.91288 0.0
C989 C 0.57756 0.10548 0.91035 0.0
C990 C 0.61185 0.16121 0.91367 0.0
C991 C 0.63819 0.15796 0.91177 0.0
C992 C 0.63381 0.12844 0.90884 0.0
C993 C 0.60398 0.10259 0.90817 0.0
C994 C 0.6705 0.18458 0.91333 0.0
C995 C 0.69051 0.18075 0.92147 0.0
C996 C 0.68196 0.21308 0.90679 0.0
C997 C 0.66244 0.21841 0.89779 0.0
C998 C 0.64864 0.19827 0.88755 0.0
C999 C 0.63004 0.20332 0.87917 0.0
C1000 C 0.62528 0.22859 0.88088 0.0
C1001 C 0.6392 0.24892 0.89095 0.0
C1002 C 0.6578 0.24395 0.89936 0.0
C1003 C 0.82134 0.26944 0.91468 0.0
C1004 C 0.83132 0.30003 0.91873 0.0
C1005 C 0.78966 0.24781 0.91351 0.0
C1006 C 0.7671 0.25609 0.91645 0.0
C1007 C 0.77691 0.28685 0.92009 0.0
C1008 C 0.80869 0.30858 0.92127 0.0
C1009 C 0.73342 0.23215 0.91616 0.0
C1010 C 0.7132 0.2366 0.90838 0.0
C1011 C 0.72163 0.2041 0.92302 0.0
C1012 C 0.74117 0.1987 0.93202 0.0
C1013 C 0.75668 0.21998 0.94178 0.0
C1014 C 0.77536 0.21497 0.95013 0.0
C1015 C 0.77855 0.18865 0.94887 0.0
C1016 C 0.76301 0.16724 0.93928 0.0
C1017 C 0.74433 0.17215 0.93089 0.0
H1018 H 0.79303 0.18482 0.95534 0.0
H1019 H 0.61087 0.23246 0.87438 0.0
H1020 H 0.26768 0.1202 0.43051 0.0
H1021 H 0.24892 0.15688 0.43332 0.0
H1022 H 0.15415 0.08153 0.43086 0.0
H1023 H 0.17289 0.04469 0.42757 0.0
H1024 H 0.16166 0.13067 0.41745 0.0
H1025 H 0.18546 0.11525 0.45899 0.0
H1026 H 0.21745 0.11151 0.47576 0.0
H1027 H 0.28634 0.20754 0.47041 0.0
H1028 H 0.25505 0.21173 0.45344 0.0
H1029 H 0.11235 0.2405 0.43485 0.0
H1030 H 0.11845 0.19421 0.43537 0.0
H1031 H 0.21812 0.25336 0.43655 0.0
H1032 H 0.21234 0.29914 0.43616 0.0
H1033 H 0.19998 0.20621 0.45263 0.0
H1034 H 0.17943 0.21863 0.40919 0.0
H1035 H 0.1481 0.22217 0.39207 0.0
H1036 H 0.07267 0.1313 0.40131 0.0
H1037 H 0.10346 0.12739 0.41858 0.0
C1038 C 0.24284 0.11137 0.43047 0.0
C1039 C 0.22184 0.07941 0.4288 0.0
C1040 C 0.23209 0.13238 0.43221 0.0
C1041 C 0.20005 0.12202 0.43247 0.0
C1042 C 0.17897 0.09014 0.43076 0.0
C1043 C 0.18972 0.06905 0.429 0.0
C1044 C 0.18889 0.14472 0.43436 0.0
C1045 C 0.16954 0.14677 0.42528 0.0
C1046 C 0.19929 0.16598 0.44452 0.0
C1047 C 0.21796 0.16374 0.45488 0.0
C1048 C 0.20752 0.13553 0.46134 0.0
C1049 C 0.22553 0.13333 0.47088 0.0
C1050 C 0.25393 0.15925 0.47413 0.0
C1051 C 0.26434 0.18747 0.46787 0.0
C1052 C 0.24645 0.18978 0.4583 0.0
C1053 C 0.13552 0.24358 0.43531 0.0
C1054 C 0.16181 0.27364 0.43539 0.0
C1055 C 0.139 0.2171 0.43555 0.0
C1056 C 0.16881 0.22023 0.4359 0.0
C1057 C 0.19489 0.25021 0.4363 0.0
C1058 C 0.19148 0.27648 0.43601 0.0
C1059 C 0.17352 0.19273 0.43553 0.0
C1060 C 0.19167 0.18976 0.44491 0.0
C1061 C 0.16198 0.17062 0.42568 0.0
C1062 C 0.14358 0.17288 0.41526 0.0
C1063 C 0.15608 0.1995 0.40762 0.0
C1064 C 0.13844 0.20156 0.39788 0.0
C1065 C 0.10838 0.17702 0.39563 0.0
C1066 C 0.09593 0.15032 0.40308 0.0
C1067 C 0.11347 0.14816 0.41284 0.0
H1068 H 0.09475 0.17865 0.38809 0.0
H1069 H 0.26785 0.15749 0.48152 0.0
H1070 H 0.98488 0.15696 0.40703 0.0
H1071 H 0.94566 0.10152 0.40727 0.0
H1072 H 0.90957 0.11422 0.44228 0.0
H1073 H 0.94893 0.1694 0.44217 0.0
H1074 H 0.9131 0.06346 0.44341 0.0
H1075 H 0.87273 0.1065 0.41347 0.0
H1076 H 0.87408 0.13554 0.39454 0.0
H1077 H 0.88806 0.07221 0.37162 0.0
H1078 H 0.8872 0.04302 0.39044 0.0
H1079 H 0.76359 0.92934 0.44496 0.0
H1080 H 0.80726 0.98242 0.4435 0.0
H1081 H 0.84142 0.95715 0.4109 0.0
H1082 H 0.79762 0.90376 0.41226 0.0
H1083 H 0.84133 0.01252 0.40777 0.0
H1084 H 0.87774 0.96735 0.4381 0.0
H1085 H 0.87458 0.93817 0.45723 0.0
H1086 H 0.86641 0.00576 0.47968 0.0
H1087 H 0.86905 0.03512 0.46066 0.0
C1088 C 0.96844 0.14793 0.41473 0.0
C1089 C 0.97003 0.16758 0.42458 0.0
C1090 C 0.946 0.11623 0.41486 0.0
C1091 C 0.92437 0.10364 0.42474 0.0
C1092 C 0.92602 0.12327 0.43458 0.0
C1093 C 0.94857 0.15483 0.43451 0.0
C1094 C 0.90008 0.07005 0.42493 0.0
C1095 C 0.89723 0.05246 0.43565 0.0
C1096 C 0.87979 0.05532 0.4147 0.0
C1097 C 0.88024 0.07279 0.40337 0.0
C1098 C 0.87633 0.09892 0.4044 0.0
C1099 C 0.87697 0.11538 0.39369 0.0
C1100 C 0.88124 0.10579 0.38189 0.0
C1101 C 0.8848 0.07965 0.38077 0.0
C1102 C 0.88422 0.06313 0.39146 0.0
C1103 C 0.7804 0.93494 0.43749 0.0
C1104 C 0.77706 0.9122 0.42873 0.0
C1105 C 0.80545 0.96533 0.4367 0.0
C1106 C 0.82776 0.97372 0.42715 0.0
C1107 C 0.82449 0.95117 0.41835 0.0
C1108 C 0.79949 0.92064 0.41918 0.0
C1109 C 0.85416 0.00621 0.42631 0.0
C1110 C 0.85739 0.02354 0.41547 0.0
C1111 C 0.87466 0.02077 0.43646 0.0
C1112 C 0.87334 1.00331 0.44794 0.0
C1113 C 0.87504 0.97588 0.44711 0.0
C1114 C 0.87338 0.95932 0.45793 0.0
C1115 C 0.87024 0.97007 0.46966 0.0
C1116 C 0.86883 0.99745 0.47059 0.0
C1117 C 0.87044 0.01408 0.45979 0.0
H1118 H 0.86895 0.95721 0.47803 0.0
H1119 H 0.88172 0.11856 0.37361 0.0
H1120 H 0.15161 0.92047 0.41547 0.0
H1121 H 0.09794 0.90996 0.41453 0.0
H1122 H 0.07073 0.8376 0.44217 0.0
H1123 H 0.12406 0.84758 0.44303 0.0
H1124 H 0.0305 0.81805 0.42322 0.0
H1125 H 0.07911 0.90928 0.44947 0.0
H1126 H 0.11869 0.9633 0.45461 0.0
H1127 H 0.09056 0.99643 0.42296 0.0
H1128 H 0.05107 0.94252 0.41751 0.0
H1129 H 0.88016 0.79029 0.43795 0.0
H1130 H 0.9351 0.80537 0.43936 0.0
H1131 H 0.95832 0.87862 0.41249 0.0
H1132 H 0.90337 0.86384 0.41116 0.0
H1133 H 1.00104 0.89887 0.43041 0.0
H1134 H 0.95315 0.80887 0.40396 0.0
H1135 H 0.91444 0.75509 0.39807 0.0
H1136 H 0.94215 0.72011 0.42925 0.0
H1137 H 0.98075 0.77373 0.43543 0.0
C1138 C 0.13425 0.90237 0.42138 0.0
C1139 C 0.14226 0.88488 0.42933 0.0
C1140 C 0.10354 0.89648 0.42087 0.0
C1141 C 0.08024 0.87313 0.42836 0.0
C1142 C 0.08823 0.85572 0.4363 0.0
C1143 C 0.11884 0.86155 0.4368 0.0
C1144 C 0.04737 0.8662 0.42775 0.0
C1145 C 0.02405 0.83565 0.42497 0.0
C1146 C 0.03895 0.88934 0.42964 0.0
C1147 C 0.06232 0.92182 0.43302 0.0
C1148 C 0.08149 0.92806 0.44355 0.0
C1149 C 0.1039 0.95866 0.44653 0.0
C1150 C 0.10719 0.98328 0.4391 0.0
C1151 C 0.088 0.97734 0.4287 0.0
C1152 C 0.06558 0.94676 0.42567 0.0
C1153 C 0.89695 0.80956 0.43231 0.0
C1154 C 0.88731 0.82566 0.42435 0.0
C1155 C 0.9284 0.81819 0.43313 0.0
C1156 C 0.95092 0.84283 0.42586 0.0
C1157 C 0.94146 0.85953 0.41818 0.0
C1158 C 0.91002 0.85106 0.41744 0.0
C1159 C 0.98412 0.85058 0.42605 0.0
C1160 C 1.0075 0.88126 0.42869 0.0
C1161 C 0.99269 0.82762 0.42395 0.0
C1162 C 0.96963 0.79533 0.42022 0.0
C1163 C 0.95084 0.78972 0.40961 0.0
C1164 C 0.92894 0.75926 0.40621 0.0
C1165 C 0.92579 0.7342 0.4133 0.0
C1166 C 0.94459 0.73955 0.42378 0.0
C1167 C 0.9665 0.76996 0.42722 0.0
H1168 H 0.90882 0.71064 0.41065 0.0
H1169 H 0.12454 0.00695 0.44142 0.0
H1170 H 0.37932 0.83481 0.2522 0.0
H1171 H 0.41598 0.81572 0.24974 0.0
H1172 H 0.49164 0.91013 0.24635 0.0
H1173 H 0.45533 0.92943 0.24899 0.0
H1174 H 0.49567 0.8727 0.2288 0.0
H1175 H 0.47815 0.86925 0.27358 0.0
H1176 H 0.44606 0.85305 0.29277 0.0
H1177 H 0.41318 0.7571 0.28384 0.0
H1178 H 0.44479 0.77275 0.26449 0.0
H1179 H 0.63222 0.87359 0.24401 0.0
H1180 H 0.58606 0.87865 0.24359 0.0
H1181 H 0.52789 0.77885 0.24526 0.0
H1182 H 0.57459 0.77343 0.24574 0.0
H1183 H 0.50882 0.81 0.2618 0.0
H1184 H 0.53197 0.81386 0.21846 0.0
H1185 H 0.56477 0.83021 0.19948 0.0
H1186 H 0.58685 0.92471 0.20548 0.0
H1187 H 0.55457 0.90904 0.22462 0.0
C1188 C 0.40379 0.85156 0.25104 0.0
C1189 C 0.4143 0.88373 0.25083 0.0
C1190 C 0.42472 0.84057 0.2496 0.0
C1191 C 0.45663 0.86148 0.24794 0.0
C1192 C 0.46712 0.89352 0.24756 0.0
C1193 C 0.44626 0.90453 0.24903 0.0
C1194 C 0.47933 0.85027 0.24667 0.0
C1195 C 0.49864 0.85914 0.23604 0.0
C1196 C 0.48249 0.83157 0.2559 0.0
C1197 C 0.46352 0.82216 0.26752 0.0
C1198 C 0.46387 0.84469 0.27565 0.0
C1199 C 0.44581 0.83561 0.28657 0.0
C1200 C 0.42751 0.80406 0.2895 0.0
C1201 C 0.42731 0.78153 0.28154 0.0
C1202 C 0.4453 0.79049 0.2706 0.0
C1203 C 0.60971 0.85255 0.24426 0.0
C1204 C 0.6072 0.82304 0.2449 0.0
C1205 C 0.58324 0.85554 0.24395 0.0
C1206 C 0.55348 0.82916 0.24424 0.0
C1207 C 0.55067 0.79954 0.24496 0.0
C1208 C 0.57734 0.79648 0.24519 0.0
C1209 C 0.52573 0.83323 0.2441 0.0
C1210 C 0.50546 0.82306 0.25443 0.0
C1211 C 0.52161 0.85069 0.23459 0.0
C1212 C 0.54096 0.86027 0.22303 0.0
C1213 C 0.54399 0.83817 0.21579 0.0
C1214 C 0.56247 0.84731 0.20499 0.0
C1215 C 0.57791 0.87848 0.20128 0.0
C1216 C 0.57487 0.90057 0.20836 0.0
C1217 C 0.55644 0.89156 0.21918 0.0
H1218 H 0.59221 0.88552 0.19292 0.0
H1219 H 0.41355 0.79707 0.29796 0.0
H1220 H 0.18511 0.78773 0.23394 0.0
H1221 H 0.17429 0.73412 0.23539 0.0
H1222 H 0.24335 0.76089 0.26436 0.0
H1223 H 0.25476 0.81485 0.26283 0.0
H1224 H 0.24674 0.7207 0.24829 0.0
H1225 H 0.16551 0.72415 0.27149 0.0
H1226 H 0.12296 0.7355 0.27483 0.0
H1227 H 0.07134 0.67357 0.24477 0.0
H1228 H 0.1138 0.66218 0.24113 0.0
H1229 H 0.19601 0.56633 0.26995 0.0
H1230 H 0.21103 0.62123 0.26802 0.0
H1231 H 0.13965 0.59724 0.24025 0.0
H1232 H 0.1243 0.54231 0.24227 0.0
H1233 H 0.13834 0.63661 0.25613 0.0
H1234 H 0.21973 0.63299 0.23293 0.0
H1235 H 0.26252 0.62203 0.22954 0.0
H1236 H 0.31406 0.6842 0.25954 0.0
H1237 H 0.27137 0.69521 0.26323 0.0
C1238 C 0.19813 0.78234 0.24061 0.0
C1239 C 0.22068 0.80571 0.24833 0.0
C1240 C 0.19181 0.75156 0.24145 0.0
C1241 C 0.20762 0.74324 0.25013 0.0
C1242 C 0.23074 0.76664 0.25762 0.0
C1243 C 0.23716 0.79751 0.25676 0.0
C1244 C 0.19958 0.71007 0.25151 0.0
C1245 C 0.22311 0.70235 0.25017 0.0
C1246 C 0.16865 0.68594 0.25373 0.0
C1247 C 0.14296 0.69253 0.25597 0.0
C1248 C 0.14517 0.71311 0.26553 0.0
C1249 C 0.12106 0.71953 0.26749 0.0
C1250 C 0.09449 0.70532 0.25999 0.0
C1251 C 0.09195 0.68458 0.25055 0.0
C1252 C 0.11602 0.67812 0.24855 0.0
C1253 C 0.18372 0.57278 0.26333 0.0
C1254 C 0.15893 0.54984 0.25626 0.0
C1255 C 0.19237 0.60425 0.26222 0.0
C1256 C 0.17677 0.61362 0.25388 0.0
C1257 C 0.15207 0.59073 0.24678 0.0
C1258 C 0.14325 0.55926 0.24796 0.0
C1259 C 0.18543 0.64706 0.25278 0.0
C1260 C 0.162 0.65488 0.25423 0.0
C1261 C 0.21645 0.67122 0.25066 0.0
C1262 C 0.24219 0.66468 0.24844 0.0
C1263 C 0.24008 0.64414 0.23887 0.0
C1264 C 0.26434 0.63795 0.23688 0.0
C1265 C 0.29096 0.65234 0.24434 0.0
C1266 C 0.29341 0.67303 0.25378 0.0
C1267 C 0.26919 0.67927 0.25582 0.0
H1268 H 0.30972 0.64752 0.24279 0.0
H1269 H 0.07585 0.71032 0.26152 0.0
H1270 H 0.49106 0.64709 0.23771 0.0
H1271 H 0.43576 0.60792 0.23813 0.0
H1272 H 0.4477 0.5756 0.27401 0.0
H1273 H 0.50322 0.61435 0.27353 0.0
H1274 H 0.41512 0.52773 0.25872 0.0
H1275 H 0.41097 0.61761 0.27152 0.0
H1276 H 0.42042 0.67131 0.27056 0.0
H1277 H 0.37014 0.6506 0.23594 0.0
H1278 H 0.3609 0.59692 0.23656 0.0
H1279 H 0.2365 0.46328 0.26572 0.0
H1280 H 0.29011 0.50617 0.26769 0.0
H1281 H 0.31839 0.46721 0.23767 0.0
H1282 H 0.26513 0.42413 0.23575 0.0
H1283 H 0.33005 0.55132 0.25232 0.0
H1284 H 0.39017 0.47842 0.24355 0.0
H1285 H 0.37926 0.42455 0.24648 0.0
H1286 H 0.31648 0.41196 0.27664 0.0
H1287 H 0.32735 0.46587 0.27401 0.0
C1288 C 0.48195 0.63164 0.2457 0.0
C1289 C 0.50167 0.63385 0.25558 0.0
C1290 C 0.45022 0.60941 0.24597 0.0
C1291 C 0.43742 0.58888 0.25614 0.0
C1292 C 0.45698 0.5912 0.26607 0.0
C1293 C 0.4887 0.61354 0.26583 0.0
C1294 C 0.40398 0.56413 0.25614 0.0
C1295 C 0.39657 0.53296 0.25733 0.0
C1296 C 0.37959 0.57084 0.25453 0.0
C1297 C 0.38553 0.60329 0.25402 0.0
C1298 C 0.40223 0.62459 0.26363 0.0
C1299 C 0.40751 0.65502 0.26316 0.0
C1300 C 0.39597 0.66439 0.25318 0.0
C1301 C 0.37913 0.64334 0.24365 0.0
C1302 C 0.37387 0.6129 0.24406 0.0
C1303 C 0.2541 0.46385 0.25951 0.0
C1304 C 0.24644 0.44003 0.25064 0.0
C1305 C 0.28476 0.48848 0.26062 0.0
C1306 C 0.30845 0.48976 0.25295 0.0
C1307 C 0.30068 0.4665 0.24385 0.0
C1308 C 0.2701 0.44188 0.24274 0.0
C1309 C 0.34138 0.515 0.25458 0.0
C1310 C 0.34867 0.54618 0.2537 0.0
C1311 C 0.36566 0.50839 0.25668 0.0
C1312 C 0.35938 0.4761 0.25849 0.0
C1313 C 0.37416 0.4642 0.25084 0.0
C1314 C 0.36796 0.43365 0.25244 0.0
C1315 C 0.34712 0.41482 0.26171 0.0
C1316 C 0.33253 0.42654 0.26943 0.0
C1317 C 0.33868 0.45708 0.26788 0.0
H1318 H 0.34232 0.39116 0.26292 0.0
H1319 H 0.40002 0.68794 0.25285 0.0
H1320 H 0.8794 0.63284 0.76678 0.0
H1321 H 0.885 0.58703 0.76523 0.0
H1322 H 0.78531 0.52807 0.76521 0.0
H1323 H 0.77928 0.57434 0.76676 0.0
H1324 H 0.81801 0.50473 0.78004 0.0
H1325 H 0.81821 0.53937 0.73861 0.0
H1326 H 0.83308 0.5789 0.72206 0.0
H1327 H 0.92852 0.6022 0.72529 0.0
H1328 H 0.91432 0.56317 0.74206 0.0
H1329 H 0.8388 0.37849 0.75838 0.0
H1330 H 0.82093 0.4163 0.76 0.0
H1331 H 0.91592 0.4914 0.75851 0.0
H1332 H 0.93406 0.45394 0.75724 0.0
H1333 H 0.87792 0.50196 0.74316 0.0
H1334 H 0.87707 0.4698 0.78599 0.0
H1335 H 0.86166 0.43164 0.80314 0.0
H1336 H 0.76556 0.40291 0.79696 0.0
H1337 H 0.78041 0.44064 0.77965 0.0
C1338 C 0.8585 0.61023 0.76654 0.0
C1339 C 0.82883 0.60742 0.76676 0.0
C1340 C 0.86181 0.58398 0.76565 0.0
C1341 C 0.83562 0.55414 0.76492 0.0
C1342 C 0.80585 0.55092 0.76572 0.0
C1343 C 0.80246 0.57738 0.76658 0.0
C1344 C 0.83999 0.52692 0.76268 0.0
C1345 C 0.83051 0.5037 0.77185 0.0
C1346 C 0.8566 0.52577 0.75206 0.0
C1347 C 0.86522 0.54848 0.74166 0.0
C1348 C 0.8424 0.55301 0.73584 0.0
C1349 C 0.8507 0.57532 0.72642 0.0
C1350 C 0.88172 0.59309 0.72266 0.0
C1351 C 0.9045 0.58842 0.72824 0.0
C1352 C 0.89633 0.56617 0.73769 0.0
C1353 C 0.85597 0.40303 0.75851 0.0
C1354 C 0.88797 0.41301 0.75768 0.0
C1355 C 0.84566 0.42464 0.75939 0.0
C1356 C 0.86707 0.45674 0.75945 0.0
C1357 C 0.89893 0.46678 0.75843 0.0
C1358 C 0.90926 0.44524 0.75762 0.0
C1359 C 0.85656 0.48003 0.76066 0.0
C1360 C 0.86497 0.50261 0.75126 0.0
C1361 C 0.83873 0.48037 0.77102 0.0
C1362 C 0.82982 0.45776 0.78143 0.0
C1363 C 0.85264 0.45515 0.78822 0.0
C1364 C 0.84401 0.43364 0.79798 0.0
C1365 C 0.81264 0.41479 0.80111 0.0
C1366 C 0.78985 0.41748 0.79451 0.0
C1367 C 0.79835 0.43893 0.78473 0.0
H1368 H 0.80601 0.39816 0.80868 0.0
H1369 H 0.88806 0.61047 0.71544 0.0
H1370 H 0.61533 0.50519 0.77243 0.0
H1371 H 0.57504 0.45044 0.77355 0.0
H1372 H 0.61029 0.43195 0.73951 0.0
H1373 H 0.6503 0.48707 0.73821 0.0
H1374 H 0.54964 0.40191 0.73886 0.0
H1375 H 0.6243 0.41148 0.76934 0.0
H1376 H 0.65881 0.4338 0.7876 0.0
H1377 H 0.57992 0.41123 0.81113 0.0
H1378 H 0.54496 0.38914 0.79296 0.0
H1379 H 0.46493 0.23698 0.74622 0.0
H1380 H 0.50766 0.29075 0.74482 0.0
H1381 H 0.46967 0.31596 0.77618 0.0
H1382 H 0.42691 0.26226 0.7777 0.0
H1383 H 0.53305 0.34155 0.77792 0.0
H1384 H 0.45875 0.33239 0.7469 0.0
H1385 H 0.42497 0.30922 0.72849 0.0
H1386 H 0.50479 0.33043 0.70578 0.0
H1387 H 0.53894 0.35308 0.72411 0.0
C1388 C 0.61462 0.48942 0.76522 0.0
C1389 C 0.63617 0.50042 0.75528 0.0
C1390 C 0.59159 0.45806 0.76588 0.0
C1391 C 0.5899 0.43678 0.75675 0.0
C1392 C 0.61111 0.44782 0.7467 0.0
C1393 C 0.63396 0.47933 0.74595 0.0
C1394 C 0.56584 0.40316 0.75766 0.0
C1395 C 0.54639 0.38863 0.74734 0.0
C1396 C 0.56109 0.38579 0.7688 0.0
C1397 C 0.58204 0.39889 0.77976 0.0
C1398 C 0.61433 0.41146 0.77839 0.0
C1399 C 0.63397 0.42405 0.78873 0.0
C1400 C 0.62157 0.424 0.80051 0.0
C1401 C 0.58949 0.41128 0.80199 0.0
C1402 C 0.56975 0.39869 0.79168 0.0
C1403 C 0.46569 0.25389 0.75287 0.0
C1404 C 0.44235 0.24526 0.76205 0.0
C1405 C 0.49011 0.28468 0.75202 0.0
C1406 C 0.49172 0.30748 0.76032 0.0
C1407 C 0.46889 0.29879 0.76967 0.0
C1408 C 0.44438 0.26806 0.77049 0.0
C1409 C 0.51689 0.3405 0.75916 0.0
C1410 C 0.53649 0.35488 0.76943 0.0
C1411 C 0.52192 0.35763 0.74796 0.0
C1412 C 0.50138 0.34415 0.73691 0.0
C1413 C 0.46906 0.33184 0.73801 0.0
C1414 C 0.44983 0.3188 0.72758 0.0
C1415 C 0.46269 0.31823 0.71598 0.0
C1416 C 0.49481 0.33076 0.71478 0.0
C1417 C 0.51412 0.3437 0.72518 0.0
H1418 H 0.44775 0.3082 0.70792 0.0
H1419 H 0.63681 0.43376 0.8085 0.0
H1420 H 0.57038 0.21241 0.76177 0.0
H1421 H 0.6257 0.23063 0.76489 0.0
H1422 H 0.60641 0.13565 0.76478 0.0
H1423 H 0.55105 0.11727 0.76213 0.0
H1424 H 0.64668 0.1676 0.78272 0.0
H1425 H 0.63674 0.18443 0.73878 0.0
H1426 H 0.6226 0.20612 0.72087 0.0
H1427 H 0.68449 0.29881 0.73406 0.0
H1428 H 0.6987 0.27762 0.75214 0.0
H1429 H 0.78584 0.17382 0.76638 0.0
H1430 H 0.73409 0.16744 0.7669 0.0
H1431 H 0.77353 0.26688 0.76955 0.0
H1432 H 0.82617 0.27367 0.76891 0.0
H1433 H 0.72542 0.2402 0.7524 0.0
H1434 H 0.74013 0.22287 0.79501 0.0
H1435 H 0.75479 0.20062 0.81255 0.0
H1436 H 0.68418 0.10864 0.80181 0.0
H1437 H 0.66938 0.13029 0.78409 0.0
C1438 C 0.57784 0.19537 0.76256 0.0
C1439 C 0.55617 0.16333 0.7616 0.0
C1440 C 0.60958 0.20586 0.76422 0.0
C1441 C 0.62043 0.18458 0.7649 0.0
C1442 C 0.59875 0.15259 0.76423 0.0
C1443 C 0.56706 0.1421 0.76259 0.0
C1444 C 0.65427 0.19533 0.76621 0.0
C1445 C 0.66383 0.18332 0.77604 0.0
C1446 C 0.67698 0.21671 0.75776 0.0
C1447 C 0.66849 0.22944 0.74689 0.0
C1448 C 0.64714 0.20943 0.73791 0.0
C1449 C 0.63915 0.22163 0.72772 0.0
C1450 C 0.65256 0.25382 0.72635 0.0
C1451 C 0.67407 0.27388 0.73515 0.0
C1452 C 0.68211 0.26179 0.74536 0.0
C1453 C 0.78378 0.1945 0.76712 0.0
C1454 C 0.81038 0.22433 0.76764 0.0
C1455 C 0.75399 0.19073 0.76748 0.0
C1456 C 0.74978 0.2166 0.76844 0.0
C1457 C 0.77619 0.24654 0.76888 0.0
C1458 C 0.80625 0.25038 0.76856 0.0
C1459 C 0.71761 0.21179 0.76872 0.0
C1460 C 0.70835 0.22489 0.75921 0.0
C1461 C 0.69513 0.19137 0.77745 0.0
C1462 C 0.70376 0.17822 0.78817 0.0
C1463 C 0.72785 0.19788 0.79634 0.0
C1464 C 0.73617 0.18538 0.80632 0.0
C1465 C 0.72045 0.15324 0.80828 0.0
C1466 C 0.69633 0.13354 0.80028 0.0
C1467 C 0.68794 0.14592 0.79028 0.0
H1468 H 0.72694 0.1436 0.81601 0.0
H1469 H 0.64635 0.26322 0.71846 0.0
H1470 H 0.04919 0.17028 0.58648 0.0
H1471 H 0.08722 0.15316 0.58326 0.0
H1472 H 0.16161 0.2486 0.58453 0.0
H1473 H 0.12375 0.26593 0.5873 0.0
H1474 H 0.17114 0.2185 0.56595 0.0
H1475 H 0.14353 0.19797 0.60974 0.0
H1476 H 0.1075 0.17459 0.62758 0.0
H1477 H 0.07838 0.08315 0.61319 0.0
H1478 H 0.11397 0.10603 0.59516 0.0
H1479 H 0.30438 0.2108 0.58011 0.0
H1480 H 0.2592 0.21754 0.58049 0.0
H1481 H 0.19882 0.11836 0.57698 0.0
H1482 H 0.24446 0.11122 0.5767 0.0
H1483 H 0.17767 0.14381 0.59484 0.0
H1484 H 0.20953 0.16448 0.55216 0.0
H1485 H 0.24624 0.1881 0.53455 0.0
H1486 H 0.26746 0.27918 0.54677 0.0
H1487 H 0.23121 0.25615 0.56458 0.0
C1488 C 0.07362 0.18768 0.58596 0.0
C1489 C 0.08331 0.21954 0.58722 0.0
C1490 C 0.0954 0.17781 0.58424 0.0
C1491 C 0.12742 0.19952 0.58379 0.0
C1492 C 0.1371 0.23133 0.58488 0.0
C1493 C 0.11538 0.24121 0.58659 0.0
C1494 C 0.15098 0.1894 0.58215 0.0
C1495 C 0.17267 0.20236 0.57233 0.0
C1496 C 0.15247 0.16748 0.5902 0.0
C1497 C 0.13113 0.15372 0.60103 0.0
C1498 C 0.12925 0.17289 0.61033 0.0
C1499 C 0.10895 0.15973 0.62048 0.0
C1500 C 0.09059 0.12741 0.6215 0.0
C1501 C 0.09257 0.10818 0.61238 0.0
C1502 C 0.11281 0.12123 0.60219 0.0
C1503 C 0.28159 0.19025 0.57936 0.0
C1504 C 0.27822 0.1604 0.57832 0.0
C1505 C 0.25567 0.19423 0.57953 0.0
C1506 C 0.22553 0.16855 0.57859 0.0
C1507 C 0.22186 0.13858 0.57765 0.0
C1508 C 0.24798 0.13454 0.57744 0.0
C1509 C 0.19823 0.17353 0.57882 0.0
C1510 C 0.17586 0.15963 0.58835 0.0
C1511 C 0.19607 0.19459 0.57051 0.0
C1512 C 0.21777 0.20857 0.55976 0.0
C1513 C 0.22218 0.18956 0.55115 0.0
C1514 C 0.24289 0.20285 0.54112 0.0
C1515 C 0.25921 0.23512 0.53956 0.0
C1516 C 0.25481 0.25418 0.548 0.0
C1517 C 0.23414 0.24102 0.55805 0.0
H1518 H 0.27524 0.24536 0.53179 0.0
H1519 H 0.07488 0.11726 0.62937 0.0
H1520 H 0.82496 0.88349 0.57021 0.0
H1521 H 0.83997 0.93845 0.56931 0.0
H1522 H 0.85058 0.94504 0.60952 0.0
H1523 H 0.83425 0.88954 0.61045 0.0
H1524 H 0.82409 0.9756 0.60307 0.0
H1525 H 0.91452 0.97545 0.58824 0.0
H1526 H 0.94531 0.95924 0.57532 0.0
H1527 H 0.91915 0.98899 0.54208 0.0
H1528 H 0.88783 1.00498 0.55478 0.0
H1529 H 0.90815 0.14253 0.60244 0.0
H1530 H 0.8977 0.08889 0.60414 0.0
H1531 H 0.86001 0.06964 0.56676 0.0
H1532 H 0.86988 0.12308 0.56504 0.0
H1533 H 0.90314 0.04721 0.5726 0.0
H1534 H 0.81087 0.04564 0.58889 0.0
H1535 H 0.78363 0.06394 0.60288 0.0
H1536 H 0.81877 0.03963 0.63501 0.0
H1537 H 0.84662 0.02161 0.62119 0.0
C1538 C 0.83069 0.89675 0.57884 0.0
C1539 C 0.82867 0.88234 0.59039 0.0
C1540 C 0.83941 0.92823 0.57833 0.0
C1541 C 0.84711 0.94625 0.58932 0.0
C1542 C 0.84487 0.93177 0.60089 0.0
C1543 C 0.83558 0.90008 0.60143 0.0
C1544 C 0.8568 0.97996 0.58873 0.0
C1545 C 0.84175 0.99127 0.59654 0.0
C1546 C 0.87968 1.00062 0.58014 0.0
C1547 C 0.8986 0.99117 0.57246 0.0
C1548 C 0.91516 0.97834 0.57816 0.0
C1549 C 0.93273 0.96922 0.57088 0.0
C1550 C 0.93413 0.97302 0.55789 0.0
C1551 C 0.91802 0.98603 0.55215 0.0
C1552 C 0.90038 0.99516 0.55939 0.0
C1553 C 0.89781 0.12695 0.59454 0.0
C1554 C 0.88972 0.13703 0.58361 0.0
C1555 C 0.89181 0.09631 0.59555 0.0
C1556 C 0.87799 0.07532 0.58559 0.0
C1557 C 0.8707 0.08552 0.57455 0.0
C1558 C 0.87624 0.11601 0.5736 0.0
C1559 C 0.87022 0.04242 0.58683 0.0
C1560 C 0.88564 0.03138 0.57916 0.0
C1561 C 0.8482 0.0222 0.59571 0.0
C1562 C 0.83108 0.03258 0.60401 0.0
C1563 C 0.81298 0.04442 0.59894 0.0
C1564 C 0.7974 0.05471 0.60684 0.0
C1565 C 0.79954 0.05304 0.61983 0.0
C1566 C 0.81717 0.04096 0.62495 0.0
C1567 C 0.83284 0.03068 0.61708 0.0
H1568 H 0.78748 0.06103 0.62593 0.0
H1569 H 0.94774 0.96594 0.55227 0.0
H1570 H 0.17185 0.92959 0.58285 0.0
H1571 H 0.11658 0.89242 0.58087 0.0
H1572 H 0.09604 0.96711 0.5834 0.0
H1573 H 0.15141 1.00447 0.58615 0.0
H1574 H 0.0538 0.91899 0.59612 0.0
H1575 H 0.0953 0.93226 0.55483 0.0
H1576 H 0.13152 0.93499 0.53833 0.0
H1577 H 0.10479 0.83948 0.54496 0.0
H1578 H 0.06873 0.83629 0.56163 0.0
H1579 H 0.89599 0.80919 0.57752 0.0
H1580 H 0.94841 0.85529 0.57744 0.0
H1581 H 0.98863 0.79571 0.57735 0.0
H1582 H 0.93707 0.75013 0.57721 0.0
H1583 H 0.01903 0.84212 0.56144 0.0
H1584 H 0.98201 0.83204 0.60452 0.0
H1585 H 0.94531 0.82986 0.6207 0.0
H1586 H 0.96279 0.92051 0.60982 0.0
H1587 H 0.99935 0.92306 0.59348 0.0
C1588 C 0.15569 0.93824 0.58321 0.0
C1589 C 0.16643 0.97027 0.58465 0.0
C1590 C 0.12395 0.91688 0.58188 0.0
C1591 C 0.10197 0.92689 0.5817 0.0
C1592 C 0.11244 0.95872 0.5834 0.0
C1593 C 0.14425 0.98015 0.58485 0.0
C1594 C 0.06824 0.90402 0.5797 0.0
C1595 C 0.04618 0.90254 0.5884 0.0
C1596 C 0.05801 0.88239 0.56966 0.0
C1597 C 0.07945 0.88411 0.55954 0.0
C1598 C 0.09727 0.91189 0.55282 0.0
C1599 C 0.11777 0.91351 0.54343 0.0
C1600 C 0.12049 0.88744 0.54061 0.0
C1601 C 0.10266 0.85966 0.54715 0.0
C1602 C 0.08216 0.85792 0.55656 0.0
C1603 C 0.91603 0.80597 0.57738 0.0
C1604 C 0.91215 0.77583 0.57741 0.0
C1605 C 0.94601 0.83235 0.57741 0.0
C1606 C 0.97262 0.82906 0.57751 0.0
C1607 C 0.96863 0.79901 0.57726 0.0
C1608 C 0.93892 0.77284 0.57723 0.0
C1609 C 1.00484 0.85642 0.57808 0.0
C1610 C 0.02664 0.85882 0.56906 0.0
C1611 C 0.01472 0.87896 0.58777 0.0
C1612 C 0.99315 0.8776 0.59771 0.0
C1613 C 0.97789 0.85143 0.60554 0.0
C1614 C 0.95714 0.85014 0.61475 0.0
C1615 C 0.95166 0.875 0.61627 0.0
C1616 C 0.96702 0.90125 0.60862 0.0
C1617 C 0.98778 0.90265 0.5994 0.0
H1618 H 0.93557 0.87394 0.62339 0.0
H1619 H 0.13638 0.88875 0.53334 0.0
H1620 H 0.45859 0.01869 0.05209 0.0
H1621 H 0.46503 0.01552 0.02963 0.0
H1622 H 0.55923 0.03539 0.03538 0.0
H1623 H 0.55318 0.04004 0.0581 0.0
H1624 H 0.55671 0.06223 0.01443 0.0
H1625 H 0.49884 0.95959 0.03005 0.0
H1626 H 0.45816 0.91592 0.04221 0.0
H1627 H 0.38743 0.91911 0.02032 0.0
H1628 H 0.42765 0.96313 0.00815 0.0
H1629 H 0.54003 1.00422 0.94942 0.0
H1630 H 0.54669 1.00389 0.97235 0.0
H1631 H 0.4706 0.02125 0.97798 0.0
H1632 H 0.4646 0.02264 0.95533 0.0
H1633 H 0.4716 0.96981 0.99324 0.0
H1634 H 0.53336 0.07946 0.98036 0.0
H1635 H 0.5757 0.12163 0.96818 0.0
H1636 H 0.64179 0.10091 0.98494 0.0
H1637 H 0.59969 0.05826 0.99707 0.0
C1638 C 0.48082 0.02269 0.04858 0.0
C1639 C 0.50528 0.02928 0.05686 0.0
C1640 C 0.48442 0.02064 0.03572 0.0
C1641 C 0.51226 0.02411 0.03078 0.0
C1642 C 0.53738 0.03223 0.03896 0.0
C1643 C 0.53396 0.03495 0.05192 0.0
C1644 C 0.51429 0.01854 0.01712 0.0
C1645 C 0.53843 0.04167 0.00986 0.0
C1646 C 0.49068 0.9916 0.01105 0.0
C1647 C 0.46631 0.96479 0.01822 0.0
C1648 C 0.47461 0.95109 0.02787 0.0
C1649 C 0.45162 0.92626 0.03476 0.0
C1650 C 0.42023 0.91477 0.03205 0.0
C1651 C 0.41176 0.92803 0.02241 0.0
C1652 C 0.43465 0.95289 0.01549 0.0
C1653 C 0.52461 0.00763 0.9556 0.0
C1654 C 0.50185 0.01352 0.95063 0.0
C1655 C 0.52851 0.00758 0.96865 0.0
C1656 C 0.50917 0.01264 0.97683 0.0
C1657 C 0.48576 0.01732 0.97184 0.0
C1658 C 0.4824 0.01816 0.9589 0.0
C1659 C 0.51324 0.01391 0.99064 0.0
C1660 C 0.4902 0.98993 0.9979 0.0
C1661 C 0.53813 0.03968 0.99669 0.0
C1662 C 0.56336 0.06543 0.98948 0.0
C1663 C 0.55687 0.08369 0.98134 0.0
C1664 C 0.58083 0.10772 0.97447 0.0
C1665 C 0.6114 0.11387 0.97575 0.0
C1666 C 0.61809 0.09607 0.98393 0.0
C1667 C 0.5942 0.07198 0.99081 0.0
H1668 H 0.62992 0.13249 0.97042 0.0
H1669 H 0.40247 0.89557 0.0374 0.0
H1670 H 0.00862 0.454 0.96096 0.0
H1671 H 1.00708 0.46454 0.98316 0.0
H1672 H 0.0634 0.563 0.97632 0.0
H1673 H 0.06454 0.5527 0.95375 0.0
H1674 H 0.08018 0.53101 0.99822 0.0
H1675 H 0.99906 0.54736 0.98157 0.0
H1676 H 0.95287 0.53284 0.96853 0.0
H1677 H 0.90121 0.44809 0.98937 0.0
H1678 H 0.94727 0.46185 1.00239 0.0
H1679 H 0.06325 0.55545 0.06183 0.0
H1680 H 0.06537 0.56284 0.03912 0.0
H1681 H 0.98032 0.47476 0.03523 0.0
H1682 H 0.97706 0.46875 0.05808 0.0
H1683 H 0.98059 0.50941 0.01794 0.0
H1684 H 0.05833 0.48557 0.03207 0.0
H1685 H 0.10302 0.49329 0.0448 0.0
H1686 H 0.15943 0.58382 0.02861 0.0
H1687 H 0.11494 0.57675 0.01587 0.0
C1688 C 0.02092 0.47798 0.96411 0.0
C1689 C 0.03685 0.50254 0.95554 0.0
C1690 C 0.01987 0.48391 0.97683 0.0
C1691 C 0.03502 0.51449 0.98136 0.0
C1692 C 0.05153 0.5392 0.97296 0.0
C1693 C 0.05212 0.5333 0.9601 0.0
C1694 C 0.03306 0.51997 0.99493 0.0
C1695 C 0.0587 0.52711 1.00255 0.0
C1696 C 1.00462 0.5136 1.00056 0.0
C1697 C 0.9767 0.50555 0.9929 0.0
C1698 C 0.97792 0.52551 0.98331 0.0
C1699 C 0.95175 0.51744 0.97593 0.0
C1700 C 0.92414 0.48953 0.9781 0.0
C1701 C 0.92262 0.46969 0.98769 0.0
C1702 C 0.94874 0.47764 0.99509 0.0
C1703 C 0.0446 0.53817 0.05611 0.0
C1704 C 0.01995 0.5116 0.06163 0.0
C1705 C 0.046 0.54216 0.04311 0.0
C1706 C 0.0236 0.51887 0.03532 0.0
C1707 C 0.99803 0.49306 0.04095 0.0
C1708 C 0.9961 0.4896 0.05401 0.0
C1709 C 0.02776 0.52031 0.0214 0.0
C1710 C 1.0024 0.5141 0.01369 0.0
C1711 C 0.05629 0.52672 0.01569 0.0
C1712 C 0.08325 0.53075 0.02312 0.0
C1713 C 0.08025 0.50716 0.03126 0.0
C1714 C 0.10553 0.51142 0.03847 0.0
C1715 C 0.13403 0.53905 0.03753 0.0
C1716 C 0.13733 0.56244 0.02933 0.0
C1717 C 0.11211 0.55831 0.02211 0.0
H1718 H 0.15355 0.54231 0.04314 0.0
H1719 H 0.90392 0.48331 0.97237 0.0
H1720 H 0.59119 0.55821 0.95856 0.0
H1721 H 0.58139 0.54965 0.981 0.0
H1722 H 0.48697 0.52904 0.97556 0.0
H1723 H 0.4964 0.53672 0.95276 0.0
H1724 H 0.53309 0.58041 0.99554 0.0
H1725 H 0.48515 0.47243 0.98275 0.0
H1726 H 0.48414 0.42881 0.97119 0.0
H1727 H 0.56542 0.44294 0.99092 0.0
H1728 H 0.56721 0.487 1.00246 0.0
H1729 H 0.50362 0.55428 0.05987 0.0
H1730 H 0.49641 0.54778 0.03721 0.0
H1731 H 0.56674 0.52089 0.03514 0.0
H1732 H 0.57234 0.52537 0.05802 0.0
H1733 H 0.52685 0.49039 0.01832 0.0
H1734 H 0.58099 0.59837 0.02908 0.0
H1735 H 0.58985 0.64593 0.04007 0.0
H1736 H 0.5071 0.63735 0.02363 0.0
H1737 H 0.4975 0.58945 0.01268 0.0
C1738 C 0.56825 0.55177 0.96209 0.0
C1739 C 0.54459 0.54836 0.95389 0.0
C1740 C 0.56269 0.54675 0.97492 0.0
C1741 C 0.53351 0.53869 0.97993 0.0
C1742 C 0.50966 0.53518 0.97184 0.0
C1743 C 0.51502 0.5395 0.95885 0.0
C1744 C 0.52896 0.53534 0.99372 0.0
C1745 C 0.53087 0.5604 1.00055 0.0
C1746 C 0.5277 0.50992 1.00021 0.0
C1747 C 0.52645 0.4832 0.99339 0.0
C1748 C 0.50297 0.46643 0.98455 0.0
C1749 C 0.50222 0.44158 0.97801 0.0
C1750 C 0.52474 0.43315 0.9803 0.0
C1751 C 0.548 0.4495 0.98915 0.0
C1752 C 0.54886 0.47439 0.9957 0.0
C1753 C 0.51715 0.54647 0.05458 0.0
C1754 C 0.53868 0.54051 0.06065 0.0
C1755 C 0.51323 0.54301 0.0416 0.0
C1756 C 0.53174 0.53482 0.03431 0.0
C1757 C 0.55226 0.52743 0.04047 0.0
C1758 C 0.5555 0.52998 0.05355 0.0
C1759 C 0.53074 0.5355 0.0203 0.0
C1760 C 0.52831 0.51017 0.01339 0.0
C1761 C 0.53249 0.56118 0.01371 0.0
C1762 C 0.53834 0.59014 0.02018 0.0
C1763 C 0.56458 0.60652 0.02787 0.0
C1764 C 0.56974 0.63354 0.03409 0.0
C1765 C 0.54899 0.6446 0.03258 0.0
C1766 C 0.52311 0.62872 0.02481 0.0
C1767 C 0.5178 0.60164 0.01859 0.0
H1768 H 0.55302 0.66552 0.0374 0.0
H1769 H 0.52413 0.41392 0.97523 0.0
H1770 H 0.22613 0.38265 0.39396 0.0
H1771 H 0.23208 0.37981 0.37114 0.0
H1772 H 0.13248 0.3355 0.36687 0.0
H1773 H 0.1265 0.33724 0.38937 0.0
H1774 H 0.15151 0.30513 0.35385 0.0
H1775 H 0.18652 0.41496 0.35905 0.0
H1776 H 0.22037 0.46769 0.36752 0.0
H1777 H 0.30036 0.46892 0.35134 0.0
H1778 H 0.267 0.41602 0.3429 0.0
H1779 H 0.11933 0.33051 0.29256 0.0
H1780 H 0.12853 0.33122 0.31498 0.0
H1781 H 0.22427 0.35796 0.30785 0.0
H1782 H 0.21515 0.3573 0.28516 0.0
H1783 H 0.21686 0.39504 0.32634 0.0
H1784 H 0.177 0.2866 0.3182 0.0
H1785 H 0.14052 0.23466 0.30967 0.0
H1786 H 0.0662 0.232 0.3314 0.0
H1787 H 0.10211 0.28409 0.33992 0.0
C1788 C 0.20563 0.37252 0.38809 0.0
C1789 C 0.17585 0.35991 0.39349 0.0
C1790 C 0.20901 0.37094 0.37505 0.0
C1791 C 0.1827 0.35734 0.36719 0.0
C1792 C 0.15316 0.34571 0.37264 0.0
C1793 C 0.14978 0.3468 0.38557 0.0
C1794 C 0.18503 0.35417 0.35335 0.0
C1795 C 0.16574 0.3249 0.34786 0.0
C1796 C 0.20432 0.3796 0.34546 0.0
C1797 C 0.22433 0.41141 0.35048 0.0
C1798 C 0.21136 0.42639 0.35738 0.0
C1799 C 0.23044 0.45632 0.36216 0.0
C1800 C 0.26251 0.4716 0.36 0.0
C1801 C 0.27553 0.45702 0.35302 0.0
C1802 C 0.25655 0.42708 0.34824 0.0
C1803 C 0.1423 0.33616 0.29571 0.0
C1804 C 0.16649 0.34377 0.28704 0.0
C1805 C 0.14751 0.33651 0.30856 0.0
C1806 C 0.17706 0.34453 0.31313 0.0
C1807 C 0.20126 0.35166 0.30453 0.0
C1808 C 0.19595 0.351 0.29158 0.0
C1809 C 0.18234 0.34634 0.32692 0.0
C1810 C 0.20308 0.37523 0.33237 0.0
C1811 C 0.16396 0.32069 0.33481 0.0
C1812 C 0.14227 0.28933 0.32967 0.0
C1813 C 0.15284 0.27504 0.32109 0.0
C1814 C 0.13226 0.24555 0.31627 0.0
C1815 C 0.10108 0.23004 0.32 0.0
C1816 C 0.09038 0.24402 0.32853 0.0
C1817 C 0.11085 0.27351 0.33338 0.0
H1818 H 0.08524 0.20715 0.31632 0.0
H1819 H 0.27725 0.49476 0.36371 0.0
H1820 H 0.70024 0.88037 0.39331 0.0
H1821 H 0.70417 0.88838 0.37051 0.0
H1822 H 0.66756 0.78995 0.36488 0.0
H1823 H 0.66455 0.78213 0.38748 0.0
H1824 H 0.7168 0.81979 0.35139 0.0
H1825 H 0.6258 0.82931 0.35847 0.0
H1826 H 0.59565 0.85139 0.36798 0.0
H1827 H 0.66045 0.94136 0.35312 0.0
H1828 H 0.69122 0.91987 0.34365 0.0
H1829 H 0.6638 0.78839 0.28962 0.0
H1830 H 0.6657 0.7953 0.31222 0.0
H1831 H 0.72816 0.89379 0.3078 0.0
H1832 H 0.72674 0.88704 0.28485 0.0
H1833 H 0.67372 0.87314 0.3261 0.0
H1834 H 0.76114 0.85966 0.31701 0.0
H1835 H 0.78739 0.83434 0.30678 0.0
H1836 H 0.72538 0.74837 0.32524 0.0
H1837 H 0.69838 0.77303 0.33542 0.0
C1838 C 0.69242 0.86041 0.38717 0.0
C1839 C 0.68215 0.83063 0.39219 0.0
C1840 C 0.69474 0.865 0.37413 0.0
C1841 C 0.68629 0.83979 0.36589 0.0
C1842 C 0.67459 0.80988 0.37097 0.0
C1843 C 0.6727 0.80539 0.38392 0.0
C1844 C 0.69104 0.84423 0.35203 0.0
C1845 C 0.70718 0.83136 0.34591 0.0
C1846 C 0.67945 0.86015 0.34479 0.0
C1847 C 0.66101 0.87308 0.35049 0.0
C1848 C 0.63376 0.85386 0.35732 0.0
C1849 C 0.61654 0.86625 0.36269 0.0
C1850 C 0.62619 0.89778 0.36119 0.0
C1851 C 0.65304 0.91696 0.3543 0.0
C1852 C 0.67038 0.90469 0.34892 0.0
C1853 C 0.67792 0.81165 0.29335 0.0
C1854 C 0.69516 0.83719 0.28536 0.0
C1855 C 0.67896 0.81551 0.30633 0.0
C1856 C 0.69705 0.84501 0.3117 0.0
C1857 C 0.71397 0.87081 0.30382 0.0
C1858 C 0.71328 0.86689 0.29074 0.0
C1859 C 0.69863 0.84797 0.32559 0.0
C1860 C 0.68374 0.86214 0.33168 0.0
C1861 C 0.71104 0.83294 0.33284 0.0
C1862 C 0.7276 0.81817 0.32691 0.0
C1863 C 0.75296 0.8353 0.31882 0.0
C1864 C 0.768 0.82107 0.31304 0.0
C1865 C 0.75803 0.78975 0.31534 0.0
C1866 C 0.73307 0.77263 0.32346 0.0
C1867 C 0.71791 0.78673 0.32926 0.0
H1868 H 0.76964 0.77874 0.31083 0.0
H1869 H 0.61281 0.90733 0.36535 0.0
H1870 H 0.16872 0.84318 0.28434 0.0
H1871 H 0.16311 0.83212 0.30698 0.0
H1872 H 0.24873 0.91772 0.31371 0.0
H1873 H 0.25438 0.929 0.29144 0.0
H1874 H 0.2477 0.86639 0.32451 0.0
H1875 H 0.18097 0.91202 0.32107 0.0
H1876 H 0.13566 0.91434 0.31303 0.0
H1877 H 0.07432 0.8232 0.32778 0.0
H1878 H 0.11935 0.82019 0.33577 0.0
H1879 H 0.26734 0.91633 0.38617 0.0
H1880 H 0.25836 0.90782 0.36381 0.0
H1881 H 0.17128 0.82387 0.37086 0.0
H1882 H 0.17997 0.83254 0.39356 0.0
H1883 H 0.16533 0.8602 0.35287 0.0
H1884 H 0.23136 0.81807 0.35933 0.0
H1885 H 0.27641 0.81556 0.36754 0.0
H1886 H 0.33846 0.89795 0.34696 0.0
H1887 H 0.29382 0.90126 0.33877 0.0
C1888 C 0.18603 0.85986 0.29068 0.0
C1889 C 0.21211 0.88687 0.28602 0.0
C1890 C 0.18284 0.85347 0.30361 0.0
C1891 C 0.2057 0.87397 0.31203 0.0
C1892 C 0.23099 0.9014 0.3074 0.0
C1893 C 0.2341 0.90784 0.29461 0.0
C1894 C 0.20463 0.86687 0.32562 0.0
C1895 C 0.2297 0.86505 0.33072 0.0
C1896 C 0.18052 0.86384 0.33365 0.0
C1897 C 0.15352 0.86571 0.32887 0.0
C1898 C 0.15784 0.89236 0.32249 0.0
C1899 C 0.13221 0.89382 0.31797 0.0
C1900 C 0.10213 0.86888 0.31985 0.0
C1901 C 0.09763 0.84247 0.3263 0.0
C1902 C 0.12319 0.84087 0.33083 0.0
C1903 C 0.24634 0.89584 0.38305 0.0
C1904 C 0.2244 0.87508 0.39172 0.0
C1905 C 0.24129 0.89094 0.3702 0.0
C1906 C 0.21429 0.86503 0.3656 0.0
C1907 C 0.19235 0.84397 0.37418 0.0
C1908 C 0.19745 0.84884 0.38715 0.0
C1909 C 0.20916 0.86109 0.35181 0.0
C1910 C 0.18297 0.86076 0.34666 0.0
C1911 C 0.23218 0.86196 0.34366 0.0
C1912 C 0.25919 0.85997 0.34847 0.0
C1913 C 0.25462 0.83577 0.35661 0.0
C1914 C 0.28009 0.83419 0.36125 0.0
C1915 C 0.31028 0.8566 0.35778 0.0
C1916 C 0.31506 0.8806 0.34964 0.0
C1917 C 0.28967 0.8823 0.34497 0.0
H1918 H 0.32997 0.85535 0.36139 0.0
H1919 H 0.08232 0.87007 0.31634 0.0
H1920 H 0.82716 0.64434 0.72378 0.0
H1921 H 0.83384 0.64568 0.70105 0.0
H1922 H 0.87967 0.7459 0.70178 0.0
H1923 H 0.87348 0.74471 0.72469 0.0
H1924 H 0.82972 0.7179 0.68481 0.0
H1925 H 0.92118 0.71348 0.69463 0.0
H1926 H 0.95273 0.69362 0.70442 0.0
H1927 H 0.89841 0.6058 0.68584 0.0
H1928 H 0.86618 0.62497 0.67607 0.0
H1929 H 0.86521 0.74215 0.62096 0.0
H1930 H 0.87123 0.74247 0.64358 0.0
H1931 H 0.83392 0.64311 0.64318 0.0
H1932 H 0.82837 0.64271 0.62026 0.0
H1933 H 0.88093 0.67105 0.66007 0.0
H1934 H 0.78805 0.67382 0.65107 0.0
H1935 H 0.75627 0.69304 0.64097 0.0
H1936 H 0.81176 0.78241 0.65826 0.0
H1937 H 0.84419 0.76387 0.66832 0.0
C1938 C 0.83913 0.66673 0.71914 0.0
C1939 C 0.84974 0.69445 0.72603 0.0
C1940 C 0.84303 0.66744 0.70613 0.0
C1941 C 0.85727 0.69587 0.69968 0.0
C1942 C 0.86866 0.72369 0.70656 0.0
C1943 C 0.86527 0.72301 0.71965 0.0
C1944 C 0.85791 0.69619 0.68571 0.0
C1945 C 0.84142 0.70818 0.6794 0.0
C1946 C 0.87218 0.68245 0.67864 0.0
C1947 C 0.89108 0.67059 0.6847 0.0
C1948 C 0.91572 0.68982 0.69273 0.0
C1949 C 0.93381 0.67872 0.69824 0.0
C1950 C 0.92763 0.6485 0.69572 0.0
C1951 C 0.90324 0.62925 0.68774 0.0
C1952 C 0.88505 0.64022 0.68222 0.0
C1953 C 0.85845 0.7203 0.62562 0.0
C1954 C 0.84592 0.6923 0.61878 0.0
C1955 C 0.86186 0.72054 0.63861 0.0
C1956 C 0.85236 0.69274 0.64518 0.0
C1957 C 0.84123 0.66487 0.63834 0.0
C1958 C 0.83807 0.66464 0.62524 0.0
C1959 C 0.8529 0.69294 0.65918 0.0
C1960 C 0.86937 0.6809 0.66548 0.0
C1961 C 0.83837 0.70638 0.66629 0.0
C1962 C 0.81874 0.71754 0.66035 0.0
C1963 C 0.79362 0.69764 0.65265 0.0
C1964 C 0.77547 0.70841 0.64694 0.0
C1965 C 0.78205 0.73895 0.64894 0.0
C1966 C 0.80673 0.75877 0.6567 0.0
C1967 C 0.82499 0.74814 0.66241 0.0
H1968 H 0.76798 0.74724 0.64451 0.0
H1969 H 0.94166 0.63995 0.69999 0.0
H1970 H 0.3397 0.12181 0.62265 0.0
H1971 H 0.33834 0.12874 0.64511 0.0
H1972 H 0.38779 0.22843 0.64036 0.0
H1973 H 0.3901 0.22155 0.61757 0.0
H1974 H 0.40803 0.21313 0.66079 0.0
H1975 H 0.30863 0.18861 0.64604 0.0
H1976 H 0.26 0.16032 0.63399 0.0
H1977 H 0.23538 0.07693 0.65462 0.0
H1978 H 0.28409 0.10457 0.66666 0.0
H1979 H 0.36732 0.21434 0.72629 0.0
H1980 H 0.3685 0.22327 0.70357 0.0
H1981 H 0.3368 0.12619 0.69682 0.0
H1982 H 0.33608 0.11729 0.71933 0.0
H1983 H 0.30626 0.15063 0.68217 0.0
H1984 H 0.41064 0.1774 0.69543 0.0
H1985 H 0.45918 0.20817 0.70729 0.0
H1986 H 0.4739 0.29151 0.68903 0.0
H1987 H 0.42487 0.26141 0.67742 0.0
C1988 C 0.35035 0.1453 0.62632 0.0
C1989 C 0.36464 0.17115 0.61827 0.0
C1990 C 0.34942 0.14922 0.63922 0.0
C1991 C 0.36211 0.17908 0.64446 0.0
C1992 C 0.3775 0.20512 0.63653 0.0
C1993 C 0.37884 0.20119 0.62353 0.0
C1994 C 0.35888 0.1824 0.6582 0.0
C1995 C 0.38567 0.20003 0.66544 0.0
C1996 C 0.3297 0.1654 0.66434 0.0
C1997 C 0.30013 0.14867 0.65722 0.0
C1998 C 0.29293 0.1642 0.64796 0.0
C1999 C 0.26534 0.14827 0.64114 0.0
C2000 C 0.24463 0.11684 0.64353 0.0
C2001 C 0.25144 0.10128 0.65278 0.0
C2002 C 0.27902 0.11709 0.65962 0.0
C2003 C 0.36015 0.19486 0.71995 0.0
C2004 C 0.35164 0.16511 0.72458 0.0
C2005 C 0.36101 0.20003 0.70698 0.0
C2006 C 0.35291 0.17541 0.6985 0.0
C2007 C 0.34316 0.14551 0.70318 0.0
C2008 C 0.34282 0.14048 0.71606 0.0
C2009 C 0.35549 0.18042 0.68472 0.0
C2010 C 0.3285 0.16429 0.67748 0.0
C2011 C 0.38438 0.19922 0.67863 0.0
C2012 C 0.41377 0.21722 0.68571 0.0
C2013 C 0.42395 0.20236 0.6941 0.0
C2014 C 0.45158 0.21969 0.70078 0.0
C2015 C 0.46951 0.25183 0.699 0.0
C2016 C 0.45989 0.26667 0.6905 0.0
C2017 C 0.43213 0.2495 0.68389 0.0
H2018 H 0.49093 0.26521 0.70416 0.0
H2019 H 0.22329 0.10455 0.63823 0.0
H2020 H 0.90456 0.26554 0.62514 0.0
H2021 H 0.9 0.2566 0.64767 0.0
H2022 H 0.83925 0.15832 0.64148 0.0
H2023 H 0.84323 0.16732 0.61871 0.0
H2024 H 0.82218 0.17903 0.66265 0.0
H2025 H 0.91384 0.18373 0.64671 0.0
H2026 H 0.96208 0.20498 0.63423 0.0
H2027 H 1.00236 0.28887 0.65612 0.0
H2028 H 0.95413 0.26838 0.66859 0.0
H2029 H 0.86154 0.16126 0.72725 0.0
H2030 H 0.85539 0.15391 0.70435 0.0
H2031 H 0.90283 0.25341 0.69931 0.0
H2032 H 0.90848 0.26088 0.7219 0.0
H2033 H 0.9246 0.22093 0.68355 0.0
H2034 H 0.82879 0.21695 0.69735 0.0
H2035 H 0.78003 0.19471 0.70954 0.0
H2036 H 0.74791 0.10622 0.69163 0.0
H2037 H 0.79674 0.12786 0.67946 0.0
C2038 C 0.88974 0.24207 0.62855 0.0
C2039 C 0.87449 0.2171 0.62015 0.0
C2040 C 0.88725 0.23696 0.64145 0.0
C2041 C 0.86995 0.20668 0.64628 0.0
C2042 C 0.85292 0.18186 0.63797 0.0
C2043 C 0.85513 0.18704 0.62497 0.0
C2044 C 0.87176 0.20131 0.65989 0.0
C2045 C 0.84451 0.1876 0.66719 0.0
C2046 C 0.90089 0.21233 0.66585 0.0
C2047 C 0.93026 0.22456 0.65855 0.0
C2048 C 0.93292 0.20678 0.64883 0.0
C2049 C 0.96026 0.21869 0.64175 0.0
C2050 C 0.98525 0.24827 0.64437 0.0
C2051 C 0.98298 0.26596 0.6541 0.0
C2052 C 0.95564 0.25419 0.66119 0.0
C2053 C 0.87069 0.18149 0.72123 0.0
C2054 C 0.88535 0.21164 0.72639 0.0
C2055 C 0.86708 0.17727 0.70818 0.0
C2056 C 0.87863 0.20315 0.70015 0.0
C2057 C 0.89376 0.23313 0.70532 0.0
C2058 C 0.89684 0.23733 0.71827 0.0
C2059 C 0.87517 0.1997 0.68632 0.0
C2060 C 0.90222 0.21175 0.67897 0.0
C2061 C 0.84589 0.18681 0.68036 0.0
C2062 C 0.81656 0.17389 0.68763 0.0
C2063 C 0.81146 0.19266 0.69611 0.0
C2064 C 0.78379 0.18019 0.70299 0.0
C2065 C 0.76093 0.14904 0.7014 0.0
C2066 C 0.76567 0.13032 0.69288 0.0
C2067 C 0.79333 0.14268 0.68599 0.0
H2068 H 0.73951 0.13942 0.70673 0.0
H2069 H 1.00639 0.25747 0.63887 0.0
H2070 H 0.25729 0.94154 0.20581 0.0
H2071 H 0.2933 0.96208 0.18791 0.0
H2072 H 0.32843 0.90051 0.19678 0.0
H2073 H 0.29317 0.88051 0.21464 0.0
H2074 H 0.37533 0.95623 0.19345 0.0
H2075 H 0.28243 0.89029 0.17031 0.0
H2076 H 0.22821 0.86966 0.16346 0.0
H2077 H 0.25096 0.96004 0.14988 0.0
H2078 H 0.30526 0.98129 0.15678 0.0
H2079 H 0.46639 0.98176 0.13712 0.0
H2080 H 0.43059 0.96087 0.15509 0.0
H2081 H 0.39504 0.02229 0.14659 0.0
H2082 H 0.43005 0.04255 0.12864 0.0
H2083 H 0.34836 0.96626 0.14973 0.0
H2084 H 0.44185 0.03187 0.17285 0.0
H2085 H 0.49602 0.05173 0.17959 0.0
H2086 H 0.47204 0.96099 0.19314 0.0
H2087 H 0.41779 0.94049 0.18633 0.0
C2088 C 0.27216 0.93188 0.20373 0.0
C2089 C 0.2723 0.90938 0.21167 0.0
C2090 C 0.29288 0.94372 0.19351 0.0
C2091 C 0.31385 0.93298 0.19095 0.0
C2092 C 0.31286 0.90949 0.19856 0.0
C2093 C 0.29244 0.8979 0.20876 0.0
C2094 C 0.33793 0.94706 0.18081 0.0
C2095 C 0.3693 0.95802 0.18385 0.0
C2096 C 0.33045 0.95013 0.1683 0.0
C2097 C 0.29782 0.93744 0.16418 0.0
C2098 C 0.2758 0.90582 0.16596 0.0
C2099 C 0.24508 0.894 0.16204 0.0
C2100 C 0.23612 0.91355 0.15628 0.0
C2101 C 0.25791 0.94494 0.15437 0.0
C2102 C 0.28867 0.95687 0.15827 0.0
C2103 C 0.45151 0.99133 0.13931 0.0
C2104 C 0.45112 0.01385 0.13146 0.0
C2105 C 0.4309 0.97929 0.14956 0.0
C2106 C 0.40984 0.98986 0.15224 0.0
C2107 C 0.41068 0.01343 0.14472 0.0
C2108 C 0.43094 0.02519 0.13448 0.0
C2109 C 0.38577 0.97552 0.16237 0.0
C2110 C 0.35439 0.96448 0.15932 0.0
C2111 C 0.39324 0.97229 0.17486 0.0
C2112 C 0.42584 0.98458 0.17895 0.0
C2113 C 0.44819 0.01609 0.17717 0.0
C2114 C 0.47889 0.02747 0.18103 0.0
C2115 C 0.48748 0.00761 0.18676 0.0
C2116 C 0.46536 0.97634 0.18868 0.0
C2117 C 0.43463 0.96483 0.18483 0.0
H2118 H 0.51126 0.01647 0.18974 0.0
H2119 H 0.21233 0.90436 0.15325 0.0
H2120 H 0.01876 0.41203 0.12769 0.0
H2121 H 0.03897 0.39733 0.14549 0.0
H2122 H 0.07774 0.49008 0.16058 0.0
H2123 H 0.05777 0.50527 0.14245 0.0
H2124 H 0.12001 0.47084 0.16084 0.0
H2125 H 0.01427 0.42701 0.17438 0.0
H2126 H 0.95722 0.39579 0.17247 0.0
H2127 H 0.9633 0.31329 0.16663 0.0
H2128 H 0.02045 0.34408 0.16833 0.0
H2129 H 0.16024 0.4372 0.21981 0.0
H2130 H 0.13935 0.45143 0.20214 0.0
H2131 H 0.09857 0.35787 0.18771 0.0
H2132 H 0.11902 0.34306 0.20579 0.0
H2133 H 0.05724 0.37739 0.18707 0.0
H2134 H 0.16257 0.4207 0.17337 0.0
H2135 H 0.2197 0.45157 0.17504 0.0
H2136 H 0.21453 0.53458 0.18087 0.0
H2137 H 0.15732 0.50414 0.1794 0.0
C2138 C 0.03118 0.42932 0.13486 0.0
C2139 C 0.03656 0.4599 0.13361 0.0
C2140 C 0.04267 0.42076 0.14511 0.0
C2141 C 0.05976 0.44243 0.1545 0.0
C2142 C 0.06457 0.47286 0.15349 0.0
C2143 C 0.0529 0.48148 0.14318 0.0
C2144 C 0.07384 0.43346 0.16493 0.0
C2145 C 0.10617 0.45073 0.16672 0.0
C2146 C 0.05608 0.40653 0.17235 0.0
C2147 C 0.02169 0.38792 0.17138 0.0
C2148 C 1.00347 0.40225 0.17259 0.0
C2149 C 0.97111 0.38462 0.17157 0.0
C2150 C 0.95665 0.35259 0.1694 0.0
C2151 C 0.97453 0.33811 0.16829 0.0
C2152 C 1.00691 0.35563 0.1693 0.0
C2153 C 0.14718 0.41957 0.21283 0.0
C2154 C 0.1414 0.38888 0.21427 0.0
C2155 C 0.13531 0.42789 0.20264 0.0
C2156 C 0.11754 0.40592 0.19344 0.0
C2157 C 0.11226 0.37534 0.19465 0.0
C2158 C 0.12419 0.36693 0.20493 0.0
C2159 C 0.10342 0.41481 0.183 0.0
C2160 C 0.07109 0.39752 0.18119 0.0
C2161 C 0.1212 0.44167 0.17553 0.0
C2162 C 0.15562 0.46007 0.17638 0.0
C2163 C 0.17359 0.4455 0.1751 0.0
C2164 C 0.206 0.46293 0.176 0.0
C2165 C 0.22073 0.495 0.17809 0.0
C2166 C 0.20308 0.50973 0.17926 0.0
C2167 C 0.17067 0.4924 0.17838 0.0
H2168 H 0.24581 0.50845 0.17878 0.0
H2169 H 0.93159 0.33898 0.16861 0.0
H2170 H 0.7129 0.77737 0.20843 0.0
H2171 H 0.68926 0.74103 0.19093 0.0
H2172 H 0.60859 0.75214 0.19316 0.0
H2173 H 0.63278 0.78949 0.21053 0.0
H2174 H 0.59723 0.68673 0.19353 0.0
H2175 H 0.64756 0.77998 0.1691 0.0
H2176 H 0.69129 0.83059 0.1624 0.0
H2177 H 0.74382 0.78657 0.15199 0.0
H2178 H 0.70057 0.73574 0.15881 0.0
H2179 H 0.53296 0.59003 0.13802 0.0
H2180 H 0.5483 0.62807 0.1552 0.0
H2181 H 0.64392 0.65131 0.15043 0.0
H2182 H 0.6288 0.61439 0.13314 0.0
H2183 H 0.64258 0.702 0.1509 0.0
H2184 H 0.59615 0.61038 0.17676 0.0
H2185 H 0.55458 0.55942 0.18428 0.0
H2186 H 0.49695 0.59906 0.19276 0.0
H2187 H 0.53804 0.6502 0.18512 0.0
C2188 C 0.69053 0.77279 0.20494 0.0
C2189 C 0.67496 0.78671 0.21068 0.0
C2190 C 0.67693 0.75184 0.195 0.0
C2191 C 0.64708 0.74371 0.19075 0.0
C2192 C 0.63164 0.75806 0.19629 0.0
C2193 C 0.64564 0.7797 0.20608 0.0
C2194 C 0.632 0.71934 0.18086 0.0
C2195 C 0.60668 0.69018 0.18411 0.0
C2196 C 0.64483 0.72356 0.16869 0.0
C2197 C 0.67091 0.75408 0.16457 0.0
C2198 C 0.66854 0.78113 0.16549 0.0
C2199 C 0.69322 0.80985 0.16165 0.0
C2200 C 0.72034 0.8118 0.1568 0.0
C2201 C 0.72281 0.78502 0.15576 0.0
C2202 C 0.6982 0.75624 0.1596 0.0
C2203 C 0.55707 0.60261 0.14093 0.0
C2204 C 0.57965 0.59908 0.13428 0.0
C2205 C 0.56591 0.62453 0.15072 0.0
C2206 C 0.59743 0.64291 0.15417 0.0
C2207 C 0.61955 0.63787 0.14795 0.0
C2208 C 0.61083 0.61647 0.13811 0.0
C2209 C 0.6081 0.66879 0.16358 0.0
C2210 C 0.63272 0.6984 0.16025 0.0
C2211 C 0.59482 0.66478 0.17571 0.0
C2212 C 0.57001 0.63401 0.18021 0.0
C2213 C 0.57449 0.60816 0.18011 0.0
C2214 C 0.55104 0.57926 0.18442 0.0
C2215 C 0.52309 0.57597 0.18895 0.0
C2216 C 0.51857 0.60161 0.18921 0.0
C2217 C 0.54194 0.63056 0.1849 0.0
H2218 H 0.50498 0.55358 0.1923 0.0
H2219 H 0.73942 0.83406 0.15382 0.0
H2220 H 0.04811 0.45399 0.87597 0.0
H2221 H 0.03225 0.41785 0.85813 0.0
H2222 H 0.93598 0.38794 0.86597 0.0
H2223 H 0.95162 0.42323 0.88383 0.0
H2224 H 0.9416 0.33911 0.86302 0.0
H2225 H 0.97647 0.43368 0.83974 0.0
H2226 H 0.01353 0.48737 0.83312 0.0
H2227 H 0.07756 0.4585 0.82056 0.0
H2228 H 0.04103 0.40468 0.82726 0.0
H2229 H 0.87639 0.25033 0.80645 0.0
H2230 H 0.89209 0.28568 0.82456 0.0
H2231 H 0.98845 0.31613 0.81662 0.0
H2232 H 0.9729 0.28173 0.79844 0.0
H2233 H 0.98269 0.36464 0.81967 0.0
H2234 H 0.94724 0.26969 0.84286 0.0
H2235 H 0.90987 0.21608 0.84947 0.0
H2236 H 0.84653 0.2457 0.86218 0.0
H2237 H 0.88336 0.29943 0.85549 0.0
C2238 C 0.02365 0.44025 0.87367 0.0
C2239 C 1.00116 0.44153 0.88131 0.0
C2240 C 0.01453 0.41947 0.86349 0.0
C2241 C 0.98279 0.39995 0.86065 0.0
C2242 C 0.96054 0.4024 0.86797 0.0
C2243 C 0.96958 0.42282 0.87816 0.0
C2244 C 0.97239 0.37583 0.85054 0.0
C2245 C 0.95033 0.34482 0.8535 0.0
C2246 C 0.98416 0.38289 0.83815 0.0
C2247 C 1.00615 0.41523 0.83412 0.0
C2248 C 0.99856 0.43883 0.83566 0.0
C2249 C 0.01945 0.46927 0.83188 0.0
C2250 C 0.04792 0.47636 0.82646 0.0
C2251 C 0.05552 0.45299 0.82478 0.0
C2252 C 0.03472 0.42251 0.82856 0.0
C2253 C 0.90082 0.26393 0.80881 0.0
C2254 C 0.92339 0.26317 0.80106 0.0
C2255 C 0.90986 0.28428 0.81914 0.0
C2256 C 0.94159 0.30381 0.82201 0.0
C2257 C 0.9639 0.30167 0.8146 0.0
C2258 C 0.95494 0.28175 0.80425 0.0
C2259 C 0.95194 0.32786 0.83215 0.0
C2260 C 0.97398 0.35889 0.82919 0.0
C2261 C 0.9401 0.32081 0.84454 0.0
C2262 C 0.91793 0.28851 0.84855 0.0
C2263 C 0.92524 0.26472 0.84697 0.0
C2264 C 0.90417 0.23432 0.85075 0.0
C2265 C 0.87581 0.22747 0.85621 0.0
C2266 C 0.86849 0.25103 0.85793 0.0
C2267 C 0.88946 0.28146 0.85416 0.0
H2268 H 0.85953 0.20393 0.85913 0.0
H2269 H 0.06406 0.49994 0.82353 0.0
H2270 H 0.59249 0.60609 0.87403 0.0
H2271 H 0.62853 0.62714 0.85616 0.0
H2272 H 0.66538 0.5671 0.86517 0.0
H2273 H 0.63008 0.54659 0.883 0.0
H2274 H 0.71159 0.62337 0.86159 0.0
H2275 H 0.61813 0.55543 0.83891 0.0
H2276 H 0.56362 0.53432 0.83237 0.0
H2277 H 0.58547 0.62404 0.8183 0.0
H2278 H 0.64004 0.64577 0.8249 0.0
H2279 H 0.80298 0.64817 0.80566 0.0
H2280 H 0.76715 0.62766 0.82361 0.0
H2281 H 0.72845 0.68557 0.81363 0.0
H2282 H 0.76332 0.70519 0.79562 0.0
H2283 H 0.68314 0.63054 0.81779 0.0
H2284 H 0.77663 0.69861 0.84032 0.0
H2285 H 0.83108 0.72 0.84698 0.0
H2286 H 0.80934 0.6307 0.8615 0.0
H2287 H 0.75483 0.60867 0.85477 0.0
C2288 C 0.60779 0.59691 0.87201 0.0
C2289 C 0.60834 0.57464 0.87996 0.0
C2290 C 0.62852 0.60903 0.8618 0.0
C2291 C 0.64991 0.59882 0.85926 0.0
C2292 C 0.64945 0.57567 0.86693 0.0
C2293 C 0.62903 0.56378 0.87711 0.0
C2294 C 0.67374 0.61295 0.84902 0.0
C2295 C 0.70527 0.62457 0.85198 0.0
C2296 C 0.66586 0.61532 0.8365 0.0
C2297 C 0.63309 0.60229 0.83251 0.0
C2298 C 0.61125 0.5707 0.83451 0.0
C2299 C 0.58036 0.55862 0.83077 0.0
C2300 C 0.57107 0.57785 0.82495 0.0
C2301 C 0.59268 0.60918 0.82282 0.0
C2302 C 0.6236 0.62139 0.82655 0.0
C2303 C 0.78732 0.65702 0.8075 0.0
C2304 C 0.78608 0.67837 0.79923 0.0
C2305 C 0.76672 0.64522 0.81776 0.0
C2306 C 0.74487 0.65498 0.82007 0.0
C2307 C 0.74472 0.67734 0.81208 0.0
C2308 C 0.7649 0.68875 0.8018 0.0
C2309 C 0.72107 0.64104 0.83035 0.0
C2310 C 0.68952 0.62941 0.8274 0.0
C2311 C 0.72896 0.63873 0.84289 0.0
C2312 C 0.76172 0.65192 0.84692 0.0
C2313 C 0.78352 0.68348 0.84484 0.0
C2314 C 0.81438 0.69573 0.84865 0.0
C2315 C 0.82368 0.6767 0.85463 0.0
C2316 C 0.80211 0.6454 0.85685 0.0
C2317 C 0.77123 0.63303 0.85305 0.0
H2318 H 0.84759 0.68623 0.85757 0.0
H2319 H 0.54714 0.56845 0.82207 0.0
H2320 H 0.4392 0.17295 0.79634 0.0
H2321 H 0.45474 0.15195 0.81371 0.0
H2322 H 0.35865 0.08339 0.82045 0.0
H2323 H 0.34284 0.10512 0.80316 0.0
H2324 H 0.38881 0.10243 0.84208 0.0
H2325 H 0.40839 0.06684 0.80321 0.0
H2326 H 0.42985 0.07245 0.78187 0.0
H2327 H 0.52255 0.12625 0.79629 0.0
H2328 H 0.50164 0.12145 0.81771 0.0
H2329 H 0.41678 1.00163 0.87823 0.0
H2330 H 0.40157 0.02197 0.86051 0.0
H2331 H 0.49768 0.09104 0.85416 0.0
H2332 H 0.51314 0.06983 0.87178 0.0
H2333 H 0.46761 0.07164 0.83222 0.0
H2334 H 0.4469 0.10761 0.87122 0.0
H2335 H 0.4243 0.10154 0.89237 0.0
H2336 H 0.33256 0.04558 0.87737 0.0
H2337 H 0.35454 0.05108 0.85613 0.0
C2338 C 0.42126 0.15378 0.80168 0.0
C2339 C 0.38976 0.14064 0.79835 0.0
C2340 C 0.43024 0.14158 0.81155 0.0
C2341 C 0.40803 0.11543 0.81819 0.0
C2342 C 0.37632 0.1034 0.8154 0.0
C2343 C 0.36724 0.11593 0.80557 0.0
C2344 C 0.41812 0.10016 0.82769 0.0
C2345 C 0.40572 0.09533 0.83985 0.0
C2346 C 0.44071 0.09136 0.82492 0.0
C2347 C 0.45341 0.09396 0.81207 0.0
C2348 C 0.43334 0.08003 0.80183 0.0
C2349 C 0.44541 0.08306 0.78972 0.0
C2350 C 0.47753 0.09967 0.78774 0.0
C2351 C 0.49767 0.11336 0.79785 0.0
C2352 C 0.48572 0.11048 0.80998 0.0
C2353 C 0.43478 0.02072 0.87289 0.0
C2354 C 0.46617 0.03417 0.87641 0.0
C2355 C 0.42602 0.03256 0.86281 0.0
C2356 C 0.44831 0.05873 0.85618 0.0
C2357 C 0.47995 0.07102 0.85918 0.0
C2358 C 0.48883 0.05879 0.8692 0.0
C2359 C 0.43829 0.07393 0.84661 0.0
C2360 C 0.45072 0.07876 0.83444 0.0
C2361 C 0.41561 0.08262 0.84934 0.0
C2362 C 0.40239 0.07956 0.8621 0.0
C2363 C 0.42192 0.09388 0.87244 0.0
C2364 C 0.40923 0.09055 0.88444 0.0
C2365 C 0.37707 0.07311 0.88622 0.0
C2366 C 0.35748 0.05906 0.87598 0.0
C2367 C 0.37003 0.06231 0.86396 0.0
H2368 H 0.36733 0.07056 0.89552 0.0
H2369 H 0.48682 0.10181 0.77838 0.0
H2370 H 0.92611 0.27184 0.54065 0.0
H2371 H 0.96293 0.29275 0.52304 0.0
H2372 H 0.99888 0.23227 0.53266 0.0
H2373 H 0.96297 0.21213 0.55033 0.0
H2374 H 0.0453 0.28739 0.52931 0.0
H2375 H 0.95314 0.22198 0.50565 0.0
H2376 H 0.89917 0.2016 0.49853 0.0
H2377 H 0.92263 0.29221 0.485 0.0
H2378 H 0.97667 0.31323 0.49219 0.0
H2379 H 0.13849 0.31508 0.47342 0.0
H2380 H 0.10203 0.29335 0.49115 0.0
H2381 H 0.06665 0.35502 0.48288 0.0
H2382 H 0.10235 0.37616 0.46518 0.0
H2383 H 0.01996 0.29855 0.48547 0.0
H2384 H 0.11243 0.3637 0.50929 0.0
H2385 H 0.16636 0.38346 0.51634 0.0
H2386 H 0.14215 0.29231 0.52944 0.0
H2387 H 0.08815 0.2719 0.52231 0.0
C2388 C 0.94135 0.2625 0.5388 0.0
C2389 C 0.94154 0.24029 0.54689 0.0
C2390 C 0.96252 0.27453 0.52874 0.0
C2391 C 0.98391 0.26418 0.52645 0.0
C2392 C 0.98298 0.24095 0.53422 0.0
C2393 C 0.96219 0.22925 0.5443 0.0
C2394 C 0.00835 0.27844 0.51645 0.0
C2395 C 0.03962 0.2894 0.51968 0.0
C2396 C 1.00134 0.28182 0.5039 0.0
C2397 C 0.96887 0.26924 0.49957 0.0
C2398 C 0.94673 0.23761 0.50125 0.0
C2399 C 0.91614 0.22593 0.49718 0.0
C2400 C 0.90746 0.24561 0.49134 0.0
C2401 C 0.92937 0.277 0.48953 0.0
C2402 C 0.95999 0.2888 0.49359 0.0
C2403 C 0.1235 0.32453 0.47562 0.0
C2404 C 0.12337 0.34739 0.46791 0.0
C2405 C 0.10252 0.312 0.48573 0.0
C2406 C 0.08133 0.32241 0.48839 0.0
C2407 C 0.0824 0.3463 0.48102 0.0
C2408 C 0.10305 0.35856 0.47092 0.0
C2409 C 0.05688 0.30757 0.49834 0.0
C2410 C 0.02561 0.29649 0.49509 0.0
C2411 C 0.06389 0.30398 0.51086 0.0
C2412 C 0.09634 0.31621 0.51514 0.0
C2413 C 0.11867 0.34782 0.51358 0.0
C2414 C 0.14924 0.35914 0.51761 0.0
C2415 C 0.1577 0.33914 0.5233 0.0
C2416 C 0.13558 0.30777 0.52501 0.0
C2417 C 0.10499 0.29632 0.52098 0.0
H2418 H 0.18137 0.34795 0.52642 0.0
H2419 H 0.88376 0.23653 0.4882 0.0
H2420 H 0.77611 0.83621 0.46136 0.0
H2421 H 0.79197 0.81633 0.47898 0.0
H2422 H 0.69626 0.761 0.49061 0.0
H2423 H 0.68008 0.78127 0.47288 0.0
H2424 H 0.73638 0.78628 0.51086 0.0
H2425 H 0.73124 0.7289 0.47343 0.0
H2426 H 0.74374 0.72385 0.45145 0.0
H2427 H 0.84093 0.76919 0.46043 0.0
H2428 H 0.82907 0.77493 0.48243 0.0
H2429 H 0.75007 0.68027 0.54923 0.0
H2430 H 0.73654 0.70206 0.53155 0.0
H2431 H 0.833 0.75359 0.5205 0.0
H2432 H 0.8468 0.73137 0.53832 0.0
H2433 H 0.79439 0.73179 0.49996 0.0
H2434 H 0.80238 0.7904 0.53643 0.0
H2435 H 0.79323 0.79874 0.55845 0.0
H2436 H 0.69516 0.75542 0.55147 0.0
H2437 H 0.70371 0.74657 0.5294 0.0
C2438 C 0.75834 0.82015 0.46775 0.0
C2439 C 0.72672 0.81018 0.46562 0.0
C2440 C 0.76751 0.80865 0.47781 0.0
C2441 C 0.74532 0.78651 0.48599 0.0
C2442 C 0.71384 0.77787 0.48438 0.0
C2443 C 0.7046 0.78958 0.47428 0.0
C2444 C 0.75509 0.77161 0.49579 0.0
C2445 C 0.74862 0.77397 0.50844 0.0
C2446 C 0.77216 0.75646 0.49275 0.0
C2447 C 0.77927 0.75253 0.47957 0.0
C2448 C 0.75529 0.73795 0.4707 0.0
C2449 C 0.76226 0.73495 0.45825 0.0
C2450 C 0.79311 0.7462 0.45456 0.0
C2451 C 0.81705 0.76047 0.46331 0.0
C2452 C 0.81021 0.76357 0.47578 0.0
C2453 C 0.76847 0.69587 0.54295 0.0
C2454 C 0.7996 0.7042 0.54526 0.0
C2455 C 0.76066 0.70848 0.53285 0.0
C2456 C 0.78376 0.73011 0.52482 0.0
C2457 C 0.81473 0.73712 0.52661 0.0
C2458 C 0.8226 0.72429 0.53676 0.0
C2459 C 0.77534 0.74615 0.51501 0.0
C2460 C 0.78211 0.74407 0.50237 0.0
C2461 C 0.75897 0.76198 0.51807 0.0
C2462 C 0.75366 0.76757 0.53129 0.0
C2463 C 0.77883 0.78247 0.53961 0.0
C2464 C 0.77377 0.78731 0.5521 0.0
C2465 C 0.74363 0.7775 0.55638 0.0
C2466 C 0.7185 0.76296 0.54815 0.0
C2467 C 0.72345 0.75808 0.53564 0.0
H2468 H 0.73977 0.78123 0.56607 0.0
H2469 H 0.79844 0.74373 0.44493 0.0
H2470 H 0.21191 0.95382 0.46281 0.0
H2471 H 0.23102 0.99053 0.48023 0.0
H2472 H 0.29712 0.96129 0.48934 0.0
H2473 H 0.27764 0.92389 0.47184 0.0
H2474 H 0.2716 0.97316 0.51056 0.0
H2475 H 0.31795 0.02556 0.47138 0.0
H2476 H 0.31566 0.04032 0.44953 0.0
H2477 H 0.26433 0.08461 0.46132 0.0
H2478 H 0.26585 0.06966 0.48323 0.0
H2479 H 0.37787 0.09871 0.5459 0.0
H2480 H 0.35522 0.06261 0.52843 0.0
H2481 H 0.29446 0.09929 0.5207 0.0
H2482 H 0.31748 0.13604 0.53833 0.0
H2483 H 0.31443 0.08404 0.49885 0.0
H2484 H 0.26476 0.03305 0.5365 0.0
H2485 H 0.26053 0.01678 0.55853 0.0
H2486 H 0.31093 0.96937 0.5501 0.0
H2487 H 0.31548 0.9854 0.52796 0.0
C2488 C 0.23012 0.95468 0.46866 0.0
C2489 C 0.24339 0.93601 0.46589 0.0
C2490 C 0.24117 0.9759 0.47858 0.0
C2491 C 0.26609 0.97936 0.48591 0.0
C2492 C 0.27804 0.95926 0.48374 0.0
C2493 C 0.26677 0.93773 0.47379 0.0
C2494 C 0.28051 1.00496 0.49536 0.0
C2495 C 0.28139 0.9974 0.50795 0.0
C2496 C 0.29208 0.03664 0.49209 0.0
C2497 C 0.29184 0.04629 0.47895 0.0
C2498 C 0.30604 0.03831 0.46931 0.0
C2499 C 0.30488 0.04671 0.45692 0.0
C2500 C 0.28986 0.06338 0.45405 0.0
C2501 C 0.27597 0.0717 0.46356 0.0
C2502 C 0.277 0.06329 0.47597 0.0
C2503 C 0.36012 0.09962 0.54034 0.0
C2504 C 0.34938 0.12018 0.54355 0.0
C2505 C 0.34703 0.07877 0.53038 0.0
C2506 C 0.32258 0.07762 0.52341 0.0
C2507 C 0.31316 0.09958 0.526 0.0
C2508 C 0.32645 0.12071 0.53602 0.0
C2509 C 0.30606 0.05223 0.51399 0.0
C2510 C 0.3047 0.0598 0.50144 0.0
C2511 C 0.29334 0.02048 0.51732 0.0
C2512 C 0.29072 0.01068 0.5306 0.0
C2513 C 0.27514 0.01934 0.53936 0.0
C2514 C 0.27264 0.01013 0.55187 0.0
C2515 C 0.28561 0.99222 0.55575 0.0
C2516 C 0.30095 0.98331 0.54709 0.0
C2517 C 0.30341 0.99237 0.53455 0.0
H2518 H 0.28369 0.98517 0.56545 0.0
H2519 H 0.28908 0.06995 0.44446 0.0
H2520 H 0.55319 0.36233 0.1003 0.0
H2521 H 0.54565 0.31012 0.09722 0.0
H2522 H 0.44687 0.27321 0.09347 0.0
H2523 H 0.45411 0.32519 0.09692 0.0
H2524 H 0.45795 0.23579 0.10789 0.0
H2525 H 0.49297 0.28357 0.06775 0.0
H2526 H 0.52766 0.32414 0.05285 0.0
H2527 H 0.60324 0.31038 0.06355 0.0
H2528 H 0.5691 0.27 0.07865 0.0
H2529 H 0.43238 0.08686 0.08739 0.0
H2530 H 0.43362 0.13705 0.08733 0.0
H2531 H 0.53331 0.18507 0.0916 0.0
H2532 H 0.53234 0.13557 0.0915 0.0
H2533 H 0.51762 0.2155 0.07549 0.0
H2534 H 0.48404 0.17098 0.11666 0.0
H2535 H 0.44984 0.13055 0.13172 0.0
H2536 H 0.37196 0.13839 0.11915 0.0
H2537 H 0.40564 0.17857 0.10388 0.0
C2538 C 0.52981 0.34312 0.09891 0.0
C2539 C 0.5043 0.34817 0.09881 0.0
C2540 C 0.52555 0.31323 0.09702 0.0
C2541 C 0.4957 0.28762 0.09494 0.0
C2542 C 0.47015 0.29251 0.09499 0.0
C2543 C 0.47439 0.32239 0.09685 0.0
C2544 C 0.49115 0.25577 0.09282 0.0
C2545 C 0.47063 0.23128 0.10066 0.0
C2546 C 0.50796 0.24976 0.08352 0.0
C2547 C 0.52853 0.27394 0.07441 0.0
C2548 C 0.51705 0.28935 0.06699 0.0
C2549 C 0.5366 0.31229 0.0585 0.0
C2550 C 0.56766 0.31988 0.05727 0.0
C2551 C 0.57919 0.30449 0.06452 0.0
C2552 C 0.55974 0.28156 0.07304 0.0
C2553 C 0.45458 0.10814 0.08814 0.0
C2554 C 0.4822 0.10703 0.08954 0.0
C2555 C 0.45525 0.13684 0.08819 0.0
C2556 C 0.48355 0.16497 0.08963 0.0
C2557 C 0.51117 0.16384 0.0905 0.0
C2558 C 0.51051 0.13534 0.0905 0.0
C2559 C 0.48477 0.19565 0.09067 0.0
C2560 C 0.5047 0.21995 0.08263 0.0
C2561 C 0.46748 0.20148 0.0998 0.0
C2562 C 0.44727 0.1775 0.10903 0.0
C2563 C 0.45957 0.1639 0.11704 0.0
C2564 C 0.44029 0.14106 0.12563 0.0
C2565 C 0.40873 0.13184 0.12637 0.0
C2566 C 0.3964 0.14551 0.11855 0.0
C2567 C 0.41557 0.16832 0.10993 0.0
H2568 H 0.39384 0.11415 0.13302 0.0
H2569 H 0.58276 0.33765 0.05069 0.0
H2570 H 0.72314 0.15584 0.091 0.0
H2571 H 0.77522 0.20061 0.08813 0.0
H2572 H 0.74015 0.26251 0.09667 0.0
H2573 H 0.68796 0.2178 0.09964 0.0
H2574 H 0.77998 0.28459 0.07736 0.0
H2575 H 0.78075 0.24509 0.11841 0.0
H2576 H 0.77424 0.20528 0.1338 0.0
H2577 H 0.84348 0.19279 0.1146 0.0
H2578 H 0.85009 0.23226 0.09899 0.0
H2579 H 0.91344 0.42211 0.09604 0.0
H2580 H 0.86433 0.37366 0.09442 0.0
H2581 H 0.91306 0.32524 0.08408 0.0
H2582 H 0.96306 0.3743 0.0858 0.0
H2583 H 0.8684 0.29381 0.10227 0.0
H2584 H 0.87117 0.33762 0.06235 0.0
H2585 H 0.87808 0.37846 0.04744 0.0
H2586 H 0.80246 0.38355 0.06474 0.0
H2587 H 0.79538 0.34306 0.07989 0.0
C2588 C 0.72644 0.17895 0.09235 0.0
C2589 C 0.70117 0.18302 0.09567 0.0
C2590 C 0.75635 0.20461 0.09068 0.0
C2591 C 0.7619 0.23509 0.09235 0.0
C2592 C 0.7366 0.2393 0.09532 0.0
C2593 C 0.70665 0.21363 0.09698 0.0
C2594 C 0.79404 0.26255 0.09116 0.0
C2595 C 0.79922 0.28667 0.0829 0.0
C2596 C 0.81956 0.26506 0.09808 0.0
C2597 C 0.81564 0.24135 0.10745 0.0
C2598 C 0.79439 0.23366 0.11741 0.0
C2599 C 0.79072 0.2112 0.12618 0.0
C2600 C 0.80837 0.19644 0.12516 0.0
C2601 C 0.82978 0.20419 0.11537 0.0
C2602 C 0.83351 0.22662 0.10656 0.0
C2603 C 0.91394 0.40129 0.09333 0.0
C2604 C 0.9424 0.40223 0.09107 0.0
C2605 C 0.88564 0.37351 0.09234 0.0
C2606 C 0.88477 0.34569 0.08902 0.0
C2607 C 0.91307 0.34641 0.08662 0.0
C2608 C 0.94163 0.37449 0.08753 0.0
C2609 C 0.8542 0.31602 0.08861 0.0
C2610 C 0.84927 0.29152 0.0966 0.0
C2611 C 0.82888 0.31319 0.08147 0.0
C2612 C 0.83289 0.33742 0.07232 0.0
C2613 C 0.85615 0.3476 0.06304 0.0
C2614 C 0.86007 0.37067 0.05453 0.0
C2615 C 0.84075 0.38363 0.05516 0.0
C2616 C 0.81741 0.37349 0.06427 0.0
C2617 C 0.81341 0.35045 0.07281 0.0
H2618 H 0.84383 0.4015 0.04857 0.0
H2619 H 0.8055 0.17906 0.13196 0.0
H2620 H 0.67193 0.61056 0.08518 0.0
H2621 H 0.72092 0.60926 0.08529 0.0
H2622 H 0.67351 0.51857 0.1025 0.0
H2623 H 0.62521 0.5196 0.10246 0.0
H2624 H 0.72621 0.55631 0.11474 0.0
H2625 H 0.69478 0.5284 0.07154 0.0
H2626 H 0.68061 0.53693 0.05039 0.0
H2627 H 0.76926 0.62034 0.04672 0.0
H2628 H 0.78379 0.61251 0.06792 0.0
H2629 H 0.82658 0.49529 0.10982 0.0
H2630 H 0.78311 0.50476 0.10724 0.0
H2631 H 0.84387 0.59186 0.08887 0.0
H2632 H 0.88754 0.58244 0.09137 0.0
H2633 H 0.78881 0.56325 0.07726 0.0
H2634 H 0.82202 0.58995 0.1196 0.0
H2635 H 0.83683 0.58248 0.14078 0.0
H2636 H 0.74571 0.50355 0.14635 0.0
H2637 H 0.73048 0.51027 0.12512 0.0
C2638 C 0.67194 0.59027 0.08888 0.0
C2639 C 0.6445 0.56533 0.09388 0.0
C2640 C 0.69997 0.58952 0.08893 0.0
C2641 C 0.70101 0.56381 0.09395 0.0
C2642 C 0.67351 0.53878 0.09868 0.0
C2643 C 0.64574 0.53946 0.09861 0.0
C2644 C 0.73054 0.56272 0.09474 0.0
C2645 C 0.73973 0.5576 0.10651 0.0
C2646 C 0.74891 0.56542 0.08411 0.0
C2647 C 0.74021 0.57008 0.07137 0.0
C2648 C 0.71114 0.54871 0.06626 0.0
C2649 C 0.70307 0.55338 0.05426 0.0
C2650 C 0.72398 0.57921 0.04723 0.0
C2651 C 0.75306 0.60038 0.05218 0.0
C2652 C 0.76123 0.59583 0.06419 0.0
C2653 C 0.83079 0.51654 0.10527 0.0
C2654 C 0.86073 0.53819 0.10091 0.0
C2655 C 0.80585 0.52194 0.10378 0.0
C2656 C 0.81019 0.54933 0.09804 0.0
C2657 C 0.83983 0.57059 0.09334 0.0
C2658 C 0.86481 0.56511 0.09477 0.0
C2659 C 0.7839 0.55591 0.09723 0.0
C2660 C 0.77543 0.5622 0.0855 0.0
C2661 C 0.76621 0.55449 0.10792 0.0
C2662 C 0.7752 0.55047 0.12073 0.0
C2663 C 0.80521 0.57087 0.12531 0.0
C2664 C 0.81367 0.56679 0.13733 0.0
C2665 C 0.79225 0.54252 0.14489 0.0
C2666 C 0.76229 0.52232 0.14047 0.0
C2667 C 0.75372 0.52628 0.12845 0.0
H2668 H 0.79885 0.5394 0.1542 0.0
H2669 H 0.7177 0.58279 0.03794 0.0
H2670 H 0.33182 0.46547 0.89778 0.0
H2671 H 0.2786 0.45526 0.90024 0.0
H2672 H 0.31014 0.53086 0.92671 0.0
H2673 H 0.3636 0.5411 0.92434 0.0
H2674 H 0.25727 0.48365 0.9347 0.0
H2675 H 0.2921 0.53756 0.89565 0.0
H2676 H 0.31438 0.54771 0.87434 0.0
H2677 H 0.24011 0.45914 0.86203 0.0
H2678 H 0.21761 0.44828 0.88333 0.0
H2679 H 0.13152 0.51329 0.93085 0.0
H2680 H 0.18136 0.51483 0.92979 0.0
H2681 H 0.13986 0.43128 0.90738 0.0
H2682 H 0.08939 0.42946 0.90848 0.0
H2683 H 0.19594 0.4789 0.89733 0.0
H2684 H 0.15955 0.42749 0.93675 0.0
H2685 H 0.13759 0.41992 0.95806 0.0
H2686 H 0.21543 0.50695 0.96964 0.0
H2687 H 0.23766 0.51528 0.94834 0.0
C2688 C 0.32756 0.48012 0.90407 0.0
C2689 C 0.35223 0.50437 0.91076 0.0
C2690 C 0.29698 0.47421 0.90548 0.0
C2691 C 0.29018 0.49259 0.9135 0.0
C2692 C 0.31463 0.51633 0.92043 0.0
C2693 C 0.34526 0.52215 0.91908 0.0
C2694 C 0.25769 0.48716 0.91458 0.0
C2695 C 0.24405 0.48296 0.92652 0.0
C2696 C 0.2399 0.48551 0.90393 0.0
C2697 C 0.25337 0.49196 0.89112 0.0
C2698 C 0.28066 0.52014 0.88842 0.0
C2699 C 0.2933 0.52604 0.87634 0.0
C2700 C 0.27872 0.50404 0.86684 0.0
C2701 C 0.25142 0.47613 0.8694 0.0
C2702 C 0.2387 0.4701 0.88147 0.0
C2703 C 0.13278 0.49497 0.9258 0.0
C2704 C 0.10633 0.47119 0.91976 0.0
C2705 C 0.16138 0.49586 0.92523 0.0
C2706 C 0.16449 0.47313 0.91855 0.0
C2707 C 0.13807 0.44907 0.91262 0.0
C2708 C 0.10918 0.44792 0.91333 0.0
C2709 C 0.19567 0.47553 0.91742 0.0
C2710 C 0.2091 0.47929 0.90548 0.0
C2711 C 0.21336 0.47711 0.92807 0.0
C2712 C 0.20014 0.47212 0.94091 0.0
C2713 C 0.17187 0.44514 0.94381 0.0
C2714 C 0.15939 0.44069 0.95589 0.0
C2715 C 0.17507 0.46297 0.96519 0.0
C2716 C 0.2033 0.48972 0.96243 0.0
C2717 C 0.21587 0.4943 0.95035 0.0
H2718 H 0.16537 0.45949 0.97454 0.0
H2719 H 0.28854 0.50866 0.85749 0.0
H2720 H 0.50513 0.8354 0.91839 0.0
H2721 H 0.51449 0.79181 0.92119 0.0
H2722 H 0.60004 0.84107 0.90021 0.0
H2723 H 0.59077 0.88463 0.89735 0.0
H2724 H 0.57006 0.78275 0.8929 0.0
H2725 H 0.59895 0.83351 0.9327 0.0
H2726 H 0.59248 0.85679 0.95212 0.0
H2727 H 0.51393 0.76894 0.9625 0.0
H2728 H 0.51966 0.74523 0.94305 0.0
H2729 H 0.6205 0.67453 0.90887 0.0
H2730 H 0.61909 0.7233 0.90759 0.0
H2731 H 0.5292 0.67883 0.92562 0.0
H2732 H 0.53046 0.63044 0.92697 0.0
H2733 H 0.56566 0.73718 0.93467 0.0
H2734 H 0.53552 0.68773 0.89411 0.0
H2735 H 0.54274 0.66465 0.87478 0.0
H2736 H 0.62516 0.75098 0.86601 0.0
H2737 H 0.61867 0.77445 0.8854 0.0
C2738 C 0.52609 0.83712 0.91447 0.0
C2739 C 0.54714 0.86364 0.90763 0.0
C2740 C 0.53145 0.81212 0.91608 0.0
C2741 C 0.5582 0.81313 0.91103 0.0
C2742 C 0.5792 0.83955 0.90418 0.0
C2743 C 0.57379 0.86447 0.90252 0.0
C2744 C 0.56404 0.78651 0.91271 0.0
C2745 C 0.5696 0.77317 0.90207 0.0
C2746 C 0.56305 0.77352 0.92464 0.0
C2747 C 0.55957 0.78767 0.93636 0.0
C2748 C 0.58015 0.81921 0.93908 0.0
C2749 C 0.57664 0.83248 0.9501 0.0
C2750 C 0.55277 0.81438 0.95853 0.0
C2751 C 0.53239 0.78295 0.95596 0.0
C2752 C 0.53578 0.76957 0.94494 0.0
C2753 C 0.60063 0.67528 0.9127 0.0
C2754 C 0.57554 0.64845 0.91796 0.0
C2755 C 0.59975 0.70313 0.91189 0.0
C2756 C 0.57386 0.70472 0.91639 0.0
C2757 C 0.54941 0.67828 0.92206 0.0
C2758 C 0.55015 0.65051 0.92278 0.0
C2759 C 0.57138 0.73336 0.91486 0.0
C2760 C 0.5664 0.74701 0.92552 0.0
C2761 C 0.57302 0.74672 0.90297 0.0
C2762 C 0.57681 0.73272 0.89127 0.0
C2763 C 0.55532 0.70172 0.88811 0.0
C2764 C 0.55926 0.68858 0.87713 0.0
C2765 C 0.58445 0.70631 0.86919 0.0
C2766 C 0.6057 0.73725 0.87219 0.0
C2767 C 0.6019 0.75049 0.88316 0.0
H2768 H 0.58746 0.69609 0.8607 0.0
H2769 H 0.55009 0.82469 0.96705 0.0
H2770 H 0.42276 0.91107 0.90997 0.0
H2771 H 0.37439 0.8618 0.91067 0.0
H2772 H 0.32761 0.90707 0.92689 0.0
H2773 H 0.37657 0.95731 0.92623 0.0
H2774 H 0.31048 0.848 0.938 0.0
H2775 H 0.31608 0.88997 0.89734 0.0
H2776 H 0.34095 0.91477 0.87733 0.0
H2777 H 0.3531 0.8371 0.86821 0.0
H2778 H 0.32876 0.81205 0.88827 0.0
H2779 H 0.16323 0.71056 0.92435 0.0
H2780 H 0.20622 0.76413 0.92646 0.0
H2781 H 0.26702 0.73928 0.90696 0.0
H2782 H 0.22436 0.68579 0.9049 0.0
H2783 H 0.2728 0.79166 0.89765 0.0
H2784 H 0.27129 0.75198 0.93903 0.0
H2785 H 0.2475 0.72754 0.95923 0.0
H2786 H 0.22763 0.80087 0.96701 0.0
H2787 H 0.25094 0.82554 0.94675 0.0
C2788 C 0.40237 0.91086 0.91375 0.0
C2789 C 0.40369 0.93849 0.91792 0.0
C2790 C 0.3746 0.88247 0.91412 0.0
C2791 C 0.34721 0.88071 0.91865 0.0
C2792 C 0.34845 0.90789 0.9233 0.0
C2793 C 0.37645 0.9366 0.9229 0.0
C2794 C 0.31745 0.85044 0.91803 0.0
C2795 C 0.30183 0.83591 0.92916 0.0
C2796 C 0.3064 0.83441 0.90652 0.0
C2797 C 0.32077 0.84922 0.89436 0.0
C2798 C 0.32424 0.87827 0.89111 0.0
C2799 C 0.33823 0.89236 0.87975 0.0
C2800 C 0.34865 0.87754 0.87151 0.0
C2801 C 0.34503 0.84856 0.8746 0.0
C2802 C 0.33111 0.83438 0.88596 0.0
C2803 C 0.18587 0.71635 0.92068 0.0
C2804 C 0.1902 0.69373 0.91441 0.0
C2805 C 0.21046 0.74708 0.92187 0.0
C2806 C 0.24 0.75587 0.9169 0.0
C2807 C 0.24445 0.73323 0.91081 0.0
C2808 C 0.21994 0.70259 0.9096 0.0
C2809 C 0.26616 0.78872 0.91765 0.0
C2810 C 0.28113 0.80381 0.9065 0.0
C2811 C 0.2765 0.80518 0.92914 0.0
C2812 C 0.26252 0.7904 0.94131 0.0
C2813 C 0.2616 0.76275 0.945 0.0
C2814 C 0.24825 0.74889 0.95647 0.0
C2815 C 0.23597 0.76259 0.96438 0.0
C2816 C 0.23709 0.79025 0.96085 0.0
C2817 C 0.25039 0.80419 0.94938 0.0
H2818 H 0.22565 0.75183 0.97326 0.0
H2819 H 0.35947 0.8885 0.86272 0.0
H2820 H 0.13331 0.66289 0.42503 0.0
H2821 H 0.12583 0.61068 0.42212 0.0
H2822 H 0.2221 0.64495 0.43125 0.0
H2823 H 0.22974 0.69724 0.43427 0.0
H2824 H 0.20484 0.60501 0.41184 0.0
H2825 H 0.16338 0.60496 0.45275 0.0
H2826 H 0.12974 0.61206 0.4679 0.0
H2827 H 0.04856 0.54329 0.44853 0.0
H2828 H 0.08175 0.5361 0.43316 0.0
H2829 H 0.20591 0.46954 0.43011 0.0
H2830 H 0.20782 0.51933 0.42875 0.0
H2831 H 0.11067 0.47269 0.41889 0.0
H2832 H 0.1084 0.42208 0.42039 0.0
H2833 H 0.12438 0.51716 0.43678 0.0
H2834 H 0.166 0.51363 0.39695 0.0
H2835 H 0.19985 0.50583 0.38218 0.0
H2836 H 0.28067 0.58076 0.39947 0.0
H2837 H 0.24733 0.58871 0.41448 0.0
C2838 C 0.15292 0.65938 0.42649 0.0
C2839 C 0.18211 0.68444 0.43 0.0
C2840 C 0.14859 0.62942 0.42479 0.0
C2841 C 0.17326 0.62361 0.42663 0.0
C2842 C 0.20265 0.64872 0.42977 0.0
C2843 C 0.20702 0.67872 0.43145 0.0
C2844 C 0.16837 0.59136 0.42555 0.0
C2845 C 0.18742 0.58589 0.41738 0.0
C2846 C 0.14503 0.56602 0.43248 0.0
C2847 C 0.12505 0.57025 0.44173 0.0
C2848 C 0.13836 0.59154 0.45167 0.0
C2849 C 0.11938 0.59555 0.4603 0.0
C2850 C 0.08704 0.57821 0.45916 0.0
C2851 C 0.07362 0.55675 0.44939 0.0
C2852 C 0.0925 0.55269 0.44072 0.0
C2853 C 0.18485 0.46963 0.42757 0.0
C2854 C 0.15694 0.44156 0.42536 0.0
C2855 C 0.18608 0.49833 0.42672 0.0
C2856 C 0.15951 0.49998 0.42359 0.0
C2857 C 0.13155 0.47208 0.42129 0.0
C2858 C 0.13031 0.44315 0.42208 0.0
C2859 C 0.16113 0.53091 0.4232 0.0
C2860 C 0.14153 0.53617 0.43111 0.0
C2861 C 0.18396 0.55605 0.41603 0.0
C2862 C 0.20413 0.55163 0.40691 0.0
C2863 C 0.191 0.52833 0.39766 0.0
C2864 C 0.2101 0.52388 0.38924 0.0
C2865 C 0.24239 0.54275 0.3899 0.0
C2866 C 0.25565 0.56615 0.39897 0.0
C2867 C 0.23665 0.57067 0.40743 0.0
H2868 H 0.25713 0.53925 0.38338 0.0
H2869 H 0.07238 0.58134 0.46585 0.0
H2870 H 0.58726 0.75583 0.42767 0.0
H2871 H 0.53822 0.70723 0.4291 0.0
H2872 H 0.58747 0.65668 0.43316 0.0
H2873 H 0.63736 0.70579 0.43171 0.0
H2874 H 0.53607 0.62756 0.41672 0.0
H2875 H 0.55638 0.66832 0.45838 0.0
H2876 H 0.57064 0.70854 0.47466 0.0
H2877 H 0.49109 0.71695 0.4653 0.0
H2878 H 0.4766 0.67709 0.44882 0.0
H2879 H 0.39734 0.48975 0.43595 0.0
H2880 H 0.45008 0.53425 0.43463 0.0
H2881 H 0.4131 0.59658 0.43393 0.0
H2882 H 0.36023 0.55215 0.43518 0.0
H2883 H 0.46076 0.61761 0.44967 0.0
H2884 H 0.44211 0.5797 0.40729 0.0
H2885 H 0.42804 0.54057 0.39055 0.0
H2886 H 0.50419 0.52739 0.40092 0.0
H2887 H 0.51847 0.56617 0.41784 0.0
C2888 C 0.58795 0.73449 0.42883 0.0
C2889 C 0.61648 0.73489 0.42964 0.0
C2890 C 0.55971 0.70662 0.42969 0.0
C2891 C 0.55907 0.6783 0.43141 0.0
C2892 C 0.5874 0.6783 0.43188 0.0
C2893 C 0.61589 0.70639 0.43108 0.0
C2894 C 0.52861 0.64906 0.43289 0.0
C2895 C 0.51981 0.62508 0.42406 0.0
C2896 C 0.50708 0.64609 0.44231 0.0
C2897 C 0.51554 0.66987 0.4523 0.0
C2898 C 0.54204 0.6789 0.45973 0.0
C2899 C 0.55015 0.70161 0.46901 0.0
C2900 C 0.53181 0.71533 0.471 0.0
C2901 C 0.50528 0.70631 0.46374 0.0
C2902 C 0.49709 0.68363 0.45444 0.0
C2903 C 0.40034 0.51288 0.43534 0.0
C2904 C 0.37437 0.51724 0.43562 0.0
C2905 C 0.4306 0.53837 0.43462 0.0
C2906 C 0.4357 0.56887 0.43405 0.0
C2907 C 0.40986 0.57332 0.43437 0.0
C2908 C 0.37958 0.54785 0.43512 0.0
C2909 C 0.4679 0.59619 0.43337 0.0
C2910 C 0.47706 0.61987 0.44237 0.0
C2911 C 0.48967 0.59887 0.42409 0.0
C2912 C 0.48114 0.57558 0.41392 0.0
C2913 C 0.4557 0.56827 0.40607 0.0
C2914 C 0.44771 0.54619 0.39654 0.0
C2915 C 0.46515 0.53143 0.3947 0.0
C2916 C 0.49067 0.5388 0.40237 0.0
C2917 C 0.49873 0.56084 0.41193 0.0
H2918 H 0.45894 0.51435 0.38731 0.0
H2919 H 0.53814 0.73292 0.47818 0.0
H2920 H 0.51214 0.83907 0.42357 0.0
H2921 H 0.46817 0.84799 0.42125 0.0
H2922 H 0.51325 0.92785 0.44563 0.0
H2923 H 0.55713 0.91896 0.44803 0.0
H2924 H 0.45465 0.8958 0.45184 0.0
H2925 H 0.50857 0.93425 0.41303 0.0
H2926 H 0.5338 0.93278 0.39328 0.0
H2927 H 0.44766 0.8559 0.38041 0.0
H2928 H 0.422 0.85662 0.40016 0.0
H2929 H 0.34712 0.94902 0.43824 0.0
H2930 H 0.39583 0.94739 0.43923 0.0
H2931 H 0.35279 0.86106 0.41861 0.0
H2932 H 0.30441 0.86244 0.41763 0.0
H2933 H 0.41225 0.90001 0.41036 0.0
H2934 H 0.35958 0.86062 0.44983 0.0
H2935 H 0.33466 0.86303 0.46951 0.0
H2936 H 0.41964 0.94365 0.48097 0.0
H2937 H 0.44495 0.94197 0.46125 0.0
C2938 C 0.5129 0.85874 0.42834 0.0
C2939 C 0.53834 0.87822 0.43601 0.0
C2940 C 0.48765 0.86386 0.427 0.0
C2941 C 0.48729 0.88885 0.43316 0.0
C2942 C 0.5127 0.90835 0.44079 0.0
C2943 C 0.53785 0.90316 0.44219 0.0
C2944 C 0.46028 0.89435 0.43185 0.0
C2945 C 0.44579 0.89723 0.44274 0.0
C2946 C 0.44812 0.89579 0.42003 0.0
C2947 C 0.46344 0.8953 0.40813 0.0
C2948 C 0.49506 0.91687 0.40603 0.0
C2949 C 0.50943 0.91619 0.39483 0.0
C2950 C 0.49237 0.8942 0.38561 0.0
C2951 C 0.46087 0.87289 0.38756 0.0
C2952 C 0.44639 0.87343 0.39876 0.0
C2953 C 0.34818 0.9299 0.43379 0.0
C2954 C 0.32172 0.90582 0.42791 0.0
C2955 C 0.376 0.92888 0.43442 0.0
C2956 C 0.37802 0.90392 0.42908 0.0
C2957 C 0.35196 0.88055 0.42281 0.0
C2958 C 0.32418 0.88135 0.42231 0.0
C2959 C 0.40669 0.9013 0.43032 0.0
C2960 C 0.42139 0.89886 0.41943 0.0
C2961 C 0.41916 0.90044 0.44213 0.0
C2962 C 0.40404 0.90139 0.45401 0.0
C2963 C 0.37288 0.87902 0.4565 0.0
C2964 C 0.35869 0.88022 0.46767 0.0
C2965 C 0.37553 0.90354 0.47647 0.0
C2966 C 0.40661 0.92564 0.47413 0.0
C2967 C 0.42089 0.92457 0.46297 0.0
H2968 H 0.36451 0.90443 0.48511 0.0
H2969 H 0.50353 0.89373 0.37695 0.0
H2970 H 0.75917 0.77482 0.26002 0.0
H2971 H 0.81 0.77741 0.26047 0.0
H2972 H 0.8522 0.86716 0.24249 0.0
H2973 H 0.80225 0.86484 0.24196 0.0
H2974 H 0.86988 0.8305 0.23118 0.0
H2975 H 0.86286 0.85999 0.27364 0.0
H2976 H 0.83916 0.85312 0.29459 0.0
H2977 H 0.84448 0.77016 0.30005 0.0
H2978 H 0.86796 0.77639 0.27906 0.0
H2979 H 0.03099 0.89423 0.23891 0.0
H2980 H 0.97779 0.88431 0.24103 0.0
H2981 H 0.94978 0.79487 0.25751 0.0
H2982 H 1.00295 0.80433 0.25523 0.0
H2983 H 0.92267 0.825 0.26964 0.0
H2984 H 0.93336 0.79815 0.22754 0.0
H2985 H 0.95795 0.80625 0.20673 0.0
H2986 H 0.94548 0.88484 0.20056 0.0
H2987 H 0.92122 0.87749 0.22142 0.0
C2988 C 0.77932 0.79515 0.25622 0.0
C2989 C 0.77636 0.8195 0.2509 0.0
C2990 C 0.80841 0.79665 0.25651 0.0
C2991 C 0.83506 0.82252 0.25149 0.0
C2992 C 0.83209 0.84687 0.24635 0.0
C2993 C 0.80329 0.84546 0.24609 0.0
C2994 C 0.86608 0.82441 0.25121 0.0
C2995 C 0.88145 0.82951 0.23962 0.0
C2996 C 0.88102 0.82231 0.26214 0.0
C2997 C 0.86682 0.81845 0.27473 0.0
C2998 C 0.85871 0.84012 0.27926 0.0
C2999 C 0.84537 0.83638 0.29115 0.0
C3000 C 0.84021 0.81116 0.29863 0.0
C3001 C 0.84843 0.78965 0.29424 0.0
C3002 C 0.86179 0.7933 0.28235 0.0
C3003 C 0.01357 0.87235 0.24294 0.0
C3004 C 0.02141 0.84998 0.24676 0.0
C3005 C 0.9831 0.86676 0.24419 0.0
C3006 C 0.95957 0.83864 0.24928 0.0
C3007 C 0.96746 0.81673 0.25355 0.0
C3008 C 0.99799 0.82227 0.25227 0.0
C3009 C 0.92665 0.83184 0.24965 0.0
C3010 C 0.91093 0.82571 0.26121 0.0
C3011 C 0.91131 0.83305 0.23869 0.0
C3012 C 0.9257 0.83742 0.22609 0.0
C3013 C 0.93606 0.8173 0.22179 0.0
C3014 C 0.94992 0.82174 0.20997 0.0
C3015 C 0.95334 0.84609 0.20234 0.0
C3016 C 0.94284 0.86601 0.20649 0.0
C3017 C 0.92901 0.8617 0.2183 0.0
H3018 H 0.96407 0.84948 0.19319 0.0
H3019 H 0.82997 0.80836 0.30785 0.0
H3020 H 0.20155 0.96878 0.26242 0.0
H3021 H 0.19833 0.01615 0.26141 0.0
H3022 H 0.27634 0.05655 0.23591 0.0
H3023 H 0.28039 0.00917 0.23729 0.0
H3024 H 0.27978 0.10019 0.25117 0.0
H3025 H 0.19851 0.02273 0.22579 0.0
H3026 H 0.15348 0.97098 0.22131 0.0
H3027 H 0.10042 0.9848 0.2499 0.0
H3028 H 0.14531 0.03646 0.2547 0.0
H3029 H 0.2482 0.21669 0.22846 0.0
H3030 H 0.2559 0.17195 0.2304 0.0
H3031 H 0.18166 0.13107 0.25758 0.0
H3032 H 0.17321 0.17548 0.25542 0.0
H3033 H 0.17683 0.08797 0.24092 0.0
H3034 H 0.25891 0.16556 0.26627 0.0
H3035 H 0.30447 0.21695 0.27074 0.0
H3036 H 0.35613 0.20281 0.24161 0.0
H3037 H 0.31071 0.15149 0.23685 0.0
C3038 C 0.21827 0.98782 0.25667 0.0
C3039 C 0.24109 0.98502 0.24984 0.0
C3040 C 0.21625 0.01492 0.25603 0.0
C3041 C 0.23646 0.03979 0.24829 0.0
C3042 C 0.26024 0.03767 0.24188 0.0
C3043 C 0.2626 0.01059 0.24268 0.0
C3044 C 0.23208 0.06743 0.24671 0.0
C3045 C 0.25736 0.09748 0.24874 0.0
C3046 C 0.2027 0.06414 0.24375 0.0
C3047 C 0.17538 0.03339 0.24067 0.0
C3048 C 0.17728 0.01469 0.23116 0.0
C3049 C 0.15179 0.98536 0.22857 0.0
C3050 C 0.12413 0.97457 0.23534 0.0
C3051 C 0.12187 0.99317 0.24467 0.0
C3052 C 0.14733 0.0225 0.24733 0.0
C3053 C 0.2333 0.19813 0.2348 0.0
C3054 C 0.20998 0.19985 0.24176 0.0
C3055 C 0.23798 0.17261 0.236 0.0
C3056 C 0.21961 0.14809 0.24424 0.0
C3057 C 0.19625 0.14965 0.25118 0.0
C3058 C 0.1916 0.17525 0.25001 0.0
C3059 C 0.22448 0.12069 0.24546 0.0
C3060 C 0.19926 0.09066 0.24333 0.0
C3061 C 0.25393 0.12404 0.24824 0.0
C3062 C 0.28131 0.15482 0.25113 0.0
C3063 C 0.2799 0.17351 0.26075 0.0
C3064 C 0.30572 0.20261 0.26335 0.0
C3065 C 0.33315 0.21317 0.25645 0.0
C3066 C 0.33485 0.19462 0.24695 0.0
C3067 C 0.30909 0.16551 0.2443 0.0
H3068 H 0.3531 0.23571 0.25847 0.0
H3069 H 0.10444 0.95182 0.23334 0.0
H3070 H 0.82335 0.06046 0.24394 0.0
H3071 H 0.86851 0.11252 0.24611 0.0
H3072 H 0.92889 0.07328 0.24646 0.0
H3073 H 0.8837 0.02099 0.24428 0.0
H3074 H 0.94706 0.1177 0.26367 0.0
H3075 H 0.92043 0.1096 0.2201 0.0
H3076 H 0.88601 0.10014 0.20203 0.0
H3077 H 0.87127 0.17455 0.21398 0.0
H3078 H 0.90529 0.18419 0.23223 0.0
H3079 H 0.09112 0.24959 0.25021 0.0
H3080 H 0.04285 0.20019 0.24955 0.0
H3081 H 0.99056 0.24825 0.24979 0.0
H3082 H 0.03942 0.29851 0.25017 0.0
H3083 H 0.9663 0.2009 0.23324 0.0
H3084 H 0.99632 0.21077 0.27634 0.0
H3085 H 0.03221 0.22034 0.29389 0.0
H3086 H 0.04156 0.14232 0.28245 0.0
H3087 H 1.00609 0.13253 0.26473 0.0
C3088 C 0.84624 0.06283 0.24438 0.0
C3089 C 0.84977 0.03636 0.24381 0.0
C3090 C 0.87212 0.09273 0.24563 0.0
C3091 C 0.90232 0.09708 0.24625 0.0
C3092 C 0.9059 0.07067 0.24599 0.0
C3093 C 0.87998 0.0407 0.24478 0.0
C3094 C 0.93013 0.12908 0.24714 0.0
C3095 C 0.95138 0.13575 0.25693 0.0
C3096 C 0.93554 0.1531 0.23857 0.0
C3097 C 0.91513 0.14739 0.2276 0.0
C3098 C 0.90965 0.12378 0.21893 0.0
C3099 C 0.89025 0.11842 0.20864 0.0
C3100 C 0.87639 0.13667 0.20687 0.0
C3101 C 0.88197 0.16039 0.21537 0.0
C3102 C 0.90133 0.16583 0.22568 0.0
C3103 C 0.06946 0.24994 0.25019 0.0
C3104 C 0.06935 0.2783 0.25035 0.0
C3105 C 0.04171 0.22143 0.24986 0.0
C3106 C 0.01286 0.22024 0.24987 0.0
C3107 C 0.01249 0.24846 0.24986 0.0
C3108 C 0.04045 0.27722 0.25012 0.0
C3109 C 0.98339 0.18941 0.2497 0.0
C3110 C 0.96182 0.18293 0.24005 0.0
C3111 C 0.97773 0.1655 0.25837 0.0
C3112 C 0.99869 0.17105 0.26915 0.0
C3113 C 1.00615 0.19575 0.27753 0.0
C3114 C 0.02641 0.20121 0.28751 0.0
C3115 C 0.03919 0.18198 0.28926 0.0
C3116 C 0.03165 0.15719 0.28107 0.0
C3117 C 0.01144 0.15165 0.27107 0.0
H3118 H 0.0549 0.18625 0.29697 0.0
H3119 H 0.86138 0.13248 0.1989 0.0
H3120 H 0.77342 0.7538 0.75221 0.0
H3121 H 0.77442 0.80394 0.75211 0.0
H3122 H 0.87183 0.85123 0.76163 0.0
H3123 H 0.87094 0.80183 0.76189 0.0
H3124 H 0.84155 0.86906 0.77682 0.0
H3125 H 0.8452 0.85547 0.73206 0.0
H3126 H 0.82592 0.82793 0.71195 0.0
H3127 H 0.7413 0.83072 0.71639 0.0
H3128 H 0.75993 0.85795 0.73662 0.0
H3129 H 0.89242 0.02779 0.76837 0.0
H3130 H 0.88418 0.97522 0.76582 0.0
H3131 H 0.78782 0.94126 0.75691 0.0
H3132 H 0.7959 0.99389 0.75944 0.0
H3133 H 0.81157 0.9143 0.74189 0.0
H3134 H 0.80852 0.92992 0.78595 0.0
H3135 H 0.8271 0.95718 0.80615 0.0
H3136 H 0.90936 0.94952 0.8033 0.0
H3137 H 0.89148 0.92259 0.78298 0.0
C3138 C 0.79511 0.77497 0.75409 0.0
C3139 C 0.822 0.77369 0.75717 0.0
C3140 C 0.79567 0.80363 0.75404 0.0
C3141 C 0.82321 0.83148 0.75693 0.0
C3142 C 0.85022 0.83017 0.7595 0.0
C3143 C 0.84964 0.80176 0.75962 0.0
C3144 C 0.82415 0.86199 0.75794 0.0
C3145 C 0.83528 0.87903 0.76911 0.0
C3146 C 0.81497 0.8747 0.74808 0.0
C3147 C 0.80381 0.85842 0.73592 0.0
C3148 C 0.82238 0.84998 0.7288 0.0
C3149 C 0.81159 0.83447 0.71737 0.0
C3150 C 0.78237 0.82749 0.71292 0.0
C3151 C 0.76391 0.83609 0.71987 0.0
C3152 C 0.77458 0.85158 0.73131 0.0
C3153 C 0.86943 0.00916 0.76591 0.0
C3154 C 0.8448 0.01515 0.76421 0.0
C3155 C 0.86474 0.97905 0.76443 0.0
C3156 C 0.83523 0.95406 0.76135 0.0
C3157 C 0.81079 0.96008 0.75929 0.0
C3158 C 0.81549 0.99025 0.76072 0.0
C3159 C 0.82987 0.92166 0.76064 0.0
C3160 C 0.81772 0.90423 0.74959 0.0
C3161 C 0.83801 0.90843 0.77064 0.0
C3162 C 0.84876 0.92446 0.78289 0.0
C3163 C 0.83067 0.93424 0.78959 0.0
C3164 C 0.84107 0.94961 0.80106 0.0
C3165 C 0.86943 0.95514 0.80599 0.0
C3166 C 0.88741 0.94524 0.79946 0.0
C3167 C 0.87714 0.9299 0.78797 0.0
H3168 H 0.87744 0.96704 0.81488 0.0
H3169 H 0.77406 0.81549 0.70407 0.0
H3170 H 0.26097 0.0831 0.74765 0.0
H3171 H 0.21028 0.03596 0.74894 0.0
H3172 H 0.2477 0.9957 0.7744 0.0
H3173 H 0.29917 0.04278 0.77275 0.0
H3174 H 0.20718 0.95197 0.75929 0.0
H3175 H 0.20498 0.0307 0.78467 0.0
H3176 H 0.21237 0.08285 0.78901 0.0
H3177 H 0.14476 0.06879 0.76098 0.0
H3178 H 0.13733 0.01674 0.75632 0.0
H3179 H 0.05981 0.837 0.78307 0.0
H3180 H 0.11219 0.88164 0.78091 0.0
H3181 H 0.07872 0.92232 0.75387 0.0
H3182 H 0.02592 0.87803 0.75625 0.0
H3183 H 0.11745 0.96559 0.77032 0.0
H3184 H 0.12038 0.88693 0.74489 0.0
H3185 H 0.11394 0.83521 0.74043 0.0
H3186 H 0.18034 0.84926 0.76902 0.0
H3187 H 0.18687 0.90092 0.77376 0.0
C3188 C 0.25856 0.0641 0.75343 0.0
C3189 C 0.28409 0.06683 0.76019 0.0
C3190 C 0.22942 0.03716 0.75423 0.0
C3191 C 0.22473 0.01247 0.76206 0.0
C3192 C 0.25054 0.01448 0.76837 0.0
C3193 C 0.28 0.04138 0.76741 0.0
C3194 C 0.19274 0.98516 0.76388 0.0
C3195 C 0.18768 0.95497 0.76188 0.0
C3196 C 0.16697 0.9889 0.76706 0.0
C3197 C 0.17079 0.01989 0.77007 0.0
C3198 C 0.19179 0.03878 0.77939 0.0
C3199 C 0.19599 0.06833 0.78191 0.0
C3200 C 0.1791 0.07916 0.77526 0.0
C3201 C 0.15786 0.06039 0.76611 0.0
C3202 C 0.15362 0.03084 0.76354 0.0
C3203 C 0.06343 0.85553 0.77674 0.0
C3204 C 0.03843 0.85379 0.76986 0.0
C3205 C 0.09357 0.88097 0.77541 0.0
C3206 C 0.09965 0.90533 0.76712 0.0
C3207 C 0.07475 0.90383 0.7603 0.0
C3208 C 0.04455 0.87832 0.7616 0.0
C3209 C 0.13188 0.93243 0.76565 0.0
C3210 C 0.13697 0.9626 0.76775 0.0
C3211 C 0.15767 0.92865 0.76264 0.0
C3212 C 0.15388 0.89766 0.75976 0.0
C3213 C 0.13343 0.87889 0.75029 0.0
C3214 C 0.12979 0.84961 0.7477 0.0
C3215 C 0.14666 0.83892 0.75446 0.0
C3216 C 0.16726 0.85755 0.7638 0.0
C3217 C 0.17096 0.88684 0.76644 0.0
H3218 H 0.14381 0.81624 0.75244 0.0
H3219 H 0.18244 0.10207 0.7772 0.0
H3220 H 0.16438 0.15663 0.76882 0.0
H3221 H 0.12104 0.16621 0.76611 0.0
H3222 H 0.18524 0.26148 0.75608 0.0
H3223 H 0.22888 0.25243 0.75928 0.0
H3224 H 0.14195 0.25931 0.7715 0.0
H3225 H 0.14025 0.20628 0.73373 0.0
H3226 H 0.13976 0.16445 0.721 0.0
H3227 H 0.05316 0.09769 0.73788 0.0
H3228 H 0.05333 0.13906 0.75085 0.0
H3229 H 0.01412 0.28128 0.7536 0.0
H3230 H 0.06258 0.27914 0.75248 0.0
H3231 H 0.01194 0.18207 0.76265 0.0
H3232 H 0.96401 0.18379 0.76353 0.0
H3233 H 0.05173 0.18997 0.74492 0.0
H3234 H 0.05606 0.24152 0.78407 0.0
H3235 H 0.0564 0.28275 0.79718 0.0
H3236 H 0.13777 0.35176 0.77786 0.0
H3237 H 0.13765 0.31095 0.76452 0.0
C3238 C 0.16941 0.17972 0.76612 0.0
C3239 C 0.20032 0.2037 0.76425 0.0
C3240 C 0.14448 0.18509 0.76443 0.0
C3241 C 0.14968 0.21451 0.76071 0.0
C3242 C 0.18048 0.23855 0.75889 0.0
C3243 C 0.20546 0.23321 0.7606 0.0
C3244 C 0.12298 0.22015 0.75888 0.0
C3245 C 0.12249 0.24446 0.76551 0.0
C3246 C 0.09725 0.20065 0.75119 0.0
C3247 C 0.09693 0.17575 0.74333 0.0
C3248 C 0.1212 0.18265 0.73479 0.0
C3249 C 0.12096 0.15903 0.72752 0.0
C3250 C 0.09648 0.12843 0.72865 0.0
C3251 C 0.07212 0.1214 0.73702 0.0
C3252 C 0.07226 0.14494 0.74432 0.0
C3253 C 0.01332 0.25944 0.75547 0.0
C3254 C 0.98503 0.23281 0.75873 0.0
C3255 C 0.04109 0.25827 0.75491 0.0
C3256 C 0.04112 0.23047 0.75762 0.0
C3257 C 0.01274 0.2038 0.76051 0.0
C3258 C 0.98521 0.20494 0.76107 0.0
C3259 C 0.07037 0.22867 0.75776 0.0
C3260 C 0.07137 0.20507 0.75079 0.0
C3261 C 0.09647 0.24876 0.76516 0.0
C3262 C 0.09663 0.27325 0.7732 0.0
C3263 C 0.07388 0.26552 0.78256 0.0
C3264 C 0.07405 0.2888 0.79004 0.0
C3265 C 0.09703 0.31986 0.78833 0.0
C3266 C 0.11994 0.3277 0.77916 0.0
C3267 C 0.11984 0.30451 0.77164 0.0
H3268 H 0.09713 0.33786 0.79413 0.0
H3269 H 0.09635 0.11017 0.72302 0.0
H3270 H 0.47212 0.19973 0.58205 0.0
H3271 H 0.52156 0.20076 0.58211 0.0
H3272 H 0.47412 0.10188 0.58878 0.0
H3273 H 0.42383 0.10058 0.5888 0.0
H3274 H 0.52939 0.13385 0.60249 0.0
H3275 H 0.49846 0.12821 0.55979 0.0
H3276 H 0.47962 0.14324 0.54123 0.0
H3277 H 0.55988 0.2348 0.54235 0.0
H3278 H 0.57899 0.22047 0.56104 0.0
H3279 H 0.66364 0.12348 0.58478 0.0
H3280 H 0.61144 0.11647 0.58681 0.0
H3281 H 0.64722 0.21283 0.57719 0.0
H3282 H 0.69929 0.21974 0.57467 0.0
H3283 H 0.59557 0.17779 0.56467 0.0
H3284 H 0.62553 0.1843 0.60781 0.0
H3285 H 0.64411 0.16985 0.62663 0.0
H3286 H 0.56596 0.07704 0.62479 0.0
H3287 H 0.54713 0.09083 0.60586 0.0
C3288 C 0.47193 0.17806 0.5836 0.0
C3289 C 0.44369 0.14994 0.58527 0.0
C3290 C 0.50042 0.17874 0.5836 0.0
C3291 C 0.50171 0.15134 0.58519 0.0
C3292 C 0.47377 0.12335 0.58745 0.0
C3293 C 0.44501 0.12263 0.58747 0.0
C3294 C 0.53225 0.15227 0.58401 0.0
C3295 C 0.54364 0.14295 0.59414 0.0
C3296 C 0.55127 0.16471 0.57321 0.0
C3297 C 0.54003 0.17332 0.56188 0.0
C3298 C 0.512 0.15161 0.55613 0.0
C3299 C 0.50128 0.16 0.54558 0.0
C3300 C 0.51851 0.18997 0.54062 0.0
C3301 C 0.54655 0.2116 0.5462 0.0
C3302 C 0.55735 0.20335 0.55677 0.0
C3303 C 0.66048 0.14322 0.58304 0.0
C3304 C 0.68594 0.17222 0.57953 0.0
C3305 C 0.63053 0.13923 0.58434 0.0
C3306 C 0.62519 0.16416 0.58228 0.0
C3307 C 0.65058 0.19317 0.57887 0.0
C3308 C 0.68052 0.19719 0.57755 0.0
C3309 C 0.5931 0.15988 0.58325 0.0
C3310 C 0.58135 0.16853 0.57302 0.0
C3311 C 0.57384 0.14684 0.59396 0.0
C3312 C 0.58511 0.13851 0.60534 0.0
C3313 C 0.61245 0.16074 0.61136 0.0
C3314 C 0.623 0.15268 0.62206 0.0
C3315 C 0.60628 0.12252 0.62688 0.0
C3316 C 0.57892 0.10038 0.62103 0.0
C3317 C 0.56828 0.10831 0.61032 0.0
H3318 H 0.61448 0.11633 0.63516 0.0
H3319 H 0.51018 0.19643 0.53245 0.0
H3320 H 0.95518 0.34348 0.5822 0.0
H3321 H 0.9538 0.3923 0.5809 0.0
H3322 H 0.85359 0.34032 0.58223 0.0
H3323 H 0.85466 0.29199 0.58349 0.0
H3324 H 0.87385 0.38326 0.56385 0.0
H3325 H 0.89593 0.37989 0.60766 0.0
H3326 H 0.92602 0.3773 0.62548 0.0
H3327 H 1.00623 0.46182 0.61327 0.0
H3328 H 0.9767 0.46468 0.59527 0.0
H3329 H 0.83081 0.49635 0.57695 0.0
H3330 H 0.83939 0.45199 0.5781 0.0
H3331 H 0.93856 0.51448 0.5784 0.0
H3332 H 0.93017 0.55899 0.57722 0.0
H3333 H 0.92348 0.46881 0.59491 0.0
H3334 H 0.90126 0.47411 0.55182 0.0
H3335 H 0.87181 0.47704 0.53384 0.0
H3336 H 0.79309 0.38932 0.54423 0.0
H3337 H 0.82193 0.38607 0.56238 0.0
C3338 C 0.93289 0.3425 0.58227 0.0
C3339 C 0.90508 0.31368 0.58298 0.0
C3340 C 0.93212 0.37044 0.58155 0.0
C3341 C 0.90355 0.37005 0.58149 0.0
C3342 C 0.87591 0.34132 0.58221 0.0
C3343 C 0.87664 0.3136 0.58299 0.0
C3344 C 0.9019 0.39924 0.58051 0.0
C3345 C 0.8845 0.40184 0.57072 0.0
C3346 C 0.91649 0.42397 0.58923 0.0
C3347 C 0.93422 0.42229 0.60004 0.0
C3348 C 0.92006 0.39777 0.60872 0.0
C3349 C 0.937 0.39628 0.61886 0.0
C3350 C 0.96805 0.41932 0.62048 0.0
C3351 C 0.9822 0.44395 0.61198 0.0
C3352 C 0.96537 0.44553 0.60181 0.0
C3353 C 0.85447 0.50072 0.57717 0.0
C3354 C 0.87976 0.53137 0.57694 0.0
C3355 C 0.85936 0.47527 0.57785 0.0
C3356 C 0.88967 0.47975 0.57817 0.0
C3357 C 0.91496 0.51031 0.57817 0.0
C3358 C 0.91009 0.5358 0.57754 0.0
C3359 C 0.8949 0.45255 0.57839 0.0
C3360 C 0.913 0.45035 0.588 0.0
C3361 C 0.88107 0.42819 0.56946 0.0
C3362 C 0.86367 0.42999 0.55853 0.0
C3363 C 0.87759 0.45556 0.55032 0.0
C3364 C 0.86102 0.45726 0.54009 0.0
C3365 C 0.83057 0.43342 0.53791 0.0
C3366 C 0.81666 0.40778 0.54594 0.0
C3367 C 0.83312 0.40599 0.5562 0.0
H3368 H 0.81778 0.43477 0.52998 0.0
H3369 H 0.98112 0.41814 0.62834 0.0
H3370 H 0.49303 0.39064 0.58508 0.0
H3371 H 0.53797 0.44238 0.58837 0.0
H3372 H 0.59947 0.40625 0.58092 0.0
H3373 H 0.55456 0.35435 0.57754 0.0
H3374 H 0.62041 0.44598 0.60034 0.0
H3375 H 0.5846 0.44737 0.55867 0.0
H3376 H 0.54624 0.44121 0.54267 0.0
H3377 H 0.53278 0.51077 0.56105 0.0
H3378 H 0.57078 0.51704 0.57727 0.0
H3379 H 0.75978 0.58053 0.58329 0.0
H3380 H 0.71145 0.53105 0.58436 0.0
H3381 H 0.66137 0.57885 0.59348 0.0
H3382 H 0.71019 0.6291 0.59233 0.0
H3383 H 0.63233 0.53498 0.57497 0.0
H3384 H 0.67214 0.53679 0.61567 0.0
H3385 H 0.71142 0.54326 0.63127 0.0
H3386 H 0.71807 0.46796 0.61451 0.0
H3387 H 0.67914 0.46132 0.59868 0.0
C3388 C 0.5161 0.39365 0.58406 0.0
C3389 C 0.52004 0.3682 0.58091 0.0
C3390 C 0.54184 0.42334 0.58598 0.0
C3391 C 0.57225 0.42848 0.58472 0.0
C3392 C 0.5763 0.40298 0.58194 0.0
C3393 C 0.55054 0.37323 0.58005 0.0
C3394 C 0.59979 0.46045 0.58608 0.0
C3395 C 0.62311 0.46535 0.59471 0.0
C3396 C 0.60306 0.4861 0.57901 0.0
C3397 C 0.58026 0.48241 0.56926 0.0
C3398 C 0.57327 0.46117 0.55936 0.0
C3399 C 0.55163 0.45769 0.55024 0.0
C3400 C 0.53701 0.47552 0.55086 0.0
C3401 C 0.54408 0.49693 0.56059 0.0
C3402 C 0.56568 0.50047 0.56974 0.0
C3403 C 0.73861 0.58072 0.58563 0.0
C3404 C 0.73898 0.60897 0.58771 0.0
C3405 C 0.7109 0.55223 0.5863 0.0
C3406 C 0.68267 0.55104 0.5891 0.0
C3407 C 0.68286 0.57913 0.59134 0.0
C3408 C 0.7108 0.60784 0.59075 0.0
C3409 C 0.65311 0.5204 0.58912 0.0
C3410 C 0.62944 0.51571 0.58073 0.0
C3411 C 0.64955 0.49493 0.59638 0.0
C3412 C 0.67286 0.49871 0.60593 0.0
C3413 C 0.68213 0.52175 0.61525 0.0
C3414 C 0.70431 0.52543 0.62415 0.0
C3415 C 0.71727 0.50607 0.62387 0.0
C3416 C 0.70802 0.48295 0.61471 0.0
C3417 C 0.68586 0.47919 0.60578 0.0
H3418 H 0.73445 0.50896 0.63077 0.0
H3419 H 0.52026 0.4728 0.54379 0.0
loop_
_geom_bond_atom_site_label_1
_geom_bond_atom_site_label_2
_geom_bond_distance
_geom_bond_site_symmetry_2
_ccdc_geom_bond_type
Dy0 O3 2.307 1_565 S
Dy0 O5 2.395 . S
Dy0 O6 2.379 . S
Dy0 O8 2.339 . S
Dy0 O10 2.298 . S
Dy0 O14 2.275 . S
Dy0 C22 2.738 . S
Dy1 O4 2.298 . S
Dy1 O7 2.275 . S
Dy1 O9 2.307 1_545 S
Dy1 O11 2.395 . S
Dy1 O12 2.379 . S
Dy1 O15 2.339 . S
Dy1 C31 2.738 . S
C2 O14 1.254 1_545 S
C2 O15 1.257 . S
O3 Dy0 2.307 1_545 S
O3 C13 1.266 . S
O4 Dy1 2.298 . S
O4 C13 1.236 . S
O5 Dy0 2.395 . S
O5 C22 1.255 . S
O6 Dy0 2.379 . S
O6 C22 1.249 . S
O7 Dy1 2.275 . S
O7 C23 1.254 . S
O8 Dy0 2.339 . S
O8 C23 1.257 1_565 S
O9 Dy1 2.307 1_565 S
O9 C24 1.266 . S
O10 Dy0 2.298 . S
O10 C24 1.236 . S
O11 Dy1 2.395 . S
O11 C31 1.255 . S
O12 Dy1 2.379 . S
O12 C31 1.249 . S
C13 O3 1.266 . S
C13 O4 1.236 . S
O14 Dy0 2.275 . S
O14 C2 1.254 1_565 S
O15 Dy1 2.339 . S
O15 C2 1.257 . S
C16 C19 1.344 . S
C16 C20 1.328 . S
C16 C22 1.516 . S
C17 C18 1.304 . S
C17 C21 1.323 . S
C18 C17 1.304 . S
C18 C19 1.371 . S
C18 H32 0.930 . S
C19 C16 1.344 . S
C19 C18 1.371 . S
C19 H33 0.931 . S
C20 C16 1.328 . S
C20 C21 1.433 . S
C20 H34 0.931 . S
C21 C17 1.323 . S
C21 C20 1.433 . S
C21 H35 0.933 . S
C22 Dy0 2.738 . S
C22 O5 1.255 . S
C22 O6 1.249 . S
C22 C16 1.516 . S
C23 O7 1.254 . S
C23 O8 1.257 1_545 S
C24 O9 1.266 . S
C24 O10 1.236 . S
C25 C28 1.344 . S
C25 C29 1.328 . S
C25 C31 1.516 . S
C26 C27 1.304 . S
C26 C30 1.323 . S
C27 C26 1.304 . S
C27 C28 1.371 . S
C27 H36 0.930 . S
C28 C25 1.344 . S
C28 C27 1.371 . S
C28 H37 0.931 . S
C29 C25 1.328 . S
C29 C30 1.433 . S
C29 H38 0.931 . S
C30 C26 1.323 . S
C30 C29 1.433 . S
C30 H39 0.933 . S
C31 Dy1 2.738 . S
C31 O11 1.255 . S
C31 O12 1.249 . S
C31 C25 1.516 . S
H32 C18 0.930 . S
H33 C19 0.931 . S
H34 C20 0.931 . S
H35 C21 0.933 . S
H36 C27 0.930 . S
H37 C28 0.931 . S
H38 C29 0.931 . S
H39 C30 0.933 . S
Dy40 O43 2.307 . S
Dy40 O45 2.395 . S
Dy40 O46 2.379 . S
Dy40 O48 2.339 . S
Dy40 O50 2.298 . S
Dy40 O54 2.275 . S
Dy40 C62 2.738 . S
Dy41 O44 2.298 1_455 S
Dy41 O47 2.275 . S
Dy41 O49 2.307 . S
Dy41 O51 2.395 1_455 S
Dy41 O52 2.379 1_455 S
Dy41 O55 2.339 . S
Dy41 C71 2.738 1_455 S
C42 O54 1.254 . S
C42 O55 1.257 . S
O43 Dy40 2.307 . S
O43 C53 1.266 1_455 S
O44 Dy41 2.298 1_655 S
O44 C53 1.236 . S
O45 Dy40 2.395 . S
O45 C62 1.255 . S
O46 Dy40 2.379 . S
O46 C62 1.249 . S
O47 Dy41 2.275 . S
O47 C63 1.254 . S
O48 Dy40 2.339 . S
O48 C63 1.257 . S
O49 Dy41 2.307 . S
O49 C64 1.266 . S
O50 Dy40 2.298 . S
O50 C64 1.236 . S
O51 Dy41 2.395 1_655 S
O51 C71 1.255 . S
O52 Dy41 2.379 1_655 S
O52 C71 1.249 . S
C53 O43 1.266 1_655 S
C53 O44 1.236 . S
O54 Dy40 2.275 . S
O54 C42 1.254 . S
O55 Dy41 2.339 . S
O55 C42 1.257 . S
C56 C59 1.344 . S
C56 C60 1.328 . S
C56 C62 1.516 . S
C57 C58 1.304 . S
C57 C61 1.323 . S
C58 C57 1.304 . S
C58 C59 1.371 . S
C58 H72 0.930 . S
C59 C56 1.344 . S
C59 C58 1.371 . S
C59 H73 0.931 . S
C60 C56 1.328 . S
C60 C61 1.433 . S
C60 H74 0.931 . S
C61 C57 1.323 . S
C61 C60 1.433 . S
C61 H75 0.933 . S
C62 Dy40 2.738 . S
C62 O45 1.255 . S
C62 O46 1.249 . S
C62 C56 1.516 . S
C63 O47 1.254 . S
C63 O48 1.257 . S
C64 O49 1.266 . S
C64 O50 1.236 . S
C65 C68 1.344 . S
C65 C69 1.328 . S
C65 C71 1.516 . S
C66 C67 1.304 . S
C66 C70 1.323 . S
C67 C66 1.304 . S
C67 C68 1.371 . S
C67 H76 0.930 . S
C68 C65 1.344 . S
C68 C67 1.371 . S
C68 H77 0.931 . S
C69 C65 1.328 . S
C69 C70 1.433 . S
C69 H78 0.931 . S
C70 C66 1.323 . S
C70 C69 1.433 . S
C70 H79 0.933 . S
C71 Dy41 2.738 1_655 S
C71 O51 1.255 . S
C71 O52 1.249 . S
C71 C65 1.516 . S
H72 C58 0.930 . S
H73 C59 0.931 . S
H74 C60 0.931 . S
H75 C61 0.933 . S
H76 C67 0.930 . S
H77 C68 0.931 . S
H78 C69 0.931 . S
H79 C70 0.933 . S
Dy80 O83 2.307 . S
Dy80 O85 2.395 . S
Dy80 O86 2.379 . S
Dy80 O88 2.339 . S
Dy80 O90 2.298 . S
Dy80 O94 2.275 . S
Dy80 C102 2.738 . S
Dy81 O84 2.298 . S
Dy81 O87 2.275 . S
Dy81 O89 2.307 . S
Dy81 O91 2.395 . S
Dy81 O92 2.379 . S
Dy81 O95 2.339 . S
Dy81 C111 2.738 . S
C82 O94 1.254 . S
C82 O95 1.257 . S
O83 Dy80 2.307 . S
O83 C93 1.266 . S
O84 Dy81 2.298 . S
O84 C93 1.236 . S
O85 Dy80 2.395 . S
O85 C102 1.255 . S
O86 Dy80 2.379 . S
O86 C102 1.249 . S
O87 Dy81 2.275 . S
O87 C103 1.254 . S
O88 Dy80 2.339 . S
O88 C103 1.257 . S
O89 Dy81 2.307 . S
O89 C104 1.266 . S
O90 Dy80 2.298 . S
O90 C104 1.236 . S
O91 Dy81 2.395 . S
O91 C111 1.255 . S
O92 Dy81 2.379 . S
O92 C111 1.249 . S
C93 O83 1.266 . S
C93 O84 1.236 . S
O94 Dy80 2.275 . S
O94 C82 1.254 . S
O95 Dy81 2.339 . S
O95 C82 1.257 . S
C96 C99 1.344 . S
C96 C100 1.328 . S
C96 C102 1.516 . S
C97 C98 1.304 . S
C97 C101 1.323 . S
C98 C97 1.304 . S
C98 C99 1.371 . S
C98 H112 0.930 . S
C99 C96 1.344 . S
C99 C98 1.371 . S
C99 H113 0.931 . S
C100 C96 1.328 . S
C100 C101 1.433 . S
C100 H114 0.931 . S
C101 C97 1.323 . S
C101 C100 1.433 . S
C101 H115 0.933 . S
C102 Dy80 2.738 . S
C102 O85 1.255 . S
C102 O86 1.249 . S
C102 C96 1.516 . S
C103 O87 1.254 . S
C103 O88 1.257 . S
C104 O89 1.266 . S
C104 O90 1.236 . S
C105 C108 1.344 . S
C105 C109 1.328 . S
C105 C111 1.516 . S
C106 C107 1.304 . S
C106 C110 1.323 . S
C107 C106 1.304 . S
C107 C108 1.371 . S
C107 H116 0.930 . S
C108 C105 1.344 . S
C108 C107 1.371 . S
C108 H117 0.931 . S
C109 C105 1.328 . S
C109 C110 1.433 . S
C109 H118 0.931 . S
C110 C106 1.323 . S
C110 C109 1.433 . S
C110 H119 0.933 . S
C111 Dy81 2.738 . S
C111 O91 1.255 . S
C111 O92 1.249 . S
C111 C105 1.516 . S
H112 C98 0.930 . S
H113 C99 0.931 . S
H114 C100 0.931 . S
H115 C101 0.933 . S
H116 C107 0.930 . S
H117 C108 0.931 . S
H118 C109 0.931 . S
H119 C110 0.933 . S
Dy120 O123 2.307 1_655 S
Dy120 O125 2.395 . S
Dy120 O126 2.379 . S
Dy120 O128 2.339 . S
Dy120 O130 2.298 . S
Dy120 O134 2.275 . S
Dy120 C142 2.738 . S
Dy121 O124 2.298 . S
Dy121 O127 2.275 . S
Dy121 O129 2.307 1_455 S
Dy121 O131 2.395 . S
Dy121 O132 2.379 . S
Dy121 O135 2.339 . S
Dy121 C151 2.738 . S
C122 O134 1.254 1_455 S
C122 O135 1.257 . S
O123 Dy120 2.307 1_455 S
O123 C133 1.266 . S
O124 Dy121 2.298 . S
O124 C133 1.236 . S
O125 Dy120 2.395 . S
O125 C142 1.255 . S
O126 Dy120 2.379 . S
O126 C142 1.249 . S
O127 Dy121 2.275 . S
O127 C143 1.254 . S
O128 Dy120 2.339 . S
O128 C143 1.257 1_655 S
O129 Dy121 2.307 1_655 S
O129 C144 1.266 . S
O130 Dy120 2.298 . S
O130 C144 1.236 . S
O131 Dy121 2.395 . S
O131 C151 1.255 . S
O132 Dy121 2.379 . S
O132 C151 1.249 . S
C133 O123 1.266 . S
C133 O124 1.236 . S
O134 Dy120 2.275 . S
O134 C122 1.254 1_655 S
O135 Dy121 2.339 . S
O135 C122 1.257 . S
C136 C139 1.344 . S
C136 C140 1.328 . S
C136 C142 1.516 . S
C137 C138 1.304 . S
C137 C141 1.323 . S
C138 C137 1.304 . S
C138 C139 1.371 . S
C138 H152 0.930 . S
C139 C136 1.344 . S
C139 C138 1.371 . S
C139 H153 0.931 . S
C140 C136 1.328 . S
C140 C141 1.433 . S
C140 H154 0.931 . S
C141 C137 1.323 . S
C141 C140 1.433 . S
C141 H155 0.933 . S
C142 Dy120 2.738 . S
C142 O125 1.255 . S
C142 O126 1.249 . S
C142 C136 1.516 . S
C143 O127 1.254 . S
C143 O128 1.257 1_455 S
C144 O129 1.266 . S
C144 O130 1.236 . S
C145 C148 1.344 . S
C145 C149 1.328 . S
C145 C151 1.516 . S
C146 C147 1.304 . S
C146 C150 1.323 . S
C147 C146 1.304 . S
C147 C148 1.371 . S
C147 H156 0.930 . S
C148 C145 1.344 . S
C148 C147 1.371 . S
C148 H157 0.931 . S
C149 C145 1.328 . S
C149 C150 1.433 . S
C149 H158 0.931 . S
C150 C146 1.323 . S
C150 C149 1.433 . S
C150 H159 0.933 . S
C151 Dy121 2.738 . S
C151 O131 1.255 . S
C151 O132 1.249 . S
C151 C145 1.516 . S
H152 C138 0.930 . S
H153 C139 0.931 . S
H154 C140 0.931 . S
H155 C141 0.933 . S
H156 C147 0.930 . S
H157 C148 0.931 . S
H158 C149 0.931 . S
H159 C150 0.933 . S
Dy160 O163 2.307 . S
Dy160 O165 2.395 . S
Dy160 O166 2.379 . S
Dy160 O168 2.339 . S
Dy160 O170 2.298 . S
Dy160 O174 2.275 . S
Dy160 C182 2.738 . S
Dy161 O164 2.298 . S
Dy161 O167 2.275 . S
Dy161 O169 2.307 . S
Dy161 O171 2.395 . S
Dy161 O172 2.379 . S
Dy161 O175 2.339 . S
Dy161 C191 2.738 . S
C162 O174 1.254 . S
C162 O175 1.257 . S
O163 Dy160 2.307 . S
O163 C173 1.266 . S
O164 Dy161 2.298 . S
O164 C173 1.236 . S
O165 Dy160 2.395 . S
O165 C182 1.255 . S
O166 Dy160 2.379 . S
O166 C182 1.249 . S
O167 Dy161 2.275 . S
O167 C183 1.254 . S
O168 Dy160 2.339 . S
O168 C183 1.257 . S
O169 Dy161 2.307 . S
O169 C184 1.266 . S
O170 Dy160 2.298 . S
O170 C184 1.236 . S
O171 Dy161 2.395 . S
O171 C191 1.255 . S
O172 Dy161 2.379 . S
O172 C191 1.249 . S
C173 O163 1.266 . S
C173 O164 1.236 . S
O174 Dy160 2.275 . S
O174 C162 1.254 . S
O175 Dy161 2.339 . S
O175 C162 1.257 . S
C176 C179 1.344 . S
C176 C180 1.328 . S
C176 C182 1.516 . S
C177 C178 1.304 . S
C177 C181 1.323 . S
C178 C177 1.304 . S
C178 C179 1.371 . S
C178 H192 0.930 . S
C179 C176 1.344 . S
C179 C178 1.371 . S
C179 H193 0.931 . S
C180 C176 1.328 . S
C180 C181 1.433 . S
C180 H194 0.931 . S
C181 C177 1.323 . S
C181 C180 1.433 . S
C181 H195 0.933 . S
C182 Dy160 2.738 . S
C182 O165 1.255 . S
C182 O166 1.249 . S
C182 C176 1.516 . S
C183 O167 1.254 . S
C183 O168 1.257 . S
C184 O169 1.266 . S
C184 O170 1.236 . S
C185 C188 1.344 . S
C185 C189 1.328 . S
C185 C191 1.516 . S
C186 C187 1.304 . S
C186 C190 1.323 . S
C187 C186 1.304 . S
C187 C188 1.371 . S
C187 H196 0.930 . S
C188 C185 1.344 . S
C188 C187 1.371 . S
C188 H197 0.931 . S
C189 C185 1.328 . S
C189 C190 1.433 . S
C189 H198 0.931 . S
C190 C186 1.323 . S
C190 C189 1.433 . S
C190 H199 0.933 . S
C191 Dy161 2.738 . S
C191 O171 1.255 . S
C191 O172 1.249 . S
C191 C185 1.516 . S
H192 C178 0.930 . S
H193 C179 0.931 . S
H194 C180 0.931 . S
H195 C181 0.933 . S
H196 C187 0.930 . S
H197 C188 0.931 . S
H198 C189 0.931 . S
H199 C190 0.933 . S
Dy200 O203 2.307 . S
Dy200 O205 2.395 . S
Dy200 O206 2.379 . S
Dy200 O208 2.339 . S
Dy200 O210 2.298 . S
Dy200 O214 2.275 . S
Dy200 C222 2.738 . S
Dy201 O204 2.298 1_545 S
Dy201 O207 2.275 . S
Dy201 O209 2.307 . S
Dy201 O211 2.395 1_545 S
Dy201 O212 2.379 1_545 S
Dy201 O215 2.339 . S
Dy201 C231 2.738 1_545 S
C202 O214 1.254 . S
C202 O215 1.257 . S
O203 Dy200 2.307 . S
O203 C213 1.266 1_545 S
O204 Dy201 2.298 1_565 S
O204 C213 1.236 . S
O205 Dy200 2.395 . S
O205 C222 1.255 . S
O206 Dy200 2.379 . S
O206 C222 1.249 . S
O207 Dy201 2.275 . S
O207 C223 1.254 . S
O208 Dy200 2.339 . S
O208 C223 1.257 . S
O209 Dy201 2.307 . S
O209 C224 1.266 . S
O210 Dy200 2.298 . S
O210 C224 1.236 . S
O211 Dy201 2.395 1_565 S
O211 C231 1.255 . S
O212 Dy201 2.379 1_565 S
O212 C231 1.249 . S
C213 O203 1.266 1_565 S
C213 O204 1.236 . S
O214 Dy200 2.275 . S
O214 C202 1.254 . S
O215 Dy201 2.339 . S
O215 C202 1.257 . S
C216 C219 1.344 . S
C216 C220 1.328 . S
C216 C222 1.516 . S
C217 C218 1.304 . S
C217 C221 1.323 . S
C218 C217 1.304 . S
C218 C219 1.371 . S
C218 H232 0.930 . S
C219 C216 1.344 . S
C219 C218 1.371 . S
C219 H233 0.931 . S
C220 C216 1.328 . S
C220 C221 1.433 . S
C220 H234 0.931 . S
C221 C217 1.323 . S
C221 C220 1.433 . S
C221 H235 0.933 . S
C222 Dy200 2.738 . S
C222 O205 1.255 . S
C222 O206 1.249 . S
C222 C216 1.516 . S
C223 O207 1.254 . S
C223 O208 1.257 . S
C224 O209 1.266 . S
C224 O210 1.236 . S
C225 C228 1.344 . S
C225 C229 1.328 . S
C225 C231 1.516 . S
C226 C227 1.304 . S
C226 C230 1.323 . S
C227 C226 1.304 . S
C227 C228 1.371 . S
C227 H236 0.930 . S
C228 C225 1.344 . S
C228 C227 1.371 . S
C228 H237 0.931 . S
C229 C225 1.328 . S
C229 C230 1.433 . S
C229 H238 0.931 . S
C230 C226 1.323 . S
C230 C229 1.433 . S
C230 H239 0.933 . S
C231 Dy201 2.738 1_565 S
C231 O211 1.255 . S
C231 O212 1.249 . S
C231 C225 1.516 . S
H232 C218 0.930 . S
H233 C219 0.931 . S
H234 C220 0.931 . S
H235 C221 0.933 . S
H236 C227 0.930 . S
H237 C228 0.931 . S
H238 C229 0.931 . S
H239 C230 0.933 . S
Dy240 O243 2.307 . S
Dy240 O245 2.395 . S
Dy240 O246 2.379 . S
Dy240 O248 2.339 . S
Dy240 O250 2.298 . S
Dy240 O254 2.275 . S
Dy240 C262 2.738 . S
Dy241 O244 2.298 . S
Dy241 O247 2.275 . S
Dy241 O249 2.307 . S
Dy241 O251 2.395 . S
Dy241 O252 2.379 . S
Dy241 O255 2.339 . S
Dy241 C271 2.738 . S
C242 O254 1.254 . S
C242 O255 1.257 . S
O243 Dy240 2.307 . S
O243 C253 1.266 . S
O244 Dy241 2.298 . S
O244 C253 1.236 . S
O245 Dy240 2.395 . S
O245 C262 1.255 . S
O246 Dy240 2.379 . S
O246 C262 1.249 . S
O247 Dy241 2.275 . S
O247 C263 1.254 . S
O248 Dy240 2.339 . S
O248 C263 1.257 . S
O249 Dy241 2.307 . S
O249 C264 1.266 . S
O250 Dy240 2.298 . S
O250 C264 1.236 . S
O251 Dy241 2.395 . S
O251 C271 1.255 . S
O252 Dy241 2.379 . S
O252 C271 1.249 . S
C253 O243 1.266 . S
C253 O244 1.236 . S
O254 Dy240 2.275 . S
O254 C242 1.254 . S
O255 Dy241 2.339 . S
O255 C242 1.257 . S
C256 C259 1.344 . S
C256 C260 1.328 . S
C256 C262 1.516 . S
C257 C258 1.296 1_655 S
C257 C261 1.323 . S
C258 C257 1.296 1_455 S
C258 C259 1.379 . S
C258 H272 0.930 1_455 S
C259 C256 1.344 . S
C259 C258 1.379 . S
C259 H273 0.931 . S
C260 C256 1.328 . S
C260 C261 1.433 1_455 S
C260 H274 0.931 . S
C261 C257 1.323 . S
C261 C260 1.433 1_655 S
C261 H275 0.933 . S
C262 Dy240 2.738 . S
C262 O245 1.255 . S
C262 O246 1.249 . S
C262 C256 1.516 . S
C263 O247 1.254 . S
C263 O248 1.257 . S
C264 O249 1.266 . S
C264 O250 1.236 . S
C265 C268 1.344 . S
C265 C269 1.328 . S
C265 C271 1.516 . S
C266 C267 1.304 . S
C266 C270 1.323 . S
C267 C266 1.304 . S
C267 C268 1.371 . S
C267 H276 0.930 . S
C268 C265 1.344 . S
C268 C267 1.371 . S
C268 H277 0.931 . S
C269 C265 1.328 . S
C269 C270 1.433 . S
C269 H278 0.931 . S
C270 C266 1.323 . S
C270 C269 1.433 . S
C270 H279 0.933 . S
C271 Dy241 2.738 . S
C271 O251 1.255 . S
C271 O252 1.249 . S
C271 C265 1.516 . S
H272 C258 0.930 1_655 S
H273 C259 0.931 . S
H274 C260 0.931 . S
H275 C261 0.933 . S
H276 C267 0.930 . S
H277 C268 0.931 . S
H278 C269 0.931 . S
H279 C270 0.933 . S
Dy280 O283 2.307 . S
Dy280 O285 2.395 . S
Dy280 O286 2.379 . S
Dy280 O288 2.339 . S
Dy280 O290 2.298 . S
Dy280 O294 2.275 . S
Dy280 C302 2.738 . S
Dy281 O284 2.298 . S
Dy281 O287 2.275 . S
Dy281 O289 2.307 . S
Dy281 O291 2.395 . S
Dy281 O292 2.379 . S
Dy281 O295 2.339 . S
Dy281 C311 2.738 . S
C282 O294 1.254 . S
C282 O295 1.257 . S
O283 Dy280 2.307 . S
O283 C293 1.266 . S
O284 Dy281 2.298 . S
O284 C293 1.236 . S
O285 Dy280 2.395 . S
O285 C302 1.255 . S
O286 Dy280 2.379 . S
O286 C302 1.249 . S
O287 Dy281 2.275 . S
O287 C303 1.254 . S
O288 Dy280 2.339 . S
O288 C303 1.257 . S
O289 Dy281 2.307 . S
O289 C304 1.266 . S
O290 Dy280 2.298 . S
O290 C304 1.236 . S
O291 Dy281 2.395 . S
O291 C311 1.255 . S
O292 Dy281 2.379 . S
O292 C311 1.249 . S
C293 O283 1.266 . S
C293 O284 1.236 . S
O294 Dy280 2.275 . S
O294 C282 1.254 . S
O295 Dy281 2.339 . S
O295 C282 1.257 . S
C296 C299 1.344 . S
C296 C300 1.328 . S
C296 C302 1.516 . S
C297 C298 1.304 . S
C297 C301 1.323 . S
C298 C297 1.304 . S
C298 C299 1.371 . S
C298 H312 0.930 . S
C299 C296 1.344 . S
C299 C298 1.371 . S
C299 H313 0.931 . S
C300 C296 1.328 . S
C300 C301 1.433 . S
C300 H314 0.931 . S
C301 C297 1.323 . S
C301 C300 1.433 . S
C301 H315 0.933 . S
C302 Dy280 2.738 . S
C302 O285 1.255 . S
C302 O286 1.249 . S
C302 C296 1.516 . S
C303 O287 1.254 . S
C303 O288 1.257 . S
C304 O289 1.266 . S
C304 O290 1.236 . S
C305 C308 1.344 . S
C305 C309 1.328 . S
C305 C311 1.516 . S
C306 C307 1.304 . S
C306 C310 1.323 . S
C307 C306 1.304 . S
C307 C308 1.371 . S
C307 H316 0.930 . S
C308 C305 1.344 . S
C308 C307 1.371 . S
C308 H317 0.931 . S
C309 C305 1.328 . S
C309 C310 1.433 . S
C309 H318 0.931 . S
C310 C306 1.323 . S
C310 C309 1.433 . S
C310 H319 0.933 . S
C311 Dy281 2.738 . S
C311 O291 1.255 . S
C311 O292 1.249 . S
C311 C305 1.516 . S
H312 C298 0.930 . S
H313 C299 0.931 . S
H314 C300 0.931 . S
H315 C301 0.933 . S
H316 C307 0.930 . S
H317 C308 0.931 . S
H318 C309 0.931 . S
H319 C310 0.933 . S
Dy320 O323 2.307 . S
Dy320 O325 2.395 . S
Dy320 O326 2.379 . S
Dy320 O328 2.339 . S
Dy320 O330 2.298 . S
Dy320 O334 2.275 . S
Dy320 C342 2.738 . S
Dy321 O324 2.298 . S
Dy321 O327 2.275 . S
Dy321 O329 2.307 . S
Dy321 O331 2.395 . S
Dy321 O332 2.379 . S
Dy321 O335 2.339 . S
Dy321 C351 2.738 . S
C322 O334 1.254 . S
C322 O335 1.257 . S
O323 Dy320 2.307 . S
O323 C333 1.266 . S
O324 Dy321 2.298 . S
O324 C333 1.236 . S
O325 Dy320 2.395 . S
O325 C342 1.255 . S
O326 Dy320 2.379 . S
O326 C342 1.249 . S
O327 Dy321 2.275 . S
O327 C343 1.254 . S
O328 Dy320 2.339 . S
O328 C343 1.257 . S
O329 Dy321 2.307 . S
O329 C344 1.266 . S
O330 Dy320 2.298 . S
O330 C344 1.236 . S
O331 Dy321 2.395 . S
O331 C351 1.255 . S
O332 Dy321 2.379 . S
O332 C351 1.249 . S
C333 O323 1.266 . S
C333 O324 1.236 . S
O334 Dy320 2.275 . S
O334 C322 1.254 . S
O335 Dy321 2.339 . S
O335 C322 1.257 . S
C336 C339 1.344 . S
C336 C340 1.328 . S
C336 C342 1.516 1_545 S
C337 C338 1.304 . S
C337 C341 1.323 . S
C338 C337 1.304 . S
C338 C339 1.371 . S
C338 H352 0.930 . S
C339 C336 1.344 . S
C339 C338 1.371 . S
C339 H353 0.931 1_545 S
C340 C336 1.328 . S
C340 C341 1.433 . S
C340 H354 0.931 . S
C341 C337 1.323 . S
C341 C340 1.433 . S
C341 H355 0.933 . S
C342 Dy320 2.738 . S
C342 O325 1.255 . S
C342 O326 1.249 . S
C342 C336 1.516 1_565 S
C343 O327 1.254 . S
C343 O328 1.257 . S
C344 O329 1.266 . S
C344 O330 1.236 . S
C345 C348 1.344 . S
C345 C349 1.328 . S
C345 C351 1.516 . S
C346 C347 1.304 . S
C346 C350 1.323 . S
C347 C346 1.304 . S
C347 C348 1.371 . S
C347 H356 0.930 . S
C348 C345 1.344 . S
C348 C347 1.371 . S
C348 H357 0.931 . S
C349 C345 1.328 . S
C349 C350 1.433 . S
C349 H358 0.931 . S
C350 C346 1.323 . S
C350 C349 1.433 . S
C350 H359 0.933 . S
C351 Dy321 2.738 . S
C351 O331 1.255 . S
C351 O332 1.249 . S
C351 C345 1.516 . S
H352 C338 0.930 . S
H353 C339 0.931 1_565 S
H354 C340 0.931 . S
H355 C341 0.933 . S
H356 C347 0.930 . S
H357 C348 0.931 . S
H358 C349 0.931 . S
H359 C350 0.933 . S
Dy360 O363 2.307 . S
Dy360 O365 2.395 . S
Dy360 O366 2.379 . S
Dy360 O368 2.339 . S
Dy360 O370 2.298 . S
Dy360 O374 2.275 . S
Dy360 C382 2.738 . S
Dy361 O364 2.298 . S
Dy361 O367 2.275 . S
Dy361 O369 2.307 . S
Dy361 O371 2.395 . S
Dy361 O372 2.379 . S
Dy361 O375 2.339 . S
Dy361 C391 2.738 . S
C362 O374 1.254 . S
C362 O375 1.257 . S
O363 Dy360 2.307 . S
O363 C373 1.266 . S
O364 Dy361 2.298 . S
O364 C373 1.236 . S
O365 Dy360 2.395 . S
O365 C382 1.255 . S
O366 Dy360 2.379 . S
O366 C382 1.249 . S
O367 Dy361 2.275 . S
O367 C383 1.254 . S
O368 Dy360 2.339 . S
O368 C383 1.257 . S
O369 Dy361 2.307 . S
O369 C384 1.266 . S
O370 Dy360 2.298 . S
O370 C384 1.236 . S
O371 Dy361 2.395 . S
O371 C391 1.255 . S
O372 Dy361 2.379 . S
O372 C391 1.249 . S
C373 O363 1.266 . S
C373 O364 1.236 . S
O374 Dy360 2.275 . S
O374 C362 1.254 . S
O375 Dy361 2.339 . S
O375 C362 1.257 . S
C376 C379 1.344 . S
C376 C380 1.328 . S
C376 C382 1.516 . S
C377 C378 1.304 . S
C377 C381 1.323 . S
C378 C377 1.304 . S
C378 C379 1.371 . S
C378 H392 0.930 . S
C379 C376 1.344 . S
C379 C378 1.371 . S
C379 H393 0.931 . S
C380 C376 1.328 . S
C380 C381 1.433 . S
C380 H394 0.931 . S
C381 C377 1.323 . S
C381 C380 1.433 . S
C381 H395 0.933 . S
C382 Dy360 2.738 . S
C382 O365 1.255 . S
C382 O366 1.249 . S
C382 C376 1.516 . S
C383 O367 1.254 . S
C383 O368 1.257 . S
C384 O369 1.266 . S
C384 O370 1.236 . S
C385 C388 1.344 . S
C385 C389 1.328 . S
C385 C391 1.516 . S
C386 C387 1.304 . S
C386 C390 1.323 . S
C387 C386 1.304 . S
C387 C388 1.371 . S
C387 H396 0.930 . S
C388 C385 1.344 . S
C388 C387 1.371 . S
C388 H397 0.931 . S
C389 C385 1.328 . S
C389 C390 1.433 . S
C389 H398 0.931 . S
C390 C386 1.323 . S
C390 C389 1.433 . S
C390 H399 0.933 . S
C391 Dy361 2.738 . S
C391 O371 1.255 . S
C391 O372 1.249 . S
C391 C385 1.516 . S
H392 C378 0.930 . S
H393 C379 0.931 . S
H394 C380 0.931 . S
H395 C381 0.933 . S
H396 C387 0.930 . S
H397 C388 0.931 . S
H398 C389 0.931 . S
H399 C390 0.933 . S
Dy400 O403 2.307 . S
Dy400 O405 2.395 . S
Dy400 O406 2.379 . S
Dy400 O408 2.339 . S
Dy400 O410 2.298 . S
Dy400 O414 2.275 . S
Dy400 C422 2.738 . S
Dy401 O404 2.298 . S
Dy401 O407 2.275 . S
Dy401 O409 2.307 . S
Dy401 O411 2.395 . S
Dy401 O412 2.379 . S
Dy401 O415 2.339 . S
Dy401 C431 2.738 . S
C402 O414 1.254 . S
C402 O415 1.257 . S
O403 Dy400 2.307 . S
O403 C413 1.266 . S
O404 Dy401 2.298 . S
O404 C413 1.236 . S
O405 Dy400 2.395 . S
O405 C422 1.255 . S
O406 Dy400 2.379 . S
O406 C422 1.249 . S
O407 Dy401 2.275 . S
O407 C423 1.254 . S
O408 Dy400 2.339 . S
O408 C423 1.257 . S
O409 Dy401 2.307 . S
O409 C424 1.266 . S
O410 Dy400 2.298 . S
O410 C424 1.236 . S
O411 Dy401 2.395 . S
O411 C431 1.255 . S
O412 Dy401 2.379 . S
O412 C431 1.249 . S
C413 O403 1.266 . S
C413 O404 1.236 . S
O414 Dy400 2.275 . S
O414 C402 1.254 . S
O415 Dy401 2.339 . S
O415 C402 1.257 . S
C416 C419 1.344 . S
C416 C420 1.328 . S
C416 C422 1.516 . S
C417 C418 1.304 . S
C417 C421 1.323 . S
C418 C417 1.304 . S
C418 C419 1.371 . S
C418 H432 0.930 . S
C419 C416 1.344 . S
C419 C418 1.371 . S
C419 H433 0.931 . S
C420 C416 1.328 . S
C420 C421 1.433 . S
C420 H434 0.931 . S
C421 C417 1.323 . S
C421 C420 1.433 . S
C421 H435 0.933 . S
C422 Dy400 2.738 . S
C422 O405 1.255 . S
C422 O406 1.249 . S
C422 C416 1.516 . S
C423 O407 1.254 . S
C423 O408 1.257 . S
C424 O409 1.266 . S
C424 O410 1.236 . S
C425 C428 1.344 . S
C425 C429 1.328 . S
C425 C431 1.516 . S
C426 C427 1.304 . S
C426 C430 1.323 . S
C427 C426 1.304 . S
C427 C428 1.371 . S
C427 H436 0.930 . S
C428 C425 1.344 . S
C428 C427 1.371 . S
C428 H437 0.931 . S
C429 C425 1.328 . S
C429 C430 1.433 . S
C429 H438 0.931 . S
C430 C426 1.323 . S
C430 C429 1.433 . S
C430 H439 0.933 . S
C431 Dy401 2.738 . S
C431 O411 1.255 . S
C431 O412 1.249 . S
C431 C425 1.516 . S
H432 C418 0.930 . S
H433 C419 0.931 . S
H434 C420 0.931 . S
H435 C421 0.933 . S
H436 C427 0.930 . S
H437 C428 0.931 . S
H438 C429 0.931 . S
H439 C430 0.933 . S
Dy440 O443 2.307 . S
Dy440 O445 2.395 . S
Dy440 O446 2.379 . S
Dy440 O448 2.339 . S
Dy440 O450 2.298 . S
Dy440 O454 2.275 . S
Dy440 C462 2.738 . S
Dy441 O444 2.298 . S
Dy441 O447 2.275 . S
Dy441 O449 2.307 . S
Dy441 O451 2.395 . S
Dy441 O452 2.379 . S
Dy441 O455 2.339 . S
Dy441 C471 2.738 . S
C442 O454 1.254 . S
C442 O455 1.257 . S
O443 Dy440 2.307 . S
O443 C453 1.266 . S
O444 Dy441 2.298 . S
O444 C453 1.236 . S
O445 Dy440 2.395 . S
O445 C462 1.255 . S
O446 Dy440 2.379 . S
O446 C462 1.249 . S
O447 Dy441 2.275 . S
O447 C463 1.254 . S
O448 Dy440 2.339 . S
O448 C463 1.257 . S
O449 Dy441 2.307 . S
O449 C464 1.266 . S
O450 Dy440 2.298 . S
O450 C464 1.236 . S
O451 Dy441 2.395 . S
O451 C471 1.255 . S
O452 Dy441 2.379 . S
O452 C471 1.249 . S
C453 O443 1.266 . S
C453 O444 1.236 . S
O454 Dy440 2.275 . S
O454 C442 1.254 . S
O455 Dy441 2.339 . S
O455 C442 1.257 . S
C456 C459 1.344 . S
C456 C460 1.328 . S
C456 C462 1.516 . S
C457 C458 1.304 . S
C457 C461 1.323 . S
C458 C457 1.304 . S
C458 C459 1.371 . S
C458 H472 0.930 . S
C459 C456 1.344 . S
C459 C458 1.371 . S
C459 H473 0.931 . S
C460 C456 1.328 . S
C460 C461 1.433 . S
C460 H474 0.931 . S
C461 C457 1.323 . S
C461 C460 1.433 . S
C461 H475 0.933 . S
C462 Dy440 2.738 . S
C462 O445 1.255 . S
C462 O446 1.249 . S
C462 C456 1.516 . S
C463 O447 1.254 . S
C463 O448 1.257 . S
C464 O449 1.266 . S
C464 O450 1.236 . S
C465 C468 1.344 . S
C465 C469 1.328 . S
C465 C471 1.516 . S
C466 C467 1.304 . S
C466 C470 1.323 . S
C467 C466 1.304 . S
C467 C468 1.371 . S
C467 H476 0.930 . S
C468 C465 1.344 . S
C468 C467 1.371 . S
C468 H477 0.931 . S
C469 C465 1.328 . S
C469 C470 1.433 . S
C469 H478 0.931 . S
C470 C466 1.323 . S
C470 C469 1.433 . S
C470 H479 0.933 . S
C471 Dy441 2.738 . S
C471 O451 1.255 . S
C471 O452 1.249 . S
C471 C465 1.516 . S
H472 C458 0.930 . S
H473 C459 0.931 . S
H474 C460 0.931 . S
H475 C461 0.933 . S
H476 C467 0.930 . S
H477 C468 0.931 . S
H478 C469 0.931 . S
H479 C470 0.933 . S
Dy480 O483 2.307 . S
Dy480 O485 2.395 . S
Dy480 O486 2.379 . S
Dy480 O488 2.339 . S
Dy480 O490 2.298 . S
Dy480 O494 2.275 . S
Dy480 C502 2.738 . S
Dy481 O484 2.298 . S
Dy481 O487 2.275 . S
Dy481 O489 2.307 . S
Dy481 O491 2.395 . S
Dy481 O492 2.379 . S
Dy481 O495 2.339 . S
Dy481 C511 2.738 . S
C482 O494 1.254 . S
C482 O495 1.257 . S
O483 Dy480 2.307 . S
O483 C493 1.266 . S
O484 Dy481 2.298 . S
O484 C493 1.236 . S
O485 Dy480 2.395 . S
O485 C502 1.255 . S
O486 Dy480 2.379 . S
O486 C502 1.249 . S
O487 Dy481 2.275 . S
O487 C503 1.254 . S
O488 Dy480 2.339 . S
O488 C503 1.257 . S
O489 Dy481 2.307 . S
O489 C504 1.266 . S
O490 Dy480 2.298 . S
O490 C504 1.236 . S
O491 Dy481 2.395 . S
O491 C511 1.255 . S
O492 Dy481 2.379 . S
O492 C511 1.249 . S
C493 O483 1.266 . S
C493 O484 1.236 . S
O494 Dy480 2.275 . S
O494 C482 1.254 . S
O495 Dy481 2.339 . S
O495 C482 1.257 . S
C496 C499 1.344 . S
C496 C500 1.328 . S
C496 C502 1.516 . S
C497 C498 1.304 . S
C497 C501 1.323 . S
C498 C497 1.304 . S
C498 C499 1.371 . S
C498 H512 0.930 . S
C499 C496 1.344 . S
C499 C498 1.371 . S
C499 H513 0.931 . S
C500 C496 1.328 . S
C500 C501 1.433 . S
C500 H514 0.931 . S
C501 C497 1.323 . S
C501 C500 1.433 . S
C501 H515 0.933 . S
C502 Dy480 2.738 . S
C502 O485 1.255 . S
C502 O486 1.249 . S
C502 C496 1.516 . S
C503 O487 1.254 . S
C503 O488 1.257 . S
C504 O489 1.266 . S
C504 O490 1.236 . S
C505 C508 1.344 . S
C505 C509 1.328 . S
C505 C511 1.516 . S
C506 C507 1.304 . S
C506 C510 1.323 . S
C507 C506 1.304 . S
C507 C508 1.371 . S
C507 H516 0.930 . S
C508 C505 1.344 . S
C508 C507 1.371 . S
C508 H517 0.931 . S
C509 C505 1.328 . S
C509 C510 1.433 . S
C509 H518 0.931 . S
C510 C506 1.323 . S
C510 C509 1.433 . S
C510 H519 0.933 . S
C511 Dy481 2.738 . S
C511 O491 1.255 . S
C511 O492 1.249 . S
C511 C505 1.516 . S
H512 C498 0.930 . S
H513 C499 0.931 . S
H514 C500 0.931 . S
H515 C501 0.933 . S
H516 C507 0.930 . S
H517 C508 0.931 . S
H518 C509 0.931 . S
H519 C510 0.933 . S
Dy520 O523 2.307 . S
Dy520 O525 2.395 . S
Dy520 O526 2.379 . S
Dy520 O528 2.339 . S
Dy520 O530 2.298 . S
Dy520 O534 2.275 . S
Dy520 C542 2.738 . S
Dy521 O524 2.298 . S
Dy521 O527 2.275 . S
Dy521 O529 2.307 . S
Dy521 O531 2.395 . S
Dy521 O532 2.379 . S
Dy521 O535 2.339 . S
Dy521 C551 2.738 . S
C522 O534 1.254 . S
C522 O535 1.257 . S
O523 Dy520 2.307 . S
O523 C533 1.266 . S
O524 Dy521 2.298 . S
O524 C533 1.236 . S
O525 Dy520 2.395 . S
O525 C542 1.255 . S
O526 Dy520 2.379 . S
O526 C542 1.249 . S
O527 Dy521 2.275 . S
O527 C543 1.254 . S
O528 Dy520 2.339 . S
O528 C543 1.257 . S
O529 Dy521 2.307 . S
O529 C544 1.266 . S
O530 Dy520 2.298 . S
O530 C544 1.236 . S
O531 Dy521 2.395 . S
O531 C551 1.255 . S
O532 Dy521 2.379 . S
O532 C551 1.249 . S
C533 O523 1.266 . S
C533 O524 1.236 . S
O534 Dy520 2.275 . S
O534 C522 1.254 . S
O535 Dy521 2.339 . S
O535 C522 1.257 . S
C536 C539 1.344 . S
C536 C540 1.328 . S
C536 C542 1.516 . S
C537 C538 1.304 . S
C537 C541 1.323 . S
C538 C537 1.304 . S
C538 C539 1.371 . S
C538 H552 0.930 . S
C539 C536 1.344 . S
C539 C538 1.371 . S
C539 H553 0.931 . S
C540 C536 1.328 . S
C540 C541 1.433 . S
C540 H554 0.931 . S
C541 C537 1.323 . S
C541 C540 1.433 . S
C541 H555 0.933 . S
C542 Dy520 2.738 . S
C542 O525 1.255 . S
C542 O526 1.249 . S
C542 C536 1.516 . S
C543 O527 1.254 . S
C543 O528 1.257 . S
C544 O529 1.266 . S
C544 O530 1.236 . S
C545 C548 1.344 . S
C545 C549 1.328 . S
C545 C551 1.516 . S
C546 C547 1.304 . S
C546 C550 1.323 . S
C547 C546 1.304 . S
C547 C548 1.371 . S
C547 H556 0.930 . S
C548 C545 1.344 . S
C548 C547 1.371 . S
C548 H557 0.931 . S
C549 C545 1.328 . S
C549 C550 1.433 . S
C549 H558 0.931 . S
C550 C546 1.323 . S
C550 C549 1.433 . S
C550 H559 0.933 . S
C551 Dy521 2.738 . S
C551 O531 1.255 . S
C551 O532 1.249 . S
C551 C545 1.516 . S
H552 C538 0.930 . S
H553 C539 0.931 . S
H554 C540 0.931 . S
H555 C541 0.933 . S
H556 C547 0.930 . S
H557 C548 0.931 . S
H558 C549 0.931 . S
H559 C550 0.933 . S
Dy560 O563 2.307 . S
Dy560 O565 2.395 . S
Dy560 O566 2.379 . S
Dy560 O568 2.339 . S
Dy560 O570 2.298 . S
Dy560 O574 2.275 . S
Dy560 C582 2.738 . S
Dy561 O564 2.298 . S
Dy561 O567 2.275 . S
Dy561 O569 2.307 . S
Dy561 O571 2.395 . S
Dy561 O572 2.379 . S
Dy561 O575 2.339 . S
Dy561 C591 2.738 . S
C562 O574 1.254 . S
C562 O575 1.257 . S
O563 Dy560 2.307 . S
O563 C573 1.266 . S
O564 Dy561 2.298 . S
O564 C573 1.236 . S
O565 Dy560 2.395 . S
O565 C582 1.255 . S
O566 Dy560 2.379 . S
O566 C582 1.249 . S
O567 Dy561 2.275 . S
O567 C583 1.254 . S
O568 Dy560 2.339 . S
O568 C583 1.257 . S
O569 Dy561 2.307 . S
O569 C584 1.266 . S
O570 Dy560 2.298 . S
O570 C584 1.236 . S
O571 Dy561 2.395 . S
O571 C591 1.255 . S
O572 Dy561 2.379 . S
O572 C591 1.249 . S
C573 O563 1.266 . S
C573 O564 1.236 . S
O574 Dy560 2.275 . S
O574 C562 1.254 . S
O575 Dy561 2.339 . S
O575 C562 1.257 . S
C576 C579 1.344 . S
C576 C580 1.328 . S
C576 C582 1.516 . S
C577 C578 1.304 . S
C577 C581 1.323 . S
C578 C577 1.304 . S
C578 C579 1.371 . S
C578 H592 0.930 . S
C579 C576 1.344 . S
C579 C578 1.371 . S
C579 H593 0.931 . S
C580 C576 1.328 . S
C580 C581 1.433 . S
C580 H594 0.931 . S
C581 C577 1.323 . S
C581 C580 1.433 . S
C581 H595 0.933 . S
C582 Dy560 2.738 . S
C582 O565 1.255 . S
C582 O566 1.249 . S
C582 C576 1.516 . S
C583 O567 1.254 . S
C583 O568 1.257 . S
C584 O569 1.266 . S
C584 O570 1.236 . S
C585 C588 1.344 . S
C585 C589 1.328 . S
C585 C591 1.516 . S
C586 C587 1.304 . S
C586 C590 1.323 . S
C587 C586 1.304 . S
C587 C588 1.371 . S
C587 H596 0.930 . S
C588 C585 1.344 . S
C588 C587 1.371 . S
C588 H597 0.931 . S
C589 C585 1.328 . S
C589 C590 1.433 . S
C589 H598 0.931 . S
C590 C586 1.323 . S
C590 C589 1.433 . S
C590 H599 0.933 . S
C591 Dy561 2.738 . S
C591 O571 1.255 . S
C591 O572 1.249 . S
C591 C585 1.516 . S
H592 C578 0.930 . S
H593 C579 0.931 . S
H594 C580 0.931 . S
H595 C581 0.933 . S
H596 C587 0.930 . S
H597 C588 0.931 . S
H598 C589 0.931 . S
H599 C590 0.933 . S
Dy600 O603 2.307 . S
Dy600 O605 2.395 . S
Dy600 O606 2.379 . S
Dy600 O608 2.339 . S
Dy600 O610 2.298 . S
Dy600 O614 2.275 . S
Dy600 C622 2.738 . S
Dy601 O604 2.298 . S
Dy601 O607 2.275 . S
Dy601 O609 2.307 . S
Dy601 O611 2.395 . S
Dy601 O612 2.379 . S
Dy601 O615 2.339 . S
Dy601 C631 2.738 . S
C602 O614 1.254 . S
C602 O615 1.257 . S
O603 Dy600 2.307 . S
O603 C613 1.266 . S
O604 Dy601 2.298 . S
O604 C613 1.236 . S
O605 Dy600 2.395 . S
O605 C622 1.255 . S
O606 Dy600 2.379 . S
O606 C622 1.249 . S
O607 Dy601 2.275 . S
O607 C623 1.254 . S
O608 Dy600 2.339 . S
O608 C623 1.257 . S
O609 Dy601 2.307 . S
O609 C624 1.266 . S
O610 Dy600 2.298 . S
O610 C624 1.236 . S
O611 Dy601 2.395 . S
O611 C631 1.255 . S
O612 Dy601 2.379 . S
O612 C631 1.249 . S
C613 O603 1.266 . S
C613 O604 1.236 . S
O614 Dy600 2.275 . S
O614 C602 1.254 . S
O615 Dy601 2.339 . S
O615 C602 1.257 . S
C616 C619 1.344 . S
C616 C620 1.328 . S
C616 C622 1.516 . S
C617 C618 1.296 1_565 S
C617 C621 1.323 . S
C618 C617 1.296 1_545 S
C618 C619 1.379 . S
C618 H632 0.930 1_545 S
C619 C616 1.344 . S
C619 C618 1.379 . S
C619 H633 0.931 . S
C620 C616 1.328 . S
C620 C621 1.433 1_545 S
C620 H634 0.931 . S
C621 C617 1.323 . S
C621 C620 1.433 1_565 S
C621 H635 0.933 . S
C622 Dy600 2.738 . S
C622 O605 1.255 . S
C622 O606 1.249 . S
C622 C616 1.516 . S
C623 O607 1.254 . S
C623 O608 1.257 . S
C624 O609 1.266 . S
C624 O610 1.236 . S
C625 C628 1.344 . S
C625 C629 1.328 . S
C625 C631 1.516 . S
C626 C627 1.304 . S
C626 C630 1.323 . S
C627 C626 1.304 . S
C627 C628 1.371 . S
C627 H636 0.930 . S
C628 C625 1.344 . S
C628 C627 1.371 . S
C628 H637 0.931 . S
C629 C625 1.328 . S
C629 C630 1.433 . S
C629 H638 0.931 . S
C630 C626 1.323 . S
C630 C629 1.433 . S
C630 H639 0.933 . S
C631 Dy601 2.738 . S
C631 O611 1.255 . S
C631 O612 1.249 . S
C631 C625 1.516 . S
H632 C618 0.930 1_565 S
H633 C619 0.931 . S
H634 C620 0.931 . S
H635 C621 0.933 . S
H636 C627 0.930 . S
H637 C628 0.931 . S
H638 C629 0.931 . S
H639 C630 0.933 . S
Dy640 O643 2.307 . S
Dy640 O645 2.395 . S
Dy640 O646 2.379 . S
Dy640 O648 2.339 . S
Dy640 O650 2.298 . S
Dy640 O654 2.275 . S
Dy640 C662 2.738 . S
Dy641 O644 2.298 . S
Dy641 O647 2.275 . S
Dy641 O649 2.307 . S
Dy641 O651 2.395 . S
Dy641 O652 2.379 . S
Dy641 O655 2.339 . S
Dy641 C671 2.738 . S
C642 O654 1.254 . S
C642 O655 1.257 . S
O643 Dy640 2.307 . S
O643 C653 1.266 . S
O644 Dy641 2.298 . S
O644 C653 1.236 . S
O645 Dy640 2.395 . S
O645 C662 1.255 . S
O646 Dy640 2.379 . S
O646 C662 1.249 . S
O647 Dy641 2.275 . S
O647 C663 1.254 . S
O648 Dy640 2.339 . S
O648 C663 1.257 . S
O649 Dy641 2.307 . S
O649 C664 1.266 . S
O650 Dy640 2.298 . S
O650 C664 1.236 . S
O651 Dy641 2.395 . S
O651 C671 1.255 . S
O652 Dy641 2.379 . S
O652 C671 1.249 . S
C653 O643 1.266 . S
C653 O644 1.236 . S
O654 Dy640 2.275 . S
O654 C642 1.254 . S
O655 Dy641 2.339 . S
O655 C642 1.257 . S
C656 C659 1.344 . S
C656 C660 1.328 . S
C656 C662 1.516 1_455 S
C657 C658 1.304 . S
C657 C661 1.323 . S
C658 C657 1.304 . S
C658 C659 1.371 . S
C658 H672 0.930 . S
C659 C656 1.344 . S
C659 C658 1.371 . S
C659 H673 0.931 1_455 S
C660 C656 1.328 . S
C660 C661 1.433 . S
C660 H674 0.931 . S
C661 C657 1.323 . S
C661 C660 1.433 . S
C661 H675 0.933 . S
C662 Dy640 2.738 . S
C662 O645 1.255 . S
C662 O646 1.249 . S
C662 C656 1.516 1_655 S
C663 O647 1.254 . S
C663 O648 1.257 . S
C664 O649 1.266 . S
C664 O650 1.236 . S
C665 C668 1.344 . S
C665 C669 1.328 . S
C665 C671 1.516 . S
C666 C667 1.304 . S
C666 C670 1.323 . S
C667 C666 1.304 . S
C667 C668 1.371 . S
C667 H676 0.930 . S
C668 C665 1.344 . S
C668 C667 1.371 . S
C668 H677 0.931 . S
C669 C665 1.328 . S
C669 C670 1.433 . S
C669 H678 0.931 . S
C670 C666 1.323 . S
C670 C669 1.433 . S
C670 H679 0.933 . S
C671 Dy641 2.738 . S
C671 O651 1.255 . S
C671 O652 1.249 . S
C671 C665 1.516 . S
H672 C658 0.930 . S
H673 C659 0.931 1_655 S
H674 C660 0.931 . S
H675 C661 0.933 . S
H676 C667 0.930 . S
H677 C668 0.931 . S
H678 C669 0.931 . S
H679 C670 0.933 . S
Dy680 O683 2.307 . S
Dy680 O685 2.395 . S
Dy680 O686 2.379 . S
Dy680 O688 2.339 . S
Dy680 O690 2.298 . S
Dy680 O694 2.275 . S
Dy680 C702 2.738 . S
Dy681 O684 2.298 . S
Dy681 O687 2.275 . S
Dy681 O689 2.307 . S
Dy681 O691 2.395 . S
Dy681 O692 2.379 . S
Dy681 O695 2.339 . S
Dy681 C711 2.738 . S
C682 O694 1.254 . S
C682 O695 1.257 . S
O683 Dy680 2.307 . S
O683 C693 1.266 . S
O684 Dy681 2.298 . S
O684 C693 1.236 . S
O685 Dy680 2.395 . S
O685 C702 1.255 . S
O686 Dy680 2.379 . S
O686 C702 1.249 . S
O687 Dy681 2.275 . S
O687 C703 1.254 . S
O688 Dy680 2.339 . S
O688 C703 1.257 . S
O689 Dy681 2.307 . S
O689 C704 1.266 . S
O690 Dy680 2.298 . S
O690 C704 1.236 . S
O691 Dy681 2.395 . S
O691 C711 1.255 . S
O692 Dy681 2.379 . S
O692 C711 1.249 . S
C693 O683 1.266 . S
C693 O684 1.236 . S
O694 Dy680 2.275 . S
O694 C682 1.254 . S
O695 Dy681 2.339 . S
O695 C682 1.257 . S
C696 C699 1.344 . S
C696 C700 1.328 . S
C696 C702 1.516 . S
C697 C698 1.304 . S
C697 C701 1.323 . S
C698 C697 1.304 . S
C698 C699 1.371 . S
C698 H712 0.930 . S
C699 C696 1.344 . S
C699 C698 1.371 . S
C699 H713 0.931 . S
C700 C696 1.328 . S
C700 C701 1.433 . S
C700 H714 0.931 . S
C701 C697 1.323 . S
C701 C700 1.433 . S
C701 H715 0.933 . S
C702 Dy680 2.738 . S
C702 O685 1.255 . S
C702 O686 1.249 . S
C702 C696 1.516 . S
C703 O687 1.254 . S
C703 O688 1.257 . S
C704 O689 1.266 . S
C704 O690 1.236 . S
C705 C708 1.344 . S
C705 C709 1.328 . S
C705 C711 1.516 . S
C706 C707 1.304 . S
C706 C710 1.323 . S
C707 C706 1.304 . S
C707 C708 1.371 . S
C707 H716 0.930 . S
C708 C705 1.344 . S
C708 C707 1.371 . S
C708 H717 0.931 . S
C709 C705 1.328 . S
C709 C710 1.433 . S
C709 H718 0.931 . S
C710 C706 1.323 . S
C710 C709 1.433 . S
C710 H719 0.933 . S
C711 Dy681 2.738 . S
C711 O691 1.255 . S
C711 O692 1.249 . S
C711 C705 1.516 . S
H712 C698 0.930 . S
H713 C699 0.931 . S
H714 C700 0.931 . S
H715 C701 0.933 . S
H716 C707 0.930 . S
H717 C708 0.931 . S
H718 C709 0.931 . S
H719 C710 0.933 . S
H720 C738 0.951 . S
H721 C740 0.951 . S
H722 C742 0.950 . S
H723 C743 0.950 . S
H724 C745 0.950 . S
H725 C748 0.950 . S
H726 C749 0.950 . S
H727 C751 0.950 . S
H728 C752 0.950 . S
H729 C753 0.951 . S
H730 C755 0.951 . S
H731 C757 0.950 . S
H732 C758 0.950 . S
H733 C760 0.950 . S
H734 C763 0.950 . S
H735 C764 0.950 . S
H736 C766 0.950 . S
H737 C767 0.950 . S
C738 H720 0.951 . S
C738 C739 1.366 . S
C738 C740 1.388 . S
C739 C738 1.366 . S
C739 C743 1.385 . S
C740 H721 0.951 . S
C740 C738 1.388 . S
C740 C741 1.366 . S
C741 C740 1.366 . S
C741 C742 1.414 . S
C741 C744 1.499 . S
C742 H722 0.950 . S
C742 C741 1.414 . S
C742 C743 1.374 . S
C743 H723 0.950 . S
C743 C739 1.385 . S
C743 C742 1.374 . S
C744 C741 1.499 . S
C744 C745 1.373 . S
C744 C746 1.389 . S
C745 H724 0.950 . S
C745 C744 1.373 . S
C745 C761 1.377 . S
C746 C744 1.389 . S
C746 C747 1.524 . S
C746 C760 1.377 . S
C747 C746 1.524 . S
C747 C748 1.397 . S
C747 C752 1.363 . S
C748 H725 0.950 . S
C748 C747 1.397 . S
C748 C749 1.334 . S
C749 H726 0.950 . S
C749 C748 1.334 . S
C749 C750 1.287 . S
C750 C749 1.287 . S
C750 C751 1.524 . S
C750 H769 0.913 . S
C751 H727 0.950 . S
C751 C750 1.524 . S
C751 C752 1.415 . S
C752 H728 0.950 . S
C752 C747 1.363 . S
C752 C751 1.415 . S
C753 H729 0.951 . S
C753 C754 1.366 . S
C753 C755 1.388 . S
C754 C753 1.366 . S
C754 C758 1.385 . S
C755 H730 0.951 . S
C755 C753 1.388 . S
C755 C756 1.366 . S
C756 C755 1.366 . S
C756 C757 1.414 . S
C756 C759 1.499 . S
C757 H731 0.950 . S
C757 C756 1.414 . S
C757 C758 1.374 . S
C758 H732 0.950 . S
C758 C754 1.385 . S
C758 C757 1.374 . S
C759 C756 1.499 . S
C759 C760 1.373 . S
C759 C761 1.389 . S
C760 H733 0.950 . S
C760 C746 1.377 . S
C760 C759 1.373 . S
C761 C745 1.377 . S
C761 C759 1.389 . S
C761 C762 1.524 . S
C762 C761 1.524 . S
C762 C763 1.397 . S
C762 C767 1.363 . S
C763 H734 0.950 . S
C763 C762 1.397 . S
C763 C764 1.334 . S
C764 H735 0.950 . S
C764 C763 1.334 . S
C764 C765 1.287 . S
C765 C764 1.287 . S
C765 C766 1.524 . S
C765 H768 0.999 . S
C766 H736 0.950 . S
C766 C765 1.524 . S
C766 C767 1.415 . S
C767 H737 0.950 . S
C767 C762 1.363 . S
C767 C766 1.415 . S
H768 C765 0.999 . S
H769 C750 0.913 . S
H770 C788 0.951 . S
H771 C790 0.951 . S
H772 C792 0.950 . S
H773 C793 0.950 . S
H774 C795 0.950 . S
H775 C798 0.950 . S
H776 C799 0.950 . S
H777 C801 0.950 . S
H778 C802 0.950 . S
H779 C803 0.951 . S
H780 C805 0.951 . S
H781 C807 0.950 . S
H782 C808 0.950 . S
H783 C810 0.950 . S
H784 C813 0.950 . S
H785 C814 0.950 . S
H786 C816 0.950 . S
H787 C817 0.950 . S
C788 H770 0.951 . S
C788 C789 1.366 . S
C788 C790 1.388 . S
C789 C788 1.366 . S
C789 C793 1.385 . S
C790 H771 0.951 . S
C790 C788 1.388 . S
C790 C791 1.366 . S
C791 C790 1.366 . S
C791 C792 1.414 . S
C791 C794 1.499 . S
C792 H772 0.950 . S
C792 C791 1.414 . S
C792 C793 1.374 . S
C793 H773 0.950 . S
C793 C789 1.385 . S
C793 C792 1.374 . S
C794 C791 1.499 . S
C794 C795 1.373 . S
C794 C796 1.389 . S
C795 H774 0.950 . S
C795 C794 1.373 . S
C795 C811 1.377 . S
C796 C794 1.389 . S
C796 C797 1.524 . S
C796 C810 1.377 . S
C797 C796 1.524 . S
C797 C798 1.397 . S
C797 C802 1.363 . S
C798 H775 0.950 . S
C798 C797 1.397 . S
C798 C799 1.334 . S
C799 H776 0.950 . S
C799 C798 1.334 . S
C799 C800 1.287 . S
C800 C799 1.287 . S
C800 C801 1.524 . S
C800 H819 0.913 . S
C801 H777 0.950 . S
C801 C800 1.524 . S
C801 C802 1.415 . S
C802 H778 0.950 . S
C802 C797 1.363 . S
C802 C801 1.415 . S
C803 H779 0.951 . S
C803 C804 1.366 . S
C803 C805 1.388 . S
C804 C803 1.366 . S
C804 C808 1.385 . S
C805 H780 0.951 . S
C805 C803 1.388 . S
C805 C806 1.366 . S
C806 C805 1.366 . S
C806 C807 1.414 . S
C806 C809 1.499 . S
C807 H781 0.950 . S
C807 C806 1.414 . S
C807 C808 1.374 . S
C808 H782 0.950 . S
C808 C804 1.385 . S
C808 C807 1.374 . S
C809 C806 1.499 . S
C809 C810 1.373 . S
C809 C811 1.389 . S
C810 H783 0.950 . S
C810 C796 1.377 . S
C810 C809 1.373 . S
C811 C795 1.377 . S
C811 C809 1.389 . S
C811 C812 1.524 . S
C812 C811 1.524 . S
C812 C813 1.397 . S
C812 C817 1.363 . S
C813 H784 0.950 . S
C813 C812 1.397 . S
C813 C814 1.334 . S
C814 H785 0.950 . S
C814 C813 1.334 . S
C814 C815 1.287 . S
C815 C814 1.287 . S
C815 C816 1.524 . S
C815 H818 0.999 . S
C816 H786 0.950 . S
C816 C815 1.524 . S
C816 C817 1.415 . S
C817 H787 0.950 . S
C817 C812 1.363 . S
C817 C816 1.415 . S
H818 C815 0.999 . S
H819 C800 0.913 . S
H820 C838 0.951 . S
H821 C840 0.951 . S
H822 C842 0.950 . S
H823 C843 0.950 . S
H824 C845 0.950 . S
H825 C848 0.950 . S
H826 C849 0.950 . S
H827 C851 0.950 . S
H828 C852 0.950 . S
H829 C853 0.951 . S
H830 C855 0.951 . S
H831 C857 0.950 . S
H832 C858 0.950 . S
H833 C860 0.950 . S
H834 C863 0.950 . S
H835 C864 0.950 . S
H836 C866 0.950 . S
H837 C867 0.950 . S
C838 H820 0.951 . S
C838 C839 1.366 . S
C838 C840 1.388 . S
C839 C838 1.366 . S
C839 C843 1.385 . S
C840 H821 0.951 . S
C840 C838 1.388 . S
C840 C841 1.366 . S
C841 C840 1.366 . S
C841 C842 1.414 . S
C841 C844 1.499 . S
C842 H822 0.950 . S
C842 C841 1.414 . S
C842 C843 1.374 . S
C843 H823 0.950 . S
C843 C839 1.385 . S
C843 C842 1.374 . S
C844 C841 1.499 . S
C844 C845 1.373 . S
C844 C846 1.389 . S
C845 H824 0.950 . S
C845 C844 1.373 . S
C845 C861 1.377 . S
C846 C844 1.389 . S
C846 C847 1.524 . S
C846 C860 1.377 . S
C847 C846 1.524 . S
C847 C848 1.397 . S
C847 C852 1.363 . S
C848 H825 0.950 . S
C848 C847 1.397 . S
C848 C849 1.334 . S
C849 H826 0.950 . S
C849 C848 1.334 . S
C849 C850 1.287 . S
C850 C849 1.287 . S
C850 C851 1.524 . S
C850 H869 0.913 . S
C851 H827 0.950 . S
C851 C850 1.524 . S
C851 C852 1.415 . S
C852 H828 0.950 . S
C852 C847 1.363 . S
C852 C851 1.415 . S
C853 H829 0.951 . S
C853 C854 1.366 . S
C853 C855 1.388 . S
C854 C853 1.366 . S
C854 C858 1.385 . S
C855 H830 0.951 . S
C855 C853 1.388 . S
C855 C856 1.366 . S
C856 C855 1.366 . S
C856 C857 1.414 . S
C856 C859 1.499 . S
C857 H831 0.950 . S
C857 C856 1.414 . S
C857 C858 1.374 . S
C858 H832 0.950 . S
C858 C854 1.385 . S
C858 C857 1.374 . S
C859 C856 1.499 . S
C859 C860 1.373 . S
C859 C861 1.389 . S
C860 H833 0.950 . S
C860 C846 1.377 . S
C860 C859 1.373 . S
C861 C845 1.377 . S
C861 C859 1.389 . S
C861 C862 1.524 . S
C862 C861 1.524 . S
C862 C863 1.397 . S
C862 C867 1.363 . S
C863 H834 0.950 . S
C863 C862 1.397 . S
C863 C864 1.334 . S
C864 H835 0.950 . S
C864 C863 1.334 . S
C864 C865 1.287 . S
C865 C864 1.287 . S
C865 C866 1.524 . S
C865 H868 0.999 . S
C866 H836 0.950 . S
C866 C865 1.524 . S
C866 C867 1.415 . S
C867 H837 0.950 . S
C867 C862 1.363 . S
C867 C866 1.415 . S
H868 C865 0.999 . S
H869 C850 0.913 . S
H870 C888 0.951 . S
H871 C890 0.951 . S
H872 C892 0.950 . S
H873 C893 0.950 . S
H874 C895 0.950 . S
H875 C898 0.950 . S
H876 C899 0.950 . S
H877 C901 0.950 . S
H878 C902 0.950 . S
H879 C903 0.951 . S
H880 C905 0.951 . S
H881 C907 0.950 . S
H882 C908 0.950 . S
H883 C910 0.950 . S
H884 C913 0.950 . S
H885 C914 0.950 . S
H886 C916 0.950 . S
H887 C917 0.950 . S
C888 H870 0.951 . S
C888 C889 1.366 . S
C888 C890 1.388 . S
C889 C888 1.366 . S
C889 C893 1.385 . S
C890 H871 0.951 . S
C890 C888 1.388 . S
C890 C891 1.366 . S
C891 C890 1.366 . S
C891 C892 1.414 . S
C891 C894 1.499 . S
C892 H872 0.950 . S
C892 C891 1.414 . S
C892 C893 1.374 . S
C893 H873 0.950 . S
C893 C889 1.385 . S
C893 C892 1.374 . S
C894 C891 1.499 . S
C894 C895 1.373 . S
C894 C896 1.389 . S
C895 H874 0.950 . S
C895 C894 1.373 . S
C895 C911 1.377 . S
C896 C894 1.389 . S
C896 C897 1.524 . S
C896 C910 1.377 . S
C897 C896 1.524 . S
C897 C898 1.397 . S
C897 C902 1.363 . S
C898 H875 0.950 . S
C898 C897 1.397 . S
C898 C899 1.334 . S
C899 H876 0.950 . S
C899 C898 1.334 . S
C899 C900 1.287 . S
C900 C899 1.287 . S
C900 C901 1.524 . S
C900 H919 0.913 . S
C901 H877 0.950 . S
C901 C900 1.524 . S
C901 C902 1.415 . S
C902 H878 0.950 . S
C902 C897 1.363 . S
C902 C901 1.415 . S
C903 H879 0.951 . S
C903 C904 1.366 . S
C903 C905 1.388 . S
C904 C903 1.366 . S
C904 C908 1.385 . S
C905 H880 0.951 . S
C905 C903 1.388 . S
C905 C906 1.366 . S
C906 C905 1.366 . S
C906 C907 1.414 . S
C906 C909 1.499 . S
C907 H881 0.950 . S
C907 C906 1.414 . S
C907 C908 1.374 . S
C908 H882 0.950 . S
C908 C904 1.385 . S
C908 C907 1.374 . S
C909 C906 1.499 . S
C909 C910 1.373 . S
C909 C911 1.389 . S
C910 H883 0.950 . S
C910 C896 1.377 . S
C910 C909 1.373 . S
C911 C895 1.377 . S
C911 C909 1.389 . S
C911 C912 1.524 . S
C912 C911 1.524 . S
C912 C913 1.397 . S
C912 C917 1.363 . S
C913 H884 0.950 . S
C913 C912 1.397 . S
C913 C914 1.334 . S
C914 H885 0.950 . S
C914 C913 1.334 . S
C914 C915 1.287 . S
C915 C914 1.287 . S
C915 C916 1.524 . S
C915 H918 0.999 . S
C916 H886 0.950 . S
C916 C915 1.524 . S
C916 C917 1.415 . S
C917 H887 0.950 . S
C917 C912 1.363 . S
C917 C916 1.415 . S
H918 C915 0.999 . S
H919 C900 0.913 . S
H920 C938 0.951 . S
H921 C940 0.951 . S
H922 C942 0.950 . S
H923 C943 0.950 . S
H924 C945 0.950 . S
H925 C948 0.950 . S
H926 C949 0.950 . S
H927 C951 0.950 . S
H928 C952 0.950 . S
H929 C953 0.951 . S
H930 C955 0.951 . S
H931 C957 0.950 . S
H932 C958 0.950 . S
H933 C960 0.950 . S
H934 C963 0.950 . S
H935 C964 0.950 . S
H936 C966 0.950 . S
H937 C967 0.950 . S
C938 H920 0.951 . S
C938 C939 1.366 . S
C938 C940 1.388 . S
C939 C938 1.366 . S
C939 C943 1.385 . S
C940 H921 0.951 . S
C940 C938 1.388 . S
C940 C941 1.366 . S
C941 C940 1.366 . S
C941 C942 1.414 . S
C941 C944 1.499 . S
C942 H922 0.950 . S
C942 C941 1.414 . S
C942 C943 1.374 . S
C943 H923 0.950 . S
C943 C939 1.385 . S
C943 C942 1.374 . S
C944 C941 1.499 . S
C944 C945 1.373 . S
C944 C946 1.389 . S
C945 H924 0.950 . S
C945 C944 1.373 . S
C945 C961 1.377 . S
C946 C944 1.389 . S
C946 C947 1.524 . S
C946 C960 1.377 . S
C947 C946 1.524 . S
C947 C948 1.397 . S
C947 C952 1.363 . S
C948 H925 0.950 . S
C948 C947 1.397 . S
C948 C949 1.334 . S
C949 H926 0.950 . S
C949 C948 1.334 . S
C949 C950 1.287 . S
C950 C949 1.287 . S
C950 C951 1.524 . S
C950 H969 0.913 . S
C951 H927 0.950 . S
C951 C950 1.524 . S
C951 C952 1.415 . S
C952 H928 0.950 . S
C952 C947 1.363 . S
C952 C951 1.415 . S
C953 H929 0.951 . S
C953 C954 1.366 . S
C953 C955 1.388 . S
C954 C953 1.366 . S
C954 C958 1.385 . S
C955 H930 0.951 . S
C955 C953 1.388 . S
C955 C956 1.366 . S
C956 C955 1.366 . S
C956 C957 1.414 . S
C956 C959 1.499 . S
C957 H931 0.950 . S
C957 C956 1.414 . S
C957 C958 1.374 . S
C958 H932 0.950 . S
C958 C954 1.385 . S
C958 C957 1.374 . S
C959 C956 1.499 . S
C959 C960 1.373 . S
C959 C961 1.389 . S
C960 H933 0.950 . S
C960 C946 1.377 . S
C960 C959 1.373 . S
C961 C945 1.377 . S
C961 C959 1.389 . S
C961 C962 1.524 . S
C962 C961 1.524 . S
C962 C963 1.397 . S
C962 C967 1.363 . S
C963 H934 0.950 . S
C963 C962 1.397 . S
C963 C964 1.334 . S
C964 H935 0.950 . S
C964 C963 1.334 . S
C964 C965 1.287 . S
C965 C964 1.287 . S
C965 C966 1.524 . S
C965 H968 0.999 . S
C966 H936 0.950 . S
C966 C965 1.524 . S
C966 C967 1.415 . S
C967 H937 0.950 . S
C967 C962 1.363 . S
C967 C966 1.415 . S
H968 C965 0.999 . S
H969 C950 0.913 . S
H970 C988 0.951 . S
H971 C990 0.951 . S
H972 C992 0.950 . S
H973 C993 0.950 . S
H974 C995 0.950 . S
H975 C998 0.950 . S
H976 C999 0.950 . S
H977 C1001 0.950 . S
H978 C1002 0.950 . S
H979 C1003 0.951 . S
H980 C1005 0.951 . S
H981 C1007 0.950 . S
H982 C1008 0.950 . S
H983 C1010 0.950 . S
H984 C1013 0.950 . S
H985 C1014 0.950 . S
H986 C1016 0.950 . S
H987 C1017 0.950 . S
C988 H970 0.951 . S
C988 C989 1.366 . S
C988 C990 1.388 . S
C989 C988 1.366 . S
C989 C993 1.385 . S
C990 H971 0.951 . S
C990 C988 1.388 . S
C990 C991 1.366 . S
C991 C990 1.366 . S
C991 C992 1.414 . S
C991 C994 1.499 . S
C992 H972 0.950 . S
C992 C991 1.414 . S
C992 C993 1.374 . S
C993 H973 0.950 . S
C993 C989 1.385 . S
C993 C992 1.374 . S
C994 C991 1.499 . S
C994 C995 1.373 . S
C994 C996 1.389 . S
C995 H974 0.950 . S
C995 C994 1.373 . S
C995 C1011 1.377 . S
C996 C994 1.389 . S
C996 C997 1.524 . S
C996 C1010 1.377 . S
C997 C996 1.524 . S
C997 C998 1.397 . S
C997 C1002 1.363 . S
C998 H975 0.950 . S
C998 C997 1.397 . S
C998 C999 1.334 . S
C999 H976 0.950 . S
C999 C998 1.334 . S
C999 C1000 1.287 . S
C1000 C999 1.287 . S
C1000 C1001 1.524 . S
C1000 H1019 0.913 . S
C1001 H977 0.950 . S
C1001 C1000 1.524 . S
C1001 C1002 1.415 . S
C1002 H978 0.950 . S
C1002 C997 1.363 . S
C1002 C1001 1.415 . S
C1003 H979 0.951 . S
C1003 C1004 1.366 . S
C1003 C1005 1.388 . S
C1004 C1003 1.366 . S
C1004 C1008 1.385 . S
C1005 H980 0.951 . S
C1005 C1003 1.388 . S
C1005 C1006 1.366 . S
C1006 C1005 1.366 . S
C1006 C1007 1.414 . S
C1006 C1009 1.499 . S
C1007 H981 0.950 . S
C1007 C1006 1.414 . S
C1007 C1008 1.374 . S
C1008 H982 0.950 . S
C1008 C1004 1.385 . S
C1008 C1007 1.374 . S
C1009 C1006 1.499 . S
C1009 C1010 1.373 . S
C1009 C1011 1.389 . S
C1010 H983 0.950 . S
C1010 C996 1.377 . S
C1010 C1009 1.373 . S
C1011 C995 1.377 . S
C1011 C1009 1.389 . S
C1011 C1012 1.524 . S
C1012 C1011 1.524 . S
C1012 C1013 1.397 . S
C1012 C1017 1.363 . S
C1013 H984 0.950 . S
C1013 C1012 1.397 . S
C1013 C1014 1.334 . S
C1014 H985 0.950 . S
C1014 C1013 1.334 . S
C1014 C1015 1.287 . S
C1015 C1014 1.287 . S
C1015 C1016 1.524 . S
C1015 H1018 0.999 . S
C1016 H986 0.950 . S
C1016 C1015 1.524 . S
C1016 C1017 1.415 . S
C1017 H987 0.950 . S
C1017 C1012 1.363 . S
C1017 C1016 1.415 . S
H1018 C1015 0.999 . S
H1019 C1000 0.913 . S
H1020 C1038 0.951 . S
H1021 C1040 0.951 . S
H1022 C1042 0.950 . S
H1023 C1043 0.950 . S
H1024 C1045 0.950 . S
H1025 C1048 0.950 . S
H1026 C1049 0.950 . S
H1027 C1051 0.950 . S
H1028 C1052 0.950 . S
H1029 C1053 0.951 . S
H1030 C1055 0.951 . S
H1031 C1057 0.950 . S
H1032 C1058 0.950 . S
H1033 C1060 0.950 . S
H1034 C1063 0.950 . S
H1035 C1064 0.950 . S
H1036 C1066 0.950 . S
H1037 C1067 0.950 . S
C1038 H1020 0.951 . S
C1038 C1039 1.366 . S
C1038 C1040 1.388 . S
C1039 C1038 1.366 . S
C1039 C1043 1.385 . S
C1040 H1021 0.951 . S
C1040 C1038 1.388 . S
C1040 C1041 1.366 . S
C1041 C1040 1.366 . S
C1041 C1042 1.414 . S
C1041 C1044 1.499 . S
C1042 H1022 0.950 . S
C1042 C1041 1.414 . S
C1042 C1043 1.374 . S
C1043 H1023 0.950 . S
C1043 C1039 1.385 . S
C1043 C1042 1.374 . S
C1044 C1041 1.499 . S
C1044 C1045 1.373 . S
C1044 C1046 1.389 . S
C1045 H1024 0.950 . S
C1045 C1044 1.373 . S
C1045 C1061 1.377 . S
C1046 C1044 1.389 . S
C1046 C1047 1.524 . S
C1046 C1060 1.377 . S
C1047 C1046 1.524 . S
C1047 C1048 1.397 . S
C1047 C1052 1.363 . S
C1048 H1025 0.950 . S
C1048 C1047 1.397 . S
C1048 C1049 1.334 . S
C1049 H1026 0.950 . S
C1049 C1048 1.334 . S
C1049 C1050 1.287 . S
C1050 C1049 1.287 . S
C1050 C1051 1.524 . S
C1050 H1069 0.913 . S
C1051 H1027 0.950 . S
C1051 C1050 1.524 . S
C1051 C1052 1.415 . S
C1052 H1028 0.950 . S
C1052 C1047 1.363 . S
C1052 C1051 1.415 . S
C1053 H1029 0.951 . S
C1053 C1054 1.366 . S
C1053 C1055 1.388 . S
C1054 C1053 1.366 . S
C1054 C1058 1.385 . S
C1055 H1030 0.951 . S
C1055 C1053 1.388 . S
C1055 C1056 1.366 . S
C1056 C1055 1.366 . S
C1056 C1057 1.414 . S
C1056 C1059 1.499 . S
C1057 H1031 0.950 . S
C1057 C1056 1.414 . S
C1057 C1058 1.374 . S
C1058 H1032 0.950 . S
C1058 C1054 1.385 . S
C1058 C1057 1.374 . S
C1059 C1056 1.499 . S
C1059 C1060 1.373 . S
C1059 C1061 1.389 . S
C1060 H1033 0.950 . S
C1060 C1046 1.377 . S
C1060 C1059 1.373 . S
C1061 C1045 1.377 . S
C1061 C1059 1.389 . S
C1061 C1062 1.524 . S
C1062 C1061 1.524 . S
C1062 C1063 1.397 . S
C1062 C1067 1.363 . S
C1063 H1034 0.950 . S
C1063 C1062 1.397 . S
C1063 C1064 1.334 . S
C1064 H1035 0.950 . S
C1064 C1063 1.334 . S
C1064 C1065 1.287 . S
C1065 C1064 1.287 . S
C1065 C1066 1.524 . S
C1065 H1068 0.999 . S
C1066 H1036 0.950 . S
C1066 C1065 1.524 . S
C1066 C1067 1.415 . S
C1067 H1037 0.950 . S
C1067 C1062 1.363 . S
C1067 C1066 1.415 . S
H1068 C1065 0.999 . S
H1069 C1050 0.913 . S
H1070 C1088 0.951 . S
H1071 C1090 0.951 . S
H1072 C1092 0.950 . S
H1073 C1093 0.950 . S
H1074 C1095 0.950 . S
H1075 C1098 0.950 . S
H1076 C1099 0.950 . S
H1077 C1101 0.950 . S
H1078 C1102 0.950 . S
H1079 C1103 0.951 . S
H1080 C1105 0.951 . S
H1081 C1107 0.950 . S
H1082 C1108 0.950 . S
H1083 C1110 0.950 . S
H1084 C1113 0.950 . S
H1085 C1114 0.950 . S
H1086 C1116 0.950 . S
H1087 C1117 0.950 . S
C1088 H1070 0.951 . S
C1088 C1089 1.366 . S
C1088 C1090 1.388 . S
C1089 C1088 1.366 . S
C1089 C1093 1.385 . S
C1090 H1071 0.951 . S
C1090 C1088 1.388 . S
C1090 C1091 1.366 . S
C1091 C1090 1.366 . S
C1091 C1092 1.414 . S
C1091 C1094 1.499 . S
C1092 H1072 0.950 . S
C1092 C1091 1.414 . S
C1092 C1093 1.374 . S
C1093 H1073 0.950 . S
C1093 C1089 1.385 . S
C1093 C1092 1.374 . S
C1094 C1091 1.499 . S
C1094 C1095 1.373 . S
C1094 C1096 1.389 . S
C1095 H1074 0.950 . S
C1095 C1094 1.373 . S
C1095 C1111 1.377 . S
C1096 C1094 1.389 . S
C1096 C1097 1.524 . S
C1096 C1110 1.377 . S
C1097 C1096 1.524 . S
C1097 C1098 1.397 . S
C1097 C1102 1.363 . S
C1098 H1075 0.950 . S
C1098 C1097 1.397 . S
C1098 C1099 1.334 . S
C1099 H1076 0.950 . S
C1099 C1098 1.334 . S
C1099 C1100 1.287 . S
C1100 C1099 1.287 . S
C1100 C1101 1.524 . S
C1100 H1119 0.913 . S
C1101 H1077 0.950 . S
C1101 C1100 1.524 . S
C1101 C1102 1.415 . S
C1102 H1078 0.950 . S
C1102 C1097 1.363 . S
C1102 C1101 1.415 . S
C1103 H1079 0.951 . S
C1103 C1104 1.366 . S
C1103 C1105 1.388 . S
C1104 C1103 1.366 . S
C1104 C1108 1.385 . S
C1105 H1080 0.951 . S
C1105 C1103 1.388 . S
C1105 C1106 1.366 . S
C1106 C1105 1.366 . S
C1106 C1107 1.414 . S
C1106 C1109 1.499 . S
C1107 H1081 0.950 . S
C1107 C1106 1.414 . S
C1107 C1108 1.374 . S
C1108 H1082 0.950 . S
C1108 C1104 1.385 . S
C1108 C1107 1.374 . S
C1109 C1106 1.499 . S
C1109 C1110 1.373 1_565 S
C1109 C1111 1.389 1_565 S
C1110 H1083 0.950 . S
C1110 C1096 1.377 . S
C1110 C1109 1.373 1_545 S
C1111 C1095 1.377 . S
C1111 C1109 1.389 1_545 S
C1111 C1112 1.524 1_545 S
C1112 C1111 1.524 1_565 S
C1112 C1113 1.397 . S
C1112 C1117 1.363 1_565 S
C1113 H1084 0.950 . S
C1113 C1112 1.397 . S
C1113 C1114 1.334 . S
C1114 H1085 0.950 . S
C1114 C1113 1.334 . S
C1114 C1115 1.287 . S
C1115 C1114 1.287 . S
C1115 C1116 1.524 . S
C1115 H1118 0.999 . S
C1116 H1086 0.950 . S
C1116 C1115 1.524 . S
C1116 C1117 1.415 1_565 S
C1117 H1087 0.950 . S
C1117 C1112 1.363 1_545 S
C1117 C1116 1.415 1_545 S
H1118 C1115 0.999 . S
H1119 C1100 0.913 . S
H1120 C1138 0.951 . S
H1121 C1140 0.951 . S
H1122 C1142 0.950 . S
H1123 C1143 0.950 . S
H1124 C1145 0.950 . S
H1125 C1148 0.950 . S
H1126 C1149 0.950 . S
H1127 C1151 0.950 . S
H1128 C1152 0.950 . S
H1129 C1153 0.951 . S
H1130 C1155 0.951 . S
H1131 C1157 0.950 . S
H1132 C1158 0.950 . S
H1133 C1160 0.950 . S
H1134 C1163 0.950 . S
H1135 C1164 0.950 . S
H1136 C1166 0.950 . S
H1137 C1167 0.950 . S
C1138 H1120 0.951 . S
C1138 C1139 1.366 . S
C1138 C1140 1.388 . S
C1139 C1138 1.366 . S
C1139 C1143 1.385 . S
C1140 H1121 0.951 . S
C1140 C1138 1.388 . S
C1140 C1141 1.366 . S
C1141 C1140 1.366 . S
C1141 C1142 1.414 . S
C1141 C1144 1.499 . S
C1142 H1122 0.950 . S
C1142 C1141 1.414 . S
C1142 C1143 1.374 . S
C1143 H1123 0.950 . S
C1143 C1139 1.385 . S
C1143 C1142 1.374 . S
C1144 C1141 1.499 . S
C1144 C1145 1.373 . S
C1144 C1146 1.389 . S
C1145 H1124 0.950 . S
C1145 C1144 1.373 . S
C1145 C1161 1.377 1_455 S
C1146 C1144 1.389 . S
C1146 C1147 1.524 . S
C1146 C1160 1.377 1_455 S
C1147 C1146 1.524 . S
C1147 C1148 1.397 . S
C1147 C1152 1.363 . S
C1148 H1125 0.950 . S
C1148 C1147 1.397 . S
C1148 C1149 1.334 . S
C1149 H1126 0.950 . S
C1149 C1148 1.334 . S
C1149 C1150 1.287 . S
C1150 C1149 1.287 . S
C1150 C1151 1.524 . S
C1150 H1169 0.913 . S
C1151 H1127 0.950 . S
C1151 C1150 1.524 . S
C1151 C1152 1.415 . S
C1152 H1128 0.950 . S
C1152 C1147 1.363 . S
C1152 C1151 1.415 . S
C1153 H1129 0.951 . S
C1153 C1154 1.366 . S
C1153 C1155 1.388 . S
C1154 C1153 1.366 . S
C1154 C1158 1.385 . S
C1155 H1130 0.951 . S
C1155 C1153 1.388 . S
C1155 C1156 1.366 . S
C1156 C1155 1.366 . S
C1156 C1157 1.414 . S
C1156 C1159 1.499 . S
C1157 H1131 0.950 . S
C1157 C1156 1.414 . S
C1157 C1158 1.374 . S
C1158 H1132 0.950 . S
C1158 C1154 1.385 . S
C1158 C1157 1.374 . S
C1159 C1156 1.499 . S
C1159 C1160 1.373 . S
C1159 C1161 1.389 . S
C1160 H1133 0.950 . S
C1160 C1146 1.377 1_655 S
C1160 C1159 1.373 . S
C1161 C1145 1.377 1_655 S
C1161 C1159 1.389 . S
C1161 C1162 1.524 . S
C1162 C1161 1.524 . S
C1162 C1163 1.397 . S
C1162 C1167 1.363 . S
C1163 H1134 0.950 . S
C1163 C1162 1.397 . S
C1163 C1164 1.334 . S
C1164 H1135 0.950 . S
C1164 C1163 1.334 . S
C1164 C1165 1.287 . S
C1165 C1164 1.287 . S
C1165 C1166 1.524 . S
C1165 H1168 0.999 . S
C1166 H1136 0.950 . S
C1166 C1165 1.524 . S
C1166 C1167 1.415 . S
C1167 H1137 0.950 . S
C1167 C1162 1.363 . S
C1167 C1166 1.415 . S
H1168 C1165 0.999 . S
H1169 C1150 0.913 . S
H1170 C1188 0.951 . S
H1171 C1190 0.951 . S
H1172 C1192 0.950 . S
H1173 C1193 0.950 . S
H1174 C1195 0.950 . S
H1175 C1198 0.950 . S
H1176 C1199 0.950 . S
H1177 C1201 0.950 . S
H1178 C1202 0.950 . S
H1179 C1203 0.951 . S
H1180 C1205 0.951 . S
H1181 C1207 0.950 . S
H1182 C1208 0.950 . S
H1183 C1210 0.950 . S
H1184 C1213 0.950 . S
H1185 C1214 0.950 . S
H1186 C1216 0.950 . S
H1187 C1217 0.950 . S
C1188 H1170 0.951 . S
C1188 C1189 1.366 . S
C1188 C1190 1.388 . S
C1189 C1188 1.366 . S
C1189 C1193 1.385 . S
C1190 H1171 0.951 . S
C1190 C1188 1.388 . S
C1190 C1191 1.366 . S
C1191 C1190 1.366 . S
C1191 C1192 1.414 . S
C1191 C1194 1.499 . S
C1192 H1172 0.950 . S
C1192 C1191 1.414 . S
C1192 C1193 1.374 . S
C1193 H1173 0.950 . S
C1193 C1189 1.385 . S
C1193 C1192 1.374 . S
C1194 C1191 1.499 . S
C1194 C1195 1.373 . S
C1194 C1196 1.389 . S
C1195 H1174 0.950 . S
C1195 C1194 1.373 . S
C1195 C1211 1.377 . S
C1196 C1194 1.389 . S
C1196 C1197 1.524 . S
C1196 C1210 1.377 . S
C1197 C1196 1.524 . S
C1197 C1198 1.397 . S
C1197 C1202 1.363 . S
C1198 H1175 0.950 . S
C1198 C1197 1.397 . S
C1198 C1199 1.334 . S
C1199 H1176 0.950 . S
C1199 C1198 1.334 . S
C1199 C1200 1.287 . S
C1200 C1199 1.287 . S
C1200 C1201 1.524 . S
C1200 H1219 0.913 . S
C1201 H1177 0.950 . S
C1201 C1200 1.524 . S
C1201 C1202 1.415 . S
C1202 H1178 0.950 . S
C1202 C1197 1.363 . S
C1202 C1201 1.415 . S
C1203 H1179 0.951 . S
C1203 C1204 1.366 . S
C1203 C1205 1.388 . S
C1204 C1203 1.366 . S
C1204 C1208 1.385 . S
C1205 H1180 0.951 . S
C1205 C1203 1.388 . S
C1205 C1206 1.366 . S
C1206 C1205 1.366 . S
C1206 C1207 1.414 . S
C1206 C1209 1.499 . S
C1207 H1181 0.950 . S
C1207 C1206 1.414 . S
C1207 C1208 1.374 . S
C1208 H1182 0.950 . S
C1208 C1204 1.385 . S
C1208 C1207 1.374 . S
C1209 C1206 1.499 . S
C1209 C1210 1.373 . S
C1209 C1211 1.389 . S
C1210 H1183 0.950 . S
C1210 C1196 1.377 . S
C1210 C1209 1.373 . S
C1211 C1195 1.377 . S
C1211 C1209 1.389 . S
C1211 C1212 1.524 . S
C1212 C1211 1.524 . S
C1212 C1213 1.397 . S
C1212 C1217 1.363 . S
C1213 H1184 0.950 . S
C1213 C1212 1.397 . S
C1213 C1214 1.334 . S
C1214 H1185 0.950 . S
C1214 C1213 1.334 . S
C1214 C1215 1.287 . S
C1215 C1214 1.287 . S
C1215 C1216 1.524 . S
C1215 H1218 0.999 . S
C1216 H1186 0.950 . S
C1216 C1215 1.524 . S
C1216 C1217 1.415 . S
C1217 H1187 0.950 . S
C1217 C1212 1.363 . S
C1217 C1216 1.415 . S
H1218 C1215 0.999 . S
H1219 C1200 0.913 . S
H1220 C1238 0.951 . S
H1221 C1240 0.951 . S
H1222 C1242 0.950 . S
H1223 C1243 0.950 . S
H1224 C1245 0.950 . S
H1225 C1248 0.950 . S
H1226 C1249 0.950 . S
H1227 C1251 0.950 . S
H1228 C1252 0.950 . S
H1229 C1253 0.951 . S
H1230 C1255 0.951 . S
H1231 C1257 0.950 . S
H1232 C1258 0.950 . S
H1233 C1260 0.950 . S
H1234 C1263 0.950 . S
H1235 C1264 0.950 . S
H1236 C1266 0.950 . S
H1237 C1267 0.950 . S
C1238 H1220 0.951 . S
C1238 C1239 1.366 . S
C1238 C1240 1.388 . S
C1239 C1238 1.366 . S
C1239 C1243 1.385 . S
C1240 H1221 0.951 . S
C1240 C1238 1.388 . S
C1240 C1241 1.366 . S
C1241 C1240 1.366 . S
C1241 C1242 1.414 . S
C1241 C1244 1.499 . S
C1242 H1222 0.950 . S
C1242 C1241 1.414 . S
C1242 C1243 1.374 . S
C1243 H1223 0.950 . S
C1243 C1239 1.385 . S
C1243 C1242 1.374 . S
C1244 C1241 1.499 . S
C1244 C1245 1.373 . S
C1244 C1246 1.389 . S
C1245 H1224 0.950 . S
C1245 C1244 1.373 . S
C1245 C1261 1.377 . S
C1246 C1244 1.389 . S
C1246 C1247 1.524 . S
C1246 C1260 1.377 . S
C1247 C1246 1.524 . S
C1247 C1248 1.397 . S
C1247 C1252 1.363 . S
C1248 H1225 0.950 . S
C1248 C1247 1.397 . S
C1248 C1249 1.334 . S
C1249 H1226 0.950 . S
C1249 C1248 1.334 . S
C1249 C1250 1.287 . S
C1250 C1249 1.287 . S
C1250 C1251 1.524 . S
C1250 H1269 0.913 . S
C1251 H1227 0.950 . S
C1251 C1250 1.524 . S
C1251 C1252 1.415 . S
C1252 H1228 0.950 . S
C1252 C1247 1.363 . S
C1252 C1251 1.415 . S
C1253 H1229 0.951 . S
C1253 C1254 1.366 . S
C1253 C1255 1.388 . S
C1254 C1253 1.366 . S
C1254 C1258 1.385 . S
C1255 H1230 0.951 . S
C1255 C1253 1.388 . S
C1255 C1256 1.366 . S
C1256 C1255 1.366 . S
C1256 C1257 1.414 . S
C1256 C1259 1.499 . S
C1257 H1231 0.950 . S
C1257 C1256 1.414 . S
C1257 C1258 1.374 . S
C1258 H1232 0.950 . S
C1258 C1254 1.385 . S
C1258 C1257 1.374 . S
C1259 C1256 1.499 . S
C1259 C1260 1.373 . S
C1259 C1261 1.389 . S
C1260 H1233 0.950 . S
C1260 C1246 1.377 . S
C1260 C1259 1.373 . S
C1261 C1245 1.377 . S
C1261 C1259 1.389 . S
C1261 C1262 1.524 . S
C1262 C1261 1.524 . S
C1262 C1263 1.397 . S
C1262 C1267 1.363 . S
C1263 H1234 0.950 . S
C1263 C1262 1.397 . S
C1263 C1264 1.334 . S
C1264 H1235 0.950 . S
C1264 C1263 1.334 . S
C1264 C1265 1.287 . S
C1265 C1264 1.287 . S
C1265 C1266 1.524 . S
C1265 H1268 0.999 . S
C1266 H1236 0.950 . S
C1266 C1265 1.524 . S
C1266 C1267 1.415 . S
C1267 H1237 0.950 . S
C1267 C1262 1.363 . S
C1267 C1266 1.415 . S
H1268 C1265 0.999 . S
H1269 C1250 0.913 . S
H1270 C1288 0.951 . S
H1271 C1290 0.951 . S
H1272 C1292 0.950 . S
H1273 C1293 0.950 . S
H1274 C1295 0.950 . S
H1275 C1298 0.950 . S
H1276 C1299 0.950 . S
H1277 C1301 0.950 . S
H1278 C1302 0.950 . S
H1279 C1303 0.951 . S
H1280 C1305 0.951 . S
H1281 C1307 0.950 . S
H1282 C1308 0.950 . S
H1283 C1310 0.950 . S
H1284 C1313 0.950 . S
H1285 C1314 0.950 . S
H1286 C1316 0.950 . S
H1287 C1317 0.950 . S
C1288 H1270 0.951 . S
C1288 C1289 1.366 . S
C1288 C1290 1.388 . S
C1289 C1288 1.366 . S
C1289 C1293 1.385 . S
C1290 H1271 0.951 . S
C1290 C1288 1.388 . S
C1290 C1291 1.366 . S
C1291 C1290 1.366 . S
C1291 C1292 1.414 . S
C1291 C1294 1.499 . S
C1292 H1272 0.950 . S
C1292 C1291 1.414 . S
C1292 C1293 1.374 . S
C1293 H1273 0.950 . S
C1293 C1289 1.385 . S
C1293 C1292 1.374 . S
C1294 C1291 1.499 . S
C1294 C1295 1.373 . S
C1294 C1296 1.389 . S
C1295 H1274 0.950 . S
C1295 C1294 1.373 . S
C1295 C1311 1.377 . S
C1296 C1294 1.389 . S
C1296 C1297 1.524 . S
C1296 C1310 1.377 . S
C1297 C1296 1.524 . S
C1297 C1298 1.397 . S
C1297 C1302 1.363 . S
C1298 H1275 0.950 . S
C1298 C1297 1.397 . S
C1298 C1299 1.334 . S
C1299 H1276 0.950 . S
C1299 C1298 1.334 . S
C1299 C1300 1.287 . S
C1300 C1299 1.287 . S
C1300 C1301 1.524 . S
C1300 H1319 0.913 . S
C1301 H1277 0.950 . S
C1301 C1300 1.524 . S
C1301 C1302 1.415 . S
C1302 H1278 0.950 . S
C1302 C1297 1.363 . S
C1302 C1301 1.415 . S
C1303 H1279 0.951 . S
C1303 C1304 1.366 . S
C1303 C1305 1.388 . S
C1304 C1303 1.366 . S
C1304 C1308 1.385 . S
C1305 H1280 0.951 . S
C1305 C1303 1.388 . S
C1305 C1306 1.366 . S
C1306 C1305 1.366 . S
C1306 C1307 1.414 . S
C1306 C1309 1.499 . S
C1307 H1281 0.950 . S
C1307 C1306 1.414 . S
C1307 C1308 1.374 . S
C1308 H1282 0.950 . S
C1308 C1304 1.385 . S
C1308 C1307 1.374 . S
C1309 C1306 1.499 . S
C1309 C1310 1.373 . S
C1309 C1311 1.389 . S
C1310 H1283 0.950 . S
C1310 C1296 1.377 . S
C1310 C1309 1.373 . S
C1311 C1295 1.377 . S
C1311 C1309 1.389 . S
C1311 C1312 1.524 . S
C1312 C1311 1.524 . S
C1312 C1313 1.397 . S
C1312 C1317 1.363 . S
C1313 H1284 0.950 . S
C1313 C1312 1.397 . S
C1313 C1314 1.334 . S
C1314 H1285 0.950 . S
C1314 C1313 1.334 . S
C1314 C1315 1.287 . S
C1315 C1314 1.287 . S
C1315 C1316 1.524 . S
C1315 H1318 0.999 . S
C1316 H1286 0.950 . S
C1316 C1315 1.524 . S
C1316 C1317 1.415 . S
C1317 H1287 0.950 . S
C1317 C1312 1.363 . S
C1317 C1316 1.415 . S
H1318 C1315 0.999 . S
H1319 C1300 0.913 . S
H1320 C1338 0.951 . S
H1321 C1340 0.951 . S
H1322 C1342 0.950 . S
H1323 C1343 0.950 . S
H1324 C1345 0.950 . S
H1325 C1348 0.950 . S
H1326 C1349 0.950 . S
H1327 C1351 0.950 . S
H1328 C1352 0.950 . S
H1329 C1353 0.951 . S
H1330 C1355 0.951 . S
H1331 C1357 0.950 . S
H1332 C1358 0.950 . S
H1333 C1360 0.950 . S
H1334 C1363 0.950 . S
H1335 C1364 0.950 . S
H1336 C1366 0.950 . S
H1337 C1367 0.950 . S
C1338 H1320 0.951 . S
C1338 C1339 1.366 . S
C1338 C1340 1.388 . S
C1339 C1338 1.366 . S
C1339 C1343 1.385 . S
C1340 H1321 0.951 . S
C1340 C1338 1.388 . S
C1340 C1341 1.366 . S
C1341 C1340 1.366 . S
C1341 C1342 1.414 . S
C1341 C1344 1.499 . S
C1342 H1322 0.950 . S
C1342 C1341 1.414 . S
C1342 C1343 1.374 . S
C1343 H1323 0.950 . S
C1343 C1339 1.385 . S
C1343 C1342 1.374 . S
C1344 C1341 1.499 . S
C1344 C1345 1.373 . S
C1344 C1346 1.389 . S
C1345 H1324 0.950 . S
C1345 C1344 1.373 . S
C1345 C1361 1.377 . S
C1346 C1344 1.389 . S
C1346 C1347 1.524 . S
C1346 C1360 1.377 . S
C1347 C1346 1.524 . S
C1347 C1348 1.397 . S
C1347 C1352 1.363 . S
C1348 H1325 0.950 . S
C1348 C1347 1.397 . S
C1348 C1349 1.334 . S
C1349 H1326 0.950 . S
C1349 C1348 1.334 . S
C1349 C1350 1.287 . S
C1350 C1349 1.287 . S
C1350 C1351 1.524 . S
C1350 H1369 0.913 . S
C1351 H1327 0.950 . S
C1351 C1350 1.524 . S
C1351 C1352 1.415 . S
C1352 H1328 0.950 . S
C1352 C1347 1.363 . S
C1352 C1351 1.415 . S
C1353 H1329 0.951 . S
C1353 C1354 1.366 . S
C1353 C1355 1.388 . S
C1354 C1353 1.366 . S
C1354 C1358 1.385 . S
C1355 H1330 0.951 . S
C1355 C1353 1.388 . S
C1355 C1356 1.366 . S
C1356 C1355 1.366 . S
C1356 C1357 1.414 . S
C1356 C1359 1.499 . S
C1357 H1331 0.950 . S
C1357 C1356 1.414 . S
C1357 C1358 1.374 . S
C1358 H1332 0.950 . S
C1358 C1354 1.385 . S
C1358 C1357 1.374 . S
C1359 C1356 1.499 . S
C1359 C1360 1.373 . S
C1359 C1361 1.389 . S
C1360 H1333 0.950 . S
C1360 C1346 1.377 . S
C1360 C1359 1.373 . S
C1361 C1345 1.377 . S
C1361 C1359 1.389 . S
C1361 C1362 1.524 . S
C1362 C1361 1.524 . S
C1362 C1363 1.397 . S
C1362 C1367 1.363 . S
C1363 H1334 0.950 . S
C1363 C1362 1.397 . S
C1363 C1364 1.334 . S
C1364 H1335 0.950 . S
C1364 C1363 1.334 . S
C1364 C1365 1.287 . S
C1365 C1364 1.287 . S
C1365 C1366 1.524 . S
C1365 H1368 0.999 . S
C1366 H1336 0.950 . S
C1366 C1365 1.524 . S
C1366 C1367 1.415 . S
C1367 H1337 0.950 . S
C1367 C1362 1.363 . S
C1367 C1366 1.415 . S
H1368 C1365 0.999 . S
H1369 C1350 0.913 . S
H1370 C1388 0.951 . S
H1371 C1390 0.951 . S
H1372 C1392 0.950 . S
H1373 C1393 0.950 . S
H1374 C1395 0.950 . S
H1375 C1398 0.950 . S
H1376 C1399 0.950 . S
H1377 C1401 0.950 . S
H1378 C1402 0.950 . S
H1379 C1403 0.951 . S
H1380 C1405 0.951 . S
H1381 C1407 0.950 . S
H1382 C1408 0.950 . S
H1383 C1410 0.950 . S
H1384 C1413 0.950 . S
H1385 C1414 0.950 . S
H1386 C1416 0.950 . S
H1387 C1417 0.950 . S
C1388 H1370 0.951 . S
C1388 C1389 1.366 . S
C1388 C1390 1.388 . S
C1389 C1388 1.366 . S
C1389 C1393 1.385 . S
C1390 H1371 0.951 . S
C1390 C1388 1.388 . S
C1390 C1391 1.366 . S
C1391 C1390 1.366 . S
C1391 C1392 1.414 . S
C1391 C1394 1.499 . S
C1392 H1372 0.950 . S
C1392 C1391 1.414 . S
C1392 C1393 1.374 . S
C1393 H1373 0.950 . S
C1393 C1389 1.385 . S
C1393 C1392 1.374 . S
C1394 C1391 1.499 . S
C1394 C1395 1.373 . S
C1394 C1396 1.389 . S
C1395 H1374 0.950 . S
C1395 C1394 1.373 . S
C1395 C1411 1.377 . S
C1396 C1394 1.389 . S
C1396 C1397 1.524 . S
C1396 C1410 1.377 . S
C1397 C1396 1.524 . S
C1397 C1398 1.397 . S
C1397 C1402 1.363 . S
C1398 H1375 0.950 . S
C1398 C1397 1.397 . S
C1398 C1399 1.334 . S
C1399 H1376 0.950 . S
C1399 C1398 1.334 . S
C1399 C1400 1.287 . S
C1400 C1399 1.287 . S
C1400 C1401 1.524 . S
C1400 H1419 0.913 . S
C1401 H1377 0.950 . S
C1401 C1400 1.524 . S
C1401 C1402 1.415 . S
C1402 H1378 0.950 . S
C1402 C1397 1.363 . S
C1402 C1401 1.415 . S
C1403 H1379 0.951 . S
C1403 C1404 1.366 . S
C1403 C1405 1.388 . S
C1404 C1403 1.366 . S
C1404 C1408 1.385 . S
C1405 H1380 0.951 . S
C1405 C1403 1.388 . S
C1405 C1406 1.366 . S
C1406 C1405 1.366 . S
C1406 C1407 1.414 . S
C1406 C1409 1.499 . S
C1407 H1381 0.950 . S
C1407 C1406 1.414 . S
C1407 C1408 1.374 . S
C1408 H1382 0.950 . S
C1408 C1404 1.385 . S
C1408 C1407 1.374 . S
C1409 C1406 1.499 . S
C1409 C1410 1.373 . S
C1409 C1411 1.389 . S
C1410 H1383 0.950 . S
C1410 C1396 1.377 . S
C1410 C1409 1.373 . S
C1411 C1395 1.377 . S
C1411 C1409 1.389 . S
C1411 C1412 1.524 . S
C1412 C1411 1.524 . S
C1412 C1413 1.397 . S
C1412 C1417 1.363 . S
C1413 H1384 0.950 . S
C1413 C1412 1.397 . S
C1413 C1414 1.334 . S
C1414 H1385 0.950 . S
C1414 C1413 1.334 . S
C1414 C1415 1.287 . S
C1415 C1414 1.287 . S
C1415 C1416 1.524 . S
C1415 H1418 0.999 . S
C1416 H1386 0.950 . S
C1416 C1415 1.524 . S
C1416 C1417 1.415 . S
C1417 H1387 0.950 . S
C1417 C1412 1.363 . S
C1417 C1416 1.415 . S
H1418 C1415 0.999 . S
H1419 C1400 0.913 . S
H1420 C1438 0.951 . S
H1421 C1440 0.951 . S
H1422 C1442 0.950 . S
H1423 C1443 0.950 . S
H1424 C1445 0.950 . S
H1425 C1448 0.950 . S
H1426 C1449 0.950 . S
H1427 C1451 0.950 . S
H1428 C1452 0.950 . S
H1429 C1453 0.951 . S
H1430 C1455 0.951 . S
H1431 C1457 0.950 . S
H1432 C1458 0.950 . S
H1433 C1460 0.950 . S
H1434 C1463 0.950 . S
H1435 C1464 0.950 . S
H1436 C1466 0.950 . S
H1437 C1467 0.950 . S
C1438 H1420 0.951 . S
C1438 C1439 1.366 . S
C1438 C1440 1.388 . S
C1439 C1438 1.366 . S
C1439 C1443 1.385 . S
C1440 H1421 0.951 . S
C1440 C1438 1.388 . S
C1440 C1441 1.366 . S
C1441 C1440 1.366 . S
C1441 C1442 1.414 . S
C1441 C1444 1.499 . S
C1442 H1422 0.950 . S
C1442 C1441 1.414 . S
C1442 C1443 1.374 . S
C1443 H1423 0.950 . S
C1443 C1439 1.385 . S
C1443 C1442 1.374 . S
C1444 C1441 1.499 . S
C1444 C1445 1.373 . S
C1444 C1446 1.389 . S
C1445 H1424 0.950 . S
C1445 C1444 1.373 . S
C1445 C1461 1.377 . S
C1446 C1444 1.389 . S
C1446 C1447 1.524 . S
C1446 C1460 1.377 . S
C1447 C1446 1.524 . S
C1447 C1448 1.397 . S
C1447 C1452 1.363 . S
C1448 H1425 0.950 . S
C1448 C1447 1.397 . S
C1448 C1449 1.334 . S
C1449 H1426 0.950 . S
C1449 C1448 1.334 . S
C1449 C1450 1.287 . S
C1450 C1449 1.287 . S
C1450 C1451 1.524 . S
C1450 H1469 0.913 . S
C1451 H1427 0.950 . S
C1451 C1450 1.524 . S
C1451 C1452 1.415 . S
C1452 H1428 0.950 . S
C1452 C1447 1.363 . S
C1452 C1451 1.415 . S
C1453 H1429 0.951 . S
C1453 C1454 1.366 . S
C1453 C1455 1.388 . S
C1454 C1453 1.366 . S
C1454 C1458 1.385 . S
C1455 H1430 0.951 . S
C1455 C1453 1.388 . S
C1455 C1456 1.366 . S
C1456 C1455 1.366 . S
C1456 C1457 1.414 . S
C1456 C1459 1.499 . S
C1457 H1431 0.950 . S
C1457 C1456 1.414 . S
C1457 C1458 1.374 . S
C1458 H1432 0.950 . S
C1458 C1454 1.385 . S
C1458 C1457 1.374 . S
C1459 C1456 1.499 . S
C1459 C1460 1.373 . S
C1459 C1461 1.389 . S
C1460 H1433 0.950 . S
C1460 C1446 1.377 . S
C1460 C1459 1.373 . S
C1461 C1445 1.377 . S
C1461 C1459 1.389 . S
C1461 C1462 1.524 . S
C1462 C1461 1.524 . S
C1462 C1463 1.397 . S
C1462 C1467 1.363 . S
C1463 H1434 0.950 . S
C1463 C1462 1.397 . S
C1463 C1464 1.334 . S
C1464 H1435 0.950 . S
C1464 C1463 1.334 . S
C1464 C1465 1.287 . S
C1465 C1464 1.287 . S
C1465 C1466 1.524 . S
C1465 H1468 0.999 . S
C1466 H1436 0.950 . S
C1466 C1465 1.524 . S
C1466 C1467 1.415 . S
C1467 H1437 0.950 . S
C1467 C1462 1.363 . S
C1467 C1466 1.415 . S
H1468 C1465 0.999 . S
H1469 C1450 0.913 . S
H1470 C1488 0.951 . S
H1471 C1490 0.951 . S
H1472 C1492 0.950 . S
H1473 C1493 0.950 . S
H1474 C1495 0.950 . S
H1475 C1498 0.950 . S
H1476 C1499 0.950 . S
H1477 C1501 0.950 . S
H1478 C1502 0.950 . S
H1479 C1503 0.951 . S
H1480 C1505 0.951 . S
H1481 C1507 0.950 . S
H1482 C1508 0.950 . S
H1483 C1510 0.950 . S
H1484 C1513 0.950 . S
H1485 C1514 0.950 . S
H1486 C1516 0.950 . S
H1487 C1517 0.950 . S
C1488 H1470 0.951 . S
C1488 C1489 1.366 . S
C1488 C1490 1.388 . S
C1489 C1488 1.366 . S
C1489 C1493 1.385 . S
C1490 H1471 0.951 . S
C1490 C1488 1.388 . S
C1490 C1491 1.366 . S
C1491 C1490 1.366 . S
C1491 C1492 1.414 . S
C1491 C1494 1.499 . S
C1492 H1472 0.950 . S
C1492 C1491 1.414 . S
C1492 C1493 1.374 . S
C1493 H1473 0.950 . S
C1493 C1489 1.385 . S
C1493 C1492 1.374 . S
C1494 C1491 1.499 . S
C1494 C1495 1.373 . S
C1494 C1496 1.389 . S
C1495 H1474 0.950 . S
C1495 C1494 1.373 . S
C1495 C1511 1.377 . S
C1496 C1494 1.389 . S
C1496 C1497 1.524 . S
C1496 C1510 1.377 . S
C1497 C1496 1.524 . S
C1497 C1498 1.397 . S
C1497 C1502 1.363 . S
C1498 H1475 0.950 . S
C1498 C1497 1.397 . S
C1498 C1499 1.334 . S
C1499 H1476 0.950 . S
C1499 C1498 1.334 . S
C1499 C1500 1.287 . S
C1500 C1499 1.287 . S
C1500 C1501 1.524 . S
C1500 H1519 0.913 . S
C1501 H1477 0.950 . S
C1501 C1500 1.524 . S
C1501 C1502 1.415 . S
C1502 H1478 0.950 . S
C1502 C1497 1.363 . S
C1502 C1501 1.415 . S
C1503 H1479 0.951 . S
C1503 C1504 1.366 . S
C1503 C1505 1.388 . S
C1504 C1503 1.366 . S
C1504 C1508 1.385 . S
C1505 H1480 0.951 . S
C1505 C1503 1.388 . S
C1505 C1506 1.366 . S
C1506 C1505 1.366 . S
C1506 C1507 1.414 . S
C1506 C1509 1.499 . S
C1507 H1481 0.950 . S
C1507 C1506 1.414 . S
C1507 C1508 1.374 . S
C1508 H1482 0.950 . S
C1508 C1504 1.385 . S
C1508 C1507 1.374 . S
C1509 C1506 1.499 . S
C1509 C1510 1.373 . S
C1509 C1511 1.389 . S
C1510 H1483 0.950 . S
C1510 C1496 1.377 . S
C1510 C1509 1.373 . S
C1511 C1495 1.377 . S
C1511 C1509 1.389 . S
C1511 C1512 1.524 . S
C1512 C1511 1.524 . S
C1512 C1513 1.397 . S
C1512 C1517 1.363 . S
C1513 H1484 0.950 . S
C1513 C1512 1.397 . S
C1513 C1514 1.334 . S
C1514 H1485 0.950 . S
C1514 C1513 1.334 . S
C1514 C1515 1.287 . S
C1515 C1514 1.287 . S
C1515 C1516 1.524 . S
C1515 H1518 0.999 . S
C1516 H1486 0.950 . S
C1516 C1515 1.524 . S
C1516 C1517 1.415 . S
C1517 H1487 0.950 . S
C1517 C1512 1.363 . S
C1517 C1516 1.415 . S
H1518 C1515 0.999 . S
H1519 C1500 0.913 . S
H1520 C1538 0.951 . S
H1521 C1540 0.951 . S
H1522 C1542 0.950 . S
H1523 C1543 0.950 . S
H1524 C1545 0.950 . S
H1525 C1548 0.950 . S
H1526 C1549 0.950 . S
H1527 C1551 0.950 . S
H1528 C1552 0.950 1_545 S
H1529 C1553 0.951 . S
H1530 C1555 0.951 . S
H1531 C1557 0.950 . S
H1532 C1558 0.950 . S
H1533 C1560 0.950 . S
H1534 C1563 0.950 . S
H1535 C1564 0.950 . S
H1536 C1566 0.950 . S
H1537 C1567 0.950 . S
C1538 H1520 0.951 . S
C1538 C1539 1.366 . S
C1538 C1540 1.388 . S
C1539 C1538 1.366 . S
C1539 C1543 1.385 . S
C1540 H1521 0.951 . S
C1540 C1538 1.388 . S
C1540 C1541 1.366 . S
C1541 C1540 1.366 . S
C1541 C1542 1.414 . S
C1541 C1544 1.499 . S
C1542 H1522 0.950 . S
C1542 C1541 1.414 . S
C1542 C1543 1.374 . S
C1543 H1523 0.950 . S
C1543 C1539 1.385 . S
C1543 C1542 1.374 . S
C1544 C1541 1.499 . S
C1544 C1545 1.373 . S
C1544 C1546 1.379 1_565 S
C1545 H1524 0.950 . S
C1545 C1544 1.373 . S
C1545 C1561 1.377 1_565 S
C1546 C1544 1.379 1_545 S
C1546 C1547 1.509 1_545 S
C1546 C1560 1.403 . S
C1547 C1546 1.509 1_565 S
C1547 C1548 1.397 . S
C1547 C1552 1.363 . S
C1548 H1525 0.950 . S
C1548 C1547 1.397 . S
C1548 C1549 1.334 . S
C1549 H1526 0.950 . S
C1549 C1548 1.334 . S
C1549 C1550 1.287 . S
C1550 C1549 1.287 . S
C1550 C1551 1.524 . S
C1550 H1569 0.913 . S
C1551 H1527 0.950 . S
C1551 C1550 1.524 . S
C1551 C1552 1.415 . S
C1552 H1528 0.950 1_565 S
C1552 C1547 1.363 . S
C1552 C1551 1.415 . S
C1553 H1529 0.951 . S
C1553 C1554 1.366 . S
C1553 C1555 1.388 . S
C1554 C1553 1.366 . S
C1554 C1558 1.385 . S
C1555 H1530 0.951 . S
C1555 C1553 1.388 . S
C1555 C1556 1.366 . S
C1556 C1555 1.366 . S
C1556 C1557 1.414 . S
C1556 C1559 1.499 . S
C1557 H1531 0.950 . S
C1557 C1556 1.414 . S
C1557 C1558 1.374 . S
C1558 H1532 0.950 . S
C1558 C1554 1.385 . S
C1558 C1557 1.374 . S
C1559 C1556 1.499 . S
C1559 C1560 1.373 . S
C1559 C1561 1.389 . S
C1560 H1533 0.950 . S
C1560 C1546 1.403 . S
C1560 C1559 1.373 . S
C1561 C1545 1.377 1_545 S
C1561 C1559 1.389 . S
C1561 C1562 1.524 . S
C1562 C1561 1.524 . S
C1562 C1563 1.397 . S
C1562 C1567 1.363 . S
C1563 H1534 0.950 . S
C1563 C1562 1.397 . S
C1563 C1564 1.334 . S
C1564 H1535 0.950 . S
C1564 C1563 1.334 . S
C1564 C1565 1.287 . S
C1565 C1564 1.287 . S
C1565 C1566 1.524 . S
C1565 H1568 0.999 . S
C1566 H1536 0.950 . S
C1566 C1565 1.524 . S
C1566 C1567 1.415 . S
C1567 H1537 0.950 . S
C1567 C1562 1.363 . S
C1567 C1566 1.415 . S
H1568 C1565 0.999 . S
H1569 C1550 0.913 . S
H1570 C1588 0.951 . S
H1571 C1590 0.951 . S
H1572 C1592 0.950 . S
H1573 C1593 0.950 . S
H1574 C1595 0.950 . S
H1575 C1598 0.950 . S
H1576 C1599 0.950 . S
H1577 C1601 0.950 . S
H1578 C1602 0.950 . S
H1579 C1603 0.951 . S
H1580 C1605 0.951 . S
H1581 C1607 0.950 . S
H1582 C1608 0.950 . S
H1583 C1610 0.950 . S
H1584 C1613 0.950 . S
H1585 C1614 0.950 . S
H1586 C1616 0.950 . S
H1587 C1617 0.950 . S
C1588 H1570 0.951 . S
C1588 C1589 1.366 . S
C1588 C1590 1.388 . S
C1589 C1588 1.366 . S
C1589 C1593 1.385 . S
C1590 H1571 0.951 . S
C1590 C1588 1.388 . S
C1590 C1591 1.366 . S
C1591 C1590 1.366 . S
C1591 C1592 1.414 . S
C1591 C1594 1.499 . S
C1592 H1572 0.950 . S
C1592 C1591 1.414 . S
C1592 C1593 1.374 . S
C1593 H1573 0.950 . S
C1593 C1589 1.385 . S
C1593 C1592 1.374 . S
C1594 C1591 1.499 . S
C1594 C1595 1.373 . S
C1594 C1596 1.389 . S
C1595 H1574 0.950 . S
C1595 C1594 1.373 . S
C1595 C1611 1.377 . S
C1596 C1594 1.389 . S
C1596 C1597 1.524 . S
C1596 C1610 1.377 . S
C1597 C1596 1.524 . S
C1597 C1598 1.397 . S
C1597 C1602 1.363 . S
C1598 H1575 0.950 . S
C1598 C1597 1.397 . S
C1598 C1599 1.334 . S
C1599 H1576 0.950 . S
C1599 C1598 1.334 . S
C1599 C1600 1.287 . S
C1600 C1599 1.287 . S
C1600 C1601 1.524 . S
C1600 H1619 0.913 . S
C1601 H1577 0.950 . S
C1601 C1600 1.524 . S
C1601 C1602 1.415 . S
C1602 H1578 0.950 . S
C1602 C1597 1.363 . S
C1602 C1601 1.415 . S
C1603 H1579 0.951 . S
C1603 C1604 1.366 . S
C1603 C1605 1.388 . S
C1604 C1603 1.366 . S
C1604 C1608 1.385 . S
C1605 H1580 0.951 . S
C1605 C1603 1.388 . S
C1605 C1606 1.366 . S
C1606 C1605 1.366 . S
C1606 C1607 1.414 . S
C1606 C1609 1.499 . S
C1607 H1581 0.950 . S
C1607 C1606 1.414 . S
C1607 C1608 1.374 . S
C1608 H1582 0.950 . S
C1608 C1604 1.385 . S
C1608 C1607 1.374 . S
C1609 C1606 1.499 . S
C1609 C1610 1.373 1_655 S
C1609 C1611 1.389 1_655 S
C1610 H1583 0.950 . S
C1610 C1596 1.377 . S
C1610 C1609 1.373 1_455 S
C1611 C1595 1.377 . S
C1611 C1609 1.389 1_455 S
C1611 C1612 1.524 1_455 S
C1612 C1611 1.524 1_655 S
C1612 C1613 1.397 . S
C1612 C1617 1.363 . S
C1613 H1584 0.950 . S
C1613 C1612 1.397 . S
C1613 C1614 1.334 . S
C1614 H1585 0.950 . S
C1614 C1613 1.334 . S
C1614 C1615 1.287 . S
C1615 C1614 1.287 . S
C1615 C1616 1.524 . S
C1615 H1618 0.999 . S
C1616 H1586 0.950 . S
C1616 C1615 1.524 . S
C1616 C1617 1.415 . S
C1617 H1587 0.950 . S
C1617 C1612 1.363 . S
C1617 C1616 1.415 . S
H1618 C1615 0.999 . S
H1619 C1600 0.913 . S
H1620 C1638 0.951 . S
H1621 C1640 0.951 . S
H1622 C1642 0.950 . S
H1623 C1643 0.950 . S
H1624 C1645 0.950 . S
H1625 C1648 0.950 . S
H1626 C1649 0.950 . S
H1627 C1651 0.950 . S
H1628 C1652 0.950 . S
H1629 C1653 0.951 . S
H1630 C1655 0.951 . S
H1631 C1657 0.950 . S
H1632 C1658 0.950 . S
H1633 C1660 0.950 1_565 S
H1634 C1663 0.950 . S
H1635 C1664 0.950 . S
H1636 C1666 0.950 . S
H1637 C1667 0.950 . S
C1638 H1620 0.951 . S
C1638 C1639 1.366 . S
C1638 C1640 1.388 . S
C1639 C1638 1.366 . S
C1639 C1643 1.385 . S
C1640 H1621 0.951 . S
C1640 C1638 1.388 . S
C1640 C1641 1.366 . S
C1641 C1640 1.366 . S
C1641 C1642 1.414 . S
C1641 C1644 1.499 . S
C1642 H1622 0.950 . S
C1642 C1641 1.414 . S
C1642 C1643 1.374 . S
C1643 H1623 0.950 . S
C1643 C1639 1.385 . S
C1643 C1642 1.374 . S
C1644 C1641 1.499 . S
C1644 C1645 1.373 . S
C1644 C1646 1.391 . S
C1645 H1624 0.950 . S
C1645 C1644 1.373 . S
C1645 C1661 1.377 1_554 S
C1646 C1644 1.391 . S
C1646 C1647 1.521 1_545 S
C1646 C1660 1.377 1_554 S
C1647 C1646 1.521 1_565 S
C1647 C1648 1.397 . S
C1647 C1652 1.363 . S
C1648 H1625 0.950 . S
C1648 C1647 1.397 . S
C1648 C1649 1.334 . S
C1649 H1626 0.950 . S
C1649 C1648 1.334 . S
C1649 C1650 1.287 . S
C1650 C1649 1.287 . S
C1650 C1651 1.524 . S
C1650 H1669 0.913 . S
C1651 H1627 0.950 . S
C1651 C1650 1.524 . S
C1651 C1652 1.415 . S
C1652 H1628 0.950 . S
C1652 C1647 1.363 . S
C1652 C1651 1.415 . S
C1653 H1629 0.951 . S
C1653 C1654 1.366 . S
C1653 C1655 1.388 . S
C1654 C1653 1.366 . S
C1654 C1658 1.385 . S
C1655 H1630 0.951 . S
C1655 C1653 1.388 . S
C1655 C1656 1.366 . S
C1656 C1655 1.366 . S
C1656 C1657 1.414 . S
C1656 C1659 1.499 . S
C1657 H1631 0.950 . S
C1657 C1656 1.414 . S
C1657 C1658 1.374 . S
C1658 H1632 0.950 . S
C1658 C1654 1.385 . S
C1658 C1657 1.374 . S
C1659 C1656 1.499 . S
C1659 C1660 1.373 . S
C1659 C1661 1.389 . S
C1660 H1633 0.950 1_545 S
C1660 C1646 1.377 1_556 S
C1660 C1659 1.373 . S
C1661 C1645 1.377 1_556 S
C1661 C1659 1.389 . S
C1661 C1662 1.524 . S
C1662 C1661 1.524 . S
C1662 C1663 1.397 . S
C1662 C1667 1.363 . S
C1663 H1634 0.950 . S
C1663 C1662 1.397 . S
C1663 C1664 1.334 . S
C1664 H1635 0.950 . S
C1664 C1663 1.334 . S
C1664 C1665 1.287 . S
C1665 C1664 1.287 . S
C1665 C1666 1.524 . S
C1665 H1668 0.999 . S
C1666 H1636 0.950 . S
C1666 C1665 1.524 . S
C1666 C1667 1.415 . S
C1667 H1637 0.950 . S
C1667 C1662 1.363 . S
C1667 C1666 1.415 . S
H1668 C1665 0.999 . S
H1669 C1650 0.913 . S
H1670 C1688 0.951 1_655 S
H1671 C1690 0.951 1_655 S
H1672 C1692 0.950 . S
H1673 C1693 0.950 . S
H1674 C1695 0.950 . S
H1675 C1698 0.950 . S
H1676 C1699 0.950 . S
H1677 C1701 0.950 . S
H1678 C1702 0.950 . S
H1679 C1703 0.951 . S
H1680 C1705 0.951 . S
H1681 C1707 0.950 1_655 S
H1682 C1708 0.950 1_655 S
H1683 C1710 0.950 . S
H1684 C1713 0.950 . S
H1685 C1714 0.950 . S
H1686 C1716 0.950 . S
H1687 C1717 0.950 . S
C1688 H1670 0.951 1_455 S
C1688 C1689 1.366 . S
C1688 C1690 1.388 . S
C1689 C1688 1.366 . S
C1689 C1693 1.385 . S
C1690 H1671 0.951 1_455 S
C1690 C1688 1.388 . S
C1690 C1691 1.366 . S
C1691 C1690 1.366 . S
C1691 C1692 1.414 . S
C1691 C1694 1.499 . S
C1692 H1672 0.950 . S
C1692 C1691 1.414 . S
C1692 C1693 1.374 . S
C1693 H1673 0.950 . S
C1693 C1689 1.385 . S
C1693 C1692 1.374 . S
C1694 C1691 1.499 . S
C1694 C1695 1.373 . S
C1694 C1696 1.389 1_455 S
C1695 H1674 0.950 . S
C1695 C1694 1.373 . S
C1695 C1711 1.377 1_556 S
C1696 C1694 1.389 1_655 S
C1696 C1697 1.524 . S
C1696 C1710 1.377 1_556 S
C1697 C1696 1.524 . S
C1697 C1698 1.397 . S
C1697 C1702 1.363 . S
C1698 H1675 0.950 . S
C1698 C1697 1.397 . S
C1698 C1699 1.334 . S
C1699 H1676 0.950 . S
C1699 C1698 1.334 . S
C1699 C1700 1.287 . S
C1700 C1699 1.287 . S
C1700 C1701 1.524 . S
C1700 H1719 0.913 . S
C1701 H1677 0.950 . S
C1701 C1700 1.524 . S
C1701 C1702 1.415 . S
C1702 H1678 0.950 . S
C1702 C1697 1.363 . S
C1702 C1701 1.415 . S
C1703 H1679 0.951 . S
C1703 C1704 1.366 . S
C1703 C1705 1.388 . S
C1704 C1703 1.366 . S
C1704 C1708 1.385 . S
C1705 H1680 0.951 . S
C1705 C1703 1.388 . S
C1705 C1706 1.366 . S
C1706 C1705 1.366 . S
C1706 C1707 1.414 . S
C1706 C1709 1.499 . S
C1707 H1681 0.950 1_455 S
C1707 C1706 1.414 . S
C1707 C1708 1.374 . S
C1708 H1682 0.950 1_455 S
C1708 C1704 1.385 . S
C1708 C1707 1.374 . S
C1709 C1706 1.499 . S
C1709 C1710 1.373 1_455 S
C1709 C1711 1.389 . S
C1710 H1683 0.950 . S
C1710 C1696 1.377 1_554 S
C1710 C1709 1.373 1_655 S
C1711 C1695 1.377 1_554 S
C1711 C1709 1.389 . S
C1711 C1712 1.524 . S
C1712 C1711 1.524 . S
C1712 C1713 1.397 . S
C1712 C1717 1.363 . S
C1713 H1684 0.950 . S
C1713 C1712 1.397 . S
C1713 C1714 1.334 . S
C1714 H1685 0.950 . S
C1714 C1713 1.334 . S
C1714 C1715 1.287 . S
C1715 C1714 1.287 . S
C1715 C1716 1.524 . S
C1715 H1718 0.999 . S
C1716 H1686 0.950 . S
C1716 C1715 1.524 . S
C1716 C1717 1.415 . S
C1717 H1687 0.950 . S
C1717 C1712 1.363 . S
C1717 C1716 1.415 . S
H1718 C1715 0.999 . S
H1719 C1700 0.913 . S
H1720 C1738 0.951 . S
H1721 C1740 0.951 . S
H1722 C1742 0.950 . S
H1723 C1743 0.950 . S
H1724 C1745 0.950 . S
H1725 C1748 0.950 . S
H1726 C1749 0.950 . S
H1727 C1751 0.950 . S
H1728 C1752 0.950 . S
H1729 C1753 0.951 . S
H1730 C1755 0.951 . S
H1731 C1757 0.950 . S
H1732 C1758 0.950 . S
H1733 C1760 0.950 . S
H1734 C1763 0.950 . S
H1735 C1764 0.950 . S
H1736 C1766 0.950 . S
H1737 C1767 0.950 . S
C1738 H1720 0.951 . S
C1738 C1739 1.366 . S
C1738 C1740 1.388 . S
C1739 C1738 1.366 . S
C1739 C1743 1.385 . S
C1740 H1721 0.951 . S
C1740 C1738 1.388 . S
C1740 C1741 1.366 . S
C1741 C1740 1.366 . S
C1741 C1742 1.414 . S
C1741 C1744 1.499 . S
C1742 H1722 0.950 . S
C1742 C1741 1.414 . S
C1742 C1743 1.374 . S
C1743 H1723 0.950 . S
C1743 C1739 1.385 . S
C1743 C1742 1.374 . S
C1744 C1741 1.499 . S
C1744 C1745 1.373 . S
C1744 C1746 1.389 . S
C1745 H1724 0.950 . S
C1745 C1744 1.373 . S
C1745 C1761 1.377 1_556 S
C1746 C1744 1.389 . S
C1746 C1747 1.524 . S
C1746 C1760 1.377 1_556 S
C1747 C1746 1.524 . S
C1747 C1748 1.397 . S
C1747 C1752 1.363 . S
C1748 H1725 0.950 . S
C1748 C1747 1.397 . S
C1748 C1749 1.334 . S
C1749 H1726 0.950 . S
C1749 C1748 1.334 . S
C1749 C1750 1.287 . S
C1750 C1749 1.287 . S
C1750 C1751 1.524 . S
C1750 H1769 0.913 . S
C1751 H1727 0.950 . S
C1751 C1750 1.524 . S
C1751 C1752 1.415 . S
C1752 H1728 0.950 . S
C1752 C1747 1.363 . S
C1752 C1751 1.415 . S
C1753 H1729 0.951 . S
C1753 C1754 1.366 . S
C1753 C1755 1.388 . S
C1754 C1753 1.366 . S
C1754 C1758 1.385 . S
C1755 H1730 0.951 . S
C1755 C1753 1.388 . S
C1755 C1756 1.366 . S
C1756 C1755 1.366 . S
C1756 C1757 1.414 . S
C1756 C1759 1.499 . S
C1757 H1731 0.950 . S
C1757 C1756 1.414 . S
C1757 C1758 1.374 . S
C1758 H1732 0.950 . S
C1758 C1754 1.385 . S
C1758 C1757 1.374 . S
C1759 C1756 1.499 . S
C1759 C1760 1.373 . S
C1759 C1761 1.389 . S
C1760 H1733 0.950 . S
C1760 C1746 1.377 1_554 S
C1760 C1759 1.373 . S
C1761 C1745 1.377 1_554 S
C1761 C1759 1.389 . S
C1761 C1762 1.524 . S
C1762 C1761 1.524 . S
C1762 C1763 1.397 . S
C1762 C1767 1.363 . S
C1763 H1734 0.950 . S
C1763 C1762 1.397 . S
C1763 C1764 1.334 . S
C1764 H1735 0.950 . S
C1764 C1763 1.334 . S
C1764 C1765 1.287 . S
C1765 C1764 1.287 . S
C1765 C1766 1.524 . S
C1765 H1768 0.999 . S
C1766 H1736 0.950 . S
C1766 C1765 1.524 . S
C1766 C1767 1.415 . S
C1767 H1737 0.950 . S
C1767 C1762 1.363 . S
C1767 C1766 1.415 . S
H1768 C1765 0.999 . S
H1769 C1750 0.913 . S
H1770 C1788 0.951 . S
H1771 C1790 0.951 . S
H1772 C1792 0.950 . S
H1773 C1793 0.950 . S
H1774 C1795 0.950 . S
H1775 C1798 0.950 . S
H1776 C1799 0.950 . S
H1777 C1801 0.950 . S
H1778 C1802 0.950 . S
H1779 C1803 0.951 . S
H1780 C1805 0.951 . S
H1781 C1807 0.950 . S
H1782 C1808 0.950 . S
H1783 C1810 0.950 . S
H1784 C1813 0.950 . S
H1785 C1814 0.950 . S
H1786 C1816 0.950 . S
H1787 C1817 0.950 . S
C1788 H1770 0.951 . S
C1788 C1789 1.366 . S
C1788 C1790 1.388 . S
C1789 C1788 1.366 . S
C1789 C1793 1.385 . S
C1790 H1771 0.951 . S
C1790 C1788 1.388 . S
C1790 C1791 1.366 . S
C1791 C1790 1.366 . S
C1791 C1792 1.414 . S
C1791 C1794 1.499 . S
C1792 H1772 0.950 . S
C1792 C1791 1.414 . S
C1792 C1793 1.374 . S
C1793 H1773 0.950 . S
C1793 C1789 1.385 . S
C1793 C1792 1.374 . S
C1794 C1791 1.499 . S
C1794 C1795 1.373 . S
C1794 C1796 1.389 . S
C1795 H1774 0.950 . S
C1795 C1794 1.373 . S
C1795 C1811 1.377 . S
C1796 C1794 1.389 . S
C1796 C1797 1.524 . S
C1796 C1810 1.377 . S
C1797 C1796 1.524 . S
C1797 C1798 1.397 . S
C1797 C1802 1.363 . S
C1798 H1775 0.950 . S
C1798 C1797 1.397 . S
C1798 C1799 1.334 . S
C1799 H1776 0.950 . S
C1799 C1798 1.334 . S
C1799 C1800 1.287 . S
C1800 C1799 1.287 . S
C1800 C1801 1.524 . S
C1800 H1819 0.913 . S
C1801 H1777 0.950 . S
C1801 C1800 1.524 . S
C1801 C1802 1.415 . S
C1802 H1778 0.950 . S
C1802 C1797 1.363 . S
C1802 C1801 1.415 . S
C1803 H1779 0.951 . S
C1803 C1804 1.366 . S
C1803 C1805 1.388 . S
C1804 C1803 1.366 . S
C1804 C1808 1.385 . S
C1805 H1780 0.951 . S
C1805 C1803 1.388 . S
C1805 C1806 1.366 . S
C1806 C1805 1.366 . S
C1806 C1807 1.414 . S
C1806 C1809 1.499 . S
C1807 H1781 0.950 . S
C1807 C1806 1.414 . S
C1807 C1808 1.374 . S
C1808 H1782 0.950 . S
C1808 C1804 1.385 . S
C1808 C1807 1.374 . S
C1809 C1806 1.499 . S
C1809 C1810 1.373 . S
C1809 C1811 1.389 . S
C1810 H1783 0.950 . S
C1810 C1796 1.377 . S
C1810 C1809 1.373 . S
C1811 C1795 1.377 . S
C1811 C1809 1.389 . S
C1811 C1812 1.524 . S
C1812 C1811 1.524 . S
C1812 C1813 1.397 . S
C1812 C1817 1.363 . S
C1813 H1784 0.950 . S
C1813 C1812 1.397 . S
C1813 C1814 1.334 . S
C1814 H1785 0.950 . S
C1814 C1813 1.334 . S
C1814 C1815 1.287 . S
C1815 C1814 1.287 . S
C1815 C1816 1.524 . S
C1815 H1818 0.999 . S
C1816 H1786 0.950 . S
C1816 C1815 1.524 . S
C1816 C1817 1.415 . S
C1817 H1787 0.950 . S
C1817 C1812 1.363 . S
C1817 C1816 1.415 . S
H1818 C1815 0.999 . S
H1819 C1800 0.913 . S
H1820 C1838 0.951 . S
H1821 C1840 0.951 . S
H1822 C1842 0.950 . S
H1823 C1843 0.950 . S
H1824 C1845 0.950 . S
H1825 C1848 0.950 . S
H1826 C1849 0.950 . S
H1827 C1851 0.950 . S
H1828 C1852 0.950 . S
H1829 C1853 0.951 . S
H1830 C1855 0.951 . S
H1831 C1857 0.950 . S
H1832 C1858 0.950 . S
H1833 C1860 0.950 . S
H1834 C1863 0.950 . S
H1835 C1864 0.950 . S
H1836 C1866 0.950 . S
H1837 C1867 0.950 . S
C1838 H1820 0.951 . S
C1838 C1839 1.366 . S
C1838 C1840 1.388 . S
C1839 C1838 1.366 . S
C1839 C1843 1.385 . S
C1840 H1821 0.951 . S
C1840 C1838 1.388 . S
C1840 C1841 1.366 . S
C1841 C1840 1.366 . S
C1841 C1842 1.414 . S
C1841 C1844 1.499 . S
C1842 H1822 0.950 . S
C1842 C1841 1.414 . S
C1842 C1843 1.374 . S
C1843 H1823 0.950 . S
C1843 C1839 1.385 . S
C1843 C1842 1.374 . S
C1844 C1841 1.499 . S
C1844 C1845 1.373 . S
C1844 C1846 1.389 . S
C1845 H1824 0.950 . S
C1845 C1844 1.373 . S
C1845 C1861 1.377 . S
C1846 C1844 1.389 . S
C1846 C1847 1.524 . S
C1846 C1860 1.377 . S
C1847 C1846 1.524 . S
C1847 C1848 1.397 . S
C1847 C1852 1.363 . S
C1848 H1825 0.950 . S
C1848 C1847 1.397 . S
C1848 C1849 1.334 . S
C1849 H1826 0.950 . S
C1849 C1848 1.334 . S
C1849 C1850 1.287 . S
C1850 C1849 1.287 . S
C1850 C1851 1.524 . S
C1850 H1869 0.913 . S
C1851 H1827 0.950 . S
C1851 C1850 1.524 . S
C1851 C1852 1.415 . S
C1852 H1828 0.950 . S
C1852 C1847 1.363 . S
C1852 C1851 1.415 . S
C1853 H1829 0.951 . S
C1853 C1854 1.366 . S
C1853 C1855 1.388 . S
C1854 C1853 1.366 . S
C1854 C1858 1.385 . S
C1855 H1830 0.951 . S
C1855 C1853 1.388 . S
C1855 C1856 1.366 . S
C1856 C1855 1.366 . S
C1856 C1857 1.414 . S
C1856 C1859 1.499 . S
C1857 H1831 0.950 . S
C1857 C1856 1.414 . S
C1857 C1858 1.374 . S
C1858 H1832 0.950 . S
C1858 C1854 1.385 . S
C1858 C1857 1.374 . S
C1859 C1856 1.499 . S
C1859 C1860 1.373 . S
C1859 C1861 1.389 . S
C1860 H1833 0.950 . S
C1860 C1846 1.377 . S
C1860 C1859 1.373 . S
C1861 C1845 1.377 . S
C1861 C1859 1.389 . S
C1861 C1862 1.524 . S
C1862 C1861 1.524 . S
C1862 C1863 1.397 . S
C1862 C1867 1.363 . S
C1863 H1834 0.950 . S
C1863 C1862 1.397 . S
C1863 C1864 1.334 . S
C1864 H1835 0.950 . S
C1864 C1863 1.334 . S
C1864 C1865 1.287 . S
C1865 C1864 1.287 . S
C1865 C1866 1.524 . S
C1865 H1868 0.999 . S
C1866 H1836 0.950 . S
C1866 C1865 1.524 . S
C1866 C1867 1.415 . S
C1867 H1837 0.950 . S
C1867 C1862 1.363 . S
C1867 C1866 1.415 . S
H1868 C1865 0.999 . S
H1869 C1850 0.913 . S
H1870 C1888 0.951 . S
H1871 C1890 0.951 . S
H1872 C1892 0.950 . S
H1873 C1893 0.950 . S
H1874 C1895 0.950 . S
H1875 C1898 0.950 . S
H1876 C1899 0.950 . S
H1877 C1901 0.950 . S
H1878 C1902 0.950 . S
H1879 C1903 0.951 . S
H1880 C1905 0.951 . S
H1881 C1907 0.950 . S
H1882 C1908 0.950 . S
H1883 C1910 0.950 . S
H1884 C1913 0.950 . S
H1885 C1914 0.950 . S
H1886 C1916 0.950 . S
H1887 C1917 0.950 . S
C1888 H1870 0.951 . S
C1888 C1889 1.366 . S
C1888 C1890 1.388 . S
C1889 C1888 1.366 . S
C1889 C1893 1.385 . S
C1890 H1871 0.951 . S
C1890 C1888 1.388 . S
C1890 C1891 1.366 . S
C1891 C1890 1.366 . S
C1891 C1892 1.414 . S
C1891 C1894 1.499 . S
C1892 H1872 0.950 . S
C1892 C1891 1.414 . S
C1892 C1893 1.374 . S
C1893 H1873 0.950 . S
C1893 C1889 1.385 . S
C1893 C1892 1.374 . S
C1894 C1891 1.499 . S
C1894 C1895 1.373 . S
C1894 C1896 1.389 . S
C1895 H1874 0.950 . S
C1895 C1894 1.373 . S
C1895 C1911 1.377 . S
C1896 C1894 1.389 . S
C1896 C1897 1.524 . S
C1896 C1910 1.377 . S
C1897 C1896 1.524 . S
C1897 C1898 1.397 . S
C1897 C1902 1.363 . S
C1898 H1875 0.950 . S
C1898 C1897 1.397 . S
C1898 C1899 1.334 . S
C1899 H1876 0.950 . S
C1899 C1898 1.334 . S
C1899 C1900 1.287 . S
C1900 C1899 1.287 . S
C1900 C1901 1.524 . S
C1900 H1919 0.913 . S
C1901 H1877 0.950 . S
C1901 C1900 1.524 . S
C1901 C1902 1.415 . S
C1902 H1878 0.950 . S
C1902 C1897 1.363 . S
C1902 C1901 1.415 . S
C1903 H1879 0.951 . S
C1903 C1904 1.366 . S
C1903 C1905 1.388 . S
C1904 C1903 1.366 . S
C1904 C1908 1.385 . S
C1905 H1880 0.951 . S
C1905 C1903 1.388 . S
C1905 C1906 1.366 . S
C1906 C1905 1.366 . S
C1906 C1907 1.414 . S
C1906 C1909 1.499 . S
C1907 H1881 0.950 . S
C1907 C1906 1.414 . S
C1907 C1908 1.374 . S
C1908 H1882 0.950 . S
C1908 C1904 1.385 . S
C1908 C1907 1.374 . S
C1909 C1906 1.499 . S
C1909 C1910 1.373 . S
C1909 C1911 1.389 . S
C1910 H1883 0.950 . S
C1910 C1896 1.377 . S
C1910 C1909 1.373 . S
C1911 C1895 1.377 . S
C1911 C1909 1.389 . S
C1911 C1912 1.524 . S
C1912 C1911 1.524 . S
C1912 C1913 1.397 . S
C1912 C1917 1.363 . S
C1913 H1884 0.950 . S
C1913 C1912 1.397 . S
C1913 C1914 1.334 . S
C1914 H1885 0.950 . S
C1914 C1913 1.334 . S
C1914 C1915 1.287 . S
C1915 C1914 1.287 . S
C1915 C1916 1.524 . S
C1915 H1918 0.999 . S
C1916 H1886 0.950 . S
C1916 C1915 1.524 . S
C1916 C1917 1.415 . S
C1917 H1887 0.950 . S
C1917 C1912 1.363 . S
C1917 C1916 1.415 . S
H1918 C1915 0.999 . S
H1919 C1900 0.913 . S
H1920 C1938 0.951 . S
H1921 C1940 0.951 . S
H1922 C1942 0.950 . S
H1923 C1943 0.950 . S
H1924 C1945 0.950 . S
H1925 C1948 0.950 . S
H1926 C1949 0.950 . S
H1927 C1951 0.950 . S
H1928 C1952 0.950 . S
H1929 C1953 0.951 . S
H1930 C1955 0.951 . S
H1931 C1957 0.950 . S
H1932 C1958 0.950 . S
H1933 C1960 0.950 . S
H1934 C1963 0.950 . S
H1935 C1964 0.950 . S
H1936 C1966 0.950 . S
H1937 C1967 0.950 . S
C1938 H1920 0.951 . S
C1938 C1939 1.366 . S
C1938 C1940 1.388 . S
C1939 C1938 1.366 . S
C1939 C1943 1.385 . S
C1940 H1921 0.951 . S
C1940 C1938 1.388 . S
C1940 C1941 1.366 . S
C1941 C1940 1.366 . S
C1941 C1942 1.414 . S
C1941 C1944 1.499 . S
C1942 H1922 0.950 . S
C1942 C1941 1.414 . S
C1942 C1943 1.374 . S
C1943 H1923 0.950 . S
C1943 C1939 1.385 . S
C1943 C1942 1.374 . S
C1944 C1941 1.499 . S
C1944 C1945 1.373 . S
C1944 C1946 1.389 . S
C1945 H1924 0.950 . S
C1945 C1944 1.373 . S
C1945 C1961 1.377 . S
C1946 C1944 1.389 . S
C1946 C1947 1.524 . S
C1946 C1960 1.377 . S
C1947 C1946 1.524 . S
C1947 C1948 1.397 . S
C1947 C1952 1.363 . S
C1948 H1925 0.950 . S
C1948 C1947 1.397 . S
C1948 C1949 1.334 . S
C1949 H1926 0.950 . S
C1949 C1948 1.334 . S
C1949 C1950 1.287 . S
C1950 C1949 1.287 . S
C1950 C1951 1.524 . S
C1950 H1969 0.913 . S
C1951 H1927 0.950 . S
C1951 C1950 1.524 . S
C1951 C1952 1.415 . S
C1952 H1928 0.950 . S
C1952 C1947 1.363 . S
C1952 C1951 1.415 . S
C1953 H1929 0.951 . S
C1953 C1954 1.366 . S
C1953 C1955 1.388 . S
C1954 C1953 1.366 . S
C1954 C1958 1.385 . S
C1955 H1930 0.951 . S
C1955 C1953 1.388 . S
C1955 C1956 1.366 . S
C1956 C1955 1.366 . S
C1956 C1957 1.414 . S
C1956 C1959 1.499 . S
C1957 H1931 0.950 . S
C1957 C1956 1.414 . S
C1957 C1958 1.374 . S
C1958 H1932 0.950 . S
C1958 C1954 1.385 . S
C1958 C1957 1.374 . S
C1959 C1956 1.499 . S
C1959 C1960 1.373 . S
C1959 C1961 1.389 . S
C1960 H1933 0.950 . S
C1960 C1946 1.377 . S
C1960 C1959 1.373 . S
C1961 C1945 1.377 . S
C1961 C1959 1.389 . S
C1961 C1962 1.524 . S
C1962 C1961 1.524 . S
C1962 C1963 1.397 . S
C1962 C1967 1.363 . S
C1963 H1934 0.950 . S
C1963 C1962 1.397 . S
C1963 C1964 1.334 . S
C1964 H1935 0.950 . S
C1964 C1963 1.334 . S
C1964 C1965 1.287 . S
C1965 C1964 1.287 . S
C1965 C1966 1.524 . S
C1965 H1968 0.999 . S
C1966 H1936 0.950 . S
C1966 C1965 1.524 . S
C1966 C1967 1.415 . S
C1967 H1937 0.950 . S
C1967 C1962 1.363 . S
C1967 C1966 1.415 . S
H1968 C1965 0.999 . S
H1969 C1950 0.913 . S
H1970 C1988 0.951 . S
H1971 C1990 0.951 . S
H1972 C1992 0.950 . S
H1973 C1993 0.950 . S
H1974 C1995 0.950 . S
H1975 C1998 0.950 . S
H1976 C1999 0.950 . S
H1977 C2001 0.950 . S
H1978 C2002 0.950 . S
H1979 C2003 0.951 . S
H1980 C2005 0.951 . S
H1981 C2007 0.950 . S
H1982 C2008 0.950 . S
H1983 C2010 0.950 . S
H1984 C2013 0.950 . S
H1985 C2014 0.950 . S
H1986 C2016 0.950 . S
H1987 C2017 0.950 . S
C1988 H1970 0.951 . S
C1988 C1989 1.366 . S
C1988 C1990 1.388 . S
C1989 C1988 1.366 . S
C1989 C1993 1.385 . S
C1990 H1971 0.951 . S
C1990 C1988 1.388 . S
C1990 C1991 1.366 . S
C1991 C1990 1.366 . S
C1991 C1992 1.414 . S
C1991 C1994 1.499 . S
C1992 H1972 0.950 . S
C1992 C1991 1.414 . S
C1992 C1993 1.374 . S
C1993 H1973 0.950 . S
C1993 C1989 1.385 . S
C1993 C1992 1.374 . S
C1994 C1991 1.499 . S
C1994 C1995 1.373 . S
C1994 C1996 1.389 . S
C1995 H1974 0.950 . S
C1995 C1994 1.373 . S
C1995 C2011 1.377 . S
C1996 C1994 1.389 . S
C1996 C1997 1.524 . S
C1996 C2010 1.377 . S
C1997 C1996 1.524 . S
C1997 C1998 1.397 . S
C1997 C2002 1.363 . S
C1998 H1975 0.950 . S
C1998 C1997 1.397 . S
C1998 C1999 1.334 . S
C1999 H1976 0.950 . S
C1999 C1998 1.334 . S
C1999 C2000 1.287 . S
C2000 C1999 1.287 . S
C2000 C2001 1.524 . S
C2000 H2019 0.913 . S
C2001 H1977 0.950 . S
C2001 C2000 1.524 . S
C2001 C2002 1.415 . S
C2002 H1978 0.950 . S
C2002 C1997 1.363 . S
C2002 C2001 1.415 . S
C2003 H1979 0.951 . S
C2003 C2004 1.366 . S
C2003 C2005 1.388 . S
C2004 C2003 1.366 . S
C2004 C2008 1.385 . S
C2005 H1980 0.951 . S
C2005 C2003 1.388 . S
C2005 C2006 1.366 . S
C2006 C2005 1.366 . S
C2006 C2007 1.414 . S
C2006 C2009 1.499 . S
C2007 H1981 0.950 . S
C2007 C2006 1.414 . S
C2007 C2008 1.374 . S
C2008 H1982 0.950 . S
C2008 C2004 1.385 . S
C2008 C2007 1.374 . S
C2009 C2006 1.499 . S
C2009 C2010 1.373 . S
C2009 C2011 1.389 . S
C2010 H1983 0.950 . S
C2010 C1996 1.377 . S
C2010 C2009 1.373 . S
C2011 C1995 1.377 . S
C2011 C2009 1.389 . S
C2011 C2012 1.524 . S
C2012 C2011 1.524 . S
C2012 C2013 1.397 . S
C2012 C2017 1.363 . S
C2013 H1984 0.950 . S
C2013 C2012 1.397 . S
C2013 C2014 1.334 . S
C2014 H1985 0.950 . S
C2014 C2013 1.334 . S
C2014 C2015 1.287 . S
C2015 C2014 1.287 . S
C2015 C2016 1.524 . S
C2015 H2018 0.999 . S
C2016 H1986 0.950 . S
C2016 C2015 1.524 . S
C2016 C2017 1.415 . S
C2017 H1987 0.950 . S
C2017 C2012 1.363 . S
C2017 C2016 1.415 . S
H2018 C2015 0.999 . S
H2019 C2000 0.913 . S
H2020 C2038 0.951 . S
H2021 C2040 0.951 . S
H2022 C2042 0.950 . S
H2023 C2043 0.950 . S
H2024 C2045 0.950 . S
H2025 C2048 0.950 . S
H2026 C2049 0.950 . S
H2027 C2051 0.950 . S
H2028 C2052 0.950 . S
H2029 C2053 0.951 . S
H2030 C2055 0.951 . S
H2031 C2057 0.950 . S
H2032 C2058 0.950 . S
H2033 C2060 0.950 . S
H2034 C2063 0.950 . S
H2035 C2064 0.950 . S
H2036 C2066 0.950 . S
H2037 C2067 0.950 . S
C2038 H2020 0.951 . S
C2038 C2039 1.366 . S
C2038 C2040 1.388 . S
C2039 C2038 1.366 . S
C2039 C2043 1.385 . S
C2040 H2021 0.951 . S
C2040 C2038 1.388 . S
C2040 C2041 1.366 . S
C2041 C2040 1.366 . S
C2041 C2042 1.414 . S
C2041 C2044 1.499 . S
C2042 H2022 0.950 . S
C2042 C2041 1.414 . S
C2042 C2043 1.374 . S
C2043 H2023 0.950 . S
C2043 C2039 1.385 . S
C2043 C2042 1.374 . S
C2044 C2041 1.499 . S
C2044 C2045 1.373 . S
C2044 C2046 1.389 . S
C2045 H2024 0.950 . S
C2045 C2044 1.373 . S
C2045 C2061 1.377 . S
C2046 C2044 1.389 . S
C2046 C2047 1.524 . S
C2046 C2060 1.377 . S
C2047 C2046 1.524 . S
C2047 C2048 1.397 . S
C2047 C2052 1.363 . S
C2048 H2025 0.950 . S
C2048 C2047 1.397 . S
C2048 C2049 1.334 . S
C2049 H2026 0.950 . S
C2049 C2048 1.334 . S
C2049 C2050 1.287 . S
C2050 C2049 1.287 . S
C2050 C2051 1.524 . S
C2050 H2069 0.913 . S
C2051 H2027 0.950 . S
C2051 C2050 1.524 . S
C2051 C2052 1.415 . S
C2052 H2028 0.950 . S
C2052 C2047 1.363 . S
C2052 C2051 1.415 . S
C2053 H2029 0.951 . S
C2053 C2054 1.366 . S
C2053 C2055 1.388 . S
C2054 C2053 1.366 . S
C2054 C2058 1.385 . S
C2055 H2030 0.951 . S
C2055 C2053 1.388 . S
C2055 C2056 1.366 . S
C2056 C2055 1.366 . S
C2056 C2057 1.414 . S
C2056 C2059 1.499 . S
C2057 H2031 0.950 . S
C2057 C2056 1.414 . S
C2057 C2058 1.374 . S
C2058 H2032 0.950 . S
C2058 C2054 1.385 . S
C2058 C2057 1.374 . S
C2059 C2056 1.499 . S
C2059 C2060 1.373 . S
C2059 C2061 1.389 . S
C2060 H2033 0.950 . S
C2060 C2046 1.377 . S
C2060 C2059 1.373 . S
C2061 C2045 1.377 . S
C2061 C2059 1.389 . S
C2061 C2062 1.524 . S
C2062 C2061 1.524 . S
C2062 C2063 1.397 . S
C2062 C2067 1.363 . S
C2063 H2034 0.950 . S
C2063 C2062 1.397 . S
C2063 C2064 1.334 . S
C2064 H2035 0.950 . S
C2064 C2063 1.334 . S
C2064 C2065 1.287 . S
C2065 C2064 1.287 . S
C2065 C2066 1.524 . S
C2065 H2068 0.999 . S
C2066 H2036 0.950 . S
C2066 C2065 1.524 . S
C2066 C2067 1.415 . S
C2067 H2037 0.950 . S
C2067 C2062 1.363 . S
C2067 C2066 1.415 . S
H2068 C2065 0.999 . S
H2069 C2050 0.913 . S
H2070 C2088 0.951 . S
H2071 C2090 0.951 . S
H2072 C2092 0.950 . S
H2073 C2093 0.950 . S
H2074 C2095 0.950 . S
H2075 C2098 0.950 . S
H2076 C2099 0.950 . S
H2077 C2101 0.950 . S
H2078 C2102 0.950 1_545 S
H2079 C2103 0.951 . S
H2080 C2105 0.951 . S
H2081 C2107 0.950 1_545 S
H2082 C2108 0.950 . S
H2083 C2110 0.950 . S
H2084 C2113 0.950 . S
H2085 C2114 0.950 . S
H2086 C2116 0.950 . S
H2087 C2117 0.950 . S
C2088 H2070 0.951 . S
C2088 C2089 1.366 . S
C2088 C2090 1.388 . S
C2089 C2088 1.366 . S
C2089 C2093 1.385 . S
C2090 H2071 0.951 . S
C2090 C2088 1.388 . S
C2090 C2091 1.366 . S
C2091 C2090 1.366 . S
C2091 C2092 1.414 . S
C2091 C2094 1.499 . S
C2092 H2072 0.950 . S
C2092 C2091 1.414 . S
C2092 C2093 1.374 . S
C2093 H2073 0.950 . S
C2093 C2089 1.385 . S
C2093 C2092 1.374 . S
C2094 C2091 1.499 . S
C2094 C2095 1.373 . S
C2094 C2096 1.389 . S
C2095 H2074 0.950 . S
C2095 C2094 1.373 . S
C2095 C2111 1.377 . S
C2096 C2094 1.389 . S
C2096 C2097 1.524 . S
C2096 C2110 1.377 . S
C2097 C2096 1.524 . S
C2097 C2098 1.397 . S
C2097 C2102 1.363 . S
C2098 H2075 0.950 . S
C2098 C2097 1.397 . S
C2098 C2099 1.334 . S
C2099 H2076 0.950 . S
C2099 C2098 1.334 . S
C2099 C2100 1.287 . S
C2100 C2099 1.287 . S
C2100 C2101 1.524 1_565 S
C2100 H2119 0.913 . S
C2101 H2077 0.950 . S
C2101 C2100 1.524 1_545 S
C2101 C2102 1.415 1_545 S
C2102 H2078 0.950 1_565 S
C2102 C2097 1.363 . S
C2102 C2101 1.415 1_565 S
C2103 H2079 0.951 . S
C2103 C2104 1.366 . S
C2103 C2105 1.388 . S
C2104 C2103 1.366 . S
C2104 C2108 1.385 1_565 S
C2105 H2080 0.951 . S
C2105 C2103 1.388 . S
C2105 C2106 1.366 . S
C2106 C2105 1.366 . S
C2106 C2107 1.414 . S
C2106 C2109 1.499 . S
C2107 H2081 0.950 1_565 S
C2107 C2106 1.414 . S
C2107 C2108 1.374 1_565 S
C2108 H2082 0.950 . S
C2108 C2104 1.385 1_545 S
C2108 C2107 1.374 1_545 S
C2109 C2106 1.499 . S
C2109 C2110 1.373 . S
C2109 C2111 1.389 . S
C2110 H2083 0.950 . S
C2110 C2096 1.377 . S
C2110 C2109 1.373 . S
C2111 C2095 1.377 . S
C2111 C2109 1.389 . S
C2111 C2112 1.524 . S
C2112 C2111 1.524 . S
C2112 C2113 1.397 . S
C2112 C2117 1.363 . S
C2113 H2084 0.950 . S
C2113 C2112 1.397 . S
C2113 C2114 1.334 . S
C2114 H2085 0.950 . S
C2114 C2113 1.334 . S
C2114 C2115 1.287 . S
C2115 C2114 1.287 . S
C2115 C2116 1.524 . S
C2115 H2118 0.999 . S
C2116 H2086 0.950 . S
C2116 C2115 1.524 . S
C2116 C2117 1.415 . S
C2117 H2087 0.950 . S
C2117 C2112 1.363 . S
C2117 C2116 1.415 . S
H2118 C2115 0.999 . S
H2119 C2100 0.913 . S
H2120 C2138 0.951 . S
H2121 C2140 0.951 . S
H2122 C2142 0.950 . S
H2123 C2143 0.950 . S
H2124 C2145 0.950 . S
H2125 C2148 0.950 . S
H2126 C2149 0.950 1_655 S
H2127 C2151 0.950 . S
H2128 C2152 0.950 . S
H2129 C2153 0.951 . S
H2130 C2155 0.951 . S
H2131 C2157 0.950 . S
H2132 C2158 0.950 . S
H2133 C2160 0.950 . S
H2134 C2163 0.950 . S
H2135 C2164 0.950 . S
H2136 C2166 0.950 . S
H2137 C2167 0.950 . S
C2138 H2120 0.951 . S
C2138 C2139 1.366 . S
C2138 C2140 1.388 . S
C2139 C2138 1.366 . S
C2139 C2143 1.385 . S
C2140 H2121 0.951 . S
C2140 C2138 1.388 . S
C2140 C2141 1.366 . S
C2141 C2140 1.366 . S
C2141 C2142 1.414 . S
C2141 C2144 1.499 . S
C2142 H2122 0.950 . S
C2142 C2141 1.414 . S
C2142 C2143 1.374 . S
C2143 H2123 0.950 . S
C2143 C2139 1.385 . S
C2143 C2142 1.374 . S
C2144 C2141 1.499 . S
C2144 C2145 1.373 . S
C2144 C2146 1.389 . S
C2145 H2124 0.950 . S
C2145 C2144 1.373 . S
C2145 C2161 1.377 . S
C2146 C2144 1.389 . S
C2146 C2147 1.524 . S
C2146 C2160 1.377 . S
C2147 C2146 1.524 . S
C2147 C2148 1.397 . S
C2147 C2152 1.363 . S
C2148 H2125 0.950 . S
C2148 C2147 1.397 . S
C2148 C2149 1.334 . S
C2149 H2126 0.950 1_455 S
C2149 C2148 1.334 . S
C2149 C2150 1.287 . S
C2150 C2149 1.287 . S
C2150 C2151 1.524 . S
C2150 H2169 0.913 . S
C2151 H2127 0.950 . S
C2151 C2150 1.524 . S
C2151 C2152 1.415 . S
C2152 H2128 0.950 . S
C2152 C2147 1.363 . S
C2152 C2151 1.415 . S
C2153 H2129 0.951 . S
C2153 C2154 1.366 . S
C2153 C2155 1.388 . S
C2154 C2153 1.366 . S
C2154 C2158 1.385 . S
C2155 H2130 0.951 . S
C2155 C2153 1.388 . S
C2155 C2156 1.366 . S
C2156 C2155 1.366 . S
C2156 C2157 1.414 . S
C2156 C2159 1.499 . S
C2157 H2131 0.950 . S
C2157 C2156 1.414 . S
C2157 C2158 1.374 . S
C2158 H2132 0.950 . S
C2158 C2154 1.385 . S
C2158 C2157 1.374 . S
C2159 C2156 1.499 . S
C2159 C2160 1.373 . S
C2159 C2161 1.389 . S
C2160 H2133 0.950 . S
C2160 C2146 1.377 . S
C2160 C2159 1.373 . S
C2161 C2145 1.377 . S
C2161 C2159 1.389 . S
C2161 C2162 1.524 . S
C2162 C2161 1.524 . S
C2162 C2163 1.397 . S
C2162 C2167 1.363 . S
C2163 H2134 0.950 . S
C2163 C2162 1.397 . S
C2163 C2164 1.334 . S
C2164 H2135 0.950 . S
C2164 C2163 1.334 . S
C2164 C2165 1.287 . S
C2165 C2164 1.287 . S
C2165 C2166 1.524 . S
C2165 H2168 0.999 . S
C2166 H2136 0.950 . S
C2166 C2165 1.524 . S
C2166 C2167 1.415 . S
C2167 H2137 0.950 . S
C2167 C2162 1.363 . S
C2167 C2166 1.415 . S
H2168 C2165 0.999 . S
H2169 C2150 0.913 . S
H2170 C2188 0.951 . S
H2171 C2190 0.951 . S
H2172 C2192 0.950 . S
H2173 C2193 0.950 . S
H2174 C2195 0.950 . S
H2175 C2198 0.950 . S
H2176 C2199 0.950 . S
H2177 C2201 0.950 . S
H2178 C2202 0.950 . S
H2179 C2203 0.951 . S
H2180 C2205 0.951 . S
H2181 C2207 0.950 . S
H2182 C2208 0.950 . S
H2183 C2210 0.950 . S
H2184 C2213 0.950 . S
H2185 C2214 0.950 . S
H2186 C2216 0.950 . S
H2187 C2217 0.950 . S
C2188 H2170 0.951 . S
C2188 C2189 1.366 . S
C2188 C2190 1.388 . S
C2189 C2188 1.366 . S
C2189 C2193 1.385 . S
C2190 H2171 0.951 . S
C2190 C2188 1.388 . S
C2190 C2191 1.366 . S
C2191 C2190 1.366 . S
C2191 C2192 1.414 . S
C2191 C2194 1.499 . S
C2192 H2172 0.950 . S
C2192 C2191 1.414 . S
C2192 C2193 1.374 . S
C2193 H2173 0.950 . S
C2193 C2189 1.385 . S
C2193 C2192 1.374 . S
C2194 C2191 1.499 . S
C2194 C2195 1.373 . S
C2194 C2196 1.389 . S
C2195 H2174 0.950 . S
C2195 C2194 1.373 . S
C2195 C2211 1.377 . S
C2196 C2194 1.389 . S
C2196 C2197 1.524 . S
C2196 C2210 1.377 . S
C2197 C2196 1.524 . S
C2197 C2198 1.397 . S
C2197 C2202 1.363 . S
C2198 H2175 0.950 . S
C2198 C2197 1.397 . S
C2198 C2199 1.334 . S
C2199 H2176 0.950 . S
C2199 C2198 1.334 . S
C2199 C2200 1.287 . S
C2200 C2199 1.287 . S
C2200 C2201 1.524 . S
C2200 H2219 0.913 . S
C2201 H2177 0.950 . S
C2201 C2200 1.524 . S
C2201 C2202 1.415 . S
C2202 H2178 0.950 . S
C2202 C2197 1.363 . S
C2202 C2201 1.415 . S
C2203 H2179 0.951 . S
C2203 C2204 1.366 . S
C2203 C2205 1.388 . S
C2204 C2203 1.366 . S
C2204 C2208 1.385 . S
C2205 H2180 0.951 . S
C2205 C2203 1.388 . S
C2205 C2206 1.366 . S
C2206 C2205 1.366 . S
C2206 C2207 1.414 . S
C2206 C2209 1.499 . S
C2207 H2181 0.950 . S
C2207 C2206 1.414 . S
C2207 C2208 1.374 . S
C2208 H2182 0.950 . S
C2208 C2204 1.385 . S
C2208 C2207 1.374 . S
C2209 C2206 1.499 . S
C2209 C2210 1.373 . S
C2209 C2211 1.389 . S
C2210 H2183 0.950 . S
C2210 C2196 1.377 . S
C2210 C2209 1.373 . S
C2211 C2195 1.377 . S
C2211 C2209 1.389 . S
C2211 C2212 1.524 . S
C2212 C2211 1.524 . S
C2212 C2213 1.397 . S
C2212 C2217 1.363 . S
C2213 H2184 0.950 . S
C2213 C2212 1.397 . S
C2213 C2214 1.334 . S
C2214 H2185 0.950 . S
C2214 C2213 1.334 . S
C2214 C2215 1.287 . S
C2215 C2214 1.287 . S
C2215 C2216 1.524 . S
C2215 H2218 0.999 . S
C2216 H2186 0.950 . S
C2216 C2215 1.524 . S
C2216 C2217 1.415 . S
C2217 H2187 0.950 . S
C2217 C2212 1.363 . S
C2217 C2216 1.415 . S
H2218 C2215 0.999 . S
H2219 C2200 0.913 . S
H2220 C2238 0.951 . S
H2221 C2240 0.951 . S
H2222 C2242 0.950 . S
H2223 C2243 0.950 . S
H2224 C2245 0.950 . S
H2225 C2248 0.950 . S
H2226 C2249 0.950 . S
H2227 C2251 0.950 . S
H2228 C2252 0.950 1_655 S
H2229 C2253 0.951 . S
H2230 C2255 0.951 . S
H2231 C2257 0.950 . S
H2232 C2258 0.950 . S
H2233 C2260 0.950 . S
H2234 C2263 0.950 . S
H2235 C2264 0.950 . S
H2236 C2266 0.950 . S
H2237 C2267 0.950 . S
C2238 H2220 0.951 . S
C2238 C2239 1.366 . S
C2238 C2240 1.388 . S
C2239 C2238 1.366 . S
C2239 C2243 1.385 . S
C2240 H2221 0.951 . S
C2240 C2238 1.388 . S
C2240 C2241 1.366 . S
C2241 C2240 1.366 . S
C2241 C2242 1.414 . S
C2241 C2244 1.499 . S
C2242 H2222 0.950 . S
C2242 C2241 1.414 . S
C2242 C2243 1.374 . S
C2243 H2223 0.950 . S
C2243 C2239 1.385 . S
C2243 C2242 1.374 . S
C2244 C2241 1.499 . S
C2244 C2245 1.373 . S
C2244 C2246 1.389 . S
C2245 H2224 0.950 . S
C2245 C2244 1.373 . S
C2245 C2261 1.377 . S
C2246 C2244 1.389 . S
C2246 C2247 1.524 . S
C2246 C2260 1.377 . S
C2247 C2246 1.524 . S
C2247 C2248 1.397 1_655 S
C2247 C2252 1.363 1_655 S
C2248 H2225 0.950 . S
C2248 C2247 1.397 1_455 S
C2248 C2249 1.334 . S
C2249 H2226 0.950 . S
C2249 C2248 1.334 . S
C2249 C2250 1.287 . S
C2250 C2249 1.287 . S
C2250 C2251 1.524 . S
C2250 H2269 0.913 . S
C2251 H2227 0.950 . S
C2251 C2250 1.524 . S
C2251 C2252 1.415 . S
C2252 H2228 0.950 1_455 S
C2252 C2247 1.363 1_455 S
C2252 C2251 1.415 . S
C2253 H2229 0.951 . S
C2253 C2254 1.366 . S
C2253 C2255 1.388 . S
C2254 C2253 1.366 . S
C2254 C2258 1.385 . S
C2255 H2230 0.951 . S
C2255 C2253 1.388 . S
C2255 C2256 1.366 . S
C2256 C2255 1.366 . S
C2256 C2257 1.414 . S
C2256 C2259 1.499 . S
C2257 H2231 0.950 . S
C2257 C2256 1.414 . S
C2257 C2258 1.374 . S
C2258 H2232 0.950 . S
C2258 C2254 1.385 . S
C2258 C2257 1.374 . S
C2259 C2256 1.499 . S
C2259 C2260 1.373 . S
C2259 C2261 1.389 . S
C2260 H2233 0.950 . S
C2260 C2246 1.377 . S
C2260 C2259 1.373 . S
C2261 C2245 1.377 . S
C2261 C2259 1.389 . S
C2261 C2262 1.524 . S
C2262 C2261 1.524 . S
C2262 C2263 1.397 . S
C2262 C2267 1.363 . S
C2263 H2234 0.950 . S
C2263 C2262 1.397 . S
C2263 C2264 1.334 . S
C2264 H2235 0.950 . S
C2264 C2263 1.334 . S
C2264 C2265 1.287 . S
C2265 C2264 1.287 . S
C2265 C2266 1.524 . S
C2265 H2268 0.999 . S
C2266 H2236 0.950 . S
C2266 C2265 1.524 . S
C2266 C2267 1.415 . S
C2267 H2237 0.950 . S
C2267 C2262 1.363 . S
C2267 C2266 1.415 . S
H2268 C2265 0.999 . S
H2269 C2250 0.913 . S
H2270 C2288 0.951 . S
H2271 C2290 0.951 . S
H2272 C2292 0.950 . S
H2273 C2293 0.950 . S
H2274 C2295 0.950 . S
H2275 C2298 0.950 . S
H2276 C2299 0.950 . S
H2277 C2301 0.950 . S
H2278 C2302 0.950 . S
H2279 C2303 0.951 . S
H2280 C2305 0.951 . S
H2281 C2307 0.950 . S
H2282 C2308 0.950 . S
H2283 C2310 0.950 . S
H2284 C2313 0.950 . S
H2285 C2314 0.950 . S
H2286 C2316 0.950 . S
H2287 C2317 0.950 . S
C2288 H2270 0.951 . S
C2288 C2289 1.366 . S
C2288 C2290 1.388 . S
C2289 C2288 1.366 . S
C2289 C2293 1.385 . S
C2290 H2271 0.951 . S
C2290 C2288 1.388 . S
C2290 C2291 1.366 . S
C2291 C2290 1.366 . S
C2291 C2292 1.414 . S
C2291 C2294 1.499 . S
C2292 H2272 0.950 . S
C2292 C2291 1.414 . S
C2292 C2293 1.374 . S
C2293 H2273 0.950 . S
C2293 C2289 1.385 . S
C2293 C2292 1.374 . S
C2294 C2291 1.499 . S
C2294 C2295 1.373 . S
C2294 C2296 1.389 . S
C2295 H2274 0.950 . S
C2295 C2294 1.373 . S
C2295 C2311 1.377 . S
C2296 C2294 1.389 . S
C2296 C2297 1.524 . S
C2296 C2310 1.377 . S
C2297 C2296 1.524 . S
C2297 C2298 1.397 . S
C2297 C2302 1.363 . S
C2298 H2275 0.950 . S
C2298 C2297 1.397 . S
C2298 C2299 1.334 . S
C2299 H2276 0.950 . S
C2299 C2298 1.334 . S
C2299 C2300 1.287 . S
C2300 C2299 1.287 . S
C2300 C2301 1.524 . S
C2300 H2319 0.913 . S
C2301 H2277 0.950 . S
C2301 C2300 1.524 . S
C2301 C2302 1.415 . S
C2302 H2278 0.950 . S
C2302 C2297 1.363 . S
C2302 C2301 1.415 . S
C2303 H2279 0.951 . S
C2303 C2304 1.366 . S
C2303 C2305 1.388 . S
C2304 C2303 1.366 . S
C2304 C2308 1.385 . S
C2305 H2280 0.951 . S
C2305 C2303 1.388 . S
C2305 C2306 1.366 . S
C2306 C2305 1.366 . S
C2306 C2307 1.414 . S
C2306 C2309 1.499 . S
C2307 H2281 0.950 . S
C2307 C2306 1.414 . S
C2307 C2308 1.374 . S
C2308 H2282 0.950 . S
C2308 C2304 1.385 . S
C2308 C2307 1.374 . S
C2309 C2306 1.499 . S
C2309 C2310 1.373 . S
C2309 C2311 1.389 . S
C2310 H2283 0.950 . S
C2310 C2296 1.377 . S
C2310 C2309 1.373 . S
C2311 C2295 1.377 . S
C2311 C2309 1.389 . S
C2311 C2312 1.524 . S
C2312 C2311 1.524 . S
C2312 C2313 1.397 . S
C2312 C2317 1.363 . S
C2313 H2284 0.950 . S
C2313 C2312 1.397 . S
C2313 C2314 1.334 . S
C2314 H2285 0.950 . S
C2314 C2313 1.334 . S
C2314 C2315 1.287 . S
C2315 C2314 1.287 . S
C2315 C2316 1.524 . S
C2315 H2318 0.999 . S
C2316 H2286 0.950 . S
C2316 C2315 1.524 . S
C2316 C2317 1.415 . S
C2317 H2287 0.950 . S
C2317 C2312 1.363 . S
C2317 C2316 1.415 . S
H2318 C2315 0.999 . S
H2319 C2300 0.913 . S
H2320 C2338 0.951 . S
H2321 C2340 0.951 . S
H2322 C2342 0.950 . S
H2323 C2343 0.950 . S
H2324 C2345 0.950 . S
H2325 C2348 0.950 . S
H2326 C2349 0.950 . S
H2327 C2351 0.950 . S
H2328 C2352 0.950 . S
H2329 C2353 0.951 . S
H2330 C2355 0.951 . S
H2331 C2357 0.950 . S
H2332 C2358 0.950 . S
H2333 C2360 0.950 . S
H2334 C2363 0.950 . S
H2335 C2364 0.950 . S
H2336 C2366 0.950 . S
H2337 C2367 0.950 . S
C2338 H2320 0.951 . S
C2338 C2339 1.366 . S
C2338 C2340 1.388 . S
C2339 C2338 1.366 . S
C2339 C2343 1.385 . S
C2340 H2321 0.951 . S
C2340 C2338 1.388 . S
C2340 C2341 1.366 . S
C2341 C2340 1.366 . S
C2341 C2342 1.414 . S
C2341 C2344 1.499 . S
C2342 H2322 0.950 . S
C2342 C2341 1.414 . S
C2342 C2343 1.374 . S
C2343 H2323 0.950 . S
C2343 C2339 1.385 . S
C2343 C2342 1.374 . S
C2344 C2341 1.499 . S
C2344 C2345 1.373 . S
C2344 C2346 1.389 . S
C2345 H2324 0.950 . S
C2345 C2344 1.373 . S
C2345 C2361 1.377 . S
C2346 C2344 1.389 . S
C2346 C2347 1.524 . S
C2346 C2360 1.377 . S
C2347 C2346 1.524 . S
C2347 C2348 1.397 . S
C2347 C2352 1.363 . S
C2348 H2325 0.950 . S
C2348 C2347 1.397 . S
C2348 C2349 1.334 . S
C2349 H2326 0.950 . S
C2349 C2348 1.334 . S
C2349 C2350 1.287 . S
C2350 C2349 1.287 . S
C2350 C2351 1.524 . S
C2350 H2369 0.913 . S
C2351 H2327 0.950 . S
C2351 C2350 1.524 . S
C2351 C2352 1.415 . S
C2352 H2328 0.950 . S
C2352 C2347 1.363 . S
C2352 C2351 1.415 . S
C2353 H2329 0.951 . S
C2353 C2354 1.366 . S
C2353 C2355 1.388 . S
C2354 C2353 1.366 . S
C2354 C2358 1.385 . S
C2355 H2330 0.951 . S
C2355 C2353 1.388 . S
C2355 C2356 1.366 . S
C2356 C2355 1.366 . S
C2356 C2357 1.414 . S
C2356 C2359 1.499 . S
C2357 H2331 0.950 . S
C2357 C2356 1.414 . S
C2357 C2358 1.374 . S
C2358 H2332 0.950 . S
C2358 C2354 1.385 . S
C2358 C2357 1.374 . S
C2359 C2356 1.499 . S
C2359 C2360 1.373 . S
C2359 C2361 1.389 . S
C2360 H2333 0.950 . S
C2360 C2346 1.377 . S
C2360 C2359 1.373 . S
C2361 C2345 1.377 . S
C2361 C2359 1.389 . S
C2361 C2362 1.524 . S
C2362 C2361 1.524 . S
C2362 C2363 1.397 . S
C2362 C2367 1.363 . S
C2363 H2334 0.950 . S
C2363 C2362 1.397 . S
C2363 C2364 1.334 . S
C2364 H2335 0.950 . S
C2364 C2363 1.334 . S
C2364 C2365 1.287 1_545 S
C2365 C2364 1.287 1_565 S
C2365 C2366 1.524 . S
C2365 H2368 0.999 . S
C2366 H2336 0.950 . S
C2366 C2365 1.524 . S
C2366 C2367 1.415 1_565 S
C2367 H2337 0.950 . S
C2367 C2362 1.363 . S
C2367 C2366 1.415 1_545 S
H2368 C2365 0.999 . S
H2369 C2350 0.913 . S
H2370 C2388 0.951 . S
H2371 C2390 0.951 . S
H2372 C2392 0.950 . S
H2373 C2393 0.950 . S
H2374 C2395 0.950 . S
H2375 C2398 0.950 . S
H2376 C2399 0.950 . S
H2377 C2401 0.950 . S
H2378 C2402 0.950 1_455 S
H2379 C2403 0.951 . S
H2380 C2405 0.951 . S
H2381 C2407 0.950 . S
H2382 C2408 0.950 . S
H2383 C2410 0.950 . S
H2384 C2413 0.950 . S
H2385 C2414 0.950 . S
H2386 C2416 0.950 . S
H2387 C2417 0.950 . S
C2388 H2370 0.951 . S
C2388 C2389 1.366 . S
C2388 C2390 1.388 . S
C2389 C2388 1.366 . S
C2389 C2393 1.385 . S
C2390 H2371 0.951 . S
C2390 C2388 1.388 . S
C2390 C2391 1.366 . S
C2391 C2390 1.366 . S
C2391 C2392 1.414 . S
C2391 C2394 1.499 . S
C2392 H2372 0.950 . S
C2392 C2391 1.414 . S
C2392 C2393 1.374 . S
C2393 H2373 0.950 . S
C2393 C2389 1.385 . S
C2393 C2392 1.374 . S
C2394 C2391 1.499 . S
C2394 C2395 1.373 1_655 S
C2394 C2396 1.389 1_655 S
C2395 H2374 0.950 . S
C2395 C2394 1.373 1_455 S
C2395 C2411 1.377 . S
C2396 C2394 1.389 1_455 S
C2396 C2397 1.524 1_455 S
C2396 C2410 1.377 . S
C2397 C2396 1.524 1_655 S
C2397 C2398 1.397 . S
C2397 C2402 1.363 . S
C2398 H2375 0.950 . S
C2398 C2397 1.397 . S
C2398 C2399 1.334 . S
C2399 H2376 0.950 . S
C2399 C2398 1.334 . S
C2399 C2400 1.287 . S
C2400 C2399 1.287 . S
C2400 C2401 1.524 . S
C2400 H2419 0.913 . S
C2401 H2377 0.950 . S
C2401 C2400 1.524 . S
C2401 C2402 1.415 . S
C2402 H2378 0.950 1_655 S
C2402 C2397 1.363 . S
C2402 C2401 1.415 . S
C2403 H2379 0.951 . S
C2403 C2404 1.366 . S
C2403 C2405 1.388 . S
C2404 C2403 1.366 . S
C2404 C2408 1.385 . S
C2405 H2380 0.951 . S
C2405 C2403 1.388 . S
C2405 C2406 1.366 . S
C2406 C2405 1.366 . S
C2406 C2407 1.414 . S
C2406 C2409 1.499 . S
C2407 H2381 0.950 . S
C2407 C2406 1.414 . S
C2407 C2408 1.374 . S
C2408 H2382 0.950 . S
C2408 C2404 1.385 . S
C2408 C2407 1.374 . S
C2409 C2406 1.499 . S
C2409 C2410 1.373 . S
C2409 C2411 1.389 . S
C2410 H2383 0.950 . S
C2410 C2396 1.377 . S
C2410 C2409 1.373 . S
C2411 C2395 1.377 . S
C2411 C2409 1.389 . S
C2411 C2412 1.524 . S
C2412 C2411 1.524 . S
C2412 C2413 1.397 . S
C2412 C2417 1.363 . S
C2413 H2384 0.950 . S
C2413 C2412 1.397 . S
C2413 C2414 1.334 . S
C2414 H2385 0.950 . S
C2414 C2413 1.334 . S
C2414 C2415 1.287 . S
C2415 C2414 1.287 . S
C2415 C2416 1.524 . S
C2415 H2418 0.999 . S
C2416 H2386 0.950 . S
C2416 C2415 1.524 . S
C2416 C2417 1.415 . S
C2417 H2387 0.950 . S
C2417 C2412 1.363 . S
C2417 C2416 1.415 . S
H2418 C2415 0.999 . S
H2419 C2400 0.913 . S
H2420 C2438 0.951 . S
H2421 C2440 0.951 . S
H2422 C2442 0.950 . S
H2423 C2443 0.950 . S
H2424 C2445 0.950 . S
H2425 C2448 0.950 . S
H2426 C2449 0.950 . S
H2427 C2451 0.950 . S
H2428 C2452 0.950 . S
H2429 C2453 0.951 . S
H2430 C2455 0.951 . S
H2431 C2457 0.950 . S
H2432 C2458 0.950 . S
H2433 C2460 0.950 . S
H2434 C2463 0.950 . S
H2435 C2464 0.950 . S
H2436 C2466 0.950 . S
H2437 C2467 0.950 . S
C2438 H2420 0.951 . S
C2438 C2439 1.366 . S
C2438 C2440 1.388 . S
C2439 C2438 1.366 . S
C2439 C2443 1.385 . S
C2440 H2421 0.951 . S
C2440 C2438 1.388 . S
C2440 C2441 1.366 . S
C2441 C2440 1.366 . S
C2441 C2442 1.414 . S
C2441 C2444 1.499 . S
C2442 H2422 0.950 . S
C2442 C2441 1.414 . S
C2442 C2443 1.374 . S
C2443 H2423 0.950 . S
C2443 C2439 1.385 . S
C2443 C2442 1.374 . S
C2444 C2441 1.499 . S
C2444 C2445 1.373 . S
C2444 C2446 1.389 . S
C2445 H2424 0.950 . S
C2445 C2444 1.373 . S
C2445 C2461 1.377 . S
C2446 C2444 1.389 . S
C2446 C2447 1.524 . S
C2446 C2460 1.377 . S
C2447 C2446 1.524 . S
C2447 C2448 1.397 . S
C2447 C2452 1.363 . S
C2448 H2425 0.950 . S
C2448 C2447 1.397 . S
C2448 C2449 1.334 . S
C2449 H2426 0.950 . S
C2449 C2448 1.334 . S
C2449 C2450 1.287 . S
C2450 C2449 1.287 . S
C2450 C2451 1.524 . S
C2450 H2469 0.913 . S
C2451 H2427 0.950 . S
C2451 C2450 1.524 . S
C2451 C2452 1.415 . S
C2452 H2428 0.950 . S
C2452 C2447 1.363 . S
C2452 C2451 1.415 . S
C2453 H2429 0.951 . S
C2453 C2454 1.366 . S
C2453 C2455 1.388 . S
C2454 C2453 1.366 . S
C2454 C2458 1.385 . S
C2455 H2430 0.951 . S
C2455 C2453 1.388 . S
C2455 C2456 1.366 . S
C2456 C2455 1.366 . S
C2456 C2457 1.414 . S
C2456 C2459 1.499 . S
C2457 H2431 0.950 . S
C2457 C2456 1.414 . S
C2457 C2458 1.374 . S
C2458 H2432 0.950 . S
C2458 C2454 1.385 . S
C2458 C2457 1.374 . S
C2459 C2456 1.499 . S
C2459 C2460 1.373 . S
C2459 C2461 1.389 . S
C2460 H2433 0.950 . S
C2460 C2446 1.377 . S
C2460 C2459 1.373 . S
C2461 C2445 1.377 . S
C2461 C2459 1.389 . S
C2461 C2462 1.524 . S
C2462 C2461 1.524 . S
C2462 C2463 1.397 . S
C2462 C2467 1.363 . S
C2463 H2434 0.950 . S
C2463 C2462 1.397 . S
C2463 C2464 1.334 . S
C2464 H2435 0.950 . S
C2464 C2463 1.334 . S
C2464 C2465 1.287 . S
C2465 C2464 1.287 . S
C2465 C2466 1.524 . S
C2465 H2468 0.999 . S
C2466 H2436 0.950 . S
C2466 C2465 1.524 . S
C2466 C2467 1.415 . S
C2467 H2437 0.950 . S
C2467 C2462 1.363 . S
C2467 C2466 1.415 . S
H2468 C2465 0.999 . S
H2469 C2450 0.913 . S
H2470 C2488 0.951 . S
H2471 C2490 0.951 . S
H2472 C2492 0.950 . S
H2473 C2493 0.950 . S
H2474 C2495 0.950 . S
H2475 C2498 0.950 . S
H2476 C2499 0.950 . S
H2477 C2501 0.950 . S
H2478 C2502 0.950 . S
H2479 C2503 0.951 . S
H2480 C2505 0.951 . S
H2481 C2507 0.950 . S
H2482 C2508 0.950 . S
H2483 C2510 0.950 . S
H2484 C2513 0.950 . S
H2485 C2514 0.950 . S
H2486 C2516 0.950 1_565 S
H2487 C2517 0.950 1_565 S
C2488 H2470 0.951 . S
C2488 C2489 1.366 . S
C2488 C2490 1.388 . S
C2489 C2488 1.366 . S
C2489 C2493 1.385 . S
C2490 H2471 0.951 . S
C2490 C2488 1.388 . S
C2490 C2491 1.366 . S
C2491 C2490 1.366 . S
C2491 C2492 1.414 . S
C2491 C2494 1.499 . S
C2492 H2472 0.950 . S
C2492 C2491 1.414 . S
C2492 C2493 1.374 . S
C2493 H2473 0.950 . S
C2493 C2489 1.385 . S
C2493 C2492 1.374 . S
C2494 C2491 1.499 . S
C2494 C2495 1.373 . S
C2494 C2496 1.389 1_565 S
C2495 H2474 0.950 . S
C2495 C2494 1.373 . S
C2495 C2511 1.377 1_565 S
C2496 C2494 1.389 1_545 S
C2496 C2497 1.524 . S
C2496 C2510 1.377 . S
C2497 C2496 1.524 . S
C2497 C2498 1.397 1_545 S
C2497 C2502 1.363 . S
C2498 H2475 0.950 . S
C2498 C2497 1.397 1_565 S
C2498 C2499 1.334 . S
C2499 H2476 0.950 . S
C2499 C2498 1.334 . S
C2499 C2500 1.287 1_565 S
C2500 C2499 1.287 1_545 S
C2500 C2501 1.524 . S
C2500 H2519 0.913 1_545 S
C2501 H2477 0.950 . S
C2501 C2500 1.524 . S
C2501 C2502 1.415 . S
C2502 H2478 0.950 . S
C2502 C2497 1.363 . S
C2502 C2501 1.415 . S
C2503 H2479 0.951 . S
C2503 C2504 1.366 . S
C2503 C2505 1.388 . S
C2504 C2503 1.366 . S
C2504 C2508 1.385 . S
C2505 H2480 0.951 . S
C2505 C2503 1.388 . S
C2505 C2506 1.366 . S
C2506 C2505 1.366 . S
C2506 C2507 1.414 . S
C2506 C2509 1.499 . S
C2507 H2481 0.950 . S
C2507 C2506 1.414 . S
C2507 C2508 1.374 . S
C2508 H2482 0.950 . S
C2508 C2504 1.385 . S
C2508 C2507 1.374 . S
C2509 C2506 1.499 . S
C2509 C2510 1.373 . S
C2509 C2511 1.389 . S
C2510 H2483 0.950 . S
C2510 C2496 1.377 . S
C2510 C2509 1.373 . S
C2511 C2495 1.377 1_545 S
C2511 C2509 1.389 . S
C2511 C2512 1.524 . S
C2512 C2511 1.524 . S
C2512 C2513 1.397 . S
C2512 C2517 1.363 . S
C2513 H2484 0.950 . S
C2513 C2512 1.397 . S
C2513 C2514 1.334 . S
C2514 H2485 0.950 . S
C2514 C2513 1.334 . S
C2514 C2515 1.287 . S
C2515 C2514 1.287 . S
C2515 C2516 1.524 . S
C2515 H2518 0.999 . S
C2516 H2486 0.950 1_545 S
C2516 C2515 1.524 . S
C2516 C2517 1.415 . S
C2517 H2487 0.950 1_545 S
C2517 C2512 1.363 . S
C2517 C2516 1.415 . S
H2518 C2515 0.999 . S
H2519 C2500 0.913 1_565 S
H2520 C2538 0.951 . S
H2521 C2540 0.951 . S
H2522 C2542 0.950 . S
H2523 C2543 0.950 . S
H2524 C2545 0.950 . S
H2525 C2548 0.950 . S
H2526 C2549 0.950 . S
H2527 C2551 0.950 . S
H2528 C2552 0.950 . S
H2529 C2553 0.951 . S
H2530 C2555 0.951 . S
H2531 C2557 0.950 . S
H2532 C2558 0.950 . S
H2533 C2560 0.950 . S
H2534 C2563 0.950 . S
H2535 C2564 0.950 . S
H2536 C2566 0.950 . S
H2537 C2567 0.950 . S
C2538 H2520 0.951 . S
C2538 C2539 1.366 . S
C2538 C2540 1.388 . S
C2539 C2538 1.366 . S
C2539 C2543 1.385 . S
C2540 H2521 0.951 . S
C2540 C2538 1.388 . S
C2540 C2541 1.366 . S
C2541 C2540 1.366 . S
C2541 C2542 1.414 . S
C2541 C2544 1.499 . S
C2542 H2522 0.950 . S
C2542 C2541 1.414 . S
C2542 C2543 1.374 . S
C2543 H2523 0.950 . S
C2543 C2539 1.385 . S
C2543 C2542 1.374 . S
C2544 C2541 1.499 . S
C2544 C2545 1.373 . S
C2544 C2546 1.389 . S
C2545 H2524 0.950 . S
C2545 C2544 1.373 . S
C2545 C2561 1.377 . S
C2546 C2544 1.389 . S
C2546 C2547 1.524 . S
C2546 C2560 1.377 . S
C2547 C2546 1.524 . S
C2547 C2548 1.397 . S
C2547 C2552 1.363 . S
C2548 H2525 0.950 . S
C2548 C2547 1.397 . S
C2548 C2549 1.334 . S
C2549 H2526 0.950 . S
C2549 C2548 1.334 . S
C2549 C2550 1.287 . S
C2550 C2549 1.287 . S
C2550 C2551 1.524 . S
C2550 H2569 0.913 . S
C2551 H2527 0.950 . S
C2551 C2550 1.524 . S
C2551 C2552 1.415 . S
C2552 H2528 0.950 . S
C2552 C2547 1.363 . S
C2552 C2551 1.415 . S
C2553 H2529 0.951 . S
C2553 C2554 1.366 . S
C2553 C2555 1.388 . S
C2554 C2553 1.366 . S
C2554 C2558 1.385 . S
C2555 H2530 0.951 . S
C2555 C2553 1.388 . S
C2555 C2556 1.366 . S
C2556 C2555 1.366 . S
C2556 C2557 1.414 . S
C2556 C2559 1.499 . S
C2557 H2531 0.950 . S
C2557 C2556 1.414 . S
C2557 C2558 1.374 . S
C2558 H2532 0.950 . S
C2558 C2554 1.385 . S
C2558 C2557 1.374 . S
C2559 C2556 1.499 . S
C2559 C2560 1.373 . S
C2559 C2561 1.389 . S
C2560 H2533 0.950 . S
C2560 C2546 1.377 . S
C2560 C2559 1.373 . S
C2561 C2545 1.377 . S
C2561 C2559 1.389 . S
C2561 C2562 1.524 . S
C2562 C2561 1.524 . S
C2562 C2563 1.397 . S
C2562 C2567 1.363 . S
C2563 H2534 0.950 . S
C2563 C2562 1.397 . S
C2563 C2564 1.334 . S
C2564 H2535 0.950 . S
C2564 C2563 1.334 . S
C2564 C2565 1.287 . S
C2565 C2564 1.287 . S
C2565 C2566 1.524 . S
C2565 H2568 0.999 . S
C2566 H2536 0.950 . S
C2566 C2565 1.524 . S
C2566 C2567 1.415 . S
C2567 H2537 0.950 . S
C2567 C2562 1.363 . S
C2567 C2566 1.415 . S
H2568 C2565 0.999 . S
H2569 C2550 0.913 . S
H2570 C2588 0.951 . S
H2571 C2590 0.951 . S
H2572 C2592 0.950 . S
H2573 C2593 0.950 . S
H2574 C2595 0.950 . S
H2575 C2598 0.950 . S
H2576 C2599 0.950 . S
H2577 C2601 0.950 . S
H2578 C2602 0.950 . S
H2579 C2603 0.951 . S
H2580 C2605 0.951 . S
H2581 C2607 0.950 . S
H2582 C2608 0.950 . S
H2583 C2610 0.950 . S
H2584 C2613 0.950 . S
H2585 C2614 0.950 . S
H2586 C2616 0.950 . S
H2587 C2617 0.950 . S
C2588 H2570 0.951 . S
C2588 C2589 1.366 . S
C2588 C2590 1.388 . S
C2589 C2588 1.366 . S
C2589 C2593 1.385 . S
C2590 H2571 0.951 . S
C2590 C2588 1.388 . S
C2590 C2591 1.366 . S
C2591 C2590 1.366 . S
C2591 C2592 1.414 . S
C2591 C2594 1.499 . S
C2592 H2572 0.950 . S
C2592 C2591 1.414 . S
C2592 C2593 1.374 . S
C2593 H2573 0.950 . S
C2593 C2589 1.385 . S
C2593 C2592 1.374 . S
C2594 C2591 1.499 . S
C2594 C2595 1.373 . S
C2594 C2596 1.389 . S
C2595 H2574 0.950 . S
C2595 C2594 1.373 . S
C2595 C2611 1.377 . S
C2596 C2594 1.389 . S
C2596 C2597 1.524 . S
C2596 C2610 1.377 . S
C2597 C2596 1.524 . S
C2597 C2598 1.397 . S
C2597 C2602 1.363 . S
C2598 H2575 0.950 . S
C2598 C2597 1.397 . S
C2598 C2599 1.334 . S
C2599 H2576 0.950 . S
C2599 C2598 1.334 . S
C2599 C2600 1.287 . S
C2600 C2599 1.287 . S
C2600 C2601 1.524 . S
C2600 H2619 0.913 . S
C2601 H2577 0.950 . S
C2601 C2600 1.524 . S
C2601 C2602 1.415 . S
C2602 H2578 0.950 . S
C2602 C2597 1.363 . S
C2602 C2601 1.415 . S
C2603 H2579 0.951 . S
C2603 C2604 1.366 . S
C2603 C2605 1.388 . S
C2604 C2603 1.366 . S
C2604 C2608 1.385 . S
C2605 H2580 0.951 . S
C2605 C2603 1.388 . S
C2605 C2606 1.366 . S
C2606 C2605 1.366 . S
C2606 C2607 1.414 . S
C2606 C2609 1.499 . S
C2607 H2581 0.950 . S
C2607 C2606 1.414 . S
C2607 C2608 1.374 . S
C2608 H2582 0.950 . S
C2608 C2604 1.385 . S
C2608 C2607 1.374 . S
C2609 C2606 1.499 . S
C2609 C2610 1.373 . S
C2609 C2611 1.389 . S
C2610 H2583 0.950 . S
C2610 C2596 1.377 . S
C2610 C2609 1.373 . S
C2611 C2595 1.377 . S
C2611 C2609 1.389 . S
C2611 C2612 1.524 . S
C2612 C2611 1.524 . S
C2612 C2613 1.397 . S
C2612 C2617 1.363 . S
C2613 H2584 0.950 . S
C2613 C2612 1.397 . S
C2613 C2614 1.334 . S
C2614 H2585 0.950 . S
C2614 C2613 1.334 . S
C2614 C2615 1.287 . S
C2615 C2614 1.287 . S
C2615 C2616 1.524 . S
C2615 H2618 0.999 . S
C2616 H2586 0.950 . S
C2616 C2615 1.524 . S
C2616 C2617 1.415 . S
C2617 H2587 0.950 . S
C2617 C2612 1.363 . S
C2617 C2616 1.415 . S
H2618 C2615 0.999 . S
H2619 C2600 0.913 . S
H2620 C2638 0.951 . S
H2621 C2640 0.951 . S
H2622 C2642 0.950 . S
H2623 C2643 0.950 . S
H2624 C2645 0.950 . S
H2625 C2648 0.950 . S
H2626 C2649 0.950 . S
H2627 C2651 0.950 . S
H2628 C2652 0.950 . S
H2629 C2653 0.951 . S
H2630 C2655 0.951 . S
H2631 C2657 0.950 . S
H2632 C2658 0.950 . S
H2633 C2660 0.950 . S
H2634 C2663 0.950 . S
H2635 C2664 0.950 . S
H2636 C2666 0.950 . S
H2637 C2667 0.950 . S
C2638 H2620 0.951 . S
C2638 C2639 1.366 . S
C2638 C2640 1.388 . S
C2639 C2638 1.366 . S
C2639 C2643 1.385 . S
C2640 H2621 0.951 . S
C2640 C2638 1.388 . S
C2640 C2641 1.366 . S
C2641 C2640 1.366 . S
C2641 C2642 1.414 . S
C2641 C2644 1.499 . S
C2642 H2622 0.950 . S
C2642 C2641 1.414 . S
C2642 C2643 1.374 . S
C2643 H2623 0.950 . S
C2643 C2639 1.385 . S
C2643 C2642 1.374 . S
C2644 C2641 1.499 . S
C2644 C2645 1.373 . S
C2644 C2646 1.389 . S
C2645 H2624 0.950 . S
C2645 C2644 1.373 . S
C2645 C2661 1.377 . S
C2646 C2644 1.389 . S
C2646 C2647 1.524 . S
C2646 C2660 1.377 . S
C2647 C2646 1.524 . S
C2647 C2648 1.397 . S
C2647 C2652 1.363 . S
C2648 H2625 0.950 . S
C2648 C2647 1.397 . S
C2648 C2649 1.334 . S
C2649 H2626 0.950 . S
C2649 C2648 1.334 . S
C2649 C2650 1.287 . S
C2650 C2649 1.287 . S
C2650 C2651 1.524 . S
C2650 H2669 0.913 . S
C2651 H2627 0.950 . S
C2651 C2650 1.524 . S
C2651 C2652 1.415 . S
C2652 H2628 0.950 . S
C2652 C2647 1.363 . S
C2652 C2651 1.415 . S
C2653 H2629 0.951 . S
C2653 C2654 1.366 . S
C2653 C2655 1.388 . S
C2654 C2653 1.366 . S
C2654 C2658 1.385 . S
C2655 H2630 0.951 . S
C2655 C2653 1.388 . S
C2655 C2656 1.366 . S
C2656 C2655 1.366 . S
C2656 C2657 1.414 . S
C2656 C2659 1.499 . S
C2657 H2631 0.950 . S
C2657 C2656 1.414 . S
C2657 C2658 1.374 . S
C2658 H2632 0.950 . S
C2658 C2654 1.385 . S
C2658 C2657 1.374 . S
C2659 C2656 1.499 . S
C2659 C2660 1.373 . S
C2659 C2661 1.389 . S
C2660 H2633 0.950 . S
C2660 C2646 1.377 . S
C2660 C2659 1.373 . S
C2661 C2645 1.377 . S
C2661 C2659 1.389 . S
C2661 C2662 1.524 . S
C2662 C2661 1.524 . S
C2662 C2663 1.397 . S
C2662 C2667 1.363 . S
C2663 H2634 0.950 . S
C2663 C2662 1.397 . S
C2663 C2664 1.334 . S
C2664 H2635 0.950 . S
C2664 C2663 1.334 . S
C2664 C2665 1.287 . S
C2665 C2664 1.287 . S
C2665 C2666 1.524 . S
C2665 H2668 0.999 . S
C2666 H2636 0.950 . S
C2666 C2665 1.524 . S
C2666 C2667 1.415 . S
C2667 H2637 0.950 . S
C2667 C2662 1.363 . S
C2667 C2666 1.415 . S
H2668 C2665 0.999 . S
H2669 C2650 0.913 . S
H2670 C2688 0.951 . S
H2671 C2690 0.951 . S
H2672 C2692 0.950 . S
H2673 C2693 0.950 . S
H2674 C2695 0.950 . S
H2675 C2698 0.950 . S
H2676 C2699 0.950 . S
H2677 C2701 0.950 . S
H2678 C2702 0.950 . S
H2679 C2703 0.951 . S
H2680 C2705 0.951 . S
H2681 C2707 0.950 . S
H2682 C2708 0.950 . S
H2683 C2710 0.950 . S
H2684 C2713 0.950 . S
H2685 C2714 0.950 . S
H2686 C2716 0.950 . S
H2687 C2717 0.950 . S
C2688 H2670 0.951 . S
C2688 C2689 1.366 . S
C2688 C2690 1.388 . S
C2689 C2688 1.366 . S
C2689 C2693 1.385 . S
C2690 H2671 0.951 . S
C2690 C2688 1.388 . S
C2690 C2691 1.366 . S
C2691 C2690 1.366 . S
C2691 C2692 1.414 . S
C2691 C2694 1.499 . S
C2692 H2672 0.950 . S
C2692 C2691 1.414 . S
C2692 C2693 1.374 . S
C2693 H2673 0.950 . S
C2693 C2689 1.385 . S
C2693 C2692 1.374 . S
C2694 C2691 1.499 . S
C2694 C2695 1.373 . S
C2694 C2696 1.389 . S
C2695 H2674 0.950 . S
C2695 C2694 1.373 . S
C2695 C2711 1.377 . S
C2696 C2694 1.389 . S
C2696 C2697 1.524 . S
C2696 C2710 1.377 . S
C2697 C2696 1.524 . S
C2697 C2698 1.397 . S
C2697 C2702 1.363 . S
C2698 H2675 0.950 . S
C2698 C2697 1.397 . S
C2698 C2699 1.334 . S
C2699 H2676 0.950 . S
C2699 C2698 1.334 . S
C2699 C2700 1.287 . S
C2700 C2699 1.287 . S
C2700 C2701 1.524 . S
C2700 H2719 0.913 . S
C2701 H2677 0.950 . S
C2701 C2700 1.524 . S
C2701 C2702 1.415 . S
C2702 H2678 0.950 . S
C2702 C2697 1.363 . S
C2702 C2701 1.415 . S
C2703 H2679 0.951 . S
C2703 C2704 1.366 . S
C2703 C2705 1.388 . S
C2704 C2703 1.366 . S
C2704 C2708 1.385 . S
C2705 H2680 0.951 . S
C2705 C2703 1.388 . S
C2705 C2706 1.366 . S
C2706 C2705 1.366 . S
C2706 C2707 1.414 . S
C2706 C2709 1.499 . S
C2707 H2681 0.950 . S
C2707 C2706 1.414 . S
C2707 C2708 1.374 . S
C2708 H2682 0.950 . S
C2708 C2704 1.385 . S
C2708 C2707 1.374 . S
C2709 C2706 1.499 . S
C2709 C2710 1.373 . S
C2709 C2711 1.389 . S
C2710 H2683 0.950 . S
C2710 C2696 1.377 . S
C2710 C2709 1.373 . S
C2711 C2695 1.377 . S
C2711 C2709 1.389 . S
C2711 C2712 1.524 . S
C2712 C2711 1.524 . S
C2712 C2713 1.397 . S
C2712 C2717 1.363 . S
C2713 H2684 0.950 . S
C2713 C2712 1.397 . S
C2713 C2714 1.334 . S
C2714 H2685 0.950 . S
C2714 C2713 1.334 . S
C2714 C2715 1.287 . S
C2715 C2714 1.287 . S
C2715 C2716 1.524 . S
C2715 H2718 0.999 . S
C2716 H2686 0.950 . S
C2716 C2715 1.524 . S
C2716 C2717 1.415 . S
C2717 H2687 0.950 . S
C2717 C2712 1.363 . S
C2717 C2716 1.415 . S
H2718 C2715 0.999 . S
H2719 C2700 0.913 . S
H2720 C2738 0.951 . S
H2721 C2740 0.951 . S
H2722 C2742 0.950 . S
H2723 C2743 0.950 . S
H2724 C2745 0.950 . S
H2725 C2748 0.950 . S
H2726 C2749 0.950 . S
H2727 C2751 0.950 . S
H2728 C2752 0.950 . S
H2729 C2753 0.951 . S
H2730 C2755 0.951 . S
H2731 C2757 0.950 . S
H2732 C2758 0.950 . S
H2733 C2760 0.950 . S
H2734 C2763 0.950 . S
H2735 C2764 0.950 . S
H2736 C2766 0.950 . S
H2737 C2767 0.950 . S
C2738 H2720 0.951 . S
C2738 C2739 1.366 . S
C2738 C2740 1.388 . S
C2739 C2738 1.366 . S
C2739 C2743 1.385 . S
C2740 H2721 0.951 . S
C2740 C2738 1.388 . S
C2740 C2741 1.366 . S
C2741 C2740 1.366 . S
C2741 C2742 1.414 . S
C2741 C2744 1.499 . S
C2742 H2722 0.950 . S
C2742 C2741 1.414 . S
C2742 C2743 1.374 . S
C2743 H2723 0.950 . S
C2743 C2739 1.385 . S
C2743 C2742 1.374 . S
C2744 C2741 1.499 . S
C2744 C2745 1.373 . S
C2744 C2746 1.389 . S
C2745 H2724 0.950 . S
C2745 C2744 1.373 . S
C2745 C2761 1.377 . S
C2746 C2744 1.389 . S
C2746 C2747 1.524 . S
C2746 C2760 1.377 . S
C2747 C2746 1.524 . S
C2747 C2748 1.397 . S
C2747 C2752 1.363 . S
C2748 H2725 0.950 . S
C2748 C2747 1.397 . S
C2748 C2749 1.334 . S
C2749 H2726 0.950 . S
C2749 C2748 1.334 . S
C2749 C2750 1.287 . S
C2750 C2749 1.287 . S
C2750 C2751 1.524 . S
C2750 H2769 0.913 . S
C2751 H2727 0.950 . S
C2751 C2750 1.524 . S
C2751 C2752 1.415 . S
C2752 H2728 0.950 . S
C2752 C2747 1.363 . S
C2752 C2751 1.415 . S
C2753 H2729 0.951 . S
C2753 C2754 1.366 . S
C2753 C2755 1.388 . S
C2754 C2753 1.366 . S
C2754 C2758 1.385 . S
C2755 H2730 0.951 . S
C2755 C2753 1.388 . S
C2755 C2756 1.366 . S
C2756 C2755 1.366 . S
C2756 C2757 1.414 . S
C2756 C2759 1.499 . S
C2757 H2731 0.950 . S
C2757 C2756 1.414 . S
C2757 C2758 1.374 . S
C2758 H2732 0.950 . S
C2758 C2754 1.385 . S
C2758 C2757 1.374 . S
C2759 C2756 1.499 . S
C2759 C2760 1.373 . S
C2759 C2761 1.389 . S
C2760 H2733 0.950 . S
C2760 C2746 1.377 . S
C2760 C2759 1.373 . S
C2761 C2745 1.377 . S
C2761 C2759 1.389 . S
C2761 C2762 1.524 . S
C2762 C2761 1.524 . S
C2762 C2763 1.397 . S
C2762 C2767 1.363 . S
C2763 H2734 0.950 . S
C2763 C2762 1.397 . S
C2763 C2764 1.334 . S
C2764 H2735 0.950 . S
C2764 C2763 1.334 . S
C2764 C2765 1.287 . S
C2765 C2764 1.287 . S
C2765 C2766 1.524 . S
C2765 H2768 0.999 . S
C2766 H2736 0.950 . S
C2766 C2765 1.524 . S
C2766 C2767 1.415 . S
C2767 H2737 0.950 . S
C2767 C2762 1.363 . S
C2767 C2766 1.415 . S
H2768 C2765 0.999 . S
H2769 C2750 0.913 . S
H2770 C2788 0.951 . S
H2771 C2790 0.951 . S
H2772 C2792 0.950 . S
H2773 C2793 0.950 . S
H2774 C2795 0.950 . S
H2775 C2798 0.950 . S
H2776 C2799 0.950 . S
H2777 C2801 0.950 . S
H2778 C2802 0.950 . S
H2779 C2803 0.951 . S
H2780 C2805 0.951 . S
H2781 C2807 0.950 . S
H2782 C2808 0.950 . S
H2783 C2810 0.950 . S
H2784 C2813 0.950 . S
H2785 C2814 0.950 . S
H2786 C2816 0.950 . S
H2787 C2817 0.950 . S
C2788 H2770 0.951 . S
C2788 C2789 1.366 . S
C2788 C2790 1.388 . S
C2789 C2788 1.366 . S
C2789 C2793 1.385 . S
C2790 H2771 0.951 . S
C2790 C2788 1.388 . S
C2790 C2791 1.366 . S
C2791 C2790 1.366 . S
C2791 C2792 1.414 . S
C2791 C2794 1.499 . S
C2792 H2772 0.950 . S
C2792 C2791 1.414 . S
C2792 C2793 1.374 . S
C2793 H2773 0.950 . S
C2793 C2789 1.385 . S
C2793 C2792 1.374 . S
C2794 C2791 1.499 . S
C2794 C2795 1.373 . S
C2794 C2796 1.389 . S
C2795 H2774 0.950 . S
C2795 C2794 1.373 . S
C2795 C2811 1.377 . S
C2796 C2794 1.389 . S
C2796 C2797 1.524 . S
C2796 C2810 1.377 . S
C2797 C2796 1.524 . S
C2797 C2798 1.397 . S
C2797 C2802 1.363 . S
C2798 H2775 0.950 . S
C2798 C2797 1.397 . S
C2798 C2799 1.334 . S
C2799 H2776 0.950 . S
C2799 C2798 1.334 . S
C2799 C2800 1.287 . S
C2800 C2799 1.287 . S
C2800 C2801 1.524 . S
C2800 H2819 0.913 . S
C2801 H2777 0.950 . S
C2801 C2800 1.524 . S
C2801 C2802 1.415 . S
C2802 H2778 0.950 . S
C2802 C2797 1.363 . S
C2802 C2801 1.415 . S
C2803 H2779 0.951 . S
C2803 C2804 1.366 . S
C2803 C2805 1.388 . S
C2804 C2803 1.366 . S
C2804 C2808 1.385 . S
C2805 H2780 0.951 . S
C2805 C2803 1.388 . S
C2805 C2806 1.366 . S
C2806 C2805 1.366 . S
C2806 C2807 1.414 . S
C2806 C2809 1.499 . S
C2807 H2781 0.950 . S
C2807 C2806 1.414 . S
C2807 C2808 1.374 . S
C2808 H2782 0.950 . S
C2808 C2804 1.385 . S
C2808 C2807 1.374 . S
C2809 C2806 1.499 . S
C2809 C2810 1.373 . S
C2809 C2811 1.389 . S
C2810 H2783 0.950 . S
C2810 C2796 1.377 . S
C2810 C2809 1.373 . S
C2811 C2795 1.377 . S
C2811 C2809 1.389 . S
C2811 C2812 1.524 . S
C2812 C2811 1.524 . S
C2812 C2813 1.397 . S
C2812 C2817 1.363 . S
C2813 H2784 0.950 . S
C2813 C2812 1.397 . S
C2813 C2814 1.334 . S
C2814 H2785 0.950 . S
C2814 C2813 1.334 . S
C2814 C2815 1.287 . S
C2815 C2814 1.287 . S
C2815 C2816 1.524 . S
C2815 H2818 0.999 . S
C2816 H2786 0.950 . S
C2816 C2815 1.524 . S
C2816 C2817 1.415 . S
C2817 H2787 0.950 . S
C2817 C2812 1.363 . S
C2817 C2816 1.415 . S
H2818 C2815 0.999 . S
H2819 C2800 0.913 . S
H2820 C2838 0.951 . S
H2821 C2840 0.951 . S
H2822 C2842 0.950 . S
H2823 C2843 0.950 . S
H2824 C2845 0.950 . S
H2825 C2848 0.950 . S
H2826 C2849 0.950 . S
H2827 C2851 0.950 . S
H2828 C2852 0.950 . S
H2829 C2853 0.951 . S
H2830 C2855 0.951 . S
H2831 C2857 0.950 . S
H2832 C2858 0.950 . S
H2833 C2860 0.950 . S
H2834 C2863 0.950 . S
H2835 C2864 0.950 . S
H2836 C2866 0.950 . S
H2837 C2867 0.950 . S
C2838 H2820 0.951 . S
C2838 C2839 1.366 . S
C2838 C2840 1.388 . S
C2839 C2838 1.366 . S
C2839 C2843 1.385 . S
C2840 H2821 0.951 . S
C2840 C2838 1.388 . S
C2840 C2841 1.366 . S
C2841 C2840 1.366 . S
C2841 C2842 1.414 . S
C2841 C2844 1.499 . S
C2842 H2822 0.950 . S
C2842 C2841 1.414 . S
C2842 C2843 1.374 . S
C2843 H2823 0.950 . S
C2843 C2839 1.385 . S
C2843 C2842 1.374 . S
C2844 C2841 1.499 . S
C2844 C2845 1.373 . S
C2844 C2846 1.389 . S
C2845 H2824 0.950 . S
C2845 C2844 1.373 . S
C2845 C2861 1.377 . S
C2846 C2844 1.389 . S
C2846 C2847 1.524 . S
C2846 C2860 1.377 . S
C2847 C2846 1.524 . S
C2847 C2848 1.397 . S
C2847 C2852 1.363 . S
C2848 H2825 0.950 . S
C2848 C2847 1.397 . S
C2848 C2849 1.334 . S
C2849 H2826 0.950 . S
C2849 C2848 1.334 . S
C2849 C2850 1.287 . S
C2850 C2849 1.287 . S
C2850 C2851 1.524 . S
C2850 H2869 0.913 . S
C2851 H2827 0.950 . S
C2851 C2850 1.524 . S
C2851 C2852 1.415 . S
C2852 H2828 0.950 . S
C2852 C2847 1.363 . S
C2852 C2851 1.415 . S
C2853 H2829 0.951 . S
C2853 C2854 1.366 . S
C2853 C2855 1.388 . S
C2854 C2853 1.366 . S
C2854 C2858 1.385 . S
C2855 H2830 0.951 . S
C2855 C2853 1.388 . S
C2855 C2856 1.366 . S
C2856 C2855 1.366 . S
C2856 C2857 1.414 . S
C2856 C2859 1.499 . S
C2857 H2831 0.950 . S
C2857 C2856 1.414 . S
C2857 C2858 1.374 . S
C2858 H2832 0.950 . S
C2858 C2854 1.385 . S
C2858 C2857 1.374 . S
C2859 C2856 1.499 . S
C2859 C2860 1.373 . S
C2859 C2861 1.389 . S
C2860 H2833 0.950 . S
C2860 C2846 1.377 . S
C2860 C2859 1.373 . S
C2861 C2845 1.377 . S
C2861 C2859 1.389 . S
C2861 C2862 1.524 . S
C2862 C2861 1.524 . S
C2862 C2863 1.397 . S
C2862 C2867 1.363 . S
C2863 H2834 0.950 . S
C2863 C2862 1.397 . S
C2863 C2864 1.334 . S
C2864 H2835 0.950 . S
C2864 C2863 1.334 . S
C2864 C2865 1.287 . S
C2865 C2864 1.287 . S
C2865 C2866 1.524 . S
C2865 H2868 0.999 . S
C2866 H2836 0.950 . S
C2866 C2865 1.524 . S
C2866 C2867 1.415 . S
C2867 H2837 0.950 . S
C2867 C2862 1.363 . S
C2867 C2866 1.415 . S
H2868 C2865 0.999 . S
H2869 C2850 0.913 . S
H2870 C2888 0.951 . S
H2871 C2890 0.951 . S
H2872 C2892 0.950 . S
H2873 C2893 0.950 . S
H2874 C2895 0.950 . S
H2875 C2898 0.950 . S
H2876 C2899 0.950 . S
H2877 C2901 0.950 . S
H2878 C2902 0.950 . S
H2879 C2903 0.951 . S
H2880 C2905 0.951 . S
H2881 C2907 0.950 . S
H2882 C2908 0.950 . S
H2883 C2910 0.950 . S
H2884 C2913 0.950 . S
H2885 C2914 0.950 . S
H2886 C2916 0.950 . S
H2887 C2917 0.950 . S
C2888 H2870 0.951 . S
C2888 C2889 1.366 . S
C2888 C2890 1.388 . S
C2889 C2888 1.366 . S
C2889 C2893 1.385 . S
C2890 H2871 0.951 . S
C2890 C2888 1.388 . S
C2890 C2891 1.366 . S
C2891 C2890 1.366 . S
C2891 C2892 1.414 . S
C2891 C2894 1.499 . S
C2892 H2872 0.950 . S
C2892 C2891 1.414 . S
C2892 C2893 1.374 . S
C2893 H2873 0.950 . S
C2893 C2889 1.385 . S
C2893 C2892 1.374 . S
C2894 C2891 1.499 . S
C2894 C2895 1.373 . S
C2894 C2896 1.389 . S
C2895 H2874 0.950 . S
C2895 C2894 1.373 . S
C2895 C2911 1.377 . S
C2896 C2894 1.389 . S
C2896 C2897 1.524 . S
C2896 C2910 1.377 . S
C2897 C2896 1.524 . S
C2897 C2898 1.397 . S
C2897 C2902 1.363 . S
C2898 H2875 0.950 . S
C2898 C2897 1.397 . S
C2898 C2899 1.334 . S
C2899 H2876 0.950 . S
C2899 C2898 1.334 . S
C2899 C2900 1.287 . S
C2900 C2899 1.287 . S
C2900 C2901 1.524 . S
C2900 H2919 0.913 . S
C2901 H2877 0.950 . S
C2901 C2900 1.524 . S
C2901 C2902 1.415 . S
C2902 H2878 0.950 . S
C2902 C2897 1.363 . S
C2902 C2901 1.415 . S
C2903 H2879 0.951 . S
C2903 C2904 1.366 . S
C2903 C2905 1.388 . S
C2904 C2903 1.366 . S
C2904 C2908 1.385 . S
C2905 H2880 0.951 . S
C2905 C2903 1.388 . S
C2905 C2906 1.366 . S
C2906 C2905 1.366 . S
C2906 C2907 1.414 . S
C2906 C2909 1.499 . S
C2907 H2881 0.950 . S
C2907 C2906 1.414 . S
C2907 C2908 1.374 . S
C2908 H2882 0.950 . S
C2908 C2904 1.385 . S
C2908 C2907 1.374 . S
C2909 C2906 1.499 . S
C2909 C2910 1.373 . S
C2909 C2911 1.389 . S
C2910 H2883 0.950 . S
C2910 C2896 1.377 . S
C2910 C2909 1.373 . S
C2911 C2895 1.377 . S
C2911 C2909 1.389 . S
C2911 C2912 1.524 . S
C2912 C2911 1.524 . S
C2912 C2913 1.397 . S
C2912 C2917 1.363 . S
C2913 H2884 0.950 . S
C2913 C2912 1.397 . S
C2913 C2914 1.334 . S
C2914 H2885 0.950 . S
C2914 C2913 1.334 . S
C2914 C2915 1.287 . S
C2915 C2914 1.287 . S
C2915 C2916 1.524 . S
C2915 H2918 0.999 . S
C2916 H2886 0.950 . S
C2916 C2915 1.524 . S
C2916 C2917 1.415 . S
C2917 H2887 0.950 . S
C2917 C2912 1.363 . S
C2917 C2916 1.415 . S
H2918 C2915 0.999 . S
H2919 C2900 0.913 . S
H2920 C2938 0.951 . S
H2921 C2940 0.951 . S
H2922 C2942 0.950 . S
H2923 C2943 0.950 . S
H2924 C2945 0.950 . S
H2925 C2948 0.950 . S
H2926 C2949 0.950 . S
H2927 C2951 0.950 . S
H2928 C2952 0.950 . S
H2929 C2953 0.951 . S
H2930 C2955 0.951 . S
H2931 C2957 0.950 . S
H2932 C2958 0.950 . S
H2933 C2960 0.950 . S
H2934 C2963 0.950 . S
H2935 C2964 0.950 . S
H2936 C2966 0.950 . S
H2937 C2967 0.950 . S
C2938 H2920 0.951 . S
C2938 C2939 1.366 . S
C2938 C2940 1.388 . S
C2939 C2938 1.366 . S
C2939 C2943 1.385 . S
C2940 H2921 0.951 . S
C2940 C2938 1.388 . S
C2940 C2941 1.366 . S
C2941 C2940 1.366 . S
C2941 C2942 1.414 . S
C2941 C2944 1.499 . S
C2942 H2922 0.950 . S
C2942 C2941 1.414 . S
C2942 C2943 1.374 . S
C2943 H2923 0.950 . S
C2943 C2939 1.385 . S
C2943 C2942 1.374 . S
C2944 C2941 1.499 . S
C2944 C2945 1.373 . S
C2944 C2946 1.389 . S
C2945 H2924 0.950 . S
C2945 C2944 1.373 . S
C2945 C2961 1.377 . S
C2946 C2944 1.389 . S
C2946 C2947 1.524 . S
C2946 C2960 1.377 . S
C2947 C2946 1.524 . S
C2947 C2948 1.397 . S
C2947 C2952 1.363 . S
C2948 H2925 0.950 . S
C2948 C2947 1.397 . S
C2948 C2949 1.334 . S
C2949 H2926 0.950 . S
C2949 C2948 1.334 . S
C2949 C2950 1.287 . S
C2950 C2949 1.287 . S
C2950 C2951 1.524 . S
C2950 H2969 0.913 . S
C2951 H2927 0.950 . S
C2951 C2950 1.524 . S
C2951 C2952 1.415 . S
C2952 H2928 0.950 . S
C2952 C2947 1.363 . S
C2952 C2951 1.415 . S
C2953 H2929 0.951 . S
C2953 C2954 1.366 . S
C2953 C2955 1.388 . S
C2954 C2953 1.366 . S
C2954 C2958 1.385 . S
C2955 H2930 0.951 . S
C2955 C2953 1.388 . S
C2955 C2956 1.366 . S
C2956 C2955 1.366 . S
C2956 C2957 1.414 . S
C2956 C2959 1.499 . S
C2957 H2931 0.950 . S
C2957 C2956 1.414 . S
C2957 C2958 1.374 . S
C2958 H2932 0.950 . S
C2958 C2954 1.385 . S
C2958 C2957 1.374 . S
C2959 C2956 1.499 . S
C2959 C2960 1.373 . S
C2959 C2961 1.389 . S
C2960 H2933 0.950 . S
C2960 C2946 1.377 . S
C2960 C2959 1.373 . S
C2961 C2945 1.377 . S
C2961 C2959 1.389 . S
C2961 C2962 1.524 . S
C2962 C2961 1.524 . S
C2962 C2963 1.397 . S
C2962 C2967 1.363 . S
C2963 H2934 0.950 . S
C2963 C2962 1.397 . S
C2963 C2964 1.334 . S
C2964 H2935 0.950 . S
C2964 C2963 1.334 . S
C2964 C2965 1.287 . S
C2965 C2964 1.287 . S
C2965 C2966 1.524 . S
C2965 H2968 0.999 . S
C2966 H2936 0.950 . S
C2966 C2965 1.524 . S
C2966 C2967 1.415 . S
C2967 H2937 0.950 . S
C2967 C2962 1.363 . S
C2967 C2966 1.415 . S
H2968 C2965 0.999 . S
H2969 C2950 0.913 . S
H2970 C2988 0.951 . S
H2971 C2990 0.951 . S
H2972 C2992 0.950 . S
H2973 C2993 0.950 . S
H2974 C2995 0.950 . S
H2975 C2998 0.950 . S
H2976 C2999 0.950 . S
H2977 C3001 0.950 . S
H2978 C3002 0.950 . S
H2979 C3003 0.951 1_455 S
H2980 C3005 0.951 . S
H2981 C3007 0.950 . S
H2982 C3008 0.950 . S
H2983 C3010 0.950 . S
H2984 C3013 0.950 . S
H2985 C3014 0.950 . S
H2986 C3016 0.950 . S
H2987 C3017 0.950 . S
C2988 H2970 0.951 . S
C2988 C2989 1.366 . S
C2988 C2990 1.388 . S
C2989 C2988 1.366 . S
C2989 C2993 1.385 . S
C2990 H2971 0.951 . S
C2990 C2988 1.388 . S
C2990 C2991 1.366 . S
C2991 C2990 1.366 . S
C2991 C2992 1.414 . S
C2991 C2994 1.499 . S
C2992 H2972 0.950 . S
C2992 C2991 1.414 . S
C2992 C2993 1.374 . S
C2993 H2973 0.950 . S
C2993 C2989 1.385 . S
C2993 C2992 1.374 . S
C2994 C2991 1.499 . S
C2994 C2995 1.373 . S
C2994 C2996 1.389 . S
C2995 H2974 0.950 . S
C2995 C2994 1.373 . S
C2995 C3011 1.377 . S
C2996 C2994 1.389 . S
C2996 C2997 1.524 . S
C2996 C3010 1.377 . S
C2997 C2996 1.524 . S
C2997 C2998 1.397 . S
C2997 C3002 1.363 . S
C2998 H2975 0.950 . S
C2998 C2997 1.397 . S
C2998 C2999 1.334 . S
C2999 H2976 0.950 . S
C2999 C2998 1.334 . S
C2999 C3000 1.287 . S
C3000 C2999 1.287 . S
C3000 C3001 1.524 . S
C3000 H3019 0.913 . S
C3001 H2977 0.950 . S
C3001 C3000 1.524 . S
C3001 C3002 1.415 . S
C3002 H2978 0.950 . S
C3002 C2997 1.363 . S
C3002 C3001 1.415 . S
C3003 H2979 0.951 1_655 S
C3003 C3004 1.366 1_655 S
C3003 C3005 1.388 . S
C3004 C3003 1.366 1_455 S
C3004 C3008 1.385 1_455 S
C3005 H2980 0.951 . S
C3005 C3003 1.388 . S
C3005 C3006 1.366 . S
C3006 C3005 1.366 . S
C3006 C3007 1.414 . S
C3006 C3009 1.499 . S
C3007 H2981 0.950 . S
C3007 C3006 1.414 . S
C3007 C3008 1.374 . S
C3008 H2982 0.950 . S
C3008 C3004 1.385 1_655 S
C3008 C3007 1.374 . S
C3009 C3006 1.499 . S
C3009 C3010 1.373 . S
C3009 C3011 1.389 . S
C3010 H2983 0.950 . S
C3010 C2996 1.377 . S
C3010 C3009 1.373 . S
C3011 C2995 1.377 . S
C3011 C3009 1.389 . S
C3011 C3012 1.524 . S
C3012 C3011 1.524 . S
C3012 C3013 1.397 . S
C3012 C3017 1.363 . S
C3013 H2984 0.950 . S
C3013 C3012 1.397 . S
C3013 C3014 1.334 . S
C3014 H2985 0.950 . S
C3014 C3013 1.334 . S
C3014 C3015 1.287 . S
C3015 C3014 1.287 . S
C3015 C3016 1.524 . S
C3015 H3018 0.999 . S
C3016 H2986 0.950 . S
C3016 C3015 1.524 . S
C3016 C3017 1.415 . S
C3017 H2987 0.950 . S
C3017 C3012 1.363 . S
C3017 C3016 1.415 . S
H3018 C3015 0.999 . S
H3019 C3000 0.913 . S
H3020 C3038 0.951 . S
H3021 C3040 0.951 . S
H3022 C3042 0.950 1_545 S
H3023 C3043 0.950 . S
H3024 C3045 0.950 . S
H3025 C3048 0.950 . S
H3026 C3049 0.950 . S
H3027 C3051 0.950 . S
H3028 C3052 0.950 1_545 S
H3029 C3053 0.951 . S
H3030 C3055 0.951 . S
H3031 C3057 0.950 . S
H3032 C3058 0.950 . S
H3033 C3060 0.950 . S
H3034 C3063 0.950 . S
H3035 C3064 0.950 . S
H3036 C3066 0.950 . S
H3037 C3067 0.950 . S
C3038 H3020 0.951 . S
C3038 C3039 1.366 . S
C3038 C3040 1.388 . S
C3039 C3038 1.366 . S
C3039 C3043 1.385 . S
C3040 H3021 0.951 . S
C3040 C3038 1.388 . S
C3040 C3041 1.366 1_565 S
C3041 C3040 1.366 1_545 S
C3041 C3042 1.414 1_545 S
C3041 C3044 1.499 . S
C3042 H3022 0.950 1_565 S
C3042 C3041 1.414 1_565 S
C3042 C3043 1.374 . S
C3043 H3023 0.950 . S
C3043 C3039 1.385 . S
C3043 C3042 1.374 . S
C3044 C3041 1.499 . S
C3044 C3045 1.373 . S
C3044 C3046 1.389 . S
C3045 H3024 0.950 . S
C3045 C3044 1.373 . S
C3045 C3061 1.377 . S
C3046 C3044 1.389 . S
C3046 C3047 1.524 1_545 S
C3046 C3060 1.377 . S
C3047 C3046 1.524 1_565 S
C3047 C3048 1.397 . S
C3047 C3052 1.363 . S
C3048 H3025 0.950 . S
C3048 C3047 1.397 . S
C3048 C3049 1.334 . S
C3049 H3026 0.950 . S
C3049 C3048 1.334 . S
C3049 C3050 1.287 . S
C3050 C3049 1.287 . S
C3050 C3051 1.524 . S
C3050 H3069 0.913 . S
C3051 H3027 0.950 . S
C3051 C3050 1.524 . S
C3051 C3052 1.415 . S
C3052 H3028 0.950 1_565 S
C3052 C3047 1.363 . S
C3052 C3051 1.415 . S
C3053 H3029 0.951 . S
C3053 C3054 1.366 . S
C3053 C3055 1.388 . S
C3054 C3053 1.366 . S
C3054 C3058 1.385 . S
C3055 H3030 0.951 . S
C3055 C3053 1.388 . S
C3055 C3056 1.366 . S
C3056 C3055 1.366 . S
C3056 C3057 1.414 . S
C3056 C3059 1.499 . S
C3057 H3031 0.950 . S
C3057 C3056 1.414 . S
C3057 C3058 1.374 . S
C3058 H3032 0.950 . S
C3058 C3054 1.385 . S
C3058 C3057 1.374 . S
C3059 C3056 1.499 . S
C3059 C3060 1.373 . S
C3059 C3061 1.389 . S
C3060 H3033 0.950 . S
C3060 C3046 1.377 . S
C3060 C3059 1.373 . S
C3061 C3045 1.377 . S
C3061 C3059 1.389 . S
C3061 C3062 1.524 . S
C3062 C3061 1.524 . S
C3062 C3063 1.397 . S
C3062 C3067 1.363 . S
C3063 H3034 0.950 . S
C3063 C3062 1.397 . S
C3063 C3064 1.334 . S
C3064 H3035 0.950 . S
C3064 C3063 1.334 . S
C3064 C3065 1.287 . S
C3065 C3064 1.287 . S
C3065 C3066 1.524 . S
C3065 H3068 0.999 . S
C3066 H3036 0.950 . S
C3066 C3065 1.524 . S
C3066 C3067 1.415 . S
C3067 H3037 0.950 . S
C3067 C3062 1.363 . S
C3067 C3066 1.415 . S
H3068 C3065 0.999 . S
H3069 C3050 0.913 . S
H3070 C3088 0.951 . S
H3071 C3090 0.951 . S
H3072 C3092 0.950 . S
H3073 C3093 0.950 . S
H3074 C3095 0.950 . S
H3075 C3098 0.950 . S
H3076 C3099 0.950 . S
H3077 C3101 0.950 . S
H3078 C3102 0.950 . S
H3079 C3103 0.951 . S
H3080 C3105 0.951 . S
H3081 C3107 0.950 . S
H3082 C3108 0.950 . S
H3083 C3110 0.950 . S
H3084 C3113 0.950 . S
H3085 C3114 0.950 . S
H3086 C3116 0.950 . S
H3087 C3117 0.950 . S
C3088 H3070 0.951 . S
C3088 C3089 1.366 . S
C3088 C3090 1.388 . S
C3089 C3088 1.366 . S
C3089 C3093 1.385 . S
C3090 H3071 0.951 . S
C3090 C3088 1.388 . S
C3090 C3091 1.366 . S
C3091 C3090 1.366 . S
C3091 C3092 1.414 . S
C3091 C3094 1.499 . S
C3092 H3072 0.950 . S
C3092 C3091 1.414 . S
C3092 C3093 1.374 . S
C3093 H3073 0.950 . S
C3093 C3089 1.385 . S
C3093 C3092 1.374 . S
C3094 C3091 1.499 . S
C3094 C3095 1.373 . S
C3094 C3096 1.389 . S
C3095 H3074 0.950 . S
C3095 C3094 1.373 . S
C3095 C3111 1.377 . S
C3096 C3094 1.389 . S
C3096 C3097 1.524 . S
C3096 C3110 1.377 . S
C3097 C3096 1.524 . S
C3097 C3098 1.397 . S
C3097 C3102 1.363 . S
C3098 H3075 0.950 . S
C3098 C3097 1.397 . S
C3098 C3099 1.334 . S
C3099 H3076 0.950 . S
C3099 C3098 1.334 . S
C3099 C3100 1.287 . S
C3100 C3099 1.287 . S
C3100 C3101 1.524 . S
C3100 H3119 0.913 . S
C3101 H3077 0.950 . S
C3101 C3100 1.524 . S
C3101 C3102 1.415 . S
C3102 H3078 0.950 . S
C3102 C3097 1.363 . S
C3102 C3101 1.415 . S
C3103 H3079 0.951 . S
C3103 C3104 1.366 . S
C3103 C3105 1.388 . S
C3104 C3103 1.366 . S
C3104 C3108 1.385 . S
C3105 H3080 0.951 . S
C3105 C3103 1.388 . S
C3105 C3106 1.366 . S
C3106 C3105 1.366 . S
C3106 C3107 1.414 . S
C3106 C3109 1.499 . S
C3107 H3081 0.950 . S
C3107 C3106 1.414 . S
C3107 C3108 1.374 . S
C3108 H3082 0.950 . S
C3108 C3104 1.385 . S
C3108 C3107 1.374 . S
C3109 C3106 1.499 . S
C3109 C3110 1.373 1_455 S
C3109 C3111 1.389 1_455 S
C3110 H3083 0.950 . S
C3110 C3096 1.377 . S
C3110 C3109 1.373 1_655 S
C3111 C3095 1.377 . S
C3111 C3109 1.389 1_655 S
C3111 C3112 1.524 1_655 S
C3112 C3111 1.524 1_455 S
C3112 C3113 1.397 . S
C3112 C3117 1.363 . S
C3113 H3084 0.950 . S
C3113 C3112 1.397 . S
C3113 C3114 1.334 . S
C3114 H3085 0.950 . S
C3114 C3113 1.334 . S
C3114 C3115 1.287 . S
C3115 C3114 1.287 . S
C3115 C3116 1.524 . S
C3115 H3118 0.999 . S
C3116 H3086 0.950 . S
C3116 C3115 1.524 . S
C3116 C3117 1.415 . S
C3117 H3087 0.950 . S
C3117 C3112 1.363 . S
C3117 C3116 1.415 . S
H3118 C3115 0.999 . S
H3119 C3100 0.913 . S
H3120 C3138 0.951 . S
H3121 C3140 0.951 . S
H3122 C3142 0.950 . S
H3123 C3143 0.950 . S
H3124 C3145 0.950 . S
H3125 C3148 0.950 . S
H3126 C3149 0.950 . S
H3127 C3151 0.950 . S
H3128 C3152 0.950 . S
H3129 C3153 0.953 . S
H3130 C3155 0.951 . S
H3131 C3157 0.950 . S
H3132 C3158 0.950 . S
H3133 C3160 0.950 . S
H3134 C3163 0.950 . S
H3135 C3164 0.950 . S
H3136 C3166 0.950 . S
H3137 C3167 0.950 . S
C3138 H3120 0.951 . S
C3138 C3139 1.366 . S
C3138 C3140 1.388 . S
C3139 C3138 1.366 . S
C3139 C3143 1.385 . S
C3140 H3121 0.951 . S
C3140 C3138 1.388 . S
C3140 C3141 1.366 . S
C3141 C3140 1.366 . S
C3141 C3142 1.414 . S
C3141 C3144 1.499 . S
C3142 H3122 0.950 . S
C3142 C3141 1.414 . S
C3142 C3143 1.374 . S
C3143 H3123 0.950 . S
C3143 C3139 1.385 . S
C3143 C3142 1.374 . S
C3144 C3141 1.499 . S
C3144 C3145 1.373 . S
C3144 C3146 1.389 . S
C3145 H3124 0.950 . S
C3145 C3144 1.373 . S
C3145 C3161 1.377 . S
C3146 C3144 1.389 . S
C3146 C3147 1.524 . S
C3146 C3160 1.377 . S
C3147 C3146 1.524 . S
C3147 C3148 1.397 . S
C3147 C3152 1.363 . S
C3148 H3125 0.950 . S
C3148 C3147 1.397 . S
C3148 C3149 1.334 . S
C3149 H3126 0.950 . S
C3149 C3148 1.334 . S
C3149 C3150 1.287 . S
C3150 C3149 1.287 . S
C3150 C3151 1.524 . S
C3150 H3169 0.913 . S
C3151 H3127 0.950 . S
C3151 C3150 1.524 . S
C3151 C3152 1.415 . S
C3152 H3128 0.950 . S
C3152 C3147 1.363 . S
C3152 C3151 1.415 . S
C3153 H3129 0.953 . S
C3153 C3154 1.370 . S
C3153 C3155 1.382 1_545 S
C3154 C3153 1.370 . S
C3154 C3158 1.385 1_545 S
C3155 H3130 0.951 . S
C3155 C3153 1.382 1_565 S
C3155 C3156 1.366 . S
C3156 C3155 1.366 . S
C3156 C3157 1.414 . S
C3156 C3159 1.499 . S
C3157 H3131 0.950 . S
C3157 C3156 1.414 . S
C3157 C3158 1.374 . S
C3158 H3132 0.950 . S
C3158 C3154 1.385 1_565 S
C3158 C3157 1.374 . S
C3159 C3156 1.499 . S
C3159 C3160 1.373 . S
C3159 C3161 1.389 . S
C3160 H3133 0.950 . S
C3160 C3146 1.377 . S
C3160 C3159 1.373 . S
C3161 C3145 1.377 . S
C3161 C3159 1.389 . S
C3161 C3162 1.524 . S
C3162 C3161 1.524 . S
C3162 C3163 1.397 . S
C3162 C3167 1.363 . S
C3163 H3134 0.950 . S
C3163 C3162 1.397 . S
C3163 C3164 1.334 . S
C3164 H3135 0.950 . S
C3164 C3163 1.334 . S
C3164 C3165 1.287 . S
C3165 C3164 1.287 . S
C3165 C3166 1.524 . S
C3165 H3168 0.999 . S
C3166 H3136 0.950 . S
C3166 C3165 1.524 . S
C3166 C3167 1.415 . S
C3167 H3137 0.950 . S
C3167 C3162 1.363 . S
C3167 C3166 1.415 . S
H3168 C3165 0.999 . S
H3169 C3150 0.913 . S
H3170 C3188 0.951 . S
H3171 C3190 0.951 . S
H3172 C3192 0.950 . S
H3173 C3193 0.950 . S
H3174 C3195 0.950 . S
H3175 C3198 0.950 . S
H3176 C3199 0.950 . S
H3177 C3201 0.950 . S
H3178 C3202 0.950 . S
H3179 C3203 0.951 . S
H3180 C3205 0.951 . S
H3181 C3207 0.950 . S
H3182 C3208 0.950 . S
H3183 C3210 0.950 . S
H3184 C3213 0.950 . S
H3185 C3214 0.950 . S
H3186 C3216 0.950 . S
H3187 C3217 0.950 . S
C3188 H3170 0.951 . S
C3188 C3189 1.366 . S
C3188 C3190 1.388 . S
C3189 C3188 1.366 . S
C3189 C3193 1.385 . S
C3190 H3171 0.951 . S
C3190 C3188 1.388 . S
C3190 C3191 1.366 . S
C3191 C3190 1.366 . S
C3191 C3192 1.414 . S
C3191 C3194 1.499 . S
C3192 H3172 0.950 . S
C3192 C3191 1.414 . S
C3192 C3193 1.374 . S
C3193 H3173 0.950 . S
C3193 C3189 1.385 . S
C3193 C3192 1.374 . S
C3194 C3191 1.499 . S
C3194 C3195 1.373 1_545 S
C3194 C3196 1.389 . S
C3195 H3174 0.950 . S
C3195 C3194 1.373 1_565 S
C3195 C3211 1.377 . S
C3196 C3194 1.389 . S
C3196 C3197 1.524 . S
C3196 C3210 1.377 1_545 S
C3197 C3196 1.524 . S
C3197 C3198 1.397 . S
C3197 C3202 1.363 . S
C3198 H3175 0.950 . S
C3198 C3197 1.397 . S
C3198 C3199 1.334 . S
C3199 H3176 0.950 . S
C3199 C3198 1.334 . S
C3199 C3200 1.287 . S
C3200 C3199 1.287 . S
C3200 C3201 1.524 . S
C3200 H3219 0.913 . S
C3201 H3177 0.950 . S
C3201 C3200 1.524 . S
C3201 C3202 1.415 . S
C3202 H3178 0.950 . S
C3202 C3197 1.363 . S
C3202 C3201 1.415 . S
C3203 H3179 0.951 . S
C3203 C3204 1.366 . S
C3203 C3205 1.388 . S
C3204 C3203 1.366 . S
C3204 C3208 1.385 . S
C3205 H3180 0.951 . S
C3205 C3203 1.388 . S
C3205 C3206 1.366 . S
C3206 C3205 1.366 . S
C3206 C3207 1.414 . S
C3206 C3209 1.499 . S
C3207 H3181 0.950 . S
C3207 C3206 1.414 . S
C3207 C3208 1.374 . S
C3208 H3182 0.950 . S
C3208 C3204 1.385 . S
C3208 C3207 1.374 . S
C3209 C3206 1.499 . S
C3209 C3210 1.373 . S
C3209 C3211 1.389 . S
C3210 H3183 0.950 . S
C3210 C3196 1.377 1_565 S
C3210 C3209 1.373 . S
C3211 C3195 1.377 . S
C3211 C3209 1.389 . S
C3211 C3212 1.524 . S
C3212 C3211 1.524 . S
C3212 C3213 1.397 . S
C3212 C3217 1.363 . S
C3213 H3184 0.950 . S
C3213 C3212 1.397 . S
C3213 C3214 1.334 . S
C3214 H3185 0.950 . S
C3214 C3213 1.334 . S
C3214 C3215 1.287 . S
C3215 C3214 1.287 . S
C3215 C3216 1.524 . S
C3215 H3218 0.999 . S
C3216 H3186 0.950 . S
C3216 C3215 1.524 . S
C3216 C3217 1.415 . S
C3217 H3187 0.950 . S
C3217 C3212 1.363 . S
C3217 C3216 1.415 . S
H3218 C3215 0.999 . S
H3219 C3200 0.913 . S
H3220 C3238 0.951 . S
H3221 C3240 0.951 . S
H3222 C3242 0.950 . S
H3223 C3243 0.950 . S
H3224 C3245 0.950 . S
H3225 C3248 0.950 . S
H3226 C3249 0.950 . S
H3227 C3251 0.950 . S
H3228 C3252 0.950 . S
H3229 C3253 0.951 . S
H3230 C3255 0.951 . S
H3231 C3257 0.950 . S
H3232 C3258 0.950 . S
H3233 C3260 0.950 . S
H3234 C3263 0.950 . S
H3235 C3264 0.950 . S
H3236 C3266 0.950 . S
H3237 C3267 0.950 . S
C3238 H3220 0.951 . S
C3238 C3239 1.366 . S
C3238 C3240 1.388 . S
C3239 C3238 1.366 . S
C3239 C3243 1.385 . S
C3240 H3221 0.951 . S
C3240 C3238 1.388 . S
C3240 C3241 1.366 . S
C3241 C3240 1.366 . S
C3241 C3242 1.414 . S
C3241 C3244 1.499 . S
C3242 H3222 0.950 . S
C3242 C3241 1.414 . S
C3242 C3243 1.374 . S
C3243 H3223 0.950 . S
C3243 C3239 1.385 . S
C3243 C3242 1.374 . S
C3244 C3241 1.499 . S
C3244 C3245 1.373 . S
C3244 C3246 1.389 . S
C3245 H3224 0.950 . S
C3245 C3244 1.373 . S
C3245 C3261 1.377 . S
C3246 C3244 1.389 . S
C3246 C3247 1.524 . S
C3246 C3260 1.377 . S
C3247 C3246 1.524 . S
C3247 C3248 1.397 . S
C3247 C3252 1.363 . S
C3248 H3225 0.950 . S
C3248 C3247 1.397 . S
C3248 C3249 1.334 . S
C3249 H3226 0.950 . S
C3249 C3248 1.334 . S
C3249 C3250 1.287 . S
C3250 C3249 1.287 . S
C3250 C3251 1.524 . S
C3250 H3269 0.913 . S
C3251 H3227 0.950 . S
C3251 C3250 1.524 . S
C3251 C3252 1.415 . S
C3252 H3228 0.950 . S
C3252 C3247 1.363 . S
C3252 C3251 1.415 . S
C3253 H3229 0.951 . S
C3253 C3254 1.366 . S
C3253 C3255 1.388 1_655 S
C3254 C3253 1.366 . S
C3254 C3258 1.385 . S
C3255 H3230 0.951 . S
C3255 C3253 1.388 1_455 S
C3255 C3256 1.366 . S
C3256 C3255 1.366 . S
C3256 C3257 1.414 1_455 S
C3256 C3259 1.499 . S
C3257 H3231 0.950 . S
C3257 C3256 1.414 1_655 S
C3257 C3258 1.374 . S
C3258 H3232 0.950 . S
C3258 C3254 1.385 . S
C3258 C3257 1.374 . S
C3259 C3256 1.499 . S
C3259 C3260 1.373 . S
C3259 C3261 1.389 . S
C3260 H3233 0.950 . S
C3260 C3246 1.377 . S
C3260 C3259 1.373 . S
C3261 C3245 1.377 . S
C3261 C3259 1.389 . S
C3261 C3262 1.524 . S
C3262 C3261 1.524 . S
C3262 C3263 1.397 . S
C3262 C3267 1.363 . S
C3263 H3234 0.950 . S
C3263 C3262 1.397 . S
C3263 C3264 1.334 . S
C3264 H3235 0.950 . S
C3264 C3263 1.334 . S
C3264 C3265 1.287 . S
C3265 C3264 1.287 . S
C3265 C3266 1.524 . S
C3265 H3268 0.999 . S
C3266 H3236 0.950 . S
C3266 C3265 1.524 . S
C3266 C3267 1.415 . S
C3267 H3237 0.950 . S
C3267 C3262 1.363 . S
C3267 C3266 1.415 . S
H3268 C3265 0.999 . S
H3269 C3250 0.913 . S
H3270 C3288 0.951 . S
H3271 C3290 0.951 . S
H3272 C3292 0.950 . S
H3273 C3293 0.950 . S
H3274 C3295 0.950 . S
H3275 C3298 0.950 . S
H3276 C3299 0.950 . S
H3277 C3301 0.950 . S
H3278 C3302 0.950 . S
H3279 C3303 0.951 . S
H3280 C3305 0.951 . S
H3281 C3307 0.950 . S
H3282 C3308 0.950 . S
H3283 C3310 0.950 . S
H3284 C3313 0.950 . S
H3285 C3314 0.950 . S
H3286 C3316 0.950 . S
H3287 C3317 0.950 . S
C3288 H3270 0.951 . S
C3288 C3289 1.366 . S
C3288 C3290 1.388 . S
C3289 C3288 1.366 . S
C3289 C3293 1.385 . S
C3290 H3271 0.951 . S
C3290 C3288 1.388 . S
C3290 C3291 1.366 . S
C3291 C3290 1.366 . S
C3291 C3292 1.414 . S
C3291 C3294 1.499 . S
C3292 H3272 0.950 . S
C3292 C3291 1.414 . S
C3292 C3293 1.374 . S
C3293 H3273 0.950 . S
C3293 C3289 1.385 . S
C3293 C3292 1.374 . S
C3294 C3291 1.499 . S
C3294 C3295 1.373 . S
C3294 C3296 1.389 . S
C3295 H3274 0.950 . S
C3295 C3294 1.373 . S
C3295 C3311 1.377 . S
C3296 C3294 1.389 . S
C3296 C3297 1.524 . S
C3296 C3310 1.377 . S
C3297 C3296 1.524 . S
C3297 C3298 1.397 . S
C3297 C3302 1.363 . S
C3298 H3275 0.950 . S
C3298 C3297 1.397 . S
C3298 C3299 1.334 . S
C3299 H3276 0.950 . S
C3299 C3298 1.334 . S
C3299 C3300 1.287 . S
C3300 C3299 1.287 . S
C3300 C3301 1.524 . S
C3300 H3319 0.913 . S
C3301 H3277 0.950 . S
C3301 C3300 1.524 . S
C3301 C3302 1.415 . S
C3302 H3278 0.950 . S
C3302 C3297 1.363 . S
C3302 C3301 1.415 . S
C3303 H3279 0.951 . S
C3303 C3304 1.366 . S
C3303 C3305 1.388 . S
C3304 C3303 1.366 . S
C3304 C3308 1.385 . S
C3305 H3280 0.951 . S
C3305 C3303 1.388 . S
C3305 C3306 1.366 . S
C3306 C3305 1.366 . S
C3306 C3307 1.414 . S
C3306 C3309 1.499 . S
C3307 H3281 0.950 . S
C3307 C3306 1.414 . S
C3307 C3308 1.374 . S
C3308 H3282 0.950 . S
C3308 C3304 1.385 . S
C3308 C3307 1.374 . S
C3309 C3306 1.499 . S
C3309 C3310 1.373 . S
C3309 C3311 1.389 . S
C3310 H3283 0.950 . S
C3310 C3296 1.377 . S
C3310 C3309 1.373 . S
C3311 C3295 1.377 . S
C3311 C3309 1.389 . S
C3311 C3312 1.524 . S
C3312 C3311 1.524 . S
C3312 C3313 1.397 . S
C3312 C3317 1.363 . S
C3313 H3284 0.950 . S
C3313 C3312 1.397 . S
C3313 C3314 1.334 . S
C3314 H3285 0.950 . S
C3314 C3313 1.334 . S
C3314 C3315 1.287 . S
C3315 C3314 1.287 . S
C3315 C3316 1.524 . S
C3315 H3318 0.999 . S
C3316 H3286 0.950 . S
C3316 C3315 1.524 . S
C3316 C3317 1.415 . S
C3317 H3287 0.950 . S
C3317 C3312 1.363 . S
C3317 C3316 1.415 . S
H3318 C3315 0.999 . S
H3319 C3300 0.913 . S
H3320 C3338 0.951 . S
H3321 C3340 0.951 . S
H3322 C3342 0.950 . S
H3323 C3343 0.950 . S
H3324 C3345 0.950 . S
H3325 C3348 0.950 . S
H3326 C3349 0.950 . S
H3327 C3351 0.950 . S
H3328 C3352 0.950 . S
H3329 C3353 0.951 . S
H3330 C3355 0.951 . S
H3331 C3357 0.950 . S
H3332 C3358 0.950 . S
H3333 C3360 0.950 . S
H3334 C3363 0.950 . S
H3335 C3364 0.950 . S
H3336 C3366 0.950 . S
H3337 C3367 0.950 . S
C3338 H3320 0.951 . S
C3338 C3339 1.366 . S
C3338 C3340 1.388 . S
C3339 C3338 1.366 . S
C3339 C3343 1.385 . S
C3340 H3321 0.951 . S
C3340 C3338 1.388 . S
C3340 C3341 1.366 . S
C3341 C3340 1.366 . S
C3341 C3342 1.414 . S
C3341 C3344 1.499 . S
C3342 H3322 0.950 . S
C3342 C3341 1.414 . S
C3342 C3343 1.374 . S
C3343 H3323 0.950 . S
C3343 C3339 1.385 . S
C3343 C3342 1.374 . S
C3344 C3341 1.499 . S
C3344 C3345 1.373 . S
C3344 C3346 1.389 . S
C3345 H3324 0.950 . S
C3345 C3344 1.373 . S
C3345 C3361 1.377 . S
C3346 C3344 1.389 . S
C3346 C3347 1.524 . S
C3346 C3360 1.377 . S
C3347 C3346 1.524 . S
C3347 C3348 1.397 . S
C3347 C3352 1.363 . S
C3348 H3325 0.950 . S
C3348 C3347 1.397 . S
C3348 C3349 1.334 . S
C3349 H3326 0.950 . S
C3349 C3348 1.334 . S
C3349 C3350 1.287 . S
C3350 C3349 1.287 . S
C3350 C3351 1.524 . S
C3350 H3369 0.913 . S
C3351 H3327 0.950 . S
C3351 C3350 1.524 . S
C3351 C3352 1.415 . S
C3352 H3328 0.950 . S
C3352 C3347 1.363 . S
C3352 C3351 1.415 . S
C3353 H3329 0.951 . S
C3353 C3354 1.366 . S
C3353 C3355 1.388 . S
C3354 C3353 1.366 . S
C3354 C3358 1.385 . S
C3355 H3330 0.951 . S
C3355 C3353 1.388 . S
C3355 C3356 1.366 . S
C3356 C3355 1.366 . S
C3356 C3357 1.414 . S
C3356 C3359 1.499 . S
C3357 H3331 0.950 . S
C3357 C3356 1.414 . S
C3357 C3358 1.374 . S
C3358 H3332 0.950 . S
C3358 C3354 1.385 . S
C3358 C3357 1.374 . S
C3359 C3356 1.499 . S
C3359 C3360 1.373 . S
C3359 C3361 1.389 . S
C3360 H3333 0.950 . S
C3360 C3346 1.377 . S
C3360 C3359 1.373 . S
C3361 C3345 1.377 . S
C3361 C3359 1.389 . S
C3361 C3362 1.524 . S
C3362 C3361 1.524 . S
C3362 C3363 1.397 . S
C3362 C3367 1.363 . S
C3363 H3334 0.950 . S
C3363 C3362 1.397 . S
C3363 C3364 1.334 . S
C3364 H3335 0.950 . S
C3364 C3363 1.334 . S
C3364 C3365 1.287 . S
C3365 C3364 1.287 . S
C3365 C3366 1.524 . S
C3365 H3368 0.999 . S
C3366 H3336 0.950 . S
C3366 C3365 1.524 . S
C3366 C3367 1.415 . S
C3367 H3337 0.950 . S
C3367 C3362 1.363 . S
C3367 C3366 1.415 . S
H3368 C3365 0.999 . S
H3369 C3350 0.913 . S
H3370 C3388 0.951 . S
H3371 C3390 0.951 . S
H3372 C3392 0.950 . S
H3373 C3393 0.950 . S
H3374 C3395 0.950 . S
H3375 C3398 0.950 . S
H3376 C3399 0.950 . S
H3377 C3401 0.950 . S
H3378 C3402 0.950 . S
H3379 C3403 0.951 . S
H3380 C3405 0.951 . S
H3381 C3407 0.950 . S
H3382 C3408 0.950 . S
H3383 C3410 0.950 . S
H3384 C3413 0.950 . S
H3385 C3414 0.950 . S
H3386 C3416 0.950 . S
H3387 C3417 0.950 . S
C3388 H3370 0.951 . S
C3388 C3389 1.366 . S
C3388 C3390 1.388 . S
C3389 C3388 1.366 . S
C3389 C3393 1.385 . S
C3390 H3371 0.951 . S
C3390 C3388 1.388 . S
C3390 C3391 1.366 . S
C3391 C3390 1.366 . S
C3391 C3392 1.414 . S
C3391 C3394 1.499 . S
C3392 H3372 0.950 . S
C3392 C3391 1.414 . S
C3392 C3393 1.374 . S
C3393 H3373 0.950 . S
C3393 C3389 1.385 . S
C3393 C3392 1.374 . S
C3394 C3391 1.499 . S
C3394 C3395 1.373 . S
C3394 C3396 1.389 . S
C3395 H3374 0.950 . S
C3395 C3394 1.373 . S
C3395 C3411 1.377 . S
C3396 C3394 1.389 . S
C3396 C3397 1.524 . S
C3396 C3410 1.377 . S
C3397 C3396 1.524 . S
C3397 C3398 1.397 . S
C3397 C3402 1.363 . S
C3398 H3375 0.950 . S
C3398 C3397 1.397 . S
C3398 C3399 1.334 . S
C3399 H3376 0.950 . S
C3399 C3398 1.334 . S
C3399 C3400 1.287 . S
C3400 C3399 1.287 . S
C3400 C3401 1.524 . S
C3400 H3419 0.913 . S
C3401 H3377 0.950 . S
C3401 C3400 1.524 . S
C3401 C3402 1.415 . S
C3402 H3378 0.950 . S
C3402 C3397 1.363 . S
C3402 C3401 1.415 . S
C3403 H3379 0.951 . S
C3403 C3404 1.366 . S
C3403 C3405 1.388 . S
C3404 C3403 1.366 . S
C3404 C3408 1.385 . S
C3405 H3380 0.951 . S
C3405 C3403 1.388 . S
C3405 C3406 1.366 . S
C3406 C3405 1.366 . S
C3406 C3407 1.414 . S
C3406 C3409 1.499 . S
C3407 H3381 0.950 . S
C3407 C3406 1.414 . S
C3407 C3408 1.374 . S
C3408 H3382 0.950 . S
C3408 C3404 1.385 . S
C3408 C3407 1.374 . S
C3409 C3406 1.499 . S
C3409 C3410 1.373 . S
C3409 C3411 1.389 . S
C3410 H3383 0.950 . S
C3410 C3396 1.377 . S
C3410 C3409 1.373 . S
C3411 C3395 1.377 . S
C3411 C3409 1.389 . S
C3411 C3412 1.524 . S
C3412 C3411 1.524 . S
C3412 C3413 1.397 . S
C3412 C3417 1.363 . S
C3413 H3384 0.950 . S
C3413 C3412 1.397 . S
C3413 C3414 1.334 . S
C3414 H3385 0.950 . S
C3414 C3413 1.334 . S
C3414 C3415 1.287 . S
C3415 C3414 1.287 . S
C3415 C3416 1.524 . S
C3415 H3418 0.999 . S
C3416 H3386 0.950 . S
C3416 C3415 1.524 . S
C3416 C3417 1.415 . S
C3417 H3387 0.950 . S
C3417 C3412 1.363 . S
C3417 C3416 1.415 . S
H3418 C3415 0.999 . S
H3419 C3400 0.913 . S
C739 C24 0.892 . S
C754 C97 0.892 . S
C789 C17 0.893 . S
C804 C64 0.893 . S
C839 C57 0.892 . S
C854 C104 0.892 . S
C889 C144 0.892 . S
C904 C177 0.892 . S
C939 C217 0.892 . S
C954 C184 0.892 . S
C989 C224 0.892 . S
C1004 C137 0.892 . S
C1039 C337 0.893 . S
C1054 C264 0.893 . S
C1089 C257 0.892 . S
C1104 C304 0.892 . S
C1139 C344 0.892 . S
C1154 C297 0.892 . S
C1189 C417 0.892 . S
C1204 C384 0.892 . S
C1239 C424 0.892 . S
C1254 C457 0.893 . S
C1289 C377 0.893 . S
C1304 C464 0.893 . S
C1339 C504 0.893 . S
C1354 C577 0.893 . S
C1389 C497 0.893 . S
C1404 C544 0.893 . S
C1439 C537 0.893 . S
C1454 C584 0.892 . S
C1489 C657 0.892 . S
C1504 C624 0.892 . S
C1539 C697 0.893 . S
C1554 C664 0.893 . S
C1589 C617 0.893 . S
C1604 C704 0.893 . S
C1639 C23 1.740 . S
C1654 C223 1.739 . S
C1689 C143 1.739 . S
C1704 C63 1.739 . S
C1739 C183 1.739 . S
C1754 C103 1.740 . S
C1789 C263 1.738 . S
C1804 C463 1.739 . S
C1839 C303 1.738 . S
C1854 C383 1.739 . S
C1889 C423 1.738 . S
C1904 C343 1.738 . S
C1939 C503 1.738 . S
C1954 C703 1.739 . S
C1989 C623 1.739 . S
C2004 C543 1.740 . S
C2039 C663 1.739 . S
C2054 C583 1.739 . S
C2089 C402 2.203 . S
C2104 C2 2.203 1_565 S
C2139 C42 2.203 . S
C2154 C442 2.203 . S
C2189 C362 2.203 . S
C2204 C82 2.203 . S
C2239 C122 2.203 1_655 S
C2254 C562 2.203 . S
C2289 C162 2.203 . S
C2304 C482 2.203 . S
C2339 C522 2.203 . S
C2354 C202 2.203 . S
C2389 C642 2.203 . S
C2404 C242 2.203 . S
C2439 C282 2.203 . S
C2454 C682 2.203 . S
C2489 C322 2.203 . S
C2504 C602 2.203 . S
C2539 C106 1.740 . S
C2554 C13 1.739 . S
C2589 C26 1.741 . S
C2604 C53 1.739 . S
C2639 C93 1.739 . S
C2654 C66 1.740 . S
C2689 C186 1.740 . S
C2704 C133 1.739 . S
C2739 C226 1.740 . S
C2754 C173 1.739 . S
C2789 C213 1.740 . S
C2804 C146 1.741 . S
C2839 C346 1.740 . S
C2854 C253 1.739 . S
C2889 C293 1.740 . S
C2904 C266 1.741 . S
C2939 C306 1.741 . S
C2954 C333 1.739 . S
C2989 C373 1.739 . S
C3004 C426 1.740 . S
C3039 C413 1.739 . S
C3054 C466 1.740 . S
C3089 C386 1.740 1_545 S
C3104 C453 1.739 . S
C3139 C493 1.739 . S
C3154 C586 1.740 . S
C3189 C533 1.740 . S
C3204 C506 1.741 1_455 S
C3239 C546 1.740 . S
C3254 C573 1.739 . S
C3289 C613 1.739 . S
C3304 C666 1.741 . S
C3339 C653 1.739 . S
C3354 C706 1.740 . S
C3389 C626 1.740 . S
C3404 C693 1.739 . S
